# Generated by pormake.
# Topology zzz, (3,6)-cn, num edge types: 1
# Building blocks:
#     Node 0, Type 0, BuildingBlock: BELTOD_clean_linker_0, # of connection points: 3
#     Node 1, Type 0, BuildingBlock: BELTOD_clean_linker_0, # of connection points: 3
#     Node 2, Type 0, BuildingBlock: BELTOD_clean_linker_0, # of connection points: 3
#     Node 3, Type 0, BuildingBlock: BELTOD_clean_linker_0, # of connection points: 3
#     Node 4, Type 0, BuildingBlock: BELTOD_clean_linker_0, # of connection points: 3
#     Node 5, Type 0, BuildingBlock: BELTOD_clean_linker_0, # of connection points: 3
#     Node 6, Type 0, BuildingBlock: BELTOD_clean_linker_0, # of connection points: 3
#     Node 7, Type 0, BuildingBlock: BELTOD_clean_linker_0, # of connection points: 3
#     Node 8, Type 1, BuildingBlock: PAMTUU_clean_sbu_0, # of connection points: 6
#     Node 9, Type 1, BuildingBlock: PAMTUU_clean_sbu_0, # of connection points: 6
#     Node 10, Type 1, BuildingBlock: PAMTUU_clean_sbu_0, # of connection points: 6
#     Node 11, Type 1, BuildingBlock: PAMTUU_clean_sbu_0, # of connection points: 6
#     Edge 12, Type (0, 1), BuildingBlock: TEMPAE_clean_linker_10, # of connection points: 2
#     Edge 13, Type (0, 1), BuildingBlock: TEMPAE_clean_linker_10, # of connection points: 2
#     Edge 14, Type (0, 1), BuildingBlock: TEMPAE_clean_linker_10, # of connection points: 2
#     Edge 15, Type (0, 1), BuildingBlock: TEMPAE_clean_linker_10, # of connection points: 2
#     Edge 16, Type (0, 1), BuildingBlock: TEMPAE_clean_linker_10, # of connection points: 2
#     Edge 17, Type (0, 1), BuildingBlock: TEMPAE_clean_linker_10, # of connection points: 2
#     Edge 18, Type (0, 1), BuildingBlock: TEMPAE_clean_linker_10, # of connection points: 2
#     Edge 19, Type (0, 1), BuildingBlock: TEMPAE_clean_linker_10, # of connection points: 2
#     Edge 20, Type (0, 1), BuildingBlock: TEMPAE_clean_linker_10, # of connection points: 2
#     Edge 21, Type (0, 1), BuildingBlock: TEMPAE_clean_linker_10, # of connection points: 2
#     Edge 22, Type (0, 1), BuildingBlock: TEMPAE_clean_linker_10, # of connection points: 2
#     Edge 23, Type (0, 1), BuildingBlock: TEMPAE_clean_linker_10, # of connection points: 2
#     Edge 24, Type (0, 1), BuildingBlock: TEMPAE_clean_linker_10, # of connection points: 2
#     Edge 25, Type (0, 1), BuildingBlock: TEMPAE_clean_linker_10, # of connection points: 2
#     Edge 26, Type (0, 1), BuildingBlock: TEMPAE_clean_linker_10, # of connection points: 2
#     Edge 27, Type (0, 1), BuildingBlock: TEMPAE_clean_linker_10, # of connection points: 2
#     Edge 28, Type (0, 1), BuildingBlock: TEMPAE_clean_linker_10, # of connection points: 2
#     Edge 29, Type (0, 1), BuildingBlock: TEMPAE_clean_linker_10, # of connection points: 2
#     Edge 30, Type (0, 1), BuildingBlock: TEMPAE_clean_linker_10, # of connection points: 2
#     Edge 31, Type (0, 1), BuildingBlock: TEMPAE_clean_linker_10, # of connection points: 2
#     Edge 32, Type (0, 1), BuildingBlock: TEMPAE_clean_linker_10, # of connection points: 2
#     Edge 33, Type (0, 1), BuildingBlock: TEMPAE_clean_linker_10, # of connection points: 2
#     Edge 34, Type (0, 1), BuildingBlock: TEMPAE_clean_linker_10, # of connection points: 2
#     Edge 35, Type (0, 1), BuildingBlock: TEMPAE_clean_linker_10, # of connection points: 2
# Relax obj value: 0.366
# Max RMSD: 0.264
# Mean RMSD: 0.210
data_MOF--net-zzz--node1-PAMTUU_clean_sbu_0--node2-BELTOD_clean_linker_0--edge1-TEMPAE_clean_linker_10
_symmetry_space_group_name_H-M    P1
_symmetry_Int_Tables_number       1
_symmetry_cell_setting            triclinic
loop_
_symmetry_equiv_pos_as_xyz
'x, y, z'
_cell_length_a     55.059162
_cell_length_b     58.285623
_cell_length_c     19.505767
_cell_angle_alpha  99.061099
_cell_angle_beta   90.04355
_cell_angle_gamma 89.860539
loop_
_atom_site_label
_atom_site_type_symbol
_atom_site_fract_x
_atom_site_fract_y
_atom_site_fract_z
_atom_type_partial_charge
P0 P 0.73355 0.46346 0.41762 0.0
H1 H 0.74677 0.47555 0.5647 0.0
H2 H 0.78546 0.48707 0.61981 0.0
H3 H 0.81335 0.50116 0.42378 0.0
H4 H 0.77451 0.48905 0.3685 0.0
H5 H 0.68359 0.44933 0.39339 0.0
H6 H 0.65328 0.45831 0.3106 0.0
H7 H 0.6984 0.51362 0.26 0.0
H8 H 0.72934 0.50423 0.34306 0.0
H9 H 0.77372 0.43157 0.42553 0.0
H10 H 0.72796 0.45151 0.26466 0.0
O11 O 0.72158 0.44782 0.47383 0.0
H12 H 0.80137 0.41211 0.33691 0.0
H13 H 0.75523 0.43191 0.1768 0.0
C14 C 0.75754 0.48138 0.46218 0.0
C15 C 0.76084 0.48188 0.53381 0.0
C16 C 0.78319 0.48845 0.56547 0.0
C17 C 0.8029 0.49468 0.52625 0.0
C18 C 0.79885 0.496 0.45554 0.0
C19 C 0.77641 0.48949 0.42397 0.0
C20 C 0.70864 0.47641 0.37593 0.0
C21 C 0.68675 0.46399 0.36668 0.0
C22 C 0.66947 0.46892 0.31854 0.0
C23 C 0.67353 0.48652 0.27844 0.0
C24 C 0.69475 0.50003 0.29055 0.0
C25 C 0.71234 0.49483 0.33846 0.0
C26 C 0.74907 0.4435 0.35217 0.0
C27 C 0.76917 0.43113 0.37129 0.0
C28 C 0.78489 0.41989 0.3206 0.0
C29 C 0.78057 0.42083 0.25009 0.0
C30 C 0.75913 0.43125 0.23091 0.0
C31 C 0.74352 0.44256 0.28153 0.0
P32 P 0.04235 0.72332 0.43171 0.0
H33 H 0.04112 0.73719 0.58238 0.0
H34 H 0.02476 0.77249 0.65052 0.0
H35 H 0.98289 0.7856 0.47354 0.0
H36 H 0.99932 0.75019 0.40535 0.0
H37 H 0.06672 0.68302 0.35917 0.0
H38 H 0.05316 0.6491 0.27995 0.0
H39 H 0.97873 0.67229 0.30994 0.0
H40 H 0.9927 0.70674 0.38913 0.0
H41 H 0.07298 0.76404 0.45876 0.0
H42 H 0.03393 0.72673 0.28429 0.0
O43 O 0.06576 0.71591 0.47814 0.0
H44 H 0.08091 0.79555 0.39246 0.0
H45 H 0.04202 0.75805 0.21773 0.0
C46 C 0.02155 0.74105 0.48857 0.0
C47 C 0.02757 0.74699 0.55896 0.0
C48 C 0.01836 0.76732 0.59782 0.0
C49 C 1.00297 0.78201 0.56684 0.0
C50 C 0.99468 0.77458 0.49882 0.0
C51 C 1.00396 0.75422 0.45989 0.0
C52 C 0.03072 0.69719 0.38093 0.0
C53 C 0.04742 0.68062 0.34984 0.0
C54 C 0.0396 0.66113 0.30463 0.0
C55 C 0.0148 0.65776 0.2891 0.0
C56 C 0.99796 0.67438 0.32076 0.0
C57 C 1.0059 0.694 0.36633 0.0
C58 C 0.05328 0.74286 0.3761 0.0
C59 C 0.0668 0.76229 0.40546 0.0
C60 C 0.0711 0.78036 0.36788 0.0
C61 C 0.062 0.77922 0.30015 0.0
C62 C 0.04945 0.75923 0.26961 0.0
C63 C 0.0449 0.74127 0.30759 0.0
P64 P 0.79599 0.03245 0.45058 0.0
H65 H 0.78566 0.01459 0.58023 0.0
H66 H 0.74716 0.00327 0.62694 0.0
H67 H 0.71443 -0.00062 0.42442 0.0
H68 H 0.75321 0.01031 0.3775 0.0
H69 H 0.83231 0.05789 0.38928 0.0
H70 H 0.86205 0.04822 0.29824 0.0
H71 H 0.84141 0.97588 0.2778 0.0
H72 H 0.81005 0.98635 0.36757 0.0
H73 H 0.76692 0.07084 0.52218 0.0
H74 H 0.78473 0.04174 0.31092 0.0
O75 O 0.81073 0.04444 0.52206 0.0
H76 H 0.73506 0.09452 0.47982 0.0
H77 H 0.75341 0.06511 0.26881 0.0
C78 C 0.77252 0.01343 0.47514 0.0
C79 C 0.77059 0.01031 0.54492 0.0
C80 C 0.74839 0.00399 0.5719 0.0
C81 C 0.7275 0.00092 0.52985 0.0
C82 C 0.73003 0.00202 0.45858 0.0
C83 C 0.75237 0.00794 0.4314 0.0
C84 C 0.8189 0.02289 0.38535 0.0
C85 C 0.83416 0.03988 0.36544 0.0
C86 C 0.8515 0.03421 0.3134 0.0
C87 C 0.85472 0.01111 0.28048 0.0
C88 C 0.83948 0.9939 0.30118 0.0
C89 C 0.82164 -0.00023 0.35302 0.0
C90 C 0.77856 0.05489 0.41979 0.0
C91 C 0.7647 0.07028 0.46676 0.0
C92 C 0.74642 0.08367 0.44257 0.0
C93 C 0.74178 0.08175 0.371 0.0
C94 C 0.75684 0.06745 0.32416 0.0
C95 C 0.77488 0.05399 0.34834 0.0
P96 P 0.48604 0.7728 0.23449 0.0
H97 H 0.47516 0.76372 0.37402 0.0
H98 H 0.49337 0.73638 0.44155 0.0
H99 H 0.55409 0.72678 0.30004 0.0
H100 H 0.53582 0.7545 0.23255 0.0
H101 H 0.46609 0.79773 0.13242 0.0
H102 H 0.47884 0.83169 0.08385 0.0
H103 H 0.54276 0.83752 0.21413 0.0
H104 H 0.52983 0.80285 0.26238 0.0
H105 H 0.45244 0.73388 0.20679 0.0
H106 H 0.51528 0.75897 0.10973 0.0
O107 O 0.45836 0.77931 0.26674 0.0
H108 H 0.45317 0.69825 0.12186 0.0
H109 H 0.51598 0.72348 0.02418 0.0
C110 C 0.5041 0.76118 0.29808 0.0
C111 C 0.49284 0.75651 0.35879 0.0
C112 C 0.50315 0.74066 0.3971 0.0
C113 C 0.52489 0.7291 0.37522 0.0
C114 C 0.53733 0.73544 0.31814 0.0
C115 C 0.52695 0.75136 0.27969 0.0
C116 C 0.49694 0.7979 0.2011 0.0
C117 C 0.48284 0.80632 0.15074 0.0
C118 C 0.4901 0.82584 0.12331 0.0
C119 C 0.51164 0.83753 0.14587 0.0
C120 C 0.52607 0.82886 0.19579 0.0
C121 C 0.51869 0.80915 0.22352 0.0
C122 C 0.4835 0.74921 0.16366 0.0
C123 C 0.46592 0.73203 0.16587 0.0
C124 C 0.46635 0.71169 0.11727 0.0
C125 C 0.48462 0.70812 0.06634 0.0
C126 C 0.50175 0.72575 0.06301 0.0
C127 C 0.50124 0.7461 0.11149 0.0
P128 P 0.2972 0.45991 0.14368 0.0
H129 H 0.28915 0.46776 1.00059 0.0
H130 H 0.2523 0.47928 0.94574 0.0
H131 H 0.22168 0.50403 0.14751 0.0
H132 H 0.25891 0.49284 0.20229 0.0
H133 H 0.34328 0.4405 0.17703 0.0
H134 H 0.37217 0.45001 0.27123 0.0
H135 H 0.33035 0.51123 0.35061 0.0
H136 H 0.30146 0.50174 0.25379 0.0
H137 H 0.26285 0.42489 0.08275 0.0
H138 H 0.28225 0.459 0.28788 0.0
O139 O 0.31097 0.4425 0.07904 0.0
H140 H 0.22277 0.41615 0.12522 0.0
H141 H 0.24246 0.45075 0.33007 0.0
C142 C 0.27708 0.47937 0.10596 0.0
C143 C 0.27506 0.47661 0.03333 0.0
C144 C 0.25366 0.48285 1.00181 0.0
C145 C 0.23367 0.49203 0.04208 0.0
C146 C 0.23664 0.49702 0.11467 0.0
C147 C 0.25816 0.49082 0.14621 0.0
C148 C 0.32033 0.47058 0.20725 0.0
C149 C 0.3405 0.4563 0.21356 0.0
C150 C 0.35692 0.4616 0.26838 0.0
C151 C 0.35351 0.48122 0.31949 0.0
C152 C 0.33366 0.49603 0.31209 0.0
C153 C 0.31713 0.49068 0.25661 0.0
C154 C 0.2755 0.44278 0.18191 0.0
C155 C 0.25902 0.42937 0.1377 0.0
C156 C 0.23598 0.42464 0.16181 0.0
C157 C 0.22924 0.43327 0.23051 0.0
C158 C 0.24702 0.4438 0.27683 0.0
C159 C 0.26998 0.44858 0.2526 0.0
P160 P 0.10919 0.25214 0.22375 0.0
H161 H 0.12335 0.23846 0.07767 0.0
H162 H 0.10611 0.20941 0.98718 0.0
H163 H 0.04313 0.20444 0.11668 0.0
H164 H 0.05954 0.23473 0.20319 0.0
H165 H 0.13378 0.28756 0.31856 0.0
H166 H 0.12107 0.32512 0.381 0.0
H167 H 0.05307 0.31905 0.2687 0.0
H168 H 0.06587 0.28097 0.2073 0.0
H169 H 0.12949 0.20803 0.24903 0.0
H170 H 0.07333 0.25556 0.33587 0.0
O171 O 0.13896 0.25119 0.20733 0.0
H172 H 0.11468 0.17918 0.31724 0.0
H173 H 0.05784 0.2267 0.40162 0.0
C174 C 0.09298 0.23843 0.14789 0.0
C175 C 0.10538 0.23177 0.08522 0.0
C176 C 0.09563 0.21478 0.03389 0.0
C177 C 0.07354 0.20374 0.04514 0.0
C178 C 0.06012 0.21231 0.10529 0.0
C179 C 0.06962 0.2297 0.15557 0.0
C180 C 0.10095 0.28166 0.25756 0.0
C181 C 0.11637 0.29456 0.30611 0.0
C182 C 0.10907 0.31611 0.34174 0.0
C183 C 0.08604 0.32521 0.32987 0.0
C184 C 0.07084 0.31248 0.27952 0.0
C185 C 0.07821 0.2908 0.24385 0.0
C186 C 0.10283 0.23409 0.28829 0.0
C187 C 0.11442 0.21251 0.2843 0.0
C188 C 0.10568 0.1959 0.32252 0.0
C189 C 0.08489 0.20049 0.36444 0.0
C190 C 0.07409 0.22263 0.37081 0.0
C191 C 0.08299 0.23925 0.33312 0.0
P192 P 0.2376 0.04786 0.20103 0.0
H193 H 0.25097 0.04842 0.05677 0.0
H194 H 0.28713 0.03491 0.99348 0.0
H195 H 0.30436 0.99194 0.14875 0.0
H196 H 0.2685 0.00716 0.21476 0.0
H197 H 0.2006 0.07294 0.28561 0.0
H198 H 0.16999 0.0624 0.3649 0.0
H199 H 0.19068 0.9903 0.31214 0.0
H200 H 0.22178 0.00115 0.23177 0.0
H201 H 0.27609 0.08019 0.18262 0.0
H202 H 0.25025 0.04412 0.34521 0.0
O203 O 0.22549 0.06799 0.15912 0.0
H204 H 0.31555 0.08561 0.2404 0.0
H205 H 0.28919 0.05009 0.4036 0.0
C206 C 0.25647 0.02862 0.14045 0.0
C207 C 0.26189 0.03539 0.07624 0.0
C208 C 0.28299 0.02757 0.03968 0.0
C209 C 0.29936 0.01234 0.06552 0.0
C210 C 0.29279 0.00405 0.12729 0.0
C211 C 0.27175 0.01225 0.16451 0.0
C212 C 0.21333 0.03785 0.25192 0.0
C213 C 0.19843 0.05477 0.29015 0.0
C214 C 0.18102 0.04875 0.33618 0.0
C215 C 0.17795 0.02553 0.34552 0.0
C216 C 0.19252 0.00835 0.30595 0.0
C217 C 0.21028 0.0145 0.25995 0.0
C218 C 0.26023 0.06173 0.25945 0.0
C219 C 0.27838 0.07467 0.23273 0.0
C220 C 0.30093 0.07773 0.26559 0.0
C221 C 0.30535 0.06813 0.32604 0.0
C222 C 0.28613 0.05788 0.35741 0.0
C223 C 0.26377 0.05443 0.32385 0.0
P224 P 0.41851 0.23937 0.44941 0.0
H225 H 0.38828 0.24496 0.32957 0.0
H226 H 0.39583 0.26676 0.23472 0.0
H227 H 0.47188 0.27134 0.28933 0.0
H228 H 0.46426 0.24935 0.38376 0.0
H229 H 0.39481 0.20758 0.52819 0.0
H230 H 0.40682 0.17076 0.5618 0.0
H231 H 0.47367 0.17216 0.44651 0.0
H232 H 0.46099 0.2089 0.41083 0.0
H233 H 0.40959 0.28861 0.47842 0.0
H234 H 0.46086 0.2404 0.54404 0.0
O235 O 0.38861 0.24262 0.46178 0.0
H236 H 0.43275 0.321 0.53917 0.0
H237 H 0.4838 0.27284 0.60781 0.0
C238 C 0.42567 0.24568 0.36422 0.0
C239 C 0.40675 0.24983 0.31959 0.0
C240 C 0.41104 0.2625 0.26568 0.0
C241 C 0.43434 0.27122 0.25558 0.0
C242 C 0.45373 0.26485 0.29566 0.0
C243 C 0.44941 0.25215 0.3496 0.0
C244 C 0.42686 0.21087 0.46627 0.0
C245 C 0.41186 0.19981 0.50895 0.0
C246 C 0.41888 0.17882 0.52882 0.0
C247 C 0.44132 0.16856 0.50743 0.0
C248 C 0.45615 0.17945 0.46332 0.0
C249 C 0.44897 0.20049 0.44299 0.0
C250 C 0.43322 0.26211 0.50764 0.0
C251 C 0.42545 0.28499 0.50789 0.0
C252 C 0.43877 0.30353 0.54284 0.0
C253 C 0.46015 0.29959 0.57885 0.0
C254 C 0.46756 0.27652 0.58008 0.0
C255 C 0.45428 0.25791 0.54431 0.0
Tb256 Tb 0.99355 0.00554 0.74121 0.0
Tb257 Tb 0.0344 0.98717 0.84386 0.0
C258 C 0.97911 0.99502 0.89088 0.0
C259 C 0.97042 0.04293 0.62782 0.0
C260 C 0.9909 0.079 0.56691 0.0
C261 C 0.97902 0.0605 0.52542 0.0
C262 C 0.96896 0.04245 0.55575 0.0
C263 C 0.98075 0.06236 0.66941 0.0
C264 C 0.99095 0.08018 0.63919 0.0
C265 C 0.966 0.02164 0.6578 0.0
O266 O 1.00596 0.03671 0.80763 0.0
O267 O 0.0416 0.02413 0.85221 0.0
O268 O 0.05097 0.98566 0.74112 0.0
O269 O 0.02876 0.01392 0.70134 0.0
O270 O 0.05338 0.98952 0.93814 0.0
O271 O 0.06188 0.96272 0.85175 0.0
O272 O 0.00982 0.95845 0.81258 0.0
O273 O 0.99804 0.96825 0.70859 0.0
O274 O 0.97217 0.99609 0.82675 0.0
O275 O 1.00214 0.99419 0.90886 0.0
C276 C 0.02662 0.04071 0.84093 0.0
O277 O 0.98159 0.00501 0.6386 0.0
O278 O 0.96213 0.0245 0.72462 0.0
C279 C 0.04817 0.00075 0.69825 0.0
C280 C 0.0655 0.95276 0.96291 0.0
C281 C 0.06526 0.91644 0.04275 0.0
C282 C 0.08632 0.92137 0.00696 0.0
C283 C 0.08642 0.9394 0.96757 0.0
C284 C 0.04444 0.94806 0.99866 0.0
C285 C 0.04436 0.93014 0.03859 0.0
C286 C 0.0656 0.9705 0.91722 0.0
C287 C 1.00097 0.95273 0.74993 0.0
H288 H 0.97885 0.0593 0.46943 0.0
H289 H 0.96138 0.02751 0.52266 0.0
H290 H 0.98229 0.06323 0.72509 0.0
H291 H 0.99976 0.09446 0.67212 0.0
H292 H 0.10258 0.91094 0.00792 0.0
H293 H 0.10274 0.94263 0.93959 0.0
H294 H 0.028 0.95807 0.99514 0.0
H295 H 0.02793 0.92701 0.06613 0.0
Tb296 Tb 0.50549 0.97968 0.73279 0.0
Tb297 Tb 0.52157 0.02034 0.85918 0.0
C298 C 0.52801 0.96639 0.86836 0.0
C299 C 0.47128 0.95781 0.57908 0.0
C300 C 0.43773 0.97936 0.50065 0.0
C301 C 0.46074 0.97279 0.47338 0.0
C302 C 0.47731 0.96191 0.51207 0.0
C303 C 0.44763 0.96294 0.60419 0.0
C304 C 0.43099 0.97353 0.56515 0.0
C305 C 0.49087 0.95313 0.6267 0.0
O306 O 0.47671 0.98149 0.8105 0.0
O307 O 0.48183 0.01943 0.85944 0.0
O308 O 0.51768 0.03586 0.7656 0.0
O309 O 0.48842 0.01173 0.71401 0.0
O310 O 0.52059 0.03429 0.96545 0.0
O311 O 0.5361 0.05351 0.89052 0.0
O312 O 0.55633 0.00692 0.81667 0.0
O313 O 0.54228 0.99022 0.70946 0.0
O314 O 0.52546 0.96053 0.80086 0.0
O315 O 0.52451 0.98778 0.90047 0.0
C316 C 0.46843 0.00055 0.84838 0.0
O317 O 0.50954 0.96678 0.6269 0.0
O318 O 0.48463 0.9507 0.68968 0.0
C319 C 0.4997 0.03168 0.72161 0.0
C320 C 0.55333 0.05905 1.00196 0.0
C321 C 0.593 0.07179 0.09062 0.0
C322 C 0.56941 0.07935 0.11053 0.0
C323 C 0.54973 0.07303 0.06641 0.0
C324 C 0.57679 0.05142 0.98177 0.0
C325 C 0.59649 0.05784 0.02558 0.0
C326 C 0.5325 0.05281 0.95609 0.0
C327 C 0.56023 0.9979 0.75141 0.0
H328 H 0.46621 0.97686 0.42334 0.0
H329 H 0.49544 0.95819 0.49166 0.0
H330 H 0.44241 0.96019 0.6558 0.0
H331 H 0.41337 0.97851 0.58745 0.0
H332 H 0.56609 0.08982 0.16063 0.0
H333 H 0.53167 0.07901 0.0827 0.0
H334 H 0.5799 0.0406 0.93207 0.0
H335 H 0.61447 0.05199 0.00828 0.0
Tb336 Tb 0.49358 0.48955 0.85669 0.0
Tb337 Tb 0.53448 0.50514 0.74803 0.0
C338 C 0.47919 0.49827 0.70698 0.0
C339 C 0.46153 0.45365 0.96728 0.0
C340 C 0.45844 0.41132 0.01975 0.0
C341 C 0.43754 0.42154 0.99599 0.0
C342 C 0.43908 0.44256 0.97019 0.0
C343 C 0.4825 0.44342 0.99063 0.0
C344 C 0.48092 0.42252 0.01712 0.0
C345 C 0.46298 0.47502 0.93588 0.0
O346 O 0.50516 0.45813 0.79091 0.0
O347 O 0.54132 0.46816 0.74293 0.0
O348 O 0.5527 0.50647 0.84832 0.0
O349 O 0.52849 0.48237 0.90124 0.0
O350 O 0.54833 0.5049 0.64723 0.0
O351 O 0.56458 0.52609 0.73537 0.0
O352 O 0.51176 0.53516 0.78359 0.0
O353 O 0.49974 0.52636 0.88866 0.0
O354 O 0.47321 0.50184 0.77313 0.0
O355 O 0.50192 0.49475 0.6874 0.0
C356 C 0.52559 0.4527 0.75764 0.0
O357 O 0.46093 0.47201 0.86856 0.0
O358 O 0.48037 0.48951 0.95771 0.0
C359 C 0.54875 0.49401 0.89792 0.0
C360 C 0.56204 0.54216 0.63313 0.0
C361 C 0.56028 0.58367 0.57598 0.0
C362 C 0.58033 0.56858 0.56327 0.0
C363 C 0.58127 0.54803 0.59215 0.0
C364 C 0.54172 0.55684 0.64402 0.0
C365 C 0.54091 0.57747 0.61618 0.0
C366 C 0.56362 0.52157 0.66795 0.0
C367 C 0.50375 0.54154 0.84701 0.0
H368 H 0.41995 0.41339 0.99801 0.0
H369 H 0.42275 0.45006 0.95187 0.0
H370 H 0.50012 0.45144 0.98781 0.0
H371 H 0.49734 0.41492 0.0345 0.0
H372 H 0.59549 0.57296 0.53247 0.0
H373 H 0.59713 0.53693 0.58334 0.0
H374 H 0.5266 0.55247 0.67481 0.0
H375 H 0.52506 0.58856 0.62587 0.0
Tb376 Tb 0.02636 0.51319 0.73023 0.0
Tb377 Tb 0.01087 0.47665 0.83185 0.0
C378 C 0.00685 0.53065 0.8813 0.0
C379 C 0.0568 0.52609 0.58079 0.0
C380 C 0.0849 0.5047 0.46832 0.0
C381 C 0.07657 0.52766 0.47045 0.0
C382 C 0.06229 0.53825 0.52624 0.0
C383 C 0.06556 0.50338 0.57891 0.0
C384 C 0.07921 0.49269 0.523 0.0
C385 C 0.04104 0.53582 0.63878 0.0
O386 O 0.06045 0.50048 0.76957 0.0
O387 O 0.04624 0.48944 0.86966 0.0
O388 O 0.03478 0.45856 0.75228 0.0
O389 O 0.02247 0.47895 0.66928 0.0
O390 O 1.00561 0.46702 0.93022 0.0
O391 O 1.00056 0.44239 0.83639 0.0
O392 O 0.97969 0.47979 0.7639 0.0
O393 O 0.98697 0.51618 0.73823 0.0
O394 O 0.0212 0.53461 0.83053 0.0
O395 O 0.99701 0.51013 0.88284 0.0
C396 C 0.06426 0.49549 0.8323 0.0
O397 O 0.01971 0.5262 0.63744 0.0
O398 O 0.05093 0.53735 0.70007 0.0
C399 C 0.03223 0.46029 0.68667 0.0
C400 C 0.97652 0.43769 0.9324 0.0
C401 C 0.93435 0.42153 0.9898 0.0
C402 C 0.95724 0.41797 0.01825 0.0
C403 C 0.97819 0.42596 0.98956 0.0
C404 C 0.95374 0.44111 0.90328 0.0
C405 C 0.93278 0.43297 0.93165 0.0
C406 C 0.99874 0.44612 0.9038 0.0
C407 C 0.97222 0.49858 0.74024 0.0
H408 H 0.081 0.53728 0.42896 0.0
H409 H 0.05559 0.55576 0.52683 0.0
H410 H 0.06186 0.49384 0.62098 0.0
H411 H 0.08587 0.4752 0.52342 0.0
H412 H 0.9589 0.40915 0.06296 0.0
H413 H 0.99569 0.42313 0.01234 0.0
H414 H 0.95217 0.45022 0.85916 0.0
H415 H 0.91531 0.43624 0.90948 0.0
C416 C 0.14315 0.00166 0.38118 0.0
C417 C 0.15989 0.01982 0.39774 0.0
C418 C 0.1249 0.99756 0.42865 0.0
C419 C 0.12351 0.01173 0.49479 0.0
C420 C 0.14081 0.02965 0.51235 0.0
C421 C 0.15863 0.03351 0.46374 0.0
C422 C 0.10673 0.97843 0.40739 0.0
C423 C 0.14036 0.04499 0.58236 0.0
C424 C 0.06383 0.01819 0.59649 0.0
C425 C 0.06728 0.00311 0.6453 0.0
C426 C 0.08171 0.02083 0.54665 0.0
C427 C 0.1038 0.00819 0.54538 0.0
C428 C 0.10737 0.99288 0.59428 0.0
C429 C 0.08911 0.99048 0.64333 0.0
C430 C 0.077 0.03736 0.49575 0.0
C431 C 0.1307 0.9793 0.59558 0.0
H432 H 0.14384 0.99111 0.33022 0.0
H433 H 0.17166 0.04739 0.47744 0.0
H434 H 0.10676 0.96614 0.44541 0.0
H435 H 0.08819 0.98594 0.40737 0.0
H436 H 0.11056 0.96858 0.35498 0.0
H437 H 0.15565 0.05754 0.58912 0.0
H438 H 0.12305 0.05488 0.58883 0.0
H439 H 0.14125 0.0342 0.62435 0.0
H440 H 0.04709 0.02806 0.59716 0.0
H441 H 0.09208 0.97881 0.68066 0.0
H442 H 0.07926 0.02819 0.4418 0.0
H443 H 0.09044 0.05168 0.50368 0.0
H444 H 0.05848 0.04505 0.5013 0.0
H445 H 0.1339 0.96853 0.54422 0.0
H446 H 0.13052 0.96776 0.6358 0.0
H447 H 0.14623 0.99145 0.60595 0.0
C448 C 0.44554 0.14506 0.60385 0.0
C449 C 0.44953 0.14725 0.53408 0.0
C450 C 0.45329 0.12532 0.63065 0.0
C451 C 0.46553 0.1073 0.58687 0.0
C452 C 0.46943 0.10922 0.51621 0.0
C453 C 0.46147 0.12922 0.4907 0.0
C454 C 0.44874 0.12395 0.70626 0.0
C455 C 0.48253 0.09046 0.46783 0.0
C456 C 0.50632 0.06953 0.67975 0.0
C457 C 0.49156 0.05013 0.68261 0.0
C458 C 0.49838 0.08787 0.64656 0.0
C459 C 0.47498 0.08693 0.6162 0.0
C460 C 0.46021 0.06713 0.61745 0.0
C461 C 0.46874 0.04888 0.65027 0.0
C462 C 0.51479 0.10854 0.64563 0.0
C463 C 0.435 0.06557 0.58677 0.0
H464 H 0.43674 0.15906 0.63814 0.0
H465 H 0.46446 0.13066 0.43664 0.0
H466 H 0.4386 0.10786 0.71109 0.0
H467 H 0.4663 0.12314 0.73372 0.0
H468 H 0.43824 0.13909 0.73277 0.0
H469 H 0.47921 0.0919 0.41248 0.0
H470 H 0.50235 0.09206 0.47774 0.0
H471 H 0.47694 0.07293 0.47696 0.0
H472 H 0.52409 0.07052 0.70403 0.0
H473 H 0.45719 0.03396 0.65235 0.0
H474 H 0.50624 0.12433 0.67514 0.0
H475 H 0.51738 0.11174 0.59154 0.0
H476 H 0.5329 0.10609 0.66865 0.0
H477 H 0.42247 0.0766 0.62244 0.0
H478 H 0.42796 0.04749 0.57886 0.0
H479 H 0.43471 0.07215 0.53653 0.0
C480 C 0.37837 0.46667 0.41239 0.0
C481 C 0.37031 0.48542 0.38087 0.0
C482 C 0.39521 0.46977 0.46733 0.0
C483 C 0.40434 0.49224 0.49227 0.0
C484 C 0.39582 0.51138 0.46211 0.0
C485 C 0.37891 0.50776 0.40698 0.0
C486 C 0.40359 0.44884 0.49786 0.0
C487 C 0.40503 0.53562 0.487 0.0
C488 C 0.43528 0.50064 0.67045 0.0
C489 C 0.45996 0.49792 0.65254 0.0
C490 C 0.41705 0.49942 0.6191 0.0
C491 C 0.42352 0.49536 0.54782 0.0
C492 C 0.44841 0.49303 0.5295 0.0
C493 C 0.46623 0.49433 0.5818 0.0
C494 C 0.39079 0.50201 0.64113 0.0
C495 C 0.45624 0.48865 0.45439 0.0
H496 H 0.3715 0.44939 0.3939 0.0
H497 H 0.37295 0.52237 0.38304 0.0
H498 H 0.42342 0.44631 0.48965 0.0
H499 H 0.40037 0.45166 0.55471 0.0
H500 H 0.39415 0.43267 0.47438 0.0
H501 H 0.3957 0.54883 0.46102 0.0
H502 H 0.40243 0.54022 0.54391 0.0
H503 H 0.42481 0.5364 0.47678 0.0
H504 H 0.43012 0.50345 0.72474 0.0
H505 H 0.48517 0.49226 0.56694 0.0
H506 H 0.38093 0.48559 0.62301 0.0
H507 H 0.38193 0.51583 0.61676 0.0
H508 H 0.38877 0.50634 0.69837 0.0
H509 H 0.44891 0.47176 0.42862 0.0
H510 H 0.47632 0.48832 0.44861 0.0
H511 H 0.44876 0.5023 0.42659 0.0
C512 C 0.09346 0.36553 0.39402 0.0
C513 C 0.07745 0.34695 0.37394 0.0
C514 C 0.08644 0.38489 0.44228 0.0
C515 C 0.06274 0.38585 0.47063 0.0
C516 C 0.04613 0.3677 0.44825 0.0
C517 C 0.05371 0.34843 0.40049 0.0
C518 C 0.10459 0.40402 0.46443 0.0
C519 C 0.02059 0.36823 0.47661 0.0
C520 C 0.05139 0.42129 0.64873 0.0
C521 C 0.04046 0.44138 0.63161 0.0
C522 C 0.05903 0.40324 0.59675 0.0
C523 C 0.0556 0.40531 0.52597 0.0
C524 C 0.04491 0.42569 0.50836 0.0
C525 C 0.03743 0.44345 0.56133 0.0
C526 C 0.07064 0.38188 0.6176 0.0
C527 C 0.04079 0.42857 0.43364 0.0
H528 H 0.11169 0.36475 0.37282 0.0
H529 H 0.04127 0.3341 0.38605 0.0
H530 H 0.09725 0.42089 0.45411 0.0
H531 H 0.10786 0.40575 0.52114 0.0
H532 H 0.12225 0.40072 0.43713 0.0
H533 H 0.00944 0.35352 0.45067 0.0
H534 H 0.02115 0.36747 0.53307 0.0
H535 H 0.01149 0.38475 0.47005 0.0
H536 H 0.05392 0.41959 0.70281 0.0
H537 H 0.02907 0.45893 0.54746 0.0
H538 H 0.08886 0.37901 0.59343 0.0
H539 H 0.05951 0.36634 0.5984 0.0
H540 H 0.07264 0.38323 0.67478 0.0
H541 H 0.05734 0.42378 0.40224 0.0
H542 H 0.03555 0.44664 0.42846 0.0
H543 H 0.02607 0.41671 0.41134 0.0
C544 C 0.87001 0.98822 0.16669 0.0
C545 C 0.87367 0.00562 0.22448 0.0
C546 C 0.887 0.98436 0.11179 0.0
C547 C 0.90795 -0.00143 0.11346 0.0
C548 C 0.91201 0.01577 0.17213 0.0
C549 C 0.89519 0.01874 0.22708 0.0
C550 C 0.88229 0.96533 0.05133 0.0
C551 C 0.93385 0.03157 0.17616 0.0
C552 C 0.96407 0.98229 1.00056 0.0
C553 C 0.96025 0.99473 0.94545 0.0
C554 C 0.94671 0.98246 0.05374 0.0
C555 C 0.92534 0.99609 0.05337 0.0
C556 C 0.92137 0.00858 0.99749 0.0
C557 C 0.93865 0.00743 0.94374 0.0
C558 C 0.95138 0.96825 0.11076 0.0
C559 C 0.89929 0.02388 0.99575 0.0
H560 H 0.85356 0.97796 0.16323 0.0
H561 H 0.89891 0.03169 0.27205 0.0
H562 H 0.87859 0.97307 0.00394 0.0
H563 H 0.89859 0.9541 0.04076 0.0
H564 H 0.86658 0.95433 0.0608 0.0
H565 H 0.93421 0.04437 0.22479 0.0
H566 H 0.95081 0.02117 0.17314 0.0
H567 H 0.93383 0.04118 0.13134 0.0
H568 H 0.98061 0.97223 1.00184 0.0
H569 H 0.93565 0.0172 0.90156 0.0
H570 H 0.93537 0.95728 0.11736 0.0
H571 H 0.95425 0.97994 0.16071 0.0
H572 H 0.96759 0.95685 0.10004 0.0
H573 H 0.88249 0.0136 0.99831 0.0
H574 H 0.89862 0.03215 0.94823 0.0
H575 H 0.89935 0.03774 0.04182 0.0
C576 C 0.50071 0.87498 0.10657 0.0
C577 C 0.51857 0.8586 0.11629 0.0
C578 C 0.50572 0.89325 0.06998 0.0
C579 C 0.52932 0.89546 0.04307 0.0
C580 C 0.54789 0.87987 0.05642 0.0
C581 C 0.54227 0.86152 0.09278 0.0
C582 C 0.48537 0.90951 0.05722 0.0
C583 C 0.57336 0.88191 0.02963 0.0
C584 C 0.52861 0.92447 0.88244 0.0
C585 C 0.53255 0.94781 0.91082 0.0
C586 C 0.52894 0.90701 0.92441 0.0
C587 C 0.53365 0.91295 0.9964 0.0
C588 C 0.53942 0.9362 0.02441 0.0
C589 C 0.5386 0.9534 0.98141 0.0
C590 C 0.52253 0.88246 0.89246 0.0
C591 C 0.54508 0.94315 0.10056 0.0
H592 H 0.4825 0.87312 0.12604 0.0
H593 H 0.55615 0.84891 0.10007 0.0
H594 H 0.49078 0.92781 0.07472 0.0
H595 H 0.48152 0.90759 1.00074 0.0
H596 H 0.46836 0.90608 0.08447 0.0
H597 H 0.58638 0.87068 0.05267 0.0
H598 H 0.57355 0.87672 0.97242 0.0
H599 H 0.5797 0.90017 0.04097 0.0
H600 H 0.52396 0.91993 0.82799 0.0
H601 H 0.54197 0.97135 0.00368 0.0
H602 H 0.50464 0.87779 0.91245 0.0
H603 H 0.53611 0.87003 0.90726 0.0
H604 H 0.52155 0.88027 0.83491 0.0
H605 H 0.52816 0.94292 0.13125 0.0
H606 H 0.55301 0.96086 0.11187 0.0
H607 H 0.55792 0.93063 0.11843 0.0
C608 C 0.65147 0.46978 0.16986 0.0
C609 C 0.65652 0.48908 0.2205 0.0
C610 C 0.63466 0.47115 0.11629 0.0
C611 C 0.62207 0.49223 0.11377 0.0
C612 C 0.62726 0.51189 0.16452 0.0
C613 C 0.64463 0.51015 0.2168 0.0
C614 C 0.63022 0.4499 0.06269 0.0
C615 C 0.614 0.53458 0.16464 0.0
C616 C 0.59155 0.5005 0.94292 0.0
C617 C 0.56756 0.49357 0.95298 0.0
C618 C 0.6094 0.50028 0.99471 0.0
C619 C 0.60312 0.49339 0.05895 0.0
C620 C 0.57884 0.48671 0.06977 0.0
C621 C 0.56148 0.48666 0.01661 0.0
C622 C 0.6351 0.50707 0.9802 0.0
C623 C 0.57118 0.47957 0.13764 0.0
H624 H 0.66078 0.4535 0.1722 0.0
H625 H 0.64839 0.52506 0.25605 0.0
H626 H 0.61113 0.44413 0.06585 0.0
H627 H 0.63299 0.45414 0.00976 0.0
H628 H 0.6424 0.43522 0.06972 0.0
H629 H 0.62032 0.54832 0.20687 0.0
H630 H 0.61655 0.54075 0.11418 0.0
H631 H 0.59423 0.53196 0.1711 0.0
H632 H 0.59651 0.50582 0.89401 0.0
H633 H 0.54299 0.48148 0.02538 0.0
H634 H 0.64757 0.49231 0.98377 0.0
H635 H 0.64103 0.52177 0.0198 0.0
H636 H 0.63706 0.51219 0.92798 0.0
H637 H 0.58127 0.46376 0.14608 0.0
H638 H 0.55141 0.47592 0.13921 0.0
H639 H 0.57571 0.4935 0.18138 0.0
C640 C 0.99026 0.64045 0.18489 0.0
C641 C 0.00716 0.63761 0.23682 0.0
C642 C 0.98602 0.62256 0.12885 0.0
C643 C 0.99921 0.60148 0.12428 0.0
C644 C 0.01505 0.59798 0.17891 0.0
C645 C 0.01866 0.61599 0.23468 0.0
C646 C 0.96861 0.62681 0.07237 0.0
C647 C 0.02952 0.5758 0.17621 0.0
C648 C 0.98559 0.54766 0.99201 0.0
C649 C 1.00287 0.54969 0.94039 0.0
C650 C 0.98335 0.5649 0.05095 0.0
C651 C 0.99903 0.58436 0.05892 0.0
C652 C 0.016 0.58679 0.00604 0.0
C653 C 0.01757 0.56955 0.94737 0.0
C654 C 0.96472 0.56194 0.10556 0.0
C655 C 0.03325 0.60714 0.01269 0.0
H656 H 0.9813 0.65708 0.18591 0.0
H657 H 0.0313 0.61344 0.27548 0.0
H658 H 0.97902 0.62973 0.02585 0.0
H659 H 0.95686 0.61143 0.05679 0.0
H660 H 0.9569 0.64224 0.08889 0.0
H661 H 0.03928 0.57494 0.22561 0.0
H662 H 0.01747 0.56045 0.16471 0.0
H663 H 0.04308 0.5746 0.13372 0.0
H664 H 0.97404 0.53245 0.98693 0.0
H665 H 0.03103 0.57132 0.90803 0.0
H666 H 0.95399 0.57814 0.1196 0.0
H667 H 0.97402 0.55848 0.15336 0.0
H668 H 0.95208 0.54736 0.08801 0.0
H669 H 0.02296 0.62373 0.02157 0.0
H670 H 0.04478 0.60689 0.96584 0.0
H671 H 0.0453 0.60692 0.05823 0.0
C672 C 0.07162 0.15912 0.3594 0.0
C673 C 0.07318 0.18177 0.39646 0.0
C674 C 0.05897 0.14168 0.38632 0.0
C675 C 0.04725 0.14708 0.45138 0.0
C676 C 0.04902 0.16976 0.4896 0.0
C677 C 0.06211 0.18679 0.46192 0.0
C678 C 0.05775 0.11758 0.3445 0.0
C679 C 0.03667 0.17618 0.55911 0.0
C680 C 0.99439 0.10931 0.48994 0.0
C681 C 1.00521 0.09597 0.53529 0.0
C682 C 0.00789 0.12607 0.46215 0.0
C683 C 0.03284 0.12909 0.47918 0.0
C684 C 0.04395 0.11514 0.52357 0.0
C685 C 0.02991 0.09889 0.55162 0.0
C686 C 0.99538 0.14083 0.41562 0.0
C687 C 0.0706 0.11744 0.54167 0.0
H688 H 0.07969 0.15513 0.30824 0.0
H689 H 0.06349 0.20412 0.49136 0.0
H690 H 0.06407 0.10454 0.37632 0.0
H691 H 0.03866 0.11328 0.3295 0.0
H692 H 0.06894 0.1159 0.29659 0.0
H693 H 0.03985 0.19458 0.58231 0.0
H694 H 0.01681 0.17332 0.55318 0.0
H695 H 0.04333 0.16485 0.59582 0.0
H696 H 0.97526 0.10698 0.4776 0.0
H697 H 0.03829 0.08828 0.58612 0.0
H698 H 1.00457 0.13877 0.36442 0.0
H699 H 0.99666 0.15944 0.43878 0.0
H700 H 0.97591 0.13624 0.40731 0.0
H701 H 0.08168 0.11522 0.49359 0.0
H702 H 0.07665 0.10447 0.57421 0.0
H703 H 0.07431 0.13509 0.5702 0.0
C704 C 0.3452 0.04975 0.2962 0.0
C705 C 0.33042 0.06307 0.34582 0.0
C706 C 0.36581 0.03838 0.31617 0.0
C707 C 0.37188 0.04069 0.38736 0.0
C708 C 0.35853 0.05619 0.43674 0.0
C709 C 0.33764 0.06698 0.41547 0.0
C710 C 0.37917 0.02196 0.26146 0.0
C711 C 0.36515 0.05987 0.51276 0.0
C712 C 0.39674 0.9885 0.45774 0.0
C713 C 0.42143 0.99393 0.4652 0.0
C714 C 0.38059 0.00333 0.43057 0.0
C715 C 0.38934 0.02427 0.41147 0.0
C716 C 0.41438 0.02952 0.41677 0.0
C717 C 0.43022 0.0142 0.44349 0.0
C718 C 0.35409 0.99673 0.42321 0.0
C719 C 0.42432 0.05138 0.39492 0.0
H720 H 0.33943 0.04641 0.24234 0.0
H721 H 0.32618 0.07733 0.45371 0.0
H722 H 0.39853 0.01987 0.27479 0.0
H723 H 0.37043 0.00462 0.25598 0.0
H724 H 0.37814 0.0281 0.21047 0.0
H725 H 0.35529 0.07487 0.54253 0.0
H726 H 0.3606 0.04406 0.53518 0.0
H727 H 0.38497 0.06282 0.5194 0.0
H728 H 0.39004 0.97269 0.47379 0.0
H729 H 0.44932 0.01851 0.4498 0.0
H730 H 0.34798 0.99691 0.36906 0.0
H731 H 0.34292 0.00962 0.45754 0.0
H732 H 0.35052 0.97924 0.43678 0.0
H733 H 0.42112 0.05108 0.33866 0.0
H734 H 0.44409 0.05339 0.40504 0.0
H735 H 0.41467 0.06683 0.42272 0.0
C736 C 0.5005 0.31909 0.60767 0.0
C737 C 0.47501 0.31967 0.61182 0.0
C738 C 0.51443 0.33882 0.63284 0.0
C739 C 0.50256 0.35971 0.66134 0.0
C740 C 0.47693 0.36017 0.66762 0.0
C741 C 0.46355 0.3401 0.64371 0.0
C742 C 0.54175 0.3375 0.62721 0.0
C743 C 0.46347 0.38209 0.69781 0.0
C744 C 0.52784 0.41199 0.77705 0.0
C745 C 0.52893 0.42799 0.73065 0.0
C746 C 0.52206 0.38865 0.75372 0.0
C747 C 0.51643 0.38153 0.68276 0.0
C748 C 0.51978 0.3972 0.63485 0.0
C749 C 0.52624 0.42033 0.6595 0.0
C750 C 0.51943 0.37238 0.80626 0.0
C751 C 0.51368 0.39042 0.55893 0.0
H752 H 0.50957 0.30347 0.58274 0.0
H753 H 0.44395 0.34055 0.64891 0.0
H754 H 0.54802 0.34784 0.58754 0.0
H755 H 0.55026 0.34504 0.67727 0.0
H756 H 0.54829 0.31935 0.61234 0.0
H757 H 0.44348 0.37959 0.69787 0.0
H758 H 0.46947 0.38802 0.75197 0.0
H759 H 0.46766 0.39617 0.66747 0.0
H760 H 0.52971 0.4181 0.83228 0.0
H761 H 0.52664 0.4329 0.62401 0.0
H762 H 0.52594 0.35468 0.78474 0.0
H763 H 0.49998 0.37106 0.81991 0.0
H764 H 0.52963 0.37872 0.85469 0.0
H765 H 0.52118 0.37304 0.53832 0.0
H766 H 0.52073 0.4032 0.52721 0.0
H767 H 0.49365 0.38946 0.55273 0.0
C768 C 0.18703 0.44516 0.20569 0.0
C769 C 0.20327 0.43608 0.25016 0.0
C770 C 0.16437 0.45402 0.2296 0.0
C771 C 0.158 0.45405 0.2998 0.0
C772 C 0.17335 0.443 0.34307 0.0
C773 C 0.19578 0.43403 0.31753 0.0
C774 C 0.14837 0.46518 0.18127 0.0
C775 C 0.16716 0.44257 0.41829 0.0
C776 C 0.12314 0.50423 0.40068 0.0
C777 C 0.10124 0.4935 0.41297 0.0
C778 C 0.14136 0.49186 0.36041 0.0
C779 C 0.13732 0.46834 0.33114 0.0
C780 C 0.11445 0.45804 0.33868 0.0
C781 C 0.09669 0.47072 0.38017 0.0
C782 C 0.16555 0.50346 0.35352 0.0
C783 C 0.10925 0.43333 0.30582 0.0
H784 H 0.19273 0.44708 0.1537 0.0
H785 H 0.20815 0.42675 0.35173 0.0
H786 H 0.12887 0.46196 0.19033 0.0
H787 H 0.15127 0.48425 0.1906 0.0
H788 H 0.15275 0.45864 0.12607 0.0
H789 H 0.17929 0.43075 0.44208 0.0
H790 H 0.16897 0.46036 0.44804 0.0
H791 H 0.14809 0.43704 0.42358 0.0
H792 H 0.12667 0.52178 0.42653 0.0
H793 H 0.07959 0.46255 0.38935 0.0
H794 H 0.17095 0.50162 0.29817 0.0
H795 H 0.17975 0.49484 0.38098 0.0
H796 H 0.1652 0.52223 0.37556 0.0
H797 H 0.11295 0.4311 0.24926 0.0
H798 H 0.09015 0.42827 0.31381 0.0
H799 H 0.12147 0.42124 0.32799 0.0
C800 C 0.05697 0.82162 0.29756 0.0
C801 C 0.06388 0.79957 0.2636 0.0
C802 C 0.05732 0.84094 0.26292 0.0
C803 C 0.06502 0.83816 0.19289 0.0
C804 C 0.07239 0.81598 0.15866 0.0
C805 C 0.07154 0.79688 0.19433 0.0
C806 C 0.04898 0.86423 0.30084 0.0
C807 C 0.08103 0.81243 0.08429 0.0
C808 C 0.04453 0.8823 0.08099 0.0
C809 C 0.06498 0.8967 0.0827 0.0
C810 C 0.04423 0.8633 0.11709 0.0
C811 C 0.065 0.8584 0.15512 0.0
C812 C 0.08569 0.87283 0.15718 0.0
C813 C 0.08538 0.8919 0.12135 0.0
C814 C 0.02173 0.84841 0.11423 0.0
C815 C 0.10821 0.86807 0.19697 0.0
H816 H 0.05068 0.82364 0.35084 0.0
H817 H 0.07696 0.77983 0.16821 0.0
H818 H 0.0636 0.87729 0.30082 0.0
H819 H 0.03312 0.87043 0.27367 0.0
H820 H 0.04376 0.86349 0.35546 0.0
H821 H 0.08683 0.79423 0.06591 0.0
H822 H 0.06629 0.81694 0.04995 0.0
H823 H 0.09652 0.82415 0.07884 0.0
H824 H 0.02884 0.88562 0.05041 0.0
H825 H 0.10112 0.90313 0.1239 0.0
H826 H 0.01503 0.84782 0.16755 0.0
H827 H 0.02614 0.83032 0.09045 0.0
H828 H 0.00688 0.85493 0.0838 0.0
H829 H 0.10376 0.86874 0.25271 0.0
H830 H 0.12292 0.88075 0.19243 0.0
H831 H 0.1151 0.85034 0.17757 0.0
C832 C 0.71897 0.09955 0.28168 0.0
C833 C 0.71904 0.09093 0.34485 0.0
C834 C 0.69727 0.10134 0.24531 0.0
C835 C 0.67521 0.09453 0.27331 0.0
C836 C 0.67485 0.08858 0.34089 0.0
C837 C 0.69684 0.08677 0.37588 0.0
C838 C 0.69842 0.10796 0.17362 0.0
C839 C 0.65164 0.08155 0.37306 0.0
C840 C 0.61616 0.10031 0.17635 0.0
C841 C 0.61389 0.07791 0.13801 0.0
C842 C 0.63595 0.10609 0.22117 0.0
C843 C 0.65387 0.08911 0.22721 0.0
C844 C 0.65163 0.06648 0.18874 0.0
C845 C 0.63161 0.06115 0.145 0.0
C846 C 0.63773 0.13031 0.2618 0.0
C847 C 0.67038 0.04783 0.19374 0.0
H848 H 0.7361 0.10319 0.25819 0.0
H849 H 0.69671 0.08003 0.42461 0.0
H850 H 0.69705 0.09203 0.13432 0.0
H851 H 0.68304 0.11948 0.16489 0.0
H852 H 0.71572 0.11685 0.16493 0.0
H853 H 0.65356 0.08195 0.42995 0.0
H854 H 0.63639 0.09309 0.36337 0.0
H855 H 0.64681 0.06358 0.34915 0.0
H856 H 0.60262 0.1134 0.17067 0.0
H857 H 0.62972 0.04369 0.11666 0.0
H858 H 0.65456 0.1388 0.24732 0.0
H859 H 0.63891 0.1295 0.31815 0.0
H860 H 0.62194 0.14132 0.25257 0.0
H861 H 0.68853 0.05374 0.17916 0.0
H862 H 0.66607 0.03123 0.15954 0.0
H863 H 0.67162 0.04442 0.24801 0.0
C864 C 0.50989 0.67422 0.01445 0.0
C865 C 0.48715 0.68521 0.02165 0.0
C866 C 0.51229 0.65141 0.9796 0.0
C867 C 0.49143 0.63933 0.9511 0.0
C868 C 0.46861 0.65071 0.95524 0.0
C869 C 0.46672 0.67352 0.99083 0.0
C870 C 0.53692 0.63982 0.97659 0.0
C871 C 0.44604 0.63845 0.9247 0.0
C872 C 0.50195 0.58301 0.82768 0.0
C873 C 0.49932 0.56649 0.87233 0.0
C874 C 0.49893 0.6068 0.85208 0.0
C875 C 0.49321 0.61421 0.92281 0.0
C876 C 0.4901 0.59762 0.96781 0.0
C877 C 0.49314 0.57396 0.94199 0.0
C878 C 0.5023 0.62401 0.80253 0.0
C879 C 0.48414 0.60488 0.04375 0.0
H880 H 0.52569 0.68308 0.03895 0.0
H881 H 0.44916 0.68207 0.99574 0.0
H882 H 0.53672 0.62566 0.00853 0.0
H883 H 0.54128 0.63184 0.92257 0.0
H884 H 0.55161 0.65219 0.99607 0.0
H885 H 0.43025 0.65042 0.9261 0.0
H886 H 0.44933 0.63034 0.87013 0.0
H887 H 0.4413 0.6243 0.95424 0.0
H888 H 0.50659 0.57741 0.77368 0.0
H889 H 0.49107 0.56136 0.97692 0.0
H890 H 0.51784 0.6356 0.81955 0.0
H891 H 0.48593 0.63518 0.80287 0.0
H892 H 0.50572 0.61535 0.74846 0.0
H893 H 0.49893 0.61591 0.0696 0.0
H894 H 0.48169 0.58976 0.07135 0.0
H895 H 0.46725 0.61543 0.04935 0.0
C896 C 0.80697 0.43128 0.15688 0.0
C897 C 0.80026 0.41491 0.1988 0.0
C898 C 0.82817 0.42845 0.11707 0.0
C899 C 0.84289 0.40862 0.11869 0.0
C900 C 0.83534 0.39118 0.15698 0.0
C901 C 0.81417 0.39466 0.19739 0.0
C902 C 0.83572 0.44761 0.07764 0.0
C903 C 0.85032 0.36955 0.15844 0.0
C904 C 0.89304 0.40352 0.98472 0.0
C905 C 0.91202 0.415 0.02389 0.0
C906 C 0.8708 0.39966 0.01597 0.0
C907 C 0.86746 0.40791 0.08752 0.0
C908 C 0.88701 0.41848 0.12784 0.0
C909 C 0.90911 0.42178 0.09551 0.0
C910 C 0.85051 0.38787 0.97178 0.0
C911 C 0.88409 0.4278 0.20419 0.0
H912 H 0.79649 0.44713 0.15867 0.0
H913 H 0.80888 0.38194 0.22953 0.0
H914 H 0.8523 0.45622 0.10169 0.0
H915 H 0.84023 0.44038 0.02311 0.0
H916 H 0.82133 0.461 0.07749 0.0
H917 H 0.83997 0.35602 0.18019 0.0
H918 H 0.85662 0.36222 0.10546 0.0
H919 H 0.86668 0.37399 0.19101 0.0
H920 H 0.89544 0.39802 0.9294 0.0
H921 H 0.92373 0.43081 0.12571 0.0
H922 H 0.83672 0.40098 0.96276 0.0
H923 H 0.84132 0.37489 0.99869 0.0
H924 H 0.85718 0.37907 0.92055 0.0
H925 H 0.87116 0.44263 0.21076 0.0
H926 H 0.90157 0.43385 0.22911 0.0
H927 H 0.87642 0.41428 0.23198 0.0
C928 C 0.04148 0.17536 0.99222 0.0
C929 C 0.06608 0.18167 0.99993 0.0
C930 C 0.03459 0.15293 0.96091 0.0
C931 C 0.05265 0.1366 0.93445 0.0
C932 C 0.07731 0.14339 0.93686 0.0
C933 C 0.08377 0.16563 0.97046 0.0
C934 C 0.00808 0.14635 0.95945 0.0
C935 C 0.09704 0.12679 0.90658 0.0
C936 C 0.04111 0.07223 0.93282 0.0
C937 C 0.03358 0.06505 0.86438 0.0
C938 C 0.04689 0.09559 0.95647 0.0
C939 C 0.04603 0.1119 0.90964 0.0
C940 C 0.03911 0.10447 0.83969 0.0
C941 C 0.03243 0.08119 0.81833 0.0
C942 C 0.05364 0.10287 0.03181 0.0
C943 C 0.03865 0.12098 0.78729 0.0
H944 H 0.02753 0.18769 0.01266 0.0
H945 H 0.10285 0.1699 0.97634 0.0
H946 H 1.00234 0.13961 0.90556 0.0
H947 H 1.00526 0.13222 0.99069 0.0
H948 H 0.99618 0.16123 0.98038 0.0
H949 H 0.11486 0.13557 0.90479 0.0
H950 H 0.09906 0.11271 0.93838 0.0
H951 H 0.0921 0.11855 0.85318 0.0
H952 H 0.04183 0.05967 0.96832 0.0
H953 H 0.02682 0.07547 0.7651 0.0
H954 H 0.04147 0.11709 0.0559 0.0
H955 H 0.07246 0.10968 0.03583 0.0
H956 H 0.05239 0.08828 0.06207 0.0
H957 H 0.02192 0.13172 0.79466 0.0
H958 H 0.03872 0.11155 0.73314 0.0
H959 H 0.05444 0.13291 0.79413 0.0
C960 C 0.34449 0.0028 0.0699 0.0
C961 C 0.32378 0.00685 0.03097 0.0
C962 C 0.36773 -0.00029 0.03915 0.0
C963 C 0.37083 0.00167 0.96818 0.0
C964 C 0.35006 0.00511 0.92808 0.0
C965 C 0.32692 0.0072 0.9594 0.0
C966 C 0.38912 0.99509 0.08348 0.0
C967 C 0.35237 0.0073 0.85225 0.0
C968 C 0.43293 0.02161 0.91195 0.0
C969 C 0.44337 0.00081 0.87845 0.0
C970 C 0.40942 0.0221 0.9408 0.0
C971 C 0.39584 0.00128 0.93682 0.0
C972 C 0.4063 0.9802 0.90335 0.0
C973 C 0.42978 0.98024 0.87437 0.0
C974 C 0.39907 0.04499 0.97574 0.0
C975 C 0.3928 0.95751 0.89906 0.0
H976 H 0.34287 0.00271 0.12517 0.0
H977 H 0.31129 0.00947 0.92744 0.0
H978 H 0.40175 0.98223 0.05447 0.0
H979 H 0.39937 0.01146 0.09889 0.0
H980 H 0.38325 0.98846 0.13114 0.0
H981 H 0.33447 0.00924 0.82747 0.0
H982 H 0.36368 0.02264 0.84678 0.0
H983 H 0.36169 0.99181 0.82358 0.0
H984 H 0.44312 0.03764 0.91551 0.0
H985 H 0.43759 0.96401 0.84904 0.0
H986 H 0.39531 0.04413 0.03115 0.0
H987 H 0.38156 0.0485 0.95113 0.0
H988 H 0.41156 0.05975 0.97291 0.0
H989 H 0.38859 0.95406 0.95212 0.0
H990 H 0.40336 0.94261 0.87139 0.0
H991 H 0.37524 0.95856 0.87182 0.0
C992 C 0.45797 0.28952 0.16782 0.0
C993 C 0.43768 0.28954 0.2113 0.0
C994 C 0.46224 0.3081 0.13131 0.0
C995 C 0.44603 0.32726 0.13936 0.0
C996 C 0.42531 0.32714 0.18222 0.0
C997 C 0.42137 0.30828 0.21738 0.0
C998 C 0.48435 0.30748 0.08539 0.0
C999 C 0.40773 0.34733 0.19291 0.0
C1000 C 0.4676 0.38697 0.11153 0.0
C1001 C 0.45666 0.38916 0.04797 0.0
C1002 C 0.46485 0.36664 0.14096 0.0
C1003 C 0.45106 0.34795 0.10552 0.0
C1004 C 0.44068 0.34977 0.04015 0.0
C1005 C 0.44347 0.37043 0.01237 0.0
C1006 C 0.47596 0.36552 0.21117 0.0
C1007 C 0.42613 0.33012 1.00036 0.0
H1008 H 0.4706 0.27505 0.16287 0.0
H1009 H 0.40593 0.30867 0.25202 0.0
H1010 H 0.479 0.31043 0.03261 0.0
H1011 H 0.49693 0.32168 0.1066 0.0
H1012 H 0.49427 0.29069 0.08105 0.0
H1013 H 0.3921 0.34421 0.22624 0.0
H1014 H 0.41726 0.36328 0.21752 0.0
H1015 H 0.40064 0.35071 0.1422 0.0
H1016 H 0.47767 0.40149 0.13939 0.0
H1017 H 0.43526 0.37197 0.96275 0.0
H1018 H 0.48748 0.34978 0.20878 0.0
H1019 H 0.46136 0.3642 0.24954 0.0
H1020 H 0.48718 0.38103 0.23022 0.0
H1021 H 0.43667 0.31369 0.9949 0.0
H1022 H 0.42096 0.33354 0.94782 0.0
H1023 H 0.40932 0.32749 0.02943 0.0
C1024 C 0.20088 0.47618 0.95769 0.0
C1025 C 0.2093 0.4941 0.00892 0.0
C1026 C 0.17767 0.47703 0.9278 0.0
C1027 C 0.16227 0.49635 0.94901 0.0
C1028 C 0.17071 0.51465 1.00017 0.0
C1029 C 0.19398 0.51323 0.02979 0.0
C1030 C 0.16941 0.45691 0.87451 0.0
C1031 C 0.15504 0.53565 0.02414 0.0
C1032 C 0.10897 0.50535 0.82913 0.0
C1033 C 0.08942 0.49597 0.8617 0.0
C1034 C 0.13262 0.50601 0.8575 0.0
C1035 C 0.13703 0.49685 0.91962 0.0
C1036 C 0.11736 0.48739 0.95263 0.0
C1037 C 0.09391 0.48716 0.92362 0.0
C1038 C 0.15295 0.51646 0.82084 0.0
C1039 C 0.12111 0.47715 0.01828 0.0
H1040 H 0.21225 0.46105 0.94212 0.0
H1041 H 0.20026 0.5272 0.06911 0.0
H1042 H 0.15318 0.44871 0.894 0.0
H1043 H 0.16403 0.46319 0.82587 0.0
H1044 H 0.18374 0.44345 0.86215 0.0
H1045 H 0.16463 0.54893 0.06157 0.0
H1046 H 0.14918 0.5437 0.97893 0.0
H1047 H 0.13838 0.5303 0.04934 0.0
H1048 H 0.10578 0.51233 0.78159 0.0
H1049 H 0.07908 0.47981 0.94943 0.0
H1050 H 0.16701 0.50309 0.80411 0.0
H1051 H 0.16181 0.53058 0.85699 0.0
H1052 H 0.14648 0.52362 0.77454 0.0
H1053 H 0.13383 0.46221 0.008 0.0
H1054 H 0.10388 0.47107 0.03887 0.0
H1055 H 0.12946 0.4902 0.05893 0.0
C1056 C 0.0195 0.81982 0.62485 0.0
C1057 C 0.99925 0.80645 0.60033 0.0
C1058 C 0.01728 0.84358 0.65027 0.0
C1059 C 0.99413 0.85427 0.65218 0.0
C1060 C 0.97344 0.84076 0.62926 0.0
C1061 C 0.97629 0.81701 0.60273 0.0
C1062 C 0.03987 0.85737 0.67307 0.0
C1063 C 0.94842 0.85148 0.63184 0.0
C1064 C 0.99237 0.91235 0.7713 0.0
C1065 C 0.99593 0.92792 0.72423 0.0
C1066 C 0.99013 0.88839 0.74817 0.0
C1067 C 0.99203 0.87975 0.67637 0.0
C1068 C 0.99465 0.89548 0.6284 0.0
C1069 C 0.99632 0.91942 0.6529 0.0
C1070 C 0.98687 0.87226 0.80089 0.0
C1071 C 0.99717 0.88696 0.55151 0.0
H1072 H 0.03737 0.81184 0.62167 0.0
H1073 H 0.96063 0.8067 0.58362 0.0
H1074 H 0.04233 0.87131 0.64093 0.0
H1075 H 0.038 0.86591 0.72779 0.0
H1076 H 0.05649 0.84639 0.6686 0.0
H1077 H 0.93404 0.83833 0.61648 0.0
H1078 H 0.9445 0.86061 0.68501 0.0
H1079 H 0.94757 0.86463 0.59652 0.0
H1080 H 0.99178 0.91885 0.82651 0.0
H1081 H 0.99914 0.93135 0.61628 0.0
H1082 H 1.00382 0.8622 0.80458 0.0
H1083 H 0.97215 0.8596 0.78449 0.0
H1084 H 0.98251 0.88183 0.85331 0.0
H1085 H 0.01449 0.87723 0.54146 0.0
H1086 H 0.99707 0.90143 0.52065 0.0
H1087 H 0.98224 0.87482 0.53292 0.0
C1088 C 0.69901 0.98422 0.61094 0.0
C1089 C 0.70294 -0.00107 0.56151 0.0
C1090 C 0.67621 0.98324 0.6434 0.0
C1091 C 0.65688 0.99763 0.62727 0.0
C1092 C 0.66081 0.01256 0.57754 0.0
C1093 C 0.68363 0.01289 0.54505 0.0
C1094 C 0.67278 0.96673 0.69493 0.0
C1095 C 0.64096 0.02847 0.55924 0.0
C1096 C 0.59079 0.98241 0.65977 0.0
C1097 C 0.58541 0.99705 0.72233 0.0
C1098 C 0.61403 0.98202 0.62943 0.0
C1099 C 0.63247 0.99692 0.66148 0.0
C1100 C 0.62726 0.01159 0.72505 0.0
C1101 C 0.60392 0.01133 0.75496 0.0
C1102 C 0.61876 0.96578 0.56245 0.0
C1103 C 0.64617 0.028 0.76066 0.0
H1104 H 0.71377 0.97333 0.6239 0.0
H1105 H 0.68657 0.02464 0.50794 0.0
H1106 H 0.66776 0.97656 0.74636 0.0
H1107 H 0.65764 0.95461 0.678 0.0
H1108 H 0.68941 0.9564 0.701 0.0
H1109 H 0.647 0.03935 0.52053 0.0
H1110 H 0.62504 0.0181 0.53789 0.0
H1111 H 0.6348 0.04009 0.60668 0.0
H1112 H 0.57675 0.97116 0.63422 0.0
H1113 H 0.6 0.0228 0.80303 0.0
H1114 H 0.63479 0.95468 0.56833 0.0
H1115 H 0.62298 0.97597 0.52051 0.0
H1116 H 0.60297 0.95439 0.54601 0.0
H1117 H 0.66269 0.01821 0.77122 0.0
H1118 H 0.63951 0.03794 0.81041 0.0
H1119 H 0.65162 0.04048 0.72602 0.0
C1120 C 0.5155 0.69134 0.41396 0.0
C1121 C 0.53261 0.70854 0.40619 0.0
C1122 C 0.52211 0.67134 0.44104 0.0
C1123 C 0.54643 0.66846 0.46166 0.0
C1124 C 0.56387 0.68572 0.4539 0.0
C1125 C 0.55679 0.70551 0.42561 0.0
C1126 C 0.503 0.65322 0.44737 0.0
C1127 C 0.58991 0.68337 0.47605 0.0
C1128 C 0.55269 0.62649 0.5909 0.0
C1129 C 0.55933 0.60586 0.54775 0.0
C1130 C 0.54976 0.64731 0.56418 0.0
C1131 C 0.55321 0.64746 0.49231 0.0
C1132 C 0.56075 0.62686 0.4489 0.0
C1133 C 0.56389 0.60632 0.47729 0.0
C1134 C 0.54205 0.66894 0.61243 0.0
C1135 C 0.5643 0.62619 0.37188 0.0
H1136 H 0.4969 0.69336 0.39757 0.0
H1137 H 0.57005 0.71875 0.41951 0.0
H1138 H 0.50875 0.63616 0.41833 0.0
H1139 H 0.50085 0.6511 0.50256 0.0
H1140 H 0.48505 0.65782 0.42724 0.0
H1141 H 0.60127 0.69824 0.46625 0.0
H1142 H 0.59063 0.68221 0.53225 0.0
H1143 H 0.5979 0.66709 0.44785 0.0
H1144 H 0.54948 0.62624 0.64563 0.0
H1145 H 0.56891 0.59037 0.44378 0.0
H1146 H 0.52327 0.67375 0.59958 0.0
H1147 H 0.554 0.68372 0.60567 0.0
H1148 H 0.54254 0.66652 0.66779 0.0
H1149 H 0.54652 0.62867 0.34715 0.0
H1150 H 0.57226 0.60947 0.34649 0.0
H1151 H 0.57629 0.64057 0.36198 0.0
C1152 C 0.84838 0.48868 0.51956 0.0
C1153 C 0.82789 0.49774 0.55763 0.0
C1154 C 0.87172 0.48968 0.54968 0.0
C1155 C 0.8749 0.49995 0.61997 0.0
C1156 C 0.85442 0.50954 0.65837 0.0
C1157 C 0.83127 0.50833 0.6269 0.0
C1158 C 0.89293 0.47923 0.50656 0.0
C1159 C 0.85689 0.52076 0.73324 0.0
C1160 C 0.93056 0.48118 0.71542 0.0
C1161 C 0.94691 0.49949 0.71246 0.0
C1162 C 0.90707 0.48129 0.68659 0.0
C1163 C 0.89954 0.50013 0.65355 0.0
C1164 C 0.91581 0.51882 0.65127 0.0
C1165 C 0.93918 0.51829 0.68069 0.0
C1166 C 0.8904 0.46103 0.69067 0.0
C1167 C 0.90865 0.53925 0.61671 0.0
H1168 H 0.84611 0.48008 0.46652 0.0
H1169 H 0.81574 0.51564 0.65682 0.0
H1170 H 0.90751 0.49234 0.5065 0.0
H1171 H 0.90067 0.4646 0.52966 0.0
H1172 H 0.88769 0.47269 0.45199 0.0
H1173 H 0.83941 0.52801 0.75549 0.0
H1174 H 0.86359 0.5078 0.76484 0.0
H1175 H 0.87048 0.53494 0.73783 0.0
H1176 H 0.93618 0.46657 0.73983 0.0
H1177 H 0.95154 0.53255 0.67784 0.0
H1178 H 0.88591 0.45221 0.63755 0.0
H1179 H 0.87307 0.46729 0.71607 0.0
H1180 H 0.8986 0.4481 0.72002 0.0
H1181 H 0.90488 0.53325 0.56089 0.0
H1182 H 0.92302 0.55275 0.62109 0.0
H1183 H 0.89171 0.54728 0.64027 0.0
loop_
_geom_bond_atom_site_label_1
_geom_bond_atom_site_label_2
_geom_bond_distance
_geom_bond_site_symmetry_2
_ccdc_geom_bond_type
P0 O11 1.490 . S
P0 C14 1.812 . S
P0 C20 1.803 . S
P0 C26 1.819 . S
H1 C15 0.941 . S
H2 C16 0.939 . S
H3 C18 0.940 . S
H4 C19 0.940 . S
H5 C21 0.939 . S
H6 C22 0.942 . S
H7 C24 0.940 . S
H8 C25 0.939 . S
H9 C27 0.941 . S
H10 C31 0.939 . S
O11 P0 1.490 . S
H12 C28 0.939 . S
H13 C30 0.940 . S
C14 P0 1.812 . S
C14 C15 1.389 . S
C14 C19 1.391 . S
C15 H1 0.941 . S
C15 C14 1.389 . S
C15 C16 1.397 . S
C16 H2 0.939 . S
C16 C15 1.397 . S
C16 C17 1.378 . S
C17 C16 1.378 . S
C17 C18 1.378 . S
C18 H3 0.940 . S
C18 C17 1.378 . S
C18 C19 1.396 . S
C19 H4 0.940 . S
C19 C14 1.391 . S
C19 C18 1.396 . S
C20 P0 1.803 . S
C20 C21 1.378 . S
C20 C25 1.400 . S
C21 H5 0.939 . S
C21 C20 1.378 . S
C21 C22 1.361 . S
C22 H6 0.942 . S
C22 C21 1.361 . S
C22 C23 1.369 . S
C23 C22 1.369 . S
C23 C24 1.404 . S
C24 H7 0.940 . S
C24 C23 1.404 . S
C24 C25 1.389 . S
C25 H8 0.939 . S
C25 C20 1.400 . S
C25 C24 1.389 . S
C26 P0 1.819 . S
C26 C27 1.391 . S
C26 C31 1.391 . S
C27 H9 0.941 . S
C27 C26 1.391 . S
C27 C28 1.396 . S
C28 H12 0.939 . S
C28 C27 1.396 . S
C28 C29 1.397 . S
C29 C28 1.397 . S
C29 C30 1.385 . S
C30 H13 0.940 . S
C30 C29 1.385 . S
C30 C31 1.388 . S
C31 H10 0.939 . S
C31 C26 1.391 . S
C31 C30 1.388 . S
P32 O43 1.490 . S
P32 C46 1.812 . S
P32 C52 1.803 . S
P32 C58 1.819 . S
H33 C47 0.941 . S
H34 C48 0.939 . S
H35 C50 0.940 . S
H36 C51 0.940 . S
H37 C53 0.939 . S
H38 C54 0.942 . S
H39 C56 0.940 . S
H40 C57 0.939 . S
H41 C59 0.941 . S
H42 C63 0.939 . S
O43 P32 1.490 . S
H44 C60 0.939 . S
H45 C62 0.940 . S
C46 P32 1.812 . S
C46 C47 1.389 . S
C46 C51 1.391 1_455 S
C47 H33 0.941 . S
C47 C46 1.389 . S
C47 C48 1.397 . S
C48 H34 0.939 . S
C48 C47 1.397 . S
C48 C49 1.378 1_455 S
C49 C48 1.378 1_655 S
C49 C50 1.378 . S
C50 H35 0.940 . S
C50 C49 1.378 . S
C50 C51 1.396 . S
C51 H36 0.940 . S
C51 C46 1.391 1_655 S
C51 C50 1.396 . S
C52 P32 1.803 . S
C52 C53 1.378 . S
C52 C57 1.400 1_455 S
C53 H37 0.939 . S
C53 C52 1.378 . S
C53 C54 1.361 . S
C54 H38 0.942 . S
C54 C53 1.361 . S
C54 C55 1.369 1_455 S
C55 C54 1.369 1_655 S
C55 C56 1.404 . S
C56 H39 0.940 . S
C56 C55 1.404 . S
C56 C57 1.389 . S
C57 H40 0.939 . S
C57 C52 1.400 1_655 S
C57 C56 1.389 . S
C58 P32 1.819 . S
C58 C59 1.391 . S
C58 C63 1.391 1_455 S
C59 H41 0.941 . S
C59 C58 1.391 . S
C59 C60 1.396 . S
C60 H44 0.939 . S
C60 C59 1.396 . S
C60 C61 1.397 1_455 S
C61 C60 1.397 1_655 S
C61 C62 1.385 . S
C62 H45 0.940 . S
C62 C61 1.385 . S
C62 C63 1.388 . S
C63 H42 0.939 . S
C63 C58 1.391 1_655 S
C63 C62 1.388 . S
P64 O75 1.490 . S
P64 C78 1.812 . S
P64 C84 1.803 . S
P64 C90 1.819 . S
H65 C79 0.941 . S
H66 C80 0.939 . S
H67 C82 0.940 . S
H68 C83 0.948 . S
H69 C85 0.939 . S
H70 C86 0.942 . S
H71 C88 0.940 . S
H72 C89 0.962 . S
H73 C91 0.941 . S
H74 C95 0.929 1_565 S
O75 P64 1.490 . S
H76 C92 0.939 . S
H77 C94 0.940 . S
C78 P64 1.812 . S
C78 C79 1.389 . S
C78 C83 1.375 1_545 S
C79 H65 0.941 . S
C79 C78 1.389 . S
C79 C80 1.397 . S
C80 H66 0.939 . S
C80 C79 1.397 . S
C80 C81 1.378 . S
C81 C80 1.378 . S
C81 C82 1.378 1_545 S
C82 H67 0.940 . S
C82 C81 1.378 1_565 S
C82 C83 1.405 . S
C83 H68 0.948 . S
C83 C78 1.375 1_565 S
C83 C82 1.405 . S
C84 P64 1.803 . S
C84 C85 1.378 . S
C84 C89 1.367 1_545 S
C85 H69 0.939 . S
C85 C84 1.378 . S
C85 C86 1.361 . S
C86 H70 0.942 . S
C86 C85 1.361 . S
C86 C87 1.369 . S
C87 C86 1.369 . S
C87 C88 1.404 1_545 S
C88 H71 0.940 . S
C88 C87 1.404 1_565 S
C88 C89 1.400 . S
C89 H72 0.962 . S
C89 C84 1.367 1_565 S
C89 C88 1.400 . S
C90 P64 1.819 . S
C90 C91 1.391 . S
C90 C95 1.391 . S
C91 H73 0.941 . S
C91 C90 1.391 . S
C91 C92 1.396 . S
C92 H76 0.939 . S
C92 C91 1.396 . S
C92 C93 1.397 . S
C93 C92 1.397 . S
C93 C94 1.385 1_545 S
C94 H77 0.940 . S
C94 C93 1.385 1_565 S
C94 C95 1.388 1_565 S
C95 H74 0.929 1_545 S
C95 C90 1.391 . S
C95 C94 1.388 1_545 S
P96 O107 1.490 . S
P96 C110 1.812 . S
P96 C116 1.803 1_554 S
P96 C122 1.819 1_554 S
H97 C111 0.941 . S
H98 C112 0.939 . S
H99 C114 0.940 . S
H100 C115 0.940 . S
H101 C117 0.939 . S
H102 C118 0.942 . S
H103 C120 0.940 . S
H104 C121 0.939 . S
H105 C123 0.941 . S
H106 C127 0.939 . S
O107 P96 1.490 . S
H108 C124 0.939 . S
H109 C126 0.940 . S
C110 P96 1.812 . S
C110 C111 1.389 . S
C110 C115 1.391 . S
C111 H97 0.941 . S
C111 C110 1.389 . S
C111 C112 1.397 . S
C112 H98 0.939 . S
C112 C111 1.397 . S
C112 C113 1.378 . S
C113 C112 1.378 . S
C113 C114 1.378 . S
C114 H99 0.940 . S
C114 C113 1.378 . S
C114 C115 1.396 . S
C115 H100 0.940 . S
C115 C110 1.391 . S
C115 C114 1.396 . S
C116 P96 1.803 1_556 S
C116 C117 1.378 . S
C116 C121 1.400 1_556 S
C117 H101 0.939 . S
C117 C116 1.378 . S
C117 C118 1.361 . S
C118 H102 0.942 . S
C118 C117 1.361 . S
C118 C119 1.369 . S
C119 C118 1.369 . S
C119 C120 1.404 1_556 S
C120 H103 0.940 . S
C120 C119 1.404 1_554 S
C120 C121 1.389 . S
C121 H104 0.939 . S
C121 C116 1.400 1_554 S
C121 C120 1.389 . S
C122 P96 1.819 1_556 S
C122 C123 1.391 . S
C122 C127 1.391 . S
C123 H105 0.941 . S
C123 C122 1.391 . S
C123 C124 1.396 . S
C124 H108 0.939 . S
C124 C123 1.396 . S
C124 C125 1.397 . S
C125 C124 1.397 . S
C125 C126 1.385 . S
C126 H109 0.940 . S
C126 C125 1.385 . S
C126 C127 1.388 . S
C127 H106 0.939 . S
C127 C122 1.391 . S
C127 C126 1.388 . S
P128 O139 1.490 . S
P128 C142 1.812 . S
P128 C148 1.803 . S
P128 C154 1.819 . S
H129 C143 0.941 . S
H130 C144 0.939 . S
H131 C146 0.940 . S
H132 C147 0.940 . S
H133 C149 0.939 . S
H134 C150 0.942 . S
H135 C152 0.940 . S
H136 C153 0.939 . S
H137 C155 0.941 . S
H138 C159 0.939 . S
O139 P128 1.490 . S
H140 C156 0.939 . S
H141 C158 0.940 . S
C142 P128 1.812 . S
C142 C143 1.389 . S
C142 C147 1.391 . S
C143 H129 0.941 . S
C143 C142 1.389 . S
C143 C144 1.397 1_554 S
C144 H130 0.939 . S
C144 C143 1.397 1_556 S
C144 C145 1.378 . S
C145 C144 1.378 . S
C145 C146 1.378 1_556 S
C146 H131 0.940 . S
C146 C145 1.378 1_554 S
C146 C147 1.396 . S
C147 H132 0.940 . S
C147 C142 1.391 . S
C147 C146 1.396 . S
C148 P128 1.803 . S
C148 C149 1.378 . S
C148 C153 1.400 . S
C149 H133 0.939 . S
C149 C148 1.378 . S
C149 C150 1.361 . S
C150 H134 0.942 . S
C150 C149 1.361 . S
C150 C151 1.369 . S
C151 C150 1.369 . S
C151 C152 1.404 . S
C152 H135 0.940 . S
C152 C151 1.404 . S
C152 C153 1.389 . S
C153 H136 0.939 . S
C153 C148 1.400 . S
C153 C152 1.389 . S
C154 P128 1.819 . S
C154 C155 1.391 . S
C154 C159 1.391 . S
C155 H137 0.941 . S
C155 C154 1.391 . S
C155 C156 1.396 . S
C156 H140 0.939 . S
C156 C155 1.396 . S
C156 C157 1.397 . S
C157 C156 1.397 . S
C157 C158 1.385 . S
C158 H141 0.940 . S
C158 C157 1.385 . S
C158 C159 1.388 . S
C159 H138 0.939 . S
C159 C154 1.391 . S
C159 C158 1.388 . S
P160 O171 1.490 . S
P160 C174 1.812 . S
P160 C180 1.803 . S
P160 C186 1.819 . S
H161 C175 0.941 . S
H162 C176 0.939 1_556 S
H163 C178 0.940 . S
H164 C179 0.940 . S
H165 C181 0.939 . S
H166 C182 0.942 . S
H167 C184 0.940 . S
H168 C185 0.939 . S
H169 C187 0.941 . S
H170 C191 0.939 . S
O171 P160 1.490 . S
H172 C188 0.939 . S
H173 C190 0.940 . S
C174 P160 1.812 . S
C174 C175 1.389 . S
C174 C179 1.391 . S
C175 H161 0.941 . S
C175 C174 1.389 . S
C175 C176 1.397 . S
C176 H162 0.939 1_554 S
C176 C175 1.397 . S
C176 C177 1.378 . S
C177 C176 1.378 . S
C177 C178 1.378 . S
C178 H163 0.940 . S
C178 C177 1.378 . S
C178 C179 1.396 . S
C179 H164 0.940 . S
C179 C174 1.391 . S
C179 C178 1.396 . S
C180 P160 1.803 . S
C180 C181 1.378 . S
C180 C185 1.400 . S
C181 H165 0.939 . S
C181 C180 1.378 . S
C181 C182 1.361 . S
C182 H166 0.942 . S
C182 C181 1.361 . S
C182 C183 1.369 . S
C183 C182 1.369 . S
C183 C184 1.404 . S
C184 H167 0.940 . S
C184 C183 1.404 . S
C184 C185 1.389 . S
C185 H168 0.939 . S
C185 C180 1.400 . S
C185 C184 1.389 . S
C186 P160 1.819 . S
C186 C187 1.391 . S
C186 C191 1.391 . S
C187 H169 0.941 . S
C187 C186 1.391 . S
C187 C188 1.396 . S
C188 H172 0.939 . S
C188 C187 1.396 . S
C188 C189 1.397 . S
C189 C188 1.397 . S
C189 C190 1.385 . S
C190 H173 0.940 . S
C190 C189 1.385 . S
C190 C191 1.388 . S
C191 H170 0.939 . S
C191 C186 1.391 . S
C191 C190 1.388 . S
P192 O203 1.490 . S
P192 C206 1.812 . S
P192 C212 1.803 . S
P192 C218 1.819 . S
H193 C207 0.941 . S
H194 C208 0.947 . S
H195 C210 0.940 . S
H196 C211 0.945 . S
H197 C213 0.939 . S
H198 C214 0.942 . S
H199 C216 0.940 . S
H200 C217 0.950 . S
H201 C219 0.941 . S
H202 C223 0.933 1_565 S
O203 P192 1.490 . S
H204 C220 0.939 . S
H205 C222 0.940 . S
C206 P192 1.812 . S
C206 C207 1.389 . S
C206 C211 1.385 1_545 S
C207 H193 0.941 . S
C207 C206 1.389 . S
C207 C208 1.388 1_554 S
C208 H194 0.947 . S
C208 C207 1.388 1_556 S
C208 C209 1.379 . S
C209 C208 1.379 . S
C209 C210 1.378 1_546 S
C210 H195 0.940 . S
C210 C209 1.378 1_564 S
C210 C211 1.398 . S
C211 H196 0.945 . S
C211 C206 1.385 1_565 S
C211 C210 1.398 . S
C212 P192 1.803 . S
C212 C213 1.378 . S
C212 C217 1.380 1_545 S
C213 H197 0.939 . S
C213 C212 1.378 . S
C213 C214 1.361 . S
C214 H198 0.942 . S
C214 C213 1.361 . S
C214 C215 1.369 . S
C215 C214 1.369 . S
C215 C216 1.404 1_545 S
C216 H199 0.940 . S
C216 C215 1.404 1_565 S
C216 C217 1.399 . S
C217 H200 0.950 . S
C217 C212 1.380 1_565 S
C217 C216 1.399 . S
C218 P192 1.819 . S
C218 C219 1.391 . S
C218 C223 1.391 . S
C219 H201 0.941 . S
C219 C218 1.391 . S
C219 C220 1.396 . S
C220 H204 0.939 . S
C220 C219 1.396 . S
C220 C221 1.397 . S
C221 C220 1.397 . S
C221 C222 1.385 1_545 S
C222 H205 0.940 . S
C222 C221 1.385 1_565 S
C222 C223 1.388 1_565 S
C223 H202 0.933 1_545 S
C223 C218 1.391 . S
C223 C222 1.388 1_545 S
P224 O235 1.490 . S
P224 C238 1.812 . S
P224 C244 1.803 . S
P224 C250 1.819 . S
H225 C239 0.941 . S
H226 C240 0.939 . S
H227 C242 0.940 . S
H228 C243 0.940 . S
H229 C245 0.939 . S
H230 C246 0.942 . S
H231 C248 0.940 . S
H232 C249 0.939 . S
H233 C251 0.941 . S
H234 C255 0.939 . S
O235 P224 1.490 . S
H236 C252 0.939 . S
H237 C254 0.940 . S
C238 P224 1.812 . S
C238 C239 1.389 . S
C238 C243 1.391 . S
C239 H225 0.941 . S
C239 C238 1.389 . S
C239 C240 1.397 . S
C240 H226 0.939 . S
C240 C239 1.397 . S
C240 C241 1.378 . S
C241 C240 1.378 . S
C241 C242 1.378 . S
C242 H227 0.940 . S
C242 C241 1.378 . S
C242 C243 1.396 . S
C243 H228 0.940 . S
C243 C238 1.391 . S
C243 C242 1.396 . S
C244 P224 1.803 . S
C244 C245 1.378 . S
C244 C249 1.400 . S
C245 H229 0.939 . S
C245 C244 1.378 . S
C245 C246 1.361 . S
C246 H230 0.942 . S
C246 C245 1.361 . S
C246 C247 1.369 . S
C247 C246 1.369 . S
C247 C248 1.404 . S
C248 H231 0.940 . S
C248 C247 1.404 . S
C248 C249 1.389 . S
C249 H232 0.939 . S
C249 C244 1.400 . S
C249 C248 1.389 . S
C250 P224 1.819 . S
C250 C251 1.391 . S
C250 C255 1.391 . S
C251 H233 0.941 . S
C251 C250 1.391 . S
C251 C252 1.396 . S
C252 H236 0.939 . S
C252 C251 1.396 . S
C252 C253 1.397 . S
C253 C252 1.397 . S
C253 C254 1.385 . S
C254 H237 0.940 . S
C254 C253 1.385 . S
C254 C255 1.388 . S
C255 H234 0.939 . S
C255 C250 1.391 . S
C255 C254 1.388 . S
Tb256 C265 2.764 . S
Tb256 O266 2.325 1_655 S
Tb256 O269 2.303 1_655 S
Tb256 O273 2.322 1_545 S
Tb256 O274 2.349 . S
Tb256 O277 2.415 1_655 S
Tb256 O278 2.399 . S
Tb257 O267 2.322 1_565 S
Tb257 O268 2.349 . S
Tb257 O270 2.415 . S
Tb257 O271 2.399 . S
Tb257 O272 2.325 . S
Tb257 O275 2.303 1_455 S
Tb257 C286 2.764 . S
C258 O274 1.261 . S
C258 O275 1.257 1_545 S
C259 C262 1.358 . S
C259 C263 1.332 1_655 S
C259 C265 1.504 . S
C260 C261 1.373 . S
C260 C264 1.308 1_655 S
C261 C260 1.373 . S
C261 C262 1.429 . S
C261 H288 0.932 . S
C262 C259 1.358 . S
C262 C261 1.429 . S
C262 H289 0.930 . S
C263 C259 1.332 1_455 S
C263 C264 1.394 . S
C263 H290 0.932 . S
C264 C260 1.308 1_455 S
C264 C263 1.394 . S
C264 H291 0.929 . S
C265 Tb256 2.764 . S
C265 C259 1.504 . S
C265 O277 1.239 1_655 S
C265 O278 1.263 . S
O266 Tb256 2.325 1_455 S
O266 C276 1.236 . S
O267 Tb257 2.322 1_545 S
O267 C276 1.257 . S
O268 Tb257 2.349 . S
O268 C279 1.261 . S
O269 Tb256 2.303 1_455 S
O269 C279 1.257 1_545 S
O270 Tb257 2.415 . S
O270 C286 1.239 . S
O271 Tb257 2.399 . S
O271 C286 1.263 . S
O272 Tb257 2.325 . S
O272 C287 1.236 1_455 S
O273 Tb256 2.322 1_565 S
O273 C287 1.257 . S
O274 Tb256 2.349 . S
O274 C258 1.261 . S
O275 Tb257 2.303 1_655 S
O275 C258 1.257 1_565 S
C276 O266 1.236 . S
C276 O267 1.257 . S
O277 Tb256 2.415 1_455 S
O277 C265 1.239 1_455 S
O278 Tb256 2.399 . S
O278 C265 1.263 . S
C279 O268 1.261 . S
C279 O269 1.257 1_565 S
C280 C283 1.358 . S
C280 C284 1.332 . S
C280 C286 1.504 . S
C281 C282 1.373 1_554 S
C281 C285 1.308 1_554 S
C282 C281 1.373 1_556 S
C282 C283 1.429 . S
C282 H292 0.932 . S
C283 C280 1.358 . S
C283 C282 1.429 . S
C283 H293 0.930 . S
C284 C280 1.332 . S
C284 C285 1.394 . S
C284 H294 0.933 1_455 S
C285 C281 1.308 1_556 S
C285 C284 1.394 . S
C285 H295 0.929 1_556 S
C286 Tb257 2.764 . S
C286 O270 1.239 . S
C286 O271 1.263 . S
C286 C280 1.504 . S
C287 O272 1.236 1_655 S
C287 O273 1.257 . S
H288 C261 0.932 . S
H289 C262 0.930 . S
H290 C263 0.932 . S
H291 C264 0.929 . S
H292 C282 0.932 . S
H293 C283 0.930 . S
H294 C284 0.933 1_655 S
H295 C285 0.929 1_554 S
Tb296 C305 2.764 . S
Tb296 O306 2.325 . S
Tb296 O309 2.303 1_565 S
Tb296 O313 2.322 . S
Tb296 O314 2.349 . S
Tb296 O317 2.415 1_565 S
Tb296 O318 2.399 . S
Tb297 O307 2.322 . S
Tb297 O308 2.349 . S
Tb297 O310 2.415 1_545 S
Tb297 O311 2.399 . S
Tb297 O312 2.325 . S
Tb297 O315 2.303 1_545 S
Tb297 C326 2.764 . S
C298 O314 1.261 . S
C298 O315 1.257 . S
C299 C302 1.358 . S
C299 C303 1.305 1_565 S
C299 C305 1.504 . S
C300 C301 1.373 . S
C300 C304 1.341 . S
C301 C300 1.373 . S
C301 C302 1.429 . S
C301 H328 0.932 . S
C302 C299 1.358 . S
C302 C301 1.429 . S
C302 H329 0.930 . S
C303 C299 1.305 1_545 S
C303 C304 1.398 1_545 S
C303 H330 0.959 . S
C304 C300 1.341 . S
C304 C303 1.398 1_565 S
C304 H331 0.894 1_565 S
C305 Tb296 2.764 . S
C305 C299 1.504 . S
C305 O317 1.239 1_565 S
C305 O318 1.263 . S
O306 Tb296 2.325 . S
O306 C316 1.236 1_565 S
O307 Tb297 2.322 . S
O307 C316 1.257 . S
O308 Tb297 2.349 . S
O308 C319 1.261 . S
O309 Tb296 2.303 1_545 S
O309 C319 1.257 . S
O310 Tb297 2.415 1_565 S
O310 C326 1.239 1_565 S
O311 Tb297 2.399 . S
O311 C326 1.263 . S
O312 Tb297 2.325 . S
O312 C327 1.236 1_545 S
O313 Tb296 2.322 . S
O313 C327 1.257 . S
O314 Tb296 2.349 . S
O314 C298 1.261 . S
O315 Tb297 2.303 1_565 S
O315 C298 1.257 . S
C316 O306 1.236 1_545 S
C316 O307 1.257 . S
O317 Tb296 2.415 1_545 S
O317 C305 1.239 1_545 S
O318 Tb296 2.399 . S
O318 C305 1.263 . S
C319 O308 1.261 . S
C319 O309 1.257 . S
C320 C323 1.358 1_556 S
C320 C324 1.314 1_545 S
C320 C326 1.504 . S
C321 C322 1.373 . S
C321 C325 1.308 . S
C322 C321 1.373 . S
C322 C323 1.429 . S
C322 H332 0.932 . S
C323 C320 1.358 1_554 S
C323 C322 1.429 . S
C323 H333 0.930 . S
C324 C320 1.314 1_565 S
C324 C325 1.395 1_566 S
C324 H334 0.950 . S
C325 C321 1.308 . S
C325 C324 1.395 1_544 S
C325 H335 0.929 1_545 S
C326 Tb297 2.764 . S
C326 O310 1.239 1_545 S
C326 O311 1.263 . S
C326 C320 1.504 . S
C327 O312 1.236 1_565 S
C327 O313 1.257 . S
H328 C301 0.932 . S
H329 C302 0.930 . S
H330 C303 0.959 . S
H331 C304 0.894 1_545 S
H332 C322 0.932 . S
H333 C323 0.930 . S
H334 C324 0.950 . S
H335 C325 0.929 1_565 S
Tb336 C345 2.764 . S
Tb336 O346 2.325 . S
Tb336 O349 2.303 . S
Tb336 O353 2.322 . S
Tb336 O354 2.349 . S
Tb336 O357 2.415 . S
Tb336 O358 2.399 . S
Tb337 O347 2.322 . S
Tb337 O348 2.349 . S
Tb337 O350 2.415 . S
Tb337 O351 2.399 . S
Tb337 O352 2.325 . S
Tb337 O355 2.303 . S
Tb337 C366 2.764 . S
C338 O354 1.261 . S
C338 O355 1.257 . S
C339 C342 1.358 . S
C339 C343 1.332 . S
C339 C345 1.504 1_554 S
C340 C341 1.373 . S
C340 C344 1.308 . S
C341 C340 1.373 . S
C341 C342 1.429 . S
C341 H368 0.932 . S
C342 C339 1.358 . S
C342 C341 1.429 . S
C342 H369 0.930 1_554 S
C343 C339 1.332 . S
C343 C344 1.394 . S
C343 H370 0.932 . S
C344 C340 1.308 . S
C344 C343 1.394 . S
C344 H371 0.929 . S
C345 Tb336 2.764 . S
C345 C339 1.504 1_556 S
C345 O357 1.239 . S
C345 O358 1.263 . S
O346 Tb336 2.325 . S
O346 C356 1.236 . S
O347 Tb337 2.322 . S
O347 C356 1.257 . S
O348 Tb337 2.349 . S
O348 C359 1.261 . S
O349 Tb336 2.303 . S
O349 C359 1.257 . S
O350 Tb337 2.415 . S
O350 C366 1.239 . S
O351 Tb337 2.399 . S
O351 C366 1.263 . S
O352 Tb337 2.325 . S
O352 C367 1.236 . S
O353 Tb336 2.322 . S
O353 C367 1.257 . S
O354 Tb336 2.349 . S
O354 C338 1.261 . S
O355 Tb337 2.303 . S
O355 C338 1.257 . S
C356 O346 1.236 . S
C356 O347 1.257 . S
O357 Tb336 2.415 . S
O357 C345 1.239 . S
O358 Tb336 2.399 . S
O358 C345 1.263 . S
C359 O348 1.261 . S
C359 O349 1.257 . S
C360 C363 1.358 . S
C360 C364 1.332 . S
C360 C366 1.504 . S
C361 C362 1.373 . S
C361 C365 1.308 . S
C362 C361 1.373 . S
C362 C363 1.429 . S
C362 H372 0.932 . S
C363 C360 1.358 . S
C363 C362 1.429 . S
C363 H373 0.930 . S
C364 C360 1.332 . S
C364 C365 1.394 . S
C364 H374 0.932 . S
C365 C361 1.308 . S
C365 C364 1.394 . S
C365 H375 0.929 . S
C366 Tb337 2.764 . S
C366 O350 1.239 . S
C366 O351 1.263 . S
C366 C360 1.504 . S
C367 O352 1.236 . S
C367 O353 1.257 . S
H368 C341 0.932 . S
H369 C342 0.930 1_556 S
H370 C343 0.932 . S
H371 C344 0.929 . S
H372 C362 0.932 . S
H373 C363 0.930 . S
H374 C364 0.932 . S
H375 C365 0.929 . S
Tb376 C385 2.764 . S
Tb376 O386 2.325 . S
Tb376 O389 2.303 . S
Tb376 O393 2.322 1_455 S
Tb376 O394 2.349 . S
Tb376 O397 2.415 . S
Tb376 O398 2.399 . S
Tb377 O387 2.322 1_655 S
Tb377 O388 2.349 . S
Tb377 O390 2.415 . S
Tb377 O391 2.399 . S
Tb377 O392 2.325 . S
Tb377 O395 2.303 1_655 S
Tb377 C406 2.764 . S
C378 O394 1.261 . S
C378 O395 1.257 . S
C379 C382 1.358 . S
C379 C383 1.332 . S
C379 C385 1.504 . S
C380 C381 1.373 . S
C380 C384 1.308 . S
C381 C380 1.373 . S
C381 C382 1.429 . S
C381 H408 0.932 . S
C382 C379 1.358 . S
C382 C381 1.429 . S
C382 H409 0.930 . S
C383 C379 1.332 . S
C383 C384 1.394 . S
C383 H410 0.932 . S
C384 C380 1.308 . S
C384 C383 1.394 . S
C384 H411 0.929 . S
C385 Tb376 2.764 . S
C385 C379 1.504 . S
C385 O397 1.239 . S
C385 O398 1.263 . S
O386 Tb376 2.325 . S
O386 C396 1.236 . S
O387 Tb377 2.322 1_455 S
O387 C396 1.257 . S
O388 Tb377 2.349 . S
O388 C399 1.261 1_655 S
O389 Tb376 2.303 . S
O389 C399 1.257 . S
O390 Tb377 2.415 . S
O390 C406 1.239 . S
O391 Tb377 2.399 . S
O391 C406 1.263 . S
O392 Tb377 2.325 . S
O392 C407 1.236 . S
O393 Tb376 2.322 1_655 S
O393 C407 1.257 . S
O394 Tb376 2.349 . S
O394 C378 1.261 . S
O395 Tb377 2.303 1_455 S
O395 C378 1.257 . S
C396 O386 1.236 . S
C396 O387 1.257 . S
O397 Tb376 2.415 . S
O397 C385 1.239 . S
O398 Tb376 2.399 . S
O398 C385 1.263 . S
C399 O388 1.261 1_455 S
C399 O389 1.257 . S
C400 C403 1.358 . S
C400 C404 1.332 . S
C400 C406 1.504 . S
C401 C402 1.373 . S
C401 C405 1.308 . S
C402 C401 1.373 . S
C402 C403 1.429 1_554 S
C402 H412 0.932 . S
C403 C400 1.358 . S
C403 C402 1.429 1_556 S
C403 H413 0.930 . S
C404 C400 1.332 . S
C404 C405 1.394 1_556 S
C404 H414 0.932 . S
C405 C401 1.308 . S
C405 C404 1.394 1_554 S
C405 H415 0.929 . S
C406 Tb377 2.764 . S
C406 O390 1.239 . S
C406 O391 1.263 . S
C406 C400 1.504 . S
C407 O392 1.236 . S
C407 O393 1.257 . S
H408 C381 0.932 . S
H409 C382 0.930 . S
H410 C383 0.932 . S
H411 C384 0.929 . S
H412 C402 0.932 . S
H413 C403 0.930 . S
H414 C404 0.932 . S
H415 C405 0.929 . S
C416 C417 1.391 . S
C416 C418 1.394 . S
C416 H432 0.931 . S
C417 C416 1.391 . S
C417 C421 1.376 1_565 S
C418 C416 1.394 . S
C418 C419 1.369 . S
C418 C422 1.531 . S
C419 C418 1.369 . S
C419 C420 1.410 1_565 S
C419 C427 1.503 . S
C420 C419 1.410 1_545 S
C420 C421 1.392 . S
C420 C423 1.511 . S
C421 C417 1.376 1_545 S
C421 C420 1.392 . S
C421 H433 0.929 . S
C422 C418 1.531 . S
C422 H434 0.960 . S
C422 H435 0.962 . S
C422 H436 0.960 . S
C423 C420 1.511 . S
C423 H437 0.961 . S
C423 H438 0.961 . S
C423 H439 0.961 . S
C424 C425 1.397 . S
C424 C426 1.363 . S
C424 H440 0.931 . S
C425 C424 1.397 . S
C425 C429 1.384 1_545 S
C426 C424 1.363 . S
C426 C427 1.370 1_545 S
C426 C430 1.524 . S
C427 C419 1.503 . S
C427 C426 1.370 1_565 S
C427 C428 1.403 . S
C428 C427 1.403 . S
C428 C429 1.404 . S
C428 C431 1.539 . S
C429 C425 1.384 1_565 S
C429 C428 1.404 . S
C429 H441 0.930 . S
C430 C426 1.524 . S
C430 H442 0.956 . S
C430 H443 0.961 . S
C430 H444 0.961 . S
C431 C428 1.539 . S
C431 H445 0.958 . S
C431 H446 0.961 . S
C431 H447 0.960 . S
H432 C416 0.931 . S
H433 C421 0.929 . S
H434 C422 0.960 . S
H435 C422 0.962 . S
H436 C422 0.960 . S
H437 C423 0.961 . S
H438 C423 0.961 . S
H439 C423 0.961 . S
H440 C424 0.931 . S
H441 C429 0.930 . S
H442 C430 0.956 . S
H443 C430 0.961 . S
H444 C430 0.961 . S
H445 C431 0.958 . S
H446 C431 0.961 . S
H447 C431 0.960 . S
C448 C449 1.391 . S
C448 C450 1.394 . S
C448 H464 0.931 . S
C449 C448 1.391 . S
C449 C453 1.376 . S
C450 C448 1.394 . S
C450 C451 1.369 . S
C450 C454 1.531 . S
C451 C450 1.369 . S
C451 C452 1.410 . S
C451 C459 1.503 . S
C452 C451 1.410 . S
C452 C453 1.392 . S
C452 C455 1.511 . S
C453 C449 1.376 . S
C453 C452 1.392 . S
C453 H465 0.929 . S
C454 C450 1.531 . S
C454 H466 0.960 . S
C454 H467 0.962 . S
C454 H468 0.960 . S
C455 C452 1.511 . S
C455 H469 0.961 . S
C455 H470 0.961 . S
C455 H471 0.961 . S
C456 C457 1.370 . S
C456 C458 1.363 . S
C456 H472 0.931 . S
C457 C456 1.370 . S
C457 C461 1.408 . S
C458 C456 1.363 . S
C458 C459 1.370 . S
C458 C462 1.524 . S
C459 C451 1.503 . S
C459 C458 1.370 . S
C459 C460 1.403 . S
C460 C459 1.403 . S
C460 C461 1.404 . S
C460 C463 1.539 . S
C461 C457 1.408 . S
C461 C460 1.404 . S
C461 H473 0.930 . S
C462 C458 1.524 . S
C462 H474 0.956 . S
C462 H475 0.961 . S
C462 H476 0.961 . S
C463 C460 1.539 . S
C463 H477 0.958 . S
C463 H478 0.961 . S
C463 H479 0.960 . S
H464 C448 0.931 . S
H465 C453 0.929 . S
H466 C454 0.960 . S
H467 C454 0.962 . S
H468 C454 0.960 . S
H469 C455 0.961 . S
H470 C455 0.961 . S
H471 C455 0.961 . S
H472 C456 0.931 . S
H473 C461 0.930 . S
H474 C462 0.956 . S
H475 C462 0.961 . S
H476 C462 0.961 . S
H477 C463 0.958 . S
H478 C463 0.961 . S
H479 C463 0.960 . S
C480 C481 1.391 . S
C480 C482 1.394 . S
C480 H496 0.931 . S
C481 C480 1.391 . S
C481 C485 1.376 . S
C482 C480 1.394 . S
C482 C483 1.369 . S
C482 C486 1.531 . S
C483 C482 1.369 . S
C483 C484 1.410 . S
C483 C491 1.503 . S
C484 C483 1.410 . S
C484 C485 1.392 . S
C484 C487 1.511 . S
C485 C481 1.376 . S
C485 C484 1.392 . S
C485 H497 0.929 . S
C486 C482 1.531 . S
C486 H498 0.960 . S
C486 H499 0.962 . S
C486 H500 0.960 . S
C487 C484 1.511 . S
C487 H501 0.961 . S
C487 H502 0.961 . S
C487 H503 0.961 . S
C488 C489 1.370 . S
C488 C490 1.363 . S
C488 H504 0.931 . S
C489 C488 1.370 . S
C489 C493 1.408 . S
C490 C488 1.363 . S
C490 C491 1.370 . S
C490 C494 1.524 . S
C491 C483 1.503 . S
C491 C490 1.370 . S
C491 C492 1.403 . S
C492 C491 1.403 . S
C492 C493 1.404 . S
C492 C495 1.539 . S
C493 C489 1.408 . S
C493 C492 1.404 . S
C493 H505 0.930 . S
C494 C490 1.524 . S
C494 H506 0.956 . S
C494 H507 0.961 . S
C494 H508 0.961 . S
C495 C492 1.539 . S
C495 H509 0.958 . S
C495 H510 0.961 . S
C495 H511 0.960 . S
H496 C480 0.931 . S
H497 C485 0.929 . S
H498 C486 0.960 . S
H499 C486 0.962 . S
H500 C486 0.960 . S
H501 C487 0.961 . S
H502 C487 0.961 . S
H503 C487 0.961 . S
H504 C488 0.931 . S
H505 C493 0.930 . S
H506 C494 0.956 . S
H507 C494 0.961 . S
H508 C494 0.961 . S
H509 C495 0.958 . S
H510 C495 0.961 . S
H511 C495 0.960 . S
C512 C513 1.391 . S
C512 C514 1.394 . S
C512 H528 0.931 . S
C513 C512 1.391 . S
C513 C517 1.376 . S
C514 C512 1.394 . S
C514 C515 1.369 . S
C514 C518 1.531 . S
C515 C514 1.369 . S
C515 C516 1.410 . S
C515 C523 1.503 . S
C516 C515 1.410 . S
C516 C517 1.392 . S
C516 C519 1.511 1_455 S
C517 C513 1.376 . S
C517 C516 1.392 . S
C517 H529 0.929 1_455 S
C518 C514 1.531 . S
C518 H530 0.960 . S
C518 H531 0.962 . S
C518 H532 0.960 . S
C519 C516 1.511 1_655 S
C519 H533 0.961 . S
C519 H534 0.961 . S
C519 H535 0.961 . S
C520 C521 1.370 . S
C520 C522 1.363 . S
C520 H536 0.931 . S
C521 C520 1.370 . S
C521 C525 1.408 . S
C522 C520 1.363 . S
C522 C523 1.370 . S
C522 C526 1.524 . S
C523 C515 1.503 . S
C523 C522 1.370 . S
C523 C524 1.403 . S
C524 C523 1.403 . S
C524 C525 1.404 . S
C524 C527 1.539 . S
C525 C521 1.408 . S
C525 C524 1.404 . S
C525 H537 0.930 . S
C526 C522 1.524 . S
C526 H538 0.956 . S
C526 H539 0.961 . S
C526 H540 0.961 . S
C527 C524 1.539 . S
C527 H541 0.958 . S
C527 H542 0.961 . S
C527 H543 0.960 . S
H528 C512 0.931 . S
H529 C517 0.929 1_655 S
H530 C518 0.960 . S
H531 C518 0.962 . S
H532 C518 0.960 . S
H533 C519 0.961 . S
H534 C519 0.961 . S
H535 C519 0.961 . S
H536 C520 0.931 . S
H537 C525 0.930 . S
H538 C526 0.956 . S
H539 C526 0.961 . S
H540 C526 0.961 . S
H541 C527 0.958 . S
H542 C527 0.961 . S
H543 C527 0.960 . S
C544 C545 1.382 1_565 S
C544 C546 1.394 . S
C544 H560 0.931 . S
C545 C544 1.382 1_545 S
C545 C549 1.387 . S
C546 C544 1.394 . S
C546 C547 1.361 1_565 S
C546 C550 1.531 . S
C547 C546 1.361 1_545 S
C547 C548 1.416 . S
C547 C555 1.504 1_545 S
C548 C547 1.416 . S
C548 C549 1.392 . S
C548 C551 1.511 . S
C549 C545 1.387 . S
C549 C548 1.392 . S
C549 H561 0.929 . S
C550 C546 1.531 . S
C550 H562 0.960 . S
C550 H563 0.962 . S
C550 H564 0.960 . S
C551 C548 1.511 . S
C551 H565 0.961 . S
C551 H566 0.961 . S
C551 H567 0.961 . S
C552 C553 1.383 1_554 S
C552 C554 1.363 . S
C552 H568 0.931 . S
C553 C552 1.383 1_556 S
C553 C557 1.402 1_565 S
C554 C552 1.363 . S
C554 C555 1.370 . S
C554 C558 1.524 . S
C555 C547 1.504 1_565 S
C555 C554 1.370 . S
C555 C556 1.403 1_565 S
C556 C555 1.403 1_545 S
C556 C557 1.404 1_554 S
C556 C559 1.539 . S
C557 C553 1.402 1_545 S
C557 C556 1.404 1_556 S
C557 H569 0.930 . S
C558 C554 1.524 . S
C558 H570 0.956 . S
C558 H571 0.961 1_565 S
C558 H572 0.961 . S
C559 C556 1.539 . S
C559 H573 0.958 1_545 S
C559 H574 0.961 1_554 S
C559 H575 0.960 . S
H560 C544 0.931 . S
H561 C549 0.929 . S
H562 C550 0.960 . S
H563 C550 0.962 . S
H564 C550 0.960 . S
H565 C551 0.961 . S
H566 C551 0.961 . S
H567 C551 0.961 . S
H568 C552 0.931 . S
H569 C557 0.930 . S
H570 C558 0.956 . S
H571 C558 0.961 1_545 S
H572 C558 0.961 . S
H573 C559 0.958 1_565 S
H574 C559 0.961 1_556 S
H575 C559 0.960 . S
C576 C577 1.391 . S
C576 C578 1.394 . S
C576 H592 0.931 1_556 S
C577 C576 1.391 . S
C577 C581 1.376 . S
C578 C576 1.394 . S
C578 C579 1.369 . S
C578 C582 1.531 . S
C579 C578 1.369 . S
C579 C580 1.410 . S
C579 C587 1.503 . S
C580 C579 1.410 . S
C580 C581 1.392 . S
C580 C583 1.511 . S
C581 C577 1.376 . S
C581 C580 1.392 . S
C581 H593 0.929 . S
C582 C578 1.531 . S
C582 H594 0.960 . S
C582 H595 0.962 . S
C582 H596 0.960 1_556 S
C583 C580 1.511 . S
C583 H597 0.961 . S
C583 H598 0.961 . S
C583 H599 0.961 . S
C584 C585 1.370 . S
C584 C586 1.363 . S
C584 H600 0.931 . S
C585 C584 1.370 . S
C585 C589 1.408 . S
C586 C584 1.363 . S
C586 C587 1.370 . S
C586 C590 1.524 . S
C587 C579 1.503 . S
C587 C586 1.370 . S
C587 C588 1.403 . S
C588 C587 1.403 . S
C588 C589 1.404 . S
C588 C591 1.539 . S
C589 C585 1.408 . S
C589 C588 1.404 . S
C589 H601 0.930 . S
C590 C586 1.524 . S
C590 H602 0.956 . S
C590 H603 0.961 . S
C590 H604 0.961 . S
C591 C588 1.539 . S
C591 H605 0.958 1_556 S
C591 H606 0.961 . S
C591 H607 0.960 . S
H592 C576 0.931 1_554 S
H593 C581 0.929 . S
H594 C582 0.960 . S
H595 C582 0.962 . S
H596 C582 0.960 1_554 S
H597 C583 0.961 . S
H598 C583 0.961 . S
H599 C583 0.961 . S
H600 C584 0.931 . S
H601 C589 0.930 . S
H602 C590 0.956 . S
H603 C590 0.961 . S
H604 C590 0.961 . S
H605 C591 0.958 1_554 S
H606 C591 0.961 . S
H607 C591 0.960 . S
C608 C609 1.391 . S
C608 C610 1.394 . S
C608 H624 0.931 . S
C609 C608 1.391 . S
C609 C613 1.376 . S
C610 C608 1.394 . S
C610 C611 1.369 . S
C610 C614 1.531 . S
C611 C610 1.369 . S
C611 C612 1.410 . S
C611 C619 1.503 . S
C612 C611 1.410 . S
C612 C613 1.392 . S
C612 C615 1.511 . S
C613 C609 1.376 . S
C613 C612 1.392 . S
C613 H625 0.929 . S
C614 C610 1.531 . S
C614 H626 0.960 . S
C614 H627 0.962 . S
C614 H628 0.960 . S
C615 C612 1.511 . S
C615 H629 0.961 . S
C615 H630 0.961 . S
C615 H631 0.961 . S
C616 C617 1.370 . S
C616 C618 1.363 1_556 S
C616 H632 0.931 . S
C617 C616 1.370 . S
C617 C621 1.408 . S
C618 C616 1.363 1_554 S
C618 C619 1.370 . S
C618 C622 1.524 . S
C619 C611 1.503 . S
C619 C618 1.370 . S
C619 C620 1.403 . S
C620 C619 1.403 . S
C620 C621 1.404 1_554 S
C620 C623 1.539 . S
C621 C617 1.408 . S
C621 C620 1.404 1_556 S
C621 H633 0.930 . S
C622 C618 1.524 . S
C622 H634 0.956 . S
C622 H635 0.961 . S
C622 H636 0.961 . S
C623 C620 1.539 . S
C623 H637 0.958 . S
C623 H638 0.961 . S
C623 H639 0.960 . S
H624 C608 0.931 . S
H625 C613 0.929 . S
H626 C614 0.960 . S
H627 C614 0.962 . S
H628 C614 0.960 . S
H629 C615 0.961 . S
H630 C615 0.961 . S
H631 C615 0.961 . S
H632 C616 0.931 . S
H633 C621 0.930 . S
H634 C622 0.956 . S
H635 C622 0.961 . S
H636 C622 0.961 . S
H637 C623 0.958 . S
H638 C623 0.961 . S
H639 C623 0.960 . S
C640 C641 1.391 . S
C640 C642 1.394 . S
C640 H656 0.931 . S
C641 C640 1.391 . S
C641 C645 1.376 1_655 S
C642 C640 1.394 . S
C642 C643 1.376 . S
C642 C646 1.531 . S
C643 C642 1.376 . S
C643 C644 1.404 1_655 S
C643 C651 1.503 1_655 S
C644 C643 1.404 1_455 S
C644 C645 1.392 . S
C644 C647 1.511 . S
C645 C641 1.376 1_455 S
C645 C644 1.392 . S
C645 H657 0.929 . S
C646 C642 1.531 . S
C646 H658 0.960 . S
C646 H659 0.962 . S
C646 H660 0.960 . S
C647 C644 1.511 . S
C647 H661 0.961 . S
C647 H662 0.961 . S
C647 H663 0.961 . S
C648 C649 1.370 1_655 S
C648 C650 1.363 1_556 S
C648 H664 0.931 . S
C649 C648 1.370 1_455 S
C649 C653 1.408 . S
C650 C648 1.363 1_554 S
C650 C651 1.370 1_655 S
C650 C654 1.524 . S
C651 C643 1.503 1_455 S
C651 C650 1.370 1_455 S
C651 C652 1.403 1_554 S
C652 C651 1.403 1_556 S
C652 C653 1.404 . S
C652 C655 1.539 1_556 S
C653 C649 1.408 . S
C653 C652 1.404 . S
C653 H665 0.930 . S
C654 C650 1.524 . S
C654 H666 0.956 . S
C654 H667 0.961 . S
C654 H668 0.961 . S
C655 C652 1.539 1_554 S
C655 H669 0.958 1_554 S
C655 H670 0.961 1_554 S
C655 H671 0.960 . S
H656 C640 0.931 . S
H657 C645 0.929 . S
H658 C646 0.960 . S
H659 C646 0.962 . S
H660 C646 0.960 . S
H661 C647 0.961 . S
H662 C647 0.961 . S
H663 C647 0.961 . S
H664 C648 0.931 . S
H665 C653 0.930 . S
H666 C654 0.956 . S
H667 C654 0.961 . S
H668 C654 0.961 . S
H669 C655 0.958 1_556 S
H670 C655 0.961 1_556 S
H671 C655 0.960 . S
C672 C673 1.391 . S
C672 C674 1.394 . S
C672 H688 0.931 . S
C673 C672 1.391 . S
C673 C677 1.376 . S
C674 C672 1.394 . S
C674 C675 1.369 . S
C674 C678 1.531 1_455 S
C675 C674 1.369 . S
C675 C676 1.410 . S
C675 C683 1.483 1_455 S
C676 C675 1.410 . S
C676 C677 1.392 . S
C676 C679 1.511 . S
C677 C673 1.376 . S
C677 C676 1.392 . S
C677 H689 0.929 . S
C678 C674 1.531 1_655 S
C678 H690 0.960 . S
C678 H691 0.962 . S
C678 H692 0.960 . S
C679 C676 1.511 . S
C679 H693 0.961 . S
C679 H694 0.961 . S
C679 H695 0.961 . S
C680 C681 1.370 . S
C680 C682 1.363 . S
C680 H696 0.931 . S
C681 C680 1.370 . S
C681 C685 1.441 . S
C682 C680 1.363 . S
C682 C683 1.411 . S
C682 C686 1.524 . S
C683 C675 1.483 1_655 S
C683 C682 1.411 . S
C683 C684 1.383 1_655 S
C684 C683 1.383 1_455 S
C684 C685 1.388 1_455 S
C684 C687 1.539 . S
C685 C681 1.441 . S
C685 C684 1.388 1_655 S
C685 H697 0.915 1_655 S
C686 C682 1.524 . S
C686 H698 0.956 . S
C686 H699 0.961 . S
C686 H700 0.961 . S
C687 C684 1.539 . S
C687 H701 0.958 . S
C687 H702 0.961 . S
C687 H703 0.960 . S
H688 C672 0.931 . S
H689 C677 0.929 . S
H690 C678 0.960 . S
H691 C678 0.962 . S
H692 C678 0.960 . S
H693 C679 0.961 . S
H694 C679 0.961 . S
H695 C679 0.961 . S
H696 C680 0.931 . S
H697 C685 0.915 1_455 S
H698 C686 0.956 . S
H699 C686 0.961 . S
H700 C686 0.961 . S
H701 C687 0.958 . S
H702 C687 0.961 . S
H703 C687 0.960 . S
C704 C705 1.391 1_565 S
C704 C706 1.394 . S
C704 H720 0.931 . S
C705 C704 1.391 1_545 S
C705 C709 1.376 . S
C706 C704 1.394 . S
C706 C707 1.369 . S
C706 C710 1.531 . S
C707 C706 1.369 . S
C707 C708 1.410 1_565 S
C707 C715 1.503 . S
C708 C707 1.410 1_545 S
C708 C709 1.392 . S
C708 C711 1.511 . S
C709 C705 1.376 . S
C709 C708 1.392 . S
C709 H721 0.929 . S
C710 C706 1.531 . S
C710 H722 0.960 . S
C710 H723 0.962 . S
C710 H724 0.960 . S
C711 C708 1.511 . S
C711 H725 0.961 . S
C711 H726 0.961 1_545 S
C711 H727 0.961 . S
C712 C713 1.370 . S
C712 C714 1.363 . S
C712 H728 0.931 . S
C713 C712 1.370 . S
C713 C717 1.441 . S
C714 C712 1.363 . S
C714 C715 1.370 . S
C714 C718 1.524 . S
C715 C707 1.503 . S
C715 C714 1.370 . S
C715 C716 1.403 1_565 S
C716 C715 1.403 1_545 S
C716 C717 1.392 1_545 S
C716 C719 1.539 . S
C717 C713 1.441 . S
C717 C716 1.392 1_565 S
C717 H729 0.910 1_565 S
C718 C714 1.524 . S
C718 H730 0.956 . S
C718 H731 0.961 . S
C718 H732 0.961 . S
C719 C716 1.539 . S
C719 H733 0.958 . S
C719 H734 0.961 . S
C719 H735 0.960 . S
H720 C704 0.931 . S
H721 C709 0.929 . S
H722 C710 0.960 . S
H723 C710 0.962 . S
H724 C710 0.960 . S
H725 C711 0.961 . S
H726 C711 0.961 1_565 S
H727 C711 0.961 . S
H728 C712 0.931 . S
H729 C717 0.910 1_545 S
H730 C718 0.956 . S
H731 C718 0.961 . S
H732 C718 0.961 . S
H733 C719 0.958 . S
H734 C719 0.961 . S
H735 C719 0.960 . S
C736 C737 1.391 . S
C736 C738 1.394 . S
C736 H752 0.931 . S
C737 C736 1.391 . S
C737 C741 1.376 . S
C738 C736 1.394 . S
C738 C739 1.369 . S
C738 C742 1.531 . S
C739 C738 1.369 . S
C739 C740 1.410 . S
C739 C747 1.503 . S
C740 C739 1.410 . S
C740 C741 1.392 . S
C740 C743 1.511 . S
C741 C737 1.376 . S
C741 C740 1.392 . S
C741 H753 0.929 . S
C742 C738 1.531 . S
C742 H754 0.960 . S
C742 H755 0.962 . S
C742 H756 0.960 . S
C743 C740 1.511 . S
C743 H757 0.961 . S
C743 H758 0.961 . S
C743 H759 0.961 . S
C744 C745 1.370 . S
C744 C746 1.363 . S
C744 H760 0.931 . S
C745 C744 1.370 . S
C745 C749 1.408 . S
C746 C744 1.363 . S
C746 C747 1.370 . S
C746 C750 1.524 . S
C747 C739 1.503 . S
C747 C746 1.370 . S
C747 C748 1.403 . S
C748 C747 1.403 . S
C748 C749 1.404 . S
C748 C751 1.539 . S
C749 C745 1.408 . S
C749 C748 1.404 . S
C749 H761 0.930 . S
C750 C746 1.524 . S
C750 H762 0.956 . S
C750 H763 0.961 . S
C750 H764 0.961 . S
C751 C748 1.539 . S
C751 H765 0.958 . S
C751 H766 0.961 . S
C751 H767 0.960 . S
H752 C736 0.931 . S
H753 C741 0.929 . S
H754 C742 0.960 . S
H755 C742 0.962 . S
H756 C742 0.960 . S
H757 C743 0.961 . S
H758 C743 0.961 . S
H759 C743 0.961 . S
H760 C744 0.931 . S
H761 C749 0.930 . S
H762 C750 0.956 . S
H763 C750 0.961 . S
H764 C750 0.961 . S
H765 C751 0.958 . S
H766 C751 0.961 . S
H767 C751 0.960 . S
C768 C769 1.391 . S
C768 C770 1.394 . S
C768 H784 0.931 . S
C769 C768 1.391 . S
C769 C773 1.376 . S
C770 C768 1.394 . S
C770 C771 1.369 . S
C770 C774 1.531 . S
C771 C770 1.369 . S
C771 C772 1.410 . S
C771 C779 1.503 . S
C772 C771 1.410 . S
C772 C773 1.392 . S
C772 C775 1.511 . S
C773 C769 1.376 . S
C773 C772 1.392 . S
C773 H785 0.929 . S
C774 C770 1.531 . S
C774 H786 0.960 . S
C774 H787 0.962 . S
C774 H788 0.960 . S
C775 C772 1.511 . S
C775 H789 0.961 . S
C775 H790 0.961 . S
C775 H791 0.961 . S
C776 C777 1.370 . S
C776 C778 1.363 . S
C776 H792 0.931 . S
C777 C776 1.370 . S
C777 C781 1.408 . S
C778 C776 1.363 . S
C778 C779 1.370 . S
C778 C782 1.524 . S
C779 C771 1.503 . S
C779 C778 1.370 . S
C779 C780 1.403 . S
C780 C779 1.403 . S
C780 C781 1.404 . S
C780 C783 1.539 . S
C781 C777 1.408 . S
C781 C780 1.404 . S
C781 H793 0.930 . S
C782 C778 1.524 . S
C782 H794 0.956 . S
C782 H795 0.961 . S
C782 H796 0.961 . S
C783 C780 1.539 . S
C783 H797 0.958 . S
C783 H798 0.961 . S
C783 H799 0.960 . S
H784 C768 0.931 . S
H785 C773 0.929 . S
H786 C774 0.960 . S
H787 C774 0.962 . S
H788 C774 0.960 . S
H789 C775 0.961 . S
H790 C775 0.961 . S
H791 C775 0.961 . S
H792 C776 0.931 . S
H793 C781 0.930 . S
H794 C782 0.956 . S
H795 C782 0.961 . S
H796 C782 0.961 . S
H797 C783 0.958 . S
H798 C783 0.961 . S
H799 C783 0.960 . S
C800 C801 1.391 . S
C800 C802 1.394 . S
C800 H816 0.931 . S
C801 C800 1.391 . S
C801 C805 1.376 1_655 S
C802 C800 1.394 . S
C802 C803 1.369 1_655 S
C802 C806 1.531 . S
C803 C802 1.369 1_455 S
C803 C804 1.410 . S
C803 C811 1.503 . S
C804 C803 1.410 . S
C804 C805 1.392 . S
C804 C807 1.511 . S
C805 C801 1.376 1_455 S
C805 C804 1.392 . S
C805 H817 0.929 . S
C806 C802 1.531 . S
C806 H818 0.960 . S
C806 H819 0.962 . S
C806 H820 0.960 . S
C807 C804 1.511 . S
C807 H821 0.961 . S
C807 H822 0.961 . S
C807 H823 0.961 . S
C808 C809 1.370 1_556 S
C808 C810 1.363 1_556 S
C808 H824 0.931 . S
C809 C808 1.370 1_554 S
C809 C813 1.408 . S
C810 C808 1.363 1_554 S
C810 C811 1.370 . S
C810 C814 1.524 1_554 S
C811 C803 1.503 . S
C811 C810 1.370 . S
C811 C812 1.403 . S
C812 C811 1.403 . S
C812 C813 1.404 . S
C812 C815 1.539 . S
C813 C809 1.408 . S
C813 C812 1.404 . S
C813 H825 0.930 . S
C814 C810 1.524 1_556 S
C814 H826 0.957 1_455 S
C814 H827 0.961 1_556 S
C814 H828 0.961 . S
C815 C812 1.539 . S
C815 H829 0.958 . S
C815 H830 0.961 . S
C815 H831 0.960 . S
H816 C800 0.931 . S
H817 C805 0.929 . S
H818 C806 0.960 . S
H819 C806 0.962 . S
H820 C806 0.960 . S
H821 C807 0.961 . S
H822 C807 0.961 . S
H823 C807 0.961 . S
H824 C808 0.931 . S
H825 C813 0.930 . S
H826 C814 0.957 1_655 S
H827 C814 0.961 1_554 S
H828 C814 0.961 . S
H829 C815 0.958 . S
H830 C815 0.961 . S
H831 C815 0.960 . S
C832 C833 1.391 . S
C832 C834 1.394 . S
C832 H848 0.931 . S
C833 C832 1.391 . S
C833 C837 1.376 1_565 S
C834 C832 1.394 . S
C834 C835 1.369 1_565 S
C834 C838 1.531 . S
C835 C834 1.369 1_545 S
C835 C836 1.410 . S
C835 C843 1.503 . S
C836 C835 1.410 . S
C836 C837 1.392 . S
C836 C839 1.511 . S
C837 C833 1.376 1_545 S
C837 C836 1.392 . S
C837 H849 0.929 . S
C838 C834 1.531 . S
C838 H850 0.960 . S
C838 H851 0.962 . S
C838 H852 0.960 . S
C839 C836 1.511 . S
C839 H853 0.961 . S
C839 H854 0.961 . S
C839 H855 0.961 . S
C840 C841 1.370 . S
C840 C842 1.363 . S
C840 H856 0.931 . S
C841 C840 1.370 . S
C841 C845 1.408 . S
C842 C840 1.363 . S
C842 C843 1.370 . S
C842 C846 1.524 . S
C843 C835 1.503 . S
C843 C842 1.370 . S
C843 C844 1.403 1_545 S
C844 C843 1.403 1_565 S
C844 C845 1.404 1_565 S
C844 C847 1.539 . S
C845 C841 1.408 . S
C845 C844 1.404 1_545 S
C845 H857 0.930 1_545 S
C846 C842 1.524 . S
C846 H858 0.956 . S
C846 H859 0.961 . S
C846 H860 0.961 . S
C847 C844 1.539 . S
C847 H861 0.958 . S
C847 H862 0.961 . S
C847 H863 0.960 . S
H848 C832 0.931 . S
H849 C837 0.929 . S
H850 C838 0.960 . S
H851 C838 0.962 . S
H852 C838 0.960 . S
H853 C839 0.961 . S
H854 C839 0.961 . S
H855 C839 0.961 . S
H856 C840 0.931 . S
H857 C845 0.930 1_565 S
H858 C846 0.956 . S
H859 C846 0.961 . S
H860 C846 0.961 . S
H861 C847 0.958 . S
H862 C847 0.961 . S
H863 C847 0.960 . S
C864 C865 1.391 . S
C864 C866 1.394 . S
C864 H880 0.931 . S
C865 C864 1.391 . S
C865 C869 1.376 . S
C866 C864 1.394 . S
C866 C867 1.369 . S
C866 C870 1.531 . S
C867 C866 1.369 . S
C867 C868 1.410 . S
C867 C875 1.503 . S
C868 C867 1.410 . S
C868 C869 1.392 . S
C868 C871 1.511 . S
C869 C865 1.376 . S
C869 C868 1.392 . S
C869 H881 0.929 . S
C870 C866 1.531 . S
C870 H882 0.960 . S
C870 H883 0.962 . S
C870 H884 0.960 . S
C871 C868 1.511 . S
C871 H885 0.961 . S
C871 H886 0.961 . S
C871 H887 0.961 . S
C872 C873 1.370 . S
C872 C874 1.363 . S
C872 H888 0.931 . S
C873 C872 1.370 . S
C873 C877 1.408 . S
C874 C872 1.363 . S
C874 C875 1.370 . S
C874 C878 1.524 . S
C875 C867 1.503 . S
C875 C874 1.370 . S
C875 C876 1.403 . S
C876 C875 1.403 . S
C876 C877 1.404 . S
C876 C879 1.539 . S
C877 C873 1.408 . S
C877 C876 1.404 . S
C877 H889 0.930 . S
C878 C874 1.524 . S
C878 H890 0.956 . S
C878 H891 0.961 . S
C878 H892 0.961 . S
C879 C876 1.539 . S
C879 H893 0.958 . S
C879 H894 0.961 . S
C879 H895 0.960 . S
H880 C864 0.931 . S
H881 C869 0.929 . S
H882 C870 0.960 . S
H883 C870 0.962 . S
H884 C870 0.960 . S
H885 C871 0.961 . S
H886 C871 0.961 . S
H887 C871 0.961 . S
H888 C872 0.931 . S
H889 C877 0.930 . S
H890 C878 0.956 . S
H891 C878 0.961 . S
H892 C878 0.961 . S
H893 C879 0.958 . S
H894 C879 0.961 . S
H895 C879 0.960 . S
C896 C897 1.391 . S
C896 C898 1.394 . S
C896 H912 0.931 . S
C897 C896 1.391 . S
C897 C901 1.376 . S
C898 C896 1.394 . S
C898 C899 1.369 . S
C898 C902 1.531 . S
C899 C898 1.369 . S
C899 C900 1.410 . S
C899 C907 1.503 . S
C900 C899 1.410 . S
C900 C901 1.392 . S
C900 C903 1.511 . S
C901 C897 1.376 . S
C901 C900 1.392 . S
C901 H913 0.929 . S
C902 C898 1.531 . S
C902 H914 0.960 . S
C902 H915 0.962 . S
C902 H916 0.960 . S
C903 C900 1.511 . S
C903 H917 0.961 . S
C903 H918 0.961 . S
C903 H919 0.961 . S
C904 C905 1.370 . S
C904 C906 1.363 . S
C904 H920 0.931 1_554 S
C905 C904 1.370 . S
C905 C909 1.408 . S
C906 C904 1.363 . S
C906 C907 1.370 . S
C906 C910 1.524 . S
C907 C899 1.503 . S
C907 C906 1.370 . S
C907 C908 1.403 . S
C908 C907 1.403 . S
C908 C909 1.404 . S
C908 C911 1.539 . S
C909 C905 1.408 . S
C909 C908 1.404 . S
C909 H921 0.930 . S
C910 C906 1.524 . S
C910 H922 0.956 . S
C910 H923 0.961 . S
C910 H924 0.961 1_554 S
C911 C908 1.539 . S
C911 H925 0.958 . S
C911 H926 0.961 . S
C911 H927 0.960 . S
H912 C896 0.931 . S
H913 C901 0.929 . S
H914 C902 0.960 . S
H915 C902 0.962 . S
H916 C902 0.960 . S
H917 C903 0.961 . S
H918 C903 0.961 . S
H919 C903 0.961 . S
H920 C904 0.931 1_556 S
H921 C909 0.930 . S
H922 C910 0.956 . S
H923 C910 0.961 . S
H924 C910 0.961 1_556 S
H925 C911 0.958 . S
H926 C911 0.961 . S
H927 C911 0.960 . S
C928 C929 1.391 . S
C928 C930 1.394 . S
C928 H944 0.931 1_456 S
C929 C928 1.391 . S
C929 C933 1.376 . S
C930 C928 1.394 . S
C930 C931 1.369 . S
C930 C934 1.531 1_455 S
C931 C930 1.369 . S
C931 C932 1.410 . S
C931 C939 1.503 . S
C932 C931 1.410 . S
C932 C933 1.392 . S
C932 C935 1.511 . S
C933 C929 1.376 . S
C933 C932 1.392 . S
C933 H945 0.929 . S
C934 C930 1.531 1_655 S
C934 H946 0.960 . S
C934 H947 0.962 1_556 S
C934 H948 0.960 . S
C935 C932 1.511 . S
C935 H949 0.961 . S
C935 H950 0.961 . S
C935 H951 0.961 . S
C936 C937 1.370 . S
C936 C938 1.363 . S
C936 H952 0.931 . S
C937 C936 1.370 . S
C937 C941 1.408 . S
C938 C936 1.363 . S
C938 C939 1.370 . S
C938 C942 1.524 1_556 S
C939 C931 1.503 . S
C939 C938 1.370 . S
C939 C940 1.403 . S
C940 C939 1.403 . S
C940 C941 1.404 . S
C940 C943 1.539 . S
C941 C937 1.408 . S
C941 C940 1.404 . S
C941 H953 0.930 . S
C942 C938 1.524 1_554 S
C942 H954 0.956 . S
C942 H955 0.961 . S
C942 H956 0.961 . S
C943 C940 1.539 . S
C943 H957 0.958 1_455 S
C943 H958 0.961 . S
C943 H959 0.960 . S
H944 C928 0.931 1_654 S
H945 C933 0.929 . S
H946 C934 0.960 . S
H947 C934 0.962 1_554 S
H948 C934 0.960 . S
H949 C935 0.961 . S
H950 C935 0.961 . S
H951 C935 0.961 . S
H952 C936 0.931 . S
H953 C941 0.930 . S
H954 C942 0.956 . S
H955 C942 0.961 . S
H956 C942 0.961 . S
H957 C943 0.958 1_655 S
H958 C943 0.961 . S
H959 C943 0.960 . S
C960 C961 1.386 1_545 S
C960 C962 1.394 . S
C960 H976 0.931 1_556 S
C961 C960 1.386 1_565 S
C961 C965 1.381 . S
C962 C960 1.394 . S
C962 C963 1.345 1_545 S
C962 C966 1.531 1_556 S
C963 C962 1.345 1_565 S
C963 C964 1.436 . S
C963 C971 1.497 1_565 S
C964 C963 1.436 . S
C964 C965 1.392 . S
C964 C967 1.511 . S
C965 C961 1.381 . S
C965 C964 1.392 . S
C965 H977 0.929 . S
C966 C962 1.531 1_554 S
C966 H978 0.960 . S
C966 H979 0.962 . S
C966 H980 0.960 . S
C967 C964 1.511 . S
C967 H981 0.961 . S
C967 H982 0.961 . S
C967 H983 0.961 . S
C968 C969 1.370 . S
C968 C970 1.363 . S
C968 H984 0.931 . S
C969 C968 1.370 . S
C969 C973 1.408 1_545 S
C970 C968 1.363 . S
C970 C971 1.398 . S
C970 C974 1.524 . S
C971 C963 1.497 1_545 S
C971 C970 1.398 . S
C971 C972 1.379 1_545 S
C972 C971 1.379 1_565 S
C972 C973 1.404 . S
C972 C975 1.539 . S
C973 C969 1.408 1_565 S
C973 C972 1.404 . S
C973 H985 0.930 . S
C974 C970 1.524 . S
C974 H986 0.956 . S
C974 H987 0.961 . S
C974 H988 0.961 . S
C975 C972 1.539 . S
C975 H989 0.958 1_556 S
C975 H990 0.961 . S
C975 H991 0.960 . S
H976 C960 0.931 1_554 S
H977 C965 0.929 . S
H978 C966 0.960 . S
H979 C966 0.962 . S
H980 C966 0.960 . S
H981 C967 0.961 . S
H982 C967 0.961 . S
H983 C967 0.961 . S
H984 C968 0.931 . S
H985 C973 0.930 . S
H986 C974 0.956 . S
H987 C974 0.961 . S
H988 C974 0.961 . S
H989 C975 0.958 1_554 S
H990 C975 0.961 . S
H991 C975 0.960 . S
C992 C993 1.391 . S
C992 C994 1.394 . S
C992 H1008 0.931 . S
C993 C992 1.391 . S
C993 C997 1.376 . S
C994 C992 1.394 . S
C994 C995 1.369 . S
C994 C998 1.531 . S
C995 C994 1.369 . S
C995 C996 1.410 . S
C995 C1003 1.503 . S
C996 C995 1.410 . S
C996 C997 1.392 . S
C996 C999 1.511 . S
C997 C993 1.376 . S
C997 C996 1.392 . S
C997 H1009 0.929 . S
C998 C994 1.531 . S
C998 H1010 0.960 . S
C998 H1011 0.962 . S
C998 H1012 0.960 . S
C999 C996 1.511 . S
C999 H1013 0.961 . S
C999 H1014 0.961 . S
C999 H1015 0.961 . S
C1000 C1001 1.370 . S
C1000 C1002 1.363 . S
C1000 H1016 0.931 . S
C1001 C1000 1.370 . S
C1001 C1005 1.408 . S
C1002 C1000 1.363 . S
C1002 C1003 1.370 . S
C1002 C1006 1.524 . S
C1003 C995 1.503 . S
C1003 C1002 1.370 . S
C1003 C1004 1.403 . S
C1004 C1003 1.403 . S
C1004 C1005 1.404 . S
C1004 C1007 1.539 . S
C1005 C1001 1.408 . S
C1005 C1004 1.404 . S
C1005 H1017 0.930 . S
C1006 C1002 1.524 . S
C1006 H1018 0.956 . S
C1006 H1019 0.961 . S
C1006 H1020 0.961 . S
C1007 C1004 1.539 . S
C1007 H1021 0.958 . S
C1007 H1022 0.961 . S
C1007 H1023 0.960 . S
H1008 C992 0.931 . S
H1009 C997 0.929 . S
H1010 C998 0.960 . S
H1011 C998 0.962 . S
H1012 C998 0.960 . S
H1013 C999 0.961 . S
H1014 C999 0.961 . S
H1015 C999 0.961 . S
H1016 C1000 0.931 . S
H1017 C1005 0.930 . S
H1018 C1006 0.956 . S
H1019 C1006 0.961 . S
H1020 C1006 0.961 . S
H1021 C1007 0.958 . S
H1022 C1007 0.961 . S
H1023 C1007 0.960 . S
C1024 C1025 1.391 . S
C1024 C1026 1.394 . S
C1024 H1040 0.931 . S
C1025 C1024 1.391 . S
C1025 C1029 1.376 . S
C1026 C1024 1.394 . S
C1026 C1027 1.369 . S
C1026 C1030 1.531 . S
C1027 C1026 1.369 . S
C1027 C1028 1.410 . S
C1027 C1035 1.503 . S
C1028 C1027 1.410 . S
C1028 C1029 1.392 . S
C1028 C1031 1.511 . S
C1029 C1025 1.376 . S
C1029 C1028 1.392 . S
C1029 H1041 0.929 . S
C1030 C1026 1.531 . S
C1030 H1042 0.960 . S
C1030 H1043 0.962 . S
C1030 H1044 0.960 . S
C1031 C1028 1.511 . S
C1031 H1045 0.961 . S
C1031 H1046 0.961 . S
C1031 H1047 0.961 1_556 S
C1032 C1033 1.370 . S
C1032 C1034 1.363 . S
C1032 H1048 0.931 . S
C1033 C1032 1.370 . S
C1033 C1037 1.408 . S
C1034 C1032 1.363 . S
C1034 C1035 1.370 . S
C1034 C1038 1.524 . S
C1035 C1027 1.503 . S
C1035 C1034 1.370 . S
C1035 C1036 1.403 . S
C1036 C1035 1.403 . S
C1036 C1037 1.404 . S
C1036 C1039 1.539 1_556 S
C1037 C1033 1.408 . S
C1037 C1036 1.404 . S
C1037 H1049 0.930 . S
C1038 C1034 1.524 . S
C1038 H1050 0.956 . S
C1038 H1051 0.961 . S
C1038 H1052 0.961 . S
C1039 C1036 1.539 1_554 S
C1039 H1053 0.958 . S
C1039 H1054 0.961 . S
C1039 H1055 0.960 . S
H1040 C1024 0.931 . S
H1041 C1029 0.929 . S
H1042 C1030 0.960 . S
H1043 C1030 0.962 . S
H1044 C1030 0.960 . S
H1045 C1031 0.961 . S
H1046 C1031 0.961 . S
H1047 C1031 0.961 1_554 S
H1048 C1032 0.931 . S
H1049 C1037 0.930 . S
H1050 C1038 0.956 . S
H1051 C1038 0.961 . S
H1052 C1038 0.961 . S
H1053 C1039 0.958 . S
H1054 C1039 0.961 . S
H1055 C1039 0.960 . S
C1056 C1057 1.391 1_455 S
C1056 C1058 1.394 . S
C1056 H1072 0.931 . S
C1057 C1056 1.391 1_655 S
C1057 C1061 1.376 . S
C1058 C1056 1.394 . S
C1058 C1059 1.369 1_455 S
C1058 C1062 1.531 . S
C1059 C1058 1.369 1_655 S
C1059 C1060 1.410 . S
C1059 C1067 1.503 . S
C1060 C1059 1.410 . S
C1060 C1061 1.392 . S
C1060 C1063 1.511 . S
C1061 C1057 1.376 . S
C1061 C1060 1.392 . S
C1061 H1073 0.929 . S
C1062 C1058 1.531 . S
C1062 H1074 0.960 . S
C1062 H1075 0.962 . S
C1062 H1076 0.960 . S
C1063 C1060 1.511 . S
C1063 H1077 0.961 . S
C1063 H1078 0.961 . S
C1063 H1079 0.961 . S
C1064 C1065 1.370 . S
C1064 C1066 1.363 . S
C1064 H1080 0.923 1_655 S
C1065 C1064 1.370 . S
C1065 C1069 1.408 . S
C1066 C1064 1.363 . S
C1066 C1067 1.370 . S
C1066 C1070 1.516 1_655 S
C1067 C1059 1.503 . S
C1067 C1066 1.370 . S
C1067 C1068 1.403 . S
C1068 C1067 1.403 . S
C1068 C1069 1.404 . S
C1068 C1071 1.539 . S
C1069 C1065 1.408 . S
C1069 C1068 1.404 . S
C1069 H1081 0.930 . S
C1070 C1066 1.516 1_455 S
C1070 H1082 0.996 . S
C1070 H1083 0.926 1_455 S
C1070 H1084 0.966 . S
C1071 C1068 1.539 . S
C1071 H1085 0.958 . S
C1071 H1086 0.961 . S
C1071 H1087 0.960 . S
H1072 C1056 0.931 . S
H1073 C1061 0.929 . S
H1074 C1062 0.960 . S
H1075 C1062 0.962 . S
H1076 C1062 0.960 . S
H1077 C1063 0.961 . S
H1078 C1063 0.961 . S
H1079 C1063 0.961 . S
H1080 C1064 0.923 1_455 S
H1081 C1069 0.930 . S
H1082 C1070 0.996 . S
H1083 C1070 0.926 1_655 S
H1084 C1070 0.966 . S
H1085 C1071 0.958 . S
H1086 C1071 0.961 . S
H1087 C1071 0.960 . S
C1088 C1089 1.368 1_565 S
C1088 C1090 1.394 . S
C1088 H1104 0.931 . S
C1089 C1088 1.368 1_545 S
C1089 C1093 1.401 . S
C1090 C1088 1.394 . S
C1090 C1091 1.369 1_565 S
C1090 C1094 1.531 . S
C1091 C1090 1.369 1_545 S
C1091 C1092 1.410 . S
C1091 C1099 1.505 . S
C1092 C1091 1.410 . S
C1092 C1093 1.392 . S
C1092 C1095 1.511 . S
C1093 C1089 1.401 . S
C1093 C1092 1.392 . S
C1093 H1105 0.929 . S
C1094 C1090 1.531 . S
C1094 H1106 0.960 . S
C1094 H1107 0.962 . S
C1094 H1108 0.960 . S
C1095 C1092 1.511 . S
C1095 H1109 0.961 . S
C1095 H1110 0.961 . S
C1095 H1111 0.961 . S
C1096 C1097 1.370 . S
C1096 C1098 1.363 . S
C1096 H1112 0.931 . S
C1097 C1096 1.370 . S
C1097 C1101 1.408 1_565 S
C1098 C1096 1.363 . S
C1098 C1099 1.361 1_565 S
C1098 C1102 1.524 . S
C1099 C1091 1.505 . S
C1099 C1098 1.361 1_545 S
C1099 C1100 1.411 . S
C1100 C1099 1.411 . S
C1100 C1101 1.404 . S
C1100 C1103 1.539 . S
C1101 C1097 1.408 1_545 S
C1101 C1100 1.404 . S
C1101 H1113 0.930 . S
C1102 C1098 1.524 . S
C1102 H1114 0.956 . S
C1102 H1115 0.961 . S
C1102 H1116 0.961 . S
C1103 C1100 1.539 . S
C1103 H1117 0.958 . S
C1103 H1118 0.961 . S
C1103 H1119 0.960 . S
H1104 C1088 0.931 . S
H1105 C1093 0.929 . S
H1106 C1094 0.960 . S
H1107 C1094 0.962 . S
H1108 C1094 0.960 . S
H1109 C1095 0.961 . S
H1110 C1095 0.961 . S
H1111 C1095 0.961 . S
H1112 C1096 0.931 . S
H1113 C1101 0.930 . S
H1114 C1102 0.956 . S
H1115 C1102 0.961 . S
H1116 C1102 0.961 . S
H1117 C1103 0.958 . S
H1118 C1103 0.961 . S
H1119 C1103 0.960 . S
C1120 C1121 1.391 . S
C1120 C1122 1.394 . S
C1120 H1136 0.931 . S
C1121 C1120 1.391 . S
C1121 C1125 1.376 . S
C1122 C1120 1.394 . S
C1122 C1123 1.369 . S
C1122 C1126 1.531 . S
C1123 C1122 1.369 . S
C1123 C1124 1.410 . S
C1123 C1131 1.503 . S
C1124 C1123 1.410 . S
C1124 C1125 1.392 . S
C1124 C1127 1.511 . S
C1125 C1121 1.376 . S
C1125 C1124 1.392 . S
C1125 H1137 0.929 . S
C1126 C1122 1.531 . S
C1126 H1138 0.960 . S
C1126 H1139 0.962 . S
C1126 H1140 0.960 . S
C1127 C1124 1.511 . S
C1127 H1141 0.961 . S
C1127 H1142 0.961 . S
C1127 H1143 0.961 . S
C1128 C1129 1.370 . S
C1128 C1130 1.363 . S
C1128 H1144 0.931 . S
C1129 C1128 1.370 . S
C1129 C1133 1.408 . S
C1130 C1128 1.363 . S
C1130 C1131 1.370 . S
C1130 C1134 1.524 . S
C1131 C1123 1.503 . S
C1131 C1130 1.370 . S
C1131 C1132 1.403 . S
C1132 C1131 1.403 . S
C1132 C1133 1.404 . S
C1132 C1135 1.539 . S
C1133 C1129 1.408 . S
C1133 C1132 1.404 . S
C1133 H1145 0.930 . S
C1134 C1130 1.524 . S
C1134 H1146 0.956 . S
C1134 H1147 0.961 . S
C1134 H1148 0.961 . S
C1135 C1132 1.539 . S
C1135 H1149 0.958 . S
C1135 H1150 0.961 . S
C1135 H1151 0.960 . S
H1136 C1120 0.931 . S
H1137 C1125 0.929 . S
H1138 C1126 0.960 . S
H1139 C1126 0.962 . S
H1140 C1126 0.960 . S
H1141 C1127 0.961 . S
H1142 C1127 0.961 . S
H1143 C1127 0.961 . S
H1144 C1128 0.931 . S
H1145 C1133 0.930 . S
H1146 C1134 0.956 . S
H1147 C1134 0.961 . S
H1148 C1134 0.961 . S
H1149 C1135 0.958 . S
H1150 C1135 0.961 . S
H1151 C1135 0.960 . S
C1152 C1153 1.391 . S
C1152 C1154 1.394 . S
C1152 H1168 0.931 . S
C1153 C1152 1.391 . S
C1153 C1157 1.376 . S
C1154 C1152 1.394 . S
C1154 C1155 1.369 . S
C1154 C1158 1.531 . S
C1155 C1154 1.369 . S
C1155 C1156 1.410 . S
C1155 C1163 1.503 . S
C1156 C1155 1.410 . S
C1156 C1157 1.392 . S
C1156 C1159 1.511 . S
C1157 C1153 1.376 . S
C1157 C1156 1.392 . S
C1157 H1169 0.929 . S
C1158 C1154 1.531 . S
C1158 H1170 0.960 . S
C1158 H1171 0.962 . S
C1158 H1172 0.960 . S
C1159 C1156 1.511 . S
C1159 H1173 0.961 . S
C1159 H1174 0.961 . S
C1159 H1175 0.961 . S
C1160 C1161 1.370 . S
C1160 C1162 1.363 . S
C1160 H1176 0.931 . S
C1161 C1160 1.370 . S
C1161 C1165 1.408 . S
C1162 C1160 1.363 . S
C1162 C1163 1.370 . S
C1162 C1166 1.524 . S
C1163 C1155 1.503 . S
C1163 C1162 1.370 . S
C1163 C1164 1.403 . S
C1164 C1163 1.403 . S
C1164 C1165 1.404 . S
C1164 C1167 1.539 . S
C1165 C1161 1.408 . S
C1165 C1164 1.404 . S
C1165 H1177 0.930 . S
C1166 C1162 1.524 . S
C1166 H1178 0.956 . S
C1166 H1179 0.961 . S
C1166 H1180 0.961 . S
C1167 C1164 1.539 . S
C1167 H1181 0.958 . S
C1167 H1182 0.961 . S
C1167 H1183 0.960 . S
H1168 C1152 0.931 . S
H1169 C1157 0.929 . S
H1170 C1158 0.960 . S
H1171 C1158 0.962 . S
H1172 C1158 0.960 . S
H1173 C1159 0.961 . S
H1174 C1159 0.961 . S
H1175 C1159 0.961 . S
H1176 C1160 0.931 . S
H1177 C1165 0.930 . S
H1178 C1166 0.956 . S
H1179 C1166 0.961 . S
H1180 C1166 0.961 . S
H1181 C1167 0.958 . S
H1182 C1167 0.961 . S
H1183 C1167 0.960 . S
C417 C215 2.035 1_565 S
C425 C279 2.193 1_545 S
C457 C319 1.600 . S
C449 C247 1.587 . S
C489 C338 2.247 . S
C481 C151 2.116 . S
C521 C399 1.622 . S
C513 C183 1.559 . S
C553 C258 2.194 1_565 S
C545 C87 2.010 . S
C577 C119 1.534 . S
C585 C298 1.606 . S
C609 C23 2.059 . S
C617 C359 2.257 . S
C641 C55 1.455 . S
C649 C378 1.623 . S
C681 C260 0.727 . S
C673 C189 0.746 . S
C713 C300 0.264 . S
C705 C221 0.134 . S
C745 C356 0.822 . S
C737 C253 0.786 . S
C769 C157 0.291 . S
C777 C380 0.378 . S
C801 C61 0.723 . S
C809 C281 0.772 . S
C841 C321 0.282 . S
C833 C93 0.542 1_565 S
C873 C367 0.867 . S
C865 C125 0.697 . S
C897 C29 0.480 . S
C905 C401 0.449 . S
C929 C177 1.978 1_556 S
C937 C276 2.148 . S
C961 C209 2.529 1_565 S
C969 C316 2.813 . S
C1001 C340 1.777 . S
C993 C241 1.747 . S
C1033 C396 2.804 . S
C1025 C145 2.513 . S
C1057 C49 1.906 . S
C1065 C287 2.169 . S
C1097 C327 2.810 . S
C1089 C81 2.561 . S
C1129 C361 1.781 . S
C1121 C113 1.717 . S
C1153 C17 2.545 . S
C1161 C407 2.805 . S
