# Generated by pormake.
# Topology zzz, (3,6)-cn, num edge types: 1
# Building blocks:
#     Node 0, Type 0, BuildingBlock: BETDAH_clean_linker_0, # of connection points: 3
#     Node 1, Type 0, BuildingBlock: BETDAH_clean_linker_0, # of connection points: 3
#     Node 2, Type 0, BuildingBlock: BETDAH_clean_linker_0, # of connection points: 3
#     Node 3, Type 0, BuildingBlock: BETDAH_clean_linker_0, # of connection points: 3
#     Node 4, Type 0, BuildingBlock: BETDAH_clean_linker_0, # of connection points: 3
#     Node 5, Type 0, BuildingBlock: BETDAH_clean_linker_0, # of connection points: 3
#     Node 6, Type 0, BuildingBlock: BETDAH_clean_linker_0, # of connection points: 3
#     Node 7, Type 0, BuildingBlock: BETDAH_clean_linker_0, # of connection points: 3
#     Node 8, Type 1, BuildingBlock: KUMBUR_clean_sbu_0, # of connection points: 6
#     Node 9, Type 1, BuildingBlock: KUMBUR_clean_sbu_0, # of connection points: 6
#     Node 10, Type 1, BuildingBlock: KUMBUR_clean_sbu_0, # of connection points: 6
#     Node 11, Type 1, BuildingBlock: KUMBUR_clean_sbu_0, # of connection points: 6
#     Edge 12, Type (0, 1), BuildingBlock: ZUJKAS_clean_linker_0, # of connection points: 2
#     Edge 13, Type (0, 1), BuildingBlock: ZUJKAS_clean_linker_0, # of connection points: 2
#     Edge 14, Type (0, 1), BuildingBlock: ZUJKAS_clean_linker_0, # of connection points: 2
#     Edge 15, Type (0, 1), BuildingBlock: ZUJKAS_clean_linker_0, # of connection points: 2
#     Edge 16, Type (0, 1), BuildingBlock: ZUJKAS_clean_linker_0, # of connection points: 2
#     Edge 17, Type (0, 1), BuildingBlock: ZUJKAS_clean_linker_0, # of connection points: 2
#     Edge 18, Type (0, 1), BuildingBlock: ZUJKAS_clean_linker_0, # of connection points: 2
#     Edge 19, Type (0, 1), BuildingBlock: ZUJKAS_clean_linker_0, # of connection points: 2
#     Edge 20, Type (0, 1), BuildingBlock: ZUJKAS_clean_linker_0, # of connection points: 2
#     Edge 21, Type (0, 1), BuildingBlock: ZUJKAS_clean_linker_0, # of connection points: 2
#     Edge 22, Type (0, 1), BuildingBlock: ZUJKAS_clean_linker_0, # of connection points: 2
#     Edge 23, Type (0, 1), BuildingBlock: ZUJKAS_clean_linker_0, # of connection points: 2
#     Edge 24, Type (0, 1), BuildingBlock: ZUJKAS_clean_linker_0, # of connection points: 2
#     Edge 25, Type (0, 1), BuildingBlock: ZUJKAS_clean_linker_0, # of connection points: 2
#     Edge 26, Type (0, 1), BuildingBlock: ZUJKAS_clean_linker_0, # of connection points: 2
#     Edge 27, Type (0, 1), BuildingBlock: ZUJKAS_clean_linker_0, # of connection points: 2
#     Edge 28, Type (0, 1), BuildingBlock: ZUJKAS_clean_linker_0, # of connection points: 2
#     Edge 29, Type (0, 1), BuildingBlock: ZUJKAS_clean_linker_0, # of connection points: 2
#     Edge 30, Type (0, 1), BuildingBlock: ZUJKAS_clean_linker_0, # of connection points: 2
#     Edge 31, Type (0, 1), BuildingBlock: ZUJKAS_clean_linker_0, # of connection points: 2
#     Edge 32, Type (0, 1), BuildingBlock: ZUJKAS_clean_linker_0, # of connection points: 2
#     Edge 33, Type (0, 1), BuildingBlock: ZUJKAS_clean_linker_0, # of connection points: 2
#     Edge 34, Type (0, 1), BuildingBlock: ZUJKAS_clean_linker_0, # of connection points: 2
#     Edge 35, Type (0, 1), BuildingBlock: ZUJKAS_clean_linker_0, # of connection points: 2
# Relax obj value: 0.147
# Max RMSD: 0.152
# Mean RMSD: 0.113
data_MOF--net-zzz--node1-KUMBUR_clean_sbu_0--node2-BETDAH_clean_linker_0--edge1-ZUJKAS_clean_linker_0
_symmetry_space_group_name_H-M    P1
_symmetry_Int_Tables_number       1
_symmetry_cell_setting            triclinic
loop_
_symmetry_equiv_pos_as_xyz
'x, y, z'
_cell_length_a     65.915306
_cell_length_b     65.745932
_cell_length_c     19.162563
_cell_angle_alpha  90.780457
_cell_angle_beta   89.888941
_cell_angle_gamma 89.921183
loop_
_atom_site_label
_atom_site_type_symbol
_atom_site_fract_x
_atom_site_fract_y
_atom_site_fract_z
_atom_type_partial_charge
H0 H 0.80269 0.55756 0.15237 0.0
H1 H 0.7432 0.54596 0.07067 0.0
H2 H 0.75744 0.53008 0.28275 0.0
C3 C 0.7872 0.55254 0.16056 0.0
C4 C 0.78176 0.54414 0.22483 0.0
C5 C 0.77345 0.55297 0.10483 0.0
C6 C 0.75365 0.54572 0.11418 0.0
C7 C 0.74759 0.53777 0.17875 0.0
C8 C 0.76187 0.53668 0.2335 0.0
N9 N 0.72751 0.53037 0.18954 0.0
C10 C 0.71189 0.53121 0.14033 0.0
H11 H 1.00521 0.81807 0.11313 0.0
H12 H 0.99863 0.75559 0.04768 0.0
H13 H 1.00572 0.77084 0.26582 0.0
C14 C 1.00402 0.80209 0.12573 0.0
C15 C 1.00535 0.79642 0.19585 0.0
C16 C 1.00142 0.78753 0.07195 0.0
C17 C 1.00073 0.76683 0.0888 0.0
C18 C 1.00254 0.76056 0.15833 0.0
C19 C 1.00446 0.77551 0.21202 0.0
N20 N 1.00264 0.73943 0.17528 0.0
C21 C 1.00261 0.7233 0.12636 0.0
H22 H 0.7177 0.97797 0.17411 0.0
H23 H 0.77618 0.98914 0.08427 0.0
H24 H 0.76007 0.01685 0.28217 0.0
C25 C 0.73272 0.98459 0.17865 0.0
C26 C 0.73717 0.99738 0.23576 0.0
C27 C 0.74662 0.98182 0.1239 0.0
C28 C 0.76571 0.99114 0.12741 0.0
C29 C 0.77092 1.00347 0.18515 0.0
C30 C 0.7564 1.00684 0.23864 0.0
N31 N 0.79028 0.01313 0.18976 0.0
C32 C 0.80593 0.01106 0.1405 0.0
H33 H 0.5544 0.73058 0.16573 0.0
H34 H 0.54742 0.79255 0.10517 0.0
H35 H 0.52925 0.77445 0.31135 0.0
C36 C 0.55002 0.74602 0.17946 0.0
C37 C 0.54125 0.75029 0.245 0.0
C38 C 0.55193 0.76109 0.12893 0.0
C39 C 0.54624 0.78111 0.14514 0.0
C40 C 0.53865 0.78616 0.21188 0.0
C41 C 0.53606 0.77066 0.26135 0.0
N42 N 0.53273 0.80644 0.22952 0.0
C43 C 0.53326 0.82253 0.18275 0.0
H44 H 0.21792 0.50603 0.12483 0.0
H45 H 0.28047 0.50419 0.18406 0.0
H46 H 0.26429 0.50975 0.96694 0.0
C47 C 0.23376 0.50678 0.10987 0.0
C48 C 0.23897 0.50857 0.03912 0.0
C49 C 0.24858 0.50545 0.16207 0.0
C50 C 0.26912 0.50526 0.14347 0.0
C51 C 0.27494 0.50676 0.07298 0.0
C52 C 0.25979 0.50833 0.02103 0.0
N53 N 0.29582 0.50697 0.05309 0.0
C54 C 0.31202 0.50685 0.10018 0.0
H55 H 0.05491 0.22102 0.07457 0.0
H56 H 0.04399 0.27917 0.17283 0.0
H57 H 0.01742 0.26499 0.97224 0.0
C58 C 0.04846 0.2362 0.07263 0.0
C59 C 0.0362 0.24136 0.01592 0.0
C60 C 0.05111 0.24962 0.12953 0.0
C61 C 0.04205 0.26896 0.1285 0.0
C62 C 0.03019 0.27486 0.0712 0.0
C63 C 0.02701 0.26079 0.01561 0.0
N64 N 0.02093 0.29451 0.06858 0.0
C65 C 0.02268 0.30999 0.11935 0.0
H66 H 0.31418 0.0444 0.11033 0.0
H67 H 0.25077 0.04555 0.16131 0.0
H68 H 0.26981 0.04203 0.94617 0.0
C69 C 0.29849 0.04485 0.09362 0.0
C70 C 0.29415 0.04386 0.02189 0.0
C71 C 0.283 0.04547 0.14418 0.0
C72 C 0.2627 0.0449 0.12249 0.0
C73 C 0.25776 0.04351 0.05126 0.0
C74 C 0.27358 0.04296 1.00112 0.0
N75 N 0.2371 0.04261 0.02897 0.0
C76 C 0.2203 0.04243 0.074 0.0
H77 H 0.48813 0.31062 0.10241 0.0
H78 H 0.48535 0.24721 0.14916 0.0
H79 H 0.4938 0.26608 0.9366 0.0
C80 C 0.48843 0.29494 0.08447 0.0
C81 C 0.49141 0.29055 0.01315 0.0
C82 C 0.48655 0.27944 0.13373 0.0
C83 C 0.48687 0.25911 0.11102 0.0
C84 C 0.48915 0.25419 0.0397 0.0
C85 C 0.49145 0.26997 0.99113 0.0
N86 N 0.48965 0.23357 0.01578 0.0
C87 C 0.48864 0.21692 0.06007 0.0
Tb88 Tb 0.03031 0.01751 0.66655 0.0
C89 C 0.95585 0.9961 0.49995 0.0
C90 C 0.96662 0.97273 0.40874 0.0
C91 C 0.93248 0.97039 0.45594 0.0
C92 C 0.97079 0.9889 0.45572 0.0
C93 C 0.93635 0.98727 0.49954 0.0
C94 C 0.94759 0.96314 0.41047 0.0
C95 C 0.92535 0.01384 0.57925 0.0
N96 N 0.96009 0.01262 0.54026 0.0
C97 C 0.94486 0.02212 0.57741 0.0
C98 C 0.92115 0.99613 0.54098 0.0
Tb99 Tb 0.99281 0.02474 0.53539 0.0
N100 N 0.98897 0.9986 0.45556 0.0
C101 C 1.00295 0.99392 0.40496 0.0
C102 C 0.98137 0.96722 0.35958 0.0
C103 C 0.99946 0.97815 0.35688 0.0
H104 H 0.94802 0.03576 0.60758 0.0
H105 H 0.01076 0.97452 0.3176 0.0
H106 H 0.94422 0.95054 0.37539 0.0
H107 H 0.91359 0.02108 0.61032 0.0
H108 H 0.01705 1.00193 0.40123 0.0
H109 H 0.01368 0.06915 0.88432 0.0
H110 H 0.9787 0.95501 0.3222 0.0
H111 H 0.07611 1.00227 0.6088 0.0
H112 H 1.00735 0.04016 0.80783 0.0
H113 H 0.11084 0.01569 0.60835 0.0
H114 H 0.91767 0.96326 0.45533 0.0
H115 H 0.04578 0.08815 0.87574 0.0
H116 H 0.08018 0.09149 0.82181 0.0
H117 H 0.90599 0.98979 0.54219 0.0
H118 H 0.10683 0.07686 0.74649 0.0
N119 N 0.03447 0.0435 0.74743 0.0
C120 C 0.02098 0.04858 0.79937 0.0
C121 C 0.04281 0.07572 0.83956 0.0
C122 C 0.05739 0.06943 0.79088 0.0
C123 C 0.0247 0.06499 0.84467 0.0
C124 C 0.05288 0.05286 0.74577 0.0
H125 H 0.11857 0.04826 0.66845 0.0
N126 N 0.06366 0.02753 0.66596 0.0
C127 C 0.09889 0.02409 0.63475 0.0
C128 C 0.06795 0.04463 0.70357 0.0
C129 C 0.07907 0.01656 0.63508 0.0
C130 C 0.10317 0.04251 0.66851 0.0
C131 C 0.08776 0.05276 0.70503 0.0
O132 O 0.04825 1.00489 0.74582 0.0
O133 O 0.01182 1.00277 0.58675 0.0
O134 O 0.97995 1.00794 0.62369 0.0
O135 O 0.9998 0.02023 0.71426 0.0
O136 O 0.04133 0.99381 0.59357 0.0
O137 O 0.02053 0.99059 0.71446 0.0
O138 O 0.97115 0.04411 0.49188 0.0
O139 O 0.01219 0.03941 0.61209 0.0
O140 O 0.0455 0.03258 0.57929 0.0
O141 O 0.02343 0.0262 0.48671 0.0
O142 O 0.98388 0.05099 0.60204 0.0
O143 O 1.00091 0.04136 0.4462 0.0
C144 C 0.02461 0.99031 0.56124 0.0
C145 C 0.04864 0.96906 0.73243 0.0
C146 C 0.0481 0.93325 0.696 0.0
C147 C 0.03787 0.95147 0.71268 0.0
C148 C 0.06945 0.93301 0.6977 0.0
C149 C 0.06995 0.96835 0.7345 0.0
C150 C 0.08024 0.95047 0.71666 0.0
C151 C 0.98248 0.01258 0.69052 0.0
C152 C 0.03763 0.98828 0.74682 0.0
C153 C 0.09179 0.07022 0.74559 0.0
C154 C 0.07662 0.07854 0.78848 0.0
C155 C 1.00074 0.05346 0.63414 0.0
C156 C 0.98469 0.07376 0.44612 0.0
C157 C 1.00209 0.08466 0.46708 0.0
C158 C 1.00198 0.1061 0.46762 0.0
C159 C 0.98404 0.11632 0.4485 0.0
C160 C 0.96711 0.08434 0.42727 0.0
C161 C 0.96677 0.10549 0.42894 0.0
C162 C 0.04144 0.03177 0.51167 0.0
C163 C 0.98385 0.05143 0.44706 0.0
H164 H 0.02145 0.95198 0.71022 0.0
H165 H 0.07786 0.91917 0.68682 0.0
H166 H 0.07872 0.98165 0.74923 0.0
H167 H 0.09664 0.95006 0.71838 0.0
H168 H 0.0156 0.0765 0.48273 0.0
H169 H 0.98345 0.13275 0.44613 0.0
H170 H 0.95353 0.07618 0.41175 0.0
H171 H 0.95315 0.11355 0.41405 0.0
Tb172 Tb 0.5198 0.03703 0.68274 0.0
C173 C 0.54537 0.9783 0.47532 0.0
C174 C 0.5575 0.99845 0.37939 0.0
C175 C 0.57556 0.96775 0.41061 0.0
C176 C 0.54372 0.99534 0.43495 0.0
C177 C 0.56083 0.96384 0.46164 0.0
C178 C 0.57383 0.985 0.36922 0.0
C179 C 0.54358 0.94081 0.53788 0.0
N180 N 0.5305 0.97478 0.52256 0.0
C181 C 0.52843 0.95543 0.54808 0.0
C182 C 0.56026 0.94528 0.49618 0.0
Tb183 Tb 0.50771 1.00123 0.54384 0.0
N184 N 0.52757 1.00784 0.44598 0.0
C185 C 0.52282 0.02175 0.39557 0.0
C186 C 0.55383 0.0143 0.33339 0.0
C187 C 0.53614 0.02567 0.34057 0.0
H188 H 0.51502 0.95115 0.57679 0.0
H189 H 0.5324 0.03709 0.30248 0.0
H190 H 0.58466 0.98728 0.32749 0.0
H191 H 0.54215 0.92594 0.56099 0.0
H192 H 0.50852 0.02962 0.39475 0.0
H193 H 0.47436 1.00332 0.89052 0.0
H194 H 0.56384 0.01705 0.28962 0.0
H195 H 0.52797 0.08595 0.65186 0.0
H196 H 0.50028 1.00351 0.80184 0.0
H197 H 0.51204 0.11903 0.67918 0.0
H198 H 0.5877 0.95699 0.40024 0.0
H199 H 0.45441 0.03425 0.91693 0.0
H200 H 0.44827 0.07121 0.89604 0.0
H201 H 0.57183 0.93381 0.48719 0.0
H202 H 0.45835 0.10278 0.83794 0.0
N203 N 0.4962 0.03479 0.77339 0.0
C204 C 0.49248 0.01756 0.81122 0.0
C205 C 0.46616 0.03463 0.87735 0.0
C206 C 0.47057 0.05249 0.84197 0.0
C207 C 0.47741 0.0172 0.86267 0.0
C208 C 0.48596 0.05212 0.79044 0.0
H209 H 0.48227 0.12081 0.75779 0.0
N210 N 0.50691 0.06877 0.7116 0.0
C211 C 0.50594 0.10527 0.70134 0.0
C212 C 0.49143 0.06971 0.75784 0.0
C213 C 0.51488 0.08645 0.6859 0.0
C214 C 0.48914 0.10621 0.74554 0.0
C215 C 0.48193 0.08836 0.77559 0.0
O216 O 0.54252 0.057 0.71828 0.0
O217 O 0.53135 0.01828 0.59627 0.0
O218 O 0.51569 0.98312 0.63473 0.0
O219 O 0.52532 1.00632 0.72164 0.0
O220 O 0.54037 0.04803 0.60208 0.0
O221 O 0.54155 0.02651 0.75462 0.0
O222 O 0.49483 0.9766 0.48891 0.0
O223 O 0.49626 0.02041 0.62799 0.0
O224 O 0.50462 0.05521 0.60309 0.0
O225 O 0.50127 0.03242 0.50919 0.0
O226 O 0.48439 0.99178 0.61854 0.0
O227 O 0.48091 1.00604 0.48657 0.0
C228 C 0.54297 0.03119 0.5685 0.0
C229 C 0.57383 0.03974 0.7253 0.0
C230 C 0.60429 0.01864 0.71922 0.0
C231 C 0.58483 0.02257 0.74641 0.0
C232 C 0.61276 0.03205 0.67085 0.0
C233 C 0.58286 0.05327 0.67803 0.0
C234 C 0.60212 0.04932 0.65074 0.0
C235 C 0.52263 0.98757 0.69762 0.0
C236 C 0.55259 0.04276 0.74877 0.0
C237 C 0.46599 0.08867 0.82426 0.0
C238 C 0.4603 0.07073 0.8574 0.0
C239 C 0.48276 1.00879 0.65225 0.0
C240 C 0.45908 0.97746 0.49559 0.0
C241 C 0.4419 0.98967 0.50841 0.0
C242 C 0.42341 0.98098 0.52972 0.0
C243 C 0.42257 0.95987 0.54039 0.0
C244 C 0.45773 0.95637 0.50584 0.0
C245 C 0.43964 0.94772 0.52877 0.0
C246 C 0.50015 0.05094 0.53717 0.0
C247 C 0.47854 0.98671 0.47383 0.0
H248 H 0.57821 0.01215 0.78342 0.0
H249 H 0.62788 0.02949 0.65026 0.0
H250 H 0.57492 0.06673 0.66084 0.0
H251 H 0.60881 0.05968 0.61385 0.0
H252 H 0.44291 1.00597 0.50149 0.0
H253 H 0.40854 0.95255 0.55528 0.0
H254 H 0.47069 0.94655 0.49654 0.0
H255 H 0.43876 0.93147 0.53647 0.0
Tb256 Tb 0.52843 0.51429 0.57434 0.0
C257 C 0.45012 0.50869 0.74051 0.0
C258 C 0.42337 0.5215 0.66659 0.0
C259 C 0.41546 0.49667 0.75513 0.0
C260 C 0.4441 0.52041 0.68438 0.0
C261 C 0.43572 0.49712 0.77747 0.0
C262 C 0.40926 0.50899 0.7002 0.0
C263 C 0.46143 0.49009 0.86321 0.0
N264 N 0.46962 0.51026 0.76313 0.0
C265 C 0.47512 0.50196 0.8257 0.0
C266 C 0.44177 0.48732 0.83829 0.0
Tb267 Tb 0.49031 0.53023 0.6962 0.0
N268 N 0.45805 0.5326 0.65317 0.0
C269 C 0.45176 0.54748 0.60875 0.0
C270 C 0.41713 0.53615 0.61921 0.0
C271 C 0.43135 0.54925 0.5904 0.0
H272 H 0.49013 0.50388 0.84666 0.0
H273 H 0.42657 0.56099 0.55492 0.0
H274 H 0.39335 0.50939 0.6861 0.0
H275 H 0.46607 0.48312 0.9115 0.0
H276 H 0.46221 0.55822 0.58696 0.0
H277 H 0.58942 0.47942 0.72201 0.0
H278 H 0.40121 0.5381 0.60724 0.0
H279 H 0.53153 0.54383 0.4337 0.0
H280 H 0.55502 0.48204 0.67783 0.0
H281 H 0.55701 0.56585 0.37927 0.0
H282 H 0.40426 0.4877 0.7824 0.0
H283 H 0.61547 0.50428 0.68747 0.0
H284 H 0.62528 0.53366 0.61301 0.0
H285 H 0.43115 0.4783 0.86798 0.0
H286 H 0.61649 0.55723 0.51926 0.0
N287 N 0.56024 0.50938 0.62063 0.0
C288 C 0.56566 0.49347 0.66227 0.0
C289 C 0.60013 0.50574 0.66784 0.0
C290 C 0.59507 0.52091 0.62057 0.0
C291 C 0.58548 0.49169 0.68743 0.0
C292 C 0.57485 0.52215 0.59662 0.0
H293 H 0.59127 0.5689 0.43052 0.0
N294 N 0.55087 0.53483 0.51711 0.0
C295 C 0.56081 0.55747 0.42568 0.0
C296 C 0.56998 0.53536 0.54342 0.0
C297 C 0.54639 0.54491 0.45681 0.0
C298 C 0.58011 0.55922 0.45495 0.0
C299 C 0.58505 0.54775 0.51352 0.0
O300 O 0.54416 0.50079 0.48995 0.0
O301 O 0.49608 0.518 0.59197 0.0
O302 O 0.49025 0.4967 0.69392 0.0
O303 O 0.52248 0.48989 0.64887 0.0
O304 O 0.50673 0.52367 0.494 0.0
O305 O 0.51879 0.48569 0.53608 0.0
O306 O 0.47163 0.54777 0.76306 0.0
O307 O 0.52238 0.52644 0.67721 0.0
O308 O 0.52873 0.54773 0.5832 0.0
O309 O 0.4957 0.55426 0.61955 0.0
O310 O 0.51245 0.52177 0.77657 0.0
O311 O 0.50219 0.55688 0.7434 0.0
C312 C 0.49052 0.52297 0.53123 0.0
C313 C 0.5466 0.46513 0.50378 0.0
C314 C 0.54796 0.42825 0.51812 0.0
C315 C 0.53687 0.44618 0.50601 0.0
C316 C 0.56904 0.42962 0.52836 0.0
C317 C 0.56774 0.46607 0.51327 0.0
C318 C 0.57881 0.44841 0.52589 0.0
C319 C 0.50546 0.48404 0.67974 0.0
C320 C 0.53437 0.48376 0.495 0.0
C321 C 0.60479 0.54761 0.5409 0.0
C322 C 0.60979 0.5342 0.5943 0.0
C323 C 0.52835 0.52184 0.73764 0.0
C324 C 0.47765 0.58297 0.7488 0.0
C325 C 0.49131 0.59934 0.75075 0.0
C326 C 0.48566 0.61862 0.72589 0.0
C327 C 0.46594 0.62123 0.69926 0.0
C328 C 0.45781 0.58623 0.72452 0.0
C329 C 0.45211 0.60519 0.69938 0.0
C330 C 0.51321 0.5603 0.59281 0.0
C331 C 0.48469 0.56244 0.76827 0.0
H332 H 0.52055 0.44549 0.4996 0.0
H333 H 0.57811 0.41611 0.53647 0.0
H334 H 0.57573 0.48044 0.5118 0.0
H335 H 0.59506 0.44928 0.5334 0.0
H336 H 0.50633 0.59694 0.77199 0.0
H337 H 0.46117 0.63564 0.67809 0.0
H338 H 0.44674 0.57409 0.72383 0.0
H339 H 0.43693 0.60744 0.67941 0.0
Tb340 Tb 0.01762 0.53543 0.56253 0.0
C341 C 0.02269 0.45652 0.72197 0.0
C342 C 0.01276 0.43108 0.63608 0.0
C343 C 0.03618 0.42214 0.72843 0.0
C344 C 0.0123 0.45134 0.66152 0.0
C345 C 0.03407 0.44174 0.75757 0.0
C346 C 0.02549 0.4168 0.6678 0.0
C347 C 0.03726 0.46553 0.85401 0.0
N348 N 0.01977 0.47541 0.74988 0.0
C349 C 0.02581 0.47966 0.81689 0.0
C350 C 0.04189 0.44669 0.82345 0.0
Tb351 Tb 1.00154 0.49735 0.68251 0.0
N352 N 0.99983 0.46545 0.63294 0.0
C353 C 0.98539 0.45942 0.58577 0.0
C354 C 0.99939 0.42544 0.58269 0.0
C355 C 0.98524 0.43952 0.55894 0.0
H356 H 0.02228 0.49407 0.84156 0.0
H357 H 0.97425 0.43509 0.51974 0.0
H358 H 0.02635 0.4013 0.64804 0.0
H359 H 0.04254 0.4692 0.90612 0.0
H360 H 0.97418 0.46986 0.56676 0.0
H361 H 0.05805 0.59288 0.71352 0.0
H362 H 0.99921 0.41004 0.56184 0.0
H363 H 0.98419 0.54059 0.43476 0.0
H364 H 0.05187 0.55877 0.66706 0.0
H365 H 0.96249 0.5676 0.38678 0.0
H366 H 0.04513 0.41068 0.75442 0.0
H367 H 0.03572 0.62142 0.68101 0.0
H368 H 1.0065 0.63404 0.60958 0.0
H369 H 0.05066 0.43574 0.85254 0.0
H370 H 0.98038 0.62718 0.52066 0.0
N371 N 0.02552 0.56703 0.6086 0.0
C372 C 0.04179 0.57072 0.6514 0.0
C373 C 0.03285 0.60632 0.6599 0.0
C374 C 0.01698 0.60279 0.61308 0.0
C375 C 0.04548 0.59026 0.67827 0.0
C376 C 0.01384 0.5828 0.58753 0.0
H377 H 0.96403 0.60249 0.43656 0.0
N378 N 0.99755 0.55981 0.51243 0.0
C379 C 0.97273 0.57104 0.42943 0.0
C380 C 0.99925 0.57902 0.53787 0.0
C381 C 0.98511 0.55579 0.45663 0.0
C382 C 0.97358 0.59068 0.45783 0.0
C383 C 0.98722 0.59497 0.51191 0.0
O384 O 0.02518 0.53795 0.4566 0.0
O385 O 0.01521 0.50284 0.58107 0.0
O386 O 0.03481 0.49779 0.69274 0.0
O387 O 0.04358 0.52649 0.62815 0.0
O388 O 1.00696 0.51307 0.48501 0.0
O389 O 0.04846 0.53824 0.5352 0.0
O390 O 0.9827 0.47849 0.74233 0.0
O391 O 1.00593 0.52924 0.66461 0.0
O392 O 0.98466 0.53745 0.5803 0.0
O393 O 0.97816 0.50365 0.6034 0.0
O394 O 0.01049 0.51957 0.7641 0.0
O395 O 0.97513 0.50979 0.72937 0.0
C396 C 0.00978 0.49697 0.5207 0.0
C397 C 0.05462 0.51852 0.43287 0.0
C398 C 0.08331 0.49506 0.42248 0.0
C399 C 0.07428 0.51256 0.45235 0.0
C400 C 0.0722 0.48337 0.37382 0.0
C401 C 0.04424 0.50702 0.38175 0.0
C402 C 0.0529 0.48945 0.35327 0.0
C403 C 0.04825 0.51124 0.67005 0.0
C404 C 0.04446 0.53582 0.46896 0.0
C405 C 0.98961 0.61474 0.53938 0.0
C406 C 1.00448 0.61864 0.58993 0.0
C407 C 0.01082 0.5354 0.72513 0.0
C408 C 0.94823 0.48624 0.72051 0.0
C409 C 0.93245 0.50063 0.7194 0.0
C410 C 0.91376 0.49605 0.68709 0.0
C411 C 0.91122 0.4768 0.65525 0.0
C412 C 0.94489 0.46682 0.69105 0.0
C413 C 0.92661 0.46228 0.65795 0.0
C414 C 0.9721 0.52175 0.582 0.0
C415 C 0.96848 0.49208 0.7476 0.0
H416 H 0.08264 0.52172 0.48988 0.0
H417 H 0.07857 0.46963 0.3509 0.0
H418 H 0.02918 0.51126 0.36472 0.0
H419 H 0.04458 0.48052 0.31511 0.0
H420 H 0.93478 0.51533 0.74432 0.0
H421 H 0.8973 0.4729 0.62835 0.0
H422 H 0.95652 0.45519 0.69228 0.0
H423 H 0.92439 0.44744 0.63403 0.0
H424 H 0.18359 0.02693 0.04034 0.0
H425 H 0.15284 0.02658 0.11309 0.0
H426 H 0.1856 0.05639 0.28002 0.0
H427 H 0.21624 0.05702 0.20671 0.0
H428 H 0.14548 1.00881 0.23896 0.0
H429 H 0.13575 0.09228 0.26714 0.0
H430 H 0.1529 0.08095 0.20418 0.0
H431 H 0.16018 0.08331 0.29434 0.0
C432 C 0.18415 0.03346 0.09252 0.0
C433 C 0.20221 0.04207 0.1179 0.0
C434 C 0.16658 0.03325 0.13413 0.0
C435 C 0.16666 0.04177 0.20192 0.0
C436 C 0.18489 0.05015 0.2275 0.0
H437 H 0.07734 0.05145 0.53834 0.0
H438 H 0.10722 0.05371 0.46307 0.0
C439 C 0.20246 0.05037 0.18579 0.0
C440 C 0.14783 0.04141 0.24606 0.0
H441 H 0.11442 0.07175 0.33703 0.0
C442 C 0.13865 0.0226 0.26001 0.0
C443 C 0.13882 0.05936 0.27399 0.0
C444 C 0.14728 0.08014 0.25873 0.0
C445 C 0.12109 0.0212 0.30187 0.0
C446 C 0.11205 0.03915 0.32968 0.0
C447 C 0.12123 0.05797 0.3158 0.0
C448 C 0.09332 0.03865 0.37423 0.0
C449 C 0.11272 1.0004 0.31753 0.0
C450 C 0.07515 0.03007 0.34917 0.0
C451 C 0.05802 0.02858 0.39257 0.0
C452 C 0.05861 0.03561 0.46228 0.0
C453 C 0.07646 0.04524 0.48585 0.0
C454 C 0.09358 0.0467 0.44254 0.0
H455 H 0.12421 0.98826 0.30852 0.0
H456 H 0.10735 0.99959 0.37239 0.0
H457 H 0.09965 0.99722 0.28265 0.0
H458 H 0.07425 0.0243 0.29607 0.0
H459 H 0.04453 0.02144 0.37176 0.0
H460 H 0.50639 0.21414 0.18627 0.0
H461 H 0.50534 0.18504 0.26538 0.0
H462 H 0.46764 0.15228 0.11845 0.0
H463 H 0.46894 0.18133 0.03903 0.0
H464 H 0.47203 0.16642 0.32781 0.0
H465 H 0.5131 0.11156 0.15538 0.0
H466 H 0.51287 0.13856 0.13964 0.0
H467 H 0.49126 0.12324 0.11676 0.0
C468 C 0.49796 0.20066 0.17101 0.0
C469 C 0.48783 0.19979 0.10677 0.0
C470 C 0.49732 0.18408 0.21614 0.0
C471 C 0.48665 0.16632 0.19753 0.0
C472 C 0.47631 0.16562 0.13341 0.0
H473 H 0.47665 0.05006 0.41877 0.0
H474 H 0.47107 0.07776 0.33615 0.0
C475 C 0.47695 0.18222 0.08828 0.0
C476 C 0.48618 0.14873 0.24581 0.0
H477 H 0.50019 0.09888 0.26127 0.0
C478 C 0.47815 0.15165 0.31317 0.0
C479 C 0.49404 0.12937 0.22665 0.0
C480 C 0.50347 0.12544 0.15592 0.0
C481 C 0.47787 0.13583 0.36189 0.0
C482 C 0.48617 0.11663 0.34334 0.0
C483 C 0.49377 0.11356 0.27546 0.0
C484 C 0.48841 0.10002 0.39498 0.0
C485 C 0.46855 0.13984 0.43274 0.0
C486 C 0.5001 0.1032 0.45522 0.0
C487 C 0.50332 0.08744 0.50213 0.0
C488 C 0.49501 0.06803 0.49018 0.0
C489 C 0.48322 0.06484 0.42985 0.0
C490 C 0.48 0.08066 0.3826 0.0
H491 H 0.45742 0.15253 0.43125 0.0
H492 H 0.46081 0.12609 0.45269 0.0
H493 H 0.48068 0.14421 0.47009 0.0
H494 H 0.50731 0.11775 0.46498 0.0
H495 H 0.51314 0.09031 0.54594 0.0
H496 H 0.32456 0.53825 0.18152 0.0
H497 H 0.35439 0.53924 0.25829 0.0
H498 H 0.36806 0.47694 0.20222 0.0
H499 H 0.33837 0.47612 0.12461 0.0
H500 H 0.36386 0.51673 0.37228 0.0
H501 H 0.42225 0.50448 0.16706 0.0
H502 H 0.39626 0.51071 0.14696 0.0
H503 H 0.40305 0.48515 0.16973 0.0
C504 C 0.33399 0.52481 0.18567 0.0
C505 C 0.32931 0.50715 0.1472 0.0
C506 C 0.35102 0.52536 0.22951 0.0
C507 C 0.36376 0.50827 0.23542 0.0
C508 C 0.35881 0.49047 0.19755 0.0
H509 H 0.45948 0.49582 0.55783 0.0
H510 H 0.42797 0.49131 0.49014 0.0
C511 C 0.34177 0.48995 0.15364 0.0
C512 C 0.38193 0.5091 0.28214 0.0
H513 H 0.43377 0.50537 0.28393 0.0
C514 C 0.37913 0.51407 0.35302 0.0
C515 C 0.40195 0.50594 0.25702 0.0
C516 C 0.40617 0.50145 0.18095 0.0
C517 C 0.39566 0.51604 0.39912 0.0
C518 C 0.41566 0.51279 0.37433 0.0
C519 C 0.41847 0.50768 0.30345 0.0
C520 C 0.43398 0.51604 0.41945 0.0
C521 C 0.39169 0.52292 0.47294 0.0
C522 C 0.44795 0.53132 0.40255 0.0
C523 C 0.46581 0.53389 0.44114 0.0
C524 C 0.47018 0.52138 0.4981 0.0
C525 C 0.45622 0.50608 0.51555 0.0
C526 C 0.43824 0.50349 0.47671 0.0
H527 H 0.37534 0.5258 0.48333 0.0
H528 H 0.39709 0.51122 0.5097 0.0
H529 H 0.40019 0.5372 0.48301 0.0
H530 H 0.44517 0.54113 0.35862 0.0
H531 H 0.47645 0.54556 0.42573 0.0
H532 H 0.05072 0.32008 0.21867 0.0
H533 H 0.05057 0.35048 0.29554 0.0
H534 H 0.99478 0.37034 0.20083 0.0
H535 H 0.99482 0.33995 0.12525 0.0
H536 H 0.05173 0.39112 0.26537 0.0
H537 H 0.98019 0.37507 0.40497 0.0
H538 H 0.99294 0.35613 0.35175 0.0
H539 H 0.97683 0.37485 0.31213 0.0
C540 C 0.03836 0.33089 0.21494 0.0
C541 C 0.02267 0.32761 0.16659 0.0
C542 C 0.0383 0.3483 0.25871 0.0
C543 C 0.02246 0.36267 0.25529 0.0
C544 C 1.00691 0.35935 0.2062 0.0
H545 H 0.98909 0.48115 0.41169 0.0
H546 H 0.99419 0.44856 0.35086 0.0
C547 C 1.00698 0.34201 0.16263 0.0
C548 C 0.02236 0.38143 0.30114 0.0
H549 H 0.99253 0.40926 0.41384 0.0
C550 C 0.03891 0.39492 0.29863 0.0
C551 C 1.00571 0.38652 0.34505 0.0
C552 C 0.98801 0.37228 0.35431 0.0
C553 C 0.03881 0.41363 0.33592 0.0
C554 C 0.02179 0.41904 0.37749 0.0
C555 C 1.00555 0.40527 0.38172 0.0
C556 C 0.01981 0.43937 0.41336 0.0
C557 C 0.05644 0.42797 0.32779 0.0
C558 C 0.03263 0.44535 0.46878 0.0
C559 C 0.02957 0.46403 0.50431 0.0
C560 C 0.01355 0.47699 0.48533 0.0
C561 C 1.00131 0.47131 0.42833 0.0
C562 C 1.00423 0.45267 0.39345 0.0
H563 H 0.06743 0.42258 0.28756 0.0
H564 H 0.05084 0.44324 0.3131 0.0
H565 H 0.06456 0.42957 0.37821 0.0
H566 H 0.04466 0.43536 0.48573 0.0
H567 H 0.03957 0.46826 0.54686 0.0
H568 H 0.84053 0.0327 0.15085 0.0
H569 H 0.87007 0.03137 0.07259 0.0
H570 H 0.84025 0.98564 0.9462 0.0
H571 H 0.81057 0.98721 0.02417 0.0
H572 H 0.89558 0.99983 0.03996 0.0
H573 H 0.85756 0.02589 0.79905 0.0
H574 H 0.84587 0.02814 0.88403 0.0
H575 H 0.8459 1.00413 0.83795 0.0
C576 C 0.84028 0.02245 0.10607 0.0
C577 C 0.82327 0.01015 0.09322 0.0
C578 C 0.85717 0.02167 0.06139 0.0
C579 C 0.8574 1.00862 1.00255 0.0
C580 C 0.84037 0.99617 0.99012 0.0
H581 H 0.95033 0.98621 0.67899 0.0
H582 H 0.92022 0.9842 0.75421 0.0
C583 C 0.82345 0.99697 0.03493 0.0
C584 C 0.87567 1.0078 0.9557 0.0
H585 H 0.8916 0.01473 0.78733 0.0
C586 C 0.89466 1.00312 0.98476 0.0
C587 C 0.87462 0.01201 0.88339 0.0
C588 C 0.85495 0.01801 0.84919 0.0
C589 C 0.91247 1.00245 0.94387 0.0
C590 C 0.91146 1.00688 0.8718 0.0
C591 C 0.89245 0.01128 0.84244 0.0
C592 C 0.93003 1.0077 0.82667 0.0
C593 C 0.9322 0.99669 0.97816 0.0
C594 C 0.9456 0.02168 0.84153 0.0
C595 C 0.96276 0.02293 0.79836 0.0
C596 C 0.96486 0.01025 0.73903 0.0
C597 C 0.94928 0.9962 0.72428 0.0
C598 C 0.93202 0.99503 0.7673 0.0
H599 H 0.92964 0.98831 0.02735 0.0
H600 H 0.94167 0.98712 0.94268 0.0
H601 H 0.94082 0.01072 0.99117 0.0
H602 H 0.94427 0.03201 0.88581 0.0
H603 H 0.97397 0.03439 0.81036 0.0
H604 H 0.55205 0.85883 0.19837 0.0
H605 H 0.55144 0.88738 0.11663 0.0
H606 H 0.51432 0.85194 0.97539 0.0
H607 H 0.51482 0.82351 0.05736 0.0
H608 H 0.56411 0.88931 0.97568 0.0
H609 H 0.48165 0.90468 1.00181 0.0
H610 H 0.49536 0.88903 0.06242 0.0
H611 H 0.48768 0.87878 0.97913 0.0
C612 C 0.54378 0.85723 0.14979 0.0
C613 C 0.53337 0.83916 0.13396 0.0
C614 C 0.54346 0.87349 0.10316 0.0
C615 C 0.53258 0.87195 0.04028 0.0
C616 C 0.52248 0.85366 0.0241 0.0
H617 H 0.50541 0.94974 0.69286 0.0
H618 H 0.5095 0.92207 0.77498 0.0
C619 C 0.52284 0.83741 0.07068 0.0
C620 C 0.53178 0.88942 0.9916 0.0
H621 H 0.499 0.92199 0.91185 0.0
C622 C 0.5499 0.89655 0.96197 0.0
C623 C 0.51324 0.89891 0.97388 0.0
C624 C 0.49338 0.89263 0.00638 0.0
C625 C 0.5499 0.91248 0.9135 0.0
C626 C 0.53131 0.9218 0.89512 0.0
C627 C 0.51324 0.91482 0.92558 0.0
C628 C 0.53005 0.93847 0.84324 0.0
C629 C 0.56974 0.91874 0.88083 0.0
C630 C 0.54023 0.95703 0.85394 0.0
C631 C 0.53817 0.97287 0.80609 0.0
C632 C 0.52584 0.97049 0.74663 0.0
C633 C 0.51561 0.95192 0.73645 0.0
C634 C 0.51772 0.93612 0.78405 0.0
H635 H 0.58157 0.90681 0.88633 0.0
H636 H 0.5678 0.92201 0.82454 0.0
H637 H 0.57531 0.93277 0.90725 0.0
H638 H 0.54945 0.95944 0.9 0.0
H639 H 0.54609 0.98703 0.81603 0.0
H640 H 0.67253 0.53556 0.17558 0.0
H641 H 0.64309 0.53514 0.09725 0.0
H642 H 0.68302 0.52756 0.92011 0.0
H643 H 0.71248 0.5277 0.99891 0.0
H644 H 0.63258 0.56015 0.98867 0.0
H645 H 0.64319 0.48086 0.89154 0.0
H646 H 0.65666 0.49088 0.96631 0.0
H647 H 0.66468 0.49721 0.8796 0.0
C648 C 0.67497 0.53381 0.11988 0.0
C649 C 0.69467 0.53159 0.09308 0.0
C650 C 0.65816 0.5336 0.07511 0.0
C651 C 0.66072 0.53104 1.00263 0.0
C652 C 0.68055 0.52916 0.97579 0.0
H653 H 0.55833 0.54968 0.70981 0.0
H654 H 0.59146 0.55287 0.76835 0.0
C655 C 0.69738 0.52936 0.02071 0.0
C656 C 0.64257 0.53034 0.95585 0.0
H657 H 0.61634 0.49958 0.84225 0.0
C658 C 0.6291 0.54695 0.95635 0.0
C659 C 0.63789 0.51306 0.91391 0.0
C660 C 0.65123 0.49439 0.91299 0.0
C661 C 0.61105 0.54665 0.91702 0.0
C662 C 0.60638 0.52938 0.87515 0.0
C663 C 0.61997 0.51289 0.87387 0.0
C664 C 0.58671 0.52739 0.83698 0.0
C665 C 0.59675 0.56455 0.92266 0.0
C666 C 0.57315 0.51184 0.85491 0.0
C667 C 0.55441 0.50997 0.82131 0.0
C668 C 0.54897 0.52326 0.76772 0.0
C669 C 0.56243 0.5389 0.74966 0.0
C670 C 0.58122 0.54087 0.78372 0.0
H671 H 0.60052 0.5747 0.9676 0.0
H672 H 0.59777 0.57359 0.87432 0.0
H673 H 0.58083 0.55932 0.92838 0.0
H674 H 0.57693 0.50132 0.89594 0.0
H675 H 0.54411 0.49805 0.83714 0.0
H676 H 0.9949 0.68435 0.16092 0.0
H677 H 0.9959 0.65407 0.08449 0.0
H678 H 0.01133 0.69174 0.90975 0.0
H679 H 0.01066 0.722 0.98674 0.0
H680 H 0.97412 0.64323 0.96964 0.0
H681 H 0.05534 0.64891 0.89631 0.0
H682 H 0.04435 0.66396 0.96617 0.0
H683 H 0.04067 0.67114 0.87685 0.0
C684 C 0.99853 0.68613 0.10617 0.0
C685 C 1.00277 0.70549 0.0798 0.0
C686 C 0.99908 0.6688 0.06238 0.0
C687 C 1.004 0.67038 0.99112 0.0
C688 C 1.00794 0.68989 0.96459 0.0
H689 H 0.98468 0.56689 0.69451 0.0
H690 H 0.98255 0.6004 0.75316 0.0
C691 C 1.00741 0.70724 0.00852 0.0
C692 C 1.00484 0.65162 0.94521 0.0
H693 H 0.03629 0.62307 0.83989 0.0
C694 C 0.98772 0.63889 0.94112 0.0
C695 C 0.02259 0.6457 0.90811 0.0
C696 C 0.04186 0.65801 0.91238 0.0
C697 C 0.98787 0.62056 0.90179 0.0
C698 C 1.00556 0.61473 0.86426 0.0
C699 C 0.02264 0.62751 0.86794 0.0
C700 C 1.00717 0.59479 0.82519 0.0
C701 C 0.96926 0.60722 0.90281 0.0
C702 C 0.022 0.58054 0.8443 0.0
C703 C 0.02333 0.56154 0.81037 0.0
C704 C 0.01021 0.55641 0.75516 0.0
C705 C 0.99536 0.57061 0.73561 0.0
C706 C 0.99396 0.58967 0.76988 0.0
H707 H 0.95884 0.61142 0.94633 0.0
H708 H 0.96087 0.60896 0.8531 0.0
H709 H 0.97352 0.59096 0.90785 0.0
H710 H 0.03235 0.58394 0.88672 0.0
H711 H 0.03466 0.55075 0.82747 0.0
H712 H 0.0884 0.23179 0.14207 0.0
H713 H 0.09855 0.20885 0.2356 0.0
H714 H 0.04484 0.2256 0.35183 0.0
H715 H 0.03506 0.24896 0.25987 0.0
H716 H 0.07804 0.2119 0.43829 0.0
H717 H 0.06111 0.15958 0.21379 0.0
H718 H 0.08196 0.17686 0.20447 0.0
H719 H 0.05646 0.1865 0.20898 0.0
C720 C 0.0793 0.23123 0.18914 0.0
C721 C 0.06078 0.24181 0.19344 0.0
C722 C 0.08509 0.21813 0.24244 0.0
C723 C 0.07214 0.2151 0.29959 0.0
C724 C 0.05503 0.22765 0.30802 0.0
H725 H 1.00585 0.14315 0.53382 0.0
H726 H 0.03253 0.16749 0.51256 0.0
C727 C 0.04941 0.24099 0.25534 0.0
C728 C 0.07325 0.19615 0.3404 0.0
H729 H 0.0601 0.1463 0.32403 0.0
C730 C 0.07466 0.19737 0.41346 0.0
C731 C 0.06909 0.17714 0.30789 0.0
C732 C 0.06694 0.17481 0.2296 0.0
C733 C 0.07048 0.1804 0.45502 0.0
C734 C 0.06419 0.16199 0.42257 0.0
C735 C 0.06486 0.16034 0.34942 0.0
C736 C 0.05261 0.14603 0.46003 0.0
C737 C 0.07209 0.18266 0.53318 0.0
C738 C 0.05525 0.12539 0.44177 0.0
C739 C 0.03942 0.11154 0.45108 0.0
C740 C 0.02085 0.11807 0.48 0.0
C741 C 0.01966 0.13781 0.50898 0.0
C742 C 0.03524 0.15174 0.49813 0.0
H743 H 0.08553 0.19202 0.54729 0.0
H744 H 0.0585 0.1908 0.55349 0.0
H745 H 0.07332 0.16772 0.55915 0.0
H746 H 0.06861 0.12049 0.41308 0.0
H747 H 0.04107 0.09639 0.42891 0.0
H748 H 0.26445 0.02484 0.25054 0.0
H749 H 0.27699 0.02049 0.36915 0.0
H750 H 0.32701 0.06065 0.32487 0.0
H751 H 0.31371 0.0663 0.20891 0.0
H752 H 0.30926 1.00162 0.39029 0.0
H753 H 0.3209 0.07465 0.52317 0.0
H754 H 0.30432 0.0724 0.44846 0.0
H755 H 0.33111 0.07739 0.43734 0.0
C756 C 0.27762 0.03345 0.26707 0.0
C757 C 0.28831 0.04562 0.21965 0.0
C758 C 0.28482 0.0309 0.33501 0.0
C759 C 0.30292 0.04031 0.35664 0.0
C760 C 0.31275 0.05359 0.31079 0.0
H761 H 0.41266 0.01252 0.44605 0.0
H762 H 0.37979 0.02877 0.43761 0.0
C763 C 0.30538 0.05643 0.24349 0.0
C764 C 0.31395 0.03309 0.4192 0.0
H765 H 0.34986 0.04955 0.5347 0.0
C766 C 0.31744 0.01207 0.4242 0.0
C767 C 0.32445 0.04654 0.46471 0.0
C768 C 0.31974 0.06897 0.46844 0.0
C769 C 0.33313 1.00449 0.46564 0.0
C770 C 0.3456 0.01831 0.50285 0.0
C771 C 0.34045 0.03902 0.50515 0.0
C772 C 0.36634 0.01225 0.52278 0.0
C773 C 0.33776 0.98199 0.4628 0.0
C774 C 0.36994 0.99823 0.57585 0.0
C775 C 0.389 0.98899 0.5816 0.0
C776 C 0.4046 0.99349 0.53378 0.0
C777 C 0.40123 1.00874 0.48435 0.0
C778 C 0.38234 0.01808 0.47926 0.0
H779 H 0.32664 0.97334 0.43062 0.0
H780 H 0.35315 0.97941 0.44068 0.0
H781 H 0.33757 0.97578 0.51635 0.0
H782 H 0.35777 0.99371 0.61036 0.0
H783 H 0.39125 0.97773 0.62159 0.0
H784 H 0.50826 0.26213 0.23919 0.0
H785 H 0.51411 0.27668 0.35551 0.0
H786 H 0.47115 0.32448 0.31226 0.0
H787 H 0.46447 0.3094 0.19834 0.0
H788 H 0.53191 0.31088 0.36489 0.0
H789 H 0.4618 0.32078 0.51476 0.0
H790 H 0.46341 0.30289 0.44252 0.0
H791 H 0.45663 0.32916 0.4282 0.0
C792 C 0.49936 0.27518 0.25588 0.0
C793 C 0.48617 0.28487 0.20919 0.0
C794 C 0.50277 0.28353 0.32238 0.0
C795 C 0.49307 0.30169 0.34314 0.0
C796 C 0.47853 0.31024 0.29872 0.0
H797 H 0.5177 0.41579 0.4305 0.0
H798 H 0.50379 0.38177 0.41661 0.0
C799 C 0.47497 0.3018 0.23278 0.0
C800 C 0.50114 0.31419 0.40196 0.0
H801 H 0.48559 0.35074 0.5184 0.0
C802 C 0.52191 0.31897 0.40074 0.0
C803 C 0.48827 0.32466 0.44955 0.0
C804 C 0.46634 0.31886 0.45919 0.0
C805 C 0.52956 0.33561 0.43871 0.0
C806 C 0.51606 0.34771 0.47887 0.0
C807 C 0.49583 0.34157 0.48662 0.0
C808 C 0.52169 0.36869 0.49917 0.0
C809 C 0.55155 0.34145 0.42979 0.0
C810 C 0.53594 0.37269 0.55177 0.0
C811 C 0.54389 0.39229 0.56028 0.0
C812 C 0.53776 0.4081 0.51603 0.0
C813 C 0.52263 0.40413 0.46608 0.0
C814 C 0.51465 0.38465 0.45797 0.0
H815 H 0.55997 0.3305 0.39582 0.0
H816 H 0.55262 0.3568 0.40662 0.0
H817 H 0.55908 0.3421 0.48151 0.0
H818 H 0.54148 0.36051 0.58417 0.0
H819 H 0.55521 0.39494 0.60026 0.0
H820 H 0.22173 0.53001 0.22896 0.0
H821 H 0.20444 0.52346 0.33778 0.0
H822 H 0.24336 0.47167 0.37259 0.0
H823 H 0.26027 0.47785 0.26053 0.0
H824 H 0.20744 0.45947 0.3789 0.0
H825 H 0.20569 0.52767 0.54137 0.0
H826 H 0.20097 0.53689 0.45566 0.0
H827 H 0.22482 0.52443 0.47437 0.0
C828 C 0.22698 0.51755 0.26073 0.0
C829 C 0.24204 0.50422 0.23586 0.0
C830 C 0.21732 0.514 0.32397 0.0
C831 C 0.22268 0.49718 0.36459 0.0
C832 C 0.23901 0.48482 0.34263 0.0
H833 H 0.10356 0.49689 0.54857 0.0
H834 H 0.13999 0.49137 0.56815 0.0
C835 C 0.24868 0.48836 0.27868 0.0
C836 C 0.20819 0.49036 0.41903 0.0
H837 H 0.17032 0.51242 0.51452 0.0
C838 C 0.19985 0.4708 0.4113 0.0
C839 C 0.19857 0.50444 0.46487 0.0
C840 C 0.20825 0.52441 0.48499 0.0
C841 C 0.18035 0.46656 0.43635 0.0
C842 C 0.16885 0.48245 0.46744 0.0
C843 C 0.17873 0.50048 0.48758 0.0
C844 C 0.14645 0.48286 0.46082 0.0
C845 C 0.17146 0.44578 0.42265 0.0
C846 C 0.13802 0.48013 0.39412 0.0
C847 C 0.11749 0.48348 0.38273 0.0
C848 C 0.10476 0.48981 0.43766 0.0
C849 C 0.11303 0.49217 0.50505 0.0
C850 C 0.13378 0.48883 0.51648 0.0
H851 H 0.18311 0.43384 0.43101 0.0
H852 H 0.15821 0.44278 0.45692 0.0
H853 H 0.1666 0.44457 0.36732 0.0
H854 H 0.14755 0.47641 0.3496 0.0
H855 H 0.11182 0.48204 0.32988 0.0
H856 H 0.01756 0.76886 0.95463 0.0
H857 H 0.01905 0.7824 0.8366 0.0
H858 H 0.985 0.83511 0.90514 0.0
H859 H 0.98196 0.82096 0.02114 0.0
H860 H 0.97639 0.82555 0.77064 0.0
H861 H 0.06039 0.82583 0.80945 0.0
H862 H 0.0478 0.80167 0.80659 0.0
H863 H 0.04341 0.8189 0.87878 0.0
C864 C 0.00985 0.78304 0.94413 0.0
C865 C 1.00013 0.79412 0.99809 0.0
C866 C 0.01091 0.79085 0.87665 0.0
C867 C 1.00272 0.81008 0.86253 0.0
C868 C 0.99163 0.82032 0.91482 0.0
H869 H 0.01335 0.92123 0.76122 0.0
H870 H 0.99911 0.88744 0.76308 0.0
C871 C 0.99021 0.81237 0.98164 0.0
C872 C 1.0078 0.82117 0.79793 0.0
H873 H 0.04706 0.84813 0.72982 0.0
C874 C 0.99191 0.83006 0.76011 0.0
C875 C 0.02809 0.82676 0.78292 0.0
C876 C 0.04595 0.81792 0.82153 0.0
C877 C 0.99557 0.84618 0.71455 0.0
C878 C 0.01558 0.85348 0.70682 0.0
C879 C 0.03168 0.84263 0.73643 0.0
C880 C 0.01982 0.87469 0.68622 0.0
C881 C 0.97777 0.85626 0.67981 0.0
C882 C 0.03583 0.87911 0.64045 0.0
C883 C 0.04403 0.89872 0.63887 0.0
C884 C 0.03661 0.91406 0.68415 0.0
C885 C 0.01941 0.90996 0.72509 0.0
C886 C 0.0111 0.89051 0.72597 0.0
H887 H 0.96675 0.84462 0.66133 0.0
H888 H 0.9698 0.86613 0.71851 0.0
H889 H 0.98248 0.86567 0.63496 0.0
H890 H 0.04283 0.86711 0.60947 0.0
H891 H 0.05691 0.90152 0.60524 0.0
H892 H 0.7325 0.94306 0.10405 0.0
H893 H 0.71252 0.93082 1.0042 0.0
H894 H 0.72239 0.98827 0.90251 0.0
H895 H 0.74345 0.99954 0.99881 0.0
H896 H 0.67911 0.94319 0.97724 0.0
H897 H 0.7183 0.95635 0.73305 0.0
H898 H 0.73233 0.95558 0.8138 0.0
H899 H 0.72256 0.97939 0.78109 0.0
C900 C 0.73116 0.95253 0.05845 0.0
C901 C 0.73952 0.97216 0.05851 0.0
C902 C 0.71967 0.94562 1.00156 0.0
C903 C 0.7159 0.95848 0.94488 0.0
C904 C 0.72551 0.97758 0.94355 0.0
H905 H 0.61295 0.01079 0.85374 0.0
H906 H 0.63801 0.98711 0.89745 0.0
C907 C 0.73746 0.9842 0.99924 0.0
C908 C 0.69884 0.95433 0.89581 0.0
H909 H 0.68227 0.97115 0.73875 0.0
C910 C 0.68003 0.94855 0.92409 0.0
C911 C 0.69966 0.96009 0.82494 0.0
C912 C 0.71944 0.96291 0.78664 0.0
C913 C 0.66194 0.95166 0.88747 0.0
C914 C 0.66263 0.9618 0.82289 0.0
C915 C 0.68151 0.96433 0.78989 0.0
C916 C 0.64491 0.97337 0.79645 0.0
C917 C 0.64224 0.94514 0.92045 0.0
C918 C 0.64048 0.97397 0.72476 0.0
C919 C 0.62648 0.98808 0.69948 0.0
C920 C 0.61657 1.00162 0.74558 0.0
C921 C 0.62016 1.00027 0.81736 0.0
C922 C 0.63437 0.98651 0.84241 0.0
H923 H 0.64409 0.93005 0.94506 0.0
H924 H 0.63801 0.9561 0.9626 0.0
H925 H 0.62972 0.94417 0.88186 0.0
H926 H 0.64845 0.96414 0.68808 0.0
H927 H 0.62382 0.98882 0.64386 0.0
H928 H 0.52693 0.76417 0.01845 0.0
H929 H 0.52855 0.74343 0.91218 0.0
H930 H 0.58848 0.72291 0.96851 0.0
H931 H 0.58623 0.74273 0.07778 0.0
H932 H 0.55005 0.73426 0.79694 0.0
H933 H 0.55725 0.67153 0.98898 0.0
H934 H 0.55366 0.69753 0.01658 0.0
H935 H 0.57804 0.68902 0.98525 0.0
C936 C 0.54074 0.7558 0.00687 0.0
C937 C 0.55633 0.75472 0.05637 0.0
C938 C 0.54168 0.74394 0.94608 0.0
C939 C 0.55835 0.73104 0.93358 0.0
C940 C 0.57518 0.73221 0.97833 0.0
H941 H 0.5273 0.6183 0.71039 0.0
H942 H 0.55076 0.64583 0.74042 0.0
C943 C 0.574 0.74366 0.04027 0.0
C944 C 0.55605 0.71408 0.88229 0.0
H945 H 0.54735 0.66291 0.87701 0.0
C946 C 0.54997 0.71858 0.81388 0.0
C947 C 0.55596 0.69354 0.90426 0.0
C948 C 0.56143 0.68753 0.97776 0.0
C949 C 0.54222 0.70338 0.76915 0.0
C950 C 0.54064 0.68329 0.79348 0.0
C951 C 0.54864 0.67841 0.85879 0.0
C952 C 0.52721 0.6681 0.75993 0.0
C953 C 0.53469 0.70908 0.6978 0.0
C954 C 0.50623 0.67158 0.76063 0.0
C955 C 0.49276 0.65573 0.74647 0.0
C956 C 0.50001 0.63607 0.73052 0.0
C957 C 0.52112 0.63304 0.72476 0.0
C958 C 0.53459 0.64884 0.74061 0.0
H959 H 0.54268 0.72274 0.6782 0.0
H960 H 0.53675 0.69634 0.65976 0.0
H961 H 0.51826 0.7127 0.70103 0.0
H962 H 0.5002 0.6862 0.7773 0.0
H963 H 0.47669 0.6587 0.7525 0.0
H964 H 0.77233 0.52947 0.98798 0.0
H965 H 0.79268 0.53386 0.88284 0.0
H966 H 0.81161 0.59308 0.95743 0.0
H967 H 0.79206 0.58814 0.06507 0.0
H968 H 0.79916 0.55903 0.77478 0.0
H969 H 0.86431 0.56323 0.96023 0.0
H970 H 0.83895 0.55797 0.98964 0.0
H971 H 0.84605 0.58341 0.96615 0.0
C972 C 0.78037 0.54367 0.98099 0.0
C973 C 0.78095 0.55834 0.03478 0.0
C974 C 0.79198 0.5462 0.92083 0.0
C975 C 0.80417 0.56355 0.91317 0.0
C976 C 0.80284 0.5793 0.96326 0.0
H977 H 0.91503 0.53795 0.68071 0.0
H978 H 0.88766 0.56159 0.71192 0.0
C979 C 0.79159 0.57655 0.02437 0.0
C980 C 0.82037 0.56321 0.85928 0.0
H981 H 0.87149 0.5561 0.84452 0.0
C982 C 0.81503 0.55892 0.78962 0.0
C983 C 0.84116 0.56324 0.87839 0.0
C984 C 0.84806 0.56707 0.9526 0.0
C985 C 0.82972 0.55283 0.74038 0.0
C986 C 0.85014 0.55101 0.76147 0.0
C987 C 0.85576 0.5575 0.82865 0.0
C988 C 0.86489 0.53819 0.72261 0.0
C989 C 0.82313 0.54719 0.66742 0.0
C990 C 0.86102 0.51728 0.71649 0.0
C991 C 0.87668 0.50371 0.70091 0.0
C992 C 0.89659 0.51077 0.69054 0.0
C993 C 0.90002 0.53192 0.69037 0.0
C994 C 0.88433 0.5455 0.70701 0.0
H995 H 0.80949 0.55599 0.65199 0.0
H996 H 0.83546 0.5499 0.62909 0.0
H997 H 0.81909 0.53081 0.66545 0.0
H998 H 0.84626 0.51122 0.72991 0.0
H999 H 0.87338 0.4876 0.70225 0.0
H1000 H 1.00017 0.22323 0.97996 0.0
H1001 H 0.99541 0.19246 0.90751 0.0
H1002 H 0.05908 0.19278 0.85515 0.0
H1003 H 0.06394 0.22282 0.93026 0.0
H1004 H 0.99953 0.18101 0.7769 0.0
H1005 H 0.05575 0.13685 0.92658 0.0
H1006 H 0.04768 0.16191 0.95389 0.0
H1007 H 0.06689 0.15877 0.88748 0.0
C1008 C 0.01305 0.2169 0.95195 0.0
C1009 C 0.03242 0.22549 0.96074 0.0
C1010 C 0.01037 0.1992 0.91077 0.0
C1011 C 0.02699 0.18969 0.87713 0.0
C1012 C 0.04609 0.19915 0.88234 0.0
H1013 H 0.03603 0.07586 0.62457 0.0
H1014 H 0.04303 0.10935 0.67887 0.0
C1015 C 0.04883 0.21658 0.92444 0.0
C1016 C 0.02441 0.16978 0.83817 0.0
H1017 H 0.04299 0.12114 0.82367 0.0
C1018 C 0.00901 0.16793 0.78764 0.0
C1019 C 0.03668 0.15245 0.8515 0.0
C1020 C 0.05252 0.15249 0.90829 0.0
C1021 C 1.00562 0.14953 0.75056 0.0
C1022 C 0.01788 0.1323 0.76402 0.0
C1023 C 0.03354 0.13423 0.81322 0.0
C1024 C 0.01392 0.11187 0.73082 0.0
C1025 C 0.9889 0.14877 0.69695 0.0
C1026 C 0.99539 0.10191 0.74237 0.0
C1027 C 0.9915 0.08278 0.71202 0.0
C1028 C 1.00616 0.07288 0.67037 0.0
C1029 C 0.0247 0.08282 0.65826 0.0
C1030 C 0.02862 0.10205 0.68878 0.0
H1031 H 0.98567 0.1641 0.67594 0.0
H1032 H 0.99277 0.13834 0.65288 0.0
H1033 H 0.97483 0.14313 0.72196 0.0
H1034 H 0.98387 0.10893 0.77512 0.0
H1035 H 0.97695 0.07564 0.72131 0.0
H1036 H 0.29954 0.01935 0.90447 0.0
H1037 H 0.33054 0.01551 0.83345 0.0
H1038 H 0.35928 0.06307 0.95417 0.0
H1039 H 0.32851 0.06718 0.02422 0.0
H1040 H 0.35631 0.04555 0.75376 0.0
H1041 H 0.39559 0.01112 0.97975 0.0
H1042 H 0.3683 0.01308 0.97483 0.0
H1043 H 0.38322 0.03506 0.99696 0.0
C1044 C 0.3123 0.02929 0.91489 0.0
C1045 C 0.31153 0.04338 0.97091 0.0
C1046 C 0.33008 0.02702 0.87441 0.0
C1047 C 0.34744 0.03876 0.88915 0.0
C1048 C 0.34627 0.05359 0.94237 0.0
H1049 H 0.46328 0.04618 0.65496 0.0
H1050 H 0.43043 0.05447 0.70991 0.0
C1051 C 0.3286 0.05589 0.98253 0.0
C1052 C 0.36718 0.03482 0.85242 0.0
H1053 H 0.41555 0.01782 0.88046 0.0
C1054 C 0.36925 0.03942 0.78131 0.0
C1055 C 0.38414 0.02682 0.88819 0.0
C1056 C 0.38279 0.02106 0.96401 0.0
C1057 C 0.3878 0.03637 0.74539 0.0
C1058 C 0.40483 0.02853 0.78148 0.0
C1059 C 0.40264 0.02387 0.85251 0.0
C1060 C 0.42476 0.02395 0.74651 0.0
C1061 C 0.38886 0.0414 0.66894 0.0
C1062 C 0.43288 1.0042 0.74954 0.0
C1063 C 0.45175 0.99962 0.71952 0.0
C1064 C 0.46325 0.01469 0.68641 0.0
C1065 C 0.45503 0.03438 0.6818 0.0
C1066 C 0.43609 0.03903 0.71231 0.0
H1067 H 0.37356 0.04169 0.64485 0.0
H1068 H 0.39565 0.05672 0.66317 0.0
H1069 H 0.39849 0.03033 0.6398 0.0
H1070 H 0.42454 0.99222 0.7751 0.0
H1071 H 0.45747 0.9842 0.72264 0.0
H1072 H 0.47892 0.2944 0.87573 0.0
H1073 H 0.48338 0.32376 0.79959 0.0
H1074 H 0.51486 0.35557 0.9652 0.0
H1075 H 0.51238 0.32595 0.03793 0.0
H1076 H 0.46965 0.35959 0.80329 0.0
H1077 H 0.55213 0.36916 0.81545 0.0
H1078 H 0.53996 0.34682 0.84926 0.0
H1079 H 0.54288 0.3694 0.90322 0.0
C1080 C 0.4873 0.30743 0.89519 0.0
C1081 C 0.49504 0.3077 0.96369 0.0
C1082 C 0.48967 0.32435 0.85174 0.0
C1083 C 0.49979 0.34196 0.87578 0.0
C1084 C 0.50758 0.34212 0.94392 0.0
H1085 H 0.47478 0.46523 0.75236 0.0
H1086 H 0.4737 0.43041 0.79322 0.0
C1087 C 0.50566 0.32516 0.98646 0.0
C1088 C 0.50121 0.3607 0.83234 0.0
H1089 H 0.53286 0.40021 0.79544 0.0
C1090 C 0.48359 0.36827 0.80049 0.0
C1091 C 0.51947 0.37191 0.82589 0.0
C1092 C 0.53968 0.36371 0.8496 0.0
C1093 C 0.48347 0.38713 0.76638 0.0
C1094 C 0.50116 0.39945 0.76749 0.0
C1095 C 0.51904 0.39129 0.79576 0.0
C1096 C 0.5015 0.42089 0.74146 0.0
C1097 C 0.46441 0.39331 0.72866 0.0
C1098 C 0.51793 0.42787 0.70142 0.0
C1099 C 0.51921 0.44829 0.682 0.0
C1100 C 0.50386 0.46229 0.70048 0.0
C1101 C 0.48714 0.45517 0.7386 0.0
C1102 C 0.48624 0.43493 0.76043 0.0
H1103 H 0.45619 0.37974 0.70828 0.0
H1104 H 0.45409 0.40129 0.76576 0.0
H1105 H 0.46774 0.40345 0.68426 0.0
H1106 H 0.52998 0.41758 0.68569 0.0
H1107 H 0.53233 0.45304 0.6525 0.0
H1108 H 0.20363 0.53028 0.05239 0.0
H1109 H 0.1742 0.52988 0.97655 0.0
H1110 H 0.20694 0.49302 0.82621 0.0
H1111 H 0.23621 0.49203 0.90524 0.0
H1112 H 0.16552 0.54283 0.8564 0.0
H1113 H 0.15776 0.4589 0.84104 0.0
H1114 H 0.17563 0.4712 0.89868 0.0
H1115 H 0.18139 0.46801 0.80727 0.0
C1116 C 0.20461 0.52179 1.00368 0.0
C1117 C 0.22226 0.51068 0.98629 0.0
C1118 C 0.1877 0.52176 0.9597 0.0
C1119 C 0.18789 0.51094 0.896 0.0
C1120 C 0.20597 0.5009 0.87603 0.0
H1121 H 0.08158 0.53248 0.62397 0.0
H1122 H 0.11618 0.53166 0.66878 0.0
C1123 C 0.2229 0.50064 0.92087 0.0
C1124 C 0.16898 0.51027 0.85219 0.0
H1125 H 0.13437 0.47808 0.77631 0.0
C1126 C 0.15878 0.52862 0.83882 0.0
C1127 C 0.15987 0.49178 0.82948 0.0
C1128 C 0.16909 0.47134 0.84534 0.0
C1129 C 0.13969 0.52904 0.80583 0.0
C1130 C 0.13071 0.51059 0.78221 0.0
C1131 C 0.14116 0.49226 0.79381 0.0
C1132 C 0.10998 0.50983 0.74969 0.0
C1133 C 0.12895 0.54925 0.80019 0.0
C1134 C 0.095 0.49686 0.77651 0.0
C1135 C 0.07525 0.49682 0.7493 0.0
C1136 C 0.06973 0.50999 0.69527 0.0
C1137 C 0.08496 0.52241 0.66663 0.0
C1138 C 0.10485 0.52211 0.69278 0.0
H1139 H 0.13493 0.5606 0.83838 0.0
H1140 H 0.13139 0.55539 0.7472 0.0
H1141 H 0.11239 0.54766 0.80911 0.0
H1142 H 0.09843 0.487 0.81976 0.0
H1143 H 0.06427 0.48671 0.77174 0.0
H1144 H 0.03777 0.82161 0.21183 0.0
H1145 H 0.04019 0.85263 0.2834 0.0
H1146 H 0.98062 0.84113 0.36749 0.0
H1147 H 0.9786 0.80959 0.29735 0.0
H1148 H 0.0185 0.8851 0.27202 0.0
H1149 H 1.00802 0.8591 0.54269 0.0
H1150 H 0.01216 0.84161 0.47102 0.0
H1151 H 0.98727 0.852 0.48734 0.0
C1152 C 0.02547 0.82536 0.24734 0.0
C1153 C 1.00816 0.81291 0.24981 0.0
C1154 C 0.02677 0.84325 0.28798 0.0
C1155 C 0.01069 0.84944 0.33194 0.0
C1156 C 0.99354 0.83667 0.33583 0.0
H1157 H 0.99062 0.96538 0.5666 0.0
H1158 H 0.98638 0.93149 0.51169 0.0
C1159 C 0.99235 0.81856 0.2956 0.0
C1160 C 0.01136 0.87003 0.36793 0.0
H1161 H 1.00639 0.89507 0.52561 0.0
C1162 C 0.01596 0.88714 0.32762 0.0
C1163 C 1.00787 0.87306 0.44052 0.0
C1164 C 1.00374 0.85545 0.48803 0.0
C1165 C 0.01717 0.90688 0.35696 0.0
C1166 C 0.01386 0.90999 0.4296 0.0
C1167 C 0.00891 0.89294 0.47004 0.0
C1168 C 0.01623 0.93063 0.46427 0.0
C1169 C 0.02175 0.92425 0.30887 0.0
C1170 C 0.03447 0.94154 0.45756 0.0
C1171 C 0.03672 0.96098 0.48775 0.0
C1172 C 0.02086 0.97022 0.52591 0.0
C1173 C 1.00284 0.95907 0.53521 0.0
C1174 C 1.00053 0.93955 0.50451 0.0
H1175 H 0.01708 0.92071 0.25436 0.0
H1176 H 0.01394 0.93832 0.3262 0.0
H1177 H 0.03834 0.9271 0.30862 0.0
H1178 H 0.04714 0.93495 0.42919 0.0
H1179 H 0.05102 0.96885 0.48137 0.0
H1180 H 0.722 0.03448 0.27765 0.0
H1181 H 0.69052 0.04106 0.34345 0.0
H1182 H 0.68295 0.97669 0.37354 0.0
H1183 H 0.7142 0.97006 0.30746 0.0
H1184 H 0.65168 0.02306 0.29761 0.0
H1185 H 0.67061 1.00297 0.57045 0.0
H1186 H 0.68971 0.01023 0.5077 0.0
H1187 H 0.67873 0.98528 0.50356 0.0
C1188 C 0.71395 0.0218 0.30016 0.0
C1189 C 0.72069 1.00176 0.28771 0.0
C1190 C 0.69587 0.02555 0.33734 0.0
C1191 C 0.68437 1.00939 0.364 0.0
C1192 C 0.69163 0.98945 0.35449 0.0
H1193 H 0.56834 0.99823 0.58488 0.0
H1194 H 0.60198 0.99289 0.53258 0.0
C1195 C 0.70951 0.98568 0.3166 0.0
C1196 C 0.66384 0.01308 0.39524 0.0
H1197 H 0.63607 1.00871 0.5451 0.0
C1198 C 0.64826 0.02006 0.35191 0.0
C1199 C 0.65927 1.00887 0.46573 0.0
C1200 C 0.67544 1.00155 0.515 0.0
C1201 C 0.62821 0.02253 0.37635 0.0
C1202 C 0.62353 0.01862 0.44747 0.0
C1203 C 0.6393 0.01173 0.49083 0.0
C1204 C 0.6026 0.02157 0.47794 0.0
C1205 C 0.6123 0.02862 0.32414 0.0
C1206 C 0.59148 0.0395 0.46622 0.0
C1207 C 0.57185 0.04205 0.49334 0.0
C1208 C 0.5629 0.027 0.53459 0.0
C1209 C 0.57438 0.00961 0.55019 0.0
C1210 C 0.59382 1.00675 0.52119 0.0
H1211 H 0.61624 0.02308 0.27076 0.0
H1212 H 0.59719 0.0226 0.33783 0.0
H1213 H 0.61143 0.04547 0.32242 0.0
H1214 H 0.59804 0.05176 0.43666 0.0
H1215 H 0.56375 0.05603 0.48302 0.0
H1216 H 0.52817 0.71204 0.20854 0.0
H1217 H 0.52232 0.68317 0.28261 0.0
H1218 H 0.53483 0.72019 0.46495 0.0
H1219 H 0.54255 0.74916 0.38976 0.0
H1220 H 0.55174 0.68497 0.4808 0.0
H1221 H 0.47408 0.66925 0.39227 0.0
H1222 H 0.49047 0.66895 0.31776 0.0
H1223 H 0.48724 0.69213 0.36828 0.0
C1224 C 0.53007 0.71417 0.26426 0.0
C1225 C 0.53624 0.73306 0.29266 0.0
C1226 C 0.5262 0.6976 0.30696 0.0
C1227 C 0.52757 0.69946 0.37982 0.0
C1228 C 0.53347 0.71833 0.4089 0.0
H1229 H 0.48384 0.58992 0.58939 0.0
H1230 H 0.48722 0.62506 0.55227 0.0
C1231 C 0.53773 0.73497 0.36581 0.0
C1232 C 0.52374 0.68131 0.42425 0.0
H1233 H 0.49229 0.64038 0.43918 0.0
C1234 C 0.53854 0.6754 0.47264 0.0
C1235 C 0.50628 0.66897 0.41572 0.0
C1236 C 0.48854 0.67533 0.37127 0.0
C1237 C 0.53697 0.65703 0.50926 0.0
C1238 C 0.52051 0.64364 0.49513 0.0
C1239 C 0.50517 0.65019 0.44966 0.0
C1240 C 0.51904 0.62264 0.5245 0.0
C1241 C 0.55306 0.65244 0.56264 0.0
C1242 C 0.53574 0.60928 0.52254 0.0
C1243 C 0.53401 0.58936 0.54688 0.0
C1244 C 0.51528 0.58183 0.57041 0.0
C1245 C 0.49852 0.59509 0.57173 0.0
C1246 C 0.50043 0.61526 0.5499 0.0
H1247 H 0.55802 0.66661 0.58986 0.0
H1248 H 0.54772 0.64159 0.60232 0.0
H1249 H 0.56655 0.6459 0.53574 0.0
H1250 H 0.55014 0.61408 0.50124 0.0
H1251 H 0.54739 0.57985 0.54663 0.0
H1252 H 0.7945 0.50967 0.29089 0.0
H1253 H 0.82491 0.50573 0.36307 0.0
H1254 H 0.8356 0.57035 0.35374 0.0
H1255 H 0.80572 0.57412 0.27939 0.0
H1256 H 0.86866 0.55061 0.31988 0.0
H1257 H 0.83976 0.51537 0.56199 0.0
H1258 H 0.83222 0.50234 0.48365 0.0
H1259 H 0.82316 0.52777 0.50075 0.0
C1260 C 0.80304 0.52309 0.30599 0.0
C1261 C 0.79764 0.54222 0.27982 0.0
C1262 C 0.82043 0.52085 0.34757 0.0
C1263 C 0.83258 0.53778 0.3651 0.0
C1264 C 0.82659 0.55702 0.34134 0.0
H1265 H 0.95086 0.55718 0.56348 0.0
H1266 H 0.91682 0.56123 0.51451 0.0
C1267 C 0.80943 0.5592 0.29904 0.0
C1268 C 0.8525 0.53537 0.40183 0.0
H1269 H 0.87545 0.51596 0.54685 0.0
C1270 C 0.87002 0.5432 0.36988 0.0
C1271 C 0.85453 0.52552 0.46689 0.0
C1272 C 0.8364 0.51743 0.50574 0.0
C1273 C 0.88933 0.54129 0.40029 0.0
C1274 C 0.89134 0.53147 0.46518 0.0
C1275 C 0.87392 0.52354 0.49725 0.0
C1276 C 0.9115 0.529 0.49944 0.0
C1277 C 0.90755 0.54937 0.36169 0.0
C1278 C 0.9197 0.50953 0.50933 0.0
C1279 C 0.93923 0.50717 0.53703 0.0
C1280 C 0.95097 0.52424 0.55596 0.0
C1281 C 0.94243 0.5437 0.54823 0.0
C1282 C 0.92293 0.54605 0.52029 0.0
H1283 H 0.90415 0.55211 0.30584 0.0
H1284 H 0.91228 0.56403 0.38592 0.0
H1285 H 0.92053 0.53863 0.3648 0.0
H1286 H 0.91116 0.49613 0.49409 0.0
H1287 H 0.94522 0.49195 0.54245 0.0
loop_
_geom_bond_atom_site_label_1
_geom_bond_atom_site_label_2
_geom_bond_distance
_geom_bond_site_symmetry_2
_ccdc_geom_bond_type
H0 C3 0.929 . S
H1 C6 0.929 . S
H2 C8 0.930 . S
C3 H0 0.929 . S
C3 C4 1.398 . S
C3 C5 1.396 . S
C4 C3 1.398 . S
C4 C8 1.407 . S
C5 C3 1.396 . S
C5 C6 1.394 . S
C6 H1 0.929 . S
C6 C5 1.394 . S
C6 C7 1.382 . S
C7 C6 1.382 . S
C7 C8 1.392 . S
C7 N9 1.420 . S
C8 H2 0.930 . S
C8 C4 1.407 . S
C8 C7 1.392 . S
N9 C7 1.420 . S
N9 C10 1.244 . S
C10 N9 1.244 . S
H11 C14 0.929 . S
H12 C17 0.929 . S
H13 C19 0.930 . S
C14 H11 0.929 . S
C14 C15 1.398 . S
C14 C16 1.396 . S
C15 C14 1.398 . S
C15 C19 1.407 . S
C16 C14 1.396 . S
C16 C17 1.394 . S
C17 H12 0.929 . S
C17 C16 1.394 . S
C17 C18 1.382 . S
C18 C17 1.382 . S
C18 C19 1.392 . S
C18 N20 1.420 . S
C19 H13 0.930 . S
C19 C15 1.407 . S
C19 C18 1.392 . S
N20 C18 1.420 . S
N20 C21 1.244 . S
C21 N20 1.244 . S
H22 C25 0.929 . S
H23 C28 0.929 . S
H24 C30 0.930 . S
C25 H22 0.929 . S
C25 C26 1.398 . S
C25 C27 1.396 . S
C26 C25 1.398 . S
C26 C30 1.407 . S
C27 C25 1.396 . S
C27 C28 1.394 . S
C28 H23 0.929 . S
C28 C27 1.394 . S
C28 C29 1.382 . S
C29 C28 1.382 . S
C29 C30 1.392 . S
C29 N31 1.420 . S
C30 H24 0.930 . S
C30 C26 1.407 . S
C30 C29 1.392 . S
N31 C29 1.420 . S
N31 C32 1.244 . S
C32 N31 1.244 . S
H33 C36 0.929 . S
H34 C39 0.929 . S
H35 C41 0.930 . S
C36 H33 0.929 . S
C36 C37 1.398 . S
C36 C38 1.396 . S
C37 C36 1.398 . S
C37 C41 1.407 . S
C38 C36 1.396 . S
C38 C39 1.394 . S
C39 H34 0.929 . S
C39 C38 1.394 . S
C39 C40 1.382 . S
C40 C39 1.382 . S
C40 C41 1.392 . S
C40 N42 1.420 . S
C41 H35 0.930 . S
C41 C37 1.407 . S
C41 C40 1.392 . S
N42 C40 1.420 . S
N42 C43 1.244 . S
C43 N42 1.244 . S
H44 C47 0.929 . S
H45 C50 0.929 . S
H46 C52 0.930 . S
C47 H44 0.929 . S
C47 C48 1.398 . S
C47 C49 1.396 1_556 S
C48 C47 1.398 . S
C48 C52 1.407 . S
C49 C47 1.396 1_554 S
C49 C50 1.394 . S
C50 H45 0.929 . S
C50 C49 1.394 . S
C50 C51 1.382 . S
C51 C50 1.382 . S
C51 C52 1.392 1_554 S
C51 N53 1.420 . S
C52 H46 0.930 . S
C52 C48 1.407 . S
C52 C51 1.392 1_556 S
N53 C51 1.420 . S
N53 C54 1.244 . S
C54 N53 1.244 . S
H55 C58 0.929 . S
H56 C61 0.929 . S
H57 C63 0.930 . S
C58 H55 0.929 . S
C58 C59 1.398 . S
C58 C60 1.396 1_556 S
C59 C58 1.398 . S
C59 C63 1.407 . S
C60 C58 1.396 1_554 S
C60 C61 1.394 . S
C61 H56 0.929 . S
C61 C60 1.394 . S
C61 C62 1.382 . S
C62 C61 1.382 . S
C62 C63 1.392 1_554 S
C62 N64 1.420 . S
C63 H57 0.930 . S
C63 C59 1.407 . S
C63 C62 1.392 1_556 S
N64 C62 1.420 . S
N64 C65 1.244 . S
C65 N64 1.244 . S
H66 C69 0.929 . S
H67 C72 0.929 . S
H68 C74 0.930 . S
C69 H66 0.929 . S
C69 C70 1.398 . S
C69 C71 1.396 1_556 S
C70 C69 1.398 . S
C70 C74 1.407 . S
C71 C69 1.396 1_554 S
C71 C72 1.394 . S
C72 H67 0.929 . S
C72 C71 1.394 . S
C72 C73 1.382 . S
C73 C72 1.382 . S
C73 C74 1.392 1_554 S
C73 N75 1.420 . S
C74 H68 0.930 . S
C74 C70 1.407 . S
C74 C73 1.392 1_556 S
N75 C73 1.420 . S
N75 C76 1.244 . S
C76 N75 1.244 . S
H77 C80 0.929 . S
H78 C83 0.929 . S
H79 C85 0.930 . S
C80 H77 0.929 . S
C80 C81 1.398 . S
C80 C82 1.396 1_556 S
C81 C80 1.398 . S
C81 C85 1.407 . S
C82 C80 1.396 1_554 S
C82 C83 1.394 . S
C83 H78 0.929 . S
C83 C82 1.394 . S
C83 C84 1.382 . S
C84 C83 1.382 . S
C84 C85 1.392 1_554 S
C84 N86 1.420 . S
C85 H79 0.930 . S
C85 C81 1.407 . S
C85 C84 1.392 1_556 S
N86 C84 1.420 . S
N86 C87 1.244 . S
C87 N86 1.244 . S
Tb88 N119 2.660 1_565 S
Tb88 N126 2.598 1_565 S
Tb88 O132 2.546 . S
Tb88 O133 2.610 1_455 S
Tb88 O135 2.320 1_455 S
Tb88 O136 2.552 . S
Tb88 O137 2.413 . S
Tb88 O139 2.362 1_565 S
Tb88 O140 2.421 . S
Tb88 C152 2.833 . S
C89 C92 1.411 1_545 S
C89 C93 1.414 . S
C89 N96 1.359 . S
C90 C92 1.450 . S
C90 C94 1.432 . S
C90 C102 1.410 . S
C91 C93 1.444 1_565 S
C91 C94 1.317 . S
C91 H114 0.929 . S
C92 C89 1.411 1_565 S
C92 C90 1.450 . S
C92 N100 1.350 1_565 S
C93 C89 1.414 . S
C93 C91 1.444 1_545 S
C93 C98 1.385 . S
C94 C90 1.432 . S
C94 C91 1.317 . S
C94 H106 0.930 . S
C95 C97 1.392 . S
C95 C98 1.370 . S
C95 H107 0.931 . S
N96 C89 1.359 . S
N96 C97 1.327 . S
N96 Tb99 2.600 . S
C97 C95 1.392 . S
C97 N96 1.327 . S
C97 H104 0.930 . S
C98 C93 1.385 . S
C98 C95 1.370 . S
C98 H117 0.930 . S
Tb99 N96 2.600 . S
Tb99 N100 2.660 . S
Tb99 O133 2.362 1_545 S
Tb99 O134 2.421 . S
Tb99 O138 2.546 . S
Tb99 O139 2.610 1_655 S
Tb99 O141 2.320 1_655 S
Tb99 O142 2.552 1_655 S
Tb99 O143 2.413 . S
Tb99 C163 2.833 . S
N100 C92 1.350 1_545 S
N100 Tb99 2.660 . S
N100 C101 1.305 1_645 S
C101 N100 1.305 1_465 S
C101 C103 1.407 . S
C101 H108 0.930 . S
C102 C90 1.410 . S
C102 C103 1.345 1_655 S
C102 H110 0.930 . S
C103 C101 1.407 . S
C103 C102 1.345 1_455 S
C103 H105 0.930 . S
H104 C97 0.930 . S
H105 C103 0.930 . S
H106 C94 0.930 . S
H107 C95 0.931 . S
H108 C101 0.930 . S
H109 C123 0.930 1_655 S
H110 C102 0.930 . S
H111 C129 0.930 . S
H112 C120 0.930 1_655 S
H113 C127 0.931 . S
H114 C91 0.929 . S
H115 C121 0.930 . S
H116 C154 0.930 . S
H117 C98 0.930 . S
H118 C153 0.929 . S
N119 Tb88 2.660 1_545 S
N119 C120 1.305 . S
N119 C124 1.360 . S
C120 H112 0.930 1_455 S
C120 N119 1.305 . S
C120 C123 1.407 . S
C121 H115 0.930 . S
C121 C122 1.410 . S
C121 C123 1.345 . S
C122 C121 1.410 . S
C122 C124 1.417 . S
C122 C154 1.432 . S
C123 H109 0.930 1_455 S
C123 C120 1.407 . S
C123 C121 1.345 . S
C124 N119 1.360 . S
C124 C122 1.417 . S
C124 C128 1.432 . S
H125 C130 0.930 . S
N126 Tb88 2.598 1_545 S
N126 C128 1.365 . S
N126 C129 1.323 1_545 S
C127 H113 0.931 . S
C127 C129 1.392 . S
C127 C130 1.370 1_565 S
C128 C124 1.432 . S
C128 N126 1.365 . S
C128 C131 1.414 . S
C129 H111 0.930 . S
C129 N126 1.323 1_565 S
C129 C127 1.392 . S
C130 H125 0.930 . S
C130 C127 1.370 1_545 S
C130 C131 1.385 . S
C131 C128 1.414 . S
C131 C130 1.385 . S
C131 C153 1.444 . S
O132 Tb88 2.546 . S
O132 C152 1.251 . S
O133 Tb88 2.610 1_655 S
O133 Tb99 2.362 1_565 S
O133 C144 1.283 . S
O134 Tb99 2.421 . S
O134 C151 1.262 . S
O135 Tb88 2.320 1_655 S
O135 C151 1.260 1_565 S
O136 Tb88 2.552 . S
O136 C144 1.243 1_455 S
O137 Tb88 2.413 . S
O137 C152 1.256 . S
O138 Tb99 2.546 . S
O138 C163 1.251 . S
O139 Tb88 2.362 1_545 S
O139 Tb99 2.610 1_455 S
O139 C155 1.283 . S
O140 Tb88 2.421 . S
O140 C162 1.262 1_565 S
O141 Tb99 2.320 1_455 S
O141 C162 1.260 . S
O142 Tb99 2.552 1_455 S
O142 C155 1.243 . S
O143 Tb99 2.413 . S
O143 C163 1.254 . S
C144 O133 1.283 . S
C144 O136 1.243 1_655 S
C145 C147 1.382 . S
C145 C149 1.393 . S
C145 C152 1.500 . S
C146 C147 1.400 . S
C146 C148 1.384 . S
C147 C145 1.382 . S
C147 C146 1.400 . S
C147 H164 0.930 1_455 S
C148 C146 1.384 . S
C148 C150 1.392 . S
C148 H165 0.931 . S
C149 C145 1.393 . S
C149 C150 1.401 . S
C149 H166 0.930 . S
C150 C148 1.392 . S
C150 C149 1.401 . S
C150 H167 0.930 . S
C151 O134 1.262 . S
C151 O135 1.260 1_545 S
C152 Tb88 2.833 . S
C152 O132 1.251 . S
C152 O137 1.256 . S
C152 C145 1.500 . S
C153 H118 0.929 . S
C153 C131 1.444 . S
C153 C154 1.317 . S
C154 H116 0.930 . S
C154 C122 1.432 . S
C154 C153 1.317 . S
C155 O139 1.283 . S
C155 O142 1.243 . S
C156 C157 1.346 1_655 S
C156 C160 1.393 . S
C156 C163 1.500 . S
C157 C156 1.346 1_455 S
C157 C158 1.398 1_455 S
C157 H168 0.969 . S
C158 C157 1.398 1_655 S
C158 C159 1.398 . S
C159 C158 1.398 . S
C159 C161 1.392 . S
C159 H169 0.931 . S
C160 C156 1.393 . S
C160 C161 1.401 . S
C160 H170 0.930 . S
C161 C159 1.392 . S
C161 C160 1.401 . S
C161 H171 0.930 . S
C162 O140 1.262 1_545 S
C162 O141 1.260 . S
C163 Tb99 2.833 . S
C163 O138 1.251 . S
C163 O143 1.254 . S
C163 C156 1.500 . S
H164 C147 0.930 1_655 S
H165 C148 0.931 . S
H166 C149 0.930 . S
H167 C150 0.930 . S
H168 C157 0.969 . S
H169 C159 0.931 . S
H170 C160 0.930 . S
H171 C161 0.930 . S
Tb172 N203 2.660 . S
Tb172 N210 2.600 . S
Tb172 O216 2.546 . S
Tb172 O217 2.610 1_545 S
Tb172 O219 2.320 1_545 S
Tb172 O220 2.552 . S
Tb172 O221 2.413 . S
Tb172 O223 2.362 . S
Tb172 O224 2.421 . S
Tb172 C236 2.833 . S
C173 C176 1.432 . S
C173 C177 1.414 . S
C173 N180 1.359 . S
C174 C176 1.417 . S
C174 C178 1.432 . S
C174 C186 1.410 . S
C175 C177 1.444 . S
C175 C178 1.317 . S
C175 H198 0.929 . S
C176 C173 1.432 . S
C176 C174 1.417 . S
C176 N184 1.360 . S
C177 C173 1.414 . S
C177 C175 1.444 . S
C177 C182 1.385 . S
C178 C174 1.432 . S
C178 C175 1.317 . S
C178 H190 0.930 . S
C179 C181 1.392 . S
C179 C182 1.370 . S
C179 H191 0.931 . S
N180 C173 1.359 . S
N180 C181 1.327 . S
N180 Tb183 2.600 . S
C181 C179 1.392 . S
C181 N180 1.327 . S
C181 H188 0.930 . S
C182 C177 1.385 . S
C182 C179 1.370 . S
C182 H201 0.930 . S
Tb183 N180 2.600 . S
Tb183 N184 2.660 . S
Tb183 O217 2.362 . S
Tb183 O218 2.421 . S
Tb183 O222 2.546 . S
Tb183 O223 2.610 1_565 S
Tb183 O225 2.320 1_565 S
Tb183 O226 2.552 1_565 S
Tb183 O227 2.413 1_565 S
Tb183 C247 2.833 . S
N184 C176 1.360 . S
N184 Tb183 2.660 . S
N184 C185 1.305 1_565 S
C185 N184 1.305 1_545 S
C185 C187 1.407 . S
C185 H192 0.930 . S
C186 C174 1.410 . S
C186 C187 1.345 1_565 S
C186 H194 0.930 . S
C187 C185 1.407 . S
C187 C186 1.345 1_545 S
C187 H189 0.930 . S
H188 C181 0.930 . S
H189 C187 0.930 . S
H190 C178 0.930 . S
H191 C179 0.931 . S
H192 C185 0.930 . S
H193 C207 0.930 1_565 S
H194 C186 0.930 . S
H195 C213 0.930 . S
H196 C204 0.930 1_565 S
H197 C211 0.931 . S
H198 C175 0.929 . S
H199 C205 0.930 . S
H200 C238 0.930 . S
H201 C182 0.930 . S
H202 C237 0.929 . S
N203 Tb172 2.660 . S
N203 C204 1.305 . S
N203 C208 1.360 . S
C204 H196 0.930 1_545 S
C204 N203 1.305 . S
C204 C207 1.407 . S
C205 H199 0.930 . S
C205 C206 1.410 . S
C205 C207 1.345 . S
C206 C205 1.410 . S
C206 C208 1.417 . S
C206 C238 1.432 . S
C207 H193 0.930 1_545 S
C207 C204 1.407 . S
C207 C205 1.345 . S
C208 N203 1.360 . S
C208 C206 1.417 . S
C208 C212 1.432 . S
H209 C214 0.930 . S
N210 Tb172 2.600 . S
N210 C212 1.359 . S
N210 C213 1.327 . S
C211 H197 0.931 . S
C211 C213 1.392 . S
C211 C214 1.370 . S
C212 C208 1.432 . S
C212 N210 1.359 . S
C212 C215 1.414 . S
C213 H195 0.930 . S
C213 N210 1.327 . S
C213 C211 1.392 . S
C214 H209 0.930 . S
C214 C211 1.370 . S
C214 C215 1.385 . S
C215 C212 1.414 . S
C215 C214 1.385 . S
C215 C237 1.444 . S
O216 Tb172 2.546 . S
O216 C236 1.251 . S
O217 Tb172 2.610 1_565 S
O217 Tb183 2.362 . S
O217 C228 1.283 1_565 S
O218 Tb183 2.421 . S
O218 C235 1.262 . S
O219 Tb172 2.320 1_565 S
O219 C235 1.260 . S
O220 Tb172 2.552 . S
O220 C228 1.251 . S
O221 Tb172 2.413 . S
O221 C236 1.256 . S
O222 Tb183 2.546 . S
O222 C247 1.251 . S
O223 Tb172 2.362 . S
O223 Tb183 2.610 1_545 S
O223 C239 1.283 . S
O224 Tb172 2.421 . S
O224 C246 1.262 . S
O225 Tb183 2.320 1_545 S
O225 C246 1.260 . S
O226 Tb183 2.552 1_545 S
O226 C239 1.243 . S
O227 Tb183 2.413 1_545 S
O227 C247 1.256 1_545 S
C228 O217 1.283 1_545 S
C228 O220 1.251 . S
C229 C231 1.382 . S
C229 C233 1.393 . S
C229 C236 1.500 . S
C230 C231 1.400 . S
C230 C232 1.384 . S
C231 C229 1.382 . S
C231 C230 1.400 . S
C231 H248 0.930 . S
C232 C230 1.384 . S
C232 C234 1.392 . S
C232 H249 0.931 . S
C233 C229 1.393 . S
C233 C234 1.401 . S
C233 H250 0.930 . S
C234 C232 1.392 . S
C234 C233 1.401 . S
C234 H251 0.930 . S
C235 O218 1.262 . S
C235 O219 1.260 . S
C236 Tb172 2.833 . S
C236 O216 1.251 . S
C236 O221 1.256 . S
C236 C229 1.500 . S
C237 H202 0.929 . S
C237 C215 1.444 . S
C237 C238 1.317 . S
C238 H200 0.930 . S
C238 C206 1.432 . S
C238 C237 1.317 . S
C239 O223 1.283 . S
C239 O226 1.243 . S
C240 C241 1.382 1_565 S
C240 C244 1.393 . S
C240 C247 1.500 . S
C241 C240 1.382 1_545 S
C241 C242 1.405 . S
C241 H252 0.930 . S
C242 C241 1.405 . S
C242 C243 1.335 1_545 S
C243 C242 1.335 1_565 S
C243 C245 1.392 . S
C243 H253 0.931 . S
C244 C240 1.393 . S
C244 C245 1.401 . S
C244 H254 0.930 . S
C245 C243 1.392 . S
C245 C244 1.401 . S
C245 H255 0.930 . S
C246 O224 1.262 . S
C246 O225 1.260 . S
C247 Tb183 2.833 . S
C247 O222 1.251 . S
C247 O227 1.256 1_565 S
C247 C240 1.500 . S
H248 C231 0.930 . S
H249 C232 0.931 . S
H250 C233 0.930 . S
H251 C234 0.930 . S
H252 C241 0.930 . S
H253 C243 0.931 . S
H254 C244 0.930 . S
H255 C245 0.930 . S
Tb256 N287 2.660 . S
Tb256 N294 2.600 . S
Tb256 O300 2.546 . S
Tb256 O301 2.610 . S
Tb256 O303 2.320 . S
Tb256 O304 2.552 . S
Tb256 O305 2.413 . S
Tb256 O307 2.362 . S
Tb256 O308 2.421 . S
Tb256 C320 2.833 . S
C257 C260 1.432 . S
C257 C261 1.414 . S
C257 N264 1.359 . S
C258 C260 1.417 . S
C258 C262 1.432 . S
C258 C270 1.410 . S
C259 C261 1.444 . S
C259 C262 1.317 . S
C259 H282 0.929 . S
C260 C257 1.432 . S
C260 C258 1.417 . S
C260 N268 1.360 . S
C261 C257 1.414 . S
C261 C259 1.444 . S
C261 C266 1.385 . S
C262 C258 1.432 . S
C262 C259 1.317 . S
C262 H274 0.930 . S
C263 C265 1.392 . S
C263 C266 1.370 . S
C263 H275 0.931 . S
N264 C257 1.359 . S
N264 C265 1.327 . S
N264 Tb267 2.600 . S
C265 C263 1.392 . S
C265 N264 1.327 . S
C265 H272 0.930 . S
C266 C261 1.385 . S
C266 C263 1.370 . S
C266 H285 0.930 . S
Tb267 N264 2.600 . S
Tb267 N268 2.660 . S
Tb267 O301 2.362 . S
Tb267 O302 2.421 . S
Tb267 O306 2.546 . S
Tb267 O307 2.610 . S
Tb267 O309 2.320 . S
Tb267 O310 2.552 . S
Tb267 O311 2.413 . S
Tb267 C331 2.833 . S
N268 C260 1.360 . S
N268 Tb267 2.660 . S
N268 C269 1.305 . S
C269 N268 1.305 . S
C269 C271 1.407 . S
C269 H276 0.930 . S
C270 C258 1.410 . S
C270 C271 1.345 . S
C270 H278 0.930 . S
C271 C269 1.407 . S
C271 C270 1.345 . S
C271 H273 0.930 . S
H272 C265 0.930 . S
H273 C271 0.930 . S
H274 C262 0.930 . S
H275 C263 0.931 . S
H276 C269 0.930 . S
H277 C291 0.930 . S
H278 C270 0.930 . S
H279 C297 0.930 . S
H280 C288 0.930 . S
H281 C295 0.931 . S
H282 C259 0.929 . S
H283 C289 0.930 . S
H284 C322 0.930 . S
H285 C266 0.930 . S
H286 C321 0.929 . S
N287 Tb256 2.660 . S
N287 C288 1.305 . S
N287 C292 1.360 . S
C288 H280 0.930 . S
C288 N287 1.305 . S
C288 C291 1.407 . S
C289 H283 0.930 . S
C289 C290 1.410 . S
C289 C291 1.345 . S
C290 C289 1.410 . S
C290 C292 1.417 . S
C290 C322 1.432 . S
C291 H277 0.930 . S
C291 C288 1.407 . S
C291 C289 1.345 . S
C292 N287 1.360 . S
C292 C290 1.417 . S
C292 C296 1.432 . S
H293 C298 0.930 . S
N294 Tb256 2.600 . S
N294 C296 1.359 . S
N294 C297 1.327 . S
C295 H281 0.931 . S
C295 C297 1.392 . S
C295 C298 1.370 . S
C296 C292 1.432 . S
C296 N294 1.359 . S
C296 C299 1.414 . S
C297 H279 0.930 . S
C297 N294 1.327 . S
C297 C295 1.392 . S
C298 H293 0.930 . S
C298 C295 1.370 . S
C298 C299 1.385 . S
C299 C296 1.414 . S
C299 C298 1.385 . S
C299 C321 1.444 . S
O300 Tb256 2.546 . S
O300 C320 1.251 . S
O301 Tb256 2.610 . S
O301 Tb267 2.362 . S
O301 C312 1.283 . S
O302 Tb267 2.421 . S
O302 C319 1.262 . S
O303 Tb256 2.320 . S
O303 C319 1.260 . S
O304 Tb256 2.552 . S
O304 C312 1.243 . S
O305 Tb256 2.413 . S
O305 C320 1.256 . S
O306 Tb267 2.546 . S
O306 C331 1.251 . S
O307 Tb256 2.362 . S
O307 Tb267 2.610 . S
O307 C323 1.283 . S
O308 Tb256 2.421 . S
O308 C330 1.262 . S
O309 Tb267 2.320 . S
O309 C330 1.260 . S
O310 Tb267 2.552 . S
O310 C323 1.243 . S
O311 Tb267 2.413 . S
O311 C331 1.256 . S
C312 O301 1.283 . S
C312 O304 1.243 . S
C313 C315 1.382 . S
C313 C317 1.393 . S
C313 C320 1.500 . S
C314 C315 1.400 . S
C314 C316 1.384 . S
C315 C313 1.382 . S
C315 C314 1.400 . S
C315 H332 0.930 . S
C316 C314 1.384 . S
C316 C318 1.392 . S
C316 H333 0.931 . S
C317 C313 1.393 . S
C317 C318 1.401 . S
C317 H334 0.930 . S
C318 C316 1.392 . S
C318 C317 1.401 . S
C318 H335 0.930 . S
C319 O302 1.262 . S
C319 O303 1.260 . S
C320 Tb256 2.833 . S
C320 O300 1.251 . S
C320 O305 1.256 . S
C320 C313 1.500 . S
C321 H286 0.929 . S
C321 C299 1.444 . S
C321 C322 1.317 . S
C322 H284 0.930 . S
C322 C290 1.432 . S
C322 C321 1.317 . S
C323 O307 1.283 . S
C323 O310 1.243 . S
C324 C325 1.382 . S
C324 C328 1.393 . S
C324 C331 1.500 . S
C325 C324 1.382 . S
C325 C326 1.400 . S
C325 H336 0.930 . S
C326 C325 1.400 . S
C326 C327 1.384 . S
C327 C326 1.384 . S
C327 C329 1.392 . S
C327 H337 0.931 . S
C328 C324 1.393 . S
C328 C329 1.401 . S
C328 H338 0.930 . S
C329 C327 1.392 . S
C329 C328 1.401 . S
C329 H339 0.930 1_556 S
C330 O308 1.262 . S
C330 O309 1.260 . S
C331 Tb267 2.833 . S
C331 O306 1.251 . S
C331 O311 1.256 . S
C331 C324 1.500 . S
H332 C315 0.930 . S
H333 C316 0.931 . S
H334 C317 0.930 . S
H335 C318 0.930 . S
H336 C325 0.930 . S
H337 C327 0.931 . S
H338 C328 0.930 . S
H339 C329 0.930 1_554 S
Tb340 N371 2.660 . S
Tb340 N378 2.600 . S
Tb340 O384 2.546 . S
Tb340 O385 2.610 . S
Tb340 O387 2.320 . S
Tb340 O388 2.552 . S
Tb340 O389 2.413 . S
Tb340 O391 2.362 . S
Tb340 O392 2.421 1_455 S
Tb340 C404 2.833 . S
C341 C344 1.432 . S
C341 C345 1.414 . S
C341 N348 1.359 . S
C342 C344 1.417 . S
C342 C346 1.432 . S
C342 C354 1.410 . S
C343 C345 1.444 . S
C343 C346 1.317 . S
C343 H366 0.929 . S
C344 C341 1.432 . S
C344 C342 1.417 . S
C344 N352 1.360 . S
C345 C341 1.414 . S
C345 C343 1.444 . S
C345 C350 1.385 1_655 S
C346 C342 1.432 . S
C346 C343 1.317 . S
C346 H358 0.930 . S
C347 C349 1.392 . S
C347 C350 1.370 . S
C347 H359 0.931 . S
N348 C341 1.359 . S
N348 C349 1.327 1_655 S
N348 Tb351 2.600 . S
C349 C347 1.392 . S
C349 N348 1.327 1_455 S
C349 H356 0.930 . S
C350 C345 1.385 1_455 S
C350 C347 1.370 . S
C350 H369 0.930 . S
Tb351 N348 2.600 . S
Tb351 N352 2.660 . S
Tb351 O385 2.362 1_655 S
Tb351 O386 2.421 1_655 S
Tb351 O390 2.546 . S
Tb351 O391 2.610 1_655 S
Tb351 O393 2.320 . S
Tb351 O394 2.552 . S
Tb351 O395 2.413 . S
Tb351 C415 2.833 . S
N352 C344 1.360 . S
N352 Tb351 2.660 . S
N352 C353 1.305 . S
C353 N352 1.305 . S
C353 C355 1.407 . S
C353 H360 0.930 . S
C354 C342 1.410 . S
C354 C355 1.345 . S
C354 H362 0.930 . S
C355 C353 1.407 . S
C355 C354 1.345 . S
C355 H357 0.930 . S
H356 C349 0.930 . S
H357 C355 0.930 . S
H358 C346 0.930 . S
H359 C347 0.931 . S
H360 C353 0.930 . S
H361 C375 0.930 . S
H362 C354 0.930 . S
H363 C381 0.930 1_655 S
H364 C372 0.930 . S
H365 C379 0.931 1_655 S
H366 C343 0.929 . S
H367 C373 0.930 . S
H368 C406 0.930 . S
H369 C350 0.930 . S
H370 C405 0.929 . S
N371 Tb340 2.660 . S
N371 C372 1.305 . S
N371 C376 1.360 . S
C372 H364 0.930 . S
C372 N371 1.305 . S
C372 C375 1.407 . S
C373 H367 0.930 . S
C373 C374 1.410 . S
C373 C375 1.345 . S
C374 C373 1.410 . S
C374 C376 1.417 . S
C374 C406 1.432 . S
C375 H361 0.930 . S
C375 C372 1.407 . S
C375 C373 1.345 . S
C376 N371 1.360 . S
C376 C374 1.417 . S
C376 C380 1.432 . S
H377 C382 0.930 . S
N378 Tb340 2.600 . S
N378 C380 1.359 . S
N378 C381 1.327 . S
C379 H365 0.931 1_455 S
C379 C381 1.392 . S
C379 C382 1.370 . S
C380 C376 1.432 . S
C380 N378 1.359 . S
C380 C383 1.414 . S
C381 H363 0.930 1_455 S
C381 N378 1.327 . S
C381 C379 1.392 . S
C382 H377 0.930 . S
C382 C379 1.370 . S
C382 C383 1.385 . S
C383 C380 1.414 . S
C383 C382 1.385 . S
C383 C405 1.444 . S
O384 Tb340 2.546 . S
O384 C404 1.251 . S
O385 Tb340 2.610 . S
O385 Tb351 2.362 1_455 S
O385 C396 1.283 . S
O386 Tb351 2.421 1_455 S
O386 C403 1.262 . S
O387 Tb340 2.320 . S
O387 C403 1.260 . S
O388 Tb340 2.552 . S
O388 C396 1.243 . S
O389 Tb340 2.413 . S
O389 C404 1.256 . S
O390 Tb351 2.546 . S
O390 C415 1.251 . S
O391 Tb340 2.362 . S
O391 Tb351 2.610 1_455 S
O391 C407 1.283 1_455 S
O392 Tb340 2.421 1_655 S
O392 C414 1.262 . S
O393 Tb351 2.320 . S
O393 C414 1.260 . S
O394 Tb351 2.552 . S
O394 C407 1.243 . S
O395 Tb351 2.413 . S
O395 C415 1.256 . S
C396 O385 1.283 . S
C396 O388 1.243 . S
C397 C399 1.382 . S
C397 C401 1.393 . S
C397 C404 1.500 . S
C398 C399 1.400 . S
C398 C400 1.384 . S
C399 C397 1.382 . S
C399 C398 1.400 . S
C399 H416 0.930 . S
C400 C398 1.384 . S
C400 C402 1.392 . S
C400 H417 0.931 . S
C401 C397 1.393 . S
C401 C402 1.401 . S
C401 H418 0.930 . S
C402 C400 1.392 . S
C402 C401 1.401 . S
C402 H419 0.930 . S
C403 O386 1.262 . S
C403 O387 1.260 . S
C404 Tb340 2.833 . S
C404 O384 1.251 . S
C404 O389 1.256 . S
C404 C397 1.500 . S
C405 H370 0.929 . S
C405 C383 1.444 . S
C405 C406 1.317 . S
C406 H368 0.930 . S
C406 C374 1.432 . S
C406 C405 1.317 . S
C407 O391 1.283 1_655 S
C407 O394 1.243 . S
C408 C409 1.382 . S
C408 C412 1.393 . S
C408 C415 1.500 . S
C409 C408 1.382 . S
C409 C410 1.400 . S
C409 H420 0.930 . S
C410 C409 1.400 . S
C410 C411 1.384 . S
C411 C410 1.384 . S
C411 C413 1.392 . S
C411 H421 0.931 . S
C412 C408 1.393 . S
C412 C413 1.401 . S
C412 H422 0.930 . S
C413 C411 1.392 . S
C413 C412 1.401 . S
C413 H423 0.930 1_556 S
C414 O392 1.262 . S
C414 O393 1.260 . S
C415 Tb351 2.833 . S
C415 O390 1.251 . S
C415 O395 1.256 . S
C415 C408 1.500 . S
H416 C399 0.930 . S
H417 C400 0.931 . S
H418 C401 0.930 . S
H419 C402 0.930 . S
H420 C409 0.930 . S
H421 C411 0.931 . S
H422 C412 0.930 . S
H423 C413 0.930 1_554 S
H424 C432 0.929 . S
H425 C434 0.930 . S
H426 C436 0.930 . S
H427 C439 0.929 . S
H428 C442 0.930 . S
H429 C444 0.960 . S
H430 C444 0.960 . S
H431 C444 0.960 . S
C432 H424 0.929 . S
C432 C433 1.377 . S
C432 C434 1.384 . S
C433 C432 1.377 . S
C433 C439 1.390 . S
C434 H425 0.930 . S
C434 C432 1.384 . S
C434 C435 1.372 . S
C435 C434 1.372 . S
C435 C436 1.400 . S
C435 C440 1.490 . S
C436 H426 0.930 . S
C436 C435 1.400 . S
C436 C439 1.386 . S
H437 C453 0.930 . S
H438 C454 0.931 . S
C439 H427 0.929 . S
C439 C433 1.390 . S
C439 C436 1.386 . S
C440 C435 1.490 . S
C440 C442 1.395 . S
C440 C443 1.403 . S
H441 C447 0.930 . S
C442 H428 0.930 . S
C442 C440 1.395 . S
C442 C445 1.403 . S
C443 C440 1.403 . S
C443 C444 1.524 . S
C443 C447 1.400 . S
C444 H429 0.960 . S
C444 H430 0.960 . S
C444 H431 0.960 . S
C444 C443 1.524 . S
C445 C442 1.403 . S
C445 C446 1.392 . S
C445 C449 1.495 1_545 S
C446 C445 1.392 . S
C446 C447 1.385 . S
C446 C448 1.478 . S
C447 H441 0.930 . S
C447 C443 1.400 . S
C447 C446 1.385 . S
C448 C446 1.478 . S
C448 C450 1.381 . S
C448 C454 1.383 . S
C449 C445 1.495 1_565 S
C449 H455 0.959 . S
C449 H456 0.961 . S
C449 H457 0.960 . S
C450 C448 1.381 . S
C450 C451 1.394 . S
C450 H458 0.930 . S
C451 C450 1.394 . S
C451 C452 1.383 . S
C451 H459 0.929 . S
C452 C451 1.383 . S
C452 C453 1.377 . S
C453 H437 0.930 . S
C453 C452 1.377 . S
C453 C454 1.379 . S
C454 H438 0.931 . S
C454 C448 1.383 . S
C454 C453 1.379 . S
H455 C449 0.959 . S
H456 C449 0.961 . S
H457 C449 0.960 . S
H458 C450 0.930 . S
H459 C451 0.929 . S
H460 C468 0.929 . S
H461 C470 0.930 . S
H462 C472 0.930 . S
H463 C475 0.929 . S
H464 C478 0.930 . S
H465 C480 0.960 . S
H466 C480 0.960 . S
H467 C480 0.960 . S
C468 H460 0.929 . S
C468 C469 1.377 . S
C468 C470 1.384 . S
C469 C468 1.377 . S
C469 C475 1.390 . S
C470 H461 0.930 . S
C470 C468 1.384 . S
C470 C471 1.372 . S
C471 C470 1.372 . S
C471 C472 1.400 . S
C471 C476 1.490 . S
C472 H462 0.930 . S
C472 C471 1.400 . S
C472 C475 1.386 . S
H473 C489 0.930 . S
H474 C490 0.931 . S
C475 H463 0.929 . S
C475 C469 1.390 . S
C475 C472 1.386 . S
C476 C471 1.490 . S
C476 C478 1.395 . S
C476 C479 1.403 . S
H477 C483 0.930 . S
C478 H464 0.930 . S
C478 C476 1.395 . S
C478 C481 1.403 . S
C479 C476 1.403 . S
C479 C480 1.524 . S
C479 C483 1.400 . S
C480 H465 0.960 . S
C480 H466 0.960 . S
C480 H467 0.960 . S
C480 C479 1.524 . S
C481 C478 1.403 . S
C481 C482 1.392 . S
C481 C485 1.495 . S
C482 C481 1.392 . S
C482 C483 1.385 . S
C482 C484 1.478 . S
C483 H477 0.930 . S
C483 C479 1.400 . S
C483 C482 1.385 . S
C484 C482 1.478 . S
C484 C486 1.381 . S
C484 C490 1.383 . S
C485 C481 1.495 . S
C485 H491 0.959 . S
C485 H492 0.961 . S
C485 H493 0.960 . S
C486 C484 1.381 . S
C486 C487 1.394 . S
C486 H494 0.930 . S
C487 C486 1.394 . S
C487 C488 1.383 . S
C487 H495 0.929 . S
C488 C487 1.383 . S
C488 C489 1.377 . S
C489 H473 0.930 . S
C489 C488 1.377 . S
C489 C490 1.379 . S
C490 H474 0.931 . S
C490 C484 1.383 . S
C490 C489 1.379 . S
H491 C485 0.959 . S
H492 C485 0.961 . S
H493 C485 0.960 . S
H494 C486 0.930 . S
H495 C487 0.929 . S
H496 C504 0.929 . S
H497 C506 0.930 . S
H498 C508 0.930 . S
H499 C511 0.929 . S
H500 C514 0.930 . S
H501 C516 0.960 . S
H502 C516 0.960 . S
H503 C516 0.960 . S
C504 H496 0.929 . S
C504 C505 1.377 . S
C504 C506 1.384 . S
C505 C504 1.377 . S
C505 C511 1.390 . S
C506 H497 0.930 . S
C506 C504 1.384 . S
C506 C507 1.372 . S
C507 C506 1.372 . S
C507 C508 1.400 . S
C507 C512 1.490 . S
C508 H498 0.930 . S
C508 C507 1.400 . S
C508 C511 1.386 . S
H509 C525 0.930 . S
H510 C526 0.931 . S
C511 H499 0.929 . S
C511 C505 1.390 . S
C511 C508 1.386 . S
C512 C507 1.490 . S
C512 C514 1.395 . S
C512 C515 1.403 . S
H513 C519 0.930 . S
C514 H500 0.930 . S
C514 C512 1.395 . S
C514 C517 1.403 . S
C515 C512 1.403 . S
C515 C516 1.524 . S
C515 C519 1.400 . S
C516 H501 0.960 . S
C516 H502 0.960 . S
C516 H503 0.960 . S
C516 C515 1.524 . S
C517 C514 1.403 . S
C517 C518 1.392 . S
C517 C521 1.495 . S
C518 C517 1.392 . S
C518 C519 1.385 . S
C518 C520 1.478 . S
C519 H513 0.930 . S
C519 C515 1.400 . S
C519 C518 1.385 . S
C520 C518 1.478 . S
C520 C522 1.381 . S
C520 C526 1.383 . S
C521 C517 1.495 . S
C521 H527 0.959 . S
C521 H528 0.961 . S
C521 H529 0.960 . S
C522 C520 1.381 . S
C522 C523 1.394 . S
C522 H530 0.930 . S
C523 C522 1.394 . S
C523 C524 1.383 . S
C523 H531 0.929 . S
C524 C523 1.383 . S
C524 C525 1.377 . S
C525 H509 0.930 . S
C525 C524 1.377 . S
C525 C526 1.379 . S
C526 H510 0.931 . S
C526 C520 1.383 . S
C526 C525 1.379 . S
H527 C521 0.959 . S
H528 C521 0.961 . S
H529 C521 0.960 . S
H530 C522 0.930 . S
H531 C523 0.929 . S
H532 C540 0.929 . S
H533 C542 0.930 . S
H534 C544 0.930 . S
H535 C547 0.929 . S
H536 C550 0.930 . S
H537 C552 0.960 1_655 S
H538 C552 0.960 . S
H539 C552 0.960 . S
C540 H532 0.929 . S
C540 C541 1.377 . S
C540 C542 1.384 . S
C541 C540 1.377 . S
C541 C547 1.390 . S
C542 H533 0.930 . S
C542 C540 1.384 . S
C542 C543 1.372 . S
C543 C542 1.372 . S
C543 C544 1.400 . S
C543 C548 1.490 . S
C544 H534 0.930 . S
C544 C543 1.400 . S
C544 C547 1.386 . S
H545 C561 0.930 . S
H546 C562 0.931 . S
C547 H535 0.929 . S
C547 C541 1.390 . S
C547 C544 1.386 . S
C548 C543 1.490 . S
C548 C550 1.395 . S
C548 C551 1.403 . S
H549 C555 0.930 . S
C550 H536 0.930 . S
C550 C548 1.395 . S
C550 C553 1.403 . S
C551 C548 1.403 . S
C551 C552 1.524 . S
C551 C555 1.400 . S
C552 H537 0.960 1_455 S
C552 H538 0.960 . S
C552 H539 0.960 . S
C552 C551 1.524 . S
C553 C550 1.403 . S
C553 C554 1.392 . S
C553 C557 1.495 . S
C554 C553 1.392 . S
C554 C555 1.385 . S
C554 C556 1.478 . S
C555 H549 0.930 . S
C555 C551 1.400 . S
C555 C554 1.385 . S
C556 C554 1.478 . S
C556 C558 1.381 . S
C556 C562 1.383 . S
C557 C553 1.495 . S
C557 H563 0.959 . S
C557 H564 0.961 . S
C557 H565 0.960 . S
C558 C556 1.381 . S
C558 C559 1.394 . S
C558 H566 0.930 . S
C559 C558 1.394 . S
C559 C560 1.383 . S
C559 H567 0.929 . S
C560 C559 1.383 . S
C560 C561 1.377 . S
C561 H545 0.930 . S
C561 C560 1.377 . S
C561 C562 1.379 . S
C562 H546 0.931 . S
C562 C556 1.383 . S
C562 C561 1.379 . S
H563 C557 0.959 . S
H564 C557 0.961 . S
H565 C557 0.960 . S
H566 C558 0.930 . S
H567 C559 0.929 . S
H568 C576 0.929 . S
H569 C578 0.930 . S
H570 C580 0.930 1_556 S
H571 C583 0.929 . S
H572 C586 0.930 . S
H573 C588 0.960 . S
H574 C588 0.960 . S
H575 C588 0.960 . S
C576 H568 0.929 . S
C576 C577 1.377 . S
C576 C578 1.384 . S
C577 C576 1.377 . S
C577 C583 1.390 . S
C578 H569 0.930 . S
C578 C576 1.384 . S
C578 C579 1.372 . S
C579 C578 1.372 . S
C579 C580 1.400 . S
C579 C584 1.490 1_554 S
C580 H570 0.930 1_554 S
C580 C579 1.400 . S
C580 C583 1.386 . S
H581 C597 0.930 . S
H582 C598 0.931 . S
C583 H571 0.929 . S
C583 C577 1.390 . S
C583 C580 1.386 . S
C584 C579 1.490 1_556 S
C584 C586 1.395 1_556 S
C584 C587 1.403 . S
H585 C591 0.930 . S
C586 H572 0.930 . S
C586 C584 1.395 1_554 S
C586 C589 1.403 1_554 S
C587 C584 1.403 . S
C587 C588 1.524 . S
C587 C591 1.400 . S
C588 H573 0.960 . S
C588 H574 0.960 . S
C588 H575 0.960 . S
C588 C587 1.524 . S
C589 C586 1.403 1_556 S
C589 C590 1.392 . S
C589 C593 1.495 . S
C590 C589 1.392 . S
C590 C591 1.385 . S
C590 C592 1.478 . S
C591 H585 0.930 . S
C591 C587 1.400 . S
C591 C590 1.385 . S
C592 C590 1.478 . S
C592 C594 1.381 1_565 S
C592 C598 1.383 . S
C593 C589 1.495 . S
C593 H599 0.959 1_556 S
C593 H600 0.961 . S
C593 H601 0.960 . S
C594 C592 1.381 1_545 S
C594 C595 1.394 . S
C594 H602 0.930 . S
C595 C594 1.394 . S
C595 C596 1.383 1_545 S
C595 H603 0.929 . S
C596 C595 1.383 1_565 S
C596 C597 1.377 . S
C597 H581 0.930 . S
C597 C596 1.377 . S
C597 C598 1.379 . S
C598 H582 0.931 . S
C598 C592 1.383 . S
C598 C597 1.379 . S
H599 C593 0.959 1_554 S
H600 C593 0.961 . S
H601 C593 0.960 . S
H602 C594 0.930 . S
H603 C595 0.929 . S
H604 C612 0.929 . S
H605 C614 0.930 . S
H606 C616 0.930 1_556 S
H607 C619 0.929 . S
H608 C622 0.930 . S
H609 C624 0.960 . S
H610 C624 0.960 1_554 S
H611 C624 0.960 . S
C612 H604 0.929 . S
C612 C613 1.377 . S
C612 C614 1.384 . S
C613 C612 1.377 . S
C613 C619 1.390 . S
C614 H605 0.930 . S
C614 C612 1.384 . S
C614 C615 1.372 . S
C615 C614 1.372 . S
C615 C616 1.400 . S
C615 C620 1.490 1_554 S
C616 H606 0.930 1_554 S
C616 C615 1.400 . S
C616 C619 1.386 . S
H617 C633 0.930 . S
H618 C634 0.931 . S
C619 H607 0.929 . S
C619 C613 1.390 . S
C619 C616 1.386 . S
C620 C615 1.490 1_556 S
C620 C622 1.395 . S
C620 C623 1.403 . S
H621 C627 0.930 . S
C622 H608 0.930 . S
C622 C620 1.395 . S
C622 C625 1.403 . S
C623 C620 1.403 . S
C623 C624 1.524 . S
C623 C627 1.400 . S
C624 H609 0.960 . S
C624 H610 0.960 1_556 S
C624 H611 0.960 . S
C624 C623 1.524 . S
C625 C622 1.403 . S
C625 C626 1.392 . S
C625 C629 1.495 . S
C626 C625 1.392 . S
C626 C627 1.385 . S
C626 C628 1.478 . S
C627 H621 0.930 . S
C627 C623 1.400 . S
C627 C626 1.385 . S
C628 C626 1.478 . S
C628 C630 1.381 . S
C628 C634 1.383 . S
C629 C625 1.495 . S
C629 H635 0.959 . S
C629 H636 0.961 . S
C629 H637 0.960 . S
C630 C628 1.381 . S
C630 C631 1.394 . S
C630 H638 0.930 . S
C631 C630 1.394 . S
C631 C632 1.383 . S
C631 H639 0.929 . S
C632 C631 1.383 . S
C632 C633 1.377 . S
C633 H617 0.930 . S
C633 C632 1.377 . S
C633 C634 1.379 . S
C634 H618 0.931 . S
C634 C628 1.383 . S
C634 C633 1.379 . S
H635 C629 0.959 . S
H636 C629 0.961 . S
H637 C629 0.960 . S
H638 C630 0.930 . S
H639 C631 0.929 . S
H640 C648 0.929 . S
H641 C650 0.930 . S
H642 C652 0.930 1_556 S
H643 C655 0.929 . S
H644 C658 0.930 . S
H645 C660 0.960 . S
H646 C660 0.960 1_554 S
H647 C660 0.960 . S
C648 H640 0.929 . S
C648 C649 1.377 . S
C648 C650 1.384 . S
C649 C648 1.377 . S
C649 C655 1.390 . S
C650 H641 0.930 . S
C650 C648 1.384 . S
C650 C651 1.372 . S
C651 C650 1.372 . S
C651 C652 1.400 . S
C651 C656 1.490 1_554 S
C652 H642 0.930 1_554 S
C652 C651 1.400 . S
C652 C655 1.386 . S
H653 C669 0.930 . S
H654 C670 0.931 . S
C655 H643 0.929 . S
C655 C649 1.390 . S
C655 C652 1.386 . S
C656 C651 1.490 1_556 S
C656 C658 1.395 . S
C656 C659 1.403 . S
H657 C663 0.930 . S
C658 H644 0.930 . S
C658 C656 1.395 . S
C658 C661 1.403 . S
C659 C656 1.403 . S
C659 C660 1.524 . S
C659 C663 1.400 . S
C660 H645 0.960 . S
C660 H646 0.960 1_556 S
C660 H647 0.960 . S
C660 C659 1.524 . S
C661 C658 1.403 . S
C661 C662 1.392 . S
C661 C665 1.495 . S
C662 C661 1.392 . S
C662 C663 1.385 . S
C662 C664 1.478 . S
C663 H657 0.930 . S
C663 C659 1.400 . S
C663 C662 1.385 . S
C664 C662 1.478 . S
C664 C666 1.381 . S
C664 C670 1.383 . S
C665 C661 1.495 . S
C665 H671 0.959 . S
C665 H672 0.961 . S
C665 H673 0.960 . S
C666 C664 1.381 . S
C666 C667 1.394 . S
C666 H674 0.930 . S
C667 C666 1.394 . S
C667 C668 1.383 . S
C667 H675 0.929 . S
C668 C667 1.383 . S
C668 C669 1.377 . S
C669 H653 0.930 . S
C669 C668 1.377 . S
C669 C670 1.379 . S
C670 H654 0.931 . S
C670 C664 1.383 . S
C670 C669 1.379 . S
H671 C665 0.959 . S
H672 C665 0.961 . S
H673 C665 0.960 . S
H674 C666 0.930 . S
H675 C667 0.929 . S
H676 C684 0.929 . S
H677 C686 0.930 . S
H678 C688 0.930 1_556 S
H679 C691 0.929 . S
H680 C694 0.930 . S
H681 C696 0.960 . S
H682 C696 0.960 1_554 S
H683 C696 0.961 . S
C684 H676 0.929 . S
C684 C685 1.377 . S
C684 C686 1.384 . S
C685 C684 1.377 . S
C685 C691 1.390 . S
C686 H677 0.930 . S
C686 C684 1.384 . S
C686 C687 1.372 . S
C687 C686 1.372 . S
C687 C688 1.400 . S
C687 C692 1.490 1_554 S
C688 H678 0.930 1_554 S
C688 C687 1.400 . S
C688 C691 1.386 . S
H689 C705 0.930 . S
H690 C706 0.931 . S
C691 H679 0.929 . S
C691 C685 1.390 . S
C691 C688 1.386 . S
C692 C687 1.490 1_556 S
C692 C694 1.395 . S
C692 C695 1.403 . S
H693 C699 0.904 1_455 S
C694 H680 0.930 . S
C694 C692 1.395 . S
C694 C697 1.403 . S
C695 C692 1.403 . S
C695 C696 1.524 1_655 S
C695 C699 1.400 . S
C696 H681 0.960 . S
C696 H682 0.960 1_556 S
C696 H683 0.961 . S
C696 C695 1.524 1_455 S
C697 C694 1.403 . S
C697 C698 1.392 . S
C697 C701 1.495 . S
C698 C697 1.392 . S
C698 C699 1.385 . S
C698 C700 1.478 . S
C699 H693 0.904 1_655 S
C699 C695 1.400 . S
C699 C698 1.385 . S
C700 C698 1.478 . S
C700 C702 1.381 . S
C700 C706 1.383 . S
C701 C697 1.495 . S
C701 H707 0.959 . S
C701 H708 0.961 . S
C701 H709 0.960 . S
C702 C700 1.381 . S
C702 C703 1.394 . S
C702 H710 0.930 . S
C703 C702 1.394 . S
C703 C704 1.383 . S
C703 H711 0.929 . S
C704 C703 1.383 . S
C704 C705 1.377 . S
C705 H689 0.930 . S
C705 C704 1.377 . S
C705 C706 1.379 . S
C706 H690 0.931 . S
C706 C700 1.383 . S
C706 C705 1.379 . S
H707 C701 0.959 . S
H708 C701 0.961 . S
H709 C701 0.960 . S
H710 C702 0.930 . S
H711 C703 0.929 . S
H712 C720 0.929 . S
H713 C722 0.930 . S
H714 C724 0.930 . S
H715 C727 0.929 . S
H716 C730 0.930 . S
H717 C732 0.960 1_655 S
H718 C732 0.960 . S
H719 C732 0.960 . S
C720 H712 0.929 . S
C720 C721 1.377 . S
C720 C722 1.384 . S
C721 C720 1.377 . S
C721 C727 1.390 . S
C722 H713 0.930 . S
C722 C720 1.384 . S
C722 C723 1.372 . S
C723 C722 1.372 . S
C723 C724 1.400 . S
C723 C728 1.490 . S
C724 H714 0.930 . S
C724 C723 1.400 . S
C724 C727 1.386 . S
H725 C741 0.930 1_655 S
H726 C742 0.931 . S
C727 H715 0.929 . S
C727 C721 1.390 . S
C727 C724 1.386 . S
C728 C723 1.490 . S
C728 C730 1.395 . S
C728 C731 1.403 . S
H729 C735 0.930 . S
C730 H716 0.930 . S
C730 C728 1.395 . S
C730 C733 1.403 . S
C731 C728 1.403 . S
C731 C732 1.524 . S
C731 C735 1.400 . S
C732 H717 0.960 1_455 S
C732 H718 0.960 . S
C732 H719 0.960 . S
C732 C731 1.524 . S
C733 C730 1.403 . S
C733 C734 1.392 . S
C733 C737 1.495 . S
C734 C733 1.392 . S
C734 C735 1.385 . S
C734 C736 1.478 . S
C735 H729 0.930 . S
C735 C731 1.400 . S
C735 C734 1.385 . S
C736 C734 1.478 . S
C736 C738 1.381 . S
C736 C742 1.383 . S
C737 C733 1.495 . S
C737 H743 0.959 . S
C737 H744 0.961 . S
C737 H745 0.960 . S
C738 C736 1.381 . S
C738 C739 1.394 . S
C738 H746 0.930 . S
C739 C738 1.394 . S
C739 C740 1.383 . S
C739 H747 0.929 . S
C740 C739 1.383 . S
C740 C741 1.377 . S
C741 H725 0.930 1_455 S
C741 C740 1.377 . S
C741 C742 1.379 . S
C742 H726 0.931 . S
C742 C736 1.383 . S
C742 C741 1.379 . S
H743 C737 0.959 . S
H744 C737 0.961 . S
H745 C737 0.960 . S
H746 C738 0.930 . S
H747 C739 0.929 . S
H748 C756 0.929 . S
H749 C758 0.930 . S
H750 C760 0.930 . S
H751 C763 0.929 1_556 S
H752 C766 0.930 . S
H753 C768 0.960 . S
H754 C768 0.960 . S
H755 C768 0.960 . S
C756 H748 0.929 . S
C756 C757 1.377 . S
C756 C758 1.384 . S
C757 C756 1.377 . S
C757 C763 1.390 . S
C758 H749 0.930 . S
C758 C756 1.384 . S
C758 C759 1.372 . S
C759 C758 1.372 . S
C759 C760 1.400 . S
C759 C764 1.490 . S
C760 H750 0.930 . S
C760 C759 1.400 . S
C760 C763 1.386 . S
H761 C777 0.930 . S
H762 C778 0.931 . S
C763 H751 0.929 1_554 S
C763 C757 1.390 . S
C763 C760 1.386 . S
C764 C759 1.490 . S
C764 C766 1.395 . S
C764 C767 1.403 . S
H765 C771 0.930 . S
C766 H752 0.930 . S
C766 C764 1.395 . S
C766 C769 1.403 . S
C767 C764 1.403 . S
C767 C768 1.524 . S
C767 C771 1.400 . S
C768 H753 0.960 . S
C768 H754 0.960 . S
C768 H755 0.960 . S
C768 C767 1.524 . S
C769 C766 1.403 . S
C769 C770 1.392 . S
C769 C773 1.495 1_545 S
C770 C769 1.392 . S
C770 C771 1.385 . S
C770 C772 1.478 . S
C771 H765 0.930 . S
C771 C767 1.400 . S
C771 C770 1.385 . S
C772 C770 1.478 . S
C772 C774 1.381 . S
C772 C778 1.383 . S
C773 C769 1.495 1_565 S
C773 H779 0.959 . S
C773 H780 0.961 . S
C773 H781 0.960 . S
C774 C772 1.381 . S
C774 C775 1.394 . S
C774 H782 0.930 . S
C775 C774 1.394 . S
C775 C776 1.383 . S
C775 H783 0.929 . S
C776 C775 1.383 . S
C776 C777 1.377 . S
C777 H761 0.930 . S
C777 C776 1.377 . S
C777 C778 1.379 . S
C778 H762 0.931 . S
C778 C772 1.383 . S
C778 C777 1.379 . S
H779 C773 0.959 . S
H780 C773 0.961 . S
H781 C773 0.960 . S
H782 C774 0.930 . S
H783 C775 0.929 . S
H784 C792 0.929 . S
H785 C794 0.930 . S
H786 C796 0.930 . S
H787 C799 0.929 . S
H788 C802 0.930 . S
H789 C804 0.960 . S
H790 C804 0.960 . S
H791 C804 0.960 . S
C792 H784 0.929 . S
C792 C793 1.377 . S
C792 C794 1.384 . S
C793 C792 1.377 . S
C793 C799 1.390 . S
C794 H785 0.930 . S
C794 C792 1.384 . S
C794 C795 1.372 . S
C795 C794 1.372 . S
C795 C796 1.400 . S
C795 C800 1.490 . S
C796 H786 0.930 . S
C796 C795 1.400 . S
C796 C799 1.386 . S
H797 C813 0.930 . S
H798 C814 0.931 . S
C799 H787 0.929 . S
C799 C793 1.390 . S
C799 C796 1.386 . S
C800 C795 1.490 . S
C800 C802 1.395 . S
C800 C803 1.403 . S
H801 C807 0.930 . S
C802 H788 0.930 . S
C802 C800 1.395 . S
C802 C805 1.403 . S
C803 C800 1.403 . S
C803 C804 1.524 . S
C803 C807 1.400 . S
C804 H789 0.960 . S
C804 H790 0.960 . S
C804 H791 0.960 . S
C804 C803 1.524 . S
C805 C802 1.403 . S
C805 C806 1.392 . S
C805 C809 1.495 . S
C806 C805 1.392 . S
C806 C807 1.385 . S
C806 C808 1.478 . S
C807 H801 0.930 . S
C807 C803 1.400 . S
C807 C806 1.385 . S
C808 C806 1.478 . S
C808 C810 1.381 . S
C808 C814 1.383 . S
C809 C805 1.495 . S
C809 H815 0.959 . S
C809 H816 0.961 . S
C809 H817 0.960 . S
C810 C808 1.381 . S
C810 C811 1.394 . S
C810 H818 0.930 . S
C811 C810 1.394 . S
C811 C812 1.383 . S
C811 H819 0.929 . S
C812 C811 1.383 . S
C812 C813 1.377 . S
C813 H797 0.930 . S
C813 C812 1.377 . S
C813 C814 1.379 . S
C814 H798 0.931 . S
C814 C808 1.383 . S
C814 C813 1.379 . S
H815 C809 0.959 . S
H816 C809 0.961 . S
H817 C809 0.960 . S
H818 C810 0.930 . S
H819 C811 0.929 . S
H820 C828 0.929 . S
H821 C830 0.930 . S
H822 C832 0.930 . S
H823 C835 0.929 . S
H824 C838 0.930 . S
H825 C840 0.960 . S
H826 C840 0.960 . S
H827 C840 0.960 . S
C828 H820 0.929 . S
C828 C829 1.377 . S
C828 C830 1.384 . S
C829 C828 1.377 . S
C829 C835 1.390 . S
C830 H821 0.930 . S
C830 C828 1.384 . S
C830 C831 1.372 . S
C831 C830 1.372 . S
C831 C832 1.400 . S
C831 C836 1.490 . S
C832 H822 0.930 . S
C832 C831 1.400 . S
C832 C835 1.386 . S
H833 C849 0.930 . S
H834 C850 0.931 . S
C835 H823 0.929 . S
C835 C829 1.390 . S
C835 C832 1.386 . S
C836 C831 1.490 . S
C836 C838 1.395 . S
C836 C839 1.403 . S
H837 C843 0.930 . S
C838 H824 0.930 . S
C838 C836 1.395 . S
C838 C841 1.403 . S
C839 C836 1.403 . S
C839 C840 1.524 . S
C839 C843 1.400 . S
C840 H825 0.960 . S
C840 H826 0.960 . S
C840 H827 0.960 . S
C840 C839 1.524 . S
C841 C838 1.403 . S
C841 C842 1.392 . S
C841 C845 1.495 . S
C842 C841 1.392 . S
C842 C843 1.385 . S
C842 C844 1.478 . S
C843 H837 0.930 . S
C843 C839 1.400 . S
C843 C842 1.385 . S
C844 C842 1.478 . S
C844 C846 1.381 . S
C844 C850 1.383 . S
C845 C841 1.495 . S
C845 H851 0.959 . S
C845 H852 0.961 . S
C845 H853 0.960 . S
C846 C844 1.381 . S
C846 C847 1.394 . S
C846 H854 0.930 . S
C847 C846 1.394 . S
C847 C848 1.383 . S
C847 H855 0.929 . S
C848 C847 1.383 . S
C848 C849 1.377 . S
C849 H833 0.930 . S
C849 C848 1.377 . S
C849 C850 1.379 . S
C850 H834 0.931 . S
C850 C844 1.383 . S
C850 C849 1.379 . S
H851 C845 0.959 . S
H852 C845 0.961 . S
H853 C845 0.960 . S
H854 C846 0.930 . S
H855 C847 0.929 . S
H856 C864 0.929 . S
H857 C866 0.930 1_556 S
H858 C868 0.930 . S
H859 C871 0.929 . S
H860 C874 0.930 . S
H861 C876 0.960 . S
H862 C876 0.960 . S
H863 C876 0.956 1_655 S
C864 H856 0.929 . S
C864 C865 1.377 . S
C864 C866 1.384 . S
C865 C864 1.377 . S
C865 C871 1.390 . S
C866 H857 0.930 1_554 S
C866 C864 1.384 . S
C866 C867 1.372 . S
C867 C866 1.372 . S
C867 C868 1.400 . S
C867 C872 1.490 . S
C868 H858 0.930 . S
C868 C867 1.400 . S
C868 C871 1.386 . S
H869 C885 0.930 . S
H870 C886 0.931 1_554 S
C871 H859 0.929 . S
C871 C865 1.390 . S
C871 C868 1.386 . S
C872 C867 1.490 . S
C872 C874 1.395 1_554 S
C872 C875 1.403 . S
H873 C879 0.931 1_455 S
C874 H860 0.930 . S
C874 C872 1.395 1_556 S
C874 C877 1.403 . S
C875 C872 1.403 . S
C875 C876 1.524 1_655 S
C875 C879 1.403 . S
C876 H861 0.960 . S
C876 H862 0.960 . S
C876 H863 0.956 1_455 S
C876 C875 1.524 1_455 S
C877 C874 1.403 . S
C877 C878 1.392 . S
C877 C881 1.495 . S
C878 C877 1.392 . S
C878 C879 1.382 1_556 S
C878 C880 1.478 . S
C879 H873 0.931 1_655 S
C879 C875 1.403 . S
C879 C878 1.382 1_554 S
C880 C878 1.478 . S
C880 C882 1.381 . S
C880 C886 1.383 . S
C881 C877 1.495 . S
C881 H887 0.959 . S
C881 H888 0.961 . S
C881 H889 0.960 . S
C882 C880 1.381 . S
C882 C883 1.394 . S
C882 H890 0.930 . S
C883 C882 1.394 . S
C883 C884 1.383 1_655 S
C883 H891 0.929 . S
C884 C883 1.383 1_455 S
C884 C885 1.377 . S
C885 H869 0.930 . S
C885 C884 1.377 . S
C885 C886 1.379 1_455 S
C886 H870 0.931 1_556 S
C886 C880 1.383 . S
C886 C885 1.379 1_655 S
H887 C881 0.959 . S
H888 C881 0.961 . S
H889 C881 0.960 . S
H890 C882 0.930 . S
H891 C883 0.929 . S
H892 C900 0.929 . S
H893 C902 0.930 . S
H894 C904 0.930 . S
H895 C907 0.929 . S
H896 C910 0.930 . S
H897 C912 0.960 . S
H898 C912 0.960 1_565 S
H899 C912 0.960 1_554 S
C900 H892 0.929 . S
C900 C901 1.377 . S
C900 C902 1.384 . S
C901 C900 1.377 . S
C901 C907 1.390 . S
C902 H893 0.930 . S
C902 C900 1.384 . S
C902 C903 1.372 . S
C903 C902 1.372 . S
C903 C904 1.400 . S
C903 C908 1.490 . S
C904 H894 0.930 . S
C904 C903 1.400 . S
C904 C907 1.386 . S
H905 C921 0.930 . S
H906 C922 0.931 . S
C907 H895 0.929 . S
C907 C901 1.390 . S
C907 C904 1.386 . S
C908 C903 1.490 . S
C908 C910 1.395 . S
C908 C911 1.403 1_554 S
H909 C915 0.930 1_545 S
C910 H896 0.930 . S
C910 C908 1.395 . S
C910 C913 1.403 . S
C911 C908 1.403 1_556 S
C911 C912 1.524 1_565 S
C911 C915 1.400 . S
C912 H897 0.960 . S
C912 H898 0.960 1_545 S
C912 H899 0.960 1_556 S
C912 C911 1.524 1_545 S
C913 C910 1.403 . S
C913 C914 1.392 1_554 S
C913 C917 1.495 . S
C914 C913 1.392 1_556 S
C914 C915 1.385 . S
C914 C916 1.478 . S
C915 H909 0.930 1_565 S
C915 C911 1.400 . S
C915 C914 1.385 . S
C916 C914 1.478 . S
C916 C918 1.381 . S
C916 C922 1.383 1_565 S
C917 C913 1.495 . S
C917 H923 0.959 . S
C917 H924 0.961 . S
C917 H925 0.960 1_554 S
C918 C916 1.381 . S
C918 C919 1.394 . S
C918 H926 0.930 . S
C919 C918 1.394 . S
C919 C920 1.383 1_565 S
C919 H927 0.929 . S
C920 C919 1.383 1_545 S
C920 C921 1.377 . S
C921 H905 0.930 . S
C921 C920 1.377 . S
C921 C922 1.379 . S
C922 H906 0.931 . S
C922 C916 1.383 1_545 S
C922 C921 1.379 . S
H923 C917 0.959 . S
H924 C917 0.961 . S
H925 C917 0.960 1_556 S
H926 C918 0.930 . S
H927 C919 0.929 . S
H928 C936 0.929 . S
H929 C938 0.930 . S
H930 C940 0.930 1_556 S
H931 C943 0.929 . S
H932 C946 0.930 . S
H933 C948 0.960 . S
H934 C948 0.960 1_554 S
H935 C948 0.960 . S
C936 H928 0.929 . S
C936 C937 1.377 . S
C936 C938 1.384 . S
C937 C936 1.377 . S
C937 C943 1.390 . S
C938 H929 0.930 . S
C938 C936 1.384 . S
C938 C939 1.372 . S
C939 C938 1.372 . S
C939 C940 1.400 . S
C939 C944 1.490 . S
C940 H930 0.930 1_554 S
C940 C939 1.400 . S
C940 C943 1.386 . S
H941 C957 0.930 . S
H942 C958 0.931 . S
C943 H931 0.929 . S
C943 C937 1.390 . S
C943 C940 1.386 . S
C944 C939 1.490 . S
C944 C946 1.395 . S
C944 C947 1.403 . S
H945 C951 0.930 . S
C946 H932 0.930 . S
C946 C944 1.395 . S
C946 C949 1.403 . S
C947 C944 1.403 . S
C947 C948 1.524 1_554 S
C947 C951 1.400 1_554 S
C948 H933 0.960 . S
C948 H934 0.960 1_556 S
C948 H935 0.960 . S
C948 C947 1.524 1_556 S
C949 C946 1.403 . S
C949 C950 1.392 1_554 S
C949 C953 1.495 . S
C950 C949 1.392 1_556 S
C950 C951 1.385 . S
C950 C952 1.478 . S
C951 H945 0.930 . S
C951 C947 1.400 1_556 S
C951 C950 1.385 . S
C952 C950 1.478 . S
C952 C954 1.381 . S
C952 C958 1.383 . S
C953 C949 1.495 . S
C953 H959 0.959 . S
C953 H960 0.961 1_554 S
C953 H961 0.960 . S
C954 C952 1.381 . S
C954 C955 1.394 . S
C954 H962 0.930 1_556 S
C955 C954 1.394 . S
C955 C956 1.383 . S
C955 H963 0.929 . S
C956 C955 1.383 . S
C956 C957 1.377 . S
C957 H941 0.930 . S
C957 C956 1.377 . S
C957 C958 1.379 . S
C958 H942 0.931 . S
C958 C952 1.383 . S
C958 C957 1.379 . S
H959 C953 0.959 . S
H960 C953 0.961 1_556 S
H961 C953 0.960 . S
H962 C954 0.930 1_554 S
H963 C955 0.929 . S
H964 C972 0.929 . S
H965 C974 0.930 . S
H966 C976 0.930 1_556 S
H967 C979 0.929 . S
H968 C982 0.930 . S
H969 C984 0.960 1_556 S
H970 C984 0.960 . S
H971 C984 0.960 1_556 S
C972 H964 0.929 . S
C972 C973 1.377 . S
C972 C974 1.384 . S
C973 C972 1.377 . S
C973 C979 1.390 . S
C974 H965 0.930 . S
C974 C972 1.384 . S
C974 C975 1.372 . S
C975 C974 1.372 . S
C975 C976 1.400 . S
C975 C980 1.490 . S
C976 H966 0.930 1_554 S
C976 C975 1.400 . S
C976 C979 1.386 . S
H977 C993 0.930 . S
H978 C994 0.931 . S
C979 H967 0.929 . S
C979 C973 1.390 . S
C979 C976 1.386 . S
C980 C975 1.490 . S
C980 C982 1.395 . S
C980 C983 1.403 . S
H981 C987 0.930 . S
C982 H968 0.930 . S
C982 C980 1.395 . S
C982 C985 1.403 . S
C983 C980 1.403 . S
C983 C984 1.524 . S
C983 C987 1.400 1_554 S
C984 H969 0.960 1_554 S
C984 H970 0.960 . S
C984 H971 0.960 1_554 S
C984 C983 1.524 . S
C985 C982 1.403 . S
C985 C986 1.392 1_554 S
C985 C989 1.495 . S
C986 C985 1.392 1_556 S
C986 C987 1.385 . S
C986 C988 1.478 . S
C987 H981 0.930 . S
C987 C983 1.400 1_556 S
C987 C986 1.385 . S
C988 C986 1.478 . S
C988 C990 1.381 . S
C988 C994 1.383 . S
C989 C985 1.495 . S
C989 H995 0.959 . S
C989 H996 0.961 1_554 S
C989 H997 0.960 . S
C990 C988 1.381 . S
C990 C991 1.394 . S
C990 H998 0.930 1_556 S
C991 C990 1.394 . S
C991 C992 1.383 . S
C991 H999 0.929 . S
C992 C991 1.383 . S
C992 C993 1.377 . S
C993 H977 0.930 . S
C993 C992 1.377 . S
C993 C994 1.379 . S
C994 H978 0.931 . S
C994 C988 1.383 . S
C994 C993 1.379 . S
H995 C989 0.959 . S
H996 C989 0.961 1_556 S
H997 C989 0.960 . S
H998 C990 0.930 1_554 S
H999 C991 0.929 . S
H1000 C1008 0.929 . S
H1001 C1010 0.930 . S
H1002 C1012 0.930 . S
H1003 C1015 0.929 . S
H1004 C1018 0.930 . S
H1005 C1020 0.960 . S
H1006 C1020 0.960 . S
H1007 C1020 0.960 . S
C1008 H1000 0.929 . S
C1008 C1009 1.377 . S
C1008 C1010 1.384 . S
C1009 C1008 1.377 . S
C1009 C1015 1.390 . S
C1010 H1001 0.930 . S
C1010 C1008 1.384 . S
C1010 C1011 1.372 . S
C1011 C1010 1.372 . S
C1011 C1012 1.400 . S
C1011 C1016 1.490 . S
C1012 H1002 0.930 . S
C1012 C1011 1.400 . S
C1012 C1015 1.386 . S
H1013 C1029 0.930 . S
H1014 C1030 0.931 . S
C1015 H1003 0.929 . S
C1015 C1009 1.390 . S
C1015 C1012 1.386 . S
C1016 C1011 1.490 . S
C1016 C1018 1.395 . S
C1016 C1019 1.403 . S
H1017 C1023 0.930 . S
C1018 H1004 0.930 . S
C1018 C1016 1.395 . S
C1018 C1021 1.403 . S
C1019 C1016 1.403 . S
C1019 C1020 1.524 . S
C1019 C1023 1.400 . S
C1020 H1005 0.960 . S
C1020 H1006 0.960 . S
C1020 H1007 0.960 . S
C1020 C1019 1.524 . S
C1021 C1018 1.403 . S
C1021 C1022 1.392 . S
C1021 C1025 1.495 . S
C1022 C1021 1.392 . S
C1022 C1023 1.385 . S
C1022 C1024 1.478 . S
C1023 H1017 0.930 . S
C1023 C1019 1.400 . S
C1023 C1022 1.385 . S
C1024 C1022 1.478 . S
C1024 C1026 1.381 . S
C1024 C1030 1.383 . S
C1025 C1021 1.495 . S
C1025 H1031 0.959 1_455 S
C1025 H1032 0.961 . S
C1025 H1033 0.960 1_455 S
C1026 C1024 1.381 . S
C1026 C1027 1.394 . S
C1026 H1034 0.930 . S
C1027 C1026 1.394 . S
C1027 C1028 1.383 . S
C1027 H1035 0.929 . S
C1028 C1027 1.383 . S
C1028 C1029 1.377 . S
C1029 H1013 0.930 . S
C1029 C1028 1.377 . S
C1029 C1030 1.379 . S
C1030 H1014 0.931 . S
C1030 C1024 1.383 . S
C1030 C1029 1.379 . S
H1031 C1025 0.959 1_655 S
H1032 C1025 0.961 . S
H1033 C1025 0.960 1_655 S
H1034 C1026 0.930 . S
H1035 C1027 0.929 . S
H1036 C1044 0.929 . S
H1037 C1046 0.930 . S
H1038 C1048 0.930 . S
H1039 C1051 0.929 . S
H1040 C1054 0.930 . S
H1041 C1056 0.960 . S
H1042 C1056 0.960 . S
H1043 C1056 0.960 . S
C1044 H1036 0.929 . S
C1044 C1045 1.377 . S
C1044 C1046 1.384 . S
C1045 C1044 1.377 . S
C1045 C1051 1.390 . S
C1046 H1037 0.930 . S
C1046 C1044 1.384 . S
C1046 C1047 1.372 . S
C1047 C1046 1.372 . S
C1047 C1048 1.400 . S
C1047 C1052 1.490 . S
C1048 H1038 0.930 . S
C1048 C1047 1.400 . S
C1048 C1051 1.386 . S
H1049 C1065 0.930 . S
H1050 C1066 0.931 . S
C1051 H1039 0.929 . S
C1051 C1045 1.390 . S
C1051 C1048 1.386 . S
C1052 C1047 1.490 . S
C1052 C1054 1.395 . S
C1052 C1055 1.403 . S
H1053 C1059 0.930 . S
C1054 H1040 0.930 . S
C1054 C1052 1.395 . S
C1054 C1057 1.403 . S
C1055 C1052 1.403 . S
C1055 C1056 1.524 . S
C1055 C1059 1.400 . S
C1056 H1041 0.960 . S
C1056 H1042 0.960 . S
C1056 H1043 0.960 . S
C1056 C1055 1.524 . S
C1057 C1054 1.403 . S
C1057 C1058 1.392 . S
C1057 C1061 1.495 . S
C1058 C1057 1.392 . S
C1058 C1059 1.385 . S
C1058 C1060 1.478 . S
C1059 H1053 0.930 . S
C1059 C1055 1.400 . S
C1059 C1058 1.385 . S
C1060 C1058 1.478 . S
C1060 C1062 1.381 . S
C1060 C1066 1.383 . S
C1061 C1057 1.495 . S
C1061 H1067 0.959 . S
C1061 H1068 0.961 . S
C1061 H1069 0.960 . S
C1062 C1060 1.381 . S
C1062 C1063 1.394 . S
C1062 H1070 0.930 . S
C1063 C1062 1.394 . S
C1063 C1064 1.383 . S
C1063 H1071 0.929 . S
C1064 C1063 1.383 . S
C1064 C1065 1.377 . S
C1065 H1049 0.930 . S
C1065 C1064 1.377 . S
C1065 C1066 1.379 . S
C1066 H1050 0.931 . S
C1066 C1060 1.383 . S
C1066 C1065 1.379 . S
H1067 C1061 0.959 . S
H1068 C1061 0.961 . S
H1069 C1061 0.960 . S
H1070 C1062 0.930 . S
H1071 C1063 0.929 . S
H1072 C1080 0.929 . S
H1073 C1082 0.930 . S
H1074 C1084 0.930 . S
H1075 C1087 0.929 . S
H1076 C1090 0.930 . S
H1077 C1092 0.960 . S
H1078 C1092 0.960 . S
H1079 C1092 0.960 . S
C1080 H1072 0.929 . S
C1080 C1081 1.377 . S
C1080 C1082 1.384 . S
C1081 C1080 1.377 . S
C1081 C1087 1.390 . S
C1082 H1073 0.930 . S
C1082 C1080 1.384 . S
C1082 C1083 1.372 . S
C1083 C1082 1.372 . S
C1083 C1084 1.400 . S
C1083 C1088 1.490 . S
C1084 H1074 0.930 . S
C1084 C1083 1.400 . S
C1084 C1087 1.386 . S
H1085 C1101 0.930 . S
H1086 C1102 0.931 . S
C1087 H1075 0.929 . S
C1087 C1081 1.390 . S
C1087 C1084 1.386 . S
C1088 C1083 1.490 . S
C1088 C1090 1.395 . S
C1088 C1091 1.403 . S
H1089 C1095 0.930 . S
C1090 H1076 0.930 . S
C1090 C1088 1.395 . S
C1090 C1093 1.403 . S
C1091 C1088 1.403 . S
C1091 C1092 1.524 . S
C1091 C1095 1.400 . S
C1092 H1077 0.960 . S
C1092 H1078 0.960 . S
C1092 H1079 0.960 . S
C1092 C1091 1.524 . S
C1093 C1090 1.403 . S
C1093 C1094 1.392 . S
C1093 C1097 1.495 . S
C1094 C1093 1.392 . S
C1094 C1095 1.385 . S
C1094 C1096 1.478 . S
C1095 H1089 0.930 . S
C1095 C1091 1.400 . S
C1095 C1094 1.385 . S
C1096 C1094 1.478 . S
C1096 C1098 1.381 . S
C1096 C1102 1.383 . S
C1097 C1093 1.495 . S
C1097 H1103 0.959 . S
C1097 H1104 0.961 . S
C1097 H1105 0.960 . S
C1098 C1096 1.381 . S
C1098 C1099 1.394 . S
C1098 H1106 0.930 . S
C1099 C1098 1.394 . S
C1099 C1100 1.383 . S
C1099 H1107 0.929 . S
C1100 C1099 1.383 . S
C1100 C1101 1.377 . S
C1101 H1085 0.930 . S
C1101 C1100 1.377 . S
C1101 C1102 1.379 . S
C1102 H1086 0.931 . S
C1102 C1096 1.383 . S
C1102 C1101 1.379 . S
H1103 C1097 0.959 . S
H1104 C1097 0.961 . S
H1105 C1097 0.960 . S
H1106 C1098 0.930 . S
H1107 C1099 0.929 . S
H1108 C1116 0.929 . S
H1109 C1118 0.930 . S
H1110 C1120 0.930 . S
H1111 C1123 0.929 . S
H1112 C1126 0.930 . S
H1113 C1128 0.960 . S
H1114 C1128 0.960 . S
H1115 C1128 0.960 . S
C1116 H1108 0.929 . S
C1116 C1117 1.377 . S
C1116 C1118 1.384 . S
C1117 C1116 1.377 . S
C1117 C1123 1.390 . S
C1118 H1109 0.930 . S
C1118 C1116 1.384 . S
C1118 C1119 1.372 . S
C1119 C1118 1.372 . S
C1119 C1120 1.400 . S
C1119 C1124 1.490 . S
C1120 H1110 0.930 . S
C1120 C1119 1.400 . S
C1120 C1123 1.386 . S
H1121 C1137 0.930 . S
H1122 C1138 0.931 . S
C1123 H1111 0.929 . S
C1123 C1117 1.390 . S
C1123 C1120 1.386 . S
C1124 C1119 1.490 . S
C1124 C1126 1.395 . S
C1124 C1127 1.403 . S
H1125 C1131 0.930 . S
C1126 H1112 0.930 . S
C1126 C1124 1.395 . S
C1126 C1129 1.403 . S
C1127 C1124 1.403 . S
C1127 C1128 1.524 . S
C1127 C1131 1.400 . S
C1128 H1113 0.960 . S
C1128 H1114 0.960 . S
C1128 H1115 0.960 . S
C1128 C1127 1.524 . S
C1129 C1126 1.403 . S
C1129 C1130 1.392 . S
C1129 C1133 1.495 . S
C1130 C1129 1.392 . S
C1130 C1131 1.385 . S
C1130 C1132 1.478 . S
C1131 H1125 0.930 . S
C1131 C1127 1.400 . S
C1131 C1130 1.385 . S
C1132 C1130 1.478 . S
C1132 C1134 1.381 . S
C1132 C1138 1.383 . S
C1133 C1129 1.495 . S
C1133 H1139 0.959 . S
C1133 H1140 0.961 . S
C1133 H1141 0.960 . S
C1134 C1132 1.381 . S
C1134 C1135 1.394 . S
C1134 H1142 0.930 . S
C1135 C1134 1.394 . S
C1135 C1136 1.383 . S
C1135 H1143 0.929 . S
C1136 C1135 1.383 . S
C1136 C1137 1.377 . S
C1137 H1121 0.930 . S
C1137 C1136 1.377 . S
C1137 C1138 1.379 . S
C1138 H1122 0.931 . S
C1138 C1132 1.383 . S
C1138 C1137 1.379 . S
H1139 C1133 0.959 . S
H1140 C1133 0.961 . S
H1141 C1133 0.960 . S
H1142 C1134 0.930 . S
H1143 C1135 0.929 . S
H1144 C1152 0.929 . S
H1145 C1154 0.930 . S
H1146 C1156 0.930 . S
H1147 C1159 0.929 . S
H1148 C1162 0.930 . S
H1149 C1164 0.960 . S
H1150 C1164 0.960 . S
H1151 C1164 0.960 . S
C1152 H1144 0.929 . S
C1152 C1153 1.377 . S
C1152 C1154 1.384 . S
C1153 C1152 1.377 . S
C1153 C1159 1.390 . S
C1154 H1145 0.930 . S
C1154 C1152 1.384 . S
C1154 C1155 1.372 . S
C1155 C1154 1.372 . S
C1155 C1156 1.400 . S
C1155 C1160 1.490 . S
C1156 H1146 0.930 . S
C1156 C1155 1.400 . S
C1156 C1159 1.386 . S
H1157 C1173 0.930 . S
H1158 C1174 0.931 . S
C1159 H1147 0.929 . S
C1159 C1153 1.390 . S
C1159 C1156 1.386 . S
C1160 C1155 1.490 . S
C1160 C1162 1.395 . S
C1160 C1163 1.403 . S
H1161 C1167 0.930 . S
C1162 H1148 0.930 . S
C1162 C1160 1.395 . S
C1162 C1165 1.403 . S
C1163 C1160 1.403 . S
C1163 C1164 1.524 . S
C1163 C1167 1.400 . S
C1164 H1149 0.960 . S
C1164 H1150 0.960 . S
C1164 H1151 0.960 . S
C1164 C1163 1.524 . S
C1165 C1162 1.403 . S
C1165 C1166 1.392 . S
C1165 C1169 1.495 . S
C1166 C1165 1.392 . S
C1166 C1167 1.385 . S
C1166 C1168 1.478 . S
C1167 H1161 0.930 . S
C1167 C1163 1.400 . S
C1167 C1166 1.385 . S
C1168 C1166 1.478 . S
C1168 C1170 1.381 . S
C1168 C1174 1.383 . S
C1169 C1165 1.495 . S
C1169 H1175 0.959 . S
C1169 H1176 0.961 . S
C1169 H1177 0.960 1_655 S
C1170 C1168 1.381 . S
C1170 C1171 1.394 1_655 S
C1170 H1178 0.930 1_655 S
C1171 C1170 1.394 1_455 S
C1171 C1172 1.383 1_455 S
C1171 H1179 0.929 . S
C1172 C1171 1.383 1_655 S
C1172 C1173 1.377 . S
C1173 H1157 0.930 . S
C1173 C1172 1.377 . S
C1173 C1174 1.379 . S
C1174 H1158 0.931 . S
C1174 C1168 1.383 . S
C1174 C1173 1.379 . S
H1175 C1169 0.959 . S
H1176 C1169 0.961 . S
H1177 C1169 0.960 1_455 S
H1178 C1170 0.930 1_455 S
H1179 C1171 0.929 . S
H1180 C1188 0.929 . S
H1181 C1190 0.930 . S
H1182 C1192 0.930 . S
H1183 C1195 0.929 . S
H1184 C1198 0.930 . S
H1185 C1200 0.960 . S
H1186 C1200 0.964 1_545 S
H1187 C1200 0.960 . S
C1188 H1180 0.929 . S
C1188 C1189 1.377 . S
C1188 C1190 1.384 . S
C1189 C1188 1.377 . S
C1189 C1195 1.390 . S
C1190 H1181 0.930 . S
C1190 C1188 1.384 . S
C1190 C1191 1.372 . S
C1191 C1190 1.372 . S
C1191 C1192 1.400 . S
C1191 C1196 1.490 . S
C1192 H1182 0.930 . S
C1192 C1191 1.400 . S
C1192 C1195 1.386 . S
H1193 C1209 0.930 . S
H1194 C1210 0.931 . S
C1195 H1183 0.929 . S
C1195 C1189 1.390 . S
C1195 C1192 1.386 . S
C1196 C1191 1.490 . S
C1196 C1198 1.395 . S
C1196 C1199 1.403 . S
H1197 C1203 0.930 . S
C1198 H1184 0.930 . S
C1198 C1196 1.395 . S
C1198 C1201 1.403 . S
C1199 C1196 1.403 . S
C1199 C1200 1.524 . S
C1199 C1203 1.400 . S
C1200 H1185 0.960 . S
C1200 H1186 0.964 1_565 S
C1200 H1187 0.960 . S
C1200 C1199 1.524 . S
C1201 C1198 1.403 . S
C1201 C1202 1.392 . S
C1201 C1205 1.495 . S
C1202 C1201 1.392 . S
C1202 C1203 1.385 . S
C1202 C1204 1.478 . S
C1203 H1197 0.930 . S
C1203 C1199 1.400 . S
C1203 C1202 1.385 . S
C1204 C1202 1.478 . S
C1204 C1206 1.381 . S
C1204 C1210 1.383 . S
C1205 C1201 1.495 . S
C1205 H1211 0.959 . S
C1205 H1212 0.961 . S
C1205 H1213 0.960 . S
C1206 C1204 1.381 . S
C1206 C1207 1.394 . S
C1206 H1214 0.943 . S
C1207 C1206 1.394 . S
C1207 C1208 1.383 . S
C1207 H1215 0.929 1_565 S
C1208 C1207 1.383 . S
C1208 C1209 1.377 . S
C1209 H1193 0.930 . S
C1209 C1208 1.377 . S
C1209 C1210 1.379 . S
C1210 H1194 0.931 . S
C1210 C1204 1.383 . S
C1210 C1209 1.379 . S
H1211 C1205 0.959 . S
H1212 C1205 0.961 . S
H1213 C1205 0.960 . S
H1214 C1206 0.943 . S
H1215 C1207 0.929 1_545 S
H1216 C1224 0.929 . S
H1217 C1226 0.930 . S
H1218 C1228 0.930 . S
H1219 C1231 0.929 . S
H1220 C1234 0.930 . S
H1221 C1236 0.960 . S
H1222 C1236 0.960 . S
H1223 C1236 0.960 . S
C1224 H1216 0.929 . S
C1224 C1225 1.377 . S
C1224 C1226 1.384 . S
C1225 C1224 1.377 . S
C1225 C1231 1.390 . S
C1226 H1217 0.930 . S
C1226 C1224 1.384 . S
C1226 C1227 1.372 . S
C1227 C1226 1.372 . S
C1227 C1228 1.400 . S
C1227 C1232 1.490 . S
C1228 H1218 0.930 . S
C1228 C1227 1.400 . S
C1228 C1231 1.386 . S
H1229 C1245 0.930 . S
H1230 C1246 0.931 . S
C1231 H1219 0.929 . S
C1231 C1225 1.390 . S
C1231 C1228 1.386 . S
C1232 C1227 1.490 . S
C1232 C1234 1.395 . S
C1232 C1235 1.403 . S
H1233 C1239 0.930 . S
C1234 H1220 0.930 . S
C1234 C1232 1.395 . S
C1234 C1237 1.403 . S
C1235 C1232 1.403 . S
C1235 C1236 1.524 . S
C1235 C1239 1.400 . S
C1236 H1221 0.960 . S
C1236 H1222 0.960 . S
C1236 H1223 0.960 . S
C1236 C1235 1.524 . S
C1237 C1234 1.403 . S
C1237 C1238 1.392 . S
C1237 C1241 1.495 . S
C1238 C1237 1.392 . S
C1238 C1239 1.385 . S
C1238 C1240 1.478 . S
C1239 H1233 0.930 . S
C1239 C1235 1.400 . S
C1239 C1238 1.385 . S
C1240 C1238 1.478 . S
C1240 C1242 1.381 . S
C1240 C1246 1.383 . S
C1241 C1237 1.495 . S
C1241 H1247 0.959 . S
C1241 H1248 0.961 . S
C1241 H1249 0.960 . S
C1242 C1240 1.381 . S
C1242 C1243 1.394 . S
C1242 H1250 0.930 . S
C1243 C1242 1.394 . S
C1243 C1244 1.383 . S
C1243 H1251 0.929 . S
C1244 C1243 1.383 . S
C1244 C1245 1.377 . S
C1245 H1229 0.930 . S
C1245 C1244 1.377 . S
C1245 C1246 1.379 . S
C1246 H1230 0.931 . S
C1246 C1240 1.383 . S
C1246 C1245 1.379 . S
H1247 C1241 0.959 . S
H1248 C1241 0.961 . S
H1249 C1241 0.960 . S
H1250 C1242 0.930 . S
H1251 C1243 0.929 . S
H1252 C1260 0.929 . S
H1253 C1262 0.930 . S
H1254 C1264 0.930 . S
H1255 C1267 0.929 . S
H1256 C1270 0.930 . S
H1257 C1272 0.960 . S
H1258 C1272 0.960 . S
H1259 C1272 0.960 . S
C1260 H1252 0.929 . S
C1260 C1261 1.377 . S
C1260 C1262 1.384 . S
C1261 C1260 1.377 . S
C1261 C1267 1.390 . S
C1262 H1253 0.930 . S
C1262 C1260 1.384 . S
C1262 C1263 1.372 . S
C1263 C1262 1.372 . S
C1263 C1264 1.400 . S
C1263 C1268 1.490 . S
C1264 H1254 0.930 . S
C1264 C1263 1.400 . S
C1264 C1267 1.386 . S
H1265 C1281 0.930 . S
H1266 C1282 0.931 . S
C1267 H1255 0.929 . S
C1267 C1261 1.390 . S
C1267 C1264 1.386 . S
C1268 C1263 1.490 . S
C1268 C1270 1.395 . S
C1268 C1271 1.403 . S
H1269 C1275 0.930 . S
C1270 H1256 0.930 . S
C1270 C1268 1.395 . S
C1270 C1273 1.403 . S
C1271 C1268 1.403 . S
C1271 C1272 1.524 . S
C1271 C1275 1.400 . S
C1272 H1257 0.960 . S
C1272 H1258 0.960 . S
C1272 H1259 0.960 . S
C1272 C1271 1.524 . S
C1273 C1270 1.403 . S
C1273 C1274 1.392 . S
C1273 C1277 1.495 . S
C1274 C1273 1.392 . S
C1274 C1275 1.385 . S
C1274 C1276 1.478 . S
C1275 H1269 0.930 . S
C1275 C1271 1.400 . S
C1275 C1274 1.385 . S
C1276 C1274 1.478 . S
C1276 C1278 1.381 . S
C1276 C1282 1.383 . S
C1277 C1273 1.495 . S
C1277 H1283 0.959 . S
C1277 H1284 0.961 . S
C1277 H1285 0.960 . S
C1278 C1276 1.381 . S
C1278 C1279 1.394 . S
C1278 H1286 0.930 . S
C1279 C1278 1.394 . S
C1279 C1280 1.383 . S
C1279 H1287 0.929 . S
C1280 C1279 1.383 . S
C1280 C1281 1.377 . S
C1281 H1265 0.930 . S
C1281 C1280 1.377 . S
C1281 C1282 1.379 . S
C1282 H1266 0.931 . S
C1282 C1276 1.383 . S
C1282 C1281 1.379 . S
H1283 C1277 0.959 . S
H1284 C1277 0.961 . S
H1285 C1277 0.960 . S
H1286 C1278 0.930 . S
H1287 C1279 0.929 . S
C433 C76 1.804 . S
C452 C162 1.833 . S
C488 C246 1.895 . S
C469 C87 1.826 . S
C524 C312 1.923 . S
C505 C54 1.950 . S
C560 C396 1.862 . S
C541 C65 1.915 . S
C596 C151 1.830 1_565 S
C577 C32 1.803 . S
C613 C43 1.841 . S
C632 C235 1.888 . S
C649 C10 1.960 . S
C668 C323 1.888 . S
C685 C21 1.931 . S
C704 C407 1.855 . S
C740 C158 0.601 1_455 S
C721 C60 0.477 . S
C776 C242 0.488 . S
C757 C71 0.476 . S
C812 C314 0.417 . S
C793 C82 0.455 . S
C829 C49 0.457 . S
C848 C398 0.486 . S
C865 C16 0.505 . S
C884 C146 0.617 . S
C920 C230 0.580 . S
C901 C27 0.488 . S
C956 C326 0.447 . S
C937 C38 0.451 . S
C973 C5 0.473 . S
C992 C410 0.476 . S
C1009 C59 1.949 . S
C1028 C155 1.968 . S
C1045 C70 1.915 . S
C1064 C239 1.946 . S
C1100 C319 1.950 . S
C1081 C81 1.815 . S
C1136 C403 1.955 . S
C1117 C48 1.838 . S
C1153 C15 1.946 . S
C1172 C144 2.003 . S
C1208 C228 1.975 1_565 S
C1189 C26 1.903 . S
C1244 C330 1.950 . S
C1225 C37 1.790 . S
C1261 C4 1.827 . S
C1280 C414 1.976 . S
