# Generated by pormake.
# Topology ptr, (4,4)-cn, num edge types: 1
# Building blocks:
#     Node 0, Type 0, BuildingBlock: TATPOV_clean_sbu_0, # of connection points: 4
#     Node 1, Type 0, BuildingBlock: TATPOV_clean_sbu_0, # of connection points: 4
#     Node 2, Type 0, BuildingBlock: TATPOV_clean_sbu_0, # of connection points: 4
#     Node 3, Type 0, BuildingBlock: TATPOV_clean_sbu_0, # of connection points: 4
#     Node 4, Type 0, BuildingBlock: TATPOV_clean_sbu_0, # of connection points: 4
#     Node 5, Type 0, BuildingBlock: TATPOV_clean_sbu_0, # of connection points: 4
#     Node 6, Type 0, BuildingBlock: TATPOV_clean_sbu_0, # of connection points: 4
#     Node 7, Type 0, BuildingBlock: TATPOV_clean_sbu_0, # of connection points: 4
#     Node 8, Type 0, BuildingBlock: TATPOV_clean_sbu_0, # of connection points: 4
#     Node 9, Type 0, BuildingBlock: TATPOV_clean_sbu_0, # of connection points: 4
#     Node 10, Type 0, BuildingBlock: TATPOV_clean_sbu_0, # of connection points: 4
#     Node 11, Type 0, BuildingBlock: TATPOV_clean_sbu_0, # of connection points: 4
#     Node 12, Type 0, BuildingBlock: TATPOV_clean_sbu_0, # of connection points: 4
#     Node 13, Type 0, BuildingBlock: TATPOV_clean_sbu_0, # of connection points: 4
#     Node 14, Type 0, BuildingBlock: TATPOV_clean_sbu_0, # of connection points: 4
#     Node 15, Type 0, BuildingBlock: TATPOV_clean_sbu_0, # of connection points: 4
#     Node 16, Type 0, BuildingBlock: TATPOV_clean_sbu_0, # of connection points: 4
#     Node 17, Type 0, BuildingBlock: TATPOV_clean_sbu_0, # of connection points: 4
#     Node 18, Type 1, BuildingBlock: GIZVER_clean_linker_0, # of connection points: 4
#     Node 19, Type 1, BuildingBlock: GIZVER_clean_linker_0, # of connection points: 4
#     Node 20, Type 1, BuildingBlock: GIZVER_clean_linker_0, # of connection points: 4
#     Node 21, Type 1, BuildingBlock: GIZVER_clean_linker_0, # of connection points: 4
#     Node 22, Type 1, BuildingBlock: GIZVER_clean_linker_0, # of connection points: 4
#     Node 23, Type 1, BuildingBlock: GIZVER_clean_linker_0, # of connection points: 4
#     Node 24, Type 1, BuildingBlock: GIZVER_clean_linker_0, # of connection points: 4
#     Node 25, Type 1, BuildingBlock: GIZVER_clean_linker_0, # of connection points: 4
#     Node 26, Type 1, BuildingBlock: GIZVER_clean_linker_0, # of connection points: 4
#     Node 27, Type 1, BuildingBlock: GIZVER_clean_linker_0, # of connection points: 4
#     Node 28, Type 1, BuildingBlock: GIZVER_clean_linker_0, # of connection points: 4
#     Node 29, Type 1, BuildingBlock: GIZVER_clean_linker_0, # of connection points: 4
#     Node 30, Type 1, BuildingBlock: GIZVER_clean_linker_0, # of connection points: 4
#     Node 31, Type 1, BuildingBlock: GIZVER_clean_linker_0, # of connection points: 4
#     Node 32, Type 1, BuildingBlock: GIZVER_clean_linker_0, # of connection points: 4
#     Node 33, Type 1, BuildingBlock: GIZVER_clean_linker_0, # of connection points: 4
#     Node 34, Type 1, BuildingBlock: GIZVER_clean_linker_0, # of connection points: 4
#     Node 35, Type 1, BuildingBlock: GIZVER_clean_linker_0, # of connection points: 4
#     Edge 36, Type (0, 1), BuildingBlock: KIFKEQ_clean_linker_1, # of connection points: 2
#     Edge 37, Type (0, 1), BuildingBlock: KIFKEQ_clean_linker_1, # of connection points: 2
#     Edge 38, Type (0, 1), BuildingBlock: KIFKEQ_clean_linker_1, # of connection points: 2
#     Edge 39, Type (0, 1), BuildingBlock: KIFKEQ_clean_linker_1, # of connection points: 2
#     Edge 40, Type (0, 1), BuildingBlock: KIFKEQ_clean_linker_1, # of connection points: 2
#     Edge 41, Type (0, 1), BuildingBlock: KIFKEQ_clean_linker_1, # of connection points: 2
#     Edge 42, Type (0, 1), BuildingBlock: KIFKEQ_clean_linker_1, # of connection points: 2
#     Edge 43, Type (0, 1), BuildingBlock: KIFKEQ_clean_linker_1, # of connection points: 2
#     Edge 44, Type (0, 1), BuildingBlock: KIFKEQ_clean_linker_1, # of connection points: 2
#     Edge 45, Type (0, 1), BuildingBlock: KIFKEQ_clean_linker_1, # of connection points: 2
#     Edge 46, Type (0, 1), BuildingBlock: KIFKEQ_clean_linker_1, # of connection points: 2
#     Edge 47, Type (0, 1), BuildingBlock: KIFKEQ_clean_linker_1, # of connection points: 2
#     Edge 48, Type (0, 1), BuildingBlock: KIFKEQ_clean_linker_1, # of connection points: 2
#     Edge 49, Type (0, 1), BuildingBlock: KIFKEQ_clean_linker_1, # of connection points: 2
#     Edge 50, Type (0, 1), BuildingBlock: KIFKEQ_clean_linker_1, # of connection points: 2
#     Edge 51, Type (0, 1), BuildingBlock: KIFKEQ_clean_linker_1, # of connection points: 2
#     Edge 52, Type (0, 1), BuildingBlock: KIFKEQ_clean_linker_1, # of connection points: 2
#     Edge 53, Type (0, 1), BuildingBlock: KIFKEQ_clean_linker_1, # of connection points: 2
#     Edge 54, Type (0, 1), BuildingBlock: KIFKEQ_clean_linker_1, # of connection points: 2
#     Edge 55, Type (0, 1), BuildingBlock: KIFKEQ_clean_linker_1, # of connection points: 2
#     Edge 56, Type (0, 1), BuildingBlock: KIFKEQ_clean_linker_1, # of connection points: 2
#     Edge 57, Type (0, 1), BuildingBlock: KIFKEQ_clean_linker_1, # of connection points: 2
#     Edge 58, Type (0, 1), BuildingBlock: KIFKEQ_clean_linker_1, # of connection points: 2
#     Edge 59, Type (0, 1), BuildingBlock: KIFKEQ_clean_linker_1, # of connection points: 2
#     Edge 60, Type (0, 1), BuildingBlock: KIFKEQ_clean_linker_1, # of connection points: 2
#     Edge 61, Type (0, 1), BuildingBlock: KIFKEQ_clean_linker_1, # of connection points: 2
#     Edge 62, Type (0, 1), BuildingBlock: KIFKEQ_clean_linker_1, # of connection points: 2
#     Edge 63, Type (0, 1), BuildingBlock: KIFKEQ_clean_linker_1, # of connection points: 2
#     Edge 64, Type (0, 1), BuildingBlock: KIFKEQ_clean_linker_1, # of connection points: 2
#     Edge 65, Type (0, 1), BuildingBlock: KIFKEQ_clean_linker_1, # of connection points: 2
#     Edge 66, Type (0, 1), BuildingBlock: KIFKEQ_clean_linker_1, # of connection points: 2
#     Edge 67, Type (0, 1), BuildingBlock: KIFKEQ_clean_linker_1, # of connection points: 2
#     Edge 68, Type (0, 1), BuildingBlock: KIFKEQ_clean_linker_1, # of connection points: 2
#     Edge 69, Type (0, 1), BuildingBlock: KIFKEQ_clean_linker_1, # of connection points: 2
#     Edge 70, Type (0, 1), BuildingBlock: KIFKEQ_clean_linker_1, # of connection points: 2
#     Edge 71, Type (0, 1), BuildingBlock: KIFKEQ_clean_linker_1, # of connection points: 2
#     Edge 72, Type (0, 1), BuildingBlock: KIFKEQ_clean_linker_1, # of connection points: 2
#     Edge 73, Type (0, 1), BuildingBlock: KIFKEQ_clean_linker_1, # of connection points: 2
#     Edge 74, Type (0, 1), BuildingBlock: KIFKEQ_clean_linker_1, # of connection points: 2
#     Edge 75, Type (0, 1), BuildingBlock: KIFKEQ_clean_linker_1, # of connection points: 2
#     Edge 76, Type (0, 1), BuildingBlock: KIFKEQ_clean_linker_1, # of connection points: 2
#     Edge 77, Type (0, 1), BuildingBlock: KIFKEQ_clean_linker_1, # of connection points: 2
#     Edge 78, Type (0, 1), BuildingBlock: KIFKEQ_clean_linker_1, # of connection points: 2
#     Edge 79, Type (0, 1), BuildingBlock: KIFKEQ_clean_linker_1, # of connection points: 2
#     Edge 80, Type (0, 1), BuildingBlock: KIFKEQ_clean_linker_1, # of connection points: 2
#     Edge 81, Type (0, 1), BuildingBlock: KIFKEQ_clean_linker_1, # of connection points: 2
#     Edge 82, Type (0, 1), BuildingBlock: KIFKEQ_clean_linker_1, # of connection points: 2
#     Edge 83, Type (0, 1), BuildingBlock: KIFKEQ_clean_linker_1, # of connection points: 2
#     Edge 84, Type (0, 1), BuildingBlock: KIFKEQ_clean_linker_1, # of connection points: 2
#     Edge 85, Type (0, 1), BuildingBlock: KIFKEQ_clean_linker_1, # of connection points: 2
#     Edge 86, Type (0, 1), BuildingBlock: KIFKEQ_clean_linker_1, # of connection points: 2
#     Edge 87, Type (0, 1), BuildingBlock: KIFKEQ_clean_linker_1, # of connection points: 2
#     Edge 88, Type (0, 1), BuildingBlock: KIFKEQ_clean_linker_1, # of connection points: 2
#     Edge 89, Type (0, 1), BuildingBlock: KIFKEQ_clean_linker_1, # of connection points: 2
#     Edge 90, Type (0, 1), BuildingBlock: KIFKEQ_clean_linker_1, # of connection points: 2
#     Edge 91, Type (0, 1), BuildingBlock: KIFKEQ_clean_linker_1, # of connection points: 2
#     Edge 92, Type (0, 1), BuildingBlock: KIFKEQ_clean_linker_1, # of connection points: 2
#     Edge 93, Type (0, 1), BuildingBlock: KIFKEQ_clean_linker_1, # of connection points: 2
#     Edge 94, Type (0, 1), BuildingBlock: KIFKEQ_clean_linker_1, # of connection points: 2
#     Edge 95, Type (0, 1), BuildingBlock: KIFKEQ_clean_linker_1, # of connection points: 2
#     Edge 96, Type (0, 1), BuildingBlock: KIFKEQ_clean_linker_1, # of connection points: 2
#     Edge 97, Type (0, 1), BuildingBlock: KIFKEQ_clean_linker_1, # of connection points: 2
#     Edge 98, Type (0, 1), BuildingBlock: KIFKEQ_clean_linker_1, # of connection points: 2
#     Edge 99, Type (0, 1), BuildingBlock: KIFKEQ_clean_linker_1, # of connection points: 2
#     Edge 100, Type (0, 1), BuildingBlock: KIFKEQ_clean_linker_1, # of connection points: 2
#     Edge 101, Type (0, 1), BuildingBlock: KIFKEQ_clean_linker_1, # of connection points: 2
#     Edge 102, Type (0, 1), BuildingBlock: KIFKEQ_clean_linker_1, # of connection points: 2
#     Edge 103, Type (0, 1), BuildingBlock: KIFKEQ_clean_linker_1, # of connection points: 2
#     Edge 104, Type (0, 1), BuildingBlock: KIFKEQ_clean_linker_1, # of connection points: 2
#     Edge 105, Type (0, 1), BuildingBlock: KIFKEQ_clean_linker_1, # of connection points: 2
#     Edge 106, Type (0, 1), BuildingBlock: KIFKEQ_clean_linker_1, # of connection points: 2
#     Edge 107, Type (0, 1), BuildingBlock: KIFKEQ_clean_linker_1, # of connection points: 2
# Relax obj value: 0.071
# Max RMSD: 0.189
# Mean RMSD: 0.114
data_MOF--net-ptr--node1-TATPOV_clean_sbu_0--node2-GIZVER_clean_linker_0--edge1-KIFKEQ_clean_linker_1
_symmetry_space_group_name_H-M    P1
_symmetry_Int_Tables_number       1
_symmetry_cell_setting            triclinic
loop_
_symmetry_equiv_pos_as_xyz
'x, y, z'
_cell_length_a     79.905492
_cell_length_b     80.812512
_cell_length_c     48.567034
_cell_angle_alpha  89.462102
_cell_angle_beta   91.656392
_cell_angle_gamma 121.03813
loop_
_atom_site_label
_atom_site_type_symbol
_atom_site_fract_x
_atom_site_fract_y
_atom_site_fract_z
_atom_type_partial_charge
Zn0 Zn 0.9674 0.39076 0.02232 0.0
Zn1 Zn 1.0006 0.39086 0.01466 0.0
O2 O 0.97854 0.36208 0.01715 0.0
O3 O 0.95118 0.36166 0.02338 0.0
O4 O 0.02442 0.38807 0.0122 0.0
O5 O 0.97887 0.4066 0.05695 0.0
O6 O 1.0065 0.40772 0.04967 0.0
C7 C 0.96011 0.35267 0.02042 0.0
C8 C 0.98654 0.40889 0.97112 0.0
O9 O 0.99916 0.40449 0.97895 0.0
O10 O 0.97205 0.40454 0.98597 0.0
C11 C 0.0419 0.40141 0.00777 0.0
O12 O 0.04567 0.41905 0.0033 0.0
C13 C 0.99648 0.41256 0.06389 0.0
Zn14 Zn 0.6317 0.58766 0.01527 0.0
Zn15 Zn 0.63706 0.62254 0.01778 0.0
O16 O 0.66546 0.62776 0.01536 0.0
O17 O 0.66005 0.59851 0.00845 0.0
O18 O 0.64067 0.64929 0.01974 0.0
O19 O 0.62251 0.58197 0.05376 0.0
O20 O 0.62275 0.60937 0.05389 0.0
C21 C 0.67189 0.6165 0.01087 0.0
C22 C 0.61021 0.59381 0.97291 0.0
O23 O 0.61978 0.61099 0.98244 0.0
O24 O 0.61204 0.58063 0.98416 0.0
C25 C 0.62605 0.65145 0.01628 0.0
O26 O 0.60866 0.63611 0.01177 0.0
C27 C 0.61882 0.59357 0.06553 0.0
Zn28 Zn 0.40858 0.99145 0.00021 0.0
Zn29 Zn 0.41272 0.02563 0.00531 0.0
O30 O 0.38267 1.00591 0.00425 0.0
O31 O 0.37957 0.97805 -0.00636 0.0
O32 O 0.41431 0.05163 0.00555 0.0
O33 O 0.42688 0.99973 0.96904 0.0
O34 O 0.42809 0.02755 0.9702 0.0
C35 C 0.37183 0.98793 -0.00139 0.0
C36 C 0.42703 0.01007 0.05196 0.0
O37 O 0.42649 0.0244 0.04168 0.0
O38 O 0.4195 0.99429 0.03871 0.0
C39 C 0.40327 0.05503 0.0198 0.0
O40 O 0.39089 0.04157 0.03634 0.0
C41 C 0.43301 0.01641 0.95935 0.0
Zn42 Zn 0.0668 0.6414 0.99058 0.0
Zn43 Zn 0.03215 0.63867 -0.00442 0.0
O44 O 0.05263 0.66778 -0.00733 0.0
O45 O 0.08042 0.66997 0.98298 0.0
O46 O 1.00726 0.6395 -0.00401 0.0
O47 O 0.05585 0.6222 0.9594 0.0
O48 O 0.02815 0.62181 0.96147 0.0
C49 C 0.07061 0.67798 0.98674 0.0
C50 C 0.04809 0.62511 0.04254 0.0
O51 O 0.03386 0.62613 0.03192 0.0
O52 O 0.06382 0.63155 0.02964 0.0
C53 C 0.99241 0.63055 0.01103 0.0
O54 O 0.99181 0.61832 0.02956 0.0
C55 C 0.03865 0.61619 0.9503 0.0
Zn56 Zn 0.39143 0.433 0.0003 0.0
Zn57 Zn 0.39195 0.4002 0.00269 0.0
O58 O 0.36232 0.39139 0.0018 0.0
O59 O 0.36222 0.41846 -0.00335 0.0
O60 O 0.39245 0.37516 0.00127 0.0
O61 O 0.40773 0.44195 0.96696 0.0
O62 O 0.40793 0.41483 0.96839 0.0
C63 C 0.35298 0.40026 -0.00117 0.0
C64 C 0.41037 0.4297 0.04984 0.0
O65 O 0.40647 0.41367 0.03918 0.0
O66 O 0.405 0.44015 0.03752 0.0
C67 C 0.37952 0.35899 0.01103 0.0
O68 O 0.3647 0.35791 0.02377 0.0
C69 C 0.41317 0.43109 0.95718 0.0
Zn70 Zn 0.62556 0.03474 -0.00513 0.0
Zn71 Zn 0.62864 1.00316 -0.00467 0.0
O72 O 0.65719 0.02629 -0.00557 0.0
O73 O 0.65466 0.05209 0.99066 0.0
O74 O 0.63228 0.98 -0.00276 0.0
O75 O 0.61425 0.02831 0.03244 0.0
O76 O 0.61436 1.00113 0.03128 0.0
C77 C 0.66518 0.04457 -0.00783 0.0
C78 C 0.6037 1.00821 0.95051 0.0
O79 O 0.61166 0.999 0.95987 0.0
O80 O 0.60699 0.02359 0.96217 0.0
C81 C 0.61851 0.96261 -0.00677 0.0
O82 O 0.60088 0.95916 0.98694 0.0
C83 C 0.61011 0.0124 0.04335 0.0
Zn84 Zn 0.64014 0.7242 0.35302 0.0
Zn85 Zn 0.67229 0.72175 0.34939 0.0
O86 O 0.64903 0.69336 0.35176 0.0
O87 O 0.62256 0.69524 0.35357 0.0
O88 O 0.69563 0.71801 0.34832 0.0
O89 O 0.65095 0.73958 0.38819 0.0
O90 O 0.67788 0.73872 0.38411 0.0
C91 C 0.63048 0.68513 0.35305 0.0
C92 C 0.66182 0.74179 0.30377 0.0
O93 O 0.67305 0.73607 0.31326 0.0
O94 O 0.64691 0.73838 0.31692 0.0
C95 C 0.71275 0.7308 0.34125 0.0
O96 O 0.71612 0.74787 0.33362 0.0
C97 C 0.66798 0.74442 0.39688 0.0
Zn98 Zn 0.3019 0.92293 0.34435 0.0
Zn99 Zn 0.30331 0.95642 0.34802 0.0
O100 O 0.33254 0.96453 0.34596 0.0
O101 O 0.33115 0.9366 0.34821 0.0
O102 O 0.30407 0.98166 0.35276 0.0
O103 O 0.28562 0.91265 0.37773 0.0
O104 O 0.28888 0.94122 0.38277 0.0
C105 C 0.34109 0.95486 0.34732 0.0
C106 C 0.28292 0.92992 0.29835 0.0
O107 O 0.28711 0.94501 0.31206 0.0
O108 O 0.28845 0.91867 0.3072 0.0
C109 C 0.3084 0.99412 0.33383 0.0
O110 O 0.31296 0.99087 0.30951 0.0
C111 C 0.28242 0.92401 0.3912 0.0
Zn112 Zn 0.06914 0.31954 0.33882 0.0
Zn113 Zn 0.07363 0.35407 0.34464 0.0
O114 O 0.04331 0.3347 0.34388 0.0
O115 O 0.04014 0.30643 0.33589 0.0
O116 O 0.0759 0.38036 0.34591 0.0
O117 O 0.08418 0.32695 0.3044 0.0
O118 O 0.08825 0.35592 0.30871 0.0
C119 C 0.03248 0.31654 0.33953 0.0
C120 C 0.09024 0.33889 0.38899 0.0
O121 O 0.08819 0.35264 0.37992 0.0
O122 O 0.08299 0.32324 0.37548 0.0
C123 C 0.06466 0.38377 0.35965 0.0
O124 O 0.05143 0.37003 0.375 0.0
C125 C 0.09107 0.34397 0.29563 0.0
Zn126 Zn 0.72558 0.96476 0.32458 0.0
Zn127 Zn 0.69172 0.96296 0.33235 0.0
O128 O 0.71201 0.9922 0.32829 0.0
O129 O 0.74014 0.99375 0.32452 0.0
O130 O 0.66629 0.96255 0.33593 0.0
O131 O 0.7152 0.95003 0.28913 0.0
O132 O 0.68639 0.94594 0.29773 0.0
C133 C 0.7305 1.00215 0.32583 0.0
C134 C 0.70731 0.94589 0.37522 0.0
O135 O 0.69478 0.95054 0.36809 0.0
O136 O 0.72151 0.95003 0.35991 0.0
C137 C 0.66518 0.97543 0.34925 0.0
O138 O 0.68084 0.98902 0.36235 0.0
C139 C 0.69727 0.94269 0.28279 0.0
Zn140 Zn 0.06966 0.76987 0.33318 0.0
Zn141 Zn 0.06688 0.7354 0.33001 0.0
O142 O 0.03784 0.72841 0.33186 0.0
O143 O 0.04045 0.75681 0.33548 0.0
O144 O 0.06552 0.70957 0.32671 0.0
O145 O 0.0826 0.77758 0.29658 0.0
O146 O 0.08123 0.7497 0.29463 0.0
C147 C 0.02989 0.73858 0.33423 0.0
C148 C 0.09029 0.76378 0.37769 0.0
O149 O 0.08361 0.74746 0.36577 0.0
O150 O 0.08638 0.77598 0.36774 0.0
C151 C 0.05376 0.69433 0.33967 0.0
O152 O 0.04133 0.69479 0.35632 0.0
C153 C 0.08633 0.76617 0.28425 0.0
Zn154 Zn 0.28726 0.3637 0.33229 0.0
Zn155 Zn 0.28941 0.33171 0.33296 0.0
O156 O 0.31857 0.35397 0.33301 0.0
O157 O 0.31656 0.3801 0.33022 0.0
O158 O 0.29073 0.30731 0.33717 0.0
O159 O 0.2746 0.35772 0.36884 0.0
O160 O 0.27444 0.33043 0.36791 0.0
C161 C 0.32685 0.37233 0.33165 0.0
C162 C 0.26621 0.33789 0.28677 0.0
O163 O 0.27343 0.32811 0.29656 0.0
O164 O 0.26973 0.35332 0.29851 0.0
C165 C 0.29679 0.30004 0.31976 0.0
O166 O 0.30287 0.30853 0.29587 0.0
C167 C 0.26993 0.34163 0.37957 0.0
Zn168 Zn 0.3004 0.05761 0.68622 0.0
Zn169 Zn 0.33372 0.05732 0.68582 0.0
O170 O 0.31187 0.02815 0.68623 0.0
O171 O 0.28461 0.02858 0.68792 0.0
O172 O 0.35897 0.0568 0.68829 0.0
O173 O 0.30862 0.0734 0.72102 0.0
O174 O 0.33632 0.07374 0.72031 0.0
C175 C 0.29325 0.01915 0.6873 0.0
C176 C 0.32318 0.07566 0.63787 0.0
O177 O 0.33496 0.07117 0.64907 0.0
O178 O 0.30746 0.07128 0.64958 0.0
C179 C 0.36345 0.04768 0.67167 0.0
O180 O 0.3514 0.03811 0.65097 0.0
C181 C 0.32537 0.07883 0.73148 0.0
Zn182 Zn 0.95497 0.25328 0.66627 0.0
Zn183 Zn 0.9615 0.28867 0.67274 0.0
O184 O 0.98949 0.29301 0.67018 0.0
O185 O 0.98365 0.26369 0.66231 0.0
O186 O 0.96631 0.3158 0.67724 0.0
O187 O 0.94263 0.24538 0.70276 0.0
O188 O 0.94651 0.27423 0.70791 0.0
C189 C 0.99569 0.28158 0.66554 0.0
C190 C 0.93541 0.26246 0.62477 0.0
O191 O 0.94445 0.27892 0.63667 0.0
O192 O 0.93728 0.24874 0.63374 0.0
C193 C 0.95279 0.31938 0.67191 0.0
O194 O 0.93547 0.30517 0.66383 0.0
C195 C 0.94011 0.25707 0.71659 0.0
Zn196 Zn 0.73339 0.64604 0.65917 0.0
Zn197 Zn 0.73892 0.6808 0.66694 0.0
O198 O 0.70876 0.66196 0.66484 0.0
O199 O 0.70447 0.63388 0.65254 0.0
O200 O 0.74164 0.70723 0.66988 0.0
O201 O 0.75194 0.65509 0.62824 0.0
O202 O 0.75464 0.68351 0.63196 0.0
C203 C 0.69737 0.64421 0.65832 0.0
C204 C 0.7517 0.66264 0.71188 0.0
O205 O 0.75171 0.67752 0.70277 0.0
O206 O 0.74396 0.64729 0.69757 0.0
C207 C 0.73076 0.7105 0.68473 0.0
O208 O 0.71768 0.6965 0.69992 0.0
C209 C 0.759 0.67227 0.62004 0.0
Zn210 Zn 0.40075 0.31158 0.65118 0.0
Zn211 Zn 0.36517 0.30717 0.65614 0.0
O212 O 0.38428 0.33636 0.65027 0.0
O213 O 0.41295 0.33992 0.64262 0.0
O214 O 0.33908 0.30559 0.65915 0.0
O215 O 0.38957 0.29153 0.62096 0.0
O216 O 0.36108 0.28956 0.62306 0.0
C217 C 0.40226 0.34717 0.6446 0.0
C218 C 0.38358 0.296 0.70362 0.0
O219 O 0.36896 0.29627 0.69287 0.0
O220 O 0.39925 0.30268 0.69054 0.0
C221 C 0.33758 0.31818 0.67265 0.0
O222 O 0.35311 0.332 0.68569 0.0
C223 C 0.37208 0.28443 0.61228 0.0
Zn224 Zn 0.73101 0.09613 0.66711 0.0
Zn225 Zn 0.72851 0.06181 0.66472 0.0
O226 O 0.69941 0.0548 0.667 0.0
O227 O 0.70177 0.0832 0.66699 0.0
O228 O 0.72721 0.03599 0.66156 0.0
O229 O 0.74507 0.10433 0.63155 0.0
O230 O 0.74315 0.07619 0.6294 0.0
C231 C 0.69134 0.06496 0.66731 0.0
C232 C 0.7514 0.09017 0.71231 0.0
O233 O 0.74536 0.07405 0.70014 0.0
O234 O 0.74683 0.10197 0.7026 0.0
C235 C 0.71514 0.02056 0.67387 0.0
O236 O 0.70222 0.02072 0.68981 0.0
C237 C 0.74874 0.09285 0.61931 0.0
Zn238 Zn 0.9619 0.70549 0.66558 0.0
Zn239 Zn 0.963 0.67329 0.66549 0.0
O240 O 0.99227 0.69564 0.66371 0.0
O241 O 0.99098 0.72217 0.66492 0.0
O242 O 0.96517 0.6492 0.66688 0.0
O243 O 0.94875 0.69892 0.70165 0.0
O244 O 0.9493 0.67196 0.70198 0.0
C245 C 1.00091 0.71407 0.66406 0.0
C246 C 0.94018 0.68076 0.61976 0.0
O247 O 0.94571 0.6698 0.6305 0.0
O248 O 0.94555 0.69697 0.63072 0.0
C249 C 0.95049 0.63203 0.66604 0.0
O250 O 0.93286 0.62943 0.66357 0.0
C251 C 0.94475 0.68328 0.71326 0.0
H252 H 0.1696 0.35254 0.11562 0.0
H253 H 0.15094 0.35856 0.03393 0.0
H254 H 0.13813 0.3819 0.10344 0.0
H255 H 0.15427 0.32528 0.06769 0.0
H256 H 0.16577 0.33992 0.03895 0.0
H257 H 0.17461 0.32798 0.11129 0.0
H258 H 0.23197 0.3399 0.09303 0.0
H259 H 0.20044 0.35409 0.0338 0.0
C260 C 0.16298 0.35817 0.10181 0.0
C261 C 0.15439 0.36794 0.11306 0.0
C262 C 0.16183 0.35455 0.07327 0.0
C263 C 0.15263 0.36178 0.0558 0.0
C264 C 0.14471 0.3723 0.06657 0.0
C265 C 0.14571 0.37526 0.0951 0.0
C266 C 0.16639 0.33984 0.06186 0.0
C267 C 0.18547 0.34159 0.07181 0.0
C268 C 0.18682 0.33406 0.0976 0.0
C269 C 0.20373 0.3338 0.10554 0.0
C270 C 0.21888 0.34007 0.08701 0.0
C271 C 0.21776 0.3473 0.06119 0.0
C272 C 0.2013 0.34855 0.05387 0.0
H273 H 0.68001 0.82505 0.11767 0.0
H274 H 0.65147 0.79906 0.03978 0.0
H275 H 0.65147 0.7638 0.1064 0.0
H276 H 0.6872 0.84412 0.07246 0.0
H277 H 0.67106 0.83342 0.04338 0.0
H278 H 0.66715 0.84306 0.11899 0.0
H279 H 0.64037 0.87599 0.0991 0.0
H280 H 0.65299 0.84867 0.03445 0.0
C281 C 0.6708 0.81239 0.10512 0.0
C282 C 0.66573 0.79417 0.1156 0.0
C283 C 0.6649 0.81433 0.07815 0.0
C284 C 0.65504 0.79775 0.06108 0.0
C285 C 0.65042 0.77956 0.07122 0.0
C286 C 0.65529 0.7779 0.09858 0.0
C287 C 0.67161 0.83423 0.06627 0.0
C288 C 0.66027 0.84348 0.07577 0.0
C289 C 0.66049 0.84784 0.10386 0.0
C290 C 0.65334 0.85952 0.11259 0.0
C291 C 0.64508 0.8662 0.0929 0.0
C292 C 0.6447 0.86223 0.06481 0.0
C293 C 0.65245 0.85099 0.05626 0.0
H294 H 0.18567 0.83121 0.1198 0.0
H295 H 0.17842 0.8267 0.03155 0.0
H296 H 0.12946 0.79237 0.08271 0.0
H297 H 0.21384 0.84166 0.08689 0.0
H298 H 0.21013 0.84454 0.05124 0.0
H299 H 0.19815 0.86247 0.11603 0.0
H300 H 0.24355 0.92087 0.10288 0.0
H301 H 0.23269 0.87718 0.04371 0.0
C302 C 0.1762 0.82601 0.10158 0.0
C303 C 0.15636 0.81202 0.10448 0.0
C304 C 0.18411 0.83241 0.07532 0.0
C305 C 0.17218 0.82324 0.05182 0.0
C306 C 0.15261 0.80845 0.0545 0.0
C307 C 0.14462 0.80367 0.08073 0.0
C308 C 0.20593 0.84611 0.07227 0.0
C309 C 0.2134 0.86733 0.07813 0.0
C310 C 0.20924 0.87304 0.10306 0.0
C311 C 0.22066 0.8921 0.11296 0.0
C312 C 0.23477 0.90609 0.09574 0.0
C313 C 0.23927 0.90097 0.07065 0.0
C314 C 0.22845 0.88153 0.06199 0.0
H315 H 0.39509 0.22166 0.88044 0.0
H316 H 0.39333 0.23259 0.96663 0.0
H317 H 0.37312 0.25747 0.90559 0.0
H318 H 0.41686 0.2187 0.91679 0.0
H319 H 0.41169 0.21846 0.95226 0.0
H320 H 0.38197 0.19047 0.88757 0.0
H321 H 0.36851 0.13615 0.92163 0.0
H322 H 0.40298 0.18791 0.96949 0.0
C323 C 0.3906 0.22749 0.89665 0.0
C324 C 0.38252 0.2389 0.88963 0.0
C325 C 0.39381 0.22433 0.92441 0.0
C326 C 0.3898 0.2338 0.94528 0.0
C327 C 0.38216 0.24566 0.93847 0.0
C328 C 0.37818 0.24767 0.91078 0.0
C329 C 0.40475 0.21392 0.93136 0.0
C330 C 0.39257 0.19192 0.92967 0.0
C331 C 0.38244 0.18239 0.90505 0.0
C332 C 0.37348 0.16226 0.90228 0.0
C333 C 0.37464 0.15156 0.92427 0.0
C334 C 0.38532 0.16064 0.94846 0.0
C335 C 0.39422 0.18082 0.95112 0.0
H336 H 0.86404 0.17867 0.89317 0.0
H337 H 0.87336 0.19624 0.9786 0.0
H338 H 0.8949 0.23858 0.91442 0.0
H339 H 0.86904 0.15969 0.93887 0.0
H340 H 0.85875 0.16293 0.96871 0.0
H341 H 0.84852 0.14746 0.89393 0.0
H342 H 0.78753 0.10866 0.90626 0.0
H343 H 0.82382 0.14528 0.97283 0.0
C344 C 0.86891 0.18965 0.90884 0.0
C345 C 0.87897 0.20904 0.90057 0.0
C346 C 0.86625 0.18465 0.93695 0.0
C347 C 0.87418 0.19965 0.95686 0.0
C348 C 0.88465 0.2191 0.9487 0.0
C349 C 0.88643 0.22358 0.92062 0.0
C350 C 0.85859 0.16389 0.94584 0.0
C351 C 0.83843 0.14916 0.93425 0.0
C352 C 0.83606 0.14222 0.90696 0.0
C353 C 0.81766 0.12791 0.89656 0.0
C354 C 0.80185 0.11964 0.91414 0.0
C355 C 0.80401 0.12541 0.94172 0.0
C356 C 0.82215 0.14068 0.95153 0.0
H357 H 0.84999 0.64287 0.88325 0.0
H358 H 0.85837 0.63419 0.9691 0.0
H359 H 0.90715 0.66019 0.91543 0.0
H360 H 0.82274 0.61648 0.91487 0.0
H361 H 0.82601 0.62075 0.95098 0.0
H362 H 0.82169 0.64153 0.88299 0.0
H363 H 0.78931 0.66437 0.91755 0.0
H364 H 0.81503 0.64007 0.97083 0.0
C365 C 0.8595 0.64494 0.90079 0.0
C366 C 0.87953 0.65304 0.89662 0.0
C367 C 0.85172 0.63878 0.92711 0.0
C368 C 0.86427 0.63999 0.94911 0.0
C369 C 0.88432 0.64785 0.94498 0.0
C370 C 0.89183 0.65479 0.91891 0.0
C371 C 0.82981 0.62814 0.9307 0.0
C372 C 0.82096 0.64082 0.92756 0.0
C373 C 0.81738 0.6459 0.90112 0.0
C374 C 0.80631 0.65475 0.8977 0.0
C375 C 0.79882 0.65863 0.9208 0.0
C376 C 0.80149 0.65311 0.9473 0.0
C377 C 0.81315 0.64475 0.9506 0.0
H378 H 0.83935 0.68084 0.44375 0.0
H379 H 0.82419 0.68986 0.36129 0.0
H380 H 0.81033 0.71233 0.43108 0.0
H381 H 0.82764 0.65604 0.39382 0.0
H382 H 0.83986 0.67182 0.36631 0.0
H383 H 0.84661 0.65833 0.43868 0.0
H384 H 0.90648 0.67598 0.42701 0.0
H385 H 0.87459 0.68601 0.36308 0.0
C386 C 0.83389 0.68737 0.42956 0.0
C387 C 0.82542 0.69729 0.44053 0.0
C388 C 0.83401 0.68485 0.40089 0.0
C389 C 0.82533 0.69257 0.38327 0.0
C390 C 0.81719 0.70294 0.39405 0.0
C391 C 0.81772 0.7055 0.42262 0.0
C392 C 0.83962 0.67095 0.38918 0.0
C393 C 0.85869 0.67315 0.40033 0.0
C394 C 0.8595 0.66555 0.42632 0.0
C395 C 0.87681 0.66685 0.43631 0.0
C396 C 0.89293 0.67454 0.41927 0.0
C397 C 0.89215 0.68091 0.3926 0.0
C398 C 0.87522 0.68087 0.38355 0.0
H399 H 0.34912 0.15998 0.4521 0.0
H400 H 0.32968 0.13819 0.36931 0.0
H401 H 0.32083 0.09934 0.43575 0.0
H402 H 0.36327 0.18062 0.40668 0.0
H403 H 0.34834 0.17212 0.37616 0.0
H404 H 0.34901 0.18674 0.45 0.0
H405 H 0.31574 0.21334 0.43103 0.0
H406 H 0.32647 0.18364 0.36732 0.0
C407 C 0.34133 0.14809 0.43782 0.0
C408 C 0.33472 0.12929 0.44735 0.0
C409 C 0.33899 0.15152 0.40977 0.0
C410 C 0.33064 0.13577 0.39114 0.0
C411 C 0.32416 0.11696 0.40051 0.0
C412 C 0.32583 0.11388 0.4286 0.0
C413 C 0.34783 0.17204 0.39903 0.0
C414 C 0.33742 0.18228 0.40817 0.0
C415 C 0.33991 0.18901 0.43547 0.0
C416 C 0.33172 0.19978 0.44394 0.0
C417 C 0.32114 0.20412 0.42482 0.0
C418 C 0.31947 0.1987 0.39708 0.0
C419 C 0.32741 0.18754 0.38884 0.0
H420 H 0.84628 0.15987 0.45017 0.0
H421 H 0.83208 0.15374 0.36324 0.0
H422 H 0.78864 0.11788 0.42147 0.0
H423 H 0.8716 0.16958 0.41297 0.0
H424 H 0.8651 0.17121 0.37811 0.0
H425 H 0.85795 0.19136 0.44484 0.0
H426 H 0.90317 0.24895 0.42622 0.0
H427 H 0.88683 0.20344 0.36751 0.0
C428 C 0.83556 0.1538 0.43339 0.0
C429 C 0.81643 0.13906 0.43902 0.0
C430 C 0.84119 0.15978 0.40611 0.0
C431 C 0.82756 0.15003 0.38433 0.0
C432 C 0.80867 0.13449 0.38958 0.0
C433 C 0.80312 0.12976 0.41704 0.0
C434 C 0.86254 0.17348 0.39979 0.0
C435 C 0.87033 0.19484 0.40475 0.0
C436 C 0.86794 0.20146 0.43018 0.0
C437 C 0.87977 0.22094 0.43816 0.0
C438 C 0.89319 0.23419 0.41956 0.0
C439 C 0.89581 0.22807 0.39396 0.0
C440 C 0.88418 0.20841 0.38664 0.0
H441 H 0.06029 0.54992 0.21717 0.0
H442 H 0.06403 0.56514 0.30278 0.0
H443 H 0.039 0.58607 0.24288 0.0
H444 H 0.08622 0.55133 0.2525 0.0
H445 H 0.0812 0.55013 0.28809 0.0
H446 H 0.05871 0.52267 0.22061 0.0
H447 H 0.04182 0.46817 0.25728 0.0
H448 H 0.06856 0.51928 0.30777 0.0
C449 C 0.05663 0.55625 0.2336 0.0
C450 C 0.04793 0.56715 0.22684 0.0
C451 C 0.06187 0.5547 0.26106 0.0
C452 C 0.0589 0.56501 0.28184 0.0
C453 C 0.05038 0.57613 0.2753 0.0
C454 C 0.04454 0.57664 0.248 0.0
C455 C 0.07411 0.54552 0.26728 0.0
C456 C 0.06319 0.52356 0.26495 0.0
C457 C 0.05666 0.51433 0.23899 0.0
C458 C 0.04892 0.49439 0.23613 0.0
C459 C 0.04757 0.48354 0.25947 0.0
C460 C 0.05477 0.49236 0.28524 0.0
C461 C 0.06248 0.51237 0.28799 0.0
H462 H 0.5335 0.51143 0.23454 0.0
H463 H 0.53401 0.52644 0.31965 0.0
H464 H 0.56569 0.57062 0.26026 0.0
H465 H 0.52678 0.48793 0.27473 0.0
H466 H 0.52104 0.49333 0.30733 0.0
H467 H 0.50355 0.48879 0.23177 0.0
H468 H 0.44398 0.45015 0.25134 0.0
H469 H 0.4875 0.4738 0.31664 0.0
C470 C 0.53715 0.52216 0.25032 0.0
C471 C 0.54902 0.54177 0.24363 0.0
C472 C 0.5308 0.51635 0.27744 0.0
C473 C 0.53767 0.53061 0.29839 0.0
C474 C 0.55057 0.55014 0.2921 0.0
C475 C 0.55557 0.55553 0.26475 0.0
C476 C 0.51969 0.49499 0.28475 0.0
C477 C 0.49823 0.48396 0.27558 0.0
C478 C 0.49277 0.48182 0.24731 0.0
C479 C 0.47319 0.47009 0.23863 0.0
C480 C 0.45905 0.45975 0.25812 0.0
C481 C 0.46411 0.46075 0.28608 0.0
C482 C 0.48361 0.47322 0.29496 0.0
H483 H 0.51835 0.97505 0.21723 0.0
H484 H 0.53099 0.97835 0.30451 0.0
H485 H 0.5765 0.99374 0.24696 0.0
H486 H 0.49226 0.957 0.25204 0.0
H487 H 0.49784 0.96235 0.28779 0.0
H488 H 0.50317 0.99143 0.2225 0.0
H489 H 0.46366 1.00802 0.25127 0.0
H490 H 0.48038 0.97584 0.30393 0.0
C491 C 0.52882 0.97933 0.23427 0.0
C492 C 0.54831 0.9854 0.22886 0.0
C493 C 0.52254 0.97756 0.26151 0.0
C494 C 0.53589 0.98089 0.28348 0.0
C495 C 0.55534 0.98655 0.27824 0.0
C496 C 0.5615 0.98935 0.25099 0.0
C497 C 0.50103 0.96898 0.26696 0.0
C498 C 0.49382 0.98307 0.26421 0.0
C499 C 0.49495 0.99234 0.23901 0.0
C500 C 0.48423 1.00155 0.23409 0.0
C501 C 0.47299 1.00215 0.25532 0.0
C502 C 0.47155 0.99298 0.28054 0.0
C503 C 0.48217 0.98366 0.28493 0.0
H504 H 0.50606 0.01838 0.77759 0.0
H505 H 0.48332 0.0202 0.69665 0.0
H506 H 0.473 0.046 0.76588 0.0
H507 H 0.49061 0.98998 0.72879 0.0
H508 H 0.50238 1.00544 0.7009 0.0
H509 H 0.51044 0.99329 0.77359 0.0
H510 H 0.56899 1.00765 0.75805 0.0
H511 H 0.53725 0.0202 0.69692 0.0
C512 C 0.49879 0.02325 0.76363 0.0
C513 C 0.49025 0.03307 0.77475 0.0
C514 C 0.49679 0.01874 0.73529 0.0
C515 C 0.486 0.02443 0.71819 0.0
C516 C 0.47781 0.03472 0.729 0.0
C517 C 0.48038 0.03923 0.75716 0.0
C518 C 0.50248 1.00486 0.7238 0.0
C519 C 0.52172 1.00721 0.73443 0.0
C520 C 0.52291 0.99978 0.76037 0.0
C521 C 0.54008 1.00032 0.76917 0.0
C522 C 0.5557 1.00723 0.75135 0.0
C523 C 0.55475 0.01432 0.72536 0.0
C524 C 0.53796 0.01474 0.71711 0.0
H525 H 1.00071 0.49003 0.78607 0.0
H526 H 0.98624 0.46868 0.70231 0.0
H527 H 0.97193 0.42944 0.76997 0.0
H528 H 0.01911 0.50993 0.73863 0.0
H529 H 1.0032 0.50251 0.70911 0.0
H530 H 1.0099 0.52031 0.78218 0.0
H531 H 0.97719 0.5481 0.76821 0.0
H532 H 0.98146 0.51481 0.70316 0.0
C533 C 0.99379 0.47832 0.77138 0.0
C534 C 0.98563 0.45938 0.78121 0.0
C535 C 0.99337 0.48196 0.74292 0.0
C536 C 0.98568 0.46619 0.72431 0.0
C537 C 0.97785 0.44721 0.73405 0.0
C538 C 0.97748 0.444 0.76245 0.0
C539 C 1.00344 0.50255 0.73203 0.0
C540 C 0.99511 0.5145 0.7423 0.0
C541 C 1.00004 0.52247 0.76906 0.0
C542 C 0.99297 0.53394 0.77876 0.0
C543 C 0.98166 0.5383 0.76113 0.0
C544 C 0.97784 0.53193 0.73367 0.0
C545 C 0.98427 0.51968 0.72441 0.0
H546 H 0.51694 0.49138 0.79391 0.0
H547 H 0.50485 0.48508 0.70695 0.0
H548 H 0.45781 0.4623 0.76402 0.0
H549 H 0.54282 0.49985 0.75747 0.0
H550 H 0.53758 0.50316 0.72258 0.0
H551 H 0.53276 0.52239 0.79193 0.0
H552 H 0.57448 0.58071 0.7727 0.0
H553 H 0.56012 0.53576 0.71335 0.0
C554 C 0.50657 0.48744 0.77681 0.0
C555 C 0.4866 0.47645 0.78191 0.0
C556 C 0.51311 0.49255 0.74968 0.0
C557 C 0.49949 0.48335 0.7276 0.0
C558 C 0.47942 0.47081 0.73262 0.0
C559 C 0.47323 0.46981 0.75968 0.0
C560 C 0.53484 0.50504 0.74433 0.0
C561 C 0.54377 0.52649 0.75071 0.0
C562 C 0.54197 0.53264 0.7769 0.0
C563 C 0.55333 0.55203 0.78518 0.0
C564 C 0.56574 0.56574 0.76627 0.0
C565 C 0.56868 0.5601 0.74041 0.0
C566 C 0.55737 0.54045 0.73264 0.0
H567 H 0.72838 0.87997 0.55295 0.0
H568 H 0.72897 0.89349 0.63864 0.0
H569 H 0.70222 0.91194 0.57738 0.0
H570 H 0.75339 0.88129 0.58989 0.0
H571 H 0.74721 0.87929 0.62513 0.0
H572 H 0.72669 0.85273 0.55642 0.0
H573 H 0.71006 0.79789 0.59161 0.0
H574 H 0.73547 0.8482 0.64362 0.0
C575 C 0.72349 0.88524 0.56932 0.0
C576 C 0.71354 0.89486 0.56227 0.0
C577 C 0.7282 0.88359 0.597 0.0
C578 C 0.72407 0.8932 0.61752 0.0
C579 C 0.71467 0.90347 0.61051 0.0
C580 C 0.7088 0.90348 0.58304 0.0
C581 C 0.74082 0.87492 0.60391 0.0
C582 C 0.73051 0.85301 0.60085 0.0
C583 C 0.72452 0.84417 0.57457 0.0
C584 C 0.71714 0.82432 0.57112 0.0
C585 C 0.71559 0.8132 0.5942 0.0
C586 C 0.72236 0.82166 0.62024 0.0
C587 C 0.72973 0.84156 0.62359 0.0
H588 H 0.20795 0.8468 0.56593 0.0
H589 H 0.20347 0.8609 0.64972 0.0
H590 H 0.22789 0.90537 0.58866 0.0
H591 H 0.20437 0.8251 0.60779 0.0
H592 H 0.19504 0.82856 0.63871 0.0
H593 H 0.18341 0.81605 0.56301 0.0
H594 H 0.12167 0.78165 0.57526 0.0
H595 H 0.1602 0.81341 0.64326 0.0
C596 C 0.20924 0.85713 0.58108 0.0
C597 C 0.21825 0.8767 0.57388 0.0
C598 C 0.20313 0.85107 0.60816 0.0
C599 C 0.20701 0.86512 0.62845 0.0
C600 C 0.21602 0.88474 0.62134 0.0
C601 C 0.22095 0.89021 0.59399 0.0
C602 C 0.19481 0.83007 0.61594 0.0
C603 C 0.17426 0.8169 0.60431 0.0
C604 C 0.17114 0.81111 0.57636 0.0
C605 C 0.15221 0.79838 0.5657 0.0
C606 C 0.1364 0.7913 0.58327 0.0
C607 C 0.13919 0.7965 0.61112 0.0
C608 C 0.15809 0.8094 0.62166 0.0
H609 H 0.17967 0.30604 0.55745 0.0
H610 H 0.19849 0.31562 0.64291 0.0
H611 H 0.23956 0.32664 0.57998 0.0
H612 H 0.15648 0.29035 0.59737 0.0
H613 H 0.16465 0.29977 0.63133 0.0
H614 H 0.16947 0.32676 0.56367 0.0
H615 H 0.1244 0.3376 0.5846 0.0
H616 H 0.14199 0.30851 0.64214 0.0
C617 C 0.19127 0.31148 0.57307 0.0
C618 C 0.21027 0.31712 0.56533 0.0
C619 C 0.187 0.3119 0.60093 0.0
C620 C 0.20182 0.31663 0.62126 0.0
C621 C 0.22074 0.32172 0.6137 0.0
C622 C 0.22491 0.32257 0.58577 0.0
C623 C 0.16602 0.3039 0.60922 0.0
C624 C 0.15768 0.31697 0.60418 0.0
C625 C 0.1596 0.32628 0.57872 0.0
C626 C 0.14783 0.33403 0.57161 0.0
C627 C 0.13452 0.33301 0.59074 0.0
C628 C 0.13232 0.32399 0.61631 0.0
C629 C 0.14412 0.31618 0.62293 0.0
H630 H 0.03434 0.42996 0.08405 0.0
H631 H 0.97879 0.42503 0.09831 0.0
H632 H 0.04875 0.45197 0.12342 0.0
H633 H 0.99305 0.44661 0.13776 0.0
H634 H 0.02723 0.49809 0.19435 0.0
H635 H 0.01607 0.47995 0.1509 0.0
H636 H 0.04688 0.45059 0.17308 0.0
H637 H 0.0585 0.46911 0.21575 0.0
C638 C 0.02519 0.4335 0.09561 0.0
C639 C 1.00539 0.42565 0.08805 0.0
C640 C 0.03344 0.4461 0.11819 0.0
C641 C 0.02208 0.45113 0.1337 0.0
C642 C 1.00232 0.44334 0.12601 0.0
C643 C 0.99409 0.43078 0.1035 0.0
C644 C 0.03183 0.48797 0.18967 0.0
C645 C 0.04347 0.4848 0.20864 0.0
C646 C 0.02531 0.47746 0.16493 0.0
C647 C 0.03042 0.46366 0.15863 0.0
C648 C 0.04275 0.46115 0.17714 0.0
C649 C 0.04921 0.4716 0.20178 0.0
H650 H 0.62416 0.57322 0.10563 0.0
H651 H 0.59133 0.60068 0.08509 0.0
H652 H 0.60601 0.56053 0.14749 0.0
H653 H 0.57211 0.58698 0.12633 0.0
H654 H 0.55435 0.57398 0.21659 0.0
H655 H 0.57145 0.58745 0.17416 0.0
H656 H 0.57578 0.53679 0.16267 0.0
H657 H 0.56037 0.52423 0.20641 0.0
C658 C 0.61298 0.57651 0.11016 0.0
C659 C 0.60913 0.58792 0.09221 0.0
C660 C 0.60234 0.569 0.13398 0.0
C661 C 0.58721 0.57231 0.14015 0.0
C662 C 0.58371 0.5842 0.12244 0.0
C663 C 0.59471 0.59209 0.09881 0.0
C664 C 0.55907 0.56576 0.20509 0.0
C665 C 0.55629 0.54817 0.2153 0.0
C666 C 0.56867 0.57339 0.18048 0.0
C667 C 0.57539 0.56344 0.16508 0.0
C668 C 0.57139 0.54521 0.17435 0.0
C669 C 0.56214 0.53776 0.19926 0.0
H670 H 0.42194 0.98026 0.0838 0.0
H671 H 0.45403 0.04262 0.08131 0.0
H672 H 0.43906 0.98121 0.12612 0.0
H673 H 0.4718 0.04359 0.12404 0.0
H674 H 0.48016 0.03221 0.21813 0.0
H675 H 0.46784 0.0363 0.17357 0.0
H676 H 0.47095 0.98852 0.1407 0.0
H677 H 0.48179 0.9835 0.18531 0.0
C678 C 0.43277 0.99424 0.09225 0.0
C679 C 0.43674 0.01137 0.07899 0.0
C680 C 0.44276 0.99478 0.11648 0.0
C681 C 0.4572 0.01246 0.12816 0.0
C682 C 0.46082 0.02972 0.11548 0.0
C683 C 0.45064 0.02918 0.09108 0.0
C684 C 0.47834 0.02265 0.20132 0.0
C685 C 0.48163 1.00726 0.20566 0.0
C686 C 0.47145 0.02514 0.17568 0.0
C687 C 0.4679 0.01242 0.15376 0.0
C688 C 0.47298 0.99824 0.15739 0.0
C689 C 0.47958 0.99559 0.183 0.0
H690 H 0.43746 0.04233 0.91912 0.0
H691 H 0.45761 1.00428 0.94569 0.0
H692 H 0.45561 0.04889 0.87677 0.0
H693 H 0.4765 0.0115 0.90432 0.0
H694 H 0.4956 0.06363 0.80605 0.0
H695 H 0.48564 0.06251 0.85349 0.0
H696 H 0.46901 1.00247 0.85803 0.0
H697 H 0.4794 1.00384 0.8113 0.0
C698 C 0.44612 0.03572 0.91615 0.0
C699 C 0.44585 0.02254 0.93541 0.0
C700 C 0.45664 0.03956 0.89197 0.0
C701 C 0.46736 0.03052 0.88685 0.0
C702 C 0.46802 0.01831 0.90711 0.0
C703 C 0.45724 0.01423 0.93092 0.0
C704 C 0.49024 0.05036 0.81754 0.0
C705 C 0.4883 0.03383 0.80497 0.0
C706 C 0.48436 0.04965 0.84461 0.0
C707 C 0.47629 0.03235 0.85961 0.0
C708 C 0.47541 0.01616 0.84743 0.0
C709 C 0.48142 0.01693 0.82052 0.0
H710 H 0.96259 0.42106 0.95093 0.0
H711 H 1.0142 0.41952 0.93125 0.0
H712 H 0.96363 0.4358 0.90683 0.0
H713 H 0.01505 0.43425 0.88651 0.0
H714 H 0.01765 0.47494 0.81635 0.0
H715 H 0.01937 0.46463 0.86359 0.0
H716 H 0.95726 0.42354 0.85919 0.0
H717 H 0.9556 0.43391 0.81245 0.0
C718 C 0.97423 0.42389 0.93724 0.0
C719 C 0.9882 0.41886 0.94459 0.0
C720 C 0.97477 0.43233 0.91187 0.0
C721 C 0.98929 0.43603 0.89307 0.0
C722 C 1.00373 0.43167 0.90066 0.0
C723 C 1.00317 0.42312 0.92619 0.0
C724 C 1.00436 0.46399 0.82581 0.0
C725 C 0.98647 0.45525 0.81087 0.0
C726 C 1.00537 0.45793 0.85264 0.0
C727 C 0.98847 0.44324 0.86508 0.0
C728 C 0.97052 0.43501 0.85034 0.0
C729 C 0.96955 0.4409 0.82355 0.0
H730 H 0.57716 0.55968 0.96138 0.0
H731 H 0.61399 0.61695 0.92907 0.0
H732 H 0.55815 0.54971 0.91833 0.0
H733 H 0.59558 0.60673 0.8852 0.0
H734 H 0.55644 0.5844 0.80915 0.0
H735 H 0.56618 0.59524 0.85699 0.0
H736 H 0.56595 0.54268 0.87534 0.0
H737 H 0.55629 0.532 0.82835 0.0
C738 C 0.58109 0.57017 0.94504 0.0
C739 C 0.59724 0.58897 0.94829 0.0
C740 C 0.57025 0.56445 0.92033 0.0
C741 C 0.57559 0.57726 0.89803 0.0
C742 C 0.59098 0.59649 0.90195 0.0
C743 C 0.60162 0.60234 0.927 0.0
C744 C 0.55812 0.57506 0.82364 0.0
C745 C 0.55548 0.55729 0.81489 0.0
C746 C 0.56377 0.58129 0.85099 0.0
C747 C 0.56689 0.56987 0.87008 0.0
C748 C 0.5633 0.55173 0.86152 0.0
C749 C 0.55767 0.54553 0.83438 0.0
H750 H 0.05288 0.59443 0.93115 0.0
H751 H 1.00687 0.60685 0.91657 0.0
H752 H 0.04087 0.57235 0.89209 0.0
H753 H 0.99528 0.58532 0.8766 0.0
H754 H 0.96959 0.53455 0.81799 0.0
H755 H 0.97973 0.55276 0.86124 0.0
H756 H 0.04012 0.57336 0.84365 0.0
H757 H 0.02981 0.55462 0.80105 0.0
C758 C 0.04025 0.59253 0.91946 0.0
C759 C 0.03089 0.60249 0.92682 0.0
C760 C 0.0334 0.57991 0.89696 0.0
C761 C 0.01719 0.57712 0.88099 0.0
C762 C 1.00764 0.58688 0.88863 0.0
C763 C 1.01435 0.59934 0.91142 0.0
C764 C 0.985 0.54279 0.82369 0.0
C765 C 0.99893 0.54316 0.80631 0.0
C766 C 0.99084 0.55335 0.84831 0.0
C767 C 1.01076 0.56468 0.8559 0.0
C768 C 0.02463 0.56458 0.83876 0.0
C769 C 0.01876 0.55385 0.81431 0.0
H770 H 0.42741 0.46531 0.93021 0.0
H771 H 0.4284 0.41231 0.93008 0.0
H772 H 0.4481 0.47649 0.89047 0.0
H773 H 0.44953 0.42377 0.89033 0.0
H774 H 0.46073 0.43991 0.79777 0.0
H775 H 0.44529 0.42918 0.842 0.0
H776 H 0.4809 0.48726 0.87421 0.0
H777 H 0.4961 0.49813 0.82928 0.0
C778 C 0.43214 0.45606 0.92182 0.0
C779 C 0.42606 0.4378 0.9332 0.0
C780 C 0.44422 0.46261 0.89918 0.0
C781 C 0.45054 0.45108 0.88729 0.0
C782 C 0.44477 0.43294 0.89892 0.0
C783 C 0.43267 0.42637 0.92167 0.0
C784 C 0.46533 0.45038 0.81436 0.0
C785 C 0.47932 0.46993 0.81001 0.0
C786 C 0.45665 0.44418 0.8398 0.0
C787 C 0.46175 0.45737 0.86157 0.0
C788 C 0.47648 0.4768 0.85767 0.0
C789 C 0.48527 0.48302 0.8321 0.0
H790 H 0.60815 0.99411 0.90206 0.0
H791 H 0.56941 1.00703 0.94412 0.0
H792 H 0.58882 0.98813 0.85951 0.0
H793 H 0.54913 0.99968 0.90247 0.0
H794 H 0.54985 0.97392 0.78562 0.0
H795 H 0.56134 0.97092 0.83148 0.0
H796 H 0.55016 0.01445 0.86175 0.0
H797 H 0.5376 0.01631 0.81643 0.0
C798 C 0.59513 0.99508 0.90232 0.0
C799 C 0.59038 1.00126 0.92613 0.0
C800 C 0.58391 0.99155 0.87797 0.0
C801 C 0.56743 0.99368 0.87719 0.0
C802 C 0.562 0.99849 0.90181 0.0
C803 C 0.57351 1.00253 0.92582 0.0
C804 C 0.54932 0.98233 0.80245 0.0
C805 C 0.54282 0.99529 0.79764 0.0
C806 C 0.55616 0.98086 0.82866 0.0
C807 C 0.55709 0.99268 0.8505 0.0
C808 C 0.54949 1.00485 0.84581 0.0
C809 C 0.54227 1.00599 0.81976 0.0
H810 H 0.59584 0.97832 0.07165 0.0
H811 H 0.60119 0.03431 0.07499 0.0
H812 H 0.57853 0.96969 0.115 0.0
H813 H 0.58441 0.02588 0.11829 0.0
H814 H 0.53977 1.0008 0.18402 0.0
H815 H 0.55282 1.00534 0.13788 0.0
H816 H 0.58531 0.97827 0.16333 0.0
H817 H 0.57162 0.97298 0.2089 0.0
C818 C 0.5934 0.9888 0.08164 0.0
C819 C 0.59993 1.007 0.06985 0.0
C820 C 0.58352 0.98387 0.10649 0.0
C821 C 0.57998 0.99706 0.12003 0.0
C822 C 0.58652 0.01523 0.10816 0.0
C823 C 0.59633 0.02012 0.0834 0.0
C824 C 0.54944 0.99554 0.17958 0.0
C825 C 0.55491 0.98681 0.20021 0.0
C826 C 0.55706 0.9983 0.15325 0.0
C827 C 0.5703 0.99237 0.14702 0.0
C828 C 0.5751 0.98292 0.16736 0.0
C829 C 0.56745 0.98013 0.19361 0.0
H830 H 0.07772 0.63063 0.07732 0.0
H831 H 0.01478 0.59847 0.06851 0.0
H832 H 0.07575 0.61424 0.12019 0.0
H833 H 1.01273 0.5812 0.11114 0.0
H834 H 0.01801 0.5708 0.20439 0.0
H835 H 0.01695 0.584 0.15959 0.0
H836 H 0.06924 0.58453 0.13752 0.0
H837 H 0.07126 0.57299 0.18297 0.0
C838 C 0.06342 0.61992 0.08452 0.0
C839 C 0.0464 0.6158 0.06951 0.0
C840 C 0.06228 0.61032 0.109 0.0
C841 C 0.04409 0.59605 0.11899 0.0
C842 C 0.02699 0.59215 0.10419 0.0
C843 C 0.02814 0.60203 0.07977 0.0
C844 C 0.02929 0.57373 0.18996 0.0
C845 C 0.04492 0.57113 0.19763 0.0
C846 C 0.02855 0.58111 0.16408 0.0
C847 C 0.04326 0.58578 0.14505 0.0
C848 C 0.05798 0.58169 0.15193 0.0
C849 C 0.05892 0.57465 0.17793 0.0
H850 H 0.42109 0.46335 0.07651 0.0
H851 H 0.425 0.41204 0.08316 0.0
H852 H 0.43881 0.47505 0.12017 0.0
H853 H 0.44265 0.4238 0.12748 0.0
H854 H 0.48771 0.45929 0.19659 0.0
H855 H 0.47412 0.45033 0.14939 0.0
H856 H 0.4308 0.46507 0.16807 0.0
H857 H 0.44449 0.47415 0.21473 0.0
C858 C 0.42571 0.45451 0.08728 0.0
C859 C 0.42144 0.43663 0.0764 0.0
C860 C 0.43587 0.46126 0.11237 0.0
C861 C 0.44204 0.45032 0.12733 0.0
C862 C 0.43821 0.43263 0.11627 0.0
C863 C 0.42797 0.42582 0.09103 0.0
C864 C 0.47557 0.46098 0.19027 0.0
C865 C 0.46714 0.46744 0.20915 0.0
C866 C 0.46765 0.45564 0.16346 0.0
C867 C 0.45135 0.45691 0.15509 0.0
C868 C 0.44347 0.46409 0.17378 0.0
C869 C 0.45125 0.46924 0.2005 0.0
H870 H 0.64971 0.75685 0.43027 0.0
H871 H 0.70531 0.76123 0.41884 0.0
H872 H 0.66322 0.77801 0.47023 0.0
H873 H 0.71901 0.78291 0.45862 0.0
H874 H 0.72735 0.79953 0.55074 0.0
H875 H 0.71647 0.78146 0.50772 0.0
H876 H 0.6858 0.81085 0.48482 0.0
H877 H 0.69611 0.82844 0.52873 0.0
C878 C 0.66488 0.76241 0.43618 0.0
C879 C 0.67639 0.75722 0.4214 0.0
C880 C 0.67268 0.77474 0.45899 0.0
C881 C 0.69224 0.78228 0.46761 0.0
C882 C 0.70383 0.77721 0.45272 0.0
C883 C 0.69598 0.76479 0.42989 0.0
C884 C 0.71824 0.80212 0.53655 0.0
C885 C 0.71225 0.81514 0.54336 0.0
C886 C 0.71221 0.79192 0.51169 0.0
C887 C 0.70012 0.79455 0.49285 0.0
C888 C 0.69483 0.80823 0.49909 0.0
C889 C 0.70087 0.81845 0.52409 0.0
H890 H 0.27755 0.94526 0.4304 0.0
H891 H 0.26189 0.88697 0.40974 0.0
H892 H 0.26035 0.93364 0.47364 0.0
H893 H 0.24487 0.8755 0.45286 0.0
H894 H 0.202 0.86003 0.52347 0.0
H895 H 0.21596 0.87156 0.47808 0.0
H896 H 0.26682 0.9201 0.51651 0.0
H897 H 0.25326 0.9085 0.56155 0.0
C898 C 0.27036 0.92999 0.43498 0.0
C899 C 0.27124 0.91708 0.41676 0.0
C900 C 0.26057 0.92335 0.45974 0.0
C901 C 0.25132 0.90367 0.4666 0.0
C902 C 0.2517 0.8907 0.448 0.0
C903 C 0.26161 0.89734 0.42341 0.0
C904 C 0.21618 0.87311 0.52218 0.0
C905 C 0.22639 0.88345 0.54612 0.0
C906 C 0.22413 0.87973 0.49624 0.0
C907 C 0.24237 0.89685 0.4938 0.0
C908 C 0.25254 0.90712 0.51771 0.0
C909 C 0.24472 0.90045 0.54353 0.0
H910 H 0.1152 0.3719 0.41891 0.0
H911 H 0.09035 0.31009 0.41794 0.0
H912 H 0.13425 0.37432 0.46079 0.0
H913 H 0.10859 0.31236 0.45967 0.0
H914 H 0.14999 0.31789 0.52335 0.0
H915 H 0.14006 0.32231 0.47758 0.0
H916 H 0.1308 0.36678 0.5088 0.0
H917 H 0.1423 0.36345 0.55429 0.0
C918 C 0.11371 0.35885 0.42769 0.0
C919 C 0.10131 0.34082 0.415 0.0
C920 C 0.12463 0.36022 0.45166 0.0
C921 C 0.12325 0.34357 0.46345 0.0
C922 C 0.1106 0.32559 0.45083 0.0
C923 C 0.0999 0.32425 0.42694 0.0
C924 C 0.14663 0.32917 0.52038 0.0
C925 C 0.14656 0.34001 0.5428 0.0
C926 C 0.14055 0.33147 0.49411 0.0
C927 C 0.13391 0.3444 0.48963 0.0
C928 C 0.13563 0.35655 0.51143 0.0
C929 C 0.14204 0.35449 0.53765 0.0
H930 H 0.12003 0.38006 0.27948 0.0
H931 H 0.08744 0.32018 0.25418 0.0
H932 H 0.13986 0.38799 0.23841 0.0
H933 H 0.10622 0.32803 0.21293 0.0
H934 H 0.14799 0.33959 0.15038 0.0
H935 H 0.13641 0.33613 0.19664 0.0
H936 H 0.13989 0.3912 0.19022 0.0
H937 H 0.15358 0.39568 0.14484 0.0
C938 C 0.11698 0.36867 0.26498 0.0
C939 C 0.10231 0.3495 0.2701 0.0
C940 C 0.12832 0.37317 0.24145 0.0
C941 C 0.12496 0.35861 0.22245 0.0
C942 C 0.10983 0.33957 0.22743 0.0
C943 C 0.09884 0.33507 0.25101 0.0
C944 C 0.14711 0.3514 0.15905 0.0
C945 C 0.15137 0.36776 0.14333 0.0
C946 C 0.13998 0.34919 0.18555 0.0
C947 C 0.13639 0.363 0.19687 0.0
C948 C 0.14223 0.38013 0.1822 0.0
C949 C 0.14986 0.38258 0.1559 0.0
H950 H 0.64034 0.75541 0.27897 0.0
H951 H 0.69243 0.75265 0.26898 0.0
H952 H 0.64563 0.77182 0.23532 0.0
H953 H 0.69802 0.76967 0.22511 0.0
H954 H 0.68115 0.77237 0.13269 0.0
H955 H 0.68337 0.76262 0.17951 0.0
H956 H 0.66546 0.80097 0.21036 0.0
H957 H 0.66241 0.81009 0.16315 0.0
C958 C 0.65308 0.75848 0.26758 0.0
C959 C 0.66587 0.75252 0.27744 0.0
C960 C 0.65624 0.76814 0.24259 0.0
C961 C 0.67232 0.77221 0.22667 0.0
C962 C 0.68539 0.76663 0.23674 0.0
C963 C 0.68221 0.7569 0.26189 0.0
C964 C 0.67787 0.77887 0.14951 0.0
C965 C 0.67115 0.79165 0.14421 0.0
C966 C 0.67936 0.77344 0.17642 0.0
C967 C 0.67427 0.78074 0.19874 0.0
C968 C 0.66908 0.79473 0.19358 0.0
C969 C 0.66753 0.80014 0.16658 0.0
H970 H 0.26147 0.94534 0.27747 0.0
H971 H 0.27761 0.90305 0.26058 0.0
H972 H 0.24067 0.93525 0.2355 0.0
H973 H 0.25761 0.8935 0.21887 0.0
H974 H 0.21376 0.86765 0.15667 0.0
H975 H 0.22441 0.87666 0.20376 0.0
H976 H 0.24235 0.93584 0.18553 0.0
H977 H 0.22962 0.92649 0.13851 0.0
C978 C 0.26066 0.934 0.26476 0.0
C979 C 0.27108 0.9249 0.27244 0.0
C980 C 0.24874 0.9282 0.24078 0.0
C981 C 0.2471 0.91326 0.2241 0.0
C982 C 0.25791 0.90457 0.23165 0.0
C983 C 0.26962 0.91022 0.2555 0.0
C984 C 0.21901 0.88244 0.16257 0.0
C985 C 0.2214 0.89645 0.14304 0.0
C986 C 0.22555 0.88769 0.18976 0.0
C987 C 0.23516 0.90713 0.19806 0.0
C988 C 0.23538 0.92077 0.17967 0.0
C989 C 0.22831 0.91541 0.15251 0.0
H990 H 0.71703 0.94219 0.23871 0.0
H991 H 0.65932 0.91385 0.27229 0.0
H992 H 0.70478 0.91985 0.20012 0.0
H993 H 0.64703 0.89066 0.23402 0.0
H994 H 0.62994 0.86714 0.14415 0.0
H995 H 0.63951 0.88652 0.18609 0.0
H996 H 0.69429 0.88781 0.18911 0.0
H997 H 0.68556 0.87008 0.1461 0.0
C998 C 0.70169 0.93106 0.23789 0.0
C999 C 0.68915 0.92973 0.25855 0.0
C1000 C 0.69468 0.91807 0.21588 0.0
C1001 C 0.67497 0.90312 0.21416 0.0
C1002 C 0.66228 0.90201 0.2346 0.0
C1003 C 0.66929 0.91528 0.25652 0.0
C1004 C 0.64404 0.87156 0.15377 0.0
C1005 C 0.6571 0.86732 0.14128 0.0
C1006 C 0.64944 0.8825 0.17806 0.0
C1007 C 0.6679 0.88918 0.19068 0.0
C1008 C 0.68021 0.88348 0.17949 0.0
C1009 C 0.67499 0.87288 0.15499 0.0
H1010 H 0.09664 0.79902 0.25534 0.0
H1011 H 0.10072 0.74774 0.25434 0.0
H1012 H 0.11483 0.80995 0.21321 0.0
H1013 H 0.11946 0.75899 0.21233 0.0
H1014 H 0.16247 0.83358 0.15099 0.0
H1015 H 0.14689 0.82236 0.19535 0.0
H1016 H 0.11523 0.76372 0.16432 0.0
H1017 H 0.13143 0.7748 0.12063 0.0
C1018 C 0.1015 0.79009 0.2462 0.0
C1019 C 0.09715 0.77245 0.25823 0.0
C1020 C 0.11211 0.79647 0.22213 0.0
C1021 C 0.11876 0.78544 0.20943 0.0
C1022 C 0.11441 0.76777 0.22142 0.0
C1023 C 0.1037 0.76133 0.24554 0.0
C1024 C 0.1524 0.81827 0.15382 0.0
C1025 C 0.14797 0.80515 0.13213 0.0
C1026 C 0.14331 0.81185 0.17914 0.0
C1027 C 0.12961 0.79214 0.18333 0.0
C1028 C 0.12575 0.77897 0.16192 0.0
C1029 C 0.13485 0.78537 0.1367 0.0
H1030 H 0.2713 0.325 0.23758 0.0
H1031 H 0.23193 0.33662 0.28047 0.0
H1032 H 0.25243 0.32009 0.19477 0.0
H1033 H 0.21217 0.33037 0.23853 0.0
H1034 H 0.20153 0.34919 0.15366 0.0
H1035 H 0.21393 0.34644 0.19865 0.0
H1036 H 0.22499 0.30338 0.1661 0.0
H1037 H 0.21356 0.30718 0.12064 0.0
C1038 C 0.25824 0.3259 0.23793 0.0
C1039 C 0.25316 0.3314 0.2621 0.0
C1040 C 0.2473 0.323 0.21345 0.0
C1041 C 0.23081 0.32512 0.21286 0.0
C1042 C 0.22506 0.32922 0.23776 0.0
C1043 C 0.23627 0.33262 0.26193 0.0
C1044 C 0.20615 0.3388 0.15638 0.0
C1045 C 0.20666 0.32845 0.13375 0.0
C1046 C 0.21328 0.33714 0.18224 0.0
C1047 C 0.22076 0.3248 0.18621 0.0
C1048 C 0.21988 0.31341 0.16383 0.0
C1049 C 0.21309 0.31536 0.13783 0.0
H1050 H 0.25993 0.36312 0.41028 0.0
H1051 H 0.25492 0.30729 0.40726 0.0
H1052 H 0.24248 0.35441 0.45305 0.0
H1053 H 0.23692 0.29835 0.44998 0.0
H1054 H 0.19956 0.33063 0.52041 0.0
H1055 H 0.21117 0.33399 0.47346 0.0
H1056 H 0.24393 0.307 0.49798 0.0
H1057 H 0.2317 0.30294 0.5443 0.0
C1058 C 0.25496 0.34889 0.41862 0.0
C1059 C 0.25896 0.33595 0.40542 0.0
C1060 C 0.24474 0.34382 0.44305 0.0
C1061 C 0.23819 0.32564 0.4549 0.0
C1062 C 0.24192 0.31254 0.44151 0.0
C1063 C 0.25222 0.31765 0.41702 0.0
C1064 C 0.20889 0.32505 0.51552 0.0
C1065 C 0.21501 0.31685 0.5361 0.0
C1066 C 0.2157 0.32714 0.48875 0.0
C1067 C 0.22872 0.32103 0.48207 0.0
C1068 C 0.23388 0.3118 0.50232 0.0
C1069 C 0.22705 0.30969 0.52898 0.0
H1070 H 0.72345 0.92425 0.38802 0.0
H1071 H 0.68729 0.94415 0.42122 0.0
H1072 H 0.72265 0.90876 0.43143 0.0
H1073 H 0.68716 0.92932 0.46538 0.0
H1074 H 0.68034 0.89053 0.53741 0.0
H1075 H 0.67672 0.9004 0.49093 0.0
H1076 H 0.73684 0.91844 0.47578 0.0
H1077 H 0.74014 0.9081 0.5217 0.0
C1078 C 0.71537 0.92537 0.4047 0.0
C1079 C 0.70561 0.93561 0.40131 0.0
C1080 C 0.71498 0.91655 0.42967 0.0
C1081 C 0.70509 0.91799 0.45213 0.0
C1082 C 0.69479 0.92774 0.44848 0.0
C1083 C 0.69494 0.93636 0.42324 0.0
C1084 C 0.69264 0.89634 0.52387 0.0
C1085 C 0.71047 0.89844 0.53307 0.0
C1086 C 0.69063 0.90214 0.49735 0.0
C1087 C 0.7065 0.91031 0.47956 0.0
C1088 C 0.72417 0.91188 0.48863 0.0
C1089 C 0.72609 0.90594 0.51499 0.0
H1090 H 0.10654 0.79733 0.40719 0.0
H1091 H 0.10211 0.74173 0.40608 0.0
H1092 H 0.1253 0.80538 0.45015 0.0
H1093 H 0.12147 0.75006 0.44914 0.0
H1094 H 0.12844 0.76228 0.54411 0.0
H1095 H 0.11647 0.75392 0.49668 0.0
H1096 H 0.15564 0.81307 0.47268 0.0
H1097 H 0.16704 0.82158 0.52059 0.0
C1098 C 0.10975 0.78687 0.41595 0.0
C1099 C 0.10262 0.76878 0.40325 0.0
C1100 C 0.12075 0.79161 0.44052 0.0
C1101 C 0.12501 0.77843 0.45313 0.0
C1102 C 0.11831 0.76049 0.44011 0.0
C1103 C 0.10724 0.75572 0.41542 0.0
C1104 C 0.13467 0.77345 0.52862 0.0
C1105 C 0.14838 0.79267 0.53615 0.0
C1106 C 0.12795 0.76862 0.50134 0.0
C1107 C 0.13484 0.78288 0.48088 0.0
C1108 C 0.14972 0.80181 0.48805 0.0
C1109 C 0.15643 0.80666 0.51543 0.0
H1110 H 0.36223 0.09845 0.75537 0.0
H1111 H 0.30393 0.08831 0.76336 0.0
H1112 H 0.37325 0.12013 0.79536 0.0
H1113 H 0.31498 0.10996 0.803 0.0
H1114 H 0.39001 0.17186 0.85178 0.0
H1115 H 0.37825 0.1523 0.80957 0.0
H1116 H 0.32635 0.11004 0.85097 0.0
H1117 H 0.33804 0.12964 0.89294 0.0
C1118 C 0.35177 0.1008 0.76564 0.0
C1119 C 0.33219 0.09158 0.75618 0.0
C1120 C 0.35812 0.11336 0.78837 0.0
C1121 C 0.34498 0.1168 0.80227 0.0
C1122 C 0.32542 0.10751 0.79287 0.0
C1123 C 0.31912 0.09511 0.77008 0.0
C1124 C 0.37588 0.15862 0.85158 0.0
C1125 C 0.36489 0.15228 0.87557 0.0
C1126 C 0.36928 0.1473 0.82758 0.0
C1127 C 0.35147 0.12954 0.82703 0.0
C1128 C 0.34008 0.12368 0.85067 0.0
C1129 C 0.34676 0.13488 0.8747 0.0
H1130 H 0.91623 0.21982 0.73154 0.0
H1131 H 0.93872 0.27838 0.75944 0.0
H1132 H 0.89882 0.20757 0.77394 0.0
H1133 H 0.9217 0.26602 0.80278 0.0
H1134 H 0.8772 0.23689 0.87024 0.0
H1135 H 0.89031 0.24851 0.82454 0.0
H1136 H 0.90703 0.20555 0.82058 0.0
H1137 H 0.89371 0.19385 0.86573 0.0
C1138 C 0.91756 0.23013 0.74686 0.0
C1139 C 0.92908 0.25011 0.74228 0.0
C1140 C 0.90759 0.22306 0.77126 0.0
C1141 C 0.90904 0.23577 0.79197 0.0
C1142 C 0.92014 0.25581 0.78715 0.0
C1143 C 0.92999 0.26292 0.76244 0.0
C1144 C 0.88346 0.2298 0.85933 0.0
C1145 C 0.88432 0.21438 0.87146 0.0
C1146 C 0.89109 0.23655 0.83329 0.0
C1147 C 0.8998 0.22803 0.81891 0.0
C1148 C 0.90013 0.21225 0.83081 0.0
C1149 C 0.89243 0.20548 0.85671 0.0
H1150 H 0.77862 0.69388 0.74327 0.0
H1151 H 0.74487 0.63146 0.74196 0.0
H1152 H 0.79341 0.69303 0.78805 0.0
H1153 H 0.75938 0.63074 0.78625 0.0
H1154 H 0.76886 0.63912 0.87975 0.0
H1155 H 0.75667 0.64252 0.83477 0.0
H1156 H 0.81587 0.6786 0.80798 0.0
H1157 H 0.82821 0.67505 0.85346 0.0
C1158 C 0.77433 0.68005 0.75253 0.0
C1159 C 0.76054 0.66275 0.73913 0.0
C1160 C 0.78289 0.67957 0.77794 0.0
C1161 C 0.77749 0.66181 0.79047 0.0
C1162 C 0.76373 0.64461 0.77706 0.0
C1163 C 0.75544 0.64506 0.75167 0.0
C1164 C 0.77929 0.64785 0.8643 0.0
C1165 C 0.79946 0.65689 0.87 0.0
C1166 C 0.77231 0.64975 0.8386 0.0
C1167 C 0.78534 0.66086 0.81802 0.0
C1168 C 0.80557 0.6701 0.82366 0.0
C1169 C 0.8126 0.66795 0.84945 0.0
H1170 H 0.78249 0.65902 0.60555 0.0
H1171 H 0.7662 0.70067 0.58251 0.0
H1172 H 0.80297 0.66771 0.56568 0.0
H1173 H 0.786 0.70878 0.54152 0.0
H1174 H 0.82997 0.7262 0.4749 0.0
H1175 H 0.81721 0.72254 0.52116 0.0
H1176 H 0.79729 0.66163 0.51838 0.0
H1177 H 0.81039 0.66546 0.47289 0.0
C1178 C 0.78328 0.67004 0.59185 0.0
C1179 C 0.77253 0.67898 0.59688 0.0
C1180 C 0.79497 0.67498 0.5689 0.0
C1181 C 0.79592 0.68871 0.55002 0.0
C1182 C 0.78579 0.69826 0.5557 0.0
C1183 C 0.77432 0.69354 0.57907 0.0
C1184 C 0.82322 0.71215 0.48455 0.0
C1185 C 0.82124 0.69614 0.47031 0.0
C1186 C 0.81576 0.71 0.51093 0.0
C1187 C 0.80605 0.69177 0.52352 0.0
C1188 C 0.80494 0.67598 0.50968 0.0
C1189 C 0.81251 0.67816 0.4835 0.0
H1190 H 0.35487 0.08711 0.60509 0.0
H1191 H 0.30139 0.08792 0.61024 0.0
H1192 H 0.36115 0.10354 0.56069 0.0
H1193 H 0.30743 0.10384 0.56599 0.0
H1194 H 0.32757 0.14344 0.49381 0.0
H1195 H 0.32785 0.13338 0.54143 0.0
H1196 H 0.34764 0.09571 0.51422 0.0
H1197 H 0.34803 0.10628 0.46706 0.0
C1198 C 0.34449 0.09081 0.59683 0.0
C1199 C 0.32758 0.08606 0.61121 0.0
C1200 C 0.34806 0.10019 0.57135 0.0
C1201 C 0.33482 0.10508 0.55975 0.0
C1202 C 0.31813 0.10064 0.57445 0.0
C1203 C 0.31457 0.09128 0.59979 0.0
C1204 C 0.33238 0.13335 0.49816 0.0
C1205 C 0.33745 0.12541 0.47665 0.0
C1206 C 0.33236 0.12743 0.52538 0.0
C1207 C 0.33749 0.11351 0.53164 0.0
C1208 C 0.34368 0.10649 0.51026 0.0
C1209 C 0.34368 0.11239 0.48314 0.0
H1210 H 0.94151 0.28585 0.58033 0.0
H1211 H 0.90022 0.23059 0.61474 0.0
H1212 H 0.92301 0.27618 0.53641 0.0
H1213 H 0.88116 0.22126 0.5717 0.0
H1214 H 0.87951 0.20057 0.48324 0.0
H1215 H 0.88865 0.21194 0.53004 0.0
H1216 H 0.89399 0.26627 0.50729 0.0
H1217 H 0.88465 0.25468 0.45968 0.0
C1218 C 0.92813 0.27191 0.57871 0.0
C1219 C 0.92245 0.25878 0.60054 0.0
C1220 C 0.91745 0.26638 0.55366 0.0
C1221 C 0.90081 0.24775 0.55035 0.0
C1222 C 0.8942 0.23547 0.57327 0.0
C1223 C 0.90505 0.24082 0.59795 0.0
C1224 C 0.88186 0.21466 0.48821 0.0
C1225 C 0.8813 0.22668 0.46757 0.0
C1226 C 0.88719 0.22126 0.51524 0.0
C1227 C 0.89213 0.24008 0.52251 0.0
C1228 C 0.89052 0.25178 0.50228 0.0
C1229 C 0.88511 0.24512 0.47507 0.0
H1230 H 0.34066 0.27387 0.57715 0.0
H1231 H 0.38651 0.26205 0.59704 0.0
H1232 H 0.3299 0.2513 0.53839 0.0
H1233 H 0.37528 0.2389 0.55935 0.0
H1234 H 0.36754 0.22056 0.46899 0.0
H1235 H 0.37612 0.23944 0.51119 0.0
H1236 H 0.31502 0.21867 0.52353 0.0
H1237 H 0.30659 0.20024 0.48051 0.0
C1238 C 0.34825 0.26624 0.57345 0.0
C1239 C 0.36459 0.26992 0.58985 0.0
C1240 C 0.34201 0.25319 0.55138 0.0
C1241 C 0.35181 0.24335 0.54555 0.0
C1242 C 0.36767 0.24654 0.56275 0.0
C1243 C 0.37408 0.25977 0.58445 0.0
C1244 C 0.35592 0.21971 0.48104 0.0
C1245 C 0.3364 0.2089 0.47159 0.0
C1246 C 0.36082 0.23054 0.50528 0.0
C1247 C 0.34627 0.23065 0.52083 0.0
C1248 C 0.32663 0.21921 0.51184 0.0
C1249 C 0.32176 0.20853 0.48737 0.0
H1250 H 0.75842 0.12524 0.58973 0.0
H1251 H 0.76501 0.07541 0.59126 0.0
H1252 H 0.77736 0.13656 0.54835 0.0
H1253 H 0.7846 0.08711 0.55003 0.0
H1254 H 0.79556 0.10193 0.45749 0.0
H1255 H 0.78076 0.0909 0.50203 0.0
H1256 H 0.80932 0.15009 0.53052 0.0
H1257 H 0.82337 0.16117 0.48519 0.0
C1258 C 0.76403 0.11674 0.58133 0.0
C1259 C 0.7601 0.09934 0.59377 0.0
C1260 C 0.77511 0.12337 0.5577 0.0
C1261 C 0.78269 0.11287 0.5459 0.0
C1262 C 0.77885 0.09549 0.55841 0.0
C1263 C 0.76762 0.08877 0.58205 0.0
C1264 C 0.7987 0.11261 0.47327 0.0
C1265 C 0.81025 0.13245 0.46761 0.0
C1266 C 0.7904 0.10626 0.49898 0.0
C1267 C 0.79359 0.11959 0.51982 0.0
C1268 C 0.80619 0.13943 0.51473 0.0
C1269 C 0.81444 0.1458 0.48888 0.0
H1270 H 0.92377 0.64659 0.59023 0.0
H1271 H 0.92722 0.70173 0.5925 0.0
H1272 H 0.90296 0.63795 0.54842 0.0
H1273 H 0.90714 0.69341 0.55096 0.0
H1274 H 0.89455 0.64722 0.45423 0.0
H1275 H 0.90645 0.64711 0.50083 0.0
H1276 H 0.87546 0.67388 0.53051 0.0
H1277 H 0.86445 0.67496 0.48352 0.0
C1278 C 0.92009 0.65683 0.58189 0.0
C1279 C 0.92729 0.6749 0.59467 0.0
C1280 C 0.90816 0.65189 0.55795 0.0
C1281 C 0.90319 0.66491 0.54636 0.0
C1282 C 0.91019 0.68279 0.55953 0.0
C1283 C 0.92199 0.68768 0.5833 0.0
C1284 C 0.89003 0.65281 0.4708 0.0
C1285 C 0.87903 0.66161 0.46508 0.0
C1286 C 0.89671 0.65257 0.49761 0.0
C1287 C 0.89237 0.66095 0.51939 0.0
C1288 C 0.87956 0.6678 0.51408 0.0
C1289 C 0.873 0.66819 0.48718 0.0
H1290 H 0.93784 0.70664 0.74481 0.0
H1291 H 0.92874 0.64909 0.74182 0.0
H1292 H 0.92101 0.6992 0.78806 0.0
H1293 H 0.91186 0.6417 0.78562 0.0
H1294 H 0.86551 0.63091 0.84989 0.0
H1295 H 0.88085 0.63782 0.80497 0.0
H1296 H 0.92754 0.69284 0.83602 0.0
H1297 H 0.91211 0.68603 0.88067 0.0
C1298 C 0.93227 0.69237 0.75338 0.0
C1299 C 0.93469 0.67846 0.73985 0.0
C1300 C 0.92268 0.68816 0.77826 0.0
C1301 C 0.91516 0.6699 0.79023 0.0
C1302 C 0.91739 0.65586 0.7767 0.0
C1303 C 0.92716 0.66013 0.75177 0.0
C1304 C 0.87886 0.64461 0.84689 0.0
C1305 C 0.88759 0.658 0.86866 0.0
C1306 C 0.88776 0.64844 0.82135 0.0
C1307 C 0.90543 0.66581 0.81707 0.0
C1308 C 0.91387 0.67938 0.83866 0.0
C1309 C 0.90508 0.67549 0.86421 0.0
H1310 H 0.41359 0.30241 0.7385 0.0
H1311 H 0.35066 0.26925 0.73 0.0
H1312 H 0.41199 0.28674 0.78202 0.0
H1313 H 0.34899 0.25271 0.77308 0.0
H1314 H 0.35319 0.2428 0.86586 0.0
H1315 H 0.35282 0.25612 0.82099 0.0
H1316 H 0.40613 0.25781 0.80145 0.0
H1317 H 0.40735 0.24603 0.84718 0.0
C1318 C 0.39939 0.29166 0.74591 0.0
C1319 C 0.38225 0.28709 0.73084 0.0
C1320 C 0.39846 0.28247 0.77077 0.0
C1321 C 0.38038 0.26818 0.78104 0.0
C1322 C 0.36318 0.26375 0.76604 0.0
C1323 C 0.36411 0.27321 0.7413 0.0
C1324 C 0.36487 0.24606 0.85201 0.0
C1325 C 0.38047 0.24362 0.86043 0.0
C1326 C 0.36453 0.2535 0.82605 0.0
C1327 C 0.37962 0.2584 0.80759 0.0
C1328 C 0.39453 0.25474 0.81534 0.0
C1329 C 0.39504 0.24759 0.84148 0.0
H1330 H 0.76627 0.06988 0.73829 0.0
H1331 H 0.76561 0.12292 0.74319 0.0
H1332 H 0.78716 0.07923 0.77994 0.0
H1333 H 0.78591 0.13195 0.78479 0.0
H1334 H 0.79682 0.09132 0.87525 0.0
H1335 H 0.78374 0.08225 0.82838 0.0
H1336 H 0.8178 0.14206 0.80401 0.0
H1337 H 0.83024 0.1512 0.85138 0.0
C1338 C 0.77056 0.08351 0.74821 0.0
C1339 C 0.76414 0.09558 0.73747 0.0
C1340 C 0.78254 0.08887 0.77207 0.0
C1341 C 0.78835 0.10642 0.78566 0.0
C1342 C 0.78213 0.11855 0.7746 0.0
C1343 C 0.77023 0.11323 0.75084 0.0
C1344 C 0.80178 0.10249 0.85975 0.0
C1345 C 0.8142 0.12202 0.86709 0.0
C1346 C 0.79439 0.09727 0.83279 0.0
C1347 C 0.79937 0.11147 0.81253 0.0
C1348 C 0.8133 0.13081 0.81931 0.0
C1349 C 0.82064 0.13604 0.84636 0.0
H1350 H 0.03924 0.36693 0.0195 0.0
H1351 H 0.08111 0.42648 0.00084 0.0
H1352 H 0.06573 0.36077 0.02735 0.0
H1353 H 0.10768 0.42018 0.00806 0.0
H1354 H 0.14686 0.40708 0.06638 0.0
H1355 H 0.12293 0.41431 0.04702 0.0
H1356 H 0.09166 0.35791 0.00844 0.0
H1357 H 0.11542 0.3505 0.0287 0.0
C1358 C 0.05409 0.37867 0.01665 0.0
C1359 C 0.05801 0.39727 0.00982 0.0
C1360 C 0.06933 0.37508 0.02093 0.0
C1361 C 0.08893 0.38997 0.01844 0.0
C1362 C 0.0928 0.40841 0.01054 0.0
C1363 C 0.07754 0.41201 0.0063 0.0
C1364 C 0.13509 0.39638 0.05328 0.0
C1365 C 0.13296 0.37818 0.04925 0.0
C1366 C 0.12138 0.40055 0.04203 0.0
C1367 C 0.10515 0.38661 0.02641 0.0
C1368 C 0.10378 0.36887 0.02077 0.0
C1369 C 0.11755 0.36471 0.03204 0.0
H1370 H 0.59743 0.66051 0.01326 0.0
H1371 H 0.65995 0.68643 0.02335 0.0
H1372 H 0.60101 0.69215 0.01897 0.0
H1373 H 0.66347 0.71801 0.02934 0.0
H1374 H 0.66732 0.77483 0.02658 0.0
H1375 H 0.66015 0.74388 0.00719 0.0
H1376 H 0.60973 0.71414 0.05837 0.0
H1377 H 0.6169 0.74501 0.0774 0.0
C1378 C 0.61196 0.67296 0.0165 0.0
C1379 C 0.62839 0.67088 0.01811 0.0
C1380 C 0.61399 0.6911 0.01979 0.0
C1381 C 0.63251 0.70763 0.0246 0.0
C1382 C 0.64901 0.70564 0.02526 0.0
C1383 C 0.64697 0.68748 0.02211 0.0
C1384 C 0.65425 0.7617 0.03272 0.0
C1385 C 0.64259 0.76225 0.05335 0.0
C1386 C 0.65031 0.74397 0.02198 0.0
C1387 C 0.63455 0.72651 0.03156 0.0
C1388 C 0.62192 0.72727 0.0504 0.0
C1389 C 0.62596 0.74495 0.06126 0.0
H1390 H 0.34441 0.95226 0.97873 0.0
H1391 H 0.35072 1.00053 0.02536 0.0
H1392 H 0.31036 0.93282 -0.00811 0.0
H1393 H 0.31661 0.98096 0.03859 0.0
H1394 H 0.27433 0.92862 0.09365 0.0
H1395 H 0.30375 0.95182 0.07086 0.0
H1396 H 0.27574 0.92866 -0.0083 0.0
H1397 H 0.24541 0.90568 0.01462 0.0
C1398 C 0.3384 0.95888 0.99122 0.0
C1399 C 0.35035 0.97785 0.00136 0.0
C1400 C 0.31885 0.94776 -0.0014 0.0
C1401 C 0.31093 0.95531 0.01651 0.0
C1402 C 0.32244 0.97474 0.02494 0.0
C1403 C 0.34193 0.98596 0.01728 0.0
C1404 C 0.274 0.92876 0.07136 0.0
C1405 C 0.25718 0.91542 0.05603 0.0
C1406 C 0.29101 0.9421 0.05829 0.0
C1407 C 0.29196 0.94227 0.02951 0.0
C1408 C 0.27533 0.92891 0.01396 0.0
C1409 C 0.25805 0.91569 0.02709 0.0
H1410 H 0.37972 0.06568 0.04425 0.0
H1411 H 0.42602 0.08542 0.98603 0.0
H1412 H 0.37691 0.09379 0.03411 0.0
H1413 H 0.42299 0.11332 0.97559 0.0
H1414 H 0.42051 0.16712 0.96861 0.0
H1415 H 0.4267 0.14363 -0.00832 0.0
H1416 H 0.3645 0.1034 -0.00514 0.0
H1417 H 0.35845 0.12696 0.97234 0.0
C1418 C 0.38945 0.0761 0.02949 0.0
C1419 C 0.40299 0.07316 0.01578 0.0
C1420 C 0.38778 0.0922 0.02361 0.0
C1421 C 0.39964 0.10581 0.00392 0.0
C1422 C 0.41376 0.1033 0.99111 0.0
C1423 C 0.41541 0.08718 -0.00305 0.0
C1424 C 0.4082 0.15352 0.97519 0.0
C1425 C 0.389 0.14885 0.96867 0.0
C1426 C 0.41173 0.13995 0.98803 0.0
C1427 C 0.39611 0.12149 -0.00522 0.0
C1428 C 0.3769 0.11747 0.99015 0.0
C1429 C 0.3734 0.13096 0.9772 0.0
H1430 H 0.92057 0.3288 0.01431 0.0
H1431 H 0.97415 0.32806 0.02224 0.0
H1432 H 0.90252 0.29437 0.00454 0.0
H1433 H 0.95594 0.29332 0.01371 0.0
H1434 H 0.92359 0.24377 0.94992 0.0
H1435 H 0.94179 0.27442 0.97409 0.0
H1436 H 0.88967 0.26156 0.01676 0.0
H1437 H 0.87123 0.23088 -0.00869 0.0
C1438 C 0.92845 0.32119 0.01462 0.0
C1439 C 0.94888 0.33127 0.01858 0.0
C1440 C 0.91803 0.30133 0.00925 0.0
C1441 C 0.92773 0.29096 0.008 0.0
C1442 C 0.94801 0.30086 0.01385 0.0
C1443 C 0.95847 0.32079 0.01886 0.0
C1444 C 0.91615 0.24733 0.96494 0.0
C1445 C 0.896 0.23513 0.96858 0.0
C1446 C 0.92661 0.26489 0.97902 0.0
C1447 C 0.91723 0.2707 -0.00273 0.0
C1448 C 0.89731 0.25774 0.00248 0.0
C1449 C 0.88677 0.24008 0.98821 0.0
H1450 H 0.68863 0.59636 -0.00498 0.0
H1451 H 0.70319 0.65338 0.02095 0.0
H1452 H 0.72268 0.60775 0.98905 0.0
H1453 H 0.73794 0.66486 0.01589 0.0
H1454 H 0.79081 0.67964 0.95915 0.0
H1455 H 0.76078 0.67226 0.98098 0.0
H1456 H 0.75327 0.61807 0.00943 0.0
H1457 H 0.78222 0.62462 0.98541 0.0
C1458 C 0.69916 0.61135 -0.00012 0.0
C1459 C 0.69309 0.62397 0.00833 0.0
C1460 C 0.71888 0.61787 -0.0032 0.0
C1461 C 0.73328 0.63723 0.00235 0.0
C1462 C 0.72729 0.64988 0.0113 0.0
C1463 C 0.70737 0.64332 0.01421 0.0
C1464 C 0.78291 0.66627 0.97044 0.0
C1465 C 0.78854 0.65238 0.96944 0.0
C1466 C 0.76571 0.6621 0.98325 0.0
C1467 C 0.75406 0.64416 -0.004 0.0
C1468 C 0.7614 0.63167 -0.00127 0.0
C1469 C 0.77833 0.63562 0.98536 0.0
H1470 H 0.99058 0.65655 0.97691 0.0
H1471 H 0.95693 0.61238 0.03639 0.0
H1472 H 0.96347 0.66154 0.96865 0.0
H1473 H 0.92963 0.61767 0.02836 0.0
H1474 H 0.87975 0.61542 0.9695 0.0
H1475 H 0.9057 0.61192 -0.00869 0.0
H1476 H 0.94471 0.67379 0.98845 0.0
H1477 H 0.91888 0.67708 0.96593 0.0
C1478 C 0.97744 0.64801 0.98847 0.0
C1479 C 0.97594 0.63398 0.00723 0.0
C1480 C 0.96191 0.65103 0.98394 0.0
C1481 C 0.94437 0.64015 -0.00197 0.0
C1482 C 0.9429 0.62627 0.01711 0.0
C1483 C 0.95855 0.62326 0.02174 0.0
C1484 C 0.89365 0.62829 0.97456 0.0
C1485 C 0.89739 0.64651 0.96596 0.0
C1486 C 0.90857 0.62631 0.98696 0.0
C1487 C 0.92745 0.64254 0.99104 0.0
C1488 C 0.93049 0.66094 0.98496 0.0
C1489 C 0.91566 0.66289 0.97239 0.0
H1490 H 0.35249 0.32164 0.02443 0.0
H1491 H 0.40873 0.35619 0.98741 0.0
H1492 H 0.35298 0.2924 0.01404 0.0
H1493 H 0.40912 0.32696 0.9768 0.0
H1494 H 0.41096 0.27269 0.97239 0.0
H1495 H 0.41077 0.2994 -0.00444 0.0
H1496 H 0.34994 0.2747 0.97178 0.0
H1497 H 0.3502 0.24808 0.94898 0.0
C1498 C 0.36504 0.32305 0.01429 0.0
C1499 C 0.38051 0.34131 0.00658 0.0
C1500 C 0.36529 0.30625 0.00827 0.0
C1501 C 0.38107 0.30727 -0.00546 0.0
C1502 C 0.39684 0.3256 0.98772 0.0
C1503 C 0.39655 0.34239 -0.0064 0.0
C1504 C 0.39739 0.27263 0.97309 0.0
C1505 C 0.38058 0.25828 0.95899 0.0
C1506 C 0.39734 0.28807 0.98598 0.0
C1507 C 0.38042 0.28938 0.98521 0.0
C1508 C 0.36321 0.27416 0.97297 0.0
C1509 C 0.36332 0.25886 0.95992 0.0
H1510 H 0.69299 0.0355 0.00602 0.0
H1511 H 0.68615 0.08226 0.97622 0.0
H1512 H 0.72835 0.05605 0.00276 0.0
H1513 H 0.72127 0.10247 0.97172 0.0
H1514 H 0.78571 0.1395 0.97246 0.0
H1515 H 0.75307 0.12048 -0.00829 0.0
H1516 H 0.75082 0.06795 0.9676 0.0
H1517 H 0.78341 0.0869 0.94979 0.0
C1518 C 0.69903 0.05015 -0.0013 0.0
C1519 C 0.68673 0.05715 0.99109 0.0
C1520 C 0.71933 0.06196 -0.0032 0.0
C1521 C 0.7278 0.08097 0.98681 0.0
C1522 C 0.71544 0.08809 0.97996 0.0
C1523 C 0.6952 0.07638 0.98223 0.0
C1524 C 0.77842 0.12389 0.97229 0.0
C1525 C 0.78693 0.11464 0.95948 0.0
C1526 C 0.75963 0.11296 0.98291 0.0
C1527 C 0.74905 0.09261 0.98077 0.0
C1528 C 0.75839 0.0835 0.9699 0.0
C1529 C 0.7771 0.09437 0.95951 0.0
H1530 H 0.65297 0.96455 0.00726 0.0
H1531 H 0.592 0.9238 0.98848 0.0
H1532 H 0.65809 0.93792 0.01781 0.0
H1533 H 0.59721 0.89714 -0.00139 0.0
H1534 H 0.61017 0.86122 0.06298 0.0
H1535 H 0.60342 0.88427 0.04032 0.0
H1536 H 0.65898 0.91008 0.00051 0.0
H1537 H 0.66577 0.88701 0.02372 0.0
C1538 C 0.6407 0.94991 0.00501 0.0
C1539 C 0.62202 0.94637 -0.00271 0.0
C1540 C 0.64368 0.93459 0.01083 0.0
C1541 C 0.62806 0.91532 0.00913 0.0
C1542 C 0.60953 0.91178 0.00045 0.0
C1543 C 0.60656 0.9271 -0.00543 0.0
C1544 C 0.62063 0.87143 0.04867 0.0
C1545 C 0.63846 0.87232 0.04507 0.0
C1546 C 0.61679 0.88467 0.03566 0.0
C1547 C 0.63076 0.89923 0.01882 0.0
C1548 C 0.64803 0.89924 0.01367 0.0
C1549 C 0.65181 0.88586 0.02661 0.0
H1550 H 0.10346 0.7034 0.95948 0.0
H1551 H 0.06035 0.70063 0.0139 0.0
H1552 H 0.12253 0.7384 0.96479 0.0
H1553 H 0.07985 0.73531 0.02077 0.0
H1554 H 0.11564 0.7969 0.035 0.0
H1555 H 0.09433 0.76744 0.00859 0.0
H1556 H 0.14307 0.75893 -0.00107 0.0
H1557 H 0.16424 0.78874 0.02374 0.0
C1558 C 0.098 0.71033 0.97243 0.0
C1559 C 0.08057 0.69928 0.9866 0.0
C1560 C 0.10898 0.7304 0.97563 0.0
C1561 C 0.10305 0.73984 -0.00634 0.0
C1562 C 0.08492 0.72879 0.00643 0.0
C1563 C 0.07373 0.70878 0.00271 0.0
C1564 C 0.12185 0.78908 0.0261 0.0
C1565 C 0.14152 0.79499 0.03148 0.0
C1566 C 0.10962 0.77204 0.01133 0.0
C1567 C 0.11673 0.76035 0.00225 0.0
C1568 C 0.13691 0.76742 0.00532 0.0
C1569 C 0.14918 0.78463 0.0196 0.0
H1570 H 0.32871 0.41193 0.97821 0.0
H1571 H 0.32855 0.36536 0.02272 0.0
H1572 H 0.294 0.39762 0.98602 0.0
H1573 H 0.29398 0.35142 0.03171 0.0
H1574 H 0.24323 0.38377 0.04395 0.0
H1575 H 0.27479 0.39504 0.02331 0.0
H1576 H 0.26114 0.33598 0.01654 0.0
H1577 H 0.23 0.32502 0.0384 0.0
C1578 C 0.32118 0.39852 0.98951 0.0
C1579 C 0.3314 0.38986 7e-05 0.0
C1580 C 0.30128 0.39037 -0.00583 0.0
C1581 C 0.29112 0.3735 0.00989 0.0
C1582 C 0.30117 0.3643 0.01924 0.0
C1583 C 0.32106 0.37232 0.01421 0.0
C1584 C 0.24683 0.37325 0.03728 0.0
C1585 C 0.23428 0.35359 0.04263 0.0
C1586 C 0.26492 0.37964 0.02544 0.0
C1587 C 0.27073 0.36644 0.0185 0.0
C1588 C 0.25743 0.34661 0.02217 0.0
C1589 C 0.23949 0.34028 0.03433 0.0
H1590 H 0.75146 0.75543 0.33052 0.0
H1591 H 0.71077 0.69699 0.35576 0.0
H1592 H 0.7783 0.74937 0.33613 0.0
H1593 H 0.7376 0.69106 0.36177 0.0
H1594 H 0.78706 0.68055 0.35791 0.0
H1595 H 0.7625 0.68749 0.33943 0.0
H1596 H 0.79529 0.74482 0.37488 0.0
H1597 H 0.81987 0.73795 0.39275 0.0
C1598 C 0.7482 0.74125 0.33709 0.0
C1599 C 0.72894 0.72675 0.34289 0.0
C1600 C 0.76362 0.7378 0.34038 0.0
C1601 C 0.76017 0.71973 0.34945 0.0
C1602 C 0.74081 0.70506 0.35437 0.0
C1603 C 0.72541 0.70852 0.35116 0.0
C1604 C 0.78934 0.69485 0.36083 0.0
C1605 C 0.80537 0.70871 0.37679 0.0
C1606 C 0.77513 0.69875 0.35062 0.0
C1607 C 0.77672 0.71661 0.35602 0.0
C1608 C 0.79358 0.73095 0.37016 0.0
C1609 C 0.80769 0.72702 0.38045 0.0
H1610 H 0.29791 1.00421 0.38092 0.0
H1611 H 0.31885 0.02489 0.29932 0.0
H1612 H 0.29888 0.03406 0.39094 0.0
H1613 H 0.31953 0.05486 0.30929 0.0
H1614 H 0.34459 0.11374 0.35915 0.0
H1615 H 0.33861 0.08356 0.33868 0.0
H1616 H 0.2835 0.05245 0.37968 0.0
H1617 H 0.28982 0.08258 0.40055 0.0
C1618 C 0.30257 0.01506 0.36499 0.0
C1619 C 0.30838 0.01215 0.33935 0.0
C1620 C 0.30293 0.03215 0.37065 0.0
C1621 C 0.30912 0.04684 0.35083 0.0
C1622 C 0.31476 0.04388 0.32504 0.0
C1623 C 0.31432 0.02668 0.31933 0.0
C1624 C 0.33087 0.10054 0.36285 0.0
C1625 C 0.31769 0.10042 0.38146 0.0
C1626 C 0.32746 0.08322 0.35125 0.0
C1627 C 0.31077 0.06551 0.35806 0.0
C1628 C 0.29672 0.06576 0.37456 0.0
C1629 C 0.30019 0.08302 0.38624 0.0
H1630 H 1.00645 0.2848 0.31024 0.0
H1631 H 1.00997 0.32556 0.37032 0.0
H1632 H 0.97145 0.26466 0.31666 0.0
H1633 H 0.97491 0.30492 0.37782 0.0
H1634 H 0.9221 0.22073 0.37116 0.0
H1635 H 0.95353 0.24377 0.3527 0.0
H1636 H 0.94112 0.28945 0.36267 0.0
H1637 H 0.90943 0.26614 0.3816 0.0
C1638 C 0.99964 0.28954 0.32464 0.0
C1639 C 1.01094 0.3066 0.34007 0.0
C1640 C 0.97959 0.27794 0.32847 0.0
C1641 C 0.97037 0.28287 0.34824 0.0
C1642 C 0.98146 0.30066 0.36233 0.0
C1643 C 1.00157 0.31249 0.35812 0.0
C1644 C 0.92573 0.23554 0.36861 0.0
C1645 C 0.91319 0.24155 0.37781 0.0
C1646 C 0.94387 0.24885 0.35803 0.0
C1647 C 0.94999 0.26857 0.35622 0.0
C1648 C 0.93703 0.27445 0.36414 0.0
C1649 C 0.91883 0.26108 0.37482 0.0
H1650 H 0.09012 0.41532 0.32968 0.0
H1651 H 0.04022 0.39425 0.38164 0.0
H1652 H 0.08857 0.44411 0.31974 0.0
H1653 H 0.03884 0.42322 0.37194 0.0
H1654 H 0.0256 0.45894 0.30659 0.0
H1655 H 0.02942 0.43455 0.33102 0.0
H1656 H 0.09183 0.47408 0.33699 0.0
H1657 H 0.08788 0.49842 0.31213 0.0
C1658 C 0.07901 0.41696 0.33936 0.0
C1659 C 0.06517 0.40233 0.35623 0.0
C1660 C 0.07822 0.43358 0.33384 0.0
C1661 C 0.06353 0.436 0.34498 0.0
C1662 C 0.05021 0.42174 0.3628 0.0
C1663 C 0.05105 0.40515 0.36841 0.0
C1664 C 0.04003 0.46264 0.31409 0.0
C1665 C 0.05643 0.48055 0.30751 0.0
C1666 C 0.04226 0.44866 0.32806 0.0
C1667 C 0.06098 0.45223 0.33562 0.0
C1668 C 0.07724 0.47076 0.33108 0.0
C1669 C 0.07497 0.48482 0.31723 0.0
H1670 H 0.64087 0.65832 0.36518 0.0
H1671 H 0.59164 0.66358 0.33958 0.0
H1672 H 0.62052 0.62327 0.36096 0.0
H1673 H 0.57166 0.62888 0.33369 0.0
H1674 H 0.53554 0.56602 0.32586 0.0
H1675 H 0.55438 0.59738 0.34931 0.0
H1676 H 0.60795 0.60077 0.32607 0.0
H1677 H 0.58909 0.56928 0.30442 0.0
C1678 C 0.62569 0.65197 0.35865 0.0
C1679 C 0.61795 0.66375 0.35244 0.0
C1680 C 0.61399 0.63185 0.35611 0.0
C1681 C 0.59436 0.62302 0.34666 0.0
C1682 C 0.58651 0.63489 0.34148 0.0
C1683 C 0.59809 0.65493 0.34456 0.0
C1684 C 0.55133 0.57319 0.32701 0.0
C1685 C 0.56091 0.56533 0.31341 0.0
C1686 C 0.5622 0.59132 0.33996 0.0
C1687 C 0.58281 0.60202 0.33909 0.0
C1688 C 0.59222 0.59315 0.32753 0.0
C1689 C 0.5814 0.57502 0.31501 0.0
H1690 H 0.36625 0.98783 0.31985 0.0
H1691 H 0.36424 0.94317 0.37156 0.0
H1692 H 0.40037 0.9994 0.31024 0.0
H1693 H 0.39854 0.95526 0.36335 0.0
H1694 H 0.44411 0.95929 0.30345 0.0
H1695 H 0.41466 0.95285 0.32577 0.0
H1696 H 0.43391 0.01361 0.32258 0.0
H1697 H 0.46336 0.01989 0.29932 0.0
C1698 C 0.37332 0.9809 0.32985 0.0
C1699 C 0.36256 0.96444 0.34606 0.0
C1700 C 0.39292 0.98755 0.32447 0.0
C1701 C 0.40221 0.97804 0.33559 0.0
C1702 C 0.39177 0.96259 0.35373 0.0
C1703 C 0.37213 0.95573 0.35862 0.0
C1704 C 0.44239 0.97138 0.30829 0.0
C1705 C 0.45606 0.99009 0.2996 0.0
C1706 C 0.42541 0.9677 0.32114 0.0
C1707 C 0.42171 0.98269 0.32588 0.0
C1708 C 0.43605 1.00165 0.3188 0.0
C1709 C 0.453 1.00529 0.30569 0.0
H1710 H 0.65989 1.00441 0.36717 0.0
H1711 H 0.62958 0.9486 0.32685 0.0
H1712 H 0.63145 1.00769 0.35881 0.0
H1713 H 0.60128 0.95195 0.31839 0.0
H1714 H 0.54923 0.95761 0.31326 0.0
H1715 H 0.5745 0.95455 0.33837 0.0
H1716 H 0.61759 0.01284 0.31563 0.0
H1717 H 0.59231 0.01584 0.29084 0.0
C1718 C 0.64707 0.9927 0.35692 0.0
C1719 C 0.6471 0.97633 0.3474 0.0
C1720 C 0.63079 0.99462 0.35209 0.0
C1721 C 0.61412 0.98012 0.33787 0.0
C1722 C 0.61378 0.96329 0.3297 0.0
C1723 C 0.63009 0.96144 0.33434 0.0
C1724 C 0.56395 0.97001 0.31466 0.0
C1725 C 0.56887 0.98695 0.30009 0.0
C1726 C 0.57847 0.96818 0.32871 0.0
C1727 C 0.5981 0.98334 0.32862 0.0
C1728 C 0.60262 1.00092 0.31624 0.0
C1729 C 0.58816 1.00267 0.30202 0.0
H1730 H 0.07991 0.68922 0.31129 0.0
H1731 H 0.02779 0.65818 0.35891 0.0
H1732 H 0.0792 0.65917 0.30283 0.0
H1733 H 0.02716 0.62808 0.35053 0.0
H1734 H 0.01927 0.57911 0.28937 0.0
H1735 H 0.02059 0.60722 0.30992 0.0
H1736 H 0.08274 0.6333 0.32475 0.0
H1737 H 0.08133 0.6051 0.30394 0.0
C1738 C 0.06838 0.67602 0.32015 0.0
C1739 C 0.05384 0.67614 0.33563 0.0
C1740 C 0.06808 0.65879 0.31552 0.0
C1741 C 0.05315 0.64119 0.32608 0.0
C1742 C 0.0388 0.64136 0.34198 0.0
C1743 C 0.03919 0.65863 0.34681 0.0
C1744 C 0.03307 0.59055 0.29796 0.0
C1745 C 0.05018 0.5899 0.29515 0.0
C1746 C 0.03386 0.6067 0.30968 0.0
C1747 C 0.05183 0.62267 0.31861 0.0
C1748 C 0.06872 0.62137 0.31769 0.0
C1749 C 0.06788 0.6051 0.30618 0.0
H1750 H 0.35458 0.36199 0.33909 0.0
H1751 H 0.3482 0.41131 0.32451 0.0
H1752 H 0.3901 0.38303 0.33769 0.0
H1753 H 0.38329 0.43204 0.32217 0.0
H1754 H 0.44658 0.46976 0.32591 0.0
H1755 H 0.41439 0.44759 0.34461 0.0
H1756 H 0.41352 0.39985 0.30368 0.0
H1757 H 0.44579 0.4219 0.2862 0.0
C1758 C 0.36073 0.37729 0.33562 0.0
C1759 C 0.34849 0.38489 0.33168 0.0
C1760 C 0.3811 0.38938 0.33481 0.0
C1761 C 0.38969 0.40932 0.32988 0.0
C1762 C 0.37738 0.41689 0.32663 0.0
C1763 C 0.35712 0.40489 0.32761 0.0
C1764 C 0.43981 0.4544 0.3221 0.0
C1765 C 0.44857 0.44747 0.30471 0.0
C1766 C 0.42124 0.44171 0.33236 0.0
C1767 C 0.41106 0.42193 0.32512 0.0
C1768 C 0.42081 0.41487 0.30988 0.0
C1769 C 0.43935 0.42751 0.29983 0.0
H1770 H 0.2859 0.27954 0.36762 0.0
H1771 H 0.30958 0.28082 0.28826 0.0
H1772 H 0.28872 0.252 0.38067 0.0
H1773 H 0.31199 0.25278 0.30115 0.0
H1774 H 0.33881 0.2223 0.35432 0.0
H1775 H 0.33124 0.2449 0.33171 0.0
H1776 H 0.27623 0.21848 0.37313 0.0
H1777 H 0.28422 0.19637 0.39627 0.0
C1778 C 0.2915 0.2738 0.35278 0.0
C1779 C 0.29758 0.2825 0.32691 0.0
C1780 C 0.29295 0.25782 0.36019 0.0
C1781 C 0.30047 0.24998 0.34192 0.0
C1782 C 0.30627 0.25848 0.31583 0.0
C1783 C 0.30482 0.27454 0.3084 0.0
C1784 C 0.32479 0.22088 0.35771 0.0
C1785 C 0.3121 0.20761 0.37704 0.0
C1786 C 0.32046 0.2339 0.34488 0.0
C1787 C 0.3033 0.23384 0.35105 0.0
C1788 C 0.28982 0.21931 0.36844 0.0
C1789 C 0.29423 0.20644 0.3814 0.0
H1790 H 0.71524 0.02588 0.32232 0.0
H1791 H 0.76977 0.0269 0.32979 0.0
H1792 H 0.73305 0.06107 0.32647 0.0
H1793 H 0.78731 0.06148 0.33537 0.0
H1794 H 0.81976 0.12215 0.34502 0.0
H1795 H 0.79953 0.09238 0.31945 0.0
H1796 H 0.7486 0.08424 0.36072 0.0
H1797 H 0.76854 0.11502 0.384 0.0
C1798 C 0.73102 0.03361 0.3247 0.0
C1799 C 0.74105 0.02355 0.32598 0.0
C1800 C 0.74125 0.0538 0.32717 0.0
C1801 C 0.76171 0.06433 0.33136 0.0
C1802 C 0.77167 0.05417 0.33155 0.0
C1803 C 0.76153 0.03414 0.3287 0.0
C1804 C 0.80412 0.11456 0.34765 0.0
C1805 C 0.79592 0.12066 0.36745 0.0
C1806 C 0.7925 0.09718 0.33335 0.0
C1807 C 0.77254 0.08527 0.33905 0.0
C1808 C 0.76393 0.09272 0.35597 0.0
C1809 C 0.77546 0.11036 0.36967 0.0
H1810 H 1.00118 0.70075 0.32403 0.0
H1811 H 1.00989 0.75573 0.3498 0.0
H1812 H 0.96606 0.6859 0.33004 0.0
H1813 H 0.97525 0.74089 0.3571 0.0
H1814 H 0.91119 0.71376 0.36111 0.0
H1815 H 0.94308 0.72684 0.34021 0.0
H1816 H 0.94435 0.67606 0.36573 0.0
H1817 H 0.91229 0.66274 0.38482 0.0
C1818 C 0.99561 0.70966 0.33098 0.0
C1819 C 1.0084 0.72939 0.3366 0.0
C1820 C 0.97546 0.70115 0.33454 0.0
C1821 C 0.96764 0.71212 0.34422 0.0
C1822 C 0.98048 0.73196 0.34912 0.0
C1823 C 1.00051 0.74048 0.34521 0.0
C1824 C 0.91808 0.70521 0.36142 0.0
C1825 C 0.90941 0.68741 0.37505 0.0
C1826 C 0.9365 0.71279 0.34981 0.0
C1827 C 0.94665 0.70275 0.35175 0.0
C1828 C 0.93716 0.68428 0.36358 0.0
C1829 C 0.91877 0.67668 0.37486 0.0
H1830 H 0.39085 0.06476 0.71344 0.0
H1831 H 0.37748 0.02955 0.64039 0.0
H1832 H 0.41989 0.06283 0.72234 0.0
H1833 H 0.4069 0.02798 0.64897 0.0
H1834 H 0.44594 1.00912 0.69768 0.0
H1835 H 0.41934 0.01335 0.68052 0.0
H1836 H 0.45191 0.07305 0.70695 0.0
H1837 H 0.47822 0.06859 0.7246 0.0
C1838 C 0.3942 0.05677 0.69908 0.0
C1839 C 0.38174 0.04727 0.67624 0.0
C1840 C 0.411 0.05579 0.70406 0.0
C1841 C 0.41588 0.04531 0.68632 0.0
C1842 C 0.40355 0.03602 0.66323 0.0
C1843 C 0.3867 0.037 0.65825 0.0
C1844 C 0.44764 0.02328 0.69903 0.0
C1845 C 0.46413 0.03851 0.71257 0.0
C1846 C 0.43235 0.02572 0.68929 0.0
C1847 C 0.43326 0.04346 0.69279 0.0
C1848 C 0.45044 0.05905 0.70453 0.0
C1849 C 0.46563 0.05658 0.71438 0.0
H1850 H 0.98679 0.35228 0.68798 0.0
H1851 H 0.92671 0.33138 0.66339 0.0
H1852 H 0.99182 0.3843 0.69612 0.0
H1853 H 0.93185 0.36346 0.67116 0.0
H1854 H 0.94315 0.41319 0.73211 0.0
H1855 H 0.93683 0.38292 0.71196 0.0
H1856 H 0.99352 0.41295 0.67509 0.0
H1857 H 0.99986 0.44329 0.69571 0.0
C1858 C 0.97471 0.35455 0.68403 0.0
C1859 C 0.95629 0.33918 0.67531 0.0
C1860 C 0.97765 0.37298 0.68844 0.0
C1861 C 0.96223 0.37648 0.6843 0.0
C1862 C 0.94398 0.36123 0.67481 0.0
C1863 C 0.94105 0.34283 0.67033 0.0
C1864 C 0.95397 0.41339 0.71893 0.0
C1865 C 0.97197 0.43055 0.71542 0.0
C1866 C 0.95038 0.39605 0.70738 0.0
C1867 C 0.96478 0.39544 0.6922 0.0
C1868 C 0.98225 0.41289 0.68702 0.0
C1869 C 0.98578 0.43031 0.69845 0.0
H1870 H 0.67744 0.65815 0.6851 0.0
H1871 H 0.6689 0.60858 0.6395 0.0
H1872 H 0.64376 0.63941 0.70021 0.0
H1873 H 0.63526 0.58994 0.65463 0.0
H1874 H 0.57174 0.56342 0.68364 0.0
H1875 H 0.6007 0.58585 0.65761 0.0
H1876 H 0.63257 0.61124 0.73383 0.0
H1877 H 0.6046 0.58861 0.75962 0.0
C1878 C 0.66824 0.64348 0.67759 0.0
C1879 C 0.67597 0.63475 0.66154 0.0
C1880 C 0.64897 0.63273 0.68632 0.0
C1881 C 0.63701 0.61314 0.67889 0.0
C1882 C 0.64412 0.605 0.66062 0.0
C1883 C 0.66344 0.61568 0.65211 0.0
C1884 C 0.58492 0.57382 0.69481 0.0
C1885 C 0.58557 0.57432 0.72382 0.0
C1886 C 0.60142 0.58673 0.67989 0.0
C1887 C 0.61873 0.60054 0.69372 0.0
C1888 C 0.61926 0.60117 0.72257 0.0
C1889 C 0.60306 0.58815 0.73738 0.0
H1890 H 0.75607 0.74265 0.65566 0.0
H1891 H 0.70713 0.72089 0.70961 0.0
H1892 H 0.75502 0.77199 0.64866 0.0
H1893 H 0.70625 0.75041 0.70285 0.0
H1894 H 0.69303 0.78839 0.64163 0.0
H1895 H 0.69658 0.76318 0.66391 0.0
H1896 H 0.7592 0.8017 0.6685 0.0
H1897 H 0.7555 0.82687 0.64581 0.0
C1898 C 0.74528 0.74424 0.6664 0.0
C1899 C 0.73156 0.72928 0.68296 0.0
C1900 C 0.74478 0.76118 0.66257 0.0
C1901 C 0.73052 0.76359 0.67515 0.0
C1902 C 0.71731 0.74896 0.69264 0.0
C1903 C 0.71786 0.73205 0.69656 0.0
C1904 C 0.70746 0.79171 0.6485 0.0
C1905 C 0.72398 0.80958 0.64209 0.0
C1906 C 0.70955 0.77724 0.6612 0.0
C1907 C 0.72822 0.78028 0.66759 0.0
C1908 C 0.74463 0.79878 0.66343 0.0
C1909 C 0.74252 0.81332 0.65086 0.0
H1910 H 0.25438 0.99612 0.69705 0.0
H1911 H 0.30498 0.99358 0.67488 0.0
H1912 H 0.23372 0.96147 0.68963 0.0
H1913 H 0.28415 0.95883 0.66685 0.0
H1914 H 0.24398 0.89484 0.66169 0.0
H1915 H 0.2623 0.92635 0.68492 0.0
H1916 H 0.22261 0.94215 0.64815 0.0
H1917 H 0.20443 0.91075 0.62541 0.0
C1918 C 0.26115 0.98814 0.69082 0.0
C1919 C 0.28134 0.99771 0.68618 0.0
C1920 C 0.24926 0.96824 0.68652 0.0
C1921 C 0.25718 0.95735 0.67734 0.0
C1922 C 0.27755 0.96672 0.67417 0.0
C1923 C 0.2895 0.98668 0.6786 0.0
C1924 C 0.23875 0.90479 0.65967 0.0
C1925 C 0.2227 0.90036 0.64206 0.0
C1926 C 0.2494 0.92294 0.67256 0.0
C1927 C 0.2441 0.93691 0.66815 0.0
C1928 C 0.22706 0.93175 0.65228 0.0
C1929 C 0.21654 0.91372 0.6393 0.0
H1930 H 0.02702 0.31743 0.67997 0.0
H1931 H 1.01233 0.26212 0.64621 0.0
H1932 H 0.06178 0.32879 0.67589 0.0
H1933 H 0.04656 0.27354 0.64106 0.0
H1934 H 0.10768 0.2909 0.64443 0.0
H1935 H 0.07622 0.2819 0.66286 0.0
H1936 H 0.08594 0.33835 0.64266 0.0
H1937 H 0.11816 0.3479 0.62642 0.0
C1938 C 0.03119 0.30773 0.67164 0.0
C1939 C 0.01688 0.28887 0.66343 0.0
C1940 C 0.05112 0.31423 0.66924 0.0
C1941 C 0.05713 0.30207 0.65834 0.0
C1942 C 0.04269 0.28322 0.65028 0.0
C1943 C 0.02292 0.2767 0.65295 0.0
C1944 C 0.10352 0.30169 0.6449 0.0
C1945 C 0.11539 0.32004 0.63336 0.0
C1946 C 0.08522 0.29639 0.65502 0.0
C1947 C 0.07813 0.30913 0.65339 0.0
C1948 C 0.09074 0.32805 0.64417 0.0
C1949 C 0.1092 0.33348 0.63453 0.0
H1950 H 0.3018 0.29021 0.65204 0.0
H1951 H 0.33142 0.34649 0.69098 0.0
H1952 H 0.27229 0.29189 0.6463 0.0
H1953 H 0.30183 0.34812 0.68524 0.0
H1954 H 0.25754 0.35247 0.622 0.0
H1955 H 0.28508 0.3515 0.64328 0.0
H1956 H 0.24573 0.29323 0.67041 0.0
H1957 H 0.21817 0.29431 0.64903 0.0
C1958 C 0.30195 0.30282 0.65972 0.0
C1959 C 0.31904 0.31828 0.67173 0.0
C1960 C 0.28496 0.30371 0.65666 0.0
C1961 C 0.28471 0.32015 0.66532 0.0
C1962 C 0.3016 0.33532 0.67822 0.0
C1963 C 0.31854 0.33435 0.68154 0.0
C1964 C 0.25473 0.33978 0.63354 0.0
C1965 C 0.23577 0.3235 0.634 0.0
C1966 C 0.27048 0.33917 0.64566 0.0
C1967 C 0.26762 0.32217 0.65819 0.0
C1968 C 0.24841 0.30644 0.66061 0.0
C1969 C 0.23261 0.30714 0.64874 0.0
H1970 H 0.74221 0.01601 0.64704 0.0
H1971 H 0.68875 0.98408 0.69164 0.0
H1972 H 0.74195 0.98619 0.63868 0.0
H1973 H 0.68857 0.95421 0.68336 0.0
H1974 H 0.6829 0.906 0.62253 0.0
H1975 H 0.68334 0.93379 0.64269 0.0
H1976 H 0.74515 0.96026 0.66101 0.0
H1977 H 0.74466 0.93244 0.64056 0.0
C1978 C 0.73047 1.00266 0.65526 0.0
C1979 C 0.71543 1.00247 0.66986 0.0
C1980 C 0.73042 0.98555 0.65068 0.0
C1981 C 0.71527 0.96777 0.66043 0.0
C1982 C 0.7004 0.96762 0.67544 0.0
C1983 C 0.70053 0.98477 0.68022 0.0
C1984 C 0.69642 0.91747 0.63174 0.0
C1985 C 0.71373 0.91704 0.62999 0.0
C1986 C 0.6967 0.93343 0.64326 0.0
C1987 C 0.71435 0.94942 0.65308 0.0
C1988 C 0.73138 0.94832 0.65323 0.0
C1989 C 0.73105 0.93225 0.64191 0.0
H1990 H 0.0233 0.7526 0.67489 0.0
H1991 H 0.02746 0.70352 0.65094 0.0
H1992 H 0.05821 0.77376 0.66933 0.0
H1993 H 0.06257 0.72492 0.64468 0.0
H1994 H 0.12776 0.76687 0.64717 0.0
H1995 H 0.09497 0.7469 0.66572 0.0
H1996 H 0.07828 0.78557 0.62953 0.0
H1997 H 0.11095 0.80537 0.61153 0.0
C1998 C 0.03168 0.74628 0.6685 0.0
C1999 C 0.02251 0.72637 0.66296 0.0
C2000 C 0.05174 0.75847 0.66528 0.0
C2001 C 0.0632 0.75112 0.65625 0.0
C2002 C 0.05422 0.73106 0.6519 0.0
C2003 C 0.03407 0.71879 0.6553 0.0
C2004 C 0.11721 0.77139 0.64421 0.0
C2005 C 0.12184 0.78777 0.62843 0.0
C2006 C 0.09839 0.75984 0.65441 0.0
C2007 C 0.08393 0.76454 0.64897 0.0
C2008 C 0.08907 0.78162 0.63447 0.0
C2009 C 0.10779 0.79304 0.62421 0.0
H2010 H 0.9848 0.63219 0.67207 0.0
H2011 H 0.92218 0.59366 0.66807 0.0
H2012 H 0.98902 0.6049 0.68176 0.0
H2013 H 0.92643 0.56629 0.67735 0.0
H2014 H 0.94424 0.53238 0.73904 0.0
H2015 H 0.93637 0.55493 0.71732 0.0
H2016 H 0.98587 0.57505 0.66481 0.0
H2017 H 0.99386 0.55256 0.68705 0.0
C2018 C 0.97193 0.61787 0.67288 0.0
C2019 C 0.95314 0.6152 0.66955 0.0
C2020 C 0.97435 0.60215 0.67821 0.0
C2021 C 0.95806 0.58333 0.68039 0.0
C2022 C 0.9393 0.58059 0.67611 0.0
C2023 C 0.93687 0.5963 0.67072 0.0
C2024 C 0.95301 0.54114 0.72217 0.0
C2025 C 0.96965 0.54071 0.71473 0.0
C2026 C 0.94854 0.55412 0.70971 0.0
C2027 C 0.96067 0.56708 0.68958 0.0
C2028 C 0.97641 0.56552 0.68058 0.0
C2029 C 0.98082 0.55242 0.69298 0.0
H2030 H 0.38507 0.36816 0.65521 0.0
H2031 H 0.44008 0.37445 0.63312 0.0
H2032 H 0.40195 0.40241 0.66704 0.0
H2033 H 0.45684 0.40868 0.64506 0.0
H2034 H 0.48073 0.4716 0.67484 0.0
H2035 H 0.46047 0.44472 0.64304 0.0
H2036 H 0.42579 0.41056 0.7107 0.0
H2037 H 0.44636 0.43553 0.74229 0.0
C2038 C 0.40062 0.37693 0.65193 0.0
C2039 C 0.41132 0.36844 0.64408 0.0
C2040 C 0.41025 0.39659 0.6585 0.0
C2041 C 0.4307 0.40809 0.65723 0.0
C2042 C 0.44106 0.40016 0.64607 0.0
C2043 C 0.43145 0.38047 0.63958 0.0
C2044 C 0.46877 0.45844 0.68306 0.0
C2045 C 0.46543 0.45632 0.71164 0.0
C2046 C 0.45704 0.44315 0.66467 0.0
C2047 C 0.44135 0.42576 0.67441 0.0
C2048 C 0.43739 0.42401 0.70245 0.0
C2049 C 0.44935 0.43877 0.72074 0.0
H2050 H 0.66473 0.02899 0.68674 0.0
H2051 H 0.66939 0.0806 0.65229 0.0
H2052 H 0.63025 0.01631 0.69528 0.0
H2053 H 0.63486 0.06768 0.65959 0.0
H2054 H 0.58254 0.05151 0.71509 0.0
H2055 H 0.61475 0.06286 0.69663 0.0
H2056 H 0.59795 1.00386 0.67854 0.0
H2057 H 0.56605 0.9927 0.69823 0.0
C2058 C 0.65828 0.03743 0.68043 0.0
C2059 C 0.66985 0.05588 0.66916 0.0
C2060 C 0.63844 0.03014 0.68519 0.0
C2061 C 0.62967 0.04103 0.67841 0.0
C2062 C 0.64112 0.05905 0.66575 0.0
C2063 C 0.66094 0.06642 0.66139 0.0
C2064 C 0.58561 0.0411 0.70633 0.0
C2065 C 0.57184 0.02131 0.70768 0.0
C2066 C 0.6041 0.04754 0.69578 0.0
C2067 C 0.60915 0.03428 0.68623 0.0
C2068 C 0.5948 0.01449 0.68616 0.0
C2069 C 0.57641 1.00808 0.697 0.0
loop_
_geom_bond_atom_site_label_1
_geom_bond_atom_site_label_2
_geom_bond_distance
_geom_bond_site_symmetry_2
_ccdc_geom_bond_type
Zn0 O3 2.031 1_554 S
Zn0 O5 2.049 . S
Zn0 O10 2.067 1_554 S
Zn1 O2 1.962 1_455 S
Zn1 O4 1.986 . S
Zn1 O6 1.996 1_455 S
Zn1 O9 1.943 1_554 S
O2 Zn1 1.962 1_655 S
O2 C7 1.233 1_554 S
O3 Zn0 2.031 1_556 S
O3 C7 1.281 . S
O4 Zn1 1.986 . S
O4 C11 1.262 . S
O5 Zn0 2.049 . S
O5 C13 1.260 . S
O6 Zn1 1.996 1_655 S
O6 C13 1.257 . S
C7 O2 1.233 1_556 S
C7 O3 1.281 . S
C8 O9 1.249 . S
C8 O10 1.270 1_455 S
O9 Zn1 1.943 1_556 S
O9 C8 1.249 . S
O10 Zn0 2.067 1_556 S
O10 C8 1.270 1_655 S
C11 O4 1.262 . S
C11 O12 1.232 . S
O12 C11 1.232 . S
C13 O5 1.260 . S
C13 O6 1.257 . S
Zn14 O17 2.031 1_554 S
Zn14 O19 2.049 . S
Zn14 O24 2.067 1_554 S
Zn15 O16 1.962 . S
Zn15 O18 1.986 . S
Zn15 O20 1.996 . S
Zn15 O23 1.943 1_554 S
O16 Zn15 1.962 . S
O16 C21 1.233 1_554 S
O17 Zn14 2.031 1_556 S
O17 C21 1.280 . S
O18 Zn15 1.986 . S
O18 C25 1.262 . S
O19 Zn14 2.049 . S
O19 C27 1.260 . S
O20 Zn15 1.996 . S
O20 C27 1.257 . S
C21 O16 1.233 1_556 S
C21 O17 1.280 . S
C22 O23 1.249 . S
C22 O24 1.270 . S
O23 Zn15 1.943 1_556 S
O23 C22 1.249 . S
O24 Zn14 2.067 1_556 S
O24 C22 1.270 . S
C25 O18 1.262 . S
C25 O26 1.232 . S
O26 C25 1.232 . S
C27 O19 1.260 . S
C27 O20 1.257 . S
Zn28 O31 2.031 . S
Zn28 O33 2.049 1_554 S
Zn28 O38 2.067 . S
Zn29 O30 1.962 1_545 S
Zn29 O32 1.986 1_554 S
Zn29 O34 1.996 1_544 S
Zn29 O37 1.943 . S
O30 Zn29 1.962 1_565 S
O30 C35 1.254 . S
O31 Zn28 2.031 . S
O31 C35 1.269 . S
O32 Zn29 1.986 1_556 S
O32 C39 1.262 . S
O33 Zn28 2.049 1_556 S
O33 C41 1.260 . S
O34 Zn29 1.996 1_566 S
O34 C41 1.257 . S
C35 O30 1.254 . S
C35 O31 1.269 . S
C36 O37 1.249 . S
C36 O38 1.270 1_545 S
O37 Zn29 1.943 . S
O37 C36 1.249 . S
O38 Zn28 2.067 . S
O38 C36 1.270 1_565 S
C39 O32 1.262 . S
C39 O40 1.232 1_556 S
O40 C39 1.232 1_554 S
C41 O33 1.260 . S
C41 O34 1.257 . S
Zn42 O45 2.031 . S
Zn42 O47 2.049 1_554 S
Zn42 O52 2.067 . S
Zn43 O44 1.962 1_655 S
Zn43 O46 1.986 1_554 S
Zn43 O48 1.996 1_654 S
Zn43 O51 1.943 . S
O44 Zn43 1.962 1_455 S
O44 C49 1.254 . S
O45 Zn42 2.031 . S
O45 C49 1.269 . S
O46 Zn43 1.986 1_556 S
O46 C53 1.262 . S
O47 Zn42 2.049 1_556 S
O47 C55 1.260 . S
O48 Zn43 1.996 1_456 S
O48 C55 1.257 . S
C49 O44 1.254 . S
C49 O45 1.269 . S
C50 O51 1.249 . S
C50 O52 1.270 1_655 S
O51 Zn43 1.943 . S
O51 C50 1.249 . S
O52 Zn42 2.067 . S
O52 C50 1.270 1_455 S
C53 O46 1.262 . S
C53 O54 1.232 1_556 S
O54 C53 1.232 1_554 S
C55 O47 1.260 . S
C55 O48 1.257 . S
Zn56 O59 2.031 . S
Zn56 O61 2.049 1_554 S
Zn56 O66 2.067 . S
Zn57 O58 1.962 . S
Zn57 O60 1.986 1_554 S
Zn57 O62 1.996 1_554 S
Zn57 O65 1.943 . S
O58 Zn57 1.962 . S
O58 C63 1.254 . S
O59 Zn56 2.031 . S
O59 C63 1.269 . S
O60 Zn57 1.986 1_556 S
O60 C67 1.262 . S
O61 Zn56 2.049 1_556 S
O61 C69 1.260 . S
O62 Zn57 1.996 1_556 S
O62 C69 1.257 . S
C63 O58 1.254 . S
C63 O59 1.269 . S
C64 O65 1.249 . S
C64 O66 1.270 . S
O65 Zn57 1.943 . S
O65 C64 1.249 . S
O66 Zn56 2.067 . S
O66 C64 1.270 . S
C67 O60 1.262 . S
C67 O68 1.232 1_556 S
O68 C67 1.232 1_554 S
C69 O61 1.260 . S
C69 O62 1.257 . S
Zn70 O73 2.031 1_554 S
Zn70 O75 2.049 . S
Zn70 O80 2.067 1_554 S
Zn71 O72 1.962 1_565 S
Zn71 O74 1.986 . S
Zn71 O76 1.996 1_565 S
Zn71 O79 1.943 1_554 S
O72 Zn71 1.962 1_545 S
O72 C77 1.254 . S
O73 Zn70 2.031 1_556 S
O73 C77 1.269 1_556 S
O74 Zn71 1.986 . S
O74 C81 1.262 . S
O75 Zn70 2.049 . S
O75 C83 1.260 . S
O76 Zn71 1.996 1_545 S
O76 C83 1.257 . S
C77 O72 1.254 . S
C77 O73 1.269 1_554 S
C78 O79 1.249 . S
C78 O80 1.270 1_565 S
O79 Zn71 1.943 1_556 S
O79 C78 1.249 . S
O80 Zn70 2.067 1_556 S
O80 C78 1.270 1_545 S
C81 O74 1.262 . S
C81 O82 1.232 . S
O82 C81 1.232 . S
C83 O75 1.260 . S
C83 O76 1.257 . S
Zn84 O87 2.031 . S
Zn84 O89 2.049 . S
Zn84 O94 2.067 . S
Zn85 O86 1.962 . S
Zn85 O88 1.986 . S
Zn85 O90 1.996 . S
Zn85 O93 1.943 . S
O86 Zn85 1.962 . S
O86 C91 1.254 . S
O87 Zn84 2.031 . S
O87 C91 1.269 . S
O88 Zn85 1.986 . S
O88 C95 1.262 . S
O89 Zn84 2.049 . S
O89 C97 1.260 . S
O90 Zn85 1.996 . S
O90 C97 1.257 . S
C91 O86 1.254 . S
C91 O87 1.269 . S
C92 O93 1.249 . S
C92 O94 1.270 . S
O93 Zn85 1.943 . S
O93 C92 1.249 . S
O94 Zn84 2.067 . S
O94 C92 1.270 . S
C95 O88 1.262 . S
C95 O96 1.232 . S
O96 C95 1.232 . S
C97 O89 1.260 . S
C97 O90 1.257 . S
Zn98 O101 2.031 . S
Zn98 O103 2.049 . S
Zn98 O108 2.067 . S
Zn99 O100 1.962 . S
Zn99 O102 1.986 1_565 S
Zn99 O104 1.996 . S
Zn99 O107 1.943 . S
O100 Zn99 1.962 . S
O100 C105 1.254 . S
O101 Zn98 2.031 . S
O101 C105 1.269 . S
O102 Zn99 1.986 1_545 S
O102 C109 1.262 . S
O103 Zn98 2.049 . S
O103 C111 1.260 . S
O104 Zn99 1.996 . S
O104 C111 1.257 . S
C105 O100 1.254 . S
C105 O101 1.269 . S
C106 O107 1.249 . S
C106 O108 1.270 . S
O107 Zn99 1.943 . S
O107 C106 1.249 . S
O108 Zn98 2.067 . S
O108 C106 1.270 . S
C109 O102 1.262 . S
C109 O110 1.232 . S
O110 C109 1.232 . S
C111 O103 1.260 . S
C111 O104 1.257 . S
Zn112 O115 2.031 . S
Zn112 O117 2.049 . S
Zn112 O122 2.067 . S
Zn113 O114 1.962 1_455 S
Zn113 O116 1.986 . S
Zn113 O118 1.996 . S
Zn113 O121 1.943 . S
O114 Zn113 1.962 1_655 S
O114 C119 1.254 . S
O115 Zn112 2.031 . S
O115 C119 1.269 1_455 S
O116 Zn113 1.986 . S
O116 C123 1.262 . S
O117 Zn112 2.049 . S
O117 C125 1.260 . S
O118 Zn113 1.996 . S
O118 C125 1.257 . S
C119 O114 1.254 . S
C119 O115 1.269 1_655 S
C120 O121 1.249 . S
C120 O122 1.270 . S
O121 Zn113 1.943 . S
O121 C120 1.249 . S
O122 Zn112 2.067 . S
O122 C120 1.270 . S
C123 O116 1.262 . S
C123 O124 1.232 . S
O124 C123 1.232 . S
C125 O117 1.260 . S
C125 O118 1.257 . S
Zn126 O129 2.031 . S
Zn126 O131 2.049 . S
Zn126 O136 2.067 . S
Zn127 O128 1.962 1_565 S
Zn127 O130 1.986 . S
Zn127 O132 1.996 . S
Zn127 O135 1.943 . S
O128 Zn127 1.962 1_545 S
O128 C133 1.254 . S
O129 Zn126 2.031 . S
O129 C133 1.269 1_565 S
O130 Zn127 1.986 . S
O130 C137 1.262 . S
O131 Zn126 2.049 . S
O131 C139 1.260 . S
O132 Zn127 1.996 . S
O132 C139 1.257 . S
C133 O128 1.254 . S
C133 O129 1.269 1_545 S
C134 O135 1.249 . S
C134 O136 1.270 . S
O135 Zn127 1.943 . S
O135 C134 1.249 . S
O136 Zn126 2.067 . S
O136 C134 1.270 . S
C137 O130 1.262 . S
C137 O138 1.232 . S
O138 C137 1.232 . S
C139 O131 1.260 . S
C139 O132 1.257 . S
Zn140 O143 2.031 . S
Zn140 O145 2.049 . S
Zn140 O150 2.067 . S
Zn141 O142 1.962 1_455 S
Zn141 O144 1.986 . S
Zn141 O146 1.996 . S
Zn141 O149 1.943 . S
O142 Zn141 1.962 1_655 S
O142 C147 1.254 . S
O143 Zn140 2.031 . S
O143 C147 1.269 1_455 S
O144 Zn141 1.986 . S
O144 C151 1.262 . S
O145 Zn140 2.049 . S
O145 C153 1.260 . S
O146 Zn141 1.996 . S
O146 C153 1.257 . S
C147 O142 1.254 . S
C147 O143 1.269 1_655 S
C148 O149 1.249 . S
C148 O150 1.270 . S
O149 Zn141 1.943 . S
O149 C148 1.249 . S
O150 Zn140 2.067 . S
O150 C148 1.270 . S
C151 O144 1.262 . S
C151 O152 1.232 . S
O152 C151 1.232 . S
C153 O145 1.260 . S
C153 O146 1.257 . S
Zn154 O157 2.031 . S
Zn154 O159 2.049 . S
Zn154 O164 2.067 . S
Zn155 O156 1.962 . S
Zn155 O158 1.986 . S
Zn155 O160 1.996 . S
Zn155 O163 1.943 . S
O156 Zn155 1.962 . S
O156 C161 1.254 . S
O157 Zn154 2.031 . S
O157 C161 1.269 . S
O158 Zn155 1.986 . S
O158 C165 1.262 . S
O159 Zn154 2.049 . S
O159 C167 1.260 . S
O160 Zn155 1.996 . S
O160 C167 1.257 . S
C161 O156 1.254 . S
C161 O157 1.269 . S
C162 O163 1.249 . S
C162 O164 1.270 . S
O163 Zn155 1.943 . S
O163 C162 1.249 . S
O164 Zn154 2.067 . S
O164 C162 1.270 . S
C165 O158 1.262 . S
C165 O166 1.232 . S
O166 C165 1.232 . S
C167 O159 1.260 . S
C167 O160 1.257 . S
Zn168 O171 2.031 . S
Zn168 O173 2.049 . S
Zn168 O178 2.067 . S
Zn169 O170 1.962 1_545 S
Zn169 O172 1.986 . S
Zn169 O174 1.996 . S
Zn169 O177 1.943 . S
O170 Zn169 1.962 1_565 S
O170 C175 1.254 . S
O171 Zn168 2.031 . S
O171 C175 1.269 1_545 S
O172 Zn169 1.986 . S
O172 C179 1.262 . S
O173 Zn168 2.049 . S
O173 C181 1.260 . S
O174 Zn169 1.996 . S
O174 C181 1.257 . S
C175 O170 1.254 . S
C175 O171 1.269 1_565 S
C176 O177 1.249 . S
C176 O178 1.270 . S
O177 Zn169 1.943 . S
O177 C176 1.249 . S
O178 Zn168 2.067 . S
O178 C176 1.270 . S
C179 O172 1.262 . S
C179 O180 1.232 . S
O180 C179 1.232 . S
C181 O173 1.260 . S
C181 O174 1.257 . S
Zn182 O185 2.044 . S
Zn182 O187 2.049 . S
Zn182 O192 2.067 . S
Zn183 O184 1.962 1_655 S
Zn183 O186 1.986 . S
Zn183 O188 1.996 . S
Zn183 O191 1.943 . S
O184 Zn183 1.962 1_455 S
O184 C189 1.254 . S
O185 Zn182 2.044 . S
O185 C189 1.258 1_655 S
O186 Zn183 1.986 . S
O186 C193 1.262 . S
O187 Zn182 2.049 . S
O187 C195 1.260 . S
O188 Zn183 1.996 . S
O188 C195 1.257 . S
C189 O184 1.254 . S
C189 O185 1.258 1_455 S
C190 O191 1.249 . S
C190 O192 1.270 . S
O191 Zn183 1.943 . S
O191 C190 1.249 . S
O192 Zn182 2.067 . S
O192 C190 1.270 . S
C193 O186 1.262 . S
C193 O194 1.232 . S
O194 C193 1.232 . S
C195 O187 1.260 . S
C195 O188 1.257 . S
Zn196 O199 2.031 . S
Zn196 O201 2.049 . S
Zn196 O206 2.067 . S
Zn197 O198 1.962 . S
Zn197 O200 1.986 . S
Zn197 O202 1.996 . S
Zn197 O205 1.943 . S
O198 Zn197 1.962 . S
O198 C203 1.254 . S
O199 Zn196 2.031 . S
O199 C203 1.269 . S
O200 Zn197 1.986 . S
O200 C207 1.262 . S
O201 Zn196 2.049 . S
O201 C209 1.260 . S
O202 Zn197 1.996 . S
O202 C209 1.257 . S
C203 O198 1.254 . S
C203 O199 1.269 . S
C204 O205 1.249 . S
C204 O206 1.270 . S
O205 Zn197 1.943 . S
O205 C204 1.249 . S
O206 Zn196 2.067 . S
O206 C204 1.270 . S
C207 O200 1.262 . S
C207 O208 1.232 . S
O208 C207 1.232 . S
C209 O201 1.260 . S
C209 O202 1.257 . S
Zn210 O213 2.031 . S
Zn210 O215 2.049 . S
Zn210 O220 2.067 . S
Zn211 O212 1.962 . S
Zn211 O214 1.986 . S
Zn211 O216 1.996 . S
Zn211 O219 1.943 . S
O212 Zn211 1.962 . S
O212 C217 1.254 . S
O213 Zn210 2.031 . S
O213 C217 1.269 . S
O214 Zn211 1.986 . S
O214 C221 1.262 . S
O215 Zn210 2.049 . S
O215 C223 1.260 . S
O216 Zn211 1.996 . S
O216 C223 1.257 . S
C217 O212 1.254 . S
C217 O213 1.269 . S
C218 O219 1.249 . S
C218 O220 1.270 . S
O219 Zn211 1.943 . S
O219 C218 1.249 . S
O220 Zn210 2.067 . S
O220 C218 1.270 . S
C221 O214 1.262 . S
C221 O222 1.232 . S
O222 C221 1.232 . S
C223 O215 1.260 . S
C223 O216 1.257 . S
Zn224 O227 2.031 . S
Zn224 O229 2.049 . S
Zn224 O234 2.067 . S
Zn225 O226 1.962 . S
Zn225 O228 1.986 1_545 S
Zn225 O230 1.996 . S
Zn225 O233 1.943 . S
O226 Zn225 1.962 . S
O226 C231 1.254 . S
O227 Zn224 2.031 . S
O227 C231 1.269 . S
O228 Zn225 1.986 1_565 S
O228 C235 1.262 . S
O229 Zn224 2.049 . S
O229 C237 1.260 . S
O230 Zn225 1.996 . S
O230 C237 1.257 . S
C231 O226 1.254 . S
C231 O227 1.269 . S
C232 O233 1.249 . S
C232 O234 1.270 . S
O233 Zn225 1.943 . S
O233 C232 1.249 . S
O234 Zn224 2.067 . S
O234 C232 1.270 . S
C235 O228 1.262 . S
C235 O236 1.232 . S
O236 C235 1.232 . S
C237 O229 1.260 . S
C237 O230 1.257 . S
Zn238 O241 2.031 . S
Zn238 O243 2.049 . S
Zn238 O248 2.067 . S
Zn239 O240 1.962 1_655 S
Zn239 O242 1.986 . S
Zn239 O244 1.996 . S
Zn239 O247 1.943 . S
O240 Zn239 1.962 1_455 S
O240 C245 1.254 . S
O241 Zn238 2.031 . S
O241 C245 1.269 1_655 S
O242 Zn239 1.986 . S
O242 C249 1.262 . S
O243 Zn238 2.049 . S
O243 C251 1.260 . S
O244 Zn239 1.996 . S
O244 C251 1.257 . S
C245 O240 1.254 . S
C245 O241 1.269 1_455 S
C246 O247 1.249 . S
C246 O248 1.270 . S
O247 Zn239 1.943 . S
O247 C246 1.249 . S
O248 Zn238 2.067 . S
O248 C246 1.270 . S
C249 O242 1.262 . S
C249 O250 1.232 . S
O250 C249 1.232 . S
C251 O243 1.260 . S
C251 O244 1.257 . S
H252 C260 0.930 . S
H253 C263 0.930 . S
H254 C265 0.930 . S
H255 C266 0.970 . S
H256 C266 0.970 . S
H257 C268 0.930 . S
H258 C270 0.930 . S
H259 C272 0.930 . S
C260 H252 0.930 . S
C260 C261 1.382 . S
C260 C262 1.426 . S
C261 C260 1.382 . S
C261 C265 1.389 . S
C262 C260 1.426 . S
C262 C263 1.375 . S
C262 C266 1.532 . S
C263 H253 0.930 . S
C263 C262 1.375 . S
C263 C264 1.416 . S
C264 C263 1.416 . S
C264 C265 1.371 . S
C265 H254 0.930 . S
C265 C261 1.389 . S
C265 C264 1.371 . S
C266 H255 0.970 . S
C266 H256 0.970 . S
C266 C262 1.532 . S
C266 C267 1.499 . S
C267 C266 1.499 . S
C267 C268 1.370 . S
C267 C272 1.415 . S
C268 H257 0.930 . S
C268 C267 1.370 . S
C268 C269 1.407 . S
C269 C268 1.407 . S
C269 C270 1.365 . S
C270 H258 0.930 . S
C270 C269 1.365 . S
C270 C271 1.393 . S
C271 C270 1.393 . S
C271 C272 1.387 . S
C272 H259 0.930 . S
C272 C267 1.415 . S
C272 C271 1.387 . S
H273 C281 0.930 . S
H274 C284 0.930 . S
H275 C286 0.930 . S
H276 C287 0.970 . S
H277 C287 0.970 . S
H278 C289 0.930 . S
H279 C291 0.930 . S
H280 C293 0.930 . S
C281 H273 0.930 . S
C281 C282 1.382 . S
C281 C283 1.426 . S
C282 C281 1.382 . S
C282 C286 1.389 . S
C283 C281 1.426 . S
C283 C284 1.375 . S
C283 C287 1.532 . S
C284 H274 0.930 . S
C284 C283 1.375 . S
C284 C285 1.416 . S
C285 C284 1.416 . S
C285 C286 1.371 . S
C286 H275 0.930 . S
C286 C282 1.389 . S
C286 C285 1.371 . S
C287 H276 0.970 . S
C287 H277 0.970 . S
C287 C283 1.532 . S
C287 C288 1.499 . S
C288 C287 1.499 . S
C288 C289 1.370 . S
C288 C293 1.415 . S
C289 H278 0.930 . S
C289 C288 1.370 . S
C289 C290 1.407 . S
C290 C289 1.407 . S
C290 C291 1.365 . S
C291 H279 0.930 . S
C291 C290 1.365 . S
C291 C292 1.393 . S
C292 C291 1.393 . S
C292 C293 1.387 . S
C293 H280 0.930 . S
C293 C288 1.415 . S
C293 C292 1.387 . S
H294 C302 0.930 . S
H295 C305 0.930 . S
H296 C307 0.930 . S
H297 C308 0.970 . S
H298 C308 0.970 . S
H299 C310 0.930 . S
H300 C312 0.930 . S
H301 C314 0.930 . S
C302 H294 0.930 . S
C302 C303 1.382 . S
C302 C304 1.426 . S
C303 C302 1.382 . S
C303 C307 1.389 . S
C304 C302 1.426 . S
C304 C305 1.375 . S
C304 C308 1.532 . S
C305 H295 0.930 . S
C305 C304 1.375 . S
C305 C306 1.416 . S
C306 C305 1.416 . S
C306 C307 1.371 . S
C307 H296 0.930 . S
C307 C303 1.389 . S
C307 C306 1.371 . S
C308 H297 0.970 . S
C308 H298 0.970 . S
C308 C304 1.532 . S
C308 C309 1.499 . S
C309 C308 1.499 . S
C309 C310 1.370 . S
C309 C314 1.415 . S
C310 H299 0.930 . S
C310 C309 1.370 . S
C310 C311 1.407 . S
C311 C310 1.407 . S
C311 C312 1.365 . S
C312 H300 0.930 . S
C312 C311 1.365 . S
C312 C313 1.393 . S
C313 C312 1.393 . S
C313 C314 1.387 . S
C314 H301 0.930 . S
C314 C309 1.415 . S
C314 C313 1.387 . S
H315 C323 0.930 . S
H316 C326 0.930 . S
H317 C328 0.930 . S
H318 C329 0.970 . S
H319 C329 0.970 . S
H320 C331 0.930 . S
H321 C333 0.930 . S
H322 C335 0.930 . S
C323 H315 0.930 . S
C323 C324 1.382 . S
C323 C325 1.426 . S
C324 C323 1.382 . S
C324 C328 1.389 . S
C325 C323 1.426 . S
C325 C326 1.375 . S
C325 C329 1.532 . S
C326 H316 0.930 . S
C326 C325 1.375 . S
C326 C327 1.416 . S
C327 C326 1.416 . S
C327 C328 1.371 . S
C328 H317 0.930 . S
C328 C324 1.389 . S
C328 C327 1.371 . S
C329 H318 0.970 . S
C329 H319 0.970 . S
C329 C325 1.532 . S
C329 C330 1.499 . S
C330 C329 1.499 . S
C330 C331 1.370 . S
C330 C335 1.415 . S
C331 H320 0.930 . S
C331 C330 1.370 . S
C331 C332 1.407 . S
C332 C331 1.407 . S
C332 C333 1.365 . S
C333 H321 0.930 . S
C333 C332 1.365 . S
C333 C334 1.393 . S
C334 C333 1.393 . S
C334 C335 1.387 . S
C335 H322 0.930 . S
C335 C330 1.415 . S
C335 C334 1.387 . S
H336 C344 0.930 . S
H337 C347 0.930 . S
H338 C349 0.930 . S
H339 C350 0.970 . S
H340 C350 0.970 . S
H341 C352 0.930 . S
H342 C354 0.930 . S
H343 C356 0.930 . S
C344 H336 0.930 . S
C344 C345 1.382 . S
C344 C346 1.426 . S
C345 C344 1.382 . S
C345 C349 1.389 . S
C346 C344 1.426 . S
C346 C347 1.375 . S
C346 C350 1.532 . S
C347 H337 0.930 . S
C347 C346 1.375 . S
C347 C348 1.416 . S
C348 C347 1.416 . S
C348 C349 1.371 . S
C349 H338 0.930 . S
C349 C345 1.389 . S
C349 C348 1.371 . S
C350 H339 0.970 . S
C350 H340 0.970 . S
C350 C346 1.532 . S
C350 C351 1.499 . S
C351 C350 1.499 . S
C351 C352 1.370 . S
C351 C356 1.415 . S
C352 H341 0.930 . S
C352 C351 1.370 . S
C352 C353 1.407 . S
C353 C352 1.407 . S
C353 C354 1.365 . S
C354 H342 0.930 . S
C354 C353 1.365 . S
C354 C355 1.393 . S
C355 C354 1.393 . S
C355 C356 1.387 . S
C356 H343 0.930 . S
C356 C351 1.415 . S
C356 C355 1.387 . S
H357 C365 0.930 . S
H358 C368 0.930 . S
H359 C370 0.930 . S
H360 C371 0.970 . S
H361 C371 0.970 . S
H362 C373 0.930 . S
H363 C375 0.930 . S
H364 C377 0.930 . S
C365 H357 0.930 . S
C365 C366 1.382 . S
C365 C367 1.426 . S
C366 C365 1.382 . S
C366 C370 1.389 . S
C367 C365 1.426 . S
C367 C368 1.375 . S
C367 C371 1.532 . S
C368 H358 0.930 . S
C368 C367 1.375 . S
C368 C369 1.416 . S
C369 C368 1.416 . S
C369 C370 1.371 . S
C370 H359 0.930 . S
C370 C366 1.389 . S
C370 C369 1.371 . S
C371 H360 0.970 . S
C371 H361 0.970 . S
C371 C367 1.532 . S
C371 C372 1.499 . S
C372 C371 1.499 . S
C372 C373 1.370 . S
C372 C377 1.415 . S
C373 H362 0.930 . S
C373 C372 1.370 . S
C373 C374 1.407 . S
C374 C373 1.407 . S
C374 C375 1.365 . S
C375 H363 0.930 . S
C375 C374 1.365 . S
C375 C376 1.393 . S
C376 C375 1.393 . S
C376 C377 1.387 . S
C377 H364 0.930 . S
C377 C372 1.415 . S
C377 C376 1.387 . S
H378 C386 0.930 . S
H379 C389 0.930 . S
H380 C391 0.930 . S
H381 C392 0.970 . S
H382 C392 0.970 . S
H383 C394 0.930 . S
H384 C396 0.930 . S
H385 C398 0.930 . S
C386 H378 0.930 . S
C386 C387 1.382 . S
C386 C388 1.426 . S
C387 C386 1.382 . S
C387 C391 1.389 . S
C388 C386 1.426 . S
C388 C389 1.375 . S
C388 C392 1.532 . S
C389 H379 0.930 . S
C389 C388 1.375 . S
C389 C390 1.416 . S
C390 C389 1.416 . S
C390 C391 1.371 . S
C391 H380 0.930 . S
C391 C387 1.389 . S
C391 C390 1.371 . S
C392 H381 0.970 . S
C392 H382 0.970 . S
C392 C388 1.532 . S
C392 C393 1.499 . S
C393 C392 1.499 . S
C393 C394 1.370 . S
C393 C398 1.415 . S
C394 H383 0.930 . S
C394 C393 1.370 . S
C394 C395 1.407 . S
C395 C394 1.407 . S
C395 C396 1.365 . S
C396 H384 0.930 . S
C396 C395 1.365 . S
C396 C397 1.393 . S
C397 C396 1.393 . S
C397 C398 1.387 . S
C398 H385 0.930 . S
C398 C393 1.415 . S
C398 C397 1.387 . S
H399 C407 0.930 . S
H400 C410 0.930 . S
H401 C412 0.930 . S
H402 C413 0.970 . S
H403 C413 0.970 . S
H404 C415 0.930 . S
H405 C417 0.930 . S
H406 C419 0.930 . S
C407 H399 0.930 . S
C407 C408 1.382 . S
C407 C409 1.426 . S
C408 C407 1.382 . S
C408 C412 1.389 . S
C409 C407 1.426 . S
C409 C410 1.375 . S
C409 C413 1.532 . S
C410 H400 0.930 . S
C410 C409 1.375 . S
C410 C411 1.416 . S
C411 C410 1.416 . S
C411 C412 1.371 . S
C412 H401 0.930 . S
C412 C408 1.389 . S
C412 C411 1.371 . S
C413 H402 0.970 . S
C413 H403 0.970 . S
C413 C409 1.532 . S
C413 C414 1.499 . S
C414 C413 1.499 . S
C414 C415 1.370 . S
C414 C419 1.415 . S
C415 H404 0.930 . S
C415 C414 1.370 . S
C415 C416 1.407 . S
C416 C415 1.407 . S
C416 C417 1.365 . S
C417 H405 0.930 . S
C417 C416 1.365 . S
C417 C418 1.393 . S
C418 C417 1.393 . S
C418 C419 1.387 . S
C419 H406 0.930 . S
C419 C414 1.415 . S
C419 C418 1.387 . S
H420 C428 0.930 . S
H421 C431 0.930 . S
H422 C433 0.930 . S
H423 C434 0.970 . S
H424 C434 0.970 . S
H425 C436 0.930 . S
H426 C438 0.930 . S
H427 C440 0.930 . S
C428 H420 0.930 . S
C428 C429 1.382 . S
C428 C430 1.426 . S
C429 C428 1.382 . S
C429 C433 1.389 . S
C430 C428 1.426 . S
C430 C431 1.375 . S
C430 C434 1.532 . S
C431 H421 0.930 . S
C431 C430 1.375 . S
C431 C432 1.416 . S
C432 C431 1.416 . S
C432 C433 1.371 . S
C433 H422 0.930 . S
C433 C429 1.389 . S
C433 C432 1.371 . S
C434 H423 0.970 . S
C434 H424 0.970 . S
C434 C430 1.532 . S
C434 C435 1.499 . S
C435 C434 1.499 . S
C435 C436 1.370 . S
C435 C440 1.415 . S
C436 H425 0.930 . S
C436 C435 1.370 . S
C436 C437 1.407 . S
C437 C436 1.407 . S
C437 C438 1.365 . S
C438 H426 0.930 . S
C438 C437 1.365 . S
C438 C439 1.393 . S
C439 C438 1.393 . S
C439 C440 1.387 . S
C440 H427 0.930 . S
C440 C435 1.415 . S
C440 C439 1.387 . S
H441 C449 0.930 . S
H442 C452 0.930 . S
H443 C454 0.930 . S
H444 C455 0.970 . S
H445 C455 0.970 . S
H446 C457 0.930 . S
H447 C459 0.930 . S
H448 C461 0.930 . S
C449 H441 0.930 . S
C449 C450 1.382 . S
C449 C451 1.426 . S
C450 C449 1.382 . S
C450 C454 1.389 1_455 S
C451 C449 1.426 . S
C451 C452 1.375 . S
C451 C455 1.532 . S
C452 H442 0.930 . S
C452 C451 1.375 . S
C452 C453 1.416 . S
C453 C452 1.416 . S
C453 C454 1.371 1_455 S
C454 H443 0.930 . S
C454 C450 1.389 1_655 S
C454 C453 1.371 1_655 S
C455 H444 0.970 . S
C455 H445 0.970 . S
C455 C451 1.532 . S
C455 C456 1.499 . S
C456 C455 1.499 . S
C456 C457 1.370 . S
C456 C461 1.415 . S
C457 H446 0.930 . S
C457 C456 1.370 . S
C457 C458 1.410 . S
C458 C457 1.410 . S
C458 C459 1.370 1_455 S
C459 H447 0.930 . S
C459 C458 1.370 1_655 S
C459 C460 1.393 1_655 S
C460 C459 1.393 1_455 S
C460 C461 1.387 . S
C461 H448 0.930 . S
C461 C456 1.415 . S
C461 C460 1.387 . S
H462 C470 0.930 . S
H463 C473 0.930 . S
H464 C475 0.930 . S
H465 C476 0.970 . S
H466 C476 0.970 . S
H467 C478 0.930 . S
H468 C480 0.930 . S
H469 C482 0.930 . S
C470 H462 0.930 . S
C470 C471 1.382 . S
C470 C472 1.426 . S
C471 C470 1.382 . S
C471 C475 1.389 . S
C472 C470 1.426 . S
C472 C473 1.375 . S
C472 C476 1.532 . S
C473 H463 0.930 . S
C473 C472 1.375 . S
C473 C474 1.416 . S
C474 C473 1.416 . S
C474 C475 1.371 . S
C475 H464 0.930 . S
C475 C471 1.389 . S
C475 C474 1.371 . S
C476 H465 0.970 . S
C476 H466 0.970 . S
C476 C472 1.532 . S
C476 C477 1.499 . S
C477 C476 1.499 . S
C477 C478 1.370 . S
C477 C482 1.415 . S
C478 H467 0.930 . S
C478 C477 1.370 . S
C478 C479 1.407 . S
C479 C478 1.407 . S
C479 C480 1.365 . S
C480 H468 0.930 . S
C480 C479 1.365 . S
C480 C481 1.393 . S
C481 C480 1.393 . S
C481 C482 1.387 . S
C482 H469 0.930 . S
C482 C477 1.415 . S
C482 C481 1.387 . S
H483 C491 0.930 . S
H484 C494 0.930 . S
H485 C496 0.930 . S
H486 C497 0.970 . S
H487 C497 0.970 . S
H488 C499 0.930 . S
H489 C501 0.930 . S
H490 C503 0.930 . S
C491 H483 0.930 . S
C491 C492 1.382 . S
C491 C493 1.426 . S
C492 C491 1.382 . S
C492 C496 1.389 1_565 S
C493 C491 1.426 . S
C493 C494 1.375 . S
C493 C497 1.532 . S
C494 H484 0.930 . S
C494 C493 1.375 . S
C494 C495 1.416 . S
C495 C494 1.416 . S
C495 C496 1.371 1_565 S
C496 H485 0.930 . S
C496 C492 1.389 1_545 S
C496 C495 1.371 1_545 S
C497 H486 0.970 . S
C497 H487 0.970 . S
C497 C493 1.532 . S
C497 C498 1.499 . S
C498 C497 1.499 . S
C498 C499 1.370 . S
C498 C503 1.415 . S
C499 H488 0.930 . S
C499 C498 1.370 . S
C499 C500 1.401 . S
C500 C499 1.401 . S
C500 C501 1.367 1_565 S
C501 H489 0.930 . S
C501 C500 1.367 1_545 S
C501 C502 1.393 1_545 S
C502 C501 1.393 1_565 S
C502 C503 1.387 . S
C503 H490 0.930 . S
C503 C498 1.415 . S
C503 C502 1.387 . S
H504 C512 0.930 . S
H505 C515 0.930 . S
H506 C517 0.930 . S
H507 C518 0.970 . S
H508 C518 0.970 . S
H509 C520 0.930 . S
H510 C522 0.930 . S
H511 C524 0.930 . S
C512 H504 0.930 . S
C512 C513 1.382 . S
C512 C514 1.426 . S
C513 C512 1.382 . S
C513 C517 1.389 1_565 S
C514 C512 1.426 . S
C514 C515 1.375 . S
C514 C518 1.532 . S
C515 H505 0.930 . S
C515 C514 1.375 . S
C515 C516 1.457 . S
C516 C515 1.457 . S
C516 C517 1.355 1_565 S
C517 H506 0.930 . S
C517 C513 1.389 1_545 S
C517 C516 1.355 1_545 S
C518 H507 0.970 . S
C518 H508 0.970 . S
C518 C514 1.532 . S
C518 C519 1.499 . S
C519 C518 1.499 . S
C519 C520 1.370 . S
C519 C524 1.415 . S
C520 H509 0.930 . S
C520 C519 1.370 . S
C520 C521 1.407 . S
C521 C520 1.407 . S
C521 C522 1.365 1_565 S
C522 H510 0.930 . S
C522 C521 1.365 1_545 S
C522 C523 1.393 1_545 S
C523 C522 1.393 1_565 S
C523 C524 1.387 . S
C524 H511 0.930 . S
C524 C519 1.415 . S
C524 C523 1.387 . S
H525 C533 0.930 . S
H526 C536 0.930 . S
H527 C538 0.930 . S
H528 C539 0.970 . S
H529 C539 0.970 . S
H530 C541 0.930 . S
H531 C543 0.930 . S
H532 C545 0.930 . S
C533 H525 0.930 . S
C533 C534 1.382 . S
C533 C535 1.426 . S
C534 C533 1.382 . S
C534 C538 1.389 1_455 S
C535 C533 1.426 . S
C535 C536 1.375 . S
C535 C539 1.532 . S
C536 H526 0.930 . S
C536 C535 1.375 . S
C536 C537 1.416 . S
C537 C536 1.416 . S
C537 C538 1.371 1_455 S
C538 H527 0.930 . S
C538 C534 1.389 1_655 S
C538 C537 1.371 1_655 S
C539 H528 0.970 . S
C539 H529 0.970 . S
C539 C535 1.532 . S
C539 C540 1.499 . S
C540 C539 1.499 . S
C540 C541 1.370 . S
C540 C545 1.415 . S
C541 H530 0.930 . S
C541 C540 1.370 . S
C541 C542 1.407 . S
C542 C541 1.407 . S
C542 C543 1.365 1_455 S
C543 H531 0.930 . S
C543 C542 1.365 1_655 S
C543 C544 1.393 1_655 S
C544 C543 1.393 1_455 S
C544 C545 1.387 . S
C545 H532 0.930 . S
C545 C540 1.415 . S
C545 C544 1.387 . S
H546 C554 0.930 . S
H547 C557 0.930 . S
H548 C559 0.930 . S
H549 C560 0.970 . S
H550 C560 0.970 . S
H551 C562 0.930 . S
H552 C564 0.930 . S
H553 C566 0.930 . S
C554 H546 0.930 . S
C554 C555 1.382 . S
C554 C556 1.426 . S
C555 C554 1.382 . S
C555 C559 1.389 . S
C556 C554 1.426 . S
C556 C557 1.375 . S
C556 C560 1.532 . S
C557 H547 0.930 . S
C557 C556 1.375 . S
C557 C558 1.416 . S
C558 C557 1.416 . S
C558 C559 1.371 . S
C559 H548 0.930 . S
C559 C555 1.389 . S
C559 C558 1.371 . S
C560 H549 0.970 . S
C560 H550 0.970 . S
C560 C556 1.532 . S
C560 C561 1.499 . S
C561 C560 1.499 . S
C561 C562 1.370 . S
C561 C566 1.415 . S
C562 H551 0.930 . S
C562 C561 1.370 . S
C562 C563 1.407 . S
C563 C562 1.407 . S
C563 C564 1.365 . S
C564 H552 0.930 . S
C564 C563 1.365 . S
C564 C565 1.393 . S
C565 C564 1.393 . S
C565 C566 1.387 . S
C566 H553 0.930 . S
C566 C561 1.415 . S
C566 C565 1.387 . S
H567 C575 0.930 . S
H568 C578 0.930 . S
H569 C580 0.930 . S
H570 C581 0.970 . S
H571 C581 0.970 . S
H572 C583 0.930 . S
H573 C585 0.930 . S
H574 C587 0.930 . S
C575 H567 0.930 . S
C575 C576 1.382 . S
C575 C577 1.426 . S
C576 C575 1.382 . S
C576 C580 1.389 . S
C577 C575 1.426 . S
C577 C578 1.375 . S
C577 C581 1.532 . S
C578 H568 0.930 . S
C578 C577 1.375 . S
C578 C579 1.416 . S
C579 C578 1.416 . S
C579 C580 1.371 . S
C580 H569 0.930 . S
C580 C576 1.389 . S
C580 C579 1.371 . S
C581 H570 0.970 . S
C581 H571 0.970 . S
C581 C577 1.532 . S
C581 C582 1.499 . S
C582 C581 1.499 . S
C582 C583 1.370 . S
C582 C587 1.415 . S
C583 H572 0.930 . S
C583 C582 1.370 . S
C583 C584 1.407 . S
C584 C583 1.407 . S
C584 C585 1.365 . S
C585 H573 0.930 . S
C585 C584 1.365 . S
C585 C586 1.393 . S
C586 C585 1.393 . S
C586 C587 1.387 . S
C587 H574 0.930 . S
C587 C582 1.415 . S
C587 C586 1.387 . S
H588 C596 0.930 . S
H589 C599 0.930 . S
H590 C601 0.930 . S
H591 C602 0.970 . S
H592 C602 0.970 . S
H593 C604 0.930 . S
H594 C606 0.930 . S
H595 C608 0.930 . S
C596 H588 0.930 . S
C596 C597 1.382 . S
C596 C598 1.426 . S
C597 C596 1.382 . S
C597 C601 1.389 . S
C598 C596 1.426 . S
C598 C599 1.375 . S
C598 C602 1.532 . S
C599 H589 0.930 . S
C599 C598 1.375 . S
C599 C600 1.416 . S
C600 C599 1.416 . S
C600 C601 1.371 . S
C601 H590 0.930 . S
C601 C597 1.389 . S
C601 C600 1.371 . S
C602 H591 0.970 . S
C602 H592 0.970 . S
C602 C598 1.532 . S
C602 C603 1.499 . S
C603 C602 1.499 . S
C603 C604 1.370 . S
C603 C608 1.415 . S
C604 H593 0.930 . S
C604 C603 1.370 . S
C604 C605 1.407 . S
C605 C604 1.407 . S
C605 C606 1.365 . S
C606 H594 0.930 . S
C606 C605 1.365 . S
C606 C607 1.393 . S
C607 C606 1.393 . S
C607 C608 1.387 . S
C608 H595 0.930 . S
C608 C603 1.415 . S
C608 C607 1.387 . S
H609 C617 0.930 . S
H610 C620 0.930 . S
H611 C622 0.930 . S
H612 C623 0.970 . S
H613 C623 0.970 . S
H614 C625 0.930 . S
H615 C627 0.930 . S
H616 C629 0.930 . S
C617 H609 0.930 . S
C617 C618 1.382 . S
C617 C619 1.426 . S
C618 C617 1.382 . S
C618 C622 1.389 . S
C619 C617 1.426 . S
C619 C620 1.375 . S
C619 C623 1.532 . S
C620 H610 0.930 . S
C620 C619 1.375 . S
C620 C621 1.416 . S
C621 C620 1.416 . S
C621 C622 1.371 . S
C622 H611 0.930 . S
C622 C618 1.389 . S
C622 C621 1.371 . S
C623 H612 0.970 . S
C623 H613 0.970 . S
C623 C619 1.532 . S
C623 C624 1.499 . S
C624 C623 1.499 . S
C624 C625 1.370 . S
C624 C629 1.415 . S
C625 H614 0.930 . S
C625 C624 1.370 . S
C625 C626 1.407 . S
C626 C625 1.407 . S
C626 C627 1.365 . S
C627 H615 0.930 . S
C627 C626 1.365 . S
C627 C628 1.393 . S
C628 C627 1.393 . S
C628 C629 1.387 . S
C629 H616 0.930 . S
C629 C624 1.415 . S
C629 C628 1.387 . S
H630 C638 0.950 . S
H631 C643 0.950 . S
H632 C640 0.950 . S
H633 C642 0.950 . S
H634 C644 0.950 . S
H635 C646 0.950 . S
H636 C648 0.950 . S
H637 C649 0.950 . S
C638 H630 0.950 . S
C638 C639 1.386 1_455 S
C638 C640 1.391 . S
C639 C638 1.386 1_655 S
C639 C643 1.393 . S
C640 H632 0.950 . S
C640 C638 1.391 . S
C640 C641 1.400 1_455 S
C641 C640 1.400 1_655 S
C641 C642 1.398 . S
C641 C647 1.491 . S
C642 H633 0.950 . S
C642 C641 1.398 . S
C642 C643 1.391 . S
C643 H631 0.950 . S
C643 C639 1.393 . S
C643 C642 1.391 . S
C644 H634 0.950 . S
C644 C645 1.386 . S
C644 C646 1.391 . S
C645 C644 1.386 . S
C645 C649 1.393 1_655 S
C646 H635 0.950 . S
C646 C644 1.391 . S
C646 C647 1.400 . S
C647 C641 1.491 . S
C647 C646 1.400 . S
C647 C648 1.398 1_655 S
C648 H636 0.950 . S
C648 C647 1.398 1_455 S
C648 C649 1.391 . S
C649 H637 0.950 . S
C649 C645 1.393 1_455 S
C649 C648 1.391 . S
H650 C658 0.950 . S
H651 C663 0.950 . S
H652 C660 0.950 . S
H653 C662 0.950 . S
H654 C664 0.950 . S
H655 C666 0.950 . S
H656 C668 0.950 . S
H657 C669 0.950 . S
C658 H650 0.950 . S
C658 C659 1.386 . S
C658 C660 1.391 . S
C659 C658 1.386 . S
C659 C663 1.393 . S
C660 H652 0.950 . S
C660 C658 1.391 . S
C660 C661 1.400 . S
C661 C660 1.400 . S
C661 C662 1.398 . S
C661 C667 1.491 . S
C662 H653 0.950 . S
C662 C661 1.398 . S
C662 C663 1.391 . S
C663 H651 0.950 . S
C663 C659 1.393 . S
C663 C662 1.391 . S
C664 H654 0.950 . S
C664 C665 1.386 . S
C664 C666 1.391 . S
C665 C664 1.386 . S
C665 C669 1.393 . S
C666 H655 0.950 . S
C666 C664 1.391 . S
C666 C667 1.400 . S
C667 C661 1.491 . S
C667 C666 1.400 . S
C667 C668 1.398 . S
C668 H656 0.950 . S
C668 C667 1.398 . S
C668 C669 1.391 . S
C669 H657 0.950 . S
C669 C665 1.393 . S
C669 C668 1.391 . S
H670 C678 0.950 . S
H671 C683 0.950 . S
H672 C680 0.950 . S
H673 C682 0.950 . S
H674 C684 0.950 . S
H675 C686 0.950 . S
H676 C688 0.950 . S
H677 C689 0.950 . S
C678 H670 0.950 . S
C678 C679 1.386 1_565 S
C678 C680 1.391 . S
C679 C678 1.386 1_545 S
C679 C683 1.393 . S
C680 H672 0.950 . S
C680 C678 1.391 . S
C680 C681 1.400 1_565 S
C681 C680 1.400 1_545 S
C681 C682 1.398 . S
C681 C687 1.491 . S
C682 H673 0.950 . S
C682 C681 1.398 . S
C682 C683 1.391 . S
C683 H671 0.950 . S
C683 C679 1.393 . S
C683 C682 1.391 . S
C684 H674 0.950 . S
C684 C685 1.386 . S
C684 C686 1.391 . S
C685 C684 1.386 . S
C685 C689 1.393 1_545 S
C686 H675 0.950 . S
C686 C684 1.391 . S
C686 C687 1.400 . S
C687 C681 1.491 . S
C687 C686 1.400 . S
C687 C688 1.398 1_545 S
C688 H676 0.950 . S
C688 C687 1.398 1_565 S
C688 C689 1.391 . S
C689 H677 0.950 . S
C689 C685 1.393 1_565 S
C689 C688 1.391 . S
H690 C698 0.950 . S
H691 C703 0.956 . S
H692 C700 0.950 . S
H693 C702 0.950 . S
H694 C704 0.972 1_545 S
H695 C706 0.948 1_545 S
H696 C708 0.950 . S
H697 C709 0.950 . S
C698 H690 0.950 . S
C698 C699 1.386 . S
C698 C700 1.391 . S
C699 C698 1.386 . S
C699 C703 1.416 1_565 S
C700 H692 0.950 . S
C700 C698 1.391 . S
C700 C701 1.400 . S
C701 C700 1.400 . S
C701 C702 1.398 1_565 S
C701 C707 1.491 . S
C702 H693 0.950 . S
C702 C701 1.398 1_545 S
C702 C703 1.366 . S
C703 H691 0.956 . S
C703 C699 1.416 1_545 S
C703 C702 1.366 . S
C704 H694 0.972 1_565 S
C704 C705 1.391 . S
C704 C706 1.383 . S
C705 C704 1.391 . S
C705 C709 1.393 . S
C706 H695 0.948 1_565 S
C706 C704 1.383 . S
C706 C707 1.387 . S
C707 C701 1.491 . S
C707 C706 1.387 . S
C707 C708 1.398 . S
C708 H696 0.950 . S
C708 C707 1.398 . S
C708 C709 1.391 . S
C709 H697 0.950 . S
C709 C705 1.393 . S
C709 C708 1.391 . S
H710 C718 0.950 . S
H711 C723 0.950 . S
H712 C720 0.950 . S
H713 C722 0.950 . S
H714 C724 0.950 . S
H715 C726 0.950 . S
H716 C728 0.950 . S
H717 C729 0.950 . S
C718 H710 0.950 . S
C718 C719 1.386 1_655 S
C718 C720 1.391 . S
C719 C718 1.386 1_455 S
C719 C723 1.393 . S
C720 H712 0.950 . S
C720 C718 1.391 . S
C720 C721 1.400 1_655 S
C721 C720 1.400 1_455 S
C721 C722 1.398 . S
C721 C727 1.491 . S
C722 H713 0.950 . S
C722 C721 1.398 . S
C722 C723 1.391 . S
C723 H711 0.950 . S
C723 C719 1.393 . S
C723 C722 1.391 . S
C724 H714 0.950 . S
C724 C725 1.386 . S
C724 C726 1.391 . S
C725 C724 1.386 . S
C725 C729 1.393 1_455 S
C726 H715 0.950 . S
C726 C724 1.391 . S
C726 C727 1.400 . S
C727 C721 1.491 . S
C727 C726 1.400 . S
C727 C728 1.398 1_455 S
C728 H716 0.950 . S
C728 C727 1.398 1_655 S
C728 C729 1.391 . S
C729 H717 0.950 . S
C729 C725 1.393 1_655 S
C729 C728 1.391 . S
H730 C738 0.950 . S
H731 C743 0.950 . S
H732 C740 0.950 . S
H733 C742 0.950 . S
H734 C744 0.950 . S
H735 C746 0.950 . S
H736 C748 0.950 . S
H737 C749 0.950 . S
C738 H730 0.950 . S
C738 C739 1.386 . S
C738 C740 1.391 . S
C739 C738 1.386 . S
C739 C743 1.393 . S
C740 H732 0.950 . S
C740 C738 1.391 . S
C740 C741 1.400 . S
C741 C740 1.400 . S
C741 C742 1.398 . S
C741 C747 1.491 . S
C742 H733 0.950 . S
C742 C741 1.398 . S
C742 C743 1.391 . S
C743 H731 0.950 . S
C743 C739 1.393 . S
C743 C742 1.391 . S
C744 H734 0.950 . S
C744 C745 1.386 . S
C744 C746 1.391 . S
C745 C744 1.386 . S
C745 C749 1.393 . S
C746 H735 0.950 . S
C746 C744 1.391 . S
C746 C747 1.400 . S
C747 C741 1.491 . S
C747 C746 1.400 . S
C747 C748 1.398 . S
C748 H736 0.950 . S
C748 C747 1.398 . S
C748 C749 1.391 . S
C749 H737 0.950 . S
C749 C745 1.393 . S
C749 C748 1.391 . S
H750 C758 0.950 . S
H751 C763 0.930 1_655 S
H752 C760 0.950 . S
H753 C762 0.966 . S
H754 C764 0.950 . S
H755 C766 0.950 . S
H756 C768 0.950 . S
H757 C769 0.950 . S
C758 H750 0.950 . S
C758 C759 1.386 . S
C758 C760 1.391 . S
C759 C758 1.386 . S
C759 C763 1.402 . S
C760 H752 0.950 . S
C760 C758 1.391 . S
C760 C761 1.400 . S
C761 C760 1.400 . S
C761 C762 1.366 1_455 S
C761 C767 1.491 . S
C762 H753 0.966 . S
C762 C761 1.366 1_655 S
C762 C763 1.422 1_655 S
C763 H751 0.930 1_455 S
C763 C759 1.402 . S
C763 C762 1.422 1_455 S
C764 H754 0.950 . S
C764 C765 1.386 1_655 S
C764 C766 1.391 . S
C765 C764 1.386 1_455 S
C765 C769 1.393 . S
C766 H755 0.950 . S
C766 C764 1.391 . S
C766 C767 1.400 1_655 S
C767 C761 1.491 . S
C767 C766 1.400 1_455 S
C767 C768 1.398 . S
C768 H756 0.950 . S
C768 C767 1.398 . S
C768 C769 1.391 . S
C769 H757 0.950 . S
C769 C765 1.393 . S
C769 C768 1.391 . S
H770 C778 0.950 . S
H771 C783 0.950 . S
H772 C780 0.950 . S
H773 C782 0.950 . S
H774 C784 0.950 . S
H775 C786 0.950 . S
H776 C788 0.950 . S
H777 C789 0.950 . S
C778 H770 0.950 . S
C778 C779 1.386 . S
C778 C780 1.391 . S
C779 C778 1.386 . S
C779 C783 1.393 . S
C780 H772 0.950 . S
C780 C778 1.391 . S
C780 C781 1.400 . S
C781 C780 1.400 . S
C781 C782 1.398 . S
C781 C787 1.491 . S
C782 H773 0.950 . S
C782 C781 1.398 . S
C782 C783 1.391 . S
C783 H771 0.950 . S
C783 C779 1.393 . S
C783 C782 1.391 . S
C784 H774 0.950 . S
C784 C785 1.386 . S
C784 C786 1.391 . S
C785 C784 1.386 . S
C785 C789 1.393 . S
C786 H775 0.950 . S
C786 C784 1.391 . S
C786 C787 1.400 . S
C787 C781 1.491 . S
C787 C786 1.400 . S
C787 C788 1.398 . S
C788 H776 0.950 . S
C788 C787 1.398 . S
C788 C789 1.391 . S
C789 H777 0.950 . S
C789 C785 1.393 . S
C789 C788 1.391 . S
H790 C798 0.950 . S
H791 C803 0.950 . S
H792 C800 0.950 . S
H793 C802 0.950 . S
H794 C804 0.950 . S
H795 C806 0.950 . S
H796 C808 0.950 . S
H797 C809 0.950 . S
C798 H790 0.950 . S
C798 C799 1.386 1_545 S
C798 C800 1.391 . S
C799 C798 1.386 1_565 S
C799 C803 1.393 . S
C800 H792 0.950 . S
C800 C798 1.391 . S
C800 C801 1.400 1_545 S
C801 C800 1.400 1_565 S
C801 C802 1.398 . S
C801 C807 1.491 . S
C802 H793 0.950 . S
C802 C801 1.398 . S
C802 C803 1.391 . S
C803 H791 0.950 . S
C803 C799 1.393 . S
C803 C802 1.391 . S
C804 H794 0.950 . S
C804 C805 1.404 . S
C804 C806 1.391 . S
C805 C804 1.404 . S
C805 C809 1.402 1_565 S
C806 H795 0.950 . S
C806 C804 1.391 . S
C806 C807 1.400 . S
C807 C801 1.491 . S
C807 C806 1.400 . S
C807 C808 1.398 1_565 S
C808 H796 0.950 . S
C808 C807 1.398 1_545 S
C808 C809 1.391 . S
C809 H797 0.950 . S
C809 C805 1.402 1_545 S
C809 C808 1.391 . S
H810 C818 0.950 . S
H811 C823 0.950 . S
H812 C820 0.950 . S
H813 C822 0.950 . S
H814 C824 0.950 . S
H815 C826 0.950 . S
H816 C828 0.950 . S
H817 C829 0.950 . S
C818 H810 0.950 . S
C818 C819 1.386 1_565 S
C818 C820 1.391 . S
C819 C818 1.386 1_545 S
C819 C823 1.393 . S
C820 H812 0.950 . S
C820 C818 1.391 . S
C820 C821 1.400 1_565 S
C821 C820 1.400 1_545 S
C821 C822 1.398 . S
C821 C827 1.491 . S
C822 H813 0.950 . S
C822 C821 1.398 . S
C822 C823 1.391 . S
C823 H811 0.950 . S
C823 C819 1.393 . S
C823 C822 1.391 . S
C824 H814 0.950 . S
C824 C825 1.386 . S
C824 C826 1.391 . S
C825 C824 1.386 . S
C825 C829 1.393 1_545 S
C826 H815 0.950 . S
C826 C824 1.391 . S
C826 C827 1.400 . S
C827 C821 1.491 . S
C827 C826 1.400 . S
C827 C828 1.398 1_545 S
C828 H816 0.950 . S
C828 C827 1.398 1_565 S
C828 C829 1.391 . S
C829 H817 0.950 . S
C829 C825 1.393 1_565 S
C829 C828 1.391 . S
H830 C838 0.950 . S
H831 C843 0.950 . S
H832 C840 0.950 . S
H833 C842 0.950 . S
H834 C844 0.950 . S
H835 C846 0.950 . S
H836 C848 0.950 . S
H837 C849 0.950 . S
C838 H830 0.950 . S
C838 C839 1.386 1_455 S
C838 C840 1.391 . S
C839 C838 1.386 1_655 S
C839 C843 1.393 . S
C840 H832 0.950 . S
C840 C838 1.391 . S
C840 C841 1.400 1_455 S
C841 C840 1.400 1_655 S
C841 C842 1.398 . S
C841 C847 1.491 . S
C842 H833 0.950 . S
C842 C841 1.398 . S
C842 C843 1.391 . S
C843 H831 0.950 . S
C843 C839 1.393 . S
C843 C842 1.391 . S
C844 H834 0.950 . S
C844 C845 1.386 . S
C844 C846 1.391 . S
C845 C844 1.386 . S
C845 C849 1.393 1_655 S
C846 H835 0.950 . S
C846 C844 1.391 . S
C846 C847 1.400 . S
C847 C841 1.491 . S
C847 C846 1.400 . S
C847 C848 1.398 1_655 S
C848 H836 0.950 . S
C848 C847 1.398 1_455 S
C848 C849 1.391 . S
C849 H837 0.950 . S
C849 C845 1.393 1_455 S
C849 C848 1.391 . S
H850 C858 0.950 . S
H851 C863 0.950 . S
H852 C860 0.950 . S
H853 C862 0.950 . S
H854 C864 0.950 . S
H855 C866 0.950 . S
H856 C868 0.950 . S
H857 C869 0.950 . S
C858 H850 0.950 . S
C858 C859 1.386 . S
C858 C860 1.391 . S
C859 C858 1.386 . S
C859 C863 1.393 . S
C860 H852 0.950 . S
C860 C858 1.391 . S
C860 C861 1.400 . S
C861 C860 1.400 . S
C861 C862 1.398 . S
C861 C867 1.491 . S
C862 H853 0.950 . S
C862 C861 1.398 . S
C862 C863 1.391 . S
C863 H851 0.950 . S
C863 C859 1.393 . S
C863 C862 1.391 . S
C864 H854 0.950 . S
C864 C865 1.386 . S
C864 C866 1.391 . S
C865 C864 1.386 . S
C865 C869 1.393 . S
C866 H855 0.950 . S
C866 C864 1.391 . S
C866 C867 1.400 . S
C867 C861 1.491 . S
C867 C866 1.400 . S
C867 C868 1.398 . S
C868 H856 0.950 . S
C868 C867 1.398 . S
C868 C869 1.391 . S
C869 H857 0.950 . S
C869 C865 1.393 . S
C869 C868 1.391 . S
H870 C878 0.950 . S
H871 C883 0.950 . S
H872 C880 0.950 . S
H873 C882 0.950 . S
H874 C884 0.950 . S
H875 C886 0.950 . S
H876 C888 0.950 . S
H877 C889 0.950 . S
C878 H870 0.950 . S
C878 C879 1.386 . S
C878 C880 1.391 . S
C879 C878 1.386 . S
C879 C883 1.393 . S
C880 H872 0.950 . S
C880 C878 1.391 . S
C880 C881 1.400 . S
C881 C880 1.400 . S
C881 C882 1.398 . S
C881 C887 1.491 . S
C882 H873 0.950 . S
C882 C881 1.398 . S
C882 C883 1.391 . S
C883 H871 0.950 . S
C883 C879 1.393 . S
C883 C882 1.391 . S
C884 H874 0.950 . S
C884 C885 1.386 . S
C884 C886 1.391 . S
C885 C884 1.386 . S
C885 C889 1.393 . S
C886 H875 0.950 . S
C886 C884 1.391 . S
C886 C887 1.400 . S
C887 C881 1.491 . S
C887 C886 1.400 . S
C887 C888 1.398 . S
C888 H876 0.950 . S
C888 C887 1.398 . S
C888 C889 1.391 . S
C889 H877 0.950 . S
C889 C885 1.393 . S
C889 C888 1.391 . S
H890 C898 0.950 . S
H891 C903 0.950 . S
H892 C900 0.950 . S
H893 C902 0.950 . S
H894 C904 0.950 . S
H895 C906 0.950 . S
H896 C908 0.950 . S
H897 C909 0.950 . S
C898 H890 0.950 . S
C898 C899 1.386 . S
C898 C900 1.391 . S
C899 C898 1.386 . S
C899 C903 1.393 . S
C900 H892 0.950 . S
C900 C898 1.391 . S
C900 C901 1.400 . S
C901 C900 1.400 . S
C901 C902 1.398 . S
C901 C907 1.491 . S
C902 H893 0.950 . S
C902 C901 1.398 . S
C902 C903 1.391 . S
C903 H891 0.950 . S
C903 C899 1.393 . S
C903 C902 1.391 . S
C904 H894 0.950 . S
C904 C905 1.386 . S
C904 C906 1.391 . S
C905 C904 1.386 . S
C905 C909 1.393 . S
C906 H895 0.950 . S
C906 C904 1.391 . S
C906 C907 1.400 . S
C907 C901 1.491 . S
C907 C906 1.400 . S
C907 C908 1.398 . S
C908 H896 0.950 . S
C908 C907 1.398 . S
C908 C909 1.391 . S
C909 H897 0.950 . S
C909 C905 1.393 . S
C909 C908 1.391 . S
H910 C918 0.950 . S
H911 C923 0.950 . S
H912 C920 0.950 . S
H913 C922 0.950 . S
H914 C924 0.950 . S
H915 C926 0.950 . S
H916 C928 0.950 . S
H917 C929 0.950 . S
C918 H910 0.950 . S
C918 C919 1.386 . S
C918 C920 1.391 . S
C919 C918 1.386 . S
C919 C923 1.393 . S
C920 H912 0.950 . S
C920 C918 1.391 . S
C920 C921 1.400 . S
C921 C920 1.400 . S
C921 C922 1.398 . S
C921 C927 1.491 . S
C922 H913 0.950 . S
C922 C921 1.398 . S
C922 C923 1.391 . S
C923 H911 0.950 . S
C923 C919 1.393 . S
C923 C922 1.391 . S
C924 H914 0.950 . S
C924 C925 1.386 . S
C924 C926 1.391 . S
C925 C924 1.386 . S
C925 C929 1.393 . S
C926 H915 0.950 . S
C926 C924 1.391 . S
C926 C927 1.400 . S
C927 C921 1.491 . S
C927 C926 1.400 . S
C927 C928 1.398 . S
C928 H916 0.950 . S
C928 C927 1.398 . S
C928 C929 1.391 . S
C929 H917 0.950 . S
C929 C925 1.393 . S
C929 C928 1.391 . S
H930 C938 0.950 . S
H931 C943 0.950 . S
H932 C940 0.950 . S
H933 C942 0.950 . S
H934 C944 0.950 . S
H935 C946 0.950 . S
H936 C948 0.950 . S
H937 C949 0.950 . S
C938 H930 0.950 . S
C938 C939 1.386 . S
C938 C940 1.391 . S
C939 C938 1.386 . S
C939 C943 1.393 . S
C940 H932 0.950 . S
C940 C938 1.391 . S
C940 C941 1.400 . S
C941 C940 1.400 . S
C941 C942 1.398 . S
C941 C947 1.491 . S
C942 H933 0.950 . S
C942 C941 1.398 . S
C942 C943 1.391 . S
C943 H931 0.950 . S
C943 C939 1.393 . S
C943 C942 1.391 . S
C944 H934 0.950 . S
C944 C945 1.386 . S
C944 C946 1.391 . S
C945 C944 1.386 . S
C945 C949 1.393 . S
C946 H935 0.950 . S
C946 C944 1.391 . S
C946 C947 1.400 . S
C947 C941 1.491 . S
C947 C946 1.400 . S
C947 C948 1.398 . S
C948 H936 0.950 . S
C948 C947 1.398 . S
C948 C949 1.391 . S
C949 H937 0.950 . S
C949 C945 1.393 . S
C949 C948 1.391 . S
H950 C958 0.950 . S
H951 C963 0.950 . S
H952 C960 0.950 . S
H953 C962 0.950 . S
H954 C964 0.950 . S
H955 C966 0.950 . S
H956 C968 0.950 . S
H957 C969 0.950 . S
C958 H950 0.950 . S
C958 C959 1.386 . S
C958 C960 1.391 . S
C959 C958 1.386 . S
C959 C963 1.393 . S
C960 H952 0.950 . S
C960 C958 1.391 . S
C960 C961 1.400 . S
C961 C960 1.400 . S
C961 C962 1.398 . S
C961 C967 1.491 . S
C962 H953 0.950 . S
C962 C961 1.398 . S
C962 C963 1.391 . S
C963 H951 0.950 . S
C963 C959 1.393 . S
C963 C962 1.391 . S
C964 H954 0.950 . S
C964 C965 1.386 . S
C964 C966 1.391 . S
C965 C964 1.386 . S
C965 C969 1.393 . S
C966 H955 0.950 . S
C966 C964 1.391 . S
C966 C967 1.400 . S
C967 C961 1.491 . S
C967 C966 1.400 . S
C967 C968 1.398 . S
C968 H956 0.950 . S
C968 C967 1.398 . S
C968 C969 1.391 . S
C969 H957 0.950 . S
C969 C965 1.393 . S
C969 C968 1.391 . S
H970 C978 0.950 . S
H971 C983 0.950 . S
H972 C980 0.950 . S
H973 C982 0.950 . S
H974 C984 0.950 . S
H975 C986 0.950 . S
H976 C988 0.950 . S
H977 C989 0.950 . S
C978 H970 0.950 . S
C978 C979 1.386 . S
C978 C980 1.391 . S
C979 C978 1.386 . S
C979 C983 1.393 . S
C980 H972 0.950 . S
C980 C978 1.391 . S
C980 C981 1.400 . S
C981 C980 1.400 . S
C981 C982 1.398 . S
C981 C987 1.491 . S
C982 H973 0.950 . S
C982 C981 1.398 . S
C982 C983 1.391 . S
C983 H971 0.950 . S
C983 C979 1.393 . S
C983 C982 1.391 . S
C984 H974 0.950 . S
C984 C985 1.386 . S
C984 C986 1.391 . S
C985 C984 1.386 . S
C985 C989 1.393 . S
C986 H975 0.950 . S
C986 C984 1.391 . S
C986 C987 1.400 . S
C987 C981 1.491 . S
C987 C986 1.400 . S
C987 C988 1.398 . S
C988 H976 0.950 . S
C988 C987 1.398 . S
C988 C989 1.391 . S
C989 H977 0.950 . S
C989 C985 1.393 . S
C989 C988 1.391 . S
H990 C998 0.950 . S
H991 C1003 0.950 . S
H992 C1000 0.950 . S
H993 C1002 0.950 . S
H994 C1004 0.950 . S
H995 C1006 0.950 . S
H996 C1008 0.950 . S
H997 C1009 0.950 . S
C998 H990 0.950 . S
C998 C999 1.386 . S
C998 C1000 1.391 . S
C999 C998 1.386 . S
C999 C1003 1.393 . S
C1000 H992 0.950 . S
C1000 C998 1.391 . S
C1000 C1001 1.400 . S
C1001 C1000 1.400 . S
C1001 C1002 1.398 . S
C1001 C1007 1.491 . S
C1002 H993 0.950 . S
C1002 C1001 1.398 . S
C1002 C1003 1.391 . S
C1003 H991 0.950 . S
C1003 C999 1.393 . S
C1003 C1002 1.391 . S
C1004 H994 0.950 . S
C1004 C1005 1.386 . S
C1004 C1006 1.391 . S
C1005 C1004 1.386 . S
C1005 C1009 1.393 . S
C1006 H995 0.950 . S
C1006 C1004 1.391 . S
C1006 C1007 1.400 . S
C1007 C1001 1.491 . S
C1007 C1006 1.400 . S
C1007 C1008 1.398 . S
C1008 H996 0.950 . S
C1008 C1007 1.398 . S
C1008 C1009 1.391 . S
C1009 H997 0.950 . S
C1009 C1005 1.393 . S
C1009 C1008 1.391 . S
H1010 C1018 0.950 . S
H1011 C1023 0.950 . S
H1012 C1020 0.950 . S
H1013 C1022 0.950 . S
H1014 C1024 0.950 . S
H1015 C1026 0.950 . S
H1016 C1028 0.950 . S
H1017 C1029 0.950 . S
C1018 H1010 0.950 . S
C1018 C1019 1.386 . S
C1018 C1020 1.391 . S
C1019 C1018 1.386 . S
C1019 C1023 1.393 . S
C1020 H1012 0.950 . S
C1020 C1018 1.391 . S
C1020 C1021 1.400 . S
C1021 C1020 1.400 . S
C1021 C1022 1.398 . S
C1021 C1027 1.491 . S
C1022 H1013 0.950 . S
C1022 C1021 1.398 . S
C1022 C1023 1.391 . S
C1023 H1011 0.950 . S
C1023 C1019 1.393 . S
C1023 C1022 1.391 . S
C1024 H1014 0.950 . S
C1024 C1025 1.386 . S
C1024 C1026 1.391 . S
C1025 C1024 1.386 . S
C1025 C1029 1.393 . S
C1026 H1015 0.950 . S
C1026 C1024 1.391 . S
C1026 C1027 1.400 . S
C1027 C1021 1.491 . S
C1027 C1026 1.400 . S
C1027 C1028 1.398 . S
C1028 H1016 0.950 . S
C1028 C1027 1.398 . S
C1028 C1029 1.391 . S
C1029 H1017 0.950 . S
C1029 C1025 1.393 . S
C1029 C1028 1.391 . S
H1030 C1038 0.950 . S
H1031 C1043 0.950 . S
H1032 C1040 0.950 . S
H1033 C1042 0.950 . S
H1034 C1044 0.950 . S
H1035 C1046 0.950 . S
H1036 C1048 0.950 . S
H1037 C1049 0.950 . S
C1038 H1030 0.950 . S
C1038 C1039 1.386 . S
C1038 C1040 1.391 . S
C1039 C1038 1.386 . S
C1039 C1043 1.393 . S
C1040 H1032 0.950 . S
C1040 C1038 1.391 . S
C1040 C1041 1.400 . S
C1041 C1040 1.400 . S
C1041 C1042 1.398 . S
C1041 C1047 1.491 . S
C1042 H1033 0.950 . S
C1042 C1041 1.398 . S
C1042 C1043 1.391 . S
C1043 H1031 0.950 . S
C1043 C1039 1.393 . S
C1043 C1042 1.391 . S
C1044 H1034 0.950 . S
C1044 C1045 1.386 . S
C1044 C1046 1.391 . S
C1045 C1044 1.386 . S
C1045 C1049 1.393 . S
C1046 H1035 0.950 . S
C1046 C1044 1.391 . S
C1046 C1047 1.400 . S
C1047 C1041 1.491 . S
C1047 C1046 1.400 . S
C1047 C1048 1.398 . S
C1048 H1036 0.950 . S
C1048 C1047 1.398 . S
C1048 C1049 1.391 . S
C1049 H1037 0.950 . S
C1049 C1045 1.393 . S
C1049 C1048 1.391 . S
H1050 C1058 0.950 . S
H1051 C1063 0.950 . S
H1052 C1060 0.950 . S
H1053 C1062 0.950 . S
H1054 C1064 0.950 . S
H1055 C1066 0.950 . S
H1056 C1068 0.950 . S
H1057 C1069 0.950 . S
C1058 H1050 0.950 . S
C1058 C1059 1.386 . S
C1058 C1060 1.391 . S
C1059 C1058 1.386 . S
C1059 C1063 1.393 . S
C1060 H1052 0.950 . S
C1060 C1058 1.391 . S
C1060 C1061 1.400 . S
C1061 C1060 1.400 . S
C1061 C1062 1.398 . S
C1061 C1067 1.491 . S
C1062 H1053 0.950 . S
C1062 C1061 1.398 . S
C1062 C1063 1.391 . S
C1063 H1051 0.950 . S
C1063 C1059 1.393 . S
C1063 C1062 1.391 . S
C1064 H1054 0.950 . S
C1064 C1065 1.386 . S
C1064 C1066 1.391 . S
C1065 C1064 1.386 . S
C1065 C1069 1.393 . S
C1066 H1055 0.950 . S
C1066 C1064 1.391 . S
C1066 C1067 1.400 . S
C1067 C1061 1.491 . S
C1067 C1066 1.400 . S
C1067 C1068 1.398 . S
C1068 H1056 0.950 . S
C1068 C1067 1.398 . S
C1068 C1069 1.391 . S
C1069 H1057 0.950 . S
C1069 C1065 1.393 . S
C1069 C1068 1.391 . S
H1070 C1078 0.950 . S
H1071 C1083 0.950 . S
H1072 C1080 0.950 . S
H1073 C1082 0.950 . S
H1074 C1084 0.950 . S
H1075 C1086 0.950 . S
H1076 C1088 0.950 . S
H1077 C1089 0.950 . S
C1078 H1070 0.950 . S
C1078 C1079 1.386 . S
C1078 C1080 1.391 . S
C1079 C1078 1.386 . S
C1079 C1083 1.393 . S
C1080 H1072 0.950 . S
C1080 C1078 1.391 . S
C1080 C1081 1.400 . S
C1081 C1080 1.400 . S
C1081 C1082 1.398 . S
C1081 C1087 1.491 . S
C1082 H1073 0.950 . S
C1082 C1081 1.398 . S
C1082 C1083 1.391 . S
C1083 H1071 0.950 . S
C1083 C1079 1.393 . S
C1083 C1082 1.391 . S
C1084 H1074 0.950 . S
C1084 C1085 1.386 . S
C1084 C1086 1.391 . S
C1085 C1084 1.386 . S
C1085 C1089 1.393 . S
C1086 H1075 0.950 . S
C1086 C1084 1.391 . S
C1086 C1087 1.400 . S
C1087 C1081 1.491 . S
C1087 C1086 1.400 . S
C1087 C1088 1.398 . S
C1088 H1076 0.950 . S
C1088 C1087 1.398 . S
C1088 C1089 1.391 . S
C1089 H1077 0.950 . S
C1089 C1085 1.393 . S
C1089 C1088 1.391 . S
H1090 C1098 0.950 . S
H1091 C1103 0.950 . S
H1092 C1100 0.950 . S
H1093 C1102 0.950 . S
H1094 C1104 0.950 . S
H1095 C1106 0.950 . S
H1096 C1108 0.950 . S
H1097 C1109 0.950 . S
C1098 H1090 0.950 . S
C1098 C1099 1.386 . S
C1098 C1100 1.391 . S
C1099 C1098 1.386 . S
C1099 C1103 1.393 . S
C1100 H1092 0.950 . S
C1100 C1098 1.391 . S
C1100 C1101 1.400 . S
C1101 C1100 1.400 . S
C1101 C1102 1.398 . S
C1101 C1107 1.491 . S
C1102 H1093 0.950 . S
C1102 C1101 1.398 . S
C1102 C1103 1.391 . S
C1103 H1091 0.950 . S
C1103 C1099 1.393 . S
C1103 C1102 1.391 . S
C1104 H1094 0.950 . S
C1104 C1105 1.386 . S
C1104 C1106 1.391 . S
C1105 C1104 1.386 . S
C1105 C1109 1.393 . S
C1106 H1095 0.950 . S
C1106 C1104 1.391 . S
C1106 C1107 1.400 . S
C1107 C1101 1.491 . S
C1107 C1106 1.400 . S
C1107 C1108 1.398 . S
C1108 H1096 0.950 . S
C1108 C1107 1.398 . S
C1108 C1109 1.391 . S
C1109 H1097 0.950 . S
C1109 C1105 1.393 . S
C1109 C1108 1.391 . S
H1110 C1118 0.950 . S
H1111 C1123 0.950 . S
H1112 C1120 0.950 . S
H1113 C1122 0.950 . S
H1114 C1124 0.950 . S
H1115 C1126 0.950 . S
H1116 C1128 0.950 . S
H1117 C1129 0.950 . S
C1118 H1110 0.950 . S
C1118 C1119 1.386 . S
C1118 C1120 1.391 . S
C1119 C1118 1.386 . S
C1119 C1123 1.393 . S
C1120 H1112 0.950 . S
C1120 C1118 1.391 . S
C1120 C1121 1.400 . S
C1121 C1120 1.400 . S
C1121 C1122 1.398 . S
C1121 C1127 1.491 . S
C1122 H1113 0.950 . S
C1122 C1121 1.398 . S
C1122 C1123 1.391 . S
C1123 H1111 0.950 . S
C1123 C1119 1.393 . S
C1123 C1122 1.391 . S
C1124 H1114 0.950 . S
C1124 C1125 1.386 . S
C1124 C1126 1.391 . S
C1125 C1124 1.386 . S
C1125 C1129 1.393 . S
C1126 H1115 0.950 . S
C1126 C1124 1.391 . S
C1126 C1127 1.400 . S
C1127 C1121 1.491 . S
C1127 C1126 1.400 . S
C1127 C1128 1.398 . S
C1128 H1116 0.950 . S
C1128 C1127 1.398 . S
C1128 C1129 1.391 . S
C1129 H1117 0.950 . S
C1129 C1125 1.393 . S
C1129 C1128 1.391 . S
H1130 C1138 0.950 . S
H1131 C1143 0.950 . S
H1132 C1140 0.950 . S
H1133 C1142 0.950 . S
H1134 C1144 0.950 . S
H1135 C1146 0.950 . S
H1136 C1148 0.950 . S
H1137 C1149 0.950 . S
C1138 H1130 0.950 . S
C1138 C1139 1.386 . S
C1138 C1140 1.391 . S
C1139 C1138 1.386 . S
C1139 C1143 1.393 . S
C1140 H1132 0.950 . S
C1140 C1138 1.391 . S
C1140 C1141 1.400 . S
C1141 C1140 1.400 . S
C1141 C1142 1.398 . S
C1141 C1147 1.491 . S
C1142 H1133 0.950 . S
C1142 C1141 1.398 . S
C1142 C1143 1.391 . S
C1143 H1131 0.950 . S
C1143 C1139 1.393 . S
C1143 C1142 1.391 . S
C1144 H1134 0.950 . S
C1144 C1145 1.386 . S
C1144 C1146 1.391 . S
C1145 C1144 1.386 . S
C1145 C1149 1.393 . S
C1146 H1135 0.950 . S
C1146 C1144 1.391 . S
C1146 C1147 1.400 . S
C1147 C1141 1.491 . S
C1147 C1146 1.400 . S
C1147 C1148 1.398 . S
C1148 H1136 0.950 . S
C1148 C1147 1.398 . S
C1148 C1149 1.391 . S
C1149 H1137 0.950 . S
C1149 C1145 1.393 . S
C1149 C1148 1.391 . S
H1150 C1158 0.950 . S
H1151 C1163 0.950 . S
H1152 C1160 0.950 . S
H1153 C1162 0.950 . S
H1154 C1164 0.950 . S
H1155 C1166 0.950 . S
H1156 C1168 0.950 . S
H1157 C1169 0.950 . S
C1158 H1150 0.950 . S
C1158 C1159 1.386 . S
C1158 C1160 1.391 . S
C1159 C1158 1.386 . S
C1159 C1163 1.393 . S
C1160 H1152 0.950 . S
C1160 C1158 1.391 . S
C1160 C1161 1.400 . S
C1161 C1160 1.400 . S
C1161 C1162 1.398 . S
C1161 C1167 1.491 . S
C1162 H1153 0.950 . S
C1162 C1161 1.398 . S
C1162 C1163 1.391 . S
C1163 H1151 0.950 . S
C1163 C1159 1.393 . S
C1163 C1162 1.391 . S
C1164 H1154 0.950 . S
C1164 C1165 1.386 . S
C1164 C1166 1.391 . S
C1165 C1164 1.386 . S
C1165 C1169 1.393 . S
C1166 H1155 0.950 . S
C1166 C1164 1.391 . S
C1166 C1167 1.400 . S
C1167 C1161 1.491 . S
C1167 C1166 1.400 . S
C1167 C1168 1.398 . S
C1168 H1156 0.950 . S
C1168 C1167 1.398 . S
C1168 C1169 1.391 . S
C1169 H1157 0.950 . S
C1169 C1165 1.393 . S
C1169 C1168 1.391 . S
H1170 C1178 0.950 . S
H1171 C1183 0.950 . S
H1172 C1180 0.950 . S
H1173 C1182 0.950 . S
H1174 C1184 0.950 . S
H1175 C1186 0.950 . S
H1176 C1188 0.950 . S
H1177 C1189 0.950 . S
C1178 H1170 0.950 . S
C1178 C1179 1.386 . S
C1178 C1180 1.391 . S
C1179 C1178 1.386 . S
C1179 C1183 1.393 . S
C1180 H1172 0.950 . S
C1180 C1178 1.391 . S
C1180 C1181 1.400 . S
C1181 C1180 1.400 . S
C1181 C1182 1.398 . S
C1181 C1187 1.491 . S
C1182 H1173 0.950 . S
C1182 C1181 1.398 . S
C1182 C1183 1.391 . S
C1183 H1171 0.950 . S
C1183 C1179 1.393 . S
C1183 C1182 1.391 . S
C1184 H1174 0.950 . S
C1184 C1185 1.386 . S
C1184 C1186 1.391 . S
C1185 C1184 1.386 . S
C1185 C1189 1.393 . S
C1186 H1175 0.950 . S
C1186 C1184 1.391 . S
C1186 C1187 1.400 . S
C1187 C1181 1.491 . S
C1187 C1186 1.400 . S
C1187 C1188 1.398 . S
C1188 H1176 0.950 . S
C1188 C1187 1.398 . S
C1188 C1189 1.391 . S
C1189 H1177 0.950 . S
C1189 C1185 1.393 . S
C1189 C1188 1.391 . S
H1190 C1198 0.950 . S
H1191 C1203 0.950 . S
H1192 C1200 0.950 . S
H1193 C1202 0.950 . S
H1194 C1204 0.950 . S
H1195 C1206 0.950 . S
H1196 C1208 0.950 . S
H1197 C1209 0.950 . S
C1198 H1190 0.950 . S
C1198 C1199 1.386 . S
C1198 C1200 1.391 . S
C1199 C1198 1.386 . S
C1199 C1203 1.393 . S
C1200 H1192 0.950 . S
C1200 C1198 1.391 . S
C1200 C1201 1.400 . S
C1201 C1200 1.400 . S
C1201 C1202 1.398 . S
C1201 C1207 1.491 . S
C1202 H1193 0.950 . S
C1202 C1201 1.398 . S
C1202 C1203 1.391 . S
C1203 H1191 0.950 . S
C1203 C1199 1.393 . S
C1203 C1202 1.391 . S
C1204 H1194 0.950 . S
C1204 C1205 1.386 . S
C1204 C1206 1.391 . S
C1205 C1204 1.386 . S
C1205 C1209 1.393 . S
C1206 H1195 0.950 . S
C1206 C1204 1.391 . S
C1206 C1207 1.400 . S
C1207 C1201 1.491 . S
C1207 C1206 1.400 . S
C1207 C1208 1.398 . S
C1208 H1196 0.950 . S
C1208 C1207 1.398 . S
C1208 C1209 1.391 . S
C1209 H1197 0.950 . S
C1209 C1205 1.393 . S
C1209 C1208 1.391 . S
H1210 C1218 0.950 . S
H1211 C1223 0.950 . S
H1212 C1220 0.950 . S
H1213 C1222 0.950 . S
H1214 C1224 0.950 . S
H1215 C1226 0.950 . S
H1216 C1228 0.950 . S
H1217 C1229 0.950 . S
C1218 H1210 0.950 . S
C1218 C1219 1.386 . S
C1218 C1220 1.391 . S
C1219 C1218 1.386 . S
C1219 C1223 1.393 . S
C1220 H1212 0.950 . S
C1220 C1218 1.391 . S
C1220 C1221 1.400 . S
C1221 C1220 1.400 . S
C1221 C1222 1.398 . S
C1221 C1227 1.491 . S
C1222 H1213 0.950 . S
C1222 C1221 1.398 . S
C1222 C1223 1.391 . S
C1223 H1211 0.950 . S
C1223 C1219 1.393 . S
C1223 C1222 1.391 . S
C1224 H1214 0.950 . S
C1224 C1225 1.386 . S
C1224 C1226 1.391 . S
C1225 C1224 1.386 . S
C1225 C1229 1.393 . S
C1226 H1215 0.950 . S
C1226 C1224 1.391 . S
C1226 C1227 1.400 . S
C1227 C1221 1.491 . S
C1227 C1226 1.400 . S
C1227 C1228 1.398 . S
C1228 H1216 0.950 . S
C1228 C1227 1.398 . S
C1228 C1229 1.391 . S
C1229 H1217 0.950 . S
C1229 C1225 1.393 . S
C1229 C1228 1.391 . S
H1230 C1238 0.950 . S
H1231 C1243 0.950 . S
H1232 C1240 0.950 . S
H1233 C1242 0.950 . S
H1234 C1244 0.950 . S
H1235 C1246 0.950 . S
H1236 C1248 0.950 . S
H1237 C1249 0.950 . S
C1238 H1230 0.950 . S
C1238 C1239 1.386 . S
C1238 C1240 1.391 . S
C1239 C1238 1.386 . S
C1239 C1243 1.393 . S
C1240 H1232 0.950 . S
C1240 C1238 1.391 . S
C1240 C1241 1.400 . S
C1241 C1240 1.400 . S
C1241 C1242 1.398 . S
C1241 C1247 1.491 . S
C1242 H1233 0.950 . S
C1242 C1241 1.398 . S
C1242 C1243 1.391 . S
C1243 H1231 0.950 . S
C1243 C1239 1.393 . S
C1243 C1242 1.391 . S
C1244 H1234 0.950 . S
C1244 C1245 1.386 . S
C1244 C1246 1.391 . S
C1245 C1244 1.386 . S
C1245 C1249 1.393 . S
C1246 H1235 0.950 . S
C1246 C1244 1.391 . S
C1246 C1247 1.400 . S
C1247 C1241 1.491 . S
C1247 C1246 1.400 . S
C1247 C1248 1.398 . S
C1248 H1236 0.950 . S
C1248 C1247 1.398 . S
C1248 C1249 1.391 . S
C1249 H1237 0.950 . S
C1249 C1245 1.393 . S
C1249 C1248 1.391 . S
H1250 C1258 0.950 . S
H1251 C1263 0.950 . S
H1252 C1260 0.950 . S
H1253 C1262 0.950 . S
H1254 C1264 0.950 . S
H1255 C1266 0.950 . S
H1256 C1268 0.950 . S
H1257 C1269 0.950 . S
C1258 H1250 0.950 . S
C1258 C1259 1.386 . S
C1258 C1260 1.391 . S
C1259 C1258 1.386 . S
C1259 C1263 1.393 . S
C1260 H1252 0.950 . S
C1260 C1258 1.391 . S
C1260 C1261 1.400 . S
C1261 C1260 1.400 . S
C1261 C1262 1.398 . S
C1261 C1267 1.491 . S
C1262 H1253 0.950 . S
C1262 C1261 1.398 . S
C1262 C1263 1.391 . S
C1263 H1251 0.950 . S
C1263 C1259 1.393 . S
C1263 C1262 1.391 . S
C1264 H1254 0.950 . S
C1264 C1265 1.386 . S
C1264 C1266 1.391 . S
C1265 C1264 1.386 . S
C1265 C1269 1.393 . S
C1266 H1255 0.950 . S
C1266 C1264 1.391 . S
C1266 C1267 1.400 . S
C1267 C1261 1.491 . S
C1267 C1266 1.400 . S
C1267 C1268 1.398 . S
C1268 H1256 0.950 . S
C1268 C1267 1.398 . S
C1268 C1269 1.391 . S
C1269 H1257 0.950 . S
C1269 C1265 1.393 . S
C1269 C1268 1.391 . S
H1270 C1278 0.950 . S
H1271 C1283 0.950 . S
H1272 C1280 0.950 . S
H1273 C1282 0.950 . S
H1274 C1284 0.950 . S
H1275 C1286 0.950 . S
H1276 C1288 0.950 . S
H1277 C1289 0.950 . S
C1278 H1270 0.950 . S
C1278 C1279 1.386 . S
C1278 C1280 1.391 . S
C1279 C1278 1.386 . S
C1279 C1283 1.393 . S
C1280 H1272 0.950 . S
C1280 C1278 1.391 . S
C1280 C1281 1.400 . S
C1281 C1280 1.400 . S
C1281 C1282 1.398 . S
C1281 C1287 1.491 . S
C1282 H1273 0.950 . S
C1282 C1281 1.398 . S
C1282 C1283 1.391 . S
C1283 H1271 0.950 . S
C1283 C1279 1.393 . S
C1283 C1282 1.391 . S
C1284 H1274 0.950 . S
C1284 C1285 1.386 . S
C1284 C1286 1.391 . S
C1285 C1284 1.386 . S
C1285 C1289 1.393 . S
C1286 H1275 0.950 . S
C1286 C1284 1.391 . S
C1286 C1287 1.400 . S
C1287 C1281 1.491 . S
C1287 C1286 1.400 . S
C1287 C1288 1.398 . S
C1288 H1276 0.950 . S
C1288 C1287 1.398 . S
C1288 C1289 1.391 . S
C1289 H1277 0.950 . S
C1289 C1285 1.393 . S
C1289 C1288 1.391 . S
H1290 C1298 0.950 . S
H1291 C1303 0.950 . S
H1292 C1300 0.950 . S
H1293 C1302 0.950 . S
H1294 C1304 0.950 . S
H1295 C1306 0.950 . S
H1296 C1308 0.950 . S
H1297 C1309 0.950 . S
C1298 H1290 0.950 . S
C1298 C1299 1.386 . S
C1298 C1300 1.391 . S
C1299 C1298 1.386 . S
C1299 C1303 1.393 . S
C1300 H1292 0.950 . S
C1300 C1298 1.391 . S
C1300 C1301 1.400 . S
C1301 C1300 1.400 . S
C1301 C1302 1.398 . S
C1301 C1307 1.491 . S
C1302 H1293 0.950 . S
C1302 C1301 1.398 . S
C1302 C1303 1.391 . S
C1303 H1291 0.950 . S
C1303 C1299 1.393 . S
C1303 C1302 1.391 . S
C1304 H1294 0.950 . S
C1304 C1305 1.386 . S
C1304 C1306 1.391 . S
C1305 C1304 1.386 . S
C1305 C1309 1.393 . S
C1306 H1295 0.950 . S
C1306 C1304 1.391 . S
C1306 C1307 1.400 . S
C1307 C1301 1.491 . S
C1307 C1306 1.400 . S
C1307 C1308 1.398 . S
C1308 H1296 0.950 . S
C1308 C1307 1.398 . S
C1308 C1309 1.391 . S
C1309 H1297 0.950 . S
C1309 C1305 1.393 . S
C1309 C1308 1.391 . S
H1310 C1318 0.950 . S
H1311 C1323 0.950 . S
H1312 C1320 0.950 . S
H1313 C1322 0.950 . S
H1314 C1324 0.950 . S
H1315 C1326 0.950 . S
H1316 C1328 0.950 . S
H1317 C1329 0.950 . S
C1318 H1310 0.950 . S
C1318 C1319 1.386 . S
C1318 C1320 1.391 . S
C1319 C1318 1.386 . S
C1319 C1323 1.393 . S
C1320 H1312 0.950 . S
C1320 C1318 1.391 . S
C1320 C1321 1.400 . S
C1321 C1320 1.400 . S
C1321 C1322 1.398 . S
C1321 C1327 1.491 . S
C1322 H1313 0.950 . S
C1322 C1321 1.398 . S
C1322 C1323 1.391 . S
C1323 H1311 0.950 . S
C1323 C1319 1.393 . S
C1323 C1322 1.391 . S
C1324 H1314 0.950 . S
C1324 C1325 1.386 . S
C1324 C1326 1.391 . S
C1325 C1324 1.386 . S
C1325 C1329 1.393 . S
C1326 H1315 0.950 . S
C1326 C1324 1.391 . S
C1326 C1327 1.400 . S
C1327 C1321 1.491 . S
C1327 C1326 1.400 . S
C1327 C1328 1.398 . S
C1328 H1316 0.950 . S
C1328 C1327 1.398 . S
C1328 C1329 1.391 . S
C1329 H1317 0.950 . S
C1329 C1325 1.393 . S
C1329 C1328 1.391 . S
H1330 C1338 0.950 . S
H1331 C1343 0.950 . S
H1332 C1340 0.950 . S
H1333 C1342 0.950 . S
H1334 C1344 0.950 . S
H1335 C1346 0.950 . S
H1336 C1348 0.950 . S
H1337 C1349 0.950 . S
C1338 H1330 0.950 . S
C1338 C1339 1.386 . S
C1338 C1340 1.391 . S
C1339 C1338 1.386 . S
C1339 C1343 1.393 . S
C1340 H1332 0.950 . S
C1340 C1338 1.391 . S
C1340 C1341 1.400 . S
C1341 C1340 1.400 . S
C1341 C1342 1.398 . S
C1341 C1347 1.491 . S
C1342 H1333 0.950 . S
C1342 C1341 1.398 . S
C1342 C1343 1.391 . S
C1343 H1331 0.950 . S
C1343 C1339 1.393 . S
C1343 C1342 1.391 . S
C1344 H1334 0.950 . S
C1344 C1345 1.386 . S
C1344 C1346 1.391 . S
C1345 C1344 1.386 . S
C1345 C1349 1.393 . S
C1346 H1335 0.950 . S
C1346 C1344 1.391 . S
C1346 C1347 1.400 . S
C1347 C1341 1.491 . S
C1347 C1346 1.400 . S
C1347 C1348 1.398 . S
C1348 H1336 0.950 . S
C1348 C1347 1.398 . S
C1348 C1349 1.391 . S
C1349 H1337 0.950 . S
C1349 C1345 1.393 . S
C1349 C1348 1.391 . S
H1350 C1358 0.950 . S
H1351 C1363 0.950 . S
H1352 C1360 0.950 . S
H1353 C1362 0.950 . S
H1354 C1364 0.950 . S
H1355 C1366 0.950 . S
H1356 C1368 0.950 . S
H1357 C1369 0.950 . S
C1358 H1350 0.950 . S
C1358 C1359 1.386 . S
C1358 C1360 1.391 . S
C1359 C1358 1.386 . S
C1359 C1363 1.393 . S
C1360 H1352 0.950 . S
C1360 C1358 1.391 . S
C1360 C1361 1.400 . S
C1361 C1360 1.400 . S
C1361 C1362 1.398 . S
C1361 C1367 1.491 . S
C1362 H1353 0.950 . S
C1362 C1361 1.398 . S
C1362 C1363 1.391 . S
C1363 H1351 0.950 . S
C1363 C1359 1.393 . S
C1363 C1362 1.391 . S
C1364 H1354 0.950 . S
C1364 C1365 1.386 . S
C1364 C1366 1.391 . S
C1365 C1364 1.386 . S
C1365 C1369 1.393 . S
C1366 H1355 0.950 . S
C1366 C1364 1.391 . S
C1366 C1367 1.400 . S
C1367 C1361 1.491 . S
C1367 C1366 1.400 . S
C1367 C1368 1.398 . S
C1368 H1356 0.950 . S
C1368 C1367 1.398 . S
C1368 C1369 1.391 . S
C1369 H1357 0.950 . S
C1369 C1365 1.393 . S
C1369 C1368 1.391 . S
H1370 C1378 0.950 . S
H1371 C1383 0.950 . S
H1372 C1380 0.950 . S
H1373 C1382 0.950 . S
H1374 C1384 0.950 . S
H1375 C1386 0.950 . S
H1376 C1388 0.950 . S
H1377 C1389 0.950 . S
C1378 H1370 0.950 . S
C1378 C1379 1.386 . S
C1378 C1380 1.391 . S
C1379 C1378 1.386 . S
C1379 C1383 1.393 . S
C1380 H1372 0.950 . S
C1380 C1378 1.391 . S
C1380 C1381 1.400 . S
C1381 C1380 1.400 . S
C1381 C1382 1.398 . S
C1381 C1387 1.491 . S
C1382 H1373 0.950 . S
C1382 C1381 1.398 . S
C1382 C1383 1.391 . S
C1383 H1371 0.950 . S
C1383 C1379 1.393 . S
C1383 C1382 1.391 . S
C1384 H1374 0.950 . S
C1384 C1385 1.386 . S
C1384 C1386 1.391 . S
C1385 C1384 1.386 . S
C1385 C1389 1.393 . S
C1386 H1375 0.950 . S
C1386 C1384 1.391 . S
C1386 C1387 1.400 . S
C1387 C1381 1.491 . S
C1387 C1386 1.400 . S
C1387 C1388 1.398 . S
C1388 H1376 0.950 . S
C1388 C1387 1.398 . S
C1388 C1389 1.391 . S
C1389 H1377 0.950 . S
C1389 C1385 1.393 . S
C1389 C1388 1.391 . S
H1390 C1398 0.976 . S
H1391 C1403 0.950 . S
H1392 C1400 0.950 . S
H1393 C1402 0.950 . S
H1394 C1404 0.950 . S
H1395 C1406 0.950 . S
H1396 C1408 0.950 . S
H1397 C1409 0.950 . S
C1398 H1390 0.976 . S
C1398 C1399 1.386 . S
C1398 C1400 1.391 . S
C1399 C1398 1.386 . S
C1399 C1403 1.393 . S
C1400 H1392 0.950 . S
C1400 C1398 1.391 . S
C1400 C1401 1.400 . S
C1401 C1400 1.400 . S
C1401 C1402 1.398 . S
C1401 C1407 1.491 . S
C1402 H1393 0.950 . S
C1402 C1401 1.398 . S
C1402 C1403 1.391 . S
C1403 H1391 0.950 . S
C1403 C1399 1.393 . S
C1403 C1402 1.391 . S
C1404 H1394 0.950 . S
C1404 C1405 1.386 . S
C1404 C1406 1.391 . S
C1405 C1404 1.386 . S
C1405 C1409 1.393 . S
C1406 H1395 0.950 . S
C1406 C1404 1.391 . S
C1406 C1407 1.400 . S
C1407 C1401 1.491 . S
C1407 C1406 1.400 . S
C1407 C1408 1.398 . S
C1408 H1396 0.950 . S
C1408 C1407 1.398 . S
C1408 C1409 1.391 . S
C1409 H1397 0.950 . S
C1409 C1405 1.393 . S
C1409 C1408 1.391 . S
H1410 C1418 0.950 . S
H1411 C1423 0.950 . S
H1412 C1420 0.950 1_554 S
H1413 C1422 0.950 . S
H1414 C1424 0.950 . S
H1415 C1426 0.950 . S
H1416 C1428 0.950 . S
H1417 C1429 0.950 . S
C1418 H1410 0.950 . S
C1418 C1419 1.386 1_554 S
C1418 C1420 1.391 1_554 S
C1419 C1418 1.386 1_556 S
C1419 C1423 1.393 . S
C1420 H1412 0.950 1_556 S
C1420 C1418 1.391 1_556 S
C1420 C1421 1.400 . S
C1421 C1420 1.400 . S
C1421 C1422 1.398 . S
C1421 C1427 1.491 . S
C1422 H1413 0.950 . S
C1422 C1421 1.398 . S
C1422 C1423 1.391 . S
C1423 H1411 0.950 . S
C1423 C1419 1.393 . S
C1423 C1422 1.391 . S
C1424 H1414 0.950 . S
C1424 C1425 1.386 . S
C1424 C1426 1.391 . S
C1425 C1424 1.386 . S
C1425 C1429 1.393 . S
C1426 H1415 0.950 . S
C1426 C1424 1.391 . S
C1426 C1427 1.400 . S
C1427 C1421 1.491 . S
C1427 C1426 1.400 . S
C1427 C1428 1.398 . S
C1428 H1416 0.950 . S
C1428 C1427 1.398 . S
C1428 C1429 1.391 . S
C1429 H1417 0.950 . S
C1429 C1425 1.393 . S
C1429 C1428 1.391 . S
H1430 C1438 0.950 . S
H1431 C1443 0.950 1_554 S
H1432 C1440 0.950 . S
H1433 C1442 0.950 . S
H1434 C1444 0.950 . S
H1435 C1446 0.950 . S
H1436 C1448 0.950 . S
H1437 C1449 0.950 . S
C1438 H1430 0.950 . S
C1438 C1439 1.386 . S
C1438 C1440 1.391 . S
C1439 C1438 1.386 . S
C1439 C1443 1.393 . S
C1440 H1432 0.950 . S
C1440 C1438 1.391 . S
C1440 C1441 1.400 . S
C1441 C1440 1.400 . S
C1441 C1442 1.398 . S
C1441 C1447 1.491 . S
C1442 H1433 0.950 . S
C1442 C1441 1.398 . S
C1442 C1443 1.391 . S
C1443 H1431 0.950 1_556 S
C1443 C1439 1.393 . S
C1443 C1442 1.391 . S
C1444 H1434 0.950 . S
C1444 C1445 1.386 . S
C1444 C1446 1.391 . S
C1445 C1444 1.386 . S
C1445 C1449 1.393 . S
C1446 H1435 0.950 . S
C1446 C1444 1.391 . S
C1446 C1447 1.400 . S
C1447 C1441 1.491 . S
C1447 C1446 1.400 . S
C1447 C1448 1.398 . S
C1448 H1436 0.950 . S
C1448 C1447 1.398 . S
C1448 C1449 1.391 . S
C1449 H1437 0.950 . S
C1449 C1445 1.393 . S
C1449 C1448 1.391 . S
H1450 C1458 0.950 . S
H1451 C1463 0.950 . S
H1452 C1460 0.950 . S
H1453 C1462 0.950 . S
H1454 C1464 0.950 . S
H1455 C1466 0.950 . S
H1456 C1468 0.950 . S
H1457 C1469 0.950 . S
C1458 H1450 0.950 . S
C1458 C1459 1.386 . S
C1458 C1460 1.391 . S
C1459 C1458 1.386 . S
C1459 C1463 1.393 . S
C1460 H1452 0.950 . S
C1460 C1458 1.391 . S
C1460 C1461 1.400 . S
C1461 C1460 1.400 . S
C1461 C1462 1.398 . S
C1461 C1467 1.491 . S
C1462 H1453 0.950 . S
C1462 C1461 1.398 . S
C1462 C1463 1.391 . S
C1463 H1451 0.950 . S
C1463 C1459 1.393 . S
C1463 C1462 1.391 . S
C1464 H1454 0.950 . S
C1464 C1465 1.386 . S
C1464 C1466 1.391 . S
C1465 C1464 1.386 . S
C1465 C1469 1.393 . S
C1466 H1455 0.950 . S
C1466 C1464 1.391 . S
C1466 C1467 1.400 . S
C1467 C1461 1.491 . S
C1467 C1466 1.400 . S
C1467 C1468 1.398 . S
C1468 H1456 0.950 . S
C1468 C1467 1.398 . S
C1468 C1469 1.391 . S
C1469 H1457 0.950 . S
C1469 C1465 1.393 . S
C1469 C1468 1.391 . S
H1470 C1478 0.950 . S
H1471 C1483 0.950 1_554 S
H1472 C1480 0.950 . S
H1473 C1482 0.950 . S
H1474 C1484 0.950 . S
H1475 C1486 0.950 . S
H1476 C1488 0.950 . S
H1477 C1489 0.950 . S
C1478 H1470 0.950 . S
C1478 C1479 1.386 . S
C1478 C1480 1.391 . S
C1479 C1478 1.386 . S
C1479 C1483 1.393 . S
C1480 H1472 0.950 . S
C1480 C1478 1.391 . S
C1480 C1481 1.400 . S
C1481 C1480 1.400 . S
C1481 C1482 1.398 . S
C1481 C1487 1.491 . S
C1482 H1473 0.950 . S
C1482 C1481 1.398 . S
C1482 C1483 1.391 . S
C1483 H1471 0.950 1_556 S
C1483 C1479 1.393 . S
C1483 C1482 1.391 . S
C1484 H1474 0.950 . S
C1484 C1485 1.386 . S
C1484 C1486 1.391 . S
C1485 C1484 1.386 . S
C1485 C1489 1.393 . S
C1486 H1475 0.950 . S
C1486 C1484 1.391 . S
C1486 C1487 1.400 . S
C1487 C1481 1.491 . S
C1487 C1486 1.400 . S
C1487 C1488 1.398 . S
C1488 H1476 0.950 . S
C1488 C1487 1.398 . S
C1488 C1489 1.391 . S
C1489 H1477 0.950 . S
C1489 C1485 1.393 . S
C1489 C1488 1.391 . S
H1490 C1498 0.950 . S
H1491 C1503 0.950 . S
H1492 C1500 0.950 . S
H1493 C1502 0.950 . S
H1494 C1504 0.950 . S
H1495 C1506 0.950 . S
H1496 C1508 0.950 . S
H1497 C1509 0.950 . S
C1498 H1490 0.950 . S
C1498 C1499 1.386 . S
C1498 C1500 1.391 . S
C1499 C1498 1.386 . S
C1499 C1503 1.393 . S
C1500 H1492 0.950 . S
C1500 C1498 1.391 . S
C1500 C1501 1.400 . S
C1501 C1500 1.400 . S
C1501 C1502 1.398 . S
C1501 C1507 1.491 . S
C1502 H1493 0.950 . S
C1502 C1501 1.398 . S
C1502 C1503 1.391 . S
C1503 H1491 0.950 . S
C1503 C1499 1.393 . S
C1503 C1502 1.391 . S
C1504 H1494 0.950 . S
C1504 C1505 1.386 . S
C1504 C1506 1.391 . S
C1505 C1504 1.386 . S
C1505 C1509 1.393 . S
C1506 H1495 0.950 . S
C1506 C1504 1.391 . S
C1506 C1507 1.400 . S
C1507 C1501 1.491 . S
C1507 C1506 1.400 . S
C1507 C1508 1.398 . S
C1508 H1496 0.950 . S
C1508 C1507 1.398 . S
C1508 C1509 1.391 . S
C1509 H1497 0.950 . S
C1509 C1505 1.393 . S
C1509 C1508 1.391 . S
H1510 C1518 0.950 . S
H1511 C1523 0.950 . S
H1512 C1520 0.948 . S
H1513 C1522 0.950 . S
H1514 C1524 0.950 . S
H1515 C1526 0.950 . S
H1516 C1528 0.950 . S
H1517 C1529 0.950 . S
C1518 H1510 0.950 . S
C1518 C1519 1.386 1_554 S
C1518 C1520 1.391 1_554 S
C1519 C1518 1.386 1_556 S
C1519 C1523 1.393 . S
C1520 H1512 0.948 . S
C1520 C1518 1.391 1_556 S
C1520 C1521 1.400 . S
C1521 C1520 1.400 . S
C1521 C1522 1.398 . S
C1521 C1527 1.491 . S
C1522 H1513 0.950 . S
C1522 C1521 1.398 . S
C1522 C1523 1.391 . S
C1523 H1511 0.950 . S
C1523 C1519 1.393 . S
C1523 C1522 1.391 . S
C1524 H1514 0.950 . S
C1524 C1525 1.386 . S
C1524 C1526 1.391 . S
C1525 C1524 1.386 . S
C1525 C1529 1.393 . S
C1526 H1515 0.950 . S
C1526 C1524 1.391 . S
C1526 C1527 1.400 . S
C1527 C1521 1.491 . S
C1527 C1526 1.400 . S
C1527 C1528 1.398 . S
C1528 H1516 0.950 . S
C1528 C1527 1.398 . S
C1528 C1529 1.391 . S
C1529 H1517 0.950 . S
C1529 C1525 1.393 . S
C1529 C1528 1.391 . S
H1530 C1538 0.950 . S
H1531 C1543 0.950 . S
H1532 C1540 0.950 . S
H1533 C1542 0.950 . S
H1534 C1544 0.950 . S
H1535 C1546 0.950 . S
H1536 C1548 0.950 . S
H1537 C1549 0.950 . S
C1538 H1530 0.950 . S
C1538 C1539 1.386 . S
C1538 C1540 1.391 . S
C1539 C1538 1.386 . S
C1539 C1543 1.393 . S
C1540 H1532 0.950 . S
C1540 C1538 1.391 . S
C1540 C1541 1.400 . S
C1541 C1540 1.400 . S
C1541 C1542 1.398 . S
C1541 C1547 1.491 . S
C1542 H1533 0.950 . S
C1542 C1541 1.398 . S
C1542 C1543 1.391 . S
C1543 H1531 0.950 . S
C1543 C1539 1.393 . S
C1543 C1542 1.391 . S
C1544 H1534 0.950 . S
C1544 C1545 1.386 . S
C1544 C1546 1.391 . S
C1545 C1544 1.386 . S
C1545 C1549 1.393 . S
C1546 H1535 0.950 . S
C1546 C1544 1.391 . S
C1546 C1547 1.400 . S
C1547 C1541 1.491 . S
C1547 C1546 1.400 . S
C1547 C1548 1.398 . S
C1548 H1536 0.950 . S
C1548 C1547 1.398 . S
C1548 C1549 1.391 . S
C1549 H1537 0.950 . S
C1549 C1545 1.393 . S
C1549 C1548 1.391 . S
H1550 C1558 0.950 . S
H1551 C1563 0.950 . S
H1552 C1560 0.950 . S
H1553 C1562 0.950 . S
H1554 C1564 0.950 . S
H1555 C1566 0.950 . S
H1556 C1568 0.950 . S
H1557 C1569 0.950 . S
C1558 H1550 0.950 . S
C1558 C1559 1.386 . S
C1558 C1560 1.391 . S
C1559 C1558 1.386 . S
C1559 C1563 1.393 . S
C1560 H1552 0.950 . S
C1560 C1558 1.391 . S
C1560 C1561 1.400 . S
C1561 C1560 1.400 . S
C1561 C1562 1.398 . S
C1561 C1567 1.491 . S
C1562 H1553 0.950 . S
C1562 C1561 1.398 . S
C1562 C1563 1.391 . S
C1563 H1551 0.950 . S
C1563 C1559 1.393 . S
C1563 C1562 1.391 . S
C1564 H1554 0.950 . S
C1564 C1565 1.386 . S
C1564 C1566 1.391 . S
C1565 C1564 1.386 . S
C1565 C1569 1.393 . S
C1566 H1555 0.950 . S
C1566 C1564 1.391 . S
C1566 C1567 1.400 . S
C1567 C1561 1.491 . S
C1567 C1566 1.400 . S
C1567 C1568 1.398 . S
C1568 H1556 0.950 . S
C1568 C1567 1.398 . S
C1568 C1569 1.391 . S
C1569 H1557 0.950 . S
C1569 C1565 1.393 . S
C1569 C1568 1.391 . S
H1570 C1578 0.950 . S
H1571 C1583 0.950 . S
H1572 C1580 0.950 . S
H1573 C1582 0.950 . S
H1574 C1584 0.950 . S
H1575 C1586 0.950 . S
H1576 C1588 0.950 . S
H1577 C1589 0.950 . S
C1578 H1570 0.950 . S
C1578 C1579 1.386 . S
C1578 C1580 1.391 . S
C1579 C1578 1.386 . S
C1579 C1583 1.393 . S
C1580 H1572 0.950 . S
C1580 C1578 1.391 . S
C1580 C1581 1.400 . S
C1581 C1580 1.400 . S
C1581 C1582 1.398 . S
C1581 C1587 1.491 . S
C1582 H1573 0.950 . S
C1582 C1581 1.398 . S
C1582 C1583 1.391 . S
C1583 H1571 0.950 . S
C1583 C1579 1.393 . S
C1583 C1582 1.391 . S
C1584 H1574 0.950 . S
C1584 C1585 1.386 . S
C1584 C1586 1.391 . S
C1585 C1584 1.386 . S
C1585 C1589 1.393 . S
C1586 H1575 0.950 . S
C1586 C1584 1.391 . S
C1586 C1587 1.400 . S
C1587 C1581 1.491 . S
C1587 C1586 1.400 . S
C1587 C1588 1.398 . S
C1588 H1576 0.950 . S
C1588 C1587 1.398 . S
C1588 C1589 1.391 . S
C1589 H1577 0.950 . S
C1589 C1585 1.393 . S
C1589 C1588 1.391 . S
H1590 C1598 0.950 . S
H1591 C1603 0.950 . S
H1592 C1600 0.950 . S
H1593 C1602 0.950 . S
H1594 C1604 0.950 . S
H1595 C1606 0.950 . S
H1596 C1608 0.950 . S
H1597 C1609 0.950 . S
C1598 H1590 0.950 . S
C1598 C1599 1.386 . S
C1598 C1600 1.391 . S
C1599 C1598 1.386 . S
C1599 C1603 1.393 . S
C1600 H1592 0.950 . S
C1600 C1598 1.391 . S
C1600 C1601 1.400 . S
C1601 C1600 1.400 . S
C1601 C1602 1.398 . S
C1601 C1607 1.491 . S
C1602 H1593 0.950 . S
C1602 C1601 1.398 . S
C1602 C1603 1.391 . S
C1603 H1591 0.950 . S
C1603 C1599 1.393 . S
C1603 C1602 1.391 . S
C1604 H1594 0.950 . S
C1604 C1605 1.386 . S
C1604 C1606 1.391 . S
C1605 C1604 1.386 . S
C1605 C1609 1.393 . S
C1606 H1595 0.950 . S
C1606 C1604 1.391 . S
C1606 C1607 1.400 . S
C1607 C1601 1.491 . S
C1607 C1606 1.400 . S
C1607 C1608 1.398 . S
C1608 H1596 0.950 . S
C1608 C1607 1.398 . S
C1608 C1609 1.391 . S
C1609 H1597 0.950 . S
C1609 C1605 1.393 . S
C1609 C1608 1.391 . S
H1610 C1618 0.950 . S
H1611 C1623 0.950 . S
H1612 C1620 0.950 . S
H1613 C1622 0.950 . S
H1614 C1624 0.950 . S
H1615 C1626 0.950 . S
H1616 C1628 0.950 . S
H1617 C1629 0.950 . S
C1618 H1610 0.950 . S
C1618 C1619 1.386 . S
C1618 C1620 1.391 . S
C1619 C1618 1.386 . S
C1619 C1623 1.393 . S
C1620 H1612 0.950 . S
C1620 C1618 1.391 . S
C1620 C1621 1.400 . S
C1621 C1620 1.400 . S
C1621 C1622 1.398 . S
C1621 C1627 1.491 . S
C1622 H1613 0.950 . S
C1622 C1621 1.398 . S
C1622 C1623 1.391 . S
C1623 H1611 0.950 . S
C1623 C1619 1.393 . S
C1623 C1622 1.391 . S
C1624 H1614 0.950 . S
C1624 C1625 1.386 . S
C1624 C1626 1.391 . S
C1625 C1624 1.386 . S
C1625 C1629 1.393 . S
C1626 H1615 0.950 . S
C1626 C1624 1.391 . S
C1626 C1627 1.400 . S
C1627 C1621 1.491 . S
C1627 C1626 1.400 . S
C1627 C1628 1.398 . S
C1628 H1616 0.950 . S
C1628 C1627 1.398 . S
C1628 C1629 1.391 . S
C1629 H1617 0.950 . S
C1629 C1625 1.393 . S
C1629 C1628 1.391 . S
H1630 C1638 0.950 . S
H1631 C1643 0.950 . S
H1632 C1640 0.950 . S
H1633 C1642 0.950 . S
H1634 C1644 0.950 . S
H1635 C1646 0.950 . S
H1636 C1648 0.950 . S
H1637 C1649 0.950 . S
C1638 H1630 0.950 . S
C1638 C1639 1.386 . S
C1638 C1640 1.391 . S
C1639 C1638 1.386 . S
C1639 C1643 1.393 . S
C1640 H1632 0.950 . S
C1640 C1638 1.391 . S
C1640 C1641 1.400 . S
C1641 C1640 1.400 . S
C1641 C1642 1.398 . S
C1641 C1647 1.491 . S
C1642 H1633 0.950 . S
C1642 C1641 1.398 . S
C1642 C1643 1.391 . S
C1643 H1631 0.950 . S
C1643 C1639 1.393 . S
C1643 C1642 1.391 . S
C1644 H1634 0.950 . S
C1644 C1645 1.386 . S
C1644 C1646 1.391 . S
C1645 C1644 1.386 . S
C1645 C1649 1.393 . S
C1646 H1635 0.950 . S
C1646 C1644 1.391 . S
C1646 C1647 1.400 . S
C1647 C1641 1.491 . S
C1647 C1646 1.400 . S
C1647 C1648 1.398 . S
C1648 H1636 0.950 . S
C1648 C1647 1.398 . S
C1648 C1649 1.391 . S
C1649 H1637 0.950 . S
C1649 C1645 1.393 . S
C1649 C1648 1.391 . S
H1650 C1658 0.950 . S
H1651 C1663 0.950 . S
H1652 C1660 0.950 . S
H1653 C1662 0.950 . S
H1654 C1664 0.950 . S
H1655 C1666 0.950 . S
H1656 C1668 0.950 . S
H1657 C1669 0.950 . S
C1658 H1650 0.950 . S
C1658 C1659 1.386 . S
C1658 C1660 1.391 . S
C1659 C1658 1.386 . S
C1659 C1663 1.393 1_455 S
C1660 H1652 0.950 . S
C1660 C1658 1.391 . S
C1660 C1661 1.400 . S
C1661 C1660 1.400 . S
C1661 C1662 1.398 1_455 S
C1661 C1667 1.491 . S
C1662 H1653 0.950 . S
C1662 C1661 1.398 1_655 S
C1662 C1663 1.391 . S
C1663 H1651 0.950 . S
C1663 C1659 1.393 1_655 S
C1663 C1662 1.391 . S
C1664 H1654 0.950 . S
C1664 C1665 1.386 1_655 S
C1664 C1666 1.391 . S
C1665 C1664 1.386 1_455 S
C1665 C1669 1.393 . S
C1666 H1655 0.950 . S
C1666 C1664 1.391 . S
C1666 C1667 1.400 1_655 S
C1667 C1661 1.491 . S
C1667 C1666 1.400 1_455 S
C1667 C1668 1.398 . S
C1668 H1656 0.950 . S
C1668 C1667 1.398 . S
C1668 C1669 1.391 . S
C1669 H1657 0.950 . S
C1669 C1665 1.393 . S
C1669 C1668 1.391 . S
H1670 C1678 0.950 . S
H1671 C1683 0.950 . S
H1672 C1680 0.950 . S
H1673 C1682 0.950 . S
H1674 C1684 0.950 . S
H1675 C1686 0.950 . S
H1676 C1688 0.950 . S
H1677 C1689 0.950 . S
C1678 H1670 0.950 . S
C1678 C1679 1.386 . S
C1678 C1680 1.391 . S
C1679 C1678 1.386 . S
C1679 C1683 1.393 . S
C1680 H1672 0.950 . S
C1680 C1678 1.391 . S
C1680 C1681 1.400 . S
C1681 C1680 1.400 . S
C1681 C1682 1.398 . S
C1681 C1687 1.491 . S
C1682 H1673 0.950 . S
C1682 C1681 1.398 . S
C1682 C1683 1.391 . S
C1683 H1671 0.950 . S
C1683 C1679 1.393 . S
C1683 C1682 1.391 . S
C1684 H1674 0.950 . S
C1684 C1685 1.386 . S
C1684 C1686 1.391 . S
C1685 C1684 1.386 . S
C1685 C1689 1.393 . S
C1686 H1675 0.950 . S
C1686 C1684 1.391 . S
C1686 C1687 1.400 . S
C1687 C1681 1.491 . S
C1687 C1686 1.400 . S
C1687 C1688 1.398 . S
C1688 H1676 0.950 . S
C1688 C1687 1.398 . S
C1688 C1689 1.391 . S
C1689 H1677 0.950 . S
C1689 C1685 1.393 . S
C1689 C1688 1.391 . S
H1690 C1698 0.950 . S
H1691 C1703 0.950 . S
H1692 C1700 0.950 . S
H1693 C1702 0.950 . S
H1694 C1704 0.950 . S
H1695 C1706 0.950 . S
H1696 C1708 0.950 . S
H1697 C1709 0.950 . S
C1698 H1690 0.950 . S
C1698 C1699 1.386 1_545 S
C1698 C1700 1.391 . S
C1699 C1698 1.386 1_565 S
C1699 C1703 1.393 . S
C1700 H1692 0.950 . S
C1700 C1698 1.391 . S
C1700 C1701 1.400 1_545 S
C1701 C1700 1.400 1_565 S
C1701 C1702 1.398 . S
C1701 C1707 1.491 . S
C1702 H1693 0.950 . S
C1702 C1701 1.398 . S
C1702 C1703 1.391 . S
C1703 H1691 0.950 . S
C1703 C1699 1.393 . S
C1703 C1702 1.391 . S
C1704 H1694 0.950 . S
C1704 C1705 1.386 . S
C1704 C1706 1.391 . S
C1705 C1704 1.386 . S
C1705 C1709 1.393 1_565 S
C1706 H1695 0.950 . S
C1706 C1704 1.391 . S
C1706 C1707 1.400 . S
C1707 C1701 1.491 . S
C1707 C1706 1.400 . S
C1707 C1708 1.398 1_565 S
C1708 H1696 0.950 . S
C1708 C1707 1.398 1_545 S
C1708 C1709 1.391 . S
C1709 H1697 0.950 . S
C1709 C1705 1.393 1_545 S
C1709 C1708 1.391 . S
H1710 C1718 0.950 . S
H1711 C1723 0.950 . S
H1712 C1720 0.950 . S
H1713 C1722 0.950 . S
H1714 C1724 0.950 . S
H1715 C1726 0.954 1_545 S
H1716 C1728 0.950 . S
H1717 C1729 0.950 . S
C1718 H1710 0.950 . S
C1718 C1719 1.386 . S
C1718 C1720 1.391 . S
C1719 C1718 1.386 . S
C1719 C1723 1.393 . S
C1720 H1712 0.950 . S
C1720 C1718 1.391 . S
C1720 C1721 1.400 . S
C1721 C1720 1.400 . S
C1721 C1722 1.398 . S
C1721 C1727 1.491 . S
C1722 H1713 0.950 . S
C1722 C1721 1.398 . S
C1722 C1723 1.391 . S
C1723 H1711 0.950 . S
C1723 C1719 1.393 . S
C1723 C1722 1.391 . S
C1724 H1714 0.950 . S
C1724 C1725 1.386 1_545 S
C1724 C1726 1.391 1_545 S
C1725 C1724 1.386 1_565 S
C1725 C1729 1.393 . S
C1726 H1715 0.954 1_565 S
C1726 C1724 1.391 1_565 S
C1726 C1727 1.400 . S
C1727 C1721 1.491 . S
C1727 C1726 1.400 . S
C1727 C1728 1.398 . S
C1728 H1716 0.950 . S
C1728 C1727 1.398 . S
C1728 C1729 1.391 . S
C1729 H1717 0.950 . S
C1729 C1725 1.393 . S
C1729 C1728 1.391 . S
H1730 C1738 0.950 . S
H1731 C1743 0.950 . S
H1732 C1740 0.950 . S
H1733 C1742 0.950 . S
H1734 C1744 0.987 1_655 S
H1735 C1746 0.950 . S
H1736 C1748 0.950 . S
H1737 C1749 0.950 . S
C1738 H1730 0.950 . S
C1738 C1739 1.386 . S
C1738 C1740 1.391 . S
C1739 C1738 1.386 . S
C1739 C1743 1.393 . S
C1740 H1732 0.950 . S
C1740 C1738 1.391 . S
C1740 C1741 1.400 . S
C1741 C1740 1.400 . S
C1741 C1742 1.398 . S
C1741 C1747 1.491 . S
C1742 H1733 0.950 . S
C1742 C1741 1.398 . S
C1742 C1743 1.391 . S
C1743 H1731 0.950 . S
C1743 C1739 1.393 . S
C1743 C1742 1.391 . S
C1744 H1734 0.987 1_455 S
C1744 C1745 1.388 . S
C1744 C1746 1.366 . S
C1745 C1744 1.388 . S
C1745 C1749 1.379 . S
C1746 H1735 0.950 . S
C1746 C1744 1.366 . S
C1746 C1747 1.400 . S
C1747 C1741 1.491 . S
C1747 C1746 1.400 . S
C1747 C1748 1.398 . S
C1748 H1736 0.950 . S
C1748 C1747 1.398 . S
C1748 C1749 1.391 . S
C1749 H1737 0.950 . S
C1749 C1745 1.379 . S
C1749 C1748 1.391 . S
H1750 C1758 0.950 . S
H1751 C1763 0.950 . S
H1752 C1760 0.950 . S
H1753 C1762 0.950 . S
H1754 C1764 0.950 . S
H1755 C1766 0.950 . S
H1756 C1768 0.950 . S
H1757 C1769 0.950 . S
C1758 H1750 0.950 . S
C1758 C1759 1.386 . S
C1758 C1760 1.391 . S
C1759 C1758 1.386 . S
C1759 C1763 1.393 . S
C1760 H1752 0.950 . S
C1760 C1758 1.391 . S
C1760 C1761 1.400 . S
C1761 C1760 1.400 . S
C1761 C1762 1.398 . S
C1761 C1767 1.491 . S
C1762 H1753 0.950 . S
C1762 C1761 1.398 . S
C1762 C1763 1.391 . S
C1763 H1751 0.950 . S
C1763 C1759 1.393 . S
C1763 C1762 1.391 . S
C1764 H1754 0.950 . S
C1764 C1765 1.386 . S
C1764 C1766 1.391 . S
C1765 C1764 1.386 . S
C1765 C1769 1.393 . S
C1766 H1755 0.950 . S
C1766 C1764 1.391 . S
C1766 C1767 1.400 . S
C1767 C1761 1.491 . S
C1767 C1766 1.400 . S
C1767 C1768 1.398 . S
C1768 H1756 0.950 . S
C1768 C1767 1.398 . S
C1768 C1769 1.391 . S
C1769 H1757 0.950 . S
C1769 C1765 1.393 . S
C1769 C1768 1.391 . S
H1770 C1778 0.950 . S
H1771 C1783 0.950 . S
H1772 C1780 0.950 . S
H1773 C1782 0.950 . S
H1774 C1784 0.950 . S
H1775 C1786 0.950 . S
H1776 C1788 0.950 . S
H1777 C1789 0.950 . S
C1778 H1770 0.950 . S
C1778 C1779 1.386 . S
C1778 C1780 1.391 . S
C1779 C1778 1.386 . S
C1779 C1783 1.393 . S
C1780 H1772 0.950 . S
C1780 C1778 1.391 . S
C1780 C1781 1.400 . S
C1781 C1780 1.400 . S
C1781 C1782 1.398 . S
C1781 C1787 1.491 . S
C1782 H1773 0.950 . S
C1782 C1781 1.398 . S
C1782 C1783 1.391 . S
C1783 H1771 0.950 . S
C1783 C1779 1.393 . S
C1783 C1782 1.391 . S
C1784 H1774 0.950 . S
C1784 C1785 1.386 . S
C1784 C1786 1.391 . S
C1785 C1784 1.386 . S
C1785 C1789 1.393 . S
C1786 H1775 0.950 . S
C1786 C1784 1.391 . S
C1786 C1787 1.400 . S
C1787 C1781 1.491 . S
C1787 C1786 1.400 . S
C1787 C1788 1.398 . S
C1788 H1776 0.950 . S
C1788 C1787 1.398 . S
C1788 C1789 1.391 . S
C1789 H1777 0.950 . S
C1789 C1785 1.393 . S
C1789 C1788 1.391 . S
H1790 C1798 0.950 . S
H1791 C1803 0.950 . S
H1792 C1800 0.950 . S
H1793 C1802 0.950 . S
H1794 C1804 0.950 . S
H1795 C1806 0.950 . S
H1796 C1808 0.950 . S
H1797 C1809 0.950 . S
C1798 H1790 0.950 . S
C1798 C1799 1.386 . S
C1798 C1800 1.391 . S
C1799 C1798 1.386 . S
C1799 C1803 1.393 . S
C1800 H1792 0.950 . S
C1800 C1798 1.391 . S
C1800 C1801 1.400 . S
C1801 C1800 1.400 . S
C1801 C1802 1.398 . S
C1801 C1807 1.491 . S
C1802 H1793 0.950 . S
C1802 C1801 1.398 . S
C1802 C1803 1.391 . S
C1803 H1791 0.950 . S
C1803 C1799 1.393 . S
C1803 C1802 1.391 . S
C1804 H1794 0.950 . S
C1804 C1805 1.386 . S
C1804 C1806 1.391 . S
C1805 C1804 1.386 . S
C1805 C1809 1.393 . S
C1806 H1795 0.950 . S
C1806 C1804 1.391 . S
C1806 C1807 1.400 . S
C1807 C1801 1.491 . S
C1807 C1806 1.400 . S
C1807 C1808 1.398 . S
C1808 H1796 0.950 . S
C1808 C1807 1.398 . S
C1808 C1809 1.391 . S
C1809 H1797 0.950 . S
C1809 C1805 1.393 . S
C1809 C1808 1.391 . S
H1810 C1818 0.950 . S
H1811 C1823 0.950 . S
H1812 C1820 0.950 . S
H1813 C1822 0.950 . S
H1814 C1824 0.950 . S
H1815 C1826 0.950 . S
H1816 C1828 0.950 . S
H1817 C1829 0.950 . S
C1818 H1810 0.950 . S
C1818 C1819 1.386 . S
C1818 C1820 1.391 . S
C1819 C1818 1.386 . S
C1819 C1823 1.393 . S
C1820 H1812 0.950 . S
C1820 C1818 1.391 . S
C1820 C1821 1.400 . S
C1821 C1820 1.400 . S
C1821 C1822 1.398 . S
C1821 C1827 1.491 . S
C1822 H1813 0.950 . S
C1822 C1821 1.398 . S
C1822 C1823 1.391 . S
C1823 H1811 0.950 . S
C1823 C1819 1.393 . S
C1823 C1822 1.391 . S
C1824 H1814 0.950 . S
C1824 C1825 1.386 . S
C1824 C1826 1.391 . S
C1825 C1824 1.386 . S
C1825 C1829 1.393 . S
C1826 H1815 0.950 . S
C1826 C1824 1.391 . S
C1826 C1827 1.400 . S
C1827 C1821 1.491 . S
C1827 C1826 1.400 . S
C1827 C1828 1.398 . S
C1828 H1816 0.950 . S
C1828 C1827 1.398 . S
C1828 C1829 1.391 . S
C1829 H1817 0.950 . S
C1829 C1825 1.393 . S
C1829 C1828 1.391 . S
H1830 C1838 0.950 . S
H1831 C1843 0.950 . S
H1832 C1840 0.950 . S
H1833 C1842 0.950 . S
H1834 C1844 0.950 . S
H1835 C1846 0.950 . S
H1836 C1848 0.950 . S
H1837 C1849 0.950 . S
C1838 H1830 0.950 . S
C1838 C1839 1.386 . S
C1838 C1840 1.391 . S
C1839 C1838 1.386 . S
C1839 C1843 1.393 . S
C1840 H1832 0.950 . S
C1840 C1838 1.391 . S
C1840 C1841 1.400 . S
C1841 C1840 1.400 . S
C1841 C1842 1.398 . S
C1841 C1847 1.491 . S
C1842 H1833 0.950 . S
C1842 C1841 1.398 . S
C1842 C1843 1.391 . S
C1843 H1831 0.950 . S
C1843 C1839 1.393 . S
C1843 C1842 1.391 . S
C1844 H1834 0.950 . S
C1844 C1845 1.386 . S
C1844 C1846 1.391 . S
C1845 C1844 1.386 . S
C1845 C1849 1.393 . S
C1846 H1835 0.950 . S
C1846 C1844 1.391 . S
C1846 C1847 1.400 . S
C1847 C1841 1.491 . S
C1847 C1846 1.400 . S
C1847 C1848 1.398 . S
C1848 H1836 0.950 . S
C1848 C1847 1.398 . S
C1848 C1849 1.391 . S
C1849 H1837 0.950 . S
C1849 C1845 1.393 . S
C1849 C1848 1.391 . S
H1850 C1858 0.950 . S
H1851 C1863 0.950 . S
H1852 C1860 0.950 . S
H1853 C1862 0.950 . S
H1854 C1864 0.950 . S
H1855 C1866 0.950 . S
H1856 C1868 0.950 . S
H1857 C1869 0.950 . S
C1858 H1850 0.950 . S
C1858 C1859 1.386 1_455 S
C1858 C1860 1.391 . S
C1859 C1858 1.386 1_655 S
C1859 C1863 1.393 . S
C1860 H1852 0.950 . S
C1860 C1858 1.391 . S
C1860 C1861 1.400 1_455 S
C1861 C1860 1.400 1_655 S
C1861 C1862 1.398 . S
C1861 C1867 1.491 . S
C1862 H1853 0.950 . S
C1862 C1861 1.398 . S
C1862 C1863 1.391 . S
C1863 H1851 0.950 . S
C1863 C1859 1.393 . S
C1863 C1862 1.391 . S
C1864 H1854 0.950 . S
C1864 C1865 1.386 . S
C1864 C1866 1.391 . S
C1865 C1864 1.386 . S
C1865 C1869 1.393 1_655 S
C1866 H1855 0.950 . S
C1866 C1864 1.391 . S
C1866 C1867 1.400 . S
C1867 C1861 1.491 . S
C1867 C1866 1.400 . S
C1867 C1868 1.398 1_655 S
C1868 H1856 0.950 . S
C1868 C1867 1.398 1_455 S
C1868 C1869 1.391 . S
C1869 H1857 0.950 . S
C1869 C1865 1.393 1_455 S
C1869 C1868 1.391 . S
H1870 C1878 0.950 . S
H1871 C1883 0.950 . S
H1872 C1880 0.950 . S
H1873 C1882 0.950 . S
H1874 C1884 0.950 . S
H1875 C1886 0.950 . S
H1876 C1888 0.950 . S
H1877 C1889 0.950 . S
C1878 H1870 0.950 . S
C1878 C1879 1.386 . S
C1878 C1880 1.391 . S
C1879 C1878 1.386 . S
C1879 C1883 1.393 . S
C1880 H1872 0.950 . S
C1880 C1878 1.391 . S
C1880 C1881 1.400 . S
C1881 C1880 1.400 . S
C1881 C1882 1.398 . S
C1881 C1887 1.491 . S
C1882 H1873 0.950 . S
C1882 C1881 1.398 . S
C1882 C1883 1.391 . S
C1883 H1871 0.950 . S
C1883 C1879 1.393 . S
C1883 C1882 1.391 . S
C1884 H1874 0.950 . S
C1884 C1885 1.386 . S
C1884 C1886 1.391 . S
C1885 C1884 1.386 . S
C1885 C1889 1.393 . S
C1886 H1875 0.950 . S
C1886 C1884 1.391 . S
C1886 C1887 1.400 . S
C1887 C1881 1.491 . S
C1887 C1886 1.400 . S
C1887 C1888 1.398 . S
C1888 H1876 0.950 . S
C1888 C1887 1.398 . S
C1888 C1889 1.391 . S
C1889 H1877 0.950 . S
C1889 C1885 1.393 . S
C1889 C1888 1.391 . S
H1890 C1898 0.950 . S
H1891 C1903 0.950 . S
H1892 C1900 0.950 . S
H1893 C1902 0.950 . S
H1894 C1904 0.950 . S
H1895 C1906 0.950 . S
H1896 C1908 0.950 . S
H1897 C1909 0.950 . S
C1898 H1890 0.950 . S
C1898 C1899 1.386 . S
C1898 C1900 1.391 . S
C1899 C1898 1.386 . S
C1899 C1903 1.393 . S
C1900 H1892 0.950 . S
C1900 C1898 1.391 . S
C1900 C1901 1.400 . S
C1901 C1900 1.400 . S
C1901 C1902 1.398 . S
C1901 C1907 1.491 . S
C1902 H1893 0.950 . S
C1902 C1901 1.398 . S
C1902 C1903 1.391 . S
C1903 H1891 0.950 . S
C1903 C1899 1.393 . S
C1903 C1902 1.391 . S
C1904 H1894 0.950 . S
C1904 C1905 1.386 . S
C1904 C1906 1.391 . S
C1905 C1904 1.386 . S
C1905 C1909 1.393 . S
C1906 H1895 0.950 . S
C1906 C1904 1.391 . S
C1906 C1907 1.400 . S
C1907 C1901 1.491 . S
C1907 C1906 1.400 . S
C1907 C1908 1.398 . S
C1908 H1896 0.950 . S
C1908 C1907 1.398 . S
C1908 C1909 1.391 . S
C1909 H1897 0.950 . S
C1909 C1905 1.393 . S
C1909 C1908 1.391 . S
H1910 C1918 0.950 . S
H1911 C1923 0.950 . S
H1912 C1920 0.950 . S
H1913 C1922 0.950 . S
H1914 C1924 0.950 . S
H1915 C1926 0.950 . S
H1916 C1928 0.950 . S
H1917 C1929 0.950 . S
C1918 H1910 0.950 . S
C1918 C1919 1.386 . S
C1918 C1920 1.391 . S
C1919 C1918 1.386 . S
C1919 C1923 1.393 . S
C1920 H1912 0.950 . S
C1920 C1918 1.391 . S
C1920 C1921 1.400 . S
C1921 C1920 1.400 . S
C1921 C1922 1.398 . S
C1921 C1927 1.491 . S
C1922 H1913 0.950 . S
C1922 C1921 1.398 . S
C1922 C1923 1.391 . S
C1923 H1911 0.950 . S
C1923 C1919 1.393 . S
C1923 C1922 1.391 . S
C1924 H1914 0.950 . S
C1924 C1925 1.386 . S
C1924 C1926 1.391 . S
C1925 C1924 1.386 . S
C1925 C1929 1.393 . S
C1926 H1915 0.950 . S
C1926 C1924 1.391 . S
C1926 C1927 1.400 . S
C1927 C1921 1.491 . S
C1927 C1926 1.400 . S
C1927 C1928 1.398 . S
C1928 H1916 0.950 . S
C1928 C1927 1.398 . S
C1928 C1929 1.391 . S
C1929 H1917 0.950 . S
C1929 C1925 1.393 . S
C1929 C1928 1.391 . S
H1930 C1938 0.950 . S
H1931 C1943 0.950 . S
H1932 C1940 0.950 . S
H1933 C1942 0.950 . S
H1934 C1944 0.950 . S
H1935 C1946 0.950 . S
H1936 C1948 0.950 . S
H1937 C1949 0.950 . S
C1938 H1930 0.950 . S
C1938 C1939 1.386 . S
C1938 C1940 1.391 . S
C1939 C1938 1.386 . S
C1939 C1943 1.393 . S
C1940 H1932 0.950 . S
C1940 C1938 1.391 . S
C1940 C1941 1.400 . S
C1941 C1940 1.400 . S
C1941 C1942 1.398 . S
C1941 C1947 1.491 . S
C1942 H1933 0.950 . S
C1942 C1941 1.398 . S
C1942 C1943 1.391 . S
C1943 H1931 0.950 . S
C1943 C1939 1.393 . S
C1943 C1942 1.391 . S
C1944 H1934 0.950 . S
C1944 C1945 1.386 . S
C1944 C1946 1.391 . S
C1945 C1944 1.386 . S
C1945 C1949 1.393 . S
C1946 H1935 0.950 . S
C1946 C1944 1.391 . S
C1946 C1947 1.400 . S
C1947 C1941 1.491 . S
C1947 C1946 1.400 . S
C1947 C1948 1.398 . S
C1948 H1936 0.950 . S
C1948 C1947 1.398 . S
C1948 C1949 1.391 . S
C1949 H1937 0.950 . S
C1949 C1945 1.393 . S
C1949 C1948 1.391 . S
H1950 C1958 0.950 . S
H1951 C1963 0.950 . S
H1952 C1960 0.950 . S
H1953 C1962 0.950 . S
H1954 C1964 0.950 . S
H1955 C1966 0.950 . S
H1956 C1968 0.950 . S
H1957 C1969 0.950 . S
C1958 H1950 0.950 . S
C1958 C1959 1.386 . S
C1958 C1960 1.391 . S
C1959 C1958 1.386 . S
C1959 C1963 1.393 . S
C1960 H1952 0.950 . S
C1960 C1958 1.391 . S
C1960 C1961 1.400 . S
C1961 C1960 1.400 . S
C1961 C1962 1.398 . S
C1961 C1967 1.491 . S
C1962 H1953 0.950 . S
C1962 C1961 1.398 . S
C1962 C1963 1.391 . S
C1963 H1951 0.950 . S
C1963 C1959 1.393 . S
C1963 C1962 1.391 . S
C1964 H1954 0.950 . S
C1964 C1965 1.386 . S
C1964 C1966 1.391 . S
C1965 C1964 1.386 . S
C1965 C1969 1.393 . S
C1966 H1955 0.950 . S
C1966 C1964 1.391 . S
C1966 C1967 1.400 . S
C1967 C1961 1.491 . S
C1967 C1966 1.400 . S
C1967 C1968 1.398 . S
C1968 H1956 0.950 . S
C1968 C1967 1.398 . S
C1968 C1969 1.391 . S
C1969 H1957 0.950 . S
C1969 C1965 1.393 . S
C1969 C1968 1.391 . S
H1970 C1978 0.950 . S
H1971 C1983 0.950 . S
H1972 C1980 0.950 . S
H1973 C1982 0.950 . S
H1974 C1984 0.950 . S
H1975 C1986 0.950 . S
H1976 C1988 0.950 . S
H1977 C1989 0.950 . S
C1978 H1970 0.950 . S
C1978 C1979 1.386 . S
C1978 C1980 1.391 . S
C1979 C1978 1.386 . S
C1979 C1983 1.393 . S
C1980 H1972 0.950 . S
C1980 C1978 1.391 . S
C1980 C1981 1.400 . S
C1981 C1980 1.400 . S
C1981 C1982 1.398 . S
C1981 C1987 1.491 . S
C1982 H1973 0.950 . S
C1982 C1981 1.398 . S
C1982 C1983 1.391 . S
C1983 H1971 0.950 . S
C1983 C1979 1.393 . S
C1983 C1982 1.391 . S
C1984 H1974 0.950 . S
C1984 C1985 1.386 . S
C1984 C1986 1.391 . S
C1985 C1984 1.386 . S
C1985 C1989 1.393 . S
C1986 H1975 0.950 . S
C1986 C1984 1.391 . S
C1986 C1987 1.400 . S
C1987 C1981 1.491 . S
C1987 C1986 1.400 . S
C1987 C1988 1.398 . S
C1988 H1976 0.950 . S
C1988 C1987 1.398 . S
C1988 C1989 1.391 . S
C1989 H1977 0.950 . S
C1989 C1985 1.393 . S
C1989 C1988 1.391 . S
H1990 C1998 0.950 . S
H1991 C2003 0.950 . S
H1992 C2000 0.950 . S
H1993 C2002 0.950 . S
H1994 C2004 0.950 . S
H1995 C2006 0.950 . S
H1996 C2008 0.950 . S
H1997 C2009 0.950 . S
C1998 H1990 0.950 . S
C1998 C1999 1.386 . S
C1998 C2000 1.391 . S
C1999 C1998 1.386 . S
C1999 C2003 1.393 . S
C2000 H1992 0.950 . S
C2000 C1998 1.391 . S
C2000 C2001 1.400 . S
C2001 C2000 1.400 . S
C2001 C2002 1.398 . S
C2001 C2007 1.491 . S
C2002 H1993 0.950 . S
C2002 C2001 1.398 . S
C2002 C2003 1.391 . S
C2003 H1991 0.950 . S
C2003 C1999 1.393 . S
C2003 C2002 1.391 . S
C2004 H1994 0.950 . S
C2004 C2005 1.386 . S
C2004 C2006 1.391 . S
C2005 C2004 1.386 . S
C2005 C2009 1.393 . S
C2006 H1995 0.950 . S
C2006 C2004 1.391 . S
C2006 C2007 1.400 . S
C2007 C2001 1.491 . S
C2007 C2006 1.400 . S
C2007 C2008 1.398 . S
C2008 H1996 0.950 . S
C2008 C2007 1.398 . S
C2008 C2009 1.391 . S
C2009 H1997 0.950 . S
C2009 C2005 1.393 . S
C2009 C2008 1.391 . S
H2010 C2018 0.950 . S
H2011 C2023 0.950 . S
H2012 C2020 0.950 . S
H2013 C2022 0.950 . S
H2014 C2024 0.950 . S
H2015 C2026 0.950 . S
H2016 C2028 0.933 . S
H2017 C2029 0.951 1_455 S
C2018 H2010 0.950 . S
C2018 C2019 1.386 . S
C2018 C2020 1.391 . S
C2019 C2018 1.386 . S
C2019 C2023 1.393 . S
C2020 H2012 0.950 . S
C2020 C2018 1.391 . S
C2020 C2021 1.400 . S
C2021 C2020 1.400 . S
C2021 C2022 1.398 . S
C2021 C2027 1.491 . S
C2022 H2013 0.950 . S
C2022 C2021 1.398 . S
C2022 C2023 1.391 . S
C2023 H2011 0.950 . S
C2023 C2019 1.393 . S
C2023 C2022 1.391 . S
C2024 H2014 0.950 . S
C2024 C2025 1.386 . S
C2024 C2026 1.391 . S
C2025 C2024 1.386 . S
C2025 C2029 1.395 . S
C2026 H2015 0.950 . S
C2026 C2024 1.391 . S
C2026 C2027 1.400 . S
C2027 C2021 1.491 . S
C2027 C2026 1.400 . S
C2027 C2028 1.398 . S
C2028 H2016 0.933 . S
C2028 C2027 1.398 . S
C2028 C2029 1.387 . S
C2029 H2017 0.951 1_655 S
C2029 C2025 1.395 . S
C2029 C2028 1.387 . S
H2030 C2038 0.950 . S
H2031 C2043 0.950 . S
H2032 C2040 0.950 . S
H2033 C2042 0.950 . S
H2034 C2044 0.950 . S
H2035 C2046 0.950 . S
H2036 C2048 0.950 . S
H2037 C2049 0.950 . S
C2038 H2030 0.950 . S
C2038 C2039 1.386 . S
C2038 C2040 1.391 . S
C2039 C2038 1.386 . S
C2039 C2043 1.393 . S
C2040 H2032 0.950 . S
C2040 C2038 1.391 . S
C2040 C2041 1.400 . S
C2041 C2040 1.400 . S
C2041 C2042 1.398 . S
C2041 C2047 1.491 . S
C2042 H2033 0.950 . S
C2042 C2041 1.398 . S
C2042 C2043 1.391 . S
C2043 H2031 0.950 . S
C2043 C2039 1.393 . S
C2043 C2042 1.391 . S
C2044 H2034 0.950 . S
C2044 C2045 1.386 . S
C2044 C2046 1.391 . S
C2045 C2044 1.386 . S
C2045 C2049 1.393 . S
C2046 H2035 0.950 . S
C2046 C2044 1.391 . S
C2046 C2047 1.400 . S
C2047 C2041 1.491 . S
C2047 C2046 1.400 . S
C2047 C2048 1.398 . S
C2048 H2036 0.950 . S
C2048 C2047 1.398 . S
C2048 C2049 1.391 . S
C2049 H2037 0.950 . S
C2049 C2045 1.393 . S
C2049 C2048 1.391 . S
H2050 C2058 0.950 . S
H2051 C2063 0.950 . S
H2052 C2060 0.950 . S
H2053 C2062 0.950 . S
H2054 C2064 0.954 1_565 S
H2055 C2066 0.950 . S
H2056 C2068 0.950 . S
H2057 C2069 0.950 . S
C2058 H2050 0.950 . S
C2058 C2059 1.386 . S
C2058 C2060 1.391 . S
C2059 C2058 1.386 . S
C2059 C2063 1.393 . S
C2060 H2052 0.950 . S
C2060 C2058 1.391 . S
C2060 C2061 1.400 . S
C2061 C2060 1.400 . S
C2061 C2062 1.398 . S
C2061 C2067 1.491 . S
C2062 H2053 0.950 . S
C2062 C2061 1.398 . S
C2062 C2063 1.391 . S
C2063 H2051 0.950 . S
C2063 C2059 1.393 . S
C2063 C2062 1.391 . S
C2064 H2054 0.954 1_545 S
C2064 C2065 1.384 . S
C2064 C2066 1.385 . S
C2065 C2064 1.384 . S
C2065 C2069 1.381 . S
C2066 H2055 0.950 . S
C2066 C2064 1.385 . S
C2066 C2067 1.400 . S
C2067 C2061 1.491 . S
C2067 C2066 1.400 . S
C2067 C2068 1.398 . S
C2068 H2056 0.950 . S
C2068 C2067 1.398 . S
C2068 C2069 1.391 . S
C2069 H2057 0.950 . S
C2069 C2065 1.381 . S
C2069 C2068 1.391 . S
C639 C13 1.482 . S
C645 C458 1.523 1_655 S
C659 C27 1.410 . S
C665 C471 1.441 . S
C685 C500 1.510 1_545 S
C679 C36 1.451 . S
C699 C41 1.471 . S
C705 C513 1.501 . S
C719 C8 1.569 . S
C725 C534 1.627 . S
C739 C22 1.468 . S
C745 C563 1.482 . S
C759 C55 1.509 . S
C765 C542 1.513 . S
C785 C555 1.416 . S
C779 C69 1.380 . S
C805 C521 1.521 . S
C799 C78 1.487 . S
C819 C83 1.474 . S
C825 C492 1.508 1_545 S
C845 C450 1.627 1_655 S
C839 C50 1.580 . S
C859 C64 1.456 . S
C865 C479 1.502 . S
C879 C97 1.537 . S
C885 C584 1.561 . S
C899 C111 1.420 . S
C905 C597 1.457 . S
C925 C626 1.524 . S
C919 C120 1.526 . S
C939 C125 1.464 . S
C945 C261 1.528 . S
C959 C92 1.617 . S
C965 C282 1.674 . S
C979 C106 1.502 . S
C985 C311 1.514 . S
C999 C139 1.482 . S
C1005 C290 1.546 . S
C1019 C153 1.393 . S
C1025 C303 1.426 . S
C1045 C269 1.553 . S
C1039 C162 1.507 . S
C1065 C618 1.511 . S
C1059 C167 1.468 . S
C1085 C576 1.612 . S
C1079 C134 1.610 . S
C1105 C605 1.535 . S
C1099 C148 1.495 . S
C1119 C181 1.527 . S
C1125 C332 1.548 . S
C1139 C195 1.408 . S
C1145 C345 1.463 . S
C1159 C204 1.519 . S
C1165 C374 1.518 . S
C1179 C209 1.490 . S
C1185 C387 1.565 . S
C1205 C408 1.693 . S
C1199 C176 1.645 . S
C1225 C437 1.525 . S
C1219 C190 1.494 . S
C1245 C416 1.585 . S
C1239 C223 1.512 . S
C1265 C429 1.438 . S
C1259 C237 1.400 . S
C1279 C246 1.494 . S
C1285 C395 1.540 . S
C1305 C366 1.508 . S
C1299 C251 1.475 . S
C1319 C218 1.621 . S
C1325 C324 1.634 . S
C1345 C353 1.522 . S
C1339 C232 1.473 . S
C1365 C264 1.296 . S
C1359 C11 1.393 . S
C1379 C25 1.275 . S
C1385 C285 1.215 . S
C1405 C313 1.278 . S
C1399 C35 1.365 . S
C1425 C334 1.264 . S
C1419 C39 1.372 . S
C1445 C348 1.370 . S
C1439 C7 1.480 . S
C1465 C376 1.267 . S
C1459 C21 1.370 . S
C1479 C53 1.421 . S
C1485 C369 1.299 . S
C1499 C67 1.293 . S
C1505 C327 1.186 . S
C1519 C77 1.369 1_556 S
C1525 C355 1.309 . S
C1539 C81 1.404 . S
C1545 C292 1.339 . S
C1565 C306 1.293 . S
C1559 C49 1.474 . S
C1579 C63 1.378 . S
C1585 C271 1.310 . S
C1605 C390 1.287 . S
C1599 C95 1.392 . S
C1619 C109 1.307 . S
C1625 C411 1.250 . S
C1639 C119 1.410 . S
C1645 C439 1.314 . S
C1665 C460 1.236 . S
C1659 C123 1.308 . S
C1679 C91 1.456 . S
C1685 C474 1.320 . S
C1699 C105 1.321 . S
C1705 C502 1.216 . S
C1719 C137 1.360 . S
C1725 C495 1.215 . S
C1739 C151 1.245 . S
C1745 C453 1.164 . S
C1765 C481 1.323 . S
C1759 C161 1.385 . S
C1779 C165 1.392 . S
C1785 C418 1.298 . S
C1799 C133 1.502 . S
C1805 C432 1.336 . S
C1825 C397 1.355 . S
C1819 C147 1.420 . S
C1845 C516 1.237 1_545 S
C1839 C179 1.359 . S
C1859 C193 1.231 . S
C1865 C537 1.123 1_655 S
C1879 C203 1.371 . S
C1885 C565 1.257 . S
C1905 C586 1.248 . S
C1899 C207 1.352 . S
C1925 C600 1.371 . S
C1919 C175 1.486 . S
C1939 C189 1.402 . S
C1945 C628 1.281 . S
C1959 C221 1.415 . S
C1965 C621 1.261 . S
C1979 C235 1.333 . S
C1985 C579 1.176 . S
C2005 C607 1.343 . S
C1999 C245 1.424 . S
C2025 C544 1.224 1_655 S
C2019 C249 1.314 . S
C2045 C558 1.325 . S
C2039 C217 1.470 . S
C2059 C231 1.336 . S
C2065 C523 1.264 1_545 S
