# Generated by pormake.
# Topology ptr, (4,4)-cn, num edge types: 1
# Building blocks:
#     Node 0, Type 0, BuildingBlock: AZAVOO_clean_sbu_0, # of connection points: 4
#     Node 1, Type 0, BuildingBlock: AZAVOO_clean_sbu_0, # of connection points: 4
#     Node 2, Type 0, BuildingBlock: AZAVOO_clean_sbu_0, # of connection points: 4
#     Node 3, Type 0, BuildingBlock: AZAVOO_clean_sbu_0, # of connection points: 4
#     Node 4, Type 0, BuildingBlock: AZAVOO_clean_sbu_0, # of connection points: 4
#     Node 5, Type 0, BuildingBlock: AZAVOO_clean_sbu_0, # of connection points: 4
#     Node 6, Type 0, BuildingBlock: AZAVOO_clean_sbu_0, # of connection points: 4
#     Node 7, Type 0, BuildingBlock: AZAVOO_clean_sbu_0, # of connection points: 4
#     Node 8, Type 0, BuildingBlock: AZAVOO_clean_sbu_0, # of connection points: 4
#     Node 9, Type 0, BuildingBlock: AZAVOO_clean_sbu_0, # of connection points: 4
#     Node 10, Type 0, BuildingBlock: AZAVOO_clean_sbu_0, # of connection points: 4
#     Node 11, Type 0, BuildingBlock: AZAVOO_clean_sbu_0, # of connection points: 4
#     Node 12, Type 0, BuildingBlock: AZAVOO_clean_sbu_0, # of connection points: 4
#     Node 13, Type 0, BuildingBlock: AZAVOO_clean_sbu_0, # of connection points: 4
#     Node 14, Type 0, BuildingBlock: AZAVOO_clean_sbu_0, # of connection points: 4
#     Node 15, Type 0, BuildingBlock: AZAVOO_clean_sbu_0, # of connection points: 4
#     Node 16, Type 0, BuildingBlock: AZAVOO_clean_sbu_0, # of connection points: 4
#     Node 17, Type 0, BuildingBlock: AZAVOO_clean_sbu_0, # of connection points: 4
#     Node 18, Type 1, BuildingBlock: NAWXER_clean_linker_0, # of connection points: 4
#     Node 19, Type 1, BuildingBlock: NAWXER_clean_linker_0, # of connection points: 4
#     Node 20, Type 1, BuildingBlock: NAWXER_clean_linker_0, # of connection points: 4
#     Node 21, Type 1, BuildingBlock: NAWXER_clean_linker_0, # of connection points: 4
#     Node 22, Type 1, BuildingBlock: NAWXER_clean_linker_0, # of connection points: 4
#     Node 23, Type 1, BuildingBlock: NAWXER_clean_linker_0, # of connection points: 4
#     Node 24, Type 1, BuildingBlock: NAWXER_clean_linker_0, # of connection points: 4
#     Node 25, Type 1, BuildingBlock: NAWXER_clean_linker_0, # of connection points: 4
#     Node 26, Type 1, BuildingBlock: NAWXER_clean_linker_0, # of connection points: 4
#     Node 27, Type 1, BuildingBlock: NAWXER_clean_linker_0, # of connection points: 4
#     Node 28, Type 1, BuildingBlock: NAWXER_clean_linker_0, # of connection points: 4
#     Node 29, Type 1, BuildingBlock: NAWXER_clean_linker_0, # of connection points: 4
#     Node 30, Type 1, BuildingBlock: NAWXER_clean_linker_0, # of connection points: 4
#     Node 31, Type 1, BuildingBlock: NAWXER_clean_linker_0, # of connection points: 4
#     Node 32, Type 1, BuildingBlock: NAWXER_clean_linker_0, # of connection points: 4
#     Node 33, Type 1, BuildingBlock: NAWXER_clean_linker_0, # of connection points: 4
#     Node 34, Type 1, BuildingBlock: NAWXER_clean_linker_0, # of connection points: 4
#     Node 35, Type 1, BuildingBlock: NAWXER_clean_linker_0, # of connection points: 4
#     Edge 36, Type (0, 1), BuildingBlock: TEMPAE_clean_linker_10, # of connection points: 2
#     Edge 37, Type (0, 1), BuildingBlock: TEMPAE_clean_linker_10, # of connection points: 2
#     Edge 38, Type (0, 1), BuildingBlock: TEMPAE_clean_linker_10, # of connection points: 2
#     Edge 39, Type (0, 1), BuildingBlock: TEMPAE_clean_linker_10, # of connection points: 2
#     Edge 40, Type (0, 1), BuildingBlock: TEMPAE_clean_linker_10, # of connection points: 2
#     Edge 41, Type (0, 1), BuildingBlock: TEMPAE_clean_linker_10, # of connection points: 2
#     Edge 42, Type (0, 1), BuildingBlock: TEMPAE_clean_linker_10, # of connection points: 2
#     Edge 43, Type (0, 1), BuildingBlock: TEMPAE_clean_linker_10, # of connection points: 2
#     Edge 44, Type (0, 1), BuildingBlock: TEMPAE_clean_linker_10, # of connection points: 2
#     Edge 45, Type (0, 1), BuildingBlock: TEMPAE_clean_linker_10, # of connection points: 2
#     Edge 46, Type (0, 1), BuildingBlock: TEMPAE_clean_linker_10, # of connection points: 2
#     Edge 47, Type (0, 1), BuildingBlock: TEMPAE_clean_linker_10, # of connection points: 2
#     Edge 48, Type (0, 1), BuildingBlock: TEMPAE_clean_linker_10, # of connection points: 2
#     Edge 49, Type (0, 1), BuildingBlock: TEMPAE_clean_linker_10, # of connection points: 2
#     Edge 50, Type (0, 1), BuildingBlock: TEMPAE_clean_linker_10, # of connection points: 2
#     Edge 51, Type (0, 1), BuildingBlock: TEMPAE_clean_linker_10, # of connection points: 2
#     Edge 52, Type (0, 1), BuildingBlock: TEMPAE_clean_linker_10, # of connection points: 2
#     Edge 53, Type (0, 1), BuildingBlock: TEMPAE_clean_linker_10, # of connection points: 2
#     Edge 54, Type (0, 1), BuildingBlock: TEMPAE_clean_linker_10, # of connection points: 2
#     Edge 55, Type (0, 1), BuildingBlock: TEMPAE_clean_linker_10, # of connection points: 2
#     Edge 56, Type (0, 1), BuildingBlock: TEMPAE_clean_linker_10, # of connection points: 2
#     Edge 57, Type (0, 1), BuildingBlock: TEMPAE_clean_linker_10, # of connection points: 2
#     Edge 58, Type (0, 1), BuildingBlock: TEMPAE_clean_linker_10, # of connection points: 2
#     Edge 59, Type (0, 1), BuildingBlock: TEMPAE_clean_linker_10, # of connection points: 2
#     Edge 60, Type (0, 1), BuildingBlock: TEMPAE_clean_linker_10, # of connection points: 2
#     Edge 61, Type (0, 1), BuildingBlock: TEMPAE_clean_linker_10, # of connection points: 2
#     Edge 62, Type (0, 1), BuildingBlock: TEMPAE_clean_linker_10, # of connection points: 2
#     Edge 63, Type (0, 1), BuildingBlock: TEMPAE_clean_linker_10, # of connection points: 2
#     Edge 64, Type (0, 1), BuildingBlock: TEMPAE_clean_linker_10, # of connection points: 2
#     Edge 65, Type (0, 1), BuildingBlock: TEMPAE_clean_linker_10, # of connection points: 2
#     Edge 66, Type (0, 1), BuildingBlock: TEMPAE_clean_linker_10, # of connection points: 2
#     Edge 67, Type (0, 1), BuildingBlock: TEMPAE_clean_linker_10, # of connection points: 2
#     Edge 68, Type (0, 1), BuildingBlock: TEMPAE_clean_linker_10, # of connection points: 2
#     Edge 69, Type (0, 1), BuildingBlock: TEMPAE_clean_linker_10, # of connection points: 2
#     Edge 70, Type (0, 1), BuildingBlock: TEMPAE_clean_linker_10, # of connection points: 2
#     Edge 71, Type (0, 1), BuildingBlock: TEMPAE_clean_linker_10, # of connection points: 2
#     Edge 72, Type (0, 1), BuildingBlock: TEMPAE_clean_linker_10, # of connection points: 2
#     Edge 73, Type (0, 1), BuildingBlock: TEMPAE_clean_linker_10, # of connection points: 2
#     Edge 74, Type (0, 1), BuildingBlock: TEMPAE_clean_linker_10, # of connection points: 2
#     Edge 75, Type (0, 1), BuildingBlock: TEMPAE_clean_linker_10, # of connection points: 2
#     Edge 76, Type (0, 1), BuildingBlock: TEMPAE_clean_linker_10, # of connection points: 2
#     Edge 77, Type (0, 1), BuildingBlock: TEMPAE_clean_linker_10, # of connection points: 2
#     Edge 78, Type (0, 1), BuildingBlock: TEMPAE_clean_linker_10, # of connection points: 2
#     Edge 79, Type (0, 1), BuildingBlock: TEMPAE_clean_linker_10, # of connection points: 2
#     Edge 80, Type (0, 1), BuildingBlock: TEMPAE_clean_linker_10, # of connection points: 2
#     Edge 81, Type (0, 1), BuildingBlock: TEMPAE_clean_linker_10, # of connection points: 2
#     Edge 82, Type (0, 1), BuildingBlock: TEMPAE_clean_linker_10, # of connection points: 2
#     Edge 83, Type (0, 1), BuildingBlock: TEMPAE_clean_linker_10, # of connection points: 2
#     Edge 84, Type (0, 1), BuildingBlock: TEMPAE_clean_linker_10, # of connection points: 2
#     Edge 85, Type (0, 1), BuildingBlock: TEMPAE_clean_linker_10, # of connection points: 2
#     Edge 86, Type (0, 1), BuildingBlock: TEMPAE_clean_linker_10, # of connection points: 2
#     Edge 87, Type (0, 1), BuildingBlock: TEMPAE_clean_linker_10, # of connection points: 2
#     Edge 88, Type (0, 1), BuildingBlock: TEMPAE_clean_linker_10, # of connection points: 2
#     Edge 89, Type (0, 1), BuildingBlock: TEMPAE_clean_linker_10, # of connection points: 2
#     Edge 90, Type (0, 1), BuildingBlock: TEMPAE_clean_linker_10, # of connection points: 2
#     Edge 91, Type (0, 1), BuildingBlock: TEMPAE_clean_linker_10, # of connection points: 2
#     Edge 92, Type (0, 1), BuildingBlock: TEMPAE_clean_linker_10, # of connection points: 2
#     Edge 93, Type (0, 1), BuildingBlock: TEMPAE_clean_linker_10, # of connection points: 2
#     Edge 94, Type (0, 1), BuildingBlock: TEMPAE_clean_linker_10, # of connection points: 2
#     Edge 95, Type (0, 1), BuildingBlock: TEMPAE_clean_linker_10, # of connection points: 2
#     Edge 96, Type (0, 1), BuildingBlock: TEMPAE_clean_linker_10, # of connection points: 2
#     Edge 97, Type (0, 1), BuildingBlock: TEMPAE_clean_linker_10, # of connection points: 2
#     Edge 98, Type (0, 1), BuildingBlock: TEMPAE_clean_linker_10, # of connection points: 2
#     Edge 99, Type (0, 1), BuildingBlock: TEMPAE_clean_linker_10, # of connection points: 2
#     Edge 100, Type (0, 1), BuildingBlock: TEMPAE_clean_linker_10, # of connection points: 2
#     Edge 101, Type (0, 1), BuildingBlock: TEMPAE_clean_linker_10, # of connection points: 2
#     Edge 102, Type (0, 1), BuildingBlock: TEMPAE_clean_linker_10, # of connection points: 2
#     Edge 103, Type (0, 1), BuildingBlock: TEMPAE_clean_linker_10, # of connection points: 2
#     Edge 104, Type (0, 1), BuildingBlock: TEMPAE_clean_linker_10, # of connection points: 2
#     Edge 105, Type (0, 1), BuildingBlock: TEMPAE_clean_linker_10, # of connection points: 2
#     Edge 106, Type (0, 1), BuildingBlock: TEMPAE_clean_linker_10, # of connection points: 2
#     Edge 107, Type (0, 1), BuildingBlock: TEMPAE_clean_linker_10, # of connection points: 2
# Relax obj value: 0.082
# Max RMSD: 0.298
# Mean RMSD: 0.121
data_MOF--net-ptr--node1-AZAVOO_clean_sbu_0--node2-NAWXER_clean_linker_0--edge1-TEMPAE_clean_linker_10
_symmetry_space_group_name_H-M    P1
_symmetry_Int_Tables_number       1
_symmetry_cell_setting            triclinic
loop_
_symmetry_equiv_pos_as_xyz
'x, y, z'
_cell_length_a     88.843927
_cell_length_b     87.250854
_cell_length_c     62.423047
_cell_angle_alpha  91.133243
_cell_angle_beta   90.855733
_cell_angle_gamma 120.09367
loop_
_atom_site_label
_atom_site_type_symbol
_atom_site_fract_x
_atom_site_fract_y
_atom_site_fract_z
_atom_type_partial_charge
Mg0 Mg 0.01772 0.33278 0.97776 0.0
O1 O 0.00413 0.34146 0.00243 0.0
O2 O 0.98521 0.34636 0.98405 0.0
Mg3 Mg 0.98721 0.34198 0.94837 0.0
C4 C 0.99242 0.34587 0.00167 0.0
C5 C 0.03962 0.33345 0.01777 0.0
O6 O 0.0449 0.35041 0.0164 0.0
O7 O 0.99333 0.30542 0.97231 0.0
O8 O 0.97637 0.31236 0.95299 0.0
O9 O 0.03817 0.3612 0.97463 0.0
O10 O 0.01407 0.34777 0.95461 0.0
C11 C 0.97925 0.30092 0.96167 0.0
C12 C 0.0281 0.36222 0.96024 0.0
O13 O 0.02802 0.32253 0.00446 0.0
Mg14 Mg 0.66732 0.65743 0.03918 0.0
O15 O 0.64367 0.65028 0.01702 0.0
O16 O 0.621 0.64353 0.03768 0.0
Mg17 Mg 0.63028 0.64726 0.07278 0.0
C18 C 0.6276 0.64525 0.01923 0.0
C19 C 0.68433 0.65857 0.99535 0.0
O20 O 0.67208 0.6418 0.99484 0.0
O21 O 0.67065 0.68444 0.04761 0.0
O22 O 0.64825 0.67726 0.06901 0.0
O23 O 0.65942 0.62872 0.04004 0.0
O24 O 0.65127 0.64237 0.06331 0.0
C25 C 0.66191 0.68881 0.05979 0.0
C26 C 0.65033 0.62792 0.05645 0.0
O27 O 0.68535 0.66848 0.01116 0.0
Mg28 Mg 0.32587 0.97087 0.98576 0.0
O29 O 0.35093 0.98808 0.00583 0.0
O30 O 0.3729 0.00195 0.98359 0.0
Mg31 Mg 0.36151 0.99481 0.9493 0.0
C32 C 0.36708 0.99834 0.00251 0.0
C33 C 0.294 0.9615 0.01258 0.0
O34 O 0.28757 0.959 0.99289 0.0
O35 O 0.32361 0.99486 0.97726 0.0
O36 O 0.34543 0.00849 0.95465 0.0
O37 O 0.3326 0.94937 0.98504 0.0
O38 O 0.34001 0.9697 0.96045 0.0
C39 C 0.33251 0.00743 0.96467 0.0
C40 C 0.34096 0.95656 0.96786 0.0
O41 O 0.31004 0.96666 0.01542 0.0
Mg42 Mg 0.98542 0.66687 0.0362 0.0
O43 O 0.00197 0.6588 0.01578 0.0
O44 O 0.01563 0.65028 0.03888 0.0
Mg45 Mg 0.00935 0.65414 0.07327 0.0
C46 C 0.01194 0.65247 0.01973 0.0
C47 C 0.96987 0.66955 0.99188 0.0
O48 O 0.96462 0.65253 0.99146 0.0
O49 O 0.00931 0.69348 0.04672 0.0
O50 O 0.02199 0.68429 0.07034 0.0
O51 O 0.96442 0.63823 0.03482 0.0
O52 O 0.98465 0.65045 0.06056 0.0
C53 C 0.02123 0.69672 0.06078 0.0
C54 C 0.97188 0.6364 0.05177 0.0
O55 O 0.97954 0.67921 0.00752 0.0
Mg56 Mg 0.33492 0.35316 0.9726 0.0
O57 O 0.35823 0.36024 0.99526 0.0
O58 O 0.38097 0.36639 0.97491 0.0
Mg59 Mg 0.37246 0.36383 0.93952 0.0
C60 C 0.37422 0.36477 0.99326 0.0
C61 C 0.31572 0.35198 0.01421 0.0
O62 O 0.32628 0.36914 0.01292 0.0
O63 O 0.33218 0.3263 0.96438 0.0
O64 O 0.35389 0.33389 0.94169 0.0
O65 O 0.34192 0.38166 0.97188 0.0
O66 O 0.35189 0.36917 0.94947 0.0
C67 C 0.34051 0.3222 0.95115 0.0
C68 C 0.35208 0.38326 0.9564 0.0
O69 O 0.31634 0.34162 1.00012 0.0
Mg70 Mg 0.67296 0.0189 0.04148 0.0
O71 O 0.64848 0.00272 0.02037 0.0
O72 O 0.62552 0.9894 0.04128 0.0
Mg73 Mg 0.63564 0.99604 0.07618 0.0
C74 C 0.63215 0.99294 0.02277 0.0
C75 C 0.68728 0.02948 0.99562 0.0
O76 O 0.67511 0.03383 0.99517 0.0
O77 O 0.67344 0.99389 0.05026 0.0
O78 O 0.6512 0.98171 0.07252 0.0
O79 O 0.66742 0.04142 0.04204 0.0
O80 O 0.65835 0.02055 0.06601 0.0
C81 C 0.66395 0.98182 0.06317 0.0
C82 C 0.65839 0.03424 0.0588 0.0
O83 O 0.68952 0.02279 0.01243 0.0
Mg84 Mg 0.68581 0.66853 0.32215 0.0
O85 O 0.6704 0.67785 0.34302 0.0
O86 O 0.65634 0.68612 0.32021 0.0
Mg87 Mg 0.66135 0.68102 0.28577 0.0
C88 C 0.66052 0.68432 0.33928 0.0
C89 C 0.70557 0.65506 0.3474 0.0
O90 O 0.71298 0.65965 0.32874 0.0
O91 O 0.66125 0.64212 0.31336 0.0
O92 O 0.64766 0.65095 0.29062 0.0
O93 O 0.70745 0.69669 0.322 0.0
O94 O 0.68625 0.68437 0.29736 0.0
C95 C 0.64855 0.63872 0.30049 0.0
C96 C 0.69971 0.69835 0.3052 0.0
O97 O 0.69245 0.65687 0.35082 0.0
Mg98 Mg 0.33678 0.99326 0.37835 0.0
O99 O 0.31252 0.98603 0.35733 0.0
O100 O 0.29058 0.98004 0.379 0.0
Mg101 Mg 0.30118 0.98515 0.41362 0.0
C102 C 0.29656 0.98117 0.36027 0.0
C103 C 0.36775 0.00203 0.35066 0.0
O104 O 0.37172 0.99757 0.36898 0.0
O105 O 0.34129 0.021 0.38572 0.0
O106 O 0.31946 0.01477 0.40775 0.0
O107 O 0.32796 0.96443 0.38014 0.0
O108 O 0.32144 0.9793 0.40374 0.0
C109 C 0.33293 0.0259 0.39788 0.0
C110 C 0.31963 0.96443 0.39699 0.0
O111 O 0.35354 0.00213 0.34893 0.0
Mg112 Mg 0.0018 0.31601 0.31725 0.0
O113 O 0.02547 0.33071 0.34028 0.0
O114 O 0.04924 0.34482 0.32082 0.0
Mg115 Mg 0.04059 0.34012 0.28538 0.0
C116 C 0.04194 0.34044 0.33889 0.0
C117 C 0.96789 0.30479 0.34068 0.0
O118 O 0.96264 0.30232 0.32047 0.0
O119 O 0.0021 0.34156 0.30974 0.0
O120 O 0.02553 0.35503 0.28943 0.0
O121 O 0.00645 0.29299 0.31535 0.0
O122 O 0.01708 0.31522 0.29309 0.0
C123 C 0.01235 0.35444 0.29825 0.0
C124 C 0.01598 0.30072 0.29912 0.0
O125 O 0.98392 0.31079 0.34509 0.0
Mg126 Mg 0.65096 0.99234 0.36736 0.0
O127 O 0.66632 0.98393 0.34497 0.0
O128 O 0.68381 0.97901 0.36638 0.0
Mg129 Mg 0.68086 0.98508 0.40117 0.0
C130 C 0.6777 0.9792 0.34779 0.0
C131 C 0.62596 -6e-05 0.34169 0.0
O132 O 0.61836 0.99426 0.36006 0.0
O133 O 0.67473 0.02023 0.37274 0.0
O134 O 0.69157 0.01431 0.39388 0.0
O135 O 0.63078 0.96376 0.37089 0.0
O136 O 0.65419 0.97815 0.39198 0.0
C137 C 0.6887 0.02526 0.38389 0.0
C138 C 0.64055 0.96339 0.3862 0.0
O139 O 0.64068 0.00113 0.339 0.0
Mg140 Mg 0.00318 0.67082 0.31445 0.0
O141 O 0.02516 0.67994 0.3399 0.0
O142 O 0.04963 0.68654 0.32313 0.0
Mg143 Mg 0.04359 0.68306 0.28706 0.0
C144 C 0.04139 0.6851 0.34024 0.0
C145 C 0.96818 0.65672 0.33675 0.0
O146 O 0.96448 0.66039 0.31775 0.0
O147 O 0.00231 0.64456 0.30844 0.0
O148 O 0.02636 0.65296 0.28983 0.0
O149 O 0.00879 0.69859 0.31191 0.0
O150 O 0.02104 0.6868 0.29208 0.0
C151 C 0.01235 0.64091 0.29785 0.0
C152 C 0.01993 0.70052 0.29753 0.0
O153 O 0.98335 0.65926 0.34056 0.0
Mg154 Mg 0.33333 0.34789 0.36763 0.0
O155 O 0.31086 0.3331 0.34298 0.0
O156 O 0.28698 0.31498 0.36059 0.0
Mg157 Mg 0.29417 0.31778 0.39623 0.0
C158 C 0.29469 0.32156 0.34321 0.0
C159 C 0.35253 0.36765 0.32698 0.0
O160 O 0.34154 0.37348 0.32894 0.0
O161 O 0.33575 0.32341 0.37204 0.0
O162 O 0.31215 0.30636 0.3908 0.0
O163 O 0.32621 0.36895 0.37226 0.0
O164 O 0.31587 0.34487 0.39133 0.0
C165 C 0.32622 0.30926 0.38205 0.0
C166 C 0.3159 0.35925 0.38697 0.0
O167 O 0.35239 0.35688 0.34049 0.0
Mg168 Mg 0.35097 0.00556 0.66059 0.0
O169 O 0.33806 0.01497 0.68547 0.0
O170 O 0.31886 0.01963 0.66736 0.0
Mg171 Mg 0.32017 0.01465 0.63168 0.0
C172 C 0.32637 0.01942 0.68485 0.0
C173 C 0.37367 0.00693 0.70005 0.0
O174 O 0.37866 0.02381 0.69846 0.0
O175 O 0.32631 0.97826 0.65613 0.0
O176 O 0.30906 0.98507 0.63715 0.0
O177 O 0.37159 0.03374 0.65627 0.0
O178 O 0.34702 0.02016 0.63718 0.0
C179 C 0.31201 0.97372 0.64597 0.0
C180 C 0.36135 0.03457 0.64197 0.0
O181 O 0.36185 0.99575 0.68715 0.0
Mg182 Mg 0.99785 0.32383 0.70951 0.0
O183 O 0.97552 0.3169 0.6853 0.0
O184 O 0.95178 0.31099 0.70335 0.0
Mg185 Mg 0.95896 0.31373 0.7392 0.0
C186 C 0.95949 0.31248 0.68576 0.0
C187 C 0.0331 0.34068 0.68703 0.0
O188 O 0.03802 0.34117 0.70712 0.0
O189 O 0.00112 0.35103 0.71735 0.0
O190 O 0.97763 0.34375 0.73669 0.0
O191 O 0.98971 0.29519 0.71013 0.0
O192 O 0.98016 0.30831 0.7323 0.0
C193 C 0.99186 0.35536 0.7286 0.0
C194 C 0.97951 0.29396 0.72543 0.0
O195 O 0.01706 0.33458 0.68258 0.0
Mg196 Mg 0.67443 0.64418 0.65443 0.0
O197 O 0.69837 0.66292 0.67532 0.0
O198 O 0.72098 0.67667 0.65389 0.0
Mg199 Mg 0.71169 0.66606 0.61942 0.0
C200 C 0.71444 0.67392 0.67248 0.0
C201 C 0.64071 0.63513 0.67753 0.0
O202 O 0.63512 0.63133 0.65745 0.0
O203 O 0.67262 0.66752 0.64158 0.0
O204 O 0.69408 0.67825 0.6181 0.0
O205 O 0.6804 0.6222 0.65809 0.0
O206 O 0.69048 0.64187 0.63258 0.0
C207 C 0.68106 0.67809 0.62675 0.0
C208 C 0.69036 0.6288 0.64189 0.0
O209 O 0.65676 0.64118 0.68181 0.0
Mg210 Mg 0.32369 0.3341 0.70426 0.0
O211 O 0.33919 0.32649 0.681 0.0
O212 O 0.3581 0.32312 0.70161 0.0
Mg213 Mg 0.35573 0.3292 0.73668 0.0
C214 C 0.35122 0.32259 0.68329 0.0
C215 C 0.30014 0.34549 0.6818 0.0
O216 O 0.29577 0.34427 0.70198 0.0
O217 O 0.34655 0.3625 0.70896 0.0
O218 O 0.36459 0.35823 0.72992 0.0
O219 O 0.30466 0.30525 0.70843 0.0
O220 O 0.3285 0.32076 0.72854 0.0
C221 C 0.36068 0.3685 0.72008 0.0
C222 C 0.31517 0.30561 0.72326 0.0
O223 O 0.31208 0.34221 0.67669 0.0
Mg224 Mg 0.66383 0.00747 0.64317 0.0
O225 O 0.68817 0.01476 0.6639 0.0
O226 O 0.7101 0.02059 0.64235 0.0
Mg227 Mg 0.69935 0.01572 0.60776 0.0
C228 C 0.7041 0.01949 0.66106 0.0
C229 C 0.63175 0.9948 0.67065 0.0
O230 O 0.62586 0.99568 0.65154 0.0
O231 O 0.65944 0.97983 0.63572 0.0
O232 O 0.68114 0.98606 0.61348 0.0
O233 O 0.67249 0.03622 0.64164 0.0
O234 O 0.67906 0.02152 0.6178 0.0
C235 C 0.66772 0.97493 0.62343 0.0
C236 C 0.68084 0.03633 0.62475 0.0
O237 O 0.64745 0.99847 0.6728 0.0
Mg238 Mg 0.99762 0.68539 0.70494 0.0
O239 O 0.9734 0.66935 0.68314 0.0
O240 O 0.95031 0.65624 0.70392 0.0
Mg241 Mg 0.95971 0.66394 0.73895 0.0
C242 C 0.95704 0.65944 0.68544 0.0
C243 C 0.03121 0.69568 0.68164 0.0
O244 O 0.03643 0.69921 0.70187 0.0
O245 O 0.99719 0.66013 0.71493 0.0
O246 O 0.97496 0.6492 0.7373 0.0
O247 O 0.9933 0.70872 0.70455 0.0
O248 O 0.98285 0.68783 0.7285 0.0
C249 C 0.98757 0.64868 0.7284 0.0
C250 C 0.98395 0.70199 0.72121 0.0
O251 O 0.01511 0.68905 0.67706 0.0
C252 C 0.21813 0.3174 0.1341 0.0
C253 C 0.21614 0.30754 0.11514 0.0
C254 C 0.20388 0.31302 0.14695 0.0
C255 C 0.18748 0.29841 0.14138 0.0
C256 C 0.19967 0.29309 0.1094 0.0
C257 C 0.18546 0.28859 0.1224 0.0
C258 C 0.17213 0.29404 0.15437 0.0
C259 C 0.21081 0.28958 0.19849 0.0
C260 C 0.21541 0.30064 0.21704 0.0
C261 C 0.19672 0.28678 0.18523 0.0
C262 C 0.18716 0.29518 0.19016 0.0
C263 C 0.20553 0.30868 0.22204 0.0
C264 C 0.19164 0.306 0.20878 0.0
C265 C 0.17205 0.29256 0.17685 0.0
C266 C 0.09833 0.27425 0.19844 0.0
C267 C 0.1026 0.28308 0.21866 0.0
C268 C 0.1114 0.27562 0.185 0.0
C269 C 0.12903 0.28635 0.19122 0.0
C270 C 0.12021 0.29289 0.22528 0.0
C271 C 0.13322 0.29463 0.21168 0.0
C272 C 0.14341 0.28865 0.17735 0.0
C273 C 0.11343 0.30699 0.13645 0.0
C274 C 0.10712 0.29786 0.11659 0.0
C275 C 0.12503 0.30441 0.14914 0.0
C276 C 0.13027 0.29235 0.14246 0.0
C277 C 0.1124 0.28583 0.10993 0.0
C278 C 0.1239 0.28315 0.1227 0.0
C279 C 0.14366 0.29061 0.15488 0.0
H280 H 0.2306 0.32882 0.13865 0.0
H281 H 0.20564 0.32125 0.16105 0.0
H282 H 0.19779 0.28528 0.09486 0.0
H283 H 0.17287 0.27744 0.11763 0.0
H284 H 0.21812 0.28315 0.19421 0.0
H285 H 0.19326 0.278 0.17124 0.0
H286 H 0.20833 0.31686 0.23648 0.0
H287 H 0.18438 0.31249 0.2131 0.0
H288 H 0.08492 0.26657 0.19275 0.0
H289 H 0.10768 0.26838 0.16976 0.0
H290 H 0.12404 0.2994 0.24097 0.0
H291 H 0.14666 0.3027 0.21718 0.0
H292 H 0.10989 0.31661 0.14183 0.0
H293 H 0.13024 0.31219 0.16391 0.0
H294 H 0.1077 0.27855 0.09476 0.0
H295 H 0.12794 0.27399 0.11706 0.0
N296 N 0.15791 0.29292 0.14429 0.0
N297 N 0.15767 0.28982 0.18728 0.0
C298 C 0.69086 0.89498 0.1488 0.0
C299 C 0.7035 0.90661 0.13485 0.0
C300 C 0.69481 0.88535 0.16315 0.0
C301 C 0.71139 0.88711 0.16354 0.0
C302 C 0.72015 0.90853 0.13544 0.0
C303 C 0.72399 0.8986 0.14949 0.0
C304 C 0.71504 0.87581 0.17727 0.0
C305 C 0.71583 0.9189 0.2188 0.0
C306 C 0.70439 0.91272 0.236 0.0
C307 C 0.71962 0.90742 0.20717 0.0
C308 C 0.71177 0.88942 0.21221 0.0
C309 C 0.69703 0.89483 0.24138 0.0
C310 C 0.70064 0.88336 0.22962 0.0
C311 C 0.71502 0.87667 0.19987 0.0
C312 C 0.73026 0.81761 0.22141 0.0
C313 C 0.72022 0.81164 0.23988 0.0
C314 C 0.73036 0.83098 0.20932 0.0
C315 C 0.71988 0.83821 0.2149 0.0
C316 C 0.71084 0.81993 0.24631 0.0
C317 C 0.71059 0.83295 0.23391 0.0
C318 C 0.71831 0.85109 0.20113 0.0
C319 C 0.69896 0.80238 0.1582 0.0
C320 C 0.70779 0.80474 0.13898 0.0
C321 C 0.70237 0.81695 0.17135 0.0
C322 C 0.71504 0.83415 0.16584 0.0
C323 C 0.72038 0.82192 0.13337 0.0
C324 C 0.72397 0.8365 0.1467 0.0
C325 C 0.71738 0.84978 0.17843 0.0
H326 H 0.67797 0.89343 0.14867 0.0
H327 H 0.68487 0.87631 0.17368 0.0
H328 H 0.73005 0.91746 0.12478 0.0
H329 H 0.73677 0.8999 0.14944 0.0
H330 H 0.72178 0.93259 0.21421 0.0
H331 H 0.72878 0.91269 0.19438 0.0
H332 H 0.68858 0.88967 0.25489 0.0
H333 H 0.69456 0.86961 0.23406 0.0
H334 H 0.73765 0.81162 0.2158 0.0
H335 H 0.73832 0.83532 0.19531 0.0
H336 H 0.70344 0.81621 0.26081 0.0
H337 H 0.7027 0.83857 0.23894 0.0
H338 H 0.68893 0.78931 0.16267 0.0
H339 H 0.69472 0.81479 0.18548 0.0
H340 H 0.72735 0.82408 0.11862 0.0
H341 H 0.73354 0.84967 0.14191 0.0
N342 N 0.71613 0.8624 0.16749 0.0
N343 N 0.71684 0.86435 0.21088 0.0
C344 C 0.11638 0.8146 0.14092 0.0
C345 C 0.10398 0.81598 0.12817 0.0
C346 C 0.12782 0.82864 0.15461 0.0
C347 C 0.12723 0.8444 0.15561 0.0
C348 C 0.10328 0.83173 0.12929 0.0
C349 C 0.11502 0.84596 0.14272 0.0
C350 C 0.13983 0.85925 0.16973 0.0
C351 C 0.09577 0.8232 0.2115 0.0
C352 C 0.10057 0.81422 0.22614 0.0
C353 C 0.10845 0.83738 0.20023 0.0
C354 C 0.12613 0.84285 0.20347 0.0
C355 C 0.11832 0.81978 0.22922 0.0
C356 C 0.13095 0.83403 0.21816 0.0
C357 C 0.13981 0.85802 0.19218 0.0
C358 C 0.205 0.92643 0.2215 0.0
C359 C 0.20968 0.91933 0.23874 0.0
C360 C 0.1913 0.91531 0.20723 0.0
C361 C 0.1822 0.89685 0.20968 0.0
C362 C 0.20025 0.9009 0.24136 0.0
C363 C 0.18676 0.88985 0.22702 0.0
C364 C 0.16749 0.88456 0.19507 0.0
C365 C 0.21278 0.90886 0.15067 0.0
C366 C 0.21087 0.91815 0.13371 0.0
C367 C 0.19892 0.89897 0.16399 0.0
C368 C 0.18294 0.89833 0.1607 0.0
C369 C 0.19507 0.91798 0.13089 0.0
C370 C 0.18116 0.90802 0.14418 0.0
C371 C 0.16753 0.88577 0.17249 0.0
H372 H 0.11706 0.80254 0.14049 0.0
H373 H 0.13725 0.82725 0.16434 0.0
H374 H 0.09382 0.83307 0.1196 0.0
H375 H 0.11447 0.85808 0.14323 0.0
H376 H 0.08225 0.81942 0.20895 0.0
H377 H 0.10448 0.84425 0.18926 0.0
H378 H 0.12249 0.81295 0.23998 0.0
H379 H 0.14452 0.83802 0.22084 0.0
H380 H 0.21197 0.94055 0.21897 0.0
H381 H 0.18775 0.9212 0.19443 0.0
H382 H 0.2031 0.89495 0.25473 0.0
H383 H 0.17988 0.87571 0.22951 0.0
H384 H 0.22485 0.9088 0.15321 0.0
H385 H 0.20046 0.89122 0.17627 0.0
H386 H 0.19316 0.92483 0.11777 0.0
H387 H 0.16885 0.90746 0.14119 0.0
N388 N 0.15367 0.87309 0.16071 0.0
N389 N 0.15359 0.87067 0.20394 0.0
C390 C 0.31385 0.09696 0.81448 0.0
C391 C 0.30457 0.09052 0.7949 0.0
C392 C 0.31162 0.10891 0.82738 0.0
C393 C 0.29956 0.11414 0.82133 0.0
C394 C 0.29279 0.09598 0.78861 0.0
C395 C 0.29027 0.10763 0.80173 0.0
C396 C 0.29759 0.12746 0.8343 0.0
C397 C 0.28594 0.08296 0.87908 0.0
C398 C 0.29824 0.08827 0.89616 0.0
C399 C 0.28526 0.09559 0.86626 0.0
C400 C 0.29694 0.11371 0.87025 0.0
C401 C 0.3096 0.10646 0.90034 0.0
C402 C 0.30887 0.11902 0.88762 0.0
C403 C 0.29682 0.12744 0.85691 0.0
C404 C 0.29099 0.19292 0.87715 0.0
C405 C 0.30192 0.19878 0.89569 0.0
C406 C 0.28863 0.17818 0.86502 0.0
C407 C 0.2978 0.16951 0.87055 0.0
C408 C 0.30978 0.18902 0.90218 0.0
C409 C 0.30789 0.17472 0.88966 0.0
C410 C 0.29708 0.15495 0.85701 0.0
C411 C 0.31384 0.20138 0.81477 0.0
C412 C 0.30197 0.19816 0.79778 0.0
C413 C 0.31283 0.18734 0.8263 0.0
C414 C 0.2996 0.16986 0.82145 0.0
C415 C 0.28929 0.18058 0.79224 0.0
C416 C 0.28813 0.16655 0.80398 0.0
C417 C 0.29775 0.15498 0.83435 0.0
H418 H 0.32327 0.0932 0.81944 0.0
H419 H 0.31967 0.11437 0.84181 0.0
H420 H 0.28554 0.09123 0.7735 0.0
H421 H 0.28113 0.11166 0.79649 0.0
H422 H 0.27684 0.06905 0.87562 0.0
H423 H 0.27568 0.09122 0.85323 0.0
H424 H 0.31944 0.11103 0.91308 0.0
H425 H 0.31795 0.13295 0.89104 0.0
H426 H 0.28466 0.19998 0.87153 0.0
H427 H 0.27999 0.17391 0.85103 0.0
H428 H 0.31771 0.19258 0.91676 0.0
H429 H 0.31474 0.16799 0.89473 0.0
H430 H 0.32397 0.21477 0.81909 0.0
H431 H 0.3222 0.19018 0.83924 0.0
H432 H 0.28 0.17773 0.77918 0.0
H433 H 0.278 0.15313 0.79975 0.0
N434 N 0.29782 0.14116 0.82393 0.0
N435 N 0.2967 0.14119 0.86725 0.0
C436 C 0.90034 0.17408 0.87893 0.0
C437 C 0.89563 0.18245 0.89479 0.0
C438 C 0.88759 0.16018 0.86606 0.0
C439 C 0.86988 0.15454 0.86857 0.0
C440 C 0.87788 0.17641 0.89772 0.0
C441 C 0.86516 0.16258 0.88479 0.0
C442 C 0.85612 0.14005 0.85482 0.0
C443 C 0.88386 0.18385 0.80912 0.0
C444 C 0.89491 0.18129 0.79557 0.0
C445 C 0.87193 0.17005 0.82141 0.0
C446 C 0.87075 0.1534 0.82022 0.0
C447 C 0.89389 0.16469 0.7945 0.0
C448 C 0.88166 0.15072 0.80654 0.0
C449 C 0.85735 0.13871 0.83241 0.0
C450 C 0.78572 0.08788 0.80108 0.0
C451 C 0.78871 0.07761 0.78596 0.0
C452 C 0.79866 0.09875 0.8162 0.0
C453 C 0.81483 0.0995 0.81658 0.0
C454 C 0.80475 0.07805 0.7867 0.0
C455 C 0.81775 0.08904 0.80175 0.0
C456 C 0.82931 0.11261 0.83068 0.0
C457 C 0.78935 0.07434 0.87655 0.0
C458 C 0.78292 0.08263 0.89022 0.0
C459 C 0.80374 0.08451 0.8639 0.0
C460 C 0.81182 0.10308 0.86473 0.0
C461 C 0.79081 0.10119 0.89045 0.0
C462 C 0.80516 0.11128 0.87801 0.0
C463 C 0.82778 0.11439 0.85296 0.0
H464 H 0.9139 0.17826 0.87653 0.0
H465 H 0.8916 0.15382 0.85421 0.0
H466 H 0.87383 0.1827 0.90962 0.0
H467 H 0.8516 0.15842 0.88718 0.0
H468 H 0.8845 0.19657 0.81026 0.0
H469 H 0.86342 0.17229 0.83162 0.0
H470 H 0.90229 0.16246 0.78408 0.0
H471 H 0.88078 0.13789 0.80528 0.0
H472 H 0.77346 0.08775 0.80093 0.0
H473 H 0.79625 0.10705 0.82708 0.0
H474 H 0.8075 0.07045 0.77508 0.0
H475 H 0.83022 0.08963 0.80156 0.0
H476 H 0.78362 0.06007 0.87613 0.0
H477 H 0.80882 0.07792 0.85398 0.0
H478 H 0.78594 0.10798 0.9004 0.0
H479 H 0.81113 0.12559 0.87879 0.0
N480 N 0.84129 0.12795 0.86413 0.0
N481 N 0.84403 0.12492 0.82124 0.0
C482 C 0.79593 0.71492 0.89082 0.0
C483 C 0.7886 0.69957 0.90302 0.0
C484 C 0.81096 0.71977 0.87929 0.0
C485 C 0.81885 0.70927 0.87962 0.0
C486 C 0.79663 0.6892 0.90344 0.0
C487 C 0.81165 0.69407 0.89197 0.0
C488 C 0.83469 0.71405 0.86744 0.0
C489 C 0.79318 0.69846 0.81589 0.0
C490 C 0.7962 0.71134 0.80075 0.0
C491 C 0.80598 0.70133 0.83124 0.0
C492 C 0.822 0.71729 0.83205 0.0
C493 C 0.81201 0.72754 0.80199 0.0
C494 C 0.82483 0.73042 0.81741 0.0
C495 C 0.83658 0.71916 0.84587 0.0
C496 C 0.89411 0.71124 0.8147 0.0
C497 C 0.90369 0.72669 0.80308 0.0
C498 C 0.88203 0.71016 0.82946 0.0
C499 C 0.87933 0.72452 0.83287 0.0
C500 C 0.9013 0.74123 0.80686 0.0
C501 C 0.88901 0.74006 0.82148 0.0
C502 C 0.86492 0.72244 0.8462 0.0
C503 C 0.9054 0.72278 0.891 0.0
C504 C 0.89941 0.70725 0.9027 0.0
C505 C 0.89364 0.72606 0.87958 0.0
C506 C 0.87569 0.71375 0.87944 0.0
C507 C 0.88144 0.69507 0.90263 0.0
C508 C 0.86974 0.69832 0.89123 0.0
C509 C 0.86283 0.71675 0.86754 0.0
H510 H 0.79021 0.72335 0.89046 0.0
H511 H 0.81651 0.7318 0.87028 0.0
H512 H 0.79119 0.67718 0.91244 0.0
H513 H 0.8175 0.68576 0.89247 0.0
H514 H 0.78109 0.68589 0.81544 0.0
H515 H 0.80362 0.69069 0.84178 0.0
H516 H 0.8148 0.73764 0.7904 0.0
H517 H 0.83719 0.74271 0.81749 0.0
H518 H 0.89586 0.69991 0.81217 0.0
H519 H 0.87439 0.69789 0.83768 0.0
H520 H 0.90853 0.75325 0.79803 0.0
H521 H 0.88687 0.75116 0.82368 0.0
H522 H 0.91913 0.73255 0.89098 0.0
H523 H 0.89858 0.7383 0.87111 0.0
H524 H 0.87639 0.68286 0.91121 0.0
H525 H 0.85599 0.6886 0.89141 0.0
N526 N 0.84781 0.71289 0.87733 0.0
N527 N 0.85173 0.72338 0.83623 0.0
C528 C 0.7647 0.60624 0.46407 0.0
C529 C 0.77034 0.62188 0.45268 0.0
C530 C 0.77668 0.6034 0.47566 0.0
C531 C 0.79449 0.61623 0.4762 0.0
C532 C 0.78822 0.63443 0.45287 0.0
C533 C 0.80012 0.63161 0.46443 0.0
C534 C 0.80757 0.61399 0.48868 0.0
C535 C 0.77197 0.61647 0.53743 0.0
C536 C 0.76431 0.60198 0.55098 0.0
C537 C 0.78525 0.6187 0.52395 0.0
C538 C 0.79081 0.60621 0.52334 0.0
C539 C 0.77 0.5896 0.55059 0.0
C540 C 0.78315 0.59171 0.53686 0.0
C541 C 0.80576 0.60916 0.51039 0.0
C542 C 0.8783 0.63507 0.54022 0.0
C543 C 0.87546 0.62289 0.55626 0.0
C544 C 0.86529 0.63156 0.52485 0.0
C545 C 0.84921 0.61569 0.525 0.0
C546 C 0.85958 0.60677 0.556 0.0
C547 C 0.84655 0.60326 0.54061 0.0
C548 C 0.83443 0.6132 0.51109 0.0
C549 C 0.8732 0.6142 0.46463 0.0
C550 C 0.87959 0.62823 0.45034 0.0
C551 C 0.85924 0.61078 0.47765 0.0
C552 C 0.85148 0.62138 0.47664 0.0
C553 C 0.87184 0.63884 0.44949 0.0
C554 C 0.8579 0.6354 0.46243 0.0
C555 C 0.83598 0.61735 0.48918 0.0
H556 H 0.75103 0.59629 0.4642 0.0
H557 H 0.77204 0.59123 0.48421 0.0
H558 H 0.79308 0.64641 0.44387 0.0
H559 H 0.81379 0.64163 0.46439 0.0
H560 H 0.76813 0.62646 0.53782 0.0
H561 H 0.79147 0.63045 0.51446 0.0
H562 H 0.76434 0.57837 0.56097 0.0
H563 H 0.78748 0.5821 0.53694 0.0
H564 H 0.89043 0.64757 0.53991 0.0
H565 H 0.86754 0.64167 0.51348 0.0
H566 H 0.85691 0.59721 0.56829 0.0
H567 H 0.83417 0.59106 0.54128 0.0
H568 H 0.87894 0.60582 0.46567 0.0
H569 H 0.85427 0.59962 0.48812 0.0
H570 H 0.87625 0.64955 0.43838 0.0
H571 H 0.85203 0.64367 0.46123 0.0
N572 N 0.82258 0.61777 0.47897 0.0
N573 N 0.81927 0.609 0.52069 0.0
C574 C 0.35723 0.23556 0.48543 0.0
C575 C 0.36758 0.24266 0.46745 0.0
C576 C 0.36093 0.22592 0.50005 0.0
C577 C 0.37532 0.22359 0.49724 0.0
C578 C 0.38185 0.24018 0.46453 0.0
C579 C 0.38568 0.23072 0.4793 0.0
C580 C 0.37852 0.2121 0.51141 0.0
C581 C 0.3823 0.25666 0.55337 0.0
C582 C 0.37123 0.2512 0.57098 0.0
C583 C 0.38495 0.24445 0.54148 0.0
C584 C 0.37622 0.22643 0.54656 0.0
C585 C 0.36305 0.23326 0.57642 0.0
C586 C 0.36546 0.22106 0.56435 0.0
C587 C 0.37839 0.21299 0.53409 0.0
C588 C 0.39579 0.15666 0.55837 0.0
C589 C 0.38259 0.14708 0.57298 0.0
C590 C 0.39567 0.17001 0.54648 0.0
C591 C 0.38242 0.17414 0.54907 0.0
C592 C 0.36967 0.15171 0.57595 0.0
C593 C 0.36971 0.16522 0.56429 0.0
C594 C 0.3813 0.18722 0.53548 0.0
C595 C 0.36595 0.13934 0.49258 0.0
C596 C 0.37565 0.14234 0.47399 0.0
C597 C 0.368 0.15353 0.50548 0.0
C598 C 0.38013 0.17105 0.50041 0.0
C599 C 0.38768 0.15984 0.46876 0.0
C600 C 0.3899 0.17406 0.48187 0.0
C601 C 0.38117 0.18622 0.51286 0.0
H602 H 0.34595 0.23701 0.48782 0.0
H603 H 0.3523 0.21993 0.51323 0.0
H604 H 0.39004 0.24556 0.45082 0.0
H605 H 0.39666 0.2288 0.47661 0.0
H606 H 0.38885 0.27033 0.54864 0.0
H607 H 0.39382 0.24915 0.52833 0.0
H608 H 0.35488 0.22857 0.59023 0.0
H609 H 0.35877 0.20733 0.5689 0.0
H610 H 0.40617 0.15376 0.55598 0.0
H611 H 0.40579 0.17696 0.53506 0.0
H612 H 0.35913 0.14451 0.58676 0.0
H613 H 0.35937 0.16821 0.56652 0.0
H614 H 0.35628 0.12601 0.49671 0.0
H615 H 0.35961 0.15077 0.519 0.0
H616 H 0.3953 0.16251 0.45449 0.0
H617 H 0.39909 0.18746 0.47738 0.0
N618 N 0.37998 0.19882 0.5018 0.0
N619 N 0.37976 0.20044 0.54517 0.0
C620 C 0.78129 0.13997 0.46879 0.0
C621 C 0.77268 0.14273 0.45153 0.0
C622 C 0.79363 0.15423 0.48149 0.0
C623 C 0.79734 0.17157 0.47756 0.0
C624 C 0.77696 0.16015 0.44695 0.0
C625 C 0.78922 0.17446 0.45987 0.0
C626 C 0.81011 0.18665 0.49148 0.0
C627 C 0.7656 0.15092 0.53241 0.0
C628 C 0.77017 0.14474 0.55067 0.0
C629 C 0.77838 0.16471 0.52077 0.0
C630 C 0.79608 0.17215 0.52661 0.0
C631 C 0.78782 0.15293 0.55712 0.0
C632 C 0.8006 0.16635 0.54516 0.0
C633 C 0.81006 0.18634 0.51417 0.0
C634 C 0.86938 0.2552 0.54689 0.0
C635 C 0.87779 0.24888 0.56043 0.0
C636 C 0.85674 0.24384 0.53161 0.0
C637 C 0.85218 0.22596 0.52984 0.0
C638 C 0.87367 0.23112 0.55771 0.0
C639 C 0.86084 0.21976 0.54285 0.0
C640 C 0.83749 0.21316 0.51588 0.0
C641 C 0.88228 0.24067 0.47146 0.0
C642 C 0.87934 0.24951 0.45477 0.0
C643 C 0.86874 0.22964 0.48461 0.0
C644 C 0.85205 0.22733 0.4814 0.0
C645 C 0.86275 0.24759 0.45196 0.0
C646 C 0.84917 0.23645 0.46506 0.0
C647 C 0.83722 0.21392 0.49336 0.0
H648 H 0.77857 0.12673 0.47237 0.0
H649 H 0.80022 0.15169 0.49448 0.0
H650 H 0.77058 0.16266 0.43368 0.0
H651 H 0.79212 0.18775 0.45629 0.0
H652 H 0.75218 0.14495 0.52683 0.0
H653 H 0.77439 0.16941 0.50712 0.0
H654 H 0.79187 0.14901 0.57144 0.0
H655 H 0.8141 0.17208 0.55034 0.0
H656 H 0.87206 0.26872 0.54858 0.0
H657 H 0.85006 0.24881 0.5218 0.0
H658 H 0.8802 0.22586 0.56729 0.0
H659 H 0.85755 0.20601 0.54161 0.0
H660 H 0.89495 0.24194 0.47399 0.0
H661 H 0.87118 0.22233 0.49667 0.0
H662 H 0.86009 0.25409 0.43904 0.0
H663 H 0.83632 0.23465 0.46214 0.0
N664 N 0.82356 0.20062 0.48199 0.0
N665 N 0.82388 0.1995 0.52536 0.0
C666 C 0.95219 0.51841 0.12924 0.0
C667 C 0.96212 0.52546 0.11089 0.0
C668 C 0.95322 0.50536 0.14071 0.0
C669 C 0.96467 0.49945 0.13457 0.0
C670 C 0.97279 0.51874 0.10408 0.0
C671 C 0.97408 0.50593 0.11581 0.0
C672 C 0.96675 0.48639 0.14734 0.0
C673 C 0.98405 0.53311 0.19336 0.0
C674 C 0.97474 0.52953 0.21238 0.0
C675 C 0.9814 0.51932 0.17924 0.0
C676 C 0.96911 0.5017 0.18363 0.0
C677 C 0.96246 0.51191 0.21678 0.0
C678 C 0.95969 0.49813 0.20254 0.0
C679 C 0.96749 0.48683 0.17003 0.0
C680 C 0.98832 0.43375 0.19278 0.0
C681 C 0.97842 0.4272 0.21119 0.0
C682 C 0.98516 0.44419 0.17878 0.0
C683 C 0.97173 0.44787 0.18266 0.0
C684 C 0.96501 0.43087 0.21508 0.0
C685 C 0.96169 0.44109 0.20093 0.0
C686 C 0.96939 0.4605 0.16952 0.0
C687 C 0.9614 0.41659 0.12293 0.0
C688 C 0.97507 0.42226 0.10844 0.0
C689 C 0.95946 0.42891 0.13552 0.0
C690 C 0.97107 0.44713 0.13373 0.0
C691 C 0.9867 0.44057 0.1069 0.0
C692 C 0.98457 0.45285 0.1192 0.0
C693 C 0.96935 0.46041 0.14689 0.0
H694 H 0.94389 0.52325 0.13515 0.0
H695 H 0.94522 0.50009 0.15456 0.0
H696 H 0.98027 0.52343 0.08972 0.0
H697 H 0.98272 0.50135 0.11042 0.0
H698 H 0.99384 0.54653 0.18977 0.0
H699 H 0.98934 0.5224 0.16523 0.0
H700 H 0.95506 0.5088 0.23128 0.0
H701 H 0.95034 0.48462 0.20644 0.0
H702 H 0.99893 0.43135 0.18964 0.0
H703 H 0.99367 0.4499 0.16544 0.0
H704 H 0.95716 0.42591 0.22913 0.0
H705 H 0.95143 0.44396 0.20445 0.0
H706 H 0.952 0.40265 0.12432 0.0
H707 H 0.94881 0.42424 0.14649 0.0
H708 H 0.99761 0.44549 0.09632 0.0
H709 H 0.99373 0.46686 0.11768 0.0
N710 N 0.96798 0.47331 0.13669 0.0
N711 N 0.9685 0.47373 0.1801 0.0
C712 C 0.46017 0.41235 0.13759 0.0
C713 C 0.45709 0.42001 0.11961 0.0
C714 C 0.47354 0.42285 0.15259 0.0
C715 C 0.48388 0.44123 0.15002 0.0
C716 C 0.46784 0.4383 0.11686 0.0
C717 C 0.48101 0.44874 0.13186 0.0
C718 C 0.49806 0.45299 0.16552 0.0
C719 C 0.44931 0.42952 0.20492 0.0
C720 C 0.45036 0.42127 0.22354 0.0
C721 C 0.4641 0.43938 0.19285 0.0
C722 C 0.48005 0.44079 0.19894 0.0
C723 C 0.46625 0.4225 0.22942 0.0
C724 C 0.48096 0.43219 0.21725 0.0
C725 C 0.49626 0.45281 0.18802 0.0
C726 C 0.54552 0.51404 0.2355 0.0
C727 C 0.56335 0.51993 0.23357 0.0
C728 C 0.5331 0.50008 0.22243 0.0
C729 C 0.53821 0.49182 0.20697 0.0
C730 C 0.56838 0.51113 0.21867 0.0
C731 C 0.55593 0.49719 0.20556 0.0
C732 C 0.52488 0.47798 0.19219 0.0
C733 C 0.56396 0.50274 0.13275 0.0
C734 C 0.56642 0.51992 0.13438 0.0
C735 C 0.55122 0.48918 0.1447 0.0
C736 C 0.54116 0.49278 0.15883 0.0
C737 C 0.55644 0.52351 0.14866 0.0
C738 C 0.54394 0.51005 0.16086 0.0
C739 C 0.52659 0.47821 0.16977 0.0
H740 H 0.45216 0.39829 0.14018 0.0
H741 H 0.47577 0.4166 0.16613 0.0
H742 H 0.46622 0.4446 0.10295 0.0
H743 H 0.48889 0.46282 0.1293 0.0
H744 H 0.43727 0.429 0.20025 0.0
H745 H 0.46318 0.44641 0.17924 0.0
H746 H 0.46737 0.41618 0.24364 0.0
H747 H 0.49317 0.43327 0.22239 0.0
H748 H 0.54117 0.52061 0.24659 0.0
H749 H 0.51951 0.49616 0.22388 0.0
H750 H 0.58197 0.5151 0.21706 0.0
H751 H 0.56018 0.49071 0.19418 0.0
H752 H 0.57149 0.49971 0.12174 0.0
H753 H 0.54907 0.47585 0.14276 0.0
H754 H 0.55819 0.53671 0.1502 0.0
H755 H 0.53607 0.51299 0.17139 0.0
N756 N 0.5132 0.46573 0.15737 0.0
N757 N 0.50978 0.46527 0.20042 0.0
C758 C 0.45569 0.03287 0.21625 0.0
C759 C 0.44842 0.01888 0.23058 0.0
C760 C 0.46916 0.03504 0.20303 0.0
C761 C 0.47552 0.0232 0.20381 0.0
C762 C 0.45468 0.00695 0.23113 0.0
C763 C 0.46815 0.00915 0.21797 0.0
C764 C 0.49071 0.02614 0.19127 0.0
C765 C 0.44891 0.01233 0.14057 0.0
C766 C 0.45248 0.02539 0.12545 0.0
C767 C 0.46173 0.01433 0.15544 0.0
C768 C 0.47837 0.0295 0.15565 0.0
C769 C 0.46901 0.04075 0.126 0.0
C770 C 0.48187 0.04271 0.14084 0.0
C771 C 0.49265 0.03064 0.16947 0.0
C772 C 0.5541 0.02566 0.14295 0.0
C773 C 0.56326 0.04122 0.13135 0.0
C774 C 0.54054 0.02329 0.15603 0.0
C775 C 0.53596 0.03647 0.15784 0.0
C776 C 0.5587 0.05444 0.13325 0.0
C777 C 0.54503 0.05199 0.14623 0.0
C778 C 0.52085 0.03354 0.17041 0.0
C779 C 0.56133 0.0373 0.21843 0.0
C780 C 0.55579 0.02203 0.23056 0.0
C781 C 0.54941 0.03942 0.20571 0.0
C782 C 0.53171 0.02627 0.20476 0.0
C783 C 0.53805 0.00898 0.22964 0.0
C784 C 0.52617 0.01112 0.21698 0.0
C785 C 0.51865 0.02836 0.19198 0.0
H786 H 0.45111 0.04224 0.21542 0.0
H787 H 0.4749 0.04626 0.19265 0.0
H788 H 0.44956 0.99622 0.24225 0.0
H789 H 0.47295 -4e-05 0.21902 0.0
H790 H 0.43627 0.00039 0.14063 0.0
H791 H 0.45879 0.00367 0.16623 0.0
H792 H 0.47224 0.05094 0.1144 0.0
H793 H 0.49467 0.05441 0.14048 0.0
H794 H 0.55744 0.01532 0.14193 0.0
H795 H 0.53344 0.01102 0.16444 0.0
H796 H 0.56548 0.06648 0.12437 0.0
H797 H 0.54151 0.0622 0.1472 0.0
H798 H 0.5749 0.0476 0.21876 0.0
H799 H 0.55399 0.05145 0.19688 0.0
H800 H 0.53326 0.99723 0.23908 0.0
H801 H 0.51258 0.00087 0.21672 0.0
N802 N 0.50369 0.02496 0.20155 0.0
N803 N 0.50776 0.03441 0.16001 0.0
C804 C 0.5556 0.98766 0.80983 0.0
C805 C 0.55187 0.97579 0.7923 0.0
C806 C 0.54239 0.98567 0.8234 0.0
C807 C 0.52527 0.97168 0.81977 0.0
C808 C 0.5347 0.96179 0.78881 0.0
C809 C 0.52154 0.95983 0.80235 0.0
C810 C 0.51085 0.96991 0.83297 0.0
C811 C 0.54729 0.96337 0.87939 0.0
C812 C 0.55261 0.97511 0.89737 0.0
C813 C 0.53402 0.96167 0.86537 0.0
C814 C 0.526 0.97184 0.86899 0.0
C815 C 0.54448 0.98518 0.90084 0.0
C816 C 0.53137 0.98356 0.88685 0.0
C817 C 0.51111 0.96964 0.85558 0.0
C818 C 0.43671 0.94755 0.87529 0.0
C819 C 0.43975 0.9563 0.89542 0.0
C820 C 0.45059 0.95069 0.86231 0.0
C821 C 0.46776 0.96301 0.86894 0.0
C822 C 0.45701 0.96814 0.90232 0.0
C823 C 0.47083 0.97147 0.88921 0.0
C824 C 0.48273 0.96631 0.85571 0.0
C825 C 0.45205 0.98355 0.81524 0.0
C826 C 0.44588 0.97464 0.79525 0.0
C827 C 0.46392 0.98122 0.82767 0.0
C828 C 0.46964 0.96963 0.82061 0.0
C829 C 0.45173 0.96318 0.78809 0.0
C830 C 0.46352 0.96075 0.80062 0.0
C831 C 0.48296 0.96781 0.83318 0.0
H832 H 0.5687 0.99856 0.81294 0.0
H833 H 0.5455 0.99526 0.83644 0.0
H834 H 0.53132 0.95264 0.77521 0.0
H835 H 0.50837 0.94909 0.7991 0.0
H836 H 0.55329 0.95542 0.87624 0.0
H837 H 0.52981 0.95218 0.85203 0.0
H838 H 0.5479 0.99403 0.91476 0.0
H839 H 0.52525 0.99139 0.89015 0.0
H840 H 0.42359 0.93845 0.86938 0.0
H841 H 0.44785 0.94342 0.84715 0.0
H842 H 0.45987 0.97482 0.9179 0.0
H843 H 0.48397 0.98077 0.89491 0.0
H844 H 0.44809 0.99276 0.82099 0.0
H845 H 0.46891 0.9888 0.84261 0.0
H846 H 0.44717 0.95609 0.77279 0.0
H847 H 0.46788 0.95192 0.79467 0.0
N848 N 0.49685 0.96913 0.82269 0.0
N849 N 0.49694 0.96764 0.86594 0.0
C850 C 0.01268 0.56207 0.81912 0.0
C851 C 0.02486 0.57293 0.80421 0.0
C852 C 0.01667 0.55227 0.83315 0.0
C853 C 0.0328 0.55305 0.83224 0.0
C854 C 0.04111 0.57394 0.80357 0.0
C855 C 0.04495 0.56384 0.81729 0.0
C856 C 0.03635 0.54136 0.84541 0.0
C857 C 0.041 0.58536 0.88918 0.0
C858 C 0.03051 0.57976 0.9073 0.0
C859 C 0.04309 0.57321 0.87638 0.0
C860 C 0.03446 0.55512 0.88114 0.0
C861 C 0.02221 0.56171 0.91224 0.0
C862 C 0.02415 0.54958 0.89933 0.0
C863 C 0.03657 0.54189 0.86808 0.0
C864 C 0.0571 0.48724 0.888 0.0
C865 C 0.04417 0.47644 0.90232 0.0
C866 C 0.056 0.50055 0.87725 0.0
C867 C 0.0421 0.50351 0.88083 0.0
C868 C 0.03059 0.47993 0.90635 0.0
C869 C 0.02971 0.49349 0.89591 0.0
C870 C 0.03993 0.51639 0.86808 0.0
C871 C 0.02352 0.46864 0.82489 0.0
C872 C 0.03277 0.47157 0.80592 0.0
C873 C 0.02577 0.48287 0.83788 0.0
C874 C 0.03767 0.50039 0.83251 0.0
C875 C 0.0445 0.48908 0.80034 0.0
C876 C 0.04691 0.50336 0.81352 0.0
C877 C 0.03909 0.51555 0.84543 0.0
H878 H 0.00011 0.56121 0.81991 0.0
H879 H 0.00704 0.54377 0.84436 0.0
H880 H 0.05064 0.58224 0.79214 0.0
H881 H 0.05737 0.56439 0.81623 0.0
H882 H 0.04758 0.59912 0.88481 0.0
H883 H 0.05169 0.57809 0.86299 0.0
H884 H 0.01439 0.55692 0.92633 0.0
H885 H 0.01752 0.53578 0.90361 0.0
H886 H 0.06799 0.48529 0.88487 0.0
H887 H 0.06585 0.50837 0.86589 0.0
H888 H 0.02023 0.47179 0.91696 0.0
H889 H 0.01887 0.49558 0.89885 0.0
H890 H 0.01406 0.45532 0.82933 0.0
H891 H 0.01776 0.48013 0.85176 0.0
H892 H 0.05177 0.49171 0.78578 0.0
H893 H 0.0559 0.51674 0.80881 0.0
N894 N 0.03758 0.52823 0.83501 0.0
N895 N 0.03841 0.52935 0.87853 0.0
C896 C 0.53518 0.59104 0.78595 0.0
C897 C 0.55041 0.59047 0.79061 0.0
C898 C 0.52024 0.5812 0.79771 0.0
C899 C 0.52034 0.57084 0.81454 0.0
C900 C 0.5506 0.58039 0.8078 0.0
C901 C 0.53567 0.5706 0.81962 0.0
C902 C 0.50391 0.55884 0.82498 0.0
C903 C 0.53207 0.57139 0.89628 0.0
C904 C 0.54313 0.58969 0.89389 0.0
C905 C 0.51885 0.56134 0.88113 0.0
C906 C 0.51625 0.56926 0.86318 0.0
C907 C 0.54033 0.59774 0.87612 0.0
C908 C 0.52694 0.58765 0.861 0.0
C909 C 0.50204 0.55798 0.84744 0.0
C910 C 0.43921 0.48749 0.85942 0.0
C911 C 0.43146 0.49168 0.87628 0.0
C912 C 0.45262 0.50091 0.84812 0.0
C913 C 0.45821 0.51878 0.8531 0.0
C914 C 0.43713 0.50955 0.88135 0.0
C915 C 0.45041 0.52298 0.86986 0.0
C916 C 0.47329 0.53314 0.84244 0.0
C917 C 0.43181 0.50101 0.79293 0.0
C918 C 0.43708 0.49238 0.77809 0.0
C919 C 0.44413 0.51517 0.80593 0.0
C920 C 0.46192 0.52077 0.80458 0.0
C921 C 0.45496 0.49878 0.77588 0.0
C922 C 0.46724 0.51284 0.78893 0.0
C923 C 0.47511 0.5341 0.81997 0.0
H924 H 0.53456 0.59847 0.77259 0.0
H925 H 0.50846 0.58135 0.79336 0.0
H926 H 0.56218 0.57975 0.81177 0.0
H927 H 0.53592 0.56237 0.83223 0.0
H928 H 0.53348 0.56478 0.91002 0.0
H929 H 0.51071 0.54724 0.8834 0.0
H930 H 0.54858 0.6118 0.87378 0.0
H931 H 0.52491 0.59425 0.84769 0.0
H932 H 0.43533 0.47383 0.85549 0.0
H933 H 0.4589 0.49732 0.83588 0.0
H934 H 0.43138 0.51311 0.8943 0.0
H935 H 0.45473 0.53668 0.8742 0.0
H936 H 0.41814 0.49658 0.79477 0.0
H937 H 0.43972 0.52139 0.81747 0.0
H938 H 0.45948 0.49236 0.76478 0.0
H939 H 0.48088 0.51696 0.78747 0.0
N940 N 0.49038 0.54692 0.81217 0.0
N941 N 0.48676 0.54516 0.85519 0.0
C942 C 0.64974 0.76404 0.46803 0.0
C943 C 0.63694 0.75284 0.45272 0.0
C944 C 0.64697 0.77536 0.48146 0.0
C945 C 0.63133 0.77566 0.47988 0.0
C946 C 0.62133 0.75324 0.45112 0.0
C947 C 0.61863 0.76467 0.46445 0.0
C948 C 0.62845 0.78784 0.49376 0.0
C949 C 0.62999 0.74728 0.53621 0.0
C950 C 0.6413 0.75435 0.55434 0.0
C951 C 0.62588 0.75802 0.52396 0.0
C952 C 0.63353 0.77622 0.52906 0.0
C953 C 0.64819 0.77237 0.55996 0.0
C954 C 0.64449 0.78315 0.5474 0.0
C955 C 0.6298 0.78825 0.51641 0.0
C956 C 0.61418 0.84616 0.54259 0.0
C957 C 0.62739 0.85466 0.55854 0.0
C958 C 0.61334 0.83248 0.52958 0.0
C959 C 0.62586 0.82726 0.53212 0.0
C960 C 0.63945 0.84889 0.56153 0.0
C961 C 0.63864 0.83531 0.54854 0.0
C962 C 0.626 0.81348 0.51801 0.0
C963 C 0.63604 0.85885 0.47708 0.0
C964 C 0.62373 0.8547 0.46035 0.0
C965 C 0.63657 0.84542 0.48822 0.0
C966 C 0.62447 0.82752 0.48331 0.0
C967 C 0.61206 0.8368 0.45483 0.0
C968 C 0.61242 0.82332 0.46623 0.0
C969 C 0.62486 0.81325 0.49537 0.0
H970 H 0.66187 0.76401 0.46966 0.0
H971 H 0.65708 0.78395 0.49302 0.0
H972 H 0.61134 0.74496 0.43926 0.0
H973 H 0.60656 0.76485 0.46281 0.0
H974 H 0.62444 0.7335 0.53124 0.0
H975 H 0.61671 0.75202 0.51058 0.0
H976 H 0.65647 0.77824 0.57414 0.0
H977 H 0.65034 0.79705 0.55205 0.0
H978 H 0.60457 0.85017 0.54008 0.0
H979 H 0.60306 0.82613 0.51742 0.0
H980 H 0.64993 0.8553 0.57344 0.0
H981 H 0.64839 0.83146 0.5509 0.0
H982 H 0.64547 0.87252 0.48132 0.0
H983 H 0.64651 0.84905 0.50066 0.0
H984 H 0.6025 0.83326 0.4419 0.0
H985 H 0.60317 0.80962 0.4619 0.0
N986 N 0.62591 0.80029 0.48414 0.0
N987 N 0.62849 0.80105 0.52748 0.0
C988 C 0.1304 0.74669 0.47871 0.0
C989 C 0.12213 0.75285 0.46471 0.0
C990 C 0.14325 0.75832 0.49357 0.0
C991 C 0.14818 0.77632 0.49448 0.0
C992 C 0.12668 0.7708 0.46646 0.0
C993 C 0.13974 0.78242 0.48094 0.0
C994 C 0.16285 0.78922 0.50839 0.0
C995 C 0.11797 0.7615 0.55246 0.0
C996 C 0.12079 0.75253 0.56909 0.0
C997 C 0.13161 0.77271 0.53954 0.0
C998 C 0.14831 0.77505 0.54288 0.0
C999 C 0.13742 0.75457 0.57211 0.0
C1000 C 0.1511 0.76587 0.55922 0.0
C1001 C 0.16317 0.7884 0.53089 0.0
C1002 C 0.21971 0.86178 0.55634 0.0
C1003 C 0.22799 0.85855 0.5736 0.0
C1004 C 0.20743 0.84781 0.54322 0.0
C1005 C 0.20343 0.83033 0.54674 0.0
C1006 C 0.2235 0.84099 0.57765 0.0
C1007 C 0.21129 0.82699 0.56434 0.0
C1008 C 0.19045 0.8155 0.53274 0.0
C1009 C 0.23486 0.85106 0.49133 0.0
C1010 C 0.23027 0.85723 0.47308 0.0
C1011 C 0.22208 0.83742 0.50317 0.0
C1012 C 0.20436 0.83013 0.49755 0.0
C1013 C 0.21257 0.84921 0.4669 0.0
C1014 C 0.19981 0.83596 0.47905 0.0
C1015 C 0.19038 0.81596 0.51005 0.0
H1016 H 0.1274 0.73304 0.47772 0.0
H1017 H 0.14976 0.75341 0.5038 0.0
H1018 H 0.1203 0.77597 0.45647 0.0
H1019 H 0.1433 0.79627 0.48153 0.0
H1020 H 0.10528 0.76015 0.54975 0.0
H1021 H 0.12922 0.78005 0.52749 0.0
H1022 H 0.14001 0.74799 0.58498 0.0
H1023 H 0.16394 0.76769 0.56225 0.0
H1024 H 0.2226 0.87513 0.55315 0.0
H1025 H 0.20104 0.85069 0.53031 0.0
H1026 H 0.22963 0.83812 0.59087 0.0
H1027 H 0.20816 0.81358 0.5676 0.0
H1028 H 0.24831 0.85689 0.49673 0.0
H1029 H 0.22611 0.83269 0.51677 0.0
H1030 H 0.20848 0.85312 0.4526 0.0
H1031 H 0.18629 0.83035 0.47402 0.0
N1032 N 0.17646 0.80287 0.49889 0.0
N1033 N 0.17695 0.80158 0.54223 0.0
C1034 C 0.23497 0.39025 0.48867 0.0
C1035 C 0.23154 0.37792 0.47175 0.0
C1036 C 0.22163 0.38829 0.50198 0.0
C1037 C 0.20464 0.37401 0.49853 0.0
C1038 C 0.2145 0.36357 0.46858 0.0
C1039 C 0.20118 0.36176 0.48167 0.0
C1040 C 0.19013 0.37229 0.51143 0.0
C1041 C 0.221 0.35778 0.55543 0.0
C1042 C 0.22804 0.36848 0.57415 0.0
C1043 C 0.20914 0.35948 0.54219 0.0
C1044 C 0.20418 0.37209 0.54716 0.0
C1045 C 0.22317 0.38118 0.57905 0.0
C1046 C 0.21125 0.38287 0.56576 0.0
C1047 C 0.19049 0.37286 0.53404 0.0
C1048 C 0.11754 0.35154 0.55661 0.0
C1049 C 0.12076 0.36393 0.57336 0.0
C1050 C 0.13092 0.35372 0.54327 0.0
C1051 C 0.14773 0.36842 0.54628 0.0
C1052 C 0.13758 0.37869 0.57622 0.0
C1053 C 0.15095 0.38085 0.56288 0.0
C1054 C 0.16235 0.37024 0.53345 0.0
C1055 C 0.12492 0.37317 0.485 0.0
C1056 C 0.11981 0.36077 0.46773 0.0
C1057 C 0.13828 0.37569 0.49946 0.0
C1058 C 0.14661 0.36569 0.49704 0.0
C1059 C 0.12821 0.35082 0.46549 0.0
C1060 C 0.14139 0.35325 0.47993 0.0
C1061 C 0.16172 0.36885 0.5108 0.0
H1062 H 0.24788 0.40157 0.49143 0.0
H1063 H 0.22449 0.3981 0.51467 0.0
H1064 H 0.21143 0.35355 0.4561 0.0
H1065 H 0.18814 0.35066 0.47873 0.0
H1066 H 0.22453 0.34793 0.55112 0.0
H1067 H 0.20348 0.35054 0.52837 0.0
H1068 H 0.22815 0.38946 0.5935 0.0
H1069 H 0.20743 0.39249 0.57014 0.0
H1070 H 0.1047 0.34007 0.55396 0.0
H1071 H 0.12822 0.34369 0.53094 0.0
H1072 H 0.14055 0.38831 0.58919 0.0
H1073 H 0.16388 0.39215 0.56568 0.0
H1074 H 0.11871 0.38103 0.48726 0.0
H1075 H 0.14234 0.38572 0.51217 0.0
H1076 H 0.12497 0.34147 0.45215 0.0
H1077 H 0.14772 0.34551 0.47752 0.0
N1078 N 0.17572 0.37008 0.50079 0.0
N1079 N 0.17669 0.37211 0.54417 0.0
C1080 C 0.00149 0.36252 0.03689 0.0
C1081 C 0.98841 0.35276 0.02129 0.0
C1082 C 0.999 0.37232 0.05316 0.0
C1083 C 0.98292 0.37201 0.05405 0.0
C1084 C 0.9692 0.36098 0.03939 0.0
C1085 C 0.97219 0.35166 0.02302 0.0
C1086 C 0.01403 0.38409 0.06828 0.0
C1087 C 0.95172 0.35991 0.04012 0.0
C1088 C 0.97341 0.39274 0.10247 0.0
C1089 C 0.9771 0.40925 0.0947 0.0
C1090 C 0.9752 0.38042 0.08949 0.0
C1091 C 0.98114 0.38484 0.06836 0.0
C1092 C 0.98508 0.40152 0.0605 0.0
C1093 C 0.9828 0.41338 0.07363 0.0
C1094 C 0.97062 0.36265 0.09829 0.0
C1095 C 0.9916 0.40683 0.03811 0.0
H1096 H 0.0141 0.3635 0.03552 0.0
H1097 H 0.96199 0.344 0.01109 0.0
H1098 H 0.01915 0.39815 0.06423 0.0
H1099 H 0.0097 0.38261 0.08507 0.0
H1100 H 0.02481 0.38115 0.0673 0.0
H1101 H 0.94176 0.34887 0.02974 0.0
H1102 H 0.94706 0.35809 0.05677 0.0
H1103 H 0.95298 0.3725 0.0346 0.0
H1104 H 0.96923 0.38946 0.11879 0.0
H1105 H 0.98532 0.42587 0.06721 0.0
H1106 H 0.9821 0.36082 0.09795 0.0
H1107 H 0.96023 0.35188 0.08807 0.0
H1108 H 0.96607 0.36121 0.115 0.0
H1109 H 0.00333 0.40565 0.0357 0.0
H1110 H 0.99492 0.42063 0.03484 0.0
H1111 H 0.98152 0.39778 0.02615 0.0
C1112 C 0.63279 0.59474 0.05578 0.0
C1113 C 0.6387 0.61105 0.06668 0.0
C1114 C 0.62124 0.57877 0.06544 0.0
C1115 C 0.61584 0.57921 0.08657 0.0
C1116 C 0.62217 0.59564 0.09779 0.0
C1117 C 0.63338 0.61135 0.08763 0.0
C1118 C 0.61449 0.5615 0.05289 0.0
C1119 C 0.61694 0.59665 0.12046 0.0
C1120 C 0.57329 0.54318 0.10771 0.0
C1121 C 0.57893 0.53404 0.12072 0.0
C1122 C 0.58509 0.55733 0.09555 0.0
C1123 C 0.60299 0.56266 0.09683 0.0
C1124 C 0.60867 0.55313 0.1095 0.0
C1125 C 0.5965 0.53877 0.12118 0.0
C1126 C 0.57848 0.56696 0.08194 0.0
C1127 C 0.62768 0.55862 0.11155 0.0
H1128 H 0.63686 0.5945 0.03956 0.0
H1129 H 0.63809 0.62393 0.09619 0.0
H1130 H 0.61718 0.55227 0.06193 0.0
H1131 H 0.60016 0.55505 0.05059 0.0
H1132 H 0.62041 0.56338 0.03691 0.0
H1133 H 0.62381 0.61041 0.12735 0.0
H1134 H 0.60272 0.59154 0.1208 0.0
H1135 H 0.61976 0.5882 0.13091 0.0
H1136 H 0.55963 0.53931 0.10721 0.0
H1137 H 0.60079 0.53167 0.13132 0.0
H1138 H 0.58341 0.56832 0.06545 0.0
H1139 H 0.58338 0.58052 0.08878 0.0
H1140 H 0.56403 0.56004 0.08098 0.0
H1141 H 0.63329 0.55998 0.09547 0.0
H1142 H 0.62979 0.54901 0.12064 0.0
H1143 H 0.63496 0.57178 0.11993 0.0
C1144 C 0.39756 0.01307 0.01788 0.0
C1145 C 0.3796 0.00502 0.02111 0.0
C1146 C 0.40943 0.01761 0.03523 0.0
C1147 C 0.40324 0.01415 0.05636 0.0
C1148 C 0.38523 0.00677 0.05981 0.0
C1149 C 0.37362 0.00224 0.04216 0.0
C1150 C 0.42853 0.02539 0.03085 0.0
C1151 C 0.37813 0.00303 0.08212 0.0
C1152 C 0.43032 0.00602 0.0973 0.0
C1153 C 0.43939 0.02246 0.10835 0.0
C1154 C 0.41843 0.00313 0.08051 0.0
C1155 C 0.41544 0.017 0.07464 0.0
C1156 C 0.42438 0.03357 0.08589 0.0
C1157 C 0.43632 0.03613 0.10256 0.0
C1158 C 0.40928 0.98531 0.06881 0.0
C1159 C 0.42143 0.04862 0.08021 0.0
H1160 H 0.40235 0.01528 0.00172 0.0
H1161 H 0.35979 0.99613 0.04487 0.0
H1162 H 0.43641 0.03775 0.04064 0.0
H1163 H 0.43279 0.01591 0.03552 0.0
H1164 H 0.43139 0.0284 0.01369 0.0
H1165 H 0.36406 0.99877 0.08225 0.0
H1166 H 0.37992 0.99241 0.089 0.0
H1167 H 0.38537 0.01499 0.09275 0.0
H1168 H 0.43284 0.99549 0.10145 0.0
H1169 H 0.44319 0.04882 0.11116 0.0
H1170 H 0.41261 0.98696 0.05163 0.0
H1171 H 0.39497 0.97945 0.06958 0.0
H1172 H 0.41285 0.97584 0.07556 0.0
H1173 H 0.42519 0.05241 0.06343 0.0
H1174 H 0.429 0.0605 0.09092 0.0
H1175 H 0.40741 0.04432 0.0812 0.0
C1176 C 0.36248 0.94618 0.97093 0.0
C1177 C 0.35303 0.95166 0.95824 0.0
C1178 C 0.3761 0.94449 0.96221 0.0
C1179 C 0.38 0.94812 0.94033 0.0
C1180 C 0.36963 0.95245 0.92721 0.0
C1181 C 0.35638 0.95434 0.93639 0.0
C1182 C 0.387 0.94002 0.97672 0.0
C1183 C 0.37317 0.95614 0.90372 0.0
C1184 C 0.42566 0.96807 0.92002 0.0
C1185 C 0.42498 0.95362 0.90883 0.0
C1186 C 0.41142 0.96614 0.9315 0.0
C1187 C 0.39599 0.94942 0.93148 0.0
C1188 C 0.39538 0.93462 0.92092 0.0
C1189 C 0.40994 0.93688 0.9098 0.0
C1190 C 0.41262 0.98224 0.94272 0.0
C1191 C 0.37911 0.91662 0.92051 0.0
H1192 H 0.35993 0.94422 0.98788 0.0
H1193 H 0.34892 0.95844 0.92657 0.0
H1194 H 0.38934 0.92989 0.96895 0.0
H1195 H 0.39988 0.95207 0.97985 0.0
H1196 H 0.3808 0.93507 0.99233 0.0
H1197 H 0.36277 0.95744 0.89532 0.0
H1198 H 0.3857 0.96865 0.90203 0.0
H1199 H 0.37436 0.94538 0.8956 0.0
H1200 H 0.4371 0.98111 0.91917 0.0
H1201 H 0.40943 0.92556 0.90158 0.0
H1202 H 0.40811 0.97918 0.95939 0.0
H1203 H 0.40401 0.9861 0.93425 0.0
H1204 H 0.42609 0.99375 0.94319 0.0
H1205 H 0.3741 0.913 0.9369 0.0
H1206 H 0.38137 0.9061 0.91371 0.0
H1207 H 0.36882 0.91699 0.91063 0.0
C1208 C 0.04743 0.3951 0.95774 0.0
C1209 C 0.03186 0.37956 0.9519 0.0
C1210 C 0.05097 0.41163 0.95021 0.0
C1211 C 0.03848 0.41265 0.9369 0.0
C1212 C 0.02277 0.39702 0.93095 0.0
C1213 C 0.0198 0.38066 0.93823 0.0
C1214 C 0.06807 0.42797 0.9564 0.0
C1215 C 0.00899 0.39756 0.91704 0.0
C1216 C 0.03801 0.45576 0.93277 0.0
C1217 C 0.04428 0.46102 0.91211 0.0
C1218 C 0.03644 0.44027 0.94128 0.0
C1219 C 0.04169 0.43 0.92908 0.0
C1220 C 0.04884 0.43567 0.90869 0.0
C1221 C 0.04982 0.45095 0.90034 0.0
C1222 C 0.0285 0.4345 0.96296 0.0
C1223 C 0.05489 0.42526 0.89534 0.0
H1224 H 0.05691 0.39437 0.96814 0.0
H1225 H 0.00792 0.36878 0.93323 0.0
H1226 H 0.07506 0.43461 0.94178 0.0
H1227 H 0.0657 0.43757 0.9655 0.0
H1228 H 0.07661 0.42486 0.96635 0.0
H1229 H 0.99723 0.38428 0.91448 0.0
H1230 H 0.00503 0.4066 0.92452 0.0
H1231 H 0.01431 0.40287 0.90118 0.0
H1232 H 0.03405 0.4636 0.94225 0.0
H1233 H 0.05442 0.45462 0.88424 0.0
H1234 H 0.03731 0.4324 0.97369 0.0
H1235 H 0.01613 0.42166 0.96114 0.0
H1236 H 0.02574 0.44434 0.9708 0.0
H1237 H 0.06355 0.4222 0.90508 0.0
H1238 H 0.06196 0.4325 0.88102 0.0
H1239 H 0.0435 0.41244 0.88986 0.0
C1240 C 0.59784 0.62996 0.00186 0.0
C1241 C 0.61596 0.64 0.99987 0.0
C1242 C 0.58666 0.62333 0.98372 0.0
C1243 C 0.59371 0.62702 0.96302 0.0
C1244 C 0.61191 0.63781 0.96086 0.0
C1245 C 0.62284 0.64405 0.9793 0.0
C1246 C 0.56734 0.6117 0.98674 0.0
C1247 C 0.61989 0.6423 0.93906 0.0
C1248 C 0.56659 0.59276 0.91948 0.0
C1249 C 0.55729 0.60015 0.91019 0.0
C1250 C 0.57879 0.60158 0.93629 0.0
C1251 C 0.58207 0.61842 0.9438 0.0
C1252 C 0.5734 0.62639 0.93383 0.0
C1253 C 0.56102 0.61712 0.91723 0.0
C1254 C 0.5877 0.59257 0.94653 0.0
C1255 C 0.57675 0.64445 0.94118 0.0
H1256 H 0.59236 0.6267 0.01765 0.0
H1257 H 0.63681 0.6519 0.97759 0.0
H1258 H 0.56005 0.61686 0.97773 0.0
H1259 H 0.56296 0.59813 0.98025 0.0
H1260 H 0.56384 0.61081 0.00387 0.0
H1261 H 0.63401 0.65225 0.9401 0.0
H1262 H 0.6182 0.63013 0.93081 0.0
H1263 H 0.61319 0.64751 0.92896 0.0
H1264 H 0.56415 0.57987 0.91381 0.0
H1265 H 0.55386 0.62293 0.91027 0.0
H1266 H 0.58406 0.59006 0.96356 0.0
H1267 H 0.60203 0.60128 0.94631 0.0
H1268 H 0.58416 0.57974 0.93831 0.0
H1269 H 0.57175 0.64372 0.95752 0.0
H1270 H 0.57038 0.6496 0.93035 0.0
H1271 H 0.59094 0.65406 0.94206 0.0
C1272 C 0.02483 0.63454 0.00603 0.0
C1273 C 0.01761 0.6453 0.00172 0.0
C1274 C 0.02789 0.6254 0.9895 0.0
C1275 C 0.0239 0.62722 0.96799 0.0
C1276 C 0.01752 0.63881 0.96337 0.0
C1277 C 0.01432 0.64761 0.98029 0.0
C1278 C 0.03454 0.61306 0.99519 0.0
C1279 C 0.01343 0.64137 0.94062 0.0
C1280 C 0.04263 0.60971 0.92599 0.0
C1281 C 0.02849 0.59264 0.92138 0.0
C1282 C 0.04112 0.62145 0.94038 0.0
C1283 C 0.0252 0.61592 0.9507 0.0
C1284 C 0.01075 0.59894 0.94566 0.0
C1285 C 0.01253 0.5876 0.93096 0.0
C1286 C 0.05675 0.63955 0.94509 0.0
C1287 C 0.99355 0.59245 0.95639 0.0
H1288 H 0.02741 0.63258 0.02247 0.0
H1289 H 0.00881 0.65593 0.97674 0.0
H1290 H 0.02446 0.59919 0.99086 0.0
H1291 H 0.04624 0.61617 0.98592 0.0
H1292 H 0.03791 0.61386 0.01255 0.0
H1293 H 0.01048 0.6523 0.9395 0.0
H1294 H 0.02452 0.64427 0.93023 0.0
H1295 H 0.002 0.62898 0.9342 0.0
H1296 H 0.05508 0.61375 0.9189 0.0
H1297 H 0.00139 0.57464 0.92715 0.0
H1298 H 0.06162 0.64026 0.96176 0.0
H1299 H 0.05309 0.64994 0.94382 0.0
H1300 H 0.06752 0.64259 0.93404 0.0
H1301 H 0.99528 0.59169 0.97391 0.0
H1302 H 0.98339 0.57917 0.9501 0.0
H1303 H 0.98883 0.60192 0.95407 0.0
C1304 C 0.35852 0.41333 0.94575 0.0
C1305 C 0.36371 0.40063 0.94722 0.0
C1306 C 0.36878 0.42924 0.93523 0.0
C1307 C 0.38468 0.43255 0.92636 0.0
C1308 C 0.39029 0.42007 0.92867 0.0
C1309 C 0.37969 0.40423 0.93899 0.0
C1310 C 0.36235 0.44221 0.93296 0.0
C1311 C 0.40733 0.42326 0.91981 0.0
C1312 C 0.40452 0.46218 0.87923 0.0
C1313 C 0.41823 0.4774 0.88927 0.0
C1314 C 0.3929 0.44781 0.89127 0.0
C1315 C 0.39522 0.44863 0.91384 0.0
C1316 C 0.40864 0.46425 0.92412 0.0
C1317 C 0.41996 0.4785 0.91169 0.0
C1318 C 0.37861 0.43146 0.87975 0.0
C1319 C 0.41162 0.46555 0.94813 0.0
H1320 H 0.34615 0.41054 0.95213 0.0
H1321 H 0.38398 0.39471 0.94064 0.0
H1322 H 0.37248 0.45561 0.93887 0.0
H1323 H 0.35972 0.44324 0.91577 0.0
H1324 H 0.35026 0.43817 0.94187 0.0
H1325 H 0.41022 0.41266 0.92398 0.0
H1326 H 0.40694 0.42393 0.9021 0.0
H1327 H 0.41818 0.43615 0.92606 0.0
H1328 H 0.40307 0.46142 0.8619 0.0
H1329 H 0.43066 0.49021 0.91946 0.0
H1330 H 0.36591 0.42737 0.88711 0.0
H1331 H 0.38121 0.42034 0.88131 0.0
H1332 H 0.37756 0.43357 0.86242 0.0
H1333 H 0.39929 0.46153 0.95643 0.0
H1334 H 0.42147 0.47917 0.95381 0.0
H1335 H 0.41618 0.45634 0.9529 0.0
C1336 C 0.62723 0.98782 0.98299 0.0
C1337 C 0.62049 0.98695 0.00342 0.0
C1338 C 0.61677 0.98423 0.96439 0.0
C1339 C 0.59925 0.98 0.96625 0.0
C1340 C 0.59219 0.97841 0.98683 0.0
C1341 C 0.60286 0.98176 0.00516 0.0
C1342 C 0.62467 0.98572 0.94274 0.0
C1343 C 0.57362 0.97411 0.98952 0.0
C1344 C 0.57797 0.99297 0.92269 0.0
C1345 C 0.56602 0.97648 0.91313 0.0
C1346 C 0.58919 0.99432 0.93958 0.0
C1347 C 0.58871 0.97883 0.94688 0.0
C1348 C 0.57741 0.96226 0.93651 0.0
C1349 C 0.56611 0.96126 0.91984 0.0
C1350 C 0.60102 0.01226 0.95021 0.0
C1351 C 0.57678 0.94551 0.94359 0.0
H1352 H 0.64081 0.99168 0.9815 0.0
H1353 H 0.59755 0.98112 0.02086 0.0
H1354 H 0.61606 0.97397 0.93233 0.0
H1355 H 0.626 0.99754 0.93469 0.0
H1356 H 0.63773 0.98696 0.94403 0.0
H1357 H 0.56979 0.97226 0.00655 0.0
H1358 H 0.572 0.98504 0.98326 0.0
H1359 H 0.56456 0.96189 0.98012 0.0
H1360 H 0.5783 0.00486 0.91728 0.0
H1361 H 0.55686 0.94844 0.91266 0.0
H1362 H 0.61471 0.01524 0.95026 0.0
H1363 H 0.59742 0.01218 0.96717 0.0
H1364 H 0.60028 0.02309 0.9421 0.0
H1365 H 0.59011 0.94749 0.94492 0.0
H1366 H 0.56883 0.93411 0.93235 0.0
H1367 H 0.57109 0.94213 0.95969 0.0
C1368 C 0.63961 0.0481 0.05618 0.0
C1369 C 0.64685 0.03994 0.06834 0.0
C1370 C 0.62664 0.05102 0.06469 0.0
C1371 C 0.62104 0.04577 0.0858 0.0
C1372 C 0.62913 0.03852 0.09848 0.0
C1373 C 0.64186 0.03564 0.08956 0.0
C1374 C 0.6183 0.05879 0.05072 0.0
C1375 C 0.62369 0.03291 0.12114 0.0
C1376 C 0.59369 0.0592 0.1185 0.0
C1377 C 0.57752 0.0435 0.11736 0.0
C1378 C 0.60784 0.06067 0.10708 0.0
C1379 C 0.60566 0.0461 0.09423 0.0
C1380 C 0.58904 0.03067 0.09196 0.0
C1381 C 0.57519 0.02954 0.10361 0.0
C1382 C 0.62534 0.07733 0.10988 0.0
C1383 C 0.58613 0.01489 0.07826 0.0
H1384 H 0.64343 0.05139 0.03974 0.0
H1385 H 0.64762 0.02953 0.09907 0.0
H1386 H 0.60494 0.04826 0.04582 0.0
H1387 H 0.61716 0.06923 0.05971 0.0
H1388 H 0.62576 0.06452 0.03603 0.0
H1389 H 0.63226 0.02887 0.12939 0.0
H1390 H 0.62389 0.04387 0.13068 0.0
H1391 H 0.61016 0.02156 0.12091 0.0
H1392 H 0.59552 0.07002 0.12912 0.0
H1393 H 0.56259 0.01752 0.10238 0.0
H1394 H 0.6316 0.08167 0.0942 0.0
H1395 H 0.63402 0.07462 0.12009 0.0
H1396 H 0.6243 0.08834 0.11758 0.0
H1397 H 0.59163 0.01915 0.06219 0.0
H1398 H 0.57211 0.0048 0.07624 0.0
H1399 H 0.59296 0.00857 0.08582 0.0
C1400 C 0.97094 0.61697 0.0809 0.0
C1401 C 0.96762 0.6188 0.05938 0.0
C1402 C 0.96855 0.60085 0.08826 0.0
C1403 C 0.96312 0.58631 0.07361 0.0
C1404 C 0.95943 0.58798 0.05189 0.0
C1405 C 0.96154 0.6042 0.04507 0.0
C1406 C 0.97228 0.59953 0.11163 0.0
C1407 C 0.954 0.57292 0.0357 0.0
C1408 C 0.97717 0.55381 0.09084 0.0
C1409 C 0.96188 0.54023 0.09949 0.0
C1410 C 0.97749 0.56842 0.08137 0.0
C1411 C 0.96226 0.56977 0.08097 0.0
C1412 C 0.94667 0.55596 0.08914 0.0
C1413 C 0.94662 0.54128 0.09807 0.0
C1414 C 0.99432 0.58275 0.07252 0.0
C1415 C 0.93022 0.55702 0.08921 0.0
H1416 H 0.97558 0.62825 0.092 0.0
H1417 H 0.95916 0.60567 0.02836 0.0
H1418 H 0.96103 0.58789 0.11857 0.0
H1419 H 0.98366 0.59756 0.11319 0.0
H1420 H 0.9751 0.61159 0.12122 0.0
H1421 H 0.9505 0.57593 0.0198 0.0
H1422 H 0.96483 0.57018 0.0337 0.0
H1423 H 0.94272 0.56065 0.04145 0.0
H1424 H 0.98913 0.55339 0.09207 0.0
H1425 H 0.93462 0.53073 0.10421 0.0
H1426 H -0.00061 0.59503 0.08264 0.0
H1427 H 0.99208 0.58596 0.05609 0.0
H1428 H 0.00445 0.57885 0.072 0.0
H1429 H 0.93223 0.56833 0.09974 0.0
H1430 H 0.91893 0.54472 0.09498 0.0
H1431 H 0.92702 0.5595 0.07286 0.0
C1432 C 0.40374 0.3797 0.0112 0.0
C1433 C 0.3856 0.36958 0.01279 0.0
C1434 C 0.41466 0.38606 0.02959 0.0
C1435 C 0.40731 0.38197 0.05011 0.0
C1436 C 0.38909 0.37099 0.05185 0.0
C1437 C 0.37843 0.36505 0.03317 0.0
C1438 C 0.43401 0.39791 0.02702 0.0
C1439 C 0.3808 0.36604 0.07343 0.0
C1440 C 0.43965 0.39235 0.09648 0.0
C1441 C 0.44296 0.40919 0.10345 0.0
C1442 C 0.42747 0.38291 0.07974 0.0
C1443 C 0.41859 0.39059 0.06958 0.0
C1444 C 0.42138 0.40724 0.07711 0.0
C1445 C 0.43336 0.41622 0.09406 0.0
C1446 C 0.4246 0.36503 0.07241 0.0
C1447 C 0.41224 0.41595 0.0667 0.0
H1448 H 0.40943 0.38331 0.99556 0.0
H1449 H 0.36443 0.3571 0.03456 0.0
H1450 H 0.43812 0.4114 0.03359 0.0
H1451 H 0.44129 0.39284 0.03622 0.0
H1452 H 0.43778 0.39897 0.00999 0.0
H1453 H 0.3668 0.35575 0.07203 0.0
H1454 H 0.38765 0.36108 0.08367 0.0
H1455 H 0.38193 0.37795 0.08174 0.0
H1456 H 0.44702 0.38682 0.10355 0.0
H1457 H 0.43547 0.42899 0.09971 0.0
H1458 H 0.43004 0.36601 0.05628 0.0
H1459 H 0.41047 0.35523 0.07102 0.0
H1460 H 0.43088 0.35998 0.08353 0.0
H1461 H 0.41607 0.41864 0.04974 0.0
H1462 H 0.41539 0.42865 0.07497 0.0
H1463 H 0.39794 0.40696 0.06665 0.0
C1464 C 0.65953 0.69048 0.3787 0.0
C1465 C 0.655 0.69158 0.35737 0.0
C1466 C 0.65595 0.69902 0.39556 0.0
C1467 C 0.64781 0.70904 0.39097 0.0
C1468 C 0.64269 0.7097 0.36959 0.0
C1469 C 0.64626 0.70091 0.35312 0.0
C1470 C 0.66139 0.69781 0.4182 0.0
C1471 C 0.63405 0.72029 0.36396 0.0
C1472 C 0.62711 0.7235 0.43387 0.0
C1473 C 0.64007 0.7412 0.43796 0.0
C1474 C 0.62968 0.71263 0.41921 0.0
C1475 C 0.64549 0.71971 0.40818 0.0
C1476 C 0.65875 0.73748 0.41257 0.0
C1477 C 0.6559 0.74797 0.42746 0.0
C1478 C 0.61532 0.69371 0.41518 0.0
C1479 C 0.67572 0.74561 0.40098 0.0
H1480 H 0.66623 0.68327 0.38221 0.0
H1481 H 0.64265 0.70189 0.33675 0.0
H1482 H 0.67192 0.71104 0.42404 0.0
H1483 H 0.65032 0.69372 0.42904 0.0
H1484 H 0.66616 0.68826 0.41936 0.0
H1485 H 0.63017 0.71882 0.3467 0.0
H1486 H 0.62231 0.71609 0.37361 0.0
H1487 H 0.6431 0.73454 0.36785 0.0
H1488 H 0.61493 0.71815 0.44215 0.0
H1489 H 0.66589 0.76169 0.4304 0.0
H1490 H 0.62048 0.68455 0.41705 0.0
H1491 H 0.61018 0.69196 0.39846 0.0
H1492 H 0.60438 0.68982 0.42623 0.0
H1493 H 0.68197 0.73743 0.40287 0.0
H1494 H 0.68499 0.75934 0.40692 0.0
H1495 H 0.6732 0.74593 0.38357 0.0
C1496 C 0.30452 0.94842 0.4294 0.0
C1497 C 0.30752 0.94791 0.40751 0.0
C1498 C 0.29264 0.93308 0.43975 0.0
C1499 C 0.28315 0.91695 0.42774 0.0
C1500 C 0.28621 0.91633 0.40561 0.0
C1501 C 0.29859 0.93182 0.39579 0.0
C1502 C 0.29007 0.9342 0.46348 0.0
C1503 C 0.27598 0.89948 0.39218 0.0
C1504 C 0.26045 0.87438 0.45851 0.0
C1505 C 0.24375 0.87215 0.46073 0.0
C1506 C 0.27339 0.8888 0.44763 0.0
C1507 C 0.26941 0.90103 0.43823 0.0
C1508 C 0.25249 0.89859 0.43983 0.0
C1509 C 0.23999 0.88439 0.45133 0.0
C1510 C 0.29141 0.8912 0.44663 0.0
C1511 C 0.24767 0.9112 0.42973 0.0
H1512 H 0.31156 0.96087 0.4385 0.0
H1513 H 0.30083 0.93148 0.37881 0.0
H1514 H 0.27669 0.93156 0.46623 0.0
H1515 H 0.29158 0.92395 0.47192 0.0
H1516 H 0.29945 0.9474 0.47078 0.0
H1517 H 0.28035 0.90105 0.37538 0.0
H1518 H 0.2772 0.88858 0.39925 0.0
H1519 H 0.26196 0.8954 0.39202 0.0
H1520 H 0.26348 0.86488 0.46529 0.0
H1521 H 0.22733 0.88313 0.45327 0.0
H1522 H 0.30097 0.904 0.45462 0.0
H1523 H 0.29523 0.89171 0.42971 0.0
H1524 H 0.29233 0.88036 0.45448 0.0
H1525 H 0.2551 0.92445 0.43783 0.0
H1526 H 0.23356 0.90656 0.43079 0.0
H1527 H 0.25116 0.91284 0.4126 0.0
C1528 C 0.04573 0.34475 0.37891 0.0
C1529 C 0.05297 0.34577 0.35879 0.0
C1530 C 0.0558 0.34841 0.39792 0.0
C1531 C 0.07343 0.35287 0.39679 0.0
C1532 C 0.08092 0.35436 0.37652 0.0
C1533 C 0.07066 0.35095 0.35779 0.0
C1534 C 0.04743 0.34704 0.41921 0.0
C1535 C 0.09962 0.35884 0.3746 0.0
C1536 C 0.10596 0.3734 0.4437 0.0
C1537 C 0.1064 0.35861 0.45139 0.0
C1538 C 0.0947 0.37165 0.42656 0.0
C1539 C 0.08379 0.35476 0.41668 0.0
C1540 C 0.08366 0.3397 0.42493 0.0
C1541 C 0.09481 0.34178 0.44229 0.0
C1542 C 0.09498 0.38798 0.41847 0.0
C1543 C 0.07229 0.32144 0.41483 0.0
H1544 H 0.03211 0.3409 0.37984 0.0
H1545 H 0.07637 0.3517 0.34234 0.0
H1546 H 0.04653 0.33568 0.42795 0.0
H1547 H 0.05554 0.35916 0.42931 0.0
H1548 H 0.03415 0.34515 0.41732 0.0
H1549 H 0.10368 0.36019 0.35768 0.0
H1550 H 0.10842 0.37141 0.38357 0.0
H1551 H 0.10136 0.3483 0.38183 0.0
H1552 H 0.11492 0.38647 0.45048 0.0
H1553 H 0.09472 0.33021 0.44843 0.0
H1554 H 0.08153 0.38561 0.41658 0.0
H1555 H 0.10087 0.39108 0.40246 0.0
H1556 H 0.10258 0.39971 0.4294 0.0
H1557 H 0.0585 0.31815 0.41416 0.0
H1558 H 0.07317 0.311 0.42372 0.0
H1559 H 0.07623 0.32119 0.3981 0.0
C1560 C 0.03353 0.2855 0.29934 0.0
C1561 C 0.02611 0.29394 0.28816 0.0
C1562 C 0.045 0.28118 0.28915 0.0
C1563 C 0.04868 0.28508 0.26726 0.0
C1564 C 0.04023 0.29253 0.25565 0.0
C1565 C 0.02923 0.29707 0.26632 0.0
C1566 C 0.05398 0.27351 0.30211 0.0
C1567 C 0.04352 0.29658 0.23219 0.0
C1568 C 0.09247 0.29811 0.2445 0.0
C1569 C 0.08896 0.28283 0.23248 0.0
C1570 C 0.07973 0.29855 0.25695 0.0
C1571 C 0.06283 0.28352 0.25698 0.0
C1572 C 0.0592 0.26792 0.24531 0.0
C1573 C 0.07236 0.2677 0.23332 0.0
C1574 C 0.08419 0.31544 0.26933 0.0
C1575 C 0.04124 0.25172 0.24477 0.0
H1576 H 0.03112 0.28314 0.31627 0.0
H1577 H 0.02328 0.3034 0.25762 0.0
H1578 H 0.05354 0.26212 0.29333 0.0
H1579 H 0.06789 0.28372 0.30475 0.0
H1580 H 0.04805 0.2691 0.31798 0.0
H1581 H 0.03439 0.30037 0.22496 0.0
H1582 H 0.057 0.30768 0.23035 0.0
H1583 H 0.04225 0.28494 0.22306 0.0
H1584 H 0.10508 0.31002 0.24368 0.0
H1585 H 0.06956 0.25573 0.22443 0.0
H1586 H 0.0799 0.31251 0.2861 0.0
H1587 H 0.07722 0.32167 0.26191 0.0
H1588 H 0.09836 0.32517 0.26959 0.0
H1589 H 0.03645 0.24817 0.26125 0.0
H1590 H 0.04097 0.24011 0.23672 0.0
H1591 H 0.03205 0.25466 0.23602 0.0
C1592 C 0.70133 0.71709 0.27485 0.0
C1593 C 0.70493 0.71585 0.29645 0.0
C1594 C 0.70527 0.7334 0.26635 0.0
C1595 C 0.71252 0.74875 0.27997 0.0
C1596 C 0.71636 0.74761 0.30179 0.0
C1597 C 0.71272 0.73117 0.30973 0.0
C1598 C 0.70134 0.73412 0.24288 0.0
C1599 C 0.72365 0.76359 0.31692 0.0
C1600 C 0.73291 0.79323 0.2531 0.0
C1601 C 0.71883 0.79629 0.25173 0.0
C1602 C 0.73119 0.77799 0.26261 0.0
C1603 C 0.71514 0.76571 0.27149 0.0
C1604 C 0.70113 0.76907 0.27104 0.0
C1605 C 0.70305 0.78413 0.26091 0.0
C1606 C 0.74633 0.77471 0.26248 0.0
C1607 C 0.68389 0.75646 0.28068 0.0
H1608 H 0.6954 0.70525 0.26454 0.0
H1609 H 0.71536 0.73018 0.3265 0.0
H1610 H 0.69096 0.73758 0.24117 0.0
H1611 H 0.71306 0.7446 0.23513 0.0
H1612 H 0.69701 0.7213 0.23415 0.0
H1613 H 0.72671 0.76069 0.33314 0.0
H1614 H 0.73565 0.77469 0.31047 0.0
H1615 H 0.71408 0.76816 0.31844 0.0
H1616 H 0.74529 0.80265 0.24652 0.0
H1617 H 0.69193 0.78603 0.25966 0.0
H1618 H 0.74273 0.76248 0.25279 0.0
H1619 H 0.74953 0.77255 0.27898 0.0
H1620 H 0.75816 0.78588 0.25572 0.0
H1621 H 0.67748 0.74375 0.27126 0.0
H1622 H 0.67493 0.76188 0.28096 0.0
H1623 H 0.68593 0.75346 0.29731 0.0
C1624 C 0.2664 0.96405 0.34429 0.0
C1625 C 0.2843 0.9752 0.34148 0.0
C1626 C 0.25478 0.95658 0.32663 0.0
C1627 C 0.26113 0.96061 0.30561 0.0
C1628 C 0.27903 0.97257 0.30266 0.0
C1629 C 0.29044 0.97958 0.32063 0.0
C1630 C 0.23582 0.94369 0.33049 0.0
C1631 C 0.28623 0.97749 0.28052 0.0
C1632 C 0.2349 0.92505 0.26294 0.0
C1633 C 0.22404 0.93092 0.25432 0.0
C1634 C 0.24729 0.93482 0.27925 0.0
C1635 C 0.24922 0.95111 0.28687 0.0
C1636 C 0.23899 0.95761 0.2775 0.0
C1637 C 0.22641 0.94737 0.26146 0.0
C1638 C 0.25786 0.92733 0.28888 0.0
C1639 C 0.2409 0.97509 0.28492 0.0
H1640 H 0.26152 0.96051 0.36032 0.0
H1641 H 0.30423 0.98831 0.31832 0.0
H1642 H 0.22743 0.94776 0.32193 0.0
H1643 H 0.23236 0.93034 0.32403 0.0
H1644 H 0.23281 0.94266 0.34779 0.0
H1645 H 0.29999 0.98843 0.28099 0.0
H1646 H 0.28553 0.9658 0.27217 0.0
H1647 H 0.27832 0.98156 0.27084 0.0
H1648 H 0.23353 0.91261 0.25717 0.0
H1649 H 0.21806 0.95202 0.25505 0.0
H1650 H 0.2549 0.92481 0.30609 0.0
H1651 H 0.27196 0.93703 0.28795 0.0
H1652 H 0.25515 0.91474 0.28071 0.0
H1653 H 0.23616 0.974 0.30147 0.0
H1654 H 0.23345 0.97922 0.27442 0.0
H1655 H 0.25481 0.98562 0.28532 0.0
C1656 C 0.69087 0.96194 0.33308 0.0
C1657 C 0.68302 0.97219 0.32932 0.0
C1658 C 0.69468 0.95377 0.31617 0.0
C1659 C 0.69084 0.95611 0.29481 0.0
C1660 C 0.68354 0.96699 0.29077 0.0
C1661 C 0.67953 0.97477 0.3081 0.0
C1662 C 0.70221 0.94206 0.32124 0.0
C1663 C 0.67964 0.97011 0.26818 0.0
C1664 C 0.71342 0.9423 0.25403 0.0
C1665 C 0.7004 0.92481 0.2488 0.0
C1666 C 0.71016 0.95313 0.26789 0.0
C1667 C 0.6936 0.94622 0.27704 0.0
C1668 C 0.68018 0.92891 0.27102 0.0
C1669 C 0.68369 0.91851 0.25681 0.0
C1670 C 0.72472 0.97165 0.2736 0.0
C1671 C 0.66236 0.92095 0.28053 0.0
H1672 H 0.69354 0.95975 0.34939 0.0
H1673 H 0.67355 0.98273 0.30504 0.0
H1674 H 0.69306 0.92826 0.31548 0.0
H1675 H 0.71458 0.94661 0.3128 0.0
H1676 H 0.70479 0.94193 0.33869 0.0
H1677 H 0.67557 0.98024 0.26764 0.0
H1678 H 0.69126 0.97445 0.25823 0.0
H1679 H 0.66906 0.95755 0.2608 0.0
H1680 H 0.7264 0.94732 0.24804 0.0
H1681 H 0.67338 0.90522 0.2524 0.0
H1682 H 0.72949 0.97212 0.29026 0.0
H1683 H 0.71998 0.98123 0.2729 0.0
H1684 H 0.73585 0.97598 0.26275 0.0
H1685 H 0.6634 0.91924 0.29796 0.0
H1686 H 0.653 0.90785 0.27298 0.0
H1687 H 0.65703 0.92996 0.2787 0.0
C1688 C 0.04465 0.72025 0.27458 0.0
C1689 C 0.03122 0.71792 0.28805 0.0
C1690 C 0.05533 0.73656 0.26523 0.0
C1691 C 0.05227 0.75079 0.26904 0.0
C1692 C 0.03863 0.74852 0.28243 0.0
C1693 C 0.02835 0.73213 0.29195 0.0
C1694 C 0.06993 0.73855 0.25129 0.0
C1695 C 0.03481 0.76333 0.28652 0.0
C1696 C 0.09054 0.79632 0.25921 0.0
C1697 C 0.08724 0.79887 0.23789 0.0
C1698 C 0.07896 0.78098 0.26982 0.0
C1699 C 0.06352 0.76803 0.25901 0.0
C1700 C 0.05962 0.77095 0.23794 0.0
C1701 C 0.0716 0.78628 0.22756 0.0
C1702 C 0.08364 0.77826 0.29224 0.0
C1703 C 0.04314 0.75755 0.22603 0.0
H1704 H 0.04687 0.70936 0.27126 0.0
H1705 H 0.01789 0.73038 0.30218 0.0
H1706 H 0.06796 0.74185 0.2348 0.0
H1707 H 0.08254 0.74963 0.25763 0.0
H1708 H 0.07085 0.72631 0.2504 0.0
H1709 H 0.02361 0.75936 0.29715 0.0
H1710 H 0.0464 0.77501 0.29399 0.0
H1711 H 0.03192 0.76757 0.2711 0.0
H1712 H 0.10238 0.80618 0.26751 0.0
H1713 H 0.06897 0.78804 0.21105 0.0
H1714 H 0.08582 0.7668 0.2921 0.0
H1715 H 0.07279 0.77514 0.30313 0.0
H1716 H 0.09558 0.79009 0.29889 0.0
H1717 H 0.04378 0.74541 0.22226 0.0
H1718 H 0.04109 0.7627 0.21079 0.0
H1719 H 0.03169 0.75363 0.23616 0.0
C1720 C 0.2923 0.31979 0.30301 0.0
C1721 C 0.28425 0.31651 0.3229 0.0
C1722 C 0.28253 0.31619 0.28376 0.0
C1723 C 0.26439 0.30957 0.2845 0.0
C1724 C 0.25615 0.30581 0.3045 0.0
C1725 C 0.26615 0.30915 0.32341 0.0
C1726 C 0.29169 0.31995 0.26271 0.0
C1727 C 0.23687 0.299 0.30602 0.0
C1728 C 0.24055 0.32013 0.24186 0.0
C1729 C 0.22995 0.30346 0.23179 0.0
C1730 C 0.25243 0.32249 0.25839 0.0
C1731 C 0.25409 0.3079 0.26469 0.0
C1732 C 0.24447 0.29138 0.25348 0.0
C1733 C 0.23238 0.2893 0.23725 0.0
C1734 C 0.26236 0.34031 0.26999 0.0
C1735 C 0.24621 0.27565 0.2594 0.0
H1736 H 0.30627 0.32533 0.30248 0.0
H1737 H 0.25982 0.30664 0.3387 0.0
H1738 H 0.28469 0.30842 0.25136 0.0
H1739 H 0.29172 0.33141 0.2553 0.0
H1740 H 0.30538 0.32302 0.26472 0.0
H1741 H 0.23236 0.29614 0.32274 0.0
H1742 H 0.2338 0.30898 0.29979 0.0
H1743 H 0.22936 0.28671 0.29599 0.0
H1744 H 0.23912 0.33127 0.23732 0.0
H1745 H 0.22426 0.27637 0.2296 0.0
H1746 H 0.27647 0.34488 0.27076 0.0
H1747 H 0.25794 0.33911 0.28673 0.0
H1748 H 0.26048 0.35059 0.26218 0.0
H1749 H 0.26012 0.27957 0.26154 0.0
H1750 H 0.24005 0.26473 0.24708 0.0
H1751 H 0.23987 0.27054 0.27487 0.0
C1752 C 0.30575 0.38079 0.39535 0.0
C1753 C 0.30425 0.36416 0.39807 0.0
C1754 C 0.2951 0.38568 0.40653 0.0
C1755 C 0.28248 0.37349 0.42036 0.0
C1756 C 0.2808 0.35664 0.42296 0.0
C1757 C 0.29187 0.35232 0.41206 0.0
C1758 C 0.2975 0.40392 0.4038 0.0
C1759 C 0.2673 0.34313 0.4373 0.0
C1760 C 0.26229 0.38494 0.46634 0.0
C1761 C 0.24564 0.37957 0.45772 0.0
C1762 C 0.27499 0.38442 0.45377 0.0
C1763 C 0.27081 0.37803 0.43224 0.0
C1764 C 0.25442 0.37361 0.42309 0.0
C1765 C 0.24211 0.37465 0.43587 0.0
C1766 C 0.29249 0.3896 0.46397 0.0
C1767 C 0.24939 0.36657 0.40024 0.0
H1768 H 0.31543 0.39011 0.38475 0.0
H1769 H 0.29077 0.3396 0.41462 0.0
H1770 H 0.28517 0.40286 0.39788 0.0
H1771 H 0.30084 0.41116 0.41954 0.0
H1772 H 0.30791 0.41185 0.39245 0.0
H1773 H 0.26727 0.33037 0.43689 0.0
H1774 H 0.2698 0.34837 0.4541 0.0
H1775 H 0.25414 0.34048 0.43235 0.0
H1776 H 0.26517 0.38873 0.48319 0.0
H1777 H 0.22947 0.371 0.42888 0.0
H1778 H 0.30313 0.39789 0.45309 0.0
H1779 H 0.29323 0.3775 0.46698 0.0
H1780 H 0.29473 0.39701 0.47947 0.0
H1781 H 0.25975 0.37512 0.3892 0.0
H1782 H 0.23698 0.36564 0.39484 0.0
H1783 H 0.24786 0.35315 0.39894 0.0
C1784 C 0.61955 0.93264 0.39744 0.0
C1785 C 0.63677 0.94646 0.39573 0.0
C1786 C 0.61579 0.91677 0.40725 0.0
C1787 C 0.62962 0.91459 0.41514 0.0
C1788 C 0.64703 0.92831 0.41282 0.0
C1789 C 0.65037 0.94407 0.40325 0.0
C1790 C 0.59706 0.9025 0.40959 0.0
C1791 C 0.66218 0.92642 0.42065 0.0
C1792 C 0.62396 0.88346 0.45985 0.0
C1793 C 0.62345 0.86915 0.44855 0.0
C1794 C 0.62514 0.89796 0.44908 0.0
C1795 C 0.62606 0.89828 0.42645 0.0
C1796 C 0.62499 0.88361 0.41489 0.0
C1797 C 0.62358 0.86915 0.4261 0.0
C1798 C 0.62601 0.91323 0.46198 0.0
C1799 C 0.62613 0.88353 0.39079 0.0
H1800 H 0.60899 0.93441 0.39159 0.0
H1801 H 0.66369 0.9544 0.40138 0.0
H1802 H 0.5948 0.88981 0.40226 0.0
H1803 H 0.59412 0.90025 0.42684 0.0
H1804 H 0.58784 0.906 0.402 0.0
H1805 H 0.67495 0.93803 0.41683 0.0
H1806 H 0.66167 0.92488 0.43826 0.0
H1807 H 0.66136 0.91434 0.41329 0.0
H1808 H 0.62363 0.88337 0.47721 0.0
H1809 H 0.6233 0.85815 0.41734 0.0
H1810 H 0.6163 0.91655 0.45561 0.0
H1811 H 0.63906 0.92515 0.46059 0.0
H1812 H 0.6236 0.91026 0.47923 0.0
H1813 H 0.6166 0.88663 0.38336 0.0
H1814 H 0.62372 0.87058 0.38409 0.0
H1815 H 0.63928 0.89398 0.38615 0.0
C1816 C 0.04565 0.69781 0.37756 0.0
C1817 C 0.05137 0.69117 0.36086 0.0
C1818 C 0.05625 0.70614 0.39588 0.0
C1819 C 0.0728 0.70751 0.39772 0.0
C1820 C 0.0781 0.69972 0.3816 0.0
C1821 C 0.06741 0.69183 0.36323 0.0
C1822 C 0.05024 0.71452 0.41253 0.0
C1823 C 0.09545 0.70052 0.3832 0.0
C1824 C 0.109 0.7477 0.42756 0.0
C1825 C 0.10938 0.74098 0.4477 0.0
C1826 C 0.09701 0.73698 0.41138 0.0
C1827 C 0.08536 0.71888 0.41508 0.0
C1828 C 0.08582 0.71184 0.43515 0.0
C1829 C 0.09772 0.723 0.45131 0.0
C1830 C 0.09685 0.74508 0.39026 0.0
C1831 C 0.0738 0.69252 0.43953 0.0
H1832 H 0.0333 0.6974 0.37579 0.0
H1833 H 0.07181 0.68654 0.35048 0.0
H1834 H 0.05189 0.71069 0.42884 0.0
H1835 H 0.05835 0.72917 0.41198 0.0
H1836 H 0.03639 0.71073 0.40988 0.0
H1837 H 0.09658 0.69178 0.37093 0.0
H1838 H 0.10607 0.71432 0.38096 0.0
H1839 H 0.09747 0.69661 0.39933 0.0
H1840 H 0.11822 0.76139 0.42429 0.0
H1841 H 0.09775 0.71767 0.46682 0.0
H1842 H 0.08365 0.74294 0.38662 0.0
H1843 H 0.10004 0.73854 0.37711 0.0
H1844 H 0.1063 0.75954 0.39026 0.0
H1845 H 0.06006 0.68932 0.43812 0.0
H1846 H 0.07614 0.68897 0.45574 0.0
H1847 H 0.07552 0.68409 0.42741 0.0
C1848 C 0.30583 0.02416 0.70694 0.0
C1849 C 0.32243 0.02629 0.70452 0.0
C1850 C 0.30254 0.03302 0.7236 0.0
C1851 C 0.31632 0.04467 0.73782 0.0
C1852 C 0.33291 0.04622 0.73608 0.0
C1853 C 0.33571 0.03681 0.71957 0.0
C1854 C 0.28455 0.03061 0.72524 0.0
C1855 C 0.34801 0.05874 0.75068 0.0
C1856 C 0.31282 0.08369 0.75952 0.0
C1857 C 0.30777 0.0788 0.78057 0.0
C1858 C 0.31607 0.07288 0.74567 0.0
C1859 C 0.31379 0.05658 0.75291 0.0
C1860 C 0.30863 0.05156 0.7742 0.0
C1861 C 0.30589 0.06286 0.78789 0.0
C1862 C 0.32188 0.07891 0.72324 0.0
C1863 C 0.30568 0.03411 0.78234 0.0
H1864 H 0.29551 0.01592 0.69539 0.0
H1865 H 0.3486 0.03861 0.71763 0.0
H1866 H 0.28025 0.02824 0.74205 0.0
H1867 H 0.28478 0.04288 0.72034 0.0
H1868 H 0.27481 0.0194 0.71487 0.0
H1869 H 0.35951 0.05705 0.74873 0.0
H1870 H 0.35185 0.07261 0.74706 0.0
H1871 H 0.34423 0.05672 0.76769 0.0
H1872 H 0.31446 0.09612 0.75398 0.0
H1873 H 0.30191 0.05909 0.80419 0.0
H1874 H 0.31197 0.06951 0.71136 0.0
H1875 H 0.33419 0.07899 0.72015 0.0
H1876 H 0.32396 0.09237 0.72051 0.0
H1877 H 0.29519 0.02303 0.77257 0.0
H1878 H 0.30199 0.03231 0.79941 0.0
H1879 H 0.31761 0.03319 0.78062 0.0
C1880 C 0.95984 0.27605 0.75428 0.0
C1881 C 0.96712 0.27667 0.73434 0.0
C1882 C 0.94838 0.25981 0.76333 0.0
C1883 C 0.94382 0.2438 0.75194 0.0
C1884 C 0.95099 0.24433 0.73168 0.0
C1885 C 0.96272 0.26079 0.7232 0.0
C1886 C 0.9412 0.2598 0.78512 0.0
C1887 C 0.94615 0.22754 0.71891 0.0
C1888 C 0.92529 0.20245 0.78501 0.0
C1889 C 0.90741 0.19607 0.78263 0.0
C1890 C 0.93735 0.21774 0.7746 0.0
C1891 C 0.93129 0.22658 0.76124 0.0
C1892 C 0.91318 0.21963 0.75801 0.0
C1893 C 0.90145 0.20456 0.76895 0.0
C1894 C 0.95656 0.22491 0.77871 0.0
C1895 C 0.9062 0.22846 0.74357 0.0
H1896 H 0.96332 0.28829 0.76303 0.0
H1897 H 0.96827 0.26122 0.70772 0.0
H1898 H 0.92682 0.2534 0.78388 0.0
H1899 H 0.94432 0.25197 0.79628 0.0
H1900 H 0.9465 0.27339 0.79217 0.0
H1901 H 0.9528 0.23023 0.70336 0.0
H1902 H 0.94956 0.21897 0.72825 0.0
H1903 H 0.93187 0.21995 0.71572 0.0
H1904 H 0.92983 0.1959 0.79573 0.0
H1905 H 0.88757 0.19949 0.76706 0.0
H1906 H 0.96231 0.23795 0.78736 0.0
H1907 H 0.96334 0.22708 0.76334 0.0
H1908 H 0.95913 0.21589 0.78842 0.0
H1909 H 0.90954 0.24159 0.75064 0.0
H1910 H 0.89184 0.22044 0.74117 0.0
H1911 H 0.9123 0.23075 0.72769 0.0
C1912 C 0.74425 0.69246 0.68932 0.0
C1913 C 0.72614 0.68262 0.69153 0.0
C1914 C 0.75558 0.69883 0.70736 0.0
C1915 C 0.74865 0.69535 0.72813 0.0
C1916 C 0.73039 0.68632 0.73049 0.0
C1917 C 0.71936 0.68003 0.71217 0.0
C1918 C 0.77498 0.70842 0.70417 0.0
C1919 C 0.7225 0.68248 0.75236 0.0
C1920 C 0.77615 0.69076 0.77176 0.0
C1921 C 0.78352 0.70725 0.78269 0.0
C1922 C 0.76468 0.68673 0.75415 0.0
C1923 C 0.76044 0.69949 0.74723 0.0
C1924 C 0.76769 0.71612 0.75828 0.0
C1925 C 0.77922 0.71984 0.77586 0.0
C1926 C 0.75732 0.66888 0.74272 0.0
C1927 C 0.76337 0.73 0.75144 0.0
H1928 H 0.74966 0.69463 0.67349 0.0
H1929 H 0.70539 0.67259 0.7141 0.0
H1930 H 0.78152 0.72091 0.714 0.0
H1931 H 0.78035 0.70003 0.70958 0.0
H1932 H 0.77829 0.71159 0.68713 0.0
H1933 H 0.70822 0.67714 0.7515 0.0
H1934 H 0.725 0.67263 0.76017 0.0
H1935 H 0.72862 0.69467 0.76276 0.0
H1936 H 0.77967 0.6811 0.77668 0.0
H1937 H 0.78482 0.73256 0.78434 0.0
H1938 H 0.76132 0.67068 0.72578 0.0
H1939 H 0.74289 0.66184 0.7426 0.0
H1940 H 0.76173 0.66034 0.75033 0.0
H1941 H 0.76757 0.73384 0.73479 0.0
H1942 H 0.76975 0.74209 0.76205 0.0
H1943 H 0.74909 0.72451 0.75148 0.0
C1944 C 0.69476 0.60374 0.63092 0.0
C1945 C 0.70151 0.62197 0.63427 0.0
C1946 C 0.70422 0.59741 0.61963 0.0
C1947 C 0.72076 0.60967 0.61182 0.0
C1948 C 0.72814 0.62798 0.61683 0.0
C1949 C 0.71837 0.6339 0.62794 0.0
C1950 C 0.69599 0.57779 0.61473 0.0
C1951 C 0.74589 0.64149 0.60919 0.0
C1952 C 0.75318 0.59845 0.58816 0.0
C1953 C 0.75118 0.6006 0.56629 0.0
C1954 C 0.74249 0.6001 0.60328 0.0
C1955 C 0.72955 0.60393 0.59624 0.0
C1956 C 0.72666 0.60476 0.57402 0.0
C1957 C 0.73756 0.60315 0.55932 0.0
C1958 C 0.74592 0.59906 0.6268 0.0
C1959 C 0.71284 0.6086 0.56584 0.0
H1960 H 0.68169 0.59454 0.6359 0.0
H1961 H 0.72375 0.64795 0.63115 0.0
H1962 H 0.69144 0.57498 0.5977 0.0
H1963 H 0.70559 0.57334 0.61704 0.0
H1964 H 0.68466 0.56989 0.62493 0.0
H1965 H 0.75043 0.65493 0.61629 0.0
H1966 H 0.75561 0.6375 0.61328 0.0
H1967 H 0.74539 0.6422 0.59148 0.0
H1968 H 0.76375 0.59653 0.59358 0.0
H1969 H 0.73586 0.60453 0.54237 0.0
H1970 H 0.73354 0.59136 0.63526 0.0
H1971 H 0.75282 0.61262 0.63418 0.0
H1972 H 0.75409 0.59289 0.62942 0.0
H1973 H 0.70023 0.59984 0.57334 0.0
H1974 H 0.71095 0.60681 0.54814 0.0
H1975 H 0.71663 0.62249 0.57025 0.0
C1976 C 0.35345 0.05266 0.61867 0.0
C1977 C 0.36553 0.05163 0.6324 0.0
C1978 C 0.35709 0.06874 0.60974 0.0
C1979 C 0.37341 0.08413 0.61417 0.0
C1980 C 0.38581 0.08316 0.62771 0.0
C1981 C 0.38166 0.06695 0.63682 0.0
C1982 C 0.34341 0.06927 0.5956 0.0
C1983 C 0.40349 0.09921 0.63243 0.0
C1984 C 0.38615 0.12028 0.57379 0.0
C1985 C 0.38176 0.13181 0.58433 0.0
C1986 C 0.38423 0.10512 0.5837 0.0
C1987 C 0.3774 0.10116 0.60449 0.0
C1988 C 0.37333 0.11292 0.61544 0.0
C1989 C 0.37574 0.12818 0.60534 0.0
C1990 C 0.38896 0.09304 0.57161 0.0
C1991 C 0.36583 0.10904 0.63754 0.0
H1992 H 0.34108 0.04092 0.61486 0.0
H1993 H 0.39115 0.06626 0.64727 0.0
H1994 H 0.34036 0.07931 0.60207 0.0
H1995 H 0.34841 0.07327 0.57928 0.0
H1996 H 0.33116 0.05625 0.5943 0.0
H1997 H 0.41177 0.0962 0.64304 0.0
H1998 H 0.41032 0.10441 0.61724 0.0
H1999 H 0.40204 0.10992 0.64022 0.0
H2000 H 0.39057 0.12274 0.55747 0.0
H2001 H 0.37265 0.13717 0.61383 0.0
H2002 H 0.37701 0.08024 0.56753 0.0
H2003 H 0.3975 0.09009 0.58176 0.0
H2004 H 0.39571 0.09888 0.55653 0.0
H2005 H 0.35303 0.09661 0.63686 0.0
H2006 H 0.36401 0.11988 0.64424 0.0
H2007 H 0.37445 0.10699 0.64869 0.0
C2008 C 0.93303 0.30666 0.66415 0.0
C2009 C 0.94905 0.30716 0.66541 0.0
C2010 C 0.922 0.29946 0.6459 0.0
C2011 C 0.92693 0.2922 0.62874 0.0
C2012 C 0.94344 0.29343 0.62951 0.0
C2013 C 0.95437 0.30107 0.64774 0.0
C2014 C 0.9047 0.29882 0.64546 0.0
C2015 C 0.94908 0.28559 0.61173 0.0
C2016 C 0.89061 0.25298 0.59762 0.0
C2017 C 0.89023 0.26035 0.57795 0.0
C2018 C 0.90251 0.26321 0.61413 0.0
C2019 C 0.91408 0.28148 0.61128 0.0
C2020 C 0.91347 0.2892 0.59178 0.0
C2021 C 0.90168 0.27852 0.57526 0.0
C2022 C 0.90281 0.25438 0.63459 0.0
C2023 C 0.92537 0.30871 0.58834 0.0
H2024 H 0.92891 0.31152 0.67766 0.0
H2025 H 0.96671 0.30135 0.6486 0.0
H2026 H 0.90242 0.30326 0.62983 0.0
H2027 H 0.89407 0.28497 0.64734 0.0
H2028 H 0.90389 0.30721 0.65849 0.0
H2029 H 0.9629 0.28911 0.6138 0.0
H2030 H 0.94082 0.27093 0.61144 0.0
H2031 H 0.94733 0.29017 0.59594 0.0
H2032 H 0.88152 0.23912 0.60022 0.0
H2033 H 0.90162 0.28437 0.56014 0.0
H2034 H 0.89989 0.26057 0.64839 0.0
H2035 H 0.91598 0.25626 0.63761 0.0
H2036 H 0.89324 0.23994 0.63405 0.0
H2037 H 0.92402 0.31666 0.60148 0.0
H2038 H 0.92258 0.3129 0.57279 0.0
H2039 H 0.93911 0.31186 0.58872 0.0
C2040 C 0.35197 0.31733 0.64356 0.0
C2041 C 0.35606 0.31523 0.6647 0.0
C2042 C 0.35521 0.30892 0.6262 0.0
C2043 C 0.36226 0.2978 0.63017 0.0
C2044 C 0.36677 0.29598 0.65143 0.0
C2045 C 0.3638 0.30485 0.66835 0.0
C2046 C 0.35068 0.31156 0.6037 0.0
C2047 C 0.374 0.28401 0.65647 0.0
C2048 C 0.35221 0.25866 0.5931 0.0
C2049 C 0.36844 0.26405 0.58406 0.0
C2050 C 0.34983 0.26979 0.60745 0.0
C2051 C 0.36388 0.28701 0.61251 0.0
C2052 C 0.37996 0.29302 0.60236 0.0
C2053 C 0.38212 0.28142 0.58846 0.0
C2054 C 0.33252 0.26275 0.61807 0.0
C2055 C 0.39514 0.31142 0.60695 0.0
H2056 H 0.34607 0.32539 0.64059 0.0
H2057 H 0.36691 0.303 0.6846 0.0
H2058 H 0.36176 0.31499 0.59306 0.0
H2059 H 0.33945 0.29905 0.5972 0.0
H2060 H 0.34725 0.32216 0.60309 0.0
H2061 H 0.37725 0.2844 0.6738 0.0
H2062 H 0.36435 0.27014 0.65154 0.0
H2063 H 0.38592 0.28788 0.6473 0.0
H2064 H 0.34137 0.2455 0.58935 0.0
H2065 H 0.39475 0.28579 0.58172 0.0
H2066 H 0.32748 0.27199 0.61608 0.0
H2067 H 0.33422 0.26173 0.63554 0.0
H2068 H 0.3226 0.24948 0.61148 0.0
H2069 H 0.39086 0.32137 0.60628 0.0
H2070 H 0.40574 0.31501 0.59544 0.0
H2071 H 0.40049 0.31221 0.62336 0.0
C2072 C 0.70176 0.06894 0.62642 0.0
C2073 C 0.69299 0.05295 0.61448 0.0
C2074 C 0.71415 0.08456 0.61686 0.0
C2075 C 0.71739 0.08416 0.59476 0.0
C2076 C 0.7081 0.06813 0.58253 0.0
C2077 C 0.6962 0.05265 0.59262 0.0
C2078 C 0.72418 0.10131 0.63052 0.0
C2079 C 0.71089 0.06726 0.55882 0.0
C2080 C 0.7399 0.12709 0.56476 0.0
C2081 C 0.75671 0.12959 0.56271 0.0
C2082 C 0.72698 0.11244 0.57531 0.0
C2083 C 0.73108 0.10025 0.58454 0.0
C2084 C 0.7481 0.10294 0.5831 0.0
C2085 C 0.7606 0.11738 0.57192 0.0
C2086 C 0.70884 0.10977 0.57615 0.0
C2087 C 0.75305 0.09037 0.59305 0.0
H2088 H 0.69936 0.06911 0.64338 0.0
H2089 H 0.6893 0.04028 0.58336 0.0
H2090 H 0.73823 0.10556 0.63072 0.0
H2091 H 0.72282 0.11218 0.62362 0.0
H2092 H 0.71974 0.09952 0.6473 0.0
H2093 H 0.7017 0.05407 0.55134 0.0
H2094 H 0.70929 0.07748 0.55046 0.0
H2095 H 0.72437 0.07011 0.5562 0.0
H2096 H 0.73678 0.13657 0.5581 0.0
H2097 H 0.77336 0.11886 0.5701 0.0
H2098 H 0.70488 0.10907 0.59303 0.0
H2099 H 0.69945 0.09698 0.56799 0.0
H2100 H 0.70782 0.12057 0.56838 0.0
H2101 H 0.74944 0.08852 0.61013 0.0
H2102 H 0.7672 0.09518 0.5921 0.0
H2103 H 0.74579 0.07719 0.58474 0.0
C2104 C 0.92726 0.64334 0.66793 0.0
C2105 C 0.94542 0.6522 0.66605 0.0
C2106 C 0.91613 0.63763 0.64971 0.0
C2107 C 0.92327 0.64075 0.62906 0.0
C2108 C 0.94153 0.6491 0.62701 0.0
C2109 C 0.95239 0.65477 0.64551 0.0
C2110 C 0.89672 0.62881 0.65258 0.0
C2111 C 0.94964 0.65255 0.60527 0.0
C2112 C 0.89257 0.61514 0.58187 0.0
C2113 C 0.88843 0.62761 0.57415 0.0
C2114 C 0.90417 0.61931 0.59948 0.0
C2115 C 0.91168 0.6363 0.60969 0.0
C2116 C 0.9077 0.64899 0.60179 0.0
C2117 C 0.89615 0.6445 0.58413 0.0
C2118 C 0.90821 0.60548 0.60735 0.0
C2119 C 0.91532 0.66721 0.61229 0.0
H2120 H 0.92171 0.64125 0.68368 0.0
H2121 H 0.96638 0.66149 0.64383 0.0
H2122 H 0.8918 0.63725 0.64601 0.0
H2123 H 0.88995 0.61593 0.64353 0.0
H2124 H 0.89318 0.62647 0.66967 0.0
H2125 H 0.96393 0.65796 0.60639 0.0
H2126 H 0.94365 0.64013 0.59527 0.0
H2127 H 0.94713 0.66216 0.59684 0.0
H2128 H 0.88675 0.60211 0.57412 0.0
H2129 H 0.89278 0.6541 0.5785 0.0
H2130 H 0.90376 0.60207 0.62399 0.0
H2131 H 0.92248 0.61081 0.60771 0.0
H2132 H 0.90186 0.59317 0.59714 0.0
H2133 H 0.91114 0.66604 0.62913 0.0
H2134 H 0.91128 0.67571 0.60383 0.0
H2135 H 0.92974 0.67394 0.61271 0.0
C2136 C 0.96838 0.70477 0.75223 0.0
C2137 C 0.97402 0.70946 0.73129 0.0
C2138 C 0.95794 0.71045 0.76206 0.0
C2139 C 0.95285 0.72102 0.7506 0.0
C2140 C 0.95901 0.72639 0.72971 0.0
C2141 C 0.96964 0.72059 0.72027 0.0
C2142 C 0.95183 0.70455 0.78447 0.0
C2143 C 0.95379 0.73763 0.71704 0.0
C2144 C 0.91022 0.71341 0.77152 0.0
C2145 C 0.91587 0.72726 0.78685 0.0
C2146 C 0.92204 0.71216 0.75804 0.0
C2147 C 0.93995 0.72498 0.76019 0.0
C2148 C 0.94552 0.73976 0.77451 0.0
C2149 C 0.93334 0.74075 0.78768 0.0
C2150 C 0.91552 0.69632 0.7428 0.0
C2151 C 0.96449 0.75369 0.77722 0.0
H2152 H 0.97198 0.6964 0.76096 0.0
H2153 H 0.97403 0.72426 0.70409 0.0
H2154 H 0.95489 0.71616 0.79507 0.0
H2155 H 0.9375 0.69568 0.7841 0.0
H2156 H 0.95791 0.69734 0.79164 0.0
H2157 H 0.96143 0.74258 0.7023 0.0
H2158 H 0.93979 0.72966 0.7123 0.0
H2159 H 0.95552 0.74912 0.72697 0.0
H2160 H 0.89662 0.70315 0.77064 0.0
H2161 H 0.93767 0.7515 0.79952 0.0
H2162 H 0.91946 0.687 0.74911 0.0
H2163 H 0.92136 0.70044 0.72687 0.0
H2164 H 0.90112 0.68911 0.74072 0.0
H2165 H 0.97137 0.74826 0.78659 0.0
H2166 H 0.96628 0.76579 0.78584 0.0
H2167 H 0.97072 0.75745 0.76145 0.0
C2168 C 0.29568 0.27495 0.73586 0.0
C2169 C 0.31253 0.2891 0.73286 0.0
C2170 C 0.29301 0.25951 0.74586 0.0
C2171 C 0.30755 0.2581 0.7526 0.0
C2172 C 0.32458 0.27213 0.74894 0.0
C2173 C 0.32684 0.28748 0.73923 0.0
C2174 C 0.27466 0.2449 0.74967 0.0
C2175 C 0.34044 0.27102 0.75546 0.0
C2176 C 0.30402 0.2278 0.79748 0.0
C2177 C 0.30272 0.21316 0.78608 0.0
C2178 C 0.30509 0.24228 0.78675 0.0
C2179 C 0.3051 0.24223 0.76406 0.0
C2180 C 0.3036 0.22739 0.75245 0.0
C2181 C 0.30231 0.21296 0.76361 0.0
C2182 C 0.30646 0.25775 0.79971 0.0
C2183 C 0.30382 0.22694 0.72827 0.0
H2184 H 0.28458 0.27615 0.73089 0.0
H2185 H 0.33986 0.29809 0.73637 0.0
H2186 H 0.27243 0.23222 0.74234 0.0
H2187 H 0.27272 0.24294 0.76714 0.0
H2188 H 0.26476 0.24784 0.74298 0.0
H2189 H 0.35274 0.28276 0.75062 0.0
H2190 H 0.34094 0.26995 0.77311 0.0
H2191 H 0.33964 0.25894 0.74812 0.0
H2192 H 0.30409 0.22787 0.81485 0.0
H2193 H 0.30142 0.2017 0.75478 0.0
H2194 H 0.29611 0.26054 0.79444 0.0
H2195 H 0.31915 0.26981 0.79699 0.0
H2196 H 0.30532 0.25531 0.81717 0.0
H2197 H 0.29347 0.22914 0.7215 0.0
H2198 H 0.3019 0.21416 0.72162 0.0
H2199 H 0.31644 0.23782 0.72282 0.0
C2200 C 0.7343 0.0339 0.67727 0.0
C2201 C 0.71624 0.02517 0.67999 0.0
C2202 C 0.746 0.0411 0.69492 0.0
C2203 C 0.73951 0.03944 0.71583 0.0
C2204 C 0.72132 0.02993 0.7188 0.0
C2205 C 0.70991 0.02298 0.70085 0.0
C2206 C 0.76531 0.05121 0.69107 0.0
C2207 C 0.71389 0.0277 0.74086 0.0
C2208 C 0.77122 0.04999 0.76301 0.0
C2209 C 0.77561 0.06743 0.7686 0.0
C2210 C 0.75926 0.04056 0.7461 0.0
C2211 C 0.75169 0.04886 0.73436 0.0
C2212 C 0.75604 0.06643 0.74002 0.0
C2213 C 0.76787 0.07546 0.75711 0.0
C2214 C 0.75479 0.02178 0.74069 0.0
C2215 C 0.74842 0.07583 0.72777 0.0
H2216 H 0.73937 0.03567 0.66127 0.0
H2217 H 0.69599 0.01615 0.70318 0.0
H2218 H 0.77067 0.06541 0.69561 0.0
H2219 H 0.77213 0.04619 0.70126 0.0
H2220 H 0.76828 0.05023 0.67405 0.0
H2221 H 0.69958 0.01857 0.74064 0.0
H2222 H 0.72012 0.02253 0.75185 0.0
H2223 H 0.7167 0.04077 0.74758 0.0
H2224 H 0.7771 0.04371 0.77196 0.0
H2225 H 0.77143 0.08902 0.76115 0.0
H2226 H 0.75865 0.02089 0.72411 0.0
H2227 H 0.74051 0.01275 0.74131 0.0
H2228 H 0.76135 0.01704 0.75181 0.0
H2229 H 0.752 0.07671 0.7107 0.0
H2230 H 0.75302 0.08944 0.73434 0.0
H2231 H 0.73401 0.06819 0.72821 0.0
C2232 C 0.04209 0.30927 0.03576 0.0
C2233 C 0.04799 0.32738 0.03361 0.0
C2234 C 0.05061 0.30351 0.04985 0.0
C2235 C 0.06546 0.31616 0.06194 0.0
C2236 C 0.07125 0.33444 0.06015 0.0
C2237 C 0.06242 0.33981 0.0461 0.0
C2238 C 0.04394 0.28391 0.05146 0.0
C2239 C 0.08708 0.34836 0.07269 0.0
C2240 C 0.08194 0.30297 0.11085 0.0
C2241 C 0.09578 0.30157 0.10244 0.0
C2242 C 0.07167 0.30728 0.09776 0.0
C2243 C 0.07543 0.31042 0.07578 0.0
C2244 C 0.08922 0.30878 0.06715 0.0
C2245 C 0.09919 0.30433 0.08056 0.0
C2246 C 0.05697 0.30872 0.10751 0.0
C2247 C 0.09376 0.31218 0.04385 0.0
H2248 H 0.03091 0.29956 0.02626 0.0
H2249 H 0.06709 0.35383 0.04458 0.0
H2250 H 0.05386 0.28079 0.04563 0.0
H2251 H 0.04162 0.28003 0.06844 0.0
H2252 H 0.03166 0.27574 0.04195 0.0
H2253 H 0.08957 0.36198 0.07002 0.0
H2254 H 0.08544 0.34584 0.09008 0.0
H2255 H 0.09873 0.34767 0.06797 0.0
H2256 H 0.07915 0.30068 0.12771 0.0
H2257 H 0.11 0.3035 0.07402 0.0
H2258 H 0.04461 0.30004 0.09843 0.0
H2259 H 0.05956 0.32252 0.10647 0.0
H2260 H 0.05519 0.30501 0.1246 0.0
H2261 H 0.08219 0.30353 0.03343 0.0
H2262 H 0.1045 0.30978 0.03947 0.0
H2263 H 0.09772 0.3261 0.04036 0.0
C2264 C 0.65818 0.71309 0.07586 0.0
C2265 C 0.66885 0.70773 0.06573 0.0
C2266 C 0.66519 0.73014 0.08517 0.0
C2267 C 0.68333 0.74206 0.08451 0.0
C2268 C 0.694 0.73716 0.07309 0.0
C2269 C 0.6866 0.72006 0.0637 0.0
C2270 C 0.65332 0.73498 0.09687 0.0
C2271 C 0.7134 0.7495 0.07205 0.0
C2272 C 0.69934 0.78972 0.10267 0.0
C2273 C 0.70317 0.7893 0.12446 0.0
C2274 C 0.69332 0.77457 0.08921 0.0
C2275 C 0.69126 0.75875 0.09777 0.0
C2276 C 0.69579 0.7585 0.11957 0.0
C2277 C 0.7016 0.77376 0.13267 0.0
C2278 C 0.6885 0.77529 0.06612 0.0
C2279 C 0.69398 0.74194 0.12924 0.0
H2280 H 0.64442 0.70371 0.07726 0.0
H2281 H 0.69495 0.71603 0.0559 0.0
H2282 H 0.65612 0.73585 0.11437 0.0
H2283 H 0.65569 0.74816 0.09204 0.0
H2284 H 0.63936 0.72508 0.09378 0.0
H2285 H 0.71946 0.74468 0.06028 0.0
H2286 H 0.71633 0.76297 0.06769 0.0
H2287 H 0.71952 0.75069 0.08808 0.0
H2288 H 0.7004 0.8017 0.09635 0.0
H2289 H 0.70475 0.7735 0.14946 0.0
H2290 H 0.67422 0.76677 0.06354 0.0
H2291 H 0.69478 0.77005 0.05531 0.0
H2292 H 0.69233 0.78898 0.06147 0.0
H2293 H 0.68006 0.73146 0.12903 0.0
H2294 H 0.69912 0.74429 0.14604 0.0
H2295 H 0.70101 0.73683 0.11959 0.0
C2296 C 0.28961 0.96191 0.05205 0.0
C2297 C 0.28254 0.95747 0.03108 0.0
C2298 C 0.27879 0.95723 0.06976 0.0
C2299 C 0.26051 0.94772 0.06639 0.0
C2300 C 0.25331 0.94363 0.04526 0.0
C2301 C 0.26443 0.94864 0.02785 0.0
C2302 C 0.28691 0.962 0.09208 0.0
C2303 C 0.23387 0.93338 0.04103 0.0
C2304 C 0.2321 0.91702 0.10902 0.0
C2305 C 0.22466 0.92653 0.11777 0.0
C2306 C 0.24408 0.92398 0.09261 0.0
C2307 C 0.24885 0.94091 0.08488 0.0
C2308 C 0.2418 0.95083 0.09409 0.0
C2309 C 0.22967 0.94344 0.11037 0.0
C2310 C 0.25118 0.91292 0.08305 0.0
C2311 C 0.24677 0.96902 0.08642 0.0
H2312 H 0.30361 0.96887 0.05465 0.0
H2313 H 0.25887 0.94519 0.0117 0.0
H2314 H 0.28135 0.96882 0.10148 0.0
H2315 H 0.28389 0.94976 0.10052 0.0
H2316 H 0.30127 0.97071 0.09192 0.0
H2317 H 0.23037 0.93202 0.02366 0.0
H2318 H 0.22834 0.91992 0.04755 0.0
H2319 H 0.22762 0.94001 0.04933 0.0
H2320 H 0.22804 0.90382 0.11447 0.0
H2321 H 0.224 0.95085 0.11723 0.0
H2322 H 0.26561 0.92046 0.08374 0.0
H2323 H 0.24703 0.90976 0.0659 0.0
H2324 H 0.24665 0.90029 0.09144 0.0
H2325 H 0.26114 0.97764 0.08682 0.0
H2326 H 0.24109 0.9755 0.09627 0.0
H2327 H 0.24222 0.96802 0.06953 0.0
C2328 C 0.3382 0.03618 0.95004 0.0
C2329 C 0.32673 0.02019 0.95959 0.0
C2330 C 0.33234 0.04722 0.94202 0.0
C2331 C 0.31453 0.04204 0.94337 0.0
C2332 C 0.30305 0.02638 0.95397 0.0
C2333 C 0.30932 0.01567 0.96209 0.0
C2334 C 0.34507 0.064 0.93118 0.0
C2335 C 0.28397 0.02041 0.95564 0.0
C2336 C 0.30385 0.07796 0.93106 0.0
C2337 C 0.3 0.07504 0.90895 0.0
C2338 C 0.30787 0.06685 0.94277 0.0
C2339 C 0.30785 0.05238 0.93215 0.0
C2340 C 0.30297 0.04874 0.91012 0.0
C2341 C 0.29919 0.06016 0.89876 0.0
C2342 C 0.31299 0.07115 0.96624 0.0
C2343 C 0.30263 0.0333 0.89827 0.0
H2344 H 0.35171 0.03984 0.94826 0.0
H2345 H 0.30036 0.00329 0.96939 0.0
H2346 H 0.3417 0.06274 0.9138 0.0
H2347 H 0.34428 0.07545 0.93781 0.0
H2348 H 0.35871 0.06688 0.93309 0.0
H2349 H 0.27723 0.00913 0.9665 0.0
H2350 H 0.28222 0.03148 0.96153 0.0
H2351 H 0.27757 0.01622 0.9395 0.0
H2352 H 0.30416 0.08923 0.93914 0.0
H2353 H 0.29638 0.05787 0.88167 0.0
H2354 H 0.32705 0.07573 0.96849 0.0
H2355 H 0.30574 0.05915 0.97583 0.0
H2356 H 0.31056 0.08166 0.97262 0.0
H2357 H 0.31609 0.03569 0.89713 0.0
H2358 H 0.29691 0.03126 0.88179 0.0
H2359 H 0.29502 0.02094 0.90713 0.0
C2360 C 0.97102 0.26881 0.95966 0.0
C2361 C 0.96642 0.28191 0.95724 0.0
C2362 C 0.95986 0.2513 0.95206 0.0
C2363 C 0.94377 0.24685 0.94185 0.0
C2364 C 0.93863 0.25976 0.94059 0.0
C2365 C 0.94998 0.27708 0.94831 0.0
C2366 C 0.9657 0.23783 0.9539 0.0
C2367 C 0.92152 0.25556 0.92999 0.0
C2368 C 0.92345 0.21156 0.89744 0.0
C2369 C 0.90912 0.19798 0.90758 0.0
C2370 C 0.93534 0.22718 0.90874 0.0
C2371 C 0.93288 0.22929 0.93075 0.0
C2372 C 0.91894 0.21527 0.94133 0.0
C2373 C 0.90718 0.19981 0.9296 0.0
C2374 C 0.95 0.24183 0.89682 0.0
C2375 C 0.916 0.21693 0.96481 0.0
H2376 H 0.98368 0.27239 0.96656 0.0
H2377 H 0.94619 0.28703 0.94661 0.0
H2378 H 0.95507 0.2252 0.95992 0.0
H2379 H 0.96897 0.23491 0.93781 0.0
H2380 H 0.97732 0.24263 0.96474 0.0
H2381 H 0.9189 0.2667 0.93172 0.0
H2382 H 0.92166 0.25259 0.91265 0.0
H2383 H 0.91063 0.24363 0.93695 0.0
H2384 H 0.92494 0.21032 0.8804 0.0
H2385 H 0.89628 0.18923 0.93759 0.0
H2386 H 0.9626 0.24646 0.90552 0.0
H2387 H 0.9479 0.25331 0.89588 0.0
H2388 H 0.95099 0.23756 0.88026 0.0
H2389 H 0.92829 0.22181 0.97432 0.0
H2390 H 0.90596 0.20412 0.97125 0.0
H2391 H 0.91168 0.22677 0.96712 0.0
C2392 C 0.69886 0.65379 0.96397 0.0
C2393 C 0.69797 0.66541 0.97909 0.0
C2394 C 0.71288 0.65973 0.95014 0.0
C2395 C 0.72626 0.67772 0.95138 0.0
C2396 C 0.72498 0.6897 0.96582 0.0
C2397 C 0.71087 0.68339 0.97954 0.0
C2398 C 0.7138 0.64657 0.93493 0.0
C2399 C 0.73891 0.70902 0.96746 0.0
C2400 C 0.77148 0.68807 0.93621 0.0
C2401 C 0.77271 0.69439 0.91546 0.0
C2402 C 0.75644 0.68264 0.94803 0.0
C2403 C 0.74229 0.68367 0.93894 0.0
C2404 C 0.7435 0.69025 0.91812 0.0
C2405 C 0.7587 0.69552 0.9066 0.0
C2406 C 0.75567 0.67573 0.97022 0.0
C2407 C 0.72868 0.69158 0.90797 0.0
H2408 H 0.68892 0.6399 0.96345 0.0
H2409 H 0.71021 0.69249 0.99104 0.0
H2410 H 0.71625 0.65163 0.91844 0.0
H2411 H 0.72484 0.64474 0.93987 0.0
H2412 H 0.70167 0.63344 0.93461 0.0
H2413 H 0.73516 0.7169 0.97799 0.0
H2414 H 0.75116 0.71026 0.97404 0.0
H2415 H 0.74168 0.71482 0.95135 0.0
H2416 H 0.78237 0.68746 0.94331 0.0
H2417 H 0.7595 0.70022 0.89048 0.0
H2418 H 0.74455 0.66199 0.97099 0.0
H2419 H 0.7535 0.68396 0.98216 0.0
H2420 H 0.76779 0.67573 0.97492 0.0
H2421 H 0.71692 0.67823 0.90639 0.0
H2422 H 0.73185 0.69741 0.89186 0.0
H2423 H 0.72534 0.69985 0.91837 0.0
C2424 C 0.95043 0.66562 0.96025 0.0
C2425 C 0.96256 0.6768 0.97611 0.0
C2426 C 0.94161 0.6716 0.94705 0.0
C2427 C 0.94503 0.68923 0.9497 0.0
C2428 C 0.95793 0.70087 0.96488 0.0
C2429 C 0.96653 0.69452 0.97791 0.0
C2430 C 0.928 0.65877 0.93101 0.0
C2431 C 0.96205 0.71979 0.96809 0.0
C2432 C 0.92742 0.70673 0.90635 0.0
C2433 C 0.91171 0.70366 0.91511 0.0
C2434 C 0.93861 0.70244 0.91756 0.0
C2435 C 0.93397 0.69491 0.938 0.0
C2436 C 0.91834 0.69217 0.9471 0.0
C2437 C 0.90745 0.69661 0.93559 0.0
C2438 C 0.95518 0.7056 0.90735 0.0
C2439 C 0.91293 0.68425 0.96889 0.0
H2440 H 0.94733 0.65194 0.95862 0.0
H2441 H 0.97595 0.70331 0.99003 0.0
H2442 H 0.91492 0.65593 0.93597 0.0
H2443 H 0.93021 0.66467 0.91498 0.0
H2444 H 0.92796 0.64603 0.9296 0.0
H2445 H 0.97364 0.72765 0.97885 0.0
H2446 H 0.96439 0.72637 0.95247 0.0
H2447 H 0.95076 0.71996 0.97519 0.0
H2448 H 0.93075 0.71205 0.89047 0.0
H2449 H 0.89551 0.6945 0.94264 0.0
H2450 H 0.95459 0.69274 0.90423 0.0
H2451 H 0.9665 0.7136 0.9184 0.0
H2452 H 0.95743 0.71253 0.89197 0.0
H2453 H 0.91117 0.67072 0.96865 0.0
H2454 H 0.90061 0.6834 0.97394 0.0
H2455 H 0.92328 0.69231 0.9811 0.0
C2456 C 0.33578 0.29883 0.92415 0.0
C2457 C 0.33381 0.30339 0.94515 0.0
C2458 C 0.32924 0.28112 0.91766 0.0
C2459 C 0.32097 0.26765 0.93271 0.0
C2460 C 0.31898 0.27215 0.954 0.0
C2461 C 0.32521 0.29001 0.9599 0.0
C2462 C 0.33127 0.27684 0.89467 0.0
C2463 C 0.31067 0.25817 0.97061 0.0
C2464 C 0.29371 0.22119 0.90843 0.0
C2465 C 0.306 0.21556 0.90744 0.0
C2466 C 0.29816 0.23788 0.91738 0.0
C2467 C 0.31515 0.249 0.92612 0.0
C2468 C 0.32726 0.243 0.92639 0.0
C2469 C 0.32266 0.22654 0.91674 0.0
C2470 C 0.28498 0.24397 0.91645 0.0
C2471 C 0.34542 0.25433 0.93593 0.0
H2472 H 0.34219 0.30913 0.91262 0.0
H2473 H 0.32371 0.29356 0.97615 0.0
H2474 H 0.33977 0.27093 0.89408 0.0
H2475 H 0.31843 0.26693 0.88746 0.0
H2476 H 0.337 0.28876 0.88467 0.0
H2477 H 0.30971 0.2638 0.98631 0.0
H2478 H 0.29743 0.24783 0.96503 0.0
H2479 H 0.31842 0.25153 0.97295 0.0
H2480 H 0.28068 0.21273 0.90181 0.0
H2481 H 0.33246 0.22266 0.9158 0.0
H2482 H 0.28944 0.25512 0.90535 0.0
H2483 H 0.2838 0.24896 0.93244 0.0
H2484 H 0.27192 0.23322 0.9108 0.0
H2485 H 0.35308 0.26568 0.9255 0.0
H2486 H 0.35237 0.24679 0.93763 0.0
H2487 H 0.34496 0.25984 0.95192 0.0
C2488 C 0.69963 0.04499 0.96158 0.0
C2489 C 0.69932 0.03385 0.97766 0.0
C2490 C 0.71232 0.05097 0.94588 0.0
C2491 C 0.72488 0.04551 0.94614 0.0
C2492 C 0.72397 0.03339 0.96152 0.0
C2493 C 0.71126 0.02778 0.97719 0.0
C2494 C 0.71293 0.06398 0.92983 0.0
C2495 C 0.73695 0.02704 0.96209 0.0
C2496 C 0.75363 0.05637 0.89769 0.0
C2497 C 0.76838 0.07224 0.90477 0.0
C2498 C 0.73947 0.04718 0.91115 0.0
C2499 C 0.74009 0.05413 0.93205 0.0
C2500 C 0.75515 0.06987 0.93944 0.0
C2501 C 0.76913 0.07862 0.92579 0.0
C2502 C 0.72371 0.03031 0.90286 0.0
C2503 C 0.75636 0.07772 0.96163 0.0
H2504 H 0.6904 0.04967 0.96176 0.0
H2505 H 0.71097 0.01899 0.98941 0.0
H2506 H 0.72471 0.07711 0.93311 0.0
H2507 H 0.71385 0.05963 0.91334 0.0
H2508 H 0.70131 0.0656 0.93048 0.0
H2509 H 0.73309 0.01589 0.9731 0.0
H2510 H 0.73843 0.0227 0.94582 0.0
H2511 H 0.74988 0.0381 0.96756 0.0
H2512 H 0.75295 0.05139 0.88145 0.0
H2513 H 0.78066 0.09063 0.93157 0.0
H2514 H 0.71238 0.03236 0.90144 0.0
H2515 H 0.72027 0.01955 0.9143 0.0
H2516 H 0.72582 0.02591 0.88693 0.0
H2517 H 0.7459 0.08103 0.96345 0.0
H2518 H 0.7691 0.08992 0.965 0.0
H2519 H 0.75444 0.06792 0.9739 0.0
C2520 C 0.66225 0.95929 0.0884 0.0
C2521 C 0.66891 0.96866 0.06959 0.0
C2522 C 0.66835 0.94853 0.09658 0.0
C2523 C 0.68116 0.94674 0.08546 0.0
C2524 C 0.68728 0.95535 0.06585 0.0
C2525 C 0.68122 0.96641 0.05824 0.0
C2526 C 0.66163 0.93975 0.1177 0.0
C2527 C 0.70058 0.95331 0.05328 0.0
C2528 C 0.7085 0.93547 0.12173 0.0
C2529 C 0.69928 0.91696 0.12005 0.0
C2530 C 0.70327 0.94546 0.10965 0.0
C2531 C 0.68872 0.93665 0.09527 0.0
C2532 C 0.68011 0.91798 0.09252 0.0
C2533 C 0.68535 0.90831 0.10522 0.0
C2534 C 0.71258 0.96531 0.11335 0.0
C2535 C 0.66485 0.90816 0.07696 0.0
H2536 H 0.65278 0.96095 0.09735 0.0
H2537 H 0.68634 0.97351 0.04363 0.0
H2538 H 0.65613 0.92523 0.11581 0.0
H2539 H 0.67252 0.94477 0.12972 0.0
H2540 H 0.65143 0.94224 0.12412 0.0
H2541 H 0.70245 0.95914 0.0372 0.0
H2542 H 0.71327 0.95997 0.0622 0.0
H2543 H 0.69658 0.93909 0.05126 0.0
H2544 H 0.71924 0.94207 0.1333 0.0
H2545 H 0.67837 0.89395 0.10387 0.0
H2546 H 0.7037 0.96909 0.12112 0.0
H2547 H 0.7163 0.97211 0.09788 0.0
H2548 H 0.72447 0.97023 0.12373 0.0
H2549 H 0.65333 0.90833 0.08332 0.0
H2550 H 0.66141 0.89414 0.07428 0.0
H2551 H 0.66773 0.91475 0.06132 0.0
C2552 C 0.04325 0.71864 0.08722 0.0
C2553 C 0.03381 0.71532 0.06777 0.0
C2554 C 0.05441 0.73596 0.0951 0.0
C2555 C 0.05652 0.75048 0.08312 0.0
C2556 C 0.04734 0.74731 0.06325 0.0
C2557 C 0.03595 0.72974 0.05589 0.0
C2558 C 0.06376 0.7387 0.1165 0.0
C2559 C 0.04952 0.76246 0.04985 0.0
C2560 C 0.07367 0.79313 0.11654 0.0
C2561 C 0.09164 0.80073 0.11419 0.0
C2562 C 0.06193 0.77718 0.1056 0.0
C2563 C 0.06836 0.76886 0.09171 0.0
C2564 C 0.08646 0.77715 0.08825 0.0
C2565 C 0.0979 0.79288 0.09973 0.0
C2566 C 0.04277 0.76865 0.11002 0.0
C2567 C 0.09384 0.76893 0.0733 0.0
H2568 H 0.04163 0.70765 0.09666 0.0
H2569 H 0.02875 0.72732 0.04085 0.0
H2570 H 0.07804 0.74639 0.11448 0.0
H2571 H 0.06036 0.74649 0.12766 0.0
H2572 H 0.06045 0.72599 0.12401 0.0
H2573 H 0.04193 0.7578 0.03445 0.0
H2574 H 0.04526 0.77063 0.05888 0.0
H2575 H 0.06347 0.7712 0.04634 0.0
H2576 H 0.06885 0.79916 0.12782 0.0
H2577 H 0.11182 0.79887 0.09779 0.0
H2578 H 0.03868 0.75649 0.11923 0.0
H2579 H 0.03496 0.7646 0.0948 0.0
H2580 H 0.03968 0.77764 0.11938 0.0
H2581 H 0.09274 0.75691 0.08052 0.0
H2582 H 0.10775 0.77819 0.07007 0.0
H2583 H 0.08634 0.76475 0.05784 0.0
C2584 C 0.29233 0.32667 0.0338 0.0
C2585 C 0.30233 0.34497 0.03077 0.0
C2586 C 0.2788 0.31982 0.04842 0.0
C2587 C 0.27505 0.33155 0.06006 0.0
C2588 C 0.28537 0.35005 0.05746 0.0
C2589 C 0.29896 0.35654 0.04294 0.0
C2590 C 0.26823 0.30003 0.05102 0.0
C2591 C 0.28169 0.36296 0.06947 0.0
C2592 C 0.22912 0.3145 0.07895 0.0
C2593 C 0.23106 0.31281 0.10095 0.0
C2594 C 0.24331 0.32037 0.06543 0.0
C2595 C 0.25978 0.32447 0.0741 0.0
C2596 C 0.26172 0.3224 0.09623 0.0
C2597 C 0.24734 0.3167 0.10944 0.0
C2598 C 0.24077 0.32261 0.04196 0.0
C2599 C 0.27902 0.32641 0.10597 0.0
H2600 H 0.29495 0.31766 0.02455 0.0
H2601 H 0.30661 0.3707 0.04069 0.0
H2602 H 0.26773 0.29685 0.06821 0.0
H2603 H 0.25465 0.29503 0.04521 0.0
H2604 H 0.27362 0.29284 0.04202 0.0
H2605 H 0.29135 0.37697 0.06627 0.0
H2606 H 0.26854 0.36049 0.06475 0.0
H2607 H 0.28172 0.361 0.08697 0.0
H2608 H 0.21659 0.31169 0.07241 0.0
H2609 H 0.24879 0.31524 0.12643 0.0
H2610 H 0.24475 0.31468 0.03194 0.0
H2611 H 0.24915 0.33669 0.03784 0.0
H2612 H 0.22704 0.31849 0.03767 0.0
H2613 H 0.28399 0.31871 0.09729 0.0
H2614 H 0.27814 0.32326 0.12322 0.0
H2615 H 0.28871 0.34065 0.10433 0.0
C2616 C 0.72829 0.64827 0.36009 0.0
C2617 C 0.71293 0.64857 0.36404 0.0
C2618 C 0.736 0.64284 0.37567 0.0
C2619 C 0.72813 0.63743 0.39577 0.0
C2620 C 0.71242 0.63732 0.39977 0.0
C2621 C 0.70502 0.64296 0.38387 0.0
C2622 C 0.7528 0.64326 0.37076 0.0
C2623 C 0.70359 0.63149 0.42094 0.0
C2624 C 0.74459 0.61165 0.42728 0.0
C2625 C 0.75787 0.62516 0.44018 0.0
C2626 C 0.73407 0.61521 0.41359 0.0
C2627 C 0.73695 0.63269 0.41272 0.0
C2628 C 0.74971 0.64615 0.42654 0.0
C2629 C 0.75994 0.64221 0.44014 0.0
C2630 C 0.7205 0.60046 0.39924 0.0
C2631 C 0.75321 0.66496 0.42615 0.0
H2632 H 0.73451 0.65254 0.34483 0.0
H2633 H 0.69312 0.64308 0.38703 0.0
H2634 H 0.76329 0.65261 0.38212 0.0
H2635 H 0.7513 0.62997 0.37288 0.0
H2636 H 0.75702 0.6474 0.35417 0.0
H2637 H 0.69095 0.6312 0.42111 0.0
H2638 H 0.7013 0.61808 0.4245 0.0
H2639 H 0.71215 0.64064 0.43402 0.0
H2640 H 0.74293 0.59847 0.42714 0.0
H2641 H 0.7699 0.65263 0.45042 0.0
H2642 H 0.72475 0.60271 0.38241 0.0
H2643 H 0.70795 0.60032 0.39982 0.0
H2644 H 0.7183 0.58726 0.40379 0.0
H2645 H 0.75879 0.67077 0.41057 0.0
H2646 H 0.76245 0.67348 0.43921 0.0
H2647 H 0.74091 0.66521 0.42767 0.0
C2648 C 0.35782 0.05715 0.40119 0.0
C2649 C 0.34 0.04499 0.40294 0.0
C2650 C 0.36519 0.07447 0.40999 0.0
C2651 C 0.35443 0.07972 0.42056 0.0
C2652 C 0.33625 0.06793 0.42086 0.0
C2653 C 0.32927 0.0507 0.41214 0.0
C2654 C 0.38462 0.08667 0.40927 0.0
C2655 C 0.32427 0.07311 0.43166 0.0
C2656 C 0.37115 0.11188 0.46837 0.0
C2657 C 0.37243 0.12716 0.45968 0.0
C2658 C 0.36615 0.09664 0.45551 0.0
C2659 C 0.3622 0.09663 0.43343 0.0
C2660 C 0.36423 0.11228 0.42436 0.0
C2661 C 0.36938 0.1274 0.4376 0.0
C2662 C 0.36436 0.0803 0.46579 0.0
C2663 C 0.3601 0.11277 0.40093 0.0
H2664 H 0.3662 0.05284 0.39412 0.0
H2665 H 0.31545 0.04145 0.41331 0.0
H2666 H 0.38774 0.10013 0.40461 0.0
H2667 H 0.39052 0.08794 0.42548 0.0
H2668 H 0.39077 0.08165 0.39788 0.0
H2669 H 0.31032 0.06318 0.42846 0.0
H2670 H 0.32683 0.07438 0.44925 0.0
H2671 H 0.32675 0.08616 0.42615 0.0
H2672 H 0.37373 0.11175 0.48538 0.0
H2673 H 0.37024 0.13917 0.43087 0.0
H2674 H 0.37157 0.07512 0.45665 0.0
H2675 H 0.35045 0.06975 0.46546 0.0
H2676 H 0.36928 0.08293 0.4827 0.0
H2677 H 0.36639 0.1071 0.39082 0.0
H2678 H 0.3644 0.12645 0.39582 0.0
H2679 H 0.34584 0.10453 0.39789 0.0
C2680 C 0.9608 0.3032 0.37952 0.0
C2681 C 0.95515 0.29935 0.35797 0.0
C2682 C 0.94885 0.29683 0.39609 0.0
C2683 C 0.93086 0.28623 0.39094 0.0
C2684 C 0.92504 0.28286 0.36922 0.0
C2685 C 0.93726 0.28954 0.35299 0.0
C2686 C 0.95551 0.3009 0.41908 0.0
C2687 C 0.90596 0.2715 0.3631 0.0
C2688 C 0.90223 0.25179 0.43028 0.0
C2689 C 0.89314 0.2595 0.43928 0.0
C2690 C 0.91468 0.26048 0.41474 0.0
C2691 C 0.91825 0.27738 0.40815 0.0
C2692 C 0.90937 0.28542 0.41747 0.0
C2693 C 0.8968 0.2763 0.43286 0.0
C2694 C 0.92373 0.25137 0.40499 0.0
C2695 C 0.913 0.30352 0.41102 0.0
H2696 H 0.9746 0.31091 0.38349 0.0
H2697 H 0.93278 0.28655 0.33638 0.0
H2698 H 0.94832 0.30603 0.42834 0.0
H2699 H 0.95325 0.28855 0.42667 0.0
H2700 H 0.96964 0.31076 0.42038 0.0
H2701 H 0.90348 0.27114 0.34555 0.0
H2702 H 0.90115 0.25775 0.36825 0.0
H2703 H 0.89826 0.27651 0.37142 0.0
H2704 H 0.89923 0.23868 0.43498 0.0
H2705 H 0.88984 0.28232 0.43992 0.0
H2706 H 0.93804 0.25988 0.4072 0.0
H2707 H 0.9208 0.24922 0.38749 0.0
H2708 H 0.91968 0.23836 0.41217 0.0
H2709 H 0.9271 0.31325 0.41309 0.0
H2710 H 0.9056 0.30828 0.42054 0.0
H2711 H 0.90951 0.30313 0.3938 0.0
C2712 C 0.02002 0.38374 0.28346 0.0
C2713 C 0.00752 0.3677 0.29202 0.0
C2714 C 0.0151 0.39469 0.273 0.0
C2715 C 0.99723 0.38932 0.2708 0.0
C2716 C 0.98468 0.37384 0.28085 0.0
C2717 C 0.99 0.36327 0.29151 0.0
C2718 C 0.02893 0.41132 0.26294 0.0
C2719 C 0.9655 0.36765 0.27882 0.0
C2720 C 0.98479 0.42181 0.24857 0.0
C2721 C 0.98249 0.41707 0.22666 0.0
C2722 C 0.98945 0.41282 0.26326 0.0
C2723 C 0.99162 0.39864 0.25583 0.0
C2724 C 0.98894 0.39358 0.23377 0.0
C2725 C 0.98453 0.40295 0.21943 0.0
C2726 C 0.99245 0.41874 0.28659 0.0
C2727 C 0.99091 0.37837 0.22526 0.0
H2728 H 0.03361 0.38734 0.28403 0.0
H2729 H 0.98026 0.35087 0.29807 0.0
H2730 H 0.02813 0.40928 0.24526 0.0
H2731 H 0.02683 0.42261 0.26649 0.0
H2732 H 0.04224 0.41494 0.26866 0.0
H2733 H 0.9577 0.35681 0.28988 0.0
H2734 H 0.96311 0.37877 0.28214 0.0
H2735 H 0.96081 0.36272 0.26215 0.0
H2736 H 0.98338 0.43287 0.25412 0.0
H2737 H 0.9826 0.39921 0.20251 0.0
H2738 H 0.00623 0.42359 0.29137 0.0
H2739 H 0.98428 0.40741 0.2968 0.0
H2740 H 0.98948 0.42949 0.28991 0.0
H2741 H 0.00451 0.3814 0.22798 0.0
H2742 H 0.98762 0.37564 0.20784 0.0
H2743 H 0.98237 0.36617 0.23399 0.0
C2744 C 0.61975 0.6163 0.28408 0.0
C2745 C 0.63514 0.62004 0.29518 0.0
C2746 C 0.60793 0.59912 0.27624 0.0
C2747 C 0.61159 0.58528 0.27945 0.0
C2748 C 0.62665 0.58875 0.29154 0.0
C2749 C 0.63823 0.60609 0.29934 0.0
C2750 C 0.59192 0.59596 0.26367 0.0
C2751 C 0.63098 0.57434 0.29533 0.0
C2752 C 0.57379 0.53869 0.26762 0.0
C2753 C 0.57661 0.53581 0.2462 0.0
C2754 C 0.58543 0.55444 0.27899 0.0
C2755 C 0.60025 0.56762 0.26873 0.0
C2756 C 0.60354 0.56448 0.24742 0.0
C2757 C 0.59167 0.54867 0.23642 0.0
C2758 C 0.58149 0.55726 0.3017 0.0
C2759 C 0.61922 0.57818 0.23589 0.0
H2760 H 0.61713 0.62693 0.28098 0.0
H2761 H 0.65009 0.60884 0.30787 0.0
H2762 H 0.5928 0.59247 0.24673 0.0
H2763 H 0.5801 0.58465 0.27016 0.0
H2764 H 0.59029 0.60779 0.26398 0.0
H2765 H 0.64212 0.57869 0.30687 0.0
H2766 H 0.61954 0.5624 0.30147 0.0
H2767 H 0.63434 0.57039 0.27992 0.0
H2768 H 0.56234 0.52871 0.27544 0.0
H2769 H 0.59387 0.5467 0.21981 0.0
H2770 H 0.57838 0.56808 0.3023 0.0
H2771 H 0.59305 0.56139 0.31242 0.0
H2772 H 0.57033 0.54514 0.30803 0.0
H2773 H 0.61803 0.5901 0.23346 0.0
H2774 H 0.62065 0.57315 0.22 0.0
H2775 H 0.63125 0.58241 0.2457 0.0
C2776 C 0.37446 0.00916 0.31197 0.0
C2777 C 0.37924 0.00589 0.33216 0.0
C2778 C 0.38495 0.01195 0.29418 0.0
C2779 C 0.40057 0.01147 0.29668 0.0
C2780 C 0.4056 0.00848 0.31709 0.0
C2781 C 0.39489 0.00573 0.33456 0.0
C2782 C 0.3792 0.01513 0.27266 0.0
C2783 C 0.42219 0.00791 0.32043 0.0
C2784 C 0.42083 0.00053 0.25007 0.0
C2785 C 0.43504 0.01723 0.24583 0.0
C2786 C 0.40906 0.99856 0.266 0.0
C2787 C 0.41158 0.01366 0.27798 0.0
C2788 C 0.42546 0.03064 0.27316 0.0
C2789 C 0.43704 0.03222 0.25714 0.0
C2790 C 0.39435 0.98024 0.27058 0.0
C2791 C 0.42857 0.04705 0.28558 0.0
H2792 H 0.36239 0.0093 0.30998 0.0
H2793 H 0.39872 0.00326 0.35009 0.0
H2794 H 0.38955 0.02775 0.26625 0.0
H2795 H 0.37704 0.00437 0.26106 0.0
H2796 H 0.36701 0.0157 0.27354 0.0
H2797 H 0.42445 0.00587 0.33743 0.0
H2798 H 0.42167 0.997 0.31041 0.0
H2799 H 0.4335 0.02045 0.3153 0.0
H2800 H 0.41907 0.98894 0.24115 0.0
H2801 H 0.44808 0.04515 0.2541 0.0
H2802 H 0.38177 0.98006 0.27045 0.0
H2803 H 0.39635 0.97648 0.2868 0.0
H2804 H 0.39339 0.97008 0.25875 0.0
H2805 H 0.41642 0.04768 0.28609 0.0
H2806 H 0.43891 0.05939 0.27856 0.0
H2807 H 0.43251 0.04651 0.30238 0.0
C2808 C 0.62464 0.00981 0.30439 0.0
C2809 C 0.61714 0.00433 0.32446 0.0
C2810 C 0.616 0.01349 0.28794 0.0
C2811 C 0.59947 0.01163 0.29165 0.0
C2812 C 0.59195 0.00629 0.31194 0.0
C2813 C 0.60086 0.00273 0.32804 0.0
C2814 C 0.62444 0.01918 0.26654 0.0
C2815 C 0.57436 0.00413 0.3166 0.0
C2816 C 0.58063 0.03409 0.25766 0.0
C2817 C 0.56822 0.01986 0.24472 0.0
C2818 C 0.5914 0.03179 0.27242 0.0
C2819 C 0.58972 0.01485 0.27431 0.0
C2820 C 0.57769 0.00061 0.26072 0.0
C2821 C 0.56711 0.00329 0.24611 0.0
C2822 C 0.60406 0.04731 0.2866 0.0
C2823 C 0.57554 0.98236 0.26214 0.0
H2824 H 0.63722 0.0111 0.30146 0.0
H2825 H 0.59494 0.99853 0.34347 0.0
H2826 H 0.61611 0.0094 0.2538 0.0
H2827 H 0.62574 0.0321 0.26243 0.0
H2828 H 0.63753 0.02047 0.26638 0.0
H2829 H 0.57047 0.00021 0.33333 0.0
H2830 H 0.57451 0.01673 0.31384 0.0
H2831 H 0.56431 0.9939 0.30552 0.0
H2832 H 0.58149 0.0469 0.25685 0.0
H2833 H 0.55778 0.9923 0.23591 0.0
H2834 H 0.61722 0.04887 0.28606 0.0
H2835 H 0.59991 0.04485 0.30347 0.0
H2836 H 0.60491 0.05992 0.28186 0.0
H2837 H 0.58833 0.98311 0.26084 0.0
H2838 H 0.56654 0.97305 0.24942 0.0
H2839 H 0.57034 0.97685 0.27797 0.0
C2840 C 0.01832 0.61781 0.2829 0.0
C2841 C 0.00654 0.62221 0.29187 0.0
C2842 C 0.01249 0.60123 0.27276 0.0
C2843 C 0.99444 0.5888 0.27146 0.0
C2844 C 0.98263 0.5926 0.28199 0.0
C2845 C 0.98884 0.60927 0.29217 0.0
C2846 C 0.02555 0.59758 0.26204 0.0
C2847 C 0.9633 0.57964 0.28107 0.0
C2848 C 0.97999 0.55997 0.22069 0.0
C2849 C 0.9784 0.54414 0.22791 0.0
C2850 C 0.98465 0.57439 0.2349 0.0
C2851 C 0.98789 0.57297 0.25685 0.0
C2852 C 0.98583 0.55684 0.26437 0.0
C2853 C 0.98106 0.54258 0.24978 0.0
C2854 C 0.98656 0.59131 0.22628 0.0
C2855 C 0.98925 0.55488 0.28762 0.0
H2856 H 0.03205 0.62765 0.28285 0.0
H2857 H 0.97964 0.61253 0.29911 0.0
H2858 H 0.02322 0.58424 0.26601 0.0
H2859 H 0.02404 0.59776 0.24438 0.0
H2860 H 0.03917 0.60757 0.26683 0.0
H2861 H 0.95622 0.58339 0.29263 0.0
H2862 H 0.95807 0.57924 0.26468 0.0
H2863 H 0.96059 0.56607 0.28444 0.0
H2864 H 0.97771 0.56111 0.20384 0.0
H2865 H 0.97999 0.5304 0.25538 0.0
H2866 H 0.00029 0.60213 0.22826 0.0
H2867 H 0.97848 0.5954 0.23546 0.0
H2868 H 0.98267 0.58993 0.20904 0.0
H2869 H 0.00329 0.5636 0.2917 0.0
H2870 H 0.98554 0.54102 0.29125 0.0
H2871 H 0.98197 0.55912 0.29815 0.0
C2872 C 0.37517 0.36587 0.3055 0.0
C2873 C 0.36547 0.37418 0.3099 0.0
C2874 C 0.38816 0.37252 0.29018 0.0
C2875 C 0.39168 0.38797 0.27922 0.0
C2876 C 0.38165 0.39615 0.28319 0.0
C2877 C 0.36857 0.38908 0.2984 0.0
C2878 C 0.39844 0.3633 0.28615 0.0
C2879 C 0.38515 0.41276 0.27197 0.0
C2880 C 0.43748 0.41656 0.25968 0.0
C2881 C 0.43527 0.41243 0.23763 0.0
C2882 C 0.42337 0.40872 0.27334 0.0
C2883 C 0.40667 0.39629 0.26476 0.0
C2884 C 0.40436 0.39196 0.24252 0.0
C2885 C 0.4187 0.40021 0.22915 0.0
C2886 C 0.42631 0.41386 0.29692 0.0
C2887 C 0.38678 0.3786 0.23288 0.0
H2888 H 0.37272 0.35424 0.31419 0.0
H2889 H 0.36113 0.39556 0.30171 0.0
H2890 H 0.39846 0.36051 0.26873 0.0
H2891 H 0.41217 0.37207 0.29158 0.0
H2892 H 0.39314 0.35063 0.29467 0.0
H2893 H 0.37556 0.41693 0.27597 0.0
H2894 H 0.39837 0.42373 0.27663 0.0
H2895 H 0.38483 0.41067 0.25435 0.0
H2896 H 0.45024 0.42622 0.26619 0.0
H2897 H 0.41702 0.39696 0.21211 0.0
H2898 H 0.42258 0.40199 0.30654 0.0
H2899 H 0.41796 0.41936 0.30179 0.0
H2900 H 0.44009 0.42386 0.30098 0.0
H2901 H 0.38185 0.3657 0.24071 0.0
H2902 H 0.38723 0.37652 0.21534 0.0
H2903 H 0.37727 0.38307 0.23581 0.0
C2904 C 0.32146 0.28016 0.39418 0.0
C2905 C 0.33284 0.29714 0.38683 0.0
C2906 C 0.32785 0.27017 0.40397 0.0
C2907 C 0.34604 0.27744 0.40664 0.0
C2908 C 0.35757 0.29382 0.39744 0.0
C2909 C 0.35081 0.30346 0.38749 0.0
C2910 C 0.31511 0.25256 0.41315 0.0
C2911 C 0.37705 0.30197 0.39987 0.0
C2912 C 0.35947 0.26536 0.45856 0.0
C2913 C 0.36317 0.25228 0.4516 0.0
C2914 C 0.35439 0.27399 0.44393 0.0
C2915 C 0.35281 0.26929 0.42182 0.0
C2916 C 0.35689 0.25636 0.41462 0.0
C2917 C 0.3621 0.24803 0.42963 0.0
C2918 C 0.35036 0.28788 0.45224 0.0
C2919 C 0.35521 0.25092 0.3912 0.0
H2920 H 0.30754 0.27508 0.39341 0.0
H2921 H 0.35969 0.31656 0.38179 0.0
H2922 H 0.31893 0.2425 0.40947 0.0
H2923 H 0.31519 0.25405 0.43086 0.0
H2924 H 0.30163 0.24755 0.40687 0.0
H2925 H 0.38408 0.31307 0.38884 0.0
H2926 H 0.38122 0.30718 0.41657 0.0
H2927 H 0.38097 0.29192 0.39681 0.0
H2928 H 0.36051 0.26879 0.47552 0.0
H2929 H 0.36484 0.2378 0.42426 0.0
H2930 H 0.33643 0.28343 0.44896 0.0
H2931 H 0.35818 0.30045 0.44383 0.0
H2932 H 0.35308 0.29059 0.46976 0.0
H2933 H 0.34131 0.24417 0.38592 0.0
H2934 H 0.3603 0.2418 0.38801 0.0
H2935 H 0.36229 0.26276 0.38129 0.0
C2936 C 0.69607 0.05701 0.38749 0.0
C2937 C 0.70144 0.04438 0.38733 0.0
C2938 C 0.70737 0.0745 0.3951 0.0
C2939 C 0.72442 0.07944 0.40245 0.0
C2940 C 0.73029 0.0671 0.40065 0.0
C2941 C 0.71871 0.04972 0.39324 0.0
C2942 C 0.70062 0.08726 0.39672 0.0
C2943 C 0.74845 0.07186 0.40795 0.0
C2944 C 0.75955 0.12707 0.4161 0.0
C2945 C 0.75924 0.12731 0.43856 0.0
C2946 C 0.7478 0.11181 0.40393 0.0
C2947 C 0.73543 0.09655 0.41452 0.0
C2948 C 0.73456 0.09708 0.43715 0.0
C2949 C 0.74651 0.11241 0.44887 0.0
C2950 C 0.74918 0.11175 0.37987 0.0
C2951 C 0.72146 0.08119 0.4491 0.0
H2952 H 0.68273 0.05296 0.38299 0.0
H2953 H 0.72301 0.04008 0.3929 0.0
H2954 H 0.69831 0.08906 0.41377 0.0
H2955 H 0.71035 0.10046 0.39094 0.0
H2956 H 0.68822 0.08241 0.38741 0.0
H2957 H 0.75165 0.06151 0.40314 0.0
H2958 H 0.75822 0.08463 0.40124 0.0
H2959 H 0.74965 0.07352 0.42568 0.0
H2960 H 0.76941 0.13856 0.40809 0.0
H2961 H 0.74605 0.11267 0.46621 0.0
H2962 H 0.73616 0.1064 0.37198 0.0
H2963 H 0.75429 0.10297 0.37495 0.0
H2964 H 0.75798 0.12522 0.37392 0.0
H2965 H 0.70815 0.07633 0.44234 0.0
H2966 H 0.72159 0.08423 0.4665 0.0
H2967 H 0.72434 0.07026 0.44721 0.0
C2968 C 0.95941 0.6476 0.37443 0.0
C2969 C 0.95522 0.65078 0.35384 0.0
C2970 C 0.94757 0.64298 0.39106 0.0
C2971 C 0.93119 0.64153 0.38699 0.0
C2972 C 0.92672 0.64429 0.36613 0.0
C2973 C 0.93878 0.64887 0.34981 0.0
C2974 C 0.95275 0.64006 0.41309 0.0
C2975 C 0.90935 0.64285 0.36118 0.0
C2976 C 0.89358 0.61729 0.42434 0.0
C2977 C 0.89379 0.63145 0.43564 0.0
C2978 C 0.90604 0.62032 0.40891 0.0
C2979 C 0.91896 0.63792 0.40469 0.0
C2980 C 0.9196 0.65223 0.41659 0.0
C2981 C 0.90702 0.64882 0.43194 0.0
C2982 C 0.90497 0.60473 0.39657 0.0
C2983 C 0.93324 0.67119 0.41263 0.0
H2984 H 0.97206 0.649 0.37767 0.0
H2985 H 0.93541 0.65124 0.33394 0.0
H2986 H 0.95341 0.65025 0.42461 0.0
H2987 H 0.94279 0.62695 0.41884 0.0
H2988 H 0.96557 0.64073 0.41333 0.0
H2989 H 0.90762 0.64469 0.34394 0.0
H2990 H 0.89861 0.62969 0.36571 0.0
H2991 H 0.90816 0.65301 0.37077 0.0
H2992 H 0.88329 0.60385 0.42699 0.0
H2993 H 0.9074 0.65979 0.44088 0.0
H2994 H 0.91778 0.6054 0.39709 0.0
H2995 H 0.90162 0.60517 0.37949 0.0
H2996 H 0.89504 0.59184 0.40294 0.0
H2997 H 0.94644 0.67285 0.41402 0.0
H2998 H 0.93251 0.68072 0.42404 0.0
H2999 H 0.93155 0.67462 0.39609 0.0
C3000 C 0.39713 0.01403 0.72772 0.0
C3001 C 0.38272 0.00129 0.71545 0.0
C3002 C 0.40666 0.00911 0.74124 0.0
C3003 C 0.40163 0.991 0.74269 0.0
C3004 C 0.38681 0.97802 0.73083 0.0
C3005 C 0.37757 0.98332 0.7173 0.0
C3006 C 0.42241 0.02338 0.75357 0.0
C3007 C 0.38095 0.95856 0.73209 0.0
C3008 C 0.43697 0.98092 0.75968 0.0
C3009 C 0.43394 0.97787 0.78159 0.0
C3010 C 0.42637 0.98491 0.74679 0.0
C3011 C 0.41233 0.98578 0.75597 0.0
C3012 C 0.40897 0.98234 0.77799 0.0
C3013 C 0.41985 0.9785 0.79055 0.0
C3014 C 0.43049 0.98864 0.72343 0.0
C3015 C 0.39403 0.98298 0.78833 0.0
H3016 H 0.40123 0.02794 0.72644 0.0
H3017 H 0.36642 0.97338 0.70795 0.0
H3018 H 0.42115 0.0207 0.77095 0.0
H3019 H 0.43427 0.02332 0.74836 0.0
H3020 H 0.42426 0.0368 0.75124 0.0
H3021 H 0.36862 0.95007 0.72281 0.0
H3022 H 0.39116 0.95606 0.72578 0.0
H3023 H 0.37905 0.95454 0.74903 0.0
H3024 H 0.44795 0.98068 0.75272 0.0
H3025 H 0.41734 0.97596 0.80742 0.0
H3026 H 0.43384 0.00244 0.72023 0.0
H3027 H 0.41891 0.97973 0.71319 0.0
H3028 H 0.44151 0.98686 0.71858 0.0
H3029 H 0.39602 0.99656 0.78757 0.0
H3030 H 0.39268 0.97917 0.80538 0.0
H3031 H 0.38166 0.97396 0.77948 0.0
C3032 C 0.01633 0.3868 0.73319 0.0
C3033 C 0.99857 0.37428 0.7346 0.0
C3034 C 0.02328 0.40396 0.74232 0.0
C3035 C 0.01217 0.40872 0.75293 0.0
C3036 C 0.99407 0.39654 0.75309 0.0
C3037 C 0.9875 0.37948 0.74399 0.0
C3038 C 0.04265 0.4166 0.74177 0.0
C3039 C 0.98172 0.40117 0.76397 0.0
C3040 C 0.02853 0.44117 0.80053 0.0
C3041 C 0.0295 0.45628 0.79173 0.0
C3042 C 0.02365 0.42588 0.78782 0.0
C3043 C 0.01952 0.42564 0.76576 0.0
C3044 C 0.02115 0.4411 0.75658 0.0
C3045 C 0.02617 0.45628 0.76969 0.0
C3046 C 0.02226 0.40975 0.79821 0.0
C3047 C 0.01681 0.44134 0.73317 0.0
H3048 H 0.025 0.38292 0.72597 0.0
H3049 H 0.97372 0.36997 0.74493 0.0
H3050 H 0.0454 0.42989 0.73687 0.0
H3051 H 0.04849 0.41818 0.75807 0.0
H3052 H 0.04914 0.4118 0.73062 0.0
H3053 H 0.96787 0.39092 0.76082 0.0
H3054 H 0.98435 0.40252 0.78154 0.0
H3055 H 0.98377 0.41407 0.75847 0.0
H3056 H 0.03133 0.44123 0.81751 0.0
H3057 H 0.02678 0.4679 0.76286 0.0
H3058 H 0.02974 0.40484 0.78917 0.0
H3059 H 0.00846 0.39894 0.79784 0.0
H3060 H 0.02713 0.41251 0.81514 0.0
H3061 H 0.0235 0.43612 0.72306 0.0
H3062 H 0.02054 0.45488 0.72802 0.0
H3063 H 0.00261 0.43259 0.73017 0.0
C3064 C 0.61034 0.62221 0.69035 0.0
C3065 C 0.62829 0.63111 0.69499 0.0
C3066 C 0.59833 0.61702 0.70681 0.0
C3067 C 0.60443 0.62093 0.72842 0.0
C3068 C 0.62254 0.6305 0.7332 0.0
C3069 C 0.63427 0.63544 0.71641 0.0
C3070 C 0.57911 0.60679 0.7011 0.0
C3071 C 0.6295 0.63504 0.75604 0.0
C3072 C 0.57118 0.61625 0.76915 0.0
C3073 C 0.56547 0.59912 0.77639 0.0
C3074 C 0.58433 0.62383 0.75408 0.0
C3075 C 0.5918 0.61396 0.74596 0.0
C3076 C 0.58646 0.59689 0.75371 0.0
C3077 C 0.57338 0.5897 0.76886 0.0
C3078 C 0.58986 0.64215 0.74636 0.0
C3079 C 0.59404 0.58591 0.74535 0.0
H3080 H 0.60561 0.61887 0.67385 0.0
H3081 H 0.64813 0.64242 0.72012 0.0
H3082 H 0.57323 0.59327 0.70751 0.0
H3083 H 0.57245 0.61335 0.70855 0.0
H3084 H 0.5765 0.60559 0.6835 0.0
H3085 H 0.64387 0.64379 0.75697 0.0
H3086 H 0.62345 0.64172 0.7647 0.0
H3087 H 0.62607 0.6227 0.76453 0.0
H3088 H 0.56519 0.62363 0.7751 0.0
H3089 H 0.56885 0.57637 0.77419 0.0
H3090 H 0.58613 0.64134 0.72916 0.0
H3091 H 0.60422 0.65068 0.74779 0.0
H3092 H 0.58379 0.64861 0.7555 0.0
H3093 H 0.59071 0.58277 0.72801 0.0
H3094 H 0.58913 0.57328 0.75385 0.0
H3095 H 0.60844 0.5935 0.74708 0.0
C3096 C 0.66608 0.69586 0.63048 0.0
C3097 C 0.67481 0.68951 0.61783 0.0
C3098 C 0.66002 0.70656 0.6217 0.0
C3099 C 0.66232 0.71047 0.59966 0.0
C3100 C 0.67083 0.70378 0.58678 0.0
C3101 C 0.67718 0.69361 0.59609 0.0
C3102 C 0.65144 0.71389 0.63601 0.0
C3103 C 0.67316 0.70729 0.5631 0.0
C3104 C 0.63436 0.7251 0.56977 0.0
C3105 C 0.64622 0.74317 0.56712 0.0
C3106 C 0.63926 0.71434 0.5808 0.0
C3107 C 0.65627 0.72192 0.58993 0.0
C3108 C 0.66806 0.74025 0.58813 0.0
C3109 C 0.66302 0.75056 0.57645 0.0
C3110 C 0.62645 0.69475 0.58201 0.0
C3111 C 0.68624 0.74889 0.59795 0.0
H3112 H 0.66427 0.69271 0.6473 0.0
H3113 H 0.68369 0.68849 0.58617 0.0
H3114 H 0.65884 0.72859 0.63598 0.0
H3115 H 0.63809 0.70955 0.62982 0.0
H3116 H 0.65067 0.70962 0.65281 0.0
H3117 H 0.6793 0.70037 0.55516 0.0
H3118 H 0.66037 0.70291 0.55504 0.0
H3119 H 0.68142 0.72172 0.56068 0.0
H3120 H 0.62125 0.71927 0.56309 0.0
H3121 H 0.67248 0.76438 0.57423 0.0
H3122 H 0.62483 0.69065 0.59891 0.0
H3123 H 0.63153 0.68713 0.57333 0.0
H3124 H 0.61348 0.69105 0.57492 0.0
H3125 H 0.68581 0.74517 0.61492 0.0
H3126 H 0.69306 0.76357 0.59731 0.0
H3127 H 0.69401 0.74415 0.58926 0.0
C3128 C 0.30421 0.94195 0.64101 0.0
C3129 C 0.29905 0.95472 0.64201 0.0
C3130 C 0.29279 0.92472 0.63271 0.0
C3131 C 0.27583 0.9202 0.62548 0.0
C3132 C 0.27013 0.93262 0.62817 0.0
C3133 C 0.28182 0.94973 0.6363 0.0
C3134 C 0.29934 0.91184 0.63021 0.0
C3135 C 0.25207 0.92829 0.621 0.0
C3136 C 0.25409 0.88885 0.57759 0.0
C3137 C 0.24123 0.8736 0.5872 0.0
C3138 C 0.2659 0.9038 0.58998 0.0
C3139 C 0.2648 0.90356 0.6126 0.0
C3140 C 0.25227 0.88796 0.62248 0.0
C3141 C 0.24064 0.87311 0.60964 0.0
C3142 C 0.27918 0.92008 0.57878 0.0
C3143 C 0.25066 0.8872 0.64652 0.0
H3144 H 0.31751 0.94571 0.64537 0.0
H3145 H 0.27767 0.95948 0.63729 0.0
H3146 H 0.28945 0.89848 0.63537 0.0
H3147 H 0.30176 0.91059 0.61305 0.0
H3148 H 0.31164 0.91625 0.63956 0.0
H3149 H 0.24897 0.93855 0.62656 0.0
H3150 H 0.251 0.9273 0.60323 0.0
H3151 H 0.24216 0.9153 0.62708 0.0
H3152 H 0.25477 0.88916 0.56026 0.0
H3153 H 0.23067 0.86136 0.61713 0.0
H3154 H 0.29242 0.92459 0.58551 0.0
H3155 H 0.27642 0.93104 0.58149 0.0
H3156 H 0.27913 0.91769 0.56123 0.0
H3157 H 0.26358 0.89215 0.6545 0.0
H3158 H 0.24168 0.87355 0.65181 0.0
H3159 H 0.24565 0.89594 0.65202 0.0
C3160 C 0.06337 0.35161 0.6747 0.0
C3161 C 0.04585 0.34584 0.66974 0.0
C3162 C 0.07538 0.35533 0.65847 0.0
C3163 C 0.06973 0.35325 0.63674 0.0
C3164 C 0.05218 0.34793 0.6316 0.0
C3165 C 0.04044 0.34428 0.64817 0.0
C3166 C 0.09401 0.36101 0.66458 0.0
C3167 C 0.04571 0.34564 0.6086 0.0
C3168 C 0.10479 0.3752 0.59554 0.0
C3169 C 0.10691 0.36103 0.58853 0.0
C3170 C 0.09246 0.3728 0.61089 0.0
C3171 C 0.08205 0.35584 0.61945 0.0
C3172 C 0.08387 0.34141 0.61209 0.0
C3173 C 0.09627 0.34419 0.59673 0.0
C3174 C 0.09081 0.38846 0.61825 0.0
C3175 C 0.07303 0.32314 0.62087 0.0
H3176 H 0.06769 0.35291 0.69131 0.0
H3177 H 0.02693 0.33987 0.64418 0.0
H3178 H 0.09718 0.35093 0.65859 0.0
H3179 H 0.103 0.37367 0.65698 0.0
H3180 H 0.09649 0.36277 0.68221 0.0
H3181 H 0.03194 0.34245 0.60732 0.0
H3182 H 0.05388 0.35789 0.59978 0.0
H3183 H 0.04677 0.33479 0.60053 0.0
H3184 H 0.11284 0.3882 0.58906 0.0
H3185 H 0.09801 0.33324 0.59161 0.0
H3186 H 0.09434 0.39134 0.63557 0.0
H3187 H 0.07713 0.38536 0.61622 0.0
H3188 H 0.09931 0.40057 0.6093 0.0
H3189 H 0.07593 0.32351 0.63829 0.0
H3190 H 0.07552 0.31319 0.61282 0.0
H3191 H 0.05898 0.31869 0.61893 0.0
C3192 C 0.27706 0.3526 0.67146 0.0
C3193 C 0.29081 0.35003 0.66542 0.0
C3194 C 0.26758 0.35627 0.65625 0.0
C3195 C 0.27196 0.35747 0.6344 0.0
C3196 C 0.28603 0.35522 0.62821 0.0
C3197 C 0.29527 0.35149 0.64378 0.0
C3198 C 0.25265 0.35852 0.66354 0.0
C3199 C 0.29115 0.35648 0.60508 0.0
C3200 C 0.23588 0.34858 0.59391 0.0
C3201 C 0.23977 0.36579 0.58895 0.0
C3202 C 0.24645 0.34571 0.60831 0.0
C3203 C 0.26133 0.3604 0.61803 0.0
C3204 C 0.2655 0.37781 0.61286 0.0
C3205 C 0.25465 0.3803 0.59843 0.0
C3206 C 0.24144 0.32694 0.6135 0.0
C3207 C 0.2813 0.39381 0.62279 0.0
H3208 H 0.2735 0.35154 0.68812 0.0
H3209 H 0.3059 0.34958 0.63896 0.0
H3210 H 0.25459 0.37152 0.65862 0.0
H3211 H 0.2403 0.34812 0.65574 0.0
H3212 H 0.25121 0.35768 0.68119 0.0
H3213 H 0.30287 0.3552 0.60301 0.0
H3214 H 0.28025 0.34588 0.59525 0.0
H3215 H 0.29377 0.36935 0.59871 0.0
H3216 H 0.22428 0.33729 0.58691 0.0
H3217 H 0.25785 0.39362 0.5945 0.0
H3218 H 0.23851 0.32475 0.63075 0.0
H3219 H 0.25245 0.32466 0.61046 0.0
H3220 H 0.22988 0.31696 0.60392 0.0
H3221 H 0.27997 0.39415 0.64041 0.0
H3222 H 0.2832 0.40643 0.61636 0.0
H3223 H 0.29315 0.39295 0.61986 0.0
C3224 C 0.67126 0.9502 0.60856 0.0
C3225 C 0.6608 0.9558 0.61875 0.0
C3226 C 0.66434 0.93263 0.60109 0.0
C3227 C 0.64649 0.92034 0.60377 0.0
C3228 C 0.63604 0.92563 0.61501 0.0
C3229 C 0.64334 0.94332 0.62246 0.0
C3230 C 0.676 0.92746 0.58945 0.0
C3231 C 0.61697 0.91287 0.61823 0.0
C3232 C 0.62827 0.88376 0.56083 0.0
C3233 C 0.62949 0.87028 0.57113 0.0
C3234 C 0.63278 0.89978 0.57171 0.0
C3235 C 0.63871 0.90239 0.59339 0.0
C3236 C 0.63896 0.88843 0.60425 0.0
C3237 C 0.63433 0.87253 0.59298 0.0
C3238 C 0.63224 0.91431 0.55959 0.0
C3239 C 0.64508 0.89065 0.62738 0.0
H3240 H 0.6848 0.95969 0.60584 0.0
H3241 H 0.63516 0.94753 0.63029 0.0
H3242 H 0.6752 0.91552 0.59654 0.0
H3243 H 0.67159 0.92408 0.57241 0.0
H3244 H 0.68983 0.93825 0.59002 0.0
H3245 H 0.61116 0.91841 0.62941 0.0
H3246 H 0.6098 0.90972 0.60257 0.0
H3247 H 0.61504 0.90023 0.62453 0.0
H3248 H 0.62468 0.88219 0.54392 0.0
H3249 H 0.635 0.86202 0.60113 0.0
H3250 H 0.64571 0.92528 0.55728 0.0
H3251 H 0.6254 0.91983 0.5689 0.0
H3252 H 0.62562 0.90957 0.54361 0.0
H3253 H 0.65932 0.89999 0.62858 0.0
H3254 H 0.64235 0.87788 0.63425 0.0
H3255 H 0.63874 0.8964 0.63726 0.0
C3256 C 0.0386 0.69703 0.64289 0.0
C3257 C 0.04407 0.70104 0.66449 0.0
C3258 C 0.05067 0.70357 0.62645 0.0
C3259 C 0.06859 0.71449 0.63177 0.0
C3260 C 0.07425 0.71797 0.65355 0.0
C3261 C 0.06192 0.71113 0.66964 0.0
C3262 C 0.04418 0.69941 0.6034 0.0
C3263 C 0.09324 0.72963 0.65987 0.0
C3264 C 0.10335 0.72542 0.59052 0.0
C3265 C 0.10679 0.74218 0.58422 0.0
C3266 C 0.0906 0.71597 0.60559 0.0
C3267 C 0.08128 0.72361 0.61471 0.0
C3268 C 0.08459 0.74044 0.60819 0.0
C3269 C 0.09725 0.74949 0.59298 0.0
C3270 C 0.08726 0.69796 0.61199 0.0
C3271 C 0.07507 0.74913 0.6177 0.0
H3272 H 0.02483 0.68912 0.63878 0.0
H3273 H 0.06628 0.71424 0.68629 0.0
H3274 H 0.04613 0.71164 0.59581 0.0
H3275 H 0.05172 0.69463 0.59424 0.0
H3276 H 0.03015 0.68924 0.60196 0.0
H3277 H 0.09563 0.72999 0.67744 0.0
H3278 H 0.10122 0.72491 0.65165 0.0
H3279 H 0.09783 0.74335 0.65476 0.0
H3280 H 0.11063 0.7197 0.58364 0.0
H3281 H 0.10006 0.76256 0.58838 0.0
H3282 H 0.07323 0.68802 0.60979 0.0
H3283 H 0.09069 0.69835 0.62923 0.0
H3284 H 0.09491 0.69346 0.60253 0.0
H3285 H 0.06081 0.74032 0.61533 0.0
H3286 H 0.07886 0.76207 0.61048 0.0
H3287 H 0.07785 0.75133 0.63523 0.0
C3288 C 0.98576 0.62729 0.75548 0.0
C3289 C 0.99218 0.63553 0.73596 0.0
C3290 C 0.99143 0.61645 0.76451 0.0
C3291 C 0.00354 0.6134 0.75355 0.0
C3292 C 0.00947 0.62095 0.73335 0.0
C3293 C 0.00388 0.63213 0.72488 0.0
C3294 C 0.98497 0.60888 0.78625 0.0
C3295 C 0.02203 0.61755 0.72097 0.0
C3296 C 0.03044 0.60174 0.79015 0.0
C3297 C 0.02055 0.58323 0.78945 0.0
C3298 C 0.02548 0.61179 0.77774 0.0
C3299 C 0.01052 0.60302 0.764 0.0
C3300 C 0.0011 0.58428 0.76234 0.0
C3301 C 0.0061 0.57458 0.77537 0.0
C3302 C 0.03564 0.63174 0.78031 0.0
C3303 C 0.98534 0.57447 0.74751 0.0
H3304 H 0.97679 0.62989 0.76425 0.0
H3305 H 0.00882 0.63838 0.70975 0.0
H3306 H 0.97878 0.59424 0.78537 0.0
H3307 H 0.99612 0.61393 0.7979 0.0
H3308 H 0.97539 0.61236 0.79252 0.0
H3309 H 0.02399 0.62288 0.70459 0.0
H3310 H 0.03482 0.62384 0.72964 0.0
H3311 H 0.01723 0.60312 0.71965 0.0
H3312 H 0.04159 0.60835 0.80114 0.0
H3313 H 0.9986 0.56021 0.77476 0.0
H3314 H 0.02737 0.63644 0.78783 0.0
H3315 H 0.03933 0.63787 0.76444 0.0
H3316 H 0.04764 0.63651 0.79044 0.0
H3317 H 0.97443 0.57579 0.75384 0.0
H3318 H 0.98102 0.56014 0.74583 0.0
H3319 H 0.98816 0.58027 0.7314 0.0
C3320 C 0.3886 0.3945 0.73377 0.0
C3321 C 0.37222 0.38793 0.7236 0.0
C3322 C 0.39873 0.41239 0.74023 0.0
C3323 C 0.39239 0.42412 0.73644 0.0
C3324 C 0.37631 0.41784 0.72516 0.0
C3325 C 0.3664 0.39981 0.71885 0.0
C3326 C 0.41588 0.41854 0.75205 0.0
C3327 C 0.36919 0.42997 0.72067 0.0
C3328 C 0.41004 0.46253 0.77704 0.0
C3329 C 0.42409 0.47588 0.76625 0.0
C3330 C 0.39903 0.44591 0.76708 0.0
C3331 C 0.40212 0.44253 0.74577 0.0
C3332 C 0.41568 0.45626 0.73438 0.0
C3333 C 0.42653 0.47276 0.74477 0.0
C3334 C 0.38473 0.43163 0.77982 0.0
C3335 C 0.41929 0.45325 0.7116 0.0
H3336 H 0.39333 0.38552 0.73734 0.0
H3337 H 0.35378 0.39489 0.711 0.0
H3338 H 0.42644 0.4303 0.74437 0.0
H3339 H 0.41509 0.42258 0.76878 0.0
H3340 H 0.41947 0.40805 0.7525 0.0
H3341 H 0.3576 0.42363 0.70961 0.0
H3342 H 0.36541 0.43367 0.73593 0.0
H3343 H 0.37929 0.4424 0.71361 0.0
H3344 H 0.40817 0.46474 0.7937 0.0
H3345 H 0.43721 0.48311 0.73623 0.0
H3346 H 0.38786 0.42105 0.78299 0.0
H3347 H 0.37221 0.42545 0.77056 0.0
H3348 H 0.38301 0.43683 0.79543 0.0
H3349 H 0.42463 0.44416 0.71138 0.0
H3350 H 0.42879 0.4658 0.70412 0.0
H3351 H 0.40709 0.44685 0.70168 0.0
C3352 C 0.62735 0.99165 0.71024 0.0
C3353 C 0.6206 0.9908 0.6895 0.0
C3354 C 0.61713 0.98891 0.72828 0.0
C3355 C 0.59978 0.98521 0.72547 0.0
C3356 C 0.5928 0.98398 0.70455 0.0
C3357 C 0.60329 0.9868 0.68684 0.0
C3358 C 0.625 0.99031 0.75035 0.0
C3359 C 0.57431 0.97999 0.7009 0.0
C3360 C 0.56641 0.96391 0.76854 0.0
C3361 C 0.56549 0.97846 0.7769 0.0
C3362 C 0.578 0.966 0.75233 0.0
C3363 C 0.58894 0.98306 0.74432 0.0
C3364 C 0.5886 0.9979 0.75331 0.0
C3365 C 0.57686 0.99542 0.76949 0.0
C3366 C 0.57806 0.94987 0.74322 0.0
C3367 C 0.6001 0.01631 0.7452 0.0
H3368 H 0.64072 0.99474 0.71244 0.0
H3369 H 0.59795 0.98607 0.67087 0.0
H3370 H 0.62532 0.00143 0.75969 0.0
H3371 H 0.61685 0.97804 0.75915 0.0
H3372 H 0.63845 0.99257 0.74976 0.0
H3373 H 0.57072 0.97902 0.6836 0.0
H3374 H 0.56511 0.96734 0.70836 0.0
H3375 H 0.57262 0.99056 0.70866 0.0
H3376 H 0.55784 0.95081 0.77446 0.0
H3377 H 0.5761 0.00669 0.77571 0.0
H3378 H 0.59152 0.95214 0.74327 0.0
H3379 H 0.57322 0.94742 0.7263 0.0
H3380 H 0.56976 0.9378 0.75233 0.0
H3381 H 0.61386 0.0195 0.74519 0.0
H3382 H 0.59927 0.0266 0.75503 0.0
H3383 H 0.5962 0.01692 0.72841 0.0
loop_
_geom_bond_atom_site_label_1
_geom_bond_atom_site_label_2
_geom_bond_distance
_geom_bond_site_symmetry_2
_ccdc_geom_bond_type
Mg0 O1 2.028 1_556 S
Mg0 O7 1.986 1_455 S
Mg0 O9 2.114 . S
Mg0 O10 2.220 1_455 S
Mg0 O13 2.010 1_556 S
O1 Mg0 2.028 1_554 S
O1 C4 1.250 1_455 S
O2 Mg3 2.028 1_554 S
O2 C4 1.248 . S
Mg3 O2 2.028 1_556 S
Mg3 O8 2.032 . S
Mg3 O10 2.119 . S
C4 O1 1.250 1_655 S
C4 O2 1.248 . S
C5 O6 1.264 . S
C5 O13 1.249 . S
O6 C5 1.264 . S
O7 Mg0 1.986 1_655 S
O7 C11 1.246 . S
O8 Mg3 2.032 . S
O8 C11 1.259 . S
O9 Mg0 2.114 . S
O9 C12 1.252 . S
O10 Mg0 2.220 1_655 S
O10 Mg3 2.119 . S
O10 C12 1.243 1_655 S
C11 O7 1.246 . S
C11 O8 1.259 . S
C12 O9 1.252 . S
C12 O10 1.243 1_455 S
O13 Mg0 2.010 1_554 S
O13 C5 1.249 . S
Mg14 O15 2.028 1_554 S
Mg14 O21 1.986 . S
Mg14 O23 2.114 . S
Mg14 O24 2.251 . S
Mg14 O27 2.010 . S
O15 Mg14 2.028 1_556 S
O15 C18 1.250 . S
O16 Mg17 2.028 . S
O16 C18 1.248 1_554 S
Mg17 O16 2.028 . S
Mg17 O22 2.032 . S
Mg17 O24 2.079 . S
C18 O15 1.250 . S
C18 O16 1.248 1_556 S
C19 O20 1.264 1_556 S
C19 O27 1.249 1_556 S
O20 C19 1.264 1_554 S
O21 Mg14 1.986 . S
O21 C25 1.246 . S
O22 Mg17 2.032 . S
O22 C25 1.259 . S
O23 Mg14 2.114 . S
O23 C26 1.252 . S
O24 Mg14 2.251 . S
O24 Mg17 2.079 . S
O24 C26 1.273 . S
C25 O21 1.246 . S
C25 O22 1.259 . S
C26 O23 1.252 . S
C26 O24 1.273 . S
O27 Mg14 2.010 . S
O27 C19 1.249 1_554 S
Mg28 O29 1.986 1_566 S
Mg28 O35 1.986 1_565 S
Mg28 O37 2.131 . S
Mg28 O38 2.279 1_565 S
Mg28 O41 1.993 1_556 S
O29 Mg28 1.986 1_544 S
O29 C32 1.250 . S
O30 Mg31 2.028 1_554 S
O30 C32 1.248 . S
Mg31 O30 2.028 1_556 S
Mg31 O36 2.032 . S
Mg31 O38 2.079 . S
C32 O29 1.250 . S
C32 O30 1.248 . S
C33 O34 1.264 . S
C33 O41 1.249 . S
O34 C33 1.264 . S
O35 Mg28 1.986 1_545 S
O35 C39 1.253 . S
O36 Mg31 2.032 . S
O36 C39 1.259 . S
O37 Mg28 2.131 . S
O37 C40 1.252 . S
O38 Mg28 2.279 1_545 S
O38 Mg31 2.079 . S
O38 C40 1.273 1_545 S
C39 O35 1.253 . S
C39 O36 1.259 . S
C40 O37 1.252 . S
C40 O38 1.273 1_565 S
O41 Mg28 1.993 1_554 S
O41 C33 1.249 . S
Mg42 O43 2.007 1_654 S
Mg42 O49 1.986 1_655 S
Mg42 O51 2.114 . S
Mg42 O52 2.251 1_655 S
Mg42 O55 2.010 . S
O43 Mg42 2.007 1_456 S
O43 C46 1.300 . S
O44 Mg45 2.014 1_556 S
O44 C46 1.257 . S
Mg45 O44 2.014 1_554 S
Mg45 O50 2.032 . S
Mg45 O52 2.079 . S
C46 O43 1.300 . S
C46 O44 1.257 . S
C47 O48 1.264 . S
C47 O55 1.249 . S
O48 C47 1.264 . S
O49 Mg42 1.986 1_455 S
O49 C53 1.246 . S
O50 Mg45 2.032 . S
O50 C53 1.259 . S
O51 Mg42 2.114 . S
O51 C54 1.252 . S
O52 Mg42 2.251 1_455 S
O52 Mg45 2.079 . S
O52 C54 1.273 1_455 S
C53 O49 1.246 . S
C53 O50 1.259 . S
C54 O51 1.252 . S
C54 O52 1.273 1_655 S
O55 Mg42 2.010 . S
O55 C47 1.249 . S
Mg56 O57 2.041 . S
Mg56 O63 1.985 1_554 S
Mg56 O65 2.109 1_554 S
Mg56 O66 2.243 1_554 S
Mg56 O69 2.016 . S
O57 Mg56 2.041 . S
O57 C60 1.250 . S
O58 Mg59 2.028 1_554 S
O58 C60 1.248 . S
Mg59 O58 2.028 1_556 S
Mg59 O64 2.032 . S
Mg59 O66 2.079 . S
C60 O57 1.250 . S
C60 O58 1.248 . S
C61 O62 1.264 . S
C61 O69 1.249 . S
O62 C61 1.264 . S
O63 Mg56 1.985 1_556 S
O63 C67 1.246 . S
O64 Mg59 2.032 . S
O64 C67 1.259 . S
O65 Mg56 2.109 1_556 S
O65 C68 1.252 . S
O66 Mg56 2.243 1_556 S
O66 Mg59 2.079 . S
O66 C68 1.273 . S
C67 O63 1.246 . S
C67 O64 1.259 . S
C68 O65 1.252 . S
C68 O66 1.273 . S
O69 Mg56 2.016 . S
O69 C61 1.249 . S
Mg70 O71 2.028 1_554 S
Mg70 O77 1.986 1_545 S
Mg70 O79 2.114 . S
Mg70 O80 2.251 1_545 S
Mg70 O83 2.010 . S
O71 Mg70 2.028 1_556 S
O71 C74 1.250 1_545 S
O72 Mg73 2.069 . S
O72 C74 1.222 1_554 S
Mg73 O72 2.069 . S
Mg73 O78 2.032 . S
Mg73 O80 2.079 . S
C74 O71 1.250 1_565 S
C74 O72 1.222 1_556 S
C75 O76 1.264 . S
C75 O83 1.249 . S
O76 C75 1.264 . S
O77 Mg70 1.986 1_565 S
O77 C81 1.246 . S
O78 Mg73 2.032 . S
O78 C81 1.259 . S
O79 Mg70 2.114 . S
O79 C82 1.252 . S
O80 Mg70 2.251 1_565 S
O80 Mg73 2.079 . S
O80 C82 1.273 1_565 S
C81 O77 1.246 . S
C81 O78 1.259 . S
C82 O79 1.252 . S
C82 O80 1.273 1_545 S
O83 Mg70 2.010 . S
O83 C75 1.249 . S
Mg84 O85 2.028 . S
Mg84 O91 1.986 . S
Mg84 O93 2.114 . S
Mg84 O94 2.251 . S
Mg84 O97 2.010 . S
O85 Mg84 2.028 . S
O85 C88 1.250 . S
O86 Mg87 2.028 . S
O86 C88 1.248 . S
Mg87 O86 2.028 . S
Mg87 O92 2.032 . S
Mg87 O94 2.079 . S
C88 O85 1.250 . S
C88 O86 1.248 . S
C89 O90 1.264 . S
C89 O97 1.249 . S
O90 C89 1.264 . S
O91 Mg84 1.986 . S
O91 C95 1.246 . S
O92 Mg87 2.032 . S
O92 C95 1.259 . S
O93 Mg84 2.114 . S
O93 C96 1.252 . S
O94 Mg84 2.251 . S
O94 Mg87 2.079 . S
O94 C96 1.273 . S
C95 O91 1.246 . S
C95 O92 1.259 . S
C96 O93 1.252 . S
C96 O94 1.273 . S
O97 Mg84 2.010 . S
O97 C89 1.249 . S
Mg98 O99 2.028 . S
Mg98 O105 1.986 1_565 S
Mg98 O107 2.114 . S
Mg98 O108 2.251 . S
Mg98 O111 2.010 . S
O99 Mg98 2.028 . S
O99 C102 1.250 . S
O100 Mg101 2.028 . S
O100 C102 1.248 . S
Mg101 O100 2.028 . S
Mg101 O106 2.032 1_565 S
Mg101 O108 2.079 . S
C102 O99 1.250 . S
C102 O100 1.248 . S
C103 O104 1.264 . S
C103 O111 1.249 . S
O104 C103 1.264 . S
O105 Mg98 1.986 1_545 S
O105 C109 1.246 . S
O106 Mg101 2.032 1_545 S
O106 C109 1.259 . S
O107 Mg98 2.114 . S
O107 C110 1.252 . S
O108 Mg98 2.251 . S
O108 Mg101 2.079 . S
O108 C110 1.273 . S
C109 O105 1.246 . S
C109 O106 1.259 . S
C110 O107 1.252 . S
C110 O108 1.273 . S
O111 Mg98 2.010 . S
O111 C103 1.249 . S
Mg112 O113 2.028 . S
Mg112 O119 1.986 . S
Mg112 O121 2.114 . S
Mg112 O122 2.251 . S
Mg112 O125 2.010 1_455 S
O113 Mg112 2.028 . S
O113 C116 1.250 . S
O114 Mg115 2.028 . S
O114 C116 1.248 . S
Mg115 O114 2.028 . S
Mg115 O120 2.032 . S
Mg115 O122 2.079 . S
C116 O113 1.250 . S
C116 O114 1.248 . S
C117 O118 1.264 . S
C117 O125 1.249 . S
O118 C117 1.264 . S
O119 Mg112 1.986 . S
O119 C123 1.246 . S
O120 Mg115 2.032 . S
O120 C123 1.259 . S
O121 Mg112 2.114 . S
O121 C124 1.252 . S
O122 Mg112 2.251 . S
O122 Mg115 2.079 . S
O122 C124 1.273 . S
C123 O119 1.246 . S
C123 O120 1.259 . S
C124 O121 1.252 . S
C124 O122 1.273 . S
O125 Mg112 2.010 1_655 S
O125 C117 1.249 . S
Mg126 O127 2.028 . S
Mg126 O133 1.986 1_565 S
Mg126 O135 2.114 . S
Mg126 O136 2.251 . S
Mg126 O139 2.010 . S
O127 Mg126 2.028 . S
O127 C130 1.250 . S
O128 Mg129 2.028 . S
O128 C130 1.248 . S
Mg129 O128 2.028 . S
Mg129 O134 2.032 1_565 S
Mg129 O136 2.079 . S
C130 O127 1.250 . S
C130 O128 1.248 . S
C131 O132 1.264 . S
C131 O139 1.249 . S
O132 C131 1.264 . S
O133 Mg126 1.986 1_545 S
O133 C137 1.246 . S
O134 Mg129 2.032 1_545 S
O134 C137 1.259 . S
O135 Mg126 2.114 . S
O135 C138 1.252 . S
O136 Mg126 2.251 . S
O136 Mg129 2.079 . S
O136 C138 1.273 . S
C137 O133 1.246 . S
C137 O134 1.259 . S
C138 O135 1.252 . S
C138 O136 1.273 . S
O139 Mg126 2.010 . S
O139 C131 1.249 . S
Mg140 O141 2.028 . S
Mg140 O147 1.986 . S
Mg140 O149 2.114 . S
Mg140 O150 2.251 . S
Mg140 O153 2.010 1_455 S
O141 Mg140 2.028 . S
O141 C144 1.250 . S
O142 Mg143 2.028 . S
O142 C144 1.248 . S
Mg143 O142 2.028 . S
Mg143 O148 2.032 . S
Mg143 O150 2.079 . S
C144 O141 1.250 . S
C144 O142 1.248 . S
C145 O146 1.264 . S
C145 O153 1.249 . S
O146 C145 1.264 . S
O147 Mg140 1.986 . S
O147 C151 1.246 . S
O148 Mg143 2.032 . S
O148 C151 1.259 . S
O149 Mg140 2.114 . S
O149 C152 1.252 . S
O150 Mg140 2.251 . S
O150 Mg143 2.079 . S
O150 C152 1.273 . S
C151 O147 1.246 . S
C151 O148 1.259 . S
C152 O149 1.252 . S
C152 O150 1.273 . S
O153 Mg140 2.010 1_655 S
O153 C145 1.249 . S
Mg154 O155 2.028 . S
Mg154 O161 1.986 . S
Mg154 O163 2.114 . S
Mg154 O164 2.251 . S
Mg154 O167 2.010 . S
O155 Mg154 2.028 . S
O155 C158 1.250 . S
O156 Mg157 2.028 . S
O156 C158 1.248 . S
Mg157 O156 2.028 . S
Mg157 O162 2.032 . S
Mg157 O164 2.079 . S
C158 O155 1.250 . S
C158 O156 1.248 . S
C159 O160 1.264 . S
C159 O167 1.249 . S
O160 C159 1.264 . S
O161 Mg154 1.986 . S
O161 C165 1.246 . S
O162 Mg157 2.032 . S
O162 C165 1.259 . S
O163 Mg154 2.114 . S
O163 C166 1.252 . S
O164 Mg154 2.251 . S
O164 Mg157 2.079 . S
O164 C166 1.273 . S
C165 O161 1.246 . S
C165 O162 1.259 . S
C166 O163 1.252 . S
C166 O164 1.273 . S
O167 Mg154 2.010 . S
O167 C159 1.249 . S
Mg168 O169 2.028 . S
Mg168 O175 1.986 1_545 S
Mg168 O177 2.114 . S
Mg168 O178 2.251 . S
Mg168 O181 2.010 . S
O169 Mg168 2.028 . S
O169 C172 1.250 . S
O170 Mg171 2.028 . S
O170 C172 1.248 . S
Mg171 O170 2.028 . S
Mg171 O176 2.032 1_545 S
Mg171 O178 2.079 . S
C172 O169 1.250 . S
C172 O170 1.248 . S
C173 O174 1.264 . S
C173 O181 1.249 . S
O174 C173 1.264 . S
O175 Mg168 1.986 1_565 S
O175 C179 1.246 . S
O176 Mg171 2.032 1_565 S
O176 C179 1.259 . S
O177 Mg168 2.114 . S
O177 C180 1.252 . S
O178 Mg168 2.251 . S
O178 Mg171 2.079 . S
O178 C180 1.273 . S
C179 O175 1.246 . S
C179 O176 1.259 . S
C180 O177 1.252 . S
C180 O178 1.273 . S
O181 Mg168 2.010 . S
O181 C173 1.249 . S
Mg182 O183 2.028 . S
Mg182 O189 1.986 . S
Mg182 O191 2.114 . S
Mg182 O192 2.251 . S
Mg182 O195 2.010 1_655 S
O183 Mg182 2.028 . S
O183 C186 1.250 . S
O184 Mg185 2.028 . S
O184 C186 1.248 . S
Mg185 O184 2.028 . S
Mg185 O190 2.032 . S
Mg185 O192 2.079 . S
C186 O183 1.250 . S
C186 O184 1.248 . S
C187 O188 1.264 . S
C187 O195 1.249 . S
O188 C187 1.264 . S
O189 Mg182 1.986 . S
O189 C193 1.246 . S
O190 Mg185 2.032 . S
O190 C193 1.259 . S
O191 Mg182 2.114 . S
O191 C194 1.252 . S
O192 Mg182 2.251 . S
O192 Mg185 2.079 . S
O192 C194 1.273 . S
C193 O189 1.246 . S
C193 O190 1.259 . S
C194 O191 1.252 . S
C194 O192 1.273 . S
O195 Mg182 2.010 1_455 S
O195 C187 1.249 . S
Mg196 O197 2.028 . S
Mg196 O203 1.986 . S
Mg196 O205 2.114 . S
Mg196 O206 2.251 . S
Mg196 O209 2.010 . S
O197 Mg196 2.028 . S
O197 C200 1.250 . S
O198 Mg199 2.028 . S
O198 C200 1.248 . S
Mg199 O198 2.028 . S
Mg199 O204 2.032 . S
Mg199 O206 2.079 . S
C200 O197 1.250 . S
C200 O198 1.248 . S
C201 O202 1.264 . S
C201 O209 1.249 . S
O202 C201 1.264 . S
O203 Mg196 1.986 . S
O203 C207 1.246 . S
O204 Mg199 2.032 . S
O204 C207 1.259 . S
O205 Mg196 2.114 . S
O205 C208 1.252 . S
O206 Mg196 2.251 . S
O206 Mg199 2.079 . S
O206 C208 1.273 . S
C207 O203 1.246 . S
C207 O204 1.259 . S
C208 O205 1.252 . S
C208 O206 1.273 . S
O209 Mg196 2.010 . S
O209 C201 1.249 . S
Mg210 O211 2.028 . S
Mg210 O217 1.986 . S
Mg210 O219 2.114 . S
Mg210 O220 2.251 . S
Mg210 O223 2.010 . S
O211 Mg210 2.028 . S
O211 C214 1.250 . S
O212 Mg213 2.028 . S
O212 C214 1.248 . S
Mg213 O212 2.028 . S
Mg213 O218 2.032 . S
Mg213 O220 2.079 . S
C214 O211 1.250 . S
C214 O212 1.248 . S
C215 O216 1.264 . S
C215 O223 1.249 . S
O216 C215 1.264 . S
O217 Mg210 1.986 . S
O217 C221 1.246 . S
O218 Mg213 2.032 . S
O218 C221 1.259 . S
O219 Mg210 2.114 . S
O219 C222 1.252 . S
O220 Mg210 2.251 . S
O220 Mg213 2.079 . S
O220 C222 1.273 . S
C221 O217 1.246 . S
C221 O218 1.259 . S
C222 O219 1.252 . S
C222 O220 1.273 . S
O223 Mg210 2.010 . S
O223 C215 1.249 . S
Mg224 O225 2.028 . S
Mg224 O231 1.986 1_545 S
Mg224 O233 2.114 . S
Mg224 O234 2.251 . S
Mg224 O237 2.010 . S
O225 Mg224 2.028 . S
O225 C228 1.250 . S
O226 Mg227 2.028 . S
O226 C228 1.248 . S
Mg227 O226 2.028 . S
Mg227 O232 2.032 1_545 S
Mg227 O234 2.079 . S
C228 O225 1.250 . S
C228 O226 1.248 . S
C229 O230 1.264 . S
C229 O237 1.249 . S
O230 C229 1.264 . S
O231 Mg224 1.986 1_565 S
O231 C235 1.246 . S
O232 Mg227 2.032 1_565 S
O232 C235 1.259 . S
O233 Mg224 2.114 . S
O233 C236 1.252 . S
O234 Mg224 2.251 . S
O234 Mg227 2.079 . S
O234 C236 1.273 . S
C235 O231 1.246 . S
C235 O232 1.259 . S
C236 O233 1.252 . S
C236 O234 1.273 . S
O237 Mg224 2.010 . S
O237 C229 1.249 . S
Mg238 O239 2.028 . S
Mg238 O245 1.986 . S
Mg238 O247 2.114 . S
Mg238 O248 2.251 . S
Mg238 O251 2.010 1_655 S
O239 Mg238 2.028 . S
O239 C242 1.250 . S
O240 Mg241 2.028 . S
O240 C242 1.248 . S
Mg241 O240 2.028 . S
Mg241 O246 2.032 . S
Mg241 O248 2.079 . S
C242 O239 1.250 . S
C242 O240 1.248 . S
C243 O244 1.264 . S
C243 O251 1.249 . S
O244 C243 1.264 . S
O245 Mg238 1.986 . S
O245 C249 1.246 . S
O246 Mg241 2.032 . S
O246 C249 1.259 . S
O247 Mg238 2.114 . S
O247 C250 1.252 . S
O248 Mg238 2.251 . S
O248 Mg241 2.079 . S
O248 C250 1.273 . S
C249 O245 1.246 . S
C249 O246 1.259 . S
C250 O247 1.252 . S
C250 O248 1.273 . S
O251 Mg238 2.010 1_455 S
O251 C243 1.249 . S
C252 C253 1.384 . S
C252 C254 1.384 . S
C252 H280 0.931 . S
C253 C252 1.384 . S
C253 C256 1.382 . S
C254 C252 1.384 . S
C254 C255 1.381 . S
C254 H281 0.930 . S
C255 C254 1.381 . S
C255 C257 1.381 . S
C255 C258 1.487 . S
C256 C253 1.382 . S
C256 C257 1.387 . S
C256 H282 0.930 . S
C257 C255 1.381 . S
C257 C256 1.387 . S
C257 H283 0.931 . S
C258 C255 1.487 . S
C258 C265 1.399 . S
C258 N296 1.343 . S
C259 C260 1.384 . S
C259 C261 1.384 . S
C259 H284 0.931 . S
C260 C259 1.384 . S
C260 C263 1.382 . S
C261 C259 1.384 . S
C261 C262 1.381 . S
C261 H285 0.930 . S
C262 C261 1.381 . S
C262 C264 1.381 . S
C262 C265 1.487 . S
C263 C260 1.382 . S
C263 C264 1.387 . S
C263 H286 0.930 . S
C264 C262 1.381 . S
C264 C263 1.387 . S
C264 H287 0.931 . S
C265 C258 1.399 . S
C265 C262 1.487 . S
C265 N297 1.343 . S
C266 C267 1.384 . S
C266 C268 1.384 . S
C266 H288 0.931 . S
C267 C266 1.384 . S
C267 C270 1.382 . S
C268 C266 1.384 . S
C268 C269 1.381 . S
C268 H289 0.930 . S
C269 C268 1.381 . S
C269 C271 1.381 . S
C269 C272 1.487 . S
C270 C267 1.382 . S
C270 C271 1.387 . S
C270 H290 0.930 . S
C271 C269 1.381 . S
C271 C270 1.387 . S
C271 H291 0.931 . S
C272 C269 1.487 . S
C272 C279 1.399 . S
C272 N297 1.343 . S
C273 C274 1.384 . S
C273 C275 1.384 . S
C273 H292 0.931 . S
C274 C273 1.384 . S
C274 C277 1.382 . S
C275 C273 1.384 . S
C275 C276 1.381 . S
C275 H293 0.930 . S
C276 C275 1.381 . S
C276 C278 1.381 . S
C276 C279 1.487 . S
C277 C274 1.382 . S
C277 C278 1.387 . S
C277 H294 0.930 . S
C278 C276 1.381 . S
C278 C277 1.387 . S
C278 H295 0.931 . S
C279 C272 1.399 . S
C279 C276 1.487 . S
C279 N296 1.343 . S
H280 C252 0.931 . S
H281 C254 0.930 . S
H282 C256 0.930 . S
H283 C257 0.931 . S
H284 C259 0.931 . S
H285 C261 0.930 . S
H286 C263 0.930 . S
H287 C264 0.931 . S
H288 C266 0.931 . S
H289 C268 0.930 . S
H290 C270 0.930 . S
H291 C271 0.931 . S
H292 C273 0.931 . S
H293 C275 0.930 . S
H294 C277 0.930 . S
H295 C278 0.931 . S
N296 C258 1.343 . S
N296 C279 1.343 . S
N297 C265 1.343 . S
N297 C272 1.343 . S
C298 C299 1.384 . S
C298 C300 1.384 . S
C298 H326 0.931 . S
C299 C298 1.384 . S
C299 C302 1.382 . S
C300 C298 1.384 . S
C300 C301 1.381 . S
C300 H327 0.930 . S
C301 C300 1.381 . S
C301 C303 1.381 . S
C301 C304 1.487 . S
C302 C299 1.382 . S
C302 C303 1.387 . S
C302 H328 0.930 . S
C303 C301 1.381 . S
C303 C302 1.387 . S
C303 H329 0.931 . S
C304 C301 1.487 . S
C304 C311 1.399 . S
C304 N342 1.343 . S
C305 C306 1.384 . S
C305 C307 1.384 . S
C305 H330 0.931 . S
C306 C305 1.384 . S
C306 C309 1.382 . S
C307 C305 1.384 . S
C307 C308 1.381 . S
C307 H331 0.930 . S
C308 C307 1.381 . S
C308 C310 1.381 . S
C308 C311 1.487 . S
C309 C306 1.382 . S
C309 C310 1.387 . S
C309 H332 0.930 . S
C310 C308 1.381 . S
C310 C309 1.387 . S
C310 H333 0.931 . S
C311 C304 1.399 . S
C311 C308 1.487 . S
C311 N343 1.343 . S
C312 C313 1.384 . S
C312 C314 1.384 . S
C312 H334 0.931 . S
C313 C312 1.384 . S
C313 C316 1.382 . S
C314 C312 1.384 . S
C314 C315 1.381 . S
C314 H335 0.930 . S
C315 C314 1.381 . S
C315 C317 1.381 . S
C315 C318 1.487 . S
C316 C313 1.382 . S
C316 C317 1.387 . S
C316 H336 0.930 . S
C317 C315 1.381 . S
C317 C316 1.387 . S
C317 H337 0.931 . S
C318 C315 1.487 . S
C318 C325 1.399 . S
C318 N343 1.343 . S
C319 C320 1.384 . S
C319 C321 1.384 . S
C319 H338 0.931 . S
C320 C319 1.384 . S
C320 C323 1.382 . S
C321 C319 1.384 . S
C321 C322 1.381 . S
C321 H339 0.930 . S
C322 C321 1.381 . S
C322 C324 1.381 . S
C322 C325 1.487 . S
C323 C320 1.382 . S
C323 C324 1.387 . S
C323 H340 0.930 . S
C324 C322 1.381 . S
C324 C323 1.387 . S
C324 H341 0.931 . S
C325 C318 1.399 . S
C325 C322 1.487 . S
C325 N342 1.343 . S
H326 C298 0.931 . S
H327 C300 0.930 . S
H328 C302 0.930 . S
H329 C303 0.931 . S
H330 C305 0.931 . S
H331 C307 0.930 . S
H332 C309 0.930 . S
H333 C310 0.931 . S
H334 C312 0.931 . S
H335 C314 0.930 . S
H336 C316 0.930 . S
H337 C317 0.931 . S
H338 C319 0.931 . S
H339 C321 0.930 . S
H340 C323 0.930 . S
H341 C324 0.931 . S
N342 C304 1.343 . S
N342 C325 1.343 . S
N343 C311 1.343 . S
N343 C318 1.343 . S
C344 C345 1.384 . S
C344 C346 1.384 . S
C344 H372 0.931 . S
C345 C344 1.384 . S
C345 C348 1.382 . S
C346 C344 1.384 . S
C346 C347 1.381 . S
C346 H373 0.930 . S
C347 C346 1.381 . S
C347 C349 1.381 . S
C347 C350 1.487 . S
C348 C345 1.382 . S
C348 C349 1.387 . S
C348 H374 0.930 . S
C349 C347 1.381 . S
C349 C348 1.387 . S
C349 H375 0.931 . S
C350 C347 1.487 . S
C350 C357 1.399 . S
C350 N388 1.343 . S
C351 C352 1.384 . S
C351 C353 1.384 . S
C351 H376 0.931 . S
C352 C351 1.384 . S
C352 C355 1.382 . S
C353 C351 1.384 . S
C353 C354 1.381 . S
C353 H377 0.930 . S
C354 C353 1.381 . S
C354 C356 1.381 . S
C354 C357 1.487 . S
C355 C352 1.382 . S
C355 C356 1.387 . S
C355 H378 0.930 . S
C356 C354 1.381 . S
C356 C355 1.387 . S
C356 H379 0.931 . S
C357 C350 1.399 . S
C357 C354 1.487 . S
C357 N389 1.343 . S
C358 C359 1.384 . S
C358 C360 1.384 . S
C358 H380 0.931 . S
C359 C358 1.384 . S
C359 C362 1.382 . S
C360 C358 1.384 . S
C360 C361 1.381 . S
C360 H381 0.930 . S
C361 C360 1.381 . S
C361 C363 1.381 . S
C361 C364 1.487 . S
C362 C359 1.382 . S
C362 C363 1.387 . S
C362 H382 0.930 . S
C363 C361 1.381 . S
C363 C362 1.387 . S
C363 H383 0.931 . S
C364 C361 1.487 . S
C364 C371 1.399 . S
C364 N389 1.343 . S
C365 C366 1.384 . S
C365 C367 1.384 . S
C365 H384 0.931 . S
C366 C365 1.384 . S
C366 C369 1.382 . S
C367 C365 1.384 . S
C367 C368 1.381 . S
C367 H385 0.930 . S
C368 C367 1.381 . S
C368 C370 1.381 . S
C368 C371 1.487 . S
C369 C366 1.382 . S
C369 C370 1.387 . S
C369 H386 0.930 . S
C370 C368 1.381 . S
C370 C369 1.387 . S
C370 H387 0.931 . S
C371 C364 1.399 . S
C371 C368 1.487 . S
C371 N388 1.343 . S
H372 C344 0.931 . S
H373 C346 0.930 . S
H374 C348 0.930 . S
H375 C349 0.931 . S
H376 C351 0.931 . S
H377 C353 0.930 . S
H378 C355 0.930 . S
H379 C356 0.931 . S
H380 C358 0.931 . S
H381 C360 0.930 . S
H382 C362 0.930 . S
H383 C363 0.931 . S
H384 C365 0.931 . S
H385 C367 0.930 . S
H386 C369 0.930 . S
H387 C370 0.931 . S
N388 C350 1.343 . S
N388 C371 1.343 . S
N389 C357 1.343 . S
N389 C364 1.343 . S
C390 C391 1.384 . S
C390 C392 1.384 . S
C390 H418 0.931 . S
C391 C390 1.384 . S
C391 C394 1.382 . S
C392 C390 1.384 . S
C392 C393 1.381 . S
C392 H419 0.930 . S
C393 C392 1.381 . S
C393 C395 1.381 . S
C393 C396 1.487 . S
C394 C391 1.382 . S
C394 C395 1.387 . S
C394 H420 0.930 . S
C395 C393 1.381 . S
C395 C394 1.387 . S
C395 H421 0.931 . S
C396 C393 1.487 . S
C396 C403 1.399 . S
C396 N434 1.343 . S
C397 C398 1.384 . S
C397 C399 1.384 . S
C397 H422 0.931 . S
C398 C397 1.384 . S
C398 C401 1.382 . S
C399 C397 1.384 . S
C399 C400 1.381 . S
C399 H423 0.930 . S
C400 C399 1.381 . S
C400 C402 1.381 . S
C400 C403 1.487 . S
C401 C398 1.382 . S
C401 C402 1.387 . S
C401 H424 0.930 . S
C402 C400 1.381 . S
C402 C401 1.387 . S
C402 H425 0.931 . S
C403 C396 1.399 . S
C403 C400 1.487 . S
C403 N435 1.343 . S
C404 C405 1.384 . S
C404 C406 1.384 . S
C404 H426 0.931 . S
C405 C404 1.384 . S
C405 C408 1.382 . S
C406 C404 1.384 . S
C406 C407 1.381 . S
C406 H427 0.930 . S
C407 C406 1.381 . S
C407 C409 1.381 . S
C407 C410 1.487 . S
C408 C405 1.382 . S
C408 C409 1.387 . S
C408 H428 0.930 . S
C409 C407 1.381 . S
C409 C408 1.387 . S
C409 H429 0.931 . S
C410 C407 1.487 . S
C410 C417 1.399 . S
C410 N435 1.343 . S
C411 C412 1.384 . S
C411 C413 1.384 . S
C411 H430 0.931 . S
C412 C411 1.384 . S
C412 C415 1.382 . S
C413 C411 1.384 . S
C413 C414 1.381 . S
C413 H431 0.930 . S
C414 C413 1.381 . S
C414 C416 1.381 . S
C414 C417 1.487 . S
C415 C412 1.382 . S
C415 C416 1.387 . S
C415 H432 0.930 . S
C416 C414 1.381 . S
C416 C415 1.387 . S
C416 H433 0.931 . S
C417 C410 1.399 . S
C417 C414 1.487 . S
C417 N434 1.343 . S
H418 C390 0.931 . S
H419 C392 0.930 . S
H420 C394 0.930 . S
H421 C395 0.931 . S
H422 C397 0.931 . S
H423 C399 0.930 . S
H424 C401 0.930 . S
H425 C402 0.931 . S
H426 C404 0.931 . S
H427 C406 0.930 . S
H428 C408 0.930 . S
H429 C409 0.931 . S
H430 C411 0.931 . S
H431 C413 0.930 . S
H432 C415 0.930 . S
H433 C416 0.931 . S
N434 C396 1.343 . S
N434 C417 1.343 . S
N435 C403 1.343 . S
N435 C410 1.343 . S
C436 C437 1.384 . S
C436 C438 1.384 . S
C436 H464 0.931 . S
C437 C436 1.384 . S
C437 C440 1.382 . S
C438 C436 1.384 . S
C438 C439 1.381 . S
C438 H465 0.930 . S
C439 C438 1.381 . S
C439 C441 1.381 . S
C439 C442 1.487 . S
C440 C437 1.382 . S
C440 C441 1.387 . S
C440 H466 0.930 . S
C441 C439 1.381 . S
C441 C440 1.387 . S
C441 H467 0.931 . S
C442 C439 1.487 . S
C442 C449 1.399 . S
C442 N480 1.343 . S
C443 C444 1.384 . S
C443 C445 1.384 . S
C443 H468 0.931 . S
C444 C443 1.384 . S
C444 C447 1.382 . S
C445 C443 1.384 . S
C445 C446 1.381 . S
C445 H469 0.930 . S
C446 C445 1.381 . S
C446 C448 1.381 . S
C446 C449 1.487 . S
C447 C444 1.382 . S
C447 C448 1.387 . S
C447 H470 0.930 . S
C448 C446 1.381 . S
C448 C447 1.387 . S
C448 H471 0.931 . S
C449 C442 1.399 . S
C449 C446 1.487 . S
C449 N481 1.343 . S
C450 C451 1.384 . S
C450 C452 1.384 . S
C450 H472 0.931 . S
C451 C450 1.384 . S
C451 C454 1.382 . S
C452 C450 1.384 . S
C452 C453 1.381 . S
C452 H473 0.930 . S
C453 C452 1.381 . S
C453 C455 1.381 . S
C453 C456 1.487 . S
C454 C451 1.382 . S
C454 C455 1.387 . S
C454 H474 0.930 . S
C455 C453 1.381 . S
C455 C454 1.387 . S
C455 H475 0.931 . S
C456 C453 1.487 . S
C456 C463 1.399 . S
C456 N481 1.343 . S
C457 C458 1.384 . S
C457 C459 1.384 . S
C457 H476 0.931 . S
C458 C457 1.384 . S
C458 C461 1.382 . S
C459 C457 1.384 . S
C459 C460 1.381 . S
C459 H477 0.930 . S
C460 C459 1.381 . S
C460 C462 1.381 . S
C460 C463 1.487 . S
C461 C458 1.382 . S
C461 C462 1.387 . S
C461 H478 0.930 . S
C462 C460 1.381 . S
C462 C461 1.387 . S
C462 H479 0.931 . S
C463 C456 1.399 . S
C463 C460 1.487 . S
C463 N480 1.343 . S
H464 C436 0.931 . S
H465 C438 0.930 . S
H466 C440 0.930 . S
H467 C441 0.931 . S
H468 C443 0.931 . S
H469 C445 0.930 . S
H470 C447 0.930 . S
H471 C448 0.931 . S
H472 C450 0.931 . S
H473 C452 0.930 . S
H474 C454 0.930 . S
H475 C455 0.931 . S
H476 C457 0.931 . S
H477 C459 0.930 . S
H478 C461 0.930 . S
H479 C462 0.931 . S
N480 C442 1.343 . S
N480 C463 1.343 . S
N481 C449 1.343 . S
N481 C456 1.343 . S
C482 C483 1.384 . S
C482 C484 1.384 . S
C482 H510 0.931 . S
C483 C482 1.384 . S
C483 C486 1.382 . S
C484 C482 1.384 . S
C484 C485 1.381 . S
C484 H511 0.930 . S
C485 C484 1.381 . S
C485 C487 1.381 . S
C485 C488 1.487 . S
C486 C483 1.382 . S
C486 C487 1.387 . S
C486 H512 0.930 . S
C487 C485 1.381 . S
C487 C486 1.387 . S
C487 H513 0.931 . S
C488 C485 1.487 . S
C488 C495 1.399 . S
C488 N526 1.343 . S
C489 C490 1.384 . S
C489 C491 1.384 . S
C489 H514 0.931 . S
C490 C489 1.384 . S
C490 C493 1.382 . S
C491 C489 1.384 . S
C491 C492 1.381 . S
C491 H515 0.930 . S
C492 C491 1.381 . S
C492 C494 1.381 . S
C492 C495 1.487 . S
C493 C490 1.382 . S
C493 C494 1.387 . S
C493 H516 0.930 . S
C494 C492 1.381 . S
C494 C493 1.387 . S
C494 H517 0.931 . S
C495 C488 1.399 . S
C495 C492 1.487 . S
C495 N527 1.343 . S
C496 C497 1.384 . S
C496 C498 1.384 . S
C496 H518 0.931 . S
C497 C496 1.384 . S
C497 C500 1.382 . S
C498 C496 1.384 . S
C498 C499 1.381 . S
C498 H519 0.930 . S
C499 C498 1.381 . S
C499 C501 1.381 . S
C499 C502 1.487 . S
C500 C497 1.382 . S
C500 C501 1.387 . S
C500 H520 0.930 . S
C501 C499 1.381 . S
C501 C500 1.387 . S
C501 H521 0.931 . S
C502 C499 1.487 . S
C502 C509 1.399 . S
C502 N527 1.343 . S
C503 C504 1.384 . S
C503 C505 1.384 . S
C503 H522 0.931 . S
C504 C503 1.384 . S
C504 C507 1.382 . S
C505 C503 1.384 . S
C505 C506 1.381 . S
C505 H523 0.930 . S
C506 C505 1.381 . S
C506 C508 1.381 . S
C506 C509 1.487 . S
C507 C504 1.382 . S
C507 C508 1.387 . S
C507 H524 0.930 . S
C508 C506 1.381 . S
C508 C507 1.387 . S
C508 H525 0.931 . S
C509 C502 1.399 . S
C509 C506 1.487 . S
C509 N526 1.343 . S
H510 C482 0.931 . S
H511 C484 0.930 . S
H512 C486 0.930 . S
H513 C487 0.931 . S
H514 C489 0.931 . S
H515 C491 0.930 . S
H516 C493 0.930 . S
H517 C494 0.931 . S
H518 C496 0.931 . S
H519 C498 0.930 . S
H520 C500 0.930 . S
H521 C501 0.931 . S
H522 C503 0.931 . S
H523 C505 0.930 . S
H524 C507 0.930 . S
H525 C508 0.931 . S
N526 C488 1.343 . S
N526 C509 1.343 . S
N527 C495 1.343 . S
N527 C502 1.343 . S
C528 C529 1.384 . S
C528 C530 1.384 . S
C528 H556 0.931 . S
C529 C528 1.384 . S
C529 C532 1.382 . S
C530 C528 1.384 . S
C530 C531 1.381 . S
C530 H557 0.930 . S
C531 C530 1.381 . S
C531 C533 1.381 . S
C531 C534 1.487 . S
C532 C529 1.382 . S
C532 C533 1.387 . S
C532 H558 0.930 . S
C533 C531 1.381 . S
C533 C532 1.387 . S
C533 H559 0.931 . S
C534 C531 1.487 . S
C534 C541 1.399 . S
C534 N572 1.343 . S
C535 C536 1.384 . S
C535 C537 1.384 . S
C535 H560 0.931 . S
C536 C535 1.384 . S
C536 C539 1.382 . S
C537 C535 1.384 . S
C537 C538 1.381 . S
C537 H561 0.930 . S
C538 C537 1.381 . S
C538 C540 1.381 . S
C538 C541 1.487 . S
C539 C536 1.382 . S
C539 C540 1.387 . S
C539 H562 0.930 . S
C540 C538 1.381 . S
C540 C539 1.387 . S
C540 H563 0.931 . S
C541 C534 1.399 . S
C541 C538 1.487 . S
C541 N573 1.343 . S
C542 C543 1.384 . S
C542 C544 1.384 . S
C542 H564 0.931 . S
C543 C542 1.384 . S
C543 C546 1.382 . S
C544 C542 1.384 . S
C544 C545 1.381 . S
C544 H565 0.930 . S
C545 C544 1.381 . S
C545 C547 1.381 . S
C545 C548 1.487 . S
C546 C543 1.382 . S
C546 C547 1.387 . S
C546 H566 0.930 . S
C547 C545 1.381 . S
C547 C546 1.387 . S
C547 H567 0.931 . S
C548 C545 1.487 . S
C548 C555 1.399 . S
C548 N573 1.343 . S
C549 C550 1.384 . S
C549 C551 1.384 . S
C549 H568 0.931 . S
C550 C549 1.384 . S
C550 C553 1.382 . S
C551 C549 1.384 . S
C551 C552 1.381 . S
C551 H569 0.930 . S
C552 C551 1.381 . S
C552 C554 1.381 . S
C552 C555 1.487 . S
C553 C550 1.382 . S
C553 C554 1.387 . S
C553 H570 0.930 . S
C554 C552 1.381 . S
C554 C553 1.387 . S
C554 H571 0.931 . S
C555 C548 1.399 . S
C555 C552 1.487 . S
C555 N572 1.343 . S
H556 C528 0.931 . S
H557 C530 0.930 . S
H558 C532 0.930 . S
H559 C533 0.931 . S
H560 C535 0.931 . S
H561 C537 0.930 . S
H562 C539 0.930 . S
H563 C540 0.931 . S
H564 C542 0.931 . S
H565 C544 0.930 . S
H566 C546 0.930 . S
H567 C547 0.931 . S
H568 C549 0.931 . S
H569 C551 0.930 . S
H570 C553 0.930 . S
H571 C554 0.931 . S
N572 C534 1.343 . S
N572 C555 1.343 . S
N573 C541 1.343 . S
N573 C548 1.343 . S
C574 C575 1.384 . S
C574 C576 1.384 . S
C574 H602 0.931 . S
C575 C574 1.384 . S
C575 C578 1.382 . S
C576 C574 1.384 . S
C576 C577 1.381 . S
C576 H603 0.930 . S
C577 C576 1.381 . S
C577 C579 1.381 . S
C577 C580 1.487 . S
C578 C575 1.382 . S
C578 C579 1.387 . S
C578 H604 0.930 . S
C579 C577 1.381 . S
C579 C578 1.387 . S
C579 H605 0.931 . S
C580 C577 1.487 . S
C580 C587 1.399 . S
C580 N618 1.343 . S
C581 C582 1.384 . S
C581 C583 1.384 . S
C581 H606 0.931 . S
C582 C581 1.384 . S
C582 C585 1.382 . S
C583 C581 1.384 . S
C583 C584 1.381 . S
C583 H607 0.930 . S
C584 C583 1.381 . S
C584 C586 1.381 . S
C584 C587 1.487 . S
C585 C582 1.382 . S
C585 C586 1.387 . S
C585 H608 0.930 . S
C586 C584 1.381 . S
C586 C585 1.387 . S
C586 H609 0.931 . S
C587 C580 1.399 . S
C587 C584 1.487 . S
C587 N619 1.343 . S
C588 C589 1.384 . S
C588 C590 1.384 . S
C588 H610 0.931 . S
C589 C588 1.384 . S
C589 C592 1.382 . S
C590 C588 1.384 . S
C590 C591 1.381 . S
C590 H611 0.930 . S
C591 C590 1.381 . S
C591 C593 1.381 . S
C591 C594 1.487 . S
C592 C589 1.382 . S
C592 C593 1.387 . S
C592 H612 0.930 . S
C593 C591 1.381 . S
C593 C592 1.387 . S
C593 H613 0.931 . S
C594 C591 1.487 . S
C594 C601 1.399 . S
C594 N619 1.343 . S
C595 C596 1.384 . S
C595 C597 1.384 . S
C595 H614 0.931 . S
C596 C595 1.384 . S
C596 C599 1.382 . S
C597 C595 1.384 . S
C597 C598 1.381 . S
C597 H615 0.930 . S
C598 C597 1.381 . S
C598 C600 1.381 . S
C598 C601 1.487 . S
C599 C596 1.382 . S
C599 C600 1.387 . S
C599 H616 0.930 . S
C600 C598 1.381 . S
C600 C599 1.387 . S
C600 H617 0.931 . S
C601 C594 1.399 . S
C601 C598 1.487 . S
C601 N618 1.343 . S
H602 C574 0.931 . S
H603 C576 0.930 . S
H604 C578 0.930 . S
H605 C579 0.931 . S
H606 C581 0.931 . S
H607 C583 0.930 . S
H608 C585 0.930 . S
H609 C586 0.931 . S
H610 C588 0.931 . S
H611 C590 0.930 . S
H612 C592 0.930 . S
H613 C593 0.931 . S
H614 C595 0.931 . S
H615 C597 0.930 . S
H616 C599 0.930 . S
H617 C600 0.931 . S
N618 C580 1.343 . S
N618 C601 1.343 . S
N619 C587 1.343 . S
N619 C594 1.343 . S
C620 C621 1.384 . S
C620 C622 1.384 . S
C620 H648 0.931 . S
C621 C620 1.384 . S
C621 C624 1.382 . S
C622 C620 1.384 . S
C622 C623 1.381 . S
C622 H649 0.930 . S
C623 C622 1.381 . S
C623 C625 1.381 . S
C623 C626 1.487 . S
C624 C621 1.382 . S
C624 C625 1.387 . S
C624 H650 0.930 . S
C625 C623 1.381 . S
C625 C624 1.387 . S
C625 H651 0.931 . S
C626 C623 1.487 . S
C626 C633 1.399 . S
C626 N664 1.343 . S
C627 C628 1.384 . S
C627 C629 1.384 . S
C627 H652 0.931 . S
C628 C627 1.384 . S
C628 C631 1.382 . S
C629 C627 1.384 . S
C629 C630 1.381 . S
C629 H653 0.930 . S
C630 C629 1.381 . S
C630 C632 1.381 . S
C630 C633 1.487 . S
C631 C628 1.382 . S
C631 C632 1.387 . S
C631 H654 0.930 . S
C632 C630 1.381 . S
C632 C631 1.387 . S
C632 H655 0.931 . S
C633 C626 1.399 . S
C633 C630 1.487 . S
C633 N665 1.343 . S
C634 C635 1.384 . S
C634 C636 1.384 . S
C634 H656 0.931 . S
C635 C634 1.384 . S
C635 C638 1.382 . S
C636 C634 1.384 . S
C636 C637 1.381 . S
C636 H657 0.930 . S
C637 C636 1.381 . S
C637 C639 1.381 . S
C637 C640 1.487 . S
C638 C635 1.382 . S
C638 C639 1.387 . S
C638 H658 0.930 . S
C639 C637 1.381 . S
C639 C638 1.387 . S
C639 H659 0.931 . S
C640 C637 1.487 . S
C640 C647 1.399 . S
C640 N665 1.343 . S
C641 C642 1.384 . S
C641 C643 1.384 . S
C641 H660 0.931 . S
C642 C641 1.384 . S
C642 C645 1.382 . S
C643 C641 1.384 . S
C643 C644 1.381 . S
C643 H661 0.930 . S
C644 C643 1.381 . S
C644 C646 1.381 . S
C644 C647 1.487 . S
C645 C642 1.382 . S
C645 C646 1.387 . S
C645 H662 0.930 . S
C646 C644 1.381 . S
C646 C645 1.387 . S
C646 H663 0.931 . S
C647 C640 1.399 . S
C647 C644 1.487 . S
C647 N664 1.343 . S
H648 C620 0.931 . S
H649 C622 0.930 . S
H650 C624 0.930 . S
H651 C625 0.931 . S
H652 C627 0.931 . S
H653 C629 0.930 . S
H654 C631 0.930 . S
H655 C632 0.931 . S
H656 C634 0.931 . S
H657 C636 0.930 . S
H658 C638 0.930 . S
H659 C639 0.931 . S
H660 C641 0.931 . S
H661 C643 0.930 . S
H662 C645 0.930 . S
H663 C646 0.931 . S
N664 C626 1.343 . S
N664 C647 1.343 . S
N665 C633 1.343 . S
N665 C640 1.343 . S
C666 C667 1.384 . S
C666 C668 1.384 . S
C666 H694 0.931 . S
C667 C666 1.384 . S
C667 C670 1.382 1_655 S
C668 C666 1.384 . S
C668 C669 1.390 . S
C668 H695 0.930 . S
C669 C668 1.390 . S
C669 C671 1.376 1_655 S
C669 C672 1.477 1_655 S
C670 C667 1.382 1_455 S
C670 C671 1.387 . S
C670 H696 0.930 . S
C671 C669 1.376 1_455 S
C671 C670 1.387 . S
C671 H697 0.931 . S
C672 C669 1.477 1_455 S
C672 C679 1.398 1_455 S
C672 N710 1.350 . S
C673 C674 1.384 . S
C673 C675 1.384 . S
C673 H698 0.931 . S
C674 C673 1.384 . S
C674 C677 1.382 1_455 S
C675 C673 1.384 . S
C675 C676 1.383 1_455 S
C675 H699 0.930 . S
C676 C675 1.383 1_655 S
C676 C678 1.377 . S
C676 C679 1.496 . S
C677 C674 1.382 1_655 S
C677 C678 1.387 . S
C677 H700 0.930 . S
C678 C676 1.377 . S
C678 C677 1.387 . S
C678 H701 0.931 . S
C679 C672 1.398 1_655 S
C679 C676 1.496 . S
C679 N711 1.363 . S
C680 C681 1.384 . S
C680 C682 1.384 . S
C680 H702 0.931 . S
C681 C680 1.384 . S
C681 C684 1.382 1_455 S
C682 C680 1.384 . S
C682 C683 1.407 . S
C682 H703 0.930 . S
C683 C682 1.407 . S
C683 C685 1.368 1_455 S
C683 C686 1.477 1_455 S
C684 C681 1.382 1_655 S
C684 C685 1.387 . S
C684 H704 0.930 . S
C685 C683 1.368 1_655 S
C685 C684 1.387 . S
C685 H705 0.931 . S
C686 C683 1.477 1_655 S
C686 C693 1.398 1_655 S
C686 N711 1.312 . S
C687 C688 1.384 . S
C687 C689 1.384 . S
C687 H706 0.931 . S
C688 C687 1.384 . S
C688 C691 1.382 1_655 S
C689 C687 1.384 . S
C689 C690 1.379 1_655 S
C689 H707 0.930 . S
C690 C689 1.379 1_455 S
C690 C692 1.387 . S
C690 C693 1.496 . S
C691 C688 1.382 1_455 S
C691 C692 1.387 . S
C691 H708 0.930 . S
C692 C690 1.387 . S
C692 C691 1.387 . S
C692 H709 0.931 . S
C693 C686 1.398 1_455 S
C693 C690 1.496 . S
C693 N710 1.330 . S
H694 C666 0.931 . S
H695 C668 0.930 . S
H696 C670 0.930 . S
H697 C671 0.931 . S
H698 C673 0.931 . S
H699 C675 0.930 . S
H700 C677 0.930 . S
H701 C678 0.931 . S
H702 C680 0.931 . S
H703 C682 0.930 . S
H704 C684 0.930 . S
H705 C685 0.931 . S
H706 C687 0.931 . S
H707 C689 0.930 . S
H708 C691 0.930 . S
H709 C692 0.931 . S
N710 C672 1.350 . S
N710 C693 1.330 . S
N711 C679 1.363 . S
N711 C686 1.312 . S
C712 C713 1.384 . S
C712 C714 1.384 . S
C712 H740 0.931 . S
C713 C712 1.384 . S
C713 C716 1.382 . S
C714 C712 1.384 . S
C714 C715 1.381 . S
C714 H741 0.930 . S
C715 C714 1.381 . S
C715 C717 1.381 . S
C715 C718 1.487 . S
C716 C713 1.382 . S
C716 C717 1.387 . S
C716 H742 0.930 . S
C717 C715 1.381 . S
C717 C716 1.387 . S
C717 H743 0.931 . S
C718 C715 1.487 . S
C718 C725 1.399 . S
C718 N756 1.343 . S
C719 C720 1.384 . S
C719 C721 1.384 . S
C719 H744 0.931 . S
C720 C719 1.384 . S
C720 C723 1.382 . S
C721 C719 1.384 . S
C721 C722 1.381 . S
C721 H745 0.930 . S
C722 C721 1.381 . S
C722 C724 1.381 . S
C722 C725 1.487 . S
C723 C720 1.382 . S
C723 C724 1.387 . S
C723 H746 0.930 . S
C724 C722 1.381 . S
C724 C723 1.387 . S
C724 H747 0.931 . S
C725 C718 1.399 . S
C725 C722 1.487 . S
C725 N757 1.343 . S
C726 C727 1.384 . S
C726 C728 1.384 . S
C726 H748 0.931 . S
C727 C726 1.384 . S
C727 C730 1.382 . S
C728 C726 1.384 . S
C728 C729 1.381 . S
C728 H749 0.930 . S
C729 C728 1.381 . S
C729 C731 1.381 . S
C729 C732 1.487 . S
C730 C727 1.382 . S
C730 C731 1.387 . S
C730 H750 0.930 . S
C731 C729 1.381 . S
C731 C730 1.387 . S
C731 H751 0.931 . S
C732 C729 1.487 . S
C732 C739 1.399 . S
C732 N757 1.343 . S
C733 C734 1.384 . S
C733 C735 1.384 . S
C733 H752 0.931 . S
C734 C733 1.384 . S
C734 C737 1.382 . S
C735 C733 1.384 . S
C735 C736 1.381 . S
C735 H753 0.930 . S
C736 C735 1.381 . S
C736 C738 1.381 . S
C736 C739 1.487 . S
C737 C734 1.382 . S
C737 C738 1.387 . S
C737 H754 0.930 . S
C738 C736 1.381 . S
C738 C737 1.387 . S
C738 H755 0.931 . S
C739 C732 1.399 . S
C739 C736 1.487 . S
C739 N756 1.343 . S
H740 C712 0.931 . S
H741 C714 0.930 . S
H742 C716 0.930 . S
H743 C717 0.931 . S
H744 C719 0.931 . S
H745 C721 0.930 . S
H746 C723 0.930 . S
H747 C724 0.931 . S
H748 C726 0.931 . S
H749 C728 0.930 . S
H750 C730 0.930 . S
H751 C731 0.931 . S
H752 C733 0.931 . S
H753 C735 0.930 . S
H754 C737 0.930 . S
H755 C738 0.931 . S
N756 C718 1.343 . S
N756 C739 1.343 . S
N757 C725 1.343 . S
N757 C732 1.343 . S
C758 C759 1.384 1_545 S
C758 C760 1.384 . S
C758 H786 0.931 . S
C759 C758 1.384 1_565 S
C759 C762 1.382 . S
C760 C758 1.384 . S
C760 C761 1.381 1_545 S
C760 H787 0.930 . S
C761 C760 1.381 1_565 S
C761 C763 1.381 . S
C761 C764 1.487 . S
C762 C759 1.382 . S
C762 C763 1.387 . S
C762 H788 0.930 . S
C763 C761 1.381 . S
C763 C762 1.387 . S
C763 H789 0.931 . S
C764 C761 1.487 . S
C764 C771 1.399 1_565 S
C764 N802 1.343 . S
C765 C766 1.384 1_565 S
C765 C767 1.384 . S
C765 H790 0.931 . S
C766 C765 1.384 1_545 S
C766 C769 1.382 . S
C767 C765 1.384 . S
C767 C768 1.381 1_565 S
C767 H791 0.930 . S
C768 C767 1.381 1_545 S
C768 C770 1.381 . S
C768 C771 1.487 . S
C769 C766 1.382 . S
C769 C770 1.387 . S
C769 H792 0.930 . S
C770 C768 1.381 . S
C770 C769 1.387 . S
C770 H793 0.931 . S
C771 C764 1.399 1_545 S
C771 C768 1.487 . S
C771 N803 1.343 . S
C772 C773 1.384 1_565 S
C772 C774 1.384 . S
C772 H794 0.931 . S
C773 C772 1.384 1_545 S
C773 C776 1.382 . S
C774 C772 1.384 . S
C774 C775 1.381 1_565 S
C774 H795 0.930 . S
C775 C774 1.381 1_545 S
C775 C777 1.381 . S
C775 C778 1.487 . S
C776 C773 1.382 . S
C776 C777 1.387 . S
C776 H796 0.930 . S
C777 C775 1.381 . S
C777 C776 1.387 . S
C777 H797 0.931 . S
C778 C775 1.487 . S
C778 C785 1.399 1_545 S
C778 N803 1.343 . S
C779 C780 1.384 1_545 S
C779 C781 1.384 . S
C779 H798 0.931 . S
C780 C779 1.384 1_565 S
C780 C783 1.382 . S
C781 C779 1.384 . S
C781 C782 1.381 1_545 S
C781 H799 0.930 . S
C782 C781 1.381 1_565 S
C782 C784 1.381 . S
C782 C785 1.487 . S
C783 C780 1.382 . S
C783 C784 1.387 . S
C783 H800 0.930 . S
C784 C782 1.381 . S
C784 C783 1.387 . S
C784 H801 0.931 . S
C785 C778 1.399 1_565 S
C785 C782 1.487 . S
C785 N802 1.343 . S
H786 C758 0.931 . S
H787 C760 0.930 . S
H788 C762 0.930 . S
H789 C763 0.931 . S
H790 C765 0.931 . S
H791 C767 0.930 . S
H792 C769 0.930 . S
H793 C770 0.931 . S
H794 C772 0.931 . S
H795 C774 0.930 . S
H796 C776 0.930 . S
H797 C777 0.931 . S
H798 C779 0.931 . S
H799 C781 0.930 . S
H800 C783 0.930 . S
H801 C784 0.931 . S
N802 C764 1.343 . S
N802 C785 1.343 . S
N803 C771 1.343 . S
N803 C778 1.343 . S
C804 C805 1.384 . S
C804 C806 1.384 . S
C804 H832 0.931 . S
C805 C804 1.384 . S
C805 C808 1.382 1_545 S
C806 C804 1.384 . S
C806 C807 1.385 . S
C806 H833 0.930 . S
C807 C806 1.385 . S
C807 C809 1.371 1_545 S
C807 C810 1.495 1_545 S
C808 C805 1.382 1_565 S
C808 C809 1.387 . S
C808 H834 0.930 . S
C809 C807 1.371 1_565 S
C809 C808 1.387 . S
C809 H835 0.931 . S
C810 C807 1.495 1_565 S
C810 C817 1.399 1_565 S
C810 N848 1.367 . S
C811 C812 1.384 . S
C811 C813 1.384 . S
C811 H836 0.931 . S
C812 C811 1.384 . S
C812 C815 1.382 1_565 S
C813 C811 1.384 . S
C813 C814 1.379 . S
C813 H837 0.930 . S
C814 C813 1.379 . S
C814 C816 1.383 1_565 S
C814 C817 1.479 1_565 S
C815 C812 1.382 1_545 S
C815 C816 1.387 . S
C815 H838 0.930 . S
C816 C814 1.383 1_545 S
C816 C815 1.387 . S
C816 H839 0.931 . S
C817 C810 1.399 1_545 S
C817 C814 1.479 1_545 S
C817 N849 1.320 . S
C818 C819 1.384 . S
C818 C820 1.384 . S
C818 H840 0.931 . S
C819 C818 1.384 . S
C819 C822 1.382 1_565 S
C820 C818 1.384 . S
C820 C821 1.382 . S
C820 H841 0.930 . S
C821 C820 1.382 . S
C821 C823 1.380 1_565 S
C821 C824 1.495 1_565 S
C822 C819 1.382 1_545 S
C822 C823 1.387 . S
C822 H842 0.930 . S
C823 C821 1.380 1_545 S
C823 C822 1.387 . S
C823 H843 0.931 . S
C824 C821 1.495 1_545 S
C824 C831 1.399 1_545 S
C824 N849 1.367 . S
C825 C826 1.384 . S
C825 C827 1.384 . S
C825 H844 0.931 . S
C826 C825 1.384 . S
C826 C829 1.382 1_545 S
C827 C825 1.384 . S
C827 C828 1.395 . S
C827 H845 0.930 . S
C828 C827 1.395 . S
C828 C830 1.374 1_545 S
C828 C831 1.479 1_545 S
C829 C826 1.382 1_565 S
C829 C830 1.387 . S
C829 H846 0.930 . S
C830 C828 1.374 1_565 S
C830 C829 1.387 . S
C830 H847 0.931 . S
C831 C824 1.399 1_565 S
C831 C828 1.479 1_565 S
C831 N848 1.320 . S
H832 C804 0.931 . S
H833 C806 0.930 . S
H834 C808 0.930 . S
H835 C809 0.931 . S
H836 C811 0.931 . S
H837 C813 0.930 . S
H838 C815 0.930 . S
H839 C816 0.931 . S
H840 C818 0.931 . S
H841 C820 0.930 . S
H842 C822 0.930 . S
H843 C823 0.931 . S
H844 C825 0.931 . S
H845 C827 0.930 . S
H846 C829 0.930 . S
H847 C830 0.931 . S
N848 C810 1.367 . S
N848 C831 1.320 . S
N849 C817 1.320 . S
N849 C824 1.367 . S
C850 C851 1.384 . S
C850 C852 1.384 . S
C850 H878 0.931 . S
C851 C850 1.384 . S
C851 C854 1.382 1_655 S
C852 C850 1.384 . S
C852 C853 1.424 . S
C852 H879 0.930 . S
C853 C852 1.424 . S
C853 C855 1.359 1_655 S
C853 C856 1.466 . S
C854 C851 1.382 1_455 S
C854 C855 1.387 . S
C854 H880 0.930 . S
C855 C853 1.359 1_455 S
C855 C854 1.387 . S
C855 H881 0.931 . S
C856 C853 1.466 . S
C856 C863 1.398 . S
C856 N894 1.324 1_655 S
C857 C858 1.384 . S
C857 C859 1.384 . S
C857 H882 0.931 . S
C858 C857 1.384 . S
C858 C861 1.382 1_455 S
C859 C857 1.384 . S
C859 C860 1.383 1_455 S
C859 H883 0.930 . S
C860 C859 1.383 1_655 S
C860 C862 1.377 . S
C860 C863 1.500 . S
C861 C858 1.382 1_655 S
C861 C862 1.387 . S
C861 H884 0.930 . S
C862 C860 1.377 . S
C862 C861 1.387 . S
C862 H885 0.931 . S
C863 C856 1.398 . S
C863 C860 1.500 . S
C863 N895 1.360 . S
C864 C865 1.384 . S
C864 C866 1.384 . S
C864 H886 0.931 . S
C865 C864 1.384 . S
C865 C868 1.382 1_455 S
C866 C864 1.384 . S
C866 C867 1.407 . S
C866 H887 0.930 . S
C867 C866 1.407 . S
C867 C869 1.368 1_455 S
C867 C870 1.473 1_455 S
C868 C865 1.382 1_655 S
C868 C869 1.387 . S
C868 H888 0.930 . S
C869 C867 1.368 1_655 S
C869 C868 1.387 . S
C869 H889 0.931 . S
C870 C867 1.473 1_655 S
C870 C877 1.399 1_655 S
C870 N895 1.316 . S
C871 C872 1.384 . S
C871 C873 1.384 . S
C871 H890 0.931 . S
C872 C871 1.384 . S
C872 C875 1.382 1_655 S
C873 C871 1.384 . S
C873 C874 1.383 . S
C873 H891 0.930 . S
C874 C873 1.383 . S
C874 C876 1.377 1_655 S
C874 C877 1.493 1_655 S
C875 C872 1.382 1_455 S
C875 C876 1.387 . S
C875 H892 0.930 . S
C876 C874 1.377 1_455 S
C876 C875 1.387 . S
C876 H893 0.931 . S
C877 C870 1.399 1_455 S
C877 C874 1.493 1_455 S
C877 N894 1.360 . S
H878 C850 0.931 . S
H879 C852 0.930 . S
H880 C854 0.930 . S
H881 C855 0.931 . S
H882 C857 0.931 . S
H883 C859 0.930 . S
H884 C861 0.930 . S
H885 C862 0.931 . S
H886 C864 0.931 . S
H887 C866 0.930 . S
H888 C868 0.930 . S
H889 C869 0.931 . S
H890 C871 0.931 . S
H891 C873 0.930 . S
H892 C875 0.930 . S
H893 C876 0.931 . S
N894 C856 1.324 1_455 S
N894 C877 1.360 . S
N895 C863 1.360 . S
N895 C870 1.316 . S
C896 C897 1.384 . S
C896 C898 1.384 . S
C896 H924 0.931 . S
C897 C896 1.384 . S
C897 C900 1.382 . S
C898 C896 1.384 . S
C898 C899 1.381 . S
C898 H925 0.930 . S
C899 C898 1.381 . S
C899 C901 1.381 . S
C899 C902 1.487 . S
C900 C897 1.382 . S
C900 C901 1.387 . S
C900 H926 0.930 . S
C901 C899 1.381 . S
C901 C900 1.387 . S
C901 H927 0.931 . S
C902 C899 1.487 . S
C902 C909 1.399 . S
C902 N940 1.343 . S
C903 C904 1.384 . S
C903 C905 1.384 . S
C903 H928 0.931 . S
C904 C903 1.384 . S
C904 C907 1.382 . S
C905 C903 1.384 . S
C905 C906 1.381 . S
C905 H929 0.930 . S
C906 C905 1.381 . S
C906 C908 1.381 . S
C906 C909 1.487 . S
C907 C904 1.382 . S
C907 C908 1.387 . S
C907 H930 0.930 . S
C908 C906 1.381 . S
C908 C907 1.387 . S
C908 H931 0.931 . S
C909 C902 1.399 . S
C909 C906 1.487 . S
C909 N941 1.343 . S
C910 C911 1.384 . S
C910 C912 1.384 . S
C910 H932 0.931 . S
C911 C910 1.384 . S
C911 C914 1.382 . S
C912 C910 1.384 . S
C912 C913 1.381 . S
C912 H933 0.930 . S
C913 C912 1.381 . S
C913 C915 1.381 . S
C913 C916 1.487 . S
C914 C911 1.382 . S
C914 C915 1.387 . S
C914 H934 0.930 . S
C915 C913 1.381 . S
C915 C914 1.387 . S
C915 H935 0.931 . S
C916 C913 1.487 . S
C916 C923 1.399 . S
C916 N941 1.343 . S
C917 C918 1.384 . S
C917 C919 1.384 . S
C917 H936 0.931 . S
C918 C917 1.384 . S
C918 C921 1.382 . S
C919 C917 1.384 . S
C919 C920 1.381 . S
C919 H937 0.930 . S
C920 C919 1.381 . S
C920 C922 1.381 . S
C920 C923 1.487 . S
C921 C918 1.382 . S
C921 C922 1.387 . S
C921 H938 0.930 . S
C922 C920 1.381 . S
C922 C921 1.387 . S
C922 H939 0.931 . S
C923 C916 1.399 . S
C923 C920 1.487 . S
C923 N940 1.343 . S
H924 C896 0.931 . S
H925 C898 0.930 . S
H926 C900 0.930 . S
H927 C901 0.931 . S
H928 C903 0.931 . S
H929 C905 0.930 . S
H930 C907 0.930 . S
H931 C908 0.931 . S
H932 C910 0.931 . S
H933 C912 0.930 . S
H934 C914 0.930 . S
H935 C915 0.931 . S
H936 C917 0.931 . S
H937 C919 0.930 . S
H938 C921 0.930 . S
H939 C922 0.931 . S
N940 C902 1.343 . S
N940 C923 1.343 . S
N941 C909 1.343 . S
N941 C916 1.343 . S
C942 C943 1.384 . S
C942 C944 1.384 . S
C942 H970 0.931 . S
C943 C942 1.384 . S
C943 C946 1.382 . S
C944 C942 1.384 . S
C944 C945 1.381 . S
C944 H971 0.930 . S
C945 C944 1.381 . S
C945 C947 1.381 . S
C945 C948 1.487 . S
C946 C943 1.382 . S
C946 C947 1.387 . S
C946 H972 0.930 . S
C947 C945 1.381 . S
C947 C946 1.387 . S
C947 H973 0.931 . S
C948 C945 1.487 . S
C948 C955 1.399 . S
C948 N986 1.343 . S
C949 C950 1.384 . S
C949 C951 1.384 . S
C949 H974 0.931 . S
C950 C949 1.384 . S
C950 C953 1.382 . S
C951 C949 1.384 . S
C951 C952 1.381 . S
C951 H975 0.930 . S
C952 C951 1.381 . S
C952 C954 1.381 . S
C952 C955 1.487 . S
C953 C950 1.382 . S
C953 C954 1.387 . S
C953 H976 0.930 . S
C954 C952 1.381 . S
C954 C953 1.387 . S
C954 H977 0.931 . S
C955 C948 1.399 . S
C955 C952 1.487 . S
C955 N987 1.343 . S
C956 C957 1.384 . S
C956 C958 1.384 . S
C956 H978 0.931 . S
C957 C956 1.384 . S
C957 C960 1.382 . S
C958 C956 1.384 . S
C958 C959 1.381 . S
C958 H979 0.930 . S
C959 C958 1.381 . S
C959 C961 1.381 . S
C959 C962 1.487 . S
C960 C957 1.382 . S
C960 C961 1.387 . S
C960 H980 0.930 . S
C961 C959 1.381 . S
C961 C960 1.387 . S
C961 H981 0.931 . S
C962 C959 1.487 . S
C962 C969 1.399 . S
C962 N987 1.343 . S
C963 C964 1.384 . S
C963 C965 1.384 . S
C963 H982 0.931 . S
C964 C963 1.384 . S
C964 C967 1.382 . S
C965 C963 1.384 . S
C965 C966 1.381 . S
C965 H983 0.930 . S
C966 C965 1.381 . S
C966 C968 1.381 . S
C966 C969 1.487 . S
C967 C964 1.382 . S
C967 C968 1.387 . S
C967 H984 0.930 . S
C968 C966 1.381 . S
C968 C967 1.387 . S
C968 H985 0.931 . S
C969 C962 1.399 . S
C969 C966 1.487 . S
C969 N986 1.343 . S
H970 C942 0.931 . S
H971 C944 0.930 . S
H972 C946 0.930 . S
H973 C947 0.931 . S
H974 C949 0.931 . S
H975 C951 0.930 . S
H976 C953 0.930 . S
H977 C954 0.931 . S
H978 C956 0.931 . S
H979 C958 0.930 . S
H980 C960 0.930 . S
H981 C961 0.931 . S
H982 C963 0.931 . S
H983 C965 0.930 . S
H984 C967 0.930 . S
H985 C968 0.931 . S
N986 C948 1.343 . S
N986 C969 1.343 . S
N987 C955 1.343 . S
N987 C962 1.343 . S
C988 C989 1.384 . S
C988 C990 1.384 . S
C988 H1016 0.931 . S
C989 C988 1.384 . S
C989 C992 1.382 . S
C990 C988 1.384 . S
C990 C991 1.381 . S
C990 H1017 0.930 . S
C991 C990 1.381 . S
C991 C993 1.381 . S
C991 C994 1.487 . S
C992 C989 1.382 . S
C992 C993 1.387 . S
C992 H1018 0.930 . S
C993 C991 1.381 . S
C993 C992 1.387 . S
C993 H1019 0.931 . S
C994 C991 1.487 . S
C994 C1001 1.399 . S
C994 N1032 1.343 . S
C995 C996 1.384 . S
C995 C997 1.384 . S
C995 H1020 0.931 . S
C996 C995 1.384 . S
C996 C999 1.382 . S
C997 C995 1.384 . S
C997 C998 1.381 . S
C997 H1021 0.930 . S
C998 C997 1.381 . S
C998 C1000 1.381 . S
C998 C1001 1.487 . S
C999 C996 1.382 . S
C999 C1000 1.387 . S
C999 H1022 0.930 . S
C1000 C998 1.381 . S
C1000 C999 1.387 . S
C1000 H1023 0.931 . S
C1001 C994 1.399 . S
C1001 C998 1.487 . S
C1001 N1033 1.343 . S
C1002 C1003 1.384 . S
C1002 C1004 1.384 . S
C1002 H1024 0.931 . S
C1003 C1002 1.384 . S
C1003 C1006 1.382 . S
C1004 C1002 1.384 . S
C1004 C1005 1.381 . S
C1004 H1025 0.930 . S
C1005 C1004 1.381 . S
C1005 C1007 1.381 . S
C1005 C1008 1.487 . S
C1006 C1003 1.382 . S
C1006 C1007 1.387 . S
C1006 H1026 0.930 . S
C1007 C1005 1.381 . S
C1007 C1006 1.387 . S
C1007 H1027 0.931 . S
C1008 C1005 1.487 . S
C1008 C1015 1.399 . S
C1008 N1033 1.343 . S
C1009 C1010 1.384 . S
C1009 C1011 1.384 . S
C1009 H1028 0.931 . S
C1010 C1009 1.384 . S
C1010 C1013 1.382 . S
C1011 C1009 1.384 . S
C1011 C1012 1.381 . S
C1011 H1029 0.930 . S
C1012 C1011 1.381 . S
C1012 C1014 1.381 . S
C1012 C1015 1.487 . S
C1013 C1010 1.382 . S
C1013 C1014 1.387 . S
C1013 H1030 0.930 . S
C1014 C1012 1.381 . S
C1014 C1013 1.387 . S
C1014 H1031 0.931 . S
C1015 C1008 1.399 . S
C1015 C1012 1.487 . S
C1015 N1032 1.343 . S
H1016 C988 0.931 . S
H1017 C990 0.930 . S
H1018 C992 0.930 . S
H1019 C993 0.931 . S
H1020 C995 0.931 . S
H1021 C997 0.930 . S
H1022 C999 0.930 . S
H1023 C1000 0.931 . S
H1024 C1002 0.931 . S
H1025 C1004 0.930 . S
H1026 C1006 0.930 . S
H1027 C1007 0.931 . S
H1028 C1009 0.931 . S
H1029 C1011 0.930 . S
H1030 C1013 0.930 . S
H1031 C1014 0.931 . S
N1032 C994 1.343 . S
N1032 C1015 1.343 . S
N1033 C1001 1.343 . S
N1033 C1008 1.343 . S
C1034 C1035 1.384 . S
C1034 C1036 1.384 . S
C1034 H1062 0.931 . S
C1035 C1034 1.384 . S
C1035 C1038 1.382 . S
C1036 C1034 1.384 . S
C1036 C1037 1.381 . S
C1036 H1063 0.930 . S
C1037 C1036 1.381 . S
C1037 C1039 1.381 . S
C1037 C1040 1.487 . S
C1038 C1035 1.382 . S
C1038 C1039 1.387 . S
C1038 H1064 0.930 . S
C1039 C1037 1.381 . S
C1039 C1038 1.387 . S
C1039 H1065 0.931 . S
C1040 C1037 1.487 . S
C1040 C1047 1.399 . S
C1040 N1078 1.343 . S
C1041 C1042 1.384 . S
C1041 C1043 1.384 . S
C1041 H1066 0.931 . S
C1042 C1041 1.384 . S
C1042 C1045 1.382 . S
C1043 C1041 1.384 . S
C1043 C1044 1.381 . S
C1043 H1067 0.930 . S
C1044 C1043 1.381 . S
C1044 C1046 1.381 . S
C1044 C1047 1.487 . S
C1045 C1042 1.382 . S
C1045 C1046 1.387 . S
C1045 H1068 0.930 . S
C1046 C1044 1.381 . S
C1046 C1045 1.387 . S
C1046 H1069 0.931 . S
C1047 C1040 1.399 . S
C1047 C1044 1.487 . S
C1047 N1079 1.343 . S
C1048 C1049 1.384 . S
C1048 C1050 1.384 . S
C1048 H1070 0.931 . S
C1049 C1048 1.384 . S
C1049 C1052 1.382 . S
C1050 C1048 1.384 . S
C1050 C1051 1.381 . S
C1050 H1071 0.930 . S
C1051 C1050 1.381 . S
C1051 C1053 1.381 . S
C1051 C1054 1.487 . S
C1052 C1049 1.382 . S
C1052 C1053 1.387 . S
C1052 H1072 0.930 . S
C1053 C1051 1.381 . S
C1053 C1052 1.387 . S
C1053 H1073 0.931 . S
C1054 C1051 1.487 . S
C1054 C1061 1.399 . S
C1054 N1079 1.343 . S
C1055 C1056 1.384 . S
C1055 C1057 1.384 . S
C1055 H1074 0.931 . S
C1056 C1055 1.384 . S
C1056 C1059 1.382 . S
C1057 C1055 1.384 . S
C1057 C1058 1.381 . S
C1057 H1075 0.930 . S
C1058 C1057 1.381 . S
C1058 C1060 1.381 . S
C1058 C1061 1.487 . S
C1059 C1056 1.382 . S
C1059 C1060 1.387 . S
C1059 H1076 0.930 . S
C1060 C1058 1.381 . S
C1060 C1059 1.387 . S
C1060 H1077 0.931 . S
C1061 C1054 1.399 . S
C1061 C1058 1.487 . S
C1061 N1078 1.343 . S
H1062 C1034 0.931 . S
H1063 C1036 0.930 . S
H1064 C1038 0.930 . S
H1065 C1039 0.931 . S
H1066 C1041 0.931 . S
H1067 C1043 0.930 . S
H1068 C1045 0.930 . S
H1069 C1046 0.931 . S
H1070 C1048 0.931 . S
H1071 C1050 0.930 . S
H1072 C1052 0.930 . S
H1073 C1053 0.931 . S
H1074 C1055 0.931 . S
H1075 C1057 0.930 . S
H1076 C1059 0.930 . S
H1077 C1060 0.931 . S
N1078 C1040 1.343 . S
N1078 C1061 1.343 . S
N1079 C1047 1.343 . S
N1079 C1054 1.343 . S
C1080 C1081 1.391 1_455 S
C1080 C1082 1.394 . S
C1080 H1096 0.931 . S
C1081 C1080 1.391 1_655 S
C1081 C1085 1.376 . S
C1082 C1080 1.394 . S
C1082 C1083 1.369 1_455 S
C1082 C1086 1.531 . S
C1083 C1082 1.369 1_655 S
C1083 C1084 1.410 . S
C1083 C1091 1.503 . S
C1084 C1083 1.410 . S
C1084 C1085 1.392 . S
C1084 C1087 1.511 . S
C1085 C1081 1.376 . S
C1085 C1084 1.392 . S
C1085 H1097 0.929 . S
C1086 C1082 1.531 . S
C1086 H1098 0.960 . S
C1086 H1099 0.962 . S
C1086 H1100 0.960 . S
C1087 C1084 1.511 . S
C1087 H1101 0.961 . S
C1087 H1102 0.961 . S
C1087 H1103 0.961 . S
C1088 C1089 1.406 . S
C1088 C1090 1.343 . S
C1088 H1104 0.911 1_655 S
C1089 C1088 1.406 . S
C1089 C1093 1.408 . S
C1090 C1088 1.343 . S
C1090 C1091 1.370 . S
C1090 C1094 1.523 . S
C1091 C1083 1.503 . S
C1091 C1090 1.370 . S
C1091 C1092 1.403 . S
C1092 C1091 1.403 . S
C1092 C1093 1.404 . S
C1092 C1095 1.539 . S
C1093 C1089 1.408 . S
C1093 C1092 1.404 . S
C1093 H1105 0.930 . S
C1094 C1090 1.523 . S
C1094 H1106 0.958 1_655 S
C1094 H1107 0.960 . S
C1094 H1108 0.961 . S
C1095 C1092 1.539 . S
C1095 H1109 0.958 1_655 S
C1095 H1110 0.961 . S
C1095 H1111 0.960 . S
H1096 C1080 0.931 . S
H1097 C1085 0.929 . S
H1098 C1086 0.960 . S
H1099 C1086 0.962 . S
H1100 C1086 0.960 . S
H1101 C1087 0.961 . S
H1102 C1087 0.961 . S
H1103 C1087 0.961 . S
H1104 C1088 0.911 1_455 S
H1105 C1093 0.930 . S
H1106 C1094 0.958 1_455 S
H1107 C1094 0.960 . S
H1108 C1094 0.961 . S
H1109 C1095 0.958 1_455 S
H1110 C1095 0.961 . S
H1111 C1095 0.960 . S
C1112 C1113 1.391 . S
C1112 C1114 1.394 . S
C1112 H1128 0.931 . S
C1113 C1112 1.391 . S
C1113 C1117 1.376 . S
C1114 C1112 1.394 . S
C1114 C1115 1.369 . S
C1114 C1118 1.531 . S
C1115 C1114 1.369 . S
C1115 C1116 1.410 . S
C1115 C1123 1.503 . S
C1116 C1115 1.410 . S
C1116 C1117 1.392 . S
C1116 C1119 1.511 . S
C1117 C1113 1.376 . S
C1117 C1116 1.392 . S
C1117 H1129 0.929 . S
C1118 C1114 1.531 . S
C1118 H1130 0.960 . S
C1118 H1131 0.962 . S
C1118 H1132 0.960 . S
C1119 C1116 1.511 . S
C1119 H1133 0.961 . S
C1119 H1134 0.961 . S
C1119 H1135 0.961 . S
C1120 C1121 1.370 . S
C1120 C1122 1.363 . S
C1120 H1136 0.931 . S
C1121 C1120 1.370 . S
C1121 C1125 1.408 . S
C1122 C1120 1.363 . S
C1122 C1123 1.370 . S
C1122 C1126 1.524 . S
C1123 C1115 1.503 . S
C1123 C1122 1.370 . S
C1123 C1124 1.403 . S
C1124 C1123 1.403 . S
C1124 C1125 1.404 . S
C1124 C1127 1.539 . S
C1125 C1121 1.408 . S
C1125 C1124 1.404 . S
C1125 H1137 0.930 . S
C1126 C1122 1.524 . S
C1126 H1138 0.956 . S
C1126 H1139 0.961 . S
C1126 H1140 0.961 . S
C1127 C1124 1.539 . S
C1127 H1141 0.958 . S
C1127 H1142 0.961 . S
C1127 H1143 0.960 . S
H1128 C1112 0.931 . S
H1129 C1117 0.929 . S
H1130 C1118 0.960 . S
H1131 C1118 0.962 . S
H1132 C1118 0.960 . S
H1133 C1119 0.961 . S
H1134 C1119 0.961 . S
H1135 C1119 0.961 . S
H1136 C1120 0.931 . S
H1137 C1125 0.930 . S
H1138 C1126 0.956 . S
H1139 C1126 0.961 . S
H1140 C1126 0.961 . S
H1141 C1127 0.958 . S
H1142 C1127 0.961 . S
H1143 C1127 0.960 . S
C1144 C1145 1.391 . S
C1144 C1146 1.394 . S
C1144 H1160 0.931 . S
C1145 C1144 1.391 . S
C1145 C1149 1.376 . S
C1146 C1144 1.394 . S
C1146 C1147 1.369 . S
C1146 C1150 1.531 . S
C1147 C1146 1.369 . S
C1147 C1148 1.410 . S
C1147 C1155 1.503 . S
C1148 C1147 1.410 . S
C1148 C1149 1.392 . S
C1148 C1151 1.511 . S
C1149 C1145 1.376 . S
C1149 C1148 1.392 . S
C1149 H1161 0.929 . S
C1150 C1146 1.531 . S
C1150 H1162 0.960 . S
C1150 H1163 0.962 1_545 S
C1150 H1164 0.960 . S
C1151 C1148 1.511 . S
C1151 H1165 0.961 . S
C1151 H1166 0.961 . S
C1151 H1167 0.961 . S
C1152 C1153 1.370 1_565 S
C1152 C1154 1.363 . S
C1152 H1168 0.931 . S
C1153 C1152 1.370 1_545 S
C1153 C1157 1.408 . S
C1154 C1152 1.363 . S
C1154 C1155 1.370 1_565 S
C1154 C1158 1.524 . S
C1155 C1147 1.503 . S
C1155 C1154 1.370 1_545 S
C1155 C1156 1.403 . S
C1156 C1155 1.403 . S
C1156 C1157 1.404 . S
C1156 C1159 1.539 . S
C1157 C1153 1.408 . S
C1157 C1156 1.404 . S
C1157 H1169 0.930 . S
C1158 C1154 1.524 . S
C1158 H1170 0.956 . S
C1158 H1171 0.961 . S
C1158 H1172 0.961 . S
C1159 C1156 1.539 . S
C1159 H1173 0.958 . S
C1159 H1174 0.961 . S
C1159 H1175 0.960 . S
H1160 C1144 0.931 . S
H1161 C1149 0.929 . S
H1162 C1150 0.960 . S
H1163 C1150 0.962 1_565 S
H1164 C1150 0.960 . S
H1165 C1151 0.961 . S
H1166 C1151 0.961 . S
H1167 C1151 0.961 . S
H1168 C1152 0.931 . S
H1169 C1157 0.930 . S
H1170 C1158 0.956 . S
H1171 C1158 0.961 . S
H1172 C1158 0.961 . S
H1173 C1159 0.958 . S
H1174 C1159 0.961 . S
H1175 C1159 0.960 . S
C1176 C1177 1.391 . S
C1176 C1178 1.394 . S
C1176 H1192 0.931 . S
C1177 C1176 1.391 . S
C1177 C1181 1.376 . S
C1178 C1176 1.394 . S
C1178 C1179 1.369 . S
C1178 C1182 1.531 . S
C1179 C1178 1.369 . S
C1179 C1180 1.410 . S
C1179 C1187 1.503 . S
C1180 C1179 1.410 . S
C1180 C1181 1.392 . S
C1180 C1183 1.511 . S
C1181 C1177 1.376 . S
C1181 C1180 1.392 . S
C1181 H1193 0.929 . S
C1182 C1178 1.531 . S
C1182 H1194 0.960 . S
C1182 H1195 0.962 . S
C1182 H1196 0.960 . S
C1183 C1180 1.511 . S
C1183 H1197 0.961 . S
C1183 H1198 0.961 . S
C1183 H1199 0.961 . S
C1184 C1185 1.370 1_545 S
C1184 C1186 1.363 . S
C1184 H1200 0.931 . S
C1185 C1184 1.370 1_565 S
C1185 C1189 1.408 . S
C1186 C1184 1.363 . S
C1186 C1187 1.370 1_545 S
C1186 C1190 1.524 . S
C1187 C1179 1.503 . S
C1187 C1186 1.370 1_565 S
C1187 C1188 1.403 . S
C1188 C1187 1.403 . S
C1188 C1189 1.404 . S
C1188 C1191 1.539 . S
C1189 C1185 1.408 . S
C1189 C1188 1.404 . S
C1189 H1201 0.930 . S
C1190 C1186 1.524 . S
C1190 H1202 0.956 . S
C1190 H1203 0.961 . S
C1190 H1204 0.961 . S
C1191 C1188 1.539 . S
C1191 H1205 0.958 . S
C1191 H1206 0.961 . S
C1191 H1207 0.960 . S
H1192 C1176 0.931 . S
H1193 C1181 0.929 . S
H1194 C1182 0.960 . S
H1195 C1182 0.962 . S
H1196 C1182 0.960 . S
H1197 C1183 0.961 . S
H1198 C1183 0.961 . S
H1199 C1183 0.961 . S
H1200 C1184 0.931 . S
H1201 C1189 0.930 . S
H1202 C1190 0.956 . S
H1203 C1190 0.961 . S
H1204 C1190 0.961 . S
H1205 C1191 0.958 . S
H1206 C1191 0.961 . S
H1207 C1191 0.960 . S
C1208 C1209 1.391 . S
C1208 C1210 1.394 . S
C1208 H1224 0.931 . S
C1209 C1208 1.391 . S
C1209 C1213 1.394 . S
C1210 C1208 1.394 . S
C1210 C1211 1.369 . S
C1210 C1214 1.531 . S
C1211 C1210 1.369 . S
C1211 C1212 1.410 1_455 S
C1211 C1219 1.503 . S
C1212 C1211 1.410 1_655 S
C1212 C1213 1.383 1_655 S
C1212 C1215 1.511 . S
C1213 C1209 1.394 . S
C1213 C1212 1.383 1_455 S
C1213 H1225 0.920 1_455 S
C1214 C1210 1.531 . S
C1214 H1226 0.960 . S
C1214 H1227 0.962 . S
C1214 H1228 0.960 . S
C1215 C1212 1.511 . S
C1215 H1229 0.961 . S
C1215 H1230 0.961 . S
C1215 H1231 0.961 . S
C1216 C1217 1.370 . S
C1216 C1218 1.363 . S
C1216 H1232 0.931 . S
C1217 C1216 1.370 . S
C1217 C1221 1.408 1_455 S
C1218 C1216 1.363 . S
C1218 C1219 1.370 . S
C1218 C1222 1.524 . S
C1219 C1211 1.503 . S
C1219 C1218 1.370 . S
C1219 C1220 1.389 1_455 S
C1220 C1219 1.389 1_655 S
C1220 C1221 1.423 . S
C1220 C1223 1.537 . S
C1221 C1217 1.408 1_655 S
C1221 C1220 1.423 . S
C1221 H1233 0.930 . S
C1222 C1218 1.524 . S
C1222 H1234 0.956 . S
C1222 H1235 0.961 . S
C1222 H1236 0.961 . S
C1223 C1220 1.537 . S
C1223 H1237 0.958 . S
C1223 H1238 0.961 . S
C1223 H1239 0.960 . S
H1224 C1208 0.931 . S
H1225 C1213 0.920 1_655 S
H1226 C1214 0.960 . S
H1227 C1214 0.962 . S
H1228 C1214 0.960 . S
H1229 C1215 0.961 . S
H1230 C1215 0.961 . S
H1231 C1215 0.961 . S
H1232 C1216 0.931 . S
H1233 C1221 0.930 . S
H1234 C1222 0.956 . S
H1235 C1222 0.961 . S
H1236 C1222 0.961 . S
H1237 C1223 0.958 . S
H1238 C1223 0.961 . S
H1239 C1223 0.960 . S
C1240 C1241 1.391 . S
C1240 C1242 1.394 . S
C1240 H1256 0.931 . S
C1241 C1240 1.391 . S
C1241 C1245 1.376 . S
C1242 C1240 1.394 . S
C1242 C1243 1.369 . S
C1242 C1246 1.531 . S
C1243 C1242 1.369 . S
C1243 C1244 1.410 . S
C1243 C1251 1.503 . S
C1244 C1243 1.410 . S
C1244 C1245 1.392 . S
C1244 C1247 1.511 . S
C1245 C1241 1.376 . S
C1245 C1244 1.392 . S
C1245 H1257 0.929 . S
C1246 C1242 1.531 . S
C1246 H1258 0.960 . S
C1246 H1259 0.962 . S
C1246 H1260 0.960 . S
C1247 C1244 1.511 . S
C1247 H1261 0.961 . S
C1247 H1262 0.961 . S
C1247 H1263 0.961 . S
C1248 C1249 1.370 . S
C1248 C1250 1.363 . S
C1248 H1264 0.931 . S
C1249 C1248 1.370 . S
C1249 C1253 1.408 . S
C1250 C1248 1.363 . S
C1250 C1251 1.370 . S
C1250 C1254 1.524 . S
C1251 C1243 1.503 . S
C1251 C1250 1.370 . S
C1251 C1252 1.403 . S
C1252 C1251 1.403 . S
C1252 C1253 1.404 . S
C1252 C1255 1.539 . S
C1253 C1249 1.408 . S
C1253 C1252 1.404 . S
C1253 H1265 0.930 . S
C1254 C1250 1.524 . S
C1254 H1266 0.956 . S
C1254 H1267 0.961 . S
C1254 H1268 0.961 . S
C1255 C1252 1.539 . S
C1255 H1269 0.958 . S
C1255 H1270 0.961 . S
C1255 H1271 0.960 . S
H1256 C1240 0.931 . S
H1257 C1245 0.929 . S
H1258 C1246 0.960 . S
H1259 C1246 0.962 . S
H1260 C1246 0.960 . S
H1261 C1247 0.961 . S
H1262 C1247 0.961 . S
H1263 C1247 0.961 . S
H1264 C1248 0.931 . S
H1265 C1253 0.930 . S
H1266 C1254 0.956 . S
H1267 C1254 0.961 . S
H1268 C1254 0.961 . S
H1269 C1255 0.958 . S
H1270 C1255 0.961 . S
H1271 C1255 0.960 . S
C1272 C1273 1.391 . S
C1272 C1274 1.394 . S
C1272 H1288 0.931 . S
C1273 C1272 1.391 . S
C1273 C1277 1.376 1_455 S
C1274 C1272 1.394 . S
C1274 C1275 1.369 . S
C1274 C1278 1.531 . S
C1275 C1274 1.369 . S
C1275 C1276 1.410 1_455 S
C1275 C1283 1.503 . S
C1276 C1275 1.410 1_655 S
C1276 C1277 1.392 . S
C1276 C1279 1.511 . S
C1277 C1273 1.376 1_655 S
C1277 C1276 1.392 . S
C1277 H1289 0.929 . S
C1278 C1274 1.531 . S
C1278 H1290 0.960 . S
C1278 H1291 0.962 . S
C1278 H1292 0.960 . S
C1279 C1276 1.511 . S
C1279 H1293 0.961 . S
C1279 H1294 0.961 . S
C1279 H1295 0.961 . S
C1280 C1281 1.370 . S
C1280 C1282 1.363 . S
C1280 H1296 0.931 . S
C1281 C1280 1.370 . S
C1281 C1285 1.408 1_455 S
C1282 C1280 1.363 . S
C1282 C1283 1.370 . S
C1282 C1286 1.524 . S
C1283 C1275 1.503 . S
C1283 C1282 1.370 . S
C1283 C1284 1.403 1_455 S
C1284 C1283 1.403 1_655 S
C1284 C1285 1.404 . S
C1284 C1287 1.539 . S
C1285 C1281 1.408 1_655 S
C1285 C1284 1.404 . S
C1285 H1297 0.930 . S
C1286 C1282 1.524 . S
C1286 H1298 0.956 . S
C1286 H1299 0.961 . S
C1286 H1300 0.961 . S
C1287 C1284 1.539 . S
C1287 H1301 0.958 . S
C1287 H1302 0.961 . S
C1287 H1303 0.960 . S
H1288 C1272 0.931 . S
H1289 C1277 0.929 . S
H1290 C1278 0.960 . S
H1291 C1278 0.962 . S
H1292 C1278 0.960 . S
H1293 C1279 0.961 . S
H1294 C1279 0.961 . S
H1295 C1279 0.961 . S
H1296 C1280 0.931 . S
H1297 C1285 0.930 . S
H1298 C1286 0.956 . S
H1299 C1286 0.961 . S
H1300 C1286 0.961 . S
H1301 C1287 0.958 . S
H1302 C1287 0.961 . S
H1303 C1287 0.960 . S
C1304 C1305 1.391 . S
C1304 C1306 1.394 . S
C1304 H1320 0.931 . S
C1305 C1304 1.391 . S
C1305 C1309 1.376 . S
C1306 C1304 1.394 . S
C1306 C1307 1.369 . S
C1306 C1310 1.531 . S
C1307 C1306 1.369 . S
C1307 C1308 1.410 . S
C1307 C1315 1.503 . S
C1308 C1307 1.410 . S
C1308 C1309 1.392 . S
C1308 C1311 1.511 . S
C1309 C1305 1.376 . S
C1309 C1308 1.392 . S
C1309 H1321 0.929 . S
C1310 C1306 1.531 . S
C1310 H1322 0.960 . S
C1310 H1323 0.962 . S
C1310 H1324 0.960 . S
C1311 C1308 1.511 . S
C1311 H1325 0.961 . S
C1311 H1326 0.961 . S
C1311 H1327 0.961 . S
C1312 C1313 1.370 . S
C1312 C1314 1.363 . S
C1312 H1328 0.931 . S
C1313 C1312 1.370 . S
C1313 C1317 1.408 . S
C1314 C1312 1.363 . S
C1314 C1315 1.370 . S
C1314 C1318 1.524 . S
C1315 C1307 1.503 . S
C1315 C1314 1.370 . S
C1315 C1316 1.403 . S
C1316 C1315 1.403 . S
C1316 C1317 1.404 . S
C1316 C1319 1.539 . S
C1317 C1313 1.408 . S
C1317 C1316 1.404 . S
C1317 H1329 0.930 . S
C1318 C1314 1.524 . S
C1318 H1330 0.956 . S
C1318 H1331 0.961 . S
C1318 H1332 0.961 . S
C1319 C1316 1.539 . S
C1319 H1333 0.958 . S
C1319 H1334 0.961 . S
C1319 H1335 0.960 . S
H1320 C1304 0.931 . S
H1321 C1309 0.929 . S
H1322 C1310 0.960 . S
H1323 C1310 0.962 . S
H1324 C1310 0.960 . S
H1325 C1311 0.961 . S
H1326 C1311 0.961 . S
H1327 C1311 0.961 . S
H1328 C1312 0.931 . S
H1329 C1317 0.930 . S
H1330 C1318 0.956 . S
H1331 C1318 0.961 . S
H1332 C1318 0.961 . S
H1333 C1319 0.958 . S
H1334 C1319 0.961 . S
H1335 C1319 0.960 . S
C1336 C1337 1.391 . S
C1336 C1338 1.394 . S
C1336 H1352 0.931 . S
C1337 C1336 1.391 . S
C1337 C1341 1.376 . S
C1338 C1336 1.394 . S
C1338 C1339 1.369 . S
C1338 C1342 1.531 . S
C1339 C1338 1.369 . S
C1339 C1340 1.410 . S
C1339 C1347 1.503 . S
C1340 C1339 1.410 . S
C1340 C1341 1.392 . S
C1340 C1343 1.511 1_565 S
C1341 C1337 1.376 . S
C1341 C1340 1.392 . S
C1341 H1353 0.928 1_565 S
C1342 C1338 1.531 . S
C1342 H1354 0.960 . S
C1342 H1355 0.962 . S
C1342 H1356 0.960 . S
C1343 C1340 1.511 1_545 S
C1343 H1357 0.961 . S
C1343 H1358 0.961 . S
C1343 H1359 0.961 1_545 S
C1344 C1345 1.370 1_545 S
C1344 C1346 1.363 . S
C1344 H1360 0.931 . S
C1345 C1344 1.370 1_565 S
C1345 C1349 1.408 . S
C1346 C1344 1.363 . S
C1346 C1347 1.370 1_545 S
C1346 C1350 1.524 . S
C1347 C1339 1.503 . S
C1347 C1346 1.370 1_565 S
C1347 C1348 1.403 . S
C1348 C1347 1.403 . S
C1348 C1349 1.404 . S
C1348 C1351 1.539 . S
C1349 C1345 1.408 . S
C1349 C1348 1.404 . S
C1349 H1361 0.930 . S
C1350 C1346 1.524 . S
C1350 H1362 0.956 . S
C1350 H1363 0.961 . S
C1350 H1364 0.961 . S
C1351 C1348 1.539 . S
C1351 H1365 0.958 . S
C1351 H1366 0.961 . S
C1351 H1367 0.960 . S
H1352 C1336 0.931 . S
H1353 C1341 0.928 1_545 S
H1354 C1342 0.960 . S
H1355 C1342 0.962 . S
H1356 C1342 0.960 . S
H1357 C1343 0.961 . S
H1358 C1343 0.961 . S
H1359 C1343 0.961 1_565 S
H1360 C1344 0.931 . S
H1361 C1349 0.930 . S
H1362 C1350 0.956 . S
H1363 C1350 0.961 . S
H1364 C1350 0.961 . S
H1365 C1351 0.958 . S
H1366 C1351 0.961 . S
H1367 C1351 0.960 . S
C1368 C1369 1.391 . S
C1368 C1370 1.394 . S
C1368 H1384 0.932 1_545 S
C1369 C1368 1.391 . S
C1369 C1373 1.376 . S
C1370 C1368 1.394 . S
C1370 C1371 1.369 . S
C1370 C1374 1.531 1_545 S
C1371 C1370 1.369 . S
C1371 C1372 1.410 . S
C1371 C1379 1.503 . S
C1372 C1371 1.410 . S
C1372 C1373 1.392 . S
C1372 C1375 1.511 . S
C1373 C1369 1.376 . S
C1373 C1372 1.392 . S
C1373 H1385 0.929 . S
C1374 C1370 1.531 1_565 S
C1374 H1386 0.960 . S
C1374 H1387 1.013 . S
C1374 H1388 0.960 . S
C1375 C1372 1.511 . S
C1375 H1389 0.961 . S
C1375 H1390 0.961 . S
C1375 H1391 0.961 . S
C1376 C1377 1.370 . S
C1376 C1378 1.363 . S
C1376 H1392 0.931 . S
C1377 C1376 1.370 . S
C1377 C1381 1.408 1_545 S
C1378 C1376 1.363 . S
C1378 C1379 1.370 . S
C1378 C1382 1.524 . S
C1379 C1371 1.503 . S
C1379 C1378 1.370 . S
C1379 C1380 1.403 1_545 S
C1380 C1379 1.403 1_565 S
C1380 C1381 1.404 . S
C1380 C1383 1.539 . S
C1381 C1377 1.408 1_565 S
C1381 C1380 1.404 . S
C1381 H1393 0.930 . S
C1382 C1378 1.524 . S
C1382 H1394 0.956 . S
C1382 H1395 0.961 . S
C1382 H1396 0.961 . S
C1383 C1380 1.539 . S
C1383 H1397 0.958 . S
C1383 H1398 0.961 . S
C1383 H1399 0.960 . S
H1384 C1368 0.932 1_565 S
H1385 C1373 0.929 . S
H1386 C1374 0.960 . S
H1387 C1374 1.013 . S
H1388 C1374 0.960 . S
H1389 C1375 0.961 . S
H1390 C1375 0.961 . S
H1391 C1375 0.961 . S
H1392 C1376 0.931 . S
H1393 C1381 0.930 . S
H1394 C1382 0.956 . S
H1395 C1382 0.961 . S
H1396 C1382 0.961 . S
H1397 C1383 0.958 . S
H1398 C1383 0.961 . S
H1399 C1383 0.960 . S
C1400 C1401 1.391 . S
C1400 C1402 1.394 . S
C1400 H1416 0.931 . S
C1401 C1400 1.391 . S
C1401 C1405 1.376 . S
C1402 C1400 1.394 . S
C1402 C1403 1.369 . S
C1402 C1406 1.531 . S
C1403 C1402 1.369 . S
C1403 C1404 1.410 . S
C1403 C1411 1.503 . S
C1404 C1403 1.410 . S
C1404 C1405 1.392 . S
C1404 C1407 1.511 . S
C1405 C1401 1.376 . S
C1405 C1404 1.392 . S
C1405 H1417 0.929 . S
C1406 C1402 1.531 . S
C1406 H1418 0.960 . S
C1406 H1419 0.962 1_655 S
C1406 H1420 0.960 . S
C1407 C1404 1.511 . S
C1407 H1421 0.961 . S
C1407 H1422 0.961 . S
C1407 H1423 0.961 . S
C1408 C1409 1.370 1_455 S
C1408 C1410 1.363 . S
C1408 H1424 0.931 . S
C1409 C1408 1.370 1_655 S
C1409 C1413 1.408 . S
C1410 C1408 1.363 . S
C1410 C1411 1.370 1_455 S
C1410 C1414 1.524 . S
C1411 C1403 1.503 . S
C1411 C1410 1.370 1_655 S
C1411 C1412 1.403 . S
C1412 C1411 1.403 . S
C1412 C1413 1.404 . S
C1412 C1415 1.539 . S
C1413 C1409 1.408 . S
C1413 C1412 1.404 . S
C1413 H1425 0.930 . S
C1414 C1410 1.524 . S
C1414 H1426 0.956 . S
C1414 H1427 0.961 . S
C1414 H1428 0.961 . S
C1415 C1412 1.539 . S
C1415 H1429 0.958 . S
C1415 H1430 0.961 . S
C1415 H1431 0.960 . S
H1416 C1400 0.931 . S
H1417 C1405 0.929 . S
H1418 C1406 0.960 . S
H1419 C1406 0.962 1_455 S
H1420 C1406 0.960 . S
H1421 C1407 0.961 . S
H1422 C1407 0.961 . S
H1423 C1407 0.961 . S
H1424 C1408 0.931 . S
H1425 C1413 0.930 . S
H1426 C1414 0.956 . S
H1427 C1414 0.961 . S
H1428 C1414 0.961 . S
H1429 C1415 0.958 . S
H1430 C1415 0.961 . S
H1431 C1415 0.960 . S
C1432 C1433 1.391 . S
C1432 C1434 1.394 . S
C1432 H1448 0.931 . S
C1433 C1432 1.391 . S
C1433 C1437 1.376 . S
C1434 C1432 1.394 . S
C1434 C1435 1.369 . S
C1434 C1438 1.531 . S
C1435 C1434 1.369 . S
C1435 C1436 1.410 . S
C1435 C1443 1.503 . S
C1436 C1435 1.410 . S
C1436 C1437 1.392 . S
C1436 C1439 1.511 . S
C1437 C1433 1.376 . S
C1437 C1436 1.392 . S
C1437 H1449 0.929 . S
C1438 C1434 1.531 . S
C1438 H1450 0.960 . S
C1438 H1451 0.962 . S
C1438 H1452 0.960 . S
C1439 C1436 1.511 . S
C1439 H1453 0.961 . S
C1439 H1454 0.961 . S
C1439 H1455 0.961 . S
C1440 C1441 1.370 . S
C1440 C1442 1.363 . S
C1440 H1456 0.931 . S
C1441 C1440 1.370 . S
C1441 C1445 1.408 . S
C1442 C1440 1.363 . S
C1442 C1443 1.370 . S
C1442 C1446 1.524 . S
C1443 C1435 1.503 . S
C1443 C1442 1.370 . S
C1443 C1444 1.403 . S
C1444 C1443 1.403 . S
C1444 C1445 1.404 . S
C1444 C1447 1.539 . S
C1445 C1441 1.408 . S
C1445 C1444 1.404 . S
C1445 H1457 0.930 . S
C1446 C1442 1.524 . S
C1446 H1458 0.956 . S
C1446 H1459 0.961 . S
C1446 H1460 0.961 . S
C1447 C1444 1.539 . S
C1447 H1461 0.958 . S
C1447 H1462 0.961 . S
C1447 H1463 0.960 . S
H1448 C1432 0.931 . S
H1449 C1437 0.929 . S
H1450 C1438 0.960 . S
H1451 C1438 0.962 . S
H1452 C1438 0.960 . S
H1453 C1439 0.961 . S
H1454 C1439 0.961 . S
H1455 C1439 0.961 . S
H1456 C1440 0.931 . S
H1457 C1445 0.930 . S
H1458 C1446 0.956 . S
H1459 C1446 0.961 . S
H1460 C1446 0.961 . S
H1461 C1447 0.958 . S
H1462 C1447 0.961 . S
H1463 C1447 0.960 . S
C1464 C1465 1.391 . S
C1464 C1466 1.394 . S
C1464 H1480 0.931 . S
C1465 C1464 1.391 . S
C1465 C1469 1.376 . S
C1466 C1464 1.394 . S
C1466 C1467 1.369 . S
C1466 C1470 1.531 . S
C1467 C1466 1.369 . S
C1467 C1468 1.410 . S
C1467 C1475 1.503 . S
C1468 C1467 1.410 . S
C1468 C1469 1.392 . S
C1468 C1471 1.511 . S
C1469 C1465 1.376 . S
C1469 C1468 1.392 . S
C1469 H1481 0.929 . S
C1470 C1466 1.531 . S
C1470 H1482 0.960 . S
C1470 H1483 0.962 . S
C1470 H1484 0.960 . S
C1471 C1468 1.511 . S
C1471 H1485 0.961 . S
C1471 H1486 0.961 . S
C1471 H1487 0.961 . S
C1472 C1473 1.370 . S
C1472 C1474 1.363 . S
C1472 H1488 0.931 . S
C1473 C1472 1.370 . S
C1473 C1477 1.408 . S
C1474 C1472 1.363 . S
C1474 C1475 1.370 . S
C1474 C1478 1.524 . S
C1475 C1467 1.503 . S
C1475 C1474 1.370 . S
C1475 C1476 1.403 . S
C1476 C1475 1.403 . S
C1476 C1477 1.404 . S
C1476 C1479 1.539 . S
C1477 C1473 1.408 . S
C1477 C1476 1.404 . S
C1477 H1489 0.930 . S
C1478 C1474 1.524 . S
C1478 H1490 0.956 . S
C1478 H1491 0.961 . S
C1478 H1492 0.961 . S
C1479 C1476 1.539 . S
C1479 H1493 0.958 . S
C1479 H1494 0.961 . S
C1479 H1495 0.960 . S
H1480 C1464 0.931 . S
H1481 C1469 0.929 . S
H1482 C1470 0.960 . S
H1483 C1470 0.962 . S
H1484 C1470 0.960 . S
H1485 C1471 0.961 . S
H1486 C1471 0.961 . S
H1487 C1471 0.961 . S
H1488 C1472 0.931 . S
H1489 C1477 0.930 . S
H1490 C1478 0.956 . S
H1491 C1478 0.961 . S
H1492 C1478 0.961 . S
H1493 C1479 0.958 . S
H1494 C1479 0.961 . S
H1495 C1479 0.960 . S
C1496 C1497 1.391 . S
C1496 C1498 1.394 . S
C1496 H1512 0.931 . S
C1497 C1496 1.391 . S
C1497 C1501 1.376 . S
C1498 C1496 1.394 . S
C1498 C1499 1.369 . S
C1498 C1502 1.531 . S
C1499 C1498 1.369 . S
C1499 C1500 1.410 . S
C1499 C1507 1.503 . S
C1500 C1499 1.410 . S
C1500 C1501 1.392 . S
C1500 C1503 1.511 . S
C1501 C1497 1.376 . S
C1501 C1500 1.392 . S
C1501 H1513 0.929 . S
C1502 C1498 1.531 . S
C1502 H1514 0.960 . S
C1502 H1515 0.962 . S
C1502 H1516 0.960 . S
C1503 C1500 1.511 . S
C1503 H1517 0.961 . S
C1503 H1518 0.961 . S
C1503 H1519 0.961 . S
C1504 C1505 1.370 . S
C1504 C1506 1.363 . S
C1504 H1520 0.931 . S
C1505 C1504 1.370 . S
C1505 C1509 1.408 . S
C1506 C1504 1.363 . S
C1506 C1507 1.370 . S
C1506 C1510 1.524 . S
C1507 C1499 1.503 . S
C1507 C1506 1.370 . S
C1507 C1508 1.403 . S
C1508 C1507 1.403 . S
C1508 C1509 1.404 . S
C1508 C1511 1.539 . S
C1509 C1505 1.408 . S
C1509 C1508 1.404 . S
C1509 H1521 0.930 . S
C1510 C1506 1.524 . S
C1510 H1522 0.956 . S
C1510 H1523 0.961 . S
C1510 H1524 0.961 . S
C1511 C1508 1.539 . S
C1511 H1525 0.958 . S
C1511 H1526 0.961 . S
C1511 H1527 0.960 . S
H1512 C1496 0.931 . S
H1513 C1501 0.929 . S
H1514 C1502 0.960 . S
H1515 C1502 0.962 . S
H1516 C1502 0.960 . S
H1517 C1503 0.961 . S
H1518 C1503 0.961 . S
H1519 C1503 0.961 . S
H1520 C1504 0.931 . S
H1521 C1509 0.930 . S
H1522 C1510 0.956 . S
H1523 C1510 0.961 . S
H1524 C1510 0.961 . S
H1525 C1511 0.958 . S
H1526 C1511 0.961 . S
H1527 C1511 0.960 . S
C1528 C1529 1.391 . S
C1528 C1530 1.394 . S
C1528 H1544 0.931 . S
C1529 C1528 1.391 . S
C1529 C1533 1.376 . S
C1530 C1528 1.394 . S
C1530 C1531 1.369 . S
C1530 C1534 1.531 . S
C1531 C1530 1.369 . S
C1531 C1532 1.410 . S
C1531 C1539 1.503 . S
C1532 C1531 1.410 . S
C1532 C1533 1.392 . S
C1532 C1535 1.511 . S
C1533 C1529 1.376 . S
C1533 C1532 1.392 . S
C1533 H1545 0.929 . S
C1534 C1530 1.531 . S
C1534 H1546 0.960 . S
C1534 H1547 0.962 . S
C1534 H1548 0.960 . S
C1535 C1532 1.511 . S
C1535 H1549 0.961 . S
C1535 H1550 0.961 . S
C1535 H1551 0.961 . S
C1536 C1537 1.370 . S
C1536 C1538 1.363 . S
C1536 H1552 0.931 . S
C1537 C1536 1.370 . S
C1537 C1541 1.408 . S
C1538 C1536 1.363 . S
C1538 C1539 1.370 . S
C1538 C1542 1.524 . S
C1539 C1531 1.503 . S
C1539 C1538 1.370 . S
C1539 C1540 1.403 . S
C1540 C1539 1.403 . S
C1540 C1541 1.404 . S
C1540 C1543 1.539 . S
C1541 C1537 1.408 . S
C1541 C1540 1.404 . S
C1541 H1553 0.930 . S
C1542 C1538 1.524 . S
C1542 H1554 0.956 . S
C1542 H1555 0.961 . S
C1542 H1556 0.961 . S
C1543 C1540 1.539 . S
C1543 H1557 0.958 . S
C1543 H1558 0.961 . S
C1543 H1559 0.960 . S
H1544 C1528 0.931 . S
H1545 C1533 0.929 . S
H1546 C1534 0.960 . S
H1547 C1534 0.962 . S
H1548 C1534 0.960 . S
H1549 C1535 0.961 . S
H1550 C1535 0.961 . S
H1551 C1535 0.961 . S
H1552 C1536 0.931 . S
H1553 C1541 0.930 . S
H1554 C1542 0.956 . S
H1555 C1542 0.961 . S
H1556 C1542 0.961 . S
H1557 C1543 0.958 . S
H1558 C1543 0.961 . S
H1559 C1543 0.960 . S
C1560 C1561 1.391 . S
C1560 C1562 1.394 . S
C1560 H1576 0.931 . S
C1561 C1560 1.391 . S
C1561 C1565 1.376 . S
C1562 C1560 1.394 . S
C1562 C1563 1.369 . S
C1562 C1566 1.531 . S
C1563 C1562 1.369 . S
C1563 C1564 1.410 . S
C1563 C1571 1.503 . S
C1564 C1563 1.410 . S
C1564 C1565 1.392 . S
C1564 C1567 1.511 . S
C1565 C1561 1.376 . S
C1565 C1564 1.392 . S
C1565 H1577 0.929 . S
C1566 C1562 1.531 . S
C1566 H1578 0.960 . S
C1566 H1579 0.962 . S
C1566 H1580 0.960 . S
C1567 C1564 1.511 . S
C1567 H1581 0.961 . S
C1567 H1582 0.961 . S
C1567 H1583 0.961 . S
C1568 C1569 1.370 . S
C1568 C1570 1.363 . S
C1568 H1584 0.931 . S
C1569 C1568 1.370 . S
C1569 C1573 1.408 . S
C1570 C1568 1.363 . S
C1570 C1571 1.370 . S
C1570 C1574 1.524 . S
C1571 C1563 1.503 . S
C1571 C1570 1.370 . S
C1571 C1572 1.403 . S
C1572 C1571 1.403 . S
C1572 C1573 1.404 . S
C1572 C1575 1.539 . S
C1573 C1569 1.408 . S
C1573 C1572 1.404 . S
C1573 H1585 0.930 . S
C1574 C1570 1.524 . S
C1574 H1586 0.956 . S
C1574 H1587 0.961 . S
C1574 H1588 0.961 . S
C1575 C1572 1.539 . S
C1575 H1589 0.958 . S
C1575 H1590 0.961 . S
C1575 H1591 0.960 . S
H1576 C1560 0.931 . S
H1577 C1565 0.929 . S
H1578 C1566 0.960 . S
H1579 C1566 0.962 . S
H1580 C1566 0.960 . S
H1581 C1567 0.961 . S
H1582 C1567 0.961 . S
H1583 C1567 0.961 . S
H1584 C1568 0.931 . S
H1585 C1573 0.930 . S
H1586 C1574 0.956 . S
H1587 C1574 0.961 . S
H1588 C1574 0.961 . S
H1589 C1575 0.958 . S
H1590 C1575 0.961 . S
H1591 C1575 0.960 . S
C1592 C1593 1.391 . S
C1592 C1594 1.394 . S
C1592 H1608 0.931 . S
C1593 C1592 1.391 . S
C1593 C1597 1.376 . S
C1594 C1592 1.394 . S
C1594 C1595 1.369 . S
C1594 C1598 1.531 . S
C1595 C1594 1.369 . S
C1595 C1596 1.410 . S
C1595 C1603 1.503 . S
C1596 C1595 1.410 . S
C1596 C1597 1.392 . S
C1596 C1599 1.511 . S
C1597 C1593 1.376 . S
C1597 C1596 1.392 . S
C1597 H1609 0.929 . S
C1598 C1594 1.531 . S
C1598 H1610 0.960 . S
C1598 H1611 0.962 . S
C1598 H1612 0.960 . S
C1599 C1596 1.511 . S
C1599 H1613 0.961 . S
C1599 H1614 0.961 . S
C1599 H1615 0.961 . S
C1600 C1601 1.370 . S
C1600 C1602 1.363 . S
C1600 H1616 0.931 . S
C1601 C1600 1.370 . S
C1601 C1605 1.408 . S
C1602 C1600 1.363 . S
C1602 C1603 1.370 . S
C1602 C1606 1.524 . S
C1603 C1595 1.503 . S
C1603 C1602 1.370 . S
C1603 C1604 1.403 . S
C1604 C1603 1.403 . S
C1604 C1605 1.404 . S
C1604 C1607 1.539 . S
C1605 C1601 1.408 . S
C1605 C1604 1.404 . S
C1605 H1617 0.930 . S
C1606 C1602 1.524 . S
C1606 H1618 0.956 . S
C1606 H1619 0.961 . S
C1606 H1620 0.961 . S
C1607 C1604 1.539 . S
C1607 H1621 0.958 . S
C1607 H1622 0.961 . S
C1607 H1623 0.960 . S
H1608 C1592 0.931 . S
H1609 C1597 0.929 . S
H1610 C1598 0.960 . S
H1611 C1598 0.962 . S
H1612 C1598 0.960 . S
H1613 C1599 0.961 . S
H1614 C1599 0.961 . S
H1615 C1599 0.961 . S
H1616 C1600 0.931 . S
H1617 C1605 0.930 . S
H1618 C1606 0.956 . S
H1619 C1606 0.961 . S
H1620 C1606 0.961 . S
H1621 C1607 0.958 . S
H1622 C1607 0.961 . S
H1623 C1607 0.960 . S
C1624 C1625 1.391 . S
C1624 C1626 1.394 . S
C1624 H1640 0.931 . S
C1625 C1624 1.391 . S
C1625 C1629 1.376 . S
C1626 C1624 1.394 . S
C1626 C1627 1.369 . S
C1626 C1630 1.531 . S
C1627 C1626 1.369 . S
C1627 C1628 1.410 . S
C1627 C1635 1.503 . S
C1628 C1627 1.410 . S
C1628 C1629 1.392 . S
C1628 C1631 1.511 . S
C1629 C1625 1.376 . S
C1629 C1628 1.392 . S
C1629 H1641 0.929 . S
C1630 C1626 1.531 . S
C1630 H1642 0.960 . S
C1630 H1643 0.962 . S
C1630 H1644 0.960 . S
C1631 C1628 1.511 . S
C1631 H1645 0.961 . S
C1631 H1646 0.961 . S
C1631 H1647 0.961 . S
C1632 C1633 1.370 . S
C1632 C1634 1.363 . S
C1632 H1648 0.931 . S
C1633 C1632 1.370 . S
C1633 C1637 1.408 . S
C1634 C1632 1.363 . S
C1634 C1635 1.370 . S
C1634 C1638 1.524 . S
C1635 C1627 1.503 . S
C1635 C1634 1.370 . S
C1635 C1636 1.403 . S
C1636 C1635 1.403 . S
C1636 C1637 1.404 . S
C1636 C1639 1.539 . S
C1637 C1633 1.408 . S
C1637 C1636 1.404 . S
C1637 H1649 0.930 . S
C1638 C1634 1.524 . S
C1638 H1650 0.956 . S
C1638 H1651 0.961 . S
C1638 H1652 0.961 . S
C1639 C1636 1.539 . S
C1639 H1653 0.958 . S
C1639 H1654 0.961 . S
C1639 H1655 0.960 . S
H1640 C1624 0.931 . S
H1641 C1629 0.929 . S
H1642 C1630 0.960 . S
H1643 C1630 0.962 . S
H1644 C1630 0.960 . S
H1645 C1631 0.961 . S
H1646 C1631 0.961 . S
H1647 C1631 0.961 . S
H1648 C1632 0.931 . S
H1649 C1637 0.930 . S
H1650 C1638 0.956 . S
H1651 C1638 0.961 . S
H1652 C1638 0.961 . S
H1653 C1639 0.958 . S
H1654 C1639 0.961 . S
H1655 C1639 0.960 . S
C1656 C1657 1.391 . S
C1656 C1658 1.394 . S
C1656 H1672 0.931 . S
C1657 C1656 1.391 . S
C1657 C1661 1.376 . S
C1658 C1656 1.394 . S
C1658 C1659 1.369 . S
C1658 C1662 1.531 . S
C1659 C1658 1.369 . S
C1659 C1660 1.410 . S
C1659 C1667 1.503 . S
C1660 C1659 1.410 . S
C1660 C1661 1.392 . S
C1660 C1663 1.511 . S
C1661 C1657 1.376 . S
C1661 C1660 1.392 . S
C1661 H1673 0.929 . S
C1662 C1658 1.531 . S
C1662 H1674 0.960 . S
C1662 H1675 0.962 . S
C1662 H1676 0.960 . S
C1663 C1660 1.511 . S
C1663 H1677 0.961 . S
C1663 H1678 0.961 . S
C1663 H1679 0.961 . S
C1664 C1665 1.370 . S
C1664 C1666 1.363 . S
C1664 H1680 0.931 . S
C1665 C1664 1.370 . S
C1665 C1669 1.408 . S
C1666 C1664 1.363 . S
C1666 C1667 1.370 . S
C1666 C1670 1.524 . S
C1667 C1659 1.503 . S
C1667 C1666 1.370 . S
C1667 C1668 1.403 . S
C1668 C1667 1.403 . S
C1668 C1669 1.404 . S
C1668 C1671 1.539 . S
C1669 C1665 1.408 . S
C1669 C1668 1.404 . S
C1669 H1681 0.930 . S
C1670 C1666 1.524 . S
C1670 H1682 0.956 . S
C1670 H1683 0.961 . S
C1670 H1684 0.961 . S
C1671 C1668 1.539 . S
C1671 H1685 0.958 . S
C1671 H1686 0.961 . S
C1671 H1687 0.960 . S
H1672 C1656 0.931 . S
H1673 C1661 0.929 . S
H1674 C1662 0.960 . S
H1675 C1662 0.962 . S
H1676 C1662 0.960 . S
H1677 C1663 0.961 . S
H1678 C1663 0.961 . S
H1679 C1663 0.961 . S
H1680 C1664 0.931 . S
H1681 C1669 0.930 . S
H1682 C1670 0.956 . S
H1683 C1670 0.961 . S
H1684 C1670 0.961 . S
H1685 C1671 0.958 . S
H1686 C1671 0.961 . S
H1687 C1671 0.960 . S
C1688 C1689 1.391 . S
C1688 C1690 1.394 . S
C1688 H1704 0.931 . S
C1689 C1688 1.391 . S
C1689 C1693 1.376 . S
C1690 C1688 1.394 . S
C1690 C1691 1.369 . S
C1690 C1694 1.531 . S
C1691 C1690 1.369 . S
C1691 C1692 1.410 . S
C1691 C1699 1.503 . S
C1692 C1691 1.410 . S
C1692 C1693 1.392 . S
C1692 C1695 1.511 . S
C1693 C1689 1.376 . S
C1693 C1692 1.392 . S
C1693 H1705 0.929 . S
C1694 C1690 1.531 . S
C1694 H1706 0.960 . S
C1694 H1707 0.962 . S
C1694 H1708 0.960 . S
C1695 C1692 1.511 . S
C1695 H1709 0.961 . S
C1695 H1710 0.961 . S
C1695 H1711 0.961 . S
C1696 C1697 1.370 . S
C1696 C1698 1.363 . S
C1696 H1712 0.931 . S
C1697 C1696 1.370 . S
C1697 C1701 1.408 . S
C1698 C1696 1.363 . S
C1698 C1699 1.370 . S
C1698 C1702 1.524 . S
C1699 C1691 1.503 . S
C1699 C1698 1.370 . S
C1699 C1700 1.403 . S
C1700 C1699 1.403 . S
C1700 C1701 1.404 . S
C1700 C1703 1.539 . S
C1701 C1697 1.408 . S
C1701 C1700 1.404 . S
C1701 H1713 0.930 . S
C1702 C1698 1.524 . S
C1702 H1714 0.956 . S
C1702 H1715 0.961 . S
C1702 H1716 0.961 . S
C1703 C1700 1.539 . S
C1703 H1717 0.958 . S
C1703 H1718 0.961 . S
C1703 H1719 0.960 . S
H1704 C1688 0.931 . S
H1705 C1693 0.929 . S
H1706 C1694 0.960 . S
H1707 C1694 0.962 . S
H1708 C1694 0.960 . S
H1709 C1695 0.961 . S
H1710 C1695 0.961 . S
H1711 C1695 0.961 . S
H1712 C1696 0.931 . S
H1713 C1701 0.930 . S
H1714 C1702 0.956 . S
H1715 C1702 0.961 . S
H1716 C1702 0.961 . S
H1717 C1703 0.958 . S
H1718 C1703 0.961 . S
H1719 C1703 0.960 . S
C1720 C1721 1.391 . S
C1720 C1722 1.394 . S
C1720 H1736 0.931 . S
C1721 C1720 1.391 . S
C1721 C1725 1.376 . S
C1722 C1720 1.394 . S
C1722 C1723 1.369 . S
C1722 C1726 1.531 . S
C1723 C1722 1.369 . S
C1723 C1724 1.410 . S
C1723 C1731 1.503 . S
C1724 C1723 1.410 . S
C1724 C1725 1.392 . S
C1724 C1727 1.511 . S
C1725 C1721 1.376 . S
C1725 C1724 1.392 . S
C1725 H1737 0.929 . S
C1726 C1722 1.531 . S
C1726 H1738 0.960 . S
C1726 H1739 0.962 . S
C1726 H1740 0.960 . S
C1727 C1724 1.511 . S
C1727 H1741 0.961 . S
C1727 H1742 0.961 . S
C1727 H1743 0.961 . S
C1728 C1729 1.370 . S
C1728 C1730 1.363 . S
C1728 H1744 0.931 . S
C1729 C1728 1.370 . S
C1729 C1733 1.408 . S
C1730 C1728 1.363 . S
C1730 C1731 1.370 . S
C1730 C1734 1.524 . S
C1731 C1723 1.503 . S
C1731 C1730 1.370 . S
C1731 C1732 1.403 . S
C1732 C1731 1.403 . S
C1732 C1733 1.404 . S
C1732 C1735 1.539 . S
C1733 C1729 1.408 . S
C1733 C1732 1.404 . S
C1733 H1745 0.930 . S
C1734 C1730 1.524 . S
C1734 H1746 0.956 . S
C1734 H1747 0.961 . S
C1734 H1748 0.961 . S
C1735 C1732 1.539 . S
C1735 H1749 0.958 . S
C1735 H1750 0.961 . S
C1735 H1751 0.960 . S
H1736 C1720 0.931 . S
H1737 C1725 0.929 . S
H1738 C1726 0.960 . S
H1739 C1726 0.962 . S
H1740 C1726 0.960 . S
H1741 C1727 0.961 . S
H1742 C1727 0.961 . S
H1743 C1727 0.961 . S
H1744 C1728 0.931 . S
H1745 C1733 0.930 . S
H1746 C1734 0.956 . S
H1747 C1734 0.961 . S
H1748 C1734 0.961 . S
H1749 C1735 0.958 . S
H1750 C1735 0.961 . S
H1751 C1735 0.960 . S
C1752 C1753 1.391 . S
C1752 C1754 1.394 . S
C1752 H1768 0.931 . S
C1753 C1752 1.391 . S
C1753 C1757 1.376 . S
C1754 C1752 1.394 . S
C1754 C1755 1.369 . S
C1754 C1758 1.531 . S
C1755 C1754 1.369 . S
C1755 C1756 1.410 . S
C1755 C1763 1.503 . S
C1756 C1755 1.410 . S
C1756 C1757 1.392 . S
C1756 C1759 1.511 . S
C1757 C1753 1.376 . S
C1757 C1756 1.392 . S
C1757 H1769 0.929 . S
C1758 C1754 1.531 . S
C1758 H1770 0.960 . S
C1758 H1771 0.962 . S
C1758 H1772 0.960 . S
C1759 C1756 1.511 . S
C1759 H1773 0.961 . S
C1759 H1774 0.961 . S
C1759 H1775 0.961 . S
C1760 C1761 1.370 . S
C1760 C1762 1.363 . S
C1760 H1776 0.931 . S
C1761 C1760 1.370 . S
C1761 C1765 1.408 . S
C1762 C1760 1.363 . S
C1762 C1763 1.370 . S
C1762 C1766 1.524 . S
C1763 C1755 1.503 . S
C1763 C1762 1.370 . S
C1763 C1764 1.403 . S
C1764 C1763 1.403 . S
C1764 C1765 1.404 . S
C1764 C1767 1.539 . S
C1765 C1761 1.408 . S
C1765 C1764 1.404 . S
C1765 H1777 0.930 . S
C1766 C1762 1.524 . S
C1766 H1778 0.956 . S
C1766 H1779 0.961 . S
C1766 H1780 0.961 . S
C1767 C1764 1.539 . S
C1767 H1781 0.958 . S
C1767 H1782 0.961 . S
C1767 H1783 0.960 . S
H1768 C1752 0.931 . S
H1769 C1757 0.929 . S
H1770 C1758 0.960 . S
H1771 C1758 0.962 . S
H1772 C1758 0.960 . S
H1773 C1759 0.961 . S
H1774 C1759 0.961 . S
H1775 C1759 0.961 . S
H1776 C1760 0.931 . S
H1777 C1765 0.930 . S
H1778 C1766 0.956 . S
H1779 C1766 0.961 . S
H1780 C1766 0.961 . S
H1781 C1767 0.958 . S
H1782 C1767 0.961 . S
H1783 C1767 0.960 . S
C1784 C1785 1.391 . S
C1784 C1786 1.394 . S
C1784 H1800 0.931 . S
C1785 C1784 1.391 . S
C1785 C1789 1.376 . S
C1786 C1784 1.394 . S
C1786 C1787 1.369 . S
C1786 C1790 1.531 . S
C1787 C1786 1.369 . S
C1787 C1788 1.410 . S
C1787 C1795 1.503 . S
C1788 C1787 1.410 . S
C1788 C1789 1.392 . S
C1788 C1791 1.511 . S
C1789 C1785 1.376 . S
C1789 C1788 1.392 . S
C1789 H1801 0.929 . S
C1790 C1786 1.531 . S
C1790 H1802 0.960 . S
C1790 H1803 0.962 . S
C1790 H1804 0.960 . S
C1791 C1788 1.511 . S
C1791 H1805 0.961 . S
C1791 H1806 0.961 . S
C1791 H1807 0.961 . S
C1792 C1793 1.370 . S
C1792 C1794 1.363 . S
C1792 H1808 0.931 . S
C1793 C1792 1.370 . S
C1793 C1797 1.408 . S
C1794 C1792 1.363 . S
C1794 C1795 1.370 . S
C1794 C1798 1.524 . S
C1795 C1787 1.503 . S
C1795 C1794 1.370 . S
C1795 C1796 1.403 . S
C1796 C1795 1.403 . S
C1796 C1797 1.404 . S
C1796 C1799 1.539 . S
C1797 C1793 1.408 . S
C1797 C1796 1.404 . S
C1797 H1809 0.930 . S
C1798 C1794 1.524 . S
C1798 H1810 0.956 . S
C1798 H1811 0.961 . S
C1798 H1812 0.961 . S
C1799 C1796 1.539 . S
C1799 H1813 0.958 . S
C1799 H1814 0.961 . S
C1799 H1815 0.960 . S
H1800 C1784 0.931 . S
H1801 C1789 0.929 . S
H1802 C1790 0.960 . S
H1803 C1790 0.962 . S
H1804 C1790 0.960 . S
H1805 C1791 0.961 . S
H1806 C1791 0.961 . S
H1807 C1791 0.961 . S
H1808 C1792 0.931 . S
H1809 C1797 0.930 . S
H1810 C1798 0.956 . S
H1811 C1798 0.961 . S
H1812 C1798 0.961 . S
H1813 C1799 0.958 . S
H1814 C1799 0.961 . S
H1815 C1799 0.960 . S
C1816 C1817 1.391 . S
C1816 C1818 1.394 . S
C1816 H1832 0.931 . S
C1817 C1816 1.391 . S
C1817 C1821 1.376 . S
C1818 C1816 1.394 . S
C1818 C1819 1.369 . S
C1818 C1822 1.531 . S
C1819 C1818 1.369 . S
C1819 C1820 1.410 . S
C1819 C1827 1.503 . S
C1820 C1819 1.410 . S
C1820 C1821 1.392 . S
C1820 C1823 1.511 . S
C1821 C1817 1.376 . S
C1821 C1820 1.392 . S
C1821 H1833 0.929 . S
C1822 C1818 1.531 . S
C1822 H1834 0.960 . S
C1822 H1835 0.962 . S
C1822 H1836 0.960 . S
C1823 C1820 1.511 . S
C1823 H1837 0.961 . S
C1823 H1838 0.961 . S
C1823 H1839 0.961 . S
C1824 C1825 1.370 . S
C1824 C1826 1.363 . S
C1824 H1840 0.931 . S
C1825 C1824 1.370 . S
C1825 C1829 1.408 . S
C1826 C1824 1.363 . S
C1826 C1827 1.370 . S
C1826 C1830 1.524 . S
C1827 C1819 1.503 . S
C1827 C1826 1.370 . S
C1827 C1828 1.403 . S
C1828 C1827 1.403 . S
C1828 C1829 1.404 . S
C1828 C1831 1.539 . S
C1829 C1825 1.408 . S
C1829 C1828 1.404 . S
C1829 H1841 0.930 . S
C1830 C1826 1.524 . S
C1830 H1842 0.956 . S
C1830 H1843 0.961 . S
C1830 H1844 0.961 . S
C1831 C1828 1.539 . S
C1831 H1845 0.958 . S
C1831 H1846 0.961 . S
C1831 H1847 0.960 . S
H1832 C1816 0.931 . S
H1833 C1821 0.929 . S
H1834 C1822 0.960 . S
H1835 C1822 0.962 . S
H1836 C1822 0.960 . S
H1837 C1823 0.961 . S
H1838 C1823 0.961 . S
H1839 C1823 0.961 . S
H1840 C1824 0.931 . S
H1841 C1829 0.930 . S
H1842 C1830 0.956 . S
H1843 C1830 0.961 . S
H1844 C1830 0.961 . S
H1845 C1831 0.958 . S
H1846 C1831 0.961 . S
H1847 C1831 0.960 . S
C1848 C1849 1.391 . S
C1848 C1850 1.394 . S
C1848 H1864 0.931 . S
C1849 C1848 1.391 . S
C1849 C1853 1.376 . S
C1850 C1848 1.394 . S
C1850 C1851 1.369 . S
C1850 C1854 1.531 . S
C1851 C1850 1.369 . S
C1851 C1852 1.410 . S
C1851 C1859 1.503 . S
C1852 C1851 1.410 . S
C1852 C1853 1.392 . S
C1852 C1855 1.511 . S
C1853 C1849 1.376 . S
C1853 C1852 1.392 . S
C1853 H1865 0.929 . S
C1854 C1850 1.531 . S
C1854 H1866 0.960 . S
C1854 H1867 0.962 . S
C1854 H1868 0.960 . S
C1855 C1852 1.511 . S
C1855 H1869 0.961 . S
C1855 H1870 0.961 . S
C1855 H1871 0.961 . S
C1856 C1857 1.370 . S
C1856 C1858 1.363 . S
C1856 H1872 0.931 . S
C1857 C1856 1.370 . S
C1857 C1861 1.408 . S
C1858 C1856 1.363 . S
C1858 C1859 1.370 . S
C1858 C1862 1.524 . S
C1859 C1851 1.503 . S
C1859 C1858 1.370 . S
C1859 C1860 1.403 . S
C1860 C1859 1.403 . S
C1860 C1861 1.404 . S
C1860 C1863 1.539 . S
C1861 C1857 1.408 . S
C1861 C1860 1.404 . S
C1861 H1873 0.930 . S
C1862 C1858 1.524 . S
C1862 H1874 0.956 . S
C1862 H1875 0.961 . S
C1862 H1876 0.961 . S
C1863 C1860 1.539 . S
C1863 H1877 0.958 . S
C1863 H1878 0.961 . S
C1863 H1879 0.960 . S
H1864 C1848 0.931 . S
H1865 C1853 0.929 . S
H1866 C1854 0.960 . S
H1867 C1854 0.962 . S
H1868 C1854 0.960 . S
H1869 C1855 0.961 . S
H1870 C1855 0.961 . S
H1871 C1855 0.961 . S
H1872 C1856 0.931 . S
H1873 C1861 0.930 . S
H1874 C1862 0.956 . S
H1875 C1862 0.961 . S
H1876 C1862 0.961 . S
H1877 C1863 0.958 . S
H1878 C1863 0.961 . S
H1879 C1863 0.960 . S
C1880 C1881 1.391 . S
C1880 C1882 1.394 . S
C1880 H1896 0.931 . S
C1881 C1880 1.391 . S
C1881 C1885 1.376 . S
C1882 C1880 1.394 . S
C1882 C1883 1.369 . S
C1882 C1886 1.531 . S
C1883 C1882 1.369 . S
C1883 C1884 1.410 . S
C1883 C1891 1.503 . S
C1884 C1883 1.410 . S
C1884 C1885 1.392 . S
C1884 C1887 1.511 . S
C1885 C1881 1.376 . S
C1885 C1884 1.392 . S
C1885 H1897 0.929 . S
C1886 C1882 1.531 . S
C1886 H1898 0.960 . S
C1886 H1899 0.962 . S
C1886 H1900 0.960 . S
C1887 C1884 1.511 . S
C1887 H1901 0.961 . S
C1887 H1902 0.961 . S
C1887 H1903 0.961 . S
C1888 C1889 1.370 . S
C1888 C1890 1.363 . S
C1888 H1904 0.931 . S
C1889 C1888 1.370 . S
C1889 C1893 1.408 . S
C1890 C1888 1.363 . S
C1890 C1891 1.370 . S
C1890 C1894 1.524 . S
C1891 C1883 1.503 . S
C1891 C1890 1.370 . S
C1891 C1892 1.403 . S
C1892 C1891 1.403 . S
C1892 C1893 1.404 . S
C1892 C1895 1.539 . S
C1893 C1889 1.408 . S
C1893 C1892 1.404 . S
C1893 H1905 0.930 . S
C1894 C1890 1.524 . S
C1894 H1906 0.956 . S
C1894 H1907 0.961 . S
C1894 H1908 0.961 . S
C1895 C1892 1.539 . S
C1895 H1909 0.958 . S
C1895 H1910 0.961 . S
C1895 H1911 0.960 . S
H1896 C1880 0.931 . S
H1897 C1885 0.929 . S
H1898 C1886 0.960 . S
H1899 C1886 0.962 . S
H1900 C1886 0.960 . S
H1901 C1887 0.961 . S
H1902 C1887 0.961 . S
H1903 C1887 0.961 . S
H1904 C1888 0.931 . S
H1905 C1893 0.930 . S
H1906 C1894 0.956 . S
H1907 C1894 0.961 . S
H1908 C1894 0.961 . S
H1909 C1895 0.958 . S
H1910 C1895 0.961 . S
H1911 C1895 0.960 . S
C1912 C1913 1.391 . S
C1912 C1914 1.394 . S
C1912 H1928 0.931 . S
C1913 C1912 1.391 . S
C1913 C1917 1.376 . S
C1914 C1912 1.394 . S
C1914 C1915 1.369 . S
C1914 C1918 1.531 . S
C1915 C1914 1.369 . S
C1915 C1916 1.410 . S
C1915 C1923 1.503 . S
C1916 C1915 1.410 . S
C1916 C1917 1.392 . S
C1916 C1919 1.511 . S
C1917 C1913 1.376 . S
C1917 C1916 1.392 . S
C1917 H1929 0.929 . S
C1918 C1914 1.531 . S
C1918 H1930 0.960 . S
C1918 H1931 0.962 . S
C1918 H1932 0.960 . S
C1919 C1916 1.511 . S
C1919 H1933 0.961 . S
C1919 H1934 0.961 . S
C1919 H1935 0.961 . S
C1920 C1921 1.370 . S
C1920 C1922 1.363 . S
C1920 H1936 0.931 . S
C1921 C1920 1.370 . S
C1921 C1925 1.408 . S
C1922 C1920 1.363 . S
C1922 C1923 1.370 . S
C1922 C1926 1.524 . S
C1923 C1915 1.503 . S
C1923 C1922 1.370 . S
C1923 C1924 1.403 . S
C1924 C1923 1.403 . S
C1924 C1925 1.404 . S
C1924 C1927 1.539 . S
C1925 C1921 1.408 . S
C1925 C1924 1.404 . S
C1925 H1937 0.930 . S
C1926 C1922 1.524 . S
C1926 H1938 0.956 . S
C1926 H1939 0.961 . S
C1926 H1940 0.961 . S
C1927 C1924 1.539 . S
C1927 H1941 0.958 . S
C1927 H1942 0.961 . S
C1927 H1943 0.960 . S
H1928 C1912 0.931 . S
H1929 C1917 0.929 . S
H1930 C1918 0.960 . S
H1931 C1918 0.962 . S
H1932 C1918 0.960 . S
H1933 C1919 0.961 . S
H1934 C1919 0.961 . S
H1935 C1919 0.961 . S
H1936 C1920 0.931 . S
H1937 C1925 0.930 . S
H1938 C1926 0.956 . S
H1939 C1926 0.961 . S
H1940 C1926 0.961 . S
H1941 C1927 0.958 . S
H1942 C1927 0.961 . S
H1943 C1927 0.960 . S
C1944 C1945 1.391 . S
C1944 C1946 1.394 . S
C1944 H1960 0.931 . S
C1945 C1944 1.391 . S
C1945 C1949 1.376 . S
C1946 C1944 1.394 . S
C1946 C1947 1.369 . S
C1946 C1950 1.531 . S
C1947 C1946 1.369 . S
C1947 C1948 1.410 . S
C1947 C1955 1.503 . S
C1948 C1947 1.410 . S
C1948 C1949 1.392 . S
C1948 C1951 1.511 . S
C1949 C1945 1.376 . S
C1949 C1948 1.392 . S
C1949 H1961 0.929 . S
C1950 C1946 1.531 . S
C1950 H1962 0.960 . S
C1950 H1963 0.962 . S
C1950 H1964 0.960 . S
C1951 C1948 1.511 . S
C1951 H1965 0.961 . S
C1951 H1966 0.961 . S
C1951 H1967 0.961 . S
C1952 C1953 1.370 . S
C1952 C1954 1.363 . S
C1952 H1968 0.931 . S
C1953 C1952 1.370 . S
C1953 C1957 1.408 . S
C1954 C1952 1.363 . S
C1954 C1955 1.370 . S
C1954 C1958 1.524 . S
C1955 C1947 1.503 . S
C1955 C1954 1.370 . S
C1955 C1956 1.403 . S
C1956 C1955 1.403 . S
C1956 C1957 1.404 . S
C1956 C1959 1.539 . S
C1957 C1953 1.408 . S
C1957 C1956 1.404 . S
C1957 H1969 0.930 . S
C1958 C1954 1.524 . S
C1958 H1970 0.956 . S
C1958 H1971 0.961 . S
C1958 H1972 0.961 . S
C1959 C1956 1.539 . S
C1959 H1973 0.958 . S
C1959 H1974 0.961 . S
C1959 H1975 0.960 . S
H1960 C1944 0.931 . S
H1961 C1949 0.929 . S
H1962 C1950 0.960 . S
H1963 C1950 0.962 . S
H1964 C1950 0.960 . S
H1965 C1951 0.961 . S
H1966 C1951 0.961 . S
H1967 C1951 0.961 . S
H1968 C1952 0.931 . S
H1969 C1957 0.930 . S
H1970 C1958 0.956 . S
H1971 C1958 0.961 . S
H1972 C1958 0.961 . S
H1973 C1959 0.958 . S
H1974 C1959 0.961 . S
H1975 C1959 0.960 . S
C1976 C1977 1.391 . S
C1976 C1978 1.394 . S
C1976 H1992 0.931 . S
C1977 C1976 1.391 . S
C1977 C1981 1.376 . S
C1978 C1976 1.394 . S
C1978 C1979 1.369 . S
C1978 C1982 1.531 . S
C1979 C1978 1.369 . S
C1979 C1980 1.410 . S
C1979 C1987 1.503 . S
C1980 C1979 1.410 . S
C1980 C1981 1.392 . S
C1980 C1983 1.511 . S
C1981 C1977 1.376 . S
C1981 C1980 1.392 . S
C1981 H1993 0.929 . S
C1982 C1978 1.531 . S
C1982 H1994 0.960 . S
C1982 H1995 0.962 . S
C1982 H1996 0.960 . S
C1983 C1980 1.511 . S
C1983 H1997 0.961 . S
C1983 H1998 0.961 . S
C1983 H1999 0.961 . S
C1984 C1985 1.370 . S
C1984 C1986 1.363 . S
C1984 H2000 0.931 . S
C1985 C1984 1.370 . S
C1985 C1989 1.408 . S
C1986 C1984 1.363 . S
C1986 C1987 1.370 . S
C1986 C1990 1.524 . S
C1987 C1979 1.503 . S
C1987 C1986 1.370 . S
C1987 C1988 1.403 . S
C1988 C1987 1.403 . S
C1988 C1989 1.404 . S
C1988 C1991 1.539 . S
C1989 C1985 1.408 . S
C1989 C1988 1.404 . S
C1989 H2001 0.930 . S
C1990 C1986 1.524 . S
C1990 H2002 0.956 . S
C1990 H2003 0.961 . S
C1990 H2004 0.961 . S
C1991 C1988 1.539 . S
C1991 H2005 0.958 . S
C1991 H2006 0.961 . S
C1991 H2007 0.960 . S
H1992 C1976 0.931 . S
H1993 C1981 0.929 . S
H1994 C1982 0.960 . S
H1995 C1982 0.962 . S
H1996 C1982 0.960 . S
H1997 C1983 0.961 . S
H1998 C1983 0.961 . S
H1999 C1983 0.961 . S
H2000 C1984 0.931 . S
H2001 C1989 0.930 . S
H2002 C1990 0.956 . S
H2003 C1990 0.961 . S
H2004 C1990 0.961 . S
H2005 C1991 0.958 . S
H2006 C1991 0.961 . S
H2007 C1991 0.960 . S
C2008 C2009 1.391 . S
C2008 C2010 1.394 . S
C2008 H2024 0.931 . S
C2009 C2008 1.391 . S
C2009 C2013 1.376 . S
C2010 C2008 1.394 . S
C2010 C2011 1.369 . S
C2010 C2014 1.531 . S
C2011 C2010 1.369 . S
C2011 C2012 1.410 . S
C2011 C2019 1.503 . S
C2012 C2011 1.410 . S
C2012 C2013 1.392 . S
C2012 C2015 1.511 . S
C2013 C2009 1.376 . S
C2013 C2012 1.392 . S
C2013 H2025 0.929 . S
C2014 C2010 1.531 . S
C2014 H2026 0.960 . S
C2014 H2027 0.962 . S
C2014 H2028 0.960 . S
C2015 C2012 1.511 . S
C2015 H2029 0.961 . S
C2015 H2030 0.961 . S
C2015 H2031 0.961 . S
C2016 C2017 1.370 . S
C2016 C2018 1.363 . S
C2016 H2032 0.931 . S
C2017 C2016 1.370 . S
C2017 C2021 1.408 . S
C2018 C2016 1.363 . S
C2018 C2019 1.370 . S
C2018 C2022 1.524 . S
C2019 C2011 1.503 . S
C2019 C2018 1.370 . S
C2019 C2020 1.403 . S
C2020 C2019 1.403 . S
C2020 C2021 1.404 . S
C2020 C2023 1.539 . S
C2021 C2017 1.408 . S
C2021 C2020 1.404 . S
C2021 H2033 0.930 . S
C2022 C2018 1.524 . S
C2022 H2034 0.956 . S
C2022 H2035 0.961 . S
C2022 H2036 0.961 . S
C2023 C2020 1.539 . S
C2023 H2037 0.958 . S
C2023 H2038 0.961 . S
C2023 H2039 0.960 . S
H2024 C2008 0.931 . S
H2025 C2013 0.929 . S
H2026 C2014 0.960 . S
H2027 C2014 0.962 . S
H2028 C2014 0.960 . S
H2029 C2015 0.961 . S
H2030 C2015 0.961 . S
H2031 C2015 0.961 . S
H2032 C2016 0.931 . S
H2033 C2021 0.930 . S
H2034 C2022 0.956 . S
H2035 C2022 0.961 . S
H2036 C2022 0.961 . S
H2037 C2023 0.958 . S
H2038 C2023 0.961 . S
H2039 C2023 0.960 . S
C2040 C2041 1.391 . S
C2040 C2042 1.394 . S
C2040 H2056 0.931 . S
C2041 C2040 1.391 . S
C2041 C2045 1.376 . S
C2042 C2040 1.394 . S
C2042 C2043 1.369 . S
C2042 C2046 1.531 . S
C2043 C2042 1.369 . S
C2043 C2044 1.410 . S
C2043 C2051 1.503 . S
C2044 C2043 1.410 . S
C2044 C2045 1.392 . S
C2044 C2047 1.511 . S
C2045 C2041 1.376 . S
C2045 C2044 1.392 . S
C2045 H2057 0.929 . S
C2046 C2042 1.531 . S
C2046 H2058 0.960 . S
C2046 H2059 0.962 . S
C2046 H2060 0.960 . S
C2047 C2044 1.511 . S
C2047 H2061 0.961 . S
C2047 H2062 0.961 . S
C2047 H2063 0.961 . S
C2048 C2049 1.370 . S
C2048 C2050 1.363 . S
C2048 H2064 0.931 . S
C2049 C2048 1.370 . S
C2049 C2053 1.408 . S
C2050 C2048 1.363 . S
C2050 C2051 1.370 . S
C2050 C2054 1.524 . S
C2051 C2043 1.503 . S
C2051 C2050 1.370 . S
C2051 C2052 1.403 . S
C2052 C2051 1.403 . S
C2052 C2053 1.404 . S
C2052 C2055 1.539 . S
C2053 C2049 1.408 . S
C2053 C2052 1.404 . S
C2053 H2065 0.930 . S
C2054 C2050 1.524 . S
C2054 H2066 0.956 . S
C2054 H2067 0.961 . S
C2054 H2068 0.961 . S
C2055 C2052 1.539 . S
C2055 H2069 0.958 . S
C2055 H2070 0.961 . S
C2055 H2071 0.960 . S
H2056 C2040 0.931 . S
H2057 C2045 0.929 . S
H2058 C2046 0.960 . S
H2059 C2046 0.962 . S
H2060 C2046 0.960 . S
H2061 C2047 0.961 . S
H2062 C2047 0.961 . S
H2063 C2047 0.961 . S
H2064 C2048 0.931 . S
H2065 C2053 0.930 . S
H2066 C2054 0.956 . S
H2067 C2054 0.961 . S
H2068 C2054 0.961 . S
H2069 C2055 0.958 . S
H2070 C2055 0.961 . S
H2071 C2055 0.960 . S
C2072 C2073 1.391 . S
C2072 C2074 1.394 . S
C2072 H2088 0.931 . S
C2073 C2072 1.391 . S
C2073 C2077 1.376 . S
C2074 C2072 1.394 . S
C2074 C2075 1.369 . S
C2074 C2078 1.531 . S
C2075 C2074 1.369 . S
C2075 C2076 1.410 . S
C2075 C2083 1.503 . S
C2076 C2075 1.410 . S
C2076 C2077 1.392 . S
C2076 C2079 1.511 . S
C2077 C2073 1.376 . S
C2077 C2076 1.392 . S
C2077 H2089 0.929 . S
C2078 C2074 1.531 . S
C2078 H2090 0.960 . S
C2078 H2091 0.962 . S
C2078 H2092 0.960 . S
C2079 C2076 1.511 . S
C2079 H2093 0.961 . S
C2079 H2094 0.961 . S
C2079 H2095 0.961 . S
C2080 C2081 1.370 . S
C2080 C2082 1.363 . S
C2080 H2096 0.931 . S
C2081 C2080 1.370 . S
C2081 C2085 1.408 . S
C2082 C2080 1.363 . S
C2082 C2083 1.370 . S
C2082 C2086 1.524 . S
C2083 C2075 1.503 . S
C2083 C2082 1.370 . S
C2083 C2084 1.403 . S
C2084 C2083 1.403 . S
C2084 C2085 1.404 . S
C2084 C2087 1.539 . S
C2085 C2081 1.408 . S
C2085 C2084 1.404 . S
C2085 H2097 0.930 . S
C2086 C2082 1.524 . S
C2086 H2098 0.956 . S
C2086 H2099 0.961 . S
C2086 H2100 0.961 . S
C2087 C2084 1.539 . S
C2087 H2101 0.958 . S
C2087 H2102 0.961 . S
C2087 H2103 0.960 . S
H2088 C2072 0.931 . S
H2089 C2077 0.929 . S
H2090 C2078 0.960 . S
H2091 C2078 0.962 . S
H2092 C2078 0.960 . S
H2093 C2079 0.961 . S
H2094 C2079 0.961 . S
H2095 C2079 0.961 . S
H2096 C2080 0.931 . S
H2097 C2085 0.930 . S
H2098 C2086 0.956 . S
H2099 C2086 0.961 . S
H2100 C2086 0.961 . S
H2101 C2087 0.958 . S
H2102 C2087 0.961 . S
H2103 C2087 0.960 . S
C2104 C2105 1.391 . S
C2104 C2106 1.394 . S
C2104 H2120 0.931 . S
C2105 C2104 1.391 . S
C2105 C2109 1.376 . S
C2106 C2104 1.394 . S
C2106 C2107 1.369 . S
C2106 C2110 1.531 . S
C2107 C2106 1.369 . S
C2107 C2108 1.410 . S
C2107 C2115 1.503 . S
C2108 C2107 1.410 . S
C2108 C2109 1.392 . S
C2108 C2111 1.511 . S
C2109 C2105 1.376 . S
C2109 C2108 1.392 . S
C2109 H2121 0.929 . S
C2110 C2106 1.531 . S
C2110 H2122 0.960 . S
C2110 H2123 0.962 . S
C2110 H2124 0.960 . S
C2111 C2108 1.511 . S
C2111 H2125 0.961 . S
C2111 H2126 0.961 . S
C2111 H2127 0.961 . S
C2112 C2113 1.370 . S
C2112 C2114 1.363 . S
C2112 H2128 0.931 . S
C2113 C2112 1.370 . S
C2113 C2117 1.408 . S
C2114 C2112 1.363 . S
C2114 C2115 1.370 . S
C2114 C2118 1.524 . S
C2115 C2107 1.503 . S
C2115 C2114 1.370 . S
C2115 C2116 1.403 . S
C2116 C2115 1.403 . S
C2116 C2117 1.404 . S
C2116 C2119 1.539 . S
C2117 C2113 1.408 . S
C2117 C2116 1.404 . S
C2117 H2129 0.930 . S
C2118 C2114 1.524 . S
C2118 H2130 0.956 . S
C2118 H2131 0.961 . S
C2118 H2132 0.961 . S
C2119 C2116 1.539 . S
C2119 H2133 0.958 . S
C2119 H2134 0.961 . S
C2119 H2135 0.960 . S
H2120 C2104 0.931 . S
H2121 C2109 0.929 . S
H2122 C2110 0.960 . S
H2123 C2110 0.962 . S
H2124 C2110 0.960 . S
H2125 C2111 0.961 . S
H2126 C2111 0.961 . S
H2127 C2111 0.961 . S
H2128 C2112 0.931 . S
H2129 C2117 0.930 . S
H2130 C2118 0.956 . S
H2131 C2118 0.961 . S
H2132 C2118 0.961 . S
H2133 C2119 0.958 . S
H2134 C2119 0.961 . S
H2135 C2119 0.960 . S
C2136 C2137 1.391 . S
C2136 C2138 1.394 . S
C2136 H2152 0.931 . S
C2137 C2136 1.391 . S
C2137 C2141 1.376 . S
C2138 C2136 1.394 . S
C2138 C2139 1.369 . S
C2138 C2142 1.531 . S
C2139 C2138 1.369 . S
C2139 C2140 1.410 . S
C2139 C2147 1.503 . S
C2140 C2139 1.410 . S
C2140 C2141 1.392 . S
C2140 C2143 1.511 . S
C2141 C2137 1.376 . S
C2141 C2140 1.392 . S
C2141 H2153 0.929 . S
C2142 C2138 1.531 . S
C2142 H2154 0.960 . S
C2142 H2155 0.962 . S
C2142 H2156 0.960 . S
C2143 C2140 1.511 . S
C2143 H2157 0.961 . S
C2143 H2158 0.961 . S
C2143 H2159 0.961 . S
C2144 C2145 1.370 . S
C2144 C2146 1.363 . S
C2144 H2160 0.931 . S
C2145 C2144 1.370 . S
C2145 C2149 1.408 . S
C2146 C2144 1.363 . S
C2146 C2147 1.370 . S
C2146 C2150 1.524 . S
C2147 C2139 1.503 . S
C2147 C2146 1.370 . S
C2147 C2148 1.403 . S
C2148 C2147 1.403 . S
C2148 C2149 1.404 . S
C2148 C2151 1.539 . S
C2149 C2145 1.408 . S
C2149 C2148 1.404 . S
C2149 H2161 0.930 . S
C2150 C2146 1.524 . S
C2150 H2162 0.956 . S
C2150 H2163 0.961 . S
C2150 H2164 0.961 . S
C2151 C2148 1.539 . S
C2151 H2165 0.958 . S
C2151 H2166 0.961 . S
C2151 H2167 0.960 . S
H2152 C2136 0.931 . S
H2153 C2141 0.929 . S
H2154 C2142 0.960 . S
H2155 C2142 0.962 . S
H2156 C2142 0.960 . S
H2157 C2143 0.961 . S
H2158 C2143 0.961 . S
H2159 C2143 0.961 . S
H2160 C2144 0.931 . S
H2161 C2149 0.930 . S
H2162 C2150 0.956 . S
H2163 C2150 0.961 . S
H2164 C2150 0.961 . S
H2165 C2151 0.958 . S
H2166 C2151 0.961 . S
H2167 C2151 0.960 . S
C2168 C2169 1.391 . S
C2168 C2170 1.394 . S
C2168 H2184 0.931 . S
C2169 C2168 1.391 . S
C2169 C2173 1.376 . S
C2170 C2168 1.394 . S
C2170 C2171 1.369 . S
C2170 C2174 1.531 . S
C2171 C2170 1.369 . S
C2171 C2172 1.410 . S
C2171 C2179 1.503 . S
C2172 C2171 1.410 . S
C2172 C2173 1.392 . S
C2172 C2175 1.511 . S
C2173 C2169 1.376 . S
C2173 C2172 1.392 . S
C2173 H2185 0.929 . S
C2174 C2170 1.531 . S
C2174 H2186 0.960 . S
C2174 H2187 0.962 . S
C2174 H2188 0.960 . S
C2175 C2172 1.511 . S
C2175 H2189 0.961 . S
C2175 H2190 0.961 . S
C2175 H2191 0.961 . S
C2176 C2177 1.370 . S
C2176 C2178 1.363 . S
C2176 H2192 0.931 . S
C2177 C2176 1.370 . S
C2177 C2181 1.408 . S
C2178 C2176 1.363 . S
C2178 C2179 1.370 . S
C2178 C2182 1.524 . S
C2179 C2171 1.503 . S
C2179 C2178 1.370 . S
C2179 C2180 1.403 . S
C2180 C2179 1.403 . S
C2180 C2181 1.404 . S
C2180 C2183 1.539 . S
C2181 C2177 1.408 . S
C2181 C2180 1.404 . S
C2181 H2193 0.930 . S
C2182 C2178 1.524 . S
C2182 H2194 0.956 . S
C2182 H2195 0.961 . S
C2182 H2196 0.961 . S
C2183 C2180 1.539 . S
C2183 H2197 0.958 . S
C2183 H2198 0.961 . S
C2183 H2199 0.960 . S
H2184 C2168 0.931 . S
H2185 C2173 0.929 . S
H2186 C2174 0.960 . S
H2187 C2174 0.962 . S
H2188 C2174 0.960 . S
H2189 C2175 0.961 . S
H2190 C2175 0.961 . S
H2191 C2175 0.961 . S
H2192 C2176 0.931 . S
H2193 C2181 0.930 . S
H2194 C2182 0.956 . S
H2195 C2182 0.961 . S
H2196 C2182 0.961 . S
H2197 C2183 0.958 . S
H2198 C2183 0.961 . S
H2199 C2183 0.960 . S
C2200 C2201 1.391 . S
C2200 C2202 1.394 . S
C2200 H2216 0.931 . S
C2201 C2200 1.391 . S
C2201 C2205 1.376 . S
C2202 C2200 1.394 . S
C2202 C2203 1.369 . S
C2202 C2206 1.531 . S
C2203 C2202 1.369 . S
C2203 C2204 1.410 . S
C2203 C2211 1.503 . S
C2204 C2203 1.410 . S
C2204 C2205 1.392 . S
C2204 C2207 1.511 . S
C2205 C2201 1.376 . S
C2205 C2204 1.392 . S
C2205 H2217 0.929 . S
C2206 C2202 1.531 . S
C2206 H2218 0.960 . S
C2206 H2219 0.962 . S
C2206 H2220 0.960 . S
C2207 C2204 1.511 . S
C2207 H2221 0.961 . S
C2207 H2222 0.961 . S
C2207 H2223 0.961 . S
C2208 C2209 1.370 . S
C2208 C2210 1.363 . S
C2208 H2224 0.931 . S
C2209 C2208 1.370 . S
C2209 C2213 1.408 . S
C2210 C2208 1.363 . S
C2210 C2211 1.370 . S
C2210 C2214 1.524 . S
C2211 C2203 1.503 . S
C2211 C2210 1.370 . S
C2211 C2212 1.403 . S
C2212 C2211 1.403 . S
C2212 C2213 1.404 . S
C2212 C2215 1.539 . S
C2213 C2209 1.408 . S
C2213 C2212 1.404 . S
C2213 H2225 0.930 . S
C2214 C2210 1.524 . S
C2214 H2226 0.956 . S
C2214 H2227 0.961 . S
C2214 H2228 0.961 . S
C2215 C2212 1.539 . S
C2215 H2229 0.958 . S
C2215 H2230 0.961 . S
C2215 H2231 0.960 . S
H2216 C2200 0.931 . S
H2217 C2205 0.929 . S
H2218 C2206 0.960 . S
H2219 C2206 0.962 . S
H2220 C2206 0.960 . S
H2221 C2207 0.961 . S
H2222 C2207 0.961 . S
H2223 C2207 0.961 . S
H2224 C2208 0.931 . S
H2225 C2213 0.930 . S
H2226 C2214 0.956 . S
H2227 C2214 0.961 . S
H2228 C2214 0.961 . S
H2229 C2215 0.958 . S
H2230 C2215 0.961 . S
H2231 C2215 0.960 . S
C2232 C2233 1.391 . S
C2232 C2234 1.394 . S
C2232 H2248 0.931 . S
C2233 C2232 1.391 . S
C2233 C2237 1.376 . S
C2234 C2232 1.394 . S
C2234 C2235 1.369 . S
C2234 C2238 1.531 . S
C2235 C2234 1.369 . S
C2235 C2236 1.410 . S
C2235 C2243 1.503 . S
C2236 C2235 1.410 . S
C2236 C2237 1.392 . S
C2236 C2239 1.511 . S
C2237 C2233 1.376 . S
C2237 C2236 1.392 . S
C2237 H2249 0.929 . S
C2238 C2234 1.531 . S
C2238 H2250 0.960 . S
C2238 H2251 0.962 . S
C2238 H2252 0.960 . S
C2239 C2236 1.511 . S
C2239 H2253 0.961 . S
C2239 H2254 0.961 . S
C2239 H2255 0.961 . S
C2240 C2241 1.370 . S
C2240 C2242 1.363 . S
C2240 H2256 0.931 . S
C2241 C2240 1.370 . S
C2241 C2245 1.408 . S
C2242 C2240 1.363 . S
C2242 C2243 1.370 . S
C2242 C2246 1.524 . S
C2243 C2235 1.503 . S
C2243 C2242 1.370 . S
C2243 C2244 1.403 . S
C2244 C2243 1.403 . S
C2244 C2245 1.404 . S
C2244 C2247 1.539 . S
C2245 C2241 1.408 . S
C2245 C2244 1.404 . S
C2245 H2257 0.930 . S
C2246 C2242 1.524 . S
C2246 H2258 0.956 . S
C2246 H2259 0.961 . S
C2246 H2260 0.961 . S
C2247 C2244 1.539 . S
C2247 H2261 0.958 . S
C2247 H2262 0.961 . S
C2247 H2263 0.960 . S
H2248 C2232 0.931 . S
H2249 C2237 0.929 . S
H2250 C2238 0.960 . S
H2251 C2238 0.962 . S
H2252 C2238 0.960 . S
H2253 C2239 0.961 . S
H2254 C2239 0.961 . S
H2255 C2239 0.961 . S
H2256 C2240 0.931 . S
H2257 C2245 0.930 . S
H2258 C2246 0.956 . S
H2259 C2246 0.961 . S
H2260 C2246 0.961 . S
H2261 C2247 0.958 . S
H2262 C2247 0.961 . S
H2263 C2247 0.960 . S
C2264 C2265 1.391 . S
C2264 C2266 1.394 . S
C2264 H2280 0.931 . S
C2265 C2264 1.391 . S
C2265 C2269 1.376 . S
C2266 C2264 1.394 . S
C2266 C2267 1.369 . S
C2266 C2270 1.531 . S
C2267 C2266 1.369 . S
C2267 C2268 1.410 . S
C2267 C2275 1.503 . S
C2268 C2267 1.410 . S
C2268 C2269 1.392 . S
C2268 C2271 1.511 . S
C2269 C2265 1.376 . S
C2269 C2268 1.392 . S
C2269 H2281 0.929 . S
C2270 C2266 1.531 . S
C2270 H2282 0.960 . S
C2270 H2283 0.962 . S
C2270 H2284 0.960 . S
C2271 C2268 1.511 . S
C2271 H2285 0.961 . S
C2271 H2286 0.961 . S
C2271 H2287 0.961 . S
C2272 C2273 1.370 . S
C2272 C2274 1.363 . S
C2272 H2288 0.931 . S
C2273 C2272 1.370 . S
C2273 C2277 1.408 . S
C2274 C2272 1.363 . S
C2274 C2275 1.370 . S
C2274 C2278 1.524 . S
C2275 C2267 1.503 . S
C2275 C2274 1.370 . S
C2275 C2276 1.403 . S
C2276 C2275 1.403 . S
C2276 C2277 1.404 . S
C2276 C2279 1.539 . S
C2277 C2273 1.408 . S
C2277 C2276 1.404 . S
C2277 H2289 0.930 . S
C2278 C2274 1.524 . S
C2278 H2290 0.956 . S
C2278 H2291 0.961 . S
C2278 H2292 0.961 . S
C2279 C2276 1.539 . S
C2279 H2293 0.958 . S
C2279 H2294 0.961 . S
C2279 H2295 0.960 . S
H2280 C2264 0.931 . S
H2281 C2269 0.929 . S
H2282 C2270 0.960 . S
H2283 C2270 0.962 . S
H2284 C2270 0.960 . S
H2285 C2271 0.961 . S
H2286 C2271 0.961 . S
H2287 C2271 0.961 . S
H2288 C2272 0.931 . S
H2289 C2277 0.930 . S
H2290 C2278 0.956 . S
H2291 C2278 0.961 . S
H2292 C2278 0.961 . S
H2293 C2279 0.958 . S
H2294 C2279 0.961 . S
H2295 C2279 0.960 . S
C2296 C2297 1.391 . S
C2296 C2298 1.394 . S
C2296 H2312 0.931 . S
C2297 C2296 1.391 . S
C2297 C2301 1.376 . S
C2298 C2296 1.394 . S
C2298 C2299 1.369 . S
C2298 C2302 1.531 . S
C2299 C2298 1.369 . S
C2299 C2300 1.410 . S
C2299 C2307 1.503 . S
C2300 C2299 1.410 . S
C2300 C2301 1.392 . S
C2300 C2303 1.511 . S
C2301 C2297 1.376 . S
C2301 C2300 1.392 . S
C2301 H2313 0.929 . S
C2302 C2298 1.531 . S
C2302 H2314 0.960 . S
C2302 H2315 0.962 . S
C2302 H2316 0.960 . S
C2303 C2300 1.511 . S
C2303 H2317 0.961 . S
C2303 H2318 0.961 . S
C2303 H2319 0.961 . S
C2304 C2305 1.370 . S
C2304 C2306 1.363 . S
C2304 H2320 0.931 . S
C2305 C2304 1.370 . S
C2305 C2309 1.408 . S
C2306 C2304 1.363 . S
C2306 C2307 1.370 . S
C2306 C2310 1.524 . S
C2307 C2299 1.503 . S
C2307 C2306 1.370 . S
C2307 C2308 1.403 . S
C2308 C2307 1.403 . S
C2308 C2309 1.404 . S
C2308 C2311 1.539 . S
C2309 C2305 1.408 . S
C2309 C2308 1.404 . S
C2309 H2321 0.930 . S
C2310 C2306 1.524 . S
C2310 H2322 0.956 . S
C2310 H2323 0.961 . S
C2310 H2324 0.961 . S
C2311 C2308 1.539 . S
C2311 H2325 0.958 . S
C2311 H2326 0.961 . S
C2311 H2327 0.960 . S
H2312 C2296 0.931 . S
H2313 C2301 0.929 . S
H2314 C2302 0.960 . S
H2315 C2302 0.962 . S
H2316 C2302 0.960 . S
H2317 C2303 0.961 . S
H2318 C2303 0.961 . S
H2319 C2303 0.961 . S
H2320 C2304 0.931 . S
H2321 C2309 0.930 . S
H2322 C2310 0.956 . S
H2323 C2310 0.961 . S
H2324 C2310 0.961 . S
H2325 C2311 0.958 . S
H2326 C2311 0.961 . S
H2327 C2311 0.960 . S
C2328 C2329 1.391 . S
C2328 C2330 1.394 . S
C2328 H2344 0.931 . S
C2329 C2328 1.391 . S
C2329 C2333 1.376 . S
C2330 C2328 1.394 . S
C2330 C2331 1.369 . S
C2330 C2334 1.531 . S
C2331 C2330 1.369 . S
C2331 C2332 1.410 . S
C2331 C2339 1.503 . S
C2332 C2331 1.410 . S
C2332 C2333 1.392 . S
C2332 C2335 1.511 . S
C2333 C2329 1.376 . S
C2333 C2332 1.392 . S
C2333 H2345 0.929 . S
C2334 C2330 1.531 . S
C2334 H2346 0.960 . S
C2334 H2347 0.962 . S
C2334 H2348 0.960 . S
C2335 C2332 1.511 . S
C2335 H2349 0.961 . S
C2335 H2350 0.961 . S
C2335 H2351 0.961 . S
C2336 C2337 1.370 . S
C2336 C2338 1.363 . S
C2336 H2352 0.931 . S
C2337 C2336 1.370 . S
C2337 C2341 1.408 . S
C2338 C2336 1.363 . S
C2338 C2339 1.370 . S
C2338 C2342 1.524 . S
C2339 C2331 1.503 . S
C2339 C2338 1.370 . S
C2339 C2340 1.403 . S
C2340 C2339 1.403 . S
C2340 C2341 1.404 . S
C2340 C2343 1.539 . S
C2341 C2337 1.408 . S
C2341 C2340 1.404 . S
C2341 H2353 0.930 . S
C2342 C2338 1.524 . S
C2342 H2354 0.956 . S
C2342 H2355 0.961 . S
C2342 H2356 0.961 . S
C2343 C2340 1.539 . S
C2343 H2357 0.958 . S
C2343 H2358 0.961 . S
C2343 H2359 0.960 . S
H2344 C2328 0.931 . S
H2345 C2333 0.929 . S
H2346 C2334 0.960 . S
H2347 C2334 0.962 . S
H2348 C2334 0.960 . S
H2349 C2335 0.961 . S
H2350 C2335 0.961 . S
H2351 C2335 0.961 . S
H2352 C2336 0.931 . S
H2353 C2341 0.930 . S
H2354 C2342 0.956 . S
H2355 C2342 0.961 . S
H2356 C2342 0.961 . S
H2357 C2343 0.958 . S
H2358 C2343 0.961 . S
H2359 C2343 0.960 . S
C2360 C2361 1.391 . S
C2360 C2362 1.394 . S
C2360 H2376 0.957 . S
C2361 C2360 1.391 . S
C2361 C2365 1.376 . S
C2362 C2360 1.394 . S
C2362 C2363 1.369 . S
C2362 C2366 1.531 . S
C2363 C2362 1.369 . S
C2363 C2364 1.410 . S
C2363 C2371 1.503 . S
C2364 C2363 1.410 . S
C2364 C2365 1.392 . S
C2364 C2367 1.511 . S
C2365 C2361 1.376 . S
C2365 C2364 1.392 . S
C2365 H2377 0.929 . S
C2366 C2362 1.531 . S
C2366 H2378 0.960 . S
C2366 H2379 0.962 . S
C2366 H2380 0.984 . S
C2367 C2364 1.511 . S
C2367 H2381 0.961 . S
C2367 H2382 0.961 . S
C2367 H2383 0.961 . S
C2368 C2369 1.370 . S
C2368 C2370 1.363 . S
C2368 H2384 0.931 . S
C2369 C2368 1.370 . S
C2369 C2373 1.408 . S
C2370 C2368 1.363 . S
C2370 C2371 1.370 . S
C2370 C2374 1.524 . S
C2371 C2363 1.503 . S
C2371 C2370 1.370 . S
C2371 C2372 1.403 . S
C2372 C2371 1.403 . S
C2372 C2373 1.404 . S
C2372 C2375 1.539 . S
C2373 C2369 1.408 . S
C2373 C2372 1.404 . S
C2373 H2385 0.930 . S
C2374 C2370 1.524 . S
C2374 H2386 0.956 . S
C2374 H2387 0.961 . S
C2374 H2388 0.961 . S
C2375 C2372 1.539 . S
C2375 H2389 0.958 . S
C2375 H2390 0.961 . S
C2375 H2391 0.960 . S
H2376 C2360 0.957 . S
H2377 C2365 0.929 . S
H2378 C2366 0.960 . S
H2379 C2366 0.962 . S
H2380 C2366 0.984 . S
H2381 C2367 0.961 . S
H2382 C2367 0.961 . S
H2383 C2367 0.961 . S
H2384 C2368 0.931 . S
H2385 C2373 0.930 . S
H2386 C2374 0.956 . S
H2387 C2374 0.961 . S
H2388 C2374 0.961 . S
H2389 C2375 0.958 . S
H2390 C2375 0.961 . S
H2391 C2375 0.960 . S
C2392 C2393 1.391 . S
C2392 C2394 1.394 . S
C2392 H2408 0.931 . S
C2393 C2392 1.391 . S
C2393 C2397 1.376 . S
C2394 C2392 1.394 . S
C2394 C2395 1.369 . S
C2394 C2398 1.531 . S
C2395 C2394 1.369 . S
C2395 C2396 1.410 . S
C2395 C2403 1.503 . S
C2396 C2395 1.410 . S
C2396 C2397 1.392 . S
C2396 C2399 1.511 . S
C2397 C2393 1.376 . S
C2397 C2396 1.392 . S
C2397 H2409 0.929 . S
C2398 C2394 1.531 . S
C2398 H2410 0.960 . S
C2398 H2411 0.962 . S
C2398 H2412 0.960 . S
C2399 C2396 1.511 . S
C2399 H2413 0.961 . S
C2399 H2414 0.961 . S
C2399 H2415 0.961 . S
C2400 C2401 1.370 . S
C2400 C2402 1.363 . S
C2400 H2416 0.931 . S
C2401 C2400 1.370 . S
C2401 C2405 1.408 . S
C2402 C2400 1.363 . S
C2402 C2403 1.370 . S
C2402 C2406 1.524 . S
C2403 C2395 1.503 . S
C2403 C2402 1.370 . S
C2403 C2404 1.403 . S
C2404 C2403 1.403 . S
C2404 C2405 1.404 . S
C2404 C2407 1.539 . S
C2405 C2401 1.408 . S
C2405 C2404 1.404 . S
C2405 H2417 0.930 . S
C2406 C2402 1.524 . S
C2406 H2418 0.956 . S
C2406 H2419 0.961 . S
C2406 H2420 0.961 . S
C2407 C2404 1.539 . S
C2407 H2421 0.958 . S
C2407 H2422 0.961 . S
C2407 H2423 0.960 . S
H2408 C2392 0.931 . S
H2409 C2397 0.929 . S
H2410 C2398 0.960 . S
H2411 C2398 0.962 . S
H2412 C2398 0.960 . S
H2413 C2399 0.961 . S
H2414 C2399 0.961 . S
H2415 C2399 0.961 . S
H2416 C2400 0.931 . S
H2417 C2405 0.930 . S
H2418 C2406 0.956 . S
H2419 C2406 0.961 . S
H2420 C2406 0.961 . S
H2421 C2407 0.958 . S
H2422 C2407 0.961 . S
H2423 C2407 0.960 . S
C2424 C2425 1.391 . S
C2424 C2426 1.394 . S
C2424 H2440 0.931 . S
C2425 C2424 1.391 . S
C2425 C2429 1.376 . S
C2426 C2424 1.394 . S
C2426 C2427 1.369 . S
C2426 C2430 1.531 . S
C2427 C2426 1.369 . S
C2427 C2428 1.410 . S
C2427 C2435 1.503 . S
C2428 C2427 1.410 . S
C2428 C2429 1.392 . S
C2428 C2431 1.511 . S
C2429 C2425 1.376 . S
C2429 C2428 1.392 . S
C2429 H2441 0.929 . S
C2430 C2426 1.531 . S
C2430 H2442 0.960 . S
C2430 H2443 0.962 . S
C2430 H2444 0.960 . S
C2431 C2428 1.511 . S
C2431 H2445 0.961 . S
C2431 H2446 0.961 . S
C2431 H2447 0.961 . S
C2432 C2433 1.370 . S
C2432 C2434 1.363 . S
C2432 H2448 0.931 . S
C2433 C2432 1.370 . S
C2433 C2437 1.408 . S
C2434 C2432 1.363 . S
C2434 C2435 1.370 . S
C2434 C2438 1.524 . S
C2435 C2427 1.503 . S
C2435 C2434 1.370 . S
C2435 C2436 1.403 . S
C2436 C2435 1.403 . S
C2436 C2437 1.404 . S
C2436 C2439 1.539 . S
C2437 C2433 1.408 . S
C2437 C2436 1.404 . S
C2437 H2449 0.930 . S
C2438 C2434 1.524 . S
C2438 H2450 0.956 . S
C2438 H2451 0.961 . S
C2438 H2452 0.961 . S
C2439 C2436 1.539 . S
C2439 H2453 0.958 . S
C2439 H2454 0.961 . S
C2439 H2455 0.960 . S
H2440 C2424 0.931 . S
H2441 C2429 0.929 . S
H2442 C2430 0.960 . S
H2443 C2430 0.962 . S
H2444 C2430 0.960 . S
H2445 C2431 0.961 . S
H2446 C2431 0.961 . S
H2447 C2431 0.961 . S
H2448 C2432 0.931 . S
H2449 C2437 0.930 . S
H2450 C2438 0.956 . S
H2451 C2438 0.961 . S
H2452 C2438 0.961 . S
H2453 C2439 0.958 . S
H2454 C2439 0.961 . S
H2455 C2439 0.960 . S
C2456 C2457 1.391 . S
C2456 C2458 1.394 . S
C2456 H2472 0.931 . S
C2457 C2456 1.391 . S
C2457 C2461 1.376 . S
C2458 C2456 1.394 . S
C2458 C2459 1.369 . S
C2458 C2462 1.531 . S
C2459 C2458 1.369 . S
C2459 C2460 1.410 . S
C2459 C2467 1.503 . S
C2460 C2459 1.410 . S
C2460 C2461 1.392 . S
C2460 C2463 1.511 . S
C2461 C2457 1.376 . S
C2461 C2460 1.392 . S
C2461 H2473 0.929 1_556 S
C2462 C2458 1.531 . S
C2462 H2474 0.960 . S
C2462 H2475 0.962 . S
C2462 H2476 0.960 . S
C2463 C2460 1.511 . S
C2463 H2477 0.961 1_556 S
C2463 H2478 0.961 . S
C2463 H2479 0.961 . S
C2464 C2465 1.370 . S
C2464 C2466 1.363 . S
C2464 H2480 0.931 . S
C2465 C2464 1.370 . S
C2465 C2469 1.408 . S
C2466 C2464 1.363 . S
C2466 C2467 1.370 . S
C2466 C2470 1.524 . S
C2467 C2459 1.503 . S
C2467 C2466 1.370 . S
C2467 C2468 1.403 . S
C2468 C2467 1.403 . S
C2468 C2469 1.404 . S
C2468 C2471 1.539 . S
C2469 C2465 1.408 . S
C2469 C2468 1.404 . S
C2469 H2481 0.930 . S
C2470 C2466 1.524 . S
C2470 H2482 0.956 . S
C2470 H2483 0.961 . S
C2470 H2484 0.961 . S
C2471 C2468 1.539 . S
C2471 H2485 0.958 . S
C2471 H2486 0.961 . S
C2471 H2487 0.960 . S
H2472 C2456 0.931 . S
H2473 C2461 0.929 1_554 S
H2474 C2462 0.960 . S
H2475 C2462 0.962 . S
H2476 C2462 0.960 . S
H2477 C2463 0.961 1_554 S
H2478 C2463 0.961 . S
H2479 C2463 0.961 . S
H2480 C2464 0.931 . S
H2481 C2469 0.930 . S
H2482 C2470 0.956 . S
H2483 C2470 0.961 . S
H2484 C2470 0.961 . S
H2485 C2471 0.958 . S
H2486 C2471 0.961 . S
H2487 C2471 0.960 . S
C2488 C2489 1.391 . S
C2488 C2490 1.394 . S
C2488 H2504 0.931 . S
C2489 C2488 1.391 . S
C2489 C2493 1.376 . S
C2490 C2488 1.394 . S
C2490 C2491 1.369 . S
C2490 C2494 1.531 . S
C2491 C2490 1.369 . S
C2491 C2492 1.410 . S
C2491 C2499 1.503 . S
C2492 C2491 1.410 . S
C2492 C2493 1.392 . S
C2492 C2495 1.511 . S
C2493 C2489 1.376 . S
C2493 C2492 1.392 . S
C2493 H2505 0.929 . S
C2494 C2490 1.531 . S
C2494 H2506 0.960 . S
C2494 H2507 0.962 . S
C2494 H2508 0.960 . S
C2495 C2492 1.511 . S
C2495 H2509 0.961 . S
C2495 H2510 0.961 . S
C2495 H2511 0.961 . S
C2496 C2497 1.370 . S
C2496 C2498 1.363 . S
C2496 H2512 0.931 . S
C2497 C2496 1.370 . S
C2497 C2501 1.408 . S
C2498 C2496 1.363 . S
C2498 C2499 1.370 . S
C2498 C2502 1.524 . S
C2499 C2491 1.503 . S
C2499 C2498 1.370 . S
C2499 C2500 1.403 . S
C2500 C2499 1.403 . S
C2500 C2501 1.404 . S
C2500 C2503 1.539 . S
C2501 C2497 1.408 . S
C2501 C2500 1.404 . S
C2501 H2513 0.930 . S
C2502 C2498 1.524 . S
C2502 H2514 0.956 . S
C2502 H2515 0.961 . S
C2502 H2516 0.961 . S
C2503 C2500 1.539 . S
C2503 H2517 0.958 . S
C2503 H2518 0.961 . S
C2503 H2519 0.960 . S
H2504 C2488 0.931 . S
H2505 C2493 0.929 . S
H2506 C2494 0.960 . S
H2507 C2494 0.962 . S
H2508 C2494 0.960 . S
H2509 C2495 0.961 . S
H2510 C2495 0.961 . S
H2511 C2495 0.961 . S
H2512 C2496 0.931 . S
H2513 C2501 0.930 . S
H2514 C2502 0.956 . S
H2515 C2502 0.961 . S
H2516 C2502 0.961 . S
H2517 C2503 0.958 . S
H2518 C2503 0.961 . S
H2519 C2503 0.960 . S
C2520 C2521 1.391 . S
C2520 C2522 1.394 . S
C2520 H2536 0.931 . S
C2521 C2520 1.391 . S
C2521 C2525 1.376 . S
C2522 C2520 1.394 . S
C2522 C2523 1.369 . S
C2522 C2526 1.531 . S
C2523 C2522 1.369 . S
C2523 C2524 1.410 . S
C2523 C2531 1.503 . S
C2524 C2523 1.410 . S
C2524 C2525 1.392 . S
C2524 C2527 1.511 . S
C2525 C2521 1.376 . S
C2525 C2524 1.392 . S
C2525 H2537 0.929 . S
C2526 C2522 1.531 . S
C2526 H2538 0.960 . S
C2526 H2539 0.962 . S
C2526 H2540 0.960 . S
C2527 C2524 1.511 . S
C2527 H2541 0.961 . S
C2527 H2542 0.961 . S
C2527 H2543 0.961 . S
C2528 C2529 1.370 . S
C2528 C2530 1.363 . S
C2528 H2544 0.931 . S
C2529 C2528 1.370 . S
C2529 C2533 1.408 . S
C2530 C2528 1.363 . S
C2530 C2531 1.370 . S
C2530 C2534 1.524 . S
C2531 C2523 1.503 . S
C2531 C2530 1.370 . S
C2531 C2532 1.403 . S
C2532 C2531 1.403 . S
C2532 C2533 1.404 . S
C2532 C2535 1.539 . S
C2533 C2529 1.408 . S
C2533 C2532 1.404 . S
C2533 H2545 0.930 . S
C2534 C2530 1.524 . S
C2534 H2546 0.956 . S
C2534 H2547 0.961 . S
C2534 H2548 0.961 . S
C2535 C2532 1.539 . S
C2535 H2549 0.958 . S
C2535 H2550 0.961 . S
C2535 H2551 0.960 . S
H2536 C2520 0.931 . S
H2537 C2525 0.929 . S
H2538 C2526 0.960 . S
H2539 C2526 0.962 . S
H2540 C2526 0.960 . S
H2541 C2527 0.961 . S
H2542 C2527 0.961 . S
H2543 C2527 0.961 . S
H2544 C2528 0.931 . S
H2545 C2533 0.930 . S
H2546 C2534 0.956 . S
H2547 C2534 0.961 . S
H2548 C2534 0.961 . S
H2549 C2535 0.958 . S
H2550 C2535 0.961 . S
H2551 C2535 0.960 . S
C2552 C2553 1.391 . S
C2552 C2554 1.394 . S
C2552 H2568 0.931 . S
C2553 C2552 1.391 . S
C2553 C2557 1.376 . S
C2554 C2552 1.394 . S
C2554 C2555 1.369 . S
C2554 C2558 1.531 . S
C2555 C2554 1.369 . S
C2555 C2556 1.410 . S
C2555 C2563 1.503 . S
C2556 C2555 1.410 . S
C2556 C2557 1.392 . S
C2556 C2559 1.511 . S
C2557 C2553 1.376 . S
C2557 C2556 1.392 . S
C2557 H2569 0.929 . S
C2558 C2554 1.531 . S
C2558 H2570 0.960 . S
C2558 H2571 0.962 . S
C2558 H2572 0.960 . S
C2559 C2556 1.511 . S
C2559 H2573 0.961 . S
C2559 H2574 0.961 . S
C2559 H2575 0.961 . S
C2560 C2561 1.370 . S
C2560 C2562 1.363 . S
C2560 H2576 0.931 . S
C2561 C2560 1.370 . S
C2561 C2565 1.408 . S
C2562 C2560 1.363 . S
C2562 C2563 1.370 . S
C2562 C2566 1.524 . S
C2563 C2555 1.503 . S
C2563 C2562 1.370 . S
C2563 C2564 1.403 . S
C2564 C2563 1.403 . S
C2564 C2565 1.404 . S
C2564 C2567 1.539 . S
C2565 C2561 1.408 . S
C2565 C2564 1.404 . S
C2565 H2577 0.930 . S
C2566 C2562 1.524 . S
C2566 H2578 0.956 . S
C2566 H2579 0.961 . S
C2566 H2580 0.961 . S
C2567 C2564 1.539 . S
C2567 H2581 0.958 . S
C2567 H2582 0.961 . S
C2567 H2583 0.960 . S
H2568 C2552 0.931 . S
H2569 C2557 0.929 . S
H2570 C2558 0.960 . S
H2571 C2558 0.962 . S
H2572 C2558 0.960 . S
H2573 C2559 0.961 . S
H2574 C2559 0.961 . S
H2575 C2559 0.961 . S
H2576 C2560 0.931 . S
H2577 C2565 0.930 . S
H2578 C2566 0.956 . S
H2579 C2566 0.961 . S
H2580 C2566 0.961 . S
H2581 C2567 0.958 . S
H2582 C2567 0.961 . S
H2583 C2567 0.960 . S
C2584 C2585 1.391 . S
C2584 C2586 1.394 . S
C2584 H2600 0.931 . S
C2585 C2584 1.391 . S
C2585 C2589 1.376 . S
C2586 C2584 1.394 . S
C2586 C2587 1.369 . S
C2586 C2590 1.531 . S
C2587 C2586 1.369 . S
C2587 C2588 1.410 . S
C2587 C2595 1.503 . S
C2588 C2587 1.410 . S
C2588 C2589 1.392 . S
C2588 C2591 1.511 . S
C2589 C2585 1.376 . S
C2589 C2588 1.392 . S
C2589 H2601 0.929 . S
C2590 C2586 1.531 . S
C2590 H2602 0.960 . S
C2590 H2603 0.962 . S
C2590 H2604 0.960 . S
C2591 C2588 1.511 . S
C2591 H2605 0.961 . S
C2591 H2606 0.961 . S
C2591 H2607 0.961 . S
C2592 C2593 1.370 . S
C2592 C2594 1.363 . S
C2592 H2608 0.931 . S
C2593 C2592 1.370 . S
C2593 C2597 1.408 . S
C2594 C2592 1.363 . S
C2594 C2595 1.370 . S
C2594 C2598 1.524 . S
C2595 C2587 1.503 . S
C2595 C2594 1.370 . S
C2595 C2596 1.403 . S
C2596 C2595 1.403 . S
C2596 C2597 1.404 . S
C2596 C2599 1.539 . S
C2597 C2593 1.408 . S
C2597 C2596 1.404 . S
C2597 H2609 0.930 . S
C2598 C2594 1.524 . S
C2598 H2610 0.956 . S
C2598 H2611 0.961 . S
C2598 H2612 0.961 . S
C2599 C2596 1.539 . S
C2599 H2613 0.958 . S
C2599 H2614 0.961 . S
C2599 H2615 0.960 . S
H2600 C2584 0.931 . S
H2601 C2589 0.929 . S
H2602 C2590 0.960 . S
H2603 C2590 0.962 . S
H2604 C2590 0.960 . S
H2605 C2591 0.961 . S
H2606 C2591 0.961 . S
H2607 C2591 0.961 . S
H2608 C2592 0.931 . S
H2609 C2597 0.930 . S
H2610 C2598 0.956 . S
H2611 C2598 0.961 . S
H2612 C2598 0.961 . S
H2613 C2599 0.958 . S
H2614 C2599 0.961 . S
H2615 C2599 0.960 . S
C2616 C2617 1.391 . S
C2616 C2618 1.394 . S
C2616 H2632 0.931 . S
C2617 C2616 1.391 . S
C2617 C2621 1.376 . S
C2618 C2616 1.394 . S
C2618 C2619 1.369 . S
C2618 C2622 1.531 . S
C2619 C2618 1.369 . S
C2619 C2620 1.410 . S
C2619 C2627 1.503 . S
C2620 C2619 1.410 . S
C2620 C2621 1.392 . S
C2620 C2623 1.511 . S
C2621 C2617 1.376 . S
C2621 C2620 1.392 . S
C2621 H2633 0.929 . S
C2622 C2618 1.531 . S
C2622 H2634 0.960 . S
C2622 H2635 0.962 . S
C2622 H2636 0.960 . S
C2623 C2620 1.511 . S
C2623 H2637 0.961 . S
C2623 H2638 0.961 . S
C2623 H2639 0.961 . S
C2624 C2625 1.370 . S
C2624 C2626 1.363 . S
C2624 H2640 0.931 . S
C2625 C2624 1.370 . S
C2625 C2629 1.408 . S
C2626 C2624 1.363 . S
C2626 C2627 1.370 . S
C2626 C2630 1.524 . S
C2627 C2619 1.503 . S
C2627 C2626 1.370 . S
C2627 C2628 1.403 . S
C2628 C2627 1.403 . S
C2628 C2629 1.404 . S
C2628 C2631 1.539 . S
C2629 C2625 1.408 . S
C2629 C2628 1.404 . S
C2629 H2641 0.930 . S
C2630 C2626 1.524 . S
C2630 H2642 0.956 . S
C2630 H2643 0.961 . S
C2630 H2644 0.961 . S
C2631 C2628 1.539 . S
C2631 H2645 0.958 . S
C2631 H2646 0.961 . S
C2631 H2647 0.960 . S
H2632 C2616 0.931 . S
H2633 C2621 0.929 . S
H2634 C2622 0.960 . S
H2635 C2622 0.962 . S
H2636 C2622 0.960 . S
H2637 C2623 0.961 . S
H2638 C2623 0.961 . S
H2639 C2623 0.961 . S
H2640 C2624 0.931 . S
H2641 C2629 0.930 . S
H2642 C2630 0.956 . S
H2643 C2630 0.961 . S
H2644 C2630 0.961 . S
H2645 C2631 0.958 . S
H2646 C2631 0.961 . S
H2647 C2631 0.960 . S
C2648 C2649 1.391 . S
C2648 C2650 1.394 . S
C2648 H2664 0.931 . S
C2649 C2648 1.391 . S
C2649 C2653 1.376 . S
C2650 C2648 1.394 . S
C2650 C2651 1.369 . S
C2650 C2654 1.531 . S
C2651 C2650 1.369 . S
C2651 C2652 1.410 . S
C2651 C2659 1.503 . S
C2652 C2651 1.410 . S
C2652 C2653 1.392 . S
C2652 C2655 1.511 . S
C2653 C2649 1.376 . S
C2653 C2652 1.392 . S
C2653 H2665 0.929 . S
C2654 C2650 1.531 . S
C2654 H2666 0.960 . S
C2654 H2667 0.962 . S
C2654 H2668 0.960 . S
C2655 C2652 1.511 . S
C2655 H2669 0.961 . S
C2655 H2670 0.961 . S
C2655 H2671 0.961 . S
C2656 C2657 1.370 . S
C2656 C2658 1.363 . S
C2656 H2672 0.931 . S
C2657 C2656 1.370 . S
C2657 C2661 1.408 . S
C2658 C2656 1.363 . S
C2658 C2659 1.370 . S
C2658 C2662 1.524 . S
C2659 C2651 1.503 . S
C2659 C2658 1.370 . S
C2659 C2660 1.403 . S
C2660 C2659 1.403 . S
C2660 C2661 1.404 . S
C2660 C2663 1.539 . S
C2661 C2657 1.408 . S
C2661 C2660 1.404 . S
C2661 H2673 0.930 . S
C2662 C2658 1.524 . S
C2662 H2674 0.956 . S
C2662 H2675 0.961 . S
C2662 H2676 0.961 . S
C2663 C2660 1.539 . S
C2663 H2677 0.958 . S
C2663 H2678 0.961 . S
C2663 H2679 0.960 . S
H2664 C2648 0.931 . S
H2665 C2653 0.929 . S
H2666 C2654 0.960 . S
H2667 C2654 0.962 . S
H2668 C2654 0.960 . S
H2669 C2655 0.961 . S
H2670 C2655 0.961 . S
H2671 C2655 0.961 . S
H2672 C2656 0.931 . S
H2673 C2661 0.930 . S
H2674 C2662 0.956 . S
H2675 C2662 0.961 . S
H2676 C2662 0.961 . S
H2677 C2663 0.958 . S
H2678 C2663 0.961 . S
H2679 C2663 0.960 . S
C2680 C2681 1.391 . S
C2680 C2682 1.394 . S
C2680 H2696 0.931 . S
C2681 C2680 1.391 . S
C2681 C2685 1.376 . S
C2682 C2680 1.394 . S
C2682 C2683 1.369 . S
C2682 C2686 1.531 . S
C2683 C2682 1.369 . S
C2683 C2684 1.410 . S
C2683 C2691 1.503 . S
C2684 C2683 1.410 . S
C2684 C2685 1.392 . S
C2684 C2687 1.511 . S
C2685 C2681 1.376 . S
C2685 C2684 1.392 . S
C2685 H2697 0.929 . S
C2686 C2682 1.531 . S
C2686 H2698 0.960 . S
C2686 H2699 0.962 . S
C2686 H2700 0.960 . S
C2687 C2684 1.511 . S
C2687 H2701 0.961 . S
C2687 H2702 0.961 . S
C2687 H2703 0.961 . S
C2688 C2689 1.370 . S
C2688 C2690 1.363 . S
C2688 H2704 0.931 . S
C2689 C2688 1.370 . S
C2689 C2693 1.408 . S
C2690 C2688 1.363 . S
C2690 C2691 1.370 . S
C2690 C2694 1.524 . S
C2691 C2683 1.503 . S
C2691 C2690 1.370 . S
C2691 C2692 1.403 . S
C2692 C2691 1.403 . S
C2692 C2693 1.404 . S
C2692 C2695 1.539 . S
C2693 C2689 1.408 . S
C2693 C2692 1.404 . S
C2693 H2705 0.930 . S
C2694 C2690 1.524 . S
C2694 H2706 0.956 . S
C2694 H2707 0.961 . S
C2694 H2708 0.961 . S
C2695 C2692 1.539 . S
C2695 H2709 0.958 . S
C2695 H2710 0.961 . S
C2695 H2711 0.960 . S
H2696 C2680 0.931 . S
H2697 C2685 0.929 . S
H2698 C2686 0.960 . S
H2699 C2686 0.962 . S
H2700 C2686 0.960 . S
H2701 C2687 0.961 . S
H2702 C2687 0.961 . S
H2703 C2687 0.961 . S
H2704 C2688 0.931 . S
H2705 C2693 0.930 . S
H2706 C2694 0.956 . S
H2707 C2694 0.961 . S
H2708 C2694 0.961 . S
H2709 C2695 0.958 . S
H2710 C2695 0.961 . S
H2711 C2695 0.960 . S
C2712 C2713 1.391 . S
C2712 C2714 1.394 . S
C2712 H2728 0.931 . S
C2713 C2712 1.391 . S
C2713 C2717 1.376 1_455 S
C2714 C2712 1.394 . S
C2714 C2715 1.369 . S
C2714 C2718 1.531 . S
C2715 C2714 1.369 . S
C2715 C2716 1.410 1_455 S
C2715 C2723 1.503 . S
C2716 C2715 1.410 1_655 S
C2716 C2717 1.392 . S
C2716 C2719 1.511 . S
C2717 C2713 1.376 1_655 S
C2717 C2716 1.392 . S
C2717 H2729 0.929 . S
C2718 C2714 1.531 . S
C2718 H2730 0.960 . S
C2718 H2731 0.962 . S
C2718 H2732 0.960 . S
C2719 C2716 1.511 . S
C2719 H2733 0.961 . S
C2719 H2734 0.961 . S
C2719 H2735 0.961 . S
C2720 C2721 1.370 . S
C2720 C2722 1.363 . S
C2720 H2736 0.931 . S
C2721 C2720 1.370 . S
C2721 C2725 1.418 1_455 S
C2722 C2720 1.363 . S
C2722 C2723 1.370 . S
C2722 C2726 1.524 . S
C2723 C2715 1.503 . S
C2723 C2722 1.370 . S
C2723 C2724 1.403 . S
C2724 C2723 1.403 . S
C2724 C2725 1.383 1_455 S
C2724 C2727 1.539 1_455 S
C2725 C2721 1.418 1_655 S
C2725 C2724 1.383 1_655 S
C2725 H2737 0.942 . S
C2726 C2722 1.524 . S
C2726 H2738 0.956 . S
C2726 H2739 0.961 . S
C2726 H2740 0.961 . S
C2727 C2724 1.539 1_655 S
C2727 H2741 0.958 1_655 S
C2727 H2742 0.961 . S
C2727 H2743 0.960 . S
H2728 C2712 0.931 . S
H2729 C2717 0.929 . S
H2730 C2718 0.960 . S
H2731 C2718 0.962 . S
H2732 C2718 0.960 . S
H2733 C2719 0.961 . S
H2734 C2719 0.961 . S
H2735 C2719 0.961 . S
H2736 C2720 0.931 . S
H2737 C2725 0.942 . S
H2738 C2726 0.956 . S
H2739 C2726 0.961 . S
H2740 C2726 0.961 . S
H2741 C2727 0.958 1_455 S
H2742 C2727 0.961 . S
H2743 C2727 0.960 . S
C2744 C2745 1.391 . S
C2744 C2746 1.394 . S
C2744 H2760 0.931 . S
C2745 C2744 1.391 . S
C2745 C2749 1.376 . S
C2746 C2744 1.394 . S
C2746 C2747 1.369 . S
C2746 C2750 1.531 . S
C2747 C2746 1.369 . S
C2747 C2748 1.410 . S
C2747 C2755 1.503 . S
C2748 C2747 1.410 . S
C2748 C2749 1.392 . S
C2748 C2751 1.511 . S
C2749 C2745 1.376 . S
C2749 C2748 1.392 . S
C2749 H2761 0.929 . S
C2750 C2746 1.531 . S
C2750 H2762 0.960 . S
C2750 H2763 0.962 . S
C2750 H2764 0.960 . S
C2751 C2748 1.511 . S
C2751 H2765 0.961 . S
C2751 H2766 0.961 . S
C2751 H2767 0.961 . S
C2752 C2753 1.370 . S
C2752 C2754 1.363 . S
C2752 H2768 0.931 . S
C2753 C2752 1.370 . S
C2753 C2757 1.408 . S
C2754 C2752 1.363 . S
C2754 C2755 1.370 . S
C2754 C2758 1.524 . S
C2755 C2747 1.503 . S
C2755 C2754 1.370 . S
C2755 C2756 1.403 . S
C2756 C2755 1.403 . S
C2756 C2757 1.404 . S
C2756 C2759 1.539 . S
C2757 C2753 1.408 . S
C2757 C2756 1.404 . S
C2757 H2769 0.930 . S
C2758 C2754 1.524 . S
C2758 H2770 0.956 . S
C2758 H2771 0.961 . S
C2758 H2772 0.961 . S
C2759 C2756 1.539 . S
C2759 H2773 0.958 . S
C2759 H2774 0.961 . S
C2759 H2775 0.960 . S
H2760 C2744 0.931 . S
H2761 C2749 0.929 . S
H2762 C2750 0.960 . S
H2763 C2750 0.962 . S
H2764 C2750 0.960 . S
H2765 C2751 0.961 . S
H2766 C2751 0.961 . S
H2767 C2751 0.961 . S
H2768 C2752 0.931 . S
H2769 C2757 0.930 . S
H2770 C2758 0.956 . S
H2771 C2758 0.961 . S
H2772 C2758 0.961 . S
H2773 C2759 0.958 . S
H2774 C2759 0.961 . S
H2775 C2759 0.960 . S
C2776 C2777 1.391 . S
C2776 C2778 1.394 . S
C2776 H2792 0.931 . S
C2777 C2776 1.391 . S
C2777 C2781 1.376 . S
C2778 C2776 1.394 . S
C2778 C2779 1.369 . S
C2778 C2782 1.531 . S
C2779 C2778 1.369 . S
C2779 C2780 1.410 . S
C2779 C2787 1.503 . S
C2780 C2779 1.410 . S
C2780 C2781 1.392 . S
C2780 C2783 1.511 . S
C2781 C2777 1.376 . S
C2781 C2780 1.392 . S
C2781 H2793 0.929 . S
C2782 C2778 1.531 . S
C2782 H2794 0.960 1_565 S
C2782 H2795 0.962 . S
C2782 H2796 0.960 . S
C2783 C2780 1.511 . S
C2783 H2797 0.961 . S
C2783 H2798 0.961 . S
C2783 H2799 0.961 1_565 S
C2784 C2785 1.370 . S
C2784 C2786 1.363 . S
C2784 H2800 0.931 . S
C2785 C2784 1.370 . S
C2785 C2789 1.408 1_565 S
C2786 C2784 1.363 . S
C2786 C2787 1.370 . S
C2786 C2790 1.524 . S
C2787 C2779 1.503 . S
C2787 C2786 1.370 . S
C2787 C2788 1.403 1_565 S
C2788 C2787 1.403 1_545 S
C2788 C2789 1.404 . S
C2788 C2791 1.539 . S
C2789 C2785 1.408 1_545 S
C2789 C2788 1.404 . S
C2789 H2801 0.930 . S
C2790 C2786 1.524 . S
C2790 H2802 0.956 . S
C2790 H2803 0.961 . S
C2790 H2804 0.961 . S
C2791 C2788 1.539 . S
C2791 H2805 0.958 . S
C2791 H2806 0.961 . S
C2791 H2807 0.960 . S
H2792 C2776 0.931 . S
H2793 C2781 0.929 . S
H2794 C2782 0.960 1_545 S
H2795 C2782 0.962 . S
H2796 C2782 0.960 . S
H2797 C2783 0.961 . S
H2798 C2783 0.961 . S
H2799 C2783 0.961 1_545 S
H2800 C2784 0.931 . S
H2801 C2789 0.930 . S
H2802 C2790 0.956 . S
H2803 C2790 0.961 . S
H2804 C2790 0.961 . S
H2805 C2791 0.958 . S
H2806 C2791 0.961 . S
H2807 C2791 0.960 . S
C2808 C2809 1.391 . S
C2808 C2810 1.395 . S
C2808 H2824 0.931 1_565 S
C2809 C2808 1.391 . S
C2809 C2813 1.376 . S
C2810 C2808 1.395 . S
C2810 C2811 1.369 . S
C2810 C2814 1.529 1_565 S
C2811 C2810 1.369 . S
C2811 C2812 1.410 . S
C2811 C2819 1.503 . S
C2812 C2811 1.410 . S
C2812 C2813 1.392 . S
C2812 C2815 1.511 . S
C2813 C2809 1.376 . S
C2813 C2812 1.392 . S
C2813 H2825 0.929 . S
C2814 C2810 1.529 1_545 S
C2814 H2826 0.960 . S
C2814 H2827 0.962 . S
C2814 H2828 0.960 . S
C2815 C2812 1.511 . S
C2815 H2829 0.961 . S
C2815 H2830 0.961 . S
C2815 H2831 0.961 . S
C2816 C2817 1.370 1_545 S
C2816 C2818 1.363 1_545 S
C2816 H2832 0.931 . S
C2817 C2816 1.370 1_565 S
C2817 C2821 1.408 . S
C2818 C2816 1.363 1_565 S
C2818 C2819 1.370 . S
C2818 C2822 1.524 1_565 S
C2819 C2811 1.503 . S
C2819 C2818 1.370 . S
C2819 C2820 1.403 . S
C2820 C2819 1.403 . S
C2820 C2821 1.404 . S
C2820 C2823 1.539 . S
C2821 C2817 1.408 . S
C2821 C2820 1.404 . S
C2821 H2833 0.930 . S
C2822 C2818 1.524 1_545 S
C2822 H2834 0.956 . S
C2822 H2835 0.961 1_545 S
C2822 H2836 0.961 . S
C2823 C2820 1.539 . S
C2823 H2837 0.958 . S
C2823 H2838 0.961 . S
C2823 H2839 0.960 . S
H2824 C2808 0.931 1_545 S
H2825 C2813 0.929 . S
H2826 C2814 0.960 . S
H2827 C2814 0.962 . S
H2828 C2814 0.960 . S
H2829 C2815 0.961 . S
H2830 C2815 0.961 . S
H2831 C2815 0.961 . S
H2832 C2816 0.931 . S
H2833 C2821 0.930 . S
H2834 C2822 0.956 . S
H2835 C2822 0.961 1_565 S
H2836 C2822 0.961 . S
H2837 C2823 0.958 . S
H2838 C2823 0.961 . S
H2839 C2823 0.960 . S
C2840 C2841 1.391 . S
C2840 C2842 1.394 . S
C2840 H2856 0.931 . S
C2841 C2840 1.391 . S
C2841 C2845 1.378 . S
C2842 C2840 1.394 . S
C2842 C2843 1.369 . S
C2842 C2846 1.531 . S
C2843 C2842 1.369 . S
C2843 C2844 1.410 1_455 S
C2843 C2851 1.503 . S
C2844 C2843 1.410 1_655 S
C2844 C2845 1.393 1_655 S
C2844 C2847 1.511 . S
C2845 C2841 1.378 . S
C2845 C2844 1.393 1_455 S
C2845 H2857 0.926 1_455 S
C2846 C2842 1.531 . S
C2846 H2858 0.960 . S
C2846 H2859 0.962 . S
C2846 H2860 0.960 . S
C2847 C2844 1.511 . S
C2847 H2861 0.961 . S
C2847 H2862 0.961 . S
C2847 H2863 0.961 . S
C2848 C2849 1.370 . S
C2848 C2850 1.363 . S
C2848 H2864 0.931 . S
C2849 C2848 1.370 . S
C2849 C2853 1.408 1_455 S
C2850 C2848 1.363 . S
C2850 C2851 1.370 . S
C2850 C2854 1.524 . S
C2851 C2843 1.503 . S
C2851 C2850 1.370 . S
C2851 C2852 1.402 . S
C2852 C2851 1.402 . S
C2852 C2853 1.405 1_455 S
C2852 C2855 1.538 1_455 S
C2853 C2849 1.408 1_655 S
C2853 C2852 1.405 1_655 S
C2853 H2865 0.930 . S
C2854 C2850 1.524 . S
C2854 H2866 0.956 . S
C2854 H2867 0.961 . S
C2854 H2868 0.961 . S
C2855 C2852 1.538 1_655 S
C2855 H2869 0.958 1_655 S
C2855 H2870 0.961 . S
C2855 H2871 0.960 . S
H2856 C2840 0.931 . S
H2857 C2845 0.926 1_655 S
H2858 C2846 0.960 . S
H2859 C2846 0.962 . S
H2860 C2846 0.960 . S
H2861 C2847 0.961 . S
H2862 C2847 0.961 . S
H2863 C2847 0.961 . S
H2864 C2848 0.931 . S
H2865 C2853 0.930 . S
H2866 C2854 0.956 . S
H2867 C2854 0.961 . S
H2868 C2854 0.961 . S
H2869 C2855 0.958 1_455 S
H2870 C2855 0.961 . S
H2871 C2855 0.960 . S
C2872 C2873 1.391 . S
C2872 C2874 1.394 . S
C2872 H2888 0.931 . S
C2873 C2872 1.391 . S
C2873 C2877 1.376 . S
C2874 C2872 1.394 . S
C2874 C2875 1.369 . S
C2874 C2878 1.531 . S
C2875 C2874 1.369 . S
C2875 C2876 1.410 . S
C2875 C2883 1.503 . S
C2876 C2875 1.410 . S
C2876 C2877 1.392 . S
C2876 C2879 1.511 . S
C2877 C2873 1.376 . S
C2877 C2876 1.392 . S
C2877 H2889 0.929 . S
C2878 C2874 1.531 . S
C2878 H2890 0.960 . S
C2878 H2891 0.962 . S
C2878 H2892 0.960 . S
C2879 C2876 1.511 . S
C2879 H2893 0.961 . S
C2879 H2894 0.961 . S
C2879 H2895 0.961 . S
C2880 C2881 1.370 . S
C2880 C2882 1.363 . S
C2880 H2896 0.931 . S
C2881 C2880 1.370 . S
C2881 C2885 1.408 . S
C2882 C2880 1.363 . S
C2882 C2883 1.370 . S
C2882 C2886 1.524 . S
C2883 C2875 1.503 . S
C2883 C2882 1.370 . S
C2883 C2884 1.403 . S
C2884 C2883 1.403 . S
C2884 C2885 1.404 . S
C2884 C2887 1.539 . S
C2885 C2881 1.408 . S
C2885 C2884 1.404 . S
C2885 H2897 0.930 . S
C2886 C2882 1.524 . S
C2886 H2898 0.956 . S
C2886 H2899 0.961 . S
C2886 H2900 0.961 . S
C2887 C2884 1.539 . S
C2887 H2901 0.958 . S
C2887 H2902 0.961 . S
C2887 H2903 0.960 . S
H2888 C2872 0.931 . S
H2889 C2877 0.929 . S
H2890 C2878 0.960 . S
H2891 C2878 0.962 . S
H2892 C2878 0.960 . S
H2893 C2879 0.961 . S
H2894 C2879 0.961 . S
H2895 C2879 0.961 . S
H2896 C2880 0.931 . S
H2897 C2885 0.930 . S
H2898 C2886 0.956 . S
H2899 C2886 0.961 . S
H2900 C2886 0.961 . S
H2901 C2887 0.958 . S
H2902 C2887 0.961 . S
H2903 C2887 0.960 . S
C2904 C2905 1.391 . S
C2904 C2906 1.394 . S
C2904 H2920 0.931 . S
C2905 C2904 1.391 . S
C2905 C2909 1.376 . S
C2906 C2904 1.394 . S
C2906 C2907 1.369 . S
C2906 C2910 1.531 . S
C2907 C2906 1.369 . S
C2907 C2908 1.410 . S
C2907 C2915 1.503 . S
C2908 C2907 1.410 . S
C2908 C2909 1.392 . S
C2908 C2911 1.511 . S
C2909 C2905 1.376 . S
C2909 C2908 1.392 . S
C2909 H2921 0.929 . S
C2910 C2906 1.531 . S
C2910 H2922 0.960 . S
C2910 H2923 0.962 . S
C2910 H2924 0.960 . S
C2911 C2908 1.511 . S
C2911 H2925 0.961 . S
C2911 H2926 0.961 . S
C2911 H2927 0.961 . S
C2912 C2913 1.370 . S
C2912 C2914 1.363 . S
C2912 H2928 0.931 . S
C2913 C2912 1.370 . S
C2913 C2917 1.408 . S
C2914 C2912 1.363 . S
C2914 C2915 1.370 . S
C2914 C2918 1.524 . S
C2915 C2907 1.503 . S
C2915 C2914 1.370 . S
C2915 C2916 1.403 . S
C2916 C2915 1.403 . S
C2916 C2917 1.404 . S
C2916 C2919 1.539 . S
C2917 C2913 1.408 . S
C2917 C2916 1.404 . S
C2917 H2929 0.930 . S
C2918 C2914 1.524 . S
C2918 H2930 0.956 . S
C2918 H2931 0.961 . S
C2918 H2932 0.961 . S
C2919 C2916 1.539 . S
C2919 H2933 0.958 . S
C2919 H2934 0.961 . S
C2919 H2935 0.960 . S
H2920 C2904 0.931 . S
H2921 C2909 0.929 . S
H2922 C2910 0.960 . S
H2923 C2910 0.962 . S
H2924 C2910 0.960 . S
H2925 C2911 0.961 . S
H2926 C2911 0.961 . S
H2927 C2911 0.961 . S
H2928 C2912 0.931 . S
H2929 C2917 0.930 . S
H2930 C2918 0.956 . S
H2931 C2918 0.961 . S
H2932 C2918 0.961 . S
H2933 C2919 0.958 . S
H2934 C2919 0.961 . S
H2935 C2919 0.960 . S
C2936 C2937 1.391 . S
C2936 C2938 1.394 . S
C2936 H2952 0.931 . S
C2937 C2936 1.391 . S
C2937 C2941 1.376 . S
C2938 C2936 1.394 . S
C2938 C2939 1.369 . S
C2938 C2942 1.531 . S
C2939 C2938 1.369 . S
C2939 C2940 1.410 . S
C2939 C2947 1.503 . S
C2940 C2939 1.410 . S
C2940 C2941 1.392 . S
C2940 C2943 1.511 . S
C2941 C2937 1.376 . S
C2941 C2940 1.392 . S
C2941 H2953 0.929 . S
C2942 C2938 1.531 . S
C2942 H2954 0.960 . S
C2942 H2955 0.962 . S
C2942 H2956 0.960 . S
C2943 C2940 1.511 . S
C2943 H2957 0.961 . S
C2943 H2958 0.961 . S
C2943 H2959 0.961 . S
C2944 C2945 1.370 . S
C2944 C2946 1.363 . S
C2944 H2960 0.931 . S
C2945 C2944 1.370 . S
C2945 C2949 1.408 . S
C2946 C2944 1.363 . S
C2946 C2947 1.370 . S
C2946 C2950 1.524 . S
C2947 C2939 1.503 . S
C2947 C2946 1.370 . S
C2947 C2948 1.403 . S
C2948 C2947 1.403 . S
C2948 C2949 1.404 . S
C2948 C2951 1.539 . S
C2949 C2945 1.408 . S
C2949 C2948 1.404 . S
C2949 H2961 0.930 . S
C2950 C2946 1.524 . S
C2950 H2962 0.956 . S
C2950 H2963 0.961 . S
C2950 H2964 0.961 . S
C2951 C2948 1.539 . S
C2951 H2965 0.958 . S
C2951 H2966 0.961 . S
C2951 H2967 0.960 . S
H2952 C2936 0.931 . S
H2953 C2941 0.929 . S
H2954 C2942 0.960 . S
H2955 C2942 0.962 . S
H2956 C2942 0.960 . S
H2957 C2943 0.961 . S
H2958 C2943 0.961 . S
H2959 C2943 0.961 . S
H2960 C2944 0.931 . S
H2961 C2949 0.930 . S
H2962 C2950 0.956 . S
H2963 C2950 0.961 . S
H2964 C2950 0.961 . S
H2965 C2951 0.958 . S
H2966 C2951 0.961 . S
H2967 C2951 0.960 . S
C2968 C2969 1.391 . S
C2968 C2970 1.394 . S
C2968 H2984 0.931 . S
C2969 C2968 1.391 . S
C2969 C2973 1.376 . S
C2970 C2968 1.394 . S
C2970 C2971 1.369 . S
C2970 C2974 1.531 . S
C2971 C2970 1.369 . S
C2971 C2972 1.410 . S
C2971 C2979 1.503 . S
C2972 C2971 1.410 . S
C2972 C2973 1.392 . S
C2972 C2975 1.511 . S
C2973 C2969 1.376 . S
C2973 C2972 1.392 . S
C2973 H2985 0.929 . S
C2974 C2970 1.531 . S
C2974 H2986 0.960 . S
C2974 H2987 0.962 . S
C2974 H2988 0.960 . S
C2975 C2972 1.511 . S
C2975 H2989 0.961 . S
C2975 H2990 0.961 . S
C2975 H2991 0.961 . S
C2976 C2977 1.370 . S
C2976 C2978 1.363 . S
C2976 H2992 0.931 . S
C2977 C2976 1.370 . S
C2977 C2981 1.408 . S
C2978 C2976 1.363 . S
C2978 C2979 1.370 . S
C2978 C2982 1.524 . S
C2979 C2971 1.503 . S
C2979 C2978 1.370 . S
C2979 C2980 1.403 . S
C2980 C2979 1.403 . S
C2980 C2981 1.404 . S
C2980 C2983 1.539 . S
C2981 C2977 1.408 . S
C2981 C2980 1.404 . S
C2981 H2993 0.930 . S
C2982 C2978 1.524 . S
C2982 H2994 0.956 . S
C2982 H2995 0.961 . S
C2982 H2996 0.961 . S
C2983 C2980 1.539 . S
C2983 H2997 0.958 . S
C2983 H2998 0.961 . S
C2983 H2999 0.960 . S
H2984 C2968 0.931 . S
H2985 C2973 0.929 . S
H2986 C2974 0.960 . S
H2987 C2974 0.962 . S
H2988 C2974 0.960 . S
H2989 C2975 0.961 . S
H2990 C2975 0.961 . S
H2991 C2975 0.961 . S
H2992 C2976 0.931 . S
H2993 C2981 0.930 . S
H2994 C2982 0.956 . S
H2995 C2982 0.961 . S
H2996 C2982 0.961 . S
H2997 C2983 0.958 . S
H2998 C2983 0.961 . S
H2999 C2983 0.960 . S
C3000 C3001 1.391 . S
C3000 C3002 1.394 . S
C3000 H3016 0.931 . S
C3001 C3000 1.391 . S
C3001 C3005 1.376 . S
C3002 C3000 1.394 . S
C3002 C3003 1.369 . S
C3002 C3006 1.531 . S
C3003 C3002 1.369 . S
C3003 C3004 1.410 . S
C3003 C3011 1.503 . S
C3004 C3003 1.410 . S
C3004 C3005 1.392 . S
C3004 C3007 1.511 1_545 S
C3005 C3001 1.376 . S
C3005 C3004 1.392 . S
C3005 H3017 0.926 1_545 S
C3006 C3002 1.531 . S
C3006 H3018 0.960 . S
C3006 H3019 0.962 . S
C3006 H3020 0.960 . S
C3007 C3004 1.511 1_565 S
C3007 H3021 0.961 . S
C3007 H3022 0.961 . S
C3007 H3023 0.961 . S
C3008 C3009 1.370 1_565 S
C3008 C3010 1.363 . S
C3008 H3024 0.931 . S
C3009 C3008 1.370 1_545 S
C3009 C3013 1.408 . S
C3010 C3008 1.363 . S
C3010 C3011 1.370 1_565 S
C3010 C3014 1.524 . S
C3011 C3003 1.503 . S
C3011 C3010 1.370 1_545 S
C3011 C3012 1.403 . S
C3012 C3011 1.403 . S
C3012 C3013 1.404 . S
C3012 C3015 1.539 . S
C3013 C3009 1.408 . S
C3013 C3012 1.404 . S
C3013 H3025 0.930 . S
C3014 C3010 1.524 . S
C3014 H3026 0.956 . S
C3014 H3027 0.961 . S
C3014 H3028 0.961 . S
C3015 C3012 1.539 . S
C3015 H3029 0.958 . S
C3015 H3030 0.961 . S
C3015 H3031 0.960 . S
H3016 C3000 0.931 . S
H3017 C3005 0.926 1_565 S
H3018 C3006 0.960 . S
H3019 C3006 0.962 . S
H3020 C3006 0.960 . S
H3021 C3007 0.961 . S
H3022 C3007 0.961 . S
H3023 C3007 0.961 . S
H3024 C3008 0.931 . S
H3025 C3013 0.930 . S
H3026 C3014 0.956 . S
H3027 C3014 0.961 . S
H3028 C3014 0.961 . S
H3029 C3015 0.958 . S
H3030 C3015 0.961 . S
H3031 C3015 0.960 . S
C3032 C3033 1.391 1_455 S
C3032 C3034 1.394 . S
C3032 H3048 0.931 . S
C3033 C3032 1.391 1_655 S
C3033 C3037 1.376 . S
C3034 C3032 1.394 . S
C3034 C3035 1.369 1_455 S
C3034 C3038 1.531 . S
C3035 C3034 1.369 1_655 S
C3035 C3036 1.410 . S
C3035 C3043 1.503 . S
C3036 C3035 1.410 . S
C3036 C3037 1.392 . S
C3036 C3039 1.511 . S
C3037 C3033 1.376 . S
C3037 C3036 1.392 . S
C3037 H3049 0.929 . S
C3038 C3034 1.531 . S
C3038 H3050 0.960 . S
C3038 H3051 0.962 . S
C3038 H3052 0.960 . S
C3039 C3036 1.511 . S
C3039 H3053 0.961 . S
C3039 H3054 0.961 . S
C3039 H3055 0.961 . S
C3040 C3041 1.370 . S
C3040 C3042 1.363 . S
C3040 H3056 0.931 . S
C3041 C3040 1.370 . S
C3041 C3045 1.408 1_655 S
C3042 C3040 1.363 . S
C3042 C3043 1.370 . S
C3042 C3046 1.524 . S
C3043 C3035 1.503 . S
C3043 C3042 1.370 . S
C3043 C3044 1.403 1_655 S
C3044 C3043 1.403 1_455 S
C3044 C3045 1.404 . S
C3044 C3047 1.539 . S
C3045 C3041 1.408 1_455 S
C3045 C3044 1.404 . S
C3045 H3057 0.930 . S
C3046 C3042 1.524 . S
C3046 H3058 0.956 . S
C3046 H3059 0.961 . S
C3046 H3060 0.961 . S
C3047 C3044 1.539 . S
C3047 H3061 0.958 . S
C3047 H3062 0.961 . S
C3047 H3063 0.960 . S
H3048 C3032 0.931 . S
H3049 C3037 0.929 . S
H3050 C3038 0.960 . S
H3051 C3038 0.962 . S
H3052 C3038 0.960 . S
H3053 C3039 0.961 . S
H3054 C3039 0.961 . S
H3055 C3039 0.961 . S
H3056 C3040 0.931 . S
H3057 C3045 0.930 . S
H3058 C3046 0.956 . S
H3059 C3046 0.961 . S
H3060 C3046 0.961 . S
H3061 C3047 0.958 . S
H3062 C3047 0.961 . S
H3063 C3047 0.960 . S
C3064 C3065 1.391 . S
C3064 C3066 1.394 . S
C3064 H3080 0.931 . S
C3065 C3064 1.391 . S
C3065 C3069 1.376 . S
C3066 C3064 1.394 . S
C3066 C3067 1.369 . S
C3066 C3070 1.531 . S
C3067 C3066 1.369 . S
C3067 C3068 1.410 . S
C3067 C3075 1.503 . S
C3068 C3067 1.410 . S
C3068 C3069 1.392 . S
C3068 C3071 1.511 . S
C3069 C3065 1.376 . S
C3069 C3068 1.392 . S
C3069 H3081 0.929 . S
C3070 C3066 1.531 . S
C3070 H3082 0.960 . S
C3070 H3083 0.962 . S
C3070 H3084 0.960 . S
C3071 C3068 1.511 . S
C3071 H3085 0.961 . S
C3071 H3086 0.961 . S
C3071 H3087 0.961 . S
C3072 C3073 1.370 . S
C3072 C3074 1.363 . S
C3072 H3088 0.931 . S
C3073 C3072 1.370 . S
C3073 C3077 1.408 . S
C3074 C3072 1.363 . S
C3074 C3075 1.370 . S
C3074 C3078 1.524 . S
C3075 C3067 1.503 . S
C3075 C3074 1.370 . S
C3075 C3076 1.403 . S
C3076 C3075 1.403 . S
C3076 C3077 1.404 . S
C3076 C3079 1.539 . S
C3077 C3073 1.408 . S
C3077 C3076 1.404 . S
C3077 H3089 0.930 . S
C3078 C3074 1.524 . S
C3078 H3090 0.956 . S
C3078 H3091 0.961 . S
C3078 H3092 0.961 . S
C3079 C3076 1.539 . S
C3079 H3093 0.958 . S
C3079 H3094 0.961 . S
C3079 H3095 0.960 . S
H3080 C3064 0.931 . S
H3081 C3069 0.929 . S
H3082 C3070 0.960 . S
H3083 C3070 0.962 . S
H3084 C3070 0.960 . S
H3085 C3071 0.961 . S
H3086 C3071 0.961 . S
H3087 C3071 0.961 . S
H3088 C3072 0.931 . S
H3089 C3077 0.930 . S
H3090 C3078 0.956 . S
H3091 C3078 0.961 . S
H3092 C3078 0.961 . S
H3093 C3079 0.958 . S
H3094 C3079 0.961 . S
H3095 C3079 0.960 . S
C3096 C3097 1.391 . S
C3096 C3098 1.394 . S
C3096 H3112 0.931 . S
C3097 C3096 1.391 . S
C3097 C3101 1.376 . S
C3098 C3096 1.394 . S
C3098 C3099 1.369 . S
C3098 C3102 1.531 . S
C3099 C3098 1.369 . S
C3099 C3100 1.410 . S
C3099 C3107 1.503 . S
C3100 C3099 1.410 . S
C3100 C3101 1.392 . S
C3100 C3103 1.511 . S
C3101 C3097 1.376 . S
C3101 C3100 1.392 . S
C3101 H3113 0.929 . S
C3102 C3098 1.531 . S
C3102 H3114 0.960 . S
C3102 H3115 0.962 . S
C3102 H3116 0.960 . S
C3103 C3100 1.511 . S
C3103 H3117 0.961 . S
C3103 H3118 0.961 . S
C3103 H3119 0.961 . S
C3104 C3105 1.370 . S
C3104 C3106 1.363 . S
C3104 H3120 0.931 . S
C3105 C3104 1.370 . S
C3105 C3109 1.408 . S
C3106 C3104 1.363 . S
C3106 C3107 1.370 . S
C3106 C3110 1.524 . S
C3107 C3099 1.503 . S
C3107 C3106 1.370 . S
C3107 C3108 1.403 . S
C3108 C3107 1.403 . S
C3108 C3109 1.404 . S
C3108 C3111 1.539 . S
C3109 C3105 1.408 . S
C3109 C3108 1.404 . S
C3109 H3121 0.930 . S
C3110 C3106 1.524 . S
C3110 H3122 0.956 . S
C3110 H3123 0.961 . S
C3110 H3124 0.961 . S
C3111 C3108 1.539 . S
C3111 H3125 0.958 . S
C3111 H3126 0.961 . S
C3111 H3127 0.960 . S
H3112 C3096 0.931 . S
H3113 C3101 0.929 . S
H3114 C3102 0.960 . S
H3115 C3102 0.962 . S
H3116 C3102 0.960 . S
H3117 C3103 0.961 . S
H3118 C3103 0.961 . S
H3119 C3103 0.961 . S
H3120 C3104 0.931 . S
H3121 C3109 0.930 . S
H3122 C3110 0.956 . S
H3123 C3110 0.961 . S
H3124 C3110 0.961 . S
H3125 C3111 0.958 . S
H3126 C3111 0.961 . S
H3127 C3111 0.960 . S
C3128 C3129 1.391 . S
C3128 C3130 1.394 . S
C3128 H3144 0.931 . S
C3129 C3128 1.391 . S
C3129 C3133 1.376 . S
C3130 C3128 1.394 . S
C3130 C3131 1.369 . S
C3130 C3134 1.531 . S
C3131 C3130 1.369 . S
C3131 C3132 1.410 . S
C3131 C3139 1.503 . S
C3132 C3131 1.410 . S
C3132 C3133 1.392 . S
C3132 C3135 1.511 . S
C3133 C3129 1.376 . S
C3133 C3132 1.392 . S
C3133 H3145 0.929 . S
C3134 C3130 1.531 . S
C3134 H3146 0.960 . S
C3134 H3147 0.962 . S
C3134 H3148 0.960 . S
C3135 C3132 1.511 . S
C3135 H3149 0.961 . S
C3135 H3150 0.961 . S
C3135 H3151 0.961 . S
C3136 C3137 1.370 . S
C3136 C3138 1.363 . S
C3136 H3152 0.931 . S
C3137 C3136 1.370 . S
C3137 C3141 1.408 . S
C3138 C3136 1.363 . S
C3138 C3139 1.370 . S
C3138 C3142 1.524 . S
C3139 C3131 1.503 . S
C3139 C3138 1.370 . S
C3139 C3140 1.403 . S
C3140 C3139 1.403 . S
C3140 C3141 1.404 . S
C3140 C3143 1.539 . S
C3141 C3137 1.408 . S
C3141 C3140 1.404 . S
C3141 H3153 0.930 . S
C3142 C3138 1.524 . S
C3142 H3154 0.956 . S
C3142 H3155 0.961 . S
C3142 H3156 0.961 . S
C3143 C3140 1.539 . S
C3143 H3157 0.958 . S
C3143 H3158 0.961 . S
C3143 H3159 0.960 . S
H3144 C3128 0.931 . S
H3145 C3133 0.929 . S
H3146 C3134 0.960 . S
H3147 C3134 0.962 . S
H3148 C3134 0.960 . S
H3149 C3135 0.961 . S
H3150 C3135 0.961 . S
H3151 C3135 0.961 . S
H3152 C3136 0.931 . S
H3153 C3141 0.930 . S
H3154 C3142 0.956 . S
H3155 C3142 0.961 . S
H3156 C3142 0.961 . S
H3157 C3143 0.958 . S
H3158 C3143 0.961 . S
H3159 C3143 0.960 . S
C3160 C3161 1.391 . S
C3160 C3162 1.394 . S
C3160 H3176 0.931 . S
C3161 C3160 1.391 . S
C3161 C3165 1.376 . S
C3162 C3160 1.394 . S
C3162 C3163 1.369 . S
C3162 C3166 1.531 . S
C3163 C3162 1.369 . S
C3163 C3164 1.410 . S
C3163 C3171 1.503 . S
C3164 C3163 1.410 . S
C3164 C3165 1.392 . S
C3164 C3167 1.511 . S
C3165 C3161 1.376 . S
C3165 C3164 1.392 . S
C3165 H3177 0.929 . S
C3166 C3162 1.531 . S
C3166 H3178 0.960 . S
C3166 H3179 0.962 . S
C3166 H3180 0.960 . S
C3167 C3164 1.511 . S
C3167 H3181 0.961 . S
C3167 H3182 0.961 . S
C3167 H3183 0.961 . S
C3168 C3169 1.370 . S
C3168 C3170 1.363 . S
C3168 H3184 0.931 . S
C3169 C3168 1.370 . S
C3169 C3173 1.408 . S
C3170 C3168 1.363 . S
C3170 C3171 1.370 . S
C3170 C3174 1.524 . S
C3171 C3163 1.503 . S
C3171 C3170 1.370 . S
C3171 C3172 1.403 . S
C3172 C3171 1.403 . S
C3172 C3173 1.404 . S
C3172 C3175 1.539 . S
C3173 C3169 1.408 . S
C3173 C3172 1.404 . S
C3173 H3185 0.930 . S
C3174 C3170 1.524 . S
C3174 H3186 0.956 . S
C3174 H3187 0.961 . S
C3174 H3188 0.961 . S
C3175 C3172 1.539 . S
C3175 H3189 0.958 . S
C3175 H3190 0.961 . S
C3175 H3191 0.960 . S
H3176 C3160 0.931 . S
H3177 C3165 0.929 . S
H3178 C3166 0.960 . S
H3179 C3166 0.962 . S
H3180 C3166 0.960 . S
H3181 C3167 0.961 . S
H3182 C3167 0.961 . S
H3183 C3167 0.961 . S
H3184 C3168 0.931 . S
H3185 C3173 0.930 . S
H3186 C3174 0.956 . S
H3187 C3174 0.961 . S
H3188 C3174 0.961 . S
H3189 C3175 0.958 . S
H3190 C3175 0.961 . S
H3191 C3175 0.960 . S
C3192 C3193 1.391 . S
C3192 C3194 1.394 . S
C3192 H3208 0.931 . S
C3193 C3192 1.391 . S
C3193 C3197 1.376 . S
C3194 C3192 1.394 . S
C3194 C3195 1.369 . S
C3194 C3198 1.531 . S
C3195 C3194 1.369 . S
C3195 C3196 1.410 . S
C3195 C3203 1.503 . S
C3196 C3195 1.410 . S
C3196 C3197 1.392 . S
C3196 C3199 1.511 . S
C3197 C3193 1.376 . S
C3197 C3196 1.392 . S
C3197 H3209 0.929 . S
C3198 C3194 1.531 . S
C3198 H3210 0.960 . S
C3198 H3211 0.962 . S
C3198 H3212 0.960 . S
C3199 C3196 1.511 . S
C3199 H3213 0.961 . S
C3199 H3214 0.961 . S
C3199 H3215 0.961 . S
C3200 C3201 1.370 . S
C3200 C3202 1.363 . S
C3200 H3216 0.931 . S
C3201 C3200 1.370 . S
C3201 C3205 1.408 . S
C3202 C3200 1.363 . S
C3202 C3203 1.370 . S
C3202 C3206 1.524 . S
C3203 C3195 1.503 . S
C3203 C3202 1.370 . S
C3203 C3204 1.403 . S
C3204 C3203 1.403 . S
C3204 C3205 1.404 . S
C3204 C3207 1.539 . S
C3205 C3201 1.408 . S
C3205 C3204 1.404 . S
C3205 H3217 0.930 . S
C3206 C3202 1.524 . S
C3206 H3218 0.956 . S
C3206 H3219 0.961 . S
C3206 H3220 0.961 . S
C3207 C3204 1.539 . S
C3207 H3221 0.958 . S
C3207 H3222 0.961 . S
C3207 H3223 0.960 . S
H3208 C3192 0.931 . S
H3209 C3197 0.929 . S
H3210 C3198 0.960 . S
H3211 C3198 0.962 . S
H3212 C3198 0.960 . S
H3213 C3199 0.961 . S
H3214 C3199 0.961 . S
H3215 C3199 0.961 . S
H3216 C3200 0.931 . S
H3217 C3205 0.930 . S
H3218 C3206 0.956 . S
H3219 C3206 0.961 . S
H3220 C3206 0.961 . S
H3221 C3207 0.958 . S
H3222 C3207 0.961 . S
H3223 C3207 0.960 . S
C3224 C3225 1.391 . S
C3224 C3226 1.394 . S
C3224 H3240 0.931 . S
C3225 C3224 1.391 . S
C3225 C3229 1.376 . S
C3226 C3224 1.394 . S
C3226 C3227 1.369 . S
C3226 C3230 1.531 . S
C3227 C3226 1.369 . S
C3227 C3228 1.410 . S
C3227 C3235 1.503 . S
C3228 C3227 1.410 . S
C3228 C3229 1.392 . S
C3228 C3231 1.511 . S
C3229 C3225 1.376 . S
C3229 C3228 1.392 . S
C3229 H3241 0.929 . S
C3230 C3226 1.531 . S
C3230 H3242 0.960 . S
C3230 H3243 0.962 . S
C3230 H3244 0.960 . S
C3231 C3228 1.511 . S
C3231 H3245 0.961 . S
C3231 H3246 0.961 . S
C3231 H3247 0.961 . S
C3232 C3233 1.370 . S
C3232 C3234 1.363 . S
C3232 H3248 0.931 . S
C3233 C3232 1.370 . S
C3233 C3237 1.408 . S
C3234 C3232 1.363 . S
C3234 C3235 1.370 . S
C3234 C3238 1.524 . S
C3235 C3227 1.503 . S
C3235 C3234 1.370 . S
C3235 C3236 1.403 . S
C3236 C3235 1.403 . S
C3236 C3237 1.404 . S
C3236 C3239 1.539 . S
C3237 C3233 1.408 . S
C3237 C3236 1.404 . S
C3237 H3249 0.930 . S
C3238 C3234 1.524 . S
C3238 H3250 0.956 . S
C3238 H3251 0.961 . S
C3238 H3252 0.961 . S
C3239 C3236 1.539 . S
C3239 H3253 0.958 . S
C3239 H3254 0.961 . S
C3239 H3255 0.960 . S
H3240 C3224 0.931 . S
H3241 C3229 0.929 . S
H3242 C3230 0.960 . S
H3243 C3230 0.962 . S
H3244 C3230 0.960 . S
H3245 C3231 0.961 . S
H3246 C3231 0.961 . S
H3247 C3231 0.961 . S
H3248 C3232 0.931 . S
H3249 C3237 0.930 . S
H3250 C3238 0.956 . S
H3251 C3238 0.961 . S
H3252 C3238 0.961 . S
H3253 C3239 0.958 . S
H3254 C3239 0.961 . S
H3255 C3239 0.960 . S
C3256 C3257 1.391 . S
C3256 C3258 1.394 . S
C3256 H3272 0.931 . S
C3257 C3256 1.391 . S
C3257 C3261 1.376 . S
C3258 C3256 1.394 . S
C3258 C3259 1.369 . S
C3258 C3262 1.531 . S
C3259 C3258 1.369 . S
C3259 C3260 1.410 . S
C3259 C3267 1.503 . S
C3260 C3259 1.410 . S
C3260 C3261 1.392 . S
C3260 C3263 1.511 . S
C3261 C3257 1.376 . S
C3261 C3260 1.392 . S
C3261 H3273 0.929 . S
C3262 C3258 1.531 . S
C3262 H3274 0.960 . S
C3262 H3275 0.962 . S
C3262 H3276 0.960 . S
C3263 C3260 1.511 . S
C3263 H3277 0.961 . S
C3263 H3278 0.961 . S
C3263 H3279 0.961 . S
C3264 C3265 1.370 . S
C3264 C3266 1.363 . S
C3264 H3280 0.931 . S
C3265 C3264 1.370 . S
C3265 C3269 1.408 . S
C3266 C3264 1.363 . S
C3266 C3267 1.370 . S
C3266 C3270 1.524 . S
C3267 C3259 1.503 . S
C3267 C3266 1.370 . S
C3267 C3268 1.403 . S
C3268 C3267 1.403 . S
C3268 C3269 1.404 . S
C3268 C3271 1.539 . S
C3269 C3265 1.408 . S
C3269 C3268 1.404 . S
C3269 H3281 0.930 . S
C3270 C3266 1.524 . S
C3270 H3282 0.956 . S
C3270 H3283 0.961 . S
C3270 H3284 0.961 . S
C3271 C3268 1.539 . S
C3271 H3285 0.958 . S
C3271 H3286 0.961 . S
C3271 H3287 0.960 . S
H3272 C3256 0.931 . S
H3273 C3261 0.929 . S
H3274 C3262 0.960 . S
H3275 C3262 0.962 . S
H3276 C3262 0.960 . S
H3277 C3263 0.961 . S
H3278 C3263 0.961 . S
H3279 C3263 0.961 . S
H3280 C3264 0.931 . S
H3281 C3269 0.930 . S
H3282 C3270 0.956 . S
H3283 C3270 0.961 . S
H3284 C3270 0.961 . S
H3285 C3271 0.958 . S
H3286 C3271 0.961 . S
H3287 C3271 0.960 . S
C3288 C3289 1.391 . S
C3288 C3290 1.394 . S
C3288 H3304 0.931 . S
C3289 C3288 1.391 . S
C3289 C3293 1.376 . S
C3290 C3288 1.394 . S
C3290 C3291 1.369 . S
C3290 C3294 1.531 . S
C3291 C3290 1.369 . S
C3291 C3292 1.410 . S
C3291 C3299 1.503 . S
C3292 C3291 1.410 . S
C3292 C3293 1.392 . S
C3292 C3295 1.511 . S
C3293 C3289 1.376 . S
C3293 C3292 1.392 . S
C3293 H3305 0.929 . S
C3294 C3290 1.531 . S
C3294 H3306 0.960 . S
C3294 H3307 0.962 1_655 S
C3294 H3308 0.960 . S
C3295 C3292 1.511 . S
C3295 H3309 0.961 . S
C3295 H3310 0.961 . S
C3295 H3311 0.961 . S
C3296 C3297 1.370 1_455 S
C3296 C3298 1.363 . S
C3296 H3312 0.931 . S
C3297 C3296 1.370 1_655 S
C3297 C3301 1.408 . S
C3298 C3296 1.363 . S
C3298 C3299 1.370 1_455 S
C3298 C3302 1.524 . S
C3299 C3291 1.503 . S
C3299 C3298 1.370 1_655 S
C3299 C3300 1.403 . S
C3300 C3299 1.403 . S
C3300 C3301 1.404 . S
C3300 C3303 1.539 . S
C3301 C3297 1.408 . S
C3301 C3300 1.404 . S
C3301 H3313 0.930 . S
C3302 C3298 1.524 . S
C3302 H3314 0.956 . S
C3302 H3315 0.961 . S
C3302 H3316 0.961 . S
C3303 C3300 1.539 . S
C3303 H3317 0.958 . S
C3303 H3318 0.961 . S
C3303 H3319 0.960 . S
H3304 C3288 0.931 . S
H3305 C3293 0.929 . S
H3306 C3294 0.960 . S
H3307 C3294 0.962 1_455 S
H3308 C3294 0.960 . S
H3309 C3295 0.961 . S
H3310 C3295 0.961 . S
H3311 C3295 0.961 . S
H3312 C3296 0.931 . S
H3313 C3301 0.930 . S
H3314 C3302 0.956 . S
H3315 C3302 0.961 . S
H3316 C3302 0.961 . S
H3317 C3303 0.958 . S
H3318 C3303 0.961 . S
H3319 C3303 0.960 . S
C3320 C3321 1.391 . S
C3320 C3322 1.394 . S
C3320 H3336 0.931 . S
C3321 C3320 1.391 . S
C3321 C3325 1.376 . S
C3322 C3320 1.394 . S
C3322 C3323 1.369 . S
C3322 C3326 1.531 . S
C3323 C3322 1.369 . S
C3323 C3324 1.410 . S
C3323 C3331 1.503 . S
C3324 C3323 1.410 . S
C3324 C3325 1.392 . S
C3324 C3327 1.511 . S
C3325 C3321 1.376 . S
C3325 C3324 1.392 . S
C3325 H3337 0.929 . S
C3326 C3322 1.531 . S
C3326 H3338 0.960 . S
C3326 H3339 0.962 . S
C3326 H3340 0.960 . S
C3327 C3324 1.511 . S
C3327 H3341 0.961 . S
C3327 H3342 0.961 . S
C3327 H3343 0.961 . S
C3328 C3329 1.370 . S
C3328 C3330 1.363 . S
C3328 H3344 0.931 . S
C3329 C3328 1.370 . S
C3329 C3333 1.408 . S
C3330 C3328 1.363 . S
C3330 C3331 1.370 . S
C3330 C3334 1.524 . S
C3331 C3323 1.503 . S
C3331 C3330 1.370 . S
C3331 C3332 1.403 . S
C3332 C3331 1.403 . S
C3332 C3333 1.404 . S
C3332 C3335 1.539 . S
C3333 C3329 1.408 . S
C3333 C3332 1.404 . S
C3333 H3345 0.930 . S
C3334 C3330 1.524 . S
C3334 H3346 0.956 . S
C3334 H3347 0.961 . S
C3334 H3348 0.961 . S
C3335 C3332 1.539 . S
C3335 H3349 0.958 . S
C3335 H3350 0.961 . S
C3335 H3351 0.960 . S
H3336 C3320 0.931 . S
H3337 C3325 0.929 . S
H3338 C3326 0.960 . S
H3339 C3326 0.962 . S
H3340 C3326 0.960 . S
H3341 C3327 0.961 . S
H3342 C3327 0.961 . S
H3343 C3327 0.961 . S
H3344 C3328 0.931 . S
H3345 C3333 0.930 . S
H3346 C3334 0.956 . S
H3347 C3334 0.961 . S
H3348 C3334 0.961 . S
H3349 C3335 0.958 . S
H3350 C3335 0.961 . S
H3351 C3335 0.960 . S
C3352 C3353 1.391 . S
C3352 C3354 1.394 . S
C3352 H3368 0.988 . S
C3353 C3352 1.391 . S
C3353 C3357 1.376 . S
C3354 C3352 1.394 . S
C3354 C3355 1.369 . S
C3354 C3358 1.531 1_545 S
C3355 C3354 1.369 . S
C3355 C3356 1.410 . S
C3355 C3363 1.503 . S
C3356 C3355 1.410 . S
C3356 C3357 1.392 . S
C3356 C3359 1.511 . S
C3357 C3353 1.376 . S
C3357 C3356 1.392 . S
C3357 H3369 0.929 . S
C3358 C3354 1.531 1_565 S
C3358 H3370 0.945 1_565 S
C3358 H3371 0.962 . S
C3358 H3372 0.960 . S
C3359 C3356 1.511 . S
C3359 H3373 0.961 . S
C3359 H3374 0.961 . S
C3359 H3375 0.961 . S
C3360 C3361 1.370 1_565 S
C3360 C3362 1.363 . S
C3360 H3376 0.931 . S
C3361 C3360 1.370 1_545 S
C3361 C3365 1.408 . S
C3362 C3360 1.363 . S
C3362 C3363 1.370 1_565 S
C3362 C3366 1.524 . S
C3363 C3355 1.503 . S
C3363 C3362 1.370 1_545 S
C3363 C3364 1.403 . S
C3364 C3363 1.403 . S
C3364 C3365 1.404 . S
C3364 C3367 1.539 . S
C3365 C3361 1.408 . S
C3365 C3364 1.404 . S
C3365 H3377 0.930 . S
C3366 C3362 1.524 . S
C3366 H3378 0.956 . S
C3366 H3379 0.961 . S
C3366 H3380 0.961 . S
C3367 C3364 1.539 . S
C3367 H3381 0.958 . S
C3367 H3382 0.961 . S
C3367 H3383 0.960 . S
H3368 C3352 0.988 . S
H3369 C3357 0.929 . S
H3370 C3358 0.945 1_545 S
H3371 C3358 0.962 . S
H3372 C3358 0.960 . S
H3373 C3359 0.961 . S
H3374 C3359 0.961 . S
H3375 C3359 0.961 . S
H3376 C3360 0.931 . S
H3377 C3365 0.930 . S
H3378 C3366 0.956 . S
H3379 C3366 0.961 . S
H3380 C3366 0.961 . S
H3381 C3367 0.958 . S
H3382 C3367 0.961 . S
H3383 C3367 0.960 . S
C1081 C4 1.385 . S
C1089 C688 1.463 . S
C1113 C26 1.550 . S
C1121 C734 1.537 . S
C1153 C766 1.413 . S
C1145 C32 1.364 . S
C1177 C40 1.408 . S
C1185 C819 1.414 . S
C1209 C12 1.438 . S
C1217 C865 1.473 . S
C1241 C18 1.438 . S
C1249 C904 1.513 . S
C1273 C46 1.382 . S
C1281 C858 1.447 . S
C1313 C911 1.538 . S
C1305 C68 1.529 . S
C1345 C812 1.429 . S
C1337 C74 1.365 . S
C1369 C82 1.365 . S
C1377 C773 1.409 . S
C1409 C667 1.477 . S
C1401 C54 1.471 . S
C1433 C60 1.466 . S
C1441 C713 1.491 . S
C1465 C88 1.614 . S
C1473 C943 1.635 . S
C1497 C110 1.614 . S
C1505 C1010 1.589 . S
C1537 C1056 1.573 . S
C1529 C116 1.543 . S
C1561 C124 1.472 . S
C1569 C267 1.466 . S
C1593 C96 1.538 . S
C1601 C313 1.534 . S
C1625 C102 1.498 . S
C1633 C359 1.546 . S
C1657 C130 1.513 . S
C1665 C306 1.528 . S
C1689 C152 1.610 . S
C1697 C352 1.594 . S
C1729 C260 1.587 . S
C1721 C158 1.528 . S
C1761 C1035 1.538 . S
C1753 C166 1.541 . S
C1793 C964 1.525 . S
C1785 C138 1.520 . S
C1825 C989 1.585 . S
C1817 C144 1.562 . S
C1849 C172 1.540 . S
C1857 C391 1.555 . S
C1881 C194 1.598 . S
C1889 C444 1.592 . S
C1913 C200 1.576 . S
C1921 C490 1.592 . S
C1945 C208 1.547 . S
C1953 C536 1.542 . S
C1985 C589 1.533 . S
C1977 C180 1.533 . S
C2017 C635 1.566 . S
C2009 C186 1.564 . S
C2049 C582 1.640 . S
C2041 C214 1.584 . S
C2081 C628 1.588 . S
C2073 C236 1.610 . S
C2105 C242 1.507 . S
C2113 C543 1.573 . S
C2145 C497 1.467 . S
C2137 C250 1.466 . S
C2169 C222 1.543 . S
C2177 C412 1.551 . S
C2209 C451 1.559 . S
C2201 C228 1.496 . S
C2241 C274 1.545 . S
C2233 C5 1.276 . S
C2265 C25 1.449 . S
C2273 C320 1.441 . S
C2305 C366 1.576 . S
C2297 C33 1.319 . S
C2337 C398 1.437 . S
C2329 C39 1.426 . S
C2369 C437 1.492 . S
C2361 C11 1.533 . S
C2401 C483 1.424 . S
C2393 C19 1.288 . S
C2425 C47 1.302 1_556 S
C2433 C504 1.553 . S
C2457 C67 1.454 . S
C2465 C405 1.416 . S
C2489 C75 1.309 1_556 S
C2497 C458 1.562 . S
C2521 C81 1.469 . S
C2529 C299 1.459 . S
C2561 C345 1.484 . S
C2553 C53 1.493 . S
C2585 C61 1.280 . S
C2593 C253 1.426 . S
C2625 C529 1.455 . S
C2617 C89 1.310 . S
C2649 C109 1.560 . S
C2657 C596 1.540 . S
C2681 C117 1.355 . S
C2689 C642 1.547 . S
C2721 C681 1.232 . S
C2713 C123 1.203 . S
C2745 C95 1.436 . S
C2753 C727 1.431 . S
C2777 C103 1.076 . S
C2785 C759 1.258 . S
C2809 C131 1.159 . S
C2817 C780 1.241 . S
C2841 C151 1.263 . S
C2849 C674 1.264 . S
C2881 C720 1.458 . S
C2873 C159 1.286 . S
C2905 C165 1.431 . S
C2913 C575 1.416 . S
C2937 C137 1.520 . S
C2945 C621 1.509 . S
C2977 C550 1.502 . S
C2969 C145 1.331 . S
C3009 C826 1.266 . S
C3001 C173 1.165 . S
C3033 C193 1.247 . S
C3041 C872 1.247 . S
C3065 C201 1.225 . S
C3073 C897 1.431 . S
C3105 C950 1.380 . S
C3097 C207 1.407 . S
C3137 C1003 1.532 . S
C3129 C179 1.551 . S
C3161 C187 1.340 . S
C3169 C1049 1.520 . S
C3193 C215 1.210 . S
C3201 C1042 1.507 . S
C3225 C235 1.560 . S
C3233 C957 1.530 . S
C3265 C996 1.537 . S
C3257 C243 1.307 . S
C3297 C851 1.217 . S
C3289 C249 1.168 . S
C3329 C918 1.429 . S
C3321 C221 1.448 . S
C3353 C229 1.152 . S
C3361 C805 1.259 . S
