# Generated by pormake.
# Topology zzz, (3,6)-cn, num edge types: 1
# Building blocks:
#     Node 0, Type 0, BuildingBlock: BETDAH_clean_linker_0, # of connection points: 3
#     Node 1, Type 0, BuildingBlock: BETDAH_clean_linker_0, # of connection points: 3
#     Node 2, Type 0, BuildingBlock: BETDAH_clean_linker_0, # of connection points: 3
#     Node 3, Type 0, BuildingBlock: BETDAH_clean_linker_0, # of connection points: 3
#     Node 4, Type 0, BuildingBlock: BETDAH_clean_linker_0, # of connection points: 3
#     Node 5, Type 0, BuildingBlock: BETDAH_clean_linker_0, # of connection points: 3
#     Node 6, Type 0, BuildingBlock: BETDAH_clean_linker_0, # of connection points: 3
#     Node 7, Type 0, BuildingBlock: BETDAH_clean_linker_0, # of connection points: 3
#     Node 8, Type 1, BuildingBlock: KUMBOL_clean_sbu_0, # of connection points: 6
#     Node 9, Type 1, BuildingBlock: KUMBOL_clean_sbu_0, # of connection points: 6
#     Node 10, Type 1, BuildingBlock: KUMBOL_clean_sbu_0, # of connection points: 6
#     Node 11, Type 1, BuildingBlock: KUMBOL_clean_sbu_0, # of connection points: 6
#     Edge 12, Type (0, 1), BuildingBlock: XUDNAN_clean_linker_2, # of connection points: 2
#     Edge 13, Type (0, 1), BuildingBlock: XUDNAN_clean_linker_2, # of connection points: 2
#     Edge 14, Type (0, 1), BuildingBlock: XUDNAN_clean_linker_2, # of connection points: 2
#     Edge 15, Type (0, 1), BuildingBlock: XUDNAN_clean_linker_2, # of connection points: 2
#     Edge 16, Type (0, 1), BuildingBlock: XUDNAN_clean_linker_2, # of connection points: 2
#     Edge 17, Type (0, 1), BuildingBlock: XUDNAN_clean_linker_2, # of connection points: 2
#     Edge 18, Type (0, 1), BuildingBlock: XUDNAN_clean_linker_2, # of connection points: 2
#     Edge 19, Type (0, 1), BuildingBlock: XUDNAN_clean_linker_2, # of connection points: 2
#     Edge 20, Type (0, 1), BuildingBlock: XUDNAN_clean_linker_2, # of connection points: 2
#     Edge 21, Type (0, 1), BuildingBlock: XUDNAN_clean_linker_2, # of connection points: 2
#     Edge 22, Type (0, 1), BuildingBlock: XUDNAN_clean_linker_2, # of connection points: 2
#     Edge 23, Type (0, 1), BuildingBlock: XUDNAN_clean_linker_2, # of connection points: 2
#     Edge 24, Type (0, 1), BuildingBlock: XUDNAN_clean_linker_2, # of connection points: 2
#     Edge 25, Type (0, 1), BuildingBlock: XUDNAN_clean_linker_2, # of connection points: 2
#     Edge 26, Type (0, 1), BuildingBlock: XUDNAN_clean_linker_2, # of connection points: 2
#     Edge 27, Type (0, 1), BuildingBlock: XUDNAN_clean_linker_2, # of connection points: 2
#     Edge 28, Type (0, 1), BuildingBlock: XUDNAN_clean_linker_2, # of connection points: 2
#     Edge 29, Type (0, 1), BuildingBlock: XUDNAN_clean_linker_2, # of connection points: 2
#     Edge 30, Type (0, 1), BuildingBlock: XUDNAN_clean_linker_2, # of connection points: 2
#     Edge 31, Type (0, 1), BuildingBlock: XUDNAN_clean_linker_2, # of connection points: 2
#     Edge 32, Type (0, 1), BuildingBlock: XUDNAN_clean_linker_2, # of connection points: 2
#     Edge 33, Type (0, 1), BuildingBlock: XUDNAN_clean_linker_2, # of connection points: 2
#     Edge 34, Type (0, 1), BuildingBlock: XUDNAN_clean_linker_2, # of connection points: 2
#     Edge 35, Type (0, 1), BuildingBlock: XUDNAN_clean_linker_2, # of connection points: 2
# Relax obj value: 0.176
# Max RMSD: 0.164
# Mean RMSD: 0.117
data_MOF--net-zzz--node1-KUMBOL_clean_sbu_0--node2-BETDAH_clean_linker_0--edge1-XUDNAN_clean_linker_2
_symmetry_space_group_name_H-M    P1
_symmetry_Int_Tables_number       1
_symmetry_cell_setting            triclinic
loop_
_symmetry_equiv_pos_as_xyz
'x, y, z'
_cell_length_a     50.673553
_cell_length_b     50.580485
_cell_length_c     14.790503
_cell_angle_alpha  91.207412
_cell_angle_beta   89.713442
_cell_angle_gamma 90.000438
loop_
_atom_site_label
_atom_site_type_symbol
_atom_site_fract_x
_atom_site_fract_y
_atom_site_fract_z
_atom_type_partial_charge
H0 H 0.82983 0.56896 0.19173 0.0
H1 H 0.7551 0.55748 0.06304 0.0
H2 H 0.76999 0.52329 0.32365 0.0
C3 C 0.81005 0.56075 0.19376 0.0
C4 C 0.80271 0.54482 0.2656 0.0
C5 C 0.79339 0.56486 0.12031 0.0
C6 C 0.76767 0.5547 0.12106 0.0
C7 C 0.75864 0.54051 0.1964 0.0
C8 C 0.77645 0.53528 0.26791 0.0
N9 N 0.7323 0.53044 0.20094 0.0
C10 C 0.71234 0.53467 0.13747 0.0
H11 H 0.97362 0.83729 0.19967 0.0
H12 H 0.98058 0.75705 0.0993 0.0
H13 H 0.03684 0.7886 0.2913 0.0
C14 C 0.98286 0.81798 0.20208 0.0
C15 C 1.00545 0.81537 0.25525 0.0
C16 C 0.97381 0.79724 0.14508 0.0
C17 C 0.98719 0.77288 0.14412 0.0
C18 C 1.00987 0.76942 0.19684 0.0
C19 C 0.01886 0.79079 0.25288 0.0
N20 N 0.02469 0.74529 0.19175 0.0
C21 C 0.02117 0.72404 0.12974 0.0
H22 H 0.70766 0.99445 0.22014 0.0
H23 H 0.78911 0.99618 0.14136 0.0
H24 H 0.76674 0.01737 0.41499 0.0
C25 C 0.72822 0.99645 0.23918 0.0
C26 C 0.73452 1.00511 0.32731 0.0
C27 C 0.74785 0.99381 0.17217 0.0
C28 C 0.77434 0.99806 0.19431 0.0
C29 C 0.78161 1.00623 0.28188 0.0
C30 C 0.76149 1.00994 0.34825 0.0
N31 N 0.80863 1.01222 0.30241 0.0
C32 C 0.82866 0.01439 0.23666 0.0
H33 H 0.57205 0.72125 0.23211 0.0
H34 H 0.56262 0.79829 0.1224 0.0
H35 H 0.52187 0.77809 0.36823 0.0
C36 C 0.56358 0.74084 0.23726 0.0
C37 C 0.5459 0.74672 0.30824 0.0
C38 C 0.5692 0.75897 0.16905 0.0
C39 C 0.55856 0.78451 0.1757 0.0
C40 C 0.54199 0.79186 0.24868 0.0
C41 C 0.53552 0.77276 0.31432 0.0
N42 N 0.53074 0.81781 0.25529 0.0
C43 C 0.53557 0.83814 0.19412 0.0
H44 H 0.22134 0.46688 0.0889 0.0
H45 H 0.2959 0.47939 0.21701 0.0
H46 H 0.27565 0.52377 0.98101 0.0
C47 C 0.24033 0.47675 0.08963 0.0
C48 C 0.24565 0.4964 0.02653 0.0
C49 C 0.25822 0.47078 0.15828 0.0
C50 C 0.28268 0.48355 0.1619 0.0
C51 C 0.28954 0.50218 0.09647 0.0
C52 C 0.27084 0.50864 0.02909 0.0
N53 N 0.3145 0.51541 0.09913 0.0
C54 C 0.33416 0.51146 0.16406 0.0
H55 H 0.01373 0.21191 0.13151 0.0
H56 H 0.02146 0.29177 0.23078 0.0
H57 H 0.04025 0.27244 0.95173 0.0
C58 C 0.01875 0.23236 0.11896 0.0
C59 C 0.02697 0.23945 0.03208 0.0
C60 C 0.01707 0.25111 0.19028 0.0
C61 C 0.02307 0.27759 0.1751 0.0
C62 C 0.03146 0.28572 0.0896 0.0
C63 C 0.03368 0.26642 0.01797 0.0
N64 N 0.0376 0.31302 0.07498 0.0
C65 C 0.03746 0.33315 0.14263 0.0
H66 H 0.33771 0.03126 0.17309 0.0
H67 H 0.25645 0.04185 0.24942 0.0
H68 H 0.27822 0.03256 0.96777 0.0
C69 C 0.31727 0.03411 0.15419 0.0
C70 C 0.31074 0.0324 0.06244 0.0
C71 C 0.29794 0.03728 0.22185 0.0
C72 C 0.27136 0.03956 0.19713 0.0
C73 C 0.26388 0.03796 0.10583 0.0
C74 C 0.2838 0.03453 0.03818 0.0
N75 N 0.23659 0.03855 0.08109 0.0
C76 C 0.21508 0.04089 0.14151 0.0
H77 H 0.47136 0.327 0.10169 0.0
H78 H 0.47221 0.24777 0.19724 0.0
H79 H 0.50221 0.26428 0.93064 0.0
C80 C 0.47484 0.30618 0.08775 0.0
C81 C 0.48648 0.29828 1.00513 0.0
C82 C 0.46934 0.28811 0.1562 0.0
C83 C 0.47595 0.26144 0.14325 0.0
C84 C 0.48786 0.25262 0.06202 0.0
C85 C 0.49304 0.27113 0.99312 0.0
N86 N 0.49529 0.22552 0.04885 0.0
C87 C 0.49125 0.20546 0.11171 0.0
Gd88 Gd 0.99187 0.02883 0.5713 0.0
Gd89 Gd 0.03919 0.01808 0.75131 0.0
C90 C 0.076 0.08553 0.92297 0.0
C91 C 0.12244 0.08131 0.88467 0.0
C92 C 0.09028 0.05076 0.81932 0.0
C93 C 0.07013 0.06381 0.86461 0.0
C94 C 0.11674 0.05898 0.83039 0.0
C95 C 0.10209 0.09456 0.93093 0.0
C96 C 0.05563 0.0971 0.97384 0.0
C97 C 0.0304 0.08646 0.96831 0.0
N98 N 0.04507 0.05449 0.85543 0.0
C99 C 0.02546 0.06503 0.90964 0.0
H100 H 1.00556 0.05792 0.90835 0.0
C101 C 0.10394 1.01346 0.73267 0.0
N102 N 0.08423 0.02898 0.76887 0.0
C103 C 0.13037 0.02091 0.74099 0.0
C104 C 0.13681 0.04401 0.789 0.0
H105 H 0.09923 0.99547 0.69559 0.0
H106 H 0.10683 0.11135 0.97464 0.0
H107 H 0.01685 0.04176 0.36271 0.0
H108 H 0.05932 0.11376 0.01927 0.0
H109 H 0.01459 0.09476 1.00932 0.0
H110 H 0.14259 0.08803 0.89338 0.0
H111 H 0.96837 0.97932 0.70836 0.0
H112 H 0.99439 0.97889 0.18301 0.0
H113 H 0.01699 0.02148 0.2111 0.0
H114 H 0.94644 0.92 0.37092 0.0
H115 H 0.14576 1.00877 0.71065 0.0
H116 H 0.15733 0.04967 0.79591 0.0
H117 H 0.96752 0.94173 0.24247 0.0
H118 H 0.94403 0.9381 0.68908 0.0
N119 N 0.99692 1.00959 0.42506 0.0
C120 C 0.99487 0.98734 0.25092 0.0
C121 C 1.00781 1.01126 0.26662 0.0
C122 C 0.98223 0.97487 0.32258 0.0
C123 C 0.9834 0.98668 0.41004 0.0
C124 C 1.0082 0.0224 0.35381 0.0
N125 N 0.97367 0.98559 0.56678 0.0
C126 C 0.97129 0.97448 0.48261 0.0
C127 C 0.95124 0.94832 0.6303 0.0
C128 C 0.94724 0.93758 0.54408 0.0
C129 C 0.96477 0.97222 0.64063 0.0
C130 C 0.95805 0.95012 0.46921 0.0
H131 H 0.93654 0.91914 0.5364 0.0
O132 O 0.95049 0.03432 0.53921 0.0
O133 O 0.02021 0.04869 0.66821 0.0
O134 O 0.9975 0.0239 0.81315 0.0
O135 O 0.96701 0.0261 0.69571 0.0
O136 O 0.98518 0.06752 0.65001 0.0
O137 O 0.9807 0.05808 0.47411 0.0
O138 O 0.06095 0.99138 0.8368 0.0
O139 O 0.01527 0.9989 0.64158 0.0
O140 O 0.03283 0.03725 0.51259 0.0
O141 O 0.06367 0.02963 0.62709 0.0
O142 O 0.05262 0.98376 0.66044 0.0
O143 O 0.01836 0.99207 0.84147 0.0
C144 C 1.00728 0.06917 0.69144 0.0
C145 C 0.95653 0.93866 0.38218 0.0
C146 C 0.96862 0.95097 0.30912 0.0
C147 C 0.95544 0.05448 0.48813 0.0
C148 C 0.93933 0.07836 0.50558 0.0
C149 C 0.91203 0.07758 0.492 0.0
C150 C 0.95128 0.10234 0.53121 0.0
C151 C 0.93701 0.12623 0.53362 0.0
C152 C 0.89713 0.1007 0.50098 0.0
C153 C 0.90948 0.12492 0.51972 0.0
C154 C 0.97288 0.02573 0.78251 0.0
C155 C 0.03172 0.98175 0.61188 0.0
C156 C 0.03965 0.97944 0.86354 0.0
C157 C 0.03905 0.95036 0.85273 0.0
C158 C 0.06257 0.93585 0.85785 0.0
C159 C 0.01501 0.93688 0.83894 0.0
C160 C 0.01427 0.90909 0.83329 0.0
C161 C 0.06213 0.90838 0.85028 0.0
C162 C 0.03825 0.89505 0.83939 0.0
C163 C 0.05754 0.03567 0.54251 0.0
H164 H 0.90234 0.0592 0.47311 0.0
H165 H 0.9721 0.10234 0.54545 0.0
H166 H 0.87606 0.10005 0.48952 0.0
H167 H 0.8974 0.14251 0.51893 0.0
H168 H 0.08131 0.94571 0.86849 0.0
H169 H 0.99684 0.94799 0.83386 0.0
H170 H 0.08033 0.8973 0.8552 0.0
H171 H 0.03868 0.87366 0.83889 0.0
Gd172 Gd 0.51605 1.00226 0.60199 0.0
Gd173 Gd 0.52806 0.05415 0.76461 0.0
C174 C 0.46003 0.08697 0.94092 0.0
C175 C 0.45582 0.13169 0.88645 0.0
C176 C 0.48892 0.10185 0.82171 0.0
C177 C 0.4806 0.082 0.87782 0.0
C178 C 0.47719 0.12718 0.82748 0.0
C179 C 0.44735 0.11166 0.9434 0.0
C180 C 0.45365 0.06751 1.0029 0.0
C181 C 0.46855 0.04445 1.00445 0.0
N182 N 0.49423 0.05881 0.87682 0.0
C183 C 0.48917 0.04066 0.94239 0.0
H184 H 0.50066 0.02301 0.94916 0.0
C185 C 0.52249 0.1178 0.72609 0.0
N186 N 0.51024 0.09725 0.76815 0.0
C187 C 0.51144 0.1431 0.72879 0.0
C188 C 0.48832 0.1477 0.77807 0.0
H189 H 0.54062 0.11449 0.68881 0.0
H190 H 0.43158 0.11577 0.9914 0.0
H191 H 0.53796 0.05373 0.45918 0.0
H192 H 0.43798 0.07055 0.05218 0.0
H193 H 0.46441 0.02964 0.05436 0.0
H194 H 0.44649 0.15095 0.8914 0.0
H195 H 0.54229 0.94409 0.66378 0.0
H196 H 0.56226 0.01862 0.21019 0.0
H197 H 0.55129 0.05816 0.30339 0.0
H198 H 0.57499 0.9282 0.28362 0.0
H199 H 0.52098 0.1591 0.69385 0.0
H200 H 0.47996 0.16742 0.78107 0.0
H201 H 0.57106 0.97008 0.20359 0.0
H202 H 0.56257 0.90499 0.59311 0.0
N203 N 0.53615 1.01129 0.45633 0.0
C204 C 0.5552 0.01636 0.27888 0.0
C205 C 0.54894 0.03865 0.33107 0.0
C206 C 0.55442 0.99163 0.31864 0.0
C207 C 0.54512 0.9898 0.40875 0.0
C208 C 0.54033 0.03581 0.42023 0.0
N209 N 0.54183 0.9666 0.54301 0.0
C210 C 0.54811 0.96661 0.454 0.0
C211 C 0.55862 0.92217 0.55292 0.0
C212 C 0.56442 0.92174 0.46081 0.0
C213 C 0.54727 0.94475 0.59295 0.0
C214 C 0.55951 0.94421 0.41029 0.0
H215 H 0.57321 0.90422 0.42986 0.0
O216 O 0.50156 0.96892 0.67569 0.0
O217 O 0.50005 0.02287 0.72663 0.0
O218 O 0.52673 1.01356 0.82914 0.0
O219 O 0.54554 0.99121 0.71022 0.0
O220 O 0.47448 0.019 0.62015 0.0
O221 O 0.48815 0.97456 0.53894 0.0
O222 O 0.54942 0.08244 0.8507 0.0
O223 O 0.54779 0.02754 0.66036 0.0
O224 O 0.49934 0.03842 0.53439 0.0
O225 O 0.5094 0.07265 0.63857 0.0
O226 O 0.55388 0.06748 0.65015 0.0
O227 O 0.56384 0.04294 0.83428 0.0
C228 C 0.47643 0.02712 0.70338 0.0
C229 C 0.56658 0.94528 0.31861 0.0
C230 C 0.56423 0.96907 0.27299 0.0
C231 C 0.48526 0.9612 0.61318 0.0
C232 C 0.45845 0.95585 0.64762 0.0
C233 C 0.45561 0.93925 0.7219 0.0
C234 C 0.43627 0.9692 0.6151 0.0
C235 C 0.41163 0.96743 0.65969 0.0
C236 C 0.43133 0.93697 0.76556 0.0
C237 C 0.4096 0.95124 0.73588 0.0
C238 C 0.53937 0.99254 0.79694 0.0
C239 C 0.56086 0.04467 0.61781 0.0
C240 C 0.56964 0.06699 0.858 0.0
C241 C 0.59533 0.07661 0.8241 0.0
C242 C 0.5983 0.10202 0.78861 0.0
C243 C 0.61653 0.0589 0.81818 0.0
C244 C 0.64023 0.06571 0.77471 0.0
C245 C 0.622 0.10922 0.74693 0.0
C246 C 0.64285 0.09118 0.73961 0.0
C247 C 0.49979 0.06387 0.55968 0.0
H248 H 0.47249 0.92882 0.74838 0.0
H249 H 0.43847 0.9811 0.55568 0.0
H250 H 0.42953 0.92467 0.8243 0.0
H251 H 0.39143 0.9499 0.77418 0.0
H252 H 0.58225 0.11614 0.79144 0.0
H253 H 0.61444 0.03961 0.84805 0.0
H254 H 0.62409 0.12875 0.71923 0.0
H255 H 0.66093 0.0971 0.70634 0.0
Gd256 Gd 0.49443 0.53109 0.75151 0.0
Gd257 Gd 0.54604 0.51539 0.58187 0.0
C258 C 0.63258 0.51563 0.67509 0.0
C259 C 0.65112 0.55189 0.59071 0.0
C260 C 0.60499 0.53957 0.57198 0.0
C261 C 0.60779 0.52002 0.63457 0.0
C262 C 0.62685 0.5552 0.54708 0.0
C263 C 0.65398 0.53213 0.6547 0.0
C264 C 0.63529 0.49448 0.73344 0.0
C265 C 0.61386 0.47789 0.7482 0.0
N266 N 0.58659 0.5046 0.65322 0.0
C267 C 0.58968 0.48312 0.70717 0.0
H268 H 0.57364 0.47004 0.72186 0.0
C269 C 0.57919 0.55775 0.4566 0.0
N270 N 0.58138 0.54203 0.5306 0.0
C271 C 0.60016 0.57379 0.4298 0.0
C272 C 0.62396 0.57292 0.47648 0.0
H273 H 0.56092 0.5583 0.41926 0.0
H274 H 0.673 0.5293 0.68623 0.0
H275 H 0.46967 0.57725 0.60542 0.0
H276 H 0.65395 0.49049 0.76597 0.0
H277 H 0.61583 0.46112 0.79193 0.0
H278 H 0.66801 0.56394 0.57337 0.0
H279 H 0.47756 0.48769 0.90968 0.0
H280 H 0.38878 0.56032 0.55942 0.0
H281 H 0.42838 0.58746 0.53233 0.0
H282 H 0.37014 0.48926 0.7574 0.0
H283 H 0.59803 0.58662 0.37272 0.0
H284 H 0.64027 0.58521 0.45523 0.0
H285 H 0.36743 0.52336 0.64189 0.0
H286 H 0.43818 0.46327 0.96031 0.0
N287 N 0.45486 0.54392 0.67733 0.0
C288 C 0.40706 0.55569 0.59334 0.0
C289 C 0.42933 0.57107 0.57811 0.0
C290 C 0.40849 0.5349 0.65369 0.0
C291 C 0.43287 0.52955 0.69572 0.0
C292 C 0.45301 0.56509 0.62113 0.0
N293 N 0.45789 0.50595 0.80032 0.0
C294 C 0.43447 0.50997 0.75904 0.0
C295 C 0.437 0.4759 0.90241 0.0
C296 C 0.41332 0.47825 0.85586 0.0
C297 C 0.45915 0.49003 0.87402 0.0
C298 C 0.41167 0.49575 0.78419 0.0
H299 H 0.3962 0.46721 0.8778 0.0
O300 O 0.492 0.53532 0.89732 0.0
O301 O 0.53761 0.53145 0.71986 0.0
O302 O 0.53366 0.47808 0.65693 0.0
O303 O 0.49484 0.48622 0.7386 0.0
O304 O 0.52668 0.5162 0.84294 0.0
O305 O 0.48625 0.56952 0.81404 0.0
O306 O 0.55023 0.50839 0.43745 0.0
O307 O 0.50295 0.5154 0.61286 0.0
O308 O 0.50729 0.5693 0.68379 0.0
O309 O 0.54146 0.55987 0.58111 0.0
O310 O 0.51414 0.5292 0.48786 0.0
O311 O 0.55269 0.47563 0.52856 0.0
C312 C 0.54646 0.5227 0.79316 0.0
C313 C 0.38773 0.50023 0.73982 0.0
C314 C 0.38617 0.51971 0.67435 0.0
C315 C 0.48986 0.56087 0.89567 0.0
C316 C 0.50833 0.57547 0.95495 0.0
C317 C 0.50835 0.57038 0.04782 0.0
C318 C 0.52614 0.59405 0.92035 0.0
C319 C 0.54285 0.60861 0.9785 0.0
C320 C 0.52561 0.58391 0.10552 0.0
C321 C 0.54254 0.60309 0.07155 0.0
C322 C 0.51341 0.46997 0.70687 0.0
C323 C 0.49424 0.52367 0.53848 0.0
C324 C 0.5496 0.48288 0.44519 0.0
C325 C 0.5291 0.46922 0.39161 0.0
C326 C 0.5253 0.4761 0.30121 0.0
C327 C 0.51258 0.45018 0.4306 0.0
C328 C 0.49324 0.43704 0.3787 0.0
C329 C 0.5055 0.464 0.25021 0.0
C330 C 0.48978 0.44444 0.28798 0.0
C331 C 0.52475 0.57643 0.62155 0.0
H332 H 0.49495 0.55593 0.07572 0.0
H333 H 0.5267 0.59753 0.84853 0.0
H334 H 0.52538 0.58 0.17721 0.0
H335 H 0.55458 0.61429 0.119 0.0
H336 H 0.53761 0.49093 0.27013 0.0
H337 H 0.51503 0.44527 0.50095 0.0
H338 H 0.50275 0.46932 0.18036 0.0
H339 H 0.47576 0.4344 0.24428 0.0
Gd340 Gd 0.01342 0.50796 0.74442 0.0
Gd341 Gd 0.03432 0.54487 0.55209 0.0
C342 C 0.03874 0.63336 0.62849 0.0
C343 C 1.00268 0.65171 0.54246 0.0
C344 C 0.01269 0.60468 0.53151 0.0
C345 C 0.03275 0.60795 0.59289 0.0
C346 C 0.9979 0.62666 0.50327 0.0
C347 C 0.0232 0.65508 0.60466 0.0
C348 C 0.06084 0.63638 0.68385 0.0
C349 C 0.07696 0.61462 0.69908 0.0
N350 N 0.04769 0.5866 0.6125 0.0
C351 C 0.07023 0.58986 0.66205 0.0
H352 H 0.08314 0.57356 0.67479 0.0
C353 C 0.99323 0.57745 0.41911 0.0
N354 N 1.00929 0.5804 0.49317 0.0
C355 C 0.97777 0.59844 0.38972 0.0
C356 C 0.97973 0.62309 0.4332 0.0
H357 H 0.99175 0.55852 0.3841 0.0
H358 H 0.02749 0.67472 0.63133 0.0
H359 H 0.9479 0.50035 0.78966 0.0
H360 H 0.06608 0.65553 0.71271 0.0
H361 H 0.09453 0.61683 0.73987 0.0
H362 H 0.99139 0.66878 0.52232 0.0
H363 H 0.06987 0.47033 0.74965 0.0
H364 H 0.92319 0.42594 0.6768 0.0
H365 H 0.91247 0.46853 0.75366 0.0
H366 H 1.00478 0.38206 0.61176 0.0
H367 H 0.96451 0.59563 0.33318 0.0
H368 H 0.968 0.63945 0.40964 0.0
H369 H 0.95784 0.39398 0.62212 0.0
H370 H 0.08403 0.42597 0.70532 0.0
N371 N 0.97823 0.47723 0.72605 0.0
C372 C 0.93878 0.44005 0.69119 0.0
C373 C 0.93266 0.464 0.73468 0.0
C374 C 0.96518 0.43384 0.67256 0.0
C375 C 0.98477 0.45294 0.69246 0.0
C376 C 0.9528 0.48205 0.75436 0.0
N377 N 0.02949 0.46461 0.71208 0.0
C378 C 1.01119 0.44625 0.68684 0.0
C379 C 0.06351 0.4315 0.6985 0.0
C380 C 0.04525 0.41316 0.66551 0.0
C381 C 0.05525 0.45709 0.72244 0.0
C382 C 0.01866 0.42024 0.66083 0.0
H383 H 0.05175 0.3934 0.64644 0.0
O384 O 0.03181 0.51743 0.87408 0.0
O385 O 0.02635 0.5479 0.70014 0.0
O386 O 0.07147 0.5306 0.62242 0.0
O387 O 0.0574 0.51419 0.76036 0.0
O388 O 0.99168 0.54654 0.77194 0.0
O389 O 0.99816 0.49187 0.86955 0.0
O390 O 0.04123 0.54703 0.40723 0.0
O391 O 0.03085 0.50362 0.6052 0.0
O392 O 0.97596 0.5209 0.67402 0.0
O393 O 0.98972 0.54099 0.54221 0.0
O394 O 0.01395 0.51078 0.4815 0.0
O395 O 0.07405 0.54258 0.49624 0.0
C396 C 1.00894 0.56246 0.73845 0.0
C397 C 0.99932 0.40188 0.63389 0.0
C398 C 0.9726 0.40869 0.63954 0.0
C399 C 0.01344 0.50619 0.92071 0.0
C400 C 1.00034 0.52318 0.98948 0.0
C401 C 0.01331 0.52997 0.07011 0.0
C402 C 0.97539 0.53405 0.97233 0.0
C403 C 0.9633 0.55158 0.0347 0.0
C404 C 1.00141 0.54732 0.13287 0.0
C405 C 0.97658 0.5581 0.11546 0.0
C406 C 0.0763 0.52151 0.70415 0.0
C407 C 0.01945 0.49252 0.53769 0.0
C408 C 0.06583 0.54053 0.41346 0.0
C409 C 0.07423 0.51684 0.36043 0.0
C410 C 0.06129 0.50987 0.27965 0.0
C411 C 0.09463 0.50057 0.3914 0.0
C412 C 0.10295 0.47815 0.34082 0.0
C413 C 0.06869 0.48722 0.23061 0.0
C414 C 0.08948 0.4716 0.2602 0.0
C415 C 0.97106 0.53178 0.59552 0.0
H416 H 0.03271 0.52205 0.08396 0.0
H417 H 0.96553 0.52921 0.90942 0.0
H418 H 1.01145 0.55252 0.19515 0.0
H419 H 0.96767 0.57121 0.16572 0.0
H420 H 0.04536 0.52188 0.25458 0.0
H421 H 0.10413 0.50548 0.45491 0.0
H422 H 0.05864 0.48206 0.16828 0.0
H423 H 0.09552 0.455 0.21763 0.0
H424 H 0.20115 0.01843 0.30399 0.0
H425 H 0.17328 0.0705 0.09611 0.0
H426 H 0.13076 0.0758 0.17766 0.0
H427 H 0.13891 0.98546 0.34213 0.0
H428 H 0.14306 0.98309 0.46265 0.0
H429 H 0.17157 0.98384 0.3895 0.0
H430 H 0.1898 0.02409 0.4805 0.0
H431 H 0.1613 0.02339 0.55375 0.0
H432 H 0.16959 0.05321 0.49546 0.0
H433 H 0.09058 0.07467 0.28002 0.0
H434 H 0.05599 0.0674 0.39483 0.0
H435 H 0.1089 0.0159 0.5389 0.0
C436 C 0.18611 0.03108 0.27629 0.0
C437 C 0.19056 0.04424 0.19378 0.0
C438 C 0.17036 0.06041 0.15929 0.0
C439 C 0.14611 0.06351 0.20525 0.0
C440 C 0.14219 0.05032 0.28625 0.0
C441 C 0.16163 0.03442 0.32174 0.0
C442 C 0.15201 0.02218 0.40938 0.0
C443 C 0.15135 0.99184 0.40034 0.0
C444 C 0.16921 0.03127 0.48952 0.0
C445 C 0.12421 0.03357 0.41739 0.0
C446 C 0.119 0.04973 0.34546 0.0
C447 C 0.09453 0.06206 0.33659 0.0
C448 C 0.07486 0.05768 0.40218 0.0
C449 C 0.07947 0.04109 0.47659 0.0
C450 C 0.10471 0.02906 0.48411 0.0
H451 H 0.51226 0.19817 0.27972 0.0
H452 H 0.46205 0.16179 0.07634 0.0
H453 H 0.45648 0.12254 0.17235 0.0
H454 H 0.54564 0.1389 0.34327 0.0
H455 H 0.5473 0.14786 0.46171 0.0
H456 H 0.54637 0.17325 0.37828 0.0
H457 H 0.50535 0.19393 0.45782 0.0
H458 H 0.50618 0.16847 0.54102 0.0
H459 H 0.47661 0.17373 0.4768 0.0
H460 H 0.45781 0.08631 0.28985 0.0
H461 H 0.46665 0.05606 0.4153 0.0
H462 H 0.51627 0.11578 0.54239 0.0
C463 C 0.49991 0.182 0.25609 0.0
C464 C 0.48737 0.18302 0.17098 0.0
C465 C 0.47162 0.16143 0.14164 0.0
C466 C 0.46836 0.13907 0.19584 0.0
C467 C 0.48094 0.13858 0.27966 0.0
C468 C 0.49645 0.15949 0.3096 0.0
C469 C 0.5084 0.15367 0.40118 0.0
C470 C 0.53872 0.1534 0.39574 0.0
C471 C 0.49854 0.17364 0.47347 0.0
C472 C 0.4975 0.12617 0.41778 0.0
C473 C 0.48159 0.11786 0.34708 0.0
C474 C 0.47006 0.09278 0.34579 0.0
C475 C 0.4752 0.07569 0.41764 0.0
C476 C 0.49174 0.08357 0.49053 0.0
C477 C 0.50279 0.10933 0.49019 0.0
H478 H 0.37889 0.54103 0.17601 0.0
H479 H 0.33783 0.47571 0.29868 0.0
H480 H 0.37414 0.47129 0.40938 0.0
H481 H 0.4451 0.51471 0.19984 0.0
H482 H 0.45961 0.5466 0.22395 0.0
H483 H 0.43056 0.54413 0.15464 0.0
H484 H 0.40662 0.57727 0.26248 0.0
H485 H 0.4353 0.5795 0.33374 0.0
H486 H 0.40388 0.57016 0.38102 0.0
H487 H 0.41616 0.47402 0.50702 0.0
H488 H 0.45873 0.48438 0.58239 0.0
H489 H 0.47163 0.54824 0.39672 0.0
C490 C 0.37761 0.52579 0.22621 0.0
C491 C 0.35557 0.5087 0.22904 0.0
C492 C 0.35453 0.48901 0.2955 0.0
C493 C 0.3751 0.48636 0.35859 0.0
C494 C 0.39665 0.50355 0.35431 0.0
C495 C 0.398 0.52289 0.28957 0.0
C496 C 0.42316 0.53897 0.29938 0.0
C497 C 0.44063 0.53591 0.21441 0.0
C498 C 0.41686 0.56821 0.32042 0.0
C499 C 0.4357 0.52586 0.37989 0.0
C500 C 0.42025 0.50537 0.41066 0.0
C501 C 0.4282 0.4902 0.48373 0.0
C502 C 0.45233 0.4963 0.52664 0.0
C503 C 0.46808 0.51764 0.49732 0.0
C504 C 0.45973 0.53217 0.4219 0.0
H505 H 0.99802 0.36703 0.20174 0.0
H506 H 0.08072 0.34844 0.23665 0.0
H507 H 0.08482 0.38554 0.34803 0.0
H508 H 1.00501 0.43789 0.21575 0.0
H509 H 0.97453 0.44329 0.27673 0.0
H510 H 0.97806 0.41489 0.20217 0.0
H511 H 0.96557 0.3845 0.33418 0.0
H512 H 0.96263 0.41268 0.41029 0.0
H513 H 0.98454 0.38591 0.4369 0.0
H514 H 0.08036 0.42677 0.4509 0.0
H515 H 0.06761 0.46765 0.53544 0.0
H516 H 0.98753 0.4591 0.43894 0.0
C517 C 0.01693 0.3707 0.23344 0.0
C518 C 0.0391 0.35472 0.21074 0.0
C519 C 0.06349 0.36031 0.25319 0.0
C520 C 0.06599 0.3814 0.31659 0.0
C521 C 0.04385 0.39688 0.33754 0.0
C522 C 0.01973 0.39176 0.2973 0.0
C523 C 0.99915 0.41173 0.33052 0.0
C524 C 0.98857 0.42791 0.25159 0.0
C525 C 0.97663 0.39788 0.38096 0.0
C526 C 0.01541 0.42895 0.395 0.0
C527 C 0.04117 0.42006 0.39821 0.0
C528 C 0.06012 0.43352 0.44988 0.0
C529 C 0.05264 0.45661 0.49881 0.0
C530 C 0.0263 0.46595 0.49763 0.0
C531 C 1.00759 0.45191 0.4441 0.0
H532 H 0.882 1.00183 0.22957 0.0
H533 H 0.81806 0.03605 0.07735 0.0
H534 H 0.84861 0.04382 0.94999 0.0
H535 H 0.93332 0.04662 0.15068 0.0
H536 H 0.95898 0.02206 0.14148 0.0
H537 H 0.93293 0.01853 0.22381 0.0
H538 H 0.92105 0.97249 0.15878 0.0
H539 H 0.94752 0.97513 0.07775 0.0
H540 H 0.91441 0.96841 0.03961 0.0
H541 H 0.88495 0.04778 0.83928 0.0
H542 H 0.92497 0.04658 0.74603 0.0
H543 H 0.96778 1.0096 0.96367 0.0
C544 C 0.87457 1.01096 0.16923 0.0
C545 C 0.84758 0.01839 0.16304 0.0
C546 C 0.83856 0.03026 0.08336 0.0
C547 C 0.85582 0.03478 0.01075 0.0
C548 C 0.88223 0.02736 0.01847 0.0
C549 C 0.89173 0.01565 0.09533 0.0
C550 C 0.92117 1.00946 0.08414 0.0
C551 C 0.93755 0.0251 0.15425 0.0
C552 C 0.92632 0.97959 0.09042 0.0
C553 C 0.92649 0.0192 0.98859 0.0
C554 C 0.90362 0.02958 0.95303 0.0
C555 C 0.90294 0.03965 0.86632 0.0
C556 C 0.92596 0.03878 0.81358 0.0
C557 C 0.94979 0.02783 0.84645 0.0
C558 C 0.95006 0.01822 0.93626 0.0
H559 H 0.50423 0.88087 0.15905 0.0
H560 H 0.57883 0.8438 0.08863 0.0
H561 H 0.58834 0.8797 0.98189 0.0
H562 H 0.48915 0.90362 0.93289 0.0
H563 H 0.47449 0.93425 0.97202 0.0
H564 H 0.47335 0.9056 0.04232 0.0
H565 H 0.49568 0.93236 0.17238 0.0
H566 H 0.49676 0.96104 0.10213 0.0
H567 H 0.52663 0.94866 0.15125 0.0
H568 H 0.58903 0.91888 0.87816 0.0
H569 H 0.58162 0.9592 0.78968 0.0
H570 H 0.50758 0.97257 0.9313 0.0
C571 C 0.52255 0.88041 0.121 0.0
C572 C 0.54082 0.85952 0.13161 0.0
C573 C 0.56456 0.85954 0.08108 0.0
C574 C 0.57012 0.87989 0.02039 0.0
C575 C 0.55176 0.90023 0.01109 0.0
C576 C 0.52843 0.90071 0.06008 0.0
C577 C 0.51205 0.92488 0.03685 0.0
C578 C 0.4857 0.91658 0.99346 0.0
C579 C 0.5075 0.94279 0.12067 0.0
C580 C 0.52998 0.93807 0.96842 0.0
C581 C 0.55262 0.92332 0.95368 0.0
C582 C 0.57152 0.93072 0.89005 0.0
C583 C 0.56718 0.95367 0.8401 0.0
C584 C 0.54432 0.9693 0.85468 0.0
C585 C 0.52558 0.96141 0.92027 0.0
H586 H 0.66761 0.50506 0.13421 0.0
H587 H 0.70613 0.57092 1.00575 0.0
H588 H 0.66745 0.57604 0.90487 0.0
H589 H 0.63906 0.47691 0.93654 0.0
H590 H 0.60825 0.46736 0.98798 0.0
H591 H 0.63783 0.46931 0.05482 0.0
H592 H 0.61622 0.50211 0.1681 0.0
H593 H 0.5859 0.49982 0.10533 0.0
H594 H 0.60077 0.53166 0.12746 0.0
H595 H 0.62346 0.57405 0.81882 0.0
H596 H 0.58007 0.56339 0.75014 0.0
H597 H 0.57092 0.49819 0.93287 0.0
C598 C 0.66782 0.52057 0.0848 0.0
C599 C 0.6898 0.53762 0.07739 0.0
C600 C 0.68946 0.55767 0.0122 0.0
C601 C 0.66754 0.56073 0.95489 0.0
C602 C 0.64606 0.54361 0.96382 0.0
C603 C 0.64609 0.52389 0.02723 0.0
C604 C 0.62082 0.50777 0.02234 0.0
C605 C 0.62684 0.47861 0.99898 0.0
C606 C 0.605 0.51051 0.11108 0.0
C607 C 0.60669 0.52117 0.94547 0.0
C608 C 0.62137 0.54203 0.9132 0.0
C609 C 0.61201 0.5576 0.84324 0.0
C610 C 0.5874 0.55133 0.80422 0.0
C611 C 0.57253 0.52943 0.83405 0.0
C612 C 0.58212 0.51468 0.90726 0.0
H613 H 0.98635 0.7036 1.00034 0.0
H614 H 0.06078 0.6892 0.13371 0.0
H615 H 0.06615 0.64754 0.04521 0.0
H616 H 0.965 0.63602 0.9923 0.0
H617 H 0.95019 0.63655 0.88173 0.0
H618 H 0.95165 0.66635 0.95062 0.0
H619 H 0.9757 0.6907 0.82579 0.0
H620 H 0.97542 0.66175 0.7525 0.0
H621 H 1.0062 0.67783 0.78034 0.0
H622 H 0.06319 0.60668 0.94671 0.0
H623 H 0.05242 0.56948 0.84286 0.0
H624 H 0.98003 0.6088 0.76778 0.0
C625 C 1.00378 0.69165 0.01041 0.0
C626 C 0.02326 0.69969 0.0741 0.0
C627 C 0.04569 0.68348 0.08545 0.0
C628 C 0.04891 0.65975 0.03533 0.0
C629 C 0.02951 0.65225 0.97327 0.0
C630 C 1.00735 0.66766 0.9603 0.0
C631 C 0.98945 0.65456 0.88957 0.0
C632 C 0.96244 0.64797 0.93091 0.0
C633 C 0.9865 0.67224 0.80707 0.0
C634 C 1.00494 0.62943 0.86546 0.0
C635 C 0.02801 0.62865 0.91479 0.0
C636 C 0.04535 0.60729 0.90693 0.0
C637 C 0.03913 0.58624 0.84718 0.0
C638 C 0.01588 0.58652 0.79442 0.0
C639 C 0.99835 0.60834 0.80503 0.0
H640 H 0.03702 0.21062 0.28405 0.0
H641 H 0.97777 0.27209 0.29719 0.0
H642 H 0.95794 0.25156 0.4316 0.0
H643 H 0.99826 0.16164 0.30334 0.0
H644 H 0.01858 0.14063 0.37134 0.0
H645 H 0.03368 0.16528 0.30399 0.0
H646 H 0.05635 0.18497 0.44741 0.0
H647 H 0.04061 0.16031 0.51569 0.0
H648 H 0.03663 0.1949 0.54404 0.0
H649 H 0.93791 0.21866 0.53403 0.0
H650 H 0.91818 0.17674 0.58068 0.0
H651 H 0.98913 0.13577 0.48795 0.0
C652 C 0.02052 0.22022 0.31798 0.0
C653 C 1.00877 0.24268 0.28095 0.0
C654 C 0.98712 0.25491 0.32556 0.0
C655 C 0.97588 0.24347 0.40227 0.0
C656 C 0.98685 0.22012 0.43402 0.0
C657 C 1.00907 0.20887 0.39377 0.0
C658 C 0.01379 0.18119 0.42629 0.0
C659 C 0.01613 0.16105 0.34656 0.0
C660 C 0.0383 0.18031 0.48697 0.0
C661 C 0.98894 0.17736 0.48133 0.0
C662 C 0.97447 0.2004 0.49005 0.0
C663 C 0.94928 0.20058 0.5285 0.0
C664 C 0.93799 0.17641 0.55323 0.0
C665 C 0.9514 0.15219 0.53556 0.0
C666 C 0.97787 0.15328 0.50449 0.0
H667 H 0.34213 0.05668 0.30595 0.0
H668 H 0.27207 1.0094 0.352 0.0
H669 H 0.29093 0.99396 0.49414 0.0
H670 H 0.38431 1.00843 0.35419 0.0
H671 H 0.40941 0.02872 0.40676 0.0
H672 H 0.38761 0.04274 0.32543 0.0
H673 H 0.37456 0.07878 0.44055 0.0
H674 H 0.39507 0.06497 0.52689 0.0
H675 H 0.36021 0.07025 0.54734 0.0
H676 H 0.32127 0.97385 0.60141 0.0
H677 H 0.35918 0.95317 0.67267 0.0
H678 H 0.41029 0.01433 0.56575 0.0
C679 C 0.33037 0.04381 0.34765 0.0
C680 C 0.30565 0.03426 0.31771 0.0
C681 C 0.29084 0.01742 0.37401 0.0
C682 C 0.3015 1.00838 0.45487 0.0
C683 C 0.32687 0.01649 0.47861 0.0
C684 C 0.341 0.03415 0.42725 0.0
C685 C 0.36935 0.03628 0.45836 0.0
C686 C 0.38878 0.02857 0.38164 0.0
C687 C 0.37516 0.06421 0.49572 0.0
C688 C 0.36931 0.01596 0.53208 0.0
C689 C 0.34456 1.00502 0.54332 0.0
C690 C 0.34054 0.98293 0.59618 0.0
C691 C 0.3624 0.97132 0.63693 0.0
C692 C 0.38812 0.98192 0.62567 0.0
C693 C 0.39119 1.00523 0.57519 0.0
H694 H 0.42841 0.32135 0.18793 0.0
H695 H 0.49108 0.27982 0.32127 0.0
H696 H 0.48918 0.31177 0.44798 0.0
H697 H 0.45172 0.37525 0.1923 0.0
H698 H 0.42429 0.39699 0.2172 0.0
H699 H 0.41823 0.36493 0.16997 0.0
H700 H 0.38751 0.35387 0.30391 0.0
H701 H 0.39323 0.38647 0.35173 0.0
H702 H 0.39914 0.35767 0.4184 0.0
H703 H 0.49708 0.355 0.50952 0.0
H704 H 0.51217 0.40042 0.49776 0.0
H705 H 0.44358 0.41905 0.33721 0.0
C706 C 0.44038 0.31829 0.2472 0.0
C707 C 0.46003 0.29858 0.24498 0.0
C708 C 0.47575 0.29476 0.32203 0.0
C709 C 0.47476 0.31297 0.39452 0.0
C710 C 0.45785 0.33473 0.38898 0.0
C711 C 0.44005 0.33696 0.31846 0.0
C712 C 0.42915 0.36485 0.31417 0.0
C713 C 0.43106 0.37613 0.21785 0.0
C714 C 0.40057 0.36576 0.34919 0.0
C715 C 0.44741 0.37891 0.38015 0.0
C716 C 0.46253 0.361 0.4272 0.0
C717 C 0.48474 0.36915 0.47572 0.0
C718 C 0.49325 0.39533 0.46863 0.0
C719 C 0.47943 0.41329 0.41386 0.0
C720 C 0.45489 0.40551 0.37731 0.0
H721 H 0.24832 0.49034 0.32312 0.0
H722 H 0.24236 0.41921 0.15919 0.0
H723 H 0.20498 0.40434 0.25122 0.0
H724 H 0.20861 0.46141 0.54322 0.0
H725 H 0.19345 0.49345 0.55649 0.0
H726 H 0.22772 0.49083 0.52395 0.0
H727 H 0.21852 0.51917 0.38451 0.0
H728 H 0.18471 0.52184 0.41581 0.0
H729 H 0.19342 0.50874 0.30512 0.0
H730 H 0.15997 0.40669 0.30479 0.0
H731 H 0.11534 0.42538 0.30959 0.0
H732 H 0.14669 0.49814 0.42599 0.0
C733 C 0.24032 0.47069 0.31238 0.0
C734 C 0.24803 0.4558 0.2354 0.0
C735 C 0.23689 0.4306 0.21924 0.0
C736 C 0.21549 0.42211 0.27136 0.0
C737 C 0.20545 0.43915 0.33877 0.0
C738 C 0.21808 0.46276 0.36147 0.0
C739 C 0.19991 0.481 0.4156 0.0
C740 C 0.2079 0.48169 0.51574 0.0
C741 C 0.19907 0.50927 0.37769 0.0
C742 C 0.17402 0.46646 0.40341 0.0
C743 C 0.17794 0.44142 0.36618 0.0
C744 C 0.15678 0.42601 0.33574 0.0
C745 C 0.13142 0.43704 0.33715 0.0
C746 C 0.12745 0.46364 0.36575 0.0
C747 C 0.1488 0.47769 0.40482 0.0
H748 H 0.97736 0.78388 0.96749 0.0
H749 H 0.92816 0.82653 0.15943 0.0
H750 H 0.91574 0.8575 0.04237 0.0
H751 H 1.00982 0.82133 0.89264 0.0
H752 H 1.01055 0.8171 0.77109 0.0
H753 H 1.00071 0.79022 0.83892 0.0
H754 H 0.95683 0.78664 0.75265 0.0
H755 H 0.9668 0.81392 0.68353 0.0
H756 H 0.93574 0.81511 0.74326 0.0
H757 H 0.93216 0.89384 0.95929 0.0
H758 H 0.96726 0.92375 0.91494 0.0
H759 H 1.00335 0.86095 0.75432 0.0
C760 C 0.96227 0.79847 0.98219 0.0
C761 C 0.95472 0.80372 0.0727 0.0
C762 C 0.93484 0.8227 0.0907 0.0
C763 C 0.92757 0.8404 0.02391 0.0
C764 C 0.93966 0.83819 0.93895 0.0
C765 C 0.9551 0.81635 0.91526 0.0
C766 C 0.97057 0.82145 0.82915 0.0
C767 C 0.99961 0.81205 0.83364 0.0
C768 C 0.95664 0.80853 0.74734 0.0
C769 C 0.96795 0.85124 0.82606 0.0
C770 C 0.94827 0.86028 0.88454 0.0
C771 C 0.94676 0.88698 0.91061 0.0
C772 C 0.96709 0.90405 0.88498 0.0
C773 C 0.98864 0.89451 0.83258 0.0
C774 C 0.98742 0.86859 0.79582 0.0
H775 H 0.75848 0.03087 0.05116 0.0
H776 H 0.71766 0.95662 0.08266 0.0
H777 H 0.69612 0.96233 0.93474 0.0
H778 H 0.70774 0.06388 1.00374 0.0
H779 H 0.72155 0.08634 0.92297 0.0
H780 H 0.74257 0.07131 1.00345 0.0
H781 H 0.77199 0.05251 0.87355 0.0
H782 H 0.75071 0.06763 0.79195 0.0
H783 H 0.75745 0.03267 0.7842 0.0
H784 H 0.67079 0.98077 0.81042 0.0
H785 H 0.63888 1.01186 0.74708 0.0
H786 H 0.69183 0.07693 0.80797 0.0
C787 C 0.74619 0.01515 0.02375 0.0
C788 C 0.74012 0.99304 0.0762 0.0
C789 C 0.72291 0.97339 0.0419 0.0
C790 C 0.7108 0.97645 0.95765 0.0
C791 C 0.71588 0.99943 0.9095 0.0
C792 C 0.73324 0.01854 0.94176 0.0
C793 C 0.72996 0.04435 0.893 0.0
C794 C 0.72512 0.06779 0.95977 0.0
C795 C 0.75395 0.04959 0.83203 0.0
C796 C 0.70585 0.0379 0.83683 0.0
C797 C 0.69931 1.01136 0.84186 0.0
C798 C 0.67593 1.00145 0.80526 0.0
C799 C 0.65779 0.01932 0.77014 0.0
C800 C 0.66266 0.04687 0.77558 0.0
C801 C 0.68776 0.05597 0.80247 0.0
H802 H 0.61205 0.72675 0.14972 0.0
H803 H 0.55226 0.7667 0.99686 0.0
H804 H 0.55489 0.73239 0.87887 0.0
H805 H 0.64107 0.68174 0.93556 0.0
H806 H 0.64424 0.65492 0.01308 0.0
H807 H 0.65199 0.68827 0.04964 0.0
H808 H 0.61954 0.68347 0.18324 0.0
H809 H 0.61106 0.65081 0.14675 0.0
H810 H 0.58548 0.6754 0.16048 0.0
H811 H 0.5445 0.6885 0.83209 0.0
H812 H 0.52661 0.64448 0.85507 0.0
H813 H 0.59155 0.6264 0.03219 0.0
C814 C 0.60088 0.72884 0.08812 0.0
C815 C 0.5814 0.74872 0.08361 0.0
C816 C 0.56724 0.75156 1.00245 0.0
C817 C 0.56856 0.73186 0.93479 0.0
C818 C 0.58409 0.70953 0.94942 0.0
C819 C 0.60102 0.70834 0.02281 0.0
C820 C 0.60975 0.68005 0.03838 0.0
C821 C 0.63847 0.67601 1.00725 0.0
C822 C 0.60618 0.67199 0.13799 0.0
C823 C 0.59106 0.66532 0.9756 0.0
C824 C 0.5778 0.68265 0.92035 0.0
C825 C 0.55559 0.67462 0.87161 0.0
C826 C 0.54552 0.64925 0.88467 0.0
C827 C 0.55779 0.63182 0.94504 0.0
C828 C 0.58184 0.63941 0.9857 0.0
H829 H 0.81229 0.53648 0.98069 0.0
H830 H 0.80651 0.61606 0.08913 0.0
H831 H 0.8519 0.62505 0.03971 0.0
H832 H 0.86411 0.52176 0.07181 0.0
H833 H 0.88093 0.50215 0.98632 0.0
H834 H 0.84581 0.50521 0.98287 0.0
H835 H 0.8479 0.5233 0.8209 0.0
H836 H 0.88332 0.51959 0.82166 0.0
H837 H 0.86877 0.55118 0.7972 0.0
H838 H 0.9 0.61897 0.04606 0.0
H839 H 0.94487 0.60181 0.07087 0.0
H840 H 0.92112 0.52553 0.96048 0.0
C841 C 0.81987 0.55648 0.9858 0.0
C842 C 0.80626 0.57548 0.03926 0.0
C843 C 0.81664 0.60135 0.0475 0.0
C844 C 0.84273 0.60642 0.02104 0.0
C845 C 0.85755 0.58565 0.98341 0.0
C846 C 0.84617 0.5614 0.96179 0.0
C847 C 0.86714 0.54077 0.93995 0.0
C848 C 0.8643 0.51607 0.99883 0.0
C849 C 0.86676 0.53325 0.83889 0.0
C850 C 0.89179 0.55623 0.96339 0.0
C851 C 0.886 0.58226 0.98588 0.0
C852 C 0.90495 0.59902 0.02431 0.0
C853 C 0.93036 0.58903 0.03917 0.0
C854 C 0.93673 0.56254 0.01548 0.0
C855 C 0.91717 0.54616 0.97607 0.0
H856 H 0.98783 0.20526 0.9745 0.0
H857 H 0.07048 0.22296 0.93232 0.0
H858 H 0.07514 0.18183 0.8385 0.0
H859 H 0.99334 0.13809 0.99892 0.0
H860 H 0.96422 0.12822 0.93725 0.0
H861 H 0.96579 0.16038 0.99148 0.0
H862 H 0.95663 0.18384 0.84197 0.0
H863 H 0.95341 0.15199 0.78616 0.0
H864 H 0.97638 0.17592 0.74334 0.0
H865 H 0.07088 0.13525 0.75716 0.0
H866 H 0.05743 0.09163 0.69121 0.0
H867 H 0.9775 0.10546 0.78517 0.0
C868 C 1.00678 0.20088 0.94348 0.0
C869 C 0.02874 0.21775 0.96023 0.0
C870 C 0.05324 0.21084 0.91938 0.0
C871 C 0.05608 0.18729 0.86647 0.0
C872 C 0.03415 0.17078 0.85334 0.0
C873 C 1.00981 0.17771 0.88937 0.0
C874 C 0.9893 0.1566 0.86704 0.0
C875 C 0.97747 0.14513 0.95379 0.0
C876 C 0.96765 0.16775 0.80603 0.0
C877 C 1.00593 0.13619 0.81574 0.0
C878 C 0.03176 0.14466 0.80765 0.0
C879 C 0.05064 0.12869 0.76326 0.0
C880 C 0.04291 0.10375 0.72654 0.0
C881 C 0.01656 0.09468 0.7348 0.0
C882 C 0.99792 0.11153 0.77892 0.0
H883 H 0.33319 0.06185 0.92334 0.0
H884 H 0.33953 0.98744 0.06161 0.0
H885 H 0.38259 0.97901 0.9881 0.0
H886 H 0.36418 0.03763 0.71001 0.0
H887 H 0.38184 0.06802 0.69004 0.0
H888 H 0.35061 0.06871 0.74886 0.0
H889 H 0.3715 0.09364 0.88072 0.0
H890 H 0.40348 0.0932 0.82695 0.0
H891 H 0.39923 0.07977 0.93835 0.0
H892 H 0.42779 0.98159 0.91867 0.0
H893 H 0.4679 0.98942 0.82747 0.0
H894 H 0.43222 0.05975 0.71883 0.0
C895 C 0.3432 0.04336 0.93535 0.0
C896 C 0.33269 0.02514 0.99783 0.0
C897 C 0.34693 1.00153 0.01345 0.0
C898 C 0.3716 0.99668 0.97266 0.0
C899 C 0.38196 0.01545 0.91476 0.0
C900 C 0.36793 0.03792 0.89365 0.0
C901 C 0.38387 0.05469 0.82856 0.0
C902 C 0.36923 0.0574 0.73887 0.0
C903 C 0.38991 0.08196 0.87114 0.0
C904 C 0.40897 0.03818 0.81671 0.0
C905 C 0.40757 0.01597 0.86926 0.0
C906 C 0.42883 0.99858 0.87556 0.0
C907 C 0.45164 1.00326 0.82384 0.0
C908 C 0.45324 0.02506 0.76572 0.0
C909 C 0.43154 0.04282 0.76239 0.0
H910 H 0.45835 0.34384 0.96827 0.0
H911 H 0.5293 0.30131 0.88713 0.0
H912 H 0.54221 0.33888 0.79173 0.0
H913 H 0.44592 0.37918 0.76016 0.0
H914 H 0.43617 0.40896 0.82065 0.0
H915 H 0.43097 0.37719 0.87071 0.0
H916 H 0.45702 0.39307 0.01132 0.0
H917 H 0.46344 0.42456 0.96149 0.0
H918 H 0.49048 0.40454 0.99829 0.0
H919 H 0.54891 0.38385 0.71294 0.0
H920 H 0.54908 0.43021 0.66362 0.0
H921 H 0.47481 0.44351 0.80396 0.0
C922 C 0.47661 0.34212 0.93036 0.0
C923 C 0.49278 0.31922 0.93646 0.0
C924 C 0.51623 0.31817 0.88355 0.0
C925 C 0.52385 0.33963 0.82938 0.0
C926 C 0.5079 0.36222 0.8283 0.0
C927 C 0.48469 0.36344 0.87747 0.0
C928 C 0.47207 0.39061 0.87198 0.0
C929 C 0.44466 0.38887 0.82825 0.0
C930 C 0.47066 0.40396 0.96635 0.0
C931 C 0.49161 0.4046 0.81131 0.0
C932 C 0.51213 0.38795 0.78636 0.0
C933 C 0.53285 0.39691 0.73235 0.0
C934 C 0.53276 0.42346 0.70461 0.0
C935 C 0.51218 0.44115 0.73093 0.0
C936 C 0.49115 0.43109 0.78367 0.0
H937 H 0.1923 0.50099 0.06277 0.0
H938 H 0.24925 0.50956 0.84528 0.0
H939 H 0.21254 0.51819 0.73933 0.0
H940 H 0.14469 0.4652 0.93412 0.0
H941 H 0.11674 0.48035 0.99045 0.0
H942 H 0.14752 0.47712 0.04943 0.0
H943 H 0.14804 0.52752 0.08315 0.0
H944 H 0.11718 0.53089 0.02459 0.0
H945 H 0.14536 0.55017 0.99112 0.0
H946 H 0.16818 0.52453 0.65564 0.0
H947 H 0.12197 0.52724 0.60358 0.0
H948 H 0.09464 0.51197 0.87606 0.0
C949 C 0.19727 0.50455 0.99281 0.0
C950 C 0.22398 0.50427 0.96272 0.0
C951 C 0.22918 0.5098 0.87072 0.0
C952 C 0.20835 0.51457 0.80983 0.0
C953 C 0.18229 0.51387 0.84166 0.0
C954 C 0.1768 0.50904 0.93134 0.0
C955 C 0.14723 0.50838 0.94888 0.0
C956 C 0.13855 0.48114 0.98268 0.0
C957 C 0.13898 0.53057 0.01588 0.0
C958 C 0.13674 0.51335 0.85484 0.0
C959 C 0.1572 0.51671 0.79386 0.0
C960 C 0.15214 0.52175 0.70305 0.0
C961 C 0.12571 0.5233 0.67402 0.0
C962 C 0.10439 0.5197 0.73522 0.0
C963 C 0.11027 0.51466 0.82693 0.0
H964 H 1.00296 0.83205 0.4364 0.0
H965 H 0.02982 0.85589 0.17199 0.0
H966 H 0.03935 0.90078 0.233 0.0
H967 H 0.97048 0.88727 0.49878 0.0
H968 H 0.98049 0.89199 0.61508 0.0
H969 H 0.98005 0.85934 0.56417 0.0
H970 H 0.02776 0.8506 0.59682 0.0
H971 H 0.03158 0.88243 0.65279 0.0
H972 H 0.05304 0.87318 0.56068 0.0
H973 H 0.04549 0.94397 0.3234 0.0
H974 H 0.04662 0.98143 0.4342 0.0
H975 H 0.01302 0.93128 0.63821 0.0
C976 C 1.01169 0.84648 0.39226 0.0
C977 C 0.01627 0.84013 0.29951 0.0
C978 C 0.02679 0.86001 0.24348 0.0
C979 C 0.03209 0.88568 0.27753 0.0
C980 C 0.02687 0.89152 0.36851 0.0
C981 C 0.01728 0.87237 0.42552 0.0
C982 C 0.01298 0.88412 0.5202 0.0
C983 C 0.98429 0.8805 0.55152 0.0
C984 C 0.03245 0.8718 0.58657 0.0
C985 C 0.01975 0.91315 0.50597 0.0
C986 C 0.02861 0.91679 0.41864 0.0
C987 C 0.03806 0.94137 0.39135 0.0
C988 C 0.0384 0.96269 0.45448 0.0
C989 C 0.02825 0.95989 0.54308 0.0
C990 C 0.0194 0.9345 0.5694 0.0
H991 H 0.69073 0.9761 0.3841 0.0
H992 H 0.72693 0.05364 0.40579 0.0
H993 H 0.68677 0.07099 0.48142 0.0
H994 H 0.62514 0.99631 0.34156 0.0
H995 H 0.6094 0.9722 0.41164 0.0
H996 H 0.6412 0.96518 0.36203 0.0
H997 H 0.65942 0.95602 0.52136 0.0
H998 H 0.62759 0.96335 0.57092 0.0
H999 H 0.65647 0.98102 0.60939 0.0
H1000 H 0.64073 0.08168 0.52888 0.0
H1001 H 0.59507 0.08394 0.58243 0.0
H1002 H 0.58834 0.99854 0.55552 0.0
C1003 C 0.69041 0.99656 0.40708 0.0
C1004 C 0.71228 1.01349 0.38942 0.0
C1005 C 0.71084 0.04019 0.41961 0.0
C1006 C 0.68793 0.05028 0.46189 0.0
C1007 C 0.66658 0.03336 0.47584 0.0
C1008 C 0.66782 1.00686 0.45232 0.0
C1009 C 0.64193 0.99313 0.47727 0.0
C1010 C 0.62866 0.98099 0.39297 0.0
C1011 C 0.64663 0.97213 0.54903 0.0
C1012 C 0.62572 0.01623 0.51596 0.0
C1013 C 0.64039 0.03925 0.51229 0.0
C1014 C 0.6294 0.06366 0.53491 0.0
C1015 C 0.60317 0.06467 0.56515 0.0
C1016 C 0.58783 0.04141 0.5756 0.0
C1017 C 0.59939 0.01672 0.54977 0.0
H1018 H 0.54046 0.69306 0.26883 0.0
H1019 H 0.53356 0.74986 0.49213 0.0
H1020 H 0.52492 0.71293 0.59588 0.0
H1021 H 0.49264 0.64547 0.34454 0.0
H1022 H 0.51202 0.61744 0.30685 0.0
H1023 H 0.51469 0.64833 0.24916 0.0
H1024 H 0.57774 0.64578 0.38812 0.0
H1025 H 0.56502 0.64871 0.2751 0.0
H1026 H 0.5625 0.61777 0.33175 0.0
H1027 H 0.51709 0.66813 0.67604 0.0
H1028 H 0.51462 0.62143 0.7236 0.0
H1029 H 0.5332 0.59513 0.45073 0.0
C1030 C 0.53753 0.69808 0.33962 0.0
C1031 C 0.53818 0.72484 0.37162 0.0
C1032 C 0.53304 0.72985 0.46485 0.0
C1033 C 0.52826 0.70887 0.52461 0.0
C1034 C 0.5288 0.68281 0.49075 0.0
C1035 C 0.53347 0.67747 0.40017 0.0
C1036 C 0.53454 0.64788 0.38046 0.0
C1037 C 0.51213 0.63929 0.31649 0.0
C1038 C 0.56159 0.63958 0.34169 0.0
C1039 C 0.53032 0.63722 0.47446 0.0
C1040 C 0.52636 0.65756 0.53706 0.0
C1041 C 0.52073 0.65222 0.62748 0.0
C1042 C 0.51956 0.62562 0.65435 0.0
C1043 C 0.52501 0.60458 0.59235 0.0
C1044 C 0.53009 0.61068 0.50092 0.0
H1045 H 0.85486 0.53314 0.23202 0.0
H1046 H 0.79861 0.54185 0.45273 0.0
H1047 H 0.83534 0.53762 0.5622 0.0
H1048 H 0.90066 0.48797 0.33764 0.0
H1049 H 0.92918 0.50376 0.28937 0.0
H1050 H 0.89817 0.50408 0.2304 0.0
H1051 H 0.90027 0.55509 0.22491 0.0
H1052 H 0.9311 0.55499 0.28474 0.0
H1053 H 0.90372 0.5741 0.32873 0.0
H1054 H 0.87952 0.53501 0.64677 0.0
H1055 H 0.92588 0.5346 0.69937 0.0
H1056 H 0.95277 0.53099 0.42057 0.0
C1057 C 0.85004 0.5341 0.30336 0.0
C1058 C 0.82361 0.53812 0.33338 0.0
C1059 C 0.81848 0.5386 0.42763 0.0
C1060 C 0.83932 0.53643 0.49027 0.0
C1061 C 0.86523 0.53381 0.45772 0.0
C1062 C 0.87054 0.53257 0.36614 0.0
C1063 C 0.90002 0.53131 0.3474 0.0
C1064 C 0.90744 0.50522 0.29833 0.0
C1065 C 0.9093 0.5553 0.29327 0.0
C1066 C 0.9107 0.53229 0.44298 0.0
C1067 C 0.89037 0.5334 0.50576 0.0
C1068 C 0.89553 0.53421 0.59833 0.0
C1069 C 0.92196 0.53386 0.62748 0.0
C1070 C 0.94311 0.53294 0.56429 0.0
C1071 C 0.93719 0.53219 0.4708 0.0
loop_
_geom_bond_atom_site_label_1
_geom_bond_atom_site_label_2
_geom_bond_distance
_geom_bond_site_symmetry_2
_ccdc_geom_bond_type
H0 C3 0.929 . S
H1 C6 0.929 . S
H2 C8 0.930 . S
C3 H0 0.929 . S
C3 C4 1.398 . S
C3 C5 1.396 . S
C4 C3 1.398 . S
C4 C8 1.407 . S
C5 C3 1.396 . S
C5 C6 1.394 . S
C6 H1 0.929 . S
C6 C5 1.394 . S
C6 C7 1.382 . S
C7 C6 1.382 . S
C7 C8 1.392 . S
C7 N9 1.420 . S
C8 H2 0.930 . S
C8 C4 1.407 . S
C8 C7 1.392 . S
N9 C7 1.420 . S
N9 C10 1.244 . S
C10 N9 1.244 . S
H11 C14 0.929 . S
H12 C17 0.929 . S
H13 C19 0.930 . S
C14 H11 0.929 . S
C14 C15 1.398 . S
C14 C16 1.396 . S
C15 C14 1.398 . S
C15 C19 1.407 . S
C16 C14 1.396 . S
C16 C17 1.394 . S
C17 H12 0.929 . S
C17 C16 1.394 . S
C17 C18 1.382 . S
C18 C17 1.382 . S
C18 C19 1.392 . S
C18 N20 1.420 . S
C19 H13 0.930 . S
C19 C15 1.407 . S
C19 C18 1.392 . S
N20 C18 1.420 . S
N20 C21 1.244 . S
C21 N20 1.244 . S
H22 C25 0.929 . S
H23 C28 0.929 . S
H24 C30 0.930 . S
C25 H22 0.929 . S
C25 C26 1.398 . S
C25 C27 1.396 . S
C26 C25 1.398 . S
C26 C30 1.407 . S
C27 C25 1.396 . S
C27 C28 1.394 . S
C28 H23 0.929 . S
C28 C27 1.394 . S
C28 C29 1.382 . S
C29 C28 1.382 . S
C29 C30 1.392 . S
C29 N31 1.420 . S
C30 H24 0.930 . S
C30 C26 1.407 . S
C30 C29 1.392 . S
N31 C29 1.420 . S
N31 C32 1.244 . S
C32 N31 1.244 . S
H33 C36 0.929 . S
H34 C39 0.929 . S
H35 C41 0.930 . S
C36 H33 0.929 . S
C36 C37 1.398 . S
C36 C38 1.396 . S
C37 C36 1.398 . S
C37 C41 1.407 . S
C38 C36 1.396 . S
C38 C39 1.394 . S
C39 H34 0.929 . S
C39 C38 1.394 . S
C39 C40 1.382 . S
C40 C39 1.382 . S
C40 C41 1.392 . S
C40 N42 1.420 . S
C41 H35 0.930 . S
C41 C37 1.407 . S
C41 C40 1.392 . S
N42 C40 1.420 . S
N42 C43 1.244 . S
C43 N42 1.244 . S
H44 C47 0.929 . S
H45 C50 0.929 . S
H46 C52 0.930 . S
C47 H44 0.929 . S
C47 C48 1.398 . S
C47 C49 1.396 1_556 S
C48 C47 1.398 . S
C48 C52 1.407 . S
C49 C47 1.396 1_554 S
C49 C50 1.394 . S
C50 H45 0.929 . S
C50 C49 1.394 . S
C50 C51 1.382 . S
C51 C50 1.382 . S
C51 C52 1.392 1_554 S
C51 N53 1.420 . S
C52 H46 0.930 . S
C52 C48 1.407 . S
C52 C51 1.392 1_556 S
N53 C51 1.420 . S
N53 C54 1.244 . S
C54 N53 1.244 . S
H55 C58 0.929 . S
H56 C61 0.929 . S
H57 C63 0.930 . S
C58 H55 0.929 . S
C58 C59 1.398 . S
C58 C60 1.396 1_556 S
C59 C58 1.398 . S
C59 C63 1.407 . S
C60 C58 1.396 1_554 S
C60 C61 1.394 . S
C61 H56 0.929 . S
C61 C60 1.394 . S
C61 C62 1.382 . S
C62 C61 1.382 . S
C62 C63 1.392 1_554 S
C62 N64 1.420 . S
C63 H57 0.930 . S
C63 C59 1.407 . S
C63 C62 1.392 1_556 S
N64 C62 1.420 . S
N64 C65 1.244 . S
C65 N64 1.244 . S
H66 C69 0.929 . S
H67 C72 0.929 . S
H68 C74 0.930 . S
C69 H66 0.929 . S
C69 C70 1.398 . S
C69 C71 1.396 1_556 S
C70 C69 1.398 . S
C70 C74 1.407 . S
C71 C69 1.396 1_554 S
C71 C72 1.394 . S
C72 H67 0.929 . S
C72 C71 1.394 . S
C72 C73 1.378 1_554 S
C73 C72 1.378 1_556 S
C73 C74 1.396 . S
C73 N75 1.420 1_556 S
C74 H68 0.930 . S
C74 C70 1.407 . S
C74 C73 1.396 . S
N75 C73 1.420 1_554 S
N75 C76 1.244 . S
C76 N75 1.244 . S
H77 C80 0.929 . S
H78 C83 0.929 . S
H79 C85 0.930 . S
C80 H77 0.929 . S
C80 C81 1.398 . S
C80 C82 1.396 1_556 S
C81 C80 1.398 . S
C81 C85 1.407 . S
C82 C80 1.396 1_554 S
C82 C83 1.394 . S
C83 H78 0.929 . S
C83 C82 1.394 . S
C83 C84 1.382 . S
C84 C83 1.382 . S
C84 C85 1.392 1_554 S
C84 N86 1.420 . S
C85 H79 0.930 . S
C85 C81 1.407 . S
C85 C84 1.392 1_556 S
N86 C84 1.420 . S
N86 C87 1.244 . S
C87 N86 1.244 . S
Gd88 N119 2.640 1_545 S
Gd88 N125 2.601 . S
Gd88 O132 2.545 . S
Gd88 O133 2.606 1_655 S
Gd88 O135 2.429 . S
Gd88 O136 2.545 1_655 S
Gd88 O137 2.412 . S
Gd88 O139 2.362 1_545 S
Gd88 O140 2.324 1_655 S
Gd88 C147 2.828 . S
Gd89 N98 2.661 1_565 S
Gd89 N102 2.601 1_565 S
Gd89 O133 2.362 1_565 S
Gd89 O134 2.324 1_455 S
Gd89 O138 2.545 . S
Gd89 O139 2.606 1_455 S
Gd89 O141 2.429 . S
Gd89 O142 2.545 . S
Gd89 O143 2.412 . S
Gd89 C156 2.828 . S
C90 C93 1.417 1_554 S
C90 C95 1.431 . S
C90 C96 1.412 . S
C91 C94 1.437 1_554 S
C91 C95 1.317 . S
C91 H110 0.929 . S
C92 C93 1.426 . S
C92 C94 1.413 . S
C92 N102 1.359 . S
C93 C90 1.417 1_556 S
C93 C92 1.426 . S
C93 N98 1.350 . S
C94 C91 1.437 1_556 S
C94 C92 1.413 . S
C94 C104 1.391 . S
C95 C90 1.431 . S
C95 C91 1.317 . S
C95 H106 0.930 . S
C96 C90 1.412 . S
C96 C97 1.355 . S
C96 H108 0.930 . S
C97 C96 1.355 . S
C97 C99 1.402 1_554 S
C97 H109 0.930 1_455 S
N98 Gd89 2.661 1_545 S
N98 C93 1.350 . S
N98 C99 1.307 . S
C99 C97 1.402 1_556 S
C99 N98 1.307 . S
C99 H100 0.930 1_455 S
H100 C99 0.930 1_655 S
C101 N102 1.334 1_565 S
C101 C103 1.394 . S
C101 H105 0.930 . S
N102 Gd89 2.601 1_545 S
N102 C92 1.359 . S
N102 C101 1.334 1_545 S
C103 C101 1.394 . S
C103 C104 1.359 1_565 S
C103 H115 0.930 . S
C104 C94 1.391 . S
C104 C103 1.359 1_545 S
C104 H116 0.929 . S
H105 C101 0.930 . S
H106 C95 0.930 . S
H107 C124 0.930 . S
H108 C96 0.930 . S
H109 C97 0.930 1_655 S
H110 C91 0.929 . S
H111 C129 0.930 . S
H112 C120 0.930 . S
H113 C121 0.930 . S
H114 C145 0.929 . S
H115 C103 0.930 . S
H116 C104 0.929 . S
H117 C146 0.930 . S
H118 C127 0.930 . S
N119 Gd88 2.640 1_565 S
N119 C123 1.359 . S
N119 C124 1.322 1_655 S
C120 H112 0.930 . S
C120 C121 1.355 1_655 S
C120 C122 1.412 . S
C121 H113 0.930 . S
C121 C120 1.355 1_455 S
C121 C124 1.402 . S
C122 C120 1.412 . S
C122 C123 1.417 . S
C122 C146 1.431 . S
C123 N119 1.359 . S
C123 C122 1.417 . S
C123 C126 1.426 1_565 S
C124 H107 0.930 . S
C124 N119 1.322 1_455 S
C124 C121 1.402 . S
N125 Gd88 2.601 . S
N125 C126 1.359 . S
N125 C129 1.334 . S
C126 C123 1.426 1_545 S
C126 N125 1.359 . S
C126 C130 1.408 1_545 S
C127 H118 0.930 . S
C127 C128 1.359 . S
C127 C129 1.394 . S
C128 C127 1.359 . S
C128 C130 1.378 1_545 S
C128 H131 0.929 . S
C129 H111 0.930 . S
C129 N125 1.334 . S
C129 C127 1.394 . S
C130 C126 1.408 1_565 S
C130 C128 1.378 1_565 S
C130 C145 1.456 . S
H131 C128 0.929 . S
O132 Gd88 2.545 . S
O132 C147 1.258 . S
O133 Gd88 2.606 1_455 S
O133 Gd89 2.362 1_545 S
O133 C144 1.284 . S
O134 Gd89 2.324 1_655 S
O134 C154 1.254 1_565 S
O135 Gd88 2.429 . S
O135 C154 1.268 . S
O136 Gd88 2.545 1_455 S
O136 C144 1.250 . S
O137 Gd88 2.412 . S
O137 C147 1.252 . S
O138 Gd89 2.545 . S
O138 C156 1.258 . S
O139 Gd88 2.362 1_565 S
O139 Gd89 2.606 1_655 S
O139 C155 1.284 . S
O140 Gd88 2.324 1_455 S
O140 C163 1.254 . S
O141 Gd89 2.429 . S
O141 C163 1.268 1_565 S
O142 Gd89 2.545 . S
O142 C155 1.250 1_455 S
O143 Gd89 2.412 . S
O143 C156 1.252 . S
C144 O133 1.284 . S
C144 O136 1.250 . S
C145 H114 0.929 . S
C145 C130 1.456 . S
C145 C146 1.317 . S
C146 H117 0.930 . S
C146 C122 1.431 . S
C146 C145 1.317 . S
C147 Gd88 2.828 . S
C147 O132 1.258 . S
C147 O137 1.252 . S
C147 C148 1.497 . S
C148 C147 1.497 . S
C148 C149 1.395 . S
C148 C150 1.380 . S
C149 C148 1.395 . S
C149 C152 1.398 . S
C149 H164 0.930 . S
C150 C148 1.380 . S
C150 C151 1.391 . S
C150 H165 0.930 1_655 S
C151 C150 1.391 . S
C151 C153 1.387 . S
C152 C149 1.398 . S
C152 C153 1.380 . S
C152 H166 0.930 . S
C153 C151 1.387 . S
C153 C152 1.380 . S
C153 H167 0.930 . S
C154 O134 1.254 1_545 S
C154 O135 1.268 . S
C155 O139 1.284 . S
C155 O142 1.250 1_655 S
C156 Gd89 2.828 . S
C156 O138 1.258 . S
C156 O143 1.252 . S
C156 C157 1.497 . S
C157 C156 1.497 . S
C157 C158 1.395 . S
C157 C159 1.380 . S
C158 C157 1.395 . S
C158 C161 1.398 . S
C158 H168 0.930 . S
C159 C157 1.380 . S
C159 C160 1.391 . S
C159 H169 0.948 . S
C160 C159 1.391 . S
C160 C162 1.387 1_556 S
C161 C158 1.398 . S
C161 C162 1.380 1_556 S
C161 H170 0.930 . S
C162 C160 1.387 1_554 S
C162 C161 1.380 1_554 S
C162 H171 0.930 . S
C163 O140 1.254 . S
C163 O141 1.268 1_545 S
H164 C149 0.930 . S
H165 C150 0.930 1_455 S
H166 C152 0.930 . S
H167 C153 0.930 . S
H168 C158 0.930 . S
H169 C159 0.948 . S
H170 C161 0.930 . S
H171 C162 0.930 . S
Gd172 N203 2.661 . S
Gd172 N209 2.601 . S
Gd172 O216 2.545 . S
Gd172 O217 2.606 1_565 S
Gd172 O219 2.429 . S
Gd172 O220 2.545 1_565 S
Gd172 O221 2.412 . S
Gd172 O223 2.362 . S
Gd172 O224 2.324 1_565 S
Gd172 C231 2.828 . S
Gd173 N182 2.661 . S
Gd173 N186 2.601 . S
Gd173 O217 2.362 . S
Gd173 O218 2.324 1_545 S
Gd173 O222 2.545 . S
Gd173 O223 2.606 1_545 S
Gd173 O225 2.429 . S
Gd173 O226 2.545 . S
Gd173 O227 2.412 . S
Gd173 C240 2.828 . S
C174 C177 1.417 1_554 S
C174 C179 1.431 . S
C174 C180 1.412 . S
C175 C178 1.437 1_554 S
C175 C179 1.317 . S
C175 H194 0.929 . S
C176 C177 1.426 . S
C176 C178 1.413 . S
C176 N186 1.359 . S
C177 C174 1.417 1_556 S
C177 C176 1.426 . S
C177 N182 1.350 . S
C178 C175 1.437 1_556 S
C178 C176 1.413 . S
C178 C188 1.391 . S
C179 C174 1.431 . S
C179 C175 1.317 . S
C179 H190 0.930 . S
C180 C174 1.412 . S
C180 C181 1.355 . S
C180 H192 0.930 . S
C181 C180 1.355 . S
C181 C183 1.402 1_554 S
C181 H193 0.930 1_545 S
N182 Gd173 2.661 . S
N182 C177 1.350 . S
N182 C183 1.307 . S
C183 C181 1.402 1_556 S
C183 N182 1.307 . S
C183 H184 0.930 1_545 S
H184 C183 0.930 1_565 S
C185 N186 1.334 . S
C185 C187 1.394 . S
C185 H189 0.930 . S
N186 Gd173 2.601 . S
N186 C176 1.359 . S
N186 C185 1.334 . S
C187 C185 1.394 . S
C187 C188 1.359 . S
C187 H199 0.930 . S
C188 C178 1.391 . S
C188 C187 1.359 . S
C188 H200 0.929 . S
H189 C185 0.930 . S
H190 C179 0.930 . S
H191 C208 0.930 . S
H192 C180 0.930 . S
H193 C181 0.930 1_565 S
H194 C175 0.929 . S
H195 C213 0.930 . S
H196 C204 0.930 . S
H197 C205 0.930 . S
H198 C229 0.929 . S
H199 C187 0.930 . S
H200 C188 0.929 . S
H201 C230 0.930 . S
H202 C211 0.930 . S
N203 Gd172 2.661 . S
N203 C207 1.350 . S
N203 C208 1.307 1_565 S
C204 H196 0.930 . S
C204 C205 1.355 1_565 S
C204 C206 1.412 . S
C205 H197 0.930 . S
C205 C204 1.355 1_545 S
C205 C208 1.402 . S
C206 C204 1.412 . S
C206 C207 1.417 . S
C206 C230 1.431 . S
C207 N203 1.350 . S
C207 C206 1.417 . S
C207 C210 1.426 . S
C208 H191 0.930 . S
C208 N203 1.307 1_545 S
C208 C205 1.402 . S
N209 Gd172 2.601 . S
N209 C210 1.359 . S
N209 C213 1.334 . S
C210 C207 1.426 . S
C210 N209 1.359 . S
C210 C214 1.413 . S
C211 H202 0.930 . S
C211 C212 1.359 . S
C211 C213 1.394 . S
C212 C211 1.359 . S
C212 C214 1.391 . S
C212 H215 0.929 . S
C213 H195 0.930 . S
C213 N209 1.334 . S
C213 C211 1.394 . S
C214 C210 1.413 . S
C214 C212 1.391 . S
C214 C229 1.437 . S
H215 C212 0.929 . S
O216 Gd172 2.545 . S
O216 C231 1.258 . S
O217 Gd172 2.606 1_545 S
O217 Gd173 2.362 . S
O217 C228 1.284 . S
O218 Gd173 2.324 1_565 S
O218 C238 1.254 . S
O219 Gd172 2.429 . S
O219 C238 1.268 . S
O220 Gd172 2.545 1_545 S
O220 C228 1.250 . S
O221 Gd172 2.412 . S
O221 C231 1.252 . S
O222 Gd173 2.545 . S
O222 C240 1.258 . S
O223 Gd172 2.362 . S
O223 Gd173 2.606 1_565 S
O223 C239 1.284 . S
O224 Gd172 2.324 1_545 S
O224 C247 1.254 . S
O225 Gd173 2.429 . S
O225 C247 1.268 . S
O226 Gd173 2.545 . S
O226 C239 1.250 1_545 S
O227 Gd173 2.412 . S
O227 C240 1.252 . S
C228 O217 1.284 . S
C228 O220 1.250 . S
C229 H198 0.929 . S
C229 C214 1.437 . S
C229 C230 1.317 . S
C230 H201 0.930 . S
C230 C206 1.431 . S
C230 C229 1.317 . S
C231 Gd172 2.828 . S
C231 O216 1.258 . S
C231 O221 1.252 . S
C231 C232 1.497 . S
C232 C231 1.497 . S
C232 C233 1.395 . S
C232 C234 1.380 . S
C233 C232 1.395 . S
C233 C236 1.398 . S
C233 H248 0.930 . S
C234 C232 1.380 . S
C234 C235 1.391 . S
C234 H249 0.930 1_565 S
C235 C234 1.391 . S
C235 C237 1.387 . S
C236 C233 1.398 . S
C236 C237 1.380 . S
C236 H250 0.930 . S
C237 C235 1.387 . S
C237 C236 1.380 . S
C237 H251 0.930 . S
C238 O218 1.254 . S
C238 O219 1.268 . S
C239 O223 1.284 . S
C239 O226 1.250 1_565 S
C240 Gd173 2.828 . S
C240 O222 1.258 . S
C240 O227 1.252 . S
C240 C241 1.497 . S
C241 C240 1.497 . S
C241 C242 1.395 . S
C241 C243 1.380 . S
C242 C241 1.395 . S
C242 C245 1.398 . S
C242 H252 0.930 . S
C243 C241 1.380 . S
C243 C244 1.391 . S
C243 H253 0.930 . S
C244 C243 1.391 . S
C244 C246 1.387 1_556 S
C245 C242 1.398 . S
C245 C246 1.380 1_556 S
C245 H254 0.930 . S
C246 C244 1.387 1_554 S
C246 C245 1.380 1_554 S
C246 H255 0.930 . S
C247 O224 1.254 . S
C247 O225 1.268 . S
H248 C233 0.930 . S
H249 C234 0.930 1_545 S
H250 C236 0.930 . S
H251 C237 0.930 . S
H252 C242 0.930 . S
H253 C243 0.930 . S
H254 C245 0.930 . S
H255 C246 0.930 . S
Gd256 N287 2.661 . S
Gd256 N293 2.601 . S
Gd256 O300 2.545 . S
Gd256 O301 2.606 . S
Gd256 O303 2.429 . S
Gd256 O304 2.545 . S
Gd256 O305 2.412 . S
Gd256 O307 2.362 . S
Gd256 O308 2.324 . S
Gd256 C315 2.828 . S
Gd257 N266 2.661 . S
Gd257 N270 2.601 . S
Gd257 O301 2.362 . S
Gd257 O302 2.324 . S
Gd257 O306 2.545 . S
Gd257 O307 2.606 . S
Gd257 O309 2.429 . S
Gd257 O310 2.545 . S
Gd257 O311 2.412 . S
Gd257 C324 2.828 . S
C258 C261 1.417 . S
C258 C263 1.431 . S
C258 C264 1.412 . S
C259 C262 1.437 . S
C259 C263 1.317 . S
C259 H278 0.929 . S
C260 C261 1.426 . S
C260 C262 1.413 . S
C260 N270 1.359 . S
C261 C258 1.417 . S
C261 C260 1.426 . S
C261 N266 1.350 . S
C262 C259 1.437 . S
C262 C260 1.413 . S
C262 C272 1.391 . S
C263 C258 1.431 . S
C263 C259 1.317 . S
C263 H274 0.930 . S
C264 C258 1.412 . S
C264 C265 1.355 . S
C264 H276 0.930 . S
C265 C264 1.355 . S
C265 C267 1.402 . S
C265 H277 0.930 . S
N266 Gd257 2.661 . S
N266 C261 1.350 . S
N266 C267 1.307 . S
C267 C265 1.402 . S
C267 N266 1.307 . S
C267 H268 0.930 . S
H268 C267 0.930 . S
C269 N270 1.334 . S
C269 C271 1.394 . S
C269 H273 0.930 . S
N270 Gd257 2.601 . S
N270 C260 1.359 . S
N270 C269 1.334 . S
C271 C269 1.394 . S
C271 C272 1.359 . S
C271 H283 0.930 . S
C272 C262 1.391 . S
C272 C271 1.359 . S
C272 H284 0.929 . S
H273 C269 0.930 . S
H274 C263 0.930 . S
H275 C292 0.930 . S
H276 C264 0.930 . S
H277 C265 0.930 . S
H278 C259 0.929 . S
H279 C297 0.930 . S
H280 C288 0.930 . S
H281 C289 0.930 . S
H282 C313 0.929 . S
H283 C271 0.930 . S
H284 C272 0.929 . S
H285 C314 0.930 . S
H286 C295 0.930 . S
N287 Gd256 2.661 . S
N287 C291 1.350 . S
N287 C292 1.307 . S
C288 H280 0.930 . S
C288 C289 1.355 . S
C288 C290 1.412 . S
C289 H281 0.930 . S
C289 C288 1.355 . S
C289 C292 1.402 . S
C290 C288 1.412 . S
C290 C291 1.417 . S
C290 C314 1.431 . S
C291 N287 1.350 . S
C291 C290 1.417 . S
C291 C294 1.426 . S
C292 H275 0.930 . S
C292 N287 1.307 . S
C292 C289 1.402 . S
N293 Gd256 2.601 . S
N293 C294 1.359 . S
N293 C297 1.334 . S
C294 C291 1.426 . S
C294 N293 1.359 . S
C294 C298 1.413 . S
C295 H286 0.930 . S
C295 C296 1.359 . S
C295 C297 1.394 . S
C296 C295 1.359 . S
C296 C298 1.391 . S
C296 H299 0.929 . S
C297 H279 0.930 . S
C297 N293 1.334 . S
C297 C295 1.394 . S
C298 C294 1.413 . S
C298 C296 1.391 . S
C298 C313 1.437 . S
H299 C296 0.929 . S
O300 Gd256 2.545 . S
O300 C315 1.258 . S
O301 Gd256 2.606 . S
O301 Gd257 2.362 . S
O301 C312 1.284 . S
O302 Gd257 2.324 . S
O302 C322 1.254 . S
O303 Gd256 2.429 . S
O303 C322 1.268 . S
O304 Gd256 2.545 . S
O304 C312 1.250 . S
O305 Gd256 2.412 . S
O305 C315 1.252 . S
O306 Gd257 2.545 . S
O306 C324 1.258 . S
O307 Gd256 2.362 . S
O307 Gd257 2.606 . S
O307 C323 1.284 . S
O308 Gd256 2.324 . S
O308 C331 1.254 . S
O309 Gd257 2.429 . S
O309 C331 1.268 . S
O310 Gd257 2.545 . S
O310 C323 1.250 . S
O311 Gd257 2.412 . S
O311 C324 1.252 . S
C312 O301 1.284 . S
C312 O304 1.250 . S
C313 H282 0.929 . S
C313 C298 1.437 . S
C313 C314 1.317 . S
C314 H285 0.930 . S
C314 C290 1.431 . S
C314 C313 1.317 . S
C315 Gd256 2.828 . S
C315 O300 1.258 . S
C315 O305 1.252 . S
C315 C316 1.497 . S
C316 C315 1.497 . S
C316 C317 1.395 1_556 S
C316 C318 1.380 . S
C317 C316 1.395 1_554 S
C317 C320 1.398 . S
C317 H332 0.930 . S
C318 C316 1.380 . S
C318 C319 1.391 1_556 S
C318 H333 0.930 . S
C319 C318 1.391 1_554 S
C319 C321 1.387 . S
C320 C317 1.398 . S
C320 C321 1.380 . S
C320 H334 0.930 . S
C321 C319 1.387 . S
C321 C320 1.380 . S
C321 H335 0.930 . S
C322 O302 1.254 . S
C322 O303 1.268 . S
C323 O307 1.284 . S
C323 O310 1.250 . S
C324 Gd257 2.828 . S
C324 O306 1.258 . S
C324 O311 1.252 . S
C324 C325 1.497 . S
C325 C324 1.497 . S
C325 C326 1.395 . S
C325 C327 1.380 . S
C326 C325 1.395 . S
C326 C329 1.398 . S
C326 H336 0.930 . S
C327 C325 1.380 . S
C327 C328 1.391 . S
C327 H337 0.930 . S
C328 C327 1.391 . S
C328 C330 1.387 . S
C329 C326 1.398 . S
C329 C330 1.380 . S
C329 H338 0.930 . S
C330 C328 1.387 . S
C330 C329 1.380 . S
C330 H339 0.930 . S
C331 O308 1.254 . S
C331 O309 1.268 . S
H332 C317 0.930 . S
H333 C318 0.930 . S
H334 C320 0.930 . S
H335 C321 0.930 . S
H336 C326 0.930 . S
H337 C327 0.930 . S
H338 C329 0.930 . S
H339 C330 0.930 . S
Gd340 N371 2.661 . S
Gd340 N377 2.601 . S
Gd340 O384 2.545 . S
Gd340 O385 2.606 1_655 S
Gd340 O387 2.429 1_655 S
Gd340 O388 2.545 . S
Gd340 O389 2.412 . S
Gd340 O391 2.362 1_655 S
Gd340 O392 2.324 . S
Gd340 C399 2.828 . S
Gd341 N350 2.661 . S
Gd341 N354 2.601 . S
Gd341 O385 2.362 . S
Gd341 O386 2.324 . S
Gd341 O390 2.545 . S
Gd341 O391 2.606 . S
Gd341 O393 2.429 1_455 S
Gd341 O394 2.545 . S
Gd341 O395 2.412 . S
Gd341 C408 2.828 . S
C342 C345 1.417 . S
C342 C347 1.431 . S
C342 C348 1.412 . S
C343 C346 1.437 . S
C343 C347 1.317 . S
C343 H362 0.929 . S
C344 C345 1.426 . S
C344 C346 1.413 . S
C344 N354 1.359 . S
C345 C342 1.417 . S
C345 C344 1.426 . S
C345 N350 1.350 . S
C346 C343 1.437 . S
C346 C344 1.413 . S
C346 C356 1.391 . S
C347 C342 1.431 . S
C347 C343 1.317 . S
C347 H358 0.930 . S
C348 C342 1.412 . S
C348 C349 1.355 . S
C348 H360 0.930 . S
C349 C348 1.355 . S
C349 C351 1.402 . S
C349 H361 0.930 . S
N350 Gd341 2.661 . S
N350 C345 1.350 . S
N350 C351 1.307 . S
C351 C349 1.402 . S
C351 N350 1.307 . S
C351 H352 0.930 . S
H352 C351 0.930 . S
C353 N354 1.340 . S
C353 C355 1.393 1_455 S
C353 H357 0.925 1_455 S
N354 Gd341 2.601 . S
N354 C344 1.359 . S
N354 C353 1.340 . S
C355 C353 1.393 1_655 S
C355 C356 1.359 1_655 S
C355 H367 0.930 . S
C356 C346 1.391 . S
C356 C355 1.359 1_455 S
C356 H368 0.929 . S
H357 C353 0.925 1_655 S
H358 C347 0.930 . S
H359 C376 0.930 . S
H360 C348 0.930 . S
H361 C349 0.930 . S
H362 C343 0.929 . S
H363 C381 0.930 . S
H364 C372 0.930 . S
H365 C373 0.930 . S
H366 C397 0.929 . S
H367 C355 0.930 . S
H368 C356 0.929 . S
H369 C398 0.930 . S
H370 C379 0.930 . S
N371 Gd340 2.661 . S
N371 C375 1.350 . S
N371 C376 1.307 . S
C372 H364 0.930 . S
C372 C373 1.355 . S
C372 C374 1.412 . S
C373 H365 0.930 . S
C373 C372 1.355 . S
C373 C376 1.402 . S
C374 C372 1.412 . S
C374 C375 1.417 . S
C374 C398 1.431 . S
C375 N371 1.350 . S
C375 C374 1.417 . S
C375 C378 1.426 . S
C376 H359 0.930 . S
C376 N371 1.307 . S
C376 C373 1.402 . S
N377 Gd340 2.601 . S
N377 C378 1.359 . S
N377 C381 1.334 1_655 S
C378 C375 1.426 . S
C378 N377 1.359 . S
C378 C382 1.413 . S
C379 H370 0.930 . S
C379 C380 1.359 . S
C379 C381 1.394 . S
C380 C379 1.359 . S
C380 C382 1.391 1_455 S
C380 H383 0.929 . S
C381 H363 0.930 . S
C381 N377 1.334 1_455 S
C381 C379 1.394 . S
C382 C378 1.413 . S
C382 C380 1.391 1_655 S
C382 C397 1.437 . S
H383 C380 0.929 . S
O384 Gd340 2.545 . S
O384 C399 1.258 . S
O385 Gd340 2.606 1_455 S
O385 Gd341 2.362 . S
O385 C396 1.284 1_455 S
O386 Gd341 2.324 . S
O386 C406 1.254 . S
O387 Gd340 2.429 1_455 S
O387 C406 1.268 . S
O388 Gd340 2.545 . S
O388 C396 1.250 . S
O389 Gd340 2.412 . S
O389 C399 1.252 . S
O390 Gd341 2.545 . S
O390 C408 1.258 . S
O391 Gd340 2.362 1_455 S
O391 Gd341 2.606 . S
O391 C407 1.284 . S
O392 Gd340 2.324 . S
O392 C415 1.254 . S
O393 Gd341 2.429 1_655 S
O393 C415 1.268 . S
O394 Gd341 2.545 . S
O394 C407 1.250 . S
O395 Gd341 2.412 . S
O395 C408 1.252 . S
C396 O385 1.284 1_655 S
C396 O388 1.250 . S
C397 H366 0.929 . S
C397 C382 1.437 . S
C397 C398 1.317 . S
C398 H369 0.930 . S
C398 C374 1.431 . S
C398 C397 1.317 . S
C399 Gd340 2.828 . S
C399 O384 1.258 . S
C399 O389 1.252 . S
C399 C400 1.497 . S
C400 C399 1.497 . S
C400 C401 1.395 1_556 S
C400 C402 1.380 . S
C401 C400 1.395 1_554 S
C401 C404 1.398 . S
C401 H416 0.930 . S
C402 C400 1.380 . S
C402 C403 1.391 1_556 S
C402 H417 0.930 . S
C403 C402 1.391 1_554 S
C403 C405 1.387 . S
C404 C401 1.398 . S
C404 C405 1.380 . S
C404 H418 0.930 . S
C405 C403 1.387 . S
C405 C404 1.380 . S
C405 H419 0.930 . S
C406 O386 1.254 . S
C406 O387 1.268 . S
C407 O391 1.284 . S
C407 O394 1.250 . S
C408 Gd341 2.828 . S
C408 O390 1.258 . S
C408 O395 1.252 . S
C408 C409 1.497 . S
C409 C408 1.497 . S
C409 C410 1.395 . S
C409 C411 1.380 . S
C410 C409 1.395 . S
C410 C413 1.398 . S
C410 H420 0.930 . S
C411 C409 1.380 . S
C411 C412 1.391 . S
C411 H421 0.930 . S
C412 C411 1.391 . S
C412 C414 1.387 . S
C413 C410 1.398 . S
C413 C414 1.380 . S
C413 H422 0.930 . S
C414 C412 1.387 . S
C414 C413 1.380 . S
C414 H423 0.930 . S
C415 O392 1.254 . S
C415 O393 1.268 . S
H416 C401 0.930 . S
H417 C402 0.930 . S
H418 C404 0.930 . S
H419 C405 0.930 . S
H420 C410 0.930 . S
H421 C411 0.930 . S
H422 C413 0.930 . S
H423 C414 0.930 . S
H424 C436 0.930 . S
H425 C438 0.930 . S
H426 C439 0.930 . S
H427 C443 0.959 . S
H428 C443 0.959 . S
H429 C443 0.961 . S
H430 C444 0.960 . S
H431 C444 0.961 . S
H432 C444 0.959 . S
H433 C447 0.929 . S
H434 C448 0.931 . S
H435 C450 0.947 . S
C436 H424 0.930 . S
C436 C437 1.399 . S
C436 C441 1.399 . S
C437 C436 1.399 . S
C437 C438 1.376 . S
C438 H425 0.930 . S
C438 C437 1.376 . S
C438 C439 1.388 . S
C439 H426 0.930 . S
C439 C438 1.388 . S
C439 C440 1.390 . S
C440 C439 1.390 . S
C440 C441 1.394 . S
C440 C446 1.465 . S
C441 C436 1.399 . S
C441 C440 1.394 . S
C441 C442 1.516 . S
C442 C441 1.516 . S
C442 C443 1.502 1_545 S
C442 C444 1.561 . S
C442 C445 1.526 . S
C443 H427 0.959 . S
C443 H428 0.959 . S
C443 H429 0.961 . S
C443 C442 1.502 1_565 S
C444 H430 0.960 . S
C444 H431 0.961 . S
C444 H432 0.959 . S
C444 C442 1.561 . S
C445 C442 1.526 . S
C445 C446 1.396 . S
C445 C450 1.390 . S
C446 C440 1.465 . S
C446 C445 1.396 . S
C446 C447 1.399 . S
C447 H433 0.929 . S
C447 C446 1.399 . S
C447 C448 1.385 . S
C448 H434 0.931 . S
C448 C447 1.385 . S
C448 C449 1.389 . S
C449 C448 1.389 . S
C449 C450 1.387 . S
C450 H435 0.947 . S
C450 C445 1.390 . S
C450 C449 1.387 . S
H451 C463 0.930 . S
H452 C465 0.930 . S
H453 C466 0.930 . S
H454 C470 0.959 . S
H455 C470 0.959 . S
H456 C470 0.961 . S
H457 C471 0.960 . S
H458 C471 0.961 . S
H459 C471 0.959 . S
H460 C474 0.929 . S
H461 C475 0.931 . S
H462 C477 0.930 . S
C463 H451 0.930 . S
C463 C464 1.399 . S
C463 C468 1.399 . S
C464 C463 1.399 . S
C464 C465 1.376 . S
C465 H452 0.930 . S
C465 C464 1.376 . S
C465 C466 1.388 . S
C466 H453 0.930 . S
C466 C465 1.388 . S
C466 C467 1.390 . S
C467 C466 1.390 . S
C467 C468 1.394 . S
C467 C473 1.465 . S
C468 C463 1.399 . S
C468 C467 1.394 . S
C468 C469 1.516 . S
C469 C468 1.516 . S
C469 C470 1.502 . S
C469 C471 1.561 . S
C469 C472 1.526 . S
C470 H454 0.959 . S
C470 H455 0.959 . S
C470 H456 0.961 . S
C470 C469 1.502 . S
C471 H457 0.960 . S
C471 H458 0.961 . S
C471 H459 0.959 . S
C471 C469 1.561 . S
C472 C469 1.526 . S
C472 C473 1.396 . S
C472 C477 1.390 . S
C473 C467 1.465 . S
C473 C472 1.396 . S
C473 C474 1.399 . S
C474 H460 0.929 . S
C474 C473 1.399 . S
C474 C475 1.385 . S
C475 H461 0.931 . S
C475 C474 1.385 . S
C475 C476 1.389 . S
C476 C475 1.389 . S
C476 C477 1.387 . S
C477 H462 0.930 . S
C477 C472 1.390 . S
C477 C476 1.387 . S
H478 C490 0.930 . S
H479 C492 0.930 . S
H480 C493 0.930 . S
H481 C497 0.959 . S
H482 C497 0.959 . S
H483 C497 0.961 . S
H484 C498 0.960 . S
H485 C498 0.961 . S
H486 C498 0.959 . S
H487 C501 0.929 . S
H488 C502 0.931 . S
H489 C504 0.930 . S
C490 H478 0.930 . S
C490 C491 1.399 . S
C490 C495 1.399 . S
C491 C490 1.399 . S
C491 C492 1.376 . S
C492 H479 0.930 . S
C492 C491 1.376 . S
C492 C493 1.388 . S
C493 H480 0.930 . S
C493 C492 1.388 . S
C493 C494 1.390 . S
C494 C493 1.390 . S
C494 C495 1.394 . S
C494 C500 1.465 . S
C495 C490 1.399 . S
C495 C494 1.394 . S
C495 C496 1.516 . S
C496 C495 1.516 . S
C496 C497 1.502 . S
C496 C498 1.561 . S
C496 C499 1.526 . S
C497 H481 0.959 . S
C497 H482 0.959 . S
C497 H483 0.961 . S
C497 C496 1.502 . S
C498 H484 0.960 . S
C498 H485 0.961 . S
C498 H486 0.959 . S
C498 C496 1.561 . S
C499 C496 1.526 . S
C499 C500 1.396 . S
C499 C504 1.390 . S
C500 C494 1.465 . S
C500 C499 1.396 . S
C500 C501 1.399 . S
C501 H487 0.929 . S
C501 C500 1.399 . S
C501 C502 1.385 . S
C502 H488 0.931 . S
C502 C501 1.385 . S
C502 C503 1.389 . S
C503 C502 1.389 . S
C503 C504 1.387 . S
C504 H489 0.930 . S
C504 C499 1.390 . S
C504 C503 1.387 . S
H505 C517 0.930 . S
H506 C519 0.930 . S
H507 C520 0.930 . S
H508 C524 0.959 . S
H509 C524 0.959 . S
H510 C524 0.961 . S
H511 C525 0.960 . S
H512 C525 0.961 . S
H513 C525 0.959 . S
H514 C528 0.929 . S
H515 C529 0.931 . S
H516 C531 0.930 . S
C517 H505 0.930 . S
C517 C518 1.399 . S
C517 C522 1.399 . S
C518 C517 1.399 . S
C518 C519 1.376 . S
C519 H506 0.930 . S
C519 C518 1.376 . S
C519 C520 1.388 . S
C520 H507 0.930 . S
C520 C519 1.388 . S
C520 C521 1.390 . S
C521 C520 1.390 . S
C521 C522 1.394 . S
C521 C527 1.465 . S
C522 C517 1.399 . S
C522 C521 1.394 . S
C522 C523 1.516 . S
C523 C522 1.516 . S
C523 C524 1.502 . S
C523 C525 1.561 . S
C523 C526 1.526 . S
C524 H508 0.959 . S
C524 H509 0.959 . S
C524 H510 0.961 . S
C524 C523 1.502 . S
C525 H511 0.960 . S
C525 H512 0.961 . S
C525 H513 0.959 . S
C525 C523 1.561 . S
C526 C523 1.526 . S
C526 C527 1.396 . S
C526 C531 1.390 . S
C527 C521 1.465 . S
C527 C526 1.396 . S
C527 C528 1.399 . S
C528 H514 0.929 . S
C528 C527 1.399 . S
C528 C529 1.385 . S
C529 H515 0.931 . S
C529 C528 1.385 . S
C529 C530 1.389 . S
C530 C529 1.389 . S
C530 C531 1.387 . S
C531 H516 0.930 . S
C531 C526 1.390 . S
C531 C530 1.387 . S
H532 C544 0.930 . S
H533 C546 0.930 1_545 S
H534 C547 0.930 . S
H535 C551 0.959 . S
H536 C551 0.959 1_556 S
H537 C551 0.961 . S
H538 C552 0.960 . S
H539 C552 0.961 . S
H540 C552 0.959 . S
H541 C555 0.929 . S
H542 C556 0.931 . S
H543 C558 0.930 . S
C544 H532 0.930 . S
C544 C545 1.399 . S
C544 C549 1.399 . S
C545 C544 1.399 . S
C545 C546 1.376 . S
C546 H533 0.930 1_565 S
C546 C545 1.376 . S
C546 C547 1.388 1_565 S
C547 H534 0.930 . S
C547 C546 1.388 1_545 S
C547 C548 1.390 1_545 S
C548 C547 1.390 1_565 S
C548 C549 1.394 . S
C548 C554 1.465 1_554 S
C549 C544 1.399 . S
C549 C548 1.394 . S
C549 C550 1.516 1_554 S
C550 C549 1.516 1_556 S
C550 C551 1.502 1_556 S
C550 C552 1.561 . S
C550 C553 1.526 . S
C551 H535 0.959 . S
C551 H536 0.959 1_554 S
C551 H537 0.961 . S
C551 C550 1.502 1_554 S
C552 H538 0.960 . S
C552 H539 0.961 . S
C552 H540 0.959 . S
C552 C550 1.561 . S
C553 C550 1.526 . S
C553 C554 1.396 . S
C553 C558 1.390 . S
C554 C548 1.465 1_556 S
C554 C553 1.396 . S
C554 C555 1.399 1_565 S
C555 H541 0.929 . S
C555 C554 1.399 1_545 S
C555 C556 1.385 . S
C556 H542 0.931 . S
C556 C555 1.385 . S
C556 C557 1.389 1_545 S
C557 C556 1.389 1_565 S
C557 C558 1.387 . S
C558 H543 0.930 . S
C558 C553 1.390 . S
C558 C557 1.387 . S
H559 C571 0.930 . S
H560 C573 0.930 . S
H561 C574 0.930 1_556 S
H562 C578 0.959 . S
H563 C578 0.959 . S
H564 C578 0.961 . S
H565 C579 0.960 . S
H566 C579 0.961 . S
H567 C579 0.959 . S
H568 C582 0.929 . S
H569 C583 0.931 . S
H570 C585 0.930 . S
C571 H559 0.930 . S
C571 C572 1.399 . S
C571 C576 1.399 . S
C572 C571 1.399 . S
C572 C573 1.376 . S
C573 H560 0.930 . S
C573 C572 1.376 . S
C573 C574 1.388 . S
C574 H561 0.930 1_554 S
C574 C573 1.388 . S
C574 C575 1.390 . S
C575 C574 1.390 . S
C575 C576 1.394 . S
C575 C581 1.465 1_554 S
C576 C571 1.399 . S
C576 C575 1.394 . S
C576 C577 1.516 . S
C577 C576 1.516 . S
C577 C578 1.502 . S
C577 C579 1.561 . S
C577 C580 1.526 1_554 S
C578 H562 0.959 . S
C578 H563 0.959 . S
C578 H564 0.961 . S
C578 C577 1.502 . S
C579 H565 0.960 . S
C579 H566 0.961 . S
C579 H567 0.959 . S
C579 C577 1.561 . S
C580 C577 1.526 1_556 S
C580 C581 1.396 . S
C580 C585 1.390 . S
C581 C575 1.465 1_556 S
C581 C580 1.396 . S
C581 C582 1.399 . S
C582 H568 0.929 . S
C582 C581 1.399 . S
C582 C583 1.385 . S
C583 H569 0.931 . S
C583 C582 1.385 . S
C583 C584 1.389 . S
C584 C583 1.389 . S
C584 C585 1.387 . S
C585 H570 0.930 . S
C585 C580 1.390 . S
C585 C584 1.387 . S
H586 C598 0.930 . S
H587 C600 0.930 . S
H588 C601 0.930 . S
H589 C605 0.959 . S
H590 C605 0.959 . S
H591 C605 0.966 . S
H592 C606 0.960 . S
H593 C606 0.961 . S
H594 C606 0.959 . S
H595 C609 0.929 . S
H596 C610 0.931 . S
H597 C612 0.930 . S
C598 H586 0.930 . S
C598 C599 1.399 . S
C598 C603 1.399 . S
C599 C598 1.399 . S
C599 C600 1.376 . S
C600 H587 0.930 . S
C600 C599 1.376 . S
C600 C601 1.388 . S
C601 H588 0.930 . S
C601 C600 1.388 . S
C601 C602 1.390 . S
C602 C601 1.390 . S
C602 C603 1.394 . S
C602 C608 1.465 1_554 S
C603 C598 1.399 . S
C603 C602 1.394 . S
C603 C604 1.516 . S
C604 C603 1.516 . S
C604 C605 1.502 1_554 S
C604 C606 1.561 . S
C604 C607 1.526 1_554 S
C605 H589 0.959 . S
C605 H590 0.959 . S
C605 H591 0.966 . S
C605 C604 1.502 1_556 S
C606 H592 0.960 . S
C606 H593 0.961 . S
C606 H594 0.959 . S
C606 C604 1.561 . S
C607 C604 1.526 1_556 S
C607 C608 1.396 . S
C607 C612 1.390 . S
C608 C602 1.465 1_556 S
C608 C607 1.396 . S
C608 C609 1.399 . S
C609 H595 0.929 . S
C609 C608 1.399 . S
C609 C610 1.385 . S
C610 H596 0.931 . S
C610 C609 1.385 . S
C610 C611 1.389 . S
C611 C610 1.389 . S
C611 C612 1.387 . S
C612 H597 0.930 . S
C612 C607 1.390 . S
C612 C611 1.387 . S
H613 C625 0.930 . S
H614 C627 0.930 . S
H615 C628 0.930 . S
H616 C632 0.959 . S
H617 C632 0.959 . S
H618 C632 0.961 . S
H619 C633 0.960 . S
H620 C633 0.961 . S
H621 C633 0.959 . S
H622 C636 0.924 1_454 S
H623 C637 0.931 . S
H624 C639 0.930 . S
C625 H613 0.930 . S
C625 C626 1.399 . S
C625 C630 1.399 . S
C626 C625 1.399 . S
C626 C627 1.376 . S
C627 H614 0.930 . S
C627 C626 1.376 . S
C627 C628 1.388 . S
C628 H615 0.930 . S
C628 C627 1.388 . S
C628 C629 1.390 . S
C629 C628 1.390 . S
C629 C630 1.394 . S
C629 C635 1.465 1_554 S
C630 C625 1.399 . S
C630 C629 1.394 . S
C630 C631 1.516 1_554 S
C631 C630 1.516 1_556 S
C631 C632 1.502 . S
C631 C633 1.561 . S
C631 C634 1.526 . S
C632 H616 0.959 . S
C632 H617 0.959 . S
C632 H618 0.961 . S
C632 C631 1.502 . S
C633 H619 0.960 . S
C633 H620 0.961 . S
C633 H621 0.959 . S
C633 C631 1.561 . S
C634 C631 1.526 . S
C634 C635 1.396 . S
C634 C639 1.390 . S
C635 C629 1.465 1_556 S
C635 C634 1.396 . S
C635 C636 1.405 . S
C636 H622 0.924 1_656 S
C636 C635 1.405 . S
C636 C637 1.385 1_655 S
C637 H623 0.931 . S
C637 C636 1.385 1_455 S
C637 C638 1.389 1_455 S
C638 C637 1.389 1_655 S
C638 C639 1.387 . S
C639 H624 0.930 . S
C639 C634 1.390 . S
C639 C638 1.387 . S
H640 C652 0.930 . S
H641 C654 0.930 . S
H642 C655 0.930 . S
H643 C659 0.959 . S
H644 C659 0.959 . S
H645 C659 0.961 . S
H646 C660 0.960 1_556 S
H647 C660 0.961 . S
H648 C660 0.959 . S
H649 C663 0.929 . S
H650 C664 0.931 . S
H651 C666 0.930 1_655 S
C652 H640 0.930 . S
C652 C653 1.399 . S
C652 C657 1.399 . S
C653 C652 1.399 . S
C653 C654 1.376 . S
C654 H641 0.930 . S
C654 C653 1.376 . S
C654 C655 1.388 . S
C655 H642 0.930 . S
C655 C654 1.388 . S
C655 C656 1.390 . S
C656 C655 1.390 . S
C656 C657 1.394 . S
C656 C662 1.465 . S
C657 C652 1.399 . S
C657 C656 1.394 . S
C657 C658 1.516 . S
C658 C657 1.516 . S
C658 C659 1.502 1_455 S
C658 C660 1.561 . S
C658 C661 1.526 . S
C659 H643 0.959 . S
C659 H644 0.959 . S
C659 H645 0.961 . S
C659 C658 1.502 1_655 S
C660 H646 0.960 1_554 S
C660 H647 0.961 . S
C660 H648 0.959 . S
C660 C658 1.561 . S
C661 C658 1.526 . S
C661 C662 1.396 . S
C661 C666 1.390 . S
C662 C656 1.465 . S
C662 C661 1.396 . S
C662 C663 1.399 . S
C663 H649 0.929 . S
C663 C662 1.399 . S
C663 C664 1.385 . S
C664 H650 0.931 . S
C664 C663 1.385 . S
C664 C665 1.389 . S
C665 C664 1.389 . S
C665 C666 1.387 . S
C666 H651 0.930 1_455 S
C666 C661 1.390 . S
C666 C665 1.387 . S
H667 C679 0.930 . S
H668 C681 0.930 . S
H669 C682 0.910 1_565 S
H670 C686 0.959 . S
H671 C686 0.959 . S
H672 C686 0.961 . S
H673 C687 0.960 . S
H674 C687 0.961 . S
H675 C687 0.959 . S
H676 C690 0.929 . S
H677 C691 0.931 . S
H678 C693 0.930 . S
C679 H667 0.930 . S
C679 C680 1.399 . S
C679 C684 1.399 . S
C680 C679 1.399 . S
C680 C681 1.376 . S
C681 H668 0.930 . S
C681 C680 1.376 . S
C681 C682 1.388 . S
C682 H669 0.910 1_545 S
C682 C681 1.388 . S
C682 C683 1.390 . S
C683 C682 1.390 . S
C683 C684 1.394 . S
C683 C689 1.465 . S
C684 C679 1.399 . S
C684 C683 1.394 . S
C684 C685 1.516 . S
C685 C684 1.516 . S
C685 C686 1.502 . S
C685 C687 1.561 . S
C685 C688 1.526 . S
C686 H670 0.959 . S
C686 H671 0.959 . S
C686 H672 0.961 . S
C686 C685 1.502 . S
C687 H673 0.960 . S
C687 H674 0.961 . S
C687 H675 0.959 . S
C687 C685 1.561 . S
C688 C685 1.526 . S
C688 C689 1.396 . S
C688 C693 1.390 . S
C689 C683 1.465 . S
C689 C688 1.396 . S
C689 C690 1.399 1_545 S
C690 H676 0.929 . S
C690 C689 1.399 1_565 S
C690 C691 1.385 . S
C691 H677 0.931 . S
C691 C690 1.385 . S
C691 C692 1.389 1_565 S
C692 C691 1.389 1_545 S
C692 C693 1.387 . S
C693 H678 0.930 . S
C693 C688 1.390 . S
C693 C692 1.387 . S
H694 C706 0.930 . S
H695 C708 0.930 . S
H696 C709 0.930 . S
H697 C713 0.959 . S
H698 C713 0.959 . S
H699 C713 0.961 1_556 S
H700 C714 0.960 . S
H701 C714 0.961 . S
H702 C714 0.959 . S
H703 C717 0.929 . S
H704 C718 0.931 . S
H705 C720 0.930 . S
C706 H694 0.930 . S
C706 C707 1.399 . S
C706 C711 1.399 . S
C707 C706 1.399 . S
C707 C708 1.376 . S
C708 H695 0.930 . S
C708 C707 1.376 . S
C708 C709 1.388 . S
C709 H696 0.930 . S
C709 C708 1.388 . S
C709 C710 1.390 . S
C710 C709 1.390 . S
C710 C711 1.394 . S
C710 C716 1.465 . S
C711 C706 1.399 . S
C711 C710 1.394 . S
C711 C712 1.516 . S
C712 C711 1.516 . S
C712 C713 1.502 . S
C712 C714 1.561 . S
C712 C715 1.526 . S
C713 H697 0.959 . S
C713 H698 0.959 . S
C713 H699 0.961 1_554 S
C713 C712 1.502 . S
C714 H700 0.960 . S
C714 H701 0.961 . S
C714 H702 0.959 . S
C714 C712 1.561 . S
C715 C712 1.526 . S
C715 C716 1.396 . S
C715 C720 1.390 . S
C716 C710 1.465 . S
C716 C715 1.396 . S
C716 C717 1.399 . S
C717 H703 0.929 . S
C717 C716 1.399 . S
C717 C718 1.385 . S
C718 H704 0.931 . S
C718 C717 1.385 . S
C718 C719 1.389 . S
C719 C718 1.389 . S
C719 C720 1.387 . S
C720 H705 0.930 . S
C720 C715 1.390 . S
C720 C719 1.387 . S
H721 C733 0.930 . S
H722 C735 0.930 . S
H723 C736 0.930 . S
H724 C740 0.959 . S
H725 C740 0.959 . S
H726 C740 0.961 . S
H727 C741 0.960 . S
H728 C741 0.961 . S
H729 C741 0.959 . S
H730 C744 0.929 . S
H731 C745 0.931 . S
H732 C747 0.930 . S
C733 H721 0.930 . S
C733 C734 1.399 . S
C733 C738 1.399 . S
C734 C733 1.399 . S
C734 C735 1.376 . S
C735 H722 0.930 . S
C735 C734 1.376 . S
C735 C736 1.388 . S
C736 H723 0.930 . S
C736 C735 1.388 . S
C736 C737 1.390 . S
C737 C736 1.390 . S
C737 C738 1.394 . S
C737 C743 1.465 . S
C738 C733 1.399 . S
C738 C737 1.394 . S
C738 C739 1.516 . S
C739 C738 1.516 . S
C739 C740 1.502 . S
C739 C741 1.561 . S
C739 C742 1.526 . S
C740 H724 0.959 . S
C740 H725 0.959 . S
C740 H726 0.961 . S
C740 C739 1.502 . S
C741 H727 0.960 . S
C741 H728 0.961 . S
C741 H729 0.959 . S
C741 C739 1.561 . S
C742 C739 1.526 . S
C742 C743 1.396 . S
C742 C747 1.390 . S
C743 C737 1.465 . S
C743 C742 1.396 . S
C743 C744 1.399 . S
C744 H730 0.929 . S
C744 C743 1.399 . S
C744 C745 1.385 . S
C745 H731 0.931 . S
C745 C744 1.385 . S
C745 C746 1.389 . S
C746 C745 1.389 . S
C746 C747 1.387 . S
C747 H732 0.930 . S
C747 C742 1.390 . S
C747 C746 1.387 . S
H748 C760 0.930 . S
H749 C762 0.930 . S
H750 C763 0.930 . S
H751 C767 0.959 1_554 S
H752 C767 0.959 . S
H753 C767 0.961 . S
H754 C768 0.960 . S
H755 C768 0.961 . S
H756 C768 0.959 . S
H757 C771 0.929 . S
H758 C772 0.930 1_455 S
H759 C774 0.930 . S
C760 H748 0.930 . S
C760 C761 1.399 . S
C760 C765 1.399 . S
C761 C760 1.399 . S
C761 C762 1.376 . S
C762 H749 0.930 . S
C762 C761 1.376 . S
C762 C763 1.388 . S
C763 H750 0.930 . S
C763 C762 1.388 . S
C763 C764 1.390 . S
C764 C763 1.390 . S
C764 C765 1.394 . S
C764 C770 1.465 . S
C765 C760 1.399 . S
C765 C764 1.394 . S
C765 C766 1.516 . S
C766 C765 1.516 . S
C766 C767 1.502 1_654 S
C766 C768 1.561 1_554 S
C766 C769 1.526 . S
C767 H751 0.959 1_556 S
C767 H752 0.959 . S
C767 H753 0.961 . S
C767 C766 1.502 1_456 S
C768 H754 0.960 . S
C768 H755 0.961 . S
C768 H756 0.959 . S
C768 C766 1.561 1_556 S
C769 C766 1.526 . S
C769 C770 1.396 . S
C769 C774 1.390 1_654 S
C770 C764 1.465 . S
C770 C769 1.396 . S
C770 C771 1.399 . S
C771 H757 0.929 . S
C771 C770 1.399 . S
C771 C772 1.385 . S
C772 H758 0.930 1_655 S
C772 C771 1.385 . S
C772 C773 1.389 1_654 S
C773 C772 1.389 1_456 S
C773 C774 1.387 . S
C774 H759 0.930 . S
C774 C769 1.390 1_456 S
C774 C773 1.387 . S
H775 C787 0.930 . S
H776 C789 0.930 . S
H777 C790 0.930 1_556 S
H778 C794 0.959 . S
H779 C794 0.959 1_545 S
H780 C794 0.961 . S
H781 C795 0.960 . S
H782 C795 0.961 . S
H783 C795 0.959 . S
H784 C798 0.929 . S
H785 C799 0.931 . S
H786 C801 0.930 . S
C787 H775 0.930 . S
C787 C788 1.399 . S
C787 C792 1.399 . S
C788 C787 1.399 . S
C788 C789 1.376 . S
C789 H776 0.930 . S
C789 C788 1.376 . S
C789 C790 1.388 . S
C790 H777 0.930 1_554 S
C790 C789 1.388 . S
C790 C791 1.390 . S
C791 C790 1.390 . S
C791 C792 1.394 . S
C791 C797 1.465 . S
C792 C787 1.399 . S
C792 C791 1.394 . S
C792 C793 1.516 1_565 S
C793 C792 1.516 1_545 S
C793 C794 1.502 1_545 S
C793 C795 1.561 . S
C793 C796 1.526 . S
C794 H778 0.959 . S
C794 H779 0.959 1_565 S
C794 H780 0.961 . S
C794 C793 1.502 1_565 S
C795 H781 0.960 . S
C795 H782 0.961 . S
C795 H783 0.959 . S
C795 C793 1.561 . S
C796 C793 1.526 . S
C796 C797 1.396 1_545 S
C796 C801 1.390 . S
C797 C791 1.465 . S
C797 C796 1.396 1_565 S
C797 C798 1.399 1_554 S
C798 H784 0.929 . S
C798 C797 1.399 1_556 S
C798 C799 1.385 . S
C799 H785 0.931 . S
C799 C798 1.385 . S
C799 C800 1.389 1_565 S
C800 C799 1.389 1_545 S
C800 C801 1.387 1_556 S
C801 H786 0.930 . S
C801 C796 1.390 . S
C801 C800 1.387 1_554 S
H802 C814 0.930 . S
H803 C816 0.930 . S
H804 C817 0.930 . S
H805 C821 0.959 . S
H806 C821 0.959 . S
H807 C821 0.961 . S
H808 C822 0.960 . S
H809 C822 0.961 . S
H810 C822 0.959 . S
H811 C825 0.929 . S
H812 C826 0.931 . S
H813 C828 0.930 . S
C814 H802 0.930 . S
C814 C815 1.399 . S
C814 C819 1.399 . S
C815 C814 1.399 . S
C815 C816 1.376 . S
C816 H803 0.930 . S
C816 C815 1.376 . S
C816 C817 1.388 . S
C817 H804 0.930 . S
C817 C816 1.388 . S
C817 C818 1.390 . S
C818 C817 1.390 . S
C818 C819 1.394 . S
C818 C824 1.465 . S
C819 C814 1.399 . S
C819 C818 1.394 . S
C819 C820 1.516 . S
C820 C819 1.516 . S
C820 C821 1.502 . S
C820 C822 1.561 . S
C820 C823 1.526 . S
C821 H805 0.959 . S
C821 H806 0.959 . S
C821 H807 0.961 . S
C821 C820 1.502 . S
C822 H808 0.960 . S
C822 H809 0.961 . S
C822 H810 0.959 . S
C822 C820 1.561 . S
C823 C820 1.526 . S
C823 C824 1.396 . S
C823 C828 1.390 . S
C824 C818 1.465 . S
C824 C823 1.396 . S
C824 C825 1.399 1_554 S
C825 H811 0.929 . S
C825 C824 1.399 1_556 S
C825 C826 1.385 . S
C826 H812 0.931 . S
C826 C825 1.385 . S
C826 C827 1.389 1_556 S
C827 C826 1.389 1_554 S
C827 C828 1.387 . S
C828 H813 0.930 . S
C828 C823 1.390 . S
C828 C827 1.387 . S
H829 C841 0.930 . S
H830 C843 0.930 . S
H831 C844 0.930 . S
H832 C848 0.959 . S
H833 C848 0.959 1_556 S
H834 C848 0.961 . S
H835 C849 0.960 . S
H836 C849 0.961 . S
H837 C849 0.959 . S
H838 C852 0.929 . S
H839 C853 0.931 . S
H840 C855 0.930 . S
C841 H829 0.930 . S
C841 C842 1.399 . S
C841 C846 1.399 . S
C842 C841 1.399 . S
C842 C843 1.376 . S
C843 H830 0.930 . S
C843 C842 1.376 . S
C843 C844 1.388 . S
C844 H831 0.930 . S
C844 C843 1.388 . S
C844 C845 1.390 . S
C845 C844 1.390 . S
C845 C846 1.394 . S
C845 C851 1.465 . S
C846 C841 1.399 . S
C846 C845 1.394 . S
C846 C847 1.516 . S
C847 C846 1.516 . S
C847 C848 1.502 . S
C847 C849 1.561 1_554 S
C847 C850 1.526 . S
C848 H832 0.959 . S
C848 H833 0.959 1_554 S
C848 H834 0.961 . S
C848 C847 1.502 . S
C849 H835 0.960 . S
C849 H836 0.961 . S
C849 H837 0.959 . S
C849 C847 1.561 1_556 S
C850 C847 1.526 . S
C850 C851 1.396 . S
C850 C855 1.390 1_554 S
C851 C845 1.465 . S
C851 C850 1.396 . S
C851 C852 1.399 . S
C852 H838 0.929 . S
C852 C851 1.399 . S
C852 C853 1.385 . S
C853 H839 0.931 . S
C853 C852 1.385 . S
C853 C854 1.389 . S
C854 C853 1.389 . S
C854 C855 1.387 1_554 S
C855 H840 0.930 . S
C855 C850 1.390 1_556 S
C855 C854 1.387 1_556 S
H856 C868 0.930 . S
H857 C870 0.930 . S
H858 C871 0.930 . S
H859 C875 0.959 1_455 S
H860 C875 0.959 . S
H861 C875 0.961 . S
H862 C876 0.960 . S
H863 C876 0.961 . S
H864 C876 0.959 1_455 S
H865 C879 0.929 . S
H866 C880 0.931 . S
H867 C882 0.911 1_655 S
C868 H856 0.930 . S
C868 C869 1.399 . S
C868 C873 1.399 . S
C869 C868 1.399 . S
C869 C870 1.376 . S
C870 H857 0.930 . S
C870 C869 1.376 . S
C870 C871 1.388 . S
C871 H858 0.930 . S
C871 C870 1.388 . S
C871 C872 1.390 . S
C872 C871 1.390 . S
C872 C873 1.394 . S
C872 C878 1.465 . S
C873 C868 1.399 . S
C873 C872 1.394 . S
C873 C874 1.516 . S
C874 C873 1.516 . S
C874 C875 1.502 1_455 S
C874 C876 1.561 1_455 S
C874 C877 1.526 . S
C875 H859 0.959 1_655 S
C875 H860 0.959 . S
C875 H861 0.961 . S
C875 C874 1.502 1_655 S
C876 H862 0.960 . S
C876 H863 0.961 . S
C876 H864 0.959 1_655 S
C876 C874 1.561 1_655 S
C877 C874 1.526 . S
C877 C878 1.396 . S
C877 C882 1.390 . S
C878 C872 1.465 . S
C878 C877 1.396 . S
C878 C879 1.399 . S
C879 H865 0.929 . S
C879 C878 1.399 . S
C879 C880 1.385 . S
C880 H866 0.931 . S
C880 C879 1.385 . S
C880 C881 1.389 . S
C881 C880 1.389 . S
C881 C882 1.387 . S
C882 H867 0.911 1_455 S
C882 C877 1.390 . S
C882 C881 1.387 . S
H883 C895 0.930 . S
H884 C897 0.930 . S
H885 C898 0.930 . S
H886 C902 0.959 . S
H887 C902 0.959 . S
H888 C902 0.961 . S
H889 C903 0.960 . S
H890 C903 0.961 . S
H891 C903 0.959 . S
H892 C906 0.929 . S
H893 C907 0.931 . S
H894 C909 0.930 . S
C895 H883 0.930 . S
C895 C896 1.399 . S
C895 C900 1.399 . S
C896 C895 1.399 . S
C896 C897 1.376 . S
C897 H884 0.930 . S
C897 C896 1.376 . S
C897 C898 1.388 . S
C898 H885 0.930 . S
C898 C897 1.388 . S
C898 C899 1.390 . S
C899 C898 1.390 . S
C899 C900 1.394 . S
C899 C905 1.465 . S
C900 C895 1.399 . S
C900 C899 1.394 . S
C900 C901 1.516 . S
C901 C900 1.516 . S
C901 C902 1.502 . S
C901 C903 1.561 . S
C901 C904 1.526 . S
C902 H886 0.959 . S
C902 H887 0.959 . S
C902 H888 0.961 . S
C902 C901 1.502 . S
C903 H889 0.960 . S
C903 H890 0.961 . S
C903 H891 0.959 . S
C903 C901 1.561 . S
C904 C901 1.526 . S
C904 C905 1.396 . S
C904 C909 1.390 . S
C905 C899 1.465 . S
C905 C904 1.396 . S
C905 C906 1.399 . S
C906 H892 0.929 . S
C906 C905 1.399 . S
C906 C907 1.385 . S
C907 H893 0.931 . S
C907 C906 1.385 . S
C907 C908 1.389 . S
C908 C907 1.389 . S
C908 C909 1.387 . S
C909 H894 0.930 . S
C909 C904 1.390 . S
C909 C908 1.387 . S
H910 C922 0.930 . S
H911 C924 0.930 . S
H912 C925 0.930 . S
H913 C929 0.959 . S
H914 C929 0.959 . S
H915 C929 0.961 . S
H916 C930 0.960 1_554 S
H917 C930 0.961 . S
H918 C930 0.959 . S
H919 C933 0.929 . S
H920 C934 0.931 . S
H921 C936 0.930 . S
C922 H910 0.930 . S
C922 C923 1.399 . S
C922 C927 1.399 . S
C923 C922 1.399 . S
C923 C924 1.376 . S
C924 H911 0.930 . S
C924 C923 1.376 . S
C924 C925 1.388 . S
C925 H912 0.930 . S
C925 C924 1.388 . S
C925 C926 1.390 . S
C926 C925 1.390 . S
C926 C927 1.394 . S
C926 C932 1.465 . S
C927 C922 1.399 . S
C927 C926 1.394 . S
C927 C928 1.516 . S
C928 C927 1.516 . S
C928 C929 1.502 . S
C928 C930 1.561 . S
C928 C931 1.526 . S
C929 H913 0.959 . S
C929 H914 0.959 . S
C929 H915 0.961 . S
C929 C928 1.502 . S
C930 H916 0.960 1_556 S
C930 H917 0.961 . S
C930 H918 0.959 . S
C930 C928 1.561 . S
C931 C928 1.526 . S
C931 C932 1.396 . S
C931 C936 1.390 . S
C932 C926 1.465 . S
C932 C931 1.396 . S
C932 C933 1.399 . S
C933 H919 0.929 . S
C933 C932 1.399 . S
C933 C934 1.385 . S
C934 H920 0.931 . S
C934 C933 1.385 . S
C934 C935 1.389 . S
C935 C934 1.389 . S
C935 C936 1.387 . S
C936 H921 0.930 . S
C936 C931 1.390 . S
C936 C935 1.387 . S
H937 C949 0.930 . S
H938 C951 0.930 . S
H939 C952 0.930 . S
H940 C956 0.959 . S
H941 C956 0.959 1_554 S
H942 C956 0.961 1_554 S
H943 C957 0.960 . S
H944 C957 0.961 . S
H945 C957 0.959 . S
H946 C960 0.929 . S
H947 C961 0.931 . S
H948 C963 0.930 . S
C949 H937 0.930 . S
C949 C950 1.399 . S
C949 C954 1.399 . S
C950 C949 1.399 . S
C950 C951 1.376 . S
C951 H938 0.930 . S
C951 C950 1.376 . S
C951 C952 1.388 . S
C952 H939 0.930 . S
C952 C951 1.388 . S
C952 C953 1.390 . S
C953 C952 1.390 . S
C953 C954 1.394 . S
C953 C959 1.465 . S
C954 C949 1.399 . S
C954 C953 1.394 . S
C954 C955 1.516 . S
C955 C954 1.516 . S
C955 C956 1.502 . S
C955 C957 1.561 . S
C955 C958 1.526 . S
C956 H940 0.959 . S
C956 H941 0.959 1_556 S
C956 H942 0.961 1_556 S
C956 C955 1.502 . S
C957 H943 0.960 . S
C957 H944 0.961 . S
C957 H945 0.959 . S
C957 C955 1.561 . S
C958 C955 1.526 . S
C958 C959 1.396 . S
C958 C963 1.390 . S
C959 C953 1.465 . S
C959 C958 1.396 . S
C959 C960 1.399 . S
C960 H946 0.929 . S
C960 C959 1.399 . S
C960 C961 1.385 . S
C961 H947 0.931 . S
C961 C960 1.385 . S
C961 C962 1.389 . S
C962 C961 1.389 . S
C962 C963 1.387 . S
C963 H948 0.930 . S
C963 C958 1.390 . S
C963 C962 1.387 . S
H964 C976 0.930 . S
H965 C978 0.930 . S
H966 C979 0.930 . S
H967 C983 0.959 . S
H968 C983 0.959 . S
H969 C983 0.961 . S
H970 C984 0.960 . S
H971 C984 0.961 . S
H972 C984 0.959 . S
H973 C987 0.929 . S
H974 C988 0.931 . S
H975 C990 0.930 . S
C976 H964 0.930 . S
C976 C977 1.399 . S
C976 C981 1.399 . S
C977 C976 1.399 . S
C977 C978 1.376 . S
C978 H965 0.930 . S
C978 C977 1.376 . S
C978 C979 1.388 . S
C979 H966 0.930 . S
C979 C978 1.388 . S
C979 C980 1.390 . S
C980 C979 1.390 . S
C980 C981 1.394 . S
C980 C986 1.465 . S
C981 C976 1.399 . S
C981 C980 1.394 . S
C981 C982 1.516 . S
C982 C981 1.516 . S
C982 C983 1.502 . S
C982 C984 1.561 . S
C982 C985 1.526 . S
C983 H967 0.959 . S
C983 H968 0.959 . S
C983 H969 0.961 . S
C983 C982 1.502 . S
C984 H970 0.960 . S
C984 H971 0.961 . S
C984 H972 0.959 . S
C984 C982 1.561 . S
C985 C982 1.526 . S
C985 C986 1.396 . S
C985 C990 1.390 . S
C986 C980 1.465 . S
C986 C985 1.396 . S
C986 C987 1.399 . S
C987 H973 0.929 . S
C987 C986 1.399 . S
C987 C988 1.385 . S
C988 H974 0.931 . S
C988 C987 1.385 . S
C988 C989 1.389 . S
C989 C988 1.389 . S
C989 C990 1.387 . S
C990 H975 0.930 . S
C990 C985 1.390 . S
C990 C989 1.387 . S
H991 C1003 0.930 . S
H992 C1005 0.930 . S
H993 C1006 0.930 . S
H994 C1010 0.959 . S
H995 C1010 0.959 . S
H996 C1010 0.961 . S
H997 C1011 0.960 . S
H998 C1011 0.961 . S
H999 C1011 0.959 . S
H1000 C1014 0.929 1_545 S
H1001 C1015 0.928 . S
H1002 C1017 0.930 . S
C1003 H991 0.930 . S
C1003 C1004 1.399 . S
C1003 C1008 1.399 . S
C1004 C1003 1.399 . S
C1004 C1005 1.376 . S
C1005 H992 0.930 . S
C1005 C1004 1.376 . S
C1005 C1006 1.388 . S
C1006 H993 0.930 . S
C1006 C1005 1.388 . S
C1006 C1007 1.390 . S
C1007 C1006 1.390 . S
C1007 C1008 1.394 . S
C1007 C1013 1.465 . S
C1008 C1003 1.399 . S
C1008 C1007 1.394 . S
C1008 C1009 1.516 . S
C1009 C1008 1.516 . S
C1009 C1010 1.502 . S
C1009 C1011 1.561 . S
C1009 C1012 1.526 . S
C1010 H994 0.959 . S
C1010 H995 0.959 . S
C1010 H996 0.961 . S
C1010 C1009 1.502 . S
C1011 H997 0.960 . S
C1011 H998 0.961 . S
C1011 H999 0.959 . S
C1011 C1009 1.561 . S
C1012 C1009 1.526 . S
C1012 C1013 1.396 . S
C1012 C1017 1.390 . S
C1013 C1007 1.465 . S
C1013 C1012 1.396 . S
C1013 C1014 1.399 . S
C1014 H1000 0.929 1_565 S
C1014 C1013 1.399 . S
C1014 C1015 1.385 1_565 S
C1015 H1001 0.928 . S
C1015 C1014 1.385 1_545 S
C1015 C1016 1.392 1_545 S
C1016 C1015 1.392 1_565 S
C1016 C1017 1.387 . S
C1017 H1002 0.930 . S
C1017 C1012 1.390 . S
C1017 C1016 1.387 . S
H1018 C1030 0.930 . S
H1019 C1032 0.930 . S
H1020 C1033 0.930 . S
H1021 C1037 0.959 . S
H1022 C1037 0.959 . S
H1023 C1037 0.961 . S
H1024 C1038 0.960 . S
H1025 C1038 0.961 . S
H1026 C1038 0.959 . S
H1027 C1041 0.929 . S
H1028 C1042 0.931 . S
H1029 C1044 0.930 . S
C1030 H1018 0.930 . S
C1030 C1031 1.399 . S
C1030 C1035 1.399 . S
C1031 C1030 1.399 . S
C1031 C1032 1.376 . S
C1032 H1019 0.930 . S
C1032 C1031 1.376 . S
C1032 C1033 1.388 . S
C1033 H1020 0.930 . S
C1033 C1032 1.388 . S
C1033 C1034 1.390 . S
C1034 C1033 1.390 . S
C1034 C1035 1.394 . S
C1034 C1040 1.465 . S
C1035 C1030 1.399 . S
C1035 C1034 1.394 . S
C1035 C1036 1.516 . S
C1036 C1035 1.516 . S
C1036 C1037 1.502 . S
C1036 C1038 1.561 . S
C1036 C1039 1.526 . S
C1037 H1021 0.959 . S
C1037 H1022 0.959 . S
C1037 H1023 0.961 . S
C1037 C1036 1.502 . S
C1038 H1024 0.960 . S
C1038 H1025 0.961 . S
C1038 H1026 0.959 . S
C1038 C1036 1.561 . S
C1039 C1036 1.526 . S
C1039 C1040 1.396 . S
C1039 C1044 1.390 . S
C1040 C1034 1.465 . S
C1040 C1039 1.396 . S
C1040 C1041 1.399 . S
C1041 H1027 0.929 . S
C1041 C1040 1.399 . S
C1041 C1042 1.385 . S
C1042 H1028 0.931 . S
C1042 C1041 1.385 . S
C1042 C1043 1.389 . S
C1043 C1042 1.389 . S
C1043 C1044 1.387 . S
C1044 H1029 0.930 . S
C1044 C1039 1.390 . S
C1044 C1043 1.387 . S
H1045 C1057 0.930 . S
H1046 C1059 0.930 . S
H1047 C1060 0.930 . S
H1048 C1064 0.959 . S
H1049 C1064 0.959 . S
H1050 C1064 0.961 . S
H1051 C1065 0.960 . S
H1052 C1065 0.961 . S
H1053 C1065 0.959 . S
H1054 C1068 0.929 . S
H1055 C1069 0.931 . S
H1056 C1071 0.930 . S
C1057 H1045 0.930 . S
C1057 C1058 1.399 . S
C1057 C1062 1.399 . S
C1058 C1057 1.399 . S
C1058 C1059 1.376 . S
C1059 H1046 0.930 . S
C1059 C1058 1.376 . S
C1059 C1060 1.388 . S
C1060 H1047 0.930 . S
C1060 C1059 1.388 . S
C1060 C1061 1.390 . S
C1061 C1060 1.390 . S
C1061 C1062 1.394 . S
C1061 C1067 1.465 . S
C1062 C1057 1.399 . S
C1062 C1061 1.394 . S
C1062 C1063 1.516 . S
C1063 C1062 1.516 . S
C1063 C1064 1.502 . S
C1063 C1065 1.561 . S
C1063 C1066 1.526 . S
C1064 H1048 0.959 . S
C1064 H1049 0.959 . S
C1064 H1050 0.961 . S
C1064 C1063 1.502 . S
C1065 H1051 0.960 . S
C1065 H1052 0.961 . S
C1065 H1053 0.959 . S
C1065 C1063 1.561 . S
C1066 C1063 1.526 . S
C1066 C1067 1.396 . S
C1066 C1071 1.390 . S
C1067 C1061 1.465 . S
C1067 C1066 1.396 . S
C1067 C1068 1.399 . S
C1068 H1054 0.929 . S
C1068 C1067 1.399 . S
C1068 C1069 1.385 . S
C1069 H1055 0.931 . S
C1069 C1068 1.385 . S
C1069 C1070 1.389 . S
C1070 C1069 1.389 . S
C1070 C1071 1.387 . S
C1071 H1056 0.930 . S
C1071 C1066 1.390 . S
C1071 C1070 1.387 . S
C437 C76 1.870 . S
C449 C163 1.938 . S
C476 C247 1.935 . S
C464 C87 1.908 . S
C503 C323 1.928 . S
C491 C54 1.944 . S
C530 C407 1.943 . S
C518 C65 1.912 . S
C557 C154 1.912 1_565 S
C545 C32 1.838 . S
C572 C43 1.856 . S
C584 C238 1.976 . S
C599 C10 2.000 . S
C611 C312 1.895 . S
C626 C21 1.969 . S
C638 C396 1.874 . S
C665 C151 0.718 1_455 S
C653 C60 0.732 . S
C692 C235 0.535 1_545 S
C680 C71 0.564 . S
C719 C328 0.691 . S
C707 C82 0.700 . S
C734 C49 0.597 . S
C746 C412 0.610 . S
C761 C16 0.654 . S
C773 C160 0.677 . S
C800 C244 0.669 . S
C788 C27 0.704 . S
C827 C319 0.658 . S
C815 C38 0.623 . S
C842 C5 0.646 . S
C854 C403 0.586 . S
C869 C59 2.022 . S
C881 C144 2.084 . S
C896 C70 1.925 . S
C908 C228 2.041 . S
C935 C322 2.048 . S
C923 C81 1.889 . S
C962 C406 2.103 . S
C950 C48 1.955 . S
C977 C15 1.951 . S
C989 C155 2.070 . S
C1016 C239 1.998 . S
C1004 C26 2.004 . S
C1043 C331 2.084 . S
C1031 C37 1.891 . S
C1058 C4 1.900 . S
C1070 C415 2.111 . S
