# Generated by pormake.
# Topology ptr, (4,4)-cn, num edge types: 1
# Building blocks:
#     Node 0, Type 0, BuildingBlock: TATPOV_clean_sbu_0, # of connection points: 4
#     Node 1, Type 0, BuildingBlock: TATPOV_clean_sbu_0, # of connection points: 4
#     Node 2, Type 0, BuildingBlock: TATPOV_clean_sbu_0, # of connection points: 4
#     Node 3, Type 0, BuildingBlock: TATPOV_clean_sbu_0, # of connection points: 4
#     Node 4, Type 0, BuildingBlock: TATPOV_clean_sbu_0, # of connection points: 4
#     Node 5, Type 0, BuildingBlock: TATPOV_clean_sbu_0, # of connection points: 4
#     Node 6, Type 0, BuildingBlock: TATPOV_clean_sbu_0, # of connection points: 4
#     Node 7, Type 0, BuildingBlock: TATPOV_clean_sbu_0, # of connection points: 4
#     Node 8, Type 0, BuildingBlock: TATPOV_clean_sbu_0, # of connection points: 4
#     Node 9, Type 0, BuildingBlock: TATPOV_clean_sbu_0, # of connection points: 4
#     Node 10, Type 0, BuildingBlock: TATPOV_clean_sbu_0, # of connection points: 4
#     Node 11, Type 0, BuildingBlock: TATPOV_clean_sbu_0, # of connection points: 4
#     Node 12, Type 0, BuildingBlock: TATPOV_clean_sbu_0, # of connection points: 4
#     Node 13, Type 0, BuildingBlock: TATPOV_clean_sbu_0, # of connection points: 4
#     Node 14, Type 0, BuildingBlock: TATPOV_clean_sbu_0, # of connection points: 4
#     Node 15, Type 0, BuildingBlock: TATPOV_clean_sbu_0, # of connection points: 4
#     Node 16, Type 0, BuildingBlock: TATPOV_clean_sbu_0, # of connection points: 4
#     Node 17, Type 0, BuildingBlock: TATPOV_clean_sbu_0, # of connection points: 4
#     Node 18, Type 1, BuildingBlock: KUFVIS_clean_linker_0, # of connection points: 4
#     Node 19, Type 1, BuildingBlock: KUFVIS_clean_linker_0, # of connection points: 4
#     Node 20, Type 1, BuildingBlock: KUFVIS_clean_linker_0, # of connection points: 4
#     Node 21, Type 1, BuildingBlock: KUFVIS_clean_linker_0, # of connection points: 4
#     Node 22, Type 1, BuildingBlock: KUFVIS_clean_linker_0, # of connection points: 4
#     Node 23, Type 1, BuildingBlock: KUFVIS_clean_linker_0, # of connection points: 4
#     Node 24, Type 1, BuildingBlock: KUFVIS_clean_linker_0, # of connection points: 4
#     Node 25, Type 1, BuildingBlock: KUFVIS_clean_linker_0, # of connection points: 4
#     Node 26, Type 1, BuildingBlock: KUFVIS_clean_linker_0, # of connection points: 4
#     Node 27, Type 1, BuildingBlock: KUFVIS_clean_linker_0, # of connection points: 4
#     Node 28, Type 1, BuildingBlock: KUFVIS_clean_linker_0, # of connection points: 4
#     Node 29, Type 1, BuildingBlock: KUFVIS_clean_linker_0, # of connection points: 4
#     Node 30, Type 1, BuildingBlock: KUFVIS_clean_linker_0, # of connection points: 4
#     Node 31, Type 1, BuildingBlock: KUFVIS_clean_linker_0, # of connection points: 4
#     Node 32, Type 1, BuildingBlock: KUFVIS_clean_linker_0, # of connection points: 4
#     Node 33, Type 1, BuildingBlock: KUFVIS_clean_linker_0, # of connection points: 4
#     Node 34, Type 1, BuildingBlock: KUFVIS_clean_linker_0, # of connection points: 4
#     Node 35, Type 1, BuildingBlock: KUFVIS_clean_linker_0, # of connection points: 4
#     Edge 36, Type (0, 1), BuildingBlock: AJUNOK_clean_linker_0, # of connection points: 2
#     Edge 37, Type (0, 1), BuildingBlock: AJUNOK_clean_linker_0, # of connection points: 2
#     Edge 38, Type (0, 1), BuildingBlock: AJUNOK_clean_linker_0, # of connection points: 2
#     Edge 39, Type (0, 1), BuildingBlock: AJUNOK_clean_linker_0, # of connection points: 2
#     Edge 40, Type (0, 1), BuildingBlock: AJUNOK_clean_linker_0, # of connection points: 2
#     Edge 41, Type (0, 1), BuildingBlock: AJUNOK_clean_linker_0, # of connection points: 2
#     Edge 42, Type (0, 1), BuildingBlock: AJUNOK_clean_linker_0, # of connection points: 2
#     Edge 43, Type (0, 1), BuildingBlock: AJUNOK_clean_linker_0, # of connection points: 2
#     Edge 44, Type (0, 1), BuildingBlock: AJUNOK_clean_linker_0, # of connection points: 2
#     Edge 45, Type (0, 1), BuildingBlock: AJUNOK_clean_linker_0, # of connection points: 2
#     Edge 46, Type (0, 1), BuildingBlock: AJUNOK_clean_linker_0, # of connection points: 2
#     Edge 47, Type (0, 1), BuildingBlock: AJUNOK_clean_linker_0, # of connection points: 2
#     Edge 48, Type (0, 1), BuildingBlock: AJUNOK_clean_linker_0, # of connection points: 2
#     Edge 49, Type (0, 1), BuildingBlock: AJUNOK_clean_linker_0, # of connection points: 2
#     Edge 50, Type (0, 1), BuildingBlock: AJUNOK_clean_linker_0, # of connection points: 2
#     Edge 51, Type (0, 1), BuildingBlock: AJUNOK_clean_linker_0, # of connection points: 2
#     Edge 52, Type (0, 1), BuildingBlock: AJUNOK_clean_linker_0, # of connection points: 2
#     Edge 53, Type (0, 1), BuildingBlock: AJUNOK_clean_linker_0, # of connection points: 2
#     Edge 54, Type (0, 1), BuildingBlock: AJUNOK_clean_linker_0, # of connection points: 2
#     Edge 55, Type (0, 1), BuildingBlock: AJUNOK_clean_linker_0, # of connection points: 2
#     Edge 56, Type (0, 1), BuildingBlock: AJUNOK_clean_linker_0, # of connection points: 2
#     Edge 57, Type (0, 1), BuildingBlock: AJUNOK_clean_linker_0, # of connection points: 2
#     Edge 58, Type (0, 1), BuildingBlock: AJUNOK_clean_linker_0, # of connection points: 2
#     Edge 59, Type (0, 1), BuildingBlock: AJUNOK_clean_linker_0, # of connection points: 2
#     Edge 60, Type (0, 1), BuildingBlock: AJUNOK_clean_linker_0, # of connection points: 2
#     Edge 61, Type (0, 1), BuildingBlock: AJUNOK_clean_linker_0, # of connection points: 2
#     Edge 62, Type (0, 1), BuildingBlock: AJUNOK_clean_linker_0, # of connection points: 2
#     Edge 63, Type (0, 1), BuildingBlock: AJUNOK_clean_linker_0, # of connection points: 2
#     Edge 64, Type (0, 1), BuildingBlock: AJUNOK_clean_linker_0, # of connection points: 2
#     Edge 65, Type (0, 1), BuildingBlock: AJUNOK_clean_linker_0, # of connection points: 2
#     Edge 66, Type (0, 1), BuildingBlock: AJUNOK_clean_linker_0, # of connection points: 2
#     Edge 67, Type (0, 1), BuildingBlock: AJUNOK_clean_linker_0, # of connection points: 2
#     Edge 68, Type (0, 1), BuildingBlock: AJUNOK_clean_linker_0, # of connection points: 2
#     Edge 69, Type (0, 1), BuildingBlock: AJUNOK_clean_linker_0, # of connection points: 2
#     Edge 70, Type (0, 1), BuildingBlock: AJUNOK_clean_linker_0, # of connection points: 2
#     Edge 71, Type (0, 1), BuildingBlock: AJUNOK_clean_linker_0, # of connection points: 2
#     Edge 72, Type (0, 1), BuildingBlock: AJUNOK_clean_linker_0, # of connection points: 2
#     Edge 73, Type (0, 1), BuildingBlock: AJUNOK_clean_linker_0, # of connection points: 2
#     Edge 74, Type (0, 1), BuildingBlock: AJUNOK_clean_linker_0, # of connection points: 2
#     Edge 75, Type (0, 1), BuildingBlock: AJUNOK_clean_linker_0, # of connection points: 2
#     Edge 76, Type (0, 1), BuildingBlock: AJUNOK_clean_linker_0, # of connection points: 2
#     Edge 77, Type (0, 1), BuildingBlock: AJUNOK_clean_linker_0, # of connection points: 2
#     Edge 78, Type (0, 1), BuildingBlock: AJUNOK_clean_linker_0, # of connection points: 2
#     Edge 79, Type (0, 1), BuildingBlock: AJUNOK_clean_linker_0, # of connection points: 2
#     Edge 80, Type (0, 1), BuildingBlock: AJUNOK_clean_linker_0, # of connection points: 2
#     Edge 81, Type (0, 1), BuildingBlock: AJUNOK_clean_linker_0, # of connection points: 2
#     Edge 82, Type (0, 1), BuildingBlock: AJUNOK_clean_linker_0, # of connection points: 2
#     Edge 83, Type (0, 1), BuildingBlock: AJUNOK_clean_linker_0, # of connection points: 2
#     Edge 84, Type (0, 1), BuildingBlock: AJUNOK_clean_linker_0, # of connection points: 2
#     Edge 85, Type (0, 1), BuildingBlock: AJUNOK_clean_linker_0, # of connection points: 2
#     Edge 86, Type (0, 1), BuildingBlock: AJUNOK_clean_linker_0, # of connection points: 2
#     Edge 87, Type (0, 1), BuildingBlock: AJUNOK_clean_linker_0, # of connection points: 2
#     Edge 88, Type (0, 1), BuildingBlock: AJUNOK_clean_linker_0, # of connection points: 2
#     Edge 89, Type (0, 1), BuildingBlock: AJUNOK_clean_linker_0, # of connection points: 2
#     Edge 90, Type (0, 1), BuildingBlock: AJUNOK_clean_linker_0, # of connection points: 2
#     Edge 91, Type (0, 1), BuildingBlock: AJUNOK_clean_linker_0, # of connection points: 2
#     Edge 92, Type (0, 1), BuildingBlock: AJUNOK_clean_linker_0, # of connection points: 2
#     Edge 93, Type (0, 1), BuildingBlock: AJUNOK_clean_linker_0, # of connection points: 2
#     Edge 94, Type (0, 1), BuildingBlock: AJUNOK_clean_linker_0, # of connection points: 2
#     Edge 95, Type (0, 1), BuildingBlock: AJUNOK_clean_linker_0, # of connection points: 2
#     Edge 96, Type (0, 1), BuildingBlock: AJUNOK_clean_linker_0, # of connection points: 2
#     Edge 97, Type (0, 1), BuildingBlock: AJUNOK_clean_linker_0, # of connection points: 2
#     Edge 98, Type (0, 1), BuildingBlock: AJUNOK_clean_linker_0, # of connection points: 2
#     Edge 99, Type (0, 1), BuildingBlock: AJUNOK_clean_linker_0, # of connection points: 2
#     Edge 100, Type (0, 1), BuildingBlock: AJUNOK_clean_linker_0, # of connection points: 2
#     Edge 101, Type (0, 1), BuildingBlock: AJUNOK_clean_linker_0, # of connection points: 2
#     Edge 102, Type (0, 1), BuildingBlock: AJUNOK_clean_linker_0, # of connection points: 2
#     Edge 103, Type (0, 1), BuildingBlock: AJUNOK_clean_linker_0, # of connection points: 2
#     Edge 104, Type (0, 1), BuildingBlock: AJUNOK_clean_linker_0, # of connection points: 2
#     Edge 105, Type (0, 1), BuildingBlock: AJUNOK_clean_linker_0, # of connection points: 2
#     Edge 106, Type (0, 1), BuildingBlock: AJUNOK_clean_linker_0, # of connection points: 2
#     Edge 107, Type (0, 1), BuildingBlock: AJUNOK_clean_linker_0, # of connection points: 2
# Relax obj value: 0.070
# Max RMSD: 0.193
# Mean RMSD: 0.121
data_MOF--net-ptr--node1-TATPOV_clean_sbu_0--node2-KUFVIS_clean_linker_0--edge1-AJUNOK_clean_linker_0
_symmetry_space_group_name_H-M    P1
_symmetry_Int_Tables_number       1
_symmetry_cell_setting            triclinic
loop_
_symmetry_equiv_pos_as_xyz
'x, y, z'
_cell_length_a     57.875677
_cell_length_b     58.528052
_cell_length_c     35.947699
_cell_angle_alpha  89.278533
_cell_angle_beta   91.828545
_cell_angle_gamma 121.42062
loop_
_atom_site_label
_atom_site_type_symbol
_atom_site_fract_x
_atom_site_fract_y
_atom_site_fract_z
_atom_type_partial_charge
Zn0 Zn 0.94189 0.36726 0.02397 0.0
Zn1 Zn 0.99075 0.37062 0.0253 0.0
O2 O 0.962 0.33026 0.02113 0.0
O3 O 0.9223 0.32677 0.021 0.0
O4 O 0.02699 0.3722 0.02778 0.0
O5 O 0.95168 0.38727 0.07277 0.0
O6 O 0.99145 0.39083 0.07275 0.0
C7 C 0.93618 0.3158 0.01939 0.0
C8 C 0.97588 0.39688 0.96224 0.0
O9 O 0.99231 0.39116 0.97789 0.0
O10 O 0.95312 0.38893 0.97637 0.0
C11 C 0.03147 0.35515 0.01322 0.0
O12 O 1.0117 0.33459 -0.00507 0.0
C13 C 0.97494 0.39604 0.08765 0.0
Zn14 Zn 0.66905 0.59821 0.01869 0.0
Zn15 Zn 0.67009 0.64387 0.02268 0.0
O16 O 0.71092 0.65558 0.01656 0.0
O17 O 0.70904 0.61712 0.01464 0.0
O18 O 0.66919 0.6785 0.02846 0.0
O19 O 0.6521 0.58519 0.0675 0.0
O20 O 0.65147 0.62236 0.07076 0.0
C21 C 0.72285 0.6424 0.01402 0.0
C22 C 0.6371 0.60285 0.96026 0.0
O23 O 0.64555 0.62551 0.97575 0.0
O24 O 0.64476 0.5876 0.97319 0.0
C25 C 0.68655 0.70237 0.01863 0.0
O26 O 0.70864 0.70699 0.00253 0.0
C27 C 0.64564 0.59974 0.08446 0.0
Zn28 Zn 0.38255 0.97933 0.01047 0.0
Zn29 Zn 0.39061 0.02668 0.017 0.0
O30 O 0.34873 0.9997 0.02171 0.0
O31 O 0.34265 0.96001 0.01135 0.0
O32 O 0.3926 0.06281 0.01716 0.0
O33 O 0.4002 0.98605 0.96252 0.0
O34 O 0.40715 0.02664 0.9661 0.0
C35 C 0.33286 0.97439 0.0177 0.0
C36 C 0.41737 1.007 0.07331 0.0
O37 O 0.41426 0.02613 0.06216 0.0
O38 O 0.40481 0.98471 0.0565 0.0
C39 C 0.41285 0.08534 0.00786 0.0
O40 O 0.43547 0.08658 -4e-05 0.0
C41 C 0.40963 1.0091 0.94883 0.0
Zn42 Zn 0.09472 0.65843 0.98694 0.0
Zn43 Zn 0.04646 0.65644 0.98552 0.0
O44 O 0.07584 0.69658 -0.01008 0.0
O45 O 0.11505 0.69901 -0.00967 0.0
O46 O 1.01061 0.6556 0.98227 0.0
O47 O 0.08465 0.63856 0.93783 0.0
O48 O 0.04544 0.63616 0.93807 0.0
C49 C 0.10167 0.71052 -0.0081 0.0
C50 C 0.06016 0.62928 0.04862 0.0
O51 O 0.04421 0.63564 0.03299 0.0
O52 O 0.08278 0.6366 0.03446 0.0
C53 C 1.00647 0.67339 -0.00507 0.0
O54 O 0.02646 0.6945 0.012 0.0
C55 C 0.0615 0.63043 0.92297 0.0
Zn56 Zn 0.37287 0.43377 0.98348 0.0
Zn57 Zn 0.37157 0.3876 0.97959 0.0
O58 O 0.33147 0.37765 0.98676 0.0
O59 O 0.33285 0.41589 0.98839 0.0
O60 O 0.36828 0.3509 0.97313 0.0
O61 O 0.3897 0.44583 0.93419 0.0
O62 O 0.39047 0.4087 0.93144 0.0
C63 C 0.31932 0.3906 0.98955 0.0
C64 C 0.40534 0.42824 0.04137 0.0
O65 O 0.39671 0.40551 0.02601 0.0
O66 O 0.39758 0.44349 0.02866 0.0
C67 C 0.38236 0.34263 -0.0101 0.0
O68 O 0.40108 0.35836 0.01452 0.0
C69 C 0.39628 0.43125 0.91752 0.0
Zn70 Zn 0.66061 0.0535 -0.0052 0.0
Zn71 Zn 0.65014 1.00517 -0.00753 0.0
O72 O 0.69235 0.02956 0.98684 0.0
O73 O 0.70024 0.07028 -0.00616 0.0
O74 O 0.64386 0.96719 -0.00279 0.0
O75 O 0.64389 0.05054 0.04259 0.0
O76 O 0.63528 1.0093 0.04279 0.0
C77 C 0.70904 0.05482 0.98945 0.0
C78 C 0.62467 0.02487 0.93367 0.0
O79 O 0.62673 1.00547 0.94657 0.0
O80 O 0.63844 0.04774 0.94868 0.0
C81 C 0.65766 0.95893 0.98144 0.0
O82 O 0.67601 0.9748 0.95775 0.0
C83 C 0.63398 0.02812 0.05835 0.0
Zn84 Zn 0.60726 0.70191 0.35474 0.0
Zn85 Zn 0.65601 0.70553 0.35429 0.0
O86 O 0.62691 0.66503 0.35115 0.0
O87 O 0.58719 0.66145 0.35243 0.0
O88 O 0.69214 0.70663 0.35677 0.0
O89 O 0.61748 0.72212 0.40331 0.0
O90 O 0.65738 0.72609 0.40199 0.0
C91 C 0.60109 0.65052 0.35056 0.0
C92 C 0.64002 0.73143 0.29183 0.0
O93 O 0.65697 0.72598 0.30653 0.0
O94 O 0.61755 0.72324 0.30696 0.0
C95 C 0.69625 0.68898 0.34339 0.0
O96 O 0.67631 0.66828 0.32557 0.0
C97 C 0.64097 0.73117 0.41752 0.0
Zn98 Zn 0.33221 0.92667 0.35346 0.0
Zn99 Zn 0.33448 0.97333 0.3571 0.0
O100 O 0.37452 0.98302 0.35139 0.0
O101 O 0.37252 0.94451 0.35057 0.0
O102 O 0.33869 1.01024 0.36341 0.0
O103 O 0.31414 0.91461 0.40215 0.0
O104 O 0.31477 0.95246 0.40484 0.0
C105 C 0.38643 0.96981 0.3497 0.0
C106 C 0.30103 0.93333 0.29447 0.0
O107 O 0.30974 0.95597 0.31017 0.0
O108 O 0.30837 0.91775 0.30722 0.0
C109 C 0.32516 0.01921 0.34696 0.0
O110 O 0.30594 1.0039 0.3226 0.0
C111 C 0.30802 0.92963 0.41862 0.0
Zn112 Zn 0.06563 0.32318 0.35414 0.0
Zn113 Zn 0.06931 0.36899 0.35159 0.0
O114 O 0.02753 0.34044 0.3568 0.0
O115 O 0.02552 0.3019 0.35653 0.0
O116 O 0.07066 0.40448 0.34428 0.0
O117 O 0.08268 0.32741 0.30598 0.0
O118 O 0.08654 0.36672 0.3024 0.0
C119 C 1.01356 0.3148 0.35728 0.0
C120 C 0.10062 0.35771 0.41254 0.0
O121 O 0.0945 0.37409 0.39825 0.0
O122 O 0.08994 0.3343 0.39929 0.0
C123 C 0.05659 0.41192 0.36111 0.0
O124 O 0.04058 0.39658 0.3874 0.0
C125 C 0.09069 0.34911 0.28887 0.0
Zn126 Zn 0.7598 0.99349 0.31985 0.0
Zn127 Zn 0.71216 0.99279 0.3204 0.0
O128 O 0.74294 0.03258 0.32404 0.0
O129 O 0.78167 0.03411 0.32268 0.0
O130 O 0.67813 0.99524 0.31944 0.0
O131 O 0.74782 0.97323 0.27103 0.0
O132 O 0.70908 0.97176 0.27282 0.0
C133 C 0.7688 0.0461 0.32479 0.0
C134 C 0.72563 0.96485 0.38219 0.0
O135 O 0.70981 0.97163 0.3673 0.0
O136 O 0.748 0.97188 0.3675 0.0
C137 C 0.65401 0.97647 0.32596 0.0
O138 O 0.64931 0.95244 0.33366 0.0
C139 C 0.72446 0.96542 0.25711 0.0
Zn140 Zn 0.03282 0.76496 0.32631 0.0
Zn141 Zn 0.03296 0.71945 0.31845 0.0
O142 O 0.99215 0.70674 0.32472 0.0
O143 O 0.99255 0.74435 0.33011 0.0
O144 O 0.03448 0.68539 0.31135 0.0
O145 O 0.04966 0.77859 0.27738 0.0
O146 O 0.05083 0.74187 0.271 0.0
C147 C 0.97948 0.71904 0.32875 0.0
C148 C 0.06554 0.75909 0.38248 0.0
O149 O 0.05742 0.73711 0.36529 0.0
O150 O 0.05745 0.77447 0.37156 0.0
C151 C 1.01853 0.66199 0.3241 0.0
O152 O 0.99807 0.6578 0.34406 0.0
C153 C 0.05613 0.76469 0.25881 0.0
Zn154 Zn 0.31106 0.3724 0.31261 0.0
Zn155 Zn 0.30764 0.32708 0.31457 0.0
O156 O 0.34881 0.35675 0.30839 0.0
O157 O 0.35097 0.3953 0.30981 0.0
O158 O 0.31025 0.2937 0.31894 0.0
O159 O 0.2941 0.36716 0.36098 0.0
O160 O 0.29042 0.32792 0.36453 0.0
C161 C 0.36282 0.38236 0.30791 0.0
C162 C 0.27521 0.33746 0.25514 0.0
O163 O 0.28138 0.32106 0.26911 0.0
O164 O 0.2865 0.36108 0.26778 0.0
C165 C 0.29157 0.27007 0.32727 0.0
O166 O 0.26702 0.26528 0.33199 0.0
C167 C 0.28621 0.34547 0.37809 0.0
Zn168 Zn 0.28228 0.03749 0.69357 0.0
Zn169 Zn 0.3295 0.03847 0.68777 0.0
O170 O 0.29852 0.99853 0.68572 0.0
O171 O 0.26008 0.99704 0.69194 0.0
O172 O 0.36371 0.03621 0.68703 0.0
O173 O 0.29575 0.05845 0.74149 0.0
O174 O 0.33444 0.06039 0.73537 0.0
C175 C 0.27272 0.98503 0.6875 0.0
C176 C 0.31301 0.06519 0.62804 0.0
O177 O 0.3298 0.05887 0.6407 0.0
O178 O 0.29158 0.0582 0.64533 0.0
C179 C 0.38753 0.05523 0.67959 0.0
O180 O 0.39131 0.07874 0.67064 0.0
C181 C 0.31978 0.0668 0.75294 0.0
Zn182 Zn 1.004 0.26388 0.68074 0.0
Zn183 Zn 1.00801 0.31126 0.68782 0.0
O184 O 0.04768 0.32002 0.68104 0.0
O185 O 0.04386 0.2808 0.67599 0.0
O186 O 1.01239 0.34824 0.69564 0.0
O187 O 0.98733 0.25166 0.72998 0.0
O188 O 0.98889 0.28986 0.73541 0.0
C189 C 0.0586 0.30604 0.67697 0.0
C190 C 0.97303 0.27243 0.62443 0.0
O191 O 0.98283 0.29493 0.64103 0.0
O192 O 0.97939 0.25583 0.63588 0.0
C193 C 0.99688 0.35582 0.68181 0.0
O194 O 0.97621 0.33917 0.66031 0.0
C195 C 0.9821 0.26673 0.74806 0.0
Zn196 Zn 0.73056 0.65748 0.68784 0.0
Zn197 Zn 0.73404 0.70374 0.68651 0.0
O198 O 0.6926 0.67543 0.69269 0.0
O199 O 0.69035 0.63679 0.69085 0.0
O200 O 0.73546 0.73912 0.67929 0.0
O201 O 0.74726 0.66239 0.6391 0.0
O202 O 0.75046 0.70146 0.63691 0.0
C203 C 0.67857 0.64982 0.69296 0.0
C204 C 0.76572 0.69249 0.74641 0.0
O205 O 0.75941 0.70881 0.73253 0.0
O206 O 0.75523 0.66918 0.73282 0.0
C207 C 0.72113 0.74645 0.69558 0.0
O208 O 0.70482 0.73108 0.72159 0.0
C209 C 0.75458 0.68414 0.6224 0.0
Zn210 Zn 0.4345 0.32855 0.64679 0.0
Zn211 Zn 0.38588 0.32574 0.64747 0.0
O212 O 0.41505 0.36608 0.6504 0.0
O213 O 0.45455 0.36918 0.64897 0.0
O214 O 0.34989 0.3247 0.64462 0.0
O215 O 0.42363 0.30789 0.59825 0.0
O216 O 0.38417 0.30482 0.60029 0.0
C217 C 0.44087 0.38036 0.65094 0.0
C218 C 0.40152 0.29992 0.71023 0.0
O219 O 0.38487 0.30566 0.69534 0.0
O220 O 0.42384 0.30745 0.69498 0.0
C221 C 0.3455 0.34198 0.65864 0.0
O222 O 0.36499 0.36202 0.67801 0.0
C223 C 0.40006 0.29917 0.58452 0.0
Zn224 Zn 0.70832 0.10342 0.65842 0.0
Zn225 Zn 0.70629 0.05713 0.64908 0.0
O226 O 0.66563 0.04546 0.65518 0.0
O227 O 0.66789 0.08395 0.6611 0.0
O228 O 0.70635 0.02232 0.64194 0.0
O229 O 0.72609 0.1175 0.60996 0.0
O230 O 0.72508 0.07979 0.60183 0.0
C231 C 0.65386 0.05866 0.65912 0.0
C232 C 0.73948 0.09536 0.71449 0.0
O233 O 0.73077 0.07363 0.69632 0.0
O234 O 0.73225 0.11156 0.70436 0.0
C235 C 0.68993 0.99933 0.65549 0.0
O236 O 0.67007 0.9963 0.67582 0.0
C237 C 0.73165 0.10322 0.5906 0.0
Zn238 Zn 0.97093 0.7043 0.65047 0.0
Zn239 Zn 0.96986 0.65941 0.65135 0.0
O240 O 1.01067 0.69014 0.64614 0.0
O241 O 1.01107 0.72782 0.6478 0.0
O242 O 0.97352 0.62652 0.65509 0.0
O243 O 0.95371 0.6973 0.69922 0.0
O244 O 0.95228 0.65904 0.70142 0.0
C245 C 0.02383 0.71575 0.64598 0.0
C246 C 0.93659 0.66902 0.59174 0.0
O247 O 0.94382 0.65334 0.60549 0.0
O248 O 0.94635 0.69221 0.60539 0.0
C249 C 0.95518 0.60303 0.66464 0.0
O250 O 0.93082 0.59833 0.67071 0.0
C251 C 0.9471 0.67567 0.71583 0.0
H252 H 0.2427 0.33232 0.09527 0.0
H253 H 0.1935 0.35783 0.03902 0.0
H254 H 0.17161 0.32001 0.14676 0.0
H255 H 0.17 0.35712 0.15709 0.0
H256 H 0.10275 0.36306 0.11954 0.0
H257 H 0.1452 0.34462 0.04068 0.0
C258 C 0.22412 0.33264 0.09385 0.0
C259 C 0.20839 0.32584 0.12538 0.0
C260 C 0.21814 0.34284 0.06186 0.0
C261 C 0.1965 0.34752 0.06214 0.0
C262 C 0.17986 0.34013 0.0934 0.0
C263 C 0.18487 0.32716 0.12331 0.0
C264 C 0.15969 0.3487 0.09831 0.0
C265 C 0.15649 0.3556 0.13448 0.0
C266 C 0.13526 0.35937 0.14268 0.0
C267 C 0.11933 0.36021 0.11349 0.0
C268 C 0.12346 0.35608 0.07659 0.0
C269 C 0.14313 0.34943 0.0689 0.0
H270 H 0.68032 0.91896 0.0965 0.0
H271 H 0.6578 0.84401 0.04439 0.0
H272 H 0.69396 0.86328 0.15583 0.0
H273 H 0.66111 0.82025 0.16394 0.0
H274 H 0.664 0.7531 0.12576 0.0
H275 H 0.67932 0.81629 0.04899 0.0
C276 C 0.67888 0.89971 0.09757 0.0
C277 C 0.68734 0.89251 0.12988 0.0
C278 C 0.6685 0.88268 0.06662 0.0
C279 C 0.66663 0.85755 0.06793 0.0
C280 C 0.67526 0.84977 0.10063 0.0
C281 C 0.68651 0.86815 0.13081 0.0
C282 C 0.67103 0.82218 0.10566 0.0
C283 C 0.66439 0.81029 0.14136 0.0
C284 C 0.66248 0.78583 0.14879 0.0
C285 C 0.66575 0.77219 0.11998 0.0
C286 C 0.67117 0.78251 0.08386 0.0
C287 C 0.67423 0.80783 0.07662 0.0
H288 H 0.26635 0.9384 0.13527 0.0
H289 H 0.20167 0.88651 0.05883 0.0
H290 H 0.19806 0.86678 0.1756 0.0
H291 H 0.15303 0.8493 0.162 0.0
H292 H 0.10381 0.77785 0.09809 0.0
H293 H 0.1803 0.83919 0.05625 0.0
C294 C 0.24627 0.92105 0.13011 0.0
C295 C 0.23292 0.90394 0.15964 0.0
C296 C 0.23552 0.91475 0.09362 0.0
C297 C 0.21013 0.89127 0.08695 0.0
C298 C 0.19605 0.87375 0.11642 0.0
C299 C 0.20786 0.88035 0.15272 0.0
C300 C 0.16978 0.84796 0.10955 0.0
C301 C 0.14988 0.83786 0.13691 0.0
C302 C 0.12634 0.8125 0.13299 0.0
C303 C 0.1219 0.79763 0.10073 0.0
C304 C 0.14095 0.80724 0.07265 0.0
C305 C 0.16506 0.83235 0.07722 0.0
H306 H 0.37133 0.11747 0.90964 0.0
H307 H 0.39732 0.19437 0.95822 0.0
H308 H 0.35522 0.17162 0.85062 0.0
H309 H 0.38735 0.2148 0.83947 0.0
H310 H 0.38225 0.28069 0.87766 0.0
H311 H 0.37401 0.22079 0.95605 0.0
C312 C 0.37264 0.13666 0.90825 0.0
C313 C 0.36285 0.14302 0.87647 0.0
C314 C 0.38469 0.15468 0.93794 0.0
C315 C 0.38702 0.18 0.93586 0.0
C316 C 0.37659 0.18672 0.904 0.0
C317 C 0.36383 0.16744 0.87506 0.0
C318 C 0.37997 0.21392 0.89862 0.0
C319 C 0.38437 0.22482 0.86229 0.0
C320 C 0.38419 0.24822 0.85458 0.0
C321 C 0.38145 0.26206 0.88361 0.0
C322 C 0.37803 0.25266 0.92017 0.0
C323 C 0.37737 0.22849 0.92794 0.0
H324 H 0.77544 0.08832 0.87273 0.0
H325 H 0.84019 0.14094 0.94853 0.0
H326 H 0.84165 0.1613 0.83225 0.0
H327 H 0.88692 0.18125 0.84441 0.0
H328 H 0.93509 0.25148 0.91102 0.0
H329 H 0.86009 0.18747 0.95277 0.0
C330 C 0.79537 0.10591 0.87777 0.0
C331 C 0.80826 0.12315 0.84818 0.0
C332 C 0.80626 0.11237 0.91419 0.0
C333 C 0.83143 0.13618 0.92057 0.0
C334 C 0.84476 0.15416 0.89118 0.0
C335 C 0.83265 0.14742 0.85505 0.0
C336 C 0.87044 0.18052 0.8981 0.0
C337 C 0.88986 0.19199 0.87014 0.0
C338 C 0.91271 0.21782 0.87439 0.0
C339 C 0.91728 0.23157 0.90779 0.0
C340 C 0.89866 0.22068 0.93633 0.0
C341 C 0.87504 0.19526 0.93133 0.0
H342 H 0.79942 0.70062 0.90763 0.0
H343 H 0.84927 0.67597 0.96449 0.0
H344 H 0.867 0.70755 0.85283 0.0
H345 H 0.87017 0.67199 0.84524 0.0
H346 H 0.93427 0.66186 0.88594 0.0
H347 H 0.89526 0.68646 0.9617 0.0
C348 C 0.81775 0.69987 0.90892 0.0
C349 C 0.83272 0.70552 0.87685 0.0
C350 C 0.82382 0.68985 0.94103 0.0
C351 C 0.84548 0.68517 0.94065 0.0
C352 C 0.86091 0.69064 0.90842 0.0
C353 C 0.85519 0.70243 0.87766 0.0
C354 C 0.88041 0.68112 0.90409 0.0
C355 C 0.883 0.67288 0.86845 0.0
C356 C 0.90271 0.66657 0.86151 0.0
C357 C 0.91835 0.66587 0.89122 0.0
C358 C 0.91516 0.67201 0.9275 0.0
C359 C 0.89664 0.68035 0.93397 0.0
H360 H 0.90149 0.65815 0.43053 0.0
H361 H 0.85312 0.68458 0.37431 0.0
H362 H 0.83408 0.65166 0.48529 0.0
H363 H 0.83079 0.68699 0.49307 0.0
H364 H 0.76719 0.69777 0.45227 0.0
H365 H 0.80671 0.67393 0.37617 0.0
C366 C 0.88321 0.659 0.42934 0.0
C367 C 0.8684 0.65366 0.4615 0.0
C368 C 0.87724 0.66911 0.39727 0.0
C369 C 0.85615 0.67458 0.39781 0.0
C370 C 0.84047 0.66888 0.42981 0.0
C371 C 0.84596 0.65683 0.46054 0.0
C372 C 0.82101 0.67846 0.43403 0.0
C373 C 0.81815 0.68633 0.46975 0.0
C374 C 0.79846 0.69263 0.47664 0.0
C375 C 0.78305 0.6937 0.44693 0.0
C376 C 0.78653 0.68803 0.41054 0.0
C377 C 0.80506 0.67967 0.40402 0.0
H378 H 0.34682 0.24853 0.4279 0.0
H379 H 0.3168 0.17003 0.38214 0.0
H380 H 0.36438 0.19467 0.48527 0.0
H381 H 0.33047 0.15196 0.49892 0.0
H382 H 0.32988 0.08289 0.46048 0.0
H383 H 0.3403 0.14349 0.38192 0.0
C384 C 0.34547 0.22933 0.42924 0.0
C385 C 0.35699 0.22365 0.45985 0.0
C386 C 0.33142 0.21045 0.40089 0.0
C387 C 0.32866 0.18502 0.40327 0.0
C388 C 0.3405 0.17889 0.43389 0.0
C389 C 0.35516 0.1988 0.46151 0.0
C390 C 0.33617 0.15146 0.43959 0.0
C391 C 0.33198 0.14097 0.47604 0.0
C392 C 0.33017 0.11659 0.48365 0.0
C393 C 0.33175 0.10202 0.45457 0.0
C394 C 0.33514 0.11128 0.41792 0.0
C395 C 0.33716 0.13603 0.41017 0.0
H396 H 0.94076 0.27694 0.46456 0.0
H397 H 0.87921 0.2224 0.38654 0.0
H398 H 0.8724 0.20569 0.5047 0.0
H399 H 0.82852 0.18763 0.49126 0.0
H400 H 0.77759 0.11582 0.42921 0.0
H401 H 0.85386 0.17552 0.38491 0.0
C402 C 0.92094 0.2593 0.45899 0.0
C403 C 0.90676 0.24291 0.48864 0.0
C404 C 0.91157 0.25195 0.42215 0.0
C405 C 0.88655 0.22795 0.41503 0.0
C406 C 0.87139 0.21118 0.4448 0.0
C407 C 0.88235 0.21879 0.48145 0.0
C408 C 0.8447 0.1854 0.43854 0.0
C409 C 0.82506 0.17585 0.46645 0.0
C410 C 0.80128 0.15056 0.46355 0.0
C411 C 0.79599 0.13542 0.43138 0.0
C412 C 0.81439 0.14457 0.40253 0.0
C413 C 0.83907 0.16931 0.40638 0.0
H414 H 0.02257 0.44461 0.2466 0.0
H415 H 0.04776 0.52106 0.296 0.0
H416 H 1.00604 0.49883 0.18828 0.0
H417 H 0.03955 0.54181 0.1773 0.0
H418 H 0.038 0.60975 0.21521 0.0
H419 H 0.02499 0.54799 0.29328 0.0
C420 C 0.0237 0.46372 0.24539 0.0
C421 C 1.01325 0.46986 0.21404 0.0
C422 C 0.03575 0.48172 0.27515 0.0
C423 C 0.0376 0.50679 0.2735 0.0
C424 C 0.0273 0.51361 0.24167 0.0
C425 C 1.01443 0.4944 0.21272 0.0
C426 C 0.03146 0.54106 0.23616 0.0
C427 C 0.03693 0.55219 0.19999 0.0
C428 C 0.03839 0.57638 0.1923 0.0
C429 C 0.03633 0.59073 0.22124 0.0
C430 C 0.03209 0.58112 0.25774 0.0
C431 C 0.02921 0.55594 0.26531 0.0
H432 H 0.43659 0.42265 0.20084 0.0
H433 H 0.49629 0.47559 0.28181 0.0
H434 H 0.50529 0.49549 0.16465 0.0
H435 H 0.54896 0.51443 0.17948 0.0
H436 H 0.5978 0.58384 0.24694 0.0
H437 H 0.52073 0.52196 0.28624 0.0
C438 C 0.45618 0.44038 0.20727 0.0
C439 C 0.47047 0.45791 0.17862 0.0
C440 C 0.4651 0.44672 0.24443 0.0
C441 C 0.48963 0.47076 0.25296 0.0
C442 C 0.50517 0.48844 0.22423 0.0
C443 C 0.49488 0.48178 0.18713 0.0
C444 C 0.53144 0.51426 0.23222 0.0
C445 C 0.55162 0.52519 0.20508 0.0
C446 C 0.57494 0.55063 0.20978 0.0
C447 C 0.57957 0.56426 0.24325 0.0
C448 C 0.56048 0.55381 0.27122 0.0
C449 C 0.53609 0.52908 0.26542 0.0
H450 H 0.45418 0.01608 0.23764 0.0
H451 H 0.51495 1.00831 0.29806 0.0
H452 H 0.51305 1.01114 0.17738 0.0
H453 H 0.55377 0.02377 0.17933 0.0
H454 H 0.60457 0.9976 0.22457 0.0
H455 H 0.54429 0.99546 0.29347 0.0
C456 C 0.47274 0.01572 0.238 0.0
C457 C 0.48363 0.01544 0.20426 0.0
C458 C 0.48337 1.0123 0.27173 0.0
C459 C 0.50688 1.01057 0.2717 0.0
C460 C 0.51911 1.01111 0.23777 0.0
C461 C 0.50634 1.01278 0.20427 0.0
C462 C 0.54397 1.00863 0.23616 0.0
C463 C 0.55838 0.01492 0.20266 0.0
C464 C 0.57923 1.0099 0.19811 0.0
C465 C 0.58771 1.00055 0.2279 0.0
C466 C 0.57596 0.99641 0.26252 0.0
C467 C 0.55367 0.99979 0.26673 0.0
H468 H 0.58551 1.01285 0.77041 0.0
H469 H 0.52625 0.02286 0.70981 0.0
H470 H 0.52861 0.02086 0.83061 0.0
H471 H 0.49 1.01361 0.83014 0.0
H472 H 0.43967 0.03915 0.78165 0.0
H473 H 0.49647 0.03481 0.71291 0.0
C474 C 0.56734 0.01392 0.76998 0.0
C475 C 0.55695 0.01509 0.80371 0.0
C476 C 0.55693 0.01753 0.73618 0.0
C477 C 0.53407 0.02037 0.73622 0.0
C478 C 0.52231 0.02082 0.77015 0.0
C479 C 0.53485 0.01872 0.80367 0.0
C480 C 0.49838 0.02498 0.77165 0.0
C481 C 0.48528 0.02149 0.80582 0.0
C482 C 0.46527 0.02782 0.80979 0.0
C483 C 0.45617 0.03559 0.77888 0.0
C484 C 0.46667 0.0372 0.74391 0.0
C485 C 0.48819 0.03255 0.74014 0.0
H486 H 1.01023 0.58118 0.76492 0.0
H487 H 0.98185 0.50334 0.71782 0.0
H488 H 0.02829 0.52752 0.82189 0.0
H489 H 0.99426 0.48419 0.83442 0.0
H490 H 0.99785 0.41745 0.79579 0.0
H491 H 1.00711 0.47795 0.71781 0.0
C492 C 1.00919 0.56211 0.766 0.0
C493 C 0.02061 0.55637 0.79668 0.0
C494 C 0.99562 0.54345 0.73728 0.0
C495 C 0.9933 0.51819 0.73928 0.0
C496 C 1.00507 0.51203 0.76999 0.0
C497 C 1.01918 0.53171 0.79804 0.0
C498 C 1.00139 0.4848 0.77531 0.0
C499 C 0.99689 0.47392 0.81157 0.0
C500 C 0.99644 0.45019 0.81908 0.0
C501 C 0.99903 0.43628 0.78999 0.0
C502 C 1.00267 0.44584 0.75349 0.0
C503 C 1.0037 0.47017 0.74589 0.0
H504 H 0.60536 0.60882 0.8007 0.0
H505 H 0.5455 0.55565 0.72 0.0
H506 H 0.53741 0.53545 0.83705 0.0
H507 H 0.49351 0.51649 0.82262 0.0
H508 H 0.44482 0.44679 0.75554 0.0
H509 H 0.52155 0.509 0.7157 0.0
C510 C 0.58585 0.59097 0.79434 0.0
C511 C 0.5719 0.57327 0.82298 0.0
C512 C 0.57674 0.5847 0.75723 0.0
C513 C 0.55232 0.56048 0.74879 0.0
C514 C 0.53709 0.54263 0.77758 0.0
C515 C 0.54758 0.54927 0.81458 0.0
C516 C 0.51092 0.51666 0.76978 0.0
C517 C 0.49083 0.50567 0.79708 0.0
C518 C 0.46759 0.48013 0.79256 0.0
C519 C 0.463 0.46641 0.75916 0.0
C520 C 0.482 0.47691 0.73107 0.0
C521 C 0.50628 0.50178 0.73665 0.0
H522 H 0.68842 0.77877 0.57756 0.0
H523 H 0.71275 0.85469 0.62795 0.0
H524 H 0.67228 0.83329 0.51937 0.0
H525 H 0.70481 0.87611 0.50884 0.0
H526 H 0.70462 0.94441 0.54816 0.0
H527 H 0.69196 0.88243 0.62556 0.0
C528 C 0.68953 0.79786 0.57644 0.0
C529 C 0.67939 0.80423 0.54495 0.0
C530 C 0.70104 0.81558 0.60662 0.0
C531 C 0.70293 0.84065 0.60511 0.0
C532 C 0.69309 0.84775 0.57313 0.0
C533 C 0.68053 0.82876 0.54385 0.0
C534 C 0.69735 0.87527 0.56797 0.0
C535 C 0.70249 0.88645 0.53185 0.0
C536 C 0.70416 0.91077 0.52462 0.0
C537 C 0.70272 0.92525 0.55388 0.0
C538 C 0.699 0.91568 0.59035 0.0
C539 C 0.6958 0.89032 0.59754 0.0
H540 H 0.09802 0.75624 0.5421 0.0
H541 H 0.15826 0.81128 0.62077 0.0
H542 H 0.16573 0.82832 0.50257 0.0
H543 H 0.20935 0.8472 0.51545 0.0
H544 H 0.26171 0.91677 0.58068 0.0
H545 H 0.18506 0.85721 0.62401 0.0
C546 C 0.1176 0.77419 0.54778 0.0
C547 C 0.13173 0.79079 0.51832 0.0
C548 C 0.12669 0.78159 0.58464 0.0
C549 C 0.15134 0.80581 0.59213 0.0
C550 C 0.16668 0.8227 0.56252 0.0
C551 C 0.15586 0.81513 0.52575 0.0
C552 C 0.19349 0.84835 0.5691 0.0
C553 C 0.21295 0.8584 0.5409 0.0
C554 C 0.23693 0.88346 0.54446 0.0
C555 C 0.24291 0.89756 0.57777 0.0
C556 C 0.22471 0.88794 0.60684 0.0
C557 C 0.19965 0.86367 0.60222 0.0
H558 H 0.13508 0.36458 0.57342 0.0
H559 H 0.18555 0.33989 0.62816 0.0
H560 H 0.20293 0.37313 0.51731 0.0
H561 H 0.20658 0.33766 0.50915 0.0
H562 H 0.27398 0.33205 0.54715 0.0
H563 H 0.2325 0.35226 0.62519 0.0
C564 C 0.15354 0.36406 0.57416 0.0
C565 C 0.16843 0.37027 0.54192 0.0
C566 C 0.15987 0.35377 0.60572 0.0
C567 C 0.18171 0.34942 0.60478 0.0
C568 C 0.19723 0.35567 0.57254 0.0
C569 C 0.19114 0.36756 0.5422 0.0
C570 C 0.21739 0.34707 0.56772 0.0
C571 C 0.22022 0.33949 0.53183 0.0
C572 C 0.24136 0.33548 0.52389 0.0
C573 C 0.25746 0.33501 0.55315 0.0
C574 C 0.25377 0.33992 0.58988 0.0
C575 C 0.23424 0.34685 0.59718 0.0
C576 C 1.00939 0.42361 0.13762 0.0
C577 C 0.98361 0.41398 0.12084 0.0
C578 C 1.01872 0.44169 0.16755 0.0
C579 C 1.00277 0.45104 0.18189 0.0
H580 H 0.02265 0.41735 0.12743 0.0
H581 H 0.03879 0.44866 0.17937 0.0
S582 S 0.93353 0.43166 0.14925 0.0
N583 N 0.94199 0.41497 0.12172 0.0
N584 N 0.95978 0.44891 0.17802 0.0
C585 C 0.97695 0.44155 0.16573 0.0
C586 C 0.96729 0.423 0.13532 0.0
C587 C 0.62252 0.56333 0.13142 0.0
C588 C 0.62928 0.58889 0.11833 0.0
C589 C 0.60502 0.55109 0.16097 0.0
C590 C 0.59374 0.564 0.17888 0.0
H591 H 0.63042 0.55232 0.11836 0.0
H592 H 0.60028 0.53139 0.16989 0.0
S593 S 0.60462 0.6309 0.15601 0.0
N594 N 0.62322 0.62668 0.12619 0.0
N595 N 0.59024 0.60358 0.18168 0.0
C596 C 0.60052 0.58966 0.16662 0.0
C597 C 0.61832 0.60214 0.13642 0.0
C598 C 0.44529 0.03158 0.13069 0.0
C599 C 0.43583 1.01019 0.10532 0.0
C600 C 0.46141 0.03364 0.16213 0.0
C601 C 0.46896 0.01461 0.16905 0.0
H602 H 0.43968 0.04646 0.12678 0.0
H603 H 0.46774 0.05005 0.18145 0.0
S604 S 0.4504 0.95527 0.11085 0.0
N605 N 0.43625 0.97005 0.08891 0.0
N606 N 0.46593 0.97387 0.14803 0.0
C607 C 0.46019 0.99352 0.14355 0.0
C608 C 0.4438 0.99133 0.11172 0.0
C609 C 0.42769 0.99529 0.89746 0.0
C610 C 0.42414 0.01512 0.91344 0.0
C611 C 0.44143 0.99983 0.86442 0.0
C612 C 0.45218 0.02433 0.84585 0.0
H613 H 0.41976 0.97592 0.91044 0.0
H614 H 0.44318 0.98377 0.85295 0.0
S615 S 0.44923 0.0832 0.87578 0.0
N616 N 0.43297 0.0605 0.90811 0.0
N617 N 0.45904 0.06903 0.84574 0.0
C618 C 0.44903 0.04449 0.86136 0.0
C619 C 0.43499 0.03989 0.89522 0.0
C620 C 0.96525 0.42017 0.91165 0.0
C621 C 0.98287 0.41243 0.92708 0.0
C622 C 0.97036 0.43348 0.87744 0.0
C623 C 0.99319 0.4394 0.85729 0.0
H624 H 0.94703 0.41552 0.92571 0.0
H625 H 0.95585 0.43829 0.86606 0.0
S626 S 0.04696 0.42582 0.88629 0.0
N627 N 0.02513 0.41341 0.92017 0.0
N628 N 0.03459 0.43841 0.85595 0.0
C629 C 1.01151 0.43276 0.87286 0.0
C630 C 1.00641 0.4193 0.90773 0.0
C631 C 0.61195 0.61182 0.90958 0.0
C632 C 0.61834 0.59407 0.9271 0.0
C633 C 0.59567 0.60444 0.87693 0.0
C634 C 0.58498 0.57897 0.8607 0.0
H635 H 0.62014 0.63184 0.92052 0.0
H636 H 0.59202 0.61905 0.86368 0.0
S637 S 0.59429 0.52448 0.89628 0.0
N638 N 0.61133 0.54918 0.92644 0.0
N639 N 0.58124 0.53575 0.86494 0.0
C640 C 0.59033 0.56069 0.87856 0.0
C641 C 0.60691 0.56814 0.91174 0.0
C642 C 0.02641 0.60329 0.87347 0.0
C643 C 0.05233 0.61261 0.88959 0.0
C644 C 1.01648 0.5852 0.84354 0.0
C645 C 0.03195 0.57554 0.82847 0.0
H646 H 1.01346 0.60975 0.88425 0.0
H647 H 0.99628 0.5784 0.83241 0.0
S648 S 0.10139 0.59419 0.85902 0.0
N649 N 0.09361 0.61111 0.88718 0.0
N650 N 0.07471 0.57715 0.83085 0.0
C651 C 0.05794 0.58479 0.84387 0.0
C652 C 0.0682 0.60335 0.87432 0.0
C653 C 0.41975 0.46765 0.87057 0.0
C654 C 0.41283 0.44206 0.88377 0.0
C655 C 0.43742 0.47983 0.84115 0.0
C656 C 0.44871 0.46685 0.82346 0.0
H657 H 0.41185 0.47872 0.88344 0.0
H658 H 0.44224 0.49953 0.83214 0.0
S659 S 0.43746 0.39985 0.8467 0.0
N660 N 0.41878 0.40418 0.87625 0.0
N661 N 0.45205 0.42716 0.82101 0.0
C662 C 0.44178 0.44117 0.83584 0.0
C663 C 0.42382 0.42875 0.86591 0.0
C664 C 0.59536 0.99921 0.87766 0.0
C665 C 0.60581 0.02131 0.90197 0.0
C666 C 0.57885 0.99682 0.8465 0.0
C667 C 0.57188 0.01621 0.83884 0.0
H668 H 0.60051 0.98404 0.88215 0.0
H669 H 0.5718 0.97988 0.82791 0.0
S670 S 0.59302 0.07736 0.89434 0.0
N671 N 0.60689 0.06248 0.9167 0.0
N672 N 0.57651 0.05802 0.85814 0.0
C673 C 0.58163 0.03799 0.86336 0.0
C674 C 0.59841 0.04052 0.89488 0.0
C675 C 0.60801 0.99878 0.11163 0.0
C676 C 0.62033 0.02394 0.09421 0.0
C677 C 0.59458 0.99436 0.14513 0.0
C678 C 0.59284 0.01487 0.16225 0.0
H679 H 0.60867 0.98233 0.09935 0.0
H680 H 0.58535 0.9747 0.15768 0.0
S681 S 0.62245 0.0846 0.12944 0.0
N682 N 0.63036 0.06993 0.09762 0.0
N683 N 0.60516 0.0613 0.16053 0.0
C684 C 0.60512 0.04009 0.14547 0.0
C685 C 0.61888 0.04471 0.11149 0.0
C686 C 0.07007 0.60567 0.09963 0.0
C687 C 0.05284 0.61381 0.0839 0.0
C688 C 0.06468 0.59249 0.13398 0.0
C689 C 0.04197 0.58711 0.15399 0.0
H690 H 0.0882 0.60991 0.08568 0.0
H691 H 0.0789 0.58735 0.14557 0.0
S692 S 0.98914 0.60184 0.12425 0.0
N693 N 1.01102 0.61375 0.09041 0.0
N694 N 1.00107 0.58902 0.15489 0.0
C695 C 0.02403 0.59415 0.13814 0.0
C696 C 0.0294 0.60747 0.10313 0.0
C697 C 0.43038 0.41921 0.09214 0.0
C698 C 0.42431 0.43709 0.0743 0.0
C699 C 0.44663 0.4266 0.12481 0.0
C700 C 0.4576 0.4522 0.14076 0.0
H701 H 0.4219 0.39907 0.08148 0.0
H702 H 0.44999 0.41189 0.13837 0.0
S703 S 0.44937 0.5071 0.10407 0.0
N704 N 0.43207 0.48227 0.07419 0.0
N705 N 0.46207 0.49572 0.13577 0.0
C706 C 0.45265 0.47062 0.12249 0.0
C707 C 0.43611 0.46316 0.08929 0.0
C708 C 0.67552 0.75838 0.46774 0.0
C709 C 0.64981 0.74903 0.45085 0.0
C710 C 0.68483 0.77618 0.49805 0.0
C711 C 0.66895 0.78555 0.51259 0.0
H712 H 0.6887 0.75206 0.45739 0.0
H713 H 0.70482 0.78293 0.50997 0.0
S714 S 0.59994 0.76686 0.47975 0.0
N715 N 0.60836 0.75032 0.45188 0.0
N716 N 0.62611 0.78372 0.50878 0.0
C717 C 0.64321 0.77634 0.49631 0.0
C718 C 0.63358 0.75807 0.46557 0.0
C719 C 0.28303 0.89329 0.46521 0.0
C720 C 0.29115 0.91922 0.45215 0.0
C721 C 0.26541 0.88178 0.49484 0.0
C722 C 0.25536 0.89579 0.51286 0.0
H723 H 0.29003 0.88149 0.45217 0.0
H724 H 0.25975 0.86184 0.50387 0.0
S725 S 0.26976 0.96394 0.48978 0.0
N726 N 0.28745 0.95844 0.45992 0.0
N727 N 0.25427 0.93672 0.51553 0.0
C728 C 0.26335 0.92174 0.50044 0.0
C729 C 0.28126 0.93348 0.47018 0.0
C730 C 0.13557 0.35204 0.44589 0.0
C731 C 0.12123 0.36544 0.4432 0.0
C732 C 0.15265 0.35564 0.47651 0.0
C733 C 0.15613 0.37273 0.50609 0.0
H734 H 0.13289 0.3378 0.42466 0.0
H735 H 0.16175 0.34348 0.47802 0.0
S736 S 0.12623 0.41541 0.51046 0.0
N737 N 0.11386 0.39868 0.4709 0.0
N738 N 0.1461 0.40552 0.52889 0.0
C739 C 0.1434 0.38772 0.50266 0.0
C740 C 0.126 0.38413 0.4711 0.0
C741 C 0.10811 0.37385 0.2287 0.0
C742 C 0.10469 0.35347 0.25324 0.0
C743 C 0.11919 0.37653 0.19357 0.0
C744 C 0.12739 0.35901 0.18179 0.0
H745 H 0.10143 0.38733 0.23616 0.0
H746 H 0.1208 0.39205 0.17515 0.0
S747 S 0.12466 0.30351 0.23669 0.0
N748 N 0.11237 0.3167 0.26424 0.0
N749 N 0.13214 0.32116 0.19809 0.0
C750 C 0.12505 0.33923 0.20668 0.0
C751 C 0.11395 0.33659 0.24238 0.0
C752 C 0.66908 0.75258 0.23653 0.0
C753 C 0.64622 0.74695 0.25661 0.0
C754 C 0.67455 0.76584 0.20226 0.0
C755 C 0.65752 0.77419 0.18675 0.0
H756 H 0.68262 0.74624 0.24691 0.0
H757 H 0.69212 0.76931 0.18748 0.0
S758 S 0.59573 0.76555 0.22839 0.0
N759 N 0.60692 0.75186 0.25876 0.0
N760 N 0.6173 0.77655 0.19421 0.0
C761 C 0.63506 0.76944 0.20685 0.0
C762 C 0.62937 0.75585 0.24173 0.0
C763 C 0.27577 0.9428 0.24449 0.0
C764 C 0.282 0.92479 0.26157 0.0
C765 C 0.25882 0.93548 0.21251 0.0
C766 C 0.2472 0.90981 0.19655 0.0
H767 H 0.28451 0.96292 0.25534 0.0
H768 H 0.25523 0.95024 0.19963 0.0
S769 S 0.256 0.85476 0.23091 0.0
N770 N 0.27412 0.87957 0.26054 0.0
N771 N 0.24263 0.86622 0.20038 0.0
C772 C 0.25253 0.89135 0.21387 0.0
C773 C 0.26985 0.89875 0.24632 0.0
C774 C 0.73073 0.93791 0.21003 0.0
C775 C 0.71462 0.94729 0.22409 0.0
C776 C 0.72161 0.91975 0.18015 0.0
C777 C 0.69612 0.91041 0.16293 0.0
H778 H 0.75057 0.94448 0.22231 0.0
H779 H 0.73478 0.91333 0.17006 0.0
S780 S 0.64554 0.92771 0.18927 0.0
N781 N 0.67147 0.94513 0.21848 0.0
N782 N 0.65444 0.91102 0.16249 0.0
C783 C 0.67968 0.91937 0.17671 0.0
C784 C 0.6889 0.93779 0.20718 0.0
C785 C 0.08336 0.76315 0.20718 0.0
C786 C 0.07202 0.77625 0.22472 0.0
C787 C 0.10064 0.77493 0.17728 0.0
C788 C 0.10729 0.80027 0.16382 0.0
H789 H 0.07944 0.74393 0.21712 0.0
H790 H 0.10938 0.76438 0.16513 0.0
S791 S 0.08141 0.84208 0.1974 0.0
N792 N 0.06755 0.8155 0.22454 0.0
N793 N 0.10011 0.8374 0.16838 0.0
C794 C 0.09561 0.8133 0.18023 0.0
C795 C 0.0779 0.80132 0.21059 0.0
C796 C 0.25134 0.31308 0.19551 0.0
C797 C 0.25394 0.3295 0.2255 0.0
C798 C 0.23465 0.31001 0.1642 0.0
C799 C 0.21995 0.32316 0.16191 0.0
H800 H 0.26346 0.30391 0.19522 0.0
H801 H 0.23435 0.29835 0.14082 0.0
S802 S 0.21682 0.36493 0.23645 0.0
N803 N 0.23766 0.3559 0.2535 0.0
N804 N 0.2074 0.35112 0.19475 0.0
C805 C 0.22086 0.33784 0.19329 0.0
C806 C 0.23762 0.3408 0.22499 0.0
C807 C 0.26832 0.32055 0.43808 0.0
C808 C 0.27218 0.34116 0.41367 0.0
C809 C 0.25713 0.31792 0.47314 0.0
C810 C 0.24925 0.3357 0.48489 0.0
H811 H 0.27473 0.30686 0.43059 0.0
H812 H 0.25521 0.30226 0.49154 0.0
S813 S 0.25343 0.39203 0.4305 0.0
N814 N 0.2654 0.37855 0.40292 0.0
N815 N 0.24544 0.37412 0.46888 0.0
C816 C 0.25209 0.35574 0.46017 0.0
C817 C 0.26329 0.35835 0.42459 0.0
C818 C 0.73557 0.94073 0.43225 0.0
C819 C 0.71836 0.94908 0.41713 0.0
C820 C 0.73022 0.9272 0.46628 0.0
C821 C 0.70755 0.92165 0.48651 0.0
H822 H 0.75368 0.94511 0.41812 0.0
H823 H 0.74443 0.92194 0.4775 0.0
S824 S 0.65473 0.93672 0.45821 0.0
N825 N 0.67657 0.94897 0.42432 0.0
N826 N 0.66669 0.92357 0.48827 0.0
C827 C 0.6896 0.92886 0.47122 0.0
C828 C 0.69494 0.94255 0.43654 0.0
C829 C 0.09634 0.79338 0.42974 0.0
C830 C 0.08469 0.76727 0.41506 0.0
C831 C 0.11312 0.80146 0.46181 0.0
C832 C 0.11886 0.78375 0.48057 0.0
H833 H 0.092 0.80763 0.41692 0.0
H834 H 0.12052 0.82128 0.47303 0.0
S835 S 0.09592 0.71421 0.45214 0.0
N836 N 0.08192 0.7244 0.42057 0.0
N837 N 0.11351 0.73973 0.48096 0.0
C838 C 0.10851 0.75806 0.46536 0.0
C839 C 0.09144 0.7498 0.4326 0.0
C840 C 0.31594 0.09576 0.80018 0.0
C841 C 0.33116 0.0857 0.78508 0.0
C842 C 0.32647 0.1147 0.82913 0.0
C843 C 0.35254 0.12417 0.84438 0.0
H844 H 0.29572 0.08916 0.78939 0.0
H845 H 0.31396 0.12166 0.84005 0.0
S846 S 0.40116 0.10511 0.8148 0.0
N847 N 0.37405 0.08724 0.78764 0.0
N848 N 0.39376 0.12283 0.84193 0.0
C849 C 0.36809 0.11448 0.8296 0.0
C850 C 0.35743 0.09527 0.80003 0.0
C851 C 0.9599 0.23069 0.7956 0.0
C852 C 0.96614 0.25602 0.78221 0.0
C853 C 0.9427 0.21851 0.82542 0.0
C854 C 0.93119 0.23122 0.84325 0.0
H855 H 0.96801 0.21985 0.78261 0.0
H856 H 0.93836 0.19898 0.8346 0.0
S857 S 0.94071 0.29746 0.81956 0.0
N858 N 0.95937 0.2934 0.78966 0.0
N859 N 0.92691 0.27036 0.84568 0.0
C860 C 0.93747 0.25666 0.83071 0.0
C861 C 0.95499 0.26911 0.80026 0.0
C862 C 0.79994 0.68628 0.78092 0.0
C863 C 0.78609 0.70014 0.77734 0.0
C864 C 0.81683 0.69 0.81179 0.0
C865 C 0.82063 0.70768 0.8407 0.0
H866 H 0.79701 0.67163 0.76023 0.0
H867 H 0.82554 0.67752 0.81406 0.0
S868 S 0.79203 0.75156 0.84266 0.0
N869 N 0.77949 0.73433 0.80352 0.0
N870 N 0.81142 0.7414 0.86196 0.0
C871 C 0.8084 0.72307 0.83639 0.0
C872 C 0.79116 0.71934 0.8046 0.0
C873 C 0.77515 0.67053 0.57439 0.0
C874 C 0.76802 0.68884 0.58631 0.0
C875 C 0.7863 0.67289 0.53971 0.0
C876 C 0.79087 0.69367 0.51532 0.0
H877 H 0.77159 0.65374 0.59161 0.0
H878 H 0.79024 0.65754 0.53132 0.0
S879 S 0.77842 0.74848 0.53415 0.0
N880 N 0.76813 0.72964 0.57177 0.0
N881 N 0.78946 0.73418 0.50632 0.0
C882 C 0.78501 0.71286 0.52731 0.0
C883 C 0.77356 0.71045 0.56286 0.0
C884 C 0.33988 0.08492 0.5707 0.0
C885 C 0.31807 0.08017 0.59258 0.0
C886 C 0.3441 0.09748 0.53605 0.0
C887 C 0.32681 0.10593 0.52198 0.0
H888 H 0.35352 0.07841 0.57996 0.0
H889 H 0.36084 0.10026 0.51982 0.0
S890 S 0.26752 0.09949 0.56855 0.0
N891 N 0.27956 0.08607 0.59799 0.0
N892 N 0.28757 0.10941 0.53264 0.0
C893 C 0.30546 0.1021 0.54387 0.0
C894 C 0.30105 0.08925 0.57917 0.0
C895 C 0.94127 0.2388 0.5772 0.0
C896 C 0.954 0.26503 0.59181 0.0
C897 C 0.92456 0.2313 0.54512 0.0
C898 C 0.91988 0.24971 0.52628 0.0
H899 H 0.94472 0.22395 0.59007 0.0
H900 H 0.91633 0.21131 0.534 0.0
S901 S 0.94578 0.31993 0.5546 0.0
N902 N 0.95895 0.30886 0.58612 0.0
N903 N 0.9273 0.29458 0.52585 0.0
C904 C 0.93129 0.27558 0.54142 0.0
C905 C 0.94837 0.28327 0.57416 0.0
C906 C 0.36421 0.27158 0.53605 0.0
C907 C 0.39027 0.28085 0.55163 0.0
C908 C 0.35377 0.25316 0.5065 0.0
C909 C 0.36885 0.24309 0.49131 0.0
H910 H 0.35157 0.27839 0.54693 0.0
H911 H 0.33351 0.24646 0.49575 0.0
S912 S 0.43835 0.26126 0.52067 0.0
N913 N 0.43118 0.27873 0.54869 0.0
N914 N 0.41132 0.24415 0.49309 0.0
C915 C 0.39494 0.25222 0.50623 0.0
C916 C 0.40572 0.27113 0.53628 0.0
C917 C 0.75849 0.10146 0.53842 0.0
C918 C 0.74771 0.11486 0.55656 0.0
C919 C 0.77563 0.11314 0.50831 0.0
C920 C 0.78272 0.13869 0.49513 0.0
H921 H 0.75417 0.08203 0.54799 0.0
H922 H 0.78383 0.10226 0.49564 0.0
S923 S 0.75846 0.18145 0.5305 0.0
N924 N 0.74436 0.15475 0.55742 0.0
N925 N 0.77658 0.1764 0.50085 0.0
C926 C 0.77168 0.15208 0.51228 0.0
C927 C 0.75413 0.14022 0.54288 0.0
C928 C 0.90158 0.67405 0.55716 0.0
C929 C 0.91598 0.66074 0.56091 0.0
C930 C 0.88437 0.66973 0.52642 0.0
C931 C 0.88075 0.65194 0.49775 0.0
H932 H 0.90431 0.68876 0.57762 0.0
H933 H 0.87529 0.68187 0.52403 0.0
S934 S 0.91067 0.60917 0.4964 0.0
N935 N 0.92324 0.62685 0.5352 0.0
N936 N 0.89068 0.61861 0.47705 0.0
C937 C 0.89351 0.63704 0.5023 0.0
C938 C 0.91109 0.64141 0.53395 0.0
C939 C 0.92541 0.68829 0.76344 0.0
C940 C 0.93333 0.67052 0.75179 0.0
C941 C 0.91417 0.68579 0.79807 0.0
C942 C 0.91022 0.66537 0.82276 0.0
H943 H 0.92849 0.70485 0.74607 0.0
H944 H 0.90973 0.70084 0.8062 0.0
S945 S 0.92448 0.61167 0.80451 0.0
N946 N 0.9344 0.6304 0.76675 0.0
N947 N 0.91285 0.62553 0.83214 0.0
C948 C 0.91675 0.64659 0.81098 0.0
C949 C 0.92832 0.64916 0.77544 0.0
C950 C 0.41354 0.2776 0.76078 0.0
C951 C 0.39538 0.28482 0.7458 0.0
C952 C 0.40924 0.2647 0.79525 0.0
C953 C 0.38669 0.25865 0.81616 0.0
H954 H 0.43158 0.28236 0.74613 0.0
H955 H 0.42415 0.2603 0.8062 0.0
S956 S 0.33172 0.27085 0.78864 0.0
N957 N 0.35292 0.28319 0.75403 0.0
N958 N 0.34494 0.25892 0.81868 0.0
C959 C 0.36783 0.26476 0.80107 0.0
C960 C 0.37213 0.27783 0.76595 0.0
C961 C 0.77042 0.12795 0.76354 0.0
C962 C 0.75856 0.10235 0.74703 0.0
C963 C 0.78776 0.13508 0.795 0.0
C964 C 0.79389 0.11689 0.81135 0.0
H965 H 0.76596 0.14259 0.75251 0.0
H966 H 0.79549 0.15459 0.80753 0.0
S967 S 0.77016 0.04821 0.77782 0.0
N968 N 0.75569 0.05932 0.74854 0.0
N969 N 0.78828 0.07285 0.80774 0.0
C970 C 0.78306 0.09162 0.79452 0.0
C971 C 0.76543 0.08433 0.76237 0.0
C972 C 0.05884 0.33319 0.02143 0.0
C973 C 0.05772 0.35671 0.02067 0.0
C974 C 0.08202 0.33345 0.03527 0.0
C975 C 0.10502 0.35732 0.04813 0.0
H976 H 0.04102 0.31409 0.01396 0.0
H977 H 0.08104 0.31457 0.03897 0.0
S978 S 0.11437 0.42497 0.04565 0.0
N979 N 0.08312 0.40502 0.02926 0.0
N980 N 0.12657 0.40545 0.05472 0.0
C981 C 0.10509 0.38127 0.04394 0.0
C982 C 0.08147 0.381 0.03044 0.0
C983 C 0.65642 0.71935 0.03613 0.0
C984 C 0.68241 0.72489 0.02753 0.0
C985 C 0.65238 0.73936 0.04977 0.0
C986 C 0.67418 0.76578 0.05578 0.0
H987 H 0.63913 0.69909 0.03393 0.0
H988 H 0.63234 0.73361 0.05862 0.0
S989 S 0.74581 0.79169 0.03418 0.0
N990 N 0.72998 0.75968 0.02257 0.0
N991 N 0.72229 0.79693 0.04928 0.0
C992 C 0.69991 0.77211 0.04476 0.0
C993 C 0.70406 0.75177 0.03046 0.0
C994 C 0.29437 0.97373 0.04865 0.0
C995 C 0.30367 0.96093 0.02603 0.0
C996 C 0.26973 0.9589 0.06678 0.0
C997 C 0.25371 0.9308 0.06312 0.0
H998 H 0.30727 0.99483 0.05524 0.0
H999 H 0.26455 0.96911 0.08677 0.0
S1000 S 0.26546 0.88908 -0.00121 0.0
N1001 N 0.29195 0.91961 -0.00591 0.0
N1002 N 0.24626 0.8917 0.02932 0.0
C1003 C 0.26092 0.91845 0.03648 0.0
C1004 C 0.28585 0.93355 0.01773 0.0
C1005 C 0.38424 0.10626 0.0063 0.0
C1006 C 0.40923 0.10848 -0.00034 0.0
C1007 C 0.37781 0.12457 -0.00897 0.0
C1008 C 0.39608 0.14592 0.9686 0.0
H1009 H 0.36868 0.08911 0.02103 0.0
H1010 H 0.35731 0.12033 -0.00656 0.0
S1011 S 0.46579 0.16368 0.94794 0.0
N1012 N 0.45384 0.13636 0.97347 0.0
N1013 N 0.44132 0.17027 0.94449 0.0
C1014 C 0.4221 0.15009 0.96518 0.0
C1015 C 0.42876 0.13148 0.98069 0.0
C1016 C 0.93866 0.27523 0.00652 0.0
C1017 C 0.92285 0.28699 0.00898 0.0
C1018 C 0.92912 0.25131 0.98679 0.0
C1019 C 0.90346 0.23827 0.96869 0.0
H1020 H 0.95936 0.28557 0.01737 0.0
H1021 H 0.9429 0.2443 0.98271 0.0
S1022 S 0.85183 0.25731 0.97343 0.0
N1023 N 0.87825 0.28096 -0.00274 0.0
N1024 N 0.86077 0.23631 0.95948 0.0
C1025 C 0.88622 0.24792 0.97475 0.0
C1026 C 0.89583 0.27226 -0.00495 0.0
C1027 C 0.76719 0.68354 -0.00193 0.0
C1028 C 0.75219 0.65594 0.00555 0.0
C1029 C 0.79249 0.69531 0.98142 0.0
C1030 C 0.80359 0.67989 0.97102 0.0
H1031 H 0.75859 0.69582 0.0027 0.0
H1032 H 0.80235 0.71621 0.97361 0.0
S1033 S 0.77526 0.60804 -0.00801 0.0
N1034 N 0.75287 0.6146 0.00785 0.0
N1035 N 0.79954 0.6365 0.9748 0.0
C1036 C 0.79026 0.653 0.98217 0.0
C1037 C 0.76473 0.64107 -0.00027 0.0
C1038 C 0.97953 0.69558 0.98387 0.0
C1039 C 0.98037 0.67194 0.98635 0.0
C1040 C 0.95657 0.69526 0.96891 0.0
C1041 C 0.93354 0.67123 0.95654 0.0
H1042 H 0.99739 0.71476 -0.0091 0.0
H1043 H 0.95775 0.71414 0.96402 0.0
S1044 S 0.92346 0.60338 0.96333 0.0
N1045 N 0.95463 0.62345 0.97988 0.0
N1046 N 0.91161 0.62293 0.95228 0.0
C1047 C 0.93318 0.64724 0.9624 0.0
C1048 C 0.95656 0.64757 0.97708 0.0
C1049 C 0.35606 0.29764 0.95823 0.0
C1050 C 0.37901 0.31635 0.97943 0.0
C1051 C 0.3542 0.27467 0.94319 0.0
C1052 C 0.37526 0.26943 0.94841 0.0
H1053 H 0.33993 0.30137 0.95162 0.0
H1054 H 0.33714 0.26205 0.92464 0.0
S1055 S 0.43825 0.31012 0.00505 0.0
N1056 N 0.42204 0.32633 0.0081 0.0
N1057 N 0.41862 0.28351 0.97883 0.0
C1058 C 0.39729 0.28674 0.97185 0.0
C1059 C 0.39917 0.31011 0.98752 0.0
C1060 C 0.74679 0.05386 0.95888 0.0
C1061 C 0.7382 0.06706 0.98193 0.0
C1062 C 0.77155 0.06826 0.94087 0.0
C1063 C 0.78825 0.09631 0.94492 0.0
H1064 H 0.73325 0.03294 0.95175 0.0
H1065 H 0.77621 0.05786 0.9205 0.0
S1066 S 0.77847 0.13842 0.01121 0.0
N1067 N 0.75136 0.10823 0.01532 0.0
N1068 N 0.79712 0.13544 0.98015 0.0
C1069 C 0.78175 0.10882 0.97228 0.0
C1070 C 0.75679 0.09412 -0.00899 0.0
C1071 C 0.6363 0.91689 0.01986 0.0
C1072 C 0.65623 0.93384 -0.00535 0.0
C1073 C 0.63799 0.89679 0.03927 0.0
C1074 C 0.6597 0.89279 0.03441 0.0
H1075 H 0.62027 0.92034 0.02669 0.0
H1076 H 0.62377 0.88616 0.06109 0.0
S1077 S 0.71462 0.92836 0.96743 0.0
N1078 N 0.69628 0.94238 0.96207 0.0
N1079 N 0.69957 0.90505 -0.00059 0.0
C1080 C 0.67813 0.90761 0.00665 0.0
C1081 C 0.6764 0.92804 0.98662 0.0
C1082 C 0.10044 0.75194 0.00346 0.0
C1083 C 0.11558 0.73939 0.00222 0.0
C1084 C 0.1104 0.77616 0.0226 0.0
C1085 C 0.13584 0.78876 0.04131 0.0
H1086 H 0.07993 0.74206 -0.00803 0.0
H1087 H 0.09711 0.78386 0.02558 0.0
S1088 S 0.18578 0.76735 0.04024 0.0
N1089 N 0.15934 0.74398 0.01612 0.0
N1090 N 0.17761 0.78923 0.05273 0.0
C1091 C 0.15244 0.77818 0.03667 0.0
C1092 C 0.1424 0.75353 0.01698 0.0
C1093 C 0.27884 0.39223 0.00842 0.0
C1094 C 0.29011 0.37681 -0.00133 0.0
C1095 C 0.25354 0.38055 0.025 0.0
C1096 C 0.23843 0.35297 0.03218 0.0
H1097 H 0.29043 0.41382 0.00576 0.0
H1098 H 0.24697 0.39352 0.03527 0.0
S1099 S 0.25558 0.30283 0.00458 0.0
N1100 N 0.28183 0.3318 -0.00805 0.0
N1101 N 0.23418 0.30991 0.02275 0.0
C1102 C 0.24794 0.33695 0.01872 0.0
C1103 C 0.27381 0.34883 0.00212 0.0
C1104 C 0.7226 0.66607 0.35373 0.0
C1105 C 0.72213 0.68995 0.352 0.0
C1106 C 0.74531 0.66583 0.36853 0.0
C1107 C 0.76851 0.68951 0.38148 0.0
H1108 H 0.7046 0.64712 0.34621 0.0
H1109 H 0.7438 0.64674 0.37284 0.0
S1110 S 0.77954 0.75781 0.377 0.0
N1111 N 0.74838 0.7383 0.36003 0.0
N1112 N 0.79095 0.73778 0.38721 0.0
C1113 C 0.76924 0.71375 0.37642 0.0
C1114 C 0.74609 0.71399 0.36195 0.0
C1115 C 0.35353 0.06413 0.37794 0.0
C1116 C 0.32983 0.04594 0.35758 0.0
C1117 C 0.35672 0.08754 0.39343 0.0
C1118 C 0.33631 0.09375 0.38942 0.0
H1119 H 0.36924 0.05964 0.38358 0.0
H1120 H 0.37434 0.09978 0.41132 0.0
S1121 S 0.27177 0.05474 0.33534 0.0
N1122 N 0.28676 0.03745 0.33103 0.0
N1123 N 0.29272 0.08119 0.36106 0.0
C1124 C 0.31351 0.07696 0.3668 0.0
C1125 C 0.31026 0.05312 0.3507 0.0
C1126 C 0.97145 0.31172 0.38022 0.0
C1127 C 0.98378 0.29961 0.36266 0.0
C1128 C 0.94551 0.29609 0.3949 0.0
C1129 C 0.93109 0.26785 0.39272 0.0
H1130 H 0.98276 0.33307 0.38563 0.0
H1131 H 0.93792 0.30596 0.41152 0.0
S1132 S 0.95145 0.22715 0.34085 0.0
N1133 N 0.97713 0.25823 0.33683 0.0
N1134 N 0.9289 0.22904 0.36544 0.0
C1135 C 0.94165 0.25593 0.37085 0.0
C1136 C 0.96795 0.27178 0.35574 0.0
C1137 C 0.07334 0.4521 0.31965 0.0
C1138 C 0.05524 0.43534 0.34688 0.0
C1139 C 0.06912 0.47051 0.29981 0.0
C1140 C 0.04667 0.47297 0.30639 0.0
H1141 H 0.08992 0.44979 0.31177 0.0
H1142 H 0.08203 0.48104 0.27671 0.0
S1143 S 0.9956 0.4371 0.37824 0.0
N1144 N 1.0159 0.42521 0.38259 0.0
N1145 N 1.00792 0.45947 0.34458 0.0
C1146 C 0.02996 0.45832 0.3358 0.0
C1147 C 0.03424 0.43959 0.35622 0.0
C1148 C 0.56096 0.60827 0.32504 0.0
C1149 C 0.58735 0.62153 0.34127 0.0
C1150 C 0.55036 0.58374 0.30628 0.0
C1151 C 0.56568 0.57156 0.30345 0.0
H1152 H 0.54934 0.61797 0.32379 0.0
H1153 H 0.53134 0.57576 0.29071 0.0
S1154 S 0.63267 0.59439 0.34892 0.0
N1155 N 0.62618 0.61788 0.35926 0.0
N1156 N 0.60617 0.57183 0.324 0.0
C1157 C 0.59046 0.5828 0.32362 0.0
C1158 C 0.60135 0.60782 0.34248 0.0
C1159 C 0.42986 1.01036 0.32994 0.0
C1160 C 0.41578 0.98346 0.34141 0.0
C1161 C 0.45465 0.02137 0.31207 0.0
C1162 C 0.46614 1.00581 0.30472 0.0
H1163 H 0.42068 0.02236 0.33183 0.0
H1164 H 0.46339 0.04124 0.30036 0.0
S1165 S 0.44116 0.93682 0.33795 0.0
N1166 N 0.41831 0.94353 0.35144 0.0
N1167 N 0.46432 0.96402 0.31671 0.0
C1168 C 0.45423 0.98024 0.32058 0.0
C1169 C 0.42909 0.96905 0.33905 0.0
C1170 C 0.60519 0.95955 0.30902 0.0
C1171 C 0.63107 0.98096 0.32007 0.0
C1172 C 0.5849 0.96416 0.29544 0.0
C1173 C 0.58957 0.99025 0.29317 0.0
H1174 H 0.60129 0.93935 0.30779 0.0
H1175 H 0.56652 0.94758 0.28314 0.0
S1176 S 0.65177 0.05248 0.32525 0.0
N1177 N 0.65869 0.02875 0.33287 0.0
N1178 N 0.62047 0.03719 0.30776 0.0
C1179 C 0.61417 1.01134 0.30809 0.0
C1180 C 0.63498 1.00678 0.32131 0.0
C1181 C 0.04815 0.64504 0.30429 0.0
C1182 C 0.0225 0.63948 0.31478 0.0
C1183 C 0.05182 0.62488 0.29038 0.0
C1184 C 0.02997 0.59832 0.28591 0.0
H1185 H 0.06536 0.66538 0.3053 0.0
H1186 H 0.07152 0.63056 0.28012 0.0
S1187 S 0.95924 0.5725 0.31247 0.0
N1188 N 0.97531 0.6047 0.32305 0.0
N1189 N 0.98225 0.56711 0.29573 0.0
C1190 C 1.00466 0.59204 0.29874 0.0
C1191 C 1.00091 0.61254 0.31339 0.0
C1192 C 0.40745 0.42551 0.30721 0.0
C1193 C 0.39249 0.39749 0.30183 0.0
C1194 C 0.43344 0.44153 0.29312 0.0
C1195 C 0.44538 0.43013 0.27305 0.0
H1196 H 0.39828 0.43543 0.32 0.0
H1197 H 0.44291 0.4631 0.29448 0.0
S1198 S 0.41772 0.35766 0.2587 0.0
N1199 N 0.39378 0.35881 0.28086 0.0
N1200 N 0.44264 0.38908 0.25424 0.0
C1201 C 0.43218 0.40203 0.27163 0.0
C1202 C 0.40568 0.38564 0.286 0.0
C1203 C 0.32534 0.25547 0.33194 0.0
C1204 C 0.29882 0.24971 0.33753 0.0
C1205 C 0.33488 0.24001 0.34861 0.0
C1206 C 0.31828 0.21808 0.37136 0.0
H1207 H 0.33951 0.27314 0.31669 0.0
H1208 H 0.35613 0.24673 0.34649 0.0
S1209 S 0.24613 0.19167 0.39008 0.0
N1210 N 0.25502 0.21806 0.36349 0.0
N1211 N 0.27332 0.18939 0.39509 0.0
C1212 C 0.29105 0.21045 0.37414 0.0
C1213 C 0.28122 0.22616 0.35716 0.0
C1214 C 0.81019 0.08763 0.34986 0.0
C1215 C 0.78367 0.07517 0.33416 0.0
C1216 C 0.82199 0.11249 0.36817 0.0
C1217 C 0.80779 0.12582 0.37103 0.0
H1218 H 0.82104 0.07713 0.35093 0.0
H1219 H 0.84113 0.11996 0.38324 0.0
S1220 S 0.74071 0.10503 0.3275 0.0
N1221 N 0.74571 0.08053 0.31726 0.0
N1222 N 0.76802 0.12719 0.35148 0.0
C1223 C 0.78279 0.1152 0.35162 0.0
C1224 C 0.77066 0.08986 0.33327 0.0
C1225 C 0.93764 0.71907 0.34434 0.0
C1226 C 0.94997 0.70437 0.33615 0.0
C1227 C 0.91199 0.70678 0.35991 0.0
C1228 C 0.8976 0.67927 0.36766 0.0
H1229 H 0.94862 0.74064 0.34133 0.0
H1230 H 0.90467 0.71936 0.36921 0.0
S1231 S 0.91753 0.63063 0.34313 0.0
N1232 N 0.94342 0.65994 0.3308 0.0
N1233 N 0.89504 0.63684 0.35967 0.0
C1234 C 0.9081 0.66382 0.35528 0.0
C1235 C 0.93435 0.67636 0.3397 0.0
C1236 C 0.40666 0.02549 0.68767 0.0
C1237 C 0.41103 0.05151 0.68556 0.0
C1238 C 0.42714 0.02107 0.70079 0.0
C1239 C 0.45271 0.04244 0.71271 0.0
H1240 H 0.38675 1.00825 0.68143 0.0
H1241 H 0.42195 1.00062 0.70557 0.0
S1242 S 0.47598 0.11449 0.70792 0.0
N1243 N 0.44429 0.09918 0.69195 0.0
N1244 N 0.48228 0.09057 0.71762 0.0
C1245 C 0.45819 0.06858 0.70727 0.0
C1246 C 0.43746 0.07319 0.69356 0.0
C1247 C 0.02376 0.40053 0.7141 0.0
C1248 C 1.00068 0.38221 0.69276 0.0
C1249 C 0.02591 0.42343 0.72985 0.0
C1250 C 1.0051 0.42904 0.72502 0.0
H1251 H 0.03971 0.39649 0.72042 0.0
H1252 H 0.04301 0.43571 0.74853 0.0
S1253 S 0.94214 0.38977 0.66779 0.0
N1254 N 0.95793 0.37319 0.66416 0.0
N1255 N 0.96198 0.41595 0.69461 0.0
C1256 C 0.98302 0.41222 0.70135 0.0
C1257 C 0.98079 0.38888 0.68507 0.0
C1258 C 0.63395 0.60665 0.69333 0.0
C1259 C 0.64891 0.63463 0.69915 0.0
C1260 C 0.60808 0.59043 0.70769 0.0
C1261 C 0.59622 0.60159 0.72849 0.0
H1262 H 0.64307 0.59687 0.67999 0.0
H1263 H 0.59866 0.56889 0.70594 0.0
S1264 S 0.62376 0.67395 0.74404 0.0
N1265 N 0.6476 0.67305 0.72121 0.0
N1266 N 0.59895 0.64247 0.74833 0.0
C1267 C 0.60936 0.6297 0.73031 0.0
C1268 C 0.63575 0.64627 0.71566 0.0
C1269 C 0.73828 0.7865 0.65393 0.0
C1270 C 0.71971 0.76963 0.68065 0.0
C1271 C 0.7341 0.80457 0.63317 0.0
C1272 C 0.71127 0.80662 0.63838 0.0
H1273 H 0.75525 0.7845 0.64715 0.0
H1274 H 0.74748 0.81524 0.61055 0.0
S1275 S 0.65862 0.77016 0.70814 0.0
N1276 N 0.67928 0.75879 0.71417 0.0
N1277 N 0.67145 0.79254 0.67455 0.0
C1278 C 0.69395 0.79183 0.66721 0.0
C1279 C 0.69817 0.7734 0.68852 0.0
C1280 C 0.23049 0.94403 0.66332 0.0
C1281 C 0.25729 0.95602 0.67788 0.0
C1282 C 0.21806 0.91944 0.64422 0.0
C1283 C 0.23189 0.9059 0.63946 0.0
H1284 H 0.21991 0.95478 0.6636 0.0
H1285 H 0.19874 0.91244 0.62991 0.0
S1286 S 0.2994 0.92522 0.67997 0.0
N1287 N 0.29508 0.94987 0.69198 0.0
N1288 N 0.27155 0.9036 0.65644 0.0
C1289 C 0.25714 0.91591 0.65799 0.0
C1290 C 0.26993 0.94102 0.67705 0.0
C1291 C 0.10385 0.34687 0.66412 0.0
C1292 C 0.08791 0.31898 0.66889 0.0
C1293 C 0.12931 0.35873 0.64799 0.0
C1294 C 0.13969 0.34315 0.63564 0.0
H1295 H 0.09589 0.35948 0.67041 0.0
H1296 H 0.13986 0.37997 0.64199 0.0
S1297 S 0.10877 0.27011 0.64912 0.0
N1298 N 0.08679 0.27676 0.66631 0.0
N1299 N 0.13403 0.29905 0.63461 0.0
C1300 C 0.12544 0.31575 0.64414 0.0
C1301 C 0.09964 0.30366 0.66098 0.0
C1302 C 0.29688 0.31676 0.63656 0.0
C1303 C 0.31959 0.34087 0.64955 0.0
C1304 C 0.27382 0.316 0.62156 0.0
C1305 C 0.27255 0.33934 0.61855 0.0
H1306 H 0.29742 0.29853 0.63621 0.0
H1307 H 0.25771 0.2974 0.60935 0.0
S1308 S 0.32501 0.40695 0.65233 0.0
N1309 N 0.33802 0.3882 0.6621 0.0
N1310 N 0.29485 0.3867 0.63283 0.0
C1311 C 0.29409 0.36311 0.63411 0.0
C1312 C 0.31758 0.3639 0.64981 0.0
C1313 C 0.71798 0.98036 0.6367 0.0
C1314 C 0.69271 0.976 0.64683 0.0
C1315 C 0.72057 0.95941 0.62328 0.0
C1316 C 0.69795 0.93325 0.61891 0.0
H1317 H 0.73575 1.00038 0.63754 0.0
H1318 H 0.74002 0.96418 0.6131 0.0
S1319 S 0.62779 0.91047 0.64493 0.0
N1320 N 0.64504 0.94276 0.65515 0.0
N1321 N 0.64994 0.90368 0.62863 0.0
C1322 C 0.673 0.92815 0.63153 0.0
C1323 C 0.67036 0.94945 0.64573 0.0
C1324 C 0.06752 0.76 0.6444 0.0
C1325 C 0.05364 0.73187 0.64056 0.0
C1326 C 0.09376 0.77649 0.63121 0.0
C1327 C 0.10708 0.76547 0.61366 0.0
H1328 H 0.05737 0.76957 0.65521 0.0
H1329 H 0.10239 0.79796 0.63113 0.0
S1330 S 0.08248 0.69325 0.60402 0.0
N1331 N 0.05736 0.69379 0.62372 0.0
N1332 N 0.10662 0.7249 0.5988 0.0
C1333 C 0.09489 0.73744 0.61388 0.0
C1334 C 0.06814 0.72059 0.62727 0.0
C1335 C 0.98925 0.58871 0.66896 0.0
C1336 C 0.9627 0.58281 0.67471 0.0
C1337 C 0.99891 0.57323 0.6853 0.0
C1338 C 0.98239 0.55112 0.70784 0.0
H1339 H 1.00336 0.6065 0.65385 0.0
H1340 H 0.02018 0.58007 0.6831 0.0
S1341 S 0.91025 0.52441 0.72704 0.0
N1342 N 0.919 0.5509 0.70075 0.0
N1343 N 0.93751 0.52222 0.73167 0.0
C1344 C 0.95515 0.5434 0.71083 0.0
C1345 C 0.94521 0.55914 0.69423 0.0
C1346 C 0.48116 0.42237 0.67683 0.0
C1347 C 0.45483 0.40935 0.66043 0.0
C1348 C 0.49187 0.44683 0.69584 0.0
C1349 C 0.47673 0.45919 0.69875 0.0
H1350 H 0.49264 0.41251 0.67801 0.0
H1351 H 0.51083 0.45462 0.7115 0.0
S1352 S 0.40992 0.43698 0.65315 0.0
N1353 N 0.41621 0.4134 0.64258 0.0
N1354 N 0.43644 0.45932 0.67825 0.0
C1355 C 0.452 0.44818 0.67851 0.0
C1356 C 0.44099 0.42323 0.65941 0.0
C1357 C 0.61027 0.01821 0.67885 0.0
C1358 C 0.62439 0.04492 0.66664 0.0
C1359 C 0.58544 1.00755 0.69658 0.0
C1360 C 0.57403 0.02332 0.70312 0.0
H1361 H 0.61952 1.00622 0.67783 0.0
H1362 H 0.57666 0.98786 0.70892 0.0
S1363 S 0.59906 0.09167 0.66705 0.0
N1364 N 0.62187 0.08464 0.65447 0.0
N1365 N 0.57591 0.06492 0.68909 0.0
C1366 C 0.58595 0.04858 0.68629 0.0
C1367 C 0.61107 0.05937 0.6679 0.0
loop_
_geom_bond_atom_site_label_1
_geom_bond_atom_site_label_2
_geom_bond_distance
_geom_bond_site_symmetry_2
_ccdc_geom_bond_type
Zn0 O3 2.031 1_554 S
Zn0 O5 2.049 . S
Zn0 O10 2.067 1_554 S
Zn1 O2 1.962 1_455 S
Zn1 O4 1.986 . S
Zn1 O6 1.996 1_455 S
Zn1 O9 1.943 1_554 S
O2 Zn1 1.962 1_655 S
O2 C7 1.254 1_554 S
O3 Zn0 2.031 1_556 S
O3 C7 1.269 . S
O4 Zn1 1.986 . S
O4 C11 1.262 . S
O5 Zn0 2.049 . S
O5 C13 1.260 . S
O6 Zn1 1.996 1_655 S
O6 C13 1.257 . S
C7 O2 1.254 1_556 S
C7 O3 1.269 . S
C8 O9 1.249 . S
C8 O10 1.270 1_455 S
O9 Zn1 1.943 1_556 S
O9 C8 1.249 . S
O10 Zn0 2.067 1_556 S
O10 C8 1.270 1_655 S
C11 O4 1.262 . S
C11 O12 1.232 . S
O12 C11 1.232 . S
C13 O5 1.260 . S
C13 O6 1.257 . S
Zn14 O17 2.031 1_554 S
Zn14 O19 2.049 . S
Zn14 O24 2.067 1_554 S
Zn15 O16 1.962 . S
Zn15 O18 1.986 . S
Zn15 O20 1.996 . S
Zn15 O23 1.943 1_554 S
O16 Zn15 1.962 . S
O16 C21 1.254 1_554 S
O17 Zn14 2.031 1_556 S
O17 C21 1.269 . S
O18 Zn15 1.986 . S
O18 C25 1.262 . S
O19 Zn14 2.049 . S
O19 C27 1.260 . S
O20 Zn15 1.996 . S
O20 C27 1.257 . S
C21 O16 1.254 1_556 S
C21 O17 1.269 . S
C22 O23 1.249 . S
C22 O24 1.270 . S
O23 Zn15 1.943 1_556 S
O23 C22 1.249 . S
O24 Zn14 2.067 1_556 S
O24 C22 1.270 . S
C25 O18 1.262 . S
C25 O26 1.232 . S
O26 C25 1.232 . S
C27 O19 1.260 . S
C27 O20 1.257 . S
Zn28 O31 2.031 . S
Zn28 O33 2.049 1_554 S
Zn28 O38 2.067 . S
Zn29 O30 1.962 1_545 S
Zn29 O32 1.986 1_554 S
Zn29 O34 1.996 1_544 S
Zn29 O37 1.943 . S
O30 Zn29 1.962 1_565 S
O30 C35 1.254 . S
O31 Zn28 2.031 . S
O31 C35 1.269 . S
O32 Zn29 1.986 1_556 S
O32 C39 1.262 . S
O33 Zn28 2.049 1_556 S
O33 C41 1.260 . S
O34 Zn29 1.996 1_566 S
O34 C41 1.257 . S
C35 O30 1.254 . S
C35 O31 1.269 . S
C36 O37 1.249 . S
C36 O38 1.270 1_545 S
O37 Zn29 1.943 . S
O37 C36 1.249 . S
O38 Zn28 2.067 . S
O38 C36 1.270 1_565 S
C39 O32 1.262 . S
C39 O40 1.232 1_556 S
O40 C39 1.232 1_554 S
C41 O33 1.260 . S
C41 O34 1.257 . S
Zn42 O45 2.031 . S
Zn42 O47 2.049 1_554 S
Zn42 O52 2.067 . S
Zn43 O44 1.962 1_655 S
Zn43 O46 1.986 1_554 S
Zn43 O48 1.996 1_654 S
Zn43 O51 1.943 . S
O44 Zn43 1.962 1_455 S
O44 C49 1.254 . S
O45 Zn42 2.031 . S
O45 C49 1.269 . S
O46 Zn43 1.986 1_556 S
O46 C53 1.262 . S
O47 Zn42 2.049 1_556 S
O47 C55 1.260 . S
O48 Zn43 1.996 1_456 S
O48 C55 1.257 . S
C49 O44 1.254 . S
C49 O45 1.269 . S
C50 O51 1.249 . S
C50 O52 1.270 1_655 S
O51 Zn43 1.943 . S
O51 C50 1.249 . S
O52 Zn42 2.067 . S
O52 C50 1.270 1_455 S
C53 O46 1.262 . S
C53 O54 1.232 1_556 S
O54 C53 1.232 1_554 S
C55 O47 1.260 . S
C55 O48 1.257 . S
Zn56 O59 2.031 . S
Zn56 O61 2.049 1_554 S
Zn56 O66 2.067 . S
Zn57 O58 1.962 . S
Zn57 O60 1.986 1_554 S
Zn57 O62 1.996 1_554 S
Zn57 O65 1.943 . S
O58 Zn57 1.962 . S
O58 C63 1.254 . S
O59 Zn56 2.031 . S
O59 C63 1.269 . S
O60 Zn57 1.986 1_556 S
O60 C67 1.262 . S
O61 Zn56 2.049 1_556 S
O61 C69 1.260 . S
O62 Zn57 1.996 1_556 S
O62 C69 1.257 . S
C63 O58 1.254 . S
C63 O59 1.269 . S
C64 O65 1.249 . S
C64 O66 1.270 . S
O65 Zn57 1.943 . S
O65 C64 1.249 . S
O66 Zn56 2.067 . S
O66 C64 1.270 . S
C67 O60 1.262 . S
C67 O68 1.232 1_556 S
O68 C67 1.232 1_554 S
C69 O61 1.260 . S
C69 O62 1.257 . S
Zn70 O73 2.031 1_554 S
Zn70 O75 2.049 . S
Zn70 O80 2.067 1_554 S
Zn71 O72 1.962 1_565 S
Zn71 O74 1.986 . S
Zn71 O76 1.996 1_565 S
Zn71 O79 1.943 1_554 S
O72 Zn71 1.962 1_545 S
O72 C77 1.254 1_554 S
O73 Zn70 2.031 1_556 S
O73 C77 1.269 . S
O74 Zn71 1.986 . S
O74 C81 1.262 . S
O75 Zn70 2.049 . S
O75 C83 1.260 . S
O76 Zn71 1.996 1_545 S
O76 C83 1.257 . S
C77 O72 1.254 1_556 S
C77 O73 1.269 . S
C78 O79 1.249 . S
C78 O80 1.270 1_565 S
O79 Zn71 1.943 1_556 S
O79 C78 1.249 . S
O80 Zn70 2.067 1_556 S
O80 C78 1.270 1_545 S
C81 O74 1.262 . S
C81 O82 1.232 . S
O82 C81 1.232 . S
C83 O75 1.260 . S
C83 O76 1.257 . S
Zn84 O87 2.031 . S
Zn84 O89 2.049 . S
Zn84 O94 2.067 . S
Zn85 O86 1.962 . S
Zn85 O88 1.986 . S
Zn85 O90 1.996 . S
Zn85 O93 1.943 . S
O86 Zn85 1.962 . S
O86 C91 1.254 . S
O87 Zn84 2.031 . S
O87 C91 1.269 . S
O88 Zn85 1.986 . S
O88 C95 1.262 . S
O89 Zn84 2.049 . S
O89 C97 1.260 . S
O90 Zn85 1.996 . S
O90 C97 1.257 . S
C91 O86 1.254 . S
C91 O87 1.269 . S
C92 O93 1.249 . S
C92 O94 1.270 . S
O93 Zn85 1.943 . S
O93 C92 1.249 . S
O94 Zn84 2.067 . S
O94 C92 1.270 . S
C95 O88 1.262 . S
C95 O96 1.232 . S
O96 C95 1.232 . S
C97 O89 1.260 . S
C97 O90 1.257 . S
Zn98 O101 2.031 . S
Zn98 O103 2.049 . S
Zn98 O108 2.067 . S
Zn99 O100 1.962 . S
Zn99 O102 1.986 1_565 S
Zn99 O104 1.996 . S
Zn99 O107 1.943 . S
O100 Zn99 1.962 . S
O100 C105 1.254 . S
O101 Zn98 2.031 . S
O101 C105 1.269 . S
O102 Zn99 1.986 1_545 S
O102 C109 1.262 . S
O103 Zn98 2.049 . S
O103 C111 1.260 . S
O104 Zn99 1.996 . S
O104 C111 1.257 . S
C105 O100 1.254 . S
C105 O101 1.269 . S
C106 O107 1.249 . S
C106 O108 1.270 . S
O107 Zn99 1.943 . S
O107 C106 1.249 . S
O108 Zn98 2.067 . S
O108 C106 1.270 . S
C109 O102 1.262 . S
C109 O110 1.232 . S
O110 C109 1.232 . S
C111 O103 1.260 . S
C111 O104 1.257 . S
Zn112 O115 2.031 1_455 S
Zn112 O117 2.049 . S
Zn112 O122 2.067 . S
Zn113 O114 1.962 1_455 S
Zn113 O116 1.986 . S
Zn113 O118 1.996 . S
Zn113 O121 1.943 . S
O114 Zn113 1.962 1_655 S
O114 C119 1.254 . S
O115 Zn112 2.031 1_655 S
O115 C119 1.269 . S
O116 Zn113 1.986 . S
O116 C123 1.262 . S
O117 Zn112 2.049 . S
O117 C125 1.260 . S
O118 Zn113 1.996 . S
O118 C125 1.257 . S
C119 O114 1.254 . S
C119 O115 1.269 . S
C120 O121 1.249 . S
C120 O122 1.270 . S
O121 Zn113 1.943 . S
O121 C120 1.249 . S
O122 Zn112 2.067 . S
O122 C120 1.270 . S
C123 O116 1.262 . S
C123 O124 1.232 . S
O124 C123 1.232 . S
C125 O117 1.260 . S
C125 O118 1.257 . S
Zn126 O129 2.031 1_565 S
Zn126 O131 2.049 . S
Zn126 O136 2.067 . S
Zn127 O128 1.962 1_565 S
Zn127 O130 1.986 . S
Zn127 O132 1.996 . S
Zn127 O135 1.943 . S
O128 Zn127 1.962 1_545 S
O128 C133 1.254 . S
O129 Zn126 2.031 1_545 S
O129 C133 1.269 . S
O130 Zn127 1.986 . S
O130 C137 1.262 . S
O131 Zn126 2.049 . S
O131 C139 1.260 . S
O132 Zn127 1.996 . S
O132 C139 1.257 . S
C133 O128 1.254 . S
C133 O129 1.269 . S
C134 O135 1.249 . S
C134 O136 1.270 . S
O135 Zn127 1.943 . S
O135 C134 1.249 . S
O136 Zn126 2.067 . S
O136 C134 1.270 . S
C137 O130 1.262 . S
C137 O138 1.232 . S
O138 C137 1.232 . S
C139 O131 1.260 . S
C139 O132 1.257 . S
Zn140 O143 2.031 1_455 S
Zn140 O145 2.049 . S
Zn140 O150 2.067 . S
Zn141 O142 1.962 1_455 S
Zn141 O144 1.986 . S
Zn141 O146 1.996 . S
Zn141 O149 1.943 . S
O142 Zn141 1.962 1_655 S
O142 C147 1.254 . S
O143 Zn140 2.031 1_655 S
O143 C147 1.269 . S
O144 Zn141 1.986 . S
O144 C151 1.262 . S
O145 Zn140 2.049 . S
O145 C153 1.260 . S
O146 Zn141 1.996 . S
O146 C153 1.257 . S
C147 O142 1.254 . S
C147 O143 1.269 . S
C148 O149 1.249 . S
C148 O150 1.270 . S
O149 Zn141 1.943 . S
O149 C148 1.249 . S
O150 Zn140 2.067 . S
O150 C148 1.270 . S
C151 O144 1.262 . S
C151 O152 1.257 . S
O152 C151 1.257 . S
C153 O145 1.260 . S
C153 O146 1.257 . S
Zn154 O157 2.031 . S
Zn154 O159 2.049 . S
Zn154 O164 2.067 . S
Zn155 O156 1.962 . S
Zn155 O158 1.986 . S
Zn155 O160 1.996 . S
Zn155 O163 1.943 . S
O156 Zn155 1.962 . S
O156 C161 1.254 . S
O157 Zn154 2.031 . S
O157 C161 1.269 . S
O158 Zn155 1.986 . S
O158 C165 1.262 . S
O159 Zn154 2.049 . S
O159 C167 1.260 . S
O160 Zn155 1.996 . S
O160 C167 1.257 . S
C161 O156 1.254 . S
C161 O157 1.269 . S
C162 O163 1.249 . S
C162 O164 1.270 . S
O163 Zn155 1.943 . S
O163 C162 1.249 . S
O164 Zn154 2.067 . S
O164 C162 1.270 . S
C165 O158 1.262 . S
C165 O166 1.232 . S
O166 C165 1.232 . S
C167 O159 1.260 . S
C167 O160 1.257 . S
Zn168 O171 2.031 1_545 S
Zn168 O173 2.049 . S
Zn168 O178 2.067 . S
Zn169 O170 1.962 1_545 S
Zn169 O172 1.986 . S
Zn169 O174 1.996 . S
Zn169 O177 1.943 . S
O170 Zn169 1.962 1_565 S
O170 C175 1.254 . S
O171 Zn168 2.031 1_565 S
O171 C175 1.269 . S
O172 Zn169 1.986 . S
O172 C179 1.262 . S
O173 Zn168 2.049 . S
O173 C181 1.260 . S
O174 Zn169 1.996 . S
O174 C181 1.257 . S
C175 O170 1.254 . S
C175 O171 1.269 . S
C176 O177 1.249 . S
C176 O178 1.270 . S
O177 Zn169 1.943 . S
O177 C176 1.249 . S
O178 Zn168 2.067 . S
O178 C176 1.270 . S
C179 O172 1.262 . S
C179 O180 1.232 . S
O180 C179 1.232 . S
C181 O173 1.260 . S
C181 O174 1.257 . S
Zn182 O185 2.031 1_655 S
Zn182 O187 2.049 . S
Zn182 O192 2.067 . S
Zn183 O184 1.962 1_655 S
Zn183 O186 1.986 . S
Zn183 O188 1.996 . S
Zn183 O191 1.943 . S
O184 Zn183 1.962 1_455 S
O184 C189 1.254 . S
O185 Zn182 2.031 1_455 S
O185 C189 1.269 . S
O186 Zn183 1.986 . S
O186 C193 1.262 . S
O187 Zn182 2.049 . S
O187 C195 1.260 . S
O188 Zn183 1.996 . S
O188 C195 1.257 . S
C189 O184 1.254 . S
C189 O185 1.269 . S
C190 O191 1.249 . S
C190 O192 1.270 . S
O191 Zn183 1.943 . S
O191 C190 1.249 . S
O192 Zn182 2.067 . S
O192 C190 1.270 . S
C193 O186 1.262 . S
C193 O194 1.241 . S
O194 C193 1.241 . S
C195 O187 1.260 . S
C195 O188 1.257 . S
Zn196 O199 2.031 . S
Zn196 O201 2.049 . S
Zn196 O206 2.067 . S
Zn197 O198 1.962 . S
Zn197 O200 1.986 . S
Zn197 O202 1.996 . S
Zn197 O205 1.943 . S
O198 Zn197 1.962 . S
O198 C203 1.254 . S
O199 Zn196 2.031 . S
O199 C203 1.269 . S
O200 Zn197 1.986 . S
O200 C207 1.262 . S
O201 Zn196 2.049 . S
O201 C209 1.260 . S
O202 Zn197 1.996 . S
O202 C209 1.257 . S
C203 O198 1.254 . S
C203 O199 1.269 . S
C204 O205 1.249 . S
C204 O206 1.270 . S
O205 Zn197 1.943 . S
O205 C204 1.249 . S
O206 Zn196 2.067 . S
O206 C204 1.270 . S
C207 O200 1.262 . S
C207 O208 1.232 . S
O208 C207 1.232 . S
C209 O201 1.260 . S
C209 O202 1.257 . S
Zn210 O213 2.031 . S
Zn210 O215 2.049 . S
Zn210 O220 2.067 . S
Zn211 O212 1.962 . S
Zn211 O214 1.986 . S
Zn211 O216 1.996 . S
Zn211 O219 1.943 . S
O212 Zn211 1.962 . S
O212 C217 1.254 . S
O213 Zn210 2.031 . S
O213 C217 1.269 . S
O214 Zn211 1.986 . S
O214 C221 1.262 . S
O215 Zn210 2.049 . S
O215 C223 1.260 . S
O216 Zn211 1.996 . S
O216 C223 1.257 . S
C217 O212 1.254 . S
C217 O213 1.269 . S
C218 O219 1.249 . S
C218 O220 1.270 . S
O219 Zn211 1.943 . S
O219 C218 1.249 . S
O220 Zn210 2.067 . S
O220 C218 1.270 . S
C221 O214 1.262 . S
C221 O222 1.232 . S
O222 C221 1.232 . S
C223 O215 1.260 . S
C223 O216 1.257 . S
Zn224 O227 2.031 . S
Zn224 O229 2.049 . S
Zn224 O234 2.067 . S
Zn225 O226 1.962 . S
Zn225 O228 1.986 1_545 S
Zn225 O230 1.996 . S
Zn225 O233 1.943 . S
O226 Zn225 1.962 . S
O226 C231 1.254 . S
O227 Zn224 2.031 . S
O227 C231 1.269 . S
O228 Zn225 1.986 1_565 S
O228 C235 1.262 . S
O229 Zn224 2.049 . S
O229 C237 1.260 . S
O230 Zn225 1.996 . S
O230 C237 1.257 . S
C231 O226 1.254 . S
C231 O227 1.269 . S
C232 O233 1.249 . S
C232 O234 1.270 . S
O233 Zn225 1.943 . S
O233 C232 1.249 . S
O234 Zn224 2.067 . S
O234 C232 1.270 . S
C235 O228 1.262 . S
C235 O236 1.232 . S
O236 C235 1.232 . S
C237 O229 1.260 . S
C237 O230 1.257 . S
Zn238 O241 2.031 1_655 S
Zn238 O243 2.049 . S
Zn238 O248 2.067 . S
Zn239 O240 1.962 1_655 S
Zn239 O242 1.986 . S
Zn239 O244 1.996 . S
Zn239 O247 1.943 . S
O240 Zn239 1.962 1_455 S
O240 C245 1.254 . S
O241 Zn238 2.031 1_455 S
O241 C245 1.269 . S
O242 Zn239 1.986 . S
O242 C249 1.262 . S
O243 Zn238 2.049 . S
O243 C251 1.260 . S
O244 Zn239 1.996 . S
O244 C251 1.257 . S
C245 O240 1.254 . S
C245 O241 1.269 . S
C246 O247 1.249 . S
C246 O248 1.270 . S
O247 Zn239 1.943 . S
O247 C246 1.249 . S
O248 Zn238 2.067 . S
O248 C246 1.270 . S
C249 O242 1.262 . S
C249 O250 1.232 . S
O250 C249 1.232 . S
C251 O243 1.260 . S
C251 O244 1.257 . S
H252 C258 0.930 . S
H253 C261 0.931 . S
H254 C263 0.931 . S
H255 C265 0.930 . S
H256 C267 0.930 . S
H257 C269 0.931 . S
C258 H252 0.930 . S
C258 C259 1.380 . S
C258 C260 1.394 . S
C259 C258 1.380 . S
C259 C263 1.382 . S
C260 C258 1.394 . S
C260 C261 1.400 . S
C261 H253 0.931 . S
C261 C260 1.400 . S
C261 C262 1.375 . S
C262 C261 1.375 . S
C262 C263 1.415 . S
C262 C264 1.501 . S
C263 H254 0.931 . S
C263 C259 1.382 . S
C263 C262 1.415 . S
C264 C262 1.501 . S
C264 C265 1.384 . S
C264 C269 1.408 . S
C265 H255 0.930 . S
C265 C264 1.384 . S
C265 C266 1.389 . S
C266 C265 1.389 . S
C266 C267 1.405 . S
C267 H256 0.930 . S
C267 C266 1.405 . S
C267 C268 1.364 . S
C268 C267 1.364 . S
C268 C269 1.400 . S
C269 H257 0.931 . S
C269 C264 1.408 . S
C269 C268 1.400 . S
H270 C276 0.930 . S
H271 C279 0.931 . S
H272 C281 0.931 . S
H273 C283 0.930 . S
H274 C285 0.930 . S
H275 C287 0.931 . S
C276 H270 0.930 . S
C276 C277 1.380 . S
C276 C278 1.394 . S
C277 C276 1.380 . S
C277 C281 1.382 . S
C278 C276 1.394 . S
C278 C279 1.400 . S
C279 H271 0.931 . S
C279 C278 1.400 . S
C279 C280 1.375 . S
C280 C279 1.375 . S
C280 C281 1.415 . S
C280 C282 1.501 . S
C281 H272 0.931 . S
C281 C277 1.382 . S
C281 C280 1.415 . S
C282 C280 1.501 . S
C282 C283 1.384 . S
C282 C287 1.408 . S
C283 H273 0.930 . S
C283 C282 1.384 . S
C283 C284 1.389 . S
C284 C283 1.389 . S
C284 C285 1.405 . S
C285 H274 0.930 . S
C285 C284 1.405 . S
C285 C286 1.364 . S
C286 C285 1.364 . S
C286 C287 1.400 . S
C287 H275 0.931 . S
C287 C282 1.408 . S
C287 C286 1.400 . S
H288 C294 0.930 . S
H289 C297 0.931 . S
H290 C299 0.931 . S
H291 C301 0.930 . S
H292 C303 0.930 . S
H293 C305 0.931 . S
C294 H288 0.930 . S
C294 C295 1.380 . S
C294 C296 1.394 . S
C295 C294 1.380 . S
C295 C299 1.382 . S
C296 C294 1.394 . S
C296 C297 1.400 . S
C297 H289 0.931 . S
C297 C296 1.400 . S
C297 C298 1.375 . S
C298 C297 1.375 . S
C298 C299 1.415 . S
C298 C300 1.501 . S
C299 H290 0.931 . S
C299 C295 1.382 . S
C299 C298 1.415 . S
C300 C298 1.501 . S
C300 C301 1.384 . S
C300 C305 1.408 . S
C301 H291 0.930 . S
C301 C300 1.384 . S
C301 C302 1.389 . S
C302 C301 1.389 . S
C302 C303 1.405 . S
C303 H292 0.930 . S
C303 C302 1.405 . S
C303 C304 1.364 . S
C304 C303 1.364 . S
C304 C305 1.400 . S
C305 H293 0.931 . S
C305 C300 1.408 . S
C305 C304 1.400 . S
H306 C312 0.930 . S
H307 C315 0.931 . S
H308 C317 0.931 . S
H309 C319 0.930 . S
H310 C321 0.930 . S
H311 C323 0.931 . S
C312 H306 0.930 . S
C312 C313 1.380 . S
C312 C314 1.394 . S
C313 C312 1.380 . S
C313 C317 1.382 . S
C314 C312 1.394 . S
C314 C315 1.400 . S
C315 H307 0.931 . S
C315 C314 1.400 . S
C315 C316 1.375 . S
C316 C315 1.375 . S
C316 C317 1.415 . S
C316 C318 1.501 . S
C317 H308 0.931 . S
C317 C313 1.382 . S
C317 C316 1.415 . S
C318 C316 1.501 . S
C318 C319 1.384 . S
C318 C323 1.408 . S
C319 H309 0.930 . S
C319 C318 1.384 . S
C319 C320 1.389 . S
C320 C319 1.389 . S
C320 C321 1.405 . S
C321 H310 0.930 . S
C321 C320 1.405 . S
C321 C322 1.364 . S
C322 C321 1.364 . S
C322 C323 1.400 . S
C323 H311 0.931 . S
C323 C318 1.408 . S
C323 C322 1.400 . S
H324 C330 0.930 . S
H325 C333 0.931 . S
H326 C335 0.931 . S
H327 C337 0.930 . S
H328 C339 0.930 . S
H329 C341 0.931 . S
C330 H324 0.930 . S
C330 C331 1.380 . S
C330 C332 1.394 . S
C331 C330 1.380 . S
C331 C335 1.382 . S
C332 C330 1.394 . S
C332 C333 1.400 . S
C333 H325 0.931 . S
C333 C332 1.400 . S
C333 C334 1.375 . S
C334 C333 1.375 . S
C334 C335 1.415 . S
C334 C336 1.501 . S
C335 H326 0.931 . S
C335 C331 1.382 . S
C335 C334 1.415 . S
C336 C334 1.501 . S
C336 C337 1.384 . S
C336 C341 1.408 . S
C337 H327 0.930 . S
C337 C336 1.384 . S
C337 C338 1.389 . S
C338 C337 1.389 . S
C338 C339 1.405 . S
C339 H328 0.930 . S
C339 C338 1.405 . S
C339 C340 1.364 . S
C340 C339 1.364 . S
C340 C341 1.400 . S
C341 H329 0.931 . S
C341 C336 1.408 . S
C341 C340 1.400 . S
H342 C348 0.930 . S
H343 C351 0.931 . S
H344 C353 0.931 . S
H345 C355 0.930 . S
H346 C357 0.930 . S
H347 C359 0.931 . S
C348 H342 0.930 . S
C348 C349 1.380 . S
C348 C350 1.394 . S
C349 C348 1.380 . S
C349 C353 1.382 . S
C350 C348 1.394 . S
C350 C351 1.400 . S
C351 H343 0.931 . S
C351 C350 1.400 . S
C351 C352 1.375 . S
C352 C351 1.375 . S
C352 C353 1.415 . S
C352 C354 1.501 . S
C353 H344 0.931 . S
C353 C349 1.382 . S
C353 C352 1.415 . S
C354 C352 1.501 . S
C354 C355 1.384 . S
C354 C359 1.408 . S
C355 H345 0.930 . S
C355 C354 1.384 . S
C355 C356 1.389 . S
C356 C355 1.389 . S
C356 C357 1.405 . S
C357 H346 0.930 . S
C357 C356 1.405 . S
C357 C358 1.364 . S
C358 C357 1.364 . S
C358 C359 1.400 . S
C359 H347 0.931 . S
C359 C354 1.408 . S
C359 C358 1.400 . S
H360 C366 0.930 . S
H361 C369 0.931 . S
H362 C371 0.931 . S
H363 C373 0.930 . S
H364 C375 0.930 . S
H365 C377 0.931 . S
C366 H360 0.930 . S
C366 C367 1.380 . S
C366 C368 1.394 . S
C367 C366 1.380 . S
C367 C371 1.382 . S
C368 C366 1.394 . S
C368 C369 1.400 . S
C369 H361 0.931 . S
C369 C368 1.400 . S
C369 C370 1.375 . S
C370 C369 1.375 . S
C370 C371 1.415 . S
C370 C372 1.501 . S
C371 H362 0.931 . S
C371 C367 1.382 . S
C371 C370 1.415 . S
C372 C370 1.501 . S
C372 C373 1.384 . S
C372 C377 1.408 . S
C373 H363 0.930 . S
C373 C372 1.384 . S
C373 C374 1.389 . S
C374 C373 1.389 . S
C374 C375 1.405 . S
C375 H364 0.930 . S
C375 C374 1.405 . S
C375 C376 1.364 . S
C376 C375 1.364 . S
C376 C377 1.400 . S
C377 H365 0.931 . S
C377 C372 1.408 . S
C377 C376 1.400 . S
H378 C384 0.930 . S
H379 C387 0.931 . S
H380 C389 0.931 . S
H381 C391 0.930 . S
H382 C393 0.930 . S
H383 C395 0.931 . S
C384 H378 0.930 . S
C384 C385 1.380 . S
C384 C386 1.394 . S
C385 C384 1.380 . S
C385 C389 1.382 . S
C386 C384 1.394 . S
C386 C387 1.400 . S
C387 H379 0.931 . S
C387 C386 1.400 . S
C387 C388 1.375 . S
C388 C387 1.375 . S
C388 C389 1.415 . S
C388 C390 1.501 . S
C389 H380 0.931 . S
C389 C385 1.382 . S
C389 C388 1.415 . S
C390 C388 1.501 . S
C390 C391 1.384 . S
C390 C395 1.408 . S
C391 H381 0.930 . S
C391 C390 1.384 . S
C391 C392 1.389 . S
C392 C391 1.389 . S
C392 C393 1.405 . S
C393 H382 0.930 . S
C393 C392 1.405 . S
C393 C394 1.364 . S
C394 C393 1.364 . S
C394 C395 1.400 . S
C395 H383 0.931 . S
C395 C390 1.408 . S
C395 C394 1.400 . S
H396 C402 0.930 . S
H397 C405 0.931 . S
H398 C407 0.931 . S
H399 C409 0.930 . S
H400 C411 0.930 . S
H401 C413 0.931 . S
C402 H396 0.930 . S
C402 C403 1.380 . S
C402 C404 1.394 . S
C403 C402 1.380 . S
C403 C407 1.382 . S
C404 C402 1.394 . S
C404 C405 1.400 . S
C405 H397 0.931 . S
C405 C404 1.400 . S
C405 C406 1.375 . S
C406 C405 1.375 . S
C406 C407 1.415 . S
C406 C408 1.501 . S
C407 H398 0.931 . S
C407 C403 1.382 . S
C407 C406 1.415 . S
C408 C406 1.501 . S
C408 C409 1.384 . S
C408 C413 1.408 . S
C409 H399 0.930 . S
C409 C408 1.384 . S
C409 C410 1.389 . S
C410 C409 1.389 . S
C410 C411 1.405 . S
C411 H400 0.930 . S
C411 C410 1.405 . S
C411 C412 1.364 . S
C412 C411 1.364 . S
C412 C413 1.400 . S
C413 H401 0.931 . S
C413 C408 1.408 . S
C413 C412 1.400 . S
H414 C420 0.927 . S
H415 C423 0.931 . S
H416 C425 0.931 . S
H417 C427 0.930 . S
H418 C429 0.930 . S
H419 C431 0.941 . S
C420 H414 0.927 . S
C420 C421 1.383 . S
C420 C422 1.395 1_655 S
C421 C420 1.383 . S
C421 C425 1.382 . S
C422 C420 1.395 1_455 S
C422 C423 1.400 . S
C423 H415 0.931 . S
C423 C422 1.400 . S
C423 C424 1.375 . S
C424 C423 1.375 . S
C424 C425 1.415 1_455 S
C424 C426 1.501 . S
C425 H416 0.931 . S
C425 C421 1.382 . S
C425 C424 1.415 1_655 S
C426 C424 1.501 . S
C426 C427 1.384 . S
C426 C431 1.423 . S
C427 H417 0.930 . S
C427 C426 1.384 . S
C427 C428 1.389 . S
C428 C427 1.389 . S
C428 C429 1.405 . S
C429 H418 0.930 . S
C429 C428 1.405 . S
C429 C430 1.359 . S
C430 C429 1.359 . S
C430 C431 1.389 . S
C431 H419 0.941 . S
C431 C426 1.423 . S
C431 C430 1.389 . S
H432 C438 0.930 . S
H433 C441 0.931 . S
H434 C443 0.931 . S
H435 C445 0.930 . S
H436 C447 0.930 . S
H437 C449 0.931 . S
C438 H432 0.930 . S
C438 C439 1.380 . S
C438 C440 1.394 . S
C439 C438 1.380 . S
C439 C443 1.382 . S
C440 C438 1.394 . S
C440 C441 1.400 . S
C441 H433 0.931 . S
C441 C440 1.400 . S
C441 C442 1.375 . S
C442 C441 1.375 . S
C442 C443 1.415 . S
C442 C444 1.501 . S
C443 H434 0.931 . S
C443 C439 1.382 . S
C443 C442 1.415 . S
C444 C442 1.501 . S
C444 C445 1.384 . S
C444 C449 1.408 . S
C445 H435 0.930 . S
C445 C444 1.384 . S
C445 C446 1.389 . S
C446 C445 1.389 . S
C446 C447 1.405 . S
C447 H436 0.930 . S
C447 C446 1.405 . S
C447 C448 1.364 . S
C448 C447 1.364 . S
C448 C449 1.400 . S
C449 H437 0.931 . S
C449 C444 1.408 . S
C449 C448 1.400 . S
H450 C456 0.930 . S
H451 C459 0.931 . S
H452 C461 0.931 . S
H453 C463 0.930 . S
H454 C465 0.930 . S
H455 C467 0.938 . S
C456 H450 0.930 . S
C456 C457 1.380 . S
C456 C458 1.394 1_545 S
C457 C456 1.380 . S
C457 C461 1.382 . S
C458 C456 1.394 1_565 S
C458 C459 1.400 . S
C459 H451 0.931 . S
C459 C458 1.400 . S
C459 C460 1.375 . S
C460 C459 1.375 . S
C460 C461 1.415 1_565 S
C460 C462 1.501 . S
C461 H452 0.931 . S
C461 C457 1.382 . S
C461 C460 1.415 1_545 S
C462 C460 1.501 . S
C462 C463 1.384 . S
C462 C467 1.408 . S
C463 H453 0.930 . S
C463 C462 1.384 . S
C463 C464 1.389 . S
C464 C463 1.389 . S
C464 C465 1.405 . S
C465 H454 0.930 . S
C465 C464 1.405 . S
C465 C466 1.364 . S
C466 C465 1.364 . S
C466 C467 1.400 . S
C467 H455 0.938 . S
C467 C462 1.408 . S
C467 C466 1.400 . S
H468 C474 0.930 . S
H469 C477 0.931 . S
H470 C479 0.924 . S
H471 C481 0.930 . S
H472 C483 0.909 . S
H473 C485 0.931 . S
C474 H468 0.930 . S
C474 C475 1.380 1_545 S
C474 C476 1.394 1_545 S
C475 C474 1.380 1_565 S
C475 C479 1.403 . S
C476 C474 1.394 1_565 S
C476 C477 1.400 . S
C477 H469 0.931 . S
C477 C476 1.400 . S
C477 C478 1.375 . S
C478 C477 1.375 . S
C478 C479 1.406 . S
C478 C480 1.501 . S
C479 H470 0.924 . S
C479 C475 1.403 . S
C479 C478 1.406 . S
C480 C478 1.501 . S
C480 C481 1.384 . S
C480 C485 1.408 1_565 S
C481 H471 0.930 . S
C481 C480 1.384 . S
C481 C482 1.389 . S
C482 C481 1.389 . S
C482 C483 1.422 . S
C483 H472 0.909 . S
C483 C482 1.422 . S
C483 C484 1.370 1_565 S
C484 C483 1.370 1_545 S
C484 C485 1.400 . S
C485 H473 0.931 . S
C485 C480 1.408 1_545 S
C485 C484 1.400 . S
H486 C492 0.930 . S
H487 C495 0.931 . S
H488 C497 0.934 . S
H489 C499 0.930 . S
H490 C501 0.930 . S
H491 C503 0.931 . S
C492 H486 0.930 . S
C492 C493 1.389 . S
C492 C494 1.387 1_655 S
C493 C492 1.389 . S
C493 C497 1.353 1_655 S
C494 C492 1.387 1_455 S
C494 C495 1.415 . S
C495 H487 0.931 . S
C495 C494 1.415 . S
C495 C496 1.375 . S
C496 C495 1.375 . S
C496 C497 1.422 . S
C496 C498 1.501 . S
C497 H488 0.934 . S
C497 C493 1.353 1_455 S
C497 C496 1.422 . S
C498 C496 1.501 . S
C498 C499 1.384 . S
C498 C503 1.408 1_455 S
C499 H489 0.930 . S
C499 C498 1.384 . S
C499 C500 1.389 . S
C500 C499 1.389 . S
C500 C501 1.405 . S
C501 H490 0.930 . S
C501 C500 1.405 . S
C501 C502 1.364 1_455 S
C502 C501 1.364 1_655 S
C502 C503 1.400 . S
C503 H491 0.931 . S
C503 C498 1.408 1_655 S
C503 C502 1.400 . S
H504 C510 0.930 . S
H505 C513 0.931 . S
H506 C515 0.931 . S
H507 C517 0.930 . S
H508 C519 0.930 . S
H509 C521 0.931 . S
C510 H504 0.930 . S
C510 C511 1.380 . S
C510 C512 1.394 . S
C511 C510 1.380 . S
C511 C515 1.382 . S
C512 C510 1.394 . S
C512 C513 1.400 . S
C513 H505 0.931 . S
C513 C512 1.400 . S
C513 C514 1.375 . S
C514 C513 1.375 . S
C514 C515 1.415 . S
C514 C516 1.501 . S
C515 H506 0.931 . S
C515 C511 1.382 . S
C515 C514 1.415 . S
C516 C514 1.501 . S
C516 C517 1.384 . S
C516 C521 1.408 . S
C517 H507 0.930 . S
C517 C516 1.384 . S
C517 C518 1.389 . S
C518 C517 1.389 . S
C518 C519 1.405 . S
C519 H508 0.930 . S
C519 C518 1.405 . S
C519 C520 1.364 . S
C520 C519 1.364 . S
C520 C521 1.400 . S
C521 H509 0.931 . S
C521 C516 1.408 . S
C521 C520 1.400 . S
H522 C528 0.930 . S
H523 C531 0.931 . S
H524 C533 0.931 . S
H525 C535 0.930 . S
H526 C537 0.930 . S
H527 C539 0.931 . S
C528 H522 0.930 . S
C528 C529 1.380 . S
C528 C530 1.394 . S
C529 C528 1.380 . S
C529 C533 1.382 . S
C530 C528 1.394 . S
C530 C531 1.400 . S
C531 H523 0.931 . S
C531 C530 1.400 . S
C531 C532 1.375 . S
C532 C531 1.375 . S
C532 C533 1.415 . S
C532 C534 1.501 . S
C533 H524 0.931 . S
C533 C529 1.382 . S
C533 C532 1.415 . S
C534 C532 1.501 . S
C534 C535 1.384 . S
C534 C539 1.408 . S
C535 H525 0.930 . S
C535 C534 1.384 . S
C535 C536 1.389 . S
C536 C535 1.389 . S
C536 C537 1.405 . S
C537 H526 0.930 . S
C537 C536 1.405 . S
C537 C538 1.364 . S
C538 C537 1.364 . S
C538 C539 1.400 . S
C539 H527 0.931 . S
C539 C534 1.408 . S
C539 C538 1.400 . S
H540 C546 0.930 . S
H541 C549 0.931 . S
H542 C551 0.931 . S
H543 C553 0.930 . S
H544 C555 0.930 . S
H545 C557 0.931 . S
C546 H540 0.930 . S
C546 C547 1.380 . S
C546 C548 1.394 . S
C547 C546 1.380 . S
C547 C551 1.382 . S
C548 C546 1.394 . S
C548 C549 1.400 . S
C549 H541 0.931 . S
C549 C548 1.400 . S
C549 C550 1.375 . S
C550 C549 1.375 . S
C550 C551 1.415 . S
C550 C552 1.501 . S
C551 H542 0.931 . S
C551 C547 1.382 . S
C551 C550 1.415 . S
C552 C550 1.501 . S
C552 C553 1.384 . S
C552 C557 1.408 . S
C553 H543 0.930 . S
C553 C552 1.384 . S
C553 C554 1.389 . S
C554 C553 1.389 . S
C554 C555 1.405 . S
C555 H544 0.930 . S
C555 C554 1.405 . S
C555 C556 1.364 . S
C556 C555 1.364 . S
C556 C557 1.400 . S
C557 H545 0.931 . S
C557 C552 1.408 . S
C557 C556 1.400 . S
H558 C564 0.930 . S
H559 C567 0.931 . S
H560 C569 0.931 . S
H561 C571 0.930 . S
H562 C573 0.930 . S
H563 C575 0.931 . S
C564 H558 0.930 . S
C564 C565 1.380 . S
C564 C566 1.394 . S
C565 C564 1.380 . S
C565 C569 1.382 . S
C566 C564 1.394 . S
C566 C567 1.400 . S
C567 H559 0.931 . S
C567 C566 1.400 . S
C567 C568 1.375 . S
C568 C567 1.375 . S
C568 C569 1.415 . S
C568 C570 1.501 . S
C569 H560 0.931 . S
C569 C565 1.382 . S
C569 C568 1.415 . S
C570 C568 1.501 . S
C570 C571 1.384 . S
C570 C575 1.408 . S
C571 H561 0.930 . S
C571 C570 1.384 . S
C571 C572 1.389 . S
C572 C571 1.389 . S
C572 C573 1.405 . S
C573 H562 0.930 . S
C573 C572 1.405 . S
C573 C574 1.364 . S
C574 C573 1.364 . S
C574 C575 1.400 . S
C575 H563 0.931 . S
C575 C570 1.408 . S
C575 C574 1.400 . S
C576 C577 1.369 . S
C576 C578 1.408 . S
C576 H580 0.930 1_655 S
C577 C576 1.369 . S
C577 C586 1.429 . S
C578 C576 1.408 . S
C578 C579 1.369 . S
C578 H581 0.936 1_655 S
C579 C578 1.369 . S
C579 C585 1.428 . S
H580 C576 0.930 1_455 S
H581 C578 0.936 1_455 S
S582 N583 1.613 . S
S582 N584 1.610 . S
N583 S582 1.613 . S
N583 C586 1.350 . S
N584 S582 1.610 . S
N584 C585 1.351 . S
C585 C579 1.428 . S
C585 N584 1.351 . S
C585 C586 1.434 . S
C586 C577 1.429 . S
C586 N583 1.350 . S
C586 C585 1.434 . S
C587 C588 1.369 . S
C587 C589 1.419 . S
C587 H591 0.930 . S
C588 C587 1.369 . S
C588 C597 1.429 . S
C589 C587 1.419 . S
C589 C590 1.363 . S
C589 H592 0.929 . S
C590 C589 1.363 . S
C590 C596 1.428 . S
H591 C587 0.930 . S
H592 C589 0.929 . S
S593 N594 1.613 . S
S593 N595 1.610 . S
N594 S593 1.613 . S
N594 C597 1.350 . S
N595 S593 1.610 . S
N595 C596 1.351 . S
C596 C590 1.428 . S
C596 N595 1.351 . S
C596 C597 1.434 . S
C597 C588 1.429 . S
C597 N594 1.350 . S
C597 C596 1.434 . S
C598 C599 1.369 . S
C598 C600 1.419 . S
C598 H602 0.930 . S
C599 C598 1.369 . S
C599 C608 1.429 1_545 S
C600 C598 1.419 . S
C600 C601 1.363 . S
C600 H603 0.929 . S
C601 C600 1.363 . S
C601 C607 1.428 1_545 S
H602 C598 0.930 . S
H603 C600 0.929 . S
S604 N605 1.613 . S
S604 N606 1.610 . S
N605 S604 1.613 . S
N605 C608 1.350 . S
N606 S604 1.610 . S
N606 C607 1.351 . S
C607 C601 1.428 1_565 S
C607 N606 1.351 . S
C607 C608 1.434 . S
C608 C599 1.429 1_565 S
C608 N605 1.350 . S
C608 C607 1.434 . S
C609 C610 1.369 . S
C609 C611 1.419 . S
C609 H613 0.930 . S
C610 C609 1.369 . S
C610 C619 1.429 . S
C611 C609 1.419 . S
C611 C612 1.363 . S
C611 H614 0.929 . S
C612 C611 1.363 . S
C612 C618 1.428 . S
H613 C609 0.930 . S
H614 C611 0.929 . S
S615 N616 1.613 . S
S615 N617 1.610 . S
N616 S615 1.613 . S
N616 C619 1.350 1_545 S
N617 S615 1.610 . S
N617 C618 1.351 1_545 S
C618 C612 1.428 . S
C618 N617 1.351 1_565 S
C618 C619 1.434 . S
C619 C610 1.429 . S
C619 N616 1.350 1_565 S
C619 C618 1.434 . S
C620 C621 1.369 1_655 S
C620 C622 1.419 . S
C620 H624 0.930 . S
C621 C620 1.369 1_455 S
C621 C630 1.429 . S
C622 C620 1.419 . S
C622 C623 1.363 1_655 S
C622 H625 0.929 . S
C623 C622 1.363 1_455 S
C623 C629 1.428 . S
H624 C620 0.930 . S
H625 C622 0.929 . S
S626 N627 1.613 . S
S626 N628 1.610 . S
N627 S626 1.613 . S
N627 C630 1.350 . S
N628 S626 1.610 . S
N628 C629 1.351 . S
C629 C623 1.428 . S
C629 N628 1.351 . S
C629 C630 1.434 . S
C630 C621 1.429 . S
C630 N627 1.350 . S
C630 C629 1.434 . S
C631 C632 1.369 . S
C631 C633 1.419 . S
C631 H635 0.930 . S
C632 C631 1.369 . S
C632 C641 1.429 . S
C633 C631 1.419 . S
C633 C634 1.363 . S
C633 H636 0.929 . S
C634 C633 1.363 . S
C634 C640 1.428 . S
H635 C631 0.930 . S
H636 C633 0.929 . S
S637 N638 1.613 . S
S637 N639 1.610 . S
N638 S637 1.613 . S
N638 C641 1.350 . S
N639 S637 1.610 . S
N639 C640 1.351 . S
C640 C634 1.428 . S
C640 N639 1.351 . S
C640 C641 1.434 . S
C641 C632 1.429 . S
C641 N638 1.350 . S
C641 C640 1.434 . S
C642 C643 1.369 . S
C642 C644 1.419 1_455 S
C642 H646 0.930 1_455 S
C643 C642 1.369 . S
C643 C652 1.429 . S
C644 C642 1.419 1_655 S
C644 C645 1.363 1_655 S
C644 H647 0.929 . S
C645 C644 1.363 1_455 S
C645 C651 1.428 . S
H646 C642 0.930 1_655 S
H647 C644 0.929 . S
S648 N649 1.613 . S
S648 N650 1.610 . S
N649 S648 1.613 . S
N649 C652 1.350 . S
N650 S648 1.610 . S
N650 C651 1.351 . S
C651 C645 1.428 . S
C651 N650 1.351 . S
C651 C652 1.434 . S
C652 C643 1.429 . S
C652 N649 1.350 . S
C652 C651 1.434 . S
C653 C654 1.369 . S
C653 C655 1.419 . S
C653 H657 0.930 . S
C654 C653 1.369 . S
C654 C663 1.429 . S
C655 C653 1.419 . S
C655 C656 1.363 . S
C655 H658 0.929 . S
C656 C655 1.363 . S
C656 C662 1.428 . S
H657 C653 0.930 . S
H658 C655 0.929 . S
S659 N660 1.613 . S
S659 N661 1.610 . S
N660 S659 1.613 . S
N660 C663 1.350 . S
N661 S659 1.610 . S
N661 C662 1.351 . S
C662 C656 1.428 . S
C662 N661 1.351 . S
C662 C663 1.434 . S
C663 C654 1.429 . S
C663 N660 1.350 . S
C663 C662 1.434 . S
C664 C665 1.369 . S
C664 C666 1.419 . S
C664 H668 0.930 . S
C665 C664 1.369 . S
C665 C674 1.429 1_565 S
C666 C664 1.419 . S
C666 C667 1.363 . S
C666 H669 0.929 . S
C667 C666 1.363 . S
C667 C673 1.428 1_565 S
H668 C664 0.930 . S
H669 C666 0.929 . S
S670 N671 1.613 . S
S670 N672 1.610 . S
N671 S670 1.613 . S
N671 C674 1.350 . S
N672 S670 1.610 . S
N672 C673 1.351 . S
C673 C667 1.428 1_545 S
C673 N672 1.351 . S
C673 C674 1.434 . S
C674 C665 1.429 1_545 S
C674 N671 1.350 . S
C674 C673 1.434 . S
C675 C676 1.369 1_565 S
C675 C677 1.419 . S
C675 H679 0.930 . S
C676 C675 1.369 1_545 S
C676 C685 1.429 . S
C677 C675 1.419 . S
C677 C678 1.363 1_565 S
C677 H680 0.929 . S
C678 C677 1.363 1_545 S
C678 C684 1.428 . S
H679 C675 0.930 . S
H680 C677 0.929 . S
S681 N682 1.613 . S
S681 N683 1.610 . S
N682 S681 1.613 . S
N682 C685 1.350 . S
N683 S681 1.610 . S
N683 C684 1.351 . S
C684 C678 1.428 . S
C684 N683 1.351 . S
C684 C685 1.434 . S
C685 C676 1.429 . S
C685 N682 1.350 . S
C685 C684 1.434 . S
C686 C687 1.369 1_455 S
C686 C688 1.419 . S
C686 H690 0.930 . S
C687 C686 1.369 1_655 S
C687 C696 1.429 . S
C688 C686 1.419 . S
C688 C689 1.363 1_455 S
C688 H691 0.929 . S
C689 C688 1.363 1_655 S
C689 C695 1.428 . S
H690 C686 0.930 . S
H691 C688 0.929 . S
S692 N693 1.613 . S
S692 N694 1.610 . S
N693 S692 1.613 . S
N693 C696 1.350 . S
N694 S692 1.610 . S
N694 C695 1.351 . S
C695 C689 1.428 . S
C695 N694 1.351 . S
C695 C696 1.434 . S
C696 C687 1.429 . S
C696 N693 1.350 . S
C696 C695 1.434 . S
C697 C698 1.369 . S
C697 C699 1.419 . S
C697 H701 0.930 . S
C698 C697 1.369 . S
C698 C707 1.429 . S
C699 C697 1.419 . S
C699 C700 1.363 . S
C699 H702 0.929 . S
C700 C699 1.363 . S
C700 C706 1.428 . S
H701 C697 0.930 . S
H702 C699 0.929 . S
S703 N704 1.613 . S
S703 N705 1.610 . S
N704 S703 1.613 . S
N704 C707 1.350 . S
N705 S703 1.610 . S
N705 C706 1.351 . S
C706 C700 1.428 . S
C706 N705 1.351 . S
C706 C707 1.434 . S
C707 C698 1.429 . S
C707 N704 1.350 . S
C707 C706 1.434 . S
C708 C709 1.369 . S
C708 C710 1.419 . S
C708 H712 0.930 . S
C709 C708 1.369 . S
C709 C718 1.429 . S
C710 C708 1.419 . S
C710 C711 1.363 . S
C710 H713 0.929 . S
C711 C710 1.363 . S
C711 C717 1.428 . S
H712 C708 0.930 . S
H713 C710 0.929 . S
S714 N715 1.613 . S
S714 N716 1.610 . S
N715 S714 1.613 . S
N715 C718 1.350 . S
N716 S714 1.610 . S
N716 C717 1.351 . S
C717 C711 1.428 . S
C717 N716 1.351 . S
C717 C718 1.434 . S
C718 C709 1.429 . S
C718 N715 1.350 . S
C718 C717 1.434 . S
C719 C720 1.369 . S
C719 C721 1.419 . S
C719 H723 0.930 . S
C720 C719 1.369 . S
C720 C729 1.429 . S
C721 C719 1.419 . S
C721 C722 1.363 . S
C721 H724 0.929 . S
C722 C721 1.363 . S
C722 C728 1.428 . S
H723 C719 0.930 . S
H724 C721 0.929 . S
S725 N726 1.613 . S
S725 N727 1.610 . S
N726 S725 1.613 . S
N726 C729 1.350 . S
N727 S725 1.610 . S
N727 C728 1.351 . S
C728 C722 1.428 . S
C728 N727 1.351 . S
C728 C729 1.434 . S
C729 C720 1.429 . S
C729 N726 1.350 . S
C729 C728 1.434 . S
C730 C731 1.369 . S
C730 C732 1.419 . S
C730 H734 0.930 . S
C731 C730 1.369 . S
C731 C740 1.429 . S
C732 C730 1.419 . S
C732 C733 1.363 . S
C732 H735 0.929 . S
C733 C732 1.363 . S
C733 C739 1.428 . S
H734 C730 0.930 . S
H735 C732 0.929 . S
S736 N737 1.613 . S
S736 N738 1.610 . S
N737 S736 1.613 . S
N737 C740 1.350 . S
N738 S736 1.610 . S
N738 C739 1.351 . S
C739 C733 1.428 . S
C739 N738 1.351 . S
C739 C740 1.434 . S
C740 C731 1.429 . S
C740 N737 1.350 . S
C740 C739 1.434 . S
C741 C742 1.369 . S
C741 C743 1.419 . S
C741 H745 0.930 . S
C742 C741 1.369 . S
C742 C751 1.429 . S
C743 C741 1.419 . S
C743 C744 1.363 . S
C743 H746 0.929 . S
C744 C743 1.363 . S
C744 C750 1.428 . S
H745 C741 0.930 . S
H746 C743 0.929 . S
S747 N748 1.613 . S
S747 N749 1.610 . S
N748 S747 1.613 . S
N748 C751 1.350 . S
N749 S747 1.610 . S
N749 C750 1.351 . S
C750 C744 1.428 . S
C750 N749 1.351 . S
C750 C751 1.434 . S
C751 C742 1.429 . S
C751 N748 1.350 . S
C751 C750 1.434 . S
C752 C753 1.369 . S
C752 C754 1.419 . S
C752 H756 0.930 . S
C753 C752 1.369 . S
C753 C762 1.429 . S
C754 C752 1.419 . S
C754 C755 1.363 . S
C754 H757 0.929 . S
C755 C754 1.363 . S
C755 C761 1.428 . S
H756 C752 0.930 . S
H757 C754 0.929 . S
S758 N759 1.613 . S
S758 N760 1.610 . S
N759 S758 1.613 . S
N759 C762 1.350 . S
N760 S758 1.610 . S
N760 C761 1.351 . S
C761 C755 1.428 . S
C761 N760 1.351 . S
C761 C762 1.434 . S
C762 C753 1.429 . S
C762 N759 1.350 . S
C762 C761 1.434 . S
C763 C764 1.369 . S
C763 C765 1.419 . S
C763 H767 0.930 . S
C764 C763 1.369 . S
C764 C773 1.429 . S
C765 C763 1.419 . S
C765 C766 1.363 . S
C765 H768 0.929 . S
C766 C765 1.363 . S
C766 C772 1.428 . S
H767 C763 0.930 . S
H768 C765 0.929 . S
S769 N770 1.613 . S
S769 N771 1.610 . S
N770 S769 1.613 . S
N770 C773 1.350 . S
N771 S769 1.610 . S
N771 C772 1.351 . S
C772 C766 1.428 . S
C772 N771 1.351 . S
C772 C773 1.434 . S
C773 C764 1.429 . S
C773 N770 1.350 . S
C773 C772 1.434 . S
C774 C775 1.369 . S
C774 C776 1.419 . S
C774 H778 0.930 . S
C775 C774 1.369 . S
C775 C784 1.429 . S
C776 C774 1.419 . S
C776 C777 1.363 . S
C776 H779 0.929 . S
C777 C776 1.363 . S
C777 C783 1.428 . S
H778 C774 0.930 . S
H779 C776 0.929 . S
S780 N781 1.613 . S
S780 N782 1.610 . S
N781 S780 1.613 . S
N781 C784 1.350 . S
N782 S780 1.610 . S
N782 C783 1.351 . S
C783 C777 1.428 . S
C783 N782 1.351 . S
C783 C784 1.434 . S
C784 C775 1.429 . S
C784 N781 1.350 . S
C784 C783 1.434 . S
C785 C786 1.369 . S
C785 C787 1.419 . S
C785 H789 0.930 . S
C786 C785 1.369 . S
C786 C795 1.429 . S
C787 C785 1.419 . S
C787 C788 1.363 . S
C787 H790 0.929 . S
C788 C787 1.363 . S
C788 C794 1.428 . S
H789 C785 0.930 . S
H790 C787 0.929 . S
S791 N792 1.613 . S
S791 N793 1.610 . S
N792 S791 1.613 . S
N792 C795 1.350 . S
N793 S791 1.610 . S
N793 C794 1.351 . S
C794 C788 1.428 . S
C794 N793 1.351 . S
C794 C795 1.434 . S
C795 C786 1.429 . S
C795 N792 1.350 . S
C795 C794 1.434 . S
C796 C797 1.369 . S
C796 C798 1.419 . S
C796 H800 0.930 . S
C797 C796 1.369 . S
C797 C806 1.429 . S
C798 C796 1.419 . S
C798 C799 1.363 . S
C798 H801 0.929 . S
C799 C798 1.363 . S
C799 C805 1.428 . S
H800 C796 0.930 . S
H801 C798 0.929 . S
S802 N803 1.613 . S
S802 N804 1.610 . S
N803 S802 1.613 . S
N803 C806 1.350 . S
N804 S802 1.610 . S
N804 C805 1.351 . S
C805 C799 1.428 . S
C805 N804 1.351 . S
C805 C806 1.434 . S
C806 C797 1.429 . S
C806 N803 1.350 . S
C806 C805 1.434 . S
C807 C808 1.369 . S
C807 C809 1.419 . S
C807 H811 0.930 . S
C808 C807 1.369 . S
C808 C817 1.429 . S
C809 C807 1.419 . S
C809 C810 1.363 . S
C809 H812 0.929 . S
C810 C809 1.363 . S
C810 C816 1.428 . S
H811 C807 0.930 . S
H812 C809 0.929 . S
S813 N814 1.613 . S
S813 N815 1.610 . S
N814 S813 1.613 . S
N814 C817 1.350 . S
N815 S813 1.610 . S
N815 C816 1.351 . S
C816 C810 1.428 . S
C816 N815 1.351 . S
C816 C817 1.434 . S
C817 C808 1.429 . S
C817 N814 1.350 . S
C817 C816 1.434 . S
C818 C819 1.369 . S
C818 C820 1.419 . S
C818 H822 0.930 . S
C819 C818 1.369 . S
C819 C828 1.429 . S
C820 C818 1.419 . S
C820 C821 1.363 . S
C820 H823 0.929 . S
C821 C820 1.363 . S
C821 C827 1.428 . S
H822 C818 0.930 . S
H823 C820 0.929 . S
S824 N825 1.613 . S
S824 N826 1.610 . S
N825 S824 1.613 . S
N825 C828 1.350 . S
N826 S824 1.610 . S
N826 C827 1.351 . S
C827 C821 1.428 . S
C827 N826 1.351 . S
C827 C828 1.434 . S
C828 C819 1.429 . S
C828 N825 1.350 . S
C828 C827 1.434 . S
C829 C830 1.369 . S
C829 C831 1.419 . S
C829 H833 0.930 . S
C830 C829 1.369 . S
C830 C839 1.429 . S
C831 C829 1.419 . S
C831 C832 1.363 . S
C831 H834 0.929 . S
C832 C831 1.363 . S
C832 C838 1.428 . S
H833 C829 0.930 . S
H834 C831 0.929 . S
S835 N836 1.613 . S
S835 N837 1.610 . S
N836 S835 1.613 . S
N836 C839 1.350 . S
N837 S835 1.610 . S
N837 C838 1.351 . S
C838 C832 1.428 . S
C838 N837 1.351 . S
C838 C839 1.434 . S
C839 C830 1.429 . S
C839 N836 1.350 . S
C839 C838 1.434 . S
C840 C841 1.369 . S
C840 C842 1.419 . S
C840 H844 0.930 . S
C841 C840 1.369 . S
C841 C850 1.429 . S
C842 C840 1.419 . S
C842 C843 1.363 . S
C842 H845 0.929 . S
C843 C842 1.363 . S
C843 C849 1.428 . S
H844 C840 0.930 . S
H845 C842 0.929 . S
S846 N847 1.613 . S
S846 N848 1.610 . S
N847 S846 1.613 . S
N847 C850 1.350 . S
N848 S846 1.610 . S
N848 C849 1.351 . S
C849 C843 1.428 . S
C849 N848 1.351 . S
C849 C850 1.434 . S
C850 C841 1.429 . S
C850 N847 1.350 . S
C850 C849 1.434 . S
C851 C852 1.369 . S
C851 C853 1.419 . S
C851 H855 0.930 . S
C852 C851 1.369 . S
C852 C861 1.429 . S
C853 C851 1.419 . S
C853 C854 1.363 . S
C853 H856 0.929 . S
C854 C853 1.363 . S
C854 C860 1.428 . S
H855 C851 0.930 . S
H856 C853 0.929 . S
S857 N858 1.613 . S
S857 N859 1.610 . S
N858 S857 1.613 . S
N858 C861 1.350 . S
N859 S857 1.610 . S
N859 C860 1.351 . S
C860 C854 1.428 . S
C860 N859 1.351 . S
C860 C861 1.434 . S
C861 C852 1.429 . S
C861 N858 1.350 . S
C861 C860 1.434 . S
C862 C863 1.369 . S
C862 C864 1.419 . S
C862 H866 0.930 . S
C863 C862 1.369 . S
C863 C872 1.429 . S
C864 C862 1.419 . S
C864 C865 1.363 . S
C864 H867 0.929 . S
C865 C864 1.363 . S
C865 C871 1.428 . S
H866 C862 0.930 . S
H867 C864 0.929 . S
S868 N869 1.613 . S
S868 N870 1.610 . S
N869 S868 1.613 . S
N869 C872 1.350 . S
N870 S868 1.610 . S
N870 C871 1.351 . S
C871 C865 1.428 . S
C871 N870 1.351 . S
C871 C872 1.434 . S
C872 C863 1.429 . S
C872 N869 1.350 . S
C872 C871 1.434 . S
C873 C874 1.369 . S
C873 C875 1.419 . S
C873 H877 0.930 . S
C874 C873 1.369 . S
C874 C883 1.429 . S
C875 C873 1.419 . S
C875 C876 1.363 . S
C875 H878 0.929 . S
C876 C875 1.363 . S
C876 C882 1.428 . S
H877 C873 0.930 . S
H878 C875 0.929 . S
S879 N880 1.613 . S
S879 N881 1.610 . S
N880 S879 1.613 . S
N880 C883 1.350 . S
N881 S879 1.610 . S
N881 C882 1.351 . S
C882 C876 1.428 . S
C882 N881 1.351 . S
C882 C883 1.434 . S
C883 C874 1.429 . S
C883 N880 1.350 . S
C883 C882 1.434 . S
C884 C885 1.369 . S
C884 C886 1.419 . S
C884 H888 0.930 . S
C885 C884 1.369 . S
C885 C894 1.429 . S
C886 C884 1.419 . S
C886 C887 1.363 . S
C886 H889 0.929 . S
C887 C886 1.363 . S
C887 C893 1.428 . S
H888 C884 0.930 . S
H889 C886 0.929 . S
S890 N891 1.613 . S
S890 N892 1.610 . S
N891 S890 1.613 . S
N891 C894 1.350 . S
N892 S890 1.610 . S
N892 C893 1.351 . S
C893 C887 1.428 . S
C893 N892 1.351 . S
C893 C894 1.434 . S
C894 C885 1.429 . S
C894 N891 1.350 . S
C894 C893 1.434 . S
C895 C896 1.369 . S
C895 C897 1.419 . S
C895 H899 0.930 . S
C896 C895 1.369 . S
C896 C905 1.429 . S
C897 C895 1.419 . S
C897 C898 1.363 . S
C897 H900 0.929 . S
C898 C897 1.363 . S
C898 C904 1.428 . S
H899 C895 0.930 . S
H900 C897 0.929 . S
S901 N902 1.613 . S
S901 N903 1.610 . S
N902 S901 1.613 . S
N902 C905 1.350 . S
N903 S901 1.610 . S
N903 C904 1.351 . S
C904 C898 1.428 . S
C904 N903 1.351 . S
C904 C905 1.434 . S
C905 C896 1.429 . S
C905 N902 1.350 . S
C905 C904 1.434 . S
C906 C907 1.369 . S
C906 C908 1.419 . S
C906 H910 0.930 . S
C907 C906 1.369 . S
C907 C916 1.429 . S
C908 C906 1.419 . S
C908 C909 1.363 . S
C908 H911 0.929 . S
C909 C908 1.363 . S
C909 C915 1.428 . S
H910 C906 0.930 . S
H911 C908 0.929 . S
S912 N913 1.613 . S
S912 N914 1.610 . S
N913 S912 1.613 . S
N913 C916 1.350 . S
N914 S912 1.610 . S
N914 C915 1.351 . S
C915 C909 1.428 . S
C915 N914 1.351 . S
C915 C916 1.434 . S
C916 C907 1.429 . S
C916 N913 1.350 . S
C916 C915 1.434 . S
C917 C918 1.369 . S
C917 C919 1.419 . S
C917 H921 0.930 . S
C918 C917 1.369 . S
C918 C927 1.429 . S
C919 C917 1.419 . S
C919 C920 1.363 . S
C919 H922 0.929 . S
C920 C919 1.363 . S
C920 C926 1.428 . S
H921 C917 0.930 . S
H922 C919 0.929 . S
S923 N924 1.613 . S
S923 N925 1.610 . S
N924 S923 1.613 . S
N924 C927 1.350 . S
N925 S923 1.610 . S
N925 C926 1.351 . S
C926 C920 1.428 . S
C926 N925 1.351 . S
C926 C927 1.434 . S
C927 C918 1.429 . S
C927 N924 1.350 . S
C927 C926 1.434 . S
C928 C929 1.369 . S
C928 C930 1.419 . S
C928 H932 0.930 . S
C929 C928 1.369 . S
C929 C938 1.429 . S
C930 C928 1.419 . S
C930 C931 1.363 . S
C930 H933 0.929 . S
C931 C930 1.363 . S
C931 C937 1.428 . S
H932 C928 0.930 . S
H933 C930 0.929 . S
S934 N935 1.613 . S
S934 N936 1.610 . S
N935 S934 1.613 . S
N935 C938 1.350 . S
N936 S934 1.610 . S
N936 C937 1.351 . S
C937 C931 1.428 . S
C937 N936 1.351 . S
C937 C938 1.434 . S
C938 C929 1.429 . S
C938 N935 1.350 . S
C938 C937 1.434 . S
C939 C940 1.369 . S
C939 C941 1.419 . S
C939 H943 0.930 . S
C940 C939 1.369 . S
C940 C949 1.429 . S
C941 C939 1.419 . S
C941 C942 1.363 . S
C941 H944 0.929 . S
C942 C941 1.363 . S
C942 C948 1.428 . S
H943 C939 0.930 . S
H944 C941 0.929 . S
S945 N946 1.613 . S
S945 N947 1.610 . S
N946 S945 1.613 . S
N946 C949 1.350 . S
N947 S945 1.610 . S
N947 C948 1.351 . S
C948 C942 1.428 . S
C948 N947 1.351 . S
C948 C949 1.434 . S
C949 C940 1.429 . S
C949 N946 1.350 . S
C949 C948 1.434 . S
C950 C951 1.369 . S
C950 C952 1.419 . S
C950 H954 0.930 . S
C951 C950 1.369 . S
C951 C960 1.429 . S
C952 C950 1.419 . S
C952 C953 1.363 . S
C952 H955 0.929 . S
C953 C952 1.363 . S
C953 C959 1.428 . S
H954 C950 0.930 . S
H955 C952 0.929 . S
S956 N957 1.613 . S
S956 N958 1.610 . S
N957 S956 1.613 . S
N957 C960 1.350 . S
N958 S956 1.610 . S
N958 C959 1.351 . S
C959 C953 1.428 . S
C959 N958 1.351 . S
C959 C960 1.434 . S
C960 C951 1.429 . S
C960 N957 1.350 . S
C960 C959 1.434 . S
C961 C962 1.369 . S
C961 C963 1.419 . S
C961 H965 0.930 . S
C962 C961 1.369 . S
C962 C971 1.429 . S
C963 C961 1.419 . S
C963 C964 1.363 . S
C963 H966 0.929 . S
C964 C963 1.363 . S
C964 C970 1.428 . S
H965 C961 0.930 . S
H966 C963 0.929 . S
S967 N968 1.613 . S
S967 N969 1.610 . S
N968 S967 1.613 . S
N968 C971 1.350 . S
N969 S967 1.610 . S
N969 C970 1.351 . S
C970 C964 1.428 . S
C970 N969 1.351 . S
C970 C971 1.434 . S
C971 C962 1.429 . S
C971 N968 1.350 . S
C971 C970 1.434 . S
C972 C973 1.369 . S
C972 C974 1.419 . S
C972 H976 0.930 . S
C973 C972 1.369 . S
C973 C982 1.429 . S
C974 C972 1.419 . S
C974 C975 1.363 . S
C974 H977 0.929 . S
C975 C974 1.363 . S
C975 C981 1.428 . S
H976 C972 0.930 . S
H977 C974 0.929 . S
S978 N979 1.613 . S
S978 N980 1.610 . S
N979 S978 1.613 . S
N979 C982 1.350 . S
N980 S978 1.610 . S
N980 C981 1.351 . S
C981 C975 1.428 . S
C981 N980 1.351 . S
C981 C982 1.434 . S
C982 C973 1.429 . S
C982 N979 1.350 . S
C982 C981 1.434 . S
C983 C984 1.369 . S
C983 C985 1.419 . S
C983 H987 0.930 . S
C984 C983 1.369 . S
C984 C993 1.429 . S
C985 C983 1.419 . S
C985 C986 1.363 . S
C985 H988 0.929 . S
C986 C985 1.363 . S
C986 C992 1.428 . S
H987 C983 0.930 . S
H988 C985 0.929 . S
S989 N990 1.613 . S
S989 N991 1.610 1_556 S
N990 S989 1.613 . S
N990 C993 1.350 1_556 S
N991 S989 1.610 1_554 S
N991 C992 1.351 . S
C992 C986 1.428 . S
C992 N991 1.351 . S
C992 C993 1.434 . S
C993 C984 1.429 . S
C993 N990 1.350 1_554 S
C993 C992 1.434 . S
C994 C995 1.369 . S
C994 C996 1.419 . S
C994 H998 0.930 . S
C995 C994 1.369 . S
C995 C1004 1.429 . S
C996 C994 1.419 . S
C996 C997 1.363 . S
C996 H999 0.929 . S
C997 C996 1.363 . S
C997 C1003 1.428 . S
H998 C994 0.930 . S
H999 C996 0.929 . S
S1000 N1001 1.613 . S
S1000 N1002 1.610 . S
N1001 S1000 1.613 . S
N1001 C1004 1.350 . S
N1002 S1000 1.610 . S
N1002 C1003 1.351 . S
C1003 C997 1.428 . S
C1003 N1002 1.351 . S
C1003 C1004 1.434 . S
C1004 C995 1.429 . S
C1004 N1001 1.350 . S
C1004 C1003 1.434 . S
C1005 C1006 1.369 . S
C1005 C1007 1.419 . S
C1005 H1009 0.930 . S
C1006 C1005 1.369 . S
C1006 C1015 1.429 . S
C1007 C1005 1.419 . S
C1007 C1008 1.363 . S
C1007 H1010 0.929 . S
C1008 C1007 1.363 . S
C1008 C1014 1.428 . S
H1009 C1005 0.930 . S
H1010 C1007 0.929 . S
S1011 N1012 1.613 . S
S1011 N1013 1.610 . S
N1012 S1011 1.613 . S
N1012 C1015 1.350 1_554 S
N1013 S1011 1.610 . S
N1013 C1014 1.351 1_554 S
C1014 C1008 1.428 . S
C1014 N1013 1.351 1_556 S
C1014 C1015 1.434 . S
C1015 C1006 1.429 . S
C1015 N1012 1.350 1_556 S
C1015 C1014 1.434 . S
C1016 C1017 1.369 . S
C1016 C1018 1.419 . S
C1016 H1020 0.930 1_556 S
C1017 C1016 1.369 . S
C1017 C1026 1.429 . S
C1018 C1016 1.419 . S
C1018 C1019 1.363 . S
C1018 H1021 0.929 . S
C1019 C1018 1.363 . S
C1019 C1025 1.428 . S
H1020 C1016 0.930 1_554 S
H1021 C1018 0.929 . S
S1022 N1023 1.613 . S
S1022 N1024 1.610 . S
N1023 S1022 1.613 . S
N1023 C1026 1.350 . S
N1024 S1022 1.610 . S
N1024 C1025 1.351 . S
C1025 C1019 1.428 . S
C1025 N1024 1.351 . S
C1025 C1026 1.434 . S
C1026 C1017 1.429 . S
C1026 N1023 1.350 . S
C1026 C1025 1.434 . S
C1027 C1028 1.369 . S
C1027 C1029 1.419 . S
C1027 H1031 0.930 1_556 S
C1028 C1027 1.369 . S
C1028 C1037 1.429 . S
C1029 C1027 1.419 . S
C1029 C1030 1.363 . S
C1029 H1032 0.929 . S
C1030 C1029 1.363 . S
C1030 C1036 1.428 . S
H1031 C1027 0.930 1_554 S
H1032 C1029 0.929 . S
S1033 N1034 1.613 . S
S1033 N1035 1.610 . S
N1034 S1033 1.613 . S
N1034 C1037 1.350 . S
N1035 S1033 1.610 . S
N1035 C1036 1.351 . S
C1036 C1030 1.428 . S
C1036 N1035 1.351 . S
C1036 C1037 1.434 . S
C1037 C1028 1.429 . S
C1037 N1034 1.350 . S
C1037 C1036 1.434 . S
C1038 C1039 1.353 1_554 S
C1038 C1040 1.408 1_554 S
C1038 H1042 0.959 . S
C1039 C1038 1.353 1_556 S
C1039 C1048 1.429 . S
C1040 C1038 1.408 1_556 S
C1040 C1041 1.363 . S
C1040 H1043 0.929 1_556 S
C1041 C1040 1.363 . S
C1041 C1047 1.428 . S
H1042 C1038 0.959 . S
H1043 C1040 0.929 1_554 S
S1044 N1045 1.613 . S
S1044 N1046 1.610 . S
N1045 S1044 1.613 . S
N1045 C1048 1.350 . S
N1046 S1044 1.610 . S
N1046 C1047 1.351 . S
C1047 C1041 1.428 . S
C1047 N1046 1.351 . S
C1047 C1048 1.434 . S
C1048 C1039 1.429 . S
C1048 N1045 1.350 . S
C1048 C1047 1.434 . S
C1049 C1050 1.369 . S
C1049 C1051 1.419 . S
C1049 H1053 0.930 . S
C1050 C1049 1.369 . S
C1050 C1059 1.429 1_556 S
C1051 C1049 1.419 . S
C1051 C1052 1.363 . S
C1051 H1054 0.929 . S
C1052 C1051 1.363 . S
C1052 C1058 1.428 . S
H1053 C1049 0.930 . S
H1054 C1051 0.929 . S
S1055 N1056 1.613 . S
S1055 N1057 1.610 . S
N1056 S1055 1.613 . S
N1056 C1059 1.350 . S
N1057 S1055 1.610 . S
N1057 C1058 1.351 1_554 S
C1058 C1052 1.428 . S
C1058 N1057 1.351 1_556 S
C1058 C1059 1.434 1_556 S
C1059 C1050 1.429 1_554 S
C1059 N1056 1.350 . S
C1059 C1058 1.434 1_554 S
C1060 C1061 1.369 . S
C1060 C1062 1.419 . S
C1060 H1064 0.930 1_556 S
C1061 C1060 1.369 . S
C1061 C1070 1.429 . S
C1062 C1060 1.419 . S
C1062 C1063 1.363 . S
C1062 H1065 0.929 . S
C1063 C1062 1.363 . S
C1063 C1069 1.428 . S
H1064 C1060 0.930 1_554 S
H1065 C1062 0.929 . S
S1066 N1067 1.613 . S
S1066 N1068 1.610 . S
N1067 S1066 1.613 . S
N1067 C1070 1.350 . S
N1068 S1066 1.610 . S
N1068 C1069 1.351 . S
C1069 C1063 1.428 . S
C1069 N1068 1.351 . S
C1069 C1070 1.434 . S
C1070 C1061 1.429 . S
C1070 N1067 1.350 . S
C1070 C1069 1.434 . S
C1071 C1072 1.369 . S
C1071 C1073 1.419 . S
C1071 H1075 0.930 . S
C1072 C1071 1.369 . S
C1072 C1081 1.429 . S
C1073 C1071 1.419 . S
C1073 C1074 1.363 . S
C1073 H1076 0.929 . S
C1074 C1073 1.363 . S
C1074 C1080 1.428 . S
H1075 C1071 0.930 . S
H1076 C1073 0.929 . S
S1077 N1078 1.613 1_556 S
S1077 N1079 1.610 1_556 S
N1078 S1077 1.613 1_554 S
N1078 C1081 1.350 . S
N1079 S1077 1.610 1_554 S
N1079 C1080 1.351 . S
C1080 C1074 1.428 . S
C1080 N1079 1.351 . S
C1080 C1081 1.434 . S
C1081 C1072 1.429 . S
C1081 N1078 1.350 . S
C1081 C1080 1.434 . S
C1082 C1083 1.369 . S
C1082 C1084 1.419 . S
C1082 H1086 0.930 . S
C1083 C1082 1.369 . S
C1083 C1092 1.429 . S
C1084 C1082 1.419 . S
C1084 C1085 1.363 . S
C1084 H1087 0.929 . S
C1085 C1084 1.363 . S
C1085 C1091 1.428 . S
H1086 C1082 0.930 . S
H1087 C1084 0.929 . S
S1088 N1089 1.613 . S
S1088 N1090 1.610 . S
N1089 S1088 1.613 . S
N1089 C1092 1.350 . S
N1090 S1088 1.610 . S
N1090 C1091 1.351 . S
C1091 C1085 1.428 . S
C1091 N1090 1.351 . S
C1091 C1092 1.434 . S
C1092 C1083 1.429 . S
C1092 N1089 1.350 . S
C1092 C1091 1.434 . S
C1093 C1094 1.369 . S
C1093 C1095 1.419 . S
C1093 H1097 0.930 . S
C1094 C1093 1.369 . S
C1094 C1103 1.429 . S
C1095 C1093 1.419 . S
C1095 C1096 1.363 . S
C1095 H1098 0.929 . S
C1096 C1095 1.363 . S
C1096 C1102 1.428 . S
H1097 C1093 0.930 . S
H1098 C1095 0.929 . S
S1099 N1100 1.613 . S
S1099 N1101 1.610 1_556 S
N1100 S1099 1.613 . S
N1100 C1103 1.350 1_556 S
N1101 S1099 1.610 1_554 S
N1101 C1102 1.351 . S
C1102 C1096 1.428 . S
C1102 N1101 1.351 . S
C1102 C1103 1.434 . S
C1103 C1094 1.429 . S
C1103 N1100 1.350 1_554 S
C1103 C1102 1.434 . S
C1104 C1105 1.369 . S
C1104 C1106 1.419 . S
C1104 H1108 0.930 . S
C1105 C1104 1.369 . S
C1105 C1114 1.429 . S
C1106 C1104 1.419 . S
C1106 C1107 1.363 . S
C1106 H1109 0.929 . S
C1107 C1106 1.363 . S
C1107 C1113 1.428 . S
H1108 C1104 0.930 . S
H1109 C1106 0.929 . S
S1110 N1111 1.613 . S
S1110 N1112 1.610 . S
N1111 S1110 1.613 . S
N1111 C1114 1.350 . S
N1112 S1110 1.610 . S
N1112 C1113 1.351 . S
C1113 C1107 1.428 . S
C1113 N1112 1.351 . S
C1113 C1114 1.434 . S
C1114 C1105 1.429 . S
C1114 N1111 1.350 . S
C1114 C1113 1.434 . S
C1115 C1116 1.369 . S
C1115 C1117 1.419 . S
C1115 H1119 0.930 . S
C1116 C1115 1.369 . S
C1116 C1125 1.429 . S
C1117 C1115 1.419 . S
C1117 C1118 1.363 . S
C1117 H1120 0.929 . S
C1118 C1117 1.363 . S
C1118 C1124 1.428 . S
H1119 C1115 0.930 . S
H1120 C1117 0.929 . S
S1121 N1122 1.613 . S
S1121 N1123 1.610 . S
N1122 S1121 1.613 . S
N1122 C1125 1.350 . S
N1123 S1121 1.610 . S
N1123 C1124 1.351 . S
C1124 C1118 1.428 . S
C1124 N1123 1.351 . S
C1124 C1125 1.434 . S
C1125 C1116 1.429 . S
C1125 N1122 1.350 . S
C1125 C1124 1.434 . S
C1126 C1127 1.369 . S
C1126 C1128 1.419 . S
C1126 H1130 0.930 . S
C1127 C1126 1.369 . S
C1127 C1136 1.429 . S
C1128 C1126 1.419 . S
C1128 C1129 1.363 . S
C1128 H1131 0.929 . S
C1129 C1128 1.363 . S
C1129 C1135 1.428 . S
H1130 C1126 0.930 . S
H1131 C1128 0.929 . S
S1132 N1133 1.613 . S
S1132 N1134 1.610 . S
N1133 S1132 1.613 . S
N1133 C1136 1.350 . S
N1134 S1132 1.610 . S
N1134 C1135 1.351 . S
C1135 C1129 1.428 . S
C1135 N1134 1.351 . S
C1135 C1136 1.434 . S
C1136 C1127 1.429 . S
C1136 N1133 1.350 . S
C1136 C1135 1.434 . S
C1137 C1138 1.369 . S
C1137 C1139 1.419 . S
C1137 H1141 0.930 . S
C1138 C1137 1.369 . S
C1138 C1147 1.429 1_455 S
C1139 C1137 1.419 . S
C1139 C1140 1.363 . S
C1139 H1142 0.929 . S
C1140 C1139 1.363 . S
C1140 C1146 1.428 1_455 S
H1141 C1137 0.930 . S
H1142 C1139 0.929 . S
S1143 N1144 1.613 . S
S1143 N1145 1.610 . S
N1144 S1143 1.613 . S
N1144 C1147 1.350 . S
N1145 S1143 1.610 . S
N1145 C1146 1.351 . S
C1146 C1140 1.428 1_655 S
C1146 N1145 1.351 . S
C1146 C1147 1.434 . S
C1147 C1138 1.429 1_655 S
C1147 N1144 1.350 . S
C1147 C1146 1.434 . S
C1148 C1149 1.369 . S
C1148 C1150 1.419 . S
C1148 H1152 0.930 . S
C1149 C1148 1.369 . S
C1149 C1158 1.429 . S
C1150 C1148 1.419 . S
C1150 C1151 1.363 . S
C1150 H1153 0.929 . S
C1151 C1150 1.363 . S
C1151 C1157 1.428 . S
H1152 C1148 0.930 . S
H1153 C1150 0.929 . S
S1154 N1155 1.613 . S
S1154 N1156 1.610 . S
N1155 S1154 1.613 . S
N1155 C1158 1.350 . S
N1156 S1154 1.610 . S
N1156 C1157 1.351 . S
C1157 C1151 1.428 . S
C1157 N1156 1.351 . S
C1157 C1158 1.434 . S
C1158 C1149 1.429 . S
C1158 N1155 1.350 . S
C1158 C1157 1.434 . S
C1159 C1160 1.369 . S
C1159 C1161 1.421 1_565 S
C1159 H1163 0.928 1_565 S
C1160 C1159 1.369 . S
C1160 C1169 1.429 . S
C1161 C1159 1.421 1_545 S
C1161 C1162 1.363 1_545 S
C1161 H1164 0.929 . S
C1162 C1161 1.363 1_565 S
C1162 C1168 1.428 . S
H1163 C1159 0.928 1_545 S
H1164 C1161 0.929 . S
S1165 N1166 1.613 . S
S1165 N1167 1.610 . S
N1166 S1165 1.613 . S
N1166 C1169 1.350 . S
N1167 S1165 1.610 . S
N1167 C1168 1.351 . S
C1168 C1162 1.428 . S
C1168 N1167 1.351 . S
C1168 C1169 1.434 . S
C1169 C1160 1.429 . S
C1169 N1166 1.350 . S
C1169 C1168 1.434 . S
C1170 C1171 1.369 . S
C1170 C1172 1.419 . S
C1170 H1174 0.930 . S
C1171 C1170 1.369 . S
C1171 C1180 1.429 1_565 S
C1172 C1170 1.419 . S
C1172 C1173 1.363 . S
C1172 H1175 0.929 . S
C1173 C1172 1.363 . S
C1173 C1179 1.428 1_565 S
H1174 C1170 0.930 . S
H1175 C1172 0.929 . S
S1176 N1177 1.613 . S
S1176 N1178 1.610 . S
N1177 S1176 1.613 . S
N1177 C1180 1.350 . S
N1178 S1176 1.610 . S
N1178 C1179 1.351 . S
C1179 C1173 1.428 1_545 S
C1179 N1178 1.351 . S
C1179 C1180 1.434 . S
C1180 C1171 1.429 1_545 S
C1180 N1177 1.350 . S
C1180 C1179 1.434 . S
C1181 C1182 1.369 . S
C1181 C1183 1.419 . S
C1181 H1185 0.930 . S
C1182 C1181 1.369 . S
C1182 C1191 1.429 1_455 S
C1183 C1181 1.419 . S
C1183 C1184 1.372 . S
C1183 H1186 0.929 . S
C1184 C1183 1.372 . S
C1184 C1190 1.403 1_455 S
H1185 C1181 0.930 . S
H1186 C1183 0.929 . S
S1187 N1188 1.613 . S
S1187 N1189 1.610 . S
N1188 S1187 1.613 . S
N1188 C1191 1.350 . S
N1189 S1187 1.610 . S
N1189 C1190 1.351 . S
C1190 C1184 1.403 1_655 S
C1190 N1189 1.351 . S
C1190 C1191 1.434 . S
C1191 C1182 1.429 1_655 S
C1191 N1188 1.350 . S
C1191 C1190 1.434 . S
C1192 C1193 1.369 . S
C1192 C1194 1.419 . S
C1192 H1196 0.930 . S
C1193 C1192 1.369 . S
C1193 C1202 1.429 . S
C1194 C1192 1.419 . S
C1194 C1195 1.363 . S
C1194 H1197 0.929 . S
C1195 C1194 1.363 . S
C1195 C1201 1.428 . S
H1196 C1192 0.930 . S
H1197 C1194 0.929 . S
S1198 N1199 1.613 . S
S1198 N1200 1.610 . S
N1199 S1198 1.613 . S
N1199 C1202 1.350 . S
N1200 S1198 1.610 . S
N1200 C1201 1.351 . S
C1201 C1195 1.428 . S
C1201 N1200 1.351 . S
C1201 C1202 1.434 . S
C1202 C1193 1.429 . S
C1202 N1199 1.350 . S
C1202 C1201 1.434 . S
C1203 C1204 1.369 . S
C1203 C1205 1.419 . S
C1203 H1207 0.930 . S
C1204 C1203 1.369 . S
C1204 C1213 1.429 . S
C1205 C1203 1.419 . S
C1205 C1206 1.363 . S
C1205 H1208 0.929 . S
C1206 C1205 1.363 . S
C1206 C1212 1.428 . S
H1207 C1203 0.930 . S
H1208 C1205 0.929 . S
S1209 N1210 1.613 . S
S1209 N1211 1.610 . S
N1210 S1209 1.613 . S
N1210 C1213 1.350 . S
N1211 S1209 1.610 . S
N1211 C1212 1.351 . S
C1212 C1206 1.428 . S
C1212 N1211 1.351 . S
C1212 C1213 1.434 . S
C1213 C1204 1.429 . S
C1213 N1210 1.350 . S
C1213 C1212 1.434 . S
C1214 C1215 1.369 . S
C1214 C1216 1.419 . S
C1214 H1218 0.930 . S
C1215 C1214 1.369 . S
C1215 C1224 1.429 . S
C1216 C1214 1.419 . S
C1216 C1217 1.363 . S
C1216 H1219 0.929 . S
C1217 C1216 1.363 . S
C1217 C1223 1.428 . S
H1218 C1214 0.930 . S
H1219 C1216 0.929 . S
S1220 N1221 1.613 . S
S1220 N1222 1.610 . S
N1221 S1220 1.613 . S
N1221 C1224 1.350 . S
N1222 S1220 1.610 . S
N1222 C1223 1.351 . S
C1223 C1217 1.428 . S
C1223 N1222 1.351 . S
C1223 C1224 1.434 . S
C1224 C1215 1.429 . S
C1224 N1221 1.350 . S
C1224 C1223 1.434 . S
C1225 C1226 1.369 . S
C1225 C1227 1.419 . S
C1225 H1229 0.930 . S
C1226 C1225 1.369 . S
C1226 C1235 1.429 . S
C1227 C1225 1.419 . S
C1227 C1228 1.363 . S
C1227 H1230 0.929 . S
C1228 C1227 1.363 . S
C1228 C1234 1.428 . S
H1229 C1225 0.930 . S
H1230 C1227 0.929 . S
S1231 N1232 1.613 . S
S1231 N1233 1.610 . S
N1232 S1231 1.613 . S
N1232 C1235 1.350 . S
N1233 S1231 1.610 . S
N1233 C1234 1.351 . S
C1234 C1228 1.428 . S
C1234 N1233 1.351 . S
C1234 C1235 1.434 . S
C1235 C1226 1.429 . S
C1235 N1232 1.350 . S
C1235 C1234 1.434 . S
C1236 C1237 1.369 . S
C1236 C1238 1.417 . S
C1236 H1240 0.930 1_545 S
C1237 C1236 1.369 . S
C1237 C1246 1.429 . S
C1238 C1236 1.417 . S
C1238 C1239 1.364 . S
C1238 H1241 0.930 1_545 S
C1239 C1238 1.364 . S
C1239 C1245 1.428 . S
H1240 C1236 0.930 1_565 S
H1241 C1238 0.930 1_565 S
S1242 N1243 1.613 . S
S1242 N1244 1.610 . S
N1243 S1242 1.613 . S
N1243 C1246 1.350 . S
N1244 S1242 1.610 . S
N1244 C1245 1.351 . S
C1245 C1239 1.428 . S
C1245 N1244 1.351 . S
C1245 C1246 1.434 . S
C1246 C1237 1.429 . S
C1246 N1243 1.350 . S
C1246 C1245 1.434 . S
C1247 C1248 1.369 1_455 S
C1247 C1249 1.419 . S
C1247 H1251 0.930 . S
C1248 C1247 1.369 1_655 S
C1248 C1257 1.429 . S
C1249 C1247 1.419 . S
C1249 C1250 1.363 1_455 S
C1249 H1252 0.929 . S
C1250 C1249 1.363 1_655 S
C1250 C1256 1.428 . S
H1251 C1247 0.930 . S
H1252 C1249 0.929 . S
S1253 N1254 1.613 . S
S1253 N1255 1.610 . S
N1254 S1253 1.613 . S
N1254 C1257 1.350 . S
N1255 S1253 1.610 . S
N1255 C1256 1.351 . S
C1256 C1250 1.428 . S
C1256 N1255 1.351 . S
C1256 C1257 1.434 . S
C1257 C1248 1.429 . S
C1257 N1254 1.350 . S
C1257 C1256 1.434 . S
C1258 C1259 1.369 . S
C1258 C1260 1.419 . S
C1258 H1262 0.930 . S
C1259 C1258 1.369 . S
C1259 C1268 1.429 . S
C1260 C1258 1.419 . S
C1260 C1261 1.363 . S
C1260 H1263 0.929 . S
C1261 C1260 1.363 . S
C1261 C1267 1.428 . S
H1262 C1258 0.930 . S
H1263 C1260 0.929 . S
S1264 N1265 1.613 . S
S1264 N1266 1.610 . S
N1265 S1264 1.613 . S
N1265 C1268 1.350 . S
N1266 S1264 1.610 . S
N1266 C1267 1.351 . S
C1267 C1261 1.428 . S
C1267 N1266 1.351 . S
C1267 C1268 1.434 . S
C1268 C1259 1.429 . S
C1268 N1265 1.350 . S
C1268 C1267 1.434 . S
C1269 C1270 1.369 . S
C1269 C1271 1.419 . S
C1269 H1273 0.930 . S
C1270 C1269 1.369 . S
C1270 C1279 1.429 . S
C1271 C1269 1.419 . S
C1271 C1272 1.363 . S
C1271 H1274 0.929 . S
C1272 C1271 1.363 . S
C1272 C1278 1.428 . S
H1273 C1269 0.930 . S
H1274 C1271 0.929 . S
S1275 N1276 1.613 . S
S1275 N1277 1.610 . S
N1276 S1275 1.613 . S
N1276 C1279 1.350 . S
N1277 S1275 1.610 . S
N1277 C1278 1.351 . S
C1278 C1272 1.428 . S
C1278 N1277 1.351 . S
C1278 C1279 1.434 . S
C1279 C1270 1.429 . S
C1279 N1276 1.350 . S
C1279 C1278 1.434 . S
C1280 C1281 1.369 . S
C1280 C1282 1.419 . S
C1280 H1284 0.930 . S
C1281 C1280 1.369 . S
C1281 C1290 1.429 . S
C1282 C1280 1.419 . S
C1282 C1283 1.363 . S
C1282 H1285 0.929 . S
C1283 C1282 1.363 . S
C1283 C1289 1.428 . S
H1284 C1280 0.930 . S
H1285 C1282 0.929 . S
S1286 N1287 1.613 . S
S1286 N1288 1.610 . S
N1287 S1286 1.613 . S
N1287 C1290 1.350 . S
N1288 S1286 1.610 . S
N1288 C1289 1.351 . S
C1289 C1283 1.428 . S
C1289 N1288 1.351 . S
C1289 C1290 1.434 . S
C1290 C1281 1.429 . S
C1290 N1287 1.350 . S
C1290 C1289 1.434 . S
C1291 C1292 1.369 . S
C1291 C1293 1.419 . S
C1291 H1295 0.930 . S
C1292 C1291 1.369 . S
C1292 C1301 1.429 . S
C1293 C1291 1.419 . S
C1293 C1294 1.363 . S
C1293 H1296 0.929 . S
C1294 C1293 1.363 . S
C1294 C1300 1.428 . S
H1295 C1291 0.930 . S
H1296 C1293 0.929 . S
S1297 N1298 1.613 . S
S1297 N1299 1.610 . S
N1298 S1297 1.613 . S
N1298 C1301 1.350 . S
N1299 S1297 1.610 . S
N1299 C1300 1.351 . S
C1300 C1294 1.428 . S
C1300 N1299 1.351 . S
C1300 C1301 1.434 . S
C1301 C1292 1.429 . S
C1301 N1298 1.350 . S
C1301 C1300 1.434 . S
C1302 C1303 1.369 . S
C1302 C1304 1.419 . S
C1302 H1306 0.930 . S
C1303 C1302 1.369 . S
C1303 C1312 1.429 . S
C1304 C1302 1.419 . S
C1304 C1305 1.363 . S
C1304 H1307 0.929 . S
C1305 C1304 1.363 . S
C1305 C1311 1.428 . S
H1306 C1302 0.930 . S
H1307 C1304 0.929 . S
S1308 N1309 1.613 . S
S1308 N1310 1.610 . S
N1309 S1308 1.613 . S
N1309 C1312 1.350 . S
N1310 S1308 1.610 . S
N1310 C1311 1.351 . S
C1311 C1305 1.428 . S
C1311 N1310 1.351 . S
C1311 C1312 1.434 . S
C1312 C1303 1.429 . S
C1312 N1309 1.350 . S
C1312 C1311 1.434 . S
C1313 C1314 1.369 . S
C1313 C1315 1.419 . S
C1313 H1317 0.930 . S
C1314 C1313 1.369 . S
C1314 C1323 1.429 . S
C1315 C1313 1.419 . S
C1315 C1316 1.363 . S
C1315 H1318 0.929 . S
C1316 C1315 1.363 . S
C1316 C1322 1.428 . S
H1317 C1313 0.930 . S
H1318 C1315 0.929 . S
S1319 N1320 1.613 . S
S1319 N1321 1.610 . S
N1320 S1319 1.613 . S
N1320 C1323 1.350 . S
N1321 S1319 1.610 . S
N1321 C1322 1.351 . S
C1322 C1316 1.428 . S
C1322 N1321 1.351 . S
C1322 C1323 1.434 . S
C1323 C1314 1.429 . S
C1323 N1320 1.350 . S
C1323 C1322 1.434 . S
C1324 C1325 1.369 . S
C1324 C1326 1.419 . S
C1324 H1328 0.930 . S
C1325 C1324 1.369 . S
C1325 C1334 1.429 . S
C1326 C1324 1.419 . S
C1326 C1327 1.363 . S
C1326 H1329 0.929 . S
C1327 C1326 1.363 . S
C1327 C1333 1.428 . S
H1328 C1324 0.930 . S
H1329 C1326 0.929 . S
S1330 N1331 1.613 . S
S1330 N1332 1.610 . S
N1331 S1330 1.613 . S
N1331 C1334 1.350 . S
N1332 S1330 1.610 . S
N1332 C1333 1.351 . S
C1333 C1327 1.428 . S
C1333 N1332 1.351 . S
C1333 C1334 1.434 . S
C1334 C1325 1.429 . S
C1334 N1331 1.350 . S
C1334 C1333 1.434 . S
C1335 C1336 1.369 . S
C1335 C1337 1.419 1_655 S
C1335 H1339 0.930 1_655 S
C1336 C1335 1.369 . S
C1336 C1345 1.429 . S
C1337 C1335 1.419 1_455 S
C1337 C1338 1.363 1_455 S
C1337 H1340 0.929 . S
C1338 C1337 1.363 1_655 S
C1338 C1344 1.428 . S
H1339 C1335 0.930 1_455 S
H1340 C1337 0.929 . S
S1341 N1342 1.613 . S
S1341 N1343 1.610 . S
N1342 S1341 1.613 . S
N1342 C1345 1.350 . S
N1343 S1341 1.610 . S
N1343 C1344 1.351 . S
C1344 C1338 1.428 . S
C1344 N1343 1.351 . S
C1344 C1345 1.434 . S
C1345 C1336 1.429 . S
C1345 N1342 1.350 . S
C1345 C1344 1.434 . S
C1346 C1347 1.369 . S
C1346 C1348 1.419 . S
C1346 H1350 0.930 . S
C1347 C1346 1.369 . S
C1347 C1356 1.429 . S
C1348 C1346 1.419 . S
C1348 C1349 1.363 . S
C1348 H1351 0.929 . S
C1349 C1348 1.363 . S
C1349 C1355 1.428 . S
H1350 C1346 0.930 . S
H1351 C1348 0.929 . S
S1352 N1353 1.613 . S
S1352 N1354 1.610 . S
N1353 S1352 1.613 . S
N1353 C1356 1.350 . S
N1354 S1352 1.610 . S
N1354 C1355 1.351 . S
C1355 C1349 1.428 . S
C1355 N1354 1.351 . S
C1355 C1356 1.434 . S
C1356 C1347 1.429 . S
C1356 N1353 1.350 . S
C1356 C1355 1.434 . S
C1357 C1358 1.369 1_565 S
C1357 C1359 1.419 . S
C1357 H1361 0.930 . S
C1358 C1357 1.369 1_545 S
C1358 C1367 1.429 . S
C1359 C1357 1.419 . S
C1359 C1360 1.363 1_565 S
C1359 H1362 0.929 . S
C1360 C1359 1.363 1_545 S
C1360 C1366 1.428 . S
H1361 C1357 0.930 . S
H1362 C1359 0.929 . S
S1363 N1364 1.613 . S
S1363 N1365 1.610 . S
N1364 S1363 1.613 . S
N1364 C1367 1.350 . S
N1365 S1363 1.610 . S
N1365 C1366 1.351 . S
C1366 C1360 1.428 . S
C1366 N1365 1.351 . S
C1366 C1367 1.434 . S
C1367 C1358 1.429 . S
C1367 N1364 1.350 . S
C1367 C1366 1.434 . S
C577 C13 1.488 . S
C579 C421 1.549 . S
C588 C27 1.412 . S
C590 C446 1.478 . S
C601 C457 1.548 . S
C599 C36 1.470 . S
C610 C41 1.462 . S
C612 C482 1.538 . S
C621 C8 1.547 . S
C623 C500 1.627 . S
C632 C22 1.471 . S
C634 C511 1.535 . S
C643 C55 1.512 . S
C645 C493 1.558 1_455 S
C656 C518 1.474 . S
C654 C69 1.429 . S
C667 C475 1.555 . S
C665 C78 1.468 . S
C676 C83 1.488 . S
C678 C464 1.534 1_545 S
C689 C428 1.624 1_655 S
C687 C50 1.537 . S
C698 C64 1.440 . S
C700 C439 1.535 . S
C709 C97 1.506 . S
C711 C529 1.582 . S
C720 C111 1.428 . S
C722 C554 1.494 . S
C733 C565 1.574 . S
C731 C120 1.523 . S
C742 C125 1.472 . S
C744 C266 1.559 . S
C753 C92 1.617 . S
C755 C284 1.666 . S
C764 C106 1.496 . S
C766 C295 1.552 . S
C775 C139 1.489 . S
C777 C277 1.554 . S
C786 C153 1.441 . S
C788 C302 1.486 . S
C799 C259 1.568 . S
C797 C162 1.491 . S
C810 C572 1.555 . S
C808 C167 1.485 . S
C821 C536 1.637 . S
C819 C134 1.575 . S
C832 C547 1.550 . S
C830 C148 1.471 . S
C841 C181 1.502 . S
C843 C313 1.566 . S
C852 C195 1.433 . S
C854 C338 1.487 . S
C863 C204 1.523 . S
C865 C349 1.578 . S
C874 C209 1.481 . S
C876 C374 1.573 . S
C887 C392 1.669 . S
C885 C176 1.625 . S
C898 C403 1.557 . S
C896 C190 1.496 . S
C909 C385 1.576 . S
C907 C223 1.491 . S
C920 C410 1.494 . S
C918 C237 1.427 . S
C929 C246 1.493 . S
C931 C367 1.558 . S
C942 C356 1.540 . S
C940 C251 1.472 . S
C951 C218 1.571 . S
C953 C320 1.641 . S
C964 C331 1.553 . S
C962 C232 1.471 . S
C975 C268 1.375 . S
C973 C11 1.430 . S
C984 C25 1.338 . S
C986 C286 1.300 . S
C997 C296 1.348 . S
C995 C35 1.411 . S
C1008 C314 1.359 . S
C1006 C39 1.413 . S
C1019 C340 1.410 . S
C1017 C7 1.492 . S
C1030 C350 1.321 . S
C1028 C21 1.399 . S
C1039 C53 1.461 . S
C1041 C358 1.382 . S
C1050 C67 1.379 . S
C1052 C322 1.306 . S
C1061 C77 1.440 . S
C1063 C332 1.356 . S
C1072 C81 1.462 . S
C1074 C278 1.404 . S
C1085 C304 1.412 . S
C1083 C49 1.529 . S
C1094 C63 1.445 . S
C1096 C260 1.360 . S
C1107 C376 1.348 . S
C1105 C95 1.419 . S
C1116 C109 1.369 . S
C1118 C394 1.323 . S
C1127 C119 1.441 . S
C1129 C404 1.369 . S
C1140 C422 1.296 . S
C1138 C123 1.365 . S
C1149 C91 1.480 . S
C1151 C448 1.401 . S
C1160 C105 1.360 . S
C1162 C458 1.299 . S
C1171 C137 1.406 . S
C1173 C466 1.321 . S
C1182 C151 1.316 . S
C1184 C430 1.269 . S
C1195 C440 1.357 . S
C1193 C161 1.439 . S
C1204 C165 1.459 . S
C1206 C386 1.383 . S
C1215 C133 1.538 . S
C1217 C412 1.424 . S
C1228 C368 1.391 . S
C1226 C147 1.475 . S
C1239 C484 1.335 . S
C1237 C179 1.400 . S
C1248 C193 1.305 . S
C1250 C502 1.252 . S
C1259 C203 1.406 . S
C1261 C512 1.336 . S
C1272 C530 1.341 . S
C1270 C207 1.406 . S
C1283 C556 1.413 . S
C1281 C175 1.505 . S
C1292 C189 1.433 . S
C1294 C566 1.356 . S
C1303 C221 1.453 . S
C1305 C574 1.367 . S
C1314 C235 1.400 . S
C1316 C538 1.329 . S
C1327 C548 1.391 . S
C1325 C245 1.470 . S
C1338 C494 1.297 1_655 S
C1336 C249 1.375 . S
C1349 C520 1.407 . S
C1347 C217 1.514 . S
C1358 C231 1.394 . S
C1360 C476 1.323 1_545 S
