# Generated by pormake.
# Topology hwx, (6,3)-cn, num edge types: 1
# Building blocks:
#     Node 0, Type 0, BuildingBlock: IZENUY_clean_sbu_0, # of connection points: 6
#     Node 1, Type 0, BuildingBlock: IZENUY_clean_sbu_0, # of connection points: 6
#     Node 2, Type 0, BuildingBlock: IZENUY_clean_sbu_0, # of connection points: 6
#     Node 3, Type 0, BuildingBlock: IZENUY_clean_sbu_0, # of connection points: 6
#     Node 4, Type 1, BuildingBlock: KAKCAD_clean_linker_0, # of connection points: 3
#     Node 5, Type 1, BuildingBlock: KAKCAD_clean_linker_0, # of connection points: 3
#     Node 6, Type 1, BuildingBlock: KAKCAD_clean_linker_0, # of connection points: 3
#     Node 7, Type 1, BuildingBlock: KAKCAD_clean_linker_0, # of connection points: 3
#     Node 8, Type 1, BuildingBlock: KAKCAD_clean_linker_0, # of connection points: 3
#     Node 9, Type 1, BuildingBlock: KAKCAD_clean_linker_0, # of connection points: 3
#     Node 10, Type 1, BuildingBlock: KAKCAD_clean_linker_0, # of connection points: 3
#     Node 11, Type 1, BuildingBlock: KAKCAD_clean_linker_0, # of connection points: 3
#     Edge 12, Type (0, 1), BuildingBlock: KIFKEQ_clean_linker_1, # of connection points: 2
#     Edge 13, Type (0, 1), BuildingBlock: KIFKEQ_clean_linker_1, # of connection points: 2
#     Edge 14, Type (0, 1), BuildingBlock: KIFKEQ_clean_linker_1, # of connection points: 2
#     Edge 15, Type (0, 1), BuildingBlock: KIFKEQ_clean_linker_1, # of connection points: 2
#     Edge 16, Type (0, 1), BuildingBlock: KIFKEQ_clean_linker_1, # of connection points: 2
#     Edge 17, Type (0, 1), BuildingBlock: KIFKEQ_clean_linker_1, # of connection points: 2
#     Edge 18, Type (0, 1), BuildingBlock: KIFKEQ_clean_linker_1, # of connection points: 2
#     Edge 19, Type (0, 1), BuildingBlock: KIFKEQ_clean_linker_1, # of connection points: 2
#     Edge 20, Type (0, 1), BuildingBlock: KIFKEQ_clean_linker_1, # of connection points: 2
#     Edge 21, Type (0, 1), BuildingBlock: KIFKEQ_clean_linker_1, # of connection points: 2
#     Edge 22, Type (0, 1), BuildingBlock: KIFKEQ_clean_linker_1, # of connection points: 2
#     Edge 23, Type (0, 1), BuildingBlock: KIFKEQ_clean_linker_1, # of connection points: 2
#     Edge 24, Type (0, 1), BuildingBlock: KIFKEQ_clean_linker_1, # of connection points: 2
#     Edge 25, Type (0, 1), BuildingBlock: KIFKEQ_clean_linker_1, # of connection points: 2
#     Edge 26, Type (0, 1), BuildingBlock: KIFKEQ_clean_linker_1, # of connection points: 2
#     Edge 27, Type (0, 1), BuildingBlock: KIFKEQ_clean_linker_1, # of connection points: 2
#     Edge 28, Type (0, 1), BuildingBlock: KIFKEQ_clean_linker_1, # of connection points: 2
#     Edge 29, Type (0, 1), BuildingBlock: KIFKEQ_clean_linker_1, # of connection points: 2
#     Edge 30, Type (0, 1), BuildingBlock: KIFKEQ_clean_linker_1, # of connection points: 2
#     Edge 31, Type (0, 1), BuildingBlock: KIFKEQ_clean_linker_1, # of connection points: 2
#     Edge 32, Type (0, 1), BuildingBlock: KIFKEQ_clean_linker_1, # of connection points: 2
#     Edge 33, Type (0, 1), BuildingBlock: KIFKEQ_clean_linker_1, # of connection points: 2
#     Edge 34, Type (0, 1), BuildingBlock: KIFKEQ_clean_linker_1, # of connection points: 2
#     Edge 35, Type (0, 1), BuildingBlock: KIFKEQ_clean_linker_1, # of connection points: 2
# Relax obj value: 0.051
# Max RMSD: 0.075
# Mean RMSD: 0.067
data_MOF--net-hwx--node1-IZENUY_clean_sbu_0--node2-KAKCAD_clean_linker_0--edge1-KIFKEQ_clean_linker_1
_symmetry_space_group_name_H-M    P1
_symmetry_Int_Tables_number       1
_symmetry_cell_setting            triclinic
loop_
_symmetry_equiv_pos_as_xyz
'x, y, z'
_cell_length_a     59.004659
_cell_length_b     58.909168
_cell_length_c     28.526805
_cell_angle_alpha  89.958494
_cell_angle_beta   90.140567
_cell_angle_gamma 90.021351
loop_
_atom_site_label
_atom_site_type_symbol
_atom_site_fract_x
_atom_site_fract_y
_atom_site_fract_z
_atom_type_partial_charge
Fe0 Fe 0.23981 0.21014 0.04566 0.0
Fe1 Fe 0.2378 0.21018 0.93849 0.0
O2 O 0.23116 0.19709 0.99268 0.0
Fe3 Fe 0.2159 0.1711 0.99381 0.0
O4 O 0.20072 0.17747 0.0484 0.0
O5 O 0.21084 0.21242 0.06575 0.0
O6 O 0.23704 0.23925 0.02366 0.0
C7 C 0.22565 0.2473 0.98986 0.0
C8 C 0.24713 0.16343 0.06322 0.0
O9 O 0.22189 0.23553 0.95374 0.0
C10 C 0.24629 0.16572 0.91738 0.0
O11 O 0.26943 0.20869 0.02921 0.0
O12 O 0.26455 0.22277 0.95871 0.0
O13 O 0.23855 0.15668 0.02516 0.0
O14 O 0.24413 0.18353 0.07738 0.0
C15 C 0.19347 0.19329 0.92342 0.0
O16 O 0.25403 0.18568 0.91967 0.0
O17 O 0.22846 0.1602 0.9394 0.0
C18 C 0.27741 0.21767 0.99269 0.0
O19 O 0.21241 0.20008 0.90822 0.0
O20 O 0.19201 0.18347 0.96258 0.0
C21 C 0.19723 0.19602 0.06964 0.0
Fe22 Fe 0.25837 0.71056 0.55504 0.0
Fe23 Fe 0.27917 0.67027 0.50214 0.0
O24 O 0.26478 0.6967 0.50165 0.0
Fe25 Fe 0.2569 0.70935 0.44778 0.0
O26 O 0.27391 0.73436 0.45987 0.0
O27 O 0.26116 0.73939 0.53134 0.0
O28 O 0.28801 0.71218 0.5707 0.0
C29 C 0.30102 0.69531 0.57441 0.0
C30 C 0.21932 0.71834 0.50656 0.0
O31 O 0.2961 0.67658 0.55494 0.0
C32 C 0.24645 0.66502 0.42981 0.0
O33 O 0.25451 0.68425 0.58859 0.0
O34 O 0.25683 0.65706 0.53617 0.0
O35 O 0.2311 0.72266 0.47061 0.0
O36 O 0.22824 0.70998 0.54288 0.0
C37 C 0.30034 0.69124 0.42892 0.0
O38 O 0.26486 0.65922 0.44947 0.0
O39 O 0.23945 0.68521 0.43226 0.0
C40 C 0.25037 0.66411 0.57564 0.0
O41 O 0.30249 0.68165 0.46818 0.0
O42 O 0.2812 0.6983 0.41509 0.0
C43 C 0.27167 0.74666 0.49572 0.0
Fe44 Fe 0.75824 0.79659 0.94626 0.0
Fe45 Fe 0.7585 0.7962 0.05369 0.0
O46 O 0.76562 0.80961 0.00015 0.0
Fe47 Fe 0.78003 0.836 0.00046 0.0
O48 O 0.7663 0.84665 0.94709 0.0
O49 O 0.74095 0.82072 0.92899 0.0
O50 O 0.73229 0.78327 0.96839 0.0
C51 C 0.72003 0.78787 0.00346 0.0
C52 C 0.80184 0.81466 0.9285 0.0
O53 O 0.7285 0.79686 0.03958 0.0
C54 C 0.80098 0.81159 0.07475 0.0
O55 O 0.77507 0.77163 0.95993 0.0
O56 O 0.76157 0.76721 0.03105 0.0
O57 O 0.80367 0.82438 0.9677 0.0
O58 O 0.78283 0.80746 0.91425 0.0
C59 C 0.75044 0.84278 0.07255 0.0
O60 O 0.78796 0.79467 0.07148 0.0
O61 O 0.79635 0.83005 0.05399 0.0
C62 C 0.7723 0.75956 0.99604 0.0
O63 O 0.75427 0.8227 0.08618 0.0
O64 O 0.7574 0.84956 0.03319 0.0
C65 C 0.74807 0.8409 0.92678 0.0
Fe66 Fe 0.71718 0.33592 0.50303 0.0
Fe67 Fe 0.737 0.29496 0.55631 0.0
O68 O 0.72999 0.30869 0.50287 0.0
Fe69 Fe 0.73585 0.29499 0.44901 0.0
O70 O 0.74083 0.32114 0.41588 0.0
O71 O 0.74012 0.34813 0.46871 0.0
O72 O 0.73234 0.34587 0.55544 0.0
C73 C 0.74978 0.33852 0.57657 0.0
C74 C 0.69399 0.31236 0.43015 0.0
O75 O 0.75553 0.31793 0.57404 0.0
C76 C 0.72104 0.25878 0.50669 0.0
O77 O 0.69329 0.32593 0.53749 0.0
O78 O 0.71333 0.30693 0.58931 0.0
O79 O 0.70619 0.29482 0.43298 0.0
O80 O 0.69973 0.33064 0.45053 0.0
C81 C 0.77437 0.28499 0.49752 0.0
O82 O 0.71878 0.27095 0.54271 0.0
O83 O 0.7319 0.26611 0.47163 0.0
C84 C 0.6949 0.31605 0.5766 0.0
O85 O 0.76219 0.28057 0.53292 0.0
O86 O 0.76594 0.29441 0.46179 0.0
C87 C 0.7461 0.34094 0.42901 0.0
C88 C 0.1879 0.53989 0.83186 0.0
C89 C 0.20322 0.55819 0.83276 0.0
C90 C 0.18215 0.52852 0.87335 0.0
C91 C 0.19157 0.5353 0.91649 0.0
C92 C 0.20683 0.55362 0.91714 0.0
C93 C 0.21241 0.565 0.87601 0.0
C94 C 0.1863 0.52314 0.96086 0.0
C95 C 0.18546 0.49935 0.96235 0.0
C96 C 0.18344 0.48777 0.00534 0.0
C97 C 0.18246 0.50041 0.04725 0.0
C98 C 0.18347 0.52424 0.04633 0.0
C99 C 0.18443 0.53535 0.00285 0.0
C100 C 0.18581 0.53767 0.09027 0.0
C101 C 0.17349 0.53227 0.13097 0.0
C102 C 0.20103 0.55605 0.0917 0.0
C103 C 0.20348 0.56903 0.13214 0.0
C104 C 0.19101 0.56388 0.17257 0.0
C105 C 0.18454 0.46254 0.00636 0.0
C106 C 0.17371 0.44953 0.97155 0.0
C107 C 0.19758 0.45132 0.04055 0.0
C108 C 0.20024 0.42778 0.03919 0.0
C109 C 0.1901 0.41485 0.0034 0.0
C110 C 0.17648 0.42597 0.97003 0.0
C111 C 0.17613 0.54523 0.17186 0.0
H112 H 0.18059 0.53416 0.79908 0.0
H113 H 0.17028 0.51451 0.87169 0.0
H114 H 0.2148 0.55906 0.94948 0.0
H115 H 0.22391 0.57929 0.87828 0.0
H116 H 0.18776 0.48979 0.93027 0.0
H117 H 0.18448 0.55374 0.00179 0.0
H118 H 0.18172 0.49168 0.08063 0.0
H119 H 0.16162 0.51824 0.13103 0.0
H120 H 0.21137 0.5603 0.06163 0.0
H121 H 0.2155 0.58294 0.13199 0.0
H122 H 0.16333 0.45761 0.94499 0.0
H123 H 0.2064 0.46076 0.06757 0.0
H124 H 0.16632 0.5409 0.20263 0.0
H125 H 0.16852 0.41658 0.94183 0.0
H126 H 0.21051 0.41974 0.06598 0.0
C127 C 0.936 0.80264 0.33852 0.0
C128 C 0.91729 0.81727 0.33419 0.0
C129 C 0.94918 0.80259 0.37926 0.0
C130 C 0.94414 0.81734 0.41658 0.0
C131 C 0.92588 0.83249 0.41164 0.0
C132 C 0.91257 0.83239 0.37105 0.0
C133 C 0.95716 0.81599 0.46129 0.0
C134 C 0.98056 0.81154 0.46097 0.0
C135 C 0.99254 0.80773 0.50294 0.0
C136 C 0.98091 0.80942 0.54576 0.0
C137 C 0.95769 0.81453 0.54693 0.0
C138 C 0.94593 0.81766 0.50456 0.0
C139 C 0.94541 0.81545 0.59228 0.0
C140 C 0.9494 0.79901 0.62708 0.0
C141 C 0.92918 0.83242 0.6006 0.0
C142 C 0.91688 0.83267 0.64238 0.0
C143 C 0.92051 0.81592 0.67673 0.0
C144 C 0.01678 0.80062 0.50204 0.0
C145 C 0.02479 0.78622 0.46634 0.0
C146 C 0.03184 0.80718 0.53794 0.0
C147 C 0.05404 0.79894 0.53895 0.0
C148 C 0.06178 0.78441 0.50353 0.0
C149 C 0.04711 0.77839 0.46686 0.0
C150 C 0.9371 0.79925 0.66883 0.0
H151 H 0.94038 0.79102 0.31059 0.0
H152 H 0.96293 0.79049 0.38194 0.0
H153 H 0.92168 0.84429 0.43939 0.0
H154 H 0.89817 0.84376 0.36921 0.0
H155 H 0.98944 0.81092 0.42782 0.0
H156 H 0.92778 0.82036 0.50532 0.0
H157 H 0.9898 0.80631 0.57839 0.0
H158 H 0.96164 0.78558 0.62158 0.0
H159 H 0.92588 0.84544 0.57464 0.0
H160 H 0.90404 0.8456 0.64715 0.0
H161 H 0.01366 0.78036 0.43864 0.0
H162 H 0.0265 0.81861 0.56548 0.0
H163 H 0.94044 0.78624 0.69478 0.0
H164 H 0.05272 0.76703 0.43939 0.0
H165 H 0.06521 0.80395 0.56732 0.0
C166 C 0.79006 0.46395 0.16599 0.0
C167 C 0.80447 0.44556 0.17643 0.0
C168 C 0.79304 0.47664 0.1251 0.0
C169 C 0.81025 0.47108 0.09324 0.0
C170 C 0.82502 0.45314 0.10391 0.0
C171 C 0.82233 0.44067 0.14529 0.0
C172 C 0.81164 0.4831 0.04769 0.0
C173 C 0.81105 0.50692 0.04602 0.0
C174 C 0.80971 0.51847 0.00287 0.0
C175 C 0.8088 0.50573 0.96122 0.0
C176 C 0.80977 0.48195 0.96246 0.0
C177 C 0.81153 0.47072 0.00566 0.0
C178 C 0.80683 0.46873 0.91895 0.0
C179 C 0.78623 0.46974 0.89456 0.0
C180 C 0.82415 0.45459 0.90244 0.0
C181 C 0.82093 0.44169 0.86176 0.0
C182 C 0.8001 0.44227 0.83745 0.0
C183 C 0.80841 0.54371 0.00141 0.0
C184 C 0.79593 0.55566 0.03534 0.0
C185 C 0.81942 0.55609 0.96587 0.0
C186 C 0.81789 0.57977 0.96425 0.0
C187 C 0.80552 0.59162 0.99837 0.0
C188 C 0.7946 0.57931 0.03396 0.0
C189 C 0.78279 0.45649 0.85462 0.0
H190 H 0.77585 0.46805 0.18835 0.0
H191 H 0.78123 0.49023 0.11739 0.0
H192 H 0.83854 0.44866 0.08002 0.0
H193 H 0.83409 0.427 0.15246 0.0
H194 H 0.81161 0.5164 0.07854 0.0
H195 H 0.81144 0.45232 0.00661 0.0
H196 H 0.80684 0.51422 0.92773 0.0
H197 H 0.77256 0.48037 0.90717 0.0
H198 H 0.84021 0.45366 0.92084 0.0
H199 H 0.83485 0.43135 0.84941 0.0
H200 H 0.78681 0.54673 0.06261 0.0
H201 H 0.82943 0.54749 0.93955 0.0
H202 H 0.7663 0.45707 0.83797 0.0
H203 H 0.78462 0.58797 0.06028 0.0
H204 H 0.82663 0.58885 0.93664 0.0
C205 C 0.05573 0.18349 0.66433 0.0
C206 C 0.07649 0.19508 0.66801 0.0
C207 C 0.04289 0.1849 0.62299 0.0
C208 C 0.05066 0.19793 0.58493 0.0
C209 C 0.07081 0.21039 0.58982 0.0
C210 C 0.08356 0.20898 0.63079 0.0
C211 C 0.03863 0.19795 0.53925 0.0
C212 C 0.01514 0.20145 0.53656 0.0
C213 C 0.00422 0.20322 0.49269 0.0
C214 C 0.01709 0.20077 0.45147 0.0
C215 C 0.04059 0.19756 0.45387 0.0
C216 C 0.05114 0.19587 0.49773 0.0
C217 C 0.05462 0.1979 0.41099 0.0
C218 C 0.04984 0.18356 0.37296 0.0
C219 C 0.07327 0.21261 0.40846 0.0
C220 C 0.0872 0.21271 0.36912 0.0
C221 C 0.08303 0.19785 0.33152 0.0
C222 C 0.9799 0.20967 0.48995 0.0
C223 C 0.9641 0.201 0.52214 0.0
C224 C 0.97252 0.22552 0.45633 0.0
C225 C 0.95003 0.23279 0.45536 0.0
C226 C 0.93435 0.22458 0.48827 0.0
C227 C 0.94159 0.2084 0.52138 0.0
C228 C 0.06401 0.18343 0.33363 0.0
H229 H 0.0499 0.1727 0.69259 0.0
H230 H 0.02737 0.17517 0.62012 0.0
H231 H 0.07692 0.22105 0.56157 0.0
H232 H 0.0992 0.21856 0.63312 0.0
H233 H 0.00564 0.20407 0.56857 0.0
H234 H 0.0693 0.19317 0.49948 0.0
H235 H 0.00901 0.2022 0.41744 0.0
H236 H 0.03553 0.17205 0.37422 0.0
H237 H 0.07704 0.22416 0.437 0.0
H238 H 0.10127 0.22451 0.36824 0.0
H239 H 0.96916 0.18861 0.54821 0.0
H240 H 0.98425 0.23285 0.43142 0.0
H241 H 0.06037 0.17165 0.30548 0.0
H242 H 0.93001 0.20185 0.5475 0.0
H243 H 0.94497 0.24498 0.42891 0.0
C244 C 0.67706 0.95948 0.66745 0.0
C245 C 0.69518 0.94401 0.66937 0.0
C246 C 0.67278 0.97186 0.62635 0.0
C247 C 0.68629 0.96858 0.58641 0.0
C248 C 0.70421 0.9529 0.58842 0.0
C249 C 0.70862 0.94081 0.62938 0.0
C250 C 0.68239 0.98157 0.5426 0.0
C251 C 0.68093 0.00535 0.54328 0.0
C252 C 0.68087 0.01785 0.50116 0.0
C253 C 0.6819 0.0061 0.45816 0.0
C254 C 0.68358 0.98232 0.45703 0.0
C255 C 0.68306 0.97025 0.49943 0.0
C256 C 0.68865 0.97019 0.4125 0.0
C257 C 0.67842 0.97645 0.36979 0.0
C258 C 0.70472 0.95258 0.41245 0.0
C259 C 0.71038 0.94146 0.37108 0.0
C260 C 0.70045 0.94782 0.32823 0.0
C261 C 0.68233 0.0431 0.50223 0.0
C262 C 0.67038 0.05584 0.53577 0.0
C263 C 0.69668 0.05459 0.4709 0.0
C264 C 0.69924 0.07809 0.47332 0.0
C265 C 0.68779 0.0908 0.50757 0.0
C266 C 0.67309 0.07943 0.53844 0.0
C267 C 0.68424 0.96534 0.32804 0.0
H268 H 0.66652 0.9623 0.69792 0.0
H269 H 0.65887 0.98385 0.62564 0.0
H270 H 0.7151 0.95023 0.5584 0.0
H271 H 0.72256 0.92884 0.62972 0.0
H272 H 0.68144 0.01413 0.57664 0.0
H273 H 0.68405 0.95187 0.49904 0.0
H274 H 0.68246 0.01553 0.42559 0.0
H275 H 0.66591 0.98988 0.36863 0.0
H276 H 0.71334 0.94756 0.44437 0.0
H277 H 0.72257 0.92775 0.37286 0.0
H278 H 0.65904 0.04757 0.56021 0.0
H279 H 0.7065 0.04541 0.44511 0.0
H280 H 0.67631 0.97071 0.2956 0.0
H281 H 0.66408 0.08866 0.5654 0.0
H282 H 0.71037 0.08628 0.44836 0.0
C283 C 0.55892 0.30474 0.1665 0.0
C284 C 0.57689 0.32017 0.17247 0.0
C285 C 0.54623 0.30454 0.12515 0.0
C286 C 0.55084 0.32005 0.08886 0.0
C287 C 0.56823 0.33607 0.09555 0.0
C288 C 0.58118 0.33603 0.13666 0.0
C289 C 0.53826 0.31873 0.04355 0.0
C290 C 0.51532 0.31232 0.0426 0.0
C291 C 0.50393 0.30872 -6e-05 0.0
C292 C 0.51546 0.31267 0.95765 0.0
C293 C 0.53821 0.31969 0.95777 0.0
C294 C 0.5495 0.3225 0.00083 0.0
C295 C 0.5507 0.3229 0.91309 0.0
C296 C 0.54853 0.30711 0.87642 0.0
C297 C 0.56573 0.34123 0.90769 0.0
C298 C 0.57894 0.34323 0.86734 0.0
C299 C 0.57744 0.32694 0.83146 0.0
C300 C 0.4804 0.29967 0.9997 0.0
C301 C 0.47397 0.28281 0.032 0.0
C302 C 0.46439 0.30727 0.96661 0.0
C303 C 0.44255 0.29806 0.96564 0.0
C304 C 0.43622 0.28121 0.99794 0.0
C305 C 0.45211 0.27377 0.03127 0.0
C306 C 0.56175 0.30911 0.83602 0.0
H307 H 0.55478 0.29255 0.19358 0.0
H308 H 0.5332 0.29173 0.12125 0.0
H309 H 0.57207 0.34853 0.06879 0.0
H310 H 0.595 0.34805 0.13964 0.0
H311 H 0.50628 0.31002 0.07525 0.0
H312 H 0.56739 0.32664 0.00088 0.0
H313 H 0.50689 0.30985 0.92454 0.0
H314 H 0.53729 0.29266 0.87971 0.0
H315 H 0.56748 0.35389 0.93498 0.0
H316 H 0.5906 0.35737 0.86453 0.0
H317 H 0.48598 0.2762 0.05732 0.0
H318 H 0.46867 0.32043 0.94165 0.0
H319 H 0.5604 0.29613 0.8093 0.0
H320 H 0.44778 0.26057 0.05616 0.0
H321 H 0.43054 0.30429 0.93991 0.0
C322 C 0.29185 0.04012 0.32685 0.0
C323 C 0.30209 0.0615 0.3219 0.0
C324 C 0.29517 0.02734 0.36758 0.0
C325 C 0.30893 0.03562 0.40414 0.0
C326 C 0.31977 0.05669 0.39843 0.0
C327 C 0.31634 0.06951 0.35781 0.0
C328 C 0.31108 0.02278 0.44884 0.0
C329 C 0.31254 0.999 0.4486 0.0
C330 C 0.31284 0.98664 0.49069 0.0
C331 C 0.31225 0.99835 0.53358 0.0
C332 C 0.31078 0.02218 0.53461 0.0
C333 C 0.31029 0.03421 0.49203 0.0
C334 C 0.30798 0.03453 0.57972 0.0
C335 C 0.29332 0.02613 0.61442 0.0
C336 C 0.31878 0.05552 0.5872 0.0
C337 C 0.31438 0.06818 0.62762 0.0
C338 C 0.29907 0.06015 0.66149 0.0
C339 C 0.31226 0.96147 0.48957 0.0
C340 C 0.29715 0.95025 0.45932 0.0
C341 C 0.32626 0.94852 0.51913 0.0
C342 C 0.32513 0.92479 0.51847 0.0
C343 C 0.30982 0.91354 0.4885 0.0
C344 C 0.29589 0.92661 0.45889 0.0
C345 C 0.28894 0.03878 0.65482 0.0
H346 H 0.28055 0.03363 0.30004 0.0
H347 H 0.28628 0.01135 0.37107 0.0
H348 H 0.33077 0.06337 0.42555 0.0
H349 H 0.32471 0.08581 0.35466 0.0
H350 H 0.31335 0.99002 0.4155 0.0
H351 H 0.30811 0.05247 0.49248 0.0
H352 H 0.31228 0.98886 0.56613 0.0
H353 H 0.28455 0.01015 0.60965 0.0
H354 H 0.33037 0.06235 0.56139 0.0
H355 H 0.32237 0.08463 0.63147 0.0
H356 H 0.28585 0.9598 0.43672 0.0
H357 H 0.3382 0.95673 0.54252 0.0
H358 H 0.27732 0.03194 0.68055 0.0
H359 H 0.28353 0.91861 0.43614 0.0
H360 H 0.33631 0.91527 0.54132 0.0
C361 C 0.43432 0.6835 0.84029 0.0
C362 C 0.41578 0.69843 0.83598 0.0
C363 C 0.44794 0.68379 0.88061 0.0
C364 C 0.44302 0.69877 0.91742 0.0
C365 C 0.42501 0.7141 0.91259 0.0
C366 C 0.41169 0.71409 0.8722 0.0
C367 C 0.45583 0.69799 0.96192 0.0
C368 C 0.47924 0.70208 0.96288 0.0
C369 C 0.49087 0.7036 0.00594 0.0
C370 C 0.47886 0.70007 0.0479 0.0
C371 C 0.45542 0.69617 0.04728 0.0
C372 C 0.44408 0.69501 0.00411 0.0
C373 C 0.44241 0.69535 0.09163 0.0
C374 C 0.45007 0.68255 0.13015 0.0
C375 C 0.42239 0.70804 0.09591 0.0
C376 C 0.41026 0.70799 0.13774 0.0
C377 C 0.41785 0.69525 0.17634 0.0
C378 C 0.51497 0.71097 0.00743 0.0
C379 C 0.53061 0.7033 0.97392 0.0
C380 C 0.52225 0.72659 0.04157 0.0
C381 C 0.54454 0.73444 0.04207 0.0
C382 C 0.56011 0.72709 0.00814 0.0
C383 C 0.55294 0.71129 0.97423 0.0
C384 C 0.4378 0.68239 0.1721 0.0
H385 H 0.43791 0.67112 0.81328 0.0
H386 H 0.46178 0.6718 0.88377 0.0
H387 H 0.42115 0.72604 0.94032 0.0
H388 H 0.39804 0.72631 0.86962 0.0
H389 H 0.48803 0.70541 0.93028 0.0
H390 H 0.42594 0.69206 0.00325 0.0
H391 H 0.48759 0.70127 0.08127 0.0
H392 H 0.46543 0.67256 0.12771 0.0
H393 H 0.41623 0.71831 0.06706 0.0
H394 H 0.39477 0.71781 0.13969 0.0
H395 H 0.5256 0.69116 0.94733 0.0
H396 H 0.5106 0.73321 0.06744 0.0
H397 H 0.44405 0.67244 0.20135 0.0
H398 H 0.56443 0.70542 0.9473 0.0
H399 H 0.54955 0.74633 0.06911 0.0
H400 H 0.16152 0.16684 0.08075 0.0
H401 H 0.1908 0.22845 0.13676 0.0
H402 H 0.13266 0.16759 0.14213 0.0
H403 H 0.16204 0.22904 0.19793 0.0
H404 H 0.12918 0.20167 0.3333 0.0
H405 H 0.15516 0.20244 0.26735 0.0
H406 H 0.09925 0.19235 0.17182 0.0
H407 H 0.07286 0.19237 0.23791 0.0
C408 C 0.16171 0.18062 0.10588 0.0
C409 C 0.17859 0.19747 0.10413 0.0
C410 C 0.14512 0.18109 0.1408 0.0
C411 C 0.14528 0.19826 0.17489 0.0
C412 C 0.16172 0.21546 0.17233 0.0
C413 C 0.17811 0.21516 0.13716 0.0
C414 C 0.12227 0.19998 0.29828 0.0
C415 C 0.09884 0.19726 0.29098 0.0
C416 C 0.13721 0.20034 0.26052 0.0
C417 C 0.12916 0.19768 0.21454 0.0
C418 C 0.10586 0.19439 0.20702 0.0
C419 C 0.0908 0.1943 0.24488 0.0
H420 H 0.24865 0.66906 0.67033 0.0
H421 H 0.23146 0.62226 0.55903 0.0
H422 H 0.2365 0.64123 0.72821 0.0
H423 H 0.21883 0.59446 0.61773 0.0
H424 H 0.17609 0.57019 0.75808 0.0
H425 H 0.18634 0.59446 0.69146 0.0
H426 H 0.25483 0.59894 0.74376 0.0
H427 H 0.2451 0.57408 0.80889 0.0
C428 C 0.24201 0.65296 0.65814 0.0
C429 C 0.24115 0.6478 0.61008 0.0
C430 C 0.23516 0.63703 0.69133 0.0
C431 C 0.22692 0.61577 0.67721 0.0
C432 C 0.22515 0.61081 0.62924 0.0
C433 C 0.23243 0.62665 0.59585 0.0
C434 C 0.19346 0.57589 0.75474 0.0
C435 C 0.20967 0.57054 0.78932 0.0
C436 C 0.19925 0.5898 0.71675 0.0
C437 C 0.22124 0.5987 0.71316 0.0
C438 C 0.23767 0.5925 0.74632 0.0
C439 C 0.23202 0.5784 0.78372 0.0
H440 H 0.83567 0.84205 0.08288 0.0
H441 H 0.80963 0.7799 0.1427 0.0
H442 H 0.86559 0.84278 0.1418 0.0
H443 H 0.839 0.78106 0.20261 0.0
H444 H 0.90388 0.77945 0.2855 0.0
H445 H 0.87827 0.77734 0.2188 0.0
H446 H 0.8696 0.85016 0.22325 0.0
H447 H 0.89637 0.85243 0.28802 0.0
C448 C 0.83634 0.82852 0.10859 0.0
C449 C 0.82017 0.81099 0.10825 0.0
C450 C 0.85342 0.82902 0.14259 0.0
C451 C 0.85463 0.8121 0.17732 0.0
C452 C 0.83881 0.79423 0.17613 0.0
C453 C 0.82185 0.79362 0.14185 0.0
C454 C 0.89691 0.79509 0.27168 0.0
C455 C 0.90223 0.81612 0.29229 0.0
C456 C 0.88193 0.79383 0.23377 0.0
C457 C 0.87171 0.81355 0.21571 0.0
C458 C 0.87732 0.83463 0.23582 0.0
C459 C 0.89244 0.8359 0.27349 0.0
H460 H 0.7682 0.32692 0.66079 0.0
H461 H 0.75704 0.38398 0.56877 0.0
H462 H 0.78248 0.35228 0.72111 0.0
H463 H 0.77297 0.40942 0.62753 0.0
H464 H 0.77363 0.45162 0.76023 0.0
H465 H 0.76379 0.42663 0.69634 0.0
H466 H 0.80963 0.37578 0.75124 0.0
H467 H 0.81746 0.39983 0.81816 0.0
C468 C 0.76942 0.34489 0.65307 0.0
C469 C 0.76139 0.35354 0.61032 0.0
C470 C 0.77776 0.35952 0.68762 0.0
C471 C 0.77881 0.38313 0.67977 0.0
C472 C 0.77186 0.39152 0.63572 0.0
C473 C 0.76293 0.37693 0.60171 0.0
C474 C 0.78137 0.43497 0.75931 0.0
C475 C 0.79608 0.42776 0.79525 0.0
C476 C 0.77607 0.4207 0.72177 0.0
C477 C 0.78579 0.39895 0.7182 0.0
C478 C 0.80133 0.39214 0.75301 0.0
C479 C 0.8062 0.40621 0.79122 0.0
H480 H 0.66 0.3438 0.42334 0.0
H481 H 0.68429 0.28139 0.36185 0.0
H482 H 0.62959 0.34529 0.36535 0.0
H483 H 0.65469 0.28337 0.30287 0.0
H484 H 0.59058 0.28222 0.22056 0.0
H485 H 0.61592 0.27995 0.28736 0.0
H486 H 0.62398 0.35289 0.28488 0.0
H487 H 0.59711 0.35534 0.22034 0.0
C488 C 0.65883 0.3304 0.39746 0.0
C489 C 0.67459 0.31251 0.39716 0.0
C490 C 0.6415 0.33133 0.36399 0.0
C491 C 0.63968 0.31452 0.32913 0.0
C492 C 0.65523 0.29642 0.32955 0.0
C493 C 0.67235 0.29534 0.36331 0.0
C494 C 0.59725 0.29788 0.23488 0.0
C495 C 0.59174 0.31898 0.21476 0.0
C496 C 0.61215 0.29652 0.27286 0.0
C497 C 0.62227 0.3162 0.29136 0.0
C498 C 0.6164 0.33736 0.27195 0.0
C499 C 0.60123 0.33875 0.23432 0.0
H500 H 0.28041 0.17296 0.85377 0.0
H501 H 0.23496 0.12115 0.90543 0.0
H502 H 0.29436 0.14664 0.79446 0.0
H503 H 0.24922 0.09481 0.84692 0.0
H504 H 0.25688 0.0664 0.69834 0.0
H505 H 0.24586 0.09096 0.76276 0.0
H506 H 0.3156 0.11154 0.78111 0.0
H507 H 0.3267 0.08681 0.71631 0.0
C508 C 0.27359 0.1559 0.85288 0.0
C509 C 0.25636 0.14928 0.88405 0.0
C510 C 0.28167 0.14076 0.81901 0.0
C511 C 0.27274 0.11868 0.81563 0.0
C512 C 0.25614 0.11184 0.84794 0.0
C513 C 0.24804 0.12694 0.88168 0.0
C514 C 0.26996 0.07585 0.71655 0.0
C515 C 0.2927 0.07453 0.70225 0.0
C516 C 0.26363 0.08997 0.75354 0.0
C517 C 0.27986 0.10317 0.77726 0.0
C518 C 0.30265 0.10178 0.76323 0.0
C519 C 0.309 0.08761 0.72613 0.0
H520 H 0.34168 0.67 0.43618 0.0
H521 H 0.30308 0.71577 0.34841 0.0
H522 H 0.37308 0.67165 0.38024 0.0
H523 H 0.33414 0.7172 0.29288 0.0
H524 H 0.39936 0.73171 0.22072 0.0
H525 H 0.37329 0.73147 0.28685 0.0
H526 H 0.38006 0.65864 0.2975 0.0
H527 H 0.40624 0.65888 0.23113 0.0
C528 C 0.33993 0.68047 0.40516 0.0
C529 C 0.31984 0.69266 0.3966 0.0
C530 C 0.35785 0.68134 0.37312 0.0
C531 C 0.35608 0.69462 0.33233 0.0
C532 C 0.33615 0.70707 0.32432 0.0
C533 C 0.31825 0.70608 0.356 0.0
C534 C 0.39539 0.71566 0.23738 0.0
C535 C 0.40453 0.69527 0.22032 0.0
C536 C 0.3805 0.71553 0.27523 0.0
C537 C 0.3744 0.695 0.29688 0.0
C538 C 0.38455 0.67473 0.28164 0.0
C539 C 0.39951 0.67486 0.24365 0.0
H540 H 0.75701 0.88611 0.91898 0.0
H541 H 0.71357 0.83339 0.86363 0.0
H542 H 0.74167 0.91279 0.86216 0.0
H543 H 0.69842 0.8602 0.80607 0.0
H544 H 0.66628 0.91983 0.72563 0.0
H545 H 0.6764 0.89613 0.79336 0.0
H546 H 0.74655 0.9156 0.77717 0.0
H547 H 0.73641 0.93934 0.71055 0.0
C548 C 0.74408 0.88021 0.89486 0.0
C549 C 0.7368 0.85749 0.89536 0.0
C550 C 0.73532 0.89553 0.86223 0.0
C551 C 0.71907 0.88853 0.82924 0.0
C552 C 0.71086 0.86613 0.83122 0.0
C553 C 0.71964 0.85074 0.86401 0.0
C554 C 0.68377 0.91926 0.73719 0.0
C555 C 0.7006 0.93129 0.7128 0.0
C556 C 0.68958 0.90558 0.7756 0.0
C557 C 0.71226 0.904 0.79057 0.0
C558 C 0.72889 0.91664 0.76692 0.0
C559 C 0.72313 0.93009 0.72849 0.0
H560 H 0.80519 0.7901 0.84819 0.0
H561 H 0.84274 0.83681 0.93572 0.0
H562 H 0.836 0.78987 0.79198 0.0
H563 H 0.8739 0.83634 0.87916 0.0
H564 H 0.90672 0.85138 0.73201 0.0
H565 H 0.87993 0.85014 0.79716 0.0
H566 H 0.8754 0.77727 0.78332 0.0
H567 H 0.90152 0.77855 0.71743 0.0
C568 C 0.82011 0.80022 0.85563 0.0
C569 C 0.82143 0.8136 0.89631 0.0
C570 C 0.83787 0.79992 0.82354 0.0
C571 C 0.85739 0.81305 0.83118 0.0
C572 C 0.85896 0.82618 0.87222 0.0
C573 C 0.84119 0.82635 0.90466 0.0
C574 C 0.90004 0.8351 0.74301 0.0
C575 C 0.90611 0.81509 0.71932 0.0
C576 C 0.88491 0.83437 0.78064 0.0
C577 C 0.87547 0.81362 0.79515 0.0
C578 C 0.8822 0.79354 0.77258 0.0
C579 C 0.89735 0.79426 0.73511 0.0
H580 H 0.7501 0.33479 0.33498 0.0
H581 H 0.76659 0.38216 0.44548 0.0
H582 H 0.76639 0.36019 0.27765 0.0
H583 H 0.78401 0.40746 0.38781 0.0
H584 H 0.78761 0.45764 0.26302 0.0
H585 H 0.77518 0.43257 0.32562 0.0
H586 H 0.80006 0.37477 0.248 0.0
H587 H 0.8106 0.39948 0.18386 0.0
C588 C 0.75754 0.35053 0.34719 0.0
C589 C 0.75701 0.35644 0.39489 0.0
C590 C 0.7671 0.3651 0.31419 0.0
C591 C 0.77678 0.38588 0.32791 0.0
C592 C 0.77651 0.39172 0.37581 0.0
C593 C 0.76662 0.37719 0.40893 0.0
C594 C 0.79027 0.43956 0.25905 0.0
C595 C 0.79982 0.43068 0.21774 0.0
C596 C 0.78345 0.42517 0.29544 0.0
C597 C 0.78628 0.40153 0.29178 0.0
C598 C 0.79704 0.39281 0.25169 0.0
C599 C 0.80351 0.40712 0.21504 0.0
H600 H 0.18975 0.21834 0.84408 0.0
H601 H 0.15234 0.17121 0.93072 0.0
H602 H 0.15963 0.21751 0.78616 0.0
H603 H 0.12193 0.17036 0.87174 0.0
H604 H 0.06559 0.19678 0.76176 0.0
H605 H 0.09214 0.19608 0.82842 0.0
H606 H 0.14773 0.18575 0.7326 0.0
H607 H 0.12151 0.1864 0.66679 0.0
C608 C 0.17503 0.20785 0.85092 0.0
C609 C 0.17365 0.19451 0.89164 0.0
C610 C 0.15779 0.20736 0.81761 0.0
C611 C 0.13869 0.19351 0.82405 0.0
C612 C 0.13655 0.18111 0.86592 0.0
C613 C 0.15395 0.18158 0.89954 0.0
C614 C 0.08346 0.19404 0.75526 0.0
C615 C 0.0916 0.19213 0.70913 0.0
C616 C 0.09859 0.19364 0.79327 0.0
C617 C 0.122 0.19135 0.78546 0.0
C618 C 0.12984 0.18814 0.73952 0.0
C619 C 0.11484 0.18852 0.70186 0.0
H620 H 0.2583 0.62115 0.40982 0.0
H621 H 0.20763 0.67206 0.37903 0.0
H622 H 0.24103 0.5959 0.35233 0.0
H623 H 0.19018 0.64661 0.32212 0.0
H624 H 0.19155 0.60997 0.17798 0.0
H625 H 0.20182 0.63332 0.24506 0.0
H626 H 0.20759 0.57312 0.3309 0.0
H627 H 0.19775 0.54962 0.26299 0.0
C628 C 0.2433 0.62685 0.3913 0.0
C629 C 0.23458 0.64878 0.39856 0.0
C630 C 0.23329 0.61229 0.35858 0.0
C631 C 0.21433 0.61931 0.3324 0.0
C632 C 0.20499 0.64084 0.34122 0.0
C633 C 0.21498 0.6554 0.37394 0.0
C634 C 0.19481 0.60174 0.21129 0.0
C635 C 0.19409 0.57798 0.21517 0.0
C636 C 0.20049 0.61513 0.24988 0.0
C637 C 0.20563 0.60507 0.29331 0.0
C638 C 0.20395 0.58134 0.29776 0.0
C639 C 0.19813 0.56791 0.25906 0.0
H640 H 0.33477 0.66397 0.58868 0.0
H641 H 0.31085 0.72948 0.63572 0.0
H642 H 0.36422 0.6647 0.64942 0.0
H643 H 0.34001 0.72996 0.69616 0.0
H644 H 0.36979 0.70378 0.83577 0.0
H645 H 0.34415 0.70383 0.76908 0.0
H646 H 0.39994 0.68923 0.67643 0.0
H647 H 0.42612 0.6901 0.74325 0.0
C648 C 0.33591 0.67859 0.61158 0.0
C649 C 0.32029 0.69655 0.60766 0.0
C650 C 0.35281 0.67902 0.64613 0.0
C651 C 0.35417 0.69728 0.67762 0.0
C652 C 0.33913 0.71557 0.67259 0.0
C653 C 0.32248 0.71529 0.63784 0.0
C654 C 0.37679 0.70097 0.80121 0.0
C655 C 0.40016 0.69733 0.79495 0.0
C656 C 0.36203 0.70088 0.76305 0.0
C657 C 0.37014 0.69678 0.71767 0.0
C658 C 0.39331 0.69242 0.71119 0.0
C659 C 0.40824 0.69283 0.74947 0.0
H660 H 0.74722 0.83799 0.16707 0.0
H661 H 0.73217 0.88485 0.05444 0.0
H662 H 0.73426 0.86587 0.22394 0.0
H663 H 0.71866 0.91271 0.11221 0.0
H664 H 0.67334 0.93455 0.25438 0.0
H665 H 0.68423 0.91082 0.18741 0.0
H666 H 0.75324 0.90974 0.2373 0.0
H667 H 0.74286 0.93411 0.30273 0.0
C668 C 0.74087 0.85412 0.15434 0.0
C669 C 0.74084 0.85926 0.1062 0.0
C670 C 0.73353 0.87006 0.18697 0.0
C671 C 0.72561 0.89133 0.17223 0.0
C672 C 0.72471 0.89633 0.12416 0.0
C673 C 0.73249 0.88046 0.09132 0.0
C674 C 0.69094 0.92975 0.2504 0.0
C675 C 0.70714 0.93589 0.28445 0.0
C676 C 0.6971 0.91615 0.2122 0.0
C677 C 0.71947 0.90838 0.20782 0.0
C678 C 0.73584 0.9154 0.24039 0.0
C679 C 0.7298 0.92918 0.278 0.0
H680 H 0.65314 0.33649 0.56646 0.0
H681 H 0.69402 0.29818 0.66458 0.0
H682 H 0.6236 0.34035 0.62625 0.0
H683 H 0.6647 0.30197 0.72343 0.0
H684 H 0.62267 0.33603 0.83406 0.0
H685 H 0.64974 0.33421 0.77004 0.0
H686 H 0.5959 0.31639 0.6741 0.0
H687 H 0.56849 0.31876 0.73834 0.0
C688 C 0.65578 0.32878 0.60052 0.0
C689 C 0.67607 0.31723 0.61082 0.0
C690 C 0.63886 0.33095 0.63464 0.0
C691 C 0.64202 0.32174 0.67967 0.0
C692 C 0.66199 0.30966 0.68936 0.0
C693 C 0.67876 0.30739 0.65542 0.0
C694 C 0.61648 0.33215 0.7992 0.0
C695 C 0.59342 0.32751 0.79132 0.0
C696 C 0.63204 0.33085 0.76261 0.0
C697 C 0.62496 0.32491 0.7172 0.0
C698 C 0.60181 0.32105 0.70876 0.0
C699 C 0.58618 0.32222 0.74556 0.0
H700 H 0.2418 0.11722 0.06869 0.0
H701 H 0.27856 0.1734 0.12945 0.0
H702 H 0.25724 0.09196 0.12885 0.0
H703 H 0.29466 0.14819 0.18817 0.0
H704 H 0.29147 0.1064 0.3221 0.0
H705 H 0.28056 0.13005 0.2561 0.0
H706 H 0.28966 0.07314 0.16238 0.0
H707 H 0.30017 0.04926 0.22918 0.0
C708 C 0.25354 0.12404 0.0943 0.0
C709 C 0.2587 0.14732 0.0949 0.0
C710 C 0.26247 0.10958 0.12869 0.0
C711 C 0.27691 0.11811 0.1639 0.0
C712 C 0.28309 0.14115 0.16248 0.0
C713 C 0.27396 0.15559 0.12864 0.0
C714 C 0.29147 0.09902 0.28734 0.0
C715 C 0.29678 0.07601 0.2808 0.0
C716 C 0.28526 0.11259 0.24937 0.0
C717 C 0.28436 0.10357 0.20374 0.0
C718 C 0.28993 0.08058 0.19708 0.0
C719 C 0.296 0.06692 0.23527 0.0
H720 H 0.23542 0.27814 0.05808 0.0
H721 H 0.20065 0.27139 0.92518 0.0
H722 H 0.22588 0.3182 0.06015 0.0
H723 H 0.19119 0.31187 0.92736 0.0
H724 H 0.16029 0.38081 0.97945 0.0
H725 H 0.16798 0.34006 0.97454 0.0
H726 H 0.23754 0.35218 0.01467 0.0
H727 H 0.23009 0.39272 0.01876 0.0
C728 C 0.22572 0.28517 0.02924 0.0
C729 C 0.21897 0.27154 0.99123 0.0
C730 C 0.22034 0.3082 0.03039 0.0
C731 C 0.20798 0.31821 0.99373 0.0
C732 C 0.20069 0.30456 0.95619 0.0
C733 C 0.2062 0.28143 0.95485 0.0
C734 C 0.17727 0.37479 0.98678 0.0
C735 C 0.19451 0.39004 0.0 0.0
C736 C 0.18165 0.35147 0.98397 0.0
C737 C 0.2033 0.34295 0.9946 0.0
C738 C 0.22057 0.35821 0.00714 0.0
C739 C 0.21625 0.38145 0.00967 0.0
H740 H 0.19025 0.72179 0.43307 0.0
H741 H 0.19503 0.73256 0.58241 0.0
H742 H 0.15186 0.73682 0.43323 0.0
H743 H 0.15713 0.74894 0.58249 0.0
H744 H 0.081 0.7603 0.57444 0.0
H745 H 0.1184 0.74266 0.57583 0.0
H746 H 0.13224 0.77073 0.43855 0.0
H747 H 0.09431 0.78707 0.43652 0.0
C748 C 0.18305 0.7275 0.46593 0.0
C749 C 0.19557 0.72606 0.50769 0.0
C750 C 0.16111 0.73633 0.46603 0.0
C751 C 0.15136 0.74445 0.50777 0.0
C752 C 0.16385 0.74261 0.54974 0.0
C753 C 0.18564 0.73329 0.54976 0.0
C754 C 0.09217 0.76266 0.54475 0.0
C755 C 0.08491 0.77494 0.50536 0.0
C756 C 0.11364 0.75266 0.54553 0.0
C757 C 0.12845 0.75512 0.50722 0.0
C758 C 0.12119 0.76791 0.46823 0.0
C759 C 0.09956 0.77749 0.46712 0.0
H760 H 0.764 0.72771 0.0632 0.0
H761 H 0.79651 0.73664 0.9288 0.0
H762 H 0.77393 0.6878 0.06253 0.0
H763 H 0.8071 0.69653 0.92882 0.0
H764 H 0.79618 0.61842 0.92242 0.0
H765 H 0.79011 0.65943 0.92124 0.0
H766 H 0.80508 0.66242 0.06952 0.0
H767 H 0.81059 0.62143 0.07071 0.0
C768 C 0.77348 0.72122 0.03364 0.0
C769 C 0.77937 0.73541 0.99595 0.0
C770 C 0.77934 0.69829 0.03344 0.0
C771 C 0.79142 0.6889 0.99572 0.0
C772 C 0.79757 0.70314 0.95819 0.0
C773 C 0.7916 0.72615 0.95828 0.0
C774 C 0.79842 0.62793 0.95458 0.0
C775 C 0.80363 0.61672 0.99675 0.0
C776 C 0.79501 0.65144 0.95392 0.0
C777 C 0.79689 0.66424 0.99538 0.0
C778 C 0.80297 0.65305 0.03715 0.0
C779 C 0.80619 0.62957 0.03786 0.0
H780 H 0.79526 0.2567 0.56 0.0
H781 H 0.80689 0.29411 0.4318 0.0
H782 H 0.83383 0.24206 0.55695 0.0
H783 H 0.84551 0.27928 0.42881 0.0
H784 H 0.92018 0.26826 0.47379 0.0
H785 H 0.88157 0.28285 0.475 0.0
H786 H 0.85645 0.21571 0.50642 0.0
H787 H 0.89506 0.20091 0.50426 0.0
C788 C 0.80604 0.26184 0.53119 0.0
C789 C 0.79798 0.27656 0.49608 0.0
C790 C 0.82808 0.25331 0.52932 0.0
C791 C 0.84262 0.25946 0.49256 0.0
C792 C 0.8347 0.27437 0.45772 0.0
C793 C 0.81256 0.28277 0.45935 0.0
C794 C 0.90643 0.2565 0.48027 0.0
C795 C 0.91075 0.23337 0.48879 0.0
C796 C 0.88432 0.26491 0.48107 0.0
C797 C 0.86603 0.25042 0.49081 0.0
C798 C 0.87027 0.22731 0.49937 0.0
C799 C 0.89239 0.21886 0.49824 0.0
H800 H 0.73029 0.22632 0.44158 0.0
H801 H 0.69577 0.23648 0.57347 0.0
H802 H 0.72116 0.18614 0.44446 0.0
H803 H 0.68654 0.19589 0.57602 0.0
H804 H 0.65682 0.12452 0.52683 0.0
H805 H 0.66353 0.16556 0.52886 0.0
H806 H 0.73422 0.15431 0.49828 0.0
H807 H 0.72783 0.11354 0.49753 0.0
C808 C 0.72063 0.22004 0.47111 0.0
C809 C 0.71394 0.23464 0.50753 0.0
C810 C 0.7155 0.19697 0.4728 0.0
C811 C 0.70336 0.18788 0.51069 0.0
C812 C 0.69591 0.2025 0.54639 0.0
C813 C 0.70127 0.22568 0.54498 0.0
C814 C 0.67385 0.13079 0.52123 0.0
C815 C 0.69172 0.11571 0.51131 0.0
C816 C 0.67765 0.15427 0.52232 0.0
C817 C 0.69932 0.16308 0.51312 0.0
C818 C 0.71725 0.148 0.50457 0.0
C819 C 0.71353 0.12463 0.50392 0.0
H820 H 0.29791 0.24476 0.92779 0.0
H821 H 0.31099 0.20789 0.05611 0.0
H822 H 0.33633 0.25948 0.92906 0.0
H823 H 0.34983 0.22208 0.05653 0.0
H824 H 0.40789 0.27331 0.07166 0.0
H825 H 0.37 0.2568 0.06965 0.0
H826 H 0.37507 0.24934 0.91927 0.0
H827 H 0.41274 0.26636 0.92137 0.0
C828 C 0.30908 0.23954 0.956 0.0
C829 C 0.30132 0.22523 0.99201 0.0
C830 C 0.3312 0.24791 0.95657 0.0
C831 C 0.3462 0.24202 0.99294 0.0
C832 C 0.3386 0.22727 0.02841 0.0
C833 C 0.31638 0.21902 0.02803 0.0
C834 C 0.4009 0.26803 0.03825 0.0
C835 C 0.4132 0.27118 0.99665 0.0
C836 C 0.37924 0.25847 0.03708 0.0
C837 C 0.36947 0.25169 0.99431 0.0
C838 C 0.38191 0.2547 0.95274 0.0
C839 C 0.40349 0.26443 0.95389 0.0
H840 H 0.26273 0.77979 0.55978 0.0
H841 H 0.29825 0.76767 0.42985 0.0
H842 H 0.27421 0.81932 0.55769 0.0
H843 H 0.31044 0.80727 0.42855 0.0
H844 H 0.30285 0.88493 0.41401 0.0
H845 H 0.29523 0.84437 0.41608 0.0
H846 H 0.30557 0.84424 0.56613 0.0
H847 H 0.31177 0.88505 0.56444 0.0
C848 C 0.2732 0.7855 0.53095 0.0
C849 C 0.27945 0.77057 0.49482 0.0
C850 C 0.27996 0.8082 0.52996 0.0
C851 C 0.29333 0.81654 0.49303 0.0
C852 C 0.29989 0.80151 0.45721 0.0
C853 C 0.29298 0.77878 0.45802 0.0
C854 C 0.30338 0.87628 0.44751 0.0
C855 C 0.30765 0.88837 0.48913 0.0
C856 C 0.29932 0.85292 0.4486 0.0
C857 C 0.2996 0.841 0.49132 0.0
C858 C 0.3048 0.85293 0.53269 0.0
C859 C 0.30869 0.87632 0.53164 0.0
H860 H 0.6874 0.79624 0.06958 0.0
H861 H 0.69883 0.76133 0.93844 0.0
H862 H 0.64863 0.78158 0.0712 0.0
H863 H 0.66022 0.74688 0.94017 0.0
H864 H 0.59958 0.70421 0.98996 0.0
H865 H 0.63803 0.71943 0.98889 0.0
H866 H 0.61234 0.7857 0.02535 0.0
H867 H 0.57384 0.7707 0.02548 0.0
C868 C 0.68165 0.78554 0.04108 0.0
C869 C 0.69624 0.77991 0.00398 0.0
C870 C 0.65944 0.77722 0.04193 0.0
C871 C 0.65149 0.76299 0.00594 0.0
C872 C 0.666 0.75756 0.9687 0.0
C873 C 0.68808 0.76599 0.96761 0.0
C874 C 0.60208 0.72208 0.99727 0.0
C875 C 0.5836 0.73622 0.00782 0.0
C876 C 0.62411 0.73076 0.99678 0.0
C877 C 0.62815 0.75374 0.00709 0.0
C878 C 0.60974 0.76786 0.0179 0.0
C879 C 0.5877 0.75922 0.01806 0.0
loop_
_geom_bond_atom_site_label_1
_geom_bond_atom_site_label_2
_geom_bond_distance
_geom_bond_site_symmetry_2
_ccdc_geom_bond_type
Fe0 O2 1.937 . S
Fe0 O5 1.997 . S
Fe0 O6 2.002 . S
Fe0 O11 1.976 . S
Fe0 O14 1.996 . S
Fe1 O2 1.899 1_556 S
Fe1 O9 1.997 . S
Fe1 O12 1.996 . S
Fe1 O16 1.976 . S
Fe1 O19 2.002 . S
O2 Fe0 1.937 . S
O2 Fe1 1.899 1_554 S
O2 Fe3 1.918 . S
Fe3 O2 1.918 . S
Fe3 O4 2.010 . S
Fe3 O13 1.983 . S
Fe3 O17 1.988 1_554 S
Fe3 O20 1.989 1_554 S
O4 Fe3 2.010 . S
O4 C21 1.295 . S
O5 Fe0 1.997 . S
O5 C21 1.235 . S
O6 Fe0 2.002 . S
O6 C7 1.295 . S
C7 O6 1.295 . S
C7 O9 1.235 1_554 S
C8 O13 1.287 . S
C8 O14 1.255 . S
O9 Fe1 1.997 . S
O9 C7 1.235 1_556 S
C10 O16 1.287 . S
C10 O17 1.255 . S
O11 Fe0 1.976 . S
O11 C18 1.277 1_554 S
O12 Fe1 1.996 . S
O12 C18 1.264 . S
O13 Fe3 1.983 . S
O13 C8 1.287 . S
O14 Fe0 1.996 . S
O14 C8 1.255 . S
C15 O19 1.295 . S
C15 O20 1.235 . S
O16 Fe1 1.976 . S
O16 C10 1.287 . S
O17 Fe3 1.988 1_556 S
O17 C10 1.255 . S
C18 O11 1.277 1_556 S
C18 O12 1.264 . S
O19 Fe1 2.002 . S
O19 C15 1.295 . S
O20 Fe3 1.989 1_556 S
O20 C15 1.235 . S
C21 O4 1.295 . S
C21 O5 1.235 . S
Fe22 O24 1.918 . S
Fe22 O27 1.997 . S
Fe22 O28 2.002 . S
Fe22 O33 1.976 . S
Fe22 O36 1.996 . S
Fe23 O24 1.918 . S
Fe23 O31 1.997 . S
Fe23 O34 1.996 . S
Fe23 O38 1.976 . S
Fe23 O41 2.002 . S
O24 Fe22 1.918 . S
O24 Fe23 1.918 . S
O24 Fe25 1.918 . S
Fe25 O24 1.918 . S
Fe25 O26 2.002 . S
Fe25 O35 1.976 . S
Fe25 O39 1.996 . S
Fe25 O42 1.997 . S
O26 Fe25 2.002 . S
O26 C43 1.295 . S
O27 Fe22 1.997 . S
O27 C43 1.235 . S
O28 Fe22 2.002 . S
O28 C29 1.295 . S
C29 O28 1.295 . S
C29 O31 1.235 . S
C30 O35 1.287 . S
C30 O36 1.255 . S
O31 Fe23 1.997 . S
O31 C29 1.235 . S
C32 O38 1.287 . S
C32 O39 1.255 . S
O33 Fe22 1.976 . S
O33 C40 1.287 . S
O34 Fe23 1.996 . S
O34 C40 1.255 . S
O35 Fe25 1.976 . S
O35 C30 1.287 . S
O36 Fe22 1.996 . S
O36 C30 1.255 . S
C37 O41 1.295 . S
C37 O42 1.235 . S
O38 Fe23 1.976 . S
O38 C32 1.287 . S
O39 Fe25 1.996 . S
O39 C32 1.255 . S
C40 O33 1.287 . S
C40 O34 1.255 . S
O41 Fe23 2.002 . S
O41 C37 1.295 . S
O42 Fe25 1.997 . S
O42 C37 1.235 . S
C43 O26 1.295 . S
C43 O27 1.235 . S
Fe44 O46 1.905 1_556 S
Fe44 O49 1.997 . S
Fe44 O50 2.002 . S
Fe44 O55 1.976 . S
Fe44 O58 1.996 . S
Fe45 O46 1.931 . S
Fe45 O53 1.997 . S
Fe45 O56 1.996 . S
Fe45 O60 1.976 . S
Fe45 O63 2.002 . S
O46 Fe44 1.905 1_554 S
O46 Fe45 1.931 . S
O46 Fe47 1.918 . S
Fe47 O46 1.918 . S
Fe47 O48 2.002 1_554 S
Fe47 O57 1.976 1_554 S
Fe47 O61 1.996 . S
Fe47 O64 1.997 . S
O48 Fe47 2.002 1_556 S
O48 C65 1.295 . S
O49 Fe44 1.997 . S
O49 C65 1.235 . S
O50 Fe44 2.002 . S
O50 C51 1.309 . S
C51 O50 1.309 . S
C51 O53 1.222 1_556 S
C52 O57 1.287 . S
C52 O58 1.255 . S
O53 Fe45 1.997 . S
O53 C51 1.222 1_554 S
C54 O60 1.287 . S
C54 O61 1.255 . S
O55 Fe44 1.976 . S
O55 C62 1.287 1_556 S
O56 Fe45 1.996 . S
O56 C62 1.255 . S
O57 Fe47 1.976 1_556 S
O57 C52 1.287 . S
O58 Fe44 1.996 . S
O58 C52 1.255 . S
C59 O63 1.295 . S
C59 O64 1.235 . S
O60 Fe45 1.976 . S
O60 C54 1.287 . S
O61 Fe47 1.996 . S
O61 C54 1.255 . S
C62 O55 1.287 1_554 S
C62 O56 1.255 . S
O63 Fe45 2.002 . S
O63 C59 1.295 . S
O64 Fe47 1.997 . S
O64 C59 1.235 . S
C65 O48 1.295 . S
C65 O49 1.235 . S
Fe66 O68 1.918 . S
Fe66 O71 1.997 . S
Fe66 O72 2.002 . S
Fe66 O77 1.976 . S
Fe66 O80 1.996 . S
Fe67 O68 1.918 . S
Fe67 O75 1.997 . S
Fe67 O78 1.996 . S
Fe67 O82 1.976 . S
Fe67 O85 2.002 . S
O68 Fe66 1.918 . S
O68 Fe67 1.918 . S
O68 Fe69 1.918 . S
Fe69 O68 1.918 . S
Fe69 O70 2.002 . S
Fe69 O79 1.976 . S
Fe69 O83 1.996 . S
Fe69 O86 1.997 . S
O70 Fe69 2.002 . S
O70 C87 1.295 . S
O71 Fe66 1.997 . S
O71 C87 1.235 . S
O72 Fe66 2.002 . S
O72 C73 1.295 . S
C73 O72 1.295 . S
C73 O75 1.235 . S
C74 O79 1.287 . S
C74 O80 1.255 . S
O75 Fe67 1.997 . S
O75 C73 1.235 . S
C76 O82 1.287 . S
C76 O83 1.255 . S
O77 Fe66 1.976 . S
O77 C84 1.287 . S
O78 Fe67 1.996 . S
O78 C84 1.255 . S
O79 Fe69 1.976 . S
O79 C74 1.287 . S
O80 Fe66 1.996 . S
O80 C74 1.255 . S
C81 O85 1.295 . S
C81 O86 1.235 . S
O82 Fe67 1.976 . S
O82 C76 1.287 . S
O83 Fe69 1.996 . S
O83 C76 1.255 . S
C84 O77 1.287 . S
C84 O78 1.255 . S
O85 Fe67 2.002 . S
O85 C81 1.295 . S
O86 Fe69 1.997 . S
O86 C81 1.235 . S
C87 O70 1.295 . S
C87 O71 1.235 . S
C88 C89 1.386 . S
C88 C90 1.397 . S
C88 H112 0.931 . S
C89 C88 1.386 . S
C89 C93 1.397 . S
C90 C88 1.397 . S
C90 C91 1.384 . S
C90 H113 0.930 . S
C91 C90 1.384 . S
C91 C92 1.377 . S
C91 C94 1.481 . S
C92 C91 1.377 . S
C92 C93 1.389 . S
C92 H114 0.929 . S
C93 C89 1.397 . S
C93 C92 1.389 . S
C93 H115 0.931 . S
C94 C91 1.481 . S
C94 C95 1.387 . S
C94 C99 1.390 1_556 S
C95 C94 1.387 . S
C95 C96 1.401 1_556 S
C95 H116 0.930 . S
C96 C95 1.401 1_554 S
C96 C97 1.376 . S
C96 C105 1.511 . S
C97 C96 1.376 . S
C97 C98 1.392 . S
C97 H118 0.931 . S
C98 C97 1.392 . S
C98 C99 1.361 . S
C98 C100 1.500 . S
C99 C94 1.390 1_554 S
C99 C98 1.361 . S
C99 H117 0.931 . S
C100 C98 1.500 . S
C100 C101 1.371 . S
C100 C102 1.365 . S
C101 C100 1.371 . S
C101 C111 1.386 . S
C101 H119 0.931 . S
C102 C100 1.365 . S
C102 C103 1.409 . S
C102 H120 0.929 . S
C103 C102 1.409 . S
C103 C104 1.380 . S
C103 H121 0.930 . S
C104 C103 1.380 . S
C104 C111 1.357 . S
C105 C96 1.511 . S
C105 C106 1.341 1_554 S
C105 C107 1.371 . S
C106 C105 1.341 1_556 S
C106 C110 1.394 . S
C106 H122 0.930 . S
C107 C105 1.371 . S
C107 C108 1.392 . S
C107 H123 0.931 . S
C108 C107 1.392 . S
C108 C109 1.331 . S
C108 H126 0.932 . S
C109 C108 1.331 . S
C109 C110 1.336 1_554 S
C110 C106 1.394 . S
C110 C109 1.336 1_556 S
C110 H125 0.929 . S
C111 C101 1.386 . S
C111 C104 1.357 . S
C111 H124 0.928 . S
H112 C88 0.931 . S
H113 C90 0.930 . S
H114 C92 0.929 . S
H115 C93 0.931 . S
H116 C95 0.930 . S
H117 C99 0.931 . S
H118 C97 0.931 . S
H119 C101 0.931 . S
H120 C102 0.929 . S
H121 C103 0.930 . S
H122 C106 0.930 . S
H123 C107 0.931 . S
H124 C111 0.928 . S
H125 C110 0.929 . S
H126 C108 0.932 . S
C127 C128 1.386 . S
C127 C129 1.397 . S
C127 H151 0.931 . S
C128 C127 1.386 . S
C128 C132 1.397 . S
C129 C127 1.397 . S
C129 C130 1.384 . S
C129 H152 0.930 . S
C130 C129 1.384 . S
C130 C131 1.377 . S
C130 C133 1.481 . S
C131 C130 1.377 . S
C131 C132 1.389 . S
C131 H153 0.929 . S
C132 C128 1.397 . S
C132 C131 1.389 . S
C132 H154 0.931 . S
C133 C130 1.481 . S
C133 C134 1.387 . S
C133 C138 1.390 . S
C134 C133 1.387 . S
C134 C135 1.401 1_655 S
C134 H155 0.948 . S
C135 C134 1.401 1_455 S
C135 C136 1.376 1_455 S
C135 C144 1.511 . S
C136 C135 1.376 1_655 S
C136 C137 1.392 . S
C136 H157 0.931 . S
C137 C136 1.392 . S
C137 C138 1.361 . S
C137 C139 1.500 . S
C138 C133 1.390 . S
C138 C137 1.361 . S
C138 H156 0.931 . S
C139 C137 1.500 . S
C139 C140 1.371 . S
C139 C141 1.365 . S
C140 C139 1.371 . S
C140 C150 1.386 . S
C140 H158 0.931 . S
C141 C139 1.365 . S
C141 C142 1.409 . S
C141 H159 0.929 . S
C142 C141 1.409 . S
C142 C143 1.380 . S
C142 H160 0.930 . S
C143 C142 1.380 . S
C143 C150 1.357 . S
C144 C135 1.511 . S
C144 C145 1.341 . S
C144 C146 1.371 . S
C145 C144 1.341 . S
C145 C149 1.394 . S
C145 H161 0.930 . S
C146 C144 1.371 . S
C146 C147 1.392 . S
C146 H162 0.931 . S
C147 C146 1.392 . S
C147 C148 1.331 . S
C147 H165 0.932 . S
C148 C147 1.331 . S
C148 C149 1.336 . S
C149 C145 1.394 . S
C149 C148 1.336 . S
C149 H164 0.929 . S
C150 C140 1.386 . S
C150 C143 1.357 . S
C150 H163 0.928 . S
H151 C127 0.931 . S
H152 C129 0.930 . S
H153 C131 0.929 . S
H154 C132 0.931 . S
H155 C134 0.948 . S
H156 C138 0.931 . S
H157 C136 0.931 . S
H158 C140 0.931 . S
H159 C141 0.929 . S
H160 C142 0.930 . S
H161 C145 0.930 . S
H162 C146 0.931 . S
H163 C150 0.928 . S
H164 C149 0.929 . S
H165 C147 0.932 . S
C166 C167 1.386 . S
C166 C168 1.397 . S
C166 H190 0.931 . S
C167 C166 1.386 . S
C167 C171 1.397 . S
C168 C166 1.397 . S
C168 C169 1.384 . S
C168 H191 0.930 . S
C169 C168 1.384 . S
C169 C170 1.377 . S
C169 C172 1.481 . S
C170 C169 1.377 . S
C170 C171 1.389 . S
C170 H192 0.929 . S
C171 C167 1.397 . S
C171 C170 1.389 . S
C171 H193 0.931 . S
C172 C169 1.481 . S
C172 C173 1.387 . S
C172 C177 1.392 . S
C173 C172 1.387 . S
C173 C174 1.382 1_554 S
C173 H194 0.930 . S
C174 C173 1.382 1_556 S
C174 C175 1.395 . S
C174 C183 1.511 . S
C175 C174 1.395 . S
C175 C176 1.392 . S
C175 H196 0.931 . S
C176 C175 1.392 . S
C176 C177 1.360 1_556 S
C176 C178 1.500 . S
C177 C172 1.392 . S
C177 C176 1.360 1_554 S
C177 H195 0.931 . S
C178 C176 1.500 . S
C178 C179 1.371 . S
C178 C180 1.365 . S
C179 C178 1.371 . S
C179 C189 1.386 . S
C179 H197 0.931 . S
C180 C178 1.365 . S
C180 C181 1.409 . S
C180 H198 0.929 . S
C181 C180 1.409 . S
C181 C182 1.380 . S
C181 H199 0.930 . S
C182 C181 1.380 . S
C182 C189 1.357 . S
C183 C174 1.511 . S
C183 C184 1.327 1_556 S
C183 C185 1.385 . S
C184 C183 1.327 1_554 S
C184 C188 1.394 . S
C184 H200 0.930 . S
C185 C183 1.385 . S
C185 C186 1.392 . S
C185 H201 0.931 . S
C186 C185 1.392 . S
C186 C187 1.324 1_556 S
C186 H204 0.932 . S
C187 C186 1.324 1_554 S
C187 C188 1.343 . S
C188 C184 1.394 . S
C188 C187 1.343 . S
C188 H203 0.929 . S
C189 C179 1.386 . S
C189 C182 1.357 . S
C189 H202 0.928 . S
H190 C166 0.931 . S
H191 C168 0.930 . S
H192 C170 0.929 . S
H193 C171 0.931 . S
H194 C173 0.930 . S
H195 C177 0.931 . S
H196 C175 0.931 . S
H197 C179 0.931 . S
H198 C180 0.929 . S
H199 C181 0.930 . S
H200 C184 0.930 . S
H201 C185 0.931 . S
H202 C189 0.928 . S
H203 C188 0.929 . S
H204 C186 0.932 . S
C205 C206 1.386 . S
C205 C207 1.397 . S
C205 H229 0.931 . S
C206 C205 1.386 . S
C206 C210 1.397 . S
C207 C205 1.397 . S
C207 C208 1.384 . S
C207 H230 0.930 . S
C208 C207 1.384 . S
C208 C209 1.377 . S
C208 C211 1.481 . S
C209 C208 1.377 . S
C209 C210 1.389 . S
C209 H231 0.929 . S
C210 C206 1.397 . S
C210 C209 1.389 . S
C210 H232 0.931 . S
C211 C208 1.481 . S
C211 C212 1.387 . S
C211 C216 1.390 . S
C212 C211 1.387 . S
C212 C213 1.401 1_455 S
C212 H233 0.924 1_455 S
C213 C212 1.401 1_655 S
C213 C214 1.376 1_655 S
C213 C222 1.511 . S
C214 C213 1.376 1_455 S
C214 C215 1.392 . S
C214 H235 0.942 . S
C215 C214 1.392 . S
C215 C216 1.361 . S
C215 C217 1.500 . S
C216 C211 1.390 . S
C216 C215 1.361 . S
C216 H234 0.931 . S
C217 C215 1.500 . S
C217 C218 1.371 . S
C217 C219 1.365 . S
C218 C217 1.371 . S
C218 C228 1.386 . S
C218 H236 0.931 . S
C219 C217 1.365 . S
C219 C220 1.409 . S
C219 H237 0.929 . S
C220 C219 1.409 . S
C220 C221 1.380 . S
C220 H238 0.930 . S
C221 C220 1.380 . S
C221 C228 1.357 . S
C222 C213 1.511 . S
C222 C223 1.341 . S
C222 C224 1.371 . S
C223 C222 1.341 . S
C223 C227 1.394 . S
C223 H239 0.930 . S
C224 C222 1.371 . S
C224 C225 1.392 . S
C224 H240 0.931 . S
C225 C224 1.392 . S
C225 C226 1.331 . S
C225 H243 0.932 . S
C226 C225 1.331 . S
C226 C227 1.336 . S
C227 C223 1.394 . S
C227 C226 1.336 . S
C227 H242 0.929 . S
C228 C218 1.386 . S
C228 C221 1.357 . S
C228 H241 0.928 . S
H229 C205 0.931 . S
H230 C207 0.930 . S
H231 C209 0.929 . S
H232 C210 0.931 . S
H233 C212 0.924 1_655 S
H234 C216 0.931 . S
H235 C214 0.942 . S
H236 C218 0.931 . S
H237 C219 0.929 . S
H238 C220 0.930 . S
H239 C223 0.930 . S
H240 C224 0.931 . S
H241 C228 0.928 . S
H242 C227 0.929 . S
H243 C225 0.932 . S
C244 C245 1.386 . S
C244 C246 1.397 . S
C244 H268 0.931 . S
C245 C244 1.386 . S
C245 C249 1.397 . S
C246 C244 1.397 . S
C246 C247 1.384 . S
C246 H269 0.930 . S
C247 C246 1.384 . S
C247 C248 1.377 . S
C247 C250 1.481 . S
C248 C247 1.377 . S
C248 C249 1.389 . S
C248 H270 0.929 . S
C249 C245 1.397 . S
C249 C248 1.389 . S
C249 H271 0.931 . S
C250 C247 1.481 . S
C250 C251 1.387 1_565 S
C250 C255 1.390 . S
C251 C250 1.387 1_545 S
C251 C252 1.401 . S
C251 H272 0.930 . S
C252 C251 1.401 . S
C252 C253 1.376 . S
C252 C261 1.511 . S
C253 C252 1.376 . S
C253 C254 1.392 1_545 S
C253 H274 0.931 . S
C254 C253 1.392 1_565 S
C254 C255 1.361 . S
C254 C256 1.500 . S
C255 C250 1.390 . S
C255 C254 1.361 . S
C255 H273 0.931 . S
C256 C254 1.500 . S
C256 C257 1.371 . S
C256 C258 1.365 . S
C257 C256 1.371 . S
C257 C267 1.386 . S
C257 H275 0.931 . S
C258 C256 1.365 . S
C258 C259 1.409 . S
C258 H276 0.929 . S
C259 C258 1.409 . S
C259 C260 1.380 . S
C259 H277 0.930 . S
C260 C259 1.380 . S
C260 C267 1.357 . S
C261 C252 1.511 . S
C261 C262 1.341 . S
C261 C263 1.371 . S
C262 C261 1.341 . S
C262 C266 1.394 . S
C262 H278 0.930 . S
C263 C261 1.371 . S
C263 C264 1.392 . S
C263 H279 0.931 . S
C264 C263 1.392 . S
C264 C265 1.331 . S
C264 H282 0.932 . S
C265 C264 1.331 . S
C265 C266 1.336 . S
C266 C262 1.394 . S
C266 C265 1.336 . S
C266 H281 0.929 . S
C267 C257 1.386 . S
C267 C260 1.357 . S
C267 H280 0.928 . S
H268 C244 0.931 . S
H269 C246 0.930 . S
H270 C248 0.929 . S
H271 C249 0.931 . S
H272 C251 0.930 . S
H273 C255 0.931 . S
H274 C253 0.931 . S
H275 C257 0.931 . S
H276 C258 0.929 . S
H277 C259 0.930 . S
H278 C262 0.930 . S
H279 C263 0.931 . S
H280 C267 0.928 . S
H281 C266 0.929 . S
H282 C264 0.932 . S
C283 C284 1.386 . S
C283 C285 1.397 . S
C283 H307 0.931 . S
C284 C283 1.386 . S
C284 C288 1.397 . S
C285 C283 1.397 . S
C285 C286 1.384 . S
C285 H308 0.930 . S
C286 C285 1.384 . S
C286 C287 1.377 . S
C286 C289 1.481 . S
C287 C286 1.377 . S
C287 C288 1.389 . S
C287 H309 0.929 . S
C288 C284 1.397 . S
C288 C287 1.389 . S
C288 H310 0.931 . S
C289 C286 1.481 . S
C289 C290 1.387 . S
C289 C294 1.382 1_554 S
C290 C289 1.387 . S
C290 C291 1.401 1_554 S
C290 H311 0.930 . S
C291 C290 1.401 1_556 S
C291 C292 1.376 . S
C291 C300 1.511 . S
C292 C291 1.376 . S
C292 C293 1.392 . S
C292 H313 0.931 . S
C293 C292 1.392 . S
C293 C294 1.370 . S
C293 C295 1.500 . S
C294 C289 1.382 1_556 S
C294 C293 1.370 . S
C294 H312 0.931 . S
C295 C293 1.500 . S
C295 C296 1.371 . S
C295 C297 1.365 . S
C296 C295 1.371 . S
C296 C306 1.386 . S
C296 H314 0.931 . S
C297 C295 1.365 . S
C297 C298 1.409 . S
C297 H315 0.929 . S
C298 C297 1.409 . S
C298 C299 1.380 . S
C298 H316 0.930 . S
C299 C298 1.380 . S
C299 C306 1.357 . S
C300 C291 1.511 . S
C300 C301 1.341 1_556 S
C300 C302 1.371 . S
C301 C300 1.341 1_554 S
C301 C305 1.394 . S
C301 H317 0.930 . S
C302 C300 1.371 . S
C302 C303 1.392 . S
C302 H318 0.931 . S
C303 C302 1.392 . S
C303 C304 1.332 . S
C303 H321 0.932 . S
C304 C303 1.332 . S
C304 C305 1.335 1_556 S
C305 C301 1.394 . S
C305 C304 1.335 1_554 S
C305 H320 0.929 . S
C306 C296 1.386 . S
C306 C299 1.357 . S
C306 H319 0.928 . S
H307 C283 0.931 . S
H308 C285 0.930 . S
H309 C287 0.929 . S
H310 C288 0.931 . S
H311 C290 0.930 . S
H312 C294 0.931 . S
H313 C292 0.931 . S
H314 C296 0.931 . S
H315 C297 0.929 . S
H316 C298 0.930 . S
H317 C301 0.930 . S
H318 C302 0.931 . S
H319 C306 0.928 . S
H320 C305 0.929 . S
H321 C303 0.932 . S
C322 C323 1.386 . S
C322 C324 1.397 . S
C322 H346 0.931 . S
C323 C322 1.386 . S
C323 C327 1.397 . S
C324 C322 1.397 . S
C324 C325 1.384 . S
C324 H347 0.930 . S
C325 C324 1.384 . S
C325 C326 1.377 . S
C325 C328 1.481 . S
C326 C325 1.377 . S
C326 C327 1.389 . S
C326 H348 0.929 . S
C327 C323 1.397 . S
C327 C326 1.389 . S
C327 H349 0.931 . S
C328 C325 1.481 . S
C328 C329 1.372 1_545 S
C328 C333 1.390 . S
C329 C328 1.372 1_565 S
C329 C330 1.408 . S
C329 H350 0.938 . S
C330 C329 1.408 . S
C330 C331 1.378 1_565 S
C330 C339 1.511 . S
C331 C330 1.378 1_545 S
C331 C332 1.388 . S
C331 H352 0.933 1_545 S
C332 C331 1.388 . S
C332 C333 1.361 . S
C332 C334 1.500 . S
C333 C328 1.390 . S
C333 C332 1.361 . S
C333 H351 0.931 . S
C334 C332 1.500 . S
C334 C335 1.371 . S
C334 C336 1.365 . S
C335 C334 1.371 . S
C335 C345 1.386 . S
C335 H353 0.931 . S
C336 C334 1.365 . S
C336 C337 1.409 . S
C336 H354 0.929 . S
C337 C336 1.409 . S
C337 C338 1.380 . S
C337 H355 0.930 . S
C338 C337 1.380 . S
C338 C345 1.357 . S
C339 C330 1.511 . S
C339 C340 1.341 . S
C339 C341 1.371 . S
C340 C339 1.341 . S
C340 C344 1.394 . S
C340 H356 0.930 . S
C341 C339 1.371 . S
C341 C342 1.392 . S
C341 H357 0.931 . S
C342 C341 1.392 . S
C342 C343 1.331 . S
C342 H360 0.932 . S
C343 C342 1.331 . S
C343 C344 1.336 . S
C344 C340 1.394 . S
C344 C343 1.336 . S
C344 H359 0.929 . S
C345 C335 1.386 . S
C345 C338 1.357 . S
C345 H358 0.928 . S
H346 C322 0.931 . S
H347 C324 0.930 . S
H348 C326 0.929 . S
H349 C327 0.931 . S
H350 C329 0.938 . S
H351 C333 0.931 . S
H352 C331 0.933 1_565 S
H353 C335 0.931 . S
H354 C336 0.929 . S
H355 C337 0.930 . S
H356 C340 0.930 . S
H357 C341 0.931 . S
H358 C345 0.928 . S
H359 C344 0.929 . S
H360 C342 0.932 . S
C361 C362 1.386 . S
C361 C363 1.397 . S
C361 H385 0.931 . S
C362 C361 1.386 . S
C362 C366 1.397 . S
C363 C361 1.397 . S
C363 C364 1.384 . S
C363 H386 0.930 . S
C364 C363 1.384 . S
C364 C365 1.377 . S
C364 C367 1.481 . S
C365 C364 1.377 . S
C365 C366 1.389 . S
C365 H387 0.929 . S
C366 C362 1.397 . S
C366 C365 1.389 . S
C366 H388 0.931 . S
C367 C364 1.481 . S
C367 C368 1.387 . S
C367 C372 1.390 1_556 S
C368 C367 1.387 . S
C368 C369 1.401 1_556 S
C368 H389 0.930 . S
C369 C368 1.401 1_554 S
C369 C370 1.376 . S
C369 C378 1.511 . S
C370 C369 1.376 . S
C370 C371 1.392 . S
C370 H391 0.931 . S
C371 C370 1.392 . S
C371 C372 1.361 . S
C371 C373 1.500 . S
C372 C367 1.390 1_554 S
C372 C371 1.361 . S
C372 H390 0.931 . S
C373 C371 1.500 . S
C373 C374 1.371 . S
C373 C375 1.365 . S
C374 C373 1.371 . S
C374 C384 1.386 . S
C374 H392 0.931 . S
C375 C373 1.365 . S
C375 C376 1.409 . S
C375 H393 0.929 . S
C376 C375 1.409 . S
C376 C377 1.380 . S
C376 H394 0.930 . S
C377 C376 1.380 . S
C377 C384 1.357 . S
C378 C369 1.511 . S
C378 C379 1.341 1_554 S
C378 C380 1.371 . S
C379 C378 1.341 1_556 S
C379 C383 1.394 . S
C379 H395 0.930 . S
C380 C378 1.371 . S
C380 C381 1.392 . S
C380 H396 0.931 . S
C381 C380 1.392 . S
C381 C382 1.331 . S
C381 H399 0.932 . S
C382 C381 1.331 . S
C382 C383 1.336 1_554 S
C383 C379 1.394 . S
C383 C382 1.336 1_556 S
C383 H398 0.929 . S
C384 C374 1.386 . S
C384 C377 1.357 . S
C384 H397 0.928 . S
H385 C361 0.931 . S
H386 C363 0.930 . S
H387 C365 0.929 . S
H388 C366 0.931 . S
H389 C368 0.930 . S
H390 C372 0.931 . S
H391 C370 0.931 . S
H392 C374 0.931 . S
H393 C375 0.929 . S
H394 C376 0.930 . S
H395 C379 0.930 . S
H396 C380 0.931 . S
H397 C384 0.928 . S
H398 C383 0.929 . S
H399 C381 0.932 . S
H400 C408 0.950 . S
H401 C413 0.950 . S
H402 C410 0.950 . S
H403 C412 0.950 . S
H404 C414 0.950 . S
H405 C416 0.950 . S
H406 C418 0.950 . S
H407 C419 0.950 . S
C408 H400 0.950 . S
C408 C409 1.386 . S
C408 C410 1.391 . S
C409 C408 1.386 . S
C409 C413 1.393 . S
C410 H402 0.950 . S
C410 C408 1.391 . S
C410 C411 1.400 . S
C411 C410 1.400 . S
C411 C412 1.398 . S
C411 C417 1.491 . S
C412 H403 0.950 . S
C412 C411 1.398 . S
C412 C413 1.391 . S
C413 H401 0.950 . S
C413 C409 1.393 . S
C413 C412 1.391 . S
C414 H404 0.950 . S
C414 C415 1.386 . S
C414 C416 1.391 . S
C415 C414 1.386 . S
C415 C419 1.393 . S
C416 H405 0.950 . S
C416 C414 1.391 . S
C416 C417 1.400 . S
C417 C411 1.491 . S
C417 C416 1.400 . S
C417 C418 1.398 . S
C418 H406 0.950 . S
C418 C417 1.398 . S
C418 C419 1.391 . S
C419 H407 0.950 . S
C419 C415 1.393 . S
C419 C418 1.391 . S
H420 C428 0.950 . S
H421 C433 0.950 . S
H422 C430 0.950 . S
H423 C432 0.950 . S
H424 C434 0.950 . S
H425 C436 0.950 . S
H426 C438 0.950 . S
H427 C439 0.950 . S
C428 H420 0.950 . S
C428 C429 1.386 . S
C428 C430 1.391 . S
C429 C428 1.386 . S
C429 C433 1.393 . S
C430 H422 0.950 . S
C430 C428 1.391 . S
C430 C431 1.400 . S
C431 C430 1.400 . S
C431 C432 1.398 . S
C431 C437 1.491 . S
C432 H423 0.950 . S
C432 C431 1.398 . S
C432 C433 1.391 . S
C433 H421 0.950 . S
C433 C429 1.393 . S
C433 C432 1.391 . S
C434 H424 0.950 . S
C434 C435 1.386 . S
C434 C436 1.391 . S
C435 C434 1.386 . S
C435 C439 1.393 . S
C436 H425 0.950 . S
C436 C434 1.391 . S
C436 C437 1.400 . S
C437 C431 1.491 . S
C437 C436 1.400 . S
C437 C438 1.398 . S
C438 H426 0.950 . S
C438 C437 1.398 . S
C438 C439 1.391 . S
C439 H427 0.950 . S
C439 C435 1.393 . S
C439 C438 1.391 . S
H440 C448 0.950 . S
H441 C453 0.950 . S
H442 C450 0.950 . S
H443 C452 0.950 . S
H444 C454 0.950 . S
H445 C456 0.950 . S
H446 C458 0.950 . S
H447 C459 0.950 . S
C448 H440 0.950 . S
C448 C449 1.386 . S
C448 C450 1.391 . S
C449 C448 1.386 . S
C449 C453 1.393 . S
C450 H442 0.950 . S
C450 C448 1.391 . S
C450 C451 1.400 . S
C451 C450 1.400 . S
C451 C452 1.398 . S
C451 C457 1.491 . S
C452 H443 0.950 . S
C452 C451 1.398 . S
C452 C453 1.391 . S
C453 H441 0.950 . S
C453 C449 1.393 . S
C453 C452 1.391 . S
C454 H444 0.950 . S
C454 C455 1.386 . S
C454 C456 1.391 . S
C455 C454 1.386 . S
C455 C459 1.393 . S
C456 H445 0.950 . S
C456 C454 1.391 . S
C456 C457 1.400 . S
C457 C451 1.491 . S
C457 C456 1.400 . S
C457 C458 1.398 . S
C458 H446 0.950 . S
C458 C457 1.398 . S
C458 C459 1.391 . S
C459 H447 0.950 . S
C459 C455 1.393 . S
C459 C458 1.391 . S
H460 C468 0.950 . S
H461 C473 0.950 . S
H462 C470 0.950 . S
H463 C472 0.950 . S
H464 C474 0.950 . S
H465 C476 0.950 . S
H466 C478 0.950 . S
H467 C479 0.950 . S
C468 H460 0.950 . S
C468 C469 1.386 . S
C468 C470 1.391 . S
C469 C468 1.386 . S
C469 C473 1.393 . S
C470 H462 0.950 . S
C470 C468 1.391 . S
C470 C471 1.400 . S
C471 C470 1.400 . S
C471 C472 1.398 . S
C471 C477 1.491 . S
C472 H463 0.950 . S
C472 C471 1.398 . S
C472 C473 1.391 . S
C473 H461 0.950 . S
C473 C469 1.393 . S
C473 C472 1.391 . S
C474 H464 0.950 . S
C474 C475 1.386 . S
C474 C476 1.391 . S
C475 C474 1.386 . S
C475 C479 1.393 . S
C476 H465 0.950 . S
C476 C474 1.391 . S
C476 C477 1.400 . S
C477 C471 1.491 . S
C477 C476 1.400 . S
C477 C478 1.398 . S
C478 H466 0.950 . S
C478 C477 1.398 . S
C478 C479 1.391 . S
C479 H467 0.950 . S
C479 C475 1.393 . S
C479 C478 1.391 . S
H480 C488 0.950 . S
H481 C493 0.950 . S
H482 C490 0.950 . S
H483 C492 0.950 . S
H484 C494 0.950 . S
H485 C496 0.950 . S
H486 C498 0.950 . S
H487 C499 0.950 . S
C488 H480 0.950 . S
C488 C489 1.386 . S
C488 C490 1.391 . S
C489 C488 1.386 . S
C489 C493 1.393 . S
C490 H482 0.950 . S
C490 C488 1.391 . S
C490 C491 1.400 . S
C491 C490 1.400 . S
C491 C492 1.398 . S
C491 C497 1.491 . S
C492 H483 0.950 . S
C492 C491 1.398 . S
C492 C493 1.391 . S
C493 H481 0.950 . S
C493 C489 1.393 . S
C493 C492 1.391 . S
C494 H484 0.950 . S
C494 C495 1.386 . S
C494 C496 1.391 . S
C495 C494 1.386 . S
C495 C499 1.393 . S
C496 H485 0.950 . S
C496 C494 1.391 . S
C496 C497 1.400 . S
C497 C491 1.491 . S
C497 C496 1.400 . S
C497 C498 1.398 . S
C498 H486 0.950 . S
C498 C497 1.398 . S
C498 C499 1.391 . S
C499 H487 0.950 . S
C499 C495 1.393 . S
C499 C498 1.391 . S
H500 C508 0.950 . S
H501 C513 0.950 . S
H502 C510 0.950 . S
H503 C512 0.950 . S
H504 C514 0.950 . S
H505 C516 0.950 . S
H506 C518 0.950 . S
H507 C519 0.950 . S
C508 H500 0.950 . S
C508 C509 1.386 . S
C508 C510 1.391 . S
C509 C508 1.386 . S
C509 C513 1.393 . S
C510 H502 0.950 . S
C510 C508 1.391 . S
C510 C511 1.400 . S
C511 C510 1.400 . S
C511 C512 1.398 . S
C511 C517 1.491 . S
C512 H503 0.950 . S
C512 C511 1.398 . S
C512 C513 1.391 . S
C513 H501 0.950 . S
C513 C509 1.393 . S
C513 C512 1.391 . S
C514 H504 0.950 . S
C514 C515 1.386 . S
C514 C516 1.391 . S
C515 C514 1.386 . S
C515 C519 1.393 . S
C516 H505 0.950 . S
C516 C514 1.391 . S
C516 C517 1.400 . S
C517 C511 1.491 . S
C517 C516 1.400 . S
C517 C518 1.398 . S
C518 H506 0.950 . S
C518 C517 1.398 . S
C518 C519 1.391 . S
C519 H507 0.950 . S
C519 C515 1.393 . S
C519 C518 1.391 . S
H520 C528 0.950 . S
H521 C533 0.950 . S
H522 C530 0.950 . S
H523 C532 0.950 . S
H524 C534 0.950 . S
H525 C536 0.950 . S
H526 C538 0.950 . S
H527 C539 0.950 . S
C528 H520 0.950 . S
C528 C529 1.386 . S
C528 C530 1.391 . S
C529 C528 1.386 . S
C529 C533 1.393 . S
C530 H522 0.950 . S
C530 C528 1.391 . S
C530 C531 1.400 . S
C531 C530 1.400 . S
C531 C532 1.398 . S
C531 C537 1.491 . S
C532 H523 0.950 . S
C532 C531 1.398 . S
C532 C533 1.391 . S
C533 H521 0.950 . S
C533 C529 1.393 . S
C533 C532 1.391 . S
C534 H524 0.950 . S
C534 C535 1.386 . S
C534 C536 1.391 . S
C535 C534 1.386 . S
C535 C539 1.393 . S
C536 H525 0.950 . S
C536 C534 1.391 . S
C536 C537 1.400 . S
C537 C531 1.491 . S
C537 C536 1.400 . S
C537 C538 1.398 . S
C538 H526 0.950 . S
C538 C537 1.398 . S
C538 C539 1.391 . S
C539 H527 0.950 . S
C539 C535 1.393 . S
C539 C538 1.391 . S
H540 C548 0.950 . S
H541 C553 0.950 . S
H542 C550 0.950 . S
H543 C552 0.950 . S
H544 C554 0.950 . S
H545 C556 0.950 . S
H546 C558 0.950 . S
H547 C559 0.950 . S
C548 H540 0.950 . S
C548 C549 1.386 . S
C548 C550 1.391 . S
C549 C548 1.386 . S
C549 C553 1.393 . S
C550 H542 0.950 . S
C550 C548 1.391 . S
C550 C551 1.400 . S
C551 C550 1.400 . S
C551 C552 1.398 . S
C551 C557 1.491 . S
C552 H543 0.950 . S
C552 C551 1.398 . S
C552 C553 1.391 . S
C553 H541 0.950 . S
C553 C549 1.393 . S
C553 C552 1.391 . S
C554 H544 0.950 . S
C554 C555 1.386 . S
C554 C556 1.391 . S
C555 C554 1.386 . S
C555 C559 1.393 . S
C556 H545 0.950 . S
C556 C554 1.391 . S
C556 C557 1.400 . S
C557 C551 1.491 . S
C557 C556 1.400 . S
C557 C558 1.398 . S
C558 H546 0.950 . S
C558 C557 1.398 . S
C558 C559 1.391 . S
C559 H547 0.950 . S
C559 C555 1.393 . S
C559 C558 1.391 . S
H560 C568 0.950 . S
H561 C573 0.950 . S
H562 C570 0.950 . S
H563 C572 0.950 . S
H564 C574 0.950 . S
H565 C576 0.950 . S
H566 C578 0.950 . S
H567 C579 0.950 . S
C568 H560 0.950 . S
C568 C569 1.386 . S
C568 C570 1.391 . S
C569 C568 1.386 . S
C569 C573 1.393 . S
C570 H562 0.950 . S
C570 C568 1.391 . S
C570 C571 1.400 . S
C571 C570 1.400 . S
C571 C572 1.398 . S
C571 C577 1.491 . S
C572 H563 0.950 . S
C572 C571 1.398 . S
C572 C573 1.391 . S
C573 H561 0.950 . S
C573 C569 1.393 . S
C573 C572 1.391 . S
C574 H564 0.950 . S
C574 C575 1.386 . S
C574 C576 1.391 . S
C575 C574 1.386 . S
C575 C579 1.393 . S
C576 H565 0.950 . S
C576 C574 1.391 . S
C576 C577 1.400 . S
C577 C571 1.491 . S
C577 C576 1.400 . S
C577 C578 1.398 . S
C578 H566 0.950 . S
C578 C577 1.398 . S
C578 C579 1.391 . S
C579 H567 0.950 . S
C579 C575 1.393 . S
C579 C578 1.391 . S
H580 C588 0.950 . S
H581 C593 0.950 . S
H582 C590 0.950 . S
H583 C592 0.950 . S
H584 C594 0.950 . S
H585 C596 0.950 . S
H586 C598 0.950 . S
H587 C599 0.950 . S
C588 H580 0.950 . S
C588 C589 1.386 . S
C588 C590 1.391 . S
C589 C588 1.386 . S
C589 C593 1.393 . S
C590 H582 0.950 . S
C590 C588 1.391 . S
C590 C591 1.400 . S
C591 C590 1.400 . S
C591 C592 1.398 . S
C591 C597 1.491 . S
C592 H583 0.950 . S
C592 C591 1.398 . S
C592 C593 1.391 . S
C593 H581 0.950 . S
C593 C589 1.393 . S
C593 C592 1.391 . S
C594 H584 0.950 . S
C594 C595 1.386 . S
C594 C596 1.391 . S
C595 C594 1.386 . S
C595 C599 1.393 . S
C596 H585 0.950 . S
C596 C594 1.391 . S
C596 C597 1.400 . S
C597 C591 1.491 . S
C597 C596 1.400 . S
C597 C598 1.398 . S
C598 H586 0.950 . S
C598 C597 1.398 . S
C598 C599 1.391 . S
C599 H587 0.950 . S
C599 C595 1.393 . S
C599 C598 1.391 . S
H600 C608 0.950 . S
H601 C613 0.950 . S
H602 C610 0.950 . S
H603 C612 0.950 . S
H604 C614 0.950 . S
H605 C616 0.950 . S
H606 C618 0.950 . S
H607 C619 0.950 . S
C608 H600 0.950 . S
C608 C609 1.386 . S
C608 C610 1.391 . S
C609 C608 1.386 . S
C609 C613 1.393 . S
C610 H602 0.950 . S
C610 C608 1.391 . S
C610 C611 1.400 . S
C611 C610 1.400 . S
C611 C612 1.398 . S
C611 C617 1.491 . S
C612 H603 0.950 . S
C612 C611 1.398 . S
C612 C613 1.391 . S
C613 H601 0.950 . S
C613 C609 1.393 . S
C613 C612 1.391 . S
C614 H604 0.950 . S
C614 C615 1.386 . S
C614 C616 1.391 . S
C615 C614 1.386 . S
C615 C619 1.393 . S
C616 H605 0.950 . S
C616 C614 1.391 . S
C616 C617 1.400 . S
C617 C611 1.491 . S
C617 C616 1.400 . S
C617 C618 1.398 . S
C618 H606 0.950 . S
C618 C617 1.398 . S
C618 C619 1.391 . S
C619 H607 0.950 . S
C619 C615 1.393 . S
C619 C618 1.391 . S
H620 C628 0.950 . S
H621 C633 0.950 . S
H622 C630 0.950 . S
H623 C632 0.950 . S
H624 C634 0.950 . S
H625 C636 0.950 . S
H626 C638 0.950 . S
H627 C639 0.950 . S
C628 H620 0.950 . S
C628 C629 1.386 . S
C628 C630 1.391 . S
C629 C628 1.386 . S
C629 C633 1.393 . S
C630 H622 0.950 . S
C630 C628 1.391 . S
C630 C631 1.400 . S
C631 C630 1.400 . S
C631 C632 1.398 . S
C631 C637 1.491 . S
C632 H623 0.950 . S
C632 C631 1.398 . S
C632 C633 1.391 . S
C633 H621 0.950 . S
C633 C629 1.393 . S
C633 C632 1.391 . S
C634 H624 0.950 . S
C634 C635 1.386 . S
C634 C636 1.391 . S
C635 C634 1.386 . S
C635 C639 1.393 . S
C636 H625 0.950 . S
C636 C634 1.391 . S
C636 C637 1.400 . S
C637 C631 1.491 . S
C637 C636 1.400 . S
C637 C638 1.398 . S
C638 H626 0.950 . S
C638 C637 1.398 . S
C638 C639 1.391 . S
C639 H627 0.950 . S
C639 C635 1.393 . S
C639 C638 1.391 . S
H640 C648 0.950 . S
H641 C653 0.950 . S
H642 C650 0.950 . S
H643 C652 0.950 . S
H644 C654 0.950 . S
H645 C656 0.950 . S
H646 C658 0.950 . S
H647 C659 0.950 . S
C648 H640 0.950 . S
C648 C649 1.386 . S
C648 C650 1.391 . S
C649 C648 1.386 . S
C649 C653 1.393 . S
C650 H642 0.950 . S
C650 C648 1.391 . S
C650 C651 1.400 . S
C651 C650 1.400 . S
C651 C652 1.398 . S
C651 C657 1.491 . S
C652 H643 0.950 . S
C652 C651 1.398 . S
C652 C653 1.391 . S
C653 H641 0.950 . S
C653 C649 1.393 . S
C653 C652 1.391 . S
C654 H644 0.950 . S
C654 C655 1.386 . S
C654 C656 1.391 . S
C655 C654 1.386 . S
C655 C659 1.393 . S
C656 H645 0.950 . S
C656 C654 1.391 . S
C656 C657 1.400 . S
C657 C651 1.491 . S
C657 C656 1.400 . S
C657 C658 1.398 . S
C658 H646 0.950 . S
C658 C657 1.398 . S
C658 C659 1.391 . S
C659 H647 0.950 . S
C659 C655 1.393 . S
C659 C658 1.391 . S
H660 C668 0.950 . S
H661 C673 0.950 . S
H662 C670 0.950 . S
H663 C672 0.950 . S
H664 C674 0.950 . S
H665 C676 0.950 . S
H666 C678 0.950 . S
H667 C679 0.950 . S
C668 H660 0.950 . S
C668 C669 1.386 . S
C668 C670 1.391 . S
C669 C668 1.386 . S
C669 C673 1.393 . S
C670 H662 0.950 . S
C670 C668 1.391 . S
C670 C671 1.400 . S
C671 C670 1.400 . S
C671 C672 1.398 . S
C671 C677 1.491 . S
C672 H663 0.950 . S
C672 C671 1.398 . S
C672 C673 1.391 . S
C673 H661 0.950 . S
C673 C669 1.393 . S
C673 C672 1.391 . S
C674 H664 0.950 . S
C674 C675 1.386 . S
C674 C676 1.391 . S
C675 C674 1.386 . S
C675 C679 1.393 . S
C676 H665 0.950 . S
C676 C674 1.391 . S
C676 C677 1.400 . S
C677 C671 1.491 . S
C677 C676 1.400 . S
C677 C678 1.398 . S
C678 H666 0.950 . S
C678 C677 1.398 . S
C678 C679 1.391 . S
C679 H667 0.950 . S
C679 C675 1.393 . S
C679 C678 1.391 . S
H680 C688 0.950 . S
H681 C693 0.950 . S
H682 C690 0.950 . S
H683 C692 0.950 . S
H684 C694 0.950 . S
H685 C696 0.950 . S
H686 C698 0.950 . S
H687 C699 0.950 . S
C688 H680 0.950 . S
C688 C689 1.386 . S
C688 C690 1.391 . S
C689 C688 1.386 . S
C689 C693 1.393 . S
C690 H682 0.950 . S
C690 C688 1.391 . S
C690 C691 1.400 . S
C691 C690 1.400 . S
C691 C692 1.398 . S
C691 C697 1.491 . S
C692 H683 0.950 . S
C692 C691 1.398 . S
C692 C693 1.391 . S
C693 H681 0.950 . S
C693 C689 1.393 . S
C693 C692 1.391 . S
C694 H684 0.950 . S
C694 C695 1.386 . S
C694 C696 1.391 . S
C695 C694 1.386 . S
C695 C699 1.393 . S
C696 H685 0.950 . S
C696 C694 1.391 . S
C696 C697 1.400 . S
C697 C691 1.491 . S
C697 C696 1.400 . S
C697 C698 1.398 . S
C698 H686 0.950 . S
C698 C697 1.398 . S
C698 C699 1.391 . S
C699 H687 0.950 . S
C699 C695 1.393 . S
C699 C698 1.391 . S
H700 C708 0.950 . S
H701 C713 0.950 . S
H702 C710 0.950 . S
H703 C712 0.950 . S
H704 C714 0.950 . S
H705 C716 0.950 . S
H706 C718 0.950 . S
H707 C719 0.950 . S
C708 H700 0.950 . S
C708 C709 1.386 . S
C708 C710 1.391 . S
C709 C708 1.386 . S
C709 C713 1.393 . S
C710 H702 0.950 . S
C710 C708 1.391 . S
C710 C711 1.400 . S
C711 C710 1.400 . S
C711 C712 1.398 . S
C711 C717 1.491 . S
C712 H703 0.950 . S
C712 C711 1.398 . S
C712 C713 1.391 . S
C713 H701 0.950 . S
C713 C709 1.393 . S
C713 C712 1.391 . S
C714 H704 0.950 . S
C714 C715 1.386 . S
C714 C716 1.391 . S
C715 C714 1.386 . S
C715 C719 1.393 . S
C716 H705 0.950 . S
C716 C714 1.391 . S
C716 C717 1.400 . S
C717 C711 1.491 . S
C717 C716 1.400 . S
C717 C718 1.398 . S
C718 H706 0.950 . S
C718 C717 1.398 . S
C718 C719 1.391 . S
C719 H707 0.950 . S
C719 C715 1.393 . S
C719 C718 1.391 . S
H720 C728 0.950 . S
H721 C733 0.950 . S
H722 C730 0.950 . S
H723 C732 0.950 . S
H724 C734 0.950 . S
H725 C736 0.950 . S
H726 C738 0.950 . S
H727 C739 0.950 . S
C728 H720 0.950 . S
C728 C729 1.385 . S
C728 C730 1.391 . S
C729 C728 1.385 . S
C729 C733 1.393 1_554 S
C730 H722 0.950 . S
C730 C728 1.391 . S
C730 C731 1.405 . S
C731 C730 1.405 . S
C731 C732 1.393 1_554 S
C731 C737 1.491 . S
C732 H723 0.950 . S
C732 C731 1.393 1_556 S
C732 C733 1.391 . S
C733 H721 0.950 . S
C733 C729 1.393 1_556 S
C733 C732 1.391 . S
C734 H724 0.950 . S
C734 C735 1.386 1_556 S
C734 C736 1.391 . S
C735 C734 1.386 1_554 S
C735 C739 1.393 . S
C736 H725 0.950 . S
C736 C734 1.391 . S
C736 C737 1.400 1_556 S
C737 C731 1.491 . S
C737 C736 1.400 1_554 S
C737 C738 1.398 . S
C738 H726 0.950 . S
C738 C737 1.398 . S
C738 C739 1.391 . S
C739 H727 0.950 . S
C739 C735 1.393 . S
C739 C738 1.391 . S
H740 C748 0.950 . S
H741 C753 0.950 . S
H742 C750 0.950 . S
H743 C752 0.950 . S
H744 C754 0.950 . S
H745 C756 0.950 . S
H746 C758 0.950 . S
H747 C759 0.950 . S
C748 H740 0.950 . S
C748 C749 1.386 . S
C748 C750 1.391 . S
C749 C748 1.386 . S
C749 C753 1.393 . S
C750 H742 0.950 . S
C750 C748 1.391 . S
C750 C751 1.400 . S
C751 C750 1.400 . S
C751 C752 1.398 . S
C751 C757 1.491 . S
C752 H743 0.950 . S
C752 C751 1.398 . S
C752 C753 1.391 . S
C753 H741 0.950 . S
C753 C749 1.393 . S
C753 C752 1.391 . S
C754 H744 0.950 . S
C754 C755 1.386 . S
C754 C756 1.391 . S
C755 C754 1.386 . S
C755 C759 1.393 . S
C756 H745 0.950 . S
C756 C754 1.391 . S
C756 C757 1.400 . S
C757 C751 1.491 . S
C757 C756 1.400 . S
C757 C758 1.398 . S
C758 H746 0.950 . S
C758 C757 1.398 . S
C758 C759 1.391 . S
C759 H747 0.950 . S
C759 C755 1.393 . S
C759 C758 1.391 . S
H760 C768 0.950 . S
H761 C773 0.950 . S
H762 C770 0.950 . S
H763 C772 0.950 . S
H764 C774 0.950 . S
H765 C776 0.950 . S
H766 C778 0.950 . S
H767 C779 0.950 . S
C768 H760 0.950 . S
C768 C769 1.386 . S
C768 C770 1.391 . S
C769 C768 1.386 . S
C769 C773 1.393 1_554 S
C770 H762 0.950 . S
C770 C768 1.391 . S
C770 C771 1.400 . S
C771 C770 1.400 . S
C771 C772 1.398 1_554 S
C771 C777 1.491 . S
C772 H763 0.950 . S
C772 C771 1.398 1_556 S
C772 C773 1.391 . S
C773 H761 0.950 . S
C773 C769 1.393 1_556 S
C773 C772 1.391 . S
C774 H764 0.950 . S
C774 C775 1.386 1_556 S
C774 C776 1.391 . S
C775 C774 1.386 1_554 S
C775 C779 1.393 . S
C776 H765 0.950 . S
C776 C774 1.391 . S
C776 C777 1.400 1_556 S
C777 C771 1.491 . S
C777 C776 1.400 1_554 S
C777 C778 1.398 . S
C778 H766 0.950 . S
C778 C777 1.398 . S
C778 C779 1.391 . S
C779 H767 0.950 . S
C779 C775 1.393 . S
C779 C778 1.391 . S
H780 C788 0.950 . S
H781 C793 0.950 . S
H782 C790 0.950 . S
H783 C792 0.950 . S
H784 C794 0.950 . S
H785 C796 0.950 . S
H786 C798 0.950 . S
H787 C799 0.950 . S
C788 H780 0.950 . S
C788 C789 1.386 . S
C788 C790 1.391 . S
C789 C788 1.386 . S
C789 C793 1.393 . S
C790 H782 0.950 . S
C790 C788 1.391 . S
C790 C791 1.400 . S
C791 C790 1.400 . S
C791 C792 1.398 . S
C791 C797 1.491 . S
C792 H783 0.950 . S
C792 C791 1.398 . S
C792 C793 1.391 . S
C793 H781 0.950 . S
C793 C789 1.393 . S
C793 C792 1.391 . S
C794 H784 0.950 . S
C794 C795 1.386 . S
C794 C796 1.391 . S
C795 C794 1.386 . S
C795 C799 1.393 . S
C796 H785 0.950 . S
C796 C794 1.391 . S
C796 C797 1.400 . S
C797 C791 1.491 . S
C797 C796 1.400 . S
C797 C798 1.398 . S
C798 H786 0.950 . S
C798 C797 1.398 . S
C798 C799 1.391 . S
C799 H787 0.950 . S
C799 C795 1.393 . S
C799 C798 1.391 . S
H800 C808 0.950 . S
H801 C813 0.950 . S
H802 C810 0.950 . S
H803 C812 0.950 . S
H804 C814 0.950 . S
H805 C816 0.950 . S
H806 C818 0.950 . S
H807 C819 0.950 . S
C808 H800 0.950 . S
C808 C809 1.386 . S
C808 C810 1.391 . S
C809 C808 1.386 . S
C809 C813 1.393 . S
C810 H802 0.950 . S
C810 C808 1.391 . S
C810 C811 1.400 . S
C811 C810 1.400 . S
C811 C812 1.398 . S
C811 C817 1.491 . S
C812 H803 0.950 . S
C812 C811 1.398 . S
C812 C813 1.391 . S
C813 H801 0.950 . S
C813 C809 1.393 . S
C813 C812 1.391 . S
C814 H804 0.950 . S
C814 C815 1.386 . S
C814 C816 1.391 . S
C815 C814 1.386 . S
C815 C819 1.393 . S
C816 H805 0.950 . S
C816 C814 1.391 . S
C816 C817 1.400 . S
C817 C811 1.491 . S
C817 C816 1.400 . S
C817 C818 1.398 . S
C818 H806 0.950 . S
C818 C817 1.398 . S
C818 C819 1.391 . S
C819 H807 0.950 . S
C819 C815 1.393 . S
C819 C818 1.391 . S
H820 C828 0.950 . S
H821 C833 0.950 . S
H822 C830 0.950 . S
H823 C832 0.950 . S
H824 C834 0.950 . S
H825 C836 0.950 . S
H826 C838 0.950 . S
H827 C839 0.950 . S
C828 H820 0.950 . S
C828 C829 1.374 1_556 S
C828 C830 1.391 . S
C829 C828 1.374 1_554 S
C829 C833 1.404 . S
C830 H822 0.950 . S
C830 C828 1.391 . S
C830 C831 1.389 1_556 S
C831 C830 1.389 1_554 S
C831 C832 1.409 . S
C831 C837 1.491 . S
C832 H823 0.950 . S
C832 C831 1.409 . S
C832 C833 1.391 . S
C833 H821 0.950 . S
C833 C829 1.404 . S
C833 C832 1.391 . S
C834 H824 0.950 . S
C834 C835 1.395 . S
C834 C836 1.391 . S
C835 C834 1.395 . S
C835 C839 1.383 1_554 S
C836 H825 0.950 . S
C836 C834 1.391 . S
C836 C837 1.410 . S
C837 C831 1.491 . S
C837 C836 1.410 . S
C837 C838 1.388 1_554 S
C838 H826 0.950 . S
C838 C837 1.388 1_556 S
C838 C839 1.391 . S
C839 H827 0.950 . S
C839 C835 1.383 1_556 S
C839 C838 1.391 . S
H840 C848 0.950 . S
H841 C853 0.950 . S
H842 C850 0.950 . S
H843 C852 0.950 . S
H844 C854 0.950 . S
H845 C856 0.950 . S
H846 C858 0.950 . S
H847 C859 0.950 . S
C848 H840 0.950 . S
C848 C849 1.386 . S
C848 C850 1.391 . S
C849 C848 1.386 . S
C849 C853 1.393 . S
C850 H842 0.950 . S
C850 C848 1.391 . S
C850 C851 1.400 . S
C851 C850 1.400 . S
C851 C852 1.398 . S
C851 C857 1.491 . S
C852 H843 0.950 . S
C852 C851 1.398 . S
C852 C853 1.391 . S
C853 H841 0.950 . S
C853 C849 1.393 . S
C853 C852 1.391 . S
C854 H844 0.950 . S
C854 C855 1.386 . S
C854 C856 1.391 . S
C855 C854 1.386 . S
C855 C859 1.393 . S
C856 H845 0.950 . S
C856 C854 1.391 . S
C856 C857 1.400 . S
C857 C851 1.491 . S
C857 C856 1.400 . S
C857 C858 1.398 . S
C858 H846 0.950 . S
C858 C857 1.398 . S
C858 C859 1.391 . S
C859 H847 0.950 . S
C859 C855 1.393 . S
C859 C858 1.391 . S
H860 C868 0.950 . S
H861 C873 0.950 . S
H862 C870 0.950 . S
H863 C872 0.950 . S
H864 C874 0.950 . S
H865 C876 0.950 . S
H866 C878 0.950 . S
H867 C879 0.950 . S
C868 H860 0.950 . S
C868 C869 1.386 1_554 S
C868 C870 1.391 . S
C869 C868 1.386 1_556 S
C869 C873 1.393 . S
C870 H862 0.950 . S
C870 C868 1.391 . S
C870 C871 1.397 1_554 S
C871 C870 1.397 1_556 S
C871 C872 1.402 . S
C871 C877 1.490 1_556 S
C872 H863 0.950 . S
C872 C871 1.402 . S
C872 C873 1.391 . S
C873 H861 0.950 . S
C873 C869 1.393 . S
C873 C872 1.391 . S
C874 H864 0.950 . S
C874 C875 1.386 1_556 S
C874 C876 1.391 . S
C875 C874 1.386 1_554 S
C875 C879 1.393 . S
C876 H865 0.950 . S
C876 C874 1.391 . S
C876 C877 1.400 1_556 S
C877 C871 1.490 1_554 S
C877 C876 1.400 1_554 S
C877 C878 1.398 . S
C878 H866 0.950 . S
C878 C877 1.398 . S
C878 C879 1.391 . S
C879 H867 0.950 . S
C879 C875 1.393 . S
C879 C878 1.391 . S
C409 C21 1.612 . S
C415 C221 1.597 . S
C429 C40 1.735 . S
C435 C89 1.680 . S
C455 C128 1.568 . S
C449 C54 1.591 . S
C469 C73 1.775 . S
C475 C182 1.718 . S
C495 C284 1.570 . S
C489 C74 1.593 . S
C515 C338 1.674 . S
C509 C10 1.736 . S
C535 C377 1.601 . S
C529 C37 1.610 . S
C555 C245 1.734 . S
C549 C65 1.777 . S
C569 C52 1.590 . S
C575 C143 1.566 . S
C589 C87 1.773 . S
C595 C167 1.728 . S
C609 C15 1.616 . S
C615 C206 1.606 . S
C635 C104 1.661 . S
C629 C32 1.729 . S
C649 C29 1.630 . S
C655 C362 1.617 . S
C675 C260 1.720 . S
C669 C59 1.775 . S
C695 C299 1.568 . S
C689 C84 1.598 . S
C709 C8 1.730 . S
C715 C323 1.662 . S
C735 C109 1.810 . S
C729 C7 1.848 . S
C755 C148 1.662 . S
C749 C30 1.686 . S
C769 C62 1.867 . S
C775 C187 1.812 . S
C789 C81 1.664 . S
C795 C226 1.672 . S
C815 C265 1.824 . S
C809 C76 1.867 . S
C829 C18 1.675 1_554 S
C835 C304 1.647 1_554 S
C849 C43 1.850 . S
C855 C343 1.776 . S
C869 C51 1.666 . S
C875 C382 1.674 . S
