# Generated by pormake.
# Topology zzz, (3,6)-cn, num edge types: 1
# Building blocks:
#     Node 0, Type 0, BuildingBlock: MIDCAF_clean_linker_0, # of connection points: 3
#     Node 1, Type 0, BuildingBlock: MIDCAF_clean_linker_0, # of connection points: 3
#     Node 2, Type 0, BuildingBlock: MIDCAF_clean_linker_0, # of connection points: 3
#     Node 3, Type 0, BuildingBlock: MIDCAF_clean_linker_0, # of connection points: 3
#     Node 4, Type 0, BuildingBlock: MIDCAF_clean_linker_0, # of connection points: 3
#     Node 5, Type 0, BuildingBlock: MIDCAF_clean_linker_0, # of connection points: 3
#     Node 6, Type 0, BuildingBlock: MIDCAF_clean_linker_0, # of connection points: 3
#     Node 7, Type 0, BuildingBlock: MIDCAF_clean_linker_0, # of connection points: 3
#     Node 8, Type 1, BuildingBlock: KUMBUR_clean_sbu_1, # of connection points: 6
#     Node 9, Type 1, BuildingBlock: KUMBUR_clean_sbu_1, # of connection points: 6
#     Node 10, Type 1, BuildingBlock: KUMBUR_clean_sbu_1, # of connection points: 6
#     Node 11, Type 1, BuildingBlock: KUMBUR_clean_sbu_1, # of connection points: 6
#     Edge 12, Type (0, 1), BuildingBlock: TEMPAE_clean_linker_10, # of connection points: 2
#     Edge 13, Type (0, 1), BuildingBlock: TEMPAE_clean_linker_10, # of connection points: 2
#     Edge 14, Type (0, 1), BuildingBlock: TEMPAE_clean_linker_10, # of connection points: 2
#     Edge 15, Type (0, 1), BuildingBlock: TEMPAE_clean_linker_10, # of connection points: 2
#     Edge 16, Type (0, 1), BuildingBlock: TEMPAE_clean_linker_10, # of connection points: 2
#     Edge 17, Type (0, 1), BuildingBlock: TEMPAE_clean_linker_10, # of connection points: 2
#     Edge 18, Type (0, 1), BuildingBlock: TEMPAE_clean_linker_10, # of connection points: 2
#     Edge 19, Type (0, 1), BuildingBlock: TEMPAE_clean_linker_10, # of connection points: 2
#     Edge 20, Type (0, 1), BuildingBlock: TEMPAE_clean_linker_10, # of connection points: 2
#     Edge 21, Type (0, 1), BuildingBlock: TEMPAE_clean_linker_10, # of connection points: 2
#     Edge 22, Type (0, 1), BuildingBlock: TEMPAE_clean_linker_10, # of connection points: 2
#     Edge 23, Type (0, 1), BuildingBlock: TEMPAE_clean_linker_10, # of connection points: 2
#     Edge 24, Type (0, 1), BuildingBlock: TEMPAE_clean_linker_10, # of connection points: 2
#     Edge 25, Type (0, 1), BuildingBlock: TEMPAE_clean_linker_10, # of connection points: 2
#     Edge 26, Type (0, 1), BuildingBlock: TEMPAE_clean_linker_10, # of connection points: 2
#     Edge 27, Type (0, 1), BuildingBlock: TEMPAE_clean_linker_10, # of connection points: 2
#     Edge 28, Type (0, 1), BuildingBlock: TEMPAE_clean_linker_10, # of connection points: 2
#     Edge 29, Type (0, 1), BuildingBlock: TEMPAE_clean_linker_10, # of connection points: 2
#     Edge 30, Type (0, 1), BuildingBlock: TEMPAE_clean_linker_10, # of connection points: 2
#     Edge 31, Type (0, 1), BuildingBlock: TEMPAE_clean_linker_10, # of connection points: 2
#     Edge 32, Type (0, 1), BuildingBlock: TEMPAE_clean_linker_10, # of connection points: 2
#     Edge 33, Type (0, 1), BuildingBlock: TEMPAE_clean_linker_10, # of connection points: 2
#     Edge 34, Type (0, 1), BuildingBlock: TEMPAE_clean_linker_10, # of connection points: 2
#     Edge 35, Type (0, 1), BuildingBlock: TEMPAE_clean_linker_10, # of connection points: 2
# Relax obj value: 0.314
# Max RMSD: 0.210
# Mean RMSD: 0.182
data_MOF--net-zzz--node1-KUMBUR_clean_sbu_1--node2-MIDCAF_clean_linker_0--edge1-TEMPAE_clean_linker_10
_symmetry_space_group_name_H-M    P1
_symmetry_Int_Tables_number       1
_symmetry_cell_setting            triclinic
loop_
_symmetry_equiv_pos_as_xyz
'x, y, z'
_cell_length_a     56.835961
_cell_length_b     56.890706
_cell_length_c     21.202086
_cell_angle_alpha  89.943326
_cell_angle_beta   89.975146
_cell_angle_gamma 90.497891
loop_
_atom_site_label
_atom_site_type_symbol
_atom_site_fract_x
_atom_site_fract_y
_atom_site_fract_z
_atom_type_partial_charge
C0 C 0.81711 0.56994 0.35941 0.0
C1 C 0.81958 0.54753 0.38632 0.0
C2 C 0.80222 0.53034 0.373 0.0
C3 C 0.78405 0.53495 0.3294 0.0
H4 H 0.72432 0.5175 0.1034 0.0
H5 H 0.688 0.51252 0.0433 0.0
H6 H 0.65904 0.57351 0.13482 0.0
H7 H 0.69567 0.57836 0.19527 0.0
H8 H 0.76054 0.57283 1.00572 0.0
H9 H 0.78707 0.56886 0.91623 0.0
H10 H 0.84662 0.57305 0.04277 0.0
H11 H 0.82041 0.57808 0.13095 0.0
H12 H 0.79875 0.59157 0.29358 0.0
H13 H 0.82981 0.58374 0.36952 0.0
H14 H 0.80358 0.51289 0.39301 0.0
H15 H 0.77216 0.52085 0.31599 0.0
N16 N 0.74683 0.55315 0.22956 0.0
N17 N 0.75022 0.56373 0.12224 0.0
N18 N 0.78244 0.5683 0.189 0.0
C19 C 0.73693 0.55559 0.17085 0.0
C20 C 0.77294 0.57018 0.1308 0.0
C21 C 0.76981 0.55995 0.23858 0.0
C22 C 0.71265 0.54797 0.15517 0.0
C23 C 0.70979 0.52919 0.11283 0.0
C24 C 0.68911 0.52661 0.07753 0.0
C25 C 0.67071 0.54287 0.08327 0.0
C26 C 0.6728 0.56063 0.12932 0.0
C27 C 0.69367 0.56326 0.16457 0.0
C28 C 0.78833 0.57488 0.07583 0.0
C29 C 0.77932 0.57369 0.01412 0.0
C30 C 0.79453 0.57131 0.96278 0.0
C31 C 0.81896 0.56984 0.97238 0.0
C32 C 0.82794 0.57404 0.03319 0.0
C33 C 0.81279 0.57669 0.08426 0.0
C34 C 0.78288 0.55688 0.29883 0.0
C35 C 0.79908 0.57452 0.31642 0.0
C36 C 0.99163 0.80412 0.3898 0.0
C37 C 1.00541 0.82384 0.37225 0.0
C38 C 0.01635 0.82352 0.31268 0.0
C39 C 0.01221 0.80505 0.27023 0.0
H40 H 0.02158 0.71379 0.16818 0.0
H41 H 0.02876 0.67711 0.11018 0.0
H42 H 0.95474 0.67234 0.06518 0.0
H43 H 0.94776 0.70813 0.12383 0.0
H44 H 0.93881 0.76063 0.03556 0.0
H45 H 0.93068 0.78468 0.94315 0.0
H46 H 0.95469 0.84627 0.04513 0.0
H47 H 0.96125 0.82272 0.13715 0.0
H48 H 0.97508 0.77176 0.35973 0.0
H49 H 0.9828 0.80374 0.43506 0.0
H50 H 0.02738 0.8381 0.2977 0.0
H51 H 0.01951 0.80636 0.22311 0.0
N52 N 0.99026 0.74926 0.22186 0.0
N53 N 0.96624 0.75176 0.13141 0.0
N54 N 0.97268 0.78507 0.19303 0.0
C55 C 0.97987 0.73872 0.17044 0.0
C56 C 0.9626 0.77487 0.14207 0.0
C57 C 0.98617 0.77264 0.23354 0.0
C58 C 0.98407 0.71386 0.15111 0.0
C59 C 1.0068 0.70436 0.14784 0.0
C60 C 0.01092 0.68351 0.11353 0.0
C61 C 0.99239 0.67163 0.082 0.0
C62 C 0.96951 0.68054 0.08898 0.0
C63 C 0.96547 0.70124 0.12278 0.0
C64 C 0.95149 0.78962 0.09304 0.0
C65 C 0.9416 0.77945 0.03864 0.0
C66 C 0.93706 0.79325 0.98544 0.0
C67 C 0.94278 0.81739 0.98532 0.0
C68 C 0.94995 0.82783 0.04248 0.0
C69 C 0.95404 0.81416 0.09575 0.0
C70 C 0.99716 0.78619 0.28595 0.0
C71 C 0.98741 0.78559 0.34693 0.0
C72 C 0.72413 0.96989 0.3975 0.0
C73 C 0.7135 0.99214 0.40201 0.0
C74 C 0.72324 0.01064 0.36563 0.0
C75 C 0.74177 1.00655 0.32293 0.0
H76 H 0.80116 1.00968 0.0809 0.0
H77 H 0.83735 0.0147 0.02056 0.0
H78 H 0.87587 0.97832 0.16567 0.0
H79 H 0.8392 0.9733 0.22657 0.0
H80 H 0.75853 0.97324 0.03315 0.0
H81 H 0.72604 0.96699 0.96223 0.0
H82 H 0.6954 0.91694 0.09347 0.0
H83 H 0.72723 0.92528 0.16742 0.0
H84 H 0.74872 0.94802 0.34854 0.0
H85 H 0.71776 0.95526 0.42559 0.0
H86 H 0.7156 0.02799 0.36687 0.0
H87 H 0.74752 0.0207 0.2922 0.0
N88 N 0.78528 0.98667 0.2403 0.0
N89 N 0.78166 0.96912 0.1401 0.0
N90 N 0.75148 0.96444 0.21379 0.0
C91 C 0.7945 0.98187 0.18191 0.0
C92 C 0.76035 0.96017 0.15572 0.0
C93 C 0.7636 0.97763 0.25631 0.0
C94 C 0.81736 0.99137 0.15889 0.0
C95 C 0.8175 1.00351 0.10113 0.0
C96 C 0.8382 1.00608 0.06608 0.0
C97 C 0.85945 0.99647 0.08753 0.0
C98 C 0.85979 0.98591 0.14776 0.0
C99 C 0.83886 0.98326 0.18302 0.0
C100 C 0.74496 0.95028 0.10645 0.0
C101 C 0.74517 0.96042 0.04615 0.0
C102 C 0.72643 0.9566 1.00496 0.0
C103 C 0.70733 0.94205 0.02263 0.0
C104 C 0.70911 0.92917 0.0793 0.0
C105 C 0.72746 0.93371 0.12157 0.0
C106 C 0.75096 0.98388 0.31526 0.0
C107 C 0.74231 0.96578 0.3542 0.0
C108 C 0.57248 0.70933 0.06018 0.0
C109 C 0.57895 0.71856 1.00084 0.0
C110 C 0.5836 0.74287 0.99628 0.0
C111 C 0.5787 0.75779 0.04695 0.0
H112 H 0.51317 0.80405 0.06192 0.0
H113 H 0.50755 0.83998 1.00198 0.0
H114 H 0.53621 0.8804 0.15671 0.0
H115 H 0.54216 0.84384 0.21661 0.0
H116 H 0.49642 0.74544 0.26792 0.0
H117 H 0.48932 0.71396 0.34491 0.0
H118 H 0.55659 0.72881 0.43093 0.0
H119 H 0.56365 0.76003 0.35337 0.0
H120 H 0.56147 0.7164 0.15426 0.0
H121 H 0.5685 0.69085 0.06651 0.0
H122 H 0.58947 0.75064 0.95232 0.0
H123 H 0.58063 0.77659 0.04035 0.0
N124 N 0.55055 0.78551 0.13261 0.0
N125 N 0.53009 0.78967 0.22867 0.0
N126 N 0.55195 0.75552 0.20761 0.0
C127 C 0.53673 0.79857 0.17098 0.0
C128 C 0.5381 0.768 0.24719 0.0
C129 C 0.55832 0.7641 0.15047 0.0
C130 C 0.52777 0.82106 0.14448 0.0
C131 C 0.51758 0.82068 0.08404 0.0
C132 C 0.51437 0.84141 0.0495 0.0
C133 C 0.52149 0.86335 0.07389 0.0
C134 C 0.53072 0.86388 0.13585 0.0
C135 C 0.53378 0.84298 0.17079 0.0
C136 C 0.53027 0.75577 0.30569 0.0
C137 C 0.50917 0.74269 0.30512 0.0
C138 C 0.50532 0.72433 0.3486 0.0
C139 C 0.52246 0.7186 0.39407 0.0
C140 C 0.54288 0.73277 0.39719 0.0
C141 C 0.54685 0.75088 0.35308 0.0
C142 C 0.56967 0.74861 0.10367 0.0
C143 C 0.56815 0.72414 0.11105 0.0
C144 C 0.21607 0.52059 0.97692 0.0
C145 C 0.21432 0.50657 0.92248 0.0
C146 C 0.2322 0.49005 0.91107 0.0
C147 C 0.25018 0.48634 0.95568 0.0
H148 H 0.3214 0.52551 0.14482 0.0
H149 H 0.35731 0.53122 0.20748 0.0
H150 H 0.36195 0.45611 0.23388 0.0
H151 H 0.32586 0.45072 0.17347 0.0
H152 H 0.26903 0.46224 0.29159 0.0
H153 H 0.2417 0.46323 0.38004 0.0
H154 H 0.18349 0.46766 0.24946 0.0
H155 H 0.21046 0.46573 0.16185 0.0
H156 H 0.23371 0.52682 0.06476 0.0
H157 H 0.20289 0.53371 0.98692 0.0
H158 H 0.23137 0.47885 0.86985 0.0
H159 H 0.26239 0.47209 0.9484 0.0
N160 N 0.28662 0.49275 0.07985 0.0
N161 N 0.2815 0.47413 0.17849 0.0
N162 N 0.24914 0.47975 0.11292 0.0
C163 C 0.29591 0.48439 0.1352 0.0
C164 C 0.25812 0.47178 0.16789 0.0
C165 C 0.263 0.48993 0.06849 0.0
C166 C 0.32094 0.48765 0.15366 0.0
C167 C 0.33065 0.51023 0.16206 0.0
C168 C 0.35117 0.51347 0.1985 0.0
C169 C 0.3624 0.49416 0.22723 0.0
C170 C 0.35356 0.47148 0.21423 0.0
C171 C 0.33306 0.46832 0.17857 0.0
C172 C 0.24199 0.46486 0.21963 0.0
C173 C 0.25034 0.46258 0.28176 0.0
C174 C 0.23467 0.46324 0.33256 0.0
C175 C 0.21047 0.46633 0.32201 0.0
C176 C 0.20199 0.46537 0.25974 0.0
C177 C 0.21758 0.46453 0.20912 0.0
C178 C 0.25084 0.49931 0.01206 0.0
C179 C 0.23401 0.51696 0.02107 0.0
C180 C 0.02043 0.22737 0.94673 0.0
C181 C 0.03888 0.21933 0.90798 0.0
C182 C 0.06041 0.2318 0.90978 0.0
C183 C 0.06398 0.25039 0.95242 0.0
H184 H 0.01444 0.32745 0.1244 0.0
H185 H 1.00739 0.36358 0.18498 0.0
H186 H 0.0813 0.36724 0.23185 0.0
H187 H 0.08811 0.33189 0.17081 0.0
H188 H 0.07962 0.27653 0.27731 0.0
H189 H 0.07787 0.24947 0.36645 0.0
H190 H 0.0749 0.19073 0.23849 0.0
H191 H 0.07674 0.21745 0.14894 0.0
H192 H 0.0102 0.2503 0.02251 0.0
H193 H 1.00366 0.21819 0.9474 0.0
H194 H 0.07496 0.22651 0.88017 0.0
H195 H 0.08138 0.25822 0.95606 0.0
N196 N 0.04853 0.29268 0.06613 0.0
N197 N 0.0663 0.28804 0.1658 0.0
N198 N 0.06342 0.25595 0.09793 0.0
C199 C 0.05574 0.30208 0.12272 0.0
C200 C 0.0701 0.26502 0.15417 0.0
C201 C 0.05288 0.26941 0.05356 0.0
C202 C 0.0519 0.32696 0.14194 0.0
C203 C 0.02924 0.3366 0.14554 0.0
C204 C 0.02519 0.35709 0.18139 0.0
C205 C 0.04371 0.36845 0.21429 0.0
C206 C 0.06654 0.35944 0.20701 0.0
C207 C 0.07051 0.33906 0.1717 0.0
C208 C 0.07739 0.24919 0.20592 0.0
C209 C 0.07958 0.25783 0.2679 0.0
C210 C 0.07884 0.24237 0.31912 0.0
C211 C 0.07605 0.2182 0.3088 0.0
C212 C 0.07712 0.20938 0.24717 0.0
C213 C 0.07794 0.22476 0.19599 0.0
C214 C 0.04609 0.25733 0.99405 0.0
C215 C 0.02405 0.24602 0.98947 0.0
C216 C 0.30747 0.06021 0.92599 0.0
C217 C 0.31272 0.03647 0.9144 0.0
C218 C 0.2989 0.01919 0.9455 0.0
C219 C 0.28135 0.02557 0.98932 0.0
H220 H 0.18825 0.06497 0.1062 0.0
H221 H 0.15358 0.05816 0.17297 0.0
H222 H 0.19542 0.01541 0.29767 0.0
H223 H 0.22992 0.02274 0.23152 0.0
H224 H 0.25781 0.08958 0.27788 0.0
H225 H 0.2881 0.10159 0.35269 0.0
H226 H 0.33533 0.11678 0.19784 0.0
H227 H 0.30502 0.10575 0.12361 0.0
H228 H 0.2876 0.085 0.9791 0.0
H229 H 0.31772 0.07418 0.90437 0.0
H230 H 0.3021 1.0007 0.93743 0.0
H231 H 0.27208 0.01192 0.01517 0.0
N232 N 0.24355 0.04672 0.08087 0.0
N233 N 0.24474 0.07076 0.17163 0.0
N234 N 0.27454 0.07376 0.09647 0.0
C235 C 0.2336 0.05415 0.13636 0.0
C236 C 0.26515 0.08076 0.15189 0.0
C237 C 0.26417 0.05692 0.06056 0.0
C238 C 0.21165 0.04389 0.1628 0.0
C239 C 0.18971 0.05332 0.14645 0.0
C240 C 0.16989 0.04957 0.18517 0.0
C241 C 0.17166 0.03652 0.24156 0.0
C242 C 0.19338 0.02593 0.25546 0.0
C243 C 0.2131 0.02972 0.21689 0.0
C244 C 0.27941 0.09564 0.19487 0.0
C245 C 0.27431 0.09643 0.25973 0.0
C246 C 0.29171 0.1033 0.30272 0.0
C247 C 0.31446 0.10923 0.28143 0.0
C248 C 0.31814 0.1121 0.21628 0.0
C249 C 0.30075 0.10542 0.17341 0.0
C250 C 0.27729 0.04937 1.00314 0.0
C251 C 0.2901 0.0665 0.96935 0.0
C252 C 0.41341 0.3155 0.20491 0.0
C253 C 0.42127 0.31335 0.2675 0.0
C254 C 0.42828 0.29112 0.28922 0.0
C255 C 0.43204 0.27293 0.24637 0.0
H256 H 0.44181 0.19522 0.14266 0.0
H257 H 0.45104 0.16119 0.20624 0.0
H258 H 0.5243 0.18218 0.2083 0.0
H259 H 0.51451 0.2172 0.14556 0.0
H260 H 0.44213 0.28846 0.96504 0.0
H261 H 0.45283 0.32247 0.90089 0.0
H262 H 0.52579 0.3129 0.94853 0.0
H263 H 0.51494 0.27872 0.01496 0.0
H264 H 0.41434 0.30074 0.11226 0.0
H265 H 0.40715 0.33221 0.18739 0.0
H266 H 0.43414 0.28868 0.33737 0.0
H267 H 0.44039 0.25709 0.26326 0.0
N268 N 0.45228 0.24254 0.15156 0.0
N269 N 0.47868 0.24437 0.06553 0.0
N270 N 0.45191 0.27496 0.0846 0.0
C271 C 0.46951 0.23247 0.11672 0.0
C272 C 0.46931 0.26574 0.04886 0.0
C273 C 0.44343 0.26373 0.13603 0.0
C274 C 0.47744 0.20883 0.13814 0.0
C275 C 0.46005 0.19223 0.15495 0.0
C276 C 0.46542 0.17256 0.19174 0.0
C277 C 0.48849 0.16863 0.2133 0.0
C278 C 0.50625 0.18463 0.19357 0.0
C279 C 0.50079 0.20451 0.15643 0.0
C280 C 0.47767 0.28065 0.99503 0.0
C281 C 0.4606 0.29303 0.9604 0.0
C282 C 0.46667 0.31268 0.92389 0.0
C283 C 0.49008 0.32051 0.92001 0.0
C284 C 0.50758 0.30719 0.95047 0.0
C285 C 0.50141 0.28746 0.98793 0.0
C286 C 0.42904 0.27697 0.18151 0.0
C287 C 0.41755 0.29747 0.16186 0.0
Tb288 Tb 0.99008 0.02692 0.61228 0.0
C289 C 0.07895 0.04809 0.75288 0.0
N290 N 0.07519 0.03158 0.70766 0.0
C291 C 0.10988 0.04494 0.65295 0.0
C292 C 0.09769 0.06441 0.74844 0.0
C293 C 0.09132 0.02886 0.66036 0.0
C294 C 0.11281 0.06311 0.69653 0.0
C295 C 0.06886 0.06329 0.85607 0.0
C296 C 0.06488 0.04756 0.80591 0.0
C297 C 0.08699 0.08012 0.8511 0.0
C298 C 0.10128 0.08079 0.79717 0.0
Tb299 Tb 0.04295 1.00747 0.72274 0.0
N300 N 0.04747 0.03115 0.80871 0.0
C301 C 0.05477 0.0613 0.91005 0.0
C302 C 0.03445 0.02826 0.86239 0.0
C303 C 0.03766 0.04352 0.91349 0.0
H304 H 0.09036 0.01405 0.62869 0.0
H305 H 0.02694 0.04157 0.95541 0.0
H306 H 0.94525 0.99778 0.67205 0.0
H307 H 0.01989 0.03528 0.37001 0.0
H308 H 0.02126 0.01451 0.86509 0.0
H309 H 0.0572 0.07311 0.9496 0.0
H310 H 0.01429 0.04866 0.47925 0.0
H311 H 0.12218 0.04302 0.61434 0.0
H312 H 0.09046 0.0923 0.88926 0.0
H313 H 0.11551 0.09356 0.7945 0.0
H314 H 0.91771 0.96613 0.63851 0.0
H315 H 0.12741 0.07533 0.69124 0.0
H316 H 1.0002 0.99888 0.3329 0.0
N317 N 0.96472 0.99725 0.58646 0.0
C318 C 0.96616 0.98886 0.52675 0.0
C319 C 0.9314 0.97221 0.60683 0.0
C320 C 0.95106 0.97076 0.50562 0.0
C321 C 0.94701 0.99002 0.62577 0.0
C322 C 0.93363 0.96231 0.54676 0.0
N323 N 0.99446 0.01834 0.50707 0.0
C324 C 1.00672 0.03202 0.46504 0.0
C325 C 0.98374 0.99169 0.42309 0.0
C326 C 0.9821 0.99935 0.48615 0.0
C327 C 0.99835 1.00423 0.38168 0.0
C328 C 0.00951 0.02477 0.40246 0.0
H329 H 0.92159 0.94848 0.53226 0.0
H330 H 0.9424 0.94792 0.42707 0.0
H331 H 0.97118 0.96616 0.35477 0.0
O332 O 0.96794 0.04718 0.55482 0.0
O333 O 0.99474 0.98893 0.63396 0.0
O334 O 0.03456 0.98479 0.64212 0.0
O335 O 0.96367 0.04699 0.65525 0.0
O336 O 0.02593 0.038 0.58322 0.0
O337 O 0.04905 1.008 0.6201 0.0
O338 O 0.04126 0.97924 0.78599 0.0
O339 O 0.02369 0.04037 0.74009 0.0
O340 O 0.01537 0.05437 0.64198 0.0
O341 O 0.07427 0.98972 0.74554 0.0
O342 O 1.00764 0.99612 0.7548 0.0
O343 O 0.98222 0.02372 0.71311 0.0
C344 C 0.01385 0.97631 0.62612 0.0
C345 C 0.95591 0.08215 0.60296 0.0
C346 C 0.97471 0.12015 0.58374 0.0
C347 C 0.95317 0.13116 0.59741 0.0
C348 C 0.93468 0.09331 0.61663 0.0
C349 C 0.93342 0.1178 0.61453 0.0
C350 C 0.97596 0.09557 0.58886 0.0
C351 C 0.04451 0.02445 0.57819 0.0
C352 C 0.95712 0.05648 0.60254 0.0
C353 C 0.9535 0.96216 0.44391 0.0
C354 C 0.96994 0.97252 0.40281 0.0
C355 C 0.0213 0.05812 0.70109 0.0
C356 C 0.06543 0.94894 0.7497 0.0
C357 C 0.04805 0.91008 0.73503 0.0
C358 C 0.06539 0.90464 0.69062 0.0
C359 C 0.08291 0.94332 0.70525 0.0
C360 C 0.04838 0.93192 0.76507 0.0
C361 C 0.08289 0.92123 0.67616 0.0
C362 C 0.98788 1.00815 0.75644 0.0
C363 C 0.0628 0.97306 0.77451 0.0
H364 H 0.95123 0.14999 0.59285 0.0
H365 H 0.91909 0.08311 0.62834 0.0
H366 H 0.91693 0.12641 0.62455 0.0
H367 H 0.99239 0.08666 0.58024 0.0
H368 H 0.06536 0.88771 0.66733 0.0
H369 H 0.09622 0.95612 0.69184 0.0
H370 H 0.03474 0.93587 0.79921 0.0
H371 H 0.09624 0.9171 0.64159 0.0
Tb372 Tb 0.52118 0.04404 0.69949 0.0
C373 C 0.5293 0.94189 0.60552 0.0
N374 N 0.53117 0.96227 0.57262 0.0
C375 C 0.56571 0.94781 0.52066 0.0
C376 C 0.54617 0.92402 0.59952 0.0
C377 C 0.54821 0.96476 0.52748 0.0
C378 C 0.56496 0.92752 0.55779 0.0
C379 C 0.50562 0.91675 0.67298 0.0
C380 C 0.50939 0.93826 0.64147 0.0
C381 C 0.52288 0.89926 0.66982 0.0
C382 C 0.54317 0.90292 0.63327 0.0
Tb383 Tb 0.5026 0.98967 0.5915 0.0
N384 N 0.49322 0.95561 0.64335 0.0
C385 C 0.48439 0.91334 0.70537 0.0
C386 C 0.47177 0.95178 0.67098 0.0
C387 C 0.46725 0.93082 0.7036 0.0
H388 H 0.54829 0.97975 0.49616 0.0
H389 H 0.45055 0.92812 0.72719 0.0
H390 H 0.47049 0.07032 0.71911 0.0
H391 H 0.60456 0.07608 0.60606 0.0
H392 H 0.45853 0.96527 0.66952 0.0
H393 H 0.48081 0.89708 0.73035 0.0
H394 H 0.57938 0.05008 0.66955 0.0
H395 H 0.5795 0.95021 0.48601 0.0
H396 H 0.52048 0.88269 0.69432 0.0
H397 H 0.55606 0.88905 0.62986 0.0
H398 H 0.45205 0.10787 0.68808 0.0
H399 H 0.57834 0.91426 0.55181 0.0
H400 H 0.58784 0.11144 0.55578 0.0
N401 N 0.50236 0.07745 0.67006 0.0
C402 C 0.5153 0.09345 0.63721 0.0
C403 C 0.46979 0.10396 0.67308 0.0
C404 C 0.50561 0.11509 0.61864 0.0
C405 C 0.48019 0.0827 0.69033 0.0
C406 C 0.48248 0.12015 0.63658 0.0
N407 N 0.54753 0.06784 0.64661 0.0
C408 C 0.57129 0.06426 0.64396 0.0
C409 C 0.55259 0.10445 0.5901 0.0
C410 C 0.53846 0.08816 0.62346 0.0
C411 C 0.57641 0.09944 0.58139 0.0
C412 C 0.58589 0.07947 0.6095 0.0
H413 H 0.47439 0.13658 0.62317 0.0
H414 H 0.51218 0.14765 0.56837 0.0
H415 H 0.55335 0.13831 0.54313 0.0
O416 O 0.54095 0.06525 0.7613 0.0
O417 O 0.49852 0.04827 0.6147 0.0
O418 O 0.5137 0.02238 0.54475 0.0
O419 O 0.50816 0.04995 0.79082 0.0
O420 O 0.54994 0.02067 0.66865 0.0
O421 O 0.53584 1.00862 0.57265 0.0
O422 O 0.47 0.99242 0.54643 0.0
O423 O 0.50525 0.98392 0.69413 0.0
O424 O 0.53366 1.0095 0.73182 0.0
O425 O 0.49672 0.97015 0.50842 0.0
O426 O 0.47315 1.00863 0.63643 0.0
O427 O 0.48796 0.02699 0.72609 0.0
C428 C 0.50469 0.04306 0.55663 0.0
C429 C 0.53749 0.05353 0.86715 0.0
C430 C 0.5661 0.02974 0.92279 0.0
C431 C 0.55779 0.03864 0.98038 0.0
C432 C 0.52924 0.06219 0.92484 0.0
C433 C 0.53933 0.05467 0.9813 0.0
C434 C 0.55568 0.03702 0.86627 0.0
C435 C 0.5535 0.01237 0.61147 0.0
C436 C 0.52675 0.06158 0.80833 0.0
C437 C 0.51936 0.131 0.58356 0.0
C438 C 0.54277 0.12564 0.56904 0.0
C439 C 0.52157 0.98967 0.73533 0.0
C440 C 0.47477 0.99306 0.43644 0.0
C441 C 0.45659 0.0243 0.37502 0.0
C442 C 0.47242 0.01997 0.32553 0.0
C443 C 0.4905 0.98894 0.38653 0.0
C444 C 0.45768 0.01052 0.42972 0.0
C445 C 0.48924 1.00234 0.33137 0.0
C446 C 0.47039 0.01822 0.6928 0.0
C447 C 0.47696 0.98067 0.49738 0.0
H448 H 0.56558 0.03316 0.02459 0.0
H449 H 0.51503 0.07476 0.92614 0.0
H450 H 0.53295 0.06141 0.0258 0.0
H451 H 0.56215 0.03032 0.8217 0.0
H452 H 0.47192 0.03029 0.28262 0.0
H453 H 0.50395 0.97564 0.39036 0.0
H454 H 0.44518 0.0135 0.46744 0.0
H455 H 0.50148 0.99918 0.29323 0.0
Tb456 Tb 0.54071 0.50962 0.61143 0.0
C457 C 0.46221 0.48955 0.79118 0.0
N458 N 0.46175 0.50014 0.7338 0.0
C459 C 0.42889 0.47605 0.703 0.0
C460 C 0.44651 0.47106 0.80593 0.0
C461 C 0.44481 0.49437 0.69062 0.0
C462 C 0.42989 0.46418 0.76068 0.0
C463 C 0.4793 0.48715 0.89552 0.0
C464 C 0.47839 0.49756 0.83519 0.0
C465 C 0.46417 0.46823 0.90998 0.0
C466 C 0.44774 0.46028 0.86538 0.0
Tb467 Tb 0.48762 0.53042 0.71919 0.0
N468 N 0.49225 0.51636 0.82003 0.0
C469 C 0.49474 0.49663 0.94027 0.0
C470 C 0.50563 0.52697 0.86569 0.0
C471 C 0.50767 0.51687 0.92559 0.0
H472 H 0.44382 0.50373 0.6464 0.0
H473 H 0.5188 0.52504 0.96087 0.0
H474 H 0.58706 0.50207 0.70631 0.0
H475 H 0.53533 0.5505 0.38248 0.0
H476 H 0.51437 0.54357 0.85719 0.0
H477 H 0.49605 0.48908 0.98707 0.0
H478 H 0.52255 0.52396 0.46887 0.0
H479 H 0.41581 0.47117 0.6682 0.0
H480 H 0.46465 0.46 0.95607 0.0
H481 H 0.43583 0.44602 0.87763 0.0
H482 H 0.62571 0.52098 0.72293 0.0
H483 H 0.41755 0.44998 0.77015 0.0
H484 H 0.57225 0.57361 0.39313 0.0
N485 N 0.57796 0.52396 0.62848 0.0
C486 C 0.58593 0.53997 0.58588 0.0
C487 C 0.61456 0.52674 0.68468 0.0
C488 C 0.60826 0.55067 0.59216 0.0
C489 C 0.59244 0.51631 0.67561 0.0
C490 C 0.62236 0.5443 0.64339 0.0
N491 N 0.55132 0.53299 0.52846 0.0
C492 C 0.5386 0.5341 0.47378 0.0
C493 C 0.58047 0.55941 0.48527 0.0
C494 C 0.5723 0.54431 0.53338 0.0
C495 C 0.56667 0.56207 0.43106 0.0
C496 C 0.54581 0.54906 0.4249 0.0
H497 H 0.63962 0.55214 0.65006 0.0
H498 H 0.6331 0.57526 0.55022 0.0
H499 H 0.60873 0.5829 0.45646 0.0
O500 O 0.53002 0.47911 0.56593 0.0
O501 O 0.52636 0.54494 0.59227 0.0
O502 O 0.51108 0.55875 0.68611 0.0
O503 O 0.56745 0.48795 0.57189 0.0
O504 O 0.50517 0.50447 0.57163 0.0
O505 O 0.48 0.53124 0.61809 0.0
O506 O 0.46858 0.55006 0.78559 0.0
O507 O 0.49316 0.49316 0.69123 0.0
O508 O 0.53266 0.48884 0.69588 0.0
O509 O 0.45849 0.54979 0.68819 0.0
O510 O 0.52308 0.54279 0.74845 0.0
O511 O 0.54612 0.51244 0.71373 0.0
C512 C 0.51936 0.56224 0.62879 0.0
C513 C 0.55607 0.45142 0.5174 0.0
C514 C 0.53969 0.4173 0.46271 0.0
C515 C 0.56221 0.41252 0.43833 0.0
C516 C 0.57841 0.44639 0.49319 0.0
C517 C 0.58146 0.42681 0.45434 0.0
C518 C 0.53714 0.43632 0.504 0.0
C519 C 0.48562 0.51683 0.57209 0.0
C520 C 0.55145 0.47323 0.55209 0.0
C521 C 0.61609 0.56667 0.54596 0.0
C522 C 0.60225 0.57098 0.49248 0.0
C523 C 0.51149 0.48065 0.70784 0.0
C524 C 0.45422 0.5852 0.74208 0.0
C525 C 0.47319 0.62337 0.75541 0.0
C526 C 0.45215 0.63437 0.738 0.0
C527 C 0.43338 0.59636 0.72405 0.0
C528 C 0.4742 0.59878 0.75694 0.0
C529 C 0.4324 0.62088 0.7219 0.0
C530 C 0.54267 0.53054 0.75088 0.0
C531 C 0.45526 0.55946 0.74283 0.0
H532 H 0.56489 0.39818 0.40566 0.0
H533 H 0.5933 0.45783 0.50302 0.0
H534 H 0.59867 0.42309 0.43505 0.0
H535 H 0.5201 0.43978 0.52474 0.0
H536 H 0.45102 0.65337 0.73702 0.0
H537 H 0.41792 0.5861 0.71158 0.0
H538 H 0.49038 0.59027 0.77095 0.0
H539 H 0.41626 0.62943 0.70815 0.0
Tb540 Tb 0.02361 0.5463 0.5974 0.0
C541 C 0.01575 0.48922 0.8503 0.0
N542 N 0.02686 0.4817 0.79732 0.0
C543 C 0.05744 0.46468 0.86008 0.0
C544 C 0.02529 0.48494 0.91056 0.0
C545 C 0.04725 0.46924 0.80137 0.0
C546 C 0.04648 0.47266 0.91492 0.0
C547 C 0.98289 0.5096 0.89799 0.0
C548 C 0.99479 0.50141 0.84404 0.0
C549 C 0.99233 0.50536 0.9581 0.0
C550 C 0.01348 0.4931 0.96437 0.0
Tb551 Tb 0.00932 0.49173 0.70456 0.0
N552 N 0.98664 0.50611 0.78493 0.0
C553 C 0.96203 0.5221 0.88988 0.0
C554 C 0.96604 0.51794 0.77704 0.0
C555 C 0.95356 0.52614 0.82913 0.0
H556 H 0.05522 0.46218 0.7594 0.0
H557 H 0.9374 0.53558 0.82201 0.0
H558 H 0.9762 0.57618 0.55362 0.0
H559 H 0.09304 0.50488 0.46469 0.0
H560 H 0.95893 0.52107 0.73102 0.0
H561 H 0.95237 0.52869 0.93013 0.0
H562 H 0.07295 0.51729 0.56079 0.0
H563 H 0.07363 0.45487 0.86302 0.0
H564 H 0.98348 0.51162 1.00005 0.0
H565 H 0.02057 0.49003 1.01106 0.0
H566 H 0.95597 0.58548 0.45379 0.0
H567 H 0.0544 0.46907 0.96036 0.0
H568 H 0.07597 0.51353 0.35987 0.0
N569 N 1.00396 0.5576 0.50898 0.0
C570 C 0.01393 0.55097 0.45354 0.0
C571 C 0.97217 0.57563 0.4531 0.0
C572 C 1.00317 0.55624 0.39541 0.0
C573 C 0.98353 0.5701 0.50961 0.0
C574 C 0.98195 0.56857 0.39576 0.0
N575 N 0.04446 0.53328 0.51226 0.0
C576 C 0.06523 0.52146 0.51589 0.0
C577 C 0.04592 0.53171 0.3986 0.0
C578 C 0.03506 0.53885 0.45513 0.0
C579 C 0.06705 0.51932 0.40218 0.0
C580 C 0.07674 0.51431 0.46111 0.0
H581 H 0.9731 0.57292 0.35207 0.0
H582 H 1.00587 0.55291 0.29383 0.0
H583 H 0.04326 0.53143 0.29665 0.0
O584 O 0.04765 0.56895 0.64195 0.0
O585 O 0.98661 0.54339 0.62449 0.0
O586 O 0.98149 0.50356 0.6387 0.0
O587 O 0.02783 0.58085 0.56215 0.0
O588 O 0.01722 0.51168 0.55145 0.0
O589 O 0.03037 0.48394 0.62127 0.0
O590 O 0.98492 0.4687 0.66289 0.0
O591 O 0.04691 0.49396 0.68112 0.0
O592 O 0.05257 0.5334 0.65764 0.0
O593 O 1.00604 0.45717 0.74054 0.0
O594 O 0.01719 0.52615 0.75009 0.0
O595 O 1.00282 0.55345 0.68143 0.0
C596 C 0.97393 0.52408 0.6185 0.0
C597 C 0.0674 0.59261 0.5684 0.0
C598 C 0.10457 0.581 0.52043 0.0
C599 C 0.10777 0.60418 0.49862 0.0
C600 C 0.07067 0.61557 0.54611 0.0
C601 C 0.09101 0.62139 0.51206 0.0
C602 C 0.0847 0.57577 0.55703 0.0
C603 C 0.0243 0.49015 0.56396 0.0
C604 C 0.04541 0.58533 0.59946 0.0
C605 C 0.01391 0.54908 0.33897 0.0
C606 C 0.03523 0.53688 0.34057 0.0
C607 C 0.06013 0.51318 0.68018 0.0
C608 C 0.96659 0.44474 0.73848 0.0
C609 C 0.92926 0.45536 0.78718 0.0
C610 C 0.92722 0.43239 0.81139 0.0
C611 C 0.96444 0.42197 0.76305 0.0
C612 C 0.94868 0.46099 0.74933 0.0
C613 C 0.94463 0.41576 0.79874 0.0
C614 C 0.00989 0.54763 0.73813 0.0
C615 C 0.98801 0.45241 0.70519 0.0
H616 H 0.1231 0.60899 0.47099 0.0
H617 H 0.05746 0.62883 0.55438 0.0
H618 H 0.09355 0.63915 0.49485 0.0
H619 H 0.08212 0.55822 0.57492 0.0
H620 H 0.91227 0.42731 0.84015 0.0
H621 H 0.97813 0.40917 0.75521 0.0
H622 H 0.95036 0.47842 0.72981 0.0
H623 H 0.94297 0.39815 0.8177 0.0
C624 C 0.1282 0.03276 0.2683 0.0
C625 C 0.15169 0.03536 0.28811 0.0
C626 C 0.10951 0.03176 0.31223 0.0
C627 C 0.11427 0.0335 0.37774 0.0
C628 C 0.13787 0.03654 0.3979 0.0
C629 C 0.15617 0.03741 0.35313 0.0
C630 C 0.08465 0.02858 0.28863 0.0
C631 C 0.1438 0.03894 0.46704 0.0
C632 C 0.06581 0.04894 0.49643 0.0
C633 C 0.06083 0.02695 0.5235 0.0
C634 C 0.08289 0.05138 0.44838 0.0
C635 C 0.09486 0.03126 0.42569 0.0
C636 C 0.0892 1.00893 0.45158 0.0
C637 C 0.07247 1.0071 0.50026 0.0
C638 C 0.08823 0.07556 0.42259 0.0
C639 C 0.10128 0.98696 0.42898 0.0
H640 H 0.12443 0.03111 0.2184 0.0
H641 H 0.17409 0.04004 0.36924 0.0
H642 H 0.07693 0.01214 0.30826 0.0
H643 H 0.07359 0.04332 0.30521 0.0
H644 H 0.08374 0.02777 0.23634 0.0
H645 H 0.16293 0.04168 0.47515 0.0
H646 H 0.13415 0.05399 0.48758 0.0
H647 H 0.13807 0.02291 0.4929 0.0
H648 H 0.05691 0.06435 0.51423 0.0
H649 H 0.06857 0.99001 0.5206 0.0
H650 H 0.08005 0.07735 0.37535 0.0
H651 H 0.10746 0.07837 0.41697 0.0
H652 H 0.08126 0.08961 0.45356 0.0
H653 H 0.09967 0.98539 0.377 0.0
H654 H 0.09386 0.97079 0.45102 0.0
H655 H 0.12032 0.98802 0.44025 0.0
C656 C 0.50936 0.15157 0.30901 0.0
C657 C 0.49325 0.14884 0.25911 0.0
C658 C 0.51215 0.13401 0.35564 0.0
C659 C 0.49827 0.11314 0.35361 0.0
C660 C 0.48255 0.10999 0.3023 0.0
C661 C 0.48034 0.12765 0.25598 0.0
C662 C 0.52927 0.13846 0.40865 0.0
C663 C 0.46701 0.08851 0.29742 0.0
C664 C 0.51681 0.05913 0.4503 0.0
C665 C 0.50255 0.06072 0.50428 0.0
C666 C 0.51562 0.07593 0.40128 0.0
C667 C 0.49971 0.09496 0.40565 0.0
C668 C 0.48496 0.09638 0.4595 0.0
C669 C 0.48642 0.07922 0.50763 0.0
C670 C 0.53145 0.07335 0.34467 0.0
C671 C 0.46761 0.11611 0.46632 0.0
H672 H 0.51927 0.16784 0.31316 0.0
H673 H 0.46811 0.12486 0.21747 0.0
H674 H 0.5194 0.14495 0.45011 0.0
H675 H 0.53846 0.12213 0.42264 0.0
H676 H 0.54265 0.15198 0.39573 0.0
H677 H 0.46081 0.0855 0.24838 0.0
H678 H 0.47618 0.07256 0.31403 0.0
H679 H 0.45134 0.09121 0.32758 0.0
H680 H 0.52923 0.04484 0.44662 0.0
H681 H 0.47473 0.08021 0.54785 0.0
H682 H 0.54251 0.0894 0.33903 0.0
H683 H 0.52063 0.07149 0.30137 0.0
H684 H 0.54314 0.05786 0.34856 0.0
H685 H 0.4771 0.13323 0.46619 0.0
H686 H 0.4572 0.11473 0.51052 0.0
H687 H 0.45535 0.1161 0.42559 0.0
C688 C 0.39939 0.51491 0.26648 0.0
C689 C 0.3819 0.49753 0.27448 0.0
C690 C 0.41726 0.5184 0.31195 0.0
C691 C 0.41771 0.50429 0.36716 0.0
C692 C 0.40026 0.48662 0.37521 0.0
C693 C 0.38265 0.48352 0.3292 0.0
C694 C 0.43557 0.53733 0.30112 0.0
C695 C 0.39999 0.4711 0.43306 0.0
C696 C 0.4734 0.49879 0.46787 0.0
C697 C 0.46876 0.51418 0.51815 0.0
C698 C 0.45727 0.49577 0.41787 0.0
C699 C 0.43585 0.50839 0.41774 0.0
C700 C 0.43121 0.52415 0.46788 0.0
C701 C 0.44765 0.52689 0.51709 0.0
C702 C 0.46319 0.47904 0.36508 0.0
C703 C 0.4086 0.53785 0.47025 0.0
H704 H 0.39921 0.52573 0.2244 0.0
H705 H 0.36907 0.47035 0.33699 0.0
H706 H 0.43475 0.55054 0.33952 0.0
H707 H 0.45342 0.5296 0.30231 0.0
H708 H 0.43319 0.54646 0.25526 0.0
H709 H 0.38554 0.45784 0.43184 0.0
H710 H 0.41698 0.46177 0.43735 0.0
H711 H 0.39792 0.48202 0.47601 0.0
H712 H 0.48962 0.48891 0.46764 0.0
H713 H 0.44375 0.53889 0.55526 0.0
H714 H 0.46589 0.48912 0.32081 0.0
H715 H 0.4484 0.46658 0.35675 0.0
H716 H 0.47935 0.46884 0.37496 0.0
H717 H 0.40648 0.54823 0.42634 0.0
H718 H 0.40794 0.55 0.51118 0.0
H719 H 0.39339 0.52553 0.47331 0.0
C720 C 0.05606 0.40654 0.26791 0.0
C721 C 0.03937 0.38833 0.25987 0.0
C722 C 0.0535 0.4238 0.31519 0.0
C723 C 0.03365 0.42318 0.3557 0.0
C724 C 0.01633 0.4054 0.34651 0.0
C725 C 0.0194 0.38826 0.29911 0.0
C726 C 0.07241 0.4424 0.32285 0.0
C727 C 0.9948 0.40406 0.3881 0.0
C728 C 0.03837 0.45155 0.51931 0.0
C729 C 0.02682 0.47305 0.51068 0.0
C730 C 0.0408 0.43534 0.46942 0.0
C731 C 0.03143 0.44055 0.40901 0.0
C732 C 0.01985 0.46228 0.39995 0.0
C733 C 0.01761 0.47813 0.4507 0.0
C734 C 0.05345 0.41255 0.48144 0.0
C735 C 0.00965 0.46877 0.33664 0.0
H736 H 0.07138 0.4072 0.23753 0.0
H737 H 1.00648 0.37426 0.29443 0.0
H738 H 0.06459 0.46018 0.32076 0.0
H739 H 0.08082 0.44062 0.36982 0.0
H740 H 0.08627 0.44116 0.28607 0.0
H741 H 0.9823 0.39005 0.37293 0.0
H742 H 1.00015 0.40053 0.4375 0.0
H743 H 0.98551 0.42114 0.38778 0.0
H744 H 0.04563 0.44737 0.56518 0.0
H745 H 1.00841 0.4945 0.44331 0.0
H746 H 0.06869 0.41104 0.44901 0.0
H747 H 0.04151 0.39746 0.47171 0.0
H748 H 0.05989 0.41113 0.53075 0.0
H749 H 0.02359 0.46843 0.30002 0.0
H750 H 1.00161 0.48651 0.33685 0.0
H751 H 0.99603 0.45568 0.32283 0.0
C752 C 0.90289 1.00271 0.06471 0.0
C753 C 0.88033 0.99592 0.04434 0.0
C754 C 0.9221 1.00355 0.02233 0.0
C755 C 0.9188 0.9971 0.95822 0.0
C756 C 0.89627 0.98928 0.93829 0.0
C757 C 0.87741 0.98891 0.98127 0.0
C758 C 0.94574 0.01211 0.04561 0.0
C759 C 0.89188 0.98189 0.87089 0.0
C760 C 0.95618 0.02376 0.82656 0.0
C761 C 0.97149 1.00539 0.81105 0.0
C762 C 0.93975 0.02157 0.87584 0.0
C763 C 0.93815 1.00031 0.91049 0.0
C764 C 0.95394 0.98184 0.89615 0.0
C765 C 0.97053 0.98466 0.84694 0.0
C766 C 0.92366 0.04191 0.88975 0.0
C767 C 0.95274 0.95874 0.93106 0.0
H768 H 0.90535 1.00812 0.11328 0.0
H769 H 0.86018 0.98316 0.96531 0.0
H770 H 0.9596 0.9993 0.0332 0.0
H771 H 0.95035 0.02895 0.02205 0.0
H772 H 0.94593 0.01489 0.09746 0.0
H773 H 0.87387 0.97461 0.86393 0.0
H774 H 0.89424 0.99723 0.83908 0.0
H775 H 0.90483 0.96844 0.85643 0.0
H776 H 0.95698 0.04003 0.79992 0.0
H777 H 0.98224 0.97036 0.83535 0.0
H778 H 0.92442 0.04643 0.9406 0.0
H779 H 0.90521 0.03684 0.87883 0.0
H780 H 0.92828 0.05783 0.86182 0.0
H781 H 0.95166 0.96169 0.98269 0.0
H782 H 0.9682 0.94754 0.92093 0.0
H783 H 0.93658 0.94904 0.91678 0.0
C784 C 0.50252 0.88832 0.98889 0.0
C785 C 0.52083 0.88497 0.03259 0.0
C786 C 0.50308 0.90696 0.94485 0.0
C787 C 0.5224 0.92291 0.94387 0.0
C788 C 0.54035 0.92032 0.98984 0.0
C789 C 0.53941 0.90144 0.03311 0.0
C790 C 0.4832 0.90922 0.89811 0.0
C791 C 0.56137 0.93658 0.99238 0.0
C792 C 0.53464 0.9518 0.78372 0.0
C793 C 0.52458 0.97402 0.79091 0.0
C794 C 0.53467 0.93536 0.83353 0.0
C795 C 0.52432 0.94117 0.89234 0.0
C796 C 0.51512 0.9641 0.90061 0.0
C797 C 0.51534 0.98023 0.84984 0.0
C798 C 0.54553 0.91159 0.82283 0.0
C799 C 0.50456 0.9714 0.96274 0.0
H800 H 0.48777 0.87614 0.98847 0.0
H801 H 0.55387 0.89912 0.06577 0.0
H802 H 0.47617 0.92736 0.89888 0.0
H803 H 0.48987 0.90592 0.84979 0.0
H804 H 0.46857 0.89666 0.90789 0.0
H805 H 0.57645 0.92781 0.96932 0.0
H806 H 0.55835 0.95366 0.96864 0.0
H807 H 0.56639 0.94002 0.04217 0.0
H808 H 0.54235 0.94719 0.73876 0.0
H809 H 0.50761 0.99746 0.8556 0.0
H810 H 0.53145 0.89797 0.82104 0.0
H811 H 0.55744 0.90708 0.86243 0.0
H812 H 0.5557 0.91093 0.77813 0.0
H813 H 0.48925 0.9599 0.97402 0.0
H814 H 0.49871 0.98998 0.96232 0.0
H815 H 0.51767 0.96916 1.00103 0.0
C816 C 0.62726 0.54516 0.05685 0.0
C817 C 0.65069 0.54245 0.03722 0.0
C818 C 0.60851 0.54435 0.01313 0.0
C819 C 0.61325 0.54115 0.94798 0.0
C820 C 0.63692 0.53904 0.92787 0.0
C821 C 0.65522 0.53957 0.97253 0.0
C822 C 0.58357 0.54645 0.03673 0.0
C823 C 0.64294 0.536 0.85899 0.0
C824 C 0.56797 0.51414 0.83613 0.0
C825 C 0.55922 0.53387 0.80446 0.0
C826 C 0.58475 0.51638 0.8845 0.0
C827 C 0.59361 0.53892 0.90083 0.0
C828 C 0.58466 0.55898 0.86924 0.0
C829 C 0.56723 0.55626 0.82226 0.0
C830 C 0.59337 0.49449 0.91713 0.0
C831 C 0.59389 0.58329 0.88399 0.0
H832 H 0.62355 0.54741 0.10662 0.0
H833 H 0.67326 0.53796 0.95658 0.0
H834 H 0.57487 0.56157 0.01365 0.0
H835 H 0.57335 0.53043 0.02402 0.0
H836 H 0.58274 0.54887 0.08867 0.0
H837 H 0.66222 0.53653 0.85037 0.0
H838 H 0.63594 0.51888 0.84202 0.0
H839 H 0.63456 0.54997 0.83041 0.0
H840 H 0.56166 0.4968 0.82291 0.0
H841 H 0.56054 0.57154 0.79775 0.0
H842 H 0.59187 0.49645 0.96903 0.0
H843 H 0.61224 0.49183 0.90605 0.0
H844 H 0.58338 0.47852 0.90254 0.0
H845 H 0.58813 0.58841 0.93199 0.0
H846 H 0.58753 0.59657 0.84973 0.0
H847 H 0.61341 0.58356 0.88362 0.0
C848 C 0.0166 0.65084 0.99867 0.0
C849 C 0.99671 0.6512 0.03818 0.0
C850 C 0.01953 0.63322 0.95249 0.0
C851 C 1.00212 0.61542 0.9448 0.0
C852 C 0.98241 0.61519 0.98579 0.0
C853 C 0.98002 0.6329 0.03189 0.0
C854 C 0.04094 0.63411 0.91043 0.0
C855 C 0.96341 0.5966 0.97967 0.0
C856 C 0.9964 0.58643 0.78236 0.0
C857 C 1.00779 0.56486 0.79118 0.0
C858 C 0.99435 0.60285 0.83183 0.0
C859 C 1.00396 0.59779 0.89204 0.0
C860 C 0.01537 0.57598 0.90135 0.0
C861 C 0.01721 0.55989 0.85099 0.0
C862 C 0.98183 0.62569 0.81957 0.0
C863 C 0.0258 0.56965 0.9645 0.0
H864 H 0.02953 0.66488 1.00205 0.0
H865 H 0.96479 0.63254 0.06261 0.0
H866 H 0.05002 0.61692 0.91103 0.0
H867 H 0.03548 0.63752 0.86105 0.0
H868 H 0.05365 0.64803 0.92493 0.0
H869 H 0.94986 0.59799 0.01724 0.0
H870 H 0.95461 0.59829 0.93318 0.0
H871 H 0.97119 0.5788 0.98163 0.0
H872 H 0.98897 0.59052 0.73663 0.0
H873 H 0.02622 0.54342 0.85854 0.0
H874 H 0.99396 0.64072 0.82831 0.0
H875 H 0.96679 0.62749 0.85257 0.0
H876 H 0.97512 0.62695 0.77049 0.0
H877 H 0.03963 0.58266 0.97741 0.0
H878 H 0.03365 0.55182 0.96456 0.0
H879 H 0.01206 0.5703 1.0016 0.0
C880 C 0.07735 0.19628 0.41162 0.0
C881 C 0.06506 0.20365 0.35807 0.0
C882 C 0.06596 0.18259 0.45799 0.0
C883 C 0.04182 0.1768 0.45043 0.0
C884 C 0.02936 0.18485 0.39694 0.0
C885 C 0.04122 0.19803 0.35128 0.0
C886 C 0.07972 0.17398 0.51416 0.0
C887 C 1.00353 0.17933 0.38735 0.0
C888 C 0.00984 0.12377 0.51265 0.0
C889 C 0.99508 0.13382 0.55835 0.0
C890 C 0.02712 0.13713 0.48193 0.0
C891 C 0.02935 0.16132 0.49581 0.0
C892 C 0.01578 0.17126 0.5448 0.0
C893 C 0.99885 0.15735 0.57569 0.0
C894 C 0.04142 0.12579 0.43033 0.0
C895 C 0.01777 0.197 0.56129 0.0
H896 H 0.09579 0.20094 0.41664 0.0
H897 H 0.03177 0.20419 0.31007 0.0
H898 H 0.07058 0.17862 0.55862 0.0
H899 H 0.08083 0.15452 0.51267 0.0
H900 H 0.09785 0.18141 0.51537 0.0
H901 H 0.99629 0.18794 0.34459 0.0
H902 H 1.00091 0.16006 0.38267 0.0
H903 H 0.99323 0.18516 0.42886 0.0
H904 H 1.00704 0.10579 0.49751 0.0
H905 H 0.9881 0.1652 0.61208 0.0
H906 H 0.06018 0.13117 0.43381 0.0
H907 H 0.03485 0.13168 0.38369 0.0
H908 H 0.04024 0.10629 0.43209 0.0
H909 H 0.03642 0.2029 0.56157 0.0
H910 H 0.00985 0.20084 0.60804 0.0
H911 H 1.00843 0.20748 0.52508 0.0
C912 C 0.35604 0.11889 0.31332 0.0
C913 C 0.33523 0.10588 0.32302 0.0
C914 C 0.37783 0.11016 0.33355 0.0
C915 C 0.3786 0.088 0.36375 0.0
C916 C 0.35742 0.07657 0.38154 0.0
C917 C 0.33596 0.08573 0.36121 0.0
C918 C 0.40008 0.12332 0.31617 0.0
C919 C 0.3574 0.05296 0.41425 0.0
C920 C 0.42493 0.04444 0.31488 0.0
C921 C 0.4384 0.04265 0.36982 0.0
C922 C 0.40611 0.06009 0.31146 0.0
C923 C 0.40071 0.07436 0.36427 0.0
C924 C 0.41492 0.07341 0.41888 0.0
C925 C 0.4336 0.05748 0.42108 0.0
C926 C 0.39124 0.06043 0.25237 0.0
C927 C 0.41 0.0887 0.47543 0.0
H928 H 0.35555 0.13481 0.28524 0.0
H929 H 0.32009 0.07546 0.36925 0.0
H930 H 0.41335 0.12208 0.35437 0.0
H931 H 0.40782 0.11538 0.2732 0.0
H932 H 0.39659 0.14215 0.30626 0.0
H933 H 0.33983 0.04841 0.434 0.0
H934 H 0.3623 0.03916 0.37979 0.0
H935 H 0.3705 0.0526 0.45296 0.0
H936 H 0.4285 0.03291 0.27543 0.0
H937 H 0.44423 0.05633 0.46332 0.0
H938 H 0.3901 0.07859 0.23363 0.0
H939 H 0.37308 0.05443 0.2636 0.0
H940 H 0.39839 0.04893 0.21477 0.0
H941 H 0.41095 0.10749 0.46155 0.0
H942 H 0.42263 0.08563 0.5145 0.0
H943 H 0.39193 0.08534 0.49323 0.0
C944 C 0.42898 0.33538 0.36817 0.0
C945 C 0.42959 0.3345 0.30206 0.0
C946 C 0.44351 0.35118 0.40135 0.0
C947 C 0.45912 0.36602 0.36741 0.0
C948 C 0.45804 0.36684 0.30086 0.0
C949 C 0.44316 0.3512 0.26906 0.0
C950 C 0.44349 0.35068 0.47249 0.0
C951 C 0.47439 0.38245 0.26281 0.0
C952 C 0.49671 0.4148 0.43553 0.0
C953 C 0.51853 0.40358 0.44292 0.0
C954 C 0.47668 0.40238 0.41575 0.0
C955 C 0.47869 0.37839 0.39994 0.0
C956 C 0.50045 0.36679 0.40817 0.0
C957 C 0.52001 0.37946 0.43041 0.0
C958 C 0.4537 0.41528 0.40915 0.0
C959 C 0.50336 0.34123 0.39086 0.0
H960 H 0.41833 0.32271 0.39391 0.0
H961 H 0.44403 0.35058 0.21802 0.0
H962 H 0.45929 0.34127 0.48947 0.0
H963 H 0.44428 0.36879 0.49182 0.0
H964 H 0.42763 0.34158 0.4915 0.0
H965 H 0.46992 0.38243 0.2118 0.0
H966 H 0.4738 0.4008 0.28023 0.0
H967 H 0.49274 0.37625 0.26822 0.0
H968 H 0.49527 0.43354 0.44352 0.0
H969 H 0.53656 0.37049 0.43715 0.0
H970 H 0.45347 0.43145 0.43851 0.0
H971 H 0.43856 0.40394 0.42286 0.0
H972 H 0.4512 0.42052 0.35922 0.0
H973 H 0.4901 0.33026 0.41589 0.0
H974 H 0.52116 0.33459 0.40249 0.0
H975 H 0.50035 0.33891 0.3395 0.0
C976 C 0.20344 0.49333 0.41255 0.0
C977 C 0.19495 0.47553 0.37256 0.0
C978 C 0.18797 0.50748 0.44674 0.0
C979 C 0.16343 0.50395 0.44015 0.0
C980 C 0.15486 0.48442 0.4054 0.0
C981 C 0.1708 0.47023 0.37266 0.0
C982 C 0.19787 0.52775 0.48461 0.0
C983 C 0.12887 0.47945 0.3989 0.0
C984 C 0.12539 0.54299 0.54263 0.0
C985 C 0.12049 0.56164 0.50118 0.0
C986 C 0.13831 0.52344 0.52267 0.0
C987 C 0.14728 0.52289 0.46055 0.0
C988 C 0.14251 0.54166 0.4186 0.0
C989 C 0.12903 0.56067 0.43924 0.0
C990 C 0.14204 0.50327 0.56765 0.0
C991 C 0.15171 0.54169 0.35173 0.0
H992 H 0.22203 0.49769 0.41299 0.0
H993 H 0.16421 0.45599 0.34347 0.0
H994 H 0.19428 0.5445 0.45963 0.0
H995 H 0.18927 0.52867 0.53152 0.0
H996 H 0.21718 0.52631 0.49158 0.0
H997 H 0.12514 0.46424 0.36753 0.0
H998 H 0.12131 0.47556 0.44597 0.0
H999 H 0.11983 0.49508 0.37951 0.0
H1000 H 0.11899 0.54354 0.59073 0.0
H1001 H 0.12481 0.57458 0.40631 0.0
H1002 H 0.16106 0.49933 0.57169 0.0
H1003 H 0.13322 0.48726 0.54907 0.0
H1004 H 0.13483 0.50692 0.61529 0.0
H1005 H 0.17123 0.5414 0.35211 0.0
H1006 H 0.14596 0.55735 0.32464 0.0
H1007 H 0.14554 0.52567 0.3267 0.0
C1008 C 0.95579 0.81907 0.87228 0.0
C1009 C 0.94624 0.83055 0.92506 0.0
C1010 C 0.96748 0.83181 0.82494 0.0
C1011 C 0.97049 0.85631 0.83212 0.0
C1012 C 0.9578 0.86829 0.87946 0.0
C1013 C 0.94522 0.85522 0.92448 0.0
C1014 C 0.97911 0.81875 0.77163 0.0
C1015 C 0.95999 0.89458 0.88767 0.0
C1016 C 0.03232 0.87911 0.8049 0.0
C1017 C 0.02936 0.89331 0.75194 0.0
C1018 C 0.01328 0.8666 0.8304 0.0
C1019 C 0.99082 0.86819 0.80144 0.0
C1020 C 0.98798 0.88198 0.74643 0.0
C1021 C 1.00738 0.89458 0.72256 0.0
C1022 C 0.017 0.85264 0.89023 0.0
C1023 C 0.96464 0.88372 0.71289 0.0
H1024 H 0.95636 0.80006 0.87057 0.0
H1025 H 0.93667 0.86435 0.96288 0.0
H1026 H 0.97827 0.82908 0.72723 0.0
H1027 H 0.99794 0.81599 0.78307 0.0
H1028 H 0.97072 0.80128 0.76384 0.0
H1029 H 0.9467 0.90149 0.92113 0.0
H1030 H 0.97777 0.89894 0.90618 0.0
H1031 H 0.95801 0.90374 0.84182 0.0
H1032 H 0.04932 0.87874 0.8281 0.0
H1033 H 1.00526 0.90597 0.68209 0.0
H1034 H 0.01287 0.83381 0.8818 0.0
H1035 H 1.00496 0.85893 0.92772 0.0
H1036 H 0.03536 0.85402 0.90787 0.0
H1037 H 0.96305 0.869 0.67884 0.0
H1038 H 0.96331 0.90047 0.68629 0.0
H1039 H 0.94952 0.88241 0.74579 0.0
C1040 C 0.66338 0.94439 0.02569 0.0
C1041 C 0.6842 0.9446 0.9899 0.0
C1042 C 0.64268 0.9542 1.00234 0.0
C1043 C 0.64285 0.96504 0.94228 0.0
C1044 C 0.66273 0.96271 0.90276 0.0
C1045 C 0.68307 0.95203 0.92665 0.0
C1046 C 0.62173 0.95554 0.04594 0.0
C1047 C 0.66343 0.97373 0.83803 0.0
C1048 C 0.58498 0.99196 0.89109 0.0
C1049 C 0.58637 0.01374 0.92173 0.0
C1050 C 0.60372 0.97604 0.89435 0.0
C1051 C 0.62439 0.98251 0.92758 0.0
C1052 C 0.62636 1.00522 0.95462 0.0
C1053 C 0.60719 0.02041 0.95212 0.0
C1054 C 0.60103 0.95232 0.86331 0.0
C1055 C 0.64842 0.01321 0.98843 0.0
H1056 H 0.66353 0.93873 0.07444 0.0
H1057 H 0.69863 0.95126 0.89726 0.0
H1058 H 0.62412 0.97067 0.07837 0.0
H1059 H 0.60507 0.95796 0.01987 0.0
H1060 H 0.62025 0.93938 0.07522 0.0
H1061 H 0.67932 0.96858 0.81104 0.0
H1062 H 0.64759 0.96862 0.81069 0.0
H1063 H 0.66339 0.99317 0.84267 0.0
H1064 H 0.56894 0.98702 0.86668 0.0
H1065 H 0.60839 0.03754 0.97438 0.0
H1066 H 0.60989 0.93829 0.89055 0.0
H1067 H 0.60901 0.95302 0.81562 0.0
H1068 H 0.58224 0.94744 0.85749 0.0
H1069 H 0.6499 1.00377 0.03405 0.0
H1070 H 0.64841 0.03239 0.9982 0.0
H1071 H 0.66425 1.00903 0.96004 0.0
C1072 C 0.56623 0.71354 0.88816 0.0
C1073 C 0.57592 0.70374 0.94319 0.0
C1074 C 0.55504 0.69929 0.84315 0.0
C1075 C 0.55265 0.67493 0.85484 0.0
C1076 C 0.56543 0.66461 0.90481 0.0
C1077 C 0.57757 0.67916 0.94731 0.0
C1078 C 0.54292 0.71078 0.78794 0.0
C1079 C 0.56353 0.63874 0.91978 0.0
C1080 C 0.49074 0.65205 0.82962 0.0
C1081 C 0.49348 0.63739 0.77742 0.0
C1082 C 0.51 0.66411 0.85529 0.0
C1083 C 0.53245 0.662 0.82668 0.0
C1084 C 0.53521 0.64761 0.7728 0.0
C1085 C 0.51568 0.63508 0.74942 0.0
C1086 C 0.50632 0.67877 0.91388 0.0
C1087 C 0.55873 0.64524 0.74048 0.0
H1088 H 0.56509 0.73241 0.8828 0.0
H1089 H 0.58621 0.67123 0.9875 0.0
H1090 H 0.54348 0.69935 0.7456 0.0
H1091 H 0.52418 0.71376 0.79993 0.0
H1092 H 0.55112 0.72804 0.77629 0.0
H1093 H 0.54894 0.63595 0.95387 0.0
H1094 H 0.55973 0.62801 0.8774 0.0
H1095 H 0.57996 0.63237 0.94215 0.0
H1096 H 0.47358 0.65346 0.85166 0.0
H1097 H 0.51774 0.62355 0.70927 0.0
H1098 H 0.5101 0.69753 0.90339 0.0
H1099 H 0.5186 0.67319 0.9516 0.0
H1100 H 0.48806 0.67734 0.93226 0.0
H1101 H 0.57129 0.6363 0.77232 0.0
H1102 H 0.56619 0.66287 0.72967 0.0
H1103 H 0.55741 0.63499 0.69599 0.0
C1104 C 0.82653 0.53996 0.88878 0.0
C1105 C 0.83452 0.55942 0.92365 0.0
C1106 C 0.84233 0.52555 0.85651 0.0
C1107 C 0.86673 0.53045 0.86021 0.0
C1108 C 0.87469 0.5513 0.8901 0.0
C1109 C 0.85838 0.56578 0.9205 0.0
C1110 C 0.83306 0.50383 0.82362 0.0
C1111 C 0.90047 0.55762 0.89368 0.0
C1112 C 0.90429 0.47582 0.86692 0.0
C1113 C 0.91245 0.47415 0.80474 0.0
C1114 C 0.88987 0.49441 0.88568 0.0
C1115 C 0.88363 0.51195 0.84139 0.0
C1116 C 0.89214 0.51067 0.7789 0.0
C1117 C 0.90617 0.49163 0.76103 0.0
C1118 C 0.88134 0.49531 0.95313 0.0
C1119 C 0.88669 0.52954 0.73122 0.0
H1120 H 0.80817 0.53473 0.89077 0.0
H1121 H 0.86455 0.58125 0.94549 0.0
H1122 H 0.84123 0.50201 0.77635 0.0
H1123 H 0.83774 0.48802 0.85152 0.0
H1124 H 0.81364 0.50415 0.81796 0.0
H1125 H 0.9039 0.57296 0.92487 0.0
H1126 H 0.9107 0.54251 0.91157 0.0
H1127 H 0.90696 0.56205 0.84581 0.0
H1128 H 0.90957 0.46284 0.90144 0.0
H1129 H 0.91234 0.49053 0.71275 0.0
H1130 H 0.86183 0.49441 0.95425 0.0
H1131 H 0.88675 0.51221 0.97509 0.0
H1132 H 0.88833 0.48067 0.98213 0.0
H1133 H 0.86742 0.53227 0.72821 0.0
H1134 H 0.89356 0.52523 0.68367 0.0
H1135 H 0.89476 0.54641 0.74642 0.0
C1136 C 0.01549 0.19081 0.83924 0.0
C1137 C 0.0365 0.19686 0.87058 0.0
C1138 C 0.01286 0.16909 0.80744 0.0
C1139 C 0.03154 0.15267 0.80728 0.0
C1140 C 0.05293 0.1589 0.83761 0.0
C1141 C 0.0551 0.18071 0.86875 0.0
C1142 C 0.98982 0.16343 0.77532 0.0
C1143 C 0.07327 0.14208 0.84032 0.0
C1144 C 0.01722 0.08707 0.78959 0.0
C1145 C 0.023 0.08261 0.72637 0.0
C1146 C 0.01968 0.10967 0.81601 0.0
C1147 C 0.02827 0.12856 0.77863 0.0
C1148 C 0.03415 0.12417 0.71458 0.0
C1149 C 0.03117 0.10137 0.68902 0.0
C1150 C 0.01345 0.1132 0.88453 0.0
C1151 C 0.04453 0.14337 0.67381 0.0
H1152 H 1.001 0.20307 0.83963 0.0
H1153 H 0.07127 0.18474 0.89372 0.0
H1154 H 0.99298 0.15689 0.72681 0.0
H1155 H 0.9806 0.14921 0.80163 0.0
H1156 H 0.97809 0.17892 0.77285 0.0
H1157 H 0.09009 0.15124 0.85145 0.0
H1158 H 0.06976 0.12901 0.87805 0.0
H1159 H 0.07536 0.1324 0.79529 0.0
H1160 H 0.01066 0.07278 0.81868 0.0
H1161 H 0.03593 0.09807 0.64032 0.0
H1162 H 1.00034 0.12743 0.88921 0.0
H1163 H 0.02937 0.11869 0.91116 0.0
H1164 H 1.00617 0.09697 0.9066 0.0
H1165 H 0.0336 0.1594 0.67641 0.0
H1166 H 0.04624 0.13788 0.62378 0.0
H1167 H 0.06227 0.14818 0.69167 0.0
C1168 C 0.34838 0.01146 0.88961 0.0
C1169 C 0.33361 0.0303 0.87384 0.0
C1170 C 0.36963 1.00747 0.85683 0.0
C1171 C 0.37667 0.02286 0.80745 0.0
C1172 C 0.36141 0.04127 0.78957 0.0
C1173 C 0.34009 0.04457 0.82226 0.0
C1174 C 0.38503 0.98732 0.87686 0.0
C1175 C 0.36813 0.05826 0.7377 0.0
C1176 C 0.44255 0.0315 0.77796 0.0
C1177 C 0.44628 0.01904 0.72159 0.0
C1178 C 0.42014 0.03284 0.80594 0.0
C1179 C 0.40073 0.02099 0.77811 0.0
C1180 C 0.40435 1.00801 0.72184 0.0
C1181 C 0.42694 1.00742 0.69392 0.0
C1182 C 0.41721 0.04726 0.86516 0.0
C1183 C 0.38436 0.99469 0.69117 0.0
H1184 H 0.3439 1.00033 0.92941 0.0
H1185 H 0.32872 0.05881 0.80812 0.0
H1186 H 0.39074 0.97709 0.83512 0.0
H1187 H 0.40112 0.9943 0.90008 0.0
H1188 H 0.3759 0.97528 0.9103 0.0
H1189 H 0.35387 0.07089 0.72704 0.0
H1190 H 0.38407 0.06835 0.75183 0.0
H1191 H 0.37253 0.04858 0.69394 0.0
H1192 H 0.45718 0.04055 0.80028 0.0
H1193 H 0.42943 0.99769 0.65057 0.0
H1194 H 0.41055 0.03597 0.90405 0.0
H1195 H 0.404 0.0612 0.85714 0.0
H1196 H 0.43395 0.05569 0.88055 0.0
H1197 H 0.37616 0.98244 0.72569 0.0
H1198 H 0.39021 0.98446 0.64949 0.0
H1199 H 0.37053 1.00711 0.67594 0.0
C1200 C 0.50774 0.34568 0.83294 0.0
C1201 C 0.49532 0.34383 0.88995 0.0
C1202 C 0.51067 0.36764 0.80221 0.0
C1203 C 0.50138 0.3884 0.82963 0.0
C1204 C 0.48944 0.38654 0.88825 0.0
C1205 C 0.48627 0.36437 0.91696 0.0
C1206 C 0.52328 0.36858 0.73964 0.0
C1207 C 0.47938 0.40786 0.92027 0.0
C1208 C 0.52626 0.44853 0.779 0.0
C1209 C 0.50875 0.45702 0.73839 0.0
C1210 C 0.52409 0.42641 0.8088 0.0
C1211 C 0.50405 0.41198 0.79724 0.0
C1212 C 0.48638 0.42043 0.75582 0.0
C1213 C 0.48895 0.44274 0.727 0.0
C1214 C 0.54309 0.41865 0.85372 0.0
C1215 C 0.46463 0.40596 0.74214 0.0
H1216 H 0.51456 0.32985 0.81149 0.0
H1217 H 0.47655 0.36304 0.96086 0.0
H1218 H 0.51133 0.3756 0.7029 0.0
H1219 H 0.53862 0.38072 0.74261 0.0
H1220 H 0.52953 0.35102 0.72446 0.0
H1221 H 0.47526 0.40444 0.97069 0.0
H1222 H 0.49169 0.42306 0.91732 0.0
H1223 H 0.46284 0.41274 0.89613 0.0
H1224 H 0.54161 0.4594 0.78835 0.0
H1225 H 0.47551 0.44893 0.69497 0.0
H1226 H 0.55057 0.40172 0.83781 0.0
H1227 H 0.53544 0.41569 0.90127 0.0
H1228 H 0.55758 0.4318 0.8577 0.0
H1229 H 0.46961 0.38816 0.72579 0.0
H1230 H 0.45328 0.41422 0.70584 0.0
H1231 H 0.4542 0.40375 0.78601 0.0
C1232 C 0.19457 0.50768 0.81525 0.0
C1233 C 0.19286 0.50785 0.88132 0.0
C1234 C 0.1743 0.50879 0.77681 0.0
C1235 C 0.15162 0.50959 0.80485 0.0
C1236 C 0.14984 0.50953 0.87155 0.0
C1237 C 0.17036 0.5088 0.90871 0.0
C1238 C 0.1772 0.50898 0.70616 0.0
C1239 C 0.12615 0.51008 0.90385 0.0
C1240 C 0.09711 0.53293 0.72024 0.0
C1241 C 0.0848 0.51216 0.70497 0.0
C1242 C 0.11934 0.53235 0.7497 0.0
C1243 C 0.12962 0.51047 0.76526 0.0
C1244 C 0.11782 0.48946 0.7472 0.0
C1245 C 0.09582 0.49058 0.71657 0.0
C1246 C 0.13142 0.55523 0.76637 0.0
C1247 C 0.12801 0.46572 0.76236 0.0
H1248 H 0.21182 0.507 0.79354 0.0
H1249 H 0.16873 0.50851 0.95965 0.0
H1250 H 0.16993 0.49241 0.68641 0.0
H1251 H 0.16728 0.52376 0.68518 0.0
H1252 H 0.19594 0.51059 0.69168 0.0
H1253 H 0.12769 0.50967 0.95607 0.0
H1254 H 0.1166 0.52622 0.89007 0.0
H1255 H 0.11528 0.49483 0.88856 0.0
H1256 H 0.08907 0.54978 0.71085 0.0
H1257 H 0.08712 0.47444 0.70248 0.0
H1258 H 0.14996 0.55514 0.74994 0.0
H1259 H 0.1317 0.55737 0.81838 0.0
H1260 H 0.12244 0.57064 0.74535 0.0
H1261 H 0.1462 0.46451 0.74376 0.0
H1262 H 0.11733 0.45107 0.74242 0.0
H1263 H 0.12898 0.46344 0.81428 0.0
C1264 C 0.01019 0.84383 0.47874 0.0
C1265 C 1.00698 0.84544 0.41317 0.0
C1266 C 0.01167 0.86417 0.51693 0.0
C1267 C 0.00936 0.88682 0.48945 0.0
C1268 C 1.00589 0.8885 0.42338 0.0
C1269 C 1.00485 0.86795 0.3863 0.0
C1270 C 0.01535 0.86128 0.58689 0.0
C1271 C 1.0031 0.9121 0.39174 0.0
C1272 C 0.99134 0.94026 0.58846 0.0
C1273 C 0.01266 0.95265 0.59487 0.0
C1274 C 0.99001 0.91875 0.55527 0.0
C1275 C 0.01065 0.90885 0.52905 0.0
C1276 C 0.03244 0.92071 0.53814 0.0
C1277 C 0.03316 0.94237 0.57051 0.0
C1278 C 0.96639 0.90685 0.54713 0.0
C1279 C 0.05502 0.91073 0.51257 0.0
H1280 H 0.01187 0.82663 0.50021 0.0
H1281 H 1.0019 0.86952 0.33598 0.0
H1282 H 0.02868 0.874 0.60455 0.0
H1283 H 0.99857 0.86483 0.61154 0.0
H1284 H 0.02099 0.84322 0.59941 0.0
H1285 H 1.00084 0.91055 0.33987 0.0
H1286 H 0.98756 0.92119 0.41146 0.0
H1287 H 0.01871 0.92339 0.40135 0.0
H1288 H 0.97563 0.94733 0.60962 0.0
H1289 H 0.04989 0.95144 0.57579 0.0
H1290 H 0.96747 0.88798 0.55982 0.0
H1291 H 0.961 0.90787 0.49692 0.0
H1292 H 0.95252 0.91512 0.57636 0.0
H1293 H 0.05763 0.89272 0.53134 0.0
H1294 H 0.07061 0.92168 0.52503 0.0
H1295 H 0.05397 0.90935 0.46045 0.0
C1296 C 0.67439 0.97723 0.4443 0.0
C1297 C 0.69129 0.99542 0.44015 0.0
C1298 C 0.65294 0.98019 0.47664 0.0
C1299 C 0.64773 1.00205 0.50515 0.0
C1300 C 0.66475 0.02042 0.50213 0.0
C1301 C 0.68625 0.01688 0.47007 0.0
C1302 C 0.63545 0.96006 0.47822 0.0
C1303 C 0.65997 0.04406 0.53148 0.0
C1304 C 0.58235 0.01595 0.52236 0.0
C1305 C 0.57795 0.01084 0.58609 0.0
C1306 C 0.60498 0.01376 0.49614 0.0
C1307 C 0.62391 1.00604 0.53425 0.0
C1308 C 0.61966 1.00125 0.59908 0.0
C1309 C 0.5968 1.00387 0.62429 0.0
C1310 C 0.60852 0.01938 0.42716 0.0
C1311 C 0.63913 0.99272 0.64144 0.0
H1312 H 0.67751 0.96072 0.42046 0.0
H1313 H 0.69908 0.03105 0.46828 0.0
H1314 H 0.6286 0.95736 0.52672 0.0
H1315 H 0.62025 0.9643 0.44756 0.0
H1316 H 0.64324 0.94335 0.46147 0.0
H1317 H 0.67529 0.05624 0.52757 0.0
H1318 H 0.64463 0.05225 0.50803 0.0
H1319 H 0.65541 0.0419 0.58205 0.0
H1320 H 0.56796 0.02169 0.49268 0.0
H1321 H 0.59354 0.99988 0.67355 0.0
H1322 H 0.61376 1.00327 0.40147 0.0
H1323 H 0.62295 0.03246 0.42141 0.0
H1324 H 0.59236 0.02642 0.40484 0.0
H1325 H 0.64548 0.97546 0.62438 0.0
H1326 H 0.63331 0.99074 0.69122 0.0
H1327 H 0.65428 1.00513 0.6398 0.0
C1328 C 0.51307 0.67533 0.40638 0.0
C1329 C 0.52012 0.69674 0.43388 0.0
C1330 C 0.51245 0.65422 0.44138 0.0
C1331 C 0.51865 0.65429 0.5062 0.0
C1332 C 0.52515 0.67595 0.53478 0.0
C1333 C 0.52608 0.69677 0.49827 0.0
C1334 C 0.50565 0.63164 0.40846 0.0
C1335 C 0.5317 0.67706 0.60369 0.0
C1336 C 0.49914 0.60015 0.60201 0.0
C1337 C 0.51962 0.58657 0.60246 0.0
C1338 C 0.49874 0.62251 0.57291 0.0
C1339 C 0.51926 0.63151 0.54279 0.0
C1340 C 0.54014 0.61802 0.54481 0.0
C1341 C 0.54005 0.59588 0.57477 0.0
C1342 C 0.47626 0.6364 0.57396 0.0
C1343 C 0.56247 0.62657 0.51344 0.0
H1344 H 0.50877 0.67491 0.3566 0.0
H1345 H 0.53146 0.71315 0.52024 0.0
H1346 H 0.52051 0.61912 0.41047 0.0
H1347 H 0.4905 0.62323 0.43292 0.0
H1348 H 0.50086 0.6345 0.35826 0.0
H1349 H 0.53362 0.69544 0.62073 0.0
H1350 H 0.51822 0.66791 0.63283 0.0
H1351 H 0.54862 0.66792 0.61111 0.0
H1352 H 0.48325 0.59302 0.62307 0.0
H1353 H 0.55608 0.58586 0.5768 0.0
H1354 H 0.47115 0.64148 0.52537 0.0
H1355 H 0.47908 0.65285 0.60113 0.0
H1356 H 0.46148 0.6264 0.59575 0.0
H1357 H 0.56021 0.62594 0.46148 0.0
H1358 H 0.57786 0.61567 0.52628 0.0
H1359 H 0.56631 0.64508 0.52649 0.0
C1360 C 0.86348 0.54883 0.40071 0.0
C1361 C 0.84126 0.54195 0.4236 0.0
C1362 C 0.88419 0.5445 0.43505 0.0
C1363 C 0.88288 0.53325 0.49465 0.0
C1364 C 0.86051 0.5258 0.51753 0.0
C1365 C 0.84003 0.53017 0.4817 0.0
C1366 C 0.90755 0.55218 0.40753 0.0
C1367 C 0.85775 0.51407 0.58092 0.0
C1368 C 0.94024 0.50695 0.55651 0.0
C1369 C 0.94971 0.52562 0.59179 0.0
C1370 C 0.91824 0.50889 0.52623 0.0
C1371 C 0.90502 0.52979 0.53247 0.0
C1372 C 0.91398 0.54818 0.57096 0.0
C1373 C 0.93628 0.546 0.59942 0.0
C1374 C 0.90948 0.48884 0.48581 0.0
C1375 C 0.90006 0.57027 0.58167 0.0
H1376 H 0.86471 0.55754 0.35532 0.0
H1377 H 0.82298 0.52488 0.50001 0.0
H1378 H 0.91541 0.5662 0.43732 0.0
H1379 H 0.92 0.53725 0.40716 0.0
H1380 H 0.90582 0.55902 0.35867 0.0
H1381 H 0.8552 0.52789 0.61707 0.0
H1382 H 0.84201 0.50236 0.58192 0.0
H1383 H 0.8734 0.50365 0.59408 0.0
H1384 H 0.95048 0.49112 0.5505 0.0
H1385 H 0.94324 0.56031 0.62773 0.0
H1386 H 0.9078 0.49483 0.43619 0.0
H1387 H 0.89174 0.48312 0.50181 0.0
H1388 H 0.92143 0.4735 0.48718 0.0
H1389 H 0.89831 0.58005 0.53665 0.0
H1390 H 0.90846 0.58203 0.61705 0.0
H1391 H 0.88204 0.56567 0.59805 0.0
loop_
_geom_bond_atom_site_label_1
_geom_bond_atom_site_label_2
_geom_bond_distance
_geom_bond_site_symmetry_2
_ccdc_geom_bond_type
C0 C1 1.384 . S
C0 H13 0.947 . S
C0 C35 1.382 . S
C1 C0 1.384 . S
C1 C2 1.378 . S
C2 C1 1.378 . S
C2 C3 1.378 . S
C2 H14 0.952 . S
C3 C2 1.378 . S
C3 H15 0.950 . S
C3 C34 1.383 . S
H4 C23 0.947 . S
H5 C24 0.946 . S
H6 C26 0.953 . S
H7 C27 0.945 . S
H8 C29 0.952 . S
H9 C30 0.949 1_556 S
H10 C32 0.950 . S
H11 C33 0.948 . S
H12 C35 0.951 . S
H13 C0 0.947 . S
H14 C2 0.952 . S
H15 C3 0.950 . S
N16 C19 1.382 . S
N16 C21 1.363 . S
N17 C19 1.371 . S
N17 C20 1.372 . S
N18 C20 1.361 . S
N18 C21 1.377 . S
C19 N16 1.382 . S
C19 N17 1.371 . S
C19 C22 1.480 . S
C20 N17 1.372 . S
C20 N18 1.361 . S
C20 C28 1.457 . S
C21 N16 1.363 . S
C21 N18 1.377 . S
C21 C34 1.479 . S
C22 C19 1.480 . S
C22 C23 1.383 . S
C22 C27 1.385 . S
C23 H4 0.947 . S
C23 C22 1.383 . S
C23 C24 1.388 . S
C24 H5 0.946 . S
C24 C23 1.388 . S
C24 C25 1.384 . S
C25 C24 1.384 . S
C25 C26 1.377 . S
C26 H6 0.953 . S
C26 C25 1.377 . S
C26 C27 1.369 . S
C27 H7 0.945 . S
C27 C22 1.385 . S
C27 C26 1.369 . S
C28 C20 1.457 . S
C28 C29 1.372 . S
C28 C33 1.364 . S
C29 H8 0.952 . S
C29 C28 1.372 . S
C29 C30 1.389 . S
C30 H9 0.949 1_554 S
C30 C29 1.389 . S
C30 C31 1.387 . S
C31 C30 1.387 . S
C31 C32 1.372 . S
C32 H10 0.950 . S
C32 C31 1.372 . S
C32 C33 1.379 . S
C33 H11 0.948 . S
C33 C28 1.364 . S
C33 C32 1.379 . S
C34 C3 1.383 . S
C34 C21 1.479 . S
C34 C35 1.398 . S
C35 C0 1.382 . S
C35 H12 0.951 . S
C35 C34 1.398 . S
C36 C37 1.384 . S
C36 H49 0.947 . S
C36 C71 1.382 . S
C37 C36 1.384 . S
C37 C38 1.378 . S
C38 C37 1.378 . S
C38 C39 1.378 . S
C38 H50 0.952 . S
C39 C38 1.378 . S
C39 H51 0.950 . S
C39 C70 1.383 . S
H40 C59 0.947 . S
H41 C60 0.946 . S
H42 C62 0.953 . S
H43 C63 0.945 . S
H44 C65 0.952 . S
H45 C66 0.949 1_556 S
H46 C68 0.950 . S
H47 C69 0.948 . S
H48 C71 0.951 . S
H49 C36 0.947 . S
H50 C38 0.952 . S
H51 C39 0.950 . S
N52 C55 1.382 . S
N52 C57 1.363 . S
N53 C55 1.371 . S
N53 C56 1.372 . S
N54 C56 1.361 . S
N54 C57 1.377 . S
C55 N52 1.382 . S
C55 N53 1.371 . S
C55 C58 1.480 . S
C56 N53 1.372 . S
C56 N54 1.361 . S
C56 C64 1.457 . S
C57 N52 1.363 . S
C57 N54 1.377 . S
C57 C70 1.479 . S
C58 C55 1.480 . S
C58 C59 1.383 . S
C58 C63 1.385 . S
C59 H40 0.947 . S
C59 C58 1.383 . S
C59 C60 1.388 . S
C60 H41 0.946 . S
C60 C59 1.388 . S
C60 C61 1.384 . S
C61 C60 1.384 . S
C61 C62 1.377 . S
C62 H42 0.953 . S
C62 C61 1.377 . S
C62 C63 1.369 . S
C63 H43 0.945 . S
C63 C58 1.385 . S
C63 C62 1.369 . S
C64 C56 1.457 . S
C64 C65 1.372 . S
C64 C69 1.364 . S
C65 H44 0.952 . S
C65 C64 1.372 . S
C65 C66 1.389 . S
C66 H45 0.949 1_554 S
C66 C65 1.389 . S
C66 C67 1.387 . S
C67 C66 1.387 . S
C67 C68 1.372 . S
C68 H46 0.950 . S
C68 C67 1.372 . S
C68 C69 1.379 . S
C69 H47 0.948 . S
C69 C64 1.364 . S
C69 C68 1.379 . S
C70 C39 1.383 . S
C70 C57 1.479 . S
C70 C71 1.398 . S
C71 C36 1.382 . S
C71 H48 0.951 . S
C71 C70 1.398 . S
C72 C73 1.384 . S
C72 H85 0.947 . S
C72 C107 1.382 . S
C73 C72 1.384 . S
C73 C74 1.378 . S
C74 C73 1.378 . S
C74 C75 1.378 . S
C74 H86 0.952 . S
C75 C74 1.378 . S
C75 H87 0.950 . S
C75 C106 1.383 . S
H76 C95 0.947 . S
H77 C96 0.946 . S
H78 C98 0.953 . S
H79 C99 0.945 . S
H80 C101 0.952 . S
H81 C102 0.949 1_556 S
H82 C104 0.950 . S
H83 C105 0.948 . S
H84 C107 0.951 . S
H85 C72 0.947 . S
H86 C74 0.952 . S
H87 C75 0.950 . S
N88 C91 1.382 . S
N88 C93 1.363 . S
N89 C91 1.371 . S
N89 C92 1.372 . S
N90 C92 1.361 . S
N90 C93 1.377 . S
C91 N88 1.382 . S
C91 N89 1.371 . S
C91 C94 1.480 . S
C92 N89 1.372 . S
C92 N90 1.361 . S
C92 C100 1.457 . S
C93 N88 1.363 . S
C93 N90 1.377 . S
C93 C106 1.479 . S
C94 C91 1.480 . S
C94 C95 1.383 . S
C94 C99 1.385 . S
C95 H76 0.947 . S
C95 C94 1.383 . S
C95 C96 1.388 . S
C96 H77 0.946 . S
C96 C95 1.388 . S
C96 C97 1.384 . S
C97 C96 1.384 . S
C97 C98 1.377 . S
C98 H78 0.953 . S
C98 C97 1.377 . S
C98 C99 1.369 . S
C99 H79 0.945 . S
C99 C94 1.385 . S
C99 C98 1.369 . S
C100 C92 1.457 . S
C100 C101 1.372 . S
C100 C105 1.364 . S
C101 H80 0.952 . S
C101 C100 1.372 . S
C101 C102 1.389 . S
C102 H81 0.949 1_554 S
C102 C101 1.389 . S
C102 C103 1.387 . S
C103 C102 1.387 . S
C103 C104 1.372 . S
C104 H82 0.950 . S
C104 C103 1.372 . S
C104 C105 1.379 . S
C105 H83 0.948 . S
C105 C100 1.364 . S
C105 C104 1.379 . S
C106 C75 1.383 . S
C106 C93 1.479 . S
C106 C107 1.398 . S
C107 C72 1.382 . S
C107 H84 0.951 . S
C107 C106 1.398 . S
C108 C109 1.384 . S
C108 H121 0.947 . S
C108 C143 1.382 . S
C109 C108 1.384 . S
C109 C110 1.378 . S
C110 C109 1.378 . S
C110 C111 1.378 . S
C110 H122 0.952 1_554 S
C111 C110 1.378 . S
C111 H123 0.950 . S
C111 C142 1.383 . S
H112 C131 0.947 . S
H113 C132 0.946 . S
H114 C134 0.953 . S
H115 C135 0.945 . S
H116 C137 0.952 . S
H117 C138 0.949 . S
H118 C140 0.950 . S
H119 C141 0.948 . S
H120 C143 0.951 . S
H121 C108 0.947 . S
H122 C110 0.952 1_556 S
H123 C111 0.950 . S
N124 C127 1.382 . S
N124 C129 1.363 . S
N125 C127 1.371 . S
N125 C128 1.372 . S
N126 C128 1.361 . S
N126 C129 1.377 . S
C127 N124 1.382 . S
C127 N125 1.371 . S
C127 C130 1.480 . S
C128 N125 1.372 . S
C128 N126 1.361 . S
C128 C136 1.457 . S
C129 N124 1.363 . S
C129 N126 1.377 . S
C129 C142 1.479 . S
C130 C127 1.480 . S
C130 C131 1.383 . S
C130 C135 1.385 . S
C131 H112 0.947 . S
C131 C130 1.383 . S
C131 C132 1.388 . S
C132 H113 0.946 . S
C132 C131 1.388 . S
C132 C133 1.384 . S
C133 C132 1.384 . S
C133 C134 1.377 . S
C134 H114 0.953 . S
C134 C133 1.377 . S
C134 C135 1.369 . S
C135 H115 0.945 . S
C135 C130 1.385 . S
C135 C134 1.369 . S
C136 C128 1.457 . S
C136 C137 1.372 . S
C136 C141 1.364 . S
C137 H116 0.952 . S
C137 C136 1.372 . S
C137 C138 1.389 . S
C138 H117 0.949 . S
C138 C137 1.389 . S
C138 C139 1.387 . S
C139 C138 1.387 . S
C139 C140 1.372 . S
C140 H118 0.950 . S
C140 C139 1.372 . S
C140 C141 1.379 . S
C141 H119 0.948 . S
C141 C136 1.364 . S
C141 C140 1.379 . S
C142 C111 1.383 . S
C142 C129 1.479 . S
C142 C143 1.398 . S
C143 C108 1.382 . S
C143 H120 0.951 . S
C143 C142 1.398 . S
C144 C145 1.384 . S
C144 H157 0.947 . S
C144 C179 1.382 . S
C145 C144 1.384 . S
C145 C146 1.378 . S
C146 C145 1.378 . S
C146 C147 1.378 . S
C146 H158 0.952 . S
C147 C146 1.378 . S
C147 H159 0.950 . S
C147 C178 1.383 . S
H148 C167 0.947 1_556 S
H149 C168 0.946 . S
H150 C170 0.953 . S
H151 C171 0.945 . S
H152 C173 0.952 . S
H153 C174 0.949 . S
H154 C176 0.950 . S
H155 C177 0.948 . S
H156 C179 0.951 . S
H157 C144 0.947 . S
H158 C146 0.952 . S
H159 C147 0.950 . S
N160 C163 1.382 1_556 S
N160 C165 1.363 . S
N161 C163 1.371 . S
N161 C164 1.372 . S
N162 C164 1.361 . S
N162 C165 1.377 1_554 S
C163 N160 1.382 1_554 S
C163 N161 1.371 . S
C163 C166 1.480 . S
C164 N161 1.372 . S
C164 N162 1.361 . S
C164 C172 1.457 . S
C165 N160 1.363 . S
C165 N162 1.377 1_556 S
C165 C178 1.479 . S
C166 C163 1.480 . S
C166 C167 1.383 . S
C166 C171 1.385 . S
C167 H148 0.947 1_554 S
C167 C166 1.383 . S
C167 C168 1.388 . S
C168 H149 0.946 . S
C168 C167 1.388 . S
C168 C169 1.384 . S
C169 C168 1.384 . S
C169 C170 1.377 . S
C170 H150 0.953 . S
C170 C169 1.377 . S
C170 C171 1.369 . S
C171 H151 0.945 . S
C171 C166 1.385 . S
C171 C170 1.369 . S
C172 C164 1.457 . S
C172 C173 1.372 . S
C172 C177 1.364 . S
C173 H152 0.952 . S
C173 C172 1.372 . S
C173 C174 1.389 . S
C174 H153 0.949 . S
C174 C173 1.389 . S
C174 C175 1.387 . S
C175 C174 1.387 . S
C175 C176 1.372 . S
C176 H154 0.950 . S
C176 C175 1.372 . S
C176 C177 1.379 . S
C177 H155 0.948 . S
C177 C172 1.364 . S
C177 C176 1.379 . S
C178 C147 1.383 . S
C178 C165 1.479 . S
C178 C179 1.398 . S
C179 C144 1.382 . S
C179 H156 0.951 . S
C179 C178 1.398 . S
C180 C181 1.384 . S
C180 H193 0.947 . S
C180 C215 1.382 . S
C181 C180 1.384 . S
C181 C182 1.378 . S
C182 C181 1.378 . S
C182 C183 1.378 . S
C182 H194 0.952 . S
C183 C182 1.378 . S
C183 H195 0.950 . S
C183 C214 1.383 . S
H184 C203 0.947 1_556 S
H185 C204 0.946 . S
H186 C206 0.953 . S
H187 C207 0.945 . S
H188 C209 0.952 . S
H189 C210 0.949 . S
H190 C212 0.950 . S
H191 C213 0.948 . S
H192 C215 0.951 . S
H193 C180 0.947 . S
H194 C182 0.952 . S
H195 C183 0.950 . S
N196 C199 1.366 1_556 S
N196 C201 1.366 . S
N197 C199 1.371 . S
N197 C200 1.372 . S
N198 C200 1.361 . S
N198 C201 1.377 1_554 S
C199 N196 1.366 1_554 S
C199 N197 1.371 . S
C199 C202 1.480 . S
C200 N197 1.372 . S
C200 N198 1.361 . S
C200 C208 1.457 . S
C201 N196 1.366 . S
C201 N198 1.377 1_556 S
C201 C214 1.479 . S
C202 C199 1.480 . S
C202 C203 1.383 . S
C202 C207 1.385 . S
C203 H184 0.947 1_554 S
C203 C202 1.383 . S
C203 C204 1.388 . S
C204 H185 0.946 . S
C204 C203 1.388 . S
C204 C205 1.384 . S
C205 C204 1.384 . S
C205 C206 1.377 . S
C206 H186 0.953 . S
C206 C205 1.377 . S
C206 C207 1.369 . S
C207 H187 0.945 . S
C207 C202 1.385 . S
C207 C206 1.369 . S
C208 C200 1.457 . S
C208 C209 1.372 . S
C208 C213 1.364 . S
C209 H188 0.952 . S
C209 C208 1.372 . S
C209 C210 1.389 . S
C210 H189 0.949 . S
C210 C209 1.389 . S
C210 C211 1.387 . S
C211 C210 1.387 . S
C211 C212 1.372 . S
C212 H190 0.950 . S
C212 C211 1.372 . S
C212 C213 1.379 . S
C213 H191 0.948 . S
C213 C208 1.364 . S
C213 C212 1.379 . S
C214 C183 1.383 . S
C214 C201 1.479 . S
C214 C215 1.398 . S
C215 C180 1.382 . S
C215 H192 0.951 . S
C215 C214 1.398 . S
C216 C217 1.384 . S
C216 H229 0.947 . S
C216 C251 1.382 . S
C217 C216 1.384 . S
C217 C218 1.378 . S
C218 C217 1.378 . S
C218 C219 1.378 . S
C218 H230 0.952 . S
C219 C218 1.378 . S
C219 H231 0.950 . S
C219 C250 1.383 . S
H220 C239 0.947 1_556 S
H221 C240 0.946 . S
H222 C242 0.953 . S
H223 C243 0.945 . S
H224 C245 0.952 . S
H225 C246 0.949 . S
H226 C248 0.950 . S
H227 C249 0.948 . S
H228 C251 0.951 . S
H229 C216 0.947 . S
H230 C218 0.952 . S
H231 C219 0.950 . S
N232 C235 1.376 1_556 S
N232 C237 1.364 . S
N233 C235 1.371 . S
N233 C236 1.372 . S
N234 C236 1.361 . S
N234 C237 1.377 1_554 S
C235 N232 1.376 1_554 S
C235 N233 1.371 . S
C235 C238 1.480 . S
C236 N233 1.372 . S
C236 N234 1.361 . S
C236 C244 1.457 . S
C237 N232 1.364 . S
C237 N234 1.377 1_556 S
C237 C250 1.479 . S
C238 C235 1.480 . S
C238 C239 1.383 . S
C238 C243 1.385 . S
C239 H220 0.947 1_554 S
C239 C238 1.383 . S
C239 C240 1.388 . S
C240 H221 0.946 . S
C240 C239 1.388 . S
C240 C241 1.384 . S
C241 C240 1.384 . S
C241 C242 1.377 . S
C242 H222 0.953 . S
C242 C241 1.377 . S
C242 C243 1.369 . S
C243 H223 0.945 . S
C243 C238 1.385 . S
C243 C242 1.369 . S
C244 C236 1.457 . S
C244 C245 1.372 . S
C244 C249 1.364 . S
C245 H224 0.952 . S
C245 C244 1.372 . S
C245 C246 1.389 . S
C246 H225 0.949 . S
C246 C245 1.389 . S
C246 C247 1.387 . S
C247 C246 1.387 . S
C247 C248 1.372 . S
C248 H226 0.950 . S
C248 C247 1.372 . S
C248 C249 1.379 . S
C249 H227 0.948 . S
C249 C244 1.364 . S
C249 C248 1.379 . S
C250 C219 1.383 . S
C250 C237 1.479 . S
C250 C251 1.398 . S
C251 C216 1.382 . S
C251 H228 0.951 . S
C251 C250 1.398 . S
C252 C253 1.384 . S
C252 H265 0.947 . S
C252 C287 1.382 . S
C253 C252 1.384 . S
C253 C254 1.378 . S
C254 C253 1.378 . S
C254 C255 1.378 . S
C254 H266 0.952 . S
C255 C254 1.378 . S
C255 H267 0.950 . S
C255 C286 1.383 . S
H256 C275 0.947 . S
H257 C276 0.946 . S
H258 C278 0.953 . S
H259 C279 0.945 1_556 S
H260 C281 0.952 . S
H261 C282 0.949 . S
H262 C284 0.950 . S
H263 C285 0.948 . S
H264 C287 0.951 . S
H265 C252 0.947 . S
H266 C254 0.952 . S
H267 C255 0.950 . S
N268 C271 1.382 . S
N268 C273 1.363 . S
N269 C271 1.371 1_556 S
N269 C272 1.372 . S
N270 C272 1.361 1_554 S
N270 C273 1.377 . S
C271 N268 1.382 . S
C271 N269 1.371 1_554 S
C271 C274 1.480 . S
C272 N269 1.372 . S
C272 N270 1.361 1_556 S
C272 C280 1.457 . S
C273 N268 1.363 . S
C273 N270 1.377 . S
C273 C286 1.479 . S
C274 C271 1.480 . S
C274 C275 1.383 . S
C274 C279 1.385 . S
C275 H256 0.947 . S
C275 C274 1.383 . S
C275 C276 1.388 . S
C276 H257 0.946 . S
C276 C275 1.388 . S
C276 C277 1.384 . S
C277 C276 1.384 . S
C277 C278 1.377 . S
C278 H258 0.953 . S
C278 C277 1.377 . S
C278 C279 1.369 . S
C279 H259 0.945 1_554 S
C279 C274 1.385 . S
C279 C278 1.369 . S
C280 C272 1.457 . S
C280 C281 1.372 . S
C280 C285 1.364 . S
C281 H260 0.952 . S
C281 C280 1.372 . S
C281 C282 1.389 . S
C282 H261 0.949 . S
C282 C281 1.389 . S
C282 C283 1.387 . S
C283 C282 1.387 . S
C283 C284 1.372 . S
C284 H262 0.950 . S
C284 C283 1.372 . S
C284 C285 1.379 . S
C285 H263 0.948 . S
C285 C280 1.364 . S
C285 C284 1.379 . S
C286 C255 1.383 . S
C286 C273 1.479 . S
C286 C287 1.398 . S
C287 C252 1.382 . S
C287 H264 0.951 . S
C287 C286 1.398 . S
Tb288 N317 2.617 . S
Tb288 N323 2.572 . S
Tb288 O332 2.465 . S
Tb288 O333 2.387 1_545 S
Tb288 O335 2.428 . S
Tb288 O336 2.308 1_655 S
Tb288 O340 2.349 1_655 S
Tb288 O343 2.393 . S
Tb288 C352 2.802 . S
C289 N290 1.379 . S
C289 C292 1.416 . S
C289 C296 1.424 . S
N290 C289 1.379 . S
N290 C293 1.335 1_545 S
N290 Tb299 2.617 1_545 S
C291 C293 1.391 1_545 S
C291 C294 1.339 . S
C291 H311 0.930 . S
C292 C289 1.416 . S
C292 C294 1.416 . S
C292 C298 1.448 . S
C293 N290 1.335 1_565 S
C293 C291 1.391 1_565 S
C293 H304 0.928 . S
C294 C291 1.339 . S
C294 C292 1.416 . S
C294 H315 0.930 . S
C295 C296 1.413 . S
C295 C297 1.427 . S
C295 C301 1.416 . S
C296 C289 1.424 . S
C296 C295 1.413 . S
C296 N300 1.361 . S
C297 C295 1.427 . S
C297 C298 1.328 . S
C297 H312 0.929 . S
C298 C292 1.448 . S
C298 C297 1.328 . S
C298 H313 0.930 . S
Tb299 N290 2.617 1_565 S
Tb299 N300 2.572 1_565 S
Tb299 O334 2.349 . S
Tb299 O337 2.393 . S
Tb299 O338 2.465 . S
Tb299 O339 2.387 1_565 S
Tb299 O341 2.428 . S
Tb299 O342 2.308 1_465 S
Tb299 C363 2.802 . S
N300 C296 1.361 . S
N300 Tb299 2.572 1_545 S
N300 C302 1.340 . S
C301 C295 1.416 . S
C301 C303 1.332 . S
C301 H309 0.931 . S
C302 N300 1.340 . S
C302 C303 1.407 . S
C302 H308 0.911 1_455 S
C303 C301 1.332 . S
C303 C302 1.407 . S
C303 H305 0.929 . S
H304 C293 0.928 . S
H305 C303 0.929 . S
H306 C321 0.930 . S
H307 C328 0.929 1_455 S
H308 C302 0.911 1_655 S
H309 C301 0.931 . S
H310 C324 0.930 1_455 S
H311 C291 0.930 . S
H312 C297 0.929 . S
H313 C298 0.930 . S
H314 C319 0.930 . S
H315 C294 0.930 . S
H316 C327 0.931 . S
N317 Tb288 2.617 . S
N317 C318 1.379 . S
N317 C321 1.334 . S
C318 N317 1.379 . S
C318 C320 1.416 1_545 S
C318 C326 1.424 . S
C319 H314 0.930 . S
C319 C321 1.390 . S
C319 C322 1.327 1_545 S
C320 C318 1.416 1_565 S
C320 C322 1.419 . S
C320 C353 1.448 . S
C321 H306 0.930 . S
C321 N317 1.334 . S
C321 C319 1.390 . S
C322 C319 1.327 1_565 S
C322 C320 1.419 . S
C322 H329 0.940 . S
N323 Tb288 2.572 . S
N323 C324 1.340 . S
N323 C326 1.361 . S
C324 H310 0.930 1_655 S
C324 N323 1.340 . S
C324 C328 1.407 1_545 S
C325 C326 1.413 1_565 S
C325 C327 1.416 . S
C325 C354 1.427 . S
C326 C318 1.424 . S
C326 N323 1.361 . S
C326 C325 1.413 1_545 S
C327 H316 0.931 . S
C327 C325 1.416 . S
C327 C328 1.332 . S
C328 H307 0.929 1_655 S
C328 C324 1.407 1_565 S
C328 C327 1.332 . S
H329 C322 0.940 . S
H330 C353 0.930 . S
H331 C354 0.929 . S
O332 Tb288 2.465 . S
O332 C352 1.264 . S
O333 Tb288 2.387 1_565 S
O333 C344 1.264 . S
O334 Tb299 2.349 . S
O334 C344 1.243 1_455 S
O335 Tb288 2.428 . S
O335 C352 1.256 . S
O336 Tb288 2.308 1_455 S
O336 C351 1.266 . S
O337 Tb299 2.393 . S
O337 C351 1.248 1_565 S
O338 Tb299 2.465 . S
O338 C363 1.264 . S
O339 Tb299 2.387 1_545 S
O339 C355 1.264 . S
O340 Tb288 2.349 1_455 S
O340 C355 1.243 . S
O341 Tb299 2.428 . S
O341 C363 1.256 . S
O342 Tb299 2.308 1_645 S
O342 C362 1.266 . S
O343 Tb288 2.393 . S
O343 C362 1.248 . S
C344 O333 1.264 . S
C344 O334 1.243 1_655 S
C345 C348 1.399 . S
C345 C350 1.383 . S
C345 C352 1.496 . S
C346 C347 1.399 . S
C346 C350 1.389 . S
C347 C346 1.399 . S
C347 C349 1.380 . S
C347 H364 0.929 . S
C348 C345 1.399 . S
C348 C349 1.392 . S
C348 H365 0.929 . S
C349 C347 1.380 . S
C349 C348 1.392 . S
C349 H366 0.929 . S
C350 C345 1.383 . S
C350 C346 1.389 . S
C350 H367 0.931 1_655 S
C351 O336 1.266 . S
C351 O337 1.248 1_545 S
C352 Tb288 2.802 . S
C352 O332 1.264 . S
C352 O335 1.256 . S
C352 C345 1.496 . S
C353 C320 1.448 . S
C353 H330 0.930 . S
C353 C354 1.328 . S
C354 C325 1.427 . S
C354 H331 0.929 . S
C354 C353 1.328 . S
C355 O339 1.264 . S
C355 O340 1.243 . S
C356 C359 1.399 . S
C356 C360 1.383 . S
C356 C363 1.496 . S
C357 C358 1.399 . S
C357 C360 1.389 . S
C358 C357 1.399 . S
C358 C361 1.380 . S
C358 H368 0.929 . S
C359 C356 1.399 . S
C359 C361 1.392 . S
C359 H369 0.929 . S
C360 C356 1.383 . S
C360 C357 1.389 . S
C360 H370 0.931 . S
C361 C358 1.380 . S
C361 C359 1.392 . S
C361 H371 0.929 . S
C362 O342 1.266 . S
C362 O343 1.248 . S
C363 Tb299 2.802 . S
C363 O338 1.264 . S
C363 O341 1.256 . S
C363 C356 1.496 . S
H364 C347 0.929 . S
H365 C348 0.929 . S
H366 C349 0.929 . S
H367 C350 0.931 1_455 S
H368 C358 0.929 . S
H369 C359 0.929 . S
H370 C360 0.931 . S
H371 C361 0.929 . S
Tb372 N401 2.617 . S
Tb372 N407 2.572 . S
Tb372 O416 2.465 . S
Tb372 O417 2.387 . S
Tb372 O419 2.428 . S
Tb372 O420 2.308 . S
Tb372 O424 2.349 1_545 S
Tb372 O427 2.393 . S
Tb372 C436 2.802 . S
C373 N374 1.379 . S
C373 C376 1.416 . S
C373 C380 1.424 . S
N374 C373 1.379 . S
N374 C377 1.334 . S
N374 Tb383 2.617 . S
C375 C377 1.390 . S
C375 C378 1.339 . S
C375 H395 0.930 . S
C376 C373 1.416 . S
C376 C378 1.416 . S
C376 C382 1.448 . S
C377 N374 1.334 . S
C377 C375 1.390 . S
C377 H388 0.930 . S
C378 C375 1.339 . S
C378 C376 1.416 . S
C378 H399 0.930 . S
C379 C380 1.413 . S
C379 C381 1.427 . S
C379 C385 1.416 . S
C380 C373 1.424 . S
C380 C379 1.413 . S
C380 N384 1.361 . S
C381 C379 1.427 . S
C381 C382 1.328 . S
C381 H396 0.929 . S
C382 C376 1.448 . S
C382 C381 1.328 . S
C382 H397 0.930 . S
Tb383 N374 2.617 . S
Tb383 N384 2.572 . S
Tb383 O418 2.349 1_565 S
Tb383 O421 2.393 . S
Tb383 O422 2.465 . S
Tb383 O423 2.387 . S
Tb383 O425 2.428 . S
Tb383 O426 2.308 1_565 S
Tb383 C447 2.802 . S
N384 C380 1.361 . S
N384 Tb383 2.572 . S
N384 C386 1.340 . S
C385 C379 1.416 . S
C385 C387 1.332 . S
C385 H393 0.931 . S
C386 N384 1.340 . S
C386 C387 1.407 . S
C386 H392 0.930 . S
C387 C385 1.332 . S
C387 C386 1.407 . S
C387 H389 0.929 . S
H388 C377 0.930 . S
H389 C387 0.929 . S
H390 C405 0.930 . S
H391 C412 0.929 . S
H392 C386 0.930 . S
H393 C385 0.931 . S
H394 C408 0.930 . S
H395 C375 0.930 . S
H396 C381 0.929 . S
H397 C382 0.930 . S
H398 C403 0.930 . S
H399 C378 0.930 . S
H400 C411 0.931 . S
N401 Tb372 2.617 . S
N401 C402 1.379 . S
N401 C405 1.334 . S
C402 N401 1.379 . S
C402 C404 1.416 . S
C402 C410 1.424 . S
C403 H398 0.930 . S
C403 C405 1.390 . S
C403 C406 1.339 . S
C404 C402 1.416 . S
C404 C406 1.416 . S
C404 C437 1.448 . S
C405 H390 0.930 . S
C405 N401 1.334 . S
C405 C403 1.390 . S
C406 C403 1.339 . S
C406 C404 1.416 . S
C406 H413 0.930 . S
N407 Tb372 2.572 . S
N407 C408 1.340 . S
N407 C410 1.361 . S
C408 H394 0.930 . S
C408 N407 1.340 . S
C408 C412 1.407 . S
C409 C410 1.413 . S
C409 C411 1.416 . S
C409 C438 1.427 . S
C410 C402 1.424 . S
C410 N407 1.361 . S
C410 C409 1.413 . S
C411 H400 0.931 . S
C411 C409 1.416 . S
C411 C412 1.332 . S
C412 H391 0.929 . S
C412 C408 1.407 . S
C412 C411 1.332 . S
H413 C406 0.930 . S
H414 C437 0.930 . S
H415 C438 0.929 . S
O416 Tb372 2.465 . S
O416 C436 1.264 . S
O417 Tb372 2.387 . S
O417 C428 1.264 . S
O418 Tb383 2.349 1_545 S
O418 C428 1.243 . S
O419 Tb372 2.428 . S
O419 C436 1.256 . S
O420 Tb372 2.308 . S
O420 C435 1.252 1_545 S
O421 Tb383 2.393 . S
O421 C435 1.257 . S
O422 Tb383 2.465 . S
O422 C447 1.264 . S
O423 Tb383 2.387 . S
O423 C439 1.264 . S
O424 Tb372 2.349 1_565 S
O424 C439 1.243 . S
O425 Tb383 2.428 . S
O425 C447 1.256 . S
O426 Tb383 2.308 1_545 S
O426 C446 1.266 . S
O427 Tb372 2.393 . S
O427 C446 1.248 . S
C428 O417 1.264 . S
C428 O418 1.243 . S
C429 C432 1.399 . S
C429 C434 1.383 . S
C429 C436 1.496 . S
C430 C431 1.399 . S
C430 C434 1.389 . S
C431 C430 1.399 . S
C431 C433 1.380 . S
C431 H448 0.929 . S
C432 C429 1.399 . S
C432 C433 1.392 . S
C432 H449 0.929 . S
C433 C431 1.380 . S
C433 C432 1.392 . S
C433 H450 0.929 . S
C434 C429 1.383 . S
C434 C430 1.389 . S
C434 H451 0.931 . S
C435 O420 1.252 1_565 S
C435 O421 1.257 . S
C436 Tb372 2.802 . S
C436 O416 1.264 . S
C436 O419 1.256 . S
C436 C429 1.496 . S
C437 C404 1.448 . S
C437 H414 0.930 . S
C437 C438 1.328 . S
C438 C409 1.427 . S
C438 H415 0.929 . S
C438 C437 1.328 . S
C439 O423 1.264 . S
C439 O424 1.243 . S
C440 C443 1.399 . S
C440 C444 1.383 1_565 S
C440 C447 1.496 . S
C441 C442 1.399 1_545 S
C441 C444 1.389 . S
C442 C441 1.399 1_565 S
C442 C445 1.380 . S
C442 H452 0.929 . S
C443 C440 1.399 . S
C443 C445 1.392 . S
C443 H453 0.929 . S
C444 C440 1.383 1_545 S
C444 C441 1.389 . S
C444 H454 0.931 . S
C445 C442 1.380 . S
C445 C443 1.392 . S
C445 H455 0.929 . S
C446 O426 1.266 . S
C446 O427 1.248 . S
C447 Tb383 2.802 . S
C447 O422 1.264 . S
C447 O425 1.256 . S
C447 C440 1.496 . S
H448 C431 0.929 . S
H449 C432 0.929 . S
H450 C433 0.929 . S
H451 C434 0.931 . S
H452 C442 0.929 . S
H453 C443 0.929 . S
H454 C444 0.931 . S
H455 C445 0.929 . S
Tb456 N485 2.617 . S
Tb456 N491 2.572 . S
Tb456 O500 2.465 . S
Tb456 O501 2.387 . S
Tb456 O503 2.428 . S
Tb456 O504 2.308 . S
Tb456 O508 2.349 . S
Tb456 O511 2.393 . S
Tb456 C520 2.802 . S
C457 N458 1.379 . S
C457 C460 1.416 . S
C457 C464 1.424 . S
N458 C457 1.379 . S
N458 C461 1.334 . S
N458 Tb467 2.617 . S
C459 C461 1.390 . S
C459 C462 1.339 . S
C459 H479 0.930 . S
C460 C457 1.416 . S
C460 C462 1.416 . S
C460 C466 1.448 . S
C461 N458 1.334 . S
C461 C459 1.390 . S
C461 H472 0.930 . S
C462 C459 1.339 . S
C462 C460 1.416 . S
C462 H483 0.930 . S
C463 C464 1.413 . S
C463 C465 1.427 . S
C463 C469 1.416 . S
C464 C457 1.424 . S
C464 C463 1.413 . S
C464 N468 1.361 . S
C465 C463 1.427 . S
C465 C466 1.328 . S
C465 H480 0.929 . S
C466 C460 1.448 . S
C466 C465 1.328 . S
C466 H481 0.930 . S
Tb467 N458 2.617 . S
Tb467 N468 2.572 . S
Tb467 O502 2.349 . S
Tb467 O505 2.393 . S
Tb467 O506 2.465 . S
Tb467 O507 2.387 . S
Tb467 O509 2.428 . S
Tb467 O510 2.308 . S
Tb467 C531 2.802 . S
N468 C464 1.361 . S
N468 Tb467 2.572 . S
N468 C470 1.340 . S
C469 C463 1.416 . S
C469 C471 1.332 . S
C469 H477 0.931 . S
C470 N468 1.340 . S
C470 C471 1.407 . S
C470 H476 0.930 . S
C471 C469 1.332 . S
C471 C470 1.407 . S
C471 H473 0.929 . S
H472 C461 0.930 . S
H473 C471 0.929 . S
H474 C489 0.930 . S
H475 C496 0.929 . S
H476 C470 0.930 . S
H477 C469 0.931 . S
H478 C492 0.930 . S
H479 C459 0.930 . S
H480 C465 0.929 . S
H481 C466 0.930 . S
H482 C487 0.930 . S
H483 C462 0.930 . S
H484 C495 0.931 . S
N485 Tb456 2.617 . S
N485 C486 1.379 . S
N485 C489 1.334 . S
C486 N485 1.379 . S
C486 C488 1.416 . S
C486 C494 1.424 . S
C487 H482 0.930 . S
C487 C489 1.390 . S
C487 C490 1.339 . S
C488 C486 1.416 . S
C488 C490 1.416 . S
C488 C521 1.448 . S
C489 H474 0.930 . S
C489 N485 1.334 . S
C489 C487 1.390 . S
C490 C487 1.339 . S
C490 C488 1.416 . S
C490 H497 0.930 . S
N491 Tb456 2.572 . S
N491 C492 1.340 . S
N491 C494 1.361 . S
C492 H478 0.930 . S
C492 N491 1.340 . S
C492 C496 1.407 . S
C493 C494 1.413 . S
C493 C495 1.416 . S
C493 C522 1.427 . S
C494 C486 1.424 . S
C494 N491 1.361 . S
C494 C493 1.413 . S
C495 H484 0.931 . S
C495 C493 1.416 . S
C495 C496 1.332 . S
C496 H475 0.929 . S
C496 C492 1.407 . S
C496 C495 1.332 . S
H497 C490 0.930 . S
H498 C521 0.930 . S
H499 C522 0.929 . S
O500 Tb456 2.465 . S
O500 C520 1.264 . S
O501 Tb456 2.387 . S
O501 C512 1.264 . S
O502 Tb467 2.349 . S
O502 C512 1.243 . S
O503 Tb456 2.428 . S
O503 C520 1.256 . S
O504 Tb456 2.308 . S
O504 C519 1.266 . S
O505 Tb467 2.393 . S
O505 C519 1.248 . S
O506 Tb467 2.465 . S
O506 C531 1.264 . S
O507 Tb467 2.387 . S
O507 C523 1.264 . S
O508 Tb456 2.349 . S
O508 C523 1.243 . S
O509 Tb467 2.428 . S
O509 C531 1.256 . S
O510 Tb467 2.308 . S
O510 C530 1.266 . S
O511 Tb456 2.393 . S
O511 C530 1.248 . S
C512 O501 1.264 . S
C512 O502 1.243 . S
C513 C516 1.399 . S
C513 C518 1.383 . S
C513 C520 1.496 . S
C514 C515 1.399 . S
C514 C518 1.389 . S
C515 C514 1.399 . S
C515 C517 1.380 . S
C515 H532 0.929 . S
C516 C513 1.399 . S
C516 C517 1.392 . S
C516 H533 0.929 . S
C517 C515 1.380 . S
C517 C516 1.392 . S
C517 H534 0.929 . S
C518 C513 1.383 . S
C518 C514 1.389 . S
C518 H535 0.931 . S
C519 O504 1.266 . S
C519 O505 1.248 . S
C520 Tb456 2.802 . S
C520 O500 1.264 . S
C520 O503 1.256 . S
C520 C513 1.496 . S
C521 C488 1.448 . S
C521 H498 0.930 . S
C521 C522 1.328 . S
C522 C493 1.427 . S
C522 H499 0.929 . S
C522 C521 1.328 . S
C523 O507 1.264 . S
C523 O508 1.243 . S
C524 C527 1.399 . S
C524 C528 1.383 . S
C524 C531 1.496 . S
C525 C526 1.399 . S
C525 C528 1.389 . S
C526 C525 1.399 . S
C526 C529 1.380 . S
C526 H536 0.929 . S
C527 C524 1.399 . S
C527 C529 1.392 . S
C527 H537 0.929 . S
C528 C524 1.383 . S
C528 C525 1.389 . S
C528 H538 0.931 . S
C529 C526 1.380 . S
C529 C527 1.392 . S
C529 H539 0.929 . S
C530 O510 1.266 . S
C530 O511 1.248 . S
C531 Tb467 2.802 . S
C531 O506 1.264 . S
C531 O509 1.256 . S
C531 C524 1.496 . S
H532 C515 0.929 . S
H533 C516 0.929 . S
H534 C517 0.929 . S
H535 C518 0.931 . S
H536 C526 0.929 . S
H537 C527 0.929 . S
H538 C528 0.931 . S
H539 C529 0.929 . S
Tb540 N569 2.617 . S
Tb540 N575 2.572 . S
Tb540 O584 2.465 . S
Tb540 O585 2.387 1_455 S
Tb540 O587 2.428 . S
Tb540 O588 2.308 . S
Tb540 O592 2.349 . S
Tb540 O595 2.393 . S
Tb540 C604 2.802 . S
C541 N542 1.379 1_455 S
C541 C544 1.416 . S
C541 C548 1.424 . S
N542 C541 1.379 1_655 S
N542 C545 1.334 . S
N542 Tb551 2.617 . S
C543 C545 1.390 1_455 S
C543 C546 1.339 . S
C543 H563 0.930 1_455 S
C544 C541 1.416 . S
C544 C546 1.416 . S
C544 C550 1.448 . S
C545 N542 1.334 . S
C545 C543 1.390 1_655 S
C545 H556 0.930 . S
C546 C543 1.339 . S
C546 C544 1.416 . S
C546 H567 0.930 . S
C547 C548 1.413 . S
C547 C549 1.427 . S
C547 C553 1.416 . S
C548 C541 1.424 . S
C548 C547 1.413 . S
C548 N552 1.361 . S
C549 C547 1.427 . S
C549 C550 1.328 . S
C549 H564 0.929 . S
C550 C544 1.448 . S
C550 C549 1.328 . S
C550 H565 0.930 . S
Tb551 N542 2.617 . S
Tb551 N552 2.572 1_655 S
Tb551 O586 2.349 . S
Tb551 O589 2.393 . S
Tb551 O590 2.465 . S
Tb551 O591 2.387 1_655 S
Tb551 O593 2.428 . S
Tb551 O594 2.320 . S
Tb551 C615 2.802 . S
N552 C548 1.361 . S
N552 Tb551 2.572 1_455 S
N552 C554 1.340 . S
C553 C547 1.416 . S
C553 C555 1.332 . S
C553 H561 0.931 . S
C554 N552 1.340 . S
C554 C555 1.407 . S
C554 H560 0.930 1_455 S
C555 C553 1.332 . S
C555 C554 1.407 . S
C555 H557 0.929 . S
H556 C545 0.930 . S
H557 C555 0.929 . S
H558 C573 0.930 . S
H559 C580 0.929 . S
H560 C554 0.930 1_655 S
H561 C553 0.931 . S
H562 C576 0.930 . S
H563 C543 0.930 1_655 S
H564 C549 0.929 . S
H565 C550 0.930 . S
H566 C571 0.930 . S
H567 C546 0.930 . S
H568 C579 0.931 . S
N569 Tb540 2.617 . S
N569 C570 1.379 . S
N569 C573 1.334 . S
C570 N569 1.379 . S
C570 C572 1.416 1_455 S
C570 C578 1.427 . S
C571 H566 0.930 . S
C571 C573 1.390 . S
C571 C574 1.339 1_455 S
C572 C570 1.416 1_655 S
C572 C574 1.416 . S
C572 C605 1.448 . S
C573 H558 0.930 . S
C573 N569 1.334 . S
C573 C571 1.390 . S
C574 C571 1.339 1_655 S
C574 C572 1.416 . S
C574 H581 0.930 . S
N575 Tb540 2.572 . S
N575 C576 1.340 . S
N575 C578 1.372 . S
C576 H562 0.930 . S
C576 N575 1.340 . S
C576 C580 1.407 1_455 S
C577 C578 1.400 1_655 S
C577 C579 1.416 . S
C577 C606 1.427 . S
C578 C570 1.427 . S
C578 N575 1.372 . S
C578 C577 1.400 1_455 S
C579 H568 0.931 . S
C579 C577 1.416 . S
C579 C580 1.332 . S
C580 H559 0.929 . S
C580 C576 1.407 1_655 S
C580 C579 1.332 . S
H581 C574 0.930 . S
H582 C605 0.930 . S
H583 C606 0.929 . S
O584 Tb540 2.465 . S
O584 C604 1.264 . S
O585 Tb540 2.387 1_655 S
O585 C596 1.264 . S
O586 Tb551 2.349 . S
O586 C596 1.243 . S
O587 Tb540 2.428 . S
O587 C604 1.256 . S
O588 Tb540 2.308 . S
O588 C603 1.266 . S
O589 Tb551 2.393 . S
O589 C603 1.248 1_655 S
O590 Tb551 2.465 . S
O590 C615 1.264 . S
O591 Tb551 2.387 1_455 S
O591 C607 1.264 . S
O592 Tb540 2.349 . S
O592 C607 1.243 . S
O593 Tb551 2.428 . S
O593 C615 1.256 . S
O594 Tb551 2.320 . S
O594 C614 1.258 1_655 S
O595 Tb540 2.393 . S
O595 C614 1.248 . S
C596 O585 1.264 . S
C596 O586 1.243 . S
C597 C600 1.399 . S
C597 C602 1.383 . S
C597 C604 1.496 . S
C598 C599 1.399 . S
C598 C602 1.389 . S
C599 C598 1.399 . S
C599 C601 1.380 . S
C599 H616 0.929 . S
C600 C597 1.399 . S
C600 C601 1.392 . S
C600 H617 0.929 . S
C601 C599 1.380 . S
C601 C600 1.392 . S
C601 H618 0.929 . S
C602 C597 1.383 . S
C602 C598 1.389 . S
C602 H619 0.931 . S
C603 O588 1.266 . S
C603 O589 1.248 1_455 S
C604 Tb540 2.802 . S
C604 O584 1.264 . S
C604 O587 1.256 . S
C604 C597 1.496 . S
C605 C572 1.448 . S
C605 H582 0.930 . S
C605 C606 1.328 . S
C606 C577 1.427 . S
C606 H583 0.929 . S
C606 C605 1.328 . S
C607 O591 1.264 . S
C607 O592 1.243 . S
C608 C611 1.399 . S
C608 C612 1.383 . S
C608 C615 1.496 . S
C609 C610 1.399 . S
C609 C612 1.389 . S
C610 C609 1.399 . S
C610 C613 1.380 . S
C610 H620 0.929 . S
C611 C608 1.399 . S
C611 C613 1.392 . S
C611 H621 0.929 . S
C612 C608 1.383 . S
C612 C609 1.389 . S
C612 H622 0.931 . S
C613 C610 1.380 . S
C613 C611 1.392 . S
C613 H623 0.929 . S
C614 O594 1.258 1_455 S
C614 O595 1.248 . S
C615 Tb551 2.802 . S
C615 O590 1.264 . S
C615 O593 1.256 . S
C615 C608 1.496 . S
H616 C599 0.929 . S
H617 C600 0.929 . S
H618 C601 0.929 . S
H619 C602 0.931 . S
H620 C610 0.929 . S
H621 C611 0.929 . S
H622 C612 0.931 . S
H623 C613 0.929 . S
C624 C625 1.391 . S
C624 C626 1.394 . S
C624 H640 0.931 . S
C625 C624 1.391 . S
C625 C629 1.376 . S
C626 C624 1.394 . S
C626 C627 1.369 . S
C626 C630 1.531 . S
C627 C626 1.369 . S
C627 C628 1.410 . S
C627 C635 1.503 . S
C628 C627 1.410 . S
C628 C629 1.392 . S
C628 C631 1.511 . S
C629 C625 1.376 . S
C629 C628 1.392 . S
C629 H641 0.929 . S
C630 C626 1.531 . S
C630 H642 0.960 1_545 S
C630 H643 0.962 . S
C630 H644 0.960 1_545 S
C631 C628 1.511 . S
C631 H645 0.961 . S
C631 H646 0.961 . S
C631 H647 0.961 . S
C632 C633 1.370 . S
C632 C634 1.363 . S
C632 H648 0.931 . S
C633 C632 1.370 . S
C633 C637 1.408 . S
C634 C632 1.363 . S
C634 C635 1.370 . S
C634 C638 1.524 . S
C635 C627 1.503 . S
C635 C634 1.370 . S
C635 C636 1.403 . S
C636 C635 1.403 . S
C636 C637 1.404 . S
C636 C639 1.539 1_545 S
C637 C633 1.408 . S
C637 C636 1.404 . S
C637 H649 0.930 1_545 S
C638 C634 1.524 . S
C638 H650 0.956 . S
C638 H651 0.961 . S
C638 H652 0.961 . S
C639 C636 1.539 1_565 S
C639 H653 0.958 . S
C639 H654 0.961 . S
C639 H655 0.960 1_565 S
H640 C624 0.931 . S
H641 C629 0.929 . S
H642 C630 0.960 1_565 S
H643 C630 0.962 . S
H644 C630 0.960 1_565 S
H645 C631 0.961 . S
H646 C631 0.961 . S
H647 C631 0.961 . S
H648 C632 0.931 . S
H649 C637 0.930 1_565 S
H650 C638 0.956 . S
H651 C638 0.961 . S
H652 C638 0.961 . S
H653 C639 0.958 . S
H654 C639 0.961 . S
H655 C639 0.960 1_545 S
C656 C657 1.391 . S
C656 C658 1.394 . S
C656 H672 0.931 . S
C657 C656 1.391 . S
C657 C661 1.376 . S
C658 C656 1.394 . S
C658 C659 1.369 . S
C658 C662 1.531 . S
C659 C658 1.369 . S
C659 C660 1.410 . S
C659 C667 1.503 . S
C660 C659 1.410 . S
C660 C661 1.392 . S
C660 C663 1.511 . S
C661 C657 1.376 . S
C661 C660 1.392 . S
C661 H673 0.929 . S
C662 C658 1.531 . S
C662 H674 0.960 . S
C662 H675 0.962 . S
C662 H676 0.960 . S
C663 C660 1.511 . S
C663 H677 0.961 . S
C663 H678 0.961 . S
C663 H679 0.961 . S
C664 C665 1.370 . S
C664 C666 1.363 . S
C664 H680 0.931 . S
C665 C664 1.370 . S
C665 C669 1.408 . S
C666 C664 1.363 . S
C666 C667 1.370 . S
C666 C670 1.524 . S
C667 C659 1.503 . S
C667 C666 1.370 . S
C667 C668 1.403 . S
C668 C667 1.403 . S
C668 C669 1.404 . S
C668 C671 1.539 . S
C669 C665 1.408 . S
C669 C668 1.404 . S
C669 H681 0.930 . S
C670 C666 1.524 . S
C670 H682 0.956 . S
C670 H683 0.961 . S
C670 H684 0.961 . S
C671 C668 1.539 . S
C671 H685 0.958 . S
C671 H686 0.961 . S
C671 H687 0.960 . S
H672 C656 0.931 . S
H673 C661 0.929 . S
H674 C662 0.960 . S
H675 C662 0.962 . S
H676 C662 0.960 . S
H677 C663 0.961 . S
H678 C663 0.961 . S
H679 C663 0.961 . S
H680 C664 0.931 . S
H681 C669 0.930 . S
H682 C670 0.956 . S
H683 C670 0.961 . S
H684 C670 0.961 . S
H685 C671 0.958 . S
H686 C671 0.961 . S
H687 C671 0.960 . S
C688 C689 1.391 . S
C688 C690 1.394 . S
C688 H704 0.931 . S
C689 C688 1.391 . S
C689 C693 1.376 . S
C690 C688 1.394 . S
C690 C691 1.369 . S
C690 C694 1.531 . S
C691 C690 1.369 . S
C691 C692 1.410 . S
C691 C699 1.503 . S
C692 C691 1.410 . S
C692 C693 1.392 . S
C692 C695 1.511 . S
C693 C689 1.376 . S
C693 C692 1.392 . S
C693 H705 0.929 . S
C694 C690 1.531 . S
C694 H706 0.960 . S
C694 H707 0.962 . S
C694 H708 0.960 . S
C695 C692 1.511 . S
C695 H709 0.961 . S
C695 H710 0.961 . S
C695 H711 0.961 . S
C696 C697 1.370 . S
C696 C698 1.363 . S
C696 H712 0.931 . S
C697 C696 1.370 . S
C697 C701 1.408 . S
C698 C696 1.363 . S
C698 C699 1.370 . S
C698 C702 1.524 . S
C699 C691 1.503 . S
C699 C698 1.370 . S
C699 C700 1.403 . S
C700 C699 1.403 . S
C700 C701 1.404 . S
C700 C703 1.539 . S
C701 C697 1.408 . S
C701 C700 1.404 . S
C701 H713 0.930 . S
C702 C698 1.524 . S
C702 H714 0.956 . S
C702 H715 0.961 . S
C702 H716 0.961 . S
C703 C700 1.539 . S
C703 H717 0.958 . S
C703 H718 0.961 . S
C703 H719 0.960 . S
H704 C688 0.931 . S
H705 C693 0.929 . S
H706 C694 0.960 . S
H707 C694 0.962 . S
H708 C694 0.960 . S
H709 C695 0.961 . S
H710 C695 0.961 . S
H711 C695 0.961 . S
H712 C696 0.931 . S
H713 C701 0.930 . S
H714 C702 0.956 . S
H715 C702 0.961 . S
H716 C702 0.961 . S
H717 C703 0.958 . S
H718 C703 0.961 . S
H719 C703 0.960 . S
C720 C721 1.391 . S
C720 C722 1.394 . S
C720 H736 0.931 . S
C721 C720 1.391 . S
C721 C725 1.376 . S
C722 C720 1.394 . S
C722 C723 1.369 . S
C722 C726 1.531 . S
C723 C722 1.369 . S
C723 C724 1.410 . S
C723 C731 1.503 . S
C724 C723 1.410 . S
C724 C725 1.392 . S
C724 C727 1.511 1_455 S
C725 C721 1.376 . S
C725 C724 1.392 . S
C725 H737 0.929 . S
C726 C722 1.531 . S
C726 H738 0.960 . S
C726 H739 0.962 . S
C726 H740 0.960 . S
C727 C724 1.511 1_655 S
C727 H741 0.961 . S
C727 H742 0.961 . S
C727 H743 0.961 . S
C728 C729 1.370 . S
C728 C730 1.363 . S
C728 H744 0.931 . S
C729 C728 1.370 . S
C729 C733 1.408 . S
C730 C728 1.363 . S
C730 C731 1.370 . S
C730 C734 1.524 . S
C731 C723 1.503 . S
C731 C730 1.370 . S
C731 C732 1.403 . S
C732 C731 1.403 . S
C732 C733 1.404 . S
C732 C735 1.539 . S
C733 C729 1.408 . S
C733 C732 1.404 . S
C733 H745 0.930 . S
C734 C730 1.524 . S
C734 H746 0.956 . S
C734 H747 0.961 . S
C734 H748 0.961 . S
C735 C732 1.539 . S
C735 H749 0.958 . S
C735 H750 0.961 1_455 S
C735 H751 0.970 . S
H736 C720 0.931 . S
H737 C725 0.929 . S
H738 C726 0.960 . S
H739 C726 0.962 . S
H740 C726 0.960 . S
H741 C727 0.961 . S
H742 C727 0.961 . S
H743 C727 0.961 . S
H744 C728 0.931 . S
H745 C733 0.930 . S
H746 C734 0.956 . S
H747 C734 0.961 . S
H748 C734 0.961 . S
H749 C735 0.958 . S
H750 C735 0.961 1_655 S
H751 C735 0.970 . S
C752 C753 1.391 . S
C752 C754 1.394 . S
C752 H768 0.931 . S
C753 C752 1.391 . S
C753 C757 1.376 . S
C754 C752 1.394 . S
C754 C755 1.369 1_554 S
C754 C758 1.531 . S
C755 C754 1.369 1_556 S
C755 C756 1.410 . S
C755 C763 1.503 . S
C756 C755 1.410 . S
C756 C757 1.392 1_556 S
C756 C759 1.511 . S
C757 C753 1.376 . S
C757 C756 1.392 1_554 S
C757 H769 0.929 . S
C758 C754 1.531 . S
C758 H770 0.960 1_554 S
C758 H771 0.962 . S
C758 H772 0.960 . S
C759 C756 1.511 . S
C759 H773 0.961 1_565 S
C759 H774 0.961 1_565 S
C759 H775 0.961 . S
C760 C761 1.370 1_545 S
C760 C762 1.363 . S
C760 H776 0.931 . S
C761 C760 1.370 1_565 S
C761 C765 1.408 . S
C762 C760 1.363 . S
C762 C763 1.370 1_545 S
C762 C766 1.524 . S
C763 C755 1.503 . S
C763 C762 1.370 1_565 S
C763 C764 1.403 . S
C764 C763 1.403 . S
C764 C765 1.404 . S
C764 C767 1.539 . S
C765 C761 1.408 . S
C765 C764 1.404 . S
C765 H777 0.930 . S
C766 C762 1.524 . S
C766 H778 0.956 . S
C766 H779 0.961 . S
C766 H780 0.961 . S
C767 C764 1.539 . S
C767 H781 0.958 . S
C767 H782 0.961 . S
C767 H783 0.960 . S
H768 C752 0.931 . S
H769 C757 0.929 . S
H770 C758 0.960 1_556 S
H771 C758 0.962 . S
H772 C758 0.960 . S
H773 C759 0.961 1_545 S
H774 C759 0.961 1_545 S
H775 C759 0.961 . S
H776 C760 0.931 . S
H777 C765 0.930 . S
H778 C766 0.956 . S
H779 C766 0.961 . S
H780 C766 0.961 . S
H781 C767 0.958 . S
H782 C767 0.961 . S
H783 C767 0.960 . S
C784 C785 1.391 . S
C784 C786 1.394 . S
C784 H800 0.931 . S
C785 C784 1.391 . S
C785 C789 1.376 . S
C786 C784 1.394 . S
C786 C787 1.369 1_554 S
C786 C790 1.531 . S
C787 C786 1.369 1_556 S
C787 C788 1.410 1_556 S
C787 C795 1.503 . S
C788 C787 1.410 1_554 S
C788 C789 1.392 . S
C788 C791 1.511 1_554 S
C789 C785 1.376 . S
C789 C788 1.392 . S
C789 H801 0.929 . S
C790 C786 1.531 . S
C790 H802 0.960 1_554 S
C790 H803 0.962 1_554 S
C790 H804 0.960 . S
C791 C788 1.511 1_556 S
C791 H805 0.961 . S
C791 H806 0.961 . S
C791 H807 0.961 . S
C792 C793 1.370 . S
C792 C794 1.363 . S
C792 H808 0.931 . S
C793 C792 1.370 . S
C793 C797 1.408 . S
C794 C792 1.363 . S
C794 C795 1.370 . S
C794 C798 1.524 . S
C795 C787 1.503 . S
C795 C794 1.370 . S
C795 C796 1.403 . S
C796 C795 1.403 . S
C796 C797 1.404 . S
C796 C799 1.539 . S
C797 C793 1.408 . S
C797 C796 1.404 . S
C797 H809 0.930 . S
C798 C794 1.524 . S
C798 H810 0.956 . S
C798 H811 0.961 . S
C798 H812 0.961 . S
C799 C796 1.539 . S
C799 H813 0.958 . S
C799 H814 0.961 . S
C799 H815 0.960 . S
H800 C784 0.931 . S
H801 C789 0.929 . S
H802 C790 0.960 1_556 S
H803 C790 0.962 1_556 S
H804 C790 0.960 . S
H805 C791 0.961 . S
H806 C791 0.961 . S
H807 C791 0.961 . S
H808 C792 0.931 . S
H809 C797 0.930 . S
H810 C798 0.956 . S
H811 C798 0.961 . S
H812 C798 0.961 . S
H813 C799 0.958 . S
H814 C799 0.961 . S
H815 C799 0.960 . S
C816 C817 1.391 . S
C816 C818 1.394 . S
C816 H832 0.931 . S
C817 C816 1.391 . S
C817 C821 1.376 . S
C818 C816 1.394 . S
C818 C819 1.369 1_554 S
C818 C822 1.531 1_554 S
C819 C818 1.369 1_556 S
C819 C820 1.410 1_556 S
C819 C827 1.503 . S
C820 C819 1.410 1_554 S
C820 C821 1.392 . S
C820 C823 1.511 1_554 S
C821 C817 1.376 . S
C821 C820 1.392 . S
C821 H833 0.929 . S
C822 C818 1.531 1_556 S
C822 H834 0.960 . S
C822 H835 0.962 . S
C822 H836 0.960 . S
C823 C820 1.511 1_556 S
C823 H837 0.961 1_556 S
C823 H838 0.961 . S
C823 H839 0.961 . S
C824 C825 1.370 . S
C824 C826 1.363 . S
C824 H840 0.931 . S
C825 C824 1.370 . S
C825 C829 1.408 . S
C826 C824 1.363 . S
C826 C827 1.370 . S
C826 C830 1.524 . S
C827 C819 1.503 . S
C827 C826 1.370 . S
C827 C828 1.403 . S
C828 C827 1.403 . S
C828 C829 1.404 . S
C828 C831 1.539 . S
C829 C825 1.408 . S
C829 C828 1.404 . S
C829 H841 0.930 . S
C830 C826 1.524 . S
C830 H842 0.956 . S
C830 H843 0.971 . S
C830 H844 0.961 . S
C831 C828 1.539 . S
C831 H845 0.958 . S
C831 H846 0.961 . S
C831 H847 0.960 . S
H832 C816 0.931 . S
H833 C821 0.929 . S
H834 C822 0.960 . S
H835 C822 0.962 . S
H836 C822 0.960 . S
H837 C823 0.961 1_554 S
H838 C823 0.961 . S
H839 C823 0.961 . S
H840 C824 0.931 . S
H841 C829 0.930 . S
H842 C830 0.956 . S
H843 C830 0.971 . S
H844 C830 0.961 . S
H845 C831 0.958 . S
H846 C831 0.961 . S
H847 C831 0.960 . S
C848 C849 1.391 . S
C848 C850 1.410 . S
C848 H864 0.931 . S
C849 C848 1.391 . S
C849 C853 1.376 . S
C850 C848 1.410 . S
C850 C851 1.364 1_554 S
C850 C854 1.519 1_654 S
C851 C850 1.364 1_556 S
C851 C852 1.410 1_556 S
C851 C859 1.503 . S
C852 C851 1.410 1_554 S
C852 C853 1.392 . S
C852 C855 1.511 . S
C853 C849 1.376 . S
C853 C852 1.392 . S
C853 H865 0.929 . S
C854 C850 1.519 1_456 S
C854 H866 0.960 . S
C854 H867 0.962 . S
C854 H868 0.960 . S
C855 C852 1.511 . S
C855 H869 0.961 . S
C855 H870 0.961 1_554 S
C855 H871 0.961 . S
C856 C857 1.370 . S
C856 C858 1.363 . S
C856 H872 0.931 . S
C857 C856 1.370 . S
C857 C861 1.408 1_655 S
C858 C856 1.363 . S
C858 C859 1.370 . S
C858 C862 1.524 . S
C859 C851 1.503 . S
C859 C858 1.370 . S
C859 C860 1.403 1_655 S
C860 C859 1.403 1_455 S
C860 C861 1.404 . S
C860 C863 1.539 . S
C861 C857 1.408 1_455 S
C861 C860 1.404 . S
C861 H873 0.930 . S
C862 C858 1.524 . S
C862 H874 0.956 . S
C862 H875 0.961 . S
C862 H876 0.961 . S
C863 C860 1.539 . S
C863 H877 0.958 . S
C863 H878 0.961 . S
C863 H879 0.960 . S
H864 C848 0.931 . S
H865 C853 0.929 . S
H866 C854 0.960 . S
H867 C854 0.962 . S
H868 C854 0.960 . S
H869 C855 0.961 . S
H870 C855 0.961 1_556 S
H871 C855 0.961 . S
H872 C856 0.931 . S
H873 C861 0.930 . S
H874 C862 0.956 . S
H875 C862 0.961 . S
H876 C862 0.961 . S
H877 C863 0.958 . S
H878 C863 0.961 . S
H879 C863 0.960 . S
C880 C881 1.391 . S
C880 C882 1.394 . S
C880 H896 0.931 . S
C881 C880 1.391 . S
C881 C885 1.376 . S
C882 C880 1.394 . S
C882 C883 1.369 . S
C882 C886 1.531 . S
C883 C882 1.369 . S
C883 C884 1.410 . S
C883 C891 1.503 . S
C884 C883 1.410 . S
C884 C885 1.392 . S
C884 C887 1.511 1_455 S
C885 C881 1.376 . S
C885 C884 1.392 . S
C885 H897 0.929 . S
C886 C882 1.531 . S
C886 H898 0.960 . S
C886 H899 0.962 . S
C886 H900 0.960 . S
C887 C884 1.511 1_655 S
C887 H901 0.961 . S
C887 H902 0.961 . S
C887 H903 0.961 . S
C888 C889 1.369 1_455 S
C888 C890 1.369 . S
C888 H904 0.926 1_455 S
C889 C888 1.369 1_655 S
C889 C893 1.408 1_655 S
C890 C888 1.369 . S
C890 C891 1.370 . S
C890 C894 1.524 . S
C891 C883 1.503 . S
C891 C890 1.370 . S
C891 C892 1.403 . S
C892 C891 1.403 . S
C892 C893 1.404 . S
C892 C895 1.539 . S
C893 C889 1.408 1_455 S
C893 C892 1.404 . S
C893 H905 0.930 . S
C894 C890 1.524 . S
C894 H906 0.956 . S
C894 H907 0.961 . S
C894 H908 0.961 . S
C895 C892 1.539 . S
C895 H909 0.958 . S
C895 H910 0.961 . S
C895 H911 0.960 . S
H896 C880 0.931 . S
H897 C885 0.929 . S
H898 C886 0.960 . S
H899 C886 0.962 . S
H900 C886 0.960 . S
H901 C887 0.961 . S
H902 C887 0.961 . S
H903 C887 0.961 . S
H904 C888 0.926 1_655 S
H905 C893 0.930 . S
H906 C894 0.956 . S
H907 C894 0.961 . S
H908 C894 0.961 . S
H909 C895 0.958 . S
H910 C895 0.961 . S
H911 C895 0.960 . S
C912 C913 1.391 . S
C912 C914 1.394 . S
C912 H928 0.931 . S
C913 C912 1.391 . S
C913 C917 1.376 . S
C914 C912 1.394 . S
C914 C915 1.369 . S
C914 C918 1.531 . S
C915 C914 1.369 . S
C915 C916 1.410 . S
C915 C923 1.503 . S
C916 C915 1.410 . S
C916 C917 1.392 . S
C916 C919 1.511 . S
C917 C913 1.376 . S
C917 C916 1.392 . S
C917 H929 0.929 . S
C918 C914 1.531 . S
C918 H930 0.960 . S
C918 H931 0.962 . S
C918 H932 0.960 . S
C919 C916 1.511 . S
C919 H933 0.961 1_545 S
C919 H934 0.961 1_545 S
C919 H935 0.961 . S
C920 C921 1.370 1_565 S
C920 C922 1.363 1_565 S
C920 H936 0.931 . S
C921 C920 1.370 1_545 S
C921 C925 1.408 . S
C922 C920 1.363 1_545 S
C922 C923 1.370 . S
C922 C926 1.524 . S
C923 C915 1.503 . S
C923 C922 1.370 . S
C923 C924 1.403 . S
C924 C923 1.403 . S
C924 C925 1.404 . S
C924 C927 1.539 . S
C925 C921 1.408 . S
C925 C924 1.404 . S
C925 H937 0.930 . S
C926 C922 1.524 . S
C926 H938 0.956 . S
C926 H939 0.961 1_545 S
C926 H940 0.961 1_545 S
C927 C924 1.539 . S
C927 H941 0.958 . S
C927 H942 0.961 . S
C927 H943 0.960 . S
H928 C912 0.931 . S
H929 C917 0.929 . S
H930 C918 0.960 . S
H931 C918 0.962 . S
H932 C918 0.960 . S
H933 C919 0.961 1_565 S
H934 C919 0.961 1_565 S
H935 C919 0.961 . S
H936 C920 0.931 . S
H937 C925 0.930 . S
H938 C926 0.956 . S
H939 C926 0.961 1_565 S
H940 C926 0.961 1_565 S
H941 C927 0.958 . S
H942 C927 0.961 . S
H943 C927 0.960 . S
C944 C945 1.391 . S
C944 C946 1.394 . S
C944 H960 0.931 . S
C945 C944 1.391 . S
C945 C949 1.376 . S
C946 C944 1.394 . S
C946 C947 1.369 . S
C946 C950 1.531 . S
C947 C946 1.369 . S
C947 C948 1.410 . S
C947 C955 1.503 . S
C948 C947 1.410 . S
C948 C949 1.392 . S
C948 C951 1.511 . S
C949 C945 1.376 . S
C949 C948 1.392 . S
C949 H961 0.929 . S
C950 C946 1.531 . S
C950 H962 0.960 . S
C950 H963 0.962 . S
C950 H964 0.960 . S
C951 C948 1.511 . S
C951 H965 0.961 . S
C951 H966 0.961 . S
C951 H967 0.961 . S
C952 C953 1.370 . S
C952 C954 1.363 . S
C952 H968 0.931 . S
C953 C952 1.370 . S
C953 C957 1.408 . S
C954 C952 1.363 . S
C954 C955 1.370 . S
C954 C958 1.524 . S
C955 C947 1.503 . S
C955 C954 1.370 . S
C955 C956 1.403 . S
C956 C955 1.403 . S
C956 C957 1.404 . S
C956 C959 1.539 . S
C957 C953 1.408 . S
C957 C956 1.404 . S
C957 H969 0.930 . S
C958 C954 1.524 . S
C958 H970 0.956 . S
C958 H971 0.961 . S
C958 H972 0.961 . S
C959 C956 1.539 . S
C959 H973 0.958 . S
C959 H974 0.961 . S
C959 H975 0.960 . S
H960 C944 0.931 . S
H961 C949 0.929 . S
H962 C950 0.960 . S
H963 C950 0.962 . S
H964 C950 0.960 . S
H965 C951 0.961 . S
H966 C951 0.961 . S
H967 C951 0.961 . S
H968 C952 0.931 . S
H969 C957 0.930 . S
H970 C958 0.956 . S
H971 C958 0.961 . S
H972 C958 0.961 . S
H973 C959 0.958 . S
H974 C959 0.961 . S
H975 C959 0.960 . S
C976 C977 1.391 . S
C976 C978 1.394 . S
C976 H992 0.931 . S
C977 C976 1.391 . S
C977 C981 1.376 . S
C978 C976 1.394 . S
C978 C979 1.369 . S
C978 C982 1.531 . S
C979 C978 1.369 . S
C979 C980 1.410 . S
C979 C987 1.503 . S
C980 C979 1.410 . S
C980 C981 1.392 . S
C980 C983 1.511 . S
C981 C977 1.376 . S
C981 C980 1.392 . S
C981 H993 0.929 . S
C982 C978 1.531 . S
C982 H994 0.960 . S
C982 H995 0.962 . S
C982 H996 0.960 . S
C983 C980 1.511 . S
C983 H997 0.961 . S
C983 H998 0.961 . S
C983 H999 0.961 . S
C984 C985 1.370 . S
C984 C986 1.363 . S
C984 H1000 0.931 . S
C985 C984 1.370 . S
C985 C989 1.408 . S
C986 C984 1.363 . S
C986 C987 1.370 . S
C986 C990 1.524 . S
C987 C979 1.503 . S
C987 C986 1.370 . S
C987 C988 1.403 . S
C988 C987 1.403 . S
C988 C989 1.404 . S
C988 C991 1.539 . S
C989 C985 1.408 . S
C989 C988 1.404 . S
C989 H1001 0.930 . S
C990 C986 1.524 . S
C990 H1002 0.956 . S
C990 H1003 0.961 . S
C990 H1004 0.961 . S
C991 C988 1.539 . S
C991 H1005 0.958 . S
C991 H1006 0.961 . S
C991 H1007 0.960 . S
H992 C976 0.931 . S
H993 C981 0.929 . S
H994 C982 0.960 . S
H995 C982 0.962 . S
H996 C982 0.960 . S
H997 C983 0.961 . S
H998 C983 0.961 . S
H999 C983 0.961 . S
H1000 C984 0.931 . S
H1001 C989 0.930 . S
H1002 C990 0.956 . S
H1003 C990 0.961 . S
H1004 C990 0.961 . S
H1005 C991 0.958 . S
H1006 C991 0.961 . S
H1007 C991 0.960 . S
C1008 C1009 1.391 1_556 S
C1008 C1010 1.394 . S
C1008 H1024 0.931 . S
C1009 C1008 1.391 1_554 S
C1009 C1013 1.376 . S
C1010 C1008 1.394 . S
C1010 C1011 1.369 . S
C1010 C1014 1.531 . S
C1011 C1010 1.369 . S
C1011 C1012 1.410 1_556 S
C1011 C1019 1.503 . S
C1012 C1011 1.410 1_554 S
C1012 C1013 1.392 . S
C1012 C1015 1.511 . S
C1013 C1009 1.376 . S
C1013 C1012 1.392 . S
C1013 H1025 0.929 . S
C1014 C1010 1.531 . S
C1014 H1026 0.960 . S
C1014 H1027 0.962 . S
C1014 H1028 0.960 . S
C1015 C1012 1.511 . S
C1015 H1029 0.961 . S
C1015 H1030 0.961 . S
C1015 H1031 0.961 . S
C1016 C1017 1.370 . S
C1016 C1018 1.363 . S
C1016 H1032 0.931 . S
C1017 C1016 1.370 . S
C1017 C1021 1.408 1_455 S
C1018 C1016 1.363 . S
C1018 C1019 1.370 1_455 S
C1018 C1022 1.524 . S
C1019 C1011 1.503 . S
C1019 C1018 1.370 1_655 S
C1019 C1020 1.403 . S
C1020 C1019 1.403 . S
C1020 C1021 1.404 . S
C1020 C1023 1.539 . S
C1021 C1017 1.408 1_655 S
C1021 C1020 1.404 . S
C1021 H1033 0.930 . S
C1022 C1018 1.524 . S
C1022 H1034 0.956 . S
C1022 H1035 0.959 . S
C1022 H1036 0.961 . S
C1023 C1020 1.539 . S
C1023 H1037 0.958 . S
C1023 H1038 0.961 . S
C1023 H1039 0.960 . S
H1024 C1008 0.931 . S
H1025 C1013 0.929 . S
H1026 C1014 0.960 . S
H1027 C1014 0.962 . S
H1028 C1014 0.960 . S
H1029 C1015 0.961 . S
H1030 C1015 0.961 . S
H1031 C1015 0.961 . S
H1032 C1016 0.931 . S
H1033 C1021 0.930 . S
H1034 C1022 0.956 . S
H1035 C1022 0.959 . S
H1036 C1022 0.961 . S
H1037 C1023 0.958 . S
H1038 C1023 0.961 . S
H1039 C1023 0.960 . S
C1040 C1041 1.391 . S
C1040 C1042 1.394 . S
C1040 H1056 0.931 . S
C1041 C1040 1.391 . S
C1041 C1045 1.376 1_554 S
C1042 C1040 1.394 . S
C1042 C1043 1.369 1_554 S
C1042 C1046 1.531 1_565 S
C1043 C1042 1.369 1_556 S
C1043 C1044 1.410 . S
C1043 C1051 1.512 . S
C1044 C1043 1.410 . S
C1044 C1045 1.392 . S
C1044 C1047 1.511 . S
C1045 C1041 1.376 1_556 S
C1045 C1044 1.392 . S
C1045 H1057 0.929 . S
C1046 C1042 1.531 1_545 S
C1046 H1058 0.960 . S
C1046 H1059 0.962 1_545 S
C1046 H1060 0.960 . S
C1047 C1044 1.511 . S
C1047 H1061 0.961 . S
C1047 H1062 0.961 . S
C1047 H1063 0.961 . S
C1048 C1049 1.370 1_565 S
C1048 C1050 1.363 . S
C1048 H1064 0.931 . S
C1049 C1048 1.370 1_545 S
C1049 C1053 1.408 . S
C1050 C1048 1.363 . S
C1050 C1051 1.385 . S
C1050 C1054 1.524 . S
C1051 C1043 1.512 . S
C1051 C1050 1.385 . S
C1051 C1052 1.380 1_565 S
C1052 C1051 1.380 1_545 S
C1052 C1053 1.404 . S
C1052 C1055 1.539 . S
C1053 C1049 1.408 . S
C1053 C1052 1.404 . S
C1053 H1065 0.930 . S
C1054 C1050 1.524 . S
C1054 H1066 0.952 1_556 S
C1054 H1067 0.961 . S
C1054 H1068 0.961 . S
C1055 C1052 1.539 . S
C1055 H1069 0.958 . S
C1055 H1070 0.961 . S
C1055 H1071 0.960 . S
H1056 C1040 0.931 . S
H1057 C1045 0.929 . S
H1058 C1046 0.960 . S
H1059 C1046 0.962 1_565 S
H1060 C1046 0.960 . S
H1061 C1047 0.961 . S
H1062 C1047 0.961 . S
H1063 C1047 0.961 . S
H1064 C1048 0.931 . S
H1065 C1053 0.930 . S
H1066 C1054 0.952 1_554 S
H1067 C1054 0.961 . S
H1068 C1054 0.961 . S
H1069 C1055 0.958 . S
H1070 C1055 0.961 . S
H1071 C1055 0.960 . S
C1072 C1073 1.391 . S
C1072 C1074 1.394 1_554 S
C1072 H1088 0.931 . S
C1073 C1072 1.391 . S
C1073 C1077 1.376 . S
C1074 C1072 1.394 1_556 S
C1074 C1075 1.369 . S
C1074 C1078 1.531 . S
C1075 C1074 1.369 . S
C1075 C1076 1.410 . S
C1075 C1083 1.503 . S
C1076 C1075 1.410 . S
C1076 C1077 1.392 1_556 S
C1076 C1079 1.511 . S
C1077 C1073 1.376 . S
C1077 C1076 1.392 1_554 S
C1077 H1089 0.929 . S
C1078 C1074 1.531 . S
C1078 H1090 0.960 . S
C1078 H1091 0.962 1_556 S
C1078 H1092 0.960 . S
C1079 C1076 1.511 . S
C1079 H1093 0.961 . S
C1079 H1094 0.961 . S
C1079 H1095 0.961 . S
C1080 C1081 1.370 . S
C1080 C1082 1.363 . S
C1080 H1096 0.931 . S
C1081 C1080 1.370 . S
C1081 C1085 1.408 . S
C1082 C1080 1.363 . S
C1082 C1083 1.370 . S
C1082 C1086 1.524 1_556 S
C1083 C1075 1.503 . S
C1083 C1082 1.370 . S
C1083 C1084 1.403 . S
C1084 C1083 1.403 . S
C1084 C1085 1.404 . S
C1084 C1087 1.539 . S
C1085 C1081 1.408 . S
C1085 C1084 1.404 . S
C1085 H1097 0.930 . S
C1086 C1082 1.524 1_554 S
C1086 H1098 0.956 . S
C1086 H1099 0.961 . S
C1086 H1100 0.961 . S
C1087 C1084 1.539 . S
C1087 H1101 0.958 . S
C1087 H1102 0.961 . S
C1087 H1103 0.960 . S
H1088 C1072 0.931 . S
H1089 C1077 0.929 . S
H1090 C1078 0.960 . S
H1091 C1078 0.962 1_554 S
H1092 C1078 0.960 . S
H1093 C1079 0.961 . S
H1094 C1079 0.961 . S
H1095 C1079 0.961 . S
H1096 C1080 0.931 . S
H1097 C1085 0.930 . S
H1098 C1086 0.956 . S
H1099 C1086 0.961 . S
H1100 C1086 0.961 . S
H1101 C1087 0.958 . S
H1102 C1087 0.961 . S
H1103 C1087 0.960 . S
C1104 C1105 1.391 1_556 S
C1104 C1106 1.394 . S
C1104 H1120 0.931 . S
C1105 C1104 1.391 1_554 S
C1105 C1109 1.376 . S
C1106 C1104 1.394 . S
C1106 C1107 1.369 . S
C1106 C1110 1.531 . S
C1107 C1106 1.369 . S
C1107 C1108 1.410 1_556 S
C1107 C1115 1.503 . S
C1108 C1107 1.410 1_554 S
C1108 C1109 1.392 . S
C1108 C1111 1.511 . S
C1109 C1105 1.376 . S
C1109 C1108 1.392 . S
C1109 H1121 0.929 . S
C1110 C1106 1.531 . S
C1110 H1122 0.960 . S
C1110 H1123 0.962 . S
C1110 H1124 0.960 . S
C1111 C1108 1.511 . S
C1111 H1125 0.961 . S
C1111 H1126 0.961 . S
C1111 H1127 0.961 1_554 S
C1112 C1113 1.370 . S
C1112 C1114 1.363 . S
C1112 H1128 0.931 . S
C1113 C1112 1.370 . S
C1113 C1117 1.408 . S
C1114 C1112 1.363 . S
C1114 C1115 1.370 . S
C1114 C1118 1.524 1_556 S
C1115 C1107 1.503 . S
C1115 C1114 1.370 . S
C1115 C1116 1.403 . S
C1116 C1115 1.403 . S
C1116 C1117 1.404 . S
C1116 C1119 1.539 . S
C1117 C1113 1.408 . S
C1117 C1116 1.404 . S
C1117 H1129 0.930 . S
C1118 C1114 1.524 1_554 S
C1118 H1130 0.956 . S
C1118 H1131 0.961 . S
C1118 H1132 0.961 . S
C1119 C1116 1.539 . S
C1119 H1133 0.958 . S
C1119 H1134 0.961 . S
C1119 H1135 0.960 . S
H1120 C1104 0.931 . S
H1121 C1109 0.929 . S
H1122 C1110 0.960 . S
H1123 C1110 0.962 . S
H1124 C1110 0.960 . S
H1125 C1111 0.961 . S
H1126 C1111 0.961 . S
H1127 C1111 0.961 1_556 S
H1128 C1112 0.931 . S
H1129 C1117 0.930 . S
H1130 C1118 0.956 . S
H1131 C1118 0.961 . S
H1132 C1118 0.961 . S
H1133 C1119 0.958 . S
H1134 C1119 0.961 . S
H1135 C1119 0.960 . S
C1136 C1137 1.391 . S
C1136 C1138 1.394 . S
C1136 H1152 0.931 . S
C1137 C1136 1.391 . S
C1137 C1141 1.376 . S
C1138 C1136 1.394 . S
C1138 C1139 1.369 . S
C1138 C1142 1.531 1_455 S
C1139 C1138 1.369 . S
C1139 C1140 1.410 . S
C1139 C1147 1.503 . S
C1140 C1139 1.410 . S
C1140 C1141 1.392 . S
C1140 C1143 1.511 . S
C1141 C1137 1.376 . S
C1141 C1140 1.392 . S
C1141 H1153 0.929 . S
C1142 C1138 1.531 1_655 S
C1142 H1154 0.960 . S
C1142 H1155 0.962 . S
C1142 H1156 0.960 . S
C1143 C1140 1.511 . S
C1143 H1157 0.961 . S
C1143 H1158 0.961 . S
C1143 H1159 0.961 . S
C1144 C1145 1.370 . S
C1144 C1146 1.363 . S
C1144 H1160 0.931 . S
C1145 C1144 1.370 . S
C1145 C1149 1.408 . S
C1146 C1144 1.363 . S
C1146 C1147 1.370 . S
C1146 C1150 1.524 . S
C1147 C1139 1.503 . S
C1147 C1146 1.370 . S
C1147 C1148 1.403 . S
C1148 C1147 1.403 . S
C1148 C1149 1.404 . S
C1148 C1151 1.539 . S
C1149 C1145 1.408 . S
C1149 C1148 1.404 . S
C1149 H1161 0.930 . S
C1150 C1146 1.524 . S
C1150 H1162 0.956 . S
C1150 H1163 0.961 . S
C1150 H1164 0.961 . S
C1151 C1148 1.539 . S
C1151 H1165 0.958 . S
C1151 H1166 0.961 . S
C1151 H1167 0.960 . S
H1152 C1136 0.931 . S
H1153 C1141 0.929 . S
H1154 C1142 0.960 . S
H1155 C1142 0.962 . S
H1156 C1142 0.960 . S
H1157 C1143 0.961 . S
H1158 C1143 0.961 . S
H1159 C1143 0.961 . S
H1160 C1144 0.931 . S
H1161 C1149 0.930 . S
H1162 C1150 0.956 . S
H1163 C1150 0.961 . S
H1164 C1150 0.961 . S
H1165 C1151 0.958 . S
H1166 C1151 0.961 . S
H1167 C1151 0.960 . S
C1168 C1169 1.391 . S
C1168 C1170 1.394 . S
C1168 H1184 0.931 . S
C1169 C1168 1.391 . S
C1169 C1173 1.376 . S
C1170 C1168 1.394 . S
C1170 C1171 1.369 . S
C1170 C1174 1.531 . S
C1171 C1170 1.369 . S
C1171 C1172 1.410 . S
C1171 C1179 1.503 . S
C1172 C1171 1.410 . S
C1172 C1173 1.392 . S
C1172 C1175 1.511 . S
C1173 C1169 1.376 . S
C1173 C1172 1.392 . S
C1173 H1185 0.929 . S
C1174 C1170 1.531 . S
C1174 H1186 0.960 . S
C1174 H1187 0.962 . S
C1174 H1188 0.960 . S
C1175 C1172 1.511 . S
C1175 H1189 0.961 . S
C1175 H1190 0.961 . S
C1175 H1191 0.961 . S
C1176 C1177 1.370 . S
C1176 C1178 1.363 . S
C1176 H1192 0.931 . S
C1177 C1176 1.370 . S
C1177 C1181 1.408 . S
C1178 C1176 1.363 . S
C1178 C1179 1.370 . S
C1178 C1182 1.524 . S
C1179 C1171 1.503 . S
C1179 C1178 1.370 . S
C1179 C1180 1.403 . S
C1180 C1179 1.403 . S
C1180 C1181 1.404 . S
C1180 C1183 1.539 1_545 S
C1181 C1177 1.408 . S
C1181 C1180 1.404 . S
C1181 H1193 0.930 1_545 S
C1182 C1178 1.524 . S
C1182 H1194 0.956 . S
C1182 H1195 0.961 . S
C1182 H1196 0.961 . S
C1183 C1180 1.539 1_565 S
C1183 H1197 0.958 . S
C1183 H1198 0.961 . S
C1183 H1199 0.960 . S
H1184 C1168 0.931 . S
H1185 C1173 0.929 . S
H1186 C1174 0.960 . S
H1187 C1174 0.962 . S
H1188 C1174 0.960 . S
H1189 C1175 0.961 . S
H1190 C1175 0.961 . S
H1191 C1175 0.961 . S
H1192 C1176 0.931 . S
H1193 C1181 0.930 1_565 S
H1194 C1182 0.956 . S
H1195 C1182 0.961 . S
H1196 C1182 0.961 . S
H1197 C1183 0.958 . S
H1198 C1183 0.961 . S
H1199 C1183 0.960 . S
C1200 C1201 1.391 . S
C1200 C1202 1.394 . S
C1200 H1216 0.931 . S
C1201 C1200 1.391 . S
C1201 C1205 1.376 . S
C1202 C1200 1.394 . S
C1202 C1203 1.369 . S
C1202 C1206 1.531 . S
C1203 C1202 1.369 . S
C1203 C1204 1.410 . S
C1203 C1211 1.503 . S
C1204 C1203 1.410 . S
C1204 C1205 1.392 . S
C1204 C1207 1.511 . S
C1205 C1201 1.376 . S
C1205 C1204 1.392 . S
C1205 H1217 0.929 . S
C1206 C1202 1.531 . S
C1206 H1218 0.960 . S
C1206 H1219 0.962 . S
C1206 H1220 0.960 . S
C1207 C1204 1.511 . S
C1207 H1221 0.961 . S
C1207 H1222 0.961 . S
C1207 H1223 0.961 . S
C1208 C1209 1.370 . S
C1208 C1210 1.363 . S
C1208 H1224 0.931 . S
C1209 C1208 1.370 . S
C1209 C1213 1.408 . S
C1210 C1208 1.363 . S
C1210 C1211 1.370 . S
C1210 C1214 1.524 . S
C1211 C1203 1.503 . S
C1211 C1210 1.370 . S
C1211 C1212 1.403 . S
C1212 C1211 1.403 . S
C1212 C1213 1.404 . S
C1212 C1215 1.539 . S
C1213 C1209 1.408 . S
C1213 C1212 1.404 . S
C1213 H1225 0.930 . S
C1214 C1210 1.524 . S
C1214 H1226 0.956 . S
C1214 H1227 0.961 . S
C1214 H1228 0.961 . S
C1215 C1212 1.539 . S
C1215 H1229 0.958 . S
C1215 H1230 0.961 . S
C1215 H1231 0.960 . S
H1216 C1200 0.931 . S
H1217 C1205 0.929 . S
H1218 C1206 0.960 . S
H1219 C1206 0.962 . S
H1220 C1206 0.960 . S
H1221 C1207 0.961 . S
H1222 C1207 0.961 . S
H1223 C1207 0.961 . S
H1224 C1208 0.931 . S
H1225 C1213 0.930 . S
H1226 C1214 0.956 . S
H1227 C1214 0.961 . S
H1228 C1214 0.961 . S
H1229 C1215 0.958 . S
H1230 C1215 0.961 . S
H1231 C1215 0.960 . S
C1232 C1233 1.391 . S
C1232 C1234 1.394 . S
C1232 H1248 0.931 . S
C1233 C1232 1.391 . S
C1233 C1237 1.376 . S
C1234 C1232 1.394 . S
C1234 C1235 1.369 . S
C1234 C1238 1.531 . S
C1235 C1234 1.369 . S
C1235 C1236 1.410 . S
C1235 C1243 1.503 . S
C1236 C1235 1.410 . S
C1236 C1237 1.392 . S
C1236 C1239 1.511 . S
C1237 C1233 1.376 . S
C1237 C1236 1.392 . S
C1237 H1249 0.929 . S
C1238 C1234 1.531 . S
C1238 H1250 0.960 . S
C1238 H1251 0.962 . S
C1238 H1252 0.960 . S
C1239 C1236 1.511 . S
C1239 H1253 0.961 . S
C1239 H1254 0.961 . S
C1239 H1255 0.961 . S
C1240 C1241 1.370 . S
C1240 C1242 1.363 . S
C1240 H1256 0.931 . S
C1241 C1240 1.370 . S
C1241 C1245 1.408 . S
C1242 C1240 1.363 . S
C1242 C1243 1.370 . S
C1242 C1246 1.524 . S
C1243 C1235 1.503 . S
C1243 C1242 1.370 . S
C1243 C1244 1.403 . S
C1244 C1243 1.403 . S
C1244 C1245 1.404 . S
C1244 C1247 1.539 . S
C1245 C1241 1.408 . S
C1245 C1244 1.404 . S
C1245 H1257 0.930 . S
C1246 C1242 1.524 . S
C1246 H1258 0.956 . S
C1246 H1259 0.961 . S
C1246 H1260 0.961 . S
C1247 C1244 1.539 . S
C1247 H1261 0.958 . S
C1247 H1262 0.961 . S
C1247 H1263 0.960 . S
H1248 C1232 0.931 . S
H1249 C1237 0.929 . S
H1250 C1238 0.960 . S
H1251 C1238 0.962 . S
H1252 C1238 0.960 . S
H1253 C1239 0.961 . S
H1254 C1239 0.961 . S
H1255 C1239 0.961 . S
H1256 C1240 0.931 . S
H1257 C1245 0.930 . S
H1258 C1246 0.956 . S
H1259 C1246 0.961 . S
H1260 C1246 0.961 . S
H1261 C1247 0.958 . S
H1262 C1247 0.961 . S
H1263 C1247 0.960 . S
C1264 C1265 1.391 . S
C1264 C1266 1.394 . S
C1264 H1280 0.931 . S
C1265 C1264 1.391 . S
C1265 C1269 1.376 . S
C1266 C1264 1.394 . S
C1266 C1267 1.369 . S
C1266 C1270 1.528 1_655 S
C1267 C1266 1.369 . S
C1267 C1268 1.410 . S
C1267 C1275 1.503 . S
C1268 C1267 1.410 . S
C1268 C1269 1.392 . S
C1268 C1271 1.511 . S
C1269 C1265 1.376 . S
C1269 C1268 1.392 . S
C1269 H1281 0.929 . S
C1270 C1266 1.528 1_455 S
C1270 H1282 0.964 . S
C1270 H1283 0.956 1_455 S
C1270 H1284 0.965 . S
C1271 C1268 1.511 . S
C1271 H1285 0.961 . S
C1271 H1286 0.961 . S
C1271 H1287 0.961 . S
C1272 C1273 1.370 . S
C1272 C1274 1.363 . S
C1272 H1288 0.931 . S
C1273 C1272 1.370 . S
C1273 C1277 1.408 1_655 S
C1274 C1272 1.363 . S
C1274 C1275 1.370 . S
C1274 C1278 1.524 . S
C1275 C1267 1.503 . S
C1275 C1274 1.370 . S
C1275 C1276 1.403 1_655 S
C1276 C1275 1.403 1_455 S
C1276 C1277 1.404 . S
C1276 C1279 1.539 . S
C1277 C1273 1.408 1_455 S
C1277 C1276 1.404 . S
C1277 H1289 0.930 . S
C1278 C1274 1.524 . S
C1278 H1290 0.956 . S
C1278 H1291 0.961 . S
C1278 H1292 0.961 . S
C1279 C1276 1.539 . S
C1279 H1293 0.958 . S
C1279 H1294 0.961 . S
C1279 H1295 0.960 . S
H1280 C1264 0.931 . S
H1281 C1269 0.929 . S
H1282 C1270 0.964 . S
H1283 C1270 0.956 1_655 S
H1284 C1270 0.965 . S
H1285 C1271 0.961 . S
H1286 C1271 0.961 . S
H1287 C1271 0.961 . S
H1288 C1272 0.931 . S
H1289 C1277 0.930 . S
H1290 C1278 0.956 . S
H1291 C1278 0.961 . S
H1292 C1278 0.961 . S
H1293 C1279 0.958 . S
H1294 C1279 0.961 . S
H1295 C1279 0.960 . S
C1296 C1297 1.391 . S
C1296 C1298 1.394 . S
C1296 H1312 0.931 . S
C1297 C1296 1.391 . S
C1297 C1301 1.376 . S
C1298 C1296 1.394 . S
C1298 C1299 1.369 . S
C1298 C1302 1.531 . S
C1299 C1298 1.369 . S
C1299 C1300 1.410 . S
C1299 C1307 1.503 . S
C1300 C1299 1.410 . S
C1300 C1301 1.392 . S
C1300 C1303 1.511 1_565 S
C1301 C1297 1.376 . S
C1301 C1300 1.392 . S
C1301 H1313 0.929 . S
C1302 C1298 1.531 . S
C1302 H1314 0.960 . S
C1302 H1315 0.962 . S
C1302 H1316 0.960 . S
C1303 C1300 1.511 1_545 S
C1303 H1317 0.961 . S
C1303 H1318 0.961 . S
C1303 H1319 0.961 . S
C1304 C1305 1.370 1_545 S
C1304 C1306 1.363 1_545 S
C1304 H1320 0.931 . S
C1305 C1304 1.370 1_565 S
C1305 C1309 1.408 . S
C1306 C1304 1.363 1_565 S
C1306 C1307 1.370 . S
C1306 C1310 1.524 1_565 S
C1307 C1299 1.503 . S
C1307 C1306 1.370 . S
C1307 C1308 1.403 . S
C1308 C1307 1.403 . S
C1308 C1309 1.404 . S
C1308 C1311 1.539 . S
C1309 C1305 1.408 . S
C1309 C1308 1.404 . S
C1309 H1321 0.930 . S
C1310 C1306 1.524 1_545 S
C1310 H1322 0.953 . S
C1310 H1323 0.961 . S
C1310 H1324 0.961 . S
C1311 C1308 1.539 . S
C1311 H1325 0.958 . S
C1311 H1326 0.961 . S
C1311 H1327 0.960 . S
H1312 C1296 0.931 . S
H1313 C1301 0.929 . S
H1314 C1302 0.960 . S
H1315 C1302 0.962 . S
H1316 C1302 0.960 . S
H1317 C1303 0.961 . S
H1318 C1303 0.961 . S
H1319 C1303 0.961 . S
H1320 C1304 0.931 . S
H1321 C1309 0.930 . S
H1322 C1310 0.953 . S
H1323 C1310 0.961 . S
H1324 C1310 0.961 . S
H1325 C1311 0.958 . S
H1326 C1311 0.961 . S
H1327 C1311 0.960 . S
C1328 C1329 1.391 . S
C1328 C1330 1.394 . S
C1328 H1344 0.931 . S
C1329 C1328 1.391 . S
C1329 C1333 1.376 . S
C1330 C1328 1.394 . S
C1330 C1331 1.369 . S
C1330 C1334 1.531 . S
C1331 C1330 1.369 . S
C1331 C1332 1.410 . S
C1331 C1339 1.503 . S
C1332 C1331 1.410 . S
C1332 C1333 1.392 . S
C1332 C1335 1.511 . S
C1333 C1329 1.376 . S
C1333 C1332 1.392 . S
C1333 H1345 0.929 . S
C1334 C1330 1.531 . S
C1334 H1346 0.960 . S
C1334 H1347 0.962 . S
C1334 H1348 0.960 . S
C1335 C1332 1.511 . S
C1335 H1349 0.961 . S
C1335 H1350 0.961 . S
C1335 H1351 0.961 . S
C1336 C1337 1.370 . S
C1336 C1338 1.363 . S
C1336 H1352 0.931 . S
C1337 C1336 1.370 . S
C1337 C1341 1.408 . S
C1338 C1336 1.363 . S
C1338 C1339 1.370 . S
C1338 C1342 1.524 . S
C1339 C1331 1.503 . S
C1339 C1338 1.370 . S
C1339 C1340 1.403 . S
C1340 C1339 1.403 . S
C1340 C1341 1.404 . S
C1340 C1343 1.539 . S
C1341 C1337 1.408 . S
C1341 C1340 1.404 . S
C1341 H1353 0.930 . S
C1342 C1338 1.524 . S
C1342 H1354 0.956 . S
C1342 H1355 0.961 . S
C1342 H1356 0.961 . S
C1343 C1340 1.539 . S
C1343 H1357 0.958 . S
C1343 H1358 0.961 . S
C1343 H1359 0.960 . S
H1344 C1328 0.931 . S
H1345 C1333 0.929 . S
H1346 C1334 0.960 . S
H1347 C1334 0.962 . S
H1348 C1334 0.960 . S
H1349 C1335 0.961 . S
H1350 C1335 0.961 . S
H1351 C1335 0.961 . S
H1352 C1336 0.931 . S
H1353 C1341 0.930 . S
H1354 C1342 0.956 . S
H1355 C1342 0.961 . S
H1356 C1342 0.961 . S
H1357 C1343 0.958 . S
H1358 C1343 0.961 . S
H1359 C1343 0.960 . S
C1360 C1361 1.391 . S
C1360 C1362 1.394 . S
C1360 H1376 0.931 . S
C1361 C1360 1.391 . S
C1361 C1365 1.376 . S
C1362 C1360 1.394 . S
C1362 C1363 1.369 . S
C1362 C1366 1.531 . S
C1363 C1362 1.369 . S
C1363 C1364 1.410 . S
C1363 C1371 1.503 . S
C1364 C1363 1.410 . S
C1364 C1365 1.392 . S
C1364 C1367 1.511 . S
C1365 C1361 1.376 . S
C1365 C1364 1.392 . S
C1365 H1377 0.929 . S
C1366 C1362 1.531 . S
C1366 H1378 0.960 . S
C1366 H1379 0.962 . S
C1366 H1380 0.960 . S
C1367 C1364 1.511 . S
C1367 H1381 0.961 . S
C1367 H1382 0.961 . S
C1367 H1383 0.961 . S
C1368 C1369 1.370 . S
C1368 C1370 1.363 . S
C1368 H1384 0.931 . S
C1369 C1368 1.370 . S
C1369 C1373 1.408 . S
C1370 C1368 1.363 . S
C1370 C1371 1.370 . S
C1370 C1374 1.524 . S
C1371 C1363 1.503 . S
C1371 C1370 1.370 . S
C1371 C1372 1.403 . S
C1372 C1371 1.403 . S
C1372 C1373 1.404 . S
C1372 C1375 1.539 . S
C1373 C1369 1.408 . S
C1373 C1372 1.404 . S
C1373 H1385 0.930 . S
C1374 C1370 1.524 . S
C1374 H1386 0.956 . S
C1374 H1387 0.961 . S
C1374 H1388 0.961 . S
C1375 C1372 1.539 . S
C1375 H1389 0.958 . S
C1375 H1390 0.961 . S
C1375 H1391 0.960 . S
H1376 C1360 0.931 . S
H1377 C1365 0.929 . S
H1378 C1366 0.960 . S
H1379 C1366 0.962 . S
H1380 C1366 0.960 . S
H1381 C1367 0.961 . S
H1382 C1367 0.961 . S
H1383 C1367 0.961 . S
H1384 C1368 0.931 . S
H1385 C1373 0.930 . S
H1386 C1374 0.956 . S
H1387 C1374 0.961 . S
H1388 C1374 0.961 . S
H1389 C1375 0.958 . S
H1390 C1375 0.961 . S
H1391 C1375 0.960 . S
C625 C241 2.205 . S
C633 C351 2.421 . S
C665 C428 2.449 . S
C657 C277 2.253 . S
C697 C519 2.415 . S
C689 C169 2.221 . S
C729 C603 2.400 . S
C721 C205 2.245 . S
C761 C362 2.426 1_565 S
C753 C97 2.190 . S
C785 C133 2.342 . S
C793 C439 2.436 . S
C817 C25 2.162 . S
C825 C530 2.423 . S
C849 C61 2.197 . S
C857 C614 2.400 1_655 S
C889 C346 0.472 . S
C881 C211 0.520 . S
C921 C441 0.573 . S
C913 C247 0.517 . S
C953 C514 0.455 . S
C945 C253 0.451 . S
C977 C175 0.393 . S
C985 C598 0.465 . S
C1009 C67 0.595 . S
C1017 C357 0.525 . S
C1049 C430 0.559 . S
C1041 C103 0.448 . S
C1081 C525 0.478 . S
C1073 C109 0.492 . S
C1105 C31 0.600 . S
C1113 C609 0.499 . S
C1137 C181 2.656 . S
C1145 C355 2.888 . S
C1169 C217 2.608 . S
C1177 C446 2.926 . S
C1209 C523 2.914 . S
C1201 C283 2.585 . S
C1241 C607 2.907 . S
C1233 C145 2.658 . S
C1265 C37 2.594 . S
C1273 C344 2.897 . S
C1305 C435 2.933 . S
C1297 C73 2.621 . S
C1337 C512 2.917 . S
C1329 C139 2.579 . S
C1361 C1 2.654 . S
C1369 C596 2.905 . S
