# Generated by pormake.
# Topology anh, (6,3)-cn, num edge types: 1
# Building blocks:
#     Node 0, Type 0, BuildingBlock: HISSIN_clean_sbu_0, # of connection points: 6
#     Node 1, Type 0, BuildingBlock: HISSIN_clean_sbu_0, # of connection points: 6
#     Node 2, Type 0, BuildingBlock: HISSIN_clean_sbu_0, # of connection points: 6
#     Node 3, Type 1, BuildingBlock: VETTIZ_charged_linker_0, # of connection points: 3
#     Node 4, Type 1, BuildingBlock: VETTIZ_charged_linker_0, # of connection points: 3
#     Node 5, Type 1, BuildingBlock: VETTIZ_charged_linker_0, # of connection points: 3
#     Node 6, Type 1, BuildingBlock: VETTIZ_charged_linker_0, # of connection points: 3
#     Node 7, Type 1, BuildingBlock: VETTIZ_charged_linker_0, # of connection points: 3
#     Node 8, Type 1, BuildingBlock: VETTIZ_charged_linker_0, # of connection points: 3
#     Edge 9, Type (0, 1), BuildingBlock: XUDNAN_clean_linker_2, # of connection points: 2
#     Edge 10, Type (0, 1), BuildingBlock: XUDNAN_clean_linker_2, # of connection points: 2
#     Edge 11, Type (0, 1), BuildingBlock: XUDNAN_clean_linker_2, # of connection points: 2
#     Edge 12, Type (0, 1), BuildingBlock: XUDNAN_clean_linker_2, # of connection points: 2
#     Edge 13, Type (0, 1), BuildingBlock: XUDNAN_clean_linker_2, # of connection points: 2
#     Edge 14, Type (0, 1), BuildingBlock: XUDNAN_clean_linker_2, # of connection points: 2
#     Edge 15, Type (0, 1), BuildingBlock: XUDNAN_clean_linker_2, # of connection points: 2
#     Edge 16, Type (0, 1), BuildingBlock: XUDNAN_clean_linker_2, # of connection points: 2
#     Edge 17, Type (0, 1), BuildingBlock: XUDNAN_clean_linker_2, # of connection points: 2
#     Edge 18, Type (0, 1), BuildingBlock: XUDNAN_clean_linker_2, # of connection points: 2
#     Edge 19, Type (0, 1), BuildingBlock: XUDNAN_clean_linker_2, # of connection points: 2
#     Edge 20, Type (0, 1), BuildingBlock: XUDNAN_clean_linker_2, # of connection points: 2
#     Edge 21, Type (0, 1), BuildingBlock: XUDNAN_clean_linker_2, # of connection points: 2
#     Edge 22, Type (0, 1), BuildingBlock: XUDNAN_clean_linker_2, # of connection points: 2
#     Edge 23, Type (0, 1), BuildingBlock: XUDNAN_clean_linker_2, # of connection points: 2
#     Edge 24, Type (0, 1), BuildingBlock: XUDNAN_clean_linker_2, # of connection points: 2
#     Edge 25, Type (0, 1), BuildingBlock: XUDNAN_clean_linker_2, # of connection points: 2
#     Edge 26, Type (0, 1), BuildingBlock: XUDNAN_clean_linker_2, # of connection points: 2
# Relax obj value: 0.241
# Max RMSD: 0.190
# Mean RMSD: 0.158
data_MOF--net-anh--node1-HISSIN_clean_sbu_0--node2-VETTIZ_charged_linker_0--edge1-XUDNAN_clean_linker_2
_symmetry_space_group_name_H-M    P1
_symmetry_Int_Tables_number       1
_symmetry_cell_setting            triclinic
loop_
_symmetry_equiv_pos_as_xyz
'x, y, z'
_cell_length_a     36.288161
_cell_length_b     36.278564
_cell_length_c     66.791836
_cell_angle_alpha  92.500963
_cell_angle_beta   90.323004
_cell_angle_gamma 119.85967
loop_
_atom_site_label
_atom_site_type_symbol
_atom_site_fract_x
_atom_site_fract_y
_atom_site_fract_z
_atom_type_partial_charge
Eu0 Eu 1.08017 0.48215 0.16796 0.0
Eu1 Eu 0.12423 0.58222 0.16569 0.0
C2 C 0.0993 0.54059 0.20787 0.0
C3 C 0.9875 0.37753 0.1701 0.0
C4 C 0.96466 0.38858 0.15686 0.0
C5 C 0.92831 0.35095 0.19248 0.0
C6 C 0.92522 0.38334 0.16204 0.0
C7 C 0.96768 0.35594 0.18724 0.0
C8 C 0.90816 0.36709 0.18053 0.0
C9 C 1.03427 0.40021 0.16971 0.0
O10 O 0.1805 0.57033 0.17138 0.0
O11 O 0.14947 0.49949 0.1618 0.0
C12 C 0.18415 0.53647 0.1663 0.0
O13 O 1.07032 0.49561 0.13623 0.0
O14 O 0.16535 0.64604 0.17888 0.0
O15 O 0.13435 0.63742 0.14974 0.0
O16 O 0.13238 0.55772 0.13581 0.0
C17 C 0.10055 0.52542 0.12619 0.0
O18 O 1.02466 0.49585 0.17231 0.0
O19 O 1.05367 0.56083 0.15882 0.0
O20 O 0.09707 0.56773 0.19636 0.0
O21 O 1.05137 0.4184 0.15318 0.0
O22 O 1.05269 0.42563 0.18546 0.0
O23 O 0.10349 0.50933 0.19978 0.0
C24 C 0.20189 0.69728 0.15544 0.0
C25 C 0.23219 0.68736 0.14802 0.0
C26 C 0.25013 0.77181 0.15095 0.0
C27 C 0.27191 0.71987 0.14252 0.0
C28 C 0.21061 0.73939 0.15642 0.0
C29 C 0.28159 0.76255 0.14436 0.0
C30 C 0.16195 0.66441 0.16314 0.0
C31 C 1.01996 0.52689 0.16522 0.0
H32 H 0.97908 0.4055 0.14355 0.0
H33 H 0.91525 0.33755 0.20667 0.0
H34 H 0.9103 0.39599 0.15255 0.0
H35 H 0.98466 0.34728 0.19771 0.0
H36 H 0.22559 0.65472 0.14709 0.0
H37 H 0.25675 0.80435 0.153 0.0
H38 H 0.29545 0.71181 0.13746 0.0
H39 H 0.18742 0.74739 0.16212 0.0
Eu40 Eu 0.6145 1.04299 0.49217 0.0
Eu41 Eu 0.56624 0.09247 0.50599 0.0
C42 C 0.59846 1.05264 0.53998 0.0
C43 C 0.6273 0.95007 0.47425 0.0
C44 C 0.59406 0.92214 0.48603 0.0
C45 C 0.62619 0.88996 0.4564 0.0
C46 C 0.57757 0.8783 0.48331 0.0
C47 C 0.64282 0.93382 0.45922 0.0
C48 C 0.59386 0.86174 0.46864 0.0
C49 C 0.64381 0.99595 0.47658 0.0
O50 O 0.63637 0.14571 0.50291 0.0
O51 O 0.67295 0.11068 0.49566 0.0
C52 C 0.67276 0.14677 0.49925 0.0
O53 O 0.61831 0.08525 0.46772 0.0
O54 O 0.55587 0.13461 0.5266 0.0
O55 O 0.52615 0.11859 0.49699 0.0
O56 O 0.55316 0.07554 0.47294 0.0
C57 C 0.58472 0.08559 0.46107 0.0
O58 O 0.54236 0.99089 0.49077 0.0
O59 O 0.51192 1.02416 0.50827 0.0
O60 O 0.57629 0.07093 0.53552 0.0
O61 O 0.62248 1.00932 0.46637 0.0
O62 O 0.65359 1.01308 0.49483 0.0
O63 O 0.61681 1.04084 0.52611 0.0
C64 C 0.56617 0.19092 0.50764 0.0
C65 C 0.59479 0.20088 0.49193 0.0
C66 C 0.60708 0.26388 0.52093 0.0
C67 C 0.63064 0.24116 0.49146 0.0
C68 C 0.57154 0.2232 0.52162 0.0
C69 C 0.63834 0.27254 0.50654 0.0
C70 C 0.53968 0.14607 0.51232 0.0
C71 C 0.50871 0.98925 0.49946 0.0
H72 H 0.58116 0.93426 0.49746 0.0
H73 H 0.63905 0.87815 0.44482 0.0
H74 H 0.55315 0.85758 0.4932 0.0
H75 H 0.66784 0.95505 0.44971 0.0
H76 H 0.59171 0.17643 0.48102 0.0
H77 H 0.61115 0.28784 0.53235 0.0
H78 H 0.65384 0.24643 0.48017 0.0
H79 H 0.55008 0.21617 0.53392 0.0
Eu80 Eu 0.54279 0.51323 0.83505 0.0
Eu81 Eu 0.6427 0.56617 0.83171 0.0
C82 C 0.60169 0.54812 0.87488 0.0
C83 C 0.44141 0.50695 0.83201 0.0
C84 C 0.46209 0.54205 0.81991 0.0
C85 C 0.40606 0.54099 0.84853 0.0
C86 C 0.45718 0.57756 0.82313 0.0
C87 C 0.41142 0.50561 0.84548 0.0
C88 C 0.43119 0.57841 0.83839 0.0
C89 C 0.46124 0.48077 0.83518 0.0
O90 O 0.62985 0.49813 0.83676 0.0
O91 O 0.55857 0.45928 0.82863 0.0
C92 C 0.59527 0.46081 0.83237 0.0
O93 O 0.55934 0.54014 0.80451 0.0
O94 O 0.70731 0.58891 0.84287 0.0
O95 O 0.69662 0.60817 0.81406 0.0
O96 O 0.61533 0.53014 0.80233 0.0
C97 C 0.58595 0.5347 0.79347 0.0
O98 O 0.55814 0.58293 0.84056 0.0
O99 O 0.62313 0.61698 0.82651 0.0
O100 O 0.63048 0.57715 0.86387 0.0
O101 O 0.48047 0.47505 0.81988 0.0
O102 O 0.48468 0.49199 0.85163 0.0
O103 O 0.56812 0.51503 0.86637 0.0
C104 C 0.75455 0.59645 0.81696 0.0
C105 C 0.78174 0.62244 0.80246 0.0
C106 C 0.78782 0.55277 0.81447 0.0
C107 C 0.81242 0.61418 0.79429 0.0
C108 C 0.7569 0.56075 0.82243 0.0
C109 C 0.81671 0.58004 0.8007 0.0
C110 C 0.72419 0.60711 0.82627 0.0
C111 C 0.58937 0.61783 0.83331 0.0
H112 H 0.4857 0.54416 0.80946 0.0
H113 H 0.38458 0.54015 0.85993 0.0
H114 H 0.47688 0.60566 0.81499 0.0
H115 H 0.39533 0.47906 0.85504 0.0
H116 H 0.77991 0.64973 0.79779 0.0
H117 H 0.79046 0.52656 0.82002 0.0
H118 H 0.83374 0.63543 0.78351 0.0
H119 H 0.73577 0.53969 0.83334 0.0
C120 C 0.6184 0.29631 0.20948 0.0
C121 C 0.64378 0.33364 0.22163 0.0
C122 C 0.6292 0.33627 0.24099 0.0
C123 C 0.57642 0.2614 0.23787 0.0
C124 C 0.58545 0.26069 0.2179 0.0
C125 C 0.56137 0.21677 0.20796 0.0
H126 H 0.46674 1.00656 0.21735 0.0
C127 C 0.54855 0.21703 0.2433 0.0
C128 C 0.53896 0.19081 0.22574 0.0
H129 H 0.49375 0.07412 0.16278 0.0
H130 H 0.51447 0.13977 0.18208 0.0
H131 H 0.55 0.08002 0.24416 0.0
H132 H 0.41985 1.0506 0.23763 0.0
H133 H 0.43614 0.07026 0.26252 0.0
H134 H 0.43473 1.02166 0.25381 0.0
H135 H 0.50522 1.03129 0.25147 0.0
H136 H 0.52907 0.07792 0.26809 0.0
C137 C 0.59409 0.20512 0.19922 0.0
C138 C 0.52953 0.21611 0.19215 0.0
C139 C 0.54289 0.18389 0.31654 0.0
C140 C 0.52855 0.14553 0.32611 0.0
C141 C 0.50369 0.10666 0.31503 0.0
C142 C 0.49616 0.10598 0.29438 0.0
C143 C 0.51403 0.14452 0.2847 0.0
C144 C 0.53527 0.18267 0.29589 0.0
C145 C 0.55112 0.22051 0.2831 0.0
C146 C 0.53831 0.19863 0.26226 0.0
C147 C 0.51676 0.15412 0.26332 0.0
C148 C 0.60015 0.24898 0.28639 0.0
C149 C 0.52603 0.24361 0.28836 0.0
C150 C 0.47789 1.03573 0.20963 0.0
C151 C 0.47994 1.03565 0.18861 0.0
C152 C 0.49258 0.07369 0.17897 0.0
C153 C 0.5045 0.11165 0.19018 0.0
C154 C 0.50426 0.11164 0.21121 0.0
C155 C 0.48978 0.07395 0.22059 0.0
C156 C 0.48928 0.07988 0.24301 0.0
C157 C 0.50659 0.12764 0.2455 0.0
C158 C 0.51642 0.14599 0.22682 0.0
C159 C 0.51974 0.06648 0.25235 0.0
C160 C 0.44273 1.05413 0.24975 0.0
H161 H 0.58871 0.30303 0.26457 0.0
H162 H 0.62621 0.29237 0.1943 0.0
H163 H 0.52315 0.24285 0.19497 0.0
H164 H 0.49792 0.18696 0.19253 0.0
H165 H 0.54178 0.21874 0.17677 0.0
H166 H 0.6208 0.21437 0.21022 0.0
H167 H 0.60766 0.22185 0.18529 0.0
H168 H 0.58094 0.17089 0.19568 0.0
H169 H 0.56142 0.21424 0.3248 0.0
H170 H 0.49214 0.0767 0.32211 0.0
H171 H 0.47827 0.07542 0.2866 0.0
H172 H 0.61419 0.2333 0.29512 0.0
H173 H 0.60871 0.27954 0.29468 0.0
H174 H 0.61719 0.25606 0.27213 0.0
H175 H 0.49166 0.22028 0.2898 0.0
H176 H 0.52751 0.26478 0.2766 0.0
H177 H 0.53787 0.26249 0.30285 0.0
H178 H 0.64513 0.36521 0.25044 0.0
C179 C 0.59605 0.30015 0.24926 0.0
C180 C 0.6298 0.61752 0.51381 0.0
C181 C 0.59568 0.62446 0.51784 0.0
C182 C 0.57993 0.61907 0.5374 0.0
C183 C 0.63542 0.60572 0.54887 0.0
C184 C 0.64953 0.60895 0.52953 0.0
C185 C 0.68875 0.60503 0.52811 0.0
H186 H 0.82183 0.55268 0.57192 0.0
C187 C 0.66531 0.60066 0.56197 0.0
C188 C 0.69678 0.60053 0.54995 0.0
H189 H 0.80075 0.56291 0.50896 0.0
H190 H 0.76087 0.59663 0.51754 0.0
H191 H 0.82482 0.64519 0.58818 0.0
H192 H 0.72897 0.5123 0.58284 0.0
H193 H 0.72668 0.53385 0.60668 0.0
H194 H 0.77413 0.53336 0.59995 0.0
H195 H 0.82181 0.60841 0.60609 0.0
H196 H 0.79109 0.63511 0.60848 0.0
C197 C 0.72503 0.64685 0.52017 0.0
C198 C 0.67737 0.56432 0.51481 0.0
C199 C 0.63991 0.58631 0.6364 0.0
C200 C 0.66321 0.58416 0.65276 0.0
C201 C 0.70219 0.58549 0.64916 0.0
C202 C 0.7172 0.58829 0.62965 0.0
C203 C 0.69313 0.58987 0.61351 0.0
C204 C 0.65564 0.58975 0.61713 0.0
C205 C 0.63571 0.5948 0.59846 0.0
C206 C 0.66698 0.59709 0.58295 0.0
C207 C 0.70026 0.59355 0.59176 0.0
C208 C 0.63478 0.63707 0.601 0.0
C209 C 0.59146 0.5545 0.59484 0.0
C210 C 0.80911 0.56265 0.55996 0.0
C211 C 0.81286 0.55247 0.53969 0.0
C212 C 0.79808 0.56886 0.52474 0.0
C213 C 0.77373 0.58778 0.52971 0.0
C214 C 0.76354 0.59003 0.54975 0.0
C215 C 0.78297 0.57991 0.56467 0.0
C216 C 0.76635 0.58233 0.58507 0.0
C217 C 0.73152 0.59215 0.57953 0.0
C218 C 0.73016 0.59652 0.55881 0.0
C219 C 0.80278 0.61943 0.59778 0.0
C220 C 0.74818 0.53835 0.59429 0.0
H221 H 0.58673 0.60702 0.56753 0.0
H222 H 0.64239 0.62089 0.49892 0.0
H223 H 0.64276 0.54078 0.51487 0.0
H224 H 0.69282 0.54684 0.52028 0.0
H225 H 0.68578 0.57194 0.49898 0.0
H226 H 0.72355 0.67489 0.52658 0.0
H227 H 0.72265 0.64692 0.50359 0.0
H228 H 0.75702 0.65283 0.52457 0.0
H229 H 0.60974 0.58507 0.6384 0.0
H230 H 0.72145 0.58488 0.66143 0.0
H231 H 0.74691 0.58901 0.62784 0.0
H232 H 0.66105 0.66068 0.61124 0.0
H233 H 0.60442 0.63175 0.60739 0.0
H234 H 0.6398 0.65329 0.58681 0.0
H235 H 0.59274 0.5254 0.59828 0.0
H236 H 0.57984 0.54921 0.57909 0.0
H237 H 0.56748 0.55598 0.60459 0.0
H238 H 0.55409 0.62476 0.54107 0.0
C239 C 0.59949 0.60955 0.55289 0.0
C240 C 0.32568 0.75476 0.88907 0.0
C241 C 0.35876 0.76253 0.90271 0.0
C242 C 0.34963 0.75728 0.92327 0.0
C243 C 0.27429 0.7249 0.91513 0.0
C244 C 0.2839 0.73528 0.89546 0.0
C245 C 0.24502 0.71691 0.88189 0.0
H246 H 1.03627 0.579 0.86608 0.0
C247 C 0.22771 0.69657 0.91591 0.0
C248 C 0.21056 0.69213 0.89647 0.0
H249 H 0.12595 0.66323 0.8243 0.0
H250 H 0.18125 0.69253 0.85022 0.0
H251 H 0.10283 0.55536 0.89005 0.0
H252 H 1.06146 0.64689 0.90025 0.0
H253 H 1.07091 0.63405 0.92406 0.0
H254 H 1.03007 0.59311 0.90753 0.0
H255 H 1.04918 0.54164 0.89545 0.0
H256 H 1.08813 0.55451 0.91521 0.0
C257 C 0.24859 0.68725 0.86545 0.0
C258 C 0.24117 0.7543 0.87378 0.0
C259 C 0.16184 0.61981 0.97926 0.0
C260 C 0.11994 0.58973 0.98401 0.0
C261 C 1.08716 0.57731 0.96936 0.0
C262 C 0.09601 0.59363 0.95026 0.0
C263 C 0.13811 0.62277 0.94565 0.0
C264 C 0.17008 0.63609 0.96016 0.0
C265 C 0.21278 0.66809 0.95267 0.0
C266 C 0.20107 0.67187 0.93129 0.0
C267 C 0.1574 0.64451 0.92718 0.0
C268 C 0.24213 0.64849 0.95349 0.0
C269 C 0.22932 0.71037 0.96538 0.0
C270 C 1.06818 0.60301 0.86248 0.0
C271 C 1.07736 0.61823 0.84311 0.0
C272 C 0.11858 0.65077 0.8391 0.0
C273 C 0.15043 0.66788 0.8542 0.0
C274 C 0.14089 0.65238 0.87353 0.0
C275 C 0.10024 0.62082 0.87748 0.0
C276 C 0.09539 0.61027 0.89919 0.0
C277 C 0.14018 0.64018 0.90751 0.0
C278 C 0.16662 0.66426 0.89234 0.0
C279 C 1.08301 0.56293 0.9002 0.0
C280 C 1.0626 0.62127 0.90832 0.0
H281 H 0.30222 0.73274 0.94519 0.0
H282 H 0.33099 0.75825 0.87317 0.0
H283 H 0.25514 0.78236 0.88466 0.0
H284 H 0.20774 0.74637 0.8715 0.0
H285 H 0.25806 0.76475 0.85952 0.0
H286 H 0.26407 0.67018 0.87169 0.0
H287 H 0.26789 0.70566 0.85286 0.0
H288 H 0.21763 0.66173 0.8593 0.0
H289 H 0.18795 0.62998 0.99003 0.0
H290 H 1.05446 0.55511 0.97267 0.0
H291 H 1.06971 0.58272 0.93978 0.0
H292 H 0.22443 0.61423 0.9484 0.0
H293 H 0.25447 0.65075 0.96902 0.0
H294 H 0.26926 0.66323 0.94352 0.0
H295 H 0.20261 0.71541 0.96988 0.0
H296 H 0.2505 0.73856 0.95702 0.0
H297 H 0.24623 0.71037 0.9793 0.0
H298 H 0.3746 0.76417 0.93425 0.0
C299 C 0.3075 0.73849 0.92956 0.0
C300 C 0.98401 0.45302 0.48325 0.0
C301 C 0.95082 0.41464 0.473 0.0
C302 C 0.95496 0.41034 0.4522 0.0
C303 C 1.02114 0.47875 0.45189 0.0
C304 C 1.01943 0.48447 0.47237 0.0
C305 C 1.05926 0.52687 0.47982 0.0
H306 H 0.24944 0.70597 0.45061 0.0
C307 C 1.06 0.51592 0.4442 0.0
C308 C 1.08399 0.54497 0.46042 0.0
H309 H 0.20724 0.6856 0.5114 0.0
H310 H 0.14361 0.6181 0.50013 0.0
H311 H 0.22633 0.61109 0.43851 0.0
H312 H 0.1637 0.68385 0.43285 0.0
H313 H 0.14772 0.65035 0.41112 0.0
H314 H 0.20346 0.68807 0.41585 0.0
H315 H 0.24149 0.6521 0.42106 0.0
H316 H 0.20239 0.59744 0.41441 0.0
C317 C 1.0856 0.5174 0.49467 0.0
C318 C 1.04518 0.55694 0.48942 0.0
C319 C 1.07606 0.52262 0.36811 0.0
C320 C 0.10641 0.55336 0.35596 0.0
C321 C 0.14276 0.58822 0.36513 0.0
C322 C 0.14839 0.59325 0.38604 0.0
C323 C 0.11698 0.56346 0.39818 0.0
C324 C 1.08198 0.52846 0.38915 0.0
C325 C 1.05195 0.5003 0.40444 0.0
C326 C 1.0738 0.52501 0.42413 0.0
C327 C 0.11188 0.5619 0.42032 0.0
C328 C 1.05062 0.45681 0.40245 0.0
C329 C 1.00852 0.49792 0.40079 0.0
C330 C 0.22754 0.68718 0.46185 0.0
C331 C 0.23512 0.70238 0.48206 0.0
C332 C 0.20339 0.67591 0.49563 0.0
C333 C 0.16626 0.63639 0.48915 0.0
C334 C 0.1595 0.62227 0.46869 0.0
C335 C 0.19048 0.64842 0.45568 0.0
C336 C 0.179 0.63184 0.4344 0.0
C337 C 0.13704 0.59095 0.43634 0.0
C338 C 0.12413 0.58381 0.4565 0.0
C339 C 0.21408 0.62284 0.42649 0.0
C340 C 0.17341 0.66511 0.4228 0.0
H341 H 0.98847 0.43498 0.42606 0.0
H342 H 0.98266 0.45811 0.49925 0.0
H343 H 1.02481 0.562 0.47867 0.0
H344 H 1.07288 0.58841 0.49382 0.0
H345 H 1.02666 0.54332 0.50301 0.0
H346 H 0.0941 0.4944 0.48763 0.0
H347 H 1.06727 0.50342 0.50826 0.0
H348 H 0.11549 0.54667 0.4994 0.0
H349 H 1.04758 0.4957 0.36142 0.0
H350 H 0.16641 0.61232 0.35604 0.0
H351 H 0.17671 0.62086 0.39187 0.0
H352 H 1.07982 0.45981 0.3956 0.0
H353 H 1.02306 0.43318 0.39289 0.0
H354 H 1.04964 0.44352 0.41719 0.0
H355 H 1.0132 0.52931 0.39662 0.0
H356 H 0.98898 0.49024 0.41421 0.0
H357 H 0.98987 0.47428 0.38838 0.0
H358 H 0.9308 0.38285 0.44351 0.0
C359 C 0.98902 0.44139 0.44186 0.0
C360 C 0.59007 0.92745 0.81619 0.0
C361 C 0.59244 0.89273 0.80595 0.0
C362 C 0.59573 0.89421 0.78497 0.0
C363 C 0.59471 0.96114 0.7845 0.0
C364 C 0.59177 0.96176 0.80511 0.0
C365 C 0.59156 1.00287 0.81246 0.0
H366 H 0.58942 0.18682 0.78241 0.0
C367 C 0.59507 0.9994 0.77666 0.0
C368 C 0.59321 1.02508 0.79283 0.0
H369 H 0.59541 0.15826 0.84387 0.0
H370 H 0.59399 0.09181 0.83263 0.0
H371 H 0.6585 0.16741 0.76901 0.0
H372 H 0.52244 0.0924 0.7656 0.0
H373 H 0.53998 0.08271 0.7426 0.0
H374 H 0.5523 0.13615 0.75003 0.0
H375 H 0.62732 0.17495 0.75045 0.0
H376 H 0.64661 0.13813 0.74604 0.0
C377 C 0.63133 1.03051 0.82593 0.0
C378 C 0.55052 0.99106 0.8236 0.0
C379 C 0.60136 1.01295 0.70069 0.0
C380 C 0.60153 1.04312 0.68798 0.0
C381 C 0.59896 0.07778 0.69686 0.0
C382 C 0.59641 0.08235 0.71772 0.0
C383 C 0.59664 1.05215 0.73022 0.0
C384 C 0.59896 1.01817 0.72158 0.0
C385 C 0.59869 0.98911 0.73706 0.0
C386 C 0.5962 1.01136 0.75651 0.0
C387 C 0.59504 1.04829 0.75241 0.0
C388 C 0.64136 0.98896 0.73587 0.0
C389 C 0.55815 0.94499 0.73295 0.0
C390 C 0.58969 0.1664 0.79369 0.0
C391 C 0.59193 0.17876 0.81413 0.0
C392 C 0.59364 0.1505 0.82793 0.0
C393 C 0.5929 0.11178 0.82145 0.0
C394 C 0.59135 0.10062 0.80078 0.0
C395 C 0.59009 0.12861 0.78753 0.0
C396 C 0.59143 0.1152 0.76621 0.0
C397 C 0.5931 0.07454 0.76836 0.0
C398 C 0.59261 0.0643 0.78868 0.0
C399 C 0.6328 0.15065 0.75728 0.0
C400 C 0.54965 0.10637 0.75537 0.0
H401 H 0.59913 0.92487 0.75857 0.0
H402 H 0.58756 0.92815 0.83232 0.0
H403 H 0.52223 0.9699 0.81379 0.0
H404 H 0.54863 1.01979 0.82813 0.0
H405 H 0.54903 0.9741 0.83729 0.0
H406 H 0.66052 1.037 0.81786 0.0
H407 H 0.63031 1.01408 0.83975 0.0
H408 H 0.63409 1.06151 0.8304 0.0
H409 H 0.60268 0.98552 0.69457 0.0
H410 H 0.5997 0.10203 0.6877 0.0
H411 H 0.59462 0.10958 0.72326 0.0
H412 H 0.66749 1.02006 0.73118 0.0
H413 H 0.63891 0.96399 0.72482 0.0
H414 H 0.65269 0.98473 0.75053 0.0
H415 H 0.53188 0.94823 0.72618 0.0
H416 H 0.54475 0.92811 0.74678 0.0
H417 H 0.5644 0.92431 0.72243 0.0
H418 H 0.59655 0.86874 0.77627 0.0
C419 C 0.59682 0.92732 0.77447 0.0
C420 C 0.71146 0.53233 0.15113 0.0
C421 C 0.74723 0.53394 0.14085 0.0
C422 C 0.74623 0.53555 0.11984 0.0
C423 C 0.67853 0.53492 0.11943 0.0
C424 C 0.67743 0.53324 0.14004 0.0
C425 C 0.63687 0.53335 0.14732 0.0
H426 H 0.44696 0.52848 0.1167 0.0
C427 C 0.63975 0.53477 0.11155 0.0
C428 C 0.61393 0.53363 0.12764 0.0
H429 H 0.48885 0.53915 0.17824 0.0
H430 H 0.55255 0.53694 0.16717 0.0
H431 H 0.53402 0.59678 0.10294 0.0
H432 H 0.47322 0.46041 0.10035 0.0
H433 H 0.49783 0.47656 0.07732 0.0
H434 H 0.45716 0.48892 0.0845 0.0
H435 H 0.49231 0.56404 0.08491 0.0
H436 H 0.54745 0.58269 0.07987 0.0
C437 C 0.6503 0.57396 0.16062 0.0
C438 C 0.60923 0.49302 0.15862 0.0
C439 C 0.62692 0.54124 0.03589 0.0
C440 C 0.59588 0.54075 0.02296 0.0
C441 C 0.55799 0.53545 0.03126 0.0
C442 C 0.55184 0.53211 0.05204 0.0
C443 C 0.58383 0.53395 0.06487 0.0
C444 C 0.62018 0.5377 0.05657 0.0
C445 C 0.6503 0.53786 0.07213 0.0
C446 C 0.62685 0.53498 0.09138 0.0
C447 C 0.58803 0.53289 0.08709 0.0
C448 C 0.69254 0.58094 0.07151 0.0
C449 C 0.65427 0.49757 0.06767 0.0
C450 C 0.46901 0.52963 0.12804 0.0
C451 C 0.46135 0.53343 0.14845 0.0
C452 C 0.49294 0.53619 0.16233 0.0
C453 C 0.53014 0.53499 0.15595 0.0
C454 C 0.53729 0.53191 0.13531 0.0
C455 C 0.50646 0.5296 0.12197 0.0
C456 C 0.51879 0.5295 0.10066 0.0
C457 C 0.56146 0.53161 0.10295 0.0
C458 C 0.57354 0.53249 0.12333 0.0
C459 C 0.52316 0.57003 0.09143 0.0
C460 C 0.48502 0.4869 0.08997 0.0
H461 H 0.71598 0.5375 0.09349 0.0
H462 H 0.71029 0.53096 0.16728 0.0
H463 H 0.60111 0.46411 0.14893 0.0
H464 H 0.57914 0.49137 0.16313 0.0
H465 H 0.62638 0.49247 0.17234 0.0
H466 H 0.67181 0.60264 0.15244 0.0
H467 H 0.66742 0.57392 0.17446 0.0
H468 H 0.62252 0.57687 0.16505 0.0
H469 H 0.65609 0.54442 0.03005 0.0
H470 H 0.53355 0.5351 0.02174 0.0
H471 H 0.52253 0.52882 0.05732 0.0
H472 H 0.68649 0.60699 0.06755 0.0
H473 H 0.71395 0.5792 0.06016 0.0
H474 H 0.70977 0.59192 0.08619 0.0
H475 H 0.62545 0.4717 0.05957 0.0
H476 H 0.65679 0.48302 0.08146 0.0
H477 H 0.68191 0.50473 0.05822 0.0
H478 H 0.77118 0.53546 0.11106 0.0
C479 C 0.71306 0.53614 0.10938 0.0
H480 H 0.21555 0.49025 0.14351 0.0
H481 H 0.25511 0.59246 0.18919 0.0
H482 H 0.32693 0.60069 0.19046 0.0
H483 H 0.27867 0.44474 0.16178 0.0
H484 H 0.29295 0.43437 0.13723 0.0
H485 H 0.24387 0.43482 0.14038 0.0
H486 H 0.26607 0.49166 0.11404 0.0
H487 H 0.31517 0.4913 0.11078 0.0
H488 H 0.31619 0.54053 0.11733 0.0
H489 H 0.39635 0.59654 0.18764 0.0
H490 H 0.45646 0.58582 0.17855 0.0
H491 H 0.37634 0.49039 0.13263 0.0
C492 C 0.23919 0.51422 0.1539 0.0
C493 C 0.22845 0.54038 0.16648 0.0
C494 C 0.26144 0.57176 0.17943 0.0
C495 C 0.30275 0.57664 0.18029 0.0
C496 C 0.3122 0.55056 0.16782 0.0
C497 C 0.28143 0.52033 0.1546 0.0
C498 C 0.30084 0.49801 0.14208 0.0
C499 C 0.27769 0.45014 0.14557 0.0
C500 C 0.29948 0.50583 0.11973 0.0
C501 C 0.34695 0.51995 0.1504 0.0
C502 C 0.35258 0.54982 0.16545 0.0
C503 C 0.39197 0.57331 0.17577 0.0
C504 C 0.42626 0.56674 0.17055 0.0
C505 C 0.42234 0.53722 0.15479 0.0
C506 C 0.38143 0.51354 0.14467 0.0
H507 H 0.75061 0.17149 0.47961 0.0
H508 H 0.68937 0.22318 0.51786 0.0
H509 H 0.75334 0.29452 0.51735 0.0
H510 H 0.85925 0.2391 0.50026 0.0
H511 H 0.88376 0.24583 0.47629 0.0
H512 H 0.83411 0.19831 0.48042 0.0
H513 H 0.79979 0.21221 0.44976 0.0
H514 H 0.84938 0.25966 0.44552 0.0
H515 H 0.80159 0.26263 0.44856 0.0
H516 H 0.82708 0.36397 0.51226 0.0
H517 H 0.89715 0.42073 0.50132 0.0
H518 H 0.9106 0.32581 0.46552 0.0
C519 C 0.75062 0.19765 0.48806 0.0
C520 C 0.71393 0.19044 0.49898 0.0
C521 C 0.71617 0.22669 0.50937 0.0
C522 C 0.75279 0.26785 0.50918 0.0
C523 C 0.78803 0.27385 0.49825 0.0
C524 C 0.78703 0.23957 0.48773 0.0
C525 C 0.8285 0.25496 0.47647 0.0
C526 C 0.85284 0.23325 0.4838 0.0
C527 C 0.81926 0.24688 0.45373 0.0
C528 C 0.85293 0.30289 0.48226 0.0
C529 C 0.82926 0.31324 0.495 0.0
C530 C 0.84553 0.35571 0.50225 0.0
C531 C 0.88599 0.38811 0.49608 0.0
C532 C 0.9107 0.37891 0.48247 0.0
C533 C 0.89333 0.33498 0.47584 0.0
H534 H 0.63474 0.6915 0.81103 0.0
H535 H 0.53555 0.63777 0.85441 0.0
H536 H 0.52845 0.70211 0.85421 0.0
H537 H 0.68246 0.80267 0.82964 0.0
H538 H 0.69274 0.82348 0.80502 0.0
H539 H 0.69142 0.77412 0.80926 0.0
H540 H 0.63398 0.73609 0.78096 0.0
H541 H 0.63528 0.78538 0.7766 0.0
H542 H 0.58573 0.73879 0.7819 0.0
H543 H 0.5311 0.7755 0.84844 0.0
H544 H 0.54147 0.8441 0.83677 0.0
H545 H 0.63756 0.85 0.79669 0.0
C546 C 0.61156 0.69316 0.82059 0.0
C547 C 0.58596 0.65856 0.8329 0.0
C548 C 0.55582 0.66296 0.84483 0.0
C549 C 0.55142 0.69979 0.84478 0.0
C550 C 0.57678 0.73296 0.83244 0.0
C551 C 0.60619 0.72972 0.82046 0.0
C552 C 0.62879 0.76923 0.80809 0.0
C553 C 0.6767 0.79382 0.81331 0.0
C554 C 0.62045 0.75662 0.78555 0.0
C555 C 0.60771 0.79515 0.81485 0.0
C556 C 0.57792 0.77394 0.82905 0.0
C557 C 0.55449 0.79198 0.83731 0.0
C558 C 0.5609 0.83161 0.83069 0.0
C559 C 0.59037 0.85372 0.81566 0.0
C560 C 0.61438 0.8347 0.80805 0.0
H561 H 0.98892 0.571 0.14294 0.0
H562 H 0.94946 0.47534 0.18705 0.0
H563 H 0.87899 0.47058 0.18792 0.0
H564 H 0.93141 0.62344 0.16178 0.0
H565 H 0.9165 0.63127 0.13722 0.0
H566 H 0.96451 0.62887 0.14081 0.0
H567 H 0.93845 0.56787 0.11341 0.0
H568 H 0.89052 0.57029 0.10965 0.0
H569 H 0.8873 0.52076 0.11551 0.0
H570 H 0.80988 0.47816 0.18455 0.0
H571 H 0.75019 0.48796 0.17305 0.0
H572 H 0.83317 0.57655 0.13034 0.0
C573 C 0.96564 0.54912 0.1529 0.0
C574 C 0.97604 0.52392 0.16513 0.0
C575 C 0.94343 0.49532 0.17756 0.0
C576 C 0.90287 0.49242 0.17821 0.0
C577 C 0.89384 0.51777 0.16612 0.0
C578 C 0.92435 0.54513 0.15343 0.0
C579 C 0.90593 0.56712 0.14106 0.0
C580 C 0.9311 0.61555 0.14548 0.0
C581 C 0.90553 0.55584 0.11858 0.0
C582 C 0.86056 0.54809 0.14867 0.0
C583 C 0.85422 0.52016 0.16339 0.0
C584 C 0.81479 0.49955 0.17276 0.0
C585 C 0.78077 0.50571 0.16626 0.0
C586 C 0.78554 0.53267 0.15048 0.0
C587 C 0.82703 0.55485 0.14213 0.0
H588 H 0.47677 0.9105 0.4761 0.0
H589 H 0.44107 0.97146 0.52334 0.0
H590 H 0.37114 0.90654 0.52468 0.0
H591 H 0.37216 0.85441 0.45073 0.0
H592 H 0.37443 0.80692 0.44404 0.0
H593 H 0.42281 0.85753 0.44709 0.0
H594 H 0.45158 0.82683 0.47318 0.0
H595 H 0.40328 0.77611 0.47019 0.0
H596 H 0.42062 0.80255 0.49471 0.0
H597 H 0.30266 0.83308 0.52128 0.0
H598 H 0.24258 0.76144 0.51212 0.0
H599 H 0.3183 0.74538 0.46618 0.0
C600 C 0.45439 0.91025 0.48681 0.0
C601 C 0.46572 0.94734 0.4997 0.0
C602 C 0.43436 0.94455 0.51323 0.0
C603 C 0.39405 0.90731 0.51415 0.0
C604 C 0.38392 0.87179 0.50133 0.0
C605 C 0.41313 0.87296 0.48777 0.0
C606 C 0.39319 0.83043 0.47527 0.0
C607 C 0.3905 0.83777 0.45295 0.0
C608 C 0.41869 0.80763 0.47853 0.0
C609 C 0.34848 0.80543 0.48386 0.0
C610 C 0.34411 0.82992 0.49904 0.0
C611 C 0.30607 0.81387 0.50938 0.0
C612 C 0.27175 0.77245 0.50411 0.0
C613 C 0.2743 0.74622 0.48834 0.0
C614 C 0.31402 0.76373 0.4782 0.0
H615 H 0.5497 0.38192 0.80933 0.0
H616 H 0.64888 0.44607 0.85549 0.0
H617 H 0.65651 0.38225 0.85674 0.0
H618 H 0.50245 0.27409 0.82725 0.0
H619 H 0.49374 0.24825 0.80262 0.0
H620 H 0.49411 0.29803 0.80586 0.0
H621 H 0.55281 0.331 0.77984 0.0
H622 H 0.55253 0.28129 0.7765 0.0
H623 H 0.60138 0.32958 0.78334 0.0
H624 H 0.65227 0.30853 0.85384 0.0
H625 H 0.64212 0.23725 0.84457 0.0
H626 H 0.55005 0.2202 0.7982 0.0
C627 C 0.57282 0.3825 0.81984 0.0
C628 C 0.59832 0.41992 0.83255 0.0
C629 C 0.62867 0.41862 0.84563 0.0
C630 C 0.63322 0.38207 0.84649 0.0
C631 C 0.60786 0.34604 0.83387 0.0
C632 C 0.57863 0.34618 0.82053 0.0
C633 C 0.5571 0.30389 0.80784 0.0
C634 C 0.50899 0.27963 0.81109 0.0
C635 C 0.56651 0.31192 0.78556 0.0
C636 C 0.57836 0.27993 0.81622 0.0
C637 C 0.60717 0.30474 0.83144 0.0
C638 C 0.62988 0.28921 0.84183 0.0
C639 C 0.62363 0.24808 0.83651 0.0
C640 C 0.59525 0.22185 0.82057 0.0
C641 C 0.57232 0.23874 0.81038 0.0
H642 H 0.64506 0.82744 0.46436 0.0
H643 H 0.51347 0.79305 0.47228 0.0
H644 H 0.49571 0.71941 0.47834 0.0
H645 H 0.62332 0.71822 0.44242 0.0
H646 H 0.66959 0.72484 0.45589 0.0
H647 H 0.6692 0.77052 0.4465 0.0
H648 H 0.68809 0.8069 0.48226 0.0
H649 H 0.68831 0.76161 0.49171 0.0
H650 H 0.65437 0.77969 0.50262 0.0
H651 H 0.49603 0.65606 0.49126 0.0
H652 H 0.51458 0.60984 0.50985 0.0
H653 H 0.64587 0.68643 0.49321 0.0
C654 C 0.61207 0.80394 0.46629 0.0
C655 C 0.58066 0.8159 0.46777 0.0
C656 C 0.53812 0.78457 0.47117 0.0
C657 C 0.52766 0.74256 0.47443 0.0
C658 C 0.55996 0.73232 0.4739 0.0
C659 C 0.60126 0.7621 0.46959 0.0
C660 C 0.63156 0.74568 0.47316 0.0
C661 C 0.64946 0.73943 0.45331 0.0
C662 C 0.66763 0.77519 0.48834 0.0
C663 C 0.60156 0.70342 0.48167 0.0
C664 C 0.56015 0.69554 0.48143 0.0
C665 C 0.52809 0.66127 0.49102 0.0
C666 C 0.53897 0.63539 0.50169 0.0
C667 C 0.58165 0.64434 0.50288 0.0
C668 C 0.61274 0.67777 0.49205 0.0
H669 H 0.89789 0.64501 0.79798 0.0
H670 H 0.82178 0.50731 0.79351 0.0
H671 H 0.887 0.50253 0.79605 0.0
H672 H 0.99759 0.65193 0.77222 0.0
H673 H 1.03133 0.69656 0.78915 0.0
H674 H 0.9809 0.68924 0.78036 0.0
H675 H 0.95982 0.69157 0.81715 0.0
H676 H 1.00932 0.69791 0.82608 0.0
H677 H 0.9601 0.65426 0.83407 0.0
H678 H 0.95472 0.5123 0.8098 0.0
H679 H 1.02076 0.53634 0.83009 0.0
H680 H 1.05446 0.66748 0.82349 0.0
C681 C 0.89498 0.61387 0.79627 0.0
C682 C 0.85472 0.57658 0.79571 0.0
C683 C 0.8523 0.53637 0.79421 0.0
C684 C 0.88925 0.53335 0.79545 0.0
C685 C 0.92838 0.57082 0.79762 0.0
C686 C 0.93158 0.61044 0.79738 0.0
C687 C 0.97613 0.6457 0.80317 0.0
C688 C 0.99777 0.67242 0.78514 0.0
C689 C 0.97628 0.67393 0.82118 0.0
C690 C 0.99627 0.6196 0.80868 0.0
C691 C 0.96863 0.57648 0.8049 0.0
C692 C 0.97736 0.54594 0.81203 0.0
C693 C 1.01468 0.55976 0.82364 0.0
C694 C 1.04273 0.60367 0.82789 0.0
C695 C 1.03411 0.63381 0.81974 0.0
H696 H 0.3071 0.83846 0.12751 0.0
H697 H 0.35476 0.76725 0.15832 0.0
H698 H 0.42287 0.83287 0.16525 0.0
H699 H 0.41745 0.93008 0.11109 0.0
H700 H 0.39976 0.96787 0.11628 0.0
H701 H 0.36252 0.91472 0.10652 0.0
H702 H 0.31419 0.9056 0.13644 0.0
H703 H 0.35128 0.95794 0.1465 0.0
H704 H 0.33561 0.91284 0.16166 0.0
H705 H 0.4733 0.90475 0.1786 0.0
H706 H 0.50431 0.97686 0.19482 0.0
H707 H 0.42442 1.00341 0.15662 0.0
C708 C 0.33271 0.83656 0.13488 0.0
C709 C 0.32565 0.79792 0.14243 0.0
C710 C 0.35959 0.79636 0.15211 0.0
C711 C 0.3985 0.83365 0.15618 0.0
C712 C 0.40308 0.87205 0.15024 0.0
C713 C 0.3714 0.87368 0.13933 0.0
C714 C 0.38034 0.91901 0.13823 0.0
C715 C 0.39065 0.93379 0.11675 0.0
C716 C 0.34318 0.92409 0.1462 0.0
C717 C 0.41939 0.94195 0.15196 0.0
C718 C 0.43291 0.9146 0.15817 0.0
C719 C 0.46408 0.92685 0.1733 0.0
C720 C 0.48117 0.96763 0.18259 0.0
C721 C 0.46685 0.99551 0.17678 0.0
C722 C 0.43668 0.98298 0.16086 0.0
H723 H 0.6825 0.31569 0.54096 0.0
H724 H 0.68927 0.31991 0.47621 0.0
H725 H 0.75673 0.38796 0.47984 0.0
H726 H 0.70382 0.41455 0.54957 0.0
H727 H 0.734 0.42488 0.57273 0.0
H728 H 0.69582 0.37143 0.56478 0.0
H729 H 0.75515 0.35131 0.56703 0.0
H730 H 0.79391 0.40573 0.57431 0.0
H731 H 0.80254 0.37934 0.55286 0.0
H732 H 0.81419 0.46128 0.49005 0.0
H733 H 0.84276 0.53428 0.50437 0.0
H734 H 0.79403 0.48408 0.56217 0.0
C735 C 0.69825 0.33067 0.52749 0.0
C736 C 0.6802 0.3125 0.50832 0.0
C737 C 0.70252 0.33282 0.49112 0.0
C738 C 0.74117 0.37141 0.49304 0.0
C739 C 0.7573 0.38924 0.51224 0.0
C740 C 0.73626 0.36942 0.52917 0.0
C741 C 0.7547 0.39842 0.54781 0.0
C742 C 0.72006 0.4026 0.55935 0.0
C743 C 0.77797 0.38276 0.5613 0.0
C744 C 0.78594 0.43932 0.53846 0.0
C745 C 0.78918 0.43274 0.51815 0.0
C746 C 0.81193 0.46667 0.50595 0.0
C747 C 0.82779 0.5082 0.51424 0.0
C748 C 0.81862 0.51522 0.53421 0.0
C749 C 0.80152 0.48051 0.54684 0.0
H750 H 0.43262 0.60565 0.87712 0.0
H751 H 0.43898 0.64433 0.81612 0.0
H752 H 0.44463 0.71198 0.82897 0.0
H753 H 0.36231 0.63471 0.89259 0.0
H754 H 0.38426 0.65137 0.91781 0.0
H755 H 0.39204 0.61279 0.90377 0.0
H756 H 0.47363 0.66116 0.90986 0.0
H757 H 0.46569 0.70074 0.92331 0.0
H758 H 0.49965 0.71511 0.90206 0.0
H759 H 0.43771 0.76925 0.84794 0.0
H760 H 0.40391 0.80062 0.8691 0.0
H761 H 0.3981 0.72169 0.91725 0.0
C762 C 0.43533 0.62834 0.8664 0.0
C763 C 0.43483 0.61942 0.84561 0.0
C764 C 0.43939 0.65046 0.83215 0.0
C765 C 0.44302 0.68916 0.83933 0.0
C766 C 0.44255 0.69651 0.86 0.0
C767 C 0.4385 0.66664 0.87329 0.0
C768 C 0.43142 0.67825 0.89433 0.0
C769 C 0.39006 0.64219 0.90257 0.0
C770 C 0.4699 0.68949 0.90821 0.0
C771 C 0.42818 0.71735 0.89056 0.0
C772 C 0.43702 0.72881 0.87091 0.0
C773 C 0.43106 0.76074 0.86336 0.0
C774 C 0.41177 0.7784 0.87553 0.0
C775 C 0.39703 0.76264 0.89466 0.0
C776 C 0.40909 0.73479 0.90282 0.0
H777 H 0.83238 0.34814 0.16204 0.0
H778 H 0.90747 0.4015 0.21732 0.0
H779 H 0.85234 0.41523 0.23106 0.0
H780 H 0.78654 0.4172 0.16011 0.0
H781 H 0.73386 0.37579 0.15232 0.0
H782 H 0.77968 0.372 0.14499 0.0
H783 H 0.75233 0.29988 0.16044 0.0
H784 H 0.70442 0.30034 0.16657 0.0
H785 H 0.73486 0.2933 0.18591 0.0
H786 H 0.78662 0.41383 0.2405 0.0
H787 H 0.7125 0.38908 0.24681 0.0
H788 H 0.68059 0.34606 0.18388 0.0
C789 C 0.83734 0.36329 0.17691 0.0
C790 C 0.87391 0.37353 0.18869 0.0
C791 C 0.87923 0.3927 0.2082 0.0
C792 C 0.84846 0.40129 0.216 0.0
C793 C 0.81273 0.39088 0.20403 0.0
C794 C 0.80676 0.37193 0.18497 0.0
C795 C 0.76304 0.35885 0.17634 0.0
C796 C 0.76593 0.38239 0.15733 0.0
C797 C 0.73716 0.31024 0.17208 0.0
C798 C 0.74524 0.37297 0.19366 0.0
C799 C 0.7746 0.39155 0.2094 0.0
C800 C 0.76347 0.40013 0.22818 0.0
C801 C 0.72057 0.38595 0.23155 0.0
C802 C 0.68893 0.36344 0.21613 0.0
C803 C 0.70268 0.36104 0.19648 0.0
H804 H 0.14738 0.59135 0.10251 0.0
H805 H 1.04629 0.45935 0.10005 0.0
H806 H 1.04052 0.4608 0.06313 0.0
H807 H 0.10167 0.62543 0.06546 0.0
H808 H 0.15204 0.6623 0.05531 0.0
H809 H 0.1492 0.64996 0.08127 0.0
H810 H 0.20598 0.62724 0.07614 0.0
H811 H 0.20907 0.63954 0.05016 0.0
H812 H 0.19734 0.58724 0.05681 0.0
H813 H 1.04656 0.47733 0.02634 0.0
H814 H 1.06224 0.50758 0.99301 0.0
H815 H 0.1564 0.62991 0.02056 0.0
C816 C 0.12425 0.56252 0.09424 0.0
C817 C 0.09749 0.52507 0.10411 0.0
C818 C 1.06721 0.48832 0.09275 0.0
C819 C 1.06374 0.48887 0.07181 0.0
C820 C 1.09055 0.52649 0.06258 0.0
C821 C 0.12007 0.56266 0.07348 0.0
C822 C 0.14421 0.59949 0.0602 0.0
C823 C 0.13628 0.63646 0.0659 0.0
C824 C 0.19198 0.61423 0.06087 0.0
C825 C 0.12382 0.57843 0.04003 0.0
C826 C 1.0931 0.5363 0.04165 0.0
C827 C 1.07035 0.51037 0.02493 0.0
C828 C 1.07929 0.52799 0.00606 0.0
C829 C 0.11048 0.57128 0.00407 0.0
C830 C 0.1328 0.59662 0.02141 0.0
H831 H 0.51528 0.06504 0.4368 0.0
H832 H 0.65299 0.14052 0.44035 0.0
H833 H 0.65276 0.16763 0.4071 0.0
H834 H 0.50841 1.03391 0.3847 0.0
H835 H 0.46039 1.03548 0.37962 0.0
H836 H 0.47113 1.02422 0.40428 0.0
H837 H 0.46342 0.08684 0.41957 0.0
H838 H 0.45286 0.09844 0.39493 0.0
H839 H 0.49558 0.13936 0.41054 0.0
H840 H 0.63789 0.18653 0.37378 0.0
H841 H 0.60997 0.19066 0.3407 0.0
H842 H 0.48206 0.10002 0.35768 0.0
C843 C 0.5453 0.08748 0.43058 0.0
C844 C 0.58415 0.1009 0.44109 0.0
C845 C 0.62291 0.12977 0.43245 0.0
C846 C 0.62308 0.14553 0.41366 0.0
C847 C 0.58426 0.13169 0.40365 0.0
C848 C 0.5461 0.10292 0.41165 0.0
C849 C 0.50912 0.09122 0.39718 0.0
C850 C 0.48591 1.04337 0.39108 0.0
C851 C 0.47844 0.10479 0.40609 0.0
C852 C 0.53252 0.11781 0.37978 0.0
C853 C 0.57576 0.1414 0.384 0.0
C854 C 0.60409 0.16831 0.3703 0.0
C855 C 0.58791 0.17066 0.35162 0.0
C856 C 0.54388 0.14588 0.34673 0.0
C857 C 0.51585 0.11934 0.36107 0.0
H858 H 0.62593 0.51114 0.76548 0.0
H859 H 0.55182 0.57455 0.77283 0.0
H860 H 0.56279 0.59341 0.7374 0.0
H861 H 0.70306 0.58409 0.73437 0.0
H862 H 0.70706 0.54472 0.71859 0.0
H863 H 0.6915 0.53404 0.74418 0.0
H864 H 0.6224 0.46521 0.73232 0.0
H865 H 0.63802 0.47534 0.70669 0.0
H866 H 0.58721 0.46806 0.71408 0.0
H867 H 0.58792 0.61137 0.70241 0.0
H868 H 0.61834 0.62044 0.66896 0.0
H869 H 0.67123 0.5402 0.68362 0.0
C870 C 0.61153 0.52849 0.75954 0.0
C871 C 0.58809 0.54146 0.77183 0.0
C872 C 0.56966 0.56407 0.76359 0.0
C873 C 0.5759 0.5751 0.74354 0.0
C874 C 0.60003 0.56266 0.73194 0.0
C875 C 0.61689 0.53918 0.73951 0.0
C876 C 0.64168 0.52991 0.7239 0.0
C877 C 0.6886 0.54936 0.73067 0.0
C878 C 0.62108 0.48177 0.71895 0.0
C879 C 0.63686 0.5526 0.70647 0.0
C880 C 0.61294 0.57148 0.71146 0.0
C881 C 0.60589 0.59594 0.69816 0.0
C882 C 0.62315 0.60065 0.67911 0.0
C883 C 0.64673 0.58049 0.67337 0.0
C884 C 0.65367 0.55631 0.68741 0.0
H885 H 0.56214 0.0699 0.57252 0.0
H886 H 0.64556 1.02023 0.55654 0.0
H887 H 0.65446 1.01101 0.59241 0.0
H888 H 0.61879 0.12873 0.6173 0.0
H889 H 0.57162 0.11696 0.6308 0.0
H890 H 0.57112 0.11862 0.6039 0.0
H891 H 0.50654 1.04204 0.6011 0.0
H892 H 0.50677 1.04017 0.628 0.0
H893 H 0.50997 0.9998 0.61265 0.0
H894 H 0.65554 1.00905 0.63061 0.0
H895 H 0.64854 1.01416 0.66723 0.0
H896 H 0.56283 0.06338 0.6579 0.0
C897 C 0.58222 1.05692 0.57646 0.0
C898 C 0.60316 1.04581 0.56154 0.0
C899 C 0.62909 1.02895 0.56756 0.0
C900 C 0.63436 1.02361 0.58795 0.0
C901 C 0.6134 1.0351 0.60222 0.0
C902 C 0.58773 1.05128 0.5967 0.0
C903 C 0.56894 1.06153 0.6149 0.0
C904 C 0.5835 0.10929 0.61684 0.0
C905 C 0.52016 1.03425 0.61411 0.0
C906 C 0.58826 1.04893 0.6316 0.0
C907 C 0.61376 1.03368 0.62401 0.0
C908 C 0.63538 1.02067 0.63665 0.0
C909 C 0.63094 1.02343 0.6575 0.0
C910 C 0.60502 1.03907 0.66569 0.0
C911 C 0.58333 1.05173 0.65235 0.0
H912 H 0.54453 0.50208 0.90384 0.0
H913 H 0.67322 0.60544 0.89645 0.0
H914 H 0.68511 0.6143 0.93308 0.0
H915 H 0.52389 0.5492 0.94827 0.0
H916 H 0.49345 0.49932 0.95997 0.0
H917 H 0.49471 0.50045 0.93303 0.0
H918 H 0.52096 0.44584 0.93164 0.0
H919 H 0.51977 0.44453 0.95857 0.0
H920 H 0.5681 0.45722 0.94592 0.0
H921 H 0.68409 0.61167 0.97042 0.0
H922 H 0.66932 0.59918 0.00622 0.0
H923 H 0.54093 0.49849 0.99028 0.0
C924 C 0.57522 0.52654 0.90993 0.0
C925 C 0.60795 0.55301 0.89713 0.0
C926 C 0.64754 0.58477 0.9058 0.0
C927 C 0.65469 0.59005 0.92666 0.0
C928 C 0.6219 0.56354 0.93881 0.0
C929 C 0.58285 0.53253 0.93084 0.0
C930 C 0.55295 0.50871 0.94742 0.0
C931 C 0.51394 0.5148 0.94715 0.0
C932 C 0.53967 0.46126 0.94578 0.0
C933 C 0.58141 0.53107 0.9659 0.0
C934 C 0.62109 0.56247 0.96052 0.0
C935 C 0.65313 0.58716 0.97481 0.0
C936 C 0.64449 0.57963 0.99514 0.0
C937 C 0.60405 0.54774 0.00115 0.0
C938 C 0.57207 0.52331 0.98622 0.0
H939 H 0.10825 0.49505 0.23833 0.0
H940 H 1.08334 0.59809 0.22768 0.0
H941 H 1.07875 0.60893 0.26389 0.0
H942 H 1.03788 0.45355 0.28074 0.0
H943 H 1.07319 0.44158 0.29449 0.0
H944 H 1.07311 0.44014 0.26747 0.0
H945 H 0.15397 0.49386 0.26862 0.0
H946 H 0.15431 0.49537 0.29562 0.0
H947 H 0.17408 0.54401 0.28273 0.0
H948 H 1.07959 0.61157 0.30096 0.0
H949 H 1.08675 0.60593 0.33734 0.0
H950 H 0.11017 0.5011 0.32543 0.0
C951 C 0.10159 0.5197 0.24363 0.0
C952 C 0.09619 0.54569 0.22998 0.0
C953 C 1.08773 0.57773 0.23765 0.0
C954 C 1.08491 0.58414 0.25828 0.0
C955 C 1.09052 0.55828 0.27127 0.0
C956 C 0.0987 0.52668 0.26436 0.0
C957 C 0.1046 0.50435 0.28186 0.0
C958 C 1.07014 0.4571 0.28109 0.0
C959 C 0.14941 0.50973 0.28222 0.0
C960 C 0.09892 0.52874 0.29958 0.0
C961 C 1.09065 0.55957 0.293 0.0
C962 C 1.08567 0.58731 0.30631 0.0
C963 C 1.08973 0.58388 0.32692 0.0
C964 C 0.09846 0.55285 0.33411 0.0
C965 C 0.10274 0.52461 0.32027 0.0
loop_
_geom_bond_atom_site_label_1
_geom_bond_atom_site_label_2
_geom_bond_distance
_geom_bond_site_symmetry_2
_ccdc_geom_bond_type
Eu0 C9 2.828 . S
Eu0 O11 2.392 1_655 S
Eu0 O13 2.418 . S
Eu0 O18 2.373 . S
Eu0 O21 2.488 . S
Eu0 O22 2.471 . S
Eu0 O23 2.349 . S
Eu1 O10 2.373 . S
Eu1 O14 2.488 . S
Eu1 O15 2.471 . S
Eu1 O16 2.349 . S
Eu1 O19 2.392 1_455 S
Eu1 O20 2.418 . S
Eu1 C30 2.828 . S
C2 O20 1.244 . S
C2 O23 1.265 1_455 S
C3 C4 1.379 . S
C3 C7 1.373 . S
C3 C9 1.505 . S
C4 C3 1.379 . S
C4 C6 1.369 . S
C4 H32 0.930 . S
C5 C7 1.383 . S
C5 C8 1.382 . S
C5 H33 0.930 . S
C6 C4 1.369 . S
C6 C8 1.392 . S
C6 H34 0.930 . S
C7 C3 1.373 . S
C7 C5 1.383 . S
C7 H35 0.931 . S
C8 C5 1.382 . S
C8 C6 1.392 . S
C9 Eu0 2.828 . S
C9 C3 1.505 . S
C9 O21 1.249 . S
C9 O22 1.244 . S
O10 Eu1 2.373 . S
O10 C12 1.258 . S
O11 Eu0 2.392 1_455 S
O11 C12 1.242 . S
C12 O10 1.258 . S
C12 O11 1.242 . S
O13 Eu0 2.418 . S
O13 C17 1.246 . S
O14 Eu1 2.488 . S
O14 C30 1.249 . S
O15 Eu1 2.471 . S
O15 C30 1.244 . S
O16 Eu1 2.349 . S
O16 C17 1.263 1_455 S
C17 O13 1.246 . S
C17 O16 1.263 1_655 S
O18 Eu0 2.373 . S
O18 C31 1.258 . S
O19 Eu1 2.392 1_655 S
O19 C31 1.242 . S
O20 Eu1 2.418 . S
O20 C2 1.244 . S
O21 Eu0 2.488 . S
O21 C9 1.249 . S
O22 Eu0 2.471 . S
O22 C9 1.244 . S
O23 Eu0 2.349 . S
O23 C2 1.265 1_655 S
C24 C25 1.379 . S
C24 C28 1.373 . S
C24 C30 1.505 . S
C25 C24 1.379 . S
C25 C27 1.369 . S
C25 H36 0.930 . S
C26 C28 1.383 . S
C26 C29 1.382 . S
C26 H37 0.930 . S
C27 C25 1.369 . S
C27 C29 1.392 . S
C27 H38 0.930 . S
C28 C24 1.373 . S
C28 C26 1.383 . S
C28 H39 0.931 . S
C29 C26 1.382 . S
C29 C27 1.392 . S
C30 Eu1 2.828 . S
C30 O14 1.249 . S
C30 O15 1.244 . S
C30 C24 1.505 . S
C31 O18 1.258 . S
C31 O19 1.242 . S
H32 C4 0.930 . S
H33 C5 0.930 . S
H34 C6 0.930 . S
H35 C7 0.931 . S
H36 C25 0.930 . S
H37 C26 0.930 . S
H38 C27 0.930 . S
H39 C28 0.931 . S
Eu40 C49 2.828 . S
Eu40 O51 2.392 1_565 S
Eu40 O53 2.418 . S
Eu40 O58 2.373 . S
Eu40 O61 2.488 . S
Eu40 O62 2.471 . S
Eu40 O63 2.349 . S
Eu41 O50 2.373 . S
Eu41 O54 2.488 . S
Eu41 O55 2.471 . S
Eu41 O56 2.349 . S
Eu41 O59 2.392 1_545 S
Eu41 O60 2.418 . S
Eu41 C70 2.828 . S
C42 O60 1.244 . S
C42 O63 1.265 1_545 S
C43 C44 1.379 . S
C43 C47 1.373 . S
C43 C49 1.505 . S
C44 C43 1.379 . S
C44 C46 1.369 . S
C44 H72 0.930 . S
C45 C47 1.383 . S
C45 C48 1.382 . S
C45 H73 0.930 . S
C46 C44 1.369 . S
C46 C48 1.392 . S
C46 H74 0.930 . S
C47 C43 1.373 . S
C47 C45 1.383 . S
C47 H75 0.931 . S
C48 C45 1.382 . S
C48 C46 1.392 . S
C49 Eu40 2.828 . S
C49 C43 1.505 . S
C49 O61 1.249 . S
C49 O62 1.244 . S
O50 Eu41 2.373 . S
O50 C52 1.258 . S
O51 Eu40 2.392 1_545 S
O51 C52 1.242 . S
C52 O50 1.258 . S
C52 O51 1.242 . S
O53 Eu40 2.418 . S
O53 C57 1.244 1_565 S
O54 Eu41 2.488 . S
O54 C70 1.249 . S
O55 Eu41 2.471 . S
O55 C70 1.244 . S
O56 Eu41 2.349 . S
O56 C57 1.265 . S
C57 O53 1.244 1_545 S
C57 O56 1.265 . S
O58 Eu40 2.373 . S
O58 C71 1.258 . S
O59 Eu41 2.392 1_565 S
O59 C71 1.242 . S
O60 Eu41 2.418 . S
O60 C42 1.244 . S
O61 Eu40 2.488 . S
O61 C49 1.249 . S
O62 Eu40 2.471 . S
O62 C49 1.244 . S
O63 Eu40 2.349 . S
O63 C42 1.265 1_565 S
C64 C65 1.379 . S
C64 C68 1.373 . S
C64 C70 1.505 . S
C65 C64 1.379 . S
C65 C67 1.369 . S
C65 H76 0.930 . S
C66 C68 1.383 . S
C66 C69 1.382 . S
C66 H77 0.930 . S
C67 C65 1.369 . S
C67 C69 1.392 . S
C67 H78 0.930 . S
C68 C64 1.373 . S
C68 C66 1.383 . S
C68 H79 0.931 . S
C69 C66 1.382 . S
C69 C67 1.392 . S
C70 Eu41 2.828 . S
C70 O54 1.249 . S
C70 O55 1.244 . S
C70 C64 1.505 . S
C71 O58 1.258 . S
C71 O59 1.242 . S
H72 C44 0.930 . S
H73 C45 0.930 . S
H74 C46 0.930 . S
H75 C47 0.931 . S
H76 C65 0.930 . S
H77 C66 0.930 . S
H78 C67 0.930 . S
H79 C68 0.931 . S
Eu80 C89 2.828 . S
Eu80 O91 2.392 . S
Eu80 O93 2.418 . S
Eu80 O98 2.373 . S
Eu80 O101 2.488 . S
Eu80 O102 2.471 . S
Eu80 O103 2.349 . S
Eu81 O90 2.373 . S
Eu81 O94 2.488 . S
Eu81 O95 2.471 . S
Eu81 O96 2.349 . S
Eu81 O99 2.392 . S
Eu81 O100 2.418 . S
Eu81 C110 2.828 . S
C82 O100 1.244 . S
C82 O103 1.265 . S
C83 C84 1.379 . S
C83 C87 1.373 . S
C83 C89 1.505 . S
C84 C83 1.379 . S
C84 C86 1.369 . S
C84 H112 0.930 . S
C85 C87 1.383 . S
C85 C88 1.382 . S
C85 H113 0.930 . S
C86 C84 1.369 . S
C86 C88 1.392 . S
C86 H114 0.930 . S
C87 C83 1.373 . S
C87 C85 1.383 . S
C87 H115 0.931 . S
C88 C85 1.382 . S
C88 C86 1.392 . S
C89 Eu80 2.828 . S
C89 C83 1.505 . S
C89 O101 1.249 . S
C89 O102 1.244 . S
O90 Eu81 2.373 . S
O90 C92 1.258 . S
O91 Eu80 2.392 . S
O91 C92 1.242 . S
C92 O90 1.258 . S
C92 O91 1.242 . S
O93 Eu80 2.418 . S
O93 C97 1.244 . S
O94 Eu81 2.488 . S
O94 C110 1.249 . S
O95 Eu81 2.471 . S
O95 C110 1.244 . S
O96 Eu81 2.349 . S
O96 C97 1.265 . S
C97 O93 1.244 . S
C97 O96 1.265 . S
O98 Eu80 2.373 . S
O98 C111 1.258 . S
O99 Eu81 2.392 . S
O99 C111 1.242 . S
O100 Eu81 2.418 . S
O100 C82 1.244 . S
O101 Eu80 2.488 . S
O101 C89 1.249 . S
O102 Eu80 2.471 . S
O102 C89 1.244 . S
O103 Eu80 2.349 . S
O103 C82 1.265 . S
C104 C105 1.379 . S
C104 C108 1.373 . S
C104 C110 1.505 . S
C105 C104 1.379 . S
C105 C107 1.369 . S
C105 H116 0.930 . S
C106 C108 1.383 . S
C106 C109 1.382 . S
C106 H117 0.930 . S
C107 C105 1.369 . S
C107 C109 1.392 . S
C107 H118 0.930 . S
C108 C104 1.373 . S
C108 C106 1.383 . S
C108 H119 0.931 . S
C109 C106 1.382 . S
C109 C107 1.392 . S
C110 Eu81 2.828 . S
C110 O94 1.249 . S
C110 O95 1.244 . S
C110 C104 1.505 . S
C111 O98 1.258 . S
C111 O99 1.242 . S
H112 C84 0.930 . S
H113 C85 0.930 . S
H114 C86 0.930 . S
H115 C87 0.931 . S
H116 C105 0.930 . S
H117 C106 0.930 . S
H118 C107 0.930 . S
H119 C108 0.931 . S
C120 C121 1.391 . S
C120 C124 1.391 . S
C120 H162 0.948 . S
C121 C120 1.391 . S
C121 C122 1.391 . S
C122 C121 1.391 . S
C122 H178 0.947 . S
C122 C179 1.392 . S
C123 C124 1.391 . S
C123 C127 1.397 . S
C123 C179 1.419 . S
C124 C120 1.391 . S
C124 C123 1.391 . S
C124 C125 1.399 . S
C125 C124 1.399 . S
C125 C128 1.396 . S
C125 C137 1.453 . S
C125 C138 1.684 . S
H126 C150 0.948 . S
C127 C123 1.397 . S
C127 C128 1.394 . S
C127 C146 1.723 . S
C128 C125 1.396 . S
C128 C127 1.394 . S
C128 C158 1.723 1_545 S
H129 C152 0.947 . S
H130 C153 0.948 . S
H131 C159 0.982 . S
H132 C160 0.979 . S
H133 C160 0.980 . S
H134 C160 0.983 . S
H135 C159 0.979 . S
H136 C159 0.977 . S
C137 C125 1.453 . S
C137 H166 0.982 . S
C137 H167 0.979 . S
C137 H168 0.977 . S
C138 C125 1.684 . S
C138 H163 0.979 . S
C138 H164 0.980 . S
C138 H165 0.983 . S
C139 C140 1.391 . S
C139 C144 1.391 . S
C139 H169 0.948 . S
C140 C139 1.391 . S
C140 C141 1.391 1_545 S
C141 C140 1.391 1_565 S
C141 C142 1.392 . S
C141 H170 0.947 . S
C142 C141 1.392 . S
C142 C143 1.419 1_565 S
C142 H171 0.948 . S
C143 C142 1.419 1_545 S
C143 C144 1.391 . S
C143 C147 1.397 . S
C144 C139 1.391 . S
C144 C143 1.391 . S
C144 C145 1.399 . S
C145 C144 1.399 . S
C145 C146 1.396 . S
C145 C148 1.453 . S
C145 C149 1.684 . S
C146 C127 1.723 . S
C146 C145 1.396 . S
C146 C147 1.394 . S
C147 C143 1.397 . S
C147 C146 1.394 . S
C147 C157 1.723 1_545 S
C148 C145 1.453 . S
C148 H172 0.982 . S
C148 H173 0.979 . S
C148 H174 0.977 . S
C149 C145 1.684 . S
C149 H175 0.979 . S
C149 H176 0.980 . S
C149 H177 0.983 . S
C150 H126 0.948 . S
C150 C151 1.391 . S
C150 C155 1.391 . S
C151 C150 1.391 . S
C151 C152 1.391 . S
C152 H129 0.947 . S
C152 C151 1.391 . S
C152 C153 1.392 . S
C153 H130 0.948 . S
C153 C152 1.392 . S
C153 C154 1.419 . S
C154 C153 1.419 . S
C154 C155 1.391 . S
C154 C158 1.397 . S
C155 C150 1.391 . S
C155 C154 1.391 . S
C155 C156 1.399 . S
C156 C155 1.399 . S
C156 C157 1.396 . S
C156 C159 1.453 . S
C156 C160 1.684 . S
C157 C147 1.723 1_565 S
C157 C156 1.396 . S
C157 C158 1.394 . S
C158 C128 1.723 1_565 S
C158 C154 1.397 . S
C158 C157 1.394 . S
C159 H131 0.982 . S
C159 H135 0.979 . S
C159 H136 0.977 . S
C159 C156 1.453 . S
C160 H132 0.979 . S
C160 H133 0.980 . S
C160 H134 0.983 . S
C160 C156 1.684 . S
H161 C179 0.948 . S
H162 C120 0.948 . S
H163 C138 0.979 . S
H164 C138 0.980 . S
H165 C138 0.983 . S
H166 C137 0.982 . S
H167 C137 0.979 . S
H168 C137 0.977 . S
H169 C139 0.948 . S
H170 C141 0.947 . S
H171 C142 0.948 . S
H172 C148 0.982 . S
H173 C148 0.979 . S
H174 C148 0.977 . S
H175 C149 0.979 . S
H176 C149 0.980 . S
H177 C149 0.983 . S
H178 C122 0.947 . S
C179 C122 1.392 . S
C179 C123 1.419 . S
C179 H161 0.948 . S
C180 C181 1.391 . S
C180 C184 1.391 . S
C180 H222 0.948 . S
C181 C180 1.391 . S
C181 C182 1.391 . S
C182 C181 1.391 . S
C182 H238 0.947 . S
C182 C239 1.392 . S
C183 C184 1.391 . S
C183 C187 1.397 . S
C183 C239 1.419 . S
C184 C180 1.391 . S
C184 C183 1.391 . S
C184 C185 1.399 . S
C185 C184 1.399 . S
C185 C188 1.396 . S
C185 C197 1.453 . S
C185 C198 1.684 . S
H186 C210 0.948 . S
C187 C183 1.397 . S
C187 C188 1.394 . S
C187 C206 1.723 . S
C188 C185 1.396 . S
C188 C187 1.394 . S
C188 C218 1.723 . S
H189 C212 0.947 . S
H190 C213 0.948 . S
H191 C219 0.982 . S
H192 C220 0.979 . S
H193 C220 0.980 . S
H194 C220 0.983 . S
H195 C219 0.979 . S
H196 C219 0.977 . S
C197 C185 1.453 . S
C197 H226 0.982 . S
C197 H227 0.979 . S
C197 H228 0.977 . S
C198 C185 1.684 . S
C198 H223 0.979 . S
C198 H224 0.980 . S
C198 H225 0.983 . S
C199 C200 1.391 . S
C199 C204 1.391 . S
C199 H229 0.948 . S
C200 C199 1.391 . S
C200 C201 1.391 . S
C201 C200 1.391 . S
C201 C202 1.392 . S
C201 H230 0.947 . S
C202 C201 1.392 . S
C202 C203 1.419 . S
C202 H231 0.948 . S
C203 C202 1.419 . S
C203 C204 1.391 . S
C203 C207 1.397 . S
C204 C199 1.391 . S
C204 C203 1.391 . S
C204 C205 1.399 . S
C205 C204 1.399 . S
C205 C206 1.396 . S
C205 C208 1.453 . S
C205 C209 1.684 . S
C206 C187 1.723 . S
C206 C205 1.396 . S
C206 C207 1.394 . S
C207 C203 1.397 . S
C207 C206 1.394 . S
C207 C217 1.723 . S
C208 C205 1.453 . S
C208 H232 0.982 . S
C208 H233 0.979 . S
C208 H234 0.977 . S
C209 C205 1.684 . S
C209 H235 0.979 . S
C209 H236 0.980 . S
C209 H237 0.983 . S
C210 H186 0.948 . S
C210 C211 1.391 . S
C210 C215 1.391 . S
C211 C210 1.391 . S
C211 C212 1.391 . S
C212 H189 0.947 . S
C212 C211 1.391 . S
C212 C213 1.392 . S
C213 H190 0.948 . S
C213 C212 1.392 . S
C213 C214 1.419 . S
C214 C213 1.419 . S
C214 C215 1.391 . S
C214 C218 1.397 . S
C215 C210 1.391 . S
C215 C214 1.391 . S
C215 C216 1.399 . S
C216 C215 1.399 . S
C216 C217 1.396 . S
C216 C219 1.453 . S
C216 C220 1.684 . S
C217 C207 1.723 . S
C217 C216 1.396 . S
C217 C218 1.394 . S
C218 C188 1.723 . S
C218 C214 1.397 . S
C218 C217 1.394 . S
C219 H191 0.982 . S
C219 H195 0.979 . S
C219 H196 0.977 . S
C219 C216 1.453 . S
C220 H192 0.979 . S
C220 H193 0.980 . S
C220 H194 0.983 . S
C220 C216 1.684 . S
H221 C239 0.948 . S
H222 C180 0.948 . S
H223 C198 0.979 . S
H224 C198 0.980 . S
H225 C198 0.983 . S
H226 C197 0.982 . S
H227 C197 0.979 . S
H228 C197 0.977 . S
H229 C199 0.948 . S
H230 C201 0.947 . S
H231 C202 0.948 . S
H232 C208 0.982 . S
H233 C208 0.979 . S
H234 C208 0.977 . S
H235 C209 0.979 . S
H236 C209 0.980 . S
H237 C209 0.983 . S
H238 C182 0.947 . S
C239 C182 1.392 . S
C239 C183 1.419 . S
C239 H221 0.948 . S
C240 C241 1.391 . S
C240 C244 1.391 . S
C240 H282 0.948 . S
C241 C240 1.391 . S
C241 C242 1.391 . S
C242 C241 1.391 . S
C242 H298 0.947 . S
C242 C299 1.392 . S
C243 C244 1.391 . S
C243 C247 1.397 . S
C243 C299 1.419 . S
C244 C240 1.391 . S
C244 C243 1.391 . S
C244 C245 1.399 . S
C245 C244 1.399 . S
C245 C248 1.396 . S
C245 C257 1.453 . S
C245 C258 1.684 . S
H246 C270 0.948 . S
C247 C243 1.397 . S
C247 C248 1.394 . S
C247 C266 1.723 . S
C248 C245 1.396 . S
C248 C247 1.394 . S
C248 C278 1.723 . S
H249 C272 0.947 . S
H250 C273 0.948 1_455 S
H251 C279 0.982 . S
H252 C280 0.979 . S
H253 C280 0.980 . S
H254 C280 0.983 . S
H255 C279 0.979 . S
H256 C279 0.977 . S
C257 C245 1.453 . S
C257 H286 0.982 . S
C257 H287 0.979 . S
C257 H288 0.977 . S
C258 C245 1.684 . S
C258 H283 0.979 . S
C258 H284 0.980 . S
C258 H285 0.983 . S
C259 C260 1.391 . S
C259 C264 1.391 . S
C259 H289 0.948 . S
C260 C259 1.391 . S
C260 C261 1.390 . S
C261 C260 1.390 . S
C261 C262 1.392 1_455 S
C261 H290 0.948 1_455 S
C262 C261 1.392 1_655 S
C262 C263 1.419 1_655 S
C262 H291 0.948 . S
C263 C262 1.419 1_455 S
C263 C264 1.391 . S
C263 C267 1.397 . S
C264 C259 1.391 . S
C264 C263 1.391 . S
C264 C265 1.399 . S
C265 C264 1.399 . S
C265 C266 1.396 . S
C265 C268 1.453 . S
C265 C269 1.684 . S
C266 C247 1.723 . S
C266 C265 1.396 . S
C266 C267 1.394 . S
C267 C263 1.397 . S
C267 C266 1.394 . S
C267 C277 1.723 1_455 S
C268 C265 1.453 . S
C268 H292 0.982 . S
C268 H293 0.979 . S
C268 H294 0.977 . S
C269 C265 1.684 . S
C269 H295 0.979 . S
C269 H296 0.980 . S
C269 H297 0.983 . S
C270 H246 0.948 . S
C270 C271 1.391 . S
C270 C275 1.391 . S
C271 C270 1.391 . S
C271 C272 1.391 . S
C272 H249 0.947 . S
C272 C271 1.391 . S
C272 C273 1.392 . S
C273 H250 0.948 1_655 S
C273 C272 1.392 . S
C273 C274 1.419 . S
C274 C273 1.419 . S
C274 C275 1.391 . S
C274 C278 1.397 1_655 S
C275 C270 1.391 . S
C275 C274 1.391 . S
C275 C276 1.399 . S
C276 C275 1.399 . S
C276 C277 1.396 . S
C276 C279 1.453 . S
C276 C280 1.684 . S
C277 C267 1.723 1_655 S
C277 C276 1.396 . S
C277 C278 1.394 1_655 S
C278 C248 1.723 . S
C278 C274 1.397 1_455 S
C278 C277 1.394 1_455 S
C279 H251 0.982 . S
C279 H255 0.979 . S
C279 H256 0.977 . S
C279 C276 1.453 . S
C280 H252 0.979 . S
C280 H253 0.980 . S
C280 H254 0.983 . S
C280 C276 1.684 . S
H281 C299 0.948 . S
H282 C240 0.948 . S
H283 C258 0.979 . S
H284 C258 0.980 . S
H285 C258 0.983 . S
H286 C257 0.982 . S
H287 C257 0.979 . S
H288 C257 0.977 . S
H289 C259 0.948 . S
H290 C261 0.948 1_655 S
H291 C262 0.948 . S
H292 C268 0.982 . S
H293 C268 0.979 . S
H294 C268 0.977 . S
H295 C269 0.979 . S
H296 C269 0.980 . S
H297 C269 0.983 . S
H298 C242 0.947 . S
C299 C242 1.392 . S
C299 C243 1.419 . S
C299 H281 0.948 . S
C300 C301 1.391 . S
C300 C304 1.391 . S
C300 H342 0.948 . S
C301 C300 1.391 . S
C301 C302 1.391 . S
C302 C301 1.391 . S
C302 H358 0.947 . S
C302 C359 1.392 . S
C303 C304 1.391 . S
C303 C307 1.397 . S
C303 C359 1.419 . S
C304 C300 1.391 . S
C304 C303 1.391 . S
C304 C305 1.399 . S
C305 C304 1.399 . S
C305 C308 1.396 1_655 S
C305 C317 1.453 1_655 S
C305 C318 1.684 . S
H306 C330 0.948 . S
C307 C303 1.397 . S
C307 C308 1.394 1_655 S
C307 C326 1.723 . S
C308 C305 1.396 1_455 S
C308 C307 1.394 1_455 S
C308 C338 1.723 . S
H309 C332 0.947 . S
H310 C333 0.948 . S
H311 C339 0.982 . S
H312 C340 0.979 . S
H313 C340 0.980 . S
H314 C340 0.983 . S
H315 C339 0.979 . S
H316 C339 0.977 . S
C317 C305 1.453 1_455 S
C317 H346 0.982 . S
C317 H347 0.979 . S
C317 H348 0.977 . S
C318 C305 1.684 . S
C318 H343 0.979 . S
C318 H344 0.980 1_655 S
C318 H345 0.983 . S
C319 C320 1.391 1_655 S
C319 C324 1.391 . S
C319 H349 0.948 . S
C320 C319 1.391 1_455 S
C320 C321 1.391 . S
C321 C320 1.391 . S
C321 C322 1.392 . S
C321 H350 0.947 . S
C322 C321 1.392 . S
C322 C323 1.419 . S
C322 H351 0.948 . S
C323 C322 1.419 . S
C323 C324 1.391 1_455 S
C323 C327 1.397 . S
C324 C319 1.391 . S
C324 C323 1.391 1_655 S
C324 C325 1.399 . S
C325 C324 1.399 . S
C325 C326 1.396 . S
C325 C328 1.453 . S
C325 C329 1.684 . S
C326 C307 1.723 . S
C326 C325 1.396 . S
C326 C327 1.394 1_655 S
C327 C323 1.397 . S
C327 C326 1.394 1_455 S
C327 C337 1.723 . S
C328 C325 1.453 . S
C328 H352 0.982 . S
C328 H353 0.979 . S
C328 H354 0.977 . S
C329 C325 1.684 . S
C329 H355 0.979 . S
C329 H356 0.980 . S
C329 H357 0.983 . S
C330 H306 0.948 . S
C330 C331 1.391 . S
C330 C335 1.391 . S
C331 C330 1.391 . S
C331 C332 1.391 . S
C332 H309 0.947 . S
C332 C331 1.391 . S
C332 C333 1.392 . S
C333 H310 0.948 . S
C333 C332 1.392 . S
C333 C334 1.419 . S
C334 C333 1.419 . S
C334 C335 1.391 . S
C334 C338 1.397 . S
C335 C330 1.391 . S
C335 C334 1.391 . S
C335 C336 1.399 . S
C336 C335 1.399 . S
C336 C337 1.396 . S
C336 C339 1.453 . S
C336 C340 1.684 . S
C337 C327 1.723 . S
C337 C336 1.396 . S
C337 C338 1.394 . S
C338 C308 1.723 . S
C338 C334 1.397 . S
C338 C337 1.394 . S
C339 H311 0.982 . S
C339 H315 0.979 . S
C339 H316 0.977 . S
C339 C336 1.453 . S
C340 H312 0.979 . S
C340 H313 0.980 . S
C340 H314 0.983 . S
C340 C336 1.684 . S
H341 C359 0.948 . S
H342 C300 0.948 . S
H343 C318 0.979 . S
H344 C318 0.980 1_455 S
H345 C318 0.983 . S
H346 C317 0.982 . S
H347 C317 0.979 . S
H348 C317 0.977 . S
H349 C319 0.948 . S
H350 C321 0.947 . S
H351 C322 0.948 . S
H352 C328 0.982 . S
H353 C328 0.979 . S
H354 C328 0.977 . S
H355 C329 0.979 . S
H356 C329 0.980 . S
H357 C329 0.983 . S
H358 C302 0.947 . S
C359 C302 1.392 . S
C359 C303 1.419 . S
C359 H341 0.948 . S
C360 C361 1.391 . S
C360 C364 1.391 . S
C360 H402 0.948 . S
C361 C360 1.391 . S
C361 C362 1.391 . S
C362 C361 1.391 . S
C362 H418 0.947 . S
C362 C419 1.392 . S
C363 C364 1.391 . S
C363 C367 1.397 . S
C363 C419 1.419 . S
C364 C360 1.391 . S
C364 C363 1.391 . S
C364 C365 1.399 . S
C365 C364 1.399 . S
C365 C368 1.396 1_565 S
C365 C377 1.453 1_565 S
C365 C378 1.684 . S
H366 C390 0.948 . S
C367 C363 1.397 . S
C367 C368 1.394 1_565 S
C367 C386 1.723 . S
C368 C365 1.396 1_545 S
C368 C367 1.394 1_545 S
C368 C398 1.723 . S
H369 C392 0.947 . S
H370 C393 0.948 . S
H371 C399 0.982 . S
H372 C400 0.979 . S
H373 C400 0.980 . S
H374 C400 0.983 . S
H375 C399 0.979 . S
H376 C399 0.977 . S
C377 C365 1.453 1_545 S
C377 H406 0.982 . S
C377 H407 0.964 1_545 S
C377 H408 0.977 . S
C378 C365 1.684 . S
C378 H403 0.979 . S
C378 H404 0.980 1_565 S
C378 H405 0.983 . S
C379 C380 1.391 1_565 S
C379 C384 1.391 . S
C379 H409 0.948 . S
C380 C379 1.391 1_545 S
C380 C381 1.391 . S
C381 C380 1.391 . S
C381 C382 1.392 . S
C381 H410 0.947 . S
C382 C381 1.392 . S
C382 C383 1.419 . S
C382 H411 0.948 . S
C383 C382 1.419 . S
C383 C384 1.391 1_545 S
C383 C387 1.397 . S
C384 C379 1.391 . S
C384 C383 1.391 1_565 S
C384 C385 1.399 . S
C385 C384 1.399 . S
C385 C386 1.396 . S
C385 C388 1.453 . S
C385 C389 1.684 . S
C386 C367 1.723 . S
C386 C385 1.396 . S
C386 C387 1.394 1_565 S
C387 C383 1.397 . S
C387 C386 1.394 1_545 S
C387 C397 1.723 . S
C388 C385 1.453 . S
C388 H412 0.982 . S
C388 H413 0.979 . S
C388 H414 0.977 . S
C389 C385 1.684 . S
C389 H415 0.979 . S
C389 H416 0.980 . S
C389 H417 0.983 . S
C390 H366 0.948 . S
C390 C391 1.391 . S
C390 C395 1.391 . S
C391 C390 1.391 . S
C391 C392 1.391 . S
C392 H369 0.947 . S
C392 C391 1.391 . S
C392 C393 1.392 . S
C393 H370 0.948 . S
C393 C392 1.392 . S
C393 C394 1.419 . S
C394 C393 1.419 . S
C394 C395 1.391 . S
C394 C398 1.397 . S
C395 C390 1.391 . S
C395 C394 1.391 . S
C395 C396 1.399 . S
C396 C395 1.399 . S
C396 C397 1.396 . S
C396 C399 1.453 . S
C396 C400 1.684 . S
C397 C387 1.723 . S
C397 C396 1.396 . S
C397 C398 1.394 . S
C398 C368 1.723 . S
C398 C394 1.397 . S
C398 C397 1.394 . S
C399 H371 0.982 . S
C399 H375 0.979 . S
C399 H376 0.977 . S
C399 C396 1.453 . S
C400 H372 0.979 . S
C400 H373 0.980 . S
C400 H374 0.983 . S
C400 C396 1.684 . S
H401 C419 0.948 . S
H402 C360 0.948 . S
H403 C378 0.979 . S
H404 C378 0.980 1_545 S
H405 C378 0.983 . S
H406 C377 0.982 . S
H407 C377 0.964 1_565 S
H408 C377 0.977 . S
H409 C379 0.948 . S
H410 C381 0.947 . S
H411 C382 0.948 . S
H412 C388 0.982 . S
H413 C388 0.979 . S
H414 C388 0.977 . S
H415 C389 0.979 . S
H416 C389 0.980 . S
H417 C389 0.983 . S
H418 C362 0.947 . S
C419 C362 1.392 . S
C419 C363 1.419 . S
C419 H401 0.948 . S
C420 C421 1.391 . S
C420 C424 1.391 . S
C420 H462 0.948 . S
C421 C420 1.391 . S
C421 C422 1.391 . S
C422 C421 1.391 . S
C422 H478 0.947 . S
C422 C479 1.392 . S
C423 C424 1.391 . S
C423 C427 1.397 . S
C423 C479 1.419 . S
C424 C420 1.391 . S
C424 C423 1.391 . S
C424 C425 1.399 . S
C425 C424 1.399 . S
C425 C428 1.396 . S
C425 C437 1.453 . S
C425 C438 1.684 . S
H426 C450 0.948 . S
C427 C423 1.397 . S
C427 C428 1.394 . S
C427 C446 1.723 . S
C428 C425 1.396 . S
C428 C427 1.394 . S
C428 C458 1.723 . S
H429 C452 0.947 . S
H430 C453 0.948 . S
H431 C459 0.982 . S
H432 C460 0.979 . S
H433 C460 0.980 . S
H434 C460 0.983 . S
H435 C459 0.979 . S
H436 C459 0.977 . S
C437 C425 1.453 . S
C437 H466 0.982 . S
C437 H467 0.979 . S
C437 H468 0.977 . S
C438 C425 1.684 . S
C438 H463 0.979 . S
C438 H464 0.980 . S
C438 H465 0.983 . S
C439 C440 1.391 . S
C439 C444 1.391 . S
C439 H469 0.948 . S
C440 C439 1.391 . S
C440 C441 1.391 . S
C441 C440 1.391 . S
C441 C442 1.392 . S
C441 H470 0.947 . S
C442 C441 1.392 . S
C442 C443 1.419 . S
C442 H471 0.948 . S
C443 C442 1.419 . S
C443 C444 1.391 . S
C443 C447 1.397 . S
C444 C439 1.391 . S
C444 C443 1.391 . S
C444 C445 1.399 . S
C445 C444 1.399 . S
C445 C446 1.396 . S
C445 C448 1.453 . S
C445 C449 1.684 . S
C446 C427 1.723 . S
C446 C445 1.396 . S
C446 C447 1.394 . S
C447 C443 1.397 . S
C447 C446 1.394 . S
C447 C457 1.723 . S
C448 C445 1.453 . S
C448 H472 0.982 . S
C448 H473 0.979 . S
C448 H474 0.977 . S
C449 C445 1.684 . S
C449 H475 0.979 . S
C449 H476 0.980 . S
C449 H477 0.983 . S
C450 H426 0.948 . S
C450 C451 1.391 . S
C450 C455 1.391 . S
C451 C450 1.391 . S
C451 C452 1.391 . S
C452 H429 0.947 . S
C452 C451 1.391 . S
C452 C453 1.392 . S
C453 H430 0.948 . S
C453 C452 1.392 . S
C453 C454 1.419 . S
C454 C453 1.419 . S
C454 C455 1.391 . S
C454 C458 1.397 . S
C455 C450 1.391 . S
C455 C454 1.391 . S
C455 C456 1.399 . S
C456 C455 1.399 . S
C456 C457 1.396 . S
C456 C459 1.453 . S
C456 C460 1.684 . S
C457 C447 1.723 . S
C457 C456 1.396 . S
C457 C458 1.394 . S
C458 C428 1.723 . S
C458 C454 1.397 . S
C458 C457 1.394 . S
C459 H431 0.982 . S
C459 H435 0.979 . S
C459 H436 0.977 . S
C459 C456 1.453 . S
C460 H432 0.979 . S
C460 H433 0.980 . S
C460 H434 0.983 . S
C460 C456 1.684 . S
H461 C479 0.948 . S
H462 C420 0.948 . S
H463 C438 0.979 . S
H464 C438 0.980 . S
H465 C438 0.983 . S
H466 C437 0.982 . S
H467 C437 0.979 . S
H468 C437 0.977 . S
H469 C439 0.948 . S
H470 C441 0.947 . S
H471 C442 0.948 . S
H472 C448 0.982 . S
H473 C448 0.979 . S
H474 C448 0.977 . S
H475 C449 0.979 . S
H476 C449 0.980 . S
H477 C449 0.983 . S
H478 C422 0.947 . S
C479 C422 1.392 . S
C479 C423 1.419 . S
C479 H461 0.948 . S
H480 C492 0.930 . S
H481 C494 0.930 . S
H482 C495 0.930 . S
H483 C499 0.959 . S
H484 C499 0.959 . S
H485 C499 0.961 . S
H486 C500 0.960 . S
H487 C500 0.961 . S
H488 C500 0.959 . S
H489 C503 0.929 . S
H490 C504 0.931 . S
H491 C506 0.930 . S
C492 H480 0.930 . S
C492 C493 1.399 . S
C492 C497 1.399 . S
C493 C492 1.399 . S
C493 C494 1.376 . S
C494 H481 0.930 . S
C494 C493 1.376 . S
C494 C495 1.388 . S
C495 H482 0.930 . S
C495 C494 1.388 . S
C495 C496 1.390 . S
C496 C495 1.390 . S
C496 C497 1.394 . S
C496 C502 1.465 . S
C497 C492 1.399 . S
C497 C496 1.394 . S
C497 C498 1.516 . S
C498 C497 1.516 . S
C498 C499 1.502 . S
C498 C500 1.561 . S
C498 C501 1.526 . S
C499 H483 0.959 . S
C499 H484 0.959 . S
C499 H485 0.961 . S
C499 C498 1.502 . S
C500 H486 0.960 . S
C500 H487 0.961 . S
C500 H488 0.959 . S
C500 C498 1.561 . S
C501 C498 1.526 . S
C501 C502 1.396 . S
C501 C506 1.390 . S
C502 C496 1.465 . S
C502 C501 1.396 . S
C502 C503 1.399 . S
C503 H489 0.929 . S
C503 C502 1.399 . S
C503 C504 1.385 . S
C504 H490 0.931 . S
C504 C503 1.385 . S
C504 C505 1.389 . S
C505 C504 1.389 . S
C505 C506 1.387 . S
C506 H491 0.930 . S
C506 C501 1.390 . S
C506 C505 1.387 . S
H507 C519 0.930 . S
H508 C521 0.930 . S
H509 C522 0.930 . S
H510 C526 0.959 . S
H511 C526 0.959 . S
H512 C526 0.961 . S
H513 C527 0.960 . S
H514 C527 0.961 . S
H515 C527 0.959 . S
H516 C530 0.929 . S
H517 C531 0.931 . S
H518 C533 0.930 . S
C519 H507 0.930 . S
C519 C520 1.399 . S
C519 C524 1.399 . S
C520 C519 1.399 . S
C520 C521 1.376 . S
C521 H508 0.930 . S
C521 C520 1.376 . S
C521 C522 1.388 . S
C522 H509 0.930 . S
C522 C521 1.388 . S
C522 C523 1.390 . S
C523 C522 1.390 . S
C523 C524 1.394 . S
C523 C529 1.465 . S
C524 C519 1.399 . S
C524 C523 1.394 . S
C524 C525 1.516 . S
C525 C524 1.516 . S
C525 C526 1.502 . S
C525 C527 1.561 . S
C525 C528 1.526 . S
C526 H510 0.959 . S
C526 H511 0.959 . S
C526 H512 0.961 . S
C526 C525 1.502 . S
C527 H513 0.960 . S
C527 H514 0.961 . S
C527 H515 0.959 . S
C527 C525 1.561 . S
C528 C525 1.526 . S
C528 C529 1.396 . S
C528 C533 1.390 . S
C529 C523 1.465 . S
C529 C528 1.396 . S
C529 C530 1.399 . S
C530 H516 0.929 . S
C530 C529 1.399 . S
C530 C531 1.385 . S
C531 H517 0.931 . S
C531 C530 1.385 . S
C531 C532 1.389 . S
C532 C531 1.389 . S
C532 C533 1.387 . S
C533 H518 0.930 . S
C533 C528 1.390 . S
C533 C532 1.387 . S
H534 C546 0.930 . S
H535 C548 0.930 . S
H536 C549 0.930 . S
H537 C553 0.959 . S
H538 C553 0.959 . S
H539 C553 0.961 . S
H540 C554 0.960 . S
H541 C554 0.961 . S
H542 C554 0.959 . S
H543 C557 0.929 . S
H544 C558 0.931 . S
H545 C560 0.930 . S
C546 H534 0.930 . S
C546 C547 1.399 . S
C546 C551 1.399 . S
C547 C546 1.399 . S
C547 C548 1.376 . S
C548 H535 0.930 . S
C548 C547 1.376 . S
C548 C549 1.388 . S
C549 H536 0.930 . S
C549 C548 1.388 . S
C549 C550 1.390 . S
C550 C549 1.390 . S
C550 C551 1.394 . S
C550 C556 1.465 . S
C551 C546 1.399 . S
C551 C550 1.394 . S
C551 C552 1.516 . S
C552 C551 1.516 . S
C552 C553 1.502 . S
C552 C554 1.561 . S
C552 C555 1.526 . S
C553 H537 0.959 . S
C553 H538 0.959 . S
C553 H539 0.961 . S
C553 C552 1.502 . S
C554 H540 0.960 . S
C554 H541 0.961 . S
C554 H542 0.959 . S
C554 C552 1.561 . S
C555 C552 1.526 . S
C555 C556 1.396 . S
C555 C560 1.390 . S
C556 C550 1.465 . S
C556 C555 1.396 . S
C556 C557 1.399 . S
C557 H543 0.929 . S
C557 C556 1.399 . S
C557 C558 1.385 . S
C558 H544 0.931 . S
C558 C557 1.385 . S
C558 C559 1.389 . S
C559 C558 1.389 . S
C559 C560 1.387 . S
C560 H545 0.930 . S
C560 C555 1.390 . S
C560 C559 1.387 . S
H561 C573 0.930 . S
H562 C575 0.930 . S
H563 C576 0.930 . S
H564 C580 0.959 . S
H565 C580 0.959 . S
H566 C580 0.961 . S
H567 C581 0.960 . S
H568 C581 0.961 . S
H569 C581 0.959 . S
H570 C584 0.929 . S
H571 C585 0.931 . S
H572 C587 0.930 . S
C573 H561 0.930 . S
C573 C574 1.399 . S
C573 C578 1.399 . S
C574 C573 1.399 . S
C574 C575 1.376 . S
C575 H562 0.930 . S
C575 C574 1.376 . S
C575 C576 1.388 . S
C576 H563 0.930 . S
C576 C575 1.388 . S
C576 C577 1.390 . S
C577 C576 1.390 . S
C577 C578 1.394 . S
C577 C583 1.465 . S
C578 C573 1.399 . S
C578 C577 1.394 . S
C578 C579 1.516 . S
C579 C578 1.516 . S
C579 C580 1.502 . S
C579 C581 1.561 . S
C579 C582 1.526 . S
C580 H564 0.959 . S
C580 H565 0.959 . S
C580 H566 0.961 . S
C580 C579 1.502 . S
C581 H567 0.960 . S
C581 H568 0.961 . S
C581 H569 0.959 . S
C581 C579 1.561 . S
C582 C579 1.526 . S
C582 C583 1.396 . S
C582 C587 1.390 . S
C583 C577 1.465 . S
C583 C582 1.396 . S
C583 C584 1.399 . S
C584 H570 0.929 . S
C584 C583 1.399 . S
C584 C585 1.385 . S
C585 H571 0.931 . S
C585 C584 1.385 . S
C585 C586 1.389 . S
C586 C585 1.389 . S
C586 C587 1.387 . S
C587 H572 0.930 . S
C587 C582 1.390 . S
C587 C586 1.387 . S
H588 C600 0.930 . S
H589 C602 0.930 . S
H590 C603 0.930 . S
H591 C607 0.959 . S
H592 C607 0.959 . S
H593 C607 0.961 . S
H594 C608 0.960 . S
H595 C608 0.961 . S
H596 C608 0.959 . S
H597 C611 0.929 . S
H598 C612 0.931 . S
H599 C614 0.930 . S
C600 H588 0.930 . S
C600 C601 1.399 . S
C600 C605 1.399 . S
C601 C600 1.399 . S
C601 C602 1.376 . S
C602 H589 0.930 . S
C602 C601 1.376 . S
C602 C603 1.388 . S
C603 H590 0.930 . S
C603 C602 1.388 . S
C603 C604 1.390 . S
C604 C603 1.390 . S
C604 C605 1.394 . S
C604 C610 1.465 . S
C605 C600 1.399 . S
C605 C604 1.394 . S
C605 C606 1.516 . S
C606 C605 1.516 . S
C606 C607 1.502 . S
C606 C608 1.561 . S
C606 C609 1.526 . S
C607 H591 0.959 . S
C607 H592 0.959 . S
C607 H593 0.961 . S
C607 C606 1.502 . S
C608 H594 0.960 . S
C608 H595 0.961 . S
C608 H596 0.959 . S
C608 C606 1.561 . S
C609 C606 1.526 . S
C609 C610 1.396 . S
C609 C614 1.390 . S
C610 C604 1.465 . S
C610 C609 1.396 . S
C610 C611 1.399 . S
C611 H597 0.929 . S
C611 C610 1.399 . S
C611 C612 1.385 . S
C612 H598 0.931 . S
C612 C611 1.385 . S
C612 C613 1.389 . S
C613 C612 1.389 . S
C613 C614 1.387 . S
C614 H599 0.930 . S
C614 C609 1.390 . S
C614 C613 1.387 . S
H615 C627 0.930 . S
H616 C629 0.930 . S
H617 C630 0.930 . S
H618 C634 0.959 . S
H619 C634 0.959 . S
H620 C634 0.961 . S
H621 C635 0.960 . S
H622 C635 0.961 . S
H623 C635 0.959 . S
H624 C638 0.929 . S
H625 C639 0.931 . S
H626 C641 0.930 . S
C627 H615 0.930 . S
C627 C628 1.399 . S
C627 C632 1.399 . S
C628 C627 1.399 . S
C628 C629 1.376 . S
C629 H616 0.930 . S
C629 C628 1.376 . S
C629 C630 1.388 . S
C630 H617 0.930 . S
C630 C629 1.388 . S
C630 C631 1.390 . S
C631 C630 1.390 . S
C631 C632 1.394 . S
C631 C637 1.465 . S
C632 C627 1.399 . S
C632 C631 1.394 . S
C632 C633 1.516 . S
C633 C632 1.516 . S
C633 C634 1.502 . S
C633 C635 1.561 . S
C633 C636 1.526 . S
C634 H618 0.959 . S
C634 H619 0.959 . S
C634 H620 0.961 . S
C634 C633 1.502 . S
C635 H621 0.960 . S
C635 H622 0.961 . S
C635 H623 0.959 . S
C635 C633 1.561 . S
C636 C633 1.526 . S
C636 C637 1.396 . S
C636 C641 1.390 . S
C637 C631 1.465 . S
C637 C636 1.396 . S
C637 C638 1.399 . S
C638 H624 0.929 . S
C638 C637 1.399 . S
C638 C639 1.385 . S
C639 H625 0.931 . S
C639 C638 1.385 . S
C639 C640 1.389 . S
C640 C639 1.389 . S
C640 C641 1.387 . S
C641 H626 0.930 . S
C641 C636 1.390 . S
C641 C640 1.387 . S
H642 C654 0.930 . S
H643 C656 0.930 . S
H644 C657 0.930 . S
H645 C661 0.959 . S
H646 C661 0.959 . S
H647 C661 0.961 . S
H648 C662 0.960 . S
H649 C662 0.961 . S
H650 C662 0.959 . S
H651 C665 0.929 . S
H652 C666 0.931 . S
H653 C668 0.930 . S
C654 H642 0.930 . S
C654 C655 1.399 . S
C654 C659 1.399 . S
C655 C654 1.399 . S
C655 C656 1.376 . S
C656 H643 0.930 . S
C656 C655 1.376 . S
C656 C657 1.388 . S
C657 H644 0.930 . S
C657 C656 1.388 . S
C657 C658 1.390 . S
C658 C657 1.390 . S
C658 C659 1.394 . S
C658 C664 1.465 . S
C659 C654 1.399 . S
C659 C658 1.394 . S
C659 C660 1.516 . S
C660 C659 1.516 . S
C660 C661 1.502 . S
C660 C662 1.561 . S
C660 C663 1.526 . S
C661 H645 0.959 . S
C661 H646 0.959 . S
C661 H647 0.961 . S
C661 C660 1.502 . S
C662 H648 0.960 . S
C662 H649 0.961 . S
C662 H650 0.959 . S
C662 C660 1.561 . S
C663 C660 1.526 . S
C663 C664 1.396 . S
C663 C668 1.390 . S
C664 C658 1.465 . S
C664 C663 1.396 . S
C664 C665 1.399 . S
C665 H651 0.929 . S
C665 C664 1.399 . S
C665 C666 1.385 . S
C666 H652 0.931 . S
C666 C665 1.385 . S
C666 C667 1.389 . S
C667 C666 1.389 . S
C667 C668 1.387 . S
C668 H653 0.930 . S
C668 C663 1.390 . S
C668 C667 1.387 . S
H669 C681 0.930 . S
H670 C683 0.930 . S
H671 C684 0.930 . S
H672 C688 0.959 . S
H673 C688 0.959 . S
H674 C688 0.961 . S
H675 C689 0.960 . S
H676 C689 0.961 . S
H677 C689 0.959 . S
H678 C692 0.929 . S
H679 C693 0.931 . S
H680 C695 0.930 . S
C681 H669 0.930 . S
C681 C682 1.399 . S
C681 C686 1.399 . S
C682 C681 1.399 . S
C682 C683 1.376 . S
C683 H670 0.930 . S
C683 C682 1.376 . S
C683 C684 1.388 . S
C684 H671 0.930 . S
C684 C683 1.388 . S
C684 C685 1.390 . S
C685 C684 1.390 . S
C685 C686 1.394 . S
C685 C691 1.465 . S
C686 C681 1.399 . S
C686 C685 1.394 . S
C686 C687 1.516 . S
C687 C686 1.516 . S
C687 C688 1.502 . S
C687 C689 1.561 . S
C687 C690 1.526 . S
C688 H672 0.959 . S
C688 H673 0.959 . S
C688 H674 0.961 . S
C688 C687 1.502 . S
C689 H675 0.960 . S
C689 H676 0.961 . S
C689 H677 0.959 . S
C689 C687 1.561 . S
C690 C687 1.526 . S
C690 C691 1.396 . S
C690 C695 1.390 . S
C691 C685 1.465 . S
C691 C690 1.396 . S
C691 C692 1.399 . S
C692 H678 0.929 . S
C692 C691 1.399 . S
C692 C693 1.385 . S
C693 H679 0.931 . S
C693 C692 1.385 . S
C693 C694 1.389 . S
C694 C693 1.389 . S
C694 C695 1.387 . S
C695 H680 0.930 . S
C695 C690 1.390 . S
C695 C694 1.387 . S
H696 C708 0.930 . S
H697 C710 0.930 . S
H698 C711 0.930 . S
H699 C715 0.959 . S
H700 C715 0.959 . S
H701 C715 0.961 . S
H702 C716 0.960 . S
H703 C716 0.961 . S
H704 C716 0.959 . S
H705 C719 0.929 . S
H706 C720 0.931 . S
H707 C722 0.930 . S
C708 H696 0.930 . S
C708 C709 1.399 . S
C708 C713 1.399 . S
C709 C708 1.399 . S
C709 C710 1.376 . S
C710 H697 0.930 . S
C710 C709 1.376 . S
C710 C711 1.388 . S
C711 H698 0.930 . S
C711 C710 1.388 . S
C711 C712 1.390 . S
C712 C711 1.390 . S
C712 C713 1.394 . S
C712 C718 1.465 . S
C713 C708 1.399 . S
C713 C712 1.394 . S
C713 C714 1.516 . S
C714 C713 1.516 . S
C714 C715 1.502 . S
C714 C716 1.561 . S
C714 C717 1.526 . S
C715 H699 0.959 . S
C715 H700 0.959 . S
C715 H701 0.961 . S
C715 C714 1.502 . S
C716 H702 0.960 . S
C716 H703 0.961 . S
C716 H704 0.959 . S
C716 C714 1.561 . S
C717 C714 1.526 . S
C717 C718 1.396 . S
C717 C722 1.390 . S
C718 C712 1.465 . S
C718 C717 1.396 . S
C718 C719 1.399 . S
C719 H705 0.929 . S
C719 C718 1.399 . S
C719 C720 1.385 . S
C720 H706 0.931 . S
C720 C719 1.385 . S
C720 C721 1.389 . S
C721 C720 1.389 . S
C721 C722 1.387 . S
C722 H707 0.930 . S
C722 C717 1.390 . S
C722 C721 1.387 . S
H723 C735 0.930 . S
H724 C737 0.930 . S
H725 C738 0.930 . S
H726 C742 0.959 . S
H727 C742 0.959 . S
H728 C742 0.961 . S
H729 C743 0.960 . S
H730 C743 0.961 . S
H731 C743 0.959 . S
H732 C746 0.929 . S
H733 C747 0.931 . S
H734 C749 0.930 . S
C735 H723 0.930 . S
C735 C736 1.399 . S
C735 C740 1.399 . S
C736 C735 1.399 . S
C736 C737 1.376 . S
C737 H724 0.930 . S
C737 C736 1.376 . S
C737 C738 1.388 . S
C738 H725 0.930 . S
C738 C737 1.388 . S
C738 C739 1.390 . S
C739 C738 1.390 . S
C739 C740 1.394 . S
C739 C745 1.465 . S
C740 C735 1.399 . S
C740 C739 1.394 . S
C740 C741 1.516 . S
C741 C740 1.516 . S
C741 C742 1.502 . S
C741 C743 1.561 . S
C741 C744 1.526 . S
C742 H726 0.959 . S
C742 H727 0.959 . S
C742 H728 0.961 . S
C742 C741 1.502 . S
C743 H729 0.960 . S
C743 H730 0.961 . S
C743 H731 0.959 . S
C743 C741 1.561 . S
C744 C741 1.526 . S
C744 C745 1.396 . S
C744 C749 1.390 . S
C745 C739 1.465 . S
C745 C744 1.396 . S
C745 C746 1.399 . S
C746 H732 0.929 . S
C746 C745 1.399 . S
C746 C747 1.385 . S
C747 H733 0.931 . S
C747 C746 1.385 . S
C747 C748 1.389 . S
C748 C747 1.389 . S
C748 C749 1.387 . S
C749 H734 0.930 . S
C749 C744 1.390 . S
C749 C748 1.387 . S
H750 C762 0.930 . S
H751 C764 0.930 . S
H752 C765 0.930 . S
H753 C769 0.959 . S
H754 C769 0.959 . S
H755 C769 0.961 . S
H756 C770 0.960 . S
H757 C770 0.961 . S
H758 C770 0.959 . S
H759 C773 0.929 . S
H760 C774 0.931 . S
H761 C776 0.930 . S
C762 H750 0.930 . S
C762 C763 1.399 . S
C762 C767 1.399 . S
C763 C762 1.399 . S
C763 C764 1.376 . S
C764 H751 0.930 . S
C764 C763 1.376 . S
C764 C765 1.388 . S
C765 H752 0.930 . S
C765 C764 1.388 . S
C765 C766 1.390 . S
C766 C765 1.390 . S
C766 C767 1.394 . S
C766 C772 1.465 . S
C767 C762 1.399 . S
C767 C766 1.394 . S
C767 C768 1.516 . S
C768 C767 1.516 . S
C768 C769 1.502 . S
C768 C770 1.561 . S
C768 C771 1.526 . S
C769 H753 0.959 . S
C769 H754 0.959 . S
C769 H755 0.961 . S
C769 C768 1.502 . S
C770 H756 0.960 . S
C770 H757 0.961 . S
C770 H758 0.959 . S
C770 C768 1.561 . S
C771 C768 1.526 . S
C771 C772 1.396 . S
C771 C776 1.390 . S
C772 C766 1.465 . S
C772 C771 1.396 . S
C772 C773 1.399 . S
C773 H759 0.929 . S
C773 C772 1.399 . S
C773 C774 1.385 . S
C774 H760 0.931 . S
C774 C773 1.385 . S
C774 C775 1.389 . S
C775 C774 1.389 . S
C775 C776 1.387 . S
C776 H761 0.930 . S
C776 C771 1.390 . S
C776 C775 1.387 . S
H777 C789 0.930 . S
H778 C791 0.930 . S
H779 C792 0.930 . S
H780 C796 0.959 . S
H781 C796 0.959 . S
H782 C796 0.961 . S
H783 C797 0.960 . S
H784 C797 0.961 . S
H785 C797 0.959 . S
H786 C800 0.929 . S
H787 C801 0.931 . S
H788 C803 0.930 . S
C789 H777 0.930 . S
C789 C790 1.399 . S
C789 C794 1.399 . S
C790 C789 1.399 . S
C790 C791 1.376 . S
C791 H778 0.930 . S
C791 C790 1.376 . S
C791 C792 1.388 . S
C792 H779 0.930 . S
C792 C791 1.388 . S
C792 C793 1.390 . S
C793 C792 1.390 . S
C793 C794 1.394 . S
C793 C799 1.465 . S
C794 C789 1.399 . S
C794 C793 1.394 . S
C794 C795 1.516 . S
C795 C794 1.516 . S
C795 C796 1.502 . S
C795 C797 1.561 . S
C795 C798 1.526 . S
C796 H780 0.959 . S
C796 H781 0.959 . S
C796 H782 0.961 . S
C796 C795 1.502 . S
C797 H783 0.960 . S
C797 H784 0.961 . S
C797 H785 0.959 . S
C797 C795 1.561 . S
C798 C795 1.526 . S
C798 C799 1.396 . S
C798 C803 1.390 . S
C799 C793 1.465 . S
C799 C798 1.396 . S
C799 C800 1.399 . S
C800 H786 0.929 . S
C800 C799 1.399 . S
C800 C801 1.385 . S
C801 H787 0.931 . S
C801 C800 1.385 . S
C801 C802 1.389 . S
C802 C801 1.389 . S
C802 C803 1.387 . S
C803 H788 0.930 . S
C803 C798 1.390 . S
C803 C802 1.387 . S
H804 C816 0.930 . S
H805 C818 0.930 1_655 S
H806 C819 0.930 . S
H807 C823 0.959 1_655 S
H808 C823 0.959 . S
H809 C823 0.961 . S
H810 C824 0.960 . S
H811 C824 0.961 . S
H812 C824 0.959 . S
H813 C827 0.929 . S
H814 C828 0.970 . S
H815 C830 0.930 . S
C816 H804 0.930 . S
C816 C817 1.399 . S
C816 C821 1.399 . S
C817 C816 1.399 . S
C817 C818 1.376 . S
C818 H805 0.930 1_455 S
C818 C817 1.376 . S
C818 C819 1.388 . S
C819 H806 0.930 . S
C819 C818 1.388 . S
C819 C820 1.390 . S
C820 C819 1.390 . S
C820 C821 1.394 . S
C820 C826 1.465 . S
C821 C816 1.399 . S
C821 C820 1.394 . S
C821 C822 1.516 . S
C822 C821 1.516 . S
C822 C823 1.502 . S
C822 C824 1.561 . S
C822 C825 1.526 . S
C823 H807 0.959 1_455 S
C823 H808 0.959 . S
C823 H809 0.961 . S
C823 C822 1.502 . S
C824 H810 0.960 . S
C824 H811 0.961 . S
C824 H812 0.959 . S
C824 C822 1.561 . S
C825 C822 1.526 . S
C825 C826 1.396 . S
C825 C830 1.390 . S
C826 C820 1.465 . S
C826 C825 1.396 . S
C826 C827 1.399 . S
C827 H813 0.929 . S
C827 C826 1.399 . S
C827 C828 1.385 . S
C828 H814 0.970 . S
C828 C827 1.385 . S
C828 C829 1.389 . S
C829 C828 1.389 . S
C829 C830 1.387 . S
C830 H815 0.930 . S
C830 C825 1.390 . S
C830 C829 1.387 . S
H831 C843 0.930 . S
H832 C845 0.930 . S
H833 C846 0.930 . S
H834 C850 0.959 . S
H835 C850 0.959 . S
H836 C850 0.961 . S
H837 C851 0.956 1_565 S
H838 C851 0.961 1_565 S
H839 C851 0.959 . S
H840 C854 0.929 . S
H841 C855 0.931 . S
H842 C857 0.930 1_565 S
C843 H831 0.930 . S
C843 C844 1.399 1_565 S
C843 C848 1.399 1_565 S
C844 C843 1.399 1_545 S
C844 C845 1.376 . S
C845 H832 0.930 . S
C845 C844 1.376 . S
C845 C846 1.388 . S
C846 H833 0.930 . S
C846 C845 1.388 . S
C846 C847 1.390 . S
C847 C846 1.390 . S
C847 C848 1.394 . S
C847 C853 1.465 . S
C848 C843 1.399 1_545 S
C848 C847 1.394 . S
C848 C849 1.516 1_545 S
C849 C848 1.516 1_565 S
C849 C850 1.502 . S
C849 C851 1.561 1_565 S
C849 C852 1.526 1_565 S
C850 H834 0.959 . S
C850 H835 0.959 . S
C850 H836 0.961 . S
C850 C849 1.502 . S
C851 H837 0.956 1_545 S
C851 H838 0.961 1_545 S
C851 H839 0.959 . S
C851 C849 1.561 1_545 S
C852 C849 1.526 1_545 S
C852 C853 1.396 . S
C852 C857 1.390 . S
C853 C847 1.465 . S
C853 C852 1.396 . S
C853 C854 1.399 . S
C854 H840 0.929 . S
C854 C853 1.399 . S
C854 C855 1.385 . S
C855 H841 0.931 . S
C855 C854 1.385 . S
C855 C856 1.389 . S
C856 C855 1.389 . S
C856 C857 1.387 . S
C857 H842 0.930 1_545 S
C857 C852 1.390 . S
C857 C856 1.387 . S
H858 C870 0.930 . S
H859 C872 0.930 . S
H860 C873 0.930 . S
H861 C877 0.959 . S
H862 C877 0.959 . S
H863 C877 0.961 . S
H864 C878 0.960 . S
H865 C878 0.961 . S
H866 C878 0.959 . S
H867 C881 0.929 . S
H868 C882 0.931 . S
H869 C884 0.930 . S
C870 H858 0.930 . S
C870 C871 1.399 . S
C870 C875 1.399 . S
C871 C870 1.399 . S
C871 C872 1.376 . S
C872 H859 0.930 . S
C872 C871 1.376 . S
C872 C873 1.388 . S
C873 H860 0.930 . S
C873 C872 1.388 . S
C873 C874 1.390 . S
C874 C873 1.390 . S
C874 C875 1.394 . S
C874 C880 1.465 . S
C875 C870 1.399 . S
C875 C874 1.394 . S
C875 C876 1.516 . S
C876 C875 1.516 . S
C876 C877 1.502 . S
C876 C878 1.561 . S
C876 C879 1.526 . S
C877 H861 0.959 . S
C877 H862 0.959 . S
C877 H863 0.961 . S
C877 C876 1.502 . S
C878 H864 0.960 . S
C878 H865 0.961 . S
C878 H866 0.959 . S
C878 C876 1.561 . S
C879 C876 1.526 . S
C879 C880 1.396 . S
C879 C884 1.390 . S
C880 C874 1.465 . S
C880 C879 1.396 . S
C880 C881 1.399 . S
C881 H867 0.929 . S
C881 C880 1.399 . S
C881 C882 1.385 . S
C882 H868 0.931 . S
C882 C881 1.385 . S
C882 C883 1.389 . S
C883 C882 1.389 . S
C883 C884 1.387 . S
C884 H869 0.930 . S
C884 C879 1.390 . S
C884 C883 1.387 . S
H885 C897 0.930 . S
H886 C899 0.930 . S
H887 C900 0.930 . S
H888 C904 0.959 . S
H889 C904 0.959 . S
H890 C904 0.961 . S
H891 C905 0.960 . S
H892 C905 0.961 . S
H893 C905 0.959 . S
H894 C908 0.929 . S
H895 C909 0.931 . S
H896 C911 0.930 . S
C897 H885 0.930 . S
C897 C898 1.399 . S
C897 C902 1.399 . S
C898 C897 1.399 . S
C898 C899 1.376 1_545 S
C899 H886 0.930 . S
C899 C898 1.376 1_565 S
C899 C900 1.388 . S
C900 H887 0.930 . S
C900 C899 1.388 . S
C900 C901 1.390 . S
C901 C900 1.390 . S
C901 C902 1.394 1_565 S
C901 C907 1.465 . S
C902 C897 1.399 . S
C902 C901 1.394 1_545 S
C902 C903 1.516 . S
C903 C902 1.516 . S
C903 C904 1.502 . S
C903 C905 1.561 . S
C903 C906 1.526 . S
C904 H888 0.959 . S
C904 H889 0.959 . S
C904 H890 0.961 . S
C904 C903 1.502 . S
C905 H891 0.960 . S
C905 H892 0.961 . S
C905 H893 0.959 . S
C905 C903 1.561 . S
C906 C903 1.526 . S
C906 C907 1.396 1_545 S
C906 C911 1.390 . S
C907 C901 1.465 . S
C907 C906 1.396 1_565 S
C907 C908 1.399 . S
C908 H894 0.929 . S
C908 C907 1.399 . S
C908 C909 1.385 . S
C909 H895 0.931 . S
C909 C908 1.385 . S
C909 C910 1.389 1_565 S
C910 C909 1.389 1_545 S
C910 C911 1.387 . S
C911 H896 0.930 . S
C911 C906 1.390 . S
C911 C910 1.387 . S
H912 C924 0.930 . S
H913 C926 0.930 . S
H914 C927 0.930 . S
H915 C931 0.959 . S
H916 C931 0.959 . S
H917 C931 0.961 . S
H918 C932 0.960 . S
H919 C932 0.961 . S
H920 C932 0.959 . S
H921 C935 0.929 . S
H922 C936 0.931 1_554 S
H923 C938 0.930 . S
C924 H912 0.930 . S
C924 C925 1.399 . S
C924 C929 1.399 . S
C925 C924 1.399 . S
C925 C926 1.376 . S
C926 H913 0.930 . S
C926 C925 1.376 . S
C926 C927 1.388 . S
C927 H914 0.930 . S
C927 C926 1.388 . S
C927 C928 1.390 . S
C928 C927 1.390 . S
C928 C929 1.394 . S
C928 C934 1.465 . S
C929 C924 1.399 . S
C929 C928 1.394 . S
C929 C930 1.516 . S
C930 C929 1.516 . S
C930 C931 1.502 . S
C930 C932 1.561 . S
C930 C933 1.526 . S
C931 H915 0.959 . S
C931 H916 0.959 . S
C931 H917 0.961 . S
C931 C930 1.502 . S
C932 H918 0.960 . S
C932 H919 0.961 . S
C932 H920 0.959 . S
C932 C930 1.561 . S
C933 C930 1.526 . S
C933 C934 1.396 . S
C933 C938 1.390 . S
C934 C928 1.465 . S
C934 C933 1.396 . S
C934 C935 1.399 . S
C935 H921 0.929 . S
C935 C934 1.399 . S
C935 C936 1.385 . S
C936 H922 0.931 1_556 S
C936 C935 1.385 . S
C936 C937 1.389 . S
C937 C936 1.389 . S
C937 C938 1.387 . S
C938 H923 0.930 . S
C938 C933 1.390 . S
C938 C937 1.387 . S
H939 C951 0.930 . S
H940 C953 0.930 . S
H941 C954 0.930 . S
H942 C958 0.959 . S
H943 C958 0.959 . S
H944 C958 0.961 . S
H945 C959 0.960 . S
H946 C959 0.961 . S
H947 C959 0.959 1_455 S
H948 C962 0.929 . S
H949 C963 0.931 . S
H950 C965 0.930 . S
C951 H939 0.930 . S
C951 C952 1.399 1_655 S
C951 C956 1.399 . S
C952 C951 1.399 1_455 S
C952 C953 1.376 . S
C953 H940 0.930 . S
C953 C952 1.376 . S
C953 C954 1.388 . S
C954 H941 0.930 . S
C954 C953 1.388 . S
C954 C955 1.390 . S
C955 C954 1.390 . S
C955 C956 1.394 1_455 S
C955 C961 1.465 . S
C956 C951 1.399 . S
C956 C955 1.394 1_655 S
C956 C957 1.516 . S
C957 C956 1.516 . S
C957 C958 1.502 . S
C957 C959 1.561 . S
C957 C960 1.526 . S
C958 H942 0.959 . S
C958 H943 0.959 . S
C958 H944 0.961 . S
C958 C957 1.502 . S
C959 H945 0.960 . S
C959 H946 0.961 . S
C959 H947 0.959 1_655 S
C959 C957 1.561 . S
C960 C957 1.526 . S
C960 C961 1.396 1_655 S
C960 C965 1.390 . S
C961 C955 1.465 . S
C961 C960 1.396 1_455 S
C961 C962 1.399 . S
C962 H948 0.929 . S
C962 C961 1.399 . S
C962 C963 1.385 . S
C963 H949 0.931 . S
C963 C962 1.385 . S
C963 C964 1.389 . S
C964 C963 1.389 . S
C964 C965 1.387 1_455 S
C965 H950 0.930 . S
C965 C960 1.390 . S
C965 C964 1.387 1_655 S
C493 C12 2.932 . S
C505 C451 2.924 . S
C520 C52 2.934 . S
C532 C301 2.776 . S
C547 C111 2.988 . S
C559 C361 2.841 . S
C574 C31 3.131 . S
C586 C421 2.941 . S
C613 C331 3.125 . S
C601 C71 3.135 . S
C640 C391 3.067 . S
C628 C92 3.077 . S
C655 C48 0.471 . S
C667 C181 0.432 . S
C682 C109 0.654 . S
C694 C271 0.418 . S
C709 C29 0.382 . S
C721 C151 0.452 . S
C748 C211 0.410 . S
C736 C69 0.336 . S
C775 C241 0.428 . S
C763 C88 0.358 . S
C790 C8 0.236 . S
C802 C121 0.290 . S
C829 C260 1.079 1_554 S
C817 C17 1.026 1_455 S
C844 C57 1.057 . S
C856 C140 1.091 . S
C871 C97 1.055 . S
C883 C200 1.091 . S
C910 C380 1.773 . S
C898 C42 1.735 . S
C937 C440 1.774 1_556 S
C925 C82 1.698 . S
C952 C2 1.709 . S
C964 C320 1.729 . S
