# Generated by pormake.
# Topology hwx, (6,3)-cn, num edge types: 1
# Building blocks:
#     Node 0, Type 0, BuildingBlock: IZENUY_clean_sbu_0, # of connection points: 6
#     Node 1, Type 0, BuildingBlock: IZENUY_clean_sbu_0, # of connection points: 6
#     Node 2, Type 0, BuildingBlock: IZENUY_clean_sbu_0, # of connection points: 6
#     Node 3, Type 0, BuildingBlock: IZENUY_clean_sbu_0, # of connection points: 6
#     Node 4, Type 1, BuildingBlock: BETDIP_clean_linker_0, # of connection points: 3
#     Node 5, Type 1, BuildingBlock: BETDIP_clean_linker_0, # of connection points: 3
#     Node 6, Type 1, BuildingBlock: BETDIP_clean_linker_0, # of connection points: 3
#     Node 7, Type 1, BuildingBlock: BETDIP_clean_linker_0, # of connection points: 3
#     Node 8, Type 1, BuildingBlock: BETDIP_clean_linker_0, # of connection points: 3
#     Node 9, Type 1, BuildingBlock: BETDIP_clean_linker_0, # of connection points: 3
#     Node 10, Type 1, BuildingBlock: BETDIP_clean_linker_0, # of connection points: 3
#     Node 11, Type 1, BuildingBlock: BETDIP_clean_linker_0, # of connection points: 3
#     Edge 12, Type (0, 1), BuildingBlock: OJICUG_clean_linker_0, # of connection points: 2
#     Edge 13, Type (0, 1), BuildingBlock: OJICUG_clean_linker_0, # of connection points: 2
#     Edge 14, Type (0, 1), BuildingBlock: OJICUG_clean_linker_0, # of connection points: 2
#     Edge 15, Type (0, 1), BuildingBlock: OJICUG_clean_linker_0, # of connection points: 2
#     Edge 16, Type (0, 1), BuildingBlock: OJICUG_clean_linker_0, # of connection points: 2
#     Edge 17, Type (0, 1), BuildingBlock: OJICUG_clean_linker_0, # of connection points: 2
#     Edge 18, Type (0, 1), BuildingBlock: OJICUG_clean_linker_0, # of connection points: 2
#     Edge 19, Type (0, 1), BuildingBlock: OJICUG_clean_linker_0, # of connection points: 2
#     Edge 20, Type (0, 1), BuildingBlock: OJICUG_clean_linker_0, # of connection points: 2
#     Edge 21, Type (0, 1), BuildingBlock: OJICUG_clean_linker_0, # of connection points: 2
#     Edge 22, Type (0, 1), BuildingBlock: OJICUG_clean_linker_0, # of connection points: 2
#     Edge 23, Type (0, 1), BuildingBlock: OJICUG_clean_linker_0, # of connection points: 2
#     Edge 24, Type (0, 1), BuildingBlock: OJICUG_clean_linker_0, # of connection points: 2
#     Edge 25, Type (0, 1), BuildingBlock: OJICUG_clean_linker_0, # of connection points: 2
#     Edge 26, Type (0, 1), BuildingBlock: OJICUG_clean_linker_0, # of connection points: 2
#     Edge 27, Type (0, 1), BuildingBlock: OJICUG_clean_linker_0, # of connection points: 2
#     Edge 28, Type (0, 1), BuildingBlock: OJICUG_clean_linker_0, # of connection points: 2
#     Edge 29, Type (0, 1), BuildingBlock: OJICUG_clean_linker_0, # of connection points: 2
#     Edge 30, Type (0, 1), BuildingBlock: OJICUG_clean_linker_0, # of connection points: 2
#     Edge 31, Type (0, 1), BuildingBlock: OJICUG_clean_linker_0, # of connection points: 2
#     Edge 32, Type (0, 1), BuildingBlock: OJICUG_clean_linker_0, # of connection points: 2
#     Edge 33, Type (0, 1), BuildingBlock: OJICUG_clean_linker_0, # of connection points: 2
#     Edge 34, Type (0, 1), BuildingBlock: OJICUG_clean_linker_0, # of connection points: 2
#     Edge 35, Type (0, 1), BuildingBlock: OJICUG_clean_linker_0, # of connection points: 2
# Relax obj value: 0.003
# Max RMSD: 0.055
# Mean RMSD: 0.046
data_MOF--net-hwx--node1-IZENUY_clean_sbu_0--node2-BETDIP_clean_linker_0--edge1-OJICUG_clean_linker_0
_symmetry_space_group_name_H-M    P1
_symmetry_Int_Tables_number       1
_symmetry_cell_setting            triclinic
loop_
_symmetry_equiv_pos_as_xyz
'x, y, z'
_cell_length_a     37.71443
_cell_length_b     37.731987
_cell_length_c     15.187938
_cell_angle_alpha  92.02083
_cell_angle_beta   92.071832
_cell_angle_gamma 89.971746
loop_
_atom_site_label
_atom_site_type_symbol
_atom_site_fract_x
_atom_site_fract_y
_atom_site_fract_z
_atom_type_partial_charge
Fe0 Fe 0.24954 0.25763 0.103 0.0
Fe1 Fe 0.25481 0.25866 0.90265 0.0
O2 O 0.23539 0.24155 -0.00328 0.0
Fe3 Fe 0.20195 0.20844 0.98539 0.0
O4 O 0.17775 0.22458 0.08224 0.0
O5 O 0.20542 0.27385 0.1253 0.0
O6 O 0.26043 0.30233 0.06923 0.0
C7 C 0.24912 0.31955 0.00409 0.0
C8 C 0.2392 0.18454 0.12785 0.0
O9 O 0.24102 0.30365 0.93177 0.0
C10 C 0.25048 0.18794 0.85441 0.0
O11 O 0.29446 0.24217 0.08646 0.0
O12 O 0.29903 0.26511 0.95618 0.0
O13 O 0.22828 0.17758 0.04989 0.0
O14 O 0.24116 0.21619 0.15753 0.0
C15 C 0.18191 0.25162 0.85125 0.0
O16 O 0.26987 0.21505 0.86649 0.0
O17 O 0.22003 0.18673 0.88676 0.0
C18 C 0.31319 0.25118 0.02366 0.0
O19 O 0.2142 0.25505 0.83281 0.0
O20 O 0.1732 0.23655 0.92001 0.0
C21 C 0.17807 0.25448 0.12332 0.0
Fe22 Fe 0.26137 0.75749 0.59864 0.0
Fe23 Fe 0.31166 0.70887 0.49489 0.0
O24 O 0.27816 0.74195 0.49701 0.0
Fe25 Fe 0.26125 0.7597 0.39772 0.0
O26 O 0.27525 0.8043 0.43259 0.0
O27 O 0.25227 0.80259 0.56293 0.0
O28 O 0.30489 0.77311 0.63691 0.0
C29 C 0.33233 0.75396 0.64191 0.0
C30 C 0.20005 0.75264 0.49768 0.0
O31 O 0.33378 0.72449 0.5992 0.0
C32 C 0.26548 0.68908 0.34976 0.0
O33 O 0.26784 0.71559 0.65381 0.0
O34 O 0.28413 0.67763 0.55022 0.0
O35 O 0.21644 0.76696 0.43695 0.0
O36 O 0.21662 0.74272 0.56631 0.0
C37 C 0.33455 0.75277 0.36888 0.0
O38 O 0.29538 0.68767 0.39042 0.0
O39 O 0.24624 0.71638 0.35639 0.0
C40 C 0.27121 0.68409 0.62432 0.0
O41 O 0.34191 0.73732 0.43942 0.0
O42 O 0.30282 0.75562 0.34038 0.0
C43 C 0.2657 0.81993 0.5026 0.0
Fe44 Fe 0.76324 0.76906 0.90547 0.0
Fe45 Fe 0.7609 0.76649 0.10624 0.0
O46 O 0.77862 0.78467 0.01124 0.0
Fe47 Fe 0.8117 0.81834 0.02119 0.0
O48 O 0.79649 0.84096 0.92121 0.0
O49 O 0.74751 0.81283 0.87799 0.0
O50 O 0.71819 0.75904 0.93767 0.0
C51 C 0.70053 0.77067 0.00158 0.0
C52 C 0.83658 0.77706 0.88544 0.0
O53 O 0.71594 0.77955 0.07404 0.0
C54 C 0.83121 0.77204 0.15829 0.0
O55 O 0.77819 0.72446 0.92653 0.0
O56 O 0.75496 0.72151 0.05673 0.0
O57 O 0.84316 0.79115 0.96074 0.0
O58 O 0.80529 0.77583 0.85305 0.0
C59 C 0.76729 0.84001 0.15132 0.0
O60 O 0.8044 0.75225 0.14581 0.0
O61 O 0.83265 0.80187 0.12283 0.0
C62 C 0.769 0.70657 0.99047 0.0
O63 O 0.76384 0.80802 0.17223 0.0
O64 O 0.78294 0.84792 0.08264 0.0
C65 C 0.76686 0.84015 0.87884 0.0
Fe66 Fe 0.70213 0.31856 0.51154 0.0
Fe67 Fe 0.75062 0.26663 0.61102 0.0
O68 O 0.73541 0.28512 0.51099 0.0
Fe69 Fe 0.75347 0.2702 0.41029 0.0
O70 O 0.76882 0.31438 0.38793 0.0
O71 O 0.71885 0.34158 0.41673 0.0
O72 O 0.72969 0.34808 0.58173 0.0
C73 C 0.74369 0.33985 0.65488 0.0
C74 C 0.68022 0.2776 0.36785 0.0
O75 O 0.74556 0.30781 0.67686 0.0
C76 C 0.74686 0.20709 0.49176 0.0
O77 O 0.6793 0.30173 0.60645 0.0
O78 O 0.70638 0.25162 0.63452 0.0
O79 O 0.71218 0.27593 0.34522 0.0
O80 O 0.67223 0.29136 0.44138 0.0
C81 C 0.81349 0.27295 0.52799 0.0
O82 O 0.7586 0.22199 0.56299 0.0
O83 O 0.73916 0.22512 0.4255 0.0
C84 C 0.6796 0.27151 0.64025 0.0
O85 O 0.79583 0.28057 0.59492 0.0
O86 O 0.79815 0.26153 0.45709 0.0
C87 C 0.74908 0.34128 0.38289 0.0
H88 H 0.25021 0.5368 0.83668 0.0
H89 H 0.2365 0.53862 0.118 0.0
H90 H 0.24762 0.63586 0.98513 0.0
H91 H 0.25682 0.48399 0.10644 0.0
C92 C 0.24858 0.47273 0.04222 0.0
C93 C 0.24719 0.55145 0.89862 0.0
C94 C 0.24968 0.58859 0.90176 0.0
C95 C 0.2429 0.53292 0.97616 0.0
C96 C 0.24012 0.55209 0.05733 0.0
C97 C 0.24156 0.58928 0.06036 0.0
C98 C 0.24585 0.60714 0.98239 0.0
N99 N 0.24226 0.49517 0.97005 0.0
H100 H 0.9843 0.74789 0.67148 0.0
H101 H 0.97983 0.74619 0.38682 0.0
H102 H 0.88388 0.75016 0.52861 0.0
H103 H 0.03548 0.76153 0.4005 0.0
C104 C 0.04683 0.75292 0.46278 0.0
C105 C 0.96909 0.74782 0.60953 0.0
C106 C 0.93192 0.74836 0.6095 0.0
C107 C 0.9869 0.74726 0.52996 0.0
C108 C 0.96697 0.74725 0.44926 0.0
C109 C 0.92973 0.74788 0.44869 0.0
C110 C 0.91259 0.74836 0.5289 0.0
N111 N 0.02467 0.74647 0.5342 0.0
H112 H 0.77117 0.49078 0.17256 0.0
H113 H 0.76996 0.48798 0.88826 0.0
H114 H 0.77036 0.39105 0.02772 0.0
H115 H 0.79388 0.54198 0.90806 0.0
C116 C 0.78187 0.55364 0.96615 0.0
C117 C 0.77136 0.47589 0.11024 0.0
C118 C 0.77175 0.4387 0.10917 0.0
C119 C 0.77179 0.49404 0.03112 0.0
C120 C 0.77103 0.47453 0.94999 0.0
C121 C 0.77105 0.43727 0.94829 0.0
C122 C 0.77165 0.41978 0.02826 0.0
N123 N 0.77192 0.53179 0.0356 0.0
H124 H 0.02821 0.27526 0.33969 0.0
H125 H 0.03339 0.27526 0.62396 0.0
H126 H 0.12907 0.27596 0.47973 0.0
H127 H 0.97864 0.29625 0.61227 0.0
C128 C 0.96673 0.28498 0.55148 0.0
C129 C 0.04358 0.27583 0.40142 0.0
C130 C 0.08077 0.27662 0.40082 0.0
C131 C 0.02605 0.27637 0.48155 0.0
C132 C 0.04627 0.27618 0.56168 0.0
C133 C 0.08355 0.27655 0.56163 0.0
C134 C 0.10035 0.27699 0.48085 0.0
N135 N 0.98825 0.27606 0.47886 0.0
H136 H 0.74595 0.99022 0.66687 0.0
H137 H 0.7447 0.98837 0.38253 0.0
H138 H 0.74384 0.89099 0.51968 0.0
H139 H 0.72311 0.04279 0.39923 0.0
C140 C 0.7349 0.05409 0.46013 0.0
C141 C 0.74501 0.97556 0.60417 0.0
C142 C 0.74403 0.93835 0.60221 0.0
C143 C 0.74417 0.99403 0.52538 0.0
C144 C 0.74392 0.97477 0.44389 0.0
C145 C 0.74321 0.93752 0.44134 0.0
C146 C 0.74305 0.91973 0.52082 0.0
N147 N 0.74456 0.03179 0.53074 0.0
H148 H 0.52976 0.24933 0.84951 0.0
H149 H 0.53197 0.25099 0.13388 0.0
H150 H 0.62924 0.25077 -0.00408 0.0
H151 H 0.4777 0.22783 0.11448 0.0
C152 C 0.46626 0.2392 0.05527 0.0
C153 C 0.54453 0.24931 0.91206 0.0
C154 C 0.58176 0.24908 0.91368 0.0
C155 C 0.52617 0.24892 0.99093 0.0
C156 C 0.54553 0.24989 0.07234 0.0
C157 C 0.58281 0.25001 0.07457 0.0
C158 C 0.6005 0.24938 0.9949 0.0
N159 N 0.4884 0.24862 0.98584 0.0
H160 H 0.26379 0.03757 0.34189 0.0
H161 H 0.28057 0.03844 0.62476 0.0
H162 H 0.26736 0.13615 0.49301 0.0
H163 H 0.25964 0.98389 0.60911 0.0
C164 C 0.26772 0.97287 0.54601 0.0
C165 C 0.26742 0.05206 0.40446 0.0
C166 C 0.26464 0.08917 0.40815 0.0
C167 C 0.27274 0.03327 0.48205 0.0
C168 C 0.27623 0.05214 0.56399 0.0
C169 C 0.2745 0.08931 0.56776 0.0
C170 C 0.26927 0.10745 0.48971 0.0
N171 N 0.2736 0.99556 0.47521 0.0
H172 H 0.48296 0.77828 0.16216 0.0
H173 H 0.48151 0.77736 0.87773 0.0
H174 H 0.38391 0.77723 0.0128 0.0
H175 H 0.53655 0.75913 0.89402 0.0
C176 C 0.54748 0.76874 0.95746 0.0
C177 C 0.46835 0.77818 0.09937 0.0
C178 C 0.43114 0.77856 0.09703 0.0
C179 C 0.487 0.77742 0.02104 0.0
C180 C 0.46793 0.77726 0.93915 0.0
C181 C 0.43067 0.77776 0.93627 0.0
C182 C 0.41267 0.77837 0.01526 0.0
N183 N 0.52474 0.77715 0.02777 0.0
C184 C 0.15167 0.29405 0.23952 0.0
C185 C 0.14897 0.26373 0.18315 0.0
H186 H 0.13161 0.32207 0.3522 0.0
C187 C 0.11991 0.24071 0.19065 0.0
H188 H 0.17341 0.31258 0.23512 0.0
C189 C 0.0957 0.24647 0.25746 0.0
C190 C 0.10028 0.27521 0.31796 0.0
H191 H 0.11684 0.21727 0.14782 0.0
H192 H 0.0749 0.22718 0.26544 0.0
C193 C 0.12768 0.29961 0.30643 0.0
C194 C 0.28914 0.65916 0.76641 0.0
C195 C 0.26905 0.65569 0.68727 0.0
H196 H 0.2997 0.63962 0.89462 0.0
C197 C 0.24533 0.6272 0.67387 0.0
H198 H 0.30795 0.68073 0.77738 0.0
C199 C 0.24002 0.60381 0.74211 0.0
C200 C 0.25862 0.60877 0.82361 0.0
H201 H 0.22964 0.62421 0.61289 0.0
H202 H 0.22018 0.58314 0.73287 0.0
C203 C 0.28428 0.63574 0.83344 0.0
C204 C 0.85394 0.73435 0.28093 0.0
C205 C 0.85913 0.76256 0.22472 0.0
H206 H 0.87256 0.7074 0.39548 0.0
C207 C 0.8902 0.78313 0.23668 0.0
H208 H 0.83049 0.71781 0.27336 0.0
C209 C 0.91449 0.77687 0.30627 0.0
C210 C 0.90801 0.75014 0.36566 0.0
H211 H 0.89519 0.80487 0.19407 0.0
H212 H 0.93728 0.79418 0.31648 0.0
C213 C 0.87802 0.72835 0.35089 0.0
C214 C 0.78064 0.36022 0.78559 0.0
C215 C 0.75442 0.36772 0.72105 0.0
H216 H 0.80757 0.37711 0.90585 0.0
C217 C 0.73704 0.40066 0.72508 0.0
H218 H 0.79496 0.33532 0.78306 0.0
C219 C 0.74385 0.4245 0.79656 0.0
C220 C 0.76845 0.41585 0.86431 0.0
H221 H 0.71675 0.40711 0.67591 0.0
H222 H 0.72842 0.44865 0.80127 0.0
C223 C 0.78781 0.38414 0.85591 0.0
C224 C 0.61937 0.28438 0.29753 0.0
C225 C 0.65222 0.26682 0.30205 0.0
H226 H 0.57144 0.29304 0.22079 0.0
C227 C 0.65959 0.24036 0.23812 0.0
H228 H 0.61303 0.30485 0.34625 0.0
C229 C 0.63568 0.23313 0.1678 0.0
C230 C 0.60409 0.25267 0.15879 0.0
H231 H 0.68443 0.22591 0.24106 0.0
H232 H 0.64264 0.21322 0.11825 0.0
C233 C 0.59552 0.27749 0.22602 0.0
C234 C 0.28919 0.16468 0.7346 0.0
C235 C 0.2611 0.15941 0.79114 0.0
H236 H 0.31578 0.14603 0.61954 0.0
C237 C 0.24142 0.12772 0.7817 0.0
H238 H 0.30508 0.18861 0.74041 0.0
C239 C 0.24798 0.10311 0.71318 0.0
C240 C 0.2741 0.1099 0.6525 0.0
H241 H 0.21989 0.12264 0.82485 0.0
H242 H 0.23096 0.08005 0.704 0.0
C243 C 0.29545 0.14027 0.6656 0.0
C244 C 0.3561 0.79075 0.25202 0.0
C245 C 0.36297 0.76378 0.3116 0.0
H246 H 0.37312 0.81748 0.13934 0.0
C247 C 0.39537 0.74546 0.30889 0.0
H248 H 0.3316 0.80575 0.2538 0.0
C249 C 0.41908 0.75192 0.24234 0.0
C250 C 0.41073 0.77699 0.17841 0.0
H251 H 0.4013 0.72458 0.35431 0.0
H252 H 0.44268 0.73571 0.23752 0.0
C253 C 0.37984 0.79745 0.18654 0.0
C254 C 0.78007 0.89852 0.81192 0.0
C255 C 0.75768 0.86889 0.81786 0.0
H256 H 0.79291 0.94428 0.73912 0.0
C257 C 0.72785 0.86559 0.75989 0.0
H258 H 0.80309 0.90207 0.85607 0.0
C259 C 0.72211 0.88975 0.69338 0.0
C260 C 0.74585 0.91791 0.68373 0.0
H261 H 0.70979 0.8434 0.76308 0.0
H262 H 0.69994 0.88552 0.6468 0.0
C263 C 0.77414 0.92288 0.7455 0.0
C264 C 0.89737 0.78412 0.826 0.0
C265 C 0.86532 0.76531 0.82828 0.0
H266 H 0.94408 0.79345 0.75329 0.0
C267 C 0.85861 0.73716 0.76711 0.0
H268 H 0.90307 0.80593 0.87264 0.0
C269 C 0.88202 0.72978 0.70021 0.0
C270 C 0.91242 0.7507 0.69238 0.0
H271 H 0.83434 0.72185 0.76854 0.0
H272 H 0.8753 0.70897 0.65149 0.0
C273 C 0.9208 0.77692 0.758 0.0
C274 C 0.78822 0.36643 0.27074 0.0
C275 C 0.75856 0.36999 0.32381 0.0
H276 H 0.81582 0.3859 0.16155 0.0
C277 C 0.73637 0.39974 0.31399 0.0
H278 H 0.80609 0.3441 0.27698 0.0
C279 C 0.74225 0.42392 0.24823 0.0
C280 C 0.77027 0.41861 0.19093 0.0
H281 H 0.71349 0.40349 0.35439 0.0
H282 H 0.72359 0.44538 0.23854 0.0
C283 C 0.79389 0.39039 0.20473 0.0
C284 C 0.12116 0.24437 0.77977 0.0
C285 C 0.15426 0.26161 0.78537 0.0
H286 H 0.07283 0.23525 0.70376 0.0
C287 C 0.1618 0.28696 0.72328 0.0
H288 H 0.11461 0.22473 0.82692 0.0
C289 C 0.13766 0.29352 0.6541 0.0
C290 C 0.10567 0.2744 0.64435 0.0
H291 H 0.18682 0.30115 0.72692 0.0
H292 H 0.14465 0.31273 0.60628 0.0
C293 C 0.09714 0.25056 0.70952 0.0
C294 C 0.22702 0.66519 0.22314 0.0
C295 C 0.25533 0.66043 0.28437 0.0
H296 H 0.20011 0.64581 0.10441 0.0
C297 C 0.27534 0.62897 0.27859 0.0
H298 H 0.21082 0.68889 0.22605 0.0
C299 C 0.26879 0.60406 0.20948 0.0
C300 C 0.24231 0.6103 0.14461 0.0
H301 H 0.29705 0.62425 0.32535 0.0
H302 H 0.28599 0.58116 0.20348 0.0
C303 C 0.22073 0.64047 0.15369 0.0
C304 C 0.39093 0.74172 0.71917 0.0
C305 C 0.3607 0.76333 0.70892 0.0
H306 H 0.43725 0.72976 0.79898 0.0
C307 C 0.35658 0.79254 0.76771 0.0
H308 H 0.39511 0.71917 0.67464 0.0
C309 C 0.3807 0.79851 0.83857 0.0
C310 C 0.40965 0.77562 0.85187 0.0
H311 H 0.33386 0.80996 0.76144 0.0
H312 H 0.37594 0.82024 0.88521 0.0
C313 C 0.41526 0.7479 0.78989 0.0
C314 C 0.73075 0.86119 0.2757 0.0
C315 C 0.75694 0.86818 0.2153 0.0
H316 H 0.70486 0.87841 0.39242 0.0
C317 C 0.77508 0.90076 0.22242 0.0
H318 H 0.71589 0.83658 0.27085 0.0
C319 C 0.76912 0.92461 0.29315 0.0
C320 C 0.74468 0.91635 0.35718 0.0
H321 H 0.79538 0.90685 0.17659 0.0
H322 H 0.78517 0.94839 0.30057 0.0
C323 C 0.72449 0.88512 0.34537 0.0
C324 C 0.621 0.28414 0.70865 0.0
C325 C 0.65091 0.2621 0.69958 0.0
H326 H 0.57511 0.29685 0.78321 0.0
C327 C 0.6546 0.23268 0.75342 0.0
H328 H 0.61716 0.30684 0.66766 0.0
C329 C 0.63054 0.22707 0.81929 0.0
C330 C 0.60208 0.25051 0.8322 0.0
H331 H 0.67707 0.21495 0.74785 0.0
H332 H 0.63509 0.20531 0.86299 0.0
C333 C 0.59673 0.27831 0.77424 0.0
C334 C 0.26514 0.12739 0.17986 0.0
C335 C 0.24205 0.15624 0.19144 0.0
H336 H 0.29095 0.08321 0.24099 0.0
C337 C 0.22356 0.16015 0.26947 0.0
H338 H 0.27961 0.12404 0.11981 0.0
C339 C 0.22944 0.13682 0.33718 0.0
C340 C 0.25461 0.10953 0.32931 0.0
H341 H 0.20519 0.18194 0.27905 0.0
H342 H 0.21514 0.14098 0.39729 0.0
C343 C 0.27154 0.10414 0.24886 0.0
C344 C 0.23908 0.37959 0.93963 0.0
C345 C 0.24827 0.35883 0.01216 0.0
H346 H 0.23192 0.43204 0.89164 0.0
C347 C 0.25685 0.37601 0.0939 0.0
H348 H 0.23222 0.36722 0.87585 0.0
C349 C 0.25661 0.41292 0.10282 0.0
C350 C 0.24783 0.43364 0.03044 0.0
H351 H 0.26386 0.36095 0.1514 0.0
H352 H 0.26349 0.42531 0.1666 0.0
C353 C 0.2389 0.41671 0.94866 0.0
C354 C 0.14336 0.7599 0.4103 0.0
C355 C 0.16078 0.75108 0.49007 0.0
H356 H 0.09389 0.76724 0.34001 0.0
C357 C 0.14025 0.74169 0.56117 0.0
H358 H 0.15824 0.76698 0.35381 0.0
C359 C 0.10308 0.74189 0.55293 0.0
C360 C 0.08593 0.75136 0.47335 0.0
H361 H 0.15283 0.73468 0.62338 0.0
H362 H 0.08789 0.73494 0.60895 0.0
C363 C 0.10644 0.76002 0.40214 0.0
C364 C 0.78695 0.65034 0.91083 0.0
C365 C 0.77226 0.66737 0.98491 0.0
H366 H 0.80134 0.60103 0.84746 0.0
C367 C 0.76081 0.64654 0.05353 0.0
H368 H 0.79614 0.6655 0.85685 0.0
C369 C 0.76387 0.60957 0.04799 0.0
C370 C 0.77847 0.5927 0.97375 0.0
H371 H 0.74945 0.65876 0.11162 0.0
H372 H 0.75475 0.59431 0.10183 0.0
C373 C 0.78997 0.61342 0.90537 0.0
C374 C 0.87033 0.2885 0.61174 0.0
C375 C 0.85279 0.27558 0.53381 0.0
H376 H 0.92008 0.3015 0.6777 0.0
C377 C 0.87321 0.26562 0.46119 0.0
H378 H 0.85551 0.29653 0.66887 0.0
C379 C 0.91023 0.2685 0.46644 0.0
C380 C 0.92761 0.28149 0.54436 0.0
H381 H 0.86061 0.25562 0.40008 0.0
H382 H 0.92514 0.26062 0.40938 0.0
C383 C 0.90731 0.2914 0.61686 0.0
C384 C 0.75462 0.14678 0.55527 0.0
C385 C 0.74411 0.16785 0.48426 0.0
H386 H 0.76012 0.09433 0.60378 0.0
C387 C 0.73065 0.15103 0.40593 0.0
H388 H 0.76504 0.15883 0.61661 0.0
C389 C 0.72779 0.11411 0.39878 0.0
C390 C 0.7383 0.09314 0.4696 0.0
H391 H 0.72218 0.16636 0.34998 0.0
H392 H 0.7173 0.10191 0.33765 0.0
C393 C 0.75179 0.10979 0.54798 0.0
C394 C 0.37369 0.25896 0.9632 0.0
C395 C 0.35241 0.24808 0.03159 0.0
H396 H 0.42621 0.26481 0.91663 0.0
C397 C 0.36904 0.23418 0.10725 0.0
H398 H 0.36183 0.26971 0.90387 0.0
C399 C 0.40601 0.23138 0.11441 0.0
C400 C 0.42716 0.24233 0.04617 0.0
H401 H 0.35352 0.22546 0.1611 0.0
H402 H 0.41811 0.22063 0.17349 0.0
C403 C 0.41066 0.25613 0.97042 0.0
C404 C 0.25828 0.87595 0.59279 0.0
C405 C 0.26716 0.85914 0.51241 0.0
H406 H 0.25173 0.92494 0.66565 0.0
C407 C 0.27711 0.88019 0.44273 0.0
H408 H 0.25075 0.86064 0.64816 0.0
C409 C 0.27759 0.91726 0.45302 0.0
C410 C 0.2683 0.93383 0.5333 0.0
H411 H 0.28423 0.86808 0.38009 0.0
H412 H 0.28509 0.93283 0.39811 0.0
C413 C 0.2589 0.91282 0.60304 0.0
C414 C 0.63995 0.78115 0.06252 0.0
C415 C 0.66126 0.77094 0.99187 0.0
H416 H 0.5871 0.78853 0.10759 0.0
C417 C 0.64467 0.76066 0.91046 0.0
H418 H 0.65186 0.78931 0.12596 0.0
C419 C 0.60778 0.76022 0.90007 0.0
C420 C 0.58652 0.77006 0.97059 0.0
H421 H 0.66016 0.75279 0.85436 0.0
H422 H 0.59584 0.75202 0.83663 0.0
C423 C 0.60286 0.78069 0.05198 0.0
loop_
_geom_bond_atom_site_label_1
_geom_bond_atom_site_label_2
_geom_bond_distance
_geom_bond_site_symmetry_2
_ccdc_geom_bond_type
Fe0 O2 1.918 . S
Fe0 O5 1.997 . S
Fe0 O6 2.002 . S
Fe0 O11 1.976 . S
Fe0 O14 1.996 . S
Fe1 O2 1.918 1_556 S
Fe1 O9 1.997 . S
Fe1 O12 1.996 . S
Fe1 O16 1.976 . S
Fe1 O19 2.002 . S
O2 Fe0 1.918 . S
O2 Fe1 1.918 1_554 S
O2 Fe3 1.918 1_554 S
Fe3 O2 1.918 1_556 S
Fe3 O4 1.996 1_556 S
Fe3 O13 1.970 1_556 S
Fe3 O17 2.002 . S
Fe3 O20 2.003 . S
O4 Fe3 1.996 1_554 S
O4 C21 1.295 . S
O5 Fe0 1.997 . S
O5 C21 1.235 . S
O6 Fe0 2.002 . S
O6 C7 1.295 . S
C7 O6 1.295 . S
C7 O9 1.235 1_554 S
C8 O13 1.287 . S
C8 O14 1.255 . S
O9 Fe1 1.997 . S
O9 C7 1.235 1_556 S
C10 O16 1.287 . S
C10 O17 1.255 . S
O11 Fe0 1.976 . S
O11 C18 1.287 . S
O12 Fe1 1.996 . S
O12 C18 1.255 1_556 S
O13 Fe3 1.970 1_554 S
O13 C8 1.287 . S
O14 Fe0 1.996 . S
O14 C8 1.255 . S
C15 O19 1.295 . S
C15 O20 1.235 . S
O16 Fe1 1.976 . S
O16 C10 1.287 . S
O17 Fe3 2.002 . S
O17 C10 1.255 . S
C18 O11 1.287 . S
C18 O12 1.255 1_554 S
O19 Fe1 2.002 . S
O19 C15 1.295 . S
O20 Fe3 2.003 . S
O20 C15 1.235 . S
C21 O4 1.295 . S
C21 O5 1.235 . S
Fe22 O24 1.918 . S
Fe22 O27 1.997 . S
Fe22 O28 2.002 . S
Fe22 O33 1.976 . S
Fe22 O36 1.996 . S
Fe23 O24 1.918 . S
Fe23 O31 1.997 . S
Fe23 O34 1.996 . S
Fe23 O38 1.976 . S
Fe23 O41 2.002 . S
O24 Fe22 1.918 . S
O24 Fe23 1.918 . S
O24 Fe25 1.918 . S
Fe25 O24 1.918 . S
Fe25 O26 2.002 . S
Fe25 O35 1.976 . S
Fe25 O39 1.996 . S
Fe25 O42 1.997 . S
O26 Fe25 2.002 . S
O26 C43 1.295 . S
O27 Fe22 1.997 . S
O27 C43 1.235 . S
O28 Fe22 2.002 . S
O28 C29 1.295 . S
C29 O28 1.295 . S
C29 O31 1.235 . S
C30 O35 1.287 . S
C30 O36 1.255 . S
O31 Fe23 1.997 . S
O31 C29 1.235 . S
C32 O38 1.287 . S
C32 O39 1.255 . S
O33 Fe22 1.976 . S
O33 C40 1.287 . S
O34 Fe23 1.996 . S
O34 C40 1.255 . S
O35 Fe25 1.976 . S
O35 C30 1.287 . S
O36 Fe22 1.996 . S
O36 C30 1.255 . S
C37 O41 1.295 . S
C37 O42 1.235 . S
O38 Fe23 1.976 . S
O38 C32 1.287 . S
O39 Fe25 1.996 . S
O39 C32 1.255 . S
C40 O33 1.287 . S
C40 O34 1.255 . S
O41 Fe23 2.002 . S
O41 C37 1.295 . S
O42 Fe25 1.997 . S
O42 C37 1.235 . S
C43 O26 1.295 . S
C43 O27 1.235 . S
Fe44 O46 1.918 1_556 S
Fe44 O49 1.997 . S
Fe44 O50 2.002 . S
Fe44 O55 1.976 . S
Fe44 O58 1.996 . S
Fe45 O46 1.918 . S
Fe45 O53 1.997 . S
Fe45 O56 1.996 . S
Fe45 O60 1.976 . S
Fe45 O63 2.002 . S
O46 Fe44 1.918 1_554 S
O46 Fe45 1.918 . S
O46 Fe47 1.918 . S
Fe47 O46 1.918 . S
Fe47 O48 2.002 1_554 S
Fe47 O57 1.976 1_554 S
Fe47 O61 1.996 . S
Fe47 O64 1.997 . S
O48 Fe47 2.002 1_556 S
O48 C65 1.295 . S
O49 Fe44 1.997 . S
O49 C65 1.235 . S
O50 Fe44 2.002 . S
O50 C51 1.295 1_556 S
C51 O50 1.295 1_554 S
C51 O53 1.235 . S
C52 O57 1.287 . S
C52 O58 1.255 . S
O53 Fe45 1.997 . S
O53 C51 1.235 . S
C54 O60 1.287 . S
C54 O61 1.255 . S
O55 Fe44 1.976 . S
O55 C62 1.287 1_556 S
O56 Fe45 1.996 . S
O56 C62 1.255 . S
O57 Fe47 1.976 1_556 S
O57 C52 1.287 . S
O58 Fe44 1.996 . S
O58 C52 1.255 . S
C59 O63 1.295 . S
C59 O64 1.235 . S
O60 Fe45 1.976 . S
O60 C54 1.287 . S
O61 Fe47 1.996 . S
O61 C54 1.255 . S
C62 O55 1.287 1_554 S
C62 O56 1.255 . S
O63 Fe45 2.002 . S
O63 C59 1.295 . S
O64 Fe47 1.997 . S
O64 C59 1.235 . S
C65 O48 1.295 . S
C65 O49 1.235 . S
Fe66 O68 1.918 . S
Fe66 O71 1.997 . S
Fe66 O72 2.002 . S
Fe66 O77 1.976 . S
Fe66 O80 1.996 . S
Fe67 O68 1.918 . S
Fe67 O75 1.997 . S
Fe67 O78 1.996 . S
Fe67 O82 1.976 . S
Fe67 O85 2.002 . S
O68 Fe66 1.918 . S
O68 Fe67 1.918 . S
O68 Fe69 1.918 . S
Fe69 O68 1.918 . S
Fe69 O70 2.002 . S
Fe69 O79 1.976 . S
Fe69 O83 1.996 . S
Fe69 O86 1.997 . S
O70 Fe69 2.002 . S
O70 C87 1.295 . S
O71 Fe66 1.997 . S
O71 C87 1.235 . S
O72 Fe66 2.002 . S
O72 C73 1.295 . S
C73 O72 1.295 . S
C73 O75 1.235 . S
C74 O79 1.287 . S
C74 O80 1.255 . S
O75 Fe67 1.997 . S
O75 C73 1.235 . S
C76 O82 1.287 . S
C76 O83 1.255 . S
O77 Fe66 1.976 . S
O77 C84 1.287 . S
O78 Fe67 1.996 . S
O78 C84 1.255 . S
O79 Fe69 1.976 . S
O79 C74 1.287 . S
O80 Fe66 1.996 . S
O80 C74 1.255 . S
C81 O85 1.295 . S
C81 O86 1.235 . S
O82 Fe67 1.976 . S
O82 C76 1.287 . S
O83 Fe69 1.996 . S
O83 C76 1.255 . S
C84 O77 1.287 . S
C84 O78 1.255 . S
O85 Fe67 2.002 . S
O85 C81 1.295 . S
O86 Fe69 1.997 . S
O86 C81 1.235 . S
C87 O70 1.295 . S
C87 O71 1.235 . S
H88 C93 0.930 . S
H89 C96 0.930 . S
H90 C98 0.930 . S
H91 C92 1.016 . S
C92 H91 1.016 . S
C92 N99 1.286 1_554 S
C93 H88 0.930 . S
C93 C94 1.397 . S
C93 C95 1.361 . S
C94 C93 1.397 . S
C94 C98 1.390 1_556 S
C95 C93 1.361 . S
C95 C96 1.393 1_556 S
C95 N99 1.413 . S
C96 H89 0.930 . S
C96 C95 1.393 1_554 S
C96 C97 1.399 . S
C97 C96 1.399 . S
C97 C98 1.381 . S
C98 H90 0.930 . S
C98 C94 1.390 1_554 S
C98 C97 1.381 . S
N99 C92 1.286 1_556 S
N99 C95 1.413 . S
H100 C105 0.930 . S
H101 C108 0.929 . S
H102 C110 0.930 . S
H103 C104 1.016 . S
C104 H103 1.016 . S
C104 N111 1.286 . S
C105 H100 0.930 . S
C105 C106 1.397 . S
C105 C107 1.361 1_655 S
C106 C105 1.397 . S
C106 C110 1.390 . S
C107 C105 1.361 1_455 S
C107 C108 1.393 1_455 S
C107 N111 1.413 . S
C108 H101 0.929 . S
C108 C107 1.393 1_655 S
C108 C109 1.399 . S
C109 C108 1.399 . S
C109 C110 1.381 . S
C110 H102 0.930 . S
C110 C106 1.390 . S
C110 C109 1.381 . S
N111 C104 1.286 . S
N111 C107 1.413 . S
H112 C117 0.930 . S
H113 C120 0.930 . S
H114 C122 0.930 . S
H115 C116 1.018 . S
C116 H115 1.018 . S
C116 N123 1.285 1_556 S
C117 H112 0.930 . S
C117 C118 1.397 . S
C117 C119 1.361 . S
C118 C117 1.397 . S
C118 C122 1.390 . S
C119 C117 1.361 . S
C119 C120 1.393 1_554 S
C119 N123 1.413 . S
C120 H113 0.930 . S
C120 C119 1.393 1_556 S
C120 C121 1.399 . S
C121 C120 1.399 . S
C121 C122 1.381 1_556 S
C122 H114 0.930 . S
C122 C118 1.390 . S
C122 C121 1.381 1_554 S
N123 C116 1.285 1_554 S
N123 C119 1.413 . S
H124 C129 0.930 . S
H125 C132 0.944 . S
H126 C134 0.930 . S
H127 C128 1.016 . S
C128 H127 1.016 . S
C128 N135 1.286 . S
C129 H124 0.930 . S
C129 C130 1.397 . S
C129 C131 1.361 1_455 S
C130 C129 1.397 . S
C130 C134 1.390 . S
C131 C129 1.361 1_655 S
C131 C132 1.393 1_655 S
C131 N135 1.413 . S
C132 H125 0.944 . S
C132 C131 1.393 1_455 S
C132 C133 1.399 . S
C133 C132 1.399 . S
C133 C134 1.381 . S
C134 H126 0.930 . S
C134 C130 1.390 . S
C134 C133 1.381 . S
N135 C128 1.286 . S
N135 C131 1.413 . S
H136 C141 0.930 . S
H137 C144 0.930 1_545 S
H138 C146 0.930 . S
H139 C140 1.016 . S
C140 H139 1.016 . S
C140 N147 1.286 . S
C141 H136 0.930 . S
C141 C142 1.397 . S
C141 C143 1.361 1_565 S
C142 C141 1.397 . S
C142 C146 1.390 . S
C143 C141 1.361 1_545 S
C143 C144 1.393 1_545 S
C143 N147 1.413 . S
C144 H137 0.930 1_565 S
C144 C143 1.393 1_565 S
C144 C145 1.399 . S
C145 C144 1.399 . S
C145 C146 1.381 . S
C146 H138 0.930 . S
C146 C142 1.390 . S
C146 C145 1.381 . S
N147 C140 1.286 . S
N147 C143 1.413 . S
H148 C153 0.930 . S
H149 C156 0.930 . S
H150 C158 0.930 . S
H151 C152 1.016 . S
C152 H151 1.016 . S
C152 N159 1.286 1_554 S
C153 H148 0.930 . S
C153 C154 1.397 . S
C153 C155 1.361 . S
C154 C153 1.397 . S
C154 C158 1.390 1_556 S
C155 C153 1.361 . S
C155 C156 1.393 1_556 S
C155 N159 1.413 . S
C156 H149 0.930 . S
C156 C155 1.393 1_554 S
C156 C157 1.399 . S
C157 C156 1.399 . S
C157 C158 1.381 . S
C158 H150 0.930 . S
C158 C154 1.390 1_554 S
C158 C157 1.381 . S
N159 C152 1.286 1_556 S
N159 C155 1.413 . S
H160 C165 0.930 . S
H161 C168 0.930 1_565 S
H162 C170 0.930 . S
H163 C164 1.016 . S
C164 H163 1.016 . S
C164 N171 1.286 . S
C165 H160 0.930 . S
C165 C166 1.397 . S
C165 C167 1.361 1_545 S
C166 C165 1.397 . S
C166 C170 1.390 . S
C167 C165 1.361 1_565 S
C167 C168 1.393 1_565 S
C167 N171 1.413 . S
C168 H161 0.930 1_545 S
C168 C167 1.393 1_545 S
C168 C169 1.399 . S
C169 C168 1.399 . S
C169 C170 1.381 . S
C170 H162 0.930 . S
C170 C166 1.390 . S
C170 C169 1.381 . S
N171 C164 1.286 . S
N171 C167 1.413 . S
H172 C177 0.930 . S
H173 C180 0.930 . S
H174 C182 0.930 . S
H175 C176 1.016 . S
C176 H175 1.016 . S
C176 N183 1.286 1_556 S
C177 H172 0.930 . S
C177 C178 1.397 . S
C177 C179 1.361 . S
C178 C177 1.397 . S
C178 C182 1.390 . S
C179 C177 1.361 . S
C179 C180 1.393 1_554 S
C179 N183 1.413 . S
C180 H173 0.930 . S
C180 C179 1.393 1_556 S
C180 C181 1.399 . S
C181 C180 1.399 . S
C181 C182 1.381 1_556 S
C182 H174 0.930 . S
C182 C178 1.390 . S
C182 C181 1.381 1_554 S
N183 C176 1.286 1_554 S
N183 C179 1.413 . S
C184 C185 1.387 . S
C184 H188 0.950 . S
C184 C193 1.390 . S
C185 C184 1.387 . S
C185 C187 1.387 . S
H186 C193 0.950 . S
C187 C185 1.387 . S
C187 C189 1.390 . S
C187 H191 0.950 . S
H188 C184 0.950 . S
C189 C187 1.390 . S
C189 C190 1.387 . S
C189 H192 0.950 . S
C190 C189 1.387 . S
C190 C193 1.387 . S
H191 C187 0.950 . S
H192 C189 0.950 . S
C193 C184 1.390 . S
C193 H186 0.950 . S
C193 C190 1.387 . S
C194 C195 1.387 . S
C194 H198 0.950 . S
C194 C203 1.390 . S
C195 C194 1.387 . S
C195 C197 1.387 . S
H196 C203 0.950 . S
C197 C195 1.387 . S
C197 C199 1.390 . S
C197 H201 0.950 . S
H198 C194 0.950 . S
C199 C197 1.390 . S
C199 C200 1.387 . S
C199 H202 0.950 . S
C200 C199 1.387 . S
C200 C203 1.387 . S
H201 C197 0.950 . S
H202 C199 0.950 . S
C203 C194 1.390 . S
C203 H196 0.950 . S
C203 C200 1.387 . S
C204 C205 1.387 . S
C204 H208 0.950 . S
C204 C213 1.390 . S
C205 C204 1.387 . S
C205 C207 1.387 . S
H206 C213 0.950 . S
C207 C205 1.387 . S
C207 C209 1.390 . S
C207 H211 0.950 . S
H208 C204 0.950 . S
C209 C207 1.390 . S
C209 C210 1.387 . S
C209 H212 0.950 . S
C210 C209 1.387 . S
C210 C213 1.387 . S
H211 C207 0.950 . S
H212 C209 0.950 . S
C213 C204 1.390 . S
C213 H206 0.950 . S
C213 C210 1.387 . S
C214 C215 1.387 . S
C214 H218 0.950 . S
C214 C223 1.390 . S
C215 C214 1.387 . S
C215 C217 1.387 . S
H216 C223 0.950 . S
C217 C215 1.387 . S
C217 C219 1.390 . S
C217 H221 0.950 . S
H218 C214 0.950 . S
C219 C217 1.390 . S
C219 C220 1.387 . S
C219 H222 0.950 . S
C220 C219 1.387 . S
C220 C223 1.387 . S
H221 C217 0.950 . S
H222 C219 0.950 . S
C223 C214 1.390 . S
C223 H216 0.950 . S
C223 C220 1.387 . S
C224 C225 1.387 . S
C224 H228 0.950 . S
C224 C233 1.390 . S
C225 C224 1.387 . S
C225 C227 1.387 . S
H226 C233 0.950 . S
C227 C225 1.387 . S
C227 C229 1.390 . S
C227 H231 0.950 . S
H228 C224 0.950 . S
C229 C227 1.390 . S
C229 C230 1.387 . S
C229 H232 0.950 . S
C230 C229 1.387 . S
C230 C233 1.387 . S
H231 C227 0.950 . S
H232 C229 0.950 . S
C233 C224 1.390 . S
C233 H226 0.950 . S
C233 C230 1.387 . S
C234 C235 1.387 . S
C234 H238 0.950 . S
C234 C243 1.390 . S
C235 C234 1.387 . S
C235 C237 1.387 . S
H236 C243 0.950 . S
C237 C235 1.387 . S
C237 C239 1.390 . S
C237 H241 0.950 . S
H238 C234 0.950 . S
C239 C237 1.390 . S
C239 C240 1.387 . S
C239 H242 0.950 . S
C240 C239 1.387 . S
C240 C243 1.387 . S
H241 C237 0.950 . S
H242 C239 0.950 . S
C243 C234 1.390 . S
C243 H236 0.950 . S
C243 C240 1.387 . S
C244 C245 1.387 . S
C244 H248 0.950 . S
C244 C253 1.390 . S
C245 C244 1.387 . S
C245 C247 1.387 . S
H246 C253 0.950 . S
C247 C245 1.387 . S
C247 C249 1.390 . S
C247 H251 0.950 . S
H248 C244 0.950 . S
C249 C247 1.390 . S
C249 C250 1.387 . S
C249 H252 0.950 . S
C250 C249 1.387 . S
C250 C253 1.387 . S
H251 C247 0.950 . S
H252 C249 0.950 . S
C253 C244 1.390 . S
C253 H246 0.950 . S
C253 C250 1.387 . S
C254 C255 1.387 . S
C254 H258 0.950 . S
C254 C263 1.390 . S
C255 C254 1.387 . S
C255 C257 1.387 . S
H256 C263 0.950 . S
C257 C255 1.387 . S
C257 C259 1.390 . S
C257 H261 0.950 . S
H258 C254 0.950 . S
C259 C257 1.390 . S
C259 C260 1.387 . S
C259 H262 0.950 . S
C260 C259 1.387 . S
C260 C263 1.387 . S
H261 C257 0.950 . S
H262 C259 0.950 . S
C263 C254 1.390 . S
C263 H256 0.950 . S
C263 C260 1.387 . S
C264 C265 1.387 . S
C264 H268 0.950 . S
C264 C273 1.390 . S
C265 C264 1.387 . S
C265 C267 1.387 . S
H266 C273 0.950 . S
C267 C265 1.387 . S
C267 C269 1.390 . S
C267 H271 0.950 . S
H268 C264 0.950 . S
C269 C267 1.390 . S
C269 C270 1.387 . S
C269 H272 0.950 . S
C270 C269 1.387 . S
C270 C273 1.387 . S
H271 C267 0.950 . S
H272 C269 0.950 . S
C273 C264 1.390 . S
C273 H266 0.950 . S
C273 C270 1.387 . S
C274 C275 1.387 . S
C274 H278 0.950 . S
C274 C283 1.390 . S
C275 C274 1.387 . S
C275 C277 1.387 . S
H276 C283 0.950 . S
C277 C275 1.387 . S
C277 C279 1.390 . S
C277 H281 0.950 . S
H278 C274 0.950 . S
C279 C277 1.390 . S
C279 C280 1.387 . S
C279 H282 0.950 . S
C280 C279 1.387 . S
C280 C283 1.387 . S
H281 C277 0.950 . S
H282 C279 0.950 . S
C283 C274 1.390 . S
C283 H276 0.950 . S
C283 C280 1.387 . S
C284 C285 1.387 . S
C284 H288 0.950 . S
C284 C293 1.390 . S
C285 C284 1.387 . S
C285 C287 1.387 . S
H286 C293 0.950 . S
C287 C285 1.387 . S
C287 C289 1.390 . S
C287 H291 0.950 . S
H288 C284 0.950 . S
C289 C287 1.390 . S
C289 C290 1.387 . S
C289 H292 0.950 . S
C290 C289 1.387 . S
C290 C293 1.387 . S
H291 C287 0.950 . S
H292 C289 0.950 . S
C293 C284 1.390 . S
C293 H286 0.950 . S
C293 C290 1.387 . S
C294 C295 1.387 . S
C294 H298 0.950 . S
C294 C303 1.390 . S
C295 C294 1.387 . S
C295 C297 1.387 . S
H296 C303 0.950 . S
C297 C295 1.387 . S
C297 C299 1.390 . S
C297 H301 0.950 . S
H298 C294 0.950 . S
C299 C297 1.390 . S
C299 C300 1.387 . S
C299 H302 0.950 . S
C300 C299 1.387 . S
C300 C303 1.387 . S
H301 C297 0.950 . S
H302 C299 0.950 . S
C303 C294 1.390 . S
C303 H296 0.950 . S
C303 C300 1.387 . S
C304 C305 1.387 . S
C304 H308 0.950 . S
C304 C313 1.390 . S
C305 C304 1.387 . S
C305 C307 1.387 . S
H306 C313 0.950 . S
C307 C305 1.387 . S
C307 C309 1.390 . S
C307 H311 0.950 . S
H308 C304 0.950 . S
C309 C307 1.390 . S
C309 C310 1.387 . S
C309 H312 0.950 . S
C310 C309 1.387 . S
C310 C313 1.387 . S
H311 C307 0.950 . S
H312 C309 0.950 . S
C313 C304 1.390 . S
C313 H306 0.950 . S
C313 C310 1.387 . S
C314 C315 1.387 . S
C314 H318 0.950 . S
C314 C323 1.390 . S
C315 C314 1.387 . S
C315 C317 1.387 . S
H316 C323 0.950 . S
C317 C315 1.387 . S
C317 C319 1.390 . S
C317 H321 0.950 . S
H318 C314 0.950 . S
C319 C317 1.390 . S
C319 C320 1.387 . S
C319 H322 0.950 . S
C320 C319 1.387 . S
C320 C323 1.387 . S
H321 C317 0.950 . S
H322 C319 0.950 . S
C323 C314 1.390 . S
C323 H316 0.950 . S
C323 C320 1.387 . S
C324 C325 1.387 . S
C324 H328 0.950 . S
C324 C333 1.390 . S
C325 C324 1.387 . S
C325 C327 1.387 . S
H326 C333 0.950 . S
C327 C325 1.387 . S
C327 C329 1.390 . S
C327 H331 0.950 . S
H328 C324 0.950 . S
C329 C327 1.390 . S
C329 C330 1.387 . S
C329 H332 0.950 . S
C330 C329 1.387 . S
C330 C333 1.387 . S
H331 C327 0.950 . S
H332 C329 0.950 . S
C333 C324 1.390 . S
C333 H326 0.950 . S
C333 C330 1.387 . S
C334 C335 1.387 . S
C334 H338 0.950 . S
C334 C343 1.390 . S
C335 C334 1.387 . S
C335 C337 1.387 . S
H336 C343 0.950 . S
C337 C335 1.387 . S
C337 C339 1.390 . S
C337 H341 0.950 . S
H338 C334 0.950 . S
C339 C337 1.390 . S
C339 C340 1.387 . S
C339 H342 0.950 . S
C340 C339 1.387 . S
C340 C343 1.387 . S
H341 C337 0.950 . S
H342 C339 0.950 . S
C343 C334 1.390 . S
C343 H336 0.950 . S
C343 C340 1.387 . S
C344 C345 1.387 1_556 S
C344 H348 0.950 . S
C344 C353 1.390 . S
C345 C344 1.387 1_554 S
C345 C347 1.387 . S
H346 C353 0.950 . S
C347 C345 1.387 . S
C347 C349 1.390 . S
C347 H351 0.950 . S
H348 C344 0.950 . S
C349 C347 1.390 . S
C349 C350 1.387 . S
C349 H352 0.950 . S
C350 C349 1.387 . S
C350 C353 1.387 1_554 S
H351 C347 0.950 . S
H352 C349 0.950 . S
C353 C344 1.390 . S
C353 H346 0.950 . S
C353 C350 1.387 1_556 S
C354 C355 1.387 . S
C354 H358 0.950 . S
C354 C363 1.390 . S
C355 C354 1.387 . S
C355 C357 1.387 . S
H356 C363 0.950 . S
C357 C355 1.387 . S
C357 C359 1.390 . S
C357 H361 0.950 . S
H358 C354 0.950 . S
C359 C357 1.390 . S
C359 C360 1.387 . S
C359 H362 0.950 . S
C360 C359 1.387 . S
C360 C363 1.387 . S
H361 C357 0.950 . S
H362 C359 0.950 . S
C363 C354 1.390 . S
C363 H356 0.950 . S
C363 C360 1.387 . S
C364 C365 1.387 1_556 S
C364 H368 0.950 . S
C364 C373 1.390 . S
C365 C364 1.387 1_554 S
C365 C367 1.387 . S
H366 C373 0.950 . S
C367 C365 1.387 . S
C367 C369 1.390 . S
C367 H371 0.950 . S
H368 C364 0.950 . S
C369 C367 1.390 . S
C369 C370 1.387 . S
C369 H372 0.950 . S
C370 C369 1.387 . S
C370 C373 1.387 1_554 S
H371 C367 0.950 . S
H372 C369 0.950 . S
C373 C364 1.390 . S
C373 H366 0.950 . S
C373 C370 1.387 1_556 S
C374 C375 1.387 . S
C374 H378 0.950 . S
C374 C383 1.390 . S
C375 C374 1.387 . S
C375 C377 1.387 . S
H376 C383 0.950 . S
C377 C375 1.387 . S
C377 C379 1.390 . S
C377 H381 0.950 . S
H378 C374 0.950 . S
C379 C377 1.390 . S
C379 C380 1.387 . S
C379 H382 0.950 . S
C380 C379 1.387 . S
C380 C383 1.387 . S
H381 C377 0.950 . S
H382 C379 0.950 . S
C383 C374 1.390 . S
C383 H376 0.950 . S
C383 C380 1.387 . S
C384 C385 1.387 . S
C384 H388 0.950 . S
C384 C393 1.390 . S
C385 C384 1.387 . S
C385 C387 1.387 . S
H386 C393 0.950 . S
C387 C385 1.387 . S
C387 C389 1.390 . S
C387 H391 0.950 . S
H388 C384 0.950 . S
C389 C387 1.390 . S
C389 C390 1.387 . S
C389 H392 0.950 . S
C390 C389 1.387 . S
C390 C393 1.387 . S
H391 C387 0.950 . S
H392 C389 0.950 . S
C393 C384 1.390 . S
C393 H386 0.950 . S
C393 C390 1.387 . S
C394 C395 1.387 1_556 S
C394 H398 0.950 . S
C394 C403 1.390 . S
C395 C394 1.387 1_554 S
C395 C397 1.387 . S
H396 C403 0.950 . S
C397 C395 1.387 . S
C397 C399 1.390 . S
C397 H401 0.950 . S
H398 C394 0.950 . S
C399 C397 1.390 . S
C399 C400 1.387 . S
C399 H402 0.950 . S
C400 C399 1.387 . S
C400 C403 1.387 1_554 S
H401 C397 0.950 . S
H402 C399 0.950 . S
C403 C394 1.390 . S
C403 H396 0.950 . S
C403 C400 1.387 1_556 S
C404 C405 1.387 . S
C404 H408 0.950 . S
C404 C413 1.390 . S
C405 C404 1.387 . S
C405 C407 1.387 . S
H406 C413 0.950 . S
C407 C405 1.387 . S
C407 C409 1.390 . S
C407 H411 0.950 . S
H408 C404 0.950 . S
C409 C407 1.390 . S
C409 C410 1.387 . S
C409 H412 0.950 . S
C410 C409 1.387 . S
C410 C413 1.387 . S
H411 C407 0.950 . S
H412 C409 0.950 . S
C413 C404 1.390 . S
C413 H406 0.950 . S
C413 C410 1.387 . S
C414 C415 1.387 . S
C414 H418 0.950 . S
C414 C423 1.390 . S
C415 C414 1.387 . S
C415 C417 1.387 1_554 S
H416 C423 0.950 . S
C417 C415 1.387 1_556 S
C417 C419 1.390 . S
C417 H421 0.950 . S
H418 C414 0.950 . S
C419 C417 1.390 . S
C419 C420 1.387 1_556 S
C419 H422 0.950 . S
C420 C419 1.387 1_554 S
C420 C423 1.387 . S
H421 C417 0.950 . S
H422 C419 0.950 . S
C423 C414 1.390 . S
C423 H416 0.950 . S
C423 C420 1.387 . S
C185 C21 1.486 . S
C190 C130 1.496 . S
C195 C40 1.500 . S
C200 C94 1.491 . S
C210 C109 1.458 . S
C205 C54 1.480 . S
C215 C73 1.524 . S
C220 C121 1.505 . S
C230 C157 1.450 . S
C225 C74 1.471 . S
C240 C169 1.482 . S
C235 C10 1.518 . S
C250 C178 1.502 . S
C245 C37 1.497 . S
C260 C142 1.512 . S
C255 C65 1.508 . S
C265 C52 1.453 . S
C270 C106 1.452 . S
C275 C87 1.516 . S
C280 C118 1.506 . S
C285 C15 1.516 . S
C290 C133 1.504 . S
C300 C97 1.476 . S
C295 C32 1.504 . S
C305 C29 1.506 . S
C310 C181 1.498 . S
C320 C145 1.516 . S
C315 C59 1.534 . S
C330 C154 1.457 . S
C325 C84 1.460 . S
C335 C8 1.486 . S
C340 C166 1.469 . S
C350 C92 1.519 . S
C345 C7 1.529 . S
C360 C104 1.483 . S
C355 C30 1.488 . S
C365 C62 1.533 . S
C370 C116 1.524 1_554 S
C375 C81 1.502 . S
C380 C128 1.509 . S
C390 C140 1.514 . S
C385 C76 1.533 . S
C395 C18 1.489 . S
C400 C152 1.484 . S
C405 C43 1.528 . S
C410 C164 1.526 . S
C415 C51 1.500 . S
C420 C176 1.509 1_554 S
