# Generated by pormake.
# Topology eea, (3,6)-cn, num edge types: 1
# Building blocks:
#     Node 0, Type 0, BuildingBlock: PAMTOO_clean_linker_0, # of connection points: 3
#     Node 1, Type 0, BuildingBlock: PAMTOO_clean_linker_0, # of connection points: 3
#     Node 2, Type 0, BuildingBlock: PAMTOO_clean_linker_0, # of connection points: 3
#     Node 3, Type 0, BuildingBlock: PAMTOO_clean_linker_0, # of connection points: 3
#     Node 4, Type 0, BuildingBlock: PAMTOO_clean_linker_0, # of connection points: 3
#     Node 5, Type 0, BuildingBlock: PAMTOO_clean_linker_0, # of connection points: 3
#     Node 6, Type 0, BuildingBlock: PAMTOO_clean_linker_0, # of connection points: 3
#     Node 7, Type 0, BuildingBlock: PAMTOO_clean_linker_0, # of connection points: 3
#     Node 8, Type 0, BuildingBlock: PAMTOO_clean_linker_0, # of connection points: 3
#     Node 9, Type 0, BuildingBlock: PAMTOO_clean_linker_0, # of connection points: 3
#     Node 10, Type 0, BuildingBlock: PAMTOO_clean_linker_0, # of connection points: 3
#     Node 11, Type 0, BuildingBlock: PAMTOO_clean_linker_0, # of connection points: 3
#     Node 12, Type 0, BuildingBlock: PAMTOO_clean_linker_0, # of connection points: 3
#     Node 13, Type 0, BuildingBlock: PAMTOO_clean_linker_0, # of connection points: 3
#     Node 14, Type 0, BuildingBlock: PAMTOO_clean_linker_0, # of connection points: 3
#     Node 15, Type 0, BuildingBlock: PAMTOO_clean_linker_0, # of connection points: 3
#     Node 16, Type 0, BuildingBlock: PAMTOO_clean_linker_0, # of connection points: 3
#     Node 17, Type 0, BuildingBlock: PAMTOO_clean_linker_0, # of connection points: 3
#     Node 18, Type 1, BuildingBlock: HISSIN_clean_sbu_0, # of connection points: 6
#     Node 19, Type 1, BuildingBlock: HISSIN_clean_sbu_0, # of connection points: 6
#     Node 20, Type 1, BuildingBlock: HISSIN_clean_sbu_0, # of connection points: 6
#     Node 21, Type 1, BuildingBlock: HISSIN_clean_sbu_0, # of connection points: 6
#     Node 22, Type 1, BuildingBlock: HISSIN_clean_sbu_0, # of connection points: 6
#     Node 23, Type 1, BuildingBlock: HISSIN_clean_sbu_0, # of connection points: 6
#     Node 24, Type 1, BuildingBlock: HISSIN_clean_sbu_0, # of connection points: 6
#     Node 25, Type 1, BuildingBlock: HISSIN_clean_sbu_0, # of connection points: 6
#     Node 26, Type 1, BuildingBlock: HISSIN_clean_sbu_0, # of connection points: 6
#     Edge 27, Type (0, 1), BuildingBlock: TEMPAE_clean_linker_10, # of connection points: 2
#     Edge 28, Type (0, 1), BuildingBlock: TEMPAE_clean_linker_10, # of connection points: 2
#     Edge 29, Type (0, 1), BuildingBlock: TEMPAE_clean_linker_10, # of connection points: 2
#     Edge 30, Type (0, 1), BuildingBlock: TEMPAE_clean_linker_10, # of connection points: 2
#     Edge 31, Type (0, 1), BuildingBlock: TEMPAE_clean_linker_10, # of connection points: 2
#     Edge 32, Type (0, 1), BuildingBlock: TEMPAE_clean_linker_10, # of connection points: 2
#     Edge 33, Type (0, 1), BuildingBlock: TEMPAE_clean_linker_10, # of connection points: 2
#     Edge 34, Type (0, 1), BuildingBlock: TEMPAE_clean_linker_10, # of connection points: 2
#     Edge 35, Type (0, 1), BuildingBlock: TEMPAE_clean_linker_10, # of connection points: 2
#     Edge 36, Type (0, 1), BuildingBlock: TEMPAE_clean_linker_10, # of connection points: 2
#     Edge 37, Type (0, 1), BuildingBlock: TEMPAE_clean_linker_10, # of connection points: 2
#     Edge 38, Type (0, 1), BuildingBlock: TEMPAE_clean_linker_10, # of connection points: 2
#     Edge 39, Type (0, 1), BuildingBlock: TEMPAE_clean_linker_10, # of connection points: 2
#     Edge 40, Type (0, 1), BuildingBlock: TEMPAE_clean_linker_10, # of connection points: 2
#     Edge 41, Type (0, 1), BuildingBlock: TEMPAE_clean_linker_10, # of connection points: 2
#     Edge 42, Type (0, 1), BuildingBlock: TEMPAE_clean_linker_10, # of connection points: 2
#     Edge 43, Type (0, 1), BuildingBlock: TEMPAE_clean_linker_10, # of connection points: 2
#     Edge 44, Type (0, 1), BuildingBlock: TEMPAE_clean_linker_10, # of connection points: 2
#     Edge 45, Type (0, 1), BuildingBlock: TEMPAE_clean_linker_10, # of connection points: 2
#     Edge 46, Type (0, 1), BuildingBlock: TEMPAE_clean_linker_10, # of connection points: 2
#     Edge 47, Type (0, 1), BuildingBlock: TEMPAE_clean_linker_10, # of connection points: 2
#     Edge 48, Type (0, 1), BuildingBlock: TEMPAE_clean_linker_10, # of connection points: 2
#     Edge 49, Type (0, 1), BuildingBlock: TEMPAE_clean_linker_10, # of connection points: 2
#     Edge 50, Type (0, 1), BuildingBlock: TEMPAE_clean_linker_10, # of connection points: 2
#     Edge 51, Type (0, 1), BuildingBlock: TEMPAE_clean_linker_10, # of connection points: 2
#     Edge 52, Type (0, 1), BuildingBlock: TEMPAE_clean_linker_10, # of connection points: 2
#     Edge 53, Type (0, 1), BuildingBlock: TEMPAE_clean_linker_10, # of connection points: 2
#     Edge 54, Type (0, 1), BuildingBlock: TEMPAE_clean_linker_10, # of connection points: 2
#     Edge 55, Type (0, 1), BuildingBlock: TEMPAE_clean_linker_10, # of connection points: 2
#     Edge 56, Type (0, 1), BuildingBlock: TEMPAE_clean_linker_10, # of connection points: 2
#     Edge 57, Type (0, 1), BuildingBlock: TEMPAE_clean_linker_10, # of connection points: 2
#     Edge 58, Type (0, 1), BuildingBlock: TEMPAE_clean_linker_10, # of connection points: 2
#     Edge 59, Type (0, 1), BuildingBlock: TEMPAE_clean_linker_10, # of connection points: 2
#     Edge 60, Type (0, 1), BuildingBlock: TEMPAE_clean_linker_10, # of connection points: 2
#     Edge 61, Type (0, 1), BuildingBlock: TEMPAE_clean_linker_10, # of connection points: 2
#     Edge 62, Type (0, 1), BuildingBlock: TEMPAE_clean_linker_10, # of connection points: 2
#     Edge 63, Type (0, 1), BuildingBlock: TEMPAE_clean_linker_10, # of connection points: 2
#     Edge 64, Type (0, 1), BuildingBlock: TEMPAE_clean_linker_10, # of connection points: 2
#     Edge 65, Type (0, 1), BuildingBlock: TEMPAE_clean_linker_10, # of connection points: 2
#     Edge 66, Type (0, 1), BuildingBlock: TEMPAE_clean_linker_10, # of connection points: 2
#     Edge 67, Type (0, 1), BuildingBlock: TEMPAE_clean_linker_10, # of connection points: 2
#     Edge 68, Type (0, 1), BuildingBlock: TEMPAE_clean_linker_10, # of connection points: 2
#     Edge 69, Type (0, 1), BuildingBlock: TEMPAE_clean_linker_10, # of connection points: 2
#     Edge 70, Type (0, 1), BuildingBlock: TEMPAE_clean_linker_10, # of connection points: 2
#     Edge 71, Type (0, 1), BuildingBlock: TEMPAE_clean_linker_10, # of connection points: 2
#     Edge 72, Type (0, 1), BuildingBlock: TEMPAE_clean_linker_10, # of connection points: 2
#     Edge 73, Type (0, 1), BuildingBlock: TEMPAE_clean_linker_10, # of connection points: 2
#     Edge 74, Type (0, 1), BuildingBlock: TEMPAE_clean_linker_10, # of connection points: 2
#     Edge 75, Type (0, 1), BuildingBlock: TEMPAE_clean_linker_10, # of connection points: 2
#     Edge 76, Type (0, 1), BuildingBlock: TEMPAE_clean_linker_10, # of connection points: 2
#     Edge 77, Type (0, 1), BuildingBlock: TEMPAE_clean_linker_10, # of connection points: 2
#     Edge 78, Type (0, 1), BuildingBlock: TEMPAE_clean_linker_10, # of connection points: 2
#     Edge 79, Type (0, 1), BuildingBlock: TEMPAE_clean_linker_10, # of connection points: 2
#     Edge 80, Type (0, 1), BuildingBlock: TEMPAE_clean_linker_10, # of connection points: 2
# Relax obj value: 0.057
# Max RMSD: 0.206
# Mean RMSD: 0.146
data_MOF--net-eea--node1-HISSIN_clean_sbu_0--node2-PAMTOO_clean_linker_0--edge1-TEMPAE_clean_linker_10
_symmetry_space_group_name_H-M    P1
_symmetry_Int_Tables_number       1
_symmetry_cell_setting            triclinic
loop_
_symmetry_equiv_pos_as_xyz
'x, y, z'
_cell_length_a     55.284171
_cell_length_b     55.681693
_cell_length_c     70.406751
_cell_angle_alpha  93.307975
_cell_angle_beta   93.35646
_cell_angle_gamma 119.80113
loop_
_atom_site_label
_atom_site_type_symbol
_atom_site_fract_x
_atom_site_fract_y
_atom_site_fract_z
_atom_type_partial_charge
H0 H 0.26805 0.08994 0.42304 0.0
H1 H 0.26733 0.16699 0.42311 0.0
H2 H 0.23584 0.1094 0.37267 0.0
H3 H 0.26343 0.16672 0.36357 0.0
C4 C 0.26212 0.17691 0.37723 0.0
O5 O 0.24418 0.15696 0.38811 0.0
H6 H 0.28354 0.18888 0.38496 0.0
C7 C 0.26397 0.10429 0.41562 0.0
C8 C 0.25181 0.09677 0.39657 0.0
C9 C 0.26955 0.12949 0.42545 0.0
C10 C 0.26309 0.14737 0.4159 0.0
C11 C 0.25105 0.14004 0.39694 0.0
C12 C 0.24528 0.1148 0.38734 0.0
H13 H 0.94909 0.17968 0.4301 0.0
H14 H 0.87287 0.10033 0.42661 0.0
H15 H 0.92189 0.12253 0.37903 0.0
H16 H 0.85764 0.08861 0.36793 0.0
C17 C 0.85244 0.08015 0.382 0.0
O18 O 0.87663 0.0843 0.39204 0.0
H19 H 0.84335 0.0912 0.38988 0.0
C20 C 0.93433 0.15974 0.42233 0.0
C21 C 0.93868 0.15338 0.40362 0.0
C22 C 0.91034 0.14096 0.43067 0.0
C23 C 0.89122 0.11535 0.42034 0.0
C24 C 0.89534 0.10894 0.40177 0.0
C25 C 0.91888 0.1279 0.3934 0.0
H26 H 0.84225 0.76329 0.43839 0.0
H27 H 0.92313 0.76978 0.43896 0.0
H28 H 0.89555 0.80192 0.39402 0.0
H29 H 0.9218 0.76835 0.38201 0.0
C30 C 0.93767 0.77468 0.39455 0.0
O31 O 0.93551 0.79337 0.40714 0.0
H32 H 0.93335 0.75584 0.40172 0.0
C33 C 0.86168 0.77001 0.43202 0.0
C34 C 0.86605 0.78338 0.41512 0.0
C35 C 0.88215 0.76524 0.44095 0.0
C36 C 0.90723 0.7736 0.43253 0.0
C37 C 0.91166 0.78625 0.41544 0.0
C38 C 0.89133 0.79141 0.40693 0.0
H39 H 0.06562 0.23401 0.57768 0.0
H40 H 0.14134 0.22937 0.57933 0.0
H41 H 0.09164 0.20636 0.62663 0.0
H42 H 0.15481 0.2391 0.63686 0.0
C43 C 0.16097 0.23178 0.62396 0.0
O44 O 0.13702 0.21155 0.61305 0.0
H45 H 0.17276 0.24976 0.6156 0.0
C46 C 0.08021 0.22896 0.5848 0.0
C47 C 0.07544 0.21927 0.60301 0.0
C48 C 0.10422 0.23326 0.57617 0.0
C49 C 0.12305 0.22691 0.58582 0.0
C50 C 0.11861 0.21746 0.60399 0.0
C51 C 0.09497 0.21384 0.61261 0.0
H52 H 0.75827 0.83035 0.59512 0.0
H53 H 0.7593 0.9084 0.60053 0.0
H54 H 0.78907 0.88287 0.6484 0.0
H55 H 0.76282 0.91563 0.66123 0.0
C56 C 0.76197 0.92374 0.64729 0.0
O57 O 0.78057 0.92159 0.6361 0.0
H58 H 0.74014 0.91115 0.64026 0.0
C59 C 0.76312 0.84941 0.60354 0.0
C60 C 0.77443 0.85421 0.62271 0.0
C61 C 0.75734 0.86869 0.59535 0.0
C62 C 0.76308 0.89296 0.60659 0.0
C63 C 0.77431 0.89782 0.62565 0.0
C64 C 0.77997 0.87856 0.63369 0.0
H65 H 0.16769 0.92142 0.58285 0.0
H66 H 0.08673 0.84684 0.5784 0.0
H67 H 0.11632 0.90314 0.62954 0.0
H68 H 0.08875 0.84601 0.63726 0.0
C69 C 0.0743 0.83584 0.62396 0.0
O70 O 0.07556 0.85587 0.61273 0.0
H71 H 0.0811 0.82266 0.61605 0.0
C72 C 0.14844 0.90792 0.58891 0.0
C73 C 0.14458 0.9154 0.60741 0.0
C74 C 0.12772 0.88337 0.57814 0.0
C75 C 0.10308 0.86587 0.58636 0.0
C76 C 0.09915 0.873 0.60487 0.0
C77 C 0.11965 0.89787 0.61525 0.0
H78 H 0.92651 0.42232 0.75693 0.0
H79 H 0.92985 0.50116 0.75532 0.0
H80 H 0.90087 0.44379 0.70475 0.0
H81 H 0.93103 0.50103 0.69557 0.0
C82 C 0.92918 0.51161 0.70883 0.0
O83 O 0.91011 0.49209 0.71945 0.0
H84 H 0.95016 0.52327 0.71718 0.0
C85 C 0.92314 0.43685 0.7492 0.0
C86 C 0.91297 0.42993 0.72977 0.0
C87 C 0.92945 0.46254 0.75861 0.0
C88 C 0.92564 0.48144 0.74828 0.0
C89 C 0.91544 0.47462 0.72892 0.0
C90 C 0.90921 0.449 0.71967 0.0
H91 H 0.61129 0.52197 0.76502 0.0
H92 H 0.53875 0.44003 0.76355 0.0
H93 H 0.59409 0.45857 0.71966 0.0
H94 H 0.53584 0.41885 0.70382 0.0
C95 C 0.5268 0.41444 0.71775 0.0
O96 O 0.54788 0.42066 0.732 0.0
H97 H 0.51724 0.42768 0.72054 0.0
C98 C 0.59823 0.50092 0.75827 0.0
C99 C 0.6057 0.49259 0.7414 0.0
C100 C 0.57412 0.48212 0.76651 0.0
C101 C 0.5573 0.455 0.75745 0.0
C102 C 0.56447 0.44669 0.74061 0.0
C103 C 0.58877 0.46529 0.73273 0.0
H104 H 0.51049 0.09703 0.77034 0.0
H105 H 0.59122 0.10311 0.77127 0.0
H106 H 0.56564 0.1385 0.72748 0.0
H107 H 0.59374 0.11036 0.71287 0.0
C108 C 0.6067 0.11178 0.72604 0.0
O109 O 0.60495 0.12881 0.74032 0.0
H110 H 0.59818 0.09044 0.73057 0.0
C111 C 0.53017 0.1041 0.76424 0.0
C112 C 0.53522 0.11851 0.74779 0.0
C113 C 0.55028 0.09877 0.77307 0.0
C114 C 0.57561 0.10742 0.76493 0.0
C115 C 0.58079 0.12124 0.74833 0.0
C116 C 0.56088 0.12714 0.74 0.0
H117 H 0.73351 0.57352 0.91205 0.0
H118 H 0.80781 0.56653 0.9133 0.0
H119 H 0.75681 0.54154 0.95982 0.0
H120 H 0.81921 0.57218 0.97076 0.0
C121 C 0.82562 0.56559 0.95767 0.0
O122 O 0.80184 0.5462 0.9462 0.0
H123 H 0.83791 0.58418 0.94994 0.0
C124 C 0.74781 0.56819 0.91926 0.0
C125 C 0.74208 0.55713 0.93703 0.0
C126 C 0.77139 0.5716 0.91043 0.0
C127 C 0.78929 0.56375 0.91963 0.0
C128 C 0.78406 0.55311 0.9374 0.0
C129 C 0.7605 0.5497 0.94602 0.0
H130 H 0.41223 0.15483 0.93191 0.0
H131 H 0.41599 0.23423 0.93437 0.0
H132 H 0.44522 0.21065 0.98363 0.0
H133 H 0.41561 0.24548 0.9929 0.0
C134 C 0.41792 0.25345 0.97861 0.0
O135 O 0.4373 0.2491 0.96988 0.0
H136 H 0.39712 0.24222 0.97001 0.0
C137 C 0.41726 0.17436 0.93974 0.0
C138 C 0.42933 0.18048 0.95876 0.0
C139 C 0.41229 0.19359 0.9307 0.0
C140 C 0.41913 0.21883 0.94109 0.0
C141 C 0.43051 0.22465 0.96018 0.0
C142 C 0.43582 0.20566 0.96896 0.0
H143 H 0.83175 0.24786 0.91537 0.0
H144 H 0.75328 0.17147 0.91546 0.0
H145 H 0.78202 0.23458 0.96263 0.0
H146 H 0.75465 0.17973 0.97467 0.0
C147 C 0.74106 0.16748 0.96141 0.0
O148 O 0.74174 0.18532 0.94836 0.0
H149 H 0.74932 0.15436 0.95539 0.0
C150 C 0.8134 0.23456 0.92237 0.0
C151 C 0.80975 0.24424 0.94024 0.0
C152 C 0.79325 0.20837 0.91319 0.0
C153 C 0.76902 0.19185 0.92212 0.0
C154 C 0.76506 0.20138 0.93988 0.0
C155 C 0.78525 0.22757 0.94883 0.0
H156 H 0.60315 0.75951 0.09191 0.0
H157 H 0.60183 0.8361 0.09021 0.0
H158 H 0.56837 0.77571 0.04123 0.0
H159 H 0.59475 0.83166 0.0303 0.0
C160 C 0.59414 0.84288 0.04369 0.0
O161 O 0.57708 0.82395 0.05551 0.0
H162 H 0.61588 0.85546 0.05084 0.0
C163 C 0.59863 0.77333 0.08416 0.0
C164 C 0.58563 0.76468 0.06536 0.0
C165 C 0.60448 0.79898 0.09338 0.0
C166 C 0.59745 0.81617 0.08345 0.0
C167 C 0.58455 0.80771 0.06471 0.0
C168 C 0.5785 0.78201 0.05573 0.0
H169 H 0.27784 0.85085 0.09607 0.0
H170 H 0.20221 0.77117 0.09482 0.0
H171 H 0.25109 0.79016 0.04719 0.0
H172 H 0.18723 0.75665 0.03685 0.0
C173 C 0.18186 0.74766 0.05075 0.0
O174 O 0.20616 0.7527 0.06115 0.0
H175 H 0.17174 0.75768 0.05857 0.0
C176 C 0.26274 0.83063 0.08882 0.0
C177 C 0.26717 0.82284 0.07055 0.0
C178 C 0.23955 0.81204 0.09799 0.0
C179 C 0.22062 0.78571 0.08838 0.0
C180 C 0.22471 0.77801 0.07013 0.0
C181 C 0.24804 0.79641 0.0613 0.0
H182 H 0.17399 0.43049 0.10263 0.0
H183 H 0.25546 0.4378 0.10513 0.0
H184 H 0.22638 0.4639 0.05708 0.0
H185 H 0.25487 0.43153 0.04861 0.0
C186 C 0.27104 0.4399 0.06113 0.0
O187 O 0.26782 0.45901 0.07248 0.0
H188 H 0.26802 0.42237 0.06944 0.0
C189 C 0.19325 0.43601 0.09626 0.0
C190 C 0.19739 0.44739 0.07862 0.0
C191 C 0.21395 0.43238 0.10604 0.0
C192 C 0.2393 0.44066 0.098 0.0
C193 C 0.24366 0.45186 0.08034 0.0
C194 C 0.22283 0.45537 0.07077 0.0
H195 H 0.40153 0.90674 0.24633 0.0
H196 H 0.47517 0.89865 0.24774 0.0
H197 H 0.42396 0.87435 0.29422 0.0
H198 H 0.48647 0.90463 0.30528 0.0
C199 C 0.49283 0.89793 0.29221 0.0
O200 O 0.469 0.87857 0.28077 0.0
H201 H 0.50517 0.91647 0.28445 0.0
C202 C 0.41564 0.90121 0.25359 0.0
C203 C 0.40971 0.89022 0.27136 0.0
C204 C 0.43911 0.90426 0.24481 0.0
C205 C 0.45676 0.89615 0.25407 0.0
C206 C 0.45138 0.88562 0.27187 0.0
C207 C 0.42785 0.8825 0.28042 0.0
H208 H 0.07677 0.48618 0.26301 0.0
H209 H 0.08202 0.56629 0.26542 0.0
H210 H 0.11319 0.54325 0.314 0.0
H211 H 0.08443 0.57771 0.32425 0.0
C212 C 0.08617 0.58605 0.3101 0.0
O213 O 0.1049 0.58161 0.30055 0.0
H214 H 0.06506 0.57518 0.30191 0.0
C215 C 0.08254 0.50601 0.2707 0.0
C216 C 0.0957 0.5125 0.28944 0.0
C217 C 0.07747 0.52526 0.26175 0.0
C218 C 0.0852 0.55085 0.27204 0.0
C219 C 0.09754 0.55697 0.29089 0.0
C220 C 0.10304 0.53801 0.29952 0.0
H221 H 0.49869 0.58527 0.24913 0.0
H222 H 0.41971 0.50881 0.24644 0.0
H223 H 0.44883 0.56689 0.2967 0.0
H224 H 0.42304 0.51076 0.30553 0.0
C225 C 0.40806 0.49969 0.29257 0.0
O226 O 0.40858 0.51876 0.28068 0.0
H227 H 0.41463 0.48608 0.28499 0.0
C228 C 0.47998 0.57148 0.25564 0.0
C229 C 0.47641 0.57917 0.27416 0.0
C230 C 0.45965 0.54626 0.2454 0.0
C231 C 0.43566 0.52836 0.25407 0.0
C232 C 0.43184 0.5359 0.27251 0.0
C233 C 0.452 0.56136 0.28242 0.0
Eu234 Eu 0.48641 0.98946 0.98558 0.0
Eu235 Eu 0.5043 0.0146 0.03159 0.0
C236 C 0.48067 0.04159 0.00182 0.0
C237 C 0.48325 0.98536 0.9313 0.0
C238 C 0.49786 0.01447 0.93169 0.0
C239 C 0.48541 0.98164 0.89698 0.0
C240 C 0.50623 0.02709 0.91479 0.0
C241 C 0.47702 0.96906 0.91387 0.0
C242 C 0.50024 0.01081 0.89724 0.0
C243 C 0.4757 0.97191 0.9491 0.0
O244 O 0.45796 0.98508 0.02867 0.0
O245 O 0.4523 0.95721 0.00137 0.0
C246 C 0.44347 0.96186 0.01739 0.0
O247 O 0.51399 0.97442 0.99853 0.0
O248 O 0.49824 0.03326 0.05766 0.0
O249 O 0.53129 0.02305 0.05797 0.0
O250 O 0.50183 0.97299 0.02899 0.0
C251 C 0.51227 0.96512 0.01535 0.0
O252 O 0.52511 0.03151 0.98634 0.0
O253 O 0.54402 0.0347 0.01692 0.0
O254 O 0.49779 0.04627 0.01712 0.0
O255 O 0.49644 0.97358 0.96 0.0
O256 O 0.45889 0.97657 0.9589 0.0
O257 O 0.47017 0.01889 0.98998 0.0
C258 C 0.50788 0.01695 0.08611 0.0
C259 C 0.52551 0.01024 0.0969 0.0
C260 C 0.47399 0.99809 0.10956 0.0
C261 C 0.51742 0.99745 0.11375 0.0
C262 C 0.48203 0.01078 0.09267 0.0
C263 C 0.49159 0.99127 0.12033 0.0
C264 C 0.51671 0.03044 0.06823 0.0
C265 C 0.54663 0.04222 0.99944 0.0
H266 H 0.50307 0.0274 0.94508 0.0
H267 H 0.48013 0.9685 0.88369 0.0
H268 H 0.51786 0.04958 0.91554 0.0
H269 H 0.46584 0.94657 0.91333 0.0
H270 H 0.54558 0.01479 0.09227 0.0
H271 H 0.45415 0.99402 0.11433 0.0
H272 H 0.53134 0.99217 0.12152 0.0
H273 H 0.46798 0.01582 0.08481 0.0
Eu274 Eu 0.01545 0.49407 0.98863 0.0
Eu275 Eu 0.98932 0.48372 0.03006 0.0
C276 C 0.96225 0.43624 0.99471 0.0
C277 C 0.02505 0.50035 0.93564 0.0
C278 C 0.9964 0.48991 0.93066 0.0
C279 C 0.03357 0.50674 0.90244 0.0
C280 C 0.98635 0.48776 0.9116 0.0
C281 C 0.04358 0.50886 0.92149 0.0
C282 C 0.00482 0.49605 0.89726 0.0
C283 C 0.03582 0.50244 0.95553 0.0
O284 O 0.03144 0.48695 0.03526 0.0
O285 O 0.03421 0.47235 0.00484 0.0
C286 C 0.04238 0.47703 0.02326 0.0
O287 O 0.04746 0.52922 0.00946 0.0
O288 O 0.97435 0.45724 0.05321 0.0
O289 O 0.97282 0.49541 0.05414 0.0
O290 O 0.0176 0.53019 0.03021 0.0
C291 C 0.04166 0.54242 0.02281 0.0
O292 O 0.98684 0.51225 0.98868 0.0
O293 O 0.9573 0.48581 0.01006 0.0
O294 O 0.97077 0.4418 0.01305 0.0
O295 O 0.03638 0.52196 0.96704 0.0
O296 O 0.02649 0.47901 0.96318 0.0
O297 O 0.97309 0.45551 0.98294 0.0
C298 C 0.98062 0.48048 0.08386 0.0
C299 C 0.99074 0.50686 0.09378 0.0
C300 C 0.99029 0.46414 0.11307 0.0
C301 C 1.0006 0.51181 0.11316 0.0
C302 C 0.98033 0.45916 0.09376 0.0
C303 C 1.00051 0.4905 0.12303 0.0
C304 C 0.96975 0.47459 0.06343 0.0
C305 C 0.96296 0.50228 0.99634 0.0
H306 H 0.98184 0.48326 0.94149 0.0
H307 H 0.04835 0.51362 0.89177 0.0
H308 H 0.96406 0.47915 0.90803 0.0
H309 H 0.06579 0.51709 0.92518 0.0
H310 H 0.99098 0.52367 0.08662 0.0
H311 H 0.99026 0.44737 0.12016 0.0
H312 H 0.00796 0.53224 0.12048 0.0
H313 H 0.97244 0.43856 0.08654 0.0
Eu314 Eu 0.52526 0.51184 0.02648 0.0
Eu315 Eu 0.50345 0.51869 0.98367 0.0
C316 C 0.53068 0.56897 0.01676 0.0
C317 C 0.53069 0.50878 0.07987 0.0
C318 C 0.51217 0.51894 0.08176 0.0
C319 C 0.53037 0.50228 0.11366 0.0
C320 C 0.50288 0.52086 0.09951 0.0
C321 C 0.53969 0.50042 0.09588 0.0
C322 C 0.51185 0.51254 0.11569 0.0
C323 C 0.53991 0.50613 0.06113 0.0
O324 O 0.5415 0.51472 0.97996 0.0
O325 O 0.56371 0.53106 0.01028 0.0
C326 C 0.56427 0.52538 0.99195 0.0
O327 O 0.51783 0.47475 0.0073 0.0
O328 O 0.50866 0.54465 0.96046 0.0
O329 O 0.47524 0.50184 0.95725 0.0
O330 O 0.48295 0.47285 0.98714 0.0
C331 C 0.4956 0.4607 0.99499 0.0
O332 O 0.47857 0.4947 0.02594 0.0
O333 O 0.4717 0.51837 0.00252 0.0
O334 O 0.53112 0.56166 0.99881 0.0
O335 O 0.52122 0.48547 0.0492 0.0
O336 O 0.55317 0.52908 0.05295 0.0
O337 O 0.52259 0.55072 0.02932 0.0
C338 C 0.49799 0.52044 0.93004 0.0
C339 C 0.51649 0.5102 0.92851 0.0
C340 C 0.4977 0.52515 0.89599 0.0
C341 C 0.5256 0.5075 0.91084 0.0
C342 C 0.48864 0.52789 0.91371 0.0
C343 C 0.51631 0.51494 0.89436 0.0
C344 C 0.4893 0.52427 0.94875 0.0
C345 C 0.46334 0.50372 0.01724 0.0
H346 H 0.50492 0.52538 0.06948 0.0
H347 H 0.53739 0.49537 0.12576 0.0
H348 H 0.48894 0.5292 0.10061 0.0
H349 H 0.55379 0.49231 0.09461 0.0
H350 H 0.52403 0.50449 0.94103 0.0
H351 H 0.4899 0.53075 0.88353 0.0
H352 H 0.54021 0.49993 0.91015 0.0
H353 H 0.47441 0.5359 0.91467 0.0
Eu354 Eu 0.1563 0.32387 0.31915 0.0
Eu355 Eu 0.17103 0.34886 0.36489 0.0
C356 C 0.14865 0.37534 0.3342 0.0
C357 C 0.1533 0.31971 0.26502 0.0
C358 C 0.16662 0.34878 0.26553 0.0
C359 C 0.15489 0.3166 0.23063 0.0
C360 C 0.17412 0.36171 0.24867 0.0
C361 C 0.14738 0.30371 0.24749 0.0
C362 C 0.16851 0.34577 0.23102 0.0
C363 C 0.14677 0.30607 0.28278 0.0
O364 O 0.12447 0.32028 0.35951 0.0
O365 O 0.12325 0.29075 0.335 0.0
C366 C 0.11178 0.29606 0.34927 0.0
O367 O 0.18483 0.31067 0.33301 0.0
O368 O 0.16148 0.36532 0.39048 0.0
O369 O 0.19653 0.35811 0.39208 0.0
O370 O 0.17033 0.30802 0.36283 0.0
C371 C 0.18236 0.30114 0.34978 0.0
O372 O 0.19413 0.36647 0.32024 0.0
O373 O 0.21179 0.37079 0.35138 0.0
O374 O 0.16546 0.38055 0.34978 0.0
O375 O 0.16837 0.30977 0.29379 0.0
O376 O 0.12865 0.3087 0.29245 0.0
O377 O 0.13872 0.3524 0.32265 0.0
C378 C 0.1708 0.34969 0.41886 0.0
C379 C 0.15313 0.32071 0.41737 0.0
C380 C 0.17012 0.35119 0.45336 0.0
C381 C 0.14409 0.30703 0.43381 0.0
C382 C 0.17918 0.36482 0.43692 0.0
C383 C 0.1525 0.32211 0.45202 0.0
C384 C 0.18048 0.36422 0.40167 0.0
C385 C 0.21503 0.37798 0.33381 0.0
H386 H 0.17154 0.36148 0.279 0.0
H387 H 0.1499 0.3037 0.21726 0.0
H388 H 0.18483 0.38421 0.24952 0.0
H389 H 0.13717 0.28125 0.24686 0.0
H390 H 0.14635 0.3087 0.4035 0.0
H391 H 0.17728 0.36338 0.46715 0.0
H392 H 0.1303 0.28468 0.43225 0.0
H393 H 0.19284 0.3872 0.43832 0.0
Eu394 Eu 0.68261 0.82624 0.32442 0.0
Eu395 Eu 0.65709 0.81763 0.36603 0.0
C396 C 0.62888 0.76925 0.33116 0.0
C397 C 0.6927 0.83173 0.2714 0.0
C398 C 0.66394 0.81981 0.26593 0.0
C399 C 0.70226 0.8406 0.23859 0.0
C400 C 0.65436 0.81813 0.24682 0.0
C401 C 0.71179 0.84219 0.25768 0.0
C402 C 0.67344 0.82848 0.23295 0.0
C403 C 0.70306 0.83362 0.29136 0.0
O404 O 0.69947 0.82128 0.37102 0.0
O405 O 0.70035 0.8039 0.34098 0.0
C406 C 0.7093 0.80992 0.35924 0.0
O407 O 0.71493 0.86171 0.34489 0.0
O408 O 0.6436 0.7929 0.39018 0.0
O409 O 0.64075 0.83029 0.38973 0.0
O410 O 0.68518 0.86391 0.36519 0.0
C411 C 0.70927 0.87558 0.35782 0.0
O412 O 0.654 0.84448 0.32391 0.0
O413 O 0.62492 0.8194 0.34598 0.0
O414 O 0.63736 0.77514 0.34952 0.0
O415 O 0.70418 0.85357 0.30272 0.0
O416 O 0.69301 0.81021 0.29912 0.0
O417 O 0.63998 0.78813 0.31916 0.0
C418 C 0.65078 0.81852 0.41961 0.0
C419 C 0.67995 0.83387 0.42394 0.0
C420 C 0.64503 0.81638 0.45345 0.0
C421 C 0.69163 0.84029 0.44297 0.0
C422 C 0.6334 0.80998 0.43442 0.0
C423 C 0.67429 0.8314 0.45793 0.0
C424 C 0.63837 0.81032 0.3997 0.0
C425 C 0.63035 0.83514 0.33183 0.0
H426 H 0.64896 0.81182 0.27644 0.0
H427 H 0.7174 0.84844 0.22819 0.0
H428 H 0.63207 0.80894 0.24292 0.0
H429 H 0.73407 0.85148 0.26173 0.0
H430 H 0.69366 0.84049 0.4126 0.0
H431 H 0.63113 0.80957 0.46466 0.0
H432 H 0.71423 0.85162 0.44595 0.0
H433 H 0.61082 0.79811 0.43127 0.0
Eu434 Eu 0.19139 0.84512 0.35846 0.0
Eu435 Eu 0.16868 0.84978 0.31536 0.0
C436 C 0.19606 0.90135 0.34723 0.0
C437 C 0.19689 0.84278 0.41229 0.0
C438 C 0.21582 0.86232 0.42702 0.0
C439 C 0.15994 0.82776 0.43359 0.0
C440 C 0.20689 0.86476 0.44483 0.0
C441 C 0.16882 0.82551 0.41574 0.0
C442 C 0.17883 0.84751 0.44836 0.0
C443 C 0.20656 0.84113 0.39339 0.0
O444 O 0.20798 0.84795 0.31186 0.0
O445 O 0.22982 0.86447 0.3423 0.0
C446 C 0.23064 0.85892 0.324 0.0
O447 O 0.18448 0.80786 0.33975 0.0
O448 O 0.16821 0.87423 0.29233 0.0
O449 O 0.14324 0.8294 0.28819 0.0
O450 O 0.14815 0.80454 0.3206 0.0
C451 C 0.16164 0.79301 0.32812 0.0
O452 O 0.14466 0.82748 0.35838 0.0
O453 O 0.13656 0.84914 0.33402 0.0
O454 O 0.19662 0.89343 0.32944 0.0
O455 O 0.18957 0.81972 0.3813 0.0
O456 O 0.21855 0.86421 0.38521 0.0
O457 O 0.18784 0.88353 0.36008 0.0
C458 C 0.16382 0.85212 0.26134 0.0
C459 C 0.14625 0.83156 0.24664 0.0
C460 C 0.20131 0.86988 0.24042 0.0
C461 C 0.15614 0.82992 0.22908 0.0
C462 C 0.19147 0.87133 0.25808 0.0
C463 C 0.18381 0.84905 0.22571 0.0
C464 C 0.15319 0.85245 0.28008 0.0
C465 C 0.12884 0.8355 0.34924 0.0
H466 H 0.23751 0.87595 0.42468 0.0
H467 H 0.13828 0.81388 0.43585 0.0
H468 H 0.22192 0.88054 0.45573 0.0
H469 H 0.15364 0.81028 0.40464 0.0
H470 H 0.12492 0.81641 0.24886 0.0
H471 H 0.22261 0.88517 0.2383 0.0
H472 H 0.1422 0.81326 0.21828 0.0
H473 H 0.2056 0.88738 0.26917 0.0
Eu474 Eu 0.82146 0.66055 0.65502 0.0
Eu475 Eu 0.84257 0.68611 0.70044 0.0
C476 C 0.81617 0.71158 0.67246 0.0
C477 C 0.81682 0.65659 0.60072 0.0
C478 C 0.83304 0.68563 0.60102 0.0
C479 C 0.81902 0.65217 0.56643 0.0
C480 C 0.84206 0.69787 0.58409 0.0
C481 C 0.80993 0.63996 0.58335 0.0
C482 C 0.83515 0.68127 0.56659 0.0
C483 C 0.80769 0.64348 0.61848 0.0
O484 O 0.79623 0.65629 0.69873 0.0
O485 O 0.78934 0.6278 0.67153 0.0
C486 C 0.78141 0.63267 0.68787 0.0
O487 O 0.85014 0.64568 0.66632 0.0
O488 O 0.8375 0.7056 0.72652 0.0
O489 O 0.87025 0.69499 0.72648 0.0
O490 O 0.84089 0.64491 0.69749 0.0
C491 C 0.8501 0.63681 0.68316 0.0
O492 O 0.86054 0.70212 0.65476 0.0
O493 O 0.88135 0.70547 0.68475 0.0
O494 O 0.83704 0.71793 0.6854 0.0
O495 O 0.82631 0.64085 0.62891 0.0
O496 O 0.7942 0.65216 0.62879 0.0
O497 O 0.80257 0.68698 0.66273 0.0
C498 C 0.84712 0.68922 0.75434 0.0
C499 C 0.82884 0.66037 0.75322 0.0
C500 C 0.84704 0.69172 0.78888 0.0
C501 C 0.8197 0.64726 0.76983 0.0
C502 C 0.85612 0.7048 0.77224 0.0
C503 C 0.82872 0.66277 0.78789 0.0
C504 C 0.85634 0.7031 0.73687 0.0
C505 C 0.88286 0.71265 0.66718 0.0
H506 H 0.8388 0.6988 0.61435 0.0
H507 H 0.81309 0.63883 0.55317 0.0
H508 H 0.85471 0.72031 0.58473 0.0
H509 H 0.79751 0.61752 0.58288 0.0
H510 H 0.82169 0.64801 0.73947 0.0
H511 H 0.85409 0.70434 0.80251 0.0
H512 H 0.80586 0.62493 0.76854 0.0
H513 H 0.87009 0.72712 0.77335 0.0
Eu514 Eu 0.35151 0.16154 0.65686 0.0
Eu515 Eu 0.32693 0.15334 0.6989 0.0
C516 C 0.29814 0.10495 0.66417 0.0
C517 C 0.35989 0.16491 0.60349 0.0
C518 C 0.33102 0.15268 0.59833 0.0
C519 C 0.36851 0.17255 0.57042 0.0
C520 C 0.32092 0.15025 0.57924 0.0
C521 C 0.37856 0.17489 0.58949 0.0
C522 C 0.33958 0.16013 0.56508 0.0
C523 C 0.37082 0.16757 0.62342 0.0
O524 O 0.36942 0.15729 0.70367 0.0
O525 O 0.36996 0.13987 0.67355 0.0
C526 C 0.37928 0.14615 0.69175 0.0
O527 O 0.3841 0.19794 0.67649 0.0
O528 O 0.31317 0.12799 0.72269 0.0
O529 O 0.31043 0.1655 0.72276 0.0
O530 O 0.35643 0.19957 0.69897 0.0
C531 C 0.37949 0.21146 0.69034 0.0
O532 O 0.32343 0.18033 0.65659 0.0
O533 O 0.29496 0.15601 0.67917 0.0
O534 O 0.30757 0.11088 0.68236 0.0
O535 O 0.37226 0.18792 0.6345 0.0
O536 O 0.36109 0.14454 0.63162 0.0
O537 O 0.30855 0.12389 0.65215 0.0
C538 C 0.3187 0.15209 0.75252 0.0
C539 C 0.34766 0.16603 0.75782 0.0
C540 C 0.31031 0.14869 0.78592 0.0
C541 C 0.3579 0.17108 0.77712 0.0
C542 C 0.30012 0.14366 0.76664 0.0
C543 C 0.33931 0.1622 0.79138 0.0
C544 C 0.30753 0.14501 0.73234 0.0
C545 C 0.30018 0.17154 0.66491 0.0
H546 H 0.31635 0.14504 0.60906 0.0
H547 H 0.38335 0.18004 0.5598 0.0
H548 H 0.29856 0.14086 0.57557 0.0
H549 H 0.40092 0.18439 0.5933 0.0
H550 H 0.36226 0.17255 0.74701 0.0
H551 H 0.29549 0.14198 0.79657 0.0
H552 H 0.38033 0.1813 0.78086 0.0
H553 H 0.27769 0.13287 0.76274 0.0
Eu554 Eu 0.86134 0.18443 0.69277 0.0
Eu555 Eu 0.83929 0.18459 0.64851 0.0
C556 C 0.86743 0.23901 0.67709 0.0
C557 C 0.8637 0.18165 0.74644 0.0
C558 C 0.84242 0.18824 0.74805 0.0
C559 C 0.86101 0.17109 0.77949 0.0
C560 C 0.83095 0.18685 0.76539 0.0
C561 C 0.87264 0.17269 0.76216 0.0
C562 C 0.84039 0.17862 0.78136 0.0
C563 C 0.87706 0.18477 0.72858 0.0
O564 O 0.886 0.20204 0.64944 0.0
O565 O 0.89235 0.18113 0.67484 0.0
C566 C 0.90081 0.19358 0.65926 0.0
O567 O 0.82914 0.14057 0.68168 0.0
O568 O 0.84157 0.20744 0.62398 0.0
O569 O 0.81346 0.16284 0.62164 0.0
O570 O 0.83965 0.14461 0.65087 0.0
C571 C 0.82927 0.1292 0.66491 0.0
O572 O 0.82123 0.18531 0.69501 0.0
O573 O 0.80042 0.16854 0.66423 0.0
O574 O 0.84525 0.22313 0.66508 0.0
O575 O 0.86637 0.16274 0.71631 0.0
O576 O 0.88266 0.20712 0.72039 0.0
O577 O 0.8816 0.22865 0.68532 0.0
C578 C 0.83628 0.18201 0.59424 0.0
C579 C 0.82016 0.15821 0.5813 0.0
C580 C 0.87268 0.19929 0.57246 0.0
C581 C 0.83029 0.15485 0.56421 0.0
C582 C 0.86266 0.20257 0.58962 0.0
C583 C 0.85666 0.17536 0.55961 0.0
C584 C 0.8255 0.18498 0.61247 0.0
C585 C 0.79902 0.17434 0.68241 0.0
H586 H 0.83506 0.19497 0.73601 0.0
H587 H 0.86882 0.16488 0.79161 0.0
H588 H 0.81487 0.19247 0.76636 0.0
H589 H 0.88897 0.16743 0.76113 0.0
H590 H 0.79971 0.14214 0.58444 0.0
H591 H 0.89316 0.21533 0.56935 0.0
H592 H 0.81733 0.13634 0.55445 0.0
H593 H 0.87569 0.22117 0.59926 0.0
C594 C 0.29709 0.86889 0.0584 0.0
C595 C 0.292 0.84215 0.06122 0.0
C596 C 0.32078 0.88752 0.0498 0.0
C597 C 0.34018 0.87941 0.0444 0.0
C598 C 0.33499 0.8523 0.04714 0.0
C599 C 0.31075 0.83387 0.05532 0.0
C600 C 0.32527 0.91602 0.04677 0.0
C601 C 0.35548 0.8431 0.04204 0.0
C602 C 0.39428 0.9216 0.01079 0.0
C603 C 0.41715 0.94003 0.02384 0.0
C604 C 0.36893 0.90178 0.01724 0.0
C605 C 0.36683 0.89993 0.03714 0.0
C606 C 0.39021 0.91803 0.0503 0.0
C607 C 0.41492 0.93806 0.0435 0.0
C608 C 0.34423 0.88325 0.0028 0.0
C609 C 0.38918 0.91632 0.07161 0.0
H610 H 0.2824 0.87514 0.06282 0.0
H611 H 0.30682 0.81319 0.05762 0.0
H612 H 0.34414 0.93211 0.05591 0.0
H613 H 0.32903 0.92025 0.0317 0.0
H614 H 0.30709 0.91824 0.05026 0.0
H615 H 0.34786 0.82102 0.04442 0.0
H616 H 0.3595 0.84576 0.02684 0.0
H617 H 0.37582 0.85632 0.05082 0.0
H618 H 0.39596 0.9232 0.9956 0.0
H619 H 0.43271 0.95206 0.05364 0.0
H620 H 0.32646 0.88659 0.00539 0.0
H621 H 0.33709 0.86108 0.00444 0.0
H622 H 0.34927 0.88725 0.98786 0.0
H623 H 0.37309 0.92093 0.07654 0.0
H624 H 0.40961 0.9311 0.07986 0.0
H625 H 0.38305 0.89492 0.07498 0.0
C626 C 0.18155 0.47585 0.06089 0.0
C627 C 0.17504 0.45091 0.06863 0.0
C628 C 0.16033 0.48004 0.05264 0.0
C629 C 0.13193 0.45874 0.05204 0.0
C630 C 0.12532 0.43324 0.05933 0.0
C631 C 0.14693 0.42966 0.06754 0.0
C632 C 0.16822 0.50755 0.04506 0.0
C633 C 0.09536 0.40993 0.05883 0.0
C634 C 0.07534 0.47867 0.04999 0.0
C635 C 0.06506 0.47198 0.03057 0.0
C636 C 0.09717 0.47462 0.0571 0.0
C637 C 0.10903 0.4635 0.04453 0.0
C638 C 0.09874 0.45661 0.02493 0.0
C639 C 0.07692 0.46097 0.01818 0.0
C640 C 0.10755 0.48226 0.0781 0.0
C641 C 0.11077 0.44461 0.0111 0.0
H642 H 0.20321 0.49243 0.06182 0.0
H643 H 0.1418 0.41017 0.07324 0.0
H644 H 0.15916 0.50414 0.03001 0.0
H645 H 0.1594 0.5183 0.05349 0.0
H646 H 0.19128 0.52145 0.04574 0.0
H647 H 0.09383 0.39095 0.06431 0.0
H648 H 0.08348 0.4168 0.06762 0.0
H649 H 0.08505 0.40446 0.04399 0.0
H650 H 0.06642 0.48725 0.0597 0.0
H651 H 0.06918 0.45573 0.00315 0.0
H652 H 0.13027 0.49783 0.07987 0.0
H653 H 0.10486 0.46363 0.08478 0.0
H654 H 0.09631 0.49095 0.08594 0.0
H655 H 0.13355 0.45917 0.01098 0.0
H656 H 0.10052 0.44043 0.99629 0.0
H657 H 0.10828 0.42487 0.01577 0.0
C658 C 0.59819 0.72812 0.0576 0.0
C659 C 0.57855 0.73705 0.05621 0.0
C660 C 0.59117 0.70129 0.05019 0.0
C661 C 0.56381 0.68296 0.04128 0.0
C662 C 0.54412 0.69211 0.03939 0.0
C663 C 0.55176 0.71911 0.04685 0.0
C664 C 0.61279 0.69232 0.05232 0.0
C665 C 0.51471 0.67307 0.03006 0.0
C666 C 0.55035 0.61867 0.01022 0.0
C667 C 0.53925 0.59818 0.02295 0.0
C668 C 0.55851 0.64642 0.01599 0.0
C669 C 0.55534 0.65375 0.03488 0.0
C670 C 0.54409 0.63316 0.04777 0.0
C671 C 0.53625 0.60564 0.04167 0.0
C672 C 0.57057 0.6679 0.0019 0.0
C673 C 0.54029 0.64019 0.06802 0.0
H674 H 0.61903 0.7421 0.06462 0.0
H675 H 0.53646 0.72587 0.04593 0.0
H676 H 0.60572 0.67515 0.06165 0.0
H677 H 0.6152 0.68426 0.0382 0.0
H678 H 0.63358 0.70961 0.05859 0.0
H679 H 0.50244 0.68387 0.02878 0.0
H680 H 0.51526 0.66448 0.01559 0.0
H681 H 0.5036 0.65522 0.03859 0.0
H682 H 0.55279 0.61309 0.99574 0.0
H683 H 0.52762 0.58993 0.05159 0.0
H684 H 0.59193 0.68461 0.0076 0.0
H685 H 0.55756 0.67778 0.99985 0.0
H686 H 0.57175 0.65882 0.98775 0.0
H687 H 0.5608 0.65601 0.07565 0.0
H688 H 0.53105 0.62169 0.07621 0.0
H689 H 0.52647 0.64934 0.06789 0.0
C690 C 0.82449 0.29075 0.9577 0.0
C691 C 0.83169 0.27179 0.94969 0.0
C692 C 0.84529 0.31746 0.96564 0.0
C693 C 0.87389 0.32526 0.96563 0.0
C694 C 0.88123 0.30596 0.95797 0.0
C695 C 0.86004 0.27949 0.95009 0.0
C696 C 0.83668 0.33752 0.97364 0.0
C697 C 0.91147 0.3134 0.95785 0.0
C698 C 0.92887 0.40187 0.96797 0.0
C699 C 0.93968 0.40783 0.98727 0.0
C700 C 0.90727 0.37516 0.9608 0.0
C701 C 0.89625 0.35385 0.9732 0.0
C702 C 0.90702 0.3597 0.99269 0.0
C703 C 0.92857 0.38662 0.9995 0.0
C704 C 0.8963 0.36973 0.93993 0.0
C705 C 0.89588 0.33747 0.00632 0.0
H706 H 0.80262 0.28497 0.95729 0.0
H707 H 0.86568 0.26474 0.94416 0.0
H708 H 0.84589 0.34513 0.98868 0.0
H709 H 0.84486 0.35591 0.96538 0.0
H710 H 0.81356 0.32792 0.97316 0.0
H711 H 0.91361 0.29571 0.95188 0.0
H712 H 0.92256 0.33111 0.9492 0.0
H713 H 0.92216 0.32014 0.97259 0.0
H714 H 0.93723 0.41811 0.95842 0.0
H715 H 0.93674 0.39098 0.01443 0.0
H716 H 0.87343 0.36187 0.93852 0.0
H717 H 0.89954 0.35339 0.9328 0.0
H718 H 0.90676 0.38867 0.93227 0.0
H719 H 0.87301 0.32881 0.00666 0.0
H720 H 0.90627 0.34548 0.0211 0.0
H721 H 0.89905 0.32006 1.0013 0.0
C722 C 0.6999 0.52854 0.9543 0.0
C723 C 0.71678 0.55316 0.94606 0.0
C724 C 0.67553 0.52417 0.96237 0.0
C725 C 0.66787 0.54495 0.9623 0.0
C726 C 0.68504 0.57002 0.95426 0.0
C727 C 0.70923 0.57379 0.94622 0.0
C728 C 0.65771 0.49707 0.97067 0.0
C729 C 0.67772 0.59276 0.954 0.0
C730 C 0.59123 0.52305 0.96518 0.0
C731 C 0.59092 0.53052 0.98453 0.0
C732 C 0.61607 0.52763 0.9578 0.0
C733 C 0.64138 0.54006 0.97002 0.0
C734 C 0.64129 0.54773 0.98955 0.0
C735 C 0.61607 0.54284 0.99658 0.0
C736 C 0.61519 0.51907 0.9369 0.0
C737 C 0.66785 0.56114 0.00302 0.0
H738 H 0.7054 0.51237 0.95405 0.0
H739 H 0.72236 0.59302 0.94012 0.0
H740 H 0.65487 0.50117 0.98574 0.0
H741 H 0.63659 0.48575 0.96263 0.0
H742 H 0.66701 0.48339 0.97017 0.0
H743 H 0.69371 0.61136 0.94777 0.0
H744 H 0.6572 0.58488 0.94552 0.0
H745 H 0.67562 0.59918 0.96874 0.0
H746 H 0.57199 0.51349 0.9557 0.0
H747 H 0.61611 0.54874 0.01153 0.0
H748 H 0.62237 0.50372 0.93545 0.0
H749 H 0.62968 0.53738 0.92973 0.0
H750 H 0.59384 0.50976 0.92929 0.0
H751 H 0.67669 0.54712 0.00356 0.0
H752 H 0.66433 0.56605 0.01777 0.0
H753 H 0.68379 0.58065 0.99771 0.0
C754 C 0.46462 0.16994 0.97331 0.0
C755 C 0.43658 0.16123 0.96758 0.0
C756 C 0.47227 0.1513 0.98023 0.0
C757 C 0.45122 0.12352 0.98184 0.0
C758 C 0.42271 0.11501 0.97682 0.0
C759 C 0.41575 0.13392 0.96946 0.0
C760 C 0.50293 0.16096 0.98498 0.0
C761 C 0.39964 0.08575 0.97874 0.0
C762 C 0.46992 0.06673 0.97783 0.0
C763 C 0.47371 0.06298 0.99705 0.0
C764 C 0.46309 0.08673 0.97275 0.0
C765 C 0.45919 0.10282 0.98724 0.0
C766 C 0.46284 0.09902 0.00671 0.0
C767 C 0.47051 0.07936 0.01141 0.0
C768 C 0.46016 0.09069 0.95185 0.0
C769 C 0.45817 0.11535 0.02249 0.0
H770 H 0.48066 0.1911 0.97168 0.0
H771 H 0.39405 0.12738 0.96507 0.0
H772 H 0.50668 0.15649 0.99966 0.0
H773 H 0.50928 0.14937 0.97503 0.0
H774 H 0.51654 0.18357 0.98388 0.0
H775 H 0.37849 0.08331 0.97611 0.0
H776 H 0.4012 0.07094 0.96834 0.0
H777 H 0.40191 0.07987 0.99325 0.0
H778 H 0.47273 0.05425 0.96672 0.0
H779 H 0.4733 0.07629 0.02627 0.0
H780 H 0.47433 0.11274 0.94949 0.0
H781 H 0.43845 0.08573 0.94747 0.0
H782 H 0.46512 0.07734 0.94244 0.0
H783 H 0.47249 0.13795 0.02201 0.0
H784 H 0.46161 0.10972 0.03688 0.0
H785 H 0.43644 0.11153 0.0204 0.0
C786 C 0.69761 0.16198 0.97495 0.0
C787 C 0.71153 0.14962 0.96638 0.0
C788 C 0.67039 0.14566 0.98023 0.0
C789 C 0.65695 0.1163 0.97699 0.0
C790 C 0.67091 0.10376 0.96822 0.0
C791 C 0.69803 0.12059 0.96298 0.0
C792 C 0.65614 0.1598 0.98944 0.0
C793 C 0.65733 0.07253 0.96459 0.0
C794 C 0.59869 0.07165 0.00694 0.0
C795 C 0.57471 0.06249 0.9941 0.0
C796 C 0.62554 0.08952 0.00165 0.0
C797 C 0.62851 0.09859 0.98311 0.0
C798 C 0.60438 0.08996 0.97023 0.0
C799 C 0.57779 0.07197 0.97586 0.0
C800 C 0.65078 0.09818 0.01577 0.0
C801 C 0.60667 0.09933 0.95038 0.0
H802 H 0.70816 0.18445 0.9776 0.0
H803 H 0.70882 0.11102 0.95639 0.0
H804 H 0.63578 0.15324 0.98114 0.0
H805 H 0.65161 0.15344 0.00405 0.0
H806 H 0.66911 0.18284 0.99043 0.0
H807 H 0.67086 0.06607 0.95741 0.0
H808 H 0.65259 0.0631 0.97833 0.0
H809 H 0.63715 0.06393 0.95554 0.0
H810 H 0.59658 0.06445 0.02105 0.0
H811 H 0.55941 0.06512 0.96583 0.0
H812 H 0.66363 0.1212 0.01803 0.0
H813 H 0.66416 0.09046 0.00996 0.0
H814 H 0.64486 0.09005 0.02983 0.0
H815 H 0.61856 0.12238 0.95121 0.0
H816 H 0.58583 0.09166 0.94237 0.0
H817 H 0.61842 0.09166 0.94216 0.0
C818 C 0.86213 0.5647 0.98018 0.0
C819 C 0.84429 0.5539 0.96313 0.0
C820 C 0.88116 0.55581 0.98518 0.0
C821 C 0.88248 0.53562 0.97279 0.0
C822 C 0.86463 0.52472 0.95547 0.0
C823 C 0.84602 0.53427 0.95071 0.0
C824 C 0.9001 0.56826 0.00364 0.0
C825 C 0.86531 0.50308 0.94192 0.0
C826 C 0.9494 0.5318 0.97794 0.0
C827 C 0.94205 0.51005 0.98959 0.0
C828 C 0.93013 0.5401 0.97215 0.0
C829 C 0.90271 0.52613 0.97797 0.0
C830 C 0.89496 0.50372 0.98933 0.0
C831 C 0.91474 0.49606 0.99508 0.0
C832 C 0.9393 0.56425 0.96017 0.0
C833 C 0.86585 0.48806 0.99563 0.0
H834 H 0.86135 0.5804 0.98955 0.0
H835 H 0.83287 0.52642 0.93725 0.0
H836 H 0.89664 0.55162 0.01292 0.0
H837 H 0.92235 0.5785 1.0006 0.0
H838 H 0.89653 0.58381 0.01166 0.0
H839 H 0.84952 0.49612 0.92931 0.0
H840 H 0.88639 0.5116 0.93683 0.0
H841 H 0.86133 0.4847 0.94948 0.0
H842 H 0.97045 0.54277 0.97363 0.0
H843 H 0.90875 0.47907 0.00395 0.0
H844 H 0.93808 0.58137 0.96809 0.0
H845 H 0.92505 0.55786 0.94679 0.0
H846 H 0.96107 0.5724 0.95637 0.0
H847 H 0.86193 0.50231 0.00491 0.0
H848 H 0.86271 0.47028 0.00365 0.0
H849 H 0.84999 0.48007 0.98302 0.0
C850 C 0.43721 0.29914 0.96444 0.0
C851 C 0.42764 0.28401 0.98027 0.0
C852 C 0.44757 0.32788 0.96589 0.0
C853 C 0.44763 0.34161 0.98346 0.0
C854 C 0.43678 0.32619 0.99924 0.0
C855 C 0.42696 0.29751 0.99746 0.0
C856 C 0.45913 0.34365 0.94881 0.0
C857 C 0.43605 0.34008 0.01809 0.0
C858 C 0.50016 0.41837 0.9951 0.0
C859 C 0.4837 0.43043 0.99093 0.0
C860 C 0.48877 0.38949 0.99237 0.0
C861 C 0.46013 0.37227 0.9856 0.0
C862 C 0.44346 0.38433 0.98117 0.0
C863 C 0.45553 0.41334 0.98375 0.0
C864 C 0.50731 0.37738 0.99693 0.0
C865 C 0.41275 0.36657 0.97416 0.0
H866 H 0.43718 0.28851 0.95103 0.0
H867 H 0.41904 0.28568 0.00957 0.0
H868 H 0.44836 0.35534 0.94516 0.0
H869 H 0.48171 0.35912 0.95232 0.0
H870 H 0.45676 0.32972 0.93603 0.0
H871 H 0.4254 0.32488 0.02856 0.0
H872 H 0.45773 0.35516 0.02435 0.0
H873 H 0.42506 0.35195 0.01585 0.0
H874 H 0.522 0.43152 1.00054 0.0
H875 H 0.44268 0.42257 0.98064 0.0
H876 H 0.50683 0.36428 0.98426 0.0
H877 H 0.49935 0.36377 0.00864 0.0
H878 H 0.5294 0.39371 0.00135 0.0
H879 H 0.41002 0.35315 0.96101 0.0
H880 H 0.40284 0.37923 0.97103 0.0
H881 H 0.40146 0.35261 0.98511 0.0
C882 C 0.14373 0.70557 0.0304 0.0
C883 C 0.16132 0.71684 0.04752 0.0
C884 C 0.12383 0.6771 0.02729 0.0
C885 C 0.12147 0.65951 0.04169 0.0
C886 C 0.13879 0.67089 0.05918 0.0
C887 C 0.15827 0.69951 0.06199 0.0
C888 C 0.10545 0.66581 0.00855 0.0
C889 C 0.13697 0.65278 0.07483 0.0
C890 C 0.05446 0.58928 0.03858 0.0
C891 C 0.06244 0.57192 0.02902 0.0
C892 C 0.07358 0.61781 0.0431 0.0
C893 C 0.10138 0.62909 0.03815 0.0
C894 C 0.10977 0.61145 0.02909 0.0
C895 C 0.09017 0.58313 0.02454 0.0
C896 C 0.0638 0.63602 0.05263 0.0
C897 C 0.13933 0.6226 0.02383 0.0
H898 H 0.14558 0.71908 0.01942 0.0
H899 H 0.17129 0.70834 0.07547 0.0
H900 H 0.10935 0.65031 1.00086 0.0
H901 H 0.08305 0.65497 0.01124 0.0
H902 H 0.10923 0.68242 0.99913 0.0
H903 H 0.15174 0.66491 0.08766 0.0
H904 H 0.11537 0.64187 0.07915 0.0
H905 H 0.14169 0.63659 0.06944 0.0
H906 H 0.03304 0.58077 0.04203 0.0
H907 H 0.09657 0.5698 0.0173 0.0
H908 H 0.06507 0.65157 0.04296 0.0
H909 H 0.07765 0.6477 0.06587 0.0
H910 H 0.0419 0.62385 0.05632 0.0
H911 H 0.14376 0.63773 0.0131 0.0
H912 H 0.14292 0.60586 0.01782 0.0
H913 H 0.15456 0.63384 0.03659 0.0
C914 C 0.30369 0.44003 0.03773 0.0
C915 C 0.2999 0.45265 0.0542 0.0
C916 C 0.33041 0.44954 0.03161 0.0
C917 C 0.35406 0.47228 0.04226 0.0
C918 C 0.3504 0.48531 0.05886 0.0
C919 C 0.32341 0.4751 0.06479 0.0
C920 C 0.33341 0.43476 0.01402 0.0
C921 C 0.37505 0.50968 0.07056 0.0
C922 C 0.42454 0.4772 0.03755 0.0
C923 C 0.43579 0.49652 0.02404 0.0
C924 C 0.39819 0.46944 0.04376 0.0
C925 C 0.3827 0.48148 0.03647 0.0
C926 C 0.39415 0.50144 0.02314 0.0
C927 C 0.42047 0.50861 0.017 0.0
C928 C 0.38667 0.4479 0.05786 0.0
C929 C 0.37845 0.515 0.01522 0.0
H930 H 0.28565 0.42227 0.02978 0.0
H931 H 0.32079 0.48454 0.07782 0.0
H932 H 0.34414 0.44978 0.00349 0.0
H933 H 0.34658 0.42557 0.01794 0.0
H934 H 0.31286 0.41791 0.00703 0.0
H935 H 0.3685 0.51867 0.08232 0.0
H936 H 0.38934 0.50299 0.07687 0.0
H937 H 0.38719 0.5262 0.06128 0.0
H938 H 0.43614 0.4677 0.0431 0.0
H939 H 0.42903 0.5237 0.00668 0.0
H940 H 0.3669 0.42947 0.05132 0.0
H941 H 0.38163 0.45639 0.0707 0.0
H942 H 0.4016 0.44097 0.06248 0.0
H943 H 0.35853 0.49902 0.007 0.0
H944 H 0.39078 0.5311 0.00569 0.0
H945 H 0.37294 0.5248 0.02709 0.0
C946 C 0.55575 0.84939 0.02874 0.0
C947 C 0.58233 0.86116 0.03883 0.0
C948 C 0.54365 0.86573 0.02476 0.0
C949 C 0.55869 0.89454 0.0309 0.0
C950 C 0.58571 0.90658 0.04093 0.0
C951 C 0.59717 0.88967 0.04488 0.0
C952 C 0.51472 0.85214 0.01416 0.0
C953 C 0.60245 0.93728 0.04754 0.0
C954 C 0.53896 0.94176 0.00588 0.0
C955 C 0.52338 0.94639 0.01916 0.0
C956 C 0.55053 0.92489 0.00952 0.0
C957 C 0.54621 0.91214 0.02677 0.0
C958 C 0.5302 0.9164 0.04012 0.0
C959 C 0.51906 0.93359 0.0362 0.0
C960 C 0.56767 0.92097 0.99501 0.0
C961 C 0.52495 0.9029 0.0586 0.0
H962 H 0.54433 0.82728 0.02417 0.0
H963 H 0.61769 0.89871 0.05276 0.0
H964 H 0.50039 0.85533 0.023 0.0
H965 H 0.51543 0.86195 1.00077 0.0
H966 H 0.50579 0.82945 0.01048 0.0
H967 H 0.62332 0.94344 0.0549 0.0
H968 H 0.6055 0.94956 0.03513 0.0
H969 H 0.59081 0.94291 0.05748 0.0
H970 H 0.5425 0.95166 0.99271 0.0
H971 H 0.50698 0.937 0.04649 0.0
H972 H 0.55843 0.89855 0.99024 0.0
H973 H 0.58925 0.92853 0.00164 0.0
H974 H 0.56893 0.93224 0.98225 0.0
H975 H 0.51467 0.87998 0.05552 0.0
H976 H 0.51154 0.90784 0.06727 0.0
H977 H 0.54516 0.90996 0.06726 0.0
C978 C 0.99038 0.18587 0.40461 0.0
C979 C 0.96362 0.17342 0.39464 0.0
C980 C 0.01414 0.20481 0.39624 0.0
C981 C 0.01099 0.21176 0.37756 0.0
C982 C 0.98402 0.1992 0.36742 0.0
C983 C 0.96067 0.18005 0.37605 0.0
C984 C 0.04261 0.21755 0.40743 0.0
C985 C 0.97975 0.20644 0.34763 0.0
C986 C 0.0687 0.28177 0.36581 0.0
C987 C 0.08475 0.27422 0.3549 0.0
C988 C 0.04423 0.26159 0.37278 0.0
C989 C 0.03581 0.23313 0.36903 0.0
C990 C 0.0516 0.2253 0.3577 0.0
C991 C 0.0758 0.24597 0.35061 0.0
C992 C 0.02772 0.27079 0.38451 0.0
C993 C 0.04344 0.19516 0.3536 0.0
H994 H 0.99273 0.18053 0.4189 0.0
H995 H 0.93995 0.17065 0.36839 0.0
H996 H 0.05703 0.21387 0.39904 0.0
H997 H 0.05179 0.2404 0.4101 0.0
H998 H 0.04162 0.20897 0.42141 0.0
H999 H 0.95751 0.19426 0.34147 0.0
H1000 H 0.98661 0.2289 0.34815 0.0
H1001 H 0.99279 0.20258 0.3379 0.0
H1002 H 0.07541 0.30359 0.36905 0.0
H1003 H 0.08826 0.24004 0.34232 0.0
H1004 H 0.02814 0.26511 0.39932 0.0
H1005 H 0.00547 0.25996 0.37843 0.0
H1006 H 0.03614 0.2936 0.38514 0.0
H1007 H 0.04448 0.18645 0.36721 0.0
H1008 H 0.0573 0.19244 0.34398 0.0
H1009 H 0.02151 0.18284 0.34694 0.0
C1010 C 0.82737 0.79462 0.41767 0.0
C1011 C 0.84409 0.78867 0.40618 0.0
C1012 C 0.80551 0.79791 0.40959 0.0
C1013 C 0.80074 0.79631 0.38947 0.0
C1014 C 0.81807 0.79135 0.37775 0.0
C1015 C 0.83923 0.78719 0.3862 0.0
C1016 C 0.78724 0.80272 0.42262 0.0
C1017 C 0.81414 0.79025 0.35625 0.0
C1018 C 0.72853 0.77961 0.36811 0.0
C1019 C 0.73265 0.80623 0.36632 0.0
C1020 C 0.75056 0.77604 0.37558 0.0
C1021 C 0.77745 0.79967 0.3808 0.0
C1022 C 0.78176 0.82659 0.37844 0.0
C1023 C 0.75914 0.82955 0.3715 0.0
C1024 C 0.74489 0.74707 0.37836 0.0
C1025 C 0.81021 0.85225 0.38331 0.0
H1026 H 0.83129 0.79671 0.43309 0.0
H1027 H 0.85162 0.7823 0.37708 0.0
H1028 H 0.7889 0.82309 0.42071 0.0
H1029 H 0.76496 0.78648 0.41886 0.0
H1030 H 0.79304 0.80238 0.43794 0.0
H1031 H 0.83046 0.78798 0.34922 0.0
H1032 H 0.7933 0.77248 0.35067 0.0
H1033 H 0.81474 0.80947 0.35214 0.0
H1034 H 0.7079 0.76166 0.36411 0.0
H1035 H 0.76217 0.85012 0.36995 0.0
H1036 H 0.74927 0.74564 0.39371 0.0
H1037 H 0.75904 0.74247 0.37036 0.0
H1038 H 0.72287 0.73092 0.37353 0.0
H1039 H 0.81654 0.85483 0.39887 0.0
H1040 H 0.81048 0.87141 0.37939 0.0
H1041 H 0.82615 0.84998 0.37578 0.0
C1042 C 0.26428 0.0603 0.38817 0.0
C1043 C 0.2449 0.06955 0.38675 0.0
C1044 C 0.25722 0.03366 0.38027 0.0
C1045 C 0.23009 0.01586 0.37083 0.0
C1046 C 0.21077 0.02545 0.36877 0.0
C1047 C 0.21844 0.05224 0.37674 0.0
C1048 C 0.27845 0.02423 0.38262 0.0
C1049 C 0.1816 0.00699 0.35889 0.0
C1050 C 0.2163 0.951 0.34023 0.0
C1051 C 0.20462 0.93067 0.35301 0.0
C1052 C 0.22471 0.9789 0.34579 0.0
C1053 C 0.22118 0.9865 0.36451 0.0
C1054 C 0.20924 0.96604 0.37742 0.0
C1055 C 0.20118 0.93841 0.37153 0.0
C1056 C 0.23751 0.00024 0.3317 0.0
C1057 C 0.20501 0.97333 0.39749 0.0
H1058 H 0.28489 0.07381 0.39568 0.0
H1059 H 0.20334 0.05925 0.37576 0.0
H1060 H 0.27101 0.00712 0.39203 0.0
H1061 H 0.28086 0.01594 0.36859 0.0
H1062 H 0.29931 0.04133 0.38895 0.0
H1063 H 0.1699 0.0183 0.35715 0.0
H1064 H 0.18252 0.99821 0.34458 0.0
H1065 H 0.16968 0.98923 0.36734 0.0
H1066 H 0.21907 0.94519 0.3259 0.0
H1067 H 0.19208 0.92285 0.3815 0.0
H1068 H 0.25896 0.0166 0.33754 0.0
H1069 H 0.22502 0.01062 0.32943 0.0
H1070 H 0.23868 0.99092 0.31765 0.0
H1071 H 0.22546 0.98883 0.40535 0.0
H1072 H 0.19508 0.95487 0.40567 0.0
H1073 H 0.19161 0.98296 0.39701 0.0
C1074 C 0.49101 0.62422 0.29362 0.0
C1075 C 0.49827 0.6059 0.28463 0.0
C1076 C 0.51175 0.65049 0.30227 0.0
C1077 C 0.54037 0.65845 0.30201 0.0
C1078 C 0.54775 0.63964 0.29352 0.0
C1079 C 0.52661 0.61362 0.2849 0.0
C1080 C 0.50309 0.67005 0.31111 0.0
C1081 C 0.57801 0.64724 0.29312 0.0
C1082 C 0.5948 0.73517 0.30467 0.0
C1083 C 0.60613 0.74089 0.32384 0.0
C1084 C 0.57317 0.70852 0.29748 0.0
C1085 C 0.56267 0.68698 0.30972 0.0
C1086 C 0.57393 0.69258 0.32909 0.0
C1087 C 0.59548 0.7195 0.33594 0.0
C1088 C 0.56163 0.70339 0.27674 0.0
C1089 C 0.56337 0.67007 0.34252 0.0
H1090 H 0.46912 0.61838 0.29332 0.0
H1091 H 0.53227 0.59932 0.2782 0.0
H1092 H 0.51284 0.67743 0.32606 0.0
H1093 H 0.51064 0.68864 0.30307 0.0
H1094 H 0.47999 0.66013 0.31109 0.0
H1095 H 0.58016 0.62967 0.28694 0.0
H1096 H 0.58884 0.66504 0.28451 0.0
H1097 H 0.58894 0.65392 0.3078 0.0
H1098 H 0.60276 0.75156 0.29521 0.0
H1099 H 0.6041 0.7237 0.35077 0.0
H1100 H 0.53871 0.69528 0.27568 0.0
H1101 H 0.56493 0.68736 0.26919 0.0
H1102 H 0.57165 0.72253 0.26923 0.0
H1103 H 0.54051 0.66112 0.34314 0.0
H1104 H 0.57405 0.67791 0.35725 0.0
H1105 H 0.56669 0.65292 0.33712 0.0
C1106 C 0.37737 0.90755 0.28046 0.0
C1107 C 0.38441 0.88654 0.28023 0.0
C1108 C 0.35303 0.90398 0.28814 0.0
C1109 C 0.33511 0.8787 0.29569 0.0
C1110 C 0.34227 0.85755 0.29572 0.0
C1111 C 0.36686 0.86176 0.28806 0.0
C1112 C 0.34631 0.92715 0.28799 0.0
C1113 C 0.32365 0.83022 0.30348 0.0
C1114 C 0.28235 0.87617 0.32923 0.0
C1115 C 0.25756 0.86445 0.31682 0.0
C1116 C 0.30776 0.88108 0.32254 0.0
C1117 C 0.30844 0.87403 0.303 0.0
C1118 C 0.28355 0.86235 0.29039 0.0
C1119 C 0.25849 0.85775 0.29743 0.0
C1120 C 0.33388 0.89376 0.33641 0.0
C1121 C 0.28332 0.85451 0.26945 0.0
H1122 H 0.39102 0.92689 0.27466 0.0
H1123 H 0.372 0.84533 0.28775 0.0
H1124 H 0.3262 0.91988 0.27915 0.0
H1125 H 0.34368 0.93314 0.3027 0.0
H1126 H 0.36289 0.94588 0.28224 0.0
H1127 H 0.33257 0.81621 0.30298 0.0
H1128 H 0.32033 0.83393 0.31851 0.0
H1129 H 0.30279 0.81945 0.29508 0.0
H1130 H 0.28193 0.88149 0.34421 0.0
H1131 H 0.23954 0.84873 0.28767 0.0
H1132 H 0.35036 0.91327 0.33144 0.0
H1133 H 0.34224 0.87933 0.33701 0.0
H1134 H 0.32997 0.89847 0.35109 0.0
H1135 H 0.29848 0.87299 0.26273 0.0
H1136 H 0.26229 0.84591 0.26149 0.0
H1137 H 0.29002 0.83879 0.2679 0.0
C1138 C 0.13125 0.50201 0.30359 0.0
C1139 C 0.10313 0.49325 0.29808 0.0
C1140 C 0.13903 0.48347 0.31054 0.0
C1141 C 0.11805 0.45577 0.3124 0.0
C1142 C 0.08949 0.44717 0.30751 0.0
C1143 C 0.08238 0.46597 0.30013 0.0
C1144 C 0.16973 0.49321 0.31515 0.0
C1145 C 0.06651 0.41797 0.3097 0.0
C1146 C 0.13719 0.39922 0.30955 0.0
C1147 C 0.14123 0.39623 0.3289 0.0
C1148 C 0.13006 0.41885 0.30403 0.0
C1149 C 0.12612 0.43531 0.31822 0.0
C1150 C 0.12996 0.43222 0.33781 0.0
C1151 C 0.13792 0.41294 0.34295 0.0
C1152 C 0.12691 0.42206 0.28302 0.0
C1153 C 0.12529 0.44897 0.35328 0.0
H1154 H 0.14723 0.52313 0.30182 0.0
H1155 H 0.06063 0.45939 0.29592 0.0
H1156 H 0.17372 0.48938 0.32998 0.0
H1157 H 0.1759 0.48118 0.30546 0.0
H1158 H 0.18332 0.5157 0.3136 0.0
H1159 H 0.04531 0.41537 0.3069 0.0
H1160 H 0.06819 0.40296 0.29959 0.0
H1161 H 0.06877 0.41253 0.32436 0.0
H1162 H 0.14007 0.38649 0.2987 0.0
H1163 H 0.14089 0.41044 0.35791 0.0
H1164 H 0.14105 0.44397 0.2803 0.0
H1165 H 0.10517 0.41701 0.27861 0.0
H1166 H 0.13178 0.40839 0.27387 0.0
H1167 H 0.13966 0.47151 0.35254 0.0
H1168 H 0.12869 0.44373 0.36782 0.0
H1169 H 0.10358 0.44518 0.35105 0.0
C1170 C 0.36481 0.45358 0.29563 0.0
C1171 C 0.37909 0.48268 0.29873 0.0
C1172 C 0.33815 0.43752 0.30179 0.0
C1173 C 0.32546 0.45091 0.31123 0.0
C1174 C 0.33982 0.48032 0.31439 0.0
C1175 C 0.36657 0.49585 0.30819 0.0
C1176 C 0.32358 0.40621 0.29823 0.0
C1177 C 0.32692 0.49534 0.32431 0.0
C1178 C 0.24632 0.40857 0.31069 0.0
C1179 C 0.24318 0.39853 0.32875 0.0
C1180 C 0.27293 0.42627 0.30502 0.0
C1181 C 0.29707 0.43402 0.31766 0.0
C1182 C 0.29406 0.42458 0.3361 0.0
C1183 C 0.26715 0.40702 0.34145 0.0
C1184 C 0.27523 0.43608 0.2853 0.0
C1185 C 0.31932 0.43231 0.34995 0.0
H1186 H 0.37458 0.44337 0.28845 0.0
H1187 H 0.37778 0.51836 0.31071 0.0
H1188 H 0.31879 0.39688 0.312 0.0
H1189 H 0.30334 0.39822 0.28936 0.0
H1190 H 0.33642 0.39904 0.29087 0.0
H1191 H 0.34076 0.5183 0.32555 0.0
H1192 H 0.30666 0.48986 0.31632 0.0
H1193 H 0.32243 0.48867 0.33885 0.0
H1194 H 0.22794 0.40228 0.30079 0.0
H1195 H 0.26496 0.39934 0.35541 0.0
H1196 H 0.28604 0.4277 0.27668 0.0
H1197 H 0.28801 0.4591 0.2863 0.0
H1198 H 0.25442 0.42941 0.2776 0.0
H1199 H 0.33181 0.42364 0.34393 0.0
H1200 H 0.31341 0.42441 0.36407 0.0
H1201 H 0.33304 0.45525 0.35212 0.0
C1202 C 0.51287 0.86617 0.28558 0.0
C1203 C 0.51146 0.88621 0.29777 0.0
C1204 C 0.53151 0.85666 0.29041 0.0
C1205 C 0.54971 0.86801 0.30757 0.0
C1206 C 0.5487 0.88861 0.31972 0.0
C1207 C 0.52964 0.89745 0.31465 0.0
C1208 C 0.53184 0.83458 0.27712 0.0
C1209 C 0.56799 0.90154 0.338 0.0
C1210 C 0.58217 0.82904 0.33054 0.0
C1211 C 0.60938 0.84272 0.32484 0.0
C1212 C 0.56234 0.83656 0.32461 0.0
C1213 C 0.56994 0.85854 0.31286 0.0
C1214 C 0.59724 0.87218 0.30682 0.0
C1215 C 0.61656 0.86401 0.31279 0.0
C1216 C 0.53337 0.82125 0.33116 0.0
C1217 C 0.60626 0.89587 0.29443 0.0
H1218 H 0.49945 0.85795 0.27223 0.0
H1219 H 0.52911 0.91346 0.32384 0.0
H1220 H 0.55278 0.84281 0.27186 0.0
H1221 H 0.52795 0.81645 0.28495 0.0
H1222 H 0.51584 0.82731 0.26461 0.0
H1223 H 0.56467 0.91741 0.34582 0.0
H1224 H 0.56464 0.88521 0.34754 0.0
H1225 H 0.59014 0.91154 0.33476 0.0
H1226 H 0.5763 0.8124 0.33971 0.0
H1227 H 0.63752 0.87474 0.30832 0.0
H1228 H 0.51731 0.81299 0.31865 0.0
H1229 H 0.52968 0.83581 0.34028 0.0
H1230 H 0.53029 0.80371 0.33942 0.0
H1231 H 0.59175 0.88912 0.28116 0.0
H1232 H 0.62789 0.9037 0.29045 0.0
H1233 H 0.60531 0.9133 0.30212 0.0
C1234 C 0.10582 0.63239 0.29679 0.0
C1235 C 0.09619 0.61667 0.31235 0.0
C1236 C 0.11601 0.6611 0.29872 0.0
C1237 C 0.11582 0.67419 0.3165 0.0
C1238 C 0.10503 0.6582 0.33204 0.0
C1239 C 0.09536 0.62956 0.32977 0.0
C1240 C 0.12751 0.67751 0.28188 0.0
C1241 C 0.10402 0.67141 0.3511 0.0
C1242 C 0.16709 0.7512 0.32855 0.0
C1243 C 0.15015 0.76275 0.32443 0.0
C1244 C 0.15624 0.72239 0.32578 0.0
C1245 C 0.12766 0.70475 0.31901 0.0
C1246 C 0.11047 0.71629 0.31476 0.0
C1247 C 0.12199 0.74522 0.31738 0.0
C1248 C 0.17531 0.71083 0.33018 0.0
C1249 C 0.07981 0.69806 0.30774 0.0
H1250 H 0.10584 0.62223 0.28318 0.0
H1251 H 0.08736 0.61726 0.34167 0.0
H1252 H 0.11621 0.68872 0.27834 0.0
H1253 H 0.14991 0.69341 0.2856 0.0
H1254 H 0.12574 0.66408 0.26896 0.0
H1255 H 0.09375 0.65584 0.36142 0.0
H1256 H 0.12559 0.68679 0.35738 0.0
H1257 H 0.09249 0.68282 0.34915 0.0
H1258 H 0.18892 0.76469 0.3339 0.0
H1259 H 0.10876 0.75406 0.3143 0.0
H1260 H 0.17536 0.69832 0.31735 0.0
H1261 H 0.16746 0.69677 0.34165 0.0
H1262 H 0.19721 0.72745 0.33483 0.0
H1263 H 0.0774 0.68527 0.29433 0.0
H1264 H 0.06934 0.71033 0.30504 0.0
H1265 H 0.06884 0.6835 0.31847 0.0
C1266 C 0.82669 0.03316 0.39461 0.0
C1267 C 0.83097 0.0496 0.3794 0.0
C1268 C 0.80671 0.00469 0.39237 0.0
C1269 C 0.79016 0.99258 0.37466 0.0
C1270 C 0.79372 0.00931 0.35948 0.0
C1271 C 0.81411 0.03766 0.36205 0.0
C1272 C 0.80361 0.98748 0.40884 0.0
C1273 C 0.77618 0.99723 0.34046 0.0
C1274 C 0.75821 0.91545 0.35995 0.0
C1275 C 0.73025 0.90508 0.3636 0.0
C1276 C 0.77809 0.94376 0.36403 0.0
C1277 C 0.76972 0.96223 0.37172 0.0
C1278 C 0.74166 0.95181 0.37586 0.0
C1279 C 0.72227 0.92327 0.37188 0.0
C1280 C 0.80793 0.95399 0.35971 0.0
C1281 C 0.73193 0.97092 0.38392 0.0
H1282 H 0.83924 0.04257 0.40821 0.0
H1283 H 0.81697 0.05051 0.35044 0.0
H1284 H 0.78169 0.97714 0.41258 0.0
H1285 H 0.8083 0.97084 0.4046 0.0
H1286 H 0.81777 0.00017 0.42178 0.0
H1287 H 0.78076 0.01329 0.33041 0.0
H1288 H 0.78013 0.98113 0.33376 0.0
H1289 H 0.75359 0.9869 0.3426 0.0
H1290 H 0.76458 0.90143 0.35375 0.0
H1291 H 0.70065 0.91537 0.37466 0.0
H1292 H 0.82262 0.96582 0.37261 0.0
H1293 H 0.81323 0.96839 0.34839 0.0
H1294 H 0.81139 0.9367 0.35484 0.0
H1295 H 0.74526 0.9832 0.3972 0.0
H1296 H 0.70976 0.95938 0.38715 0.0
H1297 H 0.73405 0.98592 0.37351 0.0
C1298 C 0.96992 0.7732 0.3715 0.0
C1299 C 0.96652 0.78674 0.38765 0.0
C1300 C 0.99646 0.78214 0.36521 0.0
C1301 C 0.02035 0.80529 0.37533 0.0
C1302 C 0.0171 0.81924 0.39161 0.0
C1303 C 0.99027 0.8096 0.39773 0.0
C1304 C 0.99899 0.76639 0.34797 0.0
C1305 C 0.04201 0.84408 0.40273 0.0
C1306 C 0.09073 0.80999 0.3703 0.0
C1307 C 0.10143 0.82849 0.35623 0.0
C1308 C 0.06459 0.80258 0.3768 0.0
C1309 C 0.04878 0.81413 0.36923 0.0
C1310 C 0.05969 0.83325 0.35532 0.0
C1311 C 0.08578 0.84007 0.34891 0.0
C1312 C 0.05365 0.78192 0.39151 0.0
C1313 C 0.04365 0.84629 0.34707 0.0
H1314 H 0.95169 0.7552 0.36392 0.0
H1315 H 0.988 0.81988 0.41047 0.0
H1316 H 0.00925 0.78071 0.33697 0.0
H1317 H 0.01241 0.75756 0.35214 0.0
H1318 H 0.97832 0.74916 0.34147 0.0
H1319 H 0.03581 0.8536 0.41437 0.0
H1320 H 0.05655 0.83774 0.40912 0.0
H1321 H 0.05376 0.86009 0.39302 0.0
H1322 H 0.10258 0.80089 0.37608 0.0
H1323 H 0.09393 0.85455 0.33816 0.0
H1324 H 0.03382 0.76316 0.38543 0.0
H1325 H 0.04887 0.79103 0.40417 0.0
H1326 H 0.06881 0.77538 0.39632 0.0
H1327 H 0.02354 0.82992 0.33929 0.0
H1328 H 0.05559 0.86178 0.33706 0.0
H1329 H 0.0385 0.85672 0.35875 0.0
C1330 C 0.22542 0.18521 0.36149 0.0
C1331 C 0.25082 0.19578 0.37294 0.0
C1332 C 0.21374 0.20202 0.35793 0.0
C1333 C 0.22799 0.2301 0.36594 0.0
C1334 C 0.25373 0.24089 0.37749 0.0
C1335 C 0.26478 0.22351 0.38096 0.0
C1336 C 0.18616 0.18975 0.34566 0.0
C1337 C 0.26961 0.2708 0.38611 0.0
C1338 C 0.2117 0.2802 0.34179 0.0
C1339 C 0.19382 0.28284 0.35401 0.0
C1340 C 0.22311 0.26325 0.34559 0.0
C1341 C 0.21622 0.24833 0.3619 0.0
C1342 C 0.19808 0.25076 0.37426 0.0
C1343 C 0.1872 0.26815 0.37022 0.0
C1344 C 0.24261 0.26139 0.3322 0.0
C1345 C 0.19007 0.2349 0.39168 0.0
H1346 H 0.21461 0.16365 0.35548 0.0
H1347 H 0.28432 0.23157 0.38995 0.0
H1348 H 0.17061 0.19193 0.35375 0.0
H1349 H 0.18888 0.20125 0.33287 0.0
H1350 H 0.17751 0.16739 0.34085 0.0
H1351 H 0.28938 0.27596 0.39471 0.0
H1352 H 0.27475 0.28491 0.37461 0.0
H1353 H 0.25638 0.27504 0.39542 0.0
H1354 H 0.21707 0.29164 0.32929 0.0
H1355 H 0.17332 0.27003 0.37968 0.0
H1356 H 0.23389 0.23954 0.32607 0.0
H1357 H 0.26317 0.2679 0.34019 0.0
H1358 H 0.24612 0.27461 0.32026 0.0
H1359 H 0.17985 0.21225 0.38734 0.0
H1360 H 0.17557 0.23894 0.39976 0.0
H1361 H 0.20912 0.24073 0.40138 0.0
C1362 C 0.63526 0.5385 0.72892 0.0
C1363 C 0.6311 0.51238 0.73276 0.0
C1364 C 0.65915 0.55739 0.72064 0.0
C1365 C 0.67963 0.55016 0.71648 0.0
C1366 C 0.6755 0.52376 0.72035 0.0
C1367 C 0.65112 0.50507 0.72827 0.0
C1368 C 0.66257 0.58514 0.71644 0.0
C1369 C 0.69712 0.51552 0.71653 0.0
C1370 C 0.73296 0.59108 0.68215 0.0
C1371 C 0.7555 0.61094 0.69487 0.0
C1372 C 0.70801 0.57116 0.68896 0.0
C1373 C 0.70596 0.57073 0.70893 0.0
C1374 C 0.72899 0.59031 0.7218 0.0
C1375 C 0.75331 0.61036 0.7146 0.0
C1376 C 0.68369 0.55094 0.6748 0.0
C1377 C 0.72798 0.59017 0.7432 0.0
H1378 H 0.6196 0.54401 0.73221 0.0
H1379 H 0.64795 0.4849 0.73136 0.0
H1380 H 0.68123 0.60216 0.72521 0.0
H1381 H 0.66611 0.58831 0.70121 0.0
H1382 H 0.64399 0.5869 0.71948 0.0
H1383 H 0.69049 0.49404 0.72001 0.0
H1384 H 0.70119 0.51695 0.70128 0.0
H1385 H 0.71721 0.53011 0.72518 0.0
H1386 H 0.73456 0.59156 0.66689 0.0
H1387 H 0.7708 0.62549 0.72451 0.0
H1388 H 0.66526 0.55344 0.67677 0.0
H1389 H 0.67756 0.52926 0.67737 0.0
H1390 H 0.68865 0.55397 0.65976 0.0
H1391 H 0.7114 0.59445 0.7475 0.0
H1392 H 0.74823 0.60592 0.75124 0.0
H1393 H 0.72256 0.56934 0.74748 0.0
C1394 C 0.49627 0.12937 0.75028 0.0
C1395 C 0.51352 0.12418 0.73885 0.0
C1396 C 0.47455 0.13284 0.74214 0.0
C1397 C 0.47048 0.1322 0.72205 0.0
C1398 C 0.48838 0.12804 0.71042 0.0
C1399 C 0.50938 0.12368 0.71891 0.0
C1400 C 0.45566 0.13677 0.75508 0.0
C1401 C 0.48522 0.12799 0.68897 0.0
C1402 C 0.39871 0.11574 0.69989 0.0
C1403 C 0.40265 0.14241 0.69874 0.0
C1404 C 0.42066 0.11208 0.70742 0.0
C1405 C 0.44732 0.1357 0.71331 0.0
C1406 C 0.45148 0.16269 0.71155 0.0
C1407 C 0.4289 0.16572 0.70459 0.0
C1408 C 0.41512 0.083 0.70957 0.0
C1409 C 0.47971 0.18837 0.71711 0.0
H1410 H 0.49962 0.13069 0.76571 0.0
H1411 H 0.52221 0.11939 0.70982 0.0
H1412 H 0.45721 0.15719 0.75357 0.0
H1413 H 0.43352 0.1205 0.75085 0.0
H1414 H 0.46097 0.13576 0.77036 0.0
H1415 H 0.50195 0.12632 0.68205 0.0
H1416 H 0.46463 0.11028 0.6829 0.0
H1417 H 0.48576 0.14734 0.68525 0.0
H1418 H 0.37825 0.09779 0.69541 0.0
H1419 H 0.4318 0.18633 0.70353 0.0
H1420 H 0.41897 0.08084 0.72486 0.0
H1421 H 0.42971 0.07899 0.70164 0.0
H1422 H 0.39328 0.06687 0.70426 0.0
H1423 H 0.4855 0.19026 0.7327 0.0
H1424 H 0.47995 0.20767 0.71356 0.0
H1425 H 0.49605 0.18668 0.7097 0.0
C1426 C 0.91607 0.4005 0.70288 0.0
C1427 C 0.9058 0.4025 0.72027 0.0
C1428 C 0.91046 0.37462 0.6943 0.0
C1429 C 0.89391 0.35029 0.70326 0.0
C1430 C 0.88293 0.35219 0.72059 0.0
C1431 C 0.88914 0.37831 0.72894 0.0
C1432 C 0.92272 0.37337 0.67592 0.0
C1433 C 0.8649 0.32666 0.73045 0.0
C1434 C 0.85838 0.27868 0.67581 0.0
C1435 C 0.87557 0.26834 0.68232 0.0
C1436 C 0.8646 0.30572 0.682 0.0
C1437 C 0.88864 0.32281 0.69493 0.0
C1438 C 0.90666 0.31289 0.70096 0.0
C1439 C 0.89987 0.28574 0.69462 0.0
C1440 C 0.84486 0.31559 0.67531 0.0
C1441 C 0.93261 0.33062 0.71465 0.0
H1442 H 0.92911 0.41927 0.69626 0.0
H1443 H 0.88092 0.37987 0.74228 0.0
H1444 H 0.93728 0.36528 0.67826 0.0
H1445 H 0.90587 0.3588 0.66478 0.0
H1446 H 0.93432 0.39407 0.67044 0.0
H1447 H 0.85715 0.33164 0.74345 0.0
H1448 H 0.84661 0.31134 0.7205 0.0
H1449 H 0.87707 0.31653 0.73463 0.0
H1450 H 0.83958 0.26539 0.66627 0.0
H1451 H 0.91337 0.27798 0.69963 0.0
H1452 H 0.8566 0.33594 0.66944 0.0
H1453 H 0.83474 0.3187 0.68763 0.0
H1454 H 0.82823 0.30056 0.6642 0.0
H1455 H 0.94568 0.35114 0.70929 0.0
H1456 H 0.94553 0.32063 0.7168 0.0
H1457 H 0.92651 0.33452 0.72873 0.0
C1458 C 0.15961 0.96029 0.62722 0.0
C1459 C 0.1666 0.94176 0.61823 0.0
C1460 C 0.18053 0.98641 0.63596 0.0
C1461 C 0.20907 0.99404 0.63577 0.0
C1462 C 0.21617 0.97496 0.62736 0.0
C1463 C 0.19485 0.94907 0.61867 0.0
C1464 C 0.17215 0.00624 0.64475 0.0
C1465 C 0.24634 0.98221 0.62701 0.0
C1466 C 0.2638 0.07059 0.6379 0.0
C1467 C 0.27527 0.07655 0.65705 0.0
C1468 C 0.24207 0.04391 0.63089 0.0
C1469 C 0.23158 0.02257 0.64329 0.0
C1470 C 0.24298 0.02841 0.66264 0.0
C1471 C 0.26466 0.05535 0.66931 0.0
C1472 C 0.23043 0.03852 0.61016 0.0
C1473 C 0.23238 0.00614 0.67625 0.0
H1474 H 0.1378 0.95479 0.62679 0.0
H1475 H 0.20031 0.9346 0.61198 0.0
H1476 H 0.18214 0.01384 0.65963 0.0
H1477 H 0.17964 0.02466 0.63654 0.0
H1478 H 0.14909 0.99646 0.64489 0.0
H1479 H 0.24824 0.96439 0.62101 0.0
H1480 H 0.25728 -0.00022 0.61822 0.0
H1481 H 0.25732 0.98909 0.64166 0.0
H1482 H 0.27175 0.08682 0.62832 0.0
H1483 H 0.27337 0.05975 0.68412 0.0
H1484 H 0.20756 0.03064 0.60913 0.0
H1485 H 0.23348 0.02224 0.60274 0.0
H1486 H 0.24055 0.0575 0.60249 0.0
H1487 H 0.20956 0.9974 0.67694 0.0
H1488 H 0.2432 0.01414 0.69093 0.0
H1489 H 0.23548 0.9888 0.67095 0.0
C1490 C 0.02347 0.19882 0.60202 0.0
C1491 C 0.05013 0.21505 0.61201 0.0
C1492 C 0.99932 0.19477 0.61026 0.0
C1493 C 1.00195 0.20779 0.62877 0.0
C1494 C 0.02889 0.22428 0.63888 0.0
C1495 C 0.05263 0.22744 0.63046 0.0
C1496 C 0.97099 0.17657 0.59914 0.0
C1497 C 0.03268 0.23904 0.65844 0.0
C1498 C 0.9418 0.2191 0.64054 0.0
C1499 C 0.92735 0.19789 0.65227 0.0
C1500 C 0.96645 0.22296 0.63321 0.0
C1501 C 0.97657 0.20472 0.63729 0.0
C1502 C 0.96207 0.18326 0.64915 0.0
C1503 C 0.93782 0.18032 0.65669 0.0
C1504 C 0.98157 0.24648 0.62099 0.0
C1505 C 0.97179 0.163 0.6535 0.0
H1506 H 0.02151 0.18904 0.58781 0.0
H1507 H 0.07326 0.24017 0.63813 0.0
H1508 H 0.95712 0.15986 0.60775 0.0
H1509 H 0.96088 0.18906 0.59613 0.0
H1510 H 0.97243 0.16684 0.58534 0.0
H1511 H 0.055 0.25102 0.66443 0.0
H1512 H 0.02443 0.25354 0.65761 0.0
H1513 H 0.02055 0.22378 0.66847 0.0
H1514 H 0.93391 0.23287 0.63716 0.0
H1515 H 0.9266 0.16373 0.66561 0.0
H1516 H 0.98149 0.23799 0.60632 0.0
H1517 H 0.00379 0.25973 0.62692 0.0
H1518 H 0.97185 0.25974 0.62002 0.0
H1519 H 0.97176 0.15169 0.63998 0.0
H1520 H 0.95829 0.14755 0.66303 0.0
H1521 H 0.99362 0.17434 0.6604 0.0
C1522 C 0.79484 0.82302 0.6213 0.0
C1523 C 0.7806 0.83389 0.63122 0.0
C1524 C 0.80078 0.80371 0.62912 0.0
C1525 C 0.79203 0.79491 0.64721 0.0
C1526 C 0.77774 0.8059 0.65733 0.0
C1527 C 0.77229 0.82538 0.64923 0.0
C1528 C 0.81629 0.79262 0.61797 0.0
C1529 C 0.76782 0.79675 0.67655 0.0
C1530 C 0.78376 0.72501 0.65652 0.0
C1531 C 0.80891 0.73287 0.66765 0.0
C1532 C 0.77758 0.74501 0.65033 0.0
C1533 C 0.79718 0.77357 0.65521 0.0
C1534 C 0.82226 0.78165 0.66689 0.0
C1535 C 0.82776 0.76116 0.67307 0.0
C1536 C 0.75045 0.73558 0.63808 0.0
C1537 C 0.84372 0.81193 0.67227 0.0
H1538 H 0.80159 0.82986 0.60748 0.0
H1539 H 0.76105 0.8336 0.65684 0.0
H1540 H 0.83548 0.79653 0.62673 0.0
H1541 H 0.80297 0.76977 0.61458 0.0
H1542 H 0.8224 0.80224 0.60438 0.0
H1543 H 0.75757 0.80779 0.68276 0.0
H1544 H 0.75269 0.77406 0.6751 0.0
H1545 H 0.78575 0.80053 0.68672 0.0
H1546 H 0.76899 0.70316 0.65239 0.0
H1547 H 0.84729 0.76738 0.6816 0.0
H1548 H 0.75498 0.74243 0.62358 0.0
H1549 H 0.73893 0.74526 0.64425 0.0
H1550 H 0.73662 0.71261 0.63667 0.0
H1551 H 0.85226 0.82201 0.6592 0.0
H1552 H 0.86139 0.81473 0.68232 0.0
H1553 H 0.8338 0.82295 0.67896 0.0
C1554 C 0.03165 0.83096 0.63848 0.0
C1555 C 0.04498 0.81833 0.62941 0.0
C1556 C 0.00484 0.81489 0.64447 0.0
C1557 C 0.99127 0.7855 0.64152 0.0
C1558 C 0.00466 0.77266 0.63233 0.0
C1559 C 0.03137 0.78925 0.62639 0.0
C1560 C 0.99119 0.82932 0.65415 0.0
C1561 C 0.99096 0.74139 0.62904 0.0
C1562 C 0.93513 0.74191 0.67319 0.0
C1563 C 0.9105 0.73253 0.661 0.0
C1564 C 0.96152 0.7595 0.66713 0.0
C1565 C 0.96335 0.76806 0.64845 0.0
C1566 C 0.93856 0.75917 0.63622 0.0
C1567 C 0.91244 0.74149 0.64262 0.0
C1568 C 0.9875 0.76845 0.68057 0.0
C1569 C 0.93962 0.76797 0.61625 0.0
H1570 H 0.04236 0.85345 0.641 0.0
H1571 H 0.04178 0.77945 0.61955 0.0
H1572 H 0.97039 0.82254 0.64644 0.0
H1573 H 0.98766 0.82344 0.66895 0.0
H1574 H 0.00411 0.85233 0.65475 0.0
H1575 H 0.00396 0.7347 0.62139 0.0
H1576 H 0.98716 0.73237 0.64294 0.0
H1577 H 0.97029 0.73261 0.62057 0.0
H1578 H 0.93389 0.73511 0.6874 0.0
H1579 H 0.89355 0.73446 0.6331 0.0
H1580 H 1.0004 0.79147 0.68252 0.0
H1581 H 1.00049 0.76054 0.67432 0.0
H1582 H 0.98247 0.7607 0.69482 0.0
H1583 H 0.9514 0.79099 0.61678 0.0
H1584 H 0.9184 0.76006 0.60878 0.0
H1585 H 0.95093 0.76012 0.60768 0.0
C1586 C 0.18183 0.20061 0.61806 0.0
C1587 C 0.18013 0.2208 0.62988 0.0
C1588 C 0.2008 0.19163 0.62322 0.0
C1589 C 0.21903 0.20366 0.64032 0.0
C1590 C 0.21775 0.22443 0.65208 0.0
C1591 C 0.19836 0.23274 0.6467 0.0
C1592 C 0.20141 0.16934 0.61033 0.0
C1593 C 0.23706 0.23808 0.67028 0.0
C1594 C 0.25211 0.16569 0.66398 0.0
C1595 C 0.27919 0.17918 0.65805 0.0
C1596 C 0.23218 0.17304 0.65799 0.0
C1597 C 0.23953 0.19465 0.64595 0.0
C1598 C 0.26674 0.2082 0.63976 0.0
C1599 C 0.28617 0.20019 0.64579 0.0
C1600 C 0.2033 0.15784 0.66471 0.0
C1601 C 0.2755 0.23152 0.62707 0.0
H1602 H 0.16837 0.19185 0.60476 0.0
H1603 H 0.19759 0.24886 0.6556 0.0
H1604 H 0.22238 0.17758 0.60511 0.0
H1605 H 0.19772 0.15154 0.61848 0.0
H1606 H 0.1854 0.16159 0.59779 0.0
H1607 H 0.23354 0.25403 0.67777 0.0
H1608 H 0.23396 0.22216 0.68014 0.0
H1609 H 0.25921 0.24814 0.66702 0.0
H1610 H 0.2464 0.14927 0.67333 0.0
H1611 H 0.30703 0.21078 0.64116 0.0
H1612 H 0.18715 0.14897 0.65224 0.0
H1613 H 0.19948 0.17261 0.67347 0.0
H1614 H 0.2005 0.14075 0.67338 0.0
H1615 H 0.26105 0.22429 0.61374 0.0
H1616 H 0.29721 0.23954 0.62319 0.0
H1617 H 0.2742 0.24894 0.63444 0.0
C1618 C 0.75357 0.96363 0.64235 0.0
C1619 C 0.77026 0.95384 0.65063 0.0
C1620 C 0.76207 0.99202 0.64461 0.0
C1621 C 0.78806 0.01097 0.65514 0.0
C1622 C 0.80494 0.00112 0.66355 0.0
C1623 C 0.79576 0.9726 0.66124 0.0
C1624 C 0.74342 0.00176 0.6356 0.0
C1625 C 0.83289 0.02074 0.67473 0.0
C1626 C 0.82371 0.08704 0.64603 0.0
C1627 C 0.81801 0.09887 0.66203 0.0
C1628 C 0.81392 0.05838 0.64353 0.0
C1629 C 0.79778 0.04117 0.65725 0.0
C1630 C 0.79149 0.05292 0.67323 0.0
C1631 C 0.80183 0.08167 0.67549 0.0
C1632 C 0.82126 0.04659 0.6264 0.0
C1633 C 0.77405 0.03516 0.68802 0.0
H1634 H 0.73394 0.94908 0.634 0.0
H1635 H 0.80869 0.96491 0.66746 0.0
H1636 H 0.73845 0.01322 0.64666 0.0
H1637 H 0.7545 0.0164 0.62495 0.0
H1638 H 0.72347 0.98425 0.62837 0.0
H1639 H 0.84343 0.00969 0.68039 0.0
H1640 H 0.84689 0.03628 0.66548 0.0
H1641 H 0.83005 0.03235 0.68691 0.0
H1642 H 0.83627 0.10024 0.63561 0.0
H1643 H 0.79717 0.09066 0.68782 0.0
H1644 H 0.80189 0.03007 0.61795 0.0
H1645 H 0.83354 0.03684 0.63124 0.0
H1646 H 0.83366 0.06272 0.61692 0.0
H1647 H 0.75357 0.01826 0.68105 0.0
H1648 H 0.77017 0.04738 0.69923 0.0
H1649 H 0.78479 0.02517 0.69502 0.0
C1650 C 0.50974 0.3638 0.72278 0.0
C1651 C 0.50422 0.38422 0.71644 0.0
C1652 C 0.48902 0.33555 0.72027 0.0
C1653 C 0.46244 0.32746 0.71073 0.0
C1654 C 0.45673 0.34797 0.70438 0.0
C1655 C 0.47771 0.37608 0.70731 0.0
C1656 C 0.49584 0.31428 0.7273 0.0
C1657 C 0.42881 0.34016 0.69387 0.0
C1658 C 0.42174 0.25543 0.68398 0.0
C1659 C 0.40088 0.24094 0.69603 0.0
C1660 C 0.44187 0.28352 0.68866 0.0
C1661 C 0.44142 0.29748 0.70596 0.0
C1662 C 0.4207 0.28293 0.71836 0.0
C1663 C 0.40051 0.25483 0.71318 0.0
C1664 C 0.4634 0.29836 0.67493 0.0
C1665 C 0.41984 0.29708 0.73704 0.0
H1666 H 0.53035 0.36981 0.7295 0.0
H1667 H 0.4736 0.39178 0.70209 0.0
H1668 H 0.47945 0.30025 0.73609 0.0
H1669 H 0.49614 0.30119 0.71493 0.0
H1670 H 0.51649 0.32409 0.73597 0.0
H1671 H 0.42717 0.35868 0.69083 0.0
H1672 H 0.42576 0.32776 0.68011 0.0
H1673 H 0.41151 0.32697 0.70236 0.0
H1674 H 0.42211 0.24494 0.67064 0.0
H1675 H 0.38455 0.24372 0.72261 0.0
H1676 H 0.48481 0.30687 0.68217 0.0
H1677 H 0.46171 0.3162 0.67022 0.0
H1678 H 0.46086 0.28448 0.66207 0.0
H1679 H 0.44023 0.30589 0.74588 0.0
H1680 H 0.40296 0.28264 0.74537 0.0
H1681 H 0.41646 0.31466 0.73428 0.0
C1682 C 0.65129 0.14963 0.71487 0.0
C1683 C 0.63663 0.12329 0.72146 0.0
C1684 C 0.67831 0.15966 0.70903 0.0
C1685 C 0.69085 0.14281 0.70965 0.0
C1686 C 0.67626 0.11636 0.7166 0.0
C1687 C 0.64936 0.10694 0.72242 0.0
C1688 C 0.69319 0.18802 0.70182 0.0
C1689 C 0.68879 0.0977 0.71746 0.0
C1690 C 0.74682 0.15353 0.67658 0.0
C1691 C 0.77149 0.16762 0.68912 0.0
C1692 C 0.72054 0.14578 0.683 0.0
C1693 C 0.71879 0.15232 0.70244 0.0
C1694 C 0.74363 0.16702 0.71509 0.0
C1695 C 0.76962 0.17445 0.7083 0.0
C1696 C 0.69456 0.13005 0.66905 0.0
C1697 C 0.74274 0.1745 0.7359 0.0
H1698 H 0.64135 0.16216 0.71398 0.0
H1699 H 0.63802 0.08648 0.72738 0.0
H1700 H 0.71415 0.20098 0.7099 0.0
H1701 H 0.69654 0.1859 0.68658 0.0
H1702 H 0.68121 0.19909 0.70313 0.0
H1703 H 0.67514 0.07813 0.7238 0.0
H1704 H 0.69227 0.0923 0.70285 0.0
H1705 H 0.70949 0.10873 0.72606 0.0
H1706 H 0.74793 0.1481 0.66175 0.0
H1707 H 0.78849 0.18542 0.71814 0.0
H1708 H 0.68255 0.14115 0.66881 0.0
H1709 H 0.68073 0.10919 0.6737 0.0
H1710 H 0.69952 0.12735 0.65429 0.0
H1711 H 0.7319 0.18669 0.73715 0.0
H1712 H 0.764 0.18678 0.74373 0.0
H1713 H 0.73058 0.15528 0.74297 0.0
C1714 C 0.93384 0.55915 0.71032 0.0
C1715 C 0.91879 0.53089 0.70353 0.0
C1716 C 0.92322 0.57677 0.7064 0.0
C1717 C 0.89679 0.56569 0.69568 0.0
C1718 C 0.88172 0.53722 0.68858 0.0
C1719 C 0.89302 0.52019 0.69251 0.0
C1720 C 0.94003 0.6071 0.71399 0.0
C1721 C 0.85338 0.52462 0.67723 0.0
C1722 C 0.85679 0.60405 0.70264 0.0
C1723 C 0.86153 0.61818 0.68619 0.0
C1724 C 0.86796 0.58669 0.70582 0.0
C1725 C 0.88454 0.58371 0.69234 0.0
C1726 C 0.88944 0.59793 0.67572 0.0
C1727 C 0.87771 0.61487 0.67278 0.0
C1728 C 0.862 0.57155 0.72361 0.0
C1729 C 0.90729 0.59549 0.66115 0.0
H1730 H 0.95377 0.56738 0.71887 0.0
H1731 H 0.88144 0.49827 0.68734 0.0
H1732 H 0.94329 0.62038 0.70214 0.0
H1733 H 0.92831 0.61201 0.72432 0.0
H1734 H 0.9608 0.61271 0.72126 0.0
H1735 H 0.84469 0.50226 0.67239 0.0
H1736 H 0.83844 0.52667 0.6861 0.0
H1737 H 0.8549 0.53597 0.66451 0.0
H1738 H 0.8442 0.60642 0.71302 0.0
H1739 H 0.88162 0.62587 0.66008 0.0
H1740 H 0.88193 0.57793 0.73242 0.0
H1741 H 0.85176 0.5488 0.71961 0.0
H1742 H 0.84827 0.57571 0.73248 0.0
H1743 H 0.92861 0.60252 0.66804 0.0
H1744 H 0.90914 0.608 0.64901 0.0
H1745 H 0.89823 0.57343 0.65541 0.0
C1746 C 0.44333 0.9397 0.22273 0.0
C1747 C 0.44542 0.91618 0.22612 0.0
C1748 C 0.45005 0.95169 0.20539 0.0
C1749 C 0.45905 0.93987 0.19106 0.0
C1750 C 0.46084 0.91591 0.1943 0.0
C1751 C 0.45404 0.90438 0.21178 0.0
C1752 C 0.44793 0.97728 0.20252 0.0
C1753 C 0.47021 0.9026 0.17936 0.0
C1754 C 0.45534 0.95731 0.13986 0.0
C1755 C 0.48317 0.978 0.13844 0.0
C1756 C 0.44716 0.94478 0.15689 0.0
C1757 C 0.46729 0.95299 0.17289 0.0
C1758 C 0.4954 0.97379 0.17156 0.0
C1759 C 0.50296 0.98607 0.1544 0.0
C1760 C 0.41699 0.92269 0.15774 0.0
C1761 C 0.5175 0.98313 0.1883 0.0
H1762 H 0.437 0.94913 0.23382 0.0
H1763 H 0.45534 0.88599 0.2142 0.0
H1764 H 0.46887 0.99493 0.20049 0.0
H1765 H 0.43391 0.97353 0.18941 0.0
H1766 H 0.43982 0.98344 0.21483 0.0
H1767 H 0.46986 0.88366 0.1839 0.0
H1768 H 0.45648 0.89686 0.16578 0.0
H1769 H 0.49182 0.91766 0.17632 0.0
H1770 H 0.43997 0.95063 0.12754 0.0
H1771 H 0.52439 0.00233 0.15358 0.0
H1772 H 0.40802 0.92902 0.16939 0.0
H1773 H 0.41577 0.90291 0.16107 0.0
H1774 H 0.40386 0.9188 0.1441 0.0
H1775 H 0.51149 0.9915 0.2007 0.0
H1776 H 0.53846 -0.00061 0.1849 0.0
H1777 H 0.51909 0.96513 0.19274 0.0
C1778 C 0.04515 0.52673 0.23591 0.0
C1779 C 0.06501 0.51916 0.24156 0.0
C1780 C 0.03408 0.52212 0.21675 0.0
C1781 C 0.04291 0.50944 0.20293 0.0
C1782 C 0.06263 0.50139 0.20856 0.0
C1783 C 0.07353 0.50645 0.22779 0.0
C1784 C 0.0131 0.53103 0.21126 0.0
C1785 C 0.07246 0.4877 0.19423 0.0
C1786 C 0.99701 0.47548 0.15614 0.0
C1787 C 0.01105 0.49566 0.14361 0.0
C1788 C 0.00712 0.47971 0.17549 0.0
C1789 C 0.03172 0.50482 0.18253 0.0
C1790 C 0.04582 0.52543 0.17004 0.0
C1791 C 0.03536 0.52056 0.15072 0.0
C1792 C 0.99156 0.45724 0.18838 0.0
C1793 C 0.07208 0.55251 0.17707 0.0
H1794 H 0.03818 0.53621 0.24651 0.0
H1795 H 0.08918 0.50093 0.23197 0.0
H1796 H 0.02129 0.54634 0.20055 0.0
H1797 H 0.99329 0.51286 0.20452 0.0
H1798 H 0.00834 0.54053 0.22375 0.0
H1799 H 0.08732 0.48201 0.20102 0.0
H1800 H 0.05425 0.46861 0.18673 0.0
H1801 H 0.08293 0.50193 0.18322 0.0
H1802 H 0.97797 0.45638 0.15083 0.0
H1803 H 0.04653 0.53609 0.14109 0.0
H1804 H 0.98493 0.4656 0.20042 0.0
H1805 H 0.00561 0.45024 0.19465 0.0
H1806 H 0.97272 0.43892 0.18066 0.0
H1807 H 0.06789 0.56334 0.18904 0.0
H1808 H 0.08016 0.56665 0.16562 0.0
H1809 H 0.08868 0.54835 0.18265 0.0
C1810 C 0.47326 0.55913 0.21265 0.0
C1811 C 0.46381 0.53899 0.2257 0.0
C1812 C 0.4794 0.55346 0.19446 0.0
C1813 C 0.47602 0.52698 0.18916 0.0
C1814 C 0.46565 0.50624 0.20203 0.0
C1815 C 0.45961 0.51248 0.22016 0.0
C1816 C 0.49016 0.57607 0.1811 0.0
C1817 C 0.4618 0.47777 0.19688 0.0
C1818 C 0.47433 0.50798 0.13617 0.0
C1819 C 0.50224 0.51496 0.13465 0.0
C1820 C 0.46531 0.5112 0.15388 0.0
C1821 C 0.48463 0.52158 0.17048 0.0
C1822 C 0.51267 0.52813 0.16911 0.0
C1823 C 0.52114 0.52479 0.15122 0.0
C1824 C 0.43523 0.50397 0.15478 0.0
C1825 C 0.53392 0.53931 0.18649 0.0
H1826 H 0.47609 0.5795 0.21676 0.0
H1827 H 0.45247 0.49691 0.23024 0.0
H1828 H 0.51179 0.58176 0.1782 0.0
H1829 H 0.47699 0.56846 0.16719 0.0
H1830 H 0.49038 0.5951 0.18706 0.0
H1831 H 0.4519 0.46345 0.20798 0.0
H1832 H 0.44865 0.4684 0.18305 0.0
H1833 H 0.48245 0.47963 0.19508 0.0
H1834 H 0.45949 0.49996 0.12348 0.0
H1835 H 0.54281 0.53056 0.15015 0.0
H1836 H 0.43448 0.52288 0.15963 0.0
H1837 H 0.42542 0.48876 0.16536 0.0
H1838 H 0.42257 0.49508 0.14071 0.0
H1839 H 0.53707 0.55969 0.19237 0.0
H1840 H 0.5545 0.54208 0.18317 0.0
H1841 H 0.52611 0.52501 0.19784 0.0
C1842 C 0.96239 0.49541 0.78612 0.0
C1843 C 0.93966 0.46923 0.77924 0.0
C1844 C 0.97309 0.50135 0.80545 0.0
C1845 C 0.96069 0.48061 0.81814 0.0
C1846 C 0.93731 0.45439 0.81135 0.0
C1847 C 0.92706 0.44903 0.79199 0.0
C1848 C 0.99808 0.52954 0.8122 0.0
C1849 C 0.92343 0.43179 0.82447 0.0
C1850 C 0.00399 0.48256 0.86261 0.0
C1851 C 0.9941 0.493 0.87693 0.0
C1852 C 0.99363 0.47891 0.84338 0.0
C1853 C 0.97283 0.4858 0.83834 0.0
C1854 C 0.96297 0.49666 0.85268 0.0
C1855 C 0.97372 0.50013 0.87182 0.0
C1856 C 0.00458 0.46716 0.82848 0.0
C1857 C 0.94083 0.50429 0.84782 0.0
H1858 H 0.97231 0.511 0.77628 0.0
H1859 H 0.90917 0.42893 0.78679 0.0
H1860 H 0.99341 0.53923 0.82459 0.0
H1861 H 0.01616 0.52715 0.81708 0.0
H1862 H 0.00432 0.54386 0.80078 0.0
H1863 H 0.90481 0.41291 0.81708 0.0
H1864 H 0.9386 0.42582 0.83022 0.0
H1865 H 0.91681 0.43956 0.83684 0.0
H1866 H 0.01945 0.47667 0.86649 0.0
H1867 H 0.96627 0.50854 0.88281 0.0
H1868 H 0.01281 0.48142 0.81715 0.0
H1869 H 0.98726 0.44699 0.82153 0.0
H1870 H 0.02151 0.46383 0.83467 0.0
H1871 H 0.94784 0.51962 0.83707 0.0
H1872 H 0.936 0.51323 0.86057 0.0
H1873 H 0.92127 0.48558 0.84134 0.0
C1874 C 0.5873 0.50485 0.8002 0.0
C1875 C 0.56671 0.49029 0.78478 0.0
C1876 C 0.58016 0.51067 0.81802 0.0
C1877 C 0.55176 0.5017 0.82045 0.0
C1878 C 0.53102 0.48778 0.80477 0.0
C1879 C 0.53875 0.48226 0.78713 0.0
C1880 C 0.60286 0.52559 0.8344 0.0
C1881 C 0.50054 0.47803 0.80676 0.0
C1882 C 0.52745 0.4881 0.87005 0.0
C1883 C 0.52588 0.51188 0.87553 0.0
C1884 C 0.53617 0.48473 0.85227 0.0
C1885 C 0.54346 0.50561 0.83961 0.0
C1886 C 0.54214 0.52976 0.84508 0.0
C1887 C 0.53335 0.53261 0.86298 0.0
C1888 C 0.53722 0.45862 0.84693 0.0
C1889 C 0.54986 0.55252 0.832 0.0
H1890 H 0.6089 0.51088 0.79853 0.0
H1891 H 0.52282 0.47139 0.77518 0.0
H1892 H 0.6021 0.54382 0.84087 0.0
H1893 H 0.59937 0.51146 0.84573 0.0
H1894 H 0.62411 0.53281 0.82985 0.0
H1895 H 0.48721 0.46865 0.79297 0.0
H1896 H 0.4927 0.46232 0.81723 0.0
H1897 H 0.49813 0.49569 0.81233 0.0
H1898 H 0.52138 0.47184 0.87956 0.0
H1899 H 0.53257 0.55121 0.86722 0.0
H1900 H 0.55856 0.4641 0.84342 0.0
H1901 H 0.52257 0.44696 0.83399 0.0
H1902 H 0.53157 0.44471 0.85859 0.0
H1903 H 0.57162 0.56043 0.82833 0.0
H1904 H 0.5482 0.57022 0.83853 0.0
H1905 H 0.53593 0.54408 0.81841 0.0
C1906 C 0.51818 0.0618 0.7928 0.0
C1907 C 0.54471 0.08459 0.79095 0.0
C1908 C 0.51181 0.04961 0.81007 0.0
C1909 C 0.53251 0.06032 0.82591 0.0
C1910 C 0.5596 0.08279 0.82399 0.0
C1911 C 0.56537 0.09466 0.80654 0.0
C1912 C 0.48271 0.02559 0.81146 0.0
C1913 C 0.58226 0.09475 0.84052 0.0
C1914 C 0.50653 0.047 0.87521 0.0
C1915 C 0.50942 0.02412 0.87925 0.0
C1916 C 0.51437 0.05924 0.85805 0.0
C1917 C 0.52546 0.04841 0.84459 0.0
C1918 C 0.52887 0.02562 0.84872 0.0
C1919 C 0.52078 0.01374 0.86597 0.0
C1920 C 0.51029 0.08345 0.85417 0.0
C1921 C 0.54078 0.01358 0.83481 0.0
H1922 H 0.50224 0.05358 0.78073 0.0
H1923 H 0.58584 0.11241 0.80529 0.0
H1924 H 0.48388 0.00739 0.81596 0.0
H1925 H 0.47254 0.03142 0.82252 0.0
H1926 H 0.46923 0.01925 0.79769 0.0
H1927 H 0.60262 0.11125 0.83644 0.0
H1928 H 0.57588 0.10372 0.85237 0.0
H1929 H 0.58526 0.07808 0.8461 0.0
H1930 H 0.49751 0.05498 0.8853 0.0
H1931 H 0.52351 0.99635 0.86911 0.0
H1932 H 0.49521 0.07769 0.84129 0.0
H1933 H 0.53039 0.10147 0.85115 0.0
H1934 H 0.50231 0.09002 0.86636 0.0
H1935 H 0.52701 0.00549 0.82115 0.0
H1936 H 0.54293 0.99642 0.84042 0.0
H1937 H 0.56166 0.03005 0.83153 0.0
C1938 C 0.08863 0.23681 0.5426 0.0
C1939 C 0.11018 0.24518 0.55742 0.0
C1940 C 0.0941 0.24833 0.525 0.0
C1941 C 0.12179 0.26865 0.52212 0.0
C1942 C 0.14363 0.27709 0.53698 0.0
C1943 C 0.13756 0.26534 0.55442 0.0
C1944 C 0.07024 0.23878 0.50952 0.0
C1945 C 0.17344 0.29873 0.53452 0.0
C1946 C 0.14336 0.28277 0.47176 0.0
C1947 C 0.14328 0.30763 0.46959 0.0
C1948 C 0.13586 0.26955 0.48861 0.0
C1949 C 0.12804 0.28142 0.50367 0.0
C1950 C 0.12734 0.30618 0.50142 0.0
C1951 C 0.13499 0.31899 0.48444 0.0
C1952 C 0.13699 0.24324 0.49048 0.0
C1953 C 0.11893 0.31941 0.51707 0.0
H1954 H 0.06747 0.22104 0.54468 0.0
H1955 H 0.15428 0.27233 0.56587 0.0
H1956 H 0.06828 0.25678 0.50553 0.0
H1957 H 0.07458 0.22995 0.4965 0.0
H1958 H 0.0499 0.22283 0.51401 0.0
H1959 H 0.1881 0.30262 0.54732 0.0
H1960 H 0.18066 0.29198 0.52199 0.0
H1961 H 0.17451 0.31862 0.53169 0.0
H1962 H 0.15 0.27399 0.46046 0.0
H1963 H 0.13444 0.33795 0.48276 0.0
H1964 H 0.11656 0.22644 0.49416 0.0
H1965 H 0.153 0.24688 0.50228 0.0
H1966 H 0.14221 0.23595 0.47714 0.0
H1967 H 0.09794 0.30418 0.52103 0.0
H1968 H 0.11839 0.33805 0.51279 0.0
H1969 H 0.13393 0.32569 0.53005 0.0
C1970 C 0.72371 0.86885 0.56997 0.0
C1971 C 0.74538 0.86354 0.5751 0.0
C1972 C 0.71217 0.86403 0.55091 0.0
C1973 C 0.72255 0.85363 0.53665 0.0
C1974 C 0.74447 0.84829 0.54172 0.0
C1975 C 0.75563 0.85332 0.56089 0.0
C1976 C 0.68874 0.86987 0.54605 0.0
C1977 C 0.75612 0.83726 0.52688 0.0
C1978 C 0.67566 0.81645 0.49066 0.0
C1979 C 0.68664 0.83723 0.47812 0.0
C1980 C 0.68716 0.82152 0.50974 0.0
C1981 C 0.71022 0.848 0.51645 0.0
C1982 C 0.72144 0.86906 0.50388 0.0
C1983 C 0.70951 0.86342 0.48486 0.0
C1984 C 0.6747 0.7985 0.5227 0.0
C1985 C 0.74598 0.89758 0.51055 0.0
H1986 H 0.71547 0.87642 0.58093 0.0
H1987 H 0.77263 0.84954 0.56473 0.0
H1988 H 0.69474 0.88498 0.53518 0.0
H1989 H 0.66972 0.85047 0.53975 0.0
H1990 H 0.68338 0.87836 0.55877 0.0
H1991 H 0.77325 0.83429 0.53317 0.0
H1992 H 0.73922 0.81703 0.51968 0.0
H1993 H 0.76431 0.85182 0.51572 0.0
H1994 H 0.65827 0.79604 0.48546 0.0
H1995 H 0.71788 0.87964 0.47529 0.0
H1996 H 0.66752 0.80531 0.53523 0.0
H1997 H 0.69087 0.79372 0.52824 0.0
H1998 H 0.65668 0.77914 0.51529 0.0
H1999 H 0.74056 0.9073 0.52252 0.0
H2000 H 0.75234 0.91159 0.49895 0.0
H2001 H 0.76419 0.8958 0.51605 0.0
C2002 C 0.14487 0.89723 0.54617 0.0
C2003 C 0.13214 0.87627 0.55841 0.0
C2004 C 0.15108 0.89143 0.52804 0.0
C2005 C 0.14399 0.86389 0.52182 0.0
C2006 C 0.13022 0.84241 0.53378 0.0
C2007 C 0.12458 0.84888 0.55199 0.0
C2008 C 0.16586 0.91494 0.51574 0.0
C2009 C 0.12202 0.81273 0.52752 0.0
C2010 C 0.14292 0.84808 0.46844 0.0
C2011 C 0.16927 0.85039 0.46727 0.0
C2012 C 0.13404 0.85157 0.48615 0.0
C2013 C 0.15207 0.85793 0.50309 0.0
C2014 C 0.17849 0.85992 0.50206 0.0
C2015 C 0.18668 0.85594 0.48421 0.0
C2016 C 0.1056 0.84904 0.48668 0.0
C2017 C 0.19839 0.86684 0.5198 0.0
H2018 H 0.1502 0.91833 0.55082 0.0
H2019 H 0.11493 0.8326 0.56138 0.0
H2020 H 0.18644 0.91729 0.51295 0.0
H2021 H 0.15342 0.91018 0.50169 0.0
H2022 H 0.1694 0.93508 0.52252 0.0
H2023 H 0.10973 0.79818 0.53793 0.0
H2024 H 0.10942 0.80588 0.51339 0.0
H2025 H 0.1411 0.8113 0.52585 0.0
H2026 H 0.12943 0.84415 0.45547 0.0
H2027 H 0.20681 0.85722 0.48352 0.0
H2028 H 0.10811 0.86944 0.49181 0.0
H2029 H 0.09345 0.83407 0.49689 0.0
H2030 H 0.0933 0.84205 0.47242 0.0
H2031 H 0.20411 0.88761 0.52679 0.0
H2032 H 0.21792 0.86701 0.51661 0.0
H2033 H 0.18807 0.85152 0.53023 0.0
C2034 C 0.63828 0.80222 0.12005 0.0
C2035 C 0.61665 0.80695 0.11364 0.0
C2036 C 0.64832 0.80735 0.13945 0.0
C2037 C 0.63651 0.81754 0.15274 0.0
C2038 C 0.61534 0.82326 0.14628 0.0
C2039 C 0.60562 0.81785 0.12679 0.0
C2040 C 0.67102 0.8011 0.14579 0.0
C2041 C 0.6023 0.83421 0.16005 0.0
C2042 C 0.64048 0.80116 0.20396 0.0
C2043 C 0.66334 0.82613 0.21258 0.0
C2044 C 0.63133 0.79823 0.18453 0.0
C2045 C 0.64535 0.82085 0.17349 0.0
C2046 C 0.66817 0.84626 0.18217 0.0
C2047 C 0.67693 0.84858 0.20163 0.0
C2048 C 0.60699 0.77076 0.17574 0.0
C2049 C 0.68347 0.87087 0.17086 0.0
H2050 H 0.64715 0.79419 0.10988 0.0
H2051 H 0.58868 0.82126 0.12195 0.0
H2052 H 0.6889 0.81973 0.15398 0.0
H2053 H 0.66283 0.78432 0.15547 0.0
H2054 H 0.67887 0.79446 0.13355 0.0
H2055 H 0.5875 0.83942 0.15258 0.0
H2056 H 0.59078 0.81837 0.16992 0.0
H2057 H 0.61882 0.85307 0.16891 0.0
H2058 H 0.63014 0.78366 0.21232 0.0
H2059 H 0.6944 0.86803 0.20831 0.0
H2060 H 0.61395 0.76174 0.16429 0.0
H2061 H 0.59027 0.77394 0.16901 0.0
H2062 H 0.59791 0.75548 0.18641 0.0
H2063 H 0.69297 0.86536 0.15915 0.0
H2064 H 0.70029 0.8894 0.17987 0.0
H2065 H 0.66853 0.87646 0.16412 0.0
C2066 C 0.23987 0.84684 0.12267 0.0
C2067 C 0.23479 0.81988 0.11745 0.0
C2068 C 0.23385 0.85383 0.1406 0.0
C2069 C 0.22209 0.8333 0.1535 0.0
C2070 C 0.21754 0.80628 0.1485 0.0
C2071 C 0.22418 0.8 0.13066 0.0
C2072 C 0.2394 0.88299 0.14553 0.0
C2073 C 0.2049 0.78372 0.1618 0.0
C2074 C 0.22181 0.85179 0.20631 0.0
C2075 C 0.19437 0.84683 0.20705 0.0
C2076 C 0.23149 0.84844 0.18889 0.0
C2077 C 0.21317 0.83947 0.17182 0.0
C2078 C 0.18567 0.83493 0.1724 0.0
C2079 C 0.17672 0.83891 0.18994 0.0
C2080 C 0.26109 0.85385 0.18882 0.0
C2081 C 0.16541 0.82514 0.15454 0.0
H2082 H 0.24783 0.86231 0.11255 0.0
H2083 H 0.2208 0.77931 0.12698 0.0
H2084 H 0.21926 0.88258 0.14666 0.0
H2085 H 0.25191 0.89171 0.15964 0.0
H2086 H 0.25074 0.89712 0.13465 0.0
H2087 H 0.20331 0.76396 0.15596 0.0
H2088 H 0.21769 0.7906 0.17585 0.0
H2089 H 0.18361 0.77957 0.16438 0.0
H2090 H 0.23557 0.8576 0.21942 0.0
H2091 H 0.15571 0.83561 0.19025 0.0
H2092 H 0.27203 0.86824 0.178 0.0
H2093 H 0.26071 0.8341 0.1848 0.0
H2094 H 0.27339 0.86292 0.203 0.0
H2095 H 0.17451 0.83981 0.14354 0.0
H2096 H 0.14498 0.82323 0.15733 0.0
H2097 H 0.16157 0.80457 0.14846 0.0
C2098 C 0.18248 0.39671 0.12672 0.0
C2099 C 0.20871 0.41969 0.1245 0.0
C2100 C 0.1767 0.385 0.14418 0.0
C2101 C 0.1977 0.39643 0.15984 0.0
C2102 C 0.22437 0.41938 0.15765 0.0
C2103 C 0.22957 0.43073 0.14 0.0
C2104 C 0.14804 0.36045 0.14587 0.0
C2105 C 0.24729 0.43214 0.17403 0.0
C2106 C 0.17285 0.38175 0.20935 0.0
C2107 C 0.17691 0.35945 0.21308 0.0
C2108 C 0.18001 0.39432 0.19225 0.0
C2109 C 0.19153 0.38438 0.17852 0.0
C2110 C 0.19612 0.3622 0.18234 0.0
C2111 C 0.18875 0.35 0.19955 0.0
C2112 C 0.17471 0.41787 0.18869 0.0
C2113 C 0.20848 0.35109 0.16812 0.0
H2114 H 0.1664 0.38775 0.11472 0.0
H2115 H 0.24979 0.44863 0.13846 0.0
H2116 H 0.14999 0.34252 0.15001 0.0
H2117 H 0.13796 0.36573 0.15729 0.0
H2118 H 0.13408 0.35395 0.13231 0.0
H2119 H 0.26707 0.44949 0.16988 0.0
H2120 H 0.24041 0.44016 0.18611 0.0
H2121 H 0.2516 0.41611 0.1793 0.0
H2122 H 0.16347 0.389 0.21964 0.0
H2123 H 0.19239 0.3331 0.20245 0.0
H2124 H 0.15917 0.41167 0.17604 0.0
H2125 H 0.1943 0.43635 0.18547 0.0
H2126 H 0.16671 0.42393 0.20112 0.0
H2127 H 0.19447 0.34269 0.15457 0.0
H2128 H 0.21159 0.33435 0.17351 0.0
H2129 H 0.22896 0.36814 0.16471 0.0
C2130 C 0.77511 0.60702 0.88845 0.0
C2131 C 0.77768 0.58375 0.8918 0.0
C2132 C 0.78226 0.61949 0.8713 0.0
C2133 C 0.79223 0.60845 0.85715 0.0
C2134 C 0.79435 0.58465 0.86029 0.0
C2135 C 0.78706 0.5726 0.87755 0.0
C2136 C 0.77974 0.64488 0.86852 0.0
C2137 C 0.80475 0.57214 0.84552 0.0
C2138 C 0.79132 0.62781 0.80621 0.0
C2139 C 0.81925 0.64883 0.80563 0.0
C2140 C 0.78219 0.61451 0.82286 0.0
C2141 C 0.80143 0.6224 0.83936 0.0
C2142 C 0.82963 0.64358 0.83887 0.0
C2143 C 0.83818 0.6565 0.82203 0.0
C2144 C 0.75195 0.59207 0.82282 0.0
C2145 C 0.85083 0.65253 0.85612 0.0
H2146 H 0.76818 0.61597 0.89946 0.0
H2147 H 0.7887 0.55437 0.8799 0.0
H2148 H 0.80075 0.66299 0.8673 0.0
H2149 H 0.76657 0.64147 0.85502 0.0
H2150 H 0.77046 0.65015 0.88052 0.0
H2151 H 0.80433 0.55309 0.84988 0.0
H2152 H 0.79173 0.56682 0.83165 0.0
H2153 H 0.82656 0.58756 0.84311 0.0
H2154 H 0.77646 0.62199 0.79368 0.0
H2155 H 0.85988 0.6724 0.82164 0.0
H2156 H 0.74202 0.598 0.83401 0.0
H2157 H 0.75073 0.57234 0.82631 0.0
H2158 H 0.73967 0.58824 0.8088 0.0
H2159 H 0.84371 0.65978 0.86847 0.0
H2160 H 0.87187 0.6695 0.85348 0.0
H2161 H 0.85275 0.63457 0.86025 0.0
C2162 C 0.41113 0.17678 0.89669 0.0
C2163 C 0.40084 0.18785 0.91031 0.0
C2164 C 0.40121 0.17219 0.87727 0.0
C2165 C 0.38052 0.17886 0.87135 0.0
C2166 C 0.36986 0.18979 0.88504 0.0
C2167 C 0.38015 0.19416 0.90436 0.0
C2168 C 0.4131 0.16053 0.86307 0.0
C2169 C 0.34768 0.19701 0.87927 0.0
C2170 C 0.3733 0.19186 0.81953 0.0
C2171 C 0.35002 0.1665 0.81185 0.0
C2172 C 0.38351 0.19614 0.83887 0.0
C2173 C 0.37012 0.17453 0.8508 0.0
C2174 C 0.34669 0.14886 0.84312 0.0
C2175 C 0.33694 0.14515 0.82374 0.0
C2176 C 0.40852 0.22384 0.84658 0.0
C2177 C 0.33194 0.1253 0.85538 0.0
H2178 H 0.4274 0.17223 0.90117 0.0
H2179 H 0.3719 0.20241 0.91487 0.0
H2180 H 0.396 0.1411 0.85509 0.0
H2181 H 0.42333 0.17555 0.85244 0.0
H2182 H 0.4287 0.15595 0.87005 0.0
H2183 H 0.34148 0.20518 0.8917 0.0
H2184 H 0.35548 0.21287 0.86891 0.0
H2185 H 0.32877 0.17832 0.87201 0.0
H2186 H 0.3833 0.20854 0.81046 0.0
H2187 H 0.31922 0.12534 0.81781 0.0
H2188 H 0.42555 0.22074 0.85282 0.0
H2189 H 0.4027 0.2337 0.85821 0.0
H2190 H 0.41675 0.23836 0.83536 0.0
H2191 H 0.34689 0.11933 0.86157 0.0
H2192 H 0.314 0.10664 0.84721 0.0
H2193 H 0.32408 0.13212 0.8675 0.0
C2194 C 0.82438 0.20439 0.89028 0.0
C2195 C 0.79758 0.19892 0.89414 0.0
C2196 C 0.82967 0.19852 0.87186 0.0
C2197 C 0.80753 0.18646 0.85695 0.0
C2198 C 0.78011 0.17949 0.86094 0.0
C2199 C 0.77548 0.18594 0.87948 0.0
C2200 C 0.85923 0.20633 0.86821 0.0
C2201 C 0.75591 0.16629 0.84545 0.0
C2202 C 0.82914 0.20317 0.80709 0.0
C2203 C 0.83001 0.17952 0.80019 0.0
C2204 C 0.82121 0.20536 0.82538 0.0
C2205 C 0.81368 0.18323 0.83698 0.0
C2206 C 0.81367 0.15891 0.82986 0.0
C2207 C 0.82207 0.15744 0.81158 0.0
C2208 C 0.82184 0.23179 0.83252 0.0
C2209 C 0.80534 0.13472 0.8417 0.0
H2210 H 0.84144 0.21382 0.90163 0.0
H2211 H 0.75474 0.18177 0.88229 0.0
H2212 H 0.85962 0.1881 0.86134 0.0
H2213 H 0.86714 0.22269 0.8582 0.0
H2214 H 0.87378 0.21424 0.88154 0.0
H2215 H 0.73546 0.15936 0.85128 0.0
H2216 H 0.75878 0.18147 0.83503 0.0
H2217 H 0.75523 0.14813 0.83751 0.0
H2218 H 0.83558 0.22041 0.79841 0.0
H2219 H 0.82249 0.13903 0.80618 0.0
H2220 H 0.83755 0.24219 0.84516 0.0
H2221 H 0.80119 0.22692 0.83717 0.0
H2222 H 0.82718 0.24662 0.82146 0.0
H2223 H 0.82064 0.14113 0.85451 0.0
H2224 H 0.8044 0.11654 0.83355 0.0
H2225 H 0.78456 0.12822 0.84683 0.0
C2226 C 0.26996 0.14721 0.45906 0.0
C2227 C 0.28107 0.13647 0.44585 0.0
C2228 C 0.27957 0.15241 0.47857 0.0
C2229 C 0.30072 0.14664 0.48499 0.0
C2230 C 0.31241 0.13632 0.47169 0.0
C2231 C 0.30247 0.13141 0.45227 0.0
C2232 C 0.26666 0.16347 0.49235 0.0
C2233 C 0.33506 0.13001 0.47801 0.0
C2234 C 0.34219 0.17914 0.53341 0.0
C2235 C 0.32896 0.15709 0.54474 0.0
C2236 C 0.33297 0.17619 0.51398 0.0
C2237 C 0.31005 0.15055 0.50571 0.0
C2238 C 0.29638 0.12834 0.51713 0.0
C2239 C 0.30599 0.1319 0.53653 0.0
C2240 C 0.34791 0.20038 0.50226 0.0
C2241 C 0.27192 0.10065 0.50878 0.0
H2242 H 0.25318 0.15084 0.45423 0.0
H2243 H 0.31141 0.12348 0.44207 0.0
H2244 H 0.25569 0.14797 0.50256 0.0
H2245 H 0.28323 0.18269 0.50087 0.0
H2246 H 0.25142 0.16818 0.48494 0.0
H2247 H 0.34244 0.12276 0.46579 0.0
H2248 H 0.35323 0.14882 0.4858 0.0
H2249 H 0.32708 0.11369 0.48804 0.0
H2250 H 0.35973 0.19877 0.53977 0.0
H2251 H 0.29591 0.1147 0.54519 0.0
H2252 H 0.3328 0.20577 0.49554 0.0
H2253 H 0.35711 0.19451 0.49052 0.0
H2254 H 0.36493 0.21914 0.51097 0.0
H2255 H 0.25504 0.1036 0.50207 0.0
H2256 H 0.26314 0.08575 0.51972 0.0
H2257 H 0.27864 0.09129 0.49739 0.0
C2258 C 0.87765 0.14323 0.45277 0.0
C2259 C 0.90456 0.14817 0.44985 0.0
C2260 C 0.87127 0.14887 0.47087 0.0
C2261 C 0.89229 0.15963 0.4865 0.0
C2262 C 0.91966 0.1651 0.48362 0.0
C2263 C 0.92551 0.15941 0.46527 0.0
C2264 C 0.84192 0.14303 0.47329 0.0
C2265 C 0.94256 0.17644 0.49997 0.0
C2266 C 0.87896 0.1938 0.52978 0.0
C2267 C 0.86725 0.17186 0.54136 0.0
C2268 C 0.88789 0.19037 0.51208 0.0
C2269 C 0.88523 0.16443 0.5059 0.0
C2270 C 0.87416 0.14246 0.51779 0.0
C2271 C 0.86519 0.14641 0.53534 0.0
C2272 C 0.89936 0.2142 0.49973 0.0
C2273 C 0.87122 0.11459 0.51179 0.0
H2274 H 0.86152 0.13498 0.4408 0.0
H2275 H 0.94629 0.16311 0.46308 0.0
H2276 H 0.83228 0.12709 0.48345 0.0
H2277 H 0.84254 0.16215 0.47944 0.0
H2278 H 0.82825 0.13549 0.45956 0.0
H2279 H 0.96294 0.18041 0.49524 0.0
H2280 H 0.94532 0.19613 0.50696 0.0
H2281 H 0.93658 0.16146 0.51094 0.0
H2282 H 0.8804 0.21345 0.53432 0.0
H2283 H 0.85652 0.12954 0.54439 0.0
H2284 H 0.88518 0.20841 0.48637 0.0
H2285 H 0.92012 0.21863 0.49556 0.0
H2286 H 0.90158 0.23349 0.50708 0.0
H2287 H 0.8561 0.10466 0.49883 0.0
H2288 H 0.86383 0.10026 0.52318 0.0
H2289 H 0.89161 0.11735 0.50805 0.0
C2290 C 0.8507 0.72928 0.46154 0.0
C2291 C 0.87716 0.7518 0.45913 0.0
C2292 C 0.84494 0.71768 0.47904 0.0
C2293 C 0.86621 0.72866 0.49453 0.0
C2294 C 0.89322 0.75081 0.49205 0.0
C2295 C 0.89836 0.76215 0.47439 0.0
C2296 C 0.81588 0.69403 0.48107 0.0
C2297 C 0.9165 0.76297 0.50818 0.0
C2298 C 0.842 0.71733 0.54438 0.0
C2299 C 0.84437 0.69419 0.5485 0.0
C2300 C 0.84951 0.72904 0.52702 0.0
C2301 C 0.85979 0.71745 0.51347 0.0
C2302 C 0.8628 0.69447 0.51772 0.0
C2303 C 0.85497 0.68306 0.53515 0.0
C2304 C 0.84579 0.75342 0.52299 0.0
C2305 C 0.87393 0.68168 0.50375 0.0
H2306 H 0.83435 0.72078 0.44973 0.0
H2307 H 0.91879 0.77968 0.47272 0.0
H2308 H 0.81698 0.67584 0.48565 0.0
H2309 H 0.80634 0.7004 0.4923 0.0
H2310 H 0.80187 0.68746 0.46752 0.0
H2311 H 0.93673 0.77902 0.50363 0.0
H2312 H 0.91084 0.77258 0.52008 0.0
H2313 H 0.9194 0.74631 0.51389 0.0
H2314 H 0.83356 0.72586 0.55454 0.0
H2315 H 0.85723 0.66543 0.53837 0.0
H2316 H 0.83029 0.7475 0.51034 0.0
H2317 H 0.86585 0.77105 0.51952 0.0
H2318 H 0.8385 0.76063 0.53528 0.0
H2319 H 0.8596 0.67314 0.49034 0.0
H2320 H 0.87619 0.66469 0.50956 0.0
H2321 H 0.89464 0.69781 0.49994 0.0
loop_
_geom_bond_atom_site_label_1
_geom_bond_atom_site_label_2
_geom_bond_distance
_geom_bond_site_symmetry_2
_ccdc_geom_bond_type
H0 C7 0.929 . S
H1 C10 0.930 . S
H2 C12 0.929 . S
H3 C4 0.969 . S
C4 H3 0.969 . S
C4 O5 1.550 . S
C4 H6 0.973 . S
O5 C4 1.550 . S
O5 C11 1.412 . S
H6 C4 0.973 . S
C7 H0 0.929 . S
C7 C8 1.400 . S
C7 C9 1.364 . S
C8 C7 1.400 . S
C8 C12 1.377 . S
C9 C7 1.364 . S
C9 C10 1.374 . S
C10 H1 0.930 . S
C10 C9 1.374 . S
C10 C11 1.383 . S
C11 O5 1.412 . S
C11 C10 1.383 . S
C11 C12 1.394 . S
C12 H2 0.929 . S
C12 C8 1.377 . S
C12 C11 1.394 . S
H13 C20 0.929 . S
H14 C23 0.930 . S
H15 C25 0.929 . S
H16 C17 0.969 . S
C17 H16 0.969 . S
C17 O18 1.550 . S
C17 H19 0.973 . S
O18 C17 1.550 . S
O18 C24 1.412 . S
H19 C17 0.973 . S
C20 H13 0.929 . S
C20 C21 1.400 . S
C20 C22 1.364 . S
C21 C20 1.400 . S
C21 C25 1.377 . S
C22 C20 1.364 . S
C22 C23 1.374 . S
C23 H14 0.930 . S
C23 C22 1.374 . S
C23 C24 1.383 . S
C24 O18 1.412 . S
C24 C23 1.383 . S
C24 C25 1.394 . S
C25 H15 0.929 . S
C25 C21 1.377 . S
C25 C24 1.394 . S
H26 C33 0.929 . S
H27 C36 0.930 . S
H28 C38 0.929 . S
H29 C30 0.969 . S
C30 H29 0.969 . S
C30 O31 1.550 . S
C30 H32 0.973 . S
O31 C30 1.550 . S
O31 C37 1.412 . S
H32 C30 0.973 . S
C33 H26 0.929 . S
C33 C34 1.400 . S
C33 C35 1.364 . S
C34 C33 1.400 . S
C34 C38 1.377 . S
C35 C33 1.364 . S
C35 C36 1.374 . S
C36 H27 0.930 . S
C36 C35 1.374 . S
C36 C37 1.383 . S
C37 O31 1.412 . S
C37 C36 1.383 . S
C37 C38 1.394 . S
C38 H28 0.929 . S
C38 C34 1.377 . S
C38 C37 1.394 . S
H39 C46 0.929 . S
H40 C49 0.930 . S
H41 C51 0.929 . S
H42 C43 0.969 . S
C43 H42 0.969 . S
C43 O44 1.550 . S
C43 H45 0.973 . S
O44 C43 1.550 . S
O44 C50 1.412 . S
H45 C43 0.973 . S
C46 H39 0.929 . S
C46 C47 1.400 . S
C46 C48 1.364 . S
C47 C46 1.400 . S
C47 C51 1.377 . S
C48 C46 1.364 . S
C48 C49 1.374 . S
C49 H40 0.930 . S
C49 C48 1.374 . S
C49 C50 1.383 . S
C50 O44 1.412 . S
C50 C49 1.383 . S
C50 C51 1.394 . S
C51 H41 0.929 . S
C51 C47 1.377 . S
C51 C50 1.394 . S
H52 C59 0.929 . S
H53 C62 0.930 . S
H54 C64 0.929 . S
H55 C56 0.969 . S
C56 H55 0.969 . S
C56 O57 1.550 . S
C56 H58 0.973 . S
O57 C56 1.550 . S
O57 C63 1.412 . S
H58 C56 0.973 . S
C59 H52 0.929 . S
C59 C60 1.400 . S
C59 C61 1.364 . S
C60 C59 1.400 . S
C60 C64 1.377 . S
C61 C59 1.364 . S
C61 C62 1.374 . S
C62 H53 0.930 . S
C62 C61 1.374 . S
C62 C63 1.383 . S
C63 O57 1.412 . S
C63 C62 1.383 . S
C63 C64 1.394 . S
C64 H54 0.929 . S
C64 C60 1.377 . S
C64 C63 1.394 . S
H65 C72 0.929 . S
H66 C75 0.930 . S
H67 C77 0.929 . S
H68 C69 0.969 . S
C69 H68 0.969 . S
C69 O70 1.550 . S
C69 H71 0.973 . S
O70 C69 1.550 . S
O70 C76 1.412 . S
H71 C69 0.973 . S
C72 H65 0.929 . S
C72 C73 1.400 . S
C72 C74 1.364 . S
C73 C72 1.400 . S
C73 C77 1.377 . S
C74 C72 1.364 . S
C74 C75 1.374 . S
C75 H66 0.930 . S
C75 C74 1.374 . S
C75 C76 1.383 . S
C76 O70 1.412 . S
C76 C75 1.383 . S
C76 C77 1.394 . S
C77 H67 0.929 . S
C77 C73 1.377 . S
C77 C76 1.394 . S
H78 C85 0.929 . S
H79 C88 0.930 . S
H80 C90 0.929 . S
H81 C82 0.969 . S
C82 H81 0.969 . S
C82 O83 1.550 . S
C82 H84 0.973 . S
O83 C82 1.550 . S
O83 C89 1.412 . S
H84 C82 0.973 . S
C85 H78 0.929 . S
C85 C86 1.400 . S
C85 C87 1.364 . S
C86 C85 1.400 . S
C86 C90 1.377 . S
C87 C85 1.364 . S
C87 C88 1.374 . S
C88 H79 0.930 . S
C88 C87 1.374 . S
C88 C89 1.383 . S
C89 O83 1.412 . S
C89 C88 1.383 . S
C89 C90 1.394 . S
C90 H80 0.929 . S
C90 C86 1.377 . S
C90 C89 1.394 . S
H91 C98 0.929 . S
H92 C101 0.930 . S
H93 C103 0.929 . S
H94 C95 0.969 . S
C95 H94 0.969 . S
C95 O96 1.550 . S
C95 H97 0.973 . S
O96 C95 1.550 . S
O96 C102 1.412 . S
H97 C95 0.973 . S
C98 H91 0.929 . S
C98 C99 1.400 . S
C98 C100 1.364 . S
C99 C98 1.400 . S
C99 C103 1.377 . S
C100 C98 1.364 . S
C100 C101 1.374 . S
C101 H92 0.930 . S
C101 C100 1.374 . S
C101 C102 1.383 . S
C102 O96 1.412 . S
C102 C101 1.383 . S
C102 C103 1.394 . S
C103 H93 0.929 . S
C103 C99 1.377 . S
C103 C102 1.394 . S
H104 C111 0.929 . S
H105 C114 0.930 . S
H106 C116 0.929 . S
H107 C108 0.969 . S
C108 H107 0.969 . S
C108 O109 1.550 . S
C108 H110 0.973 . S
O109 C108 1.550 . S
O109 C115 1.412 . S
H110 C108 0.973 . S
C111 H104 0.929 . S
C111 C112 1.400 . S
C111 C113 1.364 . S
C112 C111 1.400 . S
C112 C116 1.377 . S
C113 C111 1.364 . S
C113 C114 1.374 . S
C114 H105 0.930 . S
C114 C113 1.374 . S
C114 C115 1.383 . S
C115 O109 1.412 . S
C115 C114 1.383 . S
C115 C116 1.394 . S
C116 H106 0.929 . S
C116 C112 1.377 . S
C116 C115 1.394 . S
H117 C124 0.929 . S
H118 C127 0.930 . S
H119 C129 0.929 . S
H120 C121 0.969 . S
C121 H120 0.969 . S
C121 O122 1.550 . S
C121 H123 0.973 . S
O122 C121 1.550 . S
O122 C128 1.412 . S
H123 C121 0.973 . S
C124 H117 0.929 . S
C124 C125 1.400 . S
C124 C126 1.364 . S
C125 C124 1.400 . S
C125 C129 1.377 . S
C126 C124 1.364 . S
C126 C127 1.374 . S
C127 H118 0.930 . S
C127 C126 1.374 . S
C127 C128 1.383 . S
C128 O122 1.412 . S
C128 C127 1.383 . S
C128 C129 1.394 . S
C129 H119 0.929 . S
C129 C125 1.377 . S
C129 C128 1.394 . S
H130 C137 0.929 . S
H131 C140 0.930 . S
H132 C142 0.929 . S
H133 C134 0.969 . S
C134 H133 0.969 . S
C134 O135 1.550 . S
C134 H136 0.973 . S
O135 C134 1.550 . S
O135 C141 1.412 . S
H136 C134 0.973 . S
C137 H130 0.929 . S
C137 C138 1.400 . S
C137 C139 1.364 . S
C138 C137 1.400 . S
C138 C142 1.377 . S
C139 C137 1.364 . S
C139 C140 1.374 . S
C140 H131 0.930 . S
C140 C139 1.374 . S
C140 C141 1.383 . S
C141 O135 1.412 . S
C141 C140 1.383 . S
C141 C142 1.394 . S
C142 H132 0.929 . S
C142 C138 1.377 . S
C142 C141 1.394 . S
H143 C150 0.929 . S
H144 C153 0.930 . S
H145 C155 0.929 . S
H146 C147 0.969 . S
C147 H146 0.969 . S
C147 O148 1.550 . S
C147 H149 0.973 . S
O148 C147 1.550 . S
O148 C154 1.412 . S
H149 C147 0.973 . S
C150 H143 0.929 . S
C150 C151 1.400 . S
C150 C152 1.364 . S
C151 C150 1.400 . S
C151 C155 1.377 . S
C152 C150 1.364 . S
C152 C153 1.374 . S
C153 H144 0.930 . S
C153 C152 1.374 . S
C153 C154 1.383 . S
C154 O148 1.412 . S
C154 C153 1.383 . S
C154 C155 1.394 . S
C155 H145 0.929 . S
C155 C151 1.377 . S
C155 C154 1.394 . S
H156 C163 0.929 . S
H157 C166 0.930 . S
H158 C168 0.929 . S
H159 C160 0.969 . S
C160 H159 0.969 . S
C160 O161 1.550 . S
C160 H162 0.973 . S
O161 C160 1.550 . S
O161 C167 1.412 . S
H162 C160 0.973 . S
C163 H156 0.929 . S
C163 C164 1.400 . S
C163 C165 1.364 . S
C164 C163 1.400 . S
C164 C168 1.377 . S
C165 C163 1.364 . S
C165 C166 1.374 . S
C166 H157 0.930 . S
C166 C165 1.374 . S
C166 C167 1.383 . S
C167 O161 1.412 . S
C167 C166 1.383 . S
C167 C168 1.394 . S
C168 H158 0.929 . S
C168 C164 1.377 . S
C168 C167 1.394 . S
H169 C176 0.929 . S
H170 C179 0.930 . S
H171 C181 0.929 . S
H172 C173 0.969 . S
C173 H172 0.969 . S
C173 O174 1.550 . S
C173 H175 0.973 . S
O174 C173 1.550 . S
O174 C180 1.412 . S
H175 C173 0.973 . S
C176 H169 0.929 . S
C176 C177 1.400 . S
C176 C178 1.364 . S
C177 C176 1.400 . S
C177 C181 1.377 . S
C178 C176 1.364 . S
C178 C179 1.374 . S
C179 H170 0.930 . S
C179 C178 1.374 . S
C179 C180 1.383 . S
C180 O174 1.412 . S
C180 C179 1.383 . S
C180 C181 1.394 . S
C181 H171 0.929 . S
C181 C177 1.377 . S
C181 C180 1.394 . S
H182 C189 0.929 . S
H183 C192 0.930 . S
H184 C194 0.929 . S
H185 C186 0.969 . S
C186 H185 0.969 . S
C186 O187 1.550 . S
C186 H188 0.973 . S
O187 C186 1.550 . S
O187 C193 1.412 . S
H188 C186 0.973 . S
C189 H182 0.929 . S
C189 C190 1.400 . S
C189 C191 1.364 . S
C190 C189 1.400 . S
C190 C194 1.377 . S
C191 C189 1.364 . S
C191 C192 1.374 . S
C192 H183 0.930 . S
C192 C191 1.374 . S
C192 C193 1.383 . S
C193 O187 1.412 . S
C193 C192 1.383 . S
C193 C194 1.394 . S
C194 H184 0.929 . S
C194 C190 1.377 . S
C194 C193 1.394 . S
H195 C202 0.929 . S
H196 C205 0.930 . S
H197 C207 0.929 . S
H198 C199 0.969 . S
C199 H198 0.969 . S
C199 O200 1.550 . S
C199 H201 0.973 . S
O200 C199 1.550 . S
O200 C206 1.412 . S
H201 C199 0.973 . S
C202 H195 0.929 . S
C202 C203 1.400 . S
C202 C204 1.364 . S
C203 C202 1.400 . S
C203 C207 1.377 . S
C204 C202 1.364 . S
C204 C205 1.374 . S
C205 H196 0.930 . S
C205 C204 1.374 . S
C205 C206 1.383 . S
C206 O200 1.412 . S
C206 C205 1.383 . S
C206 C207 1.394 . S
C207 H197 0.929 . S
C207 C203 1.377 . S
C207 C206 1.394 . S
H208 C215 0.929 . S
H209 C218 0.930 . S
H210 C220 0.929 . S
H211 C212 0.969 . S
C212 H211 0.969 . S
C212 O213 1.550 . S
C212 H214 0.973 . S
O213 C212 1.550 . S
O213 C219 1.412 . S
H214 C212 0.973 . S
C215 H208 0.929 . S
C215 C216 1.400 . S
C215 C217 1.364 . S
C216 C215 1.400 . S
C216 C220 1.377 . S
C217 C215 1.364 . S
C217 C218 1.374 . S
C218 H209 0.930 . S
C218 C217 1.374 . S
C218 C219 1.383 . S
C219 O213 1.412 . S
C219 C218 1.383 . S
C219 C220 1.394 . S
C220 H210 0.929 . S
C220 C216 1.377 . S
C220 C219 1.394 . S
H221 C228 0.929 . S
H222 C231 0.930 . S
H223 C233 0.929 . S
H224 C225 0.969 . S
C225 H224 0.969 . S
C225 O226 1.550 . S
C225 H227 0.973 . S
O226 C225 1.550 . S
O226 C232 1.412 . S
H227 C225 0.973 . S
C228 H221 0.929 . S
C228 C229 1.400 . S
C228 C230 1.364 . S
C229 C228 1.400 . S
C229 C233 1.377 . S
C230 C228 1.364 . S
C230 C231 1.374 . S
C231 H222 0.930 . S
C231 C230 1.374 . S
C231 C232 1.383 . S
C232 O226 1.412 . S
C232 C231 1.383 . S
C232 C233 1.394 . S
C233 H223 0.929 . S
C233 C229 1.377 . S
C233 C232 1.394 . S
Eu234 C243 2.828 1_565 S
Eu234 O245 2.392 . S
Eu234 O247 2.418 . S
Eu234 O252 2.373 1_565 S
Eu234 O255 2.488 . S
Eu234 O256 2.471 1_565 S
Eu234 O257 2.349 1_565 S
Eu235 O244 2.373 1_545 S
Eu235 O248 2.488 . S
Eu235 O249 2.471 1_545 S
Eu235 O250 2.349 1_545 S
Eu235 O253 2.392 . S
Eu235 O254 2.418 . S
Eu235 C264 2.828 . S
C236 O254 1.244 . S
C236 O257 1.265 1_554 S
C237 C238 1.379 . S
C237 C241 1.373 1_545 S
C237 C243 1.505 . S
C238 C237 1.379 . S
C238 C240 1.369 . S
C238 H266 0.930 . S
C239 C241 1.383 1_545 S
C239 C242 1.382 . S
C239 H267 0.930 1_545 S
C240 C238 1.369 . S
C240 C242 1.392 . S
C240 H268 0.930 . S
C241 C237 1.373 1_565 S
C241 C239 1.383 1_565 S
C241 H269 0.931 . S
C242 C239 1.382 . S
C242 C240 1.392 . S
C243 Eu234 2.828 1_545 S
C243 C237 1.505 . S
C243 O255 1.249 1_545 S
C243 O256 1.244 . S
O244 Eu235 2.373 1_565 S
O244 C246 1.258 . S
O245 Eu234 2.392 . S
O245 C246 1.242 1_556 S
C246 O244 1.258 . S
C246 O245 1.242 1_554 S
O247 Eu234 2.418 . S
O247 C251 1.244 1_556 S
O248 Eu235 2.488 . S
O248 C264 1.249 . S
O249 Eu235 2.471 1_565 S
O249 C264 1.244 1_565 S
O250 Eu235 2.349 1_565 S
O250 C251 1.265 . S
C251 O247 1.244 1_554 S
C251 O250 1.265 . S
O252 Eu234 2.373 1_545 S
O252 C265 1.258 . S
O253 Eu235 2.392 . S
O253 C265 1.242 1_554 S
O254 Eu235 2.418 . S
O254 C236 1.244 . S
O255 Eu234 2.488 . S
O255 C243 1.249 1_565 S
O256 Eu234 2.471 1_545 S
O256 C243 1.244 . S
O257 Eu234 2.349 1_545 S
O257 C236 1.265 1_556 S
C258 C259 1.379 . S
C258 C262 1.373 1_565 S
C258 C264 1.505 1_565 S
C259 C258 1.379 . S
C259 C261 1.369 . S
C259 H270 0.930 . S
C260 C262 1.383 . S
C260 C263 1.382 1_545 S
C260 H271 0.930 . S
C261 C259 1.369 . S
C261 C263 1.392 . S
C261 H272 0.930 . S
C262 C258 1.373 1_545 S
C262 C260 1.383 . S
C262 H273 0.931 . S
C263 C260 1.382 1_565 S
C263 C261 1.392 . S
C264 Eu235 2.828 . S
C264 O248 1.249 . S
C264 O249 1.244 1_545 S
C264 C258 1.505 1_545 S
C265 O252 1.258 . S
C265 O253 1.242 1_556 S
H266 C238 0.930 . S
H267 C239 0.930 1_565 S
H268 C240 0.930 . S
H269 C241 0.931 . S
H270 C259 0.930 . S
H271 C260 0.930 . S
H272 C261 0.930 . S
H273 C262 0.931 . S
Eu274 C283 2.828 1_455 S
Eu274 O285 2.392 1_556 S
Eu274 O287 2.418 . S
Eu274 O292 2.373 1_455 S
Eu274 O295 2.488 . S
Eu274 O296 2.471 1_455 S
Eu274 O297 2.349 1_455 S
Eu275 O284 2.373 1_655 S
Eu275 O288 2.488 . S
Eu275 O289 2.471 1_655 S
Eu275 O290 2.349 1_655 S
Eu275 O293 2.392 . S
Eu275 O294 2.418 . S
Eu275 C304 2.828 1_655 S
C276 O294 1.244 . S
C276 O297 1.265 1_554 S
C277 C278 1.379 . S
C277 C281 1.373 1_655 S
C277 C283 1.505 . S
C278 C277 1.379 . S
C278 C280 1.369 . S
C278 H306 0.930 . S
C279 C281 1.383 1_655 S
C279 C282 1.382 . S
C279 H307 0.930 1_655 S
C280 C278 1.369 . S
C280 C282 1.392 . S
C280 H308 0.930 . S
C281 C277 1.373 1_455 S
C281 C279 1.383 1_455 S
C281 H309 0.931 . S
C282 C279 1.382 . S
C282 C280 1.392 . S
C283 Eu274 2.828 1_655 S
C283 C277 1.505 . S
C283 O295 1.249 1_655 S
C283 O296 1.244 . S
O284 Eu275 2.373 1_455 S
O284 C286 1.258 . S
O285 Eu274 2.392 1_554 S
O285 C286 1.242 . S
C286 O284 1.258 . S
C286 O285 1.242 . S
O287 Eu274 2.418 . S
O287 C291 1.244 1_556 S
O288 Eu275 2.488 . S
O288 C304 1.249 1_655 S
O289 Eu275 2.471 1_455 S
O289 C304 1.244 . S
O290 Eu275 2.349 1_455 S
O290 C291 1.265 . S
C291 O287 1.244 1_554 S
C291 O290 1.265 . S
O292 Eu274 2.373 1_655 S
O292 C305 1.258 . S
O293 Eu275 2.392 . S
O293 C305 1.242 1_554 S
O294 Eu275 2.418 . S
O294 C276 1.244 . S
O295 Eu274 2.488 . S
O295 C283 1.249 1_455 S
O296 Eu274 2.471 1_655 S
O296 C283 1.244 . S
O297 Eu274 2.349 1_655 S
O297 C276 1.265 1_556 S
C298 C299 1.379 . S
C298 C302 1.366 1_455 S
C298 C304 1.505 . S
C299 C298 1.379 . S
C299 C301 1.369 . S
C299 H310 0.930 . S
C300 C302 1.375 1_455 S
C300 C303 1.382 . S
C300 H311 0.930 1_455 S
C301 C299 1.369 . S
C301 C303 1.392 . S
C301 H312 0.930 . S
C302 C298 1.366 1_655 S
C302 C300 1.375 1_655 S
C302 H313 0.946 . S
C303 C300 1.382 . S
C303 C301 1.392 . S
C304 Eu275 2.828 1_455 S
C304 O288 1.249 1_455 S
C304 O289 1.244 . S
C304 C298 1.505 . S
C305 O292 1.258 . S
C305 O293 1.242 1_556 S
H306 C278 0.930 . S
H307 C279 0.930 1_455 S
H308 C280 0.930 . S
H309 C281 0.931 . S
H310 C299 0.930 . S
H311 C300 0.930 1_655 S
H312 C301 0.930 . S
H313 C302 0.946 . S
Eu314 C323 2.828 . S
Eu314 O325 2.392 . S
Eu314 O327 2.418 . S
Eu314 O332 2.373 . S
Eu314 O335 2.488 . S
Eu314 O336 2.471 . S
Eu314 O337 2.349 . S
Eu315 O324 2.373 . S
Eu315 O328 2.488 . S
Eu315 O329 2.471 . S
Eu315 O330 2.349 . S
Eu315 O333 2.392 1_556 S
Eu315 O334 2.418 . S
Eu315 C344 2.828 . S
C316 O334 1.244 1_554 S
C316 O337 1.265 . S
C317 C318 1.379 . S
C317 C321 1.373 . S
C317 C323 1.505 . S
C318 C317 1.379 . S
C318 C320 1.369 . S
C318 H346 0.930 . S
C319 C321 1.383 . S
C319 C322 1.382 . S
C319 H347 0.930 . S
C320 C318 1.369 . S
C320 C322 1.392 . S
C320 H348 0.930 . S
C321 C317 1.373 . S
C321 C319 1.383 . S
C321 H349 0.931 . S
C322 C319 1.382 . S
C322 C320 1.392 . S
C323 Eu314 2.828 . S
C323 C317 1.505 . S
C323 O335 1.249 . S
C323 O336 1.244 . S
O324 Eu315 2.373 . S
O324 C326 1.258 . S
O325 Eu314 2.392 . S
O325 C326 1.242 1_554 S
C326 O324 1.258 . S
C326 O325 1.242 1_556 S
O327 Eu314 2.418 . S
O327 C331 1.244 . S
O328 Eu315 2.488 . S
O328 C344 1.249 . S
O329 Eu315 2.471 . S
O329 C344 1.244 . S
O330 Eu315 2.349 . S
O330 C331 1.265 1_556 S
C331 O327 1.244 . S
C331 O330 1.265 1_554 S
O332 Eu314 2.373 . S
O332 C345 1.258 . S
O333 Eu315 2.392 1_554 S
O333 C345 1.242 . S
O334 Eu315 2.418 . S
O334 C316 1.244 1_556 S
O335 Eu314 2.488 . S
O335 C323 1.249 . S
O336 Eu314 2.471 . S
O336 C323 1.244 . S
O337 Eu314 2.349 . S
O337 C316 1.265 . S
C338 C339 1.379 . S
C338 C342 1.373 . S
C338 C344 1.505 . S
C339 C338 1.379 . S
C339 C341 1.369 . S
C339 H350 0.930 . S
C340 C342 1.383 . S
C340 C343 1.382 . S
C340 H351 0.930 . S
C341 C339 1.369 . S
C341 C343 1.392 . S
C341 H352 0.930 . S
C342 C338 1.373 . S
C342 C340 1.383 . S
C342 H353 0.931 . S
C343 C340 1.382 . S
C343 C341 1.392 . S
C344 Eu315 2.828 . S
C344 O328 1.249 . S
C344 O329 1.244 . S
C344 C338 1.505 . S
C345 O332 1.258 . S
C345 O333 1.242 . S
H346 C318 0.930 . S
H347 C319 0.930 . S
H348 C320 0.930 . S
H349 C321 0.931 . S
H350 C339 0.930 . S
H351 C340 0.930 . S
H352 C341 0.930 . S
H353 C342 0.931 . S
Eu354 C363 2.828 . S
Eu354 O365 2.392 . S
Eu354 O367 2.418 . S
Eu354 O372 2.373 . S
Eu354 O375 2.488 . S
Eu354 O376 2.471 . S
Eu354 O377 2.349 . S
Eu355 O364 2.373 . S
Eu355 O368 2.488 . S
Eu355 O369 2.471 . S
Eu355 O370 2.349 . S
Eu355 O373 2.392 . S
Eu355 O374 2.418 . S
Eu355 C384 2.828 . S
C356 O374 1.244 . S
C356 O377 1.265 . S
C357 C358 1.379 . S
C357 C361 1.373 . S
C357 C363 1.505 . S
C358 C357 1.379 . S
C358 C360 1.369 . S
C358 H386 0.930 . S
C359 C361 1.383 . S
C359 C362 1.382 . S
C359 H387 0.930 . S
C360 C358 1.369 . S
C360 C362 1.392 . S
C360 H388 0.930 . S
C361 C357 1.373 . S
C361 C359 1.383 . S
C361 H389 0.931 . S
C362 C359 1.382 . S
C362 C360 1.392 . S
C363 Eu354 2.828 . S
C363 C357 1.505 . S
C363 O375 1.249 . S
C363 O376 1.244 . S
O364 Eu355 2.373 . S
O364 C366 1.258 . S
O365 Eu354 2.392 . S
O365 C366 1.242 . S
C366 O364 1.258 . S
C366 O365 1.242 . S
O367 Eu354 2.418 . S
O367 C371 1.244 . S
O368 Eu355 2.488 . S
O368 C384 1.249 . S
O369 Eu355 2.471 . S
O369 C384 1.244 . S
O370 Eu355 2.349 . S
O370 C371 1.265 . S
C371 O367 1.244 . S
C371 O370 1.265 . S
O372 Eu354 2.373 . S
O372 C385 1.258 . S
O373 Eu355 2.392 . S
O373 C385 1.242 . S
O374 Eu355 2.418 . S
O374 C356 1.244 . S
O375 Eu354 2.488 . S
O375 C363 1.249 . S
O376 Eu354 2.471 . S
O376 C363 1.244 . S
O377 Eu354 2.349 . S
O377 C356 1.265 . S
C378 C379 1.379 . S
C378 C382 1.373 . S
C378 C384 1.505 . S
C379 C378 1.379 . S
C379 C381 1.369 . S
C379 H390 0.930 . S
C380 C382 1.383 . S
C380 C383 1.382 . S
C380 H391 0.930 . S
C381 C379 1.369 . S
C381 C383 1.392 . S
C381 H392 0.930 . S
C382 C378 1.373 . S
C382 C380 1.383 . S
C382 H393 0.931 . S
C383 C380 1.382 . S
C383 C381 1.392 . S
C384 Eu355 2.828 . S
C384 O368 1.249 . S
C384 O369 1.244 . S
C384 C378 1.505 . S
C385 O372 1.258 . S
C385 O373 1.242 . S
H386 C358 0.930 . S
H387 C359 0.930 . S
H388 C360 0.930 . S
H389 C361 0.931 . S
H390 C379 0.930 . S
H391 C380 0.930 . S
H392 C381 0.930 . S
H393 C382 0.931 . S
Eu394 C403 2.828 . S
Eu394 O405 2.392 . S
Eu394 O407 2.418 . S
Eu394 O412 2.373 . S
Eu394 O415 2.488 . S
Eu394 O416 2.471 . S
Eu394 O417 2.349 . S
Eu395 O404 2.373 . S
Eu395 O408 2.488 . S
Eu395 O409 2.471 . S
Eu395 O410 2.349 . S
Eu395 O413 2.392 . S
Eu395 O414 2.418 . S
Eu395 C424 2.828 . S
C396 O414 1.244 . S
C396 O417 1.265 . S
C397 C398 1.379 . S
C397 C401 1.373 . S
C397 C403 1.505 . S
C398 C397 1.379 . S
C398 C400 1.369 . S
C398 H426 0.930 . S
C399 C401 1.383 . S
C399 C402 1.382 . S
C399 H427 0.930 . S
C400 C398 1.369 . S
C400 C402 1.392 . S
C400 H428 0.930 . S
C401 C397 1.373 . S
C401 C399 1.383 . S
C401 H429 0.931 . S
C402 C399 1.382 . S
C402 C400 1.392 . S
C403 Eu394 2.828 . S
C403 C397 1.505 . S
C403 O415 1.249 . S
C403 O416 1.244 . S
O404 Eu395 2.373 . S
O404 C406 1.258 . S
O405 Eu394 2.392 . S
O405 C406 1.242 . S
C406 O404 1.258 . S
C406 O405 1.242 . S
O407 Eu394 2.418 . S
O407 C411 1.244 . S
O408 Eu395 2.488 . S
O408 C424 1.249 . S
O409 Eu395 2.471 . S
O409 C424 1.244 . S
O410 Eu395 2.349 . S
O410 C411 1.265 . S
C411 O407 1.244 . S
C411 O410 1.265 . S
O412 Eu394 2.373 . S
O412 C425 1.258 . S
O413 Eu395 2.392 . S
O413 C425 1.242 . S
O414 Eu395 2.418 . S
O414 C396 1.244 . S
O415 Eu394 2.488 . S
O415 C403 1.249 . S
O416 Eu394 2.471 . S
O416 C403 1.244 . S
O417 Eu394 2.349 . S
O417 C396 1.265 . S
C418 C419 1.379 . S
C418 C422 1.373 . S
C418 C424 1.505 . S
C419 C418 1.379 . S
C419 C421 1.369 . S
C419 H430 0.930 . S
C420 C422 1.383 . S
C420 C423 1.382 . S
C420 H431 0.930 . S
C421 C419 1.369 . S
C421 C423 1.392 . S
C421 H432 0.930 . S
C422 C418 1.373 . S
C422 C420 1.383 . S
C422 H433 0.931 . S
C423 C420 1.382 . S
C423 C421 1.392 . S
C424 Eu395 2.828 . S
C424 O408 1.249 . S
C424 O409 1.244 . S
C424 C418 1.505 . S
C425 O412 1.258 . S
C425 O413 1.242 . S
H426 C398 0.930 . S
H427 C399 0.930 . S
H428 C400 0.930 . S
H429 C401 0.931 . S
H430 C419 0.930 . S
H431 C420 0.930 . S
H432 C421 0.930 . S
H433 C422 0.931 . S
Eu434 C443 2.828 . S
Eu434 O445 2.392 . S
Eu434 O447 2.418 . S
Eu434 O452 2.373 . S
Eu434 O455 2.488 . S
Eu434 O456 2.471 . S
Eu434 O457 2.349 . S
Eu435 O444 2.373 . S
Eu435 O448 2.488 . S
Eu435 O449 2.471 . S
Eu435 O450 2.349 . S
Eu435 O453 2.392 . S
Eu435 O454 2.418 . S
Eu435 C464 2.828 . S
C436 O454 1.244 . S
C436 O457 1.265 . S
C437 C438 1.379 . S
C437 C441 1.373 . S
C437 C443 1.505 . S
C438 C437 1.379 . S
C438 C440 1.369 . S
C438 H466 0.930 . S
C439 C441 1.383 . S
C439 C442 1.382 . S
C439 H467 0.930 . S
C440 C438 1.369 . S
C440 C442 1.392 . S
C440 H468 0.930 . S
C441 C437 1.373 . S
C441 C439 1.383 . S
C441 H469 0.931 . S
C442 C439 1.382 . S
C442 C440 1.392 . S
C443 Eu434 2.828 . S
C443 C437 1.505 . S
C443 O455 1.249 . S
C443 O456 1.244 . S
O444 Eu435 2.373 . S
O444 C446 1.258 . S
O445 Eu434 2.392 . S
O445 C446 1.242 . S
C446 O444 1.258 . S
C446 O445 1.242 . S
O447 Eu434 2.418 . S
O447 C451 1.244 . S
O448 Eu435 2.488 . S
O448 C464 1.249 . S
O449 Eu435 2.471 . S
O449 C464 1.244 . S
O450 Eu435 2.349 . S
O450 C451 1.265 . S
C451 O447 1.244 . S
C451 O450 1.265 . S
O452 Eu434 2.373 . S
O452 C465 1.258 . S
O453 Eu435 2.392 . S
O453 C465 1.242 . S
O454 Eu435 2.418 . S
O454 C436 1.244 . S
O455 Eu434 2.488 . S
O455 C443 1.249 . S
O456 Eu434 2.471 . S
O456 C443 1.244 . S
O457 Eu434 2.349 . S
O457 C436 1.265 . S
C458 C459 1.379 . S
C458 C462 1.373 . S
C458 C464 1.505 . S
C459 C458 1.379 . S
C459 C461 1.369 . S
C459 H470 0.930 . S
C460 C462 1.383 . S
C460 C463 1.382 . S
C460 H471 0.930 . S
C461 C459 1.369 . S
C461 C463 1.392 . S
C461 H472 0.930 . S
C462 C458 1.373 . S
C462 C460 1.383 . S
C462 H473 0.931 . S
C463 C460 1.382 . S
C463 C461 1.392 . S
C464 Eu435 2.828 . S
C464 O448 1.249 . S
C464 O449 1.244 . S
C464 C458 1.505 . S
C465 O452 1.258 . S
C465 O453 1.242 . S
H466 C438 0.930 . S
H467 C439 0.930 . S
H468 C440 0.930 . S
H469 C441 0.931 . S
H470 C459 0.930 . S
H471 C460 0.930 . S
H472 C461 0.930 . S
H473 C462 0.931 . S
Eu474 C483 2.828 . S
Eu474 O485 2.392 . S
Eu474 O487 2.418 . S
Eu474 O492 2.373 . S
Eu474 O495 2.488 . S
Eu474 O496 2.471 . S
Eu474 O497 2.349 . S
Eu475 O484 2.373 . S
Eu475 O488 2.488 . S
Eu475 O489 2.471 . S
Eu475 O490 2.349 . S
Eu475 O493 2.392 . S
Eu475 O494 2.418 . S
Eu475 C504 2.828 . S
C476 O494 1.244 . S
C476 O497 1.265 . S
C477 C478 1.379 . S
C477 C481 1.373 . S
C477 C483 1.505 . S
C478 C477 1.379 . S
C478 C480 1.369 . S
C478 H506 0.930 . S
C479 C481 1.383 . S
C479 C482 1.382 . S
C479 H507 0.930 . S
C480 C478 1.369 . S
C480 C482 1.392 . S
C480 H508 0.930 . S
C481 C477 1.373 . S
C481 C479 1.383 . S
C481 H509 0.931 . S
C482 C479 1.382 . S
C482 C480 1.392 . S
C483 Eu474 2.828 . S
C483 C477 1.505 . S
C483 O495 1.249 . S
C483 O496 1.244 . S
O484 Eu475 2.373 . S
O484 C486 1.258 . S
O485 Eu474 2.392 . S
O485 C486 1.242 . S
C486 O484 1.258 . S
C486 O485 1.242 . S
O487 Eu474 2.418 . S
O487 C491 1.244 . S
O488 Eu475 2.488 . S
O488 C504 1.249 . S
O489 Eu475 2.471 . S
O489 C504 1.244 . S
O490 Eu475 2.349 . S
O490 C491 1.265 . S
C491 O487 1.244 . S
C491 O490 1.265 . S
O492 Eu474 2.373 . S
O492 C505 1.258 . S
O493 Eu475 2.392 . S
O493 C505 1.242 . S
O494 Eu475 2.418 . S
O494 C476 1.244 . S
O495 Eu474 2.488 . S
O495 C483 1.249 . S
O496 Eu474 2.471 . S
O496 C483 1.244 . S
O497 Eu474 2.349 . S
O497 C476 1.265 . S
C498 C499 1.379 . S
C498 C502 1.373 . S
C498 C504 1.505 . S
C499 C498 1.379 . S
C499 C501 1.369 . S
C499 H510 0.930 . S
C500 C502 1.383 . S
C500 C503 1.382 . S
C500 H511 0.930 . S
C501 C499 1.369 . S
C501 C503 1.392 . S
C501 H512 0.930 . S
C502 C498 1.373 . S
C502 C500 1.383 . S
C502 H513 0.931 . S
C503 C500 1.382 . S
C503 C501 1.392 . S
C504 Eu475 2.828 . S
C504 O488 1.249 . S
C504 O489 1.244 . S
C504 C498 1.505 . S
C505 O492 1.258 . S
C505 O493 1.242 . S
H506 C478 0.930 . S
H507 C479 0.930 . S
H508 C480 0.930 . S
H509 C481 0.931 . S
H510 C499 0.930 . S
H511 C500 0.930 . S
H512 C501 0.930 . S
H513 C502 0.931 . S
Eu514 C523 2.828 . S
Eu514 O525 2.392 . S
Eu514 O527 2.418 . S
Eu514 O532 2.373 . S
Eu514 O535 2.488 . S
Eu514 O536 2.471 . S
Eu514 O537 2.349 . S
Eu515 O524 2.373 . S
Eu515 O528 2.488 . S
Eu515 O529 2.471 . S
Eu515 O530 2.349 . S
Eu515 O533 2.392 . S
Eu515 O534 2.418 . S
Eu515 C544 2.828 . S
C516 O534 1.244 . S
C516 O537 1.265 . S
C517 C518 1.379 . S
C517 C521 1.373 . S
C517 C523 1.505 . S
C518 C517 1.379 . S
C518 C520 1.369 . S
C518 H546 0.930 . S
C519 C521 1.383 . S
C519 C522 1.382 . S
C519 H547 0.930 . S
C520 C518 1.369 . S
C520 C522 1.392 . S
C520 H548 0.930 . S
C521 C517 1.373 . S
C521 C519 1.383 . S
C521 H549 0.931 . S
C522 C519 1.382 . S
C522 C520 1.392 . S
C523 Eu514 2.828 . S
C523 C517 1.505 . S
C523 O535 1.249 . S
C523 O536 1.244 . S
O524 Eu515 2.373 . S
O524 C526 1.258 . S
O525 Eu514 2.392 . S
O525 C526 1.242 . S
C526 O524 1.258 . S
C526 O525 1.242 . S
O527 Eu514 2.418 . S
O527 C531 1.244 . S
O528 Eu515 2.488 . S
O528 C544 1.249 . S
O529 Eu515 2.471 . S
O529 C544 1.244 . S
O530 Eu515 2.349 . S
O530 C531 1.265 . S
C531 O527 1.244 . S
C531 O530 1.265 . S
O532 Eu514 2.373 . S
O532 C545 1.258 . S
O533 Eu515 2.392 . S
O533 C545 1.242 . S
O534 Eu515 2.418 . S
O534 C516 1.244 . S
O535 Eu514 2.488 . S
O535 C523 1.249 . S
O536 Eu514 2.471 . S
O536 C523 1.244 . S
O537 Eu514 2.349 . S
O537 C516 1.265 . S
C538 C539 1.379 . S
C538 C542 1.373 . S
C538 C544 1.505 . S
C539 C538 1.379 . S
C539 C541 1.369 . S
C539 H550 0.930 . S
C540 C542 1.383 . S
C540 C543 1.382 . S
C540 H551 0.930 . S
C541 C539 1.369 . S
C541 C543 1.392 . S
C541 H552 0.930 . S
C542 C538 1.373 . S
C542 C540 1.383 . S
C542 H553 0.931 . S
C543 C540 1.382 . S
C543 C541 1.392 . S
C544 Eu515 2.828 . S
C544 O528 1.249 . S
C544 O529 1.244 . S
C544 C538 1.505 . S
C545 O532 1.258 . S
C545 O533 1.242 . S
H546 C518 0.930 . S
H547 C519 0.930 . S
H548 C520 0.930 . S
H549 C521 0.931 . S
H550 C539 0.930 . S
H551 C540 0.930 . S
H552 C541 0.930 . S
H553 C542 0.931 . S
Eu554 C563 2.828 . S
Eu554 O565 2.392 . S
Eu554 O567 2.418 . S
Eu554 O572 2.373 . S
Eu554 O575 2.488 . S
Eu554 O576 2.471 . S
Eu554 O577 2.349 . S
Eu555 O564 2.373 . S
Eu555 O568 2.488 . S
Eu555 O569 2.471 . S
Eu555 O570 2.349 . S
Eu555 O573 2.392 . S
Eu555 O574 2.418 . S
Eu555 C584 2.828 . S
C556 O574 1.244 . S
C556 O577 1.265 . S
C557 C558 1.379 . S
C557 C561 1.373 . S
C557 C563 1.505 . S
C558 C557 1.379 . S
C558 C560 1.369 . S
C558 H586 0.930 . S
C559 C561 1.383 . S
C559 C562 1.382 . S
C559 H587 0.930 . S
C560 C558 1.369 . S
C560 C562 1.392 . S
C560 H588 0.930 . S
C561 C557 1.373 . S
C561 C559 1.383 . S
C561 H589 0.931 . S
C562 C559 1.382 . S
C562 C560 1.392 . S
C563 Eu554 2.828 . S
C563 C557 1.505 . S
C563 O575 1.249 . S
C563 O576 1.244 . S
O564 Eu555 2.373 . S
O564 C566 1.258 . S
O565 Eu554 2.392 . S
O565 C566 1.242 . S
C566 O564 1.258 . S
C566 O565 1.242 . S
O567 Eu554 2.418 . S
O567 C571 1.244 . S
O568 Eu555 2.488 . S
O568 C584 1.249 . S
O569 Eu555 2.471 . S
O569 C584 1.244 . S
O570 Eu555 2.349 . S
O570 C571 1.265 . S
C571 O567 1.244 . S
C571 O570 1.265 . S
O572 Eu554 2.373 . S
O572 C585 1.258 . S
O573 Eu555 2.392 . S
O573 C585 1.242 . S
O574 Eu555 2.418 . S
O574 C556 1.244 . S
O575 Eu554 2.488 . S
O575 C563 1.249 . S
O576 Eu554 2.471 . S
O576 C563 1.244 . S
O577 Eu554 2.349 . S
O577 C556 1.265 . S
C578 C579 1.379 . S
C578 C582 1.373 . S
C578 C584 1.505 . S
C579 C578 1.379 . S
C579 C581 1.369 . S
C579 H590 0.930 . S
C580 C582 1.383 . S
C580 C583 1.382 . S
C580 H591 0.930 . S
C581 C579 1.369 . S
C581 C583 1.392 . S
C581 H592 0.930 . S
C582 C578 1.373 . S
C582 C580 1.383 . S
C582 H593 0.931 . S
C583 C580 1.382 . S
C583 C581 1.392 . S
C584 Eu555 2.828 . S
C584 O568 1.249 . S
C584 O569 1.244 . S
C584 C578 1.505 . S
C585 O572 1.258 . S
C585 O573 1.242 . S
H586 C558 0.930 . S
H587 C559 0.930 . S
H588 C560 0.930 . S
H589 C561 0.931 . S
H590 C579 0.930 . S
H591 C580 0.930 . S
H592 C581 0.930 . S
H593 C582 0.931 . S
C594 C595 1.391 . S
C594 C596 1.394 . S
C594 H610 0.931 . S
C595 C594 1.391 . S
C595 C599 1.376 . S
C596 C594 1.394 . S
C596 C597 1.369 . S
C596 C600 1.531 . S
C597 C596 1.369 . S
C597 C598 1.410 . S
C597 C605 1.503 . S
C598 C597 1.410 . S
C598 C599 1.392 . S
C598 C601 1.511 . S
C599 C595 1.376 . S
C599 C598 1.392 . S
C599 H611 0.929 . S
C600 C596 1.531 . S
C600 H612 0.960 . S
C600 H613 0.962 . S
C600 H614 0.960 . S
C601 C598 1.511 . S
C601 H615 0.961 . S
C601 H616 0.961 . S
C601 H617 0.961 . S
C602 C603 1.370 . S
C602 C604 1.363 . S
C602 H618 0.931 1_554 S
C603 C602 1.370 . S
C603 C607 1.408 . S
C604 C602 1.363 . S
C604 C605 1.370 . S
C604 C608 1.524 . S
C605 C597 1.503 . S
C605 C604 1.370 . S
C605 C606 1.403 . S
C606 C605 1.403 . S
C606 C607 1.404 . S
C606 C609 1.539 . S
C607 C603 1.408 . S
C607 C606 1.404 . S
C607 H619 0.930 . S
C608 C604 1.524 . S
C608 H620 0.956 1_554 S
C608 H621 0.961 . S
C608 H622 0.961 1_554 S
C609 C606 1.539 . S
C609 H623 0.958 . S
C609 H624 0.961 . S
C609 H625 0.960 . S
H610 C594 0.931 . S
H611 C599 0.929 . S
H612 C600 0.960 . S
H613 C600 0.962 . S
H614 C600 0.960 . S
H615 C601 0.961 . S
H616 C601 0.961 . S
H617 C601 0.961 . S
H618 C602 0.931 1_556 S
H619 C607 0.930 . S
H620 C608 0.956 1_556 S
H621 C608 0.961 . S
H622 C608 0.961 1_556 S
H623 C609 0.958 . S
H624 C609 0.961 . S
H625 C609 0.960 . S
C626 C627 1.391 . S
C626 C628 1.394 . S
C626 H642 0.931 . S
C627 C626 1.391 . S
C627 C631 1.376 . S
C628 C626 1.394 . S
C628 C629 1.369 . S
C628 C632 1.531 . S
C629 C628 1.369 . S
C629 C630 1.410 . S
C629 C637 1.503 . S
C630 C629 1.410 . S
C630 C631 1.392 . S
C630 C633 1.511 . S
C631 C627 1.376 . S
C631 C630 1.392 . S
C631 H643 0.929 . S
C632 C628 1.531 . S
C632 H644 0.960 . S
C632 H645 0.962 . S
C632 H646 0.960 . S
C633 C630 1.511 . S
C633 H647 0.961 . S
C633 H648 0.961 . S
C633 H649 0.961 . S
C634 C635 1.370 . S
C634 C636 1.363 . S
C634 H650 0.931 . S
C635 C634 1.370 . S
C635 C639 1.408 . S
C636 C634 1.363 . S
C636 C637 1.370 . S
C636 C640 1.524 . S
C637 C629 1.503 . S
C637 C636 1.370 . S
C637 C638 1.403 . S
C638 C637 1.403 . S
C638 C639 1.404 . S
C638 C641 1.539 . S
C639 C635 1.408 . S
C639 C638 1.404 . S
C639 H651 0.930 . S
C640 C636 1.524 . S
C640 H652 0.956 . S
C640 H653 0.961 . S
C640 H654 0.961 . S
C641 C638 1.539 . S
C641 H655 0.958 . S
C641 H656 0.961 . S
C641 H657 0.960 . S
H642 C626 0.931 . S
H643 C631 0.929 . S
H644 C632 0.960 . S
H645 C632 0.962 . S
H646 C632 0.960 . S
H647 C633 0.961 . S
H648 C633 0.961 . S
H649 C633 0.961 . S
H650 C634 0.931 . S
H651 C639 0.930 . S
H652 C640 0.956 . S
H653 C640 0.961 . S
H654 C640 0.961 . S
H655 C641 0.958 . S
H656 C641 0.961 . S
H657 C641 0.960 . S
C658 C659 1.391 . S
C658 C660 1.394 . S
C658 H674 0.931 . S
C659 C658 1.391 . S
C659 C663 1.376 . S
C660 C658 1.394 . S
C660 C661 1.369 . S
C660 C664 1.531 . S
C661 C660 1.369 . S
C661 C662 1.410 . S
C661 C669 1.503 . S
C662 C661 1.410 . S
C662 C663 1.392 . S
C662 C665 1.511 . S
C663 C659 1.376 . S
C663 C662 1.392 . S
C663 H675 0.929 . S
C664 C660 1.531 . S
C664 H676 0.960 . S
C664 H677 0.962 . S
C664 H678 0.960 . S
C665 C662 1.511 . S
C665 H679 0.961 . S
C665 H680 0.961 . S
C665 H681 0.961 . S
C666 C667 1.370 . S
C666 C668 1.363 . S
C666 H682 0.931 1_554 S
C667 C666 1.370 . S
C667 C671 1.408 . S
C668 C666 1.363 . S
C668 C669 1.370 . S
C668 C672 1.524 1_554 S
C669 C661 1.503 . S
C669 C668 1.370 . S
C669 C670 1.403 . S
C670 C669 1.403 . S
C670 C671 1.404 . S
C670 C673 1.539 . S
C671 C667 1.408 . S
C671 C670 1.404 . S
C671 H683 0.930 . S
C672 C668 1.524 1_556 S
C672 H684 0.956 1_556 S
C672 H685 0.961 . S
C672 H686 0.961 . S
C673 C670 1.539 . S
C673 H687 0.958 . S
C673 H688 0.961 . S
C673 H689 0.960 . S
H674 C658 0.931 . S
H675 C663 0.929 . S
H676 C664 0.960 . S
H677 C664 0.962 . S
H678 C664 0.960 . S
H679 C665 0.961 . S
H680 C665 0.961 . S
H681 C665 0.961 . S
H682 C666 0.931 1_556 S
H683 C671 0.930 . S
H684 C672 0.956 1_554 S
H685 C672 0.961 . S
H686 C672 0.961 . S
H687 C673 0.958 . S
H688 C673 0.961 . S
H689 C673 0.960 . S
C690 C691 1.391 . S
C690 C692 1.394 . S
C690 H706 0.931 . S
C691 C690 1.391 . S
C691 C695 1.376 . S
C692 C690 1.394 . S
C692 C693 1.369 . S
C692 C696 1.531 . S
C693 C692 1.369 . S
C693 C694 1.410 . S
C693 C701 1.503 . S
C694 C693 1.410 . S
C694 C695 1.392 . S
C694 C697 1.511 . S
C695 C691 1.376 . S
C695 C694 1.392 . S
C695 H707 0.929 . S
C696 C692 1.531 . S
C696 H708 0.960 . S
C696 H709 0.962 . S
C696 H710 0.960 . S
C697 C694 1.511 . S
C697 H711 0.961 . S
C697 H712 0.961 . S
C697 H713 0.961 . S
C698 C699 1.370 . S
C698 C700 1.363 . S
C698 H714 0.931 . S
C699 C698 1.370 . S
C699 C703 1.408 1_556 S
C700 C698 1.363 . S
C700 C701 1.370 . S
C700 C704 1.524 . S
C701 C693 1.503 . S
C701 C700 1.370 . S
C701 C702 1.403 1_556 S
C702 C701 1.403 1_554 S
C702 C703 1.404 . S
C702 C705 1.539 . S
C703 C699 1.408 1_554 S
C703 C702 1.404 . S
C703 H715 0.930 . S
C704 C700 1.524 . S
C704 H716 0.956 . S
C704 H717 0.961 . S
C704 H718 0.961 . S
C705 C702 1.539 . S
C705 H719 0.958 . S
C705 H720 0.961 . S
C705 H721 0.960 . S
H706 C690 0.931 . S
H707 C695 0.929 . S
H708 C696 0.960 . S
H709 C696 0.962 . S
H710 C696 0.960 . S
H711 C697 0.961 . S
H712 C697 0.961 . S
H713 C697 0.961 . S
H714 C698 0.931 . S
H715 C703 0.930 . S
H716 C704 0.956 . S
H717 C704 0.961 . S
H718 C704 0.961 . S
H719 C705 0.958 . S
H720 C705 0.961 . S
H721 C705 0.960 . S
C722 C723 1.391 . S
C722 C724 1.394 . S
C722 H738 0.931 . S
C723 C722 1.391 . S
C723 C727 1.376 . S
C724 C722 1.394 . S
C724 C725 1.369 . S
C724 C728 1.531 . S
C725 C724 1.369 . S
C725 C726 1.410 . S
C725 C733 1.503 . S
C726 C725 1.410 . S
C726 C727 1.392 . S
C726 C729 1.511 . S
C727 C723 1.376 . S
C727 C726 1.392 . S
C727 H739 0.929 . S
C728 C724 1.531 . S
C728 H740 0.960 . S
C728 H741 0.962 . S
C728 H742 0.960 . S
C729 C726 1.511 . S
C729 H743 0.961 . S
C729 H744 0.961 . S
C729 H745 0.961 . S
C730 C731 1.370 . S
C730 C732 1.363 . S
C730 H746 0.931 . S
C731 C730 1.370 . S
C731 C735 1.408 . S
C732 C730 1.363 . S
C732 C733 1.370 . S
C732 C736 1.524 . S
C733 C725 1.503 . S
C733 C732 1.370 . S
C733 C734 1.403 . S
C734 C733 1.403 . S
C734 C735 1.404 . S
C734 C737 1.539 1_556 S
C735 C731 1.408 . S
C735 C734 1.404 . S
C735 H747 0.930 1_556 S
C736 C732 1.524 . S
C736 H748 0.956 . S
C736 H749 0.961 . S
C736 H750 0.961 . S
C737 C734 1.539 1_554 S
C737 H751 0.958 . S
C737 H752 0.961 . S
C737 H753 0.960 1_554 S
H738 C722 0.931 . S
H739 C727 0.929 . S
H740 C728 0.960 . S
H741 C728 0.962 . S
H742 C728 0.960 . S
H743 C729 0.961 . S
H744 C729 0.961 . S
H745 C729 0.961 . S
H746 C730 0.931 . S
H747 C735 0.930 1_554 S
H748 C736 0.956 . S
H749 C736 0.961 . S
H750 C736 0.961 . S
H751 C737 0.958 . S
H752 C737 0.961 . S
H753 C737 0.960 1_556 S
C754 C755 1.391 . S
C754 C756 1.394 . S
C754 H770 0.931 . S
C755 C754 1.391 . S
C755 C759 1.376 . S
C756 C754 1.394 . S
C756 C757 1.369 . S
C756 C760 1.531 1_556 S
C757 C756 1.369 . S
C757 C758 1.410 . S
C757 C765 1.503 . S
C758 C757 1.410 . S
C758 C759 1.392 . S
C758 C761 1.511 . S
C759 C755 1.376 . S
C759 C758 1.392 . S
C759 H771 0.929 . S
C760 C756 1.531 1_554 S
C760 H772 0.960 . S
C760 H773 0.992 . S
C760 H774 0.960 . S
C761 C758 1.511 . S
C761 H775 0.961 . S
C761 H776 0.961 . S
C761 H777 0.961 . S
C762 C763 1.421 . S
C762 C764 1.363 . S
C762 H778 0.931 . S
C763 C762 1.421 . S
C763 C767 1.366 1_556 S
C764 C762 1.363 . S
C764 C765 1.370 . S
C764 C768 1.524 . S
C765 C757 1.503 . S
C765 C764 1.370 . S
C765 C766 1.403 1_556 S
C766 C765 1.403 1_554 S
C766 C767 1.404 . S
C766 C769 1.539 . S
C767 C763 1.366 1_554 S
C767 C766 1.404 . S
C767 H779 0.930 . S
C768 C764 1.524 . S
C768 H780 0.956 . S
C768 H781 0.961 . S
C768 H782 0.961 . S
C769 C766 1.539 . S
C769 H783 0.958 . S
C769 H784 0.961 . S
C769 H785 0.960 . S
H770 C754 0.931 . S
H771 C759 0.929 . S
H772 C760 0.960 . S
H773 C760 0.992 . S
H774 C760 0.960 . S
H775 C761 0.961 . S
H776 C761 0.961 . S
H777 C761 0.961 . S
H778 C762 0.931 . S
H779 C767 0.930 . S
H780 C768 0.956 . S
H781 C768 0.961 . S
H782 C768 0.961 . S
H783 C769 0.958 . S
H784 C769 0.961 . S
H785 C769 0.960 . S
C786 C787 1.391 . S
C786 C788 1.394 . S
C786 H802 0.931 . S
C787 C786 1.391 . S
C787 C791 1.376 . S
C788 C786 1.394 . S
C788 C789 1.369 . S
C788 C792 1.531 . S
C789 C788 1.369 . S
C789 C790 1.410 . S
C789 C797 1.503 . S
C790 C789 1.410 . S
C790 C791 1.392 . S
C790 C793 1.511 . S
C791 C787 1.376 . S
C791 C790 1.392 . S
C791 H803 0.929 . S
C792 C788 1.531 . S
C792 H804 0.960 . S
C792 H805 0.962 . S
C792 H806 0.960 . S
C793 C790 1.511 . S
C793 H807 0.961 . S
C793 H808 0.961 . S
C793 H809 0.961 . S
C794 C795 1.370 1_554 S
C794 C796 1.363 1_554 S
C794 H810 0.931 . S
C795 C794 1.370 1_556 S
C795 C799 1.408 . S
C796 C794 1.363 1_556 S
C796 C797 1.370 . S
C796 C800 1.524 1_556 S
C797 C789 1.503 . S
C797 C796 1.370 . S
C797 C798 1.403 . S
C798 C797 1.403 . S
C798 C799 1.404 . S
C798 C801 1.539 . S
C799 C795 1.408 . S
C799 C798 1.404 . S
C799 H811 0.930 . S
C800 C796 1.524 1_554 S
C800 H812 0.956 . S
C800 H813 0.961 . S
C800 H814 0.961 . S
C801 C798 1.539 . S
C801 H815 0.958 . S
C801 H816 0.961 . S
C801 H817 0.960 . S
H802 C786 0.931 . S
H803 C791 0.929 . S
H804 C792 0.960 . S
H805 C792 0.962 . S
H806 C792 0.960 . S
H807 C793 0.961 . S
H808 C793 0.961 . S
H809 C793 0.961 . S
H810 C794 0.931 . S
H811 C799 0.930 . S
H812 C800 0.956 . S
H813 C800 0.961 . S
H814 C800 0.961 . S
H815 C801 0.958 . S
H816 C801 0.961 . S
H817 C801 0.960 . S
C818 C819 1.391 . S
C818 C820 1.394 . S
C818 H834 0.931 . S
C819 C818 1.391 . S
C819 C823 1.376 . S
C820 C818 1.394 . S
C820 C821 1.369 . S
C820 C824 1.531 . S
C821 C820 1.369 . S
C821 C822 1.410 . S
C821 C829 1.503 . S
C822 C821 1.410 . S
C822 C823 1.392 . S
C822 C825 1.511 . S
C823 C819 1.376 . S
C823 C822 1.392 . S
C823 H835 0.929 . S
C824 C820 1.531 . S
C824 H836 0.960 1_556 S
C824 H837 0.962 . S
C824 H838 0.960 1_556 S
C825 C822 1.511 . S
C825 H839 0.961 . S
C825 H840 0.961 . S
C825 H841 0.961 . S
C826 C827 1.370 . S
C826 C828 1.363 . S
C826 H842 0.931 . S
C827 C826 1.370 . S
C827 C831 1.408 . S
C828 C826 1.363 . S
C828 C829 1.370 . S
C828 C832 1.524 . S
C829 C821 1.503 . S
C829 C828 1.370 . S
C829 C830 1.403 . S
C830 C829 1.403 . S
C830 C831 1.404 . S
C830 C833 1.539 1_556 S
C831 C827 1.408 . S
C831 C830 1.404 . S
C831 H843 0.930 1_556 S
C832 C828 1.524 . S
C832 H844 0.956 . S
C832 H845 0.961 . S
C832 H846 0.961 . S
C833 C830 1.539 1_554 S
C833 H847 0.958 . S
C833 H848 0.961 . S
C833 H849 0.960 1_554 S
H834 C818 0.931 . S
H835 C823 0.929 . S
H836 C824 0.960 1_554 S
H837 C824 0.962 . S
H838 C824 0.960 1_554 S
H839 C825 0.961 . S
H840 C825 0.961 . S
H841 C825 0.961 . S
H842 C826 0.931 . S
H843 C831 0.930 1_554 S
H844 C832 0.956 . S
H845 C832 0.961 . S
H846 C832 0.961 . S
H847 C833 0.958 . S
H848 C833 0.961 . S
H849 C833 0.960 1_556 S
C850 C851 1.391 . S
C850 C852 1.394 . S
C850 H866 0.931 . S
C851 C850 1.391 . S
C851 C855 1.376 . S
C852 C850 1.394 . S
C852 C853 1.369 . S
C852 C856 1.531 . S
C853 C852 1.369 . S
C853 C854 1.439 . S
C853 C861 1.503 . S
C854 C853 1.439 . S
C854 C855 1.391 . S
C854 C857 1.485 1_556 S
C855 C851 1.376 . S
C855 C854 1.391 . S
C855 H867 0.929 1_556 S
C856 C852 1.531 . S
C856 H868 0.960 . S
C856 H869 0.962 . S
C856 H870 0.960 . S
C857 C854 1.485 1_554 S
C857 H871 0.961 . S
C857 H872 0.961 . S
C857 H873 0.961 . S
C858 C859 1.372 . S
C858 C860 1.363 . S
C858 H874 0.931 . S
C859 C858 1.372 . S
C859 C863 1.406 1_554 S
C860 C858 1.363 . S
C860 C861 1.370 1_554 S
C860 C864 1.524 . S
C861 C853 1.503 . S
C861 C860 1.370 1_556 S
C861 C862 1.403 . S
C862 C861 1.403 . S
C862 C863 1.404 . S
C862 C865 1.539 . S
C863 C859 1.406 1_556 S
C863 C862 1.404 . S
C863 H875 0.930 . S
C864 C860 1.524 . S
C864 H876 0.956 . S
C864 H877 0.961 . S
C864 H878 0.961 . S
C865 C862 1.539 . S
C865 H879 0.958 . S
C865 H880 0.961 . S
C865 H881 0.960 . S
H866 C850 0.931 . S
H867 C855 0.929 1_554 S
H868 C856 0.960 . S
H869 C856 0.962 . S
H870 C856 0.960 . S
H871 C857 0.961 . S
H872 C857 0.961 . S
H873 C857 0.961 . S
H874 C858 0.931 . S
H875 C863 0.930 . S
H876 C864 0.956 . S
H877 C864 0.961 . S
H878 C864 0.961 . S
H879 C865 0.958 . S
H880 C865 0.961 . S
H881 C865 0.960 . S
C882 C883 1.391 . S
C882 C884 1.394 . S
C882 H898 0.931 . S
C883 C882 1.391 . S
C883 C887 1.376 . S
C884 C882 1.394 . S
C884 C885 1.369 . S
C884 C888 1.531 . S
C885 C884 1.369 . S
C885 C886 1.410 . S
C885 C893 1.503 . S
C886 C885 1.410 . S
C886 C887 1.392 . S
C886 C889 1.511 . S
C887 C883 1.376 . S
C887 C886 1.392 . S
C887 H899 0.929 . S
C888 C884 1.531 . S
C888 H900 0.960 1_554 S
C888 H901 0.962 . S
C888 H902 0.960 1_554 S
C889 C886 1.511 . S
C889 H903 0.961 . S
C889 H904 0.961 . S
C889 H905 0.961 . S
C890 C891 1.370 . S
C890 C892 1.363 . S
C890 H906 0.931 . S
C891 C890 1.370 . S
C891 C895 1.408 . S
C892 C890 1.363 . S
C892 C893 1.370 . S
C892 C896 1.524 . S
C893 C885 1.503 . S
C893 C892 1.370 . S
C893 C894 1.403 . S
C894 C893 1.403 . S
C894 C895 1.404 . S
C894 C897 1.539 1_554 S
C895 C891 1.408 . S
C895 C894 1.404 . S
C895 H907 0.930 1_554 S
C896 C892 1.524 . S
C896 H908 0.956 . S
C896 H909 0.961 . S
C896 H910 0.961 . S
C897 C894 1.539 1_556 S
C897 H911 0.958 . S
C897 H912 0.961 . S
C897 H913 0.960 . S
H898 C882 0.931 . S
H899 C887 0.929 . S
H900 C888 0.960 1_556 S
H901 C888 0.962 . S
H902 C888 0.960 1_556 S
H903 C889 0.961 . S
H904 C889 0.961 . S
H905 C889 0.961 . S
H906 C890 0.931 . S
H907 C895 0.930 1_556 S
H908 C896 0.956 . S
H909 C896 0.961 . S
H910 C896 0.961 . S
H911 C897 0.958 . S
H912 C897 0.961 . S
H913 C897 0.960 . S
C914 C915 1.391 . S
C914 C916 1.394 . S
C914 H930 0.931 . S
C915 C914 1.391 . S
C915 C919 1.376 . S
C916 C914 1.394 . S
C916 C917 1.369 . S
C916 C920 1.531 . S
C917 C916 1.369 . S
C917 C918 1.410 . S
C917 C925 1.503 . S
C918 C917 1.410 . S
C918 C919 1.392 . S
C918 C921 1.511 . S
C919 C915 1.376 . S
C919 C918 1.392 . S
C919 H931 0.929 . S
C920 C916 1.531 . S
C920 H932 0.960 . S
C920 H933 0.962 . S
C920 H934 0.960 . S
C921 C918 1.511 . S
C921 H935 0.961 . S
C921 H936 0.961 . S
C921 H937 0.961 . S
C922 C923 1.370 . S
C922 C924 1.363 . S
C922 H938 0.931 . S
C923 C922 1.370 . S
C923 C927 1.408 . S
C924 C922 1.363 . S
C924 C925 1.370 . S
C924 C928 1.524 . S
C925 C917 1.503 . S
C925 C924 1.370 . S
C925 C926 1.403 . S
C926 C925 1.403 . S
C926 C927 1.404 . S
C926 C929 1.539 . S
C927 C923 1.408 . S
C927 C926 1.404 . S
C927 H939 0.930 . S
C928 C924 1.524 . S
C928 H940 0.956 . S
C928 H941 0.961 . S
C928 H942 0.961 . S
C929 C926 1.539 . S
C929 H943 0.958 . S
C929 H944 0.961 . S
C929 H945 0.960 . S
H930 C914 0.931 . S
H931 C919 0.929 . S
H932 C920 0.960 . S
H933 C920 0.962 . S
H934 C920 0.960 . S
H935 C921 0.961 . S
H936 C921 0.961 . S
H937 C921 0.961 . S
H938 C922 0.931 . S
H939 C927 0.930 . S
H940 C928 0.956 . S
H941 C928 0.961 . S
H942 C928 0.961 . S
H943 C929 0.958 . S
H944 C929 0.961 . S
H945 C929 0.960 . S
C946 C947 1.391 . S
C946 C948 1.394 . S
C946 H962 0.931 . S
C947 C946 1.391 . S
C947 C951 1.376 . S
C948 C946 1.394 . S
C948 C949 1.369 . S
C948 C952 1.531 . S
C949 C948 1.369 . S
C949 C950 1.410 . S
C949 C957 1.503 . S
C950 C949 1.410 . S
C950 C951 1.392 . S
C950 C953 1.511 . S
C951 C947 1.376 . S
C951 C950 1.392 . S
C951 H963 0.929 . S
C952 C948 1.531 . S
C952 H964 0.960 . S
C952 H965 0.962 . S
C952 H966 0.960 . S
C953 C950 1.511 . S
C953 H967 0.961 1_554 S
C953 H968 0.956 1_554 S
C953 H969 0.961 . S
C954 C955 1.370 . S
C954 C956 1.363 . S
C954 H970 0.931 1_554 S
C955 C954 1.370 . S
C955 C959 1.408 . S
C956 C954 1.363 . S
C956 C957 1.370 . S
C956 C960 1.524 1_554 S
C957 C949 1.503 . S
C957 C956 1.370 . S
C957 C958 1.403 . S
C958 C957 1.403 . S
C958 C959 1.404 . S
C958 C961 1.539 . S
C959 C955 1.408 . S
C959 C958 1.404 . S
C959 H971 0.930 . S
C960 C956 1.524 1_556 S
C960 H972 0.956 . S
C960 H973 0.961 . S
C960 H974 0.961 . S
C961 C958 1.539 . S
C961 H975 0.958 . S
C961 H976 0.961 . S
C961 H977 0.960 . S
H962 C946 0.931 . S
H963 C951 0.929 . S
H964 C952 0.960 . S
H965 C952 0.962 . S
H966 C952 0.960 . S
H967 C953 0.961 1_556 S
H968 C953 0.956 1_556 S
H969 C953 0.961 . S
H970 C954 0.931 1_556 S
H971 C959 0.930 . S
H972 C960 0.956 . S
H973 C960 0.961 . S
H974 C960 0.961 . S
H975 C961 0.958 . S
H976 C961 0.961 . S
H977 C961 0.960 . S
C978 C979 1.391 . S
C978 C980 1.394 . S
C978 H994 0.931 . S
C979 C978 1.391 . S
C979 C983 1.376 . S
C980 C978 1.394 . S
C980 C981 1.369 . S
C980 C984 1.531 . S
C981 C980 1.369 . S
C981 C982 1.410 . S
C981 C989 1.503 1_655 S
C982 C981 1.410 . S
C982 C983 1.392 . S
C982 C985 1.511 . S
C983 C979 1.376 . S
C983 C982 1.392 . S
C983 H995 0.929 . S
C984 C980 1.531 . S
C984 H996 0.960 1_655 S
C984 H997 0.962 . S
C984 H998 0.960 . S
C985 C982 1.511 . S
C985 H999 0.961 . S
C985 H1000 0.961 . S
C985 H1001 0.961 . S
C986 C987 1.370 . S
C986 C988 1.363 . S
C986 H1002 0.931 . S
C987 C986 1.370 . S
C987 C991 1.408 . S
C988 C986 1.363 . S
C988 C989 1.370 . S
C988 C992 1.524 1_455 S
C989 C981 1.503 1_455 S
C989 C988 1.370 . S
C989 C990 1.403 . S
C990 C989 1.403 . S
C990 C991 1.404 . S
C990 C993 1.539 . S
C991 C987 1.408 . S
C991 C990 1.404 . S
C991 H1003 0.930 . S
C992 C988 1.524 1_655 S
C992 H1004 0.956 . S
C992 H1005 0.961 . S
C992 H1006 0.961 . S
C993 C990 1.539 . S
C993 H1007 0.958 . S
C993 H1008 0.961 . S
C993 H1009 0.960 . S
H994 C978 0.931 . S
H995 C983 0.929 . S
H996 C984 0.960 1_455 S
H997 C984 0.962 . S
H998 C984 0.960 . S
H999 C985 0.961 . S
H1000 C985 0.961 . S
H1001 C985 0.961 . S
H1002 C986 0.931 . S
H1003 C991 0.930 . S
H1004 C992 0.956 . S
H1005 C992 0.961 . S
H1006 C992 0.961 . S
H1007 C993 0.958 . S
H1008 C993 0.961 . S
H1009 C993 0.960 . S
C1010 C1011 1.391 . S
C1010 C1012 1.394 . S
C1010 H1026 0.931 . S
C1011 C1010 1.391 . S
C1011 C1015 1.376 . S
C1012 C1010 1.394 . S
C1012 C1013 1.369 . S
C1012 C1016 1.531 . S
C1013 C1012 1.369 . S
C1013 C1014 1.410 . S
C1013 C1021 1.503 . S
C1014 C1013 1.410 . S
C1014 C1015 1.392 . S
C1014 C1017 1.511 . S
C1015 C1011 1.376 . S
C1015 C1014 1.392 . S
C1015 H1027 0.929 . S
C1016 C1012 1.531 . S
C1016 H1028 0.960 . S
C1016 H1029 0.962 . S
C1016 H1030 0.960 . S
C1017 C1014 1.511 . S
C1017 H1031 0.961 . S
C1017 H1032 0.961 . S
C1017 H1033 0.961 . S
C1018 C1019 1.370 . S
C1018 C1020 1.363 . S
C1018 H1034 0.931 . S
C1019 C1018 1.370 . S
C1019 C1023 1.408 . S
C1020 C1018 1.363 . S
C1020 C1021 1.370 . S
C1020 C1024 1.524 . S
C1021 C1013 1.503 . S
C1021 C1020 1.370 . S
C1021 C1022 1.403 . S
C1022 C1021 1.403 . S
C1022 C1023 1.404 . S
C1022 C1025 1.539 . S
C1023 C1019 1.408 . S
C1023 C1022 1.404 . S
C1023 H1035 0.930 . S
C1024 C1020 1.524 . S
C1024 H1036 0.956 . S
C1024 H1037 0.961 . S
C1024 H1038 0.961 . S
C1025 C1022 1.539 . S
C1025 H1039 0.958 . S
C1025 H1040 0.961 . S
C1025 H1041 0.960 . S
H1026 C1010 0.931 . S
H1027 C1015 0.929 . S
H1028 C1016 0.960 . S
H1029 C1016 0.962 . S
H1030 C1016 0.960 . S
H1031 C1017 0.961 . S
H1032 C1017 0.961 . S
H1033 C1017 0.961 . S
H1034 C1018 0.931 . S
H1035 C1023 0.930 . S
H1036 C1024 0.956 . S
H1037 C1024 0.961 . S
H1038 C1024 0.961 . S
H1039 C1025 0.958 . S
H1040 C1025 0.961 . S
H1041 C1025 0.960 . S
C1042 C1043 1.391 . S
C1042 C1044 1.394 . S
C1042 H1058 0.931 . S
C1043 C1042 1.391 . S
C1043 C1047 1.376 . S
C1044 C1042 1.394 . S
C1044 C1045 1.369 . S
C1044 C1048 1.531 . S
C1045 C1044 1.369 . S
C1045 C1046 1.410 . S
C1045 C1053 1.503 . S
C1046 C1045 1.410 . S
C1046 C1047 1.392 . S
C1046 C1049 1.511 . S
C1047 C1043 1.376 . S
C1047 C1046 1.392 . S
C1047 H1059 0.929 . S
C1048 C1044 1.531 . S
C1048 H1060 0.960 . S
C1048 H1061 0.962 . S
C1048 H1062 0.960 . S
C1049 C1046 1.511 . S
C1049 H1063 0.961 . S
C1049 H1064 0.961 . S
C1049 H1065 0.961 . S
C1050 C1051 1.370 . S
C1050 C1052 1.363 . S
C1050 H1066 0.931 . S
C1051 C1050 1.370 . S
C1051 C1055 1.408 . S
C1052 C1050 1.363 . S
C1052 C1053 1.370 1_565 S
C1052 C1056 1.524 1_565 S
C1053 C1045 1.503 . S
C1053 C1052 1.370 1_545 S
C1053 C1054 1.403 1_545 S
C1054 C1053 1.403 1_565 S
C1054 C1055 1.404 . S
C1054 C1057 1.539 . S
C1055 C1051 1.408 . S
C1055 C1054 1.404 . S
C1055 H1067 0.930 . S
C1056 C1052 1.524 1_545 S
C1056 H1068 0.956 . S
C1056 H1069 0.961 . S
C1056 H1070 0.961 . S
C1057 C1054 1.539 . S
C1057 H1071 0.957 1_565 S
C1057 H1072 0.961 . S
C1057 H1073 0.960 1_565 S
H1058 C1042 0.931 . S
H1059 C1047 0.929 . S
H1060 C1048 0.960 . S
H1061 C1048 0.962 . S
H1062 C1048 0.960 . S
H1063 C1049 0.961 . S
H1064 C1049 0.961 . S
H1065 C1049 0.961 . S
H1066 C1050 0.931 . S
H1067 C1055 0.930 . S
H1068 C1056 0.956 . S
H1069 C1056 0.961 . S
H1070 C1056 0.961 . S
H1071 C1057 0.957 1_545 S
H1072 C1057 0.961 . S
H1073 C1057 0.960 1_545 S
C1074 C1075 1.391 . S
C1074 C1076 1.394 . S
C1074 H1090 0.931 . S
C1075 C1074 1.391 . S
C1075 C1079 1.376 . S
C1076 C1074 1.394 . S
C1076 C1077 1.369 . S
C1076 C1080 1.531 . S
C1077 C1076 1.369 . S
C1077 C1078 1.410 . S
C1077 C1085 1.503 . S
C1078 C1077 1.410 . S
C1078 C1079 1.392 . S
C1078 C1081 1.511 . S
C1079 C1075 1.376 . S
C1079 C1078 1.392 . S
C1079 H1091 0.929 . S
C1080 C1076 1.531 . S
C1080 H1092 0.960 . S
C1080 H1093 0.962 . S
C1080 H1094 0.960 . S
C1081 C1078 1.511 . S
C1081 H1095 0.961 . S
C1081 H1096 0.961 . S
C1081 H1097 0.961 . S
C1082 C1083 1.370 . S
C1082 C1084 1.363 . S
C1082 H1098 0.931 . S
C1083 C1082 1.370 . S
C1083 C1087 1.408 . S
C1084 C1082 1.363 . S
C1084 C1085 1.370 . S
C1084 C1088 1.524 . S
C1085 C1077 1.503 . S
C1085 C1084 1.370 . S
C1085 C1086 1.403 . S
C1086 C1085 1.403 . S
C1086 C1087 1.404 . S
C1086 C1089 1.539 . S
C1087 C1083 1.408 . S
C1087 C1086 1.404 . S
C1087 H1099 0.930 . S
C1088 C1084 1.524 . S
C1088 H1100 0.956 . S
C1088 H1101 0.961 . S
C1088 H1102 0.961 . S
C1089 C1086 1.539 . S
C1089 H1103 0.958 . S
C1089 H1104 0.961 . S
C1089 H1105 0.960 . S
H1090 C1074 0.931 . S
H1091 C1079 0.929 . S
H1092 C1080 0.960 . S
H1093 C1080 0.962 . S
H1094 C1080 0.960 . S
H1095 C1081 0.961 . S
H1096 C1081 0.961 . S
H1097 C1081 0.961 . S
H1098 C1082 0.931 . S
H1099 C1087 0.930 . S
H1100 C1088 0.956 . S
H1101 C1088 0.961 . S
H1102 C1088 0.961 . S
H1103 C1089 0.958 . S
H1104 C1089 0.961 . S
H1105 C1089 0.960 . S
C1106 C1107 1.391 . S
C1106 C1108 1.394 . S
C1106 H1122 0.931 . S
C1107 C1106 1.391 . S
C1107 C1111 1.376 . S
C1108 C1106 1.394 . S
C1108 C1109 1.369 . S
C1108 C1112 1.531 . S
C1109 C1108 1.369 . S
C1109 C1110 1.410 . S
C1109 C1117 1.503 . S
C1110 C1109 1.410 . S
C1110 C1111 1.392 . S
C1110 C1113 1.511 . S
C1111 C1107 1.376 . S
C1111 C1110 1.392 . S
C1111 H1123 0.929 . S
C1112 C1108 1.531 . S
C1112 H1124 0.960 . S
C1112 H1125 0.962 . S
C1112 H1126 0.960 . S
C1113 C1110 1.511 . S
C1113 H1127 0.961 . S
C1113 H1128 0.961 . S
C1113 H1129 0.961 . S
C1114 C1115 1.370 . S
C1114 C1116 1.363 . S
C1114 H1130 0.931 . S
C1115 C1114 1.370 . S
C1115 C1119 1.408 . S
C1116 C1114 1.363 . S
C1116 C1117 1.370 . S
C1116 C1120 1.524 . S
C1117 C1109 1.503 . S
C1117 C1116 1.370 . S
C1117 C1118 1.403 . S
C1118 C1117 1.403 . S
C1118 C1119 1.404 . S
C1118 C1121 1.539 . S
C1119 C1115 1.408 . S
C1119 C1118 1.404 . S
C1119 H1131 0.930 . S
C1120 C1116 1.524 . S
C1120 H1132 0.956 . S
C1120 H1133 0.961 . S
C1120 H1134 0.961 . S
C1121 C1118 1.539 . S
C1121 H1135 0.958 . S
C1121 H1136 0.961 . S
C1121 H1137 0.960 . S
H1122 C1106 0.931 . S
H1123 C1111 0.929 . S
H1124 C1112 0.960 . S
H1125 C1112 0.962 . S
H1126 C1112 0.960 . S
H1127 C1113 0.961 . S
H1128 C1113 0.961 . S
H1129 C1113 0.961 . S
H1130 C1114 0.931 . S
H1131 C1119 0.930 . S
H1132 C1120 0.956 . S
H1133 C1120 0.961 . S
H1134 C1120 0.961 . S
H1135 C1121 0.958 . S
H1136 C1121 0.961 . S
H1137 C1121 0.960 . S
C1138 C1139 1.391 . S
C1138 C1140 1.394 . S
C1138 H1154 0.931 . S
C1139 C1138 1.391 . S
C1139 C1143 1.376 . S
C1140 C1138 1.394 . S
C1140 C1141 1.369 . S
C1140 C1144 1.531 . S
C1141 C1140 1.369 . S
C1141 C1142 1.410 . S
C1141 C1149 1.503 . S
C1142 C1141 1.410 . S
C1142 C1143 1.392 . S
C1142 C1145 1.511 . S
C1143 C1139 1.376 . S
C1143 C1142 1.392 . S
C1143 H1155 0.929 . S
C1144 C1140 1.531 . S
C1144 H1156 0.960 . S
C1144 H1157 0.962 . S
C1144 H1158 0.960 . S
C1145 C1142 1.511 . S
C1145 H1159 0.961 . S
C1145 H1160 0.961 . S
C1145 H1161 0.961 . S
C1146 C1147 1.370 . S
C1146 C1148 1.363 . S
C1146 H1162 0.931 . S
C1147 C1146 1.370 . S
C1147 C1151 1.408 . S
C1148 C1146 1.363 . S
C1148 C1149 1.370 . S
C1148 C1152 1.524 . S
C1149 C1141 1.503 . S
C1149 C1148 1.370 . S
C1149 C1150 1.403 . S
C1150 C1149 1.403 . S
C1150 C1151 1.404 . S
C1150 C1153 1.539 . S
C1151 C1147 1.408 . S
C1151 C1150 1.404 . S
C1151 H1163 0.930 . S
C1152 C1148 1.524 . S
C1152 H1164 0.956 . S
C1152 H1165 0.961 . S
C1152 H1166 0.961 . S
C1153 C1150 1.539 . S
C1153 H1167 0.958 . S
C1153 H1168 0.961 . S
C1153 H1169 0.960 . S
H1154 C1138 0.931 . S
H1155 C1143 0.929 . S
H1156 C1144 0.960 . S
H1157 C1144 0.962 . S
H1158 C1144 0.960 . S
H1159 C1145 0.961 . S
H1160 C1145 0.961 . S
H1161 C1145 0.961 . S
H1162 C1146 0.931 . S
H1163 C1151 0.930 . S
H1164 C1152 0.956 . S
H1165 C1152 0.961 . S
H1166 C1152 0.961 . S
H1167 C1153 0.958 . S
H1168 C1153 0.961 . S
H1169 C1153 0.960 . S
C1170 C1171 1.391 . S
C1170 C1172 1.394 . S
C1170 H1186 0.931 . S
C1171 C1170 1.391 . S
C1171 C1175 1.376 . S
C1172 C1170 1.394 . S
C1172 C1173 1.369 . S
C1172 C1176 1.531 . S
C1173 C1172 1.369 . S
C1173 C1174 1.410 . S
C1173 C1181 1.503 . S
C1174 C1173 1.410 . S
C1174 C1175 1.392 . S
C1174 C1177 1.511 . S
C1175 C1171 1.376 . S
C1175 C1174 1.392 . S
C1175 H1187 0.929 . S
C1176 C1172 1.531 . S
C1176 H1188 0.960 . S
C1176 H1189 0.962 . S
C1176 H1190 0.960 . S
C1177 C1174 1.511 . S
C1177 H1191 0.961 . S
C1177 H1192 0.961 . S
C1177 H1193 0.961 . S
C1178 C1179 1.370 . S
C1178 C1180 1.363 . S
C1178 H1194 0.931 . S
C1179 C1178 1.370 . S
C1179 C1183 1.408 . S
C1180 C1178 1.363 . S
C1180 C1181 1.370 . S
C1180 C1184 1.524 . S
C1181 C1173 1.503 . S
C1181 C1180 1.370 . S
C1181 C1182 1.403 . S
C1182 C1181 1.403 . S
C1182 C1183 1.404 . S
C1182 C1185 1.539 . S
C1183 C1179 1.408 . S
C1183 C1182 1.404 . S
C1183 H1195 0.930 . S
C1184 C1180 1.524 . S
C1184 H1196 0.956 . S
C1184 H1197 0.961 . S
C1184 H1198 0.961 . S
C1185 C1182 1.539 . S
C1185 H1199 0.958 . S
C1185 H1200 0.961 . S
C1185 H1201 0.960 . S
H1186 C1170 0.931 . S
H1187 C1175 0.929 . S
H1188 C1176 0.960 . S
H1189 C1176 0.962 . S
H1190 C1176 0.960 . S
H1191 C1177 0.961 . S
H1192 C1177 0.961 . S
H1193 C1177 0.961 . S
H1194 C1178 0.931 . S
H1195 C1183 0.930 . S
H1196 C1184 0.956 . S
H1197 C1184 0.961 . S
H1198 C1184 0.961 . S
H1199 C1185 0.958 . S
H1200 C1185 0.961 . S
H1201 C1185 0.960 . S
C1202 C1203 1.391 . S
C1202 C1204 1.394 . S
C1202 H1218 0.931 . S
C1203 C1202 1.391 . S
C1203 C1207 1.376 . S
C1204 C1202 1.394 . S
C1204 C1205 1.369 . S
C1204 C1208 1.531 . S
C1205 C1204 1.369 . S
C1205 C1206 1.410 . S
C1205 C1213 1.503 . S
C1206 C1205 1.410 . S
C1206 C1207 1.392 . S
C1206 C1209 1.511 . S
C1207 C1203 1.376 . S
C1207 C1206 1.392 . S
C1207 H1219 0.929 . S
C1208 C1204 1.531 . S
C1208 H1220 0.960 . S
C1208 H1221 0.962 . S
C1208 H1222 0.960 . S
C1209 C1206 1.511 . S
C1209 H1223 0.961 . S
C1209 H1224 0.961 . S
C1209 H1225 0.961 . S
C1210 C1211 1.370 . S
C1210 C1212 1.363 . S
C1210 H1226 0.931 . S
C1211 C1210 1.370 . S
C1211 C1215 1.408 . S
C1212 C1210 1.363 . S
C1212 C1213 1.370 . S
C1212 C1216 1.524 . S
C1213 C1205 1.503 . S
C1213 C1212 1.370 . S
C1213 C1214 1.403 . S
C1214 C1213 1.403 . S
C1214 C1215 1.404 . S
C1214 C1217 1.539 . S
C1215 C1211 1.408 . S
C1215 C1214 1.404 . S
C1215 H1227 0.930 . S
C1216 C1212 1.524 . S
C1216 H1228 0.956 . S
C1216 H1229 0.961 . S
C1216 H1230 0.961 . S
C1217 C1214 1.539 . S
C1217 H1231 0.958 . S
C1217 H1232 0.961 . S
C1217 H1233 0.960 . S
H1218 C1202 0.931 . S
H1219 C1207 0.929 . S
H1220 C1208 0.960 . S
H1221 C1208 0.962 . S
H1222 C1208 0.960 . S
H1223 C1209 0.961 . S
H1224 C1209 0.961 . S
H1225 C1209 0.961 . S
H1226 C1210 0.931 . S
H1227 C1215 0.930 . S
H1228 C1216 0.956 . S
H1229 C1216 0.961 . S
H1230 C1216 0.961 . S
H1231 C1217 0.958 . S
H1232 C1217 0.961 . S
H1233 C1217 0.960 . S
C1234 C1235 1.391 . S
C1234 C1236 1.394 . S
C1234 H1250 0.931 . S
C1235 C1234 1.391 . S
C1235 C1239 1.376 . S
C1236 C1234 1.394 . S
C1236 C1237 1.369 . S
C1236 C1240 1.531 . S
C1237 C1236 1.369 . S
C1237 C1238 1.410 . S
C1237 C1245 1.503 . S
C1238 C1237 1.410 . S
C1238 C1239 1.392 . S
C1238 C1241 1.511 . S
C1239 C1235 1.376 . S
C1239 C1238 1.392 . S
C1239 H1251 0.929 . S
C1240 C1236 1.531 . S
C1240 H1252 0.960 . S
C1240 H1253 0.962 . S
C1240 H1254 0.960 . S
C1241 C1238 1.511 . S
C1241 H1255 0.961 . S
C1241 H1256 0.961 . S
C1241 H1257 0.961 . S
C1242 C1243 1.370 . S
C1242 C1244 1.363 . S
C1242 H1258 0.931 . S
C1243 C1242 1.370 . S
C1243 C1247 1.408 . S
C1244 C1242 1.363 . S
C1244 C1245 1.370 . S
C1244 C1248 1.524 . S
C1245 C1237 1.503 . S
C1245 C1244 1.370 . S
C1245 C1246 1.403 . S
C1246 C1245 1.403 . S
C1246 C1247 1.404 . S
C1246 C1249 1.539 . S
C1247 C1243 1.408 . S
C1247 C1246 1.404 . S
C1247 H1259 0.930 . S
C1248 C1244 1.524 . S
C1248 H1260 0.956 . S
C1248 H1261 0.961 . S
C1248 H1262 0.961 . S
C1249 C1246 1.539 . S
C1249 H1263 0.958 . S
C1249 H1264 0.961 . S
C1249 H1265 0.960 . S
H1250 C1234 0.931 . S
H1251 C1239 0.929 . S
H1252 C1240 0.960 . S
H1253 C1240 0.962 . S
H1254 C1240 0.960 . S
H1255 C1241 0.961 . S
H1256 C1241 0.961 . S
H1257 C1241 0.961 . S
H1258 C1242 0.931 . S
H1259 C1247 0.930 . S
H1260 C1248 0.956 . S
H1261 C1248 0.961 . S
H1262 C1248 0.961 . S
H1263 C1249 0.958 . S
H1264 C1249 0.961 . S
H1265 C1249 0.960 . S
C1266 C1267 1.391 . S
C1266 C1268 1.394 1_545 S
C1266 H1282 0.931 . S
C1267 C1266 1.391 . S
C1267 C1271 1.376 . S
C1268 C1266 1.394 1_565 S
C1268 C1269 1.369 . S
C1268 C1272 1.531 . S
C1269 C1268 1.369 . S
C1269 C1270 1.410 . S
C1269 C1277 1.503 . S
C1270 C1269 1.410 . S
C1270 C1271 1.392 1_565 S
C1270 C1273 1.511 . S
C1271 C1267 1.376 . S
C1271 C1270 1.392 1_545 S
C1271 H1283 0.929 . S
C1272 C1268 1.531 . S
C1272 H1284 0.960 . S
C1272 H1285 0.962 . S
C1272 H1286 0.960 . S
C1273 C1270 1.511 . S
C1273 H1287 0.961 . S
C1273 H1288 0.961 . S
C1273 H1289 0.961 . S
C1274 C1275 1.370 . S
C1274 C1276 1.363 . S
C1274 H1290 0.931 . S
C1275 C1274 1.370 . S
C1275 C1279 1.408 . S
C1276 C1274 1.363 . S
C1276 C1277 1.370 . S
C1276 C1280 1.524 . S
C1277 C1269 1.503 . S
C1277 C1276 1.370 . S
C1277 C1278 1.403 . S
C1278 C1277 1.403 . S
C1278 C1279 1.404 . S
C1278 C1281 1.539 . S
C1279 C1275 1.408 . S
C1279 C1278 1.404 . S
C1279 H1291 0.930 . S
C1280 C1276 1.524 . S
C1280 H1292 0.956 . S
C1280 H1293 0.961 . S
C1280 H1294 0.961 . S
C1281 C1278 1.539 . S
C1281 H1295 0.958 . S
C1281 H1296 0.961 . S
C1281 H1297 0.960 . S
H1282 C1266 0.931 . S
H1283 C1271 0.929 . S
H1284 C1272 0.960 . S
H1285 C1272 0.962 . S
H1286 C1272 0.960 . S
H1287 C1273 0.961 . S
H1288 C1273 0.961 . S
H1289 C1273 0.961 . S
H1290 C1274 0.931 . S
H1291 C1279 0.930 . S
H1292 C1280 0.956 . S
H1293 C1280 0.961 . S
H1294 C1280 0.961 . S
H1295 C1281 0.958 . S
H1296 C1281 0.961 . S
H1297 C1281 0.960 . S
C1298 C1299 1.391 . S
C1298 C1300 1.394 1_655 S
C1298 H1314 0.931 . S
C1299 C1298 1.391 . S
C1299 C1303 1.376 1_655 S
C1300 C1298 1.394 1_455 S
C1300 C1301 1.369 . S
C1300 C1304 1.531 . S
C1301 C1300 1.369 . S
C1301 C1302 1.410 . S
C1301 C1309 1.503 . S
C1302 C1301 1.410 . S
C1302 C1303 1.392 . S
C1302 C1305 1.511 . S
C1303 C1299 1.376 1_455 S
C1303 C1302 1.392 . S
C1303 H1315 0.929 . S
C1304 C1300 1.531 . S
C1304 H1316 0.960 . S
C1304 H1317 0.962 . S
C1304 H1318 0.960 . S
C1305 C1302 1.511 . S
C1305 H1319 0.961 . S
C1305 H1320 0.961 . S
C1305 H1321 0.961 . S
C1306 C1307 1.370 . S
C1306 C1308 1.363 . S
C1306 H1322 0.931 . S
C1307 C1306 1.370 . S
C1307 C1311 1.408 . S
C1308 C1306 1.363 . S
C1308 C1309 1.370 . S
C1308 C1312 1.524 . S
C1309 C1301 1.503 . S
C1309 C1308 1.370 . S
C1309 C1310 1.403 . S
C1310 C1309 1.403 . S
C1310 C1311 1.404 . S
C1310 C1313 1.539 . S
C1311 C1307 1.408 . S
C1311 C1310 1.404 . S
C1311 H1323 0.930 . S
C1312 C1308 1.524 . S
C1312 H1324 0.956 . S
C1312 H1325 0.961 . S
C1312 H1326 0.961 . S
C1313 C1310 1.539 . S
C1313 H1327 0.958 . S
C1313 H1328 0.961 . S
C1313 H1329 0.960 . S
H1314 C1298 0.931 . S
H1315 C1303 0.929 . S
H1316 C1304 0.960 . S
H1317 C1304 0.962 . S
H1318 C1304 0.960 . S
H1319 C1305 0.961 . S
H1320 C1305 0.961 . S
H1321 C1305 0.961 . S
H1322 C1306 0.931 . S
H1323 C1311 0.930 . S
H1324 C1312 0.956 . S
H1325 C1312 0.961 . S
H1326 C1312 0.961 . S
H1327 C1313 0.958 . S
H1328 C1313 0.961 . S
H1329 C1313 0.960 . S
C1330 C1331 1.391 . S
C1330 C1332 1.394 . S
C1330 H1346 0.931 . S
C1331 C1330 1.391 . S
C1331 C1335 1.376 . S
C1332 C1330 1.394 . S
C1332 C1333 1.369 . S
C1332 C1336 1.531 . S
C1333 C1332 1.369 . S
C1333 C1334 1.410 . S
C1333 C1341 1.503 . S
C1334 C1333 1.410 . S
C1334 C1335 1.392 . S
C1334 C1337 1.511 . S
C1335 C1331 1.376 . S
C1335 C1334 1.392 . S
C1335 H1347 0.929 . S
C1336 C1332 1.531 . S
C1336 H1348 0.960 . S
C1336 H1349 0.962 . S
C1336 H1350 0.960 . S
C1337 C1334 1.511 . S
C1337 H1351 0.961 . S
C1337 H1352 0.961 . S
C1337 H1353 0.961 . S
C1338 C1339 1.370 . S
C1338 C1340 1.363 . S
C1338 H1354 0.931 . S
C1339 C1338 1.370 . S
C1339 C1343 1.408 . S
C1340 C1338 1.363 . S
C1340 C1341 1.370 . S
C1340 C1344 1.524 . S
C1341 C1333 1.503 . S
C1341 C1340 1.370 . S
C1341 C1342 1.403 . S
C1342 C1341 1.403 . S
C1342 C1343 1.404 . S
C1342 C1345 1.539 . S
C1343 C1339 1.408 . S
C1343 C1342 1.404 . S
C1343 H1355 0.930 . S
C1344 C1340 1.524 . S
C1344 H1356 0.956 . S
C1344 H1357 0.961 . S
C1344 H1358 0.961 . S
C1345 C1342 1.539 . S
C1345 H1359 0.958 . S
C1345 H1360 0.961 . S
C1345 H1361 0.960 . S
H1346 C1330 0.931 . S
H1347 C1335 0.929 . S
H1348 C1336 0.960 . S
H1349 C1336 0.962 . S
H1350 C1336 0.960 . S
H1351 C1337 0.961 . S
H1352 C1337 0.961 . S
H1353 C1337 0.961 . S
H1354 C1338 0.931 . S
H1355 C1343 0.930 . S
H1356 C1344 0.956 . S
H1357 C1344 0.961 . S
H1358 C1344 0.961 . S
H1359 C1345 0.958 . S
H1360 C1345 0.961 . S
H1361 C1345 0.960 . S
C1362 C1363 1.391 . S
C1362 C1364 1.394 . S
C1362 H1378 0.931 . S
C1363 C1362 1.391 . S
C1363 C1367 1.376 . S
C1364 C1362 1.394 . S
C1364 C1365 1.369 . S
C1364 C1368 1.531 . S
C1365 C1364 1.369 . S
C1365 C1366 1.410 . S
C1365 C1373 1.503 . S
C1366 C1365 1.410 . S
C1366 C1367 1.392 . S
C1366 C1369 1.511 . S
C1367 C1363 1.376 . S
C1367 C1366 1.392 . S
C1367 H1379 0.929 . S
C1368 C1364 1.531 . S
C1368 H1380 0.960 . S
C1368 H1381 0.962 . S
C1368 H1382 0.960 . S
C1369 C1366 1.511 . S
C1369 H1383 0.961 . S
C1369 H1384 0.961 . S
C1369 H1385 0.961 . S
C1370 C1371 1.370 . S
C1370 C1372 1.363 . S
C1370 H1386 0.931 . S
C1371 C1370 1.370 . S
C1371 C1375 1.408 . S
C1372 C1370 1.363 . S
C1372 C1373 1.370 . S
C1372 C1376 1.524 . S
C1373 C1365 1.503 . S
C1373 C1372 1.370 . S
C1373 C1374 1.403 . S
C1374 C1373 1.403 . S
C1374 C1375 1.404 . S
C1374 C1377 1.539 . S
C1375 C1371 1.408 . S
C1375 C1374 1.404 . S
C1375 H1387 0.930 . S
C1376 C1372 1.524 . S
C1376 H1388 0.956 . S
C1376 H1389 0.961 . S
C1376 H1390 0.961 . S
C1377 C1374 1.539 . S
C1377 H1391 0.958 . S
C1377 H1392 0.961 . S
C1377 H1393 0.960 . S
H1378 C1362 0.931 . S
H1379 C1367 0.929 . S
H1380 C1368 0.960 . S
H1381 C1368 0.962 . S
H1382 C1368 0.960 . S
H1383 C1369 0.961 . S
H1384 C1369 0.961 . S
H1385 C1369 0.961 . S
H1386 C1370 0.931 . S
H1387 C1375 0.930 . S
H1388 C1376 0.956 . S
H1389 C1376 0.961 . S
H1390 C1376 0.961 . S
H1391 C1377 0.958 . S
H1392 C1377 0.961 . S
H1393 C1377 0.960 . S
C1394 C1395 1.391 . S
C1394 C1396 1.394 . S
C1394 H1410 0.931 . S
C1395 C1394 1.391 . S
C1395 C1399 1.376 . S
C1396 C1394 1.394 . S
C1396 C1397 1.369 . S
C1396 C1400 1.531 . S
C1397 C1396 1.369 . S
C1397 C1398 1.410 . S
C1397 C1405 1.503 . S
C1398 C1397 1.410 . S
C1398 C1399 1.392 . S
C1398 C1401 1.511 . S
C1399 C1395 1.376 . S
C1399 C1398 1.392 . S
C1399 H1411 0.929 . S
C1400 C1396 1.531 . S
C1400 H1412 0.960 . S
C1400 H1413 0.962 . S
C1400 H1414 0.960 . S
C1401 C1398 1.511 . S
C1401 H1415 0.961 . S
C1401 H1416 0.961 . S
C1401 H1417 0.961 . S
C1402 C1403 1.370 . S
C1402 C1404 1.363 . S
C1402 H1418 0.931 . S
C1403 C1402 1.370 . S
C1403 C1407 1.408 . S
C1404 C1402 1.363 . S
C1404 C1405 1.370 . S
C1404 C1408 1.524 . S
C1405 C1397 1.503 . S
C1405 C1404 1.370 . S
C1405 C1406 1.403 . S
C1406 C1405 1.403 . S
C1406 C1407 1.404 . S
C1406 C1409 1.539 . S
C1407 C1403 1.408 . S
C1407 C1406 1.404 . S
C1407 H1419 0.930 . S
C1408 C1404 1.524 . S
C1408 H1420 0.956 . S
C1408 H1421 0.961 . S
C1408 H1422 0.961 . S
C1409 C1406 1.539 . S
C1409 H1423 0.958 . S
C1409 H1424 0.961 . S
C1409 H1425 0.960 . S
H1410 C1394 0.931 . S
H1411 C1399 0.929 . S
H1412 C1400 0.960 . S
H1413 C1400 0.962 . S
H1414 C1400 0.960 . S
H1415 C1401 0.961 . S
H1416 C1401 0.961 . S
H1417 C1401 0.961 . S
H1418 C1402 0.931 . S
H1419 C1407 0.930 . S
H1420 C1408 0.956 . S
H1421 C1408 0.961 . S
H1422 C1408 0.961 . S
H1423 C1409 0.958 . S
H1424 C1409 0.961 . S
H1425 C1409 0.960 . S
C1426 C1427 1.391 . S
C1426 C1428 1.394 . S
C1426 H1442 0.931 . S
C1427 C1426 1.391 . S
C1427 C1431 1.376 . S
C1428 C1426 1.394 . S
C1428 C1429 1.369 . S
C1428 C1432 1.531 . S
C1429 C1428 1.369 . S
C1429 C1430 1.410 . S
C1429 C1437 1.503 . S
C1430 C1429 1.410 . S
C1430 C1431 1.392 . S
C1430 C1433 1.511 . S
C1431 C1427 1.376 . S
C1431 C1430 1.392 . S
C1431 H1443 0.929 . S
C1432 C1428 1.531 . S
C1432 H1444 0.960 . S
C1432 H1445 0.962 . S
C1432 H1446 0.960 . S
C1433 C1430 1.511 . S
C1433 H1447 0.961 . S
C1433 H1448 0.961 . S
C1433 H1449 0.961 . S
C1434 C1435 1.370 . S
C1434 C1436 1.363 . S
C1434 H1450 0.931 . S
C1435 C1434 1.370 . S
C1435 C1439 1.408 . S
C1436 C1434 1.363 . S
C1436 C1437 1.370 . S
C1436 C1440 1.524 . S
C1437 C1429 1.503 . S
C1437 C1436 1.370 . S
C1437 C1438 1.403 . S
C1438 C1437 1.403 . S
C1438 C1439 1.404 . S
C1438 C1441 1.539 . S
C1439 C1435 1.408 . S
C1439 C1438 1.404 . S
C1439 H1451 0.930 . S
C1440 C1436 1.524 . S
C1440 H1452 0.956 . S
C1440 H1453 0.961 . S
C1440 H1454 0.961 . S
C1441 C1438 1.539 . S
C1441 H1455 0.958 . S
C1441 H1456 0.961 . S
C1441 H1457 0.960 . S
H1442 C1426 0.931 . S
H1443 C1431 0.929 . S
H1444 C1432 0.960 . S
H1445 C1432 0.962 . S
H1446 C1432 0.960 . S
H1447 C1433 0.961 . S
H1448 C1433 0.961 . S
H1449 C1433 0.961 . S
H1450 C1434 0.931 . S
H1451 C1439 0.930 . S
H1452 C1440 0.956 . S
H1453 C1440 0.961 . S
H1454 C1440 0.961 . S
H1455 C1441 0.958 . S
H1456 C1441 0.961 . S
H1457 C1441 0.960 . S
C1458 C1459 1.391 . S
C1458 C1460 1.394 . S
C1458 H1474 0.931 . S
C1459 C1458 1.391 . S
C1459 C1463 1.376 . S
C1460 C1458 1.394 . S
C1460 C1461 1.369 . S
C1460 C1464 1.531 . S
C1461 C1460 1.369 . S
C1461 C1462 1.410 . S
C1461 C1469 1.503 1_565 S
C1462 C1461 1.410 . S
C1462 C1463 1.392 . S
C1462 C1465 1.511 . S
C1463 C1459 1.376 . S
C1463 C1462 1.392 . S
C1463 H1475 0.929 . S
C1464 C1460 1.531 . S
C1464 H1476 0.960 . S
C1464 H1477 0.962 . S
C1464 H1478 0.960 . S
C1465 C1462 1.511 . S
C1465 H1479 0.961 . S
C1465 H1480 0.961 . S
C1465 H1481 0.961 . S
C1466 C1467 1.370 . S
C1466 C1468 1.363 . S
C1466 H1482 0.931 . S
C1467 C1466 1.370 . S
C1467 C1471 1.408 . S
C1468 C1466 1.363 . S
C1468 C1469 1.370 . S
C1468 C1472 1.524 . S
C1469 C1461 1.503 1_545 S
C1469 C1468 1.370 . S
C1469 C1470 1.403 . S
C1470 C1469 1.403 . S
C1470 C1471 1.404 . S
C1470 C1473 1.539 1_545 S
C1471 C1467 1.408 . S
C1471 C1470 1.404 . S
C1471 H1483 0.930 . S
C1472 C1468 1.524 . S
C1472 H1484 0.956 . S
C1472 H1485 0.973 . S
C1472 H1486 0.961 . S
C1473 C1470 1.539 1_565 S
C1473 H1487 0.958 . S
C1473 H1488 0.961 . S
C1473 H1489 0.960 . S
H1474 C1458 0.931 . S
H1475 C1463 0.929 . S
H1476 C1464 0.960 . S
H1477 C1464 0.962 . S
H1478 C1464 0.960 . S
H1479 C1465 0.961 . S
H1480 C1465 0.961 . S
H1481 C1465 0.961 . S
H1482 C1466 0.931 . S
H1483 C1471 0.930 . S
H1484 C1472 0.956 . S
H1485 C1472 0.973 . S
H1486 C1472 0.961 . S
H1487 C1473 0.958 . S
H1488 C1473 0.961 . S
H1489 C1473 0.960 . S
C1490 C1491 1.391 . S
C1490 C1492 1.394 . S
C1490 H1506 0.931 . S
C1491 C1490 1.391 . S
C1491 C1495 1.376 . S
C1492 C1490 1.394 . S
C1492 C1493 1.369 . S
C1492 C1496 1.531 1_455 S
C1493 C1492 1.369 . S
C1493 C1494 1.410 . S
C1493 C1501 1.503 1_455 S
C1494 C1493 1.410 . S
C1494 C1495 1.392 . S
C1494 C1497 1.511 . S
C1495 C1491 1.376 . S
C1495 C1494 1.392 . S
C1495 H1507 0.929 . S
C1496 C1492 1.531 1_655 S
C1496 H1508 0.960 . S
C1496 H1509 0.962 . S
C1496 H1510 0.960 . S
C1497 C1494 1.511 . S
C1497 H1511 0.961 . S
C1497 H1512 0.961 . S
C1497 H1513 0.961 . S
C1498 C1499 1.370 . S
C1498 C1500 1.363 . S
C1498 H1514 0.931 . S
C1499 C1498 1.370 . S
C1499 C1503 1.408 . S
C1500 C1498 1.363 . S
C1500 C1501 1.370 . S
C1500 C1504 1.524 1_655 S
C1501 C1493 1.503 1_655 S
C1501 C1500 1.370 . S
C1501 C1502 1.403 . S
C1502 C1501 1.403 . S
C1502 C1503 1.404 . S
C1502 C1505 1.539 . S
C1503 C1499 1.408 . S
C1503 C1502 1.404 . S
C1503 H1515 0.930 . S
C1504 C1500 1.524 1_455 S
C1504 H1516 0.956 . S
C1504 H1517 0.961 . S
C1504 H1518 0.961 . S
C1505 C1502 1.539 . S
C1505 H1519 0.958 . S
C1505 H1520 0.961 . S
C1505 H1521 0.960 . S
H1506 C1490 0.931 . S
H1507 C1495 0.929 . S
H1508 C1496 0.960 . S
H1509 C1496 0.962 . S
H1510 C1496 0.960 . S
H1511 C1497 0.961 . S
H1512 C1497 0.961 . S
H1513 C1497 0.961 . S
H1514 C1498 0.931 . S
H1515 C1503 0.930 . S
H1516 C1504 0.956 . S
H1517 C1504 0.961 . S
H1518 C1504 0.961 . S
H1519 C1505 0.958 . S
H1520 C1505 0.961 . S
H1521 C1505 0.960 . S
C1522 C1523 1.391 . S
C1522 C1524 1.394 . S
C1522 H1538 0.931 . S
C1523 C1522 1.391 . S
C1523 C1527 1.376 . S
C1524 C1522 1.394 . S
C1524 C1525 1.369 . S
C1524 C1528 1.531 . S
C1525 C1524 1.369 . S
C1525 C1526 1.410 . S
C1525 C1533 1.503 . S
C1526 C1525 1.410 . S
C1526 C1527 1.392 . S
C1526 C1529 1.511 . S
C1527 C1523 1.376 . S
C1527 C1526 1.392 . S
C1527 H1539 0.929 . S
C1528 C1524 1.531 . S
C1528 H1540 0.960 . S
C1528 H1541 0.962 . S
C1528 H1542 0.960 . S
C1529 C1526 1.511 . S
C1529 H1543 0.961 . S
C1529 H1544 0.961 . S
C1529 H1545 0.961 . S
C1530 C1531 1.370 . S
C1530 C1532 1.363 . S
C1530 H1546 0.931 . S
C1531 C1530 1.370 . S
C1531 C1535 1.408 . S
C1532 C1530 1.363 . S
C1532 C1533 1.370 . S
C1532 C1536 1.524 . S
C1533 C1525 1.503 . S
C1533 C1532 1.370 . S
C1533 C1534 1.403 . S
C1534 C1533 1.403 . S
C1534 C1535 1.404 . S
C1534 C1537 1.539 . S
C1535 C1531 1.408 . S
C1535 C1534 1.404 . S
C1535 H1547 0.930 . S
C1536 C1532 1.524 . S
C1536 H1548 0.956 . S
C1536 H1549 0.961 . S
C1536 H1550 0.961 . S
C1537 C1534 1.539 . S
C1537 H1551 0.958 . S
C1537 H1552 0.961 . S
C1537 H1553 0.960 . S
H1538 C1522 0.931 . S
H1539 C1527 0.929 . S
H1540 C1528 0.960 . S
H1541 C1528 0.962 . S
H1542 C1528 0.960 . S
H1543 C1529 0.961 . S
H1544 C1529 0.961 . S
H1545 C1529 0.961 . S
H1546 C1530 0.931 . S
H1547 C1535 0.930 . S
H1548 C1536 0.956 . S
H1549 C1536 0.961 . S
H1550 C1536 0.961 . S
H1551 C1537 0.958 . S
H1552 C1537 0.961 . S
H1553 C1537 0.960 . S
C1554 C1555 1.391 . S
C1554 C1556 1.394 1_455 S
C1554 H1570 0.931 . S
C1555 C1554 1.391 . S
C1555 C1559 1.376 . S
C1556 C1554 1.394 1_655 S
C1556 C1557 1.369 . S
C1556 C1560 1.531 . S
C1557 C1556 1.369 . S
C1557 C1558 1.410 . S
C1557 C1565 1.503 . S
C1558 C1557 1.410 . S
C1558 C1559 1.392 1_655 S
C1558 C1561 1.511 . S
C1559 C1555 1.376 . S
C1559 C1558 1.392 1_455 S
C1559 H1571 0.929 . S
C1560 C1556 1.531 . S
C1560 H1572 0.960 . S
C1560 H1573 0.962 . S
C1560 H1574 0.960 . S
C1561 C1558 1.511 . S
C1561 H1575 0.961 1_655 S
C1561 H1576 0.961 . S
C1561 H1577 0.961 . S
C1562 C1563 1.370 . S
C1562 C1564 1.363 . S
C1562 H1578 0.931 . S
C1563 C1562 1.370 . S
C1563 C1567 1.408 . S
C1564 C1562 1.363 . S
C1564 C1565 1.370 . S
C1564 C1568 1.524 . S
C1565 C1557 1.503 . S
C1565 C1564 1.370 . S
C1565 C1566 1.403 . S
C1566 C1565 1.403 . S
C1566 C1567 1.404 . S
C1566 C1569 1.539 . S
C1567 C1563 1.408 . S
C1567 C1566 1.404 . S
C1567 H1579 0.930 . S
C1568 C1564 1.524 . S
C1568 H1580 0.956 . S
C1568 H1581 0.961 . S
C1568 H1582 0.961 . S
C1569 C1566 1.539 . S
C1569 H1583 0.958 . S
C1569 H1584 0.961 . S
C1569 H1585 0.960 . S
H1570 C1554 0.931 . S
H1571 C1559 0.929 . S
H1572 C1560 0.960 . S
H1573 C1560 0.962 . S
H1574 C1560 0.960 . S
H1575 C1561 0.961 1_455 S
H1576 C1561 0.961 . S
H1577 C1561 0.961 . S
H1578 C1562 0.931 . S
H1579 C1567 0.930 . S
H1580 C1568 0.956 . S
H1581 C1568 0.961 . S
H1582 C1568 0.961 . S
H1583 C1569 0.958 . S
H1584 C1569 0.961 . S
H1585 C1569 0.960 . S
C1586 C1587 1.391 . S
C1586 C1588 1.394 . S
C1586 H1602 0.931 . S
C1587 C1586 1.391 . S
C1587 C1591 1.376 . S
C1588 C1586 1.394 . S
C1588 C1589 1.369 . S
C1588 C1592 1.531 . S
C1589 C1588 1.369 . S
C1589 C1590 1.410 . S
C1589 C1597 1.503 . S
C1590 C1589 1.410 . S
C1590 C1591 1.392 . S
C1590 C1593 1.511 . S
C1591 C1587 1.376 . S
C1591 C1590 1.392 . S
C1591 H1603 0.929 . S
C1592 C1588 1.531 . S
C1592 H1604 0.960 . S
C1592 H1605 0.962 . S
C1592 H1606 0.960 . S
C1593 C1590 1.511 . S
C1593 H1607 0.961 . S
C1593 H1608 0.961 . S
C1593 H1609 0.961 . S
C1594 C1595 1.370 . S
C1594 C1596 1.363 . S
C1594 H1610 0.931 . S
C1595 C1594 1.370 . S
C1595 C1599 1.408 . S
C1596 C1594 1.363 . S
C1596 C1597 1.370 . S
C1596 C1600 1.524 . S
C1597 C1589 1.503 . S
C1597 C1596 1.370 . S
C1597 C1598 1.403 . S
C1598 C1597 1.403 . S
C1598 C1599 1.404 . S
C1598 C1601 1.539 . S
C1599 C1595 1.408 . S
C1599 C1598 1.404 . S
C1599 H1611 0.930 . S
C1600 C1596 1.524 . S
C1600 H1612 0.956 . S
C1600 H1613 0.961 . S
C1600 H1614 0.961 . S
C1601 C1598 1.539 . S
C1601 H1615 0.958 . S
C1601 H1616 0.961 . S
C1601 H1617 0.960 . S
H1602 C1586 0.931 . S
H1603 C1591 0.929 . S
H1604 C1592 0.960 . S
H1605 C1592 0.962 . S
H1606 C1592 0.960 . S
H1607 C1593 0.961 . S
H1608 C1593 0.961 . S
H1609 C1593 0.961 . S
H1610 C1594 0.931 . S
H1611 C1599 0.930 . S
H1612 C1600 0.956 . S
H1613 C1600 0.961 . S
H1614 C1600 0.961 . S
H1615 C1601 0.958 . S
H1616 C1601 0.961 . S
H1617 C1601 0.960 . S
C1618 C1619 1.391 . S
C1618 C1620 1.394 1_565 S
C1618 H1634 0.931 . S
C1619 C1618 1.391 . S
C1619 C1623 1.376 . S
C1620 C1618 1.394 1_545 S
C1620 C1621 1.369 . S
C1620 C1624 1.531 . S
C1621 C1620 1.369 . S
C1621 C1622 1.410 . S
C1621 C1629 1.503 . S
C1622 C1621 1.410 . S
C1622 C1623 1.392 1_545 S
C1622 C1625 1.511 . S
C1623 C1619 1.376 . S
C1623 C1622 1.392 1_565 S
C1623 H1635 0.929 . S
C1624 C1620 1.531 . S
C1624 H1636 0.960 . S
C1624 H1637 0.962 . S
C1624 H1638 0.960 . S
C1625 C1622 1.511 . S
C1625 H1639 0.961 . S
C1625 H1640 0.961 . S
C1625 H1641 0.961 . S
C1626 C1627 1.370 . S
C1626 C1628 1.363 . S
C1626 H1642 0.931 . S
C1627 C1626 1.370 . S
C1627 C1631 1.408 . S
C1628 C1626 1.363 . S
C1628 C1629 1.370 . S
C1628 C1632 1.524 . S
C1629 C1621 1.503 . S
C1629 C1628 1.370 . S
C1629 C1630 1.403 . S
C1630 C1629 1.403 . S
C1630 C1631 1.404 . S
C1630 C1633 1.539 . S
C1631 C1627 1.408 . S
C1631 C1630 1.404 . S
C1631 H1643 0.930 . S
C1632 C1628 1.524 . S
C1632 H1644 0.956 . S
C1632 H1645 0.961 . S
C1632 H1646 0.961 . S
C1633 C1630 1.539 . S
C1633 H1647 0.958 . S
C1633 H1648 0.961 . S
C1633 H1649 0.960 . S
H1634 C1618 0.931 . S
H1635 C1623 0.929 . S
H1636 C1624 0.960 . S
H1637 C1624 0.962 . S
H1638 C1624 0.960 . S
H1639 C1625 0.961 . S
H1640 C1625 0.961 . S
H1641 C1625 0.961 . S
H1642 C1626 0.931 . S
H1643 C1631 0.930 . S
H1644 C1632 0.956 . S
H1645 C1632 0.961 . S
H1646 C1632 0.961 . S
H1647 C1633 0.958 . S
H1648 C1633 0.961 . S
H1649 C1633 0.960 . S
C1650 C1651 1.391 . S
C1650 C1652 1.394 . S
C1650 H1666 0.931 . S
C1651 C1650 1.391 . S
C1651 C1655 1.376 . S
C1652 C1650 1.394 . S
C1652 C1653 1.369 . S
C1652 C1656 1.531 . S
C1653 C1652 1.369 . S
C1653 C1654 1.410 . S
C1653 C1661 1.503 . S
C1654 C1653 1.410 . S
C1654 C1655 1.392 . S
C1654 C1657 1.511 . S
C1655 C1651 1.376 . S
C1655 C1654 1.392 . S
C1655 H1667 0.929 . S
C1656 C1652 1.531 . S
C1656 H1668 0.960 . S
C1656 H1669 0.962 . S
C1656 H1670 0.960 . S
C1657 C1654 1.511 . S
C1657 H1671 0.961 . S
C1657 H1672 0.961 . S
C1657 H1673 0.961 . S
C1658 C1659 1.370 . S
C1658 C1660 1.363 . S
C1658 H1674 0.931 . S
C1659 C1658 1.370 . S
C1659 C1663 1.408 . S
C1660 C1658 1.363 . S
C1660 C1661 1.370 . S
C1660 C1664 1.524 . S
C1661 C1653 1.503 . S
C1661 C1660 1.370 . S
C1661 C1662 1.403 . S
C1662 C1661 1.403 . S
C1662 C1663 1.404 . S
C1662 C1665 1.539 . S
C1663 C1659 1.408 . S
C1663 C1662 1.404 . S
C1663 H1675 0.930 . S
C1664 C1660 1.524 . S
C1664 H1676 0.956 . S
C1664 H1677 0.961 . S
C1664 H1678 0.961 . S
C1665 C1662 1.539 . S
C1665 H1679 0.958 . S
C1665 H1680 0.961 . S
C1665 H1681 0.960 . S
H1666 C1650 0.931 . S
H1667 C1655 0.929 . S
H1668 C1656 0.960 . S
H1669 C1656 0.962 . S
H1670 C1656 0.960 . S
H1671 C1657 0.961 . S
H1672 C1657 0.961 . S
H1673 C1657 0.961 . S
H1674 C1658 0.931 . S
H1675 C1663 0.930 . S
H1676 C1664 0.956 . S
H1677 C1664 0.961 . S
H1678 C1664 0.961 . S
H1679 C1665 0.958 . S
H1680 C1665 0.961 . S
H1681 C1665 0.960 . S
C1682 C1683 1.391 . S
C1682 C1684 1.394 . S
C1682 H1698 0.931 . S
C1683 C1682 1.391 . S
C1683 C1687 1.376 . S
C1684 C1682 1.394 . S
C1684 C1685 1.369 . S
C1684 C1688 1.531 . S
C1685 C1684 1.369 . S
C1685 C1686 1.410 . S
C1685 C1693 1.503 . S
C1686 C1685 1.410 . S
C1686 C1687 1.392 . S
C1686 C1689 1.511 . S
C1687 C1683 1.376 . S
C1687 C1686 1.392 . S
C1687 H1699 0.929 . S
C1688 C1684 1.531 . S
C1688 H1700 0.960 . S
C1688 H1701 0.962 . S
C1688 H1702 0.960 . S
C1689 C1686 1.511 . S
C1689 H1703 0.961 . S
C1689 H1704 0.961 . S
C1689 H1705 0.961 . S
C1690 C1691 1.370 . S
C1690 C1692 1.363 . S
C1690 H1706 0.931 . S
C1691 C1690 1.370 . S
C1691 C1695 1.408 . S
C1692 C1690 1.363 . S
C1692 C1693 1.370 . S
C1692 C1696 1.524 . S
C1693 C1685 1.503 . S
C1693 C1692 1.370 . S
C1693 C1694 1.403 . S
C1694 C1693 1.403 . S
C1694 C1695 1.404 . S
C1694 C1697 1.539 . S
C1695 C1691 1.408 . S
C1695 C1694 1.404 . S
C1695 H1707 0.930 . S
C1696 C1692 1.524 . S
C1696 H1708 0.956 . S
C1696 H1709 0.961 . S
C1696 H1710 0.961 . S
C1697 C1694 1.539 . S
C1697 H1711 0.958 . S
C1697 H1712 0.961 . S
C1697 H1713 0.960 . S
H1698 C1682 0.931 . S
H1699 C1687 0.929 . S
H1700 C1688 0.960 . S
H1701 C1688 0.962 . S
H1702 C1688 0.960 . S
H1703 C1689 0.961 . S
H1704 C1689 0.961 . S
H1705 C1689 0.961 . S
H1706 C1690 0.931 . S
H1707 C1695 0.930 . S
H1708 C1696 0.956 . S
H1709 C1696 0.961 . S
H1710 C1696 0.961 . S
H1711 C1697 0.958 . S
H1712 C1697 0.961 . S
H1713 C1697 0.960 . S
C1714 C1715 1.391 . S
C1714 C1716 1.394 . S
C1714 H1730 0.931 . S
C1715 C1714 1.391 . S
C1715 C1719 1.376 . S
C1716 C1714 1.394 . S
C1716 C1717 1.369 . S
C1716 C1720 1.531 . S
C1717 C1716 1.369 . S
C1717 C1718 1.410 . S
C1717 C1725 1.503 . S
C1718 C1717 1.410 . S
C1718 C1719 1.392 . S
C1718 C1721 1.511 . S
C1719 C1715 1.376 . S
C1719 C1718 1.392 . S
C1719 H1731 0.929 . S
C1720 C1716 1.531 . S
C1720 H1732 0.960 . S
C1720 H1733 0.962 . S
C1720 H1734 0.960 . S
C1721 C1718 1.511 . S
C1721 H1735 0.961 . S
C1721 H1736 0.961 . S
C1721 H1737 0.961 . S
C1722 C1723 1.370 . S
C1722 C1724 1.363 . S
C1722 H1738 0.931 . S
C1723 C1722 1.370 . S
C1723 C1727 1.408 . S
C1724 C1722 1.363 . S
C1724 C1725 1.370 . S
C1724 C1728 1.524 . S
C1725 C1717 1.503 . S
C1725 C1724 1.370 . S
C1725 C1726 1.403 . S
C1726 C1725 1.403 . S
C1726 C1727 1.404 . S
C1726 C1729 1.539 . S
C1727 C1723 1.408 . S
C1727 C1726 1.404 . S
C1727 H1739 0.930 . S
C1728 C1724 1.524 . S
C1728 H1740 0.956 . S
C1728 H1741 0.961 . S
C1728 H1742 0.961 . S
C1729 C1726 1.539 . S
C1729 H1743 0.958 . S
C1729 H1744 0.961 . S
C1729 H1745 0.960 . S
H1730 C1714 0.931 . S
H1731 C1719 0.929 . S
H1732 C1720 0.960 . S
H1733 C1720 0.962 . S
H1734 C1720 0.960 . S
H1735 C1721 0.961 . S
H1736 C1721 0.961 . S
H1737 C1721 0.961 . S
H1738 C1722 0.931 . S
H1739 C1727 0.930 . S
H1740 C1728 0.956 . S
H1741 C1728 0.961 . S
H1742 C1728 0.961 . S
H1743 C1729 0.958 . S
H1744 C1729 0.961 . S
H1745 C1729 0.960 . S
C1746 C1747 1.391 . S
C1746 C1748 1.394 . S
C1746 H1762 0.931 . S
C1747 C1746 1.391 . S
C1747 C1751 1.376 . S
C1748 C1746 1.394 . S
C1748 C1749 1.369 . S
C1748 C1752 1.531 . S
C1749 C1748 1.369 . S
C1749 C1750 1.410 . S
C1749 C1757 1.503 . S
C1750 C1749 1.410 . S
C1750 C1751 1.392 . S
C1750 C1753 1.511 . S
C1751 C1747 1.376 . S
C1751 C1750 1.392 . S
C1751 H1763 0.929 . S
C1752 C1748 1.531 . S
C1752 H1764 0.960 . S
C1752 H1765 0.962 . S
C1752 H1766 0.960 1_565 S
C1753 C1750 1.511 . S
C1753 H1767 0.961 . S
C1753 H1768 0.961 . S
C1753 H1769 0.961 . S
C1754 C1755 1.370 . S
C1754 C1756 1.363 . S
C1754 H1770 0.931 . S
C1755 C1754 1.370 . S
C1755 C1759 1.408 . S
C1756 C1754 1.363 . S
C1756 C1757 1.370 . S
C1756 C1760 1.524 . S
C1757 C1749 1.503 . S
C1757 C1756 1.370 . S
C1757 C1758 1.403 . S
C1758 C1757 1.403 . S
C1758 C1759 1.404 . S
C1758 C1761 1.539 . S
C1759 C1755 1.408 . S
C1759 C1758 1.404 . S
C1759 H1771 0.930 . S
C1760 C1756 1.524 . S
C1760 H1772 0.956 . S
C1760 H1773 0.961 . S
C1760 H1774 0.961 . S
C1761 C1758 1.539 . S
C1761 H1775 0.958 . S
C1761 H1776 0.961 . S
C1761 H1777 0.960 . S
H1762 C1746 0.931 . S
H1763 C1751 0.929 . S
H1764 C1752 0.960 . S
H1765 C1752 0.962 . S
H1766 C1752 0.960 1_545 S
H1767 C1753 0.961 . S
H1768 C1753 0.961 . S
H1769 C1753 0.961 . S
H1770 C1754 0.931 . S
H1771 C1759 0.930 . S
H1772 C1760 0.956 . S
H1773 C1760 0.961 . S
H1774 C1760 0.961 . S
H1775 C1761 0.958 . S
H1776 C1761 0.961 . S
H1777 C1761 0.960 . S
C1778 C1779 1.391 . S
C1778 C1780 1.394 . S
C1778 H1794 0.931 . S
C1779 C1778 1.391 . S
C1779 C1783 1.376 . S
C1780 C1778 1.394 . S
C1780 C1781 1.369 . S
C1780 C1784 1.531 . S
C1781 C1780 1.369 . S
C1781 C1782 1.410 . S
C1781 C1789 1.503 . S
C1782 C1781 1.410 . S
C1782 C1783 1.392 . S
C1782 C1785 1.511 . S
C1783 C1779 1.376 . S
C1783 C1782 1.392 . S
C1783 H1795 0.929 . S
C1784 C1780 1.531 . S
C1784 H1796 0.960 . S
C1784 H1797 0.962 . S
C1784 H1798 0.960 . S
C1785 C1782 1.511 . S
C1785 H1799 0.961 . S
C1785 H1800 0.961 . S
C1785 H1801 0.961 . S
C1786 C1787 1.370 . S
C1786 C1788 1.363 . S
C1786 H1802 0.931 . S
C1787 C1786 1.370 . S
C1787 C1791 1.408 . S
C1788 C1786 1.363 . S
C1788 C1789 1.370 . S
C1788 C1792 1.524 . S
C1789 C1781 1.503 . S
C1789 C1788 1.370 . S
C1789 C1790 1.403 . S
C1790 C1789 1.403 . S
C1790 C1791 1.404 . S
C1790 C1793 1.539 . S
C1791 C1787 1.408 . S
C1791 C1790 1.404 . S
C1791 H1803 0.930 . S
C1792 C1788 1.524 . S
C1792 H1804 0.956 1_455 S
C1792 H1805 0.961 . S
C1792 H1806 0.961 1_455 S
C1793 C1790 1.539 . S
C1793 H1807 0.958 . S
C1793 H1808 0.961 . S
C1793 H1809 0.960 . S
H1794 C1778 0.931 . S
H1795 C1783 0.929 . S
H1796 C1784 0.960 . S
H1797 C1784 0.962 . S
H1798 C1784 0.960 . S
H1799 C1785 0.961 . S
H1800 C1785 0.961 . S
H1801 C1785 0.961 . S
H1802 C1786 0.931 . S
H1803 C1791 0.930 . S
H1804 C1792 0.956 1_655 S
H1805 C1792 0.961 . S
H1806 C1792 0.961 1_655 S
H1807 C1793 0.958 . S
H1808 C1793 0.961 . S
H1809 C1793 0.960 . S
C1810 C1811 1.391 . S
C1810 C1812 1.394 . S
C1810 H1826 0.931 . S
C1811 C1810 1.391 . S
C1811 C1815 1.376 . S
C1812 C1810 1.394 . S
C1812 C1813 1.369 . S
C1812 C1816 1.531 . S
C1813 C1812 1.369 . S
C1813 C1814 1.410 . S
C1813 C1821 1.503 . S
C1814 C1813 1.410 . S
C1814 C1815 1.392 . S
C1814 C1817 1.511 . S
C1815 C1811 1.376 . S
C1815 C1814 1.392 . S
C1815 H1827 0.929 . S
C1816 C1812 1.531 . S
C1816 H1828 0.960 . S
C1816 H1829 0.962 . S
C1816 H1830 0.960 . S
C1817 C1814 1.511 . S
C1817 H1831 0.961 . S
C1817 H1832 0.961 . S
C1817 H1833 0.961 . S
C1818 C1819 1.370 . S
C1818 C1820 1.363 . S
C1818 H1834 0.931 . S
C1819 C1818 1.370 . S
C1819 C1823 1.408 . S
C1820 C1818 1.363 . S
C1820 C1821 1.370 . S
C1820 C1824 1.524 . S
C1821 C1813 1.503 . S
C1821 C1820 1.370 . S
C1821 C1822 1.403 . S
C1822 C1821 1.403 . S
C1822 C1823 1.404 . S
C1822 C1825 1.539 . S
C1823 C1819 1.408 . S
C1823 C1822 1.404 . S
C1823 H1835 0.930 . S
C1824 C1820 1.524 . S
C1824 H1836 0.956 . S
C1824 H1837 0.961 . S
C1824 H1838 0.961 . S
C1825 C1822 1.539 . S
C1825 H1839 0.958 . S
C1825 H1840 0.961 . S
C1825 H1841 0.960 . S
H1826 C1810 0.931 . S
H1827 C1815 0.929 . S
H1828 C1816 0.960 . S
H1829 C1816 0.962 . S
H1830 C1816 0.960 . S
H1831 C1817 0.961 . S
H1832 C1817 0.961 . S
H1833 C1817 0.961 . S
H1834 C1818 0.931 . S
H1835 C1823 0.930 . S
H1836 C1824 0.956 . S
H1837 C1824 0.961 . S
H1838 C1824 0.961 . S
H1839 C1825 0.958 . S
H1840 C1825 0.961 . S
H1841 C1825 0.960 . S
C1842 C1843 1.391 . S
C1842 C1844 1.394 . S
C1842 H1858 0.931 . S
C1843 C1842 1.391 . S
C1843 C1847 1.376 . S
C1844 C1842 1.394 . S
C1844 C1845 1.369 . S
C1844 C1848 1.531 . S
C1845 C1844 1.369 . S
C1845 C1846 1.410 . S
C1845 C1853 1.503 . S
C1846 C1845 1.410 . S
C1846 C1847 1.392 . S
C1846 C1849 1.511 . S
C1847 C1843 1.376 . S
C1847 C1846 1.392 . S
C1847 H1859 0.929 . S
C1848 C1844 1.531 . S
C1848 H1860 0.960 . S
C1848 H1861 0.962 . S
C1848 H1862 0.960 . S
C1849 C1846 1.511 . S
C1849 H1863 0.961 . S
C1849 H1864 0.961 . S
C1849 H1865 0.961 . S
C1850 C1851 1.370 . S
C1850 C1852 1.363 . S
C1850 H1866 0.931 . S
C1851 C1850 1.370 . S
C1851 C1855 1.408 . S
C1852 C1850 1.363 . S
C1852 C1853 1.370 . S
C1852 C1856 1.524 1_655 S
C1853 C1845 1.503 . S
C1853 C1852 1.370 . S
C1853 C1854 1.403 . S
C1854 C1853 1.403 . S
C1854 C1855 1.404 . S
C1854 C1857 1.539 . S
C1855 C1851 1.408 . S
C1855 C1854 1.404 . S
C1855 H1867 0.930 . S
C1856 C1852 1.524 1_455 S
C1856 H1868 0.956 . S
C1856 H1869 0.971 1_455 S
C1856 H1870 0.961 . S
C1857 C1854 1.539 . S
C1857 H1871 0.958 . S
C1857 H1872 0.961 . S
C1857 H1873 0.960 . S
H1858 C1842 0.931 . S
H1859 C1847 0.929 . S
H1860 C1848 0.960 . S
H1861 C1848 0.962 . S
H1862 C1848 0.960 . S
H1863 C1849 0.961 . S
H1864 C1849 0.961 . S
H1865 C1849 0.961 . S
H1866 C1850 0.931 . S
H1867 C1855 0.930 . S
H1868 C1856 0.956 . S
H1869 C1856 0.971 1_655 S
H1870 C1856 0.961 . S
H1871 C1857 0.958 . S
H1872 C1857 0.961 . S
H1873 C1857 0.960 . S
C1874 C1875 1.391 . S
C1874 C1876 1.394 . S
C1874 H1890 0.931 . S
C1875 C1874 1.391 . S
C1875 C1879 1.376 . S
C1876 C1874 1.394 . S
C1876 C1877 1.369 . S
C1876 C1880 1.531 . S
C1877 C1876 1.369 . S
C1877 C1878 1.410 . S
C1877 C1885 1.503 . S
C1878 C1877 1.410 . S
C1878 C1879 1.392 . S
C1878 C1881 1.511 . S
C1879 C1875 1.376 . S
C1879 C1878 1.392 . S
C1879 H1891 0.929 . S
C1880 C1876 1.531 . S
C1880 H1892 0.960 . S
C1880 H1893 0.962 . S
C1880 H1894 0.960 . S
C1881 C1878 1.511 . S
C1881 H1895 0.961 . S
C1881 H1896 0.961 . S
C1881 H1897 0.961 . S
C1882 C1883 1.370 . S
C1882 C1884 1.363 . S
C1882 H1898 0.931 . S
C1883 C1882 1.370 . S
C1883 C1887 1.408 . S
C1884 C1882 1.363 . S
C1884 C1885 1.370 . S
C1884 C1888 1.524 . S
C1885 C1877 1.503 . S
C1885 C1884 1.370 . S
C1885 C1886 1.403 . S
C1886 C1885 1.403 . S
C1886 C1887 1.404 . S
C1886 C1889 1.539 . S
C1887 C1883 1.408 . S
C1887 C1886 1.404 . S
C1887 H1899 0.930 . S
C1888 C1884 1.524 . S
C1888 H1900 0.956 . S
C1888 H1901 0.961 . S
C1888 H1902 0.961 . S
C1889 C1886 1.539 . S
C1889 H1903 0.958 . S
C1889 H1904 0.961 . S
C1889 H1905 0.960 . S
H1890 C1874 0.931 . S
H1891 C1879 0.929 . S
H1892 C1880 0.960 . S
H1893 C1880 0.962 . S
H1894 C1880 0.960 . S
H1895 C1881 0.961 . S
H1896 C1881 0.961 . S
H1897 C1881 0.961 . S
H1898 C1882 0.931 . S
H1899 C1887 0.930 . S
H1900 C1888 0.956 . S
H1901 C1888 0.961 . S
H1902 C1888 0.961 . S
H1903 C1889 0.958 . S
H1904 C1889 0.961 . S
H1905 C1889 0.960 . S
C1906 C1907 1.391 . S
C1906 C1908 1.394 . S
C1906 H1922 0.931 . S
C1907 C1906 1.391 . S
C1907 C1911 1.376 . S
C1908 C1906 1.394 . S
C1908 C1909 1.369 . S
C1908 C1912 1.531 . S
C1909 C1908 1.369 . S
C1909 C1910 1.410 . S
C1909 C1917 1.503 . S
C1910 C1909 1.410 . S
C1910 C1911 1.392 . S
C1910 C1913 1.511 . S
C1911 C1907 1.376 . S
C1911 C1910 1.392 . S
C1911 H1923 0.929 . S
C1912 C1908 1.531 . S
C1912 H1924 0.960 . S
C1912 H1925 0.962 . S
C1912 H1926 0.960 . S
C1913 C1910 1.511 . S
C1913 H1927 0.961 . S
C1913 H1928 0.961 . S
C1913 H1929 0.961 . S
C1914 C1915 1.370 . S
C1914 C1916 1.363 . S
C1914 H1930 0.931 . S
C1915 C1914 1.370 . S
C1915 C1919 1.408 . S
C1916 C1914 1.363 . S
C1916 C1917 1.370 . S
C1916 C1920 1.524 . S
C1917 C1909 1.503 . S
C1917 C1916 1.370 . S
C1917 C1918 1.403 . S
C1918 C1917 1.403 . S
C1918 C1919 1.404 . S
C1918 C1921 1.539 . S
C1919 C1915 1.408 . S
C1919 C1918 1.404 . S
C1919 H1931 0.930 . S
C1920 C1916 1.524 . S
C1920 H1932 0.956 . S
C1920 H1933 0.961 . S
C1920 H1934 0.961 . S
C1921 C1918 1.539 . S
C1921 H1935 0.958 1_545 S
C1921 H1936 0.961 . S
C1921 H1937 0.960 . S
H1922 C1906 0.931 . S
H1923 C1911 0.929 . S
H1924 C1912 0.960 . S
H1925 C1912 0.962 . S
H1926 C1912 0.960 . S
H1927 C1913 0.961 . S
H1928 C1913 0.961 . S
H1929 C1913 0.961 . S
H1930 C1914 0.931 . S
H1931 C1919 0.930 . S
H1932 C1920 0.956 . S
H1933 C1920 0.961 . S
H1934 C1920 0.961 . S
H1935 C1921 0.958 1_565 S
H1936 C1921 0.961 . S
H1937 C1921 0.960 . S
C1938 C1939 1.391 . S
C1938 C1940 1.394 . S
C1938 H1954 0.931 . S
C1939 C1938 1.391 . S
C1939 C1943 1.376 . S
C1940 C1938 1.394 . S
C1940 C1941 1.369 . S
C1940 C1944 1.531 . S
C1941 C1940 1.369 . S
C1941 C1942 1.410 . S
C1941 C1949 1.503 . S
C1942 C1941 1.410 . S
C1942 C1943 1.392 . S
C1942 C1945 1.511 . S
C1943 C1939 1.376 . S
C1943 C1942 1.392 . S
C1943 H1955 0.929 . S
C1944 C1940 1.531 . S
C1944 H1956 0.960 . S
C1944 H1957 0.962 . S
C1944 H1958 0.960 . S
C1945 C1942 1.511 . S
C1945 H1959 0.961 . S
C1945 H1960 0.961 . S
C1945 H1961 0.961 . S
C1946 C1947 1.370 . S
C1946 C1948 1.363 . S
C1946 H1962 0.931 . S
C1947 C1946 1.370 . S
C1947 C1951 1.408 . S
C1948 C1946 1.363 . S
C1948 C1949 1.370 . S
C1948 C1952 1.524 . S
C1949 C1941 1.503 . S
C1949 C1948 1.370 . S
C1949 C1950 1.403 . S
C1950 C1949 1.403 . S
C1950 C1951 1.404 . S
C1950 C1953 1.539 . S
C1951 C1947 1.408 . S
C1951 C1950 1.404 . S
C1951 H1963 0.930 . S
C1952 C1948 1.524 . S
C1952 H1964 0.956 . S
C1952 H1965 0.961 . S
C1952 H1966 0.961 . S
C1953 C1950 1.539 . S
C1953 H1967 0.958 . S
C1953 H1968 0.961 . S
C1953 H1969 0.960 . S
H1954 C1938 0.931 . S
H1955 C1943 0.929 . S
H1956 C1944 0.960 . S
H1957 C1944 0.962 . S
H1958 C1944 0.960 . S
H1959 C1945 0.961 . S
H1960 C1945 0.961 . S
H1961 C1945 0.961 . S
H1962 C1946 0.931 . S
H1963 C1951 0.930 . S
H1964 C1952 0.956 . S
H1965 C1952 0.961 . S
H1966 C1952 0.961 . S
H1967 C1953 0.958 . S
H1968 C1953 0.961 . S
H1969 C1953 0.960 . S
C1970 C1971 1.391 . S
C1970 C1972 1.394 . S
C1970 H1986 0.931 . S
C1971 C1970 1.391 . S
C1971 C1975 1.376 . S
C1972 C1970 1.394 . S
C1972 C1973 1.369 . S
C1972 C1976 1.531 . S
C1973 C1972 1.369 . S
C1973 C1974 1.410 . S
C1973 C1981 1.503 . S
C1974 C1973 1.410 . S
C1974 C1975 1.392 . S
C1974 C1977 1.511 . S
C1975 C1971 1.376 . S
C1975 C1974 1.392 . S
C1975 H1987 0.929 . S
C1976 C1972 1.531 . S
C1976 H1988 0.960 . S
C1976 H1989 0.962 . S
C1976 H1990 0.960 . S
C1977 C1974 1.511 . S
C1977 H1991 0.961 . S
C1977 H1992 0.961 . S
C1977 H1993 0.961 . S
C1978 C1979 1.370 . S
C1978 C1980 1.363 . S
C1978 H1994 0.931 . S
C1979 C1978 1.370 . S
C1979 C1983 1.408 . S
C1980 C1978 1.363 . S
C1980 C1981 1.370 . S
C1980 C1984 1.524 . S
C1981 C1973 1.503 . S
C1981 C1980 1.370 . S
C1981 C1982 1.403 . S
C1982 C1981 1.403 . S
C1982 C1983 1.404 . S
C1982 C1985 1.539 . S
C1983 C1979 1.408 . S
C1983 C1982 1.404 . S
C1983 H1995 0.930 . S
C1984 C1980 1.524 . S
C1984 H1996 0.956 . S
C1984 H1997 0.961 . S
C1984 H1998 0.961 . S
C1985 C1982 1.539 . S
C1985 H1999 0.958 . S
C1985 H2000 0.961 . S
C1985 H2001 0.960 . S
H1986 C1970 0.931 . S
H1987 C1975 0.929 . S
H1988 C1976 0.960 . S
H1989 C1976 0.962 . S
H1990 C1976 0.960 . S
H1991 C1977 0.961 . S
H1992 C1977 0.961 . S
H1993 C1977 0.961 . S
H1994 C1978 0.931 . S
H1995 C1983 0.930 . S
H1996 C1984 0.956 . S
H1997 C1984 0.961 . S
H1998 C1984 0.961 . S
H1999 C1985 0.958 . S
H2000 C1985 0.961 . S
H2001 C1985 0.960 . S
C2002 C2003 1.391 . S
C2002 C2004 1.394 . S
C2002 H2018 0.931 . S
C2003 C2002 1.391 . S
C2003 C2007 1.376 . S
C2004 C2002 1.394 . S
C2004 C2005 1.369 . S
C2004 C2008 1.531 . S
C2005 C2004 1.369 . S
C2005 C2006 1.410 . S
C2005 C2013 1.503 . S
C2006 C2005 1.410 . S
C2006 C2007 1.392 . S
C2006 C2009 1.511 . S
C2007 C2003 1.376 . S
C2007 C2006 1.392 . S
C2007 H2019 0.929 . S
C2008 C2004 1.531 . S
C2008 H2020 0.960 . S
C2008 H2021 0.962 . S
C2008 H2022 0.960 . S
C2009 C2006 1.511 . S
C2009 H2023 0.961 . S
C2009 H2024 0.961 . S
C2009 H2025 0.961 . S
C2010 C2011 1.370 . S
C2010 C2012 1.363 . S
C2010 H2026 0.931 . S
C2011 C2010 1.370 . S
C2011 C2015 1.408 . S
C2012 C2010 1.363 . S
C2012 C2013 1.370 . S
C2012 C2016 1.524 . S
C2013 C2005 1.503 . S
C2013 C2012 1.370 . S
C2013 C2014 1.403 . S
C2014 C2013 1.403 . S
C2014 C2015 1.404 . S
C2014 C2017 1.539 . S
C2015 C2011 1.408 . S
C2015 C2014 1.404 . S
C2015 H2027 0.930 . S
C2016 C2012 1.524 . S
C2016 H2028 0.956 . S
C2016 H2029 0.961 . S
C2016 H2030 0.961 . S
C2017 C2014 1.539 . S
C2017 H2031 0.958 . S
C2017 H2032 0.961 . S
C2017 H2033 0.960 . S
H2018 C2002 0.931 . S
H2019 C2007 0.929 . S
H2020 C2008 0.960 . S
H2021 C2008 0.962 . S
H2022 C2008 0.960 . S
H2023 C2009 0.961 . S
H2024 C2009 0.961 . S
H2025 C2009 0.961 . S
H2026 C2010 0.931 . S
H2027 C2015 0.930 . S
H2028 C2016 0.956 . S
H2029 C2016 0.961 . S
H2030 C2016 0.961 . S
H2031 C2017 0.958 . S
H2032 C2017 0.961 . S
H2033 C2017 0.960 . S
C2034 C2035 1.391 . S
C2034 C2036 1.394 . S
C2034 H2050 0.931 . S
C2035 C2034 1.391 . S
C2035 C2039 1.376 . S
C2036 C2034 1.394 . S
C2036 C2037 1.369 . S
C2036 C2040 1.531 . S
C2037 C2036 1.369 . S
C2037 C2038 1.410 . S
C2037 C2045 1.503 . S
C2038 C2037 1.410 . S
C2038 C2039 1.392 . S
C2038 C2041 1.511 . S
C2039 C2035 1.376 . S
C2039 C2038 1.392 . S
C2039 H2051 0.929 . S
C2040 C2036 1.531 . S
C2040 H2052 0.960 . S
C2040 H2053 0.962 . S
C2040 H2054 0.960 . S
C2041 C2038 1.511 . S
C2041 H2055 0.961 . S
C2041 H2056 0.961 . S
C2041 H2057 0.961 . S
C2042 C2043 1.370 . S
C2042 C2044 1.363 . S
C2042 H2058 0.931 . S
C2043 C2042 1.370 . S
C2043 C2047 1.408 . S
C2044 C2042 1.363 . S
C2044 C2045 1.370 . S
C2044 C2048 1.524 . S
C2045 C2037 1.503 . S
C2045 C2044 1.370 . S
C2045 C2046 1.403 . S
C2046 C2045 1.403 . S
C2046 C2047 1.404 . S
C2046 C2049 1.539 . S
C2047 C2043 1.408 . S
C2047 C2046 1.404 . S
C2047 H2059 0.930 . S
C2048 C2044 1.524 . S
C2048 H2060 0.956 . S
C2048 H2061 0.961 . S
C2048 H2062 0.961 . S
C2049 C2046 1.539 . S
C2049 H2063 0.958 . S
C2049 H2064 0.961 . S
C2049 H2065 0.960 . S
H2050 C2034 0.931 . S
H2051 C2039 0.929 . S
H2052 C2040 0.960 . S
H2053 C2040 0.962 . S
H2054 C2040 0.960 . S
H2055 C2041 0.961 . S
H2056 C2041 0.961 . S
H2057 C2041 0.961 . S
H2058 C2042 0.931 . S
H2059 C2047 0.930 . S
H2060 C2048 0.956 . S
H2061 C2048 0.961 . S
H2062 C2048 0.961 . S
H2063 C2049 0.958 . S
H2064 C2049 0.961 . S
H2065 C2049 0.960 . S
C2066 C2067 1.391 . S
C2066 C2068 1.394 . S
C2066 H2082 0.931 . S
C2067 C2066 1.391 . S
C2067 C2071 1.376 . S
C2068 C2066 1.394 . S
C2068 C2069 1.369 . S
C2068 C2072 1.531 . S
C2069 C2068 1.369 . S
C2069 C2070 1.410 . S
C2069 C2077 1.503 . S
C2070 C2069 1.410 . S
C2070 C2071 1.392 . S
C2070 C2073 1.511 . S
C2071 C2067 1.376 . S
C2071 C2070 1.392 . S
C2071 H2083 0.929 . S
C2072 C2068 1.531 . S
C2072 H2084 0.960 . S
C2072 H2085 0.962 . S
C2072 H2086 0.960 . S
C2073 C2070 1.511 . S
C2073 H2087 0.961 . S
C2073 H2088 0.961 . S
C2073 H2089 0.961 . S
C2074 C2075 1.370 . S
C2074 C2076 1.363 . S
C2074 H2090 0.931 . S
C2075 C2074 1.370 . S
C2075 C2079 1.408 . S
C2076 C2074 1.363 . S
C2076 C2077 1.370 . S
C2076 C2080 1.524 . S
C2077 C2069 1.503 . S
C2077 C2076 1.370 . S
C2077 C2078 1.403 . S
C2078 C2077 1.403 . S
C2078 C2079 1.404 . S
C2078 C2081 1.539 . S
C2079 C2075 1.408 . S
C2079 C2078 1.404 . S
C2079 H2091 0.930 . S
C2080 C2076 1.524 . S
C2080 H2092 0.956 . S
C2080 H2093 0.961 . S
C2080 H2094 0.961 . S
C2081 C2078 1.539 . S
C2081 H2095 0.958 . S
C2081 H2096 0.961 . S
C2081 H2097 0.960 . S
H2082 C2066 0.931 . S
H2083 C2071 0.929 . S
H2084 C2072 0.960 . S
H2085 C2072 0.962 . S
H2086 C2072 0.960 . S
H2087 C2073 0.961 . S
H2088 C2073 0.961 . S
H2089 C2073 0.961 . S
H2090 C2074 0.931 . S
H2091 C2079 0.930 . S
H2092 C2080 0.956 . S
H2093 C2080 0.961 . S
H2094 C2080 0.961 . S
H2095 C2081 0.958 . S
H2096 C2081 0.961 . S
H2097 C2081 0.960 . S
C2098 C2099 1.391 . S
C2098 C2100 1.394 . S
C2098 H2114 0.931 . S
C2099 C2098 1.391 . S
C2099 C2103 1.376 . S
C2100 C2098 1.394 . S
C2100 C2101 1.369 . S
C2100 C2104 1.531 . S
C2101 C2100 1.369 . S
C2101 C2102 1.410 . S
C2101 C2109 1.503 . S
C2102 C2101 1.410 . S
C2102 C2103 1.392 . S
C2102 C2105 1.511 . S
C2103 C2099 1.376 . S
C2103 C2102 1.392 . S
C2103 H2115 0.929 . S
C2104 C2100 1.531 . S
C2104 H2116 0.960 . S
C2104 H2117 0.962 . S
C2104 H2118 0.960 . S
C2105 C2102 1.511 . S
C2105 H2119 0.961 . S
C2105 H2120 0.961 . S
C2105 H2121 0.961 . S
C2106 C2107 1.370 . S
C2106 C2108 1.363 . S
C2106 H2122 0.931 . S
C2107 C2106 1.370 . S
C2107 C2111 1.408 . S
C2108 C2106 1.363 . S
C2108 C2109 1.370 . S
C2108 C2112 1.524 . S
C2109 C2101 1.503 . S
C2109 C2108 1.370 . S
C2109 C2110 1.403 . S
C2110 C2109 1.403 . S
C2110 C2111 1.404 . S
C2110 C2113 1.539 . S
C2111 C2107 1.408 . S
C2111 C2110 1.404 . S
C2111 H2123 0.930 . S
C2112 C2108 1.524 . S
C2112 H2124 0.956 . S
C2112 H2125 0.961 . S
C2112 H2126 0.961 . S
C2113 C2110 1.539 . S
C2113 H2127 0.958 . S
C2113 H2128 0.961 . S
C2113 H2129 0.960 . S
H2114 C2098 0.931 . S
H2115 C2103 0.929 . S
H2116 C2104 0.960 . S
H2117 C2104 0.962 . S
H2118 C2104 0.960 . S
H2119 C2105 0.961 . S
H2120 C2105 0.961 . S
H2121 C2105 0.961 . S
H2122 C2106 0.931 . S
H2123 C2111 0.930 . S
H2124 C2112 0.956 . S
H2125 C2112 0.961 . S
H2126 C2112 0.961 . S
H2127 C2113 0.958 . S
H2128 C2113 0.961 . S
H2129 C2113 0.960 . S
C2130 C2131 1.391 . S
C2130 C2132 1.394 . S
C2130 H2146 0.931 . S
C2131 C2130 1.391 . S
C2131 C2135 1.376 . S
C2132 C2130 1.394 . S
C2132 C2133 1.369 . S
C2132 C2136 1.531 . S
C2133 C2132 1.369 . S
C2133 C2134 1.410 . S
C2133 C2141 1.503 . S
C2134 C2133 1.410 . S
C2134 C2135 1.392 . S
C2134 C2137 1.511 . S
C2135 C2131 1.376 . S
C2135 C2134 1.392 . S
C2135 H2147 0.929 . S
C2136 C2132 1.531 . S
C2136 H2148 0.960 . S
C2136 H2149 0.962 . S
C2136 H2150 0.960 . S
C2137 C2134 1.511 . S
C2137 H2151 0.961 . S
C2137 H2152 0.961 . S
C2137 H2153 0.961 . S
C2138 C2139 1.370 . S
C2138 C2140 1.363 . S
C2138 H2154 0.931 . S
C2139 C2138 1.370 . S
C2139 C2143 1.408 . S
C2140 C2138 1.363 . S
C2140 C2141 1.370 . S
C2140 C2144 1.524 . S
C2141 C2133 1.503 . S
C2141 C2140 1.370 . S
C2141 C2142 1.403 . S
C2142 C2141 1.403 . S
C2142 C2143 1.404 . S
C2142 C2145 1.539 . S
C2143 C2139 1.408 . S
C2143 C2142 1.404 . S
C2143 H2155 0.930 . S
C2144 C2140 1.524 . S
C2144 H2156 0.956 . S
C2144 H2157 0.961 . S
C2144 H2158 0.961 . S
C2145 C2142 1.539 . S
C2145 H2159 0.958 . S
C2145 H2160 0.961 . S
C2145 H2161 0.960 . S
H2146 C2130 0.931 . S
H2147 C2135 0.929 . S
H2148 C2136 0.960 . S
H2149 C2136 0.962 . S
H2150 C2136 0.960 . S
H2151 C2137 0.961 . S
H2152 C2137 0.961 . S
H2153 C2137 0.961 . S
H2154 C2138 0.931 . S
H2155 C2143 0.930 . S
H2156 C2144 0.956 . S
H2157 C2144 0.961 . S
H2158 C2144 0.961 . S
H2159 C2145 0.958 . S
H2160 C2145 0.961 . S
H2161 C2145 0.960 . S
C2162 C2163 1.391 . S
C2162 C2164 1.394 . S
C2162 H2178 0.931 . S
C2163 C2162 1.391 . S
C2163 C2167 1.376 . S
C2164 C2162 1.394 . S
C2164 C2165 1.369 . S
C2164 C2168 1.531 . S
C2165 C2164 1.369 . S
C2165 C2166 1.410 . S
C2165 C2173 1.503 . S
C2166 C2165 1.410 . S
C2166 C2167 1.392 . S
C2166 C2169 1.511 . S
C2167 C2163 1.376 . S
C2167 C2166 1.392 . S
C2167 H2179 0.929 . S
C2168 C2164 1.531 . S
C2168 H2180 0.960 . S
C2168 H2181 0.962 . S
C2168 H2182 0.960 . S
C2169 C2166 1.511 . S
C2169 H2183 0.961 . S
C2169 H2184 0.961 . S
C2169 H2185 0.961 . S
C2170 C2171 1.370 . S
C2170 C2172 1.363 . S
C2170 H2186 0.931 . S
C2171 C2170 1.370 . S
C2171 C2175 1.408 . S
C2172 C2170 1.363 . S
C2172 C2173 1.370 . S
C2172 C2176 1.524 . S
C2173 C2165 1.503 . S
C2173 C2172 1.370 . S
C2173 C2174 1.403 . S
C2174 C2173 1.403 . S
C2174 C2175 1.404 . S
C2174 C2177 1.539 . S
C2175 C2171 1.408 . S
C2175 C2174 1.404 . S
C2175 H2187 0.930 . S
C2176 C2172 1.524 . S
C2176 H2188 0.956 . S
C2176 H2189 0.961 . S
C2176 H2190 0.961 . S
C2177 C2174 1.539 . S
C2177 H2191 0.958 . S
C2177 H2192 0.961 . S
C2177 H2193 0.960 . S
H2178 C2162 0.931 . S
H2179 C2167 0.929 . S
H2180 C2168 0.960 . S
H2181 C2168 0.962 . S
H2182 C2168 0.960 . S
H2183 C2169 0.961 . S
H2184 C2169 0.961 . S
H2185 C2169 0.961 . S
H2186 C2170 0.931 . S
H2187 C2175 0.930 . S
H2188 C2176 0.956 . S
H2189 C2176 0.961 . S
H2190 C2176 0.961 . S
H2191 C2177 0.958 . S
H2192 C2177 0.961 . S
H2193 C2177 0.960 . S
C2194 C2195 1.391 . S
C2194 C2196 1.394 . S
C2194 H2210 0.931 . S
C2195 C2194 1.391 . S
C2195 C2199 1.376 . S
C2196 C2194 1.394 . S
C2196 C2197 1.369 . S
C2196 C2200 1.531 . S
C2197 C2196 1.369 . S
C2197 C2198 1.410 . S
C2197 C2205 1.503 . S
C2198 C2197 1.410 . S
C2198 C2199 1.392 . S
C2198 C2201 1.511 . S
C2199 C2195 1.376 . S
C2199 C2198 1.392 . S
C2199 H2211 0.929 . S
C2200 C2196 1.531 . S
C2200 H2212 0.960 . S
C2200 H2213 0.962 . S
C2200 H2214 0.960 . S
C2201 C2198 1.511 . S
C2201 H2215 0.961 . S
C2201 H2216 0.961 . S
C2201 H2217 0.961 . S
C2202 C2203 1.370 . S
C2202 C2204 1.363 . S
C2202 H2218 0.931 . S
C2203 C2202 1.370 . S
C2203 C2207 1.408 . S
C2204 C2202 1.363 . S
C2204 C2205 1.370 . S
C2204 C2208 1.524 . S
C2205 C2197 1.503 . S
C2205 C2204 1.370 . S
C2205 C2206 1.403 . S
C2206 C2205 1.403 . S
C2206 C2207 1.404 . S
C2206 C2209 1.539 . S
C2207 C2203 1.408 . S
C2207 C2206 1.404 . S
C2207 H2219 0.930 . S
C2208 C2204 1.524 . S
C2208 H2220 0.956 . S
C2208 H2221 0.961 . S
C2208 H2222 0.961 . S
C2209 C2206 1.539 . S
C2209 H2223 0.958 . S
C2209 H2224 0.961 . S
C2209 H2225 0.960 . S
H2210 C2194 0.931 . S
H2211 C2199 0.929 . S
H2212 C2200 0.960 . S
H2213 C2200 0.962 . S
H2214 C2200 0.960 . S
H2215 C2201 0.961 . S
H2216 C2201 0.961 . S
H2217 C2201 0.961 . S
H2218 C2202 0.931 . S
H2219 C2207 0.930 . S
H2220 C2208 0.956 . S
H2221 C2208 0.961 . S
H2222 C2208 0.961 . S
H2223 C2209 0.958 . S
H2224 C2209 0.961 . S
H2225 C2209 0.960 . S
C2226 C2227 1.391 . S
C2226 C2228 1.394 . S
C2226 H2242 0.931 . S
C2227 C2226 1.391 . S
C2227 C2231 1.376 . S
C2228 C2226 1.394 . S
C2228 C2229 1.369 . S
C2228 C2232 1.531 . S
C2229 C2228 1.369 . S
C2229 C2230 1.410 . S
C2229 C2237 1.503 . S
C2230 C2229 1.410 . S
C2230 C2231 1.392 . S
C2230 C2233 1.511 . S
C2231 C2227 1.376 . S
C2231 C2230 1.392 . S
C2231 H2243 0.929 . S
C2232 C2228 1.531 . S
C2232 H2244 0.960 . S
C2232 H2245 0.962 . S
C2232 H2246 0.960 . S
C2233 C2230 1.511 . S
C2233 H2247 0.961 . S
C2233 H2248 0.961 . S
C2233 H2249 0.961 . S
C2234 C2235 1.370 . S
C2234 C2236 1.363 . S
C2234 H2250 0.931 . S
C2235 C2234 1.370 . S
C2235 C2239 1.408 . S
C2236 C2234 1.363 . S
C2236 C2237 1.370 . S
C2236 C2240 1.524 . S
C2237 C2229 1.503 . S
C2237 C2236 1.370 . S
C2237 C2238 1.403 . S
C2238 C2237 1.403 . S
C2238 C2239 1.404 . S
C2238 C2241 1.539 . S
C2239 C2235 1.408 . S
C2239 C2238 1.404 . S
C2239 H2251 0.930 . S
C2240 C2236 1.524 . S
C2240 H2252 0.956 . S
C2240 H2253 0.961 . S
C2240 H2254 0.961 . S
C2241 C2238 1.539 . S
C2241 H2255 0.958 . S
C2241 H2256 0.961 . S
C2241 H2257 0.960 . S
H2242 C2226 0.931 . S
H2243 C2231 0.929 . S
H2244 C2232 0.960 . S
H2245 C2232 0.962 . S
H2246 C2232 0.960 . S
H2247 C2233 0.961 . S
H2248 C2233 0.961 . S
H2249 C2233 0.961 . S
H2250 C2234 0.931 . S
H2251 C2239 0.930 . S
H2252 C2240 0.956 . S
H2253 C2240 0.961 . S
H2254 C2240 0.961 . S
H2255 C2241 0.958 . S
H2256 C2241 0.961 . S
H2257 C2241 0.960 . S
C2258 C2259 1.391 . S
C2258 C2260 1.394 . S
C2258 H2274 0.931 . S
C2259 C2258 1.391 . S
C2259 C2263 1.376 . S
C2260 C2258 1.394 . S
C2260 C2261 1.369 . S
C2260 C2264 1.531 . S
C2261 C2260 1.369 . S
C2261 C2262 1.410 . S
C2261 C2269 1.503 . S
C2262 C2261 1.410 . S
C2262 C2263 1.392 . S
C2262 C2265 1.511 . S
C2263 C2259 1.376 . S
C2263 C2262 1.392 . S
C2263 H2275 0.929 . S
C2264 C2260 1.531 . S
C2264 H2276 0.960 . S
C2264 H2277 0.962 . S
C2264 H2278 0.960 . S
C2265 C2262 1.511 . S
C2265 H2279 0.961 . S
C2265 H2280 0.961 . S
C2265 H2281 0.961 . S
C2266 C2267 1.370 . S
C2266 C2268 1.363 . S
C2266 H2282 0.931 . S
C2267 C2266 1.370 . S
C2267 C2271 1.408 . S
C2268 C2266 1.363 . S
C2268 C2269 1.370 . S
C2268 C2272 1.524 . S
C2269 C2261 1.503 . S
C2269 C2268 1.370 . S
C2269 C2270 1.403 . S
C2270 C2269 1.403 . S
C2270 C2271 1.404 . S
C2270 C2273 1.539 . S
C2271 C2267 1.408 . S
C2271 C2270 1.404 . S
C2271 H2283 0.930 . S
C2272 C2268 1.524 . S
C2272 H2284 0.956 . S
C2272 H2285 0.961 . S
C2272 H2286 0.961 . S
C2273 C2270 1.539 . S
C2273 H2287 0.958 . S
C2273 H2288 0.961 . S
C2273 H2289 0.960 . S
H2274 C2258 0.931 . S
H2275 C2263 0.929 . S
H2276 C2264 0.960 . S
H2277 C2264 0.962 . S
H2278 C2264 0.960 . S
H2279 C2265 0.961 . S
H2280 C2265 0.961 . S
H2281 C2265 0.961 . S
H2282 C2266 0.931 . S
H2283 C2271 0.930 . S
H2284 C2272 0.956 . S
H2285 C2272 0.961 . S
H2286 C2272 0.961 . S
H2287 C2273 0.958 . S
H2288 C2273 0.961 . S
H2289 C2273 0.960 . S
C2290 C2291 1.391 . S
C2290 C2292 1.394 . S
C2290 H2306 0.931 . S
C2291 C2290 1.391 . S
C2291 C2295 1.376 . S
C2292 C2290 1.394 . S
C2292 C2293 1.369 . S
C2292 C2296 1.531 . S
C2293 C2292 1.369 . S
C2293 C2294 1.410 . S
C2293 C2301 1.503 . S
C2294 C2293 1.410 . S
C2294 C2295 1.392 . S
C2294 C2297 1.511 . S
C2295 C2291 1.376 . S
C2295 C2294 1.392 . S
C2295 H2307 0.929 . S
C2296 C2292 1.531 . S
C2296 H2308 0.960 . S
C2296 H2309 0.962 . S
C2296 H2310 0.960 . S
C2297 C2294 1.511 . S
C2297 H2311 0.961 . S
C2297 H2312 0.961 . S
C2297 H2313 0.961 . S
C2298 C2299 1.370 . S
C2298 C2300 1.363 . S
C2298 H2314 0.931 . S
C2299 C2298 1.370 . S
C2299 C2303 1.408 . S
C2300 C2298 1.363 . S
C2300 C2301 1.370 . S
C2300 C2304 1.524 . S
C2301 C2293 1.503 . S
C2301 C2300 1.370 . S
C2301 C2302 1.403 . S
C2302 C2301 1.403 . S
C2302 C2303 1.404 . S
C2302 C2305 1.539 . S
C2303 C2299 1.408 . S
C2303 C2302 1.404 . S
C2303 H2315 0.930 . S
C2304 C2300 1.524 . S
C2304 H2316 0.956 . S
C2304 H2317 0.961 . S
C2304 H2318 0.961 . S
C2305 C2302 1.539 . S
C2305 H2319 0.958 . S
C2305 H2320 0.961 . S
C2305 H2321 0.960 . S
H2306 C2290 0.931 . S
H2307 C2295 0.929 . S
H2308 C2296 0.960 . S
H2309 C2296 0.962 . S
H2310 C2296 0.960 . S
H2311 C2297 0.961 . S
H2312 C2297 0.961 . S
H2313 C2297 0.961 . S
H2314 C2298 0.931 . S
H2315 C2303 0.930 . S
H2316 C2304 0.956 . S
H2317 C2304 0.961 . S
H2318 C2304 0.961 . S
H2319 C2305 0.958 . S
H2320 C2305 0.961 . S
H2321 C2305 0.960 . S
C595 C177 1.658 . S
C603 C246 1.680 . S
C627 C190 1.795 . S
C635 C286 1.793 . S
C659 C164 1.573 . S
C667 C316 1.589 . S
C691 C151 1.490 . S
C699 C276 1.448 1_556 S
C731 C326 1.505 . S
C723 C125 1.505 . S
C755 C138 1.375 . S
C763 C236 1.330 1_556 S
C795 C265 1.672 . S
C787 C147 1.606 . S
C827 C305 1.675 . S
C819 C121 1.644 . S
C851 C134 1.580 . S
C859 C331 1.682 . S
C883 C173 1.500 . S
C891 C291 1.500 . S
C915 C186 1.456 . S
C923 C345 1.465 . S
C955 C251 1.476 . S
C947 C160 1.400 . S
C987 C366 1.679 . S
C979 C21 1.655 . S
C1011 C34 1.788 . S
C1019 C406 1.789 . S
C1043 C8 1.573 . S
C1051 C436 1.589 . S
C1075 C229 1.491 . S
C1083 C396 1.454 . S
C1107 C203 1.497 . S
C1115 C446 1.502 . S
C1139 C216 1.375 . S
C1147 C356 1.350 . S
C1171 C225 1.653 . S
C1179 C385 1.669 . S
C1203 C199 1.584 . S
C1211 C425 1.677 . S
C1243 C451 1.680 . S
C1235 C212 1.581 . S
C1267 C17 1.433 . S
C1275 C411 1.514 . S
C1307 C465 1.465 . S
C1299 C30 1.456 . S
C1331 C4 1.450 . S
C1339 C371 1.473 . S
C1371 C486 1.680 . S
C1363 C99 1.652 . S
C1395 C112 1.790 . S
C1403 C526 1.789 . S
C1435 C556 1.589 . S
C1427 C86 1.573 . S
C1467 C516 1.454 . S
C1459 C73 1.490 . S
C1499 C566 1.502 . S
C1491 C47 1.498 . S
C1523 C60 1.361 . S
C1531 C476 1.344 . S
C1555 C69 1.609 . S
C1563 C505 1.668 . S
C1587 C43 1.590 . S
C1595 C545 1.675 . S
C1627 C571 1.668 . S
C1619 C56 1.647 . S
C1651 C95 1.432 . S
C1659 C531 1.518 . S
C1683 C108 1.430 . S
C1691 C585 1.467 . S
C1715 C82 1.463 . S
C1723 C491 1.463 . S
C1747 C204 1.506 . S
C1755 C263 1.454 . S
C1787 C303 1.909 . S
C1779 C217 1.930 . S
C1811 C230 1.545 . S
C1819 C322 1.570 . S
C1843 C87 1.762 . S
C1851 C282 1.784 . S
C1875 C100 1.674 . S
C1883 C343 1.660 . S
C1915 C242 1.309 . S
C1907 C113 1.309 . S
C1939 C48 1.474 . S
C1947 C383 1.472 . S
C1971 C61 1.946 . S
C1979 C423 1.899 . S
C2003 C74 1.540 . S
C2011 C442 1.572 . S
C2035 C165 1.783 . S
C2043 C402 1.780 . S
C2075 C463 1.651 . S
C2067 C178 1.689 . S
C2099 C191 1.308 . S
C2107 C362 1.309 . S
C2131 C126 1.492 . S
C2139 C503 1.460 . S
C2163 C139 1.934 . S
C2171 C543 1.905 . S
C2203 C562 1.570 . S
C2195 C152 1.573 . S
C2227 C9 1.757 . S
C2235 C522 1.780 . S
C2259 C22 1.670 . S
C2267 C583 1.664 . S
C2291 C35 1.308 . S
C2299 C482 1.309 . S
