# Generated by pormake.
# Topology anh, (6,3)-cn, num edge types: 1
# Building blocks:
#     Node 0, Type 0, BuildingBlock: VOLQOD_clean_sbu_1, # of connection points: 6
#     Node 1, Type 0, BuildingBlock: VOLQOD_clean_sbu_1, # of connection points: 6
#     Node 2, Type 0, BuildingBlock: VOLQOD_clean_sbu_1, # of connection points: 6
#     Node 3, Type 1, BuildingBlock: MIDCAF_clean_linker_0, # of connection points: 3
#     Node 4, Type 1, BuildingBlock: MIDCAF_clean_linker_0, # of connection points: 3
#     Node 5, Type 1, BuildingBlock: MIDCAF_clean_linker_0, # of connection points: 3
#     Node 6, Type 1, BuildingBlock: MIDCAF_clean_linker_0, # of connection points: 3
#     Node 7, Type 1, BuildingBlock: MIDCAF_clean_linker_0, # of connection points: 3
#     Node 8, Type 1, BuildingBlock: MIDCAF_clean_linker_0, # of connection points: 3
#     Edge 9, Type (0, 1), BuildingBlock: UVAHIK_clean_linker_0, # of connection points: 2
#     Edge 10, Type (0, 1), BuildingBlock: UVAHIK_clean_linker_0, # of connection points: 2
#     Edge 11, Type (0, 1), BuildingBlock: UVAHIK_clean_linker_0, # of connection points: 2
#     Edge 12, Type (0, 1), BuildingBlock: UVAHIK_clean_linker_0, # of connection points: 2
#     Edge 13, Type (0, 1), BuildingBlock: UVAHIK_clean_linker_0, # of connection points: 2
#     Edge 14, Type (0, 1), BuildingBlock: UVAHIK_clean_linker_0, # of connection points: 2
#     Edge 15, Type (0, 1), BuildingBlock: UVAHIK_clean_linker_0, # of connection points: 2
#     Edge 16, Type (0, 1), BuildingBlock: UVAHIK_clean_linker_0, # of connection points: 2
#     Edge 17, Type (0, 1), BuildingBlock: UVAHIK_clean_linker_0, # of connection points: 2
#     Edge 18, Type (0, 1), BuildingBlock: UVAHIK_clean_linker_0, # of connection points: 2
#     Edge 19, Type (0, 1), BuildingBlock: UVAHIK_clean_linker_0, # of connection points: 2
#     Edge 20, Type (0, 1), BuildingBlock: UVAHIK_clean_linker_0, # of connection points: 2
#     Edge 21, Type (0, 1), BuildingBlock: UVAHIK_clean_linker_0, # of connection points: 2
#     Edge 22, Type (0, 1), BuildingBlock: UVAHIK_clean_linker_0, # of connection points: 2
#     Edge 23, Type (0, 1), BuildingBlock: UVAHIK_clean_linker_0, # of connection points: 2
#     Edge 24, Type (0, 1), BuildingBlock: UVAHIK_clean_linker_0, # of connection points: 2
#     Edge 25, Type (0, 1), BuildingBlock: UVAHIK_clean_linker_0, # of connection points: 2
#     Edge 26, Type (0, 1), BuildingBlock: UVAHIK_clean_linker_0, # of connection points: 2
# Relax obj value: 0.167
# Max RMSD: 0.230
# Mean RMSD: 0.115
data_MOF--net-anh--node1-VOLQOD_clean_sbu_1--node2-MIDCAF_clean_linker_0--edge1-UVAHIK_clean_linker_0
_symmetry_space_group_name_H-M    P1
_symmetry_Int_Tables_number       1
_symmetry_cell_setting            triclinic
loop_
_symmetry_equiv_pos_as_xyz
'x, y, z'
_cell_length_a     42.504394
_cell_length_b     42.547242
_cell_length_c     91.388817
_cell_angle_alpha  90.036387
_cell_angle_beta   89.796195
_cell_angle_gamma 120.12943
loop_
_atom_site_label
_atom_site_type_symbol
_atom_site_fract_x
_atom_site_fract_y
_atom_site_fract_z
_atom_type_partial_charge
O0 O -0.00403 0.54029 0.18891 0.0
Zn1 Zn -0.00351 0.55351 0.16765 0.0
O2 O -0.00058 0.51847 0.15459 0.0
Zn3 Zn 0.95696 0.49608 0.14182 0.0
Zn4 Zn 0.00084 0.48101 0.16634 0.0
Zn5 Zn 0.04344 0.54284 0.14262 0.0
O6 O 0.97145 0.5036 0.12056 0.0
O7 O 0.03163 0.53751 0.12116 0.0
O8 O 0.95135 0.55633 0.16387 0.0
O9 O 0.92552 0.51806 0.14536 0.0
O10 O 0.92627 0.44212 0.1455 0.0
O11 O 0.95805 0.43209 0.16217 0.0
O12 O 0.04569 0.47817 0.16245 0.0
O13 O 0.03953 0.60346 0.16459 0.0
O14 O 0.07552 0.52133 0.14591 0.0
O15 O 0.07233 0.59606 0.14741 0.0
C16 C -0.00256 0.51431 0.19515 0.0
C17 C 0.00202 0.52086 0.11403 0.0
C18 C 0.93056 0.42057 0.15382 0.0
C19 C 0.9261 0.54102 0.15446 0.0
C20 C 0.07293 0.49587 0.15405 0.0
C21 C 0.06738 0.61628 0.15628 0.0
O22 O -0.00047 0.4901 0.18774 0.0
O23 O 0.453 0.00913 0.46357 0.0
Zn24 Zn 0.43892 0.00744 0.48487 0.0
O25 O 0.47083 -0.00177 0.49759 0.0
Zn26 Zn 0.49558 0.03762 0.51152 0.0
Zn27 Zn 0.50693 -0.00592 0.48583 0.0
Zn28 Zn 0.44245 0.95357 0.50859 0.0
O29 O 0.48857 0.02013 0.5323 0.0
O30 O 0.44946 0.96115 0.53025 0.0
O31 O 0.44134 0.05506 0.49019 0.0
O32 O 0.4761 0.07128 0.5101 0.0
O33 O 0.54929 0.06664 0.5074 0.0
O34 O 0.55736 0.03491 0.49002 0.0
O35 O 0.50552 0.94665 0.48922 0.0
O36 O 0.38651 0.9668 0.48698 0.0
O37 O 0.45733 0.91703 0.50366 0.0
O38 O 0.38969 0.93176 0.50427 0.0
C39 C 0.47678 0.00394 0.45723 0.0
C40 C 0.46902 0.98896 0.53805 0.0
C41 C 0.57 0.06196 0.49867 0.0
C42 C 0.45621 0.07608 0.50108 0.0
C43 C 0.48336 0.91823 0.49629 0.0
C44 C 0.3713 0.93919 0.49541 0.0
O45 O 0.49827 -0.00266 0.46452 0.0
O46 O 0.49776 0.50182 0.808 0.0
Zn47 Zn 0.48363 0.48127 0.82834 0.0
O48 O 0.51669 0.51502 0.84303 0.0
Zn49 Zn 0.48839 0.5241 0.85744 0.0
Zn50 Zn 0.55182 0.56027 0.83334 0.0
Zn51 Zn 0.54256 0.49441 0.85312 0.0
O52 O 0.49487 0.51083 0.87784 0.0
O53 O 0.53077 0.48753 0.87463 0.0
O54 O 0.43145 0.46765 0.83188 0.0
O55 O 0.43514 0.495 0.85299 0.0
O56 O 0.5012 0.57616 0.85685 0.0
O57 O 0.54311 0.60082 0.83935 0.0
O58 O 0.60337 0.57418 0.83819 0.0
O59 O 0.4861 0.43556 0.82862 0.0
O60 O 0.59659 0.52723 0.85131 0.0
O61 O 0.52891 0.44547 0.84485 0.0
C62 C 0.52426 0.53105 0.80294 0.0
C63 C 0.5119 0.49577 0.88292 0.0
C64 C 0.52256 0.60323 0.84894 0.0
C65 C 0.41642 0.47465 0.84247 0.0
C66 C 0.6168 0.55796 0.84527 0.0
C67 C 0.50548 0.42527 0.8354 0.0
O68 O 0.54748 0.55541 0.81138 0.0
C69 C 0.38408 0.91649 0.22122 0.0
C70 C 0.38513 0.91709 0.20585 0.0
C71 C 0.41892 0.93623 0.19871 0.0
C72 C 0.45102 0.95443 0.20678 0.0
H73 H 0.56064 0.01838 0.20221 0.0
H74 H 0.61491 0.06363 0.18945 0.0
H75 H 0.66735 0.1073 0.23088 0.0
H76 H 0.6129 0.06239 0.24375 0.0
H77 H 0.56912 0.02894 0.2731 0.0
H78 H 0.56471 0.03185 0.2996 0.0
H79 H 0.44867 0.95866 0.29733 0.0
H80 H 0.45277 0.95604 0.27088 0.0
H81 H 0.41421 0.93342 0.24112 0.0
H82 H 0.35849 0.90141 0.22704 0.0
H83 H 0.42054 0.93733 0.18687 0.0
H84 H 0.4766 0.96902 0.20091 0.0
N85 N 0.51638 -0.00636 0.22391 0.0
N86 N 0.54573 0.01223 0.24657 0.0
N87 N 0.48267 0.9729 0.24561 0.0
C88 C 0.54743 0.01301 0.23171 0.0
C89 C 0.51343 0.99206 0.25361 0.0
C90 C 0.4839 0.9735 0.23077 0.0
C91 C 0.58212 0.03709 0.22403 0.0
C92 C 0.58384 0.03729 0.20865 0.0
C93 C 0.61507 0.06306 0.2013 0.0
C94 C 0.64519 0.08921 0.20917 0.0
C95 C 0.64427 0.08777 0.22454 0.0
C96 C 0.61309 0.06193 0.2319 0.0
C97 C 0.51129 0.99241 0.2698 0.0
C98 C 0.54266 0.01333 0.27823 0.0
C99 C 0.54019 0.0149 0.29344 0.0
C100 C 0.50631 -0.00434 0.30054 0.0
C101 C 0.47508 0.97426 0.29215 0.0
C102 C 0.47752 0.97262 0.27697 0.0
C103 C 0.44999 0.95377 0.22217 0.0
C104 C 0.41612 0.93459 0.22929 0.0
C105 C 0.56156 0.42931 0.56922 0.0
C106 C 0.55412 0.42577 0.55415 0.0
C107 C 0.55625 0.45529 0.54645 0.0
C108 C 0.56451 0.48732 0.55374 0.0
H109 H 0.58595 0.59123 0.54674 0.0
H110 H 0.57721 0.63449 0.53241 0.0
H111 H 0.55372 0.67457 0.57195 0.0
H112 H 0.56221 0.63121 0.58638 0.0
H113 H 0.55358 0.5889 0.61629 0.0
H114 H 0.54928 0.58776 0.64279 0.0
H115 H 0.59656 0.51845 0.64468 0.0
H116 H 0.59896 0.51809 0.61805 0.0
H117 H 0.57418 0.46277 0.58826 0.0
H118 H 0.55989 0.40686 0.57545 0.0
H119 H 0.55113 0.45346 0.53478 0.0
H120 H 0.56517 0.50922 0.54746 0.0
N121 N 0.57546 0.55046 0.56924 0.0
N122 N 0.57715 0.57999 0.59108 0.0
N123 N 0.57634 0.52442 0.5917 0.0
C124 C 0.57656 0.57909 0.57623 0.0
C125 C 0.57736 0.55292 0.59889 0.0
C126 C 0.57527 0.523 0.57683 0.0
C127 C 0.57449 0.60754 0.56771 0.0
C128 C 0.57918 0.60941 0.55243 0.0
C129 C 0.5744 0.63432 0.5442 0.0
C130 C 0.56455 0.65764 0.55107 0.0
C131 C 0.56088 0.65654 0.56638 0.0
C132 C 0.56597 0.63186 0.57463 0.0
C133 C 0.57655 0.55352 0.61507 0.0
C134 C 0.56321 0.57353 0.62237 0.0
C135 C 0.56096 0.57304 0.63762 0.0
C136 C 0.57263 0.55307 0.64599 0.0
C137 C 0.58663 0.53358 0.63865 0.0
C138 C 0.58825 0.53354 0.62336 0.0
C139 C 0.57053 0.49046 0.56895 0.0
C140 C 0.5696 0.46131 0.57656 0.0
C141 C 0.96082 0.60064 0.88087 0.0
C142 C 0.95586 0.59788 0.86563 0.0
C143 C 0.97064 0.58037 0.85743 0.0
C144 C 0.98864 0.56464 0.8644 0.0
H145 H 0.05202 0.51616 0.85753 0.0
H146 H 0.08383 0.49029 0.84443 0.0
H147 H 0.09003 0.43943 0.88435 0.0
H148 H 0.058 0.46471 0.89742 0.0
H149 H 0.05188 0.49899 0.92782 0.0
H150 H 0.0489 0.49596 0.95449 0.0
H151 H 0.98073 0.54442 0.95447 0.0
H152 H 0.98334 0.54728 0.92788 0.0
H153 H 0.98102 0.58682 0.89963 0.0
H154 H 0.94933 0.61342 0.88757 0.0
H155 H 0.96754 0.57809 0.84565 0.0
H156 H -0.00115 0.55051 0.85781 0.0
N157 N 0.02261 0.52955 0.87977 0.0
N158 N 0.03445 0.50887 0.90173 0.0
N159 N 0.00641 0.54417 0.90222 0.0
C160 C 0.03599 0.51069 0.88687 0.0
C161 C 0.01967 0.52553 0.90948 0.0
C162 C 0.0078 0.54641 0.8874 0.0
C163 C 0.05278 0.49288 0.87858 0.0
C164 C 0.05977 0.49911 0.86349 0.0
C165 C 0.07805 0.48436 0.85597 0.0
C166 C 0.08945 0.46287 0.86335 0.0
C167 C 0.08118 0.45548 0.8783 0.0
C168 C 0.06312 0.47034 0.88583 0.0
C169 C 0.01787 0.5234 0.92567 0.0
C170 C 0.03617 0.50893 0.93348 0.0
C171 C 0.03465 0.50735 0.94876 0.0
C172 C 0.01455 0.51991 0.95654 0.0
C173 C -0.0039 0.53416 0.94875 0.0
C174 C -0.00217 0.536 0.9335 0.0
C175 C -0.00793 0.56599 0.87973 0.0
C176 C 0.9787 0.58494 0.88782 0.0
C177 C 0.09684 0.60746 0.43102 0.0
C178 C 0.08727 0.61157 0.44532 0.0
C179 C 0.05628 0.58282 0.45189 0.0
C180 C 0.03537 0.55029 0.44431 0.0
H181 H 0.97156 0.43745 0.45067 0.0
H182 H 0.92508 0.38402 0.46357 0.0
H183 H 0.87727 0.33357 0.42228 0.0
H184 H 0.92344 0.38697 0.4093 0.0
H185 H 0.96136 0.42691 0.37986 0.0
H186 H 0.96025 0.43048 0.35326 0.0
H187 H 0.04406 0.54354 0.35493 0.0
H188 H 0.04498 0.54034 0.38145 0.0
H189 H 0.08372 0.57298 0.41233 0.0
H190 H 0.12054 0.62938 0.42571 0.0
H191 H 0.04855 0.58535 0.46294 0.0
H192 H 0.0116 0.52853 0.44963 0.0
N193 N -0.00116 0.4812 0.42876 0.0
N194 N 0.97912 0.45102 0.40628 0.0
N195 N 0.0238 0.51264 0.40685 0.0
C196 C 0.97736 0.45031 0.42114 0.0
C197 C 0.00235 0.48211 0.39905 0.0
C198 C 0.02219 0.51243 0.42168 0.0
C199 C 0.95104 0.41672 0.42894 0.0
C200 C 0.95133 0.4149 0.44431 0.0
C201 C 0.92488 0.38419 0.45172 0.0
C202 C 0.89749 0.35481 0.44392 0.0
C203 C 0.89786 0.35608 0.42856 0.0
C204 C 0.92442 0.38664 0.42114 0.0
C205 C 0.00309 0.48339 0.38285 0.0
C206 C 0.9797 0.45251 0.37457 0.0
C207 C 0.97914 0.45448 0.35932 0.0
C208 C 0.00188 0.48736 0.35202 0.0
C209 C 0.02578 0.51799 0.36026 0.0
C210 C 0.02642 0.51603 0.37548 0.0
C211 C 0.0448 0.54626 0.42994 0.0
C212 C 0.07569 0.57523 0.42337 0.0
C213 C 0.47043 0.09017 0.76758 0.0
C214 C 0.47003 0.09276 0.78289 0.0
C215 C 0.46519 0.06333 0.79148 0.0
C216 C 0.4603 0.03164 0.78488 0.0
H217 H 0.42307 0.92566 0.79375 0.0
H218 H 0.42147 0.88032 0.81035 0.0
H219 H 0.44199 0.82768 0.77414 0.0
H220 H 0.44324 0.87286 0.75739 0.0
H221 H 0.4204 0.90392 0.72318 0.0
H222 H 0.42502 0.90427 0.69653 0.0
H223 H 0.50384 0.01926 0.69759 0.0
H224 H 0.49764 0.01911 0.72399 0.0
H225 H 0.46605 0.05738 0.74913 0.0
H226 H 0.4745 0.11267 0.76072 0.0
H227 H 0.46442 0.06452 0.80331 0.0
H228 H 0.45634 0.00934 0.79185 0.0
N229 N 0.44573 0.96529 0.77087 0.0
N230 N 0.44451 0.93268 0.74997 0.0
N231 N 0.4586 0.99341 0.74794 0.0
C232 C 0.44062 0.93407 0.7647 0.0
C233 C 0.45351 0.96238 0.74155 0.0
C234 C 0.45462 -0.00499 0.76259 0.0
C235 C 0.43394 0.90328 0.77425 0.0
C236 C 0.42678 0.90418 0.78924 0.0
C237 C 0.42592 0.87826 0.79879 0.0
C238 C 0.43213 0.85083 0.79357 0.0
C239 C 0.43693 0.84845 0.77846 0.0
C240 C 0.43779 0.87444 0.76887 0.0
C241 C 0.4583 0.96155 0.7256 0.0
C242 C 0.43879 0.92916 0.71766 0.0
C243 C 0.44161 0.92938 0.7024 0.0
C244 C 0.46448 0.96191 0.69484 0.0
C245 C 0.48512 -0.00608 0.70295 0.0
C246 C 0.48177 -0.00618 0.71812 0.0
C247 C 0.46035 0.02883 0.76955 0.0
C248 C 0.46575 0.05855 0.76097 0.0
C249 C 0.58836 0.48923 0.11485 0.0
C250 C 0.58803 0.48771 0.1302 0.0
C251 C 0.5552 0.46487 0.13751 0.0
C252 C 0.52322 0.44397 0.12959 0.0
H253 H 0.41189 0.40021 0.13296 0.0
H254 H 0.35713 0.3976 0.14254 0.0
H255 H 0.30472 0.35944 0.10072 0.0
H256 H 0.35942 0.36225 0.09098 0.0
H257 H 0.40507 0.37322 0.06321 0.0
H258 H 0.40945 0.37666 0.03664 0.0
H259 H 0.52653 0.42987 0.03946 0.0
H260 H 0.52234 0.42605 0.06601 0.0
H261 H 0.55794 0.46985 0.0951 0.0
H262 H 0.61344 0.50613 0.10892 0.0
H263 H 0.55431 0.46316 0.14935 0.0
H264 H 0.49828 0.42662 0.13551 0.0
N265 N 0.45698 0.40993 0.11224 0.0
N266 N 0.42824 0.38815 0.08965 0.0
N267 N 0.49179 0.4191 0.09105 0.0
C268 C 0.42593 0.39217 0.1043 0.0
C269 C 0.46104 0.40129 0.08296 0.0
C270 C 0.48999 0.42338 0.1057 0.0
C271 C 0.39046 0.38241 0.11107 0.0
C272 C 0.38846 0.39043 0.12587 0.0
C273 C 0.35697 0.38869 0.13142 0.0
C274 C 0.327 0.37894 0.12228 0.0
C275 C 0.32775 0.36764 0.10791 0.0
C276 C 0.35914 0.36925 0.10236 0.0
C277 C 0.46337 0.39969 0.06681 0.0
C278 C 0.43177 0.38528 0.05821 0.0
C279 C 0.43424 0.3874 0.04296 0.0
C280 C 0.46834 0.40384 0.03597 0.0
C281 C 0.49984 0.41681 0.04452 0.0
C282 C 0.4974 0.41478 0.05977 0.0
C283 C 0.52369 0.44512 0.1142 0.0
C284 C 0.55661 0.46806 0.10693 0.0
C285 C 0.1277 0.49953 0.14215 0.0
C286 C 0.10132 0.48557 0.15329 0.0
C287 C 0.15308 0.48807 0.14082 0.0
C288 C 0.21452 0.47287 0.14386 0.0
H289 H 0.18107 0.37015 0.1485 0.0
C290 C 0.28799 0.40603 0.11769 0.0
C291 C 0.29777 0.38602 0.12694 0.0
C292 C 0.26405 0.41718 0.12251 0.0
C293 C 0.1908 0.39894 0.14736 0.0
H294 H 0.08165 0.44951 0.1721 0.0
H295 H 0.12658 0.43013 0.16997 0.0
H296 H 0.13997 0.39307 0.15425 0.0
H297 H 0.28928 0.36086 0.14831 0.0
H298 H 0.24635 0.37991 0.15669 0.0
H299 H 0.26475 0.47833 0.13634 0.0
C300 C 0.1271 0.44934 0.16206 0.0
C301 C 0.16741 0.41214 0.15069 0.0
C302 C 0.10149 0.4606 0.16332 0.0
C303 C 0.28211 0.37626 0.14097 0.0
C304 C 0.25763 0.38706 0.14574 0.0
C305 C 0.23764 0.45961 0.14038 0.0
C306 C 0.15294 0.46265 0.15069 0.0
C307 C 0.1788 0.44916 0.14868 0.0
C308 C 0.24914 0.40831 0.13663 0.0
C309 C 0.22573 0.42246 0.14181 0.0
H310 H 0.12821 0.51864 0.13419 0.0
H311 H 0.17216 0.49841 0.13177 0.0
H312 H 0.22447 0.50166 0.14254 0.0
H313 H 0.30004 0.41444 0.10691 0.0
H314 H 0.25757 0.43326 0.11525 0.0
C315 C 0.62266 0.12267 0.50555 0.0
C316 C 0.60895 0.09003 0.49766 0.0
C317 C 0.65798 0.1512 0.503 0.0
C318 C 0.74597 0.17647 0.48496 0.0
H319 H 0.74776 0.26675 0.47666 0.0
C320 C 0.83121 0.31142 0.44745 0.0
C321 C 0.86725 0.324 0.45178 0.0
C322 C 0.80236 0.28355 0.45515 0.0
C323 C 0.74771 0.24176 0.479 0.0
H324 H 0.62253 0.06085 0.48169 0.0
H325 H 0.68393 0.1107 0.47718 0.0
H326 H 0.69335 0.21601 0.48727 0.0
H327 H 0.90148 0.31695 0.46741 0.0
H328 H 0.85066 0.26766 0.48089 0.0
H329 H 0.80006 0.20211 0.47611 0.0
C330 C 0.66746 0.1142 0.48537 0.0
C331 C 0.71673 0.21284 0.48524 0.0
C332 C 0.63212 0.08571 0.48788 0.0
C333 C 0.87391 0.30783 0.46389 0.0
C334 C 0.84494 0.27959 0.47154 0.0
C335 C 0.77715 0.20559 0.4788 0.0
C336 C 0.68034 0.14761 0.49257 0.0
C337 C 0.71519 0.1796 0.48797 0.0
C338 C 0.8089 0.2675 0.46731 0.0
C339 C 0.77788 0.23814 0.47541 0.0
H340 H 0.60566 0.12681 0.51326 0.0
H341 H 0.66741 0.17651 0.50885 0.0
H342 H 0.7456 0.15123 0.48706 0.0
H343 H 0.82526 0.32364 0.43826 0.0
H344 H 0.77485 0.27441 0.45154 0.0
C345 C 0.54028 0.66554 0.83998 0.0
C346 C 0.51983 0.63649 0.84961 0.0
C347 C 0.53244 0.69352 0.8385 0.0
C348 C 0.45333 0.70424 0.84049 0.0
H349 H 0.52263 0.80436 0.83059 0.0
C350 C 0.45893 0.84204 0.81641 0.0
C351 C 0.43705 0.82701 0.80396 0.0
C352 C 0.46715 0.82068 0.8254 0.0
C353 C 0.50289 0.77665 0.83356 0.0
H354 H 0.47746 0.61588 0.86625 0.0
H355 H 0.46389 0.6648 0.86361 0.0
H356 H 0.54419 0.76604 0.84127 0.0
H357 H 0.40517 0.77755 0.79156 0.0
H358 H 0.41977 0.74017 0.80721 0.0
H359 H 0.41217 0.71448 0.83232 0.0
C360 C 0.48556 0.66554 0.85707 0.0
C361 C 0.51528 0.7547 0.83957 0.0
C362 C 0.49347 0.63761 0.8586 0.0
C363 C 0.42231 0.78986 0.80102 0.0
C364 C 0.43038 0.76844 0.81006 0.0
C365 C 0.44098 0.72613 0.83442 0.0
C366 C 0.50401 0.69297 0.8466 0.0
C367 C 0.49072 0.71803 0.84272 0.0
C368 C 0.45352 0.78385 0.82215 0.0
C369 C 0.46574 0.76224 0.83053 0.0
H370 H 0.56095 0.66566 0.83297 0.0
H371 H 0.54701 0.71423 0.83028 0.0
H372 H 0.43378 0.67596 0.84266 0.0
H373 H 0.471 0.8707 0.81887 0.0
H374 H 0.48486 0.83316 0.8347 0.0
C375 C 0.87306 0.53912 0.14204 0.0
C376 C 0.8964 0.5495 0.15415 0.0
C377 C 0.84385 0.54529 0.14189 0.0
C378 C 0.78013 0.55213 0.16613 0.0
H379 H 0.7502 0.57634 0.12984 0.0
C380 C 0.63244 0.48971 0.14849 0.0
C381 C 0.62263 0.50789 0.13829 0.0
C382 C 0.66791 0.50622 0.15385 0.0
C383 C 0.75831 0.57041 0.14022 0.0
H384 H 0.90786 0.57522 0.1755 0.0
H385 H 0.8561 0.58554 0.17529 0.0
H386 H 0.81117 0.58561 0.13193 0.0
H387 H 0.64069 0.55883 0.12692 0.0
H388 H 0.70259 0.58801 0.13649 0.0
H389 H 0.7267 0.53566 0.17424 0.0
C390 C 0.86072 0.57276 0.16592 0.0
C391 C 0.7932 0.57535 0.14134 0.0
C392 C 0.89032 0.56692 0.16601 0.0
C393 C 0.64786 0.54403 0.13458 0.0
C394 C 0.68324 0.56068 0.14005 0.0
C395 C 0.74514 0.54721 0.16503 0.0
C396 C 0.8371 0.56178 0.15388 0.0
C397 C 0.80383 0.56467 0.15404 0.0
C398 C 0.69414 0.54131 0.14918 0.0
C399 C 0.73332 0.55476 0.15182 0.0
H400 H 0.87705 0.52579 0.1327 0.0
H401 H 0.82576 0.53596 0.13256 0.0
H402 H 0.78766 0.54372 0.17607 0.0
H403 H 0.61355 0.46177 0.15147 0.0
H404 H 0.67537 0.49032 0.16075 0.0
C405 C 0.31379 0.88772 0.50531 0.0
C406 C 0.33212 0.91271 0.49398 0.0
C407 C 0.2794 0.85769 0.50297 0.0
C408 C 0.20314 0.81231 0.4765 0.0
H409 H 0.20746 0.72657 0.48766 0.0
C410 C 0.14786 0.66013 0.45398 0.0
C411 C 0.1101 0.64568 0.45336 0.0
C412 C 0.16984 0.69279 0.4612 0.0
C413 C 0.2057 0.75024 0.48459 0.0
H414 H 0.32747 0.92782 0.47178 0.0
H415 H 0.26763 0.87479 0.46755 0.0
H416 H 0.25345 0.78582 0.49657 0.0
H417 H 0.06553 0.65376 0.45975 0.0
H418 H 0.10438 0.71167 0.47231 0.0
H419 H 0.15608 0.7763 0.46392 0.0
C420 C 0.27966 0.87859 0.4783 0.0
C421 C 0.23179 0.78417 0.48981 0.0
C422 C 0.31402 0.90892 0.4807 0.0
C423 C 0.09461 0.66437 0.46017 0.0
C424 C 0.11674 0.69744 0.46725 0.0
C425 C 0.17675 0.77814 0.47134 0.0
C426 C 0.26281 0.85182 0.4892 0.0
C427 C 0.23141 0.81572 0.48552 0.0
C428 C 0.15454 0.71183 0.46784 0.0
C429 C 0.17856 0.74702 0.475 0.0
H430 H 0.32682 0.89034 0.51577 0.0
H431 H 0.2667 0.83795 0.51168 0.0
H432 H 0.20206 0.83612 0.47309 0.0
H433 H 0.16038 0.6461 0.44887 0.0
H434 H 0.19897 0.70352 0.46137 0.0
C435 C 0.5217 0.37679 0.83931 0.0
C436 C 0.50081 0.3892 0.83209 0.0
C437 C 0.51765 0.34298 0.83586 0.0
C438 C 0.45472 0.25551 0.81819 0.0
H439 H 0.54163 0.2493 0.81157 0.0
C440 C 0.45383 0.14148 0.78457 0.0
C441 C 0.47368 0.12573 0.78989 0.0
C442 C 0.45666 0.17221 0.79127 0.0
C443 C 0.51713 0.2505 0.81359 0.0
H444 H 0.45905 0.37565 0.81569 0.0
H445 H 0.45242 0.3171 0.80959 0.0
H446 H 0.5472 0.30573 0.82079 0.0
H447 H 0.51233 0.12981 0.80628 0.0
H448 H 0.51728 0.18377 0.81806 0.0
H449 H 0.42473 0.20062 0.81062 0.0
C450 C 0.47151 0.33321 0.81806 0.0
C451 C 0.5203 0.28274 0.81889 0.0
C452 C 0.47554 0.36693 0.82149 0.0
C453 C 0.49655 0.14133 0.80203 0.0
C454 C 0.49956 0.17226 0.80869 0.0
C455 C 0.45158 0.22337 0.81286 0.0
C456 C 0.4926 0.32094 0.82516 0.0
C457 C 0.48915 0.28576 0.82096 0.0
C458 C 0.47952 0.18786 0.80339 0.0
C459 C 0.48278 0.22081 0.81025 0.0
H460 H 0.54132 0.39324 0.84757 0.0
H461 H 0.53403 0.33403 0.8416 0.0
H462 H 0.4302 0.25684 0.81996 0.0
H463 H 0.43574 0.12978 0.77531 0.0
H464 H 0.44127 0.18399 0.78685 0.0
C465 C 0.46538 0.85574 0.50496 0.0
C466 C 0.48932 0.88687 0.4969 0.0
C467 C 0.47301 0.82782 0.50707 0.0
C468 C 0.48825 0.76592 0.50639 0.0
H469 H 0.58709 0.79847 0.5188 0.0
C470 C 0.57977 0.70287 0.53082 0.0
C471 C 0.5565 0.68188 0.54225 0.0
C472 C 0.57184 0.72561 0.52253 0.0
C473 C 0.55955 0.78887 0.51511 0.0
H474 H 0.53903 0.9121 0.48401 0.0
H475 H 0.55218 0.86298 0.4876 0.0
H476 H 0.57206 0.8421 0.50849 0.0
H477 H 0.50631 0.6674 0.55375 0.0
H478 H 0.49258 0.70723 0.53936 0.0
H479 H 0.47548 0.71298 0.51367 0.0
C480 C 0.52779 0.86056 0.49248 0.0
C481 C 0.55093 0.81382 0.50916 0.0
C482 C 0.52015 0.8886 0.49037 0.0
C483 C 0.52494 0.68363 0.54511 0.0
C484 C 0.51685 0.70604 0.53676 0.0
C485 C 0.49683 0.74104 0.51241 0.0
C486 C 0.50471 0.83026 0.50113 0.0
C487 C 0.51496 0.8028 0.50512 0.0
C488 C 0.54027 0.72736 0.52543 0.0
C489 C 0.53234 0.7525 0.5172 0.0
H490 H 0.4413 0.85341 0.51011 0.0
H491 H 0.45488 0.8051 0.51395 0.0
H492 H 0.46044 0.75647 0.50312 0.0
H493 H 0.60433 0.70206 0.52843 0.0
H494 H 0.5903 0.74174 0.51384 0.0
C495 C 0.67982 0.60089 0.83607 0.0
C496 C 0.65669 0.57458 0.84627 0.0
C497 C 0.71741 0.61468 0.83653 0.0
C498 C 0.79117 0.62541 0.86064 0.0
H499 H 0.83608 0.61374 0.82561 0.0
C500 C 0.93216 0.64119 0.86364 0.0
C501 C 0.93191 0.6097 0.85875 0.0
C502 C 0.90451 0.648 0.85954 0.0
C503 C 0.82406 0.61762 0.83541 0.0
H504 H 0.65486 0.54311 0.86526 0.0
H505 H 0.72031 0.5675 0.86617 0.0
H506 H 0.77448 0.60453 0.82442 0.0
H507 H 0.90408 0.56232 0.84478 0.0
H508 H 0.85615 0.57432 0.83757 0.0
H509 H 0.83968 0.63655 0.87184 0.0
C510 C 0.70943 0.5774 0.85781 0.0
C511 C 0.78895 0.61257 0.83472 0.0
C512 C 0.67194 0.56323 0.85721 0.0
C513 C 0.90529 0.58696 0.84866 0.0
C514 C 0.87775 0.59385 0.84451 0.0
C515 C 0.82629 0.63075 0.86131 0.0
C516 C 0.73247 0.6029 0.84738 0.0
C517 C 0.77175 0.6151 0.84746 0.0
C518 C 0.87622 0.62357 0.85041 0.0
C519 C 0.8426 0.62562 0.84883 0.0
H520 H 0.66881 0.61008 0.82749 0.0
H521 H 0.73466 0.63433 0.82838 0.0
H522 H 0.77857 0.62782 0.87058 0.0
H523 H 0.95277 0.65965 0.87119 0.0
H524 H 0.9043 0.67143 0.86406 0.0
C525 C 0.12967 0.66823 0.15079 0.0
C526 C 0.09567 0.65499 0.15764 0.0
C527 C 0.15786 0.70353 0.15349 0.0
C528 C 0.18813 0.77155 0.18254 0.0
H529 H 0.26536 0.82952 0.15494 0.0
C530 C 0.31929 0.89641 0.20176 0.0
C531 C 0.35107 0.89648 0.1974 0.0
C532 C 0.28625 0.87376 0.19484 0.0
C533 C 0.24392 0.81366 0.16274 0.0
H534 H 0.06378 0.66934 0.17184 0.0
H535 H 0.11285 0.73114 0.17636 0.0
H536 H 0.20932 0.77688 0.14625 0.0
H537 H 0.37347 0.87411 0.18195 0.0
H538 H 0.31578 0.83444 0.16993 0.0
H539 H 0.223 0.80738 0.1991 0.0
C540 C 0.11795 0.71392 0.16918 0.0
C541 C 0.21189 0.78353 0.15779 0.0
C542 C 0.08981 0.67853 0.16655 0.0
C543 C 0.34951 0.87488 0.18548 0.0
C544 C 0.31646 0.85221 0.17857 0.0
C545 C 0.22001 0.80166 0.18747 0.0
C546 C 0.1526 0.72645 0.16302 0.0
C547 C 0.18406 0.76157 0.1677 0.0
C548 C 0.28432 0.85072 0.18343 0.0
C549 C 0.24863 0.82246 0.1777 0.0
H550 H 0.13508 0.65086 0.14382 0.0
H551 H 0.1843 0.71214 0.14869 0.0
H552 H 0.16755 0.75495 0.19053 0.0
H553 H 0.31984 0.91333 0.21073 0.0
H554 H 0.26201 0.87357 0.19868 0.0
C555 C 0.46637 0.13655 0.49339 0.0
C556 C 0.45182 0.10772 0.50343 0.0
C557 C 0.47159 0.17054 0.49752 0.0
C558 C 0.48803 0.22219 0.53162 0.0
H559 H 0.48863 0.29586 0.50651 0.0
C560 C 0.56044 0.37128 0.54923 0.0
C561 C 0.54245 0.39079 0.54663 0.0
C562 C 0.54802 0.3373 0.54282 0.0
C563 C 0.48833 0.27546 0.51369 0.0
H564 H 0.42828 0.09013 0.52497 0.0
H565 H 0.43535 0.14864 0.53193 0.0
H566 H 0.46412 0.2339 0.49733 0.0
H567 H 0.49768 0.39033 0.53513 0.0
H568 H 0.47562 0.33069 0.5241 0.0
H569 H 0.51147 0.26315 0.54805 0.0
C570 C 0.44408 0.14576 0.52111 0.0
C571 C 0.47455 0.24007 0.50839 0.0
C572 C 0.43958 0.11217 0.51709 0.0
C573 C 0.5123 0.37603 0.53721 0.0
C574 C 0.49971 0.34191 0.53087 0.0
C575 C 0.50158 0.25733 0.5369 0.0
C576 C 0.46195 0.17586 0.51169 0.0
C577 C 0.47433 0.21304 0.51731 0.0
C578 C 0.51711 0.32192 0.53378 0.0
C579 C 0.50222 0.2845 0.52799 0.0
H580 H 0.47641 0.13366 0.48286 0.0
H581 H 0.48553 0.19314 0.49001 0.0
H582 H 0.48907 0.20236 0.53872 0.0
H583 H 0.58407 0.38227 0.55627 0.0
H584 H 0.56253 0.32295 0.54503 0.0
C585 C 0.35937 0.46315 0.85505 0.0
C586 C 0.37666 0.46005 0.84245 0.0
C587 C 0.32244 0.45194 0.85488 0.0
C588 C 0.25141 0.44202 0.83004 0.0
H589 H 0.19158 0.40199 0.86475 0.0
C590 C 0.14258 0.47576 0.84744 0.0
C591 C 0.11289 0.45101 0.85599 0.0
C592 C 0.16849 0.4671 0.84261 0.0
C593 C 0.20742 0.41241 0.8548 0.0
H594 H 0.36837 0.44159 0.81991 0.0
H595 H 0.30352 0.42215 0.81962 0.0
H596 H 0.24914 0.40301 0.86291 0.0
H597 H 0.08528 0.39657 0.86508 0.0
H598 H 0.13049 0.38128 0.85654 0.0
H599 H 0.21007 0.45231 0.82211 0.0
C600 C 0.31879 0.43339 0.8296 0.0
C601 C 0.24065 0.41337 0.85384 0.0
C602 C 0.35585 0.44441 0.82979 0.0
C603 C 0.10825 0.41642 0.85872 0.0
C604 C 0.13412 0.40769 0.85384 0.0
C605 C 0.21808 0.441 0.831 0.0
C606 C 0.30183 0.43744 0.84211 0.0
C607 C 0.26366 0.42954 0.84172 0.0
C608 C 0.16522 0.43344 0.84618 0.0
C609 C 0.19639 0.42749 0.84365 0.0
H610 H 0.37451 0.47492 0.86501 0.0
H611 H 0.31035 0.45598 0.86464 0.0
H612 H 0.26856 0.45468 0.82057 0.0
H613 H 0.14713 0.50276 0.84528 0.0
H614 H 0.1923 0.4878 0.83691 0.0
C615 C 0.90773 0.35747 0.16307 0.0
C616 C 0.90205 0.38181 0.15465 0.0
C617 C 0.87949 0.32202 0.16545 0.0
C618 C 0.78106 0.27284 0.16855 0.0
H619 H 0.79355 0.18921 0.17361 0.0
C620 C 0.68936 0.15549 0.20648 0.0
C621 C 0.6759 0.11985 0.20141 0.0
C622 C 0.71612 0.18491 0.19864 0.0
C623 C 0.78953 0.21219 0.17207 0.0
H624 H 0.86289 0.38725 0.14132 0.0
H625 H 0.81347 0.32517 0.14551 0.0
H626 H 0.84208 0.24452 0.16222 0.0
H627 H 0.68058 0.08695 0.18436 0.0
H628 H 0.72782 0.13875 0.17061 0.0
H629 H 0.72897 0.24094 0.17867 0.0
C630 C 0.83975 0.33378 0.15039 0.0
C631 C 0.81733 0.24387 0.16564 0.0
C632 C 0.86808 0.36927 0.14795 0.0
C633 C 0.69037 0.11418 0.18847 0.0
C634 C 0.71744 0.14372 0.18065 0.0
C635 C 0.75343 0.24132 0.17501 0.0
C636 C 0.84492 0.31012 0.15949 0.0
C637 C 0.81369 0.27479 0.16413 0.0
C638 C 0.73012 0.17937 0.18557 0.0
C639 C 0.75778 0.21104 0.17718 0.0
H640 H 0.93365 0.36613 0.16829 0.0
H641 H 0.88426 0.30459 0.17263 0.0
H642 H 0.77754 0.29627 0.16767 0.0
H643 H 0.67845 0.16077 0.21631 0.0
H644 H 0.72582 0.21209 0.2028 0.0
C645 C 0.03668 0.53562 0.09039 0.0
C646 C 0.00323 0.5211 0.09784 0.0
C647 C 0.03779 0.53513 0.07512 0.0
C648 C 0.98546 0.52963 0.04239 0.0
H649 H 0.04727 0.49935 0.02307 0.0
C650 C 0.97986 0.50663 0.98011 0.0
C651 C 0.01301 0.51851 0.97275 0.0
C652 C 0.97851 0.50623 0.99538 0.0
C653 C 0.03021 0.5083 0.02829 0.0
H654 H 0.94473 0.49496 0.09503 0.0
H655 H 0.94679 0.49426 0.06837 0.0
H656 H 0.04546 0.50074 0.04973 0.0
H657 H 0.07077 0.53943 0.97557 0.0
H658 H 0.06858 0.53922 0.00225 0.0
H659 H 0.9705 0.53768 0.021 0.0
C660 C 0.97211 0.50612 0.07438 0.0
C661 C 0.02914 0.50904 0.04356 0.0
C662 C 0.97095 0.50637 0.08965 0.0
C663 C 0.04476 0.52971 0.98096 0.0
C664 C 0.04347 0.52953 0.99624 0.0
C665 C 0.98667 0.52911 0.02713 0.0
C666 C 0.00553 0.52035 0.06696 0.0
C667 C 0.00673 0.51967 0.05076 0.0
C668 C 0.01034 0.51793 0.00364 0.0
C669 C 0.00902 0.51839 0.01988 0.0
H670 H 0.06206 0.54717 0.09634 0.0
H671 H 0.06397 0.54664 0.06969 0.0
H672 H 0.9683 0.53842 0.04765 0.0
H673 H 0.95486 0.49734 0.97406 0.0
H674 H 0.95244 0.49647 0.00072 0.0
C675 C 0.50754 0.00227 0.4341 0.0
C676 C 0.47969 0.00543 0.44107 0.0
C677 C 0.51035 0.00321 0.41888 0.0
C678 C 0.45702 0.98751 0.38544 0.0
H679 H 0.55193 0.04088 0.36694 0.0
C680 C 0.47497 0.00192 0.3227 0.0
C681 C 0.50339 -0.00174 0.31663 0.0
C682 C 0.47205 0.00428 0.33784 0.0
C683 C 0.52527 0.02556 0.37195 0.0
H684 H 0.43301 0.01222 0.43743 0.0
H685 H 0.43805 0.01392 0.41076 0.0
H686 H 0.54677 0.04279 0.39346 0.0
H687 H 0.55082 -0.00616 0.32166 0.0
H688 H 0.54566 -0.00224 0.3481 0.0
H689 H 0.43555 0.96991 0.36394 0.0
C690 C 0.45752 0.01048 0.41715 0.0
C691 C 0.52231 0.02671 0.38713 0.0
C692 C 0.45477 0.00969 0.43242 0.0
C693 C 0.52891 -0.00288 0.32601 0.0
C694 C 0.52596 -0.00059 0.34115 0.0
C695 C 0.45998 0.9863 0.37024 0.0
C696 C 0.48536 0.00725 0.41024 0.0
C697 C 0.4882 0.00746 0.39405 0.0
C698 C 0.49748 0.00299 0.34724 0.0
C699 C 0.49418 0.0051 0.36334 0.0
H700 H 0.52721 -0.00107 0.44039 0.0
H701 H 0.53179 0.00014 0.41388 0.0
H702 H 0.43042 0.97202 0.39047 0.0
H703 H 0.45523 0.00348 0.31574 0.0
H704 H 0.45014 0.00758 0.34217 0.0
C705 C 0.56345 0.55929 0.78084 0.0
C706 C 0.529 0.53596 0.78691 0.0
C707 C 0.56842 0.56207 0.76567 0.0
C708 C 0.52406 0.51331 0.7312 0.0
H709 H 0.59661 0.60367 0.71338 0.0
C710 C 0.561 0.52032 0.67012 0.0
C711 C 0.56949 0.55207 0.66227 0.0
C712 C 0.55706 0.51907 0.68532 0.0
C713 C 0.57588 0.5783 0.71811 0.0
H714 H 0.47246 0.49828 0.78186 0.0
H715 H 0.48066 0.50435 0.75544 0.0
H716 H 0.58616 0.60115 0.73957 0.0
H717 H 0.58132 0.60778 0.66453 0.0
H718 H 0.5723 0.6049 0.6908 0.0
H719 H 0.51239 0.49096 0.70966 0.0
C720 C 0.50424 0.51953 0.76233 0.0
C721 C 0.57028 0.57669 0.73323 0.0
C722 C 0.49942 0.51624 0.7775 0.0
C723 C 0.57413 0.5826 0.6701 0.0
C724 C 0.56957 0.58115 0.68528 0.0
C725 C 0.52922 0.51509 0.71605 0.0
C726 C 0.53892 0.54207 0.75619 0.0
C727 C 0.5444 0.54412 0.74001 0.0
C728 C 0.56087 0.54933 0.69311 0.0
C729 C 0.55534 0.54755 0.70929 0.0
H730 H 0.58685 0.57461 0.78782 0.0
H731 H 0.59564 0.57924 0.76143 0.0
H732 H 0.50431 0.48754 0.73598 0.0
H733 H 0.55673 0.49606 0.66452 0.0
H734 H 0.55104 0.49427 0.69095 0.0
C735 C 0.45737 0.9506 0.56037 0.0
C736 C 0.46933 0.98491 0.55408 0.0
C737 C 0.4582 0.94685 0.57552 0.0
C738 C 0.49904 0.00074 0.6093 0.0
H739 H 0.42109 0.91596 0.62855 0.0
C740 C 0.46978 0.99347 0.67102 0.0
C741 C 0.46606 0.96297 0.67858 0.0
C742 C 0.47162 -0.00505 0.65579 0.0
C743 C 0.44319 0.93956 0.62327 0.0
H744 H 0.49091 0.04209 0.55872 0.0
H745 H 0.49108 0.03544 0.58514 0.0
H746 H 0.42099 0.92117 0.60196 0.0
H747 H 0.46118 0.90996 0.67591 0.0
H748 H 0.46303 0.91216 0.64916 0.0
H749 H 0.52026 0.01967 0.63075 0.0
C750 C 0.48215 0.01152 0.57839 0.0
C751 C 0.44326 0.94255 0.60804 0.0
C752 C 0.48182 0.01534 0.56324 0.0
C753 C 0.4636 0.93368 0.67047 0.0
C754 C 0.46484 0.93495 0.65518 0.0
C755 C 0.49862 -0.00203 0.62451 0.0
C756 C 0.47053 0.97726 0.58473 0.0
C757 C 0.47106 0.97334 0.60088 0.0
C758 C 0.46912 0.96573 0.64775 0.0
C759 C 0.47058 0.96749 0.63162 0.0
H760 H 0.44787 0.92667 0.55358 0.0
H761 H 0.44961 0.92016 0.57998 0.0
H762 H 0.52133 0.02441 0.60416 0.0
H763 H 0.47077 0.01613 0.67683 0.0
H764 H 0.47434 0.01873 0.65027 0.0
C765 C 0.52834 0.47125 0.90473 0.0
C766 C 0.50864 0.48652 0.89868 0.0
C767 C 0.52411 0.46119 0.91947 0.0
C768 C 0.45961 0.43601 0.95013 0.0
H769 H 0.5434 0.45916 0.97423 0.0
C770 C 0.45017 0.42192 0.01285 0.0
C771 C 0.47121 0.40948 0.0199 0.0
C772 C 0.45423 0.42938 0.99787 0.0
C773 C 0.51968 0.452 0.9676 0.0
H774 H 0.46939 0.5036 0.90347 0.0
H775 H 0.46219 0.48617 0.92917 0.0
H776 H 0.55208 0.47671 0.94848 0.0
H777 H 0.51232 0.3942 0.01671 0.0
H778 H 0.51923 0.40695 0.99047 0.0
H779 H 0.42717 0.41129 0.96919 0.0
C780 C 0.48061 0.48165 0.92246 0.0
C781 C 0.52467 0.46214 0.95286 0.0
C782 C 0.48495 0.49187 0.90775 0.0
C783 C 0.49602 0.40413 0.0116 0.0
C784 C 0.50002 0.41151 0.99659 0.0
C785 C 0.4546 0.42576 0.96484 0.0
C786 C 0.49997 0.46601 0.92845 0.0
C787 C 0.49471 0.45451 0.94401 0.0
C788 C 0.47937 0.42451 0.98958 0.0
C789 C 0.48459 0.43389 0.97378 0.0
H790 H 0.54682 0.46674 0.89806 0.0
H791 H 0.5392 0.44896 0.92377 0.0
H792 H 0.43595 0.4292 0.94351 0.0
H793 H 0.43129 0.42695 0.01898 0.0
H794 H 0.43835 0.43995 0.99288 0.0
C795 C -0.00363 0.53911 0.21998 0.0
C796 C -0.00335 0.51192 0.21132 0.0
C797 C -0.00417 0.53668 0.23524 0.0
C798 C 0.97277 0.47094 0.26536 0.0
H799 H 0.03687 0.55603 0.28826 0.0
C800 C -0.00189 0.46241 0.3268 0.0
C801 C 0.00026 0.49003 0.3359 0.0
C802 C -0.00322 0.46517 0.31161 0.0
C803 C 0.01847 0.53213 0.28203 0.0
H804 H -0.00353 0.46079 0.21195 0.0
H805 H -0.00428 0.45676 0.23849 0.0
H806 H 0.03573 0.5609 0.2617 0.0
H807 H 0.00181 0.54177 0.33625 0.0
H808 H -0.00064 0.54652 0.30976 0.0
H809 H 0.95552 0.44214 0.28568 0.0
C810 C -0.00445 0.47975 0.23349 0.0
C811 C 0.01783 0.53493 0.26683 0.0
C812 C -0.00378 0.48222 0.21826 0.0
C813 C 0.0008 0.52034 0.32951 0.0
C814 C -0.0006 0.52307 0.31433 0.0
C815 C 0.97335 0.46815 0.28057 0.0
C816 C -0.00462 0.50694 0.24215 0.0
C817 C -0.00487 0.50432 0.25833 0.0
C818 C -0.00254 0.49556 0.30521 0.0
C819 C -0.00365 0.49867 0.28907 0.0
H820 H -0.00337 0.56232 0.21499 0.0
H821 H -0.00462 0.55788 0.24164 0.0
H822 H 0.95458 0.447 0.25912 0.0
H823 H -0.00192 0.43895 0.3314 0.0
H824 H -0.00417 0.44377 0.30487 0.0
loop_
_geom_bond_atom_site_label_1
_geom_bond_atom_site_label_2
_geom_bond_distance
_geom_bond_site_symmetry_2
_ccdc_geom_bond_type
O0 Zn1 1.953 1_655 S
O0 C16 1.225 1_655 S
Zn1 O0 1.953 1_455 S
Zn1 O2 1.949 . S
Zn1 O8 1.918 1_455 S
Zn1 O13 1.925 . S
O2 Zn1 1.949 . S
O2 Zn3 1.923 1_455 S
O2 Zn4 1.950 . S
O2 Zn5 1.945 . S
Zn3 O2 1.923 1_655 S
Zn3 O6 1.933 . S
Zn3 O9 1.941 . S
Zn3 O10 1.965 . S
Zn4 O2 1.950 . S
Zn4 O11 1.938 1_455 S
Zn4 O12 1.906 . S
Zn4 O22 1.953 . S
Zn5 O2 1.945 . S
Zn5 O7 1.932 . S
Zn5 O14 1.977 . S
Zn5 O15 1.910 . S
O6 Zn3 1.933 . S
O6 C17 1.226 1_655 S
O7 Zn5 1.932 . S
O7 C17 1.307 . S
O8 Zn1 1.918 1_655 S
O8 C19 1.253 . S
O9 Zn3 1.941 . S
O9 C19 1.283 . S
O10 Zn3 1.965 . S
O10 C18 1.303 . S
O11 Zn4 1.938 1_655 S
O11 C18 1.247 . S
O12 Zn4 1.906 . S
O12 C20 1.304 . S
O13 Zn1 1.925 . S
O13 C21 1.311 . S
O14 Zn5 1.977 . S
O14 C20 1.272 . S
O15 Zn5 1.910 . S
O15 C21 1.231 . S
C16 O0 1.225 1_455 S
C16 O22 1.298 . S
C17 O6 1.226 1_455 S
C17 O7 1.307 . S
C18 O10 1.303 . S
C18 O11 1.247 . S
C19 O8 1.253 . S
C19 O9 1.283 . S
C20 O12 1.304 . S
C20 O14 1.272 . S
C21 O13 1.311 . S
C21 O15 1.231 . S
O22 Zn4 1.953 . S
O22 C16 1.298 . S
O23 Zn24 1.953 . S
O23 C39 1.225 . S
Zn24 O23 1.953 . S
Zn24 O25 1.949 . S
Zn24 O31 1.919 . S
Zn24 O36 1.924 1_545 S
O25 Zn24 1.949 . S
O25 Zn26 1.923 . S
O25 Zn27 1.950 1_545 S
O25 Zn28 1.945 1_545 S
Zn26 O25 1.923 . S
Zn26 O29 1.933 . S
Zn26 O32 1.941 . S
Zn26 O33 1.965 . S
Zn27 O25 1.950 1_565 S
Zn27 O34 1.938 1_565 S
Zn27 O35 1.906 . S
Zn27 O45 1.953 . S
Zn28 O25 1.945 1_565 S
Zn28 O30 1.932 . S
Zn28 O37 1.977 . S
Zn28 O38 1.910 . S
O29 Zn26 1.933 . S
O29 C40 1.226 . S
O30 Zn28 1.932 . S
O30 C40 1.307 1_565 S
O31 Zn24 1.919 . S
O31 C42 1.253 . S
O32 Zn26 1.941 . S
O32 C42 1.283 . S
O33 Zn26 1.965 . S
O33 C41 1.303 . S
O34 Zn27 1.938 1_545 S
O34 C41 1.247 . S
O35 Zn27 1.906 . S
O35 C43 1.304 . S
O36 Zn24 1.924 1_565 S
O36 C44 1.311 . S
O37 Zn28 1.977 . S
O37 C43 1.272 . S
O38 Zn28 1.910 . S
O38 C44 1.231 . S
C39 O23 1.225 . S
C39 O45 1.298 1_545 S
C40 O29 1.226 . S
C40 O30 1.307 1_545 S
C41 O33 1.303 . S
C41 O34 1.247 . S
C42 O31 1.253 . S
C42 O32 1.283 . S
C43 O35 1.304 . S
C43 O37 1.272 . S
C44 O36 1.311 . S
C44 O38 1.231 . S
O45 Zn27 1.953 . S
O45 C39 1.298 1_565 S
O46 Zn47 1.953 . S
O46 C62 1.225 . S
Zn47 O46 1.953 . S
Zn47 O48 1.949 . S
Zn47 O54 1.919 . S
Zn47 O59 1.924 . S
O48 Zn47 1.949 . S
O48 Zn49 1.923 . S
O48 Zn50 1.950 . S
O48 Zn51 1.945 . S
Zn49 O48 1.923 . S
Zn49 O52 1.933 . S
Zn49 O55 1.941 . S
Zn49 O56 1.965 . S
Zn50 O48 1.950 . S
Zn50 O57 1.938 . S
Zn50 O58 1.906 . S
Zn50 O68 1.953 . S
Zn51 O48 1.945 . S
Zn51 O53 1.932 . S
Zn51 O60 1.977 . S
Zn51 O61 1.910 . S
O52 Zn49 1.933 . S
O52 C63 1.226 . S
O53 Zn51 1.932 . S
O53 C63 1.307 . S
O54 Zn47 1.919 . S
O54 C65 1.253 . S
O55 Zn49 1.941 . S
O55 C65 1.283 . S
O56 Zn49 1.965 . S
O56 C64 1.303 . S
O57 Zn50 1.938 . S
O57 C64 1.247 . S
O58 Zn50 1.906 . S
O58 C66 1.304 . S
O59 Zn47 1.924 . S
O59 C67 1.311 . S
O60 Zn51 1.977 . S
O60 C66 1.272 . S
O61 Zn51 1.910 . S
O61 C67 1.231 . S
C62 O46 1.225 . S
C62 O68 1.298 . S
C63 O52 1.226 . S
C63 O53 1.307 . S
C64 O56 1.303 . S
C64 O57 1.247 . S
C65 O54 1.253 . S
C65 O55 1.283 . S
C66 O58 1.304 . S
C66 O60 1.272 . S
C67 O59 1.311 . S
C67 O61 1.231 . S
O68 Zn50 1.953 . S
O68 C62 1.298 . S
C69 C70 1.384 . S
C69 H82 0.947 . S
C69 C104 1.382 . S
C70 C69 1.384 . S
C70 C71 1.378 . S
C71 C70 1.378 . S
C71 C72 1.378 . S
C71 H83 0.952 . S
C72 C71 1.378 . S
C72 H84 0.950 . S
C72 C103 1.383 . S
H73 C92 0.947 . S
H74 C93 0.946 . S
H75 C95 0.953 . S
H76 C96 0.945 . S
H77 C98 0.952 . S
H78 C99 0.949 . S
H79 C101 0.950 . S
H80 C102 0.948 . S
H81 C104 0.951 . S
H82 C69 0.947 . S
H83 C71 0.952 . S
H84 C72 0.950 . S
N85 C88 1.382 . S
N85 C90 1.363 1_545 S
N86 C88 1.371 . S
N86 C89 1.372 . S
N87 C89 1.361 1_565 S
N87 C90 1.377 . S
C88 N85 1.382 . S
C88 N86 1.371 . S
C88 C91 1.480 . S
C89 N86 1.372 . S
C89 N87 1.361 1_545 S
C89 C97 1.457 . S
C90 N85 1.363 1_565 S
C90 N87 1.377 . S
C90 C103 1.479 . S
C91 C88 1.480 . S
C91 C92 1.383 . S
C91 C96 1.385 . S
C92 H73 0.947 . S
C92 C91 1.383 . S
C92 C93 1.388 . S
C93 H74 0.946 . S
C93 C92 1.388 . S
C93 C94 1.384 . S
C94 C93 1.384 . S
C94 C95 1.377 . S
C95 H75 0.953 . S
C95 C94 1.377 . S
C95 C96 1.369 . S
C96 H76 0.945 . S
C96 C91 1.385 . S
C96 C95 1.369 . S
C97 C89 1.457 . S
C97 C98 1.372 . S
C97 C102 1.364 1_545 S
C98 H77 0.952 . S
C98 C97 1.372 . S
C98 C99 1.389 . S
C99 H78 0.949 . S
C99 C98 1.389 . S
C99 C100 1.387 . S
C100 C99 1.387 . S
C100 C101 1.372 1_545 S
C101 H79 0.950 . S
C101 C100 1.372 1_565 S
C101 C102 1.379 . S
C102 H80 0.948 . S
C102 C97 1.364 1_565 S
C102 C101 1.379 . S
C103 C72 1.383 . S
C103 C90 1.479 . S
C103 C104 1.398 . S
C104 C69 1.382 . S
C104 H81 0.951 . S
C104 C103 1.398 . S
C105 C106 1.384 . S
C105 H118 0.947 . S
C105 C140 1.382 . S
C106 C105 1.384 . S
C106 C107 1.378 . S
C107 C106 1.378 . S
C107 C108 1.378 . S
C107 H119 0.952 . S
C108 C107 1.378 . S
C108 H120 0.950 . S
C108 C139 1.383 . S
H109 C128 0.947 . S
H110 C129 0.946 . S
H111 C131 0.953 . S
H112 C132 0.945 . S
H113 C134 0.952 . S
H114 C135 0.949 . S
H115 C137 0.950 . S
H116 C138 0.948 . S
H117 C140 0.951 . S
H118 C105 0.947 . S
H119 C107 0.952 . S
H120 C108 0.950 . S
N121 C124 1.382 . S
N121 C126 1.363 . S
N122 C124 1.371 . S
N122 C125 1.372 . S
N123 C125 1.361 . S
N123 C126 1.377 . S
C124 N121 1.382 . S
C124 N122 1.371 . S
C124 C127 1.480 . S
C125 N122 1.372 . S
C125 N123 1.361 . S
C125 C133 1.457 . S
C126 N121 1.363 . S
C126 N123 1.377 . S
C126 C139 1.479 . S
C127 C124 1.480 . S
C127 C128 1.383 . S
C127 C132 1.385 . S
C128 H109 0.947 . S
C128 C127 1.383 . S
C128 C129 1.388 . S
C129 H110 0.946 . S
C129 C128 1.388 . S
C129 C130 1.384 . S
C130 C129 1.384 . S
C130 C131 1.377 . S
C131 H111 0.953 . S
C131 C130 1.377 . S
C131 C132 1.369 . S
C132 H112 0.945 . S
C132 C127 1.385 . S
C132 C131 1.369 . S
C133 C125 1.457 . S
C133 C134 1.372 . S
C133 C138 1.364 . S
C134 H113 0.952 . S
C134 C133 1.372 . S
C134 C135 1.389 . S
C135 H114 0.949 . S
C135 C134 1.389 . S
C135 C136 1.387 . S
C136 C135 1.387 . S
C136 C137 1.372 . S
C137 H115 0.950 . S
C137 C136 1.372 . S
C137 C138 1.379 . S
C138 H116 0.948 . S
C138 C133 1.364 . S
C138 C137 1.379 . S
C139 C108 1.383 . S
C139 C126 1.479 . S
C139 C140 1.398 . S
C140 C105 1.382 . S
C140 H117 0.951 . S
C140 C139 1.398 . S
C141 C142 1.384 . S
C141 H154 0.947 . S
C141 C176 1.382 . S
C142 C141 1.384 . S
C142 C143 1.378 . S
C143 C142 1.378 . S
C143 C144 1.378 . S
C143 H155 0.952 . S
C144 C143 1.378 . S
C144 H156 0.950 . S
C144 C175 1.383 . S
H145 C164 0.947 . S
H146 C165 0.946 . S
H147 C167 0.953 . S
H148 C168 0.945 . S
H149 C170 0.952 . S
H150 C171 0.949 . S
H151 C173 0.950 . S
H152 C174 0.948 . S
H153 C176 0.951 . S
H154 C141 0.947 . S
H155 C143 0.952 . S
H156 C144 0.950 . S
N157 C160 1.382 . S
N157 C162 1.363 1_455 S
N158 C160 1.371 . S
N158 C161 1.372 . S
N159 C161 1.361 1_655 S
N159 C162 1.377 . S
C160 N157 1.382 . S
C160 N158 1.371 . S
C160 C163 1.480 . S
C161 N158 1.372 . S
C161 N159 1.361 1_455 S
C161 C169 1.457 . S
C162 N157 1.363 1_655 S
C162 N159 1.377 . S
C162 C175 1.479 . S
C163 C160 1.480 . S
C163 C164 1.383 . S
C163 C168 1.385 . S
C164 H145 0.947 . S
C164 C163 1.383 . S
C164 C165 1.388 . S
C165 H146 0.946 . S
C165 C164 1.388 . S
C165 C166 1.384 . S
C166 C165 1.384 . S
C166 C167 1.377 . S
C167 H147 0.953 . S
C167 C166 1.377 . S
C167 C168 1.369 . S
C168 H148 0.945 . S
C168 C163 1.385 . S
C168 C167 1.369 . S
C169 C161 1.457 . S
C169 C170 1.372 . S
C169 C174 1.364 1_455 S
C170 H149 0.952 . S
C170 C169 1.372 . S
C170 C171 1.389 . S
C171 H150 0.949 . S
C171 C170 1.389 . S
C171 C172 1.387 . S
C172 C171 1.387 . S
C172 C173 1.372 1_455 S
C173 H151 0.950 . S
C173 C172 1.372 1_655 S
C173 C174 1.379 . S
C174 H152 0.948 . S
C174 C169 1.364 1_655 S
C174 C173 1.379 . S
C175 C144 1.383 . S
C175 C162 1.479 . S
C175 C176 1.398 . S
C176 C141 1.382 . S
C176 H153 0.951 . S
C176 C175 1.398 . S
C177 C178 1.384 . S
C177 H190 0.947 . S
C177 C212 1.382 . S
C178 C177 1.384 . S
C178 C179 1.378 . S
C179 C178 1.378 . S
C179 C180 1.378 . S
C179 H191 0.952 . S
C180 C179 1.378 . S
C180 H192 0.950 . S
C180 C211 1.383 . S
H181 C200 0.947 . S
H182 C201 0.946 . S
H183 C203 0.953 . S
H184 C204 0.945 . S
H185 C206 0.952 . S
H186 C207 0.949 . S
H187 C209 0.950 . S
H188 C210 0.948 . S
H189 C212 0.951 . S
H190 C177 0.947 . S
H191 C179 0.952 . S
H192 C180 0.950 . S
N193 C196 1.382 1_455 S
N193 C198 1.363 . S
N194 C196 1.371 . S
N194 C197 1.372 1_655 S
N195 C197 1.361 . S
N195 C198 1.377 . S
C196 N193 1.382 1_655 S
C196 N194 1.371 . S
C196 C199 1.480 . S
C197 N194 1.372 1_455 S
C197 N195 1.361 . S
C197 C205 1.457 . S
C198 N193 1.363 . S
C198 N195 1.377 . S
C198 C211 1.479 . S
C199 C196 1.480 . S
C199 C200 1.383 . S
C199 C204 1.385 . S
C200 H181 0.947 . S
C200 C199 1.383 . S
C200 C201 1.388 . S
C201 H182 0.946 . S
C201 C200 1.388 . S
C201 C202 1.384 . S
C202 C201 1.384 . S
C202 C203 1.377 . S
C203 H183 0.953 . S
C203 C202 1.377 . S
C203 C204 1.369 . S
C204 H184 0.945 . S
C204 C199 1.385 . S
C204 C203 1.369 . S
C205 C197 1.457 . S
C205 C206 1.372 1_455 S
C205 C210 1.364 . S
C206 H185 0.952 . S
C206 C205 1.372 1_655 S
C206 C207 1.389 . S
C207 H186 0.949 . S
C207 C206 1.389 . S
C207 C208 1.387 1_655 S
C208 C207 1.387 1_455 S
C208 C209 1.372 . S
C209 H187 0.950 . S
C209 C208 1.372 . S
C209 C210 1.379 . S
C210 H188 0.948 . S
C210 C205 1.364 . S
C210 C209 1.379 . S
C211 C180 1.383 . S
C211 C198 1.479 . S
C211 C212 1.398 . S
C212 C177 1.382 . S
C212 H189 0.951 . S
C212 C211 1.398 . S
C213 C214 1.384 . S
C213 H226 0.947 . S
C213 C248 1.382 . S
C214 C213 1.384 . S
C214 C215 1.378 . S
C215 C214 1.378 . S
C215 C216 1.378 . S
C215 H227 0.952 . S
C216 C215 1.378 . S
C216 H228 0.950 . S
C216 C247 1.383 . S
H217 C236 0.947 . S
H218 C237 0.946 . S
H219 C239 0.953 . S
H220 C240 0.945 . S
H221 C242 0.952 . S
H222 C243 0.949 . S
H223 C245 0.950 . S
H224 C246 0.948 . S
H225 C248 0.951 . S
H226 C213 0.947 . S
H227 C215 0.952 . S
H228 C216 0.950 . S
N229 C232 1.382 1_545 S
N229 C234 1.363 . S
N230 C232 1.371 . S
N230 C233 1.372 1_565 S
N231 C233 1.361 . S
N231 C234 1.377 . S
C232 N229 1.382 1_565 S
C232 N230 1.371 . S
C232 C235 1.480 . S
C233 N230 1.372 1_545 S
C233 N231 1.361 . S
C233 C241 1.457 . S
C234 N229 1.363 . S
C234 N231 1.377 . S
C234 C247 1.479 . S
C235 C232 1.480 . S
C235 C236 1.383 . S
C235 C240 1.385 . S
C236 H217 0.947 . S
C236 C235 1.383 . S
C236 C237 1.388 . S
C237 H218 0.946 . S
C237 C236 1.388 . S
C237 C238 1.384 . S
C238 C237 1.384 . S
C238 C239 1.377 . S
C239 H219 0.953 . S
C239 C238 1.377 . S
C239 C240 1.369 . S
C240 H220 0.945 . S
C240 C235 1.385 . S
C240 C239 1.369 . S
C241 C233 1.457 . S
C241 C242 1.372 1_545 S
C241 C246 1.364 . S
C242 H221 0.952 . S
C242 C241 1.372 1_565 S
C242 C243 1.389 . S
C243 H222 0.949 . S
C243 C242 1.389 . S
C243 C244 1.387 1_565 S
C244 C243 1.387 1_545 S
C244 C245 1.372 . S
C245 H223 0.950 . S
C245 C244 1.372 . S
C245 C246 1.379 . S
C246 H224 0.948 . S
C246 C241 1.364 . S
C246 C245 1.379 . S
C247 C216 1.383 . S
C247 C234 1.479 . S
C247 C248 1.398 . S
C248 C213 1.382 . S
C248 H225 0.951 . S
C248 C247 1.398 . S
C249 C250 1.384 . S
C249 H262 0.947 . S
C249 C284 1.382 . S
C250 C249 1.384 . S
C250 C251 1.378 . S
C251 C250 1.378 . S
C251 C252 1.378 . S
C251 H263 0.952 . S
C252 C251 1.378 . S
C252 H264 0.950 . S
C252 C283 1.383 . S
H253 C272 0.947 . S
H254 C273 0.946 . S
H255 C275 0.953 . S
H256 C276 0.945 . S
H257 C278 0.952 . S
H258 C279 0.949 . S
H259 C281 0.950 . S
H260 C282 0.948 . S
H261 C284 0.951 . S
H262 C249 0.947 . S
H263 C251 0.952 . S
H264 C252 0.950 . S
N265 C268 1.382 . S
N265 C270 1.363 . S
N266 C268 1.371 . S
N266 C269 1.372 . S
N267 C269 1.361 . S
N267 C270 1.377 . S
C268 N265 1.382 . S
C268 N266 1.371 . S
C268 C271 1.480 . S
C269 N266 1.372 . S
C269 N267 1.361 . S
C269 C277 1.457 . S
C270 N265 1.363 . S
C270 N267 1.377 . S
C270 C283 1.479 . S
C271 C268 1.480 . S
C271 C272 1.383 . S
C271 C276 1.385 . S
C272 H253 0.947 . S
C272 C271 1.383 . S
C272 C273 1.388 . S
C273 H254 0.946 . S
C273 C272 1.388 . S
C273 C274 1.384 . S
C274 C273 1.384 . S
C274 C275 1.377 . S
C275 H255 0.953 . S
C275 C274 1.377 . S
C275 C276 1.369 . S
C276 H256 0.945 . S
C276 C271 1.385 . S
C276 C275 1.369 . S
C277 C269 1.457 . S
C277 C278 1.372 . S
C277 C282 1.364 . S
C278 H257 0.952 . S
C278 C277 1.372 . S
C278 C279 1.389 . S
C279 H258 0.949 . S
C279 C278 1.389 . S
C279 C280 1.387 . S
C280 C279 1.387 . S
C280 C281 1.372 . S
C281 H259 0.950 . S
C281 C280 1.372 . S
C281 C282 1.379 . S
C282 H260 0.948 . S
C282 C277 1.364 . S
C282 C281 1.379 . S
C283 C252 1.383 . S
C283 C270 1.479 . S
C283 C284 1.398 . S
C284 C249 1.382 . S
C284 H261 0.951 . S
C284 C283 1.398 . S
C285 C286 1.349 . S
C285 C287 1.327 . S
C285 H310 0.950 . S
C286 C285 1.349 . S
C286 C302 1.349 . S
C287 C285 1.327 . S
C287 C306 1.429 . S
C287 H311 0.950 . S
C288 C305 1.574 . S
C288 C307 1.368 . S
C288 H312 0.949 . S
H289 C293 0.949 . S
C290 C291 1.349 . S
C290 C292 1.327 . S
C290 H313 0.950 . S
C291 C290 1.349 . S
C291 C303 1.349 . S
C292 C290 1.327 . S
C292 C308 1.429 . S
C292 H314 0.950 . S
C293 H289 0.949 . S
C293 C301 1.574 . S
C293 C309 1.368 . S
H294 C302 0.950 . S
H295 C300 0.950 . S
H296 C301 0.949 . S
H297 C303 0.950 . S
H298 C304 0.950 . S
H299 C305 0.949 . S
C300 H295 0.950 . S
C300 C302 1.327 . S
C300 C306 1.429 . S
C301 C293 1.574 . S
C301 H296 0.949 . S
C301 C307 1.368 . S
C302 C286 1.349 . S
C302 H294 0.950 . S
C302 C300 1.327 . S
C303 C291 1.349 . S
C303 H297 0.950 . S
C303 C304 1.327 . S
C304 H298 0.950 . S
C304 C303 1.327 . S
C304 C308 1.429 . S
C305 C288 1.574 . S
C305 H299 0.949 . S
C305 C309 1.368 . S
C306 C287 1.429 . S
C306 C300 1.429 . S
C306 C307 1.523 . S
C307 C288 1.368 . S
C307 C301 1.368 . S
C307 C306 1.523 . S
C308 C292 1.429 . S
C308 C304 1.429 . S
C308 C309 1.523 . S
C309 C293 1.368 . S
C309 C305 1.368 . S
C309 C308 1.523 . S
H310 C285 0.950 . S
H311 C287 0.950 . S
H312 C288 0.949 . S
H313 C290 0.950 . S
H314 C292 0.950 . S
C315 C316 1.349 . S
C315 C317 1.327 . S
C315 H340 0.950 . S
C316 C315 1.349 . S
C316 C332 1.349 . S
C317 C315 1.327 . S
C317 C336 1.429 . S
C317 H341 0.950 . S
C318 C335 1.574 . S
C318 C337 1.368 . S
C318 H342 0.949 . S
H319 C323 0.949 . S
C320 C321 1.349 . S
C320 C322 1.327 . S
C320 H343 0.950 . S
C321 C320 1.349 . S
C321 C333 1.349 . S
C322 C320 1.327 . S
C322 C338 1.429 . S
C322 H344 0.950 . S
C323 H319 0.949 . S
C323 C331 1.574 . S
C323 C339 1.368 . S
H324 C332 0.950 . S
H325 C330 0.950 . S
H326 C331 0.949 . S
H327 C333 0.950 . S
H328 C334 0.950 . S
H329 C335 0.949 . S
C330 H325 0.950 . S
C330 C332 1.327 . S
C330 C336 1.429 . S
C331 C323 1.574 . S
C331 H326 0.949 . S
C331 C337 1.368 . S
C332 C316 1.349 . S
C332 H324 0.950 . S
C332 C330 1.327 . S
C333 C321 1.349 . S
C333 H327 0.950 . S
C333 C334 1.327 . S
C334 H328 0.950 . S
C334 C333 1.327 . S
C334 C338 1.429 . S
C335 C318 1.574 . S
C335 H329 0.949 . S
C335 C339 1.368 . S
C336 C317 1.429 . S
C336 C330 1.429 . S
C336 C337 1.523 . S
C337 C318 1.368 . S
C337 C331 1.368 . S
C337 C336 1.523 . S
C338 C322 1.429 . S
C338 C334 1.429 . S
C338 C339 1.523 . S
C339 C323 1.368 . S
C339 C335 1.368 . S
C339 C338 1.523 . S
H340 C315 0.950 . S
H341 C317 0.950 . S
H342 C318 0.949 . S
H343 C320 0.950 . S
H344 C322 0.950 . S
C345 C346 1.349 . S
C345 C347 1.327 . S
C345 H370 0.950 . S
C346 C345 1.349 . S
C346 C362 1.349 . S
C347 C345 1.327 . S
C347 C366 1.429 . S
C347 H371 0.950 . S
C348 C365 1.574 . S
C348 C367 1.368 . S
C348 H372 0.949 . S
H349 C353 0.949 . S
C350 C351 1.349 . S
C350 C352 1.327 . S
C350 H373 0.950 . S
C351 C350 1.349 . S
C351 C363 1.349 . S
C352 C350 1.327 . S
C352 C368 1.429 . S
C352 H374 0.950 . S
C353 H349 0.949 . S
C353 C361 1.574 . S
C353 C369 1.368 . S
H354 C362 0.950 . S
H355 C360 0.950 . S
H356 C361 0.949 . S
H357 C363 0.950 . S
H358 C364 0.950 . S
H359 C365 0.949 . S
C360 H355 0.950 . S
C360 C362 1.327 . S
C360 C366 1.429 . S
C361 C353 1.574 . S
C361 H356 0.949 . S
C361 C367 1.368 . S
C362 C346 1.349 . S
C362 H354 0.950 . S
C362 C360 1.327 . S
C363 C351 1.349 . S
C363 H357 0.950 . S
C363 C364 1.327 . S
C364 H358 0.950 . S
C364 C363 1.327 . S
C364 C368 1.429 . S
C365 C348 1.574 . S
C365 H359 0.949 . S
C365 C369 1.368 . S
C366 C347 1.429 . S
C366 C360 1.429 . S
C366 C367 1.523 . S
C367 C348 1.368 . S
C367 C361 1.368 . S
C367 C366 1.523 . S
C368 C352 1.429 . S
C368 C364 1.429 . S
C368 C369 1.523 . S
C369 C353 1.368 . S
C369 C365 1.368 . S
C369 C368 1.523 . S
H370 C345 0.950 . S
H371 C347 0.950 . S
H372 C348 0.949 . S
H373 C350 0.950 . S
H374 C352 0.950 . S
C375 C376 1.349 . S
C375 C377 1.327 . S
C375 H400 0.950 . S
C376 C375 1.349 . S
C376 C392 1.349 . S
C377 C375 1.327 . S
C377 C396 1.429 . S
C377 H401 0.950 . S
C378 C395 1.574 . S
C378 C397 1.368 . S
C378 H402 0.949 . S
H379 C383 0.949 . S
C380 C381 1.349 . S
C380 C382 1.327 . S
C380 H403 0.950 . S
C381 C380 1.349 . S
C381 C393 1.349 . S
C382 C380 1.327 . S
C382 C398 1.429 . S
C382 H404 0.950 . S
C383 H379 0.949 . S
C383 C391 1.574 . S
C383 C399 1.368 . S
H384 C392 0.950 . S
H385 C390 0.950 . S
H386 C391 0.949 . S
H387 C393 0.950 . S
H388 C394 0.950 . S
H389 C395 0.949 . S
C390 H385 0.950 . S
C390 C392 1.327 . S
C390 C396 1.429 . S
C391 C383 1.574 . S
C391 H386 0.949 . S
C391 C397 1.368 . S
C392 C376 1.349 . S
C392 H384 0.950 . S
C392 C390 1.327 . S
C393 C381 1.349 . S
C393 H387 0.950 . S
C393 C394 1.327 . S
C394 H388 0.950 . S
C394 C393 1.327 . S
C394 C398 1.429 . S
C395 C378 1.574 . S
C395 H389 0.949 . S
C395 C399 1.368 . S
C396 C377 1.429 . S
C396 C390 1.429 . S
C396 C397 1.523 . S
C397 C378 1.368 . S
C397 C391 1.368 . S
C397 C396 1.523 . S
C398 C382 1.429 . S
C398 C394 1.429 . S
C398 C399 1.523 . S
C399 C383 1.368 . S
C399 C395 1.368 . S
C399 C398 1.523 . S
H400 C375 0.950 . S
H401 C377 0.950 . S
H402 C378 0.949 . S
H403 C380 0.950 . S
H404 C382 0.950 . S
C405 C406 1.349 . S
C405 C407 1.327 . S
C405 H430 0.950 . S
C406 C405 1.349 . S
C406 C422 1.349 . S
C407 C405 1.327 . S
C407 C426 1.429 . S
C407 H431 0.950 . S
C408 C425 1.574 . S
C408 C427 1.368 . S
C408 H432 0.949 . S
H409 C413 0.949 . S
C410 C411 1.349 . S
C410 C412 1.327 . S
C410 H433 0.950 . S
C411 C410 1.349 . S
C411 C423 1.349 . S
C412 C410 1.327 . S
C412 C428 1.429 . S
C412 H434 0.950 . S
C413 H409 0.949 . S
C413 C421 1.574 . S
C413 C429 1.368 . S
H414 C422 0.950 . S
H415 C420 0.950 . S
H416 C421 0.949 . S
H417 C423 0.950 . S
H418 C424 0.950 . S
H419 C425 0.949 . S
C420 H415 0.950 . S
C420 C422 1.327 . S
C420 C426 1.429 . S
C421 C413 1.574 . S
C421 H416 0.949 . S
C421 C427 1.368 . S
C422 C406 1.349 . S
C422 H414 0.950 . S
C422 C420 1.327 . S
C423 C411 1.349 . S
C423 H417 0.950 . S
C423 C424 1.327 . S
C424 H418 0.950 . S
C424 C423 1.327 . S
C424 C428 1.429 . S
C425 C408 1.574 . S
C425 H419 0.949 . S
C425 C429 1.368 . S
C426 C407 1.429 . S
C426 C420 1.429 . S
C426 C427 1.523 . S
C427 C408 1.368 . S
C427 C421 1.368 . S
C427 C426 1.523 . S
C428 C412 1.429 . S
C428 C424 1.429 . S
C428 C429 1.523 . S
C429 C413 1.368 . S
C429 C425 1.368 . S
C429 C428 1.523 . S
H430 C405 0.950 . S
H431 C407 0.950 . S
H432 C408 0.949 . S
H433 C410 0.950 . S
H434 C412 0.950 . S
C435 C436 1.349 . S
C435 C437 1.327 . S
C435 H460 0.950 . S
C436 C435 1.349 . S
C436 C452 1.349 . S
C437 C435 1.327 . S
C437 C456 1.429 . S
C437 H461 0.950 . S
C438 C455 1.574 . S
C438 C457 1.368 . S
C438 H462 0.949 . S
H439 C443 0.949 . S
C440 C441 1.349 . S
C440 C442 1.327 . S
C440 H463 0.950 . S
C441 C440 1.349 . S
C441 C453 1.349 . S
C442 C440 1.327 . S
C442 C458 1.429 . S
C442 H464 0.950 . S
C443 H439 0.949 . S
C443 C451 1.574 . S
C443 C459 1.368 . S
H444 C452 0.950 . S
H445 C450 0.950 . S
H446 C451 0.949 . S
H447 C453 0.950 . S
H448 C454 0.950 . S
H449 C455 0.949 . S
C450 H445 0.950 . S
C450 C452 1.327 . S
C450 C456 1.429 . S
C451 C443 1.574 . S
C451 H446 0.949 . S
C451 C457 1.368 . S
C452 C436 1.349 . S
C452 H444 0.950 . S
C452 C450 1.327 . S
C453 C441 1.349 . S
C453 H447 0.950 . S
C453 C454 1.327 . S
C454 H448 0.950 . S
C454 C453 1.327 . S
C454 C458 1.429 . S
C455 C438 1.574 . S
C455 H449 0.949 . S
C455 C459 1.368 . S
C456 C437 1.429 . S
C456 C450 1.429 . S
C456 C457 1.523 . S
C457 C438 1.368 . S
C457 C451 1.368 . S
C457 C456 1.523 . S
C458 C442 1.429 . S
C458 C454 1.429 . S
C458 C459 1.523 . S
C459 C443 1.368 . S
C459 C455 1.368 . S
C459 C458 1.523 . S
H460 C435 0.950 . S
H461 C437 0.950 . S
H462 C438 0.949 . S
H463 C440 0.950 . S
H464 C442 0.950 . S
C465 C466 1.349 . S
C465 C467 1.327 . S
C465 H490 0.950 . S
C466 C465 1.349 . S
C466 C482 1.349 . S
C467 C465 1.327 . S
C467 C486 1.429 . S
C467 H491 0.950 . S
C468 C485 1.574 . S
C468 C487 1.368 . S
C468 H492 0.949 . S
H469 C473 0.949 . S
C470 C471 1.349 . S
C470 C472 1.327 . S
C470 H493 0.950 . S
C471 C470 1.349 . S
C471 C483 1.349 . S
C472 C470 1.327 . S
C472 C488 1.429 . S
C472 H494 0.950 . S
C473 H469 0.949 . S
C473 C481 1.574 . S
C473 C489 1.368 . S
H474 C482 0.950 . S
H475 C480 0.950 . S
H476 C481 0.949 . S
H477 C483 0.950 . S
H478 C484 0.950 . S
H479 C485 0.949 . S
C480 H475 0.950 . S
C480 C482 1.327 . S
C480 C486 1.429 . S
C481 C473 1.574 . S
C481 H476 0.949 . S
C481 C487 1.368 . S
C482 C466 1.349 . S
C482 H474 0.950 . S
C482 C480 1.327 . S
C483 C471 1.349 . S
C483 H477 0.950 . S
C483 C484 1.327 . S
C484 H478 0.950 . S
C484 C483 1.327 . S
C484 C488 1.429 . S
C485 C468 1.574 . S
C485 H479 0.949 . S
C485 C489 1.368 . S
C486 C467 1.429 . S
C486 C480 1.429 . S
C486 C487 1.523 . S
C487 C468 1.368 . S
C487 C481 1.368 . S
C487 C486 1.523 . S
C488 C472 1.429 . S
C488 C484 1.429 . S
C488 C489 1.523 . S
C489 C473 1.368 . S
C489 C485 1.368 . S
C489 C488 1.523 . S
H490 C465 0.950 . S
H491 C467 0.950 . S
H492 C468 0.949 . S
H493 C470 0.950 . S
H494 C472 0.950 . S
C495 C496 1.349 . S
C495 C497 1.327 . S
C495 H520 0.950 . S
C496 C495 1.349 . S
C496 C512 1.349 . S
C497 C495 1.327 . S
C497 C516 1.429 . S
C497 H521 0.950 . S
C498 C515 1.574 . S
C498 C517 1.368 . S
C498 H522 0.949 . S
H499 C503 0.949 . S
C500 C501 1.349 . S
C500 C502 1.327 . S
C500 H523 0.950 . S
C501 C500 1.349 . S
C501 C513 1.349 . S
C502 C500 1.327 . S
C502 C518 1.429 . S
C502 H524 0.950 . S
C503 H499 0.949 . S
C503 C511 1.574 . S
C503 C519 1.368 . S
H504 C512 0.950 . S
H505 C510 0.950 . S
H506 C511 0.949 . S
H507 C513 0.950 . S
H508 C514 0.950 . S
H509 C515 0.949 . S
C510 H505 0.950 . S
C510 C512 1.327 . S
C510 C516 1.429 . S
C511 C503 1.574 . S
C511 H506 0.949 . S
C511 C517 1.368 . S
C512 C496 1.349 . S
C512 H504 0.950 . S
C512 C510 1.327 . S
C513 C501 1.349 . S
C513 H507 0.950 . S
C513 C514 1.327 . S
C514 H508 0.950 . S
C514 C513 1.327 . S
C514 C518 1.429 . S
C515 C498 1.574 . S
C515 H509 0.949 . S
C515 C519 1.368 . S
C516 C497 1.429 . S
C516 C510 1.429 . S
C516 C517 1.523 . S
C517 C498 1.368 . S
C517 C511 1.368 . S
C517 C516 1.523 . S
C518 C502 1.429 . S
C518 C514 1.429 . S
C518 C519 1.523 . S
C519 C503 1.368 . S
C519 C515 1.368 . S
C519 C518 1.523 . S
H520 C495 0.950 . S
H521 C497 0.950 . S
H522 C498 0.949 . S
H523 C500 0.950 . S
H524 C502 0.950 . S
C525 C526 1.349 . S
C525 C527 1.327 . S
C525 H550 0.950 . S
C526 C525 1.349 . S
C526 C542 1.349 . S
C527 C525 1.327 . S
C527 C546 1.429 . S
C527 H551 0.950 . S
C528 C545 1.574 . S
C528 C547 1.368 . S
C528 H552 0.949 . S
H529 C533 0.949 . S
C530 C531 1.349 . S
C530 C532 1.327 . S
C530 H553 0.950 . S
C531 C530 1.349 . S
C531 C543 1.349 . S
C532 C530 1.327 . S
C532 C548 1.429 . S
C532 H554 0.950 . S
C533 H529 0.949 . S
C533 C541 1.574 . S
C533 C549 1.368 . S
H534 C542 0.950 . S
H535 C540 0.950 . S
H536 C541 0.949 . S
H537 C543 0.950 . S
H538 C544 0.950 . S
H539 C545 0.949 . S
C540 H535 0.950 . S
C540 C542 1.327 . S
C540 C546 1.429 . S
C541 C533 1.574 . S
C541 H536 0.949 . S
C541 C547 1.368 . S
C542 C526 1.349 . S
C542 H534 0.950 . S
C542 C540 1.327 . S
C543 C531 1.349 . S
C543 H537 0.950 . S
C543 C544 1.327 . S
C544 H538 0.950 . S
C544 C543 1.327 . S
C544 C548 1.429 . S
C545 C528 1.574 . S
C545 H539 0.949 . S
C545 C549 1.368 . S
C546 C527 1.429 . S
C546 C540 1.429 . S
C546 C547 1.523 . S
C547 C528 1.368 . S
C547 C541 1.368 . S
C547 C546 1.523 . S
C548 C532 1.429 . S
C548 C544 1.429 . S
C548 C549 1.523 . S
C549 C533 1.368 . S
C549 C545 1.368 . S
C549 C548 1.523 . S
H550 C525 0.950 . S
H551 C527 0.950 . S
H552 C528 0.949 . S
H553 C530 0.950 . S
H554 C532 0.950 . S
C555 C556 1.349 . S
C555 C557 1.327 . S
C555 H580 0.950 . S
C556 C555 1.349 . S
C556 C572 1.349 . S
C557 C555 1.327 . S
C557 C576 1.429 . S
C557 H581 0.950 . S
C558 C575 1.574 . S
C558 C577 1.368 . S
C558 H582 0.949 . S
H559 C563 0.949 . S
C560 C561 1.349 . S
C560 C562 1.327 . S
C560 H583 0.950 . S
C561 C560 1.349 . S
C561 C573 1.349 . S
C562 C560 1.327 . S
C562 C578 1.429 . S
C562 H584 0.950 . S
C563 H559 0.949 . S
C563 C571 1.574 . S
C563 C579 1.368 . S
H564 C572 0.950 . S
H565 C570 0.950 . S
H566 C571 0.949 . S
H567 C573 0.950 . S
H568 C574 0.950 . S
H569 C575 0.949 . S
C570 H565 0.950 . S
C570 C572 1.327 . S
C570 C576 1.429 . S
C571 C563 1.574 . S
C571 H566 0.949 . S
C571 C577 1.368 . S
C572 C556 1.349 . S
C572 H564 0.950 . S
C572 C570 1.327 . S
C573 C561 1.349 . S
C573 H567 0.950 . S
C573 C574 1.327 . S
C574 H568 0.950 . S
C574 C573 1.327 . S
C574 C578 1.429 . S
C575 C558 1.574 . S
C575 H569 0.949 . S
C575 C579 1.368 . S
C576 C557 1.429 . S
C576 C570 1.429 . S
C576 C577 1.523 . S
C577 C558 1.368 . S
C577 C571 1.368 . S
C577 C576 1.523 . S
C578 C562 1.429 . S
C578 C574 1.429 . S
C578 C579 1.523 . S
C579 C563 1.368 . S
C579 C575 1.368 . S
C579 C578 1.523 . S
H580 C555 0.950 . S
H581 C557 0.950 . S
H582 C558 0.949 . S
H583 C560 0.950 . S
H584 C562 0.950 . S
C585 C586 1.349 . S
C585 C587 1.327 . S
C585 H610 0.950 . S
C586 C585 1.349 . S
C586 C602 1.349 . S
C587 C585 1.327 . S
C587 C606 1.429 . S
C587 H611 0.950 . S
C588 C605 1.574 . S
C588 C607 1.368 . S
C588 H612 0.949 . S
H589 C593 0.949 . S
C590 C591 1.349 . S
C590 C592 1.327 . S
C590 H613 0.950 . S
C591 C590 1.349 . S
C591 C603 1.349 . S
C592 C590 1.327 . S
C592 C608 1.429 . S
C592 H614 0.950 . S
C593 H589 0.949 . S
C593 C601 1.574 . S
C593 C609 1.368 . S
H594 C602 0.950 . S
H595 C600 0.950 . S
H596 C601 0.949 . S
H597 C603 0.950 . S
H598 C604 0.950 . S
H599 C605 0.949 . S
C600 H595 0.950 . S
C600 C602 1.327 . S
C600 C606 1.429 . S
C601 C593 1.574 . S
C601 H596 0.949 . S
C601 C607 1.368 . S
C602 C586 1.349 . S
C602 H594 0.950 . S
C602 C600 1.327 . S
C603 C591 1.349 . S
C603 H597 0.950 . S
C603 C604 1.327 . S
C604 H598 0.950 . S
C604 C603 1.327 . S
C604 C608 1.429 . S
C605 C588 1.574 . S
C605 H599 0.949 . S
C605 C609 1.368 . S
C606 C587 1.429 . S
C606 C600 1.429 . S
C606 C607 1.523 . S
C607 C588 1.368 . S
C607 C601 1.368 . S
C607 C606 1.523 . S
C608 C592 1.429 . S
C608 C604 1.429 . S
C608 C609 1.523 . S
C609 C593 1.368 . S
C609 C605 1.368 . S
C609 C608 1.523 . S
H610 C585 0.950 . S
H611 C587 0.950 . S
H612 C588 0.949 . S
H613 C590 0.950 . S
H614 C592 0.950 . S
C615 C616 1.349 . S
C615 C617 1.327 . S
C615 H640 0.950 . S
C616 C615 1.349 . S
C616 C632 1.349 . S
C617 C615 1.327 . S
C617 C636 1.429 . S
C617 H641 0.950 . S
C618 C635 1.574 . S
C618 C637 1.368 . S
C618 H642 0.949 . S
H619 C623 0.949 . S
C620 C621 1.349 . S
C620 C622 1.327 . S
C620 H643 0.950 . S
C621 C620 1.349 . S
C621 C633 1.349 . S
C622 C620 1.327 . S
C622 C638 1.429 . S
C622 H644 0.950 . S
C623 H619 0.949 . S
C623 C631 1.574 . S
C623 C639 1.368 . S
H624 C632 0.950 . S
H625 C630 0.950 . S
H626 C631 0.949 . S
H627 C633 0.950 . S
H628 C634 0.950 . S
H629 C635 0.949 . S
C630 H625 0.950 . S
C630 C632 1.327 . S
C630 C636 1.429 . S
C631 C623 1.574 . S
C631 H626 0.949 . S
C631 C637 1.368 . S
C632 C616 1.349 . S
C632 H624 0.950 . S
C632 C630 1.327 . S
C633 C621 1.349 . S
C633 H627 0.950 . S
C633 C634 1.327 . S
C634 H628 0.950 . S
C634 C633 1.327 . S
C634 C638 1.429 . S
C635 C618 1.574 . S
C635 H629 0.949 . S
C635 C639 1.368 . S
C636 C617 1.429 . S
C636 C630 1.429 . S
C636 C637 1.523 . S
C637 C618 1.368 . S
C637 C631 1.368 . S
C637 C636 1.523 . S
C638 C622 1.429 . S
C638 C634 1.429 . S
C638 C639 1.523 . S
C639 C623 1.368 . S
C639 C635 1.368 . S
C639 C638 1.523 . S
H640 C615 0.950 . S
H641 C617 0.950 . S
H642 C618 0.949 . S
H643 C620 0.950 . S
H644 C622 0.950 . S
C645 C646 1.349 . S
C645 C647 1.327 . S
C645 H670 0.950 . S
C646 C645 1.349 . S
C646 C662 1.349 1_455 S
C647 C645 1.327 . S
C647 C666 1.429 . S
C647 H671 0.950 . S
C648 C665 1.574 . S
C648 C667 1.368 1_655 S
C648 H672 0.949 . S
H649 C653 0.949 . S
C650 C651 1.349 1_655 S
C650 C652 1.327 1_556 S
C650 H673 0.950 . S
C651 C650 1.349 1_455 S
C651 C663 1.349 . S
C652 C650 1.327 1_554 S
C652 C668 1.429 1_655 S
C652 H674 0.950 . S
C653 H649 0.949 . S
C653 C661 1.574 . S
C653 C669 1.368 . S
H654 C662 0.950 . S
H655 C660 0.950 . S
H656 C661 0.949 . S
H657 C663 0.950 . S
H658 C664 0.950 . S
H659 C665 0.949 . S
C660 H655 0.950 . S
C660 C662 1.327 . S
C660 C666 1.429 1_655 S
C661 C653 1.574 . S
C661 H656 0.949 . S
C661 C667 1.368 . S
C662 C646 1.349 1_655 S
C662 H654 0.950 . S
C662 C660 1.327 . S
C663 C651 1.349 . S
C663 H657 0.950 . S
C663 C664 1.327 1_556 S
C664 H658 0.950 . S
C664 C663 1.327 1_554 S
C664 C668 1.429 . S
C665 C648 1.574 . S
C665 H659 0.949 . S
C665 C669 1.368 1_655 S
C666 C647 1.429 . S
C666 C660 1.429 1_455 S
C666 C667 1.523 . S
C667 C648 1.368 1_455 S
C667 C661 1.368 . S
C667 C666 1.523 . S
C668 C652 1.429 1_455 S
C668 C664 1.429 . S
C668 C669 1.523 . S
C669 C653 1.368 . S
C669 C665 1.368 1_455 S
C669 C668 1.523 . S
H670 C645 0.950 . S
H671 C647 0.950 . S
H672 C648 0.949 . S
H673 C650 0.950 . S
H674 C652 0.950 . S
C675 C676 1.349 . S
C675 C677 1.327 . S
C675 H700 0.950 . S
C676 C675 1.349 . S
C676 C692 1.349 1_545 S
C677 C675 1.327 . S
C677 C696 1.429 . S
C677 H701 0.950 . S
C678 C695 1.574 . S
C678 C697 1.368 1_565 S
C678 H702 0.949 . S
H679 C683 0.949 . S
C680 C681 1.349 1_565 S
C680 C682 1.327 . S
C680 H703 0.950 . S
C681 C680 1.349 1_545 S
C681 C693 1.349 . S
C682 C680 1.327 . S
C682 C698 1.429 1_565 S
C682 H704 0.950 . S
C683 H679 0.949 . S
C683 C691 1.574 . S
C683 C699 1.368 . S
H684 C692 0.950 . S
H685 C690 0.950 . S
H686 C691 0.949 . S
H687 C693 0.950 . S
H688 C694 0.950 . S
H689 C695 0.949 . S
C690 H685 0.950 . S
C690 C692 1.327 . S
C690 C696 1.429 1_565 S
C691 C683 1.574 . S
C691 H686 0.949 . S
C691 C697 1.368 . S
C692 C676 1.349 1_565 S
C692 H684 0.950 . S
C692 C690 1.327 . S
C693 C681 1.349 . S
C693 H687 0.950 . S
C693 C694 1.327 . S
C694 H688 0.950 . S
C694 C693 1.327 . S
C694 C698 1.429 . S
C695 C678 1.574 . S
C695 H689 0.949 . S
C695 C699 1.368 1_565 S
C696 C677 1.429 . S
C696 C690 1.429 1_545 S
C696 C697 1.523 . S
C697 C678 1.368 1_545 S
C697 C691 1.368 . S
C697 C696 1.523 . S
C698 C682 1.429 1_545 S
C698 C694 1.429 . S
C698 C699 1.523 . S
C699 C683 1.368 . S
C699 C695 1.368 1_545 S
C699 C698 1.523 . S
H700 C675 0.950 . S
H701 C677 0.950 . S
H702 C678 0.949 . S
H703 C680 0.950 . S
H704 C682 0.950 . S
C705 C706 1.349 . S
C705 C707 1.327 . S
C705 H730 0.950 . S
C706 C705 1.349 . S
C706 C722 1.349 . S
C707 C705 1.327 . S
C707 C726 1.429 . S
C707 H731 0.950 . S
C708 C725 1.574 . S
C708 C727 1.368 . S
C708 H732 0.949 . S
H709 C713 0.949 . S
C710 C711 1.349 . S
C710 C712 1.327 . S
C710 H733 0.950 . S
C711 C710 1.349 . S
C711 C723 1.349 . S
C712 C710 1.327 . S
C712 C728 1.429 . S
C712 H734 0.950 . S
C713 H709 0.949 . S
C713 C721 1.574 . S
C713 C729 1.368 . S
H714 C722 0.950 . S
H715 C720 0.950 . S
H716 C721 0.949 . S
H717 C723 0.950 . S
H718 C724 0.950 . S
H719 C725 0.949 . S
C720 H715 0.950 . S
C720 C722 1.327 . S
C720 C726 1.429 . S
C721 C713 1.574 . S
C721 H716 0.949 . S
C721 C727 1.368 . S
C722 C706 1.349 . S
C722 H714 0.950 . S
C722 C720 1.327 . S
C723 C711 1.349 . S
C723 H717 0.950 . S
C723 C724 1.327 . S
C724 H718 0.950 . S
C724 C723 1.327 . S
C724 C728 1.429 . S
C725 C708 1.574 . S
C725 H719 0.949 . S
C725 C729 1.368 . S
C726 C707 1.429 . S
C726 C720 1.429 . S
C726 C727 1.523 . S
C727 C708 1.368 . S
C727 C721 1.368 . S
C727 C726 1.523 . S
C728 C712 1.429 . S
C728 C724 1.429 . S
C728 C729 1.523 . S
C729 C713 1.368 . S
C729 C725 1.368 . S
C729 C728 1.523 . S
H730 C705 0.950 . S
H731 C707 0.950 . S
H732 C708 0.949 . S
H733 C710 0.950 . S
H734 C712 0.950 . S
C735 C736 1.349 1_565 S
C735 C737 1.327 . S
C735 H760 0.950 . S
C736 C735 1.349 1_545 S
C736 C752 1.349 . S
C737 C735 1.327 . S
C737 C756 1.429 1_565 S
C737 H761 0.950 . S
C738 C755 1.574 . S
C738 C757 1.368 . S
C738 H762 0.949 . S
H739 C743 0.949 . S
C740 C741 1.354 . S
C740 C742 1.327 . S
C740 H763 0.950 . S
C741 C740 1.354 . S
C741 C753 1.344 1_545 S
C742 C740 1.327 . S
C742 C758 1.429 . S
C742 H764 0.950 . S
C743 H739 0.949 . S
C743 C751 1.574 . S
C743 C759 1.368 1_565 S
H744 C752 0.950 . S
H745 C750 0.950 . S
H746 C751 0.949 . S
H747 C753 0.950 . S
H748 C754 0.950 . S
H749 C755 0.949 . S
C750 H745 0.950 . S
C750 C752 1.327 . S
C750 C756 1.429 . S
C751 C743 1.574 . S
C751 H746 0.949 . S
C751 C757 1.368 1_565 S
C752 C736 1.349 . S
C752 H744 0.950 . S
C752 C750 1.327 . S
C753 C741 1.344 1_565 S
C753 H747 0.950 . S
C753 C754 1.327 . S
C754 H748 0.950 . S
C754 C753 1.327 . S
C754 C758 1.429 1_565 S
C755 C738 1.574 . S
C755 H749 0.949 . S
C755 C759 1.368 . S
C756 C737 1.429 1_545 S
C756 C750 1.429 . S
C756 C757 1.523 . S
C757 C738 1.368 . S
C757 C751 1.368 1_545 S
C757 C756 1.523 . S
C758 C742 1.429 . S
C758 C754 1.429 1_545 S
C758 C759 1.523 . S
C759 C743 1.368 1_545 S
C759 C755 1.368 . S
C759 C758 1.523 . S
H760 C735 0.950 . S
H761 C737 0.950 . S
H762 C738 0.949 . S
H763 C740 0.950 . S
H764 C742 0.950 . S
C765 C766 1.349 . S
C765 C767 1.327 . S
C765 H790 0.950 . S
C766 C765 1.349 . S
C766 C782 1.349 . S
C767 C765 1.327 . S
C767 C786 1.429 . S
C767 H791 0.950 . S
C768 C785 1.574 . S
C768 C787 1.368 . S
C768 H792 0.949 . S
H769 C773 0.949 . S
C770 C771 1.349 . S
C770 C772 1.327 1_554 S
C770 H793 0.950 . S
C771 C770 1.349 . S
C771 C783 1.349 . S
C772 C770 1.327 1_556 S
C772 C788 1.429 . S
C772 H794 0.950 . S
C773 H769 0.949 . S
C773 C781 1.574 . S
C773 C789 1.368 . S
H774 C782 0.950 . S
H775 C780 0.950 . S
H776 C781 0.949 . S
H777 C783 0.950 . S
H778 C784 0.950 . S
H779 C785 0.949 . S
C780 H775 0.950 . S
C780 C782 1.327 . S
C780 C786 1.429 . S
C781 C773 1.574 . S
C781 H776 0.949 . S
C781 C787 1.368 . S
C782 C766 1.349 . S
C782 H774 0.950 . S
C782 C780 1.327 . S
C783 C771 1.349 . S
C783 H777 0.950 . S
C783 C784 1.327 1_554 S
C784 H778 0.950 . S
C784 C783 1.327 1_556 S
C784 C788 1.429 . S
C785 C768 1.574 . S
C785 H779 0.949 . S
C785 C789 1.368 . S
C786 C767 1.429 . S
C786 C780 1.429 . S
C786 C787 1.523 . S
C787 C768 1.368 . S
C787 C781 1.368 . S
C787 C786 1.523 . S
C788 C772 1.429 . S
C788 C784 1.429 . S
C788 C789 1.523 . S
C789 C773 1.368 . S
C789 C785 1.368 . S
C789 C788 1.523 . S
H790 C765 0.950 . S
H791 C767 0.950 . S
H792 C768 0.949 . S
H793 C770 0.950 . S
H794 C772 0.950 . S
C795 C796 1.349 . S
C795 C797 1.327 . S
C795 H820 0.950 . S
C796 C795 1.349 . S
C796 C812 1.349 . S
C797 C795 1.327 . S
C797 C816 1.429 . S
C797 H821 0.959 . S
C798 C815 1.574 . S
C798 C817 1.368 . S
C798 H822 0.949 . S
H799 C803 0.936 1_655 S
C800 C801 1.349 . S
C800 C802 1.327 . S
C800 H823 0.950 . S
C801 C800 1.349 . S
C801 C813 1.358 . S
C802 C800 1.327 . S
C802 C818 1.429 . S
C802 H824 0.950 . S
C803 H799 0.936 1_455 S
C803 C811 1.574 . S
C803 C819 1.368 . S
H804 C812 0.950 . S
H805 C810 0.950 . S
H806 C811 0.951 1_655 S
H807 C813 0.941 1_655 S
H808 C814 0.935 1_655 S
H809 C815 0.949 . S
C810 H805 0.950 . S
C810 C812 1.327 . S
C810 C816 1.429 . S
C811 C803 1.574 . S
C811 H806 0.951 1_455 S
C811 C817 1.368 . S
C812 C796 1.349 . S
C812 H804 0.950 . S
C812 C810 1.327 . S
C813 C801 1.358 . S
C813 H807 0.941 1_455 S
C813 C814 1.327 . S
C814 H808 0.935 1_455 S
C814 C813 1.327 . S
C814 C818 1.444 . S
C815 C798 1.574 . S
C815 H809 0.949 . S
C815 C819 1.368 . S
C816 C797 1.429 . S
C816 C810 1.429 . S
C816 C817 1.523 . S
C817 C798 1.368 . S
C817 C811 1.368 . S
C817 C816 1.523 . S
C818 C802 1.429 . S
C818 C814 1.444 . S
C818 C819 1.523 . S
C819 C803 1.368 . S
C819 C815 1.368 . S
C819 C818 1.523 . S
H820 C795 0.950 . S
H821 C797 0.959 . S
H822 C798 0.949 . S
H823 C800 0.950 . S
H824 C802 0.950 . S
C286 C20 1.069 . S
C291 C274 1.080 . S
C316 C41 1.125 . S
C321 C202 1.107 . S
C346 C64 1.146 . S
C351 C238 1.127 . S
C376 C19 1.114 . S
C381 C250 1.149 . S
C411 C178 1.119 . S
C406 C44 1.116 . S
C441 C214 1.109 . S
C436 C67 1.108 . S
C466 C43 1.063 . S
C471 C130 1.076 . S
C496 C66 1.066 . S
C501 C142 1.089 . S
C526 C21 1.115 . S
C531 C70 1.118 . S
C561 C106 1.138 . S
C556 C42 1.107 . S
C591 C166 1.132 . S
C586 C65 1.116 . S
C616 C18 1.127 . S
C621 C94 1.109 . S
C651 C172 1.446 . S
C646 C17 1.452 . S
C676 C39 1.448 . S
C681 C100 1.444 . S
C706 C62 1.468 . S
C711 C136 1.466 . S
C741 C244 1.427 . S
C736 C40 1.431 . S
C771 C280 1.451 . S
C766 C63 1.452 . S
C796 C16 1.448 . S
C801 C208 1.444 . S
