# Generated by pormake.
# Topology tsx, (6,3)-cn, num edge types: 1
# Building blocks:
#     Node 0, Type 0, BuildingBlock: VOLQOD_clean_sbu_1, # of connection points: 6
#     Node 1, Type 0, BuildingBlock: VOLQOD_clean_sbu_1, # of connection points: 6
#     Node 2, Type 1, BuildingBlock: CUQRIR_clean_linker_1, # of connection points: 3
#     Node 3, Type 1, BuildingBlock: CUQRIR_clean_linker_1, # of connection points: 3
#     Node 4, Type 1, BuildingBlock: CUQRIR_clean_linker_1, # of connection points: 3
#     Node 5, Type 1, BuildingBlock: CUQRIR_clean_linker_1, # of connection points: 3
#     Edge 6, Type (0, 1), BuildingBlock: MIFKUJ_clean_linker_0, # of connection points: 2
#     Edge 7, Type (0, 1), BuildingBlock: MIFKUJ_clean_linker_0, # of connection points: 2
#     Edge 8, Type (0, 1), BuildingBlock: MIFKUJ_clean_linker_0, # of connection points: 2
#     Edge 9, Type (0, 1), BuildingBlock: MIFKUJ_clean_linker_0, # of connection points: 2
#     Edge 10, Type (0, 1), BuildingBlock: MIFKUJ_clean_linker_0, # of connection points: 2
#     Edge 11, Type (0, 1), BuildingBlock: MIFKUJ_clean_linker_0, # of connection points: 2
#     Edge 12, Type (0, 1), BuildingBlock: MIFKUJ_clean_linker_0, # of connection points: 2
#     Edge 13, Type (0, 1), BuildingBlock: MIFKUJ_clean_linker_0, # of connection points: 2
#     Edge 14, Type (0, 1), BuildingBlock: MIFKUJ_clean_linker_0, # of connection points: 2
#     Edge 15, Type (0, 1), BuildingBlock: MIFKUJ_clean_linker_0, # of connection points: 2
#     Edge 16, Type (0, 1), BuildingBlock: MIFKUJ_clean_linker_0, # of connection points: 2
#     Edge 17, Type (0, 1), BuildingBlock: MIFKUJ_clean_linker_0, # of connection points: 2
# Relax obj value: 0.076
# Max RMSD: 0.144
# Mean RMSD: 0.125
data_MOF--net-tsx--node1-VOLQOD_clean_sbu_1--node2-CUQRIR_clean_linker_1--edge1-MIFKUJ_clean_linker_0
_symmetry_space_group_name_H-M    P1
_symmetry_Int_Tables_number       1
_symmetry_cell_setting            triclinic
loop_
_symmetry_equiv_pos_as_xyz
'x, y, z'
_cell_length_a     25.479632
_cell_length_b     26.284742
_cell_length_c     46.388382
_cell_angle_alpha  80.246692
_cell_angle_beta   89.880118
_cell_angle_gamma 89.845889
loop_
_atom_site_label
_atom_site_type_symbol
_atom_site_fract_x
_atom_site_fract_y
_atom_site_fract_z
_atom_type_partial_charge
O0 O 0.07996 0.98428 0.08518 0.0
Zn1 Zn 0.10101 0.99097 0.04251 0.0
O2 O 0.03919 -0.00059 0.01697 0.0
Zn3 Zn 0.03244 0.9392 0.99745 0.0
Zn4 Zn 0.97649 0.00684 0.04053 0.0
Zn5 Zn 0.04683 0.06119 0.98722 0.0
O6 O 0.03363 0.95962 0.95317 0.0
O7 O 0.04793 0.04409 0.94651 0.0
O8 O 0.14305 0.92732 0.03762 0.0
O9 O 0.09253 0.89004 0.0083 0.0
O10 O 0.96577 0.90016 0.00984 0.0
O11 O 0.92619 0.94894 0.03813 0.0
O12 O 0.93807 0.07404 0.02647 0.0
O13 O 0.14779 0.05346 0.03329 0.0
O14 O 0.9863 0.1098 0.98858 0.0
O15 O 0.11211 0.10043 0.99385 0.0
C16 C 0.03675 0.99087 0.09799 0.0
C17 C 0.0411 0.00259 0.93628 0.0
C18 C 0.92724 0.90918 0.0258 0.0
C19 C 0.13367 0.89033 0.02381 0.0
C20 C 0.94661 0.11064 0.0052 0.0
C21 C 0.14776 0.0933 0.01333 0.0
O22 O 0.99461 0.00168 0.08343 0.0
O23 O 0.58828 0.50952 0.5792 0.0
Zn24 Zn 0.60455 0.51267 0.5359 0.0
O25 O 0.54019 0.52316 0.51238 0.0
Zn26 Zn 0.53003 0.46529 0.49146 0.0
Zn27 Zn 0.48021 0.52773 0.53807 0.0
Zn28 Zn 0.54471 0.58733 0.48406 0.0
O29 O 0.52607 0.48945 0.44757 0.0
O30 O 0.54484 0.57292 0.44268 0.0
O31 O 0.6423 0.44675 0.5304 0.0
O32 O 0.59022 0.41562 0.49924 0.0
O33 O 0.46558 0.42398 0.50582 0.0
O34 O 0.43332 0.46622 0.53952 0.0
O35 O 0.43558 0.58998 0.52357 0.0
O36 O 0.65381 0.5728 0.52406 0.0
O37 O 0.48185 0.63318 0.48684 0.0
O38 O 0.61014 0.62675 0.49032 0.0
C39 C 0.54677 0.51879 0.59288 0.0
C40 C 0.53486 0.53298 0.43148 0.0
C41 C 0.43174 0.4287 0.52545 0.0
C42 C 0.63131 0.41232 0.51502 0.0
C43 C 0.44131 0.62857 0.50317 0.0
C44 C 0.6504 0.61549 0.50639 0.0
O45 O 0.50339 0.52889 0.57947 0.0
C46 C 0.97177 0.96699 0.45319 0.0
N47 N 0.99453 0.95085 0.42998 0.0
N48 N 0.93494 0.00332 0.44421 0.0
C49 C 0.98837 0.9497 0.48442 0.0
C50 C 0.9367 0.00923 0.41461 0.0
N51 N 0.97352 0.97765 0.40588 0.0
C52 C 0.9039 0.04741 0.39436 0.0
H53 H 0.96564 0.96916 0.49978 0.0
H54 H 0.03077 0.95777 0.48665 0.0
H55 H 0.9829 0.90738 0.49042 0.0
H56 H 0.92384 0.08545 0.39086 0.0
H57 H 0.86476 0.05251 0.4039 0.0
H58 H 0.89848 0.03484 0.37292 0.0
C59 C 0.01637 0.03009 0.57914 0.0
N60 N 0.03639 0.04729 0.6027 0.0
N61 N 0.98052 0.99287 0.58758 0.0
C62 C 0.03457 0.04674 0.54814 0.0
C63 C 0.97987 0.98738 0.61707 0.0
N64 N 0.01389 0.02057 0.62638 0.0
C65 C 0.94677 0.94862 0.63662 0.0
H66 H 0.00329 0.04078 0.53246 0.0
H67 H 0.06914 0.02314 0.54412 0.0
H68 H 0.04645 0.08793 0.5444 0.0
H69 H 0.96858 0.91158 0.64155 0.0
H70 H 0.90968 0.9415 0.62547 0.0
H71 H 0.93767 0.96206 0.6575 0.0
C72 C 0.50518 0.48083 0.95049 0.0
N73 N 0.52918 0.46745 0.92686 0.0
N74 N 0.4675 0.51648 0.94214 0.0
C75 C 0.52002 0.4608 0.98171 0.0
C76 C 0.46988 0.52486 0.91252 0.0
N77 N 0.50782 0.4952 0.90318 0.0
C78 C 0.43683 0.56371 0.89288 0.0
H79 H 0.48573 0.46168 0.99641 0.0
H80 H 0.55125 0.48572 0.98842 0.0
H81 H 0.53547 0.4208 0.98409 0.0
H82 H 0.45699 0.60163 0.88963 0.0
H83 H 0.39792 0.56862 0.90274 0.0
H84 H 0.43116 0.55195 0.87123 0.0
C85 C 0.49536 0.5264 0.07991 0.0
N86 N 0.51296 0.54918 0.10208 0.0
N87 N 0.45078 0.49992 0.08784 0.0
C88 C 0.52303 0.52786 0.0511 0.0
C89 C 0.44178 0.50766 0.11559 0.0
N90 N 0.47934 0.53816 0.12414 0.0
C91 C 0.39895 0.48184 0.13513 0.0
H92 H 0.49531 0.52146 0.03375 0.0
H93 H 0.55312 0.49685 0.05342 0.0
H94 H 0.54293 0.56547 0.04437 0.0
H95 H 0.41637 0.45048 0.15133 0.0
H96 H 0.36838 0.46534 0.12244 0.0
H97 H 0.38023 0.50981 0.14735 0.0
H98 H 0.1648 0.18064 0.9728 0.0
H99 H 0.22183 0.25341 0.97789 0.0
H100 H 0.27579 0.17228 0.06121 0.0
H101 H 0.2193 0.09944 0.05638 0.0
H102 H 0.23603 0.2703 0.06331 0.0
H103 H 0.35545 0.18765 0.00465 0.0
H104 H 0.38376 0.15177 0.96136 0.0
H105 H 0.36004 0.29931 0.90703 0.0
H106 H 0.33071 0.3359 0.94996 0.0
H107 H 0.45181 0.3979 0.10565 0.0
H108 H 0.40374 0.33317 0.08389 0.0
H109 H 0.34813 0.45244 0.01511 0.0
H110 H 0.39561 0.51756 0.03757 0.0
H111 H 0.3832 0.34523 0.99977 0.0
H112 H 0.26489 0.42866 0.05771 0.0
H113 H 0.24116 0.46629 0.10117 0.0
H114 H 0.26305 0.31877 0.15585 0.0
H115 H 0.2879 0.28047 0.11271 0.0
C116 C 0.18941 0.17791 0.99201 0.0
C117 C 0.18713 0.13433 0.01432 0.0
C118 C 0.22207 0.21949 0.99481 0.0
C119 C 0.25279 0.21819 0.01996 0.0
C120 C 0.25219 0.17399 0.04167 0.0
C121 C 0.21995 0.13233 0.03881 0.0
C122 C 0.28226 0.26427 0.02504 0.0
C123 C 0.26829 0.28647 0.04943 0.0
C124 C 0.32311 0.2865 0.00632 0.0
C125 C 0.3401 0.26432 0.98047 0.0
C126 C 0.35559 0.21229 0.98342 0.0
C127 C 0.37199 0.19186 0.95896 0.0
C128 C 0.37348 0.22318 0.93144 0.0
C129 C 0.3587 0.27505 0.92835 0.0
C130 C 0.34219 0.29565 0.95274 0.0
C131 C 0.42968 0.40991 0.08574 0.0
C132 C 0.42659 0.46219 0.07327 0.0
C133 C 0.40269 0.37318 0.07325 0.0
C134 C 0.3725 0.38825 0.048 0.0
C135 C 0.37157 0.44024 0.03452 0.0
C136 C 0.39828 0.47721 0.04729 0.0
C137 C 0.33744 0.35002 0.03825 0.0
C138 C 0.35023 0.32942 0.01317 0.0
C139 C 0.29503 0.32938 0.05609 0.0
C140 C 0.27865 0.3518 0.08201 0.0
C141 C 0.265 0.40432 0.07903 0.0
C142 C 0.25132 0.42577 0.1036 0.0
C143 C 0.25072 0.39496 0.13127 0.0
C144 C 0.26359 0.34259 0.1344 0.0
C145 C 0.27742 0.32097 0.10989 0.0
H146 H 0.24018 0.41164 0.15028 0.0
H147 H 0.38627 0.2073 0.91254 0.0
H148 H 0.11683 0.79601 0.00849 0.0
H149 H 0.18056 0.72715 0.00691 0.0
H150 H 0.30029 0.81763 0.03992 0.0
H151 H 0.23642 0.88702 0.04173 0.0
H152 H 0.33039 0.78222 0.99001 0.0
H153 H 0.25851 0.71125 0.08232 0.0
H154 H 0.19036 0.68205 0.11914 0.0
H155 H 0.13831 0.56896 0.06879 0.0
H156 H 0.2055 0.59809 0.03136 0.0
H157 H 0.50719 0.58121 0.97528 0.0
H158 H 0.45733 0.63846 1.00212 0.0
H159 H 0.31264 0.57414 0.97611 0.0
H160 H 0.36303 0.51607 0.9501 0.0
H161 H 0.30593 0.59697 0.0315 0.0
H162 H 0.36379 0.68083 0.93535 0.0
H163 H 0.43144 0.70814 0.89787 0.0
H164 H 0.50814 0.79627 0.95539 0.0
H165 H 0.44127 0.76877 0.99341 0.0
C166 C 0.15656 0.80117 0.01573 0.0
C167 C 0.17161 0.84718 0.02508 0.0
C168 C 0.19286 0.76153 0.01503 0.0
C169 C 0.24505 0.76707 0.02354 0.0
C170 C 0.26009 0.8125 0.03342 0.0
C171 C 0.22356 0.85205 0.03446 0.0
C172 C 0.28448 0.72731 0.01938 0.0
C173 C 0.32577 0.7419 0.99969 0.0
C174 C 0.27786 0.67455 0.03157 0.0
C175 C 0.23687 0.65722 0.05387 0.0
C176 C 0.23219 0.68053 0.07891 0.0
C177 C 0.19377 0.66391 0.09994 0.0
C178 C 0.15995 0.62375 0.09628 0.0
C179 C 0.1645 0.6001 0.07159 0.0
C180 C 0.20278 0.61665 0.05046 0.0
C181 C 0.46479 0.57899 0.9759 0.0
C182 C 0.43848 0.54548 0.96038 0.0
C183 C 0.43638 0.61152 0.9911 0.0
C184 C 0.38124 0.61124 0.9906 0.0
C185 C 0.35513 0.57517 0.97665 0.0
C186 C 0.38365 0.54245 0.96163 0.0
C187 C 0.35063 0.65194 1.00165 0.0
C188 C 0.31104 0.6375 0.02245 0.0
C189 C 0.35842 0.70488 0.99035 0.0
C190 C 0.39788 0.72239 0.9673 0.0
C191 C 0.39522 0.70585 0.94004 0.0
C192 C 0.43342 0.72134 0.91871 0.0
C193 C 0.47413 0.75384 0.92427 0.0
C194 C 0.47662 0.77104 0.95114 0.0
C195 C 0.43859 0.75553 0.97258 0.0
H196 H 0.50368 0.76579 0.90773 0.0
H197 H 0.13028 0.6109 0.1126 0.0
H198 H 0.82799 0.92552 0.04446 0.0
H199 H 0.75969 0.86121 0.05887 0.0
H200 H 0.86168 0.74232 0.0366 0.0
H201 H 0.92948 0.80694 0.02099 0.0
H202 H 0.76432 0.72618 0.02104 0.0
H203 H 0.84653 0.76547 0.10802 0.0
H204 H 0.87723 0.82506 0.14009 0.0
H205 H 0.71866 0.87409 0.15116 0.0
H206 H 0.68711 0.81573 0.11857 0.0
H207 H 0.61267 0.52121 0.09345 0.0
H208 H 0.68849 0.57919 0.08457 0.0
H209 H 0.59139 0.7063 0.10075 0.0
H210 H 0.51591 0.64774 0.11002 0.0
H211 H 0.69023 0.71411 0.12108 0.0
H212 H 0.60967 0.68644 0.03045 0.0
H213 H 0.57544 0.63085 0.99705 0.0
H214 H 0.72739 0.56111 0.99349 0.0
H215 H 0.76256 0.61647 0.02692 0.0
C216 C 0.83569 0.88576 0.04236 0.0
C217 C 0.88427 0.87119 0.03185 0.0
C218 C 0.79672 0.84898 0.05075 0.0
C219 C 0.80609 0.79669 0.04957 0.0
C220 C 0.85373 0.78238 0.03791 0.0
C221 C 0.89243 0.81934 0.029 0.0
C222 C 0.76682 0.75684 0.06129 0.0
C223 C 0.7488 0.72309 0.04307 0.0
C224 C 0.74581 0.75325 0.08991 0.0
C225 C 0.76452 0.78656 0.11061 0.0
C226 C 0.81822 0.78909 0.11721 0.0
C227 C 0.83578 0.82274 0.13543 0.0
C228 C 0.79992 0.8535 0.14755 0.0
C229 C 0.74639 0.85034 0.14169 0.0
C230 C 0.72865 0.817 0.12333 0.0
C231 C 0.60812 0.5614 0.09551 0.0
C232 C 0.55885 0.58073 0.1018 0.0
C233 C 0.65115 0.59441 0.09045 0.0
C234 C 0.64516 0.64727 0.09129 0.0
C235 C 0.59674 0.66571 0.0998 0.0
C236 C 0.55379 0.63251 0.10507 0.0
C237 C 0.6877 0.68404 0.08074 0.0
C238 C 0.70628 0.71707 0.09917 0.0
C239 C 0.70903 0.68723 0.05229 0.0
C240 C 0.68863 0.65534 0.03129 0.0
C241 C 0.63577 0.65925 0.02252 0.0
C242 C 0.61621 0.62778 1.00359 0.0
C243 C 0.64913 0.59221 0.99327 0.0
C244 C 0.70189 0.58856 1.00157 0.0
C245 C 0.72173 0.62013 0.02042 0.0
H246 H 0.6338 0.5676 0.97879 0.0
H247 H 0.81357 0.87977 0.16151 0.0
H248 H 0.85482 0.12507 0.03397 0.0
H249 H 0.78824 0.19184 0.01956 0.0
H250 H 0.88536 0.26057 0.94721 0.0
H251 H 0.95189 0.19412 0.96121 0.0
H252 H 0.78743 0.30151 0.01014 0.0
H253 H 0.80495 0.29092 0.88828 0.0
H254 H 0.83738 0.23078 0.85674 0.0
H255 H 0.79891 0.10181 0.92326 0.0
H256 H 0.76559 0.16114 0.95501 0.0
H257 H 0.62887 0.49802 0.92941 0.0
H258 H 0.70592 0.44134 0.94035 0.0
H259 H 0.60763 0.30827 0.93897 0.0
H260 H 0.53092 0.36529 0.92824 0.0
H261 H 0.70717 0.30107 0.91268 0.0
H262 H 0.63038 0.34329 1.00181 0.0
H263 H 0.59906 0.40618 0.03191 0.0
H264 H 0.75345 0.47145 0.03094 0.0
H265 H 0.78557 0.4093 1.00053 0.0
C266 C 0.86234 0.15472 0.0152 0.0
C267 C 0.90848 0.15378 0.99855 0.0
C268 C 0.82434 0.19299 0.0071 0.0
C269 C 0.83169 0.23076 0.98217 0.0
C270 C 0.87874 0.23143 0.96637 0.0
C271 C 0.9167 0.19331 0.97442 0.0
C272 C 0.78851 0.26676 0.97125 0.0
C273 C 0.76998 0.30154 0.98882 0.0
C274 C 0.76567 0.26669 0.94345 0.0
C275 C 0.7833 0.23049 0.92409 0.0
C276 C 0.80308 0.24971 0.89607 0.0
C277 C 0.82168 0.21579 0.87819 0.0
C278 C 0.82043 0.16255 0.88806 0.0
C279 C 0.80005 0.14307 0.9157 0.0
C280 C 0.78132 0.17682 0.93365 0.0
C281 C 0.62453 0.45673 0.93063 0.0
C282 C 0.57489 0.43551 0.92761 0.0
C283 C 0.66811 0.42449 0.93703 0.0
C284 C 0.66226 0.37067 0.94062 0.0
C285 C 0.61293 0.34971 0.93612 0.0
C286 C 0.56936 0.382 0.92992 0.0
C287 C 0.70632 0.33595 0.95145 0.0
C288 C 0.7249 0.30132 0.9339 0.0
C289 C 0.72903 0.33615 0.97927 0.0
C290 C 0.71031 0.37185 0.99874 0.0
C291 C 0.65764 0.3711 0.00798 0.0
C292 C 0.63972 0.40665 0.02506 0.0
C293 C 0.67419 0.44292 0.03323 0.0
C294 C 0.72678 0.44338 0.02456 0.0
C295 C 0.74489 0.40794 0.00744 0.0
H296 H 0.6602 0.47061 0.04631 0.0
H297 H 0.83532 0.13643 0.87431 0.0
H298 H 0.64531 0.71935 0.48626 0.0
H299 H 0.7119 0.78397 0.49101 0.0
H300 H 0.81853 0.66331 0.52908 0.0
H301 H 0.7513 0.59869 0.52545 0.0
H302 H 0.81342 0.7307 0.56216 0.0
H303 H 0.83713 0.74161 0.45947 0.0
H304 H 0.81342 0.75226 0.4073 0.0
H305 H 0.75625 0.9052 0.41 0.0
H306 H 0.77875 0.8952 0.46231 0.0
H307 H 0.01663 0.90043 0.58039 0.0
H308 H 0.97026 0.83671 0.55677 0.0
H309 H 0.84453 0.9461 0.53289 0.0
H310 H 0.89176 0.00992 0.55631 0.0
H311 H 0.86677 0.88323 0.48986 0.0
H312 H 0.83291 0.86497 0.59431 0.0
H313 H 0.85999 0.85468 0.646 0.0
H314 H 0.94042 0.71392 0.63813 0.0
H315 H 0.91411 0.7236 0.5863 0.0
C316 C 0.68325 0.70651 0.49521 0.0
C317 C 0.69287 0.65395 0.50578 0.0
C318 C 0.72151 0.74354 0.4977 0.0
C319 C 0.7705 0.72862 0.51024 0.0
C320 C 0.781 0.67585 0.51942 0.0
C321 C 0.74251 0.63892 0.51738 0.0
C322 C 0.80819 0.76796 0.51707 0.0
C323 C 0.82582 0.76334 0.54606 0.0
C324 C 0.82349 0.81152 0.49636 0.0
C325 C 0.80909 0.81737 0.46497 0.0
C326 C 0.81894 0.77729 0.44905 0.0
C327 C 0.80582 0.78327 0.41941 0.0
C328 C 0.78319 0.82931 0.40537 0.0
C329 C 0.77368 0.86951 0.42092 0.0
C330 C 0.78662 0.8637 0.45057 0.0
C331 C 0.97961 0.91078 0.5695 0.0
C332 C 0.95703 0.95916 0.57017 0.0
C333 C 0.95324 0.87471 0.5561 0.0
C334 C 0.90367 0.88655 0.54353 0.0
C335 C 0.88266 0.93628 0.54257 0.0
C336 C 0.90928 0.97245 0.55594 0.0
C337 C 0.87129 0.84533 0.53465 0.0
C338 C 0.85458 0.84992 0.50556 0.0
C339 C 0.85684 0.80146 0.55512 0.0
C340 C 0.87196 0.79525 0.58639 0.0
C341 C 0.8566 0.83198 0.60357 0.0
C342 C 0.87177 0.82623 0.63289 0.0
C343 C 0.90209 0.78379 0.6453 0.0
C344 C 0.91703 0.74683 0.62847 0.0
C345 C 0.90192 0.75236 0.59914 0.0
H346 H 0.91388 0.77948 0.66799 0.0
H347 H 0.77313 0.83388 0.38241 0.0
H348 H 0.60856 0.32191 0.49652 0.0
H349 H 0.66644 0.2484 0.49516 0.0
H350 H 0.79144 0.32619 0.53257 0.0
H351 H 0.73334 0.40036 0.53421 0.0
H352 H 0.82061 0.28662 0.48226 0.0
H353 H 0.73754 0.22628 0.57388 0.0
H354 H 0.66317 0.20692 0.60802 0.0
H355 H 0.60176 0.10019 0.55615 0.0
H356 H 0.67536 0.11945 0.52144 0.0
H357 H 0.97939 0.07024 0.47453 0.0
H358 H 0.93378 0.13424 0.49847 0.0
H359 H 0.78475 0.07495 0.47506 0.0
H360 H 0.83081 0.00935 0.45255 0.0
H361 H 0.7766 0.10627 0.5263 0.0
H362 H 0.84696 0.17655 0.4311 0.0
H363 H 0.91744 0.19611 0.39441 0.0
H364 H 0.9979 0.28505 0.45013 0.0
H365 H 0.92821 0.26529 0.48738 0.0
C366 C 0.64826 0.32345 0.50464 0.0
C367 C 0.66639 0.36714 0.51539 0.0
C368 C 0.68118 0.28117 0.50403 0.0
C369 C 0.73304 0.28164 0.51403 0.0
C370 C 0.7514 0.32501 0.52491 0.0
C371 C 0.71817 0.36726 0.52586 0.0
C372 C 0.76849 0.23789 0.51128 0.0
C373 C 0.81181 0.2473 0.49247 0.0
C374 C 0.7561 0.18652 0.52403 0.0
C375 C 0.71186 0.17458 0.54494 0.0
C376 C 0.70799 0.19896 0.56962 0.0
C377 C 0.66599 0.18795 0.5891 0.0
C378 C 0.62772 0.15241 0.58423 0.0
C379 C 0.63143 0.12772 0.55989 0.0
C380 C 0.67333 0.13861 0.54033 0.0
C381 C 0.93691 0.07042 0.47522 0.0
C382 C 0.90824 0.03596 0.46141 0.0
C383 C 0.91089 0.10697 0.4887 0.0
C384 C 0.85583 0.1103 0.48787 0.0
C385 C 0.82723 0.0734 0.47579 0.0
C386 C 0.85333 0.03633 0.46275 0.0
C387 C 0.82812 0.15493 0.49683 0.0
C388 C 0.78614 0.1457 0.51665 0.0
C389 C 0.8412 0.20651 0.48466 0.0
C390 C 0.88272 0.21898 0.46214 0.0
C391 C 0.87985 0.20002 0.43559 0.0
C392 C 0.91963 0.21114 0.4147 0.0
C393 C 0.96219 0.2417 0.41997 0.0
C394 C 0.96496 0.26131 0.44611 0.0
C395 C 0.92534 0.25016 0.46712 0.0
H396 H 0.99296 0.25028 0.40377 0.0
H397 H 0.59523 0.14395 0.59933 0.0
H398 H 0.43489 0.32829 0.51718 0.0
H399 H 0.37042 0.26078 0.5333 0.0
H400 H 0.27186 0.3715 0.56667 0.0
H401 H 0.33738 0.43853 0.55182 0.0
H402 H 0.2734 0.28868 0.6044 0.0
H403 H 0.24573 0.32384 0.50089 0.0
H404 H 0.2697 0.33486 0.44867 0.0
H405 H 0.32236 0.17742 0.46003 0.0
H406 H 0.29934 0.16564 0.51243 0.0
H407 H 0.03201 0.14711 0.60823 0.0
H408 H 0.10417 0.20966 0.5994 0.0
H409 H 0.20939 0.08802 0.58412 0.0
H410 H 0.13708 0.02552 0.59363 0.0
H411 H 0.2065 0.17307 0.53875 0.0
H412 H 0.22813 0.13996 0.64353 0.0
H413 H 0.19837 0.13229 0.69469 0.0
H414 H 0.14809 0.2905 0.67882 0.0
H415 H 0.1775 0.29922 0.62751 0.0
C416 C 0.39925 0.3383 0.52772 0.0
C417 C 0.39107 0.38871 0.53315 0.0
C418 C 0.36232 0.29969 0.53688 0.0
C419 C 0.31584 0.31109 0.5509 0.0
C420 C 0.30742 0.36164 0.55599 0.0
C421 C 0.34479 0.39999 0.54737 0.0
C422 C 0.27644 0.27023 0.56083 0.0
C423 C 0.25838 0.26386 0.58988 0.0
C424 C 0.25738 0.23706 0.54215 0.0
C425 C 0.27135 0.24405 0.51065 0.0
C426 C 0.26282 0.29169 0.4923 0.0
C427 C 0.27616 0.29805 0.46266 0.0
C428 C 0.29769 0.25692 0.45106 0.0
C429 C 0.30578 0.20928 0.46906 0.0
C430 C 0.29256 0.20273 0.49873 0.0
C431 C 0.0711 0.13375 0.60413 0.0
C432 C 0.07989 0.08181 0.60227 0.0
C433 C 0.11208 0.16931 0.59888 0.0
C434 C 0.16214 0.1533 0.59131 0.0
C435 C 0.17112 0.101 0.59011 0.0
C436 C 0.13022 0.06543 0.59567 0.0
C437 C 0.20367 0.19188 0.58212 0.0
C438 C 0.22194 0.19781 0.55321 0.0
C439 C 0.2221 0.22523 0.60073 0.0
C440 C 0.20464 0.22012 0.63161 0.0
C441 C 0.21039 0.17302 0.65089 0.0
C442 C 0.19364 0.16849 0.67992 0.0
C443 C 0.17107 0.21073 0.68996 0.0
C444 C 0.16549 0.25776 0.67101 0.0
C445 C 0.18235 0.26258 0.64197 0.0
H446 H 0.15806 0.20707 0.71244 0.0
H447 H 0.30797 0.26191 0.4281 0.0
H448 H 0.33857 0.61517 0.51911 0.0
H449 H 0.26515 0.67352 0.50387 0.0
H450 H 0.37184 0.78559 0.45743 0.0
H451 H 0.44578 0.72686 0.47202 0.0
H452 H 0.28537 0.82268 0.49576 0.0
H453 H 0.31722 0.72828 0.41638 0.0
H454 H 0.33204 0.64922 0.39545 0.0
H455 H 0.1827 0.59011 0.42844 0.0
H456 H 0.16738 0.66853 0.44999 0.0
H457 H 0.09259 0.97916 0.4135 0.0
H458 H 0.17211 0.92558 0.42305 0.0
H459 H 0.07649 0.79518 0.45973 0.0
H460 H 0.99732 0.8492 0.45033 0.0
H461 H 0.16037 0.76964 0.42441 0.0
H462 H 0.12729 0.85766 0.50475 0.0
H463 H 0.10888 0.93326 0.52818 0.0
H464 H 0.25609 0.00058 0.49696 0.0
H465 H 0.27499 0.92564 0.47288 0.0
C466 C 0.34663 0.65249 0.50599 0.0
C467 C 0.39799 0.66636 0.49669 0.0
C468 C 0.30461 0.68566 0.49725 0.0
C469 C 0.31325 0.73358 0.47946 0.0
C470 C 0.3646 0.74867 0.47118 0.0
C471 C 0.40665 0.71506 0.47946 0.0
C472 C 0.2681 0.76647 0.46835 0.0
C473 C 0.25853 0.81172 0.47976 0.0
C474 C 0.23246 0.75108 0.44815 0.0
C475 C 0.24143 0.70403 0.43507 0.0
C476 C 0.28778 0.6982 0.41943 0.0
C477 C 0.29622 0.65355 0.40739 0.0
C478 C 0.2584 0.6146 0.41068 0.0
C479 C 0.212 0.62028 0.42594 0.0
C480 C 0.2034 0.66484 0.43805 0.0
C481 C 0.08895 0.93875 0.42299 0.0
C482 C 0.0396 0.9178 0.43127 0.0
C483 C 0.13403 0.90836 0.42856 0.0
C484 C 0.13003 0.85662 0.44231 0.0
C485 C 0.08029 0.83499 0.44908 0.0
C486 C 0.03534 0.8656 0.4438 0.0
C487 C 0.17775 0.82614 0.45163 0.0
C488 C 0.18758 0.78109 0.44008 0.0
C489 C 0.21321 0.84137 0.47202 0.0
C490 C 0.2023 0.8863 0.4867 0.0
C491 C 0.15554 0.88879 0.50263 0.0
C492 C 0.14504 0.93149 0.51608 0.0
C493 C 0.18123 0.97179 0.51398 0.0
C494 C 0.22806 0.96937 0.49851 0.0
C495 C 0.2387 0.92677 0.48497 0.0
H496 H 0.17305 0.00481 0.52442 0.0
H497 H 0.26499 0.58007 0.40134 0.0
H498 H 0.11756 0.96486 0.13681 0.0
H499 H 0.11437 0.95417 0.19017 0.0
H500 H 0.94985 0.99386 0.18614 0.0
H501 H 0.95243 0.00368 0.13291 0.0
H502 H 0.09663 0.01645 0.22644 0.0
H503 H 0.8846 0.93018 0.2452 0.0
H504 H 0.82727 0.86808 0.22615 0.0
H505 H 0.96132 0.80085 0.19068 0.0
H506 H 0.01957 0.86191 0.2099 0.0
H507 H 0.00019 0.05659 0.36311 0.0
H508 H 0.01831 0.05196 0.31189 0.0
H509 H 0.00493 0.88588 0.33118 0.0
H510 H 0.9825 0.89132 0.38203 0.0
H511 H 0.95716 0.91473 0.28444 0.0
H512 H 0.12628 0.95292 0.31563 0.0
H513 H 0.19449 0.99802 0.33917 0.0
H514 H 0.16469 0.13736 0.27837 0.0
H515 H 0.09564 0.09334 0.25475 0.0
C516 C 0.08062 0.97122 0.14725 0.0
C517 C 0.03522 0.98506 0.13045 0.0
C518 C 0.0789 0.96516 0.17782 0.0
C519 C 0.03176 0.97262 0.19232 0.0
C520 C 0.98651 0.9869 0.17558 0.0
C521 C 0.98814 0.99284 0.14505 0.0
C522 C 0.02994 0.96681 0.22484 0.0
C523 C 0.06619 0.99411 0.23913 0.0
C524 C 0.99151 0.93616 0.24168 0.0
C525 C 0.95642 0.90098 0.22881 0.0
C526 C 0.90185 0.90219 0.23331 0.0
C527 C 0.86921 0.86709 0.22255 0.0
C528 C 0.8907 0.83044 0.20733 0.0
C529 C 0.94477 0.82924 0.2025 0.0
C530 C 0.97761 0.86419 0.21325 0.0
C531 C 0.00066 0.01923 0.35627 0.0
C532 C 0.98904 0.97439 0.3763 0.0
C533 C 0.01191 0.01643 0.32708 0.0
C534 C 0.01361 0.96848 0.31749 0.0
C535 C 0.00374 0.92341 0.33786 0.0
C536 C 0.99141 0.92638 0.36696 0.0
C537 C 0.02273 0.96577 0.28598 0.0
C538 C 0.98779 0.93692 0.27183 0.0
C539 C 0.06378 0.99317 0.26952 0.0
C540 C 0.10546 0.01987 0.28355 0.0
C541 C 0.13399 0.99328 0.3074 0.0
C542 C 0.17285 0.01864 0.32075 0.0
C543 C 0.18386 0.07054 0.3103 0.0
C544 C 0.15609 0.09716 0.28645 0.0
C545 C 0.11712 0.072 0.27305 0.0
H546 H 0.21396 0.09012 0.32066 0.0
H547 H 0.86544 0.80287 0.19936 0.0
H548 H 0.02923 0.08766 0.89389 0.0
H549 H 0.02893 0.09156 0.84086 0.0
H550 H 0.05383 0.92706 0.8525 0.0
H551 H 0.05351 0.9226 0.90575 0.0
H552 H 0.11982 0.98521 0.80927 0.0
H553 H 0.93795 0.96688 0.83456 0.0
H554 H 0.85393 0.98679 0.85668 0.0
H555 H 0.85556 0.13923 0.80573 0.0
H556 H 0.94002 0.12041 0.78351 0.0
H557 H 0.05362 0.94357 0.66589 0.0
H558 H 0.06405 0.94272 0.71848 0.0
H559 H 0.01404 0.10195 0.70682 0.0
H560 H 0.00114 0.1015 0.65444 0.0
H561 H 0.96291 0.04765 0.75047 0.0
H562 H 0.14356 0.06239 0.72239 0.0
H563 H 0.22513 0.03877 0.69903 0.0
H564 H 0.22561 0.89095 0.75503 0.0
H565 H 0.14353 0.91324 0.77832 0.0
C566 C 0.03473 0.05225 0.88523 0.0
C567 C 0.04133 0.00477 0.90409 0.0
C568 C 0.0344 0.05457 0.8549 0.0
C569 C 0.0412 0.0096 0.84277 0.0
C570 C 0.04856 0.96222 0.86145 0.0
C571 C 0.04812 0.95972 0.89185 0.0
C572 C 0.04019 0.0122 0.81056 0.0
C573 C 0.08539 0.9983 0.79637 0.0
C574 C 0.99563 0.0304 0.79376 0.0
C575 C 0.94558 0.04241 0.8076 0.0
C576 C 0.92072 0.00486 0.82832 0.0
C577 C 0.87293 0.01588 0.84079 0.0
C578 C 0.84941 0.06421 0.83258 0.0
C579 C 0.8738 0.10177 0.81202 0.0
C580 C 0.92162 0.09094 0.79947 0.0
C581 C 0.04565 0.97845 0.67466 0.0
C582 C 0.02717 0.02278 0.65628 0.0
C583 C 0.05184 0.97812 0.70462 0.0
C584 C 0.04039 0.02248 0.71668 0.0
C585 C 0.02334 0.06733 0.69806 0.0
C586 C 0.01668 0.0674 0.66811 0.0
C587 C 0.04276 0.02095 0.74889 0.0
C588 C 0.99766 0.03497 0.76319 0.0
C589 C 0.08744 0.00273 0.76574 0.0
C590 C 0.13714 0.9894 0.75195 0.0
C591 C 0.16089 0.02473 0.72958 0.0
C592 C 0.20722 0.0116 0.71637 0.0
C593 C 0.23049 0.96341 0.72553 0.0
C594 C 0.20752 0.92827 0.74795 0.0
C595 C 0.1611 0.94114 0.76117 0.0
H596 H 0.26637 0.95331 0.71528 0.0
H597 H 0.81219 0.07249 0.8421 0.0
H598 H 0.47006 0.54862 0.62787 0.0
H599 H 0.47116 0.54369 0.68081 0.0
H600 H 0.62681 0.47794 0.68429 0.0
H601 H 0.62657 0.48403 0.63106 0.0
H602 H 0.47475 0.46657 0.72327 0.0
H603 H 0.69358 0.50983 0.74257 0.0
H604 H 0.76689 0.55948 0.71685 0.0
H605 H 0.6574 0.66249 0.66635 0.0
H606 H 0.58352 0.6139 0.69203 0.0
H607 H 0.51172 0.41281 0.87564 0.0
H608 H 0.52883 0.41358 0.8235 0.0
H609 H 0.55322 0.57832 0.81108 0.0
H610 H 0.53911 0.57667 0.86352 0.0
H611 H 0.61707 0.53913 0.77673 0.0
H612 H 0.43276 0.52434 0.79798 0.0
H613 H 0.35382 0.48531 0.82341 0.0
H614 H 0.38367 0.34419 0.79114 0.0
H615 H 0.46328 0.38218 0.76584 0.0
C616 C 0.50473 0.53332 0.6398 0.0
C617 C 0.5483 0.51682 0.6251 0.0
C618 C 0.5052 0.53036 0.67017 0.0
C619 C 0.54914 0.5107 0.68666 0.0
C620 C 0.59273 0.49404 0.67208 0.0
C621 C 0.59247 0.4974 0.6416 0.0
C622 C 0.54858 0.50699 0.71909 0.0
C623 C 0.50605 0.4823 0.73491 0.0
C624 C 0.58891 0.5281 0.73441 0.0
C625 C 0.63306 0.55782 0.71899 0.0
C626 C 0.68519 0.54315 0.72603 0.0
C627 C 0.72682 0.57111 0.71145 0.0
C628 C 0.7168 0.61399 0.6899 0.0
C629 C 0.66511 0.62914 0.68296 0.0
C630 C 0.62334 0.60136 0.69749 0.0
C631 C 0.52219 0.44877 0.86184 0.0
C632 C 0.52364 0.49474 0.87337 0.0
C633 C 0.53135 0.44939 0.83202 0.0
C634 C 0.54116 0.49623 0.81313 0.0
C635 C 0.54545 0.54174 0.82506 0.0
C636 C 0.53696 0.54093 0.85492 0.0
C637 C 0.54335 0.49858 0.78082 0.0
C638 C 0.58612 0.52296 0.76506 0.0
C639 C 0.50243 0.47863 0.76539 0.0
C640 C 0.45423 0.45592 0.78026 0.0
C641 C 0.42264 0.48489 0.79644 0.0
C642 C 0.37778 0.46296 0.81083 0.0
C643 C 0.36381 0.41226 0.80895 0.0
C644 C 0.39459 0.38343 0.79261 0.0
C645 C 0.43958 0.40514 0.77823 0.0
H646 H 0.32907 0.39534 0.82011 0.0
H647 H 0.74909 0.63556 0.67864 0.0
H648 H 0.55425 0.61868 0.39023 0.0
H649 H 0.54642 0.62732 0.33711 0.0
H650 H 0.5026 0.46705 0.34613 0.0
H651 H 0.50981 0.45807 0.39927 0.0
H652 H 0.59452 0.58225 0.29606 0.0
H653 H 0.40835 0.45452 0.29674 0.0
H654 H 0.3302 0.43116 0.32761 0.0
H655 H 0.34271 0.5727 0.36167 0.0
H656 H 0.42043 0.5972 0.33074 0.0
H657 H 0.55886 0.5009 0.15927 0.0
H658 H 0.57007 0.50862 0.2109 0.0
H659 H 0.43036 0.60296 0.20649 0.0
H660 H 0.41914 0.59426 0.15488 0.0
H661 H 0.42739 0.53269 0.25367 0.0
H662 H 0.55308 0.65445 0.20981 0.0
H663 H 0.62728 0.68612 0.17757 0.0
H664 H 0.72949 0.57532 0.22812 0.0
H665 H 0.65564 0.54217 0.26031 0.0
C666 C 0.54307 0.58515 0.38096 0.0
C667 C 0.53232 0.53771 0.39913 0.0
C668 C 0.53885 0.59017 0.35054 0.0
C669 C 0.52343 0.54802 0.33763 0.0
C670 C 0.51388 0.50032 0.35563 0.0
C671 C 0.51816 0.49521 0.38604 0.0
C672 C 0.51594 0.55408 0.30545 0.0
C673 C 0.55802 0.57145 0.28675 0.0
C674 C 0.46777 0.54157 0.29323 0.0
C675 C 0.42053 0.52742 0.31161 0.0
C676 C 0.39428 0.48074 0.31072 0.0
C677 C 0.35008 0.46729 0.32825 0.0
C678 C 0.3316 0.50035 0.34666 0.0
C679 C 0.35716 0.54703 0.3475 0.0
C680 C 0.40134 0.56068 0.33 0.0
C681 C 0.53118 0.52379 0.16941 0.0
C682 C 0.4882 0.54697 0.15349 0.0
C683 C 0.53749 0.52828 0.19879 0.0
C684 C 0.50121 0.55666 0.2126 0.0
C685 C 0.45874 0.58074 0.19637 0.0
C686 C 0.45236 0.57596 0.16701 0.0
C687 C 0.50649 0.55934 0.24424 0.0
C688 C 0.46392 0.54367 0.26288 0.0
C689 C 0.55372 0.57489 0.25625 0.0
C690 C 0.59865 0.59555 0.23738 0.0
C691 C 0.5913 0.63661 0.21397 0.0
C692 C 0.6333 0.65483 0.19569 0.0
C693 C 0.68304 0.63271 0.20077 0.0
C694 C 0.69092 0.59241 0.2242 0.0
C695 C 0.64899 0.57389 0.24249 0.0
H696 H 0.7155 0.64684 0.18658 0.0
H697 H 0.29741 0.48984 0.36023 0.0
loop_
_geom_bond_atom_site_label_1
_geom_bond_atom_site_label_2
_geom_bond_distance
_geom_bond_site_symmetry_2
_ccdc_geom_bond_type
O0 Zn1 1.953 . S
O0 C16 1.225 . S
Zn1 O0 1.953 . S
Zn1 O2 1.949 1_565 S
Zn1 O8 1.919 . S
Zn1 O13 1.924 1_565 S
O2 Zn1 1.949 1_545 S
O2 Zn3 1.923 1_544 S
O2 Zn4 1.950 1_455 S
O2 Zn5 1.945 1_554 S
Zn3 O2 1.923 1_566 S
Zn3 O6 1.933 . S
Zn3 O9 1.941 . S
Zn3 O10 1.965 1_456 S
Zn4 O2 1.950 1_655 S
Zn4 O11 1.938 1_545 S
Zn4 O12 1.906 . S
Zn4 O22 1.953 . S
Zn5 O2 1.945 1_556 S
Zn5 O7 1.932 . S
Zn5 O14 1.977 1_455 S
Zn5 O15 1.910 . S
O6 Zn3 1.933 . S
O6 C17 1.226 1_565 S
O7 Zn5 1.932 . S
O7 C17 1.307 . S
O8 Zn1 1.919 . S
O8 C19 1.253 . S
O9 Zn3 1.941 . S
O9 C19 1.283 1_556 S
O10 Zn3 1.965 1_654 S
O10 C18 1.303 . S
O11 Zn4 1.938 1_565 S
O11 C18 1.247 . S
O12 Zn4 1.906 . S
O12 C20 1.304 1_554 S
O13 Zn1 1.924 1_545 S
O13 C21 1.311 . S
O14 Zn5 1.977 1_655 S
O14 C20 1.272 . S
O15 Zn5 1.910 . S
O15 C21 1.231 1_556 S
C16 O0 1.225 . S
C16 O22 1.298 1_465 S
C17 O6 1.226 1_545 S
C17 O7 1.307 . S
C18 O10 1.303 . S
C18 O11 1.247 . S
C19 O8 1.253 . S
C19 O9 1.283 1_554 S
C20 O12 1.304 1_556 S
C20 O14 1.272 . S
C21 O13 1.311 . S
C21 O15 1.231 1_554 S
O22 Zn4 1.953 . S
O22 C16 1.298 1_645 S
O23 Zn24 1.953 . S
O23 C39 1.225 . S
Zn24 O23 1.953 . S
Zn24 O25 1.949 . S
Zn24 O31 1.919 . S
Zn24 O36 1.924 . S
O25 Zn24 1.949 . S
O25 Zn26 1.923 . S
O25 Zn27 1.950 . S
O25 Zn28 1.945 . S
Zn26 O25 1.923 . S
Zn26 O29 1.933 . S
Zn26 O32 1.941 . S
Zn26 O33 1.965 . S
Zn27 O25 1.950 . S
Zn27 O34 1.938 . S
Zn27 O35 1.906 . S
Zn27 O45 1.953 . S
Zn28 O25 1.945 . S
Zn28 O30 1.932 . S
Zn28 O37 1.977 . S
Zn28 O38 1.910 . S
O29 Zn26 1.933 . S
O29 C40 1.226 . S
O30 Zn28 1.932 . S
O30 C40 1.307 . S
O31 Zn24 1.919 . S
O31 C42 1.253 . S
O32 Zn26 1.941 . S
O32 C42 1.283 . S
O33 Zn26 1.965 . S
O33 C41 1.303 . S
O34 Zn27 1.938 . S
O34 C41 1.247 . S
O35 Zn27 1.906 . S
O35 C43 1.304 . S
O36 Zn24 1.924 . S
O36 C44 1.311 . S
O37 Zn28 1.977 . S
O37 C43 1.272 . S
O38 Zn28 1.910 . S
O38 C44 1.231 . S
C39 O23 1.225 . S
C39 O45 1.298 . S
C40 O29 1.226 . S
C40 O30 1.307 . S
C41 O33 1.303 . S
C41 O34 1.247 . S
C42 O31 1.253 . S
C42 O32 1.283 . S
C43 O35 1.304 . S
C43 O37 1.272 . S
C44 O36 1.311 . S
C44 O38 1.231 . S
O45 Zn27 1.953 . S
O45 C39 1.298 . S
C46 N47 1.317 1_545 S
C46 N48 1.348 1_455 S
C46 C49 1.485 1_545 S
N47 C46 1.317 1_565 S
N47 N51 1.370 1_565 S
N48 C46 1.348 1_655 S
N48 C50 1.346 . S
C49 C46 1.485 1_565 S
C49 H53 0.959 . S
C49 H54 0.961 1_565 S
C49 H55 0.960 . S
C50 N48 1.346 . S
C50 N51 1.307 1_655 S
C50 C52 1.486 . S
N51 N47 1.370 1_545 S
N51 C50 1.307 1_455 S
C52 C50 1.486 . S
C52 H56 0.960 . S
C52 H57 0.960 . S
C52 H58 0.959 . S
H53 C49 0.959 . S
H54 C49 0.961 1_545 S
H55 C49 0.960 . S
H56 C52 0.960 . S
H57 C52 0.960 . S
H58 C52 0.959 . S
C59 N60 1.317 . S
C59 N61 1.348 1_445 S
C59 C62 1.485 . S
N60 C59 1.317 . S
N60 N64 1.370 . S
N61 C59 1.348 1_665 S
N61 C63 1.346 . S
C62 C59 1.485 . S
C62 H66 0.960 . S
C62 H67 0.961 1_545 S
C62 H68 0.960 . S
C63 N61 1.346 . S
C63 N64 1.307 1_665 S
C63 C65 1.486 . S
N64 N60 1.370 . S
N64 C63 1.307 1_445 S
C65 C63 1.486 . S
C65 H69 0.960 . S
C65 H70 0.960 . S
C65 H71 0.959 . S
H66 C62 0.960 . S
H67 C62 0.961 1_565 S
H68 C62 0.960 . S
H69 C65 0.960 . S
H70 C65 0.960 . S
H71 C65 0.959 . S
C72 N73 1.317 . S
C72 N74 1.348 . S
C72 C75 1.485 . S
N73 C72 1.317 . S
N73 N77 1.370 . S
N74 C72 1.348 . S
N74 C76 1.346 . S
C75 C72 1.485 . S
C75 H79 0.960 . S
C75 H80 0.961 . S
C75 H81 0.960 . S
C76 N74 1.346 . S
C76 N77 1.307 . S
C76 C78 1.486 . S
N77 N73 1.370 . S
N77 C76 1.307 . S
C78 C76 1.486 . S
C78 H82 0.960 . S
C78 H83 0.960 . S
C78 H84 0.959 . S
H79 C75 0.960 . S
H80 C75 0.961 . S
H81 C75 0.960 . S
H82 C78 0.960 . S
H83 C78 0.960 . S
H84 C78 0.959 . S
C85 N86 1.317 . S
C85 N87 1.348 . S
C85 C88 1.485 . S
N86 C85 1.317 . S
N86 N90 1.370 . S
N87 C85 1.348 . S
N87 C89 1.346 . S
C88 C85 1.485 . S
C88 H92 0.960 . S
C88 H93 0.961 . S
C88 H94 0.960 . S
C89 N87 1.346 . S
C89 N90 1.307 . S
C89 C91 1.486 . S
N90 N86 1.370 . S
N90 C89 1.307 . S
C91 C89 1.486 . S
C91 H95 0.960 . S
C91 H96 0.960 . S
C91 H97 0.959 . S
H92 C88 0.960 . S
H93 C88 0.961 . S
H94 C88 0.960 . S
H95 C91 0.960 . S
H96 C91 0.960 . S
H97 C91 0.959 . S
H98 C116 0.951 1_556 S
H99 C118 0.951 1_556 S
H100 C120 0.950 . S
H101 C121 0.950 . S
H102 C123 0.950 . S
H103 C126 0.950 . S
H104 C127 0.950 . S
H105 C129 0.950 . S
H106 C130 0.950 . S
H107 C131 0.951 . S
H108 C133 0.951 . S
H109 C135 0.950 . S
H110 C136 0.950 . S
H111 C138 0.950 . S
H112 C141 0.950 . S
H113 C142 0.950 . S
H114 C144 0.950 . S
H115 C145 0.950 . S
C116 H98 0.951 1_554 S
C116 C117 1.366 . S
C116 C118 1.388 . S
C117 C116 1.366 . S
C117 C121 1.385 . S
C118 H99 0.951 1_554 S
C118 C116 1.388 . S
C118 C119 1.366 . S
C119 C118 1.366 . S
C119 C120 1.414 . S
C119 C122 1.499 . S
C120 H100 0.950 . S
C120 C119 1.414 . S
C120 C121 1.374 . S
C121 H101 0.950 . S
C121 C117 1.385 . S
C121 C120 1.374 . S
C122 C119 1.499 . S
C122 C123 1.373 . S
C122 C124 1.389 . S
C123 H102 0.950 . S
C123 C122 1.373 . S
C123 C139 1.377 . S
C124 C122 1.389 . S
C124 C125 1.524 . S
C124 C138 1.377 . S
C125 C124 1.524 . S
C125 C126 1.397 . S
C125 C130 1.363 1_554 S
C126 H103 0.950 . S
C126 C125 1.397 . S
C126 C127 1.334 . S
C127 H104 0.950 . S
C127 C126 1.334 . S
C127 C128 1.287 1_554 S
C128 C127 1.287 1_556 S
C128 C129 1.524 . S
C128 H147 0.913 . S
C129 H105 0.950 . S
C129 C128 1.524 . S
C129 C130 1.415 . S
C130 H106 0.950 . S
C130 C125 1.363 1_556 S
C130 C129 1.415 . S
C131 H107 0.951 . S
C131 C132 1.366 . S
C131 C133 1.388 . S
C132 C131 1.366 . S
C132 C136 1.385 . S
C133 H108 0.951 . S
C133 C131 1.388 . S
C133 C134 1.366 . S
C134 C133 1.366 . S
C134 C135 1.414 . S
C134 C137 1.499 . S
C135 H109 0.950 . S
C135 C134 1.414 . S
C135 C136 1.374 . S
C136 H110 0.950 . S
C136 C132 1.385 . S
C136 C135 1.374 . S
C137 C134 1.499 . S
C137 C138 1.373 . S
C137 C139 1.389 . S
C138 H111 0.950 . S
C138 C124 1.377 . S
C138 C137 1.373 . S
C139 C123 1.377 . S
C139 C137 1.389 . S
C139 C140 1.524 . S
C140 C139 1.524 . S
C140 C141 1.397 . S
C140 C145 1.363 . S
C141 H112 0.950 . S
C141 C140 1.397 . S
C141 C142 1.334 . S
C142 H113 0.950 . S
C142 C141 1.334 . S
C142 C143 1.287 . S
C143 C142 1.287 . S
C143 C144 1.524 . S
C143 H146 0.999 . S
C144 H114 0.950 . S
C144 C143 1.524 . S
C144 C145 1.415 . S
C145 H115 0.950 . S
C145 C140 1.363 . S
C145 C144 1.415 . S
H146 C143 0.999 . S
H147 C128 0.913 . S
H148 C166 0.951 1_554 S
H149 C168 0.951 . S
H150 C170 0.950 . S
H151 C171 0.950 . S
H152 C173 0.950 . S
H153 C176 0.950 . S
H154 C177 0.950 . S
H155 C179 0.950 . S
H156 C180 0.950 . S
H157 C181 0.951 . S
H158 C183 0.951 . S
H159 C185 0.950 . S
H160 C186 0.950 . S
H161 C188 0.950 . S
H162 C191 0.950 . S
H163 C192 0.950 . S
H164 C194 0.950 . S
H165 C195 0.950 . S
C166 H148 0.951 1_556 S
C166 C167 1.366 . S
C166 C168 1.388 . S
C167 C166 1.366 . S
C167 C171 1.385 . S
C168 H149 0.951 . S
C168 C166 1.388 . S
C168 C169 1.366 . S
C169 C168 1.366 . S
C169 C170 1.414 . S
C169 C172 1.499 . S
C170 H150 0.950 . S
C170 C169 1.414 . S
C170 C171 1.374 . S
C171 H151 0.950 . S
C171 C167 1.385 . S
C171 C170 1.374 . S
C172 C169 1.499 . S
C172 C173 1.373 . S
C172 C174 1.389 . S
C173 H152 0.950 . S
C173 C172 1.373 . S
C173 C189 1.377 . S
C174 C172 1.389 . S
C174 C175 1.524 1_556 S
C174 C188 1.377 . S
C175 C174 1.524 1_554 S
C175 C176 1.397 . S
C175 C180 1.363 . S
C176 H153 0.950 . S
C176 C175 1.397 . S
C176 C177 1.334 . S
C177 H154 0.950 . S
C177 C176 1.334 . S
C177 C178 1.287 . S
C178 C177 1.287 . S
C178 C179 1.524 . S
C178 H197 0.913 . S
C179 H155 0.950 . S
C179 C178 1.524 . S
C179 C180 1.415 . S
C180 H156 0.950 . S
C180 C175 1.363 . S
C180 C179 1.415 . S
C181 H157 0.951 . S
C181 C182 1.366 . S
C181 C183 1.388 . S
C182 C181 1.366 . S
C182 C186 1.385 . S
C183 H158 0.951 . S
C183 C181 1.388 . S
C183 C184 1.366 . S
C184 C183 1.366 . S
C184 C185 1.414 . S
C184 C187 1.499 . S
C185 H159 0.950 . S
C185 C184 1.414 . S
C185 C186 1.374 . S
C186 H160 0.950 . S
C186 C182 1.385 . S
C186 C185 1.374 . S
C187 C184 1.499 . S
C187 C188 1.373 . S
C187 C189 1.389 . S
C188 H161 0.950 . S
C188 C174 1.377 . S
C188 C187 1.373 . S
C189 C173 1.377 . S
C189 C187 1.389 . S
C189 C190 1.524 . S
C190 C189 1.524 . S
C190 C191 1.397 . S
C190 C195 1.363 . S
C191 H162 0.950 . S
C191 C190 1.397 . S
C191 C192 1.334 . S
C192 H163 0.950 . S
C192 C191 1.334 . S
C192 C193 1.287 . S
C193 C192 1.287 . S
C193 C194 1.524 . S
C193 H196 0.999 . S
C194 H164 0.950 . S
C194 C193 1.524 . S
C194 C195 1.415 . S
C195 H165 0.950 . S
C195 C190 1.363 . S
C195 C194 1.415 . S
H196 C193 0.999 . S
H197 C178 0.913 . S
H198 C216 0.951 . S
H199 C218 0.951 . S
H200 C220 0.950 . S
H201 C221 0.950 . S
H202 C223 0.950 . S
H203 C226 0.950 . S
H204 C227 0.950 . S
H205 C229 0.950 . S
H206 C230 0.950 . S
H207 C231 0.951 . S
H208 C233 0.951 . S
H209 C235 0.950 . S
H210 C236 0.950 . S
H211 C238 0.950 . S
H212 C241 0.950 . S
H213 C242 0.950 . S
H214 C244 0.950 . S
H215 C245 0.950 . S
C216 H198 0.951 . S
C216 C217 1.366 . S
C216 C218 1.388 . S
C217 C216 1.366 . S
C217 C221 1.385 . S
C218 H199 0.951 . S
C218 C216 1.388 . S
C218 C219 1.366 . S
C219 C218 1.366 . S
C219 C220 1.414 . S
C219 C222 1.499 . S
C220 H200 0.950 . S
C220 C219 1.414 . S
C220 C221 1.374 . S
C221 H201 0.950 . S
C221 C217 1.385 . S
C221 C220 1.374 . S
C222 C219 1.499 . S
C222 C223 1.373 . S
C222 C224 1.389 . S
C223 H202 0.950 . S
C223 C222 1.373 . S
C223 C239 1.377 . S
C224 C222 1.389 . S
C224 C225 1.524 . S
C224 C238 1.377 . S
C225 C224 1.524 . S
C225 C226 1.397 . S
C225 C230 1.363 . S
C226 H203 0.950 . S
C226 C225 1.397 . S
C226 C227 1.334 . S
C227 H204 0.950 . S
C227 C226 1.334 . S
C227 C228 1.287 . S
C228 C227 1.287 . S
C228 C229 1.524 . S
C228 H247 0.913 . S
C229 H205 0.950 . S
C229 C228 1.524 . S
C229 C230 1.415 . S
C230 H206 0.950 . S
C230 C225 1.363 . S
C230 C229 1.415 . S
C231 H207 0.951 . S
C231 C232 1.366 . S
C231 C233 1.388 . S
C232 C231 1.366 . S
C232 C236 1.385 . S
C233 H208 0.951 . S
C233 C231 1.388 . S
C233 C234 1.366 . S
C234 C233 1.366 . S
C234 C235 1.414 . S
C234 C237 1.499 . S
C235 H209 0.950 . S
C235 C234 1.414 . S
C235 C236 1.374 . S
C236 H210 0.950 . S
C236 C232 1.385 . S
C236 C235 1.374 . S
C237 C234 1.499 . S
C237 C238 1.373 . S
C237 C239 1.389 . S
C238 H211 0.950 . S
C238 C224 1.377 . S
C238 C237 1.373 . S
C239 C223 1.377 . S
C239 C237 1.389 . S
C239 C240 1.524 . S
C240 C239 1.524 . S
C240 C241 1.397 . S
C240 C245 1.363 . S
C241 H212 0.950 . S
C241 C240 1.397 . S
C241 C242 1.334 1_554 S
C242 H213 0.950 . S
C242 C241 1.334 1_556 S
C242 C243 1.287 . S
C243 C242 1.287 . S
C243 C244 1.524 . S
C243 H246 0.999 . S
C244 H214 0.950 . S
C244 C243 1.524 . S
C244 C245 1.415 1_556 S
C245 H215 0.950 . S
C245 C240 1.363 . S
C245 C244 1.415 1_554 S
H246 C243 0.999 . S
H247 C228 0.913 . S
H248 C266 0.951 . S
H249 C268 0.951 . S
H250 C270 0.950 . S
H251 C271 0.941 1_554 S
H252 C273 0.950 1_554 S
H253 C276 0.950 . S
H254 C277 0.950 . S
H255 C279 0.950 . S
H256 C280 0.950 . S
H257 C281 0.951 . S
H258 C283 0.951 . S
H259 C285 0.950 . S
H260 C286 0.950 . S
H261 C288 0.950 . S
H262 C291 0.951 1_556 S
H263 C292 0.950 . S
H264 C294 0.950 . S
H265 C295 0.950 . S
C266 H248 0.951 . S
C266 C267 1.366 . S
C266 C268 1.388 . S
C267 C266 1.366 . S
C267 C271 1.385 . S
C268 H249 0.951 . S
C268 C266 1.388 . S
C268 C269 1.366 . S
C269 C268 1.366 . S
C269 C270 1.414 . S
C269 C272 1.499 . S
C270 H250 0.950 . S
C270 C269 1.414 . S
C270 C271 1.374 . S
C271 H251 0.941 1_556 S
C271 C267 1.385 . S
C271 C270 1.374 . S
C272 C269 1.499 . S
C272 C273 1.373 . S
C272 C274 1.389 . S
C273 H252 0.950 1_556 S
C273 C272 1.373 . S
C273 C289 1.377 . S
C274 C272 1.389 . S
C274 C275 1.524 . S
C274 C288 1.377 . S
C275 C274 1.524 . S
C275 C276 1.397 . S
C275 C280 1.363 . S
C276 H253 0.950 . S
C276 C275 1.397 . S
C276 C277 1.334 . S
C277 H254 0.950 . S
C277 C276 1.334 . S
C277 C278 1.287 . S
C278 C277 1.287 . S
C278 C279 1.524 . S
C278 H297 0.913 . S
C279 H255 0.950 . S
C279 C278 1.524 . S
C279 C280 1.415 . S
C280 H256 0.950 . S
C280 C275 1.363 . S
C280 C279 1.415 . S
C281 H257 0.951 . S
C281 C282 1.366 . S
C281 C283 1.388 . S
C282 C281 1.366 . S
C282 C286 1.385 . S
C283 H258 0.951 . S
C283 C281 1.388 . S
C283 C284 1.366 . S
C284 C283 1.366 . S
C284 C285 1.414 . S
C284 C287 1.499 . S
C285 H259 0.950 . S
C285 C284 1.414 . S
C285 C286 1.374 . S
C286 H260 0.950 . S
C286 C282 1.385 . S
C286 C285 1.374 . S
C287 C284 1.499 . S
C287 C288 1.373 . S
C287 C289 1.389 . S
C288 H261 0.950 . S
C288 C274 1.377 . S
C288 C287 1.373 . S
C289 C273 1.377 . S
C289 C287 1.389 . S
C289 C290 1.524 1_556 S
C290 C289 1.524 1_554 S
C290 C291 1.397 . S
C290 C295 1.363 . S
C291 H262 0.951 1_554 S
C291 C290 1.397 . S
C291 C292 1.334 . S
C292 H263 0.950 . S
C292 C291 1.334 . S
C292 C293 1.287 . S
C293 C292 1.287 . S
C293 C294 1.524 . S
C293 H296 0.999 . S
C294 H264 0.950 . S
C294 C293 1.524 . S
C294 C295 1.415 . S
C295 H265 0.950 . S
C295 C290 1.363 . S
C295 C294 1.415 . S
H296 C293 0.999 . S
H297 C278 0.913 . S
H298 C316 0.951 . S
H299 C318 0.951 . S
H300 C320 0.950 . S
H301 C321 0.950 . S
H302 C323 0.950 . S
H303 C326 0.950 . S
H304 C327 0.950 . S
H305 C329 0.950 . S
H306 C330 0.950 . S
H307 C331 0.951 1_455 S
H308 C333 0.951 . S
H309 C335 0.950 . S
H310 C336 0.950 . S
H311 C338 0.950 . S
H312 C341 0.950 . S
H313 C342 0.950 . S
H314 C344 0.950 . S
H315 C345 0.950 . S
C316 H298 0.951 . S
C316 C317 1.366 . S
C316 C318 1.388 . S
C317 C316 1.366 . S
C317 C321 1.385 . S
C318 H299 0.951 . S
C318 C316 1.388 . S
C318 C319 1.366 . S
C319 C318 1.366 . S
C319 C320 1.414 . S
C319 C322 1.499 . S
C320 H300 0.950 . S
C320 C319 1.414 . S
C320 C321 1.374 . S
C321 H301 0.950 . S
C321 C317 1.385 . S
C321 C320 1.374 . S
C322 C319 1.499 . S
C322 C323 1.373 . S
C322 C324 1.389 . S
C323 H302 0.950 . S
C323 C322 1.373 . S
C323 C339 1.377 . S
C324 C322 1.389 . S
C324 C325 1.524 . S
C324 C338 1.377 . S
C325 C324 1.524 . S
C325 C326 1.397 . S
C325 C330 1.363 . S
C326 H303 0.950 . S
C326 C325 1.397 . S
C326 C327 1.334 . S
C327 H304 0.950 . S
C327 C326 1.334 . S
C327 C328 1.287 . S
C328 C327 1.287 . S
C328 C329 1.524 . S
C328 H347 0.913 . S
C329 H305 0.950 . S
C329 C328 1.524 . S
C329 C330 1.415 . S
C330 H306 0.950 . S
C330 C325 1.363 . S
C330 C329 1.415 . S
C331 H307 0.951 1_655 S
C331 C332 1.366 . S
C331 C333 1.388 . S
C332 C331 1.366 . S
C332 C336 1.385 . S
C333 H308 0.951 . S
C333 C331 1.388 . S
C333 C334 1.366 . S
C334 C333 1.366 . S
C334 C335 1.414 . S
C334 C337 1.499 . S
C335 H309 0.950 . S
C335 C334 1.414 . S
C335 C336 1.374 . S
C336 H310 0.950 . S
C336 C332 1.385 . S
C336 C335 1.374 . S
C337 C334 1.499 . S
C337 C338 1.373 . S
C337 C339 1.389 . S
C338 H311 0.950 . S
C338 C324 1.377 . S
C338 C337 1.373 . S
C339 C323 1.377 . S
C339 C337 1.389 . S
C339 C340 1.524 . S
C340 C339 1.524 . S
C340 C341 1.397 . S
C340 C345 1.363 . S
C341 H312 0.950 . S
C341 C340 1.397 . S
C341 C342 1.334 . S
C342 H313 0.950 . S
C342 C341 1.334 . S
C342 C343 1.287 . S
C343 C342 1.287 . S
C343 C344 1.524 . S
C343 H346 0.999 . S
C344 H314 0.950 . S
C344 C343 1.524 . S
C344 C345 1.415 . S
C345 H315 0.950 . S
C345 C340 1.363 . S
C345 C344 1.415 . S
H346 C343 0.999 . S
H347 C328 0.913 . S
H348 C366 0.951 . S
H349 C368 0.951 . S
H350 C370 0.950 . S
H351 C371 0.950 . S
H352 C373 0.950 . S
H353 C376 0.950 . S
H354 C377 0.950 . S
H355 C379 0.950 . S
H356 C380 0.950 . S
H357 C381 0.951 . S
H358 C383 0.951 . S
H359 C385 0.950 . S
H360 C386 0.950 . S
H361 C388 0.950 . S
H362 C391 0.950 . S
H363 C392 0.950 . S
H364 C394 0.950 . S
H365 C395 0.950 . S
C366 H348 0.951 . S
C366 C367 1.366 . S
C366 C368 1.388 . S
C367 C366 1.366 . S
C367 C371 1.385 . S
C368 H349 0.951 . S
C368 C366 1.388 . S
C368 C369 1.366 . S
C369 C368 1.366 . S
C369 C370 1.414 . S
C369 C372 1.499 . S
C370 H350 0.950 . S
C370 C369 1.414 . S
C370 C371 1.374 . S
C371 H351 0.950 . S
C371 C367 1.385 . S
C371 C370 1.374 . S
C372 C369 1.499 . S
C372 C373 1.373 . S
C372 C374 1.389 . S
C373 H352 0.950 . S
C373 C372 1.373 . S
C373 C389 1.377 . S
C374 C372 1.389 . S
C374 C375 1.524 . S
C374 C388 1.377 . S
C375 C374 1.524 . S
C375 C376 1.397 . S
C375 C380 1.363 . S
C376 H353 0.950 . S
C376 C375 1.397 . S
C376 C377 1.334 . S
C377 H354 0.950 . S
C377 C376 1.334 . S
C377 C378 1.287 . S
C378 C377 1.287 . S
C378 C379 1.524 . S
C378 H397 0.913 . S
C379 H355 0.950 . S
C379 C378 1.524 . S
C379 C380 1.415 . S
C380 H356 0.950 . S
C380 C375 1.363 . S
C380 C379 1.415 . S
C381 H357 0.951 . S
C381 C382 1.366 . S
C381 C383 1.388 . S
C382 C381 1.366 . S
C382 C386 1.385 . S
C383 H358 0.951 . S
C383 C381 1.388 . S
C383 C384 1.366 . S
C384 C383 1.366 . S
C384 C385 1.414 . S
C384 C387 1.499 . S
C385 H359 0.950 . S
C385 C384 1.414 . S
C385 C386 1.374 . S
C386 H360 0.950 . S
C386 C382 1.385 . S
C386 C385 1.374 . S
C387 C384 1.499 . S
C387 C388 1.373 . S
C387 C389 1.389 . S
C388 H361 0.950 . S
C388 C374 1.377 . S
C388 C387 1.373 . S
C389 C373 1.377 . S
C389 C387 1.389 . S
C389 C390 1.524 . S
C390 C389 1.524 . S
C390 C391 1.397 . S
C390 C395 1.363 . S
C391 H362 0.950 . S
C391 C390 1.397 . S
C391 C392 1.334 . S
C392 H363 0.950 . S
C392 C391 1.334 . S
C392 C393 1.287 . S
C393 C392 1.287 . S
C393 C394 1.524 . S
C393 H396 0.999 . S
C394 H364 0.950 . S
C394 C393 1.524 . S
C394 C395 1.415 . S
C395 H365 0.950 . S
C395 C390 1.363 . S
C395 C394 1.415 . S
H396 C393 0.999 . S
H397 C378 0.913 . S
H398 C416 0.951 . S
H399 C418 0.951 . S
H400 C420 0.950 . S
H401 C421 0.950 . S
H402 C423 0.950 . S
H403 C426 0.950 . S
H404 C427 0.950 . S
H405 C429 0.950 . S
H406 C430 0.950 . S
H407 C431 0.951 . S
H408 C433 0.951 . S
H409 C435 0.950 . S
H410 C436 0.950 . S
H411 C438 0.950 . S
H412 C441 0.950 . S
H413 C442 0.950 . S
H414 C444 0.950 . S
H415 C445 0.950 . S
C416 H398 0.951 . S
C416 C417 1.366 . S
C416 C418 1.388 . S
C417 C416 1.366 . S
C417 C421 1.385 . S
C418 H399 0.951 . S
C418 C416 1.388 . S
C418 C419 1.366 . S
C419 C418 1.366 . S
C419 C420 1.414 . S
C419 C422 1.499 . S
C420 H400 0.950 . S
C420 C419 1.414 . S
C420 C421 1.374 . S
C421 H401 0.950 . S
C421 C417 1.385 . S
C421 C420 1.374 . S
C422 C419 1.499 . S
C422 C423 1.373 . S
C422 C424 1.389 . S
C423 H402 0.950 . S
C423 C422 1.373 . S
C423 C439 1.377 . S
C424 C422 1.389 . S
C424 C425 1.524 . S
C424 C438 1.377 . S
C425 C424 1.524 . S
C425 C426 1.397 . S
C425 C430 1.363 . S
C426 H403 0.950 . S
C426 C425 1.397 . S
C426 C427 1.334 . S
C427 H404 0.950 . S
C427 C426 1.334 . S
C427 C428 1.287 . S
C428 C427 1.287 . S
C428 C429 1.524 . S
C428 H447 0.913 . S
C429 H405 0.950 . S
C429 C428 1.524 . S
C429 C430 1.415 . S
C430 H406 0.950 . S
C430 C425 1.363 . S
C430 C429 1.415 . S
C431 H407 0.951 . S
C431 C432 1.366 . S
C431 C433 1.388 . S
C432 C431 1.366 . S
C432 C436 1.385 . S
C433 H408 0.951 . S
C433 C431 1.388 . S
C433 C434 1.366 . S
C434 C433 1.366 . S
C434 C435 1.414 . S
C434 C437 1.499 . S
C435 H409 0.950 . S
C435 C434 1.414 . S
C435 C436 1.374 . S
C436 H410 0.950 . S
C436 C432 1.385 . S
C436 C435 1.374 . S
C437 C434 1.499 . S
C437 C438 1.373 . S
C437 C439 1.389 . S
C438 H411 0.950 . S
C438 C424 1.377 . S
C438 C437 1.373 . S
C439 C423 1.377 . S
C439 C437 1.389 . S
C439 C440 1.524 . S
C440 C439 1.524 . S
C440 C441 1.397 . S
C440 C445 1.363 . S
C441 H412 0.950 . S
C441 C440 1.397 . S
C441 C442 1.334 . S
C442 H413 0.950 . S
C442 C441 1.334 . S
C442 C443 1.287 . S
C443 C442 1.287 . S
C443 C444 1.524 . S
C443 H446 0.999 . S
C444 H414 0.950 . S
C444 C443 1.524 . S
C444 C445 1.415 . S
C445 H415 0.950 . S
C445 C440 1.363 . S
C445 C444 1.415 . S
H446 C443 0.999 . S
H447 C428 0.913 . S
H448 C466 0.951 . S
H449 C468 0.951 . S
H450 C470 0.950 . S
H451 C471 0.950 . S
H452 C473 0.950 . S
H453 C476 0.950 . S
H454 C477 0.950 . S
H455 C479 0.950 . S
H456 C480 0.950 . S
H457 C481 0.951 . S
H458 C483 0.951 . S
H459 C485 0.950 . S
H460 C486 0.950 . S
H461 C488 0.950 . S
H462 C491 0.950 . S
H463 C492 0.950 . S
H464 C494 0.950 . S
H465 C495 0.950 . S
C466 H448 0.951 . S
C466 C467 1.366 . S
C466 C468 1.388 . S
C467 C466 1.366 . S
C467 C471 1.385 . S
C468 H449 0.951 . S
C468 C466 1.388 . S
C468 C469 1.366 . S
C469 C468 1.366 . S
C469 C470 1.414 . S
C469 C472 1.499 . S
C470 H450 0.950 . S
C470 C469 1.414 . S
C470 C471 1.374 . S
C471 H451 0.950 . S
C471 C467 1.385 . S
C471 C470 1.374 . S
C472 C469 1.499 . S
C472 C473 1.373 . S
C472 C474 1.389 . S
C473 H452 0.950 . S
C473 C472 1.373 . S
C473 C489 1.377 . S
C474 C472 1.389 . S
C474 C475 1.524 . S
C474 C488 1.377 . S
C475 C474 1.524 . S
C475 C476 1.397 . S
C475 C480 1.363 . S
C476 H453 0.950 . S
C476 C475 1.397 . S
C476 C477 1.334 . S
C477 H454 0.950 . S
C477 C476 1.334 . S
C477 C478 1.287 . S
C478 C477 1.287 . S
C478 C479 1.524 . S
C478 H497 0.913 . S
C479 H455 0.950 . S
C479 C478 1.524 . S
C479 C480 1.415 . S
C480 H456 0.950 . S
C480 C475 1.363 . S
C480 C479 1.415 . S
C481 H457 0.951 . S
C481 C482 1.366 . S
C481 C483 1.388 . S
C482 C481 1.366 . S
C482 C486 1.385 . S
C483 H458 0.951 . S
C483 C481 1.388 . S
C483 C484 1.366 . S
C484 C483 1.366 . S
C484 C485 1.414 . S
C484 C487 1.499 . S
C485 H459 0.950 . S
C485 C484 1.414 . S
C485 C486 1.374 . S
C486 H460 0.950 . S
C486 C482 1.385 . S
C486 C485 1.374 . S
C487 C484 1.499 . S
C487 C488 1.373 . S
C487 C489 1.389 . S
C488 H461 0.950 . S
C488 C474 1.377 . S
C488 C487 1.373 . S
C489 C473 1.377 . S
C489 C487 1.389 . S
C489 C490 1.524 . S
C490 C489 1.524 . S
C490 C491 1.397 . S
C490 C495 1.363 . S
C491 H462 0.950 . S
C491 C490 1.397 . S
C491 C492 1.334 . S
C492 H463 0.950 . S
C492 C491 1.334 . S
C492 C493 1.287 . S
C493 C492 1.287 . S
C493 C494 1.524 . S
C493 H496 0.999 . S
C494 H464 0.950 . S
C494 C493 1.524 . S
C494 C495 1.415 . S
C495 H465 0.950 . S
C495 C490 1.363 . S
C495 C494 1.415 . S
H496 C493 0.999 . S
H497 C478 0.913 . S
H498 C516 0.951 . S
H499 C518 0.951 . S
H500 C520 0.950 . S
H501 C521 0.950 . S
H502 C523 0.950 . S
H503 C526 0.950 . S
H504 C527 0.950 . S
H505 C529 0.950 . S
H506 C530 0.950 1_455 S
H507 C531 0.951 1_655 S
H508 C533 0.951 1_655 S
H509 C535 0.950 . S
H510 C536 0.950 . S
H511 C538 0.950 1_655 S
H512 C541 0.950 . S
H513 C542 0.950 . S
H514 C544 0.950 . S
H515 C545 0.950 . S
C516 H498 0.951 . S
C516 C517 1.366 . S
C516 C518 1.388 . S
C517 C516 1.366 . S
C517 C521 1.385 1_565 S
C518 H499 0.951 . S
C518 C516 1.388 . S
C518 C519 1.366 . S
C519 C518 1.366 . S
C519 C520 1.414 1_565 S
C519 C522 1.499 . S
C520 H500 0.950 . S
C520 C519 1.414 1_545 S
C520 C521 1.374 . S
C521 H501 0.950 . S
C521 C517 1.385 1_545 S
C521 C520 1.374 . S
C522 C519 1.499 . S
C522 C523 1.373 1_565 S
C522 C524 1.389 . S
C523 H502 0.950 . S
C523 C522 1.373 1_545 S
C523 C539 1.377 . S
C524 C522 1.389 . S
C524 C525 1.524 1_455 S
C524 C538 1.377 . S
C525 C524 1.524 1_655 S
C525 C526 1.397 . S
C525 C530 1.363 . S
C526 H503 0.950 . S
C526 C525 1.397 . S
C526 C527 1.334 . S
C527 H504 0.950 . S
C527 C526 1.334 . S
C527 C528 1.287 . S
C528 C527 1.287 . S
C528 C529 1.524 . S
C528 H547 0.913 . S
C529 H505 0.950 . S
C529 C528 1.524 . S
C529 C530 1.415 . S
C530 H506 0.950 1_655 S
C530 C525 1.363 . S
C530 C529 1.415 . S
C531 H507 0.951 1_455 S
C531 C532 1.366 1_545 S
C531 C533 1.388 . S
C532 C531 1.366 1_565 S
C532 C536 1.385 . S
C533 H508 0.951 1_455 S
C533 C531 1.388 . S
C533 C534 1.366 1_545 S
C534 C533 1.366 1_565 S
C534 C535 1.414 . S
C534 C537 1.499 . S
C535 H509 0.950 . S
C535 C534 1.414 . S
C535 C536 1.374 . S
C536 H510 0.950 . S
C536 C532 1.385 . S
C536 C535 1.374 . S
C537 C534 1.499 . S
C537 C538 1.373 . S
C537 C539 1.389 1_565 S
C538 H511 0.950 1_455 S
C538 C524 1.377 . S
C538 C537 1.373 . S
C539 C523 1.377 . S
C539 C537 1.389 1_545 S
C539 C540 1.524 . S
C540 C539 1.524 . S
C540 C541 1.397 . S
C540 C545 1.363 . S
C541 H512 0.950 . S
C541 C540 1.397 . S
C541 C542 1.334 . S
C542 H513 0.950 . S
C542 C541 1.334 . S
C542 C543 1.287 . S
C543 C542 1.287 . S
C543 C544 1.524 . S
C543 H546 0.999 . S
C544 H514 0.950 . S
C544 C543 1.524 . S
C544 C545 1.415 . S
C545 H515 0.950 . S
C545 C540 1.363 . S
C545 C544 1.415 . S
H546 C543 0.999 . S
H547 C528 0.913 . S
H548 C566 0.951 . S
H549 C568 0.951 . S
H550 C570 0.950 . S
H551 C571 0.950 . S
H552 C573 0.950 . S
H553 C576 0.950 1_565 S
H554 C577 0.950 . S
H555 C579 0.950 . S
H556 C580 0.950 . S
H557 C581 0.951 . S
H558 C583 0.951 . S
H559 C585 0.950 . S
H560 C586 0.950 . S
H561 C588 0.950 . S
H562 C591 0.950 . S
H563 C592 0.950 1_545 S
H564 C594 0.950 . S
H565 C595 0.950 . S
C566 H548 0.951 . S
C566 C567 1.366 . S
C566 C568 1.388 . S
C567 C566 1.366 . S
C567 C571 1.385 1_545 S
C568 H549 0.951 . S
C568 C566 1.388 . S
C568 C569 1.366 . S
C569 C568 1.366 . S
C569 C570 1.414 1_545 S
C569 C572 1.499 . S
C570 H550 0.950 . S
C570 C569 1.414 1_565 S
C570 C571 1.374 . S
C571 H551 0.950 . S
C571 C567 1.385 1_565 S
C571 C570 1.374 . S
C572 C569 1.499 . S
C572 C573 1.373 1_545 S
C572 C574 1.389 1_455 S
C573 H552 0.950 . S
C573 C572 1.373 1_565 S
C573 C589 1.377 . S
C574 C572 1.389 1_655 S
C574 C575 1.524 . S
C574 C588 1.377 . S
C575 C574 1.524 . S
C575 C576 1.397 . S
C575 C580 1.363 . S
C576 H553 0.950 1_545 S
C576 C575 1.397 . S
C576 C577 1.334 . S
C577 H554 0.950 . S
C577 C576 1.334 . S
C577 C578 1.287 . S
C578 C577 1.287 . S
C578 C579 1.524 . S
C578 H597 0.913 . S
C579 H555 0.950 . S
C579 C578 1.524 . S
C579 C580 1.415 . S
C580 H556 0.950 . S
C580 C575 1.363 . S
C580 C579 1.415 . S
C581 H557 0.951 . S
C581 C582 1.366 1_565 S
C581 C583 1.388 . S
C582 C581 1.366 1_545 S
C582 C586 1.385 . S
C583 H558 0.951 . S
C583 C581 1.388 . S
C583 C584 1.366 1_565 S
C584 C583 1.366 1_545 S
C584 C585 1.414 . S
C584 C587 1.499 . S
C585 H559 0.950 . S
C585 C584 1.414 . S
C585 C586 1.374 . S
C586 H560 0.950 . S
C586 C582 1.385 . S
C586 C585 1.374 . S
C587 C584 1.499 . S
C587 C588 1.373 1_455 S
C587 C589 1.389 1_545 S
C588 H561 0.950 . S
C588 C574 1.377 . S
C588 C587 1.373 1_655 S
C589 C573 1.377 . S
C589 C587 1.389 1_565 S
C589 C590 1.524 . S
C590 C589 1.524 . S
C590 C591 1.397 1_565 S
C590 C595 1.363 . S
C591 H562 0.950 . S
C591 C590 1.397 1_545 S
C591 C592 1.334 1_545 S
C592 H563 0.950 1_565 S
C592 C591 1.334 1_565 S
C592 C593 1.287 . S
C593 C592 1.287 . S
C593 C594 1.524 . S
C593 H596 0.999 . S
C594 H564 0.950 . S
C594 C593 1.524 . S
C594 C595 1.415 . S
C595 H565 0.950 . S
C595 C590 1.363 . S
C595 C594 1.415 . S
H596 C593 0.999 . S
H597 C578 0.913 . S
H598 C616 0.951 . S
H599 C618 0.951 . S
H600 C620 0.950 . S
H601 C621 0.950 . S
H602 C623 0.950 . S
H603 C626 0.950 . S
H604 C627 0.950 . S
H605 C629 0.950 . S
H606 C630 0.950 . S
H607 C631 0.951 . S
H608 C633 0.951 . S
H609 C635 0.950 . S
H610 C636 0.950 . S
H611 C638 0.950 . S
H612 C641 0.950 . S
H613 C642 0.950 . S
H614 C644 0.950 . S
H615 C645 0.950 . S
C616 H598 0.951 . S
C616 C617 1.366 . S
C616 C618 1.388 . S
C617 C616 1.366 . S
C617 C621 1.385 . S
C618 H599 0.951 . S
C618 C616 1.388 . S
C618 C619 1.366 . S
C619 C618 1.366 . S
C619 C620 1.414 . S
C619 C622 1.499 . S
C620 H600 0.950 . S
C620 C619 1.414 . S
C620 C621 1.374 . S
C621 H601 0.950 . S
C621 C617 1.385 . S
C621 C620 1.374 . S
C622 C619 1.499 . S
C622 C623 1.373 . S
C622 C624 1.389 . S
C623 H602 0.950 . S
C623 C622 1.373 . S
C623 C639 1.377 . S
C624 C622 1.389 . S
C624 C625 1.524 . S
C624 C638 1.377 . S
C625 C624 1.524 . S
C625 C626 1.397 . S
C625 C630 1.363 . S
C626 H603 0.950 . S
C626 C625 1.397 . S
C626 C627 1.334 . S
C627 H604 0.950 . S
C627 C626 1.334 . S
C627 C628 1.287 . S
C628 C627 1.287 . S
C628 C629 1.524 . S
C628 H647 0.913 . S
C629 H605 0.950 . S
C629 C628 1.524 . S
C629 C630 1.415 . S
C630 H606 0.950 . S
C630 C625 1.363 . S
C630 C629 1.415 . S
C631 H607 0.951 . S
C631 C632 1.366 . S
C631 C633 1.388 . S
C632 C631 1.366 . S
C632 C636 1.385 . S
C633 H608 0.951 . S
C633 C631 1.388 . S
C633 C634 1.366 . S
C634 C633 1.366 . S
C634 C635 1.414 . S
C634 C637 1.499 . S
C635 H609 0.950 . S
C635 C634 1.414 . S
C635 C636 1.374 . S
C636 H610 0.950 . S
C636 C632 1.385 . S
C636 C635 1.374 . S
C637 C634 1.499 . S
C637 C638 1.373 . S
C637 C639 1.389 . S
C638 H611 0.950 . S
C638 C624 1.377 . S
C638 C637 1.373 . S
C639 C623 1.377 . S
C639 C637 1.389 . S
C639 C640 1.524 . S
C640 C639 1.524 . S
C640 C641 1.397 . S
C640 C645 1.363 . S
C641 H612 0.950 . S
C641 C640 1.397 . S
C641 C642 1.334 . S
C642 H613 0.950 . S
C642 C641 1.334 . S
C642 C643 1.287 . S
C643 C642 1.287 . S
C643 C644 1.524 . S
C643 H646 0.999 . S
C644 H614 0.950 . S
C644 C643 1.524 . S
C644 C645 1.415 . S
C645 H615 0.950 . S
C645 C640 1.363 . S
C645 C644 1.415 . S
H646 C643 0.999 . S
H647 C628 0.913 . S
H648 C666 0.951 . S
H649 C668 0.951 . S
H650 C670 0.950 . S
H651 C671 0.950 . S
H652 C673 0.950 . S
H653 C676 0.950 . S
H654 C677 0.950 . S
H655 C679 0.950 . S
H656 C680 0.950 . S
H657 C681 0.951 . S
H658 C683 0.951 . S
H659 C685 0.950 . S
H660 C686 0.950 . S
H661 C688 0.950 . S
H662 C691 0.950 . S
H663 C692 0.950 . S
H664 C694 0.950 . S
H665 C695 0.950 . S
C666 H648 0.951 . S
C666 C667 1.366 . S
C666 C668 1.388 . S
C667 C666 1.366 . S
C667 C671 1.385 . S
C668 H649 0.951 . S
C668 C666 1.388 . S
C668 C669 1.366 . S
C669 C668 1.366 . S
C669 C670 1.414 . S
C669 C672 1.499 . S
C670 H650 0.950 . S
C670 C669 1.414 . S
C670 C671 1.374 . S
C671 H651 0.950 . S
C671 C667 1.385 . S
C671 C670 1.374 . S
C672 C669 1.499 . S
C672 C673 1.373 . S
C672 C674 1.389 . S
C673 H652 0.950 . S
C673 C672 1.373 . S
C673 C689 1.377 . S
C674 C672 1.389 . S
C674 C675 1.524 . S
C674 C688 1.377 . S
C675 C674 1.524 . S
C675 C676 1.397 . S
C675 C680 1.363 . S
C676 H653 0.950 . S
C676 C675 1.397 . S
C676 C677 1.334 . S
C677 H654 0.950 . S
C677 C676 1.334 . S
C677 C678 1.287 . S
C678 C677 1.287 . S
C678 C679 1.524 . S
C678 H697 0.913 . S
C679 H655 0.950 . S
C679 C678 1.524 . S
C679 C680 1.415 . S
C680 H656 0.950 . S
C680 C675 1.363 . S
C680 C679 1.415 . S
C681 H657 0.951 . S
C681 C682 1.366 . S
C681 C683 1.388 . S
C682 C681 1.366 . S
C682 C686 1.385 . S
C683 H658 0.951 . S
C683 C681 1.388 . S
C683 C684 1.366 . S
C684 C683 1.366 . S
C684 C685 1.414 . S
C684 C687 1.499 . S
C685 H659 0.950 . S
C685 C684 1.414 . S
C685 C686 1.374 . S
C686 H660 0.950 . S
C686 C682 1.385 . S
C686 C685 1.374 . S
C687 C684 1.499 . S
C687 C688 1.373 . S
C687 C689 1.389 . S
C688 H661 0.950 . S
C688 C674 1.377 . S
C688 C687 1.373 . S
C689 C673 1.377 . S
C689 C687 1.389 . S
C689 C690 1.524 . S
C690 C689 1.524 . S
C690 C691 1.397 . S
C690 C695 1.363 . S
C691 H662 0.950 . S
C691 C690 1.397 . S
C691 C692 1.334 . S
C692 H663 0.950 . S
C692 C691 1.334 . S
C692 C693 1.287 . S
C693 C692 1.287 . S
C693 C694 1.524 . S
C693 H696 0.999 . S
C694 H664 0.950 . S
C694 C693 1.524 . S
C694 C695 1.415 . S
C695 H665 0.950 . S
C695 C690 1.363 . S
C695 C694 1.415 . S
H696 C693 0.999 . S
H697 C678 0.913 . S
C132 N87 1.355 . S
C117 C21 1.358 . S
C167 C19 1.353 1_556 S
C182 N74 1.356 . S
C217 C18 1.482 . S
C232 N86 1.508 . S
C267 C20 1.515 . S
C282 N73 1.521 . S
C317 C44 1.358 . S
C332 N61 1.355 . S
C367 C42 1.353 . S
C382 N48 1.356 . S
C432 N60 1.508 . S
C417 C41 1.483 . S
C482 N47 1.521 . S
C467 C43 1.515 . S
C517 C16 1.531 . S
C532 N51 1.513 1_565 S
C567 C17 1.493 . S
C582 N64 1.478 . S
C632 N77 1.512 . S
C617 C39 1.531 . S
C667 C40 1.493 . S
C682 N90 1.478 . S
