# Generated by pormake.
# Topology eea, (3,6)-cn, num edge types: 1
# Building blocks:
#     Node 0, Type 0, BuildingBlock: BETDAH_clean_linker_0, # of connection points: 3
#     Node 1, Type 0, BuildingBlock: BETDAH_clean_linker_0, # of connection points: 3
#     Node 2, Type 0, BuildingBlock: BETDAH_clean_linker_0, # of connection points: 3
#     Node 3, Type 0, BuildingBlock: BETDAH_clean_linker_0, # of connection points: 3
#     Node 4, Type 0, BuildingBlock: BETDAH_clean_linker_0, # of connection points: 3
#     Node 5, Type 0, BuildingBlock: BETDAH_clean_linker_0, # of connection points: 3
#     Node 6, Type 0, BuildingBlock: BETDAH_clean_linker_0, # of connection points: 3
#     Node 7, Type 0, BuildingBlock: BETDAH_clean_linker_0, # of connection points: 3
#     Node 8, Type 0, BuildingBlock: BETDAH_clean_linker_0, # of connection points: 3
#     Node 9, Type 0, BuildingBlock: BETDAH_clean_linker_0, # of connection points: 3
#     Node 10, Type 0, BuildingBlock: BETDAH_clean_linker_0, # of connection points: 3
#     Node 11, Type 0, BuildingBlock: BETDAH_clean_linker_0, # of connection points: 3
#     Node 12, Type 0, BuildingBlock: BETDAH_clean_linker_0, # of connection points: 3
#     Node 13, Type 0, BuildingBlock: BETDAH_clean_linker_0, # of connection points: 3
#     Node 14, Type 0, BuildingBlock: BETDAH_clean_linker_0, # of connection points: 3
#     Node 15, Type 0, BuildingBlock: BETDAH_clean_linker_0, # of connection points: 3
#     Node 16, Type 0, BuildingBlock: BETDAH_clean_linker_0, # of connection points: 3
#     Node 17, Type 0, BuildingBlock: BETDAH_clean_linker_0, # of connection points: 3
#     Node 18, Type 1, BuildingBlock: KUMJIN_clean_sbu_0, # of connection points: 6
#     Node 19, Type 1, BuildingBlock: KUMJIN_clean_sbu_0, # of connection points: 6
#     Node 20, Type 1, BuildingBlock: KUMJIN_clean_sbu_0, # of connection points: 6
#     Node 21, Type 1, BuildingBlock: KUMJIN_clean_sbu_0, # of connection points: 6
#     Node 22, Type 1, BuildingBlock: KUMJIN_clean_sbu_0, # of connection points: 6
#     Node 23, Type 1, BuildingBlock: KUMJIN_clean_sbu_0, # of connection points: 6
#     Node 24, Type 1, BuildingBlock: KUMJIN_clean_sbu_0, # of connection points: 6
#     Node 25, Type 1, BuildingBlock: KUMJIN_clean_sbu_0, # of connection points: 6
#     Node 26, Type 1, BuildingBlock: KUMJIN_clean_sbu_0, # of connection points: 6
#     Edge 27, Type (0, 1), BuildingBlock: XIVTED_clean_linker_0, # of connection points: 2
#     Edge 28, Type (0, 1), BuildingBlock: XIVTED_clean_linker_0, # of connection points: 2
#     Edge 29, Type (0, 1), BuildingBlock: XIVTED_clean_linker_0, # of connection points: 2
#     Edge 30, Type (0, 1), BuildingBlock: XIVTED_clean_linker_0, # of connection points: 2
#     Edge 31, Type (0, 1), BuildingBlock: XIVTED_clean_linker_0, # of connection points: 2
#     Edge 32, Type (0, 1), BuildingBlock: XIVTED_clean_linker_0, # of connection points: 2
#     Edge 33, Type (0, 1), BuildingBlock: XIVTED_clean_linker_0, # of connection points: 2
#     Edge 34, Type (0, 1), BuildingBlock: XIVTED_clean_linker_0, # of connection points: 2
#     Edge 35, Type (0, 1), BuildingBlock: XIVTED_clean_linker_0, # of connection points: 2
#     Edge 36, Type (0, 1), BuildingBlock: XIVTED_clean_linker_0, # of connection points: 2
#     Edge 37, Type (0, 1), BuildingBlock: XIVTED_clean_linker_0, # of connection points: 2
#     Edge 38, Type (0, 1), BuildingBlock: XIVTED_clean_linker_0, # of connection points: 2
#     Edge 39, Type (0, 1), BuildingBlock: XIVTED_clean_linker_0, # of connection points: 2
#     Edge 40, Type (0, 1), BuildingBlock: XIVTED_clean_linker_0, # of connection points: 2
#     Edge 41, Type (0, 1), BuildingBlock: XIVTED_clean_linker_0, # of connection points: 2
#     Edge 42, Type (0, 1), BuildingBlock: XIVTED_clean_linker_0, # of connection points: 2
#     Edge 43, Type (0, 1), BuildingBlock: XIVTED_clean_linker_0, # of connection points: 2
#     Edge 44, Type (0, 1), BuildingBlock: XIVTED_clean_linker_0, # of connection points: 2
#     Edge 45, Type (0, 1), BuildingBlock: XIVTED_clean_linker_0, # of connection points: 2
#     Edge 46, Type (0, 1), BuildingBlock: XIVTED_clean_linker_0, # of connection points: 2
#     Edge 47, Type (0, 1), BuildingBlock: XIVTED_clean_linker_0, # of connection points: 2
#     Edge 48, Type (0, 1), BuildingBlock: XIVTED_clean_linker_0, # of connection points: 2
#     Edge 49, Type (0, 1), BuildingBlock: XIVTED_clean_linker_0, # of connection points: 2
#     Edge 50, Type (0, 1), BuildingBlock: XIVTED_clean_linker_0, # of connection points: 2
#     Edge 51, Type (0, 1), BuildingBlock: XIVTED_clean_linker_0, # of connection points: 2
#     Edge 52, Type (0, 1), BuildingBlock: XIVTED_clean_linker_0, # of connection points: 2
#     Edge 53, Type (0, 1), BuildingBlock: XIVTED_clean_linker_0, # of connection points: 2
#     Edge 54, Type (0, 1), BuildingBlock: XIVTED_clean_linker_0, # of connection points: 2
#     Edge 55, Type (0, 1), BuildingBlock: XIVTED_clean_linker_0, # of connection points: 2
#     Edge 56, Type (0, 1), BuildingBlock: XIVTED_clean_linker_0, # of connection points: 2
#     Edge 57, Type (0, 1), BuildingBlock: XIVTED_clean_linker_0, # of connection points: 2
#     Edge 58, Type (0, 1), BuildingBlock: XIVTED_clean_linker_0, # of connection points: 2
#     Edge 59, Type (0, 1), BuildingBlock: XIVTED_clean_linker_0, # of connection points: 2
#     Edge 60, Type (0, 1), BuildingBlock: XIVTED_clean_linker_0, # of connection points: 2
#     Edge 61, Type (0, 1), BuildingBlock: XIVTED_clean_linker_0, # of connection points: 2
#     Edge 62, Type (0, 1), BuildingBlock: XIVTED_clean_linker_0, # of connection points: 2
#     Edge 63, Type (0, 1), BuildingBlock: XIVTED_clean_linker_0, # of connection points: 2
#     Edge 64, Type (0, 1), BuildingBlock: XIVTED_clean_linker_0, # of connection points: 2
#     Edge 65, Type (0, 1), BuildingBlock: XIVTED_clean_linker_0, # of connection points: 2
#     Edge 66, Type (0, 1), BuildingBlock: XIVTED_clean_linker_0, # of connection points: 2
#     Edge 67, Type (0, 1), BuildingBlock: XIVTED_clean_linker_0, # of connection points: 2
#     Edge 68, Type (0, 1), BuildingBlock: XIVTED_clean_linker_0, # of connection points: 2
#     Edge 69, Type (0, 1), BuildingBlock: XIVTED_clean_linker_0, # of connection points: 2
#     Edge 70, Type (0, 1), BuildingBlock: XIVTED_clean_linker_0, # of connection points: 2
#     Edge 71, Type (0, 1), BuildingBlock: XIVTED_clean_linker_0, # of connection points: 2
#     Edge 72, Type (0, 1), BuildingBlock: XIVTED_clean_linker_0, # of connection points: 2
#     Edge 73, Type (0, 1), BuildingBlock: XIVTED_clean_linker_0, # of connection points: 2
#     Edge 74, Type (0, 1), BuildingBlock: XIVTED_clean_linker_0, # of connection points: 2
#     Edge 75, Type (0, 1), BuildingBlock: XIVTED_clean_linker_0, # of connection points: 2
#     Edge 76, Type (0, 1), BuildingBlock: XIVTED_clean_linker_0, # of connection points: 2
#     Edge 77, Type (0, 1), BuildingBlock: XIVTED_clean_linker_0, # of connection points: 2
#     Edge 78, Type (0, 1), BuildingBlock: XIVTED_clean_linker_0, # of connection points: 2
#     Edge 79, Type (0, 1), BuildingBlock: XIVTED_clean_linker_0, # of connection points: 2
#     Edge 80, Type (0, 1), BuildingBlock: XIVTED_clean_linker_0, # of connection points: 2
# Relax obj value: 0.023
# Max RMSD: 0.163
# Mean RMSD: 0.118
data_MOF--net-eea--node1-KUMJIN_clean_sbu_0--node2-BETDAH_clean_linker_0--edge1-XIVTED_clean_linker_0
_symmetry_space_group_name_H-M    P1
_symmetry_Int_Tables_number       1
_symmetry_cell_setting            triclinic
loop_
_symmetry_equiv_pos_as_xyz
'x, y, z'
_cell_length_a     54.950661
_cell_length_b     56.168217
_cell_length_c     66.782096
_cell_angle_alpha  89.992149
_cell_angle_beta   90.066849
_cell_angle_gamma 119.88388
loop_
_atom_site_label
_atom_site_type_symbol
_atom_site_fract_x
_atom_site_fract_y
_atom_site_fract_z
_atom_type_partial_charge
H0 H 0.26421 0.0812 0.43644 0.0
H1 H 0.27519 0.16105 0.42301 0.0
H2 H 0.24547 0.09902 0.37758 0.0
C3 C 0.26234 0.09507 0.4261 0.0
C4 C 0.25323 0.08639 0.40639 0.0
C5 C 0.27042 0.12198 0.43232 0.0
C6 C 0.26893 0.14022 0.41855 0.0
C7 C 0.26013 0.13177 0.39878 0.0
C8 C 0.25255 0.10515 0.39284 0.0
N9 N 0.26018 0.14999 0.38414 0.0
C10 C 0.24967 0.16756 0.38741 0.0
H11 H 0.94057 0.18559 0.43746 0.0
H12 H 0.86804 0.10616 0.42611 0.0
H13 H 0.93242 0.14416 0.38164 0.0
C14 C 0.92893 0.1679 0.42785 0.0
C15 C 0.93999 0.16726 0.409 0.0
C16 C 0.90288 0.14598 0.43425 0.0
C17 C 0.88798 0.12325 0.42142 0.0
C18 C 0.89878 0.12272 0.40243 0.0
C19 C 0.92454 0.14467 0.39642 0.0
N20 N 0.88425 0.10095 0.38861 0.0
C21 C 0.86164 0.07527 0.39306 0.0
H22 H 0.82941 0.76095 0.43764 0.0
H23 H 0.91437 0.77671 0.43172 0.0
H24 H 0.88113 0.81091 0.38934 0.0
C25 C 0.84912 0.77014 0.42956 0.0
C26 C 0.8523 0.78608 0.41251 0.0
C27 C 0.87123 0.76652 0.43671 0.0
C28 C 0.89721 0.77937 0.42647 0.0
C29 C 0.90068 0.79542 0.40928 0.0
C30 C 0.87829 0.79874 0.40264 0.0
N31 N 0.92609 0.80896 0.39809 0.0
C32 C 0.94978 0.80603 0.39974 0.0
H33 H 0.07157 0.23887 0.59569 0.0
H34 H 0.1422 0.2265 0.60533 0.0
H35 H 0.07701 0.19978 0.64947 0.0
C36 C 0.08256 0.23128 0.60481 0.0
C37 C 0.07091 0.21873 0.62329 0.0
C38 C 0.10825 0.23418 0.59803 0.0
C39 C 0.12254 0.22457 0.6103 0.0
C40 C 0.11112 0.21205 0.62886 0.0
C41 C 0.08543 0.20916 0.63507 0.0
N42 N 0.12447 0.20203 0.64193 0.0
C43 C 0.15002 0.20292 0.63898 0.0
H44 H 0.75386 0.82648 0.595 0.0
H45 H 0.7413 0.89416 0.61013 0.0
H46 H 0.77337 0.86142 0.65422 0.0
C47 C 0.75491 0.84134 0.60582 0.0
C48 C 0.76547 0.84206 0.62513 0.0
C49 C 0.74603 0.85999 0.60025 0.0
C50 C 0.74843 0.87994 0.61411 0.0
C51 C 0.75826 0.88026 0.63359 0.0
C52 C 0.76635 0.86121 0.63901 0.0
N53 N 0.75882 0.89845 0.64847 0.0
C54 C 0.76613 0.9255 0.64474 0.0
H55 H 0.17475 0.92999 0.59331 0.0
H56 H 0.09595 0.85615 0.60419 0.0
H57 H 0.13129 0.9192 0.64902 0.0
C58 C 0.15679 0.91801 0.60288 0.0
C59 C 0.15588 0.92793 0.622 0.0
C60 C 0.13525 0.89223 0.59622 0.0
C61 C 0.11253 0.87608 0.60909 0.0
C62 C 0.11137 0.88603 0.62823 0.0
C63 C 0.13287 0.91175 0.63438 0.0
N64 N 0.08939 0.87112 0.64211 0.0
C65 C 0.06471 0.84659 0.63872 0.0
H66 H 0.92303 0.40657 0.77251 0.0
H67 H 0.9396 0.48878 0.76082 0.0
H68 H 0.90447 0.4275 0.71476 0.0
C69 C 0.9226 0.42149 0.76245 0.0
C70 C 0.91199 0.41348 0.74298 0.0
C71 C 0.933 0.44867 0.76903 0.0
C72 C 0.93123 0.46763 0.75617 0.0
C73 C 0.92071 0.45975 0.73663 0.0
C74 C 0.91154 0.43296 0.7301 0.0
N75 N 0.9218 0.47901 0.72249 0.0
C76 C 0.91144 0.49663 0.72609 0.0
H77 H 0.60687 0.51617 0.76911 0.0
H78 H 0.53358 0.4375 0.7568 0.0
H79 H 0.59594 0.47865 0.71137 0.0
C80 C 0.59476 0.49892 0.75924 0.0
C81 C 0.6046 0.49956 0.73974 0.0
C82 C 0.56873 0.47684 0.76553 0.0
C83 C 0.55335 0.45486 0.75215 0.0
C84 C 0.56325 0.45556 0.73261 0.0
C85 C 0.58853 0.47808 0.72651 0.0
N86 N 0.54814 0.43449 0.71839 0.0
C87 C 0.52656 0.40824 0.72286 0.0
H88 H 0.50037 0.10262 0.7711 0.0
H89 H 0.57902 0.10509 0.75963 0.0
H90 H 0.53989 0.12823 0.71368 0.0
C91 C 0.51797 0.1073 0.76136 0.0
C92 C 0.51784 0.11635 0.74178 0.0
C93 C 0.53968 0.10266 0.76797 0.0
C94 C 0.56208 0.10834 0.75477 0.0
C95 C 0.5623 0.11791 0.7352 0.0
C96 C 0.53992 0.12135 0.72885 0.0
N97 N 0.58392 0.12369 0.72106 0.0
C98 C 0.60971 0.12531 0.72461 0.0
H99 H 0.73893 0.57558 0.92959 0.0
H100 H 0.81084 0.56536 0.93966 0.0
H101 H 0.74612 0.53895 0.98414 0.0
C102 C 0.75036 0.56865 0.93889 0.0
C103 C 0.73909 0.55658 0.95756 0.0
C104 C 0.77622 0.57193 0.93213 0.0
C105 C 0.79104 0.56312 0.9446 0.0
C106 C 0.78003 0.55112 0.96337 0.0
C107 C 0.75421 0.54791 0.96958 0.0
N108 N 0.794 0.54207 0.97671 0.0
C109 C 0.81926 0.54245 0.97352 0.0
H110 H 0.42698 0.16686 0.92772 0.0
H111 H 0.41715 0.23575 0.94466 0.0
H112 H 0.44508 0.19823 0.98789 0.0
C113 C 0.42848 0.18165 0.93877 0.0
C114 C 0.43794 0.18075 0.95818 0.0
C115 C 0.42057 0.20123 0.93368 0.0
C116 C 0.42283 0.22035 0.94829 0.0
C117 C 0.43167 0.21912 0.96781 0.0
C118 C 0.43878 0.1992 0.97265 0.0
N119 N 0.43268 0.2369 0.98321 0.0
C120 C 0.43956 0.26394 0.98006 0.0
H121 H 0.84275 0.26539 0.92646 0.0
H122 H 0.76417 0.19062 0.93599 0.0
H123 H 0.79295 0.25678 0.97835 0.0
C124 C 0.82423 0.2532 0.93547 0.0
C125 C 0.82032 0.26449 0.95309 0.0
C126 C 0.80426 0.22653 0.92916 0.0
C127 C 0.77962 0.2112 0.94059 0.0
C128 C 0.7757 0.2224 0.95838 0.0
C129 C 0.79604 0.24875 0.96441 0.0
N130 N 0.75222 0.20809 0.97123 0.0
C131 C 0.72862 0.18257 0.96807 0.0
H132 H 0.5942 0.74406 0.10258 0.0
H133 H 0.61625 0.82831 0.09311 0.0
H134 H 0.57668 0.76945 0.0461 0.0
C135 C 0.59427 0.75977 0.09312 0.0
C136 C 0.58343 0.75305 0.07357 0.0
C137 C 0.60617 0.7868 0.10041 0.0
C138 C 0.60646 0.80721 0.08802 0.0
C139 C 0.59595 0.80075 0.06842 0.0
C140 C 0.5846 0.7739 0.0613 0.0
N141 N 0.59964 0.8216 0.05486 0.0
C142 C 0.58549 0.83614 0.05675 0.0
H143 H 0.27327 0.85048 0.10364 0.0
H144 H 0.20178 0.77042 0.09253 0.0
H145 H 0.26501 0.80968 0.04746 0.0
C146 C 0.26183 0.83282 0.09398 0.0
C147 C 0.27269 0.83264 0.07493 0.0
C148 C 0.23611 0.81057 0.1005 0.0
C149 C 0.22144 0.78778 0.0877 0.0
C150 C 0.23207 0.78754 0.0686 0.0
C151 C 0.25741 0.80994 0.06238 0.0
N152 N 0.21773 0.76559 0.05487 0.0
C153 C 0.1951 0.73996 0.05943 0.0
H154 H 0.16669 0.43544 0.10587 0.0
H155 H 0.24803 0.44382 0.09512 0.0
H156 H 0.21018 0.47075 0.05082 0.0
C157 C 0.18489 0.44192 0.09636 0.0
C158 C 0.18566 0.45366 0.07761 0.0
C159 C 0.20725 0.43832 0.10294 0.0
C160 C 0.23073 0.4465 0.09029 0.0
C161 C 0.23181 0.45847 0.07149 0.0
C162 C 0.20932 0.46192 0.06542 0.0
N163 N 0.25471 0.46721 0.05795 0.0
C164 C 0.27963 0.46683 0.06088 0.0
H165 H 0.40619 0.91008 0.26309 0.0
H166 H 0.47557 0.89542 0.2703 0.0
H167 H 0.40961 0.86442 0.31381 0.0
C168 C 0.41629 0.90083 0.27138 0.0
C169 C 0.40419 0.88678 0.28941 0.0
C170 C 0.44181 0.90381 0.2641 0.0
C171 C 0.456 0.89337 0.27562 0.0
C172 C 0.44441 0.87953 0.29373 0.0
C173 C 0.41855 0.876 0.30021 0.0
N174 N 0.4575 0.86829 0.30593 0.0
C175 C 0.48388 0.87085 0.3033 0.0
H176 H 0.07944 0.49162 0.26427 0.0
H177 H 0.07641 0.56501 0.27861 0.0
H178 H 0.10411 0.52845 0.32266 0.0
C179 C 0.08311 0.5079 0.27465 0.0
C180 C 0.09306 0.50765 0.29402 0.0
C181 C 0.0768 0.52839 0.26886 0.0
C182 C 0.08094 0.54898 0.28276 0.0
C183 C 0.0904 0.54854 0.30222 0.0
C184 C 0.09623 0.52796 0.3077 0.0
N185 N 0.09343 0.56789 0.31701 0.0
C186 C 0.1015 0.59507 0.31305 0.0
H187 H 0.51109 0.5982 0.26088 0.0
H188 H 0.42664 0.52991 0.26566 0.0
H189 H 0.45625 0.59713 0.30709 0.0
C190 C 0.49108 0.58788 0.26856 0.0
C191 C 0.48653 0.60079 0.28494 0.0
C192 C 0.46973 0.56228 0.26145 0.0
C193 C 0.4433 0.54951 0.27102 0.0
C194 C 0.43863 0.56239 0.28751 0.0
C195 C 0.46017 0.58776 0.29422 0.0
N196 N 0.41254 0.55136 0.29762 0.0
C197 C 0.39054 0.52444 0.29698 0.0
Eu198 Eu 0.48895 0.98469 0.9919 0.0
C199 C 0.55292 0.08522 0.05023 0.0
C200 C 0.60148 0.09653 0.04817 0.0
C201 C 0.59019 0.13237 0.05523 0.0
C202 C 0.57258 0.0772 0.04696 0.0
C203 C 0.56145 0.11279 0.05483 0.0
C204 C 0.61018 0.12425 0.05189 0.0
C205 C 0.51266 0.09915 0.05982 0.0
N206 N 0.52541 0.06576 0.04989 0.0
C207 C 0.50528 0.07207 0.05525 0.0
C208 C 0.54086 0.11968 0.05938 0.0
Eu209 Eu 0.5142 0.02063 0.04096 0.0
N210 N 0.56342 0.05023 0.04358 0.0
C211 C 0.58208 0.04089 0.04276 0.0
C212 C 0.62075 0.08728 0.04614 0.0
C213 C 0.61097 0.05927 0.04372 0.0
H214 H 0.48344 0.05632 0.05547 0.0
H215 H 0.62567 0.05181 0.04252 0.0
H216 H 0.63229 0.13944 0.05268 0.0
H217 H 0.49661 0.10417 0.06363 0.0
H218 H 0.57491 0.01935 0.04076 0.0
H219 H 0.37726 0.9523 0.98889 0.0
H220 H 0.64313 0.10147 0.04691 0.0
H221 H 0.52076 0.95016 0.97701 0.0
H222 H 0.4279 0.98519 0.99131 0.0
H223 H 0.50838 0.90273 0.96807 0.0
H224 H 0.59717 0.15371 0.05856 0.0
H225 H 0.36047 0.90281 0.98425 0.0
H226 H 0.37208 0.86537 0.97835 0.0
H227 H 0.54654 0.14064 0.06298 0.0
H228 H 0.40778 0.85187 0.9725 0.0
N229 N 0.4399 0.95466 0.98881 0.0
C230 C 0.42098 0.9637 0.98928 0.0
C231 C 0.38278 0.91717 0.98537 0.0
C232 C 0.40236 0.90827 0.98356 0.0
C233 C 0.39218 0.94509 0.98792 0.0
C234 C 0.43115 0.92781 0.98522 0.0
H235 H 0.45865 0.86575 0.96826 0.0
N236 N 0.47857 0.93993 0.98261 0.0
C237 C 0.49207 0.90733 0.97204 0.0
C238 C 0.45115 0.92021 0.98198 0.0
C239 C 0.49902 0.93416 0.97707 0.0
C240 C 0.46399 0.88651 0.97223 0.0
C241 C 0.44306 0.89287 0.97693 0.0
O242 O 0.51159 0.99479 0.96343 0.0
O243 O 0.52379 0.0188 0.0088 0.0
O244 O 0.50963 0.04952 0.01963 0.0
O245 O 0.47734 0.01805 0.9968 0.0
O246 O 0.53521 0.99828 0.98867 0.0
O247 O 0.47506 -0.00059 0.96637 0.0
O248 O 0.49288 0.01249 0.06994 0.0
O249 O 0.47906 0.98662 0.02408 0.0
O250 O 0.49351 0.95556 0.01303 0.0
O251 O 0.52549 0.98709 0.03598 0.0
O252 O 0.46829 0.00784 0.04418 0.0
O253 O 0.52707 0.00439 0.06609 0.0
C254 C 0.54458 0.01842 1.00118 0.0
C255 C 0.48595 0.99027 0.93393 0.0
C256 C 0.48981 0.9976 0.89759 0.0
C257 C 0.49704 0.00795 0.91729 0.0
C258 C 0.47107 0.96933 0.89494 0.0
C259 C 0.4673 0.96224 0.93085 0.0
C260 C 0.45991 0.95189 0.91144 0.0
C261 C 0.49094 0.04283 1.00504 0.0
C262 C 0.49459 0.00114 0.95438 0.0
C263 C 0.41443 0.87304 0.97616 0.0
C264 C 0.3941 0.88072 0.9795 0.0
C265 C 0.45862 0.98777 0.03162 0.0
C266 C 0.51948 0.01576 0.09873 0.0
C267 C 0.50885 0.99873 0.11574 0.0
C268 C 0.51901 0.00917 0.13511 0.0
C269 C 0.53977 0.03701 0.13701 0.0
C270 C 0.54018 0.04334 0.1011 0.0
C271 C 0.5502 0.05386 0.12015 0.0
C272 C 0.5122 0.96236 0.02764 0.0
C273 C 0.50895 0.00461 0.07858 0.0
H274 H 0.51166 0.02958 0.91969 0.0
H275 H 0.46472 0.96071 0.88007 0.0
H276 H 0.45858 0.94838 0.94344 0.0
H277 H 0.44546 0.93022 0.90917 0.0
H278 H 0.49301 0.97734 0.11384 0.0
H279 H 0.54774 0.04594 0.15159 0.0
H280 H 0.54857 0.05671 0.08823 0.0
H281 H 0.56611 0.07522 0.12188 0.0
Eu282 Eu 0.0255 0.50535 0.99562 0.0
C283 C 0.91708 0.46471 0.04779 0.0
C284 C 0.90397 0.49977 0.04441 0.0
C285 C 0.868 0.45232 0.05012 0.0
C286 C 0.92458 0.49179 0.04449 0.0
C287 C 0.88878 0.44474 0.05107 0.0
C288 C 0.87559 0.4798 0.04678 0.0
C289 C 0.90393 0.41179 0.05759 0.0
N290 N 0.93768 0.45816 0.04881 0.0
C291 C 0.9317 0.43237 0.05433 0.0
C292 C 0.88231 0.41791 0.05573 0.0
Eu293 Eu 0.98405 0.49368 0.04216 0.0
N294 N 0.9522 0.51056 0.04237 0.0
C295 C 0.96083 0.53794 0.04159 0.0
C296 C 0.91259 0.52767 0.04247 0.0
C297 C 0.94118 0.54687 0.04136 0.0
H298 H 0.94833 0.4275 0.05567 0.0
H299 H 0.94811 0.56855 0.04022 0.0
H300 H 0.85943 0.4855 0.04655 0.0
H301 H 0.89921 0.39123 0.06152 0.0
H302 H 0.98283 0.55299 0.0406 0.0
H303 H 0.06025 0.42952 0.9971 0.0
H304 H 0.89742 0.53465 0.04227 0.0
H305 H 0.06215 0.57189 0.98324 0.0
H306 H 0.02593 0.44554 0.99658 0.0
H307 H 0.11163 0.60801 0.97832 0.0
H308 H 0.8461 0.43723 0.05242 0.0
H309 H 0.11108 0.46309 0.99575 0.0
H310 H 0.14953 0.51218 0.99234 0.0
H311 H 0.86082 0.40196 0.05833 0.0
H312 H 0.16354 0.56076 0.98722 0.0
N313 N 0.05689 0.48792 0.99536 0.0
C314 C 0.04799 0.46047 0.99588 0.0
C315 C 0.09608 0.47027 0.99547 0.0
C316 C 0.10502 0.49828 0.99388 0.0
C317 C 0.06741 0.45127 0.99619 0.0
C318 C 0.08463 0.50655 0.99369 0.0
H319 H 0.14954 0.59663 0.9817 0.0
N320 N 0.07219 0.54074 0.9898 0.0
C321 C 0.10656 0.58725 0.98192 0.0
C322 C 0.09254 0.53383 0.99087 0.0
C323 C 0.0786 0.56678 0.98464 0.0
C324 C 0.1279 0.58076 0.9839 0.0
C325 C 0.12101 0.55369 0.98811 0.0
O326 O 0.02083 0.51872 0.96588 0.0
O327 O 0.98842 0.50447 0.00979 0.0
O328 O 0.95701 0.46048 0.01996 0.0
O329 O 0.99142 0.46037 0.99952 0.0
O330 O 0.01029 0.53583 0.98973 0.0
O331 O 0.01392 0.47756 0.97001 0.0
O332 O 0.98961 0.48146 0.0721 0.0
O333 O 0.02085 0.4942 0.02789 0.0
O334 O 0.05248 0.53757 0.01826 0.0
O335 O 0.01807 0.53878 0.03791 0.0
O336 O 0.99918 0.46322 0.04823 0.0
O337 O 0.99639 0.52244 0.06718 0.0
C338 C 0.98865 0.52459 1.00127 0.0
C339 C 0.03124 0.49874 0.93867 0.0
C340 C 0.03205 0.49606 0.90219 0.0
C341 C 0.01739 0.4933 0.92012 0.0
C342 C 0.06086 0.50464 0.90317 0.0
C343 C 0.05989 0.50713 0.9393 0.0
C344 C 0.07462 0.51012 0.92161 0.0
C345 C 0.96531 0.44884 0.00639 0.0
C346 C 0.01563 0.49588 0.95719 0.0
C347 C 0.14152 0.54577 0.98912 0.0
C348 C 0.13354 0.51811 0.99202 0.0
C349 C 0.0206 0.4741 0.03648 0.0
C350 C 0.98066 0.50284 0.09918 0.0
C351 C 0.99537 0.50832 0.11735 0.0
C352 C 0.9818 0.50619 0.1357 0.0
C353 C 0.95318 0.49852 0.13546 0.0
C354 C 0.95221 0.49531 0.09927 0.0
C355 C 0.93858 0.49319 0.11736 0.0
C356 C 0.04432 0.54974 0.03144 0.0
C357 C 0.99522 0.5047 0.08032 0.0
H358 H 0.99515 0.4865 0.91971 0.0
H359 H 0.07285 0.50733 0.88966 0.0
H360 H 0.07087 0.51139 0.95341 0.0
H361 H 0.09678 0.51671 0.9222 0.0
H362 H 0.01746 0.51446 0.11711 0.0
H363 H 0.9419 0.4962 0.14927 0.0
H364 H 0.94057 0.49101 0.08543 0.0
H365 H 0.91657 0.48723 0.11736 0.0
Eu366 Eu 0.52305 0.50567 0.03872 0.0
C367 C 0.45893 0.54271 0.97937 0.0
C368 C 0.41029 0.50775 0.98357 0.0
C369 C 0.42207 0.55398 0.97389 0.0
C370 C 0.43913 0.51615 0.98425 0.0
C371 C 0.45063 0.56174 0.97351 0.0
C372 C 0.40191 0.52701 0.97895 0.0
C373 C 0.49899 0.5935 0.96514 0.0
N374 N 0.48622 0.54932 0.97886 0.0
C375 C 0.5061 0.57384 0.97104 0.0
C376 C 0.47119 0.58761 0.96671 0.0
Eu377 Eu 0.49731 0.51574 0.98976 0.0
N378 N 0.44801 0.49804 0.9883 0.0
C379 C 0.42898 0.4707 0.99014 0.0
C380 C 0.39075 0.48006 0.98684 0.0
C381 C 0.40015 0.46138 0.98979 0.0
H382 H 0.52764 0.57852 0.96989 0.0
H383 H 0.38522 0.43979 0.99187 0.0
H384 H 0.37988 0.52103 0.97859 0.0
H385 H 0.51496 0.61318 0.95942 0.0
H386 H 0.43582 0.45597 0.99254 0.0
H387 H 0.6341 0.58437 0.03957 0.0
H388 H 0.36842 0.47278 0.98652 0.0
H389 H 0.49324 0.43996 0.053 0.0
H390 H 0.58316 0.56672 0.03824 0.0
H391 H 0.50733 0.40535 0.06059 0.0
H392 H 0.41528 0.5684 0.96967 0.0
H393 H 0.65225 0.5522 0.04333 0.0
H394 H 0.64221 0.50382 0.04853 0.0
H395 H 0.46569 0.60281 0.96204 0.0
H396 H 0.60774 0.4551 0.05424 0.0
N397 N 0.57234 0.52479 0.04075 0.0
C398 C 0.59068 0.5524 0.03997 0.0
C399 C 0.62981 0.5443 0.04278 0.0
C400 C 0.61087 0.51616 0.04467 0.0
C401 C 0.61964 0.56252 0.0407 0.0
C402 C 0.58186 0.50693 0.04373 0.0
H403 H 0.55743 0.41826 0.05906 0.0
N404 N 0.53484 0.47165 0.04676 0.0
C405 C 0.52305 0.42609 0.05663 0.0
C406 C 0.56251 0.4795 0.04678 0.0
C407 C 0.51515 0.44569 0.05239 0.0
C408 C 0.55134 0.43345 0.0557 0.0
C409 C 0.57155 0.46054 0.05106 0.0
O410 O 0.50157 0.492 0.06748 0.0
O411 O 0.48817 0.50678 0.02239 0.0
O412 O 0.50554 0.55243 0.00872 0.0
O413 O 0.53322 0.55003 0.03465 0.0
O414 O 0.47667 0.47491 0.04245 0.0
O415 O 0.53793 0.5326 0.06494 0.0
O416 O 0.51836 0.52584 0.96065 0.0
O417 O 0.53251 0.51586 0.00644 0.0
O418 O 0.5188 0.47248 0.0176 0.0
O419 O 0.485 0.47102 0.9958 0.0
O420 O 0.54363 0.54666 0.98565 0.0
O421 O 0.48222 0.48576 0.96539 0.0
C422 C 0.46735 0.48652 0.03044 0.0
C423 C 0.52913 0.51044 0.09644 0.0
C424 C 0.52744 0.51097 0.13308 0.0
C425 C 0.51865 0.51536 0.11424 0.0
C426 C 0.54665 0.50127 0.13366 0.0
C427 C 0.54852 0.50118 0.09747 0.0
C428 C 0.55713 0.49655 0.11599 0.0
C429 C 0.52232 0.56282 0.02448 0.0
C430 C 0.51915 0.51435 0.07693 0.0
C431 C 0.60038 0.46941 0.05118 0.0
C432 C 0.62001 0.49716 0.04795 0.0
C433 C 0.55326 0.53617 0.9984 0.0
C434 C 0.48995 0.50388 0.93261 0.0
C435 C 0.50129 0.49866 0.9154 0.0
C436 C 0.49142 0.50009 0.89617 0.0
C437 C 0.47015 0.50704 0.89457 0.0
C438 C 0.4687 0.51061 0.93062 0.0
C439 C 0.45891 0.51221 0.91167 0.0
C440 C 0.49922 0.46002 1.00379 0.0
C441 C 0.50063 0.50247 0.95251 0.0
H442 H 0.50398 0.52291 0.11336 0.0
H443 H 0.55346 0.49708 0.14779 0.0
H444 H 0.55689 0.49742 0.084 0.0
H445 H 0.57194 0.48916 0.11666 0.0
H446 H 0.5175 0.49317 0.91704 0.0
H447 H 0.4624 0.50884 0.88006 0.0
H448 H 0.45971 0.51463 0.94368 0.0
H449 H 0.4426 0.51757 0.91023 0.0
Eu450 Eu 0.15782 0.32126 0.3267 0.0
C451 C 0.22049 0.42009 0.38715 0.0
C452 C 0.26914 0.43255 0.38314 0.0
C453 C 0.25731 0.46726 0.39281 0.0
C454 C 0.24031 0.41285 0.38237 0.0
C455 C 0.22874 0.44719 0.39303 0.0
C456 C 0.2775 0.45996 0.38783 0.0
C457 C 0.18026 0.43181 0.40101 0.0
N458 N 0.19321 0.40012 0.38748 0.0
C459 C 0.17322 0.40523 0.39511 0.0
C460 C 0.20809 0.453 0.39966 0.0
Eu461 Eu 0.1821 0.35581 0.37637 0.0
N462 N 0.23142 0.38612 0.37822 0.0
C463 C 0.25045 0.37733 0.37636 0.0
C464 C 0.28869 0.42392 0.37986 0.0
C465 C 0.27928 0.39609 0.3768 0.0
H466 H 0.15165 0.38891 0.39609 0.0
H467 H 0.29421 0.38907 0.37471 0.0
H468 H 0.29953 0.47544 0.38828 0.0
H469 H 0.16422 0.43591 0.40657 0.0
H470 H 0.24364 0.35596 0.37386 0.0
H471 H 0.04614 0.28904 0.32402 0.0
H472 H 0.31102 0.43841 0.38025 0.0
H473 H 0.18974 0.28684 0.31193 0.0
H474 H 0.09676 0.32188 0.32668 0.0
H475 H 0.17731 0.23941 0.30275 0.0
H476 H 0.26406 0.48827 0.39705 0.0
H477 H 0.02939 0.23968 0.31866 0.0
H478 H 0.04097 0.20233 0.31235 0.0
H479 H 0.21354 0.47355 0.40433 0.0
H480 H 0.07665 0.1888 0.30649 0.0
N481 N 0.10878 0.29143 0.32352 0.0
C482 C 0.08986 0.30045 0.32432 0.0
C483 C 0.05169 0.25402 0.31985 0.0
C484 C 0.07127 0.24515 0.31785 0.0
C485 C 0.06107 0.28187 0.32283 0.0
C486 C 0.10006 0.26464 0.31963 0.0
H487 H 0.12752 0.20256 0.30257 0.0
N488 N 0.14752 0.2766 0.31734 0.0
C489 C 0.16101 0.24404 0.30667 0.0
C490 C 0.12007 0.25699 0.31645 0.0
C491 C 0.16798 0.27084 0.31182 0.0
C492 C 0.13289 0.22329 0.30663 0.0
C493 C 0.11196 0.2297 0.31126 0.0
O494 O 0.18082 0.33115 0.2984 0.0
O495 O 0.19176 0.35589 0.34389 0.0
O496 O 0.17314 0.38407 0.35733 0.0
O497 O 0.14623 0.35462 0.33116 0.0
O498 O 0.20432 0.33613 0.32382 0.0
O499 O 0.14379 0.33512 0.30076 0.0
O500 O 0.16039 0.34506 0.40527 0.0
O501 O 0.14762 0.32203 0.35892 0.0
O502 O 0.16251 0.29196 0.34747 0.0
O503 O 0.19459 0.32329 0.37036 0.0
O504 O 0.1359 0.34168 0.37971 0.0
O505 O 0.19582 0.33916 0.40073 0.0
C506 C 0.21296 0.35642 0.33615 0.0
C507 C 0.15542 0.32578 0.26862 0.0
C508 C 0.15955 0.33274 0.23224 0.0
C509 C 0.16637 0.34333 0.25191 0.0
C510 C 0.14141 0.30434 0.22969 0.0
C511 C 0.13734 0.29762 0.26564 0.0
C512 C 0.13039 0.28701 0.24626 0.0
C513 C 0.15647 0.37788 0.34145 0.0
C514 C 0.16364 0.33698 0.28902 0.0
C515 C 0.08331 0.20994 0.31027 0.0
C516 C 0.063 0.21764 0.3136 0.0
C517 C 0.12676 0.32219 0.36666 0.0
C518 C 0.18748 0.34852 0.43375 0.0
C519 C 0.17679 0.33102 0.45051 0.0
C520 C 0.18665 0.341 0.47001 0.0
C521 C 0.20716 0.36886 0.47231 0.0
C522 C 0.20795 0.3761 0.43651 0.0
C523 C 0.21766 0.38618 0.4557 0.0
C524 C 0.18143 0.29868 0.36186 0.0
C525 C 0.17725 0.33786 0.41346 0.0
H526 H 0.18054 0.36508 0.25424 0.0
H527 H 0.13536 0.29554 0.21485 0.0
H528 H 0.12869 0.28385 0.27826 0.0
H529 H 0.11638 0.26523 0.24407 0.0
H530 H 0.16115 0.30963 0.44831 0.0
H531 H 0.21486 0.37745 0.48702 0.0
H532 H 0.21643 0.38982 0.42383 0.0
H533 H 0.23338 0.40755 0.45772 0.0
Eu534 Eu 0.69317 0.83918 0.32835 0.0
C535 C 0.58567 0.79907 0.38128 0.0
C536 C 0.57163 0.83334 0.37702 0.0
C537 C 0.5364 0.78592 0.38376 0.0
C538 C 0.59262 0.82587 0.37735 0.0
C539 C 0.55755 0.77887 0.38493 0.0
C540 C 0.54342 0.81312 0.37981 0.0
C541 C 0.57363 0.7468 0.39214 0.0
N542 N 0.60663 0.79302 0.38247 0.0
C543 C 0.60121 0.76759 0.38852 0.0
C544 C 0.55165 0.75237 0.39012 0.0
Eu545 Eu 0.6526 0.82885 0.37512 0.0
N546 N 0.62007 0.84491 0.37481 0.0
C547 C 0.62818 0.87211 0.37328 0.0
C548 C 0.57969 0.86102 0.37438 0.0
C549 C 0.60813 0.88053 0.37279 0.0
H550 H 0.61811 0.76314 0.38999 0.0
H551 H 0.61464 0.90204 0.37107 0.0
H552 H 0.52697 0.81841 0.37939 0.0
H553 H 0.56935 0.7265 0.39648 0.0
H554 H 0.65006 0.88739 0.37192 0.0
H555 H 0.72859 0.76391 0.33113 0.0
H556 H 0.5642 0.86759 0.37396 0.0
H557 H 0.72922 0.90524 0.31471 0.0
H558 H 0.69403 0.77964 0.33039 0.0
H559 H 0.77854 0.94141 0.30914 0.0
H560 H 0.51463 0.77064 0.38633 0.0
H561 H 0.77933 0.79765 0.32924 0.0
H562 H 0.81751 0.84672 0.32504 0.0
H563 H 0.53032 0.73626 0.39301 0.0
H564 H 0.83113 0.89504 0.31908 0.0
N565 N 0.72479 0.82203 0.32858 0.0
C566 C 0.71605 0.79464 0.32949 0.0
C567 C 0.76423 0.80471 0.32889 0.0
C568 C 0.77299 0.83263 0.32689 0.0
C569 C 0.73561 0.7856 0.32992 0.0
C570 C 0.75247 0.84074 0.32662 0.0
H571 H 0.81673 0.93047 0.31284 0.0
N572 N 0.73966 0.87457 0.32198 0.0
C573 C 0.77367 0.92084 0.31318 0.0
C574 C 0.76015 0.86788 0.32326 0.0
C575 C 0.74581 0.90035 0.31627 0.0
C576 C 0.79517 0.91459 0.31534 0.0
C577 C 0.78853 0.88774 0.32011 0.0
O578 O 0.68888 0.85163 0.29817 0.0
O579 O 0.65621 0.83841 0.34256 0.0
O580 O 0.62531 0.7949 0.35364 0.0
O581 O 0.65922 0.7942 0.33298 0.0
O582 O 0.67695 0.86874 0.32163 0.0
O583 O 0.68101 0.81031 0.30341 0.0
O584 O 0.65986 0.81831 0.40516 0.0
O585 O 0.68945 0.82939 0.36085 0.0
O586 O 0.72027 0.87247 0.35035 0.0
O587 O 0.68595 0.87389 0.36996 0.0
O588 O 0.66829 0.79895 0.38168 0.0
O589 O 0.66379 0.85809 0.39975 0.0
C590 C 0.65565 0.85782 0.3335 0.0
C591 C 0.69885 0.83003 0.27176 0.0
C592 C 0.70005 0.82654 0.23536 0.0
C593 C 0.68543 0.82504 0.25307 0.0
C594 C 0.72838 0.83338 0.23671 0.0
C595 C 0.72704 0.83674 0.27275 0.0
C596 C 0.74171 0.83845 0.25529 0.0
C597 C 0.63328 0.78288 0.34017 0.0
C598 C 0.68325 0.8283 0.29008 0.0
C599 C 0.80919 0.88002 0.32127 0.0
C600 C 0.80143 0.85251 0.32466 0.0
C601 C 0.68953 0.80964 0.36976 0.0
C602 C 0.64904 0.8386 0.43193 0.0
C603 C 0.66313 0.84244 0.45023 0.0
C604 C 0.64882 0.83852 0.46847 0.0
C605 C 0.62029 0.83098 0.46812 0.0
C606 C 0.62063 0.83127 0.43187 0.0
C607 C 0.60637 0.82754 0.44991 0.0
C608 C 0.71211 0.88488 0.36331 0.0
C609 C 0.66397 0.84121 0.41311 0.0
H610 H 0.66354 0.81954 0.25237 0.0
H611 H 0.74032 0.83507 0.22337 0.0
H612 H 0.73769 0.84064 0.28696 0.0
H613 H 0.76351 0.84373 0.25616 0.0
H614 H 0.68501 0.84779 0.45026 0.0
H615 H 0.60881 0.82796 0.48195 0.0
H616 H 0.60946 0.82827 0.41793 0.0
H617 H 0.58442 0.82182 0.44978 0.0
Eu618 Eu 0.189 0.83722 0.37204 0.0
C619 C 0.12579 0.87636 0.31404 0.0
C620 C 0.07699 0.84215 0.31875 0.0
C621 C 0.08958 0.88873 0.30945 0.0
C622 C 0.10568 0.84994 0.31899 0.0
C623 C 0.11796 0.89587 0.30859 0.0
C624 C 0.06911 0.8619 0.31455 0.0
C625 C 0.16626 0.92679 0.29955 0.0
N626 N 0.15286 0.88234 0.31303 0.0
C627 C 0.17289 0.90664 0.30503 0.0
C628 C 0.13874 0.92156 0.30166 0.0
Eu629 Eu 0.16322 0.84807 0.32345 0.0
N630 N 0.11407 0.83136 0.32258 0.0
C631 C 0.09463 0.80411 0.32428 0.0
C632 C 0.05706 0.81456 0.32193 0.0
C633 C 0.06593 0.79537 0.32433 0.0
H634 H 0.19422 0.91079 0.30345 0.0
H635 H 0.05068 0.77386 0.32631 0.0
H636 H 0.0472 0.85639 0.31454 0.0
H637 H 0.18238 0.94631 0.29372 0.0
H638 H 0.10107 0.78901 0.32627 0.0
H639 H 0.30093 0.91355 0.37194 0.0
H640 H 0.03482 0.80774 0.32193 0.0
H641 H 0.15742 0.77158 0.38659 0.0
H642 H 0.25031 0.89727 0.3704 0.0
H643 H 0.17008 0.73622 0.39508 0.0
H644 H 0.08316 0.90353 0.30555 0.0
H645 H 0.31766 0.88047 0.37706 0.0
H646 H 0.30614 0.8319 0.38353 0.0
H647 H 0.13361 0.93712 0.2973 0.0
H648 H 0.27059 0.78368 0.38983 0.0
N649 N 0.23816 0.85511 0.37407 0.0
C650 C 0.25716 0.88252 0.37269 0.0
C651 C 0.29533 0.87315 0.37639 0.0
C652 C 0.27575 0.84527 0.37884 0.0
C653 C 0.28597 0.89188 0.37354 0.0
C654 C 0.24692 0.83679 0.37772 0.0
H655 H 0.21985 0.74789 0.39442 0.0
N656 N 0.19949 0.80251 0.38069 0.0
C657 C 0.18628 0.75676 0.39109 0.0
C658 C 0.22697 0.80965 0.38111 0.0
C659 C 0.17918 0.77679 0.38632 0.0
C660 C 0.21439 0.76341 0.39065 0.0
C661 C 0.2352 0.79023 0.38591 0.0
O662 O 0.16727 0.82451 0.40076 0.0
O663 O 0.15426 0.83926 0.35612 0.0
O664 O 0.1732 0.88528 0.34239 0.0
O665 O 0.20088 0.88201 0.36787 0.0
O666 O 0.14256 0.80696 0.37584 0.0
O667 O 0.20457 0.86445 0.39806 0.0
O668 O 0.18349 0.85786 0.29407 0.0
O669 O 0.19823 0.84708 0.33965 0.0
O670 O 0.18352 0.80342 0.35103 0.0
O671 O 0.15015 0.80314 0.32934 0.0
O672 O 0.20965 0.87799 0.31889 0.0
O673 O 0.14702 0.81811 0.29908 0.0
C674 C 0.13336 0.81901 0.36414 0.0
C675 C 0.19435 0.84301 0.42992 0.0
C676 C 0.18987 0.84268 0.46638 0.0
C677 C 0.18229 0.84717 0.44717 0.0
C678 C 0.2098 0.83398 0.46798 0.0
C679 C 0.21424 0.83447 0.43187 0.0
C680 C 0.22188 0.82998 0.45084 0.0
C681 C 0.19053 0.89539 0.35788 0.0
C682 C 0.18523 0.84683 0.41006 0.0
C683 C 0.26385 0.79835 0.38635 0.0
C684 C 0.28409 0.82581 0.38278 0.0
C685 C 0.21911 0.86706 0.33139 0.0
C686 C 0.15426 0.83621 0.26631 0.0
C687 C 0.16524 0.83101 0.2489 0.0
C688 C 0.15507 0.83257 0.22983 0.0
C689 C 0.13382 0.83958 0.22856 0.0
C690 C 0.13306 0.84307 0.26467 0.0
C691 C 0.12295 0.84476 0.24586 0.0
C692 C 0.16379 0.79146 0.33723 0.0
C693 C 0.16526 0.83461 0.28604 0.0
H694 H 0.16669 0.8535 0.44558 0.0
H695 H 0.2164 0.8307 0.48251 0.0
H696 H 0.22377 0.83122 0.41879 0.0
H697 H 0.23728 0.82342 0.45226 0.0
H698 H 0.18142 0.82543 0.25028 0.0
H699 H 0.12584 0.84145 0.21416 0.0
H700 H 0.12436 0.84711 0.27789 0.0
H701 H 0.10667 0.85019 0.24468 0.0
Eu702 Eu 0.82271 0.64954 0.65979 0.0
C703 C 0.88432 0.75161 0.71757 0.0
C704 C 0.93324 0.76403 0.71612 0.0
C705 C 0.92068 0.79912 0.72262 0.0
C706 C 0.90451 0.7442 0.71469 0.0
C707 C 0.89212 0.77905 0.722 0.0
C708 C 0.94122 0.79163 0.71967 0.0
C709 C 0.84297 0.76433 0.72644 0.0
N710 N 0.857 0.73168 0.71705 0.0
C711 C 0.83633 0.7374 0.72205 0.0
C712 C 0.87098 0.78532 0.72618 0.0
Eu713 Eu 0.84703 0.68676 0.70856 0.0
N714 N 0.89604 0.71734 0.71145 0.0
C715 C 0.91522 0.70863 0.71096 0.0
C716 C 0.95305 0.75542 0.71446 0.0
C717 C 0.94396 0.72752 0.71215 0.0
H718 H 0.81464 0.72128 0.72213 0.0
H719 H 0.95908 0.72055 0.71122 0.0
H720 H 0.96319 0.8072 0.72062 0.0
H721 H 0.82649 0.76886 0.72997 0.0
H722 H 0.90857 0.68719 0.70907 0.0
H723 H 0.7106 0.61477 0.65492 0.0
H724 H 0.97533 0.77001 0.71539 0.0
H725 H 0.856 0.61545 0.64721 0.0
H726 H 0.761 0.64857 0.65741 0.0
H727 H 0.84474 0.56785 0.64008 0.0
H728 H 0.9271 0.82037 0.72582 0.0
H729 H 0.69488 0.56529 0.65195 0.0
H730 H 0.70761 0.5283 0.64803 0.0
H731 H 0.87609 0.80615 0.72965 0.0
H732 H 0.74414 0.51552 0.64382 0.0
N733 N 0.77389 0.6186 0.6565 0.0
C734 C 0.75454 0.6271 0.65608 0.0
C735 C 0.71708 0.58006 0.65307 0.0
C736 C 0.73713 0.57165 0.65221 0.0
C737 C 0.72588 0.60797 0.65467 0.0
C738 C 0.76576 0.59171 0.65382 0.0
H739 H 0.79532 0.53019 0.64047 0.0
N740 N 0.81348 0.60467 0.65202 0.0
C741 C 0.82808 0.57223 0.64334 0.0
C742 C 0.78622 0.58452 0.65147 0.0
C743 C 0.83438 0.59916 0.64733 0.0
C744 C 0.80017 0.55102 0.64364 0.0
C745 C 0.77877 0.55707 0.64743 0.0
O746 O 0.84569 0.65891 0.63151 0.0
O747 O 0.85693 0.68451 0.6765 0.0
O748 O 0.84137 0.7146 0.68675 0.0
O749 O 0.81011 0.68233 0.66379 0.0
O750 O 0.8692 0.66403 0.65694 0.0
O751 O 0.80858 0.66271 0.63349 0.0
O752 O 0.82549 0.67858 0.73744 0.0
O753 O 0.8125 0.65233 0.6917 0.0
O754 O 0.82698 0.62138 0.682 0.0
O755 O 0.85945 0.65385 0.70417 0.0
O756 O 0.80074 0.67283 0.71169 0.0
O757 O 0.86014 0.67109 0.73389 0.0
C758 C 0.87801 0.68446 0.66914 0.0
C759 C 0.81992 0.65206 0.60173 0.0
C760 C 0.82145 0.65721 0.56516 0.0
C761 C 0.82909 0.66887 0.58451 0.0
C762 C 0.80484 0.62843 0.56351 0.0
C763 C 0.80318 0.62356 0.59957 0.0
C764 C 0.79578 0.61186 0.58056 0.0
C765 C 0.82279 0.70718 0.672 0.0
C766 C 0.82838 0.66428 0.62185 0.0
C767 C 0.7503 0.53677 0.64672 0.0
C768 C 0.7295 0.54405 0.64913 0.0
C769 C 0.79167 0.65289 0.69905 0.0
C770 C 0.85208 0.68251 0.76636 0.0
C771 C 0.84192 0.66545 0.78339 0.0
C772 C 0.85182 0.67611 0.80275 0.0
C773 C 0.87186 0.70419 0.80463 0.0
C774 C 0.87208 0.71033 0.76871 0.0
C775 C 0.88185 0.72107 0.78775 0.0
C776 C 0.84596 0.62875 0.69643 0.0
C777 C 0.84178 0.67111 0.74624 0.0
H778 H 0.84179 0.69093 0.58624 0.0
H779 H 0.79902 0.61859 0.54898 0.0
H780 H 0.79598 0.61035 0.61258 0.0
H781 H 0.78302 0.5898 0.57901 0.0
H782 H 0.82665 0.64389 0.7815 0.0
H783 H 0.87958 0.71329 0.81921 0.0
H784 H 0.8801 0.72372 0.75582 0.0
H785 H 0.8972 0.74261 0.78946 0.0
Eu786 Eu 0.35936 0.1717 0.6611 0.0
C787 C 0.2528 0.13194 0.71608 0.0
C788 C 0.23964 0.16671 0.71123 0.0
C789 C 0.20398 0.12005 0.71958 0.0
C790 C 0.26014 0.15858 0.7114 0.0
C791 C 0.2248 0.11255 0.7209 0.0
C792 C 0.21139 0.1471 0.71471 0.0
C793 C 0.2407 0.08104 0.73036 0.0
N794 N 0.2735 0.12562 0.71757 0.0
C795 C 0.26815 0.10104 0.72544 0.0
C796 C 0.21882 0.08663 0.72773 0.0
Eu797 Eu 0.31942 0.15983 0.70847 0.0
N798 N 0.28768 0.17701 0.7085 0.0
C799 C 0.29641 0.20438 0.70708 0.0
C800 C 0.2483 0.19448 0.70835 0.0
C801 C 0.27688 0.21346 0.70665 0.0
H802 H 0.28499 0.09658 0.72738 0.0
H803 H 0.28389 0.23509 0.70491 0.0
H804 H 0.19529 0.15288 0.71438 0.0
H805 H 0.23644 0.06132 0.73613 0.0
H806 H 0.31837 0.21932 0.70564 0.0
H807 H 0.39287 0.09494 0.6599 0.0
H808 H 0.23322 0.20156 0.70804 0.0
H809 H 0.39627 0.23829 0.64898 0.0
H810 H 0.35893 0.11147 0.66039 0.0
H811 H 0.44584 0.27414 0.64381 0.0
H812 H 0.18228 0.10535 0.72297 0.0
H813 H 0.4438 0.12817 0.65883 0.0
H814 H 0.48259 0.1772 0.65597 0.0
H815 H 0.1976 0.07116 0.73163 0.0
H816 H 0.49703 0.22597 0.65148 0.0
N817 N 0.39025 0.15375 0.66002 0.0
C818 C 0.38105 0.12624 0.65982 0.0
C819 C 0.42898 0.13557 0.65899 0.0
C820 C 0.43821 0.16369 0.65801 0.0
C821 C 0.40025 0.11676 0.65954 0.0
C822 C 0.41804 0.17224 0.65836 0.0
H823 H 0.48345 0.26225 0.6466 0.0
N824 N 0.40603 0.20686 0.65511 0.0
C825 C 0.44061 0.25329 0.64726 0.0
C826 C 0.42619 0.19966 0.65583 0.0
C827 C 0.41262 0.233 0.65012 0.0
C828 C 0.46179 0.24651 0.64891 0.0
C829 C 0.45468 0.21933 0.65291 0.0
O830 O 0.35448 0.18613 0.63183 0.0
O831 O 0.32203 0.16975 0.67587 0.0
O832 O 0.29228 0.12359 0.68833 0.0
O833 O 0.32479 0.12689 0.66405 0.0
O834 O 0.34381 0.20198 0.65629 0.0
O835 O 0.34807 0.14496 0.63492 0.0
O836 O 0.32771 0.14929 0.73824 0.0
O837 O 0.35552 0.1602 0.69322 0.0
O838 O 0.38711 0.20356 0.68371 0.0
O839 O 0.35299 0.20486 0.7035 0.0
O840 O 0.33468 0.12936 0.71385 0.0
O841 O 0.33326 0.18963 0.7329 0.0
C842 C 0.32197 0.18992 0.66761 0.0
C843 C 0.36417 0.16704 0.60367 0.0
C844 C 0.36339 0.16623 0.56709 0.0
C845 C 0.34955 0.16253 0.58554 0.0
C846 C 0.39216 0.17456 0.56714 0.0
C847 C 0.39278 0.17523 0.60341 0.0
C848 C 0.40668 0.17897 0.5852 0.0
C849 C 0.29997 0.11367 0.67305 0.0
C850 C 0.34929 0.1636 0.62263 0.0
C851 C 0.47499 0.21112 0.6535 0.0
C852 C 0.46677 0.18335 0.65606 0.0
C853 C 0.3554 0.13995 0.70147 0.0
C854 C 0.31957 0.17118 0.76534 0.0
C855 C 0.33515 0.17757 0.78316 0.0
C856 C 0.32231 0.17587 0.80178 0.0
C857 C 0.29355 0.16764 0.80214 0.0
C858 C 0.29102 0.16321 0.76604 0.0
C859 C 0.27811 0.16145 0.78438 0.0
C860 C 0.37917 0.2158 0.69695 0.0
C861 C 0.33332 0.17265 0.74617 0.0
H862 H 0.32749 0.1565 0.58583 0.0
H863 H 0.40336 0.17725 0.55323 0.0
H864 H 0.40434 0.17874 0.61723 0.0
H865 H 0.42877 0.18525 0.58508 0.0
H866 H 0.35731 0.18411 0.78244 0.0
H867 H 0.28282 0.16558 0.81617 0.0
H868 H 0.27875 0.15834 0.75246 0.0
H869 H 0.25601 0.15512 0.78485 0.0
Eu870 Eu 0.8552 0.16634 0.70633 0.0
C871 C 0.79369 0.20903 0.64984 0.0
C872 C 0.74445 0.17469 0.65189 0.0
C873 C 0.75816 0.22231 0.6453 0.0
C874 C 0.77302 0.18214 0.65298 0.0
C875 C 0.78652 0.22934 0.64552 0.0
C876 C 0.73715 0.19503 0.64849 0.0
C877 C 0.8358 0.26147 0.64032 0.0
N878 N 0.82083 0.21503 0.64997 0.0
C879 C 0.84182 0.24057 0.64461 0.0
C880 C 0.80805 0.25593 0.64102 0.0
Eu881 Eu 0.82964 0.17901 0.6582 0.0
N882 N 0.78082 0.163 0.65603 0.0
C883 C 0.7611 0.13575 0.65659 0.0
C884 C 0.72411 0.14694 0.65367 0.0
C885 C 0.7325 0.12735 0.65572 0.0
H886 H 0.86332 0.245 0.64418 0.0
H887 H 0.71696 0.10577 0.65672 0.0
H888 H 0.71532 0.18975 0.6478 0.0
H889 H 0.85256 0.28183 0.63652 0.0
H890 H 0.76724 0.12038 0.65828 0.0
H891 H 0.9678 0.24001 0.7075 0.0
H892 H 0.70195 0.14038 0.65298 0.0
H893 H 0.82179 0.1 0.71952 0.0
H894 H 0.91748 0.22521 0.70611 0.0
H895 H 0.83286 0.0632 0.72649 0.0
H896 H 0.75222 0.23768 0.64219 0.0
H897 H 0.98305 0.20556 0.71109 0.0
H898 H 0.96995 0.15622 0.71592 0.0
H899 H 0.80342 0.27212 0.63762 0.0
H900 H 0.93325 0.10811 0.72109 0.0
N901 N 0.90407 0.18263 0.70841 0.0
C902 C 0.92371 0.2099 0.70776 0.0
C903 C 0.96086 0.19891 0.7105 0.0
C904 C 0.94063 0.17111 0.71222 0.0
C905 C 0.95234 0.21841 0.70852 0.0
C906 C 0.91202 0.16354 0.71125 0.0
H907 H 0.88211 0.07329 0.72531 0.0
N908 N 0.86424 0.13031 0.71398 0.0
C909 C 0.84953 0.08371 0.72295 0.0
C910 C 0.89144 0.13652 0.71408 0.0
C911 C 0.84334 0.10458 0.71905 0.0
C912 C 0.87735 0.08947 0.72221 0.0
C913 C 0.89878 0.11623 0.71805 0.0
O914 O 0.83388 0.15401 0.73522 0.0
O915 O 0.8204 0.16817 0.69049 0.0
O916 O 0.83589 0.21267 0.67977 0.0
O917 O 0.86837 0.21148 0.70172 0.0
O918 O 0.80866 0.13613 0.71035 0.0
O919 O 0.87111 0.19384 0.73221 0.0
O920 O 0.85006 0.19099 0.62895 0.0
O921 O 0.86446 0.17743 0.67411 0.0
O922 O 0.84971 0.13345 0.68443 0.0
O923 O 0.81637 0.13372 0.66291 0.0
O924 O 0.87623 0.20899 0.65393 0.0
O925 O 0.81416 0.15042 0.63298 0.0
C926 C 0.79948 0.14784 0.69833 0.0
C927 C 0.86198 0.17231 0.76396 0.0
C928 C 0.86132 0.1741 0.80059 0.0
C929 C 0.85237 0.1783 0.78176 0.0
C930 C 0.87973 0.16345 0.80118 0.0
C931 C 0.88049 0.16199 0.765 0.0
C932 C 0.88923 0.15752 0.78352 0.0
C933 C 0.85533 0.22382 0.69389 0.0
C934 C 0.8521 0.17629 0.74443 0.0
C935 C 0.9272 0.12344 0.71824 0.0
C936 C 0.94809 0.15084 0.71532 0.0
C937 C 0.88546 0.19754 0.66614 0.0
C938 C 0.8215 0.17014 0.6007 0.0
C939 C 0.83233 0.16508 0.58315 0.0
C940 C 0.82232 0.16722 0.56416 0.0
C941 C 0.80135 0.17464 0.56313 0.0
C942 C 0.80061 0.17744 0.59929 0.0
C943 C 0.79063 0.17967 0.58057 0.0
C944 C 0.83003 0.12188 0.67054 0.0
C945 C 0.83236 0.16794 0.62034 0.0
H946 H 0.8383 0.18657 0.78089 0.0
H947 H 0.88666 0.15947 0.81534 0.0
H948 H 0.88809 0.15728 0.75151 0.0
H949 H 0.90339 0.14938 0.78421 0.0
H950 H 0.84828 0.15918 0.58435 0.0
H951 H 0.79348 0.17695 0.54881 0.0
H952 H 0.79208 0.18143 0.61262 0.0
H953 H 0.77458 0.18544 0.57957 0.0
H954 H 0.2919 0.88768 0.08002 0.0
H955 H 0.41221 0.99174 0.03685 0.0
H956 H 0.31485 0.83157 0.05352 0.0
H957 H 0.43965 0.93225 0.03205 0.0
H958 H 0.36539 0.95516 0.04571 0.0
H959 H 0.33554 0.92598 0.06789 0.0
C960 C 0.3061 0.88341 0.07158 0.0
C961 C 0.29955 0.8563 0.06777 0.0
C962 C 0.38154 0.94991 0.043 0.0
C963 C 0.34941 0.90034 0.05282 0.0
C964 C 0.40819 0.9708 0.0376 0.0
C965 C 0.42965 0.96491 0.03367 0.0
C966 C 0.3765 0.92292 0.04511 0.0
C967 C 0.42351 0.93754 0.0348 0.0
C968 C 0.33092 0.90539 0.06425 0.0
C969 C 0.31878 0.85212 0.05657 0.0
N970 N 0.39748 0.91753 0.04055 0.0
N971 N 0.34283 0.87387 0.04956 0.0
H972 H 0.1874 0.49795 0.05857 0.0
H973 H 0.0204 0.42704 0.04582 0.0
H974 H 0.12916 0.41689 0.08052 0.0
H975 H 0.07654 0.51366 0.03731 0.0
H976 H 0.06059 0.42165 0.05506 0.0
H977 H 0.14768 0.50275 0.04707 0.0
C978 C 0.16628 0.48111 0.06092 0.0
C979 C 0.16168 0.457 0.07063 0.0
C980 C 0.06419 0.44182 0.051 0.0
C981 C 0.11604 0.46243 0.05752 0.0
C982 C 0.04128 0.44486 0.04566 0.0
C983 C 0.04524 0.47068 0.04027 0.0
C984 C 0.09133 0.46485 0.05117 0.0
C985 C 0.07264 0.49324 0.04075 0.0
C986 C 0.14361 0.48394 0.05444 0.0
C987 C 0.13377 0.43599 0.07339 0.0
N988 N 0.09465 0.48979 0.04602 0.0
N989 N 0.11208 0.43917 0.06684 0.0
H990 H 0.58864 0.73713 0.03558 0.0
H991 H 0.52949 0.58058 0.06304 0.0
H992 H 0.55293 0.70401 0.09355 0.0
H993 H 0.53159 0.60768 1.00237 0.0
H994 H 0.54241 0.62662 0.07495 0.0
H995 H 0.57152 0.69054 0.02334 0.0
C996 C 0.57693 0.72014 0.04571 0.0
C997 C 0.57227 0.72467 0.0657 0.0
C998 C 0.5398 0.62239 0.05903 0.0
C999 C 0.55333 0.67125 0.05181 0.0
C1000 C 0.53259 0.59622 0.05222 0.0
C1001 C 0.52928 0.59031 0.03166 0.0
C1002 C 0.54427 0.64293 0.04514 0.0
C1003 C 0.53341 0.61123 0.0183 0.0
C1004 C 0.56731 0.69353 0.0387 0.0
C1005 C 0.55752 0.70167 0.07816 0.0
N1006 N 0.54096 0.63673 0.02525 0.0
N1007 N 0.54878 0.67599 0.07106 0.0
H1008 H 0.81158 0.30412 0.97004 0.0
H1009 H 0.97471 0.41351 0.98369 0.0
H1010 H 0.87787 0.28864 0.95201 0.0
H1011 H 0.90809 0.42223 0.01052 0.0
H1012 H 0.93967 0.36908 0.97008 0.0
H1013 H 0.84679 0.34881 0.983 0.0
C1014 C 0.83354 0.31006 0.96884 0.0
C1015 C 0.84171 0.29243 0.96001 0.0
C1016 C 0.93274 0.38069 0.979 0.0
C1017 C 0.88225 0.34389 0.97465 0.0
C1018 C 0.95274 0.4061 0.98677 0.0
C1019 C 0.94439 0.42162 0.99839 0.0
C1020 C 0.90413 0.37077 0.98272 0.0
C1021 C 0.91558 0.4109 1.00184 0.0
C1022 C 0.85365 0.33566 0.9762 0.0
C1023 C 0.87056 0.3016 0.95851 0.0
N1024 N 0.89652 0.3862 0.99401 0.0
N1025 N 0.88977 0.32665 0.96579 0.0
H1026 H 0.69578 0.51216 0.97653 0.0
H1027 H 0.60096 0.58307 0.98912 0.0
H1028 H 0.72004 0.59344 0.95511 0.0
H1029 H 0.56952 0.49694 0.99968 0.0
H1030 H 0.64667 0.58847 0.98025 0.0
H1031 H 0.65144 0.50742 0.98851 0.0
C1032 C 0.69187 0.52907 0.9744 0.0
C1033 C 0.71176 0.55324 0.96471 0.0
C1034 C 0.62991 0.56842 0.9847 0.0
C1035 C 0.66084 0.54787 0.9784 0.0
C1036 C 0.60386 0.56537 0.98985 0.0
C1037 C 0.58161 0.53966 0.99556 0.0
C1038 C 0.63377 0.5455 0.985 0.0
C1039 C 0.5863 0.51727 0.99588 0.0
C1040 C 0.66646 0.52627 0.98118 0.0
C1041 C 0.70527 0.57431 0.96222 0.0
N1042 N 0.61186 0.52071 0.9907 0.0
N1043 N 0.68048 0.57115 0.96905 0.0
H1044 H 0.41251 0.12609 0.94816 0.0
H1045 H 0.51775 0.09793 0.01381 0.0
H1046 H 0.48315 0.18917 0.98074 0.0
H1047 H 0.44876 0.03547 0.97949 0.0
H1048 H 0.50566 0.13177 1.00168 0.0
H1049 H 0.42616 0.09274 0.95885 0.0
C1050 C 0.43104 0.13298 0.9574 0.0
C1051 C 0.44662 0.16043 0.96364 0.0
C1052 C 0.49317 0.11064 0.99681 0.0
C1053 C 0.46217 0.12233 0.97617 0.0
C1054 C 0.49997 0.09126 1.00383 0.0
C1055 C 0.4841 0.06372 0.99784 0.0
C1056 C 0.47035 0.10245 0.98368 0.0
C1057 C 0.46158 0.05642 0.98459 0.0
C1058 C 0.43872 0.1139 0.96362 0.0
C1059 C 0.47025 0.16812 0.97584 0.0
N1060 N 0.45536 0.07564 0.978 0.0
N1061 N 0.47724 0.14917 0.98175 0.0
H1062 H 0.67878 0.18017 0.97002 0.0
H1063 H 0.593 0.01876 0.99287 0.0
H1064 H 0.71769 0.12998 0.97185 0.0
H1065 H 0.55928 0.07279 1.00133 0.0
H1066 H 0.63827 0.05844 0.98365 0.0
H1067 H 0.63379 0.14005 0.97899 0.0
C1068 C 0.67759 0.16045 0.97191 0.0
C1069 C 0.70161 0.15804 0.96992 0.0
C1070 C 0.62107 0.06167 0.98772 0.0
C1071 C 0.6506 0.11229 0.98066 0.0
C1072 C 0.59532 0.03908 0.99305 0.0
C1073 C 0.57261 0.04263 0.99822 0.0
C1074 C 0.62393 0.08794 0.98714 0.0
C1075 C 0.57643 0.06924 0.99787 0.0
C1076 C 0.65204 0.13766 0.97725 0.0
C1077 C 0.69937 0.13238 0.97296 0.0
N1078 N 0.60158 0.09087 0.99236 0.0
N1079 N 0.67424 0.11041 0.97821 0.0
H1080 H 0.82058 0.49546 0.97749 0.0
H1081 H 0.98787 0.57144 0.99236 0.0
H1082 H 0.87395 0.58313 0.9734 0.0
H1083 H 0.93314 0.48439 0.9999 0.0
H1084 H 0.94695 0.57617 0.98405 0.0
H1085 H 0.86196 0.49084 0.98401 0.0
C1086 C 0.84117 0.51369 0.97762 0.0
C1087 C 0.84406 0.53966 0.97465 0.0
C1088 C 0.94383 0.55604 0.98763 0.0
C1089 C 0.89148 0.53471 0.98247 0.0
C1090 C 0.96717 0.55337 0.99241 0.0
C1091 C 0.96378 0.52762 0.99736 0.0
C1092 C 0.9169 0.53269 0.98742 0.0
C1093 C 0.93662 0.50474 0.99676 0.0
C1094 C 0.86476 0.5111 0.98149 0.0
C1095 C 0.87101 0.56273 0.97536 0.0
N1096 N 0.91425 0.50782 0.99195 0.0
N1097 N 0.89372 0.55973 0.97923 0.0
H1098 H 0.40984 0.28865 0.96943 0.0
H1099 H 0.52963 0.43429 0.01013 0.0
H1100 H 0.4906 0.30432 0.99053 0.0
H1101 H 0.45252 0.42189 0.98349 0.0
H1102 H 0.51623 0.38709 1.0018 0.0
H1103 H 0.42559 0.33784 0.97284 0.0
C1104 C 0.43102 0.30264 0.97451 0.0
C1105 C 0.44911 0.29285 0.9797 0.0
C1106 C 0.50226 0.39469 0.99768 0.0
C1107 C 0.46708 0.34854 0.98392 0.0
C1108 C 0.50984 0.42163 1.00255 0.0
C1109 C 0.49197 0.43195 0.99778 0.0
C1110 C 0.47657 0.37784 0.988 0.0
C1111 C 0.46686 0.41474 0.98757 0.0
C1112 C 0.43999 0.33059 0.97651 0.0
C1113 C 0.4762 0.31138 0.98636 0.0
N1114 N 0.45979 0.38844 0.98315 0.0
N1115 N 0.48435 0.33837 0.98841 0.0
H1116 H 0.20117 0.69554 0.05864 0.0
H1117 H 0.03623 0.58937 0.04933 0.0
H1118 H 0.13905 0.72084 0.06178 0.0
H1119 H 0.10117 0.57231 0.03057 0.0
H1120 H 0.07267 0.63541 0.0599 0.0
H1121 H 0.16364 0.64779 0.05487 0.0
C1122 C 0.1795 0.69083 0.05892 0.0
C1123 C 0.17294 0.71179 0.06057 0.0
C1124 C 0.07884 0.62148 0.05355 0.0
C1125 C 0.13003 0.65759 0.05592 0.0
C1126 C 0.05809 0.59522 0.04756 0.0
C1127 C 0.06567 0.57709 0.03885 0.0
C1128 C 0.10728 0.62943 0.05105 0.0
C1129 C 0.09432 0.58571 0.03694 0.0
C1130 C 0.15812 0.66369 0.05663 0.0
C1131 C 0.14472 0.70498 0.06064 0.0
N1132 N 0.11403 0.61123 0.04295 0.0
N1133 N 0.12417 0.67835 0.05821 0.0
H1134 H 0.2931 0.42638 0.06286 0.0
H1135 H 0.45282 0.52684 0.02868 0.0
H1136 H 0.32828 0.51327 0.0536 0.0
H1137 H 0.41915 0.44088 0.0415 0.0
H1138 H 0.40722 0.52222 0.03711 0.0
H1139 H 0.33912 0.43116 0.05525 0.0
C1140 C 0.3107 0.44652 0.05955 0.0
C1141 C 0.3072 0.46954 0.05911 0.0
C1142 C 0.40973 0.50432 0.03803 0.0
C1143 C 0.35959 0.47518 0.0499 0.0
C1144 C 0.43571 0.50692 0.03304 0.0
C1145 C 0.43956 0.48406 0.034 0.0
C1146 C 0.3875 0.47872 0.04425 0.0
C1147 C 0.41691 0.45892 0.04032 0.0
C1148 C 0.3369 0.44925 0.05506 0.0
C1149 C 0.33037 0.4951 0.05434 0.0
N1150 N 0.39188 0.45689 0.04513 0.0
N1151 N 0.35556 0.49725 0.04986 0.0
H1152 H 0.5378 0.82249 0.03669 0.0
H1153 H 0.55367 0.97038 0.05408 0.0
H1154 H 0.60156 0.88537 0.07381 0.0
H1155 H 0.48901 0.90792 0.0169 0.0
H1156 H 0.56875 0.93802 0.06362 0.0
H1157 H 0.51691 0.85178 0.03146 0.0
C1158 C 0.54706 0.84236 0.04398 0.0
C1159 C 0.57121 0.85171 0.05572 0.0
C1160 C 0.55124 0.93132 0.05339 0.0
C1161 C 0.54795 0.88536 0.04965 0.0
C1162 C 0.54256 0.94985 0.04788 0.0
C1163 C 0.52033 0.94211 0.03429 0.0
C1164 C 0.53766 0.90475 0.04528 0.0
C1165 C 0.50664 0.91504 0.02703 0.0
C1166 C 0.53526 0.85908 0.04095 0.0
C1167 C 0.58278 0.87755 0.06472 0.0
N1168 N 0.51567 0.89739 0.0325 0.0
N1169 N 0.57112 0.8936 0.0614 0.0
H1170 H 0.95942 0.22259 0.41153 0.0
H1171 H 0.10987 0.2672 0.36426 0.0
H1172 H 0.98273 0.16411 0.39043 0.0
H1173 H 0.07956 0.32349 0.37541 0.0
H1174 H 0.06349 0.22886 0.37319 0.0
H1175 H 0.00394 0.25988 0.39887 0.0
C1176 C 0.97401 0.21762 0.40436 0.0
C1177 C 0.96738 0.19022 0.40207 0.0
C1178 C 0.06688 0.24957 0.37343 0.0
C1179 C 0.0183 0.23276 0.38733 0.0
C1180 C 0.09325 0.27139 0.36815 0.0
C1181 C 0.09828 0.29842 0.36877 0.0
C1182 C 0.04571 0.25498 0.37983 0.0
C1183 C 0.07635 0.30286 0.37456 0.0
C1184 C 0.99931 0.23888 0.39695 0.0
C1185 C 0.98691 0.18495 0.39237 0.0
N1186 N 0.05109 0.28141 0.37996 0.0
N1187 N 0.01151 0.20601 0.38543 0.0
H1188 H 0.79653 0.74682 0.40994 0.0
H1189 H 0.74532 0.84965 0.37038 0.0
H1190 H 0.85341 0.83253 0.39777 0.0
H1191 H 0.69003 0.76299 0.37945 0.0
H1192 H 0.78537 0.84395 0.37949 0.0
H1193 H 0.75754 0.75246 0.39834 0.0
C1194 C 0.80085 0.76689 0.40492 0.0
C1195 C 0.8284 0.78926 0.405 0.0
C1196 C 0.76453 0.82612 0.37934 0.0
C1197 C 0.78359 0.79585 0.39143 0.0
C1198 C 0.74168 0.82935 0.37396 0.0
C1199 C 0.71441 0.8066 0.37363 0.0
C1200 C 0.76002 0.80003 0.38478 0.0
C1201 C 0.71079 0.78096 0.37919 0.0
C1202 C 0.77854 0.77006 0.39815 0.0
C1203 C 0.83262 0.81463 0.39788 0.0
N1204 N 0.73328 0.77835 0.38448 0.0
N1205 N 0.8105 0.81726 0.39149 0.0
H1206 H 0.22477 0.03838 0.4279 0.0
H1207 H 0.20275 0.94062 0.33526 0.0
H1208 H 0.2618 0.06918 0.36984 0.0
H1209 H 0.19854 0.91393 0.39629 0.0
H1210 H 0.21797 0.98708 0.34726 0.0
H1211 H 0.20954 0.99173 0.41631 0.0
C1212 C 0.22992 0.03545 0.41279 0.0
C1213 C 0.24454 0.0579 0.39983 0.0
C1214 C 0.21363 0.97102 0.35802 0.0
C1215 C 0.22648 0.00444 0.38638 0.0
C1216 C 0.20461 0.94444 0.35117 0.0
C1217 C 0.19909 0.9234 0.36478 0.0
C1218 C 0.2168 0.97645 0.37867 0.0
C1219 C 0.20267 0.92967 0.3853 0.0
C1220 C 0.22105 0.00878 0.40617 0.0
C1221 C 0.25008 0.05261 0.38027 0.0
N1222 N 0.21114 0.95563 0.39165 0.0
N1223 N 0.24089 0.02645 0.37412 0.0
H1224 H 0.54325 0.61957 0.2881 0.0
H1225 H 0.57631 0.75808 0.34416 0.0
H1226 H 0.48131 0.64405 0.29881 0.0
H1227 H 0.64132 0.74586 0.31838 0.0
H1228 H 0.54108 0.71391 0.3306 0.0
H1229 H 0.57945 0.66382 0.30141 0.0
C1230 C 0.53724 0.63426 0.29309 0.0
C1231 C 0.50906 0.62791 0.2924 0.0
C1232 C 0.56305 0.72087 0.3279 0.0
C1233 C 0.55036 0.67835 0.30801 0.0
C1234 C 0.58323 0.74604 0.33576 0.0
C1235 C 0.61188 0.75571 0.33246 0.0
C1236 C 0.57147 0.70505 0.31673 0.0
C1237 C 0.61949 0.73926 0.32126 0.0
C1238 C 0.55792 0.65945 0.30079 0.0
C1239 C 0.50257 0.64769 0.2994 0.0
N1240 N 0.59939 0.71467 0.31384 0.0
N1241 N 0.523 0.6719 0.30697 0.0
H1242 H 0.38559 0.8825 0.32868 0.0
H1243 H 0.26609 0.91261 0.31907 0.0
H1244 H 0.35929 0.88301 0.26767 0.0
H1245 H 0.23562 0.82796 0.33482 0.0
H1246 H 0.31126 0.91683 0.30949 0.0
H1247 H 0.34046 0.87602 0.34035 0.0
C1248 C 0.3705 0.88103 0.31763 0.0
C1249 C 0.37673 0.88327 0.29697 0.0
C1250 C 0.29475 0.89752 0.31537 0.0
C1251 C 0.32534 0.87686 0.31061 0.0
C1252 C 0.26909 0.89507 0.3209 0.0
C1253 C 0.24727 0.87008 0.32822 0.0
C1254 C 0.29875 0.8749 0.31731 0.0
C1255 C 0.25212 0.84782 0.32984 0.0
C1256 C 0.3448 0.87751 0.32443 0.0
C1257 C 0.35613 0.88202 0.28369 0.0
N1258 N 0.27747 0.85078 0.32455 0.0
N1259 N 0.33157 0.8792 0.29074 0.0
H1260 H 0.11855 0.48522 0.27147 0.0
H1261 H 0.14593 0.41246 0.36406 0.0
H1262 H 0.08515 0.48223 0.33054 0.0
H1263 H 0.14712 0.38778 0.30312 0.0
H1264 H 0.12984 0.44344 0.35215 0.0
H1265 H 0.134 0.45341 0.28274 0.0
C1266 C 0.11417 0.47771 0.28672 0.0
C1267 C 0.10069 0.48669 0.30009 0.0
C1268 C 0.1337 0.43128 0.34139 0.0
C1269 C 0.11904 0.4509 0.31318 0.0
C1270 C 0.14321 0.41385 0.34819 0.0
C1271 C 0.14805 0.39769 0.33459 0.0
C1272 C 0.12935 0.4328 0.32081 0.0
C1273 C 0.1435 0.39983 0.31413 0.0
C1274 C 0.1232 0.45971 0.29317 0.0
C1275 C 0.09604 0.47649 0.31979 0.0
N1276 N 0.13454 0.41717 0.30783 0.0
N1277 N 0.10541 0.45936 0.32577 0.0
H1278 H 0.38344 0.47298 0.29973 0.0
H1279 H 0.22466 0.40983 0.338 0.0
H1280 H 0.34014 0.51899 0.30388 0.0
H1281 H 0.26212 0.36001 0.32487 0.0
H1282 H 0.26839 0.45071 0.32818 0.0
H1283 H 0.34027 0.43149 0.31049 0.0
C1284 C 0.36465 0.47413 0.30261 0.0
C1285 C 0.36492 0.49906 0.3007 0.0
C1286 C 0.26715 0.43087 0.32753 0.0
C1287 C 0.31607 0.45236 0.31345 0.0
C1288 C 0.24227 0.40759 0.33334 0.0
C1289 C 0.24001 0.38163 0.33252 0.0
C1290 C 0.28982 0.42814 0.32065 0.0
C1291 C 0.26321 0.37976 0.32587 0.0
C1292 C 0.34014 0.45061 0.30887 0.0
C1293 C 0.34045 0.4999 0.30496 0.0
N1294 N 0.28718 0.40271 0.32019 0.0
N1295 N 0.31701 0.47691 0.31121 0.0
H1296 H 0.53773 0.91352 0.30332 0.0
H1297 H 0.60074 0.81624 0.33305 0.0
H1298 H 0.48809 0.82553 0.30813 0.0
H1299 H 0.65263 0.90319 0.32302 0.0
H1300 H 0.55928 0.81957 0.3245 0.0
H1301 H 0.58021 0.91065 0.31041 0.0
C1302 C 0.53592 0.89359 0.30555 0.0
C1303 C 0.5096 0.86968 0.3049 0.0
C1304 C 0.57969 0.83799 0.32421 0.0
C1305 C 0.55772 0.86618 0.31345 0.0
C1306 C 0.60337 0.83612 0.32931 0.0
C1307 C 0.6301 0.85962 0.32931 0.0
C1308 C 0.58268 0.86354 0.31884 0.0
C1309 C 0.63232 0.88467 0.32355 0.0
C1310 C 0.56007 0.89193 0.30972 0.0
C1311 C 0.50814 0.84439 0.30827 0.0
N1312 N 0.60893 0.88602 0.31868 0.0
N1313 N 0.53181 0.84329 0.31247 0.0
H1314 H 0.15393 0.63421 0.32183 0.0
H1315 H 0.11727 0.75524 0.3159 0.0
H1316 H 0.07309 0.62151 0.30364 0.0
H1317 H 0.19185 0.76337 0.34406 0.0
H1318 H 0.10328 0.70796 0.30694 0.0
H1319 H 0.17083 0.68343 0.32535 0.0
C1320 C 0.13995 0.64202 0.31827 0.0
C1321 C 0.11226 0.62419 0.31239 0.0
C1322 C 0.12272 0.72013 0.31504 0.0
C1323 C 0.13105 0.68003 0.31665 0.0
C1324 C 0.13077 0.74715 0.32016 0.0
C1325 C 0.1556 0.7632 0.331 0.0
C1326 C 0.13973 0.70914 0.32067 0.0
C1327 C 0.1723 0.75163 0.33599 0.0
C1328 C 0.14948 0.66999 0.32039 0.0
C1329 C 0.09468 0.6349 0.30812 0.0
N1330 N 0.16401 0.72528 0.33084 0.0
N1331 N 0.10435 0.66224 0.31043 0.0
H1332 H 0.86823 0.03122 0.39134 0.0
H1333 H 0.70365 0.92409 0.38147 0.0
H1334 H 0.80549 0.05561 0.39542 0.0
H1335 H 0.76907 0.90825 0.36178 0.0
H1336 H 0.73977 0.97011 0.39227 0.0
H1337 H 0.83106 0.98348 0.38678 0.0
C1338 C 0.84649 0.0263 0.39167 0.0
C1339 C 0.83966 0.04701 0.39383 0.0
C1340 C 0.74613 0.95646 0.38564 0.0
C1341 C 0.79716 0.99284 0.38824 0.0
C1342 C 0.72556 0.93022 0.3795 0.0
C1343 C 0.73335 0.91241 0.37051 0.0
C1344 C 0.77462 0.96474 0.38301 0.0
C1345 C 0.76206 0.9214 0.36837 0.0
C1346 C 0.82532 -0.00083 0.38891 0.0
C1347 C 0.81137 0.03994 0.39391 0.0
N1348 N 0.7816 0.94689 0.37456 0.0
N1349 N 0.79103 0.01334 0.39103 0.0
H1350 H 0.99898 0.85215 0.39359 0.0
H1351 H 0.08499 0.77323 0.37455 0.0
H1352 H 0.96172 0.76435 0.39788 0.0
H1353 H 0.1193 0.85978 0.36393 0.0
H1354 H 0.04023 0.76965 0.38406 0.0
H1355 H 0.0438 0.85562 0.38425 0.0
C1356 C 1.00045 0.83363 0.39287 0.0
C1357 C 0.97688 0.80798 0.39677 0.0
C1358 C 0.05743 0.78941 0.37953 0.0
C1359 C 0.0279 0.81164 0.38573 0.0
C1360 C 0.08296 0.79145 0.37406 0.0
C1361 C 0.10571 0.81673 0.3681 0.0
C1362 C 0.05466 0.81297 0.37943 0.0
C1363 C 0.10212 0.83979 0.36803 0.0
C1364 C 0.02595 0.83558 0.38738 0.0
C1365 C 0.9796 0.78454 0.39526 0.0
N1366 N 0.07711 0.83736 0.37362 0.0
N1367 N 0.00467 0.78692 0.38986 0.0
H1368 H 0.19893 0.15438 0.373 0.0
H1369 H 0.22555 0.3072 0.38578 0.0
H1370 H 0.27274 0.21993 0.40075 0.0
H1371 H 0.15605 0.24381 0.35243 0.0
H1372 H 0.24032 0.27425 0.39464 0.0
H1373 H 0.18002 0.18545 0.36875 0.0
C1374 C 0.21089 0.17529 0.37847 0.0
C1375 C 0.23723 0.18482 0.38728 0.0
C1376 C 0.22182 0.26753 0.3854 0.0
C1377 C 0.21618 0.22047 0.38227 0.0
C1378 C 0.21333 0.28635 0.38031 0.0
C1379 C 0.18974 0.27843 0.36802 0.0
C1380 C 0.20661 0.24048 0.37824 0.0
C1381 C 0.17466 0.25101 0.36159 0.0
C1382 C 0.20022 0.19303 0.37596 0.0
C1383 C 0.25223 0.21198 0.39397 0.0
N1384 N 0.18343 0.23306 0.36671 0.0
N1385 N 0.24153 0.22898 0.39124 0.0
H1386 H 0.6119 0.53754 0.71164 0.0
H1387 H 0.74404 0.65543 0.70123 0.0
H1388 H 0.65766 0.51329 0.75121 0.0
H1389 H 0.77461 0.59814 0.70231 0.0
H1390 H 0.69695 0.61792 0.70946 0.0
H1391 H 0.65665 0.57463 0.69858 0.0
C1392 C 0.63146 0.54029 0.71766 0.0
C1393 C 0.63135 0.52286 0.73271 0.0
C1394 C 0.71381 0.61344 0.70745 0.0
C1395 C 0.68222 0.56457 0.71773 0.0
C1396 C 0.7406 0.63478 0.70281 0.0
C1397 C 0.76291 0.62962 0.70068 0.0
C1398 C 0.70957 0.58695 0.71065 0.0
C1399 C 0.75771 0.60272 0.70337 0.0
C1400 C 0.65685 0.56134 0.71024 0.0
C1401 C 0.65707 0.52674 0.73984 0.0
N1402 N 0.73157 0.58236 0.70853 0.0
N1403 N 0.68158 0.54713 0.73216 0.0
H1404 H 0.48104 0.08808 0.71172 0.0
H1405 H 0.35523 0.09189 0.70542 0.0
H1406 H 0.50117 0.15216 0.755 0.0
H1407 H 0.4108 0.17949 0.70585 0.0
H1408 H 0.39518 0.08545 0.71367 0.0
H1409 H 0.44153 0.09332 0.69985 0.0
C1410 C 0.4771 0.10326 0.71868 0.0
C1411 C 0.49409 0.11953 0.73447 0.0
C1412 C 0.39866 0.10605 0.71165 0.0
C1413 C 0.44944 0.12588 0.72085 0.0
C1414 C 0.37595 0.10972 0.70699 0.0
C1415 C 0.37994 0.1362 0.70439 0.0
C1416 C 0.42537 0.12908 0.71451 0.0
C1417 C 0.40704 0.15872 0.70715 0.0
C1418 C 0.4546 0.10616 0.71197 0.0
C1419 C 0.48829 0.13904 0.74294 0.0
N1420 N 0.42872 0.15467 0.7123 0.0
N1421 N 0.46656 0.14186 0.73591 0.0
H1422 H 0.86621 0.3803 0.71967 0.0
H1423 H 0.89942 0.25682 0.71828 0.0
H1424 H 0.93684 0.38235 0.74969 0.0
H1425 H 0.82987 0.25441 0.68627 0.0
H1426 H 0.91277 0.30261 0.73023 0.0
H1427 H 0.8521 0.33412 0.70743 0.0
C1428 C 0.87878 0.37107 0.72366 0.0
C1429 C 0.90271 0.3852 0.73578 0.0
C1430 C 0.89462 0.29214 0.72055 0.0
C1431 C 0.88658 0.33233 0.72195 0.0
C1432 C 0.88694 0.2659 0.7137 0.0
C1433 C 0.86357 0.25174 0.70109 0.0
C1434 C 0.87881 0.30441 0.71485 0.0
C1435 C 0.84824 0.26466 0.69575 0.0
C1436 C 0.87064 0.34467 0.71673 0.0
C1437 C 0.918 0.3721 0.74066 0.0
N1438 N 0.85613 0.29029 0.70266 0.0
N1439 N 0.90969 0.34646 0.73372 0.0
H1440 H 0.17771 0.9418 0.65999 0.0
H1441 H 0.29472 0.09533 0.63454 0.0
H1442 H 0.18677 0.9759 0.60065 0.0
H1443 H 0.25922 0.06937 0.69341 0.0
H1444 H 0.26069 0.04985 0.62155 0.0
H1445 H 0.21306 0.98682 0.67219 0.0
C1446 C 0.18696 0.95873 0.6495 0.0
C1447 C 0.17881 0.95499 0.62926 0.0
C1448 C 0.26036 0.05422 0.63731 0.0
C1449 C 0.22001 0.00657 0.64317 0.0
C1450 C 0.27982 0.08007 0.64477 0.0
C1451 C 0.27964 0.08624 0.66513 0.0
C1452 C 0.24098 0.03425 0.6504 0.0
C1453 C 0.25982 0.06574 0.67764 0.0
C1454 C 0.20729 0.98442 0.6565 0.0
C1455 C 0.19242 0.97766 0.61633 0.0
N1456 N 0.24138 0.04062 0.67012 0.0
N1457 N 0.21235 0.0025 0.6235 0.0
H1458 H 0.05344 0.25683 0.62174 0.0
H1459 H 0.90051 0.15744 0.66716 0.0
H1460 H 0.0266 0.17424 0.64144 0.0
H1461 H 0.93365 0.24384 0.65656 0.0
H1462 H 0.9462 0.16272 0.65805 0.0
H1463 H 0.00919 0.25191 0.63387 0.0
C1464 C 0.03819 0.23759 0.62851 0.0
C1465 C 0.04382 0.2159 0.63049 0.0
C1466 C 0.94359 0.18059 0.65791 0.0
C1467 C 0.99294 0.21016 0.64462 0.0
C1468 C 0.91756 0.17761 0.6633 0.0
C1469 C 0.9135 0.20038 0.66305 0.0
C1470 C 0.96551 0.2064 0.65178 0.0
C1471 C 0.93605 0.22584 0.6572 0.0
C1472 C 0.01297 0.23486 0.6356 0.0
C1473 C 0.02332 0.1916 0.63972 0.0
N1474 N 0.96098 0.22816 0.65176 0.0
N1475 N 0.99881 0.18935 0.64634 0.0
H1476 H 0.81178 0.85302 0.64743 0.0
H1477 H 0.78019 0.69779 0.6462 0.0
H1478 H 0.74152 0.78708 0.61647 0.0
H1479 H 0.84746 0.76234 0.68043 0.0
H1480 H 0.76709 0.7307 0.63408 0.0
H1481 H 0.82635 0.82061 0.65858 0.0
C1482 C 0.79937 0.83169 0.64301 0.0
C1483 C 0.77526 0.82273 0.63109 0.0
C1484 C 0.78468 0.73769 0.64427 0.0
C1485 C 0.79203 0.78553 0.64367 0.0
C1486 C 0.79224 0.71888 0.65123 0.0
C1487 C 0.81486 0.7272 0.66455 0.0
C1488 C 0.79987 0.76514 0.65057 0.0
C1489 C 0.82965 0.75488 0.67041 0.0
C1490 C 0.80778 0.81322 0.64932 0.0
C1491 C 0.76035 0.79497 0.62549 0.0
N1492 N 0.82188 0.77285 0.66339 0.0
N1493 N 0.76892 0.77735 0.63189 0.0
H1494 H 0.05259 0.79356 0.63912 0.0
H1495 H 0.89207 0.73865 0.66967 0.0
H1496 H 0.01552 0.84525 0.64304 0.0
H1497 H 0.92673 0.68548 0.66074 0.0
H1498 H 0.93765 0.77821 0.66124 0.0
H1499 H 0.00679 0.75353 0.64717 0.0
C1500 C 0.03458 0.79627 0.64129 0.0
C1501 C 0.03742 0.82239 0.64015 0.0
C1502 C 0.93538 0.75792 0.66121 0.0
C1503 C 0.98546 0.77725 0.64991 0.0
C1504 C 0.90944 0.73539 0.66625 0.0
C1505 C 0.90589 0.70889 0.66629 0.0
C1506 C 0.95782 0.75386 0.65592 0.0
C1507 C 0.92881 0.70568 0.66112 0.0
C1508 C 0.00856 0.77356 0.64605 0.0
C1509 C 0.01386 0.82521 0.64352 0.0
N1510 N 0.95382 0.7279 0.65617 0.0
N1511 N 0.98884 0.80291 0.64834 0.0
H1512 H 0.15229 0.1566 0.64418 0.0
H1513 H 0.31992 0.23567 0.65722 0.0
H1514 H 0.20443 0.24417 0.63789 0.0
H1515 H 0.26676 0.14883 0.66708 0.0
H1516 H 0.27834 0.23906 0.64864 0.0
H1517 H 0.19428 0.15304 0.6508 0.0
C1518 C 0.17273 0.17502 0.64387 0.0
C1519 C 0.17511 0.20065 0.64026 0.0
C1520 C 0.2757 0.21927 0.65275 0.0
C1521 C 0.2232 0.19692 0.64815 0.0
C1522 C 0.29942 0.21735 0.65768 0.0
C1523 C 0.29667 0.19207 0.66334 0.0
C1524 C 0.249 0.19561 0.65314 0.0
C1525 C 0.26973 0.16884 0.6633 0.0
C1526 C 0.19667 0.17303 0.64778 0.0
C1527 C 0.20188 0.224 0.64037 0.0
N1528 N 0.24695 0.17119 0.65836 0.0
N1529 N 0.22492 0.22159 0.64429 0.0
H1530 H 0.73672 0.95101 0.63543 0.0
H1531 H 0.85944 0.09495 0.67586 0.0
H1532 H 0.8182 0.96535 0.6535 0.0
H1533 H 0.78284 0.08499 0.65 0.0
H1534 H 0.84503 0.04781 0.66664 0.0
H1535 H 0.75352 0.00039 0.63909 0.0
C1536 C 0.75828 0.96474 0.63985 0.0
C1537 C 0.77627 0.95452 0.64414 0.0
C1538 C 0.83141 0.05593 0.66286 0.0
C1539 C 0.79543 0.01042 0.6487 0.0
C1540 C 0.83956 0.08285 0.66823 0.0
C1541 C 0.82214 0.09384 0.66394 0.0
C1542 C 0.80555 0.03975 0.65318 0.0
C1543 C 0.79686 0.07732 0.6537 0.0
C1544 C 0.76785 0.99281 0.642 0.0
C1545 C 0.80386 0.97274 0.65 0.0
N1546 N 0.7892 0.05099 0.64882 0.0
N1547 N 0.81258 -0.00017 0.65227 0.0
H1548 H 0.53481 0.36521 0.72007 0.0
H1549 H 0.3706 0.2548 0.71529 0.0
H1550 H 0.47044 0.38695 0.72734 0.0
H1551 H 0.43617 0.23959 0.69494 0.0
H1552 H 0.40651 0.30128 0.72521 0.0
H1553 H 0.49847 0.3169 0.71672 0.0
C1554 C 0.51293 0.3596 0.72132 0.0
C1555 C 0.50535 0.37972 0.72403 0.0
C1556 C 0.41297 0.28768 0.71864 0.0
C1557 C 0.46378 0.32488 0.71988 0.0
C1558 C 0.39252 0.26115 0.71301 0.0
C1559 C 0.40039 0.24341 0.70403 0.0
C1560 C 0.44146 0.29636 0.71547 0.0
C1561 C 0.4291 0.2527 0.70151 0.0
C1562 C 0.49222 0.33214 0.71928 0.0
C1563 C 0.47689 0.37176 0.72536 0.0
N1564 N 0.44855 0.27852 0.70714 0.0
N1565 N 0.457 0.34486 0.72315 0.0
H1566 H 0.65784 0.17321 0.71947 0.0
H1567 H 0.7512 0.10068 0.70618 0.0
H1568 H 0.62498 0.08619 0.72576 0.0
H1569 H 0.7839 0.18749 0.69817 0.0
H1570 H 0.70506 0.09511 0.7138 0.0
H1571 H 0.70448 0.17922 0.71266 0.0
C1572 C 0.66066 0.15545 0.71978 0.0
C1573 C 0.63782 0.12925 0.72346 0.0
C1574 C 0.72222 0.11537 0.71025 0.0
C1575 C 0.69083 0.13576 0.71527 0.0
C1576 C 0.74852 0.11853 0.70583 0.0
C1577 C 0.77119 0.14446 0.7011 0.0
C1578 C 0.71857 0.13842 0.71029 0.0
C1579 C 0.76679 0.16702 0.70125 0.0
C1580 C 0.68719 0.15883 0.71573 0.0
C1581 C 0.64226 0.10678 0.72327 0.0
N1582 N 0.741 0.16348 0.70574 0.0
N1583 N 0.66825 0.11053 0.71921 0.0
H1584 H 0.85989 0.48325 0.71331 0.0
H1585 H 0.89044 0.63803 0.7203 0.0
H1586 H 0.93606 0.54988 0.73766 0.0
H1587 H 0.81934 0.57328 0.68911 0.0
H1588 H 0.9045 0.60497 0.73054 0.0
H1589 H 0.84165 0.51475 0.70835 0.0
C1590 C 0.8725 0.50449 0.71793 0.0
C1591 C 0.89932 0.51418 0.72597 0.0
C1592 C 0.88579 0.59798 0.72149 0.0
C1593 C 0.87904 0.55033 0.72008 0.0
C1594 C 0.8777 0.61686 0.71561 0.0
C1595 C 0.85388 0.60855 0.70351 0.0
C1596 C 0.86991 0.5705 0.71532 0.0
C1597 C 0.83815 0.58075 0.6981 0.0
C1598 C 0.86222 0.52248 0.715 0.0
C1599 C 0.91515 0.54178 0.73152 0.0
N1600 N 0.84651 0.56276 0.70396 0.0
N1601 N 0.90482 0.55901 0.72837 0.0
H1602 H 0.41291 0.89952 0.22936 0.0
H1603 H 0.54863 0.00836 0.16807 0.0
H1604 H 0.49689 0.93971 0.25364 0.0
H1605 H 0.46454 0.96964 0.14409 0.0
H1606 H 0.53028 0.98189 0.19885 0.0
H1607 H 0.43155 0.92352 0.19769 0.0
C1608 C 0.43528 0.91348 0.22811 0.0
C1609 C 0.45327 0.91769 0.2444 0.0
C1610 C 0.51581 0.97908 0.18686 0.0
C1611 C 0.4749 0.94514 0.20781 0.0
C1612 C 0.52627 0.99432 0.16925 0.0
C1613 C 0.50812 0.99151 0.15341 0.0
C1614 C 0.48689 0.96076 0.18882 0.0
C1615 C 0.47941 0.97245 0.15577 0.0
C1616 C 0.44594 0.92707 0.20991 0.0
C1617 C 0.48217 0.9356 0.24156 0.0
N1618 N 0.4697 0.95798 0.17315 0.0
N1619 N 0.49202 0.94871 0.22371 0.0
H1620 H 0.09111 0.51487 0.23287 0.0
H1621 H 0.97719 0.53209 0.16923 0.0
H1622 H 0.03523 0.53983 0.25858 0.0
H1623 H 0.02175 0.49262 0.14643 0.0
H1624 H 1.00146 0.53917 0.20121 0.0
H1625 H 0.06924 0.51084 0.20023 0.0
C1626 C 0.07423 0.51948 0.23169 0.0
C1627 C 0.06493 0.52755 0.24861 0.0
C1628 C 0.00596 0.52901 0.18919 0.0
C1629 C 0.03999 0.52329 0.21112 0.0
C1630 C 0.99199 0.52481 0.17093 0.0
C1631 C 0.99725 0.51158 0.15505 0.0
C1632 C 0.02549 0.52004 0.19167 0.0
C1633 C 0.01718 0.50318 0.1581 0.0
C1634 C 0.06183 0.51728 0.21301 0.0
C1635 C 0.04336 0.53383 0.24599 0.0
N1636 N 0.0305 0.5075 0.17603 0.0
N1637 N 0.03159 0.53148 0.22765 0.0
H1638 H 0.516 0.55749 0.25453 0.0
H1639 H 0.47435 0.50193 0.14203 0.0
H1640 H 0.43702 0.53919 0.22787 0.0
H1641 H 0.55688 0.53329 0.16775 0.0
H1642 H 0.45829 0.51137 0.17375 0.0
H1643 H 0.52875 0.54329 0.22367 0.0
C1644 C 0.50124 0.5503 0.24218 0.0
C1645 C 0.47554 0.54985 0.24371 0.0
C1646 C 0.47988 0.51607 0.17242 0.0
C1647 C 0.49008 0.53355 0.20811 0.0
C1648 C 0.48914 0.51088 0.15426 0.0
C1649 C 0.51705 0.5167 0.15213 0.0
C1650 C 0.49861 0.5271 0.18861 0.0
C1651 C 0.53507 0.52793 0.16868 0.0
C1652 C 0.50855 0.54221 0.22452 0.0
C1653 C 0.45702 0.53983 0.22734 0.0
N1654 N 0.52555 0.53271 0.18612 0.0
N1655 N 0.46476 0.5323 0.21013 0.0
H1656 H 0.92891 0.48131 0.79826 0.0
H1657 H 0.03791 0.46799 0.8709 0.0
H1658 H 0.97107 0.43595 0.78428 0.0
H1659 H 0.99272 0.50909 0.88864 0.0
H1660 H 0.01448 0.45784 0.83851 0.0
H1661 H 0.95307 0.49371 0.83084 0.0
C1662 C 0.94328 0.47405 0.80201 0.0
C1663 C 0.94771 0.45729 0.78864 0.0
C1664 C 0.00962 0.4691 0.84944 0.0
C1665 C 0.97533 0.47132 0.82573 0.0
C1666 C 0.02316 0.47504 0.86793 0.0
C1667 C 0.0174 0.48953 0.88251 0.0
C1668 C 0.9901 0.47769 0.84534 0.0
C1669 C 0.99763 0.49767 0.87791 0.0
C1670 C 0.95695 0.48101 0.82061 0.0
C1671 C 0.96654 0.44843 0.79427 0.0
N1672 N 0.98472 0.4917 0.8597 0.0
N1673 N 0.97956 0.45551 0.81232 0.0
H1674 H 0.51391 0.45998 0.77509 0.0
H1675 H 0.54644 0.51527 0.88796 0.0
H1676 H 0.59645 0.49579 0.8016 0.0
H1677 H 0.46328 0.47217 0.86232 0.0
H1678 H 0.56523 0.50752 0.85696 0.0
H1679 H 0.49511 0.46337 0.80729 0.0
C1680 C 0.5281 0.46824 0.78772 0.0
C1681 C 0.55689 0.47756 0.7855 0.0
C1682 C 0.54286 0.49968 0.85816 0.0
C1683 C 0.53541 0.48208 0.82257 0.0
C1684 C 0.53207 0.50397 0.87591 0.0
C1685 C 0.5032 0.49454 0.87778 0.0
C1686 C 0.52469 0.48588 0.84209 0.0
C1687 C 0.48572 0.48031 0.8615 0.0
C1688 C 0.51732 0.47037 0.80613 0.0
C1689 C 0.5742 0.48866 0.80245 0.0
N1690 N 0.49673 0.47653 0.84438 0.0
N1691 N 0.56322 0.4907 0.82021 0.0
H1692 H 0.55036 0.06135 0.77829 0.0
H1693 H 0.49628 0.04899 0.89163 0.0
H1694 H 0.52377 0.11527 0.8037 0.0
H1695 H 0.50977 0.98791 0.86266 0.0
H1696 H 0.51221 0.07694 0.86111 0.0
H1697 H 0.54183 0.03792 0.8106 0.0
C1698 C 0.54315 0.06857 0.79073 0.0
C1699 C 0.53764 0.09027 0.78816 0.0
C1700 C 0.51181 0.05748 0.86147 0.0
C1701 C 0.52746 0.06322 0.82528 0.0
C1702 C 0.50288 0.04158 0.87895 0.0
C1703 C 0.50143 0.01591 0.87972 0.0
C1704 C 0.51962 0.0478 0.84462 0.0
C1705 C 0.51007 0.00733 0.8627 0.0
C1706 C 0.53804 0.05501 0.80916 0.0
C1707 C 0.52795 0.09842 0.80486 0.0
N1708 N 0.5187 0.02315 0.8459 0.0
N1709 N 0.52308 0.08486 0.82262 0.0
H1710 H 0.08002 0.22834 0.56264 0.0
H1711 H 0.21601 0.33973 0.50296 0.0
H1712 H 0.16331 0.27053 0.58808 0.0
H1713 H 0.13226 0.30075 0.47836 0.0
H1714 H 0.19746 0.31244 0.53337 0.0
H1715 H 0.09906 0.25246 0.53106 0.0
C1716 C 0.10233 0.24272 0.56164 0.0
C1717 C 0.11999 0.24752 0.57824 0.0
C1718 C 0.18311 0.30975 0.52132 0.0
C1719 C 0.14207 0.27513 0.5418 0.0
C1720 C 0.19368 0.32545 0.50393 0.0
C1721 C 0.17568 0.32283 0.48803 0.0
C1722 C 0.15422 0.29113 0.523 0.0
C1723 C 0.14701 0.30345 0.4901 0.0
C1724 C 0.11321 0.2564 0.54351 0.0
C1725 C 0.14884 0.26596 0.57575 0.0
N1726 N 0.13718 0.2885 0.50726 0.0
N1727 N 0.1589 0.27915 0.55797 0.0
H1728 H 0.75667 0.90086 0.57316 0.0
H1729 H 0.63086 0.80335 0.50029 0.0
H1730 H 0.70508 0.81358 0.58237 0.0
H1731 H 0.69989 0.88077 0.4806 0.0
H1732 H 0.65502 0.80878 0.53221 0.0
H1733 H 0.73346 0.89595 0.54072 0.0
C1734 C 0.74047 0.8807 0.56833 0.0
C1735 C 0.73284 0.85757 0.58039 0.0
C1736 C 0.66491 0.82456 0.5209 0.0
C1737 C 0.70612 0.85185 0.54355 0.0
C1738 C 0.65107 0.82155 0.50275 0.0
C1739 C 0.66341 0.84165 0.48782 0.0
C1740 C 0.69113 0.84805 0.5243 0.0
C1741 C 0.68977 0.86471 0.49169 0.0
C1742 C 0.72735 0.87789 0.54983 0.0
C1743 C 0.71181 0.83189 0.57343 0.0
N1744 N 0.7027 0.86739 0.50962 0.0
N1745 N 0.69907 0.82975 0.55555 0.0
H1746 H 0.14745 0.92043 0.56095 0.0
H1747 H 0.17158 0.8112 0.50048 0.0
H1748 H 0.12868 0.8421 0.5855 0.0
H1749 H 0.18004 0.88514 0.47423 0.0
H1750 H 0.1541 0.82105 0.53126 0.0
H1751 H 0.15716 0.90667 0.52859 0.0
C1752 C 0.14515 0.9002 0.55945 0.0
C1753 C 0.13746 0.88246 0.57598 0.0
C1754 C 0.15958 0.83502 0.51872 0.0
C1755 C 0.1488 0.86658 0.53894 0.0
C1756 C 0.16974 0.8295 0.50117 0.0
C1757 C 0.17751 0.84747 0.48475 0.0
C1758 C 0.15734 0.85882 0.51998 0.0
C1759 C 0.17417 0.87061 0.48642 0.0
C1760 C 0.15067 0.89233 0.54096 0.0
C1761 C 0.13448 0.85637 0.57314 0.0
N1762 N 0.16458 0.87571 0.50375 0.0
N1763 N 0.14048 0.84933 0.55504 0.0
H1764 H 0.60331 0.81973 0.12984 0.0
H1765 H 0.70396 0.79652 0.20459 0.0
H1766 H 0.64089 0.77002 0.11635 0.0
H1767 H 0.66376 0.84296 0.22096 0.0
H1768 H 0.68153 0.78771 0.17184 0.0
H1769 H 0.62599 0.82986 0.16289 0.0
C1770 C 0.61637 0.81102 0.13381 0.0
C1771 C 0.61997 0.79377 0.12039 0.0
C1772 C 0.67756 0.79984 0.18256 0.0
C1773 C 0.64586 0.80519 0.15809 0.0
C1774 C 0.6905 0.805 0.20125 0.0
C1775 C 0.68586 0.82062 0.21554 0.0
C1776 C 0.65979 0.81038 0.17797 0.0
C1777 C 0.66776 0.83063 0.21047 0.0
C1778 C 0.62918 0.81669 0.15268 0.0
C1779 C 0.63704 0.78297 0.12633 0.0
N1780 N 0.65544 0.82541 0.19207 0.0
N1781 N 0.64929 0.78884 0.14468 0.0
H1782 H 0.2639 0.83031 0.13631 0.0
H1783 H 0.12646 0.80476 0.19606 0.0
H1784 H 0.18118 0.79352 0.11002 0.0
H1785 H 0.20995 0.84786 0.22114 0.0
H1786 H 0.14585 0.79788 0.16516 0.0
H1787 H 0.24426 0.83431 0.16814 0.0
C1788 C 0.24161 0.82309 0.13719 0.0
C1789 C 0.22423 0.81167 0.12035 0.0
C1790 C 0.15995 0.80879 0.17743 0.0
C1791 C 0.20152 0.81597 0.15692 0.0
C1792 C 0.1489 0.81287 0.19508 0.0
C1793 C 0.16658 0.82712 0.21125 0.0
C1794 C 0.18897 0.81899 0.17583 0.0
C1795 C 0.19544 0.83658 0.20918 0.0
C1796 C 0.23039 0.82527 0.15543 0.0
C1797 C 0.1954 0.80219 0.12259 0.0
N1798 N 0.20572 0.83245 0.19179 0.0
N1799 N 0.18501 0.80465 0.14047 0.0
H1800 H 0.21927 0.39766 0.11277 0.0
H1801 H 0.16483 0.38359 0.22619 0.0
H1802 H 0.1905 0.44959 0.13865 0.0
H1803 H 0.17995 0.3235 0.19729 0.0
H1804 H 0.18022 0.41149 0.19568 0.0
H1805 H 0.21118 0.37388 0.14501 0.0
C1806 C 0.21162 0.40431 0.12529 0.0
C1807 C 0.20533 0.42551 0.12291 0.0
C1808 C 0.1803 0.39226 0.19604 0.0
C1809 C 0.19583 0.39826 0.15987 0.0
C1810 C 0.17168 0.37639 0.21353 0.0
C1811 C 0.17085 0.351 0.21432 0.0
C1812 C 0.1884 0.38284 0.17919 0.0
C1813 C 0.17977 0.34268 0.1973 0.0
C1814 C 0.2068 0.3906 0.14366 0.0
C1815 C 0.19524 0.43308 0.13968 0.0
N1816 N 0.18808 0.35847 0.18048 0.0
N1817 N 0.19072 0.41946 0.15735 0.0
H1818 H 0.74753 0.56458 0.89674 0.0
H1819 H 0.88182 0.67659 0.83588 0.0
H1820 H 0.83094 0.60892 0.92182 0.0
H1821 H 0.79789 0.63519 0.81154 0.0
H1822 H 0.86399 0.64997 0.86664 0.0
H1823 H 0.76594 0.58811 0.86487 0.0
C1824 C 0.76973 0.5793 0.8956 0.0
C1825 C 0.78761 0.58488 0.91218 0.0
C1826 C 0.84945 0.6466 0.85457 0.0
C1827 C 0.80898 0.61183 0.87542 0.0
C1828 C 0.8596 0.66193 0.83698 0.0
C1829 C 0.84134 0.65842 0.82104 0.0
C1830 C 0.82071 0.62748 0.85642 0.0
C1831 C 0.81284 0.63857 0.8233 0.0
C1832 C 0.78026 0.59264 0.87731 0.0
C1833 C 0.81632 0.60375 0.90951 0.0
N1834 N 0.80342 0.62401 0.84066 0.0
N1835 N 0.82603 0.6166 0.89158 0.0
H1836 H 0.43683 0.19106 0.89714 0.0
H1837 H 0.31827 0.20239 0.83512 0.0
H1838 H 0.37707 0.21003 0.92405 0.0
H1839 H 0.3638 0.16413 0.81189 0.0
H1840 H 0.34373 0.21082 0.86669 0.0
H1841 H 0.41448 0.18674 0.86464 0.0
C1842 C 0.41903 0.19433 0.89626 0.0
C1843 C 0.40874 0.20074 0.91349 0.0
C1844 C 0.34819 0.20064 0.85466 0.0
C1845 C 0.38329 0.19618 0.87618 0.0
C1846 C 0.33354 0.19566 0.83664 0.0
C1847 C 0.33866 0.1823 0.82078 0.0
C1848 C 0.36831 0.19238 0.85689 0.0
C1849 C 0.35927 0.17472 0.82355 0.0
C1850 C 0.40636 0.19197 0.87767 0.0
C1851 C 0.38599 0.20536 0.91124 0.0
N1852 N 0.37326 0.1798 0.84126 0.0
N1853 N 0.37401 0.20291 0.89298 0.0
H1854 H 0.76904 0.19902 0.89741 0.0
H1855 H 0.89273 0.19833 0.83409 0.0
H1856 H 0.85317 0.22829 0.91915 0.0
H1857 H 0.8089 0.16603 0.81061 0.0
H1858 H 0.8775 0.20836 0.86555 0.0
H1859 H 0.78177 0.185 0.86598 0.0
C1860 C 0.79004 0.2022 0.89567 0.0
C1861 C 0.81016 0.21512 0.91084 0.0
C1862 C 0.86232 0.19902 0.85358 0.0
C1863 C 0.82493 0.19944 0.87498 0.0
C1864 C 0.87101 0.19315 0.83557 0.0
C1865 C 0.85206 0.18109 0.81963 0.0
C1866 C 0.83438 0.19294 0.85587 0.0
C1867 C 0.82432 0.17551 0.8224 0.0
C1868 C 0.79736 0.19438 0.8777 0.0
C1869 C 0.83712 0.21886 0.90775 0.0
N1870 N 0.81629 0.18143 0.84018 0.0
N1871 N 0.84369 0.21121 0.89022 0.0
H1872 H 0.31671 0.17036 0.44356 0.0
H1873 H 0.31064 0.12423 0.55787 0.0
H1874 H 0.25057 0.09426 0.46773 0.0
H1875 H 0.38067 0.19655 0.53246 0.0
H1876 H 0.28609 0.11537 0.52583 0.0
H1877 H 0.33794 0.18287 0.4769 0.0
C1878 C 0.30642 0.15646 0.45594 0.0
C1879 C 0.28191 0.13114 0.45282 0.0
C1880 C 0.30679 0.13324 0.52727 0.0
C1881 C 0.30631 0.14516 0.49097 0.0
C1882 C 0.32077 0.1384 0.54561 0.0
C1883 C 0.34784 0.16112 0.54786 0.0
C1884 C 0.3199 0.15095 0.51101 0.0
C1885 C 0.36002 0.17856 0.53133 0.0
C1886 C 0.31868 0.16352 0.47494 0.0
C1887 C 0.2697 0.1138 0.46938 0.0
N1888 N 0.346 0.17309 0.51362 0.0
N1889 N 0.28208 0.12107 0.4877 0.0
H1890 H 0.93064 0.16525 0.47012 0.0
H1891 H 0.79364 0.1405 0.53009 0.0
H1892 H 0.84809 0.12976 0.4437 0.0
H1893 H 0.87704 0.18197 0.55539 0.0
H1894 H 0.8129 0.13401 0.49899 0.0
H1895 H 0.91111 0.16918 0.502 0.0
C1896 C 0.90842 0.15832 0.47098 0.0
C1897 C 0.89105 0.14727 0.45408 0.0
C1898 C 0.827 0.14448 0.51134 0.0
C1899 C 0.86845 0.15146 0.49074 0.0
C1900 C 0.81603 0.14833 0.52912 0.0
C1901 C 0.83372 0.162 0.54543 0.0
C1902 C 0.85596 0.15432 0.50975 0.0
C1903 C 0.86251 0.17113 0.54333 0.0
C1904 C 0.89725 0.16045 0.48925 0.0
C1905 C 0.86229 0.13815 0.4563 0.0
N1906 N 0.87272 0.16723 0.52582 0.0
N1907 N 0.85195 0.14054 0.47423 0.0
H1908 H 0.82583 0.71646 0.44492 0.0
H1909 H 0.8723 0.70383 0.5567 0.0
H1910 H 0.90514 0.777 0.47005 0.0
H1911 H 0.79069 0.65029 0.53109 0.0
H1912 H 0.88624 0.73017 0.52529 0.0
H1913 H 0.81474 0.69056 0.47604 0.0
C1914 C 0.84101 0.72429 0.45701 0.0
C1915 C 0.86634 0.74916 0.45489 0.0
C1916 C 0.86532 0.71262 0.52659 0.0
C1917 C 0.85368 0.71938 0.49092 0.0
C1918 C 0.85725 0.69767 0.54459 0.0
C1919 C 0.83029 0.67454 0.54661 0.0
C1920 C 0.84632 0.70443 0.51048 0.0
C1921 C 0.81186 0.66751 0.53023 0.0
C1922 C 0.83464 0.70945 0.47484 0.0
C1923 C 0.88539 0.75792 0.471 0.0
N1924 N 0.82022 0.68227 0.51298 0.0
N1925 N 0.8786 0.74317 0.48839 0.0
loop_
_geom_bond_atom_site_label_1
_geom_bond_atom_site_label_2
_geom_bond_distance
_geom_bond_site_symmetry_2
_ccdc_geom_bond_type
H0 C3 0.929 . S
H1 C6 0.929 . S
H2 C8 0.930 . S
C3 H0 0.929 . S
C3 C4 1.398 . S
C3 C5 1.396 . S
C4 C3 1.398 . S
C4 C8 1.407 . S
C5 C3 1.396 . S
C5 C6 1.394 . S
C6 H1 0.929 . S
C6 C5 1.394 . S
C6 C7 1.382 . S
C7 C6 1.382 . S
C7 C8 1.392 . S
C7 N9 1.420 . S
C8 H2 0.930 . S
C8 C4 1.407 . S
C8 C7 1.392 . S
N9 C7 1.420 . S
N9 C10 1.244 . S
C10 N9 1.244 . S
H11 C14 0.929 . S
H12 C17 0.929 . S
H13 C19 0.930 . S
C14 H11 0.929 . S
C14 C15 1.398 . S
C14 C16 1.396 . S
C15 C14 1.398 . S
C15 C19 1.407 . S
C16 C14 1.396 . S
C16 C17 1.394 . S
C17 H12 0.929 . S
C17 C16 1.394 . S
C17 C18 1.382 . S
C18 C17 1.382 . S
C18 C19 1.392 . S
C18 N20 1.420 . S
C19 H13 0.930 . S
C19 C15 1.407 . S
C19 C18 1.392 . S
N20 C18 1.420 . S
N20 C21 1.244 . S
C21 N20 1.244 . S
H22 C25 0.929 . S
H23 C28 0.929 . S
H24 C30 0.930 . S
C25 H22 0.929 . S
C25 C26 1.398 . S
C25 C27 1.396 . S
C26 C25 1.398 . S
C26 C30 1.407 . S
C27 C25 1.396 . S
C27 C28 1.394 . S
C28 H23 0.929 . S
C28 C27 1.394 . S
C28 C29 1.382 . S
C29 C28 1.382 . S
C29 C30 1.392 . S
C29 N31 1.420 . S
C30 H24 0.930 . S
C30 C26 1.407 . S
C30 C29 1.392 . S
N31 C29 1.420 . S
N31 C32 1.244 . S
C32 N31 1.244 . S
H33 C36 0.929 . S
H34 C39 0.929 . S
H35 C41 0.930 . S
C36 H33 0.929 . S
C36 C37 1.398 . S
C36 C38 1.396 . S
C37 C36 1.398 . S
C37 C41 1.407 . S
C38 C36 1.396 . S
C38 C39 1.394 . S
C39 H34 0.929 . S
C39 C38 1.394 . S
C39 C40 1.382 . S
C40 C39 1.382 . S
C40 C41 1.392 . S
C40 N42 1.420 . S
C41 H35 0.930 . S
C41 C37 1.407 . S
C41 C40 1.392 . S
N42 C40 1.420 . S
N42 C43 1.244 . S
C43 N42 1.244 . S
H44 C47 0.929 . S
H45 C50 0.929 . S
H46 C52 0.930 . S
C47 H44 0.929 . S
C47 C48 1.398 . S
C47 C49 1.396 . S
C48 C47 1.398 . S
C48 C52 1.407 . S
C49 C47 1.396 . S
C49 C50 1.394 . S
C50 H45 0.929 . S
C50 C49 1.394 . S
C50 C51 1.382 . S
C51 C50 1.382 . S
C51 C52 1.392 . S
C51 N53 1.420 . S
C52 H46 0.930 . S
C52 C48 1.407 . S
C52 C51 1.392 . S
N53 C51 1.420 . S
N53 C54 1.244 . S
C54 N53 1.244 . S
H55 C58 0.929 . S
H56 C61 0.929 . S
H57 C63 0.930 . S
C58 H55 0.929 . S
C58 C59 1.398 . S
C58 C60 1.396 . S
C59 C58 1.398 . S
C59 C63 1.407 . S
C60 C58 1.396 . S
C60 C61 1.394 . S
C61 H56 0.929 . S
C61 C60 1.394 . S
C61 C62 1.382 . S
C62 C61 1.382 . S
C62 C63 1.392 . S
C62 N64 1.420 . S
C63 H57 0.930 . S
C63 C59 1.407 . S
C63 C62 1.392 . S
N64 C62 1.420 . S
N64 C65 1.244 . S
C65 N64 1.244 . S
H66 C69 0.929 . S
H67 C72 0.929 . S
H68 C74 0.930 . S
C69 H66 0.929 . S
C69 C70 1.398 . S
C69 C71 1.396 . S
C70 C69 1.398 . S
C70 C74 1.407 . S
C71 C69 1.396 . S
C71 C72 1.394 . S
C72 H67 0.929 . S
C72 C71 1.394 . S
C72 C73 1.382 . S
C73 C72 1.382 . S
C73 C74 1.392 . S
C73 N75 1.420 . S
C74 H68 0.930 . S
C74 C70 1.407 . S
C74 C73 1.392 . S
N75 C73 1.420 . S
N75 C76 1.244 . S
C76 N75 1.244 . S
H77 C80 0.929 . S
H78 C83 0.929 . S
H79 C85 0.930 . S
C80 H77 0.929 . S
C80 C81 1.398 . S
C80 C82 1.396 . S
C81 C80 1.398 . S
C81 C85 1.407 . S
C82 C80 1.396 . S
C82 C83 1.394 . S
C83 H78 0.929 . S
C83 C82 1.394 . S
C83 C84 1.382 . S
C84 C83 1.382 . S
C84 C85 1.392 . S
C84 N86 1.420 . S
C85 H79 0.930 . S
C85 C81 1.407 . S
C85 C84 1.392 . S
N86 C84 1.420 . S
N86 C87 1.244 . S
C87 N86 1.244 . S
H88 C91 0.929 . S
H89 C94 0.929 . S
H90 C96 0.930 . S
C91 H88 0.929 . S
C91 C92 1.398 . S
C91 C93 1.396 . S
C92 C91 1.398 . S
C92 C96 1.407 . S
C93 C91 1.396 . S
C93 C94 1.394 . S
C94 H89 0.929 . S
C94 C93 1.394 . S
C94 C95 1.382 . S
C95 C94 1.382 . S
C95 C96 1.392 . S
C95 N97 1.420 . S
C96 H90 0.930 . S
C96 C92 1.407 . S
C96 C95 1.392 . S
N97 C95 1.420 . S
N97 C98 1.244 . S
C98 N97 1.244 . S
H99 C102 0.929 . S
H100 C105 0.929 . S
H101 C107 0.930 . S
C102 H99 0.929 . S
C102 C103 1.398 . S
C102 C104 1.396 . S
C103 C102 1.398 . S
C103 C107 1.407 . S
C104 C102 1.396 . S
C104 C105 1.394 . S
C105 H100 0.929 . S
C105 C104 1.394 . S
C105 C106 1.382 . S
C106 C105 1.382 . S
C106 C107 1.392 . S
C106 N108 1.420 . S
C107 H101 0.930 . S
C107 C103 1.407 . S
C107 C106 1.392 . S
N108 C106 1.420 . S
N108 C109 1.244 . S
C109 N108 1.244 . S
H110 C113 0.929 . S
H111 C116 0.929 . S
H112 C118 0.930 . S
C113 H110 0.929 . S
C113 C114 1.398 . S
C113 C115 1.396 . S
C114 C113 1.398 . S
C114 C118 1.407 . S
C115 C113 1.396 . S
C115 C116 1.394 . S
C116 H111 0.929 . S
C116 C115 1.394 . S
C116 C117 1.382 . S
C117 C116 1.382 . S
C117 C118 1.392 . S
C117 N119 1.420 . S
C118 H112 0.930 . S
C118 C114 1.407 . S
C118 C117 1.392 . S
N119 C117 1.420 . S
N119 C120 1.244 . S
C120 N119 1.244 . S
H121 C124 0.929 . S
H122 C127 0.929 . S
H123 C129 0.930 . S
C124 H121 0.929 . S
C124 C125 1.398 . S
C124 C126 1.396 . S
C125 C124 1.398 . S
C125 C129 1.407 . S
C126 C124 1.396 . S
C126 C127 1.394 . S
C127 H122 0.929 . S
C127 C126 1.394 . S
C127 C128 1.382 . S
C128 C127 1.382 . S
C128 C129 1.392 . S
C128 N130 1.420 . S
C129 H123 0.930 . S
C129 C125 1.407 . S
C129 C128 1.392 . S
N130 C128 1.420 . S
N130 C131 1.244 . S
C131 N130 1.244 . S
H132 C135 0.929 . S
H133 C138 0.929 . S
H134 C140 0.930 . S
C135 H132 0.929 . S
C135 C136 1.398 . S
C135 C137 1.396 . S
C136 C135 1.398 . S
C136 C140 1.407 . S
C137 C135 1.396 . S
C137 C138 1.394 . S
C138 H133 0.929 . S
C138 C137 1.394 . S
C138 C139 1.382 . S
C139 C138 1.382 . S
C139 C140 1.392 . S
C139 N141 1.420 . S
C140 H134 0.930 . S
C140 C136 1.407 . S
C140 C139 1.392 . S
N141 C139 1.420 . S
N141 C142 1.244 . S
C142 N141 1.244 . S
H143 C146 0.929 . S
H144 C149 0.929 . S
H145 C151 0.930 . S
C146 H143 0.929 . S
C146 C147 1.398 . S
C146 C148 1.396 . S
C147 C146 1.398 . S
C147 C151 1.407 . S
C148 C146 1.396 . S
C148 C149 1.394 . S
C149 H144 0.929 . S
C149 C148 1.394 . S
C149 C150 1.382 . S
C150 C149 1.382 . S
C150 C151 1.392 . S
C150 N152 1.420 . S
C151 H145 0.930 . S
C151 C147 1.407 . S
C151 C150 1.392 . S
N152 C150 1.420 . S
N152 C153 1.244 . S
C153 N152 1.244 . S
H154 C157 0.929 . S
H155 C160 0.929 . S
H156 C162 0.930 . S
C157 H154 0.929 . S
C157 C158 1.398 . S
C157 C159 1.396 . S
C158 C157 1.398 . S
C158 C162 1.407 . S
C159 C157 1.396 . S
C159 C160 1.394 . S
C160 H155 0.929 . S
C160 C159 1.394 . S
C160 C161 1.382 . S
C161 C160 1.382 . S
C161 C162 1.392 . S
C161 N163 1.420 . S
C162 H156 0.930 . S
C162 C158 1.407 . S
C162 C161 1.392 . S
N163 C161 1.420 . S
N163 C164 1.244 . S
C164 N163 1.244 . S
H165 C168 0.929 . S
H166 C171 0.929 . S
H167 C173 0.930 . S
C168 H165 0.929 . S
C168 C169 1.398 . S
C168 C170 1.396 . S
C169 C168 1.398 . S
C169 C173 1.407 . S
C170 C168 1.396 . S
C170 C171 1.394 . S
C171 H166 0.929 . S
C171 C170 1.394 . S
C171 C172 1.382 . S
C172 C171 1.382 . S
C172 C173 1.392 . S
C172 N174 1.420 . S
C173 H167 0.930 . S
C173 C169 1.407 . S
C173 C172 1.392 . S
N174 C172 1.420 . S
N174 C175 1.244 . S
C175 N174 1.244 . S
H176 C179 0.929 . S
H177 C182 0.929 . S
H178 C184 0.930 . S
C179 H176 0.929 . S
C179 C180 1.398 . S
C179 C181 1.396 . S
C180 C179 1.398 . S
C180 C184 1.407 . S
C181 C179 1.396 . S
C181 C182 1.394 . S
C182 H177 0.929 . S
C182 C181 1.394 . S
C182 C183 1.382 . S
C183 C182 1.382 . S
C183 C184 1.392 . S
C183 N185 1.420 . S
C184 H178 0.930 . S
C184 C180 1.407 . S
C184 C183 1.392 . S
N185 C183 1.420 . S
N185 C186 1.244 . S
C186 N185 1.244 . S
H187 C190 0.929 . S
H188 C193 0.929 . S
H189 C195 0.930 . S
C190 H187 0.929 . S
C190 C191 1.398 . S
C190 C192 1.396 . S
C191 C190 1.398 . S
C191 C195 1.407 . S
C192 C190 1.396 . S
C192 C193 1.394 . S
C193 H188 0.929 . S
C193 C192 1.394 . S
C193 C194 1.382 . S
C194 C193 1.382 . S
C194 C195 1.392 . S
C194 N196 1.420 . S
C195 H189 0.930 . S
C195 C191 1.407 . S
C195 C194 1.392 . S
N196 C194 1.420 . S
N196 C197 1.244 . S
C197 N196 1.244 . S
Eu198 N229 2.657 . S
Eu198 N236 2.609 . S
Eu198 O242 2.558 . S
Eu198 O243 2.612 1_566 S
Eu198 O245 2.339 1_565 S
Eu198 O246 2.563 1_565 S
Eu198 O247 2.419 1_565 S
Eu198 O249 2.380 1_556 S
Eu198 O250 2.432 1_556 S
Eu198 C262 2.847 1_565 S
C199 C202 1.429 . S
C199 C203 1.411 . S
C199 N206 1.377 . S
C200 C202 1.420 . S
C200 C204 1.423 . S
C200 C212 1.392 . S
C201 C203 1.420 . S
C201 C204 1.351 . S
C201 H224 0.931 . S
C202 C199 1.429 . S
C202 C200 1.420 . S
C202 N210 1.362 . S
C203 C199 1.411 . S
C203 C201 1.420 . S
C203 C208 1.395 . S
C204 C200 1.423 . S
C204 C201 1.351 . S
C204 H216 0.930 . S
C205 C207 1.400 . S
C205 C208 1.386 . S
C205 H217 0.930 . S
N206 C199 1.377 . S
N206 C207 1.321 . S
N206 Eu209 2.609 . S
C207 C205 1.400 . S
C207 N206 1.321 . S
C207 H214 0.930 . S
C208 C203 1.395 . S
C208 C205 1.386 . S
C208 H227 0.930 . S
Eu209 N206 2.609 . S
Eu209 N210 2.657 . S
Eu209 O243 2.380 . S
Eu209 O244 2.432 . S
Eu209 O248 2.558 . S
Eu209 O249 2.612 1_545 S
Eu209 O251 2.339 1_545 S
Eu209 O252 2.563 1_545 S
Eu209 O253 2.419 1_545 S
Eu209 C273 2.848 . S
N210 C202 1.362 . S
N210 Eu209 2.657 . S
N210 C211 1.334 . S
C211 N210 1.334 . S
C211 C213 1.413 . S
C211 H218 0.929 . S
C212 C200 1.392 . S
C212 C213 1.367 . S
C212 H220 0.930 . S
C213 C211 1.413 . S
C213 C212 1.367 . S
C213 H215 0.930 . S
H214 C207 0.930 . S
H215 C213 0.930 . S
H216 C204 0.930 . S
H217 C205 0.930 . S
H218 C211 0.929 . S
H219 C233 0.930 . S
H220 C212 0.930 . S
H221 C239 0.930 . S
H222 C230 0.967 . S
H223 C237 0.930 . S
H224 C201 0.931 . S
H225 C231 0.930 . S
H226 C264 0.930 . S
H227 C208 0.930 . S
H228 C263 0.931 . S
N229 Eu198 2.657 . S
N229 C230 1.334 . S
N229 C234 1.362 . S
C230 H222 0.967 . S
C230 N229 1.334 . S
C230 C233 1.413 . S
C231 H225 0.930 . S
C231 C232 1.392 . S
C231 C233 1.367 . S
C232 C231 1.392 . S
C232 C234 1.420 . S
C232 C264 1.423 . S
C233 H219 0.930 . S
C233 C230 1.413 . S
C233 C231 1.367 . S
C234 N229 1.362 . S
C234 C232 1.420 . S
C234 C238 1.429 . S
H235 C240 0.930 . S
N236 Eu198 2.609 . S
N236 C238 1.377 . S
N236 C239 1.321 . S
C237 H223 0.930 . S
C237 C239 1.400 . S
C237 C240 1.386 . S
C238 C234 1.429 . S
C238 N236 1.377 . S
C238 C241 1.411 . S
C239 H221 0.930 . S
C239 N236 1.321 . S
C239 C237 1.400 . S
C240 H235 0.930 . S
C240 C237 1.386 . S
C240 C241 1.395 . S
C241 C238 1.411 . S
C241 C240 1.395 . S
C241 C263 1.420 . S
O242 Eu198 2.558 . S
O242 C262 1.243 1_565 S
O243 Eu198 2.612 1_544 S
O243 Eu209 2.380 . S
O243 C254 1.276 1_554 S
O244 Eu209 2.432 . S
O244 C261 1.264 . S
O245 Eu198 2.339 1_545 S
O245 C261 1.254 1_556 S
O246 Eu198 2.563 1_545 S
O246 C254 1.235 . S
O247 Eu198 2.419 1_545 S
O247 C262 1.261 . S
O248 Eu209 2.558 . S
O248 C273 1.257 . S
O249 Eu198 2.380 1_554 S
O249 Eu209 2.612 1_565 S
O249 C265 1.276 . S
O250 Eu198 2.432 1_554 S
O250 C272 1.265 . S
O251 Eu209 2.339 1_565 S
O251 C272 1.254 . S
O252 Eu209 2.563 1_565 S
O252 C265 1.235 . S
O253 Eu209 2.419 1_565 S
O253 C273 1.249 1_565 S
C254 O243 1.276 1_556 S
C254 O246 1.235 . S
C255 C257 1.393 . S
C255 C259 1.395 1_545 S
C255 C262 1.494 . S
C256 C257 1.392 . S
C256 C258 1.386 . S
C257 C255 1.393 . S
C257 C256 1.392 . S
C257 H274 0.930 . S
C258 C256 1.386 . S
C258 C260 1.395 1_545 S
C258 H275 0.930 . S
C259 C255 1.395 1_565 S
C259 C260 1.379 . S
C259 H276 0.930 . S
C260 C258 1.395 1_565 S
C260 C259 1.379 . S
C260 H277 0.930 . S
C261 O244 1.264 . S
C261 O245 1.254 1_554 S
C262 Eu198 2.847 1_545 S
C262 O242 1.243 1_545 S
C262 O247 1.261 . S
C262 C255 1.494 . S
C263 H228 0.931 . S
C263 C241 1.420 . S
C263 C264 1.351 . S
C264 H226 0.930 . S
C264 C232 1.423 . S
C264 C263 1.351 . S
C265 O249 1.276 . S
C265 O252 1.235 . S
C266 C267 1.393 1_545 S
C266 C270 1.395 . S
C266 C273 1.492 . S
C267 C266 1.393 1_565 S
C267 C268 1.392 . S
C267 H278 0.930 . S
C268 C267 1.392 . S
C268 C269 1.386 . S
C269 C268 1.386 . S
C269 C271 1.395 1_565 S
C269 H279 0.930 . S
C270 C266 1.395 . S
C270 C271 1.379 . S
C270 H280 0.930 . S
C271 C269 1.395 1_545 S
C271 C270 1.379 . S
C271 H281 0.930 . S
C272 O250 1.265 . S
C272 O251 1.254 . S
C273 Eu209 2.848 . S
C273 O248 1.257 . S
C273 O253 1.249 1_545 S
C273 C266 1.492 . S
H274 C257 0.930 . S
H275 C258 0.930 . S
H276 C259 0.930 . S
H277 C260 0.930 . S
H278 C267 0.930 . S
H279 C269 0.930 . S
H280 C270 0.930 . S
H281 C271 0.930 . S
Eu282 N313 2.657 . S
Eu282 N320 2.609 . S
Eu282 O326 2.558 . S
Eu282 O327 2.612 1_456 S
Eu282 O329 2.339 1_455 S
Eu282 O330 2.563 1_455 S
Eu282 O331 2.418 . S
Eu282 O333 2.380 1_556 S
Eu282 O334 2.432 1_556 S
Eu282 C346 2.848 . S
C283 C286 1.429 . S
C283 C287 1.411 . S
C283 N290 1.377 . S
C284 C286 1.420 . S
C284 C288 1.423 . S
C284 C296 1.392 . S
C285 C287 1.420 . S
C285 C288 1.351 . S
C285 H308 0.931 . S
C286 C283 1.429 . S
C286 C284 1.420 . S
C286 N294 1.362 . S
C287 C283 1.411 . S
C287 C285 1.420 . S
C287 C292 1.395 . S
C288 C284 1.423 . S
C288 C285 1.351 . S
C288 H300 0.930 . S
C289 C291 1.400 . S
C289 C292 1.386 . S
C289 H301 0.930 . S
N290 C283 1.377 . S
N290 C291 1.321 . S
N290 Eu293 2.609 . S
C291 C289 1.400 . S
C291 N290 1.321 . S
C291 H298 0.930 . S
C292 C287 1.395 . S
C292 C289 1.386 . S
C292 H311 0.930 . S
Eu293 N290 2.609 . S
Eu293 N294 2.657 . S
Eu293 O327 2.380 . S
Eu293 O328 2.432 . S
Eu293 O332 2.558 . S
Eu293 O333 2.612 1_655 S
Eu293 O335 2.339 1_655 S
Eu293 O336 2.563 1_655 S
Eu293 O337 2.419 1_655 S
Eu293 C357 2.848 . S
N294 C286 1.362 . S
N294 Eu293 2.657 . S
N294 C295 1.334 . S
C295 N294 1.334 . S
C295 C297 1.413 . S
C295 H302 0.929 . S
C296 C284 1.392 . S
C296 C297 1.367 . S
C296 H304 0.930 . S
C297 C295 1.413 . S
C297 C296 1.367 . S
C297 H299 0.930 . S
H298 C291 0.930 . S
H299 C297 0.930 . S
H300 C288 0.930 . S
H301 C289 0.930 . S
H302 C295 0.929 . S
H303 C317 0.930 . S
H304 C296 0.930 . S
H305 C323 0.930 . S
H306 C314 0.929 . S
H307 C321 0.930 . S
H308 C285 0.931 . S
H309 C315 0.930 . S
H310 C348 0.930 . S
H311 C292 0.930 . S
H312 C347 0.931 . S
N313 Eu282 2.657 . S
N313 C314 1.334 . S
N313 C318 1.362 . S
C314 H306 0.929 . S
C314 N313 1.334 . S
C314 C317 1.413 . S
C315 H309 0.930 . S
C315 C316 1.392 . S
C315 C317 1.367 . S
C316 C315 1.392 . S
C316 C318 1.420 . S
C316 C348 1.423 . S
C317 H303 0.930 . S
C317 C314 1.413 . S
C317 C315 1.367 . S
C318 N313 1.362 . S
C318 C316 1.420 . S
C318 C322 1.429 . S
H319 C324 0.930 . S
N320 Eu282 2.609 . S
N320 C322 1.377 . S
N320 C323 1.321 . S
C321 H307 0.930 . S
C321 C323 1.400 . S
C321 C324 1.386 . S
C322 C318 1.429 . S
C322 N320 1.377 . S
C322 C325 1.411 . S
C323 H305 0.930 . S
C323 N320 1.321 . S
C323 C321 1.400 . S
C324 H319 0.930 . S
C324 C321 1.386 . S
C324 C325 1.395 . S
C325 C322 1.411 . S
C325 C324 1.395 . S
C325 C347 1.420 . S
O326 Eu282 2.558 . S
O326 C346 1.257 . S
O327 Eu282 2.612 1_654 S
O327 Eu293 2.380 . S
O327 C338 1.276 1_554 S
O328 Eu293 2.432 . S
O328 C345 1.264 . S
O329 Eu282 2.339 1_655 S
O329 C345 1.254 1_556 S
O330 Eu282 2.563 1_655 S
O330 C338 1.235 . S
O331 Eu282 2.418 . S
O331 C346 1.249 . S
O332 Eu293 2.558 . S
O332 C357 1.257 . S
O333 Eu282 2.380 1_554 S
O333 Eu293 2.612 1_455 S
O333 C349 1.276 . S
O334 Eu282 2.432 1_554 S
O334 C356 1.264 . S
O335 Eu293 2.339 1_455 S
O335 C356 1.254 . S
O336 Eu293 2.563 1_455 S
O336 C349 1.235 . S
O337 Eu293 2.419 1_455 S
O337 C357 1.249 1_455 S
C338 O327 1.276 1_556 S
C338 O330 1.235 . S
C339 C341 1.393 1_455 S
C339 C343 1.395 . S
C339 C346 1.492 . S
C340 C341 1.392 . S
C340 C342 1.386 . S
C341 C339 1.393 1_655 S
C341 C340 1.392 . S
C341 H358 0.930 . S
C342 C340 1.386 . S
C342 C344 1.395 1_655 S
C342 H359 0.930 . S
C343 C339 1.395 . S
C343 C344 1.379 . S
C343 H360 0.930 . S
C344 C342 1.395 1_455 S
C344 C343 1.379 . S
C344 H361 0.930 . S
C345 O328 1.264 . S
C345 O329 1.254 1_554 S
C346 Eu282 2.848 . S
C346 O326 1.257 . S
C346 O331 1.249 . S
C346 C339 1.492 . S
C347 H312 0.931 . S
C347 C325 1.420 . S
C347 C348 1.351 . S
C348 H310 0.930 . S
C348 C316 1.423 . S
C348 C347 1.351 . S
C349 O333 1.276 . S
C349 O336 1.235 . S
C350 C351 1.393 . S
C350 C354 1.395 1_455 S
C350 C357 1.492 1_455 S
C351 C350 1.393 . S
C351 C352 1.392 . S
C351 H362 0.930 . S
C352 C351 1.392 . S
C352 C353 1.386 . S
C353 C352 1.386 . S
C353 C355 1.395 1_455 S
C353 H363 0.930 . S
C354 C350 1.395 1_655 S
C354 C355 1.379 . S
C354 H364 0.930 . S
C355 C353 1.395 1_655 S
C355 C354 1.379 . S
C355 H365 0.930 . S
C356 O334 1.264 . S
C356 O335 1.254 . S
C357 Eu293 2.848 . S
C357 O332 1.257 . S
C357 O337 1.249 1_655 S
C357 C350 1.492 1_655 S
H358 C341 0.930 . S
H359 C342 0.930 . S
H360 C343 0.930 . S
H361 C344 0.930 . S
H362 C351 0.930 . S
H363 C353 0.930 . S
H364 C354 0.930 . S
H365 C355 0.930 . S
Eu366 N397 2.657 . S
Eu366 N404 2.609 . S
Eu366 O410 2.558 . S
Eu366 O411 2.612 . S
Eu366 O413 2.339 . S
Eu366 O414 2.563 . S
Eu366 O415 2.419 . S
Eu366 O417 2.380 . S
Eu366 O418 2.432 . S
Eu366 C430 2.848 . S
C367 C370 1.429 . S
C367 C371 1.411 . S
C367 N374 1.377 . S
C368 C370 1.420 . S
C368 C372 1.423 . S
C368 C380 1.392 . S
C369 C371 1.420 . S
C369 C372 1.351 . S
C369 H392 0.931 . S
C370 C367 1.429 . S
C370 C368 1.420 . S
C370 N378 1.362 . S
C371 C367 1.411 . S
C371 C369 1.420 . S
C371 C376 1.395 . S
C372 C368 1.423 . S
C372 C369 1.351 . S
C372 H384 0.930 . S
C373 C375 1.400 . S
C373 C376 1.386 . S
C373 H385 0.930 . S
N374 C367 1.377 . S
N374 C375 1.321 . S
N374 Eu377 2.609 . S
C375 C373 1.400 . S
C375 N374 1.321 . S
C375 H382 0.930 . S
C376 C371 1.395 . S
C376 C373 1.386 . S
C376 H395 0.930 . S
Eu377 N374 2.609 . S
Eu377 N378 2.657 . S
Eu377 O411 2.380 1_556 S
Eu377 O412 2.432 1_556 S
Eu377 O416 2.558 . S
Eu377 O417 2.612 1_556 S
Eu377 O419 2.339 . S
Eu377 O420 2.563 . S
Eu377 O421 2.419 . S
Eu377 C441 2.848 . S
N378 C370 1.362 . S
N378 Eu377 2.657 . S
N378 C379 1.334 . S
C379 N378 1.334 . S
C379 C381 1.413 . S
C379 H386 0.929 . S
C380 C368 1.392 . S
C380 C381 1.367 . S
C380 H388 0.930 . S
C381 C379 1.413 . S
C381 C380 1.367 . S
C381 H383 0.930 . S
H382 C375 0.930 . S
H383 C381 0.930 . S
H384 C372 0.930 . S
H385 C373 0.930 . S
H386 C379 0.929 . S
H387 C401 0.930 . S
H388 C380 0.930 . S
H389 C407 0.930 . S
H390 C398 0.929 . S
H391 C405 0.930 . S
H392 C369 0.931 . S
H393 C399 0.930 . S
H394 C432 0.930 . S
H395 C376 0.930 . S
H396 C431 0.931 . S
N397 Eu366 2.657 . S
N397 C398 1.334 . S
N397 C402 1.362 . S
C398 H390 0.929 . S
C398 N397 1.334 . S
C398 C401 1.413 . S
C399 H393 0.930 . S
C399 C400 1.392 . S
C399 C401 1.367 . S
C400 C399 1.392 . S
C400 C402 1.420 . S
C400 C432 1.423 . S
C401 H387 0.930 . S
C401 C398 1.413 . S
C401 C399 1.367 . S
C402 N397 1.362 . S
C402 C400 1.420 . S
C402 C406 1.429 . S
H403 C408 0.930 . S
N404 Eu366 2.609 . S
N404 C406 1.377 . S
N404 C407 1.321 . S
C405 H391 0.930 . S
C405 C407 1.400 . S
C405 C408 1.386 . S
C406 C402 1.429 . S
C406 N404 1.377 . S
C406 C409 1.411 . S
C407 H389 0.930 . S
C407 N404 1.321 . S
C407 C405 1.400 . S
C408 H403 0.930 . S
C408 C405 1.386 . S
C408 C409 1.395 . S
C409 C406 1.411 . S
C409 C408 1.395 . S
C409 C431 1.420 . S
O410 Eu366 2.558 . S
O410 C430 1.257 . S
O411 Eu366 2.612 . S
O411 Eu377 2.380 1_554 S
O411 C422 1.276 . S
O412 Eu377 2.432 1_554 S
O412 C429 1.264 . S
O413 Eu366 2.339 . S
O413 C429 1.254 . S
O414 Eu366 2.563 . S
O414 C422 1.235 . S
O415 Eu366 2.419 . S
O415 C430 1.249 . S
O416 Eu377 2.558 . S
O416 C441 1.257 . S
O417 Eu366 2.380 . S
O417 Eu377 2.612 1_554 S
O417 C433 1.276 1_554 S
O418 Eu366 2.432 . S
O418 C440 1.264 . S
O419 Eu377 2.339 . S
O419 C440 1.254 1_556 S
O420 Eu377 2.563 . S
O420 C433 1.235 . S
O421 Eu377 2.419 . S
O421 C441 1.249 . S
C422 O411 1.276 . S
C422 O414 1.235 . S
C423 C425 1.393 . S
C423 C427 1.395 . S
C423 C430 1.492 . S
C424 C425 1.392 . S
C424 C426 1.386 . S
C425 C423 1.393 . S
C425 C424 1.392 . S
C425 H442 0.930 . S
C426 C424 1.386 . S
C426 C428 1.395 . S
C426 H443 0.930 . S
C427 C423 1.395 . S
C427 C428 1.379 . S
C427 H444 0.930 . S
C428 C426 1.395 . S
C428 C427 1.379 . S
C428 H445 0.930 . S
C429 O412 1.264 . S
C429 O413 1.254 . S
C430 Eu366 2.848 . S
C430 O410 1.257 . S
C430 O415 1.249 . S
C430 C423 1.492 . S
C431 H396 0.931 . S
C431 C409 1.420 . S
C431 C432 1.351 . S
C432 H394 0.930 . S
C432 C400 1.423 . S
C432 C431 1.351 . S
C433 O417 1.276 1_556 S
C433 O420 1.235 . S
C434 C435 1.393 . S
C434 C438 1.395 . S
C434 C441 1.492 . S
C435 C434 1.393 . S
C435 C436 1.392 . S
C435 H446 0.930 . S
C436 C435 1.392 . S
C436 C437 1.386 . S
C437 C436 1.386 . S
C437 C439 1.395 . S
C437 H447 0.930 . S
C438 C434 1.395 . S
C438 C439 1.379 . S
C438 H448 0.930 . S
C439 C437 1.395 . S
C439 C438 1.379 . S
C439 H449 0.930 . S
C440 O418 1.264 . S
C440 O419 1.254 1_554 S
C441 Eu377 2.848 . S
C441 O416 1.257 . S
C441 O421 1.249 . S
C441 C434 1.492 . S
H442 C425 0.930 . S
H443 C426 0.930 . S
H444 C427 0.930 . S
H445 C428 0.930 . S
H446 C435 0.930 . S
H447 C437 0.930 . S
H448 C438 0.930 . S
H449 C439 0.930 . S
Eu450 N481 2.657 . S
Eu450 N488 2.609 . S
Eu450 O494 2.558 . S
Eu450 O495 2.612 . S
Eu450 O497 2.339 . S
Eu450 O498 2.563 . S
Eu450 O499 2.419 . S
Eu450 O501 2.380 . S
Eu450 O502 2.432 . S
Eu450 C514 2.848 . S
C451 C454 1.429 . S
C451 C455 1.411 . S
C451 N458 1.377 . S
C452 C454 1.420 . S
C452 C456 1.423 . S
C452 C464 1.392 . S
C453 C455 1.420 . S
C453 C456 1.351 . S
C453 H476 0.931 . S
C454 C451 1.429 . S
C454 C452 1.420 . S
C454 N462 1.362 . S
C455 C451 1.411 . S
C455 C453 1.420 . S
C455 C460 1.395 . S
C456 C452 1.423 . S
C456 C453 1.351 . S
C456 H468 0.930 . S
C457 C459 1.400 . S
C457 C460 1.386 . S
C457 H469 0.930 . S
N458 C451 1.377 . S
N458 C459 1.321 . S
N458 Eu461 2.609 . S
C459 C457 1.400 . S
C459 N458 1.321 . S
C459 H466 0.930 . S
C460 C455 1.395 . S
C460 C457 1.386 . S
C460 H479 0.930 . S
Eu461 N458 2.609 . S
Eu461 N462 2.657 . S
Eu461 O495 2.380 . S
Eu461 O496 2.432 . S
Eu461 O500 2.558 . S
Eu461 O501 2.612 . S
Eu461 O503 2.339 . S
Eu461 O504 2.563 . S
Eu461 O505 2.419 . S
Eu461 C525 2.848 . S
N462 C454 1.362 . S
N462 Eu461 2.657 . S
N462 C463 1.334 . S
C463 N462 1.334 . S
C463 C465 1.413 . S
C463 H470 0.929 . S
C464 C452 1.392 . S
C464 C465 1.367 . S
C464 H472 0.930 . S
C465 C463 1.413 . S
C465 C464 1.367 . S
C465 H467 0.930 . S
H466 C459 0.930 . S
H467 C465 0.930 . S
H468 C456 0.930 . S
H469 C457 0.930 . S
H470 C463 0.929 . S
H471 C485 0.930 . S
H472 C464 0.930 . S
H473 C491 0.930 . S
H474 C482 0.929 . S
H475 C489 0.930 . S
H476 C453 0.931 . S
H477 C483 0.946 . S
H478 C516 0.930 . S
H479 C460 0.930 . S
H480 C515 0.931 . S
N481 Eu450 2.657 . S
N481 C482 1.334 . S
N481 C486 1.362 . S
C482 H474 0.929 . S
C482 N481 1.334 . S
C482 C485 1.413 . S
C483 H477 0.946 . S
C483 C484 1.392 . S
C483 C485 1.367 . S
C484 C483 1.392 . S
C484 C486 1.420 . S
C484 C516 1.423 . S
C485 H471 0.930 . S
C485 C482 1.413 . S
C485 C483 1.367 . S
C486 N481 1.362 . S
C486 C484 1.420 . S
C486 C490 1.429 . S
H487 C492 0.930 . S
N488 Eu450 2.609 . S
N488 C490 1.377 . S
N488 C491 1.321 . S
C489 H475 0.930 . S
C489 C491 1.400 . S
C489 C492 1.386 . S
C490 C486 1.429 . S
C490 N488 1.377 . S
C490 C493 1.411 . S
C491 H473 0.930 . S
C491 N488 1.321 . S
C491 C489 1.400 . S
C492 H487 0.930 . S
C492 C489 1.386 . S
C492 C493 1.395 . S
C493 C490 1.411 . S
C493 C492 1.395 . S
C493 C515 1.420 . S
O494 Eu450 2.558 . S
O494 C514 1.257 . S
O495 Eu450 2.612 . S
O495 Eu461 2.380 . S
O495 C506 1.276 . S
O496 Eu461 2.432 . S
O496 C513 1.264 . S
O497 Eu450 2.339 . S
O497 C513 1.254 . S
O498 Eu450 2.563 . S
O498 C506 1.235 . S
O499 Eu450 2.419 . S
O499 C514 1.249 . S
O500 Eu461 2.558 . S
O500 C525 1.257 . S
O501 Eu450 2.380 . S
O501 Eu461 2.612 . S
O501 C517 1.276 . S
O502 Eu450 2.432 . S
O502 C524 1.264 . S
O503 Eu461 2.339 . S
O503 C524 1.254 . S
O504 Eu461 2.563 . S
O504 C517 1.235 . S
O505 Eu461 2.419 . S
O505 C525 1.249 . S
C506 O495 1.276 . S
C506 O498 1.235 . S
C507 C509 1.393 . S
C507 C511 1.395 . S
C507 C514 1.492 . S
C508 C509 1.392 . S
C508 C510 1.386 . S
C509 C507 1.393 . S
C509 C508 1.392 . S
C509 H526 0.930 . S
C510 C508 1.386 . S
C510 C512 1.395 . S
C510 H527 0.930 . S
C511 C507 1.395 . S
C511 C512 1.379 . S
C511 H528 0.930 . S
C512 C510 1.395 . S
C512 C511 1.379 . S
C512 H529 0.930 . S
C513 O496 1.264 . S
C513 O497 1.254 . S
C514 Eu450 2.848 . S
C514 O494 1.257 . S
C514 O499 1.249 . S
C514 C507 1.492 . S
C515 H480 0.931 . S
C515 C493 1.420 . S
C515 C516 1.351 . S
C516 H478 0.930 . S
C516 C484 1.423 . S
C516 C515 1.351 . S
C517 O501 1.276 . S
C517 O504 1.235 . S
C518 C519 1.393 . S
C518 C522 1.395 . S
C518 C525 1.492 . S
C519 C518 1.393 . S
C519 C520 1.392 . S
C519 H530 0.930 . S
C520 C519 1.392 . S
C520 C521 1.386 . S
C521 C520 1.386 . S
C521 C523 1.395 . S
C521 H531 0.930 . S
C522 C518 1.395 . S
C522 C523 1.379 . S
C522 H532 0.930 . S
C523 C521 1.395 . S
C523 C522 1.379 . S
C523 H533 0.930 . S
C524 O502 1.264 . S
C524 O503 1.254 . S
C525 Eu461 2.848 . S
C525 O500 1.257 . S
C525 O505 1.249 . S
C525 C518 1.492 . S
H526 C509 0.930 . S
H527 C510 0.930 . S
H528 C511 0.930 . S
H529 C512 0.930 . S
H530 C519 0.930 . S
H531 C521 0.930 . S
H532 C522 0.930 . S
H533 C523 0.930 . S
Eu534 N565 2.657 . S
Eu534 N572 2.609 . S
Eu534 O578 2.558 . S
Eu534 O579 2.612 . S
Eu534 O581 2.339 . S
Eu534 O582 2.563 . S
Eu534 O583 2.419 . S
Eu534 O585 2.380 . S
Eu534 O586 2.432 . S
Eu534 C598 2.848 . S
C535 C538 1.429 . S
C535 C539 1.411 . S
C535 N542 1.377 . S
C536 C538 1.420 . S
C536 C540 1.423 . S
C536 C548 1.392 . S
C537 C539 1.420 . S
C537 C540 1.351 . S
C537 H560 0.931 . S
C538 C535 1.429 . S
C538 C536 1.420 . S
C538 N546 1.362 . S
C539 C535 1.411 . S
C539 C537 1.420 . S
C539 C544 1.395 . S
C540 C536 1.423 . S
C540 C537 1.351 . S
C540 H552 0.930 . S
C541 C543 1.400 . S
C541 C544 1.386 . S
C541 H553 0.930 . S
N542 C535 1.377 . S
N542 C543 1.321 . S
N542 Eu545 2.609 . S
C543 C541 1.400 . S
C543 N542 1.321 . S
C543 H550 0.930 . S
C544 C539 1.395 . S
C544 C541 1.386 . S
C544 H563 0.930 . S
Eu545 N542 2.609 . S
Eu545 N546 2.657 . S
Eu545 O579 2.380 . S
Eu545 O580 2.432 . S
Eu545 O584 2.558 . S
Eu545 O585 2.612 . S
Eu545 O587 2.339 . S
Eu545 O588 2.563 . S
Eu545 O589 2.419 . S
Eu545 C609 2.848 . S
N546 C538 1.362 . S
N546 Eu545 2.657 . S
N546 C547 1.334 . S
C547 N546 1.334 . S
C547 C549 1.413 . S
C547 H554 0.929 . S
C548 C536 1.392 . S
C548 C549 1.367 . S
C548 H556 0.930 . S
C549 C547 1.413 . S
C549 C548 1.367 . S
C549 H551 0.930 . S
H550 C543 0.930 . S
H551 C549 0.930 . S
H552 C540 0.930 . S
H553 C541 0.930 . S
H554 C547 0.929 . S
H555 C569 0.930 . S
H556 C548 0.930 . S
H557 C575 0.930 . S
H558 C566 0.929 . S
H559 C573 0.930 . S
H560 C537 0.931 . S
H561 C567 0.930 . S
H562 C600 0.930 . S
H563 C544 0.930 . S
H564 C599 0.931 . S
N565 Eu534 2.657 . S
N565 C566 1.334 . S
N565 C570 1.362 . S
C566 H558 0.929 . S
C566 N565 1.334 . S
C566 C569 1.413 . S
C567 H561 0.930 . S
C567 C568 1.392 . S
C567 C569 1.367 . S
C568 C567 1.392 . S
C568 C570 1.420 . S
C568 C600 1.423 . S
C569 H555 0.930 . S
C569 C566 1.413 . S
C569 C567 1.367 . S
C570 N565 1.362 . S
C570 C568 1.420 . S
C570 C574 1.429 . S
H571 C576 0.930 . S
N572 Eu534 2.609 . S
N572 C574 1.377 . S
N572 C575 1.321 . S
C573 H559 0.930 . S
C573 C575 1.400 . S
C573 C576 1.386 . S
C574 C570 1.429 . S
C574 N572 1.377 . S
C574 C577 1.411 . S
C575 H557 0.930 . S
C575 N572 1.321 . S
C575 C573 1.400 . S
C576 H571 0.930 . S
C576 C573 1.386 . S
C576 C577 1.395 . S
C577 C574 1.411 . S
C577 C576 1.395 . S
C577 C599 1.420 . S
O578 Eu534 2.558 . S
O578 C598 1.257 . S
O579 Eu534 2.612 . S
O579 Eu545 2.380 . S
O579 C590 1.276 . S
O580 Eu545 2.432 . S
O580 C597 1.264 . S
O581 Eu534 2.339 . S
O581 C597 1.254 . S
O582 Eu534 2.563 . S
O582 C590 1.235 . S
O583 Eu534 2.419 . S
O583 C598 1.249 . S
O584 Eu545 2.558 . S
O584 C609 1.257 . S
O585 Eu534 2.380 . S
O585 Eu545 2.612 . S
O585 C601 1.276 . S
O586 Eu534 2.432 . S
O586 C608 1.264 . S
O587 Eu545 2.339 . S
O587 C608 1.254 . S
O588 Eu545 2.563 . S
O588 C601 1.235 . S
O589 Eu545 2.419 . S
O589 C609 1.249 . S
C590 O579 1.276 . S
C590 O582 1.235 . S
C591 C593 1.393 . S
C591 C595 1.395 . S
C591 C598 1.492 . S
C592 C593 1.392 . S
C592 C594 1.386 . S
C593 C591 1.393 . S
C593 C592 1.392 . S
C593 H610 0.930 . S
C594 C592 1.386 . S
C594 C596 1.395 . S
C594 H611 0.930 . S
C595 C591 1.395 . S
C595 C596 1.379 . S
C595 H612 0.930 . S
C596 C594 1.395 . S
C596 C595 1.379 . S
C596 H613 0.930 . S
C597 O580 1.264 . S
C597 O581 1.254 . S
C598 Eu534 2.848 . S
C598 O578 1.257 . S
C598 O583 1.249 . S
C598 C591 1.492 . S
C599 H564 0.931 . S
C599 C577 1.420 . S
C599 C600 1.351 . S
C600 H562 0.930 . S
C600 C568 1.423 . S
C600 C599 1.351 . S
C601 O585 1.276 . S
C601 O588 1.235 . S
C602 C603 1.393 . S
C602 C606 1.395 . S
C602 C609 1.492 . S
C603 C602 1.393 . S
C603 C604 1.392 . S
C603 H614 0.930 . S
C604 C603 1.392 . S
C604 C605 1.386 . S
C605 C604 1.386 . S
C605 C607 1.395 . S
C605 H615 0.930 . S
C606 C602 1.395 . S
C606 C607 1.379 . S
C606 H616 0.930 . S
C607 C605 1.395 . S
C607 C606 1.379 . S
C607 H617 0.930 . S
C608 O586 1.264 . S
C608 O587 1.254 . S
C609 Eu545 2.848 . S
C609 O584 1.257 . S
C609 O589 1.249 . S
C609 C602 1.492 . S
H610 C593 0.930 . S
H611 C594 0.930 . S
H612 C595 0.930 . S
H613 C596 0.930 . S
H614 C603 0.930 . S
H615 C605 0.930 . S
H616 C606 0.930 . S
H617 C607 0.930 . S
Eu618 N649 2.657 . S
Eu618 N656 2.609 . S
Eu618 O662 2.558 . S
Eu618 O663 2.612 . S
Eu618 O665 2.339 . S
Eu618 O666 2.563 . S
Eu618 O667 2.419 . S
Eu618 O669 2.380 . S
Eu618 O670 2.432 . S
Eu618 C682 2.848 . S
C619 C622 1.429 . S
C619 C623 1.411 . S
C619 N626 1.377 . S
C620 C622 1.420 . S
C620 C624 1.423 . S
C620 C632 1.392 . S
C621 C623 1.420 . S
C621 C624 1.351 . S
C621 H644 0.931 . S
C622 C619 1.429 . S
C622 C620 1.420 . S
C622 N630 1.362 . S
C623 C619 1.411 . S
C623 C621 1.420 . S
C623 C628 1.395 . S
C624 C620 1.423 . S
C624 C621 1.351 . S
C624 H636 0.930 . S
C625 C627 1.400 . S
C625 C628 1.386 . S
C625 H637 0.930 . S
N626 C619 1.377 . S
N626 C627 1.321 . S
N626 Eu629 2.609 . S
C627 C625 1.400 . S
C627 N626 1.321 . S
C627 H634 0.930 . S
C628 C623 1.395 . S
C628 C625 1.386 . S
C628 H647 0.930 . S
Eu629 N626 2.609 . S
Eu629 N630 2.657 . S
Eu629 O663 2.380 . S
Eu629 O664 2.432 . S
Eu629 O668 2.558 . S
Eu629 O669 2.612 . S
Eu629 O671 2.339 . S
Eu629 O672 2.563 . S
Eu629 O673 2.419 . S
Eu629 C693 2.848 . S
N630 C622 1.362 . S
N630 Eu629 2.657 . S
N630 C631 1.334 . S
C631 N630 1.334 . S
C631 C633 1.413 . S
C631 H638 0.929 . S
C632 C620 1.392 . S
C632 C633 1.367 . S
C632 H640 0.930 . S
C633 C631 1.413 . S
C633 C632 1.367 . S
C633 H635 0.930 . S
H634 C627 0.930 . S
H635 C633 0.930 . S
H636 C624 0.930 . S
H637 C625 0.930 . S
H638 C631 0.929 . S
H639 C653 0.930 . S
H640 C632 0.930 . S
H641 C659 0.930 . S
H642 C650 0.929 . S
H643 C657 0.930 . S
H644 C621 0.931 . S
H645 C651 0.930 . S
H646 C684 0.930 . S
H647 C628 0.930 . S
H648 C683 0.931 . S
N649 Eu618 2.657 . S
N649 C650 1.334 . S
N649 C654 1.362 . S
C650 H642 0.929 . S
C650 N649 1.334 . S
C650 C653 1.413 . S
C651 H645 0.930 . S
C651 C652 1.392 . S
C651 C653 1.367 . S
C652 C651 1.392 . S
C652 C654 1.420 . S
C652 C684 1.423 . S
C653 H639 0.930 . S
C653 C650 1.413 . S
C653 C651 1.367 . S
C654 N649 1.362 . S
C654 C652 1.420 . S
C654 C658 1.429 . S
H655 C660 0.930 . S
N656 Eu618 2.609 . S
N656 C658 1.377 . S
N656 C659 1.321 . S
C657 H643 0.930 . S
C657 C659 1.400 . S
C657 C660 1.386 . S
C658 C654 1.429 . S
C658 N656 1.377 . S
C658 C661 1.411 . S
C659 H641 0.930 . S
C659 N656 1.321 . S
C659 C657 1.400 . S
C660 H655 0.930 . S
C660 C657 1.386 . S
C660 C661 1.395 . S
C661 C658 1.411 . S
C661 C660 1.395 . S
C661 C683 1.420 . S
O662 Eu618 2.558 . S
O662 C682 1.257 . S
O663 Eu618 2.612 . S
O663 Eu629 2.380 . S
O663 C674 1.276 . S
O664 Eu629 2.432 . S
O664 C681 1.264 . S
O665 Eu618 2.339 . S
O665 C681 1.254 . S
O666 Eu618 2.563 . S
O666 C674 1.235 . S
O667 Eu618 2.419 . S
O667 C682 1.249 . S
O668 Eu629 2.558 . S
O668 C693 1.257 . S
O669 Eu618 2.380 . S
O669 Eu629 2.612 . S
O669 C685 1.276 . S
O670 Eu618 2.432 . S
O670 C692 1.264 . S
O671 Eu629 2.339 . S
O671 C692 1.254 . S
O672 Eu629 2.563 . S
O672 C685 1.235 . S
O673 Eu629 2.419 . S
O673 C693 1.249 . S
C674 O663 1.276 . S
C674 O666 1.235 . S
C675 C677 1.393 . S
C675 C679 1.395 . S
C675 C682 1.492 . S
C676 C677 1.392 . S
C676 C678 1.386 . S
C677 C675 1.393 . S
C677 C676 1.392 . S
C677 H694 0.930 . S
C678 C676 1.386 . S
C678 C680 1.395 . S
C678 H695 0.930 . S
C679 C675 1.395 . S
C679 C680 1.379 . S
C679 H696 0.930 . S
C680 C678 1.395 . S
C680 C679 1.379 . S
C680 H697 0.930 . S
C681 O664 1.264 . S
C681 O665 1.254 . S
C682 Eu618 2.848 . S
C682 O662 1.257 . S
C682 O667 1.249 . S
C682 C675 1.492 . S
C683 H648 0.931 . S
C683 C661 1.420 . S
C683 C684 1.351 . S
C684 H646 0.930 . S
C684 C652 1.423 . S
C684 C683 1.351 . S
C685 O669 1.276 . S
C685 O672 1.235 . S
C686 C687 1.393 . S
C686 C690 1.395 . S
C686 C693 1.492 . S
C687 C686 1.393 . S
C687 C688 1.392 . S
C687 H698 0.930 . S
C688 C687 1.392 . S
C688 C689 1.386 . S
C689 C688 1.386 . S
C689 C691 1.395 . S
C689 H699 0.930 . S
C690 C686 1.395 . S
C690 C691 1.379 . S
C690 H700 0.930 . S
C691 C689 1.395 . S
C691 C690 1.379 . S
C691 H701 0.930 . S
C692 O670 1.264 . S
C692 O671 1.254 . S
C693 Eu629 2.848 . S
C693 O668 1.257 . S
C693 O673 1.249 . S
C693 C686 1.492 . S
H694 C677 0.930 . S
H695 C678 0.930 . S
H696 C679 0.930 . S
H697 C680 0.930 . S
H698 C687 0.930 . S
H699 C689 0.930 . S
H700 C690 0.930 . S
H701 C691 0.930 . S
Eu702 N733 2.657 . S
Eu702 N740 2.609 . S
Eu702 O746 2.558 . S
Eu702 O747 2.612 . S
Eu702 O749 2.339 . S
Eu702 O750 2.563 . S
Eu702 O751 2.419 . S
Eu702 O753 2.380 . S
Eu702 O754 2.432 . S
Eu702 C766 2.848 . S
C703 C706 1.429 . S
C703 C707 1.411 . S
C703 N710 1.377 . S
C704 C706 1.420 . S
C704 C708 1.423 . S
C704 C716 1.392 . S
C705 C707 1.420 . S
C705 C708 1.351 . S
C705 H728 0.931 . S
C706 C703 1.429 . S
C706 C704 1.420 . S
C706 N714 1.362 . S
C707 C703 1.411 . S
C707 C705 1.420 . S
C707 C712 1.395 . S
C708 C704 1.423 . S
C708 C705 1.351 . S
C708 H720 0.930 . S
C709 C711 1.400 . S
C709 C712 1.386 . S
C709 H721 0.930 . S
N710 C703 1.377 . S
N710 C711 1.321 . S
N710 Eu713 2.609 . S
C711 C709 1.400 . S
C711 N710 1.321 . S
C711 H718 0.930 . S
C712 C707 1.395 . S
C712 C709 1.386 . S
C712 H731 0.930 . S
Eu713 N710 2.609 . S
Eu713 N714 2.657 . S
Eu713 O747 2.380 . S
Eu713 O748 2.432 . S
Eu713 O752 2.558 . S
Eu713 O753 2.612 . S
Eu713 O755 2.339 . S
Eu713 O756 2.563 . S
Eu713 O757 2.419 . S
Eu713 C777 2.848 . S
N714 C706 1.362 . S
N714 Eu713 2.657 . S
N714 C715 1.334 . S
C715 N714 1.334 . S
C715 C717 1.413 . S
C715 H722 0.929 . S
C716 C704 1.392 . S
C716 C717 1.367 . S
C716 H724 0.930 . S
C717 C715 1.413 . S
C717 C716 1.367 . S
C717 H719 0.930 . S
H718 C711 0.930 . S
H719 C717 0.930 . S
H720 C708 0.930 . S
H721 C709 0.930 . S
H722 C715 0.929 . S
H723 C737 0.930 . S
H724 C716 0.930 . S
H725 C743 0.930 . S
H726 C734 0.929 . S
H727 C741 0.930 . S
H728 C705 0.931 . S
H729 C735 0.930 . S
H730 C768 0.930 . S
H731 C712 0.930 . S
H732 C767 0.931 . S
N733 Eu702 2.657 . S
N733 C734 1.334 . S
N733 C738 1.362 . S
C734 H726 0.929 . S
C734 N733 1.334 . S
C734 C737 1.413 . S
C735 H729 0.930 . S
C735 C736 1.392 . S
C735 C737 1.367 . S
C736 C735 1.392 . S
C736 C738 1.420 . S
C736 C768 1.423 . S
C737 H723 0.930 . S
C737 C734 1.413 . S
C737 C735 1.367 . S
C738 N733 1.362 . S
C738 C736 1.420 . S
C738 C742 1.429 . S
H739 C744 0.930 . S
N740 Eu702 2.609 . S
N740 C742 1.377 . S
N740 C743 1.321 . S
C741 H727 0.930 . S
C741 C743 1.400 . S
C741 C744 1.386 . S
C742 C738 1.429 . S
C742 N740 1.377 . S
C742 C745 1.411 . S
C743 H725 0.930 . S
C743 N740 1.321 . S
C743 C741 1.400 . S
C744 H739 0.930 . S
C744 C741 1.386 . S
C744 C745 1.395 . S
C745 C742 1.411 . S
C745 C744 1.395 . S
C745 C767 1.420 . S
O746 Eu702 2.558 . S
O746 C766 1.257 . S
O747 Eu702 2.612 . S
O747 Eu713 2.380 . S
O747 C758 1.276 . S
O748 Eu713 2.432 . S
O748 C765 1.264 . S
O749 Eu702 2.339 . S
O749 C765 1.254 . S
O750 Eu702 2.563 . S
O750 C758 1.235 . S
O751 Eu702 2.419 . S
O751 C766 1.249 . S
O752 Eu713 2.558 . S
O752 C777 1.257 . S
O753 Eu702 2.380 . S
O753 Eu713 2.612 . S
O753 C769 1.276 . S
O754 Eu702 2.432 . S
O754 C776 1.264 . S
O755 Eu713 2.339 . S
O755 C776 1.254 . S
O756 Eu713 2.563 . S
O756 C769 1.235 . S
O757 Eu713 2.419 . S
O757 C777 1.249 . S
C758 O747 1.276 . S
C758 O750 1.235 . S
C759 C761 1.393 . S
C759 C763 1.395 . S
C759 C766 1.492 . S
C760 C761 1.392 . S
C760 C762 1.386 . S
C761 C759 1.393 . S
C761 C760 1.392 . S
C761 H778 0.930 . S
C762 C760 1.386 . S
C762 C764 1.395 . S
C762 H779 0.930 . S
C763 C759 1.395 . S
C763 C764 1.379 . S
C763 H780 0.930 . S
C764 C762 1.395 . S
C764 C763 1.379 . S
C764 H781 0.930 . S
C765 O748 1.264 . S
C765 O749 1.254 . S
C766 Eu702 2.848 . S
C766 O746 1.257 . S
C766 O751 1.249 . S
C766 C759 1.492 . S
C767 H732 0.931 . S
C767 C745 1.420 . S
C767 C768 1.351 . S
C768 H730 0.930 . S
C768 C736 1.423 . S
C768 C767 1.351 . S
C769 O753 1.276 . S
C769 O756 1.235 . S
C770 C771 1.393 . S
C770 C774 1.395 . S
C770 C777 1.492 . S
C771 C770 1.393 . S
C771 C772 1.392 . S
C771 H782 0.930 . S
C772 C771 1.392 . S
C772 C773 1.386 . S
C773 C772 1.386 . S
C773 C775 1.395 . S
C773 H783 0.930 . S
C774 C770 1.395 . S
C774 C775 1.379 . S
C774 H784 0.930 . S
C775 C773 1.395 . S
C775 C774 1.379 . S
C775 H785 0.930 . S
C776 O754 1.264 . S
C776 O755 1.254 . S
C777 Eu713 2.848 . S
C777 O752 1.257 . S
C777 O757 1.249 . S
C777 C770 1.492 . S
H778 C761 0.930 . S
H779 C762 0.930 . S
H780 C763 0.930 . S
H781 C764 0.930 . S
H782 C771 0.930 . S
H783 C773 0.930 . S
H784 C774 0.930 . S
H785 C775 0.930 . S
Eu786 N817 2.657 . S
Eu786 N824 2.609 . S
Eu786 O830 2.558 . S
Eu786 O831 2.612 . S
Eu786 O833 2.339 . S
Eu786 O834 2.563 . S
Eu786 O835 2.419 . S
Eu786 O837 2.380 . S
Eu786 O838 2.432 . S
Eu786 C850 2.848 . S
C787 C790 1.429 . S
C787 C791 1.411 . S
C787 N794 1.377 . S
C788 C790 1.420 . S
C788 C792 1.423 . S
C788 C800 1.392 . S
C789 C791 1.420 . S
C789 C792 1.351 . S
C789 H812 0.931 . S
C790 C787 1.429 . S
C790 C788 1.420 . S
C790 N798 1.362 . S
C791 C787 1.411 . S
C791 C789 1.420 . S
C791 C796 1.395 . S
C792 C788 1.423 . S
C792 C789 1.351 . S
C792 H804 0.930 . S
C793 C795 1.400 . S
C793 C796 1.386 . S
C793 H805 0.930 . S
N794 C787 1.377 . S
N794 C795 1.321 . S
N794 Eu797 2.609 . S
C795 C793 1.400 . S
C795 N794 1.321 . S
C795 H802 0.930 . S
C796 C791 1.395 . S
C796 C793 1.386 . S
C796 H815 0.930 . S
Eu797 N794 2.609 . S
Eu797 N798 2.657 . S
Eu797 O831 2.380 . S
Eu797 O832 2.432 . S
Eu797 O836 2.558 . S
Eu797 O837 2.612 . S
Eu797 O839 2.339 . S
Eu797 O840 2.563 . S
Eu797 O841 2.419 . S
Eu797 C861 2.848 . S
N798 C790 1.362 . S
N798 Eu797 2.657 . S
N798 C799 1.334 . S
C799 N798 1.334 . S
C799 C801 1.413 . S
C799 H806 0.929 . S
C800 C788 1.392 . S
C800 C801 1.367 . S
C800 H808 0.930 . S
C801 C799 1.413 . S
C801 C800 1.367 . S
C801 H803 0.930 . S
H802 C795 0.930 . S
H803 C801 0.930 . S
H804 C792 0.930 . S
H805 C793 0.930 . S
H806 C799 0.929 . S
H807 C821 0.930 . S
H808 C800 0.930 . S
H809 C827 0.930 . S
H810 C818 0.929 . S
H811 C825 0.930 . S
H812 C789 0.931 . S
H813 C819 0.930 . S
H814 C852 0.930 . S
H815 C796 0.930 . S
H816 C851 0.931 . S
N817 Eu786 2.657 . S
N817 C818 1.334 . S
N817 C822 1.362 . S
C818 H810 0.929 . S
C818 N817 1.334 . S
C818 C821 1.413 . S
C819 H813 0.930 . S
C819 C820 1.392 . S
C819 C821 1.367 . S
C820 C819 1.392 . S
C820 C822 1.420 . S
C820 C852 1.423 . S
C821 H807 0.930 . S
C821 C818 1.413 . S
C821 C819 1.367 . S
C822 N817 1.362 . S
C822 C820 1.420 . S
C822 C826 1.429 . S
H823 C828 0.930 . S
N824 Eu786 2.609 . S
N824 C826 1.377 . S
N824 C827 1.321 . S
C825 H811 0.930 . S
C825 C827 1.400 . S
C825 C828 1.386 . S
C826 C822 1.429 . S
C826 N824 1.377 . S
C826 C829 1.411 . S
C827 H809 0.930 . S
C827 N824 1.321 . S
C827 C825 1.400 . S
C828 H823 0.930 . S
C828 C825 1.386 . S
C828 C829 1.395 . S
C829 C826 1.411 . S
C829 C828 1.395 . S
C829 C851 1.420 . S
O830 Eu786 2.558 . S
O830 C850 1.257 . S
O831 Eu786 2.612 . S
O831 Eu797 2.380 . S
O831 C842 1.276 . S
O832 Eu797 2.432 . S
O832 C849 1.264 . S
O833 Eu786 2.339 . S
O833 C849 1.254 . S
O834 Eu786 2.563 . S
O834 C842 1.235 . S
O835 Eu786 2.419 . S
O835 C850 1.249 . S
O836 Eu797 2.558 . S
O836 C861 1.257 . S
O837 Eu786 2.380 . S
O837 Eu797 2.612 . S
O837 C853 1.276 . S
O838 Eu786 2.432 . S
O838 C860 1.264 . S
O839 Eu797 2.339 . S
O839 C860 1.254 . S
O840 Eu797 2.563 . S
O840 C853 1.235 . S
O841 Eu797 2.419 . S
O841 C861 1.249 . S
C842 O831 1.276 . S
C842 O834 1.235 . S
C843 C845 1.393 . S
C843 C847 1.395 . S
C843 C850 1.492 . S
C844 C845 1.392 . S
C844 C846 1.386 . S
C845 C843 1.393 . S
C845 C844 1.392 . S
C845 H862 0.930 . S
C846 C844 1.386 . S
C846 C848 1.395 . S
C846 H863 0.930 . S
C847 C843 1.395 . S
C847 C848 1.379 . S
C847 H864 0.930 . S
C848 C846 1.395 . S
C848 C847 1.379 . S
C848 H865 0.930 . S
C849 O832 1.264 . S
C849 O833 1.254 . S
C850 Eu786 2.848 . S
C850 O830 1.257 . S
C850 O835 1.249 . S
C850 C843 1.492 . S
C851 H816 0.931 . S
C851 C829 1.420 . S
C851 C852 1.351 . S
C852 H814 0.930 . S
C852 C820 1.423 . S
C852 C851 1.351 . S
C853 O837 1.276 . S
C853 O840 1.235 . S
C854 C855 1.393 . S
C854 C858 1.395 . S
C854 C861 1.492 . S
C855 C854 1.393 . S
C855 C856 1.392 . S
C855 H866 0.930 . S
C856 C855 1.392 . S
C856 C857 1.386 . S
C857 C856 1.386 . S
C857 C859 1.395 . S
C857 H867 0.930 . S
C858 C854 1.395 . S
C858 C859 1.379 . S
C858 H868 0.930 . S
C859 C857 1.395 . S
C859 C858 1.379 . S
C859 H869 0.930 . S
C860 O838 1.264 . S
C860 O839 1.254 . S
C861 Eu797 2.848 . S
C861 O836 1.257 . S
C861 O841 1.249 . S
C861 C854 1.492 . S
H862 C845 0.930 . S
H863 C846 0.930 . S
H864 C847 0.930 . S
H865 C848 0.930 . S
H866 C855 0.930 . S
H867 C857 0.930 . S
H868 C858 0.930 . S
H869 C859 0.930 . S
Eu870 N901 2.657 . S
Eu870 N908 2.609 . S
Eu870 O914 2.558 . S
Eu870 O915 2.612 . S
Eu870 O917 2.339 . S
Eu870 O918 2.563 . S
Eu870 O919 2.419 . S
Eu870 O921 2.380 . S
Eu870 O922 2.432 . S
Eu870 C934 2.848 . S
C871 C874 1.429 . S
C871 C875 1.411 . S
C871 N878 1.377 . S
C872 C874 1.420 . S
C872 C876 1.423 . S
C872 C884 1.392 . S
C873 C875 1.420 . S
C873 C876 1.351 . S
C873 H896 0.931 . S
C874 C871 1.429 . S
C874 C872 1.420 . S
C874 N882 1.362 . S
C875 C871 1.411 . S
C875 C873 1.420 . S
C875 C880 1.395 . S
C876 C872 1.423 . S
C876 C873 1.351 . S
C876 H888 0.930 . S
C877 C879 1.400 . S
C877 C880 1.386 . S
C877 H889 0.930 . S
N878 C871 1.377 . S
N878 C879 1.321 . S
N878 Eu881 2.609 . S
C879 C877 1.400 . S
C879 N878 1.321 . S
C879 H886 0.930 . S
C880 C875 1.395 . S
C880 C877 1.386 . S
C880 H899 0.930 . S
Eu881 N878 2.609 . S
Eu881 N882 2.657 . S
Eu881 O915 2.380 . S
Eu881 O916 2.432 . S
Eu881 O920 2.558 . S
Eu881 O921 2.612 . S
Eu881 O923 2.339 . S
Eu881 O924 2.563 . S
Eu881 O925 2.419 . S
Eu881 C945 2.848 . S
N882 C874 1.362 . S
N882 Eu881 2.657 . S
N882 C883 1.334 . S
C883 N882 1.334 . S
C883 C885 1.413 . S
C883 H890 0.929 . S
C884 C872 1.392 . S
C884 C885 1.367 . S
C884 H892 0.930 . S
C885 C883 1.413 . S
C885 C884 1.367 . S
C885 H887 0.930 . S
H886 C879 0.930 . S
H887 C885 0.930 . S
H888 C876 0.930 . S
H889 C877 0.930 . S
H890 C883 0.929 . S
H891 C905 0.930 . S
H892 C884 0.930 . S
H893 C911 0.930 . S
H894 C902 0.929 . S
H895 C909 0.930 . S
H896 C873 0.931 . S
H897 C903 0.930 1_455 S
H898 C936 0.930 1_455 S
H899 C880 0.930 . S
H900 C935 0.931 . S
N901 Eu870 2.657 . S
N901 C902 1.334 . S
N901 C906 1.362 . S
C902 H894 0.929 . S
C902 N901 1.334 . S
C902 C905 1.413 . S
C903 H897 0.930 1_655 S
C903 C904 1.392 . S
C903 C905 1.367 . S
C904 C903 1.392 . S
C904 C906 1.420 . S
C904 C936 1.423 . S
C905 H891 0.930 . S
C905 C902 1.413 . S
C905 C903 1.367 . S
C906 N901 1.362 . S
C906 C904 1.420 . S
C906 C910 1.429 . S
H907 C912 0.930 . S
N908 Eu870 2.609 . S
N908 C910 1.377 . S
N908 C911 1.321 . S
C909 H895 0.930 . S
C909 C911 1.400 . S
C909 C912 1.386 . S
C910 C906 1.429 . S
C910 N908 1.377 . S
C910 C913 1.411 . S
C911 H893 0.930 . S
C911 N908 1.321 . S
C911 C909 1.400 . S
C912 H907 0.930 . S
C912 C909 1.386 . S
C912 C913 1.395 . S
C913 C910 1.411 . S
C913 C912 1.395 . S
C913 C935 1.420 . S
O914 Eu870 2.558 . S
O914 C934 1.257 . S
O915 Eu870 2.612 . S
O915 Eu881 2.380 . S
O915 C926 1.276 . S
O916 Eu881 2.432 . S
O916 C933 1.264 . S
O917 Eu870 2.339 . S
O917 C933 1.254 . S
O918 Eu870 2.563 . S
O918 C926 1.235 . S
O919 Eu870 2.419 . S
O919 C934 1.249 . S
O920 Eu881 2.558 . S
O920 C945 1.257 . S
O921 Eu870 2.380 . S
O921 Eu881 2.612 . S
O921 C937 1.276 . S
O922 Eu870 2.432 . S
O922 C944 1.264 . S
O923 Eu881 2.339 . S
O923 C944 1.254 . S
O924 Eu881 2.563 . S
O924 C937 1.235 . S
O925 Eu881 2.419 . S
O925 C945 1.249 . S
C926 O915 1.276 . S
C926 O918 1.235 . S
C927 C929 1.393 . S
C927 C931 1.395 . S
C927 C934 1.492 . S
C928 C929 1.392 . S
C928 C930 1.386 . S
C929 C927 1.393 . S
C929 C928 1.392 . S
C929 H946 0.930 . S
C930 C928 1.386 . S
C930 C932 1.395 . S
C930 H947 0.930 . S
C931 C927 1.395 . S
C931 C932 1.379 . S
C931 H948 0.930 . S
C932 C930 1.395 . S
C932 C931 1.379 . S
C932 H949 0.930 . S
C933 O916 1.264 . S
C933 O917 1.254 . S
C934 Eu870 2.848 . S
C934 O914 1.257 . S
C934 O919 1.249 . S
C934 C927 1.492 . S
C935 H900 0.931 . S
C935 C913 1.420 . S
C935 C936 1.351 . S
C936 H898 0.930 1_655 S
C936 C904 1.423 . S
C936 C935 1.351 . S
C937 O921 1.276 . S
C937 O924 1.235 . S
C938 C939 1.393 . S
C938 C942 1.395 . S
C938 C945 1.492 . S
C939 C938 1.393 . S
C939 C940 1.392 . S
C939 H950 0.930 . S
C940 C939 1.392 . S
C940 C941 1.386 . S
C941 C940 1.386 . S
C941 C943 1.395 . S
C941 H951 0.930 . S
C942 C938 1.395 . S
C942 C943 1.379 . S
C942 H952 0.930 . S
C943 C941 1.395 . S
C943 C942 1.379 . S
C943 H953 0.930 . S
C944 O922 1.264 . S
C944 O923 1.254 . S
C945 Eu881 2.848 . S
C945 O920 1.257 . S
C945 O925 1.249 . S
C945 C938 1.492 . S
H946 C929 0.930 . S
H947 C930 0.930 . S
H948 C931 0.930 . S
H949 C932 0.930 . S
H950 C939 0.930 . S
H951 C941 0.930 . S
H952 C942 0.930 . S
H953 C943 0.930 . S
H954 C960 0.930 . S
H955 C964 0.930 . S
H956 C969 0.929 . S
H957 C967 0.929 1_556 S
H958 C962 0.929 . S
H959 C968 0.929 . S
C960 H954 0.930 . S
C960 C961 1.367 . S
C960 C968 1.378 . S
C961 C960 1.367 . S
C961 C969 1.433 . S
C962 H958 0.929 . S
C962 C964 1.378 . S
C962 C966 1.350 . S
C963 C966 1.463 . S
C963 C968 1.350 . S
C963 N971 1.427 . S
C964 H955 0.930 . S
C964 C962 1.378 . S
C964 C965 1.367 . S
C965 C964 1.367 . S
C965 C967 1.433 . S
C966 C962 1.350 . S
C966 C963 1.463 . S
C966 N970 1.427 . S
C967 H957 0.929 1_554 S
C967 C965 1.433 . S
C967 N970 1.384 . S
C968 H959 0.929 . S
C968 C960 1.378 . S
C968 C963 1.350 . S
C969 H956 0.929 . S
C969 C961 1.433 . S
C969 N971 1.384 . S
N970 C966 1.427 . S
N970 C967 1.384 . S
N971 C963 1.427 . S
N971 C969 1.384 . S
H972 C978 0.930 . S
H973 C982 0.930 . S
H974 C987 0.929 . S
H975 C985 0.929 . S
H976 C980 0.929 . S
H977 C986 0.929 . S
C978 H972 0.930 . S
C978 C979 1.367 . S
C978 C986 1.378 . S
C979 C978 1.367 . S
C979 C987 1.433 . S
C980 H976 0.929 . S
C980 C982 1.378 . S
C980 C984 1.350 . S
C981 C984 1.463 . S
C981 C986 1.350 . S
C981 N989 1.427 . S
C982 H973 0.930 . S
C982 C980 1.378 . S
C982 C983 1.367 . S
C983 C982 1.367 . S
C983 C985 1.433 . S
C984 C980 1.350 . S
C984 C981 1.463 . S
C984 N988 1.427 . S
C985 H975 0.929 . S
C985 C983 1.433 . S
C985 N988 1.384 . S
C986 H977 0.929 . S
C986 C978 1.378 . S
C986 C981 1.350 . S
C987 H974 0.929 . S
C987 C979 1.433 . S
C987 N989 1.384 . S
N988 C984 1.427 . S
N988 C985 1.384 . S
N989 C981 1.427 . S
N989 C987 1.384 . S
H990 C996 0.930 . S
H991 C1000 0.930 . S
H992 C1005 0.929 . S
H993 C1003 0.929 1_556 S
H994 C998 0.929 . S
H995 C1004 0.929 . S
C996 H990 0.930 . S
C996 C997 1.367 . S
C996 C1004 1.378 . S
C997 C996 1.367 . S
C997 C1005 1.433 . S
C998 H994 0.929 . S
C998 C1000 1.378 . S
C998 C1002 1.350 . S
C999 C1002 1.463 . S
C999 C1004 1.350 . S
C999 N1007 1.427 . S
C1000 H991 0.930 . S
C1000 C998 1.378 . S
C1000 C1001 1.367 . S
C1001 C1000 1.367 . S
C1001 C1003 1.433 . S
C1002 C998 1.350 . S
C1002 C999 1.463 . S
C1002 N1006 1.427 . S
C1003 H993 0.929 1_554 S
C1003 C1001 1.433 . S
C1003 N1006 1.384 . S
C1004 H995 0.929 . S
C1004 C996 1.378 . S
C1004 C999 1.350 . S
C1005 H992 0.929 . S
C1005 C997 1.433 . S
C1005 N1007 1.384 . S
N1006 C1002 1.427 . S
N1006 C1003 1.384 . S
N1007 C999 1.427 . S
N1007 C1005 1.384 . S
H1008 C1014 0.930 . S
H1009 C1018 0.930 . S
H1010 C1023 0.929 . S
H1011 C1021 0.922 1_554 S
H1012 C1016 0.929 . S
H1013 C1022 0.929 . S
C1014 H1008 0.930 . S
C1014 C1015 1.367 . S
C1014 C1022 1.378 . S
C1015 C1014 1.367 . S
C1015 C1023 1.433 . S
C1016 H1012 0.929 . S
C1016 C1018 1.378 . S
C1016 C1020 1.350 . S
C1017 C1020 1.463 . S
C1017 C1022 1.350 . S
C1017 N1025 1.427 . S
C1018 H1009 0.930 . S
C1018 C1016 1.378 . S
C1018 C1019 1.367 . S
C1019 C1018 1.367 . S
C1019 C1021 1.437 . S
C1020 C1016 1.350 . S
C1020 C1017 1.463 . S
C1020 N1024 1.427 . S
C1021 H1011 0.922 1_556 S
C1021 C1019 1.437 . S
C1021 N1024 1.388 . S
C1022 H1013 0.929 . S
C1022 C1014 1.378 . S
C1022 C1017 1.350 . S
C1023 H1010 0.929 . S
C1023 C1015 1.433 . S
C1023 N1025 1.384 . S
N1024 C1020 1.427 . S
N1024 C1021 1.388 . S
N1025 C1017 1.427 . S
N1025 C1023 1.384 . S
H1026 C1032 0.930 . S
H1027 C1036 0.930 . S
H1028 C1041 0.929 . S
H1029 C1039 0.929 . S
H1030 C1034 0.929 . S
H1031 C1040 0.929 . S
C1032 H1026 0.930 . S
C1032 C1033 1.367 . S
C1032 C1040 1.378 . S
C1033 C1032 1.367 . S
C1033 C1041 1.433 . S
C1034 H1030 0.929 . S
C1034 C1036 1.378 . S
C1034 C1038 1.350 . S
C1035 C1038 1.463 . S
C1035 C1040 1.350 . S
C1035 N1043 1.427 . S
C1036 H1027 0.930 . S
C1036 C1034 1.378 . S
C1036 C1037 1.367 . S
C1037 C1036 1.367 . S
C1037 C1039 1.433 1_556 S
C1038 C1034 1.350 . S
C1038 C1035 1.463 . S
C1038 N1042 1.466 . S
C1039 H1029 0.929 . S
C1039 C1037 1.433 1_554 S
C1039 N1042 1.369 1_554 S
C1040 H1031 0.929 . S
C1040 C1032 1.378 . S
C1040 C1035 1.350 . S
C1041 H1028 0.929 . S
C1041 C1033 1.433 . S
C1041 N1043 1.384 . S
N1042 C1038 1.466 . S
N1042 C1039 1.369 1_556 S
N1043 C1035 1.427 . S
N1043 C1041 1.384 . S
H1044 C1050 0.930 . S
H1045 C1054 0.930 . S
H1046 C1059 0.929 . S
H1047 C1057 0.929 . S
H1048 C1052 0.931 . S
H1049 C1058 0.929 . S
C1050 H1044 0.930 . S
C1050 C1051 1.367 . S
C1050 C1058 1.378 . S
C1051 C1050 1.367 . S
C1051 C1059 1.433 . S
C1052 H1048 0.931 . S
C1052 C1054 1.378 1_556 S
C1052 C1056 1.350 . S
C1053 C1056 1.463 . S
C1053 C1058 1.350 . S
C1053 N1061 1.427 . S
C1054 H1045 0.930 . S
C1054 C1052 1.378 1_554 S
C1054 C1055 1.367 1_554 S
C1055 C1054 1.367 1_556 S
C1055 C1057 1.433 . S
C1056 C1052 1.350 . S
C1056 C1053 1.463 . S
C1056 N1060 1.427 . S
C1057 H1047 0.929 . S
C1057 C1055 1.433 . S
C1057 N1060 1.384 . S
C1058 H1049 0.929 . S
C1058 C1050 1.378 . S
C1058 C1053 1.350 . S
C1059 H1046 0.929 . S
C1059 C1051 1.433 . S
C1059 N1061 1.384 . S
N1060 C1056 1.427 . S
N1060 C1057 1.384 . S
N1061 C1053 1.427 . S
N1061 C1059 1.384 . S
H1062 C1068 0.930 . S
H1063 C1072 0.930 . S
H1064 C1077 0.929 . S
H1065 C1075 0.929 . S
H1066 C1070 0.929 . S
H1067 C1076 0.929 . S
C1068 H1062 0.930 . S
C1068 C1069 1.367 . S
C1068 C1076 1.378 . S
C1069 C1068 1.367 . S
C1069 C1077 1.433 . S
C1070 H1066 0.929 . S
C1070 C1072 1.378 . S
C1070 C1074 1.350 . S
C1071 C1074 1.463 . S
C1071 C1076 1.350 . S
C1071 N1079 1.427 . S
C1072 H1063 0.930 . S
C1072 C1070 1.378 . S
C1072 C1073 1.367 . S
C1073 C1072 1.367 . S
C1073 C1075 1.433 . S
C1074 C1070 1.350 . S
C1074 C1071 1.463 . S
C1074 N1078 1.427 . S
C1075 H1065 0.929 . S
C1075 C1073 1.433 . S
C1075 N1078 1.384 . S
C1076 H1067 0.929 . S
C1076 C1068 1.378 . S
C1076 C1071 1.350 . S
C1077 H1064 0.929 . S
C1077 C1069 1.433 . S
C1077 N1079 1.384 . S
N1078 C1074 1.427 . S
N1078 C1075 1.384 . S
N1079 C1071 1.427 . S
N1079 C1077 1.384 . S
H1080 C1086 0.930 . S
H1081 C1090 0.930 . S
H1082 C1095 0.929 . S
H1083 C1093 0.929 . S
H1084 C1088 0.929 . S
H1085 C1094 0.929 1_554 S
C1086 H1080 0.930 . S
C1086 C1087 1.367 . S
C1086 C1094 1.378 . S
C1087 C1086 1.367 . S
C1087 C1095 1.433 . S
C1088 H1084 0.929 . S
C1088 C1090 1.378 . S
C1088 C1092 1.350 . S
C1089 C1092 1.463 . S
C1089 C1094 1.350 . S
C1089 N1097 1.427 . S
C1090 H1081 0.930 . S
C1090 C1088 1.378 . S
C1090 C1091 1.367 . S
C1091 C1090 1.367 . S
C1091 C1093 1.433 1_556 S
C1092 C1088 1.350 . S
C1092 C1089 1.463 . S
C1092 N1096 1.378 1_556 S
C1093 H1083 0.929 . S
C1093 C1091 1.433 1_554 S
C1093 N1096 1.400 . S
C1094 H1085 0.929 1_556 S
C1094 C1086 1.378 . S
C1094 C1089 1.350 . S
C1095 H1082 0.929 . S
C1095 C1087 1.433 . S
C1095 N1097 1.384 . S
N1096 C1092 1.378 1_554 S
N1096 C1093 1.400 . S
N1097 C1089 1.427 . S
N1097 C1095 1.384 . S
H1098 C1104 0.930 . S
H1099 C1108 0.930 . S
H1100 C1113 0.953 . S
H1101 C1111 0.929 . S
H1102 C1106 0.929 . S
H1103 C1112 0.929 . S
C1104 H1098 0.930 . S
C1104 C1105 1.367 . S
C1104 C1112 1.378 . S
C1105 C1104 1.367 . S
C1105 C1113 1.433 . S
C1106 H1102 0.929 . S
C1106 C1108 1.378 . S
C1106 C1110 1.350 1_554 S
C1107 C1110 1.463 . S
C1107 C1112 1.350 . S
C1107 N1115 1.427 . S
C1108 H1099 0.930 . S
C1108 C1106 1.378 . S
C1108 C1109 1.367 1_554 S
C1109 C1108 1.367 1_556 S
C1109 C1111 1.433 . S
C1110 C1106 1.350 1_556 S
C1110 C1107 1.463 . S
C1110 N1114 1.427 . S
C1111 H1101 0.929 . S
C1111 C1109 1.433 . S
C1111 N1114 1.384 . S
C1112 H1103 0.929 . S
C1112 C1104 1.378 . S
C1112 C1107 1.350 . S
C1113 H1100 0.953 . S
C1113 C1105 1.433 . S
C1113 N1115 1.384 . S
N1114 C1110 1.427 . S
N1114 C1111 1.384 . S
N1115 C1107 1.427 . S
N1115 C1113 1.384 . S
H1116 C1122 0.930 . S
H1117 C1126 0.930 . S
H1118 C1131 0.929 . S
H1119 C1129 0.929 . S
H1120 C1124 0.929 . S
H1121 C1130 0.929 . S
C1122 H1116 0.930 . S
C1122 C1123 1.367 . S
C1122 C1130 1.378 . S
C1123 C1122 1.367 . S
C1123 C1131 1.433 . S
C1124 H1120 0.929 . S
C1124 C1126 1.378 . S
C1124 C1128 1.350 . S
C1125 C1128 1.463 . S
C1125 C1130 1.350 . S
C1125 N1133 1.427 . S
C1126 H1117 0.930 . S
C1126 C1124 1.378 . S
C1126 C1127 1.367 . S
C1127 C1126 1.367 . S
C1127 C1129 1.433 . S
C1128 C1124 1.350 . S
C1128 C1125 1.463 . S
C1128 N1132 1.427 . S
C1129 H1119 0.929 . S
C1129 C1127 1.433 . S
C1129 N1132 1.384 . S
C1130 H1121 0.929 . S
C1130 C1122 1.378 . S
C1130 C1125 1.350 . S
C1131 H1118 0.929 . S
C1131 C1123 1.433 . S
C1131 N1133 1.384 . S
N1132 C1128 1.427 . S
N1132 C1129 1.384 . S
N1133 C1125 1.427 . S
N1133 C1131 1.384 . S
H1134 C1140 0.930 . S
H1135 C1144 0.930 . S
H1136 C1149 0.929 . S
H1137 C1147 0.929 . S
H1138 C1142 0.929 . S
H1139 C1148 0.929 . S
C1140 H1134 0.930 . S
C1140 C1141 1.367 . S
C1140 C1148 1.378 . S
C1141 C1140 1.367 . S
C1141 C1149 1.433 . S
C1142 H1138 0.929 . S
C1142 C1144 1.378 . S
C1142 C1146 1.350 . S
C1143 C1146 1.463 . S
C1143 C1148 1.350 . S
C1143 N1151 1.427 . S
C1144 H1135 0.930 . S
C1144 C1142 1.378 . S
C1144 C1145 1.367 . S
C1145 C1144 1.367 . S
C1145 C1147 1.433 . S
C1146 C1142 1.350 . S
C1146 C1143 1.463 . S
C1146 N1150 1.427 . S
C1147 H1137 0.929 . S
C1147 C1145 1.433 . S
C1147 N1150 1.384 . S
C1148 H1139 0.929 . S
C1148 C1140 1.378 . S
C1148 C1143 1.350 . S
C1149 H1136 0.929 . S
C1149 C1141 1.433 . S
C1149 N1151 1.384 . S
N1150 C1146 1.427 . S
N1150 C1147 1.384 . S
N1151 C1143 1.427 . S
N1151 C1149 1.384 . S
H1152 C1158 0.930 . S
H1153 C1162 0.930 . S
H1154 C1167 0.929 . S
H1155 C1165 0.929 1_556 S
H1156 C1160 0.929 . S
H1157 C1166 0.929 . S
C1158 H1152 0.930 . S
C1158 C1159 1.367 . S
C1158 C1166 1.378 . S
C1159 C1158 1.367 . S
C1159 C1167 1.433 . S
C1160 H1156 0.929 . S
C1160 C1162 1.378 . S
C1160 C1164 1.350 . S
C1161 C1164 1.463 . S
C1161 C1166 1.350 . S
C1161 N1169 1.427 . S
C1162 H1153 0.930 . S
C1162 C1160 1.378 . S
C1162 C1163 1.367 . S
C1163 C1162 1.367 . S
C1163 C1165 1.433 . S
C1164 C1160 1.350 . S
C1164 C1161 1.463 . S
C1164 N1168 1.427 . S
C1165 H1155 0.929 1_554 S
C1165 C1163 1.433 . S
C1165 N1168 1.384 . S
C1166 H1157 0.929 . S
C1166 C1158 1.378 . S
C1166 C1161 1.350 . S
C1167 H1154 0.929 . S
C1167 C1159 1.433 . S
C1167 N1169 1.384 . S
N1168 C1164 1.427 . S
N1168 C1165 1.384 . S
N1169 C1161 1.427 . S
N1169 C1167 1.384 . S
H1170 C1176 0.930 . S
H1171 C1180 0.930 . S
H1172 C1185 0.929 . S
H1173 C1183 0.929 . S
H1174 C1178 0.929 . S
H1175 C1184 0.929 . S
C1176 H1170 0.930 . S
C1176 C1177 1.367 . S
C1176 C1184 1.378 . S
C1177 C1176 1.367 . S
C1177 C1185 1.433 . S
C1178 H1174 0.929 . S
C1178 C1180 1.378 . S
C1178 C1182 1.350 . S
C1179 C1182 1.463 1_655 S
C1179 C1184 1.350 . S
C1179 N1187 1.427 . S
C1180 H1171 0.930 . S
C1180 C1178 1.378 . S
C1180 C1181 1.367 . S
C1181 C1180 1.367 . S
C1181 C1183 1.433 . S
C1182 C1178 1.350 . S
C1182 C1179 1.463 1_455 S
C1182 N1186 1.427 . S
C1183 H1173 0.929 . S
C1183 C1181 1.433 . S
C1183 N1186 1.384 . S
C1184 H1175 0.929 . S
C1184 C1176 1.378 . S
C1184 C1179 1.350 . S
C1185 H1172 0.929 . S
C1185 C1177 1.433 . S
C1185 N1187 1.384 . S
N1186 C1182 1.427 . S
N1186 C1183 1.384 . S
N1187 C1179 1.427 . S
N1187 C1185 1.384 . S
H1188 C1194 0.930 . S
H1189 C1198 0.930 . S
H1190 C1203 0.929 . S
H1191 C1201 0.929 . S
H1192 C1196 0.929 . S
H1193 C1202 0.929 . S
C1194 H1188 0.930 . S
C1194 C1195 1.367 . S
C1194 C1202 1.378 . S
C1195 C1194 1.367 . S
C1195 C1203 1.433 . S
C1196 H1192 0.929 . S
C1196 C1198 1.378 . S
C1196 C1200 1.350 . S
C1197 C1200 1.463 . S
C1197 C1202 1.350 . S
C1197 N1205 1.427 . S
C1198 H1189 0.930 . S
C1198 C1196 1.378 . S
C1198 C1199 1.367 . S
C1199 C1198 1.367 . S
C1199 C1201 1.433 . S
C1200 C1196 1.350 . S
C1200 C1197 1.463 . S
C1200 N1204 1.427 . S
C1201 H1191 0.929 . S
C1201 C1199 1.433 . S
C1201 N1204 1.384 . S
C1202 H1193 0.929 . S
C1202 C1194 1.378 . S
C1202 C1197 1.350 . S
C1203 H1190 0.929 . S
C1203 C1195 1.433 . S
C1203 N1205 1.384 . S
N1204 C1200 1.427 . S
N1204 C1201 1.384 . S
N1205 C1197 1.427 . S
N1205 C1203 1.384 . S
H1206 C1212 0.930 . S
H1207 C1216 0.930 . S
H1208 C1221 0.929 . S
H1209 C1219 0.929 . S
H1210 C1214 0.929 1_545 S
H1211 C1220 0.929 . S
C1212 H1206 0.930 . S
C1212 C1213 1.367 . S
C1212 C1220 1.378 . S
C1213 C1212 1.367 . S
C1213 C1221 1.433 . S
C1214 H1210 0.929 1_565 S
C1214 C1216 1.378 . S
C1214 C1218 1.350 . S
C1215 C1218 1.463 1_545 S
C1215 C1220 1.350 . S
C1215 N1223 1.427 . S
C1216 H1207 0.930 . S
C1216 C1214 1.378 . S
C1216 C1217 1.367 . S
C1217 C1216 1.367 . S
C1217 C1219 1.433 . S
C1218 C1214 1.350 . S
C1218 C1215 1.463 1_565 S
C1218 N1222 1.427 . S
C1219 H1209 0.929 . S
C1219 C1217 1.433 . S
C1219 N1222 1.384 . S
C1220 H1211 0.929 . S
C1220 C1212 1.378 . S
C1220 C1215 1.350 . S
C1221 H1208 0.929 . S
C1221 C1213 1.433 . S
C1221 N1223 1.384 . S
N1222 C1218 1.427 . S
N1222 C1219 1.384 . S
N1223 C1215 1.427 . S
N1223 C1221 1.384 . S
H1224 C1230 0.930 . S
H1225 C1234 0.930 . S
H1226 C1239 0.929 . S
H1227 C1237 0.929 . S
H1228 C1232 0.929 . S
H1229 C1238 0.929 . S
C1230 H1224 0.930 . S
C1230 C1231 1.367 . S
C1230 C1238 1.378 . S
C1231 C1230 1.367 . S
C1231 C1239 1.433 . S
C1232 H1228 0.929 . S
C1232 C1234 1.378 . S
C1232 C1236 1.350 . S
C1233 C1236 1.463 . S
C1233 C1238 1.350 . S
C1233 N1241 1.427 . S
C1234 H1225 0.930 . S
C1234 C1232 1.378 . S
C1234 C1235 1.367 . S
C1235 C1234 1.367 . S
C1235 C1237 1.433 . S
C1236 C1232 1.350 . S
C1236 C1233 1.463 . S
C1236 N1240 1.427 . S
C1237 H1227 0.929 . S
C1237 C1235 1.433 . S
C1237 N1240 1.384 . S
C1238 H1229 0.929 . S
C1238 C1230 1.378 . S
C1238 C1233 1.350 . S
C1239 H1226 0.929 . S
C1239 C1231 1.433 . S
C1239 N1241 1.384 . S
N1240 C1236 1.427 . S
N1240 C1237 1.384 . S
N1241 C1233 1.427 . S
N1241 C1239 1.384 . S
H1242 C1248 0.930 . S
H1243 C1252 0.930 . S
H1244 C1257 0.929 . S
H1245 C1255 0.929 . S
H1246 C1250 0.929 . S
H1247 C1256 0.929 . S
C1248 H1242 0.930 . S
C1248 C1249 1.367 . S
C1248 C1256 1.378 . S
C1249 C1248 1.367 . S
C1249 C1257 1.433 . S
C1250 H1246 0.929 . S
C1250 C1252 1.378 . S
C1250 C1254 1.350 . S
C1251 C1254 1.463 . S
C1251 C1256 1.350 . S
C1251 N1259 1.427 . S
C1252 H1243 0.930 . S
C1252 C1250 1.378 . S
C1252 C1253 1.367 . S
C1253 C1252 1.367 . S
C1253 C1255 1.433 . S
C1254 C1250 1.350 . S
C1254 C1251 1.463 . S
C1254 N1258 1.427 . S
C1255 H1245 0.929 . S
C1255 C1253 1.433 . S
C1255 N1258 1.384 . S
C1256 H1247 0.929 . S
C1256 C1248 1.378 . S
C1256 C1251 1.350 . S
C1257 H1244 0.929 . S
C1257 C1249 1.433 . S
C1257 N1259 1.384 . S
N1258 C1254 1.427 . S
N1258 C1255 1.384 . S
N1259 C1251 1.427 . S
N1259 C1257 1.384 . S
H1260 C1266 0.930 . S
H1261 C1270 0.930 . S
H1262 C1275 0.929 . S
H1263 C1273 0.929 . S
H1264 C1268 0.929 . S
H1265 C1274 0.929 . S
C1266 H1260 0.930 . S
C1266 C1267 1.367 . S
C1266 C1274 1.378 . S
C1267 C1266 1.367 . S
C1267 C1275 1.433 . S
C1268 H1264 0.929 . S
C1268 C1270 1.378 . S
C1268 C1272 1.350 . S
C1269 C1272 1.463 . S
C1269 C1274 1.350 . S
C1269 N1277 1.427 . S
C1270 H1261 0.930 . S
C1270 C1268 1.378 . S
C1270 C1271 1.367 . S
C1271 C1270 1.367 . S
C1271 C1273 1.433 . S
C1272 C1268 1.350 . S
C1272 C1269 1.463 . S
C1272 N1276 1.427 . S
C1273 H1263 0.929 . S
C1273 C1271 1.433 . S
C1273 N1276 1.384 . S
C1274 H1265 0.929 . S
C1274 C1266 1.378 . S
C1274 C1269 1.350 . S
C1275 H1262 0.929 . S
C1275 C1267 1.433 . S
C1275 N1277 1.384 . S
N1276 C1272 1.427 . S
N1276 C1273 1.384 . S
N1277 C1269 1.427 . S
N1277 C1275 1.384 . S
H1278 C1284 0.930 . S
H1279 C1288 0.930 . S
H1280 C1293 0.929 . S
H1281 C1291 0.929 . S
H1282 C1286 0.929 . S
H1283 C1292 0.929 . S
C1284 H1278 0.930 . S
C1284 C1285 1.367 . S
C1284 C1292 1.378 . S
C1285 C1284 1.367 . S
C1285 C1293 1.433 . S
C1286 H1282 0.929 . S
C1286 C1288 1.378 . S
C1286 C1290 1.350 . S
C1287 C1290 1.463 . S
C1287 C1292 1.350 . S
C1287 N1295 1.427 . S
C1288 H1279 0.930 . S
C1288 C1286 1.378 . S
C1288 C1289 1.367 . S
C1289 C1288 1.367 . S
C1289 C1291 1.433 . S
C1290 C1286 1.350 . S
C1290 C1287 1.463 . S
C1290 N1294 1.427 . S
C1291 H1281 0.929 . S
C1291 C1289 1.433 . S
C1291 N1294 1.384 . S
C1292 H1283 0.929 . S
C1292 C1284 1.378 . S
C1292 C1287 1.350 . S
C1293 H1280 0.929 . S
C1293 C1285 1.433 . S
C1293 N1295 1.384 . S
N1294 C1290 1.427 . S
N1294 C1291 1.384 . S
N1295 C1287 1.427 . S
N1295 C1293 1.384 . S
H1296 C1302 0.930 . S
H1297 C1306 0.930 . S
H1298 C1311 0.929 . S
H1299 C1309 0.929 . S
H1300 C1304 0.929 . S
H1301 C1310 0.929 . S
C1302 H1296 0.930 . S
C1302 C1303 1.367 . S
C1302 C1310 1.378 . S
C1303 C1302 1.367 . S
C1303 C1311 1.433 . S
C1304 H1300 0.929 . S
C1304 C1306 1.378 . S
C1304 C1308 1.350 . S
C1305 C1308 1.463 . S
C1305 C1310 1.350 . S
C1305 N1313 1.427 . S
C1306 H1297 0.930 . S
C1306 C1304 1.378 . S
C1306 C1307 1.367 . S
C1307 C1306 1.367 . S
C1307 C1309 1.433 . S
C1308 C1304 1.350 . S
C1308 C1305 1.463 . S
C1308 N1312 1.427 . S
C1309 H1299 0.929 . S
C1309 C1307 1.433 . S
C1309 N1312 1.384 . S
C1310 H1301 0.929 . S
C1310 C1302 1.378 . S
C1310 C1305 1.350 . S
C1311 H1298 0.929 . S
C1311 C1303 1.433 . S
C1311 N1313 1.384 . S
N1312 C1308 1.427 . S
N1312 C1309 1.384 . S
N1313 C1305 1.427 . S
N1313 C1311 1.384 . S
H1314 C1320 0.930 . S
H1315 C1324 0.930 . S
H1316 C1329 0.929 . S
H1317 C1327 0.929 . S
H1318 C1322 0.929 . S
H1319 C1328 0.929 . S
C1320 H1314 0.930 . S
C1320 C1321 1.367 . S
C1320 C1328 1.378 . S
C1321 C1320 1.367 . S
C1321 C1329 1.433 . S
C1322 H1318 0.929 . S
C1322 C1324 1.378 . S
C1322 C1326 1.350 . S
C1323 C1326 1.463 . S
C1323 C1328 1.350 . S
C1323 N1331 1.427 . S
C1324 H1315 0.930 . S
C1324 C1322 1.378 . S
C1324 C1325 1.367 . S
C1325 C1324 1.367 . S
C1325 C1327 1.433 . S
C1326 C1322 1.350 . S
C1326 C1323 1.463 . S
C1326 N1330 1.427 . S
C1327 H1317 0.929 . S
C1327 C1325 1.433 . S
C1327 N1330 1.384 . S
C1328 H1319 0.929 . S
C1328 C1320 1.378 . S
C1328 C1323 1.350 . S
C1329 H1316 0.929 . S
C1329 C1321 1.433 . S
C1329 N1331 1.384 . S
N1330 C1326 1.427 . S
N1330 C1327 1.384 . S
N1331 C1323 1.427 . S
N1331 C1329 1.384 . S
H1332 C1338 0.930 . S
H1333 C1342 0.930 . S
H1334 C1347 0.929 . S
H1335 C1345 0.929 . S
H1336 C1340 0.929 . S
H1337 C1346 0.929 . S
C1338 H1332 0.930 . S
C1338 C1339 1.367 . S
C1338 C1346 1.378 1_545 S
C1339 C1338 1.367 . S
C1339 C1347 1.433 . S
C1340 H1336 0.929 . S
C1340 C1342 1.378 . S
C1340 C1344 1.350 . S
C1341 C1344 1.463 . S
C1341 C1346 1.350 . S
C1341 N1349 1.427 . S
C1342 H1333 0.930 . S
C1342 C1340 1.378 . S
C1342 C1343 1.367 . S
C1343 C1342 1.367 . S
C1343 C1345 1.433 . S
C1344 C1340 1.350 . S
C1344 C1341 1.463 . S
C1344 N1348 1.427 . S
C1345 H1335 0.929 . S
C1345 C1343 1.433 . S
C1345 N1348 1.384 . S
C1346 H1337 0.929 . S
C1346 C1338 1.378 1_565 S
C1346 C1341 1.350 . S
C1347 H1334 0.929 . S
C1347 C1339 1.433 . S
C1347 N1349 1.384 1_545 S
N1348 C1344 1.427 . S
N1348 C1345 1.384 . S
N1349 C1341 1.427 . S
N1349 C1347 1.384 1_565 S
H1350 C1356 0.930 1_655 S
H1351 C1360 0.930 . S
H1352 C1365 0.929 . S
H1353 C1363 0.929 . S
H1354 C1358 0.929 . S
H1355 C1364 0.929 . S
C1356 H1350 0.930 1_455 S
C1356 C1357 1.367 1_455 S
C1356 C1364 1.378 . S
C1357 C1356 1.367 1_655 S
C1357 C1365 1.433 1_655 S
C1358 H1354 0.929 . S
C1358 C1360 1.378 . S
C1358 C1362 1.350 . S
C1359 C1362 1.463 . S
C1359 C1364 1.350 . S
C1359 N1367 1.427 . S
C1360 H1351 0.930 . S
C1360 C1358 1.378 . S
C1360 C1361 1.367 . S
C1361 C1360 1.367 . S
C1361 C1363 1.433 . S
C1362 C1358 1.350 . S
C1362 C1359 1.463 . S
C1362 N1366 1.427 . S
C1363 H1353 0.929 . S
C1363 C1361 1.433 . S
C1363 N1366 1.384 . S
C1364 H1355 0.929 . S
C1364 C1356 1.378 . S
C1364 C1359 1.350 . S
C1365 H1352 0.929 . S
C1365 C1357 1.433 1_455 S
C1365 N1367 1.384 . S
N1366 C1362 1.427 . S
N1366 C1363 1.384 . S
N1367 C1359 1.427 . S
N1367 C1365 1.384 . S
H1368 C1374 0.930 . S
H1369 C1378 0.930 . S
H1370 C1383 0.929 . S
H1371 C1381 0.929 . S
H1372 C1376 0.929 . S
H1373 C1382 0.929 . S
C1374 H1368 0.930 . S
C1374 C1375 1.367 . S
C1374 C1382 1.378 . S
C1375 C1374 1.367 . S
C1375 C1383 1.433 . S
C1376 H1372 0.929 . S
C1376 C1378 1.378 . S
C1376 C1380 1.350 . S
C1377 C1380 1.463 . S
C1377 C1382 1.350 . S
C1377 N1385 1.427 . S
C1378 H1369 0.930 . S
C1378 C1376 1.378 . S
C1378 C1379 1.367 . S
C1379 C1378 1.367 . S
C1379 C1381 1.433 . S
C1380 C1376 1.350 . S
C1380 C1377 1.463 . S
C1380 N1384 1.427 . S
C1381 H1371 0.929 . S
C1381 C1379 1.433 . S
C1381 N1384 1.384 . S
C1382 H1373 0.929 . S
C1382 C1374 1.378 . S
C1382 C1377 1.350 . S
C1383 H1370 0.929 . S
C1383 C1375 1.433 . S
C1383 N1385 1.384 . S
N1384 C1380 1.427 . S
N1384 C1381 1.384 . S
N1385 C1377 1.427 . S
N1385 C1383 1.384 . S
H1386 C1392 0.930 . S
H1387 C1396 0.930 . S
H1388 C1401 0.929 . S
H1389 C1399 0.929 . S
H1390 C1394 0.929 . S
H1391 C1400 0.929 . S
C1392 H1386 0.930 . S
C1392 C1393 1.367 . S
C1392 C1400 1.378 . S
C1393 C1392 1.367 . S
C1393 C1401 1.433 . S
C1394 H1390 0.929 . S
C1394 C1396 1.378 . S
C1394 C1398 1.350 . S
C1395 C1398 1.463 . S
C1395 C1400 1.350 . S
C1395 N1403 1.427 . S
C1396 H1387 0.930 . S
C1396 C1394 1.378 . S
C1396 C1397 1.367 . S
C1397 C1396 1.367 . S
C1397 C1399 1.433 . S
C1398 C1394 1.350 . S
C1398 C1395 1.463 . S
C1398 N1402 1.427 . S
C1399 H1389 0.929 . S
C1399 C1397 1.433 . S
C1399 N1402 1.384 . S
C1400 H1391 0.929 . S
C1400 C1392 1.378 . S
C1400 C1395 1.350 . S
C1401 H1388 0.929 . S
C1401 C1393 1.433 . S
C1401 N1403 1.384 . S
N1402 C1398 1.427 . S
N1402 C1399 1.384 . S
N1403 C1395 1.427 . S
N1403 C1401 1.384 . S
H1404 C1410 0.930 . S
H1405 C1414 0.930 . S
H1406 C1419 0.929 . S
H1407 C1417 0.929 . S
H1408 C1412 0.929 . S
H1409 C1418 0.929 . S
C1410 H1404 0.930 . S
C1410 C1411 1.367 . S
C1410 C1418 1.378 . S
C1411 C1410 1.367 . S
C1411 C1419 1.433 . S
C1412 H1408 0.929 . S
C1412 C1414 1.378 . S
C1412 C1416 1.350 . S
C1413 C1416 1.463 . S
C1413 C1418 1.350 . S
C1413 N1421 1.427 . S
C1414 H1405 0.930 . S
C1414 C1412 1.378 . S
C1414 C1415 1.367 . S
C1415 C1414 1.367 . S
C1415 C1417 1.433 . S
C1416 C1412 1.350 . S
C1416 C1413 1.463 . S
C1416 N1420 1.427 . S
C1417 H1407 0.929 . S
C1417 C1415 1.433 . S
C1417 N1420 1.384 . S
C1418 H1409 0.929 . S
C1418 C1410 1.378 . S
C1418 C1413 1.350 . S
C1419 H1406 0.929 . S
C1419 C1411 1.433 . S
C1419 N1421 1.384 . S
N1420 C1416 1.427 . S
N1420 C1417 1.384 . S
N1421 C1413 1.427 . S
N1421 C1419 1.384 . S
H1422 C1428 0.930 . S
H1423 C1432 0.930 . S
H1424 C1437 0.929 . S
H1425 C1435 0.929 . S
H1426 C1430 0.929 . S
H1427 C1436 0.929 . S
C1428 H1422 0.930 . S
C1428 C1429 1.367 . S
C1428 C1436 1.378 . S
C1429 C1428 1.367 . S
C1429 C1437 1.433 . S
C1430 H1426 0.929 . S
C1430 C1432 1.378 . S
C1430 C1434 1.350 . S
C1431 C1434 1.463 . S
C1431 C1436 1.350 . S
C1431 N1439 1.427 . S
C1432 H1423 0.930 . S
C1432 C1430 1.378 . S
C1432 C1433 1.367 . S
C1433 C1432 1.367 . S
C1433 C1435 1.433 . S
C1434 C1430 1.350 . S
C1434 C1431 1.463 . S
C1434 N1438 1.427 . S
C1435 H1425 0.929 . S
C1435 C1433 1.433 . S
C1435 N1438 1.384 . S
C1436 H1427 0.929 . S
C1436 C1428 1.378 . S
C1436 C1431 1.350 . S
C1437 H1424 0.929 . S
C1437 C1429 1.433 . S
C1437 N1439 1.384 . S
N1438 C1434 1.427 . S
N1438 C1435 1.384 . S
N1439 C1431 1.427 . S
N1439 C1437 1.384 . S
H1440 C1446 0.930 . S
H1441 C1450 0.930 . S
H1442 C1455 0.929 . S
H1443 C1453 0.929 . S
H1444 C1448 0.929 . S
H1445 C1454 0.929 . S
C1446 H1440 0.930 . S
C1446 C1447 1.367 . S
C1446 C1454 1.378 . S
C1447 C1446 1.367 . S
C1447 C1455 1.433 . S
C1448 H1444 0.929 . S
C1448 C1450 1.378 . S
C1448 C1452 1.350 . S
C1449 C1452 1.463 1_565 S
C1449 C1454 1.350 . S
C1449 N1457 1.427 . S
C1450 H1441 0.930 . S
C1450 C1448 1.378 . S
C1450 C1451 1.367 . S
C1451 C1450 1.367 . S
C1451 C1453 1.433 . S
C1452 C1448 1.350 . S
C1452 C1449 1.463 1_545 S
C1452 N1456 1.427 . S
C1453 H1443 0.929 . S
C1453 C1451 1.433 . S
C1453 N1456 1.384 . S
C1454 H1445 0.929 . S
C1454 C1446 1.378 . S
C1454 C1449 1.350 . S
C1455 H1442 0.929 . S
C1455 C1447 1.433 . S
C1455 N1457 1.384 . S
N1456 C1452 1.427 . S
N1456 C1453 1.384 . S
N1457 C1449 1.427 . S
N1457 C1455 1.384 . S
H1458 C1464 0.930 . S
H1459 C1468 0.930 . S
H1460 C1473 0.929 . S
H1461 C1471 0.929 . S
H1462 C1466 0.929 . S
H1463 C1472 0.929 . S
C1464 H1458 0.930 . S
C1464 C1465 1.367 . S
C1464 C1472 1.378 . S
C1465 C1464 1.367 . S
C1465 C1473 1.433 . S
C1466 H1462 0.929 . S
C1466 C1468 1.378 . S
C1466 C1470 1.350 . S
C1467 C1470 1.463 1_455 S
C1467 C1472 1.350 . S
C1467 N1475 1.427 . S
C1468 H1459 0.930 . S
C1468 C1466 1.378 . S
C1468 C1469 1.367 . S
C1469 C1468 1.367 . S
C1469 C1471 1.433 . S
C1470 C1466 1.350 . S
C1470 C1467 1.463 1_655 S
C1470 N1474 1.427 . S
C1471 H1461 0.929 . S
C1471 C1469 1.433 . S
C1471 N1474 1.384 . S
C1472 H1463 0.929 . S
C1472 C1464 1.378 . S
C1472 C1467 1.350 . S
C1473 H1460 0.929 . S
C1473 C1465 1.433 . S
C1473 N1475 1.384 . S
N1474 C1470 1.427 . S
N1474 C1471 1.384 . S
N1475 C1467 1.427 . S
N1475 C1473 1.384 . S
H1476 C1482 0.930 . S
H1477 C1486 0.930 . S
H1478 C1491 0.929 . S
H1479 C1489 0.929 . S
H1480 C1484 0.929 . S
H1481 C1490 0.929 . S
C1482 H1476 0.930 . S
C1482 C1483 1.367 . S
C1482 C1490 1.378 . S
C1483 C1482 1.367 . S
C1483 C1491 1.433 . S
C1484 H1480 0.929 . S
C1484 C1486 1.378 . S
C1484 C1488 1.350 . S
C1485 C1488 1.463 . S
C1485 C1490 1.350 . S
C1485 N1493 1.427 . S
C1486 H1477 0.930 . S
C1486 C1484 1.378 . S
C1486 C1487 1.367 . S
C1487 C1486 1.367 . S
C1487 C1489 1.433 . S
C1488 C1484 1.350 . S
C1488 C1485 1.463 . S
C1488 N1492 1.427 . S
C1489 H1479 0.929 . S
C1489 C1487 1.433 . S
C1489 N1492 1.384 . S
C1490 H1481 0.929 . S
C1490 C1482 1.378 . S
C1490 C1485 1.350 . S
C1491 H1478 0.929 . S
C1491 C1483 1.433 . S
C1491 N1493 1.384 . S
N1492 C1488 1.427 . S
N1492 C1489 1.384 . S
N1493 C1485 1.427 . S
N1493 C1491 1.384 . S
H1494 C1500 0.930 . S
H1495 C1504 0.930 . S
H1496 C1509 0.929 1_455 S
H1497 C1507 0.929 . S
H1498 C1502 0.929 . S
H1499 C1508 0.929 . S
C1500 H1494 0.930 . S
C1500 C1501 1.367 . S
C1500 C1508 1.378 1_455 S
C1501 C1500 1.367 . S
C1501 C1509 1.433 1_455 S
C1502 H1498 0.929 . S
C1502 C1504 1.378 . S
C1502 C1506 1.350 . S
C1503 C1506 1.463 . S
C1503 C1508 1.350 . S
C1503 N1511 1.427 . S
C1504 H1495 0.930 . S
C1504 C1502 1.378 . S
C1504 C1505 1.367 . S
C1505 C1504 1.367 . S
C1505 C1507 1.433 . S
C1506 C1502 1.350 . S
C1506 C1503 1.463 . S
C1506 N1510 1.427 . S
C1507 H1497 0.929 . S
C1507 C1505 1.433 . S
C1507 N1510 1.384 . S
C1508 H1499 0.929 . S
C1508 C1500 1.378 1_655 S
C1508 C1503 1.350 . S
C1509 H1496 0.929 1_655 S
C1509 C1501 1.433 1_655 S
C1509 N1511 1.384 . S
N1510 C1506 1.427 . S
N1510 C1507 1.384 . S
N1511 C1503 1.427 . S
N1511 C1509 1.384 . S
H1512 C1518 0.930 . S
H1513 C1522 0.930 . S
H1514 C1527 0.929 . S
H1515 C1525 0.929 . S
H1516 C1520 0.929 . S
H1517 C1526 0.929 . S
C1518 H1512 0.930 . S
C1518 C1519 1.367 . S
C1518 C1526 1.378 . S
C1519 C1518 1.367 . S
C1519 C1527 1.433 . S
C1520 H1516 0.929 . S
C1520 C1522 1.378 . S
C1520 C1524 1.350 . S
C1521 C1524 1.463 . S
C1521 C1526 1.350 . S
C1521 N1529 1.427 . S
C1522 H1513 0.930 . S
C1522 C1520 1.378 . S
C1522 C1523 1.367 . S
C1523 C1522 1.367 . S
C1523 C1525 1.433 . S
C1524 C1520 1.350 . S
C1524 C1521 1.463 . S
C1524 N1528 1.427 . S
C1525 H1515 0.929 . S
C1525 C1523 1.433 . S
C1525 N1528 1.384 . S
C1526 H1517 0.929 . S
C1526 C1518 1.378 . S
C1526 C1521 1.350 . S
C1527 H1514 0.929 . S
C1527 C1519 1.433 . S
C1527 N1529 1.384 . S
N1528 C1524 1.427 . S
N1528 C1525 1.384 . S
N1529 C1521 1.427 . S
N1529 C1527 1.384 . S
H1530 C1536 0.930 1_565 S
H1531 C1540 0.930 . S
H1532 C1545 0.929 . S
H1533 C1543 0.929 . S
H1534 C1538 0.929 . S
H1535 C1544 0.929 . S
C1536 H1530 0.930 1_545 S
C1536 C1537 1.367 1_545 S
C1536 C1544 1.378 . S
C1537 C1536 1.367 1_565 S
C1537 C1545 1.433 . S
C1538 H1534 0.929 . S
C1538 C1540 1.378 . S
C1538 C1542 1.350 . S
C1539 C1542 1.463 . S
C1539 C1544 1.350 . S
C1539 N1547 1.427 . S
C1540 H1531 0.930 . S
C1540 C1538 1.378 . S
C1540 C1541 1.367 . S
C1541 C1540 1.367 . S
C1541 C1543 1.433 . S
C1542 C1538 1.350 . S
C1542 C1539 1.463 . S
C1542 N1546 1.427 . S
C1543 H1533 0.929 . S
C1543 C1541 1.433 . S
C1543 N1546 1.384 . S
C1544 H1535 0.929 . S
C1544 C1536 1.378 . S
C1544 C1539 1.350 . S
C1545 H1532 0.929 . S
C1545 C1537 1.433 . S
C1545 N1547 1.384 1_565 S
N1546 C1542 1.427 . S
N1546 C1543 1.384 . S
N1547 C1539 1.427 . S
N1547 C1545 1.384 1_545 S
H1548 C1554 0.930 . S
H1549 C1558 0.930 . S
H1550 C1563 0.929 . S
H1551 C1561 0.929 . S
H1552 C1556 0.929 . S
H1553 C1562 0.929 . S
C1554 H1548 0.930 . S
C1554 C1555 1.367 . S
C1554 C1562 1.378 . S
C1555 C1554 1.367 . S
C1555 C1563 1.433 . S
C1556 H1552 0.929 . S
C1556 C1558 1.378 . S
C1556 C1560 1.350 . S
C1557 C1560 1.463 . S
C1557 C1562 1.350 . S
C1557 N1565 1.427 . S
C1558 H1549 0.930 . S
C1558 C1556 1.378 . S
C1558 C1559 1.367 . S
C1559 C1558 1.367 . S
C1559 C1561 1.433 . S
C1560 C1556 1.350 . S
C1560 C1557 1.463 . S
C1560 N1564 1.427 . S
C1561 H1551 0.929 . S
C1561 C1559 1.433 . S
C1561 N1564 1.384 . S
C1562 H1553 0.929 . S
C1562 C1554 1.378 . S
C1562 C1557 1.350 . S
C1563 H1550 0.929 . S
C1563 C1555 1.433 . S
C1563 N1565 1.384 . S
N1564 C1560 1.427 . S
N1564 C1561 1.384 . S
N1565 C1557 1.427 . S
N1565 C1563 1.384 . S
H1566 C1572 0.930 . S
H1567 C1576 0.930 . S
H1568 C1581 0.929 . S
H1569 C1579 0.929 . S
H1570 C1574 0.929 . S
H1571 C1580 0.929 . S
C1572 H1566 0.930 . S
C1572 C1573 1.367 . S
C1572 C1580 1.378 . S
C1573 C1572 1.367 . S
C1573 C1581 1.433 . S
C1574 H1570 0.929 . S
C1574 C1576 1.378 . S
C1574 C1578 1.350 . S
C1575 C1578 1.463 . S
C1575 C1580 1.350 . S
C1575 N1583 1.427 . S
C1576 H1567 0.930 . S
C1576 C1574 1.378 . S
C1576 C1577 1.367 . S
C1577 C1576 1.367 . S
C1577 C1579 1.433 . S
C1578 C1574 1.350 . S
C1578 C1575 1.463 . S
C1578 N1582 1.427 . S
C1579 H1569 0.929 . S
C1579 C1577 1.433 . S
C1579 N1582 1.384 . S
C1580 H1571 0.929 . S
C1580 C1572 1.378 . S
C1580 C1575 1.350 . S
C1581 H1568 0.929 . S
C1581 C1573 1.433 . S
C1581 N1583 1.384 . S
N1582 C1578 1.427 . S
N1582 C1579 1.384 . S
N1583 C1575 1.427 . S
N1583 C1581 1.384 . S
H1584 C1590 0.930 . S
H1585 C1594 0.930 . S
H1586 C1599 0.929 . S
H1587 C1597 0.929 . S
H1588 C1592 0.929 . S
H1589 C1598 0.929 . S
C1590 H1584 0.930 . S
C1590 C1591 1.367 . S
C1590 C1598 1.378 . S
C1591 C1590 1.367 . S
C1591 C1599 1.433 . S
C1592 H1588 0.929 . S
C1592 C1594 1.378 . S
C1592 C1596 1.350 . S
C1593 C1596 1.463 . S
C1593 C1598 1.350 . S
C1593 N1601 1.427 . S
C1594 H1585 0.930 . S
C1594 C1592 1.378 . S
C1594 C1595 1.367 . S
C1595 C1594 1.367 . S
C1595 C1597 1.433 . S
C1596 C1592 1.350 . S
C1596 C1593 1.463 . S
C1596 N1600 1.427 . S
C1597 H1587 0.929 . S
C1597 C1595 1.433 . S
C1597 N1600 1.384 . S
C1598 H1589 0.929 . S
C1598 C1590 1.378 . S
C1598 C1593 1.350 . S
C1599 H1586 0.929 . S
C1599 C1591 1.433 . S
C1599 N1601 1.384 . S
N1600 C1596 1.427 . S
N1600 C1597 1.384 . S
N1601 C1593 1.427 . S
N1601 C1599 1.384 . S
H1602 C1608 0.930 . S
H1603 C1612 0.930 . S
H1604 C1617 0.929 . S
H1605 C1615 0.929 . S
H1606 C1610 0.929 . S
H1607 C1616 0.929 . S
C1608 H1602 0.930 . S
C1608 C1609 1.367 . S
C1608 C1616 1.378 . S
C1609 C1608 1.367 . S
C1609 C1617 1.433 . S
C1610 H1606 0.929 . S
C1610 C1612 1.378 . S
C1610 C1614 1.350 . S
C1611 C1614 1.463 . S
C1611 C1616 1.350 . S
C1611 N1619 1.427 . S
C1612 H1603 0.930 . S
C1612 C1610 1.378 . S
C1612 C1613 1.367 . S
C1613 C1612 1.367 . S
C1613 C1615 1.433 . S
C1614 C1610 1.350 . S
C1614 C1611 1.463 . S
C1614 N1618 1.427 . S
C1615 H1605 0.929 . S
C1615 C1613 1.433 . S
C1615 N1618 1.384 . S
C1616 H1607 0.929 . S
C1616 C1608 1.378 . S
C1616 C1611 1.350 . S
C1617 H1604 0.929 . S
C1617 C1609 1.433 . S
C1617 N1619 1.384 . S
N1618 C1614 1.427 . S
N1618 C1615 1.384 . S
N1619 C1611 1.427 . S
N1619 C1617 1.384 . S
H1620 C1626 0.930 . S
H1621 C1630 0.930 . S
H1622 C1635 0.929 . S
H1623 C1633 0.929 . S
H1624 C1628 0.929 . S
H1625 C1634 0.929 . S
C1626 H1620 0.930 . S
C1626 C1627 1.367 . S
C1626 C1634 1.378 . S
C1627 C1626 1.367 . S
C1627 C1635 1.433 . S
C1628 H1624 0.929 . S
C1628 C1630 1.378 . S
C1628 C1632 1.350 . S
C1629 C1632 1.463 . S
C1629 C1634 1.350 . S
C1629 N1637 1.427 . S
C1630 H1621 0.930 . S
C1630 C1628 1.378 . S
C1630 C1631 1.367 . S
C1631 C1630 1.367 . S
C1631 C1633 1.433 . S
C1632 C1628 1.350 . S
C1632 C1629 1.463 . S
C1632 N1636 1.427 . S
C1633 H1623 0.929 . S
C1633 C1631 1.433 . S
C1633 N1636 1.384 . S
C1634 H1625 0.929 . S
C1634 C1626 1.378 . S
C1634 C1629 1.350 . S
C1635 H1622 0.929 . S
C1635 C1627 1.433 . S
C1635 N1637 1.384 . S
N1636 C1632 1.427 . S
N1636 C1633 1.384 . S
N1637 C1629 1.427 . S
N1637 C1635 1.384 . S
H1638 C1644 0.930 . S
H1639 C1648 0.930 . S
H1640 C1653 0.929 . S
H1641 C1651 0.929 . S
H1642 C1646 0.929 . S
H1643 C1652 0.929 . S
C1644 H1638 0.930 . S
C1644 C1645 1.367 . S
C1644 C1652 1.378 . S
C1645 C1644 1.367 . S
C1645 C1653 1.433 . S
C1646 H1642 0.929 . S
C1646 C1648 1.378 . S
C1646 C1650 1.350 . S
C1647 C1650 1.463 . S
C1647 C1652 1.350 . S
C1647 N1655 1.427 . S
C1648 H1639 0.930 . S
C1648 C1646 1.378 . S
C1648 C1649 1.367 . S
C1649 C1648 1.367 . S
C1649 C1651 1.433 . S
C1650 C1646 1.350 . S
C1650 C1647 1.463 . S
C1650 N1654 1.427 . S
C1651 H1641 0.929 . S
C1651 C1649 1.433 . S
C1651 N1654 1.384 . S
C1652 H1643 0.929 . S
C1652 C1644 1.378 . S
C1652 C1647 1.350 . S
C1653 H1640 0.929 . S
C1653 C1645 1.433 . S
C1653 N1655 1.384 . S
N1654 C1650 1.427 . S
N1654 C1651 1.384 . S
N1655 C1647 1.427 . S
N1655 C1653 1.384 . S
H1656 C1662 0.930 . S
H1657 C1666 0.930 . S
H1658 C1671 0.929 . S
H1659 C1669 0.929 . S
H1660 C1664 0.929 . S
H1661 C1670 0.929 . S
C1662 H1656 0.930 . S
C1662 C1663 1.367 . S
C1662 C1670 1.378 . S
C1663 C1662 1.367 . S
C1663 C1671 1.433 . S
C1664 H1660 0.929 . S
C1664 C1666 1.378 . S
C1664 C1668 1.350 . S
C1665 C1668 1.463 . S
C1665 C1670 1.350 . S
C1665 N1673 1.427 . S
C1666 H1657 0.930 . S
C1666 C1664 1.378 . S
C1666 C1667 1.367 . S
C1667 C1666 1.367 . S
C1667 C1669 1.433 . S
C1668 C1664 1.350 . S
C1668 C1665 1.463 . S
C1668 N1672 1.427 . S
C1669 H1659 0.929 . S
C1669 C1667 1.433 . S
C1669 N1672 1.384 . S
C1670 H1661 0.929 . S
C1670 C1662 1.378 . S
C1670 C1665 1.350 . S
C1671 H1658 0.929 . S
C1671 C1663 1.433 . S
C1671 N1673 1.384 . S
N1672 C1668 1.427 . S
N1672 C1669 1.384 . S
N1673 C1665 1.427 . S
N1673 C1671 1.384 . S
H1674 C1680 0.930 . S
H1675 C1684 0.930 . S
H1676 C1689 0.929 . S
H1677 C1687 0.929 . S
H1678 C1682 0.929 . S
H1679 C1688 0.929 . S
C1680 H1674 0.930 . S
C1680 C1681 1.367 . S
C1680 C1688 1.378 . S
C1681 C1680 1.367 . S
C1681 C1689 1.433 . S
C1682 H1678 0.929 . S
C1682 C1684 1.378 . S
C1682 C1686 1.350 . S
C1683 C1686 1.463 . S
C1683 C1688 1.350 . S
C1683 N1691 1.427 . S
C1684 H1675 0.930 . S
C1684 C1682 1.378 . S
C1684 C1685 1.367 . S
C1685 C1684 1.367 . S
C1685 C1687 1.433 . S
C1686 C1682 1.350 . S
C1686 C1683 1.463 . S
C1686 N1690 1.427 . S
C1687 H1677 0.929 . S
C1687 C1685 1.433 . S
C1687 N1690 1.384 . S
C1688 H1679 0.929 . S
C1688 C1680 1.378 . S
C1688 C1683 1.350 . S
C1689 H1676 0.929 . S
C1689 C1681 1.433 . S
C1689 N1691 1.384 . S
N1690 C1686 1.427 . S
N1690 C1687 1.384 . S
N1691 C1683 1.427 . S
N1691 C1689 1.384 . S
H1692 C1698 0.930 . S
H1693 C1702 0.930 . S
H1694 C1707 0.929 . S
H1695 C1705 0.929 . S
H1696 C1700 0.929 . S
H1697 C1706 0.929 . S
C1698 H1692 0.930 . S
C1698 C1699 1.367 . S
C1698 C1706 1.378 . S
C1699 C1698 1.367 . S
C1699 C1707 1.433 . S
C1700 H1696 0.929 . S
C1700 C1702 1.378 . S
C1700 C1704 1.350 . S
C1701 C1704 1.463 . S
C1701 C1706 1.350 . S
C1701 N1709 1.427 . S
C1702 H1693 0.930 . S
C1702 C1700 1.378 . S
C1702 C1703 1.367 . S
C1703 C1702 1.367 . S
C1703 C1705 1.433 . S
C1704 C1700 1.350 . S
C1704 C1701 1.463 . S
C1704 N1708 1.427 . S
C1705 H1695 0.929 . S
C1705 C1703 1.433 . S
C1705 N1708 1.384 . S
C1706 H1697 0.929 . S
C1706 C1698 1.378 . S
C1706 C1701 1.350 . S
C1707 H1694 0.929 . S
C1707 C1699 1.433 . S
C1707 N1709 1.384 . S
N1708 C1704 1.427 . S
N1708 C1705 1.384 . S
N1709 C1701 1.427 . S
N1709 C1707 1.384 . S
H1710 C1716 0.930 . S
H1711 C1720 0.930 . S
H1712 C1725 0.929 . S
H1713 C1723 0.929 . S
H1714 C1718 0.929 . S
H1715 C1724 0.929 . S
C1716 H1710 0.930 . S
C1716 C1717 1.367 . S
C1716 C1724 1.378 . S
C1717 C1716 1.367 . S
C1717 C1725 1.433 . S
C1718 H1714 0.929 . S
C1718 C1720 1.378 . S
C1718 C1722 1.350 . S
C1719 C1722 1.463 . S
C1719 C1724 1.350 . S
C1719 N1727 1.427 . S
C1720 H1711 0.930 . S
C1720 C1718 1.378 . S
C1720 C1721 1.367 . S
C1721 C1720 1.367 . S
C1721 C1723 1.433 . S
C1722 C1718 1.350 . S
C1722 C1719 1.463 . S
C1722 N1726 1.427 . S
C1723 H1713 0.929 . S
C1723 C1721 1.433 . S
C1723 N1726 1.384 . S
C1724 H1715 0.929 . S
C1724 C1716 1.378 . S
C1724 C1719 1.350 . S
C1725 H1712 0.929 . S
C1725 C1717 1.433 . S
C1725 N1727 1.384 . S
N1726 C1722 1.427 . S
N1726 C1723 1.384 . S
N1727 C1719 1.427 . S
N1727 C1725 1.384 . S
H1728 C1734 0.930 . S
H1729 C1738 0.930 . S
H1730 C1743 0.929 . S
H1731 C1741 0.929 . S
H1732 C1736 0.929 . S
H1733 C1742 0.929 . S
C1734 H1728 0.930 . S
C1734 C1735 1.367 . S
C1734 C1742 1.378 . S
C1735 C1734 1.367 . S
C1735 C1743 1.433 . S
C1736 H1732 0.929 . S
C1736 C1738 1.378 . S
C1736 C1740 1.350 . S
C1737 C1740 1.463 . S
C1737 C1742 1.350 . S
C1737 N1745 1.427 . S
C1738 H1729 0.930 . S
C1738 C1736 1.378 . S
C1738 C1739 1.367 . S
C1739 C1738 1.367 . S
C1739 C1741 1.433 . S
C1740 C1736 1.350 . S
C1740 C1737 1.463 . S
C1740 N1744 1.427 . S
C1741 H1731 0.929 . S
C1741 C1739 1.433 . S
C1741 N1744 1.384 . S
C1742 H1733 0.929 . S
C1742 C1734 1.378 . S
C1742 C1737 1.350 . S
C1743 H1730 0.929 . S
C1743 C1735 1.433 . S
C1743 N1745 1.384 . S
N1744 C1740 1.427 . S
N1744 C1741 1.384 . S
N1745 C1737 1.427 . S
N1745 C1743 1.384 . S
H1746 C1752 0.930 . S
H1747 C1756 0.930 . S
H1748 C1761 0.929 . S
H1749 C1759 0.929 . S
H1750 C1754 0.929 . S
H1751 C1760 0.929 . S
C1752 H1746 0.930 . S
C1752 C1753 1.367 . S
C1752 C1760 1.378 . S
C1753 C1752 1.367 . S
C1753 C1761 1.433 . S
C1754 H1750 0.929 . S
C1754 C1756 1.378 . S
C1754 C1758 1.350 . S
C1755 C1758 1.463 . S
C1755 C1760 1.350 . S
C1755 N1763 1.427 . S
C1756 H1747 0.930 . S
C1756 C1754 1.378 . S
C1756 C1757 1.367 . S
C1757 C1756 1.367 . S
C1757 C1759 1.433 . S
C1758 C1754 1.350 . S
C1758 C1755 1.463 . S
C1758 N1762 1.427 . S
C1759 H1749 0.929 . S
C1759 C1757 1.433 . S
C1759 N1762 1.384 . S
C1760 H1751 0.929 . S
C1760 C1752 1.378 . S
C1760 C1755 1.350 . S
C1761 H1748 0.929 . S
C1761 C1753 1.433 . S
C1761 N1763 1.384 . S
N1762 C1758 1.427 . S
N1762 C1759 1.384 . S
N1763 C1755 1.427 . S
N1763 C1761 1.384 . S
H1764 C1770 0.930 . S
H1765 C1774 0.930 . S
H1766 C1779 0.929 . S
H1767 C1777 0.929 . S
H1768 C1772 0.929 . S
H1769 C1778 0.929 . S
C1770 H1764 0.930 . S
C1770 C1771 1.367 . S
C1770 C1778 1.378 . S
C1771 C1770 1.367 . S
C1771 C1779 1.433 . S
C1772 H1768 0.929 . S
C1772 C1774 1.378 . S
C1772 C1776 1.350 . S
C1773 C1776 1.463 . S
C1773 C1778 1.350 . S
C1773 N1781 1.427 . S
C1774 H1765 0.930 . S
C1774 C1772 1.378 . S
C1774 C1775 1.367 . S
C1775 C1774 1.367 . S
C1775 C1777 1.433 . S
C1776 C1772 1.350 . S
C1776 C1773 1.463 . S
C1776 N1780 1.427 . S
C1777 H1767 0.929 . S
C1777 C1775 1.433 . S
C1777 N1780 1.384 . S
C1778 H1769 0.929 . S
C1778 C1770 1.378 . S
C1778 C1773 1.350 . S
C1779 H1766 0.929 . S
C1779 C1771 1.433 . S
C1779 N1781 1.384 . S
N1780 C1776 1.427 . S
N1780 C1777 1.384 . S
N1781 C1773 1.427 . S
N1781 C1779 1.384 . S
H1782 C1788 0.930 . S
H1783 C1792 0.930 . S
H1784 C1797 0.929 . S
H1785 C1795 0.929 . S
H1786 C1790 0.929 . S
H1787 C1796 0.929 . S
C1788 H1782 0.930 . S
C1788 C1789 1.367 . S
C1788 C1796 1.378 . S
C1789 C1788 1.367 . S
C1789 C1797 1.433 . S
C1790 H1786 0.929 . S
C1790 C1792 1.378 . S
C1790 C1794 1.350 . S
C1791 C1794 1.463 . S
C1791 C1796 1.350 . S
C1791 N1799 1.427 . S
C1792 H1783 0.930 . S
C1792 C1790 1.378 . S
C1792 C1793 1.367 . S
C1793 C1792 1.367 . S
C1793 C1795 1.433 . S
C1794 C1790 1.350 . S
C1794 C1791 1.463 . S
C1794 N1798 1.427 . S
C1795 H1785 0.929 . S
C1795 C1793 1.433 . S
C1795 N1798 1.384 . S
C1796 H1787 0.929 . S
C1796 C1788 1.378 . S
C1796 C1791 1.350 . S
C1797 H1784 0.929 . S
C1797 C1789 1.433 . S
C1797 N1799 1.384 . S
N1798 C1794 1.427 . S
N1798 C1795 1.384 . S
N1799 C1791 1.427 . S
N1799 C1797 1.384 . S
H1800 C1806 0.930 . S
H1801 C1810 0.930 . S
H1802 C1815 0.929 . S
H1803 C1813 0.929 . S
H1804 C1808 0.929 . S
H1805 C1814 0.929 . S
C1806 H1800 0.930 . S
C1806 C1807 1.367 . S
C1806 C1814 1.378 . S
C1807 C1806 1.367 . S
C1807 C1815 1.433 . S
C1808 H1804 0.929 . S
C1808 C1810 1.378 . S
C1808 C1812 1.350 . S
C1809 C1812 1.463 . S
C1809 C1814 1.350 . S
C1809 N1817 1.427 . S
C1810 H1801 0.930 . S
C1810 C1808 1.378 . S
C1810 C1811 1.367 . S
C1811 C1810 1.367 . S
C1811 C1813 1.433 . S
C1812 C1808 1.350 . S
C1812 C1809 1.463 . S
C1812 N1816 1.427 . S
C1813 H1803 0.929 . S
C1813 C1811 1.433 . S
C1813 N1816 1.384 . S
C1814 H1805 0.929 . S
C1814 C1806 1.378 . S
C1814 C1809 1.350 . S
C1815 H1802 0.929 . S
C1815 C1807 1.433 . S
C1815 N1817 1.384 . S
N1816 C1812 1.427 . S
N1816 C1813 1.384 . S
N1817 C1809 1.427 . S
N1817 C1815 1.384 . S
H1818 C1824 0.930 . S
H1819 C1828 0.930 . S
H1820 C1833 0.929 . S
H1821 C1831 0.929 . S
H1822 C1826 0.929 . S
H1823 C1832 0.929 . S
C1824 H1818 0.930 . S
C1824 C1825 1.367 . S
C1824 C1832 1.378 . S
C1825 C1824 1.367 . S
C1825 C1833 1.433 . S
C1826 H1822 0.929 . S
C1826 C1828 1.378 . S
C1826 C1830 1.350 . S
C1827 C1830 1.463 . S
C1827 C1832 1.350 . S
C1827 N1835 1.427 . S
C1828 H1819 0.930 . S
C1828 C1826 1.378 . S
C1828 C1829 1.367 . S
C1829 C1828 1.367 . S
C1829 C1831 1.433 . S
C1830 C1826 1.350 . S
C1830 C1827 1.463 . S
C1830 N1834 1.427 . S
C1831 H1821 0.929 . S
C1831 C1829 1.433 . S
C1831 N1834 1.384 . S
C1832 H1823 0.929 . S
C1832 C1824 1.378 . S
C1832 C1827 1.350 . S
C1833 H1820 0.929 . S
C1833 C1825 1.433 . S
C1833 N1835 1.384 . S
N1834 C1830 1.427 . S
N1834 C1831 1.384 . S
N1835 C1827 1.427 . S
N1835 C1833 1.384 . S
H1836 C1842 0.930 . S
H1837 C1846 0.930 . S
H1838 C1851 0.929 . S
H1839 C1849 0.929 . S
H1840 C1844 0.929 . S
H1841 C1850 0.929 . S
C1842 H1836 0.930 . S
C1842 C1843 1.367 . S
C1842 C1850 1.378 . S
C1843 C1842 1.367 . S
C1843 C1851 1.433 . S
C1844 H1840 0.929 . S
C1844 C1846 1.378 . S
C1844 C1848 1.350 . S
C1845 C1848 1.463 . S
C1845 C1850 1.350 . S
C1845 N1853 1.427 . S
C1846 H1837 0.930 . S
C1846 C1844 1.378 . S
C1846 C1847 1.367 . S
C1847 C1846 1.367 . S
C1847 C1849 1.433 . S
C1848 C1844 1.350 . S
C1848 C1845 1.463 . S
C1848 N1852 1.427 . S
C1849 H1839 0.929 . S
C1849 C1847 1.433 . S
C1849 N1852 1.384 . S
C1850 H1841 0.929 . S
C1850 C1842 1.378 . S
C1850 C1845 1.350 . S
C1851 H1838 0.929 . S
C1851 C1843 1.433 . S
C1851 N1853 1.384 . S
N1852 C1848 1.427 . S
N1852 C1849 1.384 . S
N1853 C1845 1.427 . S
N1853 C1851 1.384 . S
H1854 C1860 0.930 . S
H1855 C1864 0.930 . S
H1856 C1869 0.929 . S
H1857 C1867 0.929 . S
H1858 C1862 0.929 . S
H1859 C1868 0.929 . S
C1860 H1854 0.930 . S
C1860 C1861 1.367 . S
C1860 C1868 1.378 . S
C1861 C1860 1.367 . S
C1861 C1869 1.433 . S
C1862 H1858 0.929 . S
C1862 C1864 1.378 . S
C1862 C1866 1.350 . S
C1863 C1866 1.463 . S
C1863 C1868 1.350 . S
C1863 N1871 1.427 . S
C1864 H1855 0.930 . S
C1864 C1862 1.378 . S
C1864 C1865 1.367 . S
C1865 C1864 1.367 . S
C1865 C1867 1.433 . S
C1866 C1862 1.350 . S
C1866 C1863 1.463 . S
C1866 N1870 1.427 . S
C1867 H1857 0.929 . S
C1867 C1865 1.433 . S
C1867 N1870 1.384 . S
C1868 H1859 0.929 . S
C1868 C1860 1.378 . S
C1868 C1863 1.350 . S
C1869 H1856 0.929 . S
C1869 C1861 1.433 . S
C1869 N1871 1.384 . S
N1870 C1866 1.427 . S
N1870 C1867 1.384 . S
N1871 C1863 1.427 . S
N1871 C1869 1.384 . S
H1872 C1878 0.930 . S
H1873 C1882 0.930 . S
H1874 C1887 0.929 . S
H1875 C1885 0.929 . S
H1876 C1880 0.929 . S
H1877 C1886 0.929 . S
C1878 H1872 0.930 . S
C1878 C1879 1.367 . S
C1878 C1886 1.378 . S
C1879 C1878 1.367 . S
C1879 C1887 1.433 . S
C1880 H1876 0.929 . S
C1880 C1882 1.378 . S
C1880 C1884 1.350 . S
C1881 C1884 1.463 . S
C1881 C1886 1.350 . S
C1881 N1889 1.427 . S
C1882 H1873 0.930 . S
C1882 C1880 1.378 . S
C1882 C1883 1.367 . S
C1883 C1882 1.367 . S
C1883 C1885 1.433 . S
C1884 C1880 1.350 . S
C1884 C1881 1.463 . S
C1884 N1888 1.427 . S
C1885 H1875 0.929 . S
C1885 C1883 1.433 . S
C1885 N1888 1.384 . S
C1886 H1877 0.929 . S
C1886 C1878 1.378 . S
C1886 C1881 1.350 . S
C1887 H1874 0.929 . S
C1887 C1879 1.433 . S
C1887 N1889 1.384 . S
N1888 C1884 1.427 . S
N1888 C1885 1.384 . S
N1889 C1881 1.427 . S
N1889 C1887 1.384 . S
H1890 C1896 0.930 . S
H1891 C1900 0.930 . S
H1892 C1905 0.929 . S
H1893 C1903 0.929 . S
H1894 C1898 0.929 . S
H1895 C1904 0.929 . S
C1896 H1890 0.930 . S
C1896 C1897 1.367 . S
C1896 C1904 1.378 . S
C1897 C1896 1.367 . S
C1897 C1905 1.433 . S
C1898 H1894 0.929 . S
C1898 C1900 1.378 . S
C1898 C1902 1.350 . S
C1899 C1902 1.463 . S
C1899 C1904 1.350 . S
C1899 N1907 1.427 . S
C1900 H1891 0.930 . S
C1900 C1898 1.378 . S
C1900 C1901 1.367 . S
C1901 C1900 1.367 . S
C1901 C1903 1.433 . S
C1902 C1898 1.350 . S
C1902 C1899 1.463 . S
C1902 N1906 1.427 . S
C1903 H1893 0.929 . S
C1903 C1901 1.433 . S
C1903 N1906 1.384 . S
C1904 H1895 0.929 . S
C1904 C1896 1.378 . S
C1904 C1899 1.350 . S
C1905 H1892 0.929 . S
C1905 C1897 1.433 . S
C1905 N1907 1.384 . S
N1906 C1902 1.427 . S
N1906 C1903 1.384 . S
N1907 C1899 1.427 . S
N1907 C1905 1.384 . S
H1908 C1914 0.930 . S
H1909 C1918 0.930 . S
H1910 C1923 0.929 . S
H1911 C1921 0.929 . S
H1912 C1916 0.929 . S
H1913 C1922 0.929 . S
C1914 H1908 0.930 . S
C1914 C1915 1.367 . S
C1914 C1922 1.378 . S
C1915 C1914 1.367 . S
C1915 C1923 1.433 . S
C1916 H1912 0.929 . S
C1916 C1918 1.378 . S
C1916 C1920 1.350 . S
C1917 C1920 1.463 . S
C1917 C1922 1.350 . S
C1917 N1925 1.427 . S
C1918 H1909 0.930 . S
C1918 C1916 1.378 . S
C1918 C1919 1.367 . S
C1919 C1918 1.367 . S
C1919 C1921 1.433 . S
C1920 C1916 1.350 . S
C1920 C1917 1.463 . S
C1920 N1924 1.427 . S
C1921 H1911 0.929 . S
C1921 C1919 1.433 . S
C1921 N1924 1.384 . S
C1922 H1913 0.929 . S
C1922 C1914 1.378 . S
C1922 C1917 1.350 . S
C1923 H1910 0.929 . S
C1923 C1915 1.433 . S
C1923 N1925 1.384 . S
N1924 C1920 1.427 . S
N1924 C1921 1.384 . S
N1925 C1917 1.427 . S
N1925 C1923 1.384 . S
C961 C147 1.454 . S
C965 C265 1.389 . S
C979 C158 1.480 . S
C983 C349 1.427 . S
C997 C136 1.450 . S
C1001 C429 1.443 . S
C1015 C125 1.431 . S
C1019 C345 1.422 1_556 S
C1037 C433 1.372 . S
C1033 C103 1.438 . S
C1051 C114 1.405 . S
C1055 C261 1.404 1_556 S
C1073 C254 1.440 . S
C1069 C131 1.502 . S
C1091 C338 1.462 . S
C1087 C109 1.528 . S
C1105 C120 1.513 . S
C1109 C440 1.475 1_556 S
C1123 C153 1.493 . S
C1127 C356 1.453 . S
C1141 C164 1.474 . S
C1145 C422 1.426 . S
C1163 C272 1.437 . S
C1159 C142 1.474 . S
C1181 C517 1.395 . S
C1177 C15 1.452 . S
C1195 C26 1.476 . S
C1199 C601 1.429 . S
C1213 C4 1.446 . S
C1217 C681 1.437 . S
C1231 C191 1.426 . S
C1235 C597 1.426 . S
C1249 C169 1.438 . S
C1253 C685 1.372 . S
C1267 C180 1.405 . S
C1271 C513 1.397 . S
C1285 C197 1.499 . S
C1289 C506 1.453 . S
C1303 C175 1.525 . S
C1307 C590 1.475 . S
C1325 C692 1.480 . S
C1321 C186 1.521 . S
C1339 C21 1.489 . S
C1343 C608 1.447 . S
C1361 C674 1.409 . S
C1357 C32 1.480 . S
C1375 C10 1.474 . S
C1379 C524 1.438 . S
C1397 C769 1.390 . S
C1393 C81 1.455 . S
C1411 C92 1.480 . S
C1415 C853 1.419 . S
C1433 C933 1.439 . S
C1429 C70 1.450 . S
C1451 C849 1.428 . S
C1447 C59 1.430 . S
C1469 C937 1.387 . S
C1465 C37 1.433 . S
C1483 C48 1.409 . S
C1487 C765 1.398 . S
C1501 C65 1.502 . S
C1505 C758 1.451 . S
C1519 C43 1.525 . S
C1523 C842 1.466 . S
C1541 C944 1.483 . S
C1537 C54 1.514 . S
C1555 C87 1.493 . S
C1559 C860 1.454 . S
C1573 C98 1.475 . S
C1577 C926 1.415 . S
C1591 C76 1.472 . S
C1595 C776 1.429 . S
C1609 C170 1.553 . S
C1613 C268 1.435 . S
C1631 C352 1.464 . S
C1627 C181 1.617 . S
C1645 C192 1.561 . S
C1649 C424 1.388 . S
C1663 C71 1.590 . S
C1667 C340 1.398 . S
C1681 C82 1.579 . S
C1685 C436 1.450 . S
C1703 C256 1.378 . S
C1699 C93 1.529 . S
C1717 C38 1.555 . S
C1721 C520 1.432 . S
C1735 C49 1.620 . S
C1739 C604 1.474 . S
C1753 C60 1.560 . S
C1757 C676 1.376 . S
C1771 C137 1.587 . S
C1775 C592 1.385 . S
C1793 C688 1.436 . S
C1789 C148 1.576 . S
C1807 C159 1.529 . S
C1811 C508 1.377 . S
C1825 C104 1.556 . S
C1829 C772 1.431 . S
C1843 C115 1.617 . S
C1847 C856 1.464 . S
C1865 C928 1.391 . S
C1861 C126 1.568 . S
C1879 C5 1.590 . S
C1883 C844 1.406 . S
C1897 C16 1.579 . S
C1901 C940 1.433 . S
C1915 C27 1.528 . S
C1919 C760 1.377 . S
