# Generated by pormake.
# Topology apo, (3,6)-cn, num edge types: 1
# Building blocks:
#     Node 0, Type 0, BuildingBlock: QEWDON_clean_linker_0, # of connection points: 3
#     Node 1, Type 0, BuildingBlock: QEWDON_clean_linker_0, # of connection points: 3
#     Node 2, Type 0, BuildingBlock: QEWDON_clean_linker_0, # of connection points: 3
#     Node 3, Type 0, BuildingBlock: QEWDON_clean_linker_0, # of connection points: 3
#     Node 4, Type 0, BuildingBlock: QEWDON_clean_linker_0, # of connection points: 3
#     Node 5, Type 0, BuildingBlock: QEWDON_clean_linker_0, # of connection points: 3
#     Node 6, Type 0, BuildingBlock: QEWDON_clean_linker_0, # of connection points: 3
#     Node 7, Type 0, BuildingBlock: QEWDON_clean_linker_0, # of connection points: 3
#     Node 8, Type 1, BuildingBlock: KUMJIN_clean_sbu_1, # of connection points: 6
#     Node 9, Type 1, BuildingBlock: KUMJIN_clean_sbu_1, # of connection points: 6
#     Node 10, Type 1, BuildingBlock: KUMJIN_clean_sbu_1, # of connection points: 6
#     Node 11, Type 1, BuildingBlock: KUMJIN_clean_sbu_1, # of connection points: 6
#     Edge 12, Type (0, 1), BuildingBlock: KIFKEQ_clean_linker_1, # of connection points: 2
#     Edge 13, Type (0, 1), BuildingBlock: KIFKEQ_clean_linker_1, # of connection points: 2
#     Edge 14, Type (0, 1), BuildingBlock: KIFKEQ_clean_linker_1, # of connection points: 2
#     Edge 15, Type (0, 1), BuildingBlock: KIFKEQ_clean_linker_1, # of connection points: 2
#     Edge 16, Type (0, 1), BuildingBlock: KIFKEQ_clean_linker_1, # of connection points: 2
#     Edge 17, Type (0, 1), BuildingBlock: KIFKEQ_clean_linker_1, # of connection points: 2
#     Edge 18, Type (0, 1), BuildingBlock: KIFKEQ_clean_linker_1, # of connection points: 2
#     Edge 19, Type (0, 1), BuildingBlock: KIFKEQ_clean_linker_1, # of connection points: 2
#     Edge 20, Type (0, 1), BuildingBlock: KIFKEQ_clean_linker_1, # of connection points: 2
#     Edge 21, Type (0, 1), BuildingBlock: KIFKEQ_clean_linker_1, # of connection points: 2
#     Edge 22, Type (0, 1), BuildingBlock: KIFKEQ_clean_linker_1, # of connection points: 2
#     Edge 23, Type (0, 1), BuildingBlock: KIFKEQ_clean_linker_1, # of connection points: 2
#     Edge 24, Type (0, 1), BuildingBlock: KIFKEQ_clean_linker_1, # of connection points: 2
#     Edge 25, Type (0, 1), BuildingBlock: KIFKEQ_clean_linker_1, # of connection points: 2
#     Edge 26, Type (0, 1), BuildingBlock: KIFKEQ_clean_linker_1, # of connection points: 2
#     Edge 27, Type (0, 1), BuildingBlock: KIFKEQ_clean_linker_1, # of connection points: 2
#     Edge 28, Type (0, 1), BuildingBlock: KIFKEQ_clean_linker_1, # of connection points: 2
#     Edge 29, Type (0, 1), BuildingBlock: KIFKEQ_clean_linker_1, # of connection points: 2
#     Edge 30, Type (0, 1), BuildingBlock: KIFKEQ_clean_linker_1, # of connection points: 2
#     Edge 31, Type (0, 1), BuildingBlock: KIFKEQ_clean_linker_1, # of connection points: 2
#     Edge 32, Type (0, 1), BuildingBlock: KIFKEQ_clean_linker_1, # of connection points: 2
#     Edge 33, Type (0, 1), BuildingBlock: KIFKEQ_clean_linker_1, # of connection points: 2
#     Edge 34, Type (0, 1), BuildingBlock: KIFKEQ_clean_linker_1, # of connection points: 2
#     Edge 35, Type (0, 1), BuildingBlock: KIFKEQ_clean_linker_1, # of connection points: 2
# Relax obj value: 0.074
# Max RMSD: 0.259
# Mean RMSD: 0.207
data_MOF--net-apo--node1-KUMJIN_clean_sbu_1--node2-QEWDON_clean_linker_0--edge1-KIFKEQ_clean_linker_1
_symmetry_space_group_name_H-M    P1
_symmetry_Int_Tables_number       1
_symmetry_cell_setting            triclinic
loop_
_symmetry_equiv_pos_as_xyz
'x, y, z'
_cell_length_a     30.154648
_cell_length_b     43.412188
_cell_length_c     52.515936
_cell_angle_alpha  90.002833
_cell_angle_beta   89.975123
_cell_angle_gamma 90.549531
loop_
_atom_site_label
_atom_site_type_symbol
_atom_site_fract_x
_atom_site_fract_y
_atom_site_fract_z
_atom_type_partial_charge
H0 H 0.28849 0.40959 0.37705 0.0
C1 C 0.30207 0.41077 0.39613 0.0
C2 C 0.34165 0.42742 0.40077 0.0
C3 C 0.27839 0.39717 0.41632 0.0
H4 H 0.38775 0.44244 0.42978 0.0
C5 C 0.35782 0.42929 0.4259 0.0
C6 C 0.33463 0.41571 0.44633 0.0
C7 C 0.29498 0.39957 0.44126 0.0
C8 C 0.2326 0.38549 0.41229 0.0
H9 H 0.27559 0.39021 0.45689 0.0
C10 C 0.22337 0.35835 0.39836 0.0
C11 C 0.17914 0.34758 0.39581 0.0
C12 C 0.19752 0.40206 0.42303 0.0
H13 H 0.20395 0.42302 0.43368 0.0
C14 C 0.1539 0.39202 0.41996 0.0
H15 H 0.25045 0.3453 0.39032 0.0
C16 C 0.1447 0.36507 0.4065 0.0
H17 H 0.11037 0.358 0.40434 0.0
H18 H 0.12705 0.40514 0.42812 0.0
H19 H 0.24826 0.12755 0.8823 0.0
C20 C 0.23159 0.1277 0.9006 0.0
C21 C 0.19146 0.11138 0.90369 0.0
C22 C 0.25138 0.14287 0.92139 0.0
H23 H 0.13998 0.09805 0.92994 0.0
C24 C 0.17075 0.11085 0.92766 0.0
C25 C 0.19062 0.12514 0.94889 0.0
C26 C 0.23076 0.1414 0.94541 0.0
C27 C 0.29612 0.15713 0.91893 0.0
H28 H 0.24716 0.15192 0.96163 0.0
C29 C 0.30553 0.17974 0.90033 0.0
C30 C 0.34854 0.1927 0.89839 0.0
C31 C 0.33 0.14768 0.93545 0.0
H32 H 0.32369 0.13019 0.94976 0.0
C33 C 0.37249 0.16032 0.9335 0.0
H34 H 0.27959 0.18722 0.88753 0.0
C35 C 0.38178 0.18263 0.91513 0.0
H36 H 0.41494 0.19241 0.91429 0.0
H37 H 0.39835 0.15284 0.94632 0.0
H38 H 0.76812 0.13633 0.65547 0.0
C39 C 0.78113 0.13578 0.63624 0.0
C40 C 0.82019 0.1195 0.63096 0.0
C41 C 0.75735 0.14998 0.61658 0.0
H42 H 0.86604 0.10609 0.60147 0.0
C43 C 0.8362 0.11877 0.60575 0.0
C44 C 0.81299 0.13311 0.58582 0.0
C45 C 0.77349 0.14862 0.59152 0.0
C46 C 0.71305 0.16308 0.62169 0.0
H47 H 0.7542 0.15877 0.57632 0.0
C48 C 0.70691 0.18588 0.64042 0.0
C49 C 0.66415 0.19714 0.64554 0.0
C50 C 0.67619 0.15186 0.60807 0.0
H51 H 0.6801 0.13418 0.5937 0.0
C52 C 0.63384 0.16284 0.61323 0.0
H53 H 0.73518 0.19478 0.65094 0.0
C54 C 0.62775 0.18525 0.63189 0.0
H55 H 0.59461 0.19371 0.63536 0.0
H56 H 0.60562 0.15395 0.60272 0.0
H57 H 0.77075 0.40939 0.15188 0.0
C58 C 0.75683 0.40765 0.13289 0.0
C59 C 0.72058 0.42598 0.12616 0.0
C60 C 0.77759 0.38924 0.11453 0.0
H61 H 0.67668 0.4397 0.0959 0.0
C62 C 0.70425 0.42513 0.1011 0.0
C63 C 0.72384 0.40602 0.08268 0.0
C64 C 0.76058 0.3882 0.08965 0.0
C65 C 0.82101 0.37514 0.12005 0.0
H66 H 0.77747 0.3746 0.07537 0.0
C67 C 0.82596 0.35263 0.13913 0.0
C68 C 0.86819 0.34054 0.1444 0.0
C69 C 0.85837 0.3852 0.10627 0.0
H70 H 0.85527 0.40258 0.09158 0.0
C71 C 0.90016 0.37341 0.11161 0.0
H72 H 0.79727 0.34461 0.14976 0.0
C73 C 0.90514 0.35131 0.13062 0.0
H74 H 0.93785 0.34219 0.13428 0.0
H75 H 0.92879 0.38141 0.10098 0.0
H76 H 0.68438 0.65359 0.65637 0.0
C77 C 0.68353 0.64722 0.63642 0.0
C78 C 0.66588 0.61838 0.62917 0.0
C79 C 0.69607 0.66893 0.61783 0.0
H80 H 0.64727 0.58932 0.59763 0.0
C81 C 0.66212 0.61115 0.60311 0.0
C82 C 0.67547 0.63226 0.58422 0.0
C83 C 0.69304 0.66092 0.59191 0.0
C84 C 0.70454 0.70164 0.62483 0.0
H85 H 0.70319 0.67768 0.57772 0.0
C86 C 0.73741 0.71062 0.64262 0.0
C87 C 0.7431 0.74207 0.64893 0.0
C88 C 0.67793 0.72433 0.61357 0.0
H89 H 0.65223 0.71803 0.60007 0.0
C90 C 0.68355 0.75525 0.61983 0.0
H91 H 0.7582 0.69342 0.65142 0.0
C92 C 0.71578 0.7641 0.63738 0.0
H93 H 0.71975 0.78836 0.64176 0.0
H94 H 0.66278 0.77246 0.61105 0.0
H95 H 0.85184 0.87769 0.15397 0.0
C96 C 0.85109 0.88469 0.13416 0.0
C97 C 0.86409 0.91483 0.1274 0.0
C98 C 0.84117 0.86283 0.11515 0.0
H99 H 0.87526 0.94652 0.09646 0.0
C100 C 0.86538 0.92325 0.10156 0.0
C101 C 0.85471 0.90192 0.08234 0.0
C102 C 0.84238 0.87182 0.08939 0.0
C103 C 0.83641 0.82961 0.12149 0.0
H104 H 0.83577 0.85479 0.07474 0.0
C105 C 0.80435 0.8185 0.13893 0.0
C106 C 0.80044 0.78653 0.14389 0.0
C107 C 0.86476 0.80862 0.10945 0.0
H108 H 0.88994 0.81659 0.09621 0.0
C109 C 0.86117 0.77722 0.11436 0.0
H110 H 0.78248 0.83457 0.14833 0.0
C111 C 0.82922 0.7662 0.13128 0.0
H112 H 0.82656 0.74154 0.13408 0.0
H113 H 0.88303 0.76129 0.10483 0.0
H114 H 0.18713 0.87348 0.37099 0.0
C115 C 0.18506 0.87587 0.39149 0.0
C116 C 0.17377 0.90445 0.40235 0.0
C117 C 0.18971 0.84962 0.4069 0.0
H118 H 0.16075 0.92838 0.43766 0.0
C119 C 0.16891 0.90651 0.42898 0.0
C120 C 0.17331 0.88044 0.44458 0.0
C121 C 0.18415 0.85217 0.43336 0.0
C122 C 0.19326 0.81863 0.39531 0.0
H123 H 0.18597 0.83165 0.44508 0.0
C124 C 0.2295 0.81044 0.37982 0.0
C125 C 0.23177 0.78059 0.36924 0.0
C126 C 0.15946 0.79688 0.40002 0.0
H127 H 0.13124 0.80275 0.41178 0.0
C128 C 0.16146 0.76751 0.38947 0.0
H129 H 0.25574 0.8271 0.37616 0.0
C130 C 0.19729 0.75936 0.37422 0.0
H131 H 0.19841 0.73616 0.36666 0.0
H132 H 0.13525 0.75092 0.39323 0.0
H133 H 0.32749 0.65699 0.87095 0.0
C134 C 0.32823 0.65355 0.8914 0.0
C135 C 0.3368 0.6242 0.90146 0.0
C136 C 0.32242 0.67884 0.90753 0.0
H137 H 0.34649 0.598 0.93591 0.0
C138 C 0.33838 0.62035 0.92811 0.0
C139 C 0.33248 0.64564 0.9446 0.0
C140 C 0.32421 0.67479 0.93395 0.0
C141 C 0.31981 0.71014 0.89676 0.0
H142 H 0.31954 0.69464 0.94614 0.0
C143 C 0.28171 0.72003 0.88382 0.0
C144 C 0.2807 0.74963 0.87292 0.0
C145 C 0.35656 0.73003 0.89899 0.0
H146 H 0.38614 0.72271 0.90892 0.0
C147 C 0.3557 0.75929 0.88804 0.0
H148 H 0.25316 0.70479 0.88217 0.0
C149 C 0.3181 0.76903 0.87496 0.0
H150 H 0.3179 0.79194 0.86678 0.0
H151 H 0.38425 0.77446 0.88969 0.0
Eu152 Eu 0.07202 0.12331 0.24432 0.0
C153 C 0.88841 0.0787 0.27726 0.0
N154 N 0.90326 0.10841 0.27707 0.0
C155 C 0.83654 0.12465 0.25658 0.0
C156 C 0.84701 0.07078 0.26653 0.0
C157 C 0.87792 0.13141 0.26733 0.0
C158 C 0.82109 0.0942 0.25607 0.0
C159 C 0.90074 0.02512 0.28813 0.0
C160 C 0.91523 0.05611 0.28783 0.0
C161 C 0.85982 0.01709 0.27707 0.0
C162 C 0.83302 0.03985 0.26634 0.0
Eu163 Eu 0.97315 0.11762 0.29576 0.0
N164 N 0.95506 0.06447 0.29811 0.0
C165 C 0.92743 1.00318 0.29998 0.0
C166 C 0.97916 0.04363 0.31154 0.0
C167 C 0.96642 1.01259 0.31213 0.0
H168 H 0.88947 0.15501 0.26801 0.0
H169 H 0.98621 0.99606 0.32243 0.0
H170 H 0.14778 0.0688 0.25604 0.0
H171 H 0.09097 0.24847 0.23872 0.0
H172 H 1.00722 0.05093 0.32265 0.0
H173 H 0.91747 0.97915 0.30062 0.0
H174 H 0.05092 0.19885 0.23622 0.0
H175 H 0.81656 0.14292 0.24873 0.0
H176 H 0.84835 0.99336 0.27698 0.0
H177 H 0.80145 0.03329 0.25801 0.0
H178 H 0.22723 0.06578 0.26706 0.0
H179 H 0.78909 0.08904 0.24763 0.0
H180 H 0.1709 0.24962 0.24929 0.0
N181 N 0.14769 0.1177 0.25434 0.0
C182 C 0.17203 0.14419 0.25562 0.0
C183 C 0.21206 0.08797 0.26404 0.0
C184 C 0.21763 0.14351 0.2615 0.0
C185 C 0.16696 0.08977 0.2581 0.0
C186 C 0.23749 0.11495 0.26583 0.0
N187 N 0.10682 0.17222 0.24648 0.0
C188 C 0.08543 0.19903 0.24132 0.0
C189 C 0.17554 0.20003 0.25264 0.0
C190 C 0.15121 0.17218 0.25123 0.0
C191 C 0.15339 0.22773 0.24833 0.0
C192 C 0.10822 0.2272 0.24247 0.0
H193 H 0.27244 0.11347 0.2704 0.0
H194 H 0.27697 0.17113 0.26747 0.0
H195 H 0.24014 0.22057 0.25974 0.0
O196 O 0.05742 0.13341 0.20441 0.0
O197 O 0.08408 0.14912 0.28161 0.0
O198 O 0.01545 0.16092 0.29863 0.0
O199 O 0.11444 0.10604 0.21385 0.0
O200 O 1.00671 0.14748 0.23562 0.0
O201 O 0.9737 0.1621 0.27358 0.0
O202 O 0.96908 0.11045 0.33702 0.0
O203 O 0.96449 0.09906 0.2552 0.0
O204 O 0.03222 0.07902 0.24621 0.0
O205 O 0.92292 0.14079 0.31859 0.0
O206 O 0.04171 0.09983 0.30655 0.0
O207 O 0.07037 0.08066 0.26915 0.0
C208 C 0.05859 0.16528 0.29685 0.0
C209 C 0.07994 0.09631 0.17437 0.0
C210 C 0.08446 0.08372 0.1291 0.0
C211 C 0.06181 0.05584 0.13401 0.0
C212 C 0.05768 0.06836 0.17884 0.0
C213 C 0.04842 0.04833 0.15873 0.0
C214 C 0.09305 0.10405 0.14947 0.0
C215 C 0.98025 0.16537 0.24896 0.0
C216 C 0.09026 0.11725 0.19561 0.0
C217 C 0.24192 0.17123 0.26293 0.0
C218 C 0.22096 0.19939 0.25851 0.0
C219 C 0.98891 0.07779 0.24453 0.0
C220 C 0.89766 0.11427 0.35532 0.0
C221 C 0.86402 0.10522 0.39714 0.0
C222 C 0.82831 0.09006 0.38504 0.0
C223 C 0.8616 0.09913 0.3438 0.0
C224 C 0.89877 0.11726 0.382 0.0
C225 C 0.82727 0.08702 0.3586 0.0
C226 C 0.06827 0.08106 0.29418 0.0
C227 C 0.93399 0.12736 0.33978 0.0
H228 H 0.05427 0.03991 0.11871 0.0
H229 H 0.04789 0.06203 0.19791 0.0
H230 H 0.03109 0.02682 0.16233 0.0
H231 H 0.11081 0.12549 0.14609 0.0
H232 H 0.80062 0.08104 0.39595 0.0
H233 H 0.85963 0.09693 0.32338 0.0
H234 H 0.92677 0.1288 0.3909 0.0
H235 H 0.79948 0.0755 0.34952 0.0
Eu236 Eu 0.45726 0.40893 0.74151 0.0
C237 C 0.62395 0.46736 0.78811 0.0
N238 N 0.61474 0.43714 0.78363 0.0
C239 C 0.68533 0.43097 0.76337 0.0
C240 C 0.6639 0.48089 0.77949 0.0
C241 C 0.64501 0.41866 0.772 0.0
C242 C 0.69467 0.46228 0.76693 0.0
C243 C 0.60154 0.51621 0.80613 0.0
C244 C 0.593 0.48477 0.80117 0.0
C245 C 0.6407 0.53003 0.79692 0.0
C246 C 0.67184 0.5124 0.78368 0.0
Eu247 Eu 0.54639 0.41799 0.79919 0.0
N248 N 0.55551 0.4707 0.80996 0.0
C249 C 0.57103 0.53261 0.8208 0.0
C250 C 0.52783 0.48592 0.82607 0.0
C251 C 0.5344 0.51724 0.83119 0.0
H252 H 0.63795 0.39442 0.76941 0.0
H253 H 0.51168 0.52933 0.84354 0.0
H254 H 0.3734 0.45702 0.75822 0.0
H255 H 0.44483 0.28729 0.71708 0.0
H256 H 0.50139 0.47378 0.83565 0.0
H257 H 0.57634 0.5568 0.82501 0.0
H258 H 0.47898 0.33952 0.71806 0.0
H259 H 0.70912 0.41635 0.75395 0.0
H260 H 0.64763 0.55421 0.80038 0.0
H261 H 0.70216 0.52329 0.77699 0.0
H262 H 0.29903 0.4531 0.77725 0.0
H263 H 0.7258 0.47179 0.76007 0.0
H264 H 0.37213 0.27807 0.73782 0.0
N265 N 0.38334 0.40848 0.75722 0.0
C266 C 0.36353 0.38029 0.75917 0.0
C267 C 0.31709 0.43239 0.77265 0.0
C268 C 0.32027 0.37701 0.76912 0.0
C269 C 0.35977 0.43449 0.76233 0.0
C270 C 0.29756 0.40349 0.77653 0.0
N271 N 0.42647 0.35888 0.73951 0.0
C272 C 0.44717 0.33547 0.72702 0.0
C273 C 0.3648 0.32555 0.74968 0.0
C274 C 0.38538 0.35483 0.7496 0.0
C275 C 0.38688 0.30092 0.73818 0.0
C276 C 0.42794 0.30603 0.72645 0.0
H277 H 0.26429 0.40196 0.78426 0.0
H278 H 0.26746 0.34463 0.7783 0.0
H279 H 0.3065 0.29956 0.76127 0.0
O280 O 0.47774 0.40691 0.70162 0.0
O281 O 0.46884 0.36952 0.76926 0.0
O282 O 0.48053 0.39396 0.80717 0.0
O283 O 0.41132 0.4207 0.71083 0.0
O284 O 0.5274 0.3915 0.73482 0.0
O285 O 0.55515 0.37585 0.77402 0.0
O286 O 0.56414 0.42267 0.83935 0.0
O287 O 0.55964 0.43841 0.75967 0.0
O288 O 0.49179 0.45504 0.74656 0.0
O289 O 0.5844 0.38227 0.8187 0.0
O290 O 0.47541 0.4331 0.80658 0.0
O291 O 0.45026 0.45071 0.76772 0.0
C292 C 0.46429 0.37076 0.79405 0.0
C293 C 0.44253 0.44045 0.67291 0.0
C294 C 0.43095 0.45607 0.62865 0.0
C295 C 0.44763 0.48556 0.63481 0.0
C296 C 0.4587 0.46999 0.67862 0.0
C297 C 0.46139 0.49239 0.65961 0.0
C298 C 0.42874 0.43352 0.64796 0.0
C299 C 0.55236 0.37344 0.74898 0.0
C300 C 0.44011 0.41659 0.69274 0.0
C301 C 0.30047 0.34761 0.77046 0.0
C302 C 0.32265 0.32195 0.76072 0.0
C303 C 0.53498 0.45859 0.74775 0.0
C304 C 0.62996 0.39932 0.85317 0.0
C305 C 0.67194 0.40437 0.89288 0.0
C306 C 0.71139 0.40568 0.8786 0.0
C307 C 0.66979 0.40042 0.83938 0.0
C308 C 0.63123 0.4011 0.87994 0.0
C309 C 0.71022 0.40362 0.85207 0.0
C310 C 0.45022 0.45131 0.79285 0.0
C311 C 0.58668 0.39736 0.84014 0.0
H312 H 0.45051 0.5033 0.62039 0.0
H313 H 0.46916 0.47562 0.69775 0.0
H314 H 0.47422 0.51513 0.6641 0.0
H315 H 0.41574 0.41073 0.64373 0.0
H316 H 0.74326 0.40785 0.88797 0.0
H317 H 0.66975 0.39883 0.81887 0.0
H318 H 0.60047 0.40048 0.89063 0.0
H319 H 0.74082 0.40447 0.84129 0.0
Eu320 Eu 0.05127 0.91501 0.73885 0.0
C321 C 0.8736 0.87024 0.78278 0.0
N322 N 0.88594 0.89998 0.77885 0.0
C323 C 0.8166 0.91017 0.75841 0.0
C324 C 0.83273 0.85884 0.77356 0.0
C325 C 0.85769 0.92032 0.76771 0.0
C326 C 0.80432 0.87919 0.76102 0.0
C327 C 0.88914 0.82069 0.80176 0.0
C328 C 0.90152 0.8515 0.79666 0.0
C329 C 0.84957 0.80869 0.79147 0.0
C330 C 0.82138 0.82775 0.77743 0.0
Eu331 Eu 0.95631 0.91531 0.794 0.0
N332 N 0.93928 0.86394 0.80655 0.0
C333 C 0.91608 0.80323 0.81782 0.0
C334 C 0.96332 0.84787 0.82403 0.0
C335 C 0.95282 0.8171 0.82942 0.0
H336 H 0.8674 0.94421 0.7656 0.0
H337 H 0.97271 0.80425 0.8428 0.0
H338 H 0.12162 0.8576 0.75354 0.0
H339 H 0.09598 0.03543 0.72209 0.0
H340 H 0.99037 0.85874 0.83415 0.0
H341 H 0.90776 0.77949 0.82222 0.0
H342 H 0.05133 0.98748 0.71731 0.0
H343 H 0.79458 0.92618 0.74912 0.0
H344 H 0.83984 0.78496 0.7949 0.0
H345 H 0.79047 0.8184 0.77012 0.0
H346 H 0.19209 0.85103 0.7769 0.0
H347 H 0.77263 0.87133 0.75365 0.0
H348 H 0.16445 0.03514 0.74812 0.0
N349 N 0.12185 0.90626 0.75729 0.0
C350 C 0.14683 0.93165 0.76258 0.0
C351 C 0.17938 0.87388 0.77343 0.0
C352 C 0.18809 0.92921 0.77501 0.0
C353 C 0.13899 0.87761 0.76075 0.0
C354 C 0.20356 0.89984 0.78117 0.0
N355 N 0.09388 0.96102 0.7407 0.0
C356 C 0.08145 0.98731 0.72844 0.0
C357 C 0.15912 0.98653 0.75704 0.0
C358 C 0.13279 0.95987 0.75362 0.0
C359 C 0.14515 1.01413 0.74594 0.0
C360 C 0.10654 1.01438 0.73119 0.0
H361 H 0.23507 0.89693 0.79074 0.0
H362 H 0.24483 0.95462 0.78968 0.0
H363 H 0.2193 1.0049 0.77403 0.0
O364 O 0.03708 0.92036 0.69833 0.0
O365 O 0.04262 0.95497 0.7666 0.0
O366 O 0.02588 0.93108 0.80395 0.0
O367 O 0.09741 0.89838 0.70983 0.0
O368 O 0.98884 0.94118 0.72902 0.0
O369 O 0.95453 0.95651 0.7668 0.0
O370 O 0.92682 0.91525 0.83247 0.0
O371 O 0.94171 0.89938 0.75355 0.0
O372 O 1.00401 0.87392 0.74114 0.0
O373 O 0.9322 0.95805 0.81069 0.0
O374 O 0.02252 0.89257 0.80251 0.0
O375 O 0.04448 0.87234 0.76398 0.0
C376 C 0.04633 0.95301 0.79139 0.0
C377 C 0.06473 0.88191 0.67136 0.0
C378 C 0.07231 0.86441 0.62739 0.0
C379 C 0.04737 0.83787 0.63353 0.0
C380 C 0.04018 0.85521 0.67714 0.0
C381 C 0.03161 0.8333 0.65828 0.0
C382 C 0.08105 0.88634 0.64655 0.0
C383 C 0.96293 0.95974 0.74216 0.0
C384 C 0.07213 0.90574 0.6908 0.0
C385 C 0.21335 0.95596 0.77982 0.0
C386 C 0.19889 0.98459 0.77084 0.0
C387 C 0.96063 0.87615 0.74201 0.0
C388 C 0.89849 0.96205 0.85264 0.0
C389 C 0.87823 0.96771 0.89758 0.0
C390 C 0.85991 0.99659 0.89189 0.0
C391 C 0.88021 0.99104 0.84761 0.0
C392 C 0.89708 0.9503 0.87768 0.0
C393 C 0.86087 1.00807 0.8671 0.0
C394 C 0.04342 0.87158 0.78905 0.0
C395 C 0.91959 0.94473 0.83172 0.0
H396 H 0.0404 0.82051 0.61922 0.0
H397 H 0.02745 0.85141 0.69615 0.0
H398 H 0.01254 0.81278 0.66283 0.0
H399 H 0.09962 0.90715 0.64204 0.0
H400 H 0.84449 1.01029 0.90662 0.0
H401 H 0.8807 1.00055 0.82853 0.0
H402 H 0.9117 0.92814 0.88179 0.0
H403 H 0.84666 0.03032 0.86299 0.0
Eu404 Eu 0.47885 0.61796 0.23126 0.0
C405 C 0.6659 0.65293 0.26818 0.0
N406 N 0.64424 0.62575 0.27215 0.0
C407 C 0.70856 0.59813 0.25843 0.0
C408 C 0.7091 0.65374 0.25786 0.0
C409 C 0.66604 0.59856 0.26906 0.0
C410 C 0.72983 0.62585 0.25228 0.0
C411 C 0.66867 0.70839 0.27397 0.0
C412 C 0.64604 0.67994 0.27611 0.0
C413 C 0.71069 0.70947 0.26245 0.0
C414 C 0.73082 0.68221 0.25436 0.0
Eu415 Eu 0.57034 0.62934 0.2875 0.0
N416 N 0.605 0.67827 0.28665 0.0
C417 C 0.64855 0.73481 0.28379 0.0
C418 C 0.5862 0.70356 0.29754 0.0
C419 C 0.60741 0.7323 0.29595 0.0
H420 H 0.6509 0.57704 0.27488 0.0
H421 H 0.59199 0.75248 0.30402 0.0
H422 H 0.38626 0.64221 0.25927 0.0
H423 H 0.51553 0.50411 0.19182 0.0
H424 H 0.55428 0.70154 0.30681 0.0
H425 H 0.66483 0.75711 0.28249 0.0
H426 H 0.52351 0.56037 0.19625 0.0
H427 H 0.72511 0.57644 0.25531 0.0
H428 H 0.72827 0.73118 0.26019 0.0
H429 H 0.76375 0.6833 0.24613 0.0
H430 H 0.31694 0.62023 0.27727 0.0
H431 H 0.76296 0.62547 0.24429 0.0
H432 H 0.45392 0.47677 0.21359 0.0
N433 N 0.41142 0.5988 0.24805 0.0
C434 C 0.40378 0.56804 0.24588 0.0
C435 C 0.34121 0.60528 0.26864 0.0
C436 C 0.36499 0.55444 0.25602 0.0
C437 C 0.38043 0.61766 0.25854 0.0
C438 C 0.33367 0.57348 0.26765 0.0
N439 N 0.47108 0.5644 0.22304 0.0
C440 C 0.49832 0.54851 0.2071 0.0
C441 C 0.42783 0.51827 0.23061 0.0
C442 C 0.43495 0.55025 0.23344 0.0
C443 C 0.45818 0.50137 0.21622 0.0
C444 C 0.49308 0.51669 0.20399 0.0
H445 H 0.30342 0.56391 0.27566 0.0
H446 H 0.32937 0.51147 0.26213 0.0
H447 H 0.38432 0.47979 0.23977 0.0
O448 O 0.45693 0.61058 0.19204 0.0
O449 O 0.46741 0.6022 0.27226 0.0
O450 O 0.53451 0.58355 0.28418 0.0
O451 O 0.44246 0.65359 0.21078 0.0
O452 O 0.54935 0.60257 0.22342 0.0
O453 O 0.57572 0.5863 0.26236 0.0
O454 O 0.5477 0.62926 0.32712 0.0
O455 O 0.55679 0.66714 0.25855 0.0
O456 O 0.54451 0.64121 0.22147 0.0
O457 O 0.61674 0.62226 0.31886 0.0
O458 O 0.50292 0.65169 0.29437 0.0
O459 O 0.46991 0.66125 0.25493 0.0
C460 C 0.49118 0.58139 0.28398 0.0
C461 C 0.39398 0.63722 0.17746 0.0
C462 C 0.35202 0.63586 0.1375 0.0
C463 C 0.31266 0.63937 0.15162 0.0
C464 C 0.35435 0.64065 0.19108 0.0
C465 C 0.31392 0.64156 0.17818 0.0
C466 C 0.39258 0.63448 0.15081 0.0
C467 C 0.5754 0.58509 0.23725 0.0
C468 C 0.43742 0.63703 0.19026 0.0
C469 C 0.35869 0.52243 0.25417 0.0
C470 C 0.39007 0.50437 0.24152 0.0
C471 C 0.56307 0.66405 0.23403 0.0
C472 C 0.58833 0.59855 0.35577 0.0
C473 C 0.60315 0.58272 0.39959 0.0
C474 C 0.59569 0.55189 0.39242 0.0
C475 C 0.58072 0.5677 0.34902 0.0
C476 C 0.59913 0.60601 0.38108 0.0
C477 C 0.58427 0.54452 0.36733 0.0
C478 C 0.47379 0.66596 0.27972 0.0
C479 C 0.58653 0.62305 0.33648 0.0
H480 H 0.28087 0.64113 0.14219 0.0
H481 H 0.35463 0.64292 0.21159 0.0
H482 H 0.28343 0.64441 0.18877 0.0
H483 H 0.42334 0.6313 0.1405 0.0
H484 H 0.59821 0.53353 0.40629 0.0
H485 H 0.57244 0.56158 0.32959 0.0
H486 H 0.60533 0.62986 0.38623 0.0
H487 H 0.57836 0.52073 0.36202 0.0
H488 H 0.2149 0.92405 0.35816 0.0
H489 H 0.10667 0.94558 0.40892 0.0
H490 H 0.19492 0.96793 0.33127 0.0
H491 H 0.08757 0.98931 0.38253 0.0
H492 H 0.08773 0.08185 0.34485 0.0
H493 H 0.11788 0.0402 0.37047 0.0
H494 H 0.13221 0.9845 0.3029 0.0
H495 H 0.10197 0.02627 0.27716 0.0
C496 C 0.18697 0.93808 0.36362 0.0
C497 C 0.16283 0.93143 0.38595 0.0
C498 C 0.17558 0.96323 0.34824 0.0
C499 C 0.14001 0.98233 0.35494 0.0
C500 C 0.11584 0.97554 0.37714 0.0
C501 C 0.12695 0.95043 0.39235 0.0
C502 C 0.09781 0.06087 0.33539 0.0
C503 C 0.09219 0.05733 0.30899 0.0
C504 C 0.1149 0.03695 0.35009 0.0
C505 C 0.12695 1.0089 0.33876 0.0
C506 C 0.12349 1.00589 0.31217 0.0
C507 C 0.1062 0.02985 0.29743 0.0
H508 H 0.39218 0.62527 0.8604 0.0
H509 H 0.30617 0.56453 0.90334 0.0
H510 H 0.41242 0.58285 0.83266 0.0
H511 H 0.32556 0.52192 0.87511 0.0
H512 H 0.41842 0.44812 0.84128 0.0
H513 H 0.38636 0.48944 0.8663 0.0
H514 H 0.38867 0.54854 0.80004 0.0
H515 H 0.42275 0.50738 0.77532 0.0
C516 C 0.37695 0.60291 0.86362 0.0
C517 C 0.34749 0.59827 0.88405 0.0
C518 C 0.38841 0.57855 0.84761 0.0
C519 C 0.37051 0.54887 0.85147 0.0
C520 C 0.34046 0.54434 0.87172 0.0
C521 C 0.32927 0.56873 0.8879 0.0
C522 C 0.41161 0.46986 0.832 0.0
C523 C 0.42375 0.47469 0.80646 0.0
C524 C 0.3929 0.49354 0.84631 0.0
C525 C 0.38534 0.52258 0.83535 0.0
C526 C 0.39492 0.52672 0.80929 0.0
C527 C 0.41395 0.50303 0.795 0.0
H528 H 0.58446 0.59078 0.62917 0.0
H529 H 0.70548 0.5972 0.67278 0.0
H530 H 0.5543 0.55378 0.65972 0.0
H531 H 0.67513 0.55993 0.70358 0.0
H532 H 0.61978 0.46186 0.72911 0.0
H533 H 0.65285 0.5026 0.70292 0.0
H534 H 0.52986 0.55256 0.70565 0.0
H535 H 0.49742 0.51244 0.73264 0.0
C536 C 0.60463 0.58423 0.64532 0.0
C537 C 0.64746 0.59671 0.6485 0.0
C538 C 0.5872 0.56325 0.66294 0.0
C539 C 0.61231 0.55397 0.68407 0.0
C540 C 0.65512 0.56655 0.68739 0.0
C541 C 0.67237 0.58796 0.66989 0.0
C542 C 0.6002 0.4819 0.72467 0.0
C543 C 0.55602 0.48393 0.733 0.0
C544 C 0.61908 0.50518 0.70958 0.0
C545 C 0.59388 0.53072 0.70211 0.0
C546 C 0.54997 0.53301 0.71087 0.0
C547 C 0.53139 0.51001 0.72629 0.0
H548 H 0.82155 0.9364 0.17 0.0
H549 H 0.94458 0.94297 0.12832 0.0
H550 H 0.8495 0.97502 0.2006 0.0
H551 H 0.97266 0.9808 0.1589 0.0
H552 H 0.02385 0.02163 0.23388 0.0
H553 H 0.99202 0.98077 0.20743 0.0
H554 H 0.87391 0.03455 0.19672 0.0
H555 H 0.90663 0.07621 0.22225 0.0
C556 C 0.85461 0.94591 0.16757 0.0
C557 C 0.88091 0.93686 0.14682 0.0
C558 C 0.87048 0.96803 0.18492 0.0
C559 C 0.91326 0.9808 0.18211 0.0
C560 C 0.93972 0.97118 0.16164 0.0
C561 C 0.9236 0.94966 0.1441 0.0
C562 C 0.99107 0.02477 0.2259 0.0
C563 C 0.96782 0.05222 0.23007 0.0
C564 C 0.97283 1.00133 0.21085 0.0
C565 C 0.93055 1.00452 0.20001 0.0
C566 C 0.90644 0.0314 0.20501 0.0
C567 C 0.92511 0.05518 0.21968 0.0
H568 H 0.90927 0.11213 0.63948 0.0
H569 H 0.78056 0.08397 0.66782 0.0
H570 H 0.94447 0.07606 0.66864 0.0
H571 H 0.81591 0.04837 0.69722 0.0
H572 H 0.9006 1.00106 0.75909 0.0
H573 H 0.86714 0.0432 0.73499 0.0
H574 H 0.94551 0.01882 0.66932 0.0
H575 H 0.97861 0.97704 0.69299 0.0
C576 C 0.88849 0.09846 0.65205 0.0
C577 C 0.84204 0.10079 0.65109 0.0
C578 C 0.90867 0.07785 0.66878 0.0
C579 C 0.88292 0.05918 0.68505 0.0
C580 C 0.83666 0.06263 0.68508 0.0
C581 C 0.81643 0.08312 0.66823 0.0
C582 C 0.91073 1.00474 0.73953 0.0
C583 C 0.94232 0.98555 0.72804 0.0
C584 C 0.89152 0.02885 0.72574 0.0
C585 C 0.90398 0.03448 0.70033 0.0
C586 C 0.93576 1.01545 0.68899 0.0
C587 C 0.9545 0.99127 0.70259 0.0
H588 H 0.66557 0.416 0.16676 0.0
H589 H 0.7375 0.4871 0.12657 0.0
H590 H 0.63479 0.45477 0.19563 0.0
H591 H 0.70903 0.52573 0.1559 0.0
H592 H 0.60563 0.58975 0.18883 0.0
H593 H 0.64273 0.55107 0.16366 0.0
H594 H 0.64729 0.49098 0.22926 0.0
H595 H 0.60774 0.52969 0.25429 0.0
C596 C 0.67505 0.43996 0.16438 0.0
C597 C 0.70329 0.44882 0.1444 0.0
C598 C 0.65786 0.46215 0.181 0.0
C599 C 0.66908 0.49357 0.17807 0.0
C600 C 0.6987 0.50198 0.15846 0.0
C601 C 0.71527 0.4799 0.14171 0.0
C602 C 0.61484 0.56839 0.19799 0.0
C603 C 0.60353 0.56272 0.22352 0.0
C604 C 0.63653 0.54619 0.18356 0.0
C605 C 0.64819 0.51772 0.19431 0.0
C606 C 0.63831 0.51244 0.22021 0.0
C607 C 0.61618 0.53474 0.23468 0.0
H608 H 0.43095 0.43621 0.39262 0.0
H609 H 0.30277 0.46057 0.36236 0.0
H610 H 0.46651 0.47204 0.36326 0.0
H611 H 0.33854 0.4949 0.33186 0.0
H612 H 0.41021 0.58353 0.30693 0.0
H613 H 0.37399 0.54378 0.33242 0.0
H614 H 0.48622 0.48414 0.32077 0.0
H615 H 0.52262 0.52439 0.29559 0.0
C616 C 0.41033 0.44888 0.37947 0.0
C617 C 0.36386 0.44564 0.38015 0.0
C618 C 0.43083 0.46923 0.36236 0.0
C619 C 0.40547 0.48673 0.34526 0.0
C620 C 0.35915 0.48233 0.34507 0.0
C621 C 0.33862 0.46217 0.36234 0.0
C622 C 0.42687 0.56179 0.30961 0.0
C623 C 0.46908 0.55699 0.29917 0.0
C624 C 0.40605 0.53888 0.32416 0.0
C625 C 0.42698 0.51053 0.32867 0.0
C626 C 0.46925 0.50575 0.31803 0.0
C627 C 0.49013 0.52878 0.30355 0.0
H628 H 0.10802 0.11194 0.8835 0.0
H629 H 0.23371 0.06574 0.87815 0.0
H630 H 0.07543 0.07464 0.85361 0.0
H631 H 0.20087 0.02802 0.84872 0.0
H632 H 0.09674 0.94625 0.83386 0.0
H633 H 0.13549 0.98672 0.85796 0.0
H634 H 0.08784 0.055 0.80517 0.0
H635 H 0.04981 1.01441 0.78077 0.0
C636 C 0.12876 0.0941 0.87558 0.0
C637 C 0.17337 0.09176 0.88296 0.0
C638 C 0.1102 0.07283 0.85851 0.0
C639 C 0.13566 0.04845 0.849 0.0
C640 C 0.18057 0.04658 0.85587 0.0
C641 C 0.19938 0.06824 0.8725 0.0
C642 C 0.09475 0.96991 0.82741 0.0
C643 C 0.07029 0.97732 0.80557 0.0
C644 C 0.11713 0.99296 0.84103 0.0
C645 C 0.11459 0.02392 0.83338 0.0
C646 C 0.0902 0.03131 0.81147 0.0
C647 C 0.06863 1.00814 0.79752 0.0
H648 H 0.15127 0.07318 0.96864 0.0
H649 H 0.18785 0.1666 0.98864 0.0
H650 H 0.12358 0.06471 1.01141 0.0
H651 H 0.16282 0.15736 0.03216 0.0
H652 H 0.07715 0.13822 0.10304 0.0
H653 H 0.10043 0.14928 0.05935 0.0
H654 H 0.15117 0.05682 0.05272 0.0
H655 H 0.1268 0.04572 0.09592 0.0
C656 C 0.15312 0.09209 0.98206 0.0
C657 C 0.17178 0.12066 0.97498 0.0
C658 C 0.13791 0.08701 1.00685 0.0
C659 C 0.1414 0.11019 0.02548 0.0
C660 C 0.15928 0.13899 0.01834 0.0
C661 C 0.17417 0.14418 0.99341 0.0
C662 C 0.09344 0.12037 0.0922 0.0
C663 C 0.09982 0.09103 0.10284 0.0
C664 C 0.1069 0.1267 0.06717 0.0
C665 C 0.12741 0.10389 0.05229 0.0
C666 C 0.13449 0.07475 0.06325 0.0
C667 C 0.12068 0.06838 0.08811 0.0
H668 H 0.33518 0.37411 0.48582 0.0
H669 H 0.36773 0.46871 0.46768 0.0
H670 H 0.35726 0.38312 0.53001 0.0
H671 H 0.39143 0.47731 0.51136 0.0
H672 H 0.38288 0.49275 0.59674 0.0
H673 H 0.35985 0.48225 0.55316 0.0
H674 H 0.42164 0.393 0.55685 0.0
H675 H 0.4446 0.40352 0.60062 0.0
C676 C 0.34721 0.39677 0.49121 0.0
C677 C 0.34979 0.42062 0.47311 0.0
C678 C 0.36027 0.40187 0.5165 0.0
C679 C 0.37606 0.43098 0.52433 0.0
C680 C 0.37892 0.45471 0.50615 0.0
C681 C 0.3659 0.44963 0.48094 0.0
C682 C 0.39186 0.47096 0.58823 0.0
C683 C 0.41586 0.44908 0.6022 0.0
C684 C 0.37866 0.46493 0.56318 0.0
C685 C 0.38912 0.43685 0.55134 0.0
C686 C 0.41256 0.41474 0.56542 0.0
C687 C 0.42575 0.42077 0.59054 0.0
H688 H 0.70383 0.45601 0.05316 0.0
H689 H 0.71035 0.35674 0.05106 0.0
H690 H 0.68574 0.4567 1.0078 0.0
H691 H 0.69296 0.35744 1.00563 0.0
H692 H 0.62743 0.36857 0.92769 0.0
H693 H 0.63402 0.36982 0.97414 0.0
H694 H 0.72765 0.44539 0.96832 0.0
H695 H 0.72057 0.4444 0.92204 0.0
C696 C 0.70074 0.43431 0.0431 0.0
C697 C 0.70864 0.40631 0.0557 0.0
C698 C 0.6908 0.43472 0.01706 0.0
C699 C 0.68815 0.40714 1.00305 0.0
C700 C 0.69443 0.37908 1.01587 0.0
C701 C 0.70475 0.37869 0.04185 0.0
C702 C 0.64894 0.3857 0.93638 0.0
C703 C 0.67366 0.40628 0.92118 0.0
C704 C 0.65299 0.38626 0.96296 0.0
C705 C 0.68144 0.40766 0.97494 0.0
C706 C 0.70514 0.42879 0.95974 0.0
C707 C 0.70143 0.42803 0.9332 0.0
H708 H 0.81094 0.17653 0.5478 0.0
H709 H 0.84846 0.08237 0.56246 0.0
H710 H 0.82817 0.16968 0.50286 0.0
H711 H 0.86823 0.07612 0.51791 0.0
H712 H 0.83812 0.06303 0.43306 0.0
H713 H 0.83053 0.07051 0.47866 0.0
H714 H 0.8843 0.16273 0.4713 0.0
H715 H 0.88965 0.15574 0.42529 0.0
C716 C 0.82328 0.15445 0.54152 0.0
C717 C 0.82792 0.12996 0.55884 0.0
C718 C 0.83377 0.15064 0.51575 0.0
C719 C 0.8494 0.12226 0.50661 0.0
C720 C 0.8556 0.09815 0.52412 0.0
C721 C 0.84484 0.10189 0.54983 0.0
C722 C 0.84819 0.08498 0.44111 0.0
C723 C 0.864 0.1089 0.42538 0.0
C724 C 0.84442 0.08914 0.46739 0.0
C725 C 0.85667 0.11729 0.47879 0.0
C726 C 0.87394 0.14089 0.46318 0.0
C727 C 0.87755 0.13675 0.4368 0.0
H728 H 0.79975 0.88648 0.0425 0.0
H729 H 0.92068 0.93625 0.05996 0.0
H730 H 0.80769 0.90064 0.99768 0.0
H731 H 0.92849 0.95043 1.01532 0.0
H732 H 0.89784 1.00034 0.9406 0.0
H733 H 0.89255 0.98352 0.98469 0.0
H734 H 0.85376 0.89241 0.9596 0.0
H735 H 0.85786 0.90964 0.91523 0.0
C736 C 0.82817 0.90026 0.03677 0.0
C737 C 0.85931 0.91047 0.05493 0.0
C738 C 0.83279 0.90831 1.01106 0.0
C739 C 0.86864 0.92679 1.00288 0.0
C740 C 0.90004 0.93664 0.021 0.0
C741 C 0.89547 0.92858 0.04665 0.0
C742 C 0.88804 0.97673 0.94445 0.0
C743 C 0.87794 0.9564 0.92437 0.0
C744 C 0.88544 0.96698 0.96976 0.0
C745 C 0.87267 0.93661 0.97575 0.0
C746 C 0.86324 0.91606 0.95567 0.0
C747 C 0.86604 0.92582 0.93025 0.0
H748 H 0.68231 0.57656 0.55938 0.0
H749 H 0.6505 0.67211 0.54617 0.0
H750 H 0.66453 0.56477 0.51531 0.0
H751 H 0.63651 0.66085 0.5017 0.0
H752 H 0.56686 0.62662 0.43026 0.0
H753 H 0.58511 0.63835 0.47443 0.0
H754 H 0.68674 0.56871 0.47299 0.0
H755 H 0.66676 0.5562 0.42919 0.0
C756 C 0.67185 0.59515 0.5471 0.0
C757 C 0.66784 0.62532 0.55661 0.0
C758 C 0.66225 0.58846 0.52158 0.0
C759 C 0.64891 0.61179 0.50468 0.0
C760 C 0.64585 0.64206 0.51408 0.0
C761 C 0.6548 0.64867 0.53965 0.0
C762 C 0.59318 0.61394 0.43943 0.0
C763 C 0.61529 0.59046 0.4263 0.0
C764 C 0.60391 0.62074 0.46476 0.0
C765 C 0.6376 0.60458 0.47753 0.0
C766 C 0.66004 0.5813 0.46415 0.0
C767 C 0.64879 0.57419 0.43894 0.0
H768 H 0.30541 0.59726 0.97507 0.0
H769 H 0.37074 0.68622 0.97822 0.0
H770 H 0.31281 0.59245 0.02115 0.0
H771 H 0.37499 0.68253 0.02409 0.0
H772 H 0.41306 0.65968 0.10377 0.0
H773 H 0.411 0.65878 0.05769 0.0
H774 H 0.28469 0.61094 0.06009 0.0
H775 H 0.28857 0.60955 0.10633 0.0
C776 C 0.3213 0.61581 0.98553 0.0
C777 C 0.33711 0.64224 0.97279 0.0
C778 C 0.32502 0.61325 1.01206 0.0
C779 C 0.34441 0.63712 0.02656 0.0
C780 C 0.36046 0.6634 1.01372 0.0
C781 C 0.35723 0.66579 0.98728 0.0
C782 C 0.38526 0.64831 0.09459 0.0
C783 C 0.35097 0.63471 0.10903 0.0
C784 C 0.38368 0.64827 0.06799 0.0
C785 C 0.34739 0.63513 0.05494 0.0
C786 C 0.3134 0.62108 0.06934 0.0
C787 C 0.31528 0.62073 0.09599 0.0
H788 H 0.21837 0.85558 0.4849 0.0
H789 H 0.10175 0.90799 0.46636 0.0
H790 H 0.19525 0.85397 0.52961 0.0
H791 H 0.07896 0.90661 0.51094 0.0
H792 H 0.02549 0.85769 0.5833 0.0
H793 H 0.05204 0.86411 0.53969 0.0
H794 H 0.18208 0.88868 0.56796 0.0
H795 H 0.15544 0.88209 0.61177 0.0
C796 C 0.18807 0.86699 0.49043 0.0
C797 C 0.1619 0.88191 0.47212 0.0
C798 C 0.17498 0.86624 0.51602 0.0
C799 C 0.13517 0.88003 0.52374 0.0
C800 C 0.1096 0.89555 0.50552 0.0
C801 C 0.1229 0.89659 0.48004 0.0
C802 C 0.05975 0.86443 0.58021 0.0
C803 C 0.08842 0.86929 0.60093 0.0
C804 C 0.07486 0.86837 0.55525 0.0
C805 C 0.11913 0.87695 0.5504 0.0
C806 C 0.14785 0.8819 0.57112 0.0
C807 C 0.13255 0.87834 0.59615 0.0
H808 H 0.2127 0.32494 0.35066 0.0
H809 H 0.1197 0.30346 0.41081 0.0
H810 H 0.18632 0.27967 0.32682 0.0
H811 H 0.09314 0.25896 0.38697 0.0
H812 H 0.01641 0.21113 0.32278 0.0
H813 H 0.04944 0.25343 0.3468 0.0
H814 H 0.18027 0.22066 0.3284 0.0
H815 H 0.14725 0.17761 0.30488 0.0
C816 C 0.18716 0.31038 0.35896 0.0
C817 C 0.16777 0.31819 0.38244 0.0
C818 C 0.17198 0.28452 0.34529 0.0
C819 C 0.13704 0.26609 0.35481 0.0
C820 C 0.11931 0.27311 0.37882 0.0
C821 C 0.13458 0.29866 0.39248 0.0
C822 C 0.05223 0.21273 0.32389 0.0
C823 C 0.07908 0.19099 0.31161 0.0
C824 C 0.07118 0.23702 0.33771 0.0
C825 C 0.1175 0.2404 0.33955 0.0
C826 C 0.14449 0.21887 0.32713 0.0
C827 C 0.12549 0.19426 0.31355 0.0
H828 H 0.41946 0.19523 0.86633 0.0
H829 H 0.30296 0.24571 0.88831 0.0
H830 H 0.44357 0.23815 0.83968 0.0
H831 H 0.32681 0.28882 0.8612 0.0
H832 H 0.4211 0.37155 0.83981 0.0
H833 H 0.38794 0.32783 0.86257 0.0
H834 H 0.42606 0.2673 0.80123 0.0
H835 H 0.46032 0.31074 0.77903 0.0
C836 C 0.3987 0.21541 0.86517 0.0
C837 C 0.35945 0.21717 0.87951 0.0
C838 C 0.41236 0.23995 0.84976 0.0
C839 C 0.38724 0.26702 0.84839 0.0
C840 C 0.34713 0.26841 0.86207 0.0
C841 C 0.33323 0.24364 0.87736 0.0
C842 C 0.42231 0.34888 0.83124 0.0
C843 C 0.44313 0.34457 0.80759 0.0
C844 C 0.40289 0.3239 0.84412 0.0
C845 C 0.40428 0.29404 0.83372 0.0
C846 C 0.42465 0.28992 0.80988 0.0
C847 C 0.44391 0.31487 0.79702 0.0
H848 H 0.60614 0.19678 0.68524 0.0
H849 H 0.70469 0.25355 0.64785 0.0
H850 H 0.5861 0.24006 0.71259 0.0
H851 H 0.68434 0.29711 0.67511 0.0
H852 H 0.57714 0.37089 0.69907 0.0
H853 H 0.61181 0.32808 0.67676 0.0
H854 H 0.61697 0.27665 0.74702 0.0
H855 H 0.58257 0.31967 0.76951 0.0
C856 C 0.62397 0.21843 0.6832 0.0
C857 C 0.65685 0.22192 0.66444 0.0
C858 C 0.61267 0.24312 0.69891 0.0
C859 C 0.63355 0.27196 0.69589 0.0
C860 C 0.66759 0.27515 0.67774 0.0
C861 C 0.67942 0.25025 0.66229 0.0
C862 C 0.58613 0.35061 0.70984 0.0
C863 C 0.57697 0.34861 0.73603 0.0
C864 C 0.60628 0.3262 0.69709 0.0
C865 C 0.61709 0.29906 0.71016 0.0
C866 C 0.60886 0.29729 0.73648 0.0
C867 C 0.58936 0.32195 0.74934 0.0
H868 H 0.92213 0.34222 0.18578 0.0
H869 H 0.83015 0.28334 0.14536 0.0
H870 H 0.94267 0.2991 0.21322 0.0
H871 H 0.85117 0.23987 0.17261 0.0
H872 H 0.96148 0.16904 0.1982 0.0
H873 H 0.92629 0.21141 0.17553 0.0
H874 H 0.91115 0.26066 0.24635 0.0
H875 H 0.94596 0.21809 0.26919 0.0
C876 C 0.9057 0.32014 0.18317 0.0
C877 C 0.87456 0.316 0.16357 0.0
C878 C 0.91735 0.29551 0.19886 0.0
C879 C 0.89867 0.26613 0.19494 0.0
C880 C 0.86621 0.26227 0.17594 0.0
C881 C 0.85395 0.2871 0.16052 0.0
C882 C 0.95033 0.18878 0.20898 0.0
C883 C 0.95669 0.19029 0.23546 0.0
C884 C 0.92984 0.21291 0.19602 0.0
C885 C 0.91592 0.23927 0.2092 0.0
C886 C 0.92164 0.24061 0.23574 0.0
C887 C 0.94145 0.21622 0.24878 0.0
H888 H 0.73017 0.77533 0.69188 0.0
H889 H 0.83328 0.73523 0.64604 0.0
H890 H 0.78566 0.80457 0.71581 0.0
H891 H 0.88932 0.76501 0.66983 0.0
H892 H 0.9771 0.81507 0.73228 0.0
H893 H 0.92648 0.77735 0.71238 0.0
H894 H 0.83029 0.84911 0.70103 0.0
H895 H 0.88068 0.88637 0.72029 0.0
C896 C 0.76492 0.77226 0.68736 0.0
C897 C 0.77747 0.75317 0.66706 0.0
C898 C 0.79667 0.78919 0.70088 0.0
C899 C 0.84181 0.78766 0.69432 0.0
C900 C 0.8548 0.7667 0.67532 0.0
C901 C 0.82282 0.74957 0.66177 0.0
C902 C 0.94522 0.82267 0.72531 0.0
C903 C 0.93237 0.85352 0.72832 0.0
C904 C 0.91626 0.80111 0.714 0.0
C905 C 0.87395 0.81008 0.70565 0.0
C906 C 0.86207 0.84119 0.70791 0.0
C907 C 0.89097 0.86261 0.71894 0.0
H908 H 0.8092 0.73976 0.17836 0.0
H909 H 0.71285 0.80331 0.1485 0.0
H910 H 0.75045 0.71191 0.20067 0.0
H911 H 0.65405 0.77577 0.17174 0.0
H912 H 0.62763 0.64697 0.20118 0.0
H913 H 0.68511 0.67962 0.18194 0.0
H914 H 0.62941 0.75941 0.21861 0.0
H915 H 0.57218 0.72642 0.23831 0.0
C916 C 0.77553 0.74801 0.17673 0.0
C917 C 0.7657 0.77346 0.16116 0.0
C918 C 0.74192 0.73204 0.18958 0.0
C919 C 0.69765 0.74137 0.18758 0.0
C920 C 0.68797 0.76807 0.17355 0.0
C921 C 0.72167 0.78391 0.16036 0.0
C922 C 0.62742 0.67152 0.20487 0.0
C923 C 0.59554 0.68428 0.22108 0.0
C924 C 0.66048 0.69016 0.19408 0.0
C925 C 0.66176 0.72204 0.19886 0.0
C926 C 0.62904 0.73495 0.21452 0.0
C927 C 0.59645 0.71614 0.22578 0.0
H928 H 0.3204 0.78813 0.37952 0.0
H929 H 0.22983 0.74977 0.32408 0.0
H930 H 0.38278 0.76497 0.35678 0.0
H931 H 0.29153 0.72614 0.30179 0.0
H932 H 0.41212 0.70245 0.25648 0.0
H933 H 0.35741 0.73538 0.27654 0.0
H934 H 0.40989 0.71231 0.35056 0.0
H935 H 0.46522 0.67969 0.33052 0.0
C936 C 0.31393 0.77523 0.36224 0.0
C937 C 0.27023 0.7706 0.35366 0.0
C938 C 0.34955 0.76168 0.34937 0.0
C939 C 0.34217 0.74349 0.32755 0.0
C940 C 0.29859 0.74019 0.31837 0.0
C941 C 0.26312 0.75354 0.33126 0.0
C942 C 0.41238 0.70455 0.27703 0.0
C943 C 0.4429 0.68805 0.29186 0.0
C944 C 0.38083 0.72341 0.28854 0.0
C945 C 0.37897 0.72633 0.31519 0.0
C946 C 0.41061 0.71084 0.32998 0.0
C947 C 0.44219 0.69193 0.31846 0.0
H948 H 0.27424 0.77049 0.8243 0.0
H949 H 0.19761 0.75527 0.89262 0.0
H950 H 0.21044 0.79535 0.80436 0.0
H951 H 0.13391 0.78083 0.87285 0.0
H952 H 0.07242 0.8161 0.77116 0.0
H953 H 0.12611 0.78183 0.79132 0.0
H954 H 0.12801 0.84 0.85792 0.0
H955 H 0.07598 0.87497 0.83748 0.0
C956 C 0.24345 0.7721 0.83484 0.0
C957 C 0.2406 0.76101 0.85991 0.0
C958 C 0.20702 0.78617 0.82345 0.0
C959 C 0.1674 0.78994 0.83712 0.0
C960 C 0.16416 0.77815 0.86197 0.0
C961 C 0.20037 0.76346 0.87319 0.0
C962 C 0.08418 0.82148 0.79015 0.0
C963 C 0.07069 0.84854 0.80253 0.0
C964 C 0.11471 0.80185 0.80166 0.0
C965 C 0.13118 0.80841 0.82608 0.0
C966 C 0.11555 0.83436 0.83912 0.0
C967 C 0.08579 0.85435 0.8274 0.0
loop_
_geom_bond_atom_site_label_1
_geom_bond_atom_site_label_2
_geom_bond_distance
_geom_bond_site_symmetry_2
_ccdc_geom_bond_type
H0 C1 0.949 . S
C1 H0 0.949 . S
C1 C2 1.395 . S
C1 C3 1.391 . S
C2 C1 1.395 . S
C2 C5 1.390 . S
C3 C1 1.391 . S
C3 C7 1.387 . S
C3 C8 1.491 . S
H4 C5 0.950 . S
C5 C2 1.390 . S
C5 H4 0.950 . S
C5 C6 1.378 . S
C6 C5 1.378 . S
C6 C7 1.409 . S
C7 C3 1.387 . S
C7 C6 1.409 . S
C7 H9 0.951 . S
C8 C3 1.491 . S
C8 C10 1.382 . S
C8 C12 1.404 . S
H9 C7 0.951 . S
C10 C8 1.382 . S
C10 C11 1.390 . S
C10 H15 0.949 . S
C11 C10 1.390 . S
C11 C16 1.399 . S
C12 C8 1.404 . S
C12 H13 0.950 . S
C12 C14 1.375 . S
H13 C12 0.950 . S
C14 C12 1.375 . S
C14 C16 1.382 . S
C14 H18 0.950 . S
H15 C10 0.949 . S
C16 C11 1.399 . S
C16 C14 1.382 . S
C16 H17 0.952 . S
H17 C16 0.952 . S
H18 C14 0.950 . S
H19 C20 0.949 . S
C20 H19 0.949 . S
C20 C21 1.395 . S
C20 C22 1.391 . S
C21 C20 1.395 . S
C21 C24 1.390 . S
C22 C20 1.391 . S
C22 C26 1.387 . S
C22 C27 1.491 . S
H23 C24 0.950 . S
C24 C21 1.390 . S
C24 H23 0.950 . S
C24 C25 1.378 . S
C25 C24 1.378 . S
C25 C26 1.409 . S
C26 C22 1.387 . S
C26 C25 1.409 . S
C26 H28 0.951 . S
C27 C22 1.491 . S
C27 C29 1.382 . S
C27 C31 1.404 . S
H28 C26 0.951 . S
C29 C27 1.382 . S
C29 C30 1.390 . S
C29 H34 0.949 . S
C30 C29 1.390 . S
C30 C35 1.399 . S
C31 C27 1.404 . S
C31 H32 0.950 . S
C31 C33 1.375 . S
H32 C31 0.950 . S
C33 C31 1.375 . S
C33 C35 1.382 . S
C33 H37 0.950 . S
H34 C29 0.949 . S
C35 C30 1.399 . S
C35 C33 1.382 . S
C35 H36 0.952 . S
H36 C35 0.952 . S
H37 C33 0.950 . S
H38 C39 0.949 . S
C39 H38 0.949 . S
C39 C40 1.395 . S
C39 C41 1.391 . S
C40 C39 1.395 . S
C40 C43 1.390 . S
C41 C39 1.391 . S
C41 C45 1.387 . S
C41 C46 1.491 . S
H42 C43 0.950 . S
C43 C40 1.390 . S
C43 H42 0.950 . S
C43 C44 1.378 . S
C44 C43 1.378 . S
C44 C45 1.409 . S
C45 C41 1.387 . S
C45 C44 1.409 . S
C45 H47 0.951 . S
C46 C41 1.491 . S
C46 C48 1.382 . S
C46 C50 1.404 . S
H47 C45 0.951 . S
C48 C46 1.382 . S
C48 C49 1.390 . S
C48 H53 0.949 . S
C49 C48 1.390 . S
C49 C54 1.399 . S
C50 C46 1.404 . S
C50 H51 0.950 . S
C50 C52 1.375 . S
H51 C50 0.950 . S
C52 C50 1.375 . S
C52 C54 1.382 . S
C52 H56 0.950 . S
H53 C48 0.949 . S
C54 C49 1.399 . S
C54 C52 1.382 . S
C54 H55 0.952 . S
H55 C54 0.952 . S
H56 C52 0.950 . S
H57 C58 0.949 . S
C58 H57 0.949 . S
C58 C59 1.395 . S
C58 C60 1.391 . S
C59 C58 1.395 . S
C59 C62 1.390 . S
C60 C58 1.391 . S
C60 C64 1.387 . S
C60 C65 1.491 . S
H61 C62 0.950 . S
C62 C59 1.390 . S
C62 H61 0.950 . S
C62 C63 1.378 . S
C63 C62 1.378 . S
C63 C64 1.409 . S
C64 C60 1.387 . S
C64 C63 1.409 . S
C64 H66 0.951 . S
C65 C60 1.491 . S
C65 C67 1.382 . S
C65 C69 1.404 . S
H66 C64 0.951 . S
C67 C65 1.382 . S
C67 C68 1.390 . S
C67 H72 0.949 . S
C68 C67 1.390 . S
C68 C73 1.399 . S
C69 C65 1.404 . S
C69 H70 0.950 . S
C69 C71 1.375 . S
H70 C69 0.950 . S
C71 C69 1.375 . S
C71 C73 1.382 . S
C71 H75 0.950 . S
H72 C67 0.949 . S
C73 C68 1.399 . S
C73 C71 1.382 . S
C73 H74 0.952 . S
H74 C73 0.952 . S
H75 C71 0.950 . S
H76 C77 0.949 . S
C77 H76 0.949 . S
C77 C78 1.395 . S
C77 C79 1.391 . S
C78 C77 1.395 . S
C78 C81 1.390 . S
C79 C77 1.391 . S
C79 C83 1.387 . S
C79 C84 1.491 . S
H80 C81 0.950 . S
C81 C78 1.390 . S
C81 H80 0.950 . S
C81 C82 1.378 . S
C82 C81 1.378 . S
C82 C83 1.409 . S
C83 C79 1.387 . S
C83 C82 1.409 . S
C83 H85 0.951 . S
C84 C79 1.491 . S
C84 C86 1.382 . S
C84 C88 1.404 . S
H85 C83 0.951 . S
C86 C84 1.382 . S
C86 C87 1.390 . S
C86 H91 0.949 . S
C87 C86 1.390 . S
C87 C92 1.399 . S
C88 C84 1.404 . S
C88 H89 0.950 . S
C88 C90 1.375 . S
H89 C88 0.950 . S
C90 C88 1.375 . S
C90 C92 1.382 . S
C90 H94 0.950 . S
H91 C86 0.949 . S
C92 C87 1.399 . S
C92 C90 1.382 . S
C92 H93 0.952 . S
H93 C92 0.952 . S
H94 C90 0.950 . S
H95 C96 0.949 . S
C96 H95 0.949 . S
C96 C97 1.395 . S
C96 C98 1.391 . S
C97 C96 1.395 . S
C97 C100 1.390 . S
C98 C96 1.391 . S
C98 C102 1.387 . S
C98 C103 1.491 . S
H99 C100 0.950 . S
C100 C97 1.390 . S
C100 H99 0.950 . S
C100 C101 1.378 . S
C101 C100 1.378 . S
C101 C102 1.409 . S
C102 C98 1.387 . S
C102 C101 1.409 . S
C102 H104 0.951 . S
C103 C98 1.491 . S
C103 C105 1.382 . S
C103 C107 1.404 . S
H104 C102 0.951 . S
C105 C103 1.382 . S
C105 C106 1.390 . S
C105 H110 0.949 . S
C106 C105 1.390 . S
C106 C111 1.399 . S
C107 C103 1.404 . S
C107 H108 0.950 . S
C107 C109 1.375 . S
H108 C107 0.950 . S
C109 C107 1.375 . S
C109 C111 1.382 . S
C109 H113 0.950 . S
H110 C105 0.949 . S
C111 C106 1.399 . S
C111 C109 1.382 . S
C111 H112 0.952 . S
H112 C111 0.952 . S
H113 C109 0.950 . S
H114 C115 0.949 . S
C115 H114 0.949 . S
C115 C116 1.395 . S
C115 C117 1.391 . S
C116 C115 1.395 . S
C116 C119 1.390 . S
C117 C115 1.391 . S
C117 C121 1.387 . S
C117 C122 1.491 . S
H118 C119 0.950 . S
C119 C116 1.390 . S
C119 H118 0.950 . S
C119 C120 1.378 . S
C120 C119 1.378 . S
C120 C121 1.409 . S
C121 C117 1.387 . S
C121 C120 1.409 . S
C121 H123 0.951 . S
C122 C117 1.491 . S
C122 C124 1.382 . S
C122 C126 1.404 . S
H123 C121 0.951 . S
C124 C122 1.382 . S
C124 C125 1.390 . S
C124 H129 0.949 . S
C125 C124 1.390 . S
C125 C130 1.399 . S
C126 C122 1.404 . S
C126 H127 0.950 . S
C126 C128 1.375 . S
H127 C126 0.950 . S
C128 C126 1.375 . S
C128 C130 1.382 . S
C128 H132 0.950 . S
H129 C124 0.949 . S
C130 C125 1.399 . S
C130 C128 1.382 . S
C130 H131 0.952 . S
H131 C130 0.952 . S
H132 C128 0.950 . S
H133 C134 0.949 . S
C134 H133 0.949 . S
C134 C135 1.395 . S
C134 C136 1.391 . S
C135 C134 1.395 . S
C135 C138 1.390 . S
C136 C134 1.391 . S
C136 C140 1.387 . S
C136 C141 1.491 . S
H137 C138 0.950 . S
C138 C135 1.390 . S
C138 H137 0.950 . S
C138 C139 1.378 . S
C139 C138 1.378 . S
C139 C140 1.409 . S
C140 C136 1.387 . S
C140 C139 1.409 . S
C140 H142 0.951 . S
C141 C136 1.491 . S
C141 C143 1.382 . S
C141 C145 1.404 . S
H142 C140 0.951 . S
C143 C141 1.382 . S
C143 C144 1.390 . S
C143 H148 0.949 . S
C144 C143 1.390 . S
C144 C149 1.399 . S
C145 C141 1.404 . S
C145 H146 0.950 . S
C145 C147 1.375 . S
H146 C145 0.950 . S
C147 C145 1.375 . S
C147 C149 1.382 . S
C147 H151 0.950 . S
H148 C143 0.949 . S
C149 C144 1.399 . S
C149 C147 1.382 . S
C149 H150 0.952 . S
H150 C149 0.952 . S
H151 C147 0.950 . S
Eu152 N181 2.600 . S
Eu152 N187 2.562 . S
Eu152 O196 2.462 . S
Eu152 O197 2.373 . S
Eu152 O199 2.432 . S
Eu152 O200 2.297 . S
Eu152 O204 2.352 . S
Eu152 O207 2.372 . S
Eu152 C216 2.787 . S
C153 N154 1.365 . S
C153 C156 1.405 . S
C153 C160 1.448 . S
N154 C153 1.365 . S
N154 C157 1.319 . S
N154 Eu163 2.600 . S
C155 C157 1.397 . S
C155 C158 1.367 . S
C155 H175 0.931 . S
C156 C153 1.405 . S
C156 C158 1.403 . S
C156 C162 1.439 . S
C157 N154 1.319 . S
C157 C155 1.397 . S
C157 H168 0.930 . S
C158 C155 1.367 . S
C158 C156 1.403 . S
C158 H179 0.929 . S
C159 C160 1.430 . S
C159 C161 1.387 . S
C159 C165 1.404 1_545 S
C160 C153 1.448 . S
C160 C159 1.430 . S
C160 N164 1.351 . S
C161 C159 1.387 . S
C161 C162 1.374 . S
C161 H176 0.931 1_545 S
C162 C156 1.439 . S
C162 C161 1.374 . S
C162 H177 0.931 . S
Eu163 N154 2.600 . S
Eu163 N164 2.562 . S
Eu163 O198 2.335 1_655 S
Eu163 O201 2.372 . S
Eu163 O202 2.462 . S
Eu163 O203 2.373 . S
Eu163 O205 2.432 . S
Eu163 O206 2.291 1_655 S
Eu163 C227 2.787 . S
N164 C160 1.351 . S
N164 Eu163 2.562 . S
N164 C166 1.325 . S
C165 C159 1.404 1_565 S
C165 C167 1.366 . S
C165 H173 0.930 . S
C166 N164 1.325 . S
C166 C167 1.416 1_545 S
C166 H172 0.929 . S
C167 C165 1.366 . S
C167 C166 1.416 1_565 S
C167 H169 0.930 . S
H168 C157 0.930 . S
H169 C167 0.930 . S
H170 C185 0.930 . S
H171 C192 0.930 . S
H172 C166 0.929 . S
H173 C165 0.930 . S
H174 C188 0.929 . S
H175 C155 0.931 . S
H176 C161 0.931 1_565 S
H177 C162 0.931 . S
H178 C183 0.931 . S
H179 C158 0.929 . S
H180 C191 0.930 . S
N181 Eu152 2.600 . S
N181 C182 1.365 . S
N181 C185 1.319 . S
C182 N181 1.365 . S
C182 C184 1.405 . S
C182 C190 1.448 . S
C183 H178 0.931 . S
C183 C185 1.397 . S
C183 C186 1.367 . S
C184 C182 1.405 . S
C184 C186 1.403 . S
C184 C217 1.439 . S
C185 H170 0.930 . S
C185 N181 1.319 . S
C185 C183 1.397 . S
C186 C183 1.367 . S
C186 C184 1.403 . S
C186 H193 0.929 . S
N187 Eu152 2.562 . S
N187 C188 1.325 . S
N187 C190 1.351 . S
C188 H174 0.929 . S
C188 N187 1.325 . S
C188 C192 1.416 . S
C189 C190 1.430 . S
C189 C191 1.404 . S
C189 C218 1.387 . S
C190 C182 1.448 . S
C190 N187 1.351 . S
C190 C189 1.430 . S
C191 H180 0.930 . S
C191 C189 1.404 . S
C191 C192 1.366 . S
C192 H171 0.930 . S
C192 C188 1.416 . S
C192 C191 1.366 . S
H193 C186 0.929 . S
H194 C217 0.931 . S
H195 C218 0.931 . S
O196 Eu152 2.462 . S
O196 C216 1.252 . S
O197 Eu152 2.373 . S
O197 C208 1.249 . S
O198 Eu163 2.335 1_455 S
O198 C208 1.264 . S
O199 Eu152 2.432 . S
O199 C216 1.268 . S
O200 Eu152 2.297 . S
O200 C215 1.248 1_455 S
O201 Eu163 2.372 . S
O201 C215 1.257 . S
O202 Eu163 2.462 . S
O202 C227 1.252 . S
O203 Eu163 2.373 . S
O203 C219 1.249 . S
O204 Eu152 2.352 . S
O204 C219 1.243 1_455 S
O205 Eu163 2.432 . S
O205 C227 1.268 . S
O206 Eu163 2.291 1_455 S
O206 C226 1.255 . S
O207 Eu152 2.372 . S
O207 C226 1.257 . S
C208 O197 1.249 . S
C208 O198 1.264 . S
C209 C212 1.382 . S
C209 C214 1.390 . S
C209 C216 1.506 . S
C210 C211 1.398 . S
C210 C214 1.392 . S
C211 C210 1.398 . S
C211 C213 1.372 . S
C211 H228 0.931 . S
C212 C209 1.382 . S
C212 C213 1.390 . S
C212 H229 0.931 . S
C213 C211 1.372 . S
C213 C212 1.390 . S
C213 H230 0.929 . S
C214 C209 1.390 . S
C214 C210 1.392 . S
C214 H231 0.930 . S
C215 O200 1.248 1_655 S
C215 O201 1.257 . S
C216 Eu152 2.787 . S
C216 O196 1.252 . S
C216 O199 1.268 . S
C216 C209 1.506 . S
C217 C184 1.439 . S
C217 H194 0.931 . S
C217 C218 1.374 . S
C218 C189 1.387 . S
C218 H195 0.931 . S
C218 C217 1.374 . S
C219 O203 1.249 . S
C219 O204 1.243 1_655 S
C220 C223 1.382 . S
C220 C224 1.390 . S
C220 C227 1.506 . S
C221 C222 1.398 . S
C221 C224 1.392 . S
C222 C221 1.398 . S
C222 C225 1.372 . S
C222 H232 0.931 . S
C223 C220 1.382 . S
C223 C225 1.390 . S
C223 H233 0.931 . S
C224 C220 1.390 . S
C224 C221 1.392 . S
C224 H234 0.930 . S
C225 C222 1.372 . S
C225 C223 1.390 . S
C225 H235 0.929 . S
C226 O206 1.255 . S
C226 O207 1.257 . S
C227 Eu163 2.787 . S
C227 O202 1.252 . S
C227 O205 1.268 . S
C227 C220 1.506 . S
H228 C211 0.931 . S
H229 C212 0.931 . S
H230 C213 0.929 . S
H231 C214 0.930 . S
H232 C222 0.931 . S
H233 C223 0.931 . S
H234 C224 0.930 . S
H235 C225 0.929 . S
Eu236 N265 2.600 . S
Eu236 N271 2.562 . S
Eu236 O280 2.462 . S
Eu236 O281 2.373 . S
Eu236 O283 2.432 . S
Eu236 O284 2.291 . S
Eu236 O288 2.335 . S
Eu236 O291 2.372 . S
Eu236 C300 2.787 . S
C237 N238 1.365 . S
C237 C240 1.405 . S
C237 C244 1.448 . S
N238 C237 1.365 . S
N238 C241 1.319 . S
N238 Eu247 2.600 . S
C239 C241 1.397 . S
C239 C242 1.367 . S
C239 H259 0.931 . S
C240 C237 1.405 . S
C240 C242 1.403 . S
C240 C246 1.439 . S
C241 N238 1.319 . S
C241 C239 1.397 . S
C241 H252 0.930 . S
C242 C239 1.367 . S
C242 C240 1.403 . S
C242 H263 0.929 . S
C243 C244 1.430 . S
C243 C245 1.387 . S
C243 C249 1.404 . S
C244 C237 1.448 . S
C244 C243 1.430 . S
C244 N248 1.351 . S
C245 C243 1.387 . S
C245 C246 1.374 . S
C245 H260 0.931 . S
C246 C240 1.439 . S
C246 C245 1.374 . S
C246 H261 0.931 . S
Eu247 N238 2.600 . S
Eu247 N248 2.562 . S
Eu247 O282 2.335 . S
Eu247 O285 2.372 . S
Eu247 O286 2.462 . S
Eu247 O287 2.373 . S
Eu247 O289 2.432 . S
Eu247 O290 2.291 . S
Eu247 C311 2.787 . S
N248 C244 1.351 . S
N248 Eu247 2.562 . S
N248 C250 1.325 . S
C249 C243 1.404 . S
C249 C251 1.366 . S
C249 H257 0.930 . S
C250 N248 1.325 . S
C250 C251 1.416 . S
C250 H256 0.929 . S
C251 C249 1.366 . S
C251 C250 1.416 . S
C251 H253 0.930 . S
H252 C241 0.930 . S
H253 C251 0.930 . S
H254 C269 0.930 . S
H255 C276 0.930 . S
H256 C250 0.929 . S
H257 C249 0.930 . S
H258 C272 0.929 . S
H259 C239 0.931 . S
H260 C245 0.931 . S
H261 C246 0.931 . S
H262 C267 0.931 . S
H263 C242 0.929 . S
H264 C275 0.930 . S
N265 Eu236 2.600 . S
N265 C266 1.365 . S
N265 C269 1.319 . S
C266 N265 1.365 . S
C266 C268 1.405 . S
C266 C274 1.448 . S
C267 H262 0.931 . S
C267 C269 1.397 . S
C267 C270 1.367 . S
C268 C266 1.405 . S
C268 C270 1.403 . S
C268 C301 1.439 . S
C269 H254 0.930 . S
C269 N265 1.319 . S
C269 C267 1.397 . S
C270 C267 1.367 . S
C270 C268 1.403 . S
C270 H277 0.929 . S
N271 Eu236 2.562 . S
N271 C272 1.325 . S
N271 C274 1.351 . S
C272 H258 0.929 . S
C272 N271 1.325 . S
C272 C276 1.416 . S
C273 C274 1.430 . S
C273 C275 1.404 . S
C273 C302 1.387 . S
C274 C266 1.448 . S
C274 N271 1.351 . S
C274 C273 1.430 . S
C275 H264 0.930 . S
C275 C273 1.404 . S
C275 C276 1.366 . S
C276 H255 0.930 . S
C276 C272 1.416 . S
C276 C275 1.366 . S
H277 C270 0.929 . S
H278 C301 0.931 . S
H279 C302 0.931 . S
O280 Eu236 2.462 . S
O280 C300 1.252 . S
O281 Eu236 2.373 . S
O281 C292 1.249 . S
O282 Eu247 2.335 . S
O282 C292 1.264 . S
O283 Eu236 2.432 . S
O283 C300 1.268 . S
O284 Eu236 2.291 . S
O284 C299 1.255 . S
O285 Eu247 2.372 . S
O285 C299 1.257 . S
O286 Eu247 2.462 . S
O286 C311 1.252 . S
O287 Eu247 2.373 . S
O287 C303 1.249 . S
O288 Eu236 2.335 . S
O288 C303 1.264 . S
O289 Eu247 2.432 . S
O289 C311 1.268 . S
O290 Eu247 2.291 . S
O290 C310 1.255 . S
O291 Eu236 2.372 . S
O291 C310 1.257 . S
C292 O281 1.249 . S
C292 O282 1.264 . S
C293 C296 1.382 . S
C293 C298 1.390 . S
C293 C300 1.506 . S
C294 C295 1.398 . S
C294 C298 1.392 . S
C295 C294 1.398 . S
C295 C297 1.372 . S
C295 H312 0.931 . S
C296 C293 1.382 . S
C296 C297 1.390 . S
C296 H313 0.931 . S
C297 C295 1.372 . S
C297 C296 1.390 . S
C297 H314 0.929 . S
C298 C293 1.390 . S
C298 C294 1.392 . S
C298 H315 0.930 . S
C299 O284 1.255 . S
C299 O285 1.257 . S
C300 Eu236 2.787 . S
C300 O280 1.252 . S
C300 O283 1.268 . S
C300 C293 1.506 . S
C301 C268 1.439 . S
C301 H278 0.931 . S
C301 C302 1.374 . S
C302 C273 1.387 . S
C302 H279 0.931 . S
C302 C301 1.374 . S
C303 O287 1.249 . S
C303 O288 1.264 . S
C304 C307 1.382 . S
C304 C308 1.390 . S
C304 C311 1.506 . S
C305 C306 1.398 . S
C305 C308 1.392 . S
C306 C305 1.398 . S
C306 C309 1.372 . S
C306 H316 0.931 . S
C307 C304 1.382 . S
C307 C309 1.390 . S
C307 H317 0.931 . S
C308 C304 1.390 . S
C308 C305 1.392 . S
C308 H318 0.930 . S
C309 C306 1.372 . S
C309 C307 1.390 . S
C309 H319 0.929 . S
C310 O290 1.255 . S
C310 O291 1.257 . S
C311 Eu247 2.787 . S
C311 O286 1.252 . S
C311 O289 1.268 . S
C311 C304 1.506 . S
H312 C295 0.931 . S
H313 C296 0.931 . S
H314 C297 0.929 . S
H315 C298 0.930 . S
H316 C306 0.931 . S
H317 C307 0.931 . S
H318 C308 0.930 . S
H319 C309 0.929 . S
Eu320 N349 2.600 . S
Eu320 N355 2.562 . S
Eu320 O364 2.462 . S
Eu320 O365 2.373 . S
Eu320 O367 2.432 . S
Eu320 O368 2.291 . S
Eu320 O372 2.335 . S
Eu320 O375 2.372 . S
Eu320 C384 2.787 . S
C321 N322 1.365 . S
C321 C324 1.405 . S
C321 C328 1.448 . S
N322 C321 1.365 . S
N322 C325 1.319 . S
N322 Eu331 2.600 . S
C323 C325 1.397 . S
C323 C326 1.367 . S
C323 H343 0.931 . S
C324 C321 1.405 . S
C324 C326 1.403 . S
C324 C330 1.439 . S
C325 N322 1.319 . S
C325 C323 1.397 . S
C325 H336 0.930 . S
C326 C323 1.367 . S
C326 C324 1.403 . S
C326 H347 0.929 . S
C327 C328 1.430 . S
C327 C329 1.387 . S
C327 C333 1.404 . S
C328 C321 1.448 . S
C328 C327 1.430 . S
C328 N332 1.351 . S
C329 C327 1.387 . S
C329 C330 1.374 . S
C329 H344 0.931 . S
C330 C324 1.439 . S
C330 C329 1.374 . S
C330 H345 0.931 . S
Eu331 N322 2.600 . S
Eu331 N332 2.562 . S
Eu331 O366 2.335 1_655 S
Eu331 O369 2.372 . S
Eu331 O370 2.462 . S
Eu331 O371 2.373 . S
Eu331 O373 2.432 . S
Eu331 O374 2.291 1_655 S
Eu331 C395 2.787 . S
N332 C328 1.351 . S
N332 Eu331 2.562 . S
N332 C334 1.325 . S
C333 C327 1.404 . S
C333 C335 1.366 . S
C333 H341 0.930 . S
C334 N332 1.325 . S
C334 C335 1.416 . S
C334 H340 0.929 . S
C335 C333 1.366 . S
C335 C334 1.416 . S
C335 H337 0.930 . S
H336 C325 0.930 . S
H337 C335 0.930 . S
H338 C353 0.930 . S
H339 C360 0.930 . S
H340 C334 0.929 . S
H341 C333 0.930 . S
H342 C356 0.929 . S
H343 C323 0.931 . S
H344 C329 0.931 . S
H345 C330 0.931 . S
H346 C351 0.931 . S
H347 C326 0.929 . S
H348 C359 0.930 . S
N349 Eu320 2.600 . S
N349 C350 1.365 . S
N349 C353 1.319 . S
C350 N349 1.365 . S
C350 C352 1.405 . S
C350 C358 1.448 . S
C351 H346 0.931 . S
C351 C353 1.397 . S
C351 C354 1.367 . S
C352 C350 1.405 . S
C352 C354 1.403 . S
C352 C385 1.439 . S
C353 H338 0.930 . S
C353 N349 1.319 . S
C353 C351 1.397 . S
C354 C351 1.367 . S
C354 C352 1.403 . S
C354 H361 0.929 . S
N355 Eu320 2.562 . S
N355 C356 1.325 . S
N355 C358 1.351 . S
C356 H342 0.929 . S
C356 N355 1.325 . S
C356 C360 1.416 1_565 S
C357 C358 1.430 . S
C357 C359 1.404 1_565 S
C357 C386 1.387 . S
C358 C350 1.448 . S
C358 N355 1.351 . S
C358 C357 1.430 . S
C359 H348 0.930 . S
C359 C357 1.404 1_545 S
C359 C360 1.366 . S
C360 H339 0.930 . S
C360 C356 1.416 1_545 S
C360 C359 1.366 . S
H361 C354 0.929 . S
H362 C385 0.931 . S
H363 C386 0.931 1_545 S
O364 Eu320 2.462 . S
O364 C384 1.252 . S
O365 Eu320 2.373 . S
O365 C376 1.249 . S
O366 Eu331 2.335 1_455 S
O366 C376 1.264 . S
O367 Eu320 2.432 . S
O367 C384 1.268 . S
O368 Eu320 2.291 . S
O368 C383 1.255 1_455 S
O369 Eu331 2.372 . S
O369 C383 1.257 . S
O370 Eu331 2.462 . S
O370 C395 1.252 . S
O371 Eu331 2.373 . S
O371 C387 1.249 . S
O372 Eu320 2.335 . S
O372 C387 1.264 1_455 S
O373 Eu331 2.432 . S
O373 C395 1.268 . S
O374 Eu331 2.291 1_455 S
O374 C394 1.255 . S
O375 Eu320 2.372 . S
O375 C394 1.257 . S
C376 O365 1.249 . S
C376 O366 1.264 . S
C377 C380 1.382 . S
C377 C382 1.390 . S
C377 C384 1.506 . S
C378 C379 1.398 . S
C378 C382 1.392 . S
C379 C378 1.398 . S
C379 C381 1.372 . S
C379 H396 0.931 . S
C380 C377 1.382 . S
C380 C381 1.390 . S
C380 H397 0.931 . S
C381 C379 1.372 . S
C381 C380 1.390 . S
C381 H398 0.929 . S
C382 C377 1.390 . S
C382 C378 1.392 . S
C382 H399 0.930 . S
C383 O368 1.255 1_655 S
C383 O369 1.257 . S
C384 Eu320 2.787 . S
C384 O364 1.252 . S
C384 O367 1.268 . S
C384 C377 1.506 . S
C385 C352 1.439 . S
C385 H362 0.931 . S
C385 C386 1.374 . S
C386 C357 1.387 . S
C386 H363 0.931 1_565 S
C386 C385 1.374 . S
C387 O371 1.249 . S
C387 O372 1.264 1_655 S
C388 C391 1.382 . S
C388 C392 1.390 . S
C388 C395 1.506 . S
C389 C390 1.398 . S
C389 C392 1.392 . S
C390 C389 1.398 . S
C390 C393 1.372 . S
C390 H400 0.931 . S
C391 C388 1.382 . S
C391 C393 1.390 . S
C391 H401 0.931 . S
C392 C388 1.390 . S
C392 C389 1.392 . S
C392 H402 0.930 . S
C393 C390 1.372 . S
C393 C391 1.390 . S
C393 H403 0.929 . S
C394 O374 1.255 . S
C394 O375 1.257 . S
C395 Eu331 2.787 . S
C395 O370 1.252 . S
C395 O373 1.268 . S
C395 C388 1.506 . S
H396 C379 0.931 . S
H397 C380 0.931 . S
H398 C381 0.929 . S
H399 C382 0.930 . S
H400 C390 0.931 . S
H401 C391 0.931 . S
H402 C392 0.930 . S
H403 C393 0.929 . S
Eu404 N433 2.600 . S
Eu404 N439 2.562 . S
Eu404 O448 2.462 . S
Eu404 O449 2.373 . S
Eu404 O451 2.432 . S
Eu404 O452 2.291 . S
Eu404 O456 2.335 . S
Eu404 O459 2.372 . S
Eu404 C468 2.787 . S
C405 N406 1.365 . S
C405 C408 1.405 . S
C405 C412 1.448 . S
N406 C405 1.365 . S
N406 C409 1.319 . S
N406 Eu415 2.600 . S
C407 C409 1.397 . S
C407 C410 1.367 . S
C407 H427 0.931 . S
C408 C405 1.405 . S
C408 C410 1.403 . S
C408 C414 1.439 . S
C409 N406 1.319 . S
C409 C407 1.397 . S
C409 H420 0.930 . S
C410 C407 1.367 . S
C410 C408 1.403 . S
C410 H431 0.929 . S
C411 C412 1.430 . S
C411 C413 1.387 . S
C411 C417 1.404 . S
C412 C405 1.448 . S
C412 C411 1.430 . S
C412 N416 1.351 . S
C413 C411 1.387 . S
C413 C414 1.374 . S
C413 H428 0.931 . S
C414 C408 1.439 . S
C414 C413 1.374 . S
C414 H429 0.931 . S
Eu415 N406 2.600 . S
Eu415 N416 2.562 . S
Eu415 O450 2.335 . S
Eu415 O453 2.372 . S
Eu415 O454 2.462 . S
Eu415 O455 2.373 . S
Eu415 O457 2.432 . S
Eu415 O458 2.291 . S
Eu415 C479 2.787 . S
N416 C412 1.351 . S
N416 Eu415 2.562 . S
N416 C418 1.325 . S
C417 C411 1.404 . S
C417 C419 1.366 . S
C417 H425 0.930 . S
C418 N416 1.325 . S
C418 C419 1.416 . S
C418 H424 0.929 . S
C419 C417 1.366 . S
C419 C418 1.416 . S
C419 H421 0.930 . S
H420 C409 0.930 . S
H421 C419 0.930 . S
H422 C437 0.930 . S
H423 C444 0.930 . S
H424 C418 0.929 . S
H425 C417 0.930 . S
H426 C440 0.929 . S
H427 C407 0.931 . S
H428 C413 0.931 . S
H429 C414 0.931 . S
H430 C435 0.931 . S
H431 C410 0.929 . S
H432 C443 0.930 . S
N433 Eu404 2.600 . S
N433 C434 1.365 . S
N433 C437 1.319 . S
C434 N433 1.365 . S
C434 C436 1.405 . S
C434 C442 1.448 . S
C435 H430 0.931 . S
C435 C437 1.397 . S
C435 C438 1.367 . S
C436 C434 1.405 . S
C436 C438 1.403 . S
C436 C469 1.439 . S
C437 H422 0.930 . S
C437 N433 1.319 . S
C437 C435 1.397 . S
C438 C435 1.367 . S
C438 C436 1.403 . S
C438 H445 0.929 . S
N439 Eu404 2.562 . S
N439 C440 1.325 . S
N439 C442 1.351 . S
C440 H426 0.929 . S
C440 N439 1.325 . S
C440 C444 1.416 . S
C441 C442 1.430 . S
C441 C443 1.404 . S
C441 C470 1.387 . S
C442 C434 1.448 . S
C442 N439 1.351 . S
C442 C441 1.430 . S
C443 H432 0.930 . S
C443 C441 1.404 . S
C443 C444 1.366 . S
C444 H423 0.930 . S
C444 C440 1.416 . S
C444 C443 1.366 . S
H445 C438 0.929 . S
H446 C469 0.931 . S
H447 C470 0.931 . S
O448 Eu404 2.462 . S
O448 C468 1.252 . S
O449 Eu404 2.373 . S
O449 C460 1.249 . S
O450 Eu415 2.335 . S
O450 C460 1.264 . S
O451 Eu404 2.432 . S
O451 C468 1.268 . S
O452 Eu404 2.291 . S
O452 C467 1.255 . S
O453 Eu415 2.372 . S
O453 C467 1.257 . S
O454 Eu415 2.462 . S
O454 C479 1.252 . S
O455 Eu415 2.373 . S
O455 C471 1.249 . S
O456 Eu404 2.335 . S
O456 C471 1.264 . S
O457 Eu415 2.432 . S
O457 C479 1.268 . S
O458 Eu415 2.291 . S
O458 C478 1.255 . S
O459 Eu404 2.372 . S
O459 C478 1.257 . S
C460 O449 1.249 . S
C460 O450 1.264 . S
C461 C464 1.382 . S
C461 C466 1.390 . S
C461 C468 1.506 . S
C462 C463 1.398 . S
C462 C466 1.392 . S
C463 C462 1.398 . S
C463 C465 1.372 . S
C463 H480 0.931 . S
C464 C461 1.382 . S
C464 C465 1.390 . S
C464 H481 0.931 . S
C465 C463 1.372 . S
C465 C464 1.390 . S
C465 H482 0.929 . S
C466 C461 1.390 . S
C466 C462 1.392 . S
C466 H483 0.930 . S
C467 O452 1.255 . S
C467 O453 1.257 . S
C468 Eu404 2.787 . S
C468 O448 1.252 . S
C468 O451 1.268 . S
C468 C461 1.506 . S
C469 C436 1.439 . S
C469 H446 0.931 . S
C469 C470 1.374 . S
C470 C441 1.387 . S
C470 H447 0.931 . S
C470 C469 1.374 . S
C471 O455 1.249 . S
C471 O456 1.264 . S
C472 C475 1.382 . S
C472 C476 1.390 . S
C472 C479 1.506 . S
C473 C474 1.398 . S
C473 C476 1.392 . S
C474 C473 1.398 . S
C474 C477 1.372 . S
C474 H484 0.931 . S
C475 C472 1.382 . S
C475 C477 1.390 . S
C475 H485 0.931 . S
C476 C472 1.390 . S
C476 C473 1.392 . S
C476 H486 0.930 . S
C477 C474 1.372 . S
C477 C475 1.390 . S
C477 H487 0.929 . S
C478 O458 1.255 . S
C478 O459 1.257 . S
C479 Eu415 2.787 . S
C479 O454 1.252 . S
C479 O457 1.268 . S
C479 C472 1.506 . S
H480 C463 0.931 . S
H481 C464 0.931 . S
H482 C465 0.929 . S
H483 C466 0.930 . S
H484 C474 0.931 . S
H485 C475 0.931 . S
H486 C476 0.930 . S
H487 C477 0.929 . S
H488 C496 0.950 . S
H489 C501 0.950 . S
H490 C498 0.950 . S
H491 C500 0.950 . S
H492 C502 0.950 . S
H493 C504 0.950 . S
H494 C506 0.950 . S
H495 C507 0.950 . S
C496 H488 0.950 . S
C496 C497 1.386 . S
C496 C498 1.391 . S
C497 C496 1.386 . S
C497 C501 1.393 . S
C498 H490 0.950 . S
C498 C496 1.391 . S
C498 C499 1.400 . S
C499 C498 1.400 . S
C499 C500 1.398 . S
C499 C505 1.491 . S
C500 H491 0.950 . S
C500 C499 1.398 . S
C500 C501 1.391 . S
C501 H489 0.950 . S
C501 C497 1.393 . S
C501 C500 1.391 . S
C502 H492 0.950 . S
C502 C503 1.386 . S
C502 C504 1.391 1_545 S
C503 C502 1.386 . S
C503 C507 1.393 . S
C504 H493 0.950 . S
C504 C502 1.391 1_565 S
C504 C505 1.400 . S
C505 C499 1.491 . S
C505 C504 1.400 . S
C505 C506 1.398 . S
C506 H494 0.950 . S
C506 C505 1.398 . S
C506 C507 1.391 1_565 S
C507 H495 0.950 . S
C507 C503 1.393 . S
C507 C506 1.391 1_545 S
H508 C516 0.950 . S
H509 C521 0.950 . S
H510 C518 0.950 . S
H511 C520 0.950 . S
H512 C522 0.950 . S
H513 C524 0.950 . S
H514 C526 0.950 . S
H515 C527 0.950 . S
C516 H508 0.950 . S
C516 C517 1.386 . S
C516 C518 1.391 . S
C517 C516 1.386 . S
C517 C521 1.393 . S
C518 H510 0.950 . S
C518 C516 1.391 . S
C518 C519 1.400 . S
C519 C518 1.400 . S
C519 C520 1.398 . S
C519 C525 1.491 . S
C520 H511 0.950 . S
C520 C519 1.398 . S
C520 C521 1.391 . S
C521 H509 0.950 . S
C521 C517 1.393 . S
C521 C520 1.391 . S
C522 H512 0.950 . S
C522 C523 1.386 . S
C522 C524 1.391 . S
C523 C522 1.386 . S
C523 C527 1.393 . S
C524 H513 0.950 . S
C524 C522 1.391 . S
C524 C525 1.400 . S
C525 C519 1.491 . S
C525 C524 1.400 . S
C525 C526 1.398 . S
C526 H514 0.950 . S
C526 C525 1.398 . S
C526 C527 1.391 . S
C527 H515 0.950 . S
C527 C523 1.393 . S
C527 C526 1.391 . S
H528 C536 0.950 . S
H529 C541 0.950 . S
H530 C538 0.950 . S
H531 C540 0.950 . S
H532 C542 0.950 . S
H533 C544 0.950 . S
H534 C546 0.950 . S
H535 C547 0.950 . S
C536 H528 0.950 . S
C536 C537 1.386 . S
C536 C538 1.391 . S
C537 C536 1.386 . S
C537 C541 1.393 . S
C538 H530 0.950 . S
C538 C536 1.391 . S
C538 C539 1.400 . S
C539 C538 1.400 . S
C539 C540 1.398 . S
C539 C545 1.491 . S
C540 H531 0.950 . S
C540 C539 1.398 . S
C540 C541 1.391 . S
C541 H529 0.950 . S
C541 C537 1.393 . S
C541 C540 1.391 . S
C542 H532 0.950 . S
C542 C543 1.386 . S
C542 C544 1.391 . S
C543 C542 1.386 . S
C543 C547 1.393 . S
C544 H533 0.950 . S
C544 C542 1.391 . S
C544 C545 1.400 . S
C545 C539 1.491 . S
C545 C544 1.400 . S
C545 C546 1.398 . S
C546 H534 0.950 . S
C546 C545 1.398 . S
C546 C547 1.391 . S
C547 H535 0.950 . S
C547 C543 1.393 . S
C547 C546 1.391 . S
H548 C556 0.950 . S
H549 C561 0.950 . S
H550 C558 0.950 . S
H551 C560 0.950 . S
H552 C562 0.950 . S
H553 C564 0.950 . S
H554 C566 0.950 . S
H555 C567 0.950 . S
C556 H548 0.950 . S
C556 C557 1.386 . S
C556 C558 1.391 . S
C557 C556 1.386 . S
C557 C561 1.393 . S
C558 H550 0.950 . S
C558 C556 1.391 . S
C558 C559 1.400 . S
C559 C558 1.400 . S
C559 C560 1.398 . S
C559 C565 1.491 . S
C560 H551 0.950 . S
C560 C559 1.398 . S
C560 C561 1.391 . S
C561 H549 0.950 . S
C561 C557 1.393 . S
C561 C560 1.391 . S
C562 H552 0.950 . S
C562 C563 1.386 . S
C562 C564 1.391 1_545 S
C563 C562 1.386 . S
C563 C567 1.393 . S
C564 H553 0.950 . S
C564 C562 1.391 1_565 S
C564 C565 1.400 . S
C565 C559 1.491 . S
C565 C564 1.400 . S
C565 C566 1.398 . S
C566 H554 0.950 . S
C566 C565 1.398 . S
C566 C567 1.391 1_565 S
C567 H555 0.950 . S
C567 C563 1.393 . S
C567 C566 1.391 1_545 S
H568 C576 0.950 . S
H569 C581 0.950 . S
H570 C578 0.950 . S
H571 C580 0.950 . S
H572 C582 0.950 . S
H573 C584 0.950 . S
H574 C586 0.950 . S
H575 C587 0.951 . S
C576 H568 0.950 . S
C576 C577 1.386 . S
C576 C578 1.391 . S
C577 C576 1.386 . S
C577 C581 1.393 . S
C578 H570 0.950 . S
C578 C576 1.391 . S
C578 C579 1.400 . S
C579 C578 1.400 . S
C579 C580 1.398 . S
C579 C585 1.491 . S
C580 H571 0.950 . S
C580 C579 1.398 . S
C580 C581 1.391 . S
C581 H569 0.950 . S
C581 C577 1.393 . S
C581 C580 1.391 . S
C582 H572 0.950 . S
C582 C583 1.386 . S
C582 C584 1.391 1_565 S
C583 C582 1.386 . S
C583 C587 1.393 1_565 S
C584 H573 0.950 . S
C584 C582 1.391 1_545 S
C584 C585 1.400 . S
C585 C579 1.491 . S
C585 C584 1.400 . S
C585 C586 1.398 . S
C586 H574 0.950 . S
C586 C585 1.398 . S
C586 C587 1.391 . S
C587 H575 0.951 . S
C587 C583 1.393 1_545 S
C587 C586 1.391 . S
H588 C596 0.950 . S
H589 C601 0.950 . S
H590 C598 0.950 . S
H591 C600 0.950 . S
H592 C602 0.950 . S
H593 C604 0.950 . S
H594 C606 0.950 . S
H595 C607 0.950 . S
C596 H588 0.950 . S
C596 C597 1.386 . S
C596 C598 1.391 . S
C597 C596 1.386 . S
C597 C601 1.393 . S
C598 H590 0.950 . S
C598 C596 1.391 . S
C598 C599 1.400 . S
C599 C598 1.400 . S
C599 C600 1.398 . S
C599 C605 1.491 . S
C600 H591 0.950 . S
C600 C599 1.398 . S
C600 C601 1.391 . S
C601 H589 0.950 . S
C601 C597 1.393 . S
C601 C600 1.391 . S
C602 H592 0.950 . S
C602 C603 1.386 . S
C602 C604 1.391 . S
C603 C602 1.386 . S
C603 C607 1.393 . S
C604 H593 0.950 . S
C604 C602 1.391 . S
C604 C605 1.400 . S
C605 C599 1.491 . S
C605 C604 1.400 . S
C605 C606 1.398 . S
C606 H594 0.950 . S
C606 C605 1.398 . S
C606 C607 1.391 . S
C607 H595 0.950 . S
C607 C603 1.393 . S
C607 C606 1.391 . S
H608 C616 0.950 . S
H609 C621 0.950 . S
H610 C618 0.950 . S
H611 C620 0.950 . S
H612 C622 0.950 . S
H613 C624 0.950 . S
H614 C626 0.950 . S
H615 C627 0.950 . S
C616 H608 0.950 . S
C616 C617 1.386 . S
C616 C618 1.391 . S
C617 C616 1.386 . S
C617 C621 1.393 . S
C618 H610 0.950 . S
C618 C616 1.391 . S
C618 C619 1.400 . S
C619 C618 1.400 . S
C619 C620 1.398 . S
C619 C625 1.491 . S
C620 H611 0.950 . S
C620 C619 1.398 . S
C620 C621 1.391 . S
C621 H609 0.950 . S
C621 C617 1.393 . S
C621 C620 1.391 . S
C622 H612 0.950 . S
C622 C623 1.386 . S
C622 C624 1.391 . S
C623 C622 1.386 . S
C623 C627 1.393 . S
C624 H613 0.950 . S
C624 C622 1.391 . S
C624 C625 1.400 . S
C625 C619 1.491 . S
C625 C624 1.400 . S
C625 C626 1.398 . S
C626 H614 0.950 . S
C626 C625 1.398 . S
C626 C627 1.391 . S
C627 H615 0.950 . S
C627 C623 1.393 . S
C627 C626 1.391 . S
H628 C636 0.950 . S
H629 C641 0.950 . S
H630 C638 0.950 . S
H631 C640 0.950 . S
H632 C642 0.950 . S
H633 C644 0.950 . S
H634 C646 0.950 . S
H635 C647 0.950 . S
C636 H628 0.950 . S
C636 C637 1.386 . S
C636 C638 1.391 . S
C637 C636 1.386 . S
C637 C641 1.393 . S
C638 H630 0.950 . S
C638 C636 1.391 . S
C638 C639 1.400 . S
C639 C638 1.400 . S
C639 C640 1.398 . S
C639 C645 1.491 . S
C640 H631 0.950 . S
C640 C639 1.398 . S
C640 C641 1.391 . S
C641 H629 0.950 . S
C641 C637 1.393 . S
C641 C640 1.391 . S
C642 H632 0.950 . S
C642 C643 1.386 . S
C642 C644 1.391 1_565 S
C643 C642 1.386 . S
C643 C647 1.393 1_565 S
C644 H633 0.950 . S
C644 C642 1.391 1_545 S
C644 C645 1.400 . S
C645 C639 1.491 . S
C645 C644 1.400 . S
C645 C646 1.398 . S
C646 H634 0.950 . S
C646 C645 1.398 . S
C646 C647 1.391 . S
C647 H635 0.950 . S
C647 C643 1.393 1_545 S
C647 C646 1.391 . S
H648 C656 0.950 . S
H649 C661 0.950 . S
H650 C658 0.950 . S
H651 C660 0.950 1_554 S
H652 C662 0.950 . S
H653 C664 0.950 . S
H654 C666 0.950 . S
H655 C667 0.950 . S
C656 H648 0.950 . S
C656 C657 1.386 . S
C656 C658 1.391 1_556 S
C657 C656 1.386 . S
C657 C661 1.393 . S
C658 H650 0.950 . S
C658 C656 1.391 1_554 S
C658 C659 1.400 . S
C659 C658 1.400 . S
C659 C660 1.398 1_554 S
C659 C665 1.491 . S
C660 H651 0.950 1_556 S
C660 C659 1.398 1_556 S
C660 C661 1.391 . S
C661 H649 0.950 . S
C661 C657 1.393 . S
C661 C660 1.391 . S
C662 H652 0.950 . S
C662 C663 1.386 . S
C662 C664 1.391 . S
C663 C662 1.386 . S
C663 C667 1.393 . S
C664 H653 0.950 . S
C664 C662 1.391 . S
C664 C665 1.400 . S
C665 C659 1.491 . S
C665 C664 1.400 . S
C665 C666 1.398 . S
C666 H654 0.950 . S
C666 C665 1.398 . S
C666 C667 1.391 . S
C667 H655 0.950 . S
C667 C663 1.393 . S
C667 C666 1.391 . S
H668 C676 0.950 . S
H669 C681 0.950 . S
H670 C678 0.950 . S
H671 C680 0.950 . S
H672 C682 0.950 . S
H673 C684 0.950 . S
H674 C686 0.950 . S
H675 C687 0.950 . S
C676 H668 0.950 . S
C676 C677 1.386 . S
C676 C678 1.391 . S
C677 C676 1.386 . S
C677 C681 1.393 . S
C678 H670 0.950 . S
C678 C676 1.391 . S
C678 C679 1.400 . S
C679 C678 1.400 . S
C679 C680 1.398 . S
C679 C685 1.491 . S
C680 H671 0.950 . S
C680 C679 1.398 . S
C680 C681 1.391 . S
C681 H669 0.950 . S
C681 C677 1.393 . S
C681 C680 1.391 . S
C682 H672 0.950 . S
C682 C683 1.386 . S
C682 C684 1.391 . S
C683 C682 1.386 . S
C683 C687 1.393 . S
C684 H673 0.950 . S
C684 C682 1.391 . S
C684 C685 1.400 . S
C685 C679 1.491 . S
C685 C684 1.400 . S
C685 C686 1.398 . S
C686 H674 0.950 . S
C686 C685 1.398 . S
C686 C687 1.391 . S
C687 H675 0.950 . S
C687 C683 1.393 . S
C687 C686 1.391 . S
H688 C696 0.950 . S
H689 C701 0.950 . S
H690 C698 0.950 . S
H691 C700 0.950 . S
H692 C702 0.950 . S
H693 C704 0.950 . S
H694 C706 0.950 . S
H695 C707 0.950 . S
C696 H688 0.950 . S
C696 C697 1.386 . S
C696 C698 1.391 . S
C697 C696 1.386 . S
C697 C701 1.393 . S
C698 H690 0.950 . S
C698 C696 1.391 . S
C698 C699 1.400 1_554 S
C699 C698 1.400 1_556 S
C699 C700 1.398 . S
C699 C705 1.491 . S
C700 H691 0.950 . S
C700 C699 1.398 . S
C700 C701 1.391 1_556 S
C701 H689 0.950 . S
C701 C697 1.393 . S
C701 C700 1.391 1_554 S
C702 H692 0.950 . S
C702 C703 1.386 . S
C702 C704 1.391 . S
C703 C702 1.386 . S
C703 C707 1.393 . S
C704 H693 0.950 . S
C704 C702 1.391 . S
C704 C705 1.400 . S
C705 C699 1.491 . S
C705 C704 1.400 . S
C705 C706 1.398 . S
C706 H694 0.950 . S
C706 C705 1.398 . S
C706 C707 1.391 . S
C707 H695 0.950 . S
C707 C703 1.393 . S
C707 C706 1.391 . S
H708 C716 0.950 . S
H709 C721 0.950 . S
H710 C718 0.950 . S
H711 C720 0.950 . S
H712 C722 0.950 . S
H713 C724 0.950 . S
H714 C726 0.950 . S
H715 C727 0.950 . S
C716 H708 0.950 . S
C716 C717 1.386 . S
C716 C718 1.391 . S
C717 C716 1.386 . S
C717 C721 1.393 . S
C718 H710 0.950 . S
C718 C716 1.391 . S
C718 C719 1.400 . S
C719 C718 1.400 . S
C719 C720 1.398 . S
C719 C725 1.491 . S
C720 H711 0.950 . S
C720 C719 1.398 . S
C720 C721 1.391 . S
C721 H709 0.950 . S
C721 C717 1.393 . S
C721 C720 1.391 . S
C722 H712 0.950 . S
C722 C723 1.386 . S
C722 C724 1.391 . S
C723 C722 1.386 . S
C723 C727 1.393 . S
C724 H713 0.950 . S
C724 C722 1.391 . S
C724 C725 1.400 . S
C725 C719 1.491 . S
C725 C724 1.400 . S
C725 C726 1.398 . S
C726 H714 0.950 . S
C726 C725 1.398 . S
C726 C727 1.391 . S
C727 H715 0.950 . S
C727 C723 1.393 . S
C727 C726 1.391 . S
H728 C736 0.950 . S
H729 C741 0.950 . S
H730 C738 0.950 . S
H731 C740 0.950 . S
H732 C742 0.950 . S
H733 C744 0.950 . S
H734 C746 0.950 . S
H735 C747 0.950 . S
C736 H728 0.950 . S
C736 C737 1.386 . S
C736 C738 1.391 1_554 S
C737 C736 1.386 . S
C737 C741 1.393 . S
C738 H730 0.950 . S
C738 C736 1.391 1_556 S
C738 C739 1.400 . S
C739 C738 1.400 . S
C739 C740 1.398 1_556 S
C739 C745 1.491 . S
C740 H731 0.950 . S
C740 C739 1.398 1_554 S
C740 C741 1.391 . S
C741 H729 0.950 . S
C741 C737 1.393 . S
C741 C740 1.391 . S
C742 H732 0.950 . S
C742 C743 1.386 . S
C742 C744 1.391 . S
C743 C742 1.386 . S
C743 C747 1.393 . S
C744 H733 0.950 . S
C744 C742 1.391 . S
C744 C745 1.400 . S
C745 C739 1.491 . S
C745 C744 1.400 . S
C745 C746 1.398 . S
C746 H734 0.950 . S
C746 C745 1.398 . S
C746 C747 1.391 . S
C747 H735 0.950 . S
C747 C743 1.393 . S
C747 C746 1.391 . S
H748 C756 0.950 . S
H749 C761 0.950 . S
H750 C758 0.950 . S
H751 C760 0.950 . S
H752 C762 0.950 . S
H753 C764 0.950 . S
H754 C766 0.950 . S
H755 C767 0.950 . S
C756 H748 0.950 . S
C756 C757 1.386 . S
C756 C758 1.391 . S
C757 C756 1.386 . S
C757 C761 1.393 . S
C758 H750 0.950 . S
C758 C756 1.391 . S
C758 C759 1.400 . S
C759 C758 1.400 . S
C759 C760 1.398 . S
C759 C765 1.491 . S
C760 H751 0.950 . S
C760 C759 1.398 . S
C760 C761 1.391 . S
C761 H749 0.950 . S
C761 C757 1.393 . S
C761 C760 1.391 . S
C762 H752 0.950 . S
C762 C763 1.386 . S
C762 C764 1.391 . S
C763 C762 1.386 . S
C763 C767 1.393 . S
C764 H753 0.950 . S
C764 C762 1.391 . S
C764 C765 1.400 . S
C765 C759 1.491 . S
C765 C764 1.400 . S
C765 C766 1.398 . S
C766 H754 0.950 . S
C766 C765 1.398 . S
C766 C767 1.391 . S
C767 H755 0.950 . S
C767 C763 1.393 . S
C767 C766 1.391 . S
H768 C776 0.950 . S
H769 C781 0.950 . S
H770 C778 0.950 1_554 S
H771 C780 0.950 1_554 S
H772 C782 0.950 . S
H773 C784 0.950 . S
H774 C786 0.950 . S
H775 C787 0.950 . S
C776 H768 0.950 . S
C776 C777 1.386 . S
C776 C778 1.391 . S
C777 C776 1.386 . S
C777 C781 1.393 . S
C778 H770 0.950 1_556 S
C778 C776 1.391 . S
C778 C779 1.400 1_556 S
C779 C778 1.400 1_554 S
C779 C780 1.398 1_554 S
C779 C785 1.491 . S
C780 H771 0.950 1_556 S
C780 C779 1.398 1_556 S
C780 C781 1.391 . S
C781 H769 0.950 . S
C781 C777 1.393 . S
C781 C780 1.391 . S
C782 H772 0.950 . S
C782 C783 1.386 . S
C782 C784 1.391 . S
C783 C782 1.386 . S
C783 C787 1.393 . S
C784 H773 0.950 . S
C784 C782 1.391 . S
C784 C785 1.400 . S
C785 C779 1.491 . S
C785 C784 1.400 . S
C785 C786 1.398 . S
C786 H774 0.950 . S
C786 C785 1.398 . S
C786 C787 1.391 . S
C787 H775 0.950 . S
C787 C783 1.393 . S
C787 C786 1.391 . S
H788 C796 0.950 . S
H789 C801 0.950 . S
H790 C798 0.950 . S
H791 C800 0.950 . S
H792 C802 0.950 . S
H793 C804 0.950 . S
H794 C806 0.950 . S
H795 C807 0.950 . S
C796 H788 0.950 . S
C796 C797 1.386 . S
C796 C798 1.391 . S
C797 C796 1.386 . S
C797 C801 1.393 . S
C798 H790 0.950 . S
C798 C796 1.391 . S
C798 C799 1.400 . S
C799 C798 1.400 . S
C799 C800 1.398 . S
C799 C805 1.491 . S
C800 H791 0.950 . S
C800 C799 1.398 . S
C800 C801 1.391 . S
C801 H789 0.950 . S
C801 C797 1.393 . S
C801 C800 1.391 . S
C802 H792 0.950 . S
C802 C803 1.386 . S
C802 C804 1.391 . S
C803 C802 1.386 . S
C803 C807 1.393 . S
C804 H793 0.950 . S
C804 C802 1.391 . S
C804 C805 1.400 . S
C805 C799 1.491 . S
C805 C804 1.400 . S
C805 C806 1.398 . S
C806 H794 0.950 . S
C806 C805 1.398 . S
C806 C807 1.391 . S
C807 H795 0.950 . S
C807 C803 1.393 . S
C807 C806 1.391 . S
H808 C816 0.950 . S
H809 C821 0.950 . S
H810 C818 0.950 . S
H811 C820 0.950 . S
H812 C822 0.950 . S
H813 C824 0.950 . S
H814 C826 0.950 . S
H815 C827 0.950 . S
C816 H808 0.950 . S
C816 C817 1.386 . S
C816 C818 1.391 . S
C817 C816 1.386 . S
C817 C821 1.393 . S
C818 H810 0.950 . S
C818 C816 1.391 . S
C818 C819 1.400 . S
C819 C818 1.400 . S
C819 C820 1.398 . S
C819 C825 1.491 . S
C820 H811 0.950 . S
C820 C819 1.398 . S
C820 C821 1.391 . S
C821 H809 0.950 . S
C821 C817 1.393 . S
C821 C820 1.391 . S
C822 H812 0.950 . S
C822 C823 1.386 . S
C822 C824 1.391 . S
C823 C822 1.386 . S
C823 C827 1.393 . S
C824 H813 0.950 . S
C824 C822 1.391 . S
C824 C825 1.400 . S
C825 C819 1.491 . S
C825 C824 1.400 . S
C825 C826 1.398 . S
C826 H814 0.950 . S
C826 C825 1.398 . S
C826 C827 1.391 . S
C827 H815 0.950 . S
C827 C823 1.393 . S
C827 C826 1.391 . S
H828 C836 0.950 . S
H829 C841 0.950 . S
H830 C838 0.950 . S
H831 C840 0.950 . S
H832 C842 0.950 . S
H833 C844 0.950 . S
H834 C846 0.950 . S
H835 C847 0.950 . S
C836 H828 0.950 . S
C836 C837 1.386 . S
C836 C838 1.391 . S
C837 C836 1.386 . S
C837 C841 1.393 . S
C838 H830 0.950 . S
C838 C836 1.391 . S
C838 C839 1.400 . S
C839 C838 1.400 . S
C839 C840 1.398 . S
C839 C845 1.491 . S
C840 H831 0.950 . S
C840 C839 1.398 . S
C840 C841 1.391 . S
C841 H829 0.950 . S
C841 C837 1.393 . S
C841 C840 1.391 . S
C842 H832 0.950 . S
C842 C843 1.386 . S
C842 C844 1.391 . S
C843 C842 1.386 . S
C843 C847 1.393 . S
C844 H833 0.950 . S
C844 C842 1.391 . S
C844 C845 1.400 . S
C845 C839 1.491 . S
C845 C844 1.400 . S
C845 C846 1.398 . S
C846 H834 0.950 . S
C846 C845 1.398 . S
C846 C847 1.391 . S
C847 H835 0.950 . S
C847 C843 1.393 . S
C847 C846 1.391 . S
H848 C856 0.950 . S
H849 C861 0.950 . S
H850 C858 0.950 . S
H851 C860 0.950 . S
H852 C862 0.950 . S
H853 C864 0.950 . S
H854 C866 0.950 . S
H855 C867 0.950 . S
C856 H848 0.950 . S
C856 C857 1.386 . S
C856 C858 1.391 . S
C857 C856 1.386 . S
C857 C861 1.393 . S
C858 H850 0.950 . S
C858 C856 1.391 . S
C858 C859 1.400 . S
C859 C858 1.400 . S
C859 C860 1.398 . S
C859 C865 1.491 . S
C860 H851 0.950 . S
C860 C859 1.398 . S
C860 C861 1.391 . S
C861 H849 0.950 . S
C861 C857 1.393 . S
C861 C860 1.391 . S
C862 H852 0.950 . S
C862 C863 1.386 . S
C862 C864 1.391 . S
C863 C862 1.386 . S
C863 C867 1.393 . S
C864 H853 0.950 . S
C864 C862 1.391 . S
C864 C865 1.400 . S
C865 C859 1.491 . S
C865 C864 1.400 . S
C865 C866 1.398 . S
C866 H854 0.950 . S
C866 C865 1.398 . S
C866 C867 1.391 . S
C867 H855 0.950 . S
C867 C863 1.393 . S
C867 C866 1.391 . S
H868 C876 0.950 . S
H869 C881 0.950 . S
H870 C878 0.950 . S
H871 C880 0.950 . S
H872 C882 0.950 . S
H873 C884 0.950 . S
H874 C886 0.950 . S
H875 C887 0.950 . S
C876 H868 0.950 . S
C876 C877 1.386 . S
C876 C878 1.391 . S
C877 C876 1.386 . S
C877 C881 1.393 . S
C878 H870 0.950 . S
C878 C876 1.391 . S
C878 C879 1.400 . S
C879 C878 1.400 . S
C879 C880 1.398 . S
C879 C885 1.491 . S
C880 H871 0.950 . S
C880 C879 1.398 . S
C880 C881 1.391 . S
C881 H869 0.950 . S
C881 C877 1.393 . S
C881 C880 1.391 . S
C882 H872 0.950 . S
C882 C883 1.386 . S
C882 C884 1.391 . S
C883 C882 1.386 . S
C883 C887 1.393 . S
C884 H873 0.950 . S
C884 C882 1.391 . S
C884 C885 1.400 . S
C885 C879 1.491 . S
C885 C884 1.400 . S
C885 C886 1.398 . S
C886 H874 0.950 . S
C886 C885 1.398 . S
C886 C887 1.391 . S
C887 H875 0.950 . S
C887 C883 1.393 . S
C887 C886 1.391 . S
H888 C896 0.950 . S
H889 C901 0.950 . S
H890 C898 0.950 . S
H891 C900 0.950 . S
H892 C902 0.950 . S
H893 C904 0.950 . S
H894 C906 0.950 . S
H895 C907 0.950 . S
C896 H888 0.950 . S
C896 C897 1.386 . S
C896 C898 1.391 . S
C897 C896 1.386 . S
C897 C901 1.393 . S
C898 H890 0.950 . S
C898 C896 1.391 . S
C898 C899 1.400 . S
C899 C898 1.400 . S
C899 C900 1.398 . S
C899 C905 1.491 . S
C900 H891 0.950 . S
C900 C899 1.398 . S
C900 C901 1.391 . S
C901 H889 0.950 . S
C901 C897 1.393 . S
C901 C900 1.391 . S
C902 H892 0.950 . S
C902 C903 1.386 . S
C902 C904 1.391 . S
C903 C902 1.386 . S
C903 C907 1.393 . S
C904 H893 0.950 . S
C904 C902 1.391 . S
C904 C905 1.400 . S
C905 C899 1.491 . S
C905 C904 1.400 . S
C905 C906 1.398 . S
C906 H894 0.950 . S
C906 C905 1.398 . S
C906 C907 1.391 . S
C907 H895 0.950 . S
C907 C903 1.393 . S
C907 C906 1.391 . S
H908 C916 0.950 . S
H909 C921 0.950 . S
H910 C918 0.950 . S
H911 C920 0.950 . S
H912 C922 0.950 . S
H913 C924 0.950 . S
H914 C926 0.950 . S
H915 C927 0.950 . S
C916 H908 0.950 . S
C916 C917 1.386 . S
C916 C918 1.391 . S
C917 C916 1.386 . S
C917 C921 1.393 . S
C918 H910 0.950 . S
C918 C916 1.391 . S
C918 C919 1.400 . S
C919 C918 1.400 . S
C919 C920 1.398 . S
C919 C925 1.491 . S
C920 H911 0.950 . S
C920 C919 1.398 . S
C920 C921 1.391 . S
C921 H909 0.950 . S
C921 C917 1.393 . S
C921 C920 1.391 . S
C922 H912 0.950 . S
C922 C923 1.386 . S
C922 C924 1.391 . S
C923 C922 1.386 . S
C923 C927 1.393 . S
C924 H913 0.950 . S
C924 C922 1.391 . S
C924 C925 1.400 . S
C925 C919 1.491 . S
C925 C924 1.400 . S
C925 C926 1.398 . S
C926 H914 0.950 . S
C926 C925 1.398 . S
C926 C927 1.391 . S
C927 H915 0.950 . S
C927 C923 1.393 . S
C927 C926 1.391 . S
H928 C936 0.950 . S
H929 C941 0.950 . S
H930 C938 0.950 . S
H931 C940 0.950 . S
H932 C942 0.950 . S
H933 C944 0.950 . S
H934 C946 0.950 . S
H935 C947 0.950 . S
C936 H928 0.950 . S
C936 C937 1.386 . S
C936 C938 1.391 . S
C937 C936 1.386 . S
C937 C941 1.393 . S
C938 H930 0.950 . S
C938 C936 1.391 . S
C938 C939 1.400 . S
C939 C938 1.400 . S
C939 C940 1.398 . S
C939 C945 1.491 . S
C940 H931 0.950 . S
C940 C939 1.398 . S
C940 C941 1.391 . S
C941 H929 0.950 . S
C941 C937 1.393 . S
C941 C940 1.391 . S
C942 H932 0.950 . S
C942 C943 1.386 . S
C942 C944 1.391 . S
C943 C942 1.386 . S
C943 C947 1.393 . S
C944 H933 0.950 . S
C944 C942 1.391 . S
C944 C945 1.400 . S
C945 C939 1.491 . S
C945 C944 1.400 . S
C945 C946 1.398 . S
C946 H934 0.950 . S
C946 C945 1.398 . S
C946 C947 1.391 . S
C947 H935 0.950 . S
C947 C943 1.393 . S
C947 C946 1.391 . S
H948 C956 0.950 . S
H949 C961 0.950 . S
H950 C958 0.950 . S
H951 C960 0.950 . S
H952 C962 0.950 . S
H953 C964 0.950 . S
H954 C966 0.950 . S
H955 C967 0.950 . S
C956 H948 0.950 . S
C956 C957 1.386 . S
C956 C958 1.391 . S
C957 C956 1.386 . S
C957 C961 1.393 . S
C958 H950 0.950 . S
C958 C956 1.391 . S
C958 C959 1.400 . S
C959 C958 1.400 . S
C959 C960 1.398 . S
C959 C965 1.491 . S
C960 H951 0.950 . S
C960 C959 1.398 . S
C960 C961 1.391 . S
C961 H949 0.950 . S
C961 C957 1.393 . S
C961 C960 1.391 . S
C962 H952 0.950 . S
C962 C963 1.386 . S
C962 C964 1.391 . S
C963 C962 1.386 . S
C963 C967 1.393 . S
C964 H953 0.950 . S
C964 C962 1.391 . S
C964 C965 1.400 . S
C965 C959 1.491 . S
C965 C964 1.400 . S
C965 C966 1.398 . S
C966 H954 0.950 . S
C966 C965 1.398 . S
C966 C967 1.391 . S
C967 H955 0.950 . S
C967 C963 1.393 . S
C967 C966 1.391 . S
C497 C116 1.815 . S
C503 C226 1.812 . S
C523 C310 1.807 . S
C517 C135 1.812 . S
C543 C303 1.819 . S
C537 C78 1.813 . S
C557 C97 1.812 . S
C563 C219 1.809 . S
C583 C383 1.816 . S
C577 C40 1.820 . S
C603 C467 1.811 . S
C597 C59 1.820 . S
C617 C2 1.816 . S
C623 C460 1.810 . S
C637 C21 1.815 . S
C643 C376 1.819 . S
C663 C210 1.577 . S
C657 C25 1.744 . S
C683 C294 1.569 . S
C677 C6 1.738 . S
C703 C305 1.488 . S
C697 C63 1.745 . S
C723 C221 1.456 . S
C717 C44 1.740 . S
C743 C389 1.588 . S
C737 C101 1.740 . S
C757 C82 1.735 . S
C763 C473 1.566 . S
C783 C462 1.455 . S
C777 C139 1.737 . S
C797 C120 1.738 . S
C803 C378 1.454 . S
C823 C208 1.524 . S
C817 C11 1.448 . S
C843 C292 1.525 . S
C837 C30 1.456 . S
C857 C49 1.458 . S
C863 C299 1.498 . S
C883 C215 1.482 . S
C877 C68 1.439 . S
C903 C387 1.519 . S
C897 C87 1.420 . S
C917 C106 1.411 . S
C923 C471 1.519 . S
C937 C125 1.381 . S
C943 C478 1.484 . S
C957 C144 1.416 . S
C963 C394 1.499 . S
