# Generated by pormake.
# Topology rtl, (3,6)-cn, num edge types: 1
# Building blocks:
#     Node 0, Type 0, BuildingBlock: PAMTOO_clean_linker_0, # of connection points: 3
#     Node 1, Type 0, BuildingBlock: PAMTOO_clean_linker_0, # of connection points: 3
#     Node 2, Type 0, BuildingBlock: PAMTOO_clean_linker_0, # of connection points: 3
#     Node 3, Type 0, BuildingBlock: PAMTOO_clean_linker_0, # of connection points: 3
#     Node 4, Type 1, BuildingBlock: KUMBOL_clean_sbu_1, # of connection points: 6
#     Node 5, Type 1, BuildingBlock: KUMBOL_clean_sbu_1, # of connection points: 6
#     Edge 6, Type (0, 1), BuildingBlock: AJUNOK_clean_linker_0, # of connection points: 2
#     Edge 7, Type (0, 1), BuildingBlock: AJUNOK_clean_linker_0, # of connection points: 2
#     Edge 8, Type (0, 1), BuildingBlock: AJUNOK_clean_linker_0, # of connection points: 2
#     Edge 9, Type (0, 1), BuildingBlock: AJUNOK_clean_linker_0, # of connection points: 2
#     Edge 10, Type (0, 1), BuildingBlock: AJUNOK_clean_linker_0, # of connection points: 2
#     Edge 11, Type (0, 1), BuildingBlock: AJUNOK_clean_linker_0, # of connection points: 2
#     Edge 12, Type (0, 1), BuildingBlock: AJUNOK_clean_linker_0, # of connection points: 2
#     Edge 13, Type (0, 1), BuildingBlock: AJUNOK_clean_linker_0, # of connection points: 2
#     Edge 14, Type (0, 1), BuildingBlock: AJUNOK_clean_linker_0, # of connection points: 2
#     Edge 15, Type (0, 1), BuildingBlock: AJUNOK_clean_linker_0, # of connection points: 2
#     Edge 16, Type (0, 1), BuildingBlock: AJUNOK_clean_linker_0, # of connection points: 2
#     Edge 17, Type (0, 1), BuildingBlock: AJUNOK_clean_linker_0, # of connection points: 2
# Relax obj value: 0.053
# Max RMSD: 0.238
# Mean RMSD: 0.175
data_MOF--net-rtl--node1-KUMBOL_clean_sbu_1--node2-PAMTOO_clean_linker_0--edge1-AJUNOK_clean_linker_0
_symmetry_space_group_name_H-M    P1
_symmetry_Int_Tables_number       1
_symmetry_cell_setting            triclinic
loop_
_symmetry_equiv_pos_as_xyz
'x, y, z'
_cell_length_a     25.581455
_cell_length_b     26.310917
_cell_length_c     20.781011
_cell_angle_alpha  75.343705
_cell_angle_beta   98.082189
_cell_angle_gamma 92.228952
loop_
_atom_site_label
_atom_site_type_symbol
_atom_site_fract_x
_atom_site_fract_y
_atom_site_fract_z
_atom_type_partial_charge
H0 H 0.16466 0.92949 0.97999 0.0
H1 H 0.27141 0.82013 0.12304 0.0
H2 H 0.25875 0.82699 0.91228 0.0
H3 H 0.26346 0.72439 0.99505 0.0
C4 C 0.29164 0.72866 0.03939 0.0
O5 O 0.306 0.78072 0.03213 0.0
H6 H 0.27085 0.71501 0.08427 0.0
C7 C 0.19508 0.89972 0.99117 0.0
C8 C 0.20978 0.88151 0.93877 0.0
C9 C 0.21717 0.87835 0.05784 0.0
C10 C 0.2543 0.83753 0.07178 0.0
C11 C 0.26969 0.81935 0.01914 0.0
C12 C 0.24737 0.84148 0.95269 0.0
H13 H 0.62737 0.63247 0.68604 0.0
H14 H 0.74301 0.72829 0.57813 0.0
H15 H 0.73574 0.7273 0.78398 0.0
H16 H 0.76262 0.83329 0.70207 0.0
C17 C 0.77631 0.8211 0.65973 0.0
O18 O 0.78416 0.7674 0.67794 0.0
H19 H 0.74459 0.83196 0.61616 0.0
C20 C 0.65907 0.66123 0.68386 0.0
C21 C 0.67792 0.67851 0.74129 0.0
C22 C 0.68264 0.67824 0.62504 0.0
C23 C 0.72465 0.71443 0.62335 0.0
C24 C 0.74333 0.73282 0.68018 0.0
C25 C 0.72039 0.71422 0.73953 0.0
H26 H 0.92026 0.11084 0.15412 0.0
H27 H 0.81487 0.22349 0.01388 0.0
H28 H 0.83355 0.21727 0.22483 0.0
H29 H 0.72724 0.22689 0.16118 0.0
C30 C 0.73168 0.25421 0.11167 0.0
O31 O 0.7845 0.26405 0.10639 0.0
H32 H 0.71388 0.23467 0.07212 0.0
C33 C 0.89116 0.14181 0.14369 0.0
C34 C 0.87855 0.16055 0.19667 0.0
C35 C 0.86854 0.16396 0.07748 0.0
C36 C 0.83266 0.20573 0.06474 0.0
C37 C 0.81962 0.22455 0.11808 0.0
C38 C 0.84319 0.20234 0.18388 0.0
H39 H 0.43045 0.41692 0.43268 0.0
H40 H 0.31572 0.3232 0.5452 0.0
H41 H 0.33903 0.30118 0.35345 0.0
H42 H 0.22747 0.28553 0.38945 0.0
C43 C 0.23745 0.27064 0.44473 0.0
O44 O 0.29148 0.26471 0.46103 0.0
H45 H 0.22357 0.30048 0.46804 0.0
C46 C 0.39929 0.38776 0.43757 0.0
C47 C 0.38578 0.36289 0.38539 0.0
C48 C 0.37308 0.3759 0.49462 0.0
C49 C 0.33645 0.33401 0.5017 0.0
C50 C 0.32523 0.30615 0.45189 0.0
C51 C 0.34925 0.32127 0.39305 0.0
C52 C 0.95285 0.17045 0.50429 0.0
C53 C 0.86479 0.14686 0.46065 0.0
C54 C 0.91291 0.13322 0.5031 0.0
C55 C 0.85807 0.19771 0.4183 0.0
C56 C 0.94589 0.22182 0.46279 0.0
C57 C 0.89845 0.23511 0.41948 0.0
N58 N 0.99925 0.1558 0.54449 0.0
C59 C 0.03935 0.19107 0.5479 0.0
C60 C 0.98726 0.25803 0.46522 0.0
C61 C 0.03412 0.24261 0.50819 0.0
Gd62 Gd 0.07015 0.96295 0.52966 0.0
Gd63 Gd 1.00582 0.06808 0.60706 0.0
N64 N 0.9212 0.08374 0.5433 0.0
C65 C 0.82457 0.10917 0.46263 0.0
C66 C 0.88032 0.04873 0.54972 0.0
C67 C 0.83202 0.06027 0.50841 0.0
H68 H 0.88363 1.01268 0.58816 0.0
H69 H 0.80022 0.03175 0.51284 0.0
H70 H 0.19034 1.01358 0.57371 0.0
H71 H 0.07511 0.17955 0.58202 0.0
H72 H 0.27212 0.98372 0.6485 0.0
H73 H 0.78705 0.11806 0.43081 0.0
H74 H 0.82157 0.20865 0.38488 0.0
H75 H 0.99179 0.85717 0.54171 0.0
H76 H 0.98348 0.29786 0.43406 0.0
H77 H 0.0662 0.27039 0.51073 0.0
H78 H 0.24352 0.79997 0.73955 0.0
H79 H 0.89261 0.27421 0.38667 0.0
H80 H 0.07667 0.72579 0.674 0.0
H81 H 0.99533 0.76301 0.60069 0.0
N82 N 0.06964 0.87321 0.58271 0.0
C83 C 0.11505 0.85351 0.62194 0.0
C84 C 0.02709 0.84149 0.57449 0.0
C85 C 0.07527 0.76716 0.64837 0.0
C86 C 0.02919 0.78806 0.60728 0.0
C87 C 0.11892 0.79991 0.65622 0.0
H88 H 0.16923 0.7399 0.72518 0.0
N89 N 0.15161 0.93947 0.59776 0.0
C90 C 0.15715 0.88754 0.62985 0.0
C91 C 0.24531 0.90384 0.67985 0.0
C92 C 0.20394 0.86854 0.67243 0.0
C93 C 0.19282 0.97346 0.60248 0.0
C94 C 0.23987 0.95638 0.64424 0.0
O95 O 1.00933 0.08703 0.4958 0.0
O96 O 0.99762 1.0071 0.47095 0.0
O97 O 0.12164 0.97574 0.45259 0.0
O98 O 0.06331 0.91369 0.4592 0.0
O99 O 0.97531 0.98366 0.62981 0.0
O100 O 0.98281 0.95378 0.53607 0.0
O101 O 0.0709 0.94463 0.64195 0.0
O102 O 0.07888 0.0252 0.66622 0.0
O103 O 0.95637 0.05973 0.68575 0.0
O104 O 1.01557 0.12082 0.67329 0.0
O105 O 0.10397 0.04591 0.50931 0.0
O106 O 0.093 0.07977 0.59913 0.0
C107 C 0.99276 0.05835 0.45399 0.0
C108 C 0.96125 0.95147 0.59073 0.0
C109 C 0.08648 0.95432 0.3523 0.0
C110 C 0.1081 0.95229 0.24251 0.0
C111 C 0.03332 1.00336 0.2513 0.0
C112 C 0.04397 0.98784 0.32121 0.0
C113 C 0.0652 0.98579 0.21203 0.0
C114 C 0.11824 0.93632 0.31288 0.0
C115 C 0.09943 0.93933 0.42561 0.0
C116 C 0.20792 0.81515 0.70649 0.0
C117 C 0.16564 0.78092 0.69823 0.0
H118 H 0.28181 0.89081 0.71226 0.0
C119 C 0.08654 0.97425 0.6831 0.0
C120 C 0.11486 0.08109 0.54484 0.0
C121 C 0.99469 0.0846 0.78241 0.0
C122 C 0.97474 0.08907 0.8919 0.0
C123 C 0.0501 0.03875 0.8834 0.0
C124 C 0.03819 0.0524 0.81356 0.0
C125 C 1.01848 0.05681 0.92253 0.0
C126 C 0.96332 0.10324 0.82164 0.0
C127 C 0.98005 0.09714 0.70939 0.0
H128 H 1.0004 0.02917 0.22751 0.0
H129 H 1.01923 1.00206 0.35092 0.0
H130 H 0.05615 0.99804 0.15785 0.0
H131 H 0.1514 0.91076 0.33689 0.0
H132 H 0.08372 1.01391 0.90726 0.0
H133 H 0.06262 0.03765 0.78396 0.0
H134 H 0.0283 0.04586 0.97668 0.0
H135 H 0.92941 0.12776 0.79765 0.0
C136 C 0.67813 0.62021 0.06275 0.0
C137 C 0.64495 0.70917 0.02163 0.0
C138 C 0.63786 0.65603 0.05477 0.0
C139 C 0.69193 0.72503 0.99425 0.0
C140 C 0.72626 0.63636 0.03808 0.0
C141 C 0.73255 0.68874 1.00262 0.0
N142 N 0.67037 0.56947 0.09545 0.0
C143 C 0.71013 0.53363 0.10977 0.0
C144 C 0.76683 0.59946 0.0506 0.0
C145 C 0.75892 0.54802 0.08733 0.0
Gd146 Gd 0.48746 0.48537 1.00426 0.0
Gd147 Gd 0.5879 0.5483 0.13126 0.0
N148 N 0.59299 0.63946 0.08231 0.0
C149 C 0.60534 0.74513 0.0189 0.0
C150 C 0.5566 0.67531 0.08488 0.0
C151 C 0.56149 0.72828 0.05184 0.0
H152 H 0.52429 0.66388 0.11362 0.0
H153 H 0.53186 0.75624 0.05283 0.0
H154 H 0.52352 0.35936 0.0466 0.0
H155 H 0.7041 0.49392 0.13829 0.0
H156 H 0.48996 0.27349 0.10733 0.0
H157 H 0.60927 0.78629 0.99392 0.0
H158 H 0.69779 0.76559 0.96803 0.0
H159 H 0.37974 0.56408 0.95558 0.0
H160 H 0.8045 0.61038 0.03276 0.0
H161 H 0.79025 0.51939 0.09799 0.0
H162 H 0.32378 0.31526 0.16415 0.0
H163 H 0.769 0.70179 0.9825 0.0
H164 H 0.25788 0.48993 0.06843 0.0
H165 H 0.29117 0.56678 0.9887 0.0
N166 N 0.39948 0.49018 0.02356 0.0
C167 C 0.38005 0.44564 0.06201 0.0
C168 C 0.36692 0.53182 0.99355 0.0
C169 C 0.29748 0.48934 0.05574 0.0
C170 C 0.31615 0.53284 0.01088 0.0
C171 C 0.32878 0.44427 0.08002 0.0
H172 H 0.27058 0.39587 0.13412 0.0
N173 N 0.45833 0.40213 0.05861 0.0
C174 C 0.40984 0.4 0.07877 0.0
C175 C 0.41911 0.30637 0.12534 0.0
C176 C 0.38943 0.35218 0.11415 0.0
C177 C 0.48621 0.35733 0.06592 0.0
C178 C 0.46727 0.30884 0.10008 0.0
O179 O 0.60591 0.54684 0.02844 0.0
O180 O 0.52586 0.56374 0.9643 0.0
O181 O 0.51391 0.47156 0.91461 0.0
O182 O 0.43163 0.46427 0.92715 0.0
O183 O 0.50257 0.57519 0.11242 0.0
O184 O 0.47089 0.56977 1.00446 0.0
O185 O 0.50617 0.445 0.11497 0.0
O186 O 0.5111 0.51356 0.16338 0.0
O187 O 0.61528 0.58963 0.208 0.0
O188 O 0.62521 0.50556 0.22942 0.0
O189 O 0.57013 0.45177 0.02744 0.0
O190 O 0.60737 0.46439 0.13174 0.0
C191 C 0.57733 0.56976 0.97189 0.0
C192 C 0.46932 0.58963 0.05648 0.0
C193 C 0.45026 0.4948 0.81771 0.0
C194 C 0.41854 0.49406 0.70129 0.0
C195 C 0.40995 0.57272 0.74098 0.0
C196 C 0.43449 0.54725 0.8046 0.0
C197 C 0.40075 0.54607 0.69023 0.0
C198 C 0.44374 0.46893 0.7658 0.0
C199 C 0.46617 0.46469 0.887 0.0
C200 C 0.33978 0.35146 0.13586 0.0
C201 C 0.30956 0.39743 0.11895 0.0
H202 H 0.40474 0.26881 0.15223 0.0
C203 C 0.49558 0.46578 0.16251 0.0
C204 C 0.60513 0.4406 0.08227 0.0
C205 C 0.60543 0.54106 0.3171 0.0
C206 C 0.60396 0.56833 0.42078 0.0
C207 C 0.54014 0.50441 0.39058 0.0
C208 C 0.56234 0.50748 0.3321 0.0
C209 C 0.56074 0.53455 0.43474 0.0
C210 C 0.62589 0.57158 0.3614 0.0
C211 C 0.6277 0.54665 0.25401 0.0
H212 H 0.39627 0.61268 0.73161 0.0
H213 H 0.43907 0.56764 0.84432 0.0
H214 H 0.37829 0.56602 0.64314 0.0
H215 H 0.45695 0.42865 0.77657 0.0
H216 H 0.50688 0.47854 0.40174 0.0
H217 H 0.54567 0.48382 0.29859 0.0
H218 H 0.54324 0.53103 0.48021 0.0
H219 H 0.65827 0.59846 0.34899 0.0
C220 C 0.20383 0.20157 0.53869 0.0
C221 C 0.20959 0.21906 0.47023 0.0
C222 C 0.17475 0.15595 0.56293 0.0
C223 C 0.15021 0.12602 0.51963 0.0
H224 H 0.22095 0.22409 0.57349 0.0
H225 H 0.17055 0.14472 0.61582 0.0
S226 S 0.15709 0.15303 0.33649 0.0
N227 N 0.19145 0.20116 0.36019 0.0
N228 N 0.13652 0.11599 0.40504 0.0
C229 C 0.15771 0.14199 0.45141 0.0
C230 C 0.18739 0.18835 0.4269 0.0
C231 C 0.35933 0.69048 0.98715 0.0
C232 C 0.3398 0.69537 0.04529 0.0
C233 C 0.40211 0.6574 0.99119 0.0
C234 C 0.42693 0.62779 0.05353 0.0
H235 H 0.3407 0.71169 0.93811 0.0
H236 H 0.41534 0.65444 0.94499 0.0
S237 S 0.39409 0.6314 0.22102 0.0
N238 N 0.35111 0.67158 0.1671 0.0
N239 N 0.43103 0.60917 0.17511 0.0
C240 C 0.40927 0.63447 0.11218 0.0
C241 C 0.36584 0.66827 0.10795 0.0
C242 C 0.86055 0.86837 0.69079 0.0
C243 C 0.82674 0.85009 0.64197 0.0
C244 C 0.90472 0.89977 0.674 0.0
C245 C 0.9172 0.9138 0.6078 0.0
H246 H 0.85192 0.85958 0.74203 0.0
H247 H 0.92878 0.91388 0.71317 0.0
S248 S 0.84303 0.87254 0.46243 0.0
N249 N 0.81037 0.84529 0.52574 0.0
N250 N 0.89287 0.90473 0.49372 0.0
C251 C 0.88486 0.89383 0.55909 0.0
C252 C 0.83988 0.86179 0.57633 0.0
C253 C 0.68855 0.31846 0.16041 0.0
C254 C 0.70294 0.30489 0.10395 0.0
C255 C 0.65846 0.36357 0.15338 0.0
C256 C 0.64165 0.39653 0.08963 0.0
H257 H 0.69951 0.29333 0.2102 0.0
H258 H 0.64674 0.37158 0.19794 0.0
S259 S 0.67516 0.38189 0.92713 0.0
N260 N 0.70269 0.33053 0.98327 0.0
N261 N 0.64603 0.41509 0.96968 0.0
C262 C 0.65803 0.38466 0.03319 0.0
C263 C 0.68885 0.33899 0.04047 0.0
C264 C 0.17734 0.86196 0.16492 0.0
C265 C 0.19805 0.89749 0.11173 0.0
C266 C 0.1499 0.87997 0.20883 0.0
C267 C 0.14204 0.93402 0.20063 0.0
H268 H 0.17993 0.82003 0.17049 0.0
H269 H 0.13267 0.8514 0.24752 0.0
S270 S 0.19533 0.04296 0.07576 0.0
N271 N 0.21421 0.98916 0.05843 0.0
N272 N 0.16203 0.02279 0.14021 0.0
C273 C 0.1652 0.96985 0.15018 0.0
C274 C 0.19342 0.95163 0.106 0.0
C275 C 0.60461 0.66895 0.81174 0.0
C276 C 0.65539 0.65483 0.80397 0.0
C277 C 0.57946 0.64135 0.8663 0.0
C278 C 0.60415 0.59845 0.91446 0.0
H279 H 0.58386 0.70089 0.77466 0.0
H280 H 0.54042 0.65355 0.87068 0.0
S281 S 0.73483 0.54278 0.91199 0.0
N282 N 0.72822 0.59395 0.84632 0.0
N283 N 0.68087 0.54119 0.94774 0.0
C284 C 0.65474 0.58374 0.90652 0.0
C285 C 0.68038 0.61215 0.8515 0.0
C286 C 0.89266 0.08503 0.29712 0.0
C287 C 0.90476 0.13693 0.26475 0.0
C288 C 0.92165 0.05943 0.35833 0.0
C289 C 0.96389 0.08491 0.38845 0.0
H290 H 0.861 0.064 0.27445 0.0
H291 H 0.9108 0.01964 0.38231 0.0
S292 S 1.01394 0.21922 0.31984 0.0
N293 N 0.96272 0.21204 0.26484 0.0
N294 N 1.01821 0.1638 0.37928 0.0
C295 C 0.97667 0.13665 0.35588 0.0
C296 C 0.94681 0.16275 0.29407 0.0
C297 C 0.38402 0.3828 0.61469 0.0
C298 C 0.38407 0.40732 0.5461 0.0
C299 C 0.39487 0.41104 0.66395 0.0
C300 C 0.40802 0.46493 0.64742 0.0
H301 H 0.3759 0.34117 0.63097 0.0
H302 H 0.39237 0.3902 0.71549 0.0
S303 S 0.41435 0.54841 0.47513 0.0
N304 N 0.39513 0.49034 0.46404 0.0
N305 N 0.42282 0.54119 0.55706 0.0
C306 C 0.4093 0.48985 0.57911 0.0
C307 C 0.39572 0.46168 0.52855 0.0
C308 C 0.61031 0.65451 0.54341 0.0
C309 C 0.66449 0.65541 0.56733 0.0
C310 C 0.59129 0.62746 0.49478 0.0
C311 C 0.62572 0.60004 0.46839 0.0
H312 H 0.58228 0.6741 0.56343 0.0
H313 H 0.54918 0.62745 0.47832 0.0
S314 S 0.77103 0.58935 0.51558 0.0
N315 N 0.75232 0.62655 0.56134 0.0
N316 N 0.71664 0.57524 0.4703 0.0
C317 C 0.68015 0.6015 0.49096 0.0
C318 C 0.69951 0.62929 0.54032 0.0
C319 C 0.907 0.18008 0.96963 0.0
C320 C 0.88606 0.14473 0.02278 0.0
C321 C 0.93392 0.1618 0.9255 0.0
C322 C 0.94104 0.10768 0.93356 0.0
H323 H 0.90519 0.22202 0.96442 0.0
H324 H 0.95144 0.19015 0.88688 0.0
S325 S 0.88666 0.99925 0.05791 0.0
N326 N 0.86854 0.05322 0.07552 0.0
N327 N 0.92008 0.01911 0.99352 0.0
C328 C 0.91752 0.07207 0.98378 0.0
C329 C 0.8897 0.09055 0.02807 0.0
C330 C 0.39828 0.43742 0.28814 0.0
C331 C 0.40807 0.38448 0.32195 0.0
C332 C 0.42587 0.46282 0.2354 0.0
C333 C 0.46432 0.43632 0.21452 0.0
H334 H 0.37027 0.45988 0.30423 0.0
H335 H 0.41755 0.50376 0.21143 0.0
S336 S 0.50456 0.29744 0.28622 0.0
N337 N 0.45802 0.30603 0.33015 0.0
N338 N 0.51061 0.35415 0.23103 0.0
C339 C 0.47341 0.38294 0.24637 0.0
C340 C 0.44504 0.35689 0.30012 0.0
C341 C 0.18847 0.95607 0.83821 0.0
C342 C 0.18243 0.9028 0.87042 0.0
C343 C 0.15726 0.97904 0.77748 0.0
C344 C 0.11849 0.9496 0.74764 0.0
H345 H 0.21695 0.98025 0.86076 0.0
H346 H 0.16346 0.02011 0.75391 0.0
S347 S 0.08458 0.80963 0.8159 0.0
N348 N 0.13414 0.82172 0.87012 0.0
N349 N 0.07402 0.86504 0.75713 0.0
C350 C 0.11189 0.89632 0.77995 0.0
C351 C 0.14425 0.87286 0.84112 0.0
loop_
_geom_bond_atom_site_label_1
_geom_bond_atom_site_label_2
_geom_bond_distance
_geom_bond_site_symmetry_2
_ccdc_geom_bond_type
H0 C7 0.929 . S
H1 C10 0.930 . S
H2 C12 0.929 . S
H3 C4 0.969 . S
C4 H3 0.969 . S
C4 O5 1.550 . S
C4 H6 0.973 . S
O5 C4 1.550 . S
O5 C11 1.412 . S
H6 C4 0.973 . S
C7 H0 0.929 . S
C7 C8 1.400 1_554 S
C7 C9 1.364 . S
C8 C7 1.400 1_556 S
C8 C12 1.377 . S
C9 C7 1.364 . S
C9 C10 1.374 . S
C10 H1 0.930 . S
C10 C9 1.374 . S
C10 C11 1.383 . S
C11 O5 1.412 . S
C11 C10 1.383 . S
C11 C12 1.394 1_554 S
C12 H2 0.929 . S
C12 C8 1.377 . S
C12 C11 1.394 1_556 S
H13 C20 0.929 . S
H14 C23 0.930 . S
H15 C25 0.929 . S
H16 C17 0.969 . S
C17 H16 0.969 . S
C17 O18 1.550 . S
C17 H19 0.973 . S
O18 C17 1.550 . S
O18 C24 1.412 . S
H19 C17 0.973 . S
C20 H13 0.929 . S
C20 C21 1.400 . S
C20 C22 1.364 . S
C21 C20 1.400 . S
C21 C25 1.377 . S
C22 C20 1.364 . S
C22 C23 1.374 . S
C23 H14 0.930 . S
C23 C22 1.374 . S
C23 C24 1.383 . S
C24 O18 1.412 . S
C24 C23 1.383 . S
C24 C25 1.394 . S
C25 H15 0.929 . S
C25 C21 1.377 . S
C25 C24 1.394 . S
H26 C33 0.929 . S
H27 C36 0.930 . S
H28 C38 0.929 . S
H29 C30 0.969 . S
C30 H29 0.969 . S
C30 O31 1.550 . S
C30 H32 0.973 . S
O31 C30 1.550 . S
O31 C37 1.412 . S
H32 C30 0.973 . S
C33 H26 0.929 . S
C33 C34 1.400 . S
C33 C35 1.364 . S
C34 C33 1.400 . S
C34 C38 1.377 . S
C35 C33 1.364 . S
C35 C36 1.374 . S
C36 H27 0.930 . S
C36 C35 1.374 . S
C36 C37 1.383 . S
C37 O31 1.412 . S
C37 C36 1.383 . S
C37 C38 1.394 . S
C38 H28 0.929 . S
C38 C34 1.377 . S
C38 C37 1.394 . S
H39 C46 0.929 . S
H40 C49 0.930 . S
H41 C51 0.929 . S
H42 C43 0.969 . S
C43 H42 0.969 . S
C43 O44 1.550 . S
C43 H45 0.973 . S
O44 C43 1.550 . S
O44 C50 1.412 . S
H45 C43 0.973 . S
C46 H39 0.929 . S
C46 C47 1.400 . S
C46 C48 1.364 . S
C47 C46 1.400 . S
C47 C51 1.377 . S
C48 C46 1.364 . S
C48 C49 1.374 . S
C49 H40 0.930 . S
C49 C48 1.374 . S
C49 C50 1.383 . S
C50 O44 1.412 . S
C50 C49 1.383 . S
C50 C51 1.394 . S
C51 H41 0.929 . S
C51 C47 1.377 . S
C51 C50 1.394 . S
C52 C54 1.422 . S
C52 C56 1.415 . S
C52 N58 1.369 . S
C53 C54 1.421 . S
C53 C55 1.417 . S
C53 C65 1.422 . S
C54 C52 1.422 . S
C54 C53 1.421 . S
C54 N64 1.359 . S
C55 C53 1.417 . S
C55 C57 1.329 . S
C55 H74 0.930 . S
C56 C52 1.415 . S
C56 C57 1.437 . S
C56 C60 1.413 . S
C57 C55 1.329 . S
C57 C56 1.437 . S
C57 H79 0.929 . S
N58 C52 1.369 . S
N58 C59 1.338 1_655 S
N58 Gd63 2.622 . S
C59 N58 1.338 1_455 S
C59 C61 1.378 . S
C59 H71 0.929 . S
C60 C56 1.413 . S
C60 C61 1.348 1_655 S
C60 H76 0.931 . S
C61 C59 1.378 . S
C61 C60 1.348 1_455 S
C61 H77 0.930 . S
Gd62 N82 2.622 . S
Gd62 N89 2.570 . S
Gd62 O96 2.353 1_465 S
Gd62 O97 2.468 . S
Gd62 O98 2.427 . S
Gd62 O100 2.388 1_455 S
Gd62 O101 2.386 . S
Gd62 O105 2.307 1_565 S
Gd62 C115 2.805 . S
Gd63 N58 2.622 . S
Gd63 N64 2.570 . S
Gd63 O95 2.386 . S
Gd63 O99 2.307 1_545 S
Gd63 O102 2.353 1_655 S
Gd63 O103 2.468 . S
Gd63 O104 2.427 . S
Gd63 O106 2.388 1_655 S
Gd63 C127 2.805 . S
N64 C54 1.359 . S
N64 Gd63 2.570 . S
N64 C66 1.343 . S
C65 C53 1.422 . S
C65 C67 1.321 . S
C65 H73 0.931 . S
C66 N64 1.343 . S
C66 C67 1.390 . S
C66 H68 0.931 . S
C67 C65 1.321 . S
C67 C66 1.390 . S
C67 H69 0.930 . S
H68 C66 0.931 . S
H69 C67 0.930 . S
H70 C93 0.931 . S
H71 C59 0.929 . S
H72 C94 0.930 . S
H73 C65 0.931 . S
H74 C55 0.930 . S
H75 C84 0.929 1_655 S
H76 C60 0.931 . S
H77 C61 0.930 . S
H78 C116 0.930 . S
H79 C57 0.929 . S
H80 C85 0.931 . S
H81 C86 0.930 1_655 S
N82 Gd62 2.622 . S
N82 C83 1.369 . S
N82 C84 1.338 . S
C83 N82 1.369 . S
C83 C87 1.415 . S
C83 C90 1.422 . S
C84 H75 0.929 1_455 S
C84 N82 1.338 . S
C84 C86 1.378 . S
C85 H80 0.931 . S
C85 C86 1.348 . S
C85 C87 1.413 . S
C86 H81 0.930 1_455 S
C86 C84 1.378 . S
C86 C85 1.348 . S
C87 C83 1.415 . S
C87 C85 1.413 . S
C87 C117 1.437 . S
H88 C117 0.929 . S
N89 Gd62 2.570 . S
N89 C90 1.359 . S
N89 C93 1.343 . S
C90 C83 1.422 . S
C90 N89 1.359 . S
C90 C92 1.421 . S
C91 C92 1.422 . S
C91 C94 1.321 . S
C91 H118 0.931 . S
C92 C90 1.421 . S
C92 C91 1.422 . S
C92 C116 1.417 . S
C93 H70 0.931 . S
C93 N89 1.343 . S
C93 C94 1.390 . S
C94 H72 0.930 . S
C94 C91 1.321 . S
C94 C93 1.390 . S
O95 Gd63 2.386 . S
O95 C107 1.265 . S
O96 Gd62 2.353 1_645 S
O96 C107 1.242 . S
O97 Gd62 2.468 . S
O97 C115 1.263 . S
O98 Gd62 2.427 . S
O98 C115 1.252 . S
O99 Gd63 2.307 1_565 S
O99 C108 1.261 . S
O100 Gd62 2.388 1_655 S
O100 C108 1.252 . S
O101 Gd62 2.386 . S
O101 C119 1.265 . S
O102 Gd63 2.353 1_455 S
O102 C119 1.242 1_545 S
O103 Gd63 2.468 . S
O103 C127 1.263 . S
O104 Gd63 2.427 . S
O104 C127 1.252 . S
O105 Gd62 2.307 1_545 S
O105 C120 1.261 . S
O106 Gd63 2.388 1_455 S
O106 C120 1.252 . S
C107 O95 1.265 . S
C107 O96 1.242 . S
C108 O99 1.261 . S
C108 O100 1.252 . S
C109 C112 1.394 . S
C109 C114 1.370 . S
C109 C115 1.500 . S
C110 C113 1.383 . S
C110 C114 1.395 . S
C111 C112 1.396 . S
C111 C113 1.365 . S
C111 H128 0.929 . S
C112 C109 1.394 . S
C112 C111 1.396 . S
C112 H129 0.930 . S
C113 C110 1.383 . S
C113 C111 1.365 . S
C113 H130 0.931 . S
C114 C109 1.370 . S
C114 C110 1.395 . S
C114 H131 0.930 . S
C115 Gd62 2.805 . S
C115 O97 1.263 . S
C115 O98 1.252 . S
C115 C109 1.500 . S
C116 H78 0.930 . S
C116 C92 1.417 . S
C116 C117 1.329 . S
C117 C87 1.437 . S
C117 H88 0.929 . S
C117 C116 1.329 . S
H118 C91 0.931 . S
C119 O101 1.265 . S
C119 O102 1.242 1_565 S
C120 O105 1.261 . S
C120 O106 1.252 . S
C121 C124 1.394 . S
C121 C126 1.370 . S
C121 C127 1.500 . S
C122 C125 1.383 . S
C122 C126 1.395 . S
C123 C124 1.396 . S
C123 C125 1.365 . S
C123 H132 0.929 . S
C124 C121 1.394 . S
C124 C123 1.396 . S
C124 H133 0.930 . S
C125 C122 1.383 . S
C125 C123 1.365 . S
C125 H134 0.931 . S
C126 C121 1.370 . S
C126 C122 1.395 . S
C126 H135 0.930 . S
C127 Gd63 2.805 . S
C127 O103 1.263 . S
C127 O104 1.252 . S
C127 C121 1.500 . S
H128 C111 0.929 . S
H129 C112 0.930 . S
H130 C113 0.931 . S
H131 C114 0.930 . S
H132 C123 0.929 . S
H133 C124 0.930 . S
H134 C125 0.931 . S
H135 C126 0.930 . S
C136 C138 1.422 . S
C136 C140 1.415 . S
C136 N142 1.369 . S
C137 C138 1.421 . S
C137 C139 1.417 . S
C137 C149 1.422 . S
C138 C136 1.422 . S
C138 C137 1.421 . S
C138 N148 1.359 . S
C139 C137 1.417 . S
C139 C141 1.329 . S
C139 H158 0.930 . S
C140 C136 1.415 . S
C140 C141 1.437 . S
C140 C144 1.413 . S
C141 C139 1.329 . S
C141 C140 1.437 . S
C141 H163 0.929 . S
N142 C136 1.369 . S
N142 C143 1.338 . S
N142 Gd147 2.622 . S
C143 N142 1.338 . S
C143 C145 1.378 . S
C143 H155 0.929 . S
C144 C140 1.413 . S
C144 C145 1.348 . S
C144 H160 0.931 . S
C145 C143 1.378 . S
C145 C144 1.348 . S
C145 H161 0.930 . S
Gd146 N166 2.622 . S
Gd146 N173 2.570 1_556 S
Gd146 O180 2.353 . S
Gd146 O181 2.468 . S
Gd146 O182 2.427 . S
Gd146 O184 2.388 1_556 S
Gd146 O185 2.386 1_556 S
Gd146 O189 2.307 1_556 S
Gd146 C199 2.805 . S
Gd147 N142 2.622 . S
Gd147 N148 2.570 . S
Gd147 O179 2.386 . S
Gd147 O183 2.307 . S
Gd147 O186 2.353 . S
Gd147 O187 2.468 . S
Gd147 O188 2.427 . S
Gd147 O190 2.388 . S
Gd147 C211 2.805 . S
N148 C138 1.359 . S
N148 Gd147 2.570 . S
N148 C150 1.343 . S
C149 C137 1.422 . S
C149 C151 1.321 . S
C149 H157 0.931 . S
C150 N148 1.343 . S
C150 C151 1.390 . S
C150 H152 0.931 . S
C151 C149 1.321 . S
C151 C150 1.390 . S
C151 H153 0.930 . S
H152 C150 0.931 . S
H153 C151 0.930 . S
H154 C177 0.931 . S
H155 C143 0.929 . S
H156 C178 0.930 . S
H157 C149 0.931 . S
H158 C139 0.930 . S
H159 C168 0.929 . S
H160 C144 0.931 . S
H161 C145 0.930 . S
H162 C200 0.930 . S
H163 C141 0.929 . S
H164 C169 0.931 . S
H165 C170 0.930 . S
N166 Gd146 2.622 . S
N166 C167 1.369 1_556 S
N166 C168 1.338 . S
C167 N166 1.369 1_554 S
C167 C171 1.415 . S
C167 C174 1.422 . S
C168 H159 0.929 . S
C168 N166 1.338 . S
C168 C170 1.378 . S
C169 H164 0.931 . S
C169 C170 1.348 1_554 S
C169 C171 1.413 . S
C170 H165 0.930 . S
C170 C168 1.378 . S
C170 C169 1.348 1_556 S
C171 C167 1.415 . S
C171 C169 1.413 . S
C171 C201 1.437 . S
H172 C201 0.929 . S
N173 Gd146 2.570 1_554 S
N173 C174 1.359 . S
N173 C177 1.343 . S
C174 C167 1.422 . S
C174 N173 1.359 . S
C174 C176 1.421 . S
C175 C176 1.422 . S
C175 C178 1.321 . S
C175 H202 0.931 . S
C176 C174 1.421 . S
C176 C175 1.422 . S
C176 C200 1.417 . S
C177 H154 0.931 . S
C177 N173 1.343 . S
C177 C178 1.390 . S
C178 H156 0.930 . S
C178 C175 1.321 . S
C178 C177 1.390 . S
O179 Gd147 2.386 . S
O179 C191 1.265 1_554 S
O180 Gd146 2.353 . S
O180 C191 1.242 . S
O181 Gd146 2.468 . S
O181 C199 1.263 . S
O182 Gd146 2.427 . S
O182 C199 1.252 . S
O183 Gd147 2.307 . S
O183 C192 1.261 . S
O184 Gd146 2.388 1_554 S
O184 C192 1.252 . S
O185 Gd146 2.386 1_554 S
O185 C203 1.265 . S
O186 Gd147 2.353 . S
O186 C203 1.242 . S
O187 Gd147 2.468 . S
O187 C211 1.263 . S
O188 Gd147 2.427 . S
O188 C211 1.252 . S
O189 Gd146 2.307 1_554 S
O189 C204 1.261 . S
O190 Gd147 2.388 . S
O190 C204 1.252 . S
C191 O179 1.265 1_556 S
C191 O180 1.242 . S
C192 O183 1.261 . S
C192 O184 1.252 . S
C193 C196 1.394 . S
C193 C198 1.370 . S
C193 C199 1.500 . S
C194 C197 1.383 . S
C194 C198 1.395 . S
C195 C196 1.396 . S
C195 C197 1.365 . S
C195 H212 0.929 . S
C196 C193 1.394 . S
C196 C195 1.396 . S
C196 H213 0.930 . S
C197 C194 1.383 . S
C197 C195 1.365 . S
C197 H214 0.931 . S
C198 C193 1.370 . S
C198 C194 1.395 . S
C198 H215 0.930 . S
C199 Gd146 2.805 . S
C199 O181 1.263 . S
C199 O182 1.252 . S
C199 C193 1.500 . S
C200 H162 0.930 . S
C200 C176 1.417 . S
C200 C201 1.329 . S
C201 C171 1.437 . S
C201 H172 0.929 . S
C201 C200 1.329 . S
H202 C175 0.931 . S
C203 O185 1.265 . S
C203 O186 1.242 . S
C204 O189 1.261 . S
C204 O190 1.252 . S
C205 C208 1.394 . S
C205 C210 1.370 . S
C205 C211 1.500 . S
C206 C209 1.383 . S
C206 C210 1.395 . S
C207 C208 1.396 . S
C207 C209 1.365 . S
C207 H216 0.929 . S
C208 C205 1.394 . S
C208 C207 1.396 . S
C208 H217 0.930 . S
C209 C206 1.383 . S
C209 C207 1.365 . S
C209 H218 0.931 . S
C210 C205 1.370 . S
C210 C206 1.395 . S
C210 H219 0.930 . S
C211 Gd147 2.805 . S
C211 O187 1.263 . S
C211 O188 1.252 . S
C211 C205 1.500 . S
H212 C195 0.929 . S
H213 C196 0.930 . S
H214 C197 0.931 . S
H215 C198 0.930 . S
H216 C207 0.929 . S
H217 C208 0.930 . S
H218 C209 0.931 . S
H219 C210 0.930 . S
C220 C221 1.369 . S
C220 C222 1.419 . S
C220 H224 0.930 . S
C221 C220 1.369 . S
C221 C230 1.429 . S
C222 C220 1.419 . S
C222 C223 1.363 . S
C222 H225 0.929 . S
C223 C222 1.363 . S
C223 C229 1.428 . S
H224 C220 0.930 . S
H225 C222 0.929 . S
S226 N227 1.613 . S
S226 N228 1.610 . S
N227 S226 1.613 . S
N227 C230 1.350 . S
N228 S226 1.610 . S
N228 C229 1.351 . S
C229 C223 1.428 . S
C229 N228 1.351 . S
C229 C230 1.434 . S
C230 C221 1.429 . S
C230 N227 1.350 . S
C230 C229 1.434 . S
C231 C232 1.369 . S
C231 C233 1.419 . S
C231 H235 0.930 1_554 S
C232 C231 1.369 . S
C232 C241 1.429 . S
C233 C231 1.419 . S
C233 C234 1.363 . S
C233 H236 0.929 1_554 S
C234 C233 1.363 . S
C234 C240 1.428 . S
H235 C231 0.930 1_556 S
H236 C233 0.929 1_556 S
S237 N238 1.613 . S
S237 N239 1.610 . S
N238 S237 1.613 . S
N238 C241 1.350 . S
N239 S237 1.610 . S
N239 C240 1.351 . S
C240 C234 1.428 . S
C240 N239 1.351 . S
C240 C241 1.434 . S
C241 C232 1.429 . S
C241 N238 1.350 . S
C241 C240 1.434 . S
C242 C243 1.369 . S
C242 C244 1.419 . S
C242 H246 0.930 . S
C243 C242 1.369 . S
C243 C252 1.429 . S
C244 C242 1.419 . S
C244 C245 1.363 . S
C244 H247 0.929 . S
C245 C244 1.363 . S
C245 C251 1.428 . S
H246 C242 0.930 . S
H247 C244 0.929 . S
S248 N249 1.613 . S
S248 N250 1.610 . S
N249 S248 1.613 . S
N249 C252 1.350 . S
N250 S248 1.610 . S
N250 C251 1.351 . S
C251 C245 1.428 . S
C251 N250 1.351 . S
C251 C252 1.434 . S
C252 C243 1.429 . S
C252 N249 1.350 . S
C252 C251 1.434 . S
C253 C254 1.369 . S
C253 C255 1.419 . S
C253 H257 0.930 . S
C254 C253 1.369 . S
C254 C263 1.429 . S
C255 C253 1.419 . S
C255 C256 1.363 . S
C255 H258 0.929 . S
C256 C255 1.363 . S
C256 C262 1.428 . S
H257 C253 0.930 . S
H258 C255 0.929 . S
S259 N260 1.613 . S
S259 N261 1.610 . S
N260 S259 1.613 . S
N260 C263 1.350 . S
N261 S259 1.610 . S
N261 C262 1.351 . S
C262 C256 1.428 . S
C262 N261 1.351 . S
C262 C263 1.434 . S
C263 C254 1.429 . S
C263 N260 1.350 . S
C263 C262 1.434 . S
C264 C265 1.369 . S
C264 C266 1.419 . S
C264 H268 0.930 . S
C265 C264 1.369 . S
C265 C274 1.429 . S
C266 C264 1.419 . S
C266 C267 1.363 . S
C266 H269 0.929 . S
C267 C266 1.363 . S
C267 C273 1.428 . S
H268 C264 0.930 . S
H269 C266 0.929 . S
S270 N271 1.613 1_545 S
S270 N272 1.610 . S
N271 S270 1.613 1_565 S
N271 C274 1.350 . S
N272 S270 1.610 . S
N272 C273 1.351 1_545 S
C273 C267 1.428 . S
C273 N272 1.351 1_565 S
C273 C274 1.434 . S
C274 C265 1.429 . S
C274 N271 1.350 . S
C274 C273 1.434 . S
C275 C276 1.369 . S
C275 C277 1.419 . S
C275 H279 0.930 . S
C276 C275 1.369 . S
C276 C285 1.429 . S
C277 C275 1.419 . S
C277 C278 1.363 . S
C277 H280 0.929 . S
C278 C277 1.363 . S
C278 C284 1.428 . S
H279 C275 0.930 . S
H280 C277 0.929 . S
S281 N282 1.613 . S
S281 N283 1.610 . S
N282 S281 1.613 . S
N282 C285 1.350 . S
N283 S281 1.610 . S
N283 C284 1.351 . S
C284 C278 1.428 . S
C284 N283 1.351 . S
C284 C285 1.434 . S
C285 C276 1.429 . S
C285 N282 1.350 . S
C285 C284 1.434 . S
C286 C287 1.369 . S
C286 C288 1.419 . S
C286 H290 0.930 . S
C287 C286 1.369 . S
C287 C296 1.429 . S
C288 C286 1.419 . S
C288 C289 1.363 . S
C288 H291 0.929 . S
C289 C288 1.363 . S
C289 C295 1.428 . S
H290 C286 0.930 . S
H291 C288 0.929 . S
S292 N293 1.613 . S
S292 N294 1.610 . S
N293 S292 1.613 . S
N293 C296 1.350 . S
N294 S292 1.610 . S
N294 C295 1.351 . S
C295 C289 1.428 . S
C295 N294 1.351 . S
C295 C296 1.434 . S
C296 C287 1.429 . S
C296 N293 1.350 . S
C296 C295 1.434 . S
C297 C298 1.369 . S
C297 C299 1.419 . S
C297 H301 0.930 . S
C298 C297 1.369 . S
C298 C307 1.429 . S
C299 C297 1.419 . S
C299 C300 1.363 . S
C299 H302 0.929 . S
C300 C299 1.363 . S
C300 C306 1.428 . S
H301 C297 0.930 . S
H302 C299 0.929 . S
S303 N304 1.613 . S
S303 N305 1.610 . S
N304 S303 1.613 . S
N304 C307 1.350 . S
N305 S303 1.610 . S
N305 C306 1.351 . S
C306 C300 1.428 . S
C306 N305 1.351 . S
C306 C307 1.434 . S
C307 C298 1.429 . S
C307 N304 1.350 . S
C307 C306 1.434 . S
C308 C309 1.369 . S
C308 C310 1.419 . S
C308 H312 0.930 . S
C309 C308 1.369 . S
C309 C318 1.429 . S
C310 C308 1.419 . S
C310 C311 1.363 . S
C310 H313 0.929 . S
C311 C310 1.363 . S
C311 C317 1.428 . S
H312 C308 0.930 . S
H313 C310 0.929 . S
S314 N315 1.613 . S
S314 N316 1.610 . S
N315 S314 1.613 . S
N315 C318 1.350 . S
N316 S314 1.610 . S
N316 C317 1.351 . S
C317 C311 1.428 . S
C317 N316 1.351 . S
C317 C318 1.434 . S
C318 C309 1.429 . S
C318 N315 1.350 . S
C318 C317 1.434 . S
C319 C320 1.369 . S
C319 C321 1.419 . S
C319 H323 0.930 . S
C320 C319 1.369 . S
C320 C329 1.429 1_556 S
C321 C319 1.419 . S
C321 C322 1.363 . S
C321 H324 0.929 . S
C322 C321 1.363 . S
C322 C328 1.428 . S
H323 C319 0.930 . S
H324 C321 0.929 . S
S325 N326 1.613 1_565 S
S325 N327 1.610 1_554 S
N326 S325 1.613 1_545 S
N326 C329 1.350 . S
N327 S325 1.610 1_556 S
N327 C328 1.351 1_565 S
C328 C322 1.428 . S
C328 N327 1.351 1_545 S
C328 C329 1.434 1_556 S
C329 C320 1.429 1_554 S
C329 N326 1.350 . S
C329 C328 1.434 1_554 S
C330 C331 1.369 . S
C330 C332 1.419 . S
C330 H334 0.930 . S
C331 C330 1.369 . S
C331 C340 1.429 . S
C332 C330 1.419 . S
C332 C333 1.363 . S
C332 H335 0.929 . S
C333 C332 1.363 . S
C333 C339 1.428 . S
H334 C330 0.930 . S
H335 C332 0.929 . S
S336 N337 1.613 . S
S336 N338 1.610 . S
N337 S336 1.613 . S
N337 C340 1.350 . S
N338 S336 1.610 . S
N338 C339 1.351 . S
C339 C333 1.428 . S
C339 N338 1.351 . S
C339 C340 1.434 . S
C340 C331 1.429 . S
C340 N337 1.350 . S
C340 C339 1.434 . S
C341 C342 1.369 . S
C341 C343 1.419 . S
C341 H345 0.930 . S
C342 C341 1.369 . S
C342 C351 1.429 . S
C343 C341 1.419 . S
C343 C344 1.363 . S
C343 H346 0.929 1_565 S
C344 C343 1.363 . S
C344 C350 1.428 . S
H345 C341 0.930 . S
H346 C343 0.929 1_545 S
S347 N348 1.613 . S
S347 N349 1.610 . S
N348 S347 1.613 . S
N348 C351 1.350 . S
N349 S347 1.610 . S
N349 C350 1.351 . S
C350 C344 1.428 . S
C350 N349 1.351 . S
C350 C351 1.434 . S
C351 C342 1.429 . S
C351 N348 1.350 . S
C351 C350 1.434 . S
C223 C120 1.637 . S
C221 C43 1.543 . S
C232 C4 1.574 . S
C234 C192 1.629 . S
C243 C17 1.571 . S
C245 C108 1.633 . S
C254 C30 1.632 . S
C256 C204 1.627 . S
C267 C110 1.386 . S
C265 C9 1.559 . S
C278 C191 1.654 . S
C276 C21 1.645 . S
C287 C34 1.614 . S
C289 C107 1.629 . S
C298 C48 1.570 . S
C300 C194 1.397 . S
C311 C206 1.390 . S
C309 C22 1.572 . S
C322 C122 1.383 . S
C320 C35 1.557 1_556 S
C333 C203 1.653 . S
C331 C47 1.644 . S
C342 C8 1.608 . S
C344 C119 1.629 . S
