# Generated by pormake.
# Topology pth, (4,4)-cn, num edge types: 1
# Building blocks:
#     Node 0, Type 0, BuildingBlock: NAHDIM_clean_sbu_0, # of connection points: 4
#     Node 1, Type 0, BuildingBlock: NAHDIM_clean_sbu_0, # of connection points: 4
#     Node 2, Type 0, BuildingBlock: NAHDIM_clean_sbu_0, # of connection points: 4
#     Node 3, Type 1, BuildingBlock: AZAVOO_clean_linker_0, # of connection points: 4
#     Node 4, Type 1, BuildingBlock: AZAVOO_clean_linker_0, # of connection points: 4
#     Node 5, Type 1, BuildingBlock: AZAVOO_clean_linker_0, # of connection points: 4
#     Edge 6, Type (0, 1), BuildingBlock: XUDNAN_clean_linker_2, # of connection points: 2
#     Edge 7, Type (0, 1), BuildingBlock: XUDNAN_clean_linker_2, # of connection points: 2
#     Edge 8, Type (0, 1), BuildingBlock: XUDNAN_clean_linker_2, # of connection points: 2
#     Edge 9, Type (0, 1), BuildingBlock: XUDNAN_clean_linker_2, # of connection points: 2
#     Edge 10, Type (0, 1), BuildingBlock: XUDNAN_clean_linker_2, # of connection points: 2
#     Edge 11, Type (0, 1), BuildingBlock: XUDNAN_clean_linker_2, # of connection points: 2
#     Edge 12, Type (0, 1), BuildingBlock: XUDNAN_clean_linker_2, # of connection points: 2
#     Edge 13, Type (0, 1), BuildingBlock: XUDNAN_clean_linker_2, # of connection points: 2
#     Edge 14, Type (0, 1), BuildingBlock: XUDNAN_clean_linker_2, # of connection points: 2
#     Edge 15, Type (0, 1), BuildingBlock: XUDNAN_clean_linker_2, # of connection points: 2
#     Edge 16, Type (0, 1), BuildingBlock: XUDNAN_clean_linker_2, # of connection points: 2
#     Edge 17, Type (0, 1), BuildingBlock: XUDNAN_clean_linker_2, # of connection points: 2
# Relax obj value: 0.156
# Max RMSD: 0.228
# Mean RMSD: 0.208
data_MOF--net-pth--node1-NAHDIM_clean_sbu_0--node2-AZAVOO_clean_linker_0--edge1-XUDNAN_clean_linker_2
_symmetry_space_group_name_H-M    P1
_symmetry_Int_Tables_number       1
_symmetry_cell_setting            triclinic
loop_
_symmetry_equiv_pos_as_xyz
'x, y, z'
_cell_length_a     26.258548
_cell_length_b     26.558568
_cell_length_c     69.939036
_cell_angle_alpha  94.011901
_cell_angle_beta   88.787089
_cell_angle_gamma 120.58839
loop_
_atom_site_label
_atom_site_type_symbol
_atom_site_fract_x
_atom_site_fract_y
_atom_site_fract_z
_atom_type_partial_charge
C0 C 0.15747 0.04934 0.09857 0.0
O1 O 0.20261 0.10204 0.09639 0.0
O2 O 0.07052 0.13156 0.0906 0.0
Zn3 Zn 0.10071 0.08826 0.07363 0.0
O4 O 0.04545 0.04512 0.051 0.0
C5 C 0.21408 0.19748 0.07218 0.0
O6 O 0.20212 0.20836 0.0898 0.0
O7 O 0.1092 0.03259 0.08964 0.0
C8 C 0.05332 0.07159 0.03577 0.0
O9 O 0.09659 0.12618 0.03526 0.0
C10 C 0.07369 0.17755 0.08502 0.0
O11 O 0.09154 0.19283 0.06758 0.0
O12 O 0.17925 0.14839 0.06333 0.0
C13 C 0.10792 0.19672 0.38266 0.0
O14 O 0.10679 0.21772 0.40013 0.0
O15 O 0.05919 0.01384 0.3899 0.0
Zn16 Zn 0.09451 0.09624 0.40146 0.0
O17 O 0.03568 0.09542 0.4202 0.0
C18 C 0.19656 0.08997 0.40872 0.0
O19 O 0.18016 0.06014 0.392 0.0
O20 O 0.10599 0.14793 0.38023 0.0
C21 C 0.04835 0.12532 0.43617 0.0
O22 O 0.104 0.16239 0.44093 0.0
C23 C 0.04454 0.97156 0.40044 0.0
O24 O 0.05034 0.98202 0.41914 0.0
O25 O 0.16947 0.11558 0.41529 0.0
C26 C 0.20638 0.07098 0.73683 0.0
O27 O 0.23199 0.12107 0.74723 0.0
O28 O 0.04935 0.07087 0.71964 0.0
Zn29 Zn 0.10056 0.07894 0.74207 0.0
O30 O 0.1519 0.16364 0.7516 0.0
C31 C 0.0075 0.982 0.76192 0.0
O32 O 0.00047 0.95104 0.74567 0.0
O33 O 0.15101 0.04491 0.73345 0.0
C34 C 0.13174 0.18649 0.76383 0.0
O35 O 0.07718 0.15478 0.76971 0.0
C36 C 0.02695 0.10312 0.71829 0.0
O37 O 0.03823 0.14455 0.73176 0.0
O38 O 0.04792 0.03563 0.76348 0.0
H39 H 0.00839 0.48875 0.11525 0.0
H40 H 0.10234 0.93346 0.28436 0.0
H41 H 0.94798 0.42946 0.21686 0.0
H42 H 0.96028 0.36372 0.19336 0.0
H43 H 0.14664 0.45337 0.20754 0.0
H44 H 0.13388 0.51822 0.23132 0.0
H45 H 0.95549 0.53026 0.19452 0.0
H46 H 0.96038 0.50807 0.16017 0.0
H47 H 0.14674 0.56917 0.16682 0.0
H48 H 0.14092 0.59023 0.20115 0.0
H49 H 0.97845 0.6651 0.21515 0.0
H50 H 0.00906 0.74638 0.19442 0.0
H51 H 0.18492 0.77068 0.19212 0.0
H52 H 0.15466 0.69182 0.21343 0.0
H53 H 0.94869 0.64583 0.26046 0.0
H54 H 0.9511 0.73569 0.27275 0.0
H55 H 0.14057 0.8336 0.26525 0.0
H56 H 0.13752 0.7434 0.25308 0.0
H57 H 0.93636 0.54328 0.28274 0.0
H58 H 0.92487 0.58367 0.31422 0.0
H59 H 0.11201 0.7098 0.3164 0.0
H60 H 0.12346 0.66931 0.28515 0.0
H61 H 0.95354 0.42504 0.25765 0.0
H62 H 0.96309 0.35732 0.27738 0.0
H63 H 0.13094 0.49947 0.29969 0.0
H64 H 0.12222 0.56639 0.27949 0.0
O65 O 0.00764 0.49887 0.12878 0.0
O66 O 0.10304 0.5297 0.13307 0.0
O67 O 0.00188 0.84669 0.28035 0.0
O68 O 0.10019 0.89725 0.27968 0.0
C69 C 0.03761 0.53015 0.23385 0.0
C70 C 0.0437 0.57212 0.22123 0.0
C71 C 0.04742 0.62464 0.2285 0.0
C72 C 0.04109 0.63371 0.24827 0.0
C73 C 0.03495 0.59175 0.26095 0.0
C74 C 0.03484 0.54058 0.25382 0.0
C75 C 0.04009 0.47852 0.22571 0.0
C76 C 0.99075 0.43273 0.21565 0.0
C77 C -0.00215 0.39541 0.20222 0.0
C78 C 0.05447 0.40415 0.19862 0.0
C79 C 0.10261 0.446 0.21015 0.0
C80 C 0.09532 0.48269 0.22378 0.0
C81 C 0.04777 0.56162 0.20026 0.0
C82 C -0.00269 0.53898 0.18848 0.0
C83 C 0.00025 0.52627 0.16889 0.0
C84 C 0.05388 0.53646 0.16077 0.0
C85 C 0.10466 0.56043 0.17262 0.0
C86 C 0.10152 0.57262 0.19221 0.0
C87 C 0.0643 0.67253 0.21564 0.0
C88 C 0.02353 0.68824 0.21014 0.0
C89 C 0.04102 0.73432 0.19823 0.0
C90 C 0.09951 0.76511 0.19164 0.0
C91 C 0.13988 0.74866 0.19716 0.0
C92 C 0.12252 0.70314 0.20915 0.0
C93 C 0.04285 0.68829 0.25579 0.0
C94 C 0.99063 0.68676 0.2615 0.0
C95 C 0.99214 0.73812 0.26848 0.0
C96 C 0.04603 0.7919 0.26988 0.0
C97 C 0.09835 0.793 0.26432 0.0
C98 C 0.09674 0.74163 0.25731 0.0
C99 C 0.0307 0.60358 0.28173 0.0
C100 C 0.9752 0.57784 0.29044 0.0
C101 C 0.96867 0.60081 0.30832 0.0
C102 C 0.01767 0.64945 0.31754 0.0
C103 C 0.07389 0.67183 0.30953 0.0
C104 C 0.08043 0.64881 0.29176 0.0
C105 C 0.03707 0.5007 0.26717 0.0
C106 C 0.99218 0.44157 0.26687 0.0
C107 C -0.0023 0.40304 0.2781 0.0
C108 C 0.04776 0.42333 0.29001 0.0
C109 C 0.09165 0.48292 0.29077 0.0
C110 C 0.0866 0.52115 0.2793 0.0
C111 C 0.0566 0.52164 0.14005 0.0
C112 C 0.04778 0.84675 0.27697 0.0
H113 H 0.7093 0.12186 0.45386 0.0
H114 H 0.2518 0.0803 0.61562 0.0
H115 H 0.66247 0.02101 0.56612 0.0
H116 H 0.73732 0.0154 0.54639 0.0
H117 H 0.81803 0.19935 0.53695 0.0
H118 H 0.74377 0.20512 0.5573 0.0
H119 H 0.61798 0.03863 0.52925 0.0
H120 H 0.65439 0.05737 0.49657 0.0
H121 H 0.66934 0.22756 0.50319 0.0
H122 H 0.63402 0.2087 0.53607 0.0
H123 H 0.50324 0.01535 0.53224 0.0
H124 H 0.44073 0.00291 0.5053 0.0
H125 H 0.4275 0.15146 0.52846 0.0
H126 H 0.49674 0.16764 0.55419 0.0
H127 H 0.42847 0.9881 0.57794 0.0
H128 H 0.33003 0.96632 0.58835 0.0
H129 H 0.40016 0.15049 0.60426 0.0
H130 H 0.4982 0.17148 0.59377 0.0
H131 H 0.51584 0.98848 0.60965 0.0
H132 H 0.46289 0.96429 0.63978 0.0
H133 H 0.51185 0.14604 0.65079 0.0
H134 H 0.56896 0.17011 0.62151 0.0
H135 H 0.61166 0.00125 0.60088 0.0
H136 H 0.6796 0.99193 0.62169 0.0
H137 H 0.79133 0.18065 0.62718 0.0
H138 H 0.72197 0.18945 0.60669 0.0
O139 O 0.69463 0.11525 0.46679 0.0
O140 O 0.69969 0.20153 0.47067 0.0
O141 O 0.25608 0.99354 0.60269 0.0
O142 O 0.29003 0.0877 0.61117 0.0
C143 C 0.64219 0.11122 0.56931 0.0
C144 C 0.60471 0.11244 0.55534 0.0
C145 C 0.54799 0.1021 0.56041 0.0
C146 C 0.53017 0.09382 0.57966 0.0
C147 C 0.56793 0.09328 0.59367 0.0
C148 C 0.62346 0.10093 0.58843 0.0
C149 C 0.69756 0.1134 0.56307 0.0
C150 C 0.6981 0.06084 0.56068 0.0
C151 C 0.7404 0.05751 0.54919 0.0
C152 C 0.78254 0.10665 0.53985 0.0
C153 C 0.78605 0.16087 0.54401 0.0
C154 C 0.74375 0.16425 0.55562 0.0
C155 C 0.62414 0.12265 0.53512 0.0
C156 C 0.62952 0.08009 0.52367 0.0
C157 C 0.6501 0.09082 0.50497 0.0
C158 C 0.66501 0.14408 0.49728 0.0
C159 C 0.65843 0.18616 0.50869 0.0
C160 C 0.63814 0.17548 0.52745 0.0
C161 C 0.50509 0.09271 0.54509 0.0
C162 C 0.48736 0.04563 0.53136 0.0
C163 C 0.45048 0.03801 0.51607 0.0
C164 C 0.42804 0.07579 0.51455 0.0
C165 C 0.44448 0.12199 0.52879 0.0
C166 C 0.48333 0.13083 0.54376 0.0
C167 C 0.47013 0.08132 0.58504 0.0
C168 C 0.42224 0.02363 0.58355 0.0
C169 C 0.3662 0.01136 0.58955 0.0
C170 C 0.35724 0.0567 0.59716 0.0
C171 C 0.40547 0.11456 0.59848 0.0
C172 C 0.46145 0.12672 0.59247 0.0
C173 C 0.54675 0.08113 0.61354 0.0
C174 C 0.51736 0.0234 0.61906 0.0
C175 C 0.48609 0.00954 0.63613 0.0
C176 C 0.48192 0.05289 0.64767 0.0
C177 C 0.51446 0.11141 0.64255 0.0
C178 C 0.54701 0.1254 0.62572 0.0
C179 C 0.66145 0.09603 0.6026 0.0
C180 C 0.64999 0.04057 0.607 0.0
C181 C 0.68931 0.03534 0.61863 0.0
C182 C 0.74096 0.08556 0.62599 0.0
C183 C 0.75159 0.1412 0.62189 0.0
C184 C 0.71217 0.14635 0.61021 0.0
C185 C 0.68745 0.15555 0.47746 0.0
C186 C 0.298 0.04384 0.60381 0.0
H187 H 0.70735 0.75911 0.02788 0.0
H188 H 0.23147 0.2549 0.8844 0.0
H189 H 0.63694 0.76417 0.91716 0.0
H190 H 0.7256 0.85082 0.93111 0.0
H191 H 0.80745 0.74678 0.93685 0.0
H192 H 0.7191 0.66055 0.92247 0.0
H193 H 0.58794 0.70557 0.95328 0.0
H194 H 0.63354 0.74065 0.98525 0.0
H195 H 0.6801 0.60582 0.98275 0.0
H196 H 0.63488 0.57164 0.95067 0.0
H197 H 0.46634 0.58674 0.95352 0.0
H198 H 0.42188 0.53284 0.98212 0.0
H199 H 0.47789 0.40984 0.96397 0.0
H200 H 0.5227 0.46436 0.93554 0.0
H201 H 0.39983 0.54364 0.90446 0.0
H202 H 0.30239 0.45732 0.89694 0.0
H203 H 0.38056 0.34775 0.89464 0.0
H204 H 0.47773 0.43453 0.90199 0.0
H205 H 0.48503 0.63242 0.87313 0.0
H206 H 0.42185 0.59049 0.84437 0.0
H207 H 0.4594 0.44928 0.84019 0.0
H208 H 0.52467 0.49337 0.86823 0.0
H209 H 0.59123 0.72975 0.88319 0.0
H210 H 0.65951 0.79734 0.86027 0.0
H211 H 0.73616 0.68751 0.85033 0.0
H212 H 0.66775 0.6203 0.87331 0.0
O213 O 0.68884 0.74396 0.01533 0.0
O214 O 0.71294 0.67472 0.01319 0.0
O215 O 0.2313 0.34791 0.88888 0.0
O216 O 0.26929 0.28964 0.88758 0.0
C217 C 0.61429 0.65211 0.91462 0.0
C218 C 0.58338 0.61721 0.92987 0.0
C219 C 0.52894 0.56483 0.92628 0.0
C220 C 0.50477 0.54796 0.90754 0.0
C221 C 0.53569 0.58314 0.89227 0.0
C222 C 0.59056 0.63505 0.89582 0.0
C223 C 0.67193 0.70636 0.91871 0.0
C224 C 0.67497 0.76072 0.92067 0.0
C225 C 0.72542 0.80999 0.92872 0.0
C226 C 0.77293 0.80512 0.93515 0.0
C227 C 0.77113 0.7514 0.93209 0.0
C228 C 0.72106 0.7024 0.92379 0.0
C229 C 0.60816 0.63612 0.94971 0.0
C230 C 0.60788 0.68361 0.95971 0.0
C231 C 0.63396 0.70354 0.97795 0.0
C232 C 0.66059 0.67612 0.98655 0.0
C233 C 0.66004 0.62797 0.97654 0.0
C234 C 0.63404 0.60818 0.95827 0.0
C235 C 0.49693 0.52886 0.94241 0.0
C236 C 0.46829 0.54774 0.95565 0.0
C237 C 0.44349 0.5173 0.972 0.0
C238 C 0.4467 0.46735 0.97525 0.0
C239 C 0.47432 0.44787 0.96171 0.0
C240 C 0.49961 0.47868 0.94546 0.0
C241 C 0.44552 0.49509 0.90397 0.0
C242 C 0.39562 0.50085 0.90247 0.0
C243 C 0.34012 0.45153 0.89813 0.0
C244 C 0.33367 0.39557 0.89522 0.0
C245 C 0.38392 0.39011 0.89685 0.0
C246 C 0.4394 0.4395 0.90116 0.0
C247 C 0.50902 0.56565 0.87276 0.0
C248 C 0.48126 0.59368 0.86552 0.0
C249 C 0.44466 0.56925 0.84924 0.0
C250 C 0.43474 0.51599 0.84011 0.0
C251 C 0.46636 0.49059 0.84665 0.0
C252 C 0.50346 0.51548 0.86278 0.0
C253 C 0.62494 0.6705 0.87989 0.0
C254 C 0.62213 0.7199 0.87579 0.0
C255 C 0.66125 0.75847 0.86282 0.0
C256 C 0.7034 0.74784 0.85366 0.0
C257 C 0.70386 0.69654 0.85707 0.0
C258 C 0.66501 0.65824 0.87018 0.0
C259 C 0.68904 0.698 0.00582 0.0
C260 C 0.27493 0.34312 0.89038 0.0
H261 H 0.01534 0.15466 0.11924 0.0
H262 H 0.12634 0.29547 0.08292 0.0
H263 H 0.13313 0.36801 0.10825 0.0
H264 H 0.93459 0.22513 0.14028 0.0
H265 H 0.93016 0.19747 0.16344 0.0
H266 H 0.93167 0.15631 0.14205 0.0
H267 H 0.02222 0.1559 0.15588 0.0
H268 H 0.02161 0.19784 0.17716 0.0
H269 H 0.08763 0.22455 0.1631 0.0
H270 H 0.13737 0.42515 0.13838 0.0
H271 H 0.12607 0.46426 0.1702 0.0
H272 H 0.00567 0.28762 0.18644 0.0
C273 C 0.04021 0.20073 0.11654 0.0
C274 C 0.07032 0.21955 0.09915 0.0
C275 C 0.10249 0.2801 0.09607 0.0
C276 C 0.10695 0.32166 0.11042 0.0
C277 C 0.07806 0.30182 0.12758 0.0
C278 C 0.04413 0.24285 0.13057 0.0
C279 C 0.01731 0.23357 0.15035 0.0
C280 C 0.9494 0.20121 0.14894 0.0
C281 C 0.03848 0.20104 0.16232 0.0
C282 C 0.04271 0.29661 0.15813 0.0
C283 C 0.07812 0.33513 0.14477 0.0
C284 C 0.10907 0.39553 0.14886 0.0
C285 C 0.10272 0.41729 0.16697 0.0
C286 C 0.06501 0.37885 0.18061 0.0
C287 C 0.03463 0.31773 0.17616 0.0
H288 H 0.05632 0.1864 0.47059 0.0
H289 H 0.93213 0.04018 0.43236 0.0
H290 H 0.85237 0.01901 0.45521 0.0
H291 H -0.00312 0.11876 0.51472 0.0
H292 H 0.00749 0.1848 0.52752 0.0
H293 H 0.05579 0.18929 0.5082 0.0
H294 H 0.03036 0.25747 0.49114 0.0
H295 H 0.98228 0.25349 0.51047 0.0
H296 H 0.95401 0.23376 0.48616 0.0
H297 H 0.78664 0.01189 0.48192 0.0
H298 H 0.73625 0.02282 0.51062 0.0
H299 H 0.90115 0.17441 0.53179 0.0
C300 C 0.01232 0.15005 0.46702 0.0
C301 C 0.00053 0.11489 0.44969 0.0
C302 C 0.9423 0.06783 0.44551 0.0
C303 C 0.89665 0.05528 0.45842 0.0
C304 C 0.9098 0.09035 0.47541 0.0
C305 C 0.96593 0.13707 0.47972 0.0
C306 C 0.9675 0.1682 0.49892 0.0
C307 C 0.0094 0.16505 0.51318 0.0
C308 C 0.98454 0.23201 0.49652 0.0
C309 C 0.90348 0.13148 0.50468 0.0
C310 C 0.87127 0.08661 0.49092 0.0
C311 C 0.81134 0.04665 0.49286 0.0
C312 C 0.78328 0.05292 0.50928 0.0
C313 C 0.81509 0.09888 0.52352 0.0
C314 C 0.87599 0.13872 0.52116 0.0
H315 H 0.92153 0.8666 0.76515 0.0
H316 H 0.00059 0.0396 0.79486 0.0
H317 H 0.93006 -0.00151 0.82108 0.0
H318 H 0.77118 0.81842 0.77783 0.0
H319 H 0.7521 0.74412 0.7811 0.0
H320 H 0.80888 0.78679 0.76451 0.0
H321 H 0.8831 0.76841 0.78217 0.0
H322 H 0.82647 0.72544 0.79875 0.0
H323 H 0.89581 0.78706 0.80759 0.0
H324 H 0.85024 0.93988 0.84369 0.0
H325 H 0.76936 0.86561 0.86238 0.0
H326 H 0.74265 0.73013 0.81849 0.0
C327 C 0.92409 0.8958 0.77719 0.0
C328 C 0.96653 0.95634 0.77793 0.0
C329 C 0.96856 0.99305 0.79398 0.0
C330 C 0.92857 0.97018 0.80893 0.0
C331 C 0.88703 0.91049 0.80769 0.0
C332 C 0.88472 0.87363 0.79235 0.0
C333 C 0.83614 0.81093 0.79474 0.0
C334 C 0.78931 0.78878 0.77859 0.0
C335 C 0.86194 0.77059 0.79588 0.0
C336 C 0.81155 0.81846 0.81382 0.0
C337 C 0.84134 0.87634 0.82095 0.0
C338 C 0.82651 0.8944 0.83827 0.0
C339 C 0.78028 0.85202 0.8487 0.0
C340 C 0.74965 0.79229 0.84182 0.0
C341 C 0.76552 0.77547 0.82411 0.0
H342 H 0.07203 0.93819 0.1072 0.0
H343 H 0.25155 0.07726 0.12192 0.0
H344 H 0.25615 0.01919 0.14708 0.0
H345 H 0.02528 0.90006 0.15462 0.0
H346 H 0.98132 0.82232 0.14852 0.0
H347 H 0.99252 0.87338 0.13098 0.0
H348 H 0.03442 0.82438 0.10734 0.0
H349 H 0.02281 0.77278 0.12474 0.0
H350 H 0.09522 0.81674 0.11491 0.0
H351 H 0.23965 0.94934 0.17175 0.0
H352 H 0.20521 0.8689 0.19324 0.0
H353 H 0.03769 0.77331 0.16187 0.0
C354 C 0.11252 0.9562 0.11558 0.0
C355 C 0.16141 0.01233 0.1126 0.0
C356 C 0.21353 0.03436 0.12391 0.0
C357 C 0.21659 0.00177 0.13827 0.0
C358 C 0.16731 0.94712 0.14105 0.0
C359 C 0.11646 0.92416 0.12993 0.0
C360 C 0.0696 0.86452 0.13605 0.0
C361 C 0.0139 0.86515 0.14295 0.0
C362 C 0.05466 0.81679 0.11979 0.0
C363 C 0.10191 0.85797 0.1525 0.0
C364 C 0.15814 0.90617 0.15513 0.0
C365 C 0.19599 0.91098 0.16969 0.0
C366 C 0.17608 0.8649 0.18176 0.0
C367 C 0.11895 0.81445 0.17914 0.0
C368 C 0.08141 0.81135 0.16434 0.0
H369 H 0.27851 0.16801 0.43563 0.0
H370 H 0.19417 0.98794 0.41175 0.0
H371 H 0.24357 0.96485 0.43639 0.0
H372 H 0.4208 0.17804 0.44677 0.0
H373 H 0.43334 0.22452 0.46831 0.0
H374 H 0.39225 0.22718 0.44848 0.0
H375 H 0.30497 0.20568 0.47108 0.0
H376 H 0.34539 0.20198 0.49089 0.0
H377 H 0.27286 0.14099 0.48443 0.0
H378 H 0.29119 0.9584 0.4657 0.0
H379 H 0.34921 0.97195 0.49457 0.0
H380 H 0.41529 0.15954 0.49698 0.0
C381 C 0.27142 0.12408 0.43547 0.0
C382 C 0.23285 0.07972 0.42184 0.0
C383 C 0.22424 0.02263 0.42196 0.0
C384 C 0.25166 0.00899 0.43598 0.0
C385 C 0.28861 0.05332 0.44945 0.0
C386 C 0.29996 0.11008 0.44903 0.0
C387 C 0.343 0.14961 0.46493 0.0
C388 C 0.40078 0.19767 0.45663 0.0
C389 C 0.31484 0.17611 0.47864 0.0
C390 C 0.35265 0.10573 0.47461 0.0
C391 C 0.32015 0.0504 0.46558 0.0
C392 C 0.31844 0.00186 0.47256 0.0
C393 C 0.35219 0.01028 0.48896 0.0
C394 C 0.38876 0.06718 0.49798 0.0
C395 C 0.3882 0.11535 0.49066 0.0
H396 H 0.25273 0.25157 0.76392 0.0
H397 H 0.09711 0.25594 0.7836 0.0
H398 H 0.16099 0.35175 0.80102 0.0
H399 H 0.32859 0.3018 0.80655 0.0
H400 H 0.4012 0.34514 0.79677 0.0
H401 H 0.34448 0.28322 0.78275 0.0
H402 H 0.3584 0.34993 0.75541 0.0
H403 H 0.41548 0.41227 0.76937 0.0
H404 H 0.35268 0.41435 0.76049 0.0
H405 H 0.23925 0.43774 0.82002 0.0
H406 H 0.32577 0.50594 0.84024 0.0
H407 H 0.43222 0.44803 0.80809 0.0
C408 C 0.23221 0.27362 0.7714 0.0
C409 C 0.17005 0.24666 0.77232 0.0
C410 C 0.14469 0.27597 0.78268 0.0
C411 C 0.18061 0.33057 0.79251 0.0
C412 C 0.24177 0.35531 0.79176 0.0
C413 C 0.26747 0.32793 0.78143 0.0
C414 C 0.33377 0.36019 0.7849 0.0
C415 C 0.35309 0.32021 0.79324 0.0
C416 C 0.36704 0.38571 0.76644 0.0
C417 C 0.34086 0.40828 0.7995 0.0
C418 C 0.28745 0.40542 0.80293 0.0
C419 C 0.28166 0.4415 0.81713 0.0
C420 C 0.33134 0.48048 0.82849 0.0
C421 C 0.38618 0.48294 0.82567 0.0
C422 C 0.3911 0.44745 0.81057 0.0
H423 H 0.96812 0.16119 0.71216 0.0
H424 H 0.99477 0.02146 0.68783 0.0
H425 H 0.92545 0.00265 0.66128 0.0
H426 H 0.81375 0.08983 0.70141 0.0
H427 H 0.81556 0.15598 0.69586 0.0
H428 H 0.86863 0.15959 0.71262 0.0
H429 H 0.95439 0.2341 0.69234 0.0
H430 H 0.90157 0.23078 0.67552 0.0
H431 H 0.95803 0.21533 0.66727 0.0
H432 H 0.8518 -0.00214 0.63779 0.0
H433 H 0.77975 0.00809 0.61879 0.0
H434 H 0.80057 0.15007 0.65882 0.0
C435 C 0.95971 0.12683 0.70121 0.0
C436 C 0.98693 0.09284 0.70206 0.0
C437 C 0.97448 0.04812 0.68747 0.0
C438 C 0.93519 0.0371 0.67233 0.0
C439 C 0.90885 0.07121 0.67201 0.0
C440 C 0.92065 0.11522 0.68604 0.0
C441 C 0.88585 0.14496 0.68254 0.0
C442 C 0.84343 0.13709 0.69909 0.0
C443 C 0.92745 0.21015 0.67921 0.0
C444 C 0.85242 0.11064 0.66437 0.0
C445 C 0.86632 0.06833 0.65853 0.0
C446 C 0.84051 0.03079 0.64223 0.0
C447 C 0.79938 0.03668 0.63162 0.0
C448 C 0.78442 0.07972 0.63738 0.0
C449 C 0.81154 0.11716 0.65396 0.0
H450 H 0.97213 0.95428 0.02943 0.0
H451 H 0.04907 0.12072 0.00325 0.0
H452 H 0.98709 0.07058 0.97427 0.0
H453 H 0.96508 0.86819 0.98653 0.0
H454 H 0.8957 0.80512 0.99235 0.0
H455 H 0.94533 0.85413 0.01124 0.0
H456 H 0.86188 0.86945 0.02561 0.0
H457 H 0.81216 0.82001 0.00683 0.0
H458 H 0.8241 0.8931 0.0106 0.0
H459 H 0.91505 0.00261 0.94838 0.0
H460 H 0.83918 0.92065 0.92728 0.0
H461 H 0.81231 0.79912 0.97005 0.0
C462 C 0.97579 0.98023 0.01764 0.0
C463 C 0.0153 0.04141 0.01861 0.0
C464 C 0.0191 0.07375 0.00282 0.0
C465 C 0.9841 0.04572 0.98629 0.0
C466 C 0.94584 0.98531 0.98575 0.0
C467 C 0.94156 0.95291 0.00098 0.0
C468 C 0.89743 0.88845 0.99667 0.0
C469 C 0.92772 0.85183 0.99669 0.0
C470 C 0.84584 0.86651 0.01076 0.0
C471 C 0.87744 0.88976 0.97668 0.0
C472 C 0.90566 0.94602 0.97065 0.0
C473 C 0.89296 0.95827 0.95288 0.0
C474 C 0.84995 0.91168 0.94102 0.0
C475 C 0.82086 0.85379 0.94697 0.0
C476 C 0.83504 0.84286 0.96499 0.0
H477 H 0.0353 0.93856 0.36226 0.0
H478 H 0.01767 0.87253 0.41853 0.0
H479 H -0.0006 0.77768 0.40334 0.0
H480 H 0.92386 0.8002 0.33757 0.0
H481 H 0.96588 0.81273 0.31596 0.0
H482 H 0.97193 0.87401 0.33073 0.0
H483 H 0.08493 0.9207 0.33361 0.0
H484 H 0.08136 0.86098 0.31871 0.0
H485 H 0.11544 0.87892 0.34218 0.0
H486 H 0.99165 0.6926 0.3817 0.0
H487 H -0.00332 0.62676 0.35554 0.0
H488 H 0.02118 0.75103 0.31425 0.0
C489 C 0.02648 0.90388 0.37143 0.0
C490 C 0.02768 0.91287 0.39157 0.0
C491 C 0.01664 0.8665 0.40304 0.0
C492 C 0.00614 0.81246 0.39455 0.0
C493 C 0.00652 0.80554 0.37461 0.0
C494 C 0.01614 0.85004 0.36323 0.0
C495 C 0.01841 0.83348 0.34227 0.0
C496 C 0.96697 0.82994 0.33097 0.0
C497 C 0.0786 0.87605 0.3337 0.0
C498 C 0.01056 0.77349 0.34362 0.0
C499 C 0.0028 0.75744 0.36232 0.0
C500 C -0.00297 0.70448 0.367 0.0
C501 C -8e-05 0.66746 0.35216 0.0
C502 C 0.00916 0.68435 0.33311 0.0
C503 C 0.01378 0.73745 0.3288 0.0
H504 H 0.32699 0.12876 0.73357 0.0
H505 H 0.16679 0.96515 0.71683 0.0
H506 H 0.22496 0.93541 0.69591 0.0
H507 H 0.38542 0.15628 0.68933 0.0
H508 H 0.46179 0.18708 0.69637 0.0
H509 H 0.41065 0.19061 0.7131 0.0
H510 H 0.43695 0.1382 0.7376 0.0
H511 H 0.48877 0.13494 0.72096 0.0
H512 H 0.43093 0.06875 0.73053 0.0
H513 H 0.29531 0.93169 0.67263 0.0
H514 H 0.37297 0.9529 0.64909 0.0
H515 H 0.49039 0.11682 0.68165 0.0
C516 C 0.30446 0.0858 0.72602 0.0
C517 C 0.24238 0.04919 0.72688 0.0
C518 C 0.21433 0.99388 0.71643 0.0
C519 C 0.24705 0.97646 0.70457 0.0
C520 C 0.30786 0.01454 0.70346 0.0
C521 C 0.33651 0.0678 0.71407 0.0
C522 C 0.40092 0.10345 0.7086 0.0
C523 C 0.41549 0.16282 0.70142 0.0
C524 C 0.44181 0.1118 0.72543 0.0
C525 C 0.40308 0.06331 0.69253 0.0
C526 C 0.34922 0.01185 0.69005 0.0
C527 C 0.33831 0.97092 0.67479 0.0
C528 C 0.38315 0.98334 0.66151 0.0
C529 C 0.43856 0.03635 0.66352 0.0
C530 C 0.44881 0.07588 0.67962 0.0
H531 H 0.24439 0.19117 0.03483 0.0
H532 H 0.2902 0.31105 0.08552 0.0
H533 H 0.36037 0.3928 0.06656 0.0
H534 H 0.39295 0.26245 0.01341 0.0
H535 H 0.36271 0.24853 0.98944 0.0
H536 H 0.32165 0.19865 0.00756 0.0
H537 H 0.23211 0.21136 0.00111 0.0
H538 H 0.27298 0.26165 0.98313 0.0
H539 H 0.24201 0.28388 0.00291 0.0
H540 H 0.4171 0.4628 0.04136 0.0
H541 H 0.46036 0.51513 0.01205 0.0
H542 H 0.37678 0.34914 0.97802 0.0
C543 C 0.27016 0.23432 0.04208 0.0
C544 C 0.26199 0.2447 0.06168 0.0
C545 C 0.29599 0.302 0.07055 0.0
C546 C 0.33591 0.34872 0.0599 0.0
C547 C 0.34153 0.33723 0.04046 0.0
C548 C 0.31006 0.28131 0.03169 0.0
C549 C 0.32128 0.28111 0.01039 0.0
C550 C 0.35146 0.24559 0.00488 0.0
C551 C 0.26368 0.25816 -0.00129 0.0
C552 C 0.36293 0.34586 0.00846 0.0
C553 C 0.37432 0.3775 0.02597 0.0
C554 C 0.40912 0.43844 0.02761 0.0
C555 C 0.43305 0.46776 0.0109 0.0
C556 C 0.42197 0.43605 0.99284 0.0
C557 C 0.38673 0.37434 0.99169 0.0
H558 H 0.11442 0.3033 0.38213 0.0
H559 H 0.0914 0.15458 0.34513 0.0
H560 H 0.07503 0.19729 0.31742 0.0
H561 H 0.00399 0.31965 0.36048 0.0
H562 H 0.04471 0.39866 0.36265 0.0
H563 H 0.05796 0.35835 0.37956 0.0
H564 H 0.16951 0.41363 0.37159 0.0
H565 H 0.1567 0.45455 0.35477 0.0
H566 H 0.1918 0.4135 0.34703 0.0
H567 H 0.05345 0.25175 0.29423 0.0
H568 H 0.03688 0.31956 0.27644 0.0
H569 H 0.07701 0.43446 0.32808 0.0
C570 C 0.10668 0.28007 0.36817 0.0
C571 C 0.10408 0.22551 0.36583 0.0
C572 C 0.09374 0.19648 0.3473 0.0
C573 C 0.08422 0.2203 0.33145 0.0
C574 C 0.08581 0.27346 0.33432 0.0
C575 C 0.09759 0.30347 0.35214 0.0
C576 C 0.09618 0.35961 0.3513 0.0
C577 C 0.04782 0.35899 0.36427 0.0
C578 C 0.15719 0.41351 0.35648 0.0
C579 C 0.08082 0.35588 0.33031 0.0
C580 C 0.07479 0.30571 0.32079 0.0
C581 C 0.05857 0.29147 0.30146 0.0
C582 C 0.04883 0.32992 0.29153 0.0
C583 C 0.05577 0.38206 0.30092 0.0
C584 C 0.07199 0.3951 0.32055 0.0
loop_
_geom_bond_atom_site_label_1
_geom_bond_atom_site_label_2
_geom_bond_distance
_geom_bond_site_symmetry_2
_ccdc_geom_bond_type
C0 O1 1.160 . S
C0 O7 1.185 . S
O1 C0 1.160 . S
O2 Zn3 1.899 . S
O2 C10 1.284 . S
Zn3 O2 1.899 . S
Zn3 O4 2.032 . S
Zn3 O7 2.086 . S
Zn3 O12 1.977 . S
O4 Zn3 2.032 . S
O4 C8 1.278 . S
C5 O6 1.203 . S
C5 O12 1.267 . S
O6 C5 1.203 . S
O7 C0 1.185 . S
O7 Zn3 2.086 . S
C8 O4 1.278 . S
C8 O9 1.211 . S
O9 C8 1.211 . S
C10 O2 1.284 . S
C10 O11 1.273 . S
O11 C10 1.273 . S
O12 Zn3 1.977 . S
O12 C5 1.267 . S
C13 O14 1.160 . S
C13 O20 1.185 . S
O14 C13 1.160 . S
O15 Zn16 1.899 . S
O15 C23 1.284 1_545 S
Zn16 O15 1.899 . S
Zn16 O17 2.032 . S
Zn16 O20 2.086 . S
Zn16 O25 1.977 . S
O17 Zn16 2.032 . S
O17 C21 1.278 . S
C18 O19 1.203 . S
C18 O25 1.267 . S
O19 C18 1.203 . S
O20 C13 1.185 . S
O20 Zn16 2.086 . S
C21 O17 1.278 . S
C21 O22 1.211 . S
O22 C21 1.211 . S
C23 O15 1.284 1_565 S
C23 O24 1.273 . S
O24 C23 1.273 . S
O25 Zn16 1.977 . S
O25 C18 1.267 . S
C26 O27 1.160 . S
C26 O33 1.185 . S
O27 C26 1.160 . S
O28 Zn29 1.899 . S
O28 C36 1.284 . S
Zn29 O28 1.899 . S
Zn29 O30 2.032 . S
Zn29 O33 2.086 . S
Zn29 O38 1.977 . S
O30 Zn29 2.032 . S
O30 C34 1.278 . S
C31 O32 1.203 . S
C31 O38 1.267 . S
O32 C31 1.203 . S
O33 C26 1.185 . S
O33 Zn29 2.086 . S
C34 O30 1.278 . S
C34 O35 1.211 . S
O35 C34 1.211 . S
C36 O28 1.284 . S
C36 O37 1.273 . S
O37 C36 1.273 . S
O38 Zn29 1.977 . S
O38 C31 1.267 . S
H39 O65 0.856 . S
H40 O68 0.854 . S
H41 C76 0.930 1_655 S
H42 C77 0.930 . S
H43 C79 0.930 . S
H44 C80 0.930 . S
H45 C82 0.931 1_655 S
H46 C83 0.930 1_655 S
H47 C85 0.930 . S
H48 C86 0.929 . S
H49 C88 0.930 1_655 S
H50 C89 0.939 . S
H51 C91 0.930 . S
H52 C92 0.929 . S
H53 C94 0.931 1_655 S
H54 C95 0.930 1_655 S
H55 C97 0.930 . S
H56 C98 0.932 . S
H57 C100 0.930 1_655 S
H58 C101 0.929 . S
H59 C103 0.931 . S
H60 C104 0.930 . S
H61 C106 0.929 1_655 S
H62 C107 0.931 1_655 S
H63 C109 0.930 . S
H64 C110 0.929 . S
O65 H39 0.856 . S
O65 C111 1.300 . S
O66 C111 1.209 . S
O67 C112 1.199 . S
O68 H40 0.854 . S
O68 C112 1.297 . S
C69 C70 1.404 . S
C69 C74 1.397 . S
C69 C75 1.492 . S
C70 C69 1.404 . S
C70 C71 1.396 . S
C70 C81 1.492 . S
C71 C70 1.396 . S
C71 C72 1.397 . S
C71 C87 1.509 . S
C72 C71 1.397 . S
C72 C73 1.412 . S
C72 C93 1.485 . S
C73 C72 1.412 . S
C73 C74 1.388 . S
C73 C99 1.490 . S
C74 C69 1.397 . S
C74 C73 1.388 . S
C74 C105 1.519 . S
C75 C69 1.492 . S
C75 C76 1.363 . S
C75 C80 1.390 . S
C76 H41 0.930 1_455 S
C76 C75 1.363 . S
C76 C77 1.372 1_455 S
C77 H42 0.930 . S
C77 C76 1.372 1_655 S
C77 C78 1.383 1_655 S
C78 C77 1.383 1_455 S
C78 C79 1.395 . S
C79 H43 0.930 . S
C79 C78 1.395 . S
C79 C80 1.362 . S
C80 H44 0.930 . S
C80 C75 1.390 . S
C80 C79 1.362 . S
C81 C70 1.492 . S
C81 C82 1.377 . S
C81 C86 1.397 . S
C82 H45 0.931 1_455 S
C82 C81 1.377 . S
C82 C83 1.376 . S
C83 H46 0.930 1_455 S
C83 C82 1.376 . S
C83 C84 1.376 . S
C84 C83 1.376 . S
C84 C85 1.378 . S
C84 C111 1.486 . S
C85 H47 0.930 . S
C85 C84 1.378 . S
C85 C86 1.376 . S
C86 H48 0.929 . S
C86 C81 1.397 . S
C86 C85 1.376 . S
C87 C71 1.509 . S
C87 C88 1.391 . S
C87 C92 1.386 . S
C88 H49 0.930 1_455 S
C88 C87 1.391 . S
C88 C89 1.375 . S
C89 H50 0.939 . S
C89 C88 1.375 . S
C89 C90 1.375 . S
C90 C89 1.375 . S
C90 C91 1.361 . S
C91 H51 0.930 . S
C91 C90 1.361 . S
C91 C92 1.399 . S
C92 H52 0.929 . S
C92 C87 1.386 . S
C92 C91 1.399 . S
C93 C72 1.485 . S
C93 C94 1.394 . S
C93 C98 1.360 . S
C94 H53 0.931 1_455 S
C94 C93 1.394 . S
C94 C95 1.372 . S
C95 H54 0.930 1_455 S
C95 C94 1.372 . S
C95 C96 1.397 . S
C96 C95 1.397 . S
C96 C97 1.390 . S
C96 C112 1.476 . S
C97 H55 0.930 . S
C97 C96 1.390 . S
C97 C98 1.366 . S
C98 H56 0.932 . S
C98 C93 1.360 . S
C98 C97 1.366 . S
C99 C73 1.490 . S
C99 C100 1.380 . S
C99 C104 1.386 . S
C100 H57 0.930 1_455 S
C100 C99 1.380 . S
C100 C101 1.381 1_455 S
C101 H58 0.929 . S
C101 C100 1.381 1_655 S
C101 C102 1.371 1_655 S
C102 C101 1.371 1_455 S
C102 C103 1.380 . S
C103 H59 0.931 . S
C103 C102 1.380 . S
C103 C104 1.387 . S
C104 H60 0.930 . S
C104 C99 1.386 . S
C104 C103 1.387 . S
C105 C74 1.519 . S
C105 C106 1.377 . S
C105 C110 1.361 . S
C106 H61 0.929 1_455 S
C106 C105 1.377 . S
C106 C107 1.386 . S
C107 H62 0.931 1_455 S
C107 C106 1.386 . S
C107 C108 1.363 . S
C108 C107 1.363 . S
C108 C109 1.385 . S
C109 H63 0.930 . S
C109 C108 1.385 . S
C109 C110 1.396 . S
C110 H64 0.929 . S
C110 C105 1.361 . S
C110 C109 1.396 . S
C111 O65 1.300 . S
C111 O66 1.209 . S
C111 C84 1.486 . S
C112 O67 1.199 . S
C112 O68 1.297 . S
C112 C96 1.476 . S
H113 O139 0.856 . S
H114 O142 0.854 . S
H115 C150 0.930 . S
H116 C151 0.930 1_565 S
H117 C153 0.930 . S
H118 C154 0.930 . S
H119 C156 0.931 . S
H120 C157 0.930 . S
H121 C159 0.930 . S
H122 C160 0.929 . S
H123 C162 0.930 . S
H124 C163 0.931 . S
H125 C165 0.930 . S
H126 C166 0.929 . S
H127 C168 0.931 . S
H128 C169 0.930 . S
H129 C171 0.930 . S
H130 C172 0.932 . S
H131 C174 0.930 . S
H132 C175 0.930 . S
H133 C177 0.931 . S
H134 C178 0.930 . S
H135 C180 0.929 . S
H136 C181 0.931 . S
H137 C183 0.930 . S
H138 C184 0.929 . S
O139 H113 0.856 . S
O139 C185 1.300 . S
O140 C185 1.209 . S
O141 C186 1.199 . S
O142 H114 0.854 . S
O142 C186 1.297 . S
C143 C144 1.404 . S
C143 C148 1.397 . S
C143 C149 1.492 . S
C144 C143 1.404 . S
C144 C145 1.396 . S
C144 C155 1.492 . S
C145 C144 1.396 . S
C145 C146 1.397 . S
C145 C161 1.509 . S
C146 C145 1.397 . S
C146 C147 1.412 . S
C146 C167 1.485 . S
C147 C146 1.412 . S
C147 C148 1.388 . S
C147 C173 1.490 . S
C148 C143 1.397 . S
C148 C147 1.388 . S
C148 C179 1.519 . S
C149 C143 1.492 . S
C149 C150 1.363 . S
C149 C154 1.390 . S
C150 H115 0.930 . S
C150 C149 1.363 . S
C150 C151 1.372 . S
C151 H116 0.930 1_545 S
C151 C150 1.372 . S
C151 C152 1.383 . S
C152 C151 1.383 . S
C152 C153 1.395 . S
C153 H117 0.930 . S
C153 C152 1.395 . S
C153 C154 1.362 . S
C154 H118 0.930 . S
C154 C149 1.390 . S
C154 C153 1.362 . S
C155 C144 1.492 . S
C155 C156 1.377 . S
C155 C160 1.397 . S
C156 H119 0.931 . S
C156 C155 1.377 . S
C156 C157 1.376 . S
C157 H120 0.930 . S
C157 C156 1.376 . S
C157 C158 1.376 . S
C158 C157 1.376 . S
C158 C159 1.378 . S
C158 C185 1.486 . S
C159 H121 0.930 . S
C159 C158 1.378 . S
C159 C160 1.376 . S
C160 H122 0.929 . S
C160 C155 1.397 . S
C160 C159 1.376 . S
C161 C145 1.509 . S
C161 C162 1.391 . S
C161 C166 1.386 . S
C162 H123 0.930 . S
C162 C161 1.391 . S
C162 C163 1.375 . S
C163 H124 0.931 . S
C163 C162 1.375 . S
C163 C164 1.375 . S
C164 C163 1.375 . S
C164 C165 1.361 . S
C165 H125 0.930 . S
C165 C164 1.361 . S
C165 C166 1.399 . S
C166 H126 0.929 . S
C166 C161 1.386 . S
C166 C165 1.399 . S
C167 C146 1.485 . S
C167 C168 1.394 . S
C167 C172 1.360 . S
C168 H127 0.931 . S
C168 C167 1.394 . S
C168 C169 1.372 . S
C169 H128 0.930 . S
C169 C168 1.372 . S
C169 C170 1.397 . S
C170 C169 1.397 . S
C170 C171 1.390 . S
C170 C186 1.476 . S
C171 H129 0.930 . S
C171 C170 1.390 . S
C171 C172 1.366 . S
C172 H130 0.932 . S
C172 C167 1.360 . S
C172 C171 1.366 . S
C173 C147 1.490 . S
C173 C174 1.380 . S
C173 C178 1.386 . S
C174 H131 0.930 . S
C174 C173 1.380 . S
C174 C175 1.381 . S
C175 H132 0.930 . S
C175 C174 1.381 . S
C175 C176 1.371 . S
C176 C175 1.371 . S
C176 C177 1.380 . S
C177 H133 0.931 . S
C177 C176 1.380 . S
C177 C178 1.387 . S
C178 H134 0.930 . S
C178 C173 1.386 . S
C178 C177 1.387 . S
C179 C148 1.519 . S
C179 C180 1.377 . S
C179 C184 1.361 . S
C180 H135 0.929 . S
C180 C179 1.377 . S
C180 C181 1.386 . S
C181 H136 0.931 . S
C181 C180 1.386 . S
C181 C182 1.363 . S
C182 C181 1.363 . S
C182 C183 1.385 . S
C183 H137 0.930 . S
C183 C182 1.385 . S
C183 C184 1.396 . S
C184 H138 0.929 . S
C184 C179 1.361 . S
C184 C183 1.396 . S
C185 O139 1.300 . S
C185 O140 1.209 . S
C185 C158 1.486 . S
C186 O141 1.199 . S
C186 O142 1.297 . S
C186 C170 1.476 . S
H187 O213 0.856 . S
H188 O216 0.854 . S
H189 C224 0.930 . S
H190 C225 0.930 . S
H191 C227 0.930 . S
H192 C228 0.930 . S
H193 C230 0.931 . S
H194 C231 0.930 1_554 S
H195 C233 0.930 . S
H196 C234 0.929 . S
H197 C236 0.930 . S
H198 C237 0.931 . S
H199 C239 0.930 . S
H200 C240 0.929 . S
H201 C242 0.931 . S
H202 C243 0.930 . S
H203 C245 0.930 . S
H204 C246 0.932 . S
H205 C248 0.930 . S
H206 C249 0.929 . S
H207 C251 0.931 . S
H208 C252 0.930 . S
H209 C254 0.929 . S
H210 C255 0.931 . S
H211 C257 0.930 . S
H212 C258 0.929 . S
O213 H187 0.856 . S
O213 C259 1.300 . S
O214 C259 1.209 . S
O215 C260 1.199 . S
O216 H188 0.854 . S
O216 C260 1.297 . S
C217 C218 1.404 . S
C217 C222 1.397 . S
C217 C223 1.492 . S
C218 C217 1.404 . S
C218 C219 1.396 . S
C218 C229 1.492 . S
C219 C218 1.396 . S
C219 C220 1.397 . S
C219 C235 1.509 . S
C220 C219 1.397 . S
C220 C221 1.412 . S
C220 C241 1.485 . S
C221 C220 1.412 . S
C221 C222 1.388 . S
C221 C247 1.490 . S
C222 C217 1.397 . S
C222 C221 1.388 . S
C222 C253 1.519 . S
C223 C217 1.492 . S
C223 C224 1.363 . S
C223 C228 1.390 . S
C224 H189 0.930 . S
C224 C223 1.363 . S
C224 C225 1.372 . S
C225 H190 0.930 . S
C225 C224 1.372 . S
C225 C226 1.383 . S
C226 C225 1.383 . S
C226 C227 1.395 . S
C227 H191 0.930 . S
C227 C226 1.395 . S
C227 C228 1.362 . S
C228 H192 0.930 . S
C228 C223 1.390 . S
C228 C227 1.362 . S
C229 C218 1.492 . S
C229 C230 1.377 . S
C229 C234 1.397 . S
C230 H193 0.931 . S
C230 C229 1.377 . S
C230 C231 1.376 . S
C231 H194 0.930 1_556 S
C231 C230 1.376 . S
C231 C232 1.376 1_556 S
C232 C231 1.376 1_554 S
C232 C233 1.378 1_554 S
C232 C259 1.486 . S
C233 H195 0.930 . S
C233 C232 1.378 1_556 S
C233 C234 1.376 . S
C234 H196 0.929 . S
C234 C229 1.397 . S
C234 C233 1.376 . S
C235 C219 1.509 . S
C235 C236 1.391 . S
C235 C240 1.386 . S
C236 H197 0.930 . S
C236 C235 1.391 . S
C236 C237 1.375 . S
C237 H198 0.931 . S
C237 C236 1.375 . S
C237 C238 1.375 . S
C238 C237 1.375 . S
C238 C239 1.361 . S
C239 H199 0.930 . S
C239 C238 1.361 . S
C239 C240 1.399 . S
C240 H200 0.929 . S
C240 C235 1.386 . S
C240 C239 1.399 . S
C241 C220 1.485 . S
C241 C242 1.394 . S
C241 C246 1.360 . S
C242 H201 0.931 . S
C242 C241 1.394 . S
C242 C243 1.372 . S
C243 H202 0.930 . S
C243 C242 1.372 . S
C243 C244 1.397 . S
C244 C243 1.397 . S
C244 C245 1.390 . S
C244 C260 1.476 . S
C245 H203 0.930 . S
C245 C244 1.390 . S
C245 C246 1.366 . S
C246 H204 0.932 . S
C246 C241 1.360 . S
C246 C245 1.366 . S
C247 C221 1.490 . S
C247 C248 1.380 . S
C247 C252 1.386 . S
C248 H205 0.930 . S
C248 C247 1.380 . S
C248 C249 1.381 . S
C249 H206 0.929 . S
C249 C248 1.381 . S
C249 C250 1.371 . S
C250 C249 1.371 . S
C250 C251 1.380 . S
C251 H207 0.931 . S
C251 C250 1.380 . S
C251 C252 1.387 . S
C252 H208 0.930 . S
C252 C247 1.386 . S
C252 C251 1.387 . S
C253 C222 1.519 . S
C253 C254 1.377 . S
C253 C258 1.361 . S
C254 H209 0.929 . S
C254 C253 1.377 . S
C254 C255 1.386 . S
C255 H210 0.931 . S
C255 C254 1.386 . S
C255 C256 1.363 . S
C256 C255 1.363 . S
C256 C257 1.385 . S
C257 H211 0.930 . S
C257 C256 1.385 . S
C257 C258 1.396 . S
C258 H212 0.929 . S
C258 C253 1.361 . S
C258 C257 1.396 . S
C259 O213 1.300 . S
C259 O214 1.209 . S
C259 C232 1.486 . S
C260 O215 1.199 . S
C260 O216 1.297 . S
C260 C244 1.476 . S
H261 C273 0.930 . S
H262 C275 0.930 . S
H263 C276 0.930 . S
H264 C280 0.959 . S
H265 C280 0.959 . S
H266 C280 0.961 . S
H267 C281 0.960 . S
H268 C281 0.961 . S
H269 C281 0.959 . S
H270 C284 0.929 . S
H271 C285 0.931 . S
H272 C287 0.930 1_655 S
C273 H261 0.930 . S
C273 C274 1.399 . S
C273 C278 1.399 . S
C274 C273 1.399 . S
C274 C275 1.376 . S
C275 H262 0.930 . S
C275 C274 1.376 . S
C275 C276 1.388 . S
C276 H263 0.930 . S
C276 C275 1.388 . S
C276 C277 1.390 . S
C277 C276 1.390 . S
C277 C278 1.394 . S
C277 C283 1.465 . S
C278 C273 1.399 . S
C278 C277 1.394 . S
C278 C279 1.516 . S
C279 C278 1.516 . S
C279 C280 1.502 1_455 S
C279 C281 1.561 . S
C279 C282 1.526 . S
C280 H264 0.959 . S
C280 H265 0.959 . S
C280 H266 0.961 . S
C280 C279 1.502 1_655 S
C281 H267 0.960 . S
C281 H268 0.961 . S
C281 H269 0.959 . S
C281 C279 1.561 . S
C282 C279 1.526 . S
C282 C283 1.396 . S
C282 C287 1.390 . S
C283 C277 1.465 . S
C283 C282 1.396 . S
C283 C284 1.399 . S
C284 H270 0.929 . S
C284 C283 1.399 . S
C284 C285 1.385 . S
C285 H271 0.931 . S
C285 C284 1.385 . S
C285 C286 1.389 . S
C286 C285 1.389 . S
C286 C287 1.387 . S
C287 H272 0.930 1_455 S
C287 C282 1.390 . S
C287 C286 1.387 . S
H288 C300 0.930 1_455 S
H289 C302 0.930 1_565 S
H290 C303 0.930 1_565 S
H291 C307 0.959 1_655 S
H292 C307 0.959 . S
H293 C307 0.961 . S
H294 C308 0.960 1_455 S
H295 C308 0.961 . S
H296 C308 0.959 . S
H297 C311 0.929 1_565 S
H298 C312 0.931 1_565 S
H299 C314 0.930 . S
C300 H288 0.930 1_655 S
C300 C301 1.399 . S
C300 C305 1.399 . S
C301 C300 1.399 . S
C301 C302 1.376 . S
C302 H289 0.930 1_545 S
C302 C301 1.376 . S
C302 C303 1.388 . S
C303 H290 0.930 1_545 S
C303 C302 1.388 . S
C303 C304 1.390 . S
C304 C303 1.390 . S
C304 C305 1.394 . S
C304 C310 1.465 . S
C305 C300 1.399 . S
C305 C304 1.394 . S
C305 C306 1.516 . S
C306 C305 1.516 . S
C306 C307 1.502 1_655 S
C306 C308 1.561 . S
C306 C309 1.526 . S
C307 H291 0.959 1_455 S
C307 H292 0.959 . S
C307 H293 0.961 . S
C307 C306 1.502 1_455 S
C308 H294 0.960 1_655 S
C308 H295 0.961 . S
C308 H296 0.959 . S
C308 C306 1.561 . S
C309 C306 1.526 . S
C309 C310 1.396 . S
C309 C314 1.390 . S
C310 C304 1.465 . S
C310 C309 1.396 . S
C310 C311 1.399 . S
C311 H297 0.929 1_545 S
C311 C310 1.399 . S
C311 C312 1.385 . S
C312 H298 0.931 1_545 S
C312 C311 1.385 . S
C312 C313 1.389 . S
C313 C312 1.389 . S
C313 C314 1.387 . S
C314 H299 0.930 . S
C314 C309 1.390 . S
C314 C313 1.387 . S
H315 C327 0.930 . S
H316 C329 0.930 1_545 S
H317 C330 0.930 . S
H318 C334 0.959 . S
H319 C334 0.959 . S
H320 C334 0.961 . S
H321 C335 0.960 . S
H322 C335 0.961 . S
H323 C335 0.959 . S
H324 C338 0.929 . S
H325 C339 0.931 . S
H326 C341 0.930 . S
C327 H315 0.930 . S
C327 C328 1.399 . S
C327 C332 1.399 . S
C328 C327 1.399 . S
C328 C329 1.376 1_655 S
C329 H316 0.930 1_565 S
C329 C328 1.376 1_455 S
C329 C330 1.388 1_455 S
C330 H317 0.930 . S
C330 C329 1.388 1_655 S
C330 C331 1.390 . S
C331 C330 1.390 . S
C331 C332 1.394 . S
C331 C337 1.465 . S
C332 C327 1.399 . S
C332 C331 1.394 . S
C332 C333 1.516 . S
C333 C332 1.516 . S
C333 C334 1.502 . S
C333 C335 1.561 . S
C333 C336 1.526 . S
C334 H318 0.959 . S
C334 H319 0.959 . S
C334 H320 0.961 . S
C334 C333 1.502 . S
C335 H321 0.960 . S
C335 H322 0.961 . S
C335 H323 0.959 . S
C335 C333 1.561 . S
C336 C333 1.526 . S
C336 C337 1.396 . S
C336 C341 1.390 . S
C337 C331 1.465 . S
C337 C336 1.396 . S
C337 C338 1.399 . S
C338 H324 0.929 . S
C338 C337 1.399 . S
C338 C339 1.385 . S
C339 H325 0.931 . S
C339 C338 1.385 . S
C339 C340 1.389 . S
C340 C339 1.389 . S
C340 C341 1.387 . S
C341 H326 0.930 . S
C341 C336 1.390 . S
C341 C340 1.387 . S
H342 C354 0.930 . S
H343 C356 0.930 . S
H344 C357 0.930 1_545 S
H345 C361 0.959 . S
H346 C361 0.959 . S
H347 C361 0.961 . S
H348 C362 0.960 . S
H349 C362 0.961 . S
H350 C362 0.959 . S
H351 C365 0.929 . S
H352 C366 0.931 . S
H353 C368 0.930 . S
C354 H342 0.930 . S
C354 C355 1.399 . S
C354 C359 1.399 . S
C355 C354 1.399 . S
C355 C356 1.376 1_565 S
C356 H343 0.930 . S
C356 C355 1.376 1_545 S
C356 C357 1.388 1_545 S
C357 H344 0.930 1_565 S
C357 C356 1.388 1_565 S
C357 C358 1.390 . S
C358 C357 1.390 . S
C358 C359 1.394 . S
C358 C364 1.465 . S
C359 C354 1.399 . S
C359 C358 1.394 . S
C359 C360 1.516 . S
C360 C359 1.516 . S
C360 C361 1.502 1_455 S
C360 C362 1.561 . S
C360 C363 1.526 . S
C361 H345 0.959 . S
C361 H346 0.959 . S
C361 H347 0.961 . S
C361 C360 1.502 1_655 S
C362 H348 0.960 . S
C362 H349 0.961 . S
C362 H350 0.959 . S
C362 C360 1.561 . S
C363 C360 1.526 . S
C363 C364 1.396 . S
C363 C368 1.390 . S
C364 C358 1.465 . S
C364 C363 1.396 . S
C364 C365 1.399 . S
C365 H351 0.929 . S
C365 C364 1.399 . S
C365 C366 1.385 . S
C366 H352 0.931 . S
C366 C365 1.385 . S
C366 C367 1.389 . S
C367 C366 1.389 . S
C367 C368 1.387 . S
C368 H353 0.930 . S
C368 C363 1.390 . S
C368 C367 1.387 . S
H369 C381 0.930 . S
H370 C383 0.930 . S
H371 C384 0.930 . S
H372 C388 0.959 . S
H373 C388 0.959 . S
H374 C388 0.961 . S
H375 C389 0.960 . S
H376 C389 0.961 . S
H377 C389 0.959 . S
H378 C392 0.929 . S
H379 C393 0.931 . S
H380 C395 0.930 . S
C381 H369 0.930 . S
C381 C382 1.399 . S
C381 C386 1.399 . S
C382 C381 1.399 . S
C382 C383 1.376 . S
C383 H370 0.930 . S
C383 C382 1.376 . S
C383 C384 1.388 . S
C384 H371 0.930 . S
C384 C383 1.388 . S
C384 C385 1.390 . S
C385 C384 1.390 . S
C385 C386 1.394 . S
C385 C391 1.465 . S
C386 C381 1.399 . S
C386 C385 1.394 . S
C386 C387 1.516 . S
C387 C386 1.516 . S
C387 C388 1.502 . S
C387 C389 1.561 . S
C387 C390 1.526 . S
C388 H372 0.959 . S
C388 H373 0.959 . S
C388 H374 0.961 . S
C388 C387 1.502 . S
C389 H375 0.960 . S
C389 H376 0.961 . S
C389 H377 0.959 . S
C389 C387 1.561 . S
C390 C387 1.526 . S
C390 C391 1.396 . S
C390 C395 1.390 . S
C391 C385 1.465 . S
C391 C390 1.396 . S
C391 C392 1.399 . S
C392 H378 0.929 . S
C392 C391 1.399 . S
C392 C393 1.385 . S
C393 H379 0.931 . S
C393 C392 1.385 . S
C393 C394 1.389 . S
C394 C393 1.389 . S
C394 C395 1.387 . S
C395 H380 0.930 . S
C395 C390 1.390 . S
C395 C394 1.387 . S
H396 C408 0.930 . S
H397 C410 0.930 . S
H398 C411 0.930 . S
H399 C415 0.959 . S
H400 C415 0.959 . S
H401 C415 0.961 . S
H402 C416 0.960 . S
H403 C416 0.961 . S
H404 C416 0.959 . S
H405 C419 0.929 . S
H406 C420 0.931 . S
H407 C422 0.930 . S
C408 H396 0.930 . S
C408 C409 1.399 . S
C408 C413 1.399 . S
C409 C408 1.399 . S
C409 C410 1.376 . S
C410 H397 0.930 . S
C410 C409 1.376 . S
C410 C411 1.388 . S
C411 H398 0.930 . S
C411 C410 1.388 . S
C411 C412 1.390 . S
C412 C411 1.390 . S
C412 C413 1.394 . S
C412 C418 1.465 . S
C413 C408 1.399 . S
C413 C412 1.394 . S
C413 C414 1.516 . S
C414 C413 1.516 . S
C414 C415 1.502 . S
C414 C416 1.561 . S
C414 C417 1.526 . S
C415 H399 0.959 . S
C415 H400 0.959 . S
C415 H401 0.961 . S
C415 C414 1.502 . S
C416 H402 0.960 . S
C416 H403 0.961 . S
C416 H404 0.959 . S
C416 C414 1.561 . S
C417 C414 1.526 . S
C417 C418 1.396 . S
C417 C422 1.390 . S
C418 C412 1.465 . S
C418 C417 1.396 . S
C418 C419 1.399 . S
C419 H405 0.929 . S
C419 C418 1.399 . S
C419 C420 1.385 . S
C420 H406 0.931 . S
C420 C419 1.385 . S
C420 C421 1.389 . S
C421 C420 1.389 . S
C421 C422 1.387 . S
C422 H407 0.930 . S
C422 C417 1.390 . S
C422 C421 1.387 . S
H423 C435 0.930 1_455 S
H424 C437 0.930 . S
H425 C438 0.930 . S
H426 C442 0.959 . S
H427 C442 0.959 . S
H428 C442 0.961 . S
H429 C443 0.960 1_455 S
H430 C443 0.961 . S
H431 C443 0.959 . S
H432 C446 0.929 . S
H433 C447 0.931 . S
H434 C449 0.930 . S
C435 H423 0.930 1_655 S
C435 C436 1.399 1_655 S
C435 C440 1.399 . S
C436 C435 1.399 1_455 S
C436 C437 1.376 1_455 S
C437 H424 0.930 . S
C437 C436 1.376 1_655 S
C437 C438 1.388 . S
C438 H425 0.930 . S
C438 C437 1.388 . S
C438 C439 1.390 . S
C439 C438 1.390 . S
C439 C440 1.394 . S
C439 C445 1.465 . S
C440 C435 1.399 . S
C440 C439 1.394 . S
C440 C441 1.516 . S
C441 C440 1.516 . S
C441 C442 1.502 . S
C441 C443 1.561 . S
C441 C444 1.526 . S
C442 H426 0.959 . S
C442 H427 0.959 . S
C442 H428 0.961 . S
C442 C441 1.502 . S
C443 H429 0.960 1_655 S
C443 H430 0.961 . S
C443 H431 0.959 . S
C443 C441 1.561 . S
C444 C441 1.526 . S
C444 C445 1.396 . S
C444 C449 1.390 . S
C445 C439 1.465 . S
C445 C444 1.396 . S
C445 C446 1.399 . S
C446 H432 0.929 . S
C446 C445 1.399 . S
C446 C447 1.385 . S
C447 H433 0.931 . S
C447 C446 1.385 . S
C447 C448 1.389 . S
C448 C447 1.389 . S
C448 C449 1.387 . S
C449 H434 0.930 . S
C449 C444 1.390 . S
C449 C448 1.387 . S
H450 C462 0.930 . S
H451 C464 0.930 . S
H452 C465 0.930 . S
H453 C469 0.959 . S
H454 C469 0.959 . S
H455 C469 0.961 . S
H456 C470 0.960 . S
H457 C470 0.961 . S
H458 C470 0.959 . S
H459 C473 0.912 1_545 S
H460 C474 0.931 . S
H461 C476 0.930 . S
C462 H450 0.930 . S
C462 C463 1.399 1_565 S
C462 C467 1.399 . S
C463 C462 1.399 1_545 S
C463 C464 1.376 . S
C464 H451 0.930 . S
C464 C463 1.376 . S
C464 C465 1.388 . S
C465 H452 0.930 . S
C465 C464 1.388 . S
C465 C466 1.390 1_545 S
C466 C465 1.390 1_565 S
C466 C467 1.394 . S
C466 C472 1.465 1_554 S
C467 C462 1.399 . S
C467 C466 1.394 . S
C467 C468 1.516 . S
C468 C467 1.516 . S
C468 C469 1.502 . S
C468 C470 1.561 . S
C468 C471 1.526 1_554 S
C469 H453 0.959 . S
C469 H454 0.959 . S
C469 H455 0.961 . S
C469 C468 1.502 . S
C470 H456 0.960 . S
C470 H457 0.961 . S
C470 H458 0.959 . S
C470 C468 1.561 . S
C471 C468 1.526 1_556 S
C471 C472 1.396 . S
C471 C476 1.390 . S
C472 C466 1.465 1_556 S
C472 C471 1.396 . S
C472 C473 1.399 . S
C473 H459 0.912 1_565 S
C473 C472 1.399 . S
C473 C474 1.385 . S
C474 H460 0.931 . S
C474 C473 1.385 . S
C474 C475 1.389 . S
C475 C474 1.389 . S
C475 C476 1.387 . S
C476 H461 0.930 . S
C476 C471 1.390 . S
C476 C475 1.387 . S
H477 C489 0.930 . S
H478 C491 0.930 . S
H479 C492 0.930 . S
H480 C496 0.959 . S
H481 C496 0.959 . S
H482 C496 0.961 . S
H483 C497 0.960 . S
H484 C497 0.961 . S
H485 C497 0.959 . S
H486 C500 0.929 . S
H487 C501 0.931 . S
H488 C503 0.930 . S
C489 H477 0.930 . S
C489 C490 1.399 . S
C489 C494 1.399 . S
C490 C489 1.399 . S
C490 C491 1.376 . S
C491 H478 0.930 . S
C491 C490 1.376 . S
C491 C492 1.388 . S
C492 H479 0.930 . S
C492 C491 1.388 . S
C492 C493 1.390 . S
C493 C492 1.390 . S
C493 C494 1.394 . S
C493 C499 1.465 . S
C494 C489 1.399 . S
C494 C493 1.394 . S
C494 C495 1.516 . S
C495 C494 1.516 . S
C495 C496 1.502 1_455 S
C495 C497 1.561 . S
C495 C498 1.526 . S
C496 H480 0.959 . S
C496 H481 0.959 . S
C496 H482 0.961 . S
C496 C495 1.502 1_655 S
C497 H483 0.960 . S
C497 H484 0.961 . S
C497 H485 0.959 . S
C497 C495 1.561 . S
C498 C495 1.526 . S
C498 C499 1.396 . S
C498 C503 1.390 . S
C499 C493 1.465 . S
C499 C498 1.396 . S
C499 C500 1.399 . S
C500 H486 0.929 . S
C500 C499 1.399 . S
C500 C501 1.385 . S
C501 H487 0.931 . S
C501 C500 1.385 . S
C501 C502 1.389 . S
C502 C501 1.389 . S
C502 C503 1.387 . S
C503 H488 0.930 . S
C503 C498 1.390 . S
C503 C502 1.387 . S
H504 C516 0.930 . S
H505 C518 0.930 1_565 S
H506 C519 0.930 . S
H507 C523 0.959 . S
H508 C523 0.959 . S
H509 C523 0.961 . S
H510 C524 0.960 . S
H511 C524 0.961 . S
H512 C524 0.959 . S
H513 C527 0.929 . S
H514 C528 0.931 1_565 S
H515 C530 0.930 . S
C516 H504 0.930 . S
C516 C517 1.399 . S
C516 C521 1.399 . S
C517 C516 1.399 . S
C517 C518 1.376 . S
C518 H505 0.930 1_545 S
C518 C517 1.376 . S
C518 C519 1.388 1_545 S
C519 H506 0.930 . S
C519 C518 1.388 1_565 S
C519 C520 1.390 1_565 S
C520 C519 1.390 1_545 S
C520 C521 1.394 . S
C520 C526 1.465 . S
C521 C516 1.399 . S
C521 C520 1.394 . S
C521 C522 1.516 . S
C522 C521 1.516 . S
C522 C523 1.502 . S
C522 C524 1.561 . S
C522 C525 1.526 . S
C523 H507 0.959 . S
C523 H508 0.959 . S
C523 H509 0.961 . S
C523 C522 1.502 . S
C524 H510 0.960 . S
C524 H511 0.961 . S
C524 H512 0.959 . S
C524 C522 1.561 . S
C525 C522 1.526 . S
C525 C526 1.396 . S
C525 C530 1.390 . S
C526 C520 1.465 . S
C526 C525 1.396 . S
C526 C527 1.399 1_545 S
C527 H513 0.929 . S
C527 C526 1.399 1_565 S
C527 C528 1.385 1_565 S
C528 H514 0.931 1_545 S
C528 C527 1.385 1_545 S
C528 C529 1.389 . S
C529 C528 1.389 . S
C529 C530 1.387 . S
C530 H515 0.930 . S
C530 C525 1.390 . S
C530 C529 1.387 . S
H531 C543 0.930 . S
H532 C545 0.930 . S
H533 C546 0.930 . S
H534 C550 0.953 1_554 S
H535 C550 0.969 . S
H536 C550 0.959 1_554 S
H537 C551 0.960 . S
H538 C551 0.961 . S
H539 C551 0.959 . S
H540 C554 0.929 . S
H541 C555 0.931 . S
H542 C557 0.930 . S
C543 H531 0.930 . S
C543 C544 1.399 . S
C543 C548 1.399 . S
C544 C543 1.399 . S
C544 C545 1.376 . S
C545 H532 0.930 . S
C545 C544 1.376 . S
C545 C546 1.388 . S
C546 H533 0.930 . S
C546 C545 1.388 . S
C546 C547 1.390 . S
C547 C546 1.390 . S
C547 C548 1.394 . S
C547 C553 1.465 . S
C548 C543 1.399 . S
C548 C547 1.394 . S
C548 C549 1.516 . S
C549 C548 1.516 . S
C549 C550 1.500 1_554 S
C549 C551 1.561 1_554 S
C549 C552 1.526 . S
C550 H534 0.953 1_556 S
C550 H535 0.969 . S
C550 H536 0.959 1_556 S
C550 C549 1.500 1_556 S
C551 H537 0.960 . S
C551 H538 0.961 . S
C551 H539 0.959 . S
C551 C549 1.561 1_556 S
C552 C549 1.526 . S
C552 C553 1.396 . S
C552 C557 1.390 1_554 S
C553 C547 1.465 . S
C553 C552 1.396 . S
C553 C554 1.399 . S
C554 H540 0.929 . S
C554 C553 1.399 . S
C554 C555 1.385 . S
C555 H541 0.931 . S
C555 C554 1.385 . S
C555 C556 1.389 1_554 S
C556 C555 1.389 1_556 S
C556 C557 1.387 . S
C557 H542 0.930 . S
C557 C552 1.390 1_556 S
C557 C556 1.387 . S
H558 C570 0.930 . S
H559 C572 0.930 . S
H560 C573 0.930 . S
H561 C577 0.959 . S
H562 C577 0.959 . S
H563 C577 0.961 . S
H564 C578 0.960 . S
H565 C578 0.961 . S
H566 C578 0.959 . S
H567 C581 0.929 . S
H568 C582 0.931 . S
H569 C584 0.930 . S
C570 H558 0.930 . S
C570 C571 1.399 . S
C570 C575 1.399 . S
C571 C570 1.399 . S
C571 C572 1.376 . S
C572 H559 0.930 . S
C572 C571 1.376 . S
C572 C573 1.388 . S
C573 H560 0.930 . S
C573 C572 1.388 . S
C573 C574 1.390 . S
C574 C573 1.390 . S
C574 C575 1.394 . S
C574 C580 1.465 . S
C575 C570 1.399 . S
C575 C574 1.394 . S
C575 C576 1.516 . S
C576 C575 1.516 . S
C576 C577 1.502 . S
C576 C578 1.561 . S
C576 C579 1.526 . S
C577 H561 0.959 . S
C577 H562 0.959 . S
C577 H563 0.961 . S
C577 C576 1.502 . S
C578 H564 0.960 . S
C578 H565 0.961 . S
C578 H566 0.959 . S
C578 C576 1.561 . S
C579 C576 1.526 . S
C579 C580 1.396 . S
C579 C584 1.390 . S
C580 C574 1.465 . S
C580 C579 1.396 . S
C580 C581 1.399 . S
C581 H567 0.929 . S
C581 C580 1.399 . S
C581 C582 1.385 . S
C582 H568 0.931 . S
C582 C581 1.385 . S
C582 C583 1.389 . S
C583 C582 1.389 . S
C583 C584 1.387 . S
C584 H569 0.930 . S
C584 C579 1.390 . S
C584 C583 1.387 . S
C286 C78 1.284 . S
C274 C10 1.430 . S
C301 C21 1.400 1_655 S
C313 C152 1.322 . S
C328 C31 1.977 1_665 S
C340 C256 2.060 . S
C355 C0 0.764 1_565 S
C367 C90 0.744 . S
C394 C164 0.705 . S
C382 C18 0.684 . S
C409 C34 1.511 . S
C421 C250 1.376 . S
C448 C182 2.056 . S
C436 C36 2.066 . S
C463 C8 1.345 1_655 S
C475 C226 1.407 . S
C502 C102 1.446 . S
C490 C23 1.507 . S
C529 C176 1.330 . S
C517 C26 1.405 . S
C556 C238 0.777 . S
C544 C5 0.690 . S
C571 C13 1.983 . S
C583 C108 2.071 . S
