# Generated by pormake.
# Topology ssb, (4,4)-cn, num edge types: 1
# Building blocks:
#     Node 0, Type 0, BuildingBlock: MUDLON_clean_linker_0, # of connection points: 4
#     Node 1, Type 0, BuildingBlock: MUDLON_clean_linker_0, # of connection points: 4
#     Node 2, Type 0, BuildingBlock: MUDLON_clean_linker_0, # of connection points: 4
#     Node 3, Type 0, BuildingBlock: MUDLON_clean_linker_0, # of connection points: 4
#     Node 4, Type 0, BuildingBlock: MUDLON_clean_linker_0, # of connection points: 4
#     Node 5, Type 0, BuildingBlock: MUDLON_clean_linker_0, # of connection points: 4
#     Node 6, Type 0, BuildingBlock: MUDLON_clean_linker_0, # of connection points: 4
#     Node 7, Type 0, BuildingBlock: MUDLON_clean_linker_0, # of connection points: 4
#     Node 8, Type 1, BuildingBlock: KOZSID_clean_sbu_0, # of connection points: 4
#     Node 9, Type 1, BuildingBlock: KOZSID_clean_sbu_0, # of connection points: 4
#     Node 10, Type 1, BuildingBlock: KOZSID_clean_sbu_0, # of connection points: 4
#     Node 11, Type 1, BuildingBlock: KOZSID_clean_sbu_0, # of connection points: 4
#     Node 12, Type 1, BuildingBlock: KOZSID_clean_sbu_0, # of connection points: 4
#     Node 13, Type 1, BuildingBlock: KOZSID_clean_sbu_0, # of connection points: 4
#     Node 14, Type 1, BuildingBlock: KOZSID_clean_sbu_0, # of connection points: 4
#     Node 15, Type 1, BuildingBlock: KOZSID_clean_sbu_0, # of connection points: 4
#     Edge 16, Type (0, 1), BuildingBlock: MIFKUJ_clean_linker_0, # of connection points: 2
#     Edge 17, Type (0, 1), BuildingBlock: MIFKUJ_clean_linker_0, # of connection points: 2
#     Edge 18, Type (0, 1), BuildingBlock: MIFKUJ_clean_linker_0, # of connection points: 2
#     Edge 19, Type (0, 1), BuildingBlock: MIFKUJ_clean_linker_0, # of connection points: 2
#     Edge 20, Type (0, 1), BuildingBlock: MIFKUJ_clean_linker_0, # of connection points: 2
#     Edge 21, Type (0, 1), BuildingBlock: MIFKUJ_clean_linker_0, # of connection points: 2
#     Edge 22, Type (0, 1), BuildingBlock: MIFKUJ_clean_linker_0, # of connection points: 2
#     Edge 23, Type (0, 1), BuildingBlock: MIFKUJ_clean_linker_0, # of connection points: 2
#     Edge 24, Type (0, 1), BuildingBlock: MIFKUJ_clean_linker_0, # of connection points: 2
#     Edge 25, Type (0, 1), BuildingBlock: MIFKUJ_clean_linker_0, # of connection points: 2
#     Edge 26, Type (0, 1), BuildingBlock: MIFKUJ_clean_linker_0, # of connection points: 2
#     Edge 27, Type (0, 1), BuildingBlock: MIFKUJ_clean_linker_0, # of connection points: 2
#     Edge 28, Type (0, 1), BuildingBlock: MIFKUJ_clean_linker_0, # of connection points: 2
#     Edge 29, Type (0, 1), BuildingBlock: MIFKUJ_clean_linker_0, # of connection points: 2
#     Edge 30, Type (0, 1), BuildingBlock: MIFKUJ_clean_linker_0, # of connection points: 2
#     Edge 31, Type (0, 1), BuildingBlock: MIFKUJ_clean_linker_0, # of connection points: 2
#     Edge 32, Type (0, 1), BuildingBlock: MIFKUJ_clean_linker_0, # of connection points: 2
#     Edge 33, Type (0, 1), BuildingBlock: MIFKUJ_clean_linker_0, # of connection points: 2
#     Edge 34, Type (0, 1), BuildingBlock: MIFKUJ_clean_linker_0, # of connection points: 2
#     Edge 35, Type (0, 1), BuildingBlock: MIFKUJ_clean_linker_0, # of connection points: 2
#     Edge 36, Type (0, 1), BuildingBlock: MIFKUJ_clean_linker_0, # of connection points: 2
#     Edge 37, Type (0, 1), BuildingBlock: MIFKUJ_clean_linker_0, # of connection points: 2
#     Edge 38, Type (0, 1), BuildingBlock: MIFKUJ_clean_linker_0, # of connection points: 2
#     Edge 39, Type (0, 1), BuildingBlock: MIFKUJ_clean_linker_0, # of connection points: 2
#     Edge 40, Type (0, 1), BuildingBlock: MIFKUJ_clean_linker_0, # of connection points: 2
#     Edge 41, Type (0, 1), BuildingBlock: MIFKUJ_clean_linker_0, # of connection points: 2
#     Edge 42, Type (0, 1), BuildingBlock: MIFKUJ_clean_linker_0, # of connection points: 2
#     Edge 43, Type (0, 1), BuildingBlock: MIFKUJ_clean_linker_0, # of connection points: 2
#     Edge 44, Type (0, 1), BuildingBlock: MIFKUJ_clean_linker_0, # of connection points: 2
#     Edge 45, Type (0, 1), BuildingBlock: MIFKUJ_clean_linker_0, # of connection points: 2
#     Edge 46, Type (0, 1), BuildingBlock: MIFKUJ_clean_linker_0, # of connection points: 2
#     Edge 47, Type (0, 1), BuildingBlock: MIFKUJ_clean_linker_0, # of connection points: 2
# Relax obj value: 0.003
# Max RMSD: 0.054
# Mean RMSD: 0.023
data_MOF--net-ssb--node1-KOZSID_clean_sbu_0--node2-MUDLON_clean_linker_0--edge1-MIFKUJ_clean_linker_0
_symmetry_space_group_name_H-M    P1
_symmetry_Int_Tables_number       1
_symmetry_cell_setting            triclinic
loop_
_symmetry_equiv_pos_as_xyz
'x, y, z'
_cell_length_a     84.526968
_cell_length_b     84.499881
_cell_length_c     62.300508
_cell_angle_alpha  91.79067
_cell_angle_beta   93.56455
_cell_angle_gamma 89.967412
loop_
_atom_site_label
_atom_site_type_symbol
_atom_site_fract_x
_atom_site_fract_y
_atom_site_fract_z
_atom_type_partial_charge
H0 H 0.25958 0.29188 0.17212 0.0
N1 N 0.28185 0.28052 0.19925 0.0
H2 H 0.25568 0.31945 0.16252 0.0
H3 H 0.29544 0.30612 0.22099 0.0
H4 H 0.2911 0.33383 0.21242 0.0
H5 H 0.31065 0.28072 0.22164 0.0
H6 H 0.33652 0.27768 0.20594 0.0
H7 H 0.28705 0.2715 0.15926 0.0
H8 H 0.31271 0.26834 0.14346 0.0
H9 H 0.26794 0.25247 0.19484 0.0
H10 H 0.2829 0.28826 0.24254 0.0
H11 H 0.25669 0.23696 0.22256 0.0
H12 H 0.27088 0.27335 0.27026 0.0
H13 H 0.19866 0.21684 0.30449 0.0
H14 H 0.17816 0.22898 0.32575 0.0
H15 H 0.21439 0.25393 0.36537 0.0
H16 H 0.23479 0.24198 0.34363 0.0
H17 H 0.25126 0.21957 0.34591 0.0
H18 H 0.25963 0.19644 0.36614 0.0
H19 H 0.23242 0.1663 0.32028 0.0
H20 H 0.22386 0.18966 0.30033 0.0
H21 H 0.22134 0.2226 0.26989 0.0
H22 H 0.23467 0.23741 0.2433 0.0
H23 H 0.27154 0.25069 0.29178 0.0
N24 N 0.22982 0.21979 0.31115 0.0
H25 H 0.25753 0.23646 0.31849 0.0
C26 C 0.27762 0.29695 0.19736 0.0
C27 C 0.26617 0.30106 0.18132 0.0
C28 C 0.26396 0.31686 0.17591 0.0
C29 C 0.27314 0.32896 0.18659 0.0
C30 C 0.284 0.32485 0.20358 0.0
C31 C 0.28633 0.30899 0.20878 0.0
C32 C 0.297 0.27632 0.1915 0.0
C33 C 0.31107 0.27772 0.20467 0.0
C34 C 0.3258 0.27598 0.19568 0.0
C35 C 0.32661 0.27297 0.17343 0.0
C36 C 0.31246 0.2709 0.16059 0.0
C37 C 0.29782 0.27254 0.16957 0.0
C38 C 0.27601 0.27161 0.21645 0.0
C39 C 0.26871 0.257 0.21133 0.0
C40 C 0.26216 0.24824 0.22722 0.0
C41 C 0.26256 0.25399 0.2487 0.0
C42 C 0.27037 0.26846 0.25395 0.0
C43 C 0.27715 0.27713 0.23802 0.0
C44 C 0.21816 0.22837 0.32264 0.0
C45 C 0.20211 0.22513 0.31754 0.0
C46 C 0.19046 0.2321 0.32965 0.0
C47 C 0.1947 0.24234 0.34727 0.0
C48 C 0.21081 0.24596 0.35199 0.0
C49 C 0.22247 0.23913 0.33963 0.0
C50 C 0.23692 0.20631 0.32153 0.0
C51 C 0.24733 0.208 0.33994 0.0
C52 C 0.25215 0.19471 0.35151 0.0
C53 C 0.2466 0.17951 0.34494 0.0
C54 C 0.23672 0.17785 0.32598 0.0
C55 C 0.23194 0.19113 0.31444 0.0
C56 C 0.23851 0.22824 0.29601 0.0
C57 C 0.23233 0.22868 0.27469 0.0
C58 C 0.24008 0.23707 0.25949 0.0
C59 C 0.25437 0.24514 0.26522 0.0
C60 C 0.26053 0.24474 0.28675 0.0
C61 C 0.25262 0.23645 0.30205 0.0
H62 H 0.73412 0.30521 0.20848 0.0
N63 N 0.75119 0.2822 0.18841 0.0
H64 H 0.73687 0.3338 0.20444 0.0
H65 H 0.77446 0.29703 0.17057 0.0
H66 H 0.77749 0.32563 0.16684 0.0
H67 H 0.7418 0.27832 0.14726 0.0
H68 H 0.71482 0.2742 0.13177 0.0
H69 H 0.72505 0.27603 0.21102 0.0
H70 H 0.69818 0.27131 0.19577 0.0
H71 H 0.7478 0.28467 0.23184 0.0
H72 H 0.77261 0.25993 0.1827 0.0
H73 H 0.76194 0.26926 0.25944 0.0
H74 H 0.78768 0.24523 0.21011 0.0
H75 H 0.81247 0.23798 0.33757 0.0
H76 H 0.83425 0.24976 0.36027 0.0
H77 H 0.86697 0.2362 0.31235 0.0
H78 H 0.84499 0.22474 0.28957 0.0
H79 H 0.82613 0.19279 0.30451 0.0
H80 H 0.81561 0.17205 0.32597 0.0
H81 H 0.7763 0.20245 0.34085 0.0
H82 H 0.78747 0.2234 0.32014 0.0
H83 H 0.80253 0.25176 0.3046 0.0
H84 H 0.78646 0.26611 0.27802 0.0
H85 H 0.78676 0.22523 0.23445 0.0
N86 N 0.81499 0.22179 0.2992 0.0
H87 H 0.80384 0.2114 0.26067 0.0
C88 C 0.75399 0.29901 0.18947 0.0
C89 C 0.74375 0.30957 0.19965 0.0
C90 C 0.74532 0.32589 0.19734 0.0
C91 C 0.75733 0.33189 0.18523 0.0
C92 C 0.7682 0.32134 0.17639 0.0
C93 C 0.76647 0.30504 0.17843 0.0
C94 C 0.73554 0.27739 0.18021 0.0
C95 C 0.73234 0.27651 0.15788 0.0
C96 C 0.7169 0.27411 0.14909 0.0
C97 C 0.70426 0.27246 0.16251 0.0
C98 C 0.70757 0.27277 0.18495 0.0
C99 C 0.72304 0.27529 0.19373 0.0
C100 C 0.75898 0.27317 0.20516 0.0
C101 C 0.75623 0.27582 0.22699 0.0
C102 C 0.76454 0.26714 0.2428 0.0
C103 C 0.77599 0.25588 0.23713 0.0
C104 C 0.77872 0.25344 0.21519 0.0
C105 C 0.77021 0.26191 0.19945 0.0
C106 C 0.82717 0.23047 0.31183 0.0
C107 C 0.82429 0.23777 0.33181 0.0
C108 C 0.83678 0.24441 0.34484 0.0
C109 C 0.85238 0.24383 0.33821 0.0
C110 C 0.85509 0.23703 0.31786 0.0
C111 C 0.84258 0.23043 0.30484 0.0
C112 C 0.80756 0.20952 0.31059 0.0
C113 C 0.81517 0.19487 0.31228 0.0
C114 C 0.80904 0.183 0.32444 0.0
C115 C 0.795 0.18549 0.33509 0.0
C116 C 0.78721 0.20016 0.33308 0.0
C117 C 0.79349 0.21212 0.32107 0.0
C118 C 0.80476 0.23053 0.28442 0.0
C119 C 0.79932 0.24589 0.28929 0.0
C120 C 0.78988 0.25407 0.27407 0.0
C121 C 0.78536 0.24695 0.25386 0.0
C122 C 0.79032 0.23133 0.24951 0.0
C123 C 0.79999 0.22332 0.26454 0.0
H124 H 0.79888 0.79529 0.35871 0.0
N125 N 0.79515 0.80899 0.31941 0.0
H126 H 0.82374 0.7873 0.37695 0.0
H127 H 0.82377 0.80903 0.30393 0.0
H128 H 0.84896 0.80162 0.32246 0.0
H129 H 0.80109 0.83929 0.31366 0.0
H130 H 0.79272 0.86212 0.33529 0.0
H131 H 0.77418 0.80825 0.35111 0.0
H132 H 0.76589 0.83104 0.37316 0.0
H133 H 0.78572 0.77933 0.33109 0.0
H134 H 0.77953 0.81404 0.28202 0.0
H135 H 0.76879 0.76099 0.30963 0.0
H136 H 0.76154 0.79614 0.26097 0.0
H137 H 0.71841 0.70256 0.23943 0.0
H138 H 0.72718 0.67899 0.21973 0.0
H139 H 0.7554 0.70853 0.18149 0.0
H140 H 0.74615 0.73189 0.20063 0.0
H141 H 0.72286 0.74791 0.19362 0.0
H142 H 0.69884 0.75586 0.17312 0.0
H143 H 0.67058 0.73804 0.22262 0.0
H144 H 0.69484 0.73064 0.2434 0.0
H145 H 0.72733 0.73526 0.27436 0.0
H146 H 0.74341 0.75421 0.29666 0.0
H147 H 0.76078 0.77363 0.23911 0.0
N148 N 0.72443 0.73258 0.23179 0.0
H149 H 0.74381 0.75558 0.21725 0.0
C150 C 0.80944 0.80269 0.32979 0.0
C151 C 0.80968 0.79647 0.35048 0.0
C152 C 0.82399 0.79204 0.36103 0.0
C153 C 0.83843 0.79395 0.3513 0.0
C154 C 0.83809 0.7998 0.33037 0.0
C155 C 0.82372 0.80409 0.31975 0.0
C156 C 0.78835 0.82215 0.33085 0.0
C157 C 0.79316 0.83748 0.32637 0.0
C158 C 0.78834 0.85048 0.33871 0.0
C159 C 0.77868 0.84836 0.35597 0.0
C160 C 0.77346 0.833 0.36008 0.0
C161 C 0.77815 0.81999 0.3475 0.0
C162 C 0.78422 0.79809 0.30799 0.0
C163 C 0.78064 0.78314 0.31579 0.0
C164 C 0.77071 0.77262 0.30348 0.0
C165 C 0.76379 0.77691 0.28332 0.0
C166 C 0.76693 0.79214 0.27605 0.0
C167 C 0.7771 0.8025 0.28817 0.0
C168 C 0.73164 0.71901 0.22174 0.0
C169 C 0.7267 0.70388 0.22702 0.0
C170 C 0.73177 0.69042 0.21576 0.0
C171 C 0.74197 0.69183 0.19891 0.0
C172 C 0.74735 0.707 0.19413 0.0
C173 C 0.74218 0.72046 0.20532 0.0
C174 C 0.71064 0.73877 0.22019 0.0
C175 C 0.71156 0.74601 0.20032 0.0
C176 C 0.69775 0.75039 0.18845 0.0
C177 C 0.68273 0.74751 0.19613 0.0
C178 C 0.68191 0.74065 0.21632 0.0
C179 C 0.69574 0.73635 0.22819 0.0
C180 C 0.7345 0.74373 0.24417 0.0
C181 C 0.73463 0.74365 0.26666 0.0
C182 C 0.74395 0.75445 0.27936 0.0
C183 C 0.75358 0.76551 0.26982 0.0
C184 C 0.7534 0.76552 0.24717 0.0
C185 C 0.74384 0.75491 0.23451 0.0
H186 H 0.28813 0.76373 0.12513 0.0
N187 N 0.2793 0.75472 0.16297 0.0
H188 H 0.31488 0.77045 0.11547 0.0
H189 H 0.30528 0.75868 0.19112 0.0
H190 H 0.33221 0.76521 0.18158 0.0
H191 H 0.29542 0.73224 0.18634 0.0
H192 H 0.29535 0.70376 0.1784 0.0
H193 H 0.26083 0.73893 0.13363 0.0
H194 H 0.26069 0.71037 0.12549 0.0
H195 H 0.27302 0.78552 0.1668 0.0
H196 H 0.26748 0.74152 0.19911 0.0
H197 H 0.25849 0.79929 0.19426 0.0
H198 H 0.25226 0.75502 0.22566 0.0
H199 H 0.20928 0.84273 0.27489 0.0
H200 H 0.22166 0.86401 0.29734 0.0
H201 H 0.25787 0.83143 0.32054 0.0
H202 H 0.24477 0.81013 0.29915 0.0
H203 H 0.22045 0.7938 0.30831 0.0
H204 H 0.19888 0.78576 0.33015 0.0
H205 H 0.16509 0.80844 0.28638 0.0
H206 H 0.18669 0.816 0.26418 0.0
H207 H 0.21749 0.81676 0.23133 0.0
H208 H 0.23266 0.80233 0.20498 0.0
H209 H 0.25251 0.77281 0.25536 0.0
N210 N 0.21748 0.81249 0.27319 0.0
H211 H 0.23656 0.78668 0.28114 0.0
C212 C 0.29476 0.76064 0.15871 0.0
C213 C 0.29766 0.76436 0.13757 0.0
C214 C 0.31293 0.76821 0.13213 0.0
C215 C 0.32565 0.76829 0.14777 0.0
C216 C 0.32265 0.76508 0.16917 0.0
C217 C 0.3073 0.76138 0.17464 0.0
C218 C 0.27815 0.73772 0.16042 0.0
C219 C 0.28775 0.72757 0.17312 0.0
C220 C 0.28771 0.71128 0.16855 0.0
C221 C 0.27809 0.70483 0.15125 0.0
C222 C 0.2681 0.71495 0.13908 0.0
C223 C 0.26818 0.73124 0.14364 0.0
C224 C 0.27166 0.76248 0.18067 0.0
C225 C 0.26878 0.77882 0.17983 0.0
C226 C 0.26024 0.78664 0.19543 0.0
C227 C 0.25399 0.77827 0.21214 0.0
C228 C 0.25704 0.76193 0.21323 0.0
C229 C 0.26581 0.75413 0.19779 0.0
C230 C 0.22613 0.82492 0.2851 0.0
C231 C 0.21998 0.84029 0.2847 0.0
C232 C 0.22717 0.85245 0.29746 0.0
C233 C 0.24087 0.84953 0.31078 0.0
C234 C 0.24723 0.83412 0.31077 0.0
C235 C 0.23984 0.8219 0.29826 0.0
C236 C 0.2051 0.80528 0.28436 0.0
C237 C 0.20838 0.79649 0.30291 0.0
C238 C 0.19606 0.792 0.31547 0.0
C239 C 0.18038 0.79655 0.30993 0.0
C240 C 0.1771 0.80483 0.29099 0.0
C241 C 0.18936 0.80906 0.27827 0.0
C242 C 0.22593 0.80294 0.25817 0.0
C243 C 0.22501 0.80705 0.23655 0.0
C244 C 0.23386 0.7989 0.2216 0.0
C245 C 0.24407 0.78652 0.22803 0.0
C246 C 0.24473 0.78219 0.24972 0.0
C247 C 0.23566 0.79024 0.26461 0.0
H248 H 0.23577 0.8219 0.70452 0.0
N249 N 0.25014 0.79393 0.69344 0.0
H250 H 0.24087 0.84778 0.69019 0.0
H251 H 0.27391 0.80184 0.66978 0.0
H252 H 0.27906 0.82784 0.65518 0.0
H253 H 0.24172 0.78086 0.65517 0.0
H254 H 0.21484 0.77641 0.63924 0.0
H255 H 0.22273 0.79764 0.71428 0.0
H256 H 0.19577 0.79377 0.6983 0.0
H257 H 0.25341 0.81054 0.73247 0.0
H258 H 0.25822 0.76438 0.7021 0.0
H259 H 0.26258 0.80009 0.76681 0.0
H260 H 0.26642 0.75348 0.73685 0.0
H261 H 0.29023 0.76453 0.87703 0.0
H262 H 0.3152 0.77259 0.89635 0.0
H263 H 0.34024 0.76087 0.83959 0.0
H264 H 0.31536 0.75323 0.82042 0.0
H265 H 0.30584 0.7266 0.83046 0.0
H266 H 0.30296 0.70014 0.8439 0.0
H267 H 0.25705 0.71298 0.86609 0.0
H268 H 0.26064 0.73987 0.85382 0.0
H269 H 0.26531 0.77467 0.82975 0.0
H270 H 0.25591 0.7848 0.79497 0.0
H271 H 0.28675 0.75183 0.76331 0.0
N272 N 0.28619 0.75184 0.83755 0.0
H273 H 0.29509 0.74111 0.79808 0.0
C274 C 0.25449 0.80983 0.68818 0.0
C275 C 0.24542 0.82308 0.69407 0.0
C276 C 0.24828 0.83789 0.68574 0.0
C277 C 0.26025 0.83983 0.67135 0.0
C278 C 0.26982 0.82677 0.66634 0.0
C279 C 0.26691 0.81192 0.67465 0.0
C280 C 0.23422 0.78962 0.68577 0.0
C281 C 0.23171 0.7834 0.66475 0.0
C282 C 0.21635 0.78103 0.65564 0.0
C283 C 0.20313 0.78495 0.66738 0.0
C284 C 0.20567 0.79053 0.68885 0.0
C285 C 0.22108 0.79283 0.69799 0.0
C286 C 0.2553 0.78827 0.71441 0.0
C287 C 0.25635 0.79812 0.73308 0.0
C288 C 0.26147 0.79202 0.75296 0.0
C289 C 0.26531 0.77586 0.75483 0.0
C290 C 0.26395 0.76603 0.73614 0.0
C291 C 0.25913 0.7722 0.71623 0.0
C292 C 0.30081 0.75835 0.84729 0.0
C293 C 0.30109 0.76402 0.86869 0.0
C294 C 0.31538 0.76846 0.87974 0.0
C295 C 0.32975 0.76727 0.86957 0.0
C296 C 0.32938 0.76212 0.84785 0.0
C297 C 0.31508 0.75769 0.83682 0.0
C298 C 0.28355 0.73536 0.84156 0.0
C299 C 0.29511 0.72373 0.83807 0.0
C300 C 0.29336 0.70846 0.84566 0.0
C301 C 0.27988 0.70438 0.85651 0.0
C302 C 0.26782 0.71576 0.85845 0.0
C303 C 0.26973 0.73109 0.8512 0.0
C304 C 0.281 0.75731 0.81658 0.0
C305 C 0.26994 0.76963 0.81523 0.0
C306 C 0.26472 0.7755 0.79529 0.0
C307 C 0.27065 0.76931 0.77613 0.0
C308 C 0.28172 0.75683 0.77757 0.0
C309 C 0.2867 0.75077 0.79754 0.0
H310 H 0.28657 0.27595 0.91855 0.0
N311 N 0.27393 0.28075 0.87933 0.0
H312 H 0.31455 0.27284 0.92974 0.0
H313 H 0.29829 0.27827 0.85243 0.0
H314 H 0.32636 0.27455 0.86328 0.0
H315 H 0.28766 0.30604 0.86129 0.0
H316 H 0.28278 0.33393 0.86963 0.0
H317 H 0.25148 0.29272 0.90307 0.0
H318 H 0.24604 0.32072 0.91096 0.0
H319 H 0.26724 0.25007 0.87767 0.0
H320 H 0.26415 0.29168 0.83922 0.0
H321 H 0.25364 0.23468 0.84839 0.0
H322 H 0.24943 0.27681 0.81072 0.0
H323 H 0.20185 0.18921 0.7599 0.0
H324 H 0.2127 0.1669 0.73958 0.0
H325 H 0.25064 0.1969 0.72115 0.0
H326 H 0.23952 0.21911 0.74093 0.0
H327 H 0.21497 0.23095 0.72264 0.0
H328 H 0.19361 0.24174 0.69955 0.0
H329 H 0.16181 0.23798 0.75098 0.0
H330 H 0.18309 0.22608 0.77336 0.0
H331 H 0.2132 0.21544 0.8047 0.0
H332 H 0.22873 0.23062 0.83244 0.0
H333 H 0.2488 0.25796 0.78312 0.0
N334 N 0.21216 0.21888 0.76261 0.0
H335 H 0.23211 0.2435 0.75577 0.0
C336 C 0.29036 0.27723 0.88476 0.0
C337 C 0.29522 0.27544 0.90643 0.0
C338 C 0.31122 0.27359 0.91274 0.0
C339 C 0.32277 0.27341 0.89741 0.0
C340 C 0.31782 0.27483 0.87554 0.0
C341 C 0.30177 0.2768 0.86926 0.0
C342 C 0.27003 0.2973 0.88184 0.0
C343 C 0.2785 0.30914 0.87206 0.0
C344 C 0.27558 0.32511 0.87668 0.0
C345 C 0.26409 0.32957 0.8911 0.0
C346 C 0.25516 0.31769 0.90008 0.0
C347 C 0.25815 0.30172 0.8955 0.0
C348 C 0.26658 0.27206 0.86099 0.0
C349 C 0.26354 0.2559 0.86295 0.0
C350 C 0.25557 0.24717 0.84624 0.0
C351 C 0.25006 0.2545 0.8272 0.0
C352 C 0.25354 0.27065 0.82498 0.0
C353 C 0.26188 0.27928 0.84154 0.0
C354 C 0.21982 0.2058 0.75206 0.0
C355 C 0.21261 0.19087 0.75167 0.0
C356 C 0.21888 0.17814 0.74015 0.0
C357 C 0.23255 0.18013 0.72873 0.0
C358 C 0.24001 0.19503 0.72958 0.0
C359 C 0.2337 0.20775 0.74109 0.0
C360 C 0.20048 0.22733 0.7496 0.0
C361 C 0.20342 0.23243 0.72895 0.0
C362 C 0.19115 0.23879 0.71579 0.0
C363 C 0.17581 0.24054 0.72318 0.0
C364 C 0.17328 0.23638 0.74442 0.0
C365 C 0.18546 0.22974 0.75737 0.0
C366 C 0.22169 0.22816 0.77827 0.0
C367 C 0.22095 0.22475 0.79999 0.0
C368 C 0.23001 0.23336 0.81578 0.0
C369 C 0.24032 0.24544 0.81015 0.0
C370 C 0.24096 0.24888 0.78822 0.0
C371 C 0.23158 0.24046 0.77245 0.0
H372 H 0.80639 0.24262 0.69609 0.0
N373 N 0.80655 0.23368 0.73804 0.0
H374 H 0.82913 0.25117 0.67737 0.0
H375 H 0.83543 0.24048 0.75526 0.0
H376 H 0.85828 0.24981 0.73684 0.0
H377 H 0.8171 0.20455 0.74443 0.0
H378 H 0.80897 0.18024 0.72443 0.0
H379 H 0.78167 0.23081 0.70785 0.0
H380 H 0.77332 0.20649 0.68774 0.0
H381 H 0.79403 0.26159 0.72272 0.0
H382 H 0.79373 0.22966 0.77529 0.0
H383 H 0.77707 0.27983 0.74153 0.0
H384 H 0.77571 0.24727 0.79364 0.0
H385 H 0.72309 0.33658 0.80463 0.0
H386 H 0.72932 0.36186 0.82354 0.0
H387 H 0.76486 0.33854 0.86415 0.0
H388 H 0.75887 0.31359 0.84491 0.0
H389 H 0.73731 0.29733 0.85523 0.0
H390 H 0.71571 0.28877 0.87636 0.0
H391 H 0.6826 0.29486 0.82159 0.0
H392 H 0.7044 0.30338 0.80045 0.0
H393 H 0.73557 0.30394 0.77203 0.0
H394 H 0.75211 0.28544 0.75255 0.0
H395 H 0.77424 0.27068 0.81318 0.0
N396 N 0.73442 0.30824 0.81421 0.0
H397 H 0.75678 0.2882 0.83227 0.0
C398 C 0.81927 0.24069 0.72712 0.0
C399 C 0.81762 0.24421 0.70516 0.0
C400 C 0.83068 0.24927 0.69448 0.0
C401 C 0.84564 0.25108 0.70552 0.0
C402 C 0.84704 0.24825 0.72771 0.0
C403 C 0.83399 0.24306 0.73833 0.0
C404 C 0.80003 0.21942 0.72766 0.0
C405 C 0.80735 0.20496 0.73233 0.0
C406 C 0.80265 0.1911 0.7209 0.0
C407 C 0.79052 0.19142 0.70442 0.0
C408 C 0.78283 0.20588 0.70017 0.0
C409 C 0.7875 0.21976 0.71173 0.0
C410 C 0.79547 0.2443 0.74781 0.0
C411 C 0.79022 0.25839 0.73825 0.0
C412 C 0.78029 0.26881 0.74902 0.0
C413 C 0.77502 0.26522 0.76935 0.0
C414 C 0.77982 0.25078 0.77838 0.0
C415 C 0.79 0.24055 0.7678 0.0
C416 C 0.74045 0.32315 0.8232 0.0
C417 C 0.7325 0.33705 0.81726 0.0
C418 C 0.73595 0.35142 0.82826 0.0
C419 C 0.74745 0.3522 0.84558 0.0
C420 C 0.75601 0.33842 0.85081 0.0
C421 C 0.75255 0.32404 0.83976 0.0
C422 C 0.72243 0.30104 0.82618 0.0
C423 C 0.7255 0.29657 0.84759 0.0
C424 C 0.71309 0.29178 0.85974 0.0
C425 C 0.69743 0.29127 0.8507 0.0
C426 C 0.69454 0.29501 0.82897 0.0
C427 C 0.70695 0.29989 0.81689 0.0
C428 C 0.74508 0.29773 0.80354 0.0
C429 C 0.74405 0.2967 0.78102 0.0
C430 C 0.75363 0.28616 0.76993 0.0
C431 C 0.7647 0.27649 0.78116 0.0
C432 C 0.76575 0.27767 0.80384 0.0
C433 C 0.75592 0.28799 0.8149 0.0
H434 H 0.78176 0.77884 0.63594 0.0
N435 N 0.78605 0.77014 0.67641 0.0
H436 H 0.77725 0.80566 0.62297 0.0
H437 H 0.78037 0.7967 0.70139 0.0
H438 H 0.77584 0.82337 0.6886 0.0
H439 H 0.80995 0.78858 0.6955 0.0
H440 H 0.83798 0.78594 0.68931 0.0
H441 H 0.80005 0.7449 0.6597 0.0
H442 H 0.8283 0.74136 0.6549 0.0
H443 H 0.76265 0.7497 0.66828 0.0
H444 H 0.78937 0.77413 0.72023 0.0
H445 H 0.74648 0.73708 0.69392 0.0
H446 H 0.77249 0.76258 0.74616 0.0
H447 H 0.68882 0.70672 0.77997 0.0
H448 H 0.66796 0.71854 0.80053 0.0
H449 H 0.69967 0.75686 0.82179 0.0
H450 H 0.72068 0.74443 0.80181 0.0
H451 H 0.73257 0.7192 0.8195 0.0
H452 H 0.74239 0.69764 0.84179 0.0
H453 H 0.73196 0.66436 0.78868 0.0
H454 H 0.72161 0.68606 0.76672 0.0
H455 H 0.71008 0.72716 0.74034 0.0
H456 H 0.72625 0.74154 0.7164 0.0
H457 H 0.76591 0.73985 0.76366 0.0
N458 N 0.71856 0.71629 0.77878 0.0
H459 H 0.74927 0.72664 0.78804 0.0
C460 C 0.78129 0.78567 0.66954 0.0
C461 C 0.78017 0.78849 0.64746 0.0
C462 C 0.77772 0.80379 0.64012 0.0
C463 C 0.77626 0.81659 0.6548 0.0
C464 C 0.77675 0.8137 0.67691 0.0
C465 C 0.77934 0.79839 0.68425 0.0
C466 C 0.80285 0.76713 0.67745 0.0
C467 C 0.81387 0.77819 0.68677 0.0
C468 C 0.83 0.77656 0.68336 0.0
C469 C 0.83547 0.76362 0.67108 0.0
C470 C 0.82452 0.75179 0.66373 0.0
C471 C 0.80838 0.75365 0.6667 0.0
C472 C 0.77698 0.76297 0.69231 0.0
C473 C 0.76484 0.75247 0.68529 0.0
C474 C 0.7555 0.74543 0.70003 0.0
C475 C 0.7579 0.74898 0.72223 0.0
C476 C 0.77029 0.75944 0.72926 0.0
C477 C 0.77986 0.76623 0.71445 0.0
C478 C 0.70619 0.72471 0.78925 0.0
C479 C 0.69115 0.71778 0.78886 0.0
C480 C 0.67923 0.72464 0.80054 0.0
C481 C 0.68206 0.73873 0.81282 0.0
C482 C 0.6971 0.74592 0.81274 0.0
C483 C 0.70909 0.73893 0.80115 0.0
C484 C 0.72617 0.70415 0.79149 0.0
C485 C 0.73249 0.70729 0.81261 0.0
C486 C 0.73824 0.69494 0.82529 0.0
C487 C 0.73785 0.67923 0.81708 0.0
C488 C 0.73217 0.67627 0.79562 0.0
C489 C 0.72637 0.68863 0.783 0.0
C490 C 0.72843 0.72551 0.76578 0.0
C491 C 0.72222 0.73006 0.74556 0.0
C492 C 0.73159 0.73814 0.73181 0.0
C493 C 0.74759 0.7416 0.73779 0.0
C494 C 0.75366 0.7375 0.75844 0.0
C495 C 0.74414 0.72972 0.7724 0.0
C496 C 0.04154 0.28482 0.55945 0.0
C497 C 0.04682 0.29953 0.56749 0.0
C498 C 0.03927 0.31057 0.55508 0.0
C499 C 0.02981 0.30203 0.54029 0.0
N500 N 0.0307 0.28619 0.54263 0.0
Co501 Co 0.01936 0.26944 0.52403 0.0
N502 N 0.00788 0.28575 0.50619 0.0
C503 C 0.00889 0.30166 0.50902 0.0
C504 C 0.99881 0.30982 0.49532 0.0
C505 C 0.99066 0.29846 0.48319 0.0
C506 C 0.99638 0.28395 0.49011 0.0
N507 N 0.00855 0.25269 0.50488 0.0
C508 C 0.99753 0.25404 0.4883 0.0
C509 C 0.99341 0.23939 0.47888 0.0
C510 C 0.0019 0.22835 0.4902 0.0
C511 C 0.01076 0.23686 0.5057 0.0
N512 N 0.03021 0.2531 0.54248 0.0
C513 C 0.02855 0.23719 0.54027 0.0
C514 C 0.03757 0.22898 0.55516 0.0
C515 C 0.04546 0.24029 0.56768 0.0
C516 C 0.04074 0.25485 0.55972 0.0
N517 N 0.00145 0.26955 0.54319 0.0
C518 C 0.97584 0.26952 0.57011 0.0
C519 C 0.98099 0.25551 0.56034 0.0
C520 C 0.99374 0.25577 0.54715 0.0
C521 C 0.98375 0.28356 0.56624 0.0
C522 C 0.99637 0.28333 0.55273 0.0
N523 N 0.03736 0.26931 0.50486 0.0
C524 C 0.05893 0.25542 0.48878 0.0
C525 C 0.06382 0.26921 0.47943 0.0
C526 C 0.0551 0.28302 0.48259 0.0
C527 C 0.04208 0.28285 0.49542 0.0
C528 C 0.04571 0.25569 0.50112 0.0
H529 H 0.03614 0.29384 0.49761 0.0
H530 H 0.04259 0.24469 0.50752 0.0
H531 H 0.99716 0.24466 0.54036 0.0
H532 H 0.0018 0.29444 0.55018 0.0
C533 C 0.0194 0.30856 0.52473 0.0
C534 C 0.04717 0.26994 0.56841 0.0
C535 C 0.99015 0.2688 0.48148 0.0
C536 C 0.01978 0.23029 0.5227 0.0
H537 H 0.05524 0.30204 0.58097 0.0
H538 H 0.04042 0.32332 0.55676 0.0
H539 H 0.99737 0.32253 0.4945 0.0
H540 H 0.98139 0.30063 0.47088 0.0
H541 H 0.98487 0.23692 0.46553 0.0
H542 H 0.00126 0.21561 0.4879 0.0
H543 H 0.0387 0.21626 0.55631 0.0
H544 H 0.05404 0.23798 0.58082 0.0
H545 H 0.97537 0.2443 0.56311 0.0
H546 H 0.98009 0.29473 0.57335 0.0
H547 H 0.0652 0.24437 0.48643 0.0
H548 H 0.05852 0.294 0.47561 0.0
C549 C 0.75914 0.04244 0.56371 0.0
C550 C 0.74484 0.04737 0.57143 0.0
C551 C 0.73324 0.03882 0.56015 0.0
C552 C 0.74109 0.02916 0.54629 0.0
N553 N 0.75703 0.03094 0.54813 0.0
Co554 Co 0.77298 0.0193 0.53101 0.0
N555 N 0.75583 0.00774 0.51312 0.0
C556 C 0.74 0.00971 0.51409 0.0
C557 C 0.73116 0.99992 0.50008 0.0
C558 C 0.74197 0.99107 0.48963 0.0
C559 C 0.75685 0.99602 0.49789 0.0
N560 N 0.78894 0.00722 0.51444 0.0
C561 C 0.78682 0.99522 0.49957 0.0
C562 C 0.80116 0.98956 0.49279 0.0
C563 C 0.81279 0.99807 0.50407 0.0
C564 C 0.80492 0.0084 0.51702 0.0
N565 N 0.79012 0.03124 0.54842 0.0
C566 C 0.80594 0.03007 0.54648 0.0
C567 C 0.81472 0.0403 0.55994 0.0
C568 C 0.80387 0.04869 0.57094 0.0
C569 C 0.78904 0.04305 0.56351 0.0
N570 N 0.77364 0.00214 0.55208 0.0
C571 C 0.77491 0.97472 0.57667 0.0
C572 C 0.78871 0.98301 0.5729 0.0
C573 C 0.7878 0.99663 0.56077 0.0
C574 C 0.76039 0.98097 0.56907 0.0
C575 C 0.76003 0.99464 0.55703 0.0
N576 N 0.77232 0.03637 0.50976 0.0
C577 C 0.78564 0.05294 0.48553 0.0
C578 C 0.77153 0.0608 0.47997 0.0
C579 C 0.75781 0.05625 0.48949 0.0
C580 C 0.75844 0.04401 0.50409 0.0
C581 C 0.7858 0.04095 0.50045 0.0
H582 H 0.74752 0.04098 0.51056 0.0
H583 H 0.79699 0.03566 0.50426 0.0
H584 H 0.79876 0.00225 0.55818 0.0
H585 H 0.74863 0.99862 0.55134 0.0
C586 C 0.73381 0.01949 0.52998 0.0
C587 C 0.7743 0.0496 0.5709 0.0
C588 C 0.77154 0.98858 0.49173 0.0
C589 C 0.81217 0.01925 0.53188 0.0
H590 H 0.74297 0.0565 0.58358 0.0
H591 H 0.72057 0.03989 0.56139 0.0
H592 H 0.71838 0.99888 0.49831 0.0
H593 H 0.73919 0.98171 0.47775 0.0
H594 H 0.80302 0.98012 0.48107 0.0
H595 H 0.82547 0.99674 0.50315 0.0
H596 H 0.82748 0.04161 0.56141 0.0
H597 H 0.80654 0.05804 0.58289 0.0
H598 H 0.80022 0.97888 0.57898 0.0
H599 H 0.74935 0.97501 0.57157 0.0
H600 H 0.79661 0.05623 0.47871 0.0
H601 H 0.74659 0.06198 0.48549 0.0
C602 C 0.04299 0.79492 0.54425 0.0
C603 C 0.04791 0.80986 0.55182 0.0
C604 C 0.0385 0.82051 0.54109 0.0
C605 C 0.0284 0.81151 0.52769 0.0
N606 N 0.03061 0.79573 0.52941 0.0
Co607 Co 0.01904 0.77844 0.5121 0.0
N608 N 0.00513 0.79414 0.49644 0.0
C609 C 0.00531 0.81007 0.49941 0.0
C610 C 0.99398 0.81771 0.48693 0.0
C611 C 0.98586 0.80595 0.47556 0.0
C612 C 0.99273 0.79175 0.48185 0.0
N613 N 0.00794 0.7612 0.4941 0.0
C614 C 0.99558 0.76197 0.47921 0.0
C615 C 0.99148 0.74711 0.47049 0.0
C616 C 0.00157 0.73656 0.48028 0.0
C617 C 0.01121 0.74553 0.49436 0.0
N618 N 0.03241 0.76269 0.52853 0.0
C619 C 0.03162 0.74672 0.52632 0.0
C620 C 0.04229 0.73901 0.53973 0.0
C621 C 0.05045 0.75072 0.55117 0.0
C622 C 0.04424 0.76499 0.54405 0.0
N623 N 0.00298 0.77714 0.53391 0.0
C624 C 0.97881 0.77521 0.56291 0.0
C625 C 0.98466 0.76161 0.55287 0.0
C626 C 0.99668 0.76282 0.53865 0.0
C627 C 0.98557 0.78977 0.55867 0.0
C628 C 0.99753 0.79047 0.54416 0.0
N629 N 0.03513 0.77972 0.49019 0.0
C630 C 0.05574 0.76749 0.47009 0.0
C631 C 0.05842 0.78155 0.45962 0.0
C632 C 0.0491 0.79467 0.46474 0.0
C633 C 0.03778 0.79355 0.48006 0.0
C634 C 0.04407 0.76679 0.48493 0.0
H635 H 0.03135 0.80409 0.48341 0.0
H636 H 0.04262 0.75564 0.492 0.0
H637 H 0.00055 0.752 0.53152 0.0
H638 H 0.00201 0.80194 0.54126 0.0
C639 C 0.01647 0.8175 0.51377 0.0
C640 C 0.05062 0.78038 0.55148 0.0
C641 C 0.98684 0.77633 0.47378 0.0
C642 C 0.02197 0.73943 0.50987 0.0
H643 H 0.05738 0.81276 0.56378 0.0
H644 H 0.03897 0.83329 0.54284 0.0
H645 H 0.99183 0.83032 0.48626 0.0
H646 H 0.97592 0.80762 0.46406 0.0
H647 H 0.98189 0.74412 0.45875 0.0
H648 H 0.00144 0.72381 0.47805 0.0
H649 H 0.04431 0.72638 0.54051 0.0
H650 H 0.06018 0.74894 0.56296 0.0
H651 H 0.97998 0.75002 0.55596 0.0
H652 H 0.98137 0.80064 0.56603 0.0
H653 H 0.06276 0.757 0.46718 0.0
H654 H 0.05038 0.80581 0.45691 0.0
C655 C 0.28416 0.99176 0.54985 0.0
C656 C 0.29891 0.98734 0.55877 0.0
C657 C 0.30971 0.99741 0.5512 0.0
C658 C 0.30102 0.00733 0.53811 0.0
N659 N 0.28527 0.00426 0.53688 0.0
Co660 Co 0.26838 0.01577 0.51944 0.0
N661 N 0.28448 0.02964 0.50687 0.0
C662 C 0.30042 0.0289 0.51034 0.0
C663 C 0.30844 0.03968 0.49913 0.0
C664 C 0.29696 0.04782 0.48777 0.0
C665 C 0.28253 0.04155 0.49283 0.0
N666 N 0.25142 0.02764 0.5026 0.0
C667 C 0.25257 0.04002 0.48943 0.0
C668 C 0.23776 0.04515 0.48162 0.0
C669 C 0.22686 0.03568 0.49012 0.0
C670 C 0.23557 0.0254 0.50265 0.0
N671 N 0.25231 0.00151 0.53137 0.0
C672 C 0.23642 0.00173 0.52708 0.0
C673 C 0.22846 0.9903 0.53722 0.0
C674 C 0.23996 0.98212 0.54847 0.0
C675 C 0.25434 0.98903 0.54444 0.0
N676 N 0.26651 0.03121 0.54386 0.0
C677 C 0.26346 0.05437 0.57691 0.0
C678 C 0.25029 0.04593 0.56809 0.0
C679 C 0.25207 0.03452 0.55177 0.0
C680 C 0.27827 0.0507 0.56933 0.0
C681 C 0.27952 0.03916 0.55295 0.0
N682 N 0.27022 0.00035 0.49504 0.0
C683 C 0.25788 0.98422 0.46596 0.0
C684 C 0.27242 0.97743 0.46162 0.0
C685 C 0.28591 0.98246 0.474 0.0
C686 C 0.28458 0.99399 0.49036 0.0
C687 C 0.25703 0.99548 0.48268 0.0
H688 H 0.29531 0.99746 0.4991 0.0
H689 H 0.24553 0.9999 0.48547 0.0
H690 H 0.24154 0.02865 0.54575 0.0
H691 H 0.29111 0.03703 0.54774 0.0
C692 C 0.30742 0.01859 0.5252 0.0
C693 C 0.26956 0.98325 0.55338 0.0
C694 C 0.26733 0.04742 0.48403 0.0
C695 C 0.22927 0.01312 0.51393 0.0
H696 H 0.30166 0.97762 0.56924 0.0
H697 H 0.32246 0.99718 0.5543 0.0
H698 H 0.32112 0.04156 0.49942 0.0
H699 H 0.29896 0.05739 0.47709 0.0
H700 H 0.23511 0.05477 0.47091 0.0
H701 H 0.21409 0.03618 0.48741 0.0
H702 H 0.21581 0.9882 0.53656 0.0
H703 H 0.23796 0.97217 0.5585 0.0
H704 H 0.2386 0.0481 0.57374 0.0
H705 H 0.28883 0.05696 0.5756 0.0
H706 H 0.24709 0.98052 0.45689 0.0
H707 H 0.29745 0.97755 0.47102 0.0
C708 C 0.54164 0.78033 0.04584 0.0
C709 C 0.55021 0.79346 0.05403 0.0
C710 C 0.54677 0.80558 0.04039 0.0
C711 C 0.53636 0.79924 0.02466 0.0
N712 N 0.53289 0.78394 0.02771 0.0
Co713 Co 0.51915 0.77024 0.00803 0.0
N714 N 0.50928 0.78881 0.99391 0.0
C715 C 0.51518 0.80359 0.99434 0.0
C716 C 0.50518 0.81402 0.9838 0.0
C717 C 0.49224 0.8052 0.9763 0.0
C718 C 0.49514 0.7898 0.9826 0.0
N719 N 0.5055 0.75666 0.98821 0.0
C720 C 0.49182 0.76036 0.97716 0.0
C721 C 0.48584 0.74741 0.96502 0.0
C722 C 0.49621 0.73516 0.96887 0.0
C723 C 0.50791 0.74133 0.98302 0.0
N724 N 0.52895 0.75156 0.022 0.0
C725 C 0.52858 0.7366 0.01381 0.0
C726 C 0.53642 0.72611 0.02706 0.0
C727 C 0.54228 0.73507 0.04448 0.0
C728 C 0.53778 0.75062 0.0408 0.0
N729 N 0.5027 0.7707 0.02868 0.0
C730 C 0.4766 0.77196 0.05419 0.0
C731 C 0.48181 0.75748 0.04562 0.0
C732 C 0.49487 0.75711 0.03294 0.0
C733 C 0.48517 0.78569 0.05046 0.0
C734 C 0.49821 0.78479 0.03779 0.0
N735 N 0.53557 0.76981 0.98723 0.0
C736 C 0.56294 0.76679 0.97938 0.0
C737 C 0.55916 0.76913 0.95747 0.0
C738 C 0.54325 0.77183 0.95084 0.0
C739 C 0.53166 0.77205 0.96591 0.0
C740 C 0.55105 0.76726 0.99392 0.0
H741 H 0.51952 0.77407 0.9603 0.0
H742 H 0.55443 0.76546 0.01061 0.0
H743 H 0.49831 0.74588 0.02598 0.0
H744 H 0.50437 0.79558 0.03482 0.0
C745 C 0.52814 0.80771 0.00849 0.0
C746 C 0.54373 0.7643 0.05411 0.0
C747 C 0.48474 0.77618 0.97719 0.0
C748 C 0.5191 0.73257 0.99517 0.0
H749 H 0.55842 0.79414 0.06806 0.0
H750 H 0.55115 0.81762 0.04197 0.0
H751 H 0.50667 0.82669 0.98278 0.0
H752 H 0.48184 0.80967 0.9675 0.0
H753 H 0.47509 0.74687 0.95463 0.0
H754 H 0.4949 0.72301 0.96297 0.0
H755 H 0.53747 0.71343 0.02459 0.0
H756 H 0.54938 0.7307 0.05809 0.0
H757 H 0.4755 0.74659 0.04798 0.0
H758 H 0.48172 0.79709 0.05708 0.0
H759 H 0.57498 0.76436 0.98531 0.0
H760 H 0.53973 0.7739 0.93416 0.0
C761 C 0.26496 0.54083 0.05493 0.0
C762 C 0.25114 0.54745 0.06218 0.0
C763 C 0.23882 0.53992 0.051 0.0
C764 C 0.24576 0.52925 0.03753 0.0
N765 N 0.2618 0.52928 0.03967 0.0
Co766 Co 0.27667 0.51658 0.02204 0.0
N767 N 0.25853 0.50654 0.0043 0.0
C768 C 0.24287 0.50904 0.00632 0.0
C769 C 0.23325 0.49988 0.99245 0.0
C770 C 0.24336 0.49078 0.9811 0.0
C771 C 0.2586 0.49496 0.98879 0.0
N772 N 0.29155 0.50415 0.00412 0.0
C773 C 0.2884 0.49306 0.98827 0.0
C774 C 0.30219 0.48703 0.98019 0.0
C775 C 0.31452 0.49445 0.99155 0.0
C776 C 0.30758 0.50452 0.00584 0.0
N777 N 0.29478 0.52639 0.04001 0.0
C778 C 0.3104 0.52329 0.0387 0.0
C779 C 0.32001 0.53204 0.05309 0.0
C780 C 0.30995 0.54147 0.06404 0.0
C781 C 0.29475 0.53795 0.05556 0.0
N782 N 0.27609 0.49889 0.04233 0.0
C783 C 0.27491 0.47294 0.06979 0.0
C784 C 0.28912 0.47744 0.06131 0.0
C785 C 0.28946 0.49036 0.04787 0.0
C786 C 0.26138 0.48187 0.06448 0.0
C787 C 0.26221 0.49458 0.0508 0.0
N788 N 0.27723 0.53427 0.00179 0.0
C789 C 0.292 0.553 0.98222 0.0
C790 C 0.27804 0.56059 0.97512 0.0
C791 C 0.26367 0.55457 0.98119 0.0
C792 C 0.26353 0.54146 0.99428 0.0
C793 C 0.29133 0.54002 0.99551 0.0
H794 H 0.25218 0.53747 0.99828 0.0
H795 H 0.3024 0.53497 0.00076 0.0
H796 H 0.30065 0.4931 0.04199 0.0
H797 H 0.2514 0.50066 0.04722 0.0
C798 C 0.23757 0.51965 0.02192 0.0
C799 C 0.28078 0.54658 0.06189 0.0
C800 C 0.27269 0.48703 0.98155 0.0
C801 C 0.31574 0.51332 0.02237 0.0
H802 H 0.25 0.55704 0.07387 0.0
H803 H 0.22631 0.5423 0.05206 0.0
H804 H 0.22043 0.49959 0.99109 0.0
H805 H 0.23992 0.48184 0.96887 0.0
H806 H 0.30322 0.47787 0.96783 0.0
H807 H 0.32704 0.4923 0.99013 0.0
H808 H 0.33283 0.532 0.05483 0.0
H809 H 0.31341 0.5503 0.07642 0.0
H810 H 0.29994 0.47085 0.06463 0.0
H811 H 0.25011 0.47915 0.0709 0.0
H812 H 0.30344 0.55732 0.97803 0.0
H813 H 0.25253 0.55992 0.97581 0.0
C814 C 0.49315 0.29129 0.98771 0.0
C815 C 0.4878 0.30603 0.98117 0.0
C816 C 0.49667 0.31705 0.99297 0.0
C817 C 0.50681 0.3085 0.0061 0.0
N818 N 0.50522 0.29264 0.00306 0.0
Co819 Co 0.51643 0.27576 0.02016 0.0
N820 N 0.52751 0.29197 0.04001 0.0
C821 C 0.52595 0.30789 0.03939 0.0
C822 C 0.53586 0.31598 0.0541 0.0
C823 C 0.54448 0.30458 0.06451 0.0
C824 C 0.53924 0.29009 0.0556 0.0
N825 N 0.52759 0.25887 0.03715 0.0
C826 C 0.53898 0.26019 0.05338 0.0
C827 C 0.54379 0.24549 0.06067 0.0
C828 C 0.53551 0.23444 0.04809 0.0
C829 C 0.5261 0.243 0.03401 0.0
N830 N 0.50534 0.25957 0.00043 0.0
C831 C 0.50704 0.24365 0.00071 0.0
C832 C 0.49743 0.23566 0.98551 0.0
C833 C 0.48876 0.24712 0.97527 0.0
C834 C 0.49358 0.26147 0.98498 0.0
N835 N 0.53446 0.2763 0.00113 0.0
C836 C 0.56129 0.27704 0.9764 0.0
C837 C 0.55419 0.2627 0.98087 0.0
C838 C 0.54094 0.2626 0.99322 0.0
C839 C 0.55458 0.29101 0.98417 0.0
C840 C 0.54123 0.29038 0.99626 0.0
N841 N 0.49842 0.27523 0.03917 0.0
C842 C 0.47874 0.26053 0.05695 0.0
C843 C 0.47142 0.27452 0.06348 0.0
C844 C 0.47803 0.28888 0.05808 0.0
C845 C 0.4915 0.28897 0.04618 0.0
C846 C 0.49207 0.26114 0.04482 0.0
H847 H 0.49596 0.30029 0.04264 0.0
H848 H 0.49686 0.25006 0.0399 0.0
H849 H 0.53631 0.25128 0.99639 0.0
H850 H 0.53672 0.30146 0.00162 0.0
C851 C 0.51639 0.31493 0.02326 0.0
C852 C 0.48561 0.27638 0.98039 0.0
C853 C 0.5465 0.27497 0.0612 0.0
C854 C 0.51661 0.23653 0.01677 0.0
H855 H 0.47808 0.30866 0.96976 0.0
H856 H 0.49525 0.32978 0.99288 0.0
H857 H 0.53722 0.32867 0.05626 0.0
H858 H 0.55395 0.30682 0.07669 0.0
H859 H 0.55277 0.24303 0.07327 0.0
H860 H 0.53665 0.2217 0.04864 0.0
H861 H 0.49631 0.22297 0.98287 0.0
H862 H 0.47946 0.24515 0.96274 0.0
H863 H 0.55904 0.25155 0.97529 0.0
H864 H 0.55952 0.30243 0.98081 0.0
H865 H 0.47395 0.24911 0.06068 0.0
H866 H 0.47287 0.30004 0.06308 0.0
C867 C 0.74781 0.54612 0.05762 0.0
C868 C 0.73352 0.55249 0.06356 0.0
C869 C 0.72181 0.54389 0.0526 0.0
C870 C 0.72959 0.53284 0.04063 0.0
N871 N 0.74558 0.53374 0.04338 0.0
Co872 Co 0.76145 0.52038 0.02836 0.0
N873 N 0.74419 0.50792 0.01191 0.0
C874 C 0.72837 0.50964 0.01344 0.0
C875 C 0.71943 0.4994 0.00024 0.0
C876 C 0.73014 0.49049 0.98974 0.0
C877 C 0.74509 0.49576 0.99728 0.0
N878 N 0.77731 0.5073 0.01289 0.0
C879 C 0.7751 0.49527 0.99806 0.0
C880 C 0.78945 0.48922 0.99179 0.0
C881 C 0.80111 0.49782 0.00282 0.0
C882 C 0.79329 0.50854 0.01525 0.0
N883 N 0.77869 0.53258 0.0452 0.0
C884 C 0.7945 0.5303 0.04458 0.0
C885 C 0.80341 0.54045 0.058 0.0
C886 C 0.79266 0.54982 0.06777 0.0
C887 C 0.77777 0.54483 0.05966 0.0
N888 N 0.7615 0.50468 0.05145 0.0
C889 C 0.76101 0.48019 0.08119 0.0
C890 C 0.77519 0.48492 0.07287 0.0
C891 C 0.77518 0.49717 0.05834 0.0
C892 C 0.74723 0.48849 0.07511 0.0
C893 C 0.74772 0.50052 0.06032 0.0
N894 N 0.76138 0.53598 0.00521 0.0
C895 C 0.7754 0.55295 0.9822 0.0
C896 C 0.76113 0.55807 0.97222 0.0
C897 C 0.74702 0.55199 0.97912 0.0
C898 C 0.74741 0.54108 0.99546 0.0
C899 C 0.77526 0.54197 0.99851 0.0
H900 H 0.73624 0.53698 0.99996 0.0
H901 H 0.78651 0.53849 0.00543 0.0
H902 H 0.78636 0.5001 0.05259 0.0
H903 H 0.73673 0.50608 0.05608 0.0
C904 C 0.72224 0.52138 0.02681 0.0
C905 C 0.76316 0.55237 0.06581 0.0
C906 C 0.75974 0.48887 0.98993 0.0
C907 C 0.80063 0.5192 0.03028 0.0
H908 H 0.73174 0.56238 0.07461 0.0
H909 H 0.70915 0.54555 0.05321 0.0
H910 H 0.70663 0.49862 0.99833 0.0
H911 H 0.72723 0.4812 0.9778 0.0
H912 H 0.79136 0.47942 0.98065 0.0
H913 H 0.81378 0.49623 0.00221 0.0
H914 H 0.8162 0.54115 0.06012 0.0
H915 H 0.79545 0.55939 0.07934 0.0
H916 H 0.78622 0.47888 0.07693 0.0
H917 H 0.73599 0.48563 0.08151 0.0
H918 H 0.78666 0.55724 0.9773 0.0
H919 H 0.73563 0.55581 0.97216 0.0
H920 H 0.16613 0.25571 0.33534 0.0
H921 H 0.14472 0.26294 0.3586 0.0
H922 H 0.17387 0.24923 0.41419 0.0
H923 H 0.19532 0.24204 0.39105 0.0
H924 H 0.14346 0.23513 0.41036 0.0
H925 H 0.16717 0.28681 0.40801 0.0
H926 H 0.17726 0.31004 0.39013 0.0
H927 H 0.13119 0.31762 0.35915 0.0
H928 H 0.12088 0.29428 0.37661 0.0
H929 H 0.09306 0.25768 0.49094 0.0
H930 H 0.11605 0.25568 0.46908 0.0
H931 H 0.08941 0.27782 0.41682 0.0
H932 H 0.06652 0.28036 0.43907 0.0
H933 H 0.11865 0.28805 0.41844 0.0
H934 H 0.09469 0.23689 0.41836 0.0
H935 H 0.08367 0.21318 0.43411 0.0
H936 H 0.12885 0.20374 0.46653 0.0
H937 H 0.14008 0.22753 0.45121 0.0
C938 C 0.16801 0.25441 0.35255 0.0
C939 C 0.18238 0.24832 0.3614 0.0
C940 C 0.15582 0.25861 0.36581 0.0
C941 C 0.15775 0.25664 0.3881 0.0
C942 C 0.17219 0.25087 0.39702 0.0
C943 C 0.18445 0.24687 0.38381 0.0
C944 C 0.14435 0.2596 0.40195 0.0
C945 C 0.13818 0.24675 0.41243 0.0
C946 C 0.13712 0.27464 0.40392 0.0
C947 C 0.14329 0.2887 0.39345 0.0
C948 C 0.15923 0.29334 0.39723 0.0
C949 C 0.16498 0.30655 0.38721 0.0
C950 C 0.15489 0.31528 0.37347 0.0
C951 C 0.139 0.31084 0.36977 0.0
C952 C 0.1332 0.29763 0.37974 0.0
C953 C 0.09216 0.26219 0.47482 0.0
C954 C 0.078 0.26903 0.46658 0.0
C955 C 0.10527 0.261 0.46231 0.0
C956 C 0.10436 0.26625 0.44109 0.0
C957 C 0.09039 0.27362 0.4331 0.0
C958 C 0.07732 0.27506 0.44578 0.0
C959 C 0.11782 0.26357 0.4271 0.0
C960 C 0.12394 0.27643 0.41648 0.0
C961 C 0.12487 0.24845 0.42465 0.0
C962 C 0.11818 0.23408 0.4338 0.0
C963 C 0.10224 0.22982 0.42897 0.0
C964 C 0.09596 0.21636 0.4378 0.0
C965 C 0.10554 0.20698 0.45136 0.0
C966 C 0.12144 0.21103 0.45605 0.0
C967 C 0.12777 0.22449 0.44729 0.0
H968 H 0.10066 0.19657 0.45818 0.0
H969 H 0.15936 0.32551 0.36573 0.0
H970 H 0.78099 0.18933 0.37356 0.0
H971 H 0.7732 0.16877 0.39742 0.0
H972 H 0.78863 0.13285 0.35264 0.0
H973 H 0.79538 0.15327 0.32799 0.0
H974 H 0.7635 0.12282 0.36937 0.0
H975 H 0.81232 0.14654 0.39801 0.0
H976 H 0.83003 0.16836 0.41131 0.0
H977 H 0.79911 0.17944 0.46181 0.0
H978 H 0.78109 0.15779 0.44861 0.0
H979 H 0.78412 0.06068 0.44073 0.0
H980 H 0.78455 0.08247 0.41573 0.0
H981 H 0.75895 0.11197 0.45943 0.0
H982 H 0.75841 0.09014 0.48447 0.0
H983 H 0.78685 0.126 0.44445 0.0
H984 H 0.73956 0.09918 0.41639 0.0
H985 H 0.72374 0.07606 0.40283 0.0
H986 H 0.75426 0.06932 0.35074 0.0
H987 H 0.77042 0.09227 0.36418 0.0
C988 C 0.78238 0.17707 0.3685 0.0
C989 C 0.78902 0.17301 0.3489 0.0
C990 C 0.77811 0.1653 0.38233 0.0
C991 C 0.78069 0.14926 0.3771 0.0
C992 C 0.78665 0.14515 0.35715 0.0
C993 C 0.79069 0.15687 0.34317 0.0
C994 C 0.77787 0.13676 0.39269 0.0
C995 C 0.7687 0.12349 0.38573 0.0
C996 C 0.78445 0.13768 0.41419 0.0
C997 C 0.79527 0.15068 0.42217 0.0
C998 C 0.80924 0.15371 0.41185 0.0
C999 C 0.81934 0.16603 0.41938 0.0
C1000 C 0.81567 0.17531 0.43735 0.0
C1001 C 0.80192 0.17226 0.44786 0.0
C1002 C 0.79176 0.15996 0.44037 0.0
C1003 C 0.77855 0.0718 0.44495 0.0
C1004 C 0.77124 0.07376 0.4645 0.0
C1005 C 0.77872 0.08418 0.43063 0.0
C1006 C 0.7717 0.09876 0.43572 0.0
C1007 C 0.76437 0.10076 0.45522 0.0
C1008 C 0.764 0.0883 0.46942 0.0
C1009 C 0.77264 0.1121 0.42102 0.0
C1010 C 0.78149 0.12548 0.42816 0.0
C1011 C 0.76604 0.11112 0.39961 0.0
C1012 C 0.75628 0.09738 0.3914 0.0
C1013 C 0.74298 0.0927 0.40215 0.0
C1014 C 0.73394 0.07963 0.39446 0.0
C1015 C 0.73802 0.07121 0.37596 0.0
C1016 C 0.75113 0.07585 0.36507 0.0
C1017 C 0.76022 0.0889 0.37271 0.0
H1018 H 0.731 0.0611 0.37003 0.0
H1019 H 0.82351 0.18485 0.44317 0.0
H1020 H 0.86538 0.78059 0.33596 0.0
H1021 H 0.89085 0.77635 0.35575 0.0
H1022 H 0.87157 0.79498 0.41385 0.0
H1023 H 0.84641 0.80001 0.39402 0.0
H1024 H 0.89962 0.80708 0.41002 0.0
H1025 H 0.87767 0.75453 0.40423 0.0
H1026 H 0.86602 0.73081 0.38536 0.0
H1027 H 0.9077 0.72513 0.34985 0.0
H1028 H 0.91952 0.74895 0.36832 0.0
H1029 H 0.9575 0.78183 0.48757 0.0
H1030 H 0.9324 0.78315 0.46568 0.0
H1031 H 0.95684 0.7705 0.40883 0.0
H1032 H 0.98201 0.76926 0.43082 0.0
H1033 H 0.92712 0.75517 0.4106 0.0
H1034 H 0.9492 0.80755 0.41764 0.0
H1035 H 0.96088 0.83075 0.43773 0.0
H1036 H 0.91854 0.83635 0.47189 0.0
H1037 H 0.9067 0.81301 0.45223 0.0
C1038 C 0.86658 0.78388 0.35292 0.0
C1039 C 0.85378 0.79059 0.36338 0.0
C1040 C 0.88111 0.78128 0.36428 0.0
C1041 C 0.88309 0.78517 0.38638 0.0
C1042 C 0.87033 0.79183 0.39684 0.0
C1043 C 0.85586 0.79453 0.38549 0.0
C1044 C 0.89854 0.78273 0.39859 0.0
C1045 C 0.90551 0.79567 0.41032 0.0
C1046 C 0.90648 0.76795 0.39859 0.0
C1047 C 0.8994 0.75362 0.38749 0.0
C1048 C 0.8843 0.74829 0.39227 0.0
C1049 C 0.87767 0.73482 0.38167 0.0
C1050 C 0.88609 0.72649 0.36637 0.0
C1051 C 0.90118 0.7316 0.36168 0.0
C1052 C 0.90785 0.74508 0.37222 0.0
C1053 C 0.9574 0.77914 0.47044 0.0
C1054 C 0.97153 0.77542 0.46076 0.0
C1055 C 0.94314 0.77992 0.45797 0.0
C1056 C 0.94281 0.77705 0.43562 0.0
C1057 C 0.95686 0.77273 0.42605 0.0
C1058 C 0.97117 0.77203 0.43854 0.0
C1059 C 0.92796 0.77944 0.42219 0.0
C1060 C 0.92118 0.76656 0.4102 0.0
C1061 C 0.92013 0.79424 0.42201 0.0
C1062 C 0.92711 0.80845 0.43358 0.0
C1063 C 0.94241 0.81367 0.42953 0.0
C1064 C 0.94906 0.82685 0.44083 0.0
C1065 C 0.94047 0.83499 0.45611 0.0
C1066 C 0.92519 0.83001 0.46006 0.0
C1067 C 0.9185 0.81682 0.44883 0.0
H1068 H 0.94565 0.84518 0.46486 0.0
H1069 H 0.88095 0.71606 0.35818 0.0
H1070 H 0.24297 0.88132 0.30318 0.0
H1071 H 0.25194 0.90247 0.32839 0.0
H1072 H 0.26489 0.86803 0.37609 0.0
H1073 H 0.2547 0.8469 0.35161 0.0
H1074 H 0.25002 0.89011 0.39422 0.0
H1075 H 0.29305 0.89003 0.34847 0.0
H1076 H 0.3063 0.8904 0.31433 0.0
H1077 H 0.28638 0.93611 0.30128 0.0
H1078 H 0.27282 0.93593 0.3352 0.0
H1079 H 0.28661 0.94861 0.46539 0.0
H1080 H 0.28533 0.92647 0.4389 0.0
H1081 H 0.25874 0.95547 0.39378 0.0
H1082 H 0.25986 0.97759 0.42026 0.0
H1083 H 0.28331 0.93543 0.37562 0.0
H1084 H 0.23848 0.93319 0.42082 0.0
H1085 H 0.22647 0.93247 0.45585 0.0
H1086 H 0.25212 0.88991 0.47072 0.0
H1087 H 0.26449 0.89054 0.43588 0.0
C1088 C 0.24762 0.8782 0.31907 0.0
C1089 C 0.24797 0.86233 0.32532 0.0
C1090 C 0.25303 0.89033 0.33339 0.0
C1091 C 0.25933 0.88688 0.35411 0.0
C1092 C 0.26013 0.87103 0.36018 0.0
C1093 C 0.25445 0.8589 0.34602 0.0
C1094 C 0.26397 0.89985 0.36992 0.0
C1095 C 0.25759 0.89981 0.39022 0.0
C1096 C 0.27365 0.91272 0.36473 0.0
C1097 C 0.28182 0.91291 0.34432 0.0
C1098 C 0.2914 0.90011 0.33825 0.0
C1099 C 0.29898 0.9003 0.31894 0.0
C1100 C 0.29716 0.91325 0.30562 0.0
C1101 C 0.28777 0.92608 0.31161 0.0
C1102 C 0.28016 0.92595 0.33089 0.0
C1103 C 0.28076 0.95032 0.44967 0.0
C1104 C 0.27326 0.96474 0.44485 0.0
C1105 C 0.28 0.93769 0.43462 0.0
C1106 C 0.27189 0.93937 0.41448 0.0
C1107 C 0.26508 0.954 0.40924 0.0
C1108 C 0.26564 0.96655 0.42438 0.0
C1109 C 0.2693 0.92555 0.39956 0.0
C1110 C 0.27598 0.92552 0.37953 0.0
C1111 C 0.26011 0.91249 0.40506 0.0
C1112 C 0.25255 0.91202 0.42588 0.0
C1113 C 0.24167 0.92376 0.43164 0.0
C1114 C 0.23478 0.92335 0.45145 0.0
C1115 C 0.23857 0.91118 0.46553 0.0
C1116 C 0.24922 0.89935 0.45981 0.0
C1117 C 0.25617 0.89972 0.44004 0.0
H1118 H 0.23322 0.91088 0.48086 0.0
H1119 H 0.30303 0.91337 0.29068 0.0
H1120 H 0.19368 0.79327 0.62654 0.0
H1121 H 0.16706 0.79246 0.60917 0.0
H1122 H 0.14882 0.77468 0.66691 0.0
H1123 H 0.17567 0.77488 0.68425 0.0
H1124 H 0.13586 0.75918 0.63149 0.0
H1125 H 0.14356 0.81317 0.65446 0.0
H1126 H 0.15745 0.83884 0.65855 0.0
H1127 H 0.15474 0.84327 0.58995 0.0
H1128 H 0.14103 0.8175 0.58542 0.0
H1129 H 0.05556 0.77353 0.59386 0.0
H1130 H 0.08076 0.77467 0.61583 0.0
H1131 H 0.10457 0.79058 0.56109 0.0
H1132 H 0.07937 0.78945 0.53923 0.0
H1133 H 0.11357 0.80753 0.59797 0.0
H1134 H 0.10703 0.75271 0.57532 0.0
H1135 H 0.09263 0.72731 0.57153 0.0
H1136 H 0.09279 0.72473 0.64027 0.0
H1137 H 0.10694 0.75028 0.64446 0.0
C1138 C 0.18408 0.78895 0.6355 0.0
C1139 C 0.18685 0.7841 0.6568 0.0
C1140 C 0.16881 0.78868 0.62561 0.0
C1141 C 0.1559 0.78374 0.63684 0.0
C1142 C 0.1586 0.77862 0.65798 0.0
C1143 C 0.17393 0.77886 0.66792 0.0
C1144 C 0.13963 0.78396 0.62636 0.0
C1145 C 0.13087 0.76982 0.62449 0.0
C1146 C 0.1332 0.79779 0.61695 0.0
C1147 C 0.14138 0.81334 0.6196 0.0
C1148 C 0.14603 0.81956 0.64024 0.0
C1149 C 0.15385 0.83414 0.64263 0.0
C1150 C 0.157 0.84266 0.62452 0.0
C1151 C 0.1523 0.83664 0.60397 0.0
C1152 C 0.14449 0.82206 0.60148 0.0
C1153 C 0.06622 0.77726 0.58666 0.0
C1154 C 0.06571 0.78129 0.56495 0.0
C1155 C 0.08056 0.7779 0.59913 0.0
C1156 C 0.09455 0.78258 0.59002 0.0
C1157 C 0.09392 0.78693 0.56842 0.0
C1158 C 0.0796 0.78625 0.55596 0.0
C1159 C 0.10995 0.78271 0.60283 0.0
C1160 C 0.11853 0.79693 0.60514 0.0
C1161 C 0.11617 0.76898 0.61269 0.0
C1162 C 0.1079 0.75349 0.6102 0.0
C1163 C 0.10389 0.74678 0.58963 0.0
C1164 C 0.09579 0.73236 0.58741 0.0
C1165 C 0.09176 0.72443 0.60565 0.0
C1166 C 0.09589 0.73089 0.62616 0.0
C1167 C 0.10396 0.74535 0.62846 0.0
H1168 H 0.08549 0.71326 0.6039 0.0
H1169 H 0.16306 0.85395 0.62641 0.0
H1170 H 0.24327 0.18179 0.68836 0.0
H1171 H 0.25077 0.15992 0.66456 0.0
H1172 H 0.24236 0.12679 0.7139 0.0
H1173 H 0.23496 0.14866 0.73795 0.0
H1174 H 0.27314 0.13679 0.66604 0.0
H1175 H 0.22423 0.09421 0.68923 0.0
H1176 H 0.19796 0.09526 0.70445 0.0
H1177 H 0.19005 0.14153 0.67929 0.0
H1178 H 0.21615 0.14065 0.66367 0.0
H1179 H 0.28262 0.061 0.61329 0.0
H1180 H 0.2792 0.08202 0.64061 0.0
H1181 H 0.23671 0.09745 0.60537 0.0
H1182 H 0.24009 0.07663 0.57804 0.0
H1183 H 0.2321 0.09585 0.64726 0.0
H1184 H 0.27125 0.11763 0.6036 0.0
H1185 H 0.29653 0.11798 0.58588 0.0
H1186 H 0.3223 0.11578 0.64733 0.0
H1187 H 0.29715 0.11521 0.6654 0.0
C1188 C 0.24332 0.16989 0.69434 0.0
C1189 C 0.23842 0.16696 0.71502 0.0
C1190 C 0.24759 0.1574 0.68068 0.0
C1191 C 0.24696 0.14173 0.68738 0.0
C1192 C 0.24271 0.13879 0.70832 0.0
C1193 C 0.23843 0.15129 0.72199 0.0
C1194 C 0.24977 0.12848 0.67194 0.0
C1195 C 0.26423 0.12777 0.66203 0.0
C1196 C 0.23803 0.11686 0.66648 0.0
C1197 C 0.22221 0.11742 0.67552 0.0
C1198 C 0.21685 0.10458 0.6869 0.0
C1199 C 0.202 0.10515 0.69559 0.0
C1200 C 0.19237 0.11848 0.69291 0.0
C1201 C 0.19754 0.13124 0.68143 0.0
C1202 C 0.21237 0.13072 0.67267 0.0
C1203 C 0.27263 0.06896 0.61129 0.0
C1204 C 0.2616 0.06711 0.59353 0.0
C1205 C 0.27068 0.08093 0.62693 0.0
C1206 C 0.25773 0.09132 0.62498 0.0
C1207 C 0.24673 0.08949 0.60727 0.0
C1208 C 0.24865 0.07755 0.59169 0.0
C1209 C 0.2555 0.10411 0.64134 0.0
C1210 C 0.24112 0.10474 0.65145 0.0
C1211 C 0.2672 0.1158 0.64665 0.0
C1212 C 0.28232 0.11621 0.63582 0.0
C1213 C 0.28231 0.1171 0.61332 0.0
C1214 C 0.29661 0.11735 0.60321 0.0
C1215 C 0.31101 0.11686 0.61546 0.0
C1216 C 0.31114 0.11614 0.63785 0.0
C1217 C 0.29686 0.11586 0.64804 0.0
H1218 H 0.32207 0.11706 0.60761 0.0
H1219 H 0.18088 0.11891 0.69968 0.0
H1220 H 0.8758 0.23942 0.71164 0.0
H1221 H 0.89868 0.24464 0.69097 0.0
H1222 H 0.87041 0.27587 0.65076 0.0
H1223 H 0.84768 0.27144 0.67216 0.0
H1224 H 0.90319 0.23766 0.65138 0.0
H1225 H 0.89346 0.30348 0.62969 0.0
H1226 H 0.88276 0.32799 0.64574 0.0
H1227 H 0.89273 0.31035 0.70904 0.0
H1228 H 0.90367 0.28583 0.69339 0.0
H1229 H 0.94749 0.25419 0.563 0.0
H1230 H 0.92594 0.25273 0.58727 0.0
H1231 H 0.95235 0.28284 0.63386 0.0
H1232 H 0.97386 0.28454 0.60942 0.0
H1233 H 0.92213 0.29074 0.6326 0.0
H1234 H 0.95118 0.24245 0.63914 0.0
H1235 H 0.96393 0.21798 0.62629 0.0
H1236 H 0.91895 0.20056 0.59967 0.0
H1237 H 0.90596 0.22505 0.6121 0.0
C1238 C 0.87451 0.24773 0.69876 0.0
C1239 C 0.85984 0.25503 0.69365 0.0
C1240 C 0.88759 0.25055 0.68677 0.0
C1241 C 0.88634 0.26071 0.66934 0.0
C1242 C 0.87178 0.26817 0.66432 0.0
C1243 C 0.85871 0.26546 0.67643 0.0
C1244 C 0.90003 0.26284 0.65581 0.0
C1245 C 0.90732 0.24929 0.64734 0.0
C1246 C 0.90566 0.27799 0.65076 0.0
C1247 C 0.89924 0.29276 0.66034 0.0
C1248 C 0.89342 0.30486 0.64704 0.0
C1249 C 0.88731 0.31875 0.65606 0.0
C1250 C 0.88702 0.3207 0.67839 0.0
C1251 C 0.8929 0.30879 0.69174 0.0
C1252 C 0.89904 0.29489 0.6828 0.0
C1253 C 0.9487 0.26049 0.57842 0.0
C1254 C 0.96242 0.26936 0.58439 0.0
C1255 C 0.93638 0.25965 0.59228 0.0
C1256 C 0.93763 0.26744 0.61257 0.0
C1257 C 0.95112 0.27671 0.61831 0.0
C1258 C 0.96339 0.27768 0.60434 0.0
C1259 C 0.92505 0.26557 0.62796 0.0
C1260 C 0.91798 0.27914 0.63672 0.0
C1261 C 0.91988 0.25044 0.63376 0.0
C1262 C 0.92763 0.23564 0.62639 0.0
C1263 C 0.94403 0.23345 0.63042 0.0
C1264 C 0.95129 0.21957 0.62323 0.0
C1265 C 0.94226 0.20774 0.61213 0.0
C1266 C 0.92593 0.20975 0.60825 0.0
C1267 C 0.91861 0.22362 0.61538 0.0
H1268 H 0.94791 0.197 0.60657 0.0
H1269 H 0.88227 0.33146 0.68534 0.0
H1270 H 0.7942 0.83004 0.62544 0.0
H1271 H 0.79358 0.85746 0.61397 0.0
H1272 H 0.75579 0.86778 0.65568 0.0
H1273 H 0.75628 0.84025 0.66716 0.0
H1274 H 0.75102 0.88004 0.61368 0.0
H1275 H 0.7912 0.87941 0.67199 0.0
H1276 H 0.81527 0.86935 0.69138 0.0
H1277 H 0.84265 0.87966 0.63772 0.0
H1278 H 0.81867 0.88958 0.61787 0.0
H1279 H 0.75527 0.96342 0.60615 0.0
H1280 H 0.75536 0.93699 0.62112 0.0
H1281 H 0.79627 0.92454 0.58613 0.0
H1282 H 0.79617 0.95083 0.57094 0.0
H1283 H 0.79904 0.91366 0.62646 0.0
H1284 H 0.76035 0.91253 0.56718 0.0
H1285 H 0.73695 0.92165 0.54544 0.0
H1286 H 0.70754 0.9136 0.59781 0.0
H1287 H 0.73085 0.90466 0.62003 0.0
C1288 C 0.78563 0.8381 0.63197 0.0
C1289 C 0.77527 0.83302 0.64717 0.0
C1290 C 0.78537 0.85377 0.62554 0.0
C1291 C 0.77474 0.86464 0.63414 0.0
C1292 C 0.76411 0.85955 0.64893 0.0
C1293 C 0.76446 0.84388 0.65553 0.0
C1294 C 0.7749 0.88137 0.62781 0.0
C1295 C 0.7614 0.88751 0.6168 0.0
C1296 C 0.78864 0.89089 0.63136 0.0
C1297 C 0.80311 0.88511 0.64337 0.0
C1298 C 0.80233 0.87943 0.66426 0.0
C1299 C 0.81596 0.87377 0.67535 0.0
C1300 C 0.83047 0.87383 0.66577 0.0
C1301 C 0.83139 0.87961 0.64511 0.0
C1302 C 0.81779 0.88526 0.63394 0.0
C1303 C 0.76429 0.95506 0.60165 0.0
C1304 C 0.77568 0.95922 0.58729 0.0
C1305 C 0.76434 0.93998 0.61025 0.0
C1306 C 0.77572 0.92876 0.60454 0.0
C1307 C 0.78741 0.93304 0.59079 0.0
C1308 C 0.78737 0.9481 0.58219 0.0
C1309 C 0.77514 0.91238 0.61231 0.0
C1310 C 0.78859 0.90627 0.62353 0.0
C1311 C 0.76144 0.9028 0.60867 0.0
C1312 C 0.74737 0.9081 0.59536 0.0
C1313 C 0.74892 0.91283 0.57413 0.0
C1314 C 0.73567 0.91794 0.5617 0.0
C1315 C 0.72077 0.91824 0.57025 0.0
C1316 C 0.71909 0.91339 0.59123 0.0
C1317 C 0.73232 0.90829 0.60375 0.0
H1318 H 0.71052 0.92219 0.56059 0.0
H1319 H 0.84101 0.86944 0.67437 0.0
H1320 H 0.86292 0.77434 0.6934 0.0
H1321 H 0.88944 0.77615 0.67987 0.0
H1322 H 0.87233 0.75356 0.61993 0.0
H1323 H 0.84578 0.75242 0.63263 0.0
H1324 H 0.90218 0.74178 0.63742 0.0
H1325 H 0.87502 0.79138 0.6214 0.0
H1326 H 0.86108 0.81587 0.63156 0.0
H1327 H 0.90141 0.83065 0.67261 0.0
H1328 H 0.9155 0.8061 0.66292 0.0
H1329 H 0.95166 0.75806 0.55557 0.0
H1330 H 0.92972 0.7558 0.5789 0.0
H1331 H 0.95362 0.78759 0.62581 0.0
H1332 H 0.97563 0.79009 0.60221 0.0
H1333 H 0.92319 0.79472 0.6216 0.0
H1334 H 0.95208 0.74749 0.63414 0.0
H1335 H 0.96645 0.72304 0.62502 0.0
H1336 H 0.92409 0.70353 0.59299 0.0
H1337 H 0.9095 0.72796 0.60163 0.0
C1338 C 0.86475 0.76979 0.67731 0.0
C1339 C 0.85208 0.76323 0.66417 0.0
C1340 C 0.87995 0.77075 0.66968 0.0
C1341 C 0.88279 0.765 0.64891 0.0
C1342 C 0.87038 0.75794 0.63608 0.0
C1343 C 0.85519 0.7572 0.64351 0.0
C1344 C 0.89843 0.76694 0.63984 0.0
C1345 C 0.9068 0.75333 0.63391 0.0
C1346 C 0.90466 0.78204 0.63596 0.0
C1347 C 0.89623 0.79682 0.64166 0.0
C1348 C 0.88086 0.79978 0.63275 0.0
C1349 C 0.87294 0.81369 0.63839 0.0
C1350 C 0.88033 0.82478 0.65278 0.0
C1351 C 0.89568 0.82202 0.66151 0.0
C1352 C 0.90364 0.80812 0.65594 0.0
C1353 C 0.95232 0.76446 0.57094 0.0
C1354 C 0.96544 0.77412 0.57716 0.0
C1355 C 0.93978 0.76315 0.58429 0.0
C1356 C 0.94016 0.77125 0.60435 0.0
C1357 C 0.95311 0.78115 0.61047 0.0
C1358 C 0.96565 0.78259 0.59698 0.0
C1359 C 0.9268 0.7695 0.61853 0.0
C1360 C 0.91883 0.78314 0.62546 0.0
C1361 C 0.92103 0.75441 0.62357 0.0
C1362 C 0.92971 0.73962 0.61844 0.0
C1363 C 0.94584 0.73803 0.62503 0.0
C1364 C 0.95403 0.72417 0.61996 0.0
C1365 C 0.94619 0.71175 0.60841 0.0
C1366 C 0.93014 0.71316 0.60194 0.0
C1367 C 0.9219 0.72701 0.60695 0.0
H1368 H 0.95255 0.70103 0.60449 0.0
H1369 H 0.87418 0.83555 0.65713 0.0
H1370 H 0.23672 0.8585 0.65401 0.0
H1371 H 0.23937 0.88292 0.63465 0.0
H1372 H 0.29026 0.88025 0.64461 0.0
H1373 H 0.28767 0.85562 0.66385 0.0
H1374 H 0.2504 0.91103 0.64481 0.0
H1375 H 0.30742 0.89555 0.60168 0.0
H1376 H 0.32144 0.87196 0.58828 0.0
H1377 H 0.27753 0.84623 0.58139 0.0
H1378 H 0.26324 0.86972 0.59447 0.0
H1379 H 0.27641 0.98033 0.59642 0.0
H1380 H 0.27624 0.95606 0.61708 0.0
H1381 H 0.26315 0.92895 0.55879 0.0
H1382 H 0.26381 0.95318 0.53813 0.0
H1383 H 0.2841 0.91302 0.58252 0.0
H1384 H 0.23565 0.9402 0.59444 0.0
H1385 H 0.21903 0.96286 0.60471 0.0
H1386 H 0.2409 0.96322 0.66881 0.0
H1387 H 0.25785 0.94072 0.65882 0.0
C1388 C 0.24848 0.8632 0.65231 0.0
C1389 C 0.262 0.85512 0.6605 0.0
C1390 C 0.24998 0.87716 0.64118 0.0
C1391 C 0.26501 0.88339 0.63796 0.0
C1392 C 0.27854 0.87554 0.64653 0.0
C1393 C 0.27705 0.86148 0.65755 0.0
C1394 C 0.26642 0.89795 0.62536 0.0
C1395 C 0.25783 0.91147 0.63126 0.0
C1396 C 0.27585 0.89849 0.60738 0.0
C1397 C 0.28431 0.88434 0.59929 0.0
C1398 C 0.30076 0.88487 0.59724 0.0
C1399 C 0.30875 0.87151 0.58971 0.0
C1400 C 0.30039 0.85758 0.58406 0.0
C1401 C 0.28401 0.857 0.58585 0.0
C1402 C 0.27596 0.87033 0.59335 0.0
C1403 C 0.27366 0.96912 0.5881 0.0
C1404 C 0.27013 0.9685 0.56579 0.0
C1405 C 0.27348 0.9553 0.59986 0.0
C1406 C 0.26949 0.94068 0.58953 0.0
C1407 C 0.26628 0.94006 0.56712 0.0
C1408 C 0.26658 0.95387 0.55535 0.0
C1409 C 0.26819 0.92612 0.60212 0.0
C1410 C 0.27679 0.91261 0.59621 0.0
C1411 C 0.2584 0.92544 0.6197 0.0
C1412 C 0.24812 0.93888 0.62582 0.0
C1413 C 0.23699 0.94519 0.61069 0.0
C1414 C 0.22751 0.95799 0.61646 0.0
C1415 C 0.22893 0.9645 0.63739 0.0
C1416 C 0.23982 0.95819 0.6526 0.0
C1417 C 0.24937 0.9454 0.64689 0.0
H1418 H 0.22157 0.97441 0.64183 0.0
H1419 H 0.3066 0.84726 0.57825 0.0
H1420 H 0.17608 0.26213 0.69085 0.0
H1421 H 0.15434 0.2689 0.66522 0.0
H1422 H 0.12296 0.23845 0.69723 0.0
H1423 H 0.14484 0.23062 0.72174 0.0
H1424 H 0.11811 0.23348 0.65707 0.0
H1425 H 0.12224 0.28076 0.70158 0.0
H1426 H 0.13552 0.30382 0.72004 0.0
H1427 H 0.14729 0.3216 0.6592 0.0
H1428 H 0.13426 0.29853 0.64038 0.0
H1429 H 0.04538 0.2614 0.60996 0.0
H1430 H 0.06738 0.25884 0.63732 0.0
H1431 H 0.09989 0.27643 0.59295 0.0
H1432 H 0.07793 0.2786 0.56538 0.0
H1433 H 0.10405 0.28867 0.63866 0.0
H1434 H 0.0994 0.24026 0.59497 0.0
H1435 H 0.08419 0.2179 0.57774 0.0
H1436 H 0.07169 0.20281 0.63966 0.0
H1437 H 0.08658 0.22529 0.65723 0.0
C1438 C 0.1646 0.25675 0.69237 0.0
C1439 C 0.16232 0.24581 0.7085 0.0
C1440 C 0.15208 0.26083 0.67785 0.0
C1441 C 0.1369 0.25437 0.67941 0.0
C1442 C 0.13453 0.24365 0.69567 0.0
C1443 C 0.14708 0.23934 0.70993 0.0
C1444 C 0.1236 0.25818 0.66363 0.0
C1445 C 0.11496 0.24559 0.65335 0.0
C1446 C 0.11957 0.27394 0.65832 0.0
C1447 C 0.12741 0.28783 0.66959 0.0
C1448 C 0.12777 0.28953 0.69215 0.0
C1449 C 0.13523 0.30261 0.70267 0.0
C1450 C 0.14228 0.31415 0.69081 0.0
C1451 C 0.14184 0.31264 0.66838 0.0
C1452 C 0.13441 0.29957 0.65777 0.0
C1453 C 0.05722 0.26485 0.60623 0.0
C1454 C 0.06011 0.27004 0.58566 0.0
C1455 C 0.06971 0.26344 0.62179 0.0
C1456 C 0.08522 0.2674 0.61706 0.0
C1457 C 0.08798 0.27338 0.59687 0.0
C1458 C 0.07551 0.27457 0.58119 0.0
C1459 C 0.09867 0.26401 0.63254 0.0
C1460 C 0.1073 0.27663 0.64258 0.0
C1461 C 0.10257 0.2483 0.63789 0.0
C1462 C 0.09398 0.23454 0.6274 0.0
C1463 C 0.09332 0.23224 0.6049 0.0
C1464 C 0.08477 0.21954 0.59507 0.0
C1465 C 0.07695 0.20896 0.60759 0.0
C1466 C 0.07773 0.21103 0.62998 0.0
C1467 C 0.08623 0.22374 0.63988 0.0
H1468 H 0.07032 0.19915 0.59995 0.0
H1469 H 0.14805 0.32427 0.69899 0.0
H1470 H 0.78497 0.18879 0.6607 0.0
H1471 H 0.78057 0.16462 0.63855 0.0
H1472 H 0.78305 0.13691 0.69565 0.0
H1473 H 0.78748 0.16106 0.71791 0.0
H1474 H 0.8009 0.12405 0.66615 0.0
H1475 H 0.74759 0.14341 0.66669 0.0
H1476 H 0.72614 0.16302 0.66203 0.0
H1477 H 0.73484 0.166 0.5951 0.0
H1478 H 0.75649 0.14655 0.59942 0.0
H1479 H 0.77503 0.05155 0.61461 0.0
H1480 H 0.77628 0.07567 0.63779 0.0
H1481 H 0.77589 0.10421 0.58149 0.0
H1482 H 0.77447 0.08006 0.5584 0.0
H1483 H 0.75644 0.11638 0.61098 0.0
H1484 H 0.80992 0.09746 0.6105 0.0
H1485 H 0.83121 0.07766 0.61488 0.0
H1486 H 0.82222 0.07397 0.68163 0.0
H1487 H 0.80066 0.09355 0.67755 0.0
C1488 C 0.78428 0.17758 0.66858 0.0
C1489 C 0.78655 0.17686 0.69109 0.0
C1490 C 0.7818 0.16376 0.65588 0.0
C1491 C 0.78136 0.14893 0.66542 0.0
C1492 C 0.78338 0.1482 0.68791 0.0
C1493 C 0.78593 0.16201 0.70061 0.0
C1494 C 0.77945 0.13413 0.65192 0.0
C1495 C 0.79103 0.12228 0.65434 0.0
C1496 C 0.7668 0.13196 0.63609 0.0
C1497 C 0.75376 0.14363 0.63343 0.0
C1498 C 0.74501 0.14833 0.65101 0.0
C1499 C 0.7328 0.15941 0.64843 0.0
C1500 C 0.72915 0.16578 0.62829 0.0
C1501 C 0.73768 0.16106 0.61069 0.0
C1502 C 0.74992 0.15 0.6132 0.0
C1503 C 0.77517 0.06302 0.60733 0.0
C1504 C 0.77471 0.06412 0.5849 0.0
C1505 C 0.77592 0.07675 0.62049 0.0
C1506 C 0.77633 0.09175 0.61137 0.0
C1507 C 0.77558 0.09279 0.58886 0.0
C1508 C 0.77483 0.07905 0.57572 0.0
C1509 C 0.77785 0.10634 0.62528 0.0
C1510 C 0.76625 0.11815 0.62289 0.0
C1511 C 0.79048 0.1085 0.64112 0.0
C1512 C 0.80357 0.09686 0.64367 0.0
C1513 C 0.8124 0.09234 0.62608 0.0
C1514 C 0.82453 0.08116 0.62851 0.0
C1515 C 0.82805 0.07453 0.64851 0.0
C1516 C 0.81947 0.0791 0.66614 0.0
C1517 C 0.80729 0.09024 0.66378 0.0
H1518 H 0.83745 0.06589 0.65036 0.0
H1519 H 0.71969 0.17435 0.62632 0.0
H1520 H 0.87881 0.2603 0.32828 0.0
H1521 H 0.90208 0.26711 0.35212 0.0
H1522 H 0.87991 0.24657 0.40522 0.0
H1523 H 0.85672 0.23959 0.38152 0.0
H1524 H 0.89506 0.2742 0.41737 0.0
H1525 H 0.90678 0.22581 0.37832 0.0
H1526 H 0.90955 0.20901 0.34568 0.0
H1527 H 0.94447 0.24091 0.32447 0.0
H1528 H 0.94174 0.25802 0.35687 0.0
H1529 H 0.96076 0.25866 0.4896 0.0
H1530 H 0.9372 0.25688 0.4646 0.0
H1531 H 0.96399 0.27598 0.41459 0.0
H1532 H 0.98767 0.27738 0.43957 0.0
H1533 H 0.94685 0.2512 0.39959 0.0
H1534 H 0.93671 0.29859 0.44021 0.0
H1535 H 0.93409 0.31517 0.47306 0.0
H1536 H 0.89636 0.28544 0.49144 0.0
H1537 H 0.89892 0.26852 0.45885 0.0
C1538 C 0.87888 0.25725 0.34504 0.0
C1539 C 0.86593 0.24932 0.35295 0.0
C1540 C 0.89217 0.26119 0.35865 0.0
C1541 C 0.8928 0.25718 0.38039 0.0
C1542 C 0.87966 0.2498 0.38851 0.0
C1543 C 0.86638 0.24587 0.37493 0.0
C1544 C 0.90738 0.25998 0.3945 0.0
C1545 C 0.90636 0.26909 0.41359 0.0
C1546 C 0.9222 0.25361 0.38929 0.0
C1547 C 0.92393 0.24328 0.36989 0.0
C1548 C 0.91496 0.2293 0.36661 0.0
C1549 C 0.91654 0.21972 0.34817 0.0
C1550 C 0.92715 0.22392 0.33298 0.0
C1551 C 0.93624 0.23769 0.33624 0.0
C1552 C 0.93469 0.24733 0.35464 0.0
C1553 C 0.96151 0.26252 0.47328 0.0
C1554 C 0.97585 0.26828 0.46642 0.0
C1555 C 0.94808 0.2616 0.45906 0.0
C1556 C 0.94876 0.26654 0.4378 0.0
C1557 C 0.96318 0.27219 0.43093 0.0
C1558 C 0.97663 0.27305 0.44515 0.0
C1559 C 0.93453 0.26533 0.42261 0.0
C1560 C 0.9356 0.25649 0.40331 0.0
C1561 C 0.91977 0.27196 0.42763 0.0
C1562 C 0.91809 0.28221 0.44716 0.0
C1563 C 0.92793 0.29552 0.45133 0.0
C1564 C 0.92644 0.30499 0.46989 0.0
C1565 C 0.91509 0.30135 0.48435 0.0
C1566 C 0.90516 0.28824 0.48023 0.0
C1567 C 0.90661 0.27871 0.4617 0.0
H1568 H 0.91396 0.30869 0.49871 0.0
H1569 H 0.92835 0.21648 0.31872 0.0
H1570 H 0.7687 0.87782 0.34425 0.0
H1571 H 0.76555 0.90124 0.36768 0.0
H1572 H 0.77759 0.87352 0.42334 0.0
H1573 H 0.78048 0.84998 0.39996 0.0
H1574 H 0.75482 0.89411 0.43202 0.0
H1575 H 0.8053 0.89677 0.40128 0.0
H1576 H 0.82365 0.89649 0.37201 0.0
H1577 H 0.80045 0.93725 0.34523 0.0
H1578 H 0.7818 0.93763 0.37418 0.0
H1579 H 0.77793 0.95856 0.50397 0.0
H1580 H 0.77755 0.93431 0.48114 0.0
H1581 H 0.76362 0.96166 0.42571 0.0
H1582 H 0.76424 0.98591 0.44859 0.0
H1583 H 0.78703 0.94117 0.41721 0.0
H1584 H 0.73683 0.93857 0.44935 0.0
H1585 H 0.71935 0.93882 0.47961 0.0
H1586 H 0.74315 0.89794 0.50506 0.0
H1587 H 0.76092 0.89755 0.47506 0.0
C1588 C 0.77055 0.8767 0.3615 0.0
C1589 C 0.77496 0.8621 0.37026 0.0
C1590 C 0.76877 0.89009 0.37487 0.0
C1591 C 0.77166 0.88923 0.39726 0.0
C1592 C 0.77534 0.87449 0.40613 0.0
C1593 C 0.77696 0.86105 0.39275 0.0
C1594 C 0.77158 0.90381 0.41128 0.0
C1595 C 0.76198 0.90434 0.42891 0.0
C1596 C 0.78078 0.91726 0.40712 0.0
C1597 C 0.79206 0.91713 0.38978 0.0
C1598 C 0.80404 0.9056 0.38906 0.0
C1599 C 0.8145 0.90543 0.37254 0.0
C1600 C 0.81319 0.91682 0.35674 0.0
C1601 C 0.80143 0.92842 0.35746 0.0
C1602 C 0.79092 0.92863 0.37393 0.0
C1603 C 0.77474 0.95929 0.48691 0.0
C1604 C 0.77101 0.97394 0.47792 0.0
C1605 C 0.77446 0.94548 0.47392 0.0
C1606 C 0.77036 0.94614 0.45175 0.0
C1607 C 0.76676 0.96086 0.44277 0.0
C1608 C 0.76706 0.97466 0.45578 0.0
C1609 C 0.77017 0.93153 0.43781 0.0
C1610 C 0.77979 0.93098 0.42025 0.0
C1611 C 0.76109 0.91805 0.44216 0.0
C1612 C 0.75028 0.91811 0.46004 0.0
C1613 C 0.73839 0.92969 0.46146 0.0
C1614 C 0.72842 0.92984 0.47855 0.0
C1615 C 0.73015 0.91841 0.49425 0.0
C1616 C 0.74183 0.90678 0.49287 0.0
C1617 C 0.75184 0.90657 0.47581 0.0
H1618 H 0.7224 0.91854 0.50745 0.0
H1619 H 0.8213 0.91667 0.34396 0.0
H1620 H 0.17127 0.7687 0.32684 0.0
H1621 H 0.15037 0.76496 0.35207 0.0
H1622 H 0.14072 0.81507 0.35234 0.0
H1623 H 0.1612 0.81879 0.32678 0.0
H1624 H 0.14603 0.79867 0.3954 0.0
H1625 H 0.1159 0.7966 0.32598 0.0
H1626 H 0.11007 0.78587 0.28907 0.0
H1627 H 0.10352 0.73953 0.31353 0.0
H1628 H 0.10956 0.74997 0.35058 0.0
H1629 H 0.07689 0.80721 0.45115 0.0
H1630 H 0.09714 0.80874 0.42528 0.0
H1631 H 0.08978 0.75943 0.40741 0.0
H1632 H 0.06841 0.75817 0.43173 0.0
H1633 H 0.09418 0.77368 0.37346 0.0
H1634 H 0.12254 0.77397 0.4419 0.0
H1635 H 0.12959 0.78255 0.47947 0.0
H1636 H 0.14145 0.82882 0.45874 0.0
H1637 H 0.13426 0.82058 0.42106 0.0
C1638 C 0.16461 0.77886 0.33225 0.0
C1639 C 0.16771 0.794 0.32482 0.0
C1640 C 0.15272 0.77672 0.34659 0.0
C1641 C 0.14406 0.78976 0.35398 0.0
C1642 C 0.14729 0.80489 0.34677 0.0
C1643 C 0.1589 0.80697 0.33212 0.0
C1644 C 0.13165 0.78773 0.36939 0.0
C1645 C 0.13462 0.79334 0.39065 0.0
C1646 C 0.11705 0.78026 0.36325 0.0
C1647 C 0.11338 0.77402 0.341 0.0
C1648 C 0.11339 0.78409 0.32346 0.0
C1649 C 0.11 0.77807 0.30253 0.0
C1650 C 0.10648 0.76201 0.29895 0.0
C1651 C 0.10629 0.75196 0.31632 0.0
C1652 C 0.10968 0.75792 0.33729 0.0
C1653 C 0.07929 0.79673 0.44147 0.0
C1654 C 0.07093 0.78253 0.44377 0.0
C1655 C 0.09116 0.79755 0.4269 0.0
C1656 C 0.09535 0.78409 0.41471 0.0
C1657 C 0.08691 0.76997 0.41672 0.0
C1658 C 0.07479 0.76922 0.43093 0.0
C1659 C 0.10838 0.78481 0.39972 0.0
C1660 C 0.10558 0.77893 0.37845 0.0
C1661 C 0.12332 0.7917 0.40603 0.0
C1662 C 0.12773 0.79669 0.42867 0.0
C1663 C 0.12655 0.78601 0.44537 0.0
C1664 C 0.13058 0.79081 0.46668 0.0
C1665 C 0.13593 0.80623 0.4715 0.0
C1666 C 0.13729 0.81688 0.45499 0.0
C1667 C 0.13325 0.81215 0.43365 0.0
H1668 H 0.13904 0.80993 0.48801 0.0
H1669 H 0.10386 0.75737 0.28273 0.0
H1670 H 0.22636 0.15598 0.35484 0.0
H1671 H 0.23174 0.13392 0.37858 0.0
H1672 H 0.28009 0.14972 0.39035 0.0
H1673 H 0.2749 0.1717 0.36611 0.0
H1674 H 0.27826 0.11748 0.38476 0.0
H1675 H 0.25401 0.15784 0.4271 0.0
H1676 H 0.23367 0.17762 0.43553 0.0
H1677 H 0.19838 0.141 0.4341 0.0
H1678 H 0.21848 0.12103 0.42534 0.0
H1679 H 0.27065 0.07845 0.49618 0.0
H1680 H 0.26909 0.10149 0.47298 0.0
H1681 H 0.26102 0.0703 0.41718 0.0
H1682 H 0.26268 0.04731 0.44044 0.0
H1683 H 0.2449 0.11177 0.44689 0.0
H1684 H 0.27822 0.08677 0.37459 0.0
H1685 H 0.29975 0.0679 0.36772 0.0
H1686 H 0.31943 0.07566 0.4324 0.0
H1687 H 0.29819 0.09476 0.43954 0.0
C1688 C 0.23822 0.15465 0.36218 0.0
C1689 C 0.25021 0.16563 0.35856 0.0
C1690 C 0.24123 0.1421 0.37592 0.0
C1691 C 0.25626 0.14028 0.38644 0.0
C1692 C 0.26839 0.15094 0.38245 0.0
C1693 C 0.26538 0.16355 0.36872 0.0
C1694 C 0.25912 0.12745 0.402 0.0
C1695 C 0.27098 0.11622 0.39835 0.0
C1696 C 0.24983 0.12599 0.41998 0.0
C1697 C 0.23773 0.13796 0.42539 0.0
C1698 C 0.24189 0.15402 0.42843 0.0
C1699 C 0.23041 0.16526 0.43329 0.0
C1700 C 0.21473 0.16058 0.4353 0.0
C1701 C 0.21052 0.14462 0.43251 0.0
C1702 C 0.22196 0.13333 0.42762 0.0
C1703 C 0.26864 0.07662 0.47893 0.0
C1704 C 0.26682 0.06126 0.46993 0.0
C1705 C 0.2677 0.08972 0.46573 0.0
C1706 C 0.26506 0.08762 0.44333 0.0
C1707 C 0.26328 0.07219 0.43438 0.0
C1708 C 0.26417 0.05911 0.44759 0.0
C1709 C 0.26379 0.10156 0.42938 0.0
C1710 C 0.25221 0.11301 0.43333 0.0
C1711 C 0.27351 0.10334 0.41189 0.0
C1712 C 0.28652 0.09209 0.40764 0.0
C1713 C 0.28719 0.08451 0.38731 0.0
C1714 C 0.29934 0.07377 0.38337 0.0
C1715 C 0.31092 0.07055 0.39964 0.0
C1716 C 0.31042 0.07812 0.41984 0.0
C1717 C 0.29832 0.0889 0.42384 0.0
H1718 H 0.3203 0.06221 0.39657 0.0
H1719 H 0.20586 0.1693 0.43907 0.0
H1720 H 0.68597 0.75275 0.85318 0.0
H1721 H 0.66542 0.76115 0.87683 0.0
H1722 H 0.62939 0.74695 0.82796 0.0
H1723 H 0.64986 0.73952 0.80366 0.0
H1724 H 0.62008 0.7725 0.84776 0.0
H1725 H 0.64149 0.72273 0.8705 0.0
H1726 H 0.66244 0.704 0.88222 0.0
H1727 H 0.67477 0.73393 0.93771 0.0
H1728 H 0.65402 0.75295 0.92615 0.0
H1729 H 0.55712 0.75687 0.91601 0.0
H1730 H 0.57813 0.75494 0.89084 0.0
H1731 H 0.61086 0.77736 0.93818 0.0
H1732 H 0.58982 0.77991 0.96321 0.0
H1733 H 0.62216 0.74899 0.91987 0.0
H1734 H 0.59835 0.79783 0.89705 0.0
H1735 H 0.57626 0.81507 0.88482 0.0
H1736 H 0.56701 0.78484 0.82877 0.0
H1737 H 0.58891 0.76728 0.84082 0.0
C1738 C 0.6737 0.75177 0.84721 0.0
C1739 C 0.66962 0.74526 0.82653 0.0
C1740 C 0.66193 0.75639 0.8609 0.0
C1741 C 0.64583 0.75432 0.8544 0.0
C1742 C 0.64172 0.74854 0.83344 0.0
C1743 C 0.65347 0.74411 0.81963 0.0
C1744 C 0.6333 0.75747 0.8697 0.0
C1745 C 0.62048 0.76724 0.86345 0.0
C1746 C 0.63387 0.75078 0.89032 0.0
C1747 C 0.64632 0.73935 0.89734 0.0
C1748 C 0.64875 0.72537 0.88512 0.0
C1749 C 0.66058 0.7147 0.89174 0.0
C1750 C 0.66996 0.7178 0.91066 0.0
C1751 C 0.66751 0.73156 0.92303 0.0
C1752 C 0.65571 0.74229 0.91646 0.0
C1753 C 0.56868 0.76169 0.92097 0.0
C1754 C 0.57174 0.76851 0.94173 0.0
C1755 C 0.5807 0.76051 0.90657 0.0
C1756 C 0.59602 0.76604 0.91266 0.0
C1757 C 0.59911 0.77297 0.93323 0.0
C1758 C 0.58708 0.77431 0.94756 0.0
C1759 C 0.609 0.76397 0.89789 0.0
C1760 C 0.62186 0.75434 0.90425 0.0
C1761 C 0.60831 0.77057 0.87728 0.0
C1762 C 0.59519 0.78116 0.86994 0.0
C1763 C 0.59153 0.79478 0.88221 0.0
C1764 C 0.57905 0.80463 0.87529 0.0
C1765 C 0.57022 0.80103 0.85606 0.0
C1766 C 0.57386 0.7876 0.84367 0.0
C1767 C 0.58631 0.77771 0.85053 0.0
H1768 H 0.56056 0.80867 0.85073 0.0
H1769 H 0.67911 0.70952 0.91577 0.0
H1770 H 0.29106 0.67528 0.84281 0.0
H1771 H 0.29139 0.65051 0.86191 0.0
H1772 H 0.26612 0.67299 0.91264 0.0
H1773 H 0.26684 0.69803 0.89459 0.0
H1774 H 0.28825 0.65643 0.92998 0.0
H1775 H 0.24851 0.64581 0.87293 0.0
H1776 H 0.23744 0.64359 0.83539 0.0
H1777 H 0.27263 0.60888 0.82077 0.0
H1778 H 0.28405 0.61104 0.85818 0.0
H1779 H 0.26167 0.58812 0.98036 0.0
H1780 H 0.26244 0.61185 0.95891 0.0
H1781 H 0.29612 0.58924 0.91873 0.0
H1782 H 0.29535 0.56537 0.94013 0.0
H1783 H 0.27102 0.60506 0.89554 0.0
H1784 H 0.3096 0.61549 0.95441 0.0
H1785 H 0.31894 0.6174 0.99269 0.0
H1786 H 0.28359 0.65259 0.00451 0.0
H1787 H 0.27388 0.65073 0.96633 0.0
C1788 C 0.28567 0.67503 0.85811 0.0
C1789 C 0.2789 0.68878 0.86704 0.0
C1790 C 0.28567 0.66075 0.8689 0.0
C1791 C 0.2786 0.65976 0.88865 0.0
C1792 C 0.27164 0.67338 0.89743 0.0
C1793 C 0.27186 0.68771 0.88685 0.0
C1794 C 0.27887 0.64475 0.90063 0.0
C1795 C 0.28428 0.64527 0.92244 0.0
C1796 C 0.27407 0.63003 0.89079 0.0
C1797 C 0.26724 0.62872 0.86829 0.0
C1798 C 0.25397 0.6378 0.86166 0.0
C1799 C 0.24762 0.63653 0.84042 0.0
C1800 C 0.25436 0.62613 0.82569 0.0
C1801 C 0.26744 0.61695 0.83219 0.0
C1802 C 0.27385 0.61818 0.85342 0.0
C1803 C 0.26915 0.58816 0.96686 0.0
C1804 C 0.27845 0.57489 0.96191 0.0
C1805 C 0.26965 0.60175 0.95471 0.0
C1806 C 0.27941 0.60232 0.93733 0.0
C1807 C 0.28853 0.58903 0.93211 0.0
C1808 C 0.28816 0.57546 0.94441 0.0
C1809 C 0.28014 0.61691 0.92479 0.0
C1810 C 0.275 0.61627 0.90293 0.0
C1811 C 0.28496 0.63157 0.93463 0.0
C1812 C 0.29093 0.63287 0.95754 0.0
C1813 C 0.30374 0.62356 0.9652 0.0
C1814 C 0.30912 0.62465 0.98688 0.0
C1815 C 0.30184 0.63508 0.00103 0.0
C1816 C 0.28921 0.6445 0.99352 0.0
C1817 C 0.28378 0.64345 0.97186 0.0
H1818 H 0.30601 0.63589 0.01782 0.0
H1819 H 0.24942 0.62517 0.80925 0.0
H1820 H 0.34772 0.28908 0.88146 0.0
H1821 H 0.37557 0.28866 0.89461 0.0
H1822 H 0.36444 0.25576 0.94302 0.0
H1823 H 0.33666 0.25567 0.92958 0.0
H1824 H 0.38244 0.28189 0.95926 0.0
H1825 H 0.38319 0.24253 0.90167 0.0
H1826 H 0.37834 0.23235 0.86431 0.0
H1827 H 0.40852 0.26848 0.84218 0.0
H1828 H 0.41337 0.27902 0.87939 0.0
H1829 H 0.46024 0.2638 0.9982 0.0
H1830 H 0.43281 0.26237 0.98324 0.0
H1831 H 0.44607 0.28717 0.92748 0.0
H1832 H 0.47377 0.2875 0.94182 0.0
H1833 H 0.42664 0.26538 0.91481 0.0
H1834 H 0.42595 0.30533 0.97104 0.0
H1835 H 0.43078 0.31662 0.00785 0.0
H1836 H 0.40053 0.28138 0.03201 0.0
H1837 H 0.39567 0.26975 0.99535 0.0
C1838 C 0.35121 0.28149 0.89462 0.0
C1839 C 0.33989 0.27242 0.90447 0.0
C1840 C 0.36713 0.28135 0.90219 0.0
C1841 C 0.37204 0.27219 0.91978 0.0
C1842 C 0.36086 0.26299 0.9295 0.0
C1843 C 0.34497 0.26301 0.92183 0.0
C1844 C 0.38877 0.27252 0.92843 0.0
C1845 C 0.39212 0.2781 0.94967 0.0
C1846 C 0.40137 0.26802 0.91566 0.0
C1847 C 0.39852 0.26166 0.89329 0.0
C1848 C 0.38868 0.24839 0.88881 0.0
C1849 C 0.38596 0.24254 0.86767 0.0
C1850 C 0.39308 0.24979 0.85087 0.0
C1851 C 0.40299 0.26289 0.8552 0.0
C1852 C 0.40574 0.2688 0.87631 0.0
C1853 C 0.45723 0.26891 0.98273 0.0
C1854 C 0.46895 0.27606 0.97131 0.0
C1855 C 0.44155 0.26822 0.97427 0.0
C1856 C 0.43723 0.27505 0.95447 0.0
C1857 C 0.44905 0.28195 0.94287 0.0
C1858 C 0.46481 0.2823 0.95113 0.0
C1859 C 0.42044 0.2748 0.94575 0.0
C1860 C 0.41703 0.26923 0.92447 0.0
C1861 C 0.40778 0.27953 0.95841 0.0
C1862 C 0.41054 0.2866 0.98046 0.0
C1863 C 0.42039 0.29994 0.98421 0.0
C1864 C 0.42313 0.3064 0.00505 0.0
C1865 C 0.41597 0.29972 0.02225 0.0
C1866 C 0.40606 0.28655 0.01866 0.0
C1867 C 0.40329 0.28003 0.99785 0.0
H1868 H 0.41808 0.30477 0.03834 0.0
H1869 H 0.39096 0.24524 0.83452 0.0
H1870 H 0.72464 0.37249 0.85911 0.0
H1871 H 0.72809 0.39616 0.88235 0.0
H1872 H 0.7787 0.389 0.88644 0.0
H1873 H 0.77535 0.36525 0.863 0.0
H1874 H 0.76824 0.39594 0.92541 0.0
H1875 H 0.76224 0.41802 0.85568 0.0
H1876 H 0.74956 0.42206 0.81954 0.0
H1877 H 0.7076 0.4395 0.8477 0.0
H1878 H 0.71994 0.43535 0.88402 0.0
H1879 H 0.76851 0.48788 0.94854 0.0
H1880 H 0.76796 0.46499 0.92326 0.0
H1881 H 0.74787 0.43637 0.97096 0.0
H1882 H 0.74919 0.45907 0.99651 0.0
H1883 H 0.7455 0.44784 0.90475 0.0
H1884 H 0.75857 0.3985 0.96553 0.0
H1885 H 0.77251 0.39533 0.00113 0.0
H1886 H 0.80385 0.43358 0.98908 0.0
H1887 H 0.79023 0.43685 0.95332 0.0
C1888 C 0.73655 0.37607 0.86462 0.0
C1889 C 0.74973 0.36701 0.85902 0.0
C1890 C 0.73849 0.3896 0.878 0.0
C1891 C 0.75366 0.39446 0.88599 0.0
C1892 C 0.76687 0.38546 0.88049 0.0
C1893 C 0.76493 0.37189 0.8671 0.0
C1894 C 0.75565 0.40879 0.90039 0.0
C1895 C 0.76332 0.4073 0.92087 0.0
C1896 C 0.74942 0.42368 0.89439 0.0
C1897 C 0.74198 0.42625 0.87257 0.0
C1898 C 0.75026 0.42261 0.85416 0.0
C1899 C 0.74315 0.42493 0.83365 0.0
C1900 C 0.72778 0.431 0.83133 0.0
C1901 C 0.7195 0.43479 0.84952 0.0
C1902 C 0.72656 0.43247 0.87008 0.0
C1903 C 0.7641 0.47663 0.95357 0.0
C1904 C 0.75902 0.4751 0.97442 0.0
C1905 C 0.76371 0.4636 0.93914 0.0
C1906 C 0.7581 0.44885 0.94527 0.0
C1907 C 0.75261 0.44749 0.96599 0.0
C1908 C 0.75325 0.46045 0.98051 0.0
C1909 C 0.75789 0.43497 0.92994 0.0
C1910 C 0.75051 0.43651 0.90929 0.0
C1911 C 0.76465 0.42021 0.93565 0.0
C1912 C 0.7733 0.41798 0.95681 0.0
C1913 C 0.76851 0.40616 0.97042 0.0
C1914 C 0.77633 0.40437 0.99064 0.0
C1915 C 0.78903 0.41428 0.99738 0.0
C1916 C 0.79399 0.42594 0.98387 0.0
C1917 C 0.78621 0.42777 0.96362 0.0
H1918 H 0.79503 0.41291 0.01307 0.0
H1919 H 0.72229 0.43279 0.81543 0.0
H1920 H 0.67766 0.28626 0.17785 0.0
H1921 H 0.65069 0.28565 0.16134 0.0
H1922 H 0.66623 0.25623 0.10894 0.0
H1923 H 0.69319 0.25636 0.12563 0.0
H1924 H 0.64813 0.28212 0.09537 0.0
H1925 H 0.64522 0.24008 0.14546 0.0
H1926 H 0.64809 0.22819 0.18113 0.0
H1927 H 0.61524 0.262 0.2056 0.0
H1928 H 0.61234 0.27423 0.17013 0.0
H1929 H 0.57331 0.26354 0.04481 0.0
H1930 H 0.59983 0.26199 0.06273 0.0
H1931 H 0.58237 0.28409 0.12006 0.0
H1932 H 0.55557 0.28455 0.10251 0.0
H1933 H 0.60171 0.26209 0.13133 0.0
H1934 H 0.60447 0.3046 0.08247 0.0
H1935 H 0.60107 0.317 0.04717 0.0
H1936 H 0.63399 0.28397 0.02113 0.0
H1937 H 0.63742 0.27121 0.05621 0.0
C1938 C 0.67533 0.27937 0.16305 0.0
C1939 C 0.68765 0.27133 0.15311 0.0
C1940 C 0.6599 0.27913 0.15357 0.0
C1941 C 0.65647 0.27087 0.13395 0.0
C1942 C 0.66866 0.26273 0.12404 0.0
C1943 C 0.68407 0.26287 0.13358 0.0
C1944 C 0.64024 0.27106 0.12349 0.0
C1945 C 0.63799 0.27757 0.10308 0.0
C1946 C 0.62699 0.26554 0.13387 0.0
C1947 C 0.62869 0.25817 0.15519 0.0
C1948 C 0.63871 0.24506 0.15849 0.0
C1949 C 0.64032 0.23824 0.17867 0.0
C1950 C 0.63189 0.24436 0.19564 0.0
C1951 C 0.62179 0.25728 0.19245 0.0
C1952 C 0.62014 0.26416 0.17231 0.0
C1953 C 0.5752 0.26802 0.06126 0.0
C1954 C 0.56258 0.27445 0.07222 0.0
C1955 C 0.59035 0.26726 0.07144 0.0
C1956 C 0.59324 0.27333 0.09258 0.0
C1957 C 0.5805 0.27947 0.10369 0.0
C1958 C 0.56525 0.27988 0.09364 0.0
C1959 C 0.60951 0.27318 0.10312 0.0
C1960 C 0.61181 0.2667 0.12357 0.0
C1961 C 0.62279 0.27893 0.09289 0.0
C1962 C 0.6211 0.28687 0.07193 0.0
C1963 C 0.61094 0.29994 0.0692 0.0
C1964 C 0.609 0.30703 0.04922 0.0
C1965 C 0.61727 0.30125 0.0319 0.0
C1966 C 0.62757 0.28842 0.03456 0.0
C1967 C 0.62954 0.28127 0.05449 0.0
H1968 H 0.61572 0.30672 0.01643 0.0
H1969 H 0.63315 0.23906 0.21125 0.0
H1970 H 0.74873 0.66173 0.21234 0.0
H1971 H 0.75399 0.63822 0.1901 0.0
H1972 H 0.75067 0.66629 0.13335 0.0
H1973 H 0.74464 0.68967 0.1553 0.0
H1974 H 0.7345 0.63999 0.12618 0.0
H1975 H 0.78681 0.65284 0.15596 0.0
H1976 H 0.80743 0.65888 0.1848 0.0
H1977 H 0.80007 0.61353 0.21182 0.0
H1978 H 0.77925 0.6073 0.18329 0.0
H1979 H 0.76392 0.5829 0.05378 0.0
H1980 H 0.7625 0.60686 0.07695 0.0
H1981 H 0.76185 0.57791 0.13276 0.0
H1982 H 0.76345 0.55397 0.10949 0.0
H1983 H 0.7805 0.6045 0.14045 0.0
H1984 H 0.72806 0.59188 0.11067 0.0
H1985 H 0.708 0.58563 0.0812 0.0
H1986 H 0.71594 0.63077 0.05391 0.0
H1987 H 0.73628 0.63717 0.08302 0.0
C1988 C 0.74906 0.66291 0.19512 0.0
C1989 C 0.74628 0.67765 0.18566 0.0
C1990 C 0.75225 0.64947 0.18243 0.0
C1991 C 0.75291 0.65049 0.16004 0.0
C1992 C 0.75028 0.6652 0.15059 0.0
C1993 C 0.747 0.67861 0.16323 0.0
C1994 C 0.75574 0.63615 0.14632 0.0
C1995 C 0.7447 0.63238 0.12914 0.0
C1996 C 0.76882 0.62596 0.15045 0.0
C1997 C 0.78136 0.62967 0.1676 0.0
C1998 C 0.7895 0.6442 0.16814 0.0
C1999 C 0.80124 0.64765 0.18442 0.0
C2000 C 0.80502 0.63661 0.20016 0.0
C2001 C 0.79711 0.62208 0.19963 0.0
C2002 C 0.78535 0.61858 0.1834 0.0
C2003 C 0.76368 0.58177 0.07103 0.0
C2004 C 0.76377 0.56677 0.08002 0.0
C2005 C 0.76282 0.59538 0.08422 0.0
C2006 C 0.76188 0.59416 0.10656 0.0
C2007 C 0.76257 0.57912 0.11559 0.0
C2008 C 0.76344 0.5655 0.10237 0.0
C2009 C 0.75934 0.60848 0.12031 0.0
C2010 C 0.77036 0.61219 0.13751 0.0
C2011 C 0.74626 0.61864 0.1162 0.0
C2012 C 0.73379 0.61495 0.09893 0.0
C2013 C 0.7256 0.60044 0.09831 0.0
C2014 C 0.71418 0.59687 0.08167 0.0
C2015 C 0.71072 0.60778 0.06567 0.0
C2016 C 0.71865 0.62232 0.06631 0.0
C2017 C 0.73012 0.62593 0.08288 0.0
H2018 H 0.70188 0.605 0.05279 0.0
H2019 H 0.81412 0.63931 0.21275 0.0
H2020 H 0.3363 0.79082 0.12156 0.0
H2021 H 0.36269 0.7929 0.10782 0.0
H2022 H 0.37832 0.75297 0.14508 0.0
H2023 H 0.35201 0.75101 0.15912 0.0
H2024 H 0.40115 0.7745 0.14575 0.0
H2025 H 0.36687 0.7488 0.09109 0.0
H2026 H 0.34316 0.74578 0.06616 0.0
H2027 H 0.35547 0.78816 0.03473 0.0
H2028 H 0.37916 0.79154 0.05965 0.0
H2029 H 0.46696 0.75204 0.08476 0.0
H2030 H 0.44197 0.75286 0.10268 0.0
H2031 H 0.42803 0.79463 0.06822 0.0
H2032 H 0.4528 0.7937 0.04996 0.0
H2033 H 0.40458 0.77262 0.06649 0.0
H2034 H 0.43973 0.79746 0.121 0.0
H2035 H 0.46364 0.79957 0.14569 0.0
H2036 H 0.44994 0.75764 0.17708 0.0
H2037 H 0.42605 0.75515 0.15237 0.0
C2038 C 0.34541 0.78257 0.12693 0.0
C2039 C 0.34207 0.77069 0.1413 0.0
C2040 C 0.36046 0.78373 0.11904 0.0
C2041 C 0.3724 0.77288 0.12508 0.0
C2042 C 0.36929 0.76145 0.14015 0.0
C2043 C 0.35427 0.76037 0.1482 0.0
C2044 C 0.38791 0.77306 0.11507 0.0
C2045 C 0.40191 0.77392 0.12842 0.0
C2046 C 0.38891 0.77254 0.09244 0.0
C2047 C 0.3747 0.77051 0.07738 0.0
C2048 C 0.36446 0.75754 0.07896 0.0
C2049 C 0.35104 0.75575 0.06481 0.0
C2050 C 0.3478 0.76679 0.04889 0.0
C2051 C 0.35799 0.77962 0.04706 0.0
C2052 C 0.37142 0.78147 0.06119 0.0
C2053 C 0.45857 0.7614 0.08103 0.0
C2054 C 0.46188 0.77284 0.06601 0.0
C2055 C 0.44436 0.76193 0.0914 0.0
C2056 C 0.4332 0.77389 0.08692 0.0
C2057 C 0.4365 0.78534 0.07198 0.0
C2058 C 0.45072 0.78486 0.0617 0.0
C2059 C 0.41781 0.77413 0.09716 0.0
C2060 C 0.40382 0.77328 0.08382 0.0
C2061 C 0.41685 0.77454 0.11977 0.0
C2062 C 0.43118 0.77604 0.1347 0.0
C2063 C 0.44188 0.78862 0.13305 0.0
C2064 C 0.45542 0.78989 0.14708 0.0
C2065 C 0.45833 0.77872 0.16291 0.0
C2066 C 0.44768 0.76627 0.16479 0.0
C2067 C 0.43413 0.76493 0.15079 0.0
H2068 H 0.46882 0.77974 0.17376 0.0
H2069 H 0.3374 0.76539 0.03795 0.0
H2070 H 0.247 0.34525 0.17057 0.0
H2071 H 0.24658 0.37078 0.15314 0.0
H2072 H 0.29686 0.37586 0.16766 0.0
H2073 H 0.2976 0.3501 0.18431 0.0
H2074 H 0.27866 0.40447 0.17409 0.0
H2075 H 0.28628 0.36287 0.12063 0.0
H2076 H 0.27941 0.33779 0.10098 0.0
H2077 H 0.23416 0.35684 0.07994 0.0
H2078 H 0.24067 0.38197 0.09978 0.0
H2079 H 0.29744 0.46248 0.09988 0.0
H2080 H 0.29638 0.43906 0.12165 0.0
H2081 H 0.24928 0.42872 0.09412 0.0
H2082 H 0.25066 0.45146 0.07123 0.0
H2083 H 0.26511 0.4029 0.0954 0.0
H2084 H 0.25709 0.44475 0.147 0.0
H2085 H 0.26292 0.46981 0.16727 0.0
H2086 H 0.30715 0.45086 0.19252 0.0
H2087 H 0.30169 0.42574 0.17216 0.0
C2088 C 0.25799 0.35176 0.1701 0.0
C2089 C 0.27236 0.34546 0.17872 0.0
C2090 C 0.25769 0.36641 0.16025 0.0
C2091 C 0.27171 0.37512 0.15899 0.0
C2092 C 0.28591 0.36933 0.16856 0.0
C2093 C 0.28627 0.3546 0.17819 0.0
C2094 C 0.27179 0.38968 0.14634 0.0
C2095 C 0.27583 0.40417 0.15686 0.0
C2096 C 0.26776 0.38927 0.12397 0.0
C2097 C 0.26389 0.37423 0.11188 0.0
C2098 C 0.27481 0.36166 0.11197 0.0
C2099 C 0.27099 0.34744 0.10077 0.0
C2100 C 0.25634 0.3457 0.08927 0.0
C2101 C 0.24549 0.3582 0.08889 0.0
C2102 C 0.24924 0.37243 0.1001 0.0
C2103 C 0.2869 0.45516 0.09825 0.0
C2104 C 0.27413 0.45896 0.08374 0.0
C2105 C 0.28622 0.44187 0.11099 0.0
C2106 C 0.27264 0.43223 0.10985 0.0
C2107 C 0.25987 0.436 0.09542 0.0
C2108 C 0.26062 0.44915 0.08248 0.0
C2109 C 0.27192 0.4179 0.12308 0.0
C2110 C 0.26782 0.40336 0.11266 0.0
C2111 C 0.27573 0.41833 0.14559 0.0
C2112 C 0.27905 0.43341 0.15789 0.0
C2113 C 0.26812 0.44596 0.15675 0.0
C2114 C 0.27135 0.46017 0.16828 0.0
C2115 C 0.28542 0.46194 0.18113 0.0
C2116 C 0.29627 0.44948 0.18253 0.0
C2117 C 0.29311 0.43525 0.17102 0.0
H2118 H 0.28789 0.47295 0.19005 0.0
H2119 H 0.2534 0.33469 0.0806 0.0
H2120 H 0.33389 0.2882 0.13751 0.0
H2121 H 0.35886 0.28783 0.1199 0.0
H2122 H 0.3792 0.25728 0.1685 0.0
H2123 H 0.35416 0.25788 0.1865 0.0
H2124 H 0.39997 0.2792 0.15961 0.0
H2125 H 0.36659 0.24289 0.11758 0.0
H2126 H 0.34249 0.23376 0.09647 0.0
H2127 H 0.34889 0.26967 0.05051 0.0
H2128 H 0.3729 0.27918 0.07152 0.0
H2129 H 0.46565 0.25674 0.09808 0.0
H2130 H 0.44141 0.25609 0.11769 0.0
H2131 H 0.42006 0.29074 0.07556 0.0
H2132 H 0.44425 0.2914 0.05586 0.0
H2133 H 0.40023 0.26537 0.08162 0.0
H2134 H 0.4332 0.30205 0.12468 0.0
H2135 H 0.45746 0.31079 0.14574 0.0
H2136 H 0.45206 0.27324 0.18959 0.0
H2137 H 0.42787 0.26413 0.1686 0.0
C2138 C 0.34365 0.28131 0.14438 0.0
C2139 C 0.34202 0.27289 0.16322 0.0
C2140 C 0.35792 0.2811 0.13428 0.0
C2141 C 0.37083 0.27224 0.14259 0.0
C2142 C 0.36938 0.26412 0.16172 0.0
C2143 C 0.35509 0.26447 0.17199 0.0
C2144 C 0.38579 0.27157 0.13123 0.0
C2145 C 0.40005 0.27591 0.14264 0.0
C2146 C 0.38589 0.26756 0.10897 0.0
C2147 C 0.37147 0.26184 0.09625 0.0
C2148 C 0.36279 0.24892 0.10306 0.0
C2149 C 0.34915 0.24366 0.0911 0.0
C2150 C 0.34414 0.25115 0.07219 0.0
C2151 C 0.35278 0.26389 0.06517 0.0
C2152 C 0.36641 0.26921 0.0771 0.0
C2153 C 0.45576 0.26418 0.09299 0.0
C2154 C 0.45683 0.27417 0.07551 0.0
C2155 C 0.44198 0.26387 0.10427 0.0
C2156 C 0.429 0.27346 0.09817 0.0
C2157 C 0.42997 0.2833 0.08056 0.0
C2158 C 0.4438 0.28373 0.06942 0.0
C2159 C 0.41431 0.27311 0.10997 0.0
C2160 C 0.40011 0.26856 0.09862 0.0
C2161 C 0.4143 0.27683 0.13227 0.0
C2162 C 0.42882 0.2823 0.14493 0.0
C2163 C 0.43726 0.29556 0.1387 0.0
C2164 C 0.45099 0.3006 0.15065 0.0
C2165 C 0.45632 0.29254 0.16896 0.0
C2166 C 0.44792 0.27945 0.17538 0.0
C2167 C 0.4342 0.27435 0.16348 0.0
H2168 H 0.46695 0.29647 0.17819 0.0
H2169 H 0.33358 0.24706 0.06294 0.0
H2170 H 0.78261 0.35226 0.1876 0.0
H2171 H 0.78328 0.3791 0.17358 0.0
H2172 H 0.7333 0.37602 0.15535 0.0
H2173 H 0.7325 0.34936 0.16954 0.0
H2174 H 0.75447 0.38339 0.12142 0.0
H2175 H 0.74252 0.39953 0.19386 0.0
H2176 H 0.74723 0.40074 0.23333 0.0
H2177 H 0.79272 0.42214 0.22715 0.0
H2178 H 0.78837 0.42084 0.1876 0.0
H2179 H 0.73749 0.45796 0.08165 0.0
H2180 H 0.73711 0.43432 0.10288 0.0
H2181 H 0.78323 0.44628 0.13246 0.0
H2182 H 0.78329 0.47061 0.11224 0.0
H2183 H 0.76554 0.43432 0.16134 0.0
H2184 H 0.77898 0.4187 0.09074 0.0
H2185 H 0.7764 0.41704 0.05108 0.0
H2186 H 0.73139 0.39381 0.05314 0.0
H2187 H 0.73359 0.39551 0.09282 0.0
C2188 C 0.77174 0.35746 0.18094 0.0
C2189 C 0.7575 0.34879 0.17968 0.0
C2190 C 0.77213 0.37275 0.17301 0.0
C2191 C 0.75834 0.37946 0.16345 0.0
C2192 C 0.74404 0.37101 0.16274 0.0
C2193 C 0.74359 0.35586 0.17096 0.0
C2194 C 0.75903 0.39472 0.1526 0.0
C2195 C 0.75667 0.39457 0.13013 0.0
C2196 C 0.76258 0.40913 0.16399 0.0
C2197 C 0.76519 0.40992 0.18776 0.0
C2198 C 0.7536 0.40434 0.2009 0.0
C2199 C 0.75618 0.40508 0.22329 0.0
C2200 C 0.77029 0.41147 0.23274 0.0
C2201 C 0.78181 0.41717 0.21981 0.0
C2202 C 0.77929 0.41645 0.19741 0.0
C2203 C 0.74743 0.45582 0.093 0.0
C2204 C 0.76047 0.46622 0.09511 0.0
C2205 C 0.74728 0.44214 0.10494 0.0
C2206 C 0.7603 0.43833 0.11891 0.0
C2207 C 0.77311 0.44891 0.12164 0.0
C2208 C 0.77319 0.46274 0.10988 0.0
C2209 C 0.76065 0.42307 0.13008 0.0
C2210 C 0.76332 0.42316 0.15257 0.0
C2211 C 0.75773 0.4085 0.11866 0.0
C2212 C 0.75638 0.40736 0.09477 0.0
C2213 C 0.76847 0.41334 0.08274 0.0
C2214 C 0.76709 0.41237 0.06025 0.0
C2215 C 0.75372 0.40536 0.0496 0.0
C2216 C 0.74173 0.39925 0.06141 0.0
C2217 C 0.74305 0.4002 0.08391 0.0
H2218 H 0.75267 0.40464 0.03219 0.0
H2219 H 0.77226 0.41204 0.25008 0.0
H2220 H 0.65448 0.75946 0.20915 0.0
H2221 H 0.6299 0.7634 0.18707 0.0
H2222 H 0.65301 0.7472 0.13065 0.0
H2223 H 0.67748 0.74294 0.15256 0.0
H2224 H 0.63508 0.77359 0.12307 0.0
H2225 H 0.62897 0.72285 0.15537 0.0
H2226 H 0.62821 0.70481 0.18566 0.0
H2227 H 0.59021 0.7318 0.21115 0.0
H2228 H 0.5909 0.75014 0.18115 0.0
H2229 H 0.57335 0.75388 0.04751 0.0
H2230 H 0.59585 0.7519 0.07396 0.0
H2231 H 0.5663 0.76818 0.12421 0.0
H2232 H 0.54357 0.76981 0.0976 0.0
H2233 H 0.58627 0.7441 0.13746 0.0
H2234 H 0.59061 0.79343 0.10332 0.0
H2235 H 0.59084 0.81096 0.07245 0.0
H2236 H 0.63195 0.78702 0.05054 0.0
H2237 H 0.63178 0.76911 0.08104 0.0
C2238 C 0.65432 0.75667 0.19206 0.0
C2239 C 0.66799 0.75085 0.18267 0.0
C2240 C 0.64027 0.75897 0.17946 0.0
C2241 C 0.63959 0.75548 0.15724 0.0
C2242 C 0.65328 0.75003 0.14775 0.0
C2243 C 0.6673 0.74768 0.16032 0.0
C2244 C 0.62459 0.75718 0.14382 0.0
C2245 C 0.62444 0.76706 0.12612 0.0
C2246 C 0.61057 0.74901 0.14818 0.0
C2247 C 0.61011 0.73797 0.16617 0.0
C2248 C 0.62054 0.72501 0.16754 0.0
C2249 C 0.62011 0.71472 0.18463 0.0
C2250 C 0.6092 0.71719 0.20035 0.0
C2251 C 0.59867 0.72993 0.19898 0.0
C2252 C 0.59908 0.74027 0.18193 0.0
C2253 C 0.57164 0.75674 0.06428 0.0
C2254 C 0.55679 0.76182 0.0707 0.0
C2255 C 0.58448 0.75574 0.07933 0.0
C2256 C 0.5828 0.7601 0.101 0.0
C2257 C 0.56784 0.76478 0.10756 0.0
C2258 C 0.55491 0.76571 0.09245 0.0
C2259 C 0.59688 0.76026 0.11647 0.0
C2260 C 0.59685 0.75077 0.13455 0.0
C2261 C 0.61074 0.76884 0.11252 0.0
C2262 C 0.61112 0.77985 0.09442 0.0
C2263 C 0.59966 0.79184 0.09186 0.0
C2264 C 0.59977 0.80184 0.07442 0.0
C2265 C 0.61139 0.80009 0.05954 0.0
C2266 C 0.62295 0.78836 0.06209 0.0
C2267 C 0.62286 0.77828 0.07946 0.0
H2268 H 0.61146 0.80785 0.04604 0.0
H2269 H 0.60888 0.70921 0.21357 0.0
H2270 H 0.3048 0.68678 0.14901 0.0
H2271 H 0.30673 0.65937 0.13571 0.0
H2272 H 0.25579 0.65695 0.12602 0.0
H2273 H 0.25377 0.6844 0.13928 0.0
H2274 H 0.29621 0.63122 0.14714 0.0
H2275 H 0.24619 0.63635 0.07964 0.0
H2276 H 0.23376 0.65676 0.05666 0.0
H2277 H 0.27652 0.68437 0.06347 0.0
H2278 H 0.28925 0.66404 0.08622 0.0
H2279 H 0.27404 0.55509 0.10295 0.0
H2280 H 0.27539 0.58173 0.11981 0.0
H2281 H 0.29392 0.5998 0.06232 0.0
H2282 H 0.29192 0.57328 0.04525 0.0
H2283 H 0.27166 0.61816 0.07432 0.0
H2284 H 0.31732 0.59536 0.10986 0.0
H2285 H 0.3326 0.57561 0.13078 0.0
H2286 H 0.30392 0.5844 0.1844 0.0
H2287 H 0.28831 0.60406 0.16368 0.0
C2288 C 0.29399 0.68033 0.1444 0.0
C2289 C 0.27913 0.68778 0.14505 0.0
C2290 C 0.29512 0.66468 0.13677 0.0
C2291 C 0.28143 0.6562 0.1296 0.0
C2292 C 0.26653 0.66338 0.13111 0.0
C2293 C 0.26539 0.67905 0.13865 0.0
C2294 C 0.28277 0.64015 0.11961 0.0
C2295 C 0.29083 0.62832 0.13124 0.0
C2296 C 0.27612 0.6365 0.09863 0.0
C2297 C 0.2686 0.64875 0.08483 0.0
C2298 C 0.25294 0.64676 0.07617 0.0
C2299 C 0.24585 0.65831 0.0632 0.0
C2300 C 0.25433 0.67188 0.05867 0.0
C2301 C 0.26994 0.67389 0.06705 0.0
C2302 C 0.27709 0.66236 0.08001 0.0
C2303 C 0.27844 0.56481 0.09407 0.0
C2304 C 0.28273 0.56234 0.07284 0.0
C2305 C 0.27933 0.57996 0.1037 0.0
C2306 C 0.28485 0.59277 0.09238 0.0
C2307 C 0.28958 0.59013 0.07134 0.0
C2308 C 0.28851 0.57502 0.06164 0.0
C2309 C 0.2849 0.60907 0.10196 0.0
C2310 C 0.27706 0.62098 0.09024 0.0
C2311 C 0.29215 0.61286 0.12259 0.0
C2312 C 0.30155 0.60109 0.13514 0.0
C2313 C 0.31419 0.593 0.12605 0.0
C2314 C 0.32293 0.58183 0.13788 0.0
C2315 C 0.31921 0.57872 0.15889 0.0
C2316 C 0.30678 0.58681 0.16812 0.0
C2317 C 0.29799 0.59798 0.15634 0.0
H2318 H 0.32599 0.57007 0.16802 0.0
H2319 H 0.24881 0.68081 0.04863 0.0
H2320 H 0.33865 0.75901 0.91071 0.0
H2321 H 0.36445 0.76279 0.93007 0.0
H2322 H 0.38169 0.78614 0.87553 0.0
H2323 H 0.35583 0.78254 0.85608 0.0
H2324 H 0.40198 0.76354 0.89017 0.0
H2325 H 0.37344 0.80704 0.92145 0.0
H2326 H 0.35145 0.81946 0.94 0.0
H2327 H 0.36184 0.79064 0.99464 0.0
H2328 H 0.38376 0.77789 0.97631 0.0
H2329 H 0.47542 0.78846 0.93847 0.0
H2330 H 0.4485 0.78926 0.92153 0.0
H2331 H 0.43057 0.76768 0.97706 0.0
H2332 H 0.45751 0.76744 0.99431 0.0
H2333 H 0.41046 0.78987 0.96228 0.0
H2334 H 0.43779 0.74582 0.93229 0.0
H2335 H 0.45962 0.73223 0.91484 0.0
H2336 H 0.45102 0.7601 0.85885 0.0
H2337 H 0.4293 0.77408 0.87614 0.0
C2338 C 0.34782 0.76523 0.90296 0.0
C2339 C 0.34514 0.77051 0.88184 0.0
C2340 C 0.36259 0.76735 0.91405 0.0
C2341 C 0.37497 0.77485 0.90432 0.0
C2342 C 0.37231 0.78029 0.88334 0.0
C2343 C 0.35753 0.77819 0.87223 0.0
C2344 C 0.39092 0.77637 0.91562 0.0
C2345 C 0.40387 0.76954 0.90577 0.0
C2346 C 0.39329 0.78369 0.93633 0.0
C2347 C 0.38016 0.79141 0.94742 0.0
C2348 C 0.37096 0.80326 0.93735 0.0
C2349 C 0.35852 0.81038 0.94785 0.0
C2350 C 0.35523 0.80582 0.96847 0.0
C2351 C 0.36439 0.79415 0.97867 0.0
C2352 C 0.37684 0.78699 0.96824 0.0
C2353 C 0.46564 0.78429 0.94722 0.0
C2354 C 0.46836 0.77817 0.96779 0.0
C2355 C 0.45032 0.78458 0.93748 0.0
C2356 C 0.43753 0.77836 0.94792 0.0
C2357 C 0.44023 0.77258 0.96873 0.0
C2358 C 0.45556 0.77241 0.97854 0.0
C2359 C 0.42153 0.77719 0.93671 0.0
C2360 C 0.40857 0.78398 0.94661 0.0
C2361 C 0.41908 0.76963 0.91616 0.0
C2362 C 0.43201 0.76111 0.9056 0.0
C2363 C 0.44062 0.74913 0.91632 0.0
C2364 C 0.45297 0.74135 0.90645 0.0
C2365 C 0.45673 0.74532 0.88576 0.0
C2366 C 0.44811 0.75706 0.87489 0.0
C2367 C 0.43577 0.76491 0.88471 0.0
H2368 H 0.46629 0.73929 0.87815 0.0
H2369 H 0.34559 0.81134 0.97656 0.0
H2370 H 0.26445 0.35577 0.86609 0.0
H2371 H 0.26391 0.38361 0.8782 0.0
H2372 H 0.25903 0.36938 0.94334 0.0
H2373 H 0.2598 0.34163 0.93151 0.0
H2374 H 0.2398 0.3944 0.93295 0.0
H2375 H 0.2947 0.37935 0.92703 0.0
H2376 H 0.31741 0.36902 0.90792 0.0
H2377 H 0.31158 0.40599 0.86234 0.0
H2378 H 0.28867 0.41641 0.88103 0.0
H2379 H 0.26721 0.45882 0.99885 0.0
H2380 H 0.26392 0.43297 0.98009 0.0
H2381 H 0.27089 0.45478 0.91962 0.0
H2382 H 0.27441 0.48066 0.9386 0.0
H2383 H 0.28729 0.42736 0.92337 0.0
H2384 H 0.23429 0.44436 0.932 0.0
H2385 H 0.21209 0.45501 0.95184 0.0
H2386 H 0.21419 0.41471 0.99222 0.0
H2387 H 0.23661 0.40395 0.97289 0.0
C2388 C 0.26324 0.35858 0.88299 0.0
C2389 C 0.26224 0.34646 0.89785 0.0
C2390 C 0.26288 0.37448 0.88985 0.0
C2391 C 0.26158 0.37853 0.91169 0.0
C2392 C 0.25999 0.3665 0.9264 0.0
C2393 C 0.26036 0.35063 0.91958 0.0
C2394 C 0.26265 0.39525 0.91956 0.0
C2395 C 0.2502 0.40159 0.93096 0.0
C2396 C 0.27606 0.40475 0.91644 0.0
C2397 C 0.28986 0.39854 0.90527 0.0
C2398 C 0.29818 0.3852 0.91283 0.0
C2399 C 0.3111 0.37934 0.90209 0.0
C2400 C 0.3159 0.38681 0.88389 0.0
C2401 C 0.30782 0.40019 0.87642 0.0
C2402 C 0.29488 0.40608 0.88708 0.0
C2403 C 0.26804 0.45799 0.98156 0.0
C2404 C 0.27102 0.47152 0.97002 0.0
C2405 C 0.2661 0.44332 0.97086 0.0
C2406 C 0.26693 0.44201 0.94842 0.0
C2407 C 0.27015 0.45556 0.93692 0.0
C2408 C 0.27213 0.47026 0.94767 0.0
C2409 C 0.26456 0.42642 0.93714 0.0
C2410 C 0.27676 0.42027 0.92509 0.0
C2411 C 0.25091 0.41712 0.93964 0.0
C2412 C 0.23722 0.4234 0.95106 0.0
C2413 C 0.23009 0.43781 0.94519 0.0
C2414 C 0.21746 0.44387 0.95635 0.0
C2415 C 0.21175 0.43555 0.97329 0.0
C2416 C 0.21863 0.42114 0.97909 0.0
C2417 C 0.23129 0.41505 0.96802 0.0
H2418 H 0.20197 0.44027 0.98191 0.0
H2419 H 0.32591 0.38226 0.8756 0.0
H2420 H 0.69285 0.30299 0.89113 0.0
H2421 H 0.67012 0.29887 0.91264 0.0
H2422 H 0.64884 0.26804 0.86238 0.0
H2423 H 0.67154 0.27231 0.84062 0.0
H2424 H 0.62763 0.28806 0.87605 0.0
H2425 H 0.66556 0.25364 0.91045 0.0
H2426 H 0.69124 0.2461 0.92815 0.0
H2427 H 0.68492 0.28054 0.97904 0.0
H2428 H 0.65929 0.28845 0.96149 0.0
H2429 H 0.56678 0.26025 0.93938 0.0
H2430 H 0.59027 0.26124 0.91834 0.0
H2431 H 0.61153 0.29577 0.96378 0.0
H2432 H 0.58816 0.29467 0.98504 0.0
H2433 H 0.6326 0.27259 0.95235 0.0
H2434 H 0.59515 0.30754 0.91687 0.0
H2435 H 0.56941 0.31486 0.89913 0.0
H2436 H 0.57488 0.27874 0.85014 0.0
H2437 H 0.60057 0.27105 0.86777 0.0
C2438 C 0.68346 0.29512 0.8848 0.0
C2439 C 0.68403 0.28789 0.86423 0.0
C2440 C 0.67045 0.29277 0.89712 0.0
C2441 C 0.65784 0.28297 0.88928 0.0
C2442 C 0.65843 0.27565 0.86879 0.0
C2443 C 0.67139 0.27809 0.85637 0.0
C2444 C 0.64377 0.28092 0.90211 0.0
C2445 C 0.62872 0.28439 0.89261 0.0
C2446 C 0.64517 0.27649 0.9239 0.0
C2447 C 0.66056 0.27173 0.93454 0.0
C2448 C 0.6697 0.25969 0.92533 0.0
C2449 C 0.68424 0.25534 0.93535 0.0
C2450 C 0.68973 0.26286 0.95468 0.0
C2451 C 0.68066 0.27473 0.96406 0.0
C2452 C 0.66612 0.27914 0.95409 0.0
C2453 C 0.57651 0.26796 0.94495 0.0
C2454 C 0.5756 0.27745 0.96378 0.0
C2455 C 0.58987 0.2686 0.93286 0.0
C2456 C 0.60257 0.2787 0.93939 0.0
C2457 C 0.60184 0.28794 0.95842 0.0
C2458 C 0.58844 0.28739 0.97044 0.0
C2459 C 0.61656 0.27976 0.92626 0.0
C2460 C 0.63156 0.27613 0.93573 0.0
C2461 C 0.61512 0.28398 0.90442 0.0
C2462 C 0.5997 0.28861 0.89377 0.0
C2463 C 0.5908 0.30107 0.90241 0.0
C2464 C 0.57623 0.3053 0.89236 0.0
C2465 C 0.57049 0.29724 0.87355 0.0
C2466 C 0.57933 0.28496 0.86473 0.0
C2467 C 0.5939 0.28066 0.87473 0.0
H2468 H 0.55921 0.30054 0.86579 0.0
H2469 H 0.70099 0.25947 0.96242 0.0
H2470 H 0.76261 0.67783 0.84772 0.0
H2471 H 0.76835 0.65676 0.8731 0.0
H2472 H 0.72924 0.62941 0.84371 0.0
H2473 H 0.72304 0.65063 0.81893 0.0
H2474 H 0.72813 0.63064 0.88607 0.0
H2475 H 0.76813 0.61941 0.83622 0.0
H2476 H 0.7908 0.62545 0.81478 0.0
H2477 H 0.81923 0.63717 0.8726 0.0
H2478 H 0.79665 0.6314 0.89439 0.0
H2479 H 0.74223 0.55782 0.93501 0.0
H2480 H 0.74024 0.57808 0.90786 0.0
H2481 H 0.77741 0.60493 0.94278 0.0
H2482 H 0.77938 0.58475 0.97022 0.0
H2483 H 0.78031 0.60443 0.89853 0.0
H2484 H 0.74036 0.61561 0.94824 0.0
H2485 H 0.71778 0.60933 0.96972 0.0
H2486 H 0.68927 0.59775 0.91192 0.0
H2487 H 0.71177 0.60373 0.89009 0.0
C2488 C 0.75524 0.66732 0.84665 0.0
C2489 C 0.74236 0.66593 0.83127 0.0
C2490 C 0.75863 0.65522 0.86104 0.0
C2491 C 0.74929 0.64145 0.8602 0.0
C2492 C 0.73663 0.63991 0.84462 0.0
C2493 C 0.7332 0.652 0.83031 0.0
C2494 C 0.7521 0.629 0.87626 0.0
C2495 C 0.73949 0.62476 0.88855 0.0
C2496 C 0.76705 0.62167 0.87998 0.0
C2497 C 0.78065 0.62513 0.86692 0.0
C2498 C 0.77917 0.6234 0.84435 0.0
C2499 C 0.79202 0.62675 0.83214 0.0
C2500 C 0.80644 0.63174 0.84232 0.0
C2501 C 0.80805 0.63334 0.86474 0.0
C2502 C 0.79524 0.63001 0.87703 0.0
C2503 C 0.74997 0.56805 0.93696 0.0
C2504 C 0.76083 0.56978 0.95491 0.0
C2505 C 0.74886 0.57957 0.92138 0.0
C2506 C 0.75853 0.59309 0.92349 0.0
C2507 C 0.76984 0.59457 0.94089 0.0
C2508 C 0.77096 0.58303 0.95652 0.0
C2509 C 0.75627 0.60596 0.90799 0.0
C2510 C 0.76897 0.61033 0.89596 0.0
C2511 C 0.7414 0.61344 0.90446 0.0
C2512 C 0.7278 0.60998 0.91754 0.0
C2513 C 0.72931 0.61161 0.94011 0.0
C2514 C 0.71652 0.60812 0.95235 0.0
C2515 C 0.70211 0.60311 0.94219 0.0
C2516 C 0.70044 0.60162 0.91977 0.0
C2517 C 0.71321 0.60507 0.90745 0.0
H2518 H 0.69222 0.60042 0.9517 0.0
H2519 H 0.81637 0.63432 0.83283 0.0
loop_
_geom_bond_atom_site_label_1
_geom_bond_atom_site_label_2
_geom_bond_distance
_geom_bond_site_symmetry_2
_ccdc_geom_bond_type
H0 C27 0.929 . S
N1 C26 1.433 . S
N1 C32 1.435 . S
N1 C38 1.423 . S
H2 C28 0.930 . S
H3 C31 0.931 . S
H4 C30 0.929 . S
H5 C33 0.930 . S
H6 C34 0.932 . S
H7 C37 0.929 . S
H8 C36 0.931 . S
H9 C39 0.929 . S
H10 C43 0.932 . S
H11 C40 0.931 . S
H12 C42 0.929 . S
H13 C45 0.929 . S
H14 C46 0.930 . S
H15 C48 0.929 . S
H16 C49 0.931 . S
H17 C51 0.930 . S
H18 C52 0.932 . S
H19 C54 0.931 . S
H20 C55 0.929 . S
H21 C57 0.929 . S
H22 C58 0.931 . S
H23 C60 0.929 . S
N24 C44 1.433 . S
N24 C50 1.435 . S
N24 C56 1.423 . S
H25 C61 0.932 . S
C26 N1 1.433 . S
C26 C27 1.363 . S
C26 C31 1.370 . S
C27 H0 0.929 . S
C27 C26 1.363 . S
C27 C28 1.385 . S
C28 H2 0.930 . S
C28 C27 1.385 . S
C28 C29 1.357 . S
C29 C28 1.357 . S
C29 C30 1.406 . S
C30 H4 0.929 . S
C30 C29 1.406 . S
C30 C31 1.391 . S
C31 H3 0.931 . S
C31 C26 1.370 . S
C31 C30 1.391 . S
C32 N1 1.435 . S
C32 C33 1.358 . S
C32 C37 1.371 . S
C33 H5 0.930 . S
C33 C32 1.358 . S
C33 C34 1.405 . S
C34 H6 0.932 . S
C34 C33 1.405 . S
C34 C35 1.383 . S
C35 C34 1.383 . S
C35 C36 1.393 . S
C36 H8 0.931 . S
C36 C35 1.393 . S
C36 C37 1.382 . S
C37 H7 0.929 . S
C37 C32 1.371 . S
C37 C36 1.382 . S
C38 N1 1.423 . S
C38 C39 1.362 . S
C38 C43 1.388 . S
C39 H9 0.929 . S
C39 C38 1.362 . S
C39 C40 1.376 . S
C40 H11 0.931 . S
C40 C39 1.376 . S
C40 C41 1.396 . S
C41 C40 1.396 . S
C41 C42 1.348 . S
C41 C59 1.472 . S
C42 H12 0.929 . S
C42 C41 1.348 . S
C42 C43 1.443 . S
C43 H10 0.932 . S
C43 C38 1.388 . S
C43 C42 1.443 . S
C44 N24 1.433 . S
C44 C45 1.363 . S
C44 C49 1.370 . S
C45 H13 0.929 . S
C45 C44 1.363 . S
C45 C46 1.385 . S
C46 H14 0.930 . S
C46 C45 1.385 . S
C46 C47 1.357 . S
C47 C46 1.357 . S
C47 C48 1.406 . S
C48 H15 0.929 . S
C48 C47 1.406 . S
C48 C49 1.391 . S
C49 H16 0.931 . S
C49 C44 1.370 . S
C49 C48 1.391 . S
C50 N24 1.435 . S
C50 C51 1.358 . S
C50 C55 1.371 . S
C51 H17 0.930 . S
C51 C50 1.358 . S
C51 C52 1.405 . S
C52 H18 0.932 . S
C52 C51 1.405 . S
C52 C53 1.383 . S
C53 C52 1.383 . S
C53 C54 1.393 . S
C54 H19 0.931 . S
C54 C53 1.393 . S
C54 C55 1.382 . S
C55 H20 0.929 . S
C55 C50 1.371 . S
C55 C54 1.382 . S
C56 N24 1.423 . S
C56 C57 1.362 . S
C56 C61 1.388 . S
C57 H21 0.929 . S
C57 C56 1.362 . S
C57 C58 1.376 . S
C58 H22 0.931 . S
C58 C57 1.376 . S
C58 C59 1.396 . S
C59 C41 1.472 . S
C59 C58 1.396 . S
C59 C60 1.348 . S
C60 H23 0.929 . S
C60 C59 1.348 . S
C60 C61 1.443 . S
C61 H25 0.932 . S
C61 C56 1.388 . S
C61 C60 1.443 . S
H62 C89 0.929 . S
N63 C88 1.433 . S
N63 C94 1.435 . S
N63 C100 1.423 . S
H64 C90 0.930 . S
H65 C93 0.931 . S
H66 C92 0.929 . S
H67 C95 0.930 . S
H68 C96 0.932 . S
H69 C99 0.929 . S
H70 C98 0.931 . S
H71 C101 0.929 . S
H72 C105 0.932 . S
H73 C102 0.931 . S
H74 C104 0.929 . S
H75 C107 0.929 . S
H76 C108 0.930 . S
H77 C110 0.929 . S
H78 C111 0.931 . S
H79 C113 0.930 . S
H80 C114 0.932 . S
H81 C116 0.931 . S
H82 C117 0.929 . S
H83 C119 0.929 . S
H84 C120 0.931 . S
H85 C122 0.929 . S
N86 C106 1.433 . S
N86 C112 1.435 . S
N86 C118 1.423 . S
H87 C123 0.932 . S
C88 N63 1.433 . S
C88 C89 1.363 . S
C88 C93 1.370 . S
C89 H62 0.929 . S
C89 C88 1.363 . S
C89 C90 1.385 . S
C90 H64 0.930 . S
C90 C89 1.385 . S
C90 C91 1.357 . S
C91 C90 1.357 . S
C91 C92 1.406 . S
C92 H66 0.929 . S
C92 C91 1.406 . S
C92 C93 1.391 . S
C93 H65 0.931 . S
C93 C88 1.370 . S
C93 C92 1.391 . S
C94 N63 1.435 . S
C94 C95 1.358 . S
C94 C99 1.371 . S
C95 H67 0.930 . S
C95 C94 1.358 . S
C95 C96 1.405 . S
C96 H68 0.932 . S
C96 C95 1.405 . S
C96 C97 1.383 . S
C97 C96 1.383 . S
C97 C98 1.393 . S
C98 H70 0.931 . S
C98 C97 1.393 . S
C98 C99 1.382 . S
C99 H69 0.929 . S
C99 C94 1.371 . S
C99 C98 1.382 . S
C100 N63 1.423 . S
C100 C101 1.362 . S
C100 C105 1.388 . S
C101 H71 0.929 . S
C101 C100 1.362 . S
C101 C102 1.376 . S
C102 H73 0.931 . S
C102 C101 1.376 . S
C102 C103 1.396 . S
C103 C102 1.396 . S
C103 C104 1.348 . S
C103 C121 1.472 . S
C104 H74 0.929 . S
C104 C103 1.348 . S
C104 C105 1.443 . S
C105 H72 0.932 . S
C105 C100 1.388 . S
C105 C104 1.443 . S
C106 N86 1.433 . S
C106 C107 1.363 . S
C106 C111 1.370 . S
C107 H75 0.929 . S
C107 C106 1.363 . S
C107 C108 1.385 . S
C108 H76 0.930 . S
C108 C107 1.385 . S
C108 C109 1.357 . S
C109 C108 1.357 . S
C109 C110 1.406 . S
C110 H77 0.929 . S
C110 C109 1.406 . S
C110 C111 1.391 . S
C111 H78 0.931 . S
C111 C106 1.370 . S
C111 C110 1.391 . S
C112 N86 1.435 . S
C112 C113 1.358 . S
C112 C117 1.371 . S
C113 H79 0.930 . S
C113 C112 1.358 . S
C113 C114 1.405 . S
C114 H80 0.932 . S
C114 C113 1.405 . S
C114 C115 1.383 . S
C115 C114 1.383 . S
C115 C116 1.393 . S
C116 H81 0.931 . S
C116 C115 1.393 . S
C116 C117 1.382 . S
C117 H82 0.929 . S
C117 C112 1.371 . S
C117 C116 1.382 . S
C118 N86 1.423 . S
C118 C119 1.362 . S
C118 C123 1.388 . S
C119 H83 0.929 . S
C119 C118 1.362 . S
C119 C120 1.376 . S
C120 H84 0.931 . S
C120 C119 1.376 . S
C120 C121 1.396 . S
C121 C103 1.472 . S
C121 C120 1.396 . S
C121 C122 1.348 . S
C122 H85 0.929 . S
C122 C121 1.348 . S
C122 C123 1.443 . S
C123 H87 0.932 . S
C123 C118 1.388 . S
C123 C122 1.443 . S
H124 C151 0.929 . S
N125 C150 1.433 . S
N125 C156 1.435 . S
N125 C162 1.423 . S
H126 C152 0.930 . S
H127 C155 0.931 . S
H128 C154 0.929 . S
H129 C157 0.930 . S
H130 C158 0.932 . S
H131 C161 0.929 . S
H132 C160 0.931 . S
H133 C163 0.929 . S
H134 C167 0.932 . S
H135 C164 0.931 . S
H136 C166 0.929 . S
H137 C169 0.929 . S
H138 C170 0.930 . S
H139 C172 0.929 . S
H140 C173 0.931 . S
H141 C175 0.930 . S
H142 C176 0.932 . S
H143 C178 0.931 . S
H144 C179 0.929 . S
H145 C181 0.929 . S
H146 C182 0.931 . S
H147 C184 0.929 . S
N148 C168 1.433 . S
N148 C174 1.435 . S
N148 C180 1.423 . S
H149 C185 0.932 . S
C150 N125 1.433 . S
C150 C151 1.363 . S
C150 C155 1.370 . S
C151 H124 0.929 . S
C151 C150 1.363 . S
C151 C152 1.385 . S
C152 H126 0.930 . S
C152 C151 1.385 . S
C152 C153 1.357 . S
C153 C152 1.357 . S
C153 C154 1.406 . S
C154 H128 0.929 . S
C154 C153 1.406 . S
C154 C155 1.391 . S
C155 H127 0.931 . S
C155 C150 1.370 . S
C155 C154 1.391 . S
C156 N125 1.435 . S
C156 C157 1.358 . S
C156 C161 1.371 . S
C157 H129 0.930 . S
C157 C156 1.358 . S
C157 C158 1.405 . S
C158 H130 0.932 . S
C158 C157 1.405 . S
C158 C159 1.383 . S
C159 C158 1.383 . S
C159 C160 1.393 . S
C160 H132 0.931 . S
C160 C159 1.393 . S
C160 C161 1.382 . S
C161 H131 0.929 . S
C161 C156 1.371 . S
C161 C160 1.382 . S
C162 N125 1.423 . S
C162 C163 1.362 . S
C162 C167 1.388 . S
C163 H133 0.929 . S
C163 C162 1.362 . S
C163 C164 1.376 . S
C164 H135 0.931 . S
C164 C163 1.376 . S
C164 C165 1.396 . S
C165 C164 1.396 . S
C165 C166 1.348 . S
C165 C183 1.472 . S
C166 H136 0.929 . S
C166 C165 1.348 . S
C166 C167 1.443 . S
C167 H134 0.932 . S
C167 C162 1.388 . S
C167 C166 1.443 . S
C168 N148 1.433 . S
C168 C169 1.363 . S
C168 C173 1.370 . S
C169 H137 0.929 . S
C169 C168 1.363 . S
C169 C170 1.385 . S
C170 H138 0.930 . S
C170 C169 1.385 . S
C170 C171 1.357 . S
C171 C170 1.357 . S
C171 C172 1.406 . S
C172 H139 0.929 . S
C172 C171 1.406 . S
C172 C173 1.391 . S
C173 H140 0.931 . S
C173 C168 1.370 . S
C173 C172 1.391 . S
C174 N148 1.435 . S
C174 C175 1.358 . S
C174 C179 1.371 . S
C175 H141 0.930 . S
C175 C174 1.358 . S
C175 C176 1.405 . S
C176 H142 0.932 . S
C176 C175 1.405 . S
C176 C177 1.383 . S
C177 C176 1.383 . S
C177 C178 1.393 . S
C178 H143 0.931 . S
C178 C177 1.393 . S
C178 C179 1.382 . S
C179 H144 0.929 . S
C179 C174 1.371 . S
C179 C178 1.382 . S
C180 N148 1.423 . S
C180 C181 1.362 . S
C180 C185 1.388 . S
C181 H145 0.929 . S
C181 C180 1.362 . S
C181 C182 1.376 . S
C182 H146 0.931 . S
C182 C181 1.376 . S
C182 C183 1.396 . S
C183 C165 1.472 . S
C183 C182 1.396 . S
C183 C184 1.348 . S
C184 H147 0.929 . S
C184 C183 1.348 . S
C184 C185 1.443 . S
C185 H149 0.932 . S
C185 C180 1.388 . S
C185 C184 1.443 . S
H186 C213 0.929 . S
N187 C212 1.433 . S
N187 C218 1.435 . S
N187 C224 1.423 . S
H188 C214 0.930 . S
H189 C217 0.931 . S
H190 C216 0.929 . S
H191 C219 0.930 . S
H192 C220 0.932 . S
H193 C223 0.929 . S
H194 C222 0.931 . S
H195 C225 0.929 . S
H196 C229 0.932 . S
H197 C226 0.931 . S
H198 C228 0.929 . S
H199 C231 0.929 . S
H200 C232 0.930 . S
H201 C234 0.929 . S
H202 C235 0.931 . S
H203 C237 0.930 . S
H204 C238 0.932 . S
H205 C240 0.931 . S
H206 C241 0.929 . S
H207 C243 0.929 . S
H208 C244 0.931 . S
H209 C246 0.929 . S
N210 C230 1.433 . S
N210 C236 1.435 . S
N210 C242 1.423 . S
H211 C247 0.932 . S
C212 N187 1.433 . S
C212 C213 1.363 . S
C212 C217 1.370 . S
C213 H186 0.929 . S
C213 C212 1.363 . S
C213 C214 1.385 . S
C214 H188 0.930 . S
C214 C213 1.385 . S
C214 C215 1.357 . S
C215 C214 1.357 . S
C215 C216 1.406 . S
C216 H190 0.929 . S
C216 C215 1.406 . S
C216 C217 1.391 . S
C217 H189 0.931 . S
C217 C212 1.370 . S
C217 C216 1.391 . S
C218 N187 1.435 . S
C218 C219 1.358 . S
C218 C223 1.371 . S
C219 H191 0.930 . S
C219 C218 1.358 . S
C219 C220 1.405 . S
C220 H192 0.932 . S
C220 C219 1.405 . S
C220 C221 1.383 . S
C221 C220 1.383 . S
C221 C222 1.393 . S
C222 H194 0.931 . S
C222 C221 1.393 . S
C222 C223 1.382 . S
C223 H193 0.929 . S
C223 C218 1.371 . S
C223 C222 1.382 . S
C224 N187 1.423 . S
C224 C225 1.362 . S
C224 C229 1.388 . S
C225 H195 0.929 . S
C225 C224 1.362 . S
C225 C226 1.376 . S
C226 H197 0.931 . S
C226 C225 1.376 . S
C226 C227 1.396 . S
C227 C226 1.396 . S
C227 C228 1.348 . S
C227 C245 1.472 . S
C228 H198 0.929 . S
C228 C227 1.348 . S
C228 C229 1.443 . S
C229 H196 0.932 . S
C229 C224 1.388 . S
C229 C228 1.443 . S
C230 N210 1.433 . S
C230 C231 1.363 . S
C230 C235 1.370 . S
C231 H199 0.929 . S
C231 C230 1.363 . S
C231 C232 1.385 . S
C232 H200 0.930 . S
C232 C231 1.385 . S
C232 C233 1.357 . S
C233 C232 1.357 . S
C233 C234 1.406 . S
C234 H201 0.929 . S
C234 C233 1.406 . S
C234 C235 1.391 . S
C235 H202 0.931 . S
C235 C230 1.370 . S
C235 C234 1.391 . S
C236 N210 1.435 . S
C236 C237 1.358 . S
C236 C241 1.371 . S
C237 H203 0.930 . S
C237 C236 1.358 . S
C237 C238 1.405 . S
C238 H204 0.932 . S
C238 C237 1.405 . S
C238 C239 1.383 . S
C239 C238 1.383 . S
C239 C240 1.393 . S
C240 H205 0.931 . S
C240 C239 1.393 . S
C240 C241 1.382 . S
C241 H206 0.929 . S
C241 C236 1.371 . S
C241 C240 1.382 . S
C242 N210 1.423 . S
C242 C243 1.362 . S
C242 C247 1.388 . S
C243 H207 0.929 . S
C243 C242 1.362 . S
C243 C244 1.376 . S
C244 H208 0.931 . S
C244 C243 1.376 . S
C244 C245 1.396 . S
C245 C227 1.472 . S
C245 C244 1.396 . S
C245 C246 1.348 . S
C246 H209 0.929 . S
C246 C245 1.348 . S
C246 C247 1.443 . S
C247 H211 0.932 . S
C247 C242 1.388 . S
C247 C246 1.443 . S
H248 C275 0.929 . S
N249 C274 1.433 . S
N249 C280 1.435 . S
N249 C286 1.423 . S
H250 C276 0.930 . S
H251 C279 0.931 . S
H252 C278 0.929 . S
H253 C281 0.930 . S
H254 C282 0.932 . S
H255 C285 0.929 . S
H256 C284 0.931 . S
H257 C287 0.929 . S
H258 C291 0.932 . S
H259 C288 0.931 . S
H260 C290 0.929 . S
H261 C293 0.929 . S
H262 C294 0.930 . S
H263 C296 0.929 . S
H264 C297 0.931 . S
H265 C299 0.930 . S
H266 C300 0.932 . S
H267 C302 0.931 . S
H268 C303 0.929 . S
H269 C305 0.929 . S
H270 C306 0.931 . S
H271 C308 0.929 . S
N272 C292 1.433 . S
N272 C298 1.435 . S
N272 C304 1.423 . S
H273 C309 0.932 . S
C274 N249 1.433 . S
C274 C275 1.363 . S
C274 C279 1.370 . S
C275 H248 0.929 . S
C275 C274 1.363 . S
C275 C276 1.385 . S
C276 H250 0.930 . S
C276 C275 1.385 . S
C276 C277 1.357 . S
C277 C276 1.357 . S
C277 C278 1.406 . S
C278 H252 0.929 . S
C278 C277 1.406 . S
C278 C279 1.391 . S
C279 H251 0.931 . S
C279 C274 1.370 . S
C279 C278 1.391 . S
C280 N249 1.435 . S
C280 C281 1.358 . S
C280 C285 1.371 . S
C281 H253 0.930 . S
C281 C280 1.358 . S
C281 C282 1.405 . S
C282 H254 0.932 . S
C282 C281 1.405 . S
C282 C283 1.383 . S
C283 C282 1.383 . S
C283 C284 1.393 . S
C284 H256 0.931 . S
C284 C283 1.393 . S
C284 C285 1.382 . S
C285 H255 0.929 . S
C285 C280 1.371 . S
C285 C284 1.382 . S
C286 N249 1.423 . S
C286 C287 1.362 . S
C286 C291 1.388 . S
C287 H257 0.929 . S
C287 C286 1.362 . S
C287 C288 1.376 . S
C288 H259 0.931 . S
C288 C287 1.376 . S
C288 C289 1.396 . S
C289 C288 1.396 . S
C289 C290 1.348 . S
C289 C307 1.472 . S
C290 H260 0.929 . S
C290 C289 1.348 . S
C290 C291 1.443 . S
C291 H258 0.932 . S
C291 C286 1.388 . S
C291 C290 1.443 . S
C292 N272 1.433 . S
C292 C293 1.363 . S
C292 C297 1.370 . S
C293 H261 0.929 . S
C293 C292 1.363 . S
C293 C294 1.385 . S
C294 H262 0.930 . S
C294 C293 1.385 . S
C294 C295 1.357 . S
C295 C294 1.357 . S
C295 C296 1.406 . S
C296 H263 0.929 . S
C296 C295 1.406 . S
C296 C297 1.391 . S
C297 H264 0.931 . S
C297 C292 1.370 . S
C297 C296 1.391 . S
C298 N272 1.435 . S
C298 C299 1.358 . S
C298 C303 1.371 . S
C299 H265 0.930 . S
C299 C298 1.358 . S
C299 C300 1.405 . S
C300 H266 0.932 . S
C300 C299 1.405 . S
C300 C301 1.383 . S
C301 C300 1.383 . S
C301 C302 1.393 . S
C302 H267 0.931 . S
C302 C301 1.393 . S
C302 C303 1.382 . S
C303 H268 0.929 . S
C303 C298 1.371 . S
C303 C302 1.382 . S
C304 N272 1.423 . S
C304 C305 1.362 . S
C304 C309 1.388 . S
C305 H269 0.929 . S
C305 C304 1.362 . S
C305 C306 1.376 . S
C306 H270 0.931 . S
C306 C305 1.376 . S
C306 C307 1.396 . S
C307 C289 1.472 . S
C307 C306 1.396 . S
C307 C308 1.348 . S
C308 H271 0.929 . S
C308 C307 1.348 . S
C308 C309 1.443 . S
C309 H273 0.932 . S
C309 C304 1.388 . S
C309 C308 1.443 . S
H310 C337 0.929 . S
N311 C336 1.433 . S
N311 C342 1.435 . S
N311 C348 1.423 . S
H312 C338 0.930 . S
H313 C341 0.931 . S
H314 C340 0.929 . S
H315 C343 0.930 . S
H316 C344 0.932 . S
H317 C347 0.929 . S
H318 C346 0.931 . S
H319 C349 0.929 . S
H320 C353 0.932 . S
H321 C350 0.931 . S
H322 C352 0.929 . S
H323 C355 0.929 . S
H324 C356 0.930 . S
H325 C358 0.929 . S
H326 C359 0.931 . S
H327 C361 0.930 . S
H328 C362 0.932 . S
H329 C364 0.931 . S
H330 C365 0.929 . S
H331 C367 0.929 . S
H332 C368 0.931 . S
H333 C370 0.929 . S
N334 C354 1.433 . S
N334 C360 1.435 . S
N334 C366 1.423 . S
H335 C371 0.932 . S
C336 N311 1.433 . S
C336 C337 1.363 . S
C336 C341 1.370 . S
C337 H310 0.929 . S
C337 C336 1.363 . S
C337 C338 1.385 . S
C338 H312 0.930 . S
C338 C337 1.385 . S
C338 C339 1.357 . S
C339 C338 1.357 . S
C339 C340 1.406 . S
C340 H314 0.929 . S
C340 C339 1.406 . S
C340 C341 1.391 . S
C341 H313 0.931 . S
C341 C336 1.370 . S
C341 C340 1.391 . S
C342 N311 1.435 . S
C342 C343 1.358 . S
C342 C347 1.371 . S
C343 H315 0.930 . S
C343 C342 1.358 . S
C343 C344 1.405 . S
C344 H316 0.932 . S
C344 C343 1.405 . S
C344 C345 1.383 . S
C345 C344 1.383 . S
C345 C346 1.393 . S
C346 H318 0.931 . S
C346 C345 1.393 . S
C346 C347 1.382 . S
C347 H317 0.929 . S
C347 C342 1.371 . S
C347 C346 1.382 . S
C348 N311 1.423 . S
C348 C349 1.362 . S
C348 C353 1.388 . S
C349 H319 0.929 . S
C349 C348 1.362 . S
C349 C350 1.376 . S
C350 H321 0.931 . S
C350 C349 1.376 . S
C350 C351 1.396 . S
C351 C350 1.396 . S
C351 C352 1.348 . S
C351 C369 1.472 . S
C352 H322 0.929 . S
C352 C351 1.348 . S
C352 C353 1.443 . S
C353 H320 0.932 . S
C353 C348 1.388 . S
C353 C352 1.443 . S
C354 N334 1.433 . S
C354 C355 1.363 . S
C354 C359 1.370 . S
C355 H323 0.929 . S
C355 C354 1.363 . S
C355 C356 1.385 . S
C356 H324 0.930 . S
C356 C355 1.385 . S
C356 C357 1.357 . S
C357 C356 1.357 . S
C357 C358 1.406 . S
C358 H325 0.929 . S
C358 C357 1.406 . S
C358 C359 1.391 . S
C359 H326 0.931 . S
C359 C354 1.370 . S
C359 C358 1.391 . S
C360 N334 1.435 . S
C360 C361 1.358 . S
C360 C365 1.371 . S
C361 H327 0.930 . S
C361 C360 1.358 . S
C361 C362 1.405 . S
C362 H328 0.932 . S
C362 C361 1.405 . S
C362 C363 1.383 . S
C363 C362 1.383 . S
C363 C364 1.393 . S
C364 H329 0.931 . S
C364 C363 1.393 . S
C364 C365 1.382 . S
C365 H330 0.929 . S
C365 C360 1.371 . S
C365 C364 1.382 . S
C366 N334 1.423 . S
C366 C367 1.362 . S
C366 C371 1.388 . S
C367 H331 0.929 . S
C367 C366 1.362 . S
C367 C368 1.376 . S
C368 H332 0.931 . S
C368 C367 1.376 . S
C368 C369 1.396 . S
C369 C351 1.472 . S
C369 C368 1.396 . S
C369 C370 1.348 . S
C370 H333 0.929 . S
C370 C369 1.348 . S
C370 C371 1.443 . S
C371 H335 0.932 . S
C371 C366 1.388 . S
C371 C370 1.443 . S
H372 C399 0.929 . S
N373 C398 1.433 . S
N373 C404 1.435 . S
N373 C410 1.423 . S
H374 C400 0.930 . S
H375 C403 0.931 . S
H376 C402 0.929 . S
H377 C405 0.930 . S
H378 C406 0.932 . S
H379 C409 0.929 . S
H380 C408 0.931 . S
H381 C411 0.929 . S
H382 C415 0.932 . S
H383 C412 0.931 . S
H384 C414 0.929 . S
H385 C417 0.929 . S
H386 C418 0.930 . S
H387 C420 0.929 . S
H388 C421 0.931 . S
H389 C423 0.930 . S
H390 C424 0.932 . S
H391 C426 0.931 . S
H392 C427 0.929 . S
H393 C429 0.929 . S
H394 C430 0.931 . S
H395 C432 0.929 . S
N396 C416 1.433 . S
N396 C422 1.435 . S
N396 C428 1.423 . S
H397 C433 0.932 . S
C398 N373 1.433 . S
C398 C399 1.363 . S
C398 C403 1.370 . S
C399 H372 0.929 . S
C399 C398 1.363 . S
C399 C400 1.385 . S
C400 H374 0.930 . S
C400 C399 1.385 . S
C400 C401 1.357 . S
C401 C400 1.357 . S
C401 C402 1.406 . S
C402 H376 0.929 . S
C402 C401 1.406 . S
C402 C403 1.391 . S
C403 H375 0.931 . S
C403 C398 1.370 . S
C403 C402 1.391 . S
C404 N373 1.435 . S
C404 C405 1.358 . S
C404 C409 1.371 . S
C405 H377 0.930 . S
C405 C404 1.358 . S
C405 C406 1.405 . S
C406 H378 0.932 . S
C406 C405 1.405 . S
C406 C407 1.383 . S
C407 C406 1.383 . S
C407 C408 1.393 . S
C408 H380 0.931 . S
C408 C407 1.393 . S
C408 C409 1.382 . S
C409 H379 0.929 . S
C409 C404 1.371 . S
C409 C408 1.382 . S
C410 N373 1.423 . S
C410 C411 1.362 . S
C410 C415 1.388 . S
C411 H381 0.929 . S
C411 C410 1.362 . S
C411 C412 1.376 . S
C412 H383 0.931 . S
C412 C411 1.376 . S
C412 C413 1.396 . S
C413 C412 1.396 . S
C413 C414 1.348 . S
C413 C431 1.472 . S
C414 H384 0.929 . S
C414 C413 1.348 . S
C414 C415 1.443 . S
C415 H382 0.932 . S
C415 C410 1.388 . S
C415 C414 1.443 . S
C416 N396 1.433 . S
C416 C417 1.363 . S
C416 C421 1.370 . S
C417 H385 0.929 . S
C417 C416 1.363 . S
C417 C418 1.385 . S
C418 H386 0.930 . S
C418 C417 1.385 . S
C418 C419 1.357 . S
C419 C418 1.357 . S
C419 C420 1.406 . S
C420 H387 0.929 . S
C420 C419 1.406 . S
C420 C421 1.391 . S
C421 H388 0.931 . S
C421 C416 1.370 . S
C421 C420 1.391 . S
C422 N396 1.435 . S
C422 C423 1.358 . S
C422 C427 1.371 . S
C423 H389 0.930 . S
C423 C422 1.358 . S
C423 C424 1.405 . S
C424 H390 0.932 . S
C424 C423 1.405 . S
C424 C425 1.383 . S
C425 C424 1.383 . S
C425 C426 1.393 . S
C426 H391 0.931 . S
C426 C425 1.393 . S
C426 C427 1.382 . S
C427 H392 0.929 . S
C427 C422 1.371 . S
C427 C426 1.382 . S
C428 N396 1.423 . S
C428 C429 1.362 . S
C428 C433 1.388 . S
C429 H393 0.929 . S
C429 C428 1.362 . S
C429 C430 1.376 . S
C430 H394 0.931 . S
C430 C429 1.376 . S
C430 C431 1.396 . S
C431 C413 1.472 . S
C431 C430 1.396 . S
C431 C432 1.348 . S
C432 H395 0.929 . S
C432 C431 1.348 . S
C432 C433 1.443 . S
C433 H397 0.932 . S
C433 C428 1.388 . S
C433 C432 1.443 . S
H434 C461 0.929 . S
N435 C460 1.433 . S
N435 C466 1.435 . S
N435 C472 1.423 . S
H436 C462 0.930 . S
H437 C465 0.931 . S
H438 C464 0.929 . S
H439 C467 0.930 . S
H440 C468 0.932 . S
H441 C471 0.929 . S
H442 C470 0.931 . S
H443 C473 0.929 . S
H444 C477 0.932 . S
H445 C474 0.931 . S
H446 C476 0.929 . S
H447 C479 0.929 . S
H448 C480 0.930 . S
H449 C482 0.929 . S
H450 C483 0.931 . S
H451 C485 0.930 . S
H452 C486 0.932 . S
H453 C488 0.931 . S
H454 C489 0.929 . S
H455 C491 0.929 . S
H456 C492 0.931 . S
H457 C494 0.929 . S
N458 C478 1.433 . S
N458 C484 1.435 . S
N458 C490 1.423 . S
H459 C495 0.932 . S
C460 N435 1.433 . S
C460 C461 1.363 . S
C460 C465 1.370 . S
C461 H434 0.929 . S
C461 C460 1.363 . S
C461 C462 1.385 . S
C462 H436 0.930 . S
C462 C461 1.385 . S
C462 C463 1.357 . S
C463 C462 1.357 . S
C463 C464 1.406 . S
C464 H438 0.929 . S
C464 C463 1.406 . S
C464 C465 1.391 . S
C465 H437 0.931 . S
C465 C460 1.370 . S
C465 C464 1.391 . S
C466 N435 1.435 . S
C466 C467 1.358 . S
C466 C471 1.371 . S
C467 H439 0.930 . S
C467 C466 1.358 . S
C467 C468 1.405 . S
C468 H440 0.932 . S
C468 C467 1.405 . S
C468 C469 1.383 . S
C469 C468 1.383 . S
C469 C470 1.393 . S
C470 H442 0.931 . S
C470 C469 1.393 . S
C470 C471 1.382 . S
C471 H441 0.929 . S
C471 C466 1.371 . S
C471 C470 1.382 . S
C472 N435 1.423 . S
C472 C473 1.362 . S
C472 C477 1.388 . S
C473 H443 0.929 . S
C473 C472 1.362 . S
C473 C474 1.376 . S
C474 H445 0.931 . S
C474 C473 1.376 . S
C474 C475 1.396 . S
C475 C474 1.396 . S
C475 C476 1.348 . S
C475 C493 1.472 . S
C476 H446 0.929 . S
C476 C475 1.348 . S
C476 C477 1.443 . S
C477 H444 0.932 . S
C477 C472 1.388 . S
C477 C476 1.443 . S
C478 N458 1.433 . S
C478 C479 1.363 . S
C478 C483 1.370 . S
C479 H447 0.929 . S
C479 C478 1.363 . S
C479 C480 1.385 . S
C480 H448 0.930 . S
C480 C479 1.385 . S
C480 C481 1.357 . S
C481 C480 1.357 . S
C481 C482 1.406 . S
C482 H449 0.929 . S
C482 C481 1.406 . S
C482 C483 1.391 . S
C483 H450 0.931 . S
C483 C478 1.370 . S
C483 C482 1.391 . S
C484 N458 1.435 . S
C484 C485 1.358 . S
C484 C489 1.371 . S
C485 H451 0.930 . S
C485 C484 1.358 . S
C485 C486 1.405 . S
C486 H452 0.932 . S
C486 C485 1.405 . S
C486 C487 1.383 . S
C487 C486 1.383 . S
C487 C488 1.393 . S
C488 H453 0.931 . S
C488 C487 1.393 . S
C488 C489 1.382 . S
C489 H454 0.929 . S
C489 C484 1.371 . S
C489 C488 1.382 . S
C490 N458 1.423 . S
C490 C491 1.362 . S
C490 C495 1.388 . S
C491 H455 0.929 . S
C491 C490 1.362 . S
C491 C492 1.376 . S
C492 H456 0.931 . S
C492 C491 1.376 . S
C492 C493 1.396 . S
C493 C475 1.472 . S
C493 C492 1.396 . S
C493 C494 1.348 . S
C494 H457 0.929 . S
C494 C493 1.348 . S
C494 C495 1.443 . S
C495 H459 0.932 . S
C495 C490 1.388 . S
C495 C494 1.443 . S
C496 C497 1.443 . S
C496 N500 1.376 . S
C496 C534 1.389 . S
C497 C496 1.443 . S
C497 C498 1.340 . S
C497 H537 0.951 . S
C498 C497 1.340 . S
C498 C499 1.439 . S
C498 H538 0.950 . S
C499 C498 1.439 . S
C499 N500 1.374 . S
C499 C533 1.395 . S
N500 C496 1.376 . S
N500 C499 1.374 . S
N500 Co501 2.008 . S
Co501 N500 2.008 . S
Co501 N502 1.992 . S
Co501 N507 2.008 1_455 S
Co501 N512 1.995 . S
Co501 N517 2.282 1_455 S
Co501 N523 2.282 . S
N502 Co501 1.992 . S
N502 C503 1.375 . S
N502 C506 1.387 1_455 S
C503 N502 1.375 . S
C503 C504 1.446 1_455 S
C503 C533 1.391 . S
C504 C503 1.446 1_655 S
C504 C505 1.339 . S
C504 H539 0.949 . S
C505 C504 1.339 . S
C505 C506 1.439 . S
C505 H540 0.950 . S
C506 N502 1.387 1_655 S
C506 C505 1.439 . S
C506 C535 1.392 . S
N507 Co501 2.008 1_655 S
N507 C508 1.376 . S
N507 C511 1.374 . S
C508 N507 1.376 . S
C508 C509 1.443 . S
C508 C535 1.389 . S
C509 C508 1.443 . S
C509 C510 1.340 . S
C509 H541 0.951 . S
C510 C509 1.340 . S
C510 C511 1.439 . S
C510 H542 0.950 . S
C511 N507 1.374 . S
C511 C510 1.439 . S
C511 C536 1.395 1_655 S
N512 Co501 1.995 . S
N512 C513 1.376 . S
N512 C516 1.383 . S
C513 N512 1.376 . S
C513 C514 1.446 . S
C513 C536 1.391 . S
C514 C513 1.446 . S
C514 C515 1.339 . S
C514 H543 0.949 . S
C515 C514 1.339 . S
C515 C516 1.439 . S
C515 H544 0.950 . S
C516 N512 1.383 . S
C516 C515 1.439 . S
C516 C534 1.392 . S
N517 Co501 2.282 1_655 S
N517 C520 1.332 . S
N517 C522 1.332 . S
C518 C519 1.386 . S
C518 C521 1.388 . S
C519 C518 1.386 . S
C519 C520 1.382 . S
C519 H545 0.950 . S
C520 N517 1.332 . S
C520 C519 1.382 . S
C520 H531 0.952 . S
C521 C518 1.388 . S
C521 C522 1.382 . S
C521 H546 0.950 . S
C522 N517 1.332 . S
C522 C521 1.382 . S
C522 H532 0.948 . S
N523 Co501 2.282 . S
N523 C527 1.332 . S
N523 C528 1.332 . S
C524 C525 1.388 . S
C524 C528 1.382 . S
C524 H547 0.950 . S
C525 C524 1.388 . S
C525 C526 1.386 . S
C526 C525 1.386 . S
C526 C527 1.382 . S
C526 H548 0.950 . S
C527 N523 1.332 . S
C527 C526 1.382 . S
C527 H529 0.952 . S
C528 N523 1.332 . S
C528 C524 1.382 . S
C528 H530 0.948 . S
H529 C527 0.952 . S
H530 C528 0.948 . S
H531 C520 0.952 . S
H532 C522 0.948 . S
C533 C499 1.395 . S
C533 C503 1.391 . S
C534 C496 1.389 . S
C534 C516 1.392 . S
C535 C506 1.392 . S
C535 C508 1.389 . S
C536 C511 1.395 1_455 S
C536 C513 1.391 . S
H537 C497 0.951 . S
H538 C498 0.950 . S
H539 C504 0.949 . S
H540 C505 0.950 . S
H541 C509 0.951 . S
H542 C510 0.950 . S
H543 C514 0.949 . S
H544 C515 0.950 . S
H545 C519 0.950 . S
H546 C521 0.950 . S
H547 C524 0.950 . S
H548 C526 0.950 . S
C549 C550 1.443 . S
C549 N553 1.376 . S
C549 C587 1.389 . S
C550 C549 1.443 . S
C550 C551 1.340 . S
C550 H590 0.951 . S
C551 C550 1.340 . S
C551 C552 1.439 . S
C551 H591 0.950 . S
C552 C551 1.439 . S
C552 N553 1.374 . S
C552 C586 1.395 . S
N553 C549 1.376 . S
N553 C552 1.374 . S
N553 Co554 2.008 . S
Co554 N553 2.008 . S
Co554 N555 2.032 . S
Co554 N560 1.971 1_545 S
Co554 N565 1.995 . S
Co554 N570 2.282 1_545 S
Co554 N576 2.282 . S
N555 Co554 2.032 . S
N555 C556 1.389 . S
N555 C559 1.323 1_545 S
C556 N555 1.389 . S
C556 C557 1.446 1_545 S
C556 C586 1.391 . S
C557 C556 1.446 1_565 S
C557 C558 1.339 . S
C557 H592 0.949 . S
C558 C557 1.339 . S
C558 C559 1.439 . S
C558 H593 0.950 . S
C559 N555 1.323 1_565 S
C559 C558 1.439 . S
C559 C588 1.392 . S
N560 Co554 1.971 1_565 S
N560 C561 1.431 . S
N560 C564 1.374 . S
C561 N560 1.431 . S
C561 C562 1.443 . S
C561 C588 1.389 . S
C562 C561 1.443 . S
C562 C563 1.340 . S
C562 H594 0.951 . S
C563 C562 1.340 . S
C563 C564 1.469 . S
C563 H595 0.950 . S
C564 N560 1.374 . S
C564 C563 1.469 . S
C564 C589 1.371 1_565 S
N565 Co554 1.995 . S
N565 C566 1.376 . S
N565 C569 1.383 . S
C566 N565 1.376 . S
C566 C567 1.446 . S
C566 C589 1.391 . S
C567 C566 1.446 . S
C567 C568 1.339 . S
C567 H596 0.949 . S
C568 C567 1.339 . S
C568 C569 1.439 . S
C568 H597 0.950 . S
C569 N565 1.383 . S
C569 C568 1.439 . S
C569 C587 1.392 . S
N570 Co554 2.282 1_565 S
N570 C573 1.332 . S
N570 C575 1.332 . S
C571 C572 1.386 . S
C571 C574 1.388 . S
C572 C571 1.386 . S
C572 C573 1.382 . S
C572 H598 0.950 . S
C573 N570 1.332 . S
C573 C572 1.382 . S
C573 H584 0.952 . S
C574 C571 1.388 . S
C574 C575 1.382 . S
C574 H599 0.950 . S
C575 N570 1.332 . S
C575 C574 1.382 . S
C575 H585 0.948 . S
N576 Co554 2.282 . S
N576 C580 1.332 . S
N576 C581 1.332 . S
C577 C578 1.388 . S
C577 C581 1.382 . S
C577 H600 0.950 . S
C578 C577 1.388 . S
C578 C579 1.386 . S
C579 C578 1.386 . S
C579 C580 1.382 . S
C579 H601 0.950 . S
C580 N576 1.332 . S
C580 C579 1.382 . S
C580 H582 0.952 . S
C581 N576 1.332 . S
C581 C577 1.382 . S
C581 H583 0.948 . S
H582 C580 0.952 . S
H583 C581 0.948 . S
H584 C573 0.952 . S
H585 C575 0.948 . S
C586 C552 1.395 . S
C586 C556 1.391 . S
C587 C549 1.389 . S
C587 C569 1.392 . S
C588 C559 1.392 . S
C588 C561 1.389 . S
C589 C564 1.371 1_545 S
C589 C566 1.391 . S
H590 C550 0.951 . S
H591 C551 0.950 . S
H592 C557 0.949 . S
H593 C558 0.950 . S
H594 C562 0.951 . S
H595 C563 0.950 . S
H596 C567 0.949 . S
H597 C568 0.950 . S
H598 C572 0.950 . S
H599 C574 0.950 . S
H600 C577 0.950 . S
H601 C579 0.950 . S
C602 C603 1.443 . S
C602 N606 1.376 . S
C602 C640 1.389 . S
C603 C602 1.443 . S
C603 C604 1.340 . S
C603 H643 0.951 . S
C604 C603 1.340 . S
C604 C605 1.439 . S
C604 H644 0.950 . S
C605 C604 1.439 . S
C605 N606 1.374 . S
C605 C639 1.395 . S
N606 C602 1.376 . S
N606 C605 1.374 . S
N606 Co607 2.008 . S
Co607 N606 2.008 . S
Co607 N608 1.995 1_455 S
Co607 N613 2.008 1_455 S
Co607 N618 1.995 . S
Co607 N623 2.282 1_455 S
Co607 N629 2.282 . S
N608 Co607 1.995 1_655 S
N608 C609 1.370 1_655 S
N608 C612 1.383 . S
C609 N608 1.370 1_455 S
C609 C610 1.405 1_455 S
C609 C639 1.433 . S
C610 C609 1.405 1_655 S
C610 C611 1.339 . S
C610 H645 0.949 . S
C611 C610 1.339 . S
C611 C612 1.439 . S
C611 H646 0.950 . S
C612 N608 1.383 . S
C612 C611 1.439 . S
C612 C641 1.392 . S
N613 Co607 2.008 1_655 S
N613 C614 1.376 . S
N613 C617 1.374 . S
C614 N613 1.376 . S
C614 C615 1.443 . S
C614 C641 1.389 . S
C615 C614 1.443 . S
C615 C616 1.340 . S
C615 H647 0.951 . S
C616 C615 1.340 . S
C616 C617 1.439 . S
C616 H648 0.950 . S
C617 N613 1.374 . S
C617 C616 1.439 . S
C617 C642 1.395 1_655 S
N618 Co607 1.995 . S
N618 C619 1.376 . S
N618 C622 1.383 . S
C619 N618 1.376 . S
C619 C620 1.446 . S
C619 C642 1.391 . S
C620 C619 1.446 . S
C620 C621 1.339 . S
C620 H649 0.949 . S
C621 C620 1.339 . S
C621 C622 1.439 . S
C621 H650 0.950 . S
C622 N618 1.383 . S
C622 C621 1.439 . S
C622 C640 1.392 . S
N623 Co607 2.282 1_655 S
N623 C626 1.332 . S
N623 C628 1.332 . S
C624 C625 1.386 . S
C624 C627 1.388 . S
C625 C624 1.386 . S
C625 C626 1.382 . S
C625 H651 0.950 . S
C626 N623 1.332 . S
C626 C625 1.382 . S
C626 H637 0.952 . S
C627 C624 1.388 . S
C627 C628 1.382 . S
C627 H652 0.950 . S
C628 N623 1.332 . S
C628 C627 1.382 . S
C628 H638 0.948 . S
N629 Co607 2.282 . S
N629 C633 1.332 . S
N629 C634 1.332 . S
C630 C631 1.388 . S
C630 C634 1.382 . S
C630 H653 0.950 . S
C631 C630 1.388 . S
C631 C632 1.386 . S
C632 C631 1.386 . S
C632 C633 1.382 . S
C632 H654 0.950 . S
C633 N629 1.332 . S
C633 C632 1.382 . S
C633 H635 0.952 . S
C634 N629 1.332 . S
C634 C630 1.382 . S
C634 H636 0.948 . S
H635 C633 0.952 . S
H636 C634 0.948 . S
H637 C626 0.952 . S
H638 C628 0.948 . S
C639 C605 1.395 . S
C639 C609 1.433 . S
C640 C602 1.389 . S
C640 C622 1.392 . S
C641 C612 1.392 . S
C641 C614 1.389 . S
C642 C617 1.395 1_455 S
C642 C619 1.391 . S
H643 C603 0.951 . S
H644 C604 0.950 . S
H645 C610 0.949 . S
H646 C611 0.950 . S
H647 C615 0.951 . S
H648 C616 0.950 . S
H649 C620 0.949 . S
H650 C621 0.950 . S
H651 C625 0.950 . S
H652 C627 0.950 . S
H653 C630 0.950 . S
H654 C632 0.950 . S
C655 C656 1.443 . S
C655 N659 1.372 . S
C655 C693 1.389 . S
C656 C655 1.443 . S
C656 C657 1.340 . S
C656 H696 0.951 . S
C657 C656 1.340 . S
C657 C658 1.416 1_565 S
C657 H697 0.950 . S
C658 C657 1.416 1_545 S
C658 N659 1.373 1_545 S
C658 C692 1.415 . S
N659 C655 1.372 . S
N659 C658 1.373 1_565 S
N659 Co660 2.012 1_565 S
Co660 N659 2.012 1_545 S
Co660 N661 1.995 . S
Co660 N666 2.008 . S
Co660 N671 1.995 . S
Co660 N676 2.282 . S
Co660 N682 2.282 1_545 S
N661 Co660 1.995 . S
N661 C662 1.376 . S
N661 C665 1.383 . S
C662 N661 1.376 . S
C662 C663 1.446 . S
C662 C692 1.391 . S
C663 C662 1.446 . S
C663 C664 1.339 . S
C663 H698 0.949 . S
C664 C663 1.339 . S
C664 C665 1.439 . S
C664 H699 0.950 . S
C665 N661 1.383 . S
C665 C664 1.439 . S
C665 C694 1.392 . S
N666 Co660 2.008 . S
N666 C667 1.376 . S
N666 C670 1.374 . S
C667 N666 1.376 . S
C667 C668 1.443 . S
C667 C694 1.389 . S
C668 C667 1.443 . S
C668 C669 1.340 . S
C668 H700 0.951 . S
C669 C668 1.340 . S
C669 C670 1.439 . S
C669 H701 0.950 . S
C670 N666 1.374 . S
C670 C669 1.439 . S
C670 C695 1.395 . S
N671 Co660 1.995 . S
N671 C672 1.376 . S
N671 C675 1.383 1_545 S
C672 N671 1.376 . S
C672 C673 1.446 1_545 S
C672 C695 1.391 . S
C673 C672 1.446 1_565 S
C673 C674 1.339 . S
C673 H702 0.949 . S
C674 C673 1.339 . S
C674 C675 1.439 . S
C674 H703 0.950 . S
C675 N671 1.383 1_565 S
C675 C674 1.439 . S
C675 C693 1.392 . S
N676 Co660 2.282 . S
N676 C679 1.332 . S
N676 C681 1.332 . S
C677 C678 1.386 . S
C677 C680 1.388 . S
C678 C677 1.386 . S
C678 C679 1.382 . S
C678 H704 0.950 . S
C679 N676 1.332 . S
C679 C678 1.382 . S
C679 H690 0.952 . S
C680 C677 1.388 . S
C680 C681 1.382 . S
C680 H705 0.950 . S
C681 N676 1.332 . S
C681 C680 1.382 . S
C681 H691 0.948 . S
N682 Co660 2.282 1_565 S
N682 C686 1.332 . S
N682 C687 1.332 . S
C683 C684 1.388 . S
C683 C687 1.382 . S
C683 H706 0.950 . S
C684 C683 1.388 . S
C684 C685 1.386 . S
C685 C684 1.386 . S
C685 C686 1.382 . S
C685 H707 0.950 . S
C686 N682 1.332 . S
C686 C685 1.382 . S
C686 H688 0.952 . S
C687 N682 1.332 . S
C687 C683 1.382 . S
C687 H689 0.948 . S
H688 C686 0.952 . S
H689 C687 0.948 . S
H690 C679 0.952 . S
H691 C681 0.948 . S
C692 C658 1.415 . S
C692 C662 1.391 . S
C693 C655 1.389 . S
C693 C675 1.392 . S
C694 C665 1.392 . S
C694 C667 1.389 . S
C695 C670 1.395 . S
C695 C672 1.391 . S
H696 C656 0.951 . S
H697 C657 0.950 . S
H698 C663 0.949 . S
H699 C664 0.950 . S
H700 C668 0.951 . S
H701 C669 0.950 . S
H702 C673 0.949 . S
H703 C674 0.950 . S
H704 C678 0.950 . S
H705 C680 0.950 . S
H706 C683 0.950 . S
H707 C685 0.950 . S
C708 C709 1.443 . S
C708 N712 1.376 . S
C708 C746 1.389 . S
C709 C708 1.443 . S
C709 C710 1.340 . S
C709 H749 0.951 . S
C710 C709 1.340 . S
C710 C711 1.439 . S
C710 H750 0.950 . S
C711 C710 1.439 . S
C711 N712 1.374 . S
C711 C745 1.395 1_554 S
N712 C708 1.376 . S
N712 C711 1.374 . S
N712 Co713 2.025 . S
Co713 N712 2.025 . S
Co713 N714 1.975 1_554 S
Co713 N719 1.992 1_554 S
Co713 N724 2.015 . S
Co713 N729 2.311 . S
Co713 N735 2.254 1_554 S
N714 Co713 1.975 1_556 S
N714 C715 1.376 . S
N714 C718 1.383 . S
C715 N714 1.376 . S
C715 C716 1.446 . S
C715 C745 1.391 . S
C716 C715 1.446 . S
C716 C717 1.339 . S
C716 H751 0.949 . S
C717 C716 1.339 . S
C717 C718 1.439 . S
C717 H752 0.950 . S
C718 N714 1.383 . S
C718 C717 1.439 . S
C718 C747 1.392 . S
N719 Co713 1.992 1_556 S
N719 C720 1.376 . S
N719 C723 1.374 . S
C720 N719 1.376 . S
C720 C721 1.443 . S
C720 C747 1.389 . S
C721 C720 1.443 . S
C721 C722 1.340 . S
C721 H753 0.951 . S
C722 C721 1.340 . S
C722 C723 1.439 . S
C722 H754 0.950 . S
C723 N719 1.374 . S
C723 C722 1.439 . S
C723 C748 1.395 1_556 S
N724 Co713 2.015 . S
N724 C725 1.376 . S
N724 C728 1.383 . S
C725 N724 1.376 . S
C725 C726 1.446 . S
C725 C748 1.391 . S
C726 C725 1.446 . S
C726 C727 1.339 . S
C726 H755 0.949 . S
C727 C726 1.339 . S
C727 C728 1.439 . S
C727 H756 0.950 . S
C728 N724 1.383 . S
C728 C727 1.439 . S
C728 C746 1.392 . S
N729 Co713 2.311 . S
N729 C732 1.332 . S
N729 C734 1.332 . S
C730 C731 1.386 . S
C730 C733 1.388 . S
C731 C730 1.386 . S
C731 C732 1.382 . S
C731 H757 0.950 . S
C732 N729 1.332 . S
C732 C731 1.382 . S
C732 H743 0.952 . S
C733 C730 1.388 . S
C733 C734 1.382 . S
C733 H758 0.950 . S
C734 N729 1.332 . S
C734 C733 1.382 . S
C734 H744 0.948 . S
N735 Co713 2.254 1_556 S
N735 C739 1.332 . S
N735 C740 1.332 . S
C736 C737 1.388 . S
C736 C740 1.382 . S
C736 H759 0.950 . S
C737 C736 1.388 . S
C737 C738 1.386 . S
C738 C737 1.386 . S
C738 C739 1.382 . S
C738 H760 0.950 . S
C739 N735 1.332 . S
C739 C738 1.382 . S
C739 H741 0.952 . S
C740 N735 1.332 . S
C740 C736 1.382 . S
C740 H742 0.948 . S
H741 C739 0.952 . S
H742 C740 0.948 . S
H743 C732 0.952 . S
H744 C734 0.948 . S
C745 C711 1.395 1_556 S
C745 C715 1.391 . S
C746 C708 1.389 . S
C746 C728 1.392 . S
C747 C718 1.392 . S
C747 C720 1.389 . S
C748 C723 1.395 1_554 S
C748 C725 1.391 . S
H749 C709 0.951 . S
H750 C710 0.950 . S
H751 C716 0.949 . S
H752 C717 0.950 . S
H753 C721 0.951 . S
H754 C722 0.950 . S
H755 C726 0.949 . S
H756 C727 0.950 . S
H757 C731 0.950 . S
H758 C733 0.950 . S
H759 C736 0.950 . S
H760 C738 0.950 . S
C761 C762 1.443 . S
C761 N765 1.376 . S
C761 C799 1.389 . S
C762 C761 1.443 . S
C762 C763 1.340 . S
C762 H802 0.951 . S
C763 C762 1.340 . S
C763 C764 1.439 . S
C763 H803 0.950 . S
C764 C763 1.439 . S
C764 N765 1.374 . S
C764 C798 1.395 . S
N765 C761 1.376 . S
N765 C764 1.374 . S
N765 Co766 2.008 . S
Co766 N765 2.008 . S
Co766 N767 1.995 . S
Co766 N772 2.008 . S
Co766 N777 1.995 . S
Co766 N782 2.282 . S
Co766 N788 2.282 . S
N767 Co766 1.995 . S
N767 C768 1.376 . S
N767 C771 1.369 1_554 S
C768 N767 1.376 . S
C768 C769 1.446 1_554 S
C768 C798 1.391 . S
C769 C768 1.446 1_556 S
C769 C770 1.339 . S
C769 H804 0.949 . S
C770 C769 1.339 . S
C770 C771 1.447 . S
C770 H805 0.950 . S
C771 N767 1.369 1_556 S
C771 C770 1.447 . S
C771 C800 1.396 . S
N772 Co766 2.008 . S
N772 C773 1.376 . S
N772 C776 1.374 . S
C773 N772 1.376 . S
C773 C774 1.443 . S
C773 C800 1.389 1_554 S
C774 C773 1.443 . S
C774 C775 1.340 . S
C774 H806 0.951 1_554 S
C775 C774 1.340 . S
C775 C776 1.439 . S
C775 H807 0.950 . S
C776 N772 1.374 . S
C776 C775 1.439 . S
C776 C801 1.395 . S
N777 Co766 1.995 . S
N777 C778 1.376 . S
N777 C781 1.383 . S
C778 N777 1.376 . S
C778 C779 1.446 . S
C778 C801 1.391 . S
C779 C778 1.446 . S
C779 C780 1.339 . S
C779 H808 0.949 . S
C780 C779 1.339 . S
C780 C781 1.439 . S
C780 H809 0.950 . S
C781 N777 1.383 . S
C781 C780 1.439 . S
C781 C799 1.392 . S
N782 Co766 2.282 . S
N782 C785 1.332 . S
N782 C787 1.332 . S
C783 C784 1.386 . S
C783 C786 1.388 . S
C784 C783 1.386 . S
C784 C785 1.382 . S
C784 H810 0.950 . S
C785 N782 1.332 . S
C785 C784 1.382 . S
C785 H796 0.952 . S
C786 C783 1.388 . S
C786 C787 1.382 . S
C786 H811 0.950 . S
C787 N782 1.332 . S
C787 C786 1.382 . S
C787 H797 0.948 . S
N788 Co766 2.282 . S
N788 C792 1.332 1_554 S
N788 C793 1.332 . S
C789 C790 1.388 . S
C789 C793 1.382 1_556 S
C789 H812 0.950 . S
C790 C789 1.388 . S
C790 C791 1.386 . S
C791 C790 1.386 . S
C791 C792 1.382 . S
C791 H813 0.950 . S
C792 N788 1.332 1_556 S
C792 C791 1.382 . S
C792 H794 0.952 . S
C793 N788 1.332 . S
C793 C789 1.382 1_554 S
C793 H795 0.948 . S
H794 C792 0.952 . S
H795 C793 0.948 . S
H796 C785 0.952 . S
H797 C787 0.948 . S
C798 C764 1.395 . S
C798 C768 1.391 . S
C799 C761 1.389 . S
C799 C781 1.392 . S
C800 C771 1.396 . S
C800 C773 1.389 1_556 S
C801 C776 1.395 . S
C801 C778 1.391 . S
H802 C762 0.951 . S
H803 C763 0.950 . S
H804 C769 0.949 . S
H805 C770 0.950 . S
H806 C774 0.951 1_556 S
H807 C775 0.950 . S
H808 C779 0.949 . S
H809 C780 0.950 . S
H810 C784 0.950 . S
H811 C786 0.950 . S
H812 C789 0.950 . S
H813 C791 0.950 . S
C814 C815 1.443 . S
C814 N818 1.376 1_556 S
C814 C852 1.389 . S
C815 C814 1.443 . S
C815 C816 1.340 1_556 S
C815 H855 0.951 . S
C816 C815 1.340 1_554 S
C816 C817 1.439 . S
C816 H856 0.950 . S
C817 C816 1.439 . S
C817 N818 1.374 . S
C817 C851 1.395 . S
N818 C814 1.376 1_554 S
N818 C817 1.374 . S
N818 Co819 2.008 . S
Co819 N818 2.008 . S
Co819 N820 1.995 . S
Co819 N825 2.008 . S
Co819 N830 1.995 . S
Co819 N835 2.282 1_554 S
Co819 N841 2.282 . S
N820 Co819 1.995 . S
N820 C821 1.376 . S
N820 C824 1.383 . S
C821 N820 1.376 . S
C821 C822 1.446 . S
C821 C851 1.391 . S
C822 C821 1.446 . S
C822 C823 1.339 . S
C822 H857 0.949 . S
C823 C822 1.339 . S
C823 C824 1.439 . S
C823 H858 0.950 . S
C824 N820 1.383 . S
C824 C823 1.439 . S
C824 C853 1.392 . S
N825 Co819 2.008 . S
N825 C826 1.376 . S
N825 C829 1.374 . S
C826 N825 1.376 . S
C826 C827 1.443 . S
C826 C853 1.389 . S
C827 C826 1.443 . S
C827 C828 1.340 . S
C827 H859 0.951 . S
C828 C827 1.340 . S
C828 C829 1.439 . S
C828 H860 0.950 . S
C829 N825 1.374 . S
C829 C828 1.439 . S
C829 C854 1.395 . S
N830 Co819 1.995 . S
N830 C831 1.376 . S
N830 C834 1.383 1_554 S
C831 N830 1.376 . S
C831 C832 1.446 1_554 S
C831 C854 1.391 . S
C832 C831 1.446 1_556 S
C832 C833 1.339 . S
C832 H861 0.949 . S
C833 C832 1.339 . S
C833 C834 1.439 . S
C833 H862 0.950 . S
C834 N830 1.383 1_556 S
C834 C833 1.439 . S
C834 C852 1.392 . S
N835 Co819 2.282 1_556 S
N835 C838 1.332 . S
N835 C840 1.332 . S
C836 C837 1.386 . S
C836 C839 1.388 . S
C837 C836 1.386 . S
C837 C838 1.382 . S
C837 H863 0.950 . S
C838 N835 1.332 . S
C838 C837 1.382 . S
C838 H849 0.952 . S
C839 C836 1.388 . S
C839 C840 1.382 . S
C839 H864 0.950 . S
C840 N835 1.332 . S
C840 C839 1.382 . S
C840 H850 0.948 1_556 S
N841 Co819 2.282 . S
N841 C845 1.332 . S
N841 C846 1.332 . S
C842 C843 1.388 . S
C842 C846 1.382 . S
C842 H865 0.950 . S
C843 C842 1.388 . S
C843 C844 1.386 . S
C844 C843 1.386 . S
C844 C845 1.382 . S
C844 H866 0.950 . S
C845 N841 1.332 . S
C845 C844 1.382 . S
C845 H847 0.952 . S
C846 N841 1.332 . S
C846 C842 1.382 . S
C846 H848 0.948 . S
H847 C845 0.952 . S
H848 C846 0.948 . S
H849 C838 0.952 . S
H850 C840 0.948 1_554 S
C851 C817 1.395 . S
C851 C821 1.391 . S
C852 C814 1.389 . S
C852 C834 1.392 . S
C853 C824 1.392 . S
C853 C826 1.389 . S
C854 C829 1.395 . S
C854 C831 1.391 . S
H855 C815 0.951 . S
H856 C816 0.950 . S
H857 C822 0.949 . S
H858 C823 0.950 . S
H859 C827 0.951 . S
H860 C828 0.950 . S
H861 C832 0.949 . S
H862 C833 0.950 . S
H863 C837 0.950 . S
H864 C839 0.950 . S
H865 C842 0.950 . S
H866 C844 0.950 . S
C867 C868 1.443 . S
C867 N871 1.376 . S
C867 C905 1.389 . S
C868 C867 1.443 . S
C868 C869 1.340 . S
C868 H908 0.951 . S
C869 C868 1.340 . S
C869 C870 1.439 . S
C869 H909 0.950 . S
C870 C869 1.439 . S
C870 N871 1.374 . S
C870 C904 1.395 . S
N871 C867 1.376 . S
N871 C870 1.374 . S
N871 Co872 2.008 . S
Co872 N871 2.008 . S
Co872 N873 1.995 . S
Co872 N878 2.008 . S
Co872 N883 1.995 . S
Co872 N888 2.282 . S
Co872 N894 2.282 1_554 S
N873 Co872 1.995 . S
N873 C874 1.376 . S
N873 C877 1.383 1_554 S
C874 N873 1.376 . S
C874 C875 1.446 1_554 S
C874 C904 1.391 . S
C875 C874 1.446 1_556 S
C875 C876 1.339 . S
C875 H910 0.949 . S
C876 C875 1.339 . S
C876 C877 1.439 . S
C876 H911 0.950 . S
C877 N873 1.383 1_556 S
C877 C876 1.439 . S
C877 C906 1.392 . S
N878 Co872 2.008 . S
N878 C879 1.376 1_554 S
N878 C882 1.374 . S
C879 N878 1.376 1_556 S
C879 C880 1.443 . S
C879 C906 1.389 . S
C880 C879 1.443 . S
C880 C881 1.340 1_556 S
C880 H912 0.951 . S
C881 C880 1.340 1_554 S
C881 C882 1.439 . S
C881 H913 0.950 . S
C882 N878 1.374 . S
C882 C881 1.439 . S
C882 C907 1.395 . S
N883 Co872 1.995 . S
N883 C884 1.376 . S
N883 C887 1.383 . S
C884 N883 1.376 . S
C884 C885 1.446 . S
C884 C907 1.391 . S
C885 C884 1.446 . S
C885 C886 1.339 . S
C885 H914 0.949 . S
C886 C885 1.339 . S
C886 C887 1.439 . S
C886 H915 0.950 . S
C887 N883 1.383 . S
C887 C886 1.439 . S
C887 C905 1.392 . S
N888 Co872 2.282 . S
N888 C891 1.332 . S
N888 C893 1.332 . S
C889 C890 1.386 . S
C889 C892 1.388 . S
C890 C889 1.386 . S
C890 C891 1.382 . S
C890 H916 0.950 . S
C891 N888 1.332 . S
C891 C890 1.382 . S
C891 H902 0.952 . S
C892 C889 1.388 . S
C892 C893 1.382 . S
C892 H917 0.950 . S
C893 N888 1.332 . S
C893 C892 1.382 . S
C893 H903 0.948 . S
N894 Co872 2.282 1_556 S
N894 C898 1.332 . S
N894 C899 1.332 . S
C895 C896 1.388 . S
C895 C899 1.382 . S
C895 H918 0.950 . S
C896 C895 1.388 . S
C896 C897 1.386 . S
C897 C896 1.386 . S
C897 C898 1.382 . S
C897 H919 0.950 . S
C898 N894 1.332 . S
C898 C897 1.382 . S
C898 H900 0.952 . S
C899 N894 1.332 . S
C899 C895 1.382 . S
C899 H901 0.948 1_556 S
H900 C898 0.952 . S
H901 C899 0.948 1_554 S
H902 C891 0.952 . S
H903 C893 0.948 . S
C904 C870 1.395 . S
C904 C874 1.391 . S
C905 C867 1.389 . S
C905 C887 1.392 . S
C906 C877 1.392 . S
C906 C879 1.389 . S
C907 C882 1.395 . S
C907 C884 1.391 . S
H908 C868 0.951 . S
H909 C869 0.950 . S
H910 C875 0.949 . S
H911 C876 0.950 . S
H912 C880 0.951 . S
H913 C881 0.950 . S
H914 C885 0.949 . S
H915 C886 0.950 . S
H916 C890 0.950 . S
H917 C892 0.950 . S
H918 C895 0.950 . S
H919 C897 0.950 . S
H920 C938 0.951 . S
H921 C940 0.951 . S
H922 C942 0.950 . S
H923 C943 0.950 . S
H924 C945 0.950 . S
H925 C948 0.950 . S
H926 C949 0.950 . S
H927 C951 0.950 . S
H928 C952 0.950 . S
H929 C953 0.951 . S
H930 C955 0.951 . S
H931 C957 0.950 . S
H932 C958 0.950 . S
H933 C960 0.950 . S
H934 C963 0.950 . S
H935 C964 0.950 . S
H936 C966 0.950 . S
H937 C967 0.950 . S
C938 H920 0.951 . S
C938 C939 1.366 . S
C938 C940 1.388 . S
C939 C938 1.366 . S
C939 C943 1.385 . S
C940 H921 0.951 . S
C940 C938 1.388 . S
C940 C941 1.366 . S
C941 C940 1.366 . S
C941 C942 1.414 . S
C941 C944 1.499 . S
C942 H922 0.950 . S
C942 C941 1.414 . S
C942 C943 1.374 . S
C943 H923 0.950 . S
C943 C939 1.385 . S
C943 C942 1.374 . S
C944 C941 1.499 . S
C944 C945 1.373 . S
C944 C946 1.389 . S
C945 H924 0.950 . S
C945 C944 1.373 . S
C945 C961 1.377 . S
C946 C944 1.389 . S
C946 C947 1.524 . S
C946 C960 1.377 . S
C947 C946 1.524 . S
C947 C948 1.397 . S
C947 C952 1.363 . S
C948 H925 0.950 . S
C948 C947 1.397 . S
C948 C949 1.334 . S
C949 H926 0.950 . S
C949 C948 1.334 . S
C949 C950 1.287 . S
C950 C949 1.287 . S
C950 C951 1.524 . S
C950 H969 0.913 . S
C951 H927 0.950 . S
C951 C950 1.524 . S
C951 C952 1.415 . S
C952 H928 0.950 . S
C952 C947 1.363 . S
C952 C951 1.415 . S
C953 H929 0.951 . S
C953 C954 1.366 . S
C953 C955 1.388 . S
C954 C953 1.366 . S
C954 C958 1.385 . S
C955 H930 0.951 . S
C955 C953 1.388 . S
C955 C956 1.366 . S
C956 C955 1.366 . S
C956 C957 1.414 . S
C956 C959 1.499 . S
C957 H931 0.950 . S
C957 C956 1.414 . S
C957 C958 1.374 . S
C958 H932 0.950 . S
C958 C954 1.385 . S
C958 C957 1.374 . S
C959 C956 1.499 . S
C959 C960 1.373 . S
C959 C961 1.389 . S
C960 H933 0.950 . S
C960 C946 1.377 . S
C960 C959 1.373 . S
C961 C945 1.377 . S
C961 C959 1.389 . S
C961 C962 1.524 . S
C962 C961 1.524 . S
C962 C963 1.397 . S
C962 C967 1.363 . S
C963 H934 0.950 . S
C963 C962 1.397 . S
C963 C964 1.334 . S
C964 H935 0.950 . S
C964 C963 1.334 . S
C964 C965 1.287 . S
C965 C964 1.287 . S
C965 C966 1.524 . S
C965 H968 0.999 . S
C966 H936 0.950 . S
C966 C965 1.524 . S
C966 C967 1.415 . S
C967 H937 0.950 . S
C967 C962 1.363 . S
C967 C966 1.415 . S
H968 C965 0.999 . S
H969 C950 0.913 . S
H970 C988 0.951 . S
H971 C990 0.951 . S
H972 C992 0.950 . S
H973 C993 0.950 . S
H974 C995 0.950 . S
H975 C998 0.950 . S
H976 C999 0.950 . S
H977 C1001 0.950 . S
H978 C1002 0.950 . S
H979 C1003 0.951 . S
H980 C1005 0.951 . S
H981 C1007 0.950 . S
H982 C1008 0.950 . S
H983 C1010 0.950 . S
H984 C1013 0.950 . S
H985 C1014 0.950 . S
H986 C1016 0.950 . S
H987 C1017 0.950 . S
C988 H970 0.951 . S
C988 C989 1.366 . S
C988 C990 1.388 . S
C989 C988 1.366 . S
C989 C993 1.385 . S
C990 H971 0.951 . S
C990 C988 1.388 . S
C990 C991 1.366 . S
C991 C990 1.366 . S
C991 C992 1.414 . S
C991 C994 1.499 . S
C992 H972 0.950 . S
C992 C991 1.414 . S
C992 C993 1.374 . S
C993 H973 0.950 . S
C993 C989 1.385 . S
C993 C992 1.374 . S
C994 C991 1.499 . S
C994 C995 1.373 . S
C994 C996 1.389 . S
C995 H974 0.950 . S
C995 C994 1.373 . S
C995 C1011 1.377 . S
C996 C994 1.389 . S
C996 C997 1.524 . S
C996 C1010 1.377 . S
C997 C996 1.524 . S
C997 C998 1.397 . S
C997 C1002 1.363 . S
C998 H975 0.950 . S
C998 C997 1.397 . S
C998 C999 1.334 . S
C999 H976 0.950 . S
C999 C998 1.334 . S
C999 C1000 1.287 . S
C1000 C999 1.287 . S
C1000 C1001 1.524 . S
C1000 H1019 0.913 . S
C1001 H977 0.950 . S
C1001 C1000 1.524 . S
C1001 C1002 1.415 . S
C1002 H978 0.950 . S
C1002 C997 1.363 . S
C1002 C1001 1.415 . S
C1003 H979 0.951 . S
C1003 C1004 1.366 . S
C1003 C1005 1.388 . S
C1004 C1003 1.366 . S
C1004 C1008 1.385 . S
C1005 H980 0.951 . S
C1005 C1003 1.388 . S
C1005 C1006 1.366 . S
C1006 C1005 1.366 . S
C1006 C1007 1.414 . S
C1006 C1009 1.499 . S
C1007 H981 0.950 . S
C1007 C1006 1.414 . S
C1007 C1008 1.374 . S
C1008 H982 0.950 . S
C1008 C1004 1.385 . S
C1008 C1007 1.374 . S
C1009 C1006 1.499 . S
C1009 C1010 1.373 . S
C1009 C1011 1.389 . S
C1010 H983 0.950 . S
C1010 C996 1.377 . S
C1010 C1009 1.373 . S
C1011 C995 1.377 . S
C1011 C1009 1.389 . S
C1011 C1012 1.524 . S
C1012 C1011 1.524 . S
C1012 C1013 1.397 . S
C1012 C1017 1.363 . S
C1013 H984 0.950 . S
C1013 C1012 1.397 . S
C1013 C1014 1.334 . S
C1014 H985 0.950 . S
C1014 C1013 1.334 . S
C1014 C1015 1.287 . S
C1015 C1014 1.287 . S
C1015 C1016 1.524 . S
C1015 H1018 0.999 . S
C1016 H986 0.950 . S
C1016 C1015 1.524 . S
C1016 C1017 1.415 . S
C1017 H987 0.950 . S
C1017 C1012 1.363 . S
C1017 C1016 1.415 . S
H1018 C1015 0.999 . S
H1019 C1000 0.913 . S
H1020 C1038 0.951 . S
H1021 C1040 0.951 . S
H1022 C1042 0.950 . S
H1023 C1043 0.950 . S
H1024 C1045 0.950 . S
H1025 C1048 0.950 . S
H1026 C1049 0.950 . S
H1027 C1051 0.950 . S
H1028 C1052 0.950 . S
H1029 C1053 0.951 . S
H1030 C1055 0.951 . S
H1031 C1057 0.950 . S
H1032 C1058 0.950 . S
H1033 C1060 0.950 . S
H1034 C1063 0.950 . S
H1035 C1064 0.950 . S
H1036 C1066 0.950 . S
H1037 C1067 0.950 . S
C1038 H1020 0.951 . S
C1038 C1039 1.366 . S
C1038 C1040 1.388 . S
C1039 C1038 1.366 . S
C1039 C1043 1.385 . S
C1040 H1021 0.951 . S
C1040 C1038 1.388 . S
C1040 C1041 1.366 . S
C1041 C1040 1.366 . S
C1041 C1042 1.414 . S
C1041 C1044 1.499 . S
C1042 H1022 0.950 . S
C1042 C1041 1.414 . S
C1042 C1043 1.374 . S
C1043 H1023 0.950 . S
C1043 C1039 1.385 . S
C1043 C1042 1.374 . S
C1044 C1041 1.499 . S
C1044 C1045 1.373 . S
C1044 C1046 1.389 . S
C1045 H1024 0.950 . S
C1045 C1044 1.373 . S
C1045 C1061 1.377 . S
C1046 C1044 1.389 . S
C1046 C1047 1.524 . S
C1046 C1060 1.377 . S
C1047 C1046 1.524 . S
C1047 C1048 1.397 . S
C1047 C1052 1.363 . S
C1048 H1025 0.950 . S
C1048 C1047 1.397 . S
C1048 C1049 1.334 . S
C1049 H1026 0.950 . S
C1049 C1048 1.334 . S
C1049 C1050 1.287 . S
C1050 C1049 1.287 . S
C1050 C1051 1.524 . S
C1050 H1069 0.913 . S
C1051 H1027 0.950 . S
C1051 C1050 1.524 . S
C1051 C1052 1.415 . S
C1052 H1028 0.950 . S
C1052 C1047 1.363 . S
C1052 C1051 1.415 . S
C1053 H1029 0.951 . S
C1053 C1054 1.366 . S
C1053 C1055 1.388 . S
C1054 C1053 1.366 . S
C1054 C1058 1.385 . S
C1055 H1030 0.951 . S
C1055 C1053 1.388 . S
C1055 C1056 1.366 . S
C1056 C1055 1.366 . S
C1056 C1057 1.414 . S
C1056 C1059 1.499 . S
C1057 H1031 0.950 . S
C1057 C1056 1.414 . S
C1057 C1058 1.374 . S
C1058 H1032 0.950 . S
C1058 C1054 1.385 . S
C1058 C1057 1.374 . S
C1059 C1056 1.499 . S
C1059 C1060 1.373 . S
C1059 C1061 1.389 . S
C1060 H1033 0.950 . S
C1060 C1046 1.377 . S
C1060 C1059 1.373 . S
C1061 C1045 1.377 . S
C1061 C1059 1.389 . S
C1061 C1062 1.524 . S
C1062 C1061 1.524 . S
C1062 C1063 1.397 . S
C1062 C1067 1.363 . S
C1063 H1034 0.950 . S
C1063 C1062 1.397 . S
C1063 C1064 1.334 . S
C1064 H1035 0.950 . S
C1064 C1063 1.334 . S
C1064 C1065 1.287 . S
C1065 C1064 1.287 . S
C1065 C1066 1.524 . S
C1065 H1068 0.999 . S
C1066 H1036 0.950 . S
C1066 C1065 1.524 . S
C1066 C1067 1.415 . S
C1067 H1037 0.950 . S
C1067 C1062 1.363 . S
C1067 C1066 1.415 . S
H1068 C1065 0.999 . S
H1069 C1050 0.913 . S
H1070 C1088 0.951 . S
H1071 C1090 0.951 . S
H1072 C1092 0.950 . S
H1073 C1093 0.950 . S
H1074 C1095 0.950 . S
H1075 C1098 0.950 . S
H1076 C1099 0.950 . S
H1077 C1101 0.950 . S
H1078 C1102 0.950 . S
H1079 C1103 0.951 . S
H1080 C1105 0.951 . S
H1081 C1107 0.950 . S
H1082 C1108 0.950 . S
H1083 C1110 0.950 . S
H1084 C1113 0.950 . S
H1085 C1114 0.950 . S
H1086 C1116 0.950 . S
H1087 C1117 0.950 . S
C1088 H1070 0.951 . S
C1088 C1089 1.366 . S
C1088 C1090 1.388 . S
C1089 C1088 1.366 . S
C1089 C1093 1.385 . S
C1090 H1071 0.951 . S
C1090 C1088 1.388 . S
C1090 C1091 1.366 . S
C1091 C1090 1.366 . S
C1091 C1092 1.414 . S
C1091 C1094 1.499 . S
C1092 H1072 0.950 . S
C1092 C1091 1.414 . S
C1092 C1093 1.374 . S
C1093 H1073 0.950 . S
C1093 C1089 1.385 . S
C1093 C1092 1.374 . S
C1094 C1091 1.499 . S
C1094 C1095 1.373 . S
C1094 C1096 1.389 . S
C1095 H1074 0.950 . S
C1095 C1094 1.373 . S
C1095 C1111 1.377 . S
C1096 C1094 1.389 . S
C1096 C1097 1.524 . S
C1096 C1110 1.377 . S
C1097 C1096 1.524 . S
C1097 C1098 1.397 . S
C1097 C1102 1.363 . S
C1098 H1075 0.950 . S
C1098 C1097 1.397 . S
C1098 C1099 1.334 . S
C1099 H1076 0.950 . S
C1099 C1098 1.334 . S
C1099 C1100 1.287 . S
C1100 C1099 1.287 . S
C1100 C1101 1.524 . S
C1100 H1119 0.913 . S
C1101 H1077 0.950 . S
C1101 C1100 1.524 . S
C1101 C1102 1.415 . S
C1102 H1078 0.950 . S
C1102 C1097 1.363 . S
C1102 C1101 1.415 . S
C1103 H1079 0.951 . S
C1103 C1104 1.366 . S
C1103 C1105 1.388 . S
C1104 C1103 1.366 . S
C1104 C1108 1.385 . S
C1105 H1080 0.951 . S
C1105 C1103 1.388 . S
C1105 C1106 1.366 . S
C1106 C1105 1.366 . S
C1106 C1107 1.414 . S
C1106 C1109 1.499 . S
C1107 H1081 0.950 . S
C1107 C1106 1.414 . S
C1107 C1108 1.374 . S
C1108 H1082 0.950 . S
C1108 C1104 1.385 . S
C1108 C1107 1.374 . S
C1109 C1106 1.499 . S
C1109 C1110 1.373 . S
C1109 C1111 1.389 . S
C1110 H1083 0.950 . S
C1110 C1096 1.377 . S
C1110 C1109 1.373 . S
C1111 C1095 1.377 . S
C1111 C1109 1.389 . S
C1111 C1112 1.524 . S
C1112 C1111 1.524 . S
C1112 C1113 1.397 . S
C1112 C1117 1.363 . S
C1113 H1084 0.950 . S
C1113 C1112 1.397 . S
C1113 C1114 1.334 . S
C1114 H1085 0.950 . S
C1114 C1113 1.334 . S
C1114 C1115 1.287 . S
C1115 C1114 1.287 . S
C1115 C1116 1.524 . S
C1115 H1118 0.999 . S
C1116 H1086 0.950 . S
C1116 C1115 1.524 . S
C1116 C1117 1.415 . S
C1117 H1087 0.950 . S
C1117 C1112 1.363 . S
C1117 C1116 1.415 . S
H1118 C1115 0.999 . S
H1119 C1100 0.913 . S
H1120 C1138 0.951 . S
H1121 C1140 0.951 . S
H1122 C1142 0.950 . S
H1123 C1143 0.950 . S
H1124 C1145 0.950 . S
H1125 C1148 0.950 . S
H1126 C1149 0.950 . S
H1127 C1151 0.950 . S
H1128 C1152 0.950 . S
H1129 C1153 0.951 . S
H1130 C1155 0.951 . S
H1131 C1157 0.950 . S
H1132 C1158 0.950 . S
H1133 C1160 0.950 . S
H1134 C1163 0.950 . S
H1135 C1164 0.950 . S
H1136 C1166 0.950 . S
H1137 C1167 0.950 . S
C1138 H1120 0.951 . S
C1138 C1139 1.366 . S
C1138 C1140 1.388 . S
C1139 C1138 1.366 . S
C1139 C1143 1.385 . S
C1140 H1121 0.951 . S
C1140 C1138 1.388 . S
C1140 C1141 1.366 . S
C1141 C1140 1.366 . S
C1141 C1142 1.414 . S
C1141 C1144 1.499 . S
C1142 H1122 0.950 . S
C1142 C1141 1.414 . S
C1142 C1143 1.374 . S
C1143 H1123 0.950 . S
C1143 C1139 1.385 . S
C1143 C1142 1.374 . S
C1144 C1141 1.499 . S
C1144 C1145 1.373 . S
C1144 C1146 1.389 . S
C1145 H1124 0.950 . S
C1145 C1144 1.373 . S
C1145 C1161 1.377 . S
C1146 C1144 1.389 . S
C1146 C1147 1.524 . S
C1146 C1160 1.377 . S
C1147 C1146 1.524 . S
C1147 C1148 1.397 . S
C1147 C1152 1.363 . S
C1148 H1125 0.950 . S
C1148 C1147 1.397 . S
C1148 C1149 1.334 . S
C1149 H1126 0.950 . S
C1149 C1148 1.334 . S
C1149 C1150 1.287 . S
C1150 C1149 1.287 . S
C1150 C1151 1.524 . S
C1150 H1169 0.913 . S
C1151 H1127 0.950 . S
C1151 C1150 1.524 . S
C1151 C1152 1.415 . S
C1152 H1128 0.950 . S
C1152 C1147 1.363 . S
C1152 C1151 1.415 . S
C1153 H1129 0.951 . S
C1153 C1154 1.366 . S
C1153 C1155 1.388 . S
C1154 C1153 1.366 . S
C1154 C1158 1.385 . S
C1155 H1130 0.951 . S
C1155 C1153 1.388 . S
C1155 C1156 1.366 . S
C1156 C1155 1.366 . S
C1156 C1157 1.414 . S
C1156 C1159 1.499 . S
C1157 H1131 0.950 . S
C1157 C1156 1.414 . S
C1157 C1158 1.374 . S
C1158 H1132 0.950 . S
C1158 C1154 1.385 . S
C1158 C1157 1.374 . S
C1159 C1156 1.499 . S
C1159 C1160 1.373 . S
C1159 C1161 1.389 . S
C1160 H1133 0.950 . S
C1160 C1146 1.377 . S
C1160 C1159 1.373 . S
C1161 C1145 1.377 . S
C1161 C1159 1.389 . S
C1161 C1162 1.524 . S
C1162 C1161 1.524 . S
C1162 C1163 1.397 . S
C1162 C1167 1.363 . S
C1163 H1134 0.950 . S
C1163 C1162 1.397 . S
C1163 C1164 1.334 . S
C1164 H1135 0.950 . S
C1164 C1163 1.334 . S
C1164 C1165 1.287 . S
C1165 C1164 1.287 . S
C1165 C1166 1.524 . S
C1165 H1168 0.999 . S
C1166 H1136 0.950 . S
C1166 C1165 1.524 . S
C1166 C1167 1.415 . S
C1167 H1137 0.950 . S
C1167 C1162 1.363 . S
C1167 C1166 1.415 . S
H1168 C1165 0.999 . S
H1169 C1150 0.913 . S
H1170 C1188 0.951 . S
H1171 C1190 0.951 . S
H1172 C1192 0.950 . S
H1173 C1193 0.950 . S
H1174 C1195 0.950 . S
H1175 C1198 0.950 . S
H1176 C1199 0.950 . S
H1177 C1201 0.950 . S
H1178 C1202 0.950 . S
H1179 C1203 0.951 . S
H1180 C1205 0.951 . S
H1181 C1207 0.950 . S
H1182 C1208 0.950 . S
H1183 C1210 0.950 . S
H1184 C1213 0.950 . S
H1185 C1214 0.950 . S
H1186 C1216 0.950 . S
H1187 C1217 0.950 . S
C1188 H1170 0.951 . S
C1188 C1189 1.366 . S
C1188 C1190 1.388 . S
C1189 C1188 1.366 . S
C1189 C1193 1.385 . S
C1190 H1171 0.951 . S
C1190 C1188 1.388 . S
C1190 C1191 1.366 . S
C1191 C1190 1.366 . S
C1191 C1192 1.414 . S
C1191 C1194 1.499 . S
C1192 H1172 0.950 . S
C1192 C1191 1.414 . S
C1192 C1193 1.374 . S
C1193 H1173 0.950 . S
C1193 C1189 1.385 . S
C1193 C1192 1.374 . S
C1194 C1191 1.499 . S
C1194 C1195 1.373 . S
C1194 C1196 1.389 . S
C1195 H1174 0.950 . S
C1195 C1194 1.373 . S
C1195 C1211 1.377 . S
C1196 C1194 1.389 . S
C1196 C1197 1.524 . S
C1196 C1210 1.377 . S
C1197 C1196 1.524 . S
C1197 C1198 1.397 . S
C1197 C1202 1.363 . S
C1198 H1175 0.950 . S
C1198 C1197 1.397 . S
C1198 C1199 1.334 . S
C1199 H1176 0.950 . S
C1199 C1198 1.334 . S
C1199 C1200 1.287 . S
C1200 C1199 1.287 . S
C1200 C1201 1.524 . S
C1200 H1219 0.913 . S
C1201 H1177 0.950 . S
C1201 C1200 1.524 . S
C1201 C1202 1.415 . S
C1202 H1178 0.950 . S
C1202 C1197 1.363 . S
C1202 C1201 1.415 . S
C1203 H1179 0.951 . S
C1203 C1204 1.366 . S
C1203 C1205 1.388 . S
C1204 C1203 1.366 . S
C1204 C1208 1.385 . S
C1205 H1180 0.951 . S
C1205 C1203 1.388 . S
C1205 C1206 1.366 . S
C1206 C1205 1.366 . S
C1206 C1207 1.414 . S
C1206 C1209 1.499 . S
C1207 H1181 0.950 . S
C1207 C1206 1.414 . S
C1207 C1208 1.374 . S
C1208 H1182 0.950 . S
C1208 C1204 1.385 . S
C1208 C1207 1.374 . S
C1209 C1206 1.499 . S
C1209 C1210 1.373 . S
C1209 C1211 1.389 . S
C1210 H1183 0.950 . S
C1210 C1196 1.377 . S
C1210 C1209 1.373 . S
C1211 C1195 1.377 . S
C1211 C1209 1.389 . S
C1211 C1212 1.524 . S
C1212 C1211 1.524 . S
C1212 C1213 1.397 . S
C1212 C1217 1.363 . S
C1213 H1184 0.950 . S
C1213 C1212 1.397 . S
C1213 C1214 1.334 . S
C1214 H1185 0.950 . S
C1214 C1213 1.334 . S
C1214 C1215 1.287 . S
C1215 C1214 1.287 . S
C1215 C1216 1.524 . S
C1215 H1218 0.999 . S
C1216 H1186 0.950 . S
C1216 C1215 1.524 . S
C1216 C1217 1.415 . S
C1217 H1187 0.950 . S
C1217 C1212 1.363 . S
C1217 C1216 1.415 . S
H1218 C1215 0.999 . S
H1219 C1200 0.913 . S
H1220 C1238 0.951 . S
H1221 C1240 0.951 . S
H1222 C1242 0.950 . S
H1223 C1243 0.950 . S
H1224 C1245 0.950 . S
H1225 C1248 0.950 . S
H1226 C1249 0.950 . S
H1227 C1251 0.950 . S
H1228 C1252 0.950 . S
H1229 C1253 0.951 . S
H1230 C1255 0.951 . S
H1231 C1257 0.950 . S
H1232 C1258 0.950 . S
H1233 C1260 0.950 . S
H1234 C1263 0.950 . S
H1235 C1264 0.950 . S
H1236 C1266 0.950 . S
H1237 C1267 0.950 . S
C1238 H1220 0.951 . S
C1238 C1239 1.366 . S
C1238 C1240 1.388 . S
C1239 C1238 1.366 . S
C1239 C1243 1.385 . S
C1240 H1221 0.951 . S
C1240 C1238 1.388 . S
C1240 C1241 1.366 . S
C1241 C1240 1.366 . S
C1241 C1242 1.414 . S
C1241 C1244 1.499 . S
C1242 H1222 0.950 . S
C1242 C1241 1.414 . S
C1242 C1243 1.374 . S
C1243 H1223 0.950 . S
C1243 C1239 1.385 . S
C1243 C1242 1.374 . S
C1244 C1241 1.499 . S
C1244 C1245 1.373 . S
C1244 C1246 1.389 . S
C1245 H1224 0.950 . S
C1245 C1244 1.373 . S
C1245 C1261 1.377 . S
C1246 C1244 1.389 . S
C1246 C1247 1.524 . S
C1246 C1260 1.377 . S
C1247 C1246 1.524 . S
C1247 C1248 1.397 . S
C1247 C1252 1.363 . S
C1248 H1225 0.950 . S
C1248 C1247 1.397 . S
C1248 C1249 1.334 . S
C1249 H1226 0.950 . S
C1249 C1248 1.334 . S
C1249 C1250 1.287 . S
C1250 C1249 1.287 . S
C1250 C1251 1.524 . S
C1250 H1269 0.913 . S
C1251 H1227 0.950 . S
C1251 C1250 1.524 . S
C1251 C1252 1.415 . S
C1252 H1228 0.950 . S
C1252 C1247 1.363 . S
C1252 C1251 1.415 . S
C1253 H1229 0.951 . S
C1253 C1254 1.366 . S
C1253 C1255 1.388 . S
C1254 C1253 1.366 . S
C1254 C1258 1.385 . S
C1255 H1230 0.951 . S
C1255 C1253 1.388 . S
C1255 C1256 1.366 . S
C1256 C1255 1.366 . S
C1256 C1257 1.414 . S
C1256 C1259 1.499 . S
C1257 H1231 0.950 . S
C1257 C1256 1.414 . S
C1257 C1258 1.374 . S
C1258 H1232 0.950 . S
C1258 C1254 1.385 . S
C1258 C1257 1.374 . S
C1259 C1256 1.499 . S
C1259 C1260 1.373 . S
C1259 C1261 1.389 . S
C1260 H1233 0.950 . S
C1260 C1246 1.377 . S
C1260 C1259 1.373 . S
C1261 C1245 1.377 . S
C1261 C1259 1.389 . S
C1261 C1262 1.524 . S
C1262 C1261 1.524 . S
C1262 C1263 1.397 . S
C1262 C1267 1.363 . S
C1263 H1234 0.950 . S
C1263 C1262 1.397 . S
C1263 C1264 1.334 . S
C1264 H1235 0.950 . S
C1264 C1263 1.334 . S
C1264 C1265 1.287 . S
C1265 C1264 1.287 . S
C1265 C1266 1.524 . S
C1265 H1268 0.999 . S
C1266 H1236 0.950 . S
C1266 C1265 1.524 . S
C1266 C1267 1.415 . S
C1267 H1237 0.950 . S
C1267 C1262 1.363 . S
C1267 C1266 1.415 . S
H1268 C1265 0.999 . S
H1269 C1250 0.913 . S
H1270 C1288 0.951 . S
H1271 C1290 0.951 . S
H1272 C1292 0.950 . S
H1273 C1293 0.950 . S
H1274 C1295 0.950 . S
H1275 C1298 0.950 . S
H1276 C1299 0.950 . S
H1277 C1301 0.950 . S
H1278 C1302 0.950 . S
H1279 C1303 0.951 . S
H1280 C1305 0.951 . S
H1281 C1307 0.950 . S
H1282 C1308 0.950 . S
H1283 C1310 0.950 . S
H1284 C1313 0.950 . S
H1285 C1314 0.950 . S
H1286 C1316 0.950 . S
H1287 C1317 0.950 . S
C1288 H1270 0.951 . S
C1288 C1289 1.366 . S
C1288 C1290 1.388 . S
C1289 C1288 1.366 . S
C1289 C1293 1.385 . S
C1290 H1271 0.951 . S
C1290 C1288 1.388 . S
C1290 C1291 1.366 . S
C1291 C1290 1.366 . S
C1291 C1292 1.414 . S
C1291 C1294 1.499 . S
C1292 H1272 0.950 . S
C1292 C1291 1.414 . S
C1292 C1293 1.374 . S
C1293 H1273 0.950 . S
C1293 C1289 1.385 . S
C1293 C1292 1.374 . S
C1294 C1291 1.499 . S
C1294 C1295 1.373 . S
C1294 C1296 1.389 . S
C1295 H1274 0.950 . S
C1295 C1294 1.373 . S
C1295 C1311 1.377 . S
C1296 C1294 1.389 . S
C1296 C1297 1.524 . S
C1296 C1310 1.377 . S
C1297 C1296 1.524 . S
C1297 C1298 1.397 . S
C1297 C1302 1.363 . S
C1298 H1275 0.950 . S
C1298 C1297 1.397 . S
C1298 C1299 1.334 . S
C1299 H1276 0.950 . S
C1299 C1298 1.334 . S
C1299 C1300 1.287 . S
C1300 C1299 1.287 . S
C1300 C1301 1.524 . S
C1300 H1319 0.913 . S
C1301 H1277 0.950 . S
C1301 C1300 1.524 . S
C1301 C1302 1.415 . S
C1302 H1278 0.950 . S
C1302 C1297 1.363 . S
C1302 C1301 1.415 . S
C1303 H1279 0.951 . S
C1303 C1304 1.366 . S
C1303 C1305 1.388 . S
C1304 C1303 1.366 . S
C1304 C1308 1.385 . S
C1305 H1280 0.951 . S
C1305 C1303 1.388 . S
C1305 C1306 1.366 . S
C1306 C1305 1.366 . S
C1306 C1307 1.414 . S
C1306 C1309 1.499 . S
C1307 H1281 0.950 . S
C1307 C1306 1.414 . S
C1307 C1308 1.374 . S
C1308 H1282 0.950 . S
C1308 C1304 1.385 . S
C1308 C1307 1.374 . S
C1309 C1306 1.499 . S
C1309 C1310 1.373 . S
C1309 C1311 1.389 . S
C1310 H1283 0.950 . S
C1310 C1296 1.377 . S
C1310 C1309 1.373 . S
C1311 C1295 1.377 . S
C1311 C1309 1.389 . S
C1311 C1312 1.524 . S
C1312 C1311 1.524 . S
C1312 C1313 1.397 . S
C1312 C1317 1.363 . S
C1313 H1284 0.950 . S
C1313 C1312 1.397 . S
C1313 C1314 1.334 . S
C1314 H1285 0.950 . S
C1314 C1313 1.334 . S
C1314 C1315 1.287 . S
C1315 C1314 1.287 . S
C1315 C1316 1.524 . S
C1315 H1318 0.999 . S
C1316 H1286 0.950 . S
C1316 C1315 1.524 . S
C1316 C1317 1.415 . S
C1317 H1287 0.950 . S
C1317 C1312 1.363 . S
C1317 C1316 1.415 . S
H1318 C1315 0.999 . S
H1319 C1300 0.913 . S
H1320 C1338 0.951 . S
H1321 C1340 0.951 . S
H1322 C1342 0.950 . S
H1323 C1343 0.950 . S
H1324 C1345 0.950 . S
H1325 C1348 0.950 . S
H1326 C1349 0.950 . S
H1327 C1351 0.950 . S
H1328 C1352 0.950 . S
H1329 C1353 0.951 . S
H1330 C1355 0.951 . S
H1331 C1357 0.950 . S
H1332 C1358 0.950 . S
H1333 C1360 0.950 . S
H1334 C1363 0.950 . S
H1335 C1364 0.950 . S
H1336 C1366 0.950 . S
H1337 C1367 0.950 . S
C1338 H1320 0.951 . S
C1338 C1339 1.366 . S
C1338 C1340 1.388 . S
C1339 C1338 1.366 . S
C1339 C1343 1.385 . S
C1340 H1321 0.951 . S
C1340 C1338 1.388 . S
C1340 C1341 1.366 . S
C1341 C1340 1.366 . S
C1341 C1342 1.414 . S
C1341 C1344 1.499 . S
C1342 H1322 0.950 . S
C1342 C1341 1.414 . S
C1342 C1343 1.374 . S
C1343 H1323 0.950 . S
C1343 C1339 1.385 . S
C1343 C1342 1.374 . S
C1344 C1341 1.499 . S
C1344 C1345 1.373 . S
C1344 C1346 1.389 . S
C1345 H1324 0.950 . S
C1345 C1344 1.373 . S
C1345 C1361 1.377 . S
C1346 C1344 1.389 . S
C1346 C1347 1.524 . S
C1346 C1360 1.377 . S
C1347 C1346 1.524 . S
C1347 C1348 1.397 . S
C1347 C1352 1.363 . S
C1348 H1325 0.950 . S
C1348 C1347 1.397 . S
C1348 C1349 1.334 . S
C1349 H1326 0.950 . S
C1349 C1348 1.334 . S
C1349 C1350 1.287 . S
C1350 C1349 1.287 . S
C1350 C1351 1.524 . S
C1350 H1369 0.913 . S
C1351 H1327 0.950 . S
C1351 C1350 1.524 . S
C1351 C1352 1.415 . S
C1352 H1328 0.950 . S
C1352 C1347 1.363 . S
C1352 C1351 1.415 . S
C1353 H1329 0.951 . S
C1353 C1354 1.366 . S
C1353 C1355 1.388 . S
C1354 C1353 1.366 . S
C1354 C1358 1.385 . S
C1355 H1330 0.951 . S
C1355 C1353 1.388 . S
C1355 C1356 1.366 . S
C1356 C1355 1.366 . S
C1356 C1357 1.414 . S
C1356 C1359 1.499 . S
C1357 H1331 0.950 . S
C1357 C1356 1.414 . S
C1357 C1358 1.374 . S
C1358 H1332 0.950 . S
C1358 C1354 1.385 . S
C1358 C1357 1.374 . S
C1359 C1356 1.499 . S
C1359 C1360 1.373 . S
C1359 C1361 1.389 . S
C1360 H1333 0.950 . S
C1360 C1346 1.377 . S
C1360 C1359 1.373 . S
C1361 C1345 1.377 . S
C1361 C1359 1.389 . S
C1361 C1362 1.524 . S
C1362 C1361 1.524 . S
C1362 C1363 1.397 . S
C1362 C1367 1.363 . S
C1363 H1334 0.950 . S
C1363 C1362 1.397 . S
C1363 C1364 1.334 . S
C1364 H1335 0.950 . S
C1364 C1363 1.334 . S
C1364 C1365 1.287 . S
C1365 C1364 1.287 . S
C1365 C1366 1.524 . S
C1365 H1368 0.999 . S
C1366 H1336 0.950 . S
C1366 C1365 1.524 . S
C1366 C1367 1.415 . S
C1367 H1337 0.950 . S
C1367 C1362 1.363 . S
C1367 C1366 1.415 . S
H1368 C1365 0.999 . S
H1369 C1350 0.913 . S
H1370 C1388 0.951 . S
H1371 C1390 0.951 . S
H1372 C1392 0.950 . S
H1373 C1393 0.950 . S
H1374 C1395 0.950 . S
H1375 C1398 0.950 . S
H1376 C1399 0.950 . S
H1377 C1401 0.950 . S
H1378 C1402 0.950 . S
H1379 C1403 0.951 . S
H1380 C1405 0.951 . S
H1381 C1407 0.950 . S
H1382 C1408 0.950 . S
H1383 C1410 0.950 . S
H1384 C1413 0.950 . S
H1385 C1414 0.950 . S
H1386 C1416 0.950 . S
H1387 C1417 0.950 . S
C1388 H1370 0.951 . S
C1388 C1389 1.366 . S
C1388 C1390 1.388 . S
C1389 C1388 1.366 . S
C1389 C1393 1.385 . S
C1390 H1371 0.951 . S
C1390 C1388 1.388 . S
C1390 C1391 1.366 . S
C1391 C1390 1.366 . S
C1391 C1392 1.414 . S
C1391 C1394 1.499 . S
C1392 H1372 0.950 . S
C1392 C1391 1.414 . S
C1392 C1393 1.374 . S
C1393 H1373 0.950 . S
C1393 C1389 1.385 . S
C1393 C1392 1.374 . S
C1394 C1391 1.499 . S
C1394 C1395 1.373 . S
C1394 C1396 1.389 . S
C1395 H1374 0.950 . S
C1395 C1394 1.373 . S
C1395 C1411 1.377 . S
C1396 C1394 1.389 . S
C1396 C1397 1.524 . S
C1396 C1410 1.377 . S
C1397 C1396 1.524 . S
C1397 C1398 1.397 . S
C1397 C1402 1.363 . S
C1398 H1375 0.950 . S
C1398 C1397 1.397 . S
C1398 C1399 1.334 . S
C1399 H1376 0.950 . S
C1399 C1398 1.334 . S
C1399 C1400 1.287 . S
C1400 C1399 1.287 . S
C1400 C1401 1.524 . S
C1400 H1419 0.913 . S
C1401 H1377 0.950 . S
C1401 C1400 1.524 . S
C1401 C1402 1.415 . S
C1402 H1378 0.950 . S
C1402 C1397 1.363 . S
C1402 C1401 1.415 . S
C1403 H1379 0.951 . S
C1403 C1404 1.366 . S
C1403 C1405 1.388 . S
C1404 C1403 1.366 . S
C1404 C1408 1.385 . S
C1405 H1380 0.951 . S
C1405 C1403 1.388 . S
C1405 C1406 1.366 . S
C1406 C1405 1.366 . S
C1406 C1407 1.414 . S
C1406 C1409 1.499 . S
C1407 H1381 0.950 . S
C1407 C1406 1.414 . S
C1407 C1408 1.374 . S
C1408 H1382 0.950 . S
C1408 C1404 1.385 . S
C1408 C1407 1.374 . S
C1409 C1406 1.499 . S
C1409 C1410 1.373 . S
C1409 C1411 1.389 . S
C1410 H1383 0.950 . S
C1410 C1396 1.377 . S
C1410 C1409 1.373 . S
C1411 C1395 1.377 . S
C1411 C1409 1.389 . S
C1411 C1412 1.524 . S
C1412 C1411 1.524 . S
C1412 C1413 1.397 . S
C1412 C1417 1.363 . S
C1413 H1384 0.950 . S
C1413 C1412 1.397 . S
C1413 C1414 1.334 . S
C1414 H1385 0.950 . S
C1414 C1413 1.334 . S
C1414 C1415 1.287 . S
C1415 C1414 1.287 . S
C1415 C1416 1.524 . S
C1415 H1418 0.999 . S
C1416 H1386 0.950 . S
C1416 C1415 1.524 . S
C1416 C1417 1.415 . S
C1417 H1387 0.950 . S
C1417 C1412 1.363 . S
C1417 C1416 1.415 . S
H1418 C1415 0.999 . S
H1419 C1400 0.913 . S
H1420 C1438 0.951 . S
H1421 C1440 0.951 . S
H1422 C1442 0.950 . S
H1423 C1443 0.950 . S
H1424 C1445 0.950 . S
H1425 C1448 0.950 . S
H1426 C1449 0.950 . S
H1427 C1451 0.950 . S
H1428 C1452 0.950 . S
H1429 C1453 0.951 . S
H1430 C1455 0.951 . S
H1431 C1457 0.950 . S
H1432 C1458 0.950 . S
H1433 C1460 0.950 . S
H1434 C1463 0.950 . S
H1435 C1464 0.950 . S
H1436 C1466 0.950 . S
H1437 C1467 0.950 . S
C1438 H1420 0.951 . S
C1438 C1439 1.366 . S
C1438 C1440 1.388 . S
C1439 C1438 1.366 . S
C1439 C1443 1.385 . S
C1440 H1421 0.951 . S
C1440 C1438 1.388 . S
C1440 C1441 1.366 . S
C1441 C1440 1.366 . S
C1441 C1442 1.414 . S
C1441 C1444 1.499 . S
C1442 H1422 0.950 . S
C1442 C1441 1.414 . S
C1442 C1443 1.374 . S
C1443 H1423 0.950 . S
C1443 C1439 1.385 . S
C1443 C1442 1.374 . S
C1444 C1441 1.499 . S
C1444 C1445 1.373 . S
C1444 C1446 1.389 . S
C1445 H1424 0.950 . S
C1445 C1444 1.373 . S
C1445 C1461 1.377 . S
C1446 C1444 1.389 . S
C1446 C1447 1.524 . S
C1446 C1460 1.377 . S
C1447 C1446 1.524 . S
C1447 C1448 1.397 . S
C1447 C1452 1.363 . S
C1448 H1425 0.950 . S
C1448 C1447 1.397 . S
C1448 C1449 1.334 . S
C1449 H1426 0.950 . S
C1449 C1448 1.334 . S
C1449 C1450 1.287 . S
C1450 C1449 1.287 . S
C1450 C1451 1.524 . S
C1450 H1469 0.913 . S
C1451 H1427 0.950 . S
C1451 C1450 1.524 . S
C1451 C1452 1.415 . S
C1452 H1428 0.950 . S
C1452 C1447 1.363 . S
C1452 C1451 1.415 . S
C1453 H1429 0.951 . S
C1453 C1454 1.366 . S
C1453 C1455 1.388 . S
C1454 C1453 1.366 . S
C1454 C1458 1.385 . S
C1455 H1430 0.951 . S
C1455 C1453 1.388 . S
C1455 C1456 1.366 . S
C1456 C1455 1.366 . S
C1456 C1457 1.414 . S
C1456 C1459 1.499 . S
C1457 H1431 0.950 . S
C1457 C1456 1.414 . S
C1457 C1458 1.374 . S
C1458 H1432 0.950 . S
C1458 C1454 1.385 . S
C1458 C1457 1.374 . S
C1459 C1456 1.499 . S
C1459 C1460 1.373 . S
C1459 C1461 1.389 . S
C1460 H1433 0.950 . S
C1460 C1446 1.377 . S
C1460 C1459 1.373 . S
C1461 C1445 1.377 . S
C1461 C1459 1.389 . S
C1461 C1462 1.524 . S
C1462 C1461 1.524 . S
C1462 C1463 1.397 . S
C1462 C1467 1.363 . S
C1463 H1434 0.950 . S
C1463 C1462 1.397 . S
C1463 C1464 1.334 . S
C1464 H1435 0.950 . S
C1464 C1463 1.334 . S
C1464 C1465 1.287 . S
C1465 C1464 1.287 . S
C1465 C1466 1.524 . S
C1465 H1468 0.999 . S
C1466 H1436 0.950 . S
C1466 C1465 1.524 . S
C1466 C1467 1.415 . S
C1467 H1437 0.950 . S
C1467 C1462 1.363 . S
C1467 C1466 1.415 . S
H1468 C1465 0.999 . S
H1469 C1450 0.913 . S
H1470 C1488 0.951 . S
H1471 C1490 0.951 . S
H1472 C1492 0.950 . S
H1473 C1493 0.950 . S
H1474 C1495 0.950 . S
H1475 C1498 0.950 . S
H1476 C1499 0.950 . S
H1477 C1501 0.950 . S
H1478 C1502 0.950 . S
H1479 C1503 0.951 . S
H1480 C1505 0.951 . S
H1481 C1507 0.950 . S
H1482 C1508 0.950 . S
H1483 C1510 0.950 . S
H1484 C1513 0.950 . S
H1485 C1514 0.950 . S
H1486 C1516 0.950 . S
H1487 C1517 0.950 . S
C1488 H1470 0.951 . S
C1488 C1489 1.366 . S
C1488 C1490 1.388 . S
C1489 C1488 1.366 . S
C1489 C1493 1.385 . S
C1490 H1471 0.951 . S
C1490 C1488 1.388 . S
C1490 C1491 1.366 . S
C1491 C1490 1.366 . S
C1491 C1492 1.414 . S
C1491 C1494 1.499 . S
C1492 H1472 0.950 . S
C1492 C1491 1.414 . S
C1492 C1493 1.374 . S
C1493 H1473 0.950 . S
C1493 C1489 1.385 . S
C1493 C1492 1.374 . S
C1494 C1491 1.499 . S
C1494 C1495 1.373 . S
C1494 C1496 1.389 . S
C1495 H1474 0.950 . S
C1495 C1494 1.373 . S
C1495 C1511 1.377 . S
C1496 C1494 1.389 . S
C1496 C1497 1.524 . S
C1496 C1510 1.377 . S
C1497 C1496 1.524 . S
C1497 C1498 1.397 . S
C1497 C1502 1.363 . S
C1498 H1475 0.950 . S
C1498 C1497 1.397 . S
C1498 C1499 1.334 . S
C1499 H1476 0.950 . S
C1499 C1498 1.334 . S
C1499 C1500 1.287 . S
C1500 C1499 1.287 . S
C1500 C1501 1.524 . S
C1500 H1519 0.913 . S
C1501 H1477 0.950 . S
C1501 C1500 1.524 . S
C1501 C1502 1.415 . S
C1502 H1478 0.950 . S
C1502 C1497 1.363 . S
C1502 C1501 1.415 . S
C1503 H1479 0.951 . S
C1503 C1504 1.366 . S
C1503 C1505 1.388 . S
C1504 C1503 1.366 . S
C1504 C1508 1.385 . S
C1505 H1480 0.951 . S
C1505 C1503 1.388 . S
C1505 C1506 1.366 . S
C1506 C1505 1.366 . S
C1506 C1507 1.414 . S
C1506 C1509 1.499 . S
C1507 H1481 0.950 . S
C1507 C1506 1.414 . S
C1507 C1508 1.374 . S
C1508 H1482 0.950 . S
C1508 C1504 1.385 . S
C1508 C1507 1.374 . S
C1509 C1506 1.499 . S
C1509 C1510 1.373 . S
C1509 C1511 1.389 . S
C1510 H1483 0.950 . S
C1510 C1496 1.377 . S
C1510 C1509 1.373 . S
C1511 C1495 1.377 . S
C1511 C1509 1.389 . S
C1511 C1512 1.524 . S
C1512 C1511 1.524 . S
C1512 C1513 1.397 . S
C1512 C1517 1.363 . S
C1513 H1484 0.950 . S
C1513 C1512 1.397 . S
C1513 C1514 1.334 . S
C1514 H1485 0.950 . S
C1514 C1513 1.334 . S
C1514 C1515 1.287 . S
C1515 C1514 1.287 . S
C1515 C1516 1.524 . S
C1515 H1518 0.999 . S
C1516 H1486 0.950 . S
C1516 C1515 1.524 . S
C1516 C1517 1.415 . S
C1517 H1487 0.950 . S
C1517 C1512 1.363 . S
C1517 C1516 1.415 . S
H1518 C1515 0.999 . S
H1519 C1500 0.913 . S
H1520 C1538 0.951 . S
H1521 C1540 0.951 . S
H1522 C1542 0.950 . S
H1523 C1543 0.950 . S
H1524 C1545 0.950 . S
H1525 C1548 0.950 . S
H1526 C1549 0.950 . S
H1527 C1551 0.950 . S
H1528 C1552 0.950 . S
H1529 C1553 0.951 . S
H1530 C1555 0.951 . S
H1531 C1557 0.950 . S
H1532 C1558 0.950 . S
H1533 C1560 0.950 . S
H1534 C1563 0.950 . S
H1535 C1564 0.950 . S
H1536 C1566 0.950 . S
H1537 C1567 0.950 . S
C1538 H1520 0.951 . S
C1538 C1539 1.366 . S
C1538 C1540 1.388 . S
C1539 C1538 1.366 . S
C1539 C1543 1.385 . S
C1540 H1521 0.951 . S
C1540 C1538 1.388 . S
C1540 C1541 1.366 . S
C1541 C1540 1.366 . S
C1541 C1542 1.414 . S
C1541 C1544 1.499 . S
C1542 H1522 0.950 . S
C1542 C1541 1.414 . S
C1542 C1543 1.374 . S
C1543 H1523 0.950 . S
C1543 C1539 1.385 . S
C1543 C1542 1.374 . S
C1544 C1541 1.499 . S
C1544 C1545 1.373 . S
C1544 C1546 1.389 . S
C1545 H1524 0.950 . S
C1545 C1544 1.373 . S
C1545 C1561 1.377 . S
C1546 C1544 1.389 . S
C1546 C1547 1.524 . S
C1546 C1560 1.377 . S
C1547 C1546 1.524 . S
C1547 C1548 1.397 . S
C1547 C1552 1.363 . S
C1548 H1525 0.950 . S
C1548 C1547 1.397 . S
C1548 C1549 1.334 . S
C1549 H1526 0.950 . S
C1549 C1548 1.334 . S
C1549 C1550 1.287 . S
C1550 C1549 1.287 . S
C1550 C1551 1.524 . S
C1550 H1569 0.913 . S
C1551 H1527 0.950 . S
C1551 C1550 1.524 . S
C1551 C1552 1.415 . S
C1552 H1528 0.950 . S
C1552 C1547 1.363 . S
C1552 C1551 1.415 . S
C1553 H1529 0.951 . S
C1553 C1554 1.366 . S
C1553 C1555 1.388 . S
C1554 C1553 1.366 . S
C1554 C1558 1.385 . S
C1555 H1530 0.951 . S
C1555 C1553 1.388 . S
C1555 C1556 1.366 . S
C1556 C1555 1.366 . S
C1556 C1557 1.414 . S
C1556 C1559 1.499 . S
C1557 H1531 0.950 . S
C1557 C1556 1.414 . S
C1557 C1558 1.374 . S
C1558 H1532 0.950 . S
C1558 C1554 1.385 . S
C1558 C1557 1.374 . S
C1559 C1556 1.499 . S
C1559 C1560 1.373 . S
C1559 C1561 1.389 . S
C1560 H1533 0.950 . S
C1560 C1546 1.377 . S
C1560 C1559 1.373 . S
C1561 C1545 1.377 . S
C1561 C1559 1.389 . S
C1561 C1562 1.524 . S
C1562 C1561 1.524 . S
C1562 C1563 1.397 . S
C1562 C1567 1.363 . S
C1563 H1534 0.950 . S
C1563 C1562 1.397 . S
C1563 C1564 1.334 . S
C1564 H1535 0.950 . S
C1564 C1563 1.334 . S
C1564 C1565 1.287 . S
C1565 C1564 1.287 . S
C1565 C1566 1.524 . S
C1565 H1568 0.999 . S
C1566 H1536 0.950 . S
C1566 C1565 1.524 . S
C1566 C1567 1.415 . S
C1567 H1537 0.950 . S
C1567 C1562 1.363 . S
C1567 C1566 1.415 . S
H1568 C1565 0.999 . S
H1569 C1550 0.913 . S
H1570 C1588 0.951 . S
H1571 C1590 0.951 . S
H1572 C1592 0.950 . S
H1573 C1593 0.950 . S
H1574 C1595 0.950 . S
H1575 C1598 0.950 . S
H1576 C1599 0.950 . S
H1577 C1601 0.950 . S
H1578 C1602 0.950 . S
H1579 C1603 0.951 . S
H1580 C1605 0.951 . S
H1581 C1607 0.950 . S
H1582 C1608 0.950 . S
H1583 C1610 0.950 . S
H1584 C1613 0.950 . S
H1585 C1614 0.950 . S
H1586 C1616 0.950 . S
H1587 C1617 0.950 . S
C1588 H1570 0.951 . S
C1588 C1589 1.366 . S
C1588 C1590 1.388 . S
C1589 C1588 1.366 . S
C1589 C1593 1.385 . S
C1590 H1571 0.951 . S
C1590 C1588 1.388 . S
C1590 C1591 1.366 . S
C1591 C1590 1.366 . S
C1591 C1592 1.414 . S
C1591 C1594 1.499 . S
C1592 H1572 0.950 . S
C1592 C1591 1.414 . S
C1592 C1593 1.374 . S
C1593 H1573 0.950 . S
C1593 C1589 1.385 . S
C1593 C1592 1.374 . S
C1594 C1591 1.499 . S
C1594 C1595 1.373 . S
C1594 C1596 1.389 . S
C1595 H1574 0.950 . S
C1595 C1594 1.373 . S
C1595 C1611 1.377 . S
C1596 C1594 1.389 . S
C1596 C1597 1.524 . S
C1596 C1610 1.377 . S
C1597 C1596 1.524 . S
C1597 C1598 1.397 . S
C1597 C1602 1.363 . S
C1598 H1575 0.950 . S
C1598 C1597 1.397 . S
C1598 C1599 1.334 . S
C1599 H1576 0.950 . S
C1599 C1598 1.334 . S
C1599 C1600 1.287 . S
C1600 C1599 1.287 . S
C1600 C1601 1.524 . S
C1600 H1619 0.913 . S
C1601 H1577 0.950 . S
C1601 C1600 1.524 . S
C1601 C1602 1.415 . S
C1602 H1578 0.950 . S
C1602 C1597 1.363 . S
C1602 C1601 1.415 . S
C1603 H1579 0.951 . S
C1603 C1604 1.366 . S
C1603 C1605 1.388 . S
C1604 C1603 1.366 . S
C1604 C1608 1.385 . S
C1605 H1580 0.951 . S
C1605 C1603 1.388 . S
C1605 C1606 1.366 . S
C1606 C1605 1.366 . S
C1606 C1607 1.414 . S
C1606 C1609 1.499 . S
C1607 H1581 0.950 . S
C1607 C1606 1.414 . S
C1607 C1608 1.374 . S
C1608 H1582 0.950 . S
C1608 C1604 1.385 . S
C1608 C1607 1.374 . S
C1609 C1606 1.499 . S
C1609 C1610 1.373 . S
C1609 C1611 1.389 . S
C1610 H1583 0.950 . S
C1610 C1596 1.377 . S
C1610 C1609 1.373 . S
C1611 C1595 1.377 . S
C1611 C1609 1.389 . S
C1611 C1612 1.524 . S
C1612 C1611 1.524 . S
C1612 C1613 1.397 . S
C1612 C1617 1.363 . S
C1613 H1584 0.950 . S
C1613 C1612 1.397 . S
C1613 C1614 1.334 . S
C1614 H1585 0.950 . S
C1614 C1613 1.334 . S
C1614 C1615 1.287 . S
C1615 C1614 1.287 . S
C1615 C1616 1.524 . S
C1615 H1618 0.999 . S
C1616 H1586 0.950 . S
C1616 C1615 1.524 . S
C1616 C1617 1.415 . S
C1617 H1587 0.950 . S
C1617 C1612 1.363 . S
C1617 C1616 1.415 . S
H1618 C1615 0.999 . S
H1619 C1600 0.913 . S
H1620 C1638 0.951 . S
H1621 C1640 0.951 . S
H1622 C1642 0.950 . S
H1623 C1643 0.950 . S
H1624 C1645 0.950 . S
H1625 C1648 0.950 . S
H1626 C1649 0.950 . S
H1627 C1651 0.950 . S
H1628 C1652 0.950 . S
H1629 C1653 0.951 . S
H1630 C1655 0.951 . S
H1631 C1657 0.950 . S
H1632 C1658 0.950 . S
H1633 C1660 0.950 . S
H1634 C1663 0.950 . S
H1635 C1664 0.950 . S
H1636 C1666 0.950 . S
H1637 C1667 0.950 . S
C1638 H1620 0.951 . S
C1638 C1639 1.366 . S
C1638 C1640 1.388 . S
C1639 C1638 1.366 . S
C1639 C1643 1.385 . S
C1640 H1621 0.951 . S
C1640 C1638 1.388 . S
C1640 C1641 1.366 . S
C1641 C1640 1.366 . S
C1641 C1642 1.414 . S
C1641 C1644 1.499 . S
C1642 H1622 0.950 . S
C1642 C1641 1.414 . S
C1642 C1643 1.374 . S
C1643 H1623 0.950 . S
C1643 C1639 1.385 . S
C1643 C1642 1.374 . S
C1644 C1641 1.499 . S
C1644 C1645 1.373 . S
C1644 C1646 1.389 . S
C1645 H1624 0.950 . S
C1645 C1644 1.373 . S
C1645 C1661 1.377 . S
C1646 C1644 1.389 . S
C1646 C1647 1.524 . S
C1646 C1660 1.377 . S
C1647 C1646 1.524 . S
C1647 C1648 1.397 . S
C1647 C1652 1.363 . S
C1648 H1625 0.950 . S
C1648 C1647 1.397 . S
C1648 C1649 1.334 . S
C1649 H1626 0.950 . S
C1649 C1648 1.334 . S
C1649 C1650 1.287 . S
C1650 C1649 1.287 . S
C1650 C1651 1.524 . S
C1650 H1669 0.913 . S
C1651 H1627 0.950 . S
C1651 C1650 1.524 . S
C1651 C1652 1.415 . S
C1652 H1628 0.950 . S
C1652 C1647 1.363 . S
C1652 C1651 1.415 . S
C1653 H1629 0.951 . S
C1653 C1654 1.366 . S
C1653 C1655 1.388 . S
C1654 C1653 1.366 . S
C1654 C1658 1.385 . S
C1655 H1630 0.951 . S
C1655 C1653 1.388 . S
C1655 C1656 1.366 . S
C1656 C1655 1.366 . S
C1656 C1657 1.414 . S
C1656 C1659 1.499 . S
C1657 H1631 0.950 . S
C1657 C1656 1.414 . S
C1657 C1658 1.374 . S
C1658 H1632 0.950 . S
C1658 C1654 1.385 . S
C1658 C1657 1.374 . S
C1659 C1656 1.499 . S
C1659 C1660 1.373 . S
C1659 C1661 1.389 . S
C1660 H1633 0.950 . S
C1660 C1646 1.377 . S
C1660 C1659 1.373 . S
C1661 C1645 1.377 . S
C1661 C1659 1.389 . S
C1661 C1662 1.524 . S
C1662 C1661 1.524 . S
C1662 C1663 1.397 . S
C1662 C1667 1.363 . S
C1663 H1634 0.950 . S
C1663 C1662 1.397 . S
C1663 C1664 1.334 . S
C1664 H1635 0.950 . S
C1664 C1663 1.334 . S
C1664 C1665 1.287 . S
C1665 C1664 1.287 . S
C1665 C1666 1.524 . S
C1665 H1668 0.999 . S
C1666 H1636 0.950 . S
C1666 C1665 1.524 . S
C1666 C1667 1.415 . S
C1667 H1637 0.950 . S
C1667 C1662 1.363 . S
C1667 C1666 1.415 . S
H1668 C1665 0.999 . S
H1669 C1650 0.913 . S
H1670 C1688 0.951 . S
H1671 C1690 0.951 . S
H1672 C1692 0.950 . S
H1673 C1693 0.950 . S
H1674 C1695 0.950 . S
H1675 C1698 0.950 . S
H1676 C1699 0.950 . S
H1677 C1701 0.950 . S
H1678 C1702 0.950 . S
H1679 C1703 0.951 . S
H1680 C1705 0.951 . S
H1681 C1707 0.950 . S
H1682 C1708 0.950 . S
H1683 C1710 0.950 . S
H1684 C1713 0.950 . S
H1685 C1714 0.950 . S
H1686 C1716 0.950 . S
H1687 C1717 0.950 . S
C1688 H1670 0.951 . S
C1688 C1689 1.366 . S
C1688 C1690 1.388 . S
C1689 C1688 1.366 . S
C1689 C1693 1.385 . S
C1690 H1671 0.951 . S
C1690 C1688 1.388 . S
C1690 C1691 1.366 . S
C1691 C1690 1.366 . S
C1691 C1692 1.414 . S
C1691 C1694 1.499 . S
C1692 H1672 0.950 . S
C1692 C1691 1.414 . S
C1692 C1693 1.374 . S
C1693 H1673 0.950 . S
C1693 C1689 1.385 . S
C1693 C1692 1.374 . S
C1694 C1691 1.499 . S
C1694 C1695 1.373 . S
C1694 C1696 1.389 . S
C1695 H1674 0.950 . S
C1695 C1694 1.373 . S
C1695 C1711 1.377 . S
C1696 C1694 1.389 . S
C1696 C1697 1.524 . S
C1696 C1710 1.377 . S
C1697 C1696 1.524 . S
C1697 C1698 1.397 . S
C1697 C1702 1.363 . S
C1698 H1675 0.950 . S
C1698 C1697 1.397 . S
C1698 C1699 1.334 . S
C1699 H1676 0.950 . S
C1699 C1698 1.334 . S
C1699 C1700 1.287 . S
C1700 C1699 1.287 . S
C1700 C1701 1.524 . S
C1700 H1719 0.913 . S
C1701 H1677 0.950 . S
C1701 C1700 1.524 . S
C1701 C1702 1.415 . S
C1702 H1678 0.950 . S
C1702 C1697 1.363 . S
C1702 C1701 1.415 . S
C1703 H1679 0.951 . S
C1703 C1704 1.366 . S
C1703 C1705 1.388 . S
C1704 C1703 1.366 . S
C1704 C1708 1.385 . S
C1705 H1680 0.951 . S
C1705 C1703 1.388 . S
C1705 C1706 1.366 . S
C1706 C1705 1.366 . S
C1706 C1707 1.414 . S
C1706 C1709 1.499 . S
C1707 H1681 0.950 . S
C1707 C1706 1.414 . S
C1707 C1708 1.374 . S
C1708 H1682 0.950 . S
C1708 C1704 1.385 . S
C1708 C1707 1.374 . S
C1709 C1706 1.499 . S
C1709 C1710 1.373 . S
C1709 C1711 1.389 . S
C1710 H1683 0.950 . S
C1710 C1696 1.377 . S
C1710 C1709 1.373 . S
C1711 C1695 1.377 . S
C1711 C1709 1.389 . S
C1711 C1712 1.524 . S
C1712 C1711 1.524 . S
C1712 C1713 1.397 . S
C1712 C1717 1.363 . S
C1713 H1684 0.950 . S
C1713 C1712 1.397 . S
C1713 C1714 1.334 . S
C1714 H1685 0.950 . S
C1714 C1713 1.334 . S
C1714 C1715 1.287 . S
C1715 C1714 1.287 . S
C1715 C1716 1.524 . S
C1715 H1718 0.999 . S
C1716 H1686 0.950 . S
C1716 C1715 1.524 . S
C1716 C1717 1.415 . S
C1717 H1687 0.950 . S
C1717 C1712 1.363 . S
C1717 C1716 1.415 . S
H1718 C1715 0.999 . S
H1719 C1700 0.913 . S
H1720 C1738 0.951 . S
H1721 C1740 0.951 . S
H1722 C1742 0.950 . S
H1723 C1743 0.950 . S
H1724 C1745 0.950 . S
H1725 C1748 0.950 . S
H1726 C1749 0.950 . S
H1727 C1751 0.950 . S
H1728 C1752 0.950 . S
H1729 C1753 0.951 . S
H1730 C1755 0.951 . S
H1731 C1757 0.950 . S
H1732 C1758 0.950 . S
H1733 C1760 0.950 . S
H1734 C1763 0.950 . S
H1735 C1764 0.950 . S
H1736 C1766 0.950 . S
H1737 C1767 0.950 . S
C1738 H1720 0.951 . S
C1738 C1739 1.366 . S
C1738 C1740 1.388 . S
C1739 C1738 1.366 . S
C1739 C1743 1.385 . S
C1740 H1721 0.951 . S
C1740 C1738 1.388 . S
C1740 C1741 1.366 . S
C1741 C1740 1.366 . S
C1741 C1742 1.414 . S
C1741 C1744 1.499 . S
C1742 H1722 0.950 . S
C1742 C1741 1.414 . S
C1742 C1743 1.374 . S
C1743 H1723 0.950 . S
C1743 C1739 1.385 . S
C1743 C1742 1.374 . S
C1744 C1741 1.499 . S
C1744 C1745 1.373 . S
C1744 C1746 1.389 . S
C1745 H1724 0.950 . S
C1745 C1744 1.373 . S
C1745 C1761 1.377 . S
C1746 C1744 1.389 . S
C1746 C1747 1.524 . S
C1746 C1760 1.377 . S
C1747 C1746 1.524 . S
C1747 C1748 1.397 . S
C1747 C1752 1.363 . S
C1748 H1725 0.950 . S
C1748 C1747 1.397 . S
C1748 C1749 1.334 . S
C1749 H1726 0.950 . S
C1749 C1748 1.334 . S
C1749 C1750 1.287 . S
C1750 C1749 1.287 . S
C1750 C1751 1.524 . S
C1750 H1769 0.913 . S
C1751 H1727 0.950 . S
C1751 C1750 1.524 . S
C1751 C1752 1.415 . S
C1752 H1728 0.950 . S
C1752 C1747 1.363 . S
C1752 C1751 1.415 . S
C1753 H1729 0.951 . S
C1753 C1754 1.366 . S
C1753 C1755 1.388 . S
C1754 C1753 1.366 . S
C1754 C1758 1.385 . S
C1755 H1730 0.951 . S
C1755 C1753 1.388 . S
C1755 C1756 1.366 . S
C1756 C1755 1.366 . S
C1756 C1757 1.414 . S
C1756 C1759 1.499 . S
C1757 H1731 0.950 . S
C1757 C1756 1.414 . S
C1757 C1758 1.374 . S
C1758 H1732 0.950 . S
C1758 C1754 1.385 . S
C1758 C1757 1.374 . S
C1759 C1756 1.499 . S
C1759 C1760 1.373 . S
C1759 C1761 1.389 . S
C1760 H1733 0.950 . S
C1760 C1746 1.377 . S
C1760 C1759 1.373 . S
C1761 C1745 1.377 . S
C1761 C1759 1.389 . S
C1761 C1762 1.524 . S
C1762 C1761 1.524 . S
C1762 C1763 1.397 . S
C1762 C1767 1.363 . S
C1763 H1734 0.950 . S
C1763 C1762 1.397 . S
C1763 C1764 1.334 . S
C1764 H1735 0.950 . S
C1764 C1763 1.334 . S
C1764 C1765 1.287 . S
C1765 C1764 1.287 . S
C1765 C1766 1.524 . S
C1765 H1768 0.999 . S
C1766 H1736 0.950 . S
C1766 C1765 1.524 . S
C1766 C1767 1.415 . S
C1767 H1737 0.950 . S
C1767 C1762 1.363 . S
C1767 C1766 1.415 . S
H1768 C1765 0.999 . S
H1769 C1750 0.913 . S
H1770 C1788 0.951 . S
H1771 C1790 0.951 . S
H1772 C1792 0.950 . S
H1773 C1793 0.950 . S
H1774 C1795 0.950 . S
H1775 C1798 0.950 . S
H1776 C1799 0.950 . S
H1777 C1801 0.950 . S
H1778 C1802 0.950 . S
H1779 C1803 0.951 . S
H1780 C1805 0.951 . S
H1781 C1807 0.950 . S
H1782 C1808 0.950 . S
H1783 C1810 0.950 . S
H1784 C1813 0.950 . S
H1785 C1814 0.950 . S
H1786 C1816 0.950 . S
H1787 C1817 0.950 . S
C1788 H1770 0.951 . S
C1788 C1789 1.366 . S
C1788 C1790 1.388 . S
C1789 C1788 1.366 . S
C1789 C1793 1.385 . S
C1790 H1771 0.951 . S
C1790 C1788 1.388 . S
C1790 C1791 1.366 . S
C1791 C1790 1.366 . S
C1791 C1792 1.414 . S
C1791 C1794 1.499 . S
C1792 H1772 0.950 . S
C1792 C1791 1.414 . S
C1792 C1793 1.374 . S
C1793 H1773 0.950 . S
C1793 C1789 1.385 . S
C1793 C1792 1.374 . S
C1794 C1791 1.499 . S
C1794 C1795 1.373 . S
C1794 C1796 1.389 . S
C1795 H1774 0.950 . S
C1795 C1794 1.373 . S
C1795 C1811 1.377 . S
C1796 C1794 1.389 . S
C1796 C1797 1.524 . S
C1796 C1810 1.377 . S
C1797 C1796 1.524 . S
C1797 C1798 1.397 . S
C1797 C1802 1.363 . S
C1798 H1775 0.950 . S
C1798 C1797 1.397 . S
C1798 C1799 1.334 . S
C1799 H1776 0.950 . S
C1799 C1798 1.334 . S
C1799 C1800 1.287 . S
C1800 C1799 1.287 . S
C1800 C1801 1.524 . S
C1800 H1819 0.913 . S
C1801 H1777 0.950 . S
C1801 C1800 1.524 . S
C1801 C1802 1.415 . S
C1802 H1778 0.950 . S
C1802 C1797 1.363 . S
C1802 C1801 1.415 . S
C1803 H1779 0.951 . S
C1803 C1804 1.366 . S
C1803 C1805 1.388 . S
C1804 C1803 1.366 . S
C1804 C1808 1.385 . S
C1805 H1780 0.951 . S
C1805 C1803 1.388 . S
C1805 C1806 1.366 . S
C1806 C1805 1.366 . S
C1806 C1807 1.414 . S
C1806 C1809 1.499 . S
C1807 H1781 0.950 . S
C1807 C1806 1.414 . S
C1807 C1808 1.374 . S
C1808 H1782 0.950 . S
C1808 C1804 1.385 . S
C1808 C1807 1.374 . S
C1809 C1806 1.499 . S
C1809 C1810 1.373 . S
C1809 C1811 1.389 . S
C1810 H1783 0.950 . S
C1810 C1796 1.377 . S
C1810 C1809 1.373 . S
C1811 C1795 1.377 . S
C1811 C1809 1.389 . S
C1811 C1812 1.524 . S
C1812 C1811 1.524 . S
C1812 C1813 1.397 . S
C1812 C1817 1.363 . S
C1813 H1784 0.950 . S
C1813 C1812 1.397 . S
C1813 C1814 1.334 . S
C1814 H1785 0.950 . S
C1814 C1813 1.334 . S
C1814 C1815 1.287 . S
C1815 C1814 1.287 . S
C1815 C1816 1.524 . S
C1815 H1818 0.999 1_556 S
C1816 H1786 0.950 . S
C1816 C1815 1.524 . S
C1816 C1817 1.415 . S
C1817 H1787 0.950 . S
C1817 C1812 1.363 . S
C1817 C1816 1.415 . S
H1818 C1815 0.999 1_554 S
H1819 C1800 0.913 . S
H1820 C1838 0.951 . S
H1821 C1840 0.951 . S
H1822 C1842 0.950 . S
H1823 C1843 0.950 . S
H1824 C1845 0.950 . S
H1825 C1848 0.950 . S
H1826 C1849 0.950 . S
H1827 C1851 0.950 . S
H1828 C1852 0.950 . S
H1829 C1853 0.951 . S
H1830 C1855 0.951 . S
H1831 C1857 0.950 . S
H1832 C1858 0.950 . S
H1833 C1860 0.950 . S
H1834 C1863 0.950 . S
H1835 C1864 0.950 . S
H1836 C1866 0.950 1_554 S
H1837 C1867 0.950 . S
C1838 H1820 0.951 . S
C1838 C1839 1.366 . S
C1838 C1840 1.388 . S
C1839 C1838 1.366 . S
C1839 C1843 1.385 . S
C1840 H1821 0.951 . S
C1840 C1838 1.388 . S
C1840 C1841 1.366 . S
C1841 C1840 1.366 . S
C1841 C1842 1.414 . S
C1841 C1844 1.499 . S
C1842 H1822 0.950 . S
C1842 C1841 1.414 . S
C1842 C1843 1.374 . S
C1843 H1823 0.950 . S
C1843 C1839 1.385 . S
C1843 C1842 1.374 . S
C1844 C1841 1.499 . S
C1844 C1845 1.373 . S
C1844 C1846 1.389 . S
C1845 H1824 0.950 . S
C1845 C1844 1.373 . S
C1845 C1861 1.377 . S
C1846 C1844 1.389 . S
C1846 C1847 1.524 . S
C1846 C1860 1.377 . S
C1847 C1846 1.524 . S
C1847 C1848 1.397 . S
C1847 C1852 1.363 . S
C1848 H1825 0.950 . S
C1848 C1847 1.397 . S
C1848 C1849 1.334 . S
C1849 H1826 0.950 . S
C1849 C1848 1.334 . S
C1849 C1850 1.287 . S
C1850 C1849 1.287 . S
C1850 C1851 1.524 . S
C1850 H1869 0.913 . S
C1851 H1827 0.950 . S
C1851 C1850 1.524 . S
C1851 C1852 1.415 . S
C1852 H1828 0.950 . S
C1852 C1847 1.363 . S
C1852 C1851 1.415 . S
C1853 H1829 0.951 . S
C1853 C1854 1.366 . S
C1853 C1855 1.388 . S
C1854 C1853 1.366 . S
C1854 C1858 1.385 . S
C1855 H1830 0.951 . S
C1855 C1853 1.388 . S
C1855 C1856 1.366 . S
C1856 C1855 1.366 . S
C1856 C1857 1.414 . S
C1856 C1859 1.499 . S
C1857 H1831 0.950 . S
C1857 C1856 1.414 . S
C1857 C1858 1.374 . S
C1858 H1832 0.950 . S
C1858 C1854 1.385 . S
C1858 C1857 1.374 . S
C1859 C1856 1.499 . S
C1859 C1860 1.373 . S
C1859 C1861 1.389 . S
C1860 H1833 0.950 . S
C1860 C1846 1.377 . S
C1860 C1859 1.373 . S
C1861 C1845 1.377 . S
C1861 C1859 1.389 . S
C1861 C1862 1.524 . S
C1862 C1861 1.524 . S
C1862 C1863 1.397 . S
C1862 C1867 1.363 . S
C1863 H1834 0.950 . S
C1863 C1862 1.397 . S
C1863 C1864 1.334 . S
C1864 H1835 0.950 . S
C1864 C1863 1.334 . S
C1864 C1865 1.288 1_556 S
C1865 C1864 1.288 1_554 S
C1865 C1866 1.524 1_554 S
C1865 H1868 0.997 . S
C1866 H1836 0.950 1_556 S
C1866 C1865 1.524 1_556 S
C1866 C1867 1.415 . S
C1867 H1837 0.950 . S
C1867 C1862 1.363 . S
C1867 C1866 1.415 . S
H1868 C1865 0.997 . S
H1869 C1850 0.913 . S
H1870 C1888 0.951 . S
H1871 C1890 0.951 . S
H1872 C1892 0.950 . S
H1873 C1893 0.950 . S
H1874 C1895 0.950 . S
H1875 C1898 0.950 . S
H1876 C1899 0.950 . S
H1877 C1901 0.950 . S
H1878 C1902 0.950 . S
H1879 C1903 0.951 . S
H1880 C1905 0.951 . S
H1881 C1907 0.950 . S
H1882 C1908 0.950 . S
H1883 C1910 0.950 . S
H1884 C1913 0.950 . S
H1885 C1914 0.950 1_554 S
H1886 C1916 0.950 . S
H1887 C1917 0.950 . S
C1888 H1870 0.951 . S
C1888 C1889 1.366 . S
C1888 C1890 1.388 . S
C1889 C1888 1.366 . S
C1889 C1893 1.385 . S
C1890 H1871 0.951 . S
C1890 C1888 1.388 . S
C1890 C1891 1.366 . S
C1891 C1890 1.366 . S
C1891 C1892 1.414 . S
C1891 C1894 1.499 . S
C1892 H1872 0.950 . S
C1892 C1891 1.414 . S
C1892 C1893 1.374 . S
C1893 H1873 0.950 . S
C1893 C1889 1.385 . S
C1893 C1892 1.374 . S
C1894 C1891 1.499 . S
C1894 C1895 1.373 . S
C1894 C1896 1.389 . S
C1895 H1874 0.950 . S
C1895 C1894 1.373 . S
C1895 C1911 1.377 . S
C1896 C1894 1.389 . S
C1896 C1897 1.524 . S
C1896 C1910 1.377 . S
C1897 C1896 1.524 . S
C1897 C1898 1.397 . S
C1897 C1902 1.363 . S
C1898 H1875 0.950 . S
C1898 C1897 1.397 . S
C1898 C1899 1.334 . S
C1899 H1876 0.950 . S
C1899 C1898 1.334 . S
C1899 C1900 1.287 . S
C1900 C1899 1.287 . S
C1900 C1901 1.524 . S
C1900 H1919 0.913 . S
C1901 H1877 0.950 . S
C1901 C1900 1.524 . S
C1901 C1902 1.415 . S
C1902 H1878 0.950 . S
C1902 C1897 1.363 . S
C1902 C1901 1.415 . S
C1903 H1879 0.951 . S
C1903 C1904 1.366 . S
C1903 C1905 1.388 . S
C1904 C1903 1.366 . S
C1904 C1908 1.385 . S
C1905 H1880 0.951 . S
C1905 C1903 1.388 . S
C1905 C1906 1.366 . S
C1906 C1905 1.366 . S
C1906 C1907 1.414 . S
C1906 C1909 1.499 . S
C1907 H1881 0.950 . S
C1907 C1906 1.414 . S
C1907 C1908 1.374 . S
C1908 H1882 0.950 . S
C1908 C1904 1.385 . S
C1908 C1907 1.374 . S
C1909 C1906 1.499 . S
C1909 C1910 1.373 . S
C1909 C1911 1.389 . S
C1910 H1883 0.950 . S
C1910 C1896 1.377 . S
C1910 C1909 1.373 . S
C1911 C1895 1.377 . S
C1911 C1909 1.389 . S
C1911 C1912 1.524 . S
C1912 C1911 1.524 . S
C1912 C1913 1.397 . S
C1912 C1917 1.363 . S
C1913 H1884 0.950 . S
C1913 C1912 1.397 . S
C1913 C1914 1.334 . S
C1914 H1885 0.950 1_556 S
C1914 C1913 1.334 . S
C1914 C1915 1.287 . S
C1915 C1914 1.287 . S
C1915 C1916 1.524 . S
C1915 H1918 0.999 1_556 S
C1916 H1886 0.950 . S
C1916 C1915 1.524 . S
C1916 C1917 1.415 . S
C1917 H1887 0.950 . S
C1917 C1912 1.363 . S
C1917 C1916 1.415 . S
H1918 C1915 0.999 1_554 S
H1919 C1900 0.913 . S
H1920 C1938 0.951 . S
H1921 C1940 0.951 . S
H1922 C1942 0.950 . S
H1923 C1943 0.950 . S
H1924 C1945 0.950 . S
H1925 C1948 0.950 . S
H1926 C1949 0.950 . S
H1927 C1951 0.950 . S
H1928 C1952 0.950 . S
H1929 C1953 0.951 . S
H1930 C1955 0.951 . S
H1931 C1957 0.950 . S
H1932 C1958 0.950 . S
H1933 C1960 0.950 . S
H1934 C1963 0.950 . S
H1935 C1964 0.950 . S
H1936 C1966 0.950 . S
H1937 C1967 0.950 . S
C1938 H1920 0.951 . S
C1938 C1939 1.366 . S
C1938 C1940 1.388 . S
C1939 C1938 1.366 . S
C1939 C1943 1.385 . S
C1940 H1921 0.951 . S
C1940 C1938 1.388 . S
C1940 C1941 1.366 . S
C1941 C1940 1.366 . S
C1941 C1942 1.414 . S
C1941 C1944 1.499 . S
C1942 H1922 0.950 . S
C1942 C1941 1.414 . S
C1942 C1943 1.374 . S
C1943 H1923 0.950 . S
C1943 C1939 1.385 . S
C1943 C1942 1.374 . S
C1944 C1941 1.499 . S
C1944 C1945 1.373 . S
C1944 C1946 1.389 . S
C1945 H1924 0.950 . S
C1945 C1944 1.373 . S
C1945 C1961 1.377 . S
C1946 C1944 1.389 . S
C1946 C1947 1.524 . S
C1946 C1960 1.377 . S
C1947 C1946 1.524 . S
C1947 C1948 1.397 . S
C1947 C1952 1.363 . S
C1948 H1925 0.950 . S
C1948 C1947 1.397 . S
C1948 C1949 1.334 . S
C1949 H1926 0.950 . S
C1949 C1948 1.334 . S
C1949 C1950 1.287 . S
C1950 C1949 1.287 . S
C1950 C1951 1.524 . S
C1950 H1969 0.913 . S
C1951 H1927 0.950 . S
C1951 C1950 1.524 . S
C1951 C1952 1.415 . S
C1952 H1928 0.950 . S
C1952 C1947 1.363 . S
C1952 C1951 1.415 . S
C1953 H1929 0.951 . S
C1953 C1954 1.366 . S
C1953 C1955 1.388 . S
C1954 C1953 1.366 . S
C1954 C1958 1.385 . S
C1955 H1930 0.951 . S
C1955 C1953 1.388 . S
C1955 C1956 1.366 . S
C1956 C1955 1.366 . S
C1956 C1957 1.414 . S
C1956 C1959 1.499 . S
C1957 H1931 0.950 . S
C1957 C1956 1.414 . S
C1957 C1958 1.374 . S
C1958 H1932 0.950 . S
C1958 C1954 1.385 . S
C1958 C1957 1.374 . S
C1959 C1956 1.499 . S
C1959 C1960 1.373 . S
C1959 C1961 1.389 . S
C1960 H1933 0.950 . S
C1960 C1946 1.377 . S
C1960 C1959 1.373 . S
C1961 C1945 1.377 . S
C1961 C1959 1.389 . S
C1961 C1962 1.524 . S
C1962 C1961 1.524 . S
C1962 C1963 1.397 . S
C1962 C1967 1.363 . S
C1963 H1934 0.950 . S
C1963 C1962 1.397 . S
C1963 C1964 1.334 . S
C1964 H1935 0.950 . S
C1964 C1963 1.334 . S
C1964 C1965 1.287 . S
C1965 C1964 1.287 . S
C1965 C1966 1.524 . S
C1965 H1968 0.999 . S
C1966 H1936 0.950 . S
C1966 C1965 1.524 . S
C1966 C1967 1.415 . S
C1967 H1937 0.950 . S
C1967 C1962 1.363 . S
C1967 C1966 1.415 . S
H1968 C1965 0.999 . S
H1969 C1950 0.913 . S
H1970 C1988 0.951 . S
H1971 C1990 0.951 . S
H1972 C1992 0.950 . S
H1973 C1993 0.950 . S
H1974 C1995 0.950 . S
H1975 C1998 0.950 . S
H1976 C1999 0.950 . S
H1977 C2001 0.950 . S
H1978 C2002 0.950 . S
H1979 C2003 0.951 . S
H1980 C2005 0.951 . S
H1981 C2007 0.950 . S
H1982 C2008 0.950 . S
H1983 C2010 0.950 . S
H1984 C2013 0.950 . S
H1985 C2014 0.950 . S
H1986 C2016 0.950 . S
H1987 C2017 0.950 . S
C1988 H1970 0.951 . S
C1988 C1989 1.366 . S
C1988 C1990 1.388 . S
C1989 C1988 1.366 . S
C1989 C1993 1.385 . S
C1990 H1971 0.951 . S
C1990 C1988 1.388 . S
C1990 C1991 1.366 . S
C1991 C1990 1.366 . S
C1991 C1992 1.414 . S
C1991 C1994 1.499 . S
C1992 H1972 0.950 . S
C1992 C1991 1.414 . S
C1992 C1993 1.374 . S
C1993 H1973 0.950 . S
C1993 C1989 1.385 . S
C1993 C1992 1.374 . S
C1994 C1991 1.499 . S
C1994 C1995 1.373 . S
C1994 C1996 1.389 . S
C1995 H1974 0.950 . S
C1995 C1994 1.373 . S
C1995 C2011 1.377 . S
C1996 C1994 1.389 . S
C1996 C1997 1.524 . S
C1996 C2010 1.377 . S
C1997 C1996 1.524 . S
C1997 C1998 1.397 . S
C1997 C2002 1.363 . S
C1998 H1975 0.950 . S
C1998 C1997 1.397 . S
C1998 C1999 1.334 . S
C1999 H1976 0.950 . S
C1999 C1998 1.334 . S
C1999 C2000 1.287 . S
C2000 C1999 1.287 . S
C2000 C2001 1.524 . S
C2000 H2019 0.913 . S
C2001 H1977 0.950 . S
C2001 C2000 1.524 . S
C2001 C2002 1.415 . S
C2002 H1978 0.950 . S
C2002 C1997 1.363 . S
C2002 C2001 1.415 . S
C2003 H1979 0.951 . S
C2003 C2004 1.366 . S
C2003 C2005 1.388 . S
C2004 C2003 1.366 . S
C2004 C2008 1.385 . S
C2005 H1980 0.951 . S
C2005 C2003 1.388 . S
C2005 C2006 1.366 . S
C2006 C2005 1.366 . S
C2006 C2007 1.414 . S
C2006 C2009 1.499 . S
C2007 H1981 0.950 . S
C2007 C2006 1.414 . S
C2007 C2008 1.374 . S
C2008 H1982 0.950 . S
C2008 C2004 1.385 . S
C2008 C2007 1.374 . S
C2009 C2006 1.499 . S
C2009 C2010 1.373 . S
C2009 C2011 1.389 . S
C2010 H1983 0.950 . S
C2010 C1996 1.377 . S
C2010 C2009 1.373 . S
C2011 C1995 1.377 . S
C2011 C2009 1.389 . S
C2011 C2012 1.524 . S
C2012 C2011 1.524 . S
C2012 C2013 1.397 . S
C2012 C2017 1.363 . S
C2013 H1984 0.950 . S
C2013 C2012 1.397 . S
C2013 C2014 1.334 . S
C2014 H1985 0.950 . S
C2014 C2013 1.334 . S
C2014 C2015 1.287 . S
C2015 C2014 1.287 . S
C2015 C2016 1.524 . S
C2015 H2018 0.999 . S
C2016 H1986 0.950 . S
C2016 C2015 1.524 . S
C2016 C2017 1.415 . S
C2017 H1987 0.950 . S
C2017 C2012 1.363 . S
C2017 C2016 1.415 . S
H2018 C2015 0.999 . S
H2019 C2000 0.913 . S
H2020 C2038 0.951 . S
H2021 C2040 0.951 . S
H2022 C2042 0.950 . S
H2023 C2043 0.950 . S
H2024 C2045 0.950 . S
H2025 C2048 0.950 . S
H2026 C2049 0.950 . S
H2027 C2051 0.950 . S
H2028 C2052 0.950 . S
H2029 C2053 0.951 . S
H2030 C2055 0.951 . S
H2031 C2057 0.950 . S
H2032 C2058 0.950 . S
H2033 C2060 0.950 . S
H2034 C2063 0.950 . S
H2035 C2064 0.950 . S
H2036 C2066 0.950 . S
H2037 C2067 0.950 . S
C2038 H2020 0.951 . S
C2038 C2039 1.366 . S
C2038 C2040 1.388 . S
C2039 C2038 1.366 . S
C2039 C2043 1.385 . S
C2040 H2021 0.951 . S
C2040 C2038 1.388 . S
C2040 C2041 1.366 . S
C2041 C2040 1.366 . S
C2041 C2042 1.414 . S
C2041 C2044 1.499 . S
C2042 H2022 0.950 . S
C2042 C2041 1.414 . S
C2042 C2043 1.374 . S
C2043 H2023 0.950 . S
C2043 C2039 1.385 . S
C2043 C2042 1.374 . S
C2044 C2041 1.499 . S
C2044 C2045 1.373 . S
C2044 C2046 1.389 . S
C2045 H2024 0.950 . S
C2045 C2044 1.373 . S
C2045 C2061 1.377 . S
C2046 C2044 1.389 . S
C2046 C2047 1.524 . S
C2046 C2060 1.377 . S
C2047 C2046 1.524 . S
C2047 C2048 1.397 . S
C2047 C2052 1.363 . S
C2048 H2025 0.950 . S
C2048 C2047 1.397 . S
C2048 C2049 1.334 . S
C2049 H2026 0.950 . S
C2049 C2048 1.334 . S
C2049 C2050 1.287 . S
C2050 C2049 1.287 . S
C2050 C2051 1.524 . S
C2050 H2069 0.913 . S
C2051 H2027 0.950 . S
C2051 C2050 1.524 . S
C2051 C2052 1.415 . S
C2052 H2028 0.950 . S
C2052 C2047 1.363 . S
C2052 C2051 1.415 . S
C2053 H2029 0.951 . S
C2053 C2054 1.366 . S
C2053 C2055 1.388 . S
C2054 C2053 1.366 . S
C2054 C2058 1.385 . S
C2055 H2030 0.951 . S
C2055 C2053 1.388 . S
C2055 C2056 1.366 . S
C2056 C2055 1.366 . S
C2056 C2057 1.414 . S
C2056 C2059 1.499 . S
C2057 H2031 0.950 . S
C2057 C2056 1.414 . S
C2057 C2058 1.374 . S
C2058 H2032 0.950 . S
C2058 C2054 1.385 . S
C2058 C2057 1.374 . S
C2059 C2056 1.499 . S
C2059 C2060 1.373 . S
C2059 C2061 1.389 . S
C2060 H2033 0.950 . S
C2060 C2046 1.377 . S
C2060 C2059 1.373 . S
C2061 C2045 1.377 . S
C2061 C2059 1.389 . S
C2061 C2062 1.524 . S
C2062 C2061 1.524 . S
C2062 C2063 1.397 . S
C2062 C2067 1.363 . S
C2063 H2034 0.950 . S
C2063 C2062 1.397 . S
C2063 C2064 1.334 . S
C2064 H2035 0.950 . S
C2064 C2063 1.334 . S
C2064 C2065 1.287 . S
C2065 C2064 1.287 . S
C2065 C2066 1.524 . S
C2065 H2068 0.999 . S
C2066 H2036 0.950 . S
C2066 C2065 1.524 . S
C2066 C2067 1.415 . S
C2067 H2037 0.950 . S
C2067 C2062 1.363 . S
C2067 C2066 1.415 . S
H2068 C2065 0.999 . S
H2069 C2050 0.913 . S
H2070 C2088 0.951 . S
H2071 C2090 0.951 . S
H2072 C2092 0.950 . S
H2073 C2093 0.950 . S
H2074 C2095 0.950 . S
H2075 C2098 0.950 . S
H2076 C2099 0.950 . S
H2077 C2101 0.950 . S
H2078 C2102 0.950 . S
H2079 C2103 0.951 . S
H2080 C2105 0.951 . S
H2081 C2107 0.950 . S
H2082 C2108 0.950 . S
H2083 C2110 0.950 . S
H2084 C2113 0.950 . S
H2085 C2114 0.950 . S
H2086 C2116 0.950 . S
H2087 C2117 0.950 . S
C2088 H2070 0.951 . S
C2088 C2089 1.366 . S
C2088 C2090 1.388 . S
C2089 C2088 1.366 . S
C2089 C2093 1.385 . S
C2090 H2071 0.951 . S
C2090 C2088 1.388 . S
C2090 C2091 1.366 . S
C2091 C2090 1.366 . S
C2091 C2092 1.414 . S
C2091 C2094 1.499 . S
C2092 H2072 0.950 . S
C2092 C2091 1.414 . S
C2092 C2093 1.374 . S
C2093 H2073 0.950 . S
C2093 C2089 1.385 . S
C2093 C2092 1.374 . S
C2094 C2091 1.499 . S
C2094 C2095 1.373 . S
C2094 C2096 1.389 . S
C2095 H2074 0.950 . S
C2095 C2094 1.373 . S
C2095 C2111 1.377 . S
C2096 C2094 1.389 . S
C2096 C2097 1.524 . S
C2096 C2110 1.377 . S
C2097 C2096 1.524 . S
C2097 C2098 1.397 . S
C2097 C2102 1.363 . S
C2098 H2075 0.950 . S
C2098 C2097 1.397 . S
C2098 C2099 1.334 . S
C2099 H2076 0.950 . S
C2099 C2098 1.334 . S
C2099 C2100 1.287 . S
C2100 C2099 1.287 . S
C2100 C2101 1.524 . S
C2100 H2119 0.913 . S
C2101 H2077 0.950 . S
C2101 C2100 1.524 . S
C2101 C2102 1.415 . S
C2102 H2078 0.950 . S
C2102 C2097 1.363 . S
C2102 C2101 1.415 . S
C2103 H2079 0.951 . S
C2103 C2104 1.366 . S
C2103 C2105 1.388 . S
C2104 C2103 1.366 . S
C2104 C2108 1.385 . S
C2105 H2080 0.951 . S
C2105 C2103 1.388 . S
C2105 C2106 1.366 . S
C2106 C2105 1.366 . S
C2106 C2107 1.414 . S
C2106 C2109 1.499 . S
C2107 H2081 0.950 . S
C2107 C2106 1.414 . S
C2107 C2108 1.374 . S
C2108 H2082 0.950 . S
C2108 C2104 1.385 . S
C2108 C2107 1.374 . S
C2109 C2106 1.499 . S
C2109 C2110 1.373 . S
C2109 C2111 1.389 . S
C2110 H2083 0.950 . S
C2110 C2096 1.377 . S
C2110 C2109 1.373 . S
C2111 C2095 1.377 . S
C2111 C2109 1.389 . S
C2111 C2112 1.524 . S
C2112 C2111 1.524 . S
C2112 C2113 1.397 . S
C2112 C2117 1.363 . S
C2113 H2084 0.950 . S
C2113 C2112 1.397 . S
C2113 C2114 1.334 . S
C2114 H2085 0.950 . S
C2114 C2113 1.334 . S
C2114 C2115 1.287 . S
C2115 C2114 1.287 . S
C2115 C2116 1.524 . S
C2115 H2118 0.999 . S
C2116 H2086 0.950 . S
C2116 C2115 1.524 . S
C2116 C2117 1.415 . S
C2117 H2087 0.950 . S
C2117 C2112 1.363 . S
C2117 C2116 1.415 . S
H2118 C2115 0.999 . S
H2119 C2100 0.913 . S
H2120 C2138 0.951 . S
H2121 C2140 0.951 . S
H2122 C2142 0.950 . S
H2123 C2143 0.950 . S
H2124 C2145 0.950 . S
H2125 C2148 0.950 . S
H2126 C2149 0.950 . S
H2127 C2151 0.950 . S
H2128 C2152 0.950 . S
H2129 C2153 0.951 . S
H2130 C2155 0.951 . S
H2131 C2157 0.950 . S
H2132 C2158 0.950 . S
H2133 C2160 0.950 . S
H2134 C2163 0.950 . S
H2135 C2164 0.950 . S
H2136 C2166 0.950 . S
H2137 C2167 0.950 . S
C2138 H2120 0.951 . S
C2138 C2139 1.366 . S
C2138 C2140 1.388 . S
C2139 C2138 1.366 . S
C2139 C2143 1.385 . S
C2140 H2121 0.951 . S
C2140 C2138 1.388 . S
C2140 C2141 1.366 . S
C2141 C2140 1.366 . S
C2141 C2142 1.414 . S
C2141 C2144 1.499 . S
C2142 H2122 0.950 . S
C2142 C2141 1.414 . S
C2142 C2143 1.374 . S
C2143 H2123 0.950 . S
C2143 C2139 1.385 . S
C2143 C2142 1.374 . S
C2144 C2141 1.499 . S
C2144 C2145 1.373 . S
C2144 C2146 1.389 . S
C2145 H2124 0.950 . S
C2145 C2144 1.373 . S
C2145 C2161 1.377 . S
C2146 C2144 1.389 . S
C2146 C2147 1.524 . S
C2146 C2160 1.377 . S
C2147 C2146 1.524 . S
C2147 C2148 1.397 . S
C2147 C2152 1.363 . S
C2148 H2125 0.950 . S
C2148 C2147 1.397 . S
C2148 C2149 1.334 . S
C2149 H2126 0.950 . S
C2149 C2148 1.334 . S
C2149 C2150 1.287 . S
C2150 C2149 1.287 . S
C2150 C2151 1.524 . S
C2150 H2169 0.913 . S
C2151 H2127 0.950 . S
C2151 C2150 1.524 . S
C2151 C2152 1.415 . S
C2152 H2128 0.950 . S
C2152 C2147 1.363 . S
C2152 C2151 1.415 . S
C2153 H2129 0.951 . S
C2153 C2154 1.366 . S
C2153 C2155 1.388 . S
C2154 C2153 1.366 . S
C2154 C2158 1.385 . S
C2155 H2130 0.951 . S
C2155 C2153 1.388 . S
C2155 C2156 1.366 . S
C2156 C2155 1.366 . S
C2156 C2157 1.414 . S
C2156 C2159 1.499 . S
C2157 H2131 0.950 . S
C2157 C2156 1.414 . S
C2157 C2158 1.374 . S
C2158 H2132 0.950 . S
C2158 C2154 1.385 . S
C2158 C2157 1.374 . S
C2159 C2156 1.499 . S
C2159 C2160 1.373 . S
C2159 C2161 1.389 . S
C2160 H2133 0.950 . S
C2160 C2146 1.377 . S
C2160 C2159 1.373 . S
C2161 C2145 1.377 . S
C2161 C2159 1.389 . S
C2161 C2162 1.524 . S
C2162 C2161 1.524 . S
C2162 C2163 1.397 . S
C2162 C2167 1.363 . S
C2163 H2134 0.950 . S
C2163 C2162 1.397 . S
C2163 C2164 1.334 . S
C2164 H2135 0.950 . S
C2164 C2163 1.334 . S
C2164 C2165 1.287 . S
C2165 C2164 1.287 . S
C2165 C2166 1.524 . S
C2165 H2168 0.999 . S
C2166 H2136 0.950 . S
C2166 C2165 1.524 . S
C2166 C2167 1.415 . S
C2167 H2137 0.950 . S
C2167 C2162 1.363 . S
C2167 C2166 1.415 . S
H2168 C2165 0.999 . S
H2169 C2150 0.913 . S
H2170 C2188 0.951 . S
H2171 C2190 0.951 . S
H2172 C2192 0.950 . S
H2173 C2193 0.950 . S
H2174 C2195 0.950 . S
H2175 C2198 0.950 . S
H2176 C2199 0.950 . S
H2177 C2201 0.950 . S
H2178 C2202 0.950 . S
H2179 C2203 0.951 . S
H2180 C2205 0.951 . S
H2181 C2207 0.950 . S
H2182 C2208 0.950 . S
H2183 C2210 0.950 . S
H2184 C2213 0.950 . S
H2185 C2214 0.950 . S
H2186 C2216 0.950 . S
H2187 C2217 0.950 . S
C2188 H2170 0.951 . S
C2188 C2189 1.366 . S
C2188 C2190 1.388 . S
C2189 C2188 1.366 . S
C2189 C2193 1.385 . S
C2190 H2171 0.951 . S
C2190 C2188 1.388 . S
C2190 C2191 1.366 . S
C2191 C2190 1.366 . S
C2191 C2192 1.414 . S
C2191 C2194 1.499 . S
C2192 H2172 0.950 . S
C2192 C2191 1.414 . S
C2192 C2193 1.374 . S
C2193 H2173 0.950 . S
C2193 C2189 1.385 . S
C2193 C2192 1.374 . S
C2194 C2191 1.499 . S
C2194 C2195 1.373 . S
C2194 C2196 1.389 . S
C2195 H2174 0.950 . S
C2195 C2194 1.373 . S
C2195 C2211 1.377 . S
C2196 C2194 1.389 . S
C2196 C2197 1.524 . S
C2196 C2210 1.377 . S
C2197 C2196 1.524 . S
C2197 C2198 1.397 . S
C2197 C2202 1.363 . S
C2198 H2175 0.950 . S
C2198 C2197 1.397 . S
C2198 C2199 1.334 . S
C2199 H2176 0.950 . S
C2199 C2198 1.334 . S
C2199 C2200 1.287 . S
C2200 C2199 1.287 . S
C2200 C2201 1.524 . S
C2200 H2219 0.913 . S
C2201 H2177 0.950 . S
C2201 C2200 1.524 . S
C2201 C2202 1.415 . S
C2202 H2178 0.950 . S
C2202 C2197 1.363 . S
C2202 C2201 1.415 . S
C2203 H2179 0.951 . S
C2203 C2204 1.366 . S
C2203 C2205 1.388 . S
C2204 C2203 1.366 . S
C2204 C2208 1.385 . S
C2205 H2180 0.951 . S
C2205 C2203 1.388 . S
C2205 C2206 1.366 . S
C2206 C2205 1.366 . S
C2206 C2207 1.414 . S
C2206 C2209 1.499 . S
C2207 H2181 0.950 . S
C2207 C2206 1.414 . S
C2207 C2208 1.374 . S
C2208 H2182 0.950 . S
C2208 C2204 1.385 . S
C2208 C2207 1.374 . S
C2209 C2206 1.499 . S
C2209 C2210 1.373 . S
C2209 C2211 1.389 . S
C2210 H2183 0.950 . S
C2210 C2196 1.377 . S
C2210 C2209 1.373 . S
C2211 C2195 1.377 . S
C2211 C2209 1.389 . S
C2211 C2212 1.524 . S
C2212 C2211 1.524 . S
C2212 C2213 1.397 . S
C2212 C2217 1.363 . S
C2213 H2184 0.950 . S
C2213 C2212 1.397 . S
C2213 C2214 1.334 . S
C2214 H2185 0.950 . S
C2214 C2213 1.334 . S
C2214 C2215 1.287 . S
C2215 C2214 1.287 . S
C2215 C2216 1.524 . S
C2215 H2218 0.999 . S
C2216 H2186 0.950 . S
C2216 C2215 1.524 . S
C2216 C2217 1.415 . S
C2217 H2187 0.950 . S
C2217 C2212 1.363 . S
C2217 C2216 1.415 . S
H2218 C2215 0.999 . S
H2219 C2200 0.913 . S
H2220 C2238 0.951 . S
H2221 C2240 0.951 . S
H2222 C2242 0.950 . S
H2223 C2243 0.950 . S
H2224 C2245 0.950 . S
H2225 C2248 0.950 . S
H2226 C2249 0.950 . S
H2227 C2251 0.950 . S
H2228 C2252 0.950 . S
H2229 C2253 0.951 . S
H2230 C2255 0.951 . S
H2231 C2257 0.950 . S
H2232 C2258 0.950 . S
H2233 C2260 0.950 . S
H2234 C2263 0.950 . S
H2235 C2264 0.950 . S
H2236 C2266 0.950 . S
H2237 C2267 0.950 . S
C2238 H2220 0.951 . S
C2238 C2239 1.366 . S
C2238 C2240 1.388 . S
C2239 C2238 1.366 . S
C2239 C2243 1.385 . S
C2240 H2221 0.951 . S
C2240 C2238 1.388 . S
C2240 C2241 1.366 . S
C2241 C2240 1.366 . S
C2241 C2242 1.414 . S
C2241 C2244 1.499 . S
C2242 H2222 0.950 . S
C2242 C2241 1.414 . S
C2242 C2243 1.374 . S
C2243 H2223 0.950 . S
C2243 C2239 1.385 . S
C2243 C2242 1.374 . S
C2244 C2241 1.499 . S
C2244 C2245 1.373 . S
C2244 C2246 1.389 . S
C2245 H2224 0.950 . S
C2245 C2244 1.373 . S
C2245 C2261 1.377 . S
C2246 C2244 1.389 . S
C2246 C2247 1.524 . S
C2246 C2260 1.377 . S
C2247 C2246 1.524 . S
C2247 C2248 1.397 . S
C2247 C2252 1.363 . S
C2248 H2225 0.950 . S
C2248 C2247 1.397 . S
C2248 C2249 1.334 . S
C2249 H2226 0.950 . S
C2249 C2248 1.334 . S
C2249 C2250 1.287 . S
C2250 C2249 1.287 . S
C2250 C2251 1.524 . S
C2250 H2269 0.913 . S
C2251 H2227 0.950 . S
C2251 C2250 1.524 . S
C2251 C2252 1.415 . S
C2252 H2228 0.950 . S
C2252 C2247 1.363 . S
C2252 C2251 1.415 . S
C2253 H2229 0.951 . S
C2253 C2254 1.366 . S
C2253 C2255 1.388 . S
C2254 C2253 1.366 . S
C2254 C2258 1.385 . S
C2255 H2230 0.951 . S
C2255 C2253 1.388 . S
C2255 C2256 1.366 . S
C2256 C2255 1.366 . S
C2256 C2257 1.414 . S
C2256 C2259 1.499 . S
C2257 H2231 0.950 . S
C2257 C2256 1.414 . S
C2257 C2258 1.374 . S
C2258 H2232 0.950 . S
C2258 C2254 1.385 . S
C2258 C2257 1.374 . S
C2259 C2256 1.499 . S
C2259 C2260 1.373 . S
C2259 C2261 1.389 . S
C2260 H2233 0.950 . S
C2260 C2246 1.377 . S
C2260 C2259 1.373 . S
C2261 C2245 1.377 . S
C2261 C2259 1.389 . S
C2261 C2262 1.524 . S
C2262 C2261 1.524 . S
C2262 C2263 1.397 . S
C2262 C2267 1.363 . S
C2263 H2234 0.950 . S
C2263 C2262 1.397 . S
C2263 C2264 1.334 . S
C2264 H2235 0.950 . S
C2264 C2263 1.334 . S
C2264 C2265 1.287 . S
C2265 C2264 1.287 . S
C2265 C2266 1.524 . S
C2265 H2268 0.999 . S
C2266 H2236 0.950 . S
C2266 C2265 1.524 . S
C2266 C2267 1.415 . S
C2267 H2237 0.950 . S
C2267 C2262 1.363 . S
C2267 C2266 1.415 . S
H2268 C2265 0.999 . S
H2269 C2250 0.913 . S
H2270 C2288 0.951 . S
H2271 C2290 0.951 . S
H2272 C2292 0.950 . S
H2273 C2293 0.950 . S
H2274 C2295 0.950 . S
H2275 C2298 0.950 . S
H2276 C2299 0.950 . S
H2277 C2301 0.950 . S
H2278 C2302 0.950 . S
H2279 C2303 0.951 . S
H2280 C2305 0.951 . S
H2281 C2307 0.950 . S
H2282 C2308 0.950 . S
H2283 C2310 0.950 . S
H2284 C2313 0.950 . S
H2285 C2314 0.950 . S
H2286 C2316 0.950 . S
H2287 C2317 0.950 . S
C2288 H2270 0.951 . S
C2288 C2289 1.366 . S
C2288 C2290 1.388 . S
C2289 C2288 1.366 . S
C2289 C2293 1.385 . S
C2290 H2271 0.951 . S
C2290 C2288 1.388 . S
C2290 C2291 1.366 . S
C2291 C2290 1.366 . S
C2291 C2292 1.414 . S
C2291 C2294 1.499 . S
C2292 H2272 0.950 . S
C2292 C2291 1.414 . S
C2292 C2293 1.374 . S
C2293 H2273 0.950 . S
C2293 C2289 1.385 . S
C2293 C2292 1.374 . S
C2294 C2291 1.499 . S
C2294 C2295 1.373 . S
C2294 C2296 1.389 . S
C2295 H2274 0.950 . S
C2295 C2294 1.373 . S
C2295 C2311 1.377 . S
C2296 C2294 1.389 . S
C2296 C2297 1.524 . S
C2296 C2310 1.377 . S
C2297 C2296 1.524 . S
C2297 C2298 1.397 . S
C2297 C2302 1.363 . S
C2298 H2275 0.950 . S
C2298 C2297 1.397 . S
C2298 C2299 1.334 . S
C2299 H2276 0.950 . S
C2299 C2298 1.334 . S
C2299 C2300 1.287 . S
C2300 C2299 1.287 . S
C2300 C2301 1.524 . S
C2300 H2319 0.913 . S
C2301 H2277 0.950 . S
C2301 C2300 1.524 . S
C2301 C2302 1.415 . S
C2302 H2278 0.950 . S
C2302 C2297 1.363 . S
C2302 C2301 1.415 . S
C2303 H2279 0.951 . S
C2303 C2304 1.366 . S
C2303 C2305 1.388 . S
C2304 C2303 1.366 . S
C2304 C2308 1.385 . S
C2305 H2280 0.951 . S
C2305 C2303 1.388 . S
C2305 C2306 1.366 . S
C2306 C2305 1.366 . S
C2306 C2307 1.414 . S
C2306 C2309 1.499 . S
C2307 H2281 0.950 . S
C2307 C2306 1.414 . S
C2307 C2308 1.374 . S
C2308 H2282 0.950 . S
C2308 C2304 1.385 . S
C2308 C2307 1.374 . S
C2309 C2306 1.499 . S
C2309 C2310 1.373 . S
C2309 C2311 1.389 . S
C2310 H2283 0.950 . S
C2310 C2296 1.377 . S
C2310 C2309 1.373 . S
C2311 C2295 1.377 . S
C2311 C2309 1.389 . S
C2311 C2312 1.524 . S
C2312 C2311 1.524 . S
C2312 C2313 1.397 . S
C2312 C2317 1.363 . S
C2313 H2284 0.950 . S
C2313 C2312 1.397 . S
C2313 C2314 1.334 . S
C2314 H2285 0.950 . S
C2314 C2313 1.334 . S
C2314 C2315 1.287 . S
C2315 C2314 1.287 . S
C2315 C2316 1.524 . S
C2315 H2318 0.999 . S
C2316 H2286 0.950 . S
C2316 C2315 1.524 . S
C2316 C2317 1.415 . S
C2317 H2287 0.950 . S
C2317 C2312 1.363 . S
C2317 C2316 1.415 . S
H2318 C2315 0.999 . S
H2319 C2300 0.913 . S
H2320 C2338 0.951 . S
H2321 C2340 0.951 . S
H2322 C2342 0.950 . S
H2323 C2343 0.950 . S
H2324 C2345 0.950 . S
H2325 C2348 0.950 . S
H2326 C2349 0.950 . S
H2327 C2351 0.950 . S
H2328 C2352 0.950 . S
H2329 C2353 0.951 . S
H2330 C2355 0.951 . S
H2331 C2357 0.950 . S
H2332 C2358 0.950 . S
H2333 C2360 0.950 . S
H2334 C2363 0.950 . S
H2335 C2364 0.950 . S
H2336 C2366 0.950 . S
H2337 C2367 0.950 . S
C2338 H2320 0.951 . S
C2338 C2339 1.366 . S
C2338 C2340 1.388 . S
C2339 C2338 1.366 . S
C2339 C2343 1.385 . S
C2340 H2321 0.951 . S
C2340 C2338 1.388 . S
C2340 C2341 1.366 . S
C2341 C2340 1.366 . S
C2341 C2342 1.414 . S
C2341 C2344 1.499 . S
C2342 H2322 0.950 . S
C2342 C2341 1.414 . S
C2342 C2343 1.374 . S
C2343 H2323 0.950 . S
C2343 C2339 1.385 . S
C2343 C2342 1.374 . S
C2344 C2341 1.499 . S
C2344 C2345 1.373 . S
C2344 C2346 1.389 . S
C2345 H2324 0.950 . S
C2345 C2344 1.373 . S
C2345 C2361 1.377 . S
C2346 C2344 1.389 . S
C2346 C2347 1.524 . S
C2346 C2360 1.377 . S
C2347 C2346 1.524 . S
C2347 C2348 1.397 . S
C2347 C2352 1.363 . S
C2348 H2325 0.950 . S
C2348 C2347 1.397 . S
C2348 C2349 1.334 . S
C2349 H2326 0.950 . S
C2349 C2348 1.334 . S
C2349 C2350 1.287 . S
C2350 C2349 1.287 . S
C2350 C2351 1.524 . S
C2350 H2369 0.913 . S
C2351 H2327 0.950 . S
C2351 C2350 1.524 . S
C2351 C2352 1.415 . S
C2352 H2328 0.950 . S
C2352 C2347 1.363 . S
C2352 C2351 1.415 . S
C2353 H2329 0.951 . S
C2353 C2354 1.366 . S
C2353 C2355 1.388 . S
C2354 C2353 1.366 . S
C2354 C2358 1.385 . S
C2355 H2330 0.951 . S
C2355 C2353 1.388 . S
C2355 C2356 1.366 . S
C2356 C2355 1.366 . S
C2356 C2357 1.414 . S
C2356 C2359 1.499 . S
C2357 H2331 0.950 . S
C2357 C2356 1.414 . S
C2357 C2358 1.374 . S
C2358 H2332 0.950 . S
C2358 C2354 1.385 . S
C2358 C2357 1.374 . S
C2359 C2356 1.499 . S
C2359 C2360 1.373 . S
C2359 C2361 1.389 . S
C2360 H2333 0.950 . S
C2360 C2346 1.377 . S
C2360 C2359 1.373 . S
C2361 C2345 1.377 . S
C2361 C2359 1.389 . S
C2361 C2362 1.524 . S
C2362 C2361 1.524 . S
C2362 C2363 1.397 . S
C2362 C2367 1.363 . S
C2363 H2334 0.950 . S
C2363 C2362 1.397 . S
C2363 C2364 1.334 . S
C2364 H2335 0.950 . S
C2364 C2363 1.334 . S
C2364 C2365 1.287 . S
C2365 C2364 1.287 . S
C2365 C2366 1.524 . S
C2365 H2368 0.999 . S
C2366 H2336 0.950 . S
C2366 C2365 1.524 . S
C2366 C2367 1.415 . S
C2367 H2337 0.950 . S
C2367 C2362 1.363 . S
C2367 C2366 1.415 . S
H2368 C2365 0.999 . S
H2369 C2350 0.913 . S
H2370 C2388 0.951 . S
H2371 C2390 0.951 . S
H2372 C2392 0.950 . S
H2373 C2393 0.950 . S
H2374 C2395 0.950 . S
H2375 C2398 0.950 . S
H2376 C2399 0.950 . S
H2377 C2401 0.950 . S
H2378 C2402 0.950 . S
H2379 C2403 0.951 1_554 S
H2380 C2405 0.951 . S
H2381 C2407 0.950 . S
H2382 C2408 0.950 . S
H2383 C2410 0.950 . S
H2384 C2413 0.950 . S
H2385 C2414 0.950 . S
H2386 C2416 0.950 . S
H2387 C2417 0.950 . S
C2388 H2370 0.951 . S
C2388 C2389 1.366 . S
C2388 C2390 1.388 . S
C2389 C2388 1.366 . S
C2389 C2393 1.385 . S
C2390 H2371 0.951 . S
C2390 C2388 1.388 . S
C2390 C2391 1.366 . S
C2391 C2390 1.366 . S
C2391 C2392 1.414 . S
C2391 C2394 1.499 . S
C2392 H2372 0.950 . S
C2392 C2391 1.414 . S
C2392 C2393 1.374 . S
C2393 H2373 0.950 . S
C2393 C2389 1.385 . S
C2393 C2392 1.374 . S
C2394 C2391 1.499 . S
C2394 C2395 1.373 . S
C2394 C2396 1.389 . S
C2395 H2374 0.950 . S
C2395 C2394 1.373 . S
C2395 C2411 1.377 . S
C2396 C2394 1.389 . S
C2396 C2397 1.524 . S
C2396 C2410 1.377 . S
C2397 C2396 1.524 . S
C2397 C2398 1.397 . S
C2397 C2402 1.363 . S
C2398 H2375 0.950 . S
C2398 C2397 1.397 . S
C2398 C2399 1.334 . S
C2399 H2376 0.950 . S
C2399 C2398 1.334 . S
C2399 C2400 1.287 . S
C2400 C2399 1.287 . S
C2400 C2401 1.524 . S
C2400 H2419 0.913 . S
C2401 H2377 0.950 . S
C2401 C2400 1.524 . S
C2401 C2402 1.415 . S
C2402 H2378 0.950 . S
C2402 C2397 1.363 . S
C2402 C2401 1.415 . S
C2403 H2379 0.951 1_556 S
C2403 C2404 1.366 . S
C2403 C2405 1.388 . S
C2404 C2403 1.366 . S
C2404 C2408 1.385 . S
C2405 H2380 0.951 . S
C2405 C2403 1.388 . S
C2405 C2406 1.366 . S
C2406 C2405 1.366 . S
C2406 C2407 1.414 . S
C2406 C2409 1.499 . S
C2407 H2381 0.950 . S
C2407 C2406 1.414 . S
C2407 C2408 1.374 . S
C2408 H2382 0.950 . S
C2408 C2404 1.385 . S
C2408 C2407 1.374 . S
C2409 C2406 1.499 . S
C2409 C2410 1.373 . S
C2409 C2411 1.389 . S
C2410 H2383 0.950 . S
C2410 C2396 1.377 . S
C2410 C2409 1.373 . S
C2411 C2395 1.377 . S
C2411 C2409 1.389 . S
C2411 C2412 1.524 . S
C2412 C2411 1.524 . S
C2412 C2413 1.397 . S
C2412 C2417 1.363 . S
C2413 H2384 0.950 . S
C2413 C2412 1.397 . S
C2413 C2414 1.334 . S
C2414 H2385 0.950 . S
C2414 C2413 1.334 . S
C2414 C2415 1.287 . S
C2415 C2414 1.287 . S
C2415 C2416 1.524 . S
C2415 H2418 0.999 . S
C2416 H2386 0.950 . S
C2416 C2415 1.524 . S
C2416 C2417 1.415 . S
C2417 H2387 0.950 . S
C2417 C2412 1.363 . S
C2417 C2416 1.415 . S
H2418 C2415 0.999 . S
H2419 C2400 0.913 . S
H2420 C2438 0.951 . S
H2421 C2440 0.951 . S
H2422 C2442 0.950 . S
H2423 C2443 0.950 . S
H2424 C2445 0.950 . S
H2425 C2448 0.950 . S
H2426 C2449 0.950 . S
H2427 C2451 0.950 . S
H2428 C2452 0.950 . S
H2429 C2453 0.951 . S
H2430 C2455 0.951 . S
H2431 C2457 0.950 . S
H2432 C2458 0.950 . S
H2433 C2460 0.950 . S
H2434 C2463 0.950 . S
H2435 C2464 0.950 . S
H2436 C2466 0.950 . S
H2437 C2467 0.950 . S
C2438 H2420 0.951 . S
C2438 C2439 1.366 . S
C2438 C2440 1.388 . S
C2439 C2438 1.366 . S
C2439 C2443 1.385 . S
C2440 H2421 0.951 . S
C2440 C2438 1.388 . S
C2440 C2441 1.366 . S
C2441 C2440 1.366 . S
C2441 C2442 1.414 . S
C2441 C2444 1.499 . S
C2442 H2422 0.950 . S
C2442 C2441 1.414 . S
C2442 C2443 1.374 . S
C2443 H2423 0.950 . S
C2443 C2439 1.385 . S
C2443 C2442 1.374 . S
C2444 C2441 1.499 . S
C2444 C2445 1.373 . S
C2444 C2446 1.389 . S
C2445 H2424 0.950 . S
C2445 C2444 1.373 . S
C2445 C2461 1.377 . S
C2446 C2444 1.389 . S
C2446 C2447 1.524 . S
C2446 C2460 1.377 . S
C2447 C2446 1.524 . S
C2447 C2448 1.397 . S
C2447 C2452 1.363 . S
C2448 H2425 0.950 . S
C2448 C2447 1.397 . S
C2448 C2449 1.334 . S
C2449 H2426 0.950 . S
C2449 C2448 1.334 . S
C2449 C2450 1.287 . S
C2450 C2449 1.287 . S
C2450 C2451 1.524 . S
C2450 H2469 0.913 . S
C2451 H2427 0.950 . S
C2451 C2450 1.524 . S
C2451 C2452 1.415 . S
C2452 H2428 0.950 . S
C2452 C2447 1.363 . S
C2452 C2451 1.415 . S
C2453 H2429 0.951 . S
C2453 C2454 1.366 . S
C2453 C2455 1.388 . S
C2454 C2453 1.366 . S
C2454 C2458 1.385 . S
C2455 H2430 0.951 . S
C2455 C2453 1.388 . S
C2455 C2456 1.366 . S
C2456 C2455 1.366 . S
C2456 C2457 1.414 . S
C2456 C2459 1.499 . S
C2457 H2431 0.950 . S
C2457 C2456 1.414 . S
C2457 C2458 1.374 . S
C2458 H2432 0.950 . S
C2458 C2454 1.385 . S
C2458 C2457 1.374 . S
C2459 C2456 1.499 . S
C2459 C2460 1.373 . S
C2459 C2461 1.389 . S
C2460 H2433 0.950 . S
C2460 C2446 1.377 . S
C2460 C2459 1.373 . S
C2461 C2445 1.377 . S
C2461 C2459 1.389 . S
C2461 C2462 1.524 . S
C2462 C2461 1.524 . S
C2462 C2463 1.397 . S
C2462 C2467 1.363 . S
C2463 H2434 0.950 . S
C2463 C2462 1.397 . S
C2463 C2464 1.334 . S
C2464 H2435 0.950 . S
C2464 C2463 1.334 . S
C2464 C2465 1.287 . S
C2465 C2464 1.287 . S
C2465 C2466 1.524 . S
C2465 H2468 0.999 . S
C2466 H2436 0.950 . S
C2466 C2465 1.524 . S
C2466 C2467 1.415 . S
C2467 H2437 0.950 . S
C2467 C2462 1.363 . S
C2467 C2466 1.415 . S
H2468 C2465 0.999 . S
H2469 C2450 0.913 . S
H2470 C2488 0.951 . S
H2471 C2490 0.951 . S
H2472 C2492 0.950 . S
H2473 C2493 0.950 . S
H2474 C2495 0.950 . S
H2475 C2498 0.950 . S
H2476 C2499 0.950 . S
H2477 C2501 0.950 . S
H2478 C2502 0.950 . S
H2479 C2503 0.951 . S
H2480 C2505 0.951 . S
H2481 C2507 0.950 . S
H2482 C2508 0.950 . S
H2483 C2510 0.950 . S
H2484 C2513 0.950 . S
H2485 C2514 0.950 . S
H2486 C2516 0.950 . S
H2487 C2517 0.950 . S
C2488 H2470 0.951 . S
C2488 C2489 1.366 . S
C2488 C2490 1.388 . S
C2489 C2488 1.366 . S
C2489 C2493 1.385 . S
C2490 H2471 0.951 . S
C2490 C2488 1.388 . S
C2490 C2491 1.366 . S
C2491 C2490 1.366 . S
C2491 C2492 1.414 . S
C2491 C2494 1.499 . S
C2492 H2472 0.950 . S
C2492 C2491 1.414 . S
C2492 C2493 1.374 . S
C2493 H2473 0.950 . S
C2493 C2489 1.385 . S
C2493 C2492 1.374 . S
C2494 C2491 1.499 . S
C2494 C2495 1.373 . S
C2494 C2496 1.389 . S
C2495 H2474 0.950 . S
C2495 C2494 1.373 . S
C2495 C2511 1.377 . S
C2496 C2494 1.389 . S
C2496 C2497 1.524 . S
C2496 C2510 1.377 . S
C2497 C2496 1.524 . S
C2497 C2498 1.397 . S
C2497 C2502 1.363 . S
C2498 H2475 0.950 . S
C2498 C2497 1.397 . S
C2498 C2499 1.334 . S
C2499 H2476 0.950 . S
C2499 C2498 1.334 . S
C2499 C2500 1.287 . S
C2500 C2499 1.287 . S
C2500 C2501 1.524 . S
C2500 H2519 0.913 . S
C2501 H2477 0.950 . S
C2501 C2500 1.524 . S
C2501 C2502 1.415 . S
C2502 H2478 0.950 . S
C2502 C2497 1.363 . S
C2502 C2501 1.415 . S
C2503 H2479 0.951 . S
C2503 C2504 1.366 . S
C2503 C2505 1.388 . S
C2504 C2503 1.366 . S
C2504 C2508 1.385 . S
C2505 H2480 0.951 . S
C2505 C2503 1.388 . S
C2505 C2506 1.366 . S
C2506 C2505 1.366 . S
C2506 C2507 1.414 . S
C2506 C2509 1.499 . S
C2507 H2481 0.950 . S
C2507 C2506 1.414 . S
C2507 C2508 1.374 . S
C2508 H2482 0.950 . S
C2508 C2504 1.385 . S
C2508 C2507 1.374 . S
C2509 C2506 1.499 . S
C2509 C2510 1.373 . S
C2509 C2511 1.389 . S
C2510 H2483 0.950 . S
C2510 C2496 1.377 . S
C2510 C2509 1.373 . S
C2511 C2495 1.377 . S
C2511 C2509 1.389 . S
C2511 C2512 1.524 . S
C2512 C2511 1.524 . S
C2512 C2513 1.397 . S
C2512 C2517 1.363 . S
C2513 H2484 0.950 . S
C2513 C2512 1.397 . S
C2513 C2514 1.334 . S
C2514 H2485 0.950 . S
C2514 C2513 1.334 . S
C2514 C2515 1.287 . S
C2515 C2514 1.287 . S
C2515 C2516 1.524 . S
C2515 H2518 0.999 . S
C2516 H2486 0.950 . S
C2516 C2515 1.524 . S
C2516 C2517 1.415 . S
C2517 H2487 0.950 . S
C2517 C2512 1.363 . S
C2517 C2516 1.415 . S
H2518 C2515 0.999 . S
H2519 C2500 0.913 . S
C954 C525 1.605 . S
C939 C47 1.493 . S
C1004 C578 1.332 . S
C989 C115 1.302 . S
C1054 C641 1.576 . S
C1039 C153 1.456 . S
C1104 C684 1.437 . S
C1089 C233 1.329 . S
C1139 C283 1.525 . S
C1154 C640 1.561 . S
C1204 C677 1.441 . S
C1189 C357 1.349 . S
C1254 C518 1.638 . S
C1239 C401 1.515 . S
C1304 C571 1.314 . S
C1289 C463 1.205 . S
C1354 C624 1.417 . S
C1339 C469 1.375 . S
C1404 C693 1.805 . S
C1389 C277 1.685 . S
C1454 C534 1.572 . S
C1439 C363 1.549 . S
C1504 C587 1.615 . S
C1489 C407 1.583 . S
C1554 C535 1.568 . S
C1539 C109 1.456 . S
C1604 C588 1.683 . S
C1589 C159 1.642 . S
C1654 C631 1.393 . S
C1639 C239 1.356 . S
C1704 C694 1.730 . S
C1689 C53 1.701 . S
C1754 C737 1.586 . S
C1739 C481 1.472 . S
C1789 C301 1.661 . S
C1804 C790 1.704 . S
C1839 C339 1.479 . S
C1854 C852 1.599 . S
C1889 C419 1.721 . S
C1904 C906 1.848 . S
C1939 C97 1.490 . S
C1954 C853 1.525 . S
C1989 C171 1.757 . S
C2004 C905 1.871 . S
C2039 C215 1.533 . S
C2054 C730 1.653 . S
C2104 C783 1.708 . S
C2089 C29 1.561 . S
C2154 C843 1.388 . S
C2139 C35 1.347 . S
C2189 C91 1.259 . S
C2204 C889 1.356 . S
C2239 C177 1.584 . S
C2254 C746 1.606 . S
C2289 C221 1.221 . S
C2304 C799 1.242 . S
C2354 C747 1.548 . S
C2339 C295 1.435 . S
C2404 C800 1.301 . S
C2389 C345 1.272 . S
C2439 C425 1.375 . S
C2454 C836 1.412 . S
C2504 C896 1.299 . S
C2489 C487 1.275 . S
