# Generated by pormake.
# Topology pyr, (3,6)-cn, num edge types: 1
# Building blocks:
#     Node 0, Type 0, BuildingBlock: BETDIP_clean_linker_0, # of connection points: 3
#     Node 1, Type 0, BuildingBlock: BETDIP_clean_linker_0, # of connection points: 3
#     Node 2, Type 0, BuildingBlock: BETDIP_clean_linker_0, # of connection points: 3
#     Node 3, Type 0, BuildingBlock: BETDIP_clean_linker_0, # of connection points: 3
#     Node 4, Type 0, BuildingBlock: BETDIP_clean_linker_0, # of connection points: 3
#     Node 5, Type 0, BuildingBlock: BETDIP_clean_linker_0, # of connection points: 3
#     Node 6, Type 0, BuildingBlock: BETDIP_clean_linker_0, # of connection points: 3
#     Node 7, Type 0, BuildingBlock: BETDIP_clean_linker_0, # of connection points: 3
#     Node 8, Type 1, BuildingBlock: MIDCAF_clean_sbu_0, # of connection points: 6
#     Node 9, Type 1, BuildingBlock: MIDCAF_clean_sbu_0, # of connection points: 6
#     Node 10, Type 1, BuildingBlock: MIDCAF_clean_sbu_0, # of connection points: 6
#     Node 11, Type 1, BuildingBlock: MIDCAF_clean_sbu_0, # of connection points: 6
#     Edge 12, Type (0, 1), BuildingBlock: AJUNOK_clean_linker_0, # of connection points: 2
#     Edge 13, Type (0, 1), BuildingBlock: AJUNOK_clean_linker_0, # of connection points: 2
#     Edge 14, Type (0, 1), BuildingBlock: AJUNOK_clean_linker_0, # of connection points: 2
#     Edge 15, Type (0, 1), BuildingBlock: AJUNOK_clean_linker_0, # of connection points: 2
#     Edge 16, Type (0, 1), BuildingBlock: AJUNOK_clean_linker_0, # of connection points: 2
#     Edge 17, Type (0, 1), BuildingBlock: AJUNOK_clean_linker_0, # of connection points: 2
#     Edge 18, Type (0, 1), BuildingBlock: AJUNOK_clean_linker_0, # of connection points: 2
#     Edge 19, Type (0, 1), BuildingBlock: AJUNOK_clean_linker_0, # of connection points: 2
#     Edge 20, Type (0, 1), BuildingBlock: AJUNOK_clean_linker_0, # of connection points: 2
#     Edge 21, Type (0, 1), BuildingBlock: AJUNOK_clean_linker_0, # of connection points: 2
#     Edge 22, Type (0, 1), BuildingBlock: AJUNOK_clean_linker_0, # of connection points: 2
#     Edge 23, Type (0, 1), BuildingBlock: AJUNOK_clean_linker_0, # of connection points: 2
#     Edge 24, Type (0, 1), BuildingBlock: AJUNOK_clean_linker_0, # of connection points: 2
#     Edge 25, Type (0, 1), BuildingBlock: AJUNOK_clean_linker_0, # of connection points: 2
#     Edge 26, Type (0, 1), BuildingBlock: AJUNOK_clean_linker_0, # of connection points: 2
#     Edge 27, Type (0, 1), BuildingBlock: AJUNOK_clean_linker_0, # of connection points: 2
#     Edge 28, Type (0, 1), BuildingBlock: AJUNOK_clean_linker_0, # of connection points: 2
#     Edge 29, Type (0, 1), BuildingBlock: AJUNOK_clean_linker_0, # of connection points: 2
#     Edge 30, Type (0, 1), BuildingBlock: AJUNOK_clean_linker_0, # of connection points: 2
#     Edge 31, Type (0, 1), BuildingBlock: AJUNOK_clean_linker_0, # of connection points: 2
#     Edge 32, Type (0, 1), BuildingBlock: AJUNOK_clean_linker_0, # of connection points: 2
#     Edge 33, Type (0, 1), BuildingBlock: AJUNOK_clean_linker_0, # of connection points: 2
#     Edge 34, Type (0, 1), BuildingBlock: AJUNOK_clean_linker_0, # of connection points: 2
#     Edge 35, Type (0, 1), BuildingBlock: AJUNOK_clean_linker_0, # of connection points: 2
# Relax obj value: 0.092
# Max RMSD: 0.176
# Mean RMSD: 0.134
data_MOF--net-pyr--node1-MIDCAF_clean_sbu_0--node2-BETDIP_clean_linker_0--edge1-AJUNOK_clean_linker_0
_symmetry_space_group_name_H-M    P1
_symmetry_Int_Tables_number       1
_symmetry_cell_setting            triclinic
loop_
_symmetry_equiv_pos_as_xyz
'x, y, z'
_cell_length_a     25.828078
_cell_length_b     25.359147
_cell_length_c     27.039798
_cell_angle_alpha  93.555228
_cell_angle_beta   85.934614
_cell_angle_gamma 97.27042
loop_
_atom_site_label
_atom_site_type_symbol
_atom_site_fract_x
_atom_site_fract_y
_atom_site_fract_z
_atom_type_partial_charge
H0 H 0.17241 0.22664 0.28848 0.0
H1 H 0.28801 0.23313 0.16682 0.0
H2 H 0.29081 0.12045 0.2793 0.0
H3 H 0.26576 0.33018 0.17975 0.0
C4 C 0.2243 0.31666 0.17774 0.0
C5 C 0.207 0.2122 0.27022 0.0
C6 C 0.22906 0.17085 0.29025 0.0
C7 C 0.22851 0.23536 0.22652 0.0
C8 C 0.27308 0.21687 0.20186 0.0
C9 C 0.29592 0.17484 0.2203 0.0
C10 C 0.2739 0.15282 0.265 0.0
N11 N 0.20101 0.27306 0.2057 0.0
H12 H 0.30498 0.87132 0.79871 0.0
H13 H 0.28631 0.74671 0.68466 0.0
H14 H 0.41027 0.7518 0.78445 0.0
H15 H 0.20072 0.76802 0.69321 0.0
C16 C 0.20665 0.8112 0.69694 0.0
C17 C 0.31744 0.83519 0.7808 0.0
C18 C 0.36005 0.81364 0.79804 0.0
C19 C 0.29041 0.81132 0.74054 0.0
C20 C 0.30716 0.76526 0.71572 0.0
C21 C 0.35155 0.74395 0.73012 0.0
C22 C 0.37694 0.7681 0.77216 0.0
N23 N 0.24874 0.83679 0.72436 0.0
H24 H 0.82002 0.36739 0.77448 0.0
H25 H 0.67914 0.25811 0.77805 0.0
H26 H 0.78114 0.26616 0.8977 0.0
H27 H 0.69178 0.27574 0.68682 0.0
C28 C 0.69577 0.31822 0.69644 0.0
C29 C 0.79459 0.33653 0.79318 0.0
C30 C 0.80725 0.31957 0.83896 0.0
C31 C 0.74838 0.3152 0.77138 0.0
C32 C 0.71542 0.27407 0.79422 0.0
C33 C 0.72745 0.25575 0.83966 0.0
C34 C 0.77346 0.27845 0.86152 0.0
N35 N 0.73292 0.34091 0.7305 0.0
H36 H 0.72097 0.68121 0.28215 0.0
H37 H 0.85959 0.7952 0.28387 0.0
H38 H 0.75775 0.77748 0.41481 0.0
H39 H 0.87742 0.7652 0.20735 0.0
C40 C 0.85449 0.7268 0.201 0.0
C41 C 0.74522 0.71298 0.30126 0.0
C42 C 0.73205 0.72783 0.3511 0.0
C43 C 0.79121 0.73646 0.2765 0.0
C44 C 0.82328 0.77727 0.30143 0.0
C45 C 0.81032 0.79282 0.35102 0.0
C46 C 0.76529 0.76763 0.3756 0.0
N47 N 0.8063 0.71366 0.22902 0.0
H48 H 0.83614 0.89541 0.95949 0.0
H49 H 0.96779 0.87629 0.85638 0.0
H50 H 0.86475 0.99241 0.83304 0.0
H51 H -0.00036 0.86987 0.94251 0.0
C52 C 0.9694 0.83758 0.95206 0.0
C53 C 0.85916 0.90662 0.92581 0.0
C54 C 0.84513 0.9471 0.89805 0.0
C55 C 0.90352 0.8815 0.91156 0.0
C56 C 0.9336 0.89581 0.86784 0.0
C57 C 0.91964 0.9355 0.83902 0.0
C58 C 0.87533 0.96113 0.8545 0.0
N59 N 0.91697 0.84184 0.94166 0.0
H60 H 0.65044 0.07949 0.33117 0.0
H61 H 0.65949 0.18102 0.46442 0.0
H62 H 0.55249 0.20518 0.35497 0.0
H63 H 0.67793 0.09316 0.49154 0.0
C64 C 0.70777 0.08603 0.46237 0.0
C65 C 0.63688 0.11218 0.35418 0.0
C66 C 0.59779 0.13971 0.33796 0.0
C67 C 0.65884 0.12601 0.39976 0.0
C68 C 0.6419 0.16894 0.42966 0.0
C69 C 0.60398 0.19809 0.41325 0.0
C70 C 0.58204 0.18317 0.36743 0.0
N71 N 0.69977 0.0978 0.41297 0.0
H72 H 0.38409 0.54408 0.14415 0.0
H73 H 0.49463 0.68633 0.14522 0.0
H74 H 0.36488 0.67242 0.05271 0.0
H75 H 0.49977 0.6662 0.22432 0.0
C76 C 0.49523 0.62313 0.22503 0.0
C77 C 0.39843 0.58256 0.12979 0.0
C78 C 0.37012 0.60418 0.09527 0.0
C79 C 0.44283 0.61231 0.14897 0.0
C80 C 0.46014 0.66299 0.13133 0.0
C81 C 0.4323 0.68461 0.09631 0.0
C82 C 0.3876 0.65494 0.07819 0.0
N83 N 0.46695 0.59156 0.18803 0.0
H84 H 0.0517 0.33025 0.60116 0.0
H85 H 0.13761 0.47825 0.65075 0.0
H86 H 0.20646 0.37713 0.5373 0.0
H87 H 0.04059 0.49499 0.66192 0.0
C88 C 0.0347 0.46121 0.68545 0.0
C89 C 0.08614 0.35942 0.59782 0.0
C90 C 0.12813 0.34925 0.56436 0.0
C91 C 0.08873 0.40581 0.62854 0.0
C92 C 0.1343 0.44285 0.62606 0.0
C93 C 0.17662 0.43273 0.59283 0.0
C94 C 0.17337 0.38577 0.56213 0.0
N95 N 0.04722 0.4114 0.66493 0.0
Zn96 Zn 0.98001 0.08195 0.58485 0.0
Zn97 Zn 0.0766 0.94496 0.47707 0.0
Zn98 Zn 0.02302 0.0134 0.53144 0.0
C99 C 0.11967 0.04383 0.44664 0.0
C100 C 0.96933 0.92592 0.45579 0.0
O101 O 0.02185 0.99265 0.61214 0.0
O102 O 0.98725 0.06002 0.65141 0.0
C103 C 0.05794 0.14041 0.53238 0.0
O104 O 0.08567 0.05684 0.48122 0.0
O105 O 0.12458 0.99546 0.43619 0.0
O106 O 0.01239 0.90715 0.44808 0.0
O107 O 0.96537 0.96759 0.48482 0.0
O108 O 0.02152 0.14737 0.56465 0.0
O109 O 0.06532 0.09316 0.51551 0.0
O110 O 0.93934 0.00902 0.50916 0.0
O111 O 0.90914 0.06971 0.56187 0.0
C112 C 0.90174 0.0354 0.52655 0.0
O113 O 0.05699 0.96208 0.58339 0.0
O114 O 0.10435 0.91237 0.53252 0.0
C115 C 0.0052 0.01627 0.65295 0.0
C116 C 0.08871 0.92634 0.57605 0.0
Zn117 Zn 0.47229 0.06299 0.98114 0.0
Zn118 Zn 0.59503 0.98059 0.0785 0.0
Zn119 Zn 0.53732 0.0185 0.02717 0.0
C120 C 0.65955 0.00849 -0.00145 0.0
C121 C 0.51639 0.89957 0.05709 0.0
O122 O 0.48983 0.06684 0.08248 0.0
O123 O 0.43029 0.09322 0.03776 0.0
C124 C 0.5755 0.10685 0.94885 0.0
O125 O 0.61943 0.03196 0.99074 0.0
O126 O 0.6578 0.97932 0.03479 0.0
O127 O 0.55055 0.91301 0.088 0.0
O128 O 0.50837 0.93215 0.02454 0.0
O129 O 0.5277 0.1123 0.94751 0.0
O130 O 0.58869 0.06978 0.97433 0.0
O131 O 0.48757 0.95342 0.98467 0.0
O132 O 0.44049 0.99949 0.94208 0.0
C133 C 0.4541 0.95533 0.95163 0.0
O134 O 0.53069 0.05218 0.10732 0.0
O135 O 0.60039 0.0275 0.13799 0.0
C136 C 0.44884 0.0907 0.07933 0.0
C137 C 0.56151 0.05309 0.14318 0.0
Zn138 Zn 0.56924 0.57324 0.58696 0.0
Zn139 Zn 0.45056 0.44683 0.47201 0.0
Zn140 Zn 0.50969 0.50936 0.5267 0.0
C141 C 0.51445 0.38069 0.50199 0.0
C142 C 0.50193 0.51966 0.40824 0.0
O143 O 0.45905 0.55282 0.58447 0.0
O144 O 0.51479 0.60483 0.63009 0.0
C145 C 0.59232 0.46823 0.59606 0.0
O146 O 0.53415 0.42625 0.52125 0.0
O147 O 0.4717 0.37675 0.48158 0.0
O148 O 0.47183 0.47646 0.40696 0.0
O149 O 0.52009 0.53882 0.44977 0.0
O150 O 0.6021 0.5154 0.61386 0.0
O151 O 0.56009 0.45759 0.56133 0.0
O152 O 0.55686 0.56779 0.48033 0.0
O153 O 0.60669 0.61707 0.53338 0.0
C154 C 0.59299 0.6062 0.48962 0.0
O155 O 0.42758 0.51464 0.55638 0.0
O156 O 0.38285 0.46337 0.501 0.0
C157 C 0.4683 0.58853 0.62021 0.0
C158 C 0.38366 0.49437 0.53925 0.0
Zn159 Zn 0.11164 0.5782 0.95959 0.0
Zn160 Zn 0.9808 0.45631 0.06742 0.0
Zn161 Zn 0.04596 0.52089 0.01146 0.0
C162 C 0.08155 0.44012 0.09005 0.0
C163 C 0.96122 0.42483 0.96944 0.0
O164 O 0.02525 0.60435 0.01991 0.0
O165 O 0.09426 0.64942 0.98281 0.0
C166 C 0.17367 0.5344 0.01508 0.0
O167 O 0.09381 0.47786 0.05966 0.0
O168 O 0.03408 0.42315 0.0999 0.0
O169 O 0.94544 0.413 0.01305 0.0
O170 O 0.99856 0.46299 0.96195 0.0
O171 O 0.17893 0.55878 0.97557 0.0
O172 O 0.12751 0.51854 0.03435 0.0
O173 O 0.034 0.49571 0.93213 0.0
O174 O 0.08841 0.55658 0.89372 0.0
C175 C 0.05334 0.51737 0.89188 0.0
O176 O 0.995 0.57202 0.05556 0.0
O177 O 0.94474 0.51489 0.10219 0.0
C178 C 0.04983 0.64888 0.0055 0.0
C179 C 0.95783 0.56204 0.08925 0.0
C180 C 0.14697 0.13417 0.33954 0.0
C181 C 0.20219 0.14377 0.33482 0.0
C182 C 0.12047 0.10528 0.37837 0.0
C183 C 0.14792 0.08391 0.41373 0.0
H184 H 0.12376 0.147 0.31178 0.0
H185 H 0.07822 0.09702 0.37906 0.0
S186 S 0.29149 0.10197 0.4229 0.0
N187 N 0.28269 0.13402 0.37339 0.0
N188 N 0.23258 0.07683 0.44423 0.0
C189 C 0.20266 0.09449 0.41092 0.0
C190 C 0.22982 0.12504 0.37205 0.0
C191 C 0.356 0.86044 0.88307 0.0
C192 C 0.38656 0.84044 0.84246 0.0
C193 C 0.3787 0.89392 0.92114 0.0
C194 C 0.4331 0.9077 0.92125 0.0
H195 H 0.31375 0.85223 0.88432 0.0
H196 H 0.35324 0.91144 0.9494 0.0
S197 S 0.53169 0.86342 0.82676 0.0
N198 N 0.47518 0.83541 0.80673 0.0
N199 N 0.51747 0.89652 0.8795 0.0
C200 C 0.46456 0.8851 0.88319 0.0
C201 C 0.44145 0.85178 0.84365 0.0
C202 C 0.64364 0.39438 0.69617 0.0
C203 C 0.66747 0.35365 0.66961 0.0
C204 C 0.61794 0.42968 0.67173 0.0
C205 C 0.61567 0.42622 0.61967 0.0
H206 H 0.6448 0.39896 0.73621 0.0
H207 H 0.60018 0.46053 0.69387 0.0
S208 S 0.67824 0.3305 0.53307 0.0
N209 N 0.68962 0.31292 0.5887 0.0
N210 N 0.64424 0.38167 0.54236 0.0
C211 C 0.6402 0.38611 0.59266 0.0
C212 C 0.66538 0.34922 0.61777 0.0
C213 C 0.93053 0.69597 0.14982 0.0
C214 C 0.87797 0.68579 0.168 0.0
C215 C 0.95594 0.65636 0.123 0.0
C216 C 0.92962 0.60513 0.11339 0.0
H217 H 0.95274 0.73438 0.15777 0.0
H218 H 0.99692 0.66536 0.11135 0.0
S219 S 0.78989 0.55997 0.14686 0.0
N220 N 0.79915 0.6219 0.17013 0.0
N221 N 0.84687 0.5478 0.12001 0.0
C222 C 0.87643 0.5952 0.12932 0.0
C223 C 0.85055 0.63545 0.15646 0.0
C224 C 0.38033 0.18619 0.16625 0.0
C225 C 0.34045 0.15214 0.1908 0.0
C226 C 0.41843 0.166 0.133 0.0
C227 C 0.41912 0.11094 0.12384 0.0
H228 H 0.38107 0.22897 0.17136 0.0
H229 H 0.44616 0.1937 0.11265 0.0
S230 S 0.32567 0.00407 0.17862 0.0
N231 N 0.30527 0.05968 0.20308 0.0
N232 N 0.3783 0.02258 0.14257 0.0
C233 C 0.38156 0.07638 0.14979 0.0
C234 C 0.34203 0.09671 0.18287 0.0
C235 C 0.17849 0.89823 0.67331 0.0
C236 C 0.1703 0.84211 0.6733 0.0
C237 C 0.14797 0.92658 0.64557 0.0
C238 C 0.10825 0.8998 0.61706 0.0
H239 H 0.21016 0.92032 0.6929 0.0
H240 H 0.15787 0.96925 0.64377 0.0
S241 S 0.06712 0.75433 0.60888 0.0
N242 N 0.11605 0.76175 0.64587 0.0
N243 N 0.05978 0.81485 0.59354 0.0
C244 C 0.09775 0.84428 0.6192 0.0
C245 C 0.12843 0.81552 0.64741 0.0
C246 C 0.882 0.31773 0.89367 0.0
C247 C 0.85303 0.34719 0.86551 0.0
C248 C 0.91967 0.34304 0.92503 0.0
C249 C 0.9312 0.39871 0.9283 0.0
H250 H 0.87422 0.27472 0.89292 0.0
H251 H 0.9387 0.31896 0.9482 0.0
S252 S 0.86976 0.49494 0.86128 0.0
N253 N 0.84017 0.43617 0.84292 0.0
N254 N 0.9132 0.48273 0.89962 0.0
C255 C 0.90536 0.42866 0.89827 0.0
C256 C 0.86585 0.40317 0.86732 0.0
C257 C 0.68103 0.64134 0.37591 0.0
C258 C 0.68804 0.6975 0.38004 0.0
C259 C 0.64724 0.61166 0.40974 0.0
C260 C 0.62033 0.63719 0.44931 0.0
H261 H 0.70408 0.62002 0.3483 0.0
H262 H 0.6447 0.56862 0.40677 0.0
S263 S 0.61633 0.78221 0.4709 0.0
N264 N 0.65754 0.77678 0.42181 0.0
N265 N 0.59698 0.72079 0.48723 0.0
C266 C 0.62407 0.69286 0.45196 0.0
C267 C 0.65709 0.72307 0.41677 0.0
C268 C 0.14618 0.32471 0.1302 0.0
C269 C 0.19046 0.3494 0.15356 0.0
C270 C 0.11258 0.35479 0.10861 0.0
C271 C 0.12141 0.41088 0.10991 0.0
H272 H 0.1374 0.28174 0.12852 0.0
H273 H 0.0789 0.33382 0.09108 0.0
S274 S 0.22841 0.49466 0.17236 0.0
N275 N 0.24029 0.43308 0.17893 0.0
N276 N 0.17521 0.48972 0.14094 0.0
C277 C 0.16514 0.4361 0.13389 0.0
C278 C 0.20012 0.4053 0.15503 0.0
C279 C 0.70361 0.17108 0.88529 0.0
C280 C 0.6889 0.21762 0.86725 0.0
C281 C 0.66718 0.13536 0.91182 0.0
C282 C 0.61477 0.14494 0.92152 0.0
H283 H 0.74344 0.16199 0.87842 0.0
H284 H 0.68016 0.09997 0.92438 0.0
S285 S 0.5585 0.26475 0.88676 0.0
N286 N 0.61976 0.27346 0.86411 0.0
N287 N 0.55153 0.2073 0.91341 0.0
C288 C 0.60024 0.19234 0.90456 0.0
C289 C 0.63717 0.22835 0.87763 0.0
C290 C 0.86876 0.81192 0.42088 0.0
C291 C 0.84735 0.83001 0.37961 0.0
C292 C 0.90659 0.84457 0.44688 0.0
C293 C 0.9235 0.89671 0.43312 0.0
H294 H 0.85749 0.77155 0.43204 0.0
H295 H 0.92381 0.82847 0.47717 0.0
S296 S 0.87792 0.96393 0.32957 0.0
N297 N 0.84439 0.9039 0.32722 0.0
N298 N 0.91557 0.96565 0.37675 0.0
C299 C 0.9013 0.91603 0.39309 0.0
C300 C 0.86319 0.88248 0.36608 0.0
C301 C 0.39451 0.65893 0.72498 0.0
C302 C 0.37297 0.69798 0.70061 0.0
C303 C 0.42143 0.62008 0.69842 0.0
C304 C 0.42666 0.61726 0.64622 0.0
H305 H 0.39231 0.65947 0.76514 0.0
H306 H 0.44045 0.59352 0.71901 0.0
S307 S 0.37654 0.70742 0.56347 0.0
N308 N 0.35878 0.72988 0.61996 0.0
N309 N 0.40669 0.65507 0.57084 0.0
C310 C 0.40275 0.65353 0.62113 0.0
C311 C 0.3765 0.69415 0.64804 0.0
C312 C 0.97226 0.00584 0.78986 0.0
C313 C 0.95199 0.95213 0.79359 0.0
C314 C 0.99551 0.02486 0.74501 0.0
C315 C 0.99874 0.99119 0.70165 0.0
H316 H 0.968 0.0339 0.82133 0.0
H317 H 0.00768 0.06725 0.74344 0.0
S318 S 0.95729 0.84563 0.69363 0.0
N319 N 0.94187 0.86407 0.75197 0.0
N320 N 0.98429 0.9002 0.66693 0.0
C321 C 0.98252 0.93648 0.70592 0.0
C322 C 0.95925 0.91691 0.75205 0.0
C323 C 0.55567 0.068 0.28123 0.0
C324 C 0.5744 0.12207 0.28996 0.0
C325 C 0.54453 0.04711 0.23344 0.0
C326 C 0.55154 0.07943 0.1925 0.0
H327 H 0.55285 0.04092 0.31104 0.0
H328 H 0.53463 0.00443 0.22778 0.0
S329 S 0.59288 0.22472 0.19626 0.0
N330 N 0.59392 0.2087 0.25449 0.0
N331 N 0.57311 0.16896 0.16436 0.0
C332 C 0.5656 0.13432 0.20127 0.0
C333 C 0.57697 0.1558 0.25016 0.0
C334 C 0.50769 0.54378 0.27149 0.0
C335 C 0.50627 0.59893 0.27109 0.0
C336 C 0.51046 0.51918 0.31602 0.0
C337 C 0.51159 0.54865 0.36193 0.0
H338 H 0.50485 0.51909 0.23741 0.0
H339 H 0.50931 0.47625 0.3147 0.0
S340 S 0.51097 0.69469 0.38048 0.0
N341 N 0.5096 0.68295 0.31979 0.0
N342 N 0.51246 0.6363 0.40386 0.0
C343 C 0.51281 0.6042 0.36176 0.0
C344 C 0.51071 0.62941 0.3162 0.0
C345 C 0.02674 0.52414 0.75818 0.0
C346 C 0.02705 0.47126 0.7398 0.0
C347 C 0.0309 0.53782 0.80864 0.0
C348 C 0.03525 0.49909 0.84265 0.0
H349 H 0.02654 0.55573 0.73299 0.0
H350 H 0.03369 0.57958 0.82076 0.0
S351 S 0.02873 0.35374 0.81497 0.0
N352 N 0.02443 0.37865 0.76059 0.0
N353 N 0.03359 0.40511 0.85575 0.0
C354 C 0.03085 0.44549 0.82569 0.0
C355 C 0.02646 0.43134 0.77404 0.0
C356 C 0.80116 0.00152 0.96434 0.0
C357 C 0.80025 0.97575 0.91685 0.0
C358 C 0.75594 0.01891 0.98818 0.0
C359 C 0.70791 0.01105 0.9656 0.0
H360 H 0.83637 0.00529 0.98449 0.0
H361 H 0.75755 0.03458 0.02633 0.0
S362 S 0.68606 0.95106 0.83925 0.0
N363 N 0.74874 0.948 0.84591 0.0
N364 N 0.66325 0.98012 0.89127 0.0
C365 C 0.70742 0.98947 0.91648 0.0
C366 C 0.75376 0.97186 0.89197 0.0
C367 C 0.7996 0.06234 0.4416 0.0
C368 C 0.75484 0.06214 0.47476 0.0
C369 C 0.84665 0.04728 0.45655 0.0
C370 C 0.85022 0.03088 0.50484 0.0
H371 H 0.7994 0.07734 0.40499 0.0
H372 H 0.88142 0.05291 0.4317 0.0
S373 S 0.74254 0.01615 0.60307 0.0
N374 N 0.71595 0.03877 0.5561 0.0
N375 N 0.80376 0.01033 0.58376 0.0
C376 C 0.80466 0.0266 0.5367 0.0
C377 C 0.75715 0.04224 0.52178 0.0
C378 C 0.27392 0.60254 0.09727 0.0
C379 C 0.31842 0.57779 0.08181 0.0
C380 C 0.22528 0.58395 0.07904 0.0
C381 C 0.21954 0.54009 0.04469 0.0
H382 H 0.27729 0.63798 0.12194 0.0
H383 H 0.19261 0.60617 0.08943 0.0
S384 S 0.32336 0.45973 0.99474 0.0
N385 N 0.35339 0.50541 0.03268 0.0
N386 N 0.26156 0.47111 0.99727 0.0
C387 C 0.26314 0.51351 0.03059 0.0
C388 C 0.31275 0.53211 0.04966 0.0
C389 C 0.2406 0.49588 0.54719 0.0
C390 C 0.22609 0.46878 0.59066 0.0
C391 C 0.2932 0.51283 0.53432 0.0
C392 C 0.33278 0.50272 0.56433 0.0
H393 H 0.21182 0.49897 0.52057 0.0
H394 H 0.30338 0.5282 0.49791 0.0
S395 S 0.31371 0.44297 0.68665 0.0
N396 N 0.25398 0.44041 0.6676 0.0
N397 N 0.35338 0.47224 0.6431 0.0
C398 C 0.31817 0.48225 0.61095 0.0
C399 C 0.26445 0.46495 0.62413 0.0
C400 C 0.03696 0.79254 0.98777 0.0
C401 C 0.98479 0.79082 0.97556 0.0
C402 C 0.05628 0.74733 0.00282 0.0
C403 C 0.02431 0.69825 0.00611 0.0
H404 H 0.06392 0.82857 0.98336 0.0
H405 H 0.09759 0.75006 0.00884 0.0
S406 S 0.88273 0.6741 0.98475 0.0
N407 N 0.89962 0.73743 0.97336 0.0
N408 N 0.93636 0.65198 0.00055 0.0
C409 C 0.97094 0.69693 0.99787 0.0
C410 C 0.95108 0.7433 0.9827 0.0
C411 C 0.46299 0.75468 0.03504 0.0
C412 C 0.44632 0.74079 0.08381 0.0
C413 C 0.48194 0.80775 0.02477 0.0
C414 C 0.4842 0.8479 0.06309 0.0
H415 H 0.46377 0.72405 0.00533 0.0
H416 H 0.49778 0.81674 0.98764 0.0
S417 S 0.43675 0.83306 0.19479 0.0
N418 N 0.42721 0.7722 0.16893 0.0
N419 N 0.46237 0.87137 0.14988 0.0
C420 C 0.46384 0.83483 0.11096 0.0
C421 C 0.44501 0.78134 0.12131 0.0
C422 C 0.15371 0.25808 0.55223 0.0
C423 C 0.1255 0.29724 0.53654 0.0
C424 C 0.1369 0.20387 0.54239 0.0
C425 C 0.09163 0.18798 0.51671 0.0
H426 H 0.1848 0.26906 0.57718 0.0
H427 H 0.15502 0.17473 0.56065 0.0
S428 S 0.01285 0.27545 0.4574 0.0
N429 N 0.05709 0.31688 0.48603 0.0
N430 N 0.02562 0.21494 0.46747 0.0
C431 C 0.06835 0.22679 0.49453 0.0
C432 C 0.08517 0.28173 0.50468 0.0
C433 C 0.55176 0.24083 0.48327 0.0
C434 C 0.58851 0.24589 0.44231 0.0
C435 C 0.53061 0.28564 0.50597 0.0
C436 C 0.54666 0.337 0.48925 0.0
H437 H 0.5372 0.20172 0.49603 0.0
H438 H 0.49977 0.27981 0.53512 0.0
S439 S 0.64325 0.3713 0.38459 0.0
N440 N 0.64095 0.3061 0.38696 0.0
N441 N 0.60212 0.3901 0.42991 0.0
C442 C 0.58485 0.34252 0.44959 0.0
C443 C 0.60569 0.29705 0.42615 0.0
loop_
_geom_bond_atom_site_label_1
_geom_bond_atom_site_label_2
_geom_bond_distance
_geom_bond_site_symmetry_2
_ccdc_geom_bond_type
H0 C5 0.930 . S
H1 C8 0.930 . S
H2 C10 0.930 . S
H3 C4 1.016 . S
C4 H3 1.016 . S
C4 N11 1.286 . S
C5 H0 0.930 . S
C5 C6 1.397 . S
C5 C7 1.361 . S
C6 C5 1.397 . S
C6 C10 1.390 . S
C7 C5 1.361 . S
C7 C8 1.393 . S
C7 N11 1.413 . S
C8 H1 0.930 . S
C8 C7 1.393 . S
C8 C9 1.399 . S
C9 C8 1.399 . S
C9 C10 1.381 . S
C10 H2 0.930 . S
C10 C6 1.390 . S
C10 C9 1.381 . S
N11 C4 1.286 . S
N11 C7 1.413 . S
H12 C17 0.930 . S
H13 C20 0.930 . S
H14 C22 0.930 . S
H15 C16 1.016 . S
C16 H15 1.016 . S
C16 N23 1.286 . S
C17 H12 0.930 . S
C17 C18 1.397 . S
C17 C19 1.361 . S
C18 C17 1.397 . S
C18 C22 1.390 . S
C19 C17 1.361 . S
C19 C20 1.393 . S
C19 N23 1.413 . S
C20 H13 0.930 . S
C20 C19 1.393 . S
C20 C21 1.399 . S
C21 C20 1.399 . S
C21 C22 1.381 . S
C22 H14 0.930 . S
C22 C18 1.390 . S
C22 C21 1.381 . S
N23 C16 1.286 . S
N23 C19 1.413 . S
H24 C29 0.930 . S
H25 C32 0.930 . S
H26 C34 0.930 . S
H27 C28 1.016 . S
C28 H27 1.016 . S
C28 N35 1.286 . S
C29 H24 0.930 . S
C29 C30 1.397 . S
C29 C31 1.361 . S
C30 C29 1.397 . S
C30 C34 1.390 . S
C31 C29 1.361 . S
C31 C32 1.393 . S
C31 N35 1.413 . S
C32 H25 0.930 . S
C32 C31 1.393 . S
C32 C33 1.399 . S
C33 C32 1.399 . S
C33 C34 1.381 . S
C34 H26 0.930 . S
C34 C30 1.390 . S
C34 C33 1.381 . S
N35 C28 1.286 . S
N35 C31 1.413 . S
H36 C41 0.930 . S
H37 C44 0.930 . S
H38 C46 0.930 . S
H39 C40 1.016 . S
C40 H39 1.016 . S
C40 N47 1.286 . S
C41 H36 0.930 . S
C41 C42 1.397 . S
C41 C43 1.361 . S
C42 C41 1.397 . S
C42 C46 1.390 . S
C43 C41 1.361 . S
C43 C44 1.393 . S
C43 N47 1.413 . S
C44 H37 0.930 . S
C44 C43 1.393 . S
C44 C45 1.399 . S
C45 C44 1.399 . S
C45 C46 1.381 . S
C46 H38 0.930 . S
C46 C42 1.390 . S
C46 C45 1.381 . S
N47 C40 1.286 . S
N47 C43 1.413 . S
H48 C53 0.930 1_554 S
H49 C56 0.930 1_455 S
H50 C58 0.930 . S
H51 C52 1.016 1_455 S
C52 H51 1.016 1_655 S
C52 N59 1.286 . S
C53 H48 0.930 1_556 S
C53 C54 1.397 . S
C53 C55 1.361 . S
C54 C53 1.397 . S
C54 C58 1.390 1_565 S
C55 C53 1.361 . S
C55 C56 1.393 . S
C55 N59 1.413 . S
C56 H49 0.930 1_655 S
C56 C55 1.393 . S
C56 C57 1.399 . S
C57 C56 1.399 . S
C57 C58 1.381 1_565 S
C58 H50 0.930 . S
C58 C54 1.390 1_545 S
C58 C57 1.381 1_545 S
N59 C52 1.286 . S
N59 C55 1.413 . S
H60 C65 0.930 . S
H61 C68 0.930 . S
H62 C70 0.930 . S
H63 C64 1.016 . S
C64 H63 1.016 . S
C64 N71 1.286 . S
C65 H60 0.930 . S
C65 C66 1.397 . S
C65 C67 1.361 . S
C66 C65 1.397 . S
C66 C70 1.390 . S
C67 C65 1.361 . S
C67 C68 1.393 . S
C67 N71 1.413 . S
C68 H61 0.930 . S
C68 C67 1.393 . S
C68 C69 1.399 . S
C69 C68 1.399 . S
C69 C70 1.381 . S
C70 H62 0.930 . S
C70 C66 1.390 . S
C70 C69 1.381 . S
N71 C64 1.286 . S
N71 C67 1.413 . S
H72 C77 0.930 . S
H73 C80 0.930 . S
H74 C82 0.930 . S
H75 C76 1.016 . S
C76 H75 1.016 . S
C76 N83 1.286 . S
C77 H72 0.930 . S
C77 C78 1.397 . S
C77 C79 1.361 . S
C78 C77 1.397 . S
C78 C82 1.390 . S
C79 C77 1.361 . S
C79 C80 1.393 . S
C79 N83 1.413 . S
C80 H73 0.930 . S
C80 C79 1.393 . S
C80 C81 1.399 . S
C81 C80 1.399 . S
C81 C82 1.381 . S
C82 H74 0.930 . S
C82 C78 1.390 . S
C82 C81 1.381 . S
N83 C76 1.286 . S
N83 C79 1.413 . S
H84 C89 0.930 . S
H85 C92 0.930 . S
H86 C94 0.930 . S
H87 C88 1.016 . S
C88 H87 1.016 . S
C88 N95 1.286 . S
C89 H84 0.930 . S
C89 C90 1.397 . S
C89 C91 1.361 . S
C90 C89 1.397 . S
C90 C94 1.390 . S
C91 C89 1.361 . S
C91 C92 1.393 . S
C91 N95 1.413 . S
C92 H85 0.930 . S
C92 C91 1.393 . S
C92 C93 1.399 . S
C93 C92 1.399 . S
C93 C94 1.381 . S
C94 H86 0.930 . S
C94 C90 1.390 . S
C94 C93 1.381 . S
N95 C88 1.286 . S
N95 C91 1.413 . S
Zn96 O102 1.920 . S
Zn96 O108 1.898 . S
Zn96 O111 1.905 . S
Zn97 O105 1.905 1_565 S
Zn97 O106 1.898 . S
Zn97 O114 1.920 . S
Zn98 O101 2.079 1_445 S
Zn98 O104 2.114 . S
Zn98 O107 2.120 1_445 S
Zn98 O109 2.120 . S
Zn98 O110 2.114 1_455 S
Zn98 O113 2.080 . S
C99 O104 1.166 . S
C99 O105 1.182 . S
C100 O106 1.167 1_655 S
C100 O107 1.299 . S
O101 Zn98 2.079 1_665 S
O101 C115 1.304 1_565 S
O102 Zn96 1.920 . S
O102 C115 1.234 . S
C103 O108 1.167 1_455 S
C103 O109 1.299 . S
O104 Zn98 2.114 . S
O104 C99 1.166 . S
O105 Zn97 1.905 1_545 S
O105 C99 1.182 . S
O106 Zn97 1.898 . S
O106 C100 1.167 1_455 S
O107 Zn98 2.120 1_665 S
O107 C100 1.299 . S
O108 Zn96 1.898 . S
O108 C103 1.167 1_655 S
O109 Zn98 2.120 . S
O109 C103 1.299 . S
O110 Zn98 2.114 1_655 S
O110 C112 1.166 . S
O111 Zn96 1.905 . S
O111 C112 1.182 . S
C112 O110 1.166 . S
C112 O111 1.182 . S
O113 Zn98 2.080 . S
O113 C116 1.305 1_545 S
O114 Zn97 1.920 . S
O114 C116 1.234 . S
C115 O101 1.304 1_545 S
C115 O102 1.234 . S
C116 O113 1.305 1_565 S
C116 O114 1.234 . S
Zn117 O123 1.920 1_556 S
Zn117 O129 1.898 . S
Zn117 O132 1.905 . S
Zn118 O126 1.905 . S
Zn118 O127 1.898 . S
Zn118 O135 1.920 . S
Zn119 O122 2.080 . S
Zn119 O125 2.114 1_545 S
Zn119 O128 2.120 1_545 S
Zn119 O130 2.120 . S
Zn119 O131 2.114 1_544 S
Zn119 O134 2.080 . S
C120 O125 1.166 . S
C120 O126 1.182 . S
C121 O127 1.167 . S
C121 O128 1.299 . S
O122 Zn119 2.080 . S
O122 C136 1.305 . S
O123 Zn117 1.920 1_554 S
O123 C136 1.234 . S
C124 O129 1.167 . S
C124 O130 1.299 1_556 S
O125 Zn119 2.114 1_565 S
O125 C120 1.166 . S
O126 Zn118 1.905 . S
O126 C120 1.182 . S
O127 Zn118 1.898 . S
O127 C121 1.167 . S
O128 Zn119 2.120 1_565 S
O128 C121 1.299 . S
O129 Zn117 1.898 . S
O129 C124 1.167 . S
O130 Zn119 2.120 . S
O130 C124 1.299 1_554 S
O131 Zn119 2.114 1_566 S
O131 C133 1.166 . S
O132 Zn117 1.905 . S
O132 C133 1.182 1_545 S
C133 O131 1.166 . S
C133 O132 1.182 1_565 S
O134 Zn119 2.080 . S
O134 C137 1.305 . S
O135 Zn118 1.920 . S
O135 C137 1.234 1_565 S
C136 O122 1.305 . S
C136 O123 1.234 . S
C137 O134 1.305 . S
C137 O135 1.234 1_545 S
Zn138 O144 1.920 . S
Zn138 O150 1.898 . S
Zn138 O153 1.905 . S
Zn139 O147 1.905 . S
Zn139 O148 1.898 . S
Zn139 O156 1.920 . S
Zn140 O143 2.080 . S
Zn140 O146 2.114 . S
Zn140 O149 2.120 . S
Zn140 O151 2.120 . S
Zn140 O152 2.114 . S
Zn140 O155 2.080 . S
C141 O146 1.166 . S
C141 O147 1.182 . S
C142 O148 1.167 . S
C142 O149 1.299 . S
O143 Zn140 2.080 . S
O143 C157 1.305 . S
O144 Zn138 1.920 . S
O144 C157 1.234 . S
C145 O150 1.167 . S
C145 O151 1.299 . S
O146 Zn140 2.114 . S
O146 C141 1.166 . S
O147 Zn139 1.905 . S
O147 C141 1.182 . S
O148 Zn139 1.898 . S
O148 C142 1.167 . S
O149 Zn140 2.120 . S
O149 C142 1.299 . S
O150 Zn138 1.898 . S
O150 C145 1.167 . S
O151 Zn140 2.120 . S
O151 C145 1.299 . S
O152 Zn140 2.114 . S
O152 C154 1.166 . S
O153 Zn138 1.905 . S
O153 C154 1.182 . S
C154 O152 1.166 . S
C154 O153 1.182 . S
O155 Zn140 2.080 . S
O155 C158 1.305 . S
O156 Zn139 1.920 . S
O156 C158 1.234 . S
C157 O143 1.305 . S
C157 O144 1.234 . S
C158 O155 1.305 . S
C158 O156 1.234 . S
Zn159 O165 1.920 . S
Zn159 O171 1.898 . S
Zn159 O174 1.905 . S
Zn160 O168 1.905 1_655 S
Zn160 O169 1.898 . S
Zn160 O177 1.920 . S
Zn161 O164 2.080 1_554 S
Zn161 O167 2.114 . S
Zn161 O170 2.120 1_454 S
Zn161 O172 2.120 . S
Zn161 O173 2.114 1_554 S
Zn161 O176 2.080 . S
C162 O167 1.166 . S
C162 O168 1.182 . S
C163 O169 1.167 1_556 S
C163 O170 1.299 . S
O164 Zn161 2.080 1_556 S
O164 C178 1.305 . S
O165 Zn159 1.920 . S
O165 C178 1.234 . S
C166 O171 1.167 1_554 S
C166 O172 1.299 . S
O167 Zn161 2.114 . S
O167 C162 1.166 . S
O168 Zn160 1.905 1_455 S
O168 C162 1.182 . S
O169 Zn160 1.898 . S
O169 C163 1.167 1_554 S
O170 Zn161 2.120 1_656 S
O170 C163 1.299 . S
O171 Zn159 1.898 . S
O171 C166 1.167 1_556 S
O172 Zn161 2.120 . S
O172 C166 1.299 . S
O173 Zn161 2.114 1_556 S
O173 C175 1.166 . S
O174 Zn159 1.905 . S
O174 C175 1.182 . S
C175 O173 1.166 . S
C175 O174 1.182 . S
O176 Zn161 2.080 . S
O176 C179 1.305 1_455 S
O177 Zn160 1.920 . S
O177 C179 1.234 . S
C178 O164 1.305 . S
C178 O165 1.234 . S
C179 O176 1.305 1_655 S
C179 O177 1.234 . S
C180 C181 1.369 . S
C180 C182 1.419 . S
C180 H184 0.930 . S
C181 C180 1.369 . S
C181 C190 1.429 . S
C182 C180 1.419 . S
C182 C183 1.363 . S
C182 H185 0.929 . S
C183 C182 1.363 . S
C183 C189 1.428 . S
H184 C180 0.930 . S
H185 C182 0.929 . S
S186 N187 1.613 . S
S186 N188 1.610 . S
N187 S186 1.613 . S
N187 C190 1.350 . S
N188 S186 1.610 . S
N188 C189 1.351 . S
C189 C183 1.428 . S
C189 N188 1.351 . S
C189 C190 1.434 . S
C190 C181 1.429 . S
C190 N187 1.350 . S
C190 C189 1.434 . S
C191 C192 1.369 . S
C191 C193 1.419 . S
C191 H195 0.930 . S
C192 C191 1.369 . S
C192 C201 1.429 . S
C193 C191 1.419 . S
C193 C194 1.363 . S
C193 H196 0.929 . S
C194 C193 1.363 . S
C194 C200 1.428 . S
H195 C191 0.930 . S
H196 C193 0.929 . S
S197 N198 1.613 . S
S197 N199 1.610 . S
N198 S197 1.613 . S
N198 C201 1.350 . S
N199 S197 1.610 . S
N199 C200 1.351 . S
C200 C194 1.428 . S
C200 N199 1.351 . S
C200 C201 1.434 . S
C201 C192 1.429 . S
C201 N198 1.350 . S
C201 C200 1.434 . S
C202 C203 1.369 . S
C202 C204 1.419 . S
C202 H206 0.930 . S
C203 C202 1.369 . S
C203 C212 1.429 . S
C204 C202 1.419 . S
C204 C205 1.363 . S
C204 H207 0.929 . S
C205 C204 1.363 . S
C205 C211 1.428 . S
H206 C202 0.930 . S
H207 C204 0.929 . S
S208 N209 1.613 . S
S208 N210 1.610 . S
N209 S208 1.613 . S
N209 C212 1.350 . S
N210 S208 1.610 . S
N210 C211 1.351 . S
C211 C205 1.428 . S
C211 N210 1.351 . S
C211 C212 1.434 . S
C212 C203 1.429 . S
C212 N209 1.350 . S
C212 C211 1.434 . S
C213 C214 1.369 . S
C213 C215 1.419 . S
C213 H217 0.930 . S
C214 C213 1.369 . S
C214 C223 1.429 . S
C215 C213 1.419 . S
C215 C216 1.363 . S
C215 H218 0.929 1_655 S
C216 C215 1.363 . S
C216 C222 1.428 . S
H217 C213 0.930 . S
H218 C215 0.929 1_455 S
S219 N220 1.613 . S
S219 N221 1.610 . S
N220 S219 1.613 . S
N220 C223 1.350 . S
N221 S219 1.610 . S
N221 C222 1.351 . S
C222 C216 1.428 . S
C222 N221 1.351 . S
C222 C223 1.434 . S
C223 C214 1.429 . S
C223 N220 1.350 . S
C223 C222 1.434 . S
C224 C225 1.369 . S
C224 C226 1.419 . S
C224 H228 0.930 . S
C225 C224 1.369 . S
C225 C234 1.429 . S
C226 C224 1.419 . S
C226 C227 1.363 . S
C226 H229 0.929 . S
C227 C226 1.363 . S
C227 C233 1.428 . S
H228 C224 0.930 . S
H229 C226 0.929 . S
S230 N231 1.613 1_565 S
S230 N232 1.610 1_565 S
N231 S230 1.613 1_545 S
N231 C234 1.350 . S
N232 S230 1.610 1_545 S
N232 C233 1.351 . S
C233 C227 1.428 . S
C233 N232 1.351 . S
C233 C234 1.434 . S
C234 C225 1.429 . S
C234 N231 1.350 . S
C234 C233 1.434 . S
C235 C236 1.369 . S
C235 C237 1.419 . S
C235 H239 0.930 . S
C236 C235 1.369 . S
C236 C245 1.429 . S
C237 C235 1.419 . S
C237 C238 1.363 . S
C237 H240 0.929 1_565 S
C238 C237 1.363 . S
C238 C244 1.428 . S
H239 C235 0.930 . S
H240 C237 0.929 1_545 S
S241 N242 1.613 . S
S241 N243 1.610 . S
N242 S241 1.613 . S
N242 C245 1.350 . S
N243 S241 1.610 . S
N243 C244 1.351 . S
C244 C238 1.428 . S
C244 N243 1.351 . S
C244 C245 1.434 . S
C245 C236 1.429 . S
C245 N242 1.350 . S
C245 C244 1.434 . S
C246 C247 1.369 . S
C246 C248 1.419 . S
C246 H250 0.930 . S
C247 C246 1.369 . S
C247 C256 1.429 . S
C248 C246 1.419 . S
C248 C249 1.363 . S
C248 H251 0.929 . S
C249 C248 1.363 . S
C249 C255 1.428 . S
H250 C246 0.930 . S
H251 C248 0.929 . S
S252 N253 1.613 . S
S252 N254 1.610 . S
N253 S252 1.613 . S
N253 C256 1.350 . S
N254 S252 1.610 . S
N254 C255 1.351 . S
C255 C249 1.428 . S
C255 N254 1.351 . S
C255 C256 1.434 . S
C256 C247 1.429 . S
C256 N253 1.350 . S
C256 C255 1.434 . S
C257 C258 1.369 . S
C257 C259 1.419 . S
C257 H261 0.930 . S
C258 C257 1.369 . S
C258 C267 1.429 . S
C259 C257 1.419 . S
C259 C260 1.363 . S
C259 H262 0.929 . S
C260 C259 1.363 . S
C260 C266 1.428 . S
H261 C257 0.930 . S
H262 C259 0.929 . S
S263 N264 1.613 . S
S263 N265 1.610 . S
N264 S263 1.613 . S
N264 C267 1.350 . S
N265 S263 1.610 . S
N265 C266 1.351 . S
C266 C260 1.428 . S
C266 N265 1.351 . S
C266 C267 1.434 . S
C267 C258 1.429 . S
C267 N264 1.350 . S
C267 C266 1.434 . S
C268 C269 1.369 . S
C268 C270 1.419 . S
C268 H272 0.930 . S
C269 C268 1.369 . S
C269 C278 1.429 . S
C270 C268 1.419 . S
C270 C271 1.363 . S
C270 H273 0.929 . S
C271 C270 1.363 . S
C271 C277 1.428 . S
H272 C268 0.930 . S
H273 C270 0.929 . S
S274 N275 1.613 . S
S274 N276 1.610 . S
N275 S274 1.613 . S
N275 C278 1.350 . S
N276 S274 1.610 . S
N276 C277 1.351 . S
C277 C271 1.428 . S
C277 N276 1.351 . S
C277 C278 1.434 . S
C278 C269 1.429 . S
C278 N275 1.350 . S
C278 C277 1.434 . S
C279 C280 1.369 . S
C279 C281 1.419 . S
C279 H283 0.930 . S
C280 C279 1.369 . S
C280 C289 1.429 . S
C281 C279 1.419 . S
C281 C282 1.363 . S
C281 H284 0.929 . S
C282 C281 1.363 . S
C282 C288 1.428 . S
H283 C279 0.930 . S
H284 C281 0.929 . S
S285 N286 1.613 1_554 S
S285 N287 1.610 . S
N286 S285 1.613 1_556 S
N286 C289 1.350 . S
N287 S285 1.610 . S
N287 C288 1.351 1_554 S
C288 C282 1.428 . S
C288 N287 1.351 1_556 S
C288 C289 1.434 . S
C289 C280 1.429 . S
C289 N286 1.350 . S
C289 C288 1.434 . S
C290 C291 1.369 . S
C290 C292 1.419 . S
C290 H294 0.930 . S
C291 C290 1.369 . S
C291 C300 1.429 . S
C292 C290 1.419 . S
C292 C293 1.363 . S
C292 H295 0.929 1_655 S
C293 C292 1.363 . S
C293 C299 1.428 . S
H294 C290 0.930 . S
H295 C292 0.929 1_455 S
S296 N297 1.613 . S
S296 N298 1.610 . S
N297 S296 1.613 . S
N297 C300 1.350 . S
N298 S296 1.610 . S
N298 C299 1.351 . S
C299 C293 1.428 . S
C299 N298 1.351 . S
C299 C300 1.434 . S
C300 C291 1.429 . S
C300 N297 1.350 . S
C300 C299 1.434 . S
C301 C302 1.369 . S
C301 C303 1.419 . S
C301 H305 0.930 . S
C302 C301 1.369 . S
C302 C311 1.429 . S
C303 C301 1.419 . S
C303 C304 1.363 . S
C303 H306 0.929 . S
C304 C303 1.363 . S
C304 C310 1.428 . S
H305 C301 0.930 . S
H306 C303 0.929 . S
S307 N308 1.613 . S
S307 N309 1.610 . S
N308 S307 1.613 . S
N308 C311 1.350 . S
N309 S307 1.610 . S
N309 C310 1.351 . S
C310 C304 1.428 . S
C310 N309 1.351 . S
C310 C311 1.434 . S
C311 C302 1.429 . S
C311 N308 1.350 . S
C311 C310 1.434 . S
C312 C313 1.369 1_455 S
C312 C314 1.419 . S
C312 H316 0.930 . S
C313 C312 1.369 1_655 S
C313 C322 1.429 1_565 S
C314 C312 1.419 . S
C314 C315 1.363 1_455 S
C314 H317 0.929 . S
C315 C314 1.363 1_655 S
C315 C321 1.428 1_565 S
H316 C312 0.930 . S
H317 C314 0.929 . S
S318 N319 1.613 . S
S318 N320 1.610 . S
N319 S318 1.613 . S
N319 C322 1.350 . S
N320 S318 1.610 . S
N320 C321 1.351 . S
C321 C315 1.428 1_545 S
C321 N320 1.351 . S
C321 C322 1.434 . S
C322 C313 1.429 1_545 S
C322 N319 1.350 . S
C322 C321 1.434 . S
C323 C324 1.369 . S
C323 C325 1.419 . S
C323 H327 0.930 . S
C324 C323 1.369 . S
C324 C333 1.429 . S
C325 C323 1.419 . S
C325 C326 1.363 . S
C325 H328 0.929 1_545 S
C326 C325 1.363 . S
C326 C332 1.428 . S
H327 C323 0.930 . S
H328 C325 0.929 1_565 S
S329 N330 1.613 . S
S329 N331 1.610 . S
N330 S329 1.613 . S
N330 C333 1.350 . S
N331 S329 1.610 . S
N331 C332 1.351 . S
C332 C326 1.428 . S
C332 N331 1.351 . S
C332 C333 1.434 . S
C333 C324 1.429 . S
C333 N330 1.350 . S
C333 C332 1.434 . S
C334 C335 1.369 . S
C334 C336 1.419 . S
C334 H338 0.930 . S
C335 C334 1.369 . S
C335 C344 1.429 . S
C336 C334 1.419 . S
C336 C337 1.363 . S
C336 H339 0.929 . S
C337 C336 1.363 . S
C337 C343 1.428 . S
H338 C334 0.930 . S
H339 C336 0.929 . S
S340 N341 1.613 . S
S340 N342 1.610 . S
N341 S340 1.613 . S
N341 C344 1.350 . S
N342 S340 1.610 . S
N342 C343 1.351 . S
C343 C337 1.428 . S
C343 N342 1.351 . S
C343 C344 1.434 . S
C344 C335 1.429 . S
C344 N341 1.350 . S
C344 C343 1.434 . S
C345 C346 1.369 . S
C345 C347 1.419 . S
C345 H349 0.930 . S
C346 C345 1.369 . S
C346 C355 1.429 . S
C347 C345 1.419 . S
C347 C348 1.363 . S
C347 H350 0.929 . S
C348 C347 1.363 . S
C348 C354 1.428 . S
H349 C345 0.930 . S
H350 C347 0.929 . S
S351 N352 1.613 . S
S351 N353 1.610 . S
N352 S351 1.613 . S
N352 C355 1.350 . S
N353 S351 1.610 . S
N353 C354 1.351 . S
C354 C348 1.428 . S
C354 N353 1.351 . S
C354 C355 1.434 . S
C355 C346 1.429 . S
C355 N352 1.350 . S
C355 C354 1.434 . S
C356 C357 1.375 . S
C356 C358 1.419 1_556 S
C356 H360 0.927 1_556 S
C357 C356 1.375 . S
C357 C366 1.424 1_545 S
C358 C356 1.419 1_554 S
C358 C359 1.363 1_544 S
C358 H361 0.929 . S
C359 C358 1.363 1_566 S
C359 C365 1.428 . S
H360 C356 0.927 1_554 S
H361 C358 0.929 . S
S362 N363 1.613 . S
S362 N364 1.610 . S
N363 S362 1.613 . S
N363 C366 1.350 . S
N364 S362 1.610 . S
N364 C365 1.351 . S
C365 C359 1.428 . S
C365 N364 1.351 . S
C365 C366 1.434 . S
C366 C357 1.424 1_565 S
C366 N363 1.350 . S
C366 C365 1.434 . S
C367 C368 1.369 . S
C367 C369 1.419 . S
C367 H371 0.930 . S
C368 C367 1.369 . S
C368 C377 1.429 . S
C369 C367 1.419 . S
C369 C370 1.363 . S
C369 H372 0.929 . S
C370 C369 1.363 . S
C370 C376 1.428 . S
H371 C367 0.930 . S
H372 C369 0.929 . S
S373 N374 1.613 . S
S373 N375 1.610 . S
N374 S373 1.613 . S
N374 C377 1.350 1_565 S
N375 S373 1.610 . S
N375 C376 1.351 1_565 S
C376 C370 1.428 . S
C376 N375 1.351 1_545 S
C376 C377 1.434 . S
C377 C368 1.429 . S
C377 N374 1.350 1_545 S
C377 C376 1.434 . S
C378 C379 1.369 . S
C378 C380 1.419 . S
C378 H382 0.930 . S
C379 C378 1.369 . S
C379 C388 1.432 . S
C380 C378 1.419 . S
C380 C381 1.363 . S
C380 H383 0.929 . S
C381 C380 1.363 . S
C381 C387 1.428 1_554 S
H382 C378 0.930 . S
H383 C380 0.929 . S
S384 N385 1.613 . S
S384 N386 1.610 . S
N385 S384 1.613 . S
N385 C388 1.347 1_556 S
N386 S384 1.610 . S
N386 C387 1.351 . S
C387 C381 1.428 1_556 S
C387 N386 1.351 . S
C387 C388 1.433 1_556 S
C388 C379 1.432 . S
C388 N385 1.347 1_554 S
C388 C387 1.433 1_554 S
C389 C390 1.369 . S
C389 C391 1.419 . S
C389 H393 0.930 . S
C390 C389 1.369 . S
C390 C399 1.429 . S
C391 C389 1.419 . S
C391 C392 1.363 . S
C391 H394 0.929 . S
C392 C391 1.363 . S
C392 C398 1.428 . S
H393 C389 0.930 . S
H394 C391 0.929 . S
S395 N396 1.613 . S
S395 N397 1.610 . S
N396 S395 1.613 . S
N396 C399 1.350 . S
N397 S395 1.610 . S
N397 C398 1.351 . S
C398 C392 1.428 . S
C398 N397 1.351 . S
C398 C399 1.434 . S
C399 C390 1.429 . S
C399 N396 1.350 . S
C399 C398 1.434 . S
C400 C401 1.369 . S
C400 C402 1.419 . S
C400 H404 0.930 . S
C401 C400 1.369 . S
C401 C410 1.429 1_456 S
C402 C400 1.419 . S
C402 C403 1.363 . S
C402 H405 0.929 . S
C403 C402 1.363 . S
C403 C409 1.441 1_556 S
H404 C400 0.930 . S
H405 C402 0.929 . S
S406 N407 1.613 . S
S406 N408 1.610 . S
N407 S406 1.613 . S
N407 C410 1.350 . S
N408 S406 1.610 . S
N408 C409 1.345 1_655 S
C409 C403 1.441 1_554 S
C409 N408 1.345 1_455 S
C409 C410 1.428 1_455 S
C410 C401 1.429 1_654 S
C410 N407 1.350 . S
C410 C409 1.428 1_655 S
C411 C412 1.369 . S
C411 C413 1.419 . S
C411 H415 0.930 1_554 S
C412 C411 1.369 . S
C412 C421 1.429 . S
C413 C411 1.419 . S
C413 C414 1.363 . S
C413 H416 0.929 1_554 S
C414 C413 1.363 . S
C414 C420 1.428 . S
H415 C411 0.930 1_556 S
H416 C413 0.929 1_556 S
S417 N418 1.613 . S
S417 N419 1.610 . S
N418 S417 1.613 . S
N418 C421 1.350 . S
N419 S417 1.610 . S
N419 C420 1.351 . S
C420 C414 1.428 . S
C420 N419 1.351 . S
C420 C421 1.434 . S
C421 C412 1.429 . S
C421 N418 1.350 . S
C421 C420 1.434 . S
C422 C423 1.369 . S
C422 C424 1.419 . S
C422 H426 0.930 . S
C423 C422 1.369 . S
C423 C432 1.429 . S
C424 C422 1.419 . S
C424 C425 1.363 . S
C424 H427 0.929 . S
C425 C424 1.363 . S
C425 C431 1.428 . S
H426 C422 0.930 . S
H427 C424 0.929 . S
S428 N429 1.613 . S
S428 N430 1.610 . S
N429 S428 1.613 . S
N429 C432 1.350 1_655 S
N430 S428 1.610 . S
N430 C431 1.351 1_655 S
C431 C425 1.428 . S
C431 N430 1.351 1_455 S
C431 C432 1.434 . S
C432 C423 1.429 . S
C432 N429 1.350 1_455 S
C432 C431 1.434 . S
C433 C434 1.369 . S
C433 C435 1.419 . S
C433 H437 0.930 . S
C434 C433 1.369 . S
C434 C443 1.429 . S
C435 C433 1.419 . S
C435 C436 1.363 . S
C435 H438 0.929 . S
C436 C435 1.363 . S
C436 C442 1.428 . S
H437 C433 0.930 . S
H438 C435 0.929 . S
S439 N440 1.613 . S
S439 N441 1.610 . S
N440 S439 1.613 . S
N440 C443 1.350 . S
N441 S439 1.610 . S
N441 C442 1.351 . S
C442 C436 1.428 . S
C442 N441 1.351 . S
C442 C443 1.434 . S
C443 C434 1.429 . S
C443 N440 1.350 . S
C443 C442 1.434 . S
C181 C6 1.695 . S
C183 C99 1.561 . S
C192 C18 1.749 . S
C194 C133 1.648 . S
C205 C145 1.412 . S
C203 C28 1.501 . S
C214 C40 1.154 . S
C216 C179 1.076 . S
C227 C136 1.626 . S
C225 C9 1.743 . S
C238 C116 1.414 . S
C236 C16 1.504 . S
C249 C163 1.436 . S
C247 C30 1.545 . S
C260 C154 1.211 . S
C258 C42 1.317 . S
C269 C4 1.529 . S
C271 C162 1.455 . S
C282 C124 1.443 . S
C280 C33 1.555 . S
C291 C45 1.357 . S
C293 C100 1.272 . S
C302 C21 1.722 . S
C304 C157 1.613 . S
C315 C115 1.641 1_565 S
C313 C57 1.770 . S
C324 C66 1.805 . S
C326 C137 1.707 . S
C335 C76 1.641 . S
C337 C142 1.569 . S
C346 C88 1.227 . S
C348 C175 1.210 . S
C357 C54 1.786 1_545 S
C359 C120 1.707 1_556 S
C370 C112 1.513 . S
C368 C64 1.600 . S
C381 C166 1.446 . S
C379 C78 1.499 . S
C392 C158 1.326 . S
C390 C93 1.410 . S
C401 C52 1.502 1_455 S
C403 C178 1.451 . S
C414 C121 1.511 . S
C412 C81 1.615 . S
C425 C103 1.402 . S
C423 C90 1.464 . S
C434 C69 1.771 . S
C436 C141 1.668 . S
