# Generated by pormake.
# Topology ctn, (3,4)-cn, num edge types: 1
# Building blocks:
#     Node 0, Type 0, BuildingBlock: MIDCAF_clean_linker_0, # of connection points: 3
#     Node 1, Type 0, BuildingBlock: MIDCAF_clean_linker_0, # of connection points: 3
#     Node 2, Type 0, BuildingBlock: MIDCAF_clean_linker_0, # of connection points: 3
#     Node 3, Type 0, BuildingBlock: MIDCAF_clean_linker_0, # of connection points: 3
#     Node 4, Type 0, BuildingBlock: MIDCAF_clean_linker_0, # of connection points: 3
#     Node 5, Type 0, BuildingBlock: MIDCAF_clean_linker_0, # of connection points: 3
#     Node 6, Type 0, BuildingBlock: MIDCAF_clean_linker_0, # of connection points: 3
#     Node 7, Type 0, BuildingBlock: MIDCAF_clean_linker_0, # of connection points: 3
#     Node 8, Type 0, BuildingBlock: MIDCAF_clean_linker_0, # of connection points: 3
#     Node 9, Type 0, BuildingBlock: MIDCAF_clean_linker_0, # of connection points: 3
#     Node 10, Type 0, BuildingBlock: MIDCAF_clean_linker_0, # of connection points: 3
#     Node 11, Type 0, BuildingBlock: MIDCAF_clean_linker_0, # of connection points: 3
#     Node 12, Type 0, BuildingBlock: MIDCAF_clean_linker_0, # of connection points: 3
#     Node 13, Type 0, BuildingBlock: MIDCAF_clean_linker_0, # of connection points: 3
#     Node 14, Type 0, BuildingBlock: MIDCAF_clean_linker_0, # of connection points: 3
#     Node 15, Type 0, BuildingBlock: MIDCAF_clean_linker_0, # of connection points: 3
#     Node 16, Type 1, BuildingBlock: KUFVIS_clean_sbu_0, # of connection points: 4
#     Node 17, Type 1, BuildingBlock: KUFVIS_clean_sbu_0, # of connection points: 4
#     Node 18, Type 1, BuildingBlock: KUFVIS_clean_sbu_0, # of connection points: 4
#     Node 19, Type 1, BuildingBlock: KUFVIS_clean_sbu_0, # of connection points: 4
#     Node 20, Type 1, BuildingBlock: KUFVIS_clean_sbu_0, # of connection points: 4
#     Node 21, Type 1, BuildingBlock: KUFVIS_clean_sbu_0, # of connection points: 4
#     Node 22, Type 1, BuildingBlock: KUFVIS_clean_sbu_0, # of connection points: 4
#     Node 23, Type 1, BuildingBlock: KUFVIS_clean_sbu_0, # of connection points: 4
#     Node 24, Type 1, BuildingBlock: KUFVIS_clean_sbu_0, # of connection points: 4
#     Node 25, Type 1, BuildingBlock: KUFVIS_clean_sbu_0, # of connection points: 4
#     Node 26, Type 1, BuildingBlock: KUFVIS_clean_sbu_0, # of connection points: 4
#     Node 27, Type 1, BuildingBlock: KUFVIS_clean_sbu_0, # of connection points: 4
#     Edge 28, Type (0, 1), BuildingBlock: OJICUG_clean_linker_0, # of connection points: 2
#     Edge 29, Type (0, 1), BuildingBlock: OJICUG_clean_linker_0, # of connection points: 2
#     Edge 30, Type (0, 1), BuildingBlock: OJICUG_clean_linker_0, # of connection points: 2
#     Edge 31, Type (0, 1), BuildingBlock: OJICUG_clean_linker_0, # of connection points: 2
#     Edge 32, Type (0, 1), BuildingBlock: OJICUG_clean_linker_0, # of connection points: 2
#     Edge 33, Type (0, 1), BuildingBlock: OJICUG_clean_linker_0, # of connection points: 2
#     Edge 34, Type (0, 1), BuildingBlock: OJICUG_clean_linker_0, # of connection points: 2
#     Edge 35, Type (0, 1), BuildingBlock: OJICUG_clean_linker_0, # of connection points: 2
#     Edge 36, Type (0, 1), BuildingBlock: OJICUG_clean_linker_0, # of connection points: 2
#     Edge 37, Type (0, 1), BuildingBlock: OJICUG_clean_linker_0, # of connection points: 2
#     Edge 38, Type (0, 1), BuildingBlock: OJICUG_clean_linker_0, # of connection points: 2
#     Edge 39, Type (0, 1), BuildingBlock: OJICUG_clean_linker_0, # of connection points: 2
#     Edge 40, Type (0, 1), BuildingBlock: OJICUG_clean_linker_0, # of connection points: 2
#     Edge 41, Type (0, 1), BuildingBlock: OJICUG_clean_linker_0, # of connection points: 2
#     Edge 42, Type (0, 1), BuildingBlock: OJICUG_clean_linker_0, # of connection points: 2
#     Edge 43, Type (0, 1), BuildingBlock: OJICUG_clean_linker_0, # of connection points: 2
#     Edge 44, Type (0, 1), BuildingBlock: OJICUG_clean_linker_0, # of connection points: 2
#     Edge 45, Type (0, 1), BuildingBlock: OJICUG_clean_linker_0, # of connection points: 2
#     Edge 46, Type (0, 1), BuildingBlock: OJICUG_clean_linker_0, # of connection points: 2
#     Edge 47, Type (0, 1), BuildingBlock: OJICUG_clean_linker_0, # of connection points: 2
#     Edge 48, Type (0, 1), BuildingBlock: OJICUG_clean_linker_0, # of connection points: 2
#     Edge 49, Type (0, 1), BuildingBlock: OJICUG_clean_linker_0, # of connection points: 2
#     Edge 50, Type (0, 1), BuildingBlock: OJICUG_clean_linker_0, # of connection points: 2
#     Edge 51, Type (0, 1), BuildingBlock: OJICUG_clean_linker_0, # of connection points: 2
#     Edge 52, Type (0, 1), BuildingBlock: OJICUG_clean_linker_0, # of connection points: 2
#     Edge 53, Type (0, 1), BuildingBlock: OJICUG_clean_linker_0, # of connection points: 2
#     Edge 54, Type (0, 1), BuildingBlock: OJICUG_clean_linker_0, # of connection points: 2
#     Edge 55, Type (0, 1), BuildingBlock: OJICUG_clean_linker_0, # of connection points: 2
#     Edge 56, Type (0, 1), BuildingBlock: OJICUG_clean_linker_0, # of connection points: 2
#     Edge 57, Type (0, 1), BuildingBlock: OJICUG_clean_linker_0, # of connection points: 2
#     Edge 58, Type (0, 1), BuildingBlock: OJICUG_clean_linker_0, # of connection points: 2
#     Edge 59, Type (0, 1), BuildingBlock: OJICUG_clean_linker_0, # of connection points: 2
#     Edge 60, Type (0, 1), BuildingBlock: OJICUG_clean_linker_0, # of connection points: 2
#     Edge 61, Type (0, 1), BuildingBlock: OJICUG_clean_linker_0, # of connection points: 2
#     Edge 62, Type (0, 1), BuildingBlock: OJICUG_clean_linker_0, # of connection points: 2
#     Edge 63, Type (0, 1), BuildingBlock: OJICUG_clean_linker_0, # of connection points: 2
#     Edge 64, Type (0, 1), BuildingBlock: OJICUG_clean_linker_0, # of connection points: 2
#     Edge 65, Type (0, 1), BuildingBlock: OJICUG_clean_linker_0, # of connection points: 2
#     Edge 66, Type (0, 1), BuildingBlock: OJICUG_clean_linker_0, # of connection points: 2
#     Edge 67, Type (0, 1), BuildingBlock: OJICUG_clean_linker_0, # of connection points: 2
#     Edge 68, Type (0, 1), BuildingBlock: OJICUG_clean_linker_0, # of connection points: 2
#     Edge 69, Type (0, 1), BuildingBlock: OJICUG_clean_linker_0, # of connection points: 2
#     Edge 70, Type (0, 1), BuildingBlock: OJICUG_clean_linker_0, # of connection points: 2
#     Edge 71, Type (0, 1), BuildingBlock: OJICUG_clean_linker_0, # of connection points: 2
#     Edge 72, Type (0, 1), BuildingBlock: OJICUG_clean_linker_0, # of connection points: 2
#     Edge 73, Type (0, 1), BuildingBlock: OJICUG_clean_linker_0, # of connection points: 2
#     Edge 74, Type (0, 1), BuildingBlock: OJICUG_clean_linker_0, # of connection points: 2
#     Edge 75, Type (0, 1), BuildingBlock: OJICUG_clean_linker_0, # of connection points: 2
# Relax obj value: 0.012
# Max RMSD: 0.062
# Mean RMSD: 0.029
data_MOF--net-ctn--node1-KUFVIS_clean_sbu_0--node2-MIDCAF_clean_linker_0--edge1-OJICUG_clean_linker_0
_symmetry_space_group_name_H-M    P1
_symmetry_Int_Tables_number       1
_symmetry_cell_setting            triclinic
loop_
_symmetry_equiv_pos_as_xyz
'x, y, z'
_cell_length_a     51.354972
_cell_length_b     51.227068
_cell_length_c     51.537686
_cell_angle_alpha  91.040982
_cell_angle_beta   90.23919
_cell_angle_gamma 91.729298
loop_
_atom_site_label
_atom_site_type_symbol
_atom_site_fract_x
_atom_site_fract_y
_atom_site_fract_z
_atom_type_partial_charge
C0 C 0.97937 0.03763 0.11841 0.0
C1 C 0.98673 0.01754 0.13491 0.0
C2 C 0.00954 0.00407 0.12918 0.0
C3 C 0.02454 0.0105 0.10748 0.0
H4 H 0.08429 0.98422 0.0623 0.0
H5 H 0.1212 0.95798 0.05056 0.0
H6 H 0.14178 0.01222 0.99023 0.0
H7 H 0.10436 0.03819 1.0015 0.0
H8 H 0.062 0.08004 0.98548 0.0
H9 H 0.04945 0.11647 0.95898 0.0
H10 H 0.99029 0.1361 0.01478 0.0
H11 H 1.00234 0.0993 0.04099 0.0
H12 H 0.98794 0.05961 0.08449 0.0
H13 H 0.96171 0.04814 0.12195 0.0
H14 H 0.01598 0.98872 0.14164 0.0
H15 H 0.04199 0.99972 0.10374 0.0
N16 N 0.05391 0.02319 0.06116 0.0
N17 N 0.06161 0.04978 0.02523 0.0
N18 N 0.02649 0.05786 0.05289 0.0
C19 C 0.06838 0.02922 0.03993 0.0
C20 C 0.04067 0.06422 0.03158 0.0
C21 C 0.03294 0.0374 0.0678 0.0
C22 C 0.09122 0.0134 0.03287 0.0
C23 C 0.09664 0.99065 0.04653 0.0
C24 C 0.11799 0.97563 0.03989 0.0
C25 C 0.13461 0.98297 0.01949 0.0
C26 C 0.12923 0.00576 0.00584 0.0
C27 C 0.1078 0.02075 0.01241 0.0
C28 C 0.03322 0.08662 0.01545 0.0
C29 C 0.04631 0.09209 0.99216 0.0
C30 C 0.03919 0.11312 0.97699 0.0
C31 C 0.01887 0.12932 0.98473 0.0
C32 C 0.00578 0.12385 0.00801 0.0
C33 C 0.01284 0.10278 0.02314 0.0
C34 C 0.01715 0.0306 0.09097 0.0
C35 C 0.99438 0.0441 0.09677 0.0
C36 C 0.27667 0.6177 0.22111 0.0
C37 C 0.25356 0.6157 0.20648 0.0
C38 C 0.24926 0.63413 0.18716 0.0
C39 C 0.26743 0.65458 0.18309 0.0
H40 H 0.27576 0.73163 0.15388 0.0
H41 H 0.26754 0.76637 0.12333 0.0
H42 H 0.34969 0.7865 0.12172 0.0
H43 H 0.35802 0.75201 0.15276 0.0
H44 H 0.38657 0.73983 0.21054 0.0
H45 H 0.42094 0.7459 0.24301 0.0
H46 H 0.39333 0.67639 0.28173 0.0
H47 H 0.35933 0.6699 0.24909 0.0
H48 H 0.31225 0.63893 0.22894 0.0
H49 H 0.2807 0.60359 0.2359 0.0
H50 H 0.23152 0.63318 0.17572 0.0
H51 H 0.2633 0.66874 0.1684 0.0
N52 N 0.30515 0.69784 0.17719 0.0
N53 N 0.34368 0.72017 0.1906 0.0
N54 N 0.33048 0.68136 0.21069 0.0
C55 C 0.32239 0.71836 0.17478 0.0
C56 C 0.3478 0.70174 0.2087 0.0
C57 C 0.3092 0.67913 0.19501 0.0
C58 C 0.31755 0.73905 0.15576 0.0
C59 C 0.2921 0.7434 0.14702 0.0
C60 C 0.28735 0.7634 0.12968 0.0
C61 C 0.30798 0.77914 0.1203 0.0
C62 C 0.33347 0.7746 0.12867 0.0
C63 C 0.33818 0.75493 0.14647 0.0
C64 C 0.36999 0.70448 0.22721 0.0
C65 C 0.38793 0.72567 0.2258 0.0
C66 C 0.4076 0.72922 0.24448 0.0
C67 C 0.40978 0.71168 0.26501 0.0
C68 C 0.39239 0.69006 0.26598 0.0
C69 C 0.37275 0.68648 0.2473 0.0
C70 C 0.29031 0.65691 0.1982 0.0
C71 C 0.29481 0.63799 0.21702 0.0
C72 C 0.00437 0.39512 0.99795 0.0
C73 C 0.98475 0.38604 0.98068 0.0
C74 C 0.96269 0.40123 0.97722 0.0
C75 C 0.95997 0.42463 0.99113 0.0
H76 H 0.90722 0.48363 0.00608 0.0
H77 H 0.86987 0.51107 0.99962 0.0
H78 H 0.90922 0.57378 0.04292 0.0
H79 H 0.94592 0.546 0.05028 0.0
H80 H 0.98198 0.52278 0.09802 0.0
H81 H 0.00947 0.53207 0.13574 0.0
H82 H 0.06158 0.47199 0.11076 0.0
H83 H 0.03363 0.4621 0.07337 0.0
H84 H 0.01685 0.42469 0.02556 0.0
H85 H 0.02154 0.38379 1.00108 0.0
H86 H 0.9474 0.39493 0.96376 0.0
H87 H 0.94252 0.43558 0.98812 0.0
N88 N 0.95536 0.47344 0.01967 0.0
N89 N 0.96815 0.5012 0.05439 0.0
N90 N 0.99186 0.46383 0.04494 0.0
C91 C 0.95165 0.49536 0.0343 0.0
C92 C 0.98826 0.48553 0.05991 0.0
C93 C 0.97553 0.45763 0.02477 0.0
C94 C 0.9295 0.51249 0.02892 0.0
C95 C 0.90792 0.50331 0.01414 0.0
C96 C 0.88652 0.51916 0.0103 0.0
C97 C 0.88629 0.54469 0.02089 0.0
C98 C 0.9083 0.55406 0.03498 0.0
C99 C 0.92949 0.53813 0.0391 0.0
C100 C 0.00553 0.49166 0.08256 0.0
C101 C 0.99932 0.51154 0.10047 0.0
C102 C 0.01519 0.51698 0.12212 0.0
C103 C 0.03781 0.50282 0.12636 0.0
C104 C 0.04411 0.48302 0.10837 0.0
C105 C 0.02813 0.47746 0.08679 0.0
C106 C 0.97918 0.43342 0.00902 0.0
C107 C 1.00156 0.41849 0.01208 0.0
C108 C 0.71343 0.77228 0.11639 0.0
C109 C 0.70519 0.74615 0.11953 0.0
C110 C 0.694 0.73864 0.14317 0.0
C111 C 0.69097 0.757 0.16328 0.0
H112 H 0.63209 0.78645 0.21829 0.0
H113 H 0.59941 0.78068 0.25221 0.0
H114 H 0.6456 0.83044 0.30415 0.0
H115 H 0.6782 0.83658 0.2702 0.0
H116 H 0.71031 0.88233 0.23774 0.0
H117 H 0.74196 0.91814 0.24358 0.0
H118 H 0.78694 0.88822 0.17962 0.0
H119 H 0.75497 0.85238 0.17336 0.0
H120 H 0.71764 0.81048 0.13371 0.0
H121 H 0.72225 0.7785 0.09838 0.0
H122 H 0.6874 0.71861 0.14599 0.0
H123 H 0.68229 0.75063 0.1813 0.0
N124 N 0.67917 0.79857 0.20079 0.0
N125 N 0.69382 0.83718 0.22196 0.0
N126 N 0.71348 0.82382 0.18318 0.0
C127 C 0.67735 0.81597 0.22088 0.0
C128 C 0.71189 0.84133 0.2032 0.0
C129 C 0.69722 0.80238 0.18187 0.0
C130 C 0.65773 0.81199 0.24152 0.0
C131 C 0.63531 0.79615 0.23693 0.0
C132 C 0.61652 0.79299 0.25626 0.0
C133 C 0.61998 0.80523 0.28071 0.0
C134 C 0.64252 0.82078 0.28547 0.0
C135 C 0.66109 0.82433 0.26599 0.0
C136 C 0.7302 0.86422 0.20525 0.0
C137 C 0.72681 0.88338 0.22473 0.0
C138 C 0.74498 0.90393 0.22814 0.0
C139 C 0.76706 0.90586 0.21222 0.0
C140 C 0.77 0.88736 0.19206 0.0
C141 C 0.75175 0.86674 0.18859 0.0
C142 C 0.69957 0.7831 0.1603 0.0
C143 C 0.71089 0.79052 0.13666 0.0
C144 C 0.03102 0.90918 0.55813 0.0
C145 C 0.01697 0.88657 0.54955 0.0
C146 C 0.00676 0.88598 0.52413 0.0
C147 C 0.01093 0.90714 0.50765 0.0
H148 H 0.98294 0.94135 0.44076 0.0
H149 H 0.95774 0.94592 0.40107 0.0
H150 H 0.99945 0.01828 0.38532 0.0
H151 H 0.02467 0.01394 0.42517 0.0
H152 H 0.08003 0.02229 0.45238 0.0
H153 H 0.1188 0.04978 0.45863 0.0
H154 H 0.12958 0.01817 0.53493 0.0
H155 H 0.09052 0.99049 0.52873 0.0
H156 H 0.04673 0.94701 0.54874 0.0
H157 H 0.03867 0.91076 0.57771 0.0
H158 H 0.99618 0.86887 0.51659 0.0
H159 H 1.00319 0.90577 0.48808 0.0
N160 N 0.01663 0.95422 0.47657 0.0
N161 N 0.04321 0.98996 0.46456 0.0
N162 N 0.05243 0.9675 0.50259 0.0
C163 C 0.0222 0.97381 0.45981 0.0
C164 C 0.05847 0.98695 0.48583 0.0
C165 C 0.03156 0.95103 0.49808 0.0
C166 C 0.00603 0.97715 0.43617 0.0
C167 C 0.98672 0.95833 0.42898 0.0
C168 C 0.97233 0.96088 0.40614 0.0
C169 C 0.97674 0.98237 0.38996 0.0
C170 C 0.99551 1.00158 0.39744 0.0
C171 C 0.01007 0.99896 0.42023 0.0
C172 C 0.08197 0.00417 0.49009 0.0
C173 C 0.09051 0.02122 0.4706 0.0
C174 C 0.11292 0.037 0.47414 0.0
C175 C 0.12733 0.03647 0.49737 0.0
C176 C 0.11878 0.01945 0.51693 0.0
C177 C 0.09643 1.00343 0.5133 0.0
C178 C 0.02573 0.92927 0.51602 0.0
C179 C 0.03554 0.93011 0.54152 0.0
C180 C 0.22782 0.74284 0.90479 0.0
C181 C 0.21201 0.76468 0.90688 0.0
C182 C 0.19205 0.76764 0.88854 0.0
C183 C 0.18867 0.74967 0.86793 0.0
H184 H 0.14983 0.73812 0.79844 0.0
H185 H 0.11505 0.74314 0.76679 0.0
H186 H 0.1335 0.6692 0.73095 0.0
H187 H 0.16836 0.664 0.76264 0.0
H188 H 0.23589 0.65408 0.77137 0.0
H189 H 0.27067 0.62319 0.76457 0.0
H190 H 0.28482 0.62203 0.84712 0.0
H191 H 0.25032 0.65331 0.85403 0.0
H192 H 0.23735 0.70858 0.88309 0.0
H193 H 0.24312 0.73981 0.91885 0.0
H194 H 0.17971 0.7844 0.88951 0.0
H195 H 0.17357 0.75295 0.85373 0.0
N196 N 0.18418 0.71319 0.82423 0.0
N197 N 0.20098 0.67883 0.79932 0.0
N198 N 0.22092 0.69157 0.83876 0.0
C199 C 0.18286 0.69741 0.80273 0.0
C200 C 0.22006 0.67579 0.81731 0.0
C201 C 0.20311 0.71036 0.84238 0.0
C202 C 0.16194 0.70062 0.78316 0.0
C203 C 0.14655 0.72289 0.78383 0.0
C204 C 0.12669 0.72588 0.76559 0.0
C205 C 0.12156 0.70657 0.74638 0.0
C206 C 0.13688 0.6843 0.74566 0.0
C207 C 0.15695 0.68142 0.76375 0.0
C208 C 0.24034 0.65618 0.81323 0.0
C209 C 0.24632 0.64719 0.78809 0.0
C210 C 0.26635 0.62967 0.78417 0.0
C211 C 0.28048 0.62039 0.80533 0.0
C212 C 0.2742 0.62891 0.8305 0.0
C213 C 0.25451 0.64684 0.83441 0.0
C214 C 0.20516 0.72832 0.86528 0.0
C215 C 0.22444 0.72489 0.88427 0.0
C216 C 0.01789 0.62118 0.51904 0.0
C217 C 0.99813 0.62922 0.53599 0.0
C218 C 0.97456 0.61448 0.53632 0.0
C219 C 0.97099 0.59214 0.52062 0.0
H220 H 0.92574 0.52423 0.514 0.0
H221 H 0.88555 0.49797 0.51804 0.0
H222 H 0.90304 0.45695 0.44661 0.0
H223 H 0.94303 0.48318 0.44233 0.0
H224 H 0.99702 0.4951 0.41371 0.0
H225 H 0.02349 0.49116 0.37452 0.0
H226 H 0.06654 0.56179 0.39662 0.0
H227 H 0.04033 0.56593 0.43549 0.0
H228 H 0.02983 0.59341 0.49023 0.0
H229 H 0.03613 0.63223 0.5178 0.0
H230 H 0.95878 0.61997 0.54888 0.0
H231 H 0.95256 0.58137 0.52157 0.0
N232 N 0.96567 0.54421 0.49024 0.0
N233 N 0.97784 0.51879 0.45422 0.0
N234 N 1.00305 0.55588 0.46671 0.0
C235 C 0.96118 0.52318 0.47419 0.0
C236 C 0.99888 0.535 0.45037 0.0
C237 C 0.98657 0.56063 0.48668 0.0
C238 C 0.93761 0.50604 0.47769 0.0
C239 C 0.92113 0.50953 0.49919 0.0
C240 C 0.89814 0.49438 0.50163 0.0
C241 C 0.891 0.47556 0.48254 0.0
C242 C 0.9078 0.47159 0.46145 0.0
C243 C 0.93083 0.48657 0.45908 0.0
C244 C 0.01626 0.53103 0.42771 0.0
C245 C 0.01227 0.50968 0.41035 0.0
C246 C 0.02751 0.50731 0.38795 0.0
C247 C 0.04686 0.52633 0.38236 0.0
C248 C 0.05147 0.54705 0.40019 0.0
C249 C 0.03644 0.54935 0.42256 0.0
C250 C 0.99074 0.58407 0.50377 0.0
C251 C 0.01421 0.59895 0.50307 0.0
C252 C 0.90256 0.78853 0.77968 0.0
C253 C 0.90263 0.79743 0.75404 0.0
C254 C 0.88331 0.81465 0.74643 0.0
C255 C 0.8636 0.82168 0.76372 0.0
H256 H 0.79115 0.85952 0.76941 0.0
H257 H 0.7578 0.89096 0.7593 0.0
H258 H 0.73585 0.89443 0.83999 0.0
H259 H 0.76885 0.86275 0.85016 0.0
H260 H 0.7728 0.80157 0.87396 0.0
H261 H 0.76337 0.77103 0.90813 0.0
H262 H 0.84004 0.7394 0.89972 0.0
H263 H 0.84919 0.76956 0.86455 0.0
H264 H 0.88322 0.78761 0.81625 0.0
H265 H 0.91746 0.77568 0.78634 0.0
H266 H 0.88273 0.82174 0.72677 0.0
H267 H 0.84849 0.83424 0.75697 0.0
N268 N 0.82288 0.83492 0.80087 0.0
N269 N 0.79912 0.82401 0.83815 0.0
N270 N 0.83713 0.80192 0.82809 0.0
C271 C 0.8022 0.83888 0.81675 0.0
C272 C 0.81642 0.80542 0.84393 0.0
C273 C 0.84059 0.8166 0.80657 0.0
C274 C 0.78266 0.85861 0.81058 0.0
C275 C 0.77928 0.86703 0.78501 0.0
C276 C 0.76008 0.88487 0.77918 0.0
C277 C 0.74422 0.89502 0.79887 0.0
C278 C 0.74786 0.88695 0.82447 0.0
C279 C 0.7667 0.86875 0.83024 0.0
C280 C 0.81174 0.78806 0.86634 0.0
C281 C 0.78782 0.78832 0.87946 0.0
C282 C 0.78246 0.77083 0.89932 0.0
C283 C 0.80098 0.75272 0.90692 0.0
C284 C 0.82519 0.75283 0.89422 0.0
C285 C 0.83048 0.77025 0.87412 0.0
C286 C 0.86279 0.81157 0.78895 0.0
C287 C 0.88289 0.79543 0.79687 0.0
C288 C 0.4016 0.28833 0.27868 0.0
C289 C 0.40175 0.29743 0.25311 0.0
C290 C 0.38263 0.31492 0.24567 0.0
C291 C 0.36302 0.32207 0.26305 0.0
H292 H 0.29076 0.36054 0.26917 0.0
H293 H 0.25754 0.39223 0.25937 0.0
H294 H 0.2362 0.39568 0.34022 0.0
H295 H 0.26907 0.36376 0.35008 0.0
H296 H 0.27207 0.30176 0.37296 0.0
H297 H 0.26261 0.27132 0.4072 0.0
H298 H 0.3397 0.24043 0.39971 0.0
H299 H 0.34886 0.27046 0.36442 0.0
H300 H 0.38232 0.28737 0.31528 0.0
H301 H 0.41636 0.27525 0.28523 0.0
H302 H 0.38212 0.32218 0.22607 0.0
H303 H 0.34807 0.33486 0.25642 0.0
N304 N 0.3225 0.33552 0.30038 0.0
N305 N 0.29882 0.32474 0.33774 0.0
N306 N 0.33656 0.3023 0.32745 0.0
C307 C 0.30194 0.33965 0.31638 0.0
C308 C 0.31596 0.30596 0.3434 0.0
C309 C 0.34006 0.317 0.30594 0.0
C310 C 0.28256 0.35959 0.31039 0.0
C311 C 0.27906 0.36811 0.28487 0.0
C312 C 0.25994 0.3861 0.27922 0.0
C313 C 0.24427 0.39631 0.29904 0.0
C314 C 0.24806 0.38817 0.3246 0.0
C315 C 0.26682 0.36983 0.33019 0.0
C316 C 0.31122 0.2886 0.36579 0.0
C317 C 0.28717 0.28869 0.37868 0.0
C318 C 0.2818 0.27125 0.39858 0.0
C319 C 0.30043 0.25339 0.40648 0.0
C320 C 0.32475 0.25366 0.39399 0.0
C321 C 0.33006 0.27101 0.37382 0.0
C322 C 0.36213 0.3118 0.2882 0.0
C323 C 0.38205 0.29534 0.29595 0.0
C324 C 0.50027 0.89199 0.49946 0.0
C325 C 0.48089 0.88369 0.48156 0.0
C326 C 0.45926 0.89943 0.47795 0.0
C327 C 0.45682 0.92271 0.49216 0.0
H328 H 0.40507 0.98243 0.50727 0.0
H329 H 0.36838 0.01064 0.50041 0.0
H330 H 0.40917 0.07311 0.54274 0.0
H331 H 0.4452 0.04459 0.55052 0.0
H332 H 0.48049 0.02092 0.59875 0.0
H333 H 0.50839 0.03045 0.63611 0.0
H334 H 0.5598 0.96967 0.61135 0.0
H335 H 0.5314 0.95953 0.57433 0.0
H336 H 0.5129 0.92088 0.5277 0.0
H337 H 0.5171 0.88022 0.50275 0.0
H338 H 0.44418 0.89378 0.46403 0.0
H339 H 0.43976 0.93416 0.48892 0.0
N340 N 0.45293 0.97139 0.52091 0.0
N341 N 0.46638 0.9993 0.55527 0.0
N342 N 0.48925 0.96128 0.54623 0.0
C343 C 0.44972 0.99357 0.53528 0.0
C344 C 0.48614 0.98327 0.56095 0.0
C345 C 0.47274 0.95519 0.52616 0.0
C346 C 0.428 0.01113 0.52967 0.0
C347 C 0.40622 1.00223 0.51503 0.0
C348 C 0.38521 0.0185 0.51095 0.0
C349 C 0.38559 0.04421 0.52116 0.0
C350 C 0.40779 0.05329 0.5351 0.0
C351 C 0.4286 0.03693 0.53946 0.0
C352 C 0.50364 0.98943 0.58343 0.0
C353 C 0.49775 0.00957 0.60118 0.0
C354 C 0.51387 0.01515 0.62262 0.0
C355 C 0.53643 1.00089 0.62682 0.0
C356 C 0.54238 0.98081 0.60901 0.0
C357 C 0.52615 0.97509 0.58763 0.0
C358 C 0.4759 0.93083 0.51049 0.0
C359 C 0.49775 0.91524 0.51385 0.0
C360 C 0.21372 0.27277 0.61695 0.0
C361 C 0.20623 0.24649 0.62044 0.0
C362 C 0.19582 0.23887 0.64438 0.0
C363 C 0.19264 0.2573 0.6644 0.0
H364 H 0.15552 0.27039 0.73647 0.0
H365 H 0.12444 0.26291 0.77151 0.0
H366 H 0.12253 0.34591 0.78687 0.0
H367 H 0.15397 0.35352 0.75206 0.0
H368 H 0.2079 0.38474 0.73656 0.0
H369 H 0.23962 0.42056 0.74242 0.0
H370 H 0.2841 0.39107 0.6779 0.0
H371 H 0.25216 0.3553 0.67165 0.0
H372 H 0.21706 0.31121 0.63382 0.0
H373 H 0.22196 0.27909 0.59871 0.0
H374 H 0.18981 0.21871 0.64747 0.0
H375 H 0.18445 0.25088 0.68262 0.0
N376 N 0.17955 0.29898 0.70133 0.0
N377 N 0.19167 0.33926 0.72086 0.0
N378 N 0.21236 0.32544 0.68279 0.0
C379 C 0.1765 0.31708 0.72061 0.0
C380 C 0.20976 0.34354 0.70213 0.0
C381 C 0.19729 0.30316 0.68221 0.0
C382 C 0.15724 0.31254 0.74149 0.0
C383 C 0.14848 0.28706 0.74727 0.0
C384 C 0.13083 0.28275 0.76743 0.0
C385 C 0.12122 0.30384 0.78192 0.0
C386 C 0.12964 0.32934 0.77595 0.0
C387 C 0.14768 0.33364 0.7561 0.0
C388 C 0.22757 0.36687 0.70382 0.0
C389 C 0.22426 0.38595 0.72339 0.0
C390 C 0.24249 0.40649 0.72682 0.0
C391 C 0.2645 0.40848 0.71079 0.0
C392 C 0.26723 0.39017 0.69044 0.0
C393 C 0.24897 0.36957 0.68698 0.0
C394 C 0.20033 0.2836 0.66101 0.0
C395 C 0.21103 0.2911 0.6371 0.0
C396 C 0.75757 0.13616 0.72737 0.0
C397 C 0.75189 0.11707 0.70792 0.0
C398 C 0.76453 0.11954 0.68376 0.0
C399 C 0.78224 0.14035 0.67935 0.0
H400 H 0.79391 0.2133 0.62943 0.0
H401 H 0.78689 0.24633 0.59675 0.0
H402 H 0.83125 0.30304 0.64306 0.0
H403 H 0.83849 0.27005 0.67573 0.0
H404 H 0.8522 0.24734 0.74315 0.0
H405 H 0.88492 0.25335 0.77698 0.0
H406 H 0.91552 0.17765 0.757 0.0
H407 H 0.88086 0.17104 0.72494 0.0
H408 H 0.77989 0.17046 0.73871 0.0
H409 H 0.74784 0.13591 0.74592 0.0
H410 H 0.76121 0.10525 0.66831 0.0
H411 H 0.79178 0.14179 0.6607 0.0
N412 N 0.80453 0.19759 0.67656 0.0
N413 N 0.83994 0.22273 0.69337 0.0
N414 N 0.82707 0.18366 0.71331 0.0
C415 C 0.82068 0.21911 0.67534 0.0
C416 C 0.84344 0.20484 0.71207 0.0
C417 C 0.80758 0.17996 0.69565 0.0
C418 C 0.81677 0.23899 0.65521 0.0
C419 C 0.80223 0.23277 0.63265 0.0
C420 C 0.79834 0.25164 0.61385 0.0
C421 C 0.80858 0.27722 0.61737 0.0
C422 C 0.82305 0.28349 0.63992 0.0
C423 C 0.82729 0.26453 0.65854 0.0
C424 C 0.8642 0.20881 0.73157 0.0
C425 C 0.86601 0.23208 0.74616 0.0
C426 C 0.88505 0.23552 0.76543 0.0
C427 C 0.90344 0.21612 0.76993 0.0
C428 C 0.90163 0.19292 0.75479 0.0
C429 C 0.88194 0.18915 0.73615 0.0
C430 C 0.78825 0.15859 0.69924 0.0
C431 C 0.7758 0.15631 0.72322 0.0
C432 C 0.4797 0.53851 0.61769 0.0
C433 C 0.48663 0.51819 0.63412 0.0
C434 C 0.50945 0.50465 0.62865 0.0
C435 C 0.52491 0.51123 0.6073 0.0
H436 H 0.58561 0.48517 0.56305 0.0
H437 H 0.62237 0.45868 0.55126 0.0
H438 H 0.64392 0.51346 0.49174 0.0
H439 H 0.60671 0.53967 0.50303 0.0
H440 H 0.56506 0.58156 0.48656 0.0
H441 H 0.55272 0.61771 0.45958 0.0
H442 H 0.49223 0.63703 0.51404 0.0
H443 H 0.50408 0.60052 0.54072 0.0
H444 H 0.48905 0.56083 0.58417 0.0
H445 H 0.46206 0.5491 0.62103 0.0
H446 H 0.51557 0.48911 0.64106 0.0
H447 H 0.54235 0.50038 0.60376 0.0
N448 N 0.5553 0.52432 0.56174 0.0
N449 N 0.56373 0.55113 0.52612 0.0
N450 N 0.52811 0.5591 0.55315 0.0
C451 C 0.57018 0.53047 0.54082 0.0
C452 C 0.54271 0.56556 0.53215 0.0
C453 C 0.53424 0.53853 0.56807 0.0
C454 C 0.59305 0.51461 0.53397 0.0
C455 C 0.59817 0.49167 0.54746 0.0
C456 C 0.61941 0.4765 0.5408 0.0
C457 C 0.63621 0.48389 0.52054 0.0
C458 C 0.63121 0.50694 0.50719 0.0
C459 C 0.6099 0.52207 0.51378 0.0
C460 C 0.53557 0.58798 0.51587 0.0
C461 C 0.54913 0.59349 0.49285 0.0
C462 C 0.54214 0.61438 0.4774 0.0
C463 C 0.52146 0.63036 0.48459 0.0
C464 C 0.508 0.62493 0.50768 0.0
C465 C 0.51493 0.60401 0.52309 0.0
C466 C 0.51796 0.53157 0.59087 0.0
C467 C 0.49516 0.54514 0.59639 0.0
C468 C 0.53027 0.40902 0.05662 0.0
C469 C 0.51632 0.38633 0.04811 0.0
C470 C 0.50628 0.38554 0.02262 0.0
C471 C 0.51054 0.40656 0.00601 0.0
H472 H 0.48278 0.44053 0.93879 0.0
H473 H 0.45752 0.44508 0.89915 0.0
H474 H 0.49971 0.51706 0.88294 0.0
H475 H 0.52497 0.51275 0.92277 0.0
H476 H 0.58013 0.52145 0.95056 0.0
H477 H 0.61883 0.54899 0.95711 0.0
H478 H 0.62879 0.51771 0.03366 0.0
H479 H 0.58982 0.49 0.02716 0.0
H480 H 0.54598 0.44679 0.04705 0.0
H481 H 0.53777 0.41076 0.07625 0.0
H482 H 0.49578 0.36835 0.01514 0.0
H483 H 0.50294 0.40504 0.98638 0.0
N484 N 0.51645 0.45344 0.9746 0.0
N485 N 0.54313 0.48911 0.96255 0.0
N486 N 0.55205 0.4669 1.0008 0.0
C487 C 0.52216 0.47292 0.95774 0.0
C488 C 0.55822 0.48624 0.98397 0.0
C489 C 0.53122 0.45039 0.99625 0.0
C490 C 0.50609 0.47616 0.934 0.0
C491 C 0.48667 0.45741 0.92692 0.0
C492 C 0.47224 0.45995 0.90409 0.0
C493 C 0.47674 0.48135 0.8878 0.0
C494 C 0.49569 0.50044 0.89515 0.0
C495 C 0.51027 0.49783 0.91792 0.0
C496 C 0.58167 0.5035 0.98837 0.0
C497 C 0.59041 0.52047 0.96889 0.0
C498 C 0.61279 0.53629 0.97261 0.0
C499 C 0.62695 0.53586 0.996 0.0
C500 C 0.61819 0.51892 0.01554 0.0
C501 C 0.59588 0.50288 0.01174 0.0
C502 C 0.52526 0.42878 0.01431 0.0
C503 C 0.53487 0.42983 0.03989 0.0
C504 C 0.72695 0.2427 0.40324 0.0
C505 C 0.71112 0.26454 0.40514 0.0
C506 C 0.69119 0.26734 0.38674 0.0
C507 C 0.68785 0.24921 0.36627 0.0
H508 H 0.64954 0.23762 0.29688 0.0
H509 H 0.6148 0.24278 0.26527 0.0
H510 H 0.63279 0.16866 0.22954 0.0
H511 H 0.66764 0.16332 0.26124 0.0
H512 H 0.73533 0.15302 0.27042 0.0
H513 H 0.77016 0.1221 0.26396 0.0
H514 H 0.78384 0.12131 0.3466 0.0
H515 H 0.74929 0.15261 0.35317 0.0
H516 H 0.73656 0.20829 0.38182 0.0
H517 H 0.74224 0.2398 0.41736 0.0
H518 H 0.67884 0.28411 0.38757 0.0
H519 H 0.67277 0.25238 0.35202 0.0
N520 N 0.68355 0.21257 0.32278 0.0
N521 N 0.70031 0.17804 0.29808 0.0
N522 N 0.72012 0.19088 0.33757 0.0
C523 C 0.68226 0.19672 0.30133 0.0
C524 C 0.7193 0.175 0.31618 0.0
C525 C 0.70238 0.20976 0.34102 0.0
C526 C 0.66143 0.20001 0.28169 0.0
C527 C 0.64618 0.22238 0.28231 0.0
C528 C 0.62634 0.22545 0.26408 0.0
C529 C 0.62108 0.20614 0.24492 0.0
C530 C 0.63628 0.18378 0.24422 0.0
C531 C 0.65634 0.18081 0.26231 0.0
C532 C 0.73955 0.1553 0.3123 0.0
C533 C 0.74566 0.1462 0.28724 0.0
C534 C 0.76572 0.12866 0.28351 0.0
C535 C 0.77974 0.11947 0.30479 0.0
C536 C 0.7733 0.12809 0.32989 0.0
C537 C 0.75358 0.14604 0.3336 0.0
C538 C 0.70437 0.22786 0.36381 0.0
C539 C 0.72363 0.22458 0.38286 0.0
C540 C 0.51818 0.12105 0.01837 0.0
C541 C 0.49831 0.12919 0.03515 0.0
C542 C 0.47478 0.1144 0.03548 0.0
C543 C 0.47134 0.09193 0.01996 0.0
H544 H 0.42704 0.02361 0.01485 0.0
H545 H 0.38666 0.99779 0.0194 0.0
H546 H 0.40257 0.95691 0.94749 0.0
H547 H 0.44279 0.98273 0.94272 0.0
H548 H 0.49737 0.9939 0.914 0.0
H549 H 0.5238 0.98962 0.87479 0.0
H550 H 0.56712 0.06021 0.89644 0.0
H551 H 0.54097 0.06469 0.93531 0.0
H552 H 0.53033 0.09305 0.98986 0.0
H553 H 0.5364 0.13214 0.01715 0.0
H554 H 0.45891 0.11995 0.0479 0.0
H555 H 0.45292 0.08113 0.02093 0.0
N556 N 0.46627 0.04369 0.99025 0.0
N557 N 0.47835 0.01788 0.95448 0.0
N558 N 0.50358 0.05514 0.96652 0.0
C559 C 0.46175 0.0225 0.97446 0.0
C560 C 0.49939 0.03407 0.95042 0.0
C561 C 0.48713 0.0601 0.98647 0.0
C562 C 0.43815 0.00548 0.97826 0.0
C563 C 0.42206 0.00903 1.00004 0.0
C564 C 0.39895 0.99413 1.00278 0.0
C565 C 0.39131 0.9755 0.9837 0.0
C566 C 0.40774 0.97142 0.96233 0.0
C567 C 0.4309 0.98615 0.95967 0.0
C568 C 0.51675 0.02984 0.92776 0.0
C569 C 0.51268 0.0084 0.91053 0.0
C570 C 0.52789 0.00583 0.88813 0.0
C571 C 0.5473 0.02474 0.88241 0.0
C572 C 0.55201 0.04554 0.90012 0.0
C573 C 0.537 0.04804 0.92249 0.0
C574 C 0.4912 0.08375 0.00329 0.0
C575 C 0.51463 0.09867 1.00256 0.0
Mn576 Mn 0.25806 0.8751 0.01024 0.0
Mn577 Mn 0.25188 0.89337 0.94794 0.0
C578 C 0.2359 0.84834 0.98028 0.0
C579 C 0.27938 0.85359 0.04334 0.0
C580 C 0.2203 0.91631 0.99196 0.0
O581 O 0.28682 0.90339 0.007 0.0
O582 O 0.28183 0.91262 0.96464 0.0
C583 C 0.30083 0.87235 0.92715 0.0
N584 N 0.27436 0.87331 0.92646 0.0
C585 C 0.27187 0.84275 0.89044 0.0
C586 C 0.29911 0.84155 0.89068 0.0
C587 C 0.31364 0.85638 0.90915 0.0
C588 C 0.26019 0.85908 0.9088 0.0
H589 H 0.3121 0.88363 0.94136 0.0
C590 C 0.29372 0.9155 0.9865 0.0
O591 O 0.26339 0.87215 0.04834 0.0
O592 O 0.28407 0.84849 0.01907 0.0
N593 N 0.22389 0.87563 0.92956 0.0
C594 C 0.19773 0.87791 0.93279 0.0
C595 C 0.18041 0.86384 0.91622 0.0
C596 C 0.19015 0.84769 0.89644 0.0
C597 C 0.21715 0.84577 0.89338 0.0
C598 C 0.23346 0.86042 0.91035 0.0
H599 H 0.19011 0.89026 0.94798 0.0
O600 O 0.23112 0.84625 0.00486 0.0
O601 O 0.25306 0.86621 0.97408 0.0
O602 O 0.22999 0.90261 0.00977 0.0
O603 O 0.22737 0.9147 0.96826 0.0
C604 C 0.22849 0.82957 0.87445 0.0
C605 C 0.25583 0.828 0.87302 0.0
H606 H 0.30905 0.82916 0.87692 0.0
H607 H 0.33466 0.85546 0.90954 0.0
H608 H 0.1596 0.86538 0.91874 0.0
H609 H 0.17673 0.83671 0.88383 0.0
H610 H 0.21637 0.81794 0.86112 0.0
H611 H 0.26431 0.81518 0.85864 0.0
Mn612 Mn 0.14784 0.50745 0.25153 0.0
Mn613 Mn 0.12873 0.56993 0.24933 0.0
C614 C 0.17346 0.53902 0.23135 0.0
C615 C 0.17031 0.47393 0.27091 0.0
C616 C 0.10584 0.52662 0.21457 0.0
O617 O 0.12017 0.50869 0.28002 0.0
O618 O 0.11031 0.55117 0.27753 0.0
C619 C 0.15049 0.58876 0.29982 0.0
N620 N 0.14889 0.59086 0.27356 0.0
C621 C 0.17857 0.62814 0.27421 0.0
C622 C 0.18042 0.62646 0.30128 0.0
C623 C 0.16636 0.60665 0.31412 0.0
C624 C 0.16239 0.60981 0.261 0.0
H625 H 0.13978 0.57352 0.30978 0.0
C626 C 0.10781 0.52866 0.28787 0.0
O627 O 0.1515 0.46901 0.25448 0.0
O628 O 0.17515 0.49826 0.27712 0.0
N629 N 0.14543 0.59042 0.22314 0.0
C630 C 0.14234 0.58872 0.19688 0.0
C631 C 0.15541 0.6069 0.18112 0.0
C632 C 0.17139 0.62672 0.19251 0.0
C633 C 0.17411 0.62822 0.21958 0.0
C634 C 0.1604 0.6097 0.23431 0.0
H635 H 0.13009 0.57354 0.188 0.0
O636 O 0.17579 0.51453 0.22528 0.0
O637 O 0.15622 0.54428 0.24885 0.0
O638 O 0.1197 0.50847 0.22332 0.0
O639 O 0.10741 0.55015 0.22319 0.0
C640 C 0.19019 0.6471 0.2325 0.0
C641 C 0.19247 0.64702 0.25979 0.0
H642 H 0.19272 0.64015 0.31237 0.0
H643 H 0.16778 0.60515 0.335 0.0
H644 H 0.15324 0.6056 0.16024 0.0
H645 H 0.18158 0.6406 0.18028 0.0
H646 H 0.20115 0.66156 0.22161 0.0
H647 H 0.20516 0.66143 0.26947 0.0
Mn648 Mn 0.75545 0.63007 0.01198 0.0
Mn649 Mn 0.70305 0.6543 0.98162 0.0
C650 C 0.71654 0.60605 0.01012 0.0
C651 C 0.79425 0.60732 0.01225 0.0
C652 C 0.72069 0.67225 0.03523 0.0
O653 O 0.77161 0.65933 0.99029 0.0
O654 O 0.73532 0.67308 0.97053 0.0
C655 C 0.71543 0.63646 0.92827 0.0
N656 N 0.69862 0.63717 0.94861 0.0
C657 C 0.66584 0.6125 0.92438 0.0
C658 C 0.68274 0.61161 0.9031 0.0
C659 C 0.7077 0.62353 0.90511 0.0
C660 C 0.67471 0.62548 0.94701 0.0
H661 H 0.73457 0.64572 0.92972 0.0
C662 C 0.7599 0.67422 0.97478 0.0
O663 O 0.7891 0.6247 0.02996 0.0
O664 O 0.77705 0.6035 0.99389 0.0
N665 N 0.67018 0.63827 0.99027 0.0
C666 C 0.65656 0.64026 0.01282 0.0
C667 C 0.63138 0.62891 0.01425 0.0
C668 C 0.62028 0.61611 0.99235 0.0
C669 C 0.63447 0.61479 0.96921 0.0
C670 C 0.65953 0.62633 0.96899 0.0
H671 H 0.6649 0.65034 0.02961 0.0
O672 O 0.73384 0.60146 0.02775 0.0
O673 O 0.7226 0.62433 0.9938 0.0
O674 O 0.7398 0.65702 0.03686 0.0
O675 O 0.7057 0.67289 0.01545 0.0
C676 C 0.62482 0.60234 0.94639 0.0
C677 C 0.64058 0.60097 0.92407 0.0
H678 H 0.67681 0.60174 0.88518 0.0
H679 H 0.72088 0.62286 0.8888 0.0
H680 H 0.62052 0.6301 0.03216 0.0
H681 H 0.60088 0.60733 0.99354 0.0
H682 H 0.6054 0.59348 0.94589 0.0
H683 H 0.63309 0.59096 0.90678 0.0
Mn684 Mn 0.87786 0.00913 0.2592 0.0
Mn685 Mn 0.89516 0.94631 0.25232 0.0
C686 C 0.85132 0.97908 0.23675 0.0
C687 C 0.85612 0.04264 0.28036 0.0
C688 C 0.91945 0.99034 0.22124 0.0
O689 O 0.90523 0.00585 0.28789 0.0
O690 O 0.91413 0.96326 0.28208 0.0
C691 C 0.87297 0.92588 0.30115 0.0
N692 N 0.87438 0.92497 0.27477 0.0
C693 C 0.84325 0.88892 0.27232 0.0
C694 C 0.84159 0.88939 0.29947 0.0
C695 C 0.85648 0.90799 0.31394 0.0
C696 C 0.8601 0.90718 0.26065 0.0
H697 H 0.8843 0.9402 0.31237 0.0
C698 C 0.91704 0.98523 0.29426 0.0
O699 O 0.87535 0.04751 0.26474 0.0
O700 O 0.85062 0.01827 0.28499 0.0
N701 N 0.87765 0.92765 0.22448 0.0
C702 C 0.88048 0.93066 0.19841 0.0
C703 C 0.86646 0.91392 0.18118 0.0
C704 C 0.84978 0.89422 0.1909 0.0
C705 C 0.84731 0.8914 0.21779 0.0
C706 C 0.86195 0.9085 0.23403 0.0
H707 H 0.89323 0.94579 0.19081 0.0
O708 O 0.84984 0.0038 0.2322 0.0
O709 O 0.8685 0.97276 0.25385 0.0
O710 O 0.90607 0.0084 0.23135 0.0
O711 O 0.91715 0.96647 0.22785 0.0
C712 C 0.83056 0.87257 0.22912 0.0
C713 C 0.82849 0.87137 0.25636 0.0
H714 H 0.82879 0.87571 0.3094 0.0
H715 H 0.85521 0.90855 0.33489 0.0
H716 H 0.86842 0.91626 0.16044 0.0
H717 H 0.83883 0.8815 0.17754 0.0
H718 H 0.81892 0.85915 0.21705 0.0
H719 H 0.81526 0.85706 0.26483 0.0
Mn720 Mn 0.25578 0.13089 0.51205 0.0
Mn721 Mn 0.20301 0.15502 0.48227 0.0
C722 C 0.21689 0.10683 0.51062 0.0
C723 C 0.29454 0.10811 0.51208 0.0
C724 C 0.22107 0.1729 0.53574 0.0
O725 O 0.27172 0.16008 0.49013 0.0
O726 O 0.23514 0.17402 0.47108 0.0
C727 C 0.21519 0.13752 0.42875 0.0
N728 N 0.19848 0.13804 0.44919 0.0
C729 C 0.16569 0.11335 0.42501 0.0
C730 C 0.18248 0.11264 0.40364 0.0
C731 C 0.20739 0.12468 0.40557 0.0
C732 C 0.17462 0.12624 0.44766 0.0
H733 H 0.23429 0.14686 0.43014 0.0
C734 C 0.25977 0.17512 0.47494 0.0
O735 O 0.28957 0.12558 0.52975 0.0
O736 O 0.27721 0.10425 0.49385 0.0
N737 N 0.17025 0.13881 0.491 0.0
C738 C 0.15673 0.14064 0.51362 0.0
C739 C 0.13161 0.12917 0.51512 0.0
C740 C 0.12045 0.11643 0.49322 0.0
C741 C 0.13454 0.11527 0.47 0.0
C742 C 0.15955 0.12692 0.46972 0.0
H743 H 0.16511 0.15068 0.53042 0.0
O744 O 0.23436 0.10233 0.5281 0.0
O745 O 0.22275 0.12507 0.49418 0.0
O746 O 0.24037 0.15787 0.53703 0.0
O747 O 0.20577 0.17343 0.51618 0.0
C748 C 0.12482 0.1029 0.44717 0.0
C749 C 0.14047 0.10171 0.42477 0.0
H750 H 0.1765 0.10284 0.38569 0.0
H751 H 0.22049 0.12415 0.38919 0.0
H752 H 0.12083 0.13023 0.53309 0.0
H753 H 0.10109 0.10756 0.49446 0.0
H754 H 0.10543 0.09398 0.44672 0.0
H755 H 0.13293 0.09176 0.40747 0.0
Mn756 Mn 0.37716 0.50964 0.75801 0.0
Mn757 Mn 0.39365 0.44667 0.75045 0.0
C758 C 0.35008 0.48012 0.73551 0.0
C759 C 0.35601 0.54318 0.7797 0.0
C760 C 0.41832 0.49073 0.71964 0.0
O761 O 0.40469 0.50577 0.78642 0.0
O762 O 0.413 0.46308 0.7803 0.0
C763 C 0.37148 0.42598 0.79918 0.0
N764 N 0.37272 0.42535 0.77278 0.0
C765 C 0.34103 0.38981 0.77012 0.0
C766 C 0.33953 0.38999 0.79728 0.0
C767 C 0.3548 0.40819 0.81186 0.0
C768 C 0.35809 0.40794 0.75856 0.0
H769 H 0.38309 0.44 0.81048 0.0
C770 C 0.41626 0.48495 0.79259 0.0
O771 O 0.37516 0.54799 0.76396 0.0
O772 O 0.35026 0.51883 0.78411 0.0
N773 N 0.37576 0.42854 0.72251 0.0
C774 C 0.37846 0.43182 0.69647 0.0
C775 C 0.36407 0.41551 0.67914 0.0
C776 C 0.34714 0.39596 0.68874 0.0
C777 C 0.34479 0.39286 0.71561 0.0
C778 C 0.35981 0.40953 0.73194 0.0
H779 H 0.3914 0.44684 0.68897 0.0
O780 O 0.34888 0.50492 0.7312 0.0
O781 O 0.36732 0.47342 0.7524 0.0
O782 O 0.40514 0.50884 0.72993 0.0
O783 O 0.4158 0.46682 0.72608 0.0
C784 C 0.32782 0.37416 0.72683 0.0
C785 C 0.32589 0.37268 0.75406 0.0
H786 H 0.32658 0.37639 0.80714 0.0
H787 H 0.35365 0.40853 0.83283 0.0
H788 H 0.36594 0.41807 0.65843 0.0
H789 H 0.3359 0.38357 0.67532 0.0
H790 H 0.31588 0.36107 0.71469 0.0
H791 H 0.31249 0.35848 0.76245 0.0
Mn792 Mn 0.75818 0.3743 0.50824 0.0
Mn793 Mn 0.75112 0.39366 0.44644 0.0
C794 C 0.73503 0.34837 0.47832 0.0
C795 C 0.78006 0.35157 0.5401 0.0
C796 C 0.7207 0.41637 0.49142 0.0
O797 O 0.78728 0.40217 0.50489 0.0
O798 O 0.78158 0.41236 0.46287 0.0
C799 C 0.79945 0.37236 0.42448 0.0
N800 N 0.77299 0.3736 0.42429 0.0
C801 C 0.76952 0.34325 0.38815 0.0
C802 C 0.79673 0.34178 0.38786 0.0
C803 C 0.81175 0.35637 0.40614 0.0
C804 C 0.75835 0.35962 0.40681 0.0
H805 H 0.81108 0.38343 0.43855 0.0
C806 C 0.79389 0.41468 0.48455 0.0
O807 O 0.76471 0.37041 0.54614 0.0
O808 O 0.78377 0.34696 0.51558 0.0
N809 N 0.72263 0.37645 0.42834 0.0
C810 C 0.69657 0.37892 0.43213 0.0
C811 C 0.67881 0.36507 0.41584 0.0
C812 C 0.68801 0.3489 0.3958 0.0
C813 C 0.71492 0.34678 0.39218 0.0
C814 C 0.73169 0.36122 0.40887 0.0
H815 H 0.68937 0.39125 0.44754 0.0
O816 O 0.73066 0.34597 0.50295 0.0
O817 O 0.7523 0.36613 0.47211 0.0
O818 O 0.7306 0.40236 0.50891 0.0
O819 O 0.72726 0.41492 0.46756 0.0
C820 C 0.72574 0.33053 0.37296 0.0
C821 C 0.75302 0.32873 0.37098 0.0
H822 H 0.80629 0.32935 0.37385 0.0
H823 H 0.83276 0.35523 0.40612 0.0
H824 H 0.65808 0.36676 0.4188 0.0
H825 H 0.67426 0.33806 0.38344 0.0
H826 H 0.71326 0.31906 0.35983 0.0
H827 H 0.76109 0.31587 0.35638 0.0
Mn828 Mn 0.64769 0.00591 0.75086 0.0
Mn829 Mn 0.62849 0.06832 0.74912 0.0
C830 C 0.67304 0.03765 0.73045 0.0
C831 C 0.67036 0.97246 0.77009 0.0
C832 C 0.60532 0.02516 0.71433 0.0
O833 O 0.62021 0.00694 0.77961 0.0
O834 O 0.6103 0.04939 0.77732 0.0
C835 C 0.65094 0.08645 0.79956 0.0
N836 N 0.64904 0.08887 0.77335 0.0
C837 C 0.67891 0.12599 0.77408 0.0
C838 C 0.68108 0.12397 0.80109 0.0
C839 C 0.66709 0.10407 0.81387 0.0
C840 C 0.66262 0.10779 0.76083 0.0
H841 H 0.64024 0.07118 0.80947 0.0
C842 C 0.60787 0.02686 0.78761 0.0
O843 O 0.65149 0.96748 0.75373 0.0
O844 O 0.67519 0.9968 0.77624 0.0
N845 N 0.64488 0.08912 0.72298 0.0
C846 C 0.64087 0.08821 0.69681 0.0
C847 C 0.65347 0.10683 0.68117 0.0
C848 C 0.66983 0.12631 0.69259 0.0
C849 C 0.67337 0.12707 0.71958 0.0
C850 C 0.66018 0.10811 0.7342 0.0
H851 H 0.62823 0.07337 0.68792 0.0
O852 O 0.67547 0.01317 0.72439 0.0
O853 O 0.65594 0.04273 0.74814 0.0
O854 O 0.6193 0.00701 0.72291 0.0
O855 O 0.60691 0.04869 0.72301 0.0
C856 C 0.68956 0.14583 0.73254 0.0
C857 C 0.69241 0.14522 0.75976 0.0
H858 H 0.69351 0.13753 0.8122 0.0
H859 H 0.66874 0.10233 0.8347 0.0
H860 H 0.6506 0.10614 0.66035 0.0
H861 H 0.67965 0.14053 0.68044 0.0
H862 H 0.70011 0.16065 0.72174 0.0
H863 H 0.70515 0.15957 0.76947 0.0
Mn864 Mn 0.00943 0.25497 0.87926 0.0
Mn865 Mn 0.94697 0.24808 0.89865 0.0
C866 C 0.97856 0.23357 0.85295 0.0
C867 C 0.04317 0.27666 0.8576 0.0
C868 C 0.99049 0.21579 0.91986 0.0
O869 O 0.00714 0.28303 0.90792 0.0
O870 O 0.96465 0.27742 0.91806 0.0
C871 C 0.92768 0.29794 0.87895 0.0
N872 N 0.92615 0.27136 0.87942 0.0
C873 C 0.89032 0.26996 0.84912 0.0
C874 C 0.89143 0.29732 0.84842 0.0
C875 C 0.91023 0.31135 0.86335 0.0
C876 C 0.90824 0.25766 0.86499 0.0
H877 H 0.94214 0.30883 0.89032 0.0
C878 C 0.98685 0.28936 0.92068 0.0
O879 O 0.04773 0.2602 0.87579 0.0
O880 O 0.01897 0.2817 0.85303 0.0
N881 N 0.9276 0.22063 0.88084 0.0
C882 C 0.92957 0.1943 0.88314 0.0
C883 C 0.91222 0.17745 0.86932 0.0
C884 C 0.89296 0.18782 0.85341 0.0
C885 C 0.89117 0.21498 0.85153 0.0
C886 C 0.90884 0.23081 0.86594 0.0
H887 H 0.94429 0.1862 0.89536 0.0
O888 O 1.00307 0.2288 0.85022 0.0
O889 O 0.97301 0.2502 0.87118 0.0
O890 O 0.00839 0.22611 0.90605 0.0
O891 O 0.9668 0.22272 0.91896 0.0
C892 C 0.87272 0.22694 0.83571 0.0
C893 C 0.87234 0.25442 0.83446 0.0
H894 H 0.87805 0.30774 0.83637 0.0
H895 H 0.91128 0.33247 0.86283 0.0
H896 H 0.91373 0.15651 0.87086 0.0
H897 H 0.87976 0.17475 0.8426 0.0
H898 H 0.85893 0.2152 0.8242 0.0
H899 H 0.85826 0.26338 0.822 0.0
Mn900 Mn 0.50924 0.75538 0.37797 0.0
Mn901 Mn 0.44691 0.74537 0.3965 0.0
C902 C 0.47987 0.7327 0.35113 0.0
C903 C 0.54165 0.77892 0.35624 0.0
C904 C 0.4918 0.71526 0.41824 0.0
O905 O 0.50519 0.78313 0.40655 0.0
O906 O 0.46288 0.77548 0.41642 0.0
C907 C 0.42484 0.79422 0.37733 0.0
N908 N 0.42492 0.76763 0.37736 0.0
C909 C 0.38958 0.7646 0.34652 0.0
C910 C 0.38903 0.79194 0.34629 0.0
C911 C 0.40676 0.80681 0.36174 0.0
C912 C 0.40791 0.75314 0.36259 0.0
H913 H 0.43852 0.80575 0.38905 0.0
C914 C 0.48455 0.78842 0.41921 0.0
O915 O 0.54733 0.76302 0.37463 0.0
O916 O 0.51715 0.78239 0.35172 0.0
N917 N 0.42937 0.71715 0.37805 0.0
C918 C 0.43348 0.69105 0.37928 0.0
C919 C 0.41785 0.67348 0.36435 0.0
C920 C 0.39814 0.68291 0.34837 0.0
C921 C 0.39419 0.70984 0.34752 0.0
C922 C 0.41021 0.7264 0.36301 0.0
H923 H 0.44869 0.68369 0.39141 0.0
O924 O 0.50464 0.72899 0.34893 0.0
O925 O 0.47317 0.7489 0.36937 0.0
O926 O 0.50951 0.7265 0.40484 0.0
O927 O 0.4678 0.721 0.41683 0.0
C928 C 0.37533 0.72093 0.33151 0.0
C929 C 0.37304 0.74829 0.33099 0.0
H930 H 0.37525 0.80173 0.33414 0.0
H931 H 0.40655 0.82792 0.36156 0.0
H932 H 0.42108 0.65273 0.36504 0.0
H933 H 0.38632 0.66932 0.33667 0.0
H934 H 0.36275 0.70862 0.31923 0.0
H935 H 0.35872 0.7566 0.31832 0.0
Mn936 Mn 0.01035 0.75405 0.63414 0.0
Mn937 Mn 0.98364 0.69738 0.65586 0.0
C938 C 0.01125 0.7162 0.60868 0.0
C939 C 0.00878 0.79387 0.61275 0.0
C940 C 0.03579 0.7195 0.67462 0.0
O941 O 0.98685 0.76657 0.66357 0.0
O942 O 0.96977 0.72756 0.67543 0.0
C943 C 0.92935 0.70497 0.63867 0.0
N944 N 0.95105 0.69034 0.63874 0.0
C945 C 0.92943 0.6561 0.61352 0.0
C946 C 0.9068 0.67074 0.61325 0.0
C947 C 0.90681 0.69535 0.62576 0.0
C948 C 0.95137 0.66683 0.62645 0.0
H949 H 0.92924 0.7238 0.64843 0.0
C950 C 0.9718 0.75249 0.67768 0.0
O951 O 0.02633 0.78951 0.63017 0.0
O952 O 0.99143 0.77532 0.60826 0.0
N953 N 0.995 0.66633 0.63872 0.0
C954 C 0.01868 0.65509 0.64005 0.0
C955 C 0.02212 0.63062 0.62804 0.0
C956 C 1.00108 0.61774 0.61524 0.0
C957 C 0.97679 0.62949 0.61454 0.0
C958 C 0.97457 0.65398 0.62668 0.0
H959 H 0.03484 0.66477 0.65012 0.0
O960 O 0.02802 0.73521 0.60499 0.0
O961 O 0.99443 0.71982 0.62705 0.0
O962 O 0.03586 0.73971 0.66057 0.0
O963 O 0.01724 0.70236 0.67439 0.0
C964 C 0.9547 0.61791 0.60218 0.0
C965 C 0.93111 0.63132 0.60143 0.0
H966 H 0.88933 0.66333 0.60343 0.0
H967 H 0.88944 0.70679 0.62559 0.0
H968 H 0.04091 0.62165 0.62873 0.0
H969 H 0.0038 0.59887 0.60598 0.0
H970 H 0.95575 0.59886 0.59285 0.0
H971 H 0.9144 0.62241 0.59144 0.0
Mn972 Mn 0.50957 0.25418 0.1332 0.0
Mn973 Mn 0.48288 0.19744 0.15479 0.0
C974 C 0.51066 0.21635 0.10772 0.0
C975 C 0.50797 0.29398 0.11179 0.0
C976 C 0.53502 0.21956 0.17363 0.0
O977 O 0.48597 0.26664 0.16258 0.0
O978 O 0.46898 0.2276 0.1744 0.0
C979 C 0.42862 0.20508 0.13754 0.0
N980 N 0.45032 0.19045 0.13762 0.0
C981 C 0.42871 0.15624 0.11235 0.0
C982 C 0.40608 0.17089 0.11207 0.0
C983 C 0.40609 0.19548 0.12461 0.0
C984 C 0.45064 0.16695 0.1253 0.0
H985 H 0.4285 0.2239 0.14733 0.0
C986 C 0.47093 0.25253 0.17666 0.0
O987 O 0.52548 0.28968 0.12926 0.0
O988 O 0.49066 0.27539 0.10727 0.0
N989 N 0.49426 0.16641 0.13763 0.0
C990 C 0.51792 0.15515 0.139 0.0
C991 C 0.52135 0.13067 0.12699 0.0
C992 C 0.50032 0.11781 0.11416 0.0
C993 C 0.47604 0.12959 0.11342 0.0
C994 C 0.47384 0.15409 0.12555 0.0
H995 H 0.53407 0.16479 0.1491 0.0
O996 O 0.52738 0.23542 0.1041 0.0
O997 O 0.49375 0.21992 0.12602 0.0
O998 O 0.53505 0.23983 0.15967 0.0
O999 O 0.51648 0.2024 0.17333 0.0
C1000 C 0.45395 0.11803 0.10105 0.0
C1001 C 0.43038 0.13145 0.10027 0.0
H1002 H 0.38862 0.16348 0.10224 0.0
H1003 H 0.38872 0.20693 0.12443 0.0
H1004 H 0.54014 0.12168 0.12771 0.0
H1005 H 0.50303 0.09894 0.1049 0.0
H1006 H 0.45499 0.09896 0.09174 0.0
H1007 H 0.41367 0.12255 0.09027 0.0
C1008 C 0.24359 0.79363 0.93169 0.0
C1009 C 0.21769 0.78521 0.92697 0.0
H1010 H 0.26938 0.82031 0.95227 0.0
C1011 C 0.19757 0.7972 0.94084 0.0
H1012 H 0.25951 0.78504 0.92117 0.0
C1013 C 0.20333 0.81754 0.95872 0.0
C1014 C 0.22915 0.82656 0.96234 0.0
H1015 H 0.17745 0.79092 0.9378 0.0
H1016 H 0.18763 0.8267 0.96909 0.0
C1017 C 0.24924 0.81402 0.94924 0.0
C1018 C 0.06396 0.54878 0.34316 0.0
C1019 C 0.06123 0.52579 0.3574 0.0
H1020 H 0.08022 0.56761 0.31029 0.0
C1021 C 0.07266 0.50295 0.34781 0.0
H1022 H 0.05496 0.56656 0.34975 0.0
C1023 C 0.08739 0.50346 0.32489 0.0
C1024 C 0.09069 0.52678 0.31105 0.0
H1025 H 0.07083 0.48493 0.35841 0.0
H1026 H 0.09655 0.48578 0.31832 0.0
C1027 C 0.07838 0.54927 0.32035 0.0
C1028 C 0.77794 0.73982 0.94791 0.0
C1029 C 0.79425 0.73312 0.9271 0.0
H1030 H 0.75431 0.72614 0.97933 0.0
C1031 C 0.8021 0.70704 0.92461 0.0
H1032 H 0.77203 0.75975 0.95095 0.0
C1033 C 0.79251 0.68792 0.94152 0.0
C1034 C 0.77477 0.69455 0.96097 0.0
H1035 H 0.81444 0.70105 0.90873 0.0
H1036 H 0.79761 0.66775 0.93834 0.0
C1037 C 0.76803 0.72068 0.96441 0.0
C1038 C 0.95163 0.00743 0.35685 0.0
C1039 C 0.96249 0.98399 0.36489 0.0
H1040 H 0.92865 0.02639 0.32825 0.0
C1041 C 0.9595 0.96167 0.34885 0.0
H1042 H 0.95361 0.02496 0.36885 0.0
C1043 C 0.94546 0.96248 0.3257 0.0
C1044 C 0.93383 0.98564 0.31788 0.0
H1045 H 0.96805 0.94345 0.35422 0.0
H1046 H 0.94339 0.94465 0.31417 0.0
C1047 C 0.93733 0.00823 0.33361 0.0
C1048 C 0.22247 0.20395 0.60317 0.0
C1049 C 0.2093 0.22716 0.59904 0.0
H1050 H 0.23681 0.16866 0.58629 0.0
C1051 C 0.1995 0.23209 0.5742 0.0
H1052 H 0.2303 0.19978 0.62215 0.0
C1053 C 0.20285 0.21418 0.5538 0.0
C1054 C 0.21653 0.19119 0.55772 0.0
H1055 H 0.18915 0.24979 0.57059 0.0
H1056 H 0.19519 0.21862 0.53483 0.0
C1057 C 0.22628 0.18624 0.58264 0.0
C1058 C 0.45815 0.53061 0.67171 0.0
C1059 C 0.46997 0.51111 0.6567 0.0
H1060 H 0.43285 0.53961 0.70326 0.0
C1061 C 0.46535 0.48481 0.66317 0.0
H1062 H 0.46162 0.55108 0.6676 0.0
C1063 C 0.44899 0.47819 0.68385 0.0
C1064 C 0.43678 0.4977 0.69854 0.0
H1065 H 0.47388 0.46925 0.65187 0.0
H1066 H 0.44556 0.45772 0.68797 0.0
C1067 C 0.44174 0.52401 0.69231 0.0
C1068 C 0.79441 0.32191 0.60528 0.0
C1069 C 0.80364 0.29736 0.59774 0.0
H1070 H 0.77967 0.35841 0.59293 0.0
C1071 C 0.80709 0.29177 0.57122 0.0
H1072 H 0.79147 0.32669 0.6256 0.0
C1073 C 0.80068 0.31 0.55257 0.0
C1074 C 0.79033 0.33409 0.56002 0.0
H1075 H 0.81445 0.27311 0.56489 0.0
H1076 H 0.80294 0.30478 0.53226 0.0
C1077 C 0.78763 0.34003 0.58659 0.0
C1078 C 0.56576 0.98699 0.66309 0.0
C1079 C 0.5537 0.00703 0.64962 0.0
H1080 H 0.59128 0.97687 0.69401 0.0
C1081 C 0.55834 0.03303 0.65807 0.0
H1082 H 0.56231 0.96671 0.65745 0.0
C1083 C 0.57467 0.03886 0.6793 0.0
C1084 C 0.587 0.01884 0.69255 0.0
H1085 H 0.54973 0.04903 0.64798 0.0
H1086 H 0.57796 0.05914 0.68502 0.0
C1087 C 0.58225 0.99282 0.68422 0.0
C1088 C 0.93277 0.24557 0.79776 0.0
C1089 C 0.92409 0.22014 0.79036 0.0
H1090 H 0.95618 0.26944 0.82379 0.0
C1091 C 0.935 0.19883 0.80314 0.0
H1092 H 0.926 0.26258 0.78795 0.0
C1093 C 0.95346 0.20296 0.82302 0.0
C1094 C 0.96044 0.22839 0.83124 0.0
H1095 H 0.92882 0.17893 0.79851 0.0
H1096 H 0.96137 0.18634 0.8327 0.0
C1097 C 0.95039 0.24961 0.81817 0.0
C1098 C 0.50612 0.85112 0.45518 0.0
C1099 C 0.48273 0.85848 0.46698 0.0
H1100 H 0.52519 0.82327 0.43079 0.0
C1101 C 0.46063 0.84183 0.46425 0.0
H1102 H 0.52347 0.8636 0.45689 0.0
C1103 C 0.4616 0.8188 0.44947 0.0
C1104 C 0.48469 0.81174 0.43686 0.0
H1105 H 0.44245 0.84669 0.47347 0.0
H1106 H 0.44394 0.8068 0.44755 0.0
C1107 C 0.50708 0.82803 0.44019 0.0
C1108 C 0.0786 0.31213 0.80372 0.0
C1109 C 0.10227 0.29907 0.80303 0.0
H1110 H 0.04117 0.31525 0.82162 0.0
C1111 C 0.10724 0.28047 0.82194 0.0
H1112 H 0.07431 0.32652 0.78929 0.0
C1113 C 0.08855 0.27434 0.84066 0.0
C1114 C 0.06431 0.28638 0.84057 0.0
H1115 H 0.12546 0.27033 0.82198 0.0
H1116 H 0.0927 0.25933 0.8545 0.0
C1117 C 0.05968 0.30567 0.82219 0.0
C1118 C 0.48746 0.65808 0.46423 0.0
C1119 C 0.51385 0.65247 0.46799 0.0
H1120 H 0.45979 0.68211 0.44574 0.0
C1121 C 0.53291 0.66804 0.45561 0.0
H1122 H 0.47223 0.64629 0.47315 0.0
C1123 C 0.52577 0.6885 0.43969 0.0
C1124 C 0.49938 0.69401 0.43579 0.0
H1125 H 0.55343 0.66458 0.45836 0.0
H1126 H 0.54103 0.69999 0.43044 0.0
C1127 C 0.48032 0.6786 0.44838 0.0
C1128 C 0.93376 0.80272 0.71636 0.0
C1129 C 0.92138 0.78681 0.73491 0.0
H1130 H 0.95978 0.80453 0.6838 0.0
C1131 C 0.92636 0.76001 0.73473 0.0
H1132 H 0.93037 0.82347 0.71607 0.0
C1133 C 0.94301 0.74927 0.71645 0.0
C1134 C 0.95529 0.76496 0.69771 0.0
H1135 H 0.91684 0.74708 0.74839 0.0
H1136 H 0.94603 0.72845 0.71696 0.0
C1137 C 0.9507 0.79191 0.698 0.0
C1138 C 0.99145 0.84698 0.56562 0.0
C1139 C 0.01399 0.86338 0.56666 0.0
H1140 H 0.97203 0.81218 0.57931 0.0
C1141 C 0.03419 0.85699 0.58374 0.0
H1142 H 0.97527 0.8514 0.55307 0.0
C1143 C 0.03204 0.83487 0.59913 0.0
C1144 C 0.00981 0.81824 0.59765 0.0
H1145 H 0.0521 0.86866 0.5848 0.0
H1146 H 0.04821 0.83046 0.61171 0.0
C1147 C 0.98946 0.82458 0.58083 0.0
C1148 C 0.08248 0.68872 0.72169 0.0
C1149 C 0.10007 0.70961 0.72738 0.0
H1150 H 0.04836 0.67544 0.70077 0.0
C1151 C 0.09669 0.73358 0.71517 0.0
H1152 H 0.08447 0.67007 0.73095 0.0
C1153 C 0.07609 0.73667 0.69777 0.0
C1154 C 0.05819 0.71592 0.69239 0.0
H1155 H 0.11009 0.74996 0.71898 0.0
H1156 H 0.07401 0.75547 0.68883 0.0
C1157 C 0.0617 0.69187 0.7045 0.0
C1158 C 0.98111 0.66867 0.55963 0.0
C1159 C 1.00207 0.65258 0.55351 0.0
H1160 H 0.96772 0.70126 0.58203 0.0
C1161 C 0.02657 0.65862 0.56492 0.0
H1162 H 0.96214 0.66523 0.55077 0.0
C1163 C 0.02978 0.67968 0.58248 0.0
C1164 C 0.00842 0.69459 0.58954 0.0
H1165 H 0.04315 0.64665 0.56093 0.0
H1166 H 0.04871 0.6837 0.59129 0.0
C1167 C 0.98427 0.68939 0.57748 0.0
C1168 C 0.79572 0.93056 0.24389 0.0
C1169 C 0.78783 0.92588 0.21805 0.0
H1170 H 0.82208 0.95111 0.26979 0.0
C1171 C 0.8005 0.93975 0.19816 0.0
H1172 H 0.7866 0.92003 0.25964 0.0
C1173 C 0.82098 0.9576 0.20408 0.0
C1174 C 0.82944 0.96118 0.22983 0.0
H1175 H 0.79462 0.93674 0.1781 0.0
H1176 H 0.83068 0.96799 0.18856 0.0
C1177 C 0.81623 0.94809 0.2497 0.0
C1178 C 0.80115 0.07723 0.31407 0.0
C1179 C 0.80094 0.10085 0.30064 0.0
H1180 H 0.81887 0.04014 0.31816 0.0
C1181 C 0.82053 0.10614 0.28239 0.0
H1182 H 0.78623 0.0727 0.32822 0.0
C1183 C 0.83947 0.0878 0.27699 0.0
C1184 C 0.83891 0.06358 0.2894 0.0
H1185 H 0.82094 0.12433 0.27197 0.0
H1186 H 0.85383 0.09216 0.26223 0.0
C1187 C 0.81983 0.05865 0.30832 0.0
C1188 C 0.35705 0.95002 0.00859 0.0
C1189 C 0.36577 0.96115 0.98529 0.0
H1190 H 0.32746 0.92678 0.02741 0.0
C1191 C 0.34991 0.95845 0.96311 0.0
H1192 H 0.36889 0.95178 0.026 0.0
C1193 C 0.32627 0.9444 0.96392 0.0
C1194 C 0.31777 0.93247 0.98692 0.0
H1195 H 0.3558 0.96723 0.94501 0.0
H1196 H 0.3149 0.94253 0.9462 0.0
C1197 C 0.33333 0.9357 0.00938 0.0
C1198 C 0.20624 0.41053 0.27272 0.0
C1199 C 0.22411 0.41548 0.29304 0.0
H1200 H 0.17473 0.42487 0.25024 0.0
C1201 C 0.22295 0.4391 0.30725 0.0
H1202 H 0.20656 0.39237 0.26163 0.0
C1203 C 0.20491 0.45783 0.30058 0.0
C1204 C 0.18737 0.45309 0.27991 0.0
H1205 H 0.23655 0.44341 0.32297 0.0
H1206 H 0.20502 0.4762 0.31133 0.0
C1207 C 0.18789 0.42904 0.26637 0.0
C1208 C 0.16788 0.05899 0.48027 0.0
C1209 C 0.15098 0.05379 0.50113 0.0
H1210 H 0.20195 0.07997 0.46704 0.0
C1211 C 0.15659 0.06575 0.52543 0.0
H1212 H 0.16463 0.04968 0.46146 0.0
C1213 C 0.17819 0.08285 0.52858 0.0
C1214 C 0.19415 0.08887 0.50739 0.0
H1215 H 0.14398 0.0624 0.54189 0.0
H1216 H 0.18199 0.09198 0.5474 0.0
C1217 C 0.18925 0.07632 0.4834 0.0
C1218 C 0.72849 0.08662 0.73863 0.0
C1219 C 0.73281 0.09504 0.71306 0.0
H1220 H 0.70566 0.06255 0.76396 0.0
C1221 C 0.71812 0.0827 0.69284 0.0
H1222 H 0.73999 0.0944 0.75477 0.0
C1223 C 0.69917 0.06329 0.69823 0.0
C1224 C 0.6938 0.05673 0.72395 0.0
H1225 H 0.72046 0.08852 0.6729 0.0
H1226 H 0.6879 0.05433 0.68246 0.0
C1227 C 0.70897 0.06805 0.74401 0.0
C1228 C 0.34726 0.06013 0.49543 0.0
C1229 C 0.36264 0.06118 0.51816 0.0
H1230 H 0.31372 0.07411 0.4756 0.0
C1231 C 0.35559 0.07832 0.53843 0.0
H1232 H 0.35223 0.04748 0.47926 0.0
C1233 C 0.33386 0.09386 0.5361 0.0
C1234 C 0.31832 0.09251 0.5136 0.0
H1235 H 0.3665 0.07936 0.55645 0.0
H1236 H 0.32893 0.10657 0.55227 0.0
C1237 C 0.32527 0.07553 0.49323 0.0
C1238 C 0.67314 0.45489 0.53221 0.0
C1239 C 0.65855 0.46738 0.51315 0.0
H1240 H 0.70412 0.42924 0.54044 0.0
C1241 C 0.66517 0.46354 0.48693 0.0
H1242 H 0.66891 0.45772 0.55262 0.0
C1243 C 0.68559 0.4474 0.47993 0.0
C1244 C 0.69988 0.43456 0.49896 0.0
H1245 H 0.65418 0.47252 0.47168 0.0
H1246 H 0.68982 0.44464 0.45951 0.0
C1247 C 0.69348 0.43866 0.52521 0.0
C1248 C 0.69665 0.2972 0.43895 0.0
C1249 C 0.71677 0.28523 0.42506 0.0
H1250 H 0.68672 0.32669 0.46723 0.0
C1251 C 0.74265 0.29378 0.42962 0.0
H1252 H 0.67655 0.29082 0.436 0.0
C1253 C 0.74829 0.31421 0.44711 0.0
C1254 C 0.72822 0.32667 0.46032 0.0
H1255 H 0.75856 0.28521 0.41906 0.0
H1256 H 0.76843 0.32055 0.45006 0.0
C1257 C 0.7024 0.31758 0.45679 0.0
C1258 C 0.56417 0.04701 0.84302 0.0
C1259 C 0.56157 0.02409 0.85737 0.0
H1260 H 0.58022 0.06575 0.81001 0.0
C1261 C 0.57303 1.00124 0.84782 0.0
H1262 H 0.55515 0.0648 0.84957 0.0
C1263 C 0.58769 1.0017 0.82483 0.0
C1264 C 0.59086 0.02496 0.81088 0.0
H1265 H 0.57129 0.98327 0.85851 0.0
H1266 H 0.59688 0.98402 0.81829 0.0
C1267 C 0.57849 0.04745 0.82015 0.0
C1268 C 0.30201 0.20795 0.42473 0.0
C1269 C 0.29373 0.23391 0.4268 0.0
H1270 H 0.29799 0.16879 0.43894 0.0
C1271 C 0.27709 0.2406 0.44735 0.0
H1272 H 0.31462 0.20196 0.40908 0.0
C1273 C 0.26728 0.22153 0.46397 0.0
C1274 C 0.27445 0.19548 0.46095 0.0
H1275 H 0.27087 0.26047 0.4501 0.0
H1276 H 0.25332 0.22697 0.47868 0.0
C1277 C 0.29253 0.1889 0.44179 0.0
C1278 C 0.45873 0.46075 0.84692 0.0
C1279 C 0.46228 0.48308 0.86285 0.0
H1280 H 0.44198 0.44388 0.81243 0.0
C1281 C 0.45173 0.50668 0.85484 0.0
H1282 H 0.46701 0.44239 0.85226 0.0
C1283 C 0.43723 0.50765 0.83174 0.0
C1284 C 0.4332 0.48507 0.8161 0.0
H1285 H 0.45411 0.52423 0.86677 0.0
H1286 H 0.42884 0.52595 0.82641 0.0
C1287 C 0.44448 0.46172 0.82389 0.0
C1288 C 0.69938 0.73192 0.07312 0.0
C1289 C 0.70844 0.72679 0.09819 0.0
H1290 H 0.69579 0.71851 0.03366 0.0
C1291 C 0.72106 0.70333 0.10264 0.0
H1292 H 0.68948 0.74983 0.06926 0.0
C1293 C 0.72505 0.68554 0.08221 0.0
C1294 C 0.71601 0.69067 0.05708 0.0
H1295 H 0.72833 0.69901 0.1218 0.0
H1296 H 0.73514 0.66776 0.08612 0.0
C1297 C 0.70289 0.71393 0.05282 0.0
C1298 C 0.95872 0.03011 0.17281 0.0
C1299 C 0.97049 0.01056 0.15781 0.0
H1300 H 0.93367 0.03918 0.20453 0.0
C1301 C 0.96612 0.9843 0.16453 0.0
H1302 H 0.96201 0.05055 0.16851 0.0
C1303 C 0.95002 0.97774 0.18541 0.0
C1304 C 0.93781 0.99729 0.20006 0.0
H1305 H 0.97461 0.9687 0.15324 0.0
H1306 H 0.94675 0.95729 0.1897 0.0
C1307 C 0.94257 0.02357 0.19361 0.0
C1308 C 0.31594 0.80108 0.07781 0.0
C1309 C 0.30273 0.80002 0.1016 0.0
H1310 H 0.31883 0.8189 0.04055 0.0
C1311 C 0.28346 0.81822 0.10691 0.0
H1312 H 0.33082 0.78719 0.07325 0.0
C1313 C 0.27694 0.83664 0.08846 0.0
C1314 C 0.28921 0.83688 0.06413 0.0
H1315 H 0.27315 0.81793 0.1252 0.0
H1316 H 0.26149 0.84992 0.09288 0.0
C1317 C 0.30906 0.81919 0.05913 0.0
C1318 C 0.06681 0.48868 0.16277 0.0
C1319 C 0.05482 0.5088 0.14936 0.0
H1320 H 0.0921 0.4784 0.19384 0.0
C1321 C 0.05932 0.53475 0.15802 0.0
H1322 H 0.06347 0.46844 0.15695 0.0
C1323 C 0.07546 0.54045 0.17941 0.0
C1324 C 0.08772 0.52037 0.19263 0.0
H1325 H 0.05076 0.5508 0.14797 0.0
H1326 H 0.07866 0.56071 0.18527 0.0
C1327 C 0.08311 0.49439 0.18408 0.0
C1328 C 0.44294 0.69648 0.29721 0.0
C1329 C 0.42899 0.71686 0.28625 0.0
H1330 H 0.47035 0.68557 0.32651 0.0
C1331 C 0.43266 0.74231 0.29646 0.0
H1332 H 0.44076 0.67671 0.28954 0.0
C1333 C 0.44932 0.7472 0.3175 0.0
C1334 C 0.46249 0.72675 0.32896 0.0
H1335 H 0.42204 0.7584 0.28871 0.0
H1336 H 0.45167 0.76701 0.32507 0.0
C1337 C 0.45985 0.70147 0.31824 0.0
C1338 C 0.96475 0.34324 0.96599 0.0
C1339 C 0.98655 0.36041 0.96692 0.0
H1340 H 0.94791 0.30747 0.9513 0.0
C1341 C 0.00946 0.35311 0.95417 0.0
H1342 H 0.94699 0.34804 0.97605 0.0
C1343 C 0.01009 0.32959 0.93977 0.0
C1344 C 0.98786 0.31287 0.93808 0.0
H1345 H 0.02658 0.36599 0.95458 0.0
H1346 H 0.02771 0.32491 0.92942 0.0
C1347 C 0.9654 0.31982 0.95186 0.0
C1348 C 0.60749 0.79321 0.32603 0.0
C1349 C 0.60019 0.8014 0.30123 0.0
H1350 H 0.59457 0.77966 0.36307 0.0
C1351 C 0.57372 0.80473 0.29573 0.0
H1352 H 0.62779 0.79047 0.33071 0.0
C1353 C 0.55479 0.799 0.31433 0.0
C1354 C 0.56192 0.78941 0.33865 0.0
H1355 H 0.56764 0.8113 0.27685 0.0
H1356 H 0.53448 0.80094 0.30916 0.0
C1357 C 0.58849 0.78705 0.34452 0.0
C1358 C 0.98519 0.15821 0.96538 0.0
C1359 C 0.01147 0.15188 0.96864 0.0
H1360 H 0.95789 0.18323 0.94756 0.0
C1361 C 0.03071 0.16721 0.95626 0.0
H1362 H 0.96981 0.14666 0.97436 0.0
C1363 C 0.02388 0.18804 0.94075 0.0
C1364 C 0.99759 0.19423 0.93724 0.0
H1365 H 0.05116 0.16325 0.95869 0.0
H1366 H 0.0393 0.19928 0.93147 0.0
C1367 C 0.97833 0.17916 0.94991 0.0
C1368 C 0.433 0.30274 0.21551 0.0
C1369 C 0.42043 0.28678 0.2339 0.0
H1370 H 0.45919 0.30462 0.1831 0.0
C1371 C 0.42518 0.25994 0.23351 0.0
H1372 H 0.42979 0.32354 0.21538 0.0
C1373 C 0.44184 0.24921 0.21523 0.0
C1374 C 0.45435 0.26496 0.19667 0.0
H1375 H 0.41552 0.24697 0.24704 0.0
H1376 H 0.4447 0.22835 0.21559 0.0
C1377 C 0.44994 0.29195 0.19715 0.0
C1378 C 0.49076 0.34681 0.0643 0.0
C1379 C 0.51327 0.36327 0.06537 0.0
H1380 H 0.47135 0.31206 0.07808 0.0
C1381 C 0.53338 0.35703 0.08263 0.0
H1382 H 0.47466 0.35112 0.05162 0.0
C1383 C 0.53119 0.33501 0.09814 0.0
C1384 C 0.50901 0.31831 0.09662 0.0
H1385 H 0.55126 0.36875 0.08372 0.0
H1386 H 0.5473 0.3307 0.11084 0.0
C1387 C 0.48873 0.3245 0.07963 0.0
C1388 C 0.59622 0.23328 0.21381 0.0
C1389 C 0.59955 0.20927 0.22597 0.0
H1390 H 0.57349 0.25533 0.18766 0.0
C1391 C 0.58183 0.18848 0.22037 0.0
H1392 H 0.60972 0.24959 0.21756 0.0
C1393 C 0.56095 0.19177 0.20333 0.0
C1394 C 0.55748 0.21586 0.19129 0.0
H1395 H 0.58377 0.16981 0.22961 0.0
H1396 H 0.5475 0.17541 0.19967 0.0
C1397 C 0.57552 0.23651 0.19657 0.0
C1398 C 0.48102 0.16866 0.05854 0.0
C1399 C 0.50208 0.15266 0.05257 0.0
H1400 H 0.46735 0.20119 0.08084 0.0
C1401 C 0.5265 0.15882 0.0641 0.0
H1402 H 0.46211 0.16513 0.04957 0.0
C1403 C 0.52951 0.17991 0.08165 0.0
C1404 C 0.50803 0.19471 0.0886 0.0
H1405 H 0.54315 0.14692 0.06022 0.0
H1406 H 0.54837 0.18403 0.09057 0.0
C1407 C 0.48397 0.1894 0.07639 0.0
C1408 C 0.29369 0.43244 0.74256 0.0
C1409 C 0.28551 0.42823 0.71674 0.0
H1410 H 0.32064 0.45218 0.76847 0.0
C1411 C 0.29829 0.44211 0.69692 0.0
H1412 H 0.2845 0.42187 0.75825 0.0
C1413 C 0.31915 0.4595 0.70287 0.0
C1414 C 0.32789 0.46259 0.72858 0.0
H1415 H 0.29222 0.43944 0.67687 0.0
H1416 H 0.3289 0.4699 0.6874 0.0
C1417 C 0.31458 0.44951 0.7484 0.0
C1418 C 0.32108 0.60701 0.78263 0.0
C1419 C 0.30158 0.60171 0.80097 0.0
H1420 H 0.35409 0.59292 0.76209 0.0
C1421 C 0.3017 0.57798 0.8142 0.0
H1422 H 0.32154 0.62529 0.77236 0.0
C1423 C 0.32017 0.55929 0.80816 0.0
C1424 C 0.33914 0.56422 0.78912 0.0
H1425 H 0.28684 0.57343 0.82842 0.0
H1426 H 0.31913 0.54069 0.81783 0.0
C1427 C 0.33982 0.58856 0.77693 0.0
C1428 C 0.85015 0.45772 0.46144 0.0
C1429 C 0.86564 0.46085 0.48384 0.0
H1430 H 0.81555 0.44122 0.44416 0.0
C1431 C 0.85675 0.44977 0.50709 0.0
H1432 H 0.85619 0.46642 0.44335 0.0
C1433 C 0.83319 0.43517 0.50766 0.0
C1434 C 0.81796 0.4316 0.48503 0.0
H1435 H 0.86832 0.45183 0.52467 0.0
H1436 H 0.82715 0.42639 0.52571 0.0
C1437 C 0.82666 0.44338 0.46202 0.0
C1438 C 0.70633 0.90911 0.77225 0.0
C1439 C 0.72406 0.91413 0.79269 0.0
H1440 H 0.67496 0.92337 0.74952 0.0
C1441 C 0.72279 0.93778 0.80682 0.0
H1442 H 0.70675 0.89092 0.76122 0.0
C1443 C 0.7048 0.95648 0.79998 0.0
C1444 C 0.6874 0.95167 0.77919 0.0
H1445 H 0.73629 0.94215 0.82263 0.0
H1446 H 0.70481 0.97487 0.81068 0.0
C1447 C 0.68802 0.92759 0.76572 0.0
C1448 C 0.65593 0.56519 0.0243 0.0
C1449 C 0.65056 0.5532 0.99997 0.0
H1450 H 0.68116 0.59138 0.04651 0.0
C1451 C 0.6677 0.55833 0.97929 0.0
H1452 H 0.64312 0.56191 0.04062 0.0
C1453 C 0.6891 0.57559 0.98263 0.0
C1454 C 0.69377 0.58817 0.00665 0.0
H1455 H 0.66464 0.549 0.96046 0.0
H1456 H 0.702 0.57918 0.96641 0.0
C1457 C 0.67754 0.58223 0.02767 0.0
C1458 C 0.22713 0.59019 0.23838 0.0
C1459 C 0.23354 0.59522 0.21243 0.0
H1460 H 0.20296 0.5684 0.26447 0.0
C1461 C 0.22047 0.58087 0.19252 0.0
H1462 H 0.23668 0.60103 0.25415 0.0
C1463 C 0.2011 0.56212 0.19853 0.0
C1464 C 0.19408 0.55809 0.22444 0.0
H1465 H 0.22525 0.58411 0.17236 0.0
H1466 H 0.19114 0.55131 0.18298 0.0
C1467 C 0.20767 0.57175 0.2443 0.0
C1468 C 0.85555 0.57793 0.03856 0.0
C1469 C 0.86297 0.56121 0.0181 0.0
H1470 H 0.82839 0.60559 0.05264 0.0
C1471 C 0.84766 0.56018 0.99532 0.0
H1472 H 0.86639 0.57892 0.05663 0.0
C1473 C 0.82544 0.57527 0.99323 0.0
C1474 C 0.81816 0.5919 0.01376 0.0
H1475 H 0.8529 0.54785 0.979 0.0
H1476 H 0.81399 0.57391 0.97553 0.0
C1477 C 0.83357 0.59317 0.03635 0.0
C1478 C 0.16406 0.96257 0.98626 0.0
C1479 C 0.15726 0.96675 0.0124 0.0
H1480 H 0.18914 0.94355 0.95929 0.0
C1481 C 0.172 0.95487 0.03174 0.0
H1482 H 0.15299 0.97112 0.97082 0.0
C1483 C 0.1926 0.93883 0.02512 0.0
C1484 C 0.19917 0.93434 0.99898 0.0
H1485 H 0.16767 0.958 0.05208 0.0
H1486 H 0.20333 0.92989 0.04058 0.0
C1487 C 0.18477 0.94663 0.97964 0.0
loop_
_geom_bond_atom_site_label_1
_geom_bond_atom_site_label_2
_geom_bond_distance
_geom_bond_site_symmetry_2
_ccdc_geom_bond_type
C0 C1 1.384 . S
C0 H13 0.947 . S
C0 C35 1.382 . S
C1 C0 1.384 . S
C1 C2 1.378 . S
C2 C1 1.378 . S
C2 C3 1.378 1_655 S
C2 H14 0.952 1_545 S
C3 C2 1.378 1_455 S
C3 H15 0.950 . S
C3 C34 1.383 . S
H4 C23 0.947 . S
H5 C24 0.946 . S
H6 C26 0.953 1_556 S
H7 C27 0.965 . S
H8 C29 0.952 . S
H9 C30 0.949 . S
H10 C32 0.950 1_655 S
H11 C33 0.948 . S
H12 C35 0.951 . S
H13 C0 0.947 . S
H14 C2 0.952 1_565 S
H15 C3 0.950 . S
N16 C19 1.382 . S
N16 C21 1.363 . S
N17 C19 1.371 . S
N17 C20 1.372 . S
N18 C20 1.361 . S
N18 C21 1.377 . S
C19 N16 1.382 . S
C19 N17 1.371 . S
C19 C22 1.480 . S
C20 N17 1.372 . S
C20 N18 1.361 . S
C20 C28 1.457 . S
C21 N16 1.363 . S
C21 N18 1.377 . S
C21 C34 1.479 . S
C22 C19 1.480 . S
C22 C23 1.383 1_545 S
C22 C27 1.385 . S
C23 H4 0.947 . S
C23 C22 1.383 1_565 S
C23 C24 1.388 . S
C24 H5 0.946 . S
C24 C23 1.388 . S
C24 C25 1.384 . S
C25 C24 1.384 . S
C25 C26 1.377 . S
C26 H6 0.953 1_554 S
C26 C25 1.377 . S
C26 C27 1.369 1_565 S
C27 H7 0.965 . S
C27 C22 1.385 . S
C27 C26 1.369 1_545 S
C28 C20 1.457 . S
C28 C29 1.372 1_554 S
C28 C33 1.364 . S
C29 H8 0.952 . S
C29 C28 1.372 1_556 S
C29 C30 1.389 . S
C30 H9 0.949 . S
C30 C29 1.389 . S
C30 C31 1.387 . S
C31 C30 1.387 . S
C31 C32 1.372 . S
C32 H10 0.950 1_455 S
C32 C31 1.372 . S
C32 C33 1.379 1_556 S
C33 H11 0.948 . S
C33 C28 1.364 . S
C33 C32 1.379 1_554 S
C34 C3 1.383 . S
C34 C21 1.479 . S
C34 C35 1.398 1_455 S
C35 C0 1.382 . S
C35 H12 0.951 . S
C35 C34 1.398 1_655 S
C36 C37 1.384 . S
C36 H49 0.947 . S
C36 C71 1.382 . S
C37 C36 1.384 . S
C37 C38 1.378 . S
C38 C37 1.378 . S
C38 C39 1.378 . S
C38 H50 0.952 . S
C39 C38 1.378 . S
C39 H51 0.950 . S
C39 C70 1.383 . S
H40 C59 0.947 . S
H41 C60 0.946 . S
H42 C62 0.953 . S
H43 C63 0.945 . S
H44 C65 0.952 . S
H45 C66 0.949 . S
H46 C68 0.950 . S
H47 C69 0.948 . S
H48 C71 0.951 . S
H49 C36 0.947 . S
H50 C38 0.952 . S
H51 C39 0.950 . S
N52 C55 1.382 . S
N52 C57 1.363 . S
N53 C55 1.371 . S
N53 C56 1.372 . S
N54 C56 1.361 . S
N54 C57 1.377 . S
C55 N52 1.382 . S
C55 N53 1.371 . S
C55 C58 1.480 . S
C56 N53 1.372 . S
C56 N54 1.361 . S
C56 C64 1.457 . S
C57 N52 1.363 . S
C57 N54 1.377 . S
C57 C70 1.479 . S
C58 C55 1.480 . S
C58 C59 1.383 . S
C58 C63 1.385 . S
C59 H40 0.947 . S
C59 C58 1.383 . S
C59 C60 1.388 . S
C60 H41 0.946 . S
C60 C59 1.388 . S
C60 C61 1.384 . S
C61 C60 1.384 . S
C61 C62 1.377 . S
C62 H42 0.953 . S
C62 C61 1.377 . S
C62 C63 1.369 . S
C63 H43 0.945 . S
C63 C58 1.385 . S
C63 C62 1.369 . S
C64 C56 1.457 . S
C64 C65 1.372 . S
C64 C69 1.364 . S
C65 H44 0.952 . S
C65 C64 1.372 . S
C65 C66 1.389 . S
C66 H45 0.949 . S
C66 C65 1.389 . S
C66 C67 1.387 . S
C67 C66 1.387 . S
C67 C68 1.372 . S
C68 H46 0.950 . S
C68 C67 1.372 . S
C68 C69 1.379 . S
C69 H47 0.948 . S
C69 C64 1.364 . S
C69 C68 1.379 . S
C70 C39 1.383 . S
C70 C57 1.479 . S
C70 C71 1.398 . S
C71 C36 1.382 . S
C71 H48 0.951 . S
C71 C70 1.398 . S
C72 C73 1.400 . S
C72 H85 0.927 1_655 S
C72 C107 1.387 1_556 S
C73 C72 1.400 . S
C73 C74 1.378 . S
C74 C73 1.378 . S
C74 C75 1.378 . S
C74 H86 0.952 . S
C75 C74 1.378 . S
C75 H87 0.950 . S
C75 C106 1.383 . S
H76 C95 0.947 1_556 S
H77 C96 0.946 1_556 S
H78 C98 0.953 . S
H79 C99 0.945 . S
H80 C101 0.978 . S
H81 C102 0.949 . S
H82 C104 0.950 . S
H83 C105 0.948 . S
H84 C107 0.951 1_455 S
H85 C72 0.927 1_455 S
H86 C74 0.952 . S
H87 C75 0.950 . S
N88 C91 1.382 . S
N88 C93 1.363 . S
N89 C91 1.371 . S
N89 C92 1.372 . S
N90 C92 1.361 . S
N90 C93 1.377 . S
C91 N88 1.382 . S
C91 N89 1.371 . S
C91 C94 1.480 . S
C92 N89 1.372 . S
C92 N90 1.361 . S
C92 C100 1.457 1_655 S
C93 N88 1.363 . S
C93 N90 1.377 . S
C93 C106 1.479 1_554 S
C94 C91 1.480 . S
C94 C95 1.383 . S
C94 C99 1.385 . S
C95 H76 0.947 1_554 S
C95 C94 1.383 . S
C95 C96 1.388 . S
C96 H77 0.946 1_554 S
C96 C95 1.388 . S
C96 C97 1.384 . S
C97 C96 1.384 . S
C97 C98 1.377 . S
C98 H78 0.953 . S
C98 C97 1.377 . S
C98 C99 1.369 . S
C99 H79 0.945 . S
C99 C94 1.385 . S
C99 C98 1.369 . S
C100 C92 1.457 1_455 S
C100 C101 1.363 1_455 S
C100 C105 1.364 . S
C101 H80 0.978 . S
C101 C100 1.363 1_655 S
C101 C102 1.372 1_655 S
C102 H81 0.949 . S
C102 C101 1.372 1_455 S
C102 C103 1.387 . S
C103 C102 1.387 . S
C103 C104 1.372 . S
C104 H82 0.950 . S
C104 C103 1.372 . S
C104 C105 1.379 . S
C105 H83 0.948 . S
C105 C100 1.364 . S
C105 C104 1.379 . S
C106 C75 1.383 . S
C106 C93 1.479 1_556 S
C106 C107 1.398 1_556 S
C107 C72 1.387 1_554 S
C107 H84 0.951 1_655 S
C107 C106 1.398 1_554 S
C108 C109 1.384 . S
C108 H121 0.947 . S
C108 C143 1.382 . S
C109 C108 1.384 . S
C109 C110 1.378 . S
C110 C109 1.378 . S
C110 C111 1.378 . S
C110 H122 0.952 . S
C111 C110 1.378 . S
C111 H123 0.950 . S
C111 C142 1.383 . S
H112 C131 0.947 . S
H113 C132 0.946 . S
H114 C134 0.953 . S
H115 C135 0.945 . S
H116 C137 0.952 . S
H117 C138 0.949 . S
H118 C140 0.950 . S
H119 C141 0.948 . S
H120 C143 0.951 . S
H121 C108 0.947 . S
H122 C110 0.952 . S
H123 C111 0.950 . S
N124 C127 1.382 . S
N124 C129 1.363 . S
N125 C127 1.371 . S
N125 C128 1.372 . S
N126 C128 1.361 . S
N126 C129 1.377 . S
C127 N124 1.382 . S
C127 N125 1.371 . S
C127 C130 1.480 . S
C128 N125 1.372 . S
C128 N126 1.361 . S
C128 C136 1.457 . S
C129 N124 1.363 . S
C129 N126 1.377 . S
C129 C142 1.479 . S
C130 C127 1.480 . S
C130 C131 1.383 . S
C130 C135 1.385 . S
C131 H112 0.947 . S
C131 C130 1.383 . S
C131 C132 1.388 . S
C132 H113 0.946 . S
C132 C131 1.388 . S
C132 C133 1.384 . S
C133 C132 1.384 . S
C133 C134 1.377 . S
C134 H114 0.953 . S
C134 C133 1.377 . S
C134 C135 1.369 . S
C135 H115 0.945 . S
C135 C130 1.385 . S
C135 C134 1.369 . S
C136 C128 1.457 . S
C136 C137 1.372 . S
C136 C141 1.364 . S
C137 H116 0.952 . S
C137 C136 1.372 . S
C137 C138 1.389 . S
C138 H117 0.949 . S
C138 C137 1.389 . S
C138 C139 1.387 . S
C139 C138 1.387 . S
C139 C140 1.372 . S
C140 H118 0.950 . S
C140 C139 1.372 . S
C140 C141 1.379 . S
C141 H119 0.948 . S
C141 C136 1.364 . S
C141 C140 1.379 . S
C142 C111 1.383 . S
C142 C129 1.479 . S
C142 C143 1.398 . S
C143 C108 1.382 . S
C143 H120 0.951 . S
C143 C142 1.398 . S
C144 C145 1.384 . S
C144 H157 0.947 . S
C144 C179 1.382 . S
C145 C144 1.384 . S
C145 C146 1.378 . S
C146 C145 1.378 . S
C146 C147 1.378 . S
C146 H158 0.952 1_455 S
C147 C146 1.378 . S
C147 H159 0.950 . S
C147 C178 1.383 . S
H148 C167 0.947 . S
H149 C168 0.946 . S
H150 C170 0.953 . S
H151 C171 0.945 1_545 S
H152 C173 0.952 . S
H153 C174 0.949 . S
H154 C176 0.950 . S
H155 C177 0.948 . S
H156 C179 0.951 . S
H157 C144 0.947 . S
H158 C146 0.952 1_655 S
H159 C147 0.950 . S
N160 C163 1.382 . S
N160 C165 1.363 . S
N161 C163 1.371 . S
N161 C164 1.372 . S
N162 C164 1.361 . S
N162 C165 1.377 . S
C163 N160 1.382 . S
C163 N161 1.371 . S
C163 C166 1.480 . S
C164 N161 1.372 . S
C164 N162 1.361 . S
C164 C172 1.457 1_565 S
C165 N160 1.363 . S
C165 N162 1.377 . S
C165 C178 1.479 . S
C166 C163 1.480 . S
C166 C167 1.383 1_455 S
C166 C171 1.385 . S
C167 H148 0.947 . S
C167 C166 1.383 1_655 S
C167 C168 1.388 . S
C168 H149 0.946 . S
C168 C167 1.388 . S
C168 C169 1.384 . S
C169 C168 1.384 . S
C169 C170 1.377 1_565 S
C170 H150 0.953 . S
C170 C169 1.377 1_545 S
C170 C171 1.369 1_645 S
C171 H151 0.945 1_565 S
C171 C166 1.385 . S
C171 C170 1.369 1_465 S
C172 C164 1.457 1_545 S
C172 C173 1.372 . S
C172 C177 1.364 1_545 S
C173 H152 0.952 . S
C173 C172 1.372 . S
C173 C174 1.389 . S
C174 H153 0.949 . S
C174 C173 1.389 . S
C174 C175 1.387 . S
C175 C174 1.387 . S
C175 C176 1.372 . S
C176 H154 0.950 . S
C176 C175 1.372 . S
C176 C177 1.379 1_545 S
C177 H155 0.948 . S
C177 C172 1.364 1_565 S
C177 C176 1.379 1_565 S
C178 C147 1.383 . S
C178 C165 1.479 . S
C178 C179 1.398 . S
C179 C144 1.382 . S
C179 H156 0.951 . S
C179 C178 1.398 . S
C180 C181 1.384 . S
C180 H193 0.947 . S
C180 C215 1.382 . S
C181 C180 1.384 . S
C181 C182 1.378 . S
C182 C181 1.378 . S
C182 C183 1.378 . S
C182 H194 0.952 . S
C183 C182 1.378 . S
C183 H195 0.950 . S
C183 C214 1.383 . S
H184 C203 0.947 . S
H185 C204 0.946 . S
H186 C206 0.953 . S
H187 C207 0.945 . S
H188 C209 0.952 . S
H189 C210 0.949 . S
H190 C212 0.950 . S
H191 C213 0.948 . S
H192 C215 0.951 . S
H193 C180 0.947 . S
H194 C182 0.952 . S
H195 C183 0.950 . S
N196 C199 1.382 . S
N196 C201 1.363 . S
N197 C199 1.371 . S
N197 C200 1.372 . S
N198 C200 1.361 . S
N198 C201 1.377 . S
C199 N196 1.382 . S
C199 N197 1.371 . S
C199 C202 1.480 . S
C200 N197 1.372 . S
C200 N198 1.361 . S
C200 C208 1.457 . S
C201 N196 1.363 . S
C201 N198 1.377 . S
C201 C214 1.479 . S
C202 C199 1.480 . S
C202 C203 1.383 . S
C202 C207 1.385 . S
C203 H184 0.947 . S
C203 C202 1.383 . S
C203 C204 1.388 . S
C204 H185 0.946 . S
C204 C203 1.388 . S
C204 C205 1.384 . S
C205 C204 1.384 . S
C205 C206 1.377 . S
C206 H186 0.953 . S
C206 C205 1.377 . S
C206 C207 1.369 . S
C207 H187 0.945 . S
C207 C202 1.385 . S
C207 C206 1.369 . S
C208 C200 1.457 . S
C208 C209 1.372 . S
C208 C213 1.364 . S
C209 H188 0.952 . S
C209 C208 1.372 . S
C209 C210 1.389 . S
C210 H189 0.949 . S
C210 C209 1.389 . S
C210 C211 1.387 . S
C211 C210 1.387 . S
C211 C212 1.372 . S
C212 H190 0.950 . S
C212 C211 1.372 . S
C212 C213 1.379 . S
C213 H191 0.948 . S
C213 C208 1.364 . S
C213 C212 1.379 . S
C214 C183 1.383 . S
C214 C201 1.479 . S
C214 C215 1.398 . S
C215 C180 1.382 . S
C215 H192 0.951 . S
C215 C214 1.398 . S
C216 C217 1.384 1_455 S
C216 H229 0.947 . S
C216 C251 1.382 . S
C217 C216 1.384 1_655 S
C217 C218 1.378 . S
C218 C217 1.378 . S
C218 C219 1.378 . S
C218 H230 0.952 . S
C219 C218 1.378 . S
C219 H231 0.950 . S
C219 C250 1.383 . S
H220 C239 0.947 . S
H221 C240 0.946 . S
H222 C242 0.953 . S
H223 C243 0.945 . S
H224 C245 0.952 1_655 S
H225 C246 0.949 . S
H226 C248 0.950 . S
H227 C249 0.948 . S
H228 C251 0.951 . S
H229 C216 0.947 . S
H230 C218 0.952 . S
H231 C219 0.950 . S
N232 C235 1.382 . S
N232 C237 1.363 . S
N233 C235 1.371 . S
N233 C236 1.372 . S
N234 C236 1.361 . S
N234 C237 1.377 . S
C235 N232 1.382 . S
C235 N233 1.371 . S
C235 C238 1.480 . S
C236 N233 1.372 . S
C236 N234 1.361 . S
C236 C244 1.457 1_655 S
C237 N232 1.363 . S
C237 N234 1.377 . S
C237 C250 1.479 . S
C238 C235 1.480 . S
C238 C239 1.383 . S
C238 C243 1.385 . S
C239 H220 0.947 . S
C239 C238 1.383 . S
C239 C240 1.388 . S
C240 H221 0.946 . S
C240 C239 1.388 . S
C240 C241 1.384 . S
C241 C240 1.384 . S
C241 C242 1.377 . S
C242 H222 0.953 . S
C242 C241 1.377 . S
C242 C243 1.369 . S
C243 H223 0.945 . S
C243 C238 1.385 . S
C243 C242 1.369 . S
C244 C236 1.457 1_455 S
C244 C245 1.372 . S
C244 C249 1.364 . S
C245 H224 0.952 1_455 S
C245 C244 1.372 . S
C245 C246 1.389 . S
C246 H225 0.949 . S
C246 C245 1.389 . S
C246 C247 1.387 . S
C247 C246 1.387 . S
C247 C248 1.372 . S
C248 H226 0.950 . S
C248 C247 1.372 . S
C248 C249 1.379 . S
C249 H227 0.948 . S
C249 C244 1.364 . S
C249 C248 1.379 . S
C250 C219 1.383 . S
C250 C237 1.479 . S
C250 C251 1.398 1_655 S
C251 C216 1.382 . S
C251 H228 0.951 . S
C251 C250 1.398 1_455 S
C252 C253 1.384 . S
C252 H265 0.947 . S
C252 C287 1.382 . S
C253 C252 1.384 . S
C253 C254 1.378 . S
C254 C253 1.378 . S
C254 C255 1.378 . S
C254 H266 0.952 . S
C255 C254 1.378 . S
C255 H267 0.950 . S
C255 C286 1.383 . S
H256 C275 0.947 . S
H257 C276 0.946 . S
H258 C278 0.953 . S
H259 C279 0.945 . S
H260 C281 0.952 . S
H261 C282 0.949 . S
H262 C284 0.950 . S
H263 C285 0.948 . S
H264 C287 0.951 . S
H265 C252 0.947 . S
H266 C254 0.952 . S
H267 C255 0.950 . S
N268 C271 1.382 . S
N268 C273 1.363 . S
N269 C271 1.371 . S
N269 C272 1.372 . S
N270 C272 1.361 . S
N270 C273 1.377 . S
C271 N268 1.382 . S
C271 N269 1.371 . S
C271 C274 1.480 . S
C272 N269 1.372 . S
C272 N270 1.361 . S
C272 C280 1.457 . S
C273 N268 1.363 . S
C273 N270 1.377 . S
C273 C286 1.479 . S
C274 C271 1.480 . S
C274 C275 1.383 . S
C274 C279 1.385 . S
C275 H256 0.947 . S
C275 C274 1.383 . S
C275 C276 1.388 . S
C276 H257 0.946 . S
C276 C275 1.388 . S
C276 C277 1.384 . S
C277 C276 1.384 . S
C277 C278 1.377 . S
C278 H258 0.953 . S
C278 C277 1.377 . S
C278 C279 1.369 . S
C279 H259 0.945 . S
C279 C274 1.385 . S
C279 C278 1.369 . S
C280 C272 1.457 . S
C280 C281 1.372 . S
C280 C285 1.364 . S
C281 H260 0.952 . S
C281 C280 1.372 . S
C281 C282 1.389 . S
C282 H261 0.949 . S
C282 C281 1.389 . S
C282 C283 1.387 . S
C283 C282 1.387 . S
C283 C284 1.372 . S
C284 H262 0.950 . S
C284 C283 1.372 . S
C284 C285 1.379 . S
C285 H263 0.948 . S
C285 C280 1.364 . S
C285 C284 1.379 . S
C286 C255 1.383 . S
C286 C273 1.479 . S
C286 C287 1.398 . S
C287 C252 1.382 . S
C287 H264 0.951 . S
C287 C286 1.398 . S
C288 C289 1.384 . S
C288 H301 0.947 . S
C288 C323 1.382 . S
C289 C288 1.384 . S
C289 C290 1.378 . S
C290 C289 1.378 . S
C290 C291 1.378 . S
C290 H302 0.952 . S
C291 C290 1.378 . S
C291 H303 0.950 . S
C291 C322 1.383 . S
H292 C311 0.947 . S
H293 C312 0.946 . S
H294 C314 0.953 . S
H295 C315 0.945 . S
H296 C317 0.952 . S
H297 C318 0.949 . S
H298 C320 0.950 . S
H299 C321 0.948 . S
H300 C323 0.951 . S
H301 C288 0.947 . S
H302 C290 0.952 . S
H303 C291 0.950 . S
N304 C307 1.382 . S
N304 C309 1.363 . S
N305 C307 1.371 . S
N305 C308 1.372 . S
N306 C308 1.361 . S
N306 C309 1.377 . S
C307 N304 1.382 . S
C307 N305 1.371 . S
C307 C310 1.480 . S
C308 N305 1.372 . S
C308 N306 1.361 . S
C308 C316 1.457 . S
C309 N304 1.363 . S
C309 N306 1.377 . S
C309 C322 1.479 . S
C310 C307 1.480 . S
C310 C311 1.383 . S
C310 C315 1.385 . S
C311 H292 0.947 . S
C311 C310 1.383 . S
C311 C312 1.388 . S
C312 H293 0.946 . S
C312 C311 1.388 . S
C312 C313 1.384 . S
C313 C312 1.384 . S
C313 C314 1.377 . S
C314 H294 0.953 . S
C314 C313 1.377 . S
C314 C315 1.369 . S
C315 H295 0.945 . S
C315 C310 1.385 . S
C315 C314 1.369 . S
C316 C308 1.457 . S
C316 C317 1.372 . S
C316 C321 1.364 . S
C317 H296 0.952 . S
C317 C316 1.372 . S
C317 C318 1.389 . S
C318 H297 0.949 . S
C318 C317 1.389 . S
C318 C319 1.387 . S
C319 C318 1.387 . S
C319 C320 1.372 . S
C320 H298 0.950 . S
C320 C319 1.372 . S
C320 C321 1.379 . S
C321 H299 0.948 . S
C321 C316 1.364 . S
C321 C320 1.379 . S
C322 C291 1.383 . S
C322 C309 1.479 . S
C322 C323 1.398 . S
C323 C288 1.382 . S
C323 H300 0.951 . S
C323 C322 1.398 . S
C324 C325 1.384 . S
C324 H337 0.947 . S
C324 C359 1.382 . S
C325 C324 1.384 . S
C325 C326 1.378 . S
C326 C325 1.378 . S
C326 C327 1.378 . S
C326 H338 0.952 . S
C327 C326 1.378 . S
C327 H339 0.950 . S
C327 C358 1.383 . S
H328 C347 0.949 . S
H329 C348 0.946 . S
H330 C350 0.953 . S
H331 C351 0.945 . S
H332 C353 0.952 1_545 S
H333 C354 0.936 1_545 S
H334 C356 0.950 . S
H335 C357 0.948 . S
H336 C359 0.951 . S
H337 C324 0.947 . S
H338 C326 0.952 . S
H339 C327 0.950 . S
N340 C343 1.382 . S
N340 C345 1.363 . S
N341 C343 1.371 . S
N341 C344 1.372 . S
N342 C344 1.361 . S
N342 C345 1.377 . S
C343 N340 1.382 . S
C343 N341 1.371 . S
C343 C346 1.480 1_565 S
C344 N341 1.372 . S
C344 N342 1.361 . S
C344 C352 1.457 . S
C345 N340 1.363 . S
C345 N342 1.377 . S
C345 C358 1.479 . S
C346 C343 1.480 1_545 S
C346 C347 1.383 1_545 S
C346 C351 1.385 . S
C347 H328 0.949 . S
C347 C346 1.383 1_565 S
C347 C348 1.387 1_565 S
C348 H329 0.946 . S
C348 C347 1.387 1_545 S
C348 C349 1.384 . S
C349 C348 1.384 . S
C349 C350 1.377 . S
C350 H330 0.953 . S
C350 C349 1.377 . S
C350 C351 1.369 . S
C351 H331 0.945 . S
C351 C346 1.385 . S
C351 C350 1.369 . S
C352 C344 1.457 . S
C352 C353 1.372 . S
C352 C357 1.364 . S
C353 H332 0.952 1_565 S
C353 C352 1.372 . S
C353 C354 1.390 . S
C354 H333 0.936 1_565 S
C354 C353 1.390 . S
C354 C355 1.398 . S
C355 C354 1.398 . S
C355 C356 1.372 . S
C356 H334 0.950 . S
C356 C355 1.372 . S
C356 C357 1.379 . S
C357 H335 0.948 . S
C357 C352 1.364 . S
C357 C356 1.379 . S
C358 C327 1.383 . S
C358 C345 1.479 . S
C358 C359 1.398 . S
C359 C324 1.382 . S
C359 H336 0.951 . S
C359 C358 1.398 . S
C360 C361 1.384 . S
C360 H373 0.947 . S
C360 C395 1.382 . S
C361 C360 1.384 . S
C361 C362 1.378 . S
C362 C361 1.378 . S
C362 C363 1.378 . S
C362 H374 0.952 . S
C363 C362 1.378 . S
C363 H375 0.950 . S
C363 C394 1.383 . S
H364 C383 0.947 . S
H365 C384 0.946 . S
H366 C386 0.953 . S
H367 C387 0.945 . S
H368 C389 0.952 . S
H369 C390 0.949 . S
H370 C392 0.950 . S
H371 C393 0.948 . S
H372 C395 0.951 . S
H373 C360 0.947 . S
H374 C362 0.952 . S
H375 C363 0.950 . S
N376 C379 1.382 . S
N376 C381 1.363 . S
N377 C379 1.371 . S
N377 C380 1.372 . S
N378 C380 1.361 . S
N378 C381 1.377 . S
C379 N376 1.382 . S
C379 N377 1.371 . S
C379 C382 1.480 . S
C380 N377 1.372 . S
C380 N378 1.361 . S
C380 C388 1.457 . S
C381 N376 1.363 . S
C381 N378 1.377 . S
C381 C394 1.479 . S
C382 C379 1.480 . S
C382 C383 1.383 . S
C382 C387 1.385 . S
C383 H364 0.947 . S
C383 C382 1.383 . S
C383 C384 1.388 . S
C384 H365 0.946 . S
C384 C383 1.388 . S
C384 C385 1.384 . S
C385 C384 1.384 . S
C385 C386 1.377 . S
C386 H366 0.953 . S
C386 C385 1.377 . S
C386 C387 1.369 . S
C387 H367 0.945 . S
C387 C382 1.385 . S
C387 C386 1.369 . S
C388 C380 1.457 . S
C388 C389 1.372 . S
C388 C393 1.364 . S
C389 H368 0.952 . S
C389 C388 1.372 . S
C389 C390 1.389 . S
C390 H369 0.949 . S
C390 C389 1.389 . S
C390 C391 1.387 . S
C391 C390 1.387 . S
C391 C392 1.372 . S
C392 H370 0.950 . S
C392 C391 1.372 . S
C392 C393 1.379 . S
C393 H371 0.948 . S
C393 C388 1.364 . S
C393 C392 1.379 . S
C394 C363 1.383 . S
C394 C381 1.479 . S
C394 C395 1.398 . S
C395 C360 1.382 . S
C395 H372 0.951 . S
C395 C394 1.398 . S
C396 C397 1.384 . S
C396 H409 0.947 . S
C396 C431 1.382 . S
C397 C396 1.384 . S
C397 C398 1.378 . S
C398 C397 1.378 . S
C398 C399 1.378 . S
C398 H410 0.952 . S
C399 C398 1.378 . S
C399 H411 0.950 . S
C399 C430 1.383 . S
H400 C419 0.947 . S
H401 C420 0.946 . S
H402 C422 0.953 . S
H403 C423 0.945 . S
H404 C425 0.952 . S
H405 C426 0.949 . S
H406 C428 0.950 . S
H407 C429 0.948 . S
H408 C431 0.951 . S
H409 C396 0.947 . S
H410 C398 0.952 . S
H411 C399 0.950 . S
N412 C415 1.382 . S
N412 C417 1.363 . S
N413 C415 1.371 . S
N413 C416 1.372 . S
N414 C416 1.361 . S
N414 C417 1.377 . S
C415 N412 1.382 . S
C415 N413 1.371 . S
C415 C418 1.480 . S
C416 N413 1.372 . S
C416 N414 1.361 . S
C416 C424 1.457 . S
C417 N412 1.363 . S
C417 N414 1.377 . S
C417 C430 1.479 . S
C418 C415 1.480 . S
C418 C419 1.383 . S
C418 C423 1.385 . S
C419 H400 0.947 . S
C419 C418 1.383 . S
C419 C420 1.388 . S
C420 H401 0.946 . S
C420 C419 1.388 . S
C420 C421 1.384 . S
C421 C420 1.384 . S
C421 C422 1.377 . S
C422 H402 0.953 . S
C422 C421 1.377 . S
C422 C423 1.369 . S
C423 H403 0.945 . S
C423 C418 1.385 . S
C423 C422 1.369 . S
C424 C416 1.457 . S
C424 C425 1.372 . S
C424 C429 1.364 . S
C425 H404 0.952 . S
C425 C424 1.372 . S
C425 C426 1.389 . S
C426 H405 0.949 . S
C426 C425 1.389 . S
C426 C427 1.387 . S
C427 C426 1.387 . S
C427 C428 1.372 . S
C428 H406 0.950 . S
C428 C427 1.372 . S
C428 C429 1.379 . S
C429 H407 0.948 . S
C429 C424 1.364 . S
C429 C428 1.379 . S
C430 C399 1.383 . S
C430 C417 1.479 . S
C430 C431 1.398 . S
C431 C396 1.382 . S
C431 H408 0.951 . S
C431 C430 1.398 . S
C432 C433 1.384 . S
C432 H445 0.947 . S
C432 C467 1.382 . S
C433 C432 1.384 . S
C433 C434 1.378 . S
C434 C433 1.378 . S
C434 C435 1.378 . S
C434 H446 0.952 . S
C435 C434 1.378 . S
C435 H447 0.950 . S
C435 C466 1.383 . S
H436 C455 0.947 . S
H437 C456 0.946 . S
H438 C458 0.953 . S
H439 C459 0.945 . S
H440 C461 0.952 . S
H441 C462 0.949 . S
H442 C464 0.950 . S
H443 C465 0.948 . S
H444 C467 0.951 . S
H445 C432 0.947 . S
H446 C434 0.952 . S
H447 C435 0.950 . S
N448 C451 1.382 . S
N448 C453 1.363 . S
N449 C451 1.371 . S
N449 C452 1.372 . S
N450 C452 1.361 . S
N450 C453 1.377 . S
C451 N448 1.382 . S
C451 N449 1.371 . S
C451 C454 1.480 . S
C452 N449 1.372 . S
C452 N450 1.361 . S
C452 C460 1.457 . S
C453 N448 1.363 . S
C453 N450 1.377 . S
C453 C466 1.479 . S
C454 C451 1.480 . S
C454 C455 1.383 . S
C454 C459 1.385 . S
C455 H436 0.947 . S
C455 C454 1.383 . S
C455 C456 1.388 . S
C456 H437 0.946 . S
C456 C455 1.388 . S
C456 C457 1.384 . S
C457 C456 1.384 . S
C457 C458 1.377 . S
C458 H438 0.953 . S
C458 C457 1.377 . S
C458 C459 1.369 . S
C459 H439 0.945 . S
C459 C454 1.385 . S
C459 C458 1.369 . S
C460 C452 1.457 . S
C460 C461 1.372 . S
C460 C465 1.364 . S
C461 H440 0.952 . S
C461 C460 1.372 . S
C461 C462 1.389 . S
C462 H441 0.949 . S
C462 C461 1.389 . S
C462 C463 1.387 . S
C463 C462 1.387 . S
C463 C464 1.372 . S
C464 H442 0.950 . S
C464 C463 1.372 . S
C464 C465 1.379 . S
C465 H443 0.948 . S
C465 C460 1.364 . S
C465 C464 1.379 . S
C466 C435 1.383 . S
C466 C453 1.479 . S
C466 C467 1.398 . S
C467 C432 1.382 . S
C467 H444 0.951 . S
C467 C466 1.398 . S
C468 C469 1.384 . S
C468 H481 0.947 . S
C468 C503 1.382 . S
C469 C468 1.384 . S
C469 C470 1.378 . S
C470 C469 1.378 . S
C470 C471 1.378 1_554 S
C470 H482 0.952 . S
C471 C470 1.378 1_556 S
C471 H483 0.950 . S
C471 C502 1.383 . S
H472 C491 0.947 . S
H473 C492 0.946 . S
H474 C494 0.953 . S
H475 C495 0.945 . S
H476 C497 0.952 . S
H477 C498 0.949 . S
H478 C500 0.950 1_554 S
H479 C501 0.946 . S
H480 C503 0.951 . S
H481 C468 0.947 . S
H482 C470 0.952 . S
H483 C471 0.950 . S
N484 C487 1.382 . S
N484 C489 1.363 . S
N485 C487 1.371 . S
N485 C488 1.372 . S
N486 C488 1.361 . S
N486 C489 1.377 . S
C487 N484 1.382 . S
C487 N485 1.371 . S
C487 C490 1.480 . S
C488 N485 1.372 . S
C488 N486 1.361 . S
C488 C496 1.457 . S
C489 N484 1.363 . S
C489 N486 1.377 . S
C489 C502 1.479 . S
C490 C487 1.480 . S
C490 C491 1.383 . S
C490 C495 1.385 . S
C491 H472 0.947 . S
C491 C490 1.383 . S
C491 C492 1.388 . S
C492 H473 0.946 . S
C492 C491 1.388 . S
C492 C493 1.384 . S
C493 C492 1.384 . S
C493 C494 1.377 . S
C494 H474 0.953 . S
C494 C493 1.377 . S
C494 C495 1.369 . S
C495 H475 0.945 . S
C495 C490 1.385 . S
C495 C494 1.369 . S
C496 C488 1.457 . S
C496 C497 1.372 . S
C496 C501 1.364 . S
C497 H476 0.952 . S
C497 C496 1.372 . S
C497 C498 1.389 . S
C498 H477 0.949 . S
C498 C497 1.389 . S
C498 C499 1.387 . S
C499 C498 1.387 . S
C499 C500 1.372 . S
C500 H478 0.950 1_556 S
C500 C499 1.372 . S
C500 C501 1.379 . S
C501 H479 0.946 . S
C501 C496 1.364 . S
C501 C500 1.379 . S
C502 C471 1.383 . S
C502 C489 1.479 . S
C502 C503 1.398 1_556 S
C503 C468 1.382 . S
C503 H480 0.951 . S
C503 C502 1.398 1_554 S
C504 C505 1.384 . S
C504 H517 0.947 . S
C504 C539 1.382 . S
C505 C504 1.384 . S
C505 C506 1.378 . S
C506 C505 1.378 . S
C506 C507 1.378 . S
C506 H518 0.952 . S
C507 C506 1.378 . S
C507 H519 0.950 . S
C507 C538 1.383 . S
H508 C527 0.947 . S
H509 C528 0.946 . S
H510 C530 0.953 . S
H511 C531 0.945 . S
H512 C533 0.952 . S
H513 C534 0.949 . S
H514 C536 0.950 . S
H515 C537 0.948 . S
H516 C539 0.951 . S
H517 C504 0.947 . S
H518 C506 0.952 . S
H519 C507 0.950 . S
N520 C523 1.382 . S
N520 C525 1.363 . S
N521 C523 1.371 . S
N521 C524 1.372 . S
N522 C524 1.361 . S
N522 C525 1.377 . S
C523 N520 1.382 . S
C523 N521 1.371 . S
C523 C526 1.480 . S
C524 N521 1.372 . S
C524 N522 1.361 . S
C524 C532 1.457 . S
C525 N520 1.363 . S
C525 N522 1.377 . S
C525 C538 1.479 . S
C526 C523 1.480 . S
C526 C527 1.383 . S
C526 C531 1.385 . S
C527 H508 0.947 . S
C527 C526 1.383 . S
C527 C528 1.388 . S
C528 H509 0.946 . S
C528 C527 1.388 . S
C528 C529 1.384 . S
C529 C528 1.384 . S
C529 C530 1.377 . S
C530 H510 0.953 . S
C530 C529 1.377 . S
C530 C531 1.369 . S
C531 H511 0.945 . S
C531 C526 1.385 . S
C531 C530 1.369 . S
C532 C524 1.457 . S
C532 C533 1.372 . S
C532 C537 1.364 . S
C533 H512 0.952 . S
C533 C532 1.372 . S
C533 C534 1.389 . S
C534 H513 0.949 . S
C534 C533 1.389 . S
C534 C535 1.387 . S
C535 C534 1.387 . S
C535 C536 1.372 . S
C536 H514 0.950 . S
C536 C535 1.372 . S
C536 C537 1.379 . S
C537 H515 0.948 . S
C537 C532 1.364 . S
C537 C536 1.379 . S
C538 C507 1.383 . S
C538 C525 1.479 . S
C538 C539 1.398 . S
C539 C504 1.382 . S
C539 H516 0.951 . S
C539 C538 1.398 . S
C540 C541 1.384 . S
C540 H553 0.947 . S
C540 C575 1.382 . S
C541 C540 1.384 . S
C541 C542 1.378 . S
C542 C541 1.378 . S
C542 C543 1.378 . S
C542 H554 0.952 . S
C543 C542 1.378 . S
C543 H555 0.950 . S
C543 C574 1.383 . S
H544 C563 0.947 . S
H545 C564 0.946 . S
H546 C566 0.953 . S
H547 C567 0.945 . S
H548 C569 0.952 1_565 S
H549 C570 0.949 1_565 S
H550 C572 0.950 . S
H551 C573 0.948 . S
H552 C575 0.951 1_556 S
H553 C540 0.947 . S
H554 C542 0.952 . S
H555 C543 0.950 . S
N556 C559 1.382 . S
N556 C561 1.363 . S
N557 C559 1.371 . S
N557 C560 1.372 . S
N558 C560 1.361 . S
N558 C561 1.377 . S
C559 N556 1.382 . S
C559 N557 1.371 . S
C559 C562 1.462 1_545 S
C560 N557 1.372 . S
C560 N558 1.361 . S
C560 C568 1.457 . S
C561 N556 1.363 . S
C561 N558 1.377 . S
C561 C574 1.479 1_556 S
C562 C559 1.462 1_565 S
C562 C563 1.377 1_566 S
C562 C567 1.410 . S
C563 H544 0.947 . S
C563 C562 1.377 1_544 S
C563 C564 1.388 1_545 S
C564 H545 0.946 . S
C564 C563 1.388 1_565 S
C564 C565 1.384 1_554 S
C565 C564 1.384 1_556 S
C565 C566 1.377 . S
C566 H546 0.953 . S
C566 C565 1.377 . S
C566 C567 1.369 . S
C567 H547 0.945 . S
C567 C562 1.410 . S
C567 C566 1.369 . S
C568 C560 1.457 . S
C568 C569 1.372 . S
C568 C573 1.364 . S
C569 H548 0.952 1_545 S
C569 C568 1.372 . S
C569 C570 1.389 . S
C570 H549 0.949 1_545 S
C570 C569 1.389 . S
C570 C571 1.387 . S
C571 C570 1.387 . S
C571 C572 1.372 . S
C572 H550 0.950 . S
C572 C571 1.372 . S
C572 C573 1.379 . S
C573 H551 0.948 . S
C573 C568 1.364 . S
C573 C572 1.379 . S
C574 C543 1.383 . S
C574 C561 1.479 1_554 S
C574 C575 1.398 . S
C575 C540 1.382 . S
C575 H552 0.951 1_554 S
C575 C574 1.398 . S
Mn576 O581 2.095 . S
Mn576 O591 2.162 . S
Mn576 O592 2.297 . S
Mn576 O600 2.385 1_554 S
Mn576 O601 2.209 1_554 S
Mn576 O602 2.094 . S
Mn577 O582 2.121 . S
Mn577 N584 2.257 . S
Mn577 N593 2.282 . S
Mn577 O601 2.215 . S
Mn577 O603 2.117 . S
C578 O600 1.234 . S
C578 O601 1.283 . S
C579 O591 1.281 . S
C579 O592 1.236 . S
C580 O602 1.240 . S
C580 O603 1.264 1_554 S
O581 Mn576 2.095 . S
O581 C590 1.270 . S
O582 Mn577 2.121 . S
O582 C590 1.232 1_556 S
C583 N584 1.326 . S
C583 C587 1.460 . S
C583 H589 0.929 . S
N584 Mn577 2.257 . S
N584 C583 1.326 . S
N584 C588 1.362 . S
C585 C586 1.258 . S
C585 C588 1.431 . S
C585 C605 1.449 . S
C586 C585 1.258 . S
C586 C587 1.477 . S
C586 H606 0.931 . S
C587 C583 1.460 . S
C587 C586 1.477 . S
C587 H607 0.930 . S
C588 N584 1.362 . S
C588 C585 1.431 . S
C588 C598 1.476 . S
H589 C583 0.929 . S
C590 O581 1.270 . S
C590 O582 1.232 1_554 S
O591 Mn576 2.162 . S
O591 C579 1.281 . S
O592 Mn576 2.297 . S
O592 C579 1.236 . S
N593 Mn577 2.282 . S
N593 C594 1.328 . S
N593 C598 1.318 . S
C594 N593 1.328 . S
C594 C595 1.457 . S
C594 H599 0.929 . S
C595 C594 1.457 . S
C595 C596 1.291 . S
C595 H608 0.931 . S
C596 C595 1.291 . S
C596 C597 1.373 . S
C596 H609 0.929 . S
C597 C596 1.373 . S
C597 C598 1.396 . S
C597 C604 1.403 . S
C598 C588 1.476 . S
C598 N593 1.318 . S
C598 C597 1.396 . S
H599 C594 0.929 . S
O600 Mn576 2.385 1_556 S
O600 C578 1.234 . S
O601 Mn576 2.209 1_556 S
O601 Mn577 2.215 . S
O601 C578 1.283 . S
O602 Mn576 2.094 . S
O602 C580 1.240 . S
O603 Mn577 2.117 . S
O603 C580 1.264 1_556 S
C604 C597 1.403 . S
C604 C605 1.399 . S
C604 H610 0.929 . S
C605 C585 1.449 . S
C605 C604 1.399 . S
C605 H611 0.930 . S
H606 C586 0.931 . S
H607 C587 0.930 . S
H608 C595 0.931 . S
H609 C596 0.929 . S
H610 C604 0.929 . S
H611 C605 0.930 . S
Mn612 O617 2.095 . S
Mn612 O627 2.162 . S
Mn612 O628 2.297 . S
Mn612 O636 2.385 . S
Mn612 O637 2.209 . S
Mn612 O638 2.094 . S
Mn613 O618 2.121 . S
Mn613 N620 2.257 . S
Mn613 N629 2.282 . S
Mn613 O637 2.215 . S
Mn613 O639 2.117 . S
C614 O636 1.234 . S
C614 O637 1.283 . S
C615 O627 1.281 . S
C615 O628 1.236 . S
C616 O638 1.240 . S
C616 O639 1.264 . S
O617 Mn612 2.095 . S
O617 C626 1.250 . S
O618 Mn613 2.121 . S
O618 C626 1.258 . S
C619 N620 1.326 . S
C619 C623 1.460 . S
C619 H625 0.929 . S
N620 Mn613 2.257 . S
N620 C619 1.326 . S
N620 C624 1.362 . S
C621 C622 1.258 . S
C621 C624 1.431 . S
C621 C641 1.449 . S
C622 C621 1.258 . S
C622 C623 1.477 . S
C622 H642 0.931 . S
C623 C619 1.460 . S
C623 C622 1.477 . S
C623 H643 0.930 . S
C624 N620 1.362 . S
C624 C621 1.431 . S
C624 C634 1.476 . S
H625 C619 0.929 . S
C626 O617 1.250 . S
C626 O618 1.258 . S
O627 Mn612 2.162 . S
O627 C615 1.281 . S
O628 Mn612 2.297 . S
O628 C615 1.236 . S
N629 Mn613 2.282 . S
N629 C630 1.328 . S
N629 C634 1.318 . S
C630 N629 1.328 . S
C630 C631 1.457 . S
C630 H635 0.929 . S
C631 C630 1.457 . S
C631 C632 1.291 . S
C631 H644 0.931 . S
C632 C631 1.291 . S
C632 C633 1.373 . S
C632 H645 0.929 . S
C633 C632 1.373 . S
C633 C634 1.396 . S
C633 C640 1.403 . S
C634 C624 1.476 . S
C634 N629 1.318 . S
C634 C633 1.396 . S
H635 C630 0.929 . S
O636 Mn612 2.385 . S
O636 C614 1.234 . S
O637 Mn612 2.209 . S
O637 Mn613 2.215 . S
O637 C614 1.283 . S
O638 Mn612 2.094 . S
O638 C616 1.240 . S
O639 Mn613 2.117 . S
O639 C616 1.264 . S
C640 C633 1.403 . S
C640 C641 1.399 . S
C640 H646 0.929 . S
C641 C621 1.449 . S
C641 C640 1.399 . S
C641 H647 0.930 . S
H642 C622 0.931 . S
H643 C623 0.930 . S
H644 C631 0.931 . S
H645 C632 0.929 . S
H646 C640 0.929 . S
H647 C641 0.930 . S
Mn648 O653 2.095 1_554 S
Mn648 O663 2.162 . S
Mn648 O664 2.297 1_554 S
Mn648 O672 2.385 . S
Mn648 O673 2.209 1_554 S
Mn648 O674 2.094 . S
Mn649 O654 2.121 . S
Mn649 N656 2.257 . S
Mn649 N665 2.282 . S
Mn649 O673 2.215 . S
Mn649 O675 2.117 1_556 S
C650 O672 1.223 1_556 S
C650 O673 1.290 . S
C651 O663 1.281 . S
C651 O664 1.236 1_554 S
C652 O674 1.240 . S
C652 O675 1.264 . S
O653 Mn648 2.095 1_556 S
O653 C662 1.250 . S
O654 Mn649 2.121 . S
O654 C662 1.258 . S
C655 N656 1.326 . S
C655 C659 1.460 . S
C655 H661 0.929 . S
N656 Mn649 2.257 . S
N656 C655 1.326 . S
N656 C660 1.362 . S
C657 C658 1.258 . S
C657 C660 1.431 . S
C657 C677 1.449 . S
C658 C657 1.258 . S
C658 C659 1.477 . S
C658 H678 0.931 . S
C659 C655 1.460 . S
C659 C658 1.477 . S
C659 H679 0.930 . S
C660 N656 1.362 . S
C660 C657 1.431 . S
C660 C670 1.476 . S
H661 C655 0.929 . S
C662 O653 1.250 . S
C662 O654 1.258 . S
O663 Mn648 2.162 . S
O663 C651 1.281 . S
O664 Mn648 2.297 1_556 S
O664 C651 1.236 1_556 S
N665 Mn649 2.282 . S
N665 C666 1.328 1_556 S
N665 C670 1.318 . S
C666 N665 1.328 1_554 S
C666 C667 1.457 . S
C666 H671 0.929 . S
C667 C666 1.457 . S
C667 C668 1.291 . S
C667 H680 0.931 . S
C668 C667 1.291 . S
C668 C669 1.373 1_554 S
C668 H681 0.929 . S
C669 C668 1.373 1_556 S
C669 C670 1.396 . S
C669 C676 1.403 . S
C670 C660 1.476 . S
C670 N665 1.318 . S
C670 C669 1.396 . S
H671 C666 0.929 . S
O672 Mn648 2.385 . S
O672 C650 1.223 1_554 S
O673 Mn648 2.209 1_556 S
O673 Mn649 2.215 . S
O673 C650 1.290 . S
O674 Mn648 2.094 . S
O674 C652 1.240 . S
O675 Mn649 2.117 1_554 S
O675 C652 1.264 . S
C676 C669 1.403 . S
C676 C677 1.399 . S
C676 H682 0.929 . S
C677 C657 1.449 . S
C677 C676 1.399 . S
C677 H683 0.930 . S
H678 C658 0.931 . S
H679 C659 0.930 . S
H680 C667 0.931 . S
H681 C668 0.929 . S
H682 C676 0.929 . S
H683 C677 0.930 . S
Mn684 O689 2.095 . S
Mn684 O699 2.162 . S
Mn684 O700 2.297 . S
Mn684 O708 2.385 1_545 S
Mn684 O709 2.209 1_545 S
Mn684 O710 2.094 . S
Mn685 O690 2.121 . S
Mn685 N692 2.257 . S
Mn685 N701 2.282 . S
Mn685 O709 2.215 . S
Mn685 O711 2.117 . S
C686 O708 1.234 . S
C686 O709 1.283 . S
C687 O699 1.281 . S
C687 O700 1.236 . S
C688 O710 1.240 . S
C688 O711 1.264 1_545 S
O689 Mn684 2.095 . S
O689 C698 1.250 1_545 S
O690 Mn685 2.121 . S
O690 C698 1.258 . S
C691 N692 1.326 . S
C691 C695 1.460 . S
C691 H697 0.929 . S
N692 Mn685 2.257 . S
N692 C691 1.326 . S
N692 C696 1.362 . S
C693 C694 1.258 . S
C693 C696 1.431 . S
C693 C713 1.449 . S
C694 C693 1.258 . S
C694 C695 1.477 . S
C694 H714 0.931 . S
C695 C691 1.460 . S
C695 C694 1.477 . S
C695 H715 0.930 . S
C696 N692 1.362 . S
C696 C693 1.431 . S
C696 C706 1.476 . S
H697 C691 0.929 . S
C698 O689 1.250 1_565 S
C698 O690 1.258 . S
O699 Mn684 2.162 . S
O699 C687 1.281 . S
O700 Mn684 2.297 . S
O700 C687 1.236 . S
N701 Mn685 2.282 . S
N701 C702 1.328 . S
N701 C706 1.318 . S
C702 N701 1.328 . S
C702 C703 1.457 . S
C702 H707 0.929 . S
C703 C702 1.457 . S
C703 C704 1.291 . S
C703 H716 0.931 . S
C704 C703 1.291 . S
C704 C705 1.373 . S
C704 H717 0.929 . S
C705 C704 1.373 . S
C705 C706 1.396 . S
C705 C712 1.403 . S
C706 C696 1.476 . S
C706 N701 1.318 . S
C706 C705 1.396 . S
H707 C702 0.929 . S
O708 Mn684 2.385 1_565 S
O708 C686 1.234 . S
O709 Mn684 2.209 1_565 S
O709 Mn685 2.215 . S
O709 C686 1.283 . S
O710 Mn684 2.094 . S
O710 C688 1.240 . S
O711 Mn685 2.117 . S
O711 C688 1.264 1_565 S
C712 C705 1.403 . S
C712 C713 1.399 . S
C712 H718 0.929 . S
C713 C693 1.449 . S
C713 C712 1.399 . S
C713 H719 0.930 . S
H714 C694 0.931 . S
H715 C695 0.930 . S
H716 C703 0.931 . S
H717 C704 0.929 . S
H718 C712 0.929 . S
H719 C713 0.930 . S
Mn720 O725 2.095 . S
Mn720 O735 2.162 . S
Mn720 O736 2.297 . S
Mn720 O744 2.385 . S
Mn720 O745 2.209 . S
Mn720 O746 2.094 . S
Mn721 O726 2.121 . S
Mn721 N728 2.257 . S
Mn721 N737 2.282 . S
Mn721 O745 2.215 . S
Mn721 O747 2.117 . S
C722 O744 1.234 . S
C722 O745 1.283 . S
C723 O735 1.281 . S
C723 O736 1.236 . S
C724 O746 1.240 . S
C724 O747 1.264 . S
O725 Mn720 2.095 . S
O725 C734 1.250 . S
O726 Mn721 2.121 . S
O726 C734 1.258 . S
C727 N728 1.326 . S
C727 C731 1.460 . S
C727 H733 0.929 . S
N728 Mn721 2.257 . S
N728 C727 1.326 . S
N728 C732 1.362 . S
C729 C730 1.258 . S
C729 C732 1.431 . S
C729 C749 1.449 . S
C730 C729 1.258 . S
C730 C731 1.477 . S
C730 H750 0.931 . S
C731 C727 1.460 . S
C731 C730 1.477 . S
C731 H751 0.930 . S
C732 N728 1.362 . S
C732 C729 1.431 . S
C732 C742 1.476 . S
H733 C727 0.929 . S
C734 O725 1.250 . S
C734 O726 1.258 . S
O735 Mn720 2.162 . S
O735 C723 1.281 . S
O736 Mn720 2.297 . S
O736 C723 1.236 . S
N737 Mn721 2.282 . S
N737 C738 1.328 . S
N737 C742 1.318 . S
C738 N737 1.328 . S
C738 C739 1.457 . S
C738 H743 0.929 . S
C739 C738 1.457 . S
C739 C740 1.291 . S
C739 H752 0.931 . S
C740 C739 1.291 . S
C740 C741 1.373 . S
C740 H753 0.929 . S
C741 C740 1.373 . S
C741 C742 1.396 . S
C741 C748 1.403 . S
C742 C732 1.476 . S
C742 N737 1.318 . S
C742 C741 1.396 . S
H743 C738 0.929 . S
O744 Mn720 2.385 . S
O744 C722 1.234 . S
O745 Mn720 2.209 . S
O745 Mn721 2.215 . S
O745 C722 1.283 . S
O746 Mn720 2.094 . S
O746 C724 1.240 . S
O747 Mn721 2.117 . S
O747 C724 1.264 . S
C748 C741 1.403 . S
C748 C749 1.399 . S
C748 H754 0.929 . S
C749 C729 1.449 . S
C749 C748 1.399 . S
C749 H755 0.930 . S
H750 C730 0.931 . S
H751 C731 0.930 . S
H752 C739 0.931 . S
H753 C740 0.929 . S
H754 C748 0.929 . S
H755 C749 0.930 . S
Mn756 O761 2.095 . S
Mn756 O771 2.162 . S
Mn756 O772 2.297 . S
Mn756 O780 2.385 . S
Mn756 O781 2.209 . S
Mn756 O782 2.094 . S
Mn757 O762 2.121 . S
Mn757 N764 2.257 . S
Mn757 N773 2.282 . S
Mn757 O781 2.215 . S
Mn757 O783 2.117 . S
C758 O780 1.234 . S
C758 O781 1.283 . S
C759 O771 1.281 . S
C759 O772 1.236 . S
C760 O782 1.240 . S
C760 O783 1.264 . S
O761 Mn756 2.095 . S
O761 C770 1.250 . S
O762 Mn757 2.121 . S
O762 C770 1.258 . S
C763 N764 1.326 . S
C763 C767 1.460 . S
C763 H769 0.929 . S
N764 Mn757 2.257 . S
N764 C763 1.326 . S
N764 C768 1.362 . S
C765 C766 1.258 . S
C765 C768 1.431 . S
C765 C785 1.449 . S
C766 C765 1.258 . S
C766 C767 1.477 . S
C766 H786 0.931 . S
C767 C763 1.460 . S
C767 C766 1.477 . S
C767 H787 0.930 . S
C768 N764 1.362 . S
C768 C765 1.431 . S
C768 C778 1.476 . S
H769 C763 0.929 . S
C770 O761 1.250 . S
C770 O762 1.258 . S
O771 Mn756 2.162 . S
O771 C759 1.281 . S
O772 Mn756 2.297 . S
O772 C759 1.236 . S
N773 Mn757 2.282 . S
N773 C774 1.328 . S
N773 C778 1.318 . S
C774 N773 1.328 . S
C774 C775 1.457 . S
C774 H779 0.929 . S
C775 C774 1.457 . S
C775 C776 1.291 . S
C775 H788 0.931 . S
C776 C775 1.291 . S
C776 C777 1.373 . S
C776 H789 0.929 . S
C777 C776 1.373 . S
C777 C778 1.396 . S
C777 C784 1.403 . S
C778 C768 1.476 . S
C778 N773 1.318 . S
C778 C777 1.396 . S
H779 C774 0.929 . S
O780 Mn756 2.385 . S
O780 C758 1.234 . S
O781 Mn756 2.209 . S
O781 Mn757 2.215 . S
O781 C758 1.283 . S
O782 Mn756 2.094 . S
O782 C760 1.240 . S
O783 Mn757 2.117 . S
O783 C760 1.264 . S
C784 C777 1.403 . S
C784 C785 1.399 . S
C784 H790 0.929 . S
C785 C765 1.449 . S
C785 C784 1.399 . S
C785 H791 0.930 . S
H786 C766 0.931 . S
H787 C767 0.930 . S
H788 C775 0.931 . S
H789 C776 0.929 . S
H790 C784 0.929 . S
H791 C785 0.930 . S
Mn792 O797 2.095 . S
Mn792 O807 2.162 . S
Mn792 O808 2.297 . S
Mn792 O816 2.385 . S
Mn792 O817 2.209 . S
Mn792 O818 2.094 . S
Mn793 O798 2.121 . S
Mn793 N800 2.257 . S
Mn793 N809 2.282 . S
Mn793 O817 2.215 . S
Mn793 O819 2.117 . S
C794 O816 1.234 . S
C794 O817 1.283 . S
C795 O807 1.281 . S
C795 O808 1.236 . S
C796 O818 1.240 . S
C796 O819 1.264 . S
O797 Mn792 2.095 . S
O797 C806 1.250 . S
O798 Mn793 2.121 . S
O798 C806 1.258 . S
C799 N800 1.326 . S
C799 C803 1.460 . S
C799 H805 0.929 . S
N800 Mn793 2.257 . S
N800 C799 1.326 . S
N800 C804 1.362 . S
C801 C802 1.258 . S
C801 C804 1.431 . S
C801 C821 1.449 . S
C802 C801 1.258 . S
C802 C803 1.477 . S
C802 H822 0.931 . S
C803 C799 1.460 . S
C803 C802 1.477 . S
C803 H823 0.930 . S
C804 N800 1.362 . S
C804 C801 1.431 . S
C804 C814 1.476 . S
H805 C799 0.929 . S
C806 O797 1.250 . S
C806 O798 1.258 . S
O807 Mn792 2.162 . S
O807 C795 1.281 . S
O808 Mn792 2.297 . S
O808 C795 1.236 . S
N809 Mn793 2.282 . S
N809 C810 1.328 . S
N809 C814 1.318 . S
C810 N809 1.328 . S
C810 C811 1.457 . S
C810 H815 0.929 . S
C811 C810 1.457 . S
C811 C812 1.291 . S
C811 H824 0.931 . S
C812 C811 1.291 . S
C812 C813 1.373 . S
C812 H825 0.929 . S
C813 C812 1.373 . S
C813 C814 1.396 . S
C813 C820 1.403 . S
C814 C804 1.476 . S
C814 N809 1.318 . S
C814 C813 1.396 . S
H815 C810 0.929 . S
O816 Mn792 2.385 . S
O816 C794 1.234 . S
O817 Mn792 2.209 . S
O817 Mn793 2.215 . S
O817 C794 1.283 . S
O818 Mn792 2.094 . S
O818 C796 1.240 . S
O819 Mn793 2.117 . S
O819 C796 1.264 . S
C820 C813 1.403 . S
C820 C821 1.399 . S
C820 H826 0.929 . S
C821 C801 1.449 . S
C821 C820 1.399 . S
C821 H827 0.930 . S
H822 C802 0.931 . S
H823 C803 0.930 . S
H824 C811 0.931 . S
H825 C812 0.929 . S
H826 C820 0.929 . S
H827 C821 0.930 . S
Mn828 O833 2.095 . S
Mn828 O843 2.162 . S
Mn828 O844 2.297 . S
Mn828 O852 2.385 1_565 S
Mn828 O853 2.209 1_565 S
Mn828 O854 2.094 . S
Mn829 O834 2.121 . S
Mn829 N836 2.257 . S
Mn829 N845 2.282 . S
Mn829 O853 2.215 . S
Mn829 O855 2.117 . S
C830 O852 1.234 . S
C830 O853 1.283 . S
C831 O843 1.281 . S
C831 O844 1.236 . S
C832 O854 1.219 1_545 S
C832 O855 1.291 . S
O833 Mn828 2.095 . S
O833 C842 1.250 1_565 S
O834 Mn829 2.121 . S
O834 C842 1.258 . S
C835 N836 1.326 . S
C835 C839 1.460 . S
C835 H841 0.929 . S
N836 Mn829 2.257 . S
N836 C835 1.326 . S
N836 C840 1.362 . S
C837 C838 1.258 . S
C837 C840 1.431 . S
C837 C857 1.449 . S
C838 C837 1.258 . S
C838 C839 1.477 . S
C838 H858 0.931 . S
C839 C835 1.460 . S
C839 C838 1.477 . S
C839 H859 0.930 . S
C840 N836 1.362 . S
C840 C837 1.431 . S
C840 C850 1.476 . S
H841 C835 0.929 . S
C842 O833 1.250 1_545 S
C842 O834 1.258 . S
O843 Mn828 2.162 . S
O843 C831 1.281 . S
O844 Mn828 2.297 . S
O844 C831 1.236 . S
N845 Mn829 2.282 . S
N845 C846 1.328 . S
N845 C850 1.318 . S
C846 N845 1.328 . S
C846 C847 1.457 . S
C846 H851 0.929 . S
C847 C846 1.457 . S
C847 C848 1.291 . S
C847 H860 0.931 . S
C848 C847 1.291 . S
C848 C849 1.373 . S
C848 H861 0.929 . S
C849 C848 1.373 . S
C849 C850 1.396 . S
C849 C856 1.403 . S
C850 C840 1.476 . S
C850 N845 1.318 . S
C850 C849 1.396 . S
H851 C846 0.929 . S
O852 Mn828 2.385 1_545 S
O852 C830 1.234 . S
O853 Mn828 2.209 1_545 S
O853 Mn829 2.215 . S
O853 C830 1.283 . S
O854 Mn828 2.094 . S
O854 C832 1.219 1_565 S
O855 Mn829 2.117 . S
O855 C832 1.291 . S
C856 C849 1.403 . S
C856 C857 1.399 . S
C856 H862 0.929 . S
C857 C837 1.449 . S
C857 C856 1.399 . S
C857 H863 0.930 . S
H858 C838 0.931 . S
H859 C839 0.930 . S
H860 C847 0.931 . S
H861 C848 0.929 . S
H862 C856 0.929 . S
H863 C857 0.930 . S
Mn864 O869 2.095 . S
Mn864 O879 2.162 . S
Mn864 O880 2.297 . S
Mn864 O888 2.385 1_455 S
Mn864 O889 2.209 1_455 S
Mn864 O890 2.094 . S
Mn865 O870 2.121 . S
Mn865 N872 2.257 . S
Mn865 N881 2.282 . S
Mn865 O889 2.215 . S
Mn865 O891 2.117 . S
C866 O888 1.234 . S
C866 O889 1.283 . S
C867 O879 1.281 . S
C867 O880 1.236 . S
C868 O890 1.240 . S
C868 O891 1.264 1_455 S
O869 Mn864 2.095 . S
O869 C878 1.250 1_455 S
O870 Mn865 2.121 . S
O870 C878 1.258 . S
C871 N872 1.326 . S
C871 C875 1.460 . S
C871 H877 0.929 . S
N872 Mn865 2.257 . S
N872 C871 1.326 . S
N872 C876 1.362 . S
C873 C874 1.258 . S
C873 C876 1.431 . S
C873 C893 1.449 . S
C874 C873 1.258 . S
C874 C875 1.477 . S
C874 H894 0.931 . S
C875 C871 1.460 . S
C875 C874 1.477 . S
C875 H895 0.930 . S
C876 N872 1.362 . S
C876 C873 1.431 . S
C876 C886 1.476 . S
H877 C871 0.929 . S
C878 O869 1.250 1_655 S
C878 O870 1.258 . S
O879 Mn864 2.162 . S
O879 C867 1.281 . S
O880 Mn864 2.297 . S
O880 C867 1.236 . S
N881 Mn865 2.282 . S
N881 C882 1.328 . S
N881 C886 1.318 . S
C882 N881 1.328 . S
C882 C883 1.457 . S
C882 H887 0.929 . S
C883 C882 1.457 . S
C883 C884 1.291 . S
C883 H896 0.931 . S
C884 C883 1.291 . S
C884 C885 1.373 . S
C884 H897 0.929 . S
C885 C884 1.373 . S
C885 C886 1.396 . S
C885 C892 1.403 . S
C886 C876 1.476 . S
C886 N881 1.318 . S
C886 C885 1.396 . S
H887 C882 0.929 . S
O888 Mn864 2.385 1_655 S
O888 C866 1.234 . S
O889 Mn864 2.209 1_655 S
O889 Mn865 2.215 . S
O889 C866 1.283 . S
O890 Mn864 2.094 . S
O890 C868 1.240 . S
O891 Mn865 2.117 . S
O891 C868 1.264 1_655 S
C892 C885 1.403 . S
C892 C893 1.399 . S
C892 H898 0.929 . S
C893 C873 1.449 . S
C893 C892 1.399 . S
C893 H899 0.930 . S
H894 C874 0.931 . S
H895 C875 0.930 . S
H896 C883 0.931 . S
H897 C884 0.929 . S
H898 C892 0.929 . S
H899 C893 0.930 . S
Mn900 O905 2.095 . S
Mn900 O915 2.162 . S
Mn900 O916 2.297 . S
Mn900 O924 2.385 . S
Mn900 O925 2.209 . S
Mn900 O926 2.094 . S
Mn901 O906 2.121 . S
Mn901 N908 2.257 . S
Mn901 N917 2.282 . S
Mn901 O925 2.215 . S
Mn901 O927 2.117 . S
C902 O924 1.234 . S
C902 O925 1.283 . S
C903 O915 1.281 . S
C903 O916 1.236 . S
C904 O926 1.240 . S
C904 O927 1.264 . S
O905 Mn900 2.095 . S
O905 C914 1.250 . S
O906 Mn901 2.121 . S
O906 C914 1.258 . S
C907 N908 1.326 . S
C907 C911 1.460 . S
C907 H913 0.929 . S
N908 Mn901 2.257 . S
N908 C907 1.326 . S
N908 C912 1.362 . S
C909 C910 1.258 . S
C909 C912 1.431 . S
C909 C929 1.449 . S
C910 C909 1.258 . S
C910 C911 1.477 . S
C910 H930 0.931 . S
C911 C907 1.460 . S
C911 C910 1.477 . S
C911 H931 0.930 . S
C912 N908 1.362 . S
C912 C909 1.431 . S
C912 C922 1.476 . S
H913 C907 0.929 . S
C914 O905 1.250 . S
C914 O906 1.258 . S
O915 Mn900 2.162 . S
O915 C903 1.281 . S
O916 Mn900 2.297 . S
O916 C903 1.236 . S
N917 Mn901 2.282 . S
N917 C918 1.328 . S
N917 C922 1.318 . S
C918 N917 1.328 . S
C918 C919 1.457 . S
C918 H923 0.929 . S
C919 C918 1.457 . S
C919 C920 1.291 . S
C919 H932 0.931 . S
C920 C919 1.291 . S
C920 C921 1.373 . S
C920 H933 0.929 . S
C921 C920 1.373 . S
C921 C922 1.396 . S
C921 C928 1.403 . S
C922 C912 1.476 . S
C922 N917 1.318 . S
C922 C921 1.396 . S
H923 C918 0.929 . S
O924 Mn900 2.385 . S
O924 C902 1.234 . S
O925 Mn900 2.209 . S
O925 Mn901 2.215 . S
O925 C902 1.283 . S
O926 Mn900 2.094 . S
O926 C904 1.240 . S
O927 Mn901 2.117 . S
O927 C904 1.264 . S
C928 C921 1.403 . S
C928 C929 1.399 . S
C928 H934 0.929 . S
C929 C909 1.449 . S
C929 C928 1.399 . S
C929 H935 0.930 . S
H930 C910 0.931 . S
H931 C911 0.930 . S
H932 C919 0.931 . S
H933 C920 0.929 . S
H934 C928 0.929 . S
H935 C929 0.930 . S
Mn936 O941 2.095 1_455 S
Mn936 O951 2.162 . S
Mn936 O952 2.297 1_455 S
Mn936 O960 2.385 . S
Mn936 O961 2.209 1_455 S
Mn936 O962 2.094 . S
Mn937 O942 2.121 . S
Mn937 N944 2.257 . S
Mn937 N953 2.282 1_655 S
Mn937 O961 2.215 . S
Mn937 O963 2.117 1_655 S
C938 O960 1.234 . S
C938 O961 1.283 1_455 S
C939 O951 1.281 . S
C939 O952 1.236 1_455 S
C940 O962 1.240 . S
C940 O963 1.264 . S
O941 Mn936 2.095 1_655 S
O941 C950 1.250 . S
O942 Mn937 2.121 . S
O942 C950 1.258 . S
C943 N944 1.326 . S
C943 C947 1.460 . S
C943 H949 0.929 . S
N944 Mn937 2.257 . S
N944 C943 1.326 . S
N944 C948 1.362 . S
C945 C946 1.258 . S
C945 C948 1.431 . S
C945 C965 1.449 . S
C946 C945 1.258 . S
C946 C947 1.477 . S
C946 H966 0.931 . S
C947 C943 1.460 . S
C947 C946 1.477 . S
C947 H967 0.930 . S
C948 N944 1.362 . S
C948 C945 1.431 . S
C948 C958 1.476 . S
H949 C943 0.929 . S
C950 O941 1.250 . S
C950 O942 1.258 . S
O951 Mn936 2.162 . S
O951 C939 1.281 . S
O952 Mn936 2.297 1_655 S
O952 C939 1.236 1_655 S
N953 Mn937 2.282 1_455 S
N953 C954 1.328 . S
N953 C958 1.318 1_455 S
C954 N953 1.328 . S
C954 C955 1.457 . S
C954 H959 0.929 . S
C955 C954 1.457 . S
C955 C956 1.291 . S
C955 H968 0.931 . S
C956 C955 1.291 . S
C956 C957 1.373 1_455 S
C956 H969 0.929 . S
C957 C956 1.373 1_655 S
C957 C958 1.396 . S
C957 C964 1.403 . S
C958 C948 1.476 . S
C958 N953 1.318 1_655 S
C958 C957 1.396 . S
H959 C954 0.929 . S
O960 Mn936 2.385 . S
O960 C938 1.234 . S
O961 Mn936 2.209 1_655 S
O961 Mn937 2.215 . S
O961 C938 1.283 1_655 S
O962 Mn936 2.094 . S
O962 C940 1.240 . S
O963 Mn937 2.117 1_455 S
O963 C940 1.264 . S
C964 C957 1.403 . S
C964 C965 1.399 . S
C964 H970 0.929 . S
C965 C945 1.449 . S
C965 C964 1.399 . S
C965 H971 0.930 . S
H966 C946 0.931 . S
H967 C947 0.930 . S
H968 C955 0.931 . S
H969 C956 0.929 . S
H970 C964 0.929 . S
H971 C965 0.930 . S
Mn972 O977 2.095 . S
Mn972 O987 2.162 . S
Mn972 O988 2.297 . S
Mn972 O996 2.385 . S
Mn972 O997 2.209 . S
Mn972 O998 2.094 . S
Mn973 O978 2.121 . S
Mn973 N980 2.257 . S
Mn973 N989 2.282 . S
Mn973 O997 2.215 . S
Mn973 O999 2.117 . S
C974 O996 1.234 . S
C974 O997 1.283 . S
C975 O987 1.281 . S
C975 O988 1.236 . S
C976 O998 1.240 . S
C976 O999 1.264 . S
O977 Mn972 2.095 . S
O977 C986 1.250 . S
O978 Mn973 2.121 . S
O978 C986 1.258 . S
C979 N980 1.326 . S
C979 C983 1.460 . S
C979 H985 0.929 . S
N980 Mn973 2.257 . S
N980 C979 1.326 . S
N980 C984 1.362 . S
C981 C982 1.258 . S
C981 C984 1.431 . S
C981 C1001 1.449 . S
C982 C981 1.258 . S
C982 C983 1.477 . S
C982 H1002 0.931 . S
C983 C979 1.460 . S
C983 C982 1.477 . S
C983 H1003 0.930 . S
C984 N980 1.362 . S
C984 C981 1.431 . S
C984 C994 1.476 . S
H985 C979 0.929 . S
C986 O977 1.250 . S
C986 O978 1.258 . S
O987 Mn972 2.162 . S
O987 C975 1.281 . S
O988 Mn972 2.297 . S
O988 C975 1.236 . S
N989 Mn973 2.282 . S
N989 C990 1.328 . S
N989 C994 1.318 . S
C990 N989 1.328 . S
C990 C991 1.457 . S
C990 H995 0.929 . S
C991 C990 1.457 . S
C991 C992 1.291 . S
C991 H1004 0.931 . S
C992 C991 1.291 . S
C992 C993 1.373 . S
C992 H1005 0.929 . S
C993 C992 1.373 . S
C993 C994 1.396 . S
C993 C1000 1.403 . S
C994 C984 1.476 . S
C994 N989 1.318 . S
C994 C993 1.396 . S
H995 C990 0.929 . S
O996 Mn972 2.385 . S
O996 C974 1.234 . S
O997 Mn972 2.209 . S
O997 Mn973 2.215 . S
O997 C974 1.283 . S
O998 Mn972 2.094 . S
O998 C976 1.240 . S
O999 Mn973 2.117 . S
O999 C976 1.264 . S
C1000 C993 1.403 . S
C1000 C1001 1.399 . S
C1000 H1006 0.929 . S
C1001 C981 1.449 . S
C1001 C1000 1.399 . S
C1001 H1007 0.930 . S
H1002 C982 0.931 . S
H1003 C983 0.930 . S
H1004 C991 0.931 . S
H1005 C992 0.929 . S
H1006 C1000 0.929 . S
H1007 C1001 0.930 . S
C1008 C1009 1.387 . S
C1008 H1012 0.950 . S
C1008 C1017 1.390 . S
C1009 C1008 1.387 . S
C1009 C1011 1.387 . S
H1010 C1017 0.950 . S
C1011 C1009 1.387 . S
C1011 C1013 1.390 . S
C1011 H1015 0.950 . S
H1012 C1008 0.950 . S
C1013 C1011 1.390 . S
C1013 C1014 1.387 . S
C1013 H1016 0.950 . S
C1014 C1013 1.387 . S
C1014 C1017 1.387 . S
H1015 C1011 0.950 . S
H1016 C1013 0.950 . S
C1017 C1008 1.390 . S
C1017 H1010 0.950 . S
C1017 C1014 1.387 . S
C1018 C1019 1.387 . S
C1018 H1022 0.950 . S
C1018 C1027 1.390 . S
C1019 C1018 1.387 . S
C1019 C1021 1.387 . S
H1020 C1027 0.950 . S
C1021 C1019 1.387 . S
C1021 C1023 1.390 . S
C1021 H1025 0.950 . S
H1022 C1018 0.950 . S
C1023 C1021 1.390 . S
C1023 C1024 1.387 . S
C1023 H1026 0.950 . S
C1024 C1023 1.387 . S
C1024 C1027 1.387 . S
H1025 C1021 0.950 . S
H1026 C1023 0.950 . S
C1027 C1018 1.390 . S
C1027 H1020 0.950 . S
C1027 C1024 1.387 . S
C1028 C1029 1.387 . S
C1028 H1032 0.950 . S
C1028 C1037 1.390 . S
C1029 C1028 1.387 . S
C1029 C1031 1.387 . S
H1030 C1037 0.950 . S
C1031 C1029 1.387 . S
C1031 C1033 1.390 . S
C1031 H1035 0.950 . S
H1032 C1028 0.950 . S
C1033 C1031 1.390 . S
C1033 C1034 1.387 . S
C1033 H1036 0.950 . S
C1034 C1033 1.387 . S
C1034 C1037 1.387 . S
H1035 C1031 0.950 . S
H1036 C1033 0.950 . S
C1037 C1028 1.390 . S
C1037 H1030 0.950 . S
C1037 C1034 1.387 . S
C1038 C1039 1.387 1_545 S
C1038 H1042 0.950 . S
C1038 C1047 1.390 . S
C1039 C1038 1.387 1_565 S
C1039 C1041 1.387 . S
H1040 C1047 0.950 . S
C1041 C1039 1.387 . S
C1041 C1043 1.390 . S
C1041 H1045 0.950 . S
H1042 C1038 0.950 . S
C1043 C1041 1.390 . S
C1043 C1044 1.406 . S
C1043 H1046 0.950 . S
C1044 C1043 1.406 . S
C1044 C1047 1.373 1_565 S
H1045 C1041 0.950 . S
H1046 C1043 0.950 . S
C1047 C1038 1.390 . S
C1047 H1040 0.950 . S
C1047 C1044 1.373 1_545 S
C1048 C1049 1.387 . S
C1048 H1052 0.950 . S
C1048 C1057 1.390 . S
C1049 C1048 1.387 . S
C1049 C1051 1.387 . S
H1050 C1057 0.950 . S
C1051 C1049 1.387 . S
C1051 C1053 1.390 . S
C1051 H1055 0.950 . S
H1052 C1048 0.950 . S
C1053 C1051 1.390 . S
C1053 C1054 1.387 . S
C1053 H1056 0.950 . S
C1054 C1053 1.387 . S
C1054 C1057 1.387 . S
H1055 C1051 0.950 . S
H1056 C1053 0.950 . S
C1057 C1048 1.390 . S
C1057 H1050 0.950 . S
C1057 C1054 1.387 . S
C1058 C1059 1.387 . S
C1058 H1062 0.950 . S
C1058 C1067 1.390 . S
C1059 C1058 1.387 . S
C1059 C1061 1.387 . S
H1060 C1067 0.950 . S
C1061 C1059 1.387 . S
C1061 C1063 1.390 . S
C1061 H1065 0.950 . S
H1062 C1058 0.950 . S
C1063 C1061 1.390 . S
C1063 C1064 1.387 . S
C1063 H1066 0.950 . S
C1064 C1063 1.387 . S
C1064 C1067 1.387 . S
H1065 C1061 0.950 . S
H1066 C1063 0.950 . S
C1067 C1058 1.390 . S
C1067 H1060 0.950 . S
C1067 C1064 1.387 . S
C1068 C1069 1.387 . S
C1068 H1072 0.950 . S
C1068 C1077 1.390 . S
C1069 C1068 1.387 . S
C1069 C1071 1.387 . S
H1070 C1077 0.950 . S
C1071 C1069 1.387 . S
C1071 C1073 1.390 . S
C1071 H1075 0.950 . S
H1072 C1068 0.950 . S
C1073 C1071 1.390 . S
C1073 C1074 1.387 . S
C1073 H1076 0.950 . S
C1074 C1073 1.387 . S
C1074 C1077 1.387 . S
H1075 C1071 0.950 . S
H1076 C1073 0.950 . S
C1077 C1068 1.390 . S
C1077 H1070 0.950 . S
C1077 C1074 1.387 . S
C1078 C1079 1.387 . S
C1078 H1082 0.950 . S
C1078 C1087 1.390 . S
C1079 C1078 1.387 . S
C1079 C1081 1.387 1_565 S
H1080 C1087 0.950 . S
C1081 C1079 1.387 1_545 S
C1081 C1083 1.390 . S
C1081 H1085 0.950 . S
H1082 C1078 0.950 . S
C1083 C1081 1.390 . S
C1083 C1084 1.387 1_545 S
C1083 H1086 0.950 . S
C1084 C1083 1.387 1_565 S
C1084 C1087 1.387 . S
H1085 C1081 0.950 . S
H1086 C1083 0.950 . S
C1087 C1078 1.390 . S
C1087 H1080 0.950 . S
C1087 C1084 1.387 . S
C1088 C1089 1.387 . S
C1088 H1092 0.950 . S
C1088 C1097 1.390 . S
C1089 C1088 1.387 . S
C1089 C1091 1.387 . S
H1090 C1097 0.950 . S
C1091 C1089 1.387 . S
C1091 C1093 1.390 . S
C1091 H1095 0.950 . S
H1092 C1088 0.950 . S
C1093 C1091 1.390 . S
C1093 C1094 1.387 . S
C1093 H1096 0.950 . S
C1094 C1093 1.387 . S
C1094 C1097 1.387 . S
H1095 C1091 0.950 . S
H1096 C1093 0.950 . S
C1097 C1088 1.390 . S
C1097 H1090 0.950 . S
C1097 C1094 1.387 . S
C1098 C1099 1.387 . S
C1098 H1102 0.950 . S
C1098 C1107 1.390 . S
C1099 C1098 1.387 . S
C1099 C1101 1.387 . S
H1100 C1107 0.950 . S
C1101 C1099 1.387 . S
C1101 C1103 1.390 . S
C1101 H1105 0.950 . S
H1102 C1098 0.950 . S
C1103 C1101 1.390 . S
C1103 C1104 1.387 . S
C1103 H1106 0.950 . S
C1104 C1103 1.387 . S
C1104 C1107 1.387 . S
H1105 C1101 0.950 . S
H1106 C1103 0.950 . S
C1107 C1098 1.390 . S
C1107 H1100 0.950 . S
C1107 C1104 1.387 . S
C1108 C1109 1.387 . S
C1108 H1112 0.950 . S
C1108 C1117 1.390 . S
C1109 C1108 1.387 . S
C1109 C1111 1.387 . S
H1110 C1117 0.950 . S
C1111 C1109 1.387 . S
C1111 C1113 1.390 . S
C1111 H1115 0.950 . S
H1112 C1108 0.950 . S
C1113 C1111 1.390 . S
C1113 C1114 1.387 . S
C1113 H1116 0.950 . S
C1114 C1113 1.387 . S
C1114 C1117 1.387 . S
H1115 C1111 0.950 . S
H1116 C1113 0.950 . S
C1117 C1108 1.390 . S
C1117 H1110 0.950 . S
C1117 C1114 1.387 . S
C1118 C1119 1.387 . S
C1118 H1122 0.950 . S
C1118 C1127 1.390 . S
C1119 C1118 1.387 . S
C1119 C1121 1.387 . S
H1120 C1127 0.950 . S
C1121 C1119 1.387 . S
C1121 C1123 1.390 . S
C1121 H1125 0.950 . S
H1122 C1118 0.950 . S
C1123 C1121 1.390 . S
C1123 C1124 1.387 . S
C1123 H1126 0.950 . S
C1124 C1123 1.387 . S
C1124 C1127 1.387 . S
H1125 C1121 0.950 . S
H1126 C1123 0.950 . S
C1127 C1118 1.390 . S
C1127 H1120 0.950 . S
C1127 C1124 1.387 . S
C1128 C1129 1.387 . S
C1128 H1132 0.950 . S
C1128 C1137 1.390 . S
C1129 C1128 1.387 . S
C1129 C1131 1.387 . S
H1130 C1137 0.950 . S
C1131 C1129 1.387 . S
C1131 C1133 1.390 . S
C1131 H1135 0.950 . S
H1132 C1128 0.950 . S
C1133 C1131 1.390 . S
C1133 C1134 1.387 . S
C1133 H1136 0.950 . S
C1134 C1133 1.387 . S
C1134 C1137 1.387 . S
H1135 C1131 0.950 . S
H1136 C1133 0.950 . S
C1137 C1128 1.390 . S
C1137 H1130 0.950 . S
C1137 C1134 1.387 . S
C1138 C1139 1.387 1_655 S
C1138 H1142 0.950 . S
C1138 C1147 1.390 . S
C1139 C1138 1.387 1_455 S
C1139 C1141 1.387 . S
H1140 C1147 0.950 . S
C1141 C1139 1.387 . S
C1141 C1143 1.390 . S
C1141 H1145 0.950 . S
H1142 C1138 0.950 . S
C1143 C1141 1.390 . S
C1143 C1144 1.387 . S
C1143 H1146 0.950 . S
C1144 C1143 1.387 . S
C1144 C1147 1.387 1_455 S
H1145 C1141 0.950 . S
H1146 C1143 0.950 . S
C1147 C1138 1.390 . S
C1147 H1140 0.950 . S
C1147 C1144 1.387 1_655 S
C1148 C1149 1.387 . S
C1148 H1152 0.950 . S
C1148 C1157 1.390 . S
C1149 C1148 1.387 . S
C1149 C1151 1.387 . S
H1150 C1157 0.950 . S
C1151 C1149 1.387 . S
C1151 C1153 1.390 . S
C1151 H1155 0.950 . S
H1152 C1148 0.950 . S
C1153 C1151 1.390 . S
C1153 C1154 1.387 . S
C1153 H1156 0.950 . S
C1154 C1153 1.387 . S
C1154 C1157 1.387 . S
H1155 C1151 0.950 . S
H1156 C1153 0.950 . S
C1157 C1148 1.390 . S
C1157 H1150 0.950 . S
C1157 C1154 1.387 . S
C1158 C1159 1.387 . S
C1158 H1162 0.950 . S
C1158 C1167 1.390 . S
C1159 C1158 1.387 . S
C1159 C1161 1.387 1_655 S
H1160 C1167 0.950 . S
C1161 C1159 1.387 1_455 S
C1161 C1163 1.390 . S
C1161 H1165 0.950 . S
H1162 C1158 0.950 . S
C1163 C1161 1.390 . S
C1163 C1164 1.405 . S
C1163 H1166 0.950 . S
C1164 C1163 1.405 . S
C1164 C1167 1.369 1_455 S
H1165 C1161 0.950 . S
H1166 C1163 0.950 . S
C1167 C1158 1.390 . S
C1167 H1160 0.950 . S
C1167 C1164 1.369 1_655 S
C1168 C1169 1.387 . S
C1168 H1172 0.950 . S
C1168 C1177 1.390 . S
C1169 C1168 1.387 . S
C1169 C1171 1.387 . S
H1170 C1177 0.950 . S
C1171 C1169 1.387 . S
C1171 C1173 1.390 . S
C1171 H1175 0.950 . S
H1172 C1168 0.950 . S
C1173 C1171 1.390 . S
C1173 C1174 1.387 . S
C1173 H1176 0.950 . S
C1174 C1173 1.387 . S
C1174 C1177 1.387 . S
H1175 C1171 0.950 . S
H1176 C1173 0.950 . S
C1177 C1168 1.390 . S
C1177 H1170 0.950 . S
C1177 C1174 1.387 . S
C1178 C1179 1.387 . S
C1178 H1182 0.950 . S
C1178 C1187 1.390 . S
C1179 C1178 1.387 . S
C1179 C1181 1.387 . S
H1180 C1187 0.950 . S
C1181 C1179 1.387 . S
C1181 C1183 1.390 . S
C1181 H1185 0.950 . S
H1182 C1178 0.950 . S
C1183 C1181 1.390 . S
C1183 C1184 1.387 . S
C1183 H1186 0.950 . S
C1184 C1183 1.387 . S
C1184 C1187 1.387 . S
H1185 C1181 0.950 . S
H1186 C1183 0.950 . S
C1187 C1178 1.390 . S
C1187 H1180 0.950 . S
C1187 C1184 1.387 . S
C1188 C1189 1.387 1_554 S
C1188 H1192 0.950 . S
C1188 C1197 1.390 . S
C1189 C1188 1.387 1_556 S
C1189 C1191 1.387 . S
H1190 C1197 0.950 . S
C1191 C1189 1.387 . S
C1191 C1193 1.390 . S
C1191 H1195 0.950 . S
H1192 C1188 0.950 . S
C1193 C1191 1.390 . S
C1193 C1194 1.387 1_556 S
C1193 H1196 0.950 . S
C1194 C1193 1.387 1_554 S
C1194 C1197 1.387 . S
H1195 C1191 0.950 . S
H1196 C1193 0.950 . S
C1197 C1188 1.390 . S
C1197 H1190 0.950 . S
C1197 C1194 1.387 . S
C1198 C1199 1.387 . S
C1198 H1202 0.950 . S
C1198 C1207 1.390 . S
C1199 C1198 1.387 . S
C1199 C1201 1.387 . S
H1200 C1207 0.950 . S
C1201 C1199 1.387 . S
C1201 C1203 1.390 . S
C1201 H1205 0.950 . S
H1202 C1198 0.950 . S
C1203 C1201 1.390 . S
C1203 C1204 1.387 . S
C1203 H1206 0.950 . S
C1204 C1203 1.387 . S
C1204 C1207 1.387 . S
H1205 C1201 0.950 . S
H1206 C1203 0.950 . S
C1207 C1198 1.390 . S
C1207 H1200 0.950 . S
C1207 C1204 1.387 . S
C1208 C1209 1.387 . S
C1208 H1212 0.950 . S
C1208 C1217 1.390 . S
C1209 C1208 1.387 . S
C1209 C1211 1.387 . S
H1210 C1217 0.950 . S
C1211 C1209 1.387 . S
C1211 C1213 1.390 . S
C1211 H1215 0.950 . S
H1212 C1208 0.950 . S
C1213 C1211 1.390 . S
C1213 C1214 1.387 . S
C1213 H1216 0.950 . S
C1214 C1213 1.387 . S
C1214 C1217 1.387 . S
H1215 C1211 0.950 . S
H1216 C1213 0.950 . S
C1217 C1208 1.390 . S
C1217 H1210 0.950 . S
C1217 C1214 1.387 . S
C1218 C1219 1.387 . S
C1218 H1222 0.950 . S
C1218 C1227 1.390 . S
C1219 C1218 1.387 . S
C1219 C1221 1.387 . S
H1220 C1227 0.950 . S
C1221 C1219 1.387 . S
C1221 C1223 1.390 . S
C1221 H1225 0.950 . S
H1222 C1218 0.950 . S
C1223 C1221 1.390 . S
C1223 C1224 1.387 . S
C1223 H1226 0.950 . S
C1224 C1223 1.387 . S
C1224 C1227 1.387 . S
H1225 C1221 0.950 . S
H1226 C1223 0.950 . S
C1227 C1218 1.390 . S
C1227 H1220 0.950 . S
C1227 C1224 1.387 . S
C1228 C1229 1.387 . S
C1228 H1232 0.950 . S
C1228 C1237 1.390 . S
C1229 C1228 1.387 . S
C1229 C1231 1.387 . S
H1230 C1237 0.950 . S
C1231 C1229 1.387 . S
C1231 C1233 1.390 . S
C1231 H1235 0.950 . S
H1232 C1228 0.950 . S
C1233 C1231 1.390 . S
C1233 C1234 1.387 . S
C1233 H1236 0.950 . S
C1234 C1233 1.387 . S
C1234 C1237 1.387 . S
H1235 C1231 0.950 . S
H1236 C1233 0.950 . S
C1237 C1228 1.390 . S
C1237 H1230 0.950 . S
C1237 C1234 1.387 . S
C1238 C1239 1.387 . S
C1238 H1242 0.950 . S
C1238 C1247 1.390 . S
C1239 C1238 1.387 . S
C1239 C1241 1.387 . S
H1240 C1247 0.950 . S
C1241 C1239 1.387 . S
C1241 C1243 1.390 . S
C1241 H1245 0.950 . S
H1242 C1238 0.950 . S
C1243 C1241 1.390 . S
C1243 C1244 1.387 . S
C1243 H1246 0.950 . S
C1244 C1243 1.387 . S
C1244 C1247 1.387 . S
H1245 C1241 0.950 . S
H1246 C1243 0.950 . S
C1247 C1238 1.390 . S
C1247 H1240 0.950 . S
C1247 C1244 1.387 . S
C1248 C1249 1.387 . S
C1248 H1252 0.950 . S
C1248 C1257 1.390 . S
C1249 C1248 1.387 . S
C1249 C1251 1.387 . S
H1250 C1257 0.950 . S
C1251 C1249 1.387 . S
C1251 C1253 1.390 . S
C1251 H1255 0.950 . S
H1252 C1248 0.950 . S
C1253 C1251 1.390 . S
C1253 C1254 1.387 . S
C1253 H1256 0.950 . S
C1254 C1253 1.387 . S
C1254 C1257 1.387 . S
H1255 C1251 0.950 . S
H1256 C1253 0.950 . S
C1257 C1248 1.390 . S
C1257 H1250 0.950 . S
C1257 C1254 1.387 . S
C1258 C1259 1.387 . S
C1258 H1262 0.950 . S
C1258 C1267 1.390 . S
C1259 C1258 1.387 . S
C1259 C1261 1.387 1_545 S
H1260 C1267 0.950 . S
C1261 C1259 1.387 1_565 S
C1261 C1263 1.390 . S
C1261 H1265 0.950 . S
H1262 C1258 0.950 . S
C1263 C1261 1.390 . S
C1263 C1264 1.387 1_565 S
C1263 H1266 0.950 . S
C1264 C1263 1.387 1_545 S
C1264 C1267 1.387 . S
H1265 C1261 0.950 . S
H1266 C1263 0.950 . S
C1267 C1258 1.390 . S
C1267 H1260 0.950 . S
C1267 C1264 1.387 . S
C1268 C1269 1.387 . S
C1268 H1272 0.950 . S
C1268 C1277 1.390 . S
C1269 C1268 1.387 . S
C1269 C1271 1.387 . S
H1270 C1277 0.950 . S
C1271 C1269 1.387 . S
C1271 C1273 1.390 . S
C1271 H1275 0.950 . S
H1272 C1268 0.950 . S
C1273 C1271 1.390 . S
C1273 C1274 1.387 . S
C1273 H1276 0.950 . S
C1274 C1273 1.387 . S
C1274 C1277 1.387 . S
H1275 C1271 0.950 . S
H1276 C1273 0.950 . S
C1277 C1268 1.390 . S
C1277 H1270 0.950 . S
C1277 C1274 1.387 . S
C1278 C1279 1.387 . S
C1278 H1282 0.950 . S
C1278 C1287 1.390 . S
C1279 C1278 1.387 . S
C1279 C1281 1.387 . S
H1280 C1287 0.950 . S
C1281 C1279 1.387 . S
C1281 C1283 1.390 . S
C1281 H1285 0.950 . S
H1282 C1278 0.950 . S
C1283 C1281 1.390 . S
C1283 C1284 1.387 . S
C1283 H1286 0.950 . S
C1284 C1283 1.387 . S
C1284 C1287 1.387 . S
H1285 C1281 0.950 . S
H1286 C1283 0.950 . S
C1287 C1278 1.390 . S
C1287 H1280 0.950 . S
C1287 C1284 1.387 . S
C1288 C1289 1.387 . S
C1288 H1292 0.950 . S
C1288 C1297 1.390 . S
C1289 C1288 1.387 . S
C1289 C1291 1.387 . S
H1290 C1297 0.950 . S
C1291 C1289 1.387 . S
C1291 C1293 1.390 . S
C1291 H1295 0.950 . S
H1292 C1288 0.950 . S
C1293 C1291 1.390 . S
C1293 C1294 1.387 . S
C1293 H1296 0.950 . S
C1294 C1293 1.387 . S
C1294 C1297 1.387 . S
H1295 C1291 0.950 . S
H1296 C1293 0.950 . S
C1297 C1288 1.390 . S
C1297 H1290 0.950 . S
C1297 C1294 1.387 . S
C1298 C1299 1.387 . S
C1298 H1302 0.950 . S
C1298 C1307 1.390 . S
C1299 C1298 1.387 . S
C1299 C1301 1.387 1_545 S
H1300 C1307 0.950 . S
C1301 C1299 1.387 1_565 S
C1301 C1303 1.390 . S
C1301 H1305 0.950 . S
H1302 C1298 0.950 . S
C1303 C1301 1.390 . S
C1303 C1304 1.387 1_565 S
C1303 H1306 0.950 . S
C1304 C1303 1.387 1_545 S
C1304 C1307 1.387 . S
H1305 C1301 0.950 . S
H1306 C1303 0.950 . S
C1307 C1298 1.390 . S
C1307 H1300 0.950 . S
C1307 C1304 1.387 . S
C1308 C1309 1.387 . S
C1308 H1312 0.950 . S
C1308 C1317 1.390 . S
C1309 C1308 1.387 . S
C1309 C1311 1.387 . S
H1310 C1317 0.950 . S
C1311 C1309 1.387 . S
C1311 C1313 1.390 . S
C1311 H1315 0.950 . S
H1312 C1308 0.950 . S
C1313 C1311 1.390 . S
C1313 C1314 1.387 . S
C1313 H1316 0.950 . S
C1314 C1313 1.387 . S
C1314 C1317 1.387 . S
H1315 C1311 0.950 . S
H1316 C1313 0.950 . S
C1317 C1308 1.390 . S
C1317 H1310 0.950 . S
C1317 C1314 1.387 . S
C1318 C1319 1.387 . S
C1318 H1322 0.950 . S
C1318 C1327 1.390 . S
C1319 C1318 1.387 . S
C1319 C1321 1.387 . S
H1320 C1327 0.950 . S
C1321 C1319 1.387 . S
C1321 C1323 1.390 . S
C1321 H1325 0.950 . S
H1322 C1318 0.950 . S
C1323 C1321 1.390 . S
C1323 C1324 1.387 . S
C1323 H1326 0.950 . S
C1324 C1323 1.387 . S
C1324 C1327 1.387 . S
H1325 C1321 0.950 . S
H1326 C1323 0.950 . S
C1327 C1318 1.390 . S
C1327 H1320 0.950 . S
C1327 C1324 1.387 . S
C1328 C1329 1.387 . S
C1328 H1332 0.950 . S
C1328 C1337 1.390 . S
C1329 C1328 1.387 . S
C1329 C1331 1.387 . S
H1330 C1337 0.950 . S
C1331 C1329 1.387 . S
C1331 C1333 1.390 . S
C1331 H1335 0.950 . S
H1332 C1328 0.950 . S
C1333 C1331 1.390 . S
C1333 C1334 1.387 . S
C1333 H1336 0.950 . S
C1334 C1333 1.387 . S
C1334 C1337 1.387 . S
H1335 C1331 0.950 . S
H1336 C1333 0.950 . S
C1337 C1328 1.390 . S
C1337 H1330 0.950 . S
C1337 C1334 1.387 . S
C1338 C1339 1.387 . S
C1338 H1342 0.950 . S
C1338 C1347 1.390 . S
C1339 C1338 1.387 . S
C1339 C1341 1.387 1_655 S
H1340 C1347 0.950 . S
C1341 C1339 1.387 1_455 S
C1341 C1343 1.390 . S
C1341 H1345 0.950 . S
H1342 C1338 0.950 . S
C1343 C1341 1.390 . S
C1343 C1344 1.387 1_455 S
C1343 H1346 0.950 . S
C1344 C1343 1.387 1_655 S
C1344 C1347 1.387 . S
H1345 C1341 0.950 . S
H1346 C1343 0.950 . S
C1347 C1338 1.390 . S
C1347 H1340 0.950 . S
C1347 C1344 1.387 . S
C1348 C1349 1.387 . S
C1348 H1352 0.950 . S
C1348 C1357 1.390 . S
C1349 C1348 1.387 . S
C1349 C1351 1.387 . S
H1350 C1357 0.950 . S
C1351 C1349 1.387 . S
C1351 C1353 1.390 . S
C1351 H1355 0.950 . S
H1352 C1348 0.950 . S
C1353 C1351 1.390 . S
C1353 C1354 1.387 . S
C1353 H1356 0.950 . S
C1354 C1353 1.387 . S
C1354 C1357 1.387 . S
H1355 C1351 0.950 . S
H1356 C1353 0.950 . S
C1357 C1348 1.390 . S
C1357 H1350 0.950 . S
C1357 C1354 1.387 . S
C1358 C1359 1.387 1_655 S
C1358 H1362 0.950 . S
C1358 C1367 1.390 . S
C1359 C1358 1.387 1_455 S
C1359 C1361 1.387 . S
H1360 C1367 0.950 . S
C1361 C1359 1.387 . S
C1361 C1363 1.390 . S
C1361 H1365 0.950 . S
H1362 C1358 0.950 . S
C1363 C1361 1.390 . S
C1363 C1364 1.387 . S
C1363 H1366 0.950 . S
C1364 C1363 1.387 . S
C1364 C1367 1.387 1_455 S
H1365 C1361 0.950 . S
H1366 C1363 0.950 . S
C1367 C1358 1.390 . S
C1367 H1360 0.950 . S
C1367 C1364 1.387 1_655 S
C1368 C1369 1.387 . S
C1368 H1372 0.950 . S
C1368 C1377 1.390 . S
C1369 C1368 1.387 . S
C1369 C1371 1.387 . S
H1370 C1377 0.950 . S
C1371 C1369 1.387 . S
C1371 C1373 1.390 . S
C1371 H1375 0.950 . S
H1372 C1368 0.950 . S
C1373 C1371 1.390 . S
C1373 C1374 1.387 . S
C1373 H1376 0.950 . S
C1374 C1373 1.387 . S
C1374 C1377 1.387 . S
H1375 C1371 0.950 . S
H1376 C1373 0.950 . S
C1377 C1368 1.390 . S
C1377 H1370 0.950 . S
C1377 C1374 1.387 . S
C1378 C1379 1.387 . S
C1378 H1382 0.950 . S
C1378 C1387 1.390 . S
C1379 C1378 1.387 . S
C1379 C1381 1.387 . S
H1380 C1387 0.950 . S
C1381 C1379 1.387 . S
C1381 C1383 1.390 . S
C1381 H1385 0.950 . S
H1382 C1378 0.950 . S
C1383 C1381 1.390 . S
C1383 C1384 1.387 . S
C1383 H1386 0.950 . S
C1384 C1383 1.387 . S
C1384 C1387 1.387 . S
H1385 C1381 0.950 . S
H1386 C1383 0.950 . S
C1387 C1378 1.390 . S
C1387 H1380 0.950 . S
C1387 C1384 1.387 . S
C1388 C1389 1.387 . S
C1388 H1392 0.950 . S
C1388 C1397 1.390 . S
C1389 C1388 1.387 . S
C1389 C1391 1.387 . S
H1390 C1397 0.950 . S
C1391 C1389 1.387 . S
C1391 C1393 1.390 . S
C1391 H1395 0.950 . S
H1392 C1388 0.950 . S
C1393 C1391 1.390 . S
C1393 C1394 1.387 . S
C1393 H1396 0.950 . S
C1394 C1393 1.387 . S
C1394 C1397 1.387 . S
H1395 C1391 0.950 . S
H1396 C1393 0.950 . S
C1397 C1388 1.390 . S
C1397 H1390 0.950 . S
C1397 C1394 1.387 . S
C1398 C1399 1.387 . S
C1398 H1402 0.950 . S
C1398 C1407 1.390 . S
C1399 C1398 1.387 . S
C1399 C1401 1.387 . S
H1400 C1407 0.950 . S
C1401 C1399 1.387 . S
C1401 C1403 1.390 . S
C1401 H1405 0.950 . S
H1402 C1398 0.950 . S
C1403 C1401 1.390 . S
C1403 C1404 1.387 . S
C1403 H1406 0.950 . S
C1404 C1403 1.387 . S
C1404 C1407 1.387 . S
H1405 C1401 0.950 . S
H1406 C1403 0.950 . S
C1407 C1398 1.390 . S
C1407 H1400 0.950 . S
C1407 C1404 1.387 . S
C1408 C1409 1.387 . S
C1408 H1412 0.950 . S
C1408 C1417 1.390 . S
C1409 C1408 1.387 . S
C1409 C1411 1.387 . S
H1410 C1417 0.950 . S
C1411 C1409 1.387 . S
C1411 C1413 1.390 . S
C1411 H1415 0.950 . S
H1412 C1408 0.950 . S
C1413 C1411 1.390 . S
C1413 C1414 1.387 . S
C1413 H1416 0.950 . S
C1414 C1413 1.387 . S
C1414 C1417 1.387 . S
H1415 C1411 0.950 . S
H1416 C1413 0.950 . S
C1417 C1408 1.390 . S
C1417 H1410 0.950 . S
C1417 C1414 1.387 . S
C1418 C1419 1.387 . S
C1418 H1422 0.950 . S
C1418 C1427 1.390 . S
C1419 C1418 1.387 . S
C1419 C1421 1.387 . S
H1420 C1427 0.950 . S
C1421 C1419 1.387 . S
C1421 C1423 1.390 . S
C1421 H1425 0.950 . S
H1422 C1418 0.950 . S
C1423 C1421 1.390 . S
C1423 C1424 1.387 . S
C1423 H1426 0.950 . S
C1424 C1423 1.387 . S
C1424 C1427 1.387 . S
H1425 C1421 0.950 . S
H1426 C1423 0.950 . S
C1427 C1418 1.390 . S
C1427 H1420 0.950 . S
C1427 C1424 1.387 . S
C1428 C1429 1.387 . S
C1428 H1432 0.950 . S
C1428 C1437 1.390 . S
C1429 C1428 1.387 . S
C1429 C1431 1.387 . S
H1430 C1437 0.950 . S
C1431 C1429 1.387 . S
C1431 C1433 1.390 . S
C1431 H1435 0.950 . S
H1432 C1428 0.950 . S
C1433 C1431 1.390 . S
C1433 C1434 1.387 . S
C1433 H1436 0.950 . S
C1434 C1433 1.387 . S
C1434 C1437 1.387 . S
H1435 C1431 0.950 . S
H1436 C1433 0.950 . S
C1437 C1428 1.390 . S
C1437 H1430 0.950 . S
C1437 C1434 1.387 . S
C1438 C1439 1.387 . S
C1438 H1442 0.950 . S
C1438 C1447 1.390 . S
C1439 C1438 1.387 . S
C1439 C1441 1.387 . S
H1440 C1447 0.950 . S
C1441 C1439 1.387 . S
C1441 C1443 1.390 . S
C1441 H1445 0.950 . S
H1442 C1438 0.950 . S
C1443 C1441 1.390 . S
C1443 C1444 1.387 . S
C1443 H1446 0.950 . S
C1444 C1443 1.387 . S
C1444 C1447 1.387 . S
H1445 C1441 0.950 . S
H1446 C1443 0.950 . S
C1447 C1438 1.390 . S
C1447 H1440 0.950 . S
C1447 C1444 1.387 . S
C1448 C1449 1.387 1_554 S
C1448 H1452 0.950 . S
C1448 C1457 1.390 . S
C1449 C1448 1.387 1_556 S
C1449 C1451 1.387 . S
H1450 C1457 0.950 . S
C1451 C1449 1.387 . S
C1451 C1453 1.390 . S
C1451 H1455 0.950 . S
H1452 C1448 0.950 . S
C1453 C1451 1.390 . S
C1453 C1454 1.387 . S
C1453 H1456 0.950 . S
C1454 C1453 1.387 . S
C1454 C1457 1.387 1_556 S
H1455 C1451 0.950 . S
H1456 C1453 0.950 . S
C1457 C1448 1.390 . S
C1457 H1450 0.950 . S
C1457 C1454 1.387 1_554 S
C1458 C1459 1.387 . S
C1458 H1462 0.950 . S
C1458 C1467 1.390 . S
C1459 C1458 1.387 . S
C1459 C1461 1.387 . S
H1460 C1467 0.950 . S
C1461 C1459 1.387 . S
C1461 C1463 1.390 . S
C1461 H1465 0.950 . S
H1462 C1458 0.950 . S
C1463 C1461 1.390 . S
C1463 C1464 1.387 . S
C1463 H1466 0.950 . S
C1464 C1463 1.387 . S
C1464 C1467 1.387 . S
H1465 C1461 0.950 . S
H1466 C1463 0.950 . S
C1467 C1458 1.390 . S
C1467 H1460 0.950 . S
C1467 C1464 1.387 . S
C1468 C1469 1.387 . S
C1468 H1472 0.950 . S
C1468 C1477 1.390 . S
C1469 C1468 1.387 . S
C1469 C1471 1.387 1_554 S
H1470 C1477 0.950 . S
C1471 C1469 1.387 1_556 S
C1471 C1473 1.390 . S
C1471 H1475 0.950 . S
H1472 C1468 0.950 . S
C1473 C1471 1.390 . S
C1473 C1474 1.387 1_556 S
C1473 H1476 0.950 . S
C1474 C1473 1.387 1_554 S
C1474 C1477 1.387 . S
H1475 C1471 0.950 . S
H1476 C1473 0.950 . S
C1477 C1468 1.390 . S
C1477 H1470 0.950 . S
C1477 C1474 1.387 . S
C1478 C1479 1.387 1_556 S
C1478 H1482 0.950 . S
C1478 C1487 1.390 . S
C1479 C1478 1.387 1_554 S
C1479 C1481 1.387 . S
H1480 C1487 0.950 . S
C1481 C1479 1.387 . S
C1481 C1483 1.390 . S
C1481 H1485 0.950 . S
H1482 C1478 0.950 . S
C1483 C1481 1.390 . S
C1483 C1484 1.387 . S
C1483 H1486 0.950 . S
C1484 C1483 1.387 . S
C1484 C1487 1.387 1_554 S
H1485 C1481 0.950 . S
H1486 C1483 0.950 . S
C1487 C1478 1.390 . S
C1487 H1480 0.950 . S
C1487 C1484 1.387 1_556 S
C1014 C578 1.474 . S
C1009 C181 1.496 . S
C1024 C626 1.604 . S
C1019 C247 1.651 . S
C1029 C283 1.480 . S
C1034 C662 1.411 . S
C1044 C698 1.553 . S
C1039 C169 1.589 . S
C1054 C724 1.511 . S
C1049 C361 1.521 . S
C1064 C760 1.564 . S
C1059 C433 1.556 . S
C1069 C421 1.531 . S
C1074 C795 1.536 . S
C1084 C832 1.592 1_565 S
C1079 C355 1.601 . S
C1089 C427 1.505 . S
C1094 C866 1.481 . S
C1104 C914 1.541 . S
C1099 C325 1.588 . S
C1109 C385 1.499 . S
C1114 C867 1.508 . S
C1124 C904 1.598 . S
C1119 C463 1.585 . S
C1129 C253 1.512 . S
C1134 C950 1.442 . S
C1139 C145 1.598 . S
C1144 C939 1.599 . S
C1149 C205 1.526 . S
C1154 C940 1.510 . S
C1159 C217 1.622 . S
C1164 C938 1.617 . S
C1169 C139 1.533 . S
C1174 C686 1.502 . S
C1179 C535 1.490 . S
C1184 C687 1.496 . S
C1194 C590 1.564 . S
C1189 C565 1.611 . S
C1204 C615 1.502 . S
C1199 C313 1.498 . S
C1209 C175 1.609 . S
C1214 C722 1.614 . S
C1224 C830 1.501 . S
C1219 C397 1.523 . S
C1234 C723 1.571 . S
C1229 C349 1.580 . S
C1244 C796 1.599 . S
C1239 C457 1.589 . S
C1254 C794 1.473 . S
C1249 C505 1.496 . S
C1259 C571 1.651 . S
C1264 C842 1.604 . S
C1269 C319 1.480 . S
C1274 C734 1.412 . S
C1284 C770 1.554 . S
C1279 C493 1.588 . S
C1289 C109 1.521 . S
C1294 C652 1.513 . S
C1304 C688 1.564 . S
C1299 C1 1.556 . S
C1314 C579 1.535 . S
C1309 C61 1.530 . S
C1324 C616 1.596 . S
C1319 C103 1.601 . S
C1329 C67 1.504 . S
C1334 C902 1.479 . S
C1339 C73 1.588 . S
C1344 C878 1.543 . S
C1349 C133 1.499 . S
C1354 C903 1.507 . S
C1359 C31 1.585 . S
C1364 C868 1.598 . S
C1374 C986 1.442 . S
C1369 C289 1.512 . S
C1384 C975 1.599 . S
C1379 C469 1.598 . S
C1394 C976 1.511 . S
C1389 C529 1.527 . S
C1399 C541 1.622 . S
C1404 C974 1.614 . S
C1409 C391 1.533 . S
C1414 C758 1.502 . S
C1424 C759 1.497 . S
C1419 C211 1.491 . S
C1434 C806 1.564 . S
C1429 C241 1.611 . S
C1444 C831 1.502 . S
C1439 C277 1.502 . S
C1449 C499 1.610 . S
C1454 C650 1.617 . S
C1464 C614 1.501 . S
C1459 C37 1.526 . S
C1469 C97 1.580 . S
C1474 C651 1.570 . S
C1484 C580 1.600 . S
C1479 C25 1.590 . S
