# Generated by pormake.
# Topology anh, (6,3)-cn, num edge types: 1
# Building blocks:
#     Node 0, Type 0, BuildingBlock: BETDAH_clean_sbu_0, # of connection points: 6
#     Node 1, Type 0, BuildingBlock: BETDAH_clean_sbu_0, # of connection points: 6
#     Node 2, Type 0, BuildingBlock: BETDAH_clean_sbu_0, # of connection points: 6
#     Node 3, Type 1, BuildingBlock: ESEHIV_clean_linker_0, # of connection points: 3
#     Node 4, Type 1, BuildingBlock: ESEHIV_clean_linker_0, # of connection points: 3
#     Node 5, Type 1, BuildingBlock: ESEHIV_clean_linker_0, # of connection points: 3
#     Node 6, Type 1, BuildingBlock: ESEHIV_clean_linker_0, # of connection points: 3
#     Node 7, Type 1, BuildingBlock: ESEHIV_clean_linker_0, # of connection points: 3
#     Node 8, Type 1, BuildingBlock: ESEHIV_clean_linker_0, # of connection points: 3
#     Edge 9, Type (0, 1), BuildingBlock: UVAHIK_clean_linker_0, # of connection points: 2
#     Edge 10, Type (0, 1), BuildingBlock: UVAHIK_clean_linker_0, # of connection points: 2
#     Edge 11, Type (0, 1), BuildingBlock: UVAHIK_clean_linker_0, # of connection points: 2
#     Edge 12, Type (0, 1), BuildingBlock: UVAHIK_clean_linker_0, # of connection points: 2
#     Edge 13, Type (0, 1), BuildingBlock: UVAHIK_clean_linker_0, # of connection points: 2
#     Edge 14, Type (0, 1), BuildingBlock: UVAHIK_clean_linker_0, # of connection points: 2
#     Edge 15, Type (0, 1), BuildingBlock: UVAHIK_clean_linker_0, # of connection points: 2
#     Edge 16, Type (0, 1), BuildingBlock: UVAHIK_clean_linker_0, # of connection points: 2
#     Edge 17, Type (0, 1), BuildingBlock: UVAHIK_clean_linker_0, # of connection points: 2
#     Edge 18, Type (0, 1), BuildingBlock: UVAHIK_clean_linker_0, # of connection points: 2
#     Edge 19, Type (0, 1), BuildingBlock: UVAHIK_clean_linker_0, # of connection points: 2
#     Edge 20, Type (0, 1), BuildingBlock: UVAHIK_clean_linker_0, # of connection points: 2
#     Edge 21, Type (0, 1), BuildingBlock: UVAHIK_clean_linker_0, # of connection points: 2
#     Edge 22, Type (0, 1), BuildingBlock: UVAHIK_clean_linker_0, # of connection points: 2
#     Edge 23, Type (0, 1), BuildingBlock: UVAHIK_clean_linker_0, # of connection points: 2
#     Edge 24, Type (0, 1), BuildingBlock: UVAHIK_clean_linker_0, # of connection points: 2
#     Edge 25, Type (0, 1), BuildingBlock: UVAHIK_clean_linker_0, # of connection points: 2
#     Edge 26, Type (0, 1), BuildingBlock: UVAHIK_clean_linker_0, # of connection points: 2
# Relax obj value: 0.181
# Max RMSD: 0.210
# Mean RMSD: 0.156
data_MOF--net-anh--node1-BETDAH_clean_sbu_0--node2-ESEHIV_clean_linker_0--edge1-UVAHIK_clean_linker_0
_symmetry_space_group_name_H-M    P1
_symmetry_Int_Tables_number       1
_symmetry_cell_setting            triclinic
loop_
_symmetry_equiv_pos_as_xyz
'x, y, z'
_cell_length_a     37.319188
_cell_length_b     44.104242
_cell_length_c     66.98961
_cell_angle_alpha  92.634544
_cell_angle_beta   89.413564
_cell_angle_gamma 128.1903
loop_
_atom_site_label
_atom_site_type_symbol
_atom_site_fract_x
_atom_site_fract_y
_atom_site_fract_z
_atom_type_partial_charge
Ho0 Ho 0.10072 0.52148 0.14129 0.0
Ho1 Ho 1.04637 0.54699 0.15748 0.0
C2 C 0.15109 0.61382 0.1525 0.0
C3 C 0.15681 0.51653 0.12174 0.0
C4 C 0.20505 0.53568 0.12588 0.0
C5 C 0.22926 0.52827 0.11332 0.0
C6 C 0.27309 0.54199 0.11895 0.0
C7 C 0.29298 0.56298 0.13729 0.0
C8 C 0.26951 0.57218 0.14927 0.0
C9 C 0.22588 0.55872 0.14356 0.0
C10 C 0.09282 0.5202 0.18126 0.0
C11 C 0.99623 0.45557 0.1475 0.0
C12 C 0.98818 0.54822 0.17761 0.0
C13 C 0.94011 0.51566 0.18162 0.0
C14 C 0.92897 0.49072 0.19711 0.0
C15 C 0.88474 0.45598 0.19838 0.0
C16 C 0.85125 0.44562 0.1841 0.0
C17 C 0.86162 0.47161 0.16946 0.0
C18 C 0.90544 0.50635 0.16831 0.0
C19 C 0.0554 0.54753 0.11741 0.0
O20 O 0.15235 0.58735 0.14304 0.0
O21 O 0.1141 0.60458 0.16148 0.0
O22 O 0.12924 0.49206 0.13501 0.0
O23 O 0.14709 0.53911 0.11681 0.0
O24 O 0.0954 0.49635 0.17066 0.0
O25 O 0.09893 0.54555 0.17043 0.0
O26 O 0.99813 0.48203 0.15869 0.0
O27 O 1.03056 0.46508 0.13607 0.0
O28 O 0.99733 0.5579 0.15898 0.0
O29 O 1.01904 0.5474 0.18602 0.0
O30 O 0.05536 0.57317 0.12774 0.0
O31 O 1.04792 0.52217 0.12859 0.0
H32 H 0.21353 0.51046 0.09966 0.0
H33 H 0.29018 0.53404 0.10955 0.0
H34 H 0.28414 0.5884 0.16342 0.0
H35 H 0.20751 0.56472 0.15341 0.0
H36 H 0.95483 0.49717 0.20772 0.0
H37 H 0.87728 0.43651 0.20992 0.0
H38 H 0.83591 0.46464 0.15859 0.0
H39 H 0.91261 0.52507 0.1564 0.0
Ho40 Ho 0.60565 0.01309 0.48015 0.0
Ho41 Ho 0.5449 0.0345 0.46966 0.0
C42 C 0.49656 0.94548 0.4712 0.0
C43 C 0.64222 0.98566 0.49636 0.0
C44 C 0.63119 0.94818 0.50056 0.0
C45 C 0.63654 0.94159 0.52018 0.0
C46 C 0.62987 0.90778 0.5245 0.0
C47 C 0.61803 0.87984 0.50923 0.0
C48 C 0.6113 0.88593 0.48963 0.0
C49 C 0.6178 0.91978 0.48533 0.0
C50 C 0.60069 0.02198 0.44103 0.0
C51 C 0.65518 0.10224 0.47612 0.0
C52 C 0.51048 0.06532 0.45565 0.0
C53 C 0.51975 0.10231 0.46097 0.0
C54 C 0.50315 0.11647 0.4489 0.0
C55 C 0.51176 0.15157 0.45428 0.0
C56 C 0.53708 0.17299 0.47184 0.0
C57 C 0.5538 0.15854 0.48377 0.0
C58 C 0.54541 0.1237 0.47834 0.0
C59 C 0.5525 0.02825 0.50905 0.0
O60 O 0.53389 0.95602 0.4808 0.0
O61 O 0.49535 0.97099 0.4623 0.0
O62 O 0.64769 0.99494 0.4777 0.0
O63 O 0.62012 0.99524 0.50645 0.0
O64 O 0.63719 0.03141 0.44998 0.0
O65 O 0.56786 0.0059 0.45284 0.0
O66 O 0.61596 0.09125 0.4685 0.0
O67 O 0.65884 0.07742 0.4842 0.0
O68 O 0.49147 0.04024 0.46958 0.0
O69 O 0.54398 0.06788 0.44723 0.0
O70 O 0.51578 0.01891 0.50048 0.0
O71 O 0.58406 0.04305 0.49668 0.0
H72 H 0.64668 0.96299 0.53218 0.0
H73 H 0.63438 0.90369 0.53982 0.0
H74 H 0.60244 0.86514 0.4775 0.0
H75 H 0.61327 0.92403 0.47004 0.0
H76 H 0.4835 0.1004 0.43537 0.0
H77 H 0.49887 0.16202 0.4446 0.0
H78 H 0.57269 0.17375 0.49756 0.0
H79 H 0.55859 0.11321 0.48782 0.0
Ho80 Ho 0.61353 0.55782 0.84252 0.0
Ho81 Ho 0.5496 0.4713 0.84724 0.0
C82 C 0.50305 0.51268 0.8471 0.0
C83 C 0.65354 0.62696 0.83087 0.0
C84 C 0.64211 0.65294 0.827 0.0
C85 C 0.6402 0.66133 0.80724 0.0
C86 C 0.63157 0.68713 0.80324 0.0
C87 C 0.62504 0.70544 0.81893 0.0
C88 C 0.62676 0.69695 0.83872 0.0
C89 C 0.63516 0.67095 0.84272 0.0
C90 C 0.60202 0.53498 0.88017 0.0
C91 C 0.66117 0.51742 0.84416 0.0
C92 C 0.51219 0.40224 0.85805 0.0
C93 C 0.5215 0.37501 0.85274 0.0
C94 C 0.50638 0.34423 0.86484 0.0
C95 C 0.51511 0.31825 0.85964 0.0
C96 C 0.53904 0.3226 0.84221 0.0
C97 C 0.55442 0.35386 0.83026 0.0
C98 C 0.54597 0.37988 0.83554 0.0
C99 C 0.56124 0.49238 0.80914 0.0
O100 O 0.54267 0.5428 0.84024 0.0
O101 O 0.49908 0.48276 0.85363 0.0
O102 O 0.65409 0.61926 0.84944 0.0
O103 O 0.63544 0.5967 0.81856 0.0
O104 O 0.64087 0.56432 0.87367 0.0
O105 O 0.57149 0.52082 0.86684 0.0
O106 O 0.62018 0.48578 0.84877 0.0
O107 O 0.66678 0.54883 0.8391 0.0
O108 O 0.49615 0.40977 0.84347 0.0
O109 O 0.54421 0.43333 0.86863 0.0
O110 O 0.5235 0.46225 0.81581 0.0
O111 O 0.59191 0.50803 0.82261 0.0
H112 H 0.64599 0.64828 0.79484 0.0
H113 H 0.63113 0.69346 0.78786 0.0
H114 H 0.62147 0.71034 0.85112 0.0
H115 H 0.63658 0.66529 0.85813 0.0
H116 H 0.48781 0.34028 0.87828 0.0
H117 H 0.50337 0.29494 0.86937 0.0
H118 H 0.57228 0.35789 0.81657 0.0
H119 H 0.5582 0.40366 0.82606 0.0
H120 H 0.52184 0.98026 0.22455 0.0
H121 H 0.64082 0.09943 0.22607 0.0
H122 H 0.57864 0.03749 0.16953 0.0
C123 C 0.54753 0.00606 0.21682 0.0
C124 C 0.54615 0.00491 0.19586 0.0
C125 C 0.58181 0.03981 0.22787 0.0
C126 C 0.61474 0.07292 0.21765 0.0
C127 C 0.61392 0.07247 0.19664 0.0
C128 C 0.57995 0.03803 0.18571 0.0
H129 H 0.6059 0.58138 0.59766 0.0
H130 H 0.59619 0.47927 0.59078 0.0
H131 H 0.59528 0.5325 0.53873 0.0
C132 C 0.60361 0.55978 0.58803 0.0
C133 C 0.60128 0.56083 0.56716 0.0
C134 C 0.60127 0.53025 0.59665 0.0
C135 C 0.59754 0.50196 0.5842 0.0
C136 C 0.5955 0.50262 0.56332 0.0
C137 C 0.59657 0.53176 0.55484 0.0
H138 H 1.02753 0.52526 0.89879 0.0
H139 H 0.13998 0.5221 0.90218 0.0
H140 H 0.08372 0.51531 0.84459 0.0
C141 C 1.05206 0.5233 0.89137 0.0
C142 C 1.05117 0.52008 0.87043 0.0
C143 C 0.08387 0.52421 0.9029 0.0
C144 C 0.11585 0.52205 0.89326 0.0
C145 C 0.11668 0.51891 0.87229 0.0
C146 C 0.08411 0.51819 0.86074 0.0
H147 H 1.00895 0.45943 0.39805 0.0
H148 H 0.12782 0.57855 0.39902 0.0
H149 H 0.07236 0.52188 0.45432 0.0
C150 C 1.03579 0.4858 0.40634 0.0
C151 C 1.03683 0.48657 0.42733 0.0
C152 C 0.06849 0.51876 0.39598 0.0
C153 C 0.1022 0.55296 0.4069 0.0
C154 C 0.10394 0.55451 0.42789 0.0
C155 C 0.07163 0.52089 0.43812 0.0
H156 H 0.5851 0.06675 0.72673 0.0
H157 H 0.58909 0.97151 0.72219 0.0
H158 H 0.58612 0.01673 0.78014 0.0
C159 C 0.58606 0.04568 0.73389 0.0
C160 C 0.58637 0.04534 0.75483 0.0
C161 C 0.58671 0.01898 0.72209 0.0
C162 C 0.58808 0.99184 0.73137 0.0
C163 C 0.58757 0.9905 0.75234 0.0
C164 C 0.58664 0.01743 0.76399 0.0
H165 H 0.51837 0.4518 0.086 0.0
H166 H 0.53941 0.36671 0.07884 0.0
H167 H 0.52356 0.4005 0.13759 0.0
C168 C 0.5229 0.43235 0.09256 0.0
C169 C 0.52031 0.42899 0.11333 0.0
C170 C 0.53141 0.41113 0.08006 0.0
C171 C 0.53345 0.38356 0.08842 0.0
C172 C 0.52941 0.37869 0.1092 0.0
C173 C 0.52362 0.40209 0.12151 0.0
C174 C 0.33451 0.55798 0.16418 0.0
C175 C 0.33456 0.56992 0.14508 0.0
C176 C 0.36818 0.55512 0.16982 0.0
C177 C 0.47607 0.57386 0.15603 0.0
H178 H 0.40669 0.4635 0.16044 0.0
C179 C 0.53438 0.49185 0.12103 0.0
C180 C 0.51448 0.45399 0.12626 0.0
C181 C 0.52341 0.51336 0.13113 0.0
C182 C 0.42736 0.49457 0.15993 0.0
H183 H 0.37233 0.59235 0.11781 0.0
H184 H 0.4314 0.5875 0.12771 0.0
H185 H 0.36917 0.49226 0.16489 0.0
H186 H 0.47139 0.41086 0.14782 0.0
H187 H 0.45479 0.44937 0.16631 0.0
H188 H 0.53426 0.57616 0.15074 0.0
C189 C 0.40535 0.5803 0.13829 0.0
C190 C 0.40556 0.51107 0.16243 0.0
C191 C 0.37136 0.58273 0.13254 0.0
C192 C 0.48703 0.43974 0.14319 0.0
C193 C 0.47699 0.46173 0.15366 0.0
C194 C 0.4983 0.55749 0.15401 0.0
C195 C 0.40265 0.56457 0.15654 0.0
C196 C 0.42913 0.55045 0.1595 0.0
C197 C 0.49316 0.49805 0.14714 0.0
C198 C 0.47359 0.51722 0.15477 0.0
H199 H 0.30643 0.54774 0.17412 0.0
H200 H 0.36545 0.54292 0.18396 0.0
H201 H 0.49501 0.60441 0.15389 0.0
H202 H 0.55715 0.50446 0.10857 0.0
H203 H 0.53664 0.54102 0.12545 0.0
C204 C 0.73966 0.15666 0.4808 0.0
C205 C 0.69584 0.14346 0.47494 0.0
C206 C 0.77803 0.19503 0.47807 0.0
C207 C 0.81593 0.27545 0.44623 0.0
H208 H 0.91437 0.34016 0.4853 0.0
C209 C 0.95424 0.43536 0.43317 0.0
C210 C 0.99972 0.45145 0.43746 0.0
C211 C 0.91847 0.39924 0.43992 0.0
C212 C 0.88738 0.32233 0.47415 0.0
H213 H 0.65805 0.16099 0.46244 0.0
H214 H 0.72441 0.22725 0.45778 0.0
H215 H 0.84977 0.27389 0.49296 0.0
H216 H 1.04363 0.44325 0.45282 0.0
H217 H 0.98086 0.37936 0.46445 0.0
H218 H 0.8532 0.32302 0.42727 0.0
C219 C 0.72936 0.20793 0.46417 0.0
C220 C 0.85037 0.28438 0.47855 0.0
C221 C 0.6912 0.16984 0.46694 0.0
C222 C 1.00877 0.4315 0.44945 0.0
C223 C 0.9728 0.39494 0.45608 0.0
C224 C 0.8528 0.31307 0.44181 0.0
C225 C 0.77335 0.22087 0.46934 0.0
C226 C 0.8139 0.26069 0.46472 0.0
C227 C 0.92719 0.37789 0.45089 0.0
C228 C 0.88878 0.33732 0.45578 0.0
H229 H 0.74451 0.13717 0.48703 0.0
H230 H 0.81147 0.20408 0.48216 0.0
H231 H 0.78902 0.25771 0.43503 0.0
H232 H 0.94639 0.45035 0.42408 0.0
H233 H 0.88387 0.38767 0.43611 0.0
C234 C 0.58859 0.72678 0.79869 0.0
C235 C 0.61757 0.73396 0.81461 0.0
C236 C 0.58305 0.75427 0.79407 0.0
C237 C 0.64086 0.8586 0.79925 0.0
H238 H 0.52255 0.82789 0.78333 0.0
C239 C 0.61542 0.97043 0.77889 0.0
C240 C 0.58785 0.96081 0.76187 0.0
C241 C 0.61721 0.94279 0.78716 0.0
C242 C 0.5559 0.83693 0.78759 0.0
H243 H 0.66325 0.77564 0.83823 0.0
H244 H 0.65327 0.82353 0.83025 0.0
H245 H 0.52899 0.77946 0.79434 0.0
H246 H 0.53926 0.91418 0.74069 0.0
H247 H 0.54312 0.86639 0.75478 0.0
H248 H 0.66795 0.91592 0.79213 0.0
C249 C 0.63504 0.79668 0.82128 0.0
C250 C 0.55957 0.80916 0.79392 0.0
C251 C 0.64039 0.76908 0.82598 0.0
C252 C 0.56135 0.92272 0.75362 0.0
C253 C 0.56313 0.89515 0.76188 0.0
C254 C 0.63721 0.88637 0.79286 0.0
C255 C 0.60651 0.78969 0.80519 0.0
C256 C 0.60217 0.81958 0.79961 0.0
C257 C 0.59136 0.90488 0.77865 0.0
C258 C 0.59476 0.87581 0.78673 0.0
H259 H 0.57019 0.69987 0.78976 0.0
H260 H 0.56116 0.74811 0.78146 0.0
H261 H 0.67426 0.86752 0.80329 0.0
H262 H 0.63646 0.99956 0.78554 0.0
H263 H 0.63893 0.95116 0.80021 0.0
C264 C 0.78757 0.38567 0.16565 0.0
C265 C 0.80555 0.40762 0.18375 0.0
C266 C 0.74121 0.35508 0.16353 0.0
C267 C 0.64014 0.33862 0.18322 0.0
H268 H 0.59092 0.27229 0.13489 0.0
C269 C 0.51267 0.33354 0.136 0.0
C270 C 0.53583 0.35228 0.11852 0.0
C271 C 0.52602 0.31596 0.14723 0.0
C272 C 0.6034 0.28983 0.14875 0.0
H273 H 0.79102 0.41173 0.21467 0.0
H274 H 0.70946 0.3576 0.21113 0.0
H275 H 0.65561 0.28392 0.15253 0.0
H276 H 0.58801 0.36346 0.09814 0.0
H277 H 0.61015 0.33205 0.11733 0.0
H278 H 0.58974 0.34632 0.1788 0.0
C279 C 0.73094 0.36463 0.19837 0.0
C280 C 0.64067 0.29678 0.15879 0.0
C281 C 0.77762 0.3955 0.20046 0.0
C282 C 0.56909 0.34922 0.11139 0.0
C283 C 0.58179 0.33103 0.12242 0.0
C284 C 0.60237 0.33103 0.17343 0.0
C285 C 0.71169 0.34578 0.1795 0.0
C286 C 0.66218 0.32429 0.17499 0.0
C287 C 0.56203 0.31602 0.14095 0.0
C288 C 0.5863 0.30932 0.15517 0.0
H289 H 0.80884 0.394 0.15268 0.0
H290 H 0.72824 0.34157 0.14873 0.0
H291 H 0.65513 0.35965 0.19573 0.0
H292 H 0.48594 0.33434 0.14162 0.0
H293 H 0.51015 0.30446 0.16143 0.0
C294 C 0.45592 0.87568 0.47842 0.0
C295 C 0.45559 0.90411 0.46993 0.0
C296 C 0.41701 0.83678 0.47722 0.0
C297 C 0.29159 0.77406 0.46799 0.0
H298 H 0.30319 0.69418 0.45419 0.0
C299 C 0.14371 0.62502 0.43368 0.0
C300 C 0.13913 0.59215 0.43855 0.0
C301 C 0.18058 0.66172 0.44113 0.0
C302 C 0.29934 0.71601 0.45842 0.0
H303 H 0.41384 0.91366 0.45346 0.0
H304 H 0.34659 0.84621 0.45122 0.0
H305 H 0.37165 0.76104 0.45981 0.0
H306 H 0.16865 0.57168 0.45558 0.0
H307 H 0.23367 0.63629 0.46875 0.0
H308 H 0.21936 0.72927 0.46614 0.0
C309 C 0.37662 0.85391 0.45908 0.0
C310 C 0.33863 0.7544 0.46161 0.0
C311 C 0.41543 0.89267 0.46023 0.0
C312 C 0.17128 0.59656 0.45172 0.0
C313 C 0.20864 0.63353 0.45906 0.0
C314 C 0.25239 0.73577 0.4648 0.0
C315 C 0.37678 0.82541 0.46758 0.0
C316 C 0.33524 0.78406 0.466 0.0
C317 C 0.21411 0.66662 0.45356 0.0
C318 C 0.25572 0.70636 0.45954 0.0
H319 H 0.48621 0.88341 0.48603 0.0
H320 H 0.41828 0.81567 0.48405 0.0
H321 H 0.28764 0.79596 0.47181 0.0
H322 H 0.11938 0.6224 0.42354 0.0
H323 H 0.18384 0.68645 0.43637 0.0
C324 C 0.51377 0.25466 0.83892 0.0
C325 C 0.54722 0.2944 0.83616 0.0
C326 C 0.52042 0.22803 0.83209 0.0
C327 C 0.58082 0.21523 0.79378 0.0
H328 H 0.55438 0.1321 0.82518 0.0
C329 C 0.6176 0.11354 0.76313 0.0
C330 C 0.58601 0.07419 0.76687 0.0
C331 C 0.61525 0.14069 0.77317 0.0
C332 C 0.5614 0.15484 0.81611 0.0
H333 H 0.61498 0.3372 0.82489 0.0
H334 H 0.62587 0.29064 0.81254 0.0
H335 H 0.54514 0.17864 0.83983 0.0
H336 H 0.52776 0.03231 0.7843 0.0
H337 H 0.52254 0.07954 0.80149 0.0
H338 H 0.59556 0.19114 0.76985 0.0
C339 C 0.59436 0.28017 0.81986 0.0
C340 C 0.55626 0.18157 0.82455 0.0
C341 C 0.58796 0.30682 0.82686 0.0
C342 C 0.5527 0.06256 0.78126 0.0
C343 C 0.54988 0.0897 0.79113 0.0
C344 C 0.58541 0.18833 0.78527 0.0
C345 C 0.56046 0.24047 0.82218 0.0
C346 C 0.56611 0.21212 0.81348 0.0
C347 C 0.58072 0.1291 0.78698 0.0
C348 C 0.57599 0.15783 0.79632 0.0
H349 H 0.48174 0.24391 0.84577 0.0
H350 H 0.49355 0.19756 0.83394 0.0
H351 H 0.58789 0.23808 0.78477 0.0
H352 H 0.64399 0.12328 0.75227 0.0
H353 H 0.64039 0.17081 0.76995 0.0
C354 C 0.58037 0.80871 0.50472 0.0
C355 C 0.61457 0.84536 0.51373 0.0
C356 C 0.5773 0.77649 0.50929 0.0
C357 C 0.61036 0.74173 0.5486 0.0
H358 H 0.59125 0.66775 0.50758 0.0
C359 C 0.63623 0.63073 0.56618 0.0
C360 C 0.60391 0.59257 0.55854 0.0
C361 C 0.63658 0.6604 0.55952 0.0
C362 C 0.59607 0.68792 0.51922 0.0
H363 H 0.67342 0.87699 0.53399 0.0
H364 H 0.66773 0.82102 0.54207 0.0
H365 H 0.59252 0.72148 0.49832 0.0
H366 H 0.54752 0.55577 0.53741 0.0
H367 H 0.54789 0.60781 0.52575 0.0
H368 H 0.61385 0.70849 0.56952 0.0
C369 C 0.64276 0.81698 0.53176 0.0
C370 C 0.59679 0.71866 0.51392 0.0
C371 C 0.64594 0.84909 0.52715 0.0
C372 C 0.57296 0.58495 0.54349 0.0
C373 C 0.57319 0.61474 0.53684 0.0
C374 C 0.60953 0.71109 0.55389 0.0
C375 C 0.60824 0.78026 0.52302 0.0
C376 C 0.60464 0.74622 0.52854 0.0
C377 C 0.60447 0.65269 0.54508 0.0
C378 C 0.6031 0.68413 0.53926 0.0
H379 H 0.55545 0.80476 0.49442 0.0
H380 H 0.55013 0.74851 0.50242 0.0
H381 H 0.61546 0.76197 0.56027 0.0
H382 H 0.66112 0.63763 0.57751 0.0
H383 H 0.66192 0.68944 0.5658 0.0
C384 C 0.69661 0.48382 0.84878 0.0
C385 C 0.70173 0.51737 0.84459 0.0
C386 C 0.7345 0.48389 0.84949 0.0
C387 C 0.86314 0.55066 0.85458 0.0
H388 H 0.85007 0.45931 0.83699 0.0
C389 C 1.02068 0.55129 0.85454 0.0
C390 C 1.01378 0.51758 0.85997 0.0
C391 C 0.98343 0.55114 0.85054 0.0
C392 C 0.85459 0.4851 0.84221 0.0
H393 H 0.75203 0.57746 0.8378 0.0
H394 H 0.81752 0.57759 0.83891 0.0
H395 H 0.78491 0.45929 0.83481 0.0
H396 H 0.96166 0.45734 0.86555 0.0
H397 H 0.89716 0.45667 0.8584 0.0
H398 H 0.93262 0.57634 0.86221 0.0
C399 C 0.78418 0.55109 0.84189 0.0
C400 C 0.81679 0.48507 0.84095 0.0
C401 C 0.74626 0.55097 0.8411 0.0
C402 C 0.96844 0.48351 0.86069 0.0
C403 C 0.93122 0.48329 0.85671 0.0
C404 C 0.90092 0.55066 0.85589 0.0
C405 C 0.77919 0.51757 0.84613 0.0
C406 C 0.82014 0.51779 0.84718 0.0
C407 C 0.93779 0.51733 0.85205 0.0
C408 C 0.89751 0.51783 0.84981 0.0
H409 H 0.66316 0.45727 0.85161 0.0
H410 H 0.72867 0.45749 0.85306 0.0
H411 H 0.86756 0.57637 0.85988 0.0
H412 H 0.05495 0.57835 0.85447 0.0
H413 H 0.99059 0.57796 0.84674 0.0
C414 C 0.23483 0.66594 0.14683 0.0
C415 C 0.19275 0.65482 0.15385 0.0
C416 C 0.27422 0.70457 0.14898 0.0
C417 C 0.32062 0.79358 0.18002 0.0
H418 H 0.41071 0.84621 0.13886 0.0
C419 C 0.46293 0.95575 0.1891 0.0
C420 C 0.5074 0.96906 0.18522 0.0
C421 C 0.42542 0.9185 0.18272 0.0
C422 C 0.386 0.83179 0.15054 0.0
H423 H 0.159 0.67603 0.16802 0.0
H424 H 0.22705 0.74286 0.17157 0.0
H425 H 0.34368 0.77842 0.1329 0.0
H426 H 0.54781 0.95482 0.17089 0.0
H427 H 0.48184 0.88902 0.15973 0.0
H428 H 0.3625 0.84635 0.19774 0.0
C429 C 0.22999 0.72176 0.16475 0.0
C430 C 0.34766 0.79296 0.14715 0.0
C431 C 0.19082 0.68333 0.16263 0.0
C432 C 0.51372 0.94522 0.17385 0.0
C433 C 0.47598 0.90761 0.16753 0.0
C434 C 0.35868 0.83214 0.18339 0.0
C435 C 0.27233 0.73285 0.15824 0.0
C436 C 0.31422 0.77357 0.16179 0.0
C437 C 0.43146 0.89341 0.17252 0.0
C438 C 0.3916 0.85197 0.16864 0.0
H439 H 0.23757 0.64473 0.13998 0.0
H440 H 0.30634 0.7121 0.1439 0.0
H441 H 0.29624 0.77932 0.19184 0.0
H442 H 0.45731 0.9737 0.19785 0.0
H443 H 0.39162 0.90889 0.1864 0.0
C444 C 0.58705 0.24057 0.48738 0.0
C445 C 0.54543 0.20982 0.47805 0.0
C446 C 0.59372 0.27393 0.4947 0.0
C447 C 0.55406 0.33179 0.49122 0.0
H448 H 0.59972 0.36474 0.54594 0.0
C449 C 0.55764 0.44952 0.53639 0.0
C450 C 0.59302 0.47294 0.55064 0.0
C451 C 0.55294 0.41885 0.52604 0.0
C452 C 0.58775 0.35652 0.53052 0.0
H453 H 0.47868 0.19085 0.46859 0.0
H454 H 0.49089 0.24964 0.48102 0.0
H455 H 0.59015 0.30929 0.53031 0.0
H456 H 0.65274 0.4844 0.56443 0.0
H457 H 0.64585 0.43215 0.54592 0.0
H458 H 0.55229 0.37944 0.49133 0.0
C459 C 0.51823 0.24767 0.48266 0.0
C460 C 0.58207 0.32454 0.5216 0.0
C461 C 0.51133 0.21404 0.4755 0.0
C462 C 0.62479 0.46636 0.5537 0.0
C463 C 0.62055 0.4362 0.54319 0.0
C464 C 0.56027 0.36419 0.50009 0.0
C465 C 0.55918 0.27762 0.49268 0.0
C466 C 0.56525 0.31185 0.50187 0.0
C467 C 0.58392 0.41137 0.52958 0.0
C468 C 0.57732 0.37705 0.51986 0.0
H469 H 0.61452 0.23882 0.48918 0.0
H470 H 0.62593 0.29684 0.50207 0.0
H471 H 0.54122 0.32271 0.47594 0.0
H472 H 0.53259 0.45397 0.53387 0.0
H473 H 0.5241 0.40023 0.51582 0.0
C474 C 0.4204 0.48166 0.85531 0.0
C475 C 0.46276 0.51311 0.84812 0.0
C476 C 0.38286 0.48202 0.85644 0.0
C477 C 0.33765 0.53303 0.83816 0.0
H478 H 0.25361 0.48184 0.88141 0.0
C479 C 0.19154 0.54605 0.85501 0.0
C480 C 0.15122 0.51492 0.86366 0.0
C481 C 0.22866 0.54547 0.85159 0.0
C482 C 0.27608 0.49585 0.86897 0.0
H483 H 0.49779 0.56986 0.83643 0.0
H484 H 0.43299 0.57072 0.83858 0.0
H485 H 0.31858 0.48187 0.87883 0.0
H486 H 0.11858 0.45849 0.87508 0.0
H487 H 0.18163 0.45663 0.86853 0.0
H488 H 0.29503 0.54722 0.82843 0.0
C489 C 0.42838 0.5453 0.84315 0.0
C490 C 0.31385 0.49589 0.86749 0.0
C491 C 0.46598 0.54493 0.84202 0.0
C492 C 0.14868 0.48273 0.8681 0.0
C493 C 0.18549 0.48205 0.86465 0.0
C494 C 0.29975 0.53299 0.83965 0.0
C495 C 0.38597 0.51389 0.85046 0.0
C496 C 0.34546 0.51432 0.85202 0.0
C497 C 0.22685 0.5138 0.85684 0.0
C498 C 0.26794 0.5142 0.85504 0.0
H499 H 0.41604 0.45645 0.86009 0.0
H500 H 0.35105 0.45683 0.86183 0.0
H501 H 0.36041 0.54724 0.82583 0.0
H502 H 0.19536 0.57179 0.85191 0.0
H503 H 0.25961 0.57075 0.84571 0.0
C504 C 0.9164 0.40634 0.15855 0.0
C505 C 0.95458 0.41476 0.1484 0.0
C506 C 0.87833 0.36824 0.1612 0.0
C507 C 0.81788 0.26634 0.1439 0.0
H508 H 0.77008 0.24719 0.1974 0.0
C509 C 0.67842 0.11223 0.17294 0.0
C510 C 0.64769 0.10902 0.18669 0.0
C511 C 0.71458 0.14849 0.16611 0.0
C512 C 0.78241 0.25198 0.18228 0.0
H513 H 0.98165 0.3894 0.13229 0.0
H514 H 0.91466 0.32233 0.13701 0.0
H515 H 0.8353 0.31188 0.18943 0.0
H516 H 0.62844 0.14033 0.20296 0.0
H517 H 0.69014 0.20303 0.19067 0.0
H518 H 0.76449 0.20605 0.13684 0.0
C519 C 0.91446 0.34552 0.14287 0.0
C520 C 0.82001 0.28918 0.17772 0.0
C521 C 0.95287 0.38392 0.14022 0.0
C522 C 0.65205 0.14214 0.19255 0.0
C523 C 0.68767 0.1781 0.18562 0.0
C524 C 0.77989 0.22888 0.14846 0.0
C525 C 0.87718 0.33731 0.15379 0.0
C526 C 0.83798 0.29702 0.15843 0.0
C527 C 0.72034 0.18205 0.17284 0.0
C528 C 0.76135 0.22136 0.16768 0.0
H529 H 0.91607 0.42925 0.16478 0.0
H530 H 0.84986 0.363 0.16932 0.0
H531 H 0.83085 0.27145 0.12888 0.0
H532 H 0.67582 0.08707 0.16828 0.0
H533 H 0.7391 0.15044 0.15631 0.0
C534 C 0.06736 0.57513 0.08386 0.0
C535 C 0.06104 0.54665 0.09558 0.0
C536 C 0.0718 0.57351 0.06312 0.0
C537 C 1.04507 0.5047 0.02098 0.0
H538 H 0.13044 0.59737 0.99233 0.0
C539 C 1.04104 0.50467 0.93498 0.0
C540 C 0.08286 0.52666 0.92513 0.0
C541 C 1.0397 0.50743 0.95579 0.0
C542 C 0.1067 0.57117 0.00012 0.0
H543 H 0.0553 0.49461 0.09495 0.0
H544 H 0.06352 0.49198 0.05893 0.0
H545 H 0.12653 0.60202 0.02864 0.0
H546 H 0.15614 0.56876 0.92952 0.0
H547 H 0.15386 0.57311 0.96596 0.0
H548 H 1.02568 0.47374 0.99258 0.0
C549 C 0.06429 0.51522 0.06559 0.0
C550 C 0.10407 0.5739 0.02092 0.0
C551 C 0.05982 0.51684 0.08626 0.0
C552 C 0.12339 0.55124 0.93665 0.0
C553 C 0.12204 0.55405 0.95751 0.0
C554 C 1.04766 0.50198 0.00023 0.0
C555 C 0.07 0.54335 0.05372 0.0
C556 C 0.07317 0.54069 0.0316 0.0
C557 C 0.08014 0.5322 0.96734 0.0
C558 C 0.07837 0.53518 0.98951 0.0
H559 H 0.06844 0.59844 0.09068 0.0
H560 H 0.07571 0.59544 0.05441 0.0
H561 H 1.02052 0.47857 0.02868 0.0
H562 H 1.00922 0.4851 0.92658 0.0
H563 H 1.00681 0.49048 0.96281 0.0
C564 C 0.63638 0.04462 0.40787 0.0
C565 C 0.59735 0.02625 0.41958 0.0
C566 C 0.63348 0.04801 0.38744 0.0
C567 C 0.55234 0.00356 0.34476 0.0
H568 H 0.64728 0.0976 0.31921 0.0
C569 C 0.54239 0.02289 0.26079 0.0
C570 C 0.58284 0.0405 0.25007 0.0
C571 C 0.54318 0.02268 0.28164 0.0
C572 C 0.62071 0.07101 0.32608 0.0
H573 H 0.52481 0.99759 0.4193 0.0
H574 H 0.51965 0.00353 0.38347 0.0
H575 H 0.65016 0.09465 0.35537 0.0
H576 H 0.6558 0.07162 0.25284 0.0
H577 H 0.6572 0.07108 0.2892 0.0
H578 H 0.52323 0.97969 0.31547 0.0
C579 C 0.55243 0.01498 0.39006 0.0
C580 C 0.62233 0.06934 0.34681 0.0
C581 C 0.55539 0.01172 0.41056 0.0
C582 C 0.62415 0.05825 0.26068 0.0
C583 C 0.62493 0.05797 0.28153 0.0
C584 C 0.55077 0.00519 0.32402 0.0
C585 C 0.59145 0.03304 0.37826 0.0
C586 C 0.58838 0.03549 0.35637 0.0
C587 C 0.58442 0.04003 0.29226 0.0
C588 C 0.58515 0.03883 0.31441 0.0
H589 H 0.66918 0.05611 0.41446 0.0
H590 H 0.66406 0.06165 0.37874 0.0
H591 H 0.52599 0.97689 0.35164 0.0
H592 H 0.5101 0.00951 0.25307 0.0
H593 H 0.51147 0.00917 0.28944 0.0
C594 C 0.61203 0.53158 0.78101 0.0
C595 C 0.56939 0.50001 0.78771 0.0
C596 C 0.6194 0.5375 0.76053 0.0
C597 C 0.58146 0.48507 0.71225 0.0
H598 H 0.62233 0.58065 0.68944 0.0
C599 C 0.56827 0.49381 0.62774 0.0
C600 C 0.60159 0.5284 0.61867 0.0
C601 C 0.5677 0.49202 0.6485 0.0
C602 C 0.61173 0.55399 0.69555 0.0
H603 H 0.50108 0.4501 0.77836 0.0
H604 H 0.51439 0.4599 0.7427 0.0
H605 H 0.61649 0.57527 0.72568 0.0
H606 H 0.66091 0.58813 0.62407 0.0
H607 H 0.66101 0.58483 0.66038 0.0
H608 H 0.57741 0.46374 0.68244 0.0
C609 C 0.54192 0.48014 0.75324 0.0
C610 C 0.60825 0.55095 0.7163 0.0
C611 C 0.53432 0.47464 0.77364 0.0
C612 C 0.63462 0.56117 0.63074 0.0
C613 C 0.63449 0.55926 0.65154 0.0
C614 C 0.58563 0.48827 0.69159 0.0
C615 C 0.58453 0.51147 0.74649 0.0
C616 C 0.59224 0.5162 0.72477 0.0
C617 C 0.60092 0.52466 0.66071 0.0
C618 C 0.5999 0.52248 0.68289 0.0
H619 H 0.63974 0.55138 0.79155 0.0
H620 H 0.6526 0.56181 0.75563 0.0
H621 H 0.56962 0.45813 0.71849 0.0
H622 H 0.542 0.46829 0.61878 0.0
H623 H 0.54062 0.46512 0.65496 0.0
C624 C 0.5994 0.03872 0.53898 0.0
C625 C 0.55772 0.02641 0.53066 0.0
C626 C 0.60371 0.03639 0.55947 0.0
C627 C 0.53371 0.99066 0.60481 0.0
H628 H 0.64739 0.07005 0.63312 0.0
C629 C 0.5499 0.01692 0.69057 0.0
C630 C 0.58471 0.01885 0.70002 0.0
C631 C 0.54748 0.01642 0.66975 0.0
C632 C 0.61559 0.04754 0.62533 0.0
H633 H 0.48825 0.00301 0.53724 0.0
H634 H 0.49613 0.00062 0.57297 0.0
H635 H 0.64153 0.07238 0.59705 0.0
H636 H 0.64455 0.0222 0.6953 0.0
H637 H 0.641 0.02236 0.6587 0.0
H638 H 0.50742 0.96695 0.63337 0.0
C639 C 0.52517 0.01066 0.56372 0.0
C640 C 0.61221 0.0487 0.60464 0.0
C641 C 0.5207 0.01239 0.54322 0.0
C642 C 0.61731 0.02057 0.68831 0.0
C643 C 0.61541 0.02084 0.66746 0.0
C644 C 0.53691 0.98995 0.62551 0.0
C645 C 0.56663 0.02238 0.57216 0.0
C646 C 0.57107 0.02041 0.59409 0.0
C647 C 0.5803 0.01854 0.65802 0.0
C648 C 0.57776 0.01848 0.63597 0.0
H649 H 0.62867 0.0501 0.52965 0.0
H650 H 0.63603 0.04529 0.5653 0.0
H651 H 0.50184 0.96779 0.59723 0.0
H652 H 0.52425 0.01536 0.69929 0.0
H653 H 0.52026 0.01487 0.66281 0.0
C654 C 0.54991 0.49125 0.90638 0.0
C655 C 0.59455 0.51863 0.89984 0.0
C656 C 0.54229 0.47574 0.92506 0.0
C657 C 0.59144 0.45613 0.96432 0.0
H658 H 0.51599 0.46562 4e-05 0.0
C659 C 0.52382 0.39031 0.04351 0.0
C660 C 0.54034 0.41975 0.05854 0.0
C661 C 0.5306 0.39911 0.0233 0.0
C662 C 0.5367 0.46246 0.99011 0.0
H663 H 0.66621 0.55053 0.90731 0.0
H664 H 0.6528 0.52286 0.94007 0.0
H665 H 0.5271 0.48698 0.9659 0.0
H666 H 0.57965 0.48179 0.06405 0.0
H667 H 0.58935 0.4965 0.02895 0.0
H668 H 0.60095 0.43161 0.98876 0.0
C669 C 0.62384 0.51363 0.93071 0.0
C670 C 0.54301 0.47458 0.97064 0.0
C671 C 0.63149 0.52965 0.91211 0.0
C672 C 0.5651 0.45818 0.05292 0.0
C673 C 0.57111 0.46677 0.03285 0.0
C674 C 0.58439 0.44328 0.98375 0.0
C675 C 0.57916 0.48687 0.93742 0.0
C676 C 0.57091 0.47202 0.95766 0.0
C677 C 0.55349 0.43733 0.01791 0.0
C678 C 0.55749 0.44692 0.99682 0.0
H679 H 0.52082 0.48214 0.89714 0.0
H680 H 0.50755 0.45502 0.92988 0.0
H681 H 0.61294 0.45374 0.95452 0.0
H682 H 0.50455 0.36045 0.04729 0.0
H683 H 0.51673 0.37602 0.0119 0.0
C684 C 0.09285 0.55005 0.21398 0.0
C685 C 0.08797 0.51966 0.20313 0.0
C686 C 0.08882 0.54941 0.23478 0.0
C687 C 0.09658 0.50525 0.27843 0.0
H688 H 1.0335 0.53891 0.30556 0.0
C689 C 0.05961 0.48617 0.36259 0.0
C690 C 0.0675 0.51762 0.37377 0.0
C691 C 0.06032 0.48575 0.34172 0.0
C692 C 1.05157 0.52974 0.29821 0.0
H693 H 0.07439 0.46455 0.20531 0.0
H694 H 0.06696 0.46318 0.24151 0.0
H695 H 1.0383 0.53973 0.26918 0.0
H696 H 0.08101 0.57278 0.37175 0.0
H697 H 0.08292 0.57232 0.33534 0.0
H698 H 0.10994 0.49532 0.3074 0.0
C699 C 0.07458 0.48782 0.23409 0.0
C700 C 0.05437 0.53025 0.27737 0.0
C701 C 0.07863 0.4885 0.21335 0.0
C702 C 0.07534 0.54834 0.36358 0.0
C703 C 0.07594 0.54787 0.34271 0.0
C704 C 0.09373 0.50469 0.29923 0.0
C705 C 0.07992 0.51836 0.24509 0.0
C706 C 0.07688 0.51798 0.26724 0.0
C707 C 0.0688 0.51672 0.33154 0.0
C708 C 0.0712 0.51692 0.30937 0.0
H709 H 0.10034 0.57454 0.20644 0.0
H710 H 0.09361 0.57359 0.24282 0.0
H711 H 0.11489 0.49626 0.27114 0.0
H712 H 0.05378 0.46218 0.36999 0.0
H713 H 0.05416 0.4611 0.33355 0.0
loop_
_geom_bond_atom_site_label_1
_geom_bond_atom_site_label_2
_geom_bond_distance
_geom_bond_site_symmetry_2
_ccdc_geom_bond_type
Ho0 C3 2.811 . S
Ho0 O20 2.322 . S
Ho0 O22 2.378 . S
Ho0 O23 2.524 . S
Ho0 O24 2.381 . S
Ho0 O25 2.669 . S
Ho0 O27 2.346 1_455 S
Ho0 O31 2.305 . S
Ho1 C12 2.811 . S
Ho1 O21 2.346 1_655 S
Ho1 O25 2.305 1_655 S
Ho1 O26 2.322 . S
Ho1 O28 2.378 . S
Ho1 O29 2.524 . S
Ho1 O30 2.381 1_655 S
Ho1 O31 2.669 1_655 S
C2 O20 1.259 . S
C2 O21 1.268 . S
C3 Ho0 2.811 . S
C3 C4 1.488 . S
C3 O22 1.215 . S
C3 O23 1.289 . S
C4 C3 1.488 . S
C4 C5 1.348 . S
C4 C9 1.413 . S
C5 C4 1.348 . S
C5 C6 1.442 . S
C5 H32 0.930 . S
C6 C5 1.442 . S
C6 C7 1.381 . S
C6 H33 0.931 . S
C7 C6 1.381 . S
C7 C8 1.321 . S
C8 C7 1.321 . S
C8 C9 1.403 . S
C8 H34 0.934 . S
C9 C4 1.413 . S
C9 C8 1.403 . S
C9 H35 0.930 . S
C10 O24 1.275 . S
C10 O25 1.256 . S
C11 O26 1.259 . S
C11 O27 1.268 . S
C12 Ho1 2.811 . S
C12 C13 1.488 . S
C12 O28 1.215 . S
C12 O29 1.289 . S
C13 C12 1.488 . S
C13 C14 1.348 . S
C13 C18 1.413 . S
C14 C13 1.348 . S
C14 C15 1.442 . S
C14 H36 0.930 . S
C15 C14 1.442 . S
C15 C16 1.381 . S
C15 H37 0.931 . S
C16 C15 1.381 . S
C16 C17 1.321 . S
C17 C16 1.321 . S
C17 C18 1.403 . S
C17 H38 0.934 . S
C18 C13 1.413 . S
C18 C17 1.403 . S
C18 H39 0.930 . S
C19 O30 1.275 . S
C19 O31 1.256 . S
O20 Ho0 2.322 . S
O20 C2 1.259 . S
O21 Ho1 2.346 1_455 S
O21 C2 1.268 . S
O22 Ho0 2.378 . S
O22 C3 1.215 . S
O23 Ho0 2.524 . S
O23 C3 1.289 . S
O24 Ho0 2.381 . S
O24 C10 1.275 . S
O25 Ho0 2.669 . S
O25 Ho1 2.305 1_455 S
O25 C10 1.256 . S
O26 Ho1 2.322 . S
O26 C11 1.259 . S
O27 Ho0 2.346 1_655 S
O27 C11 1.268 . S
O28 Ho1 2.378 . S
O28 C12 1.215 . S
O29 Ho1 2.524 . S
O29 C12 1.289 . S
O30 Ho1 2.381 1_455 S
O30 C19 1.275 . S
O31 Ho0 2.305 . S
O31 Ho1 2.669 1_455 S
O31 C19 1.256 . S
H32 C5 0.930 . S
H33 C6 0.931 . S
H34 C8 0.934 . S
H35 C9 0.930 . S
H36 C14 0.930 . S
H37 C15 0.931 . S
H38 C17 0.934 . S
H39 C18 0.930 . S
Ho40 C43 2.811 . S
Ho40 O60 2.322 . S
Ho40 O62 2.378 . S
Ho40 O63 2.524 . S
Ho40 O64 2.381 . S
Ho40 O65 2.669 1_565 S
Ho40 O67 2.346 1_565 S
Ho40 O71 2.301 1_565 S
Ho41 C52 2.811 . S
Ho41 O61 2.346 1_545 S
Ho41 O65 2.305 . S
Ho41 O66 2.322 . S
Ho41 O68 2.378 . S
Ho41 O69 2.524 . S
Ho41 O70 2.381 . S
Ho41 O71 2.674 . S
C42 O60 1.259 . S
C42 O61 1.268 . S
C43 Ho40 2.811 . S
C43 C44 1.488 . S
C43 O62 1.215 . S
C43 O63 1.289 . S
C44 C43 1.488 . S
C44 C45 1.348 . S
C44 C49 1.413 . S
C45 C44 1.348 . S
C45 C46 1.442 . S
C45 H72 0.930 . S
C46 C45 1.442 . S
C46 C47 1.381 . S
C46 H73 0.931 . S
C47 C46 1.381 . S
C47 C48 1.321 . S
C48 C47 1.321 . S
C48 C49 1.403 . S
C48 H74 0.934 . S
C49 C44 1.413 . S
C49 C48 1.403 . S
C49 H75 0.930 . S
C50 O64 1.275 1_545 S
C50 O65 1.256 . S
C51 O66 1.259 . S
C51 O67 1.268 . S
C52 Ho41 2.811 . S
C52 C53 1.488 . S
C52 O68 1.215 . S
C52 O69 1.289 . S
C53 C52 1.488 . S
C53 C54 1.348 . S
C53 C58 1.413 . S
C54 C53 1.348 . S
C54 C55 1.442 . S
C54 H76 0.930 . S
C55 C54 1.442 . S
C55 C56 1.381 . S
C55 H77 0.931 . S
C56 C55 1.381 . S
C56 C57 1.321 . S
C57 C56 1.321 . S
C57 C58 1.403 . S
C57 H78 0.934 . S
C58 C53 1.413 . S
C58 C57 1.403 . S
C58 H79 0.930 . S
C59 O70 1.275 . S
C59 O71 1.259 . S
O60 Ho40 2.322 . S
O60 C42 1.259 . S
O61 Ho41 2.346 1_565 S
O61 C42 1.268 . S
O62 Ho40 2.378 . S
O62 C43 1.215 . S
O63 Ho40 2.524 . S
O63 C43 1.289 . S
O64 Ho40 2.381 . S
O64 C50 1.275 1_565 S
O65 Ho40 2.669 1_545 S
O65 Ho41 2.305 . S
O65 C50 1.256 . S
O66 Ho41 2.322 . S
O66 C51 1.259 . S
O67 Ho40 2.346 1_545 S
O67 C51 1.268 . S
O68 Ho41 2.378 . S
O68 C52 1.215 . S
O69 Ho41 2.524 . S
O69 C52 1.289 . S
O70 Ho41 2.381 . S
O70 C59 1.275 . S
O71 Ho40 2.301 1_545 S
O71 Ho41 2.674 . S
O71 C59 1.259 . S
H72 C45 0.930 . S
H73 C46 0.931 . S
H74 C48 0.934 . S
H75 C49 0.930 . S
H76 C54 0.930 . S
H77 C55 0.931 . S
H78 C57 0.934 . S
H79 C58 0.930 . S
Ho80 C83 2.811 . S
Ho80 O100 2.322 . S
Ho80 O102 2.378 . S
Ho80 O103 2.524 . S
Ho80 O104 2.381 . S
Ho80 O105 2.669 . S
Ho80 O107 2.346 . S
Ho80 O111 2.305 . S
Ho81 C92 2.811 . S
Ho81 O101 2.346 . S
Ho81 O105 2.305 . S
Ho81 O106 2.322 . S
Ho81 O108 2.378 . S
Ho81 O109 2.524 . S
Ho81 O110 2.381 . S
Ho81 O111 2.669 . S
C82 O100 1.259 . S
C82 O101 1.268 . S
C83 Ho80 2.811 . S
C83 C84 1.488 . S
C83 O102 1.215 . S
C83 O103 1.289 . S
C84 C83 1.488 . S
C84 C85 1.348 . S
C84 C89 1.413 . S
C85 C84 1.348 . S
C85 C86 1.442 . S
C85 H112 0.930 . S
C86 C85 1.442 . S
C86 C87 1.381 . S
C86 H113 0.931 . S
C87 C86 1.381 . S
C87 C88 1.321 . S
C88 C87 1.321 . S
C88 C89 1.403 . S
C88 H114 0.934 . S
C89 C84 1.413 . S
C89 C88 1.403 . S
C89 H115 0.930 . S
C90 O104 1.275 . S
C90 O105 1.256 . S
C91 O106 1.259 . S
C91 O107 1.268 . S
C92 Ho81 2.811 . S
C92 C93 1.488 . S
C92 O108 1.215 . S
C92 O109 1.289 . S
C93 C92 1.488 . S
C93 C94 1.348 . S
C93 C98 1.413 . S
C94 C93 1.348 . S
C94 C95 1.442 . S
C94 H116 0.930 . S
C95 C94 1.442 . S
C95 C96 1.381 . S
C95 H117 0.931 . S
C96 C95 1.381 . S
C96 C97 1.321 . S
C97 C96 1.321 . S
C97 C98 1.403 . S
C97 H118 0.934 . S
C98 C93 1.413 . S
C98 C97 1.403 . S
C98 H119 0.930 . S
C99 O110 1.275 . S
C99 O111 1.256 . S
O100 Ho80 2.322 . S
O100 C82 1.259 . S
O101 Ho81 2.346 . S
O101 C82 1.268 . S
O102 Ho80 2.378 . S
O102 C83 1.215 . S
O103 Ho80 2.524 . S
O103 C83 1.289 . S
O104 Ho80 2.381 . S
O104 C90 1.275 . S
O105 Ho80 2.669 . S
O105 Ho81 2.305 . S
O105 C90 1.256 . S
O106 Ho81 2.322 . S
O106 C91 1.259 . S
O107 Ho80 2.346 . S
O107 C91 1.268 . S
O108 Ho81 2.378 . S
O108 C92 1.215 . S
O109 Ho81 2.524 . S
O109 C92 1.289 . S
O110 Ho81 2.381 . S
O110 C99 1.275 . S
O111 Ho80 2.305 . S
O111 Ho81 2.669 . S
O111 C99 1.256 . S
H112 C85 0.930 . S
H113 C86 0.931 . S
H114 C88 0.934 . S
H115 C89 0.930 . S
H116 C94 0.930 . S
H117 C95 0.931 . S
H118 C97 0.934 . S
H119 C98 0.930 . S
H120 C123 0.931 . S
H121 C126 0.928 . S
H122 C128 0.930 . S
C123 H120 0.931 . S
C123 C124 1.413 . S
C123 C125 1.360 1_565 S
C124 C123 1.413 . S
C124 C128 1.429 1_565 S
C125 C123 1.360 1_545 S
C125 C126 1.372 . S
C126 H121 0.928 . S
C126 C125 1.372 . S
C126 C127 1.404 . S
C127 C126 1.404 . S
C127 C128 1.391 . S
C128 H122 0.930 . S
C128 C124 1.429 1_545 S
C128 C127 1.391 . S
H129 C132 0.931 . S
H130 C135 0.928 . S
H131 C137 0.930 . S
C132 H129 0.931 . S
C132 C133 1.413 . S
C132 C134 1.360 . S
C133 C132 1.413 . S
C133 C137 1.429 . S
C134 C132 1.360 . S
C134 C135 1.372 . S
C135 H130 0.928 . S
C135 C134 1.372 . S
C135 C136 1.404 . S
C136 C135 1.404 . S
C136 C137 1.391 . S
C137 H131 0.930 . S
C137 C133 1.429 . S
C137 C136 1.391 . S
H138 C141 0.953 . S
H139 C144 0.928 . S
H140 C146 0.930 . S
C141 H138 0.953 . S
C141 C142 1.413 . S
C141 C143 1.360 . S
C142 C141 1.413 . S
C142 C146 1.429 . S
C143 C141 1.360 . S
C143 C144 1.372 . S
C144 H139 0.928 . S
C144 C143 1.372 . S
C144 C145 1.404 . S
C145 C144 1.404 . S
C145 C146 1.391 . S
C146 H140 0.930 . S
C146 C142 1.429 . S
C146 C145 1.391 . S
H147 C150 0.931 . S
H148 C153 0.928 . S
H149 C155 0.930 . S
C150 H147 0.931 . S
C150 C151 1.413 . S
C150 C152 1.361 1_655 S
C151 C150 1.413 . S
C151 C155 1.429 1_655 S
C152 C150 1.361 1_455 S
C152 C153 1.371 . S
C153 H148 0.928 . S
C153 C152 1.371 . S
C153 C154 1.404 . S
C154 C153 1.404 . S
C154 C155 1.391 . S
C155 H149 0.930 . S
C155 C151 1.429 1_455 S
C155 C154 1.391 . S
H156 C159 0.931 . S
H157 C162 0.928 . S
H158 C164 0.930 . S
C159 H156 0.931 . S
C159 C160 1.413 . S
C159 C161 1.378 . S
C160 C159 1.413 . S
C160 C164 1.429 . S
C161 C159 1.378 . S
C161 C162 1.353 1_545 S
C162 H157 0.928 . S
C162 C161 1.353 1_565 S
C162 C163 1.404 . S
C163 C162 1.404 . S
C163 C164 1.391 1_565 S
C164 H158 0.930 . S
C164 C160 1.429 . S
C164 C163 1.391 1_545 S
H165 C168 0.931 . S
H166 C171 0.928 . S
H167 C173 0.930 . S
C168 H165 0.931 . S
C168 C169 1.413 . S
C168 C170 1.360 . S
C169 C168 1.413 . S
C169 C173 1.429 . S
C170 C168 1.360 . S
C170 C171 1.372 . S
C171 H166 0.928 . S
C171 C170 1.372 . S
C171 C172 1.404 . S
C172 C171 1.404 . S
C172 C173 1.391 . S
C173 H167 0.930 . S
C173 C169 1.429 . S
C173 C172 1.391 . S
C174 C175 1.349 . S
C174 C176 1.327 . S
C174 H199 0.950 . S
C175 C174 1.349 . S
C175 C191 1.349 . S
C176 C174 1.327 . S
C176 C195 1.429 . S
C176 H200 0.950 . S
C177 C194 1.574 . S
C177 C196 1.368 . S
C177 H201 0.949 . S
H178 C182 0.949 . S
C179 C180 1.349 . S
C179 C181 1.327 . S
C179 H202 0.950 . S
C180 C179 1.349 . S
C180 C192 1.349 . S
C181 C179 1.327 . S
C181 C197 1.429 . S
C181 H203 0.950 . S
C182 H178 0.949 . S
C182 C190 1.574 . S
C182 C198 1.368 . S
H183 C191 0.950 . S
H184 C189 0.950 . S
H185 C190 0.949 . S
H186 C192 0.950 . S
H187 C193 0.950 . S
H188 C194 0.949 . S
C189 H184 0.950 . S
C189 C191 1.327 . S
C189 C195 1.429 . S
C190 C182 1.574 . S
C190 H185 0.949 . S
C190 C196 1.368 . S
C191 C175 1.349 . S
C191 H183 0.950 . S
C191 C189 1.327 . S
C192 C180 1.349 . S
C192 H186 0.950 . S
C192 C193 1.327 . S
C193 H187 0.950 . S
C193 C192 1.327 . S
C193 C197 1.429 . S
C194 C177 1.574 . S
C194 H188 0.949 . S
C194 C198 1.368 . S
C195 C176 1.429 . S
C195 C189 1.429 . S
C195 C196 1.523 . S
C196 C177 1.368 . S
C196 C190 1.368 . S
C196 C195 1.523 . S
C197 C181 1.429 . S
C197 C193 1.429 . S
C197 C198 1.523 . S
C198 C182 1.368 . S
C198 C194 1.368 . S
C198 C197 1.523 . S
H199 C174 0.950 . S
H200 C176 0.950 . S
H201 C177 0.949 . S
H202 C179 0.950 . S
H203 C181 0.950 . S
C204 C205 1.349 . S
C204 C206 1.327 . S
C204 H229 0.950 . S
C205 C204 1.349 . S
C205 C221 1.349 . S
C206 C204 1.327 . S
C206 C225 1.429 . S
C206 H230 0.950 . S
C207 C224 1.574 . S
C207 C226 1.368 . S
C207 H231 0.949 . S
H208 C212 0.949 . S
C209 C210 1.349 . S
C209 C211 1.327 . S
C209 H232 0.950 . S
C210 C209 1.349 . S
C210 C222 1.349 . S
C211 C209 1.327 . S
C211 C227 1.429 . S
C211 H233 0.950 . S
C212 H208 0.949 . S
C212 C220 1.574 . S
C212 C228 1.368 . S
H213 C221 0.950 . S
H214 C219 0.950 . S
H215 C220 0.949 . S
H216 C222 0.950 . S
H217 C223 0.950 . S
H218 C224 0.949 . S
C219 H214 0.950 . S
C219 C221 1.327 . S
C219 C225 1.429 . S
C220 C212 1.574 . S
C220 H215 0.949 . S
C220 C226 1.368 . S
C221 C205 1.349 . S
C221 H213 0.950 . S
C221 C219 1.327 . S
C222 C210 1.349 . S
C222 H216 0.950 . S
C222 C223 1.327 . S
C223 H217 0.950 . S
C223 C222 1.327 . S
C223 C227 1.429 . S
C224 C207 1.574 . S
C224 H218 0.949 . S
C224 C228 1.368 . S
C225 C206 1.429 . S
C225 C219 1.429 . S
C225 C226 1.523 . S
C226 C207 1.368 . S
C226 C220 1.368 . S
C226 C225 1.523 . S
C227 C211 1.429 . S
C227 C223 1.429 . S
C227 C228 1.523 . S
C228 C212 1.368 . S
C228 C224 1.368 . S
C228 C227 1.523 . S
H229 C204 0.950 . S
H230 C206 0.950 . S
H231 C207 0.949 . S
H232 C209 0.950 . S
H233 C211 0.950 . S
C234 C235 1.349 . S
C234 C236 1.327 . S
C234 H259 0.950 . S
C235 C234 1.349 . S
C235 C251 1.349 . S
C236 C234 1.327 . S
C236 C255 1.429 . S
C236 H260 0.950 . S
C237 C254 1.574 . S
C237 C256 1.368 . S
C237 H261 0.949 . S
H238 C242 0.949 . S
C239 C240 1.349 . S
C239 C241 1.327 . S
C239 H262 0.950 . S
C240 C239 1.349 . S
C240 C252 1.349 . S
C241 C239 1.327 . S
C241 C257 1.429 . S
C241 H263 0.950 . S
C242 H238 0.949 . S
C242 C250 1.574 . S
C242 C258 1.368 . S
H243 C251 0.950 . S
H244 C249 0.950 . S
H245 C250 0.949 . S
H246 C252 0.950 . S
H247 C253 0.950 . S
H248 C254 0.949 . S
C249 H244 0.950 . S
C249 C251 1.327 . S
C249 C255 1.429 . S
C250 C242 1.574 . S
C250 H245 0.949 . S
C250 C256 1.368 . S
C251 C235 1.349 . S
C251 H243 0.950 . S
C251 C249 1.327 . S
C252 C240 1.349 . S
C252 H246 0.950 . S
C252 C253 1.327 . S
C253 H247 0.950 . S
C253 C252 1.327 . S
C253 C257 1.429 . S
C254 C237 1.574 . S
C254 H248 0.949 . S
C254 C258 1.368 . S
C255 C236 1.429 . S
C255 C249 1.429 . S
C255 C256 1.523 . S
C256 C237 1.368 . S
C256 C250 1.368 . S
C256 C255 1.523 . S
C257 C241 1.429 . S
C257 C253 1.429 . S
C257 C258 1.523 . S
C258 C242 1.368 . S
C258 C254 1.368 . S
C258 C257 1.523 . S
H259 C234 0.950 . S
H260 C236 0.950 . S
H261 C237 0.949 . S
H262 C239 0.950 . S
H263 C241 0.950 . S
C264 C265 1.349 . S
C264 C266 1.327 . S
C264 H289 0.950 . S
C265 C264 1.349 . S
C265 C281 1.349 . S
C266 C264 1.327 . S
C266 C285 1.429 . S
C266 H290 0.950 . S
C267 C284 1.574 . S
C267 C286 1.368 . S
C267 H291 0.949 . S
H268 C272 0.949 . S
C269 C270 1.349 . S
C269 C271 1.327 . S
C269 H292 0.950 . S
C270 C269 1.349 . S
C270 C282 1.349 . S
C271 C269 1.327 . S
C271 C287 1.429 . S
C271 H293 0.950 . S
C272 H268 0.949 . S
C272 C280 1.574 . S
C272 C288 1.368 . S
H273 C281 0.950 . S
H274 C279 0.950 . S
H275 C280 0.949 . S
H276 C282 0.950 . S
H277 C283 0.950 . S
H278 C284 0.949 . S
C279 H274 0.950 . S
C279 C281 1.327 . S
C279 C285 1.429 . S
C280 C272 1.574 . S
C280 H275 0.949 . S
C280 C286 1.368 . S
C281 C265 1.349 . S
C281 H273 0.950 . S
C281 C279 1.327 . S
C282 C270 1.349 . S
C282 H276 0.950 . S
C282 C283 1.327 . S
C283 H277 0.950 . S
C283 C282 1.327 . S
C283 C287 1.429 . S
C284 C267 1.574 . S
C284 H278 0.949 . S
C284 C288 1.368 . S
C285 C266 1.429 . S
C285 C279 1.429 . S
C285 C286 1.523 . S
C286 C267 1.368 . S
C286 C280 1.368 . S
C286 C285 1.523 . S
C287 C271 1.429 . S
C287 C283 1.429 . S
C287 C288 1.523 . S
C288 C272 1.368 . S
C288 C284 1.368 . S
C288 C287 1.523 . S
H289 C264 0.950 . S
H290 C266 0.950 . S
H291 C267 0.949 . S
H292 C269 0.950 . S
H293 C271 0.950 . S
C294 C295 1.349 . S
C294 C296 1.327 . S
C294 H319 0.950 . S
C295 C294 1.349 . S
C295 C311 1.349 . S
C296 C294 1.327 . S
C296 C315 1.429 . S
C296 H320 0.950 . S
C297 C314 1.574 . S
C297 C316 1.368 . S
C297 H321 0.949 . S
H298 C302 0.949 . S
C299 C300 1.349 . S
C299 C301 1.327 . S
C299 H322 0.950 . S
C300 C299 1.349 . S
C300 C312 1.349 . S
C301 C299 1.327 . S
C301 C317 1.429 . S
C301 H323 0.950 . S
C302 H298 0.949 . S
C302 C310 1.574 . S
C302 C318 1.368 . S
H303 C311 0.950 . S
H304 C309 0.950 . S
H305 C310 0.949 . S
H306 C312 0.950 . S
H307 C313 0.950 . S
H308 C314 0.949 . S
C309 H304 0.950 . S
C309 C311 1.327 . S
C309 C315 1.429 . S
C310 C302 1.574 . S
C310 H305 0.949 . S
C310 C316 1.368 . S
C311 C295 1.349 . S
C311 H303 0.950 . S
C311 C309 1.327 . S
C312 C300 1.349 . S
C312 H306 0.950 . S
C312 C313 1.327 . S
C313 H307 0.950 . S
C313 C312 1.327 . S
C313 C317 1.429 . S
C314 C297 1.574 . S
C314 H308 0.949 . S
C314 C318 1.368 . S
C315 C296 1.429 . S
C315 C309 1.429 . S
C315 C316 1.523 . S
C316 C297 1.368 . S
C316 C310 1.368 . S
C316 C315 1.523 . S
C317 C301 1.429 . S
C317 C313 1.429 . S
C317 C318 1.523 . S
C318 C302 1.368 . S
C318 C314 1.368 . S
C318 C317 1.523 . S
H319 C294 0.950 . S
H320 C296 0.950 . S
H321 C297 0.949 . S
H322 C299 0.950 . S
H323 C301 0.950 . S
C324 C325 1.349 . S
C324 C326 1.327 . S
C324 H349 0.950 . S
C325 C324 1.349 . S
C325 C341 1.349 . S
C326 C324 1.327 . S
C326 C345 1.429 . S
C326 H350 0.950 . S
C327 C344 1.574 . S
C327 C346 1.368 . S
C327 H351 0.949 . S
H328 C332 0.949 . S
C329 C330 1.349 . S
C329 C331 1.327 . S
C329 H352 0.950 . S
C330 C329 1.349 . S
C330 C342 1.349 . S
C331 C329 1.327 . S
C331 C347 1.429 . S
C331 H353 0.950 . S
C332 H328 0.949 . S
C332 C340 1.574 . S
C332 C348 1.368 . S
H333 C341 0.950 . S
H334 C339 0.950 . S
H335 C340 0.949 . S
H336 C342 0.950 . S
H337 C343 0.950 . S
H338 C344 0.949 . S
C339 H334 0.950 . S
C339 C341 1.327 . S
C339 C345 1.429 . S
C340 C332 1.574 . S
C340 H335 0.949 . S
C340 C346 1.368 . S
C341 C325 1.349 . S
C341 H333 0.950 . S
C341 C339 1.327 . S
C342 C330 1.349 . S
C342 H336 0.950 . S
C342 C343 1.327 . S
C343 H337 0.950 . S
C343 C342 1.327 . S
C343 C347 1.429 . S
C344 C327 1.574 . S
C344 H338 0.949 . S
C344 C348 1.368 . S
C345 C326 1.429 . S
C345 C339 1.429 . S
C345 C346 1.523 . S
C346 C327 1.368 . S
C346 C340 1.368 . S
C346 C345 1.523 . S
C347 C331 1.429 . S
C347 C343 1.429 . S
C347 C348 1.523 . S
C348 C332 1.368 . S
C348 C344 1.368 . S
C348 C347 1.523 . S
H349 C324 0.950 . S
H350 C326 0.950 . S
H351 C327 0.949 . S
H352 C329 0.950 . S
H353 C331 0.950 . S
C354 C355 1.349 . S
C354 C356 1.327 . S
C354 H379 0.950 . S
C355 C354 1.349 . S
C355 C371 1.349 . S
C356 C354 1.327 . S
C356 C375 1.429 . S
C356 H380 0.950 . S
C357 C374 1.574 . S
C357 C376 1.368 . S
C357 H381 0.949 . S
H358 C362 0.949 . S
C359 C360 1.349 . S
C359 C361 1.327 . S
C359 H382 0.950 . S
C360 C359 1.349 . S
C360 C372 1.349 . S
C361 C359 1.327 . S
C361 C377 1.429 . S
C361 H383 0.950 . S
C362 H358 0.949 . S
C362 C370 1.574 . S
C362 C378 1.368 . S
H363 C371 0.950 . S
H364 C369 0.950 . S
H365 C370 0.949 . S
H366 C372 0.950 . S
H367 C373 0.950 . S
H368 C374 0.949 . S
C369 H364 0.950 . S
C369 C371 1.327 . S
C369 C375 1.429 . S
C370 C362 1.574 . S
C370 H365 0.949 . S
C370 C376 1.368 . S
C371 C355 1.349 . S
C371 H363 0.950 . S
C371 C369 1.327 . S
C372 C360 1.349 . S
C372 H366 0.950 . S
C372 C373 1.327 . S
C373 H367 0.950 . S
C373 C372 1.327 . S
C373 C377 1.429 . S
C374 C357 1.574 . S
C374 H368 0.949 . S
C374 C378 1.368 . S
C375 C356 1.429 . S
C375 C369 1.429 . S
C375 C376 1.523 . S
C376 C357 1.368 . S
C376 C370 1.368 . S
C376 C375 1.523 . S
C377 C361 1.429 . S
C377 C373 1.429 . S
C377 C378 1.523 . S
C378 C362 1.368 . S
C378 C374 1.368 . S
C378 C377 1.523 . S
H379 C354 0.950 . S
H380 C356 0.950 . S
H381 C357 0.949 . S
H382 C359 0.950 . S
H383 C361 0.950 . S
C384 C385 1.349 . S
C384 C386 1.327 . S
C384 H409 0.950 . S
C385 C384 1.349 . S
C385 C401 1.349 . S
C386 C384 1.327 . S
C386 C405 1.429 . S
C386 H410 0.950 . S
C387 C404 1.574 . S
C387 C406 1.368 . S
C387 H411 0.949 . S
H388 C392 0.949 . S
C389 C390 1.349 . S
C389 C391 1.327 . S
C389 H412 0.950 . S
C390 C389 1.349 . S
C390 C402 1.349 . S
C391 C389 1.327 . S
C391 C407 1.429 . S
C391 H413 0.950 . S
C392 H388 0.949 . S
C392 C400 1.574 . S
C392 C408 1.368 . S
H393 C401 0.950 . S
H394 C399 0.950 . S
H395 C400 0.949 . S
H396 C402 0.950 . S
H397 C403 0.950 . S
H398 C404 0.949 . S
C399 H394 0.950 . S
C399 C401 1.327 . S
C399 C405 1.429 . S
C400 C392 1.574 . S
C400 H395 0.949 . S
C400 C406 1.368 . S
C401 C385 1.349 . S
C401 H393 0.950 . S
C401 C399 1.327 . S
C402 C390 1.349 . S
C402 H396 0.950 . S
C402 C403 1.327 . S
C403 H397 0.950 . S
C403 C402 1.327 . S
C403 C407 1.429 . S
C404 C387 1.574 . S
C404 H398 0.949 . S
C404 C408 1.368 . S
C405 C386 1.429 . S
C405 C399 1.429 . S
C405 C406 1.523 . S
C406 C387 1.368 . S
C406 C400 1.368 . S
C406 C405 1.523 . S
C407 C391 1.429 . S
C407 C403 1.429 . S
C407 C408 1.523 . S
C408 C392 1.368 . S
C408 C404 1.368 . S
C408 C407 1.523 . S
H409 C384 0.950 . S
H410 C386 0.950 . S
H411 C387 0.949 . S
H412 C389 0.950 . S
H413 C391 0.950 . S
C414 C415 1.349 . S
C414 C416 1.327 . S
C414 H439 0.950 . S
C415 C414 1.349 . S
C415 C431 1.349 . S
C416 C414 1.327 . S
C416 C435 1.429 . S
C416 H440 0.950 . S
C417 C434 1.574 . S
C417 C436 1.368 . S
C417 H441 0.949 . S
H418 C422 0.949 . S
C419 C420 1.349 . S
C419 C421 1.327 . S
C419 H442 0.950 . S
C420 C419 1.349 . S
C420 C432 1.349 . S
C421 C419 1.327 . S
C421 C437 1.429 . S
C421 H443 0.950 . S
C422 H418 0.949 . S
C422 C430 1.574 . S
C422 C438 1.368 . S
H423 C431 0.950 . S
H424 C429 0.950 . S
H425 C430 0.949 . S
H426 C432 0.950 . S
H427 C433 0.950 . S
H428 C434 0.949 . S
C429 H424 0.950 . S
C429 C431 1.327 . S
C429 C435 1.429 . S
C430 C422 1.574 . S
C430 H425 0.949 . S
C430 C436 1.368 . S
C431 C415 1.349 . S
C431 H423 0.950 . S
C431 C429 1.327 . S
C432 C420 1.349 . S
C432 H426 0.950 . S
C432 C433 1.327 . S
C433 H427 0.950 . S
C433 C432 1.327 . S
C433 C437 1.429 . S
C434 C417 1.574 . S
C434 H428 0.949 . S
C434 C438 1.368 . S
C435 C416 1.429 . S
C435 C429 1.429 . S
C435 C436 1.523 . S
C436 C417 1.368 . S
C436 C430 1.368 . S
C436 C435 1.523 . S
C437 C421 1.429 . S
C437 C433 1.429 . S
C437 C438 1.523 . S
C438 C422 1.368 . S
C438 C434 1.368 . S
C438 C437 1.523 . S
H439 C414 0.950 . S
H440 C416 0.950 . S
H441 C417 0.949 . S
H442 C419 0.950 . S
H443 C421 0.950 . S
C444 C445 1.349 . S
C444 C446 1.327 . S
C444 H469 0.950 . S
C445 C444 1.349 . S
C445 C461 1.349 . S
C446 C444 1.327 . S
C446 C465 1.429 . S
C446 H470 0.950 . S
C447 C464 1.574 . S
C447 C466 1.368 . S
C447 H471 0.949 . S
H448 C452 0.949 . S
C449 C450 1.349 . S
C449 C451 1.327 . S
C449 H472 0.950 . S
C450 C449 1.349 . S
C450 C462 1.349 . S
C451 C449 1.327 . S
C451 C467 1.429 . S
C451 H473 0.950 . S
C452 H448 0.949 . S
C452 C460 1.574 . S
C452 C468 1.368 . S
H453 C461 0.950 . S
H454 C459 0.950 . S
H455 C460 0.949 . S
H456 C462 0.950 . S
H457 C463 0.950 . S
H458 C464 0.949 . S
C459 H454 0.950 . S
C459 C461 1.327 . S
C459 C465 1.429 . S
C460 C452 1.574 . S
C460 H455 0.949 . S
C460 C466 1.368 . S
C461 C445 1.349 . S
C461 H453 0.950 . S
C461 C459 1.327 . S
C462 C450 1.349 . S
C462 H456 0.950 . S
C462 C463 1.327 . S
C463 H457 0.950 . S
C463 C462 1.327 . S
C463 C467 1.429 . S
C464 C447 1.574 . S
C464 H458 0.949 . S
C464 C468 1.368 . S
C465 C446 1.429 . S
C465 C459 1.429 . S
C465 C466 1.523 . S
C466 C447 1.368 . S
C466 C460 1.368 . S
C466 C465 1.523 . S
C467 C451 1.429 . S
C467 C463 1.429 . S
C467 C468 1.523 . S
C468 C452 1.368 . S
C468 C464 1.368 . S
C468 C467 1.523 . S
H469 C444 0.950 . S
H470 C446 0.950 . S
H471 C447 0.949 . S
H472 C449 0.950 . S
H473 C451 0.950 . S
C474 C475 1.349 . S
C474 C476 1.327 . S
C474 H499 0.950 . S
C475 C474 1.349 . S
C475 C491 1.349 . S
C476 C474 1.327 . S
C476 C495 1.429 . S
C476 H500 0.950 . S
C477 C494 1.574 . S
C477 C496 1.368 . S
C477 H501 0.949 . S
H478 C482 0.949 . S
C479 C480 1.349 . S
C479 C481 1.327 . S
C479 H502 0.950 . S
C480 C479 1.349 . S
C480 C492 1.349 . S
C481 C479 1.327 . S
C481 C497 1.429 . S
C481 H503 0.950 . S
C482 H478 0.949 . S
C482 C490 1.574 . S
C482 C498 1.368 . S
H483 C491 0.950 . S
H484 C489 0.950 . S
H485 C490 0.949 . S
H486 C492 0.950 . S
H487 C493 0.950 . S
H488 C494 0.949 . S
C489 H484 0.950 . S
C489 C491 1.327 . S
C489 C495 1.429 . S
C490 C482 1.574 . S
C490 H485 0.949 . S
C490 C496 1.368 . S
C491 C475 1.349 . S
C491 H483 0.950 . S
C491 C489 1.327 . S
C492 C480 1.349 . S
C492 H486 0.950 . S
C492 C493 1.327 . S
C493 H487 0.950 . S
C493 C492 1.327 . S
C493 C497 1.429 . S
C494 C477 1.574 . S
C494 H488 0.949 . S
C494 C498 1.368 . S
C495 C476 1.429 . S
C495 C489 1.429 . S
C495 C496 1.523 . S
C496 C477 1.368 . S
C496 C490 1.368 . S
C496 C495 1.523 . S
C497 C481 1.429 . S
C497 C493 1.429 . S
C497 C498 1.523 . S
C498 C482 1.368 . S
C498 C494 1.368 . S
C498 C497 1.523 . S
H499 C474 0.950 . S
H500 C476 0.950 . S
H501 C477 0.949 . S
H502 C479 0.950 . S
H503 C481 0.950 . S
C504 C505 1.349 . S
C504 C506 1.327 . S
C504 H529 0.950 . S
C505 C504 1.349 . S
C505 C521 1.349 . S
C506 C504 1.327 . S
C506 C525 1.429 . S
C506 H530 0.950 . S
C507 C524 1.574 . S
C507 C526 1.368 . S
C507 H531 0.949 . S
H508 C512 0.949 . S
C509 C510 1.349 . S
C509 C511 1.327 . S
C509 H532 0.950 . S
C510 C509 1.349 . S
C510 C522 1.349 . S
C511 C509 1.327 . S
C511 C527 1.429 . S
C511 H533 0.950 . S
C512 H508 0.949 . S
C512 C520 1.574 . S
C512 C528 1.368 . S
H513 C521 0.950 . S
H514 C519 0.950 . S
H515 C520 0.949 . S
H516 C522 0.950 . S
H517 C523 0.950 . S
H518 C524 0.949 . S
C519 H514 0.950 . S
C519 C521 1.327 . S
C519 C525 1.429 . S
C520 C512 1.574 . S
C520 H515 0.949 . S
C520 C526 1.368 . S
C521 C505 1.349 . S
C521 H513 0.950 . S
C521 C519 1.327 . S
C522 C510 1.349 . S
C522 H516 0.950 . S
C522 C523 1.327 . S
C523 H517 0.950 . S
C523 C522 1.327 . S
C523 C527 1.429 . S
C524 C507 1.574 . S
C524 H518 0.949 . S
C524 C528 1.368 . S
C525 C506 1.429 . S
C525 C519 1.429 . S
C525 C526 1.523 . S
C526 C507 1.368 . S
C526 C520 1.368 . S
C526 C525 1.523 . S
C527 C511 1.429 . S
C527 C523 1.429 . S
C527 C528 1.523 . S
C528 C512 1.368 . S
C528 C524 1.368 . S
C528 C527 1.523 . S
H529 C504 0.950 . S
H530 C506 0.950 . S
H531 C507 0.949 . S
H532 C509 0.950 . S
H533 C511 0.950 . S
C534 C535 1.349 . S
C534 C536 1.327 . S
C534 H559 0.950 . S
C535 C534 1.349 . S
C535 C551 1.349 1_455 S
C536 C534 1.327 . S
C536 C555 1.429 . S
C536 H560 0.950 . S
C537 C554 1.574 . S
C537 C556 1.372 . S
C537 H561 0.946 1_455 S
H538 C542 0.949 . S
C539 C540 1.349 . S
C539 C541 1.327 . S
C539 H562 0.950 1_455 S
C540 C539 1.349 . S
C540 C552 1.349 . S
C541 C539 1.327 . S
C541 C557 1.429 . S
C541 H563 0.950 1_455 S
C542 H538 0.949 . S
C542 C550 1.574 . S
C542 C558 1.368 . S
H543 C551 0.950 . S
H544 C549 0.950 . S
H545 C550 0.949 . S
H546 C552 0.950 . S
H547 C553 0.950 . S
H548 C554 0.949 1_656 S
C549 H544 0.950 . S
C549 C551 1.327 . S
C549 C555 1.429 1_655 S
C550 C542 1.574 . S
C550 H545 0.949 . S
C550 C556 1.368 . S
C551 C535 1.349 1_655 S
C551 H543 0.950 . S
C551 C549 1.327 . S
C552 C540 1.349 . S
C552 H546 0.950 . S
C552 C553 1.327 . S
C553 H547 0.950 . S
C553 C552 1.327 . S
C553 C557 1.429 . S
C554 C537 1.574 . S
C554 H548 0.949 1_454 S
C554 C558 1.368 . S
C555 C536 1.429 . S
C555 C549 1.429 1_455 S
C555 C556 1.523 . S
C556 C537 1.372 . S
C556 C550 1.368 . S
C556 C555 1.523 . S
C557 C541 1.429 . S
C557 C553 1.429 . S
C557 C558 1.523 1_556 S
C558 C542 1.368 . S
C558 C554 1.368 . S
C558 C557 1.523 1_554 S
H559 C534 0.950 . S
H560 C536 0.950 . S
H561 C537 0.946 1_655 S
H562 C539 0.950 1_655 S
H563 C541 0.950 1_655 S
C564 C565 1.349 . S
C564 C566 1.327 . S
C564 H589 0.950 . S
C565 C564 1.349 . S
C565 C581 1.349 1_545 S
C566 C564 1.327 . S
C566 C585 1.429 . S
C566 H590 0.950 . S
C567 C584 1.574 . S
C567 C586 1.368 1_565 S
C567 H591 0.949 . S
H568 C572 0.949 . S
C569 C570 1.349 1_565 S
C569 C571 1.327 . S
C569 H592 0.950 . S
C570 C569 1.349 1_545 S
C570 C582 1.349 . S
C571 C569 1.327 . S
C571 C587 1.429 1_565 S
C571 H593 0.950 . S
C572 H568 0.949 . S
C572 C580 1.574 . S
C572 C588 1.368 . S
H573 C581 0.950 . S
H574 C579 0.950 . S
H575 C580 0.949 . S
H576 C582 0.950 . S
H577 C583 0.950 . S
H578 C584 0.949 . S
C579 H574 0.950 . S
C579 C581 1.327 . S
C579 C585 1.429 1_565 S
C580 C572 1.574 . S
C580 H575 0.949 . S
C580 C586 1.368 . S
C581 C565 1.349 1_565 S
C581 H573 0.950 . S
C581 C579 1.327 . S
C582 C570 1.349 . S
C582 H576 0.950 . S
C582 C583 1.327 . S
C583 H577 0.950 . S
C583 C582 1.327 . S
C583 C587 1.429 . S
C584 C567 1.574 . S
C584 H578 0.949 . S
C584 C588 1.368 1_565 S
C585 C566 1.429 . S
C585 C579 1.429 1_545 S
C585 C586 1.523 . S
C586 C567 1.368 1_545 S
C586 C580 1.368 . S
C586 C585 1.523 . S
C587 C571 1.429 1_545 S
C587 C583 1.429 . S
C587 C588 1.523 . S
C588 C572 1.368 . S
C588 C584 1.368 1_545 S
C588 C587 1.523 . S
H589 C564 0.950 . S
H590 C566 0.950 . S
H591 C567 0.949 . S
H592 C569 0.950 . S
H593 C571 0.950 . S
C594 C595 1.349 . S
C594 C596 1.327 . S
C594 H619 0.950 . S
C595 C594 1.349 . S
C595 C611 1.349 . S
C596 C594 1.327 . S
C596 C615 1.429 . S
C596 H620 0.950 . S
C597 C614 1.574 . S
C597 C616 1.368 . S
C597 H621 0.949 . S
H598 C602 0.949 . S
C599 C600 1.349 . S
C599 C601 1.327 . S
C599 H622 0.950 . S
C600 C599 1.349 . S
C600 C612 1.349 . S
C601 C599 1.327 . S
C601 C617 1.429 . S
C601 H623 0.950 . S
C602 H598 0.949 . S
C602 C610 1.574 . S
C602 C618 1.368 . S
H603 C611 0.950 . S
H604 C609 0.950 . S
H605 C610 0.949 . S
H606 C612 0.950 . S
H607 C613 0.950 . S
H608 C614 0.949 . S
C609 H604 0.950 . S
C609 C611 1.327 . S
C609 C615 1.429 . S
C610 C602 1.574 . S
C610 H605 0.949 . S
C610 C616 1.368 . S
C611 C595 1.349 . S
C611 H603 0.950 . S
C611 C609 1.327 . S
C612 C600 1.349 . S
C612 H606 0.950 . S
C612 C613 1.327 . S
C613 H607 0.950 . S
C613 C612 1.327 . S
C613 C617 1.429 . S
C614 C597 1.574 . S
C614 H608 0.949 . S
C614 C618 1.368 . S
C615 C596 1.429 . S
C615 C609 1.429 . S
C615 C616 1.523 . S
C616 C597 1.368 . S
C616 C610 1.368 . S
C616 C615 1.523 . S
C617 C601 1.429 . S
C617 C613 1.429 . S
C617 C618 1.523 . S
C618 C602 1.368 . S
C618 C614 1.368 . S
C618 C617 1.523 . S
H619 C594 0.950 . S
H620 C596 0.950 . S
H621 C597 0.949 . S
H622 C599 0.950 . S
H623 C601 0.950 . S
C624 C625 1.349 1_565 S
C624 C626 1.327 . S
C624 H649 0.950 . S
C625 C624 1.349 1_545 S
C625 C641 1.349 . S
C626 C624 1.327 . S
C626 C645 1.429 1_565 S
C626 H650 0.950 . S
C627 C644 1.574 . S
C627 C646 1.368 . S
C627 H651 0.949 . S
H628 C632 0.949 . S
C629 C630 1.365 . S
C629 C631 1.327 . S
C629 H652 0.950 . S
C630 C629 1.365 . S
C630 C642 1.334 1_545 S
C631 C629 1.327 . S
C631 C647 1.429 . S
C631 H653 0.950 . S
C632 H628 0.949 . S
C632 C640 1.574 . S
C632 C648 1.368 1_565 S
H633 C641 0.950 . S
H634 C639 0.950 . S
H635 C640 0.949 . S
H636 C642 0.950 . S
H637 C643 0.950 . S
H638 C644 0.949 . S
C639 H634 0.950 . S
C639 C641 1.327 . S
C639 C645 1.429 . S
C640 C632 1.574 . S
C640 H635 0.949 . S
C640 C646 1.368 1_565 S
C641 C625 1.349 . S
C641 H633 0.950 . S
C641 C639 1.327 . S
C642 C630 1.334 1_565 S
C642 H636 0.950 . S
C642 C643 1.327 . S
C643 H637 0.950 . S
C643 C642 1.327 . S
C643 C647 1.429 1_565 S
C644 C627 1.574 . S
C644 H638 0.949 . S
C644 C648 1.368 . S
C645 C626 1.429 1_545 S
C645 C639 1.429 . S
C645 C646 1.523 . S
C646 C627 1.368 . S
C646 C640 1.368 1_545 S
C646 C645 1.523 . S
C647 C631 1.429 . S
C647 C643 1.429 1_545 S
C647 C648 1.523 . S
C648 C632 1.368 1_545 S
C648 C644 1.368 . S
C648 C647 1.523 . S
H649 C624 0.950 . S
H650 C626 0.950 . S
H651 C627 0.949 . S
H652 C629 0.950 . S
H653 C631 0.950 . S
C654 C655 1.349 . S
C654 C656 1.327 . S
C654 H679 0.950 . S
C655 C654 1.349 . S
C655 C671 1.349 . S
C656 C654 1.327 . S
C656 C675 1.429 . S
C656 H680 0.950 . S
C657 C674 1.574 . S
C657 C676 1.368 . S
C657 H681 0.949 . S
H658 C662 0.949 . S
C659 C660 1.349 . S
C659 C661 1.327 . S
C659 H682 0.950 . S
C660 C659 1.349 . S
C660 C672 1.349 . S
C661 C659 1.327 . S
C661 C677 1.429 . S
C661 H683 0.950 . S
C662 H658 0.949 . S
C662 C670 1.574 . S
C662 C678 1.368 . S
H663 C671 0.950 . S
H664 C669 0.950 . S
H665 C670 0.949 . S
H666 C672 0.950 . S
H667 C673 0.950 . S
H668 C674 0.949 . S
C669 H664 0.950 . S
C669 C671 1.327 . S
C669 C675 1.429 . S
C670 C662 1.574 . S
C670 H665 0.949 . S
C670 C676 1.368 . S
C671 C655 1.349 . S
C671 H663 0.950 . S
C671 C669 1.327 . S
C672 C660 1.349 . S
C672 H666 0.950 . S
C672 C673 1.327 . S
C673 H667 0.950 . S
C673 C672 1.327 . S
C673 C677 1.429 . S
C674 C657 1.574 . S
C674 H668 0.949 . S
C674 C678 1.368 . S
C675 C656 1.429 . S
C675 C669 1.429 . S
C675 C676 1.523 . S
C676 C657 1.368 . S
C676 C670 1.368 . S
C676 C675 1.523 . S
C677 C661 1.429 . S
C677 C673 1.429 . S
C677 C678 1.523 1_554 S
C678 C662 1.368 . S
C678 C674 1.368 . S
C678 C677 1.523 1_556 S
H679 C654 0.950 . S
H680 C656 0.950 . S
H681 C657 0.949 . S
H682 C659 0.950 . S
H683 C661 0.950 . S
C684 C685 1.349 . S
C684 C686 1.327 . S
C684 H709 0.950 . S
C685 C684 1.349 . S
C685 C701 1.349 . S
C686 C684 1.327 . S
C686 C705 1.429 . S
C686 H710 0.950 . S
C687 C704 1.574 . S
C687 C706 1.368 . S
C687 H711 0.949 . S
H688 C692 0.949 . S
C689 C690 1.351 1_455 S
C689 C691 1.327 . S
C689 H712 0.950 . S
C690 C689 1.351 1_655 S
C690 C702 1.350 1_655 S
C691 C689 1.327 . S
C691 C707 1.429 . S
C691 H713 0.950 . S
C692 H688 0.949 . S
C692 C700 1.574 . S
C692 C708 1.368 . S
H693 C701 0.950 . S
H694 C699 0.950 . S
H695 C700 0.949 . S
H696 C702 0.928 1_655 S
H697 C703 0.950 . S
H698 C704 0.949 . S
C699 H694 0.950 . S
C699 C701 1.327 . S
C699 C705 1.429 . S
C700 C692 1.574 . S
C700 H695 0.949 . S
C700 C706 1.368 . S
C701 C685 1.349 . S
C701 H693 0.950 . S
C701 C699 1.327 . S
C702 C690 1.350 1_455 S
C702 H696 0.928 1_455 S
C702 C703 1.327 . S
C703 H697 0.950 . S
C703 C702 1.327 . S
C703 C707 1.429 . S
C704 C687 1.574 . S
C704 H698 0.949 . S
C704 C708 1.368 . S
C705 C686 1.429 . S
C705 C699 1.429 . S
C705 C706 1.523 . S
C706 C687 1.368 . S
C706 C700 1.368 . S
C706 C705 1.523 . S
C707 C691 1.429 . S
C707 C703 1.429 . S
C707 C708 1.523 . S
C708 C692 1.368 . S
C708 C704 1.368 . S
C708 C707 1.523 . S
H709 C684 0.950 . S
H710 C686 0.950 . S
H711 C687 0.949 . S
H712 C689 0.950 . S
H713 C691 0.950 . S
C175 C7 0.506 . S
C180 C169 0.461 . S
C205 C51 1.774 . S
C210 C151 1.755 . S
C235 C87 1.182 . S
C240 C163 1.197 . S
C265 C16 0.435 . S
C270 C172 0.297 . S
C300 C154 1.797 . S
C295 C42 1.799 . S
C330 C160 1.292 . S
C325 C96 1.270 . S
C355 C47 1.180 . S
C360 C133 1.195 . S
C385 C91 2.955 . S
C390 C142 2.924 1_655 S
C415 C2 1.839 . S
C420 C124 1.854 . S
C450 C136 1.265 . S
C445 C56 1.239 . S
C480 C145 2.829 . S
C475 C82 2.821 . S
C505 C11 1.753 . S
C510 C127 1.737 . S
C540 C143 1.774 . S
C535 C19 1.714 . S
C565 C50 1.336 . S
C570 C125 1.377 . S
C595 C99 1.460 . S
C600 C134 1.510 . S
C630 C161 1.487 . S
C625 C59 1.447 . S
C660 C170 1.094 . S
C655 C90 1.077 . S
C685 C10 1.332 . S
C690 C152 1.367 1_655 S
