# Generated by pormake.
# Topology anh, (6,3)-cn, num edge types: 1
# Building blocks:
#     Node 0, Type 0, BuildingBlock: MIFKUJ_clean_sbu_0, # of connection points: 6
#     Node 1, Type 0, BuildingBlock: MIFKUJ_clean_sbu_0, # of connection points: 6
#     Node 2, Type 0, BuildingBlock: MIFKUJ_clean_sbu_0, # of connection points: 6
#     Node 3, Type 1, BuildingBlock: QEWDON_clean_linker_0, # of connection points: 3
#     Node 4, Type 1, BuildingBlock: QEWDON_clean_linker_0, # of connection points: 3
#     Node 5, Type 1, BuildingBlock: QEWDON_clean_linker_0, # of connection points: 3
#     Node 6, Type 1, BuildingBlock: QEWDON_clean_linker_0, # of connection points: 3
#     Node 7, Type 1, BuildingBlock: QEWDON_clean_linker_0, # of connection points: 3
#     Node 8, Type 1, BuildingBlock: QEWDON_clean_linker_0, # of connection points: 3
#     Edge 9, Type (0, 1), BuildingBlock: UVAHIK_clean_linker_0, # of connection points: 2
#     Edge 10, Type (0, 1), BuildingBlock: UVAHIK_clean_linker_0, # of connection points: 2
#     Edge 11, Type (0, 1), BuildingBlock: UVAHIK_clean_linker_0, # of connection points: 2
#     Edge 12, Type (0, 1), BuildingBlock: UVAHIK_clean_linker_0, # of connection points: 2
#     Edge 13, Type (0, 1), BuildingBlock: UVAHIK_clean_linker_0, # of connection points: 2
#     Edge 14, Type (0, 1), BuildingBlock: UVAHIK_clean_linker_0, # of connection points: 2
#     Edge 15, Type (0, 1), BuildingBlock: UVAHIK_clean_linker_0, # of connection points: 2
#     Edge 16, Type (0, 1), BuildingBlock: UVAHIK_clean_linker_0, # of connection points: 2
#     Edge 17, Type (0, 1), BuildingBlock: UVAHIK_clean_linker_0, # of connection points: 2
#     Edge 18, Type (0, 1), BuildingBlock: UVAHIK_clean_linker_0, # of connection points: 2
#     Edge 19, Type (0, 1), BuildingBlock: UVAHIK_clean_linker_0, # of connection points: 2
#     Edge 20, Type (0, 1), BuildingBlock: UVAHIK_clean_linker_0, # of connection points: 2
#     Edge 21, Type (0, 1), BuildingBlock: UVAHIK_clean_linker_0, # of connection points: 2
#     Edge 22, Type (0, 1), BuildingBlock: UVAHIK_clean_linker_0, # of connection points: 2
#     Edge 23, Type (0, 1), BuildingBlock: UVAHIK_clean_linker_0, # of connection points: 2
#     Edge 24, Type (0, 1), BuildingBlock: UVAHIK_clean_linker_0, # of connection points: 2
#     Edge 25, Type (0, 1), BuildingBlock: UVAHIK_clean_linker_0, # of connection points: 2
#     Edge 26, Type (0, 1), BuildingBlock: UVAHIK_clean_linker_0, # of connection points: 2
# Relax obj value: 0.065
# Max RMSD: 0.126
# Mean RMSD: 0.117
data_MOF--net-anh--node1-MIFKUJ_clean_sbu_0--node2-QEWDON_clean_linker_0--edge1-UVAHIK_clean_linker_0
_symmetry_space_group_name_H-M    P1
_symmetry_Int_Tables_number       1
_symmetry_cell_setting            triclinic
loop_
_symmetry_equiv_pos_as_xyz
'x, y, z'
_cell_length_a     41.843771
_cell_length_b     41.826721
_cell_length_c     60.019648
_cell_angle_alpha  98.245413
_cell_angle_beta   94.968859
_cell_angle_gamma 119.35094
loop_
_atom_site_label
_atom_site_type_symbol
_atom_site_fract_x
_atom_site_fract_y
_atom_site_fract_z
_atom_type_partial_charge
Zn0 Zn 0.05698 0.59366 0.16295 0.0
Zn1 Zn 0.96711 0.51453 0.15315 0.0
C2 C 0.12304 0.59242 0.17606 0.0
O3 O 0.1253 0.61795 0.19272 0.0
C4 C 0.91935 0.54243 0.14059 0.0
O5 O 0.91737 0.52354 0.12053 0.0
O6 O 0.09102 0.64958 0.16816 0.0
O7 O 0.02445 0.57961 0.1321 0.0
O8 O 0.98948 0.51782 0.12468 0.0
C9 C 0.11226 0.66137 0.15367 0.0
O10 O 0.10883 0.63711 0.13573 0.0
O11 O 0.0935 0.57433 0.16082 0.0
C12 C 0.90878 0.45745 0.16745 0.0
O13 O 0.92355 0.48541 0.18541 0.0
O14 O 0.92346 0.46222 0.14962 0.0
O15 O 0.00061 0.5219 0.18182 0.0
O16 O 0.03393 0.5837 0.19143 0.0
O17 O 0.94215 0.54594 0.15759 0.0
C18 C 0.00948 0.54806 0.11818 0.0
C19 C 0.01695 0.55206 0.19702 0.0
Zn20 Zn 0.5627 0.10098 0.50774 0.0
Zn21 Zn 0.49966 0.98335 0.4973 0.0
C22 C 0.64235 0.14537 0.51315 0.0
O23 O 0.64077 0.1408 0.53431 0.0
C24 C 0.42072 0.93618 0.48381 0.0
O25 O 0.42917 0.94054 0.46347 0.0
O26 O 0.53915 0.13232 0.50939 0.0
O27 O 0.53225 0.05197 0.48745 0.0
O28 O 0.50248 0.99716 0.4658 0.0
C29 C 0.50994 0.12756 0.49753 0.0
O30 O 0.48962 0.09742 0.48117 0.0
O31 O 0.61234 0.12969 0.49857 0.0
C32 C 0.52177 0.93734 0.5155 0.0
O33 O 0.50906 0.94681 0.53297 0.0
O34 O 0.52051 0.94974 0.49756 0.0
O35 O 0.53101 0.02778 0.52493 0.0
O36 O 0.5673 0.08892 0.53847 0.0
O37 O 0.44651 0.95339 0.50133 0.0
C38 C 0.52095 0.03226 0.46743 0.0
C39 C 0.55049 0.05555 0.5418 0.0
Zn40 Zn 0.59795 0.52038 0.83196 0.0
Zn41 Zn 0.51789 0.52559 0.82396 0.0
C42 C 0.57577 0.44784 0.84386 0.0
O43 O 0.58524 0.46783 0.86482 0.0
C44 C 0.53312 0.59582 0.81405 0.0
O45 O 0.51398 0.57239 0.79442 0.0
O46 O 0.65244 0.53949 0.83709 0.0
O47 O 0.58985 0.53605 0.80263 0.0
O48 O 0.52867 0.50919 0.7939 0.0
C49 C 0.66368 0.52727 0.82077 0.0
O50 O 0.63946 0.50435 0.80226 0.0
O51 O 0.57613 0.46349 0.82707 0.0
C52 C 0.44707 0.50658 0.8349 0.0
O53 O 0.46709 0.52157 0.85565 0.0
O54 O 0.46301 0.5048 0.81811 0.0
O55 O 0.52688 0.50681 0.85166 0.0
O56 O 0.58786 0.5419 0.8611 0.0
O57 O 0.54031 0.58281 0.83053 0.0
C58 C 0.56048 0.52446 0.78815 0.0
C59 C 0.55603 0.52662 0.86687 0.0
H60 H 0.52931 0.12812 0.23584 0.0
C61 C 0.50595 0.09968 0.23 0.0
C62 C 0.4964 0.07476 0.24494 0.0
C63 C 0.48527 0.08796 0.20762 0.0
H64 H 0.45774 0.0191 0.24914 0.0
C65 C 0.46557 0.03823 0.23753 0.0
C66 C 0.44434 0.02628 0.21548 0.0
C67 C 0.45467 0.05111 0.20052 0.0
C68 C 0.49513 0.11404 0.19161 0.0
H69 H 0.43849 0.04181 0.18338 0.0
C70 C 0.53263 0.13813 0.19025 0.0
C71 C 0.54194 0.1621 0.17467 0.0
C72 C 0.46697 0.11447 0.17724 0.0
H73 H 0.43787 0.09679 0.17813 0.0
C74 C 0.47607 0.13804 0.16169 0.0
H75 H 0.55457 0.13762 0.20092 0.0
C76 C 0.51328 0.16167 0.16033 0.0
H77 H 0.51966 0.18015 0.14838 0.0
H78 H 0.45418 0.13816 0.15075 0.0
H79 H 0.57268 0.58462 0.54488 0.0
C80 C 0.57685 0.56149 0.53888 0.0
C81 C 0.58504 0.54407 0.55497 0.0
C82 C 0.57276 0.54819 0.51523 0.0
H83 H 0.59063 0.49709 0.55973 0.0
C84 C 0.5875 0.51225 0.54731 0.0
C85 C 0.58234 0.49789 0.52386 0.0
C86 C 0.5769 0.51715 0.50805 0.0
C87 C 0.56133 0.56461 0.49794 0.0
H88 H 0.5745 0.50693 0.49 0.0
C89 C 0.57307 0.60301 0.50249 0.0
C90 C 0.5599 0.61806 0.48709 0.0
C91 C 0.53715 0.54163 0.47715 0.0
H92 H 0.52652 0.51171 0.47321 0.0
C93 C 0.52529 0.55678 0.46137 0.0
H94 H 0.59225 0.62129 0.51814 0.0
C95 C 0.53634 0.59471 0.46632 0.0
H96 H 0.52535 0.60541 0.45425 0.0
H97 H 0.50657 0.53881 0.44552 0.0
H98 H 0.1202 0.57885 0.88281 0.0
C99 C 0.09414 0.57729 0.87691 0.0
C100 C 0.06728 0.56819 0.89102 0.0
C101 C 0.08725 0.58441 0.85526 0.0
H102 H 0.01341 0.56018 0.89486 0.0
C103 C 0.034 0.567 0.88379 0.0
C104 C 0.02713 0.57478 0.86257 0.0
C105 C 0.05354 0.58293 0.84822 0.0
C106 C 0.11472 0.59267 0.83975 0.0
H107 H 0.04782 0.58824 0.83161 0.0
C108 C 0.13278 0.57196 0.83718 0.0
C109 C 0.15801 0.57867 0.82202 0.0
C110 C 0.12224 0.62042 0.82692 0.0
H111 H 0.10907 0.63716 0.82873 0.0
C112 C 0.14714 0.62705 0.81172 0.0
H113 H 0.12655 0.54992 0.84658 0.0
C114 C 0.16492 0.60627 0.8092 0.0
H115 H 0.18457 0.61226 0.79758 0.0
H116 H 0.15282 0.6485 0.80195 0.0
H117 H 0.96598 0.53255 0.44242 0.0
C118 C 0.99422 0.55456 0.45013 0.0
C119 C 0.02153 0.56761 0.43633 0.0
C120 C 0.00321 0.57013 0.4738 0.0
H121 H 0.0789 0.60733 0.43575 0.0
C122 C 0.05793 0.59622 0.4464 0.0
C123 C 0.06709 0.61243 0.46981 0.0
C124 C 0.0397 0.59945 0.48345 0.0
C125 C 0.97474 0.55553 0.48852 0.0
H126 H 0.04705 0.61179 0.50162 0.0
C127 C 0.95116 0.51662 0.48605 0.0
C128 C 0.92525 0.50242 0.50059 0.0
C129 C 0.97173 0.58023 0.50557 0.0
H130 H 0.98927 0.61035 0.5077 0.0
C131 C 0.94585 0.56624 0.51997 0.0
H132 H 0.95383 0.49731 0.47331 0.0
C133 C 0.92281 0.52757 0.5176 0.0
H134 H 0.90283 0.51731 0.52891 0.0
H135 H 0.94367 0.58545 0.53303 0.0
H136 H 0.56274 0.0007 0.78618 0.0
C137 C 0.56788 0.02839 0.79343 0.0
C138 C 0.57598 0.05434 0.7793 0.0
C139 C 0.56577 0.03792 0.81657 0.0
H140 H 0.58466 0.10837 0.77643 0.0
C141 C 0.58066 0.08956 0.78799 0.0
C142 C 0.57838 0.10003 0.81079 0.0
C143 C 0.57156 0.07421 0.8251 0.0
C144 C 0.55579 0.00952 0.83142 0.0
H145 H 0.57098 0.08262 0.8429 0.0
C146 C 0.56562 0.98134 0.82821 0.0
C147 C 0.55491 0.9542 0.84195 0.0
C148 C 0.53497 0.00969 0.84862 0.0
H149 H 0.5256 0.02966 0.85123 0.0
C150 C 0.52486 0.98336 0.86239 0.0
H151 H 0.58196 0.98065 0.81532 0.0
C152 C 0.53464 0.95587 0.85913 0.0
H153 H 0.52539 0.93521 0.86972 0.0
H154 H 0.50872 0.98386 0.87546 0.0
H155 H 0.5147 0.59259 0.11601 0.0
C156 C 0.5351 0.58568 0.12233 0.0
C157 C 0.55406 0.57643 0.10679 0.0
C158 C 0.54437 0.58854 0.14602 0.0
H159 H 0.59661 0.56239 0.10276 0.0
C160 C 0.58171 0.56908 0.11477 0.0
C161 C 0.5915 0.57165 0.13807 0.0
C162 C 0.57269 0.58109 0.15363 0.0
C163 C 0.52699 0.60223 0.16295 0.0
H164 H 0.58034 0.58262 0.17161 0.0
C165 C 0.48984 0.59472 0.15771 0.0
C166 C 0.475 0.60958 0.17373 0.0
C167 C 0.54854 0.6246 0.1845 0.0
H168 H 0.5774 0.6324 0.18902 0.0
C169 C 0.53361 0.63819 0.20053 0.0
H170 H 0.47269 0.57788 0.14123 0.0
C171 C 0.49726 0.63071 0.1953 0.0
H172 H 0.48657 0.64164 0.20826 0.0
H173 H 0.55052 0.65504 0.21708 0.0
C174 C 0.1908 0.61566 0.18787 0.0
C175 C 0.15627 0.58854 0.1741 0.0
C176 C 0.22289 0.61383 0.18592 0.0
C177 C 0.26387 0.57068 0.14784 0.0
H178 H 0.33864 0.60882 0.20283 0.0
C179 C 0.40551 0.56906 0.15773 0.0
C180 C 0.43679 0.60416 0.16856 0.0
C181 C 0.36931 0.56363 0.15595 0.0
C182 C 0.31803 0.59806 0.18731 0.0
H183 H 0.12859 0.53805 0.1473 0.0
H184 H 0.18469 0.53399 0.14439 0.0
H185 H 0.27896 0.60425 0.20532 0.0
H186 H 0.45444 0.66176 0.1841 0.0
H187 H 0.39185 0.65196 0.18156 0.0
H188 H 0.30352 0.56393 0.13009 0.0
C189 C 0.18699 0.55719 0.15647 0.0
C190 C 0.2838 0.59568 0.18866 0.0
C191 C 0.15472 0.55932 0.15825 0.0
C192 C 0.43106 0.63406 0.17627 0.0
C193 C 0.39517 0.62854 0.17475 0.0
C194 C 0.29815 0.57253 0.14656 0.0
C195 C 0.22159 0.58443 0.17038 0.0
C196 C 0.2565 0.58296 0.16889 0.0
C197 C 0.36382 0.59311 0.16512 0.0
C198 C 0.3259 0.58713 0.16624 0.0
H199 H 0.19336 0.63898 0.2 0.0
H200 H 0.24896 0.63605 0.19646 0.0
H201 H 0.24377 0.56088 0.1322 0.0
H202 H 0.40884 0.54542 0.15159 0.0
H203 H 0.34559 0.53602 0.14838 0.0
C204 C 0.70912 0.1964 0.52445 0.0
C205 C 0.67764 0.17305 0.50723 0.0
C206 C 0.74048 0.22662 0.51966 0.0
C207 C 0.76324 0.29063 0.4802 0.0
H208 H 0.86361 0.33344 0.51382 0.0
C209 C 0.88222 0.43794 0.47651 0.0
C210 C 0.90113 0.4614 0.49818 0.0
C211 C 0.85863 0.39935 0.47435 0.0
C212 C 0.83572 0.32171 0.50426 0.0
H213 H 0.65546 0.16107 0.47104 0.0
H214 H 0.71057 0.21347 0.46261 0.0
H215 H 0.81599 0.26963 0.51503 0.0
H216 H 0.91132 0.46289 0.53443 0.0
H217 H 0.86998 0.3955 0.5307 0.0
H218 H 0.78279 0.34303 0.46988 0.0
C219 C 0.71064 0.20901 0.47994 0.0
C220 C 0.80847 0.28524 0.50496 0.0
C221 C 0.67915 0.17888 0.48476 0.0
C222 C 0.89675 0.44548 0.51757 0.0
C223 C 0.87348 0.40689 0.51538 0.0
C224 C 0.79056 0.32695 0.47935 0.0
C225 C 0.74115 0.23398 0.49751 0.0
C226 C 0.77161 0.26974 0.49354 0.0
C227 C 0.85389 0.38352 0.49379 0.0
C228 C 0.82674 0.34323 0.49194 0.0
H229 H 0.70889 0.19258 0.54192 0.0
H230 H 0.76327 0.24546 0.53368 0.0
H231 H 0.73507 0.27986 0.47145 0.0
H232 H 0.88503 0.44955 0.46129 0.0
H233 H 0.8439 0.38192 0.4575 0.0
C234 C 0.55602 0.66018 0.83853 0.0
C235 C 0.54339 0.63589 0.81686 0.0
C236 C 0.56229 0.69686 0.84084 0.0
C237 C 0.53475 0.75324 0.80997 0.0
H238 H 0.61415 0.83819 0.85468 0.0
C239 C 0.55667 0.90215 0.81594 0.0
C240 C 0.56297 0.92291 0.83811 0.0
C241 C 0.55891 0.86943 0.8127 0.0
C242 C 0.59166 0.81473 0.84218 0.0
H243 H 0.52921 0.63195 0.78054 0.0
H244 H 0.54068 0.69547 0.7845 0.0
H245 H 0.60901 0.77679 0.85074 0.0
H246 H 0.57905 0.92675 0.87416 0.0
H247 H 0.58251 0.86979 0.86858 0.0
H248 H 0.51704 0.79082 0.80157 0.0
C249 C 0.54486 0.68613 0.79984 0.0
C250 C 0.58867 0.77944 0.83996 0.0
C251 C 0.5385 0.64963 0.79755 0.0
C252 C 0.57353 0.9112 0.85685 0.0
C253 C 0.57585 0.87862 0.85362 0.0
C254 C 0.53774 0.78844 0.81218 0.0
C255 C 0.55615 0.71012 0.82153 0.0
C256 C 0.56008 0.74811 0.82385 0.0
C257 C 0.56768 0.8567 0.83154 0.0
C258 C 0.56611 0.81972 0.82838 0.0
H259 H 0.56001 0.65053 0.85377 0.0
H260 H 0.57076 0.71436 0.85785 0.0
H261 H 0.51188 0.72977 0.79768 0.0
H262 H 0.54837 0.91022 0.80113 0.0
H263 H 0.55306 0.85369 0.79541 0.0
C264 C 0.87103 0.55594 0.12465 0.0
C265 C 0.89089 0.55337 0.14374 0.0
C266 C 0.84036 0.5605 0.12663 0.0
C267 C 0.78856 0.58243 0.1684 0.0
H268 H 0.70691 0.52689 0.1167 0.0
C269 C 0.65704 0.5978 0.15824 0.0
C270 C 0.62343 0.56697 0.14562 0.0
C271 C 0.6897 0.59589 0.16083 0.0
C272 C 0.72907 0.54216 0.13151 0.0
H273 H 0.89478 0.55492 0.18016 0.0
H274 H 0.84068 0.56203 0.18359 0.0
H275 H 0.76384 0.52552 0.11565 0.0
H276 H 0.59688 0.50936 0.12708 0.0
H277 H 0.65304 0.50515 0.13254 0.0
H278 H 0.75292 0.59801 0.18451 0.0
C279 C 0.84917 0.56119 0.16708 0.0
C280 C 0.76227 0.54199 0.13071 0.0
C281 C 0.88027 0.55709 0.16513 0.0
C282 C 0.62248 0.53349 0.13692 0.0
C283 C 0.65487 0.53136 0.13979 0.0
C284 C 0.75508 0.58239 0.16928 0.0
C285 C 0.82817 0.56199 0.14771 0.0
C286 C 0.79271 0.56235 0.14902 0.0
C287 C 0.68933 0.56297 0.15099 0.0
C288 C 0.72481 0.56227 0.1508 0.0
H289 H 0.87865 0.55352 0.10796 0.0
H290 H 0.82577 0.56216 0.11144 0.0
H291 H 0.81135 0.59864 0.18281 0.0
H292 H 0.65858 0.62412 0.16482 0.0
H293 H 0.71557 0.62092 0.16945 0.0
C294 C 0.37527 0.89729 0.50701 0.0
C295 C 0.3828 0.90764 0.48594 0.0
C296 C 0.34082 0.86684 0.50828 0.0
C297 C 0.26469 0.77952 0.47138 0.0
H298 H 0.21165 0.77496 0.52182 0.0
C299 C 0.13612 0.64205 0.47515 0.0
C300 C 0.1049 0.64461 0.47928 0.0
C301 C 0.17148 0.67416 0.48002 0.0
C302 C 0.22615 0.77587 0.50761 0.0
H303 H 0.35933 0.89577 0.45002 0.0
H304 H 0.29914 0.84316 0.45233 0.0
H305 H 0.26894 0.83317 0.52128 0.0
H306 H 0.08599 0.6819 0.49294 0.0
H307 H 0.1478 0.73842 0.50102 0.0
H308 H 0.22171 0.72295 0.45725 0.0
C309 C 0.32014 0.85795 0.46775 0.0
C310 C 0.25904 0.80908 0.50738 0.0
C311 C 0.35455 0.88826 0.46646 0.0
C312 C 0.10982 0.67932 0.48976 0.0
C313 C 0.14519 0.71161 0.49439 0.0
C314 C 0.23195 0.74649 0.47158 0.0
C315 C 0.31327 0.84625 0.48852 0.0
C316 C 0.27844 0.8113 0.48913 0.0
C317 C 0.17617 0.70954 0.48877 0.0
C318 C 0.21221 0.74424 0.48965 0.0
H319 H 0.39647 0.91172 0.52235 0.0
H320 H 0.33641 0.85842 0.52451 0.0
H321 H 0.27932 0.78007 0.45727 0.0
H322 H 0.13291 0.61541 0.46727 0.0
H323 H 0.19493 0.67148 0.47605 0.0
C324 C 0.56005 0.38842 0.85721 0.0
C325 C 0.5704 0.40946 0.84013 0.0
C326 C 0.55873 0.35392 0.85482 0.0
C327 C 0.56289 0.28116 0.81202 0.0
H328 H 0.5873 0.25231 0.86674 0.0
C329 C 0.60485 0.16852 0.81 0.0
C330 C 0.58114 0.13715 0.81871 0.0
C331 C 0.60313 0.20136 0.81403 0.0
C332 C 0.58024 0.25997 0.85135 0.0
H333 H 0.58759 0.4107 0.80711 0.0
H334 H 0.58702 0.35178 0.8033 0.0
H335 H 0.58444 0.3097 0.87019 0.0
H336 H 0.53879 0.11732 0.83996 0.0
H337 H 0.53723 0.17569 0.8479 0.0
H338 H 0.56072 0.23221 0.79328 0.0
C339 C 0.57844 0.36085 0.81826 0.0
C340 C 0.57828 0.29279 0.85325 0.0
C341 C 0.57892 0.39493 0.82043 0.0
C342 C 0.55762 0.14078 0.83304 0.0
C343 C 0.55649 0.17411 0.83747 0.0
C344 C 0.56572 0.24891 0.81015 0.0
C345 C 0.56862 0.33983 0.8355 0.0
C346 C 0.56966 0.30407 0.83359 0.0
C347 C 0.57842 0.20426 0.82741 0.0
C348 C 0.5745 0.23802 0.82976 0.0
H349 H 0.5532 0.39879 0.87257 0.0
H350 H 0.55008 0.33848 0.86827 0.0
H351 H 0.55522 0.28791 0.79643 0.0
H352 H 0.62417 0.16741 0.79947 0.0
H353 H 0.62083 0.22443 0.8064 0.0
C354 C 0.53677 0.8971 0.53599 0.0
C355 C 0.53569 0.91122 0.51625 0.0
C356 C 0.54765 0.87049 0.53614 0.0
C357 C 0.59348 0.82631 0.50486 0.0
H358 H 0.52647 0.73921 0.52745 0.0
C359 C 0.57506 0.67972 0.4773 0.0
C360 C 0.56809 0.65718 0.49358 0.0
C361 C 0.57854 0.71497 0.48292 0.0
C362 C 0.54594 0.76361 0.52148 0.0
H363 H 0.54647 0.90968 0.48149 0.0
H364 H 0.56481 0.86279 0.48164 0.0
H365 H 0.51913 0.79376 0.53241 0.0
H366 H 0.56062 0.65445 0.52876 0.0
H367 H 0.56758 0.71625 0.53866 0.0
H368 H 0.61946 0.79541 0.49326 0.0
C369 C 0.55774 0.87261 0.4971 0.0
C370 C 0.54173 0.79488 0.52434 0.0
C371 C 0.54692 0.89923 0.49695 0.0
C372 C 0.56635 0.67127 0.51587 0.0
C373 C 0.56992 0.70649 0.5215 0.0
C374 C 0.59768 0.79494 0.50198 0.0
C375 C 0.55762 0.85751 0.51656 0.0
C376 C 0.56503 0.82629 0.51571 0.0
C377 C 0.57511 0.72828 0.50493 0.0
C378 C 0.57354 0.76307 0.50994 0.0
H379 H 0.52858 0.90607 0.5512 0.0
H380 H 0.54773 0.85964 0.55147 0.0
H381 H 0.61212 0.85036 0.49829 0.0
H382 H 0.57696 0.66974 0.46007 0.0
H383 H 0.58226 0.73104 0.46974 0.0
C384 C 0.72863 0.5607 0.84298 0.0
C385 C 0.70285 0.53676 0.82305 0.0
C386 C 0.76505 0.56767 0.84578 0.0
C387 C 0.83539 0.56215 0.81514 0.0
H388 H 0.87436 0.55582 0.87433 0.0
C389 C 0.96963 0.55465 0.83433 0.0
C390 C 0.99243 0.57481 0.85582 0.0
C391 C 0.93524 0.55224 0.82898 0.0
C392 C 0.86408 0.55817 0.8578 0.0
H393 H 0.69526 0.50229 0.79011 0.0
H394 H 0.75888 0.51421 0.79517 0.0
H395 H 0.81257 0.54794 0.86753 0.0
H396 H 0.99863 0.61016 0.88797 0.0
H397 H 0.9389 0.60634 0.87858 0.0
H398 H 0.88708 0.57212 0.80544 0.0
C399 C 0.75096 0.52781 0.8085 0.0
C400 C 0.82871 0.55368 0.85392 0.0
C401 C 0.7145 0.52083 0.80568 0.0
C402 C 0.98115 0.59385 0.87145 0.0
C403 C 0.947 0.5916 0.86609 0.0
C404 C 0.87093 0.56669 0.81904 0.0
C405 C 0.77639 0.55081 0.82874 0.0
C406 C 0.81408 0.55583 0.83262 0.0
C407 C 0.92334 0.5701 0.84503 0.0
C408 C 0.88566 0.56499 0.84049 0.0
H409 H 0.72056 0.57361 0.8566 0.0
H410 H 0.78429 0.58602 0.86141 0.0
H411 H 0.8248 0.56411 0.79858 0.0
H412 H 0.97776 0.53963 0.82205 0.0
H413 H 0.91743 0.53531 0.81266 0.0
C414 C 0.16771 0.71303 0.14262 0.0
C415 C 0.14356 0.70061 0.15837 0.0
C416 C 0.19955 0.7488 0.148 0.0
C417 C 0.26475 0.82153 0.19775 0.0
H418 H 0.29771 0.88529 0.15373 0.0
C419 C 0.38535 0.97476 0.22353 0.0
C420 C 0.4105 0.98838 0.20846 0.0
C421 C 0.35308 0.93947 0.21696 0.0
C422 C 0.28912 0.86759 0.16612 0.0
H423 H 0.13313 0.71653 0.19178 0.0
H424 H 0.18857 0.7791 0.20108 0.0
H425 H 0.23967 0.8247 0.14287 0.0
H426 H 0.4218 0.97546 0.17481 0.0
H427 H 0.36531 0.91352 0.16332 0.0
H428 H 0.31416 0.86415 0.22096 0.0
C429 C 0.18313 0.76092 0.1847 0.0
C430 C 0.25584 0.83296 0.15991 0.0
C431 C 0.15122 0.72519 0.17929 0.0
C432 C 0.40271 0.96585 0.18668 0.0
C433 C 0.37037 0.93045 0.18011 0.0
C434 C 0.29802 0.85605 0.20392 0.0
C435 C 0.20795 0.77286 0.16927 0.0
C436 C 0.24319 0.80969 0.17572 0.0
C437 C 0.34516 0.91691 0.19518 0.0
C438 C 0.31047 0.8796 0.18824 0.0
H439 H 0.16259 0.69477 0.12634 0.0
H440 H 0.21826 0.7571 0.13582 0.0
H441 H 0.25615 0.80385 0.21015 0.0
H442 H 0.39025 0.99174 0.24028 0.0
H443 H 0.33393 0.93018 0.22883 0.0
C444 C 0.48375 0.16418 0.4821 0.0
C445 C 0.50316 0.15914 0.50025 0.0
C446 C 0.4847 0.19831 0.48331 0.0
C447 C 0.51509 0.28932 0.52319 0.0
H448 H 0.54165 0.3311 0.46936 0.0
C449 C 0.59644 0.44718 0.52859 0.0
C450 C 0.57666 0.45989 0.51601 0.0
C451 C 0.58519 0.40917 0.52435 0.0
C452 C 0.53409 0.31958 0.48442 0.0
H453 H 0.53564 0.18409 0.53466 0.0
H454 H 0.53786 0.24321 0.53664 0.0
H455 H 0.5197 0.26455 0.46733 0.0
H456 H 0.53134 0.44289 0.48786 0.0
H457 H 0.51302 0.37688 0.47993 0.0
H458 H 0.53143 0.3449 0.54052 0.0
C459 C 0.52174 0.22124 0.52149 0.0
C460 C 0.52109 0.28148 0.48324 0.0
C461 C 0.52076 0.18735 0.52029 0.0
C462 C 0.54755 0.43429 0.49774 0.0
C463 C 0.53678 0.3964 0.49326 0.0
C464 C 0.52868 0.32741 0.52445 0.0
C465 C 0.5049 0.22767 0.50272 0.0
C466 C 0.51227 0.26614 0.50278 0.0
C467 C 0.55454 0.38344 0.50715 0.0
C468 C 0.53898 0.34291 0.50522 0.0
H469 H 0.46984 0.14278 0.46647 0.0
H470 H 0.4709 0.20225 0.46873 0.0
H471 H 0.50777 0.27825 0.5384 0.0
H472 H 0.61947 0.46629 0.54243 0.0
H473 H 0.59958 0.39963 0.53502 0.0
C474 C 0.38729 0.484 0.80842 0.0
C475 C 0.40754 0.49598 0.83086 0.0
C476 C 0.35172 0.47921 0.8044 0.0
C477 C 0.27448 0.4753 0.83228 0.0
H478 H 0.2705 0.53479 0.78932 0.0
C479 C 0.19348 0.55239 0.83995 0.0
C480 C 0.17777 0.5575 0.82011 0.0
C481 C 0.21388 0.53426 0.83841 0.0
C482 C 0.27052 0.51726 0.80096 0.0
H483 H 0.40532 0.50941 0.86677 0.0
H484 H 0.34348 0.50156 0.85973 0.0
H485 H 0.31971 0.5199 0.79167 0.0
H486 H 0.16947 0.54612 0.78305 0.0
H487 H 0.20514 0.51418 0.7803 0.0
H488 H 0.226 0.47402 0.84217 0.0
C489 C 0.35495 0.49565 0.84525 0.0
C490 C 0.29878 0.5087 0.8023 0.0
C491 C 0.39053 0.50049 0.84927 0.0
C492 C 0.18183 0.54306 0.79863 0.0
C493 C 0.20212 0.52472 0.79707 0.0
C494 C 0.24605 0.48374 0.83086 0.0
C495 C 0.33574 0.48622 0.82274 0.0
C496 C 0.30176 0.4887 0.81849 0.0
C497 C 0.2189 0.52071 0.81698 0.0
C498 C 0.24456 0.50591 0.81572 0.0
H499 H 0.39948 0.47985 0.79387 0.0
H500 H 0.33729 0.47144 0.7869 0.0
H501 H 0.27588 0.45941 0.8447 0.0
H502 H 0.19112 0.56361 0.85676 0.0
H503 H 0.22705 0.53233 0.85411 0.0
C504 C 0.85144 0.39665 0.14751 0.0
C505 C 0.87424 0.42237 0.16785 0.0
C506 C 0.8169 0.36556 0.1481 0.0
C507 C 0.74562 0.33515 0.1849 0.0
H508 H 0.70377 0.23723 0.14484 0.0
C509 C 0.60763 0.20926 0.19402 0.0
C510 C 0.58151 0.18819 0.17371 0.0
C511 C 0.6444 0.23552 0.1932 0.0
C512 C 0.71508 0.26452 0.15603 0.0
H513 H 0.87987 0.43458 0.20482 0.0
H514 H 0.82035 0.38016 0.20589 0.0
H515 H 0.7667 0.28717 0.1436 0.0
H516 H 0.57374 0.17704 0.13664 0.0
H517 H 0.63808 0.22324 0.13523 0.0
H518 H 0.69419 0.31269 0.19732 0.0
C519 C 0.82845 0.38443 0.18942 0.0
C520 C 0.75105 0.29311 0.1553 0.0
C521 C 0.86269 0.41554 0.18882 0.0
C522 C 0.59319 0.19319 0.15257 0.0
C523 C 0.63007 0.21934 0.15176 0.0
C524 C 0.70988 0.30661 0.18571 0.0
C525 C 0.80471 0.35957 0.16906 0.0
C526 C 0.76674 0.32875 0.16977 0.0
C527 C 0.6559 0.24117 0.17207 0.0
C528 C 0.69422 0.271 0.17131 0.0
H529 H 0.85962 0.40126 0.1311 0.0
H530 H 0.79918 0.34707 0.13209 0.0
H531 H 0.75644 0.36249 0.19589 0.0
H532 H 0.59939 0.20619 0.21056 0.0
H533 H 0.66381 0.25168 0.20914 0.0
C534 C 0.00138 0.51235 0.07871 0.0
C535 C 0.01641 0.54682 0.09438 0.0
C536 C 0.01006 0.51131 0.05673 0.0
C537 C 0.08058 0.56628 0.0238 0.0
H538 H 0.00157 0.5067 0.97104 0.0
C539 C 0.09518 0.59134 0.93237 0.0
C540 C 0.0734 0.56105 0.91384 0.0
C541 C 0.09291 0.58609 0.95479 0.0
C542 C 0.0242 0.52285 0.98555 0.0
H543 H 0.05158 0.60727 0.09894 0.0
H544 H 0.06671 0.60532 0.06073 0.0
H545 H 0.98697 0.50433 0.00932 0.0
H546 H 0.03421 0.50133 0.90372 0.0
H547 H 0.03136 0.49161 0.94287 0.0
H548 H 0.1178 0.58513 4e-05 0.0
C549 C 0.04867 0.57911 0.06556 0.0
C550 C 0.01571 0.5216 0.00751 0.0
C551 C 0.03978 0.58019 0.08743 0.0
C552 C 0.05145 0.52498 0.91789 0.0
C553 C 0.04947 0.5196 0.94026 0.0
C554 C 0.08915 0.56733 0.00182 0.0
C555 C 0.03413 0.54467 0.05004 0.0
C556 C 0.04368 0.54381 0.02684 0.0
C557 C 0.06888 0.55038 0.95898 0.0
C558 C 0.06094 0.54611 0.9824 0.0
H559 H 0.98332 0.48612 0.0835 0.0
H560 H 0.9985 0.48435 0.04511 0.0
H561 H 0.10281 0.58327 0.03844 0.0
H562 H 0.11176 0.61948 0.92952 0.0
H563 H 0.108 0.61051 0.96872 0.0
C564 C 0.52634 0.02545 0.42619 0.0
C565 C 0.53108 0.04865 0.44708 0.0
C566 C 0.53513 0.04027 0.40672 0.0
C567 C 0.53325 0.10769 0.37793 0.0
H568 H 0.59305 0.08553 0.33971 0.0
C569 C 0.5235 0.11898 0.28346 0.0
C570 C 0.51729 0.08645 0.26867 0.0
C571 C 0.5371 0.12603 0.30689 0.0
C572 C 0.57632 0.09205 0.35017 0.0
H573 H 0.54964 0.10585 0.46403 0.0
H574 H 0.56319 0.13143 0.42943 0.0
H575 H 0.59339 0.07486 0.37865 0.0
H576 H 0.52323 0.03754 0.26627 0.0
H577 H 0.54618 0.04924 0.30683 0.0
H578 H 0.51361 0.12187 0.34899 0.0
C579 C 0.55318 0.10188 0.42842 0.0
C580 C 0.57674 0.08615 0.37248 0.0
C581 C 0.54526 0.08718 0.44813 0.0
C582 C 0.5274 0.06262 0.27736 0.0
C583 C 0.54097 0.06963 0.30063 0.0
C584 C 0.53235 0.11307 0.35546 0.0
C585 C 0.54819 0.07846 0.40758 0.0
C586 C 0.55415 0.09259 0.38622 0.0
C587 C 0.54489 0.10076 0.31585 0.0
C588 C 0.55266 0.10376 0.34099 0.0
H589 H 0.51575 0.99572 0.42485 0.0
H590 H 0.53072 0.0216 0.39077 0.0
H591 H 0.51546 0.11268 0.38823 0.0
H592 H 0.51588 0.13779 0.27718 0.0
H593 H 0.54023 0.15051 0.31808 0.0
C594 C 0.53286 0.52596 0.74985 0.0
C595 C 0.56349 0.5304 0.76451 0.0
C596 C 0.53604 0.53304 0.72787 0.0
C597 C 0.60606 0.57956 0.69147 0.0
H598 H 0.52266 0.51394 0.6419 0.0
C599 C 0.61643 0.56057 0.59564 0.0
C600 C 0.58694 0.55579 0.57974 0.0
C601 C 0.615 0.56452 0.61897 0.0
C602 C 0.54597 0.53293 0.65561 0.0
H603 H 0.6214 0.54531 0.76741 0.0
H604 H 0.62658 0.55634 0.72878 0.0
H605 H 0.51698 0.50504 0.68082 0.0
H606 H 0.53375 0.55322 0.57572 0.0
H607 H 0.53109 0.55997 0.61664 0.0
H608 H 0.63547 0.60632 0.66585 0.0
C609 C 0.60036 0.54843 0.73448 0.0
C610 C 0.54275 0.52784 0.67797 0.0
C611 C 0.5973 0.54176 0.75658 0.0
C612 C 0.55695 0.55715 0.58768 0.0
C613 C 0.55529 0.56065 0.61101 0.0
C614 C 0.6094 0.58438 0.66903 0.0
C615 C 0.56979 0.54428 0.71985 0.0
C616 C 0.57285 0.55086 0.69618 0.0
C617 C 0.58381 0.5633 0.6268 0.0
C618 C 0.57946 0.5609 0.65086 0.0
H619 H 0.50649 0.51756 0.75547 0.0
H620 H 0.51208 0.53012 0.71726 0.0
H621 H 0.62958 0.59829 0.7051 0.0
H622 H 0.63983 0.5596 0.58988 0.0
H623 H 0.63727 0.56629 0.6307 0.0
C624 C 0.58722 0.07621 0.58126 0.0
C625 C 0.55516 0.04955 0.56524 0.0
C626 C 0.59126 0.0722 0.60381 0.0
C627 C 0.55518 0.00548 0.64241 0.0
H628 H 0.59426 0.09741 0.68818 0.0
C629 C 0.54783 0.01415 0.73967 0.0
C630 C 0.57816 0.04505 0.75494 0.0
C631 C 0.547 0.01026 0.716 0.0
C632 C 0.58385 0.07154 0.67566 0.0
H633 H 0.50216 0.99777 0.56022 0.0
H634 H 0.50905 0.99076 0.59988 0.0
H635 H 0.58828 0.09929 0.64793 0.0
H636 H 0.63269 0.09411 0.75784 0.0
H637 H 0.63165 0.08703 0.71671 0.0
H638 H 0.5501 0.97777 0.67052 0.0
C639 C 0.53142 0.01439 0.59483 0.0
C640 C 0.5804 0.07261 0.65253 0.0
C641 C 0.52747 0.01834 0.57213 0.0
C642 C 0.60882 0.07028 0.74635 0.0
C643 C 0.60809 0.06633 0.72283 0.0
C644 C 0.55853 0.00439 0.6657 0.0
C645 C 0.56313 0.04165 0.61102 0.0
C646 C 0.56629 0.03971 0.63559 0.0
C647 C 0.57654 0.03721 0.70736 0.0
C648 C 0.57319 0.03752 0.68256 0.0
H649 H 0.60922 0.10038 0.57639 0.0
H650 H 0.61639 0.0933 0.61569 0.0
H651 H 0.54437 0.97967 0.62977 0.0
H652 H 0.52379 0.99445 0.74593 0.0
H653 H 0.5223 0.98756 0.7045 0.0
C654 C 0.58346 0.55874 0.90813 0.0
C655 C 0.55263 0.53183 0.89132 0.0
C656 C 0.57972 0.5647 0.93104 0.0
C657 C 0.52118 0.52003 0.97245 0.0
H658 H 0.57014 0.62203 0.00813 0.0
C659 C 0.51279 0.55172 0.06813 0.0
C660 C 0.54755 0.57676 0.08224 0.0
C661 C 0.50897 0.54802 0.04431 0.0
C662 C 0.55636 0.59337 0.99841 0.0
H663 H 0.49385 0.48946 0.88553 0.0
H664 H 0.48741 0.49993 0.92548 0.0
H665 H 0.57319 0.61105 0.96755 0.0
H666 H 0.6049 0.61897 0.08295 0.0
H667 H 0.59839 0.61277 0.04164 0.0
H668 H 0.50515 0.50232 0.00346 0.0
C669 C 0.51446 0.5164 0.92094 0.0
C670 C 0.55822 0.58709 0.97519 0.0
C671 C 0.51814 0.51057 0.89801 0.0
C672 C 0.57781 0.59945 0.07236 0.0
C673 C 0.57398 0.596 0.0487 0.0
C674 C 0.51941 0.52631 0.99572 0.0
C675 C 0.54512 0.54373 0.93769 0.0
C676 C 0.5412 0.55034 0.96203 0.0
C677 C 0.53979 0.56961 0.03432 0.0
C678 C 0.53756 0.56306 0.00907 0.0
H679 H 0.61042 0.57555 0.90357 0.0
H680 H 0.60402 0.58557 0.9436 0.0
H681 H 0.508 0.49137 0.96282 0.0
H682 H 0.48915 0.53382 0.07543 0.0
H683 H 0.48217 0.5277 0.03368 0.0
C684 C 0.03047 0.58272 0.23855 0.0
C685 C 0.01502 0.54995 0.22133 0.0
C686 C 0.02726 0.58038 0.26134 0.0
C687 C 0.01038 0.51649 0.3011 0.0
H688 H 0.98942 0.58504 0.3387 0.0
C689 C 0.03631 0.54616 0.39964 0.0
C690 C 0.0122 0.55382 0.41116 0.0
C691 C 0.03152 0.53974 0.3758 0.0
C692 C 0.99474 0.56531 0.32835 0.0
H693 H 0.98433 0.48897 0.21464 0.0
H694 H 0.97855 0.48504 0.25425 0.0
H695 H 0.99204 0.58696 0.29847 0.0
H696 H 0.96288 0.55862 0.40677 0.0
H697 H 0.95413 0.54686 0.36496 0.0
H698 H 0.01311 0.49487 0.33102 0.0
C699 C 0.99343 0.51252 0.2502 0.0
C700 C 0.99679 0.5668 0.30539 0.0
C701 C 0.99662 0.51483 0.22745 0.0
C702 C 0.98179 0.55263 0.39832 0.0
C703 C 0.97706 0.54634 0.37443 0.0
C704 C 0.00841 0.51504 0.32409 0.0
C705 C 0.00858 0.54524 0.26739 0.0
C706 C 0.00506 0.54271 0.29157 0.0
C707 C 0.00252 0.54092 0.36297 0.0
C708 C 0.00098 0.53973 0.33804 0.0
H709 H 0.04487 0.6102 0.23445 0.0
H710 H 0.03971 0.60613 0.27426 0.0
H711 H 0.01702 0.49768 0.29095 0.0
H712 H 0.05981 0.54661 0.40914 0.0
H713 H 0.05174 0.53586 0.36754 0.0
loop_
_geom_bond_atom_site_label_1
_geom_bond_atom_site_label_2
_geom_bond_distance
_geom_bond_site_symmetry_2
_ccdc_geom_bond_type
Zn0 O6 1.969 . S
Zn0 O7 1.965 . S
Zn0 O11 2.024 . S
Zn0 O16 1.969 . S
Zn1 O8 1.969 . S
Zn1 O14 1.969 . S
Zn1 O15 1.950 1_655 S
Zn1 O17 2.024 . S
C2 O3 1.229 . S
C2 O11 1.058 . S
O3 C2 1.229 . S
C4 O5 1.229 . S
C4 O17 1.058 . S
O5 C4 1.229 . S
O6 Zn0 1.969 . S
O6 C9 1.267 . S
O7 Zn0 1.965 . S
O7 C18 1.260 . S
O8 Zn1 1.969 . S
O8 C18 1.258 1_655 S
C9 O6 1.267 . S
C9 O10 1.228 . S
O10 C9 1.228 . S
O11 Zn0 2.024 . S
O11 C2 1.058 . S
C12 O13 1.228 . S
C12 O14 1.267 . S
O13 C12 1.228 . S
O14 Zn1 1.969 . S
O14 C12 1.267 . S
O15 Zn1 1.950 1_455 S
O15 C19 1.267 . S
O16 Zn0 1.969 . S
O16 C19 1.258 . S
O17 Zn1 2.024 . S
O17 C4 1.058 . S
C18 O7 1.260 . S
C18 O8 1.258 1_455 S
C19 O15 1.267 . S
C19 O16 1.258 . S
Zn20 O26 1.969 . S
Zn20 O27 1.965 . S
Zn20 O31 2.024 . S
Zn20 O36 1.969 . S
Zn21 O28 1.969 1_565 S
Zn21 O34 1.969 . S
Zn21 O35 1.965 1_565 S
Zn21 O37 2.024 . S
C22 O23 1.229 . S
C22 O31 1.058 . S
O23 C22 1.229 . S
C24 O25 1.229 . S
C24 O37 1.058 . S
O25 C24 1.229 . S
O26 Zn20 1.969 . S
O26 C29 1.267 . S
O27 Zn20 1.965 . S
O27 C38 1.260 . S
O28 Zn21 1.969 1_545 S
O28 C38 1.258 . S
C29 O26 1.267 . S
C29 O30 1.228 . S
O30 C29 1.228 . S
O31 Zn20 2.024 . S
O31 C22 1.058 . S
C32 O33 1.228 . S
C32 O34 1.267 . S
O33 C32 1.228 . S
O34 Zn21 1.969 . S
O34 C32 1.267 . S
O35 Zn21 1.965 1_545 S
O35 C39 1.260 . S
O36 Zn20 1.969 . S
O36 C39 1.258 . S
O37 Zn21 2.024 . S
O37 C24 1.058 . S
C38 O27 1.260 . S
C38 O28 1.258 . S
C39 O35 1.260 . S
C39 O36 1.258 . S
Zn40 O46 1.969 . S
Zn40 O47 1.965 . S
Zn40 O51 2.024 . S
Zn40 O56 1.969 . S
Zn41 O48 1.969 . S
Zn41 O54 1.969 . S
Zn41 O55 1.965 . S
Zn41 O57 2.024 . S
C42 O43 1.229 . S
C42 O51 1.058 . S
O43 C42 1.229 . S
C44 O45 1.229 . S
C44 O57 1.058 . S
O45 C44 1.229 . S
O46 Zn40 1.969 . S
O46 C49 1.267 . S
O47 Zn40 1.965 . S
O47 C58 1.260 . S
O48 Zn41 1.969 . S
O48 C58 1.258 . S
C49 O46 1.267 . S
C49 O50 1.228 . S
O50 C49 1.228 . S
O51 Zn40 2.024 . S
O51 C42 1.058 . S
C52 O53 1.228 . S
C52 O54 1.267 . S
O53 C52 1.228 . S
O54 Zn41 1.969 . S
O54 C52 1.267 . S
O55 Zn41 1.965 . S
O55 C59 1.260 . S
O56 Zn40 1.969 . S
O56 C59 1.258 . S
O57 Zn41 2.024 . S
O57 C44 1.058 . S
C58 O47 1.260 . S
C58 O48 1.258 . S
C59 O55 1.260 . S
C59 O56 1.258 . S
H60 C61 0.949 . S
C61 H60 0.949 . S
C61 C62 1.395 . S
C61 C63 1.391 . S
C62 C61 1.395 . S
C62 C65 1.390 . S
C63 C61 1.391 . S
C63 C67 1.387 . S
C63 C68 1.491 . S
H64 C65 0.950 . S
C65 C62 1.390 . S
C65 H64 0.950 . S
C65 C66 1.378 . S
C66 C65 1.378 . S
C66 C67 1.409 . S
C67 C63 1.387 . S
C67 C66 1.409 . S
C67 H69 0.951 . S
C68 C63 1.491 . S
C68 C70 1.382 . S
C68 C72 1.404 . S
H69 C67 0.951 . S
C70 C68 1.382 . S
C70 C71 1.390 . S
C70 H75 0.949 . S
C71 C70 1.390 . S
C71 C76 1.399 . S
C72 C68 1.404 . S
C72 H73 0.950 . S
C72 C74 1.375 . S
H73 C72 0.950 . S
C74 C72 1.375 . S
C74 C76 1.382 . S
C74 H78 0.950 . S
H75 C70 0.949 . S
C76 C71 1.399 . S
C76 C74 1.382 . S
C76 H77 0.952 . S
H77 C76 0.952 . S
H78 C74 0.950 . S
H79 C80 0.949 . S
C80 H79 0.949 . S
C80 C81 1.395 . S
C80 C82 1.391 . S
C81 C80 1.395 . S
C81 C84 1.390 . S
C82 C80 1.391 . S
C82 C86 1.387 . S
C82 C87 1.491 . S
H83 C84 0.950 . S
C84 C81 1.390 . S
C84 H83 0.950 . S
C84 C85 1.378 . S
C85 C84 1.378 . S
C85 C86 1.409 . S
C86 C82 1.387 . S
C86 C85 1.409 . S
C86 H88 0.951 . S
C87 C82 1.491 . S
C87 C89 1.382 . S
C87 C91 1.404 . S
H88 C86 0.951 . S
C89 C87 1.382 . S
C89 C90 1.390 . S
C89 H94 0.949 . S
C90 C89 1.390 . S
C90 C95 1.399 . S
C91 C87 1.404 . S
C91 H92 0.950 . S
C91 C93 1.375 . S
H92 C91 0.950 . S
C93 C91 1.375 . S
C93 C95 1.382 . S
C93 H97 0.950 . S
H94 C89 0.949 . S
C95 C90 1.399 . S
C95 C93 1.382 . S
C95 H96 0.952 . S
H96 C95 0.952 . S
H97 C93 0.950 . S
H98 C99 0.949 . S
C99 H98 0.949 . S
C99 C100 1.395 . S
C99 C101 1.391 . S
C100 C99 1.395 . S
C100 C103 1.390 . S
C101 C99 1.391 . S
C101 C105 1.387 . S
C101 C106 1.491 . S
H102 C103 0.950 1_655 S
C103 C100 1.390 . S
C103 H102 0.950 1_455 S
C103 C104 1.378 . S
C104 C103 1.378 . S
C104 C105 1.409 . S
C105 C101 1.387 . S
C105 C104 1.409 . S
C105 H107 0.951 . S
C106 C101 1.491 . S
C106 C108 1.382 . S
C106 C110 1.404 . S
H107 C105 0.951 . S
C108 C106 1.382 . S
C108 C109 1.390 . S
C108 H113 0.949 . S
C109 C108 1.390 . S
C109 C114 1.399 . S
C110 C106 1.404 . S
C110 H111 0.950 . S
C110 C112 1.375 . S
H111 C110 0.950 . S
C112 C110 1.375 . S
C112 C114 1.382 . S
C112 H116 0.950 . S
H113 C108 0.949 . S
C114 C109 1.399 . S
C114 C112 1.382 . S
C114 H115 0.952 . S
H115 C114 0.952 . S
H116 C112 0.950 . S
H117 C118 0.949 1_655 S
C118 H117 0.949 1_455 S
C118 C119 1.395 . S
C118 C120 1.391 . S
C119 C118 1.395 . S
C119 C122 1.390 . S
C120 C118 1.391 . S
C120 C124 1.387 . S
C120 C125 1.491 1_455 S
H121 C122 0.950 . S
C122 C119 1.390 . S
C122 H121 0.950 . S
C122 C123 1.378 . S
C123 C122 1.378 . S
C123 C124 1.409 . S
C124 C120 1.387 . S
C124 C123 1.409 . S
C124 H126 0.951 . S
C125 C120 1.491 1_655 S
C125 C127 1.382 . S
C125 C129 1.404 . S
H126 C124 0.951 . S
C127 C125 1.382 . S
C127 C128 1.390 . S
C127 H132 0.949 . S
C128 C127 1.390 . S
C128 C133 1.399 . S
C129 C125 1.404 . S
C129 H130 0.950 1_655 S
C129 C131 1.375 . S
H130 C129 0.950 1_455 S
C131 C129 1.375 . S
C131 C133 1.382 . S
C131 H135 0.950 . S
H132 C127 0.949 . S
C133 C128 1.399 . S
C133 C131 1.382 . S
C133 H134 0.952 . S
H134 C133 0.952 . S
H135 C131 0.950 . S
H136 C137 0.949 . S
C137 H136 0.949 . S
C137 C138 1.395 . S
C137 C139 1.391 . S
C138 C137 1.395 . S
C138 C141 1.390 . S
C139 C137 1.391 . S
C139 C143 1.387 . S
C139 C144 1.491 . S
H140 C141 0.950 . S
C141 C138 1.390 . S
C141 H140 0.950 . S
C141 C142 1.378 . S
C142 C141 1.378 . S
C142 C143 1.409 . S
C143 C139 1.387 . S
C143 C142 1.409 . S
C143 H145 0.951 . S
C144 C139 1.491 . S
C144 C146 1.382 1_545 S
C144 C148 1.404 . S
H145 C143 0.951 . S
C146 C144 1.382 1_565 S
C146 C147 1.390 . S
C146 H151 0.949 . S
C147 C146 1.390 . S
C147 C152 1.399 . S
C148 C144 1.404 . S
C148 H149 0.950 . S
C148 C150 1.375 1_545 S
H149 C148 0.950 . S
C150 C148 1.375 1_565 S
C150 C152 1.382 . S
C150 H154 0.950 . S
H151 C146 0.949 . S
C152 C147 1.399 . S
C152 C150 1.382 . S
C152 H153 0.952 . S
H153 C152 0.952 . S
H154 C150 0.950 . S
H155 C156 0.949 . S
C156 H155 0.949 . S
C156 C157 1.395 . S
C156 C158 1.391 . S
C157 C156 1.395 . S
C157 C160 1.390 . S
C158 C156 1.391 . S
C158 C162 1.387 . S
C158 C163 1.491 . S
H159 C160 0.950 . S
C160 C157 1.390 . S
C160 H159 0.950 . S
C160 C161 1.378 . S
C161 C160 1.378 . S
C161 C162 1.409 . S
C162 C158 1.387 . S
C162 C161 1.409 . S
C162 H164 0.951 . S
C163 C158 1.491 . S
C163 C165 1.382 . S
C163 C167 1.404 . S
H164 C162 0.951 . S
C165 C163 1.382 . S
C165 C166 1.390 . S
C165 H170 0.949 . S
C166 C165 1.390 . S
C166 C171 1.399 . S
C167 C163 1.404 . S
C167 H168 0.950 . S
C167 C169 1.375 . S
H168 C167 0.950 . S
C169 C167 1.375 . S
C169 C171 1.382 . S
C169 H173 0.950 . S
H170 C165 0.949 . S
C171 C166 1.399 . S
C171 C169 1.382 . S
C171 H172 0.952 . S
H172 C171 0.952 . S
H173 C169 0.950 . S
C174 C175 1.349 . S
C174 C176 1.327 . S
C174 H199 0.950 . S
C175 C174 1.349 . S
C175 C191 1.349 . S
C176 C174 1.327 . S
C176 C195 1.429 . S
C176 H200 0.950 . S
C177 C194 1.574 . S
C177 C196 1.368 . S
C177 H201 0.949 . S
H178 C182 0.949 . S
C179 C180 1.349 . S
C179 C181 1.327 . S
C179 H202 0.950 . S
C180 C179 1.349 . S
C180 C192 1.349 . S
C181 C179 1.327 . S
C181 C197 1.429 . S
C181 H203 0.950 . S
C182 H178 0.949 . S
C182 C190 1.574 . S
C182 C198 1.368 . S
H183 C191 0.950 . S
H184 C189 0.950 . S
H185 C190 0.949 . S
H186 C192 0.950 . S
H187 C193 0.950 . S
H188 C194 0.949 . S
C189 H184 0.950 . S
C189 C191 1.327 . S
C189 C195 1.429 . S
C190 C182 1.574 . S
C190 H185 0.949 . S
C190 C196 1.368 . S
C191 C175 1.349 . S
C191 H183 0.950 . S
C191 C189 1.327 . S
C192 C180 1.349 . S
C192 H186 0.950 . S
C192 C193 1.327 . S
C193 H187 0.950 . S
C193 C192 1.327 . S
C193 C197 1.429 . S
C194 C177 1.574 . S
C194 H188 0.949 . S
C194 C198 1.368 . S
C195 C176 1.429 . S
C195 C189 1.429 . S
C195 C196 1.523 . S
C196 C177 1.368 . S
C196 C190 1.368 . S
C196 C195 1.523 . S
C197 C181 1.429 . S
C197 C193 1.429 . S
C197 C198 1.523 . S
C198 C182 1.368 . S
C198 C194 1.368 . S
C198 C197 1.523 . S
H199 C174 0.950 . S
H200 C176 0.950 . S
H201 C177 0.949 . S
H202 C179 0.950 . S
H203 C181 0.950 . S
C204 C205 1.349 . S
C204 C206 1.327 . S
C204 H229 0.950 . S
C205 C204 1.349 . S
C205 C221 1.349 . S
C206 C204 1.327 . S
C206 C225 1.429 . S
C206 H230 0.950 . S
C207 C224 1.574 . S
C207 C226 1.368 . S
C207 H231 0.949 . S
H208 C212 0.949 . S
C209 C210 1.349 . S
C209 C211 1.327 . S
C209 H232 0.950 . S
C210 C209 1.349 . S
C210 C222 1.349 . S
C211 C209 1.327 . S
C211 C227 1.429 . S
C211 H233 0.950 . S
C212 H208 0.949 . S
C212 C220 1.574 . S
C212 C228 1.368 . S
H213 C221 0.950 . S
H214 C219 0.950 . S
H215 C220 0.949 . S
H216 C222 0.950 . S
H217 C223 0.950 . S
H218 C224 0.949 . S
C219 H214 0.950 . S
C219 C221 1.327 . S
C219 C225 1.429 . S
C220 C212 1.574 . S
C220 H215 0.949 . S
C220 C226 1.368 . S
C221 C205 1.349 . S
C221 H213 0.950 . S
C221 C219 1.327 . S
C222 C210 1.349 . S
C222 H216 0.950 . S
C222 C223 1.327 . S
C223 H217 0.950 . S
C223 C222 1.327 . S
C223 C227 1.429 . S
C224 C207 1.574 . S
C224 H218 0.949 . S
C224 C228 1.368 . S
C225 C206 1.429 . S
C225 C219 1.429 . S
C225 C226 1.523 . S
C226 C207 1.368 . S
C226 C220 1.368 . S
C226 C225 1.523 . S
C227 C211 1.429 . S
C227 C223 1.429 . S
C227 C228 1.523 . S
C228 C212 1.368 . S
C228 C224 1.368 . S
C228 C227 1.523 . S
H229 C204 0.950 . S
H230 C206 0.950 . S
H231 C207 0.949 . S
H232 C209 0.950 . S
H233 C211 0.950 . S
C234 C235 1.349 . S
C234 C236 1.327 . S
C234 H259 0.950 . S
C235 C234 1.349 . S
C235 C251 1.349 . S
C236 C234 1.327 . S
C236 C255 1.429 . S
C236 H260 0.950 . S
C237 C254 1.574 . S
C237 C256 1.368 . S
C237 H261 0.949 . S
H238 C242 0.949 . S
C239 C240 1.349 . S
C239 C241 1.327 . S
C239 H262 0.950 . S
C240 C239 1.349 . S
C240 C252 1.349 . S
C241 C239 1.327 . S
C241 C257 1.429 . S
C241 H263 0.950 . S
C242 H238 0.949 . S
C242 C250 1.574 . S
C242 C258 1.368 . S
H243 C251 0.950 . S
H244 C249 0.950 . S
H245 C250 0.949 . S
H246 C252 0.950 . S
H247 C253 0.950 . S
H248 C254 0.949 . S
C249 H244 0.950 . S
C249 C251 1.327 . S
C249 C255 1.429 . S
C250 C242 1.574 . S
C250 H245 0.949 . S
C250 C256 1.368 . S
C251 C235 1.349 . S
C251 H243 0.950 . S
C251 C249 1.327 . S
C252 C240 1.349 . S
C252 H246 0.950 . S
C252 C253 1.327 . S
C253 H247 0.950 . S
C253 C252 1.327 . S
C253 C257 1.429 . S
C254 C237 1.574 . S
C254 H248 0.949 . S
C254 C258 1.368 . S
C255 C236 1.429 . S
C255 C249 1.429 . S
C255 C256 1.523 . S
C256 C237 1.368 . S
C256 C250 1.368 . S
C256 C255 1.523 . S
C257 C241 1.429 . S
C257 C253 1.429 . S
C257 C258 1.523 . S
C258 C242 1.368 . S
C258 C254 1.368 . S
C258 C257 1.523 . S
H259 C234 0.950 . S
H260 C236 0.950 . S
H261 C237 0.949 . S
H262 C239 0.950 . S
H263 C241 0.950 . S
C264 C265 1.349 . S
C264 C266 1.327 . S
C264 H289 0.950 . S
C265 C264 1.349 . S
C265 C281 1.349 . S
C266 C264 1.327 . S
C266 C285 1.429 . S
C266 H290 0.950 . S
C267 C284 1.574 . S
C267 C286 1.368 . S
C267 H291 0.949 . S
H268 C272 0.949 . S
C269 C270 1.349 . S
C269 C271 1.327 . S
C269 H292 0.950 . S
C270 C269 1.349 . S
C270 C282 1.349 . S
C271 C269 1.327 . S
C271 C287 1.429 . S
C271 H293 0.950 . S
C272 H268 0.949 . S
C272 C280 1.574 . S
C272 C288 1.368 . S
H273 C281 0.950 . S
H274 C279 0.950 . S
H275 C280 0.949 . S
H276 C282 0.950 . S
H277 C283 0.950 . S
H278 C284 0.949 . S
C279 H274 0.950 . S
C279 C281 1.327 . S
C279 C285 1.429 . S
C280 C272 1.574 . S
C280 H275 0.949 . S
C280 C286 1.368 . S
C281 C265 1.349 . S
C281 H273 0.950 . S
C281 C279 1.327 . S
C282 C270 1.349 . S
C282 H276 0.950 . S
C282 C283 1.327 . S
C283 H277 0.950 . S
C283 C282 1.327 . S
C283 C287 1.429 . S
C284 C267 1.574 . S
C284 H278 0.949 . S
C284 C288 1.368 . S
C285 C266 1.429 . S
C285 C279 1.429 . S
C285 C286 1.523 . S
C286 C267 1.368 . S
C286 C280 1.368 . S
C286 C285 1.523 . S
C287 C271 1.429 . S
C287 C283 1.429 . S
C287 C288 1.523 . S
C288 C272 1.368 . S
C288 C284 1.368 . S
C288 C287 1.523 . S
H289 C264 0.950 . S
H290 C266 0.950 . S
H291 C267 0.949 . S
H292 C269 0.950 . S
H293 C271 0.950 . S
C294 C295 1.349 . S
C294 C296 1.327 . S
C294 H319 0.950 . S
C295 C294 1.349 . S
C295 C311 1.349 . S
C296 C294 1.327 . S
C296 C315 1.429 . S
C296 H320 0.950 . S
C297 C314 1.574 . S
C297 C316 1.368 . S
C297 H321 0.949 . S
H298 C302 0.949 . S
C299 C300 1.349 . S
C299 C301 1.327 . S
C299 H322 0.950 . S
C300 C299 1.349 . S
C300 C312 1.349 . S
C301 C299 1.327 . S
C301 C317 1.429 . S
C301 H323 0.950 . S
C302 H298 0.949 . S
C302 C310 1.574 . S
C302 C318 1.368 . S
H303 C311 0.950 . S
H304 C309 0.950 . S
H305 C310 0.949 . S
H306 C312 0.950 . S
H307 C313 0.950 . S
H308 C314 0.949 . S
C309 H304 0.950 . S
C309 C311 1.327 . S
C309 C315 1.429 . S
C310 C302 1.574 . S
C310 H305 0.949 . S
C310 C316 1.368 . S
C311 C295 1.349 . S
C311 H303 0.950 . S
C311 C309 1.327 . S
C312 C300 1.349 . S
C312 H306 0.950 . S
C312 C313 1.327 . S
C313 H307 0.950 . S
C313 C312 1.327 . S
C313 C317 1.429 . S
C314 C297 1.574 . S
C314 H308 0.949 . S
C314 C318 1.368 . S
C315 C296 1.429 . S
C315 C309 1.429 . S
C315 C316 1.523 . S
C316 C297 1.368 . S
C316 C310 1.368 . S
C316 C315 1.523 . S
C317 C301 1.429 . S
C317 C313 1.429 . S
C317 C318 1.523 . S
C318 C302 1.368 . S
C318 C314 1.368 . S
C318 C317 1.523 . S
H319 C294 0.950 . S
H320 C296 0.950 . S
H321 C297 0.949 . S
H322 C299 0.950 . S
H323 C301 0.950 . S
C324 C325 1.349 . S
C324 C326 1.327 . S
C324 H349 0.950 . S
C325 C324 1.349 . S
C325 C341 1.349 . S
C326 C324 1.327 . S
C326 C345 1.429 . S
C326 H350 0.950 . S
C327 C344 1.574 . S
C327 C346 1.368 . S
C327 H351 0.949 . S
H328 C332 0.949 . S
C329 C330 1.349 . S
C329 C331 1.327 . S
C329 H352 0.950 . S
C330 C329 1.349 . S
C330 C342 1.349 . S
C331 C329 1.327 . S
C331 C347 1.429 . S
C331 H353 0.950 . S
C332 H328 0.949 . S
C332 C340 1.574 . S
C332 C348 1.368 . S
H333 C341 0.950 . S
H334 C339 0.950 . S
H335 C340 0.949 . S
H336 C342 0.950 . S
H337 C343 0.950 . S
H338 C344 0.949 . S
C339 H334 0.950 . S
C339 C341 1.327 . S
C339 C345 1.429 . S
C340 C332 1.574 . S
C340 H335 0.949 . S
C340 C346 1.368 . S
C341 C325 1.349 . S
C341 H333 0.950 . S
C341 C339 1.327 . S
C342 C330 1.349 . S
C342 H336 0.950 . S
C342 C343 1.327 . S
C343 H337 0.950 . S
C343 C342 1.327 . S
C343 C347 1.429 . S
C344 C327 1.574 . S
C344 H338 0.949 . S
C344 C348 1.368 . S
C345 C326 1.429 . S
C345 C339 1.429 . S
C345 C346 1.523 . S
C346 C327 1.368 . S
C346 C340 1.368 . S
C346 C345 1.523 . S
C347 C331 1.429 . S
C347 C343 1.429 . S
C347 C348 1.523 . S
C348 C332 1.368 . S
C348 C344 1.368 . S
C348 C347 1.523 . S
H349 C324 0.950 . S
H350 C326 0.950 . S
H351 C327 0.949 . S
H352 C329 0.950 . S
H353 C331 0.950 . S
C354 C355 1.349 . S
C354 C356 1.327 . S
C354 H379 0.950 . S
C355 C354 1.349 . S
C355 C371 1.349 . S
C356 C354 1.327 . S
C356 C375 1.429 . S
C356 H380 0.950 . S
C357 C374 1.574 . S
C357 C376 1.368 . S
C357 H381 0.949 . S
H358 C362 0.949 . S
C359 C360 1.349 . S
C359 C361 1.327 . S
C359 H382 0.950 . S
C360 C359 1.349 . S
C360 C372 1.349 . S
C361 C359 1.327 . S
C361 C377 1.429 . S
C361 H383 0.950 . S
C362 H358 0.949 . S
C362 C370 1.574 . S
C362 C378 1.368 . S
H363 C371 0.950 . S
H364 C369 0.950 . S
H365 C370 0.949 . S
H366 C372 0.950 . S
H367 C373 0.950 . S
H368 C374 0.949 . S
C369 H364 0.950 . S
C369 C371 1.327 . S
C369 C375 1.429 . S
C370 C362 1.574 . S
C370 H365 0.949 . S
C370 C376 1.368 . S
C371 C355 1.349 . S
C371 H363 0.950 . S
C371 C369 1.327 . S
C372 C360 1.349 . S
C372 H366 0.950 . S
C372 C373 1.327 . S
C373 H367 0.950 . S
C373 C372 1.327 . S
C373 C377 1.429 . S
C374 C357 1.574 . S
C374 H368 0.949 . S
C374 C378 1.368 . S
C375 C356 1.429 . S
C375 C369 1.429 . S
C375 C376 1.523 . S
C376 C357 1.368 . S
C376 C370 1.368 . S
C376 C375 1.523 . S
C377 C361 1.429 . S
C377 C373 1.429 . S
C377 C378 1.523 . S
C378 C362 1.368 . S
C378 C374 1.368 . S
C378 C377 1.523 . S
H379 C354 0.950 . S
H380 C356 0.950 . S
H381 C357 0.949 . S
H382 C359 0.950 . S
H383 C361 0.950 . S
C384 C385 1.349 . S
C384 C386 1.327 . S
C384 H409 0.950 . S
C385 C384 1.349 . S
C385 C401 1.349 . S
C386 C384 1.327 . S
C386 C405 1.429 . S
C386 H410 0.950 . S
C387 C404 1.574 . S
C387 C406 1.368 . S
C387 H411 0.949 . S
H388 C392 0.949 . S
C389 C390 1.349 . S
C389 C391 1.327 . S
C389 H412 0.950 . S
C390 C389 1.349 . S
C390 C402 1.349 . S
C391 C389 1.327 . S
C391 C407 1.429 . S
C391 H413 0.950 . S
C392 H388 0.949 . S
C392 C400 1.574 . S
C392 C408 1.368 . S
H393 C401 0.950 . S
H394 C399 0.950 . S
H395 C400 0.949 . S
H396 C402 0.950 . S
H397 C403 0.950 . S
H398 C404 0.949 . S
C399 H394 0.950 . S
C399 C401 1.327 . S
C399 C405 1.429 . S
C400 C392 1.574 . S
C400 H395 0.949 . S
C400 C406 1.368 . S
C401 C385 1.349 . S
C401 H393 0.950 . S
C401 C399 1.327 . S
C402 C390 1.349 . S
C402 H396 0.950 . S
C402 C403 1.327 . S
C403 H397 0.950 . S
C403 C402 1.327 . S
C403 C407 1.429 . S
C404 C387 1.574 . S
C404 H398 0.949 . S
C404 C408 1.368 . S
C405 C386 1.429 . S
C405 C399 1.429 . S
C405 C406 1.523 . S
C406 C387 1.368 . S
C406 C400 1.368 . S
C406 C405 1.523 . S
C407 C391 1.429 . S
C407 C403 1.429 . S
C407 C408 1.523 . S
C408 C392 1.368 . S
C408 C404 1.368 . S
C408 C407 1.523 . S
H409 C384 0.950 . S
H410 C386 0.950 . S
H411 C387 0.949 . S
H412 C389 0.950 . S
H413 C391 0.950 . S
C414 C415 1.349 . S
C414 C416 1.327 . S
C414 H439 0.950 . S
C415 C414 1.349 . S
C415 C431 1.349 . S
C416 C414 1.327 . S
C416 C435 1.429 . S
C416 H440 0.950 . S
C417 C434 1.574 . S
C417 C436 1.368 . S
C417 H441 0.949 . S
H418 C422 0.949 . S
C419 C420 1.349 . S
C419 C421 1.327 . S
C419 H442 0.950 . S
C420 C419 1.349 . S
C420 C432 1.349 . S
C421 C419 1.327 . S
C421 C437 1.429 . S
C421 H443 0.950 . S
C422 H418 0.949 . S
C422 C430 1.574 . S
C422 C438 1.368 . S
H423 C431 0.950 . S
H424 C429 0.950 . S
H425 C430 0.949 . S
H426 C432 0.950 . S
H427 C433 0.950 . S
H428 C434 0.949 . S
C429 H424 0.950 . S
C429 C431 1.327 . S
C429 C435 1.429 . S
C430 C422 1.574 . S
C430 H425 0.949 . S
C430 C436 1.368 . S
C431 C415 1.349 . S
C431 H423 0.950 . S
C431 C429 1.327 . S
C432 C420 1.349 . S
C432 H426 0.950 . S
C432 C433 1.327 . S
C433 H427 0.950 . S
C433 C432 1.327 . S
C433 C437 1.429 . S
C434 C417 1.574 . S
C434 H428 0.949 . S
C434 C438 1.368 . S
C435 C416 1.429 . S
C435 C429 1.429 . S
C435 C436 1.523 . S
C436 C417 1.368 . S
C436 C430 1.368 . S
C436 C435 1.523 . S
C437 C421 1.429 . S
C437 C433 1.429 . S
C437 C438 1.523 . S
C438 C422 1.368 . S
C438 C434 1.368 . S
C438 C437 1.523 . S
H439 C414 0.950 . S
H440 C416 0.950 . S
H441 C417 0.949 . S
H442 C419 0.950 . S
H443 C421 0.950 . S
C444 C445 1.349 . S
C444 C446 1.327 . S
C444 H469 0.950 . S
C445 C444 1.349 . S
C445 C461 1.349 . S
C446 C444 1.327 . S
C446 C465 1.429 . S
C446 H470 0.950 . S
C447 C464 1.574 . S
C447 C466 1.368 . S
C447 H471 0.949 . S
H448 C452 0.949 . S
C449 C450 1.349 . S
C449 C451 1.327 . S
C449 H472 0.950 . S
C450 C449 1.349 . S
C450 C462 1.349 . S
C451 C449 1.327 . S
C451 C467 1.429 . S
C451 H473 0.950 . S
C452 H448 0.949 . S
C452 C460 1.574 . S
C452 C468 1.368 . S
H453 C461 0.950 . S
H454 C459 0.950 . S
H455 C460 0.949 . S
H456 C462 0.950 . S
H457 C463 0.950 . S
H458 C464 0.949 . S
C459 H454 0.950 . S
C459 C461 1.327 . S
C459 C465 1.429 . S
C460 C452 1.574 . S
C460 H455 0.949 . S
C460 C466 1.368 . S
C461 C445 1.349 . S
C461 H453 0.950 . S
C461 C459 1.327 . S
C462 C450 1.349 . S
C462 H456 0.950 . S
C462 C463 1.327 . S
C463 H457 0.950 . S
C463 C462 1.327 . S
C463 C467 1.429 . S
C464 C447 1.574 . S
C464 H458 0.949 . S
C464 C468 1.368 . S
C465 C446 1.429 . S
C465 C459 1.429 . S
C465 C466 1.523 . S
C466 C447 1.368 . S
C466 C460 1.368 . S
C466 C465 1.523 . S
C467 C451 1.429 . S
C467 C463 1.429 . S
C467 C468 1.523 . S
C468 C452 1.368 . S
C468 C464 1.368 . S
C468 C467 1.523 . S
H469 C444 0.950 . S
H470 C446 0.950 . S
H471 C447 0.949 . S
H472 C449 0.950 . S
H473 C451 0.950 . S
C474 C475 1.349 . S
C474 C476 1.327 . S
C474 H499 0.950 . S
C475 C474 1.349 . S
C475 C491 1.349 . S
C476 C474 1.327 . S
C476 C495 1.429 . S
C476 H500 0.950 . S
C477 C494 1.574 . S
C477 C496 1.368 . S
C477 H501 0.949 . S
H478 C482 0.949 . S
C479 C480 1.349 . S
C479 C481 1.327 . S
C479 H502 0.950 . S
C480 C479 1.349 . S
C480 C492 1.349 . S
C481 C479 1.327 . S
C481 C497 1.429 . S
C481 H503 0.950 . S
C482 H478 0.949 . S
C482 C490 1.574 . S
C482 C498 1.368 . S
H483 C491 0.950 . S
H484 C489 0.950 . S
H485 C490 0.949 . S
H486 C492 0.950 . S
H487 C493 0.950 . S
H488 C494 0.949 . S
C489 H484 0.950 . S
C489 C491 1.327 . S
C489 C495 1.429 . S
C490 C482 1.574 . S
C490 H485 0.949 . S
C490 C496 1.368 . S
C491 C475 1.349 . S
C491 H483 0.950 . S
C491 C489 1.327 . S
C492 C480 1.349 . S
C492 H486 0.950 . S
C492 C493 1.327 . S
C493 H487 0.950 . S
C493 C492 1.327 . S
C493 C497 1.429 . S
C494 C477 1.574 . S
C494 H488 0.949 . S
C494 C498 1.368 . S
C495 C476 1.429 . S
C495 C489 1.429 . S
C495 C496 1.523 . S
C496 C477 1.368 . S
C496 C490 1.368 . S
C496 C495 1.523 . S
C497 C481 1.429 . S
C497 C493 1.429 . S
C497 C498 1.523 . S
C498 C482 1.368 . S
C498 C494 1.368 . S
C498 C497 1.523 . S
H499 C474 0.950 . S
H500 C476 0.950 . S
H501 C477 0.949 . S
H502 C479 0.950 . S
H503 C481 0.950 . S
C504 C505 1.349 . S
C504 C506 1.327 . S
C504 H529 0.950 . S
C505 C504 1.349 . S
C505 C521 1.349 . S
C506 C504 1.327 . S
C506 C525 1.429 . S
C506 H530 0.950 . S
C507 C524 1.574 . S
C507 C526 1.368 . S
C507 H531 0.949 . S
H508 C512 0.949 . S
C509 C510 1.349 . S
C509 C511 1.327 . S
C509 H532 0.950 . S
C510 C509 1.349 . S
C510 C522 1.349 . S
C511 C509 1.327 . S
C511 C527 1.429 . S
C511 H533 0.950 . S
C512 H508 0.949 . S
C512 C520 1.574 . S
C512 C528 1.368 . S
H513 C521 0.950 . S
H514 C519 0.950 . S
H515 C520 0.949 . S
H516 C522 0.950 . S
H517 C523 0.950 . S
H518 C524 0.949 . S
C519 H514 0.950 . S
C519 C521 1.327 . S
C519 C525 1.429 . S
C520 C512 1.574 . S
C520 H515 0.949 . S
C520 C526 1.368 . S
C521 C505 1.349 . S
C521 H513 0.950 . S
C521 C519 1.327 . S
C522 C510 1.349 . S
C522 H516 0.950 . S
C522 C523 1.327 . S
C523 H517 0.950 . S
C523 C522 1.327 . S
C523 C527 1.429 . S
C524 C507 1.574 . S
C524 H518 0.949 . S
C524 C528 1.368 . S
C525 C506 1.429 . S
C525 C519 1.429 . S
C525 C526 1.523 . S
C526 C507 1.368 . S
C526 C520 1.368 . S
C526 C525 1.523 . S
C527 C511 1.429 . S
C527 C523 1.429 . S
C527 C528 1.523 . S
C528 C512 1.368 . S
C528 C524 1.368 . S
C528 C527 1.523 . S
H529 C504 0.950 . S
H530 C506 0.950 . S
H531 C507 0.949 . S
H532 C509 0.950 . S
H533 C511 0.950 . S
C534 C535 1.349 1_655 S
C534 C536 1.327 . S
C534 H559 0.950 . S
C535 C534 1.349 1_455 S
C535 C551 1.349 . S
C536 C534 1.327 . S
C536 C555 1.429 1_655 S
C536 H560 0.950 . S
C537 C554 1.574 . S
C537 C556 1.368 . S
C537 H561 0.949 . S
H538 C542 0.949 . S
C539 C540 1.349 . S
C539 C541 1.327 . S
C539 H562 0.950 . S
C540 C539 1.349 . S
C540 C552 1.349 . S
C541 C539 1.327 . S
C541 C557 1.429 . S
C541 H563 0.950 . S
C542 H538 0.949 . S
C542 C550 1.574 1_556 S
C542 C558 1.368 1_655 S
H543 C551 0.950 . S
H544 C549 0.950 . S
H545 C550 0.949 . S
H546 C552 0.950 1_655 S
H547 C553 0.950 1_655 S
H548 C554 0.949 . S
C549 H544 0.950 . S
C549 C551 1.327 . S
C549 C555 1.429 . S
C550 C542 1.574 1_554 S
C550 H545 0.949 . S
C550 C556 1.368 1_655 S
C551 C535 1.349 . S
C551 H543 0.950 . S
C551 C549 1.327 . S
C552 C540 1.349 . S
C552 H546 0.950 1_455 S
C552 C553 1.327 . S
C553 H547 0.950 1_455 S
C553 C552 1.327 . S
C553 C557 1.429 . S
C554 C537 1.574 . S
C554 H548 0.949 . S
C554 C558 1.368 1_554 S
C555 C536 1.429 1_455 S
C555 C549 1.429 . S
C555 C556 1.523 . S
C556 C537 1.368 . S
C556 C550 1.368 1_455 S
C556 C555 1.523 . S
C557 C541 1.429 . S
C557 C553 1.429 . S
C557 C558 1.523 . S
C558 C542 1.368 1_455 S
C558 C554 1.368 1_556 S
C558 C557 1.523 . S
H559 C534 0.950 . S
H560 C536 0.950 . S
H561 C537 0.949 . S
H562 C539 0.950 . S
H563 C541 0.950 . S
C564 C565 1.349 . S
C564 C566 1.327 . S
C564 H589 0.950 . S
C565 C564 1.349 . S
C565 C581 1.349 . S
C566 C564 1.327 . S
C566 C585 1.429 . S
C566 H590 0.950 . S
C567 C584 1.574 . S
C567 C586 1.368 . S
C567 H591 0.949 . S
H568 C572 0.949 . S
C569 C570 1.349 . S
C569 C571 1.327 . S
C569 H592 0.950 . S
C570 C569 1.349 . S
C570 C582 1.349 . S
C571 C569 1.327 . S
C571 C587 1.429 . S
C571 H593 0.950 . S
C572 H568 0.949 . S
C572 C580 1.574 . S
C572 C588 1.368 . S
H573 C581 0.949 1_565 S
H574 C579 0.950 . S
H575 C580 0.949 . S
H576 C582 0.950 . S
H577 C583 0.950 . S
H578 C584 0.949 . S
C579 H574 0.950 . S
C579 C581 1.327 . S
C579 C585 1.429 . S
C580 C572 1.574 . S
C580 H575 0.949 . S
C580 C586 1.368 . S
C581 C565 1.349 . S
C581 H573 0.949 1_545 S
C581 C579 1.327 . S
C582 C570 1.349 . S
C582 H576 0.950 . S
C582 C583 1.327 . S
C583 H577 0.950 . S
C583 C582 1.327 . S
C583 C587 1.429 . S
C584 C567 1.574 . S
C584 H578 0.949 . S
C584 C588 1.368 . S
C585 C566 1.429 . S
C585 C579 1.429 . S
C585 C586 1.523 . S
C586 C567 1.368 . S
C586 C580 1.368 . S
C586 C585 1.523 . S
C587 C571 1.429 . S
C587 C583 1.429 . S
C587 C588 1.523 . S
C588 C572 1.368 . S
C588 C584 1.368 . S
C588 C587 1.523 . S
H589 C564 0.950 . S
H590 C566 0.950 . S
H591 C567 0.949 . S
H592 C569 0.950 . S
H593 C571 0.950 . S
C594 C595 1.349 . S
C594 C596 1.327 . S
C594 H619 0.950 . S
C595 C594 1.349 . S
C595 C611 1.349 . S
C596 C594 1.327 . S
C596 C615 1.429 . S
C596 H620 0.950 . S
C597 C614 1.574 . S
C597 C616 1.368 . S
C597 H621 0.949 . S
H598 C602 0.949 . S
C599 C600 1.349 . S
C599 C601 1.327 . S
C599 H622 0.950 . S
C600 C599 1.349 . S
C600 C612 1.349 . S
C601 C599 1.327 . S
C601 C617 1.429 . S
C601 H623 0.950 . S
C602 H598 0.949 . S
C602 C610 1.574 . S
C602 C618 1.368 . S
H603 C611 0.950 . S
H604 C609 0.950 . S
H605 C610 0.949 . S
H606 C612 0.950 . S
H607 C613 0.950 . S
H608 C614 0.949 . S
C609 H604 0.950 . S
C609 C611 1.327 . S
C609 C615 1.429 . S
C610 C602 1.574 . S
C610 H605 0.949 . S
C610 C616 1.368 . S
C611 C595 1.349 . S
C611 H603 0.950 . S
C611 C609 1.327 . S
C612 C600 1.349 . S
C612 H606 0.950 . S
C612 C613 1.327 . S
C613 H607 0.950 . S
C613 C612 1.327 . S
C613 C617 1.429 . S
C614 C597 1.574 . S
C614 H608 0.949 . S
C614 C618 1.368 . S
C615 C596 1.429 . S
C615 C609 1.429 . S
C615 C616 1.523 . S
C616 C597 1.368 . S
C616 C610 1.368 . S
C616 C615 1.523 . S
C617 C601 1.429 . S
C617 C613 1.429 . S
C617 C618 1.523 . S
C618 C602 1.368 . S
C618 C614 1.368 . S
C618 C617 1.523 . S
H619 C594 0.950 . S
H620 C596 0.950 . S
H621 C597 0.949 . S
H622 C599 0.950 . S
H623 C601 0.950 . S
C624 C625 1.349 . S
C624 C626 1.327 . S
C624 H649 0.950 . S
C625 C624 1.349 . S
C625 C641 1.349 . S
C626 C624 1.327 . S
C626 C645 1.429 . S
C626 H650 0.950 . S
C627 C644 1.574 . S
C627 C646 1.368 . S
C627 H651 0.936 1_545 S
H628 C632 0.949 . S
C629 C630 1.349 . S
C629 C631 1.327 . S
C629 H652 0.950 . S
C630 C629 1.349 . S
C630 C642 1.349 . S
C631 C629 1.327 . S
C631 C647 1.429 . S
C631 H653 0.969 . S
C632 H628 0.949 . S
C632 C640 1.574 . S
C632 C648 1.368 . S
H633 C641 0.957 . S
H634 C639 0.930 1_565 S
H635 C640 0.949 . S
H636 C642 0.950 . S
H637 C643 0.950 . S
H638 C644 0.952 1_565 S
C639 H634 0.930 1_545 S
C639 C641 1.327 . S
C639 C645 1.429 . S
C640 C632 1.574 . S
C640 H635 0.949 . S
C640 C646 1.368 . S
C641 C625 1.349 . S
C641 H633 0.957 . S
C641 C639 1.327 . S
C642 C630 1.349 . S
C642 H636 0.950 . S
C642 C643 1.327 . S
C643 H637 0.950 . S
C643 C642 1.327 . S
C643 C647 1.429 . S
C644 C627 1.574 . S
C644 H638 0.952 1_545 S
C644 C648 1.368 . S
C645 C626 1.429 . S
C645 C639 1.429 . S
C645 C646 1.523 . S
C646 C627 1.368 . S
C646 C640 1.368 . S
C646 C645 1.523 . S
C647 C631 1.429 . S
C647 C643 1.429 . S
C647 C648 1.523 . S
C648 C632 1.368 . S
C648 C644 1.368 . S
C648 C647 1.523 . S
H649 C624 0.950 . S
H650 C626 0.950 . S
H651 C627 0.936 1_565 S
H652 C629 0.950 . S
H653 C631 0.969 . S
C654 C655 1.349 . S
C654 C656 1.327 . S
C654 H679 0.950 . S
C655 C654 1.349 . S
C655 C671 1.349 . S
C656 C654 1.327 . S
C656 C675 1.429 . S
C656 H680 0.950 . S
C657 C674 1.574 . S
C657 C676 1.368 . S
C657 H681 0.949 . S
H658 C662 0.949 1_554 S
C659 C660 1.349 . S
C659 C661 1.327 . S
C659 H682 0.950 . S
C660 C659 1.349 . S
C660 C672 1.349 . S
C661 C659 1.327 . S
C661 C677 1.429 . S
C661 H683 0.950 . S
C662 H658 0.949 1_556 S
C662 C670 1.574 . S
C662 C678 1.368 1_556 S
H663 C671 0.950 . S
H664 C669 0.950 . S
H665 C670 0.949 . S
H666 C672 0.950 . S
H667 C673 0.950 . S
H668 C674 0.949 1_554 S
C669 H664 0.950 . S
C669 C671 1.327 . S
C669 C675 1.429 . S
C670 C662 1.574 . S
C670 H665 0.949 . S
C670 C676 1.368 . S
C671 C655 1.349 . S
C671 H663 0.950 . S
C671 C669 1.327 . S
C672 C660 1.349 . S
C672 H666 0.950 . S
C672 C673 1.327 . S
C673 H667 0.950 . S
C673 C672 1.327 . S
C673 C677 1.429 . S
C674 C657 1.574 . S
C674 H668 0.949 1_556 S
C674 C678 1.368 1_556 S
C675 C656 1.429 . S
C675 C669 1.429 . S
C675 C676 1.523 . S
C676 C657 1.368 . S
C676 C670 1.368 . S
C676 C675 1.523 . S
C677 C661 1.429 . S
C677 C673 1.429 . S
C677 C678 1.523 . S
C678 C662 1.368 1_554 S
C678 C674 1.368 1_554 S
C678 C677 1.523 . S
H679 C654 0.950 . S
H680 C656 0.950 . S
H681 C657 0.949 . S
H682 C659 0.950 . S
H683 C661 0.950 . S
C684 C685 1.349 . S
C684 C686 1.327 . S
C684 H709 0.950 . S
C685 C684 1.349 . S
C685 C701 1.349 . S
C686 C684 1.327 . S
C686 C705 1.429 . S
C686 H710 0.950 . S
C687 C704 1.574 . S
C687 C706 1.368 . S
C687 H711 0.949 . S
H688 C692 0.949 . S
C689 C690 1.349 . S
C689 C691 1.327 . S
C689 H712 0.950 . S
C690 C689 1.349 . S
C690 C702 1.349 . S
C691 C689 1.327 . S
C691 C707 1.429 . S
C691 H713 0.950 . S
C692 H688 0.949 . S
C692 C700 1.574 . S
C692 C708 1.368 . S
H693 C701 0.950 . S
H694 C699 0.950 . S
H695 C700 0.949 . S
H696 C702 0.950 . S
H697 C703 0.950 . S
H698 C704 0.949 . S
C699 H694 0.950 . S
C699 C701 1.327 . S
C699 C705 1.429 . S
C700 C692 1.574 . S
C700 H695 0.949 . S
C700 C706 1.368 . S
C701 C685 1.349 . S
C701 H693 0.950 . S
C701 C699 1.327 . S
C702 C690 1.349 . S
C702 H696 0.950 . S
C702 C703 1.327 . S
C703 H697 0.950 . S
C703 C702 1.327 . S
C703 C707 1.429 . S
C704 C687 1.574 . S
C704 H698 0.949 . S
C704 C708 1.368 . S
C705 C686 1.429 . S
C705 C699 1.429 . S
C705 C706 1.523 . S
C706 C687 1.368 . S
C706 C700 1.368 . S
C706 C705 1.523 . S
C707 C691 1.429 . S
C707 C703 1.429 . S
C707 C708 1.523 . S
C708 C692 1.368 . S
C708 C704 1.368 . S
C708 C707 1.523 . S
H709 C684 0.950 . S
H710 C686 0.950 . S
H711 C687 0.949 . S
H712 C689 0.950 . S
H713 C691 0.950 . S
C175 C2 1.464 . S
C180 C166 1.479 . S
C205 C22 1.456 . S
C210 C128 1.475 . S
C235 C44 1.483 . S
C240 C147 1.505 . S
C265 C4 1.404 . S
C270 C161 1.490 . S
C300 C123 1.494 . S
C295 C24 1.418 . S
C330 C142 1.452 . S
C325 C42 1.367 . S
C355 C32 1.485 . S
C360 C90 1.430 . S
C385 C49 1.088 . S
C390 C104 1.103 1_655 S
C415 C9 1.080 . S
C420 C66 1.099 1_565 S
C450 C85 1.110 . S
C445 C29 1.079 . S
C480 C109 1.349 . S
C475 C52 1.346 . S
C505 C12 1.363 . S
C510 C71 1.349 . S
C540 C100 1.552 . S
C535 C18 1.568 . S
C565 C38 1.522 . S
C570 C62 1.508 . S
C595 C58 1.511 . S
C600 C81 1.544 . S
C630 C138 1.547 . S
C625 C39 1.545 . S
C660 C157 1.564 . S
C655 C59 1.570 . S
C685 C19 1.560 . S
C690 C119 1.576 . S
