# Generated by pormake.
# Topology cml, (3,6)-cn, num edge types: 1
# Building blocks:
#     Node 0, Type 0, BuildingBlock: BETDIP_clean_linker_0, # of connection points: 3
#     Node 1, Type 0, BuildingBlock: BETDIP_clean_linker_0, # of connection points: 3
#     Node 2, Type 0, BuildingBlock: BETDIP_clean_linker_0, # of connection points: 3
#     Node 3, Type 0, BuildingBlock: BETDIP_clean_linker_0, # of connection points: 3
#     Node 4, Type 0, BuildingBlock: BETDIP_clean_linker_0, # of connection points: 3
#     Node 5, Type 0, BuildingBlock: BETDIP_clean_linker_0, # of connection points: 3
#     Node 6, Type 0, BuildingBlock: BETDIP_clean_linker_0, # of connection points: 3
#     Node 7, Type 0, BuildingBlock: BETDIP_clean_linker_0, # of connection points: 3
#     Node 8, Type 1, BuildingBlock: OJICUG_clean_sbu_0, # of connection points: 6
#     Node 9, Type 1, BuildingBlock: OJICUG_clean_sbu_0, # of connection points: 6
#     Node 10, Type 1, BuildingBlock: OJICUG_clean_sbu_0, # of connection points: 6
#     Node 11, Type 1, BuildingBlock: OJICUG_clean_sbu_0, # of connection points: 6
#     Edge 12, Type (0, 1), BuildingBlock: XIVTED_clean_linker_0, # of connection points: 2
#     Edge 13, Type (0, 1), BuildingBlock: XIVTED_clean_linker_0, # of connection points: 2
#     Edge 14, Type (0, 1), BuildingBlock: XIVTED_clean_linker_0, # of connection points: 2
#     Edge 15, Type (0, 1), BuildingBlock: XIVTED_clean_linker_0, # of connection points: 2
#     Edge 16, Type (0, 1), BuildingBlock: XIVTED_clean_linker_0, # of connection points: 2
#     Edge 17, Type (0, 1), BuildingBlock: XIVTED_clean_linker_0, # of connection points: 2
#     Edge 18, Type (0, 1), BuildingBlock: XIVTED_clean_linker_0, # of connection points: 2
#     Edge 19, Type (0, 1), BuildingBlock: XIVTED_clean_linker_0, # of connection points: 2
#     Edge 20, Type (0, 1), BuildingBlock: XIVTED_clean_linker_0, # of connection points: 2
#     Edge 21, Type (0, 1), BuildingBlock: XIVTED_clean_linker_0, # of connection points: 2
#     Edge 22, Type (0, 1), BuildingBlock: XIVTED_clean_linker_0, # of connection points: 2
#     Edge 23, Type (0, 1), BuildingBlock: XIVTED_clean_linker_0, # of connection points: 2
#     Edge 24, Type (0, 1), BuildingBlock: XIVTED_clean_linker_0, # of connection points: 2
#     Edge 25, Type (0, 1), BuildingBlock: XIVTED_clean_linker_0, # of connection points: 2
#     Edge 26, Type (0, 1), BuildingBlock: XIVTED_clean_linker_0, # of connection points: 2
#     Edge 27, Type (0, 1), BuildingBlock: XIVTED_clean_linker_0, # of connection points: 2
#     Edge 28, Type (0, 1), BuildingBlock: XIVTED_clean_linker_0, # of connection points: 2
#     Edge 29, Type (0, 1), BuildingBlock: XIVTED_clean_linker_0, # of connection points: 2
#     Edge 30, Type (0, 1), BuildingBlock: XIVTED_clean_linker_0, # of connection points: 2
#     Edge 31, Type (0, 1), BuildingBlock: XIVTED_clean_linker_0, # of connection points: 2
#     Edge 32, Type (0, 1), BuildingBlock: XIVTED_clean_linker_0, # of connection points: 2
#     Edge 33, Type (0, 1), BuildingBlock: XIVTED_clean_linker_0, # of connection points: 2
#     Edge 34, Type (0, 1), BuildingBlock: XIVTED_clean_linker_0, # of connection points: 2
#     Edge 35, Type (0, 1), BuildingBlock: XIVTED_clean_linker_0, # of connection points: 2
# Relax obj value: 0.006
# Max RMSD: 0.050
# Mean RMSD: 0.044
data_MOF--net-cml--node1-OJICUG_clean_sbu_0--node2-BETDIP_clean_linker_0--edge1-XIVTED_clean_linker_0
_symmetry_space_group_name_H-M    P1
_symmetry_Int_Tables_number       1
_symmetry_cell_setting            triclinic
loop_
_symmetry_equiv_pos_as_xyz
'x, y, z'
_cell_length_a     40.428737
_cell_length_b     40.152743
_cell_length_c     36.211457
_cell_angle_alpha  90.133962
_cell_angle_beta   89.960082
_cell_angle_gamma 90.105729
loop_
_atom_site_label
_atom_site_type_symbol
_atom_site_fract_x
_atom_site_fract_y
_atom_site_fract_z
_atom_type_partial_charge
H0 H 0.27205 0.34052 0.02711 0.0
H1 H 0.28152 0.41204 0.93981 0.0
H2 H 0.33239 0.42739 0.04296 0.0
H3 H 0.22169 0.39774 0.93907 0.0
C4 C 0.22569 0.37099 0.93793 0.0
C5 C 0.28207 0.36381 0.01691 0.0
C6 C 0.30329 0.38281 0.03913 0.0
C7 C 0.27287 0.37529 0.98193 0.0
C8 C 0.28696 0.40473 0.9679 0.0
C9 C 0.30935 0.42342 -0.01066 0.0
C10 C 0.31604 0.41287 0.02554 0.0
N11 N 0.25001 0.35633 0.96094 0.0
H12 H 0.74511 0.6221 0.54668 0.0
H13 H 0.74246 0.55688 0.45212 0.0
H14 H 0.67384 0.54271 0.54092 0.0
H15 H 0.79013 0.57884 0.43741 0.0
C16 C 0.79211 0.60302 0.45064 0.0
C17 C 0.73475 0.6007 0.53246 0.0
C18 C 0.7084 0.58304 0.54829 0.0
C19 C 0.74777 0.59114 0.4982 0.0
C20 C 0.73367 0.564 0.47917 0.0
C21 C 0.70726 0.54617 0.49473 0.0
C22 C 0.69508 0.5556 0.52945 0.0
N23 N 0.77379 0.6106 0.48308 0.0
H24 H 0.74356 0.36098 0.04277 0.0
H25 H 0.74674 0.4302 0.95223 0.0
H26 H 0.67603 0.44343 0.03929 0.0
H27 H 0.77316 0.39087 0.92279 0.0
C28 C 0.78409 0.37382 0.94246 0.0
C29 C 0.73439 0.38323 0.02936 0.0
C30 C 0.70879 0.40165 0.04566 0.0
C31 C 0.74795 0.39293 -0.00455 0.0
C32 C 0.73611 0.42182 0.97797 0.0
C33 C 0.71022 0.44027 -0.00626 0.0
C34 C 0.69693 0.43013 0.0277 0.0
N35 N 0.77295 0.37258 0.97967 0.0
H36 H 0.26316 0.62363 0.54595 0.0
H37 H 0.2612 0.55625 0.45337 0.0
H38 H 0.33061 0.54112 0.54122 0.0
H39 H 0.23692 0.59756 0.42434 0.0
C40 C 0.22474 0.61337 0.44449 0.0
C41 C 0.27252 0.60163 0.53206 0.0
C42 C 0.2979 0.58291 0.54821 0.0
C43 C 0.25946 0.59264 0.49765 0.0
C44 C 0.27151 0.56408 0.47951 0.0
C45 C 0.29706 0.5452 0.49524 0.0
C46 C 0.30992 0.55471 0.52967 0.0
N47 N 0.23466 0.6133 0.48213 0.0
H48 H 0.77164 0.84127 0.02832 0.0
H49 H 0.78298 0.91255 0.94109 0.0
H50 H 0.83199 0.92798 0.04535 0.0
H51 H 0.72321 0.89806 0.93852 0.0
C52 C 0.72728 0.87131 0.93774 0.0
C53 C 0.78189 0.86454 0.01834 0.0
C54 C 0.80275 0.8835 0.041 0.0
C55 C 0.77341 0.87594 0.98311 0.0
C56 C 0.78782 0.90532 0.96935 0.0
C57 C 0.80987 0.92399 -0.00874 0.0
C58 C 0.81585 0.9135 0.02763 0.0
N59 N 0.75108 0.85686 0.96156 0.0
H60 H 0.24513 0.12195 0.54476 0.0
H61 H 0.24341 0.05671 0.45017 0.0
H62 H 0.17495 0.04161 0.53893 0.0
H63 H 0.28969 0.08055 0.43417 0.0
C64 C 0.29192 0.10427 0.44831 0.0
C65 C 0.23507 0.10041 0.53053 0.0
C66 C 0.20895 0.0824 0.54634 0.0
C67 C 0.2482 0.09109 0.49624 0.0
C68 C 0.2345 0.06373 0.47721 0.0
C69 C 0.20836 0.04552 0.49278 0.0
C70 C 0.19604 0.05477 0.52749 0.0
N71 N 0.27392 0.11098 0.48119 0.0
H72 H 0.24161 0.86095 0.04422 0.0
H73 H 0.24506 0.92977 0.95328 0.0
H74 H 0.17579 0.94481 0.0414 0.0
H75 H 0.27081 0.89003 0.92381 0.0
C76 C 0.28171 0.87297 0.94349 0.0
C77 C 0.23276 0.88336 0.03085 0.0
C78 C 0.20774 0.90235 0.04743 0.0
C79 C 0.24615 0.89268 -0.00328 0.0
C80 C 0.23464 0.92171 0.97925 0.0
C81 C 0.20931 0.94073 -0.00469 0.0
C82 C 0.19627 0.93103 0.02955 0.0
N83 N 0.27068 0.87187 0.98075 0.0
H84 H 0.75911 0.12198 0.54694 0.0
H85 H 0.76008 0.05516 0.45372 0.0
H86 H 0.82799 0.04068 0.54293 0.0
H87 H 0.71743 0.08204 0.43399 0.0
C88 C 0.71424 0.10512 0.44913 0.0
C89 C 0.76888 0.10011 0.53316 0.0
C90 C 0.79454 0.08191 0.5495 0.0
C91 C 0.7559 0.09061 0.49885 0.0
C92 C 0.7691 0.06263 0.48053 0.0
C93 C 0.79488 0.04425 0.49654 0.0
C94 C 0.80715 0.05388 0.53117 0.0
N95 N 0.73085 0.1109 0.48314 0.0
Sc96 Sc 1.00293 0.79422 0.29073 0.0
Sc97 Sc 0.99954 0.88142 0.30262 0.0
Sc98 Sc 1.0019 0.82958 0.38032 0.0
O99 O 1.00147 0.83499 0.32454 0.0
C100 C 0.95423 0.77053 0.35516 0.0
C101 C 0.95052 0.84079 0.25011 0.0
C102 C 0.95053 0.88923 0.37089 0.0
C103 C 0.05042 0.84506 0.24853 0.0
C104 C 0.05281 0.77322 0.35461 0.0
C105 C 0.05009 0.89163 0.36928 0.0
O106 O 0.96594 0.76804 0.32263 0.0
O107 O 0.96112 0.86754 0.26476 0.0
O108 O 0.96296 0.86539 0.38921 0.0
O109 O 0.04041 0.81562 0.25519 0.0
O110 O 0.04051 0.79292 0.37843 0.0
O111 O 0.03776 0.90013 0.33844 0.0
O112 O 0.04221 0.77122 0.32164 0.0
O113 O 0.03766 0.87064 0.26341 0.0
O114 O 0.03965 0.8668 0.38764 0.0
O115 O 0.96344 0.81247 0.25617 0.0
O116 O 0.96451 0.79181 0.37851 0.0
O117 O 0.96121 0.89773 0.33934 0.0
Sc118 Sc 1.0029 0.18683 0.78805 0.0
Sc119 Sc 1.00274 0.10071 0.80546 0.0
Sc120 Sc 0.00468 0.15668 0.8798 0.0
O121 O 1.00345 0.14818 0.82443 0.0
C122 C 0.05234 0.214 0.84904 0.0
C123 C 0.05203 0.13534 0.7489 0.0
C124 C 0.05463 0.09643 0.87206 0.0
C125 C 0.95214 0.13641 0.75063 0.0
C126 C 0.95414 0.21164 0.85245 0.0
C127 C 0.9553 0.09448 0.87452 0.0
O128 O 0.04311 0.21187 0.8156 0.0
O129 O 0.04159 0.11036 0.7669 0.0
O130 O 0.04549 0.12312 0.88801 0.0
O131 O 0.96255 0.16588 0.75638 0.0
O132 O 0.96439 0.19097 0.87636 0.0
O133 O 0.96364 0.08629 0.842 0.0
O134 O 0.96647 0.21391 0.82015 0.0
O135 O 0.96515 0.111 0.76548 0.0
O136 O 0.96924 0.11791 0.89236 0.0
O137 O 0.03959 0.16429 0.75226 0.0
O138 O 0.03973 0.19687 0.87495 0.0
O139 O 0.04039 0.0849 0.84347 0.0
Sc140 Sc 0.50457 0.29476 0.28908 0.0
Sc141 Sc 0.50041 0.38188 0.30156 0.0
Sc142 Sc 0.50233 0.32962 0.3789 0.0
O143 O 0.50246 0.33533 0.32317 0.0
C144 C 0.45535 0.27031 0.35252 0.0
C145 C 0.45238 0.34129 0.24794 0.0
C146 C 0.45053 0.38883 0.36922 0.0
C147 C 0.55227 0.34613 0.24807 0.0
C148 C 0.55383 0.27373 0.35365 0.0
C149 C 0.55004 0.39222 0.369 0.0
O150 O 0.46715 0.26837 0.32 0.0
O151 O 0.46243 0.36798 0.26317 0.0
O152 O 0.46281 0.36484 0.38744 0.0
O153 O 0.54255 0.31654 0.2545 0.0
O154 O 0.54149 0.2936 0.37727 0.0
O155 O 0.53817 0.40066 0.33792 0.0
O156 O 0.5433 0.27147 0.32066 0.0
O157 O 0.53897 0.37154 0.26274 0.0
O158 O 0.53947 0.36731 0.38713 0.0
O159 O 0.4656 0.31307 0.25381 0.0
O160 O 0.4655 0.29128 0.3763 0.0
O161 O 0.46164 0.39773 0.33797 0.0
Sc162 Sc 0.50295 0.68789 0.79031 0.0
Sc163 Sc 0.50318 0.60181 0.80799 0.0
Sc164 Sc 0.50453 0.65797 0.88213 0.0
O165 O 0.50356 0.64932 0.82679 0.0
C166 C 0.55177 0.71569 0.85152 0.0
C167 C 0.55261 0.63657 0.75167 0.0
C168 C 0.55484 0.59806 0.8749 0.0
C169 C 0.45285 0.63706 0.75251 0.0
C170 C 0.45359 0.71235 0.85434 0.0
C171 C 0.4556 0.59539 0.87684 0.0
O172 O 0.54282 0.71331 0.818 0.0
O173 O 0.54226 0.61158 0.76972 0.0
O174 O 0.54567 0.62488 0.89055 0.0
O175 O 0.46297 0.6666 0.75838 0.0
O176 O 0.46388 0.69178 0.87834 0.0
O177 O 0.46388 0.58731 0.84425 0.0
O178 O 0.46612 0.71475 0.82213 0.0
O179 O 0.46588 0.61176 0.76755 0.0
O180 O 0.46951 0.61883 0.89469 0.0
O181 O 0.53997 0.66546 0.75483 0.0
O182 O 0.53913 0.69855 0.87738 0.0
O183 O 0.54061 0.58626 0.84643 0.0
H184 H 0.16094 0.38544 0.92714 0.0
H185 H 0.11124 0.22493 0.81404 0.0
H186 H 0.23351 0.30855 0.90897 0.0
H187 H 0.0517 0.25805 0.90586 0.0
H188 H 0.15466 0.26483 0.83263 0.0
H189 H 0.11799 0.348 0.90253 0.0
C190 C 0.16781 0.36084 0.91749 0.0
C191 C 0.20052 0.34977 0.92029 0.0
C192 C 0.13194 0.26333 0.84842 0.0
C193 C 0.15219 0.30762 0.89159 0.0
C194 C 0.10729 0.24081 0.83786 0.0
C195 C 0.07817 0.23826 0.8587 0.0
C196 C 0.12668 0.28401 0.87913 0.0
C197 C 0.07403 0.2592 0.88937 0.0
C198 C 0.14342 0.3396 0.90368 0.0
C199 C 0.20838 0.31774 0.90753 0.0
N200 N 0.09795 0.2815 0.89852 0.0
N201 N 0.18432 0.29771 0.89348 0.0
H202 H 0.82985 0.59714 0.38878 0.0
H203 H 0.91548 0.77495 0.41668 0.0
H204 H 0.80606 0.66558 0.47691 0.0
H205 H 0.93346 0.71281 0.32122 0.0
H206 H 0.87496 0.73483 0.43851 0.0
H207 H 0.86796 0.63872 0.36306 0.0
C208 C 0.83268 0.62092 0.40264 0.0
C209 C 0.81496 0.62792 0.43499 0.0
C210 C 0.88763 0.72995 0.4127 0.0
C211 C 0.85819 0.6754 0.40595 0.0
C212 C 0.91086 0.75288 0.4002 0.0
C213 C 0.9281 0.74716 0.36714 0.0
C214 C 0.88161 0.70088 0.39219 0.0
C215 C 0.92077 0.71822 0.34687 0.0
C216 C 0.8543 0.64461 0.38796 0.0
C217 C 0.8193 0.65905 0.45194 0.0
N218 N 0.89819 0.696 0.35986 0.0
N219 N 0.84055 0.68158 0.43726 0.0
H220 H 0.81446 0.32405 0.98147 0.0
H221 H 0.9258 0.26219 0.81206 0.0
H222 H 0.80989 0.36869 0.87329 0.0
H223 H 0.92165 0.214 0.91857 0.0
H224 H 0.88371 0.30167 0.83319 0.0
H225 H 0.85463 0.28408 0.95835 0.0
C226 C 0.82195 0.32548 0.95279 0.0
C227 C 0.80888 0.3497 0.92916 0.0
C228 C 0.89199 0.28235 0.8518 0.0
C229 C 0.85493 0.3039 0.90245 0.0
C230 C 0.91599 0.25977 0.83977 0.0
C231 C 0.92747 0.23478 0.8636 0.0
C232 C 0.8795 0.27992 0.88791 0.0
C233 C 0.91378 0.23288 0.89919 0.0
C234 C 0.84488 0.30256 0.93956 0.0
C235 C 0.81949 0.35033 0.89231 0.0
N236 N 0.89067 0.25519 0.91024 0.0
N237 N 0.84198 0.32774 0.88001 0.0
H238 H 0.19093 0.66005 0.4851 0.0
H239 H 0.08613 0.72659 0.31319 0.0
H240 H 0.20184 0.62126 0.37452 0.0
H241 H 0.08106 0.76849 0.42308 0.0
H242 H 0.12864 0.68799 0.33457 0.0
H243 H 0.15031 0.69979 0.46245 0.0
C244 C 0.18475 0.65987 0.45601 0.0
C245 C 0.19972 0.63735 0.43155 0.0
C246 C 0.11827 0.70573 0.35393 0.0
C247 C 0.15321 0.68285 0.40542 0.0
C248 C 0.094 0.72781 0.34175 0.0
C249 C 0.07983 0.75079 0.36639 0.0
C250 C 0.12837 0.70656 0.39101 0.0
C251 C 0.09113 0.7512 0.40305 0.0
C252 C 0.16157 0.68264 0.44306 0.0
C253 C 0.19077 0.63827 0.39419 0.0
N254 N 0.1146 0.72935 0.41424 0.0
N255 N 0.16803 0.66066 0.38221 0.0
H256 H 0.73581 0.8088 0.90934 0.0
H257 H 0.55037 0.75977 0.90827 0.0
H258 H 0.66247 0.88517 0.92628 0.0
H259 H 0.61084 0.72705 0.81704 0.0
H260 H 0.59345 0.8002 0.92523 0.0
H261 H 0.69256 0.7721 0.88403 0.0
C262 C 0.71063 0.81782 0.90751 0.0
C263 C 0.70243 0.84986 0.9199 0.0
C264 C 0.59711 0.78423 0.90142 0.0
C265 C 0.65332 0.80813 0.8921 0.0
C266 C 0.57279 0.76114 0.89192 0.0
C267 C 0.57729 0.74024 0.8613 0.0
C268 C 0.62646 0.78554 0.88087 0.0
C269 C 0.60658 0.74295 0.84076 0.0
C270 C 0.68615 0.79703 0.893 0.0
C271 C 0.6696 0.86058 0.91689 0.0
N272 N 0.63046 0.76491 0.85129 0.0
N273 N 0.64599 0.83949 0.90391 0.0
H274 H 0.30616 0.16601 0.47669 0.0
H275 H 0.43362 0.21408 0.31629 0.0
H276 H 0.32925 0.10013 0.38594 0.0
H277 H 0.41758 0.27258 0.41497 0.0
H278 H 0.39241 0.17395 0.3382 0.0
H279 H 0.34412 0.20712 0.45143 0.0
C280 C 0.31924 0.16017 0.4514 0.0
C281 C 0.31472 0.12956 0.43338 0.0
C282 C 0.39792 0.19564 0.35493 0.0
C283 C 0.35825 0.17666 0.40423 0.0
C284 C 0.42134 0.21862 0.34241 0.0
C285 C 0.42925 0.24665 0.36393 0.0
C286 C 0.38224 0.2009 0.38907 0.0
C287 C 0.41254 0.25123 0.39755 0.0
C288 C 0.34094 0.18371 0.43696 0.0
C289 C 0.33224 0.12346 0.40065 0.0
N290 N 0.38992 0.22857 0.40906 0.0
N291 N 0.35333 0.14682 0.38707 0.0
H292 H 0.31196 0.82309 0.98245 0.0
H293 H 0.4251 0.76277 0.81385 0.0
H294 H 0.30782 0.86808 0.87443 0.0
H295 H 0.42047 0.71415 0.92008 0.0
H296 H 0.38242 0.80175 0.83469 0.0
H297 H 0.35249 0.78343 0.95947 0.0
C298 C 0.31961 0.82465 0.95384 0.0
C299 C 0.30657 0.8489 0.93023 0.0
C300 C 0.39073 0.78244 0.8533 0.0
C301 C 0.35306 0.80346 0.90367 0.0
C302 C 0.41507 0.76015 0.84143 0.0
C303 C 0.42659 0.73519 0.86527 0.0
C304 C 0.37795 0.77975 0.88926 0.0
C305 C 0.41259 0.73301 0.9007 0.0
C306 C 0.34275 0.80191 0.94068 0.0
C307 C 0.31738 0.84969 0.89344 0.0
N308 N 0.38917 0.75504 0.9116 0.0
N309 N 0.3401 0.82729 0.88123 0.0
H310 H 0.6808 0.10278 0.38415 0.0
H311 H 0.58896 0.27632 0.41816 0.0
H312 H 0.69737 0.16563 0.47919 0.0
H313 H 0.57928 0.21934 0.31738 0.0
H314 H 0.62951 0.23631 0.44028 0.0
H315 H 0.64379 0.1452 0.35871 0.0
C316 C 0.67662 0.12553 0.39959 0.0
C317 C 0.69202 0.13069 0.43378 0.0
C318 C 0.61867 0.23262 0.41323 0.0
C319 C 0.64993 0.17921 0.40504 0.0
C320 C 0.59546 0.25548 0.40055 0.0
C321 C 0.58047 0.25111 0.36591 0.0
C322 C 0.62688 0.20498 0.39129 0.0
C323 C 0.59014 0.22372 0.34427 0.0
C324 C 0.65562 0.14973 0.38507 0.0
C325 C 0.68595 0.16056 0.45274 0.0
N326 N 0.61256 0.20155 0.35744 0.0
N327 N 0.66529 0.18364 0.43815 0.0
H328 H 0.28846 0.46926 0.93708 0.0
H329 H 0.44953 0.58212 0.9504 0.0
H330 H 0.37282 0.44372 0.00476 0.0
H331 H 0.40339 0.56292 0.845 0.0
H332 H 0.41038 0.54346 0.97936 0.0
H333 H 0.32093 0.51497 0.91036 0.0
C334 C 0.31356 0.47315 0.94654 0.0
C335 C 0.32762 0.45246 0.97361 0.0
C336 C 0.40866 0.54813 0.94997 0.0
C337 C 0.36411 0.5054 0.94412 0.0
C338 C 0.43082 0.57021 0.9335 0.0
C339 C 0.42986 0.57535 0.89524 0.0
C340 C 0.38502 0.53173 0.92814 0.0
C341 C 0.40516 0.55923 0.87454 0.0
C342 C 0.33189 0.49939 0.93143 0.0
C343 C 0.36023 0.45934 0.98499 0.0
N344 N 0.38364 0.53804 0.89127 0.0
N345 N 0.37721 0.48527 0.97037 0.0
H346 H 0.68707 0.4852 0.51972 0.0
H347 H 0.58129 0.44629 0.33849 0.0
H348 H 0.68828 0.54684 0.42228 0.0
H349 H 0.58089 0.38419 0.4358 0.0
H350 H 0.62435 0.48061 0.36651 0.0
H351 H 0.65244 0.44486 0.48703 0.0
C352 C 0.68027 0.49004 0.4913 0.0
C353 C 0.6903 0.51948 0.47374 0.0
C354 C 0.61496 0.45936 0.38164 0.0
C355 C 0.65059 0.47362 0.43624 0.0
C356 C 0.59028 0.43977 0.3657 0.0
C357 C 0.57712 0.41246 0.38496 0.0
C358 C 0.62654 0.45171 0.41716 0.0
C359 C 0.59004 0.40512 0.42 0.0
C360 C 0.66055 0.46702 0.47264 0.0
C361 C 0.68122 0.52437 0.43677 0.0
N362 N 0.61387 0.42476 0.43504 0.0
N363 N 0.66156 0.50183 0.41935 0.0
H364 H 0.69546 0.44336 0.92016 0.0
H365 H 0.58669 0.60825 0.94107 0.0
H366 H 0.68913 0.50045 0.02108 0.0
H367 H 0.58717 0.54493 0.84444 0.0
H368 H 0.63048 0.57401 0.96785 0.0
H369 H 0.66296 0.48584 0.88887 0.0
C370 C 0.68779 0.46516 0.93559 0.0
C371 C 0.69475 0.46821 0.9734 0.0
C372 C 0.62112 0.5678 0.94068 0.0
C373 C 0.65684 0.51661 0.93791 0.0
C374 C 0.59612 0.58733 0.92536 0.0
C375 C 0.58286 0.5792 0.89065 0.0
C376 C 0.63299 0.54004 0.9211 0.0
C377 C 0.59624 0.55191 0.87149 0.0
C378 C 0.66895 0.48929 0.91777 0.0
C379 C 0.68378 0.49684 -0.00795 0.0
N380 N 0.62039 0.53323 0.88707 0.0
N381 N 0.66508 0.51979 0.97421 0.0
H382 H 0.31675 0.48443 0.52173 0.0
H383 H 0.41493 0.43894 0.33706 0.0
H384 H 0.31325 0.54284 0.42192 0.0
H385 H 0.42257 0.38241 0.43807 0.0
H386 H 0.37205 0.47297 0.36542 0.0
H387 H 0.34965 0.44256 0.48921 0.0
C388 C 0.32264 0.48827 0.49287 0.0
C389 C 0.31255 0.51734 0.47461 0.0
C390 C 0.38294 0.45299 0.38133 0.0
C391 C 0.35017 0.4696 0.43726 0.0
C392 C 0.40753 0.43353 0.36517 0.0
C393 C 0.42278 0.40799 0.38536 0.0
C394 C 0.37352 0.44703 0.41804 0.0
C395 C 0.41175 0.40199 0.42153 0.0
C396 C 0.34136 0.46435 0.47431 0.0
C397 C 0.32036 0.52077 0.43705 0.0
N398 N 0.388 0.42157 0.43682 0.0
N399 N 0.33901 0.49738 0.41974 0.0
H400 H 0.87332 0.94362 0.00783 0.0
H401 H 0.90313 0.06222 0.84242 0.0
H402 H 0.79039 0.96977 0.93829 0.0
H403 H 0.9489 0.08115 0.94807 0.0
H404 H 0.86389 0.02435 0.87266 0.0
H405 H 0.9043 0.98983 0.98228 0.0
C406 C 0.86118 0.95932 0.98776 0.0
C407 C 0.82868 0.95278 0.97581 0.0
C408 C 0.88225 0.03723 0.88917 0.0
C409 C 0.8652 0.0051 0.94511 0.0
C410 C 0.9047 0.05862 0.87202 0.0
C411 C 0.92939 0.07459 0.89283 0.0
C412 C 0.88518 0.03116 0.92712 0.0
C413 C 0.93024 0.06931 0.93107 0.0
C414 C 0.87917 0.98563 0.97298 0.0
C415 C 0.81536 0.97344 0.94823 0.0
N416 N 0.90882 0.04752 0.94692 0.0
N417 N 0.83383 -0.00152 0.93346 0.0
H418 H 0.1892 0.98421 0.51767 0.0
H419 H 0.08106 0.9456 0.3382 0.0
H420 H 0.18899 0.04613 0.42046 0.0
H421 H 0.08209 0.88332 0.43536 0.0
H422 H 0.12469 0.97973 0.3654 0.0
H423 H 0.15454 0.9437 0.48529 0.0
C424 C 0.18211 0.98906 0.48935 0.0
C425 C 0.1917 0.01865 0.47179 0.0
C426 C 0.1155 0.95848 0.38066 0.0
C427 C 0.15192 0.97262 0.43465 0.0
C428 C 0.09049 0.939 0.36519 0.0
C429 C 0.07755 0.91171 0.38468 0.0
C430 C 0.12763 0.95073 0.41593 0.0
C431 C 0.09104 0.90425 0.41941 0.0
C432 C 0.16237 0.96596 0.47086 0.0
C433 C 0.18225 0.02356 0.43494 0.0
N434 N 0.11517 0.92379 0.43401 0.0
N435 N 0.16255 0.00095 0.41771 0.0
H436 H 0.19004 0.00164 0.0223 0.0
H437 H 0.08776 0.04438 0.8404 0.0
H438 H 0.19299 0.94318 0.92218 0.0
H439 H 0.08559 0.10515 0.93898 0.0
H440 H 0.1312 0.0107 0.86785 0.0
H441 H 0.15699 0.04352 -0.0098 0.0
C442 C 0.18404 -0.00218 -0.00656 0.0
C443 C 0.19398 0.96873 0.97498 0.0
C444 C 0.12142 0.03153 0.88343 0.0
C445 C 0.15617 0.01641 0.93816 0.0
C446 C 0.09647 0.05075 0.86781 0.0
C447 C 0.08262 0.0774 0.88762 0.0
C448 C 0.13252 0.03876 0.91928 0.0
C449 C 0.09534 0.0847 0.9228 0.0
C450 C 0.16524 0.02174 0.97513 0.0
C451 C 0.186 0.96527 0.93746 0.0
N452 N 0.11935 0.06526 0.93767 0.0
N453 N 0.16724 0.98863 0.92043 0.0
H454 H 0.81515 0.98366 0.52292 0.0
H455 H 0.91522 0.93966 0.33895 0.0
H456 H 0.81251 0.0428 0.42359 0.0
H457 H 0.92269 0.88291 0.43983 0.0
H458 H 0.87228 0.9736 0.36731 0.0
H459 H 0.84902 0.94242 0.49064 0.0
C460 C 0.82145 0.9878 0.49421 0.0
C461 C 0.81125 0.01685 0.47601 0.0
C462 C 0.88316 0.95361 0.3832 0.0
C463 C 0.84997 0.96984 0.43894 0.0
C464 C 0.90778 0.9342 0.36704 0.0
C465 C 0.92296 0.90858 0.38717 0.0
C466 C 0.87362 0.94752 0.41984 0.0
C467 C 0.91192 0.90254 0.42333 0.0
C468 C 0.84072 0.96424 0.47579 0.0
C469 C 0.81964 0.0207 0.43865 0.0
N470 N 0.88809 0.92205 0.4386 0.0
N471 N 0.83879 -0.00237 0.42148 0.0
H472 H 0.32907 0.32177 0.05582 0.0
H473 H 0.40863 0.39251 0.24079 0.0
H474 H 0.30464 0.41674 0.10441 0.0
H475 H 0.43134 0.29515 0.19675 0.0
H476 H 0.36457 0.398 0.1956 0.0
H477 H 0.3596 0.30724 0.11195 0.0
C478 C 0.3294 0.33916 0.07874 0.0
C479 C 0.31479 0.37066 0.07542 0.0
C480 C 0.37896 0.37528 0.19591 0.0
C481 C 0.35006 0.35461 0.13914 0.0
C482 C 0.40431 0.3722 0.22164 0.0
C483 C 0.42413 0.34355 0.22216 0.0
C484 C 0.3735 0.34972 0.1701 0.0
C485 C 0.41688 0.31781 0.1971 0.0
C486 C 0.34704 0.331 0.11062 0.0
C487 C 0.31608 0.39241 0.10572 0.0
N488 N 0.3924 0.32169 0.17173 0.0
N489 N 0.33383 0.38416 0.1361 0.0
H490 H 0.6887 0.64602 0.56719 0.0
H491 H 0.59131 0.58126 0.74512 0.0
H492 H 0.69206 0.54527 0.60802 0.0
H493 H 0.57782 0.67961 0.69943 0.0
H494 H 0.63476 0.5709 0.70031 0.0
H495 H 0.65516 0.66194 0.62085 0.0
C496 C 0.68292 0.62744 0.58786 0.0
C497 C 0.69283 0.59423 0.58313 0.0
C498 C 0.62245 0.59482 0.7001 0.0
C499 C 0.65433 0.61207 0.64405 0.0
C500 C 0.59748 0.60078 0.72568 0.0
C501 C 0.58044 0.63122 0.72574 0.0
C502 C 0.63051 0.61937 0.67409 0.0
C503 C 0.59007 0.65568 0.7002 0.0
C504 C 0.6636 0.63646 0.61828 0.0
C505 C 0.68449 0.57104 0.61046 0.0
N506 N 0.6143 0.6491 0.67514 0.0
N507 N 0.66552 0.58034 0.63959 0.0
H508 H 0.68785 0.33865 0.06322 0.0
H509 H 0.58827 0.40305 0.23975 0.0
H510 H 0.6923 0.43894 0.10592 0.0
H511 H 0.58019 0.30247 0.19811 0.0
H512 H 0.63155 0.41413 0.19497 0.0
H513 H 0.65415 0.32241 0.11656 0.0
C514 C 0.68224 0.35708 0.08419 0.0
C515 C 0.69255 0.39026 0.08005 0.0
C516 C 0.6205 0.38955 0.19563 0.0
C517 C 0.6538 0.37204 0.14067 0.0
C518 C 0.59562 0.38319 0.22119 0.0
C519 C 0.58015 0.35188 0.22237 0.0
C520 C 0.63001 0.36454 0.17069 0.0
C521 C 0.59125 0.32703 0.198 0.0
C522 C 0.66284 0.34786 0.11446 0.0
C523 C 0.68439 0.41322 0.1078 0.0
N524 N 0.61532 0.33401 0.17284 0.0
N525 N 0.6653 0.40373 0.13673 0.0
H526 H 0.31806 0.64576 0.56761 0.0
H527 H 0.41724 0.57988 0.74324 0.0
H528 H 0.31444 0.5447 0.60763 0.0
H529 H 0.42467 0.68092 0.70334 0.0
H530 H 0.37419 0.56891 0.69808 0.0
H531 H 0.35114 0.66145 0.62158 0.0
C532 C 0.32371 0.62703 0.58812 0.0
C533 C 0.31381 0.59381 0.58303 0.0
C534 C 0.38504 0.59356 0.69924 0.0
C535 C 0.35193 0.61143 0.64438 0.0
C536 C 0.40978 0.59986 0.72501 0.0
C537 C 0.42501 0.63128 0.72676 0.0
C538 C 0.37546 0.61875 0.6747 0.0
C539 C 0.4138 0.65627 0.70279 0.0
C540 C 0.34278 0.63594 0.61875 0.0
C541 C 0.32205 0.57047 0.61022 0.0
N542 N 0.3899 0.64936 0.67745 0.0
N543 N 0.34084 0.57967 0.63955 0.0
H544 H 0.82753 0.82214 0.05808 0.0
H545 H 0.90709 0.89231 0.24313 0.0
H546 H 0.80384 0.91745 0.10632 0.0
H547 H 0.92874 0.79458 0.19942 0.0
H548 H 0.86297 0.89808 0.19803 0.0
H549 H 0.85733 0.80726 0.11455 0.0
C550 C 0.82785 0.83955 0.08099 0.0
C551 C 0.8137 0.87124 0.07747 0.0
C552 C 0.87713 0.87522 0.19841 0.0
C553 C 0.84816 0.85477 0.14159 0.0
C554 C 0.90251 0.87197 0.22408 0.0
C555 C 0.92207 0.84315 0.22463 0.0
C556 C 0.87141 0.84965 0.17268 0.0
C557 C 0.91449 0.81738 0.19974 0.0
C558 C 0.84507 0.83117 0.11307 0.0
C559 C 0.81496 0.89298 0.10778 0.0
N560 N 0.89002 0.82143 0.17439 0.0
N561 N 0.83234 0.88453 0.13836 0.0
H562 H 0.18873 0.14524 0.56509 0.0
H563 H 0.09035 0.07981 0.74199 0.0
H564 H 0.19256 0.04452 0.60599 0.0
H565 H 0.07755 0.17852 0.69702 0.0
H566 H 0.134 0.06954 0.69739 0.0
H567 H 0.15481 0.16093 0.6185 0.0
C568 C 0.18297 0.12662 0.58573 0.0
C569 C 0.19314 0.09348 0.58107 0.0
C570 C 0.12179 0.09352 0.69729 0.0
C571 C 0.15416 0.11106 0.6417 0.0
C572 C 0.0967 0.09942 0.72274 0.0
C573 C 0.07982 0.12995 0.72295 0.0
C574 C 0.13012 0.11822 0.67156 0.0
C575 C 0.08968 0.15452 0.69766 0.0
C576 C 0.16343 0.13551 0.616 0.0
C577 C 0.1848 0.07023 0.60835 0.0
N578 N 0.11402 0.14801 0.67272 0.0
N579 N 0.16559 0.07941 0.63733 0.0
H580 H 0.19331 0.93985 0.10814 0.0
H581 H 0.0788 0.80016 0.20025 0.0
H582 H 0.18482 0.84005 0.06481 0.0
H583 H 0.08547 0.90224 0.23751 0.0
H584 H 0.1226 0.81159 0.15508 0.0
H585 H 0.15939 0.92365 0.16086 0.0
C586 C 0.18452 0.9144 0.11 0.0
C587 C 0.19154 0.89134 0.08198 0.0
C588 C 0.11455 0.83135 0.17337 0.0
C589 C 0.1524 0.87259 0.14201 0.0
C590 C 0.08956 0.82486 0.19913 0.0
C591 C 0.07807 0.85038 0.22238 0.0
C592 C 0.12816 0.86353 0.17104 0.0
C593 C 0.09308 0.88187 0.21983 0.0
C594 C 0.16515 0.90512 0.14006 0.0
C595 C 0.17998 0.85855 0.08592 0.0
N596 N 0.11715 0.88754 0.19455 0.0
N597 N 0.16058 0.85022 0.11518 0.0
H598 H 0.8147 0.14495 0.56809 0.0
H599 H 0.91544 0.07979 0.74292 0.0
H600 H 0.81074 0.04437 0.60949 0.0
H601 H 0.9239 0.1802 0.70136 0.0
H602 H 0.87143 0.06904 0.69889 0.0
H603 H 0.84839 0.16099 0.62152 0.0
C604 C 0.82037 0.12642 0.58883 0.0
C605 C 0.81025 0.09321 0.58426 0.0
C606 C 0.88272 0.09351 0.69944 0.0
C607 C 0.84904 0.11121 0.64496 0.0
C608 C 0.90802 0.09968 0.72454 0.0
C609 C 0.92382 0.13084 0.72549 0.0
C610 C 0.87313 0.11856 0.67472 0.0
C611 C 0.91261 0.15574 0.7014 0.0
C612 C 0.83978 0.13552 0.61914 0.0
C613 C 0.81849 0.07013 0.61172 0.0
N614 N 0.88814 0.14895 0.67668 0.0
N615 N 0.83763 0.0795 0.64069 0.0
loop_
_geom_bond_atom_site_label_1
_geom_bond_atom_site_label_2
_geom_bond_distance
_geom_bond_site_symmetry_2
_ccdc_geom_bond_type
H0 C5 0.930 . S
H1 C8 0.930 . S
H2 C10 0.930 . S
H3 C4 1.016 . S
C4 H3 1.016 . S
C4 N11 1.286 . S
C5 H0 0.930 . S
C5 C6 1.397 . S
C5 C7 1.361 . S
C6 C5 1.397 . S
C6 C10 1.390 . S
C7 C5 1.361 . S
C7 C8 1.393 1_554 S
C7 N11 1.413 1_554 S
C8 H1 0.930 . S
C8 C7 1.393 1_556 S
C8 C9 1.399 . S
C9 C8 1.399 . S
C9 C10 1.381 1_556 S
C10 H2 0.930 . S
C10 C6 1.390 . S
C10 C9 1.381 1_554 S
N11 C4 1.286 . S
N11 C7 1.413 1_556 S
H12 C17 0.930 . S
H13 C20 0.930 . S
H14 C22 0.930 . S
H15 C16 1.016 . S
C16 H15 1.016 . S
C16 N23 1.286 . S
C17 H12 0.930 . S
C17 C18 1.397 . S
C17 C19 1.361 . S
C18 C17 1.397 . S
C18 C22 1.390 . S
C19 C17 1.361 . S
C19 C20 1.393 . S
C19 N23 1.413 . S
C20 H13 0.930 . S
C20 C19 1.393 . S
C20 C21 1.399 . S
C21 C20 1.399 . S
C21 C22 1.381 . S
C22 H14 0.930 . S
C22 C18 1.390 . S
C22 C21 1.381 . S
N23 C16 1.286 . S
N23 C19 1.413 . S
H24 C29 0.930 . S
H25 C32 0.930 . S
H26 C34 0.930 . S
H27 C28 1.016 . S
C28 H27 1.016 . S
C28 N35 1.286 1_556 S
C29 H24 0.930 . S
C29 C30 1.397 . S
C29 C31 1.361 . S
C30 C29 1.397 . S
C30 C34 1.390 . S
C31 C29 1.361 . S
C31 C32 1.393 1_554 S
C31 N35 1.413 . S
C32 H25 0.930 . S
C32 C31 1.393 1_556 S
C32 C33 1.399 . S
C33 C32 1.399 . S
C33 C34 1.381 1_556 S
C34 H26 0.930 . S
C34 C30 1.390 . S
C34 C33 1.381 1_554 S
N35 C28 1.286 1_554 S
N35 C31 1.413 . S
H36 C41 0.930 . S
H37 C44 0.930 . S
H38 C46 0.930 . S
H39 C40 1.016 . S
C40 H39 1.016 . S
C40 N47 1.286 . S
C41 H36 0.930 . S
C41 C42 1.397 . S
C41 C43 1.361 . S
C42 C41 1.397 . S
C42 C46 1.390 . S
C43 C41 1.361 . S
C43 C44 1.393 . S
C43 N47 1.413 . S
C44 H37 0.930 . S
C44 C43 1.393 . S
C44 C45 1.399 . S
C45 C44 1.399 . S
C45 C46 1.381 . S
C46 H38 0.930 . S
C46 C42 1.390 . S
C46 C45 1.381 . S
N47 C40 1.286 . S
N47 C43 1.413 . S
H48 C53 0.930 . S
H49 C56 0.930 . S
H50 C58 0.930 . S
H51 C52 1.016 . S
C52 H51 1.016 . S
C52 N59 1.286 . S
C53 H48 0.930 . S
C53 C54 1.397 . S
C53 C55 1.361 . S
C54 C53 1.397 . S
C54 C58 1.390 . S
C55 C53 1.361 . S
C55 C56 1.393 1_554 S
C55 N59 1.413 1_554 S
C56 H49 0.930 . S
C56 C55 1.393 1_556 S
C56 C57 1.399 . S
C57 C56 1.399 . S
C57 C58 1.381 1_556 S
C58 H50 0.930 . S
C58 C54 1.390 . S
C58 C57 1.381 1_554 S
N59 C52 1.286 . S
N59 C55 1.413 1_556 S
H60 C65 0.930 . S
H61 C68 0.930 . S
H62 C70 0.930 . S
H63 C64 1.016 . S
C64 H63 1.016 . S
C64 N71 1.286 . S
C65 H60 0.930 . S
C65 C66 1.397 . S
C65 C67 1.361 . S
C66 C65 1.397 . S
C66 C70 1.390 . S
C67 C65 1.361 . S
C67 C68 1.393 . S
C67 N71 1.413 . S
C68 H61 0.930 . S
C68 C67 1.393 . S
C68 C69 1.399 . S
C69 C68 1.399 . S
C69 C70 1.381 . S
C70 H62 0.930 . S
C70 C66 1.390 . S
C70 C69 1.381 . S
N71 C64 1.286 . S
N71 C67 1.413 . S
H72 C77 0.930 . S
H73 C80 0.930 . S
H74 C82 0.930 . S
H75 C76 1.016 . S
C76 H75 1.016 . S
C76 N83 1.286 1_556 S
C77 H72 0.930 . S
C77 C78 1.397 . S
C77 C79 1.361 . S
C78 C77 1.397 . S
C78 C82 1.390 . S
C79 C77 1.361 . S
C79 C80 1.393 1_554 S
C79 N83 1.413 . S
C80 H73 0.930 . S
C80 C79 1.393 1_556 S
C80 C81 1.399 . S
C81 C80 1.399 . S
C81 C82 1.381 1_556 S
C82 H74 0.930 . S
C82 C78 1.390 . S
C82 C81 1.381 1_554 S
N83 C76 1.286 1_554 S
N83 C79 1.413 . S
H84 C89 0.930 . S
H85 C92 0.930 . S
H86 C94 0.930 . S
H87 C88 1.016 . S
C88 H87 1.016 . S
C88 N95 1.286 . S
C89 H84 0.930 . S
C89 C90 1.397 . S
C89 C91 1.361 . S
C90 C89 1.397 . S
C90 C94 1.390 . S
C91 C89 1.361 . S
C91 C92 1.393 . S
C91 N95 1.413 . S
C92 H85 0.930 . S
C92 C91 1.393 . S
C92 C93 1.399 . S
C93 C92 1.399 . S
C93 C94 1.381 . S
C94 H86 0.930 . S
C94 C90 1.390 . S
C94 C93 1.381 . S
N95 C88 1.286 . S
N95 C91 1.413 . S
Sc96 O99 2.025 . S
Sc96 O106 2.105 1_455 S
Sc96 O109 2.105 . S
Sc96 O112 2.105 . S
Sc96 O115 2.105 1_455 S
Sc97 O99 2.025 . S
Sc97 O107 2.105 1_455 S
Sc97 O111 2.105 . S
Sc97 O113 2.105 . S
Sc97 O117 2.105 1_455 S
Sc98 O99 2.025 . S
Sc98 O108 2.105 1_455 S
Sc98 O110 2.105 . S
Sc98 O114 2.105 . S
Sc98 O116 2.105 1_455 S
O99 Sc96 2.025 . S
O99 Sc97 2.025 . S
O99 Sc98 2.025 . S
C100 O106 1.268 . S
C100 O116 1.268 . S
C101 O107 1.268 . S
C101 O115 1.268 . S
C102 O108 1.268 . S
C102 O117 1.268 . S
C103 O109 1.268 . S
C103 O113 1.268 . S
C104 O110 1.268 . S
C104 O112 1.268 . S
C105 O111 1.268 . S
C105 O114 1.268 . S
O106 Sc96 2.105 1_655 S
O106 C100 1.268 . S
O107 Sc97 2.105 1_655 S
O107 C101 1.268 . S
O108 Sc98 2.105 1_655 S
O108 C102 1.268 . S
O109 Sc96 2.105 . S
O109 C103 1.268 . S
O110 Sc98 2.105 . S
O110 C104 1.268 . S
O111 Sc97 2.105 . S
O111 C105 1.268 . S
O112 Sc96 2.105 . S
O112 C104 1.268 . S
O113 Sc97 2.105 . S
O113 C103 1.268 . S
O114 Sc98 2.105 . S
O114 C105 1.268 . S
O115 Sc96 2.105 1_655 S
O115 C101 1.268 . S
O116 Sc98 2.105 1_655 S
O116 C100 1.268 . S
O117 Sc97 2.105 1_655 S
O117 C102 1.268 . S
Sc118 O121 2.025 . S
Sc118 O128 2.105 . S
Sc118 O131 2.105 1_455 S
Sc118 O134 2.105 1_455 S
Sc118 O137 2.105 . S
Sc119 O121 2.025 . S
Sc119 O129 2.105 . S
Sc119 O133 2.105 1_455 S
Sc119 O135 2.105 1_455 S
Sc119 O139 2.105 . S
Sc120 O121 2.025 . S
Sc120 O130 2.105 . S
Sc120 O132 2.105 1_455 S
Sc120 O136 2.105 1_455 S
Sc120 O138 2.105 . S
O121 Sc118 2.025 . S
O121 Sc119 2.025 . S
O121 Sc120 2.025 . S
C122 O128 1.268 . S
C122 O138 1.268 . S
C123 O129 1.268 . S
C123 O137 1.268 . S
C124 O130 1.268 . S
C124 O139 1.268 . S
C125 O131 1.268 . S
C125 O135 1.268 . S
C126 O132 1.268 . S
C126 O134 1.268 . S
C127 O133 1.268 . S
C127 O136 1.268 . S
O128 Sc118 2.105 . S
O128 C122 1.268 . S
O129 Sc119 2.105 . S
O129 C123 1.268 . S
O130 Sc120 2.105 . S
O130 C124 1.268 . S
O131 Sc118 2.105 1_655 S
O131 C125 1.268 . S
O132 Sc120 2.105 1_655 S
O132 C126 1.268 . S
O133 Sc119 2.105 1_655 S
O133 C127 1.268 . S
O134 Sc118 2.105 1_655 S
O134 C126 1.268 . S
O135 Sc119 2.105 1_655 S
O135 C125 1.268 . S
O136 Sc120 2.105 1_655 S
O136 C127 1.268 . S
O137 Sc118 2.105 . S
O137 C123 1.268 . S
O138 Sc120 2.105 . S
O138 C122 1.268 . S
O139 Sc119 2.105 . S
O139 C124 1.268 . S
Sc140 O143 2.025 . S
Sc140 O150 2.105 . S
Sc140 O153 2.105 . S
Sc140 O156 2.105 . S
Sc140 O159 2.105 . S
Sc141 O143 2.025 . S
Sc141 O151 2.105 . S
Sc141 O155 2.105 . S
Sc141 O157 2.105 . S
Sc141 O161 2.105 . S
Sc142 O143 2.025 . S
Sc142 O152 2.105 . S
Sc142 O154 2.105 . S
Sc142 O158 2.105 . S
Sc142 O160 2.105 . S
O143 Sc140 2.025 . S
O143 Sc141 2.025 . S
O143 Sc142 2.025 . S
C144 O150 1.268 . S
C144 O160 1.268 . S
C145 O151 1.268 . S
C145 O159 1.268 . S
C146 O152 1.268 . S
C146 O161 1.268 . S
C147 O153 1.268 . S
C147 O157 1.268 . S
C148 O154 1.268 . S
C148 O156 1.268 . S
C149 O155 1.268 . S
C149 O158 1.268 . S
O150 Sc140 2.105 . S
O150 C144 1.268 . S
O151 Sc141 2.105 . S
O151 C145 1.268 . S
O152 Sc142 2.105 . S
O152 C146 1.268 . S
O153 Sc140 2.105 . S
O153 C147 1.268 . S
O154 Sc142 2.105 . S
O154 C148 1.268 . S
O155 Sc141 2.105 . S
O155 C149 1.268 . S
O156 Sc140 2.105 . S
O156 C148 1.268 . S
O157 Sc141 2.105 . S
O157 C147 1.268 . S
O158 Sc142 2.105 . S
O158 C149 1.268 . S
O159 Sc140 2.105 . S
O159 C145 1.268 . S
O160 Sc142 2.105 . S
O160 C144 1.268 . S
O161 Sc141 2.105 . S
O161 C146 1.268 . S
Sc162 O165 2.025 . S
Sc162 O172 2.105 . S
Sc162 O175 2.105 . S
Sc162 O178 2.105 . S
Sc162 O181 2.105 . S
Sc163 O165 2.025 . S
Sc163 O173 2.105 . S
Sc163 O177 2.105 . S
Sc163 O179 2.105 . S
Sc163 O183 2.105 . S
Sc164 O165 2.025 . S
Sc164 O174 2.105 . S
Sc164 O176 2.105 . S
Sc164 O180 2.105 . S
Sc164 O182 2.105 . S
O165 Sc162 2.025 . S
O165 Sc163 2.025 . S
O165 Sc164 2.025 . S
C166 O172 1.268 . S
C166 O182 1.268 . S
C167 O173 1.268 . S
C167 O181 1.268 . S
C168 O174 1.268 . S
C168 O183 1.268 . S
C169 O175 1.268 . S
C169 O179 1.268 . S
C170 O176 1.268 . S
C170 O178 1.268 . S
C171 O177 1.268 . S
C171 O180 1.268 . S
O172 Sc162 2.105 . S
O172 C166 1.268 . S
O173 Sc163 2.105 . S
O173 C167 1.268 . S
O174 Sc164 2.105 . S
O174 C168 1.268 . S
O175 Sc162 2.105 . S
O175 C169 1.268 . S
O176 Sc164 2.105 . S
O176 C170 1.268 . S
O177 Sc163 2.105 . S
O177 C171 1.268 . S
O178 Sc162 2.105 . S
O178 C170 1.268 . S
O179 Sc163 2.105 . S
O179 C169 1.268 . S
O180 Sc164 2.105 . S
O180 C171 1.268 . S
O181 Sc162 2.105 . S
O181 C167 1.268 . S
O182 Sc164 2.105 . S
O182 C166 1.268 . S
O183 Sc163 2.105 . S
O183 C168 1.268 . S
H184 C190 0.930 . S
H185 C194 0.930 . S
H186 C199 0.929 . S
H187 C197 0.929 . S
H188 C192 0.929 . S
H189 C198 0.929 . S
C190 H184 0.930 . S
C190 C191 1.367 . S
C190 C198 1.378 . S
C191 C190 1.367 . S
C191 C199 1.433 . S
C192 H188 0.929 . S
C192 C194 1.378 . S
C192 C196 1.350 . S
C193 C196 1.463 . S
C193 C198 1.350 . S
C193 N201 1.427 . S
C194 H185 0.930 . S
C194 C192 1.378 . S
C194 C195 1.367 . S
C195 C194 1.367 . S
C195 C197 1.433 . S
C196 C192 1.350 . S
C196 C193 1.463 . S
C196 N200 1.427 . S
C197 H187 0.929 . S
C197 C195 1.433 . S
C197 N200 1.384 . S
C198 H189 0.929 . S
C198 C190 1.378 . S
C198 C193 1.350 . S
C199 H186 0.929 . S
C199 C191 1.433 . S
C199 N201 1.384 . S
N200 C196 1.427 . S
N200 C197 1.384 . S
N201 C193 1.427 . S
N201 C199 1.384 . S
H202 C208 0.930 . S
H203 C212 0.930 . S
H204 C217 0.929 . S
H205 C215 0.929 . S
H206 C210 0.929 . S
H207 C216 0.929 . S
C208 H202 0.930 . S
C208 C209 1.367 . S
C208 C216 1.378 . S
C209 C208 1.367 . S
C209 C217 1.433 . S
C210 H206 0.929 . S
C210 C212 1.378 . S
C210 C214 1.350 . S
C211 C214 1.463 . S
C211 C216 1.350 . S
C211 N219 1.427 . S
C212 H203 0.930 . S
C212 C210 1.378 . S
C212 C213 1.367 . S
C213 C212 1.367 . S
C213 C215 1.433 . S
C214 C210 1.350 . S
C214 C211 1.463 . S
C214 N218 1.427 . S
C215 H205 0.929 . S
C215 C213 1.433 . S
C215 N218 1.384 . S
C216 H207 0.929 . S
C216 C208 1.378 . S
C216 C211 1.350 . S
C217 H204 0.929 . S
C217 C209 1.433 . S
C217 N219 1.384 . S
N218 C214 1.427 . S
N218 C215 1.384 . S
N219 C211 1.427 . S
N219 C217 1.384 . S
H220 C226 0.930 1_554 S
H221 C230 0.930 . S
H222 C235 0.929 . S
H223 C233 0.929 . S
H224 C228 0.929 . S
H225 C234 0.929 . S
C226 H220 0.930 1_556 S
C226 C227 1.367 . S
C226 C234 1.378 . S
C227 C226 1.367 . S
C227 C235 1.433 . S
C228 H224 0.929 . S
C228 C230 1.378 . S
C228 C232 1.350 . S
C229 C232 1.463 . S
C229 C234 1.350 . S
C229 N237 1.427 . S
C230 H221 0.930 . S
C230 C228 1.378 . S
C230 C231 1.367 . S
C231 C230 1.367 . S
C231 C233 1.433 . S
C232 C228 1.350 . S
C232 C229 1.463 . S
C232 N236 1.427 . S
C233 H223 0.929 . S
C233 C231 1.433 . S
C233 N236 1.384 . S
C234 H225 0.929 . S
C234 C226 1.378 . S
C234 C229 1.350 . S
C235 H222 0.929 . S
C235 C227 1.433 . S
C235 N237 1.384 . S
N236 C232 1.427 . S
N236 C233 1.384 . S
N237 C229 1.427 . S
N237 C235 1.384 . S
H238 C244 0.930 . S
H239 C248 0.930 . S
H240 C253 0.929 . S
H241 C251 0.929 . S
H242 C246 0.929 . S
H243 C252 0.929 . S
C244 H238 0.930 . S
C244 C245 1.367 . S
C244 C252 1.378 . S
C245 C244 1.367 . S
C245 C253 1.433 . S
C246 H242 0.929 . S
C246 C248 1.378 . S
C246 C250 1.350 . S
C247 C250 1.463 . S
C247 C252 1.350 . S
C247 N255 1.427 . S
C248 H239 0.930 . S
C248 C246 1.378 . S
C248 C249 1.367 . S
C249 C248 1.367 . S
C249 C251 1.433 . S
C250 C246 1.350 . S
C250 C247 1.463 . S
C250 N254 1.427 . S
C251 H241 0.929 . S
C251 C249 1.433 . S
C251 N254 1.384 . S
C252 H243 0.929 . S
C252 C244 1.378 . S
C252 C247 1.350 . S
C253 H240 0.929 . S
C253 C245 1.433 . S
C253 N255 1.384 . S
N254 C250 1.427 . S
N254 C251 1.384 . S
N255 C247 1.427 . S
N255 C253 1.384 . S
H256 C262 0.930 . S
H257 C266 0.930 . S
H258 C271 0.929 . S
H259 C269 0.929 . S
H260 C264 0.929 . S
H261 C270 0.929 . S
C262 H256 0.930 . S
C262 C263 1.367 . S
C262 C270 1.378 . S
C263 C262 1.367 . S
C263 C271 1.433 . S
C264 H260 0.929 . S
C264 C266 1.378 . S
C264 C268 1.350 . S
C265 C268 1.463 . S
C265 C270 1.350 . S
C265 N273 1.427 . S
C266 H257 0.930 . S
C266 C264 1.378 . S
C266 C267 1.367 . S
C267 C266 1.367 . S
C267 C269 1.433 . S
C268 C264 1.350 . S
C268 C265 1.463 . S
C268 N272 1.427 . S
C269 H259 0.929 . S
C269 C267 1.433 . S
C269 N272 1.384 . S
C270 H261 0.929 . S
C270 C262 1.378 . S
C270 C265 1.350 . S
C271 H258 0.929 . S
C271 C263 1.433 . S
C271 N273 1.384 . S
N272 C268 1.427 . S
N272 C269 1.384 . S
N273 C265 1.427 . S
N273 C271 1.384 . S
H274 C280 0.930 . S
H275 C284 0.930 . S
H276 C289 0.929 . S
H277 C287 0.929 . S
H278 C282 0.929 . S
H279 C288 0.929 . S
C280 H274 0.930 . S
C280 C281 1.367 . S
C280 C288 1.378 . S
C281 C280 1.367 . S
C281 C289 1.433 . S
C282 H278 0.929 . S
C282 C284 1.378 . S
C282 C286 1.350 . S
C283 C286 1.463 . S
C283 C288 1.350 . S
C283 N291 1.427 . S
C284 H275 0.930 . S
C284 C282 1.378 . S
C284 C285 1.367 . S
C285 C284 1.367 . S
C285 C287 1.433 . S
C286 C282 1.350 . S
C286 C283 1.463 . S
C286 N290 1.427 . S
C287 H277 0.929 . S
C287 C285 1.433 . S
C287 N290 1.384 . S
C288 H279 0.929 . S
C288 C280 1.378 . S
C288 C283 1.350 . S
C289 H276 0.929 . S
C289 C281 1.433 . S
C289 N291 1.384 . S
N290 C286 1.427 . S
N290 C287 1.384 . S
N291 C283 1.427 . S
N291 C289 1.384 . S
H292 C298 0.930 1_554 S
H293 C302 0.930 . S
H294 C307 0.929 . S
H295 C305 0.929 . S
H296 C300 0.929 . S
H297 C306 0.929 . S
C298 H292 0.930 1_556 S
C298 C299 1.367 . S
C298 C306 1.378 . S
C299 C298 1.367 . S
C299 C307 1.433 . S
C300 H296 0.929 . S
C300 C302 1.378 . S
C300 C304 1.350 . S
C301 C304 1.463 . S
C301 C306 1.350 . S
C301 N309 1.427 . S
C302 H293 0.930 . S
C302 C300 1.378 . S
C302 C303 1.367 . S
C303 C302 1.367 . S
C303 C305 1.433 . S
C304 C300 1.350 . S
C304 C301 1.463 . S
C304 N308 1.427 . S
C305 H295 0.929 . S
C305 C303 1.433 . S
C305 N308 1.384 . S
C306 H297 0.929 . S
C306 C298 1.378 . S
C306 C301 1.350 . S
C307 H294 0.929 . S
C307 C299 1.433 . S
C307 N309 1.384 . S
N308 C304 1.427 . S
N308 C305 1.384 . S
N309 C301 1.427 . S
N309 C307 1.384 . S
H310 C316 0.930 . S
H311 C320 0.930 . S
H312 C325 0.929 . S
H313 C323 0.929 . S
H314 C318 0.929 . S
H315 C324 0.929 . S
C316 H310 0.930 . S
C316 C317 1.367 . S
C316 C324 1.378 . S
C317 C316 1.367 . S
C317 C325 1.433 . S
C318 H314 0.929 . S
C318 C320 1.378 . S
C318 C322 1.350 . S
C319 C322 1.463 . S
C319 C324 1.350 . S
C319 N327 1.427 . S
C320 H311 0.930 . S
C320 C318 1.378 . S
C320 C321 1.367 . S
C321 C320 1.367 . S
C321 C323 1.433 . S
C322 C318 1.350 . S
C322 C319 1.463 . S
C322 N326 1.427 . S
C323 H313 0.929 . S
C323 C321 1.433 . S
C323 N326 1.384 . S
C324 H315 0.929 . S
C324 C316 1.378 . S
C324 C319 1.350 . S
C325 H312 0.929 . S
C325 C317 1.433 . S
C325 N327 1.384 . S
N326 C322 1.427 . S
N326 C323 1.384 . S
N327 C319 1.427 . S
N327 C325 1.384 . S
H328 C334 0.930 . S
H329 C338 0.930 . S
H330 C343 0.929 1_554 S
H331 C341 0.929 . S
H332 C336 0.929 . S
H333 C342 0.929 . S
C334 H328 0.930 . S
C334 C335 1.367 . S
C334 C342 1.378 . S
C335 C334 1.367 . S
C335 C343 1.433 . S
C336 H332 0.929 . S
C336 C338 1.378 . S
C336 C340 1.350 . S
C337 C340 1.463 . S
C337 C342 1.350 . S
C337 N345 1.427 . S
C338 H329 0.930 . S
C338 C336 1.378 . S
C338 C339 1.367 . S
C339 C338 1.367 . S
C339 C341 1.433 . S
C340 C336 1.350 . S
C340 C337 1.463 . S
C340 N344 1.427 . S
C341 H331 0.929 . S
C341 C339 1.433 . S
C341 N344 1.384 . S
C342 H333 0.929 . S
C342 C334 1.378 . S
C342 C337 1.350 . S
C343 H330 0.929 1_556 S
C343 C335 1.433 . S
C343 N345 1.384 . S
N344 C340 1.427 . S
N344 C341 1.384 . S
N345 C337 1.427 . S
N345 C343 1.384 . S
H346 C352 0.930 . S
H347 C356 0.930 . S
H348 C361 0.929 . S
H349 C359 0.929 . S
H350 C354 0.929 . S
H351 C360 0.929 . S
C352 H346 0.930 . S
C352 C353 1.367 . S
C352 C360 1.378 . S
C353 C352 1.367 . S
C353 C361 1.433 . S
C354 H350 0.929 . S
C354 C356 1.378 . S
C354 C358 1.350 . S
C355 C358 1.463 . S
C355 C360 1.350 . S
C355 N363 1.427 . S
C356 H347 0.930 . S
C356 C354 1.378 . S
C356 C357 1.367 . S
C357 C356 1.367 . S
C357 C359 1.433 . S
C358 C354 1.350 . S
C358 C355 1.463 . S
C358 N362 1.427 . S
C359 H349 0.929 . S
C359 C357 1.433 . S
C359 N362 1.384 . S
C360 H351 0.929 . S
C360 C352 1.378 . S
C360 C355 1.350 . S
C361 H348 0.929 . S
C361 C353 1.433 . S
C361 N363 1.384 . S
N362 C358 1.427 . S
N362 C359 1.384 . S
N363 C355 1.427 . S
N363 C361 1.384 . S
H364 C370 0.930 . S
H365 C374 0.930 . S
H366 C379 0.929 . S
H367 C377 0.929 . S
H368 C372 0.929 . S
H369 C378 0.929 . S
C370 H364 0.930 . S
C370 C371 1.367 . S
C370 C378 1.378 . S
C371 C370 1.367 . S
C371 C379 1.433 . S
C372 H368 0.929 . S
C372 C374 1.378 . S
C372 C376 1.350 . S
C373 C376 1.463 . S
C373 C378 1.350 . S
C373 N381 1.427 . S
C374 H365 0.930 . S
C374 C372 1.378 . S
C374 C375 1.367 . S
C375 C374 1.367 . S
C375 C377 1.433 . S
C376 C372 1.350 . S
C376 C373 1.463 . S
C376 N380 1.427 . S
C377 H367 0.929 . S
C377 C375 1.433 . S
C377 N380 1.384 . S
C378 H369 0.929 . S
C378 C370 1.378 . S
C378 C373 1.350 . S
C379 H366 0.929 . S
C379 C371 1.433 . S
C379 N381 1.384 . S
N380 C376 1.427 . S
N380 C377 1.384 . S
N381 C373 1.427 . S
N381 C379 1.384 . S
H382 C388 0.930 . S
H383 C392 0.930 . S
H384 C397 0.929 . S
H385 C395 0.929 . S
H386 C390 0.929 . S
H387 C396 0.929 . S
C388 H382 0.930 . S
C388 C389 1.367 . S
C388 C396 1.378 . S
C389 C388 1.367 . S
C389 C397 1.433 . S
C390 H386 0.929 . S
C390 C392 1.378 . S
C390 C394 1.350 . S
C391 C394 1.463 . S
C391 C396 1.350 . S
C391 N399 1.427 . S
C392 H383 0.930 . S
C392 C390 1.378 . S
C392 C393 1.367 . S
C393 C392 1.367 . S
C393 C395 1.433 . S
C394 C390 1.350 . S
C394 C391 1.463 . S
C394 N398 1.427 . S
C395 H385 0.929 . S
C395 C393 1.433 . S
C395 N398 1.384 . S
C396 H387 0.929 . S
C396 C388 1.378 . S
C396 C391 1.350 . S
C397 H384 0.929 . S
C397 C389 1.433 . S
C397 N399 1.384 . S
N398 C394 1.427 . S
N398 C395 1.384 . S
N399 C391 1.427 . S
N399 C397 1.384 . S
H400 C406 0.930 1_554 S
H401 C410 0.930 . S
H402 C415 0.929 . S
H403 C413 0.929 . S
H404 C408 0.929 . S
H405 C414 0.929 . S
C406 H400 0.930 1_556 S
C406 C407 1.367 . S
C406 C414 1.378 . S
C407 C406 1.367 . S
C407 C415 1.433 . S
C408 H404 0.929 . S
C408 C410 1.378 . S
C408 C412 1.350 . S
C409 C412 1.463 1_565 S
C409 C414 1.350 . S
C409 N417 1.427 . S
C410 H401 0.930 . S
C410 C408 1.378 . S
C410 C411 1.367 . S
C411 C410 1.367 . S
C411 C413 1.433 . S
C412 C408 1.350 . S
C412 C409 1.463 1_545 S
C412 N416 1.427 . S
C413 H403 0.929 . S
C413 C411 1.433 . S
C413 N416 1.384 . S
C414 H405 0.929 . S
C414 C406 1.378 . S
C414 C409 1.350 . S
C415 H402 0.929 . S
C415 C407 1.433 . S
C415 N417 1.384 . S
N416 C412 1.427 . S
N416 C413 1.384 . S
N417 C409 1.427 . S
N417 C415 1.384 . S
H418 C424 0.930 . S
H419 C428 0.930 . S
H420 C433 0.929 . S
H421 C431 0.929 . S
H422 C426 0.929 1_545 S
H423 C432 0.929 1_565 S
C424 H418 0.930 . S
C424 C425 1.367 . S
C424 C432 1.378 . S
C425 C424 1.367 . S
C425 C433 1.433 . S
C426 H422 0.929 1_565 S
C426 C428 1.378 . S
C426 C430 1.350 . S
C427 C430 1.463 1_545 S
C427 C432 1.350 . S
C427 N435 1.427 . S
C428 H419 0.930 . S
C428 C426 1.378 . S
C428 C429 1.367 . S
C429 C428 1.367 . S
C429 C431 1.433 . S
C430 C426 1.350 . S
C430 C427 1.463 1_565 S
C430 N434 1.427 . S
C431 H421 0.929 . S
C431 C429 1.433 . S
C431 N434 1.384 . S
C432 H423 0.929 1_545 S
C432 C424 1.378 . S
C432 C427 1.350 . S
C433 H420 0.929 . S
C433 C425 1.433 . S
C433 N435 1.384 . S
N434 C430 1.427 . S
N434 C431 1.384 . S
N435 C427 1.427 . S
N435 C433 1.384 . S
H436 C442 0.930 . S
H437 C446 0.930 . S
H438 C451 0.929 . S
H439 C449 0.929 . S
H440 C444 0.929 . S
H441 C450 0.907 1_545 S
C442 H436 0.930 . S
C442 C443 1.367 . S
C442 C450 1.391 . S
C443 C442 1.367 . S
C443 C451 1.433 . S
C444 H440 0.929 . S
C444 C446 1.378 1_565 S
C444 C448 1.350 1_565 S
C445 C448 1.463 1_565 S
C445 C450 1.359 . S
C445 N453 1.427 . S
C446 H437 0.930 . S
C446 C444 1.378 1_545 S
C446 C447 1.367 . S
C447 C446 1.367 . S
C447 C449 1.433 . S
C448 C444 1.350 1_545 S
C448 C445 1.463 1_545 S
C448 N452 1.427 . S
C449 H439 0.929 . S
C449 C447 1.433 . S
C449 N452 1.384 . S
C450 H441 0.907 1_565 S
C450 C442 1.391 . S
C450 C445 1.359 . S
C451 H438 0.929 . S
C451 C443 1.433 . S
C451 N453 1.384 . S
N452 C448 1.427 . S
N452 C449 1.384 . S
N453 C445 1.427 . S
N453 C451 1.384 . S
H454 C460 0.930 . S
H455 C464 0.930 . S
H456 C469 0.929 . S
H457 C467 0.929 . S
H458 C462 0.929 . S
H459 C468 0.929 1_565 S
C460 H454 0.930 . S
C460 C461 1.367 . S
C460 C468 1.378 . S
C461 C460 1.367 . S
C461 C469 1.433 . S
C462 H458 0.929 . S
C462 C464 1.378 1_545 S
C462 C466 1.350 1_545 S
C463 C466 1.463 1_545 S
C463 C468 1.350 . S
C463 N471 1.427 . S
C464 H455 0.930 . S
C464 C462 1.378 1_565 S
C464 C465 1.367 . S
C465 C464 1.367 . S
C465 C467 1.433 . S
C466 C462 1.350 1_565 S
C466 C463 1.463 1_565 S
C466 N470 1.427 . S
C467 H457 0.929 . S
C467 C465 1.433 . S
C467 N470 1.384 . S
C468 H459 0.929 1_545 S
C468 C460 1.378 . S
C468 C463 1.350 . S
C469 H456 0.929 . S
C469 C461 1.433 . S
C469 N471 1.384 . S
N470 C466 1.427 . S
N470 C467 1.384 . S
N471 C463 1.427 . S
N471 C469 1.384 . S
H472 C478 0.930 . S
H473 C482 0.930 . S
H474 C487 0.929 . S
H475 C485 0.929 . S
H476 C480 0.929 . S
H477 C486 0.929 . S
C478 H472 0.930 . S
C478 C479 1.367 . S
C478 C486 1.378 . S
C479 C478 1.367 . S
C479 C487 1.433 . S
C480 H476 0.929 . S
C480 C482 1.378 . S
C480 C484 1.350 . S
C481 C484 1.463 . S
C481 C486 1.350 . S
C481 N489 1.427 . S
C482 H473 0.930 . S
C482 C480 1.378 . S
C482 C483 1.367 . S
C483 C482 1.367 . S
C483 C485 1.433 . S
C484 C480 1.350 . S
C484 C481 1.463 . S
C484 N488 1.427 . S
C485 H475 0.929 . S
C485 C483 1.433 . S
C485 N488 1.384 . S
C486 H477 0.929 . S
C486 C478 1.378 . S
C486 C481 1.350 . S
C487 H474 0.929 . S
C487 C479 1.433 . S
C487 N489 1.384 . S
N488 C484 1.427 . S
N488 C485 1.384 . S
N489 C481 1.427 . S
N489 C487 1.384 . S
H490 C496 0.930 . S
H491 C500 0.930 . S
H492 C505 0.929 . S
H493 C503 0.929 . S
H494 C498 0.929 . S
H495 C504 0.929 . S
C496 H490 0.930 . S
C496 C497 1.367 . S
C496 C504 1.378 . S
C497 C496 1.367 . S
C497 C505 1.433 . S
C498 H494 0.929 . S
C498 C500 1.378 . S
C498 C502 1.350 . S
C499 C502 1.463 . S
C499 C504 1.350 . S
C499 N507 1.427 . S
C500 H491 0.930 . S
C500 C498 1.378 . S
C500 C501 1.367 . S
C501 C500 1.367 . S
C501 C503 1.433 . S
C502 C498 1.350 . S
C502 C499 1.463 . S
C502 N506 1.427 . S
C503 H493 0.929 . S
C503 C501 1.433 . S
C503 N506 1.384 . S
C504 H495 0.929 . S
C504 C496 1.378 . S
C504 C499 1.350 . S
C505 H492 0.929 . S
C505 C497 1.433 . S
C505 N507 1.384 . S
N506 C502 1.427 . S
N506 C503 1.384 . S
N507 C499 1.427 . S
N507 C505 1.384 . S
H508 C514 0.930 . S
H509 C518 0.930 . S
H510 C523 0.929 . S
H511 C521 0.929 . S
H512 C516 0.929 . S
H513 C522 0.929 . S
C514 H508 0.930 . S
C514 C515 1.367 . S
C514 C522 1.378 . S
C515 C514 1.367 . S
C515 C523 1.433 . S
C516 H512 0.929 . S
C516 C518 1.378 . S
C516 C520 1.350 . S
C517 C520 1.463 . S
C517 C522 1.350 . S
C517 N525 1.427 . S
C518 H509 0.930 . S
C518 C516 1.378 . S
C518 C519 1.367 . S
C519 C518 1.367 . S
C519 C521 1.433 . S
C520 C516 1.350 . S
C520 C517 1.463 . S
C520 N524 1.427 . S
C521 H511 0.929 . S
C521 C519 1.433 . S
C521 N524 1.384 . S
C522 H513 0.929 . S
C522 C514 1.378 . S
C522 C517 1.350 . S
C523 H510 0.929 . S
C523 C515 1.433 . S
C523 N525 1.384 . S
N524 C520 1.427 . S
N524 C521 1.384 . S
N525 C517 1.427 . S
N525 C523 1.384 . S
H526 C532 0.930 . S
H527 C536 0.930 . S
H528 C541 0.929 . S
H529 C539 0.929 . S
H530 C534 0.929 . S
H531 C540 0.929 . S
C532 H526 0.930 . S
C532 C533 1.367 . S
C532 C540 1.378 . S
C533 C532 1.367 . S
C533 C541 1.433 . S
C534 H530 0.929 . S
C534 C536 1.378 . S
C534 C538 1.350 . S
C535 C538 1.463 . S
C535 C540 1.350 . S
C535 N543 1.427 . S
C536 H527 0.930 . S
C536 C534 1.378 . S
C536 C537 1.367 . S
C537 C536 1.367 . S
C537 C539 1.433 . S
C538 C534 1.350 . S
C538 C535 1.463 . S
C538 N542 1.427 . S
C539 H529 0.929 . S
C539 C537 1.433 . S
C539 N542 1.384 . S
C540 H531 0.929 . S
C540 C532 1.378 . S
C540 C535 1.350 . S
C541 H528 0.929 . S
C541 C533 1.433 . S
C541 N543 1.384 . S
N542 C538 1.427 . S
N542 C539 1.384 . S
N543 C535 1.427 . S
N543 C541 1.384 . S
H544 C550 0.930 . S
H545 C554 0.930 . S
H546 C559 0.929 . S
H547 C557 0.929 . S
H548 C552 0.929 . S
H549 C558 0.929 . S
C550 H544 0.930 . S
C550 C551 1.367 . S
C550 C558 1.378 . S
C551 C550 1.367 . S
C551 C559 1.433 . S
C552 H548 0.929 . S
C552 C554 1.378 . S
C552 C556 1.350 . S
C553 C556 1.463 . S
C553 C558 1.350 . S
C553 N561 1.427 . S
C554 H545 0.930 . S
C554 C552 1.378 . S
C554 C555 1.367 . S
C555 C554 1.367 . S
C555 C557 1.433 . S
C556 C552 1.350 . S
C556 C553 1.463 . S
C556 N560 1.427 . S
C557 H547 0.929 . S
C557 C555 1.433 . S
C557 N560 1.384 . S
C558 H549 0.929 . S
C558 C550 1.378 . S
C558 C553 1.350 . S
C559 H546 0.929 . S
C559 C551 1.433 . S
C559 N561 1.384 . S
N560 C556 1.427 . S
N560 C557 1.384 . S
N561 C553 1.427 . S
N561 C559 1.384 . S
H562 C568 0.930 . S
H563 C572 0.930 . S
H564 C577 0.929 . S
H565 C575 0.929 . S
H566 C570 0.929 . S
H567 C576 0.929 . S
C568 H562 0.930 . S
C568 C569 1.367 . S
C568 C576 1.378 . S
C569 C568 1.367 . S
C569 C577 1.433 . S
C570 H566 0.929 . S
C570 C572 1.378 . S
C570 C574 1.350 . S
C571 C574 1.463 . S
C571 C576 1.350 . S
C571 N579 1.427 . S
C572 H563 0.930 . S
C572 C570 1.378 . S
C572 C573 1.367 . S
C573 C572 1.367 . S
C573 C575 1.433 . S
C574 C570 1.350 . S
C574 C571 1.463 . S
C574 N578 1.427 . S
C575 H565 0.929 . S
C575 C573 1.433 . S
C575 N578 1.384 . S
C576 H567 0.929 . S
C576 C568 1.378 . S
C576 C571 1.350 . S
C577 H564 0.929 . S
C577 C569 1.433 . S
C577 N579 1.384 . S
N578 C574 1.427 . S
N578 C575 1.384 . S
N579 C571 1.427 . S
N579 C577 1.384 . S
H580 C586 0.930 . S
H581 C590 0.930 . S
H582 C595 0.929 . S
H583 C593 0.929 . S
H584 C588 0.929 . S
H585 C594 0.929 . S
C586 H580 0.930 . S
C586 C587 1.367 . S
C586 C594 1.378 . S
C587 C586 1.367 . S
C587 C595 1.433 . S
C588 H584 0.929 . S
C588 C590 1.378 . S
C588 C592 1.350 . S
C589 C592 1.463 . S
C589 C594 1.350 . S
C589 N597 1.427 . S
C590 H581 0.930 . S
C590 C588 1.378 . S
C590 C591 1.367 . S
C591 C590 1.367 . S
C591 C593 1.433 . S
C592 C588 1.350 . S
C592 C589 1.463 . S
C592 N596 1.427 . S
C593 H583 0.929 . S
C593 C591 1.433 . S
C593 N596 1.384 . S
C594 H585 0.929 . S
C594 C586 1.378 . S
C594 C589 1.350 . S
C595 H582 0.929 . S
C595 C587 1.433 . S
C595 N597 1.384 . S
N596 C592 1.427 . S
N596 C593 1.384 . S
N597 C589 1.427 . S
N597 C595 1.384 . S
H598 C604 0.930 . S
H599 C608 0.930 . S
H600 C613 0.929 . S
H601 C611 0.929 . S
H602 C606 0.929 . S
H603 C612 0.929 . S
C604 H598 0.930 . S
C604 C605 1.367 . S
C604 C612 1.378 . S
C605 C604 1.367 . S
C605 C613 1.433 . S
C606 H602 0.929 . S
C606 C608 1.378 . S
C606 C610 1.350 . S
C607 C610 1.463 . S
C607 C612 1.350 . S
C607 N615 1.427 . S
C608 H599 0.930 . S
C608 C606 1.378 . S
C608 C609 1.367 . S
C609 C608 1.367 . S
C609 C611 1.433 . S
C610 C606 1.350 . S
C610 C607 1.463 . S
C610 N614 1.427 . S
C611 H601 0.929 . S
C611 C609 1.433 . S
C611 N614 1.384 . S
C612 H603 0.929 . S
C612 C604 1.378 . S
C612 C607 1.350 . S
C613 H600 0.929 . S
C613 C605 1.433 . S
C613 N615 1.384 . S
N614 C610 1.427 . S
N614 C611 1.384 . S
N615 C607 1.427 . S
N615 C613 1.384 . S
C191 C4 1.542 . S
C195 C122 1.526 . S
C213 C100 1.523 . S
C209 C16 1.539 . S
C231 C126 1.522 . S
C227 C28 1.535 . S
C249 C104 1.523 . S
C245 C40 1.534 . S
C267 C166 1.517 . S
C263 C52 1.537 . S
C285 C144 1.518 . S
C281 C64 1.540 . S
C299 C76 1.535 . S
C303 C170 1.524 . S
C321 C148 1.524 . S
C317 C88 1.531 . S
C335 C9 1.499 . S
C339 C171 1.511 . S
C357 C149 1.516 . S
C353 C21 1.490 . S
C371 C33 1.499 . S
C375 C168 1.517 . S
C389 C45 1.501 . S
C393 C146 1.513 . S
C411 C127 1.518 . S
C407 C57 1.489 . S
C425 C69 1.492 . S
C429 C105 1.514 . S
C447 C124 1.513 . S
C443 C81 1.500 . S
C465 C102 1.514 . S
C461 C93 1.499 . S
C483 C145 1.475 . S
C479 C6 1.477 . S
C501 C167 1.479 . S
C497 C18 1.473 . S
C515 C30 1.490 . S
C519 C147 1.475 . S
C537 C169 1.477 . S
C533 C42 1.489 . S
C555 C101 1.478 . S
C551 C54 1.475 . S
C569 C66 1.476 . S
C573 C123 1.475 . S
C587 C78 1.486 . S
C591 C103 1.479 . S
C605 C90 1.491 . S
C609 C125 1.475 . S
