# Generated by pormake.
# Topology rtl, (3,6)-cn, num edge types: 1
# Building blocks:
#     Node 0, Type 0, BuildingBlock: VETTIZ_charged_linker_0, # of connection points: 3
#     Node 1, Type 0, BuildingBlock: VETTIZ_charged_linker_0, # of connection points: 3
#     Node 2, Type 0, BuildingBlock: VETTIZ_charged_linker_0, # of connection points: 3
#     Node 3, Type 0, BuildingBlock: VETTIZ_charged_linker_0, # of connection points: 3
#     Node 4, Type 1, BuildingBlock: KUMBUR_clean_sbu_1, # of connection points: 6
#     Node 5, Type 1, BuildingBlock: KUMBUR_clean_sbu_1, # of connection points: 6
#     Edge 6, Type (0, 1), BuildingBlock: ZUJKAS_clean_linker_0, # of connection points: 2
#     Edge 7, Type (0, 1), BuildingBlock: ZUJKAS_clean_linker_0, # of connection points: 2
#     Edge 8, Type (0, 1), BuildingBlock: ZUJKAS_clean_linker_0, # of connection points: 2
#     Edge 9, Type (0, 1), BuildingBlock: ZUJKAS_clean_linker_0, # of connection points: 2
#     Edge 10, Type (0, 1), BuildingBlock: ZUJKAS_clean_linker_0, # of connection points: 2
#     Edge 11, Type (0, 1), BuildingBlock: ZUJKAS_clean_linker_0, # of connection points: 2
#     Edge 12, Type (0, 1), BuildingBlock: ZUJKAS_clean_linker_0, # of connection points: 2
#     Edge 13, Type (0, 1), BuildingBlock: ZUJKAS_clean_linker_0, # of connection points: 2
#     Edge 14, Type (0, 1), BuildingBlock: ZUJKAS_clean_linker_0, # of connection points: 2
#     Edge 15, Type (0, 1), BuildingBlock: ZUJKAS_clean_linker_0, # of connection points: 2
#     Edge 16, Type (0, 1), BuildingBlock: ZUJKAS_clean_linker_0, # of connection points: 2
#     Edge 17, Type (0, 1), BuildingBlock: ZUJKAS_clean_linker_0, # of connection points: 2
# Relax obj value: 0.017
# Max RMSD: 0.085
# Mean RMSD: 0.051
data_MOF--net-rtl--node1-KUMBUR_clean_sbu_1--node2-VETTIZ_charged_linker_0--edge1-ZUJKAS_clean_linker_0
_symmetry_space_group_name_H-M    P1
_symmetry_Int_Tables_number       1
_symmetry_cell_setting            triclinic
loop_
_symmetry_equiv_pos_as_xyz
'x, y, z'
_cell_length_a     48.912895
_cell_length_b     49.441042
_cell_length_c     42.669372
_cell_angle_alpha  81.859172
_cell_angle_beta   99.359994
_cell_angle_gamma 90.567016
loop_
_atom_site_label
_atom_site_type_symbol
_atom_site_fract_x
_atom_site_fract_y
_atom_site_fract_z
_atom_type_partial_charge
C0 C 0.1823 0.88684 0.9134 0.0
C1 C 0.16031 0.90594 0.90746 0.0
C2 C 0.1502 0.91441 0.93367 0.0
C3 C 0.18347 0.88459 0.97082 0.0
C4 C 0.19342 0.8764 0.94509 0.0
C5 C 0.21613 0.8552 0.9555 0.0
H6 H 0.29426 0.77093 0.07456 0.0
C7 C 0.19909 0.86933 1.00054 0.0
C8 C 0.21822 0.85204 0.99173 0.0
H9 H 0.29458 0.77874 0.97238 0.0
H10 H 0.26049 0.81496 0.96313 0.0
H11 H 0.29326 0.83551 0.07738 0.0
H12 H 0.22738 0.77704 0.07024 0.0
H13 H 0.22225 0.79775 0.09918 0.0
H14 H 0.25311 0.77682 0.10549 0.0
H15 H 0.28727 0.81157 0.11123 0.0
H16 H 0.26932 0.84415 0.10096 0.0
C17 C 0.2429 0.86719 0.94428 0.0
C18 C 0.20604 0.8287 0.94191 0.0
C19 C 0.17696 0.88536 0.10861 0.0
C20 C 0.1877 0.87447 0.14046 0.0
C21 C 0.2091 0.85458 0.14606 0.0
C22 C 0.21956 0.84575 0.12043 0.0
C23 C 0.20855 0.85687 0.08876 0.0
C24 C 0.18768 0.87643 0.08335 0.0
C25 C 0.17849 0.88616 0.04825 0.0
C26 C 0.19743 0.86942 0.03342 0.0
C27 C 0.2149 0.85215 0.0572 0.0
C28 C 0.18439 0.91715 0.04191 0.0
C29 C 0.14763 0.8786 0.0394 0.0
C30 C 0.28684 0.78041 0.05022 0.0
C31 C 0.29708 0.77192 0.02415 0.0
C32 C 0.28725 0.78508 0.99288 0.0
C33 C 0.26727 0.806 0.98752 0.0
C34 C 0.2569 0.81398 0.01369 0.0
C35 C 0.26692 0.80152 0.04445 0.0
C36 C 0.25393 0.81328 0.06931 0.0
C37 C 0.23403 0.83437 0.04829 0.0
C38 C 0.2358 0.83452 0.01574 0.0
C39 C 0.27701 0.82671 0.09113 0.0
C40 C 0.23843 0.79012 0.08729 0.0
H41 H 0.15305 0.91114 0.98414 0.0
H42 H 0.19026 0.87962 0.89377 0.0
H43 H 0.18347 0.82587 0.94209 0.0
H44 H 0.2159 0.81 0.95633 0.0
H45 H 0.20955 0.82942 0.91673 0.0
H46 H 0.2439 0.88961 0.9449 0.0
H47 H 0.24381 0.86377 0.91929 0.0
H48 H 0.26198 0.85881 0.96009 0.0
H49 H 0.1602 0.9003 0.1033 0.0
H50 H 0.21797 0.84602 0.17033 0.0
H51 H 0.23583 0.83059 0.12626 0.0
H52 H 0.20404 0.92221 0.05696 0.0
H53 H 0.1675 0.92946 0.04772 0.0
H54 H 0.18738 0.92417 0.01698 0.0
H55 H 0.14289 0.85907 0.05384 0.0
H56 H 0.14202 0.87497 0.01422 0.0
H57 H 0.13367 0.89466 0.04401 0.0
H58 H 0.13344 0.92928 0.92971 0.0
C59 C 0.1617 0.90391 0.96527 0.0
C60 C 0.64743 0.6676 0.69478 0.0
C61 C 0.627 0.64741 0.69682 0.0
C62 C 0.61558 0.63658 0.66874 0.0
C63 C 0.64442 0.66592 0.63763 0.0
C64 C 0.65575 0.67653 0.66508 0.0
C65 C 0.67713 0.69787 0.65865 0.0
H66 H 0.74727 0.77229 0.55204 0.0
C67 C 0.65737 0.67961 0.61067 0.0
C68 C 0.67655 0.69844 0.62283 0.0
H69 H 0.75592 0.77442 0.65409 0.0
H70 H 0.72088 0.73981 0.65843 0.0
H71 H 0.74544 0.70822 0.55684 0.0
H72 H 0.6808 0.76939 0.53884 0.0
H73 H 0.67054 0.7452 0.51297 0.0
H74 H 0.70192 0.76409 0.50952 0.0
H75 H 0.73697 0.72971 0.51896 0.0
H76 H 0.71965 0.69778 0.52757 0.0
C77 C 0.70542 0.68751 0.6784 0.0
C78 C 0.667 0.72531 0.66657 0.0
C79 C 0.63009 0.65322 0.49859 0.0
C80 C 0.63856 0.66252 0.46894 0.0
C81 C 0.65795 0.68379 0.46743 0.0
C82 C 0.6689 0.69537 0.49482 0.0
C83 C 0.66051 0.68566 0.52429 0.0
C84 C 0.64126 0.66507 0.52582 0.0
C85 C 0.63467 0.65759 0.55923 0.0
C86 C 0.65348 0.67679 0.57752 0.0
C87 C 0.66857 0.6931 0.55688 0.0
C88 C 0.64303 0.62723 0.57081 0.0
C89 C 0.60361 0.66413 0.55831 0.0
C90 C 0.7414 0.76555 0.57528 0.0
C91 C 0.75428 0.77625 0.60272 0.0
C92 C 0.74644 0.7664 0.63261 0.0
C93 C 0.72601 0.74637 0.63505 0.0
C94 C 0.71335 0.73588 0.60733 0.0
C95 C 0.72124 0.74546 0.57814 0.0
C96 C 0.70625 0.73159 0.55132 0.0
C97 C 0.6879 0.71218 0.5691 0.0
C98 C 0.692 0.71479 0.60189 0.0
C99 C 0.72803 0.71611 0.53763 0.0
C100 C 0.68906 0.75356 0.52661 0.0
H101 H 0.61463 0.63655 0.61894 0.0
H102 H 0.65653 0.67655 0.71575 0.0
H103 H 0.64428 0.72808 0.65845 0.0
H104 H 0.67642 0.74326 0.65419 0.0
H105 H 0.67119 0.726 0.69282 0.0
H106 H 0.70749 0.66495 0.6799 0.0
H107 H 0.7077 0.69242 0.70329 0.0
H108 H 0.72321 0.69581 0.66737 0.0
H109 H 0.61503 0.63712 0.50058 0.0
H110 H 0.66519 0.69112 0.44511 0.0
H111 H 0.68372 0.7113 0.49198 0.0
H112 H 0.66248 0.62214 0.56241 0.0
H113 H 0.62666 0.61341 0.56134 0.0
H114 H 0.64757 0.62227 0.59719 0.0
H115 H 0.59678 0.68251 0.54059 0.0
H116 H 0.59909 0.66923 0.58134 0.0
H117 H 0.59038 0.64687 0.55132 0.0
H118 H 0.60022 0.62068 0.66958 0.0
C119 C 0.62413 0.64571 0.63928 0.0
C120 C 0.83492 0.12027 0.13931 0.0
C121 C 0.85577 0.10002 0.14446 0.0
C122 C 0.86486 0.09139 0.11771 0.0
C123 C 0.8325 0.12301 0.08166 0.0
C124 C 0.82368 0.13141 0.10794 0.0
C125 C 0.80183 0.15351 0.09855 0.0
H126 H 0.72098 0.23838 0.98294 0.0
C127 C 0.81668 0.13891 0.05247 0.0
C128 C 0.79869 0.15678 0.06225 0.0
H129 H 0.7279 0.23337 0.08593 0.0
H130 H 0.7611 0.19652 0.0934 0.0
H131 H 0.78658 0.23209 0.98274 0.0
H132 H 0.72144 0.17266 0.98115 0.0
H133 H 0.74337 0.16501 0.95472 0.0
H134 H 0.72479 0.19726 0.94681 0.0
H135 H 0.75997 0.23125 0.94854 0.0
H136 H 0.79102 0.21063 0.95438 0.0
C137 C 0.81349 0.17957 0.11211 0.0
C138 C 0.77508 0.1425 0.11069 0.0
C139 C 0.83538 0.12386 0.94255 0.0
C140 C 0.824 0.13526 0.91106 0.0
C141 C 0.80226 0.15471 0.90658 0.0
C142 C 0.7924 0.16294 0.9329 0.0
C143 C 0.80433 0.15164 0.96418 0.0
C144 C 0.82521 0.1322 0.96854 0.0
C145 C 0.83515 0.122 1.0034 0.0
C146 C 0.81704 0.13877 0.01929 0.0
C147 C 0.79912 0.15625 0.99623 0.0
C148 C 0.86621 0.1291 0.0114 0.0
C149 C 0.82893 0.09107 0.00948 0.0
C150 C 0.72953 0.22911 0.00705 0.0
C151 C 0.72195 0.23886 0.03391 0.0
C152 C 0.73371 0.22647 0.0649 0.0
C153 C 0.75293 0.20498 0.06918 0.0
C154 C 0.76072 0.19575 0.04221 0.0
C155 C 0.74906 0.2077 0.01176 0.0
C156 C 0.76049 0.19553 0.98605 0.0
C157 C 0.78096 0.17444 0.00616 0.0
C158 C 0.78086 0.17468 0.03899 0.0
C159 C 0.77518 0.21845 0.96662 0.0
C160 C 0.73638 0.18202 0.96583 0.0
H161 H 0.8611 0.0953 0.06704 0.0
H162 H 0.82782 0.12774 0.15931 0.0
H163 H 0.77227 0.12054 0.10798 0.0
H164 H 0.75605 0.15282 0.0969 0.0
H165 H 0.77596 0.1443 0.13649 0.0
H166 H 0.83643 0.18042 0.1139 0.0
H167 H 0.80854 0.1802 0.1365 0.0
H168 H 0.8059 0.19864 0.09642 0.0
H169 H 0.85229 0.10913 0.94706 0.0
H170 H 0.79274 0.16352 0.88265 0.0
H171 H 0.77592 0.17786 0.92787 0.0
H172 H 0.87054 0.14932 0.99816 0.0
H173 H 0.87959 0.11364 0.00455 0.0
H174 H 0.87289 0.13104 0.03695 0.0
H175 H 0.80927 0.08621 0.9943 0.0
H176 H 0.82575 0.08403 0.03434 0.0
H177 H 0.84573 0.07863 1.00369 0.0
H178 H 0.88077 0.07569 0.12104 0.0
C179 C 0.85331 0.10272 0.08638 0.0
C180 C 0.3614 0.33219 0.35388 0.0
C181 C 0.38209 0.35204 0.35093 0.0
C182 C 0.39369 0.36382 0.37823 0.0
C183 C 0.36477 0.33596 0.41058 0.0
C184 C 0.35316 0.32441 0.38391 0.0
C185 C 0.33178 0.30339 0.39169 0.0
H186 H 0.26294 0.23406 0.50356 0.0
C187 C 0.35209 0.32337 0.43818 0.0
C188 C 0.33277 0.30412 0.4274 0.0
H189 H 0.25216 0.22761 0.40228 0.0
H190 H 0.28791 0.26108 0.39538 0.0
H191 H 0.32832 0.23592 0.51531 0.0
H192 H 0.26572 0.29928 0.49451 0.0
H193 H 0.29167 0.30904 0.52413 0.0
H194 H 0.27305 0.27794 0.53265 0.0
H195 H 0.30879 0.24407 0.54495 0.0
H196 H 0.34044 0.26151 0.53852 0.0
C197 C 0.34159 0.27542 0.38498 0.0
C198 C 0.3034 0.31335 0.37195 0.0
C199 C 0.38094 0.35473 0.54716 0.0
C200 C 0.37331 0.34663 0.57751 0.0
C201 C 0.35431 0.32515 0.58092 0.0
C202 C 0.34279 0.31238 0.55462 0.0
C203 C 0.35029 0.32103 0.52441 0.0
C204 C 0.36931 0.34165 0.52115 0.0
C205 C 0.37533 0.34769 0.48741 0.0
C206 C 0.35644 0.32759 0.47086 0.0
C207 C 0.34173 0.31217 0.4926 0.0
C208 C 0.4064 0.34114 0.48811 0.0
C209 C 0.36655 0.37772 0.47424 0.0
C210 C 0.26797 0.23999 0.47977 0.0
C211 C 0.25445 0.22818 0.45344 0.0
C212 C 0.26232 0.23616 0.42308 0.0
C213 C 0.28298 0.25576 0.41907 0.0
C214 C 0.29599 0.26758 0.44566 0.0
C215 C 0.28836 0.25956 0.47536 0.0
C216 C 0.30394 0.27434 0.50097 0.0
C217 C 0.32219 0.2927 0.48185 0.0
C218 C 0.3176 0.28869 0.44944 0.0
C219 C 0.32119 0.25301 0.52651 0.0
C220 C 0.28267 0.29094 0.51408 0.0
H221 H 0.39487 0.36576 0.42758 0.0
H222 H 0.35214 0.32265 0.33344 0.0
H223 H 0.30108 0.3359 0.37038 0.0
H224 H 0.28571 0.3048 0.38297 0.0
H225 H 0.30124 0.30838 0.34708 0.0
H226 H 0.36433 0.27265 0.39293 0.0
H227 H 0.33714 0.27384 0.35893 0.0
H228 H 0.33217 0.25796 0.39824 0.0
H229 H 0.3953 0.37124 0.54349 0.0
H230 H 0.34845 0.31803 0.60406 0.0
H231 H 0.32841 0.29628 0.55888 0.0
H232 H 0.41411 0.32445 0.50785 0.0
H233 H 0.41943 0.35929 0.49189 0.0
H234 H 0.41034 0.33347 0.46612 0.0
H235 H 0.34718 0.38314 0.48259 0.0
H236 H 0.36169 0.38161 0.4478 0.0
H237 H 0.38283 0.39209 0.48259 0.0
H238 H 0.40922 0.3795 0.37658 0.0
C239 C 0.38519 0.35591 0.40788 0.0
Tb240 Tb 0.02087 0.9703 0.51226 0.0
C241 C 0.95136 0.07382 0.48333 0.0
N242 N 0.97683 0.071 0.50181 0.0
C243 C 0.99132 0.11268 0.47353 0.0
C244 C 0.94503 0.09603 0.45864 0.0
C245 C 0.99667 0.09021 0.49764 0.0
C246 C 0.96543 0.11556 0.45384 0.0
C247 C 0.90535 0.05588 0.46989 0.0
C248 C 0.93201 0.0537 0.48861 0.0
C249 C 0.89895 0.07787 0.44507 0.0
C250 C 0.91875 0.09788 0.43944 0.0
Tb251 Tb 0.98362 0.03333 0.53991 0.0
N252 N 0.93906 0.0325 0.51266 0.0
C253 C 0.88566 0.03635 0.47728 0.0
C254 C 0.9189 0.01532 0.52204 0.0
C255 C 0.8923 0.01634 0.50394 0.0
H256 H 0.01659 0.0882 0.51296 0.0
H257 H 0.87671 1.00215 0.5111 0.0
H258 H 0.97755 0.9184 0.50775 0.0
H259 H 0.12408 0.97828 0.57863 0.0
H260 H 0.9226 1.00148 0.54416 0.0
H261 H 0.86494 0.03729 0.46351 0.0
H262 H 0.08331 0.99425 0.53885 0.0
H263 H 0.00716 0.12776 0.47014 0.0
H264 H 0.87862 0.07977 0.43034 0.0
H265 H 0.91349 0.11476 0.42028 0.0
H266 H 0.97453 0.87148 0.53589 0.0
H267 H 0.96139 0.13291 0.43507 0.0
H268 H 0.12515 0.93181 0.60927 0.0
N269 N 0.01673 0.92597 0.53449 0.0
C270 C 0.03857 0.91536 0.55653 0.0
C271 C 0.99259 0.88367 0.5421 0.0
C272 C 0.03807 0.88851 0.57275 0.0
C273 C 0.99412 0.9104 0.52659 0.0
C274 C 0.01459 0.87272 0.56542 0.0
N275 N 0.06059 0.95778 0.54763 0.0
C276 C 0.0831 0.97417 0.55226 0.0
C277 C 0.08445 0.92159 0.58593 0.0
C278 C 0.06145 0.93165 0.56302 0.0
C279 C 0.10706 0.93875 0.59182 0.0
C280 C 0.10648 0.96504 0.57467 0.0
H281 H 0.01336 0.852 0.57738 0.0
H282 H 0.06088 0.85783 0.60852 0.0
H283 H 0.10148 0.88681 0.62009 0.0
O284 O 0.0448 0.97828 0.47527 0.0
O285 O 0.02358 0.97057 0.56405 0.0
O286 O 0.0197 0.01541 0.57334 0.0
O287 O 0.02415 0.94 0.48306 0.0
O288 O 0.03959 0.01102 0.50444 0.0
O289 O 0.02816 0.03854 0.54074 0.0
O290 O 0.9596 0.03743 0.57576 0.0
O291 O 0.98912 0.03337 0.48974 0.0
O292 O 0.98312 0.9887 0.48284 0.0
O293 O 0.98707 0.0691 0.56171 0.0
O294 O 0.97134 0.9911 0.55558 0.0
O295 O 0.97637 0.96853 0.51316 0.0
C296 C 0.02772 0.9898 0.58254 0.0
C297 C 0.02877 0.95698 0.42992 0.0
C298 C 0.03842 0.95422 0.37612 0.0
C299 C 0.0106 0.96129 0.36359 0.0
C300 C 1.00096 0.96324 0.41706 0.0
C301 C 0.992 0.96566 0.38401 0.0
C302 C 0.04741 0.9523 0.40943 0.0
C303 C 0.04372 0.03235 0.52011 0.0
C304 C 0.03854 0.95522 0.4646 0.0
C305 C 0.0609 0.87839 0.59572 0.0
C306 C 0.08404 0.89488 0.60229 0.0
C307 C 0.98039 0.01476 0.47164 0.0
C308 C 0.98187 0.06129 0.61624 0.0
C309 C 0.9736 0.06589 0.67019 0.0
C310 C 1.00187 0.06034 0.68186 0.0
C311 C 0.01009 0.05633 0.62831 0.0
C312 C 0.96373 0.06622 0.63722 0.0
C313 C 0.01996 0.0557 0.66097 0.0
C314 C 0.96551 0.97061 0.53899 0.0
C315 C 0.97096 0.06027 0.58216 0.0
H316 H 1.00304 0.96271 0.33809 0.0
H317 H 0.98619 0.96595 0.43261 0.0
H318 H 0.97052 0.97061 0.37424 0.0
H319 H 0.06888 0.94725 0.41941 0.0
H320 H 0.01011 0.06014 0.70704 0.0
H321 H 0.02446 0.05296 0.61246 0.0
H322 H 0.94191 0.06992 0.62795 0.0
H323 H 0.04173 0.05171 0.67011 0.0
Tb324 Tb 0.47566 0.49073 0.99161 0.0
C325 C 0.58056 0.55065 0.02507 0.0
N326 N 0.5754 0.52423 0.03583 0.0
C327 C 0.61772 0.50996 0.02124 0.0
C328 C 0.60385 0.55767 0.01026 0.0
C329 C 0.5941 0.504 0.03544 0.0
C330 C 0.62242 0.53686 0.00816 0.0
C331 C 0.56678 0.59824 0.0183 0.0
C332 C 0.5622 0.57051 0.02894 0.0
C333 C 0.58931 0.60538 1.00225 0.0
C334 C 0.60784 0.58513 0.99828 0.0
Tb335 Tb 0.53594 0.51636 0.05749 0.0
N336 N 0.54068 0.56272 0.04456 0.0
C337 C 0.54909 0.61796 0.02498 0.0
C338 C 0.52507 0.58208 0.05374 0.0
C339 C 0.5285 0.60986 0.04337 0.0
H340 H 0.59038 0.48322 0.04545 0.0
H341 H 0.51555 0.62502 0.05001 0.0
H342 H 0.42814 0.54079 0.97019 0.0
H343 H 0.46457 0.38247 0.0256 0.0
H344 H 0.51023 0.57638 0.06954 0.0
H345 H 0.55186 0.6395 0.01722 0.0
H346 H 0.48886 0.4244 0.0072 0.0
H347 H 0.63221 0.49382 0.02025 0.0
H348 H 0.59297 0.62655 0.9935 0.0
H349 H 0.6254 0.59096 0.98639 0.0
H350 H 0.37977 0.54828 0.97669 0.0
H351 H 0.6406 0.54139 0.99697 0.0
H352 H 0.41641 0.38557 0.03594 0.0
N353 N 0.43032 0.49986 0.99402 0.0
C354 C 0.41558 0.47826 0.00527 0.0
C355 C 0.38972 0.52857 0.98533 0.0
C356 C 0.3875 0.48119 0.0082 0.0
C357 C 0.4174 0.52446 0.98242 0.0
C358 C 0.3748 0.50694 0.99875 0.0
N359 N 0.45529 0.45091 0.00884 0.0
C360 C 0.46799 0.42592 0.01204 0.0
C361 C 0.41357 0.4295 0.0226 0.0
C362 C 0.42834 0.4528 0.01234 0.0
C363 C 0.42702 0.40399 0.02803 0.0
C364 C 0.45423 0.40217 0.02229 0.0
H365 H 0.35327 0.51009 1.00064 0.0
H366 H 0.35135 0.4601 0.0222 0.0
H367 H 0.37421 0.4148 0.03483 0.0
O368 O 0.48976 0.47428 0.95424 0.0
O369 O 0.4793 0.47076 0.0419 0.0
O370 O 0.49769 0.50249 0.07451 0.0
O371 O 0.44864 0.49102 0.94774 0.0
O372 O 0.51597 0.46967 1.0004 0.0
O373 O 0.53627 0.47278 0.05291 0.0
O374 O 0.55376 0.53365 0.099 0.0
O375 O 0.54021 0.5151 0.00715 0.0
O376 O 0.4978 0.5283 0.9791 0.0
O377 O 0.55952 0.49066 0.09537 0.0
O378 O 0.49409 0.53393 0.05364 0.0
O379 O 0.4744 0.53349 1.00049 0.0
C380 C 0.48338 0.48038 0.06954 0.0
C381 C 0.47021 0.49345 0.90193 0.0
C382 C 0.46722 0.49053 0.84485 0.0
C383 C 0.47793 0.51706 0.84031 0.0
C384 C 0.48019 0.5201 0.89684 0.0
C385 C 0.48427 0.53174 0.86619 0.0
C386 C 0.46363 0.47881 0.87592 0.0
C387 C 0.53304 0.46064 0.02699 0.0
C388 C 0.46697 0.48033 0.93418 0.0
C389 C 0.37288 0.45822 0.01954 0.0
C390 C 0.38587 0.43241 0.02667 0.0
C391 C 0.52486 0.52926 0.98238 0.0
C392 C 0.58226 0.50573 0.1446 0.0
C393 C 0.59616 0.51749 0.1987 0.0
C394 C 0.61487 0.49518 0.20559 0.0
C395 C 0.60095 0.4835 0.15225 0.0
C396 C 0.58009 0.52288 0.16783 0.0
C397 C 0.61723 0.4784 0.1825 0.0
C398 C 0.4758 0.54299 0.02806 0.0
C399 C 0.5648 0.51027 0.11264 0.0
H400 H 0.48081 0.52666 0.81666 0.0
H401 H 0.48471 0.53183 0.91649 0.0
H402 H 0.49219 0.55227 0.86244 0.0
H403 H 0.45595 0.45817 0.87997 0.0
H404 H 0.62792 0.49082 0.22882 0.0
H405 H 0.60307 0.47008 0.13477 0.0
H406 H 0.5654 0.53983 0.1622 0.0
H407 H 0.63171 0.46132 0.18811 0.0
H408 H 0.21422 0.22894 0.49109 0.0
H409 H 0.17967 0.19423 0.50129 0.0
H410 H 0.20879 0.14689 0.43566 0.0
H411 H 0.24409 0.18125 0.42583 0.0
H412 H 0.14746 0.15502 0.42944 0.0
H413 H 0.19925 0.11598 0.55323 0.0
H414 H 0.19478 0.15246 0.54402 0.0
H415 H 0.21735 0.1352 0.52386 0.0
C416 C 0.21355 0.21104 0.47901 0.0
C417 C 0.23225 0.20778 0.45792 0.0
C418 C 0.19369 0.19128 0.4848 0.0
C419 C 0.19196 0.16785 0.46958 0.0
C420 C 0.2099 0.16482 0.44774 0.0
H421 H 0.07676 0.03133 0.47412 0.0
H422 H 0.11322 0.06318 0.46156 0.0
C423 C 0.22995 0.18455 0.44203 0.0
C424 C 0.17143 0.14655 0.47674 0.0
H425 H 0.15418 0.09977 0.53705 0.0
C426 C 0.14898 0.14275 0.45285 0.0
C427 C 0.17347 0.13073 0.50737 0.0
C428 C 0.19759 0.13354 0.53361 0.0
C429 C 0.12801 0.12404 0.45907 0.0
C430 C 0.12999 0.10823 0.48979 0.0
C431 C 0.15267 0.11186 0.51353 0.0
C432 C 0.10846 0.08824 0.49804 0.0
C433 C 0.10348 0.12208 0.43303 0.0
C434 C 0.09438 0.09105 0.52358 0.0
C435 C 0.07375 0.07263 0.53116 0.0
C436 C 0.06671 0.05101 0.51329 0.0
C437 C 0.08141 0.04784 0.48825 0.0
C438 C 0.10214 0.06619 0.48081 0.0
H439 H 0.10144 0.1404 0.4144 0.0
H440 H 0.10625 0.10397 0.42114 0.0
H441 H 0.08392 0.11967 0.44313 0.0
H442 H 0.09908 0.10775 0.53741 0.0
H443 H 0.06313 0.07557 0.55084 0.0
H444 H 0.34368 0.76922 0.997 0.0
H445 H 0.37474 0.72982 1.00144 0.0
H446 H 0.32743 0.68341 0.06683 0.0
H447 H 0.29605 0.72267 0.06227 0.0
H448 H 0.40669 0.69747 0.05976 0.0
H449 H 0.32719 0.63882 0.98928 0.0
H450 H 0.32462 0.67536 0.98825 0.0
H451 H 0.31697 0.65279 0.02241 0.0
C452 C 0.33994 0.75064 0.01238 0.0
C453 C 0.31732 0.74894 0.02911 0.0
C454 C 0.35776 0.72824 0.01502 0.0
C455 C 0.35315 0.7037 0.03419 0.0
C456 C 0.33114 0.70216 0.05171 0.0
H457 H 0.458 0.55707 0.08096 0.0
H458 H 0.42859 0.59628 0.08376 0.0
C459 C 0.31338 0.72463 0.04926 0.0
C460 C 0.37083 0.67948 0.03481 0.0
H461 H 0.37047 0.61706 0.00922 0.0
C462 C 0.3988 0.67981 0.0489 0.0
C463 C 0.36043 0.65667 0.02026 0.0
C464 C 0.33071 0.65576 1.00395 0.0
C465 C 0.41668 0.65774 0.04894 0.0
C466 C 0.40622 0.63491 0.03454 0.0
C467 C 0.37829 0.63461 0.02039 0.0
C468 C 0.42419 0.61144 0.03308 0.0
C469 C 0.44676 0.65913 0.06373 0.0
C470 C 0.43125 0.60704 1.00363 0.0
C471 C 0.44816 0.58486 1.00201 0.0
C472 C 0.45792 0.56648 0.02974 0.0
C473 C 0.45078 0.57094 0.05922 0.0
C474 C 0.43403 0.59327 0.06087 0.0
H475 H 0.45249 0.67984 0.06964 0.0
H476 H 0.45086 0.64436 0.08615 0.0
H477 H 0.46033 0.65333 0.04719 0.0
H478 H 0.42387 0.62094 0.98197 0.0
H479 H 0.4538 0.58225 0.97908 0.0
H480 H 0.80436 0.77871 0.64173 0.0
H481 H 0.84097 0.81239 0.6354 0.0
H482 H 0.79016 0.85457 0.55089 0.0
H483 H 0.75343 0.82126 0.55723 0.0
H484 H 0.86781 0.82453 0.5794 0.0
H485 H 0.81555 0.91549 0.60695 0.0
H486 H 0.80476 0.88099 0.61866 0.0
H487 H 0.79519 0.89726 0.57797 0.0
C488 C 0.80084 0.7954 0.62209 0.0
C489 C 0.77599 0.79734 0.59999 0.0
C490 C 0.82182 0.81451 0.6184 0.0
C491 C 0.81816 0.8361 0.59286 0.0
C492 C 0.79327 0.83827 0.571 0.0
H493 H 0.93208 0.94008 0.50032 0.0
H494 H 0.89769 0.90663 0.51562 0.0
C495 C 0.7724 0.81909 0.57452 0.0
C496 C 0.84074 0.85574 0.58812 0.0
H497 H 0.85654 0.9235 0.58378 0.0
C498 C 0.86546 0.84613 0.58061 0.0
C499 C 0.83768 0.88386 0.58996 0.0
C500 C 0.81198 0.89508 0.59909 0.0
C501 C 0.88687 0.86408 0.57387 0.0
C502 C 0.88337 0.89233 0.57456 0.0
C503 C 0.85904 0.90183 0.58307 0.0
C504 C 0.90445 0.9124 0.56559 0.0
C505 C 0.91306 0.85278 0.56595 0.0
C506 C 0.9193 0.92703 0.58854 0.0
C507 C 0.93924 0.94593 0.57995 0.0
C508 C 0.94448 0.9506 0.54821 0.0
C509 C 0.92907 0.93636 0.52515 0.0
C510 C 0.90934 0.91734 0.53381 0.0
H511 H 0.91502 0.8303 0.57314 0.0
H512 H 0.91284 0.85721 0.53967 0.0
H513 H 0.9316 0.86261 0.57801 0.0
H514 H 0.91564 0.92362 0.61315 0.0
H515 H 0.95067 0.95675 0.59817 0.0
H516 H 0.67189 0.24658 0.9942 0.0
H517 H 0.63845 0.28423 0.99011 0.0
H518 H 0.69404 0.32092 0.06087 0.0
H519 H 0.72746 0.2835 0.06511 0.0
H520 H 0.61684 0.30107 0.04929 0.0
H521 H 0.67055 0.38174 0.97805 0.0
H522 H 0.67547 0.34573 0.97688 0.0
H523 H 0.69147 0.36076 0.01106 0.0
C524 C 0.67705 0.26284 0.00861 0.0
C525 C 0.7022 0.26211 0.03004 0.0
C526 C 0.65793 0.28419 0.00637 0.0
C527 C 0.66392 0.30528 0.02513 0.0
C528 C 0.68916 0.30484 0.04613 0.0
H529 H 0.56657 0.43129 0.07799 0.0
H530 H 0.59723 0.39269 0.07694 0.0
C531 C 0.70812 0.28341 0.04862 0.0
C532 C 0.64353 0.32746 0.02363 0.0
H533 H 0.63187 0.3957 0.999 0.0
C534 C 0.61998 0.32174 0.03816 0.0
C535 C 0.64778 0.3543 0.00901 0.0
C536 C 0.67257 0.36117 0.99264 0.0
C537 C 0.60075 0.34242 0.039 0.0
C538 C 0.60534 0.36939 0.02501 0.0
C539 C 0.62857 0.37498 0.00986 0.0
C540 C 0.5862 0.39215 0.02585 0.0
C541 C 0.57565 0.33538 0.05476 0.0
C542 C 0.57005 0.40464 0.99743 0.0
C543 C 0.55244 0.42659 0.99792 0.0
C544 C 0.55092 0.43667 0.02684 0.0
C545 C 0.56719 0.42405 0.05532 0.0
C546 C 0.58466 0.40194 0.05481 0.0
H547 H 0.57254 0.31296 0.05926 0.0
H548 H 0.5783 0.34334 0.0781 0.0
H549 H 0.55672 0.34513 0.03959 0.0
H550 H 0.57109 0.39739 0.97484 0.0
H551 H 0.54033 0.43586 0.9755 0.0
H552 H 0.17707 0.84337 0.19566 0.0
H553 H 0.15529 0.85824 0.23827 0.0
H554 H 0.14978 0.94072 0.18872 0.0
H555 H 0.17222 0.92633 0.14648 0.0
H556 H 0.17223 0.90797 0.27625 0.0
H557 H 0.06758 0.91212 0.201 0.0
H558 H 0.09539 0.89099 0.19425 0.0
H559 H 0.09586 0.92728 0.18277 0.0
C560 C 0.17172 0.86477 0.19409 0.0
C561 C 0.17621 0.88361 0.16749 0.0
C562 C 0.15918 0.87318 0.21839 0.0
C563 C 0.15081 0.90048 0.21639 0.0
C564 C 0.15594 0.9195 0.19045 0.0
H565 H 0.04542 0.98315 0.31853 0.0
H566 H 0.07479 0.97107 0.28119 0.0
C567 C 0.16858 0.91118 0.16627 0.0
C568 C 0.13555 0.90897 0.24062 0.0
H569 H 0.07092 0.92656 0.25167 0.0
C570 C 0.15008 0.91202 0.27103 0.0
C571 C 0.10674 0.91433 0.23349 0.0
C572 C 0.09028 0.91093 0.2012 0.0
C573 C 0.1365 0.92073 0.29452 0.0
C574 C 0.10754 0.92583 0.28753 0.0
C575 C 0.09311 0.92272 0.25701 0.0
C576 C 0.09156 0.93415 0.31143 0.0
C577 C 0.15341 0.92502 0.32626 0.0
C578 C 0.09129 0.91748 0.34089 0.0
C579 C 0.07466 0.92446 0.36234 0.0
C580 C 0.05766 0.948 0.35449 0.0
C581 C 0.05816 0.96479 0.32512 0.0
C582 C 0.07498 0.95794 0.30382 0.0
H583 H 0.1756 0.92835 0.32427 0.0
H584 H 0.14548 0.94278 0.33553 0.0
H585 H 0.15218 0.90654 0.34403 0.0
H586 H 0.1033 0.89865 0.34693 0.0
H587 H 0.07435 0.91091 0.38458 0.0
H588 H 0.6585 0.63686 0.75686 0.0
H589 H 0.64305 0.61828 0.80734 0.0
H590 H 0.55905 0.61657 0.75777 0.0
H591 H 0.57416 0.63543 0.7074 0.0
H592 H 0.60228 0.63795 0.84024 0.0
H593 H 0.57496 0.53708 0.80172 0.0
H594 H 0.59617 0.56124 0.781 0.0
H595 H 0.55917 0.56578 0.77445 0.0
C596 C 0.63668 0.63283 0.75674 0.0
C597 C 0.61763 0.63739 0.72793 0.0
C598 C 0.62792 0.62211 0.7856 0.0
C599 C 0.59999 0.6156 0.7862 0.0
C600 C 0.58081 0.62088 0.75773 0.0
H601 H 0.50761 0.57636 0.94324 0.0
H602 H 0.52768 0.59826 0.89703 0.0
C603 C 0.58951 0.63161 0.72893 0.0
C604 C 0.59087 0.60293 0.81642 0.0
H605 H 0.56103 0.54564 0.85022 0.0
C606 C 0.59338 0.61773 0.8425 0.0
C607 C 0.57955 0.5764 0.81946 0.0
C608 C 0.57749 0.55904 0.79281 0.0
C609 C 0.58421 0.60694 0.87126 0.0
C610 C 0.57211 0.58079 0.87384 0.0
C611 C 0.57018 0.56576 0.84806 0.0
C612 C 0.56108 0.56866 0.90298 0.0
C613 C 0.58767 0.62341 0.89879 0.0
C614 C 0.57315 0.54473 0.92151 0.0
C615 C 0.56171 0.53222 0.9478 0.0
C616 C 0.53783 0.54328 0.95575 0.0
C617 C 0.52599 0.56742 0.93748 0.0
C618 C 0.53752 0.58002 0.91128 0.0
H619 H 0.6024 0.64043 0.8955 0.0
H620 H 0.5673 0.63227 0.9005 0.0
H621 H 0.59514 0.6102 0.92184 0.0
H622 H 0.59126 0.53559 0.9154 0.0
H623 H 0.57111 0.51352 0.9614 0.0
H624 H 0.91062 0.0898 0.16858 0.0
H625 H 0.93119 0.07338 0.22417 0.0
H626 H 0.84979 0.06803 0.25095 0.0
H627 H 0.82908 0.08443 0.19547 0.0
H628 H 0.88666 0.09555 0.29058 0.0
H629 H 0.9323 0.99688 0.27524 0.0
H630 H 0.94247 0.02579 0.24939 0.0
H631 H 0.9068 0.01566 0.24478 0.0
C632 C 0.89708 0.08466 0.18621 0.0
C633 C 0.86823 0.08842 0.17766 0.0
C634 C 0.90886 0.07526 0.21795 0.0
C635 C 0.89198 0.0692 0.2416 0.0
C636 C 0.86317 0.07257 0.23304 0.0
H637 H 0.93998 0.98799 0.43688 0.0
H638 H 0.91781 1.00163 0.38113 0.0
C639 C 0.85139 0.08203 0.20138 0.0
C640 C 0.90438 0.06076 0.27561 0.0
H641 H 0.94524 0.01201 0.32604 0.0
C642 C 0.8994 0.07725 0.29836 0.0
C643 C 0.92075 0.03671 0.28571 0.0
C644 C 0.92573 0.01757 0.26258 0.0
C645 C 0.91069 0.07054 0.3309 0.0
C646 C 0.92768 0.04695 0.34083 0.0
C647 C 0.93236 0.03022 0.31822 0.0
C648 C 0.94065 0.03916 0.37469 0.0
C649 C 0.90389 0.08837 0.35457 0.0
C650 C 0.96081 0.05577 0.3894 0.0
C651 C 0.9736 0.04793 0.42108 0.0
C652 C 0.96649 0.02332 0.43845 0.0
C653 C 0.94607 0.00689 0.42382 0.0
C654 C 0.93336 0.01469 0.3921 0.0
H655 H 0.88631 0.10265 0.34411 0.0
H656 H 0.89857 0.07557 0.37622 0.0
H657 H 0.92225 0.10065 0.36219 0.0
H658 H 0.96695 0.07458 0.3762 0.0
H659 H 0.98936 0.06089 0.43182 0.0
H660 H 0.42615 0.36542 0.59331 0.0
H661 H 0.44437 0.38922 0.63872 0.0
H662 H 0.36502 0.38299 0.67053 0.0
H663 H 0.34632 0.35998 0.62481 0.0
H664 H 0.42058 0.43985 0.65468 0.0
H665 H 0.42378 0.35044 0.75028 0.0
H666 H 0.42307 0.34691 0.70858 0.0
H667 H 0.39194 0.35571 0.72226 0.0
C668 C 0.41247 0.36929 0.60978 0.0
C669 C 0.38475 0.36066 0.60539 0.0
C670 C 0.42299 0.38274 0.63581 0.0
C671 C 0.40611 0.38753 0.65811 0.0
C672 C 0.37849 0.37905 0.65384 0.0
H673 H 0.42025 0.4613 0.831 0.0
H674 H 0.40685 0.43658 0.78525 0.0
C675 C 0.36789 0.36579 0.62774 0.0
C676 C 0.41707 0.40202 0.68548 0.0
H677 H 0.43184 0.39382 0.76724 0.0
C678 C 0.42329 0.42982 0.67931 0.0
C679 C 0.42041 0.38879 0.71748 0.0
C680 C 0.41468 0.35876 0.72523 0.0
C681 C 0.43199 0.44504 0.70447 0.0
C682 C 0.4352 0.43186 0.73659 0.0
C683 C 0.42937 0.40391 0.74264 0.0
C684 C 0.44373 0.44683 0.76433 0.0
C685 C 0.43664 0.47528 0.69642 0.0
C686 C 0.46909 0.46054 0.76802 0.0
C687 C 0.47674 0.47481 0.7941 0.0
C688 C 0.45935 0.47527 0.81722 0.0
C689 C 0.4342 0.46112 0.81374 0.0
C690 C 0.42649 0.44706 0.78756 0.0
H691 H 0.42624 0.48341 0.6718 0.0
H692 H 0.42887 0.48689 0.7137 0.0
H693 H 0.45917 0.47897 0.69766 0.0
H694 H 0.48306 0.46006 0.75085 0.0
H695 H 0.49643 0.48517 0.79641 0.0
H696 H 0.63058 0.60813 0.46461 0.0
H697 H 0.61725 0.58692 0.41598 0.0
H698 H 0.60988 0.66647 0.35874 0.0
H699 H 0.62298 0.68788 0.40723 0.0
H700 H 0.56947 0.59416 0.36664 0.0
H701 H 0.66665 0.62558 0.32036 0.0
H702 H 0.66248 0.62683 0.36138 0.0
H703 H 0.64672 0.65271 0.32996 0.0
C704 C 0.62571 0.62115 0.44175 0.0
C705 C 0.62814 0.6497 0.4398 0.0
C706 C 0.6182 0.60899 0.41396 0.0
C707 C 0.61305 0.62509 0.38371 0.0
C708 C 0.61434 0.65363 0.38178 0.0
H709 H 0.59287 0.57348 0.19285 0.0
H710 H 0.5929 0.60151 0.23596 0.0
C711 C 0.62187 0.66581 0.40952 0.0
C712 C 0.6073 0.61192 0.35419 0.0
H713 H 0.63433 0.6017 0.28779 0.0
C714 C 0.58356 0.59589 0.34931 0.0
C715 C 0.62566 0.61433 0.33153 0.0
C716 C 0.65194 0.6306 0.33604 0.0
C717 C 0.57779 0.58202 0.32245 0.0
C718 C 0.59656 0.58381 0.30026 0.0
C719 C 0.61992 0.60041 0.30475 0.0
C720 C 0.59359 0.5671 0.2736 0.0
C721 C 0.55159 0.56566 0.31806 0.0
C722 C 0.59382 0.53849 0.28038 0.0
C723 C 0.59371 0.5225 0.25588 0.0
C724 C 0.59364 0.53475 0.22402 0.0
C725 C 0.5927 0.56343 0.21708 0.0
C726 C 0.59285 0.57946 0.24171 0.0
H727 H 0.53556 0.57338 0.33039 0.0
H728 H 0.54292 0.56618 0.29226 0.0
H729 H 0.5563 0.54408 0.32869 0.0
H730 H 0.59496 0.52845 0.30483 0.0
H731 H 0.59412 0.50047 0.26199 0.0
H732 H 0.83225 0.16813 0.85605 0.0
H733 H 0.85281 0.15557 0.81158 0.0
H734 H 0.86371 0.07256 0.85933 0.0
H735 H 0.84179 0.08456 0.90302 0.0
H736 H 0.9044 0.13737 0.81379 0.0
H737 H 0.83093 0.0598 0.77013 0.0
H738 H 0.82296 0.08216 0.79748 0.0
H739 H 0.84406 0.05196 0.81219 0.0
C740 C 0.83835 0.14704 0.85676 0.0
C741 C 0.83527 0.12737 0.88318 0.0
C742 C 0.85033 0.13994 0.8314 0.0
C743 C 0.85947 0.11304 0.83185 0.0
C744 C 0.85626 0.09331 0.85804 0.0
H745 H 0.97018 0.03861 0.72984 0.0
H746 H 0.94097 0.05022 0.76773 0.0
C747 C 0.84409 0.10033 0.88329 0.0
C748 C 0.87406 0.10608 0.80605 0.0
H749 H 0.87481 0.0615 0.75179 0.0
C750 C 0.89771 0.12098 0.80001 0.0
C751 C 0.86535 0.08467 0.78803 0.0
C752 C 0.83927 0.06891 0.79203 0.0
C753 C 0.91323 0.11463 0.77704 0.0
C754 C 0.9049 0.09286 0.7597 0.0
C755 C 0.88114 0.07811 0.76534 0.0
C756 C 0.92109 0.08493 0.73598 0.0
C757 C 0.9388 0.13083 0.7718 0.0
C758 C 0.91919 0.10046 0.70553 0.0
C759 C 0.93578 0.09388 0.68384 0.0
C760 C 0.95467 0.07177 0.69237 0.0
C761 C 0.95606 0.05594 0.72273 0.0
C762 C 0.93931 0.06242 0.7443 0.0
H763 H 0.94386 0.14558 0.7892 0.0
H764 H 0.95681 0.11681 0.77392 0.0
H765 H 0.93555 0.14233 0.74716 0.0
H766 H 0.9052 0.11792 0.69878 0.0
H767 H 0.93441 0.10658 0.66075 0.0
H768 H 0.3507 0.36311 0.29098 0.0
H769 H 0.36661 0.38117 0.24055 0.0
H770 H 0.45079 0.38008 0.29033 0.0
H771 H 0.43524 0.36133 0.34038 0.0
H772 H 0.39327 0.43018 0.22844 0.0
H773 H 0.45945 0.34461 0.21227 0.0
H774 H 0.43475 0.34066 0.23972 0.0
H775 H 0.46811 0.35526 0.25113 0.0
C776 C 0.37266 0.36617 0.29101 0.0
C777 C 0.39168 0.36086 0.31973 0.0
C778 C 0.3817 0.37664 0.26223 0.0
C779 C 0.40994 0.38169 0.26157 0.0
C780 C 0.42898 0.37588 0.29008 0.0
H781 H 0.51103 0.46397 0.12963 0.0
H782 H 0.49231 0.4395 0.17562 0.0
C783 C 0.41999 0.36547 0.31878 0.0
C784 C 0.41939 0.39476 0.23171 0.0
H785 H 0.46532 0.38774 0.18089 0.0
C786 C 0.40877 0.42077 0.2178 0.0
C787 C 0.43973 0.38251 0.21794 0.0
C788 C 0.45099 0.35411 0.23084 0.0
C789 C 0.41856 0.43521 0.19113 0.0
C790 C 0.43923 0.42315 0.17772 0.0
C791 C 0.44957 0.39699 0.19131 0.0
C792 C 0.45058 0.43751 0.14977 0.0
C793 C 0.40733 0.46363 0.17817 0.0
C794 C 0.4334 0.44435 0.12002 0.0
C795 C 0.44405 0.45835 0.09393 0.0
C796 C 0.47211 0.46537 0.09692 0.0
C797 C 0.48932 0.45858 0.12669 0.0
C798 C 0.47869 0.44456 0.15285 0.0
H799 H 0.39667 0.47237 0.19561 0.0
H800 H 0.4242 0.47757 0.17196 0.0
H801 H 0.3921 0.46284 0.15601 0.0
H802 H 0.41168 0.43904 0.11703 0.0
H803 H 0.43011 0.46446 0.07183 0.0
H804 H 0.10516 0.91183 0.88309 0.0
H805 H 0.08393 0.92725 0.82751 0.0
H806 H 0.16504 0.9393 0.80092 0.0
H807 H 0.18642 0.9236 0.85643 0.0
H808 H 0.08723 0.97552 0.78847 0.0
H809 H 0.12905 0.8904 0.73764 0.0
H810 H 0.13056 0.89009 0.78021 0.0
H811 H 0.15525 0.90935 0.75945 0.0
C812 C 0.11847 0.91796 0.86544 0.0
C813 C 0.14745 0.91637 0.87405 0.0
C814 C 0.10631 0.92667 0.83369 0.0
C815 C 0.1229 0.93397 0.80998 0.0
C816 C 0.15185 0.93311 0.81867 0.0
H817 H 0.06181 0.02132 0.6192 0.0
H818 H 0.08536 0.00848 0.67443 0.0
C819 C 0.16403 0.9242 0.85038 0.0
C820 C 0.10981 0.94243 0.7762 0.0
H821 H 0.10581 0.9263 0.7004 0.0
C822 C 0.09126 0.96477 0.76919 0.0
C823 C 0.11483 0.92811 0.75118 0.0
C824 C 0.13329 0.90299 0.75745 0.0
C825 C 0.07768 0.97331 0.73778 0.0
C826 C 0.08332 0.95946 0.71265 0.0
C827 C 0.10175 0.93704 0.71969 0.0
C828 C 0.06958 0.96728 0.67902 0.0
C829 C 0.05692 0.99662 0.73199 0.0
C830 C 0.05372 0.9481 0.66291 0.0
C831 C 0.04029 0.9554 0.63142 0.0
C832 C 0.04245 0.98204 0.61553 0.0
C833 C 0.05898 1.00098 0.63133 0.0
C834 C 0.0725 0.99363 0.66281 0.0
H835 H 0.0495 0.99994 0.75443 0.0
H836 H 0.06688 0.0157 0.72274 0.0
H837 H 0.03872 0.99287 0.71396 0.0
H838 H 0.0514 0.92757 0.67488 0.0
H839 H 0.02783 0.94033 0.6197 0.0
loop_
_geom_bond_atom_site_label_1
_geom_bond_atom_site_label_2
_geom_bond_distance
_geom_bond_site_symmetry_2
_ccdc_geom_bond_type
C0 C1 1.391 . S
C0 C4 1.391 . S
C0 H42 0.948 . S
C1 C0 1.391 . S
C1 C2 1.391 . S
C2 C1 1.391 . S
C2 H58 0.947 . S
C2 C59 1.392 . S
C3 C4 1.391 . S
C3 C7 1.397 . S
C3 C59 1.419 . S
C4 C0 1.391 . S
C4 C3 1.391 . S
C4 C5 1.399 . S
C5 C4 1.399 . S
C5 C8 1.396 . S
C5 C17 1.453 . S
C5 C18 1.684 . S
H6 C30 0.948 . S
C7 C3 1.397 . S
C7 C8 1.394 . S
C7 C26 1.723 1_556 S
C8 C5 1.396 . S
C8 C7 1.394 . S
C8 C38 1.723 1_556 S
H9 C32 0.947 . S
H10 C33 0.948 . S
H11 C39 0.982 . S
H12 C40 0.979 . S
H13 C40 0.980 . S
H14 C40 0.983 . S
H15 C39 0.979 . S
H16 C39 0.977 . S
C17 C5 1.453 . S
C17 H46 0.982 . S
C17 H47 0.979 . S
C17 H48 0.977 . S
C18 C5 1.684 . S
C18 H43 0.979 . S
C18 H44 0.980 . S
C18 H45 0.983 . S
C19 C20 1.391 . S
C19 C24 1.391 . S
C19 H49 0.948 . S
C20 C19 1.391 . S
C20 C21 1.391 . S
C21 C20 1.391 . S
C21 C22 1.392 . S
C21 H50 0.947 . S
C22 C21 1.392 . S
C22 C23 1.419 . S
C22 H51 0.948 . S
C23 C22 1.419 . S
C23 C24 1.391 . S
C23 C27 1.397 . S
C24 C19 1.391 . S
C24 C23 1.391 . S
C24 C25 1.399 . S
C25 C24 1.399 . S
C25 C26 1.396 . S
C25 C28 1.453 . S
C25 C29 1.684 . S
C26 C7 1.723 1_554 S
C26 C25 1.396 . S
C26 C27 1.394 . S
C27 C23 1.397 . S
C27 C26 1.394 . S
C27 C37 1.723 . S
C28 C25 1.453 . S
C28 H52 0.982 . S
C28 H53 0.979 . S
C28 H54 0.977 . S
C29 C25 1.684 . S
C29 H55 0.979 . S
C29 H56 0.975 1_554 S
C29 H57 0.983 . S
C30 H6 0.948 . S
C30 C31 1.391 . S
C30 C35 1.391 . S
C31 C30 1.391 . S
C31 C32 1.391 1_554 S
C32 H9 0.947 . S
C32 C31 1.391 1_556 S
C32 C33 1.392 . S
C33 H10 0.948 . S
C33 C32 1.392 . S
C33 C34 1.419 1_556 S
C34 C33 1.419 1_554 S
C34 C35 1.391 . S
C34 C38 1.397 . S
C35 C30 1.391 . S
C35 C34 1.391 . S
C35 C36 1.399 . S
C36 C35 1.399 . S
C36 C37 1.396 . S
C36 C39 1.453 . S
C36 C40 1.684 . S
C37 C27 1.723 . S
C37 C36 1.396 . S
C37 C38 1.394 . S
C38 C8 1.723 1_554 S
C38 C34 1.397 . S
C38 C37 1.394 . S
C39 H11 0.982 . S
C39 H15 0.979 . S
C39 H16 0.977 . S
C39 C36 1.453 . S
C40 H12 0.979 . S
C40 H13 0.980 . S
C40 H14 0.983 . S
C40 C36 1.684 . S
H41 C59 0.948 . S
H42 C0 0.948 . S
H43 C18 0.979 . S
H44 C18 0.980 . S
H45 C18 0.983 . S
H46 C17 0.982 . S
H47 C17 0.979 . S
H48 C17 0.977 . S
H49 C19 0.948 . S
H50 C21 0.947 . S
H51 C22 0.948 . S
H52 C28 0.982 . S
H53 C28 0.979 . S
H54 C28 0.977 . S
H55 C29 0.979 . S
H56 C29 0.975 1_556 S
H57 C29 0.983 . S
H58 C2 0.947 . S
C59 C2 1.392 . S
C59 C3 1.419 . S
C59 H41 0.948 . S
C60 C61 1.391 . S
C60 C64 1.391 . S
C60 H102 0.948 . S
C61 C60 1.391 . S
C61 C62 1.391 . S
C62 C61 1.391 . S
C62 H118 0.947 . S
C62 C119 1.392 . S
C63 C64 1.391 . S
C63 C67 1.397 . S
C63 C119 1.419 . S
C64 C60 1.391 . S
C64 C63 1.391 . S
C64 C65 1.399 . S
C65 C64 1.399 . S
C65 C68 1.396 . S
C65 C77 1.453 . S
C65 C78 1.684 . S
H66 C90 0.948 . S
C67 C63 1.397 . S
C67 C68 1.394 . S
C67 C86 1.723 . S
C68 C65 1.396 . S
C68 C67 1.394 . S
C68 C98 1.723 . S
H69 C92 0.947 . S
H70 C93 0.948 . S
H71 C99 0.982 . S
H72 C100 0.979 . S
H73 C100 0.980 . S
H74 C100 0.983 . S
H75 C99 0.979 . S
H76 C99 0.977 . S
C77 C65 1.453 . S
C77 H106 0.982 . S
C77 H107 0.979 . S
C77 H108 0.977 . S
C78 C65 1.684 . S
C78 H103 0.979 . S
C78 H104 0.980 . S
C78 H105 0.983 . S
C79 C80 1.391 . S
C79 C84 1.391 . S
C79 H109 0.948 . S
C80 C79 1.391 . S
C80 C81 1.391 . S
C81 C80 1.391 . S
C81 C82 1.392 . S
C81 H110 0.947 . S
C82 C81 1.392 . S
C82 C83 1.419 . S
C82 H111 0.948 . S
C83 C82 1.419 . S
C83 C84 1.391 . S
C83 C87 1.397 . S
C84 C79 1.391 . S
C84 C83 1.391 . S
C84 C85 1.399 . S
C85 C84 1.399 . S
C85 C86 1.396 . S
C85 C88 1.453 . S
C85 C89 1.684 . S
C86 C67 1.723 . S
C86 C85 1.396 . S
C86 C87 1.394 . S
C87 C83 1.397 . S
C87 C86 1.394 . S
C87 C97 1.723 . S
C88 C85 1.453 . S
C88 H112 0.982 . S
C88 H113 0.979 . S
C88 H114 0.977 . S
C89 C85 1.684 . S
C89 H115 0.979 . S
C89 H116 0.980 . S
C89 H117 0.983 . S
C90 H66 0.948 . S
C90 C91 1.391 . S
C90 C95 1.391 . S
C91 C90 1.391 . S
C91 C92 1.391 . S
C92 H69 0.947 . S
C92 C91 1.391 . S
C92 C93 1.392 . S
C93 H70 0.948 . S
C93 C92 1.392 . S
C93 C94 1.419 . S
C94 C93 1.419 . S
C94 C95 1.391 . S
C94 C98 1.397 . S
C95 C90 1.391 . S
C95 C94 1.391 . S
C95 C96 1.399 . S
C96 C95 1.399 . S
C96 C97 1.396 . S
C96 C99 1.453 . S
C96 C100 1.684 . S
C97 C87 1.723 . S
C97 C96 1.396 . S
C97 C98 1.394 . S
C98 C68 1.723 . S
C98 C94 1.397 . S
C98 C97 1.394 . S
C99 H71 0.982 . S
C99 H75 0.979 . S
C99 H76 0.977 . S
C99 C96 1.453 . S
C100 H72 0.979 . S
C100 H73 0.980 . S
C100 H74 0.983 . S
C100 C96 1.684 . S
H101 C119 0.948 . S
H102 C60 0.948 . S
H103 C78 0.979 . S
H104 C78 0.980 . S
H105 C78 0.983 . S
H106 C77 0.982 . S
H107 C77 0.979 . S
H108 C77 0.977 . S
H109 C79 0.948 . S
H110 C81 0.947 . S
H111 C82 0.948 . S
H112 C88 0.982 . S
H113 C88 0.979 . S
H114 C88 0.977 . S
H115 C89 0.979 . S
H116 C89 0.980 . S
H117 C89 0.983 . S
H118 C62 0.947 . S
C119 C62 1.392 . S
C119 C63 1.419 . S
C119 H101 0.948 . S
C120 C121 1.391 . S
C120 C124 1.391 . S
C120 H162 0.948 . S
C121 C120 1.391 . S
C121 C122 1.391 . S
C122 C121 1.391 . S
C122 H178 0.947 . S
C122 C179 1.392 . S
C123 C124 1.391 . S
C123 C127 1.397 . S
C123 C179 1.419 . S
C124 C120 1.391 . S
C124 C123 1.391 . S
C124 C125 1.399 . S
C125 C124 1.399 . S
C125 C128 1.396 . S
C125 C137 1.453 . S
C125 C138 1.684 . S
H126 C150 0.948 . S
C127 C123 1.397 . S
C127 C128 1.394 . S
C127 C146 1.723 . S
C128 C125 1.396 . S
C128 C127 1.394 . S
C128 C158 1.723 . S
H129 C152 0.947 . S
H130 C153 0.948 . S
H131 C159 0.982 . S
H132 C160 0.979 . S
H133 C160 0.980 . S
H134 C160 0.983 . S
H135 C159 0.979 . S
H136 C159 0.977 . S
C137 C125 1.453 . S
C137 H166 0.982 . S
C137 H167 0.979 . S
C137 H168 0.977 . S
C138 C125 1.684 . S
C138 H163 0.979 . S
C138 H164 0.980 . S
C138 H165 0.983 . S
C139 C140 1.391 . S
C139 C144 1.391 . S
C139 H169 0.948 . S
C140 C139 1.391 . S
C140 C141 1.391 . S
C141 C140 1.391 . S
C141 C142 1.392 . S
C141 H170 0.947 . S
C142 C141 1.392 . S
C142 C143 1.419 . S
C142 H171 0.948 . S
C143 C142 1.419 . S
C143 C144 1.391 . S
C143 C147 1.397 . S
C144 C139 1.391 . S
C144 C143 1.391 . S
C144 C145 1.399 1_556 S
C145 C144 1.399 1_554 S
C145 C146 1.396 . S
C145 C148 1.453 . S
C145 C149 1.684 . S
C146 C127 1.723 . S
C146 C145 1.396 . S
C146 C147 1.394 1_554 S
C147 C143 1.397 . S
C147 C146 1.394 1_556 S
C147 C157 1.723 . S
C148 C145 1.453 . S
C148 H172 0.982 . S
C148 H173 0.979 . S
C148 H174 0.977 . S
C149 C145 1.684 . S
C149 H175 0.979 . S
C149 H176 0.980 . S
C149 H177 0.983 . S
C150 H126 0.948 . S
C150 C151 1.391 1_556 S
C150 C155 1.391 . S
C151 C150 1.391 1_554 S
C151 C152 1.391 . S
C152 H129 0.947 . S
C152 C151 1.391 . S
C152 C153 1.392 . S
C153 H130 0.948 . S
C153 C152 1.392 . S
C153 C154 1.419 . S
C154 C153 1.419 . S
C154 C155 1.391 1_554 S
C154 C158 1.397 . S
C155 C150 1.391 . S
C155 C154 1.391 1_556 S
C155 C156 1.399 . S
C156 C155 1.399 . S
C156 C157 1.396 . S
C156 C159 1.453 . S
C156 C160 1.684 . S
C157 C147 1.723 . S
C157 C156 1.396 . S
C157 C158 1.394 1_556 S
C158 C128 1.723 . S
C158 C154 1.397 . S
C158 C157 1.394 1_554 S
C159 H131 0.982 . S
C159 H135 0.979 . S
C159 H136 0.977 . S
C159 C156 1.453 . S
C160 H132 0.979 . S
C160 H133 0.980 . S
C160 H134 0.983 . S
C160 C156 1.684 . S
H161 C179 0.948 . S
H162 C120 0.948 . S
H163 C138 0.979 . S
H164 C138 0.980 . S
H165 C138 0.983 . S
H166 C137 0.982 . S
H167 C137 0.979 . S
H168 C137 0.977 . S
H169 C139 0.948 . S
H170 C141 0.947 . S
H171 C142 0.948 . S
H172 C148 0.982 . S
H173 C148 0.979 . S
H174 C148 0.977 . S
H175 C149 0.979 . S
H176 C149 0.980 . S
H177 C149 0.983 . S
H178 C122 0.947 . S
C179 C122 1.392 . S
C179 C123 1.419 . S
C179 H161 0.948 . S
C180 C181 1.391 . S
C180 C184 1.391 . S
C180 H222 0.948 . S
C181 C180 1.391 . S
C181 C182 1.391 . S
C182 C181 1.391 . S
C182 H238 0.947 . S
C182 C239 1.392 . S
C183 C184 1.391 . S
C183 C187 1.397 . S
C183 C239 1.419 . S
C184 C180 1.391 . S
C184 C183 1.391 . S
C184 C185 1.399 . S
C185 C184 1.399 . S
C185 C188 1.396 . S
C185 C197 1.453 . S
C185 C198 1.684 . S
H186 C210 0.948 . S
C187 C183 1.397 . S
C187 C188 1.394 . S
C187 C206 1.723 . S
C188 C185 1.396 . S
C188 C187 1.394 . S
C188 C218 1.723 . S
H189 C212 0.947 . S
H190 C213 0.948 . S
H191 C219 0.982 . S
H192 C220 0.979 . S
H193 C220 0.980 . S
H194 C220 0.983 . S
H195 C219 0.979 . S
H196 C219 0.977 . S
C197 C185 1.453 . S
C197 H226 0.982 . S
C197 H227 0.979 . S
C197 H228 0.977 . S
C198 C185 1.684 . S
C198 H223 0.979 . S
C198 H224 0.980 . S
C198 H225 0.983 . S
C199 C200 1.391 . S
C199 C204 1.391 . S
C199 H229 0.948 . S
C200 C199 1.391 . S
C200 C201 1.391 . S
C201 C200 1.391 . S
C201 C202 1.392 . S
C201 H230 0.947 . S
C202 C201 1.392 . S
C202 C203 1.419 . S
C202 H231 0.948 . S
C203 C202 1.419 . S
C203 C204 1.391 . S
C203 C207 1.397 . S
C204 C199 1.391 . S
C204 C203 1.391 . S
C204 C205 1.399 . S
C205 C204 1.399 . S
C205 C206 1.396 . S
C205 C208 1.453 . S
C205 C209 1.684 . S
C206 C187 1.723 . S
C206 C205 1.396 . S
C206 C207 1.394 . S
C207 C203 1.397 . S
C207 C206 1.394 . S
C207 C217 1.723 . S
C208 C205 1.453 . S
C208 H232 0.982 . S
C208 H233 0.979 . S
C208 H234 0.977 . S
C209 C205 1.684 . S
C209 H235 0.979 . S
C209 H236 0.980 . S
C209 H237 0.983 . S
C210 H186 0.948 . S
C210 C211 1.391 . S
C210 C215 1.391 . S
C211 C210 1.391 . S
C211 C212 1.391 . S
C212 H189 0.947 . S
C212 C211 1.391 . S
C212 C213 1.392 . S
C213 H190 0.948 . S
C213 C212 1.392 . S
C213 C214 1.419 . S
C214 C213 1.419 . S
C214 C215 1.391 . S
C214 C218 1.397 . S
C215 C210 1.391 . S
C215 C214 1.391 . S
C215 C216 1.399 . S
C216 C215 1.399 . S
C216 C217 1.396 . S
C216 C219 1.453 . S
C216 C220 1.684 . S
C217 C207 1.723 . S
C217 C216 1.396 . S
C217 C218 1.394 . S
C218 C188 1.723 . S
C218 C214 1.397 . S
C218 C217 1.394 . S
C219 H191 0.982 . S
C219 H195 0.979 . S
C219 H196 0.977 . S
C219 C216 1.453 . S
C220 H192 0.979 . S
C220 H193 0.980 . S
C220 H194 0.983 . S
C220 C216 1.684 . S
H221 C239 0.948 . S
H222 C180 0.948 . S
H223 C198 0.979 . S
H224 C198 0.980 . S
H225 C198 0.983 . S
H226 C197 0.982 . S
H227 C197 0.979 . S
H228 C197 0.977 . S
H229 C199 0.948 . S
H230 C201 0.947 . S
H231 C202 0.948 . S
H232 C208 0.982 . S
H233 C208 0.979 . S
H234 C208 0.977 . S
H235 C209 0.979 . S
H236 C209 0.980 . S
H237 C209 0.983 . S
H238 C182 0.947 . S
C239 C182 1.392 . S
C239 C183 1.419 . S
C239 H221 0.948 . S
Tb240 N269 2.617 . S
Tb240 N275 2.572 . S
Tb240 O284 2.465 . S
Tb240 O285 2.387 . S
Tb240 O287 2.428 . S
Tb240 O288 2.308 1_565 S
Tb240 O292 2.349 1_455 S
Tb240 O295 2.393 1_455 S
Tb240 C304 2.802 . S
C241 N242 1.379 . S
C241 C244 1.416 . S
C241 C248 1.424 . S
N242 C241 1.379 . S
N242 C245 1.334 1_655 S
N242 Tb251 2.617 . S
C243 C245 1.390 1_655 S
C243 C246 1.342 . S
C243 H263 0.927 1_655 S
C244 C241 1.416 . S
C244 C246 1.416 . S
C244 C250 1.448 . S
C245 N242 1.334 1_455 S
C245 C243 1.390 1_455 S
C245 H256 0.930 . S
C246 C243 1.342 . S
C246 C244 1.416 . S
C246 H267 0.930 . S
C247 C248 1.413 . S
C247 C249 1.427 . S
C247 C253 1.416 . S
C248 C241 1.424 . S
C248 C247 1.413 . S
C248 N252 1.361 . S
C249 C247 1.427 . S
C249 C250 1.328 . S
C249 H264 0.929 . S
C250 C244 1.448 . S
C250 C249 1.328 . S
C250 H265 0.930 . S
Tb251 N242 2.617 . S
Tb251 N252 2.572 . S
Tb251 O286 2.349 1_655 S
Tb251 O289 2.393 1_655 S
Tb251 O290 2.465 . S
Tb251 O291 2.387 . S
Tb251 O293 2.428 . S
Tb251 O294 2.308 1_545 S
Tb251 C315 2.802 . S
N252 C248 1.361 . S
N252 Tb251 2.572 . S
N252 C254 1.340 . S
C253 C247 1.416 . S
C253 C255 1.332 . S
C253 H261 0.931 . S
C254 N252 1.340 . S
C254 C255 1.407 . S
C254 H260 0.930 . S
C255 C253 1.332 . S
C255 C254 1.407 . S
C255 H257 0.929 . S
H256 C245 0.930 . S
H257 C255 0.929 . S
H258 C273 0.930 1_655 S
H259 C280 0.929 . S
H260 C254 0.930 . S
H261 C253 0.931 . S
H262 C276 0.930 . S
H263 C243 0.927 1_455 S
H264 C249 0.929 . S
H265 C250 0.930 . S
H266 C271 0.930 1_655 S
H267 C246 0.930 . S
H268 C279 0.931 . S
N269 Tb240 2.617 . S
N269 C270 1.379 . S
N269 C273 1.334 . S
C270 N269 1.379 . S
C270 C272 1.416 . S
C270 C278 1.424 . S
C271 H266 0.930 1_455 S
C271 C273 1.390 . S
C271 C274 1.339 . S
C272 C270 1.416 . S
C272 C274 1.416 . S
C272 C305 1.448 . S
C273 H258 0.930 1_455 S
C273 N269 1.334 . S
C273 C271 1.390 . S
C274 C271 1.339 . S
C274 C272 1.416 . S
C274 H281 0.930 . S
N275 Tb240 2.572 . S
N275 C276 1.340 . S
N275 C278 1.361 . S
C276 H262 0.930 . S
C276 N275 1.340 . S
C276 C280 1.407 . S
C277 C278 1.413 . S
C277 C279 1.416 . S
C277 C306 1.427 . S
C278 C270 1.424 . S
C278 N275 1.361 . S
C278 C277 1.413 . S
C279 H268 0.931 . S
C279 C277 1.416 . S
C279 C280 1.332 . S
C280 H259 0.929 . S
C280 C276 1.407 . S
C280 C279 1.332 . S
H281 C274 0.930 . S
H282 C305 0.930 . S
H283 C306 0.929 . S
O284 Tb240 2.465 . S
O284 C304 1.264 . S
O285 Tb240 2.387 . S
O285 C296 1.264 . S
O286 Tb251 2.349 1_455 S
O286 C296 1.243 1_545 S
O287 Tb240 2.428 . S
O287 C304 1.256 . S
O288 Tb240 2.308 1_545 S
O288 C303 1.266 . S
O289 Tb251 2.393 1_455 S
O289 C303 1.248 . S
O290 Tb251 2.465 . S
O290 C315 1.264 . S
O291 Tb251 2.387 . S
O291 C307 1.264 . S
O292 Tb240 2.349 1_655 S
O292 C307 1.243 1_565 S
O293 Tb251 2.428 . S
O293 C315 1.256 . S
O294 Tb251 2.308 1_565 S
O294 C314 1.266 . S
O295 Tb240 2.393 1_655 S
O295 C314 1.248 . S
C296 O285 1.264 . S
C296 O286 1.243 1_565 S
C297 C300 1.399 . S
C297 C302 1.383 . S
C297 C304 1.496 . S
C298 C299 1.399 . S
C298 C302 1.389 . S
C299 C298 1.399 . S
C299 C301 1.380 . S
C299 H316 0.929 . S
C300 C297 1.399 . S
C300 C301 1.392 . S
C300 H317 0.929 . S
C301 C299 1.380 . S
C301 C300 1.392 . S
C301 H318 0.929 . S
C302 C297 1.383 . S
C302 C298 1.389 . S
C302 H319 0.931 . S
C303 O288 1.266 . S
C303 O289 1.248 . S
C304 Tb240 2.802 . S
C304 O284 1.264 . S
C304 O287 1.256 . S
C304 C297 1.496 . S
C305 C272 1.448 . S
C305 H282 0.930 . S
C305 C306 1.328 . S
C306 C277 1.427 . S
C306 H283 0.929 . S
C306 C305 1.328 . S
C307 O291 1.264 . S
C307 O292 1.243 1_545 S
C308 C311 1.399 . S
C308 C312 1.383 . S
C308 C315 1.496 . S
C309 C310 1.399 . S
C309 C312 1.389 . S
C310 C309 1.399 . S
C310 C313 1.380 . S
C310 H320 0.929 . S
C311 C308 1.399 . S
C311 C313 1.392 . S
C311 H321 0.929 . S
C312 C308 1.383 . S
C312 C309 1.389 . S
C312 H322 0.931 . S
C313 C310 1.380 . S
C313 C311 1.392 . S
C313 H323 0.929 . S
C314 O294 1.266 . S
C314 O295 1.248 . S
C315 Tb251 2.802 . S
C315 O290 1.264 . S
C315 O293 1.256 . S
C315 C308 1.496 . S
H316 C299 0.929 . S
H317 C300 0.929 . S
H318 C301 0.929 . S
H319 C302 0.931 . S
H320 C310 0.929 . S
H321 C311 0.929 . S
H322 C312 0.931 . S
H323 C313 0.929 . S
Tb324 N353 2.617 . S
Tb324 N359 2.572 1_556 S
Tb324 O368 2.465 . S
Tb324 O369 2.387 1_556 S
Tb324 O371 2.428 . S
Tb324 O372 2.308 1_556 S
Tb324 O376 2.349 . S
Tb324 O379 2.393 . S
Tb324 C388 2.802 . S
C325 N326 1.379 . S
C325 C328 1.416 . S
C325 C332 1.424 . S
N326 C325 1.379 . S
N326 C329 1.334 . S
N326 Tb335 2.617 . S
C327 C329 1.390 . S
C327 C330 1.339 . S
C327 H347 0.930 . S
C328 C325 1.416 . S
C328 C330 1.416 . S
C328 C334 1.448 . S
C329 N326 1.334 . S
C329 C327 1.390 . S
C329 H340 0.930 . S
C330 C327 1.339 . S
C330 C328 1.416 . S
C330 H351 0.930 . S
C331 C332 1.413 . S
C331 C333 1.427 . S
C331 C337 1.416 . S
C332 C325 1.424 . S
C332 C331 1.413 . S
C332 N336 1.361 . S
C333 C331 1.427 . S
C333 C334 1.328 . S
C333 H348 0.929 . S
C334 C328 1.448 . S
C334 C333 1.328 . S
C334 H349 0.930 . S
Tb335 N326 2.617 . S
Tb335 N336 2.572 . S
Tb335 O370 2.349 . S
Tb335 O373 2.393 . S
Tb335 O374 2.465 . S
Tb335 O375 2.387 1_554 S
Tb335 O377 2.428 . S
Tb335 O378 2.308 . S
Tb335 C399 2.802 . S
N336 C332 1.361 . S
N336 Tb335 2.572 . S
N336 C338 1.340 . S
C337 C331 1.416 . S
C337 C339 1.332 . S
C337 H345 0.931 . S
C338 N336 1.340 . S
C338 C339 1.407 . S
C338 H344 0.930 . S
C339 C337 1.332 . S
C339 C338 1.407 . S
C339 H341 0.929 . S
H340 C329 0.930 . S
H341 C339 0.929 . S
H342 C357 0.930 . S
H343 C364 0.929 . S
H344 C338 0.930 . S
H345 C337 0.931 . S
H346 C360 0.930 . S
H347 C327 0.930 . S
H348 C333 0.929 . S
H349 C334 0.930 . S
H350 C355 0.930 . S
H351 C330 0.930 . S
H352 C363 0.931 . S
N353 Tb324 2.617 . S
N353 C354 1.379 1_556 S
N353 C357 1.334 . S
C354 N353 1.379 1_554 S
C354 C356 1.416 . S
C354 C362 1.424 . S
C355 H350 0.930 . S
C355 C357 1.390 . S
C355 C358 1.339 1_556 S
C356 C354 1.416 . S
C356 C358 1.416 . S
C356 C389 1.448 . S
C357 H342 0.930 . S
C357 N353 1.334 . S
C357 C355 1.390 . S
C358 C355 1.339 1_554 S
C358 C356 1.416 . S
C358 H365 0.930 . S
N359 Tb324 2.572 1_554 S
N359 C360 1.340 . S
N359 C362 1.361 . S
C360 H346 0.930 . S
C360 N359 1.340 . S
C360 C364 1.407 . S
C361 C362 1.413 . S
C361 C363 1.416 . S
C361 C390 1.427 . S
C362 C354 1.424 . S
C362 N359 1.361 . S
C362 C361 1.413 . S
C363 H352 0.931 . S
C363 C361 1.416 . S
C363 C364 1.332 . S
C364 H343 0.929 . S
C364 C360 1.407 . S
C364 C363 1.332 . S
H365 C358 0.930 . S
H366 C389 0.930 . S
H367 C390 0.929 . S
O368 Tb324 2.465 . S
O368 C388 1.264 . S
O369 Tb324 2.387 1_554 S
O369 C380 1.264 . S
O370 Tb335 2.349 . S
O370 C380 1.243 . S
O371 Tb324 2.428 . S
O371 C388 1.256 . S
O372 Tb324 2.308 1_554 S
O372 C387 1.266 . S
O373 Tb335 2.393 . S
O373 C387 1.248 . S
O374 Tb335 2.465 . S
O374 C399 1.264 . S
O375 Tb335 2.387 1_556 S
O375 C391 1.264 . S
O376 Tb324 2.349 . S
O376 C391 1.243 . S
O377 Tb335 2.428 . S
O377 C399 1.256 . S
O378 Tb335 2.308 . S
O378 C398 1.266 . S
O379 Tb324 2.393 . S
O379 C398 1.248 1_556 S
C380 O369 1.264 . S
C380 O370 1.243 . S
C381 C384 1.399 . S
C381 C386 1.383 . S
C381 C388 1.496 . S
C382 C383 1.399 . S
C382 C386 1.389 . S
C383 C382 1.399 . S
C383 C385 1.380 . S
C383 H400 0.929 . S
C384 C381 1.399 . S
C384 C385 1.392 . S
C384 H401 0.929 . S
C385 C383 1.380 . S
C385 C384 1.392 . S
C385 H402 0.929 . S
C386 C381 1.383 . S
C386 C382 1.389 . S
C386 H403 0.931 . S
C387 O372 1.266 . S
C387 O373 1.248 . S
C388 Tb324 2.802 . S
C388 O368 1.264 . S
C388 O371 1.256 . S
C388 C381 1.496 . S
C389 C356 1.448 . S
C389 H366 0.930 . S
C389 C390 1.328 . S
C390 C361 1.427 . S
C390 H367 0.929 . S
C390 C389 1.328 . S
C391 O375 1.264 . S
C391 O376 1.243 . S
C392 C395 1.399 . S
C392 C396 1.383 . S
C392 C399 1.496 . S
C393 C394 1.399 . S
C393 C396 1.389 . S
C394 C393 1.399 . S
C394 C397 1.380 . S
C394 H404 0.929 . S
C395 C392 1.399 . S
C395 C397 1.392 . S
C395 H405 0.929 . S
C396 C392 1.383 . S
C396 C393 1.389 . S
C396 H406 0.931 . S
C397 C394 1.380 . S
C397 C395 1.392 . S
C397 H407 0.929 . S
C398 O378 1.266 . S
C398 O379 1.248 1_554 S
C399 Tb335 2.802 . S
C399 O374 1.264 . S
C399 O377 1.256 . S
C399 C392 1.496 . S
H400 C383 0.929 . S
H401 C384 0.929 . S
H402 C385 0.929 . S
H403 C386 0.931 . S
H404 C394 0.929 . S
H405 C395 0.929 . S
H406 C396 0.931 . S
H407 C397 0.929 . S
H408 C416 0.929 . S
H409 C418 0.930 . S
H410 C420 0.930 . S
H411 C423 0.929 . S
H412 C426 0.930 . S
H413 C428 0.960 . S
H414 C428 0.960 . S
H415 C428 0.960 . S
C416 H408 0.929 . S
C416 C417 1.377 . S
C416 C418 1.384 . S
C417 C416 1.377 . S
C417 C423 1.390 . S
C418 H409 0.930 . S
C418 C416 1.384 . S
C418 C419 1.372 . S
C419 C418 1.372 . S
C419 C420 1.400 . S
C419 C424 1.490 . S
C420 H410 0.930 . S
C420 C419 1.400 . S
C420 C423 1.386 . S
H421 C437 0.930 . S
H422 C438 0.931 . S
C423 H411 0.929 . S
C423 C417 1.390 . S
C423 C420 1.386 . S
C424 C419 1.490 . S
C424 C426 1.395 . S
C424 C427 1.403 . S
H425 C431 0.930 . S
C426 H412 0.930 . S
C426 C424 1.395 . S
C426 C429 1.403 . S
C427 C424 1.403 . S
C427 C428 1.524 . S
C427 C431 1.400 . S
C428 H413 0.960 . S
C428 H414 0.960 . S
C428 H415 0.960 . S
C428 C427 1.524 . S
C429 C426 1.403 . S
C429 C430 1.392 . S
C429 C433 1.495 . S
C430 C429 1.392 . S
C430 C431 1.385 . S
C430 C432 1.478 . S
C431 H425 0.930 . S
C431 C427 1.400 . S
C431 C430 1.385 . S
C432 C430 1.478 . S
C432 C434 1.381 . S
C432 C438 1.383 . S
C433 C429 1.495 . S
C433 H439 0.959 . S
C433 H440 0.961 . S
C433 H441 0.960 . S
C434 C432 1.381 . S
C434 C435 1.394 . S
C434 H442 0.930 . S
C435 C434 1.394 . S
C435 C436 1.383 . S
C435 H443 0.929 . S
C436 C435 1.383 . S
C436 C437 1.377 . S
C437 H421 0.930 . S
C437 C436 1.377 . S
C437 C438 1.379 . S
C438 H422 0.931 . S
C438 C432 1.383 . S
C438 C437 1.379 . S
H439 C433 0.959 . S
H440 C433 0.961 . S
H441 C433 0.960 . S
H442 C434 0.930 . S
H443 C435 0.929 . S
H444 C452 0.929 1_556 S
H445 C454 0.930 1_556 S
H446 C456 0.930 . S
H447 C459 0.929 . S
H448 C462 0.930 . S
H449 C464 0.960 . S
H450 C464 0.960 . S
H451 C464 0.960 . S
C452 H444 0.929 1_554 S
C452 C453 1.377 . S
C452 C454 1.384 . S
C453 C452 1.377 . S
C453 C459 1.390 . S
C454 H445 0.930 1_554 S
C454 C452 1.384 . S
C454 C455 1.372 . S
C455 C454 1.372 . S
C455 C456 1.400 . S
C455 C460 1.490 . S
C456 H446 0.930 . S
C456 C455 1.400 . S
C456 C459 1.386 . S
H457 C473 0.930 . S
H458 C474 0.931 . S
C459 H447 0.929 . S
C459 C453 1.390 . S
C459 C456 1.386 . S
C460 C455 1.490 . S
C460 C462 1.395 . S
C460 C463 1.403 . S
H461 C467 0.930 . S
C462 H448 0.930 . S
C462 C460 1.395 . S
C462 C465 1.403 . S
C463 C460 1.403 . S
C463 C464 1.524 . S
C463 C467 1.400 . S
C464 H449 0.960 . S
C464 H450 0.960 . S
C464 H451 0.960 . S
C464 C463 1.524 . S
C465 C462 1.403 . S
C465 C466 1.392 . S
C465 C469 1.495 . S
C466 C465 1.392 . S
C466 C467 1.385 . S
C466 C468 1.478 . S
C467 H461 0.930 . S
C467 C463 1.400 . S
C467 C466 1.385 . S
C468 C466 1.478 . S
C468 C470 1.373 1_554 S
C468 C474 1.383 . S
C469 C465 1.495 . S
C469 H475 0.959 . S
C469 H476 0.961 . S
C469 H477 0.960 . S
C470 C468 1.373 1_556 S
C470 C471 1.396 . S
C470 H478 0.936 . S
C471 C470 1.396 . S
C471 C472 1.383 1_556 S
C471 H479 0.929 . S
C472 C471 1.383 1_554 S
C472 C473 1.377 . S
C473 H457 0.930 . S
C473 C472 1.377 . S
C473 C474 1.379 . S
C474 H458 0.931 . S
C474 C468 1.383 . S
C474 C473 1.379 . S
H475 C469 0.959 . S
H476 C469 0.961 . S
H477 C469 0.960 . S
H478 C470 0.936 . S
H479 C471 0.929 . S
H480 C488 0.929 . S
H481 C490 0.930 . S
H482 C492 0.930 . S
H483 C495 0.929 . S
H484 C498 0.930 . S
H485 C500 0.960 . S
H486 C500 0.960 . S
H487 C500 0.960 . S
C488 H480 0.929 . S
C488 C489 1.377 . S
C488 C490 1.384 . S
C489 C488 1.377 . S
C489 C495 1.390 . S
C490 H481 0.930 . S
C490 C488 1.384 . S
C490 C491 1.372 . S
C491 C490 1.372 . S
C491 C492 1.400 . S
C491 C496 1.490 . S
C492 H482 0.930 . S
C492 C491 1.400 . S
C492 C495 1.386 . S
H493 C509 0.930 . S
H494 C510 0.931 . S
C495 H483 0.929 . S
C495 C489 1.390 . S
C495 C492 1.386 . S
C496 C491 1.490 . S
C496 C498 1.395 . S
C496 C499 1.403 . S
H497 C503 0.930 . S
C498 H484 0.930 . S
C498 C496 1.395 . S
C498 C501 1.403 . S
C499 C496 1.403 . S
C499 C500 1.524 . S
C499 C503 1.400 . S
C500 H485 0.960 . S
C500 H486 0.960 . S
C500 H487 0.960 . S
C500 C499 1.524 . S
C501 C498 1.403 . S
C501 C502 1.392 . S
C501 C505 1.495 . S
C502 C501 1.392 . S
C502 C503 1.385 . S
C502 C504 1.478 . S
C503 H497 0.930 . S
C503 C499 1.400 . S
C503 C502 1.385 . S
C504 C502 1.478 . S
C504 C506 1.381 . S
C504 C510 1.383 . S
C505 C501 1.495 . S
C505 H511 0.959 . S
C505 H512 0.961 . S
C505 H513 0.960 . S
C506 C504 1.381 . S
C506 C507 1.394 . S
C506 H514 0.930 . S
C507 C506 1.394 . S
C507 C508 1.383 . S
C507 H515 0.929 . S
C508 C507 1.383 . S
C508 C509 1.377 . S
C509 H493 0.930 . S
C509 C508 1.377 . S
C509 C510 1.379 . S
C510 H494 0.931 . S
C510 C504 1.383 . S
C510 C509 1.379 . S
H511 C505 0.959 . S
H512 C505 0.961 . S
H513 C505 0.960 . S
H514 C506 0.930 . S
H515 C507 0.929 . S
H516 C524 0.929 . S
H517 C526 0.930 . S
H518 C528 0.930 . S
H519 C531 0.929 . S
H520 C534 0.930 . S
H521 C536 0.960 . S
H522 C536 0.960 . S
H523 C536 0.960 . S
C524 H516 0.929 . S
C524 C525 1.377 1_556 S
C524 C526 1.384 . S
C525 C524 1.377 1_554 S
C525 C531 1.390 . S
C526 H517 0.930 . S
C526 C524 1.384 . S
C526 C527 1.372 1_556 S
C527 C526 1.372 1_554 S
C527 C528 1.400 . S
C527 C532 1.490 . S
C528 H518 0.930 . S
C528 C527 1.400 . S
C528 C531 1.386 . S
H529 C545 0.930 . S
H530 C546 0.931 . S
C531 H519 0.929 . S
C531 C525 1.390 . S
C531 C528 1.386 . S
C532 C527 1.490 . S
C532 C534 1.395 . S
C532 C535 1.403 1_554 S
H533 C539 0.930 . S
C534 H520 0.930 . S
C534 C532 1.395 . S
C534 C537 1.403 . S
C535 C532 1.403 1_556 S
C535 C536 1.524 . S
C535 C539 1.400 . S
C536 H521 0.960 . S
C536 H522 0.960 . S
C536 H523 0.960 . S
C536 C535 1.524 . S
C537 C534 1.403 . S
C537 C538 1.392 . S
C537 C541 1.495 . S
C538 C537 1.392 . S
C538 C539 1.385 1_554 S
C538 C540 1.478 . S
C539 H533 0.930 . S
C539 C535 1.400 . S
C539 C538 1.385 1_556 S
C540 C538 1.478 . S
C540 C542 1.381 . S
C540 C546 1.383 . S
C541 C537 1.495 . S
C541 H547 0.959 . S
C541 H548 0.961 . S
C541 H549 0.960 . S
C542 C540 1.381 . S
C542 C543 1.394 . S
C542 H550 0.930 1_554 S
C543 C542 1.394 . S
C543 C544 1.383 . S
C543 H551 0.929 1_554 S
C544 C543 1.383 . S
C544 C545 1.377 . S
C545 H529 0.930 . S
C545 C544 1.377 . S
C545 C546 1.379 . S
C546 H530 0.931 . S
C546 C540 1.383 . S
C546 C545 1.379 . S
H547 C541 0.959 . S
H548 C541 0.961 . S
H549 C541 0.960 . S
H550 C542 0.930 1_556 S
H551 C543 0.929 1_556 S
H552 C560 0.929 . S
H553 C562 0.930 . S
H554 C564 0.930 . S
H555 C567 0.929 . S
H556 C570 0.930 . S
H557 C572 0.960 . S
H558 C572 0.960 . S
H559 C572 0.960 . S
C560 H552 0.929 . S
C560 C561 1.377 . S
C560 C562 1.384 . S
C561 C560 1.377 . S
C561 C567 1.390 . S
C562 H553 0.930 . S
C562 C560 1.384 . S
C562 C563 1.372 . S
C563 C562 1.372 . S
C563 C564 1.400 . S
C563 C568 1.490 . S
C564 H554 0.930 . S
C564 C563 1.400 . S
C564 C567 1.386 . S
H565 C581 0.930 . S
H566 C582 0.931 . S
C567 H555 0.929 . S
C567 C561 1.390 . S
C567 C564 1.386 . S
C568 C563 1.490 . S
C568 C570 1.395 . S
C568 C571 1.403 . S
H569 C575 0.930 . S
C570 H556 0.930 . S
C570 C568 1.395 . S
C570 C573 1.403 . S
C571 C568 1.403 . S
C571 C572 1.524 . S
C571 C575 1.400 . S
C572 H557 0.960 . S
C572 H558 0.960 . S
C572 H559 0.960 . S
C572 C571 1.524 . S
C573 C570 1.403 . S
C573 C574 1.392 . S
C573 C577 1.495 . S
C574 C573 1.392 . S
C574 C575 1.385 . S
C574 C576 1.478 . S
C575 H569 0.930 . S
C575 C571 1.400 . S
C575 C574 1.385 . S
C576 C574 1.478 . S
C576 C578 1.381 . S
C576 C582 1.383 . S
C577 C573 1.495 . S
C577 H583 0.959 . S
C577 H584 0.961 . S
C577 H585 0.960 . S
C578 C576 1.381 . S
C578 C579 1.394 . S
C578 H586 0.930 . S
C579 C578 1.394 . S
C579 C580 1.383 . S
C579 H587 0.929 . S
C580 C579 1.383 . S
C580 C581 1.377 . S
C581 H565 0.930 . S
C581 C580 1.377 . S
C581 C582 1.379 . S
C582 H566 0.931 . S
C582 C576 1.383 . S
C582 C581 1.379 . S
H583 C577 0.959 . S
H584 C577 0.961 . S
H585 C577 0.960 . S
H586 C578 0.930 . S
H587 C579 0.929 . S
H588 C596 0.929 . S
H589 C598 0.930 . S
H590 C600 0.930 . S
H591 C603 0.929 . S
H592 C606 0.930 . S
H593 C608 0.960 . S
H594 C608 0.960 . S
H595 C608 0.960 . S
C596 H588 0.929 . S
C596 C597 1.377 . S
C596 C598 1.384 . S
C597 C596 1.377 . S
C597 C603 1.390 . S
C598 H589 0.930 . S
C598 C596 1.384 . S
C598 C599 1.372 . S
C599 C598 1.372 . S
C599 C600 1.400 . S
C599 C604 1.490 . S
C600 H590 0.930 . S
C600 C599 1.400 . S
C600 C603 1.386 . S
H601 C617 0.930 . S
H602 C618 0.931 . S
C603 H591 0.929 . S
C603 C597 1.390 . S
C603 C600 1.386 . S
C604 C599 1.490 . S
C604 C606 1.395 . S
C604 C607 1.403 . S
H605 C611 0.930 . S
C606 H592 0.930 . S
C606 C604 1.395 . S
C606 C609 1.403 . S
C607 C604 1.403 . S
C607 C608 1.524 . S
C607 C611 1.400 . S
C608 H593 0.960 . S
C608 H594 0.960 . S
C608 H595 0.960 . S
C608 C607 1.524 . S
C609 C606 1.403 . S
C609 C610 1.392 . S
C609 C613 1.495 . S
C610 C609 1.392 . S
C610 C611 1.385 . S
C610 C612 1.478 . S
C611 H605 0.930 . S
C611 C607 1.400 . S
C611 C610 1.385 . S
C612 C610 1.478 . S
C612 C614 1.381 . S
C612 C618 1.383 . S
C613 C609 1.495 . S
C613 H619 0.959 . S
C613 H620 0.961 . S
C613 H621 0.960 . S
C614 C612 1.381 . S
C614 C615 1.394 . S
C614 H622 0.930 . S
C615 C614 1.394 . S
C615 C616 1.383 . S
C615 H623 0.929 . S
C616 C615 1.383 . S
C616 C617 1.377 . S
C617 H601 0.930 . S
C617 C616 1.377 . S
C617 C618 1.379 . S
C618 H602 0.931 . S
C618 C612 1.383 . S
C618 C617 1.379 . S
H619 C613 0.959 . S
H620 C613 0.961 . S
H621 C613 0.960 . S
H622 C614 0.930 . S
H623 C615 0.929 . S
H624 C632 0.929 . S
H625 C634 0.930 . S
H626 C636 0.930 . S
H627 C639 0.929 . S
H628 C642 0.930 . S
H629 C644 0.960 1_565 S
H630 C644 0.960 . S
H631 C644 0.960 . S
C632 H624 0.929 . S
C632 C633 1.377 . S
C632 C634 1.384 . S
C633 C632 1.377 . S
C633 C639 1.390 . S
C634 H625 0.930 . S
C634 C632 1.384 . S
C634 C635 1.372 . S
C635 C634 1.372 . S
C635 C636 1.400 . S
C635 C640 1.490 . S
C636 H626 0.930 . S
C636 C635 1.400 . S
C636 C639 1.386 . S
H637 C653 0.930 . S
H638 C654 0.931 . S
C639 H627 0.929 . S
C639 C633 1.390 . S
C639 C636 1.386 . S
C640 C635 1.490 . S
C640 C642 1.395 . S
C640 C643 1.403 . S
H641 C647 0.930 . S
C642 H628 0.930 . S
C642 C640 1.395 . S
C642 C645 1.403 . S
C643 C640 1.403 . S
C643 C644 1.524 . S
C643 C647 1.400 . S
C644 H629 0.960 1_545 S
C644 H630 0.960 . S
C644 H631 0.960 . S
C644 C643 1.524 . S
C645 C642 1.403 . S
C645 C646 1.392 . S
C645 C649 1.495 . S
C646 C645 1.392 . S
C646 C647 1.385 . S
C646 C648 1.478 . S
C647 H641 0.930 . S
C647 C643 1.400 . S
C647 C646 1.385 . S
C648 C646 1.478 . S
C648 C650 1.381 . S
C648 C654 1.383 . S
C649 C645 1.495 . S
C649 H655 0.959 . S
C649 H656 0.961 . S
C649 H657 0.960 . S
C650 C648 1.381 . S
C650 C651 1.394 . S
C650 H658 0.930 . S
C651 C650 1.394 . S
C651 C652 1.383 . S
C651 H659 0.929 . S
C652 C651 1.383 . S
C652 C653 1.377 . S
C653 H637 0.930 . S
C653 C652 1.377 . S
C653 C654 1.379 . S
C654 H638 0.931 . S
C654 C648 1.383 . S
C654 C653 1.379 . S
H655 C649 0.959 . S
H656 C649 0.961 . S
H657 C649 0.960 . S
H658 C650 0.930 . S
H659 C651 0.929 . S
H660 C668 0.929 . S
H661 C670 0.930 . S
H662 C672 0.930 . S
H663 C675 0.929 . S
H664 C678 0.930 . S
H665 C680 0.960 . S
H666 C680 0.960 . S
H667 C680 0.960 . S
C668 H660 0.929 . S
C668 C669 1.377 . S
C668 C670 1.384 . S
C669 C668 1.377 . S
C669 C675 1.390 . S
C670 H661 0.930 . S
C670 C668 1.384 . S
C670 C671 1.372 . S
C671 C670 1.372 . S
C671 C672 1.400 . S
C671 C676 1.490 . S
C672 H662 0.930 . S
C672 C671 1.400 . S
C672 C675 1.386 . S
H673 C689 0.930 . S
H674 C690 0.931 . S
C675 H663 0.929 . S
C675 C669 1.390 . S
C675 C672 1.386 . S
C676 C671 1.490 . S
C676 C678 1.395 . S
C676 C679 1.403 . S
H677 C683 0.930 . S
C678 H664 0.930 . S
C678 C676 1.395 . S
C678 C681 1.403 . S
C679 C676 1.403 . S
C679 C680 1.524 . S
C679 C683 1.400 . S
C680 H665 0.960 . S
C680 H666 0.960 . S
C680 H667 0.960 . S
C680 C679 1.524 . S
C681 C678 1.403 . S
C681 C682 1.392 . S
C681 C685 1.495 . S
C682 C681 1.392 . S
C682 C683 1.385 . S
C682 C684 1.478 . S
C683 H677 0.930 . S
C683 C679 1.400 . S
C683 C682 1.385 . S
C684 C682 1.478 . S
C684 C686 1.381 . S
C684 C690 1.383 . S
C685 C681 1.495 . S
C685 H691 0.959 . S
C685 H692 0.961 . S
C685 H693 0.960 . S
C686 C684 1.381 . S
C686 C687 1.394 . S
C686 H694 0.930 . S
C687 C686 1.394 . S
C687 C688 1.383 . S
C687 H695 0.929 . S
C688 C687 1.383 . S
C688 C689 1.377 . S
C689 H673 0.930 . S
C689 C688 1.377 . S
C689 C690 1.379 . S
C690 H674 0.931 . S
C690 C684 1.383 . S
C690 C689 1.379 . S
H691 C685 0.959 . S
H692 C685 0.961 . S
H693 C685 0.960 . S
H694 C686 0.930 . S
H695 C687 0.929 . S
H696 C704 0.929 . S
H697 C706 0.930 . S
H698 C708 0.930 . S
H699 C711 0.929 . S
H700 C714 0.930 . S
H701 C716 0.960 . S
H702 C716 0.960 . S
H703 C716 0.960 . S
C704 H696 0.929 . S
C704 C705 1.377 . S
C704 C706 1.384 . S
C705 C704 1.377 . S
C705 C711 1.390 . S
C706 H697 0.930 . S
C706 C704 1.384 . S
C706 C707 1.372 . S
C707 C706 1.372 . S
C707 C708 1.400 . S
C707 C712 1.490 . S
C708 H698 0.930 . S
C708 C707 1.400 . S
C708 C711 1.386 . S
H709 C725 0.930 . S
H710 C726 0.931 . S
C711 H699 0.929 . S
C711 C705 1.390 . S
C711 C708 1.386 . S
C712 C707 1.490 . S
C712 C714 1.395 . S
C712 C715 1.403 . S
H713 C719 0.930 . S
C714 H700 0.930 . S
C714 C712 1.395 . S
C714 C717 1.403 . S
C715 C712 1.403 . S
C715 C716 1.524 . S
C715 C719 1.400 . S
C716 H701 0.960 . S
C716 H702 0.960 . S
C716 H703 0.960 . S
C716 C715 1.524 . S
C717 C714 1.403 . S
C717 C718 1.392 . S
C717 C721 1.495 . S
C718 C717 1.392 . S
C718 C719 1.385 . S
C718 C720 1.478 . S
C719 H713 0.930 . S
C719 C715 1.400 . S
C719 C718 1.385 . S
C720 C718 1.478 . S
C720 C722 1.381 . S
C720 C726 1.383 . S
C721 C717 1.495 . S
C721 H727 0.959 . S
C721 H728 0.961 . S
C721 H729 0.960 . S
C722 C720 1.381 . S
C722 C723 1.394 . S
C722 H730 0.930 . S
C723 C722 1.394 . S
C723 C724 1.383 . S
C723 H731 0.929 . S
C724 C723 1.383 . S
C724 C725 1.377 . S
C725 H709 0.930 . S
C725 C724 1.377 . S
C725 C726 1.379 . S
C726 H710 0.931 . S
C726 C720 1.383 . S
C726 C725 1.379 . S
H727 C721 0.959 . S
H728 C721 0.961 . S
H729 C721 0.960 . S
H730 C722 0.930 . S
H731 C723 0.929 . S
H732 C740 0.929 . S
H733 C742 0.930 . S
H734 C744 0.930 . S
H735 C747 0.929 . S
H736 C750 0.930 . S
H737 C752 0.960 . S
H738 C752 0.960 . S
H739 C752 0.960 . S
C740 H732 0.929 . S
C740 C741 1.377 . S
C740 C742 1.384 . S
C741 C740 1.377 . S
C741 C747 1.390 . S
C742 H733 0.930 . S
C742 C740 1.384 . S
C742 C743 1.372 . S
C743 C742 1.372 . S
C743 C744 1.400 . S
C743 C748 1.490 . S
C744 H734 0.930 . S
C744 C743 1.400 . S
C744 C747 1.386 . S
H745 C761 0.930 . S
H746 C762 0.931 . S
C747 H735 0.929 . S
C747 C741 1.390 . S
C747 C744 1.386 . S
C748 C743 1.490 . S
C748 C750 1.395 . S
C748 C751 1.403 . S
H749 C755 0.930 . S
C750 H736 0.930 . S
C750 C748 1.395 . S
C750 C753 1.403 . S
C751 C748 1.403 . S
C751 C752 1.524 . S
C751 C755 1.400 . S
C752 H737 0.960 . S
C752 H738 0.960 . S
C752 H739 0.960 . S
C752 C751 1.524 . S
C753 C750 1.403 . S
C753 C754 1.392 . S
C753 C757 1.495 . S
C754 C753 1.392 . S
C754 C755 1.385 . S
C754 C756 1.478 . S
C755 H749 0.930 . S
C755 C751 1.400 . S
C755 C754 1.385 . S
C756 C754 1.478 . S
C756 C758 1.381 . S
C756 C762 1.383 . S
C757 C753 1.495 . S
C757 H763 0.959 . S
C757 H764 0.961 . S
C757 H765 0.960 . S
C758 C756 1.381 . S
C758 C759 1.394 . S
C758 H766 0.930 . S
C759 C758 1.394 . S
C759 C760 1.383 . S
C759 H767 0.929 . S
C760 C759 1.383 . S
C760 C761 1.377 . S
C761 H745 0.930 . S
C761 C760 1.377 . S
C761 C762 1.379 . S
C762 H746 0.931 . S
C762 C756 1.383 . S
C762 C761 1.379 . S
H763 C757 0.959 . S
H764 C757 0.961 . S
H765 C757 0.960 . S
H766 C758 0.930 . S
H767 C759 0.929 . S
H768 C776 0.929 . S
H769 C778 0.930 . S
H770 C780 0.930 . S
H771 C783 0.929 . S
H772 C786 0.930 . S
H773 C788 0.960 . S
H774 C788 0.960 . S
H775 C788 0.960 . S
C776 H768 0.929 . S
C776 C777 1.377 . S
C776 C778 1.384 . S
C777 C776 1.377 . S
C777 C783 1.390 . S
C778 H769 0.930 . S
C778 C776 1.384 . S
C778 C779 1.372 . S
C779 C778 1.372 . S
C779 C780 1.400 . S
C779 C784 1.490 . S
C780 H770 0.930 . S
C780 C779 1.400 . S
C780 C783 1.386 . S
H781 C797 0.930 . S
H782 C798 0.931 . S
C783 H771 0.929 . S
C783 C777 1.390 . S
C783 C780 1.386 . S
C784 C779 1.490 . S
C784 C786 1.395 . S
C784 C787 1.403 . S
H785 C791 0.930 . S
C786 H772 0.930 . S
C786 C784 1.395 . S
C786 C789 1.403 . S
C787 C784 1.403 . S
C787 C788 1.524 . S
C787 C791 1.400 . S
C788 H773 0.960 . S
C788 H774 0.960 . S
C788 H775 0.960 . S
C788 C787 1.524 . S
C789 C786 1.403 . S
C789 C790 1.392 . S
C789 C793 1.495 . S
C790 C789 1.392 . S
C790 C791 1.385 . S
C790 C792 1.478 . S
C791 H785 0.930 . S
C791 C787 1.400 . S
C791 C790 1.385 . S
C792 C790 1.478 . S
C792 C794 1.381 . S
C792 C798 1.383 . S
C793 C789 1.495 . S
C793 H799 0.959 . S
C793 H800 0.961 . S
C793 H801 0.960 . S
C794 C792 1.381 . S
C794 C795 1.394 . S
C794 H802 0.930 . S
C795 C794 1.394 . S
C795 C796 1.383 . S
C795 H803 0.929 . S
C796 C795 1.383 . S
C796 C797 1.377 . S
C797 H781 0.930 . S
C797 C796 1.377 . S
C797 C798 1.379 . S
C798 H782 0.931 . S
C798 C792 1.383 . S
C798 C797 1.379 . S
H799 C793 0.959 . S
H800 C793 0.961 . S
H801 C793 0.960 . S
H802 C794 0.930 . S
H803 C795 0.929 . S
H804 C812 0.929 . S
H805 C814 0.930 . S
H806 C816 0.930 . S
H807 C819 0.929 . S
H808 C822 0.930 . S
H809 C824 0.960 . S
H810 C824 0.960 . S
H811 C824 0.960 . S
C812 H804 0.929 . S
C812 C813 1.377 . S
C812 C814 1.384 . S
C813 C812 1.377 . S
C813 C819 1.390 . S
C814 H805 0.930 . S
C814 C812 1.384 . S
C814 C815 1.372 . S
C815 C814 1.372 . S
C815 C816 1.400 . S
C815 C820 1.490 . S
C816 H806 0.930 . S
C816 C815 1.400 . S
C816 C819 1.386 . S
H817 C833 0.930 . S
H818 C834 0.931 . S
C819 H807 0.929 . S
C819 C813 1.390 . S
C819 C816 1.386 . S
C820 C815 1.490 . S
C820 C822 1.395 . S
C820 C823 1.403 . S
H821 C827 0.930 . S
C822 H808 0.930 . S
C822 C820 1.395 . S
C822 C825 1.403 . S
C823 C820 1.403 . S
C823 C824 1.524 . S
C823 C827 1.400 . S
C824 H809 0.960 . S
C824 H810 0.960 . S
C824 H811 0.960 . S
C824 C823 1.524 . S
C825 C822 1.403 . S
C825 C826 1.392 . S
C825 C829 1.477 1_565 S
C826 C825 1.392 . S
C826 C827 1.385 . S
C826 C828 1.478 . S
C827 H821 0.930 . S
C827 C823 1.400 . S
C827 C826 1.385 . S
C828 C826 1.478 . S
C828 C830 1.381 . S
C828 C834 1.383 . S
C829 C825 1.477 1_545 S
C829 H835 0.971 . S
C829 H836 0.976 . S
C829 H837 0.952 1_545 S
C830 C828 1.381 . S
C830 C831 1.394 . S
C830 H838 0.930 . S
C831 C830 1.394 . S
C831 C832 1.383 . S
C831 H839 0.929 . S
C832 C831 1.383 . S
C832 C833 1.377 . S
C833 H817 0.930 . S
C833 C832 1.377 . S
C833 C834 1.379 . S
C834 H818 0.931 . S
C834 C828 1.383 . S
C834 C833 1.379 . S
H835 C829 0.971 . S
H836 C829 0.976 . S
H837 C829 0.952 1_565 S
H838 C830 0.930 . S
H839 C831 0.929 . S
C436 C303 1.621 . S
C417 C211 1.606 . S
C453 C31 1.541 . S
C472 C398 1.598 . S
C489 C91 1.631 . S
C508 C314 1.605 . S
C525 C151 1.588 . S
C544 C387 1.588 . S
C580 C298 1.398 . S
C561 C20 1.527 . S
C616 C391 1.602 . S
C597 C61 1.568 . S
C633 C121 1.584 . S
C652 C307 1.597 . S
C669 C200 1.499 . S
C688 C382 1.400 . S
C724 C393 1.430 . S
C705 C80 1.517 . S
C760 C309 1.378 . S
C741 C140 1.550 . S
C796 C380 1.598 . S
C777 C181 1.541 . S
C813 C1 1.545 . S
C832 C296 1.592 . S
