# Generated by pormake.
# Topology pyr, (3,6)-cn, num edge types: 1
# Building blocks:
#     Node 0, Type 0, BuildingBlock: BETDAH_clean_linker_0, # of connection points: 3
#     Node 1, Type 0, BuildingBlock: BETDAH_clean_linker_0, # of connection points: 3
#     Node 2, Type 0, BuildingBlock: BETDAH_clean_linker_0, # of connection points: 3
#     Node 3, Type 0, BuildingBlock: BETDAH_clean_linker_0, # of connection points: 3
#     Node 4, Type 0, BuildingBlock: BETDAH_clean_linker_0, # of connection points: 3
#     Node 5, Type 0, BuildingBlock: BETDAH_clean_linker_0, # of connection points: 3
#     Node 6, Type 0, BuildingBlock: BETDAH_clean_linker_0, # of connection points: 3
#     Node 7, Type 0, BuildingBlock: BETDAH_clean_linker_0, # of connection points: 3
#     Node 8, Type 1, BuildingBlock: BETGAK_clean_sbu_0, # of connection points: 6
#     Node 9, Type 1, BuildingBlock: BETGAK_clean_sbu_0, # of connection points: 6
#     Node 10, Type 1, BuildingBlock: BETGAK_clean_sbu_0, # of connection points: 6
#     Node 11, Type 1, BuildingBlock: BETGAK_clean_sbu_0, # of connection points: 6
#     Edge 12, Type (0, 1), BuildingBlock: OJICUG_clean_linker_0, # of connection points: 2
#     Edge 13, Type (0, 1), BuildingBlock: OJICUG_clean_linker_0, # of connection points: 2
#     Edge 14, Type (0, 1), BuildingBlock: OJICUG_clean_linker_0, # of connection points: 2
#     Edge 15, Type (0, 1), BuildingBlock: OJICUG_clean_linker_0, # of connection points: 2
#     Edge 16, Type (0, 1), BuildingBlock: OJICUG_clean_linker_0, # of connection points: 2
#     Edge 17, Type (0, 1), BuildingBlock: OJICUG_clean_linker_0, # of connection points: 2
#     Edge 18, Type (0, 1), BuildingBlock: OJICUG_clean_linker_0, # of connection points: 2
#     Edge 19, Type (0, 1), BuildingBlock: OJICUG_clean_linker_0, # of connection points: 2
#     Edge 20, Type (0, 1), BuildingBlock: OJICUG_clean_linker_0, # of connection points: 2
#     Edge 21, Type (0, 1), BuildingBlock: OJICUG_clean_linker_0, # of connection points: 2
#     Edge 22, Type (0, 1), BuildingBlock: OJICUG_clean_linker_0, # of connection points: 2
#     Edge 23, Type (0, 1), BuildingBlock: OJICUG_clean_linker_0, # of connection points: 2
#     Edge 24, Type (0, 1), BuildingBlock: OJICUG_clean_linker_0, # of connection points: 2
#     Edge 25, Type (0, 1), BuildingBlock: OJICUG_clean_linker_0, # of connection points: 2
#     Edge 26, Type (0, 1), BuildingBlock: OJICUG_clean_linker_0, # of connection points: 2
#     Edge 27, Type (0, 1), BuildingBlock: OJICUG_clean_linker_0, # of connection points: 2
#     Edge 28, Type (0, 1), BuildingBlock: OJICUG_clean_linker_0, # of connection points: 2
#     Edge 29, Type (0, 1), BuildingBlock: OJICUG_clean_linker_0, # of connection points: 2
#     Edge 30, Type (0, 1), BuildingBlock: OJICUG_clean_linker_0, # of connection points: 2
#     Edge 31, Type (0, 1), BuildingBlock: OJICUG_clean_linker_0, # of connection points: 2
#     Edge 32, Type (0, 1), BuildingBlock: OJICUG_clean_linker_0, # of connection points: 2
#     Edge 33, Type (0, 1), BuildingBlock: OJICUG_clean_linker_0, # of connection points: 2
#     Edge 34, Type (0, 1), BuildingBlock: OJICUG_clean_linker_0, # of connection points: 2
#     Edge 35, Type (0, 1), BuildingBlock: OJICUG_clean_linker_0, # of connection points: 2
# Relax obj value: 0.218
# Max RMSD: 0.195
# Mean RMSD: 0.142
data_MOF--net-pyr--node1-BETGAK_clean_sbu_0--node2-BETDAH_clean_linker_0--edge1-OJICUG_clean_linker_0
_symmetry_space_group_name_H-M    P1
_symmetry_Int_Tables_number       1
_symmetry_cell_setting            triclinic
loop_
_symmetry_equiv_pos_as_xyz
'x, y, z'
_cell_length_a     27.176932
_cell_length_b     30.083019
_cell_length_c     27.964919
_cell_angle_alpha  91.726669
_cell_angle_beta   89.806359
_cell_angle_gamma 109.60374
loop_
_atom_site_label
_atom_site_type_symbol
_atom_site_fract_x
_atom_site_fract_y
_atom_site_fract_z
_atom_type_partial_charge
H0 H 0.43689 0.28746 0.31937 0.0
H1 H 0.50709 0.36638 0.19657 0.0
H2 H 0.40833 0.41567 0.28925 0.0
C3 C 0.44492 0.31884 0.29839 0.0
C4 C 0.42036 0.3519 0.30994 0.0
C5 C 0.47592 0.32346 0.25751 0.0
C6 C 0.4846 0.36318 0.22915 0.0
C7 C 0.45969 0.39624 0.23995 0.0
C8 C 0.42818 0.3907 0.28082 0.0
N9 N 0.46269 0.43212 0.20707 0.0
C10 C 0.42159 0.44937 0.20137 0.0
H11 H 0.3326 0.91622 0.78522 0.0
H12 H 0.1835 0.91801 0.73855 0.0
H13 H 0.27153 0.85511 0.64734 0.0
C14 C 0.30149 0.90616 0.75867 0.0
C15 C 0.30755 0.88371 0.71557 0.0
C16 C 0.25645 0.91751 0.76745 0.0
C17 C 0.2176 0.90769 0.73233 0.0
C18 C 0.22336 0.88527 0.68876 0.0
C19 C 0.26757 0.87231 0.68104 0.0
N20 N 0.18829 0.88089 0.65041 0.0
C21 C 0.17323 0.91927 0.64103 0.0
H22 H 0.74715 0.38315 1.01424 0.0
H23 H 0.74822 0.48776 0.91036 0.0
H24 H 0.62117 0.35538 0.91336 0.0
C25 C 0.72933 0.39423 0.98441 0.0
C26 C 0.6814 0.36284 0.96623 0.0
C27 C 0.75496 0.43931 0.96489 0.0
C28 C 0.72991 0.45366 0.92589 0.0
C29 C 0.68126 0.42308 0.90681 0.0
C30 C 0.65837 0.3783 0.92754 0.0
N31 N 0.65195 0.4338 0.86795 0.0
C32 C 0.65989 0.47102 0.83546 0.0
H33 H 0.84274 0.80161 0.51894 0.0
H34 H 0.9484 0.82393 0.40023 0.0
H35 H 0.81413 0.69695 0.40428 0.0
C36 C 0.85482 0.78909 0.48576 0.0
C37 C 0.82255 0.74538 0.46532 0.0
C38 C 0.90042 0.81834 0.46341 0.0
C39 C 0.91498 0.80148 0.4193 0.0
C40 C 0.8858 0.75656 0.39826 0.0
C41 C 0.83924 0.72913 0.42177 0.0
N42 N 0.89388 0.74729 0.34817 0.0
C43 C 0.91765 0.71667 0.32558 0.0
H44 H 0.74921 0.80296 0.87545 0.0
H45 H 0.65785 0.77779 1.00379 0.0
H46 H 0.62409 0.85903 0.8926 0.0
C47 C 0.71559 0.8048 0.8953 0.0
C48 C 0.6863 0.83138 0.87753 0.0
C49 C 0.70623 0.78556 0.94086 0.0
C50 C 0.66521 0.79162 0.96816 0.0
C51 C 0.63596 0.81849 0.95109 0.0
C52 C 0.64618 0.83776 0.90554 0.0
N53 N 0.59925 0.82881 0.9817 0.0
C54 C 0.59206 0.8725 0.98241 0.0
H55 H 0.85747 0.22366 0.44821 0.0
H56 H 0.91376 0.28878 0.58535 0.0
H57 H 0.83586 0.35426 0.49049 0.0
C58 C 0.86383 0.2529 0.47384 0.0
C59 C 0.84486 0.28949 0.46405 0.0
C60 C 0.88831 0.25239 0.51744 0.0
C61 C 0.89545 0.28942 0.5511 0.0
C62 C 0.8763 0.32594 0.54202 0.0
C63 C 0.8513 0.32633 0.49791 0.0
N64 N 0.87807 0.35916 0.57944 0.0
C65 C 0.8357 0.37404 0.58696 0.0
H66 H 0.35659 0.83052 0.19342 0.0
H67 H 0.35454 0.72327 0.29446 0.0
H68 H 0.47968 0.85718 0.29711 0.0
C69 C 0.37374 0.81889 0.22332 0.0
C70 C 0.42072 0.85041 0.24312 0.0
C71 C 0.34824 0.77305 0.24123 0.0
C72 C 0.37265 0.75797 0.28016 0.0
C73 C 0.42049 0.78848 0.30072 0.0
C74 C 0.44315 0.83419 0.28174 0.0
N75 N 0.44927 0.77656 0.33925 0.0
C76 C 0.44044 0.73832 0.37063 0.0
H77 H 0.2528 0.40167 0.68934 0.0
H78 H 0.25203 0.50615 0.79877 0.0
H79 H 0.13379 0.3678 0.7969 0.0
C80 C 0.23459 0.41191 0.7203 0.0
C81 C 0.18974 0.37843 0.73958 0.0
C82 C 0.25779 0.4581 0.74049 0.0
C83 C 0.23493 0.47117 0.78265 0.0
C84 C 0.18954 0.43838 0.80337 0.0
C85 C 0.16833 0.39255 0.78133 0.0
N86 N 0.16382 0.44701 0.84669 0.0
C87 C 0.1652 0.4873 0.8754 0.0
La88 La 0.07771 0.11766 0.55447 0.0
La89 La 1.01569 0.08172 0.64199 0.0
C90 C 0.11292 0.14765 0.47414 0.0
C91 C 0.15977 0.18587 0.45852 0.0
C92 C 0.20757 0.17792 0.45314 0.0
C93 C 0.25164 0.21369 0.43774 0.0
C94 C 0.24897 0.2582 0.42715 0.0
C95 C 0.2014 0.26646 0.43321 0.0
C96 C 0.15715 0.23058 0.44866 0.0
C97 C 0.12646 0.08516 0.61925 0.0
C98 C 0.09846 0.18812 0.64402 0.0
C99 C 0.97496 0.0534 0.72069 0.0
C100 C 0.92352 1.01906 0.73215 0.0
C101 C 0.87727 1.02941 0.72494 0.0
C102 C 0.82884 0.99649 0.7358 0.0
C103 C 0.82575 0.95259 0.75365 0.0
C104 C 0.8718 0.94179 0.75956 0.0
C105 C 0.92023 0.97481 0.74913 0.0
C106 C 0.9657 0.10943 0.57503 0.0
C107 C 0.99809 1.00979 0.55372 0.0
O108 O 0.12096 0.11181 0.494 0.0
O109 O 0.07753 0.16062 0.49683 0.0
O110 O 0.1495 0.11958 0.59133 0.0
O111 O 0.0792 0.06967 0.60773 0.0
O112 O 0.10225 0.18438 0.59683 0.0
O113 O 0.07271 0.15032 0.66894 0.0
O114 O 0.97463 0.09267 0.70201 0.0
O115 O 1.0078 1.03617 0.69913 0.0
O116 O 0.9438 0.07551 0.60359 0.0
O117 O 1.01249 0.12828 0.58763 0.0
O118 O 0.99433 1.01428 0.6009 0.0
O119 O 1.02311 1.0474 0.52815 0.0
H120 H 0.21089 0.14381 0.46008 0.0
H121 H 0.28734 0.20576 0.43228 0.0
H122 H 0.1982 0.30042 0.42531 0.0
H123 H 0.12079 0.23771 0.4524 0.0
H124 H 0.87836 0.06308 0.71142 0.0
H125 H 0.79389 1.00567 0.7312 0.0
H126 H 0.87063 0.90857 0.77434 0.0
H127 H 0.9552 0.96593 0.75488 0.0
La128 La 0.59694 0.11506 0.13069 0.0
La129 La 0.50154 0.10223 0.08445 0.0
C130 C 0.68925 0.13598 0.16111 0.0
C131 C 0.71618 0.16748 0.20135 0.0
C132 C 0.73078 0.14753 0.24126 0.0
C133 C 0.74834 0.17461 0.28299 0.0
C134 C 0.75249 0.22239 0.28539 0.0
C135 C 0.74044 0.24323 0.2449 0.0
C136 C 0.72186 0.21583 0.2032 0.0
C137 C 0.51884 1.04362 0.16799 0.0
C138 C 0.53017 0.16795 0.1766 0.0
C139 C 0.40745 0.08727 0.06084 0.0
C140 C 0.3737 0.06753 1.01909 0.0
C141 C 0.39057 0.08094 0.97255 0.0
C142 C 0.35917 0.05957 0.93327 0.0
C143 C 0.31063 1.02415 0.93983 0.0
C144 C 0.29314 1.01185 0.9865 0.0
C145 C 0.3244 1.03356 1.02584 0.0
C146 C 0.57938 0.17267 1.04647 0.0
C147 C 0.56802 1.04729 1.03849 0.0
O148 O 0.6511 0.09867 0.17368 0.0
O149 O 0.67656 0.15543 0.12407 0.0
O150 O 0.55428 0.0762 0.19222 0.0
O151 O 0.52685 0.05322 0.12416 0.0
O152 O 0.57876 0.17112 0.16878 0.0
O153 O 0.4923 0.13529 0.1534 0.0
O154 O 0.44511 0.12721 0.05535 0.0
O155 O 0.42306 0.0576 0.08438 0.0
O156 O 0.54334 0.14027 1.02253 0.0
O157 O 0.5717 0.16389 0.09059 0.0
O158 O 0.52024 1.04886 1.04169 0.0
O159 O 0.60599 0.07582 0.06561 0.0
H160 H 0.72666 0.11041 0.24079 0.0
H161 H 0.75823 0.15807 0.31371 0.0
H162 H 0.74371 0.28014 0.2461 0.0
H163 H 0.71049 0.23215 0.17311 0.0
H164 H 0.42859 0.10693 0.96636 0.0
H165 H 0.37411 0.06907 0.89768 0.0
H166 H 0.25593 0.98459 0.99246 0.0
H167 H 0.31069 1.02291 0.06153 0.0
La168 La 0.5292 0.55713 0.577 0.0
La169 La 0.54755 0.64074 0.63573 0.0
C170 C 0.53717 0.48563 0.53388 0.0
C171 C 0.57861 0.46544 0.54062 0.0
C172 C 0.56679 0.41651 0.54258 0.0
C173 C 0.60552 0.39802 0.55543 0.0
C174 C 0.65645 0.42839 0.56649 0.0
C175 C 0.66795 0.47735 0.56405 0.0
C176 C 0.62938 0.49565 0.55162 0.0
C177 C 0.44575 0.55595 0.62864 0.0
C178 C 0.58991 0.56471 0.67854 0.0
C179 C 0.52704 0.69964 0.69003 0.0
C180 C 0.51887 0.74457 0.6824 0.0
C181 C 0.53634 0.78126 0.7168 0.0
C182 C 0.51768 0.81914 0.71597 0.0
C183 C 0.48067 0.81993 0.68122 0.0
C184 C 0.469 0.78642 0.64325 0.0
C185 C 0.48796 0.74894 0.6439 0.0
C186 C 0.63073 0.66127 0.57812 0.0
C187 C 0.49984 0.63884 0.52927 0.0
O188 O 0.50751 0.48325 0.57114 0.0
O189 O 0.55193 0.52751 0.51552 0.0
O190 O 0.44503 0.5436 0.58381 0.0
O191 O 0.49319 0.57 0.64242 0.0
O192 O 0.57868 0.54385 0.63534 0.0
O193 O 0.57858 0.60348 0.68807 0.0
O194 O 0.57454 0.69885 0.6842 0.0
O195 O 0.49148 0.66247 0.67074 0.0
O196 O 0.62244 0.68851 0.61141 0.0
O197 O 0.59258 0.62243 0.578 0.0
O198 O 0.50774 0.65873 0.57299 0.0
O199 O 0.50911 0.59877 0.52111 0.0
H200 H 0.52746 0.39279 0.53533 0.0
H201 H 0.59547 0.36011 0.55735 0.0
H202 H 0.70695 0.5017 0.57134 0.0
H203 H 0.63912 0.53362 0.55159 0.0
H204 H 0.56108 0.77887 0.74623 0.0
H205 H 0.52808 0.84524 0.7451 0.0
H206 H 0.44058 0.78593 0.61598 0.0
H207 H 0.47439 0.72127 0.61663 0.0
La208 La 0.04974 0.56368 0.13118 0.0
La209 La 0.05006 0.64997 0.07934 0.0
C210 C 0.07634 0.49804 0.16416 0.0
C211 C 0.1279 0.49258 0.16963 0.0
C212 C 0.13738 0.46717 0.20765 0.0
C213 C 0.18663 0.46268 0.2135 0.0
C214 C 0.22717 0.48341 0.18125 0.0
C215 C 0.21758 0.50927 0.14348 0.0
C216 C 0.16854 0.51404 0.13788 0.0
C217 C 0.99702 0.61371 0.17659 0.0
C218 C 0.15012 0.65992 0.14217 0.0
C219 C 1.02317 0.72028 0.0614 0.0
C220 C 0.97379 0.72544 1.04431 0.0
C221 C 0.96924 0.73835 0.99711 0.0
C222 C 0.92272 0.74337 0.98098 0.0
C223 C 0.87989 0.73598 1.01187 0.0
C224 C 0.88444 0.72294 0.05901 0.0
C225 C 0.93076 0.71771 0.07506 0.0
C226 C 0.09336 0.59946 1.02091 0.0
C227 C 0.9547 0.55267 0.06125 0.0
O228 O 0.06848 0.53138 0.19089 0.0
O229 O 0.06009 0.49811 0.12016 0.0
O230 O 0.98366 0.56795 0.17508 0.0
O231 O 0.03939 0.62928 0.15321 0.0
O232 O 0.12976 0.61351 0.14768 0.0
O233 O 0.12508 0.68263 0.11702 0.0
O234 O 0.04859 0.70218 1.03114 0.0
O235 O 1.02213 0.70337 0.10399 0.0
O236 O 0.08907 0.64005 1.01176 0.0
O237 O 0.0754 0.59062 0.063 0.0
O238 O 0.97131 0.59953 0.06103 0.0
O239 O 0.982 0.53019 0.08366 0.0
H240 H 0.10668 0.45076 0.23277 0.0
H241 H 0.19269 0.44226 0.24276 0.0
H242 H 0.24818 0.52623 0.11848 0.0
H243 H 0.16241 0.53459 0.10875 0.0
H244 H 1.00177 0.74483 0.97271 0.0
H245 H 0.92071 0.75413 0.94463 0.0
H246 H 0.85205 0.71662 0.08355 0.0
H247 H 0.93271 0.7077 0.1117 0.0
C248 C 0.32897 0.33976 0.33505 0.0
C249 C 0.37942 0.34051 0.34691 0.0
H250 H 0.24772 0.31266 0.35131 0.0
C251 C 0.38768 0.32206 0.39049 0.0
H252 H 0.32144 0.35347 0.30149 0.0
C253 C 0.34538 0.2988 0.41924 0.0
C254 C 0.2942 0.2934 0.40462 0.0
H255 H 0.4264 0.32284 0.40069 0.0
H256 H 0.35241 0.28243 0.4513 0.0
C257 C 0.28666 0.31631 0.36365 0.0
C258 C 0.26319 0.99136 0.81284 0.0
C259 C 0.2534 0.94256 0.81255 0.0
H260 H 0.2888 0.05611 0.85448 0.0
C261 C 0.25332 0.92005 0.8557 0.0
H262 H 0.26401 1.00926 0.77964 0.0
C263 C 0.26738 0.94656 0.89825 0.0
C264 C 0.28238 0.99602 0.89802 0.0
H265 H 0.24648 0.88243 0.85583 0.0
H266 H 0.27101 0.92868 0.93042 0.0
C267 C 0.2778 1.01804 0.85542 0.0
C268 C 0.64259 0.47924 0.74772 0.0
C269 C 0.64949 0.49841 0.79502 0.0
H270 H 0.61937 0.48418 0.67478 0.0
C271 C 0.63866 0.54074 0.80293 0.0
H272 H 0.64942 0.4463 0.73995 0.0
C273 C 0.62109 0.56264 0.76529 0.0
C274 C 0.61301 0.54298 0.71802 0.0
H275 H 0.64233 0.55639 0.8387 0.0
H276 H 0.61249 0.59461 0.7737 0.0
C277 C 0.62489 0.50102 0.71007 0.0
C278 C 0.98353 0.71377 0.2619 0.0
C279 C 0.93983 0.69018 0.29021 0.0
H280 H 0.03577 0.70933 0.20477 0.0
C281 C 0.91519 0.64154 0.28012 0.0
H282 H 1.0033 0.75131 0.26778 0.0
C283 C 0.93358 0.61744 0.24348 0.0
C284 C 0.97726 0.64089 0.21499 0.0
H285 H 0.88104 0.62202 0.30024 0.0
H286 H 0.91316 0.58006 0.23733 0.0
C287 C 1.00198 0.68965 0.22518 0.0
C288 C 0.54337 0.28944 0.22722 0.0
C289 C 0.49181 0.2831 0.24086 0.0
H290 H 0.59646 0.25724 0.19752 0.0
C291 C 0.4541 0.23773 0.23698 0.0
H292 H 0.57308 0.32404 0.23001 0.0
C293 C 0.46718 0.19971 0.21823 0.0
C294 C 0.5184 0.20611 0.20348 0.0
H295 H 0.41389 0.23197 0.24683 0.0
H296 H 0.43682 0.16557 0.21402 0.0
C297 C 0.55671 0.25111 0.20913 0.0
C298 C 0.19282 0.99607 0.60427 0.0
C299 C 0.16596 0.96397 0.63846 0.0
H300 H 0.20296 0.06241 0.57256 0.0
C301 C 0.1347 0.97663 0.67229 0.0
H302 H 0.21819 0.98689 0.57872 0.0
C303 C 0.12704 1.01999 0.66964 0.0
C304 C 0.15063 1.0509 0.63319 0.0
H305 H 0.11496 0.95248 0.69976 0.0
H306 H 0.10006 1.02806 0.6941 0.0
C307 C 0.18522 1.03955 0.60161 0.0
C308 C 0.82264 0.51945 0.99238 0.0
C309 C 0.80779 0.46984 0.98641 0.0
H310 H 0.87918 0.58411 1.02033 0.0
C311 C 0.8432 0.44871 1.00414 0.0
H312 H 0.7971 0.53759 0.97975 0.0
C313 C 0.88988 0.47528 1.02819 0.0
C314 C 0.90417 0.52456 1.0352 0.0
H315 H 0.83499 0.41106 0.99949 0.0
H316 H 0.91502 0.45689 1.04119 0.0
C317 C 0.8699 0.54626 1.01621 0.0
C318 C 0.74825 0.67097 0.49398 0.0
C319 C 0.76975 0.7205 0.48869 0.0
H320 H 0.68766 0.61263 0.5256 0.0
C321 C 0.74126 0.74783 0.50898 0.0
H322 H 0.76836 0.6483 0.47895 0.0
C323 C 0.69605 0.72763 0.53601 0.0
C324 C 0.6757 0.67876 0.54341 0.0
H325 H 0.75444 0.78567 0.50475 0.0
H326 H 0.67715 0.75093 0.5519 0.0
C327 C 0.70176 0.65035 0.52086 0.0
C328 C 0.35182 0.45837 0.15082 0.0
C329 C 0.37506 0.46173 0.19599 0.0
H330 H 0.28649 0.46237 0.11076 0.0
C331 C 0.35068 0.47356 0.23627 0.0
H332 H 0.36991 0.44871 0.11942 0.0
C333 C 0.3029 0.48118 0.23151 0.0
C334 C 0.27892 0.47721 0.18632 0.0
H335 H 0.36808 0.47619 0.27149 0.0
H336 H 0.28469 0.4901 0.26318 0.0
C337 C 0.30422 0.46622 0.14596 0.0
C338 C 0.65945 0.30565 1.03665 0.0
C339 C 0.65586 0.31388 0.9873 0.0
H340 H 0.63905 0.25604 0.09386 0.0
C341 C 0.62783 0.27432 0.95813 0.0
H342 H 0.67981 0.33457 0.06101 0.0
C343 C 0.60434 0.22907 0.97723 0.0
C344 C 0.60755 0.22105 1.02645 0.0
H345 H 0.6244 0.27801 0.92003 0.0
H346 H 0.58316 0.20015 0.95315 0.0
C347 C 0.63577 0.26026 0.05579 0.0
C348 C 0.93281 0.87495 0.53594 0.0
C349 C 0.92955 0.8674 0.48568 0.0
H350 H 0.95559 0.92382 0.59601 0.0
C351 C 0.95107 0.90784 0.45785 0.0
H352 H 0.9182 0.84539 0.55931 0.0
C353 C 0.97339 0.95367 0.4794 0.0
C354 C 0.97499 0.96101 0.52966 0.0
H355 H 0.94937 0.9044 0.4192 0.0
H356 H 0.98876 0.98351 0.45648 0.0
C357 C 0.95468 0.9205 0.55733 0.0
C358 C 0.37969 0.87822 0.66195 0.0
C359 C 0.35587 0.87268 0.70712 0.0
H360 H 0.43993 0.8673 0.61839 0.0
C361 C 0.37824 0.85594 0.74466 0.0
H362 H 0.36389 0.89204 0.63261 0.0
C363 C 0.42207 0.84302 0.73687 0.0
C364 C 0.44426 0.84592 0.69117 0.0
H365 H 0.36046 0.85065 0.77969 0.0
H366 H 0.43608 0.82741 0.76599 0.0
C367 C 0.42356 0.8648 0.65399 0.0
C368 C 0.71378 0.9086 0.83742 0.0
C369 C 0.70552 0.85989 0.83481 0.0
H370 H 0.75881 0.97658 0.81275 0.0
C371 C 0.72683 0.84139 0.79636 0.0
H372 H 0.69794 0.92404 0.86653 0.0
C373 C 0.76241 0.87172 0.76585 0.0
C374 C 0.77635 0.92079 0.77302 0.0
H375 H 0.72 0.80383 0.79282 0.0
H376 H 0.78232 0.85702 0.7394 0.0
C377 C 0.74891 0.93885 0.8066 0.0
C378 C 0.76463 0.25035 0.41725 0.0
C379 C 0.81424 0.28505 0.41995 0.0
H380 H 0.70585 0.20326 0.37152 0.0
C381 C 0.83908 0.30515 0.37791 0.0
H382 H 0.74534 0.23402 0.4494 0.0
C383 C 0.81646 0.28763 0.33331 0.0
C384 C 0.76934 0.24951 0.33069 0.0
H385 H 0.87784 0.33133 0.37945 0.0
H386 H 0.83788 0.30098 0.30108 0.0
C387 C 0.74238 0.23256 0.37288 0.0
C388 C 0.45744 0.6663 0.40323 0.0
C389 C 0.44922 0.7099 0.4109 0.0
H390 H 0.479 0.60993 0.43318 0.0
C391 C 0.45672 0.72908 0.45812 0.0
H392 H 0.45326 0.65055 0.36748 0.0
C393 C 0.47211 0.70601 0.49597 0.0
C394 C 0.48092 0.66255 0.48855 0.0
H395 H 0.45201 0.76294 0.46573 0.0
H396 H 0.47811 0.72302 0.53111 0.0
C397 C 0.4727 0.64303 0.44123 0.0
C398 C 0.14899 0.56227 0.90425 0.0
C399 C 0.15169 0.51741 0.91354 0.0
H400 H 0.12938 0.62239 0.92998 0.0
C401 C 0.13599 0.49986 0.95968 0.0
H402 H 0.15979 0.57705 0.86935 0.0
C403 C 0.11794 0.52591 0.99492 0.0
C404 C 0.11474 0.5707 0.98542 0.0
H405 H 0.13667 0.46522 0.96836 0.0
H406 H 0.10573 0.51058 1.02934 0.0
C407 C 0.13114 0.5883 0.93939 0.0
C408 C 0.63136 0.95726 1.00225 0.0
C409 C 0.58773 0.91891 0.98764 0.0
H410 H 0.65975 1.0289 1.02869 0.0
C411 C 0.53923 0.92511 0.98266 0.0
H412 H 0.6692 0.95302 1.0061 0.0
C413 C 0.53367 0.96857 0.99524 0.0
C414 C 0.57653 1.00631 1.0134 0.0
H415 H 0.50516 0.89578 0.97126 0.0
H416 H 0.49508 0.97154 0.99357 0.0
C417 C 0.62588 1.00069 1.01497 0.0
C418 C 0.93633 0.19689 0.49869 0.0
C419 C 0.90316 0.21147 0.52907 0.0
H420 H 0.98124 0.15093 0.48935 0.0
C421 C 0.88453 0.18713 0.57099 0.0
H422 H 0.95052 0.21504 0.4659 0.0
C423 C 0.90133 0.15025 0.58385 0.0
C424 C 0.93741 0.13794 0.55515 0.0
H425 H 0.85809 0.19748 0.59434 0.0
H426 H 0.88888 0.13357 0.61769 0.0
C427 C 0.95373 0.16042 0.51194 0.0
C428 C 0.28127 0.69283 0.21249 0.0
C429 C 0.29622 0.74251 0.21817 0.0
H430 H 0.22482 0.6281 0.18439 0.0
C431 C 0.26149 0.76369 0.1991 0.0
H432 H 0.30622 0.67458 0.22615 0.0
C433 C 0.21555 0.73719 0.17406 0.0
C434 C 0.20103 0.68785 0.16762 0.0
H435 H 0.26943 0.8013 0.20365 0.0
H436 H 0.19081 0.75564 0.16032 0.0
C437 C 0.23448 0.66603 0.18792 0.0
C438 C 0.30307 0.49515 0.66483 0.0
C439 C 0.30515 0.49098 0.71487 0.0
H440 H 0.34414 0.5186 0.59962 0.0
C441 C 0.35431 0.51259 0.7374 0.0
H442 H 0.26637 0.47926 0.64583 0.0
C443 C 0.3999 0.53537 0.71032 0.0
C444 C 0.3977 0.53734 0.6599 0.0
H445 H 0.35805 0.50985 0.77563 0.0
H446 H 0.43713 0.54988 0.72871 0.0
C447 C 0.3481 0.51778 0.63809 0.0
C448 C 0.76443 0.78 1.00828 0.0
C449 C 0.74476 0.76605 0.96175 0.0
H450 H 0.82282 0.78201 0.06025 0.0
C451 C 0.76736 0.73876 0.93324 0.0
H452 H 0.74872 0.80178 1.0309 0.0
C453 C 0.81035 0.72792 0.94988 0.0
C454 C 0.83146 0.74376 0.99558 0.0
H455 H 0.75279 0.72702 0.8974 0.0
H456 H 0.82758 0.70775 0.92668 0.0
C457 C 0.80721 0.76891 1.02502 0.0
C458 C 0.443 0.90948 0.17438 0.0
C459 C 0.44578 0.90016 0.22355 0.0
H460 H 0.4629 0.96052 0.11853 0.0
C461 C 0.47216 0.93939 0.25385 0.0
H462 H 0.42405 0.88091 0.14913 0.0
C463 C 0.49464 0.98539 0.23598 0.0
C464 C 0.49197 0.99447 0.18695 0.0
H465 H 0.475 0.93483 0.29186 0.0
H466 H 0.51451 1.01404 0.26086 0.0
C467 C 0.46559 0.95554 0.15651 0.0
C468 C 0.16819 0.32228 0.66542 0.0
C469 C 0.16576 0.32919 0.71557 0.0
H470 H 0.15009 0.27428 0.60434 0.0
C471 C 0.14075 0.28834 0.74193 0.0
H472 H 0.18572 0.35208 0.64295 0.0
C473 C 0.11958 0.24298 0.71925 0.0
C474 C 0.12244 0.23634 0.66917 0.0
H475 H 0.13807 0.29113 0.78046 0.0
H476 H 0.10085 0.21299 0.74118 0.0
C477 C 0.14721 0.27708 0.64287 0.0
C478 C 0.74745 0.35786 0.55649 0.0
C479 C 0.78777 0.38382 0.58756 0.0
H480 H 0.67408 0.35201 0.52497 0.0
C481 C 0.78236 0.42072 0.61617 0.0
H482 H 0.75099 0.32874 0.53464 0.0
C483 C 0.73773 0.43338 0.61165 0.0
C484 C 0.69869 0.40968 0.57783 0.0
H485 H 0.81316 0.44061 0.64076 0.0
H486 H 0.73461 0.46273 0.63338 0.0
C487 C 0.70322 0.37082 0.55143 0.0
loop_
_geom_bond_atom_site_label_1
_geom_bond_atom_site_label_2
_geom_bond_distance
_geom_bond_site_symmetry_2
_ccdc_geom_bond_type
H0 C3 0.929 . S
H1 C6 0.929 . S
H2 C8 0.930 . S
C3 H0 0.929 . S
C3 C4 1.398 . S
C3 C5 1.396 . S
C4 C3 1.398 . S
C4 C8 1.407 . S
C5 C3 1.396 . S
C5 C6 1.394 . S
C6 H1 0.929 . S
C6 C5 1.394 . S
C6 C7 1.382 . S
C7 C6 1.382 . S
C7 C8 1.392 . S
C7 N9 1.420 . S
C8 H2 0.930 . S
C8 C4 1.407 . S
C8 C7 1.392 . S
N9 C7 1.420 . S
N9 C10 1.244 . S
C10 N9 1.244 . S
H11 C14 0.929 . S
H12 C17 0.929 . S
H13 C19 0.930 . S
C14 H11 0.929 . S
C14 C15 1.398 . S
C14 C16 1.396 . S
C15 C14 1.398 . S
C15 C19 1.407 . S
C16 C14 1.396 . S
C16 C17 1.394 . S
C17 H12 0.929 . S
C17 C16 1.394 . S
C17 C18 1.382 . S
C18 C17 1.382 . S
C18 C19 1.392 . S
C18 N20 1.420 . S
C19 H13 0.930 . S
C19 C15 1.407 . S
C19 C18 1.392 . S
N20 C18 1.420 . S
N20 C21 1.244 . S
C21 N20 1.244 . S
H22 C25 0.929 . S
H23 C28 0.929 . S
H24 C30 0.930 . S
C25 H22 0.929 . S
C25 C26 1.398 . S
C25 C27 1.396 . S
C26 C25 1.398 . S
C26 C30 1.407 . S
C27 C25 1.396 . S
C27 C28 1.394 . S
C28 H23 0.929 . S
C28 C27 1.394 . S
C28 C29 1.382 . S
C29 C28 1.382 . S
C29 C30 1.392 . S
C29 N31 1.420 . S
C30 H24 0.930 . S
C30 C26 1.407 . S
C30 C29 1.392 . S
N31 C29 1.420 . S
N31 C32 1.244 . S
C32 N31 1.244 . S
H33 C36 0.929 . S
H34 C39 0.929 . S
H35 C41 0.930 . S
C36 H33 0.929 . S
C36 C37 1.398 . S
C36 C38 1.396 . S
C37 C36 1.398 . S
C37 C41 1.407 . S
C38 C36 1.396 . S
C38 C39 1.394 . S
C39 H34 0.929 . S
C39 C38 1.394 . S
C39 C40 1.382 . S
C40 C39 1.382 . S
C40 C41 1.392 . S
C40 N42 1.420 . S
C41 H35 0.930 . S
C41 C37 1.407 . S
C41 C40 1.392 . S
N42 C40 1.420 . S
N42 C43 1.244 . S
C43 N42 1.244 . S
H44 C47 0.929 . S
H45 C50 0.929 . S
H46 C52 0.930 . S
C47 H44 0.929 . S
C47 C48 1.398 . S
C47 C49 1.396 . S
C48 C47 1.398 . S
C48 C52 1.407 . S
C49 C47 1.396 . S
C49 C50 1.394 . S
C50 H45 0.929 . S
C50 C49 1.394 . S
C50 C51 1.382 . S
C51 C50 1.382 . S
C51 C52 1.392 . S
C51 N53 1.420 . S
C52 H46 0.930 . S
C52 C48 1.407 . S
C52 C51 1.392 . S
N53 C51 1.420 . S
N53 C54 1.244 . S
C54 N53 1.244 . S
H55 C58 0.929 . S
H56 C61 0.929 . S
H57 C63 0.930 . S
C58 H55 0.929 . S
C58 C59 1.398 . S
C58 C60 1.396 . S
C59 C58 1.398 . S
C59 C63 1.407 . S
C60 C58 1.396 . S
C60 C61 1.394 . S
C61 H56 0.929 . S
C61 C60 1.394 . S
C61 C62 1.382 . S
C62 C61 1.382 . S
C62 C63 1.392 . S
C62 N64 1.420 . S
C63 H57 0.930 . S
C63 C59 1.407 . S
C63 C62 1.392 . S
N64 C62 1.420 . S
N64 C65 1.244 . S
C65 N64 1.244 . S
H66 C69 0.929 . S
H67 C72 0.929 . S
H68 C74 0.930 . S
C69 H66 0.929 . S
C69 C70 1.398 . S
C69 C71 1.396 . S
C70 C69 1.398 . S
C70 C74 1.407 . S
C71 C69 1.396 . S
C71 C72 1.394 . S
C72 H67 0.929 . S
C72 C71 1.394 . S
C72 C73 1.382 . S
C73 C72 1.382 . S
C73 C74 1.392 . S
C73 N75 1.420 . S
C74 H68 0.930 . S
C74 C70 1.407 . S
C74 C73 1.392 . S
N75 C73 1.420 . S
N75 C76 1.244 . S
C76 N75 1.244 . S
H77 C80 0.929 . S
H78 C83 0.929 . S
H79 C85 0.930 . S
C80 H77 0.929 . S
C80 C81 1.398 . S
C80 C82 1.396 . S
C81 C80 1.398 . S
C81 C85 1.407 . S
C82 C80 1.396 . S
C82 C83 1.394 . S
C83 H78 0.929 . S
C83 C82 1.394 . S
C83 C84 1.382 . S
C84 C83 1.382 . S
C84 C85 1.392 . S
C84 N86 1.420 . S
C85 H79 0.930 . S
C85 C81 1.407 . S
C85 C84 1.392 . S
N86 C84 1.420 . S
N86 C87 1.244 . S
C87 N86 1.244 . S
La88 C90 2.928 . S
La88 O108 2.521 . S
La88 O109 2.628 . S
La88 O110 2.554 . S
La88 O111 2.768 . S
La88 O112 2.470 . S
La88 O117 2.482 1_455 S
La88 O119 2.503 1_445 S
La89 C99 2.928 1_545 S
La89 O111 2.495 1_655 S
La89 O113 2.503 1_655 S
La89 O114 2.521 1_545 S
La89 O115 2.628 1_545 S
La89 O116 2.554 . S
La89 O117 2.757 . S
La89 O118 2.470 1_545 S
C90 La88 2.928 . S
C90 C91 1.503 . S
C90 O108 1.261 . S
C90 O109 1.243 . S
C91 C90 1.503 . S
C91 C92 1.394 . S
C91 C96 1.373 . S
C92 C91 1.394 . S
C92 C93 1.380 . S
C92 H120 0.930 . S
C93 C92 1.380 . S
C93 C94 1.376 . S
C93 H121 0.930 . S
C94 C93 1.376 . S
C94 C95 1.370 . S
C95 C94 1.370 . S
C95 C96 1.396 . S
C95 H122 0.929 . S
C96 C91 1.373 . S
C96 C95 1.396 . S
C96 H123 0.929 . S
C97 O110 1.240 1_565 S
C97 O111 1.279 1_565 S
C98 O112 1.258 . S
C98 O113 1.256 . S
C99 La89 2.928 1_565 S
C99 C100 1.503 . S
C99 O114 1.261 . S
C99 O115 1.243 . S
C100 C99 1.503 . S
C100 C101 1.394 . S
C100 C105 1.373 . S
C101 C100 1.394 . S
C101 C102 1.380 . S
C101 H124 0.930 . S
C102 C101 1.380 . S
C102 C103 1.376 . S
C102 H125 0.930 . S
C103 C102 1.376 . S
C103 C104 1.370 . S
C104 C103 1.370 . S
C104 C105 1.396 . S
C104 H126 0.929 . S
C105 C100 1.373 . S
C105 C104 1.396 . S
C105 H127 0.929 . S
C106 O116 1.240 . S
C106 O117 1.289 . S
C107 O118 1.258 . S
C107 O119 1.256 . S
O108 La88 2.521 . S
O108 C90 1.261 . S
O109 La88 2.628 . S
O109 C90 1.243 . S
O110 La88 2.554 . S
O110 C97 1.240 1_545 S
O111 La88 2.768 . S
O111 La89 2.495 1_455 S
O111 C97 1.279 1_545 S
O112 La88 2.470 . S
O112 C98 1.258 . S
O113 La89 2.503 1_455 S
O113 C98 1.256 . S
O114 La89 2.521 1_565 S
O114 C99 1.261 . S
O115 La89 2.628 1_565 S
O115 C99 1.243 . S
O116 La89 2.554 . S
O116 C106 1.240 . S
O117 La88 2.482 1_655 S
O117 La89 2.757 . S
O117 C106 1.289 . S
O118 La89 2.470 1_565 S
O118 C107 1.258 . S
O119 La88 2.503 1_665 S
O119 C107 1.256 . S
H120 C92 0.930 . S
H121 C93 0.930 . S
H122 C95 0.929 . S
H123 C96 0.929 . S
H124 C101 0.930 . S
H125 C102 0.930 . S
H126 C104 0.929 . S
H127 C105 0.929 . S
La128 C130 2.928 . S
La128 O148 2.521 . S
La128 O149 2.628 . S
La128 O150 2.554 1_545 S
La128 O151 2.757 1_545 S
La128 O152 2.470 . S
La128 O157 2.482 . S
La128 O159 2.503 1_545 S
La129 C139 2.928 1_544 S
La129 O151 2.482 1_545 S
La129 O153 2.503 . S
La129 O154 2.521 1_554 S
La129 O155 2.628 1_544 S
La129 O156 2.554 1_554 S
La129 O157 2.757 . S
La129 O158 2.470 1_554 S
C130 La128 2.928 . S
C130 C131 1.503 . S
C130 O148 1.261 . S
C130 O149 1.243 . S
C131 C130 1.503 . S
C131 C132 1.394 . S
C131 C136 1.373 . S
C132 C131 1.394 . S
C132 C133 1.380 . S
C132 H160 0.930 . S
C133 C132 1.380 . S
C133 C134 1.376 . S
C133 H161 0.930 . S
C134 C133 1.376 . S
C134 C135 1.370 . S
C135 C134 1.370 . S
C135 C136 1.396 . S
C135 H162 0.929 . S
C136 C131 1.373 . S
C136 C135 1.396 . S
C136 H163 0.929 . S
C137 O150 1.240 . S
C137 O151 1.289 . S
C138 O152 1.258 . S
C138 O153 1.256 . S
C139 La129 2.928 1_566 S
C139 C140 1.503 . S
C139 O154 1.261 1_565 S
C139 O155 1.243 . S
C140 C139 1.503 . S
C140 C141 1.394 . S
C140 C145 1.373 . S
C141 C140 1.394 . S
C141 C142 1.380 . S
C141 H164 0.930 1_565 S
C142 C141 1.380 . S
C142 C143 1.376 . S
C142 H165 0.930 . S
C143 C142 1.376 . S
C143 C144 1.370 . S
C144 C143 1.370 . S
C144 C145 1.396 . S
C144 H166 0.929 . S
C145 C140 1.373 . S
C145 C144 1.396 . S
C145 H167 0.929 . S
C146 O156 1.240 1_554 S
C146 O157 1.289 . S
C147 O158 1.260 1_565 S
C147 O159 1.249 1_556 S
O148 La128 2.521 . S
O148 C130 1.261 . S
O149 La128 2.628 . S
O149 C130 1.243 . S
O150 La128 2.554 1_565 S
O150 C137 1.240 . S
O151 La128 2.757 1_565 S
O151 La129 2.482 1_565 S
O151 C137 1.289 . S
O152 La128 2.470 . S
O152 C138 1.258 . S
O153 La129 2.503 . S
O153 C138 1.256 . S
O154 La129 2.521 1_556 S
O154 C139 1.261 1_545 S
O155 La129 2.628 1_566 S
O155 C139 1.243 . S
O156 La129 2.554 1_556 S
O156 C146 1.240 1_556 S
O157 La128 2.482 . S
O157 La129 2.757 . S
O157 C146 1.289 . S
O158 La129 2.470 1_556 S
O158 C147 1.260 1_545 S
O159 La128 2.503 1_565 S
O159 C147 1.249 1_554 S
H160 C132 0.930 . S
H161 C133 0.930 . S
H162 C135 0.929 . S
H163 C136 0.929 . S
H164 C141 0.930 1_545 S
H165 C142 0.930 . S
H166 C144 0.929 . S
H167 C145 0.929 . S
La168 C170 2.928 . S
La168 O188 2.521 . S
La168 O189 2.628 . S
La168 O190 2.554 . S
La168 O191 2.757 . S
La168 O192 2.470 . S
La168 O197 2.482 . S
La168 O199 2.503 . S
La169 C179 2.928 . S
La169 O191 2.482 . S
La169 O193 2.503 . S
La169 O194 2.521 . S
La169 O195 2.628 . S
La169 O196 2.554 . S
La169 O197 2.757 . S
La169 O198 2.470 . S
C170 La168 2.928 . S
C170 C171 1.503 . S
C170 O188 1.261 . S
C170 O189 1.243 . S
C171 C170 1.503 . S
C171 C172 1.394 . S
C171 C176 1.373 . S
C172 C171 1.394 . S
C172 C173 1.380 . S
C172 H200 0.930 . S
C173 C172 1.380 . S
C173 C174 1.376 . S
C173 H201 0.930 . S
C174 C173 1.376 . S
C174 C175 1.370 . S
C175 C174 1.370 . S
C175 C176 1.396 . S
C175 H202 0.929 . S
C176 C171 1.373 . S
C176 C175 1.396 . S
C176 H203 0.929 . S
C177 O190 1.240 . S
C177 O191 1.289 . S
C178 O192 1.258 . S
C178 O193 1.256 . S
C179 La169 2.928 . S
C179 C180 1.503 . S
C179 O194 1.261 . S
C179 O195 1.243 . S
C180 C179 1.503 . S
C180 C181 1.394 . S
C180 C185 1.373 . S
C181 C180 1.394 . S
C181 C182 1.380 . S
C181 H204 0.930 . S
C182 C181 1.380 . S
C182 C183 1.376 . S
C182 H205 0.930 . S
C183 C182 1.376 . S
C183 C184 1.370 . S
C184 C183 1.370 . S
C184 C185 1.396 . S
C184 H206 0.929 . S
C185 C180 1.373 . S
C185 C184 1.396 . S
C185 H207 0.929 . S
C186 O196 1.240 . S
C186 O197 1.289 . S
C187 O198 1.258 . S
C187 O199 1.256 . S
O188 La168 2.521 . S
O188 C170 1.261 . S
O189 La168 2.628 . S
O189 C170 1.243 . S
O190 La168 2.554 . S
O190 C177 1.240 . S
O191 La168 2.757 . S
O191 La169 2.482 . S
O191 C177 1.289 . S
O192 La168 2.470 . S
O192 C178 1.258 . S
O193 La169 2.503 . S
O193 C178 1.256 . S
O194 La169 2.521 . S
O194 C179 1.261 . S
O195 La169 2.628 . S
O195 C179 1.243 . S
O196 La169 2.554 . S
O196 C186 1.240 . S
O197 La168 2.482 . S
O197 La169 2.757 . S
O197 C186 1.289 . S
O198 La169 2.470 . S
O198 C187 1.258 . S
O199 La168 2.503 . S
O199 C187 1.256 . S
H200 C172 0.930 . S
H201 C173 0.930 . S
H202 C175 0.929 . S
H203 C176 0.929 . S
H204 C181 0.930 . S
H205 C182 0.930 . S
H206 C184 0.929 . S
H207 C185 0.929 . S
La208 C210 2.928 . S
La208 O228 2.521 . S
La208 O229 2.628 . S
La208 O230 2.554 1_455 S
La208 O231 2.757 1_455 S
La208 O232 2.470 . S
La208 O237 2.482 1_554 S
La208 O239 2.503 1_455 S
La209 C219 2.928 1_455 S
La209 O231 2.482 1_456 S
La209 O233 2.503 1_556 S
La209 O234 2.521 1_455 S
La209 O235 2.628 1_455 S
La209 O236 2.554 . S
La209 O237 2.757 . S
La209 O238 2.470 1_455 S
C210 La208 2.928 . S
C210 C211 1.503 . S
C210 O228 1.261 . S
C210 O229 1.243 . S
C211 C210 1.503 . S
C211 C212 1.394 . S
C211 C216 1.373 . S
C212 C211 1.394 . S
C212 C213 1.380 . S
C212 H240 0.930 . S
C213 C212 1.380 . S
C213 C214 1.376 . S
C213 H241 0.930 . S
C214 C213 1.376 . S
C214 C215 1.370 . S
C215 C214 1.370 . S
C215 C216 1.396 . S
C215 H242 0.929 . S
C216 C211 1.373 . S
C216 C215 1.396 . S
C216 H243 0.929 . S
C217 O230 1.240 . S
C217 O231 1.289 . S
C218 O232 1.258 . S
C218 O233 1.256 . S
C219 La209 2.928 1_655 S
C219 C220 1.503 . S
C219 O234 1.261 . S
C219 O235 1.243 . S
C220 C219 1.503 . S
C220 C221 1.394 . S
C220 C225 1.373 . S
C221 C220 1.394 . S
C221 C222 1.380 . S
C221 H244 0.930 . S
C222 C221 1.380 . S
C222 C223 1.376 . S
C222 H245 0.930 . S
C223 C222 1.376 . S
C223 C224 1.370 . S
C224 C223 1.370 . S
C224 C225 1.396 . S
C224 H246 0.929 . S
C225 C220 1.373 . S
C225 C224 1.396 . S
C225 H247 0.929 . S
C226 O236 1.240 . S
C226 O237 1.289 . S
C227 O238 1.258 . S
C227 O239 1.256 1_556 S
O228 La208 2.521 . S
O228 C210 1.261 . S
O229 La208 2.628 . S
O229 C210 1.243 . S
O230 La208 2.554 1_655 S
O230 C217 1.240 . S
O231 La208 2.757 1_655 S
O231 La209 2.482 1_654 S
O231 C217 1.289 . S
O232 La208 2.470 . S
O232 C218 1.258 . S
O233 La209 2.503 1_554 S
O233 C218 1.256 . S
O234 La209 2.521 1_655 S
O234 C219 1.261 . S
O235 La209 2.628 1_655 S
O235 C219 1.243 . S
O236 La209 2.554 . S
O236 C226 1.240 . S
O237 La208 2.482 1_556 S
O237 La209 2.757 . S
O237 C226 1.289 . S
O238 La209 2.470 1_655 S
O238 C227 1.258 . S
O239 La208 2.503 1_655 S
O239 C227 1.256 1_554 S
H240 C212 0.930 . S
H241 C213 0.930 . S
H242 C215 0.929 . S
H243 C216 0.929 . S
H244 C221 0.930 . S
H245 C222 0.930 . S
H246 C224 0.929 . S
H247 C225 0.929 . S
C248 C249 1.387 . S
C248 H252 0.950 . S
C248 C257 1.390 . S
C249 C248 1.387 . S
C249 C251 1.387 . S
H250 C257 0.950 . S
C251 C249 1.387 . S
C251 C253 1.390 . S
C251 H255 0.950 . S
H252 C248 0.950 . S
C253 C251 1.390 . S
C253 C254 1.387 . S
C253 H256 0.950 . S
C254 C253 1.387 . S
C254 C257 1.387 . S
H255 C251 0.950 . S
H256 C253 0.950 . S
C257 C248 1.390 . S
C257 H250 0.950 . S
C257 C254 1.387 . S
C258 C259 1.387 . S
C258 H262 0.950 . S
C258 C267 1.390 . S
C259 C258 1.387 . S
C259 C261 1.387 . S
H260 C267 0.950 . S
C261 C259 1.387 . S
C261 C263 1.390 . S
C261 H265 0.950 . S
H262 C258 0.950 . S
C263 C261 1.390 . S
C263 C264 1.387 . S
C263 H266 0.950 . S
C264 C263 1.387 . S
C264 C267 1.387 . S
H265 C261 0.950 . S
H266 C263 0.950 . S
C267 C258 1.390 . S
C267 H260 0.950 . S
C267 C264 1.387 . S
C268 C269 1.387 . S
C268 H272 0.950 . S
C268 C277 1.390 . S
C269 C268 1.387 . S
C269 C271 1.387 . S
H270 C277 0.950 . S
C271 C269 1.387 . S
C271 C273 1.390 . S
C271 H275 0.950 . S
H272 C268 0.950 . S
C273 C271 1.390 . S
C273 C274 1.387 . S
C273 H276 0.950 . S
C274 C273 1.387 . S
C274 C277 1.387 . S
H275 C271 0.950 . S
H276 C273 0.950 . S
C277 C268 1.390 . S
C277 H270 0.950 . S
C277 C274 1.387 . S
C278 C279 1.387 . S
C278 H282 0.950 . S
C278 C287 1.390 . S
C279 C278 1.387 . S
C279 C281 1.387 . S
H280 C287 0.950 1_455 S
C281 C279 1.387 . S
C281 C283 1.390 . S
C281 H285 0.950 . S
H282 C278 0.950 . S
C283 C281 1.390 . S
C283 C284 1.387 . S
C283 H286 0.950 . S
C284 C283 1.387 . S
C284 C287 1.387 . S
H285 C281 0.950 . S
H286 C283 0.950 . S
C287 C278 1.390 . S
C287 H280 0.950 1_655 S
C287 C284 1.387 . S
C288 C289 1.387 . S
C288 H292 0.950 . S
C288 C297 1.390 . S
C289 C288 1.387 . S
C289 C291 1.387 . S
H290 C297 0.950 . S
C291 C289 1.387 . S
C291 C293 1.390 . S
C291 H295 0.950 . S
H292 C288 0.950 . S
C293 C291 1.390 . S
C293 C294 1.387 . S
C293 H296 0.950 . S
C294 C293 1.387 . S
C294 C297 1.387 . S
H295 C291 0.950 . S
H296 C293 0.950 . S
C297 C288 1.390 . S
C297 H290 0.950 . S
C297 C294 1.387 . S
C298 C299 1.387 . S
C298 H302 0.950 . S
C298 C307 1.390 . S
C299 C298 1.387 . S
C299 C301 1.387 . S
H300 C307 0.950 . S
C301 C299 1.387 . S
C301 C303 1.390 . S
C301 H305 0.950 . S
H302 C298 0.950 . S
C303 C301 1.390 . S
C303 C304 1.387 . S
C303 H306 0.950 1_565 S
C304 C303 1.387 . S
C304 C307 1.387 . S
H305 C301 0.950 . S
H306 C303 0.950 1_545 S
C307 C298 1.390 . S
C307 H300 0.950 . S
C307 C304 1.387 . S
C308 C309 1.387 . S
C308 H312 0.950 . S
C308 C317 1.390 . S
C309 C308 1.387 . S
C309 C311 1.387 . S
H310 C317 0.950 1_554 S
C311 C309 1.387 . S
C311 C313 1.390 . S
C311 H315 0.950 . S
H312 C308 0.950 . S
C313 C311 1.390 . S
C313 C314 1.387 . S
C313 H316 0.950 . S
C314 C313 1.387 . S
C314 C317 1.387 . S
H315 C311 0.950 . S
H316 C313 0.950 . S
C317 C308 1.390 . S
C317 H310 0.950 1_556 S
C317 C314 1.387 . S
C318 C319 1.387 . S
C318 H322 0.950 . S
C318 C327 1.390 . S
C319 C318 1.387 . S
C319 C321 1.387 . S
H320 C327 0.950 . S
C321 C319 1.387 . S
C321 C323 1.390 . S
C321 H325 0.950 . S
H322 C318 0.950 . S
C323 C321 1.390 . S
C323 C324 1.387 . S
C323 H326 0.950 . S
C324 C323 1.387 . S
C324 C327 1.387 . S
H325 C321 0.950 . S
H326 C323 0.950 . S
C327 C318 1.390 . S
C327 H320 0.950 . S
C327 C324 1.387 . S
C328 C329 1.387 . S
C328 H332 0.950 . S
C328 C337 1.390 . S
C329 C328 1.387 . S
C329 C331 1.387 . S
H330 C337 0.950 . S
C331 C329 1.387 . S
C331 C333 1.390 . S
C331 H335 0.950 . S
H332 C328 0.950 . S
C333 C331 1.390 . S
C333 C334 1.387 . S
C333 H336 0.950 . S
C334 C333 1.387 . S
C334 C337 1.387 . S
H335 C331 0.950 . S
H336 C333 0.950 . S
C337 C328 1.390 . S
C337 H330 0.950 . S
C337 C334 1.387 . S
C338 C339 1.387 . S
C338 H342 0.950 1_556 S
C338 C347 1.390 1_556 S
C339 C338 1.387 . S
C339 C341 1.387 . S
H340 C347 0.950 . S
C341 C339 1.387 . S
C341 C343 1.390 . S
C341 H345 0.950 . S
H342 C338 0.950 1_554 S
C343 C341 1.390 . S
C343 C344 1.387 . S
C343 H346 0.950 . S
C344 C343 1.387 . S
C344 C347 1.387 1_556 S
H345 C341 0.950 . S
H346 C343 0.950 . S
C347 C338 1.390 1_554 S
C347 H340 0.950 . S
C347 C344 1.387 1_554 S
C348 C349 1.387 . S
C348 H352 0.950 . S
C348 C357 1.390 . S
C349 C348 1.387 . S
C349 C351 1.387 . S
H350 C357 0.950 . S
C351 C349 1.387 . S
C351 C353 1.390 . S
C351 H355 0.950 . S
H352 C348 0.950 . S
C353 C351 1.390 . S
C353 C354 1.387 . S
C353 H356 0.950 . S
C354 C353 1.387 . S
C354 C357 1.387 . S
H355 C351 0.950 . S
H356 C353 0.950 . S
C357 C348 1.390 . S
C357 H350 0.950 . S
C357 C354 1.387 . S
C358 C359 1.387 . S
C358 H362 0.950 . S
C358 C367 1.390 . S
C359 C358 1.387 . S
C359 C361 1.387 . S
H360 C367 0.950 . S
C361 C359 1.387 . S
C361 C363 1.390 . S
C361 H365 0.950 . S
H362 C358 0.950 . S
C363 C361 1.390 . S
C363 C364 1.387 . S
C363 H366 0.950 . S
C364 C363 1.387 . S
C364 C367 1.387 . S
H365 C361 0.950 . S
H366 C363 0.950 . S
C367 C358 1.390 . S
C367 H360 0.950 . S
C367 C364 1.387 . S
C368 C369 1.387 . S
C368 H372 0.950 . S
C368 C377 1.390 . S
C369 C368 1.387 . S
C369 C371 1.387 . S
H370 C377 0.950 . S
C371 C369 1.387 . S
C371 C373 1.390 . S
C371 H375 0.950 . S
H372 C368 0.950 . S
C373 C371 1.390 . S
C373 C374 1.387 . S
C373 H376 0.950 . S
C374 C373 1.387 . S
C374 C377 1.387 . S
H375 C371 0.950 . S
H376 C373 0.950 . S
C377 C368 1.390 . S
C377 H370 0.950 . S
C377 C374 1.387 . S
C378 C379 1.387 . S
C378 H382 0.950 . S
C378 C387 1.390 . S
C379 C378 1.387 . S
C379 C381 1.387 . S
H380 C387 0.950 . S
C381 C379 1.387 . S
C381 C383 1.390 . S
C381 H385 0.950 . S
H382 C378 0.950 . S
C383 C381 1.390 . S
C383 C384 1.387 . S
C383 H386 0.950 . S
C384 C383 1.387 . S
C384 C387 1.387 . S
H385 C381 0.950 . S
H386 C383 0.950 . S
C387 C378 1.390 . S
C387 H380 0.950 . S
C387 C384 1.387 . S
C388 C389 1.387 . S
C388 H392 0.950 . S
C388 C397 1.390 . S
C389 C388 1.387 . S
C389 C391 1.387 . S
H390 C397 0.950 . S
C391 C389 1.387 . S
C391 C393 1.390 . S
C391 H395 0.950 . S
H392 C388 0.950 . S
C393 C391 1.390 . S
C393 C394 1.387 . S
C393 H396 0.950 . S
C394 C393 1.387 . S
C394 C397 1.387 . S
H395 C391 0.950 . S
H396 C393 0.950 . S
C397 C388 1.390 . S
C397 H390 0.950 . S
C397 C394 1.387 . S
C398 C399 1.387 . S
C398 H402 0.950 . S
C398 C407 1.390 . S
C399 C398 1.387 . S
C399 C401 1.387 . S
H400 C407 0.950 . S
C401 C399 1.387 . S
C401 C403 1.390 . S
C401 H405 0.950 . S
H402 C398 0.950 . S
C403 C401 1.390 . S
C403 C404 1.387 . S
C403 H406 0.950 . S
C404 C403 1.387 . S
C404 C407 1.387 . S
H405 C401 0.950 . S
H406 C403 0.950 . S
C407 C398 1.390 . S
C407 H400 0.950 . S
C407 C404 1.387 . S
C408 C409 1.387 . S
C408 H412 0.950 . S
C408 C417 1.390 . S
C409 C408 1.387 . S
C409 C411 1.387 . S
H410 C417 0.950 . S
C411 C409 1.387 . S
C411 C413 1.390 . S
C411 H415 0.950 . S
H412 C408 0.950 . S
C413 C411 1.390 . S
C413 C414 1.387 . S
C413 H416 0.931 1_556 S
C414 C413 1.387 . S
C414 C417 1.387 . S
H415 C411 0.950 . S
H416 C413 0.931 1_554 S
C417 C408 1.390 . S
C417 H410 0.950 . S
C417 C414 1.387 . S
C418 C419 1.387 . S
C418 H422 0.950 . S
C418 C427 1.390 . S
C419 C418 1.387 . S
C419 C421 1.387 . S
H420 C427 0.950 . S
C421 C419 1.387 . S
C421 C423 1.390 . S
C421 H425 0.950 . S
H422 C418 0.950 . S
C423 C421 1.390 . S
C423 C424 1.387 . S
C423 H426 0.950 . S
C424 C423 1.387 . S
C424 C427 1.387 . S
H425 C421 0.950 . S
H426 C423 0.950 . S
C427 C418 1.390 . S
C427 H420 0.950 . S
C427 C424 1.387 . S
C428 C429 1.387 . S
C428 H432 0.950 . S
C428 C437 1.390 . S
C429 C428 1.387 . S
C429 C431 1.387 . S
H430 C437 0.950 . S
C431 C429 1.387 . S
C431 C433 1.390 . S
C431 H435 0.950 . S
H432 C428 0.950 . S
C433 C431 1.390 . S
C433 C434 1.387 . S
C433 H436 0.950 . S
C434 C433 1.387 . S
C434 C437 1.387 . S
H435 C431 0.950 . S
H436 C433 0.950 . S
C437 C428 1.390 . S
C437 H430 0.950 . S
C437 C434 1.387 . S
C438 C439 1.387 . S
C438 H442 0.950 . S
C438 C447 1.390 . S
C439 C438 1.387 . S
C439 C441 1.387 . S
H440 C447 0.950 . S
C441 C439 1.387 . S
C441 C443 1.390 . S
C441 H445 0.950 . S
H442 C438 0.950 . S
C443 C441 1.390 . S
C443 C444 1.387 . S
C443 H446 0.950 . S
C444 C443 1.387 . S
C444 C447 1.387 . S
H445 C441 0.950 . S
H446 C443 0.950 . S
C447 C438 1.390 . S
C447 H440 0.950 . S
C447 C444 1.387 . S
C448 C449 1.387 . S
C448 H452 0.950 . S
C448 C457 1.390 . S
C449 C448 1.387 . S
C449 C451 1.387 . S
H450 C457 0.950 . S
C451 C449 1.387 . S
C451 C453 1.390 . S
C451 H455 0.950 . S
H452 C448 0.950 . S
C453 C451 1.390 . S
C453 C454 1.387 . S
C453 H456 0.950 . S
C454 C453 1.387 . S
C454 C457 1.387 . S
H455 C451 0.950 . S
H456 C453 0.950 . S
C457 C448 1.390 . S
C457 H450 0.950 . S
C457 C454 1.387 . S
C458 C459 1.387 . S
C458 H462 0.950 . S
C458 C467 1.390 . S
C459 C458 1.387 . S
C459 C461 1.387 . S
H460 C467 0.950 . S
C461 C459 1.387 . S
C461 C463 1.390 . S
C461 H465 0.950 . S
H462 C458 0.950 . S
C463 C461 1.390 . S
C463 C464 1.387 . S
C463 H466 0.950 . S
C464 C463 1.387 . S
C464 C467 1.387 . S
H465 C461 0.950 . S
H466 C463 0.950 . S
C467 C458 1.390 . S
C467 H460 0.950 . S
C467 C464 1.387 . S
C468 C469 1.387 . S
C468 H472 0.950 . S
C468 C477 1.390 . S
C469 C468 1.387 . S
C469 C471 1.387 . S
H470 C477 0.950 . S
C471 C469 1.387 . S
C471 C473 1.390 . S
C471 H475 0.950 . S
H472 C468 0.950 . S
C473 C471 1.390 . S
C473 C474 1.387 . S
C473 H476 0.950 . S
C474 C473 1.387 . S
C474 C477 1.387 . S
H475 C471 0.950 . S
H476 C473 0.950 . S
C477 C468 1.390 . S
C477 H470 0.950 . S
C477 C474 1.387 . S
C478 C479 1.387 . S
C478 H482 0.950 . S
C478 C487 1.390 . S
C479 C478 1.387 . S
C479 C481 1.387 . S
H480 C487 0.950 . S
C481 C479 1.387 . S
C481 C483 1.390 . S
C481 H485 0.950 . S
H482 C478 0.950 . S
C483 C481 1.390 . S
C483 C484 1.387 . S
C483 H486 0.950 . S
C484 C483 1.387 . S
C484 C487 1.387 . S
H485 C481 0.950 . S
H486 C483 0.950 . S
C487 C478 1.390 . S
C487 H480 0.950 . S
C487 C484 1.387 . S
C249 C4 1.115 . S
C254 C94 1.145 . S
C259 C16 1.251 . S
C264 C143 1.271 . S
C274 C178 2.168 . S
C269 C32 2.225 . S
C279 C43 2.400 . S
C284 C217 2.341 . S
C294 C138 2.517 . S
C289 C5 2.343 . S
C304 C97 0.534 . S
C299 C21 0.567 . S
C314 C227 1.951 . S
C309 C27 2.023 . S
C324 C186 1.782 . S
C319 C37 1.774 . S
C329 C10 1.436 . S
C334 C214 1.473 . S
C344 C146 2.521 1_556 S
C339 C26 2.625 . S
C349 C38 2.155 . S
C354 C107 2.151 . S
C359 C15 1.333 . S
C364 C183 1.358 . S
C374 C103 1.223 . S
C369 C48 1.209 . S
C379 C59 1.162 . S
C384 C134 1.170 . S
C389 C76 2.531 . S
C394 C187 2.466 . S
C399 C87 2.262 . S
C404 C226 2.256 . S
C409 C54 1.883 . S
C414 C147 2.071 . S
C424 C106 1.262 . S
C419 C60 1.302 . S
C434 C218 1.842 . S
C429 C71 1.905 . S
C444 C177 1.718 . S
C439 C82 1.794 . S
C449 C49 1.663 . S
C454 C223 1.804 . S
C464 C137 2.043 . S
C459 C70 2.139 . S
C474 C98 2.549 . S
C469 C81 2.561 . S
C479 C65 1.085 . S
C484 C174 1.101 . S
