# Generated by pormake.
# Topology ssa, (4,4)-cn, num edge types: 1
# Building blocks:
#     Node 0, Type 0, BuildingBlock: NAWXER_clean_sbu_0, # of connection points: 4
#     Node 1, Type 0, BuildingBlock: NAWXER_clean_sbu_0, # of connection points: 4
#     Node 2, Type 0, BuildingBlock: NAWXER_clean_sbu_0, # of connection points: 4
#     Node 3, Type 0, BuildingBlock: NAWXER_clean_sbu_0, # of connection points: 4
#     Node 4, Type 0, BuildingBlock: NAWXER_clean_sbu_0, # of connection points: 4
#     Node 5, Type 0, BuildingBlock: NAWXER_clean_sbu_0, # of connection points: 4
#     Node 6, Type 1, BuildingBlock: NAWXER_clean_linker_0, # of connection points: 4
#     Node 7, Type 1, BuildingBlock: NAWXER_clean_linker_0, # of connection points: 4
#     Node 8, Type 1, BuildingBlock: NAWXER_clean_linker_0, # of connection points: 4
#     Node 9, Type 1, BuildingBlock: NAWXER_clean_linker_0, # of connection points: 4
#     Node 10, Type 1, BuildingBlock: NAWXER_clean_linker_0, # of connection points: 4
#     Node 11, Type 1, BuildingBlock: NAWXER_clean_linker_0, # of connection points: 4
#     Edge 12, Type (0, 1), BuildingBlock: XIVTED_clean_linker_0, # of connection points: 2
#     Edge 13, Type (0, 1), BuildingBlock: XIVTED_clean_linker_0, # of connection points: 2
#     Edge 14, Type (0, 1), BuildingBlock: XIVTED_clean_linker_0, # of connection points: 2
#     Edge 15, Type (0, 1), BuildingBlock: XIVTED_clean_linker_0, # of connection points: 2
#     Edge 16, Type (0, 1), BuildingBlock: XIVTED_clean_linker_0, # of connection points: 2
#     Edge 17, Type (0, 1), BuildingBlock: XIVTED_clean_linker_0, # of connection points: 2
#     Edge 18, Type (0, 1), BuildingBlock: XIVTED_clean_linker_0, # of connection points: 2
#     Edge 19, Type (0, 1), BuildingBlock: XIVTED_clean_linker_0, # of connection points: 2
#     Edge 20, Type (0, 1), BuildingBlock: XIVTED_clean_linker_0, # of connection points: 2
#     Edge 21, Type (0, 1), BuildingBlock: XIVTED_clean_linker_0, # of connection points: 2
#     Edge 22, Type (0, 1), BuildingBlock: XIVTED_clean_linker_0, # of connection points: 2
#     Edge 23, Type (0, 1), BuildingBlock: XIVTED_clean_linker_0, # of connection points: 2
#     Edge 24, Type (0, 1), BuildingBlock: XIVTED_clean_linker_0, # of connection points: 2
#     Edge 25, Type (0, 1), BuildingBlock: XIVTED_clean_linker_0, # of connection points: 2
#     Edge 26, Type (0, 1), BuildingBlock: XIVTED_clean_linker_0, # of connection points: 2
#     Edge 27, Type (0, 1), BuildingBlock: XIVTED_clean_linker_0, # of connection points: 2
#     Edge 28, Type (0, 1), BuildingBlock: XIVTED_clean_linker_0, # of connection points: 2
#     Edge 29, Type (0, 1), BuildingBlock: XIVTED_clean_linker_0, # of connection points: 2
#     Edge 30, Type (0, 1), BuildingBlock: XIVTED_clean_linker_0, # of connection points: 2
#     Edge 31, Type (0, 1), BuildingBlock: XIVTED_clean_linker_0, # of connection points: 2
#     Edge 32, Type (0, 1), BuildingBlock: XIVTED_clean_linker_0, # of connection points: 2
#     Edge 33, Type (0, 1), BuildingBlock: XIVTED_clean_linker_0, # of connection points: 2
#     Edge 34, Type (0, 1), BuildingBlock: XIVTED_clean_linker_0, # of connection points: 2
#     Edge 35, Type (0, 1), BuildingBlock: XIVTED_clean_linker_0, # of connection points: 2
# Relax obj value: 0.014
# Max RMSD: 0.030
# Mean RMSD: 0.028
data_MOF--net-ssa--node1-NAWXER_clean_sbu_0--node2-NAWXER_clean_linker_0--edge1-XIVTED_clean_linker_0
_symmetry_space_group_name_H-M    P1
_symmetry_Int_Tables_number       1
_symmetry_cell_setting            triclinic
loop_
_symmetry_equiv_pos_as_xyz
'x, y, z'
_cell_length_a     57.585091
_cell_length_b     57.496614
_cell_length_c     39.825538
_cell_angle_alpha  89.924488
_cell_angle_beta   90.003564
_cell_angle_gamma 119.9784
loop_
_atom_site_label
_atom_site_type_symbol
_atom_site_fract_x
_atom_site_fract_y
_atom_site_fract_z
_atom_type_partial_charge
C0 C 0.027 0.52452 0.00237 0.0
C1 C 0.98287 0.44122 0.93866 0.0
O2 O 0.00465 0.50682 0.01519 0.0
Zn3 Zn 0.97316 0.46695 0.00522 0.0
O4 O 0.03526 0.51931 0.97535 0.0
Zn5 Zn 0.00535 0.48323 0.96968 0.0
O6 O 0.97317 0.49039 0.95867 0.0
O7 O 0.94259 0.47213 0.99848 0.0
O8 O 0.0048 0.46233 0.93154 0.0
O9 O 0.96972 0.44064 0.96497 0.0
O10 O 0.97499 0.44827 0.0448 0.0
O11 O 0.01018 0.46241 0.01145 0.0
C12 C 0.95066 0.4854 0.97125 0.0
C13 C 0.99756 0.45031 0.03826 0.0
C14 C 0.44941 0.9987 0.54291 0.0
C15 C 0.48193 0.94873 0.47776 0.0
O16 O 0.4468 0.97594 0.54996 0.0
Zn17 Zn 0.46504 0.97302 0.51077 0.0
O18 O 0.4615 0.01078 0.51582 0.0
Zn19 Zn 0.48153 0.00444 0.47434 0.0
O20 O 0.46075 0.00376 0.43605 0.0
O21 O 0.4388 0.96916 0.47017 0.0
O22 O 0.48746 0.9712 0.46434 0.0
O23 O 0.4691 0.94168 0.50535 0.0
O24 O 0.50528 0.00417 0.51998 0.0
O25 O 0.51785 0.03392 0.47899 0.0
C26 C 0.43955 0.98199 0.44341 0.0
C27 C 0.5231 0.02611 0.50636 0.0
C28 C 0.48234 0.45372 0.99781 0.0
C29 C 0.52194 0.53666 0.06297 0.0
O30 O 0.47865 0.47196 0.9846 0.0
Zn31 Zn 0.48777 0.51211 0.99523 0.0
O32 O 0.4944 0.45813 0.02584 0.0
Zn33 Zn 0.50103 0.49429 0.0323 0.0
O34 O 0.46199 0.48858 0.04067 0.0
O35 O 0.45302 0.50939 0.00049 0.0
O36 O 0.52077 0.51476 0.07143 0.0
O37 O 0.51047 0.53774 0.03589 0.0
O38 O 0.51032 0.53133 0.95719 0.0
O39 O 0.52882 0.51573 0.99272 0.0
C40 C 0.44603 0.49533 0.02715 0.0
C41 C 0.53021 0.52882 0.96599 0.0
C42 C 0.00315 0.56137 0.44646 0.0
C43 C 0.95124 0.48072 0.51478 0.0
O44 O 0.01498 0.56134 0.47375 0.0
Zn45 Zn 0.00799 0.53566 0.5162 0.0
O46 O 0.98017 0.54152 0.43972 0.0
Zn47 Zn 0.97643 0.52086 0.47999 0.0
O48 O 0.97404 0.54515 0.51929 0.0
O49 O 0.00838 0.55713 0.55355 0.0
O50 O 0.94429 0.48623 0.48692 0.0
O51 O 0.974 0.49741 0.52759 0.0
O52 O 0.03638 0.52718 0.51229 0.0
O53 O 0.00607 0.50942 0.47211 0.0
C54 C 0.98722 0.55757 0.54565 0.0
C55 C 0.0277 0.51295 0.48592 0.0
C56 C 0.55506 0.98407 0.05055 0.0
C57 C 0.51763 0.02921 0.9851 0.0
O58 O 0.55529 0.00569 0.05783 0.0
Zn59 Zn 0.53672 0.00727 0.01815 0.0
O60 O 0.54386 0.97165 0.02332 0.0
Zn61 Zn 0.52252 0.97583 0.98191 0.0
O62 O 0.5444 0.97871 0.94346 0.0
O63 O 0.56394 0.01346 0.97769 0.0
O64 O 0.51352 0.00717 0.97179 0.0
O65 O 0.53066 0.03717 0.01246 0.0
O66 O 0.49668 0.97501 0.02607 0.0
O67 O 0.48709 0.94449 0.98676 0.0
C68 C 0.56446 0.00138 0.95086 0.0
C69 C 0.48015 0.95245 0.01265 0.0
C70 C 0.53289 0.5164 0.55988 0.0
C71 C 0.45009 0.48771 0.4975 0.0
O72 O 0.515 0.52266 0.56582 0.0
Zn73 Zn 0.49115 0.50184 0.52995 0.0
O74 O 0.52989 0.50072 0.53528 0.0
Zn75 Zn 0.50106 0.47932 0.49622 0.0
O76 O 0.52091 0.4957 0.45528 0.0
O77 O 0.51427 0.52332 0.48715 0.0
O78 O 0.46397 0.47774 0.48587 0.0
O79 O 0.45832 0.5028 0.52317 0.0
O80 O 0.4783 0.46133 0.54541 0.0
O81 O 0.49029 0.44244 0.50599 0.0
C82 C 0.52413 0.51891 0.46074 0.0
C83 C 0.47928 0.44092 0.5342 0.0
C84 C 0.29714 0.48069 0.1979 0.0
C85 C 0.29185 0.46026 0.17465 0.0
C86 C 0.27814 0.47708 0.22222 0.0
C87 C 0.2535 0.45297 0.22372 0.0
C88 C 0.26721 0.43612 0.17626 0.0
C89 C 0.24809 0.43263 0.20037 0.0
C90 C 0.23253 0.4499 0.24761 0.0
C91 C 0.29623 0.45004 0.31457 0.0
C92 C 0.30526 0.46857 0.34127 0.0
C93 C 0.27483 0.44649 0.29434 0.0
C94 C 0.26239 0.46185 0.29988 0.0
C95 C 0.29307 0.48425 0.34623 0.0
C96 C 0.27199 0.48097 0.32576 0.0
C97 C 0.23741 0.45607 0.28214 0.0
C98 C 0.13045 0.43407 0.33654 0.0
C99 C 0.13981 0.45709 0.35676 0.0
C100 C 0.14773 0.43156 0.31404 0.0
C101 C 0.17452 0.4522 0.31115 0.0
C102 C 0.16676 0.47744 0.35411 0.0
C103 C 0.18392 0.47495 0.33167 0.0
C104 C 0.19353 0.45019 0.28813 0.0
C105 C 0.13148 0.45222 0.22091 0.0
C106 C 0.11838 0.43014 0.19915 0.0
C107 C 0.1539 0.4563 0.23924 0.0
C108 C 0.16339 0.43811 0.23667 0.0
C109 C 0.1278 0.41185 0.19683 0.0
C110 C 0.15014 0.41588 0.2153 0.0
C111 C 0.18833 0.44327 0.25386 0.0
H112 H 0.31603 0.49943 0.19738 0.0
H113 H 0.2825 0.49333 0.23944 0.0
H114 H 0.26253 0.42014 0.15846 0.0
H115 H 0.22904 0.41405 0.20079 0.0
H116 H 0.30533 0.43784 0.30964 0.0
H117 H 0.26742 0.431 0.27532 0.0
H118 H 0.29902 0.49838 0.36679 0.0
H119 H 0.26263 0.49291 0.33085 0.0
H120 H 0.10987 0.41791 0.33833 0.0
H121 H 0.14023 0.41348 0.29912 0.0
H122 H 0.1745 0.49562 0.36887 0.0
H123 H 0.20456 0.49106 0.32998 0.0
H124 H 0.12511 0.46699 0.22271 0.0
H125 H 0.16429 0.47413 0.25463 0.0
H126 H 0.11806 0.39457 0.18043 0.0
H127 H 0.15726 0.40172 0.21267 0.0
N128 N 0.20807 0.4434 0.23495 0.0
N129 N 0.21774 0.45615 0.30079 0.0
C130 C 0.87516 0.28218 0.75722 0.0
C131 C 0.87014 0.28804 0.78977 0.0
C132 C 0.85413 0.26311 0.7375 0.0
C133 C 0.8277 0.25003 0.74982 0.0
C134 C 0.84375 0.27457 0.80213 0.0
C135 C 0.82282 0.25573 0.78242 0.0
C136 C 0.80492 0.22979 0.72972 0.0
C137 C 0.8358 0.30729 0.67342 0.0
C138 C 0.84491 0.30731 0.64067 0.0
C139 C 0.82162 0.28333 0.69135 0.0
C140 C 0.8167 0.25891 0.67721 0.0
C141 C 0.83942 0.28278 0.6262 0.0
C142 C 0.82536 0.25879 0.64429 0.0
C143 C 0.80067 0.23331 0.69559 0.0
C144 C 0.68832 0.14645 0.66995 0.0
C145 C 0.69111 0.13804 0.63783 0.0
C146 C 0.71091 0.16324 0.68899 0.0
C147 C 0.73669 0.17141 0.67658 0.0
C148 C 0.71692 0.14663 0.62518 0.0
C149 C 0.73952 0.16322 0.6444 0.0
C150 C 0.76079 0.19034 0.69564 0.0
C151 C 0.7162 0.11629 0.76106 0.0
C152 C 0.709 0.12168 0.79266 0.0
C153 C 0.73441 0.13736 0.74047 0.0
C154 C 0.74533 0.16418 0.75092 0.0
C155 C 0.72025 0.14852 0.80306 0.0
C156 C 0.73824 0.16945 0.78253 0.0
C157 C 0.76463 0.18715 0.73003 0.0
H158 H 0.89535 0.29206 0.7472 0.0
H159 H 0.85855 0.25852 0.71277 0.0
H160 H 0.83915 0.27894 0.82689 0.0
H161 H 0.80265 0.24589 0.79255 0.0
H162 H 0.83919 0.32577 0.68498 0.0
H163 H 0.81416 0.28389 0.71612 0.0
H164 H 0.84627 0.28217 0.60106 0.0
H165 H 0.82137 0.24013 0.63264 0.0
H166 H 0.66866 0.14056 0.68002 0.0
H167 H 0.7082 0.17021 0.71313 0.0
H168 H 0.71961 0.14038 0.60054 0.0
H169 H 0.75925 0.16969 0.63413 0.0
H170 H 0.70808 0.0958 0.7525 0.0
H171 H 0.74005 0.13268 0.71656 0.0
H172 H 0.71482 0.15345 0.82697 0.0
H173 H 0.74636 0.18992 0.79122 0.0
N174 N 0.78659 0.20699 0.74555 0.0
N175 N 0.779 0.21325 0.67981 0.0
C176 C 0.60606 0.71237 0.22539 0.0
C177 C 0.59197 0.70453 0.19486 0.0
C178 C 0.6057 0.73239 0.245 0.0
C179 C 0.5905 0.74416 0.23485 0.0
C180 C 0.5785 0.71781 0.18369 0.0
C181 C 0.5778 0.73742 0.20346 0.0
C182 C 0.58592 0.76206 0.25723 0.0
C183 C 0.55324 0.68184 0.30461 0.0
C184 C 0.56612 0.68231 0.33486 0.0
C185 C 0.55575 0.70543 0.29122 0.0
C186 C 0.57215 0.73022 0.30693 0.0
C187 C 0.5811 0.70704 0.35163 0.0
C188 C 0.58414 0.73075 0.33773 0.0
C189 C 0.57728 0.75559 0.29092 0.0
C190 C 0.5342 0.82906 0.31982 0.0
C191 C 0.54386 0.83801 0.35242 0.0
C192 C 0.54354 0.81485 0.30121 0.0
C193 C 0.56314 0.80974 0.31453 0.0
C194 C 0.56269 0.83196 0.36626 0.0
C195 C 0.57219 0.81787 0.34748 0.0
C196 C 0.57323 0.79486 0.29472 0.0
C197 C 0.59792 0.8721 0.23776 0.0
C198 C 0.58769 0.86802 0.20489 0.0
C199 C 0.59618 0.85058 0.25639 0.0
C200 C 0.58371 0.82459 0.24262 0.0
C201 C 0.57534 0.84202 0.1913 0.0
C202 C 0.57346 0.82062 0.20988 0.0
C203 C 0.58195 0.80134 0.26103 0.0
H204 H 0.61691 0.7027 0.23434 0.0
H205 H 0.61636 0.73785 0.26868 0.0
H206 H 0.56729 0.71209 0.1604 0.0
H207 H 0.56612 0.74634 0.19494 0.0
H208 H 0.54166 0.66339 0.29071 0.0
H209 H 0.54554 0.70439 0.26795 0.0
H210 H 0.59056 0.7082 0.37553 0.0
H211 H 0.59639 0.7496 0.35064 0.0
H212 H 0.51923 0.83286 0.30876 0.0
H213 H 0.53538 0.80781 0.27638 0.0
H214 H 0.57052 0.83864 0.3913 0.0
H215 H 0.58696 0.81373 0.35846 0.0
H216 H 0.60771 0.89197 0.24877 0.0
H217 H 0.60485 0.85431 0.2813 0.0
H218 H 0.56683 0.83811 0.16628 0.0
H219 H 0.56374 0.80081 0.19867 0.0
N220 N 0.58776 0.78457 0.24368 0.0
N221 N 0.57154 0.77238 0.30849 0.0
C222 C 0.88276 0.61375 0.72702 0.0
C223 C 0.87793 0.60188 0.69506 0.0
C224 C 0.86157 0.61214 0.74609 0.0
C225 C 0.83517 0.59814 0.73374 0.0
C226 C 0.85158 0.58826 0.68268 0.0
C227 C 0.83049 0.58647 0.70174 0.0
C228 C 0.81218 0.5959 0.75315 0.0
C229 C 0.84254 0.55088 0.81283 0.0
C230 C 0.8517 0.56061 0.84533 0.0
C231 C 0.82865 0.56053 0.79416 0.0
C232 C 0.82411 0.58061 0.80721 0.0
C233 C 0.84649 0.58013 0.85886 0.0
C234 C 0.83275 0.59001 0.83995 0.0
C235 C 0.80824 0.58985 0.78784 0.0
C236 C 0.69571 0.56321 0.81305 0.0
C237 C 0.69825 0.58143 0.83826 0.0
C238 C 0.71836 0.56618 0.79638 0.0
C239 C 0.74386 0.5877 0.80422 0.0
C240 C 0.72393 0.60259 0.84655 0.0
C241 C 0.74656 0.60562 0.82974 0.0
C242 C 0.76775 0.59165 0.78583 0.0
C243 C 0.71114 0.60042 0.71747 0.0
C244 C 0.70329 0.58235 0.69037 0.0
C245 C 0.73412 0.60649 0.73612 0.0
C246 C 0.74915 0.59398 0.72854 0.0
C247 C 0.71993 0.57205 0.681 0.0
C248 C 0.74247 0.57768 0.69993 0.0
C249 C 0.77073 0.59587 0.75076 0.0
H250 H 0.90293 0.62456 0.73704 0.0
H251 H 0.86584 0.62193 0.77033 0.0
H252 H 0.84713 0.5785 0.65839 0.0
H253 H 0.81036 0.57556 0.6916 0.0
H254 H 0.84567 0.53537 0.80205 0.0
H255 H 0.82108 0.55192 0.76966 0.0
H256 H 0.85331 0.58798 0.88385 0.0
H257 H 0.82896 0.60505 0.85083 0.0
H258 H 0.67627 0.5464 0.80661 0.0
H259 H 0.71598 0.55184 0.77715 0.0
H260 H 0.7265 0.61698 0.86579 0.0
H261 H 0.76613 0.62223 0.83622 0.0
H262 H 0.69897 0.60896 0.7252 0.0
H263 H 0.73946 0.62006 0.75723 0.0
H264 H 0.71513 0.5589 0.65951 0.0
H265 H 0.75398 0.5682 0.693 0.0
N266 N 0.79301 0.59815 0.736 0.0
N267 N 0.78652 0.58867 0.80301 0.0
C268 C 0.14815 0.68972 0.16428 0.0
C269 C 0.1393 0.69306 0.13272 0.0
C270 C 0.16473 0.71198 0.18393 0.0
C271 C 0.17223 0.73798 0.17276 0.0
C272 C 0.14716 0.71909 0.12129 0.0
C273 C 0.16353 0.74136 0.14116 0.0
C274 C 0.1913 0.76178 0.19223 0.0
C275 C 0.11887 0.71534 0.25931 0.0
C276 C 0.12478 0.70759 0.29022 0.0
C277 C 0.13957 0.73393 0.23861 0.0
C278 C 0.16653 0.74464 0.2482 0.0
C279 C 0.15175 0.71859 0.29977 0.0
C280 C 0.17231 0.73691 0.27909 0.0
C281 C 0.18909 0.76446 0.22721 0.0
C282 C 0.28469 0.87387 0.25712 0.0
C283 C 0.29094 0.86766 0.2888 0.0
C284 C 0.26563 0.85352 0.23661 0.0
C285 C 0.25288 0.82659 0.24726 0.0
C286 C 0.27813 0.84073 0.29929 0.0
C287 C 0.25928 0.82046 0.27881 0.0
C288 C 0.23181 0.80467 0.22692 0.0
C289 C 0.30601 0.83341 0.16319 0.0
C290 C 0.3056 0.84664 0.13371 0.0
C291 C 0.28292 0.81953 0.18275 0.0
C292 C 0.25898 0.81849 0.17304 0.0
C293 C 0.2817 0.84584 0.12421 0.0
C294 C 0.25846 0.83154 0.14351 0.0
C295 C 0.23405 0.80183 0.19208 0.0
H296 H 0.14282 0.6699 0.17338 0.0
H297 H 0.17215 0.70887 0.20752 0.0
H298 H 0.14056 0.72219 0.09708 0.0
H299 H 0.16949 0.76128 0.13179 0.0
H300 H 0.09827 0.70741 0.25145 0.0
H301 H 0.13449 0.74006 0.21532 0.0
H302 H 0.15702 0.71275 0.32316 0.0
H303 H 0.19288 0.74484 0.28713 0.0
H304 H 0.29405 0.8945 0.24855 0.0
H305 H 0.2605 0.85892 0.21282 0.0
H306 H 0.28285 0.83524 0.32331 0.0
H307 H 0.24972 0.79988 0.28763 0.0
H308 H 0.32422 0.83386 0.17113 0.0
H309 H 0.28359 0.80912 0.2051 0.0
H310 H 0.28087 0.85575 0.10147 0.0
H311 H 0.24007 0.83063 0.13539 0.0
N312 N 0.21362 0.78065 0.17607 0.0
N313 N 0.20948 0.78583 0.24303 0.0
C314 C 0.43328 0.12805 0.83616 0.0
C315 C 0.45691 0.1386 0.85539 0.0
C316 C 0.42818 0.14491 0.81592 0.0
C317 C 0.44678 0.17251 0.81432 0.0
C318 C 0.47524 0.1663 0.85398 0.0
C319 C 0.47015 0.18306 0.83381 0.0
C320 C 0.44193 0.19103 0.79373 0.0
C321 C 0.4494 0.13515 0.72108 0.0
C322 C 0.42727 0.1212 0.69965 0.0
C323 C 0.45192 0.15644 0.74068 0.0
C324 C 0.43205 0.16382 0.73982 0.0
C325 C 0.40753 0.12877 0.69859 0.0
C326 C 0.40995 0.1499 0.71844 0.0
C327 C 0.43492 0.18702 0.75937 0.0
C328 C 0.45766 0.29677 0.7175 0.0
C329 C 0.43869 0.28974 0.69171 0.0
C330 C 0.45668 0.27723 0.73921 0.0
C331 C 0.4362 0.25031 0.73625 0.0
C332 C 0.41851 0.26277 0.68826 0.0
C333 C 0.41726 0.24324 0.71037 0.0
C334 C 0.436 0.22915 0.75784 0.0
C335 C 0.42795 0.28424 0.8322 0.0
C336 C 0.44927 0.29669 0.8552 0.0
C337 C 0.42573 0.26374 0.81118 0.0
C338 C 0.44491 0.2555 0.8126 0.0
C339 C 0.46849 0.28846 0.85631 0.0
C340 C 0.46624 0.26799 0.8354 0.0
C341 C 0.44201 0.23255 0.79253 0.0
H342 H 0.41859 0.10684 0.83707 0.0
H343 H 0.40967 0.13643 0.80176 0.0
H344 H 0.49381 0.17502 0.86803 0.0
H345 H 0.48471 0.20433 0.83307 0.0
H346 H 0.46523 0.1302 0.72187 0.0
H347 H 0.46971 0.16748 0.75594 0.0
H348 H 0.39023 0.11836 0.68238 0.0
H349 H 0.39452 0.15542 0.71706 0.0
H350 H 0.47381 0.31731 0.72023 0.0
H351 H 0.47242 0.28317 0.75769 0.0
H352 H 0.40367 0.25683 0.66853 0.0
H353 H 0.40156 0.22256 0.70714 0.0
H354 H 0.4126 0.28986 0.83101 0.0
H355 H 0.40871 0.25394 0.79441 0.0
H356 H 0.48542 0.29791 0.87327 0.0
H357 H 0.48123 0.2619 0.83703 0.0
N358 N 0.44504 0.21353 0.80886 0.0
N359 N 0.43228 0.20629 0.74279 0.0
H360 H 0.03586 0.4373 0.02431 0.0
H361 H 0.0762 0.43778 0.21525 0.0
H362 H 0.98932 0.44187 0.10628 0.0
H363 H 0.1106 0.41671 0.13264 0.0
H364 H 0.04288 0.43753 0.17671 0.0
H365 H 0.06181 0.42741 0.06422 0.0
C366 C 0.03092 0.43593 0.05076 0.0
C367 C 0.01054 0.44061 0.06204 0.0
C368 C 0.05751 0.43262 0.16715 0.0
C369 C 0.04052 0.42967 0.10809 0.0
C370 C 0.07662 0.43292 0.18907 0.0
C371 C 0.09632 0.42741 0.17712 0.0
C372 C 0.05831 0.42709 0.13296 0.0
C373 C 0.0957 0.42088 0.14306 0.0
C374 C 0.04574 0.43025 0.07357 0.0
C375 C 0.00487 0.43838 0.09655 0.0
N376 N 0.07722 0.42119 0.12217 0.0
N377 N 0.02007 0.43345 0.11847 0.0
H378 H 0.56717 0.07311 0.48522 0.0
H379 H 0.64535 0.09336 0.65829 0.0
H380 H 0.53816 0.01596 0.56691 0.0
H381 H 0.68226 0.14324 0.57134 0.0
H382 H 0.60518 0.06567 0.62515 0.0
H383 H 0.60912 0.10002 0.51619 0.0
C384 C 0.56964 0.06617 0.50954 0.0
C385 C 0.54909 0.0423 0.52353 0.0
C386 C 0.62208 0.08259 0.61321 0.0
C387 C 0.59679 0.07294 0.55902 0.0
C388 C 0.64494 0.09847 0.63218 0.0
C389 C 0.66707 0.12062 0.61753 0.0
C390 C 0.62122 0.08903 0.57935 0.0
C391 C 0.66565 0.12618 0.58349 0.0
C392 C 0.59357 0.0815 0.52716 0.0
C393 C 0.55338 0.03424 0.55511 0.0
N394 N 0.64301 0.11056 0.56555 0.0
N395 N 0.57665 0.04957 0.57181 0.0
H396 H 0.53843 0.5418 0.129 0.0
H397 H 0.59681 0.70082 0.12715 0.0
H398 H 0.53992 0.58788 0.04254 0.0
H399 H 0.58047 0.65518 0.21883 0.0
H400 H 0.58444 0.66017 0.09504 0.0
H401 H 0.56132 0.58366 0.16166 0.0
C402 C 0.54373 0.56068 0.11686 0.0
C403 C 0.53695 0.56134 0.08316 0.0
C404 C 0.58381 0.65903 0.1222 0.0
C405 C 0.56326 0.60903 0.12001 0.0
C406 C 0.59091 0.68225 0.14051 0.0
C407 C 0.58931 0.68127 0.17564 0.0
C408 C 0.57487 0.63454 0.13908 0.0
C409 C 0.58199 0.65678 0.19173 0.0
C410 C 0.55675 0.5845 0.13546 0.0
C411 C 0.54436 0.58634 0.06859 0.0
N412 N 0.57467 0.63425 0.1733 0.0
N413 N 0.55702 0.60909 0.08709 0.0
H414 H 0.95313 0.5752 0.52774 0.0
H415 H 0.91875 0.59346 0.71534 0.0
H416 H 0.99714 0.57031 0.61256 0.0
H417 H 0.88697 0.61246 0.62805 0.0
H418 H 0.95061 0.5888 0.67908 0.0
H419 H 0.93147 0.59243 0.5645 0.0
C420 C 0.9584 0.57799 0.55413 0.0
C421 C 0.97672 0.57105 0.56722 0.0
C422 C 0.93691 0.59437 0.66796 0.0
C423 C 0.95171 0.59051 0.60968 0.0
C424 C 0.91882 0.59713 0.68864 0.0
C425 C 0.89991 0.6029 0.67456 0.0
C426 C 0.93594 0.5973 0.63303 0.0
C427 C 0.90078 0.60736 0.63984 0.0
C428 C 0.94607 0.58791 0.57514 0.0
C429 C 0.98304 0.57536 0.60152 0.0
N430 N 0.91824 0.60416 0.62026 0.0
N431 N 0.97022 0.58444 0.62173 0.0
H432 H 0.45309 0.97081 0.04971 0.0
H433 H 0.33821 0.82827 0.11059 0.0
H434 H 0.44587 0.89786 0.0094 0.0
H435 H 0.32855 0.89796 0.10983 0.0
H436 H 0.37971 0.85338 0.07796 0.0
H437 H 0.40938 0.94452 0.07653 0.0
C438 C 0.44226 0.94921 0.04648 0.0
C439 C 0.45314 0.93645 0.02741 0.0
C440 C 0.36837 0.86307 0.08474 0.0
C441 C 0.4032 0.90624 0.05836 0.0
C442 C 0.34486 0.84886 0.10349 0.0
C443 C 0.33008 0.86116 0.11294 0.0
C444 C 0.37738 0.8899 0.07602 0.0
C445 C 0.33934 0.88776 0.1029 0.0
C446 C 0.41726 0.93426 0.06165 0.0
C447 C 0.43814 0.90845 0.02384 0.0
N448 N 0.36258 0.90135 0.08529 0.0
N449 N 0.414 0.89418 0.03955 0.0
H450 H 0.47481 0.39233 0.51801 0.0
H451 H 0.44556 0.33909 0.70658 0.0
H452 H 0.46116 0.4341 0.5988 0.0
H453 H 0.43674 0.2877 0.62298 0.0
H454 H 0.45224 0.37453 0.66715 0.0
H455 H 0.4616 0.35389 0.55553 0.0
C456 C 0.46884 0.39335 0.54351 0.0
C457 C 0.46924 0.41655 0.55531 0.0
C458 C 0.44862 0.35543 0.65737 0.0
C459 C 0.45437 0.37281 0.59835 0.0
C460 C 0.44492 0.33527 0.67987 0.0
C461 C 0.44069 0.31051 0.66797 0.0
C462 C 0.44848 0.35098 0.62267 0.0
C463 C 0.4398 0.30648 0.63313 0.0
C464 C 0.46127 0.3714 0.56488 0.0
C465 C 0.46124 0.41671 0.58858 0.0
N466 N 0.44395 0.32663 0.61165 0.0
N467 N 0.45439 0.39531 0.60897 0.0
H468 H 0.47981 0.9024 0.5008 0.0
H469 H 0.53798 0.8794 0.32915 0.0
H470 H 0.50371 0.95576 0.41533 0.0
H471 H 0.52895 0.83343 0.41885 0.0
H472 H 0.52239 0.90557 0.36001 0.0
H473 H 0.49485 0.87491 0.47094 0.0
C474 C 0.48816 0.90832 0.47582 0.0
C475 C 0.49052 0.93145 0.46059 0.0
C476 C 0.52381 0.88979 0.37305 0.0
C477 C 0.50763 0.90014 0.42637 0.0
C478 C 0.53256 0.87473 0.35535 0.0
C479 C 0.53467 0.85414 0.37141 0.0
C480 C 0.51693 0.88423 0.40713 0.0
C481 C 0.5278 0.84927 0.40558 0.0
C482 C 0.49679 0.89267 0.45884 0.0
C483 C 0.50154 0.93818 0.42818 0.0
N484 N 0.51913 0.86415 0.42231 0.0
N485 N 0.50959 0.9226 0.41221 0.0
H486 H 0.5378 0.54329 0.89912 0.0
H487 H 0.69312 0.58592 0.90572 0.0
H488 H 0.5796 0.54161 0.98824 0.0
H489 H 0.64887 0.56846 0.81285 0.0
H490 H 0.65295 0.57738 0.93629 0.0
H491 H 0.57969 0.55978 0.86702 0.0
C492 C 0.55581 0.54665 0.91194 0.0
C493 C 0.55522 0.54082 0.94625 0.0
C494 C 0.65201 0.57552 0.9092 0.0
C495 C 0.60286 0.55968 0.91004 0.0
C496 C 0.67501 0.58058 0.89171 0.0
C497 C 0.67429 0.57774 0.85672 0.0
C498 C 0.62806 0.56758 0.89162 0.0
C499 C 0.65014 0.57046 0.83991 0.0
C500 C 0.5796 0.55592 0.89365 0.0
C501 C 0.57906 0.54549 0.96172 0.0
N502 N 0.62791 0.56552 0.85755 0.0
N503 N 0.60183 0.55458 0.94352 0.0
H504 H 0.99279 0.56395 0.37935 0.0
H505 H 0.12117 0.71075 0.35821 0.0
H506 H 0.0455 0.61081 0.45997 0.0
H507 H 0.07933 0.66018 0.27369 0.0
H508 H 0.08864 0.67663 0.39591 0.0
H509 H 0.01948 0.60118 0.34044 0.0
C510 C 0.00975 0.58214 0.38893 0.0
C511 C 0.01708 0.58419 0.42289 0.0
C512 C 0.08642 0.67297 0.36912 0.0
C513 C 0.04752 0.62669 0.37872 0.0
C514 C 0.10506 0.69244 0.34757 0.0
C515 C 0.10323 0.68813 0.31277 0.0
C516 C 0.06569 0.64884 0.35592 0.0
C517 C 0.0815 0.6643 0.30037 0.0
C518 C 0.025 0.6033 0.36672 0.0
C519 C 0.03925 0.60819 0.43395 0.0
N520 N 0.0637 0.64539 0.32196 0.0
N521 N 0.05368 0.62839 0.41195 0.0
H522 H 0.52236 0.07733 0.00449 0.0
H523 H 0.4488 0.08868 0.83982 0.0
H524 H 0.48888 0.01689 0.92698 0.0
H525 H 0.47893 0.14823 0.91849 0.0
H526 H 0.46159 0.06117 0.87301 0.0
H527 H 0.50539 0.10306 0.97462 0.0
C528 C 0.51141 0.06944 0.98128 0.0
C529 C 0.50716 0.04498 0.96816 0.0
C530 C 0.46531 0.0802 0.88311 0.0
C531 C 0.4877 0.07425 0.93391 0.0
C532 C 0.45782 0.09584 0.86425 0.0
C533 C 0.46293 0.12088 0.87628 0.0
C534 C 0.47807 0.08966 0.91425 0.0
C535 C 0.47504 0.12927 0.90796 0.0
C536 C 0.5017 0.08412 0.96426 0.0
C537 C 0.49276 0.03569 0.93802 0.0
N538 N 0.48231 0.11376 0.92577 0.0
N539 N 0.48365 0.05036 0.92191 0.0
H540 H 0.42674 0.51919 0.49664 0.0
H541 H 0.31381 0.42821 0.36387 0.0
H542 H 0.41918 0.44635 0.45539 0.0
H543 H 0.34446 0.51353 0.37354 0.0
H544 H 0.34733 0.43178 0.4042 0.0
H545 H 0.39044 0.5141 0.45952 0.0
C546 C 0.41714 0.50192 0.48021 0.0
C547 C 0.426 0.48321 0.47896 0.0
C548 C 0.34666 0.44969 0.39743 0.0
C549 C 0.38473 0.47734 0.43659 0.0
C550 C 0.32769 0.44776 0.37411 0.0
C551 C 0.32624 0.47063 0.36499 0.0
C552 C 0.36412 0.47457 0.41218 0.0
C553 C 0.34443 0.49524 0.38005 0.0
C554 C 0.39665 0.49916 0.45886 0.0
C555 C 0.41305 0.46132 0.45699 0.0
N556 N 0.36252 0.49653 0.40297 0.0
N557 N 0.39307 0.45898 0.43667 0.0
H558 H 0.99412 0.4388 0.8721 0.0
H559 H 0.87895 0.28492 0.85657 0.0
H560 H 0.94581 0.38982 0.95466 0.0
H561 H 0.91097 0.33785 0.77106 0.0
H562 H 0.91088 0.32099 0.89268 0.0
H563 H 0.971 0.39979 0.83477 0.0
C564 C 0.97895 0.41977 0.88244 0.0
C565 C 0.97162 0.41757 0.9164 0.0
C566 C 0.91111 0.32468 0.86598 0.0
C567 C 0.94534 0.37311 0.87411 0.0
C568 C 0.89284 0.30412 0.84537 0.0
C569 C 0.89197 0.30856 0.81087 0.0
C570 C 0.92868 0.34994 0.85206 0.0
C571 C 0.91092 0.3336 0.79756 0.0
C572 C 0.96573 0.3976 0.86114 0.0
C573 C 0.95184 0.3925 0.92854 0.0
N574 N 0.92833 0.35351 0.81827 0.0
N575 N 0.93933 0.37131 0.9074 0.0
H576 H 0.90576 0.48643 0.99355 0.0
H577 H 0.89198 0.5527 0.82309 0.0
H578 H 0.95968 0.5079 0.90907 0.0
H579 H 0.84536 0.54487 0.91156 0.0
H580 H 0.91522 0.53385 0.85407 0.0
H581 H 0.88139 0.50515 0.96373 0.0
C582 C 0.9124 0.49495 0.96876 0.0
C583 C 0.93482 0.49562 0.95382 0.0
C584 C 0.89996 0.53627 0.86684 0.0
C585 C 0.90715 0.517 0.91972 0.0
C586 C 0.8866 0.54694 0.84908 0.0
C587 C 0.86664 0.55026 0.86473 0.0
C588 C 0.89328 0.52866 0.90056 0.0
C589 C 0.86078 0.54281 0.89863 0.0
C590 C 0.89857 0.50572 0.95183 0.0
C591 C 0.9426 0.507 0.92169 0.0
N592 N 0.87395 0.53222 0.91542 0.0
N593 N 0.9288 0.51716 0.90579 0.0
H594 H 0.43765 0.99368 0.37687 0.0
H595 H 0.28688 0.87299 0.3563 0.0
H596 H 0.38842 0.94336 0.45803 0.0
H597 H 0.33997 0.91079 0.27223 0.0
H598 H 0.3215 0.90488 0.39396 0.0
H599 H 0.39966 0.96964 0.33843 0.0
C600 C 0.41876 0.97787 0.38668 0.0
C601 C 0.41625 0.97028 0.42059 0.0
C602 C 0.32556 0.90636 0.36726 0.0
C603 C 0.37291 0.94284 0.37694 0.0
C604 C 0.30584 0.88809 0.34576 0.0
C605 C 0.31075 0.88894 0.31116 0.0
C606 C 0.35048 0.92566 0.35416 0.0
C607 C 0.3354 0.9094 0.29877 0.0
C608 C 0.39716 0.9641 0.36473 0.0
C609 C 0.39136 0.94965 0.43199 0.0
N610 N 0.35451 0.92681 0.32033 0.0
N611 N 0.37073 0.93658 0.4102 0.0
H612 H 0.45573 0.43863 0.93802 0.0
H613 H 0.46433 0.30453 0.92148 0.0
H614 H 0.48996 0.41152 0.01451 0.0
H615 H 0.43928 0.33767 0.8413 0.0
H616 H 0.47002 0.34114 0.95794 0.0
H617 H 0.44527 0.39909 0.90477 0.0
C618 C 0.46091 0.42426 0.94799 0.0
C619 C 0.47393 0.42853 0.97908 0.0
C620 C 0.46319 0.34035 0.93241 0.0
C621 C 0.46205 0.38311 0.94085 0.0
C622 C 0.46009 0.31954 0.91148 0.0
C623 C 0.45153 0.31812 0.87811 0.0
C624 C 0.45765 0.3599 0.91997 0.0
C625 C 0.44573 0.3378 0.86686 0.0
C626 C 0.45495 0.40168 0.92889 0.0
C627 C 0.47999 0.4091 0.99066 0.0
N628 N 0.449 0.35792 0.88769 0.0
N629 N 0.47412 0.38729 0.97144 0.0
H630 H 0.01222 0.47908 0.43228 0.0
H631 H 0.14996 0.47765 0.42063 0.0
H632 H 0.07667 0.51918 0.50374 0.0
H633 H 0.08809 0.44485 0.34493 0.0
H634 H 0.12131 0.48812 0.45519 0.0
H635 H 0.03764 0.46151 0.40402 0.0
C636 C 0.03171 0.48413 0.44216 0.0
C637 C 0.04247 0.5009 0.47025 0.0
C638 C 0.11393 0.47844 0.43115 0.0
C639 C 0.07176 0.48078 0.43781 0.0
C640 C 0.13029 0.47254 0.41135 0.0
C641 C 0.12152 0.46064 0.37965 0.0
C642 C 0.08861 0.4724 0.41917 0.0
C643 C 0.09564 0.45391 0.36923 0.0
C644 C 0.04622 0.47404 0.42597 0.0
C645 C 0.0677 0.50648 0.48204 0.0
N646 N 0.0802 0.4601 0.38882 0.0
N647 N 0.0816 0.49659 0.46559 0.0
H648 H 0.61439 0.04228 0.96598 0.0
H649 H 0.66171 0.07635 0.7755 0.0
H650 H 0.56758 0.99178 0.88377 0.0
H651 H 0.7121 0.11701 0.86063 0.0
H652 H 0.62799 0.04336 0.81388 0.0
H653 H 0.65123 0.06818 0.92734 0.0
C654 C 0.61194 0.03649 0.93978 0.0
C655 C 0.58779 0.01495 0.92805 0.0
C656 C 0.64655 0.05936 0.82409 0.0
C657 C 0.62994 0.04483 0.88336 0.0
C658 C 0.66586 0.07813 0.80218 0.0
C659 C 0.68961 0.09973 0.8149 0.0
C660 C 0.65104 0.06228 0.85892 0.0
C661 C 0.69383 0.10108 0.84973 0.0
C662 C 0.63304 0.05129 0.91768 0.0
C663 C 0.58587 0.00825 0.89386 0.0
N664 N 0.67467 0.08282 0.87046 0.0
N665 N 0.60656 0.02337 0.87259 0.0
H666 H 0.51281 0.51778 0.39415 0.0
H667 H 0.60363 0.67635 0.37113 0.0
H668 H 0.56377 0.56972 0.47266 0.0
H669 H 0.52353 0.63046 0.33046 0.0
H670 H 0.59818 0.63535 0.39698 0.0
H671 H 0.52678 0.55739 0.35802 0.0
C672 C 0.52766 0.53742 0.40324 0.0
C673 C 0.53728 0.54072 0.4362 0.0
C674 C 0.58202 0.63438 0.382 0.0
C675 C 0.55311 0.58561 0.39553 0.0
C676 C 0.58491 0.6578 0.36755 0.0
C677 C 0.56385 0.65718 0.3489 0.0
C678 C 0.55816 0.61003 0.37725 0.0
C679 C 0.54048 0.63214 0.34425 0.0
C680 C 0.53537 0.55993 0.38286 0.0
C681 C 0.55602 0.56653 0.44727 0.0
N682 N 0.53825 0.60961 0.35841 0.0
N683 N 0.56329 0.58808 0.427 0.0
H684 H 0.43907 0.98961 0.61047 0.0
H685 H 0.41392 0.1137 0.6331 0.0
H686 H 0.43962 0.03939 0.52893 0.0
H687 H 0.43707 0.08029 0.71488 0.0
H688 H 0.4144 0.08049 0.59534 0.0
H689 H 0.42954 0.01673 0.64967 0.0
C690 C 0.43678 0.00595 0.60076 0.0
C691 C 0.44035 0.01241 0.56645 0.0
C692 C 0.4192 0.0803 0.6216 0.0
C693 C 0.42948 0.04337 0.61098 0.0
C694 C 0.41876 0.09914 0.64321 0.0
C695 C 0.4256 0.09985 0.67715 0.0
C696 C 0.42638 0.06188 0.634 0.0
C697 C 0.43201 0.08066 0.68878 0.0
C698 C 0.43151 0.02149 0.62314 0.0
C699 C 0.43728 0.03387 0.55523 0.0
N700 N 0.43231 0.06248 0.66722 0.0
N701 N 0.43211 0.0486 0.57742 0.0
H702 H 0.41854 0.45357 0.07006 0.0
H703 H 0.32093 0.50405 0.13429 0.0
H704 H 0.41517 0.51937 0.02274 0.0
H705 H 0.30879 0.4253 0.15666 0.0
H706 H 0.35602 0.51086 0.0941 0.0
H707 H 0.37863 0.44332 0.10249 0.0
C708 C 0.40924 0.46575 0.06631 0.0
C709 C 0.42025 0.48746 0.04384 0.0
C710 C 0.3455 0.49201 0.10758 0.0
C711 C 0.3747 0.47603 0.08125 0.0
C712 C 0.32564 0.48819 0.13067 0.0
C713 C 0.31209 0.46414 0.14896 0.0
C714 C 0.3521 0.47178 0.10314 0.0
C715 C 0.31868 0.44409 0.14299 0.0
C716 C 0.38641 0.45984 0.08478 0.0
C717 C 0.40728 0.50244 0.03979 0.0
N718 N 0.33841 0.44847 0.12085 0.0
N719 N 0.38534 0.49667 0.0587 0.0
H720 H 0.90555 0.43584 0.49206 0.0
H721 H 0.88501 0.35528 0.66415 0.0
H722 H 0.95754 0.46734 0.57833 0.0
H723 H 0.8396 0.3177 0.57453 0.0
H724 H 0.90957 0.39751 0.63357 0.0
H725 H 0.87882 0.3933 0.52237 0.0
C726 C 0.91126 0.43388 0.51737 0.0
C727 C 0.93387 0.45517 0.53262 0.0
C728 C 0.89425 0.38006 0.6205 0.0
C729 C 0.9035 0.40673 0.56731 0.0
C730 C 0.88012 0.35596 0.63804 0.0
C731 C 0.86019 0.33294 0.6219 0.0
C732 C 0.88842 0.38131 0.58651 0.0
C733 C 0.85499 0.33492 0.58784 0.0
C734 C 0.89608 0.40959 0.53458 0.0
C735 C 0.94039 0.45149 0.56543 0.0
N736 N 0.86898 0.35872 0.57127 0.0
N737 N 0.92531 0.42781 0.5816 0.0
H738 H 0.57208 0.94908 0.03494 0.0
H739 H 0.57765 0.90813 0.22407 0.0
H740 H 0.56336 0.99167 0.11865 0.0
H741 H 0.60189 0.87891 0.13898 0.0
H742 H 0.57522 0.94117 0.1873 0.0
H743 H 0.58568 0.92527 0.07353 0.0
C744 C 0.57326 0.95358 0.0615 0.0
C745 C 0.56636 0.97219 0.07366 0.0
C746 C 0.5814 0.92774 0.17682 0.0
C747 C 0.58163 0.94468 0.11825 0.0
C748 C 0.58288 0.90896 0.1978 0.0
C749 C 0.58952 0.89046 0.18441 0.0
C750 C 0.58654 0.92786 0.14229 0.0
C751 C 0.59604 0.89236 0.15019 0.0
C752 C 0.5811 0.94001 0.08357 0.0
C753 C 0.5685 0.97743 0.10829 0.0
N754 N 0.5941 0.91047 0.13031 0.0
N755 N 0.57558 0.96342 0.1295 0.0
H756 H 0.55441 0.55993 0.60249 0.0
H757 H 0.66871 0.53166 0.6681 0.0
H758 H 0.56655 0.4963 0.56529 0.0
H759 H 0.67776 0.6108 0.67388 0.0
H760 H 0.62693 0.51607 0.63782 0.0
H761 H 0.5956 0.57668 0.63605 0.0
C762 C 0.56564 0.54944 0.60151 0.0
C763 C 0.55711 0.52673 0.58104 0.0
C764 C 0.63808 0.53688 0.64561 0.0
C765 C 0.60377 0.54554 0.61935 0.0
C766 C 0.6621 0.54591 0.66273 0.0
C767 C 0.67721 0.57281 0.67299 0.0
C768 C 0.62868 0.55469 0.63892 0.0
C769 C 0.66685 0.58992 0.66644 0.0
C770 C 0.58913 0.55907 0.62049 0.0
C771 C 0.57244 0.51396 0.58055 0.0
N772 N 0.6432 0.58059 0.64971 0.0
N773 N 0.59491 0.52346 0.59951 0.0
H774 H 0.01583 0.53898 0.06259 0.0
H775 H 0.14458 0.68594 0.0657 0.0
H776 H 0.07437 0.56889 0.9826 0.0
H777 H 0.09528 0.64637 0.15214 0.0
H778 H 0.11673 0.64562 0.03216 0.0
H779 H 0.04238 0.58069 0.09289 0.0
C780 C 0.03427 0.55437 0.05128 0.0
C781 C 0.04294 0.55035 0.02 0.0
C782 C 0.11204 0.64583 0.05845 0.0
C783 C 0.07356 0.59837 0.05484 0.0
C784 C 0.12777 0.66883 0.0775 0.0
C785 C 0.12221 0.66938 0.11172 0.0
C786 C 0.09049 0.62341 0.07372 0.0
C787 C 0.10041 0.64664 0.12593 0.0
C788 C 0.04948 0.5782 0.06871 0.0
C789 C 0.06701 0.57111 0.0067 0.0
N790 N 0.08533 0.62461 0.10685 0.0
N791 N 0.08154 0.5943 0.02424 0.0
loop_
_geom_bond_atom_site_label_1
_geom_bond_atom_site_label_2
_geom_bond_distance
_geom_bond_site_symmetry_2
_ccdc_geom_bond_type
C0 O2 1.247 . S
C0 O4 1.258 . S
C1 O8 1.247 . S
C1 O9 1.258 . S
O2 C0 1.247 . S
O2 Zn3 2.028 1_455 S
Zn3 O2 2.028 1_655 S
Zn3 O7 2.035 1_554 S
Zn3 O9 2.035 1_554 S
Zn3 O10 2.028 1_655 S
O4 C0 1.258 . S
O4 Zn5 2.035 1_554 S
Zn5 O4 2.035 1_556 S
Zn5 O6 2.028 1_455 S
Zn5 O8 2.028 1_455 S
Zn5 O11 2.035 1_556 S
O6 Zn5 2.028 1_655 S
O6 C12 1.247 . S
O7 Zn3 2.035 1_556 S
O7 C12 1.258 . S
O8 C1 1.247 . S
O8 Zn5 2.028 1_655 S
O9 C1 1.258 . S
O9 Zn3 2.035 1_556 S
O10 Zn3 2.028 1_455 S
O10 C13 1.247 . S
O11 Zn5 2.035 1_554 S
O11 C13 1.258 . S
C12 O6 1.247 . S
C12 O7 1.258 . S
C13 O10 1.247 . S
C13 O11 1.258 . S
C14 O16 1.247 . S
C14 O18 1.258 . S
C15 O22 1.247 . S
C15 O23 1.258 . S
O16 C14 1.247 . S
O16 Zn17 2.028 1_545 S
Zn17 O16 2.028 1_565 S
Zn17 O21 2.035 . S
Zn17 O23 2.035 . S
Zn17 O24 2.028 1_565 S
O18 C14 1.258 . S
O18 Zn19 2.035 . S
Zn19 O18 2.035 . S
Zn19 O20 2.028 1_545 S
Zn19 O22 2.028 1_545 S
Zn19 O25 2.035 . S
O20 Zn19 2.028 1_565 S
O20 C26 1.247 . S
O21 Zn17 2.035 . S
O21 C26 1.258 . S
O22 C15 1.247 . S
O22 Zn19 2.028 1_565 S
O23 C15 1.258 . S
O23 Zn17 2.035 . S
O24 Zn17 2.028 1_545 S
O24 C27 1.247 . S
O25 Zn19 2.035 . S
O25 C27 1.258 . S
C26 O20 1.247 . S
C26 O21 1.258 . S
C27 O24 1.247 . S
C27 O25 1.258 . S
C28 O30 1.247 . S
C28 O32 1.258 . S
C29 O36 1.247 . S
C29 O37 1.258 . S
O30 C28 1.247 . S
O30 Zn31 2.028 . S
Zn31 O30 2.028 . S
Zn31 O35 2.035 1_556 S
Zn31 O37 2.035 1_556 S
Zn31 O38 2.028 . S
O32 C28 1.258 . S
O32 Zn33 2.035 1_556 S
Zn33 O32 2.035 1_554 S
Zn33 O34 2.028 . S
Zn33 O36 2.028 . S
Zn33 O39 2.035 1_554 S
O34 Zn33 2.028 . S
O34 C40 1.247 . S
O35 Zn31 2.035 1_554 S
O35 C40 1.258 . S
O36 C29 1.247 . S
O36 Zn33 2.028 . S
O37 C29 1.258 . S
O37 Zn31 2.035 1_554 S
O38 Zn31 2.028 . S
O38 C41 1.247 . S
O39 Zn33 2.035 1_556 S
O39 C41 1.258 . S
C40 O34 1.247 . S
C40 O35 1.258 . S
C41 O38 1.247 . S
C41 O39 1.258 . S
C42 O44 1.247 . S
C42 O46 1.258 . S
C43 O50 1.247 . S
C43 O51 1.258 . S
O44 C42 1.247 . S
O44 Zn45 2.028 . S
Zn45 O44 2.028 . S
Zn45 O49 2.035 1_455 S
Zn45 O51 2.035 1_455 S
Zn45 O52 2.028 . S
O46 C42 1.258 . S
O46 Zn47 2.035 1_455 S
Zn47 O46 2.035 1_655 S
Zn47 O48 2.028 . S
Zn47 O50 2.028 . S
Zn47 O53 2.035 1_655 S
O48 Zn47 2.028 . S
O48 C54 1.247 . S
O49 Zn45 2.035 1_655 S
O49 C54 1.258 . S
O50 C43 1.247 . S
O50 Zn47 2.028 . S
O51 C43 1.258 . S
O51 Zn45 2.035 1_655 S
O52 Zn45 2.028 . S
O52 C55 1.247 . S
O53 Zn47 2.035 1_455 S
O53 C55 1.258 . S
C54 O48 1.247 . S
C54 O49 1.258 . S
C55 O52 1.247 . S
C55 O53 1.258 . S
C56 O58 1.247 . S
C56 O60 1.258 . S
C57 O64 1.247 . S
C57 O65 1.258 . S
O58 C56 1.247 . S
O58 Zn59 2.028 1_565 S
Zn59 O58 2.028 1_545 S
Zn59 O63 2.035 1_554 S
Zn59 O65 2.035 1_554 S
Zn59 O66 2.028 1_545 S
O60 C56 1.258 . S
O60 Zn61 2.035 1_554 S
Zn61 O60 2.035 1_556 S
Zn61 O62 2.028 1_565 S
Zn61 O64 2.028 1_565 S
Zn61 O67 2.035 1_556 S
O62 Zn61 2.028 1_545 S
O62 C68 1.247 . S
O63 Zn59 2.035 1_556 S
O63 C68 1.258 . S
O64 C57 1.247 . S
O64 Zn61 2.028 1_545 S
O65 C57 1.258 . S
O65 Zn59 2.035 1_556 S
O66 Zn59 2.028 1_565 S
O66 C69 1.247 . S
O67 Zn61 2.035 1_554 S
O67 C69 1.258 . S
C68 O62 1.247 . S
C68 O63 1.258 . S
C69 O66 1.247 . S
C69 O67 1.258 . S
C70 O72 1.247 . S
C70 O74 1.258 . S
C71 O78 1.247 . S
C71 O79 1.258 . S
O72 C70 1.247 . S
O72 Zn73 2.028 . S
Zn73 O72 2.028 . S
Zn73 O77 2.035 . S
Zn73 O79 2.035 . S
Zn73 O80 2.028 . S
O74 C70 1.258 . S
O74 Zn75 2.035 . S
Zn75 O74 2.035 . S
Zn75 O76 2.028 . S
Zn75 O78 2.028 . S
Zn75 O81 2.035 . S
O76 Zn75 2.028 . S
O76 C82 1.247 . S
O77 Zn73 2.035 . S
O77 C82 1.258 . S
O78 C71 1.247 . S
O78 Zn75 2.028 . S
O79 C71 1.258 . S
O79 Zn73 2.035 . S
O80 Zn73 2.028 . S
O80 C83 1.247 . S
O81 Zn75 2.035 . S
O81 C83 1.258 . S
C82 O76 1.247 . S
C82 O77 1.258 . S
C83 O80 1.247 . S
C83 O81 1.258 . S
C84 C85 1.384 . S
C84 C86 1.384 . S
C84 H112 0.931 . S
C85 C84 1.384 . S
C85 C88 1.382 . S
C86 C84 1.384 . S
C86 C87 1.381 . S
C86 H113 0.930 . S
C87 C86 1.381 . S
C87 C89 1.381 . S
C87 C90 1.487 . S
C88 C85 1.382 . S
C88 C89 1.387 . S
C88 H114 0.930 . S
C89 C87 1.381 . S
C89 C88 1.387 . S
C89 H115 0.931 . S
C90 C87 1.487 . S
C90 C97 1.399 . S
C90 N128 1.343 . S
C91 C92 1.384 . S
C91 C93 1.384 . S
C91 H116 0.931 . S
C92 C91 1.384 . S
C92 C95 1.382 . S
C93 C91 1.384 . S
C93 C94 1.381 . S
C93 H117 0.930 . S
C94 C93 1.381 . S
C94 C96 1.381 . S
C94 C97 1.487 . S
C95 C92 1.382 . S
C95 C96 1.387 . S
C95 H118 0.930 . S
C96 C94 1.381 . S
C96 C95 1.387 . S
C96 H119 0.931 . S
C97 C90 1.399 . S
C97 C94 1.487 . S
C97 N129 1.343 . S
C98 C99 1.384 . S
C98 C100 1.384 . S
C98 H120 0.931 . S
C99 C98 1.384 . S
C99 C102 1.382 . S
C100 C98 1.384 . S
C100 C101 1.381 . S
C100 H121 0.930 . S
C101 C100 1.381 . S
C101 C103 1.381 . S
C101 C104 1.487 . S
C102 C99 1.382 . S
C102 C103 1.387 . S
C102 H122 0.930 . S
C103 C101 1.381 . S
C103 C102 1.387 . S
C103 H123 0.931 . S
C104 C101 1.487 . S
C104 C111 1.399 . S
C104 N129 1.343 . S
C105 C106 1.384 . S
C105 C107 1.384 . S
C105 H124 0.931 . S
C106 C105 1.384 . S
C106 C109 1.382 . S
C107 C105 1.384 . S
C107 C108 1.381 . S
C107 H125 0.930 . S
C108 C107 1.381 . S
C108 C110 1.381 . S
C108 C111 1.487 . S
C109 C106 1.382 . S
C109 C110 1.387 . S
C109 H126 0.930 . S
C110 C108 1.381 . S
C110 C109 1.387 . S
C110 H127 0.931 . S
C111 C104 1.399 . S
C111 C108 1.487 . S
C111 N128 1.343 . S
H112 C84 0.931 . S
H113 C86 0.930 . S
H114 C88 0.930 . S
H115 C89 0.931 . S
H116 C91 0.931 . S
H117 C93 0.930 . S
H118 C95 0.930 . S
H119 C96 0.931 . S
H120 C98 0.931 . S
H121 C100 0.930 . S
H122 C102 0.930 . S
H123 C103 0.931 . S
H124 C105 0.931 . S
H125 C107 0.930 . S
H126 C109 0.930 . S
H127 C110 0.931 . S
N128 C90 1.343 . S
N128 C111 1.343 . S
N129 C97 1.343 . S
N129 C104 1.343 . S
C130 C131 1.384 . S
C130 C132 1.384 . S
C130 H158 0.931 . S
C131 C130 1.384 . S
C131 C134 1.382 . S
C132 C130 1.384 . S
C132 C133 1.381 . S
C132 H159 0.930 . S
C133 C132 1.381 . S
C133 C135 1.381 . S
C133 C136 1.487 . S
C134 C131 1.382 . S
C134 C135 1.387 . S
C134 H160 0.930 . S
C135 C133 1.381 . S
C135 C134 1.387 . S
C135 H161 0.931 . S
C136 C133 1.487 . S
C136 C143 1.399 . S
C136 N174 1.343 . S
C137 C138 1.384 . S
C137 C139 1.384 . S
C137 H162 0.931 . S
C138 C137 1.384 . S
C138 C141 1.382 . S
C139 C137 1.384 . S
C139 C140 1.381 . S
C139 H163 0.930 . S
C140 C139 1.381 . S
C140 C142 1.381 . S
C140 C143 1.487 . S
C141 C138 1.382 . S
C141 C142 1.387 . S
C141 H164 0.930 . S
C142 C140 1.381 . S
C142 C141 1.387 . S
C142 H165 0.931 . S
C143 C136 1.399 . S
C143 C140 1.487 . S
C143 N175 1.343 . S
C144 C145 1.384 . S
C144 C146 1.384 . S
C144 H166 0.931 . S
C145 C144 1.384 . S
C145 C148 1.382 . S
C146 C144 1.384 . S
C146 C147 1.381 . S
C146 H167 0.930 . S
C147 C146 1.381 . S
C147 C149 1.381 . S
C147 C150 1.487 . S
C148 C145 1.382 . S
C148 C149 1.387 . S
C148 H168 0.930 . S
C149 C147 1.381 . S
C149 C148 1.387 . S
C149 H169 0.931 . S
C150 C147 1.487 . S
C150 C157 1.399 . S
C150 N175 1.343 . S
C151 C152 1.384 . S
C151 C153 1.384 . S
C151 H170 0.931 . S
C152 C151 1.384 . S
C152 C155 1.382 . S
C153 C151 1.384 . S
C153 C154 1.381 . S
C153 H171 0.930 . S
C154 C153 1.381 . S
C154 C156 1.381 . S
C154 C157 1.487 . S
C155 C152 1.382 . S
C155 C156 1.387 . S
C155 H172 0.930 . S
C156 C154 1.381 . S
C156 C155 1.387 . S
C156 H173 0.931 . S
C157 C150 1.399 . S
C157 C154 1.487 . S
C157 N174 1.343 . S
H158 C130 0.931 . S
H159 C132 0.930 . S
H160 C134 0.930 . S
H161 C135 0.931 . S
H162 C137 0.931 . S
H163 C139 0.930 . S
H164 C141 0.930 . S
H165 C142 0.931 . S
H166 C144 0.931 . S
H167 C146 0.930 . S
H168 C148 0.930 . S
H169 C149 0.931 . S
H170 C151 0.931 . S
H171 C153 0.930 . S
H172 C155 0.930 . S
H173 C156 0.931 . S
N174 C136 1.343 . S
N174 C157 1.343 . S
N175 C143 1.343 . S
N175 C150 1.343 . S
C176 C177 1.384 . S
C176 C178 1.384 . S
C176 H204 0.931 . S
C177 C176 1.384 . S
C177 C180 1.382 . S
C178 C176 1.384 . S
C178 C179 1.381 . S
C178 H205 0.930 . S
C179 C178 1.381 . S
C179 C181 1.381 . S
C179 C182 1.487 . S
C180 C177 1.382 . S
C180 C181 1.387 . S
C180 H206 0.930 . S
C181 C179 1.381 . S
C181 C180 1.387 . S
C181 H207 0.931 . S
C182 C179 1.487 . S
C182 C189 1.399 . S
C182 N220 1.343 . S
C183 C184 1.384 . S
C183 C185 1.384 . S
C183 H208 0.931 . S
C184 C183 1.384 . S
C184 C187 1.382 . S
C185 C183 1.384 . S
C185 C186 1.381 . S
C185 H209 0.930 . S
C186 C185 1.381 . S
C186 C188 1.381 . S
C186 C189 1.487 . S
C187 C184 1.382 . S
C187 C188 1.387 . S
C187 H210 0.930 . S
C188 C186 1.381 . S
C188 C187 1.387 . S
C188 H211 0.931 . S
C189 C182 1.399 . S
C189 C186 1.487 . S
C189 N221 1.343 . S
C190 C191 1.384 . S
C190 C192 1.384 . S
C190 H212 0.931 . S
C191 C190 1.384 . S
C191 C194 1.382 . S
C192 C190 1.384 . S
C192 C193 1.381 . S
C192 H213 0.930 . S
C193 C192 1.381 . S
C193 C195 1.381 . S
C193 C196 1.487 . S
C194 C191 1.382 . S
C194 C195 1.387 . S
C194 H214 0.930 . S
C195 C193 1.381 . S
C195 C194 1.387 . S
C195 H215 0.931 . S
C196 C193 1.487 . S
C196 C203 1.399 . S
C196 N221 1.343 . S
C197 C198 1.384 . S
C197 C199 1.384 . S
C197 H216 0.931 . S
C198 C197 1.384 . S
C198 C201 1.382 . S
C199 C197 1.384 . S
C199 C200 1.381 . S
C199 H217 0.930 . S
C200 C199 1.381 . S
C200 C202 1.381 . S
C200 C203 1.487 . S
C201 C198 1.382 . S
C201 C202 1.387 . S
C201 H218 0.930 . S
C202 C200 1.381 . S
C202 C201 1.387 . S
C202 H219 0.931 . S
C203 C196 1.399 . S
C203 C200 1.487 . S
C203 N220 1.343 . S
H204 C176 0.931 . S
H205 C178 0.930 . S
H206 C180 0.930 . S
H207 C181 0.931 . S
H208 C183 0.931 . S
H209 C185 0.930 . S
H210 C187 0.930 . S
H211 C188 0.931 . S
H212 C190 0.931 . S
H213 C192 0.930 . S
H214 C194 0.930 . S
H215 C195 0.931 . S
H216 C197 0.931 . S
H217 C199 0.930 . S
H218 C201 0.930 . S
H219 C202 0.931 . S
N220 C182 1.343 . S
N220 C203 1.343 . S
N221 C189 1.343 . S
N221 C196 1.343 . S
C222 C223 1.384 . S
C222 C224 1.384 . S
C222 H250 0.931 . S
C223 C222 1.384 . S
C223 C226 1.382 . S
C224 C222 1.384 . S
C224 C225 1.381 . S
C224 H251 0.930 . S
C225 C224 1.381 . S
C225 C227 1.381 . S
C225 C228 1.487 . S
C226 C223 1.382 . S
C226 C227 1.387 . S
C226 H252 0.930 . S
C227 C225 1.381 . S
C227 C226 1.387 . S
C227 H253 0.931 . S
C228 C225 1.487 . S
C228 C235 1.399 . S
C228 N266 1.343 . S
C229 C230 1.384 . S
C229 C231 1.384 . S
C229 H254 0.931 . S
C230 C229 1.384 . S
C230 C233 1.382 . S
C231 C229 1.384 . S
C231 C232 1.381 . S
C231 H255 0.930 . S
C232 C231 1.381 . S
C232 C234 1.381 . S
C232 C235 1.487 . S
C233 C230 1.382 . S
C233 C234 1.387 . S
C233 H256 0.930 . S
C234 C232 1.381 . S
C234 C233 1.387 . S
C234 H257 0.931 . S
C235 C228 1.399 . S
C235 C232 1.487 . S
C235 N267 1.343 . S
C236 C237 1.384 . S
C236 C238 1.384 . S
C236 H258 0.931 . S
C237 C236 1.384 . S
C237 C240 1.382 . S
C238 C236 1.384 . S
C238 C239 1.381 . S
C238 H259 0.930 . S
C239 C238 1.381 . S
C239 C241 1.381 . S
C239 C242 1.487 . S
C240 C237 1.382 . S
C240 C241 1.387 . S
C240 H260 0.930 . S
C241 C239 1.381 . S
C241 C240 1.387 . S
C241 H261 0.931 . S
C242 C239 1.487 . S
C242 C249 1.399 . S
C242 N267 1.343 . S
C243 C244 1.384 . S
C243 C245 1.384 . S
C243 H262 0.931 . S
C244 C243 1.384 . S
C244 C247 1.382 . S
C245 C243 1.384 . S
C245 C246 1.381 . S
C245 H263 0.930 . S
C246 C245 1.381 . S
C246 C248 1.381 . S
C246 C249 1.487 . S
C247 C244 1.382 . S
C247 C248 1.387 . S
C247 H264 0.930 . S
C248 C246 1.381 . S
C248 C247 1.387 . S
C248 H265 0.931 . S
C249 C242 1.399 . S
C249 C246 1.487 . S
C249 N266 1.343 . S
H250 C222 0.931 . S
H251 C224 0.930 . S
H252 C226 0.930 . S
H253 C227 0.931 . S
H254 C229 0.931 . S
H255 C231 0.930 . S
H256 C233 0.930 . S
H257 C234 0.931 . S
H258 C236 0.931 . S
H259 C238 0.930 . S
H260 C240 0.930 . S
H261 C241 0.931 . S
H262 C243 0.931 . S
H263 C245 0.930 . S
H264 C247 0.930 . S
H265 C248 0.931 . S
N266 C228 1.343 . S
N266 C249 1.343 . S
N267 C235 1.343 . S
N267 C242 1.343 . S
C268 C269 1.384 . S
C268 C270 1.384 . S
C268 H296 0.931 . S
C269 C268 1.384 . S
C269 C272 1.382 . S
C270 C268 1.384 . S
C270 C271 1.381 . S
C270 H297 0.930 . S
C271 C270 1.381 . S
C271 C273 1.381 . S
C271 C274 1.487 . S
C272 C269 1.382 . S
C272 C273 1.387 . S
C272 H298 0.930 . S
C273 C271 1.381 . S
C273 C272 1.387 . S
C273 H299 0.931 . S
C274 C271 1.487 . S
C274 C281 1.399 . S
C274 N312 1.343 . S
C275 C276 1.384 . S
C275 C277 1.384 . S
C275 H300 0.931 . S
C276 C275 1.384 . S
C276 C279 1.382 . S
C277 C275 1.384 . S
C277 C278 1.381 . S
C277 H301 0.930 . S
C278 C277 1.381 . S
C278 C280 1.381 . S
C278 C281 1.487 . S
C279 C276 1.382 . S
C279 C280 1.387 . S
C279 H302 0.930 . S
C280 C278 1.381 . S
C280 C279 1.387 . S
C280 H303 0.931 . S
C281 C274 1.399 . S
C281 C278 1.487 . S
C281 N313 1.343 . S
C282 C283 1.384 . S
C282 C284 1.384 . S
C282 H304 0.931 . S
C283 C282 1.384 . S
C283 C286 1.382 . S
C284 C282 1.384 . S
C284 C285 1.381 . S
C284 H305 0.930 . S
C285 C284 1.381 . S
C285 C287 1.381 . S
C285 C288 1.487 . S
C286 C283 1.382 . S
C286 C287 1.387 . S
C286 H306 0.930 . S
C287 C285 1.381 . S
C287 C286 1.387 . S
C287 H307 0.931 . S
C288 C285 1.487 . S
C288 C295 1.399 . S
C288 N313 1.343 . S
C289 C290 1.384 . S
C289 C291 1.384 . S
C289 H308 0.931 . S
C290 C289 1.384 . S
C290 C293 1.382 . S
C291 C289 1.384 . S
C291 C292 1.381 . S
C291 H309 0.930 . S
C292 C291 1.381 . S
C292 C294 1.381 . S
C292 C295 1.487 . S
C293 C290 1.382 . S
C293 C294 1.387 . S
C293 H310 0.930 . S
C294 C292 1.381 . S
C294 C293 1.387 . S
C294 H311 0.931 . S
C295 C288 1.399 . S
C295 C292 1.487 . S
C295 N312 1.343 . S
H296 C268 0.931 . S
H297 C270 0.930 . S
H298 C272 0.930 . S
H299 C273 0.931 . S
H300 C275 0.931 . S
H301 C277 0.930 . S
H302 C279 0.930 . S
H303 C280 0.931 . S
H304 C282 0.931 . S
H305 C284 0.930 . S
H306 C286 0.930 . S
H307 C287 0.931 . S
H308 C289 0.931 . S
H309 C291 0.930 . S
H310 C293 0.930 . S
H311 C294 0.931 . S
N312 C274 1.343 . S
N312 C295 1.343 . S
N313 C281 1.343 . S
N313 C288 1.343 . S
C314 C315 1.384 . S
C314 C316 1.384 . S
C314 H342 0.931 . S
C315 C314 1.384 . S
C315 C318 1.382 . S
C316 C314 1.384 . S
C316 C317 1.381 . S
C316 H343 0.930 . S
C317 C316 1.381 . S
C317 C319 1.381 . S
C317 C320 1.487 . S
C318 C315 1.382 . S
C318 C319 1.387 . S
C318 H344 0.930 . S
C319 C317 1.381 . S
C319 C318 1.387 . S
C319 H345 0.931 . S
C320 C317 1.487 . S
C320 C327 1.399 . S
C320 N358 1.343 . S
C321 C322 1.384 . S
C321 C323 1.384 . S
C321 H346 0.931 . S
C322 C321 1.384 . S
C322 C325 1.382 . S
C323 C321 1.384 . S
C323 C324 1.381 . S
C323 H347 0.930 . S
C324 C323 1.381 . S
C324 C326 1.381 . S
C324 C327 1.487 . S
C325 C322 1.382 . S
C325 C326 1.387 . S
C325 H348 0.930 . S
C326 C324 1.381 . S
C326 C325 1.387 . S
C326 H349 0.931 . S
C327 C320 1.399 . S
C327 C324 1.487 . S
C327 N359 1.343 . S
C328 C329 1.384 . S
C328 C330 1.384 . S
C328 H350 0.931 . S
C329 C328 1.384 . S
C329 C332 1.382 . S
C330 C328 1.384 . S
C330 C331 1.381 . S
C330 H351 0.930 . S
C331 C330 1.381 . S
C331 C333 1.381 . S
C331 C334 1.487 . S
C332 C329 1.382 . S
C332 C333 1.387 . S
C332 H352 0.930 . S
C333 C331 1.381 . S
C333 C332 1.387 . S
C333 H353 0.931 . S
C334 C331 1.487 . S
C334 C341 1.399 . S
C334 N359 1.343 . S
C335 C336 1.384 . S
C335 C337 1.384 . S
C335 H354 0.931 . S
C336 C335 1.384 . S
C336 C339 1.382 . S
C337 C335 1.384 . S
C337 C338 1.381 . S
C337 H355 0.930 . S
C338 C337 1.381 . S
C338 C340 1.381 . S
C338 C341 1.487 . S
C339 C336 1.382 . S
C339 C340 1.387 . S
C339 H356 0.930 . S
C340 C338 1.381 . S
C340 C339 1.387 . S
C340 H357 0.931 . S
C341 C334 1.399 . S
C341 C338 1.487 . S
C341 N358 1.343 . S
H342 C314 0.931 . S
H343 C316 0.930 . S
H344 C318 0.930 . S
H345 C319 0.931 . S
H346 C321 0.931 . S
H347 C323 0.930 . S
H348 C325 0.930 . S
H349 C326 0.931 . S
H350 C328 0.931 . S
H351 C330 0.930 . S
H352 C332 0.930 . S
H353 C333 0.931 . S
H354 C335 0.931 . S
H355 C337 0.930 . S
H356 C339 0.930 . S
H357 C340 0.931 . S
N358 C320 1.343 . S
N358 C341 1.343 . S
N359 C327 1.343 . S
N359 C334 1.343 . S
H360 C366 0.930 . S
H361 C370 0.930 . S
H362 C375 0.929 . S
H363 C373 0.929 . S
H364 C368 0.929 . S
H365 C374 0.929 . S
C366 H360 0.930 . S
C366 C367 1.367 . S
C366 C374 1.378 . S
C367 C366 1.367 . S
C367 C375 1.433 . S
C368 H364 0.929 . S
C368 C370 1.378 . S
C368 C372 1.350 . S
C369 C372 1.463 . S
C369 C374 1.350 . S
C369 N377 1.427 . S
C370 H361 0.930 . S
C370 C368 1.378 . S
C370 C371 1.367 . S
C371 C370 1.367 . S
C371 C373 1.433 . S
C372 C368 1.350 . S
C372 C369 1.463 . S
C372 N376 1.427 . S
C373 H363 0.929 . S
C373 C371 1.433 . S
C373 N376 1.384 . S
C374 H365 0.929 . S
C374 C366 1.378 . S
C374 C369 1.350 . S
C375 H362 0.929 . S
C375 C367 1.433 . S
C375 N377 1.384 . S
N376 C372 1.427 . S
N376 C373 1.384 . S
N377 C369 1.427 . S
N377 C375 1.384 . S
H378 C384 0.930 . S
H379 C388 0.930 . S
H380 C393 0.929 . S
H381 C391 0.929 . S
H382 C386 0.929 . S
H383 C392 0.929 . S
C384 H378 0.930 . S
C384 C385 1.367 . S
C384 C392 1.378 . S
C385 C384 1.367 . S
C385 C393 1.433 . S
C386 H382 0.929 . S
C386 C388 1.378 . S
C386 C390 1.350 . S
C387 C390 1.463 . S
C387 C392 1.350 . S
C387 N395 1.427 . S
C388 H379 0.930 . S
C388 C386 1.378 . S
C388 C389 1.367 . S
C389 C388 1.367 . S
C389 C391 1.433 . S
C390 C386 1.350 . S
C390 C387 1.463 . S
C390 N394 1.427 . S
C391 H381 0.929 . S
C391 C389 1.433 . S
C391 N394 1.384 . S
C392 H383 0.929 . S
C392 C384 1.378 . S
C392 C387 1.350 . S
C393 H380 0.929 . S
C393 C385 1.433 . S
C393 N395 1.384 . S
N394 C390 1.427 . S
N394 C391 1.384 . S
N395 C387 1.427 . S
N395 C393 1.384 . S
H396 C402 0.930 . S
H397 C406 0.930 . S
H398 C411 0.929 . S
H399 C409 0.929 . S
H400 C404 0.929 . S
H401 C410 0.929 . S
C402 H396 0.930 . S
C402 C403 1.367 . S
C402 C410 1.378 . S
C403 C402 1.367 . S
C403 C411 1.433 . S
C404 H400 0.929 . S
C404 C406 1.378 . S
C404 C408 1.350 . S
C405 C408 1.463 . S
C405 C410 1.350 . S
C405 N413 1.427 . S
C406 H397 0.930 . S
C406 C404 1.378 . S
C406 C407 1.367 . S
C407 C406 1.367 . S
C407 C409 1.433 . S
C408 C404 1.350 . S
C408 C405 1.463 . S
C408 N412 1.427 . S
C409 H399 0.929 . S
C409 C407 1.433 . S
C409 N412 1.384 . S
C410 H401 0.929 . S
C410 C402 1.378 . S
C410 C405 1.350 . S
C411 H398 0.929 . S
C411 C403 1.433 . S
C411 N413 1.384 . S
N412 C408 1.427 . S
N412 C409 1.384 . S
N413 C405 1.427 . S
N413 C411 1.384 . S
H414 C420 0.930 . S
H415 C424 0.930 . S
H416 C429 0.929 . S
H417 C427 0.929 . S
H418 C422 0.929 . S
H419 C428 0.929 . S
C420 H414 0.930 . S
C420 C421 1.367 . S
C420 C428 1.378 . S
C421 C420 1.367 . S
C421 C429 1.433 . S
C422 H418 0.929 . S
C422 C424 1.378 . S
C422 C426 1.350 . S
C423 C426 1.463 . S
C423 C428 1.350 . S
C423 N431 1.427 . S
C424 H415 0.930 . S
C424 C422 1.378 . S
C424 C425 1.367 . S
C425 C424 1.367 . S
C425 C427 1.433 . S
C426 C422 1.350 . S
C426 C423 1.463 . S
C426 N430 1.427 . S
C427 H417 0.929 . S
C427 C425 1.433 . S
C427 N430 1.384 . S
C428 H419 0.929 . S
C428 C420 1.378 . S
C428 C423 1.350 . S
C429 H416 0.929 . S
C429 C421 1.433 . S
C429 N431 1.384 . S
N430 C426 1.427 . S
N430 C427 1.384 . S
N431 C423 1.427 . S
N431 C429 1.384 . S
H432 C438 0.930 . S
H433 C442 0.930 . S
H434 C447 0.929 . S
H435 C445 0.929 . S
H436 C440 0.929 . S
H437 C446 0.929 . S
C438 H432 0.930 . S
C438 C439 1.367 . S
C438 C446 1.378 . S
C439 C438 1.367 . S
C439 C447 1.433 . S
C440 H436 0.929 . S
C440 C442 1.378 . S
C440 C444 1.350 . S
C441 C444 1.463 . S
C441 C446 1.350 . S
C441 N449 1.427 . S
C442 H433 0.930 . S
C442 C440 1.378 . S
C442 C443 1.367 . S
C443 C442 1.367 . S
C443 C445 1.433 . S
C444 C440 1.350 . S
C444 C441 1.463 . S
C444 N448 1.427 . S
C445 H435 0.929 . S
C445 C443 1.433 . S
C445 N448 1.384 . S
C446 H437 0.929 . S
C446 C438 1.378 . S
C446 C441 1.350 . S
C447 H434 0.929 . S
C447 C439 1.433 . S
C447 N449 1.384 . S
N448 C444 1.427 . S
N448 C445 1.384 . S
N449 C441 1.427 . S
N449 C447 1.384 . S
H450 C456 0.930 . S
H451 C460 0.930 . S
H452 C465 0.929 . S
H453 C463 0.929 . S
H454 C458 0.929 . S
H455 C464 0.929 . S
C456 H450 0.930 . S
C456 C457 1.367 . S
C456 C464 1.378 . S
C457 C456 1.367 . S
C457 C465 1.433 . S
C458 H454 0.929 . S
C458 C460 1.378 . S
C458 C462 1.350 . S
C459 C462 1.463 . S
C459 C464 1.350 . S
C459 N467 1.427 . S
C460 H451 0.930 . S
C460 C458 1.378 . S
C460 C461 1.367 . S
C461 C460 1.367 . S
C461 C463 1.433 . S
C462 C458 1.350 . S
C462 C459 1.463 . S
C462 N466 1.427 . S
C463 H453 0.929 . S
C463 C461 1.433 . S
C463 N466 1.384 . S
C464 H455 0.929 . S
C464 C456 1.378 . S
C464 C459 1.350 . S
C465 H452 0.929 . S
C465 C457 1.433 . S
C465 N467 1.384 . S
N466 C462 1.427 . S
N466 C463 1.384 . S
N467 C459 1.427 . S
N467 C465 1.384 . S
H468 C474 0.930 . S
H469 C478 0.930 . S
H470 C483 0.929 . S
H471 C481 0.929 . S
H472 C476 0.929 . S
H473 C482 0.929 . S
C474 H468 0.930 . S
C474 C475 1.367 . S
C474 C482 1.378 . S
C475 C474 1.367 . S
C475 C483 1.433 . S
C476 H472 0.929 . S
C476 C478 1.378 . S
C476 C480 1.350 . S
C477 C480 1.463 . S
C477 C482 1.350 . S
C477 N485 1.427 . S
C478 H469 0.930 . S
C478 C476 1.378 . S
C478 C479 1.367 . S
C479 C478 1.367 . S
C479 C481 1.433 . S
C480 C476 1.350 . S
C480 C477 1.463 . S
C480 N484 1.427 . S
C481 H471 0.929 . S
C481 C479 1.433 . S
C481 N484 1.384 . S
C482 H473 0.929 . S
C482 C474 1.378 . S
C482 C477 1.350 . S
C483 H470 0.929 . S
C483 C475 1.433 . S
C483 N485 1.384 . S
N484 C480 1.427 . S
N484 C481 1.384 . S
N485 C477 1.427 . S
N485 C483 1.384 . S
H486 C492 0.930 . S
H487 C496 0.930 . S
H488 C501 0.929 . S
H489 C499 0.929 . S
H490 C494 0.929 . S
H491 C500 0.929 . S
C492 H486 0.930 . S
C492 C493 1.367 . S
C492 C500 1.378 . S
C493 C492 1.367 . S
C493 C501 1.433 . S
C494 H490 0.929 . S
C494 C496 1.378 . S
C494 C498 1.350 . S
C495 C498 1.463 . S
C495 C500 1.350 . S
C495 N503 1.427 . S
C496 H487 0.930 . S
C496 C494 1.378 . S
C496 C497 1.367 . S
C497 C496 1.367 . S
C497 C499 1.433 . S
C498 C494 1.350 . S
C498 C495 1.463 . S
C498 N502 1.427 . S
C499 H489 0.929 . S
C499 C497 1.433 . S
C499 N502 1.384 . S
C500 H491 0.929 . S
C500 C492 1.378 . S
C500 C495 1.350 . S
C501 H488 0.929 . S
C501 C493 1.433 . S
C501 N503 1.384 . S
N502 C498 1.427 . S
N502 C499 1.384 . S
N503 C495 1.427 . S
N503 C501 1.384 . S
H504 C510 0.930 . S
H505 C514 0.930 . S
H506 C519 0.929 . S
H507 C517 0.929 . S
H508 C512 0.929 . S
H509 C518 0.929 . S
C510 H504 0.930 . S
C510 C511 1.367 . S
C510 C518 1.378 . S
C511 C510 1.367 . S
C511 C519 1.433 . S
C512 H508 0.929 . S
C512 C514 1.378 . S
C512 C516 1.350 . S
C513 C516 1.463 . S
C513 C518 1.350 . S
C513 N521 1.427 . S
C514 H505 0.930 . S
C514 C512 1.378 . S
C514 C515 1.367 . S
C515 C514 1.367 . S
C515 C517 1.433 . S
C516 C512 1.350 . S
C516 C513 1.463 . S
C516 N520 1.427 . S
C517 H507 0.929 . S
C517 C515 1.433 . S
C517 N520 1.384 . S
C518 H509 0.929 . S
C518 C510 1.378 . S
C518 C513 1.350 . S
C519 H506 0.929 . S
C519 C511 1.433 . S
C519 N521 1.384 . S
N520 C516 1.427 . S
N520 C517 1.384 . S
N521 C513 1.427 . S
N521 C519 1.384 . S
H522 C528 0.930 . S
H523 C532 0.930 . S
H524 C537 0.929 . S
H525 C535 0.929 . S
H526 C530 0.929 . S
H527 C536 0.929 . S
C528 H522 0.930 . S
C528 C529 1.367 . S
C528 C536 1.378 . S
C529 C528 1.367 . S
C529 C537 1.433 . S
C530 H526 0.929 . S
C530 C532 1.378 . S
C530 C534 1.350 . S
C531 C534 1.463 . S
C531 C536 1.350 . S
C531 N539 1.427 . S
C532 H523 0.930 . S
C532 C530 1.378 . S
C532 C533 1.367 . S
C533 C532 1.367 . S
C533 C535 1.433 . S
C534 C530 1.350 . S
C534 C531 1.463 . S
C534 N538 1.427 . S
C535 H525 0.929 . S
C535 C533 1.433 . S
C535 N538 1.384 . S
C536 H527 0.929 . S
C536 C528 1.378 . S
C536 C531 1.350 . S
C537 H524 0.929 . S
C537 C529 1.433 . S
C537 N539 1.384 . S
N538 C534 1.427 . S
N538 C535 1.384 . S
N539 C531 1.427 . S
N539 C537 1.384 . S
H540 C546 0.930 . S
H541 C550 0.930 . S
H542 C555 0.929 . S
H543 C553 0.929 . S
H544 C548 0.929 . S
H545 C554 0.929 . S
C546 H540 0.930 . S
C546 C547 1.367 . S
C546 C554 1.378 . S
C547 C546 1.367 . S
C547 C555 1.433 . S
C548 H544 0.929 . S
C548 C550 1.378 . S
C548 C552 1.350 . S
C549 C552 1.463 . S
C549 C554 1.350 . S
C549 N557 1.427 . S
C550 H541 0.930 . S
C550 C548 1.378 . S
C550 C551 1.367 . S
C551 C550 1.367 . S
C551 C553 1.433 . S
C552 C548 1.350 . S
C552 C549 1.463 . S
C552 N556 1.427 . S
C553 H543 0.929 . S
C553 C551 1.433 . S
C553 N556 1.384 . S
C554 H545 0.929 . S
C554 C546 1.378 . S
C554 C549 1.350 . S
C555 H542 0.929 . S
C555 C547 1.433 . S
C555 N557 1.384 . S
N556 C552 1.427 . S
N556 C553 1.384 . S
N557 C549 1.427 . S
N557 C555 1.384 . S
H558 C564 0.930 . S
H559 C568 0.930 . S
H560 C573 0.929 . S
H561 C571 0.929 . S
H562 C566 0.929 . S
H563 C572 0.929 . S
C564 H558 0.930 . S
C564 C565 1.367 . S
C564 C572 1.378 . S
C565 C564 1.367 . S
C565 C573 1.433 . S
C566 H562 0.929 . S
C566 C568 1.378 . S
C566 C570 1.350 . S
C567 C570 1.463 . S
C567 C572 1.350 . S
C567 N575 1.427 . S
C568 H559 0.930 . S
C568 C566 1.378 . S
C568 C569 1.367 . S
C569 C568 1.367 . S
C569 C571 1.433 . S
C570 C566 1.350 . S
C570 C567 1.463 . S
C570 N574 1.427 . S
C571 H561 0.929 . S
C571 C569 1.433 . S
C571 N574 1.384 . S
C572 H563 0.929 . S
C572 C564 1.378 . S
C572 C567 1.350 . S
C573 H560 0.929 . S
C573 C565 1.433 . S
C573 N575 1.384 . S
N574 C570 1.427 . S
N574 C571 1.384 . S
N575 C567 1.427 . S
N575 C573 1.384 . S
H576 C582 0.930 . S
H577 C586 0.930 . S
H578 C591 0.929 . S
H579 C589 0.929 . S
H580 C584 0.929 . S
H581 C590 0.929 . S
C582 H576 0.930 . S
C582 C583 1.367 . S
C582 C590 1.378 . S
C583 C582 1.367 . S
C583 C591 1.433 . S
C584 H580 0.929 . S
C584 C586 1.378 . S
C584 C588 1.350 . S
C585 C588 1.463 . S
C585 C590 1.350 . S
C585 N593 1.427 . S
C586 H577 0.930 . S
C586 C584 1.378 . S
C586 C587 1.367 . S
C587 C586 1.367 . S
C587 C589 1.433 . S
C588 C584 1.350 . S
C588 C585 1.463 . S
C588 N592 1.427 . S
C589 H579 0.929 . S
C589 C587 1.433 . S
C589 N592 1.384 . S
C590 H581 0.929 . S
C590 C582 1.378 . S
C590 C585 1.350 . S
C591 H578 0.929 . S
C591 C583 1.433 . S
C591 N593 1.384 . S
N592 C588 1.427 . S
N592 C589 1.384 . S
N593 C585 1.427 . S
N593 C591 1.384 . S
H594 C600 0.930 . S
H595 C604 0.930 . S
H596 C609 0.929 . S
H597 C607 0.929 . S
H598 C602 0.929 . S
H599 C608 0.929 . S
C600 H594 0.930 . S
C600 C601 1.367 . S
C600 C608 1.378 . S
C601 C600 1.367 . S
C601 C609 1.433 . S
C602 H598 0.929 . S
C602 C604 1.378 . S
C602 C606 1.350 . S
C603 C606 1.463 . S
C603 C608 1.350 . S
C603 N611 1.427 . S
C604 H595 0.930 . S
C604 C602 1.378 . S
C604 C605 1.367 . S
C605 C604 1.367 . S
C605 C607 1.433 . S
C606 C602 1.350 . S
C606 C603 1.463 . S
C606 N610 1.427 . S
C607 H597 0.929 . S
C607 C605 1.433 . S
C607 N610 1.384 . S
C608 H599 0.929 . S
C608 C600 1.378 . S
C608 C603 1.350 . S
C609 H596 0.929 . S
C609 C601 1.433 . S
C609 N611 1.384 . S
N610 C606 1.427 . S
N610 C607 1.384 . S
N611 C603 1.427 . S
N611 C609 1.384 . S
H612 C618 0.930 . S
H613 C622 0.930 . S
H614 C627 0.929 . S
H615 C625 0.929 . S
H616 C620 0.929 . S
H617 C626 0.929 . S
C618 H612 0.930 . S
C618 C619 1.367 . S
C618 C626 1.378 . S
C619 C618 1.367 . S
C619 C627 1.433 . S
C620 H616 0.929 . S
C620 C622 1.378 . S
C620 C624 1.350 . S
C621 C624 1.463 . S
C621 C626 1.350 . S
C621 N629 1.427 . S
C622 H613 0.930 . S
C622 C620 1.378 . S
C622 C623 1.367 . S
C623 C622 1.367 . S
C623 C625 1.433 . S
C624 C620 1.350 . S
C624 C621 1.463 . S
C624 N628 1.427 . S
C625 H615 0.929 . S
C625 C623 1.433 . S
C625 N628 1.384 . S
C626 H617 0.929 . S
C626 C618 1.378 . S
C626 C621 1.350 . S
C627 H614 0.929 . S
C627 C619 1.433 . S
C627 N629 1.384 . S
N628 C624 1.427 . S
N628 C625 1.384 . S
N629 C621 1.427 . S
N629 C627 1.384 . S
H630 C636 0.930 . S
H631 C640 0.930 . S
H632 C645 0.929 . S
H633 C643 0.929 . S
H634 C638 0.929 . S
H635 C644 0.929 . S
C636 H630 0.930 . S
C636 C637 1.367 . S
C636 C644 1.378 . S
C637 C636 1.367 . S
C637 C645 1.433 . S
C638 H634 0.929 . S
C638 C640 1.378 . S
C638 C642 1.350 . S
C639 C642 1.463 . S
C639 C644 1.350 . S
C639 N647 1.427 . S
C640 H631 0.930 . S
C640 C638 1.378 . S
C640 C641 1.367 . S
C641 C640 1.367 . S
C641 C643 1.433 . S
C642 C638 1.350 . S
C642 C639 1.463 . S
C642 N646 1.427 . S
C643 H633 0.929 . S
C643 C641 1.433 . S
C643 N646 1.384 . S
C644 H635 0.929 . S
C644 C636 1.378 . S
C644 C639 1.350 . S
C645 H632 0.929 . S
C645 C637 1.433 . S
C645 N647 1.384 . S
N646 C642 1.427 . S
N646 C643 1.384 . S
N647 C639 1.427 . S
N647 C645 1.384 . S
H648 C654 0.930 . S
H649 C658 0.930 . S
H650 C663 0.929 . S
H651 C661 0.929 . S
H652 C656 0.929 . S
H653 C662 0.929 . S
C654 H648 0.930 . S
C654 C655 1.367 . S
C654 C662 1.378 . S
C655 C654 1.367 . S
C655 C663 1.433 . S
C656 H652 0.929 . S
C656 C658 1.378 . S
C656 C660 1.350 . S
C657 C660 1.463 . S
C657 C662 1.350 . S
C657 N665 1.427 . S
C658 H649 0.930 . S
C658 C656 1.378 . S
C658 C659 1.367 . S
C659 C658 1.367 . S
C659 C661 1.433 . S
C660 C656 1.350 . S
C660 C657 1.463 . S
C660 N664 1.427 . S
C661 H651 0.929 . S
C661 C659 1.433 . S
C661 N664 1.384 . S
C662 H653 0.929 . S
C662 C654 1.378 . S
C662 C657 1.350 . S
C663 H650 0.929 . S
C663 C655 1.433 . S
C663 N665 1.384 . S
N664 C660 1.427 . S
N664 C661 1.384 . S
N665 C657 1.427 . S
N665 C663 1.384 . S
H666 C672 0.930 . S
H667 C676 0.930 . S
H668 C681 0.929 . S
H669 C679 0.929 . S
H670 C674 0.929 . S
H671 C680 0.929 . S
C672 H666 0.930 . S
C672 C673 1.367 . S
C672 C680 1.378 . S
C673 C672 1.367 . S
C673 C681 1.433 . S
C674 H670 0.929 . S
C674 C676 1.378 . S
C674 C678 1.350 . S
C675 C678 1.463 . S
C675 C680 1.350 . S
C675 N683 1.427 . S
C676 H667 0.930 . S
C676 C674 1.378 . S
C676 C677 1.367 . S
C677 C676 1.367 . S
C677 C679 1.433 . S
C678 C674 1.350 . S
C678 C675 1.463 . S
C678 N682 1.427 . S
C679 H669 0.929 . S
C679 C677 1.433 . S
C679 N682 1.384 . S
C680 H671 0.929 . S
C680 C672 1.378 . S
C680 C675 1.350 . S
C681 H668 0.929 . S
C681 C673 1.433 . S
C681 N683 1.384 . S
N682 C678 1.427 . S
N682 C679 1.384 . S
N683 C675 1.427 . S
N683 C681 1.384 . S
H684 C690 0.930 . S
H685 C694 0.930 . S
H686 C699 0.929 . S
H687 C697 0.929 . S
H688 C692 0.929 . S
H689 C698 0.929 . S
C690 H684 0.930 . S
C690 C691 1.367 . S
C690 C698 1.378 . S
C691 C690 1.367 . S
C691 C699 1.433 . S
C692 H688 0.929 . S
C692 C694 1.378 . S
C692 C696 1.350 . S
C693 C696 1.463 . S
C693 C698 1.350 . S
C693 N701 1.427 . S
C694 H685 0.930 . S
C694 C692 1.378 . S
C694 C695 1.367 . S
C695 C694 1.367 . S
C695 C697 1.433 . S
C696 C692 1.350 . S
C696 C693 1.463 . S
C696 N700 1.427 . S
C697 H687 0.929 . S
C697 C695 1.433 . S
C697 N700 1.384 . S
C698 H689 0.929 . S
C698 C690 1.378 . S
C698 C693 1.350 . S
C699 H686 0.929 . S
C699 C691 1.433 . S
C699 N701 1.384 . S
N700 C696 1.427 . S
N700 C697 1.384 . S
N701 C693 1.427 . S
N701 C699 1.384 . S
H702 C708 0.930 . S
H703 C712 0.930 . S
H704 C717 0.929 . S
H705 C715 0.929 . S
H706 C710 0.929 . S
H707 C716 0.929 . S
C708 H702 0.930 . S
C708 C709 1.367 . S
C708 C716 1.378 . S
C709 C708 1.367 . S
C709 C717 1.433 . S
C710 H706 0.929 . S
C710 C712 1.378 . S
C710 C714 1.350 . S
C711 C714 1.463 . S
C711 C716 1.350 . S
C711 N719 1.427 . S
C712 H703 0.930 . S
C712 C710 1.378 . S
C712 C713 1.367 . S
C713 C712 1.367 . S
C713 C715 1.433 . S
C714 C710 1.350 . S
C714 C711 1.463 . S
C714 N718 1.427 . S
C715 H705 0.929 . S
C715 C713 1.433 . S
C715 N718 1.384 . S
C716 H707 0.929 . S
C716 C708 1.378 . S
C716 C711 1.350 . S
C717 H704 0.929 . S
C717 C709 1.433 . S
C717 N719 1.384 . S
N718 C714 1.427 . S
N718 C715 1.384 . S
N719 C711 1.427 . S
N719 C717 1.384 . S
H720 C726 0.930 . S
H721 C730 0.930 . S
H722 C735 0.929 . S
H723 C733 0.929 . S
H724 C728 0.929 . S
H725 C734 0.929 . S
C726 H720 0.930 . S
C726 C727 1.367 . S
C726 C734 1.378 . S
C727 C726 1.367 . S
C727 C735 1.433 . S
C728 H724 0.929 . S
C728 C730 1.378 . S
C728 C732 1.350 . S
C729 C732 1.463 . S
C729 C734 1.350 . S
C729 N737 1.427 . S
C730 H721 0.930 . S
C730 C728 1.378 . S
C730 C731 1.367 . S
C731 C730 1.367 . S
C731 C733 1.433 . S
C732 C728 1.350 . S
C732 C729 1.463 . S
C732 N736 1.427 . S
C733 H723 0.929 . S
C733 C731 1.433 . S
C733 N736 1.384 . S
C734 H725 0.929 . S
C734 C726 1.378 . S
C734 C729 1.350 . S
C735 H722 0.929 . S
C735 C727 1.433 . S
C735 N737 1.384 . S
N736 C732 1.427 . S
N736 C733 1.384 . S
N737 C729 1.427 . S
N737 C735 1.384 . S
H738 C744 0.930 . S
H739 C748 0.930 . S
H740 C753 0.929 . S
H741 C751 0.929 . S
H742 C746 0.929 . S
H743 C752 0.929 . S
C744 H738 0.930 . S
C744 C745 1.367 . S
C744 C752 1.378 . S
C745 C744 1.367 . S
C745 C753 1.433 . S
C746 H742 0.929 . S
C746 C748 1.378 . S
C746 C750 1.350 . S
C747 C750 1.463 . S
C747 C752 1.350 . S
C747 N755 1.427 . S
C748 H739 0.930 . S
C748 C746 1.378 . S
C748 C749 1.367 . S
C749 C748 1.367 . S
C749 C751 1.433 . S
C750 C746 1.350 . S
C750 C747 1.463 . S
C750 N754 1.427 . S
C751 H741 0.929 . S
C751 C749 1.433 . S
C751 N754 1.384 . S
C752 H743 0.929 . S
C752 C744 1.378 . S
C752 C747 1.350 . S
C753 H740 0.929 . S
C753 C745 1.433 . S
C753 N755 1.384 . S
N754 C750 1.427 . S
N754 C751 1.384 . S
N755 C747 1.427 . S
N755 C753 1.384 . S
H756 C762 0.930 . S
H757 C766 0.930 . S
H758 C771 0.929 . S
H759 C769 0.929 . S
H760 C764 0.929 . S
H761 C770 0.929 . S
C762 H756 0.930 . S
C762 C763 1.367 . S
C762 C770 1.378 . S
C763 C762 1.367 . S
C763 C771 1.433 . S
C764 H760 0.929 . S
C764 C766 1.378 . S
C764 C768 1.350 . S
C765 C768 1.463 . S
C765 C770 1.350 . S
C765 N773 1.427 . S
C766 H757 0.930 . S
C766 C764 1.378 . S
C766 C767 1.367 . S
C767 C766 1.367 . S
C767 C769 1.433 . S
C768 C764 1.350 . S
C768 C765 1.463 . S
C768 N772 1.427 . S
C769 H759 0.929 . S
C769 C767 1.433 . S
C769 N772 1.384 . S
C770 H761 0.929 . S
C770 C762 1.378 . S
C770 C765 1.350 . S
C771 H758 0.929 . S
C771 C763 1.433 . S
C771 N773 1.384 . S
N772 C768 1.427 . S
N772 C769 1.384 . S
N773 C765 1.427 . S
N773 C771 1.384 . S
H774 C780 0.930 . S
H775 C784 0.930 . S
H776 C789 0.929 . S
H777 C787 0.929 . S
H778 C782 0.929 . S
H779 C788 0.929 . S
C780 H774 0.930 . S
C780 C781 1.367 . S
C780 C788 1.378 . S
C781 C780 1.367 . S
C781 C789 1.433 . S
C782 H778 0.929 . S
C782 C784 1.378 . S
C782 C786 1.350 . S
C783 C786 1.463 . S
C783 C788 1.350 . S
C783 N791 1.427 . S
C784 H775 0.930 . S
C784 C782 1.378 . S
C784 C785 1.367 . S
C785 C784 1.367 . S
C785 C787 1.433 . S
C786 C782 1.350 . S
C786 C783 1.463 . S
C786 N790 1.427 . S
C787 H777 0.929 . S
C787 C785 1.433 . S
C787 N790 1.384 . S
C788 H779 0.929 . S
C788 C780 1.378 . S
C788 C783 1.350 . S
C789 H776 0.929 . S
C789 C781 1.433 . S
C789 N791 1.384 . S
N790 C786 1.427 . S
N790 C787 1.384 . S
N791 C783 1.427 . S
N791 C789 1.384 . S
C367 C13 1.754 . S
C371 C106 1.726 . S
C385 C27 1.753 . S
C389 C145 1.724 . S
C407 C177 1.708 . S
C403 C29 1.754 . S
C425 C223 1.703 . S
C421 C54 1.753 . S
C443 C290 1.724 . S
C439 C69 1.753 . S
C461 C329 1.724 . S
C457 C83 1.753 . S
C475 C15 1.756 . S
C479 C191 1.729 . S
C493 C41 1.757 . S
C497 C237 1.731 . S
C515 C276 1.712 . S
C511 C42 1.757 . S
C533 C315 1.705 . S
C529 C57 1.754 . S
C547 C71 1.758 . S
C551 C92 1.714 . S
C569 C131 1.714 . S
C565 C1 1.758 . S
C587 C230 1.724 . S
C583 C12 1.753 . S
C601 C26 1.753 . S
C605 C283 1.706 . S
C623 C336 1.714 . S
C619 C28 1.758 . S
C637 C55 1.758 . S
C641 C99 1.714 . S
C655 C68 1.754 . S
C659 C152 1.705 . S
C673 C82 1.758 . S
C677 C184 1.733 . S
C691 C14 1.757 . S
C695 C322 1.732 . S
C713 C85 1.725 . S
C709 C40 1.753 . S
C727 C43 1.757 . S
C731 C138 1.730 . S
C745 C56 1.755 . S
C749 C198 1.709 . S
C763 C70 1.753 . S
C767 C244 1.704 . S
C781 C0 1.756 . S
C785 C269 1.731 . S
