# Generated by pormake.
# Topology ptr, (4,4)-cn, num edge types: 1
# Building blocks:
#     Node 0, Type 0, BuildingBlock: UXUYUI_clean_sbu_0, # of connection points: 4
#     Node 1, Type 0, BuildingBlock: UXUYUI_clean_sbu_0, # of connection points: 4
#     Node 2, Type 0, BuildingBlock: UXUYUI_clean_sbu_0, # of connection points: 4
#     Node 3, Type 0, BuildingBlock: UXUYUI_clean_sbu_0, # of connection points: 4
#     Node 4, Type 0, BuildingBlock: UXUYUI_clean_sbu_0, # of connection points: 4
#     Node 5, Type 0, BuildingBlock: UXUYUI_clean_sbu_0, # of connection points: 4
#     Node 6, Type 0, BuildingBlock: UXUYUI_clean_sbu_0, # of connection points: 4
#     Node 7, Type 0, BuildingBlock: UXUYUI_clean_sbu_0, # of connection points: 4
#     Node 8, Type 0, BuildingBlock: UXUYUI_clean_sbu_0, # of connection points: 4
#     Node 9, Type 0, BuildingBlock: UXUYUI_clean_sbu_0, # of connection points: 4
#     Node 10, Type 0, BuildingBlock: UXUYUI_clean_sbu_0, # of connection points: 4
#     Node 11, Type 0, BuildingBlock: UXUYUI_clean_sbu_0, # of connection points: 4
#     Node 12, Type 0, BuildingBlock: UXUYUI_clean_sbu_0, # of connection points: 4
#     Node 13, Type 0, BuildingBlock: UXUYUI_clean_sbu_0, # of connection points: 4
#     Node 14, Type 0, BuildingBlock: UXUYUI_clean_sbu_0, # of connection points: 4
#     Node 15, Type 0, BuildingBlock: UXUYUI_clean_sbu_0, # of connection points: 4
#     Node 16, Type 0, BuildingBlock: UXUYUI_clean_sbu_0, # of connection points: 4
#     Node 17, Type 0, BuildingBlock: UXUYUI_clean_sbu_0, # of connection points: 4
#     Node 18, Type 1, BuildingBlock: NAWXER_clean_linker_0, # of connection points: 4
#     Node 19, Type 1, BuildingBlock: NAWXER_clean_linker_0, # of connection points: 4
#     Node 20, Type 1, BuildingBlock: NAWXER_clean_linker_0, # of connection points: 4
#     Node 21, Type 1, BuildingBlock: NAWXER_clean_linker_0, # of connection points: 4
#     Node 22, Type 1, BuildingBlock: NAWXER_clean_linker_0, # of connection points: 4
#     Node 23, Type 1, BuildingBlock: NAWXER_clean_linker_0, # of connection points: 4
#     Node 24, Type 1, BuildingBlock: NAWXER_clean_linker_0, # of connection points: 4
#     Node 25, Type 1, BuildingBlock: NAWXER_clean_linker_0, # of connection points: 4
#     Node 26, Type 1, BuildingBlock: NAWXER_clean_linker_0, # of connection points: 4
#     Node 27, Type 1, BuildingBlock: NAWXER_clean_linker_0, # of connection points: 4
#     Node 28, Type 1, BuildingBlock: NAWXER_clean_linker_0, # of connection points: 4
#     Node 29, Type 1, BuildingBlock: NAWXER_clean_linker_0, # of connection points: 4
#     Node 30, Type 1, BuildingBlock: NAWXER_clean_linker_0, # of connection points: 4
#     Node 31, Type 1, BuildingBlock: NAWXER_clean_linker_0, # of connection points: 4
#     Node 32, Type 1, BuildingBlock: NAWXER_clean_linker_0, # of connection points: 4
#     Node 33, Type 1, BuildingBlock: NAWXER_clean_linker_0, # of connection points: 4
#     Node 34, Type 1, BuildingBlock: NAWXER_clean_linker_0, # of connection points: 4
#     Node 35, Type 1, BuildingBlock: NAWXER_clean_linker_0, # of connection points: 4
#     Edge 36, Type (0, 1), BuildingBlock: XIVTED_clean_linker_0, # of connection points: 2
#     Edge 37, Type (0, 1), BuildingBlock: XIVTED_clean_linker_0, # of connection points: 2
#     Edge 38, Type (0, 1), BuildingBlock: XIVTED_clean_linker_0, # of connection points: 2
#     Edge 39, Type (0, 1), BuildingBlock: XIVTED_clean_linker_0, # of connection points: 2
#     Edge 40, Type (0, 1), BuildingBlock: XIVTED_clean_linker_0, # of connection points: 2
#     Edge 41, Type (0, 1), BuildingBlock: XIVTED_clean_linker_0, # of connection points: 2
#     Edge 42, Type (0, 1), BuildingBlock: XIVTED_clean_linker_0, # of connection points: 2
#     Edge 43, Type (0, 1), BuildingBlock: XIVTED_clean_linker_0, # of connection points: 2
#     Edge 44, Type (0, 1), BuildingBlock: XIVTED_clean_linker_0, # of connection points: 2
#     Edge 45, Type (0, 1), BuildingBlock: XIVTED_clean_linker_0, # of connection points: 2
#     Edge 46, Type (0, 1), BuildingBlock: XIVTED_clean_linker_0, # of connection points: 2
#     Edge 47, Type (0, 1), BuildingBlock: XIVTED_clean_linker_0, # of connection points: 2
#     Edge 48, Type (0, 1), BuildingBlock: XIVTED_clean_linker_0, # of connection points: 2
#     Edge 49, Type (0, 1), BuildingBlock: XIVTED_clean_linker_0, # of connection points: 2
#     Edge 50, Type (0, 1), BuildingBlock: XIVTED_clean_linker_0, # of connection points: 2
#     Edge 51, Type (0, 1), BuildingBlock: XIVTED_clean_linker_0, # of connection points: 2
#     Edge 52, Type (0, 1), BuildingBlock: XIVTED_clean_linker_0, # of connection points: 2
#     Edge 53, Type (0, 1), BuildingBlock: XIVTED_clean_linker_0, # of connection points: 2
#     Edge 54, Type (0, 1), BuildingBlock: XIVTED_clean_linker_0, # of connection points: 2
#     Edge 55, Type (0, 1), BuildingBlock: XIVTED_clean_linker_0, # of connection points: 2
#     Edge 56, Type (0, 1), BuildingBlock: XIVTED_clean_linker_0, # of connection points: 2
#     Edge 57, Type (0, 1), BuildingBlock: XIVTED_clean_linker_0, # of connection points: 2
#     Edge 58, Type (0, 1), BuildingBlock: XIVTED_clean_linker_0, # of connection points: 2
#     Edge 59, Type (0, 1), BuildingBlock: XIVTED_clean_linker_0, # of connection points: 2
#     Edge 60, Type (0, 1), BuildingBlock: XIVTED_clean_linker_0, # of connection points: 2
#     Edge 61, Type (0, 1), BuildingBlock: XIVTED_clean_linker_0, # of connection points: 2
#     Edge 62, Type (0, 1), BuildingBlock: XIVTED_clean_linker_0, # of connection points: 2
#     Edge 63, Type (0, 1), BuildingBlock: XIVTED_clean_linker_0, # of connection points: 2
#     Edge 64, Type (0, 1), BuildingBlock: XIVTED_clean_linker_0, # of connection points: 2
#     Edge 65, Type (0, 1), BuildingBlock: XIVTED_clean_linker_0, # of connection points: 2
#     Edge 66, Type (0, 1), BuildingBlock: XIVTED_clean_linker_0, # of connection points: 2
#     Edge 67, Type (0, 1), BuildingBlock: XIVTED_clean_linker_0, # of connection points: 2
#     Edge 68, Type (0, 1), BuildingBlock: XIVTED_clean_linker_0, # of connection points: 2
#     Edge 69, Type (0, 1), BuildingBlock: XIVTED_clean_linker_0, # of connection points: 2
#     Edge 70, Type (0, 1), BuildingBlock: XIVTED_clean_linker_0, # of connection points: 2
#     Edge 71, Type (0, 1), BuildingBlock: XIVTED_clean_linker_0, # of connection points: 2
#     Edge 72, Type (0, 1), BuildingBlock: XIVTED_clean_linker_0, # of connection points: 2
#     Edge 73, Type (0, 1), BuildingBlock: XIVTED_clean_linker_0, # of connection points: 2
#     Edge 74, Type (0, 1), BuildingBlock: XIVTED_clean_linker_0, # of connection points: 2
#     Edge 75, Type (0, 1), BuildingBlock: XIVTED_clean_linker_0, # of connection points: 2
#     Edge 76, Type (0, 1), BuildingBlock: XIVTED_clean_linker_0, # of connection points: 2
#     Edge 77, Type (0, 1), BuildingBlock: XIVTED_clean_linker_0, # of connection points: 2
#     Edge 78, Type (0, 1), BuildingBlock: XIVTED_clean_linker_0, # of connection points: 2
#     Edge 79, Type (0, 1), BuildingBlock: XIVTED_clean_linker_0, # of connection points: 2
#     Edge 80, Type (0, 1), BuildingBlock: XIVTED_clean_linker_0, # of connection points: 2
#     Edge 81, Type (0, 1), BuildingBlock: XIVTED_clean_linker_0, # of connection points: 2
#     Edge 82, Type (0, 1), BuildingBlock: XIVTED_clean_linker_0, # of connection points: 2
#     Edge 83, Type (0, 1), BuildingBlock: XIVTED_clean_linker_0, # of connection points: 2
#     Edge 84, Type (0, 1), BuildingBlock: XIVTED_clean_linker_0, # of connection points: 2
#     Edge 85, Type (0, 1), BuildingBlock: XIVTED_clean_linker_0, # of connection points: 2
#     Edge 86, Type (0, 1), BuildingBlock: XIVTED_clean_linker_0, # of connection points: 2
#     Edge 87, Type (0, 1), BuildingBlock: XIVTED_clean_linker_0, # of connection points: 2
#     Edge 88, Type (0, 1), BuildingBlock: XIVTED_clean_linker_0, # of connection points: 2
#     Edge 89, Type (0, 1), BuildingBlock: XIVTED_clean_linker_0, # of connection points: 2
#     Edge 90, Type (0, 1), BuildingBlock: XIVTED_clean_linker_0, # of connection points: 2
#     Edge 91, Type (0, 1), BuildingBlock: XIVTED_clean_linker_0, # of connection points: 2
#     Edge 92, Type (0, 1), BuildingBlock: XIVTED_clean_linker_0, # of connection points: 2
#     Edge 93, Type (0, 1), BuildingBlock: XIVTED_clean_linker_0, # of connection points: 2
#     Edge 94, Type (0, 1), BuildingBlock: XIVTED_clean_linker_0, # of connection points: 2
#     Edge 95, Type (0, 1), BuildingBlock: XIVTED_clean_linker_0, # of connection points: 2
#     Edge 96, Type (0, 1), BuildingBlock: XIVTED_clean_linker_0, # of connection points: 2
#     Edge 97, Type (0, 1), BuildingBlock: XIVTED_clean_linker_0, # of connection points: 2
#     Edge 98, Type (0, 1), BuildingBlock: XIVTED_clean_linker_0, # of connection points: 2
#     Edge 99, Type (0, 1), BuildingBlock: XIVTED_clean_linker_0, # of connection points: 2
#     Edge 100, Type (0, 1), BuildingBlock: XIVTED_clean_linker_0, # of connection points: 2
#     Edge 101, Type (0, 1), BuildingBlock: XIVTED_clean_linker_0, # of connection points: 2
#     Edge 102, Type (0, 1), BuildingBlock: XIVTED_clean_linker_0, # of connection points: 2
#     Edge 103, Type (0, 1), BuildingBlock: XIVTED_clean_linker_0, # of connection points: 2
#     Edge 104, Type (0, 1), BuildingBlock: XIVTED_clean_linker_0, # of connection points: 2
#     Edge 105, Type (0, 1), BuildingBlock: XIVTED_clean_linker_0, # of connection points: 2
#     Edge 106, Type (0, 1), BuildingBlock: XIVTED_clean_linker_0, # of connection points: 2
#     Edge 107, Type (0, 1), BuildingBlock: XIVTED_clean_linker_0, # of connection points: 2
# Relax obj value: 0.097
# Max RMSD: 0.293
# Mean RMSD: 0.120
data_MOF--net-ptr--node1-UXUYUI_clean_sbu_0--node2-NAWXER_clean_linker_0--edge1-XIVTED_clean_linker_0
_symmetry_space_group_name_H-M    P1
_symmetry_Int_Tables_number       1
_symmetry_cell_setting            triclinic
loop_
_symmetry_equiv_pos_as_xyz
'x, y, z'
_cell_length_a     105.19781
_cell_length_b     105.17557
_cell_length_c     74.157202
_cell_angle_alpha  90.139416
_cell_angle_beta   89.85453
_cell_angle_gamma 120.20466
loop_
_atom_site_label
_atom_site_type_symbol
_atom_site_fract_x
_atom_site_fract_y
_atom_site_fract_z
_atom_type_partial_charge
Li0 Li 0.99169 0.33149 0.00024 0.0
Li1 Li 0.01613 0.34415 0.01301 0.0
Li2 Li 0.99805 0.35096 0.02295 0.0
Li3 Li 0.00917 0.35783 0.99318 0.0
C4 C 0.98506 0.32247 0.03593 0.0
N5 N 0.96059 0.30399 0.05625 0.0
C6 C 0.98611 0.31398 0.04968 0.0
C7 C 0.97156 0.32156 0.03251 0.0
C8 C 0.97361 0.3047 0.0598 0.0
C9 C 0.95932 0.31216 0.04294 0.0
C10 C 0.02032 0.33708 0.9794 0.0
C11 C 0.04392 0.34481 0.96574 0.0
N12 N 0.04025 0.33048 0.96403 0.0
C13 C 0.01669 0.32242 0.97728 0.0
C14 C 0.03395 0.34836 0.97339 0.0
C15 C 0.02696 0.31932 0.96956 0.0
C16 C 0.97094 0.31384 0.97444 0.0
N17 N 0.9774 0.31344 0.9901 0.0
C18 C 0.9655 0.28724 0.98878 0.0
C19 C 0.97487 0.30053 0.9974 0.0
C20 C 0.9589 0.2873 0.97237 0.0
C21 C 0.96159 0.30082 0.96529 0.0
H22 H 0.9734 0.32432 0.96882 0.0
H23 H 0.98049 0.30058 0.00961 0.0
C24 C 0.04317 0.35117 0.02989 0.0
N25 N 0.03099 0.3405 0.02144 0.0
C26 C 0.05301 0.34774 0.03808 0.0
C27 C 0.03772 0.3225 0.02841 0.0
C28 C 0.02811 0.32639 0.02059 0.0
C29 C 0.05022 0.3332 0.03758 0.0
H30 H 0.04496 0.36219 0.03091 0.0
H31 H 0.01803 0.31801 0.01445 0.0
C32 C 0.98174 0.35673 0.99627 0.0
N33 N 0.96945 0.37409 0.98964 0.0
C34 C 0.98907 0.37147 0.00161 0.0
C35 C 0.96815 0.3508 0.98758 0.0
C36 C 0.98269 0.38008 0.99812 0.0
C37 C 0.96212 0.35975 0.98436 0.0
C38 C 0.03005 0.3783 0.01698 0.0
C39 C 0.02829 0.38895 0.02616 0.0
C40 C 0.04319 0.38245 0.00779 0.0
C41 C 0.03964 0.4036 0.02581 0.0
C42 C 0.05428 0.39722 0.00777 0.0
N43 N 0.05229 0.40741 0.01669 0.0
C44 C 0.00163 0.3622 0.05733 0.0
C45 C 0.97984 0.35892 0.04364 0.0
C46 C -0.00024 0.36951 0.07189 0.0
N47 N 0.99202 0.35755 0.04334 0.0
C48 C 0.97758 0.36628 0.05791 0.0
C49 C 0.98791 0.37212 0.072 0.0
H50 H 0.01114 0.36082 0.05675 0.0
H51 H 0.97221 0.35488 0.03249 0.0
C52 C 0.01063 0.36563 0.95716 0.0
N53 N 0.01444 0.37163 0.97393 0.0
C54 C 0.01217 0.37444 0.94231 0.0
C55 C 0.02204 0.39554 0.96214 0.0
C56 C 0.02015 0.38631 0.97662 0.0
C57 C 0.01777 0.38958 0.94477 0.0
H58 H 0.0059 0.35389 0.95544 0.0
H59 H 0.02265 0.39084 0.99003 0.0
O60 O 0.99724 0.33157 0.02595 0.0
O61 O 0.01048 0.34034 0.98708 0.0
O62 O 0.98774 0.34807 -0.00044 0.0
O63 O 0.01903 0.3639 0.01715 0.0
H64 H 0.99649 0.31456 0.05247 0.0
H65 H 0.97049 0.328 0.02193 0.0
H66 H 0.97427 0.29806 0.07047 0.0
H67 H 0.94881 0.31134 0.04044 0.0
H68 H 0.05455 0.35344 0.96111 0.0
H69 H 0.00611 0.31356 0.9817 0.0
H70 H 0.03677 0.35974 0.97454 0.0
H71 H 0.02436 0.30803 0.96798 0.0
H72 H 0.96389 0.27707 0.99453 0.0
H73 H 0.95663 0.30132 0.95273 0.0
H74 H 0.06252 0.35628 0.04507 0.0
H75 H 0.03501 0.31111 0.02806 0.0
H76 H -0.00049 0.37617 0.00849 0.0
H77 H 0.96232 0.33937 0.98344 0.0
H78 H 0.98824 0.39151 0.00219 0.0
H79 H 0.9516 0.35531 0.97767 0.0
H80 H 0.01821 0.38598 0.03334 0.0
H81 H 0.04481 0.37435 0.00081 0.0
H82 H 0.03839 0.41196 0.03277 0.0
H83 H 0.06449 0.40059 0.00067 0.0
H84 H 0.0078 0.3735 0.08265 0.0
H85 H 0.9683 0.36804 0.0574 0.0
H86 H 0.00877 0.36943 0.92911 0.0
H87 H 0.02612 0.40711 0.96466 0.0
Li88 Li 0.66342 0.65603 0.00236 0.0
Li89 Li 0.65061 0.66678 0.01785 0.0
Li90 Li 0.64501 0.6419 0.02484 0.0
Li91 Li 0.63707 0.64668 0.9964 0.0
C92 C 0.67343 0.65756 0.03751 0.0
N93 N 0.69264 0.65155 0.05581 0.0
C94 C 0.68138 0.66624 0.0522 0.0
C95 C 0.67521 0.64579 0.03214 0.0
C96 C 0.69106 0.66303 0.06127 0.0
C97 C 0.68499 0.64294 0.04157 0.0
C98 C 0.6577 0.67754 0.98002 0.0
C99 C 0.65095 0.6899 0.95794 0.0
N100 N 0.66539 0.70018 0.95575 0.0
C101 C 0.67248 0.68813 0.9774 0.0
C102 C 0.64684 0.67834 0.97008 0.0
C103 C 0.67614 0.69953 0.96513 0.0
C104 C 0.68183 0.65469 0.97568 0.0
N105 N 0.68164 0.6611 0.99153 0.0
C106 C 0.70776 0.67649 0.99095 0.0
C107 C 0.69422 0.67181 0.99924 0.0
C108 C 0.70833 0.67022 0.97445 0.0
C109 C 0.69515 0.65914 0.96683 0.0
H110 H 0.6716 0.64631 0.96981 0.0
H111 H 0.69369 0.67697 0.01163 0.0
C112 C 0.64536 0.68327 0.04341 0.0
N113 N 0.65326 0.6844 0.02836 0.0
C114 C 0.64803 0.69587 0.05283 0.0
C115 C 0.66687 0.71058 0.03103 0.0
C116 C 0.66383 0.69769 0.02204 0.0
C117 C 0.65906 0.70975 0.04681 0.0
H118 H 0.63725 0.67254 0.04839 0.0
H119 H 0.67029 0.69827 0.01043 0.0
C120 C 0.63724 0.62052 0.99804 0.0
N121 N 0.61701 0.59108 0.99283 0.0
C122 C 0.62303 0.61447 0.00509 0.0
C123 C 0.64116 0.61161 0.98832 0.0
C124 C 0.61296 0.59957 0.00232 0.0
C125 C 0.63078 0.59675 0.98584 0.0
C126 C 0.61948 0.65155 0.02115 0.0
C127 C 0.60699 0.64277 0.03155 0.0
C128 C 0.62018 0.66298 0.01085 0.0
C129 C 0.59531 0.64552 0.03135 0.0
C130 C 0.60828 0.66539 0.01102 0.0
N131 N 0.59618 0.65667 0.02117 0.0
C132 C 0.634 0.63214 0.05884 0.0
C133 C 0.64 0.61591 0.04382 0.0
C134 C 0.62814 0.6225 0.07335 0.0
N135 N 0.63945 0.62855 0.04433 0.0
C136 C 0.63409 0.60584 0.058 0.0
C137 C 0.62772 0.60894 0.07284 0.0
H138 H 0.63387 0.64236 0.05888 0.0
H139 H 0.64455 0.61341 0.03217 0.0
C140 C 0.62776 0.63886 0.9609 0.0
N141 N 0.62268 0.63868 0.97782 0.0
C142 C 0.61793 0.63207 0.94669 0.0
C143 C 0.59781 0.62531 0.96752 0.0
C144 C 0.60803 0.63209 0.98136 0.0
C145 C 0.60273 0.62509 0.94997 0.0
H146 H 0.63948 0.64403 0.95855 0.0
H147 H 0.60419 0.63163 0.99497 0.0
O148 O 0.66388 0.66057 0.02858 0.0
O149 O 0.65391 0.66613 0.99171 0.0
O150 O 0.64731 0.63511 0.00042 0.0
O151 O 0.63095 0.6489 0.02119 0.0
H152 H 0.68009 0.67537 0.05652 0.0
H153 H 0.66915 0.63894 0.02082 0.0
H154 H 0.6973 0.66967 0.07266 0.0
H155 H 0.68648 0.63388 0.03756 0.0
H156 H 0.64266 0.69068 0.95021 0.0
H157 H 0.68103 0.68765 0.98488 0.0
H158 H 0.63536 0.67009 0.97163 0.0
H159 H 0.68754 0.70786 0.96307 0.0
H160 H 0.71764 0.68523 0.99712 0.0
H161 H 0.69515 0.65396 0.95418 0.0
H162 H 0.64169 0.69474 0.06486 0.0
H163 H 0.67567 0.72102 0.02612 0.0
H164 H 0.61978 0.62117 0.01268 0.0
H165 H 0.65212 0.61615 0.98275 0.0
H166 H 0.60193 0.59474 0.00771 0.0
H167 H 0.63366 0.58971 0.97835 0.0
H168 H 0.60632 0.63389 0.03963 0.0
H169 H 0.62984 0.66999 0.00296 0.0
H170 H 0.58554 0.63878 0.03929 0.0
H171 H 0.60867 0.67421 0.00311 0.0
H172 H 0.62367 0.62552 0.08467 0.0
H173 H 0.63394 0.5955 0.05696 0.0
H174 H 0.62215 0.63217 0.93332 0.0
H175 H 0.58618 0.6198 0.97066 0.0
Li176 Li 0.34997 0.99369 0.99797 0.0
Li177 Li 0.35312 0.00507 0.02795 0.0
Li178 Li 0.32867 0.9872 0.01832 0.0
Li179 Li 0.34235 0.01183 0.00468 0.0
C180 C 0.3417 0.96948 0.02028 0.0
N181 N 0.33435 0.94046 0.01603 0.0
C182 C 0.34823 0.96353 0.03116 0.0
C183 C 0.33144 0.96068 0.00724 0.0
C184 C 0.34437 0.94883 0.0288 0.0
C185 C 0.32786 0.94604 0.00531 0.0
C186 C 0.37031 0.02783 0.99631 0.0
C187 C 0.37984 0.05402 0.99505 0.0
N188 N 0.38525 0.05436 0.97827 0.0
C189 C 0.37607 0.02847 0.97911 0.0
C190 C 0.37231 0.04073 0.00441 0.0
C191 C 0.38356 0.04198 0.9702 0.0
C192 C 0.35715 0.98915 0.96267 0.0
N193 N 0.35859 0.98721 0.9805 0.0
C194 C 0.37558 0.97906 0.974 0.0
C195 C 0.36743 0.98211 0.98632 0.0
C196 C 0.37491 0.98163 0.95552 0.0
C197 C 0.36528 0.98645 0.94987 0.0
H198 H 0.35026 0.99353 0.95848 0.0
H199 H 0.36857 0.98091 0.0006 0.0
C200 C 0.36305 0.00085 0.06111 0.0
N201 N 0.36597 0.01104 0.0481 0.0
C202 C 0.37319 0.00374 0.07485 0.0
C203 C 0.3889 0.02779 0.06192 0.0
C204 C 0.37846 0.02441 0.0484 0.0
C205 C 0.38651 0.01724 0.07512 0.0
H206 H 0.35309 0.99023 0.06037 0.0
H207 H 0.38058 0.03225 0.03779 0.0
C208 C 0.3198 0.98748 0.98058 0.0
N209 N 0.29666 0.97745 0.95656 0.0
C210 C 0.31078 0.99371 0.98041 0.0
C211 C 0.31713 0.97625 0.96838 0.0
C212 C 0.29912 0.98846 0.96821 0.0
C213 C 0.30535 0.9713 0.95639 0.0
C214 C 0.33654 0.011 0.04719 0.0
C215 C 0.33006 0.00057 0.06091 0.0
C216 C 0.34495 0.02592 0.0516 0.0
C217 C 0.33221 0.00524 0.07886 0.0
C218 C 0.34685 0.03014 0.06971 0.0
N219 N 0.3405 0.0198 0.08286 0.0
C220 C 0.30806 0.96167 0.03785 0.0
C221 C 0.29802 0.97396 0.02171 0.0
C222 C 0.29432 0.95198 0.04529 0.0
N223 N 0.30965 0.9724 0.02628 0.0
C224 C 0.28408 0.96448 0.02874 0.0
C225 C 0.28212 0.95344 0.04093 0.0
H226 H 0.31755 0.96101 0.04197 0.0
H227 H 0.29964 0.98293 0.01316 0.0
C228 C 0.3422 0.02857 0.9754 0.0
N229 N 0.3396 0.02642 0.99341 0.0
C230 C 0.3391 0.03824 0.9662 0.0
C231 C 0.33059 0.04321 0.99423 0.0
C232 C 0.33398 0.03353 0.00293 0.0
C233 C 0.33305 0.04556 0.97559 0.0
H234 H 0.34634 0.02247 0.96813 0.0
H235 H 0.33177 0.03138 0.01718 0.0
O236 O 0.34553 0.9839 0.02232 0.0
O237 O 0.36275 0.01466 0.00514 0.0
O238 O 0.33148 0.99266 0.99217 0.0
O239 O 0.33489 0.0066 0.02956 0.0
H240 H 0.35625 0.97022 0.04127 0.0
H241 H 0.32621 0.96507 0.99883 0.0
H242 H 0.34935 0.94408 0.03711 0.0
H243 H 0.31991 0.9391 0.99529 0.0
H244 H 0.38134 0.06405 0.0011 0.0
H245 H 0.37478 0.01866 0.9727 0.0
H246 H 0.36789 0.04044 0.01767 0.0
H247 H 0.38802 0.04262 0.95685 0.0
H248 H 0.38262 0.9751 0.979 0.0
H249 H 0.36454 0.9888 0.93583 0.0
H250 H 0.37095 0.9952 0.08458 0.0
H251 H 0.39893 0.03839 0.06174 0.0
H252 H 0.31266 0.00241 0.98972 0.0
H253 H 0.3241 0.97142 0.96812 0.0
H254 H 0.29202 0.99314 0.96801 0.0
H255 H 0.30314 0.96259 0.94691 0.0
H256 H 0.32359 0.98898 0.05776 0.0
H257 H 0.35005 0.03414 0.04116 0.0
H258 H 0.32732 0.99728 0.08962 0.0
H259 H 0.35339 0.04164 0.07333 0.0
H260 H 0.29342 0.94387 0.05496 0.0
H261 H 0.27499 0.96599 0.02492 0.0
H262 H 0.34094 0.03957 0.95178 0.0
H263 H 0.32601 0.0487 0.00196 0.0
Li264 Li 0.01262 0.67017 0.01638 0.0
Li265 Li 0.99404 0.6449 0.02373 0.0
Li266 Li 0.00692 0.65055 0.994 0.0
Li267 Li 0.98824 0.65727 0.0004 0.0
C268 C 0.0298 0.65703 0.02137 0.0
N269 N 0.05901 0.66547 0.02661 0.0
C270 C 0.03425 0.65349 0.03742 0.0
C271 C 0.04018 0.66468 0.0079 0.0
C272 C 0.04907 0.65791 0.03984 0.0
C273 C 0.05489 0.6689 0.01082 0.0
C274 C 0.98603 0.6612 0.04274 0.0
C275 C 0.96437 0.65194 0.06141 0.0
N276 N 0.97306 0.65747 0.07624 0.0
C277 C 0.99474 0.66693 0.05813 0.0
C278 C 0.97072 0.65376 0.04435 0.0
C279 C 0.98798 0.66488 0.07496 0.0
C280 C 0.02769 0.70088 0.01947 0.0
N281 N 0.02679 0.68849 0.02635 0.0
C282 C 0.04355 0.70228 0.04991 0.0
C283 C 0.03458 0.68895 0.04117 0.0
C284 C 0.04441 0.71523 0.04342 0.0
C285 C 0.03657 0.71447 0.02776 0.0
H286 H 0.02111 0.70012 0.00788 0.0
H287 H 0.03335 0.67891 0.04669 0.0
C288 C 0.97578 0.61706 0.03988 0.0
N289 N 0.98707 0.63095 0.0428 0.0
C290 C 0.97206 0.60619 0.05292 0.0
C291 C 0.9914 0.62422 0.07193 0.0
C292 C 0.99473 0.63474 0.05852 0.0
C293 C 0.98016 0.60963 0.06902 0.0
H294 H 0.97005 0.61423 0.02715 0.0
H295 H 0.00386 0.64579 0.06033 0.0
C296 C 0.01622 0.6775 0.97548 0.0
N297 N 0.03219 0.69322 0.94567 0.0
C298 C 0.00917 0.676 0.95901 0.0
C299 C 0.03136 0.68727 0.97687 0.0
C300 C 0.01744 0.68395 0.94407 0.0
C301 C 0.03924 0.69504 0.96163 0.0
C302 C 0.97237 0.62846 0.99172 0.0
C303 C 0.97144 0.62225 0.97474 0.0
C304 C 0.9595 0.62567 0.00064 0.0
C305 C 0.95765 0.61354 0.96684 0.0
C306 C 0.94592 0.61692 0.99229 0.0
N307 N 0.94528 0.6111 0.97569 0.0
C308 C 0.02042 0.63491 0.9817 0.0
C309 C 0.01065 0.64282 0.95839 0.0
C310 C 0.02368 0.6269 0.96941 0.0
N311 N 0.01393 0.64258 0.97606 0.0
C312 C 0.01355 0.6348 0.94565 0.0
C313 C 0.01985 0.62641 0.95117 0.0
H314 H 0.0225 0.63448 0.99588 0.0
H315 H 0.00492 0.64843 0.95434 0.0
C316 C 0.96955 0.66909 0.99864 0.0
N317 N 0.97378 0.66055 0.98965 0.0
C318 C 0.95985 0.67279 0.99064 0.0
C319 C 0.95894 0.65871 0.96435 0.0
C320 C 0.9687 0.65535 0.97283 0.0
C321 C 0.95451 0.66767 0.9732 0.0
H322 H 0.97395 0.67328 0.01189 0.0
H323 H 0.97253 0.64891 0.96577 0.0
O324 O 0.01533 0.65286 0.01883 0.0
O325 O 0.99246 0.66298 0.02617 0.0
O326 O 0.00825 0.66994 0.99033 0.0
O327 O 0.9858 0.63716 -0.00042 0.0
H328 H 0.02635 0.64745 0.04793 0.0
H329 H 0.03686 0.66712 0.99522 0.0
H330 H 0.05268 0.65532 0.05224 0.0
H331 H 0.06303 0.67483 0.00049 0.0
H332 H 0.95253 0.64616 0.06286 0.0
H333 H 0.0066 0.67277 0.05714 0.0
H334 H 0.9638 0.64952 0.03256 0.0
H335 H 0.9946 0.66915 0.087 0.0
H336 H 0.0495 0.7024 0.06187 0.0
H337 H 0.03676 0.72415 0.02245 0.0
H338 H 0.96324 0.5951 0.05018 0.0
H339 H 0.99809 0.62733 0.08399 0.0
H340 H 0.99746 0.66867 0.95771 0.0
H341 H 0.03697 0.68895 0.98961 0.0
H342 H 0.01213 0.68277 0.9312 0.0
H343 H 0.05097 0.70258 0.96252 0.0
H344 H 0.98125 0.62413 0.96772 0.0
H345 H 0.96001 0.63023 0.01386 0.0
H346 H 0.95678 0.60873 0.95367 0.0
H347 H 0.93588 0.61474 0.99901 0.0
H348 H 0.02871 0.62076 0.97429 0.0
H349 H 0.01011 0.63452 0.93184 0.0
H350 H 0.95664 0.67965 0.99797 0.0
H351 H 0.95528 0.65474 0.95078 0.0
Li352 Li 0.33249 0.34714 0.01717 0.0
Li353 Li 0.35729 0.35361 0.02388 0.0
Li354 Li 0.35169 0.36085 0.99569 0.0
Li355 Li 0.34374 0.33546 0.00126 0.0
C356 C 0.34533 0.37748 0.01876 0.0
N357 N 0.33666 0.39823 0.01611 0.0
C358 C 0.35197 0.39011 0.02951 0.0
C359 C 0.33425 0.37539 0.00667 0.0
C360 C 0.34744 0.40048 0.02798 0.0
C361 C 0.33004 0.38602 0.00552 0.0
C362 C 0.3357 0.33173 0.04527 0.0
C363 C 0.32539 0.31512 0.07046 0.0
N364 N 0.32821 0.32667 0.08135 0.0
C365 C 0.33851 0.34344 0.05672 0.0
C366 C 0.3291 0.31746 0.05218 0.0
C367 C 0.33463 0.34066 0.07491 0.0
C368 C 0.30213 0.331 0.02106 0.0
N369 N 0.3143 0.34321 0.02721 0.0
C370 C 0.30014 0.34714 0.04938 0.0
C371 C 0.31357 0.35139 0.04096 0.0
C372 C 0.28738 0.33435 0.04361 0.0
C373 C 0.28847 0.32636 0.02906 0.0
H374 H 0.30312 0.32465 0.0102 0.0
H375 H 0.32347 0.36093 0.04579 0.0
C376 C 0.38048 0.37532 0.04279 0.0
N377 N 0.372 0.36045 0.04196 0.0
C378 C 0.39112 0.38193 0.05615 0.0
C379 C 0.38448 0.35775 0.06727 0.0
C380 C 0.37386 0.35158 0.05367 0.0
C381 C 0.3931 0.37313 0.06877 0.0
H382 H 0.37883 0.38205 0.03316 0.0
H383 H 0.36693 0.33977 0.05269 0.0
C384 C 0.32981 0.34048 0.97285 0.0
N385 N 0.32539 0.33397 0.93648 0.0
C386 C 0.34168 0.34336 0.96166 0.0
C387 C 0.3157 0.33429 0.96553 0.0
C388 C 0.33922 0.33999 0.94331 0.0
C389 C 0.31369 0.33108 0.94711 0.0
C390 C 0.37398 0.34705 0.00107 0.0
C391 C 0.38717 0.35393 0.99139 0.0
C392 C 0.3708 0.33509 0.01218 0.0
C393 C 0.397 0.34873 0.99301 0.0
C394 C 0.38092 0.33023 0.01345 0.0
N395 N 0.3937 0.33709 0.00392 0.0
C396 C 0.37492 0.3846 0.97957 0.0
C397 C 0.35232 0.37878 0.96573 0.0
C398 C 0.38274 0.39563 0.96697 0.0
N399 N 0.36005 0.3763 0.97855 0.0
C400 C 0.35974 0.38974 0.95277 0.0
C401 C 0.37519 0.39813 0.95311 0.0
H402 H 0.38071 0.38245 0.99006 0.0
H403 H 0.34047 0.37203 0.96528 0.0
C404 C 0.32748 0.30508 0.99709 0.0
N405 N 0.33941 0.31736 0.99059 0.0
C406 C 0.32284 0.29145 0.98899 0.0
C407 C 0.34289 0.3034 0.96767 0.0
C408 C 0.34725 0.31678 0.97632 0.0
C409 C 0.33046 0.29056 0.97392 0.0
H410 H 0.32139 0.30595 0.00833 0.0
H411 H 0.3567 0.32673 0.97142 0.0
O412 O 0.3497 0.36728 0.02022 0.0
O413 O 0.33932 0.33409 0.02736 0.0
O414 O 0.33184 0.34358 0.99089 0.0
O415 O 0.3643 0.35207 -0.00048 0.0
H416 H 0.36052 0.39187 0.03898 0.0
H417 H 0.32891 0.36569 0.99828 0.0
H418 H 0.35248 0.4103 0.03622 0.0
H419 H 0.32149 0.38454 0.99623 0.0
H420 H 0.32027 0.30412 0.07599 0.0
H421 H 0.34363 0.35457 0.05167 0.0
H422 H 0.32687 0.30827 0.0435 0.0
H423 H 0.33674 0.34962 0.0839 0.0
H424 H 0.29986 0.35352 0.06071 0.0
H425 H 0.2789 0.31654 0.02403 0.0
H426 H 0.39773 0.39381 0.05662 0.0
H427 H 0.38565 0.35061 0.07678 0.0
H428 H 0.35269 0.34815 0.96704 0.0
H429 H 0.30639 0.33198 0.97402 0.0
H430 H 0.34831 0.34217 0.93451 0.0
H431 H 0.30282 0.32628 0.94127 0.0
H432 H 0.38978 0.36318 0.98269 0.0
H433 H 0.36064 0.32956 0.01973 0.0
H434 H 0.40726 0.35396 0.9856 0.0
H435 H 0.3786 0.32099 0.02201 0.0
H436 H 0.39462 0.40204 0.96797 0.0
H437 H 0.35351 0.39129 0.94227 0.0
H438 H 0.31312 0.28181 0.99409 0.0
H439 H 0.34912 0.30311 0.95619 0.0
Li440 Li 0.65466 0.98349 0.0147 0.0
Li441 Li 0.64685 0.00125 0.01996 0.0
Li442 Li 0.64384 0.9897 0.99016 0.0
Li443 Li 0.66822 0.00794 0.00022 0.0
C444 C 0.62453 0.96645 0.01873 0.0
N445 N 0.60468 0.93828 0.03017 0.0
C446 C 0.61678 0.96426 0.03486 0.0
C447 C 0.62204 0.95433 0.00832 0.0
C448 C 0.60683 0.94993 0.04044 0.0
C449 C 0.612 0.94017 0.01436 0.0
C450 C 0.66817 0.00169 0.04444 0.0
C451 C 0.68423 0.0062 0.06979 0.0
N452 N 0.67229 0.99804 0.08043 0.0
C453 C 0.65608 0.99336 0.05563 0.0
C454 C 0.68237 0.00817 0.05156 0.0
C455 C 0.65838 0.99164 0.07379 0.0
C456 C 0.66917 0.96761 0.01948 0.0
N457 N 0.65776 0.96894 0.02583 0.0
C458 C 0.65376 0.95218 0.0498 0.0
C459 C 0.64996 0.96133 0.04058 0.0
C460 C 0.66572 0.95087 0.04381 0.0
C461 C 0.67331 0.95852 0.02824 0.0
H462 H 0.67537 0.97401 0.00793 0.0
H463 H 0.64113 0.96273 0.04565 0.0
C464 C 0.62267 0.00184 0.03269 0.0
N465 N 0.63722 0.00766 0.03616 0.0
C466 C 0.61372 0.00391 0.04476 0.0
C467 C 0.63506 0.01871 0.06332 0.0
C468 C 0.64364 0.01634 0.05081 0.0
C469 C 0.6198 0.01209 0.06059 0.0
H470 H 0.61793 0.99509 0.02082 0.0
H471 H 0.65529 0.02096 0.05316 0.0
C472 C 0.66155 0.98141 0.97405 0.0
N473 N 0.66052 0.9673 0.94215 0.0
C474 C 0.66792 0.98957 0.95841 0.0
C475 C 0.65492 0.9661 0.97355 0.0
C476 C 0.66721 0.98223 0.94239 0.0
C477 C 0.65445 0.95916 0.95728 0.0
C478 C 0.65522 0.02526 0.9976 0.0
C479 C 0.64932 0.03145 0.98609 0.0
C480 C 0.66515 0.0339 0.01103 0.0
C481 C 0.65346 0.04624 0.98821 0.0
C482 C 0.669 0.04864 0.01272 0.0
N483 N 0.66312 0.05446 0.00137 0.0
C484 C 0.61743 0.97351 0.96977 0.0
C485 C 0.6378 0.99293 0.95466 0.0
C486 C 0.60825 0.97166 0.95519 0.0
N487 N 0.63185 0.98413 0.9693 0.0
C488 C 0.62909 0.99141 0.93977 0.0
C489 C 0.61399 0.98097 0.94012 0.0
H490 H 0.61282 0.96703 0.98182 0.0
H491 H 0.64918 0.00164 0.95492 0.0
C492 C 0.69929 0.02465 0.99888 0.0
N493 N 0.68665 0.0226 0.9913 0.0
C494 C 0.71283 0.03392 0.99065 0.0
C495 C 0.70002 0.03892 0.96718 0.0
C496 C 0.68677 0.02965 0.97591 0.0
C497 C 0.71324 0.04093 0.97436 0.0
H498 H 0.6988 0.01862 0.0109 0.0
H499 H 0.67651 0.02759 0.97003 0.0
O500 O 0.63437 0.98041 0.01311 0.0
O501 O 0.66619 0.00338 0.02656 0.0
O502 O 0.66211 0.98841 0.98986 0.0
O503 O 0.65125 0.01079 0.99562 0.0
H504 H 0.61849 0.97351 0.04307 0.0
H505 H 0.62771 0.95584 0.99566 0.0
H506 H 0.60082 0.94807 0.05294 0.0
H507 H 0.61 0.93069 0.00645 0.0
H508 H 0.69516 0.01115 0.07547 0.0
H509 H 0.64503 0.98821 0.05034 0.0
H510 H 0.69187 0.01465 0.04309 0.0
H511 H 0.6491 0.98519 0.08257 0.0
H512 H 0.64754 0.94638 0.06167 0.0
H513 H 0.68272 0.95797 0.0233 0.0
H514 H 0.60207 0.99888 0.04192 0.0
H515 H 0.64018 0.02508 0.07536 0.0
H516 H 0.67328 0.00144 0.9586 0.0
H517 H 0.65032 0.95964 0.98563 0.0
H518 H 0.67198 0.9884 0.93015 0.0
H519 H 0.6493 0.9473 0.95668 0.0
H520 H 0.64164 0.02489 0.97561 0.0
H521 H 0.66987 0.02933 0.02004 0.0
H522 H 0.64898 0.05119 0.97939 0.0
H523 H 0.67666 0.05546 0.02305 0.0
H524 H 0.59664 0.96366 0.95622 0.0
H525 H 0.63401 0.99874 0.9284 0.0
H526 H 0.72277 0.03506 0.99651 0.0
H527 H 0.69988 0.04422 0.95473 0.0
Li528 Li 0.65109 0.66663 0.33369 0.0
Li529 Li 0.67385 0.67799 0.35093 0.0
Li530 Li 0.65564 0.68577 0.35483 0.0
Li531 Li 0.67059 0.69184 0.32758 0.0
C532 C 0.64414 0.65218 0.36447 0.0
N533 N 0.62508 0.62274 0.37152 0.0
C534 C 0.64964 0.64278 0.36797 0.0
C535 C 0.62896 0.64662 0.36471 0.0
C536 C 0.63982 0.62793 0.37148 0.0
C537 C 0.6195 0.6317 0.36824 0.0
C538 C 0.67751 0.67558 0.30841 0.0
C539 C 0.69872 0.68726 0.28891 0.0
N540 N 0.68984 0.68107 0.27436 0.0
C541 C 0.66859 0.66931 0.29328 0.0
C542 C 0.6927 0.6846 0.30624 0.0
C543 C 0.67504 0.67222 0.27617 0.0
C544 C 0.62484 0.64682 0.31475 0.0
N545 N 0.63716 0.64856 0.32295 0.0
C546 C 0.63109 0.62415 0.31496 0.0
C547 C 0.64048 0.63764 0.32309 0.0
C548 C 0.61834 0.62202 0.30627 0.0
C549 C 0.61522 0.63354 0.30621 0.0
H550 H 0.62262 0.65579 0.31459 0.0
H551 H 0.65056 0.63951 0.32934 0.0
C552 C 0.68799 0.67448 0.38124 0.0
N553 N 0.68714 0.67372 0.36295 0.0
C554 C 0.69718 0.67066 0.39034 0.0
C555 C 0.70412 0.66498 0.36163 0.0
C556 C 0.69493 0.66907 0.35307 0.0
C557 C 0.7053 0.66572 0.3805 0.0
H558 H 0.68136 0.67785 0.38876 0.0
H559 H 0.69382 0.6683 0.33857 0.0
C560 C 0.64007 0.6897 0.33021 0.0
N561 N 0.62225 0.70189 0.33352 0.0
C562 C 0.64523 0.70424 0.32491 0.0
C563 C 0.62581 0.68133 0.33708 0.0
C564 C 0.63605 0.71021 0.3267 0.0
C565 C 0.61699 0.68771 0.33869 0.0
C566 C 0.68865 0.70463 0.36429 0.0
C567 C 0.68617 0.70723 0.38209 0.0
C568 C 0.70277 0.70802 0.35894 0.0
C569 C 0.69787 0.71313 0.39429 0.0
C570 C 0.71417 0.71388 0.37156 0.0
N571 N 0.7115 0.71629 0.38882 0.0
C572 C 0.63818 0.68465 0.3849 0.0
C573 C 0.65144 0.70771 0.37017 0.0
C574 C 0.63274 0.69058 0.39758 0.0
N575 N 0.64735 0.69326 0.37158 0.0
C576 C 0.64616 0.71404 0.38241 0.0
C577 C 0.63677 0.70547 0.39642 0.0
H578 H 0.63528 0.67325 0.38586 0.0
H579 H 0.65902 0.71436 0.35967 0.0
C580 C 0.67273 0.7043 0.29332 0.0
N581 N 0.67984 0.70627 0.30926 0.0
C582 C 0.67862 0.71521 0.2801 0.0
C583 C 0.69923 0.72981 0.29979 0.0
C584 C 0.69291 0.71863 0.31264 0.0
C585 C 0.69194 0.7283 0.28338 0.0
H586 H 0.66225 0.69441 0.29111 0.0
H587 H 0.69827 0.71997 0.32547 0.0
O588 O 0.65356 0.6667 0.36069 0.0
O589 O 0.67137 0.67318 0.32523 0.0
O590 O 0.64898 0.68375 0.32889 0.0
O591 O 0.67731 0.69869 0.35219 0.0
H592 H 0.66135 0.64687 0.36779 0.0
H593 H 0.62452 0.65373 0.36198 0.0
H594 H 0.64391 0.62052 0.37411 0.0
H595 H 0.60772 0.62724 0.36834 0.0
H596 H 0.71045 0.69429 0.28702 0.0
H597 H 0.6568 0.6624 0.29469 0.0
H598 H 0.69974 0.68964 0.31781 0.0
H599 H 0.66827 0.66749 0.26433 0.0
H600 H 0.63401 0.61563 0.31501 0.0
H601 H 0.60548 0.63229 0.29963 0.0
H602 H 0.69764 0.67118 0.40493 0.0
H603 H 0.71027 0.6613 0.35357 0.0
H604 H 0.65627 0.71092 0.3197 0.0
H605 H 0.62166 0.67009 0.3413 0.0
H606 H 0.63993 0.72147 0.32275 0.0
H607 H 0.60596 0.68139 0.34409 0.0
H608 H 0.67531 0.7046 0.38651 0.0
H609 H 0.70486 0.70593 0.34528 0.0
H610 H 0.69609 0.71515 0.40812 0.0
H611 H 0.72512 0.71646 0.36764 0.0
H612 H 0.62551 0.68361 0.40818 0.0
H613 H 0.64976 0.72563 0.38124 0.0
H614 H 0.6725 0.71366 0.26779 0.0
H615 H 0.7096 0.73962 0.30281 0.0
Li616 Li 0.30072 0.97973 0.33353 0.0
Li617 Li 0.30889 0.97311 0.36145 0.0
Li618 Li 0.31737 -0.00065 0.35357 0.0
Li619 Li 0.3272 0.98609 0.33732 0.0
C620 C 0.2832 0.98022 0.36156 0.0
N621 N 0.25459 0.97407 0.36626 0.0
C622 C 0.27334 0.96809 0.37184 0.0
C623 C 0.27855 0.98929 0.3538 0.0
C624 C 0.25891 0.96515 0.37403 0.0
C625 C 0.26403 0.98597 0.35629 0.0
C626 C 0.30623 0.95265 0.33281 0.0
C627 C 0.3141 0.93472 0.33151 0.0
N628 N 0.30054 0.92448 0.32548 0.0
C629 C 0.29242 0.94198 0.32642 0.0
C630 C 0.31721 0.94903 0.33523 0.0
C631 C 0.28974 0.92779 0.32286 0.0
C632 C 0.28799 0.97705 0.29924 0.0
N633 N 0.28497 0.97274 0.31674 0.0
C634 C 0.2597 0.95644 0.30972 0.0
C635 C 0.27116 0.96265 0.32213 0.0
C636 C 0.26251 0.96021 0.29137 0.0
C637 C 0.27687 0.97087 0.28624 0.0
H638 H 0.29914 0.98493 0.29528 0.0
H639 H 0.26909 0.95898 0.33594 0.0
C640 C 0.30661 0.96448 0.39768 0.0
N641 N 0.30276 0.95923 0.38059 0.0
C642 C 0.30157 0.95483 0.41233 0.0
C643 C 0.28899 0.93456 0.39147 0.0
C644 C 0.29412 0.9446 0.37727 0.0
C645 C 0.29258 0.93966 0.40927 0.0
H646 H 0.31337 0.9762 0.39993 0.0
H647 H 0.29082 0.9407 0.36369 0.0
C648 C 0.32353 0.01181 0.32084 0.0
N649 N 0.33248 0.03998 0.30908 0.0
C650 C 0.33839 0.02162 0.31733 0.0
C651 C 0.31319 0.01623 0.3181 0.0
C652 C 0.3427 0.03584 0.31147 0.0
C653 C 0.31794 0.03055 0.31223 0.0
C654 C 0.34005 0.99011 0.372 0.0
C655 C 0.35186 0.00284 0.37927 0.0
C656 C 0.33962 0.97667 0.3737 0.0
C657 C 0.36319 0.00195 0.38787 0.0
C658 C 0.35114 0.97622 0.38242 0.0
N659 N 0.3626 0.98877 0.38925 0.0
C660 C 0.31305 0.02014 0.37291 0.0
C661 C 0.33717 0.02898 0.36162 0.0
C662 C 0.31739 0.03367 0.38109 0.0
N663 N 0.32293 0.01807 0.36342 0.0
C664 C 0.34195 0.04274 0.36944 0.0
C665 C 0.33203 0.04515 0.37949 0.0
H666 H 0.30189 0.0112 0.37446 0.0
H667 H 0.34488 0.02689 0.35443 0.0
C668 C 0.34211 0.97944 0.31068 0.0
N669 N 0.34396 0.98805 0.32525 0.0
C670 C 0.35432 0.98096 0.30129 0.0
C671 C 0.37006 0.00033 0.32197 0.0
C672 C 0.35755 0.99846 0.3309 0.0
C673 C 0.36854 0.99154 0.30691 0.0
H674 H 0.33114 0.97149 0.30623 0.0
H675 H 0.35869 0.00545 0.34219 0.0
O676 O 0.29734 0.9832 0.35921 0.0
O677 O 0.30902 0.9666 0.33632 0.0
O678 O 0.31912 0.99791 0.32678 0.0
O679 O 0.32891 0.99083 0.36351 0.0
H680 H 0.27676 0.96098 0.378 0.0
H681 H 0.28606 0.99877 0.34591 0.0
H682 H 0.25114 0.95577 0.38189 0.0
H683 H 0.26027 0.99286 0.35031 0.0
H684 H 0.32249 0.93177 0.33336 0.0
H685 H 0.28382 0.94458 0.32436 0.0
H686 H 0.32806 0.95719 0.33975 0.0
H687 H 0.27907 0.91941 0.31803 0.0
H688 H 0.2488 0.94851 0.31448 0.0
H689 H 0.27967 0.97399 0.27226 0.0
H690 H 0.30456 0.95917 0.42589 0.0
H691 H 0.28182 0.92299 0.38857 0.0
H692 H 0.34652 0.01833 0.31928 0.0
H693 H 0.30162 0.00868 0.32046 0.0
H694 H 0.35418 0.0436 0.30883 0.0
H695 H 0.31007 0.03415 0.31013 0.0
H696 H 0.35231 0.01332 0.37818 0.0
H697 H 0.33043 0.96668 0.36851 0.0
H698 H 0.37244 0.01173 0.39347 0.0
H699 H 0.35095 0.96589 0.38381 0.0
H700 H 0.3094 0.03512 0.38869 0.0
H701 H 0.35339 0.05122 0.36815 0.0
H702 H 0.35262 0.97415 0.28955 0.0
H703 H 0.38079 0.00856 0.32685 0.0
Li704 Li 0.01759 0.32276 0.32713 0.0
Li705 Li 0.02603 0.33526 0.35511 0.0
Li706 Li 8e-05 0.31724 0.3506 0.0
Li707 Li 0.01147 0.34107 0.3349 0.0
C708 C 0.02737 0.30977 0.35237 0.0
N709 N 0.04875 0.30202 0.35581 0.0
C710 C 0.04092 0.31795 0.34363 0.0
C711 C 0.02471 0.29766 0.36286 0.0
C712 C 0.05158 0.31385 0.34554 0.0
C713 C 0.03565 0.29391 0.36443 0.0
C714 C 0.04128 0.35865 0.33143 0.0
C715 C 0.0508 0.38235 0.34572 0.0
N716 N 0.06158 0.38838 0.33301 0.0
C717 C 0.05243 0.36509 0.31849 0.0
C718 C 0.04043 0.36734 0.34515 0.0
C719 C 0.06259 0.38014 0.31953 0.0
C720 C 0.02854 0.32478 0.29264 0.0
N721 N 0.02299 0.31542 0.30683 0.0
C722 C 0.02797 0.29816 0.29212 0.0
C723 C 0.0222 0.30211 0.30666 0.0
C724 C 0.03447 0.30796 0.27762 0.0
C725 C 0.03427 0.32122 0.27778 0.0
H726 H 0.02882 0.3352 0.2931 0.0
H727 H 0.01757 0.2948 0.31808 0.0
C728 C 0.03849 0.34021 0.39003 0.0
N729 N 0.04168 0.34275 0.37217 0.0
C730 C 0.04981 0.34465 0.40266 0.0
C731 C 0.06742 0.3545 0.37826 0.0
C732 C 0.05581 0.34977 0.36615 0.0
C733 C 0.06453 0.35176 0.39678 0.0
H734 H 0.02713 0.33442 0.3944 0.0
H735 H 0.05811 0.35143 0.35189 0.0
C736 C 0.99218 0.31134 0.31139 0.0
N737 N 0.98134 0.29134 0.28333 0.0
C738 C 0.99133 0.31599 0.29403 0.0
C739 C 0.98745 0.29651 0.31451 0.0
C740 C 0.98583 0.30571 0.28001 0.0
C741 C 0.98202 0.28657 0.30014 0.0
C742 C 0.99813 0.33902 0.36948 0.0
C743 C 0.9854 0.3357 0.35988 0.0
C744 C -0.00044 0.34363 0.38742 0.0
C745 C 0.97432 0.33711 0.3684 0.0
C746 C 0.98823 0.34492 0.39546 0.0
N747 N 0.97595 0.34165 0.38586 0.0
C748 C 0.98327 0.29764 0.37838 0.0
C749 C 0.96948 0.29914 0.35408 0.0
C750 C 0.97035 0.28803 0.3876 0.0
N751 N 0.98256 0.30302 0.36201 0.0
C752 C 0.95632 0.28962 0.36282 0.0
C753 C 0.95663 0.28402 0.37989 0.0
H754 H 0.99387 0.30102 0.38437 0.0
H755 H 0.96927 0.30376 0.34114 0.0
C756 C 0.01203 0.3582 0.3068 0.0
N757 N 0.00928 0.3564 0.32478 0.0
C758 C 0.01088 0.36903 0.29743 0.0
C759 C 0.00441 0.37627 0.32538 0.0
C760 C 0.00586 0.36537 0.33426 0.0
C761 C 0.0068 0.37813 0.30665 0.0
H762 H 0.01526 0.35124 0.29978 0.0
H763 H 0.00429 0.36414 0.34868 0.0
O764 O 0.01675 0.31358 0.35088 0.0
O765 O 0.03123 0.34393 0.33043 0.0
O766 O 0.99789 0.32127 0.32522 0.0
O767 O 0.00897 0.33735 0.36161 0.0
H768 H 0.04319 0.32734 0.33542 0.0
H769 H 0.01429 0.29123 0.36974 0.0
H770 H 0.0621 0.32009 0.33884 0.0
H771 H 0.03374 0.28455 0.37251 0.0
H772 H 0.05028 0.3892 0.35626 0.0
H773 H 0.05321 0.35851 0.30777 0.0
H774 H 0.03189 0.36259 0.35528 0.0
H775 H 0.07129 0.38527 0.30962 0.0
H776 H 0.02795 0.28786 0.29265 0.0
H777 H 0.03882 0.32896 0.26673 0.0
H778 H 0.04703 0.34212 0.41676 0.0
H779 H 0.07856 0.36014 0.37309 0.0
H780 H 0.9949 0.32741 0.29138 0.0
H781 H 0.98818 0.29276 0.32784 0.0
H782 H 0.98516 0.30916 0.26649 0.0
H783 H 0.97841 0.27508 0.30234 0.0
H784 H 0.98411 0.3321 0.34599 0.0
H785 H 0.00931 0.34614 0.39506 0.0
H786 H 0.96441 0.33459 0.36114 0.0
H787 H 0.98919 0.34848 0.40933 0.0
H788 H 0.97112 0.28385 0.40063 0.0
H789 H 0.94603 0.28705 0.35649 0.0
H790 H 0.0133 0.37033 0.28314 0.0
H791 H 0.00126 0.38302 0.33307 0.0
Li792 Li 0.6799 0.99579 0.34927 0.0
Li793 Li 0.66195 0.96879 0.35431 0.0
Li794 Li 0.67673 0.97879 0.32573 0.0
Li795 Li 0.65744 0.98331 0.33235 0.0
C796 C 0.69552 0.98422 0.3622 0.0
N797 N 0.71895 0.99497 0.38589 0.0
C798 C 0.69384 0.97768 0.37909 0.0
C799 C 0.70919 0.99613 0.3573 0.0
C800 C 0.7058 0.98329 0.39089 0.0
C801 C 0.72087 0.00144 0.36948 0.0
C802 C 0.64949 0.98964 0.36366 0.0
C803 C 0.62546 0.98319 0.37485 0.0
N804 N 0.62857 0.99724 0.37193 0.0
C805 C 0.65251 0.00403 0.36088 0.0
C806 C 0.63591 0.97913 0.37078 0.0
C807 C 0.64176 0.00765 0.3651 0.0
C808 C 0.69803 0.02649 0.35251 0.0
N809 N 0.69237 0.0136 0.36169 0.0
C810 C 0.70294 0.02644 0.38919 0.0
C811 C 0.6945 0.01334 0.37972 0.0
C812 C 0.70899 0.03996 0.38006 0.0
C813 C 0.70645 0.03985 0.36145 0.0
H814 H 0.69569 0.02641 0.33832 0.0
H815 H 0.68952 0.00294 0.38678 0.0
C816 C 0.65141 0.9398 0.36587 0.0
N817 N 0.65448 0.95336 0.37143 0.0
C818 C 0.64652 0.92827 0.37818 0.0
C819 C 0.64853 0.94502 0.40187 0.0
C820 C 0.65303 0.95615 0.38898 0.0
C821 C 0.64525 0.93081 0.39658 0.0
H822 H 0.65276 0.93796 0.35181 0.0
H823 H 0.6558 0.96713 0.39303 0.0
C824 C 0.68518 0.00216 0.3078 0.0
N825 N 0.70136 0.00993 0.2762 0.0
C826 C 0.67806 0.99788 0.29112 0.0
C827 C 0.70053 0.01048 0.30837 0.0
C828 C 0.68643 0.0019 0.27531 0.0
C829 C 0.70851 0.01427 0.29226 0.0
C830 C 0.64166 0.95563 0.32153 0.0
C831 C 0.63905 0.95788 0.30365 0.0
C832 C 0.63 0.9452 0.33202 0.0
C833 C 0.62489 0.94962 0.29655 0.0
C834 C 0.61599 0.93714 0.32441 0.0
N835 N 0.61375 0.9395 0.30699 0.0
C836 C 0.70085 0.97752 0.31015 0.0
C837 C 0.67909 0.96668 0.29264 0.0
C838 C 0.70796 0.97352 0.29734 0.0
N839 N 0.68664 0.974 0.30763 0.0
C840 C 0.68578 0.96256 0.27944 0.0
C841 C 0.70036 0.96583 0.28179 0.0
H842 H 0.70661 0.98326 0.32221 0.0
H843 H 0.6678 0.96385 0.29101 0.0
C844 C 0.64705 0.99846 0.31171 0.0
N845 N 0.6424 0.9865 0.3225 0.0
C846 C 0.63691 0.00118 0.30307 0.0
C847 C 0.61729 0.9797 0.31761 0.0
C848 C 0.62785 0.97743 0.32602 0.0
C849 C 0.62179 0.99156 0.30566 0.0
H850 H 0.65867 0.00589 0.30969 0.0
H851 H 0.62439 0.96826 0.33511 0.0
O852 O 0.68388 0.97894 0.35052 0.0
O853 O 0.65975 0.98582 0.35929 0.0
O854 O 0.67718 0.99795 0.32346 0.0
O855 O 0.6555 0.96353 0.32873 0.0
H856 H 0.68344 0.96835 0.38307 0.0
H857 H 0.71071 0.00138 0.34434 0.0
H858 H 0.70462 0.97836 0.40402 0.0
H859 H 0.73146 0.01073 0.3659 0.0
H860 H 0.61485 0.97517 0.38026 0.0
H861 H 0.66299 0.01226 0.35534 0.0
H862 H 0.63341 0.96793 0.37294 0.0
H863 H 0.6439 0.01872 0.36291 0.0
H864 H 0.70468 0.02597 0.4035 0.0
H865 H 0.71058 0.04999 0.35393 0.0
H866 H 0.64383 0.91751 0.37325 0.0
H867 H 0.64805 0.94769 0.41586 0.0
H868 H 0.66621 0.99136 0.29038 0.0
H869 H 0.70625 0.01388 0.32111 0.0
H870 H 0.68106 0.99857 0.26233 0.0
H871 H 0.7204 0.02064 0.29253 0.0
H872 H 0.64776 0.96613 0.29542 0.0
H873 H 0.63163 0.94347 0.34596 0.0
H874 H 0.62273 0.95133 0.28278 0.0
H875 H 0.60689 0.92907 0.3324 0.0
H876 H 0.71924 0.9763 0.29964 0.0
H877 H 0.67942 0.9564 0.26782 0.0
H878 H 0.64089 0.01071 0.2944 0.0
H879 H 0.60575 0.97201 0.32006 0.0
Li880 Li 0.03013 0.69171 0.35736 0.0
Li881 Li 0.0036 0.68311 0.35031 0.0
Li882 Li 0.01672 0.67349 0.334 0.0
Li883 Li 0.02177 0.69759 0.32824 0.0
C884 C 0.00763 0.65789 0.36435 0.0
N885 N 0.99746 0.62852 0.37119 0.0
C886 C 0.99317 0.64732 0.36002 0.0
C887 C 0.0169 0.65356 0.37227 0.0
C888 C 0.98825 0.63251 0.36354 0.0
C889 C 0.01155 0.63865 0.3756 0.0
C890 C 0.01476 0.70983 0.36477 0.0
C891 C 0.99752 0.71801 0.37129 0.0
N892 N 0.00296 0.72159 0.38833 0.0
C893 C 0.02025 0.71371 0.3823 0.0
C894 C 0.00338 0.71211 0.35917 0.0
C895 C 0.01412 0.71961 0.39401 0.0
C896 C 0.0581 0.70986 0.37271 0.0
N897 N 0.04427 0.69858 0.37603 0.0
C898 C 0.04992 0.69832 0.40715 0.0
C899 C 0.04005 0.69267 0.39277 0.0
C900 C 0.06426 0.71 0.40414 0.0
C901 C 0.06839 0.71566 0.38662 0.0
H902 H 0.06104 0.71444 0.35928 0.0
H903 H 0.0289 0.68384 0.39502 0.0
C904 C 0.97286 0.67167 0.35192 0.0
N905 N 0.98545 0.67772 0.36176 0.0
C906 C 0.95936 0.66705 0.36039 0.0
C907 C 0.97206 0.67484 0.38896 0.0
C908 C 0.98528 0.67917 0.37996 0.0
C909 C 0.95888 0.66866 0.37914 0.0
H910 H 0.97326 0.67021 0.33755 0.0
H911 H 0.99542 0.68359 0.3875 0.0
C912 C 0.04497 0.68583 0.32525 0.0
N913 N 0.06174 0.67462 0.3113 0.0
C914 C 0.04327 0.68121 0.30727 0.0
C915 C 0.05522 0.68473 0.33612 0.0
C916 C 0.05183 0.67556 0.30048 0.0
C917 C 0.0636 0.67905 0.32881 0.0
C918 C -0.00075 0.68313 0.30843 0.0
C919 C 0.0038 0.68015 0.29201 0.0
C920 C 0.99151 0.69072 0.30851 0.0
C921 C 0.0006 0.68489 0.27597 0.0
C922 C 0.98854 0.6953 0.29218 0.0
N923 N 0.99312 0.69232 0.27638 0.0
C924 C 0.00226 0.64803 0.31272 0.0
C925 C 0.02282 0.64999 0.32826 0.0
C926 C -0.00039 0.63497 0.30457 0.0
N927 N 0.01391 0.65544 0.32397 0.0
C928 C 0.02062 0.63698 0.32034 0.0
C929 C 0.00897 0.62938 0.30817 0.0
H930 H 0.995 0.65227 0.31003 0.0
H931 H 0.03166 0.65574 0.33778 0.0
C932 C 0.02461 0.72393 0.31372 0.0
N933 N 0.02744 0.71283 0.31069 0.0
C934 C 0.0288 0.73518 0.30107 0.0
C935 C 0.03865 0.72332 0.28236 0.0
C936 C 0.03437 0.71238 0.29541 0.0
C937 C 0.03596 0.73496 0.28515 0.0
H938 H 0.01918 0.72411 0.32599 0.0
H939 H 0.0366 0.70356 0.29335 0.0
O940 O 0.01275 0.67238 0.36062 0.0
O941 O 0.02053 0.70389 0.35316 0.0
O942 O 0.03675 0.69148 0.33216 0.0
O943 O 0.00264 0.67893 0.32434 0.0
H944 H 0.9859 0.6505 0.3538 0.0
H945 H 0.02816 0.66163 0.37559 0.0
H946 H 0.97711 0.62419 0.36016 0.0
H947 H 0.01862 0.63512 0.38162 0.0
H948 H 0.98862 0.7197 0.36717 0.0
H949 H 0.02916 0.71222 0.38684 0.0
H950 H -0.00105 0.70916 0.3457 0.0
H951 H 0.01823 0.7226 0.40763 0.0
H952 H 0.04635 0.69369 0.42049 0.0
H953 H 0.0793 0.72481 0.38386 0.0
H954 H 0.94944 0.66235 0.35234 0.0
H955 H 0.97212 0.67601 0.40348 0.0
H956 H 0.0352 0.68163 0.29873 0.0
H957 H 0.05661 0.68805 0.35009 0.0
H958 H 0.05053 0.67185 0.28664 0.0
H959 H 0.07153 0.67811 0.3371 0.0
H960 H 0.00991 0.67442 0.29165 0.0
H961 H 0.98793 0.69318 0.32104 0.0
H962 H 0.00414 0.68273 0.26319 0.0
H963 H 0.98264 0.70125 0.29207 0.0
H964 H 0.99051 0.62948 0.29525 0.0
H965 H 0.0279 0.63287 0.3238 0.0
H966 H 0.02647 0.74393 0.30371 0.0
H967 H 0.04438 0.72286 0.27044 0.0
Li968 Li 0.31657 0.34159 0.35943 0.0
Li969 Li 0.32276 0.32303 0.35108 0.0
Li970 Li 0.33325 0.34668 0.33504 0.0
Li971 Li 0.30773 0.32866 0.33032 0.0
C972 C 0.34177 0.3497 0.37638 0.0
N973 N 0.35292 0.36325 0.40916 0.0
C974 C 0.33945 0.34125 0.39186 0.0
C975 C 0.34998 0.36503 0.3775 0.0
C976 C 0.34511 0.34831 0.40833 0.0
C977 C 0.35547 0.37168 0.39421 0.0
C978 C 0.29206 0.30578 0.35421 0.0
C979 C 0.28235 0.28155 0.34139 0.0
N980 N 0.27016 0.27662 0.35192 0.0
C981 C 0.27945 0.30049 0.3649 0.0
C982 C 0.29355 0.29625 0.34235 0.0
C983 C 0.2685 0.28571 0.36355 0.0
C984 C 0.30916 0.36042 0.37911 0.0
N985 N 0.31081 0.34842 0.37981 0.0
C986 C 0.30138 0.34317 0.40986 0.0
C987 C 0.30712 0.33986 0.39478 0.0
C988 C 0.29909 0.35523 0.40941 0.0
C989 C 0.30332 0.36408 0.39386 0.0
H990 H 0.31182 0.36683 0.36689 0.0
H991 H 0.30826 0.3302 0.39481 0.0
C992 C 0.33869 0.3083 0.3549 0.0
N993 N 0.32676 0.30883 0.36092 0.0
C994 C 0.34296 0.29921 0.36337 0.0
C995 C 0.32251 0.29133 0.38398 0.0
C996 C 0.31861 0.30053 0.37508 0.0
C997 C 0.33497 0.29076 0.37831 0.0
H998 H 0.3452 0.31538 0.34397 0.0
H999 H 0.3094 0.30146 0.3799 0.0
C1000 C 0.32064 0.36317 0.3279 0.0
N1001 N 0.33004 0.39021 0.31199 0.0
C1002 C 0.31497 0.36403 0.3112 0.0
C1003 C 0.33097 0.37608 0.33658 0.0
C1004 C 0.31989 0.3778 0.30336 0.0
C1005 C 0.33562 0.38963 0.32829 0.0
C1006 C 0.32993 0.32795 0.30717 0.0
C1007 C 0.32529 0.33423 0.29404 0.0
C1008 C 0.33994 0.32343 0.30254 0.0
C1009 C 0.33074 0.33591 0.27649 0.0
C1010 C 0.34515 0.32529 0.28483 0.0
N1011 N 0.34048 0.33144 0.27228 0.0
C1012 C 0.36377 0.36318 0.33089 0.0
C1013 C 0.35087 0.36707 0.30742 0.0
C1014 C 0.37716 0.37205 0.32217 0.0
N1015 N 0.35098 0.36078 0.32338 0.0
C1016 C 0.36398 0.37601 0.29825 0.0
C1017 C 0.37735 0.37842 0.30547 0.0
H1018 H 0.36353 0.35781 0.34341 0.0
H1019 H 0.34061 0.3648 0.30145 0.0
C1020 C 0.28271 0.3265 0.31501 0.0
N1021 N 0.29166 0.3207 0.31405 0.0
C1022 C 0.27149 0.32248 0.30245 0.0
C1023 C 0.2784 0.30595 0.28868 0.0
C1024 C 0.28955 0.31035 0.30153 0.0
C1025 C 0.26943 0.31232 0.28881 0.0
H1026 H 0.28458 0.3346 0.32526 0.0
H1027 H 0.29681 0.30586 0.30117 0.0
O1028 O 0.33617 0.34299 0.36017 0.0
O1029 O 0.30282 0.32025 0.35536 0.0
O1030 O 0.31596 0.34978 0.33579 0.0
O1031 O 0.32484 0.32636 0.32451 0.0
H1032 H 0.3332 0.32937 0.39122 0.0
H1033 H 0.35217 0.37173 0.36559 0.0
H1034 H 0.34328 0.34191 0.42045 0.0
H1035 H 0.36179 0.38354 0.39529 0.0
H1036 H 0.28334 0.27405 0.33227 0.0
H1037 H 0.27816 0.30775 0.37414 0.0
H1038 H 0.30323 0.30013 0.33399 0.0
H1039 H 0.25868 0.28146 0.37175 0.0
H1040 H 0.29844 0.33613 0.4216 0.0
H1041 H 0.30152 0.37331 0.39276 0.0
H1042 H 0.35277 0.29927 0.35876 0.0
H1043 H 0.316 0.28493 0.39538 0.0
H1044 H 0.30695 0.35418 0.30428 0.0
H1045 H 0.33535 0.37562 0.34956 0.0
H1046 H 0.31566 0.37862 0.29041 0.0
H1047 H 0.34366 0.3997 0.33483 0.0
H1048 H 0.31774 0.33801 0.29742 0.0
H1049 H 0.34366 0.31854 0.31249 0.0
H1050 H 0.32729 0.34082 0.26624 0.0
H1051 H 0.3529 0.32185 0.28107 0.0
H1052 H 0.38717 0.37343 0.3281 0.0
H1053 H 0.36362 0.38082 0.28551 0.0
H1054 H 0.26464 0.32744 0.30323 0.0
H1055 H 0.27719 0.29811 0.27837 0.0
Li1056 Li 0.32185 0.00444 0.67107 0.0
Li1057 Li 0.34405 0.0186 0.68708 0.0
Li1058 Li 0.32439 0.02344 0.69145 0.0
Li1059 Li 0.33829 0.03003 0.66299 0.0
C1060 C 0.31141 0.99571 0.70578 0.0
N1061 N 0.28503 0.97654 0.72232 0.0
C1062 C 0.31121 0.98797 0.72116 0.0
C1063 C 0.29818 0.99369 0.69879 0.0
C1064 C 0.29776 0.97833 0.72933 0.0
C1065 C 0.28497 0.98396 0.70735 0.0
C1066 C 0.34548 0.00286 0.65728 0.0
C1067 C 0.35462 0.99152 0.63671 0.0
N1068 N 0.35211 0.98117 0.64937 0.0
C1069 C 0.34299 0.99211 0.67009 0.0
C1070 C 0.35133 0.00257 0.64046 0.0
C1071 C 0.34642 0.98124 0.66583 0.0
C1072 C 0.3032 0.98531 0.64451 0.0
N1073 N 0.30898 0.98568 0.66099 0.0
C1074 C 0.29767 0.95949 0.66133 0.0
C1075 C 0.30633 0.97316 0.66953 0.0
C1076 C 0.2917 0.95874 0.64416 0.0
C1077 C 0.29445 0.97188 0.63582 0.0
H1078 H 0.30558 0.99548 0.63802 0.0
H1079 H 0.3112 0.97378 0.68255 0.0
C1080 C 0.3576 0.01469 0.71716 0.0
N1081 N 0.35955 0.01803 0.69933 0.0
C1082 C 0.36827 0.01342 0.72682 0.0
C1083 C 0.38292 0.01945 0.69963 0.0
C1084 C 0.37192 0.02049 0.69048 0.0
C1085 C 0.38111 0.01571 0.71803 0.0
H1086 H 0.34763 0.01279 0.7238 0.0
H1087 H 0.37318 0.02317 0.67627 0.0
C1088 C 0.31145 0.02885 0.66134 0.0
N1089 N 0.3014 0.04749 0.65108 0.0
C1090 C 0.31859 0.04343 0.66738 0.0
C1091 C 0.29922 0.02377 0.65006 0.0
C1092 C 0.31334 0.05268 0.66205 0.0
C1093 C 0.2943 0.03336 0.64503 0.0
C1094 C 0.35991 0.04743 0.69132 0.0
C1095 C 0.36405 0.05405 0.7083 0.0
C1096 C 0.37074 0.05007 0.6785 0.0
C1097 C 0.37897 0.06319 0.71218 0.0
C1098 C 0.38553 0.05929 0.68289 0.0
N1099 N 0.38931 0.0656 0.6995 0.0
C1100 C 0.3221 0.03411 0.72483 0.0
C1101 C 0.30171 0.02823 0.70599 0.0
C1102 C 0.31656 0.03935 0.73819 0.0
N1103 N 0.31486 0.02906 0.70896 0.0
C1104 C 0.29574 0.03337 0.719 0.0
C1105 C 0.30331 0.03925 0.73526 0.0
H1106 H 0.33229 0.03419 0.72701 0.0
H1107 H 0.29589 0.02372 0.6935 0.0
C1108 C 0.34195 0.0381 0.62649 0.0
N1109 N 0.34517 0.04353 0.64356 0.0
C1110 C 0.34605 0.04767 0.61181 0.0
C1111 C 0.35694 0.0682 0.63258 0.0
C1112 C 0.35248 0.05825 0.64685 0.0
C1113 C 0.35362 0.06293 0.6148 0.0
H1114 H 0.33599 0.02632 0.62435 0.0
H1115 H 0.35461 0.06226 0.66058 0.0
O1116 O 0.32456 0.00518 0.69773 0.0
O1117 O 0.34218 0.01362 0.66104 0.0
O1118 O 0.31645 0.01959 0.66614 0.0
O1119 O 0.34538 0.0382 0.68733 0.0
H1120 H 0.32135 0.98939 0.72673 0.0
H1121 H 0.29805 -0.0005 0.68687 0.0
H1122 H 0.29744 0.97227 0.74125 0.0
H1123 H 0.27466 0.98229 0.70209 0.0
H1124 H 0.35915 0.99116 0.62374 0.0
H1125 H 0.33846 0.99214 0.68318 0.0
H1126 H 0.3533 0.01082 0.6304 0.0
H1127 H 0.34455 0.97286 0.67561 0.0
H1128 H 0.296 0.94968 0.66815 0.0
H1129 H 0.2899 0.97181 0.62271 0.0
H1130 H 0.36628 0.01032 0.7409 0.0
H1131 H 0.39273 0.02153 0.69237 0.0
H1132 H 0.32805 0.04758 0.67614 0.0
H1133 H 0.2936 0.01252 0.64523 0.0
H1134 H 0.31875 0.06397 0.66664 0.0
H1135 H 0.28484 0.02956 0.63631 0.0
H1136 H 0.35587 0.05221 0.71838 0.0
H1137 H 0.36776 0.04486 0.66538 0.0
H1138 H 0.38232 0.06838 0.72527 0.0
H1139 H 0.39401 0.06136 0.67312 0.0
H1140 H 0.32283 0.04384 0.75045 0.0
H1141 H 0.28534 0.03278 0.71633 0.0
H1142 H 0.3433 0.0432 0.59828 0.0
H1143 H 0.36251 0.07988 0.63545 0.0
Li1144 Li -0.001 0.3168 0.66532 0.0
Li1145 Li 0.98482 0.32637 0.68045 0.0
Li1146 Li 0.97947 0.30053 0.68667 0.0
Li1147 Li 0.97241 0.30711 0.65848 0.0
C1148 C 0.00986 0.32319 0.70162 0.0
N1149 N 0.03449 0.3303 0.72212 0.0
C1150 C 0.01903 0.33766 0.70745 0.0
C1151 C 0.01307 0.31229 0.70656 0.0
C1152 C 0.03147 0.34105 0.71769 0.0
C1153 C 0.0256 0.31612 0.71684 0.0
C1154 C 0.99348 0.34091 0.64861 0.0
C1155 C 0.98749 0.3597 0.64171 0.0
N1156 N 0.00184 0.36916 0.63762 0.0
C1157 C 0.00815 0.35079 0.64417 0.0
C1158 C 0.98304 0.34536 0.6472 0.0
C1159 C 0.01216 0.36503 0.6387 0.0
C1160 C 0.0177 0.31505 0.63976 0.0
N1161 N 0.01757 0.32223 0.65495 0.0
C1162 C 0.04358 0.3383 0.65312 0.0
C1163 C 0.03015 0.33366 0.66173 0.0
C1164 C 0.04405 0.33118 0.63729 0.0
C1165 C 0.03089 0.31931 0.63071 0.0
H1166 H 0.00749 0.30615 0.63449 0.0
H1167 H 0.0297 0.33956 0.67339 0.0
C1168 C 0.97508 0.34237 0.70119 0.0
N1169 N 0.9864 0.34353 0.69108 0.0
C1170 C 0.97617 0.3548 0.70954 0.0
C1171 C 0.00052 0.36935 0.69682 0.0
C1172 C -0.00101 0.35664 0.68885 0.0
C1173 C 0.98906 0.36853 0.70746 0.0
H1174 H 0.96528 0.33176 0.703 0.0
H1175 H 0.00793 0.35722 0.681 0.0
C1176 C 0.98531 0.28431 0.66116 0.0
N1177 N 0.9901 0.26076 0.65997 0.0
C1178 C 0.97472 0.27089 0.65373 0.0
C1179 C 0.99845 0.28581 0.66767 0.0
C1180 C 0.9773 0.2591 0.65335 0.0
C1181 C 0.00064 0.27377 0.66703 0.0
C1182 C 0.95086 0.30258 0.68074 0.0
C1183 C 0.94072 0.28797 0.68506 0.0
C1184 C 0.94587 0.31159 0.67366 0.0
C1185 C 0.92577 0.28252 0.68188 0.0
C1186 C 0.93083 0.30574 0.67066 0.0
N1187 N 0.92118 0.29144 0.67477 0.0
C1188 C 0.97776 0.28969 0.72194 0.0
C1189 C 0.96402 0.27143 0.70007 0.0
C1190 C 0.97255 0.27913 0.7356 0.0
N1191 N 0.97344 0.28568 0.70459 0.0
C1192 C 0.95841 0.26053 0.71331 0.0
C1193 C 0.96253 0.26432 0.73143 0.0
H1194 H 0.98503 0.30114 0.72524 0.0
H1195 H 0.96037 0.26859 0.68629 0.0
C1196 C 0.95823 0.30788 0.62613 0.0
N1197 N 0.95798 0.29937 0.64004 0.0
C1198 C 0.94782 0.30177 0.61233 0.0
C1199 C 0.93714 0.27828 0.62753 0.0
C1200 C 0.94769 0.28486 0.64103 0.0
C1201 C 0.93722 0.28673 0.61285 0.0
H1202 H 0.96666 0.31935 0.62555 0.0
H1203 H 0.94775 0.27837 0.65227 0.0
O1204 O 0.99757 0.31969 0.69165 0.0
O1205 O 0.98937 0.32695 0.65413 0.0
O1206 O 0.98293 0.29597 0.66166 0.0
O1207 O 0.96557 0.30803 0.68344 0.0
H1208 H 0.01664 0.34621 0.704 0.0
H1209 H 0.00585 0.30095 0.70278 0.0
H1210 H 0.03872 0.35223 0.72215 0.0
H1211 H 0.02822 0.30778 0.7207 0.0
H1212 H 0.97953 0.3633 0.64068 0.0
H1213 H 0.01636 0.34752 0.64497 0.0
H1214 H 0.97163 0.33785 0.65038 0.0
H1215 H 0.02349 0.3728 0.63532 0.0
H1216 H 0.05341 0.34769 0.65845 0.0
H1217 H 0.03076 0.31343 0.61864 0.0
H1218 H 0.96716 0.35358 0.71788 0.0
H1219 H 0.01059 0.3797 0.69465 0.0
H1220 H 0.96457 0.26955 0.64837 0.0
H1221 H 0.00697 0.2962 0.67294 0.0
H1222 H 0.96914 0.24862 0.64775 0.0
H1223 H 0.01076 0.2748 0.67207 0.0
H1224 H 0.94435 0.28086 0.69067 0.0
H1225 H 0.95351 0.32297 0.67052 0.0
H1226 H 0.91782 0.2712 0.68503 0.0
H1227 H 0.92684 0.31257 0.66508 0.0
H1228 H 0.97618 0.28259 0.74931 0.0
H1229 H 0.95046 0.24937 0.70944 0.0
H1230 H 0.94832 0.30861 0.60115 0.0
H1231 H 0.92903 0.2667 0.62858 0.0
Li1232 Li 0.68215 0.67749 0.66775 0.0
Li1233 Li 0.66982 0.65455 0.68543 0.0
Li1234 Li 0.69524 0.67352 0.69106 0.0
Li1235 Li 0.68911 0.65849 0.66326 0.0
C1236 C 0.67983 0.68139 0.71027 0.0
N1237 N 0.68615 0.69406 0.74416 0.0
C1238 C 0.67393 0.67262 0.7256 0.0
C1239 C 0.68886 0.69661 0.71216 0.0
C1240 C 0.67727 0.67924 0.74262 0.0
C1241 C 0.69196 0.7028 0.72941 0.0
C1242 C 0.65739 0.64891 0.64962 0.0
C1243 C 0.64054 0.62678 0.63359 0.0
N1244 N 0.63149 0.63233 0.63082 0.0
C1245 C 0.64801 0.65447 0.64641 0.0
C1246 C 0.65371 0.63502 0.643 0.0
C1247 C 0.63493 0.64588 0.63696 0.0
C1248 C 0.67918 0.6914 0.63692 0.0
N1249 N 0.67815 0.69075 0.6552 0.0
C1250 C 0.6691 0.70749 0.65555 0.0
C1251 C 0.67326 0.69855 0.66461 0.0
C1252 C 0.66999 0.70837 0.63665 0.0
C1253 C 0.67525 0.7003 0.62731 0.0
H1254 H 0.68277 0.68477 0.62979 0.0
H1255 H 0.67232 0.6976 0.67912 0.0
C1256 C 0.65068 0.63133 0.70909 0.0
N1257 N 0.65155 0.64087 0.69614 0.0
C1258 C 0.63731 0.6222 0.71775 0.0
C1259 C 0.62604 0.63291 0.69961 0.0
C1260 C 0.63964 0.64194 0.69149 0.0
C1261 C 0.62479 0.62295 0.71301 0.0
H1262 H 0.66042 0.63106 0.71305 0.0
H1263 H 0.64078 0.65012 0.68185 0.0
C1264 C 0.70908 0.69201 0.65502 0.0
N1265 N 0.72192 0.71586 0.63197 0.0
C1266 C 0.71299 0.69037 0.63751 0.0
C1267 C 0.71187 0.70583 0.66088 0.0
C1268 C 0.71944 0.70256 0.62605 0.0
C1269 C 0.71831 0.71773 0.649 0.0
C1270 C 0.6856 0.63834 0.69041 0.0
C1271 C 0.69608 0.63662 0.69994 0.0
C1272 C 0.67389 0.62617 0.68209 0.0
C1273 C 0.6947 0.62271 0.70091 0.0
C1274 C 0.67288 0.61244 0.68338 0.0
N1275 N 0.68322 0.61101 0.69267 0.0
C1276 C 0.70741 0.67416 0.72485 0.0
C1277 C 0.7219 0.69537 0.70708 0.0
C1278 C 0.71797 0.67956 0.73848 0.0
N1279 N 0.7096 0.68205 0.70952 0.0
C1280 C 0.73276 0.7012 0.72036 0.0
C1281 C 0.73093 0.6932 0.73626 0.0
H1282 H 0.69755 0.66353 0.72632 0.0
H1283 H 0.7234 0.70137 0.69471 0.0
C1284 C 0.69133 0.64955 0.62846 0.0
N1285 N 0.69545 0.64965 0.64584 0.0
C1286 C 0.69707 0.64486 0.61468 0.0
C1287 C 0.7106 0.63976 0.63704 0.0
C1288 C 0.7048 0.6448 0.65037 0.0
C1289 C 0.70698 0.64008 0.61891 0.0
H1290 H 0.68407 0.65371 0.62524 0.0
H1291 H 0.70819 0.64535 0.66422 0.0
O1292 O 0.67702 0.67507 0.69353 0.0
O1293 O 0.67033 0.65722 0.65868 0.0
O1294 O 0.70257 0.68016 0.66637 0.0
O1295 O 0.68696 0.65193 0.68912 0.0
H1296 H 0.66699 0.66083 0.7244 0.0
H1297 H 0.69354 0.70355 0.70045 0.0
H1298 H 0.67285 0.67258 0.75461 0.0
H1299 H 0.699 0.71455 0.73108 0.0
H1300 H 0.63753 0.61599 0.62844 0.0
H1301 H 0.65072 0.66523 0.65133 0.0
H1302 H 0.661 0.63068 0.64493 0.0
H1303 H 0.62752 0.65001 0.63451 0.0
H1304 H 0.66519 0.71361 0.66323 0.0
H1305 H 0.67591 0.70053 0.61273 0.0
H1306 H 0.63678 0.61469 0.72809 0.0
H1307 H 0.61672 0.63407 0.69589 0.0
H1308 H 0.71108 0.67983 0.6328 0.0
H1309 H 0.70887 0.70729 0.67436 0.0
H1310 H 0.72247 0.70143 0.61244 0.0
H1311 H 0.7204 0.72845 0.65331 0.0
H1312 H 0.70524 0.64596 0.70642 0.0
H1313 H 0.66561 0.6273 0.67487 0.0
H1314 H 0.70275 0.62123 0.7082 0.0
H1315 H 0.66386 0.60291 0.67702 0.0
H1316 H 0.71619 0.67291 0.75037 0.0
H1317 H 0.74251 0.71181 0.71816 0.0
H1318 H 0.69407 0.64529 0.60082 0.0
H1319 H 0.7184 0.63636 0.64076 0.0
Li1320 Li 0.34332 0.32988 0.68306 0.0
Li1321 Li 0.32403 0.30329 0.68802 0.0
Li1322 Li 0.33855 0.31272 0.65923 0.0
Li1323 Li 0.3206 0.31897 0.66674 0.0
C1324 C 0.35744 0.31678 0.69539 0.0
N1325 N 0.38083 0.32636 0.71897 0.0
C1326 C 0.35545 0.31012 0.71225 0.0
C1327 C 0.37138 0.3282 0.69045 0.0
C1328 C 0.3674 0.31514 0.724 0.0
C1329 C 0.38305 0.33293 0.70258 0.0
C1330 C 0.31434 0.32616 0.69883 0.0
C1331 C 0.29135 0.32189 0.71134 0.0
N1332 N 0.2957 0.33631 0.70872 0.0
C1333 C 0.31864 0.34096 0.69637 0.0
C1334 C 0.30064 0.31654 0.70645 0.0
C1335 C 0.30903 0.34587 0.70141 0.0
C1336 C 0.3633 0.36015 0.68601 0.0
N1337 N 0.35674 0.34734 0.69541 0.0
C1338 C 0.36747 0.36013 0.72289 0.0
C1339 C 0.35853 0.34708 0.71353 0.0
C1340 C 0.37443 0.37356 0.71352 0.0
C1341 C 0.37228 0.37344 0.69481 0.0
H1342 H 0.36122 0.3601 0.67175 0.0
H1343 H 0.35285 0.33676 0.72073 0.0
C1344 C 0.31183 0.27394 0.69889 0.0
N1345 N 0.31585 0.28767 0.70486 0.0
C1346 C 0.30667 0.26224 0.71099 0.0
C1347 C 0.31019 0.2791 0.73524 0.0
C1348 C 0.31496 0.29042 0.72258 0.0
C1349 C 0.30606 0.26475 0.72955 0.0
H1350 H 0.31273 0.27212 0.6847 0.0
H1351 H 0.31846 0.30153 0.72694 0.0
C1352 C 0.34797 0.33624 0.64139 0.0
N1353 N 0.36298 0.34287 0.60896 0.0
C1354 C 0.34027 0.33269 0.62509 0.0
C1355 C 0.36333 0.34325 0.64116 0.0
C1356 C 0.34805 0.33612 0.60885 0.0
C1357 C 0.37071 0.34648 0.62464 0.0
C1358 C 0.30304 0.29176 0.65568 0.0
C1359 C 0.30055 0.2945 0.63797 0.0
C1360 C 0.29114 0.28192 0.66632 0.0
C1361 C 0.28622 0.28737 0.63121 0.0
C1362 C 0.27697 0.27497 0.65904 0.0
N1363 N 0.27482 0.27782 0.64179 0.0
C1364 C 0.36121 0.30927 0.64352 0.0
C1365 C 0.33982 0.30042 0.62554 0.0
C1366 C 0.36772 0.30456 0.63075 0.0
N1367 N 0.34746 0.30706 0.64078 0.0
C1368 C 0.34592 0.29558 0.61237 0.0
C1369 C 0.35998 0.29745 0.61501 0.0
H1370 H 0.36704 0.3145 0.65576 0.0
H1371 H 0.32888 0.29865 0.62372 0.0
C1372 C 0.31186 0.33649 0.6483 0.0
N1373 N 0.30645 0.32393 0.65814 0.0
C1374 C 0.30248 0.34112 0.64167 0.0
C1375 C 0.2821 0.32013 0.656 0.0
C1376 C 0.29191 0.31591 0.66237 0.0
C1377 C 0.28735 0.33285 0.64539 0.0
H1378 H 0.32352 0.343 0.64565 0.0
H1379 H 0.28791 0.3063 0.67082 0.0
O1380 O 0.34582 0.31208 0.68376 0.0
O1381 O 0.32345 0.32108 0.69362 0.0
O1382 O 0.34051 0.33257 0.65745 0.0
O1383 O 0.31702 0.29859 0.66254 0.0
H1384 H 0.34484 0.30114 0.71624 0.0
H1385 H 0.37315 0.33353 0.67751 0.0
H1386 H 0.36599 0.31011 0.73711 0.0
H1387 H 0.39385 0.34184 0.69898 0.0
H1388 H 0.28067 0.31457 0.71715 0.0
H1389 H 0.32921 0.34851 0.69043 0.0
H1390 H 0.29716 0.30504 0.70836 0.0
H1391 H 0.31215 0.35727 0.69947 0.0
H1392 H 0.36888 0.3597 0.73729 0.0
H1393 H 0.37712 0.38355 0.68711 0.0
H1394 H 0.30331 0.25138 0.70579 0.0
H1395 H 0.31022 0.28174 0.74936 0.0
H1396 H 0.3284 0.32721 0.62496 0.0
H1397 H 0.3695 0.34605 0.65359 0.0
H1398 H 0.34221 0.33336 0.59615 0.0
H1399 H 0.38258 0.35182 0.62428 0.0
H1400 H 0.30952 0.30225 0.62961 0.0
H1401 H 0.29274 0.27981 0.68012 0.0
H1402 H 0.28415 0.28947 0.61757 0.0
H1403 H 0.26767 0.26737 0.66716 0.0
H1404 H 0.37862 0.30632 0.63326 0.0
H1405 H 0.33947 0.28996 0.60057 0.0
H1406 H 0.30702 0.35096 0.63348 0.0
H1407 H 0.27056 0.31359 0.65951 0.0
Li1408 Li 0.67251 0.01506 0.68162 0.0
Li1409 Li 0.6989 0.02108 0.68561 0.0
Li1410 Li 0.69032 0.0282 0.65707 0.0
Li1411 Li 0.68253 0.0034 0.66448 0.0
C1412 C 0.69321 0.04595 0.69351 0.0
N1413 N 0.69842 0.06899 0.71616 0.0
C1414 C 0.69638 0.04554 0.71172 0.0
C1415 C 0.69275 0.05813 0.68682 0.0
C1416 C 0.69896 0.05728 0.72296 0.0
C1417 C 0.69538 0.06965 0.69849 0.0
C1418 C 0.67526 0.9883 0.69427 0.0
C1419 C 0.67966 0.96843 0.70105 0.0
N1420 N 0.66504 0.95867 0.69921 0.0
C1421 C 0.66026 0.97809 0.69256 0.0
C1422 C 0.68505 0.98346 0.69861 0.0
C1423 C 0.65532 0.96315 0.69506 0.0
C1424 C 0.64215 0.00268 0.68692 0.0
N1425 N 0.65547 0.01281 0.69368 0.0
C1426 C 0.64392 0.0192 0.71692 0.0
C1427 C 0.65656 0.02093 0.70848 0.0
C1428 C 0.63002 0.00892 0.71013 0.0
C1429 C 0.62922 0.00056 0.69494 0.0
H1430 H 0.64157 0.99624 0.67522 0.0
H1431 H 0.66719 0.02869 0.71387 0.0
C1432 C 0.72757 0.04005 0.69812 0.0
N1433 N 0.71465 0.02772 0.70217 0.0
C1434 C 0.73893 0.04613 0.71078 0.0
C1435 C 0.72357 0.02647 0.73131 0.0
C1436 C 0.7125 0.02082 0.71829 0.0
C1437 C 0.73693 0.03944 0.72775 0.0
H1438 H 0.72885 0.04541 0.68526 0.0
H1439 H 0.70201 0.01117 0.72126 0.0
C1440 C 0.66116 0.01593 0.64831 0.0
N1441 N 0.64349 0.02597 0.63426 0.0
C1442 C 0.65149 0.00836 0.63417 0.0
C1443 C 0.66184 0.02862 0.65527 0.0
C1444 C 0.64265 0.01361 0.62726 0.0
C1445 C 0.65282 0.03351 0.64801 0.0
C1446 C 0.70855 0.01438 0.64702 0.0
C1447 C 0.70255 0.0115 0.62969 0.0
C1448 C 0.72011 0.01191 0.65101 0.0
C1449 C 0.70811 0.00598 0.61663 0.0
C1450 C 0.72537 0.00641 0.63757 0.0
N1451 N 0.7193 0.00357 0.62082 0.0
C1452 C 0.70775 0.05668 0.6435 0.0
C1453 C 0.68988 0.04013 0.62285 0.0
C1454 C 0.71258 0.06814 0.63108 0.0
N1455 N 0.6965 0.04307 0.63927 0.0
C1456 C 0.69432 0.05127 0.61002 0.0
C1457 C 0.70579 0.06553 0.61409 0.0
H1458 H 0.71296 0.05862 0.65656 0.0
H1459 H 0.68114 0.02914 0.61969 0.0
C1460 C 0.66416 0.97761 0.64532 0.0
N1461 N 0.67737 0.98484 0.65384 0.0
C1462 C 0.65953 0.96399 0.63721 0.0
C1463 C 0.68209 0.96538 0.64702 0.0
C1464 C 0.68627 0.97896 0.65497 0.0
C1465 C 0.66858 0.95774 0.63792 0.0
H1466 H 0.65719 0.9824 0.64488 0.0
H1467 H 0.69656 0.98475 0.66219 0.0
O1468 O 0.69099 0.03471 0.68218 0.0
O1469 O 0.68033 0.00293 0.69151 0.0
O1470 O 0.66996 0.01093 0.65505 0.0
O1471 O 0.70316 0.01962 0.66003 0.0
H1472 H 0.69658 0.03614 0.71722 0.0
H1473 H 0.69038 0.05871 0.67275 0.0
H1474 H 0.70136 0.05706 0.73709 0.0
H1475 H 0.69504 0.07913 0.69348 0.0
H1476 H 0.68712 0.96451 0.70429 0.0
H1477 H 0.65255 0.98165 0.68913 0.0
H1478 H 0.69671 0.99119 0.69976 0.0
H1479 H 0.64376 0.95512 0.69365 0.0
H1480 H 0.64503 0.02568 0.72881 0.0
H1481 H 0.61873 0.99258 0.68919 0.0
H1482 H 0.74893 0.05626 0.70752 0.0
H1483 H 0.72159 0.02085 0.74412 0.0
H1484 H 0.65087 0.99858 0.6285 0.0
H1485 H 0.66915 0.0346 0.66621 0.0
H1486 H 0.63513 0.00787 0.6163 0.0
H1487 H 0.65323 0.04331 0.65331 0.0
H1488 H 0.69357 0.01331 0.62644 0.0
H1489 H 0.72487 0.01413 0.66438 0.0
H1490 H 0.70351 0.00359 0.60319 0.0
H1491 H 0.73426 0.00437 0.64047 0.0
H1492 H 0.72168 0.07886 0.63466 0.0
H1493 H 0.68874 0.04877 0.59715 0.0
H1494 H 0.64908 0.95855 0.63023 0.0
H1495 H 0.68929 0.96083 0.64816 0.0
Li1496 Li 0.9744 0.67568 0.68727 0.0
Li1497 Li 0.98042 0.65561 0.6824 0.0
Li1498 Li 0.99361 0.67854 0.66645 0.0
Li1499 Li 0.96926 0.66149 0.65824 0.0
C1500 C 0.00678 0.6827 0.69833 0.0
N1501 N 0.03618 0.69781 0.70764 0.0
C1502 C 0.01559 0.67649 0.69504 0.0
C1503 C 0.01289 0.69657 0.7064 0.0
C1504 C 0.03044 0.68431 0.69983 0.0
C1505 C 0.02779 0.70403 0.71101 0.0
C1506 C 0.95263 0.64258 0.69377 0.0
C1507 C 0.94086 0.61665 0.70049 0.0
N1508 N 0.93671 0.6192 0.71685 0.0
C1509 C 0.94819 0.64492 0.71064 0.0
C1510 C 0.94888 0.62832 0.68862 0.0
C1511 C 0.94016 0.63296 0.72212 0.0
C1512 C 0.95485 0.68444 0.6989 0.0
N1513 N 0.967 0.68396 0.70393 0.0
C1514 C 0.96614 0.69267 0.73343 0.0
C1515 C 0.97281 0.68805 0.72073 0.0
C1516 C 0.95329 0.69284 0.72879 0.0
C1517 C 0.94778 0.68888 0.71117 0.0
H1518 H 0.95044 0.68098 0.68546 0.0
H1519 H 0.98231 0.68724 0.72445 0.0
C1520 C 0.98771 0.63326 0.68639 0.0
N1521 N 0.98253 0.64112 0.6951 0.0
C1522 C 0.98973 0.62292 0.69573 0.0
C1523 C 0.98125 0.62911 0.72289 0.0
C1524 C 0.97953 0.63942 0.71305 0.0
C1525 C 0.98645 0.62069 0.71425 0.0
H1526 H 0.99053 0.63523 0.67225 0.0
H1527 H 0.97579 0.64611 0.71973 0.0
C1528 C 0.98505 0.69721 0.65589 0.0
N1529 N 0.00019 0.72589 0.64355 0.0
C1530 C 0.99117 0.7003 0.63857 0.0
C1531 C 0.98657 0.70871 0.66688 0.0
C1532 C -0.00119 0.71487 0.6326 0.0
C1533 C 0.99427 0.72313 0.6604 0.0
C1534 C 0.9826 0.65118 0.6408 0.0
C1535 C 0.98707 0.65899 0.62458 0.0
C1536 C 0.97365 0.63587 0.64042 0.0
C1537 C 0.98247 0.65135 0.60826 0.0
C1538 C 0.96928 0.62863 0.62382 0.0
N1539 N 0.97374 0.63646 0.60822 0.0
C1540 C 0.02005 0.68726 0.64779 0.0
C1541 C 0.0198 0.70686 0.66326 0.0
C1542 C 0.03417 0.69675 0.64128 0.0
N1543 N 0.01304 0.69247 0.65826 0.0
C1544 C 0.03394 0.71676 0.65706 0.0
C1545 C 0.04126 0.71176 0.64575 0.0
H1546 H 0.01467 0.6757 0.64448 0.0
H1547 H 0.01422 0.71068 0.67208 0.0
C1548 C 0.9433 0.63982 0.64062 0.0
N1549 N 0.95509 0.65365 0.63923 0.0
C1550 C 0.93256 0.63424 0.62718 0.0
C1551 C 0.94634 0.65718 0.61105 0.0
C1552 C 0.95678 0.66232 0.62482 0.0
C1553 C 0.93395 0.643 0.6122 0.0
H1554 H 0.94215 0.63317 0.65223 0.0
H1555 H 0.96613 0.6733 0.62412 0.0
O1556 O 0.99232 0.67536 0.69332 0.0
O1557 O 0.96061 0.65419 0.6824 0.0
O1558 O 0.9775 0.68301 0.662 0.0
O1559 O 0.98663 0.65852 0.65693 0.0
H1560 H 0.01106 0.66583 0.68863 0.0
H1561 H 0.00626 0.7016 0.70884 0.0
H1562 H 0.03742 0.67968 0.69727 0.0
H1563 H 0.03269 0.71481 0.71717 0.0
H1564 H 0.938 0.60558 0.69672 0.0
H1565 H 0.95092 0.65584 0.7149 0.0
H1566 H 0.95235 0.62628 0.67574 0.0
H1567 H 0.93669 0.63463 0.73522 0.0
H1568 H 0.9706 0.69544 0.74694 0.0
H1569 H 0.93797 0.68899 0.70702 0.0
H1570 H 0.99412 0.61697 0.68859 0.0
H1571 H 0.97847 0.62771 0.73709 0.0
H1572 H 0.99029 0.69161 0.62993 0.0
H1573 H 0.98195 0.70657 0.68031 0.0
H1574 H 0.0037 0.71742 0.6193 0.0
H1575 H 0.99557 0.73213 0.6688 0.0
H1576 H 0.99387 0.67084 0.62458 0.0
H1577 H 0.96995 0.62964 0.6528 0.0
H1578 H 0.98579 0.65727 0.59563 0.0
H1579 H 0.96229 0.6168 0.62335 0.0
H1580 H 0.03934 0.69241 0.63253 0.0
H1581 H 0.0391 0.72818 0.66117 0.0
H1582 H 0.92325 0.6232 0.62854 0.0
H1583 H 0.94774 0.66441 0.59991 0.0
C1584 C 0.19567 0.30821 0.13167 0.0
C1585 C 0.19507 0.30037 0.11602 0.0
C1586 C 0.18304 0.30399 0.14194 0.0
C1587 C 0.16959 0.29171 0.13692 0.0
C1588 C 0.1816 0.28801 0.11107 0.0
C1589 C 0.16894 0.28379 0.12136 0.0
C1590 C 0.15598 0.28815 0.14678 0.0
C1591 C 0.18515 0.28124 0.18494 0.0
C1592 C 0.18977 0.29102 0.19965 0.0
C1593 C 0.17357 0.27951 0.17394 0.0
C1594 C 0.16648 0.28757 0.17751 0.0
C1595 C 0.18229 0.29863 0.20349 0.0
C1596 C 0.17076 0.29688 0.1926 0.0
C1597 C 0.15472 0.2867 0.16574 0.0
C1598 C 0.09491 0.28078 0.17973 0.0
C1599 C 0.09914 0.29069 0.19427 0.0
C1600 C 0.10548 0.27915 0.17012 0.0
C1601 C 0.12041 0.2874 0.17494 0.0
C1602 C 0.11401 0.29853 0.19938 0.0
C1603 C 0.1245 0.29686 0.18987 0.0
C1604 C 0.13202 0.28662 0.16452 0.0
C1605 C 0.11514 0.30872 0.12812 0.0
C1606 C 0.1072 0.30012 0.1132 0.0
C1607 C 0.12341 0.30464 0.13874 0.0
C1608 C 0.12392 0.29187 0.13474 0.0
C1609 C 0.10786 0.28737 0.10912 0.0
C1610 C 0.11626 0.28336 0.11973 0.0
C1611 C 0.1333 0.2881 0.14559 0.0
H1612 H 0.20589 0.31771 0.13593 0.0
H1613 H 0.18373 0.31056 0.15356 0.0
H1614 H 0.18076 0.28187 0.09894 0.0
H1615 H 0.1586 0.27446 0.11707 0.0
H1616 H 0.19069 0.2752 0.1817 0.0
H1617 H 0.17025 0.27202 0.1626 0.0
H1618 H 0.18539 0.306 0.21495 0.0
H1619 H 0.1654 0.30313 0.19574 0.0
H1620 H 0.08352 0.27457 0.17555 0.0
H1621 H 0.10202 0.27156 0.15886 0.0
H1622 H 0.11755 0.30602 0.21075 0.0
H1623 H 0.13592 0.30326 0.19393 0.0
H1624 H 0.11523 0.3188 0.1314 0.0
H1625 H 0.12963 0.31163 0.14994 0.0
H1626 H 0.1018 0.28044 0.09782 0.0
H1627 H 0.1167 0.27356 0.11631 0.0
N1628 N 0.14515 0.28868 0.13742 0.0
N1629 N 0.14279 0.28602 0.17382 0.0
C1630 C 0.69363 0.88854 0.1347 0.0
C1631 C 0.7 0.89389 0.11768 0.0
C1632 C 0.69747 0.87979 0.14478 0.0
C1633 C 0.70787 0.87633 0.13814 0.0
C1634 C 0.71039 0.89035 0.11105 0.0
C1635 C 0.71421 0.88157 0.12115 0.0
C1636 C 0.71118 0.86623 0.14818 0.0
C1637 C 0.72723 0.90711 0.18187 0.0
C1638 C 0.72123 0.90456 0.19933 0.0
C1639 C 0.72554 0.89536 0.1712 0.0
C1640 C 0.71745 0.88084 0.17764 0.0
C1641 C 0.71357 0.8901 0.20594 0.0
C1642 C 0.7117 0.87839 0.19521 0.0
C1643 C 0.71503 0.86802 0.16663 0.0
C1644 C 0.72016 0.81411 0.18279 0.0
C1645 C 0.71369 0.8112 0.20002 0.0
C1646 C 0.72021 0.82499 0.17189 0.0
C1647 C 0.71348 0.83289 0.1779 0.0
C1648 C 0.70724 0.81933 0.20609 0.0
C1649 C 0.70715 0.83004 0.19517 0.0
C1650 C 0.71313 0.8444 0.16675 0.0
C1651 C 0.68781 0.80257 0.13482 0.0
C1652 C 0.69405 0.80279 0.11795 0.0
C1653 C 0.69291 0.81549 0.14482 0.0
C1654 C 0.70449 0.82884 0.13826 0.0
C1655 C 0.70555 0.81621 0.11135 0.0
C1656 C 0.71065 0.82914 0.12138 0.0
C1657 C 0.70938 0.84268 0.14828 0.0
H1658 H 0.68535 0.89077 0.14005 0.0
H1659 H 0.69206 0.87546 0.1576 0.0
H1660 H 0.7156 0.89439 0.09807 0.0
H1661 H 0.72211 0.87885 0.11569 0.0
H1662 H 0.73331 0.91819 0.17656 0.0
H1663 H 0.73057 0.89766 0.15796 0.0
H1664 H 0.70868 0.88779 0.21927 0.0
H1665 H 0.70547 0.86733 0.20059 0.0
H1666 H 0.72535 0.80812 0.17787 0.0
H1667 H 0.72557 0.82727 0.15886 0.0
H1668 H 0.702 0.81721 0.2192 0.0
H1669 H 0.70192 0.83598 0.20017 0.0
H1670 H 0.67874 0.79247 0.14012 0.0
H1671 H 0.68763 0.81509 0.15754 0.0
H1672 H 0.71067 0.81673 0.09848 0.0
H1673 H 0.71946 0.83937 0.11598 0.0
N1674 N 0.70867 0.8537 0.1397 0.0
N1675 N 0.7158 0.857 0.17513 0.0
C1676 C 0.10643 0.80707 0.132 0.0
C1677 C 0.1001 0.80803 0.11577 0.0
C1678 C 0.11539 0.81968 0.14205 0.0
C1679 C 0.11805 0.8335 0.13624 0.0
C1680 C 0.1029 0.8219 0.10984 0.0
C1681 C 0.11187 0.83454 0.11996 0.0
C1682 C 0.12831 0.84692 0.14631 0.0
C1683 C 0.0896 0.82028 0.18307 0.0
C1684 C 0.09328 0.81674 0.19978 0.0
C1685 C 0.10062 0.83064 0.17175 0.0
C1686 C 0.11551 0.83727 0.17678 0.0
C1687 C 0.10811 0.82362 0.20493 0.0
C1688 C 0.11908 0.83373 0.19356 0.0
C1689 C 0.12759 0.84823 0.16522 0.0
C1690 C 0.18082 0.90644 0.18428 0.0
C1691 C 0.18528 0.90143 0.19926 0.0
C1692 C 0.16994 0.89635 0.17258 0.0
C1693 C 0.16342 0.88117 0.17572 0.0
C1694 C 0.17902 0.8862 0.20188 0.0
C1695 C 0.16814 0.87622 0.19036 0.0
C1696 C 0.1511 0.87015 0.16469 0.0
C1697 C 0.19072 0.88821 0.1284 0.0
C1698 C 0.18961 0.89519 0.11284 0.0
C1699 C 0.17846 0.88002 0.13936 0.0
C1700 C 0.16488 0.87874 0.13505 0.0
C1701 C 0.17601 0.89395 0.10859 0.0
C1702 C 0.16371 0.88567 0.11953 0.0
C1703 C 0.15164 0.8691 0.14578 0.0
H1704 H 0.1048 0.79661 0.13672 0.0
H1705 H 0.12051 0.81865 0.15419 0.0
H1706 H 0.09814 0.82299 0.09742 0.0
H1707 H 0.11399 0.84514 0.11509 0.0
H1708 H 0.07822 0.8152 0.17889 0.0
H1709 H 0.09748 0.8335 0.15918 0.0
H1710 H 0.11126 0.82096 0.21764 0.0
H1711 H 0.13043 0.83867 0.19784 0.0
H1712 H 0.18541 0.9181 0.18194 0.0
H1713 H 0.16633 0.9004 0.16145 0.0
H1714 H 0.18247 0.88194 0.21295 0.0
H1715 H 0.16336 0.86456 0.19293 0.0
H1716 H 0.20107 0.88905 0.13208 0.0
H1717 H 0.17953 0.87441 0.15098 0.0
H1718 H 0.17479 0.89907 0.09656 0.0
H1719 H 0.15326 0.8846 0.11582 0.0
N1720 N 0.14021 0.85753 0.1373 0.0
N1721 N 0.13908 0.85975 0.17358 0.0
C1722 C 0.29759 0.10752 0.83681 0.0
C1723 C 0.28547 0.09919 0.82549 0.0
C1724 C 0.29804 0.11851 0.84783 0.0
C1725 C 0.28625 0.12121 0.84804 0.0
C1726 C 0.27372 0.10197 0.82561 0.0
C1727 C 0.27414 0.11291 0.83675 0.0
C1728 C 0.28703 0.13343 0.85884 0.0
C1729 C 0.28845 0.10163 0.89823 0.0
C1730 C 0.30192 0.10771 0.90747 0.0
C1731 C 0.28477 0.11068 0.88845 0.0
C1732 C 0.29452 0.12594 0.88776 0.0
C1733 C 0.31147 0.12301 0.90707 0.0
C1734 C 0.30776 0.13203 0.89741 0.0
C1735 C 0.29116 0.13577 0.87718 0.0
C1736 C 0.28609 0.18926 0.89589 0.0
C1737 C 0.29832 0.1962 0.90742 0.0
C1738 C 0.28334 0.17674 0.88612 0.0
C1739 C 0.29301 0.17121 0.88735 0.0
C1740 C 0.30767 0.19035 0.90909 0.0
C1741 C 0.30504 0.17799 0.89916 0.0
C1742 C 0.29069 0.15823 0.87681 0.0
C1743 C 0.29771 0.19242 0.83552 0.0
C1744 C 0.28672 0.188 0.82236 0.0
C1745 C 0.29773 0.18213 0.84737 0.0
C1746 C 0.28643 0.16732 0.84673 0.0
C1747 C 0.27553 0.17318 0.82151 0.0
C1748 C 0.27537 0.16295 0.83364 0.0
C1749 C 0.28691 0.15608 0.8583 0.0
H1750 H 0.30697 0.10589 0.8367 0.0
H1751 H 0.30779 0.12515 0.85584 0.0
H1752 H 0.26423 0.09571 0.81705 0.0
H1753 H 0.26502 0.11495 0.83651 0.0
H1754 H 0.28089 0.08987 0.89829 0.0
H1755 H 0.27436 0.10578 0.88138 0.0
H1756 H 0.32181 0.12803 0.91431 0.0
H1757 H 0.31538 0.14379 0.8972 0.0
H1758 H 0.27861 0.19345 0.89457 0.0
H1759 H 0.2737 0.17142 0.87758 0.0
H1760 H 0.31723 0.19555 0.91777 0.0
H1761 H 0.3126 0.17389 0.90047 0.0
H1762 H 0.30663 0.20372 0.83615 0.0
H1763 H 0.30681 0.18573 0.85668 0.0
H1764 H 0.26699 0.16952 0.81139 0.0
H1765 H 0.2667 0.15155 0.83264 0.0
N1766 N 0.28503 0.14366 0.85016 0.0
N1767 N 0.2928 0.14805 0.88541 0.0
C1768 C 0.90221 0.1867 0.89371 0.0
C1769 C 0.89628 0.19312 0.9051 0.0
C1770 C 0.89295 0.17407 0.88374 0.0
C1771 C 0.8776 0.16785 0.88469 0.0
C1772 C 0.88094 0.18666 0.90635 0.0
C1773 C 0.87171 0.17416 0.89627 0.0
C1774 C 0.86745 0.1546 0.87415 0.0
C1775 C 0.89342 0.18914 0.83259 0.0
C1776 C 0.9026 0.18606 0.82184 0.0
C1777 C 0.88283 0.17836 0.8438 0.0
C1778 C 0.88121 0.1643 0.8446 0.0
C1779 C 0.90093 0.17192 0.82268 0.0
C1780 C 0.89024 0.16111 0.83386 0.0
C1781 C 0.86944 0.15268 0.85571 0.0
C1782 C 0.81042 0.10551 0.8323 0.0
C1783 C 0.81409 0.09741 0.82039 0.0
C1784 C 0.82092 0.11578 0.84407 0.0
C1785 C 0.83526 0.11805 0.84436 0.0
C1786 C 0.82845 0.09967 0.82075 0.0
C1787 C 0.83896 0.10996 0.83256 0.0
C1788 C 0.84675 0.12983 0.85564 0.0
C1789 C 0.81328 0.09663 0.89404 0.0
C1790 C 0.80696 0.10239 0.90585 0.0
C1791 C 0.82564 0.10605 0.88373 0.0
C1792 C 0.83167 0.12137 0.88477 0.0
C1793 C 0.8132 0.11771 0.90714 0.0
C1794 C 0.82541 0.12708 0.89672 0.0
C1795 C 0.84478 0.13172 0.87412 0.0
H1796 H 0.914 0.19133 0.89271 0.0
H1797 H 0.89779 0.16915 0.8754 0.0
H1798 H 0.87606 0.19144 0.91489 0.0
H1799 H 0.85992 0.16955 0.89733 0.0
H1800 H 0.89412 0.19975 0.83198 0.0
H1801 H 0.87567 0.18094 0.85158 0.0
H1802 H 0.90787 0.1692 0.81471 0.0
H1803 H 0.88905 0.15027 0.83416 0.0
H1804 H 0.79958 0.10431 0.8321 0.0
H1805 H 0.81793 0.12226 0.85258 0.0
H1806 H 0.83161 0.09355 0.81185 0.0
H1807 H 0.85002 0.11169 0.8324 0.0
H1808 H 0.8088 0.08486 0.89297 0.0
H1809 H 0.83053 0.10135 0.87509 0.0
H1810 H 0.80847 0.12246 0.91597 0.0
H1811 H 0.82987 0.13884 0.89787 0.0
N1812 N 0.8552 0.14404 0.88256 0.0
N1813 N 0.85907 0.14033 0.84721 0.0
C1814 C 0.81049 0.71613 0.89783 0.0
C1815 C 0.80358 0.70383 0.90925 0.0
C1816 C 0.82307 0.71904 0.88809 0.0
C1817 C 0.82874 0.70948 0.88929 0.0
C1818 C 0.80959 0.69461 0.91091 0.0
C1819 C 0.82203 0.69741 0.90105 0.0
C1820 C 0.84159 0.71178 0.87851 0.0
C1821 C 0.80662 0.70349 0.83788 0.0
C1822 C 0.81027 0.71517 0.82588 0.0
C1823 C 0.81728 0.70362 0.84916 0.0
C1824 C 0.83176 0.71554 0.84891 0.0
C1825 C 0.8248 0.72708 0.82561 0.0
C1826 C 0.83546 0.72723 0.83697 0.0
C1827 C 0.84329 0.7152 0.85991 0.0
C1828 C 0.88614 0.69841 0.83534 0.0
C1829 C 0.89494 0.70981 0.82331 0.0
C1830 C 0.87689 0.69999 0.8475 0.0
C1831 C 0.87633 0.71305 0.84797 0.0
C1832 C 0.8946 0.72299 0.82403 0.0
C1833 C 0.88525 0.72453 0.83615 0.0
C1834 C 0.86537 0.71406 0.85944 0.0
C1835 C 0.89799 0.71214 0.89664 0.0
C1836 C 0.89183 0.6994 0.90738 0.0
C1837 C 0.88892 0.71595 0.88715 0.0
C1838 C 0.87355 0.70705 0.88818 0.0
C1839 C 0.87646 0.69072 0.9087 0.0
C1840 C 0.86742 0.69455 0.89927 0.0
C1841 C 0.86365 0.71058 0.878 0.0
H1842 H 0.80621 0.72354 0.89652 0.0
H1843 H 0.82831 0.72869 0.87957 0.0
H1844 H 0.80443 0.68497 0.91949 0.0
H1845 H 0.82621 0.68991 0.9023 0.0
H1846 H 0.79563 0.69398 0.83812 0.0
H1847 H 0.81427 0.69422 0.85777 0.0
H1848 H 0.82794 0.73627 0.81657 0.0
H1849 H 0.84662 0.73643 0.83639 0.0
H1850 H 0.88623 0.68816 0.83515 0.0
H1851 H 0.86983 0.69082 0.85614 0.0
H1852 H 0.90115 0.73188 0.81477 0.0
H1853 H 0.8848 0.7346 0.83613 0.0
H1854 H 0.90981 0.71903 0.89535 0.0
H1855 H 0.89391 0.72583 0.87899 0.0
H1856 H 0.87138 0.68099 0.91711 0.0
H1857 H 0.8556 0.68758 0.90041 0.0
N1858 N 0.85183 0.70956 0.88675 0.0
N1859 N 0.85518 0.71633 0.85115 0.0
C1860 C 0.76597 0.62364 0.45254 0.0
C1861 C 0.77147 0.63696 0.44307 0.0
C1862 C 0.77557 0.62027 0.46155 0.0
C1863 C 0.7908 0.63017 0.46117 0.0
C1864 C 0.78674 0.64658 0.44224 0.0
C1865 C 0.79631 0.64316 0.45108 0.0
C1866 C 0.80114 0.62739 0.47152 0.0
C1867 C 0.77519 0.63662 0.51215 0.0
C1868 C 0.76827 0.62614 0.5259 0.0
C1869 C 0.78517 0.63584 0.50046 0.0
C1870 C 0.788 0.62416 0.50161 0.0
C1871 C 0.77122 0.61451 0.52716 0.0
C1872 C 0.78097 0.61354 0.51513 0.0
C1873 C 0.79942 0.62387 0.49011 0.0
C1874 C 0.85842 0.63497 0.51199 0.0
C1875 C 0.85488 0.62282 0.52312 0.0
C1876 C 0.84778 0.6351 0.50095 0.0
C1877 C 0.8334 0.62299 0.50058 0.0
C1878 C 0.84044 0.61073 0.5228 0.0
C1879 C 0.82979 0.61086 0.51168 0.0
C1880 C 0.82191 0.62348 0.48969 0.0
C1881 C 0.8555 0.62439 0.45152 0.0
C1882 C 0.86331 0.63791 0.44243 0.0
C1883 C 0.84245 0.6207 0.46066 0.0
C1884 C 0.83703 0.63048 0.46084 0.0
C1885 C 0.85759 0.64743 0.44217 0.0
C1886 C 0.84453 0.6437 0.45119 0.0
C1887 C 0.82375 0.62731 0.47124 0.0
H1888 H 0.75424 0.61604 0.45338 0.0
H1889 H 0.7711 0.61008 0.46903 0.0
H1890 H 0.79128 0.6568 0.43479 0.0
H1891 H 0.80803 0.65089 0.4505 0.0
H1892 H 0.77309 0.64563 0.51048 0.0
H1893 H 0.79093 0.64464 0.49083 0.0
H1894 H 0.76637 0.60638 0.53776 0.0
H1895 H 0.78321 0.60461 0.51658 0.0
H1896 H 0.86932 0.64461 0.51224 0.0
H1897 H 0.85071 0.64482 0.493 0.0
H1898 H 0.83738 0.60119 0.53117 0.0
H1899 H 0.81871 0.60149 0.51177 0.0
H1900 H 0.85967 0.61685 0.45193 0.0
H1901 H 0.83668 0.61031 0.46776 0.0
H1902 H 0.86324 0.6578 0.43502 0.0
H1903 H 0.84048 0.65136 0.45103 0.0
N1904 N 0.81331 0.62913 0.4629 0.0
N1905 N 0.80979 0.62186 0.49838 0.0
C1906 C 0.36015 0.22422 0.46398 0.0
C1907 C 0.36802 0.23093 0.44813 0.0
C1908 C 0.36331 0.21492 0.47393 0.0
C1909 C 0.37454 0.21227 0.46837 0.0
C1910 C 0.37917 0.22814 0.44249 0.0
C1911 C 0.38234 0.21882 0.45248 0.0
C1912 C 0.37726 0.20173 0.47833 0.0
C1913 C 0.38937 0.24019 0.51522 0.0
C1914 C 0.38167 0.2365 0.53167 0.0
C1915 C 0.38882 0.22918 0.50404 0.0
C1916 C 0.38021 0.21427 0.5089 0.0
C1917 C 0.37343 0.22165 0.53671 0.0
C1918 C 0.3727 0.21067 0.52545 0.0
C1919 C 0.37907 0.20224 0.49728 0.0
C1920 C 0.38279 0.14771 0.51284 0.0
C1921 C 0.37204 0.14158 0.52643 0.0
C1922 C 0.38467 0.1599 0.50303 0.0
C1923 C 0.37593 0.16618 0.50686 0.0
C1924 C 0.36343 0.14801 0.53031 0.0
C1925 C 0.36546 0.16028 0.52073 0.0
C1926 C 0.37731 0.17874 0.49639 0.0
C1927 C 0.35515 0.13911 0.46111 0.0
C1928 C 0.36428 0.13925 0.44714 0.0
C1929 C 0.35889 0.15186 0.47084 0.0
C1930 C 0.37186 0.16503 0.46687 0.0
C1931 C 0.37711 0.15258 0.44287 0.0
C1932 C 0.38082 0.16541 0.45262 0.0
C1933 C 0.3758 0.17838 0.47749 0.0
H1934 H 0.35125 0.22583 0.46847 0.0
H1935 H 0.35678 0.20956 0.48579 0.0
H1936 H 0.38548 0.2332 0.43039 0.0
H1937 H 0.39089 0.21673 0.44783 0.0
H1938 H 0.39594 0.25159 0.51114 0.0
H1939 H 0.39515 0.23234 0.49167 0.0
H1940 H 0.36726 0.21848 0.54922 0.0
H1941 H 0.36602 0.1993 0.5296 0.0
H1942 H 0.38957 0.14295 0.50964 0.0
H1943 H 0.39292 0.1644 0.49249 0.0
H1944 H 0.35521 0.1436 0.54089 0.0
H1945 H 0.35863 0.16499 0.5239 0.0
H1946 H 0.34499 0.12915 0.46445 0.0
H1947 H 0.35162 0.15145 0.48149 0.0
H1948 H 0.38441 0.15306 0.43225 0.0
H1949 H 0.39081 0.17553 0.44927 0.0
N1950 N 0.37586 0.18988 0.46913 0.0
N1951 N 0.3789 0.19064 0.50553 0.0
C1952 C 0.77398 0.13502 0.463 0.0
C1953 C 0.76847 0.13563 0.44598 0.0
C1954 C 0.78312 0.14792 0.47248 0.0
C1955 C 0.78667 0.16168 0.46534 0.0
C1956 C 0.77225 0.14942 0.43869 0.0
C1957 C 0.78131 0.16234 0.44828 0.0
C1958 C 0.79694 0.17536 0.47498 0.0
C1959 C 0.75701 0.14998 0.51008 0.0
C1960 C 0.76015 0.14677 0.52732 0.0
C1961 C 0.76834 0.16035 0.49912 0.0
C1962 C 0.78304 0.16726 0.50503 0.0
C1963 C 0.77474 0.15417 0.53347 0.0
C1964 C 0.78604 0.16425 0.52244 0.0
C1965 C 0.79555 0.17764 0.49353 0.0
C1966 C 0.85242 0.23467 0.50948 0.0
C1967 C 0.85652 0.22963 0.52471 0.0
C1968 C 0.84014 0.22491 0.49927 0.0
C1969 C 0.83182 0.21001 0.50421 0.0
C1970 C 0.84779 0.21487 0.52996 0.0
C1971 C 0.83555 0.2052 0.51988 0.0
C1972 C 0.81948 0.19903 0.49313 0.0
C1973 C 0.86072 0.21498 0.46084 0.0
C1974 C 0.86093 0.22235 0.44497 0.0
C1975 C 0.84764 0.20663 0.47035 0.0
C1976 C 0.83455 0.20571 0.46438 0.0
C1977 C 0.8477 0.22103 0.43869 0.0
C1978 C 0.8346 0.21272 0.44831 0.0
C1979 C 0.82072 0.19695 0.47454 0.0
H1980 H 0.77155 0.12458 0.46878 0.0
H1981 H 0.78761 0.14713 0.48529 0.0
H1982 H 0.76814 0.15022 0.42561 0.0
H1983 H 0.78414 0.17286 0.44239 0.0
H1984 H 0.74581 0.14449 0.50513 0.0
H1985 H 0.76562 0.16283 0.48602 0.0
H1986 H 0.77749 0.15179 0.54662 0.0
H1987 H 0.79722 0.16943 0.52743 0.0
H1988 H 0.85894 0.24603 0.50521 0.0
H1989 H 0.83728 0.22892 0.4874 0.0
H1990 H 0.85051 0.21075 0.54185 0.0
H1991 H 0.82925 0.19379 0.52404 0.0
H1992 H 0.87065 0.2155 0.46579 0.0
H1993 H 0.84775 0.20086 0.48238 0.0
H1994 H 0.84753 0.22662 0.42653 0.0
H1995 H 0.82456 0.21195 0.44334 0.0
N1996 N 0.80938 0.18525 0.46615 0.0
N1997 N 0.80694 0.18934 0.5018 0.0
C1998 C 0.97305 0.53001 0.16809 0.0
C1999 C 0.98076 0.53485 0.15171 0.0
C2000 C 0.97472 0.52014 0.17903 0.0
C2001 C 0.98438 0.51518 0.17395 0.0
C2002 C 0.99032 0.52978 0.14662 0.0
C2003 C 0.99207 0.52002 0.15759 0.0
C2004 C 0.98602 0.50436 0.18496 0.0
C2005 C 0.00252 0.54449 0.22012 0.0
C2006 C 0.9944 0.54221 0.23608 0.0
C2007 C 0.00033 0.53258 0.2095 0.0
C2008 C 0.98987 0.51816 0.21454 0.0
C2009 C 0.98403 0.52774 0.24116 0.0
C2010 C 0.98186 0.51583 0.23054 0.0
C2011 C 0.98791 0.50541 0.20387 0.0
C2012 C 0.00328 0.45869 0.21968 0.0
C2013 C 0.99521 0.45275 0.23562 0.0
C2014 C 0.00127 0.46867 0.20948 0.0
C2015 C 0.99087 0.4726 0.21478 0.0
C2016 C 0.98523 0.45712 0.24129 0.0
C2017 C 0.98309 0.46698 0.23095 0.0
C2018 C 0.98849 0.48303 0.204 0.0
C2019 C 0.97619 0.44371 0.16875 0.0
C2020 C 0.98551 0.447 0.15374 0.0
C2021 C 0.97634 0.45502 0.1789 0.0
C2022 C 0.98589 0.4698 0.17424 0.0
C2023 C 0.99472 0.46181 0.14883 0.0
C2024 C 0.99484 0.47307 0.15893 0.0
C2025 C 0.98662 0.48198 0.18508 0.0
H2026 H 0.96545 0.53357 0.17223 0.0
H2027 H 0.96829 0.5162 0.19128 0.0
H2028 H 0.99654 0.53344 0.13417 0.0
H2029 H -0.00048 0.51629 0.15333 0.0
H2030 H 0.01053 0.5555 0.21578 0.0
H2031 H 0.00695 0.53462 0.19747 0.0
H2032 H 0.97778 0.52561 0.25352 0.0
H2033 H 0.97391 0.50478 0.23482 0.0
H2034 H 0.01126 0.45572 0.21521 0.0
H2035 H 0.00789 0.47334 0.19748 0.0
H2036 H 0.97886 0.45269 0.25352 0.0
H2037 H 0.97518 0.47003 0.23545 0.0
H2038 H 0.96898 0.43242 0.17287 0.0
H2039 H 0.96909 0.45222 0.19044 0.0
H2040 H 0.00181 0.46469 0.13712 0.0
H2041 H 0.00215 0.48439 0.15497 0.0
N2042 N 0.98556 0.49272 0.17632 0.0
N2043 N 0.98895 0.49465 0.21265 0.0
C2044 C 0.48018 0.42886 0.16866 0.0
C2045 C 0.47462 0.43354 0.15454 0.0
C2046 C 0.49219 0.43917 0.17884 0.0
C2047 C 0.49878 0.45427 0.17496 0.0
C2048 C 0.48163 0.44858 0.15029 0.0
C2049 C 0.49362 0.45881 0.16033 0.0
C2050 C 0.5107 0.46562 0.18623 0.0
C2051 C 0.47008 0.44504 0.22045 0.0
C2052 C 0.47103 0.43786 0.23591 0.0
C2053 C 0.48262 0.45418 0.21042 0.0
C2054 C 0.49636 0.45613 0.21542 0.0
C2055 C 0.48484 0.44005 0.24112 0.0
C2056 C 0.49742 0.44917 0.23098 0.0
C2057 C 0.50971 0.46631 0.20518 0.0
C2058 C 0.55009 0.52876 0.22117 0.0
C2059 C 0.55865 0.52887 0.23578 0.0
C2060 C 0.54162 0.51593 0.21128 0.0
C2061 C 0.54151 0.50292 0.21573 0.0
C2062 C 0.55836 0.51573 0.24035 0.0
C2063 C 0.54975 0.50283 0.23048 0.0
C2064 C 0.53213 0.48934 0.20545 0.0
C2065 C 0.56989 0.52008 0.17036 0.0
C2066 C 0.5654 0.52524 0.15561 0.0
C2067 C 0.55954 0.50796 0.18031 0.0
C2068 C 0.54456 0.50085 0.17566 0.0
C2069 C 0.55049 0.51774 0.15064 0.0
C2070 C 0.54021 0.50565 0.16051 0.0
C2071 C 0.53317 0.48861 0.18653 0.0
H2072 H 0.47499 0.41732 0.17215 0.0
H2073 H 0.49616 0.4354 0.18988 0.0
H2074 H 0.47775 0.45246 0.13927 0.0
H2075 H 0.49858 0.47037 0.157 0.0
H2076 H 0.45967 0.44387 0.21635 0.0
H2077 H 0.48162 0.45993 0.1989 0.0
H2078 H 0.4859 0.43464 0.25296 0.0
H2079 H 0.50796 0.45075 0.23523 0.0
H2080 H 0.54972 0.53853 0.21754 0.0
H2081 H 0.53498 0.51612 0.20024 0.0
H2082 H 0.56489 0.51543 0.25143 0.0
H2083 H 0.54965 0.49283 0.23422 0.0
H2084 H 0.58132 0.52563 0.17446 0.0
H2085 H 0.5632 0.50424 0.19173 0.0
H2086 H 0.54675 0.52127 0.13911 0.0
H2087 H 0.52875 0.50029 0.15656 0.0
N2088 N 0.52238 0.47682 0.17768 0.0
N2089 N 0.52052 0.47811 0.21409 0.0
C2090 C 0.46457 0.0177 0.2269 0.0
C2091 C 0.45664 0.00503 0.23756 0.0
C2092 C 0.47668 0.01976 0.21681 0.0
C2093 C 0.48096 0.00909 0.21694 0.0
C2094 C 0.46121 0.99456 0.23802 0.0
C2095 C 0.47329 0.99661 0.22786 0.0
C2096 C 0.49359 0.01096 0.20605 0.0
C2097 C 0.45902 0.00624 0.16699 0.0
C2098 C 0.46315 0.01889 0.15658 0.0
C2099 C 0.46948 0.00487 0.17703 0.0
C2100 C 0.48425 0.01621 0.17704 0.0
C2101 C 0.47801 0.03013 0.15641 0.0
C2102 C 0.48846 0.02875 0.16648 0.0
C2103 C 0.49541 0.01485 0.18762 0.0
C2104 C 0.54376 0.00416 0.16457 0.0
C2105 C 0.55155 0.01598 0.15263 0.0
C2106 C 0.53301 0.0038 0.17598 0.0
C2107 C 0.52996 0.01536 0.1759 0.0
C2108 C 0.54852 0.02757 0.15262 0.0
C2109 C 0.53776 0.02721 0.16407 0.0
C2110 C 0.51797 0.01462 0.18714 0.0
C2111 C 0.55226 0.01773 0.22555 0.0
C2112 C 0.54753 0.00541 0.2368 0.0
C2113 C 0.54213 0.01958 0.21543 0.0
C2114 C 0.52708 0.00903 0.21619 0.0
C2115 C 0.53243 0.99504 0.23783 0.0
C2116 C 0.5223 0.99687 0.22767 0.0
C2117 C 0.51618 0.01083 0.20563 0.0
H2118 H 0.4613 0.02594 0.22615 0.0
H2119 H 0.48268 0.02969 0.20888 0.0
H2120 H 0.45552 0.98482 0.24635 0.0
H2121 H 0.47653 0.98833 0.22836 0.0
H2122 H 0.44775 0.99723 0.1671 0.0
H2123 H 0.46605 0.99489 0.18468 0.0
H2124 H 0.48154 0.04006 0.14864 0.0
H2125 H 0.49983 0.03757 0.1662 0.0
H2126 H 0.54588 0.9951 0.165 0.0
H2127 H 0.52688 0.99433 0.18462 0.0
H2128 H 0.55416 0.03672 0.14339 0.0
H2129 H 0.53545 0.03615 0.16361 0.0
H2130 H 0.56379 0.02607 0.22475 0.0
H2131 H 0.54604 0.02931 0.20714 0.0
H2132 H 0.52845 0.98538 0.24626 0.0
H2133 H 0.51073 0.98866 0.22858 0.0
N2134 N 0.50401 0.00905 0.21431 0.0
N2135 N 0.50757 0.0166 0.17889 0.0
C2136 C 0.54334 0.00191 0.79369 0.0
C2137 C 0.54076 0.99335 0.77807 0.0
C2138 C 0.53166 -0.00017 0.80466 0.0
C2139 C 0.51719 0.98902 0.80038 0.0
C2140 C 0.52622 0.98273 0.77361 0.0
C2141 C 0.51452 0.98066 0.78462 0.0
C2142 C 0.50479 0.98687 0.81191 0.0
C2143 C 0.5316 0.97288 0.84443 0.0
C2144 C 0.53849 0.98202 0.85938 0.0
C2145 C 0.52053 0.97377 0.83512 0.0
C2146 C 0.51621 0.98385 0.84058 0.0
C2147 C 0.53392 0.99187 0.865 0.0
C2148 C 0.52283 0.9927 0.85576 0.0
C2149 C 0.50468 0.98513 0.8308 0.0
C2150 C 0.44489 0.97405 0.85284 0.0
C2151 C 0.44876 0.98277 0.86852 0.0
C2152 C 0.45576 0.97509 0.84104 0.0
C2153 C 0.47068 0.98491 0.84466 0.0
C2154 C 0.46373 0.99265 0.87198 0.0
C2155 C 0.47456 0.99362 0.86025 0.0
C2156 C 0.48238 0.98573 0.8328 0.0
C2157 C 0.45975 0.0045 0.80037 0.0
C2158 C 0.45222 0.99605 0.78517 0.0
C2159 C 0.46942 0.00157 0.80988 0.0
C2160 C 0.47173 0.9901 0.80442 0.0
C2161 C 0.45462 0.98459 0.77972 0.0
C2162 C 0.46438 0.98174 0.78918 0.0
C2163 C 0.48246 0.98741 0.81391 0.0
H2164 H 0.55441 0.0101 0.79758 0.0
H2165 H 0.53394 0.00671 0.81649 0.0
H2166 H 0.52387 0.97612 0.76152 0.0
H2167 H 0.5034 0.97242 0.78094 0.0
H2168 H 0.5349 0.9652 0.83978 0.0
H2169 H 0.51535 0.9666 0.82367 0.0
H2170 H 0.53883 0.99886 0.87667 0.0
H2171 H 0.51956 0.00044 0.86031 0.0
H2172 H 0.43349 0.96617 0.8499 0.0
H2173 H 0.45252 0.968 0.82929 0.0
H2174 H 0.4671 -0.00028 0.88375 0.0
H2175 H 0.48601 0.00126 0.86331 0.0
H2176 H 0.45842 0.0136 0.80472 0.0
H2177 H 0.47532 0.00846 0.82129 0.0
H2178 H 0.44889 0.97775 0.76822 0.0
H2179 H 0.46612 0.97292 0.78468 0.0
N2180 N 0.49362 0.98783 0.80416 0.0
N2181 N 0.49353 0.98473 0.84053 0.0
C2182 C 0.99401 0.54107 0.79849 0.0
C2183 C 0.00163 0.54692 0.78226 0.0
C2184 C 0.99584 0.53069 0.80805 0.0
C2185 C 0.0056 0.52621 0.80179 0.0
C2186 C 0.01115 0.5422 0.77579 0.0
C2187 C 0.0131 0.53193 0.78547 0.0
C2188 C 0.00738 0.51493 0.81153 0.0
C2189 C 0.02356 0.55324 0.84989 0.0
C2190 C 0.01525 0.55009 0.86585 0.0
C2191 C 0.02154 0.5419 0.83825 0.0
C2192 C 0.01107 0.52722 0.84225 0.0
C2193 C 0.00482 0.53537 0.8698 0.0
C2194 C 0.00282 0.52406 0.85818 0.0
C2195 C 0.00911 0.51502 0.83045 0.0
C2196 C 0.02122 0.46587 0.84333 0.0
C2197 C 0.01159 0.45855 0.85774 0.0
C2198 C 0.02012 0.47667 0.83365 0.0
C2199 C 0.00943 0.48037 0.83832 0.0
C2200 C 0.00089 0.46226 0.86233 0.0
C2201 C -8e-05 0.47318 0.85281 0.0
C2202 C 0.00842 0.49206 0.82858 0.0
C2203 C 0.99205 0.45366 0.79104 0.0
C2204 C 0.00133 0.45632 0.77613 0.0
C2205 C 0.99381 0.46527 0.80194 0.0
C2206 C 0.00492 0.47974 0.79816 0.0
C2207 C 0.01227 0.47085 0.77218 0.0
C2208 C 0.01396 0.48248 0.78303 0.0
C2209 C 0.0069 0.49206 0.80969 0.0
H2210 H 0.98638 0.54429 0.8036 0.0
H2211 H 0.98945 0.52601 0.82021 0.0
H2212 H 0.01721 0.54657 0.76335 0.0
H2213 H 0.02054 0.5285 0.78024 0.0
H2214 H 0.03184 0.56443 0.8466 0.0
H2215 H 0.02832 0.54458 0.82627 0.0
H2216 H 0.99808 0.53257 0.88183 0.0
H2217 H 0.99473 0.51281 0.86157 0.0
H2218 H 0.02956 0.4632 0.83952 0.0
H2219 H 0.02773 0.48226 0.82268 0.0
H2220 H 0.99346 0.45693 0.87353 0.0
H2221 H 0.99168 0.47597 0.8567 0.0
H2222 H 0.98359 0.44257 0.79446 0.0
H2223 H 0.98649 0.46295 0.81331 0.0
H2224 H 0.01945 0.47324 0.76064 0.0
H2225 H 0.02247 0.4936 0.77978 0.0
N2226 N 0.00648 0.50351 0.80187 0.0
N2227 N 0.00943 0.5035 0.83824 0.0
C2228 C 0.52254 0.56627 0.78868 0.0
C2229 C 0.52844 0.56084 0.7758 0.0
C2230 C 0.50998 0.5566 0.7985 0.0
C2231 C 0.5034 0.54132 0.79597 0.0
C2232 C 0.52142 0.54562 0.77269 0.0
C2233 C 0.50905 0.53597 0.78268 0.0
C2234 C 0.4907 0.53068 0.80697 0.0
C2235 C 0.52768 0.5554 0.84612 0.0
C2236 C 0.52482 0.56276 0.86001 0.0
C2237 C 0.51637 0.5454 0.83499 0.0
C2238 C 0.502 0.54286 0.83707 0.0
C2239 C 0.51036 0.56003 0.86223 0.0
C2240 C 0.49907 0.55015 0.8509 0.0
C2241 C 0.4898 0.53172 0.82591 0.0
C2242 C 0.44328 0.47174 0.84738 0.0
C2243 C 0.43568 0.47484 0.8607 0.0
C2244 C 0.45322 0.4828 0.83591 0.0
C2245 C 0.45554 0.49713 0.83722 0.0
C2246 C 0.43797 0.4892 0.86194 0.0
C2247 C 0.44788 0.50026 0.85037 0.0
C2248 C 0.46687 0.5091 0.82601 0.0
C2249 C 0.43236 0.47634 0.78853 0.0
C2250 C 0.43781 0.46973 0.77668 0.0
C2251 C 0.44203 0.48897 0.79825 0.0
C2252 C 0.45731 0.49505 0.79647 0.0
C2253 C 0.4531 0.4761 0.77462 0.0
C2254 C 0.46272 0.48865 0.78434 0.0
C2255 C 0.46789 0.50796 0.80714 0.0
H2256 H 0.52764 0.57799 0.79113 0.0
H2257 H 0.50555 0.56106 0.80821 0.0
H2258 H 0.52579 0.54113 0.76292 0.0
H2259 H 0.50413 0.52426 0.78034 0.0
H2260 H 0.53867 0.5573 0.84386 0.0
H2261 H 0.51885 0.53951 0.82488 0.0
H2262 H 0.50765 0.56523 0.873 0.0
H2263 H 0.48801 0.54813 0.85301 0.0
H2264 H 0.44169 0.46079 0.84595 0.0
H2265 H 0.45933 0.48019 0.82628 0.0
H2266 H 0.43246 0.492 0.87222 0.0
H2267 H 0.44971 0.51131 0.85181 0.0
H2268 H 0.42063 0.47181 0.79019 0.0
H2269 H 0.43759 0.49392 0.80721 0.0
H2270 H 0.45767 0.47119 0.76581 0.0
H2271 H 0.47446 0.49315 0.78272 0.0
N2272 N 0.47975 0.51879 0.79842 0.0
N2273 N 0.47782 0.52098 0.83463 0.0
C2274 C 0.63356 0.77274 0.50115 0.0
C2275 C 0.62127 0.7648 0.48995 0.0
C2276 C 0.63439 0.78364 0.51266 0.0
C2277 C 0.62278 0.7866 0.51354 0.0
C2278 C 0.60971 0.76785 0.49071 0.0
C2279 C 0.61048 0.77868 0.50239 0.0
C2280 C 0.62399 0.79879 0.52484 0.0
C2281 C 0.6256 0.76618 0.56248 0.0
C2282 C 0.63941 0.77184 0.57078 0.0
C2283 C 0.62188 0.77559 0.5536 0.0
C2284 C 0.63193 0.79077 0.55292 0.0
C2285 C 0.64927 0.78708 0.57043 0.0
C2286 C 0.64552 0.79646 0.5617 0.0
C2287 C 0.6286 0.80092 0.54301 0.0
C2288 C 0.62592 0.85527 0.5641 0.0
C2289 C 0.63917 0.86263 0.57384 0.0
C2290 C 0.6223 0.84243 0.55447 0.0
C2291 C 0.63193 0.83683 0.55429 0.0
C2292 C 0.64848 0.85665 0.57417 0.0
C2293 C 0.64487 0.84387 0.56454 0.0
C2294 C 0.62878 0.82369 0.54356 0.0
C2295 C 0.63552 0.85831 0.50298 0.0
C2296 C 0.62435 0.85413 0.49011 0.0
C2297 C 0.63545 0.84788 0.51465 0.0
C2298 C 0.62391 0.83317 0.51416 0.0
C2299 C 0.61287 0.83944 0.48946 0.0
C2300 C 0.61262 0.82907 0.50143 0.0
C2301 C 0.6244 0.82171 0.52525 0.0
H2302 H 0.6428 0.7709 0.50054 0.0
H2303 H 0.64429 0.79002 0.52051 0.0
H2304 H 0.6001 0.7619 0.48224 0.0
H2305 H 0.60151 0.78094 0.50264 0.0
H2306 H 0.61779 0.75448 0.56256 0.0
H2307 H 0.61123 0.771 0.54717 0.0
H2308 H 0.65989 0.79177 0.57697 0.0
H2309 H 0.65339 0.80816 0.56145 0.0
H2310 H 0.61853 0.85961 0.56358 0.0
H2311 H 0.61207 0.83699 0.54701 0.0
H2312 H 0.6586 0.86187 0.58185 0.0
H2313 H 0.65238 0.83966 0.5648 0.0
H2314 H 0.64467 0.86951 0.50343 0.0
H2315 H 0.64473 0.85128 0.5236 0.0
H2316 H 0.6042 0.83597 0.47953 0.0
H2317 H 0.60374 0.81776 0.50052 0.0
N2318 N 0.62201 0.80923 0.51673 0.0
N2319 N 0.63083 0.81328 0.55162 0.0
C2320 C 0.14513 0.7668 0.51026 0.0
C2321 C 0.13828 0.771 0.49724 0.0
C2322 C 0.15654 0.77746 0.52084 0.0
C2323 C 0.16138 0.79244 0.51826 0.0
C2324 C 0.1431 0.78598 0.49479 0.0
C2325 C 0.15468 0.79662 0.50506 0.0
C2326 C 0.17358 0.80394 0.52895 0.0
C2327 C 0.13443 0.78373 0.5655 0.0
C2328 C 0.13584 0.77666 0.58077 0.0
C2329 C 0.1466 0.79256 0.55473 0.0
C2330 C 0.16043 0.79433 0.5588 0.0
C2331 C 0.1497 0.77846 0.58489 0.0
C2332 C 0.16192 0.78733 0.57405 0.0
C2333 C 0.17346 0.80443 0.54798 0.0
C2334 C 0.22015 0.86628 0.5627 0.0
C2335 C 0.22775 0.86484 0.57737 0.0
C2336 C 0.20994 0.85393 0.55316 0.0
C2337 C 0.20732 0.83987 0.5578 0.0
C2338 C 0.22477 0.85073 0.58244 0.0
C2339 C 0.2146 0.83832 0.57272 0.0
C2340 C 0.19651 0.82683 0.54752 0.0
C2341 C 0.234 0.85444 0.51004 0.0
C2342 C 0.23 0.86157 0.49717 0.0
C2343 C 0.22318 0.84278 0.52016 0.0
C2344 C 0.20824 0.83802 0.51737 0.0
C2345 C 0.21504 0.85658 0.49419 0.0
C2346 C 0.20425 0.84481 0.50407 0.0
C2347 C 0.19662 0.82627 0.52849 0.0
H2348 H 0.14158 0.75529 0.51232 0.0
H2349 H 0.16169 0.77405 0.53085 0.0
H2350 H 0.13807 0.78948 0.4847 0.0
H2351 H 0.15829 0.80813 0.50285 0.0
H2352 H 0.12389 0.78247 0.56185 0.0
H2353 H 0.14524 0.79824 0.5434 0.0
H2354 H 0.15117 0.77329 0.59669 0.0
H2355 H 0.17255 0.78877 0.57761 0.0
H2356 H 0.22192 0.87697 0.55878 0.0
H2357 H 0.20399 0.85536 0.5422 0.0
H2358 H 0.23044 0.84931 0.59375 0.0
H2359 H 0.21254 0.82754 0.57672 0.0
H2360 H 0.24548 0.85808 0.51253 0.0
H2361 H 0.22646 0.83755 0.53025 0.0
H2362 H 0.21169 0.86178 0.48416 0.0
H2363 H 0.19279 0.84128 0.50168 0.0
N2364 N 0.18511 0.81491 0.51993 0.0
N2365 N 0.18498 0.81583 0.55658 0.0
C2366 C 0.23854 0.38123 0.5089 0.0
C2367 C 0.23476 0.37126 0.49449 0.0
C2368 C 0.22761 0.3825 0.51817 0.0
C2369 C 0.21278 0.37384 0.51311 0.0
C2370 C 0.21995 0.36287 0.48928 0.0
C2371 C 0.20911 0.36421 0.49841 0.0
C2372 C 0.20088 0.3746 0.52282 0.0
C2373 C 0.21779 0.35385 0.5613 0.0
C2374 C 0.22415 0.362 0.57708 0.0
C2375 C 0.20987 0.3577 0.54972 0.0
C2376 C 0.20831 0.36993 0.5535 0.0
C2377 C 0.22251 0.37421 0.58093 0.0
C2378 C 0.21454 0.37806 0.56929 0.0
C2379 C 0.19916 0.3734 0.54174 0.0
C2380 C 0.13674 0.35637 0.55227 0.0
C2381 C 0.13743 0.3647 0.56746 0.0
C2382 C 0.1495 0.35949 0.54294 0.0
C2383 C 0.16321 0.37118 0.5484 0.0
C2384 C 0.15118 0.37631 0.57305 0.0
C2385 C 0.16398 0.37947 0.56363 0.0
C2386 C 0.17681 0.3739 0.53917 0.0
C2387 C 0.15023 0.38263 0.49868 0.0
C2388 C 0.14579 0.37302 0.4838 0.0
C2389 C 0.16098 0.38352 0.51055 0.0
C2390 C 0.16734 0.37468 0.50781 0.0
C2391 C 0.15233 0.36435 0.48106 0.0
C2392 C 0.16302 0.36523 0.49286 0.0
C2393 C 0.1785 0.37503 0.52023 0.0
H2394 H 0.24988 0.38786 0.51316 0.0
H2395 H 0.23073 0.39021 0.52928 0.0
H2396 H 0.21675 0.35529 0.47801 0.0
H2397 H 0.19776 0.35749 0.49418 0.0
H2398 H 0.21896 0.34447 0.55786 0.0
H2399 H 0.20476 0.35095 0.53792 0.0
H2400 H 0.22713 0.3806 0.5931 0.0
H2401 H 0.21322 0.38736 0.57262 0.0
H2402 H 0.12636 0.34714 0.54788 0.0
H2403 H 0.14869 0.35255 0.53167 0.0
H2404 H 0.15205 0.38295 0.58468 0.0
H2405 H 0.17448 0.38838 0.56823 0.0
H2406 H 0.14552 0.38958 0.50103 0.0
H2407 H 0.16436 0.39112 0.52179 0.0
H2408 H 0.149 0.35664 0.46993 0.0
H2409 H 0.16772 0.35828 0.49049 0.0
N2410 N 0.19045 0.3753 0.51284 0.0
N2411 N 0.18726 0.37324 0.54921 0.0
H2412 H 0.96339 0.3696 0.08905 0.0
H2413 H 0.00959 0.4465 0.14082 0.0
H2414 H 0.01061 0.39733 0.08617 0.0
H2415 H 0.96221 0.42048 0.14283 0.0
H2416 H 0.01004 0.42756 0.1223 0.0
H2417 H 0.96257 0.38711 0.11021 0.0
C2418 C 0.97358 0.37932 0.0929 0.0
C2419 C 0.98709 0.38195 0.08582 0.0
C2420 C -0.00048 0.42594 0.12681 0.0
C2421 C 0.98623 0.40198 0.11005 0.0
C2422 C -0.00074 0.4368 0.13731 0.0
C2423 C 0.98583 0.43514 0.14322 0.0
C2424 C 0.98626 0.41328 0.12209 0.0
C2425 C 0.97281 0.42218 0.13861 0.0
C2426 C 0.97311 0.38928 0.10503 0.0
C2427 C -4e-05 0.39466 0.09146 0.0
N2428 N 0.97334 0.41177 0.12821 0.0
N2429 N -0.00081 0.40419 0.10315 0.0
H2430 H 0.60207 0.60266 0.08964 0.0
H2431 H 0.59312 0.53289 0.14361 0.0
H2432 H 0.63479 0.58936 0.0881 0.0
H2433 H 0.5618 0.54795 0.1448 0.0
H2434 H 0.60954 0.5543 0.12509 0.0
H2435 H 0.58823 0.58356 0.11165 0.0
C2436 C 0.60649 0.59586 0.09412 0.0
C2437 C 0.61969 0.5977 0.087 0.0
C2438 C 0.5991 0.55294 0.1295 0.0
C2439 C 0.60356 0.5754 0.11205 0.0
C2440 C 0.58977 0.54078 0.14012 0.0
C2441 C 0.57601 0.53856 0.14553 0.0
C2442 C 0.59461 0.56293 0.12437 0.0
C2443 C 0.57218 0.54907 0.1406 0.0
C2444 C 0.59848 0.58483 0.10662 0.0
C2445 C 0.62459 0.58824 0.09305 0.0
N2446 N 0.58139 0.56073 0.13025 0.0
N2447 N 0.61649 0.57745 0.10518 0.0
H2448 H 0.41609 0.03032 0.06873 0.0
H2449 H 0.43477 0.01084 0.16574 0.0
H2450 H 0.38379 0.0095 0.11096 0.0
H2451 H 0.46621 0.02981 0.1223 0.0
H2452 H 0.41636 0.01193 0.1468 0.0
H2453 H 0.43506 0.03232 0.08926 0.0
C2454 C 0.413 0.02637 0.08241 0.0
C2455 C 0.39829 0.0197 0.08809 0.0
C2456 C 0.42731 0.01592 0.14145 0.0
C2457 C 0.41998 0.02169 0.11163 0.0
C2458 C 0.43781 0.01522 0.15222 0.0
C2459 C 0.45206 0.02016 0.14558 0.0
C2460 C 0.43106 0.02158 0.12388 0.0
C2461 C 0.45543 0.026 0.12807 0.0
C2462 C 0.42384 0.0274 0.0941 0.0
C2463 C 0.39495 0.01454 0.10591 0.0
N2464 N 0.445 0.02648 0.11782 0.0
N2465 N 0.4057 0.01558 0.11702 0.0
H2466 H 0.36961 0.97204 0.92019 0.0
H2467 H 0.44999 0.98344 0.90541 0.0
H2468 H 0.40347 0.98868 0.96099 0.0
H2469 H 0.42136 0.97886 0.86117 0.0
H2470 H 0.43162 0.98222 0.92647 0.0
H2471 H 0.3871 0.97146 0.89881 0.0
C2472 C 0.38068 0.97555 0.92469 0.0
C2473 C 0.38501 0.98037 0.9425 0.0
C2474 C 0.42934 0.98148 0.91216 0.0
C2475 C 0.40498 0.97955 0.91815 0.0
C2476 C 0.43988 0.98226 0.90009 0.0
C2477 C 0.43732 0.98143 0.88144 0.0
C2478 C 0.41606 0.97975 0.9056 0.0
C2479 C 0.42378 0.97946 0.87542 0.0
C2480 C 0.39063 0.97516 0.91249 0.0
C2481 C 0.39947 0.98459 0.94757 0.0
N2482 N 0.41367 0.97873 0.88747 0.0
N2483 N 0.4089 0.98407 0.93549 0.0
H2484 H 0.03985 0.41717 0.93544 0.0
H2485 H 0.98961 0.43131 0.86795 0.0
H2486 H 0.99618 0.38338 0.92007 0.0
H2487 H 0.03651 0.46043 0.87174 0.0
H2488 H 0.99175 0.41367 0.8873 0.0
H2489 H 0.03896 0.43333 0.91237 0.0
C2490 C 0.03013 0.41313 0.9271 0.0
C2491 C 0.01806 0.39894 0.92968 0.0
C2492 C 0.0016 0.42385 0.88377 0.0
C2493 C 0.01691 0.41736 0.90341 0.0
C2494 C 0.00037 0.43394 0.87283 0.0
C2495 C 0.0129 0.44735 0.86835 0.0
C2496 C 0.01544 0.42729 0.89052 0.0
C2497 C 0.0266 0.45017 0.87483 0.0
C2498 C 0.02965 0.42232 0.91391 0.0
C2499 C 0.00578 0.3942 0.91843 0.0
N2500 N 0.02749 0.44029 0.88576 0.0
N2501 N 0.00545 0.40344 0.90592 0.0
H2502 H 0.60344 0.60596 0.9256 0.0
H2503 H 0.52925 0.58855 0.87542 0.0
H2504 H 0.57761 0.62553 0.94148 0.0
H2505 H 0.54768 0.55999 0.87322 0.0
H2506 H 0.5486 0.60444 0.89659 0.0
H2507 H 0.58498 0.59149 0.90278 0.0
C2508 C 0.59396 0.60733 0.92413 0.0
C2509 C 0.59203 0.61694 0.93544 0.0
C2510 C 0.54839 0.5947 0.8914 0.0
C2511 C 0.57084 0.60037 0.90947 0.0
C2512 C 0.5373 0.58557 0.87939 0.0
C2513 C 0.53676 0.57285 0.87248 0.0
C2514 C 0.55911 0.59119 0.89643 0.0
C2515 C 0.54774 0.56977 0.87788 0.0
C2516 C 0.58338 0.59899 0.91122 0.0
C2517 C 0.57943 0.61814 0.93313 0.0
N2518 N 0.55844 0.57887 0.8895 0.0
N2519 N 0.56931 0.60996 0.92038 0.0
H2520 H 0.02729 0.63049 0.91509 0.0
H2521 H 0.01591 0.54978 0.90272 0.0
H2522 H 0.01499 0.59874 0.95804 0.0
H2523 H 0.0199 0.57764 0.85786 0.0
H2524 H 0.01843 0.56893 0.92342 0.0
H2525 H 0.02741 0.61252 0.89412 0.0
C2526 C 0.02467 0.61979 0.92015 0.0
C2527 C 0.02114 0.61617 0.93841 0.0
C2528 C 0.01878 0.57089 0.90905 0.0
C2529 C 0.02139 0.59563 0.91452 0.0
C2530 C 0.01726 0.55991 0.89721 0.0
C2531 C 0.01752 0.56202 0.8785 0.0
C2532 C 0.02062 0.58414 0.9022 0.0
C2533 C 0.0197 0.57556 0.87217 0.0
C2534 C 0.02478 0.60956 0.90818 0.0
C2535 C 0.01804 0.60219 0.94421 0.0
N2536 N 0.02109 0.58609 0.884 0.0
N2537 N 0.0182 0.59245 0.93231 0.0
H2538 H 0.40023 0.4028 0.93619 0.0
H2539 H 0.40889 0.46902 0.87436 0.0
H2540 H 0.36915 0.41817 0.93721 0.0
H2541 H 0.44058 0.45447 0.87712 0.0
H2542 H 0.3936 0.45012 0.89646 0.0
H2543 H 0.41449 0.42119 0.91348 0.0
C2544 C 0.39645 0.41012 0.93171 0.0
C2545 C 0.38356 0.40905 0.93879 0.0
C2546 C 0.40388 0.45105 0.89216 0.0
C2547 C 0.3998 0.43011 0.91248 0.0
C2548 C 0.41265 0.46188 0.87962 0.0
C2549 C 0.42602 0.46331 0.87379 0.0
C2550 C 0.40855 0.44162 0.89894 0.0
C2551 C 0.43025 0.45364 0.88092 0.0
C2552 C 0.40456 0.42059 0.91863 0.0
C2553 C 0.37899 0.41859 0.93208 0.0
N2554 N 0.42157 0.44325 0.8931 0.0
N2555 N 0.38715 0.42878 0.91934 0.0
H2556 H 0.61526 0.00463 0.92317 0.0
H2557 H 0.53967 0.95756 0.86962 0.0
H2558 H 0.58986 0.95718 0.9248 0.0
H2559 H 0.56446 0.00499 0.87142 0.0
H2560 H 0.55898 0.95691 0.88732 0.0
H2561 H 0.59793 0.00464 0.90158 0.0
C2562 C 0.60617 0.99417 0.91877 0.0
C2563 C 0.60406 0.98087 0.92583 0.0
C2564 C 0.56021 0.96745 0.88376 0.0
C2565 C 0.58387 0.98084 0.90131 0.0
C2566 C 0.54924 0.96783 0.87359 0.0
C2567 C 0.5504 0.98135 0.86919 0.0
C2568 C 0.57245 0.9807 0.88948 0.0
C2569 C 0.56298 0.99432 0.87479 0.0
C2570 C 0.59617 0.9942 0.90653 0.0
C2571 C 0.59184 0.9677 0.91988 0.0
N2572 N 0.57347 0.99367 0.88468 0.0
N2573 N 0.58216 0.96802 0.90802 0.0
H2574 H 0.59324 0.98983 0.07211 0.0
H2575 H 0.57855 0.03896 0.14238 0.0
H2576 H 0.62422 0.03587 0.08112 0.0
H2577 H 0.54883 0.99267 0.13309 0.0
H2578 H 0.59558 0.03833 0.12026 0.0
H2579 H 0.57701 0.99094 0.09467 0.0
C2580 C 0.59659 0.00023 0.07875 0.0
C2581 C 0.61005 0.01282 0.07455 0.0
C2582 C 0.58535 0.02832 0.12313 0.0
C2583 C 0.59153 0.01413 0.10073 0.0
C2584 C 0.5756 0.02868 0.13569 0.0
C2585 C 0.56225 0.01583 0.13964 0.0
C2586 C 0.58169 0.01503 0.11442 0.0
C2587 C 0.55908 0.00279 0.1307 0.0
C2588 C 0.58734 0.00083 0.09175 0.0
C2589 C 0.61396 0.02589 0.08397 0.0
N2590 N 0.56869 0.00274 0.11851 0.0
N2591 N 0.6047 0.02622 0.09658 0.0
H2592 H 0.98047 0.61049 0.10614 0.0
H2593 H 0.97714 0.53312 0.11517 0.0
H2594 H 0.97503 0.58203 0.0612 0.0
H2595 H 0.97984 0.55965 0.16107 0.0
H2596 H 0.97523 0.55057 0.0954 0.0
H2597 H 0.97909 0.59167 0.12673 0.0
C2598 C 0.97889 0.60026 0.10061 0.0
C2599 C 0.97789 0.59786 0.08189 0.0
C2600 C 0.97617 0.55257 0.1098 0.0
C2601 C 0.9763 0.57629 0.10536 0.0
C2602 C 0.97734 0.54265 0.12108 0.0
C2603 C 0.97879 0.54501 0.13977 0.0
C2604 C 0.97652 0.56505 0.1172 0.0
C2605 C 0.97869 0.55739 0.14673 0.0
C2606 C 0.97806 0.5895 0.11237 0.0
C2607 C 0.97568 0.58432 0.07551 0.0
N2608 N 0.9777 0.56703 0.13542 0.0
N2609 N 0.97507 0.57412 0.0872 0.0
H2610 H 0.4132 0.36594 0.08165 0.0
H2611 H 0.45091 0.43627 0.14654 0.0
H2612 H 0.39744 0.39631 0.08967 0.0
H2613 H 0.46801 0.40692 0.13963 0.0
H2614 H 0.42997 0.42019 0.12768 0.0
H2615 H 0.43205 0.37917 0.10475 0.0
C2616 C 0.41362 0.37529 0.0884 0.0
C2617 C 0.40388 0.38017 0.08358 0.0
C2618 C 0.43823 0.41717 0.13031 0.0
C2619 C 0.42535 0.39532 0.10987 0.0
C2620 C 0.45022 0.42639 0.14104 0.0
C2621 C 0.46129 0.42302 0.14442 0.0
C2622 C 0.4373 0.40448 0.12274 0.0
C2623 C 0.4597 0.40991 0.13729 0.0
C2624 C 0.42439 0.38286 0.10151 0.0
C2625 C 0.40492 0.39236 0.09269 0.0
N2626 N 0.44798 0.40117 0.1266 0.0
N2627 N 0.41549 0.39953 0.1053 0.0
H2628 H 0.62659 0.72456 0.39111 0.0
H2629 H 0.62886 0.74375 0.49562 0.0
H2630 H 0.63592 0.7021 0.43308 0.0
H2631 H 0.61324 0.7614 0.4544 0.0
H2632 H 0.63057 0.72766 0.47309 0.0
H2633 H 0.6207 0.73745 0.41417 0.0
C2634 C 0.62733 0.7223 0.4052 0.0
C2635 C 0.63184 0.71232 0.4102 0.0
C2636 C 0.62663 0.73494 0.46899 0.0
C2637 C 0.62514 0.72704 0.43667 0.0
C2638 C 0.62572 0.74417 0.48184 0.0
C2639 C 0.62099 0.75399 0.47685 0.0
C2640 C 0.62294 0.73564 0.45097 0.0
C2641 C 0.61686 0.75394 0.45885 0.0
C2642 C 0.6239 0.7296 0.41835 0.0
C2643 C 0.6324 0.70964 0.42863 0.0
N2644 N 0.61807 0.74502 0.44653 0.0
N2645 N 0.62924 0.71707 0.4412 0.0
H2646 H 0.29065 0.91287 0.4134 0.0
H2647 H 0.23226 0.8883 0.49261 0.0
H2648 H 0.27945 0.94262 0.43954 0.0
H2649 H 0.25323 0.8635 0.47811 0.0
H2650 H 0.24961 0.9084 0.47327 0.0
H2651 H 0.27727 0.89464 0.43696 0.0
C2652 C 0.28548 0.91559 0.42421 0.0
C2653 C 0.28607 0.92922 0.4245 0.0
C2654 C 0.25054 0.89864 0.47445 0.0
C2655 C 0.27069 0.90844 0.45135 0.0
C2656 C 0.24061 0.88716 0.4854 0.0
C2657 C 0.24129 0.87423 0.48679 0.0
C2658 C 0.26109 0.89709 0.46458 0.0
C2659 C 0.25238 0.87332 0.47737 0.0
C2660 C 0.27791 0.90523 0.43767 0.0
C2661 C 0.27932 0.93228 0.43887 0.0
N2662 N 0.26175 0.88454 0.46644 0.0
N2663 N 0.27175 0.92189 0.4516 0.0
H2664 H 0.08937 0.35003 0.39149 0.0
H2665 H 0.12 0.37262 0.49165 0.0
H2666 H 0.06765 0.36236 0.43156 0.0
H2667 H 0.14537 0.37056 0.44706 0.0
H2668 H 0.10038 0.36847 0.47052 0.0
H2669 H 0.10951 0.3567 0.41238 0.0
C2670 C 0.08888 0.3543 0.40462 0.0
C2671 C 0.0768 0.35576 0.40966 0.0
C2672 C 0.11029 0.36902 0.46539 0.0
C2673 C 0.09985 0.36316 0.43392 0.0
C2674 C 0.12152 0.37147 0.47742 0.0
C2675 C 0.13429 0.37178 0.47115 0.0
C2676 C 0.11183 0.36681 0.44701 0.0
C2677 C 0.1356 0.37008 0.45258 0.0
C2678 C 0.1004 0.35805 0.4166 0.0
C2679 C 0.07666 0.36094 0.42711 0.0
N2680 N 0.12449 0.36757 0.44122 0.0
N2681 N 0.088 0.36443 0.43865 0.0
H2682 H 0.02717 0.28154 0.26124 0.0
H2683 H 0.10194 0.31691 0.20417 0.0
H2684 H 0.06028 0.32765 0.2613 0.0
H2685 H 0.07167 0.27014 0.2066 0.0
H2686 H 0.08513 0.321 0.22257 0.0
H2687 H 0.04179 0.27706 0.23902 0.0
C2688 C 0.03746 0.29072 0.25655 0.0
C2689 C 0.04247 0.305 0.26317 0.0
C2690 C 0.08208 0.30983 0.21906 0.0
C2691 C 0.05916 0.29997 0.2377 0.0
C2692 C 0.09171 0.30749 0.2086 0.0
C2693 C 0.08828 0.29315 0.20409 0.0
C2694 C 0.06889 0.29774 0.22518 0.0
C2695 C 0.07472 0.28137 0.20981 0.0
C2696 C 0.04575 0.28816 0.24382 0.0
C2697 C 0.0558 0.3165 0.25642 0.0
N2698 N 0.06555 0.28391 0.22023 0.0
N2699 N 0.06366 0.31371 0.24415 0.0
H2700 H 0.69207 0.72723 0.24626 0.0
H2701 H 0.71996 0.813 0.23594 0.0
H2702 H 0.70454 0.75769 0.29081 0.0
H2703 H 0.70663 0.78312 0.19076 0.0
H2704 H 0.71679 0.79317 0.2558 0.0
H2705 H 0.69952 0.74776 0.22533 0.0
C2706 C 0.69643 0.73822 0.25165 0.0
C2707 C 0.69761 0.7407 0.27035 0.0
C2708 C 0.71465 0.79093 0.24153 0.0
C2709 C 0.70623 0.76425 0.24647 0.0
C2710 C 0.71642 0.80225 0.2302 0.0
C2711 C 0.71338 0.79964 0.21172 0.0
C2712 C 0.7097 0.77682 0.2344 0.0
C2713 C 0.7091 0.78558 0.20494 0.0
C2714 C 0.70074 0.74995 0.23968 0.0
C2715 C 0.70356 0.75523 0.27653 0.0
N2716 N 0.70723 0.77464 0.21631 0.0
N2717 N 0.70755 0.7664 0.26464 0.0
H2718 H 0.24047 0.93136 0.29175 0.0
H2719 H 0.21073 0.92792 0.19307 0.0
H2720 H 0.25776 0.97079 0.25942 0.0
H2721 H 0.18439 0.89866 0.23587 0.0
H2722 H 0.22932 0.94341 0.21553 0.0
H2723 H 0.22123 0.91845 0.26964 0.0
C2724 C 0.24014 0.93743 0.28016 0.0
C2725 C 0.25072 0.95233 0.2777 0.0
C2726 C 0.2194 0.93364 0.21992 0.0
C2727 C 0.22879 0.93728 0.25185 0.0
C2728 C 0.20878 0.92483 0.20715 0.0
C2729 C 0.19611 0.9118 0.21254 0.0
C2730 C 0.21733 0.92926 0.23807 0.0
C2731 C 0.19418 0.90833 0.23098 0.0
C2732 C 0.22916 0.92996 0.26743 0.0
C2733 C 0.24994 0.9593 0.26189 0.0
N2734 N 0.20473 0.91689 0.24301 0.0
N2735 N 0.23919 0.95169 0.24949 0.0
H2736 H 0.69905 0.96583 0.24484 0.0
H2737 H 0.72909 0.91024 0.23476 0.0
H2738 H 0.71682 0.95295 0.28894 0.0
H2739 H 0.71556 0.92628 0.18953 0.0
H2740 H 0.72725 0.92799 0.25426 0.0
H2741 H 0.70742 0.95359 0.22383 0.0
C2742 C 0.70483 0.96054 0.25008 0.0
C2743 C 0.7071 0.96027 0.26869 0.0
C2744 C 0.72486 0.92779 0.24003 0.0
C2745 C 0.71669 0.94623 0.24475 0.0
C2746 C 0.72588 0.91764 0.22892 0.0
C2747 C 0.72231 0.91671 0.21058 0.0
C2748 C 0.72003 0.93696 0.2328 0.0
C2749 C 0.71841 0.92666 0.20361 0.0
C2750 C 0.70966 0.95361 0.23808 0.0
C2751 C 0.71487 0.95348 0.27471 0.0
N2752 N 0.71717 0.93625 0.21479 0.0
N2753 N 0.71922 0.94657 0.2628 0.0
H2754 H 0.03468 0.73325 0.24822 0.0
H2755 H 0.08985 0.81911 0.23587 0.0
H2756 H 0.04968 0.76452 0.29205 0.0
H2757 H 0.07106 0.78907 0.19113 0.0
H2758 H 0.07338 0.79956 0.25637 0.0
H2759 H 0.04614 0.75366 0.22682 0.0
C2760 C 0.04031 0.74442 0.25333 0.0
C2761 C 0.04136 0.74718 0.27195 0.0
C2762 C 0.0727 0.79725 0.24206 0.0
C2763 C 0.05448 0.77059 0.24757 0.0
C2764 C 0.08212 0.8084 0.23037 0.0
C2765 C 0.0819 0.80563 0.21184 0.0
C2766 C 0.06309 0.78314 0.23521 0.0
C2767 C 0.07156 0.79164 0.20535 0.0
C2768 C 0.04678 0.75607 0.24111 0.0
C2769 C 0.04855 0.76187 0.27781 0.0
N2770 N 0.0627 0.78084 0.21706 0.0
N2771 N 0.05497 0.773 0.26568 0.0
H2772 H 0.26422 0.33176 0.27078 0.0
H2773 H 0.19635 0.27076 0.21353 0.0
H2774 H 0.24989 0.2855 0.27376 0.0
H2775 H 0.2122 0.31736 0.2113 0.0
H2776 H 0.21662 0.27567 0.23406 0.0
H2777 H 0.24578 0.32645 0.24775 0.0
C2778 C 0.25711 0.32045 0.26664 0.0
C2779 C 0.25847 0.30903 0.27438 0.0
C2780 C 0.21568 0.2848 0.22899 0.0
C2781 C 0.23733 0.30284 0.24776 0.0
C2782 C 0.20417 0.28202 0.21722 0.0
C2783 C 0.2025 0.29366 0.2109 0.0
C2784 C 0.22556 0.29934 0.23437 0.0
C2785 C 0.2129 0.30803 0.21614 0.0
C2786 C 0.24663 0.31742 0.25338 0.0
C2787 C 0.24921 0.29462 0.26814 0.0
N2788 N 0.2239 0.31044 0.22761 0.0
N2789 N 0.23894 0.29191 0.25526 0.0
H2790 H 0.27584 0.33461 0.42911 0.0
H2791 H 0.26169 0.39273 0.48194 0.0
H2792 H 0.3041 0.38161 0.42369 0.0
H2793 H 0.23348 0.34562 0.48486 0.0
H2794 H 0.27895 0.38918 0.46324 0.0
H2795 H 0.26189 0.33873 0.45219 0.0
C2796 C 0.27928 0.34582 0.43295 0.0
C2797 C 0.29121 0.35778 0.42439 0.0
C2798 C 0.26903 0.37963 0.4681 0.0
C2799 C 0.27493 0.3626 0.45067 0.0
C2800 C 0.25924 0.38165 0.47883 0.0
C2801 C 0.24606 0.36945 0.48474 0.0
C2802 C 0.26563 0.36531 0.46336 0.0
C2803 C 0.24337 0.35534 0.48029 0.0
C2804 C 0.2712 0.34817 0.44607 0.0
C2805 C 0.29488 0.37206 0.42974 0.0
N2806 N 0.25301 0.35367 0.4698 0.0
N2807 N 0.28671 0.37408 0.44247 0.0
H2808 H 0.65106 0.90801 0.39594 0.0
H2809 H 0.62748 0.88127 0.49574 0.0
H2810 H 0.62988 0.92622 0.42853 0.0
H2811 H 0.62408 0.85139 0.45362 0.0
H2812 H 0.63132 0.89964 0.47266 0.0
H2813 H 0.64419 0.88871 0.41824 0.0
C2814 C 0.64481 0.90793 0.4076 0.0
C2815 C 0.641 0.91885 0.41014 0.0
C2816 C 0.62957 0.889 0.46852 0.0
C2817 C 0.6336 0.89692 0.43613 0.0
C2818 C 0.62743 0.87858 0.48162 0.0
C2819 C 0.62542 0.86485 0.47648 0.0
C2820 C 0.63009 0.88575 0.45026 0.0
C2821 C 0.62547 0.86183 0.45807 0.0
C2822 C 0.641 0.89691 0.4204 0.0
C2823 C 0.63333 0.91827 0.42601 0.0
N2824 N 0.62797 0.87228 0.4456 0.0
N2825 N 0.63 0.90757 0.43847 0.0
H2826 H 0.09297 0.71676 0.40611 0.0
H2827 H 0.11098 0.76729 0.4923 0.0
H2828 H 0.05914 0.71899 0.43651 0.0
H2829 H 0.13865 0.74993 0.47602 0.0
H2830 H 0.09216 0.75057 0.47102 0.0
H2831 H 0.11043 0.72986 0.43056 0.0
C2832 C 0.08922 0.71994 0.41799 0.0
C2833 C 0.07464 0.71684 0.41933 0.0
C2834 C 0.10227 0.75028 0.47225 0.0
C2835 C 0.09449 0.73189 0.44715 0.0
C2836 C 0.11299 0.75983 0.48432 0.0
C2837 C 0.12632 0.75994 0.48582 0.0
C2838 C 0.10505 0.74102 0.46133 0.0
C2839 C 0.12845 0.75008 0.47526 0.0
C2840 C 0.09914 0.72732 0.43195 0.0
C2841 C 0.07028 0.7211 0.43503 0.0
N2842 N 0.11799 0.74113 0.46325 0.0
N2843 N 0.08021 0.72858 0.44824 0.0
H2844 H 0.29064 0.05612 0.72909 0.0
H2845 H 0.29388 0.07891 0.83247 0.0
H2846 H 0.30373 0.03766 0.77222 0.0
H2847 H 0.27735 0.09456 0.78994 0.0
H2848 H 0.29606 0.0625 0.81089 0.0
H2849 H 0.28391 0.06881 0.75141 0.0
C2850 C 0.2919 0.05455 0.74326 0.0
C2851 C 0.29788 0.04589 0.74876 0.0
C2852 C 0.29183 0.06942 0.8063 0.0
C2853 C 0.29044 0.06064 0.77441 0.0
C2854 C 0.29065 0.07884 0.81859 0.0
C2855 C 0.28553 0.08819 0.81296 0.0
C2856 C 0.28797 0.06943 0.78818 0.0
C2857 C 0.28127 0.08748 0.79489 0.0
C2858 C 0.28814 0.06189 0.75601 0.0
C2859 C 0.29945 0.04445 0.76733 0.0
N2860 N 0.28271 0.07837 0.78311 0.0
N2861 N 0.29586 0.05184 0.77946 0.0
H2862 H 0.95442 0.26776 0.76553 0.0
H2863 H 0.91008 0.18224 0.78752 0.0
H2864 H 0.95483 0.23511 0.73045 0.0
H2865 H 0.91972 0.21584 0.82747 0.0
H2866 H 0.92644 0.2013 0.76641 0.0
H2867 H 0.94176 0.24889 0.78835 0.0
C2868 C 0.95207 0.25669 0.76267 0.0
C2869 C 0.95572 0.25308 0.74593 0.0
C2870 C 0.92506 0.20448 0.77985 0.0
C2871 C 0.94082 0.23126 0.772 0.0
C2872 C 0.91577 0.19359 0.79197 0.0
C2873 C 0.91339 0.19741 0.80931 0.0
C2874 C 0.93194 0.21933 0.78501 0.0
C2875 C 0.92094 0.21237 0.81414 0.0
C2876 C 0.94473 0.24587 0.77572 0.0
C2877 C 0.95203 0.2384 0.74299 0.0
N2878 N 0.92976 0.22277 0.80202 0.0
N2879 N 0.94469 0.22802 0.75583 0.0
H2880 H 0.72815 0.69187 0.77315 0.0
H2881 H 0.81388 0.7227 0.79011 0.0
H2882 H 0.76071 0.70676 0.73075 0.0
H2883 H 0.78117 0.70579 0.83235 0.0
H2884 H 0.79491 0.71943 0.76864 0.0
H2885 H 0.74771 0.69908 0.7954 0.0
C2886 C 0.73941 0.69669 0.76852 0.0
C2887 C 0.74277 0.69862 0.75003 0.0
C2888 C 0.79188 0.71652 0.78263 0.0
C2889 C 0.76524 0.70698 0.77545 0.0
C2890 C 0.80274 0.71849 0.79493 0.0
C2891 C 0.7991 0.71443 0.81305 0.0
C2892 C 0.77725 0.71043 0.78845 0.0
C2893 C 0.78443 0.70884 0.81845 0.0
C2894 C 0.75059 0.70086 0.78124 0.0
C2895 C 0.7576 0.70518 0.74485 0.0
N2896 N 0.77403 0.70693 0.80619 0.0
N2897 N 0.76826 0.70902 0.75748 0.0
H2898 H 0.7103 0.61594 0.61537 0.0
H2899 H 0.77088 0.65171 0.53945 0.0
H2900 H 0.72123 0.65701 0.58984 0.0
H2901 H 0.74363 0.60442 0.5434 0.0
H2902 H 0.75491 0.65433 0.56098 0.0
H2903 H 0.72455 0.61183 0.59204 0.0
C2904 C 0.71563 0.62402 0.60479 0.0
C2905 C 0.71458 0.63679 0.60442 0.0
C2906 C 0.7524 0.64339 0.55704 0.0
C2907 C 0.73099 0.63234 0.57812 0.0
C2908 C 0.76146 0.64184 0.54461 0.0
C2909 C 0.75857 0.62779 0.53929 0.0
C2910 C 0.7405 0.63084 0.56461 0.0
C2911 C 0.74644 0.61548 0.54716 0.0
C2912 C 0.72368 0.62165 0.59151 0.0
C2913 C 0.72166 0.64695 0.59048 0.0
N2914 N 0.73789 0.61729 0.55952 0.0
N2915 N 0.7297 0.64459 0.578 0.0
H2916 H 0.37966 0.08831 0.60849 0.0
H2917 H 0.34615 0.1164 0.5332 0.0
H2918 H 0.33606 0.06132 0.58677 0.0
H2919 H 0.39275 0.13744 0.54336 0.0
H2920 H 0.34223 0.09606 0.55278 0.0
H2921 H 0.38483 0.1065 0.58482 0.0
C2922 C 0.37122 0.08619 0.59865 0.0
C2923 C 0.35739 0.07335 0.59962 0.0
C2924 C 0.35334 0.10503 0.55059 0.0
C2925 C 0.36318 0.09408 0.57263 0.0
C2926 C 0.35556 0.11666 0.53949 0.0
C2927 C 0.36978 0.12862 0.53681 0.0
C2928 C 0.3654 0.10549 0.5593 0.0
C2929 C 0.38163 0.12838 0.54508 0.0
C2930 C 0.3742 0.09652 0.58511 0.0
C2931 C 0.34689 0.07104 0.58644 0.0
N2932 N 0.37916 0.11708 0.55617 0.0
N2933 N 0.34994 0.08139 0.57362 0.0
H2934 H 0.92114 0.29695 0.59527 0.0
H2935 H 0.87758 0.22374 0.53598 0.0
H2936 H 0.9291 0.26052 0.59646 0.0
H2937 H 0.86607 0.25773 0.53692 0.0
H2938 H 0.89839 0.23867 0.55562 0.0
H2939 H 0.90273 0.28431 0.57156 0.0
C2940 C 0.91909 0.28635 0.59044 0.0
C2941 C 0.92652 0.27968 0.59797 0.0
C2942 C 0.89139 0.24295 0.55151 0.0
C2943 C 0.90556 0.26522 0.57096 0.0
C2944 C 0.87948 0.2344 0.54033 0.0
C2945 C 0.86998 0.23943 0.53507 0.0
C2946 C 0.89383 0.25665 0.55761 0.0
C2947 C 0.87314 0.25346 0.54073 0.0
C2948 C 0.90856 0.27914 0.57698 0.0
C2949 C 0.92342 0.26593 0.59129 0.0
N2950 N 0.88474 0.26155 0.55188 0.0
N2951 N 0.91316 0.25916 0.57823 0.0
H2952 H 0.35923 0.29775 0.57798 0.0
H2953 H 0.38636 0.23969 0.56796 0.0
H2954 H 0.37434 0.28248 0.6225 0.0
H2955 H 0.37712 0.25908 0.52233 0.0
H2956 H 0.38359 0.25663 0.58793 0.0
H2957 H 0.3671 0.28497 0.55711 0.0
C2958 C 0.36429 0.29179 0.58335 0.0
C2959 C 0.36604 0.2911 0.60202 0.0
C2960 C 0.38231 0.25732 0.57354 0.0
C2961 C 0.37508 0.27647 0.57825 0.0
C2962 C 0.38385 0.24762 0.56216 0.0
C2963 C 0.38183 0.24792 0.54352 0.0
C2964 C 0.37852 0.26729 0.56626 0.0
C2965 C 0.3788 0.25853 0.53664 0.0
C2966 C 0.36885 0.28456 0.57143 0.0
C2967 C 0.37286 0.2834 0.60822 0.0
N2968 N 0.37704 0.26768 0.54805 0.0
N2969 N 0.37699 0.27628 0.59638 0.0
H2970 H 0.71449 0.09455 0.61993 0.0
H2971 H 0.73988 0.11858 0.51784 0.0
H2972 H 0.70878 0.06397 0.57744 0.0
H2973 H 0.75448 0.14869 0.56282 0.0
H2974 H 0.72381 0.09855 0.53831 0.0
H2975 H 0.72488 0.11453 0.59797 0.0
C2976 C 0.7154 0.09202 0.60599 0.0
C2977 C 0.71094 0.07757 0.6006 0.0
C2978 C 0.73038 0.10958 0.54364 0.0
C2979 C 0.72264 0.1004 0.57533 0.0
C2980 C 0.73944 0.12101 0.53196 0.0
C2981 C 0.74858 0.13523 0.53874 0.0
C2982 C 0.73043 0.11247 0.56216 0.0
C2983 C 0.74772 0.13781 0.55714 0.0
C2984 C 0.72125 0.10343 0.59344 0.0
C2985 C 0.71201 0.07492 0.58223 0.0
N2986 N 0.7389 0.12652 0.56824 0.0
N2987 N 0.71786 0.08624 0.57029 0.0
H2988 H 0.93711 0.64653 0.5755 0.0
H2989 H 0.85112 0.61357 0.55828 0.0
H2990 H 0.90408 0.62762 0.61725 0.0
H2991 H 0.88414 0.63307 0.5166 0.0
H2992 H 0.87009 0.61631 0.57942 0.0
H2993 H 0.91765 0.63966 0.5532 0.0
C2994 C 0.92576 0.64089 0.57997 0.0
C2995 C 0.92224 0.63775 0.5983 0.0
C2996 C 0.87318 0.6199 0.56562 0.0
C2997 C 0.89989 0.62979 0.57282 0.0
C2998 C 0.86232 0.61824 0.55349 0.0
C2999 C 0.86605 0.6232 0.53565 0.0
C3000 C 0.88789 0.62659 0.5599 0.0
C3001 C 0.8808 0.62934 0.5303 0.0
C3002 C 0.91465 0.63691 0.56722 0.0
C3003 C 0.90732 0.63018 0.60327 0.0
N3004 N 0.89119 0.63094 0.5424 0.0
N3005 N 0.89671 0.62656 0.59062 0.0
H3006 H 0.9642 0.71505 0.75399 0.0
H3007 H 0.8862 0.68581 0.80177 0.0
H3008 H 0.92372 0.67798 0.735 0.0
H3009 H 0.92354 0.72865 0.813 0.0
H3010 H 0.90056 0.68202 0.77875 0.0
H3011 H 0.95022 0.7196 0.77713 0.0
C3012 C 0.95239 0.70789 0.75469 0.0
C3013 C 0.9451 0.69616 0.74252 0.0
C3014 C 0.90564 0.69226 0.78621 0.0
C3015 C 0.9291 0.70124 0.7689 0.0
C3016 C 0.89748 0.69438 0.79946 0.0
C3017 C 0.90373 0.70753 0.80937 0.0
C3018 C 0.92022 0.70332 0.78289 0.0
C3019 C 0.9183 0.71838 0.80558 0.0
C3020 C 0.94442 0.71053 0.76782 0.0
C3021 C 0.92977 0.68727 0.74393 0.0
N3022 N 0.92611 0.71601 0.79268 0.0
N3023 N 0.9223 0.68995 0.75692 0.0
H3024 H 0.31085 0.24133 0.72761 0.0
H3025 H 0.28962 0.21503 0.82818 0.0
H3026 H 0.2917 0.26044 0.76221 0.0
H3027 H 0.28609 0.18528 0.78579 0.0
H3028 H 0.29293 0.23329 0.80525 0.0
H3029 H 0.30431 0.22196 0.74972 0.0
C3030 C 0.3051 0.24142 0.73969 0.0
C3031 C 0.30179 0.25263 0.74287 0.0
C3032 C 0.29127 0.2227 0.80101 0.0
C3033 C 0.29475 0.2306 0.76861 0.0
C3034 C 0.28944 0.21234 0.81403 0.0
C3035 C 0.28756 0.19868 0.80879 0.0
C3036 C 0.29158 0.21946 0.78269 0.0
C3037 C 0.2874 0.19567 0.79034 0.0
C3038 C 0.30146 0.23036 0.75238 0.0
C3039 C 0.29474 0.25225 0.75919 0.0
N3040 N 0.28957 0.20606 0.77793 0.0
N3041 N 0.29157 0.2415 0.77152 0.0
H3042 H 0.73297 0.04153 0.76397 0.0
H3043 H 0.81857 0.09328 0.78489 0.0
H3044 H 0.76703 0.05336 0.72401 0.0
H3045 H 0.78456 0.07839 0.82546 0.0
H3046 H 0.80006 0.07778 0.76271 0.0
H3047 H 0.75183 0.05402 0.78689 0.0
C3048 C 0.74441 0.04659 0.76002 0.0
C3049 C 0.74838 0.04638 0.74197 0.0
C3050 C 0.79666 0.07783 0.77649 0.0
C3051 C 0.77011 0.061 0.76821 0.0
C3052 C 0.80724 0.08661 0.78921 0.0
C3053 C 0.80312 0.08722 0.80708 0.0
C3054 C 0.78181 0.06961 0.78163 0.0
C3055 C 0.78822 0.07848 0.81178 0.0
C3056 C 0.7552 0.05382 0.77314 0.0
C3057 C 0.76343 0.05341 0.73768 0.0
N3058 N 0.77811 0.07012 0.79912 0.0
N3059 N 0.77373 0.06048 0.75068 0.0
H3060 H 0.06091 0.31541 0.02665 0.0
H3061 H 0.09086 0.31239 0.12429 0.0
H3062 H 0.06039 0.34094 0.07197 0.0
H3063 H 0.10362 0.29819 0.07632 0.0
H3064 H 0.0777 0.32095 0.10553 0.0
H3065 H 0.07484 0.30713 0.04482 0.0
C3066 C 0.06379 0.31931 0.04039 0.0
C3067 C 0.05954 0.3289 0.04782 0.0
C3068 C 0.0834 0.31598 0.09911 0.0
C3069 C 0.07527 0.3194 0.06866 0.0
C3070 C 0.09098 0.31113 0.10981 0.0
C3071 C 0.0985 0.30465 0.1019 0.0
C3072 C 0.08317 0.31423 0.08033 0.0
C3073 C 0.09788 0.30297 0.08305 0.0
C3074 C 0.07175 0.31462 0.05072 0.0
C3075 C 0.0636 0.33369 0.06565 0.0
N3076 N 0.09034 0.30773 0.0729 0.0
N3077 N 0.07114 0.3288 0.0755 0.0
H3078 H 0.66129 0.713 0.08349 0.0
H3079 H 0.68922 0.7992 0.08148 0.0
H3080 H 0.66621 0.73718 0.03451 0.0
H3081 H 0.68604 0.77512 0.12996 0.0
H3082 H 0.68004 0.77649 0.0641 0.0
H3083 H 0.66911 0.73545 0.10084 0.0
C3084 C 0.66385 0.72299 0.07639 0.0
C3085 C 0.66307 0.72319 0.0575 0.0
C3086 C 0.68134 0.77617 0.07854 0.0
C3087 C 0.6723 0.74904 0.07731 0.0
C3088 C 0.68667 0.78915 0.08846 0.0
C3089 C 0.68845 0.78908 0.10721 0.0
C3090 C 0.67774 0.763 0.08742 0.0
C3091 C 0.6847 0.77568 0.11557 0.0
C3092 C 0.66843 0.73585 0.0863 0.0
C3093 C 0.66681 0.73655 0.04903 0.0
N3094 N 0.67955 0.76319 0.10562 0.0
N3095 N 0.67128 0.74895 0.05899 0.0
H3096 H 0.26875 0.92407 0.04954 0.0
H3097 H 0.1993 0.92207 0.09707 0.0
H3098 H 0.26264 0.96165 0.05308 0.0
H3099 H 0.20935 0.88716 0.1015 0.0
H3100 H 0.22112 0.93581 0.07812 0.0
H3101 H 0.24571 0.90949 0.06602 0.0
C3102 C 0.26258 0.92926 0.05376 0.0
C3103 C 0.26769 0.94414 0.04993 0.0
C3104 C 0.21854 0.92514 0.08322 0.0
C3105 C 0.24123 0.92747 0.06866 0.0
C3106 C 0.20605 0.91726 0.09395 0.0
C3107 C 0.20257 0.90351 0.10096 0.0
C3108 C 0.22756 0.91916 0.07937 0.0
C3109 C 0.21176 0.89784 0.09661 0.0
C3110 C 0.24939 0.92092 0.06311 0.0
C3111 C 0.25907 0.95019 0.05548 0.0
N3112 N 0.22384 0.90569 0.08611 0.0
N3113 N 0.2463 0.94185 0.0646 0.0
H3114 H 0.34863 0.06609 0.94964 0.0
H3115 H 0.28492 0.08469 0.9301 0.0
H3116 H 0.30771 0.04665 0.97915 0.0
H3117 H 0.32857 0.10912 0.90746 0.0
H3118 H 0.29247 0.06955 0.94686 0.0
H3119 H 0.34095 0.08105 0.93284 0.0
C3120 C 0.33802 0.06497 0.95257 0.0
C3121 C 0.3288 0.05513 0.96582 0.0
C3122 C 0.3004 0.07824 0.93824 0.0
C3123 C 0.31992 0.0722 0.94666 0.0
C3124 C 0.29606 0.08681 0.92859 0.0
C3125 C 0.30615 0.0982 0.91743 0.0
C3126 C 0.31488 0.08101 0.93659 0.0
C3127 C 0.3205 0.10057 0.91609 0.0
C3128 C 0.33366 0.07355 0.94303 0.0
C3129 C 0.31523 0.05423 0.9692 0.0
N3130 N 0.32443 0.09204 0.92553 0.0
N3131 N 0.31117 0.06261 0.95962 0.0
H3132 H 0.95946 0.28231 0.93624 0.0
H3133 H 0.89366 0.19888 0.94047 0.0
H3134 H 0.93769 0.26067 0.98568 0.0
H3135 H 0.92086 0.21806 0.89341 0.0
H3136 H 0.90899 0.22173 0.95701 0.0
H3137 H 0.94458 0.25922 0.91996 0.0
C3138 C 0.95147 0.27272 0.94364 0.0
C3139 C 0.94976 0.27341 0.96233 0.0
C3140 C 0.91166 0.22093 0.94309 0.0
C3141 C 0.9328 0.24693 0.94382 0.0
C3142 C 0.90288 0.20792 0.93363 0.0
C3143 C 0.90598 0.20661 0.91553 0.0
C3144 C 0.92356 0.23278 0.93435 0.0
C3145 C 0.91816 0.21858 0.90738 0.0
C3146 C 0.94307 0.25952 0.93437 0.0
C3147 C 0.93943 0.26059 0.9713 0.0
N3148 N 0.92646 0.23121 0.91682 0.0
N3149 N 0.9313 0.24788 0.96195 0.0
H3150 H 0.73459 0.67613 0.98913 0.0
H3151 H 0.77927 0.70389 0.89633 0.0
H3152 H 0.71452 0.67646 0.93858 0.0
H3153 H 0.79681 0.69554 0.9445 0.0
H3154 H 0.75614 0.69628 0.91233 0.0
H3155 H 0.75814 0.68541 0.97361 0.0
C3156 C 0.73516 0.6782 0.97476 0.0
C3157 C 0.72258 0.67549 0.96512 0.0
C3158 C 0.76507 0.69616 0.91941 0.0
C3159 C 0.74948 0.6861 0.94726 0.0
C3160 C 0.7783 0.70061 0.91033 0.0
C3161 C 0.78993 0.70028 0.9191 0.0
C3162 C 0.76353 0.69146 0.93741 0.0
C3163 C 0.78804 0.69578 0.93719 0.0
C3164 C 0.74858 0.68343 0.9659 0.0
C3165 C 0.72391 0.67822 0.94649 0.0
N3166 N 0.77509 0.69154 0.94574 0.0
N3167 N 0.73713 0.68341 0.93817 0.0
H3168 H 0.9301 0.65054 0.9527 0.0
H3169 H 0.91706 0.71695 0.92647 0.0
H3170 H 0.95699 0.69487 0.97257 0.0
H3171 H 0.88822 0.67186 0.91042 0.0
H3172 H 0.93228 0.70928 0.94277 0.0
H3173 H 0.91492 0.6583 0.93659 0.0
C3174 C 0.93281 0.66192 0.95365 0.0
C3175 C 0.94483 0.67207 0.96398 0.0
C3176 C 0.92261 0.70106 0.9357 0.0
C3177 C 0.92748 0.68104 0.94563 0.0
C3178 C 0.91398 0.70546 0.9263 0.0
C3179 C 0.90134 0.69503 0.91712 0.0
C3180 C 0.91861 0.68615 0.93582 0.0
C3181 C 0.89776 0.68024 0.91752 0.0
C3182 C 0.92411 0.66633 0.94452 0.0
C3183 C 0.94773 0.68663 0.96493 0.0
N3184 N 0.90636 0.67626 0.92669 0.0
N3185 N 0.93915 0.69069 0.95581 0.0
H3186 H 0.32176 0.2636 0.98878 0.0
H3187 H 0.29867 0.22071 0.89454 0.0
H3188 H 0.32706 0.28524 0.93766 0.0
H3189 H 0.3056 0.2024 0.94299 0.0
H3190 H 0.30583 0.24361 0.91091 0.0
H3191 H 0.31279 0.2402 0.97286 0.0
C3192 C 0.32099 0.2634 0.9742 0.0
C3193 C 0.32521 0.27636 0.96449 0.0
C3194 C 0.30574 0.23456 0.91796 0.0
C3195 C 0.31493 0.24969 0.94624 0.0
C3196 C 0.30155 0.22148 0.90867 0.0
C3197 C 0.30161 0.20971 0.91744 0.0
C3198 C 0.30986 0.23579 0.93616 0.0
C3199 C 0.30557 0.21129 0.93571 0.0
C3200 C 0.31594 0.25008 0.96513 0.0
C3201 C 0.32409 0.27552 0.94562 0.0
N3202 N 0.30953 0.2241 0.94448 0.0
N3203 N 0.31901 0.2624 0.9371 0.0
H3204 H 0.71808 0.04009 0.93829 0.0
H3205 H 0.80188 0.10487 0.94154 0.0
H3206 H 0.74029 0.06131 0.9877 0.0
H3207 H 0.78193 0.07766 0.89468 0.0
H3208 H 0.7793 0.08953 0.95858 0.0
H3209 H 0.74118 0.0544 0.9219 0.0
C3210 C 0.72782 0.04785 0.94567 0.0
C3211 C 0.72725 0.04961 0.96437 0.0
C3212 C 0.77989 0.08685 0.94461 0.0
C3213 C 0.75377 0.06592 0.9457 0.0
C3214 C 0.79274 0.09563 0.93486 0.0
C3215 C 0.79374 0.09256 0.91666 0.0
C3216 C 0.76788 0.07499 0.93604 0.0
C3217 C 0.78165 0.08036 0.90872 0.0
C3218 C 0.74103 0.05591 0.93633 0.0
C3219 C 0.74026 0.05959 0.9733 0.0
N3220 N 0.76918 0.07208 0.91843 0.0
N3221 N 0.75298 0.06744 0.96386 0.0
H3222 H 0.67472 0.9321 0.03115 0.0
H3223 H 0.69446 0.91542 0.12926 0.0
H3224 H 0.66837 0.95017 0.0804 0.0
H3225 H 0.69522 0.89261 0.08115 0.0
H3226 H 0.6861 0.9292 0.11125 0.0
H3227 H 0.68355 0.9185 0.04892 0.0
C3228 C 0.6752 0.93321 0.0457 0.0
C3229 C 0.67074 0.94223 0.05432 0.0
C3230 C 0.68811 0.92119 0.10462 0.0
C3231 C 0.68081 0.92673 0.07472 0.0
C3232 C 0.69283 0.91327 0.11492 0.0
C3233 C 0.6955 0.90278 0.10674 0.0
C3234 C 0.68607 0.91866 0.08597 0.0
C3235 C 0.69347 0.90069 0.08802 0.0
C3236 C 0.68018 0.92541 0.05583 0.0
C3237 C 0.67148 0.94317 0.07321 0.0
N3238 N 0.68885 0.90854 0.07828 0.0
N3239 N 0.67645 0.93556 0.08276 0.0
H3240 H 0.06226 0.7431 0.03011 0.0
H3241 H 0.07938 0.78075 0.1278 0.0
H3242 H 0.04511 0.71924 0.07988 0.0
H3243 H 0.10006 0.80464 0.07903 0.0
H3244 H 0.06567 0.75834 0.11004 0.0
H3245 H 0.0752 0.76603 0.04739 0.0
C3246 C 0.06121 0.74269 0.04466 0.0
C3247 C 0.05267 0.72923 0.05358 0.0
C3248 C 0.07318 0.76848 0.10319 0.0
C3249 C 0.06741 0.75537 0.0734 0.0
C3250 C 0.08105 0.78128 0.11334 0.0
C3251 C 0.09097 0.79458 0.10491 0.0
C3252 C 0.0752 0.76894 0.08443 0.0
C3253 C 0.09245 0.79466 0.08607 0.0
C3254 C 0.06863 0.75576 0.05451 0.0
C3255 C 0.05177 0.72932 0.07246 0.0
N3256 N 0.0847 0.78201 0.07647 0.0
N3257 N 0.05903 0.74217 0.08172 0.0
H3258 H 0.2668 0.30596 0.05228 0.0
H3259 H 0.21526 0.32858 0.10641 0.0
H3260 H 0.27568 0.35062 0.05702 0.0
H3261 H 0.2051 0.28366 0.09959 0.0
H3262 H 0.23736 0.3368 0.08816 0.0
H3263 H 0.24394 0.2975 0.06902 0.0
C3264 C 0.26388 0.31398 0.05667 0.0
C3265 C 0.27319 0.32904 0.05321 0.0
C3266 C 0.2303 0.32514 0.09062 0.0
C3267 C 0.2471 0.31942 0.07268 0.0
C3268 C 0.21773 0.32044 0.10115 0.0
C3269 C 0.20837 0.30541 0.10464 0.0
C3270 C 0.2336 0.31474 0.08353 0.0
C3271 C 0.21196 0.29534 0.09714 0.0
C3272 C 0.25085 0.30914 0.06635 0.0
C3273 C 0.26894 0.33894 0.05956 0.0
N3274 N 0.22433 0.3002 0.08699 0.0
N3275 N 0.25623 0.33396 0.06901 0.0
H3276 H 0.70734 0.64116 0.37431 0.0
H3277 H 0.77239 0.66331 0.44488 0.0
H3278 H 0.72467 0.67981 0.40803 0.0
H3279 H 0.74765 0.61993 0.42159 0.0
H3280 H 0.75608 0.67021 0.42991 0.0
H3281 H 0.72315 0.63385 0.38986 0.0
C3282 C 0.71452 0.64813 0.38495 0.0
C3283 C 0.71474 0.66113 0.38988 0.0
C3284 C 0.75418 0.65917 0.42811 0.0
C3285 C 0.73279 0.65282 0.40773 0.0
C3286 C 0.76353 0.65526 0.43656 0.0
C3287 C 0.76138 0.64106 0.43438 0.0
C3288 C 0.74267 0.64885 0.41725 0.0
C3289 C 0.74962 0.63097 0.42367 0.0
C3290 C 0.72346 0.6439 0.39389 0.0
C3291 C 0.7241 0.66965 0.40391 0.0
N3292 N 0.74074 0.6351 0.41539 0.0
N3293 N 0.73281 0.66539 0.41228 0.0
H3294 H 0.34972 0.0731 0.36654 0.0
H3295 H 0.35259 0.11143 0.46082 0.0
H3296 H 0.326 0.04935 0.41408 0.0
H3297 H 0.36705 0.13562 0.41083 0.0
H3298 H 0.34494 0.0887 0.44424 0.0
H3299 H 0.3583 0.09629 0.38291 0.0
C3300 C 0.34634 0.07278 0.38042 0.0
C3301 C 0.33709 0.0593 0.38896 0.0
C3302 C 0.34978 0.09897 0.43688 0.0
C3303 C 0.34688 0.08569 0.40773 0.0
C3304 C 0.3541 0.11197 0.44633 0.0
C3305 C 0.36034 0.12548 0.4372 0.0
C3306 C 0.35179 0.09942 0.41813 0.0
C3307 C 0.36239 0.12549 0.41846 0.0
C3308 C 0.35119 0.08599 0.38972 0.0
C3309 C 0.33296 0.0595 0.40691 0.0
N3310 N 0.35809 0.11265 0.40953 0.0
N3311 N 0.33792 0.07247 0.41571 0.0
H3312 H 0.95116 0.28419 0.41606 0.0
H3313 H 0.86573 0.22364 0.40848 0.0
H3314 H 0.93031 0.26222 0.36633 0.0
H3315 H 0.88799 0.24157 0.45896 0.0
H3316 H 0.88906 0.23842 0.39258 0.0
H3317 H 0.92798 0.26906 0.4319 0.0
C3318 C 0.94176 0.27609 0.40848 0.0
C3319 C 0.94272 0.27449 0.38981 0.0
C3320 C 0.88884 0.2391 0.40714 0.0
C3321 C 0.91602 0.25728 0.40786 0.0
C3322 C 0.87551 0.23075 0.4162 0.0
C3323 C 0.87492 0.23136 0.43507 0.0
C3324 C 0.90167 0.24821 0.41701 0.0
C3325 C 0.88798 0.24062 0.44442 0.0
C3326 C 0.92848 0.26751 0.41753 0.0
C3327 C 0.93005 0.26399 0.38068 0.0
N3328 N 0.9008 0.2487 0.4353 0.0
N3329 N 0.91723 0.25582 0.38978 0.0
H3330 H 0.01371 0.40589 0.31785 0.0
H3331 H 0.99562 0.4286 0.22295 0.0
H3332 H 0.99571 0.37605 0.27266 0.0
H3333 H -0.00106 0.45211 0.2721 0.0
H3334 H 0.99848 0.41052 0.24042 0.0
H3335 H 0.01077 0.42415 0.30085 0.0
C3336 C 0.00906 0.40311 0.30443 0.0
C3337 C 0.00501 0.38938 0.29669 0.0
C3338 C 0.99856 0.41962 0.2474 0.0
C3339 C 0.00191 0.41036 0.27708 0.0
C3340 C 0.99703 0.42998 0.23742 0.0
C3341 C 0.99705 0.44184 0.24612 0.0
C3342 C 0.00029 0.42122 0.26618 0.0
C3343 C -0.00125 0.44304 0.26492 0.0
C3344 C 0.00746 0.41358 0.29472 0.0
C3345 C -0.00072 0.38655 0.2791 0.0
N3346 N 0.00038 0.43288 0.27435 0.0
N3347 N 0.99797 0.39696 0.26988 0.0
H3348 H 0.60819 0.59391 0.31817 0.0
H3349 H 0.57422 0.55715 0.22305 0.0
H3350 H 0.60694 0.61845 0.27235 0.0
H3351 H 0.5637 0.53206 0.27238 0.0
H3352 H 0.58807 0.57971 0.24048 0.0
H3353 H 0.59358 0.57104 0.3012 0.0
C3354 C 0.6048 0.59446 0.30455 0.0
C3355 C 0.60875 0.60806 0.29663 0.0
C3356 C 0.58271 0.56927 0.24749 0.0
C3357 C 0.59219 0.58204 0.27715 0.0
C3358 C 0.57474 0.55636 0.23755 0.0
C3359 C 0.56766 0.54263 0.24624 0.0
C3360 C 0.58378 0.5685 0.26626 0.0
C3361 C 0.56909 0.54234 0.26505 0.0
C3362 C 0.59644 0.58143 0.29491 0.0
C3363 C 0.604 0.60818 0.27901 0.0
N3364 N 0.577 0.55508 0.27443 0.0
N3365 N 0.59605 0.59536 0.26981 0.0
H3366 H 0.3937 0.01744 0.29894 0.0
H3367 H 0.43049 0.97934 0.24263 0.0
H3368 H 0.3734 0.97042 0.29201 0.0
H3369 H 0.4531 0.02549 0.25649 0.0
H3370 H 0.40916 0.97588 0.25984 0.0
H3371 H 0.41524 0.02065 0.28256 0.0
C3372 C 0.3938 0.00777 0.2941 0.0
C3373 C 0.38171 0.99362 0.29693 0.0
C3374 C 0.4188 0.98676 0.25914 0.0
C3375 C 0.40631 0.99726 0.27787 0.0
C3376 C 0.43102 0.98873 0.24939 0.0
C3377 C 0.44363 0.00273 0.24809 0.0
C3378 C 0.41915 0.99888 0.26762 0.0
C3379 C 0.44356 0.01454 0.25689 0.0
C3380 C 0.40609 0.00962 0.28465 0.0
C3381 C 0.38238 0.98154 0.28997 0.0
N3382 N 0.43151 0.01235 0.26625 0.0
N3383 N 0.39447 0.98364 0.28076 0.0
H3384 H 0.62312 -0.00023 0.27044 0.0
H3385 H 0.54526 0.99609 0.27182 0.0
H3386 H 0.59546 0.98808 0.31772 0.0
H3387 H 0.57437 0.01001 0.2258 0.0
H3388 H 0.56317 0.99258 0.28876 0.0
H3389 H 0.60517 0.0033 0.25388 0.0
C3390 C 0.61332 0.99805 0.2774 0.0
C3391 C 0.61085 0.9937 0.29555 0.0
C3392 C 0.56565 0.99642 0.27497 0.0
C3393 C 0.59008 0.99752 0.27653 0.0
C3394 C 0.55539 0.99835 0.26525 0.0
C3395 C 0.55833 0.00336 0.24736 0.0
C3396 C 0.57892 -0.00053 0.26671 0.0
C3397 C 0.57173 0.00631 0.23963 0.0
C3398 C 0.60301 -1e-05 0.26789 0.0
C3399 C 0.59777 0.99132 0.30371 0.0
N3400 N 0.5815 0.0043 0.24933 0.0
N3401 N 0.58788 0.99327 0.29414 0.0
H3402 H 0.98297 0.60394 0.30162 0.0
H3403 H 0.02059 0.56665 0.24503 0.0
H3404 H 0.02984 0.62412 0.2936 0.0
H3405 H 0.97373 0.54654 0.2531 0.0
H3406 H 0.02427 0.58752 0.26347 0.0
H3407 H 0.97944 0.58243 0.28473 0.0
C3408 C 0.99252 0.60384 0.2963 0.0
C3409 C 0.00672 0.61588 0.29895 0.0
C3410 C 0.01318 0.57853 0.26124 0.0
C3411 C 0.00276 0.59126 0.27967 0.0
C3412 C 0.01107 0.56666 0.25062 0.0
C3413 C 0.99682 0.55485 0.24746 0.0
C3414 C 0.00097 0.57863 0.26874 0.0
C3415 C 0.98491 0.55533 0.25532 0.0
C3416 C 0.9905 0.59154 0.28672 0.0
C3417 C 0.01871 0.61504 0.29202 0.0
N3418 N 0.98725 0.56704 0.26555 0.0
N3419 N 0.01646 0.60298 0.28262 0.0
H3420 H 0.38169 0.37769 0.26918 0.0
H3421 H 0.46787 0.43651 0.27271 0.0
H3422 H 0.40478 0.39835 0.3184 0.0
H3423 H 0.44368 0.41773 0.22354 0.0
H3424 H 0.44525 0.42167 0.28996 0.0
H3425 H 0.4046 0.39165 0.25246 0.0
C3426 C 0.39156 0.38526 0.27647 0.0
C3427 C 0.39127 0.38693 0.29523 0.0
C3428 C 0.44491 0.42077 0.2754 0.0
C3429 C 0.41766 0.4028 0.27614 0.0
C3430 C 0.45783 0.42916 0.26556 0.0
C3431 C 0.45764 0.4284 0.24666 0.0
C3432 C 0.43172 0.41152 0.26627 0.0
C3433 C 0.44429 0.41882 0.23808 0.0
C3434 C 0.40468 0.39315 0.26692 0.0
C3435 C 0.4045 0.39664 0.30398 0.0
N3436 N 0.43188 0.41079 0.24794 0.0
N3437 N 0.41716 0.40424 0.29436 0.0
H3438 H 0.33631 0.28863 0.41488 0.0
H3439 H 0.36621 0.23219 0.4113 0.0
H3440 H 0.34543 0.27333 0.36514 0.0
H3441 H 0.36113 0.25132 0.46042 0.0
H3442 H 0.35871 0.24709 0.39402 0.0
H3443 H 0.34497 0.27457 0.4317 0.0
C3444 C 0.34003 0.28221 0.40749 0.0
C3445 C 0.34005 0.28207 0.38857 0.0
C3446 C 0.35929 0.24806 0.40858 0.0
C3447 C 0.35019 0.26607 0.40777 0.0
C3448 C 0.36367 0.23962 0.41844 0.0
C3449 C 0.36425 0.24045 0.43736 0.0
C3450 C 0.35543 0.25736 0.41768 0.0
C3451 C 0.36061 0.25013 0.44589 0.0
C3452 C 0.34509 0.27427 0.41711 0.0
C3453 C 0.3453 0.2738 0.37972 0.0
N3454 N 0.35632 0.25815 0.436 0.0
N3455 N 0.35011 0.26608 0.3894 0.0
H3456 H 0.70386 0.04703 0.41393 0.0
H3457 H 0.77028 0.13031 0.41016 0.0
H3458 H 0.73358 0.06524 0.36869 0.0
H3459 H 0.74564 0.10967 0.45852 0.0
H3460 H 0.75555 0.10716 0.39387 0.0
H3461 H 0.71796 0.0704 0.4298 0.0
C3462 C 0.71342 0.05589 0.40737 0.0
C3463 C 0.71755 0.0541 0.38994 0.0
C3464 C 0.75336 0.10771 0.40804 0.0
C3465 C 0.7336 0.08103 0.40796 0.0
C3466 C 0.76168 0.12094 0.41731 0.0
C3467 C 0.75919 0.12189 0.43573 0.0
C3468 C 0.7424 0.09536 0.41724 0.0
C3469 C 0.74803 0.10936 0.44437 0.0
C3470 C 0.72141 0.06927 0.41641 0.0
C3471 C 0.72986 0.06613 0.382 0.0
N3472 N 0.74005 0.09662 0.43506 0.0
N3473 N 0.73744 0.07907 0.39106 0.0
H3474 H 0.93267 0.64313 0.37399 0.0
H3475 H 0.88863 0.66452 0.44418 0.0
H3476 H 0.95283 0.68307 0.40552 0.0
H3477 H 0.87039 0.62131 0.42052 0.0
H3478 H 0.9119 0.67192 0.42888 0.0
H3479 H 0.90936 0.63536 0.38959 0.0
C3480 C 0.93216 0.65029 0.38414 0.0
C3481 C 0.94469 0.66378 0.38846 0.0
C3482 C 0.90284 0.66081 0.42705 0.0
C3483 C 0.91812 0.65493 0.4064 0.0
C3484 C 0.88953 0.65661 0.43569 0.0
C3485 C 0.87756 0.6423 0.43353 0.0
C3486 C 0.90418 0.65067 0.41603 0.0
C3487 C 0.87939 0.63242 0.42262 0.0
C3488 C 0.91889 0.64581 0.39312 0.0
C3489 C 0.94348 0.67253 0.40189 0.0
N3490 N 0.89244 0.63681 0.41419 0.0
N3491 N 0.93042 0.66798 0.41033 0.0
H3492 H 0.3905 0.02338 0.753 0.0
H3493 H 0.44829 0.99531 0.74851 0.0
H3494 H 0.39722 0.00355 0.70557 0.0
H3495 H 0.43305 0.00433 0.79842 0.0
H3496 H 0.43144 0.0006 0.73199 0.0
H3497 H 0.40802 0.01892 0.7693 0.0
C3498 C 0.39561 0.01805 0.74601 0.0
C3499 C 0.3923 0.01377 0.72788 0.0
C3500 C 0.43179 0.00141 0.74656 0.0
C3501 C 0.41254 0.00883 0.74643 0.0
C3502 C 0.44135 0.9983 0.75603 0.0
C3503 C 0.44208 -0.00069 0.77492 0.0
C3504 C 0.42295 0.00566 0.75602 0.0
C3505 C 0.43302 0.00358 0.78387 0.0
C3506 C 0.40566 0.01557 0.75531 0.0
C3507 C 0.39955 0.00721 0.71944 0.0
N3508 N 0.42385 0.0066 0.77434 0.0
N3509 N 0.4093 0.00493 0.72879 0.0
H3510 H 0.96814 0.37653 0.71278 0.0
H3511 H 0.0231 0.45165 0.76352 0.0
H3512 H 0.01377 0.39087 0.72336 0.0
H3513 H 0.97596 0.43277 0.76336 0.0
H3514 H 0.02022 0.4307 0.74589 0.0
H3515 H 0.97109 0.39819 0.72879 0.0
C3516 C 0.97877 0.38419 0.7185 0.0
C3517 C 0.99072 0.38183 0.71672 0.0
C3518 C 0.0105 0.43114 0.74969 0.0
C3519 C 0.99421 0.40676 0.73482 0.0
C3520 C 0.01215 0.44315 0.75964 0.0
C3521 C -0.00025 0.44392 0.76493 0.0
C3522 C 0.99636 0.41987 0.74488 0.0
C3523 C 0.9858 0.4325 0.75973 0.0
C3524 C 0.98045 0.39659 0.72756 0.0
C3525 C 0.00429 0.39231 0.72413 0.0
N3526 N 0.98448 0.42095 0.74997 0.0
N3527 N 0.00566 0.40429 0.73285 0.0
H3528 H 0.61992 0.61828 0.74926 0.0
H3529 H 0.53395 0.56147 0.73968 0.0
H3530 H 0.59741 0.60706 0.69808 0.0
H3531 H 0.55422 0.5827 0.78988 0.0
H3532 H 0.5574 0.57681 0.72421 0.0
H3533 H 0.59623 0.60371 0.76455 0.0
C3534 C 0.60999 0.61265 0.74125 0.0
C3535 C 0.61059 0.61383 0.72239 0.0
C3536 C 0.55669 0.57819 0.73859 0.0
C3537 C 0.58351 0.59726 0.73975 0.0
C3538 C 0.54334 0.56942 0.7474 0.0
C3539 C 0.54219 0.57085 0.76606 0.0
C3540 C 0.56902 0.5883 0.74855 0.0
C3541 C 0.55464 0.58137 0.77545 0.0
C3542 C 0.59648 0.60446 0.74997 0.0
C3543 C 0.59739 0.6065 0.71266 0.0
N3544 N 0.56759 0.58962 0.76662 0.0
N3545 N 0.58439 0.59847 0.72144 0.0
H3546 H 0.64519 0.71008 0.6423 0.0
H3547 H 0.66547 0.7722 0.56782 0.0
H3548 H 0.68368 0.72705 0.60835 0.0
H3549 H 0.62311 0.74906 0.59399 0.0
H3550 H 0.67278 0.75649 0.5835 0.0
H3551 H 0.63738 0.72509 0.62582 0.0
C3552 C 0.65203 0.71703 0.63142 0.0
C3553 C 0.66513 0.71737 0.62671 0.0
C3554 C 0.66186 0.7548 0.58577 0.0
C3555 C 0.65623 0.7345 0.60774 0.0
C3556 C 0.65772 0.76381 0.5769 0.0
C3557 C 0.64369 0.76196 0.57969 0.0
C3558 C 0.65196 0.74392 0.59765 0.0
C3559 C 0.63399 0.75079 0.59139 0.0
C3560 C 0.64752 0.72551 0.62194 0.0
C3561 C 0.67345 0.72639 0.61233 0.0
N3562 N 0.63835 0.74224 0.60004 0.0
N3563 N 0.6689 0.73465 0.60341 0.0
H3564 H 0.27123 0.93217 0.65871 0.0
H3565 H 0.24907 0.89095 0.56346 0.0
H3566 H 0.29224 0.95253 0.60837 0.0
H3567 H 0.23086 0.86897 0.61399 0.0
H3568 H 0.2654 0.91347 0.57992 0.0
H3569 H 0.25676 0.90877 0.64288 0.0
C3570 C 0.27287 0.93171 0.64436 0.0
C3571 C 0.28291 0.94438 0.63484 0.0
C3572 C 0.2579 0.90372 0.58746 0.0
C3573 C 0.26628 0.91765 0.61662 0.0
C3574 C 0.24855 0.89088 0.57805 0.0
C3575 C 0.23853 0.87813 0.58738 0.0
C3576 C 0.25718 0.90387 0.60636 0.0
C3577 C 0.23847 0.87855 0.60629 0.0
C3578 C 0.26457 0.91836 0.63532 0.0
C3579 C 0.28444 0.94314 0.61621 0.0
N3580 N 0.24757 0.89127 0.61517 0.0
N3581 N 0.27619 0.93004 0.60772 0.0
H3582 H 0.07155 0.3405 0.65108 0.0
H3583 H 0.11029 0.35718 0.5541 0.0
H3584 H 0.04851 0.33411 0.60078 0.0
H3585 H 0.13361 0.36344 0.60415 0.0
H3586 H 0.08767 0.34937 0.57113 0.0
H3587 H 0.09455 0.34961 0.63428 0.0
C3588 C 0.07133 0.34106 0.63651 0.0
C3589 C 0.05807 0.33648 0.62732 0.0
C3590 C 0.09773 0.35249 0.57841 0.0
C3591 C 0.08432 0.34683 0.60801 0.0
C3592 C 0.11065 0.35691 0.56869 0.0
C3593 C 0.12384 0.36089 0.57771 0.0
C3594 C 0.09798 0.35202 0.59733 0.0
C3595 C 0.12371 0.36058 0.59664 0.0
C3596 C 0.08446 0.34621 0.62693 0.0
C3597 C 0.05842 0.33729 0.60842 0.0
N3598 N 0.11096 0.35615 0.60582 0.0
N3599 N 0.07133 0.34236 0.59941 0.0
H3600 H 0.29152 0.36071 0.64243 0.0
H3601 H 0.21686 0.33425 0.58773 0.0
H3602 H 0.25995 0.31523 0.63103 0.0
H3603 H 0.25017 0.37985 0.59458 0.0
H3604 H 0.23138 0.32713 0.60627 0.0
H3605 H 0.27541 0.36795 0.62765 0.0
C3606 C 0.28119 0.35224 0.63683 0.0
C3607 C 0.27715 0.33734 0.63782 0.0
C3608 C 0.2355 0.3387 0.6038 0.0
C3609 C 0.25859 0.34556 0.62102 0.0
C3610 C 0.22725 0.34277 0.59313 0.0
C3611 C 0.2324 0.35767 0.58942 0.0
C3612 C 0.24904 0.34959 0.61082 0.0
C3613 C 0.24576 0.36825 0.59714 0.0
C3614 C 0.27197 0.35638 0.62847 0.0
C3615 C 0.26349 0.32683 0.63069 0.0
N3616 N 0.25367 0.364 0.60738 0.0
N3617 N 0.25475 0.33115 0.6225 0.0
H3618 H 0.64114 0.93305 0.63723 0.0
H3619 H 0.66641 0.88731 0.57519 0.0
H3620 H 0.68559 0.94984 0.61824 0.0
H3621 H 0.62185 0.87 0.59402 0.0
H3622 H 0.67358 0.91021 0.59117 0.0
H3623 H 0.63378 0.90985 0.62166 0.0
C3624 C 0.64935 0.93187 0.62974 0.0
C3625 C 0.66401 0.94342 0.62901 0.0
C3626 C 0.66223 0.90142 0.59184 0.0
C3627 C 0.65568 0.91686 0.61128 0.0
C3628 C 0.65814 0.88829 0.58279 0.0
C3629 C 0.64351 0.87667 0.58334 0.0
C3630 C 0.65163 0.903 0.60154 0.0
C3631 C 0.63322 0.87871 0.5931 0.0
C3632 C 0.64515 0.9186 0.62093 0.0
C3633 C 0.67421 0.94119 0.61935 0.0
N3634 N 0.63748 0.89161 0.60185 0.0
N3635 N 0.66984 0.92819 0.61084 0.0
H3636 H 0.05138 0.73975 0.63331 0.0
H3637 H 0.12747 0.74992 0.59641 0.0
H3638 H 0.06475 0.70747 0.64091 0.0
H3639 H 0.11465 0.78283 0.59165 0.0
H3640 H 0.10522 0.73469 0.61412 0.0
H3641 H 0.07514 0.75618 0.61944 0.0
C3642 C 0.05937 0.73617 0.63226 0.0
C3643 C 0.05601 0.72217 0.63823 0.0
C3644 C 0.10731 0.74527 0.60926 0.0
C3645 C 0.08322 0.74087 0.62204 0.0
C3646 C 0.12005 0.754 0.59923 0.0
C3647 C 0.12285 0.7676 0.59238 0.0
C3648 C 0.09732 0.75019 0.61248 0.0
C3649 C 0.11279 0.77228 0.59633 0.0
C3650 C 0.07292 0.74553 0.62422 0.0
C3651 C 0.06676 0.71807 0.63623 0.0
N3652 N 0.10046 0.76357 0.60603 0.0
N3653 N 0.07985 0.72735 0.62823 0.0
H3654 H 0.99656 0.62299 0.74893 0.0
H3655 H 0.99721 0.5474 0.74598 0.0
H3656 H 0.98155 0.59365 0.70306 0.0
H3657 H 0.00118 0.57107 0.79521 0.0
H3658 H 0.99355 0.56537 0.72933 0.0
H3659 H 0.00012 0.60504 0.76553 0.0
C3660 C 0.99389 0.61274 0.74236 0.0
C3661 C 0.98869 0.60985 0.72454 0.0
C3662 C 0.99521 0.56662 0.74377 0.0
C3663 C 0.99305 0.58935 0.74343 0.0
C3664 C 0.99738 0.55643 0.75325 0.0
C3665 C -0.0005 0.55777 0.77199 0.0
C3666 C 0.99529 0.57831 0.75307 0.0
C3667 C -0.00055 0.56957 0.78079 0.0
C3668 C 0.99602 0.60253 0.75184 0.0
C3669 C 0.98577 0.59648 0.71666 0.0
N3670 N 0.99743 0.57942 0.77124 0.0
N3671 N 0.98802 0.58675 0.72614 0.0
H3672 H 0.3693 0.3819 0.74663 0.0
H3673 H 0.43993 0.46271 0.74165 0.0
H3674 H 0.40024 0.39751 0.70239 0.0
H3675 H 0.41276 0.4455 0.78917 0.0
H3676 H 0.42437 0.43939 0.7263 0.0
H3677 H 0.38419 0.40549 0.76188 0.0
C3678 C 0.37928 0.39023 0.74017 0.0
C3679 C 0.38352 0.38769 0.72319 0.0
C3680 C 0.42178 0.44071 0.74007 0.0
C3681 C 0.40047 0.41482 0.74045 0.0
C3682 C 0.43068 0.45401 0.74887 0.0
C3683 C 0.42772 0.45603 0.76678 0.0
C3684 C 0.40977 0.42929 0.74922 0.0
C3685 C 0.4154 0.44447 0.77532 0.0
C3686 C 0.38771 0.40374 0.74884 0.0
C3687 C 0.39642 0.39902 0.71535 0.0
N3688 N 0.40691 0.43157 0.76648 0.0
N3689 N 0.40441 0.41207 0.72403 0.0
H3690 H 0.62463 0.03006 0.72351 0.0
H3691 H 0.54495 0.97223 0.762 0.0
H3692 H 0.60451 0.98304 0.71694 0.0
H3693 H 0.56506 0.01929 0.76809 0.0
H3694 H 0.56616 0.97598 0.74424 0.0
H3695 H 0.60251 0.02634 0.739 0.0
C3696 C 0.61557 0.01895 0.72537 0.0
C3697 C 0.61645 0.00684 0.719 0.0
C3698 C 0.56591 0.98549 0.74941 0.0
C3699 C 0.59103 0.0025 0.73659 0.0
C3700 C 0.55376 0.98336 0.75947 0.0
C3701 C 0.55326 0.99546 0.76662 0.0
C3702 C 0.57765 -0.00017 0.74649 0.0
C3703 C 0.56509 0.00962 0.7631 0.0
C3704 C 0.6029 0.01683 0.73412 0.0
C3705 C 0.60426 0.9927 0.72149 0.0
N3706 N 0.57681 0.01141 0.75333 0.0
N3707 N 0.59208 0.99092 0.73016 0.0
loop_
_geom_bond_atom_site_label_1
_geom_bond_atom_site_label_2
_geom_bond_distance
_geom_bond_site_symmetry_2
_ccdc_geom_bond_type
Li0 N17 1.990 1_554 S
Li0 O60 1.956 . S
Li0 O61 1.970 1_654 S
Li0 O62 1.961 . S
Li1 N25 1.990 . S
Li1 O60 1.970 1_455 S
Li1 O61 1.956 1_554 S
Li1 O63 1.961 . S
Li2 N47 1.990 . S
Li2 O60 1.961 . S
Li2 O62 1.956 . S
Li2 O63 1.970 1_655 S
Li3 N53 1.990 . S
Li3 O61 1.961 . S
Li3 O62 1.970 1_456 S
Li3 O63 1.956 1_556 S
C4 C6 1.356 . S
C4 C7 1.356 . S
C4 O60 1.325 . S
N5 C8 1.314 . S
N5 C9 1.279 . S
C6 C4 1.356 . S
C6 C8 1.353 . S
C6 H64 0.921 1_655 S
C7 C4 1.356 . S
C7 C9 1.358 . S
C7 H65 0.930 . S
C8 N5 1.314 . S
C8 C6 1.353 . S
C8 H66 0.914 1_655 S
C9 N5 1.279 . S
C9 C7 1.358 . S
C9 H67 0.930 . S
C10 C13 1.348 . S
C10 C14 1.356 . S
C10 O61 1.325 . S
C11 N12 1.279 . S
C11 C14 1.358 . S
C11 H68 0.930 . S
N12 C11 1.279 . S
N12 C15 1.314 . S
C13 C10 1.348 . S
C13 C15 1.353 . S
C13 H69 0.929 1_455 S
C14 C10 1.356 . S
C14 C11 1.358 . S
C14 H70 0.930 . S
C15 N12 1.314 . S
C15 C13 1.353 . S
C15 H71 0.930 . S
C16 N17 1.314 . S
C16 C21 1.353 . S
C16 H22 0.930 . S
N17 Li0 1.990 1_556 S
N17 C16 1.314 . S
N17 C19 1.279 1_556 S
C18 C19 1.358 . S
C18 C20 1.356 1_554 S
C18 H72 0.930 . S
C19 N17 1.279 1_554 S
C19 C18 1.358 . S
C19 H23 0.930 . S
C20 C18 1.356 1_556 S
C20 C21 1.348 . S
C21 C16 1.353 . S
C21 C20 1.348 . S
C21 H73 0.929 . S
H22 C16 0.930 . S
H23 C19 0.930 . S
C24 N25 1.314 . S
C24 C26 1.353 . S
C24 H30 0.930 . S
N25 Li1 1.990 . S
N25 C24 1.314 . S
N25 C28 1.279 . S
C26 C24 1.353 . S
C26 C29 1.348 . S
C26 H74 0.929 . S
C27 C28 1.358 . S
C27 C29 1.356 . S
C27 H75 0.930 . S
C28 N25 1.279 . S
C28 C27 1.358 . S
C28 H31 0.930 . S
C29 C26 1.348 . S
C29 C27 1.356 . S
H30 C24 0.930 . S
H31 C28 0.930 . S
C32 C34 1.348 . S
C32 C35 1.356 1_556 S
C32 O62 1.325 1_556 S
N33 C36 1.314 . S
N33 C37 1.293 . S
C34 C32 1.348 . S
C34 C36 1.353 . S
C34 H76 0.929 . S
C35 C32 1.356 1_554 S
C35 C37 1.352 1_554 S
C35 H77 0.930 . S
C36 N33 1.314 . S
C36 C34 1.353 . S
C36 H78 0.930 . S
C37 N33 1.293 . S
C37 C35 1.352 1_556 S
C37 H79 0.922 1_556 S
C38 C39 1.348 . S
C38 C40 1.356 . S
C38 O63 1.325 . S
C39 C38 1.348 . S
C39 C41 1.353 . S
C39 H80 0.929 . S
C40 C38 1.356 . S
C40 C42 1.358 . S
C40 H81 0.930 . S
C41 C39 1.353 . S
C41 N43 1.314 . S
C41 H82 0.930 . S
C42 C40 1.358 . S
C42 N43 1.279 . S
C42 H83 0.930 . S
N43 C41 1.314 . S
N43 C42 1.279 . S
C44 C46 1.353 . S
C44 N47 1.314 . S
C44 H50 0.983 . S
C45 N47 1.279 . S
C45 C48 1.358 . S
C45 H51 0.930 . S
C46 C44 1.353 . S
C46 C49 1.348 . S
C46 H84 0.929 . S
N47 Li2 1.990 . S
N47 C44 1.314 . S
N47 C45 1.279 . S
C48 C45 1.358 . S
C48 C49 1.356 . S
C48 H85 0.930 . S
C49 C46 1.348 . S
C49 C48 1.356 . S
H50 C44 0.983 . S
H51 C45 0.930 . S
C52 N53 1.314 . S
C52 C54 1.353 . S
C52 H58 0.930 . S
N53 Li3 1.990 . S
N53 C52 1.314 . S
N53 C56 1.279 . S
C54 C52 1.353 . S
C54 C57 1.348 . S
C54 H86 0.929 . S
C55 C56 1.358 . S
C55 C57 1.356 . S
C55 H87 0.930 . S
C56 N53 1.279 . S
C56 C55 1.358 . S
C56 H59 0.930 . S
C57 C54 1.348 . S
C57 C55 1.356 . S
H58 C52 0.930 . S
H59 C56 0.930 . S
O60 Li0 1.956 . S
O60 Li1 1.970 1_655 S
O60 Li2 1.961 . S
O60 C4 1.325 . S
O61 Li0 1.970 1_456 S
O61 Li1 1.956 1_556 S
O61 Li3 1.961 . S
O61 C10 1.325 . S
O62 Li0 1.961 . S
O62 Li2 1.956 . S
O62 Li3 1.970 1_654 S
O62 C32 1.325 1_554 S
O63 Li1 1.961 . S
O63 Li2 1.970 1_455 S
O63 Li3 1.956 1_554 S
O63 C38 1.325 . S
H64 C6 0.921 1_455 S
H65 C7 0.930 . S
H66 C8 0.914 1_455 S
H67 C9 0.930 . S
H68 C11 0.930 . S
H69 C13 0.929 1_655 S
H70 C14 0.930 . S
H71 C15 0.930 . S
H72 C18 0.930 . S
H73 C21 0.929 . S
H74 C26 0.929 . S
H75 C27 0.930 . S
H76 C34 0.929 . S
H77 C35 0.930 . S
H78 C36 0.930 . S
H79 C37 0.922 1_554 S
H80 C39 0.929 . S
H81 C40 0.930 . S
H82 C41 0.930 . S
H83 C42 0.930 . S
H84 C46 0.929 . S
H85 C48 0.930 . S
H86 C54 0.929 . S
H87 C55 0.930 . S
Li88 N105 1.990 1_554 S
Li88 O148 1.956 . S
Li88 O149 1.970 1_554 S
Li88 O150 1.961 . S
Li89 N113 1.990 . S
Li89 O148 1.970 . S
Li89 O149 1.956 1_554 S
Li89 O151 1.961 . S
Li90 N135 1.990 . S
Li90 O148 1.961 . S
Li90 O150 1.959 . S
Li90 O151 1.970 . S
Li91 N141 1.990 . S
Li91 O149 1.961 . S
Li91 O150 1.970 1_556 S
Li91 O151 1.956 1_556 S
C92 C94 1.348 . S
C92 C95 1.356 . S
C92 O148 1.325 . S
N93 C96 1.314 . S
N93 C97 1.279 . S
C94 C92 1.348 . S
C94 C96 1.353 . S
C94 H152 0.929 . S
C95 C92 1.356 . S
C95 C97 1.358 . S
C95 H153 0.930 . S
C96 N93 1.314 . S
C96 C94 1.353 . S
C96 H154 0.930 . S
C97 N93 1.279 . S
C97 C95 1.358 . S
C97 H155 0.930 . S
C98 C101 1.348 . S
C98 C102 1.356 . S
C98 O149 1.325 . S
C99 N100 1.279 . S
C99 C102 1.358 . S
C99 H156 0.930 . S
N100 C99 1.279 . S
N100 C103 1.314 . S
C101 C98 1.348 . S
C101 C103 1.353 . S
C101 H157 0.929 . S
C102 C98 1.356 . S
C102 C99 1.358 . S
C102 H158 0.930 . S
C103 N100 1.314 . S
C103 C101 1.353 . S
C103 H159 0.930 . S
C104 N105 1.314 . S
C104 C109 1.353 . S
C104 H110 0.930 . S
N105 Li88 1.990 1_556 S
N105 C104 1.314 . S
N105 C107 1.279 1_556 S
C106 C107 1.358 1_556 S
C106 C108 1.356 . S
C106 H160 0.930 1_556 S
C107 N105 1.279 1_554 S
C107 C106 1.358 1_554 S
C107 H111 0.930 . S
C108 C106 1.356 . S
C108 C109 1.348 . S
C109 C104 1.353 . S
C109 C108 1.348 . S
C109 H161 0.929 . S
H110 C104 0.930 . S
H111 C107 0.930 . S
C112 N113 1.314 . S
C112 C114 1.353 . S
C112 H118 0.930 . S
N113 Li89 1.990 . S
N113 C112 1.314 . S
N113 C116 1.279 . S
C114 C112 1.353 . S
C114 C117 1.348 . S
C114 H162 0.929 . S
C115 C116 1.358 . S
C115 C117 1.356 . S
C115 H163 0.930 . S
C116 N113 1.279 . S
C116 C115 1.358 . S
C116 H119 0.930 . S
C117 C114 1.348 . S
C117 C115 1.356 . S
H118 C112 0.930 . S
H119 C116 0.930 . S
C120 C122 1.348 . S
C120 C123 1.356 . S
C120 O150 1.324 1_556 S
N121 C124 1.314 . S
N121 C125 1.279 . S
C122 C120 1.348 . S
C122 C124 1.353 . S
C122 H164 0.929 . S
C123 C120 1.356 . S
C123 C125 1.358 . S
C123 H165 0.930 1_556 S
C124 N121 1.314 . S
C124 C122 1.353 . S
C124 H166 0.930 . S
C125 N121 1.279 . S
C125 C123 1.358 . S
C125 H167 0.930 . S
C126 C127 1.348 . S
C126 C128 1.356 . S
C126 O151 1.325 . S
C127 C126 1.348 . S
C127 C129 1.353 . S
C127 H168 0.929 . S
C128 C126 1.356 . S
C128 C130 1.358 . S
C128 H169 0.930 . S
C129 C127 1.353 . S
C129 N131 1.314 . S
C129 H170 0.930 . S
C130 C128 1.358 . S
C130 N131 1.279 . S
C130 H171 0.930 . S
N131 C129 1.314 . S
N131 C130 1.279 . S
C132 C134 1.353 . S
C132 N135 1.314 . S
C132 H138 0.930 . S
C133 N135 1.279 . S
C133 C136 1.358 . S
C133 H139 0.930 . S
C134 C132 1.353 . S
C134 C137 1.348 . S
C134 H172 0.929 . S
N135 Li90 1.990 . S
N135 C132 1.314 . S
N135 C133 1.279 . S
C136 C133 1.358 . S
C136 C137 1.356 . S
C136 H173 0.930 . S
C137 C134 1.348 . S
C137 C136 1.356 . S
H138 C132 0.930 . S
H139 C133 0.930 . S
C140 N141 1.314 . S
C140 C142 1.353 . S
C140 H146 0.930 . S
N141 Li91 1.990 . S
N141 C140 1.314 . S
N141 C144 1.279 . S
C142 C140 1.353 . S
C142 C145 1.348 . S
C142 H174 0.929 . S
C143 C144 1.358 . S
C143 C145 1.356 . S
C143 H175 0.930 . S
C144 N141 1.279 . S
C144 C143 1.358 . S
C144 H147 0.930 . S
C145 C142 1.348 . S
C145 C143 1.356 . S
H146 C140 0.930 . S
H147 C144 0.930 . S
O148 Li88 1.956 . S
O148 Li89 1.970 . S
O148 Li90 1.961 . S
O148 C92 1.325 . S
O149 Li88 1.970 1_556 S
O149 Li89 1.956 1_556 S
O149 Li91 1.961 . S
O149 C98 1.325 . S
O150 Li88 1.961 . S
O150 Li90 1.959 . S
O150 Li91 1.970 1_554 S
O150 C120 1.324 1_554 S
O151 Li89 1.961 . S
O151 Li90 1.970 . S
O151 Li91 1.956 1_554 S
O151 C126 1.325 . S
H152 C94 0.929 . S
H153 C95 0.930 . S
H154 C96 0.930 . S
H155 C97 0.930 . S
H156 C99 0.930 . S
H157 C101 0.929 . S
H158 C102 0.930 . S
H159 C103 0.930 . S
H160 C106 0.930 1_554 S
H161 C109 0.929 . S
H162 C114 0.929 . S
H163 C115 0.930 . S
H164 C122 0.929 . S
H165 C123 0.930 1_554 S
H166 C124 0.930 . S
H167 C125 0.930 . S
H168 C127 0.929 . S
H169 C128 0.930 . S
H170 C129 0.930 . S
H171 C130 0.930 . S
H172 C134 0.929 . S
H173 C136 0.930 . S
H174 C142 0.929 . S
H175 C143 0.930 . S
Li176 N193 1.990 . S
Li176 O236 1.956 1_556 S
Li176 O237 1.970 1_566 S
Li176 O238 1.961 . S
Li177 N201 1.990 . S
Li177 O236 1.970 1_545 S
Li177 O237 1.956 . S
Li177 O239 1.961 . S
Li178 N223 1.990 . S
Li178 O236 1.961 . S
Li178 O238 1.956 1_554 S
Li178 O239 1.970 1_565 S
Li179 N229 1.990 1_554 S
Li179 O237 1.961 . S
Li179 O238 1.970 1_544 S
Li179 O239 1.956 . S
C180 C182 1.348 . S
C180 C183 1.356 . S
C180 O236 1.325 . S
N181 C184 1.314 . S
N181 C185 1.279 . S
C182 C180 1.348 . S
C182 C184 1.353 . S
C182 H240 0.929 . S
C183 C180 1.356 . S
C183 C185 1.358 . S
C183 H241 0.930 . S
C184 N181 1.314 . S
C184 C182 1.353 . S
C184 H242 0.930 . S
C185 N181 1.279 . S
C185 C183 1.358 . S
C185 H243 0.930 . S
C186 C189 1.348 . S
C186 C190 1.356 1_556 S
C186 O237 1.325 1_556 S
C187 N188 1.288 . S
C187 C190 1.354 1_556 S
C187 H244 0.925 1_556 S
N188 C187 1.288 . S
N188 C191 1.314 . S
C189 C186 1.348 . S
C189 C191 1.353 . S
C189 H245 0.929 . S
C190 C186 1.356 1_554 S
C190 C187 1.354 1_554 S
C190 H246 0.930 . S
C191 N188 1.314 . S
C191 C189 1.353 . S
C191 H247 0.930 . S
C192 N193 1.314 . S
C192 C197 1.353 . S
C192 H198 0.984 . S
N193 Li176 1.990 . S
N193 C192 1.314 . S
N193 C195 1.279 . S
C194 C195 1.358 . S
C194 C196 1.356 . S
C194 H248 0.930 . S
C195 N193 1.279 . S
C195 C194 1.358 . S
C195 H199 0.930 . S
C196 C194 1.356 . S
C196 C197 1.348 . S
C197 C192 1.353 . S
C197 C196 1.348 . S
C197 H249 0.929 . S
H198 C192 0.984 . S
H199 C195 0.930 . S
C200 N201 1.314 . S
C200 C202 1.353 . S
C200 H206 0.930 . S
N201 Li177 1.990 . S
N201 C200 1.314 . S
N201 C204 1.279 . S
C202 C200 1.353 . S
C202 C205 1.348 . S
C202 H250 0.929 . S
C203 C204 1.358 . S
C203 C205 1.356 . S
C203 H251 0.930 . S
C204 N201 1.279 . S
C204 C203 1.358 . S
C204 H207 0.930 . S
C205 C202 1.348 . S
C205 C203 1.356 . S
H206 C200 0.930 . S
H207 C204 0.930 . S
C208 C210 1.357 . S
C208 C211 1.356 . S
C208 O238 1.325 . S
N209 C212 1.314 . S
N209 C213 1.279 . S
C210 C208 1.357 . S
C210 C212 1.353 . S
C210 H252 0.920 1_565 S
C211 C208 1.356 . S
C211 C213 1.358 . S
C211 H253 0.930 . S
C212 N209 1.314 . S
C212 C210 1.353 . S
C212 H254 0.915 1_565 S
C213 N209 1.279 . S
C213 C211 1.358 . S
C213 H255 0.930 . S
C214 C215 1.348 . S
C214 C216 1.356 . S
C214 O239 1.325 . S
C215 C214 1.348 . S
C215 C217 1.353 . S
C215 H256 0.929 1_545 S
C216 C214 1.356 . S
C216 C218 1.358 . S
C216 H257 0.930 . S
C217 C215 1.353 . S
C217 N219 1.314 . S
C217 H258 0.930 . S
C218 C216 1.358 . S
C218 N219 1.279 . S
C218 H259 0.930 . S
N219 C217 1.314 . S
N219 C218 1.279 . S
C220 C222 1.353 . S
C220 N223 1.314 . S
C220 H226 0.930 . S
C221 N223 1.279 . S
C221 C224 1.358 . S
C221 H227 0.930 . S
C222 C220 1.353 . S
C222 C225 1.348 . S
C222 H260 0.929 . S
N223 Li178 1.990 . S
N223 C220 1.314 . S
N223 C221 1.279 . S
C224 C221 1.358 . S
C224 C225 1.356 . S
C224 H261 0.930 . S
C225 C222 1.348 . S
C225 C224 1.356 . S
H226 C220 0.930 . S
H227 C221 0.930 . S
C228 N229 1.314 . S
C228 C230 1.353 . S
C228 H234 0.930 . S
N229 Li179 1.990 1_556 S
N229 C228 1.314 . S
N229 C232 1.279 1_556 S
C230 C228 1.353 . S
C230 C233 1.348 . S
C230 H262 0.929 . S
C231 C232 1.358 . S
C231 C233 1.356 1_554 S
C231 H263 0.930 . S
C232 N229 1.279 1_554 S
C232 C231 1.358 . S
C232 H235 0.930 . S
C233 C230 1.348 . S
C233 C231 1.356 1_556 S
H234 C228 0.930 . S
H235 C232 0.930 . S
O236 Li176 1.956 1_554 S
O236 Li177 1.970 1_565 S
O236 Li178 1.961 . S
O236 C180 1.325 . S
O237 Li176 1.970 1_544 S
O237 Li177 1.956 . S
O237 Li179 1.961 . S
O237 C186 1.325 1_554 S
O238 Li176 1.961 . S
O238 Li178 1.956 1_556 S
O238 Li179 1.970 1_566 S
O238 C208 1.325 . S
O239 Li177 1.961 . S
O239 Li178 1.970 1_545 S
O239 Li179 1.956 . S
O239 C214 1.325 . S
H240 C182 0.929 . S
H241 C183 0.930 . S
H242 C184 0.930 . S
H243 C185 0.930 . S
H244 C187 0.925 1_554 S
H245 C189 0.929 . S
H246 C190 0.930 . S
H247 C191 0.930 . S
H248 C194 0.930 . S
H249 C197 0.929 . S
H250 C202 0.929 . S
H251 C203 0.930 . S
H252 C210 0.920 1_545 S
H253 C211 0.930 . S
H254 C212 0.915 1_545 S
H255 C213 0.930 . S
H256 C215 0.929 1_565 S
H257 C216 0.930 . S
H258 C217 0.930 . S
H259 C218 0.930 . S
H260 C222 0.929 . S
H261 C224 0.930 . S
H262 C230 0.929 . S
H263 C231 0.930 . S
Li264 N281 1.990 . S
Li264 O324 1.956 . S
Li264 O325 1.970 1_455 S
Li264 O326 1.961 1_554 S
Li265 N289 1.990 . S
Li265 O324 1.970 1_655 S
Li265 O325 1.956 . S
Li265 O327 1.961 . S
Li266 N311 1.990 . S
Li266 O324 1.961 1_556 S
Li266 O326 1.956 . S
Li266 O327 1.970 1_456 S
Li267 N317 1.990 1_554 S
Li267 O325 1.961 . S
Li267 O326 1.970 1_654 S
Li267 O327 1.956 . S
C268 C270 1.348 . S
C268 C271 1.356 . S
C268 O324 1.325 . S
N269 C272 1.314 . S
N269 C273 1.279 . S
C270 C268 1.348 . S
C270 C272 1.353 . S
C270 H328 0.929 . S
C271 C268 1.356 . S
C271 C273 1.358 . S
C271 H329 0.930 1_554 S
C272 N269 1.314 . S
C272 C270 1.353 . S
C272 H330 0.930 . S
C273 N269 1.279 . S
C273 C271 1.358 . S
C273 H331 0.930 . S
C274 C277 1.341 1_655 S
C274 C278 1.356 . S
C274 O325 1.325 . S
C275 N276 1.279 . S
C275 C278 1.358 . S
C275 H332 0.930 . S
N276 C275 1.279 . S
N276 C279 1.314 . S
C277 C274 1.341 1_455 S
C277 C279 1.342 1_455 S
C277 H333 0.947 . S
C278 C274 1.356 . S
C278 C275 1.358 . S
C278 H334 0.930 . S
C279 N276 1.314 . S
C279 C277 1.342 1_655 S
C279 H335 0.930 1_655 S
C280 N281 1.314 . S
C280 C285 1.353 . S
C280 H286 0.930 . S
N281 Li264 1.990 . S
N281 C280 1.314 . S
N281 C283 1.279 . S
C282 C283 1.358 . S
C282 C284 1.356 . S
C282 H336 0.930 . S
C283 N281 1.279 . S
C283 C282 1.358 . S
C283 H287 0.930 . S
C284 C282 1.356 . S
C284 C285 1.348 . S
C285 C280 1.353 . S
C285 C284 1.348 . S
C285 H337 0.929 . S
H286 C280 0.930 . S
H287 C283 0.930 . S
C288 N289 1.314 . S
C288 C290 1.353 . S
C288 H294 0.930 . S
N289 Li265 1.990 . S
N289 C288 1.314 . S
N289 C292 1.279 . S
C290 C288 1.353 . S
C290 C293 1.348 . S
C290 H338 0.929 . S
C291 C292 1.358 . S
C291 C293 1.356 . S
C291 H339 0.930 . S
C292 N289 1.279 . S
C292 C291 1.358 . S
C292 H295 0.930 . S
C293 C290 1.348 . S
C293 C291 1.356 . S
H294 C288 0.930 . S
H295 C292 0.930 . S
C296 C298 1.331 1_455 S
C296 C299 1.356 . S
C296 O326 1.325 . S
N297 C300 1.314 . S
N297 C301 1.279 . S
C298 C296 1.331 1_655 S
C298 C300 1.353 1_655 S
C298 H340 0.947 . S
C299 C296 1.356 . S
C299 C301 1.358 . S
C299 H341 0.930 . S
C300 N297 1.314 . S
C300 C298 1.353 1_455 S
C300 H342 0.930 1_455 S
C301 N297 1.279 . S
C301 C299 1.358 . S
C301 H343 0.930 . S
C302 C303 1.348 . S
C302 C304 1.356 1_556 S
C302 O327 1.325 1_556 S
C303 C302 1.348 . S
C303 C305 1.353 . S
C303 H344 0.929 . S
C304 C302 1.356 1_554 S
C304 C306 1.358 . S
C304 H345 0.930 . S
C305 C303 1.353 . S
C305 N307 1.314 . S
C305 H346 0.930 . S
C306 C304 1.358 . S
C306 N307 1.279 1_554 S
C306 H347 0.930 . S
N307 C305 1.314 . S
N307 C306 1.279 1_556 S
C308 C310 1.353 . S
C308 N311 1.314 . S
C308 H314 0.930 . S
C309 N311 1.279 . S
C309 C312 1.358 . S
C309 H315 0.930 . S
C310 C308 1.353 . S
C310 C313 1.348 . S
C310 H348 0.929 . S
N311 Li266 1.990 . S
N311 C308 1.314 . S
N311 C309 1.279 . S
C312 C309 1.358 . S
C312 C313 1.356 . S
C312 H349 0.930 . S
C313 C310 1.348 . S
C313 C312 1.356 . S
H314 C308 0.930 . S
H315 C309 0.930 . S
C316 N317 1.311 1_554 S
C316 C318 1.349 1_554 S
C316 H322 0.939 . S
N317 Li267 1.990 1_556 S
N317 C316 1.311 1_556 S
N317 C320 1.279 . S
C318 C316 1.349 1_556 S
C318 C321 1.348 . S
C318 H350 0.936 . S
C319 C320 1.358 . S
C319 C321 1.356 . S
C319 H351 0.930 . S
C320 N317 1.279 . S
C320 C319 1.358 . S
C320 H323 0.930 . S
C321 C318 1.348 . S
C321 C319 1.356 . S
H322 C316 0.939 . S
H323 C320 0.930 . S
O324 Li264 1.956 . S
O324 Li265 1.970 1_455 S
O324 Li266 1.961 1_554 S
O324 C268 1.325 . S
O325 Li264 1.970 1_655 S
O325 Li265 1.956 . S
O325 Li267 1.961 . S
O325 C274 1.325 . S
O326 Li264 1.961 1_556 S
O326 Li266 1.956 . S
O326 Li267 1.970 1_456 S
O326 C296 1.325 . S
O327 Li265 1.961 . S
O327 Li266 1.970 1_654 S
O327 Li267 1.956 . S
O327 C302 1.325 1_554 S
H328 C270 0.929 . S
H329 C271 0.930 1_556 S
H330 C272 0.930 . S
H331 C273 0.930 . S
H332 C275 0.930 . S
H333 C277 0.947 . S
H334 C278 0.930 . S
H335 C279 0.930 1_455 S
H336 C282 0.930 . S
H337 C285 0.929 . S
H338 C290 0.929 . S
H339 C291 0.930 . S
H340 C298 0.947 . S
H341 C299 0.930 . S
H342 C300 0.930 1_655 S
H343 C301 0.930 . S
H344 C303 0.929 . S
H345 C304 0.930 . S
H346 C305 0.930 . S
H347 C306 0.930 . S
H348 C310 0.929 . S
H349 C312 0.930 . S
H350 C318 0.936 . S
H351 C319 0.930 . S
Li352 N369 1.990 . S
Li352 O412 1.956 . S
Li352 O413 1.970 . S
Li352 O414 1.961 1_554 S
Li353 N377 1.990 . S
Li353 O412 1.970 . S
Li353 O413 1.956 . S
Li353 O415 2.011 . S
Li354 N399 1.990 . S
Li354 O412 1.961 1_556 S
Li354 O414 1.956 . S
Li354 O415 1.955 1_556 S
Li355 N405 1.990 1_554 S
Li355 O413 1.961 . S
Li355 O414 1.970 1_554 S
Li355 O415 1.958 . S
C356 C358 1.348 . S
C356 C359 1.356 . S
C356 O412 1.325 . S
N357 C360 1.314 . S
N357 C361 1.279 . S
C358 C356 1.348 . S
C358 C360 1.353 . S
C358 H416 0.929 . S
C359 C356 1.356 . S
C359 C361 1.358 . S
C359 H417 0.930 . S
C360 N357 1.314 . S
C360 C358 1.353 . S
C360 H418 0.930 . S
C361 N357 1.279 . S
C361 C359 1.358 . S
C361 H419 0.930 . S
C362 C365 1.348 . S
C362 C366 1.356 . S
C362 O413 1.325 . S
C363 N364 1.279 . S
C363 C366 1.358 . S
C363 H420 0.930 . S
N364 C363 1.279 . S
N364 C367 1.314 . S
C365 C362 1.348 . S
C365 C367 1.353 . S
C365 H421 0.929 . S
C366 C362 1.356 . S
C366 C363 1.358 . S
C366 H422 0.930 . S
C367 N364 1.314 . S
C367 C365 1.353 . S
C367 H423 0.930 . S
C368 N369 1.314 . S
C368 C373 1.353 . S
C368 H374 0.930 . S
N369 Li352 1.990 . S
N369 C368 1.314 . S
N369 C371 1.279 . S
C370 C371 1.358 . S
C370 C372 1.356 . S
C370 H424 0.930 . S
C371 N369 1.279 . S
C371 C370 1.358 . S
C371 H375 0.930 . S
C372 C370 1.356 . S
C372 C373 1.348 . S
C373 C368 1.353 . S
C373 C372 1.348 . S
C373 H425 0.929 . S
H374 C368 0.930 . S
H375 C371 0.930 . S
C376 N377 1.314 . S
C376 C378 1.353 . S
C376 H382 0.930 . S
N377 Li353 1.990 . S
N377 C376 1.314 . S
N377 C380 1.279 . S
C378 C376 1.353 . S
C378 C381 1.348 . S
C378 H426 0.929 . S
C379 C380 1.358 . S
C379 C381 1.356 . S
C379 H427 0.930 . S
C380 N377 1.279 . S
C380 C379 1.358 . S
C380 H383 0.930 . S
C381 C378 1.348 . S
C381 C379 1.356 . S
H382 C376 0.930 . S
H383 C380 0.930 . S
C384 C386 1.348 . S
C384 C387 1.356 . S
C384 O414 1.325 . S
N385 C388 1.314 . S
N385 C389 1.279 . S
C386 C384 1.348 . S
C386 C388 1.353 . S
C386 H428 0.929 . S
C387 C384 1.356 . S
C387 C389 1.358 . S
C387 H429 0.930 . S
C388 N385 1.314 . S
C388 C386 1.353 . S
C388 H430 0.930 . S
C389 N385 1.279 . S
C389 C387 1.358 . S
C389 H431 0.930 . S
C390 C391 1.348 . S
C390 C392 1.356 1_556 S
C390 O415 1.307 1_556 S
C391 C390 1.348 . S
C391 C393 1.353 . S
C391 H432 0.929 . S
C392 C390 1.356 1_554 S
C392 C394 1.358 1_554 S
C392 H433 0.930 . S
C393 C391 1.353 . S
C393 N395 1.314 . S
C393 H434 0.930 . S
C394 C392 1.358 1_556 S
C394 N395 1.279 . S
C394 H435 0.930 1_556 S
N395 C393 1.314 . S
N395 C394 1.279 . S
C396 C398 1.353 . S
C396 N399 1.314 . S
C396 H402 0.930 . S
C397 N399 1.279 . S
C397 C400 1.358 . S
C397 H403 0.930 . S
C398 C396 1.353 . S
C398 C401 1.348 . S
C398 H436 0.929 . S
N399 Li354 1.990 . S
N399 C396 1.314 . S
N399 C397 1.279 . S
C400 C397 1.358 . S
C400 C401 1.356 . S
C400 H437 0.930 . S
C401 C398 1.348 . S
C401 C400 1.356 . S
H402 C396 0.930 . S
H403 C397 0.930 . S
C404 N405 1.314 . S
C404 C406 1.353 . S
C404 H410 0.930 1_556 S
N405 Li355 1.990 1_556 S
N405 C404 1.314 . S
N405 C408 1.279 . S
C406 C404 1.353 . S
C406 C409 1.348 . S
C406 H438 0.929 . S
C407 C408 1.358 . S
C407 C409 1.356 . S
C407 H439 0.930 . S
C408 N405 1.279 . S
C408 C407 1.358 . S
C408 H411 0.930 . S
C409 C406 1.348 . S
C409 C407 1.356 . S
H410 C404 0.930 1_554 S
H411 C408 0.930 . S
O412 Li352 1.956 . S
O412 Li353 1.970 . S
O412 Li354 1.961 1_554 S
O412 C356 1.325 . S
O413 Li352 1.970 . S
O413 Li353 1.956 . S
O413 Li355 1.961 . S
O413 C362 1.325 . S
O414 Li352 1.961 1_556 S
O414 Li354 1.956 . S
O414 Li355 1.970 1_556 S
O414 C384 1.325 . S
O415 Li353 2.011 . S
O415 Li354 1.955 1_554 S
O415 Li355 1.958 . S
O415 C390 1.307 1_554 S
H416 C358 0.929 . S
H417 C359 0.930 . S
H418 C360 0.930 . S
H419 C361 0.930 . S
H420 C363 0.930 . S
H421 C365 0.929 . S
H422 C366 0.930 . S
H423 C367 0.930 . S
H424 C370 0.930 . S
H425 C373 0.929 . S
H426 C378 0.929 . S
H427 C379 0.930 . S
H428 C386 0.929 . S
H429 C387 0.930 . S
H430 C388 0.930 . S
H431 C389 0.930 . S
H432 C391 0.929 . S
H433 C392 0.930 . S
H434 C393 0.930 . S
H435 C394 0.930 1_554 S
H436 C398 0.929 . S
H437 C400 0.930 . S
H438 C406 0.929 . S
H439 C407 0.930 . S
Li440 N457 1.990 . S
Li440 O500 1.956 . S
Li440 O501 1.970 1_565 S
Li440 O502 1.961 1_554 S
Li441 N465 1.990 . S
Li441 O500 1.970 1_545 S
Li441 O501 1.956 . S
Li441 O503 1.961 . S
Li442 N487 1.990 . S
Li442 O500 1.961 1_556 S
Li442 O502 1.956 . S
Li442 O503 1.970 1_566 S
Li443 N493 1.990 1_554 S
Li443 O501 1.961 . S
Li443 O502 1.970 1_544 S
Li443 O503 1.956 . S
C444 C446 1.348 . S
C444 C447 1.356 . S
C444 O500 1.325 . S
N445 C448 1.314 . S
N445 C449 1.279 . S
C446 C444 1.348 . S
C446 C448 1.353 . S
C446 H504 0.929 . S
C447 C444 1.356 . S
C447 C449 1.358 . S
C447 H505 0.920 1_554 S
C448 N445 1.314 . S
C448 C446 1.353 . S
C448 H506 0.930 . S
C449 N445 1.279 . S
C449 C447 1.358 . S
C449 H507 0.930 . S
C450 C453 1.331 1_545 S
C450 C454 1.356 . S
C450 O501 1.325 . S
C451 N452 1.279 . S
C451 C454 1.358 . S
C451 H508 0.930 . S
N452 C451 1.279 . S
N452 C455 1.314 . S
C453 C450 1.331 1_565 S
C453 C455 1.353 1_565 S
C453 H509 0.947 . S
C454 C450 1.356 . S
C454 C451 1.358 . S
C454 H510 0.930 . S
C455 N452 1.314 . S
C455 C453 1.353 1_545 S
C455 H511 0.930 1_545 S
C456 N457 1.314 . S
C456 C461 1.353 . S
C456 H462 0.930 . S
N457 Li440 1.990 . S
N457 C456 1.314 . S
N457 C459 1.279 . S
C458 C459 1.358 . S
C458 C460 1.356 . S
C458 H512 0.930 . S
C459 N457 1.279 . S
C459 C458 1.358 . S
C459 H463 0.930 . S
C460 C458 1.356 . S
C460 C461 1.348 . S
C461 C456 1.353 . S
C461 C460 1.348 . S
C461 H513 0.929 . S
H462 C456 0.930 . S
H463 C459 0.930 . S
C464 N465 1.314 . S
C464 C466 1.353 . S
C464 H470 0.930 . S
N465 Li441 1.990 . S
N465 C464 1.314 . S
N465 C468 1.279 . S
C466 C464 1.353 . S
C466 C469 1.348 . S
C466 H514 0.929 . S
C467 C468 1.358 . S
C467 C469 1.356 . S
C467 H515 0.930 . S
C468 N465 1.279 . S
C468 C467 1.358 . S
C468 H471 0.930 . S
C469 C466 1.348 . S
C469 C467 1.356 . S
H470 C464 0.930 . S
H471 C468 0.930 . S
C472 C474 1.341 1_565 S
C472 C475 1.356 . S
C472 O502 1.325 . S
N473 C476 1.314 . S
N473 C477 1.279 . S
C474 C472 1.341 1_545 S
C474 C476 1.342 1_545 S
C474 H516 0.947 . S
C475 C472 1.356 . S
C475 C477 1.358 . S
C475 H517 0.930 . S
C476 N473 1.314 . S
C476 C474 1.342 1_565 S
C476 H518 0.930 1_565 S
C477 N473 1.279 . S
C477 C475 1.358 . S
C477 H519 0.930 . S
C478 C479 1.348 . S
C478 C480 1.356 1_556 S
C478 O503 1.325 1_556 S
C479 C478 1.348 . S
C479 C481 1.353 . S
C479 H520 0.929 . S
C480 C478 1.356 1_554 S
C480 C482 1.358 . S
C480 H521 0.930 . S
C481 C479 1.353 . S
C481 N483 1.314 . S
C481 H522 0.930 . S
C482 C480 1.358 . S
C482 N483 1.279 1_554 S
C482 H523 0.930 . S
N483 C481 1.314 . S
N483 C482 1.279 1_556 S
C484 C486 1.353 . S
C484 N487 1.314 . S
C484 H490 0.930 . S
C485 N487 1.279 . S
C485 C488 1.358 . S
C485 H491 0.930 . S
C486 C484 1.353 . S
C486 C489 1.348 . S
C486 H524 0.929 . S
N487 Li442 1.990 . S
N487 C484 1.314 . S
N487 C485 1.279 . S
C488 C485 1.358 . S
C488 C489 1.356 . S
C488 H525 0.930 . S
C489 C486 1.348 . S
C489 C488 1.356 . S
H490 C484 0.930 . S
H491 C485 0.930 . S
C492 N493 1.314 1_554 S
C492 C494 1.353 1_554 S
C492 H498 0.930 . S
N493 Li443 1.990 1_556 S
N493 C492 1.314 1_556 S
N493 C496 1.279 . S
C494 C492 1.353 1_556 S
C494 C497 1.348 . S
C494 H526 0.918 1_556 S
C495 C496 1.358 . S
C495 C497 1.356 . S
C495 H527 0.930 . S
C496 N493 1.279 . S
C496 C495 1.358 . S
C496 H499 0.930 . S
C497 C494 1.348 . S
C497 C495 1.356 . S
H498 C492 0.930 . S
H499 C496 0.930 . S
O500 Li440 1.956 . S
O500 Li441 1.970 1_565 S
O500 Li442 1.961 1_554 S
O500 C444 1.325 . S
O501 Li440 1.970 1_545 S
O501 Li441 1.956 . S
O501 Li443 1.961 . S
O501 C450 1.325 . S
O502 Li440 1.961 1_556 S
O502 Li442 1.956 . S
O502 Li443 1.970 1_566 S
O502 C472 1.325 . S
O503 Li441 1.961 . S
O503 Li442 1.970 1_544 S
O503 Li443 1.956 . S
O503 C478 1.325 1_554 S
H504 C446 0.929 . S
H505 C447 0.920 1_556 S
H506 C448 0.930 . S
H507 C449 0.930 . S
H508 C451 0.930 . S
H509 C453 0.947 . S
H510 C454 0.930 . S
H511 C455 0.930 1_565 S
H512 C458 0.930 . S
H513 C461 0.929 . S
H514 C466 0.929 . S
H515 C467 0.930 . S
H516 C474 0.947 . S
H517 C475 0.930 . S
H518 C476 0.930 1_545 S
H519 C477 0.930 . S
H520 C479 0.929 . S
H521 C480 0.930 . S
H522 C481 0.930 . S
H523 C482 0.930 . S
H524 C486 0.929 . S
H525 C488 0.930 . S
H526 C494 0.918 1_554 S
H527 C495 0.930 . S
Li528 N545 1.990 . S
Li528 O588 1.956 . S
Li528 O589 1.970 . S
Li528 O590 1.961 . S
Li529 N553 1.990 . S
Li529 O588 1.970 . S
Li529 O589 1.956 . S
Li529 O591 1.961 . S
Li530 N575 1.990 . S
Li530 O588 1.961 . S
Li530 O590 1.956 . S
Li530 O591 1.970 . S
Li531 N581 1.990 . S
Li531 O589 1.961 . S
Li531 O590 1.970 . S
Li531 O591 1.956 . S
C532 C534 1.348 . S
C532 C535 1.356 . S
C532 O588 1.325 . S
N533 C536 1.314 . S
N533 C537 1.279 . S
C534 C532 1.348 . S
C534 C536 1.353 . S
C534 H592 0.929 . S
C535 C532 1.356 . S
C535 C537 1.358 . S
C535 H593 0.930 . S
C536 N533 1.314 . S
C536 C534 1.353 . S
C536 H594 0.930 . S
C537 N533 1.279 . S
C537 C535 1.358 . S
C537 H595 0.930 . S
C538 C541 1.348 . S
C538 C542 1.356 . S
C538 O589 1.325 . S
C539 N540 1.279 . S
C539 C542 1.358 . S
C539 H596 0.930 . S
N540 C539 1.279 . S
N540 C543 1.314 . S
C541 C538 1.348 . S
C541 C543 1.353 . S
C541 H597 0.929 . S
C542 C538 1.356 . S
C542 C539 1.358 . S
C542 H598 0.930 . S
C543 N540 1.314 . S
C543 C541 1.353 . S
C543 H599 0.930 . S
C544 N545 1.314 . S
C544 C549 1.353 . S
C544 H550 0.930 . S
N545 Li528 1.990 . S
N545 C544 1.314 . S
N545 C547 1.279 . S
C546 C547 1.358 . S
C546 C548 1.356 . S
C546 H600 0.930 . S
C547 N545 1.279 . S
C547 C546 1.358 . S
C547 H551 0.930 . S
C548 C546 1.356 . S
C548 C549 1.348 . S
C549 C544 1.353 . S
C549 C548 1.348 . S
C549 H601 0.929 . S
H550 C544 0.930 . S
H551 C547 0.930 . S
C552 N553 1.314 . S
C552 C554 1.353 . S
C552 H558 0.930 . S
N553 Li529 1.990 . S
N553 C552 1.314 . S
N553 C556 1.279 . S
C554 C552 1.353 . S
C554 C557 1.348 . S
C554 H602 0.929 . S
C555 C556 1.358 . S
C555 C557 1.356 . S
C555 H603 0.930 . S
C556 N553 1.279 . S
C556 C555 1.358 . S
C556 H559 0.930 . S
C557 C554 1.348 . S
C557 C555 1.356 . S
H558 C552 0.930 . S
H559 C556 0.930 . S
C560 C562 1.348 . S
C560 C563 1.356 . S
C560 O590 1.325 . S
N561 C564 1.314 . S
N561 C565 1.279 . S
C562 C560 1.348 . S
C562 C564 1.353 . S
C562 H604 0.929 . S
C563 C560 1.356 . S
C563 C565 1.358 . S
C563 H605 0.930 . S
C564 N561 1.314 . S
C564 C562 1.353 . S
C564 H606 0.930 . S
C565 N561 1.279 . S
C565 C563 1.358 . S
C565 H607 0.930 . S
C566 C567 1.348 . S
C566 C568 1.356 . S
C566 O591 1.325 . S
C567 C566 1.348 . S
C567 C569 1.353 . S
C567 H608 0.929 . S
C568 C566 1.356 . S
C568 C570 1.358 . S
C568 H609 0.930 . S
C569 C567 1.353 . S
C569 N571 1.314 . S
C569 H610 0.930 . S
C570 C568 1.358 . S
C570 N571 1.279 . S
C570 H611 0.930 . S
N571 C569 1.314 . S
N571 C570 1.279 . S
C572 C574 1.353 . S
C572 N575 1.314 . S
C572 H578 0.930 . S
C573 N575 1.279 . S
C573 C576 1.358 . S
C573 H579 0.930 . S
C574 C572 1.353 . S
C574 C577 1.348 . S
C574 H612 0.929 . S
N575 Li530 1.990 . S
N575 C572 1.314 . S
N575 C573 1.279 . S
C576 C573 1.358 . S
C576 C577 1.356 . S
C576 H613 0.930 . S
C577 C574 1.348 . S
C577 C576 1.356 . S
H578 C572 0.930 . S
H579 C573 0.930 . S
C580 N581 1.314 . S
C580 C582 1.353 . S
C580 H586 0.930 . S
N581 Li531 1.990 . S
N581 C580 1.314 . S
N581 C584 1.279 . S
C582 C580 1.353 . S
C582 C585 1.348 . S
C582 H614 0.929 . S
C583 C584 1.358 . S
C583 C585 1.356 . S
C583 H615 0.930 . S
C584 N581 1.279 . S
C584 C583 1.358 . S
C584 H587 0.930 . S
C585 C582 1.348 . S
C585 C583 1.356 . S
H586 C580 0.930 . S
H587 C584 0.930 . S
O588 Li528 1.956 . S
O588 Li529 1.970 . S
O588 Li530 1.961 . S
O588 C532 1.325 . S
O589 Li528 1.970 . S
O589 Li529 1.956 . S
O589 Li531 1.961 . S
O589 C538 1.325 . S
O590 Li528 1.961 . S
O590 Li530 1.956 . S
O590 Li531 1.970 . S
O590 C560 1.325 . S
O591 Li529 1.961 . S
O591 Li530 1.970 . S
O591 Li531 1.956 . S
O591 C566 1.325 . S
H592 C534 0.929 . S
H593 C535 0.930 . S
H594 C536 0.930 . S
H595 C537 0.930 . S
H596 C539 0.930 . S
H597 C541 0.929 . S
H598 C542 0.930 . S
H599 C543 0.930 . S
H600 C546 0.930 . S
H601 C549 0.929 . S
H602 C554 0.929 . S
H603 C555 0.930 . S
H604 C562 0.929 . S
H605 C563 0.930 . S
H606 C564 0.930 . S
H607 C565 0.930 . S
H608 C567 0.929 . S
H609 C568 0.930 . S
H610 C569 0.930 . S
H611 C570 0.930 . S
H612 C574 0.929 . S
H613 C576 0.930 . S
H614 C582 0.929 . S
H615 C583 0.930 . S
Li616 N633 1.990 . S
Li616 O676 1.956 . S
Li616 O677 1.970 . S
Li616 O678 1.961 . S
Li617 N641 1.990 . S
Li617 O676 1.970 . S
Li617 O677 1.956 . S
Li617 O679 1.961 . S
Li618 N663 1.931 1_565 S
Li618 O676 1.988 . S
Li618 O678 1.975 . S
Li618 O679 2.022 . S
Li619 N669 1.990 . S
Li619 O677 1.961 . S
Li619 O678 1.970 . S
Li619 O679 1.956 . S
C620 C622 1.348 . S
C620 C623 1.356 . S
C620 O676 1.325 . S
N621 C624 1.314 . S
N621 C625 1.279 . S
C622 C620 1.348 . S
C622 C624 1.353 . S
C622 H680 0.929 . S
C623 C620 1.356 . S
C623 C625 1.358 . S
C623 H681 0.930 . S
C624 N621 1.314 . S
C624 C622 1.353 . S
C624 H682 0.930 . S
C625 N621 1.279 . S
C625 C623 1.358 . S
C625 H683 0.930 . S
C626 C629 1.348 . S
C626 C630 1.356 . S
C626 O677 1.325 . S
C627 N628 1.279 . S
C627 C630 1.358 . S
C627 H684 0.930 . S
N628 C627 1.279 . S
N628 C631 1.314 . S
C629 C626 1.348 . S
C629 C631 1.353 . S
C629 H685 0.929 . S
C630 C626 1.356 . S
C630 C627 1.358 . S
C630 H686 0.930 . S
C631 N628 1.314 . S
C631 C629 1.353 . S
C631 H687 0.930 . S
C632 N633 1.314 . S
C632 C637 1.353 . S
C632 H638 0.930 . S
N633 Li616 1.990 . S
N633 C632 1.314 . S
N633 C635 1.279 . S
C634 C635 1.358 . S
C634 C636 1.356 . S
C634 H688 0.930 . S
C635 N633 1.279 . S
C635 C634 1.358 . S
C635 H639 0.930 . S
C636 C634 1.356 . S
C636 C637 1.348 . S
C637 C632 1.353 . S
C637 C636 1.348 . S
C637 H689 0.929 . S
H638 C632 0.930 . S
H639 C635 0.930 . S
C640 N641 1.314 . S
C640 C642 1.353 . S
C640 H646 0.930 . S
N641 Li617 1.990 . S
N641 C640 1.314 . S
N641 C644 1.279 . S
C642 C640 1.353 . S
C642 C645 1.348 . S
C642 H690 0.929 . S
C643 C644 1.358 . S
C643 C645 1.356 . S
C643 H691 0.930 . S
C644 N641 1.279 . S
C644 C643 1.358 . S
C644 H647 0.930 . S
C645 C642 1.348 . S
C645 C643 1.356 . S
H646 C640 0.930 . S
H647 C644 0.930 . S
C648 C650 1.348 . S
C648 C651 1.356 . S
C648 O678 1.325 1_545 S
N649 C652 1.314 . S
N649 C653 1.279 . S
C650 C648 1.348 . S
C650 C652 1.353 . S
C650 H692 0.929 . S
C651 C648 1.356 . S
C651 C653 1.358 . S
C651 H693 0.930 . S
C652 N649 1.314 . S
C652 C650 1.353 . S
C652 H694 0.930 . S
C653 N649 1.279 . S
C653 C651 1.358 . S
C653 H695 0.930 . S
C654 C655 1.348 1_565 S
C654 C656 1.356 . S
C654 O679 1.325 . S
C655 C654 1.348 1_545 S
C655 C657 1.353 . S
C655 H696 0.929 . S
C656 C654 1.356 . S
C656 C658 1.358 . S
C656 H697 0.930 . S
C657 C655 1.353 . S
C657 N659 1.314 . S
C657 H698 0.930 . S
C658 C656 1.358 . S
C658 N659 1.279 1_565 S
C658 H699 0.930 . S
N659 C657 1.314 . S
N659 C658 1.279 1_545 S
C660 C662 1.353 . S
C660 N663 1.314 . S
C660 H666 0.930 . S
C661 N663 1.279 . S
C661 C664 1.358 . S
C661 H667 0.930 . S
C662 C660 1.353 . S
C662 C665 1.348 . S
C662 H700 0.929 . S
N663 Li618 1.931 1_545 S
N663 C660 1.314 . S
N663 C661 1.279 . S
C664 C661 1.358 . S
C664 C665 1.356 . S
C664 H701 0.930 . S
C665 C662 1.348 . S
C665 C664 1.356 . S
H666 C660 0.930 . S
H667 C661 0.930 . S
C668 N669 1.314 . S
C668 C670 1.353 . S
C668 H674 0.930 . S
N669 Li619 1.990 . S
N669 C668 1.314 . S
N669 C672 1.279 . S
C670 C668 1.353 . S
C670 C673 1.348 . S
C670 H702 0.929 . S
C671 C672 1.358 . S
C671 C673 1.356 . S
C671 H703 0.930 . S
C672 N669 1.279 . S
C672 C671 1.358 . S
C672 H675 0.930 . S
C673 C670 1.348 . S
C673 C671 1.356 . S
H674 C668 0.930 . S
H675 C672 0.930 . S
O676 Li616 1.956 . S
O676 Li617 1.970 . S
O676 Li618 1.988 . S
O676 C620 1.325 . S
O677 Li616 1.970 . S
O677 Li617 1.956 . S
O677 Li619 1.961 . S
O677 C626 1.325 . S
O678 Li616 1.961 . S
O678 Li618 1.975 . S
O678 Li619 1.970 . S
O678 C648 1.325 1_565 S
O679 Li617 1.961 . S
O679 Li618 2.022 . S
O679 Li619 1.956 . S
O679 C654 1.325 . S
H680 C622 0.929 . S
H681 C623 0.930 . S
H682 C624 0.930 . S
H683 C625 0.930 . S
H684 C627 0.930 . S
H685 C629 0.929 . S
H686 C630 0.930 . S
H687 C631 0.930 . S
H688 C634 0.930 . S
H689 C637 0.929 . S
H690 C642 0.929 . S
H691 C643 0.930 . S
H692 C650 0.929 . S
H693 C651 0.930 . S
H694 C652 0.930 . S
H695 C653 0.930 . S
H696 C655 0.929 . S
H697 C656 0.930 . S
H698 C657 0.930 . S
H699 C658 0.930 . S
H700 C662 0.929 . S
H701 C664 0.930 . S
H702 C670 0.929 . S
H703 C671 0.930 . S
Li704 N721 1.990 . S
Li704 O764 1.956 . S
Li704 O765 1.970 . S
Li704 O766 1.961 . S
Li705 N729 1.990 . S
Li705 O764 1.970 . S
Li705 O765 1.956 . S
Li705 O767 1.961 . S
Li706 N751 1.990 1_455 S
Li706 O764 1.961 . S
Li706 O766 1.956 . S
Li706 O767 1.970 . S
Li707 N757 1.990 . S
Li707 O765 1.961 . S
Li707 O766 1.970 . S
Li707 O767 1.956 . S
C708 C710 1.348 . S
C708 C711 1.356 . S
C708 O764 1.325 . S
N709 C712 1.314 . S
N709 C713 1.279 . S
C710 C708 1.348 . S
C710 C712 1.353 . S
C710 H768 0.929 . S
C711 C708 1.356 . S
C711 C713 1.358 . S
C711 H769 0.930 . S
C712 N709 1.314 . S
C712 C710 1.353 . S
C712 H770 0.930 . S
C713 N709 1.279 . S
C713 C711 1.358 . S
C713 H771 0.930 . S
C714 C717 1.348 . S
C714 C718 1.356 . S
C714 O765 1.325 . S
C715 N716 1.279 . S
C715 C718 1.358 . S
C715 H772 0.930 . S
N716 C715 1.279 . S
N716 C719 1.314 . S
C717 C714 1.348 . S
C717 C719 1.353 . S
C717 H773 0.929 . S
C718 C714 1.356 . S
C718 C715 1.358 . S
C718 H774 0.930 . S
C719 N716 1.314 . S
C719 C717 1.353 . S
C719 H775 0.930 . S
C720 N721 1.314 . S
C720 C725 1.353 . S
C720 H726 0.930 . S
N721 Li704 1.990 . S
N721 C720 1.314 . S
N721 C723 1.279 . S
C722 C723 1.358 . S
C722 C724 1.356 . S
C722 H776 0.930 . S
C723 N721 1.279 . S
C723 C722 1.358 . S
C723 H727 0.930 . S
C724 C722 1.356 . S
C724 C725 1.348 . S
C725 C720 1.353 . S
C725 C724 1.348 . S
C725 H777 0.929 . S
H726 C720 0.930 . S
H727 C723 0.930 . S
C728 N729 1.314 . S
C728 C730 1.353 . S
C728 H734 0.930 . S
N729 Li705 1.990 . S
N729 C728 1.314 . S
N729 C732 1.279 . S
C730 C728 1.353 . S
C730 C733 1.348 . S
C730 H778 0.929 . S
C731 C732 1.358 . S
C731 C733 1.356 . S
C731 H779 0.930 . S
C732 N729 1.279 . S
C732 C731 1.358 . S
C732 H735 0.930 . S
C733 C730 1.348 . S
C733 C731 1.356 . S
H734 C728 0.930 . S
H735 C732 0.930 . S
C736 C738 1.348 . S
C736 C739 1.356 . S
C736 O766 1.325 1_655 S
N737 C740 1.314 . S
N737 C741 1.279 . S
C738 C736 1.348 . S
C738 C740 1.353 . S
C738 H780 0.929 . S
C739 C736 1.356 . S
C739 C741 1.358 . S
C739 H781 0.930 . S
C740 N737 1.314 . S
C740 C738 1.353 . S
C740 H782 0.930 . S
C741 N737 1.279 . S
C741 C739 1.358 . S
C741 H783 0.930 . S
C742 C743 1.348 1_455 S
C742 C744 1.356 . S
C742 O767 1.325 . S
C743 C742 1.348 1_655 S
C743 C745 1.353 . S
C743 H784 0.929 . S
C744 C742 1.356 . S
C744 C746 1.358 . S
C744 H785 0.930 . S
C745 C743 1.353 . S
C745 N747 1.306 1_655 S
C745 H786 0.930 . S
C746 C744 1.358 . S
C746 N747 1.316 . S
C746 H787 0.930 . S
N747 C745 1.306 1_455 S
N747 C746 1.316 . S
C748 C750 1.353 . S
C748 N751 1.314 . S
C748 H754 0.930 . S
C749 N751 1.279 . S
C749 C752 1.358 . S
C749 H755 0.930 . S
C750 C748 1.353 . S
C750 C753 1.348 . S
C750 H788 0.929 . S
N751 Li706 1.990 1_655 S
N751 C748 1.314 . S
N751 C749 1.279 . S
C752 C749 1.358 . S
C752 C753 1.356 . S
C752 H789 0.930 . S
C753 C750 1.348 . S
C753 C752 1.356 . S
H754 C748 0.930 . S
H755 C749 0.930 . S
C756 N757 1.314 . S
C756 C758 1.353 . S
C756 H762 0.930 . S
N757 Li707 1.990 . S
N757 C756 1.314 . S
N757 C760 1.279 . S
C758 C756 1.353 . S
C758 C761 1.348 . S
C758 H790 0.929 . S
C759 C760 1.358 . S
C759 C761 1.356 . S
C759 H791 0.930 . S
C760 N757 1.279 . S
C760 C759 1.358 . S
C760 H763 0.930 . S
C761 C758 1.348 . S
C761 C759 1.356 . S
H762 C756 0.930 . S
H763 C760 0.930 . S
O764 Li704 1.956 . S
O764 Li705 1.970 . S
O764 Li706 1.961 . S
O764 C708 1.325 . S
O765 Li704 1.970 . S
O765 Li705 1.956 . S
O765 Li707 1.961 . S
O765 C714 1.325 . S
O766 Li704 1.961 . S
O766 Li706 1.956 . S
O766 Li707 1.970 . S
O766 C736 1.325 1_455 S
O767 Li705 1.961 . S
O767 Li706 1.970 . S
O767 Li707 1.956 . S
O767 C742 1.325 . S
H768 C710 0.929 . S
H769 C711 0.930 . S
H770 C712 0.930 . S
H771 C713 0.930 . S
H772 C715 0.930 . S
H773 C717 0.929 . S
H774 C718 0.930 . S
H775 C719 0.930 . S
H776 C722 0.930 . S
H777 C725 0.929 . S
H778 C730 0.929 . S
H779 C731 0.930 . S
H780 C738 0.929 . S
H781 C739 0.930 . S
H782 C740 0.930 . S
H783 C741 0.930 . S
H784 C743 0.929 . S
H785 C744 0.930 . S
H786 C745 0.930 . S
H787 C746 0.930 . S
H788 C750 0.929 . S
H789 C752 0.930 . S
H790 C758 0.929 . S
H791 C759 0.930 . S
Li792 N809 1.990 1_565 S
Li792 O852 1.956 . S
Li792 O853 1.970 . S
Li792 O854 1.961 . S
Li793 N817 1.990 . S
Li793 O852 1.970 . S
Li793 O853 1.956 . S
Li793 O855 1.961 . S
Li794 N839 1.990 . S
Li794 O852 1.961 . S
Li794 O854 1.956 . S
Li794 O855 1.970 . S
Li795 N845 1.990 . S
Li795 O853 1.961 . S
Li795 O854 1.970 . S
Li795 O855 1.956 . S
C796 C798 1.348 . S
C796 C799 1.356 . S
C796 O852 1.325 . S
N797 C800 1.314 . S
N797 C801 1.279 . S
C798 C796 1.348 . S
C798 C800 1.353 . S
C798 H856 0.929 . S
C799 C796 1.356 . S
C799 C801 1.358 . S
C799 H857 0.930 . S
C800 N797 1.314 . S
C800 C798 1.353 . S
C800 H858 0.930 . S
C801 N797 1.279 . S
C801 C799 1.358 . S
C801 H859 0.930 . S
C802 C805 1.348 1_565 S
C802 C806 1.356 . S
C802 O853 1.325 . S
C803 N804 1.308 . S
C803 C806 1.358 . S
C803 H860 0.930 . S
N804 C803 1.308 . S
N804 C807 1.320 1_565 S
C805 C802 1.348 1_545 S
C805 C807 1.353 . S
C805 H861 0.929 . S
C806 C802 1.356 . S
C806 C803 1.358 . S
C806 H862 0.930 . S
C807 N804 1.320 1_545 S
C807 C805 1.353 . S
C807 H863 0.930 . S
C808 N809 1.314 . S
C808 C813 1.353 . S
C808 H814 0.930 . S
N809 Li792 1.990 1_545 S
N809 C808 1.314 . S
N809 C811 1.279 . S
C810 C811 1.358 . S
C810 C812 1.356 . S
C810 H864 0.930 . S
C811 N809 1.279 . S
C811 C810 1.358 . S
C811 H815 0.930 . S
C812 C810 1.356 . S
C812 C813 1.348 . S
C813 C808 1.353 . S
C813 C812 1.348 . S
C813 H865 0.929 . S
H814 C808 0.930 . S
H815 C811 0.930 . S
C816 N817 1.314 . S
C816 C818 1.353 . S
C816 H822 0.930 . S
N817 Li793 1.990 . S
N817 C816 1.314 . S
N817 C820 1.279 . S
C818 C816 1.353 . S
C818 C821 1.348 . S
C818 H866 0.929 . S
C819 C820 1.358 . S
C819 C821 1.356 . S
C819 H867 0.930 . S
C820 N817 1.279 . S
C820 C819 1.358 . S
C820 H823 0.930 . S
C821 C818 1.348 . S
C821 C819 1.356 . S
H822 C816 0.930 . S
H823 C820 0.930 . S
C824 C826 1.348 . S
C824 C827 1.356 . S
C824 O854 1.325 1_545 S
N825 C828 1.314 . S
N825 C829 1.279 . S
C826 C824 1.348 . S
C826 C828 1.353 . S
C826 H868 0.929 1_545 S
C827 C824 1.356 . S
C827 C829 1.358 . S
C827 H869 0.930 . S
C828 N825 1.314 . S
C828 C826 1.353 . S
C828 H870 0.930 . S
C829 N825 1.279 . S
C829 C827 1.358 . S
C829 H871 0.930 . S
C830 C831 1.348 . S
C830 C832 1.356 . S
C830 O855 1.325 . S
C831 C830 1.348 . S
C831 C833 1.353 . S
C831 H872 0.929 . S
C832 C830 1.356 . S
C832 C834 1.358 . S
C832 H873 0.930 . S
C833 C831 1.353 . S
C833 N835 1.314 . S
C833 H874 0.930 . S
C834 C832 1.358 . S
C834 N835 1.279 . S
C834 H875 0.930 . S
N835 C833 1.314 . S
N835 C834 1.279 . S
C836 C838 1.353 . S
C836 N839 1.314 . S
C836 H842 0.930 . S
C837 N839 1.279 . S
C837 C840 1.358 . S
C837 H843 0.930 . S
C838 C836 1.353 . S
C838 C841 1.348 . S
C838 H876 0.929 . S
N839 Li794 1.990 . S
N839 C836 1.314 . S
N839 C837 1.279 . S
C840 C837 1.358 . S
C840 C841 1.356 . S
C840 H877 0.930 . S
C841 C838 1.348 . S
C841 C840 1.356 . S
H842 C836 0.930 . S
H843 C837 0.930 . S
C844 N845 1.314 . S
C844 C846 1.353 . S
C844 H850 0.930 1_565 S
N845 Li795 1.990 . S
N845 C844 1.314 . S
N845 C848 1.279 . S
C846 C844 1.353 . S
C846 C849 1.348 . S
C846 H878 0.929 1_565 S
C847 C848 1.358 . S
C847 C849 1.356 . S
C847 H879 0.930 . S
C848 N845 1.279 . S
C848 C847 1.358 . S
C848 H851 0.930 . S
C849 C846 1.348 . S
C849 C847 1.356 . S
H850 C844 0.930 1_545 S
H851 C848 0.930 . S
O852 Li792 1.956 . S
O852 Li793 1.970 . S
O852 Li794 1.961 . S
O852 C796 1.325 . S
O853 Li792 1.970 . S
O853 Li793 1.956 . S
O853 Li795 1.961 . S
O853 C802 1.325 . S
O854 Li792 1.961 . S
O854 Li794 1.956 . S
O854 Li795 1.970 . S
O854 C824 1.325 1_565 S
O855 Li793 1.961 . S
O855 Li794 1.970 . S
O855 Li795 1.956 . S
O855 C830 1.325 . S
H856 C798 0.929 . S
H857 C799 0.930 . S
H858 C800 0.930 . S
H859 C801 0.930 . S
H860 C803 0.930 . S
H861 C805 0.929 . S
H862 C806 0.930 . S
H863 C807 0.930 . S
H864 C810 0.930 . S
H865 C813 0.929 . S
H866 C818 0.929 . S
H867 C819 0.930 . S
H868 C826 0.929 1_565 S
H869 C827 0.930 . S
H870 C828 0.930 . S
H871 C829 0.930 . S
H872 C831 0.929 . S
H873 C832 0.930 . S
H874 C833 0.930 . S
H875 C834 0.930 . S
H876 C838 0.929 . S
H877 C840 0.930 . S
H878 C846 0.929 1_545 S
H879 C847 0.930 . S
Li880 N897 1.990 . S
Li880 O940 1.956 . S
Li880 O941 1.970 . S
Li880 O942 1.961 . S
Li881 N905 1.990 1_455 S
Li881 O940 1.970 . S
Li881 O941 1.956 . S
Li881 O943 1.961 . S
Li882 N927 1.990 . S
Li882 O940 1.961 . S
Li882 O942 1.956 . S
Li882 O943 1.970 . S
Li883 N933 1.990 . S
Li883 O941 1.961 . S
Li883 O942 1.970 . S
Li883 O943 1.956 . S
C884 C886 1.348 1_455 S
C884 C887 1.356 . S
C884 O940 1.325 . S
N885 C888 1.300 1_455 S
N885 C889 1.292 . S
C886 C884 1.348 1_655 S
C886 C888 1.353 . S
C886 H944 0.929 . S
C887 C884 1.356 . S
C887 C889 1.358 . S
C887 H945 0.930 . S
C888 N885 1.300 1_655 S
C888 C886 1.353 . S
C888 H946 0.930 . S
C889 N885 1.292 . S
C889 C887 1.358 . S
C889 H947 0.930 . S
C890 C893 1.348 . S
C890 C894 1.356 . S
C890 O941 1.325 . S
C891 N892 1.279 . S
C891 C894 1.358 . S
C891 H948 0.930 . S
N892 C891 1.279 . S
N892 C895 1.314 . S
C893 C890 1.348 . S
C893 C895 1.353 . S
C893 H949 0.929 . S
C894 C890 1.356 . S
C894 C891 1.358 . S
C894 H950 0.930 . S
C895 N892 1.314 . S
C895 C893 1.353 . S
C895 H951 0.930 . S
C896 N897 1.314 . S
C896 C901 1.353 . S
C896 H902 0.930 . S
N897 Li880 1.990 . S
N897 C896 1.314 . S
N897 C899 1.279 . S
C898 C899 1.358 . S
C898 C900 1.356 . S
C898 H952 0.930 . S
C899 N897 1.279 . S
C899 C898 1.358 . S
C899 H903 0.930 . S
C900 C898 1.356 . S
C900 C901 1.348 . S
C901 C896 1.353 . S
C901 C900 1.348 . S
C901 H953 0.929 . S
H902 C896 0.930 . S
H903 C899 0.930 . S
C904 N905 1.314 . S
C904 C906 1.353 . S
C904 H910 0.930 . S
N905 Li881 1.990 1_655 S
N905 C904 1.314 . S
N905 C908 1.279 . S
C906 C904 1.353 . S
C906 C909 1.348 . S
C906 H954 0.929 . S
C907 C908 1.358 . S
C907 C909 1.356 . S
C907 H955 0.930 . S
C908 N905 1.279 . S
C908 C907 1.358 . S
C908 H911 0.930 . S
C909 C906 1.348 . S
C909 C907 1.356 . S
H910 C904 0.930 . S
H911 C908 0.930 . S
C912 C914 1.348 . S
C912 C915 1.356 . S
C912 O942 1.325 . S
N913 C916 1.314 . S
N913 C917 1.279 . S
C914 C912 1.348 . S
C914 C916 1.353 . S
C914 H956 0.929 . S
C915 C912 1.356 . S
C915 C917 1.358 . S
C915 H957 0.930 . S
C916 N913 1.314 . S
C916 C914 1.353 . S
C916 H958 0.930 . S
C917 N913 1.279 . S
C917 C915 1.358 . S
C917 H959 0.930 . S
C918 C919 1.348 . S
C918 C920 1.356 . S
C918 O943 1.325 1_655 S
C919 C918 1.348 . S
C919 C921 1.353 . S
C919 H960 0.929 1_655 S
C920 C918 1.356 . S
C920 C922 1.358 . S
C920 H961 0.930 . S
C921 C919 1.353 . S
C921 N923 1.314 . S
C921 H962 0.930 . S
C922 C920 1.358 . S
C922 N923 1.279 . S
C922 H963 0.930 . S
N923 C921 1.314 . S
N923 C922 1.279 . S
C924 C926 1.353 . S
C924 N927 1.314 . S
C924 H930 0.930 1_455 S
C925 N927 1.279 . S
C925 C928 1.358 . S
C925 H931 0.930 . S
C926 C924 1.353 . S
C926 C929 1.348 . S
C926 H964 0.929 1_455 S
N927 Li882 1.990 . S
N927 C924 1.314 . S
N927 C925 1.279 . S
C928 C925 1.358 . S
C928 C929 1.356 . S
C928 H965 0.930 . S
C929 C926 1.348 . S
C929 C928 1.356 . S
H930 C924 0.930 1_655 S
H931 C925 0.930 . S
C932 N933 1.314 . S
C932 C934 1.353 . S
C932 H938 0.930 . S
N933 Li883 1.990 . S
N933 C932 1.314 . S
N933 C936 1.279 . S
C934 C932 1.353 . S
C934 C937 1.348 . S
C934 H966 0.929 . S
C935 C936 1.358 . S
C935 C937 1.356 . S
C935 H967 0.930 . S
C936 N933 1.279 . S
C936 C935 1.358 . S
C936 H939 0.930 . S
C937 C934 1.348 . S
C937 C935 1.356 . S
H938 C932 0.930 . S
H939 C936 0.930 . S
O940 Li880 1.956 . S
O940 Li881 1.970 . S
O940 Li882 1.961 . S
O940 C884 1.325 . S
O941 Li880 1.970 . S
O941 Li881 1.956 . S
O941 Li883 1.961 . S
O941 C890 1.325 . S
O942 Li880 1.961 . S
O942 Li882 1.956 . S
O942 Li883 1.970 . S
O942 C912 1.325 . S
O943 Li881 1.961 . S
O943 Li882 1.970 . S
O943 Li883 1.956 . S
O943 C918 1.325 1_455 S
H944 C886 0.929 . S
H945 C887 0.930 . S
H946 C888 0.930 . S
H947 C889 0.930 . S
H948 C891 0.930 . S
H949 C893 0.929 . S
H950 C894 0.930 . S
H951 C895 0.930 . S
H952 C898 0.930 . S
H953 C901 0.929 . S
H954 C906 0.929 . S
H955 C907 0.930 . S
H956 C914 0.929 . S
H957 C915 0.930 . S
H958 C916 0.930 . S
H959 C917 0.930 . S
H960 C919 0.929 1_455 S
H961 C920 0.930 . S
H962 C921 0.930 . S
H963 C922 0.930 . S
H964 C926 0.929 1_655 S
H965 C928 0.930 . S
H966 C934 0.929 . S
H967 C935 0.930 . S
Li968 N985 1.990 . S
Li968 O1028 1.956 . S
Li968 O1029 1.970 . S
Li968 O1030 1.961 . S
Li969 N993 1.990 . S
Li969 O1028 1.970 . S
Li969 O1029 1.956 . S
Li969 O1031 1.961 . S
Li970 N1015 1.990 . S
Li970 O1028 1.961 . S
Li970 O1030 1.956 . S
Li970 O1031 1.970 . S
Li971 N1021 1.990 . S
Li971 O1029 1.961 . S
Li971 O1030 1.970 . S
Li971 O1031 1.956 . S
C972 C974 1.348 . S
C972 C975 1.356 . S
C972 O1028 1.325 . S
N973 C976 1.314 . S
N973 C977 1.279 . S
C974 C972 1.348 . S
C974 C976 1.353 . S
C974 H1032 0.929 . S
C975 C972 1.356 . S
C975 C977 1.358 . S
C975 H1033 0.930 . S
C976 N973 1.314 . S
C976 C974 1.353 . S
C976 H1034 0.930 . S
C977 N973 1.279 . S
C977 C975 1.358 . S
C977 H1035 0.930 . S
C978 C981 1.348 . S
C978 C982 1.356 . S
C978 O1029 1.325 . S
C979 N980 1.279 . S
C979 C982 1.358 . S
C979 H1036 0.930 . S
N980 C979 1.279 . S
N980 C983 1.314 . S
C981 C978 1.348 . S
C981 C983 1.353 . S
C981 H1037 0.929 . S
C982 C978 1.356 . S
C982 C979 1.358 . S
C982 H1038 0.930 . S
C983 N980 1.314 . S
C983 C981 1.353 . S
C983 H1039 0.930 . S
C984 N985 1.314 . S
C984 C989 1.353 . S
C984 H990 0.930 . S
N985 Li968 1.990 . S
N985 C984 1.314 . S
N985 C987 1.279 . S
C986 C987 1.358 . S
C986 C988 1.356 . S
C986 H1040 0.930 . S
C987 N985 1.279 . S
C987 C986 1.358 . S
C987 H991 0.930 . S
C988 C986 1.356 . S
C988 C989 1.348 . S
C989 C984 1.353 . S
C989 C988 1.348 . S
C989 H1041 0.929 . S
H990 C984 0.930 . S
H991 C987 0.930 . S
C992 N993 1.314 . S
C992 C994 1.353 . S
C992 H998 0.930 . S
N993 Li969 1.990 . S
N993 C992 1.314 . S
N993 C996 1.279 . S
C994 C992 1.353 . S
C994 C997 1.348 . S
C994 H1042 0.929 . S
C995 C996 1.358 . S
C995 C997 1.356 . S
C995 H1043 0.930 . S
C996 N993 1.279 . S
C996 C995 1.358 . S
C996 H999 0.930 . S
C997 C994 1.348 . S
C997 C995 1.356 . S
H998 C992 0.930 . S
H999 C996 0.930 . S
C1000 C1002 1.348 . S
C1000 C1003 1.356 . S
C1000 O1030 1.325 . S
N1001 C1004 1.314 . S
N1001 C1005 1.279 . S
C1002 C1000 1.348 . S
C1002 C1004 1.353 . S
C1002 H1044 0.929 . S
C1003 C1000 1.356 . S
C1003 C1005 1.358 . S
C1003 H1045 0.930 . S
C1004 N1001 1.314 . S
C1004 C1002 1.353 . S
C1004 H1046 0.930 . S
C1005 N1001 1.279 . S
C1005 C1003 1.358 . S
C1005 H1047 0.930 . S
C1006 C1007 1.348 . S
C1006 C1008 1.356 . S
C1006 O1031 1.325 . S
C1007 C1006 1.348 . S
C1007 C1009 1.353 . S
C1007 H1048 0.929 . S
C1008 C1006 1.356 . S
C1008 C1010 1.358 . S
C1008 H1049 0.930 . S
C1009 C1007 1.353 . S
C1009 N1011 1.314 . S
C1009 H1050 0.930 . S
C1010 C1008 1.358 . S
C1010 N1011 1.279 . S
C1010 H1051 0.930 . S
N1011 C1009 1.314 . S
N1011 C1010 1.279 . S
C1012 C1014 1.353 . S
C1012 N1015 1.314 . S
C1012 H1018 0.930 . S
C1013 N1015 1.279 . S
C1013 C1016 1.358 . S
C1013 H1019 0.930 . S
C1014 C1012 1.353 . S
C1014 C1017 1.348 . S
C1014 H1052 0.929 . S
N1015 Li970 1.990 . S
N1015 C1012 1.314 . S
N1015 C1013 1.279 . S
C1016 C1013 1.358 . S
C1016 C1017 1.356 . S
C1016 H1053 0.930 . S
C1017 C1014 1.348 . S
C1017 C1016 1.356 . S
H1018 C1012 0.930 . S
H1019 C1013 0.930 . S
C1020 N1021 1.314 . S
C1020 C1022 1.353 . S
C1020 H1026 0.930 . S
N1021 Li971 1.990 . S
N1021 C1020 1.314 . S
N1021 C1024 1.279 . S
C1022 C1020 1.353 . S
C1022 C1025 1.348 . S
C1022 H1054 0.929 . S
C1023 C1024 1.358 . S
C1023 C1025 1.356 . S
C1023 H1055 0.930 . S
C1024 N1021 1.279 . S
C1024 C1023 1.358 . S
C1024 H1027 0.930 . S
C1025 C1022 1.348 . S
C1025 C1023 1.356 . S
H1026 C1020 0.930 . S
H1027 C1024 0.930 . S
O1028 Li968 1.956 . S
O1028 Li969 1.970 . S
O1028 Li970 1.961 . S
O1028 C972 1.325 . S
O1029 Li968 1.970 . S
O1029 Li969 1.956 . S
O1029 Li971 1.961 . S
O1029 C978 1.325 . S
O1030 Li968 1.961 . S
O1030 Li970 1.956 . S
O1030 Li971 1.970 . S
O1030 C1000 1.325 . S
O1031 Li969 1.961 . S
O1031 Li970 1.970 . S
O1031 Li971 1.956 . S
O1031 C1006 1.325 . S
H1032 C974 0.929 . S
H1033 C975 0.930 . S
H1034 C976 0.930 . S
H1035 C977 0.930 . S
H1036 C979 0.930 . S
H1037 C981 0.929 . S
H1038 C982 0.930 . S
H1039 C983 0.930 . S
H1040 C986 0.930 . S
H1041 C989 0.929 . S
H1042 C994 0.929 . S
H1043 C995 0.930 . S
H1044 C1002 0.929 . S
H1045 C1003 0.930 . S
H1046 C1004 0.930 . S
H1047 C1005 0.930 . S
H1048 C1007 0.929 . S
H1049 C1008 0.930 . S
H1050 C1009 0.930 . S
H1051 C1010 0.930 . S
H1052 C1014 0.929 . S
H1053 C1016 0.930 . S
H1054 C1022 0.929 . S
H1055 C1023 0.930 . S
Li1056 N1073 1.990 1_545 S
Li1056 O1116 1.956 . S
Li1056 O1117 1.970 . S
Li1056 O1118 1.961 . S
Li1057 N1081 1.990 . S
Li1057 O1116 1.970 . S
Li1057 O1117 1.956 . S
Li1057 O1119 1.961 . S
Li1058 N1103 1.990 . S
Li1058 O1116 1.961 . S
Li1058 O1118 1.956 . S
Li1058 O1119 1.970 . S
Li1059 N1109 1.990 . S
Li1059 O1117 1.961 . S
Li1059 O1118 1.970 . S
Li1059 O1119 1.956 . S
C1060 C1062 1.348 . S
C1060 C1063 1.356 . S
C1060 O1116 1.325 1_565 S
N1061 C1064 1.314 . S
N1061 C1065 1.279 . S
C1062 C1060 1.348 . S
C1062 C1064 1.353 . S
C1062 H1120 0.929 . S
C1063 C1060 1.356 . S
C1063 C1065 1.358 . S
C1063 H1121 0.930 . S
C1064 N1061 1.314 . S
C1064 C1062 1.353 . S
C1064 H1122 0.930 . S
C1065 N1061 1.279 . S
C1065 C1063 1.358 . S
C1065 H1123 0.930 . S
C1066 C1069 1.348 1_545 S
C1066 C1070 1.356 . S
C1066 O1117 1.325 . S
C1067 N1068 1.316 . S
C1067 C1070 1.358 . S
C1067 H1124 0.930 . S
N1068 C1067 1.316 . S
N1068 C1071 1.306 1_545 S
C1069 C1066 1.348 1_565 S
C1069 C1071 1.353 . S
C1069 H1125 0.929 . S
C1070 C1066 1.356 . S
C1070 C1067 1.358 . S
C1070 H1126 0.930 . S
C1071 N1068 1.306 1_565 S
C1071 C1069 1.353 . S
C1071 H1127 0.930 . S
C1072 N1073 1.314 . S
C1072 C1077 1.353 . S
C1072 H1078 0.930 . S
N1073 Li1056 1.990 1_565 S
N1073 C1072 1.314 . S
N1073 C1075 1.279 . S
C1074 C1075 1.358 . S
C1074 C1076 1.356 . S
C1074 H1128 0.930 . S
C1075 N1073 1.279 . S
C1075 C1074 1.358 . S
C1075 H1079 0.930 . S
C1076 C1074 1.356 . S
C1076 C1077 1.348 . S
C1077 C1072 1.353 . S
C1077 C1076 1.348 . S
C1077 H1129 0.929 . S
H1078 C1072 0.930 . S
H1079 C1075 0.930 . S
C1080 N1081 1.314 . S
C1080 C1082 1.353 . S
C1080 H1086 0.930 . S
N1081 Li1057 1.990 . S
N1081 C1080 1.314 . S
N1081 C1084 1.279 . S
C1082 C1080 1.353 . S
C1082 C1085 1.348 . S
C1082 H1130 0.929 . S
C1083 C1084 1.358 . S
C1083 C1085 1.356 . S
C1083 H1131 0.930 . S
C1084 N1081 1.279 . S
C1084 C1083 1.358 . S
C1084 H1087 0.930 . S
C1085 C1082 1.348 . S
C1085 C1083 1.356 . S
H1086 C1080 0.930 . S
H1087 C1084 0.930 . S
C1088 C1090 1.348 . S
C1088 C1091 1.356 . S
C1088 O1118 1.325 . S
N1089 C1092 1.314 . S
N1089 C1093 1.279 . S
C1090 C1088 1.348 . S
C1090 C1092 1.353 . S
C1090 H1132 0.929 . S
C1091 C1088 1.356 . S
C1091 C1093 1.358 . S
C1091 H1133 0.930 . S
C1092 N1089 1.314 . S
C1092 C1090 1.353 . S
C1092 H1134 0.930 . S
C1093 N1089 1.279 . S
C1093 C1091 1.358 . S
C1093 H1135 0.930 . S
C1094 C1095 1.348 . S
C1094 C1096 1.356 . S
C1094 O1119 1.325 . S
C1095 C1094 1.348 . S
C1095 C1097 1.353 . S
C1095 H1136 0.929 . S
C1096 C1094 1.356 . S
C1096 C1098 1.358 . S
C1096 H1137 0.930 . S
C1097 C1095 1.353 . S
C1097 N1099 1.314 . S
C1097 H1138 0.930 . S
C1098 C1096 1.358 . S
C1098 N1099 1.279 . S
C1098 H1139 0.930 . S
N1099 C1097 1.314 . S
N1099 C1098 1.279 . S
C1100 C1102 1.353 . S
C1100 N1103 1.314 . S
C1100 H1106 0.930 . S
C1101 N1103 1.279 . S
C1101 C1104 1.358 . S
C1101 H1107 0.930 . S
C1102 C1100 1.353 . S
C1102 C1105 1.348 . S
C1102 H1140 0.929 . S
N1103 Li1058 1.990 . S
N1103 C1100 1.314 . S
N1103 C1101 1.279 . S
C1104 C1101 1.358 . S
C1104 C1105 1.356 . S
C1104 H1141 0.930 . S
C1105 C1102 1.348 . S
C1105 C1104 1.356 . S
H1106 C1100 0.930 . S
H1107 C1101 0.930 . S
C1108 N1109 1.314 . S
C1108 C1110 1.353 . S
C1108 H1114 0.930 . S
N1109 Li1059 1.990 . S
N1109 C1108 1.314 . S
N1109 C1112 1.279 . S
C1110 C1108 1.353 . S
C1110 C1113 1.348 . S
C1110 H1142 0.929 . S
C1111 C1112 1.358 . S
C1111 C1113 1.356 . S
C1111 H1143 0.930 . S
C1112 N1109 1.279 . S
C1112 C1111 1.358 . S
C1112 H1115 0.930 . S
C1113 C1110 1.348 . S
C1113 C1111 1.356 . S
H1114 C1108 0.930 . S
H1115 C1112 0.930 . S
O1116 Li1056 1.956 . S
O1116 Li1057 1.970 . S
O1116 Li1058 1.961 . S
O1116 C1060 1.325 1_545 S
O1117 Li1056 1.970 . S
O1117 Li1057 1.956 . S
O1117 Li1059 1.961 . S
O1117 C1066 1.325 . S
O1118 Li1056 1.961 . S
O1118 Li1058 1.956 . S
O1118 Li1059 1.970 . S
O1118 C1088 1.325 . S
O1119 Li1057 1.961 . S
O1119 Li1058 1.970 . S
O1119 Li1059 1.956 . S
O1119 C1094 1.325 . S
H1120 C1062 0.929 . S
H1121 C1063 0.930 . S
H1122 C1064 0.930 . S
H1123 C1065 0.930 . S
H1124 C1067 0.930 . S
H1125 C1069 0.929 . S
H1126 C1070 0.930 . S
H1127 C1071 0.930 . S
H1128 C1074 0.930 . S
H1129 C1077 0.929 . S
H1130 C1082 0.929 . S
H1131 C1083 0.930 . S
H1132 C1090 0.929 . S
H1133 C1091 0.930 . S
H1134 C1092 0.930 . S
H1135 C1093 0.930 . S
H1136 C1095 0.929 . S
H1137 C1096 0.930 . S
H1138 C1097 0.930 . S
H1139 C1098 0.930 . S
H1140 C1102 0.929 . S
H1141 C1104 0.930 . S
H1142 C1110 0.929 . S
H1143 C1111 0.930 . S
Li1144 N1161 1.931 1_655 S
Li1144 O1204 1.975 . S
Li1144 O1205 2.022 . S
Li1144 O1206 1.988 . S
Li1145 N1169 1.990 . S
Li1145 O1204 1.970 . S
Li1145 O1205 1.956 . S
Li1145 O1207 1.961 . S
Li1146 N1191 1.990 . S
Li1146 O1204 1.961 . S
Li1146 O1206 1.956 . S
Li1146 O1207 1.970 . S
Li1147 N1197 1.990 . S
Li1147 O1205 1.961 . S
Li1147 O1206 1.970 . S
Li1147 O1207 1.956 . S
C1148 C1150 1.348 . S
C1148 C1151 1.356 . S
C1148 O1204 1.325 1_455 S
N1149 C1152 1.314 . S
N1149 C1153 1.279 . S
C1150 C1148 1.348 . S
C1150 C1152 1.353 . S
C1150 H1208 0.929 . S
C1151 C1148 1.356 . S
C1151 C1153 1.358 . S
C1151 H1209 0.930 . S
C1152 N1149 1.314 . S
C1152 C1150 1.353 . S
C1152 H1210 0.930 . S
C1153 N1149 1.279 . S
C1153 C1151 1.358 . S
C1153 H1211 0.930 . S
C1154 C1157 1.348 1_655 S
C1154 C1158 1.356 . S
C1154 O1205 1.325 . S
C1155 N1156 1.279 1_655 S
C1155 C1158 1.358 . S
C1155 H1212 0.930 . S
N1156 C1155 1.279 1_455 S
N1156 C1159 1.314 . S
C1157 C1154 1.348 1_455 S
C1157 C1159 1.353 . S
C1157 H1213 0.929 . S
C1158 C1154 1.356 . S
C1158 C1155 1.358 . S
C1158 H1214 0.930 . S
C1159 N1156 1.314 . S
C1159 C1157 1.353 . S
C1159 H1215 0.930 . S
C1160 N1161 1.314 . S
C1160 C1165 1.353 . S
C1160 H1166 0.930 . S
N1161 Li1144 1.931 1_455 S
N1161 C1160 1.314 . S
N1161 C1163 1.279 . S
C1162 C1163 1.358 . S
C1162 C1164 1.356 . S
C1162 H1216 0.930 . S
C1163 N1161 1.279 . S
C1163 C1162 1.358 . S
C1163 H1167 0.930 . S
C1164 C1162 1.356 . S
C1164 C1165 1.348 . S
C1165 C1160 1.353 . S
C1165 C1164 1.348 . S
C1165 H1217 0.929 . S
H1166 C1160 0.930 . S
H1167 C1163 0.930 . S
C1168 N1169 1.314 . S
C1168 C1170 1.353 . S
C1168 H1174 0.930 . S
N1169 Li1145 1.990 . S
N1169 C1168 1.314 . S
N1169 C1172 1.279 . S
C1170 C1168 1.353 . S
C1170 C1173 1.348 . S
C1170 H1218 0.929 . S
C1171 C1172 1.358 . S
C1171 C1173 1.356 . S
C1171 H1219 0.930 . S
C1172 N1169 1.279 . S
C1172 C1171 1.358 . S
C1172 H1175 0.930 . S
C1173 C1170 1.348 . S
C1173 C1171 1.356 . S
H1174 C1168 0.930 . S
H1175 C1172 0.930 . S
C1176 C1178 1.348 . S
C1176 C1179 1.356 . S
C1176 O1206 1.325 . S
N1177 C1180 1.314 . S
N1177 C1181 1.279 . S
C1178 C1176 1.348 . S
C1178 C1180 1.353 . S
C1178 H1220 0.929 . S
C1179 C1176 1.356 . S
C1179 C1181 1.358 . S
C1179 H1221 0.930 . S
C1180 N1177 1.314 . S
C1180 C1178 1.353 . S
C1180 H1222 0.930 . S
C1181 N1177 1.279 . S
C1181 C1179 1.358 . S
C1181 H1223 0.930 . S
C1182 C1183 1.348 . S
C1182 C1184 1.356 . S
C1182 O1207 1.325 . S
C1183 C1182 1.348 . S
C1183 C1185 1.353 . S
C1183 H1224 0.929 . S
C1184 C1182 1.356 . S
C1184 C1186 1.358 . S
C1184 H1225 0.930 . S
C1185 C1183 1.353 . S
C1185 N1187 1.314 . S
C1185 H1226 0.930 . S
C1186 C1184 1.358 . S
C1186 N1187 1.279 . S
C1186 H1227 0.930 . S
N1187 C1185 1.314 . S
N1187 C1186 1.279 . S
C1188 C1190 1.353 . S
C1188 N1191 1.314 . S
C1188 H1194 0.930 . S
C1189 N1191 1.279 . S
C1189 C1192 1.358 . S
C1189 H1195 0.930 . S
C1190 C1188 1.353 . S
C1190 C1193 1.348 . S
C1190 H1228 0.929 . S
N1191 Li1146 1.990 . S
N1191 C1188 1.314 . S
N1191 C1189 1.279 . S
C1192 C1189 1.358 . S
C1192 C1193 1.356 . S
C1192 H1229 0.930 . S
C1193 C1190 1.348 . S
C1193 C1192 1.356 . S
H1194 C1188 0.930 . S
H1195 C1189 0.930 . S
C1196 N1197 1.314 . S
C1196 C1198 1.353 . S
C1196 H1202 0.930 . S
N1197 Li1147 1.990 . S
N1197 C1196 1.314 . S
N1197 C1200 1.279 . S
C1198 C1196 1.353 . S
C1198 C1201 1.348 . S
C1198 H1230 0.929 . S
C1199 C1200 1.358 . S
C1199 C1201 1.356 . S
C1199 H1231 0.930 . S
C1200 N1197 1.279 . S
C1200 C1199 1.358 . S
C1200 H1203 0.930 . S
C1201 C1198 1.348 . S
C1201 C1199 1.356 . S
H1202 C1196 0.930 . S
H1203 C1200 0.930 . S
O1204 Li1144 1.975 . S
O1204 Li1145 1.970 . S
O1204 Li1146 1.961 . S
O1204 C1148 1.325 1_655 S
O1205 Li1144 2.022 . S
O1205 Li1145 1.956 . S
O1205 Li1147 1.961 . S
O1205 C1154 1.325 . S
O1206 Li1144 1.988 . S
O1206 Li1146 1.956 . S
O1206 Li1147 1.970 . S
O1206 C1176 1.325 . S
O1207 Li1145 1.961 . S
O1207 Li1146 1.970 . S
O1207 Li1147 1.956 . S
O1207 C1182 1.325 . S
H1208 C1150 0.929 . S
H1209 C1151 0.930 . S
H1210 C1152 0.930 . S
H1211 C1153 0.930 . S
H1212 C1155 0.930 . S
H1213 C1157 0.929 . S
H1214 C1158 0.930 . S
H1215 C1159 0.930 . S
H1216 C1162 0.930 . S
H1217 C1165 0.929 . S
H1218 C1170 0.929 . S
H1219 C1171 0.930 . S
H1220 C1178 0.929 . S
H1221 C1179 0.930 . S
H1222 C1180 0.930 . S
H1223 C1181 0.930 . S
H1224 C1183 0.929 . S
H1225 C1184 0.930 . S
H1226 C1185 0.930 . S
H1227 C1186 0.930 . S
H1228 C1190 0.929 . S
H1229 C1192 0.930 . S
H1230 C1198 0.929 . S
H1231 C1199 0.930 . S
Li1232 N1249 1.990 . S
Li1232 O1292 1.956 . S
Li1232 O1293 1.970 . S
Li1232 O1294 1.961 . S
Li1233 N1257 1.990 . S
Li1233 O1292 1.970 . S
Li1233 O1293 1.956 . S
Li1233 O1295 1.961 . S
Li1234 N1279 1.990 . S
Li1234 O1292 1.961 . S
Li1234 O1294 1.956 . S
Li1234 O1295 1.970 . S
Li1235 N1285 1.990 . S
Li1235 O1293 1.961 . S
Li1235 O1294 1.970 . S
Li1235 O1295 1.956 . S
C1236 C1238 1.348 . S
C1236 C1239 1.356 . S
C1236 O1292 1.325 . S
N1237 C1240 1.314 . S
N1237 C1241 1.279 . S
C1238 C1236 1.348 . S
C1238 C1240 1.353 . S
C1238 H1296 0.929 . S
C1239 C1236 1.356 . S
C1239 C1241 1.358 . S
C1239 H1297 0.930 . S
C1240 N1237 1.314 . S
C1240 C1238 1.353 . S
C1240 H1298 0.930 . S
C1241 N1237 1.279 . S
C1241 C1239 1.358 . S
C1241 H1299 0.930 . S
C1242 C1245 1.348 . S
C1242 C1246 1.356 . S
C1242 O1293 1.325 . S
C1243 N1244 1.279 . S
C1243 C1246 1.358 . S
C1243 H1300 0.930 . S
N1244 C1243 1.279 . S
N1244 C1247 1.314 . S
C1245 C1242 1.348 . S
C1245 C1247 1.353 . S
C1245 H1301 0.929 . S
C1246 C1242 1.356 . S
C1246 C1243 1.358 . S
C1246 H1302 0.930 . S
C1247 N1244 1.314 . S
C1247 C1245 1.353 . S
C1247 H1303 0.930 . S
C1248 N1249 1.314 . S
C1248 C1253 1.353 . S
C1248 H1254 0.930 . S
N1249 Li1232 1.990 . S
N1249 C1248 1.314 . S
N1249 C1251 1.279 . S
C1250 C1251 1.358 . S
C1250 C1252 1.356 . S
C1250 H1304 0.930 . S
C1251 N1249 1.279 . S
C1251 C1250 1.358 . S
C1251 H1255 0.930 . S
C1252 C1250 1.356 . S
C1252 C1253 1.348 . S
C1253 C1248 1.353 . S
C1253 C1252 1.348 . S
C1253 H1305 0.929 . S
H1254 C1248 0.930 . S
H1255 C1251 0.930 . S
C1256 N1257 1.314 . S
C1256 C1258 1.353 . S
C1256 H1262 0.930 . S
N1257 Li1233 1.990 . S
N1257 C1256 1.314 . S
N1257 C1260 1.279 . S
C1258 C1256 1.353 . S
C1258 C1261 1.348 . S
C1258 H1306 0.929 . S
C1259 C1260 1.358 . S
C1259 C1261 1.356 . S
C1259 H1307 0.930 . S
C1260 N1257 1.279 . S
C1260 C1259 1.358 . S
C1260 H1263 0.930 . S
C1261 C1258 1.348 . S
C1261 C1259 1.356 . S
H1262 C1256 0.930 . S
H1263 C1260 0.930 . S
C1264 C1266 1.348 . S
C1264 C1267 1.356 . S
C1264 O1294 1.325 . S
N1265 C1268 1.314 . S
N1265 C1269 1.279 . S
C1266 C1264 1.348 . S
C1266 C1268 1.353 . S
C1266 H1308 0.929 . S
C1267 C1264 1.356 . S
C1267 C1269 1.358 . S
C1267 H1309 0.930 . S
C1268 N1265 1.314 . S
C1268 C1266 1.353 . S
C1268 H1310 0.930 . S
C1269 N1265 1.279 . S
C1269 C1267 1.358 . S
C1269 H1311 0.930 . S
C1270 C1271 1.348 . S
C1270 C1272 1.356 . S
C1270 O1295 1.325 . S
C1271 C1270 1.348 . S
C1271 C1273 1.353 . S
C1271 H1312 0.929 . S
C1272 C1270 1.356 . S
C1272 C1274 1.358 . S
C1272 H1313 0.930 . S
C1273 C1271 1.353 . S
C1273 N1275 1.314 . S
C1273 H1314 0.930 . S
C1274 C1272 1.358 . S
C1274 N1275 1.279 . S
C1274 H1315 0.930 . S
N1275 C1273 1.314 . S
N1275 C1274 1.279 . S
C1276 C1278 1.353 . S
C1276 N1279 1.314 . S
C1276 H1282 0.930 . S
C1277 N1279 1.279 . S
C1277 C1280 1.358 . S
C1277 H1283 0.930 . S
C1278 C1276 1.353 . S
C1278 C1281 1.348 . S
C1278 H1316 0.929 . S
N1279 Li1234 1.990 . S
N1279 C1276 1.314 . S
N1279 C1277 1.279 . S
C1280 C1277 1.358 . S
C1280 C1281 1.356 . S
C1280 H1317 0.930 . S
C1281 C1278 1.348 . S
C1281 C1280 1.356 . S
H1282 C1276 0.930 . S
H1283 C1277 0.930 . S
C1284 N1285 1.314 . S
C1284 C1286 1.353 . S
C1284 H1290 0.930 . S
N1285 Li1235 1.990 . S
N1285 C1284 1.314 . S
N1285 C1288 1.279 . S
C1286 C1284 1.353 . S
C1286 C1289 1.348 . S
C1286 H1318 0.929 . S
C1287 C1288 1.358 . S
C1287 C1289 1.356 . S
C1287 H1319 0.930 . S
C1288 N1285 1.279 . S
C1288 C1287 1.358 . S
C1288 H1291 0.930 . S
C1289 C1286 1.348 . S
C1289 C1287 1.356 . S
H1290 C1284 0.930 . S
H1291 C1288 0.930 . S
O1292 Li1232 1.956 . S
O1292 Li1233 1.970 . S
O1292 Li1234 1.961 . S
O1292 C1236 1.325 . S
O1293 Li1232 1.970 . S
O1293 Li1233 1.956 . S
O1293 Li1235 1.961 . S
O1293 C1242 1.325 . S
O1294 Li1232 1.961 . S
O1294 Li1234 1.956 . S
O1294 Li1235 1.970 . S
O1294 C1264 1.325 . S
O1295 Li1233 1.961 . S
O1295 Li1234 1.970 . S
O1295 Li1235 1.956 . S
O1295 C1270 1.325 . S
H1296 C1238 0.929 . S
H1297 C1239 0.930 . S
H1298 C1240 0.930 . S
H1299 C1241 0.930 . S
H1300 C1243 0.930 . S
H1301 C1245 0.929 . S
H1302 C1246 0.930 . S
H1303 C1247 0.930 . S
H1304 C1250 0.930 . S
H1305 C1253 0.929 . S
H1306 C1258 0.929 . S
H1307 C1259 0.930 . S
H1308 C1266 0.929 . S
H1309 C1267 0.930 . S
H1310 C1268 0.930 . S
H1311 C1269 0.930 . S
H1312 C1271 0.929 . S
H1313 C1272 0.930 . S
H1314 C1273 0.930 . S
H1315 C1274 0.930 . S
H1316 C1278 0.929 . S
H1317 C1280 0.930 . S
H1318 C1286 0.929 . S
H1319 C1287 0.930 . S
Li1320 N1337 1.990 . S
Li1320 O1380 1.956 . S
Li1320 O1381 1.970 . S
Li1320 O1382 1.961 . S
Li1321 N1345 1.990 . S
Li1321 O1380 1.970 . S
Li1321 O1381 1.956 . S
Li1321 O1383 1.961 . S
Li1322 N1367 1.990 . S
Li1322 O1380 1.961 . S
Li1322 O1382 1.956 . S
Li1322 O1383 1.970 . S
Li1323 N1373 1.990 . S
Li1323 O1381 1.961 . S
Li1323 O1382 1.970 . S
Li1323 O1383 1.956 . S
C1324 C1326 1.348 . S
C1324 C1327 1.356 . S
C1324 O1380 1.325 . S
N1325 C1328 1.314 . S
N1325 C1329 1.279 . S
C1326 C1324 1.348 . S
C1326 C1328 1.353 . S
C1326 H1384 0.929 . S
C1327 C1324 1.356 . S
C1327 C1329 1.358 . S
C1327 H1385 0.930 . S
C1328 N1325 1.314 . S
C1328 C1326 1.353 . S
C1328 H1386 0.930 . S
C1329 N1325 1.279 . S
C1329 C1327 1.358 . S
C1329 H1387 0.930 . S
C1330 C1333 1.348 . S
C1330 C1334 1.356 . S
C1330 O1381 1.325 . S
C1331 N1332 1.279 . S
C1331 C1334 1.358 . S
C1331 H1388 0.930 . S
N1332 C1331 1.279 . S
N1332 C1335 1.314 . S
C1333 C1330 1.348 . S
C1333 C1335 1.353 . S
C1333 H1389 0.929 . S
C1334 C1330 1.356 . S
C1334 C1331 1.358 . S
C1334 H1390 0.930 . S
C1335 N1332 1.314 . S
C1335 C1333 1.353 . S
C1335 H1391 0.930 . S
C1336 N1337 1.314 . S
C1336 C1341 1.353 . S
C1336 H1342 0.930 . S
N1337 Li1320 1.990 . S
N1337 C1336 1.314 . S
N1337 C1339 1.279 . S
C1338 C1339 1.358 . S
C1338 C1340 1.356 . S
C1338 H1392 0.930 . S
C1339 N1337 1.279 . S
C1339 C1338 1.358 . S
C1339 H1343 0.930 . S
C1340 C1338 1.356 . S
C1340 C1341 1.348 . S
C1341 C1336 1.353 . S
C1341 C1340 1.348 . S
C1341 H1393 0.929 . S
H1342 C1336 0.930 . S
H1343 C1339 0.930 . S
C1344 N1345 1.314 . S
C1344 C1346 1.353 . S
C1344 H1350 0.930 . S
N1345 Li1321 1.990 . S
N1345 C1344 1.314 . S
N1345 C1348 1.279 . S
C1346 C1344 1.353 . S
C1346 C1349 1.348 . S
C1346 H1394 0.929 . S
C1347 C1348 1.358 . S
C1347 C1349 1.356 . S
C1347 H1395 0.930 . S
C1348 N1345 1.279 . S
C1348 C1347 1.358 . S
C1348 H1351 0.930 . S
C1349 C1346 1.348 . S
C1349 C1347 1.356 . S
H1350 C1344 0.930 . S
H1351 C1348 0.930 . S
C1352 C1354 1.348 . S
C1352 C1355 1.356 . S
C1352 O1382 1.325 . S
N1353 C1356 1.314 . S
N1353 C1357 1.279 . S
C1354 C1352 1.348 . S
C1354 C1356 1.353 . S
C1354 H1396 0.929 . S
C1355 C1352 1.356 . S
C1355 C1357 1.358 . S
C1355 H1397 0.930 . S
C1356 N1353 1.314 . S
C1356 C1354 1.353 . S
C1356 H1398 0.930 . S
C1357 N1353 1.279 . S
C1357 C1355 1.358 . S
C1357 H1399 0.930 . S
C1358 C1359 1.348 . S
C1358 C1360 1.356 . S
C1358 O1383 1.325 . S
C1359 C1358 1.348 . S
C1359 C1361 1.353 . S
C1359 H1400 0.929 . S
C1360 C1358 1.356 . S
C1360 C1362 1.358 . S
C1360 H1401 0.930 . S
C1361 C1359 1.353 . S
C1361 N1363 1.314 . S
C1361 H1402 0.930 . S
C1362 C1360 1.358 . S
C1362 N1363 1.279 . S
C1362 H1403 0.930 . S
N1363 C1361 1.314 . S
N1363 C1362 1.279 . S
C1364 C1366 1.353 . S
C1364 N1367 1.314 . S
C1364 H1370 0.930 . S
C1365 N1367 1.279 . S
C1365 C1368 1.358 . S
C1365 H1371 0.930 . S
C1366 C1364 1.353 . S
C1366 C1369 1.348 . S
C1366 H1404 0.929 . S
N1367 Li1322 1.990 . S
N1367 C1364 1.314 . S
N1367 C1365 1.279 . S
C1368 C1365 1.358 . S
C1368 C1369 1.356 . S
C1368 H1405 0.930 . S
C1369 C1366 1.348 . S
C1369 C1368 1.356 . S
H1370 C1364 0.930 . S
H1371 C1365 0.930 . S
C1372 N1373 1.314 . S
C1372 C1374 1.353 . S
C1372 H1378 0.930 . S
N1373 Li1323 1.990 . S
N1373 C1372 1.314 . S
N1373 C1376 1.279 . S
C1374 C1372 1.353 . S
C1374 C1377 1.348 . S
C1374 H1406 0.929 . S
C1375 C1376 1.358 . S
C1375 C1377 1.356 . S
C1375 H1407 0.930 . S
C1376 N1373 1.279 . S
C1376 C1375 1.358 . S
C1376 H1379 0.930 . S
C1377 C1374 1.348 . S
C1377 C1375 1.356 . S
H1378 C1372 0.930 . S
H1379 C1376 0.930 . S
O1380 Li1320 1.956 . S
O1380 Li1321 1.970 . S
O1380 Li1322 1.961 . S
O1380 C1324 1.325 . S
O1381 Li1320 1.970 . S
O1381 Li1321 1.956 . S
O1381 Li1323 1.961 . S
O1381 C1330 1.325 . S
O1382 Li1320 1.961 . S
O1382 Li1322 1.956 . S
O1382 Li1323 1.970 . S
O1382 C1352 1.325 . S
O1383 Li1321 1.961 . S
O1383 Li1322 1.970 . S
O1383 Li1323 1.956 . S
O1383 C1358 1.325 . S
H1384 C1326 0.929 . S
H1385 C1327 0.930 . S
H1386 C1328 0.930 . S
H1387 C1329 0.930 . S
H1388 C1331 0.930 . S
H1389 C1333 0.929 . S
H1390 C1334 0.930 . S
H1391 C1335 0.930 . S
H1392 C1338 0.930 . S
H1393 C1341 0.929 . S
H1394 C1346 0.929 . S
H1395 C1347 0.930 . S
H1396 C1354 0.929 . S
H1397 C1355 0.930 . S
H1398 C1356 0.930 . S
H1399 C1357 0.930 . S
H1400 C1359 0.929 . S
H1401 C1360 0.930 . S
H1402 C1361 0.930 . S
H1403 C1362 0.930 . S
H1404 C1366 0.929 . S
H1405 C1368 0.930 . S
H1406 C1374 0.929 . S
H1407 C1375 0.930 . S
Li1408 N1425 1.990 . S
Li1408 O1468 1.956 . S
Li1408 O1469 1.970 . S
Li1408 O1470 1.961 . S
Li1409 N1433 1.990 . S
Li1409 O1468 1.970 . S
Li1409 O1469 1.956 . S
Li1409 O1471 1.961 . S
Li1410 N1455 1.990 . S
Li1410 O1468 1.961 . S
Li1410 O1470 1.956 . S
Li1410 O1471 1.970 . S
Li1411 N1461 1.990 1_545 S
Li1411 O1469 1.961 . S
Li1411 O1470 1.970 . S
Li1411 O1471 1.956 . S
C1412 C1414 1.348 . S
C1412 C1415 1.356 . S
C1412 O1468 1.325 . S
N1413 C1416 1.314 . S
N1413 C1417 1.279 . S
C1414 C1412 1.348 . S
C1414 C1416 1.353 . S
C1414 H1472 0.929 . S
C1415 C1412 1.356 . S
C1415 C1417 1.358 . S
C1415 H1473 0.930 . S
C1416 N1413 1.314 . S
C1416 C1414 1.353 . S
C1416 H1474 0.930 . S
C1417 N1413 1.279 . S
C1417 C1415 1.358 . S
C1417 H1475 0.930 . S
C1418 C1421 1.348 . S
C1418 C1422 1.356 . S
C1418 O1469 1.325 1_565 S
C1419 N1420 1.279 . S
C1419 C1422 1.358 . S
C1419 H1476 0.930 . S
N1420 C1419 1.279 . S
N1420 C1423 1.314 . S
C1421 C1418 1.348 . S
C1421 C1423 1.353 . S
C1421 H1477 0.929 1_565 S
C1422 C1418 1.356 . S
C1422 C1419 1.358 . S
C1422 H1478 0.930 . S
C1423 N1420 1.314 . S
C1423 C1421 1.353 . S
C1423 H1479 0.930 . S
C1424 N1425 1.314 . S
C1424 C1429 1.353 . S
C1424 H1430 0.930 1_545 S
N1425 Li1408 1.990 . S
N1425 C1424 1.314 . S
N1425 C1427 1.279 . S
C1426 C1427 1.358 . S
C1426 C1428 1.356 . S
C1426 H1480 0.930 . S
C1427 N1425 1.279 . S
C1427 C1426 1.358 . S
C1427 H1431 0.930 . S
C1428 C1426 1.356 . S
C1428 C1429 1.348 . S
C1429 C1424 1.353 . S
C1429 C1428 1.348 . S
C1429 H1481 0.929 1_545 S
H1430 C1424 0.930 1_565 S
H1431 C1427 0.930 . S
C1432 N1433 1.314 . S
C1432 C1434 1.353 . S
C1432 H1438 0.930 . S
N1433 Li1409 1.990 . S
N1433 C1432 1.314 . S
N1433 C1436 1.279 . S
C1434 C1432 1.353 . S
C1434 C1437 1.348 . S
C1434 H1482 0.929 . S
C1435 C1436 1.358 . S
C1435 C1437 1.356 . S
C1435 H1483 0.930 . S
C1436 N1433 1.279 . S
C1436 C1435 1.358 . S
C1436 H1439 0.930 . S
C1437 C1434 1.348 . S
C1437 C1435 1.356 . S
H1438 C1432 0.930 . S
H1439 C1436 0.930 . S
C1440 C1442 1.348 1_545 S
C1440 C1443 1.356 . S
C1440 O1470 1.325 . S
N1441 C1444 1.300 1_545 S
N1441 C1445 1.292 . S
C1442 C1440 1.348 1_565 S
C1442 C1444 1.353 . S
C1442 H1484 0.929 . S
C1443 C1440 1.356 . S
C1443 C1445 1.358 . S
C1443 H1485 0.930 . S
C1444 N1441 1.300 1_565 S
C1444 C1442 1.353 . S
C1444 H1486 0.930 . S
C1445 N1441 1.292 . S
C1445 C1443 1.358 . S
C1445 H1487 0.930 . S
C1446 C1447 1.348 . S
C1446 C1448 1.356 . S
C1446 O1471 1.325 . S
C1447 C1446 1.348 . S
C1447 C1449 1.353 . S
C1447 H1488 0.929 . S
C1448 C1446 1.356 . S
C1448 C1450 1.358 . S
C1448 H1489 0.930 . S
C1449 C1447 1.353 . S
C1449 N1451 1.314 . S
C1449 H1490 0.930 . S
C1450 C1448 1.358 . S
C1450 N1451 1.279 . S
C1450 H1491 0.930 . S
N1451 C1449 1.314 . S
N1451 C1450 1.279 . S
C1452 C1454 1.353 . S
C1452 N1455 1.314 . S
C1452 H1458 0.930 . S
C1453 N1455 1.279 . S
C1453 C1456 1.358 . S
C1453 H1459 0.930 . S
C1454 C1452 1.353 . S
C1454 C1457 1.348 . S
C1454 H1492 0.929 . S
N1455 Li1410 1.990 . S
N1455 C1452 1.314 . S
N1455 C1453 1.279 . S
C1456 C1453 1.358 . S
C1456 C1457 1.356 . S
C1456 H1493 0.930 . S
C1457 C1454 1.348 . S
C1457 C1456 1.356 . S
H1458 C1452 0.930 . S
H1459 C1453 0.930 . S
C1460 N1461 1.314 . S
C1460 C1462 1.353 . S
C1460 H1466 0.930 . S
N1461 Li1411 1.990 1_565 S
N1461 C1460 1.314 . S
N1461 C1464 1.279 . S
C1462 C1460 1.353 . S
C1462 C1465 1.348 . S
C1462 H1494 0.929 . S
C1463 C1464 1.358 . S
C1463 C1465 1.356 . S
C1463 H1495 0.930 . S
C1464 N1461 1.279 . S
C1464 C1463 1.358 . S
C1464 H1467 0.930 . S
C1465 C1462 1.348 . S
C1465 C1463 1.356 . S
H1466 C1460 0.930 . S
H1467 C1464 0.930 . S
O1468 Li1408 1.956 . S
O1468 Li1409 1.970 . S
O1468 Li1410 1.961 . S
O1468 C1412 1.325 . S
O1469 Li1408 1.970 . S
O1469 Li1409 1.956 . S
O1469 Li1411 1.961 . S
O1469 C1418 1.325 1_545 S
O1470 Li1408 1.961 . S
O1470 Li1410 1.956 . S
O1470 Li1411 1.970 . S
O1470 C1440 1.325 . S
O1471 Li1409 1.961 . S
O1471 Li1410 1.970 . S
O1471 Li1411 1.956 . S
O1471 C1446 1.325 . S
H1472 C1414 0.929 . S
H1473 C1415 0.930 . S
H1474 C1416 0.930 . S
H1475 C1417 0.930 . S
H1476 C1419 0.930 . S
H1477 C1421 0.929 1_545 S
H1478 C1422 0.930 . S
H1479 C1423 0.930 . S
H1480 C1426 0.930 . S
H1481 C1429 0.929 1_565 S
H1482 C1434 0.929 . S
H1483 C1435 0.930 . S
H1484 C1442 0.929 . S
H1485 C1443 0.930 . S
H1486 C1444 0.930 . S
H1487 C1445 0.930 . S
H1488 C1447 0.929 . S
H1489 C1448 0.930 . S
H1490 C1449 0.930 . S
H1491 C1450 0.930 . S
H1492 C1454 0.929 . S
H1493 C1456 0.930 . S
H1494 C1462 0.929 . S
H1495 C1463 0.930 . S
Li1496 N1513 1.990 . S
Li1496 O1556 1.956 . S
Li1496 O1557 1.970 . S
Li1496 O1558 1.961 . S
Li1497 N1521 1.990 . S
Li1497 O1556 1.970 . S
Li1497 O1557 1.956 . S
Li1497 O1559 1.961 . S
Li1498 N1543 1.990 1_655 S
Li1498 O1556 1.961 . S
Li1498 O1558 1.956 . S
Li1498 O1559 1.970 . S
Li1499 N1549 1.990 . S
Li1499 O1557 1.961 . S
Li1499 O1558 1.970 . S
Li1499 O1559 1.956 . S
C1500 C1502 1.348 . S
C1500 C1503 1.356 . S
C1500 O1556 1.325 1_455 S
N1501 C1504 1.314 . S
N1501 C1505 1.279 . S
C1502 C1500 1.348 . S
C1502 C1504 1.353 . S
C1502 H1560 0.929 1_455 S
C1503 C1500 1.356 . S
C1503 C1505 1.358 . S
C1503 H1561 0.930 . S
C1504 N1501 1.314 . S
C1504 C1502 1.353 . S
C1504 H1562 0.930 . S
C1505 N1501 1.279 . S
C1505 C1503 1.358 . S
C1505 H1563 0.930 . S
C1506 C1509 1.348 . S
C1506 C1510 1.356 . S
C1506 O1557 1.325 . S
C1507 N1508 1.279 . S
C1507 C1510 1.358 . S
C1507 H1564 0.930 . S
N1508 C1507 1.279 . S
N1508 C1511 1.314 . S
C1509 C1506 1.348 . S
C1509 C1511 1.353 . S
C1509 H1565 0.929 . S
C1510 C1506 1.356 . S
C1510 C1507 1.358 . S
C1510 H1566 0.930 . S
C1511 N1508 1.314 . S
C1511 C1509 1.353 . S
C1511 H1567 0.930 . S
C1512 N1513 1.314 . S
C1512 C1517 1.353 . S
C1512 H1518 0.930 . S
N1513 Li1496 1.990 . S
N1513 C1512 1.314 . S
N1513 C1515 1.279 . S
C1514 C1515 1.358 . S
C1514 C1516 1.356 . S
C1514 H1568 0.930 . S
C1515 N1513 1.279 . S
C1515 C1514 1.358 . S
C1515 H1519 0.930 . S
C1516 C1514 1.356 . S
C1516 C1517 1.348 . S
C1517 C1512 1.353 . S
C1517 C1516 1.348 . S
C1517 H1569 0.929 . S
H1518 C1512 0.930 . S
H1519 C1515 0.930 . S
C1520 N1521 1.314 . S
C1520 C1522 1.353 . S
C1520 H1526 0.930 1_655 S
N1521 Li1497 1.990 . S
N1521 C1520 1.314 . S
N1521 C1524 1.279 . S
C1522 C1520 1.353 . S
C1522 C1525 1.348 . S
C1522 H1570 0.929 1_655 S
C1523 C1524 1.358 . S
C1523 C1525 1.356 . S
C1523 H1571 0.930 . S
C1524 N1521 1.279 . S
C1524 C1523 1.358 . S
C1524 H1527 0.930 . S
C1525 C1522 1.348 . S
C1525 C1523 1.356 . S
H1526 C1520 0.930 1_455 S
H1527 C1524 0.930 . S
C1528 C1530 1.348 . S
C1528 C1531 1.356 . S
C1528 O1558 1.325 . S
N1529 C1532 1.314 . S
N1529 C1533 1.279 . S
C1530 C1528 1.348 . S
C1530 C1532 1.353 . S
C1530 H1572 0.929 . S
C1531 C1528 1.356 . S
C1531 C1533 1.358 . S
C1531 H1573 0.930 . S
C1532 N1529 1.314 . S
C1532 C1530 1.353 . S
C1532 H1574 0.930 . S
C1533 N1529 1.279 . S
C1533 C1531 1.358 . S
C1533 H1575 0.930 . S
C1534 C1535 1.348 1_655 S
C1534 C1536 1.356 . S
C1534 O1559 1.325 . S
C1535 C1534 1.348 1_455 S
C1535 C1537 1.353 . S
C1535 H1576 0.929 . S
C1536 C1534 1.356 . S
C1536 C1538 1.358 . S
C1536 H1577 0.930 . S
C1537 C1535 1.353 . S
C1537 N1539 1.320 1_455 S
C1537 H1578 0.930 . S
C1538 C1536 1.358 . S
C1538 N1539 1.307 . S
C1538 H1579 0.930 . S
N1539 C1537 1.320 1_655 S
N1539 C1538 1.307 . S
C1540 C1542 1.353 . S
C1540 N1543 1.314 . S
C1540 H1546 0.930 . S
C1541 N1543 1.279 . S
C1541 C1544 1.358 . S
C1541 H1547 0.930 . S
C1542 C1540 1.353 . S
C1542 C1545 1.348 . S
C1542 H1580 0.929 . S
N1543 Li1498 1.990 1_455 S
N1543 C1540 1.314 . S
N1543 C1541 1.279 . S
C1544 C1541 1.358 . S
C1544 C1545 1.356 . S
C1544 H1581 0.930 . S
C1545 C1542 1.348 . S
C1545 C1544 1.356 . S
H1546 C1540 0.930 . S
H1547 C1541 0.930 . S
C1548 N1549 1.314 . S
C1548 C1550 1.353 . S
C1548 H1554 0.930 . S
N1549 Li1499 1.990 . S
N1549 C1548 1.314 . S
N1549 C1552 1.279 . S
C1550 C1548 1.353 . S
C1550 C1553 1.348 . S
C1550 H1582 0.929 . S
C1551 C1552 1.358 . S
C1551 C1553 1.356 . S
C1551 H1583 0.930 . S
C1552 N1549 1.279 . S
C1552 C1551 1.358 . S
C1552 H1555 0.930 . S
C1553 C1550 1.348 . S
C1553 C1551 1.356 . S
H1554 C1548 0.930 . S
H1555 C1552 0.930 . S
O1556 Li1496 1.956 . S
O1556 Li1497 1.970 . S
O1556 Li1498 1.961 . S
O1556 C1500 1.325 1_655 S
O1557 Li1496 1.970 . S
O1557 Li1497 1.956 . S
O1557 Li1499 1.961 . S
O1557 C1506 1.325 . S
O1558 Li1496 1.961 . S
O1558 Li1498 1.956 . S
O1558 Li1499 1.970 . S
O1558 C1528 1.325 . S
O1559 Li1497 1.961 . S
O1559 Li1498 1.970 . S
O1559 Li1499 1.956 . S
O1559 C1534 1.325 . S
H1560 C1502 0.929 1_655 S
H1561 C1503 0.930 . S
H1562 C1504 0.930 . S
H1563 C1505 0.930 . S
H1564 C1507 0.930 . S
H1565 C1509 0.929 . S
H1566 C1510 0.930 . S
H1567 C1511 0.930 . S
H1568 C1514 0.930 . S
H1569 C1517 0.929 . S
H1570 C1522 0.929 1_455 S
H1571 C1523 0.930 . S
H1572 C1530 0.929 . S
H1573 C1531 0.930 . S
H1574 C1532 0.930 . S
H1575 C1533 0.930 . S
H1576 C1535 0.929 . S
H1577 C1536 0.930 . S
H1578 C1537 0.930 . S
H1579 C1538 0.930 . S
H1580 C1542 0.929 . S
H1581 C1544 0.930 . S
H1582 C1550 0.929 . S
H1583 C1551 0.930 . S
C1584 C1585 1.384 . S
C1584 C1586 1.384 . S
C1584 H1612 0.931 . S
C1585 C1584 1.384 . S
C1585 C1588 1.382 . S
C1586 C1584 1.384 . S
C1586 C1587 1.381 . S
C1586 H1613 0.930 . S
C1587 C1586 1.381 . S
C1587 C1589 1.381 . S
C1587 C1590 1.487 . S
C1588 C1585 1.382 . S
C1588 C1589 1.387 . S
C1588 H1614 0.930 . S
C1589 C1587 1.381 . S
C1589 C1588 1.387 . S
C1589 H1615 0.931 . S
C1590 C1587 1.487 . S
C1590 C1597 1.399 . S
C1590 N1628 1.343 . S
C1591 C1592 1.384 . S
C1591 C1593 1.384 . S
C1591 H1616 0.931 . S
C1592 C1591 1.384 . S
C1592 C1595 1.382 . S
C1593 C1591 1.384 . S
C1593 C1594 1.381 . S
C1593 H1617 0.930 . S
C1594 C1593 1.381 . S
C1594 C1596 1.381 . S
C1594 C1597 1.487 . S
C1595 C1592 1.382 . S
C1595 C1596 1.387 . S
C1595 H1618 0.930 . S
C1596 C1594 1.381 . S
C1596 C1595 1.387 . S
C1596 H1619 0.931 . S
C1597 C1590 1.399 . S
C1597 C1594 1.487 . S
C1597 N1629 1.343 . S
C1598 C1599 1.384 . S
C1598 C1600 1.384 . S
C1598 H1620 0.931 . S
C1599 C1598 1.384 . S
C1599 C1602 1.382 . S
C1600 C1598 1.384 . S
C1600 C1601 1.381 . S
C1600 H1621 0.930 . S
C1601 C1600 1.381 . S
C1601 C1603 1.381 . S
C1601 C1604 1.487 . S
C1602 C1599 1.382 . S
C1602 C1603 1.387 . S
C1602 H1622 0.930 . S
C1603 C1601 1.381 . S
C1603 C1602 1.387 . S
C1603 H1623 0.931 . S
C1604 C1601 1.487 . S
C1604 C1611 1.399 . S
C1604 N1629 1.343 . S
C1605 C1606 1.384 . S
C1605 C1607 1.384 . S
C1605 H1624 0.931 . S
C1606 C1605 1.384 . S
C1606 C1609 1.382 . S
C1607 C1605 1.384 . S
C1607 C1608 1.381 . S
C1607 H1625 0.930 . S
C1608 C1607 1.381 . S
C1608 C1610 1.381 . S
C1608 C1611 1.487 . S
C1609 C1606 1.382 . S
C1609 C1610 1.387 . S
C1609 H1626 0.930 . S
C1610 C1608 1.381 . S
C1610 C1609 1.387 . S
C1610 H1627 0.931 . S
C1611 C1604 1.399 . S
C1611 C1608 1.487 . S
C1611 N1628 1.343 . S
H1612 C1584 0.931 . S
H1613 C1586 0.930 . S
H1614 C1588 0.930 . S
H1615 C1589 0.931 . S
H1616 C1591 0.931 . S
H1617 C1593 0.930 . S
H1618 C1595 0.930 . S
H1619 C1596 0.931 . S
H1620 C1598 0.931 . S
H1621 C1600 0.930 . S
H1622 C1602 0.930 . S
H1623 C1603 0.931 . S
H1624 C1605 0.931 . S
H1625 C1607 0.930 . S
H1626 C1609 0.930 . S
H1627 C1610 0.931 . S
N1628 C1590 1.343 . S
N1628 C1611 1.343 . S
N1629 C1597 1.343 . S
N1629 C1604 1.343 . S
C1630 C1631 1.384 . S
C1630 C1632 1.384 . S
C1630 H1658 0.931 . S
C1631 C1630 1.384 . S
C1631 C1634 1.382 . S
C1632 C1630 1.384 . S
C1632 C1633 1.381 . S
C1632 H1659 0.930 . S
C1633 C1632 1.381 . S
C1633 C1635 1.381 . S
C1633 C1636 1.487 . S
C1634 C1631 1.382 . S
C1634 C1635 1.387 . S
C1634 H1660 0.930 . S
C1635 C1633 1.381 . S
C1635 C1634 1.387 . S
C1635 H1661 0.931 . S
C1636 C1633 1.487 . S
C1636 C1643 1.399 . S
C1636 N1674 1.343 . S
C1637 C1638 1.384 . S
C1637 C1639 1.384 . S
C1637 H1662 0.931 . S
C1638 C1637 1.384 . S
C1638 C1641 1.382 . S
C1639 C1637 1.384 . S
C1639 C1640 1.381 . S
C1639 H1663 0.930 . S
C1640 C1639 1.381 . S
C1640 C1642 1.381 . S
C1640 C1643 1.487 . S
C1641 C1638 1.382 . S
C1641 C1642 1.387 . S
C1641 H1664 0.930 . S
C1642 C1640 1.381 . S
C1642 C1641 1.387 . S
C1642 H1665 0.931 . S
C1643 C1636 1.399 . S
C1643 C1640 1.487 . S
C1643 N1675 1.343 . S
C1644 C1645 1.384 . S
C1644 C1646 1.384 . S
C1644 H1666 0.931 . S
C1645 C1644 1.384 . S
C1645 C1648 1.382 . S
C1646 C1644 1.384 . S
C1646 C1647 1.381 . S
C1646 H1667 0.930 . S
C1647 C1646 1.381 . S
C1647 C1649 1.381 . S
C1647 C1650 1.487 . S
C1648 C1645 1.382 . S
C1648 C1649 1.387 . S
C1648 H1668 0.930 . S
C1649 C1647 1.381 . S
C1649 C1648 1.387 . S
C1649 H1669 0.931 . S
C1650 C1647 1.487 . S
C1650 C1657 1.399 . S
C1650 N1675 1.343 . S
C1651 C1652 1.384 . S
C1651 C1653 1.384 . S
C1651 H1670 0.931 . S
C1652 C1651 1.384 . S
C1652 C1655 1.382 . S
C1653 C1651 1.384 . S
C1653 C1654 1.381 . S
C1653 H1671 0.930 . S
C1654 C1653 1.381 . S
C1654 C1656 1.381 . S
C1654 C1657 1.487 . S
C1655 C1652 1.382 . S
C1655 C1656 1.387 . S
C1655 H1672 0.930 . S
C1656 C1654 1.381 . S
C1656 C1655 1.387 . S
C1656 H1673 0.931 . S
C1657 C1650 1.399 . S
C1657 C1654 1.487 . S
C1657 N1674 1.343 . S
H1658 C1630 0.931 . S
H1659 C1632 0.930 . S
H1660 C1634 0.930 . S
H1661 C1635 0.931 . S
H1662 C1637 0.931 . S
H1663 C1639 0.930 . S
H1664 C1641 0.930 . S
H1665 C1642 0.931 . S
H1666 C1644 0.931 . S
H1667 C1646 0.930 . S
H1668 C1648 0.930 . S
H1669 C1649 0.931 . S
H1670 C1651 0.931 . S
H1671 C1653 0.930 . S
H1672 C1655 0.930 . S
H1673 C1656 0.931 . S
N1674 C1636 1.343 . S
N1674 C1657 1.343 . S
N1675 C1643 1.343 . S
N1675 C1650 1.343 . S
C1676 C1677 1.384 . S
C1676 C1678 1.384 . S
C1676 H1704 0.931 . S
C1677 C1676 1.384 . S
C1677 C1680 1.382 . S
C1678 C1676 1.384 . S
C1678 C1679 1.381 . S
C1678 H1705 0.930 . S
C1679 C1678 1.381 . S
C1679 C1681 1.381 . S
C1679 C1682 1.487 . S
C1680 C1677 1.382 . S
C1680 C1681 1.387 . S
C1680 H1706 0.930 . S
C1681 C1679 1.381 . S
C1681 C1680 1.387 . S
C1681 H1707 0.931 . S
C1682 C1679 1.487 . S
C1682 C1689 1.399 . S
C1682 N1720 1.343 . S
C1683 C1684 1.384 . S
C1683 C1685 1.384 . S
C1683 H1708 0.931 . S
C1684 C1683 1.384 . S
C1684 C1687 1.382 . S
C1685 C1683 1.384 . S
C1685 C1686 1.381 . S
C1685 H1709 0.930 . S
C1686 C1685 1.381 . S
C1686 C1688 1.381 . S
C1686 C1689 1.487 . S
C1687 C1684 1.382 . S
C1687 C1688 1.387 . S
C1687 H1710 0.930 . S
C1688 C1686 1.381 . S
C1688 C1687 1.387 . S
C1688 H1711 0.931 . S
C1689 C1682 1.399 . S
C1689 C1686 1.487 . S
C1689 N1721 1.343 . S
C1690 C1691 1.384 . S
C1690 C1692 1.384 . S
C1690 H1712 0.931 . S
C1691 C1690 1.384 . S
C1691 C1694 1.382 . S
C1692 C1690 1.384 . S
C1692 C1693 1.381 . S
C1692 H1713 0.930 . S
C1693 C1692 1.381 . S
C1693 C1695 1.381 . S
C1693 C1696 1.487 . S
C1694 C1691 1.382 . S
C1694 C1695 1.387 . S
C1694 H1714 0.930 . S
C1695 C1693 1.381 . S
C1695 C1694 1.387 . S
C1695 H1715 0.931 . S
C1696 C1693 1.487 . S
C1696 C1703 1.399 . S
C1696 N1721 1.343 . S
C1697 C1698 1.384 . S
C1697 C1699 1.384 . S
C1697 H1716 0.931 . S
C1698 C1697 1.384 . S
C1698 C1701 1.382 . S
C1699 C1697 1.384 . S
C1699 C1700 1.381 . S
C1699 H1717 0.930 . S
C1700 C1699 1.381 . S
C1700 C1702 1.381 . S
C1700 C1703 1.487 . S
C1701 C1698 1.382 . S
C1701 C1702 1.387 . S
C1701 H1718 0.930 . S
C1702 C1700 1.381 . S
C1702 C1701 1.387 . S
C1702 H1719 0.931 . S
C1703 C1696 1.399 . S
C1703 C1700 1.487 . S
C1703 N1720 1.343 . S
H1704 C1676 0.931 . S
H1705 C1678 0.930 . S
H1706 C1680 0.930 . S
H1707 C1681 0.931 . S
H1708 C1683 0.931 . S
H1709 C1685 0.930 . S
H1710 C1687 0.930 . S
H1711 C1688 0.931 . S
H1712 C1690 0.931 . S
H1713 C1692 0.930 . S
H1714 C1694 0.930 . S
H1715 C1695 0.931 . S
H1716 C1697 0.931 . S
H1717 C1699 0.930 . S
H1718 C1701 0.930 . S
H1719 C1702 0.931 . S
N1720 C1682 1.343 . S
N1720 C1703 1.343 . S
N1721 C1689 1.343 . S
N1721 C1696 1.343 . S
C1722 C1723 1.384 . S
C1722 C1724 1.384 . S
C1722 H1750 0.931 . S
C1723 C1722 1.384 . S
C1723 C1726 1.382 . S
C1724 C1722 1.384 . S
C1724 C1725 1.381 . S
C1724 H1751 0.930 . S
C1725 C1724 1.381 . S
C1725 C1727 1.381 . S
C1725 C1728 1.487 . S
C1726 C1723 1.382 . S
C1726 C1727 1.387 . S
C1726 H1752 0.930 . S
C1727 C1725 1.381 . S
C1727 C1726 1.387 . S
C1727 H1753 0.931 . S
C1728 C1725 1.487 . S
C1728 C1735 1.399 . S
C1728 N1766 1.343 . S
C1729 C1730 1.384 . S
C1729 C1731 1.384 . S
C1729 H1754 0.931 . S
C1730 C1729 1.384 . S
C1730 C1733 1.382 . S
C1731 C1729 1.384 . S
C1731 C1732 1.381 . S
C1731 H1755 0.930 . S
C1732 C1731 1.381 . S
C1732 C1734 1.381 . S
C1732 C1735 1.487 . S
C1733 C1730 1.382 . S
C1733 C1734 1.387 . S
C1733 H1756 0.930 . S
C1734 C1732 1.381 . S
C1734 C1733 1.387 . S
C1734 H1757 0.931 . S
C1735 C1728 1.399 . S
C1735 C1732 1.487 . S
C1735 N1767 1.343 . S
C1736 C1737 1.384 . S
C1736 C1738 1.384 . S
C1736 H1758 0.931 . S
C1737 C1736 1.384 . S
C1737 C1740 1.382 . S
C1738 C1736 1.384 . S
C1738 C1739 1.381 . S
C1738 H1759 0.930 . S
C1739 C1738 1.381 . S
C1739 C1741 1.381 . S
C1739 C1742 1.487 . S
C1740 C1737 1.382 . S
C1740 C1741 1.387 . S
C1740 H1760 0.930 . S
C1741 C1739 1.381 . S
C1741 C1740 1.387 . S
C1741 H1761 0.931 . S
C1742 C1739 1.487 . S
C1742 C1749 1.399 . S
C1742 N1767 1.343 . S
C1743 C1744 1.384 . S
C1743 C1745 1.384 . S
C1743 H1762 0.931 . S
C1744 C1743 1.384 . S
C1744 C1747 1.382 . S
C1745 C1743 1.384 . S
C1745 C1746 1.381 . S
C1745 H1763 0.930 . S
C1746 C1745 1.381 . S
C1746 C1748 1.381 . S
C1746 C1749 1.487 . S
C1747 C1744 1.382 . S
C1747 C1748 1.387 . S
C1747 H1764 0.930 . S
C1748 C1746 1.381 . S
C1748 C1747 1.387 . S
C1748 H1765 0.931 . S
C1749 C1742 1.399 . S
C1749 C1746 1.487 . S
C1749 N1766 1.343 . S
H1750 C1722 0.931 . S
H1751 C1724 0.930 . S
H1752 C1726 0.930 . S
H1753 C1727 0.931 . S
H1754 C1729 0.931 . S
H1755 C1731 0.930 . S
H1756 C1733 0.930 . S
H1757 C1734 0.931 . S
H1758 C1736 0.931 . S
H1759 C1738 0.930 . S
H1760 C1740 0.930 . S
H1761 C1741 0.931 . S
H1762 C1743 0.931 . S
H1763 C1745 0.930 . S
H1764 C1747 0.930 . S
H1765 C1748 0.931 . S
N1766 C1728 1.343 . S
N1766 C1749 1.343 . S
N1767 C1735 1.343 . S
N1767 C1742 1.343 . S
C1768 C1769 1.384 . S
C1768 C1770 1.384 . S
C1768 H1796 0.931 . S
C1769 C1768 1.384 . S
C1769 C1772 1.382 . S
C1770 C1768 1.384 . S
C1770 C1771 1.381 . S
C1770 H1797 0.930 . S
C1771 C1770 1.381 . S
C1771 C1773 1.381 . S
C1771 C1774 1.487 . S
C1772 C1769 1.382 . S
C1772 C1773 1.387 . S
C1772 H1798 0.930 . S
C1773 C1771 1.381 . S
C1773 C1772 1.387 . S
C1773 H1799 0.931 . S
C1774 C1771 1.487 . S
C1774 C1781 1.399 . S
C1774 N1812 1.343 . S
C1775 C1776 1.384 . S
C1775 C1777 1.384 . S
C1775 H1800 0.931 . S
C1776 C1775 1.384 . S
C1776 C1779 1.382 . S
C1777 C1775 1.384 . S
C1777 C1778 1.381 . S
C1777 H1801 0.930 . S
C1778 C1777 1.381 . S
C1778 C1780 1.381 . S
C1778 C1781 1.487 . S
C1779 C1776 1.382 . S
C1779 C1780 1.387 . S
C1779 H1802 0.930 . S
C1780 C1778 1.381 . S
C1780 C1779 1.387 . S
C1780 H1803 0.931 . S
C1781 C1774 1.399 . S
C1781 C1778 1.487 . S
C1781 N1813 1.343 . S
C1782 C1783 1.384 . S
C1782 C1784 1.384 . S
C1782 H1804 0.931 . S
C1783 C1782 1.384 . S
C1783 C1786 1.382 . S
C1784 C1782 1.384 . S
C1784 C1785 1.381 . S
C1784 H1805 0.930 . S
C1785 C1784 1.381 . S
C1785 C1787 1.381 . S
C1785 C1788 1.487 . S
C1786 C1783 1.382 . S
C1786 C1787 1.387 . S
C1786 H1806 0.930 . S
C1787 C1785 1.381 . S
C1787 C1786 1.387 . S
C1787 H1807 0.931 . S
C1788 C1785 1.487 . S
C1788 C1795 1.399 . S
C1788 N1813 1.343 . S
C1789 C1790 1.384 . S
C1789 C1791 1.384 . S
C1789 H1808 0.931 . S
C1790 C1789 1.384 . S
C1790 C1793 1.382 . S
C1791 C1789 1.384 . S
C1791 C1792 1.381 . S
C1791 H1809 0.930 . S
C1792 C1791 1.381 . S
C1792 C1794 1.381 . S
C1792 C1795 1.487 . S
C1793 C1790 1.382 . S
C1793 C1794 1.387 . S
C1793 H1810 0.930 . S
C1794 C1792 1.381 . S
C1794 C1793 1.387 . S
C1794 H1811 0.931 . S
C1795 C1788 1.399 . S
C1795 C1792 1.487 . S
C1795 N1812 1.343 . S
H1796 C1768 0.931 . S
H1797 C1770 0.930 . S
H1798 C1772 0.930 . S
H1799 C1773 0.931 . S
H1800 C1775 0.931 . S
H1801 C1777 0.930 . S
H1802 C1779 0.930 . S
H1803 C1780 0.931 . S
H1804 C1782 0.931 . S
H1805 C1784 0.930 . S
H1806 C1786 0.930 . S
H1807 C1787 0.931 . S
H1808 C1789 0.931 . S
H1809 C1791 0.930 . S
H1810 C1793 0.930 . S
H1811 C1794 0.931 . S
N1812 C1774 1.343 . S
N1812 C1795 1.343 . S
N1813 C1781 1.343 . S
N1813 C1788 1.343 . S
C1814 C1815 1.384 . S
C1814 C1816 1.384 . S
C1814 H1842 0.931 . S
C1815 C1814 1.384 . S
C1815 C1818 1.382 . S
C1816 C1814 1.384 . S
C1816 C1817 1.381 . S
C1816 H1843 0.930 . S
C1817 C1816 1.381 . S
C1817 C1819 1.381 . S
C1817 C1820 1.487 . S
C1818 C1815 1.382 . S
C1818 C1819 1.387 . S
C1818 H1844 0.930 . S
C1819 C1817 1.381 . S
C1819 C1818 1.387 . S
C1819 H1845 0.931 . S
C1820 C1817 1.487 . S
C1820 C1827 1.399 . S
C1820 N1858 1.343 . S
C1821 C1822 1.384 . S
C1821 C1823 1.384 . S
C1821 H1846 0.931 . S
C1822 C1821 1.384 . S
C1822 C1825 1.382 . S
C1823 C1821 1.384 . S
C1823 C1824 1.381 . S
C1823 H1847 0.930 . S
C1824 C1823 1.381 . S
C1824 C1826 1.381 . S
C1824 C1827 1.487 . S
C1825 C1822 1.382 . S
C1825 C1826 1.387 . S
C1825 H1848 0.930 . S
C1826 C1824 1.381 . S
C1826 C1825 1.387 . S
C1826 H1849 0.931 . S
C1827 C1820 1.399 . S
C1827 C1824 1.487 . S
C1827 N1859 1.343 . S
C1828 C1829 1.384 . S
C1828 C1830 1.384 . S
C1828 H1850 0.931 . S
C1829 C1828 1.384 . S
C1829 C1832 1.382 . S
C1830 C1828 1.384 . S
C1830 C1831 1.381 . S
C1830 H1851 0.930 . S
C1831 C1830 1.381 . S
C1831 C1833 1.381 . S
C1831 C1834 1.487 . S
C1832 C1829 1.382 . S
C1832 C1833 1.387 . S
C1832 H1852 0.930 . S
C1833 C1831 1.381 . S
C1833 C1832 1.387 . S
C1833 H1853 0.931 . S
C1834 C1831 1.487 . S
C1834 C1841 1.399 . S
C1834 N1859 1.343 . S
C1835 C1836 1.384 . S
C1835 C1837 1.384 . S
C1835 H1854 0.931 . S
C1836 C1835 1.384 . S
C1836 C1839 1.382 . S
C1837 C1835 1.384 . S
C1837 C1838 1.381 . S
C1837 H1855 0.930 . S
C1838 C1837 1.381 . S
C1838 C1840 1.381 . S
C1838 C1841 1.487 . S
C1839 C1836 1.382 . S
C1839 C1840 1.387 . S
C1839 H1856 0.930 . S
C1840 C1838 1.381 . S
C1840 C1839 1.387 . S
C1840 H1857 0.931 . S
C1841 C1834 1.399 . S
C1841 C1838 1.487 . S
C1841 N1858 1.343 . S
H1842 C1814 0.931 . S
H1843 C1816 0.930 . S
H1844 C1818 0.930 . S
H1845 C1819 0.931 . S
H1846 C1821 0.931 . S
H1847 C1823 0.930 . S
H1848 C1825 0.930 . S
H1849 C1826 0.931 . S
H1850 C1828 0.931 . S
H1851 C1830 0.930 . S
H1852 C1832 0.930 . S
H1853 C1833 0.931 . S
H1854 C1835 0.931 . S
H1855 C1837 0.930 . S
H1856 C1839 0.930 . S
H1857 C1840 0.931 . S
N1858 C1820 1.343 . S
N1858 C1841 1.343 . S
N1859 C1827 1.343 . S
N1859 C1834 1.343 . S
C1860 C1861 1.384 . S
C1860 C1862 1.384 . S
C1860 H1888 0.931 . S
C1861 C1860 1.384 . S
C1861 C1864 1.382 . S
C1862 C1860 1.384 . S
C1862 C1863 1.381 . S
C1862 H1889 0.930 . S
C1863 C1862 1.381 . S
C1863 C1865 1.381 . S
C1863 C1866 1.487 . S
C1864 C1861 1.382 . S
C1864 C1865 1.387 . S
C1864 H1890 0.930 . S
C1865 C1863 1.381 . S
C1865 C1864 1.387 . S
C1865 H1891 0.931 . S
C1866 C1863 1.487 . S
C1866 C1873 1.399 . S
C1866 N1904 1.343 . S
C1867 C1868 1.384 . S
C1867 C1869 1.384 . S
C1867 H1892 0.931 . S
C1868 C1867 1.384 . S
C1868 C1871 1.382 . S
C1869 C1867 1.384 . S
C1869 C1870 1.381 . S
C1869 H1893 0.930 . S
C1870 C1869 1.381 . S
C1870 C1872 1.381 . S
C1870 C1873 1.487 . S
C1871 C1868 1.382 . S
C1871 C1872 1.387 . S
C1871 H1894 0.930 . S
C1872 C1870 1.381 . S
C1872 C1871 1.387 . S
C1872 H1895 0.931 . S
C1873 C1866 1.399 . S
C1873 C1870 1.487 . S
C1873 N1905 1.343 . S
C1874 C1875 1.384 . S
C1874 C1876 1.384 . S
C1874 H1896 0.931 . S
C1875 C1874 1.384 . S
C1875 C1878 1.382 . S
C1876 C1874 1.384 . S
C1876 C1877 1.381 . S
C1876 H1897 0.930 . S
C1877 C1876 1.381 . S
C1877 C1879 1.381 . S
C1877 C1880 1.487 . S
C1878 C1875 1.382 . S
C1878 C1879 1.387 . S
C1878 H1898 0.930 . S
C1879 C1877 1.381 . S
C1879 C1878 1.387 . S
C1879 H1899 0.931 . S
C1880 C1877 1.487 . S
C1880 C1887 1.399 . S
C1880 N1905 1.343 . S
C1881 C1882 1.384 . S
C1881 C1883 1.384 . S
C1881 H1900 0.931 . S
C1882 C1881 1.384 . S
C1882 C1885 1.382 . S
C1883 C1881 1.384 . S
C1883 C1884 1.381 . S
C1883 H1901 0.930 . S
C1884 C1883 1.381 . S
C1884 C1886 1.381 . S
C1884 C1887 1.487 . S
C1885 C1882 1.382 . S
C1885 C1886 1.387 . S
C1885 H1902 0.930 . S
C1886 C1884 1.381 . S
C1886 C1885 1.387 . S
C1886 H1903 0.931 . S
C1887 C1880 1.399 . S
C1887 C1884 1.487 . S
C1887 N1904 1.343 . S
H1888 C1860 0.931 . S
H1889 C1862 0.930 . S
H1890 C1864 0.930 . S
H1891 C1865 0.931 . S
H1892 C1867 0.931 . S
H1893 C1869 0.930 . S
H1894 C1871 0.930 . S
H1895 C1872 0.931 . S
H1896 C1874 0.931 . S
H1897 C1876 0.930 . S
H1898 C1878 0.930 . S
H1899 C1879 0.931 . S
H1900 C1881 0.931 . S
H1901 C1883 0.930 . S
H1902 C1885 0.930 . S
H1903 C1886 0.931 . S
N1904 C1866 1.343 . S
N1904 C1887 1.343 . S
N1905 C1873 1.343 . S
N1905 C1880 1.343 . S
C1906 C1907 1.384 . S
C1906 C1908 1.384 . S
C1906 H1934 0.931 . S
C1907 C1906 1.384 . S
C1907 C1910 1.382 . S
C1908 C1906 1.384 . S
C1908 C1909 1.381 . S
C1908 H1935 0.930 . S
C1909 C1908 1.381 . S
C1909 C1911 1.381 . S
C1909 C1912 1.487 . S
C1910 C1907 1.382 . S
C1910 C1911 1.387 . S
C1910 H1936 0.930 . S
C1911 C1909 1.381 . S
C1911 C1910 1.387 . S
C1911 H1937 0.931 . S
C1912 C1909 1.487 . S
C1912 C1919 1.399 . S
C1912 N1950 1.343 . S
C1913 C1914 1.384 . S
C1913 C1915 1.384 . S
C1913 H1938 0.931 . S
C1914 C1913 1.384 . S
C1914 C1917 1.382 . S
C1915 C1913 1.384 . S
C1915 C1916 1.381 . S
C1915 H1939 0.930 . S
C1916 C1915 1.381 . S
C1916 C1918 1.381 . S
C1916 C1919 1.487 . S
C1917 C1914 1.382 . S
C1917 C1918 1.387 . S
C1917 H1940 0.930 . S
C1918 C1916 1.381 . S
C1918 C1917 1.387 . S
C1918 H1941 0.931 . S
C1919 C1912 1.399 . S
C1919 C1916 1.487 . S
C1919 N1951 1.343 . S
C1920 C1921 1.384 . S
C1920 C1922 1.384 . S
C1920 H1942 0.931 . S
C1921 C1920 1.384 . S
C1921 C1924 1.382 . S
C1922 C1920 1.384 . S
C1922 C1923 1.381 . S
C1922 H1943 0.930 . S
C1923 C1922 1.381 . S
C1923 C1925 1.381 . S
C1923 C1926 1.487 . S
C1924 C1921 1.382 . S
C1924 C1925 1.387 . S
C1924 H1944 0.930 . S
C1925 C1923 1.381 . S
C1925 C1924 1.387 . S
C1925 H1945 0.931 . S
C1926 C1923 1.487 . S
C1926 C1933 1.399 . S
C1926 N1951 1.343 . S
C1927 C1928 1.384 . S
C1927 C1929 1.384 . S
C1927 H1946 0.931 . S
C1928 C1927 1.384 . S
C1928 C1931 1.382 . S
C1929 C1927 1.384 . S
C1929 C1930 1.381 . S
C1929 H1947 0.930 . S
C1930 C1929 1.381 . S
C1930 C1932 1.381 . S
C1930 C1933 1.487 . S
C1931 C1928 1.382 . S
C1931 C1932 1.387 . S
C1931 H1948 0.930 . S
C1932 C1930 1.381 . S
C1932 C1931 1.387 . S
C1932 H1949 0.931 . S
C1933 C1926 1.399 . S
C1933 C1930 1.487 . S
C1933 N1950 1.343 . S
H1934 C1906 0.931 . S
H1935 C1908 0.930 . S
H1936 C1910 0.930 . S
H1937 C1911 0.931 . S
H1938 C1913 0.931 . S
H1939 C1915 0.930 . S
H1940 C1917 0.930 . S
H1941 C1918 0.931 . S
H1942 C1920 0.931 . S
H1943 C1922 0.930 . S
H1944 C1924 0.930 . S
H1945 C1925 0.931 . S
H1946 C1927 0.931 . S
H1947 C1929 0.930 . S
H1948 C1931 0.930 . S
H1949 C1932 0.931 . S
N1950 C1912 1.343 . S
N1950 C1933 1.343 . S
N1951 C1919 1.343 . S
N1951 C1926 1.343 . S
C1952 C1953 1.384 . S
C1952 C1954 1.384 . S
C1952 H1980 0.931 . S
C1953 C1952 1.384 . S
C1953 C1956 1.382 . S
C1954 C1952 1.384 . S
C1954 C1955 1.381 . S
C1954 H1981 0.930 . S
C1955 C1954 1.381 . S
C1955 C1957 1.381 . S
C1955 C1958 1.487 . S
C1956 C1953 1.382 . S
C1956 C1957 1.387 . S
C1956 H1982 0.930 . S
C1957 C1955 1.381 . S
C1957 C1956 1.387 . S
C1957 H1983 0.931 . S
C1958 C1955 1.487 . S
C1958 C1965 1.399 . S
C1958 N1996 1.343 . S
C1959 C1960 1.384 . S
C1959 C1961 1.384 . S
C1959 H1984 0.931 . S
C1960 C1959 1.384 . S
C1960 C1963 1.382 . S
C1961 C1959 1.384 . S
C1961 C1962 1.381 . S
C1961 H1985 0.930 . S
C1962 C1961 1.381 . S
C1962 C1964 1.381 . S
C1962 C1965 1.487 . S
C1963 C1960 1.382 . S
C1963 C1964 1.387 . S
C1963 H1986 0.930 . S
C1964 C1962 1.381 . S
C1964 C1963 1.387 . S
C1964 H1987 0.931 . S
C1965 C1958 1.399 . S
C1965 C1962 1.487 . S
C1965 N1997 1.343 . S
C1966 C1967 1.384 . S
C1966 C1968 1.384 . S
C1966 H1988 0.931 . S
C1967 C1966 1.384 . S
C1967 C1970 1.382 . S
C1968 C1966 1.384 . S
C1968 C1969 1.381 . S
C1968 H1989 0.930 . S
C1969 C1968 1.381 . S
C1969 C1971 1.381 . S
C1969 C1972 1.487 . S
C1970 C1967 1.382 . S
C1970 C1971 1.387 . S
C1970 H1990 0.930 . S
C1971 C1969 1.381 . S
C1971 C1970 1.387 . S
C1971 H1991 0.931 . S
C1972 C1969 1.487 . S
C1972 C1979 1.399 . S
C1972 N1997 1.343 . S
C1973 C1974 1.384 . S
C1973 C1975 1.384 . S
C1973 H1992 0.931 . S
C1974 C1973 1.384 . S
C1974 C1977 1.382 . S
C1975 C1973 1.384 . S
C1975 C1976 1.381 . S
C1975 H1993 0.930 . S
C1976 C1975 1.381 . S
C1976 C1978 1.381 . S
C1976 C1979 1.487 . S
C1977 C1974 1.382 . S
C1977 C1978 1.387 . S
C1977 H1994 0.930 . S
C1978 C1976 1.381 . S
C1978 C1977 1.387 . S
C1978 H1995 0.931 . S
C1979 C1972 1.399 . S
C1979 C1976 1.487 . S
C1979 N1996 1.343 . S
H1980 C1952 0.931 . S
H1981 C1954 0.930 . S
H1982 C1956 0.930 . S
H1983 C1957 0.931 . S
H1984 C1959 0.931 . S
H1985 C1961 0.930 . S
H1986 C1963 0.930 . S
H1987 C1964 0.931 . S
H1988 C1966 0.931 . S
H1989 C1968 0.930 . S
H1990 C1970 0.930 . S
H1991 C1971 0.931 . S
H1992 C1973 0.931 . S
H1993 C1975 0.930 . S
H1994 C1977 0.930 . S
H1995 C1978 0.931 . S
N1996 C1958 1.343 . S
N1996 C1979 1.343 . S
N1997 C1965 1.343 . S
N1997 C1972 1.343 . S
C1998 C1999 1.384 . S
C1998 C2000 1.384 . S
C1998 H2026 0.931 . S
C1999 C1998 1.384 . S
C1999 C2002 1.382 1_655 S
C2000 C1998 1.384 . S
C2000 C2001 1.399 . S
C2000 H2027 0.930 . S
C2001 C2000 1.399 . S
C2001 C2003 1.372 1_655 S
C2001 C2004 1.475 1_655 S
C2002 C1999 1.382 1_455 S
C2002 C2003 1.387 . S
C2002 H2028 0.930 . S
C2003 C2001 1.372 1_455 S
C2003 C2002 1.387 . S
C2003 H2029 0.931 . S
C2004 C2001 1.475 1_455 S
C2004 C2011 1.399 1_455 S
C2004 N2042 1.318 . S
C2005 C2006 1.384 . S
C2005 C2007 1.384 . S
C2005 H2030 0.931 . S
C2006 C2005 1.384 . S
C2006 C2009 1.382 1_455 S
C2007 C2005 1.384 . S
C2007 C2008 1.384 . S
C2007 H2031 0.930 . S
C2008 C2007 1.384 . S
C2008 C2010 1.373 1_455 S
C2008 C2011 1.493 1_455 S
C2009 C2006 1.382 1_655 S
C2009 C2010 1.387 . S
C2009 H2032 0.930 . S
C2010 C2008 1.373 1_655 S
C2010 C2009 1.387 . S
C2010 H2033 0.931 . S
C2011 C2004 1.399 1_655 S
C2011 C2008 1.493 1_655 S
C2011 N2043 1.362 . S
C2012 C2013 1.384 . S
C2012 C2014 1.384 . S
C2012 H2034 0.931 . S
C2013 C2012 1.384 . S
C2013 C2016 1.382 1_455 S
C2014 C2012 1.384 . S
C2014 C2015 1.419 . S
C2014 H2035 0.930 . S
C2015 C2014 1.419 . S
C2015 C2017 1.362 1_455 S
C2015 C2018 1.466 . S
C2016 C2013 1.382 1_655 S
C2016 C2017 1.387 . S
C2016 H2036 0.930 . S
C2017 C2015 1.362 1_655 S
C2017 C2016 1.387 . S
C2017 H2037 0.931 . S
C2018 C2015 1.466 . S
C2018 C2025 1.399 . S
C2018 N2043 1.328 1_455 S
C2019 C2020 1.384 . S
C2019 C2021 1.384 . S
C2019 H2038 0.931 . S
C2020 C2019 1.384 . S
C2020 C2023 1.382 1_655 S
C2021 C2019 1.384 . S
C2021 C2022 1.380 . S
C2021 H2039 0.930 . S
C2022 C2021 1.380 . S
C2022 C2024 1.384 1_655 S
C2022 C2025 1.493 1_655 S
C2023 C2020 1.382 1_455 S
C2023 C2024 1.387 . S
C2023 H2040 0.930 . S
C2024 C2022 1.384 1_455 S
C2024 C2023 1.387 . S
C2024 H2041 0.931 . S
C2025 C2018 1.399 . S
C2025 C2022 1.493 1_455 S
C2025 N2042 1.362 . S
H2026 C1998 0.931 . S
H2027 C2000 0.930 . S
H2028 C2002 0.930 . S
H2029 C2003 0.931 . S
H2030 C2005 0.931 . S
H2031 C2007 0.930 . S
H2032 C2009 0.930 . S
H2033 C2010 0.931 . S
H2034 C2012 0.931 . S
H2035 C2014 0.930 . S
H2036 C2016 0.930 . S
H2037 C2017 0.931 . S
H2038 C2019 0.931 . S
H2039 C2021 0.930 . S
H2040 C2023 0.930 . S
H2041 C2024 0.931 . S
N2042 C2004 1.318 . S
N2042 C2025 1.362 . S
N2043 C2011 1.362 . S
N2043 C2018 1.328 1_655 S
C2044 C2045 1.384 . S
C2044 C2046 1.384 . S
C2044 H2072 0.931 . S
C2045 C2044 1.384 . S
C2045 C2048 1.382 . S
C2046 C2044 1.384 . S
C2046 C2047 1.381 . S
C2046 H2073 0.930 . S
C2047 C2046 1.381 . S
C2047 C2049 1.381 . S
C2047 C2050 1.487 . S
C2048 C2045 1.382 . S
C2048 C2049 1.387 . S
C2048 H2074 0.930 . S
C2049 C2047 1.381 . S
C2049 C2048 1.387 . S
C2049 H2075 0.931 . S
C2050 C2047 1.487 . S
C2050 C2057 1.399 . S
C2050 N2088 1.343 . S
C2051 C2052 1.384 . S
C2051 C2053 1.384 . S
C2051 H2076 0.931 . S
C2052 C2051 1.384 . S
C2052 C2055 1.382 . S
C2053 C2051 1.384 . S
C2053 C2054 1.381 . S
C2053 H2077 0.930 . S
C2054 C2053 1.381 . S
C2054 C2056 1.381 . S
C2054 C2057 1.487 . S
C2055 C2052 1.382 . S
C2055 C2056 1.387 . S
C2055 H2078 0.930 . S
C2056 C2054 1.381 . S
C2056 C2055 1.387 . S
C2056 H2079 0.931 . S
C2057 C2050 1.399 . S
C2057 C2054 1.487 . S
C2057 N2089 1.343 . S
C2058 C2059 1.384 . S
C2058 C2060 1.384 . S
C2058 H2080 0.931 . S
C2059 C2058 1.384 . S
C2059 C2062 1.382 . S
C2060 C2058 1.384 . S
C2060 C2061 1.381 . S
C2060 H2081 0.930 . S
C2061 C2060 1.381 . S
C2061 C2063 1.381 . S
C2061 C2064 1.487 . S
C2062 C2059 1.382 . S
C2062 C2063 1.387 . S
C2062 H2082 0.930 . S
C2063 C2061 1.381 . S
C2063 C2062 1.387 . S
C2063 H2083 0.931 . S
C2064 C2061 1.487 . S
C2064 C2071 1.399 . S
C2064 N2089 1.343 . S
C2065 C2066 1.384 . S
C2065 C2067 1.384 . S
C2065 H2084 0.931 . S
C2066 C2065 1.384 . S
C2066 C2069 1.382 . S
C2067 C2065 1.384 . S
C2067 C2068 1.381 . S
C2067 H2085 0.930 . S
C2068 C2067 1.381 . S
C2068 C2070 1.381 . S
C2068 C2071 1.487 . S
C2069 C2066 1.382 . S
C2069 C2070 1.387 . S
C2069 H2086 0.930 . S
C2070 C2068 1.381 . S
C2070 C2069 1.387 . S
C2070 H2087 0.931 . S
C2071 C2064 1.399 . S
C2071 C2068 1.487 . S
C2071 N2088 1.343 . S
H2072 C2044 0.931 . S
H2073 C2046 0.930 . S
H2074 C2048 0.930 . S
H2075 C2049 0.931 . S
H2076 C2051 0.931 . S
H2077 C2053 0.930 . S
H2078 C2055 0.930 . S
H2079 C2056 0.931 . S
H2080 C2058 0.931 . S
H2081 C2060 0.930 . S
H2082 C2062 0.930 . S
H2083 C2063 0.931 . S
H2084 C2065 0.931 . S
H2085 C2067 0.930 . S
H2086 C2069 0.930 . S
H2087 C2070 0.931 . S
N2088 C2050 1.343 . S
N2088 C2071 1.343 . S
N2089 C2057 1.343 . S
N2089 C2064 1.343 . S
C2090 C2091 1.384 1_545 S
C2090 C2092 1.384 . S
C2090 H2118 0.931 . S
C2091 C2090 1.384 1_565 S
C2091 C2094 1.382 . S
C2092 C2090 1.384 . S
C2092 C2093 1.381 1_545 S
C2092 H2119 0.930 . S
C2093 C2092 1.381 1_565 S
C2093 C2095 1.381 . S
C2093 C2096 1.487 . S
C2094 C2091 1.382 . S
C2094 C2095 1.387 . S
C2094 H2120 0.930 . S
C2095 C2093 1.381 . S
C2095 C2094 1.387 . S
C2095 H2121 0.931 . S
C2096 C2093 1.487 . S
C2096 C2103 1.399 1_565 S
C2096 N2134 1.343 . S
C2097 C2098 1.384 1_565 S
C2097 C2099 1.384 . S
C2097 H2122 0.931 . S
C2098 C2097 1.384 1_545 S
C2098 C2101 1.382 . S
C2099 C2097 1.384 . S
C2099 C2100 1.381 1_565 S
C2099 H2123 0.930 . S
C2100 C2099 1.381 1_545 S
C2100 C2102 1.381 . S
C2100 C2103 1.487 . S
C2101 C2098 1.382 . S
C2101 C2102 1.387 . S
C2101 H2124 0.930 . S
C2102 C2100 1.381 . S
C2102 C2101 1.387 . S
C2102 H2125 0.931 . S
C2103 C2096 1.399 1_545 S
C2103 C2100 1.487 . S
C2103 N2135 1.343 . S
C2104 C2105 1.384 1_565 S
C2104 C2106 1.384 . S
C2104 H2126 0.931 . S
C2105 C2104 1.384 1_545 S
C2105 C2108 1.382 . S
C2106 C2104 1.384 . S
C2106 C2107 1.381 1_565 S
C2106 H2127 0.930 . S
C2107 C2106 1.381 1_545 S
C2107 C2109 1.381 . S
C2107 C2110 1.487 . S
C2108 C2105 1.382 . S
C2108 C2109 1.387 . S
C2108 H2128 0.930 . S
C2109 C2107 1.381 . S
C2109 C2108 1.387 . S
C2109 H2129 0.931 . S
C2110 C2107 1.487 . S
C2110 C2117 1.399 1_545 S
C2110 N2135 1.343 . S
C2111 C2112 1.384 1_545 S
C2111 C2113 1.384 . S
C2111 H2130 0.931 . S
C2112 C2111 1.384 1_565 S
C2112 C2115 1.382 . S
C2113 C2111 1.384 . S
C2113 C2114 1.381 1_545 S
C2113 H2131 0.930 . S
C2114 C2113 1.381 1_565 S
C2114 C2116 1.381 . S
C2114 C2117 1.487 . S
C2115 C2112 1.382 . S
C2115 C2116 1.387 . S
C2115 H2132 0.930 . S
C2116 C2114 1.381 . S
C2116 C2115 1.387 . S
C2116 H2133 0.931 . S
C2117 C2110 1.399 1_565 S
C2117 C2114 1.487 . S
C2117 N2134 1.343 . S
H2118 C2090 0.931 . S
H2119 C2092 0.930 . S
H2120 C2094 0.930 . S
H2121 C2095 0.931 . S
H2122 C2097 0.931 . S
H2123 C2099 0.930 . S
H2124 C2101 0.930 . S
H2125 C2102 0.931 . S
H2126 C2104 0.931 . S
H2127 C2106 0.930 . S
H2128 C2108 0.930 . S
H2129 C2109 0.931 . S
H2130 C2111 0.931 . S
H2131 C2113 0.930 . S
H2132 C2115 0.930 . S
H2133 C2116 0.931 . S
N2134 C2096 1.343 . S
N2134 C2117 1.343 . S
N2135 C2103 1.343 . S
N2135 C2110 1.343 . S
C2136 C2137 1.384 . S
C2136 C2138 1.384 . S
C2136 H2164 0.931 . S
C2137 C2136 1.384 . S
C2137 C2140 1.382 1_545 S
C2138 C2136 1.384 . S
C2138 C2139 1.385 . S
C2138 H2165 0.930 . S
C2139 C2138 1.385 . S
C2139 C2141 1.372 1_545 S
C2139 C2142 1.493 1_545 S
C2140 C2137 1.382 1_565 S
C2140 C2141 1.387 . S
C2140 H2166 0.930 . S
C2141 C2139 1.372 1_565 S
C2141 C2140 1.387 . S
C2141 H2167 0.931 . S
C2142 C2139 1.493 1_565 S
C2142 C2149 1.399 1_565 S
C2142 N2180 1.362 . S
C2143 C2144 1.384 . S
C2143 C2145 1.384 . S
C2143 H2168 0.931 . S
C2144 C2143 1.384 . S
C2144 C2147 1.382 1_565 S
C2145 C2143 1.384 . S
C2145 C2146 1.399 . S
C2145 H2169 0.930 . S
C2146 C2145 1.399 . S
C2146 C2148 1.372 1_565 S
C2146 C2149 1.475 1_565 S
C2147 C2144 1.382 1_545 S
C2147 C2148 1.387 . S
C2147 H2170 0.930 . S
C2148 C2146 1.372 1_545 S
C2148 C2147 1.387 . S
C2148 H2171 0.931 . S
C2149 C2142 1.399 1_545 S
C2149 C2146 1.475 1_545 S
C2149 N2181 1.318 . S
C2150 C2151 1.384 . S
C2150 C2152 1.384 . S
C2150 H2172 0.931 . S
C2151 C2150 1.384 . S
C2151 C2154 1.382 1_565 S
C2152 C2150 1.384 . S
C2152 C2153 1.380 . S
C2152 H2173 0.930 . S
C2153 C2152 1.380 . S
C2153 C2155 1.384 1_565 S
C2153 C2156 1.493 1_565 S
C2154 C2151 1.382 1_545 S
C2154 C2155 1.387 . S
C2154 H2174 0.930 . S
C2155 C2153 1.384 1_545 S
C2155 C2154 1.387 . S
C2155 H2175 0.931 . S
C2156 C2153 1.493 1_545 S
C2156 C2163 1.399 . S
C2156 N2181 1.362 . S
C2157 C2158 1.384 . S
C2157 C2159 1.384 . S
C2157 H2176 0.931 . S
C2158 C2157 1.384 . S
C2158 C2161 1.382 1_545 S
C2159 C2157 1.384 . S
C2159 C2160 1.419 . S
C2159 H2177 0.930 . S
C2160 C2159 1.419 . S
C2160 C2162 1.362 1_545 S
C2160 C2163 1.466 . S
C2161 C2158 1.382 1_565 S
C2161 C2162 1.387 . S
C2161 H2178 0.930 . S
C2162 C2160 1.362 1_565 S
C2162 C2161 1.387 . S
C2162 H2179 0.931 . S
C2163 C2156 1.399 . S
C2163 C2160 1.466 . S
C2163 N2180 1.328 1_545 S
H2164 C2136 0.931 . S
H2165 C2138 0.930 . S
H2166 C2140 0.930 . S
H2167 C2141 0.931 . S
H2168 C2143 0.931 . S
H2169 C2145 0.930 . S
H2170 C2147 0.930 . S
H2171 C2148 0.931 . S
H2172 C2150 0.931 . S
H2173 C2152 0.930 . S
H2174 C2154 0.930 . S
H2175 C2155 0.931 . S
H2176 C2157 0.931 . S
H2177 C2159 0.930 . S
H2178 C2161 0.930 . S
H2179 C2162 0.931 . S
N2180 C2142 1.362 . S
N2180 C2163 1.328 1_565 S
N2181 C2149 1.318 . S
N2181 C2156 1.362 . S
C2182 C2183 1.384 . S
C2182 C2184 1.384 . S
C2182 H2210 0.931 . S
C2183 C2182 1.384 . S
C2183 C2186 1.382 1_655 S
C2184 C2182 1.384 . S
C2184 C2185 1.424 . S
C2184 H2211 0.930 . S
C2185 C2184 1.424 . S
C2185 C2187 1.360 1_655 S
C2185 C2188 1.465 . S
C2186 C2183 1.382 1_455 S
C2186 C2187 1.387 . S
C2186 H2212 0.930 . S
C2187 C2185 1.360 1_455 S
C2187 C2186 1.387 . S
C2187 H2213 0.931 . S
C2188 C2185 1.465 . S
C2188 C2195 1.399 . S
C2188 N2226 1.329 1_655 S
C2189 C2190 1.384 . S
C2189 C2191 1.384 . S
C2189 H2214 0.931 . S
C2190 C2189 1.384 . S
C2190 C2193 1.382 1_455 S
C2191 C2189 1.384 . S
C2191 C2192 1.381 . S
C2191 H2215 0.930 . S
C2192 C2191 1.381 . S
C2192 C2194 1.381 1_455 S
C2192 C2195 1.494 1_455 S
C2193 C2190 1.382 1_655 S
C2193 C2194 1.387 . S
C2193 H2216 0.930 . S
C2194 C2192 1.381 1_655 S
C2194 C2193 1.387 . S
C2194 H2217 0.931 . S
C2195 C2188 1.399 . S
C2195 C2192 1.494 1_655 S
C2195 N2227 1.360 . S
C2196 C2197 1.384 . S
C2196 C2198 1.384 . S
C2196 H2218 0.931 . S
C2197 C2196 1.384 . S
C2197 C2200 1.382 1_455 S
C2198 C2196 1.384 . S
C2198 C2199 1.404 . S
C2198 H2219 0.930 . S
C2199 C2198 1.404 . S
C2199 C2201 1.370 1_455 S
C2199 C2202 1.474 1_455 S
C2200 C2197 1.382 1_655 S
C2200 C2201 1.387 . S
C2200 H2220 0.930 . S
C2201 C2199 1.370 1_655 S
C2201 C2200 1.387 . S
C2201 H2221 0.931 . S
C2202 C2199 1.474 1_655 S
C2202 C2209 1.399 1_655 S
C2202 N2227 1.319 . S
C2203 C2204 1.384 . S
C2203 C2205 1.384 . S
C2203 H2222 0.931 . S
C2204 C2203 1.384 . S
C2204 C2207 1.382 1_655 S
C2205 C2203 1.384 . S
C2205 C2206 1.386 . S
C2205 H2223 0.930 . S
C2206 C2205 1.386 . S
C2206 C2208 1.370 1_655 S
C2206 C2209 1.494 1_655 S
C2207 C2204 1.382 1_455 S
C2207 C2208 1.387 . S
C2207 H2224 0.930 . S
C2208 C2206 1.370 1_455 S
C2208 C2207 1.387 . S
C2208 H2225 0.931 . S
C2209 C2202 1.399 1_455 S
C2209 C2206 1.494 1_455 S
C2209 N2226 1.360 . S
H2210 C2182 0.931 . S
H2211 C2184 0.930 . S
H2212 C2186 0.930 . S
H2213 C2187 0.931 . S
H2214 C2189 0.931 . S
H2215 C2191 0.930 . S
H2216 C2193 0.930 . S
H2217 C2194 0.931 . S
H2218 C2196 0.931 . S
H2219 C2198 0.930 . S
H2220 C2200 0.930 . S
H2221 C2201 0.931 . S
H2222 C2203 0.931 . S
H2223 C2205 0.930 . S
H2224 C2207 0.930 . S
H2225 C2208 0.931 . S
N2226 C2188 1.329 1_455 S
N2226 C2209 1.360 . S
N2227 C2195 1.360 . S
N2227 C2202 1.319 . S
C2228 C2229 1.384 . S
C2228 C2230 1.384 . S
C2228 H2256 0.931 . S
C2229 C2228 1.384 . S
C2229 C2232 1.382 . S
C2230 C2228 1.384 . S
C2230 C2231 1.381 . S
C2230 H2257 0.930 . S
C2231 C2230 1.381 . S
C2231 C2233 1.381 . S
C2231 C2234 1.487 . S
C2232 C2229 1.382 . S
C2232 C2233 1.387 . S
C2232 H2258 0.930 . S
C2233 C2231 1.381 . S
C2233 C2232 1.387 . S
C2233 H2259 0.931 . S
C2234 C2231 1.487 . S
C2234 C2241 1.399 . S
C2234 N2272 1.343 . S
C2235 C2236 1.384 . S
C2235 C2237 1.384 . S
C2235 H2260 0.931 . S
C2236 C2235 1.384 . S
C2236 C2239 1.382 . S
C2237 C2235 1.384 . S
C2237 C2238 1.381 . S
C2237 H2261 0.930 . S
C2238 C2237 1.381 . S
C2238 C2240 1.381 . S
C2238 C2241 1.487 . S
C2239 C2236 1.382 . S
C2239 C2240 1.387 . S
C2239 H2262 0.930 . S
C2240 C2238 1.381 . S
C2240 C2239 1.387 . S
C2240 H2263 0.931 . S
C2241 C2234 1.399 . S
C2241 C2238 1.487 . S
C2241 N2273 1.343 . S
C2242 C2243 1.384 . S
C2242 C2244 1.384 . S
C2242 H2264 0.931 . S
C2243 C2242 1.384 . S
C2243 C2246 1.382 . S
C2244 C2242 1.384 . S
C2244 C2245 1.381 . S
C2244 H2265 0.930 . S
C2245 C2244 1.381 . S
C2245 C2247 1.381 . S
C2245 C2248 1.487 . S
C2246 C2243 1.382 . S
C2246 C2247 1.387 . S
C2246 H2266 0.930 . S
C2247 C2245 1.381 . S
C2247 C2246 1.387 . S
C2247 H2267 0.931 . S
C2248 C2245 1.487 . S
C2248 C2255 1.399 . S
C2248 N2273 1.343 . S
C2249 C2250 1.384 . S
C2249 C2251 1.384 . S
C2249 H2268 0.931 . S
C2250 C2249 1.384 . S
C2250 C2253 1.382 . S
C2251 C2249 1.384 . S
C2251 C2252 1.381 . S
C2251 H2269 0.930 . S
C2252 C2251 1.381 . S
C2252 C2254 1.381 . S
C2252 C2255 1.487 . S
C2253 C2250 1.382 . S
C2253 C2254 1.387 . S
C2253 H2270 0.930 . S
C2254 C2252 1.381 . S
C2254 C2253 1.387 . S
C2254 H2271 0.931 . S
C2255 C2248 1.399 . S
C2255 C2252 1.487 . S
C2255 N2272 1.343 . S
H2256 C2228 0.931 . S
H2257 C2230 0.930 . S
H2258 C2232 0.930 . S
H2259 C2233 0.931 . S
H2260 C2235 0.931 . S
H2261 C2237 0.930 . S
H2262 C2239 0.930 . S
H2263 C2240 0.931 . S
H2264 C2242 0.931 . S
H2265 C2244 0.930 . S
H2266 C2246 0.930 . S
H2267 C2247 0.931 . S
H2268 C2249 0.931 . S
H2269 C2251 0.930 . S
H2270 C2253 0.930 . S
H2271 C2254 0.931 . S
N2272 C2234 1.343 . S
N2272 C2255 1.343 . S
N2273 C2241 1.343 . S
N2273 C2248 1.343 . S
C2274 C2275 1.384 . S
C2274 C2276 1.384 . S
C2274 H2302 0.931 . S
C2275 C2274 1.384 . S
C2275 C2278 1.382 . S
C2276 C2274 1.384 . S
C2276 C2277 1.381 . S
C2276 H2303 0.930 . S
C2277 C2276 1.381 . S
C2277 C2279 1.381 . S
C2277 C2280 1.487 . S
C2278 C2275 1.382 . S
C2278 C2279 1.387 . S
C2278 H2304 0.930 . S
C2279 C2277 1.381 . S
C2279 C2278 1.387 . S
C2279 H2305 0.931 . S
C2280 C2277 1.487 . S
C2280 C2287 1.399 . S
C2280 N2318 1.343 . S
C2281 C2282 1.384 . S
C2281 C2283 1.384 . S
C2281 H2306 0.931 . S
C2282 C2281 1.384 . S
C2282 C2285 1.382 . S
C2283 C2281 1.384 . S
C2283 C2284 1.381 . S
C2283 H2307 0.930 . S
C2284 C2283 1.381 . S
C2284 C2286 1.381 . S
C2284 C2287 1.487 . S
C2285 C2282 1.382 . S
C2285 C2286 1.387 . S
C2285 H2308 0.930 . S
C2286 C2284 1.381 . S
C2286 C2285 1.387 . S
C2286 H2309 0.931 . S
C2287 C2280 1.399 . S
C2287 C2284 1.487 . S
C2287 N2319 1.343 . S
C2288 C2289 1.384 . S
C2288 C2290 1.384 . S
C2288 H2310 0.931 . S
C2289 C2288 1.384 . S
C2289 C2292 1.382 . S
C2290 C2288 1.384 . S
C2290 C2291 1.381 . S
C2290 H2311 0.930 . S
C2291 C2290 1.381 . S
C2291 C2293 1.381 . S
C2291 C2294 1.487 . S
C2292 C2289 1.382 . S
C2292 C2293 1.387 . S
C2292 H2312 0.930 . S
C2293 C2291 1.381 . S
C2293 C2292 1.387 . S
C2293 H2313 0.931 . S
C2294 C2291 1.487 . S
C2294 C2301 1.399 . S
C2294 N2319 1.343 . S
C2295 C2296 1.384 . S
C2295 C2297 1.384 . S
C2295 H2314 0.931 . S
C2296 C2295 1.384 . S
C2296 C2299 1.382 . S
C2297 C2295 1.384 . S
C2297 C2298 1.381 . S
C2297 H2315 0.930 . S
C2298 C2297 1.381 . S
C2298 C2300 1.381 . S
C2298 C2301 1.487 . S
C2299 C2296 1.382 . S
C2299 C2300 1.387 . S
C2299 H2316 0.930 . S
C2300 C2298 1.381 . S
C2300 C2299 1.387 . S
C2300 H2317 0.931 . S
C2301 C2294 1.399 . S
C2301 C2298 1.487 . S
C2301 N2318 1.343 . S
H2302 C2274 0.931 . S
H2303 C2276 0.930 . S
H2304 C2278 0.930 . S
H2305 C2279 0.931 . S
H2306 C2281 0.931 . S
H2307 C2283 0.930 . S
H2308 C2285 0.930 . S
H2309 C2286 0.931 . S
H2310 C2288 0.931 . S
H2311 C2290 0.930 . S
H2312 C2292 0.930 . S
H2313 C2293 0.931 . S
H2314 C2295 0.931 . S
H2315 C2297 0.930 . S
H2316 C2299 0.930 . S
H2317 C2300 0.931 . S
N2318 C2280 1.343 . S
N2318 C2301 1.343 . S
N2319 C2287 1.343 . S
N2319 C2294 1.343 . S
C2320 C2321 1.384 . S
C2320 C2322 1.384 . S
C2320 H2348 0.931 . S
C2321 C2320 1.384 . S
C2321 C2324 1.382 . S
C2322 C2320 1.384 . S
C2322 C2323 1.381 . S
C2322 H2349 0.930 . S
C2323 C2322 1.381 . S
C2323 C2325 1.381 . S
C2323 C2326 1.487 . S
C2324 C2321 1.382 . S
C2324 C2325 1.387 . S
C2324 H2350 0.930 . S
C2325 C2323 1.381 . S
C2325 C2324 1.387 . S
C2325 H2351 0.931 . S
C2326 C2323 1.487 . S
C2326 C2333 1.399 . S
C2326 N2364 1.343 . S
C2327 C2328 1.384 . S
C2327 C2329 1.384 . S
C2327 H2352 0.931 . S
C2328 C2327 1.384 . S
C2328 C2331 1.382 . S
C2329 C2327 1.384 . S
C2329 C2330 1.381 . S
C2329 H2353 0.930 . S
C2330 C2329 1.381 . S
C2330 C2332 1.381 . S
C2330 C2333 1.487 . S
C2331 C2328 1.382 . S
C2331 C2332 1.387 . S
C2331 H2354 0.930 . S
C2332 C2330 1.381 . S
C2332 C2331 1.387 . S
C2332 H2355 0.931 . S
C2333 C2326 1.399 . S
C2333 C2330 1.487 . S
C2333 N2365 1.343 . S
C2334 C2335 1.384 . S
C2334 C2336 1.384 . S
C2334 H2356 0.931 . S
C2335 C2334 1.384 . S
C2335 C2338 1.382 . S
C2336 C2334 1.384 . S
C2336 C2337 1.381 . S
C2336 H2357 0.930 . S
C2337 C2336 1.381 . S
C2337 C2339 1.381 . S
C2337 C2340 1.487 . S
C2338 C2335 1.382 . S
C2338 C2339 1.387 . S
C2338 H2358 0.930 . S
C2339 C2337 1.381 . S
C2339 C2338 1.387 . S
C2339 H2359 0.931 . S
C2340 C2337 1.487 . S
C2340 C2347 1.399 . S
C2340 N2365 1.343 . S
C2341 C2342 1.384 . S
C2341 C2343 1.384 . S
C2341 H2360 0.931 . S
C2342 C2341 1.384 . S
C2342 C2345 1.382 . S
C2343 C2341 1.384 . S
C2343 C2344 1.381 . S
C2343 H2361 0.930 . S
C2344 C2343 1.381 . S
C2344 C2346 1.381 . S
C2344 C2347 1.487 . S
C2345 C2342 1.382 . S
C2345 C2346 1.387 . S
C2345 H2362 0.930 . S
C2346 C2344 1.381 . S
C2346 C2345 1.387 . S
C2346 H2363 0.931 . S
C2347 C2340 1.399 . S
C2347 C2344 1.487 . S
C2347 N2364 1.343 . S
H2348 C2320 0.931 . S
H2349 C2322 0.930 . S
H2350 C2324 0.930 . S
H2351 C2325 0.931 . S
H2352 C2327 0.931 . S
H2353 C2329 0.930 . S
H2354 C2331 0.930 . S
H2355 C2332 0.931 . S
H2356 C2334 0.931 . S
H2357 C2336 0.930 . S
H2358 C2338 0.930 . S
H2359 C2339 0.931 . S
H2360 C2341 0.931 . S
H2361 C2343 0.930 . S
H2362 C2345 0.930 . S
H2363 C2346 0.931 . S
N2364 C2326 1.343 . S
N2364 C2347 1.343 . S
N2365 C2333 1.343 . S
N2365 C2340 1.343 . S
C2366 C2367 1.384 . S
C2366 C2368 1.384 . S
C2366 H2394 0.931 . S
C2367 C2366 1.384 . S
C2367 C2370 1.382 . S
C2368 C2366 1.384 . S
C2368 C2369 1.381 . S
C2368 H2395 0.930 . S
C2369 C2368 1.381 . S
C2369 C2371 1.381 . S
C2369 C2372 1.487 . S
C2370 C2367 1.382 . S
C2370 C2371 1.387 . S
C2370 H2396 0.930 . S
C2371 C2369 1.381 . S
C2371 C2370 1.387 . S
C2371 H2397 0.931 . S
C2372 C2369 1.487 . S
C2372 C2379 1.399 . S
C2372 N2410 1.343 . S
C2373 C2374 1.384 . S
C2373 C2375 1.384 . S
C2373 H2398 0.931 . S
C2374 C2373 1.384 . S
C2374 C2377 1.382 . S
C2375 C2373 1.384 . S
C2375 C2376 1.381 . S
C2375 H2399 0.930 . S
C2376 C2375 1.381 . S
C2376 C2378 1.381 . S
C2376 C2379 1.487 . S
C2377 C2374 1.382 . S
C2377 C2378 1.387 . S
C2377 H2400 0.930 . S
C2378 C2376 1.381 . S
C2378 C2377 1.387 . S
C2378 H2401 0.931 . S
C2379 C2372 1.399 . S
C2379 C2376 1.487 . S
C2379 N2411 1.343 . S
C2380 C2381 1.384 . S
C2380 C2382 1.384 . S
C2380 H2402 0.931 . S
C2381 C2380 1.384 . S
C2381 C2384 1.382 . S
C2382 C2380 1.384 . S
C2382 C2383 1.381 . S
C2382 H2403 0.930 . S
C2383 C2382 1.381 . S
C2383 C2385 1.381 . S
C2383 C2386 1.487 . S
C2384 C2381 1.382 . S
C2384 C2385 1.387 . S
C2384 H2404 0.930 . S
C2385 C2383 1.381 . S
C2385 C2384 1.387 . S
C2385 H2405 0.931 . S
C2386 C2383 1.487 . S
C2386 C2393 1.399 . S
C2386 N2411 1.343 . S
C2387 C2388 1.384 . S
C2387 C2389 1.384 . S
C2387 H2406 0.931 . S
C2388 C2387 1.384 . S
C2388 C2391 1.382 . S
C2389 C2387 1.384 . S
C2389 C2390 1.381 . S
C2389 H2407 0.930 . S
C2390 C2389 1.381 . S
C2390 C2392 1.381 . S
C2390 C2393 1.487 . S
C2391 C2388 1.382 . S
C2391 C2392 1.387 . S
C2391 H2408 0.930 . S
C2392 C2390 1.381 . S
C2392 C2391 1.387 . S
C2392 H2409 0.931 . S
C2393 C2386 1.399 . S
C2393 C2390 1.487 . S
C2393 N2410 1.343 . S
H2394 C2366 0.931 . S
H2395 C2368 0.930 . S
H2396 C2370 0.930 . S
H2397 C2371 0.931 . S
H2398 C2373 0.931 . S
H2399 C2375 0.930 . S
H2400 C2377 0.930 . S
H2401 C2378 0.931 . S
H2402 C2380 0.931 . S
H2403 C2382 0.930 . S
H2404 C2384 0.930 . S
H2405 C2385 0.931 . S
H2406 C2387 0.931 . S
H2407 C2389 0.930 . S
H2408 C2391 0.930 . S
H2409 C2392 0.931 . S
N2410 C2372 1.343 . S
N2410 C2393 1.343 . S
N2411 C2379 1.343 . S
N2411 C2386 1.343 . S
H2412 C2418 0.930 . S
H2413 C2422 0.930 . S
H2414 C2427 0.929 1_455 S
H2415 C2425 0.929 . S
H2416 C2420 0.929 . S
H2417 C2426 0.929 . S
C2418 H2412 0.930 . S
C2418 C2419 1.367 . S
C2418 C2426 1.378 . S
C2419 C2418 1.367 . S
C2419 C2427 1.433 . S
C2420 H2416 0.929 . S
C2420 C2422 1.378 . S
C2420 C2424 1.350 1_455 S
C2421 C2424 1.463 . S
C2421 C2426 1.350 . S
C2421 N2429 1.427 . S
C2422 H2413 0.930 . S
C2422 C2420 1.378 . S
C2422 C2423 1.367 1_455 S
C2423 C2422 1.367 1_655 S
C2423 C2425 1.433 . S
C2424 C2420 1.350 1_655 S
C2424 C2421 1.463 . S
C2424 N2428 1.427 . S
C2425 H2415 0.929 . S
C2425 C2423 1.433 . S
C2425 N2428 1.384 . S
C2426 H2417 0.929 . S
C2426 C2418 1.378 . S
C2426 C2421 1.350 . S
C2427 H2414 0.929 1_655 S
C2427 C2419 1.433 . S
C2427 N2429 1.384 . S
N2428 C2424 1.427 . S
N2428 C2425 1.384 . S
N2429 C2421 1.427 . S
N2429 C2427 1.384 . S
H2430 C2436 0.930 . S
H2431 C2440 0.930 . S
H2432 C2445 0.929 . S
H2433 C2443 0.929 . S
H2434 C2438 0.929 . S
H2435 C2444 0.929 . S
C2436 H2430 0.930 . S
C2436 C2437 1.367 . S
C2436 C2444 1.378 . S
C2437 C2436 1.367 . S
C2437 C2445 1.433 . S
C2438 H2434 0.929 . S
C2438 C2440 1.378 . S
C2438 C2442 1.350 . S
C2439 C2442 1.463 . S
C2439 C2444 1.350 . S
C2439 N2447 1.427 . S
C2440 H2431 0.930 . S
C2440 C2438 1.378 . S
C2440 C2441 1.367 . S
C2441 C2440 1.367 . S
C2441 C2443 1.433 . S
C2442 C2438 1.350 . S
C2442 C2439 1.463 . S
C2442 N2446 1.427 . S
C2443 H2433 0.929 . S
C2443 C2441 1.433 . S
C2443 N2446 1.384 . S
C2444 H2435 0.929 . S
C2444 C2436 1.378 . S
C2444 C2439 1.350 . S
C2445 H2432 0.929 . S
C2445 C2437 1.433 . S
C2445 N2447 1.384 . S
N2446 C2442 1.427 . S
N2446 C2443 1.384 . S
N2447 C2439 1.427 . S
N2447 C2445 1.384 . S
H2448 C2454 0.930 . S
H2449 C2458 0.930 . S
H2450 C2463 0.929 . S
H2451 C2461 0.926 . S
H2452 C2456 0.929 . S
H2453 C2462 0.929 . S
C2454 H2448 0.930 . S
C2454 C2455 1.367 . S
C2454 C2462 1.378 . S
C2455 C2454 1.367 . S
C2455 C2463 1.433 . S
C2456 H2452 0.929 . S
C2456 C2458 1.378 . S
C2456 C2460 1.350 . S
C2457 C2460 1.463 . S
C2457 C2462 1.350 . S
C2457 N2465 1.427 . S
C2458 H2449 0.930 . S
C2458 C2456 1.378 . S
C2458 C2459 1.367 . S
C2459 C2458 1.367 . S
C2459 C2461 1.433 . S
C2460 C2456 1.350 . S
C2460 C2457 1.463 . S
C2460 N2464 1.427 . S
C2461 H2451 0.926 . S
C2461 C2459 1.433 . S
C2461 N2464 1.384 . S
C2462 H2453 0.929 . S
C2462 C2454 1.378 . S
C2462 C2457 1.350 . S
C2463 H2450 0.929 . S
C2463 C2455 1.433 . S
C2463 N2465 1.384 . S
N2464 C2460 1.427 . S
N2464 C2461 1.384 . S
N2465 C2457 1.427 . S
N2465 C2463 1.384 . S
H2466 C2472 0.930 . S
H2467 C2476 0.930 . S
H2468 C2481 0.929 . S
H2469 C2479 0.929 . S
H2470 C2474 0.915 1_545 S
H2471 C2480 0.929 . S
C2472 H2466 0.930 . S
C2472 C2473 1.367 . S
C2472 C2480 1.378 . S
C2473 C2472 1.367 . S
C2473 C2481 1.433 . S
C2474 H2470 0.915 1_565 S
C2474 C2476 1.387 1_565 S
C2474 C2478 1.356 . S
C2475 C2478 1.463 . S
C2475 C2480 1.350 . S
C2475 N2483 1.427 . S
C2476 H2467 0.930 . S
C2476 C2474 1.387 1_545 S
C2476 C2477 1.367 1_545 S
C2477 C2476 1.367 1_565 S
C2477 C2479 1.433 . S
C2478 C2474 1.356 . S
C2478 C2475 1.463 . S
C2478 N2482 1.427 . S
C2479 H2469 0.929 . S
C2479 C2477 1.433 . S
C2479 N2482 1.384 . S
C2480 H2471 0.929 . S
C2480 C2472 1.378 . S
C2480 C2475 1.350 . S
C2481 H2468 0.929 . S
C2481 C2473 1.433 . S
C2481 N2483 1.384 . S
N2482 C2478 1.427 . S
N2482 C2479 1.384 . S
N2483 C2475 1.427 . S
N2483 C2481 1.384 . S
H2484 C2490 0.930 . S
H2485 C2494 0.930 . S
H2486 C2499 0.929 . S
H2487 C2497 0.929 . S
H2488 C2492 0.932 1_655 S
H2489 C2498 0.929 . S
C2490 H2484 0.930 . S
C2490 C2491 1.367 . S
C2490 C2498 1.378 . S
C2491 C2490 1.367 . S
C2491 C2499 1.433 . S
C2492 H2488 0.932 1_455 S
C2492 C2494 1.344 1_455 S
C2492 C2496 1.384 . S
C2493 C2496 1.463 . S
C2493 C2498 1.350 . S
C2493 N2501 1.427 . S
C2494 H2485 0.930 . S
C2494 C2492 1.344 1_655 S
C2494 C2495 1.367 1_655 S
C2495 C2494 1.367 1_455 S
C2495 C2497 1.433 . S
C2496 C2492 1.384 . S
C2496 C2493 1.463 . S
C2496 N2500 1.427 . S
C2497 H2487 0.929 . S
C2497 C2495 1.433 . S
C2497 N2500 1.384 . S
C2498 H2489 0.929 . S
C2498 C2490 1.378 . S
C2498 C2493 1.350 . S
C2499 H2486 0.929 . S
C2499 C2491 1.433 . S
C2499 N2501 1.384 . S
N2500 C2496 1.427 . S
N2500 C2497 1.384 . S
N2501 C2493 1.427 . S
N2501 C2499 1.384 . S
H2502 C2508 0.930 . S
H2503 C2512 0.930 . S
H2504 C2517 0.929 . S
H2505 C2515 0.929 . S
H2506 C2510 0.929 . S
H2507 C2516 0.929 . S
C2508 H2502 0.930 . S
C2508 C2509 1.367 . S
C2508 C2516 1.378 . S
C2509 C2508 1.367 . S
C2509 C2517 1.433 . S
C2510 H2506 0.929 . S
C2510 C2512 1.378 . S
C2510 C2514 1.350 . S
C2511 C2514 1.463 . S
C2511 C2516 1.350 . S
C2511 N2519 1.427 . S
C2512 H2503 0.930 . S
C2512 C2510 1.378 . S
C2512 C2513 1.367 . S
C2513 C2512 1.367 . S
C2513 C2515 1.433 . S
C2514 C2510 1.350 . S
C2514 C2511 1.463 . S
C2514 N2518 1.427 . S
C2515 H2505 0.929 . S
C2515 C2513 1.433 . S
C2515 N2518 1.384 . S
C2516 H2507 0.929 . S
C2516 C2508 1.378 . S
C2516 C2511 1.350 . S
C2517 H2504 0.929 . S
C2517 C2509 1.433 . S
C2517 N2519 1.384 . S
N2518 C2514 1.427 . S
N2518 C2515 1.384 . S
N2519 C2511 1.427 . S
N2519 C2517 1.384 . S
H2520 C2526 0.930 . S
H2521 C2530 0.934 1_655 S
H2522 C2535 0.929 . S
H2523 C2533 0.929 . S
H2524 C2528 0.929 . S
H2525 C2534 0.929 . S
C2526 H2520 0.930 . S
C2526 C2527 1.367 . S
C2526 C2534 1.378 . S
C2527 C2526 1.367 . S
C2527 C2535 1.433 . S
C2528 H2524 0.929 . S
C2528 C2530 1.365 . S
C2528 C2532 1.350 . S
C2529 C2532 1.463 . S
C2529 C2534 1.350 . S
C2529 N2537 1.427 . S
C2530 H2521 0.934 1_455 S
C2530 C2528 1.365 . S
C2530 C2531 1.381 . S
C2531 C2530 1.381 . S
C2531 C2533 1.433 . S
C2532 C2528 1.350 . S
C2532 C2529 1.463 . S
C2532 N2536 1.427 . S
C2533 H2523 0.929 . S
C2533 C2531 1.433 . S
C2533 N2536 1.384 . S
C2534 H2525 0.929 . S
C2534 C2526 1.378 . S
C2534 C2529 1.350 . S
C2535 H2522 0.929 . S
C2535 C2527 1.433 . S
C2535 N2537 1.384 . S
N2536 C2532 1.427 . S
N2536 C2533 1.384 . S
N2537 C2529 1.427 . S
N2537 C2535 1.384 . S
H2538 C2544 0.930 . S
H2539 C2548 0.930 . S
H2540 C2553 0.929 . S
H2541 C2551 0.929 . S
H2542 C2546 0.929 . S
H2543 C2552 0.929 . S
C2544 H2538 0.930 . S
C2544 C2545 1.367 . S
C2544 C2552 1.378 . S
C2545 C2544 1.367 . S
C2545 C2553 1.433 . S
C2546 H2542 0.929 . S
C2546 C2548 1.378 . S
C2546 C2550 1.350 . S
C2547 C2550 1.463 . S
C2547 C2552 1.350 . S
C2547 N2555 1.427 . S
C2548 H2539 0.930 . S
C2548 C2546 1.378 . S
C2548 C2549 1.367 . S
C2549 C2548 1.367 . S
C2549 C2551 1.433 . S
C2550 C2546 1.350 . S
C2550 C2547 1.463 . S
C2550 N2554 1.427 . S
C2551 H2541 0.929 . S
C2551 C2549 1.433 . S
C2551 N2554 1.384 . S
C2552 H2543 0.929 . S
C2552 C2544 1.378 . S
C2552 C2547 1.350 . S
C2553 H2540 0.929 . S
C2553 C2545 1.433 . S
C2553 N2555 1.384 . S
N2554 C2550 1.427 . S
N2554 C2551 1.384 . S
N2555 C2547 1.427 . S
N2555 C2553 1.384 . S
H2556 C2562 0.930 1_545 S
H2557 C2566 0.930 . S
H2558 C2571 0.929 . S
H2559 C2569 0.929 . S
H2560 C2564 0.929 . S
H2561 C2570 0.929 1_545 S
C2562 H2556 0.930 1_565 S
C2562 C2563 1.367 . S
C2562 C2570 1.378 . S
C2563 C2562 1.367 . S
C2563 C2571 1.433 . S
C2564 H2560 0.929 . S
C2564 C2566 1.378 . S
C2564 C2568 1.350 . S
C2565 C2568 1.463 . S
C2565 C2570 1.350 . S
C2565 N2573 1.427 . S
C2566 H2557 0.930 . S
C2566 C2564 1.378 . S
C2566 C2567 1.367 . S
C2567 C2566 1.367 . S
C2567 C2569 1.433 1_565 S
C2568 C2564 1.350 . S
C2568 C2565 1.463 . S
C2568 N2572 1.427 1_565 S
C2569 H2559 0.929 . S
C2569 C2567 1.433 1_545 S
C2569 N2572 1.384 . S
C2570 H2561 0.929 1_565 S
C2570 C2562 1.378 . S
C2570 C2565 1.350 . S
C2571 H2558 0.929 . S
C2571 C2563 1.433 . S
C2571 N2573 1.384 . S
N2572 C2568 1.427 1_545 S
N2572 C2569 1.384 . S
N2573 C2565 1.427 . S
N2573 C2571 1.384 . S
H2574 C2580 0.930 . S
H2575 C2584 0.930 . S
H2576 C2589 0.929 . S
H2577 C2587 0.929 . S
H2578 C2582 0.929 . S
H2579 C2588 0.929 1_565 S
C2580 H2574 0.930 . S
C2580 C2581 1.367 . S
C2580 C2588 1.378 . S
C2581 C2580 1.367 . S
C2581 C2589 1.433 . S
C2582 H2578 0.929 . S
C2582 C2584 1.378 . S
C2582 C2586 1.350 . S
C2583 C2586 1.463 . S
C2583 C2588 1.350 . S
C2583 N2591 1.427 . S
C2584 H2575 0.930 . S
C2584 C2582 1.378 . S
C2584 C2585 1.367 . S
C2585 C2584 1.367 . S
C2585 C2587 1.433 1_545 S
C2586 C2582 1.350 . S
C2586 C2583 1.463 . S
C2586 N2590 1.402 1_545 S
C2587 H2577 0.929 . S
C2587 C2585 1.433 1_565 S
C2587 N2590 1.369 . S
C2588 H2579 0.929 1_545 S
C2588 C2580 1.378 . S
C2588 C2583 1.350 . S
C2589 H2576 0.929 . S
C2589 C2581 1.433 . S
C2589 N2591 1.384 . S
N2590 C2586 1.402 1_565 S
N2590 C2587 1.369 . S
N2591 C2583 1.427 . S
N2591 C2589 1.384 . S
H2592 C2598 0.930 . S
H2593 C2602 0.930 1_455 S
H2594 C2607 0.929 . S
H2595 C2605 0.929 . S
H2596 C2600 0.929 . S
H2597 C2606 0.929 . S
C2598 H2592 0.930 . S
C2598 C2599 1.367 . S
C2598 C2606 1.378 . S
C2599 C2598 1.367 . S
C2599 C2607 1.433 . S
C2600 H2596 0.929 . S
C2600 C2602 1.378 . S
C2600 C2604 1.350 . S
C2601 C2604 1.463 . S
C2601 C2606 1.350 . S
C2601 N2609 1.427 . S
C2602 H2593 0.930 1_655 S
C2602 C2600 1.378 . S
C2602 C2603 1.367 . S
C2603 C2602 1.367 . S
C2603 C2605 1.433 . S
C2604 C2600 1.350 . S
C2604 C2601 1.463 . S
C2604 N2608 1.427 . S
C2605 H2595 0.929 . S
C2605 C2603 1.433 . S
C2605 N2608 1.384 . S
C2606 H2597 0.929 . S
C2606 C2598 1.378 . S
C2606 C2601 1.350 . S
C2607 H2594 0.929 . S
C2607 C2599 1.433 . S
C2607 N2609 1.384 . S
N2608 C2604 1.427 . S
N2608 C2605 1.384 . S
N2609 C2601 1.427 . S
N2609 C2607 1.384 . S
H2610 C2616 0.930 . S
H2611 C2620 0.930 . S
H2612 C2625 0.929 . S
H2613 C2623 0.929 . S
H2614 C2618 0.929 . S
H2615 C2624 0.929 . S
C2616 H2610 0.930 . S
C2616 C2617 1.367 . S
C2616 C2624 1.378 . S
C2617 C2616 1.367 . S
C2617 C2625 1.433 . S
C2618 H2614 0.929 . S
C2618 C2620 1.378 . S
C2618 C2622 1.350 . S
C2619 C2622 1.463 . S
C2619 C2624 1.350 . S
C2619 N2627 1.427 . S
C2620 H2611 0.930 . S
C2620 C2618 1.378 . S
C2620 C2621 1.367 . S
C2621 C2620 1.367 . S
C2621 C2623 1.433 . S
C2622 C2618 1.350 . S
C2622 C2619 1.463 . S
C2622 N2626 1.427 . S
C2623 H2613 0.929 . S
C2623 C2621 1.433 . S
C2623 N2626 1.384 . S
C2624 H2615 0.929 . S
C2624 C2616 1.378 . S
C2624 C2619 1.350 . S
C2625 H2612 0.929 . S
C2625 C2617 1.433 . S
C2625 N2627 1.384 . S
N2626 C2622 1.427 . S
N2626 C2623 1.384 . S
N2627 C2619 1.427 . S
N2627 C2625 1.384 . S
H2628 C2634 0.930 . S
H2629 C2638 0.930 . S
H2630 C2643 0.929 . S
H2631 C2641 0.929 . S
H2632 C2636 0.929 . S
H2633 C2642 0.929 . S
C2634 H2628 0.930 . S
C2634 C2635 1.367 . S
C2634 C2642 1.378 . S
C2635 C2634 1.367 . S
C2635 C2643 1.433 . S
C2636 H2632 0.929 . S
C2636 C2638 1.378 . S
C2636 C2640 1.350 . S
C2637 C2640 1.463 . S
C2637 C2642 1.350 . S
C2637 N2645 1.427 . S
C2638 H2629 0.930 . S
C2638 C2636 1.378 . S
C2638 C2639 1.367 . S
C2639 C2638 1.367 . S
C2639 C2641 1.433 . S
C2640 C2636 1.350 . S
C2640 C2637 1.463 . S
C2640 N2644 1.427 . S
C2641 H2631 0.929 . S
C2641 C2639 1.433 . S
C2641 N2644 1.384 . S
C2642 H2633 0.929 . S
C2642 C2634 1.378 . S
C2642 C2637 1.350 . S
C2643 H2630 0.929 . S
C2643 C2635 1.433 . S
C2643 N2645 1.384 . S
N2644 C2640 1.427 . S
N2644 C2641 1.384 . S
N2645 C2637 1.427 . S
N2645 C2643 1.384 . S
H2646 C2652 0.930 . S
H2647 C2656 0.930 . S
H2648 C2661 0.929 . S
H2649 C2659 0.929 . S
H2650 C2654 0.929 . S
H2651 C2660 0.929 . S
C2652 H2646 0.930 . S
C2652 C2653 1.367 . S
C2652 C2660 1.378 . S
C2653 C2652 1.367 . S
C2653 C2661 1.433 . S
C2654 H2650 0.929 . S
C2654 C2656 1.378 . S
C2654 C2658 1.350 . S
C2655 C2658 1.463 . S
C2655 C2660 1.350 . S
C2655 N2663 1.427 . S
C2656 H2647 0.930 . S
C2656 C2654 1.378 . S
C2656 C2657 1.367 . S
C2657 C2656 1.367 . S
C2657 C2659 1.433 . S
C2658 C2654 1.350 . S
C2658 C2655 1.463 . S
C2658 N2662 1.427 . S
C2659 H2649 0.929 . S
C2659 C2657 1.433 . S
C2659 N2662 1.384 . S
C2660 H2651 0.929 . S
C2660 C2652 1.378 . S
C2660 C2655 1.350 . S
C2661 H2648 0.929 . S
C2661 C2653 1.433 . S
C2661 N2663 1.384 . S
N2662 C2658 1.427 . S
N2662 C2659 1.384 . S
N2663 C2655 1.427 . S
N2663 C2661 1.384 . S
H2664 C2670 0.930 . S
H2665 C2674 0.930 . S
H2666 C2679 0.929 . S
H2667 C2677 0.929 . S
H2668 C2672 0.929 . S
H2669 C2678 0.929 . S
C2670 H2664 0.930 . S
C2670 C2671 1.367 . S
C2670 C2678 1.378 . S
C2671 C2670 1.367 . S
C2671 C2679 1.433 . S
C2672 H2668 0.929 . S
C2672 C2674 1.378 . S
C2672 C2676 1.350 . S
C2673 C2676 1.463 . S
C2673 C2678 1.350 . S
C2673 N2681 1.427 . S
C2674 H2665 0.930 . S
C2674 C2672 1.378 . S
C2674 C2675 1.367 . S
C2675 C2674 1.367 . S
C2675 C2677 1.433 . S
C2676 C2672 1.350 . S
C2676 C2673 1.463 . S
C2676 N2680 1.427 . S
C2677 H2667 0.929 . S
C2677 C2675 1.433 . S
C2677 N2680 1.384 . S
C2678 H2669 0.929 . S
C2678 C2670 1.378 . S
C2678 C2673 1.350 . S
C2679 H2666 0.929 . S
C2679 C2671 1.433 . S
C2679 N2681 1.384 . S
N2680 C2676 1.427 . S
N2680 C2677 1.384 . S
N2681 C2673 1.427 . S
N2681 C2679 1.384 . S
H2682 C2688 0.930 . S
H2683 C2692 0.930 . S
H2684 C2697 0.929 . S
H2685 C2695 0.929 . S
H2686 C2690 0.929 . S
H2687 C2696 0.929 . S
C2688 H2682 0.930 . S
C2688 C2689 1.367 . S
C2688 C2696 1.378 . S
C2689 C2688 1.367 . S
C2689 C2697 1.433 . S
C2690 H2686 0.929 . S
C2690 C2692 1.378 . S
C2690 C2694 1.350 . S
C2691 C2694 1.463 . S
C2691 C2696 1.350 . S
C2691 N2699 1.427 . S
C2692 H2683 0.930 . S
C2692 C2690 1.378 . S
C2692 C2693 1.367 . S
C2693 C2692 1.367 . S
C2693 C2695 1.433 . S
C2694 C2690 1.350 . S
C2694 C2691 1.463 . S
C2694 N2698 1.427 . S
C2695 H2685 0.929 . S
C2695 C2693 1.433 . S
C2695 N2698 1.384 . S
C2696 H2687 0.929 . S
C2696 C2688 1.378 . S
C2696 C2691 1.350 . S
C2697 H2684 0.929 . S
C2697 C2689 1.433 . S
C2697 N2699 1.384 . S
N2698 C2694 1.427 . S
N2698 C2695 1.384 . S
N2699 C2691 1.427 . S
N2699 C2697 1.384 . S
H2700 C2706 0.930 . S
H2701 C2710 0.930 . S
H2702 C2715 0.929 . S
H2703 C2713 0.929 . S
H2704 C2708 0.929 . S
H2705 C2714 0.929 . S
C2706 H2700 0.930 . S
C2706 C2707 1.367 . S
C2706 C2714 1.378 . S
C2707 C2706 1.367 . S
C2707 C2715 1.433 . S
C2708 H2704 0.929 . S
C2708 C2710 1.378 . S
C2708 C2712 1.350 . S
C2709 C2712 1.463 . S
C2709 C2714 1.350 . S
C2709 N2717 1.427 . S
C2710 H2701 0.930 . S
C2710 C2708 1.378 . S
C2710 C2711 1.367 . S
C2711 C2710 1.367 . S
C2711 C2713 1.433 . S
C2712 C2708 1.350 . S
C2712 C2709 1.463 . S
C2712 N2716 1.427 . S
C2713 H2703 0.929 . S
C2713 C2711 1.433 . S
C2713 N2716 1.384 . S
C2714 H2705 0.929 . S
C2714 C2706 1.378 . S
C2714 C2709 1.350 . S
C2715 H2702 0.929 . S
C2715 C2707 1.433 . S
C2715 N2717 1.384 . S
N2716 C2712 1.427 . S
N2716 C2713 1.384 . S
N2717 C2709 1.427 . S
N2717 C2715 1.384 . S
H2718 C2724 0.930 . S
H2719 C2728 0.930 . S
H2720 C2733 0.929 . S
H2721 C2731 0.929 . S
H2722 C2726 0.929 . S
H2723 C2732 0.929 . S
C2724 H2718 0.930 . S
C2724 C2725 1.367 . S
C2724 C2732 1.378 . S
C2725 C2724 1.367 . S
C2725 C2733 1.433 . S
C2726 H2722 0.929 . S
C2726 C2728 1.378 . S
C2726 C2730 1.350 . S
C2727 C2730 1.463 . S
C2727 C2732 1.350 . S
C2727 N2735 1.427 . S
C2728 H2719 0.930 . S
C2728 C2726 1.378 . S
C2728 C2729 1.367 . S
C2729 C2728 1.367 . S
C2729 C2731 1.433 . S
C2730 C2726 1.350 . S
C2730 C2727 1.463 . S
C2730 N2734 1.427 . S
C2731 H2721 0.929 . S
C2731 C2729 1.433 . S
C2731 N2734 1.384 . S
C2732 H2723 0.929 . S
C2732 C2724 1.378 . S
C2732 C2727 1.350 . S
C2733 H2720 0.929 . S
C2733 C2725 1.433 . S
C2733 N2735 1.384 . S
N2734 C2730 1.427 . S
N2734 C2731 1.384 . S
N2735 C2727 1.427 . S
N2735 C2733 1.384 . S
H2736 C2742 0.930 . S
H2737 C2746 0.930 . S
H2738 C2751 0.929 . S
H2739 C2749 0.929 . S
H2740 C2744 0.929 . S
H2741 C2750 0.929 . S
C2742 H2736 0.930 . S
C2742 C2743 1.367 . S
C2742 C2750 1.378 . S
C2743 C2742 1.367 . S
C2743 C2751 1.433 . S
C2744 H2740 0.929 . S
C2744 C2746 1.378 . S
C2744 C2748 1.350 . S
C2745 C2748 1.463 . S
C2745 C2750 1.350 . S
C2745 N2753 1.427 . S
C2746 H2737 0.930 . S
C2746 C2744 1.378 . S
C2746 C2747 1.367 . S
C2747 C2746 1.367 . S
C2747 C2749 1.433 . S
C2748 C2744 1.350 . S
C2748 C2745 1.463 . S
C2748 N2752 1.427 . S
C2749 H2739 0.929 . S
C2749 C2747 1.433 . S
C2749 N2752 1.384 . S
C2750 H2741 0.929 . S
C2750 C2742 1.378 . S
C2750 C2745 1.350 . S
C2751 H2738 0.929 . S
C2751 C2743 1.433 . S
C2751 N2753 1.384 . S
N2752 C2748 1.427 . S
N2752 C2749 1.384 . S
N2753 C2745 1.427 . S
N2753 C2751 1.384 . S
H2754 C2760 0.930 . S
H2755 C2764 0.930 . S
H2756 C2769 0.929 . S
H2757 C2767 0.929 . S
H2758 C2762 0.929 . S
H2759 C2768 0.929 . S
C2760 H2754 0.930 . S
C2760 C2761 1.367 . S
C2760 C2768 1.378 . S
C2761 C2760 1.367 . S
C2761 C2769 1.433 . S
C2762 H2758 0.929 . S
C2762 C2764 1.378 . S
C2762 C2766 1.350 . S
C2763 C2766 1.463 . S
C2763 C2768 1.350 . S
C2763 N2771 1.427 . S
C2764 H2755 0.930 . S
C2764 C2762 1.378 . S
C2764 C2765 1.367 . S
C2765 C2764 1.367 . S
C2765 C2767 1.433 . S
C2766 C2762 1.350 . S
C2766 C2763 1.463 . S
C2766 N2770 1.427 . S
C2767 H2757 0.929 . S
C2767 C2765 1.433 . S
C2767 N2770 1.384 . S
C2768 H2759 0.929 . S
C2768 C2760 1.378 . S
C2768 C2763 1.350 . S
C2769 H2756 0.929 . S
C2769 C2761 1.433 . S
C2769 N2771 1.384 . S
N2770 C2766 1.427 . S
N2770 C2767 1.384 . S
N2771 C2763 1.427 . S
N2771 C2769 1.384 . S
H2772 C2778 0.930 . S
H2773 C2782 0.930 . S
H2774 C2787 0.929 . S
H2775 C2785 0.929 . S
H2776 C2780 0.929 . S
H2777 C2786 0.929 . S
C2778 H2772 0.930 . S
C2778 C2779 1.367 . S
C2778 C2786 1.378 . S
C2779 C2778 1.367 . S
C2779 C2787 1.433 . S
C2780 H2776 0.929 . S
C2780 C2782 1.378 . S
C2780 C2784 1.350 . S
C2781 C2784 1.463 . S
C2781 C2786 1.350 . S
C2781 N2789 1.427 . S
C2782 H2773 0.930 . S
C2782 C2780 1.378 . S
C2782 C2783 1.367 . S
C2783 C2782 1.367 . S
C2783 C2785 1.433 . S
C2784 C2780 1.350 . S
C2784 C2781 1.463 . S
C2784 N2788 1.427 . S
C2785 H2775 0.929 . S
C2785 C2783 1.433 . S
C2785 N2788 1.384 . S
C2786 H2777 0.929 . S
C2786 C2778 1.378 . S
C2786 C2781 1.350 . S
C2787 H2774 0.929 . S
C2787 C2779 1.433 . S
C2787 N2789 1.384 . S
N2788 C2784 1.427 . S
N2788 C2785 1.384 . S
N2789 C2781 1.427 . S
N2789 C2787 1.384 . S
H2790 C2796 0.930 . S
H2791 C2800 0.930 . S
H2792 C2805 0.929 . S
H2793 C2803 0.929 . S
H2794 C2798 0.929 . S
H2795 C2804 0.929 . S
C2796 H2790 0.930 . S
C2796 C2797 1.367 . S
C2796 C2804 1.378 . S
C2797 C2796 1.367 . S
C2797 C2805 1.433 . S
C2798 H2794 0.929 . S
C2798 C2800 1.378 . S
C2798 C2802 1.350 . S
C2799 C2802 1.463 . S
C2799 C2804 1.350 . S
C2799 N2807 1.427 . S
C2800 H2791 0.930 . S
C2800 C2798 1.378 . S
C2800 C2801 1.367 . S
C2801 C2800 1.367 . S
C2801 C2803 1.433 . S
C2802 C2798 1.350 . S
C2802 C2799 1.463 . S
C2802 N2806 1.427 . S
C2803 H2793 0.929 . S
C2803 C2801 1.433 . S
C2803 N2806 1.384 . S
C2804 H2795 0.929 . S
C2804 C2796 1.378 . S
C2804 C2799 1.350 . S
C2805 H2792 0.929 . S
C2805 C2797 1.433 . S
C2805 N2807 1.384 . S
N2806 C2802 1.427 . S
N2806 C2803 1.384 . S
N2807 C2799 1.427 . S
N2807 C2805 1.384 . S
H2808 C2814 0.930 . S
H2809 C2818 0.930 . S
H2810 C2823 0.929 . S
H2811 C2821 0.929 . S
H2812 C2816 0.929 . S
H2813 C2822 0.929 . S
C2814 H2808 0.930 . S
C2814 C2815 1.367 . S
C2814 C2822 1.378 . S
C2815 C2814 1.367 . S
C2815 C2823 1.433 . S
C2816 H2812 0.929 . S
C2816 C2818 1.378 . S
C2816 C2820 1.350 . S
C2817 C2820 1.463 . S
C2817 C2822 1.350 . S
C2817 N2825 1.427 . S
C2818 H2809 0.930 . S
C2818 C2816 1.378 . S
C2818 C2819 1.367 . S
C2819 C2818 1.367 . S
C2819 C2821 1.433 . S
C2820 C2816 1.350 . S
C2820 C2817 1.463 . S
C2820 N2824 1.427 . S
C2821 H2811 0.929 . S
C2821 C2819 1.433 . S
C2821 N2824 1.384 . S
C2822 H2813 0.929 . S
C2822 C2814 1.378 . S
C2822 C2817 1.350 . S
C2823 H2810 0.929 . S
C2823 C2815 1.433 . S
C2823 N2825 1.384 . S
N2824 C2820 1.427 . S
N2824 C2821 1.384 . S
N2825 C2817 1.427 . S
N2825 C2823 1.384 . S
H2826 C2832 0.930 . S
H2827 C2836 0.930 . S
H2828 C2841 0.929 . S
H2829 C2839 0.929 . S
H2830 C2834 0.929 . S
H2831 C2840 0.929 . S
C2832 H2826 0.930 . S
C2832 C2833 1.367 . S
C2832 C2840 1.378 . S
C2833 C2832 1.367 . S
C2833 C2841 1.433 . S
C2834 H2830 0.929 . S
C2834 C2836 1.378 . S
C2834 C2838 1.350 . S
C2835 C2838 1.463 . S
C2835 C2840 1.350 . S
C2835 N2843 1.427 . S
C2836 H2827 0.930 . S
C2836 C2834 1.378 . S
C2836 C2837 1.367 . S
C2837 C2836 1.367 . S
C2837 C2839 1.433 . S
C2838 C2834 1.350 . S
C2838 C2835 1.463 . S
C2838 N2842 1.427 . S
C2839 H2829 0.929 . S
C2839 C2837 1.433 . S
C2839 N2842 1.384 . S
C2840 H2831 0.929 . S
C2840 C2832 1.378 . S
C2840 C2835 1.350 . S
C2841 H2828 0.929 . S
C2841 C2833 1.433 . S
C2841 N2843 1.384 . S
N2842 C2838 1.427 . S
N2842 C2839 1.384 . S
N2843 C2835 1.427 . S
N2843 C2841 1.384 . S
H2844 C2850 0.930 . S
H2845 C2854 0.930 . S
H2846 C2859 0.929 . S
H2847 C2857 0.929 . S
H2848 C2852 0.929 . S
H2849 C2858 0.929 . S
C2850 H2844 0.930 . S
C2850 C2851 1.367 . S
C2850 C2858 1.378 . S
C2851 C2850 1.367 . S
C2851 C2859 1.433 . S
C2852 H2848 0.929 . S
C2852 C2854 1.378 . S
C2852 C2856 1.350 . S
C2853 C2856 1.463 . S
C2853 C2858 1.350 . S
C2853 N2861 1.427 . S
C2854 H2845 0.930 . S
C2854 C2852 1.378 . S
C2854 C2855 1.367 . S
C2855 C2854 1.367 . S
C2855 C2857 1.433 . S
C2856 C2852 1.350 . S
C2856 C2853 1.463 . S
C2856 N2860 1.427 . S
C2857 H2847 0.929 . S
C2857 C2855 1.433 . S
C2857 N2860 1.384 . S
C2858 H2849 0.929 . S
C2858 C2850 1.378 . S
C2858 C2853 1.350 . S
C2859 H2846 0.929 . S
C2859 C2851 1.433 . S
C2859 N2861 1.384 . S
N2860 C2856 1.427 . S
N2860 C2857 1.384 . S
N2861 C2853 1.427 . S
N2861 C2859 1.384 . S
H2862 C2868 0.930 . S
H2863 C2872 0.930 . S
H2864 C2877 0.929 . S
H2865 C2875 0.929 . S
H2866 C2870 0.929 . S
H2867 C2876 0.929 . S
C2868 H2862 0.930 . S
C2868 C2869 1.367 . S
C2868 C2876 1.378 . S
C2869 C2868 1.367 . S
C2869 C2877 1.433 . S
C2870 H2866 0.929 . S
C2870 C2872 1.378 . S
C2870 C2874 1.350 . S
C2871 C2874 1.463 . S
C2871 C2876 1.350 . S
C2871 N2879 1.427 . S
C2872 H2863 0.930 . S
C2872 C2870 1.378 . S
C2872 C2873 1.367 . S
C2873 C2872 1.367 . S
C2873 C2875 1.433 . S
C2874 C2870 1.350 . S
C2874 C2871 1.463 . S
C2874 N2878 1.427 . S
C2875 H2865 0.929 . S
C2875 C2873 1.433 . S
C2875 N2878 1.384 . S
C2876 H2867 0.929 . S
C2876 C2868 1.378 . S
C2876 C2871 1.350 . S
C2877 H2864 0.929 . S
C2877 C2869 1.433 . S
C2877 N2879 1.384 . S
N2878 C2874 1.427 . S
N2878 C2875 1.384 . S
N2879 C2871 1.427 . S
N2879 C2877 1.384 . S
H2880 C2886 0.930 . S
H2881 C2890 0.930 . S
H2882 C2895 0.929 . S
H2883 C2893 0.929 . S
H2884 C2888 0.929 . S
H2885 C2894 0.929 . S
C2886 H2880 0.930 . S
C2886 C2887 1.367 . S
C2886 C2894 1.378 . S
C2887 C2886 1.367 . S
C2887 C2895 1.433 . S
C2888 H2884 0.929 . S
C2888 C2890 1.378 . S
C2888 C2892 1.350 . S
C2889 C2892 1.463 . S
C2889 C2894 1.350 . S
C2889 N2897 1.427 . S
C2890 H2881 0.930 . S
C2890 C2888 1.378 . S
C2890 C2891 1.367 . S
C2891 C2890 1.367 . S
C2891 C2893 1.433 . S
C2892 C2888 1.350 . S
C2892 C2889 1.463 . S
C2892 N2896 1.427 . S
C2893 H2883 0.929 . S
C2893 C2891 1.433 . S
C2893 N2896 1.384 . S
C2894 H2885 0.929 . S
C2894 C2886 1.378 . S
C2894 C2889 1.350 . S
C2895 H2882 0.929 . S
C2895 C2887 1.433 . S
C2895 N2897 1.384 . S
N2896 C2892 1.427 . S
N2896 C2893 1.384 . S
N2897 C2889 1.427 . S
N2897 C2895 1.384 . S
H2898 C2904 0.930 . S
H2899 C2908 0.930 . S
H2900 C2913 0.929 . S
H2901 C2911 0.929 . S
H2902 C2906 0.929 . S
H2903 C2912 0.929 . S
C2904 H2898 0.930 . S
C2904 C2905 1.367 . S
C2904 C2912 1.378 . S
C2905 C2904 1.367 . S
C2905 C2913 1.433 . S
C2906 H2902 0.929 . S
C2906 C2908 1.378 . S
C2906 C2910 1.350 . S
C2907 C2910 1.463 . S
C2907 C2912 1.350 . S
C2907 N2915 1.427 . S
C2908 H2899 0.930 . S
C2908 C2906 1.378 . S
C2908 C2909 1.367 . S
C2909 C2908 1.367 . S
C2909 C2911 1.433 . S
C2910 C2906 1.350 . S
C2910 C2907 1.463 . S
C2910 N2914 1.427 . S
C2911 H2901 0.929 . S
C2911 C2909 1.433 . S
C2911 N2914 1.384 . S
C2912 H2903 0.929 . S
C2912 C2904 1.378 . S
C2912 C2907 1.350 . S
C2913 H2900 0.929 . S
C2913 C2905 1.433 . S
C2913 N2915 1.384 . S
N2914 C2910 1.427 . S
N2914 C2911 1.384 . S
N2915 C2907 1.427 . S
N2915 C2913 1.384 . S
H2916 C2922 0.930 . S
H2917 C2926 0.930 . S
H2918 C2931 0.929 . S
H2919 C2929 0.929 . S
H2920 C2924 0.929 . S
H2921 C2930 0.929 . S
C2922 H2916 0.930 . S
C2922 C2923 1.367 . S
C2922 C2930 1.378 . S
C2923 C2922 1.367 . S
C2923 C2931 1.433 . S
C2924 H2920 0.929 . S
C2924 C2926 1.378 . S
C2924 C2928 1.350 . S
C2925 C2928 1.463 . S
C2925 C2930 1.350 . S
C2925 N2933 1.427 . S
C2926 H2917 0.930 . S
C2926 C2924 1.378 . S
C2926 C2927 1.367 . S
C2927 C2926 1.367 . S
C2927 C2929 1.433 . S
C2928 C2924 1.350 . S
C2928 C2925 1.463 . S
C2928 N2932 1.427 . S
C2929 H2919 0.929 . S
C2929 C2927 1.433 . S
C2929 N2932 1.384 . S
C2930 H2921 0.929 . S
C2930 C2922 1.378 . S
C2930 C2925 1.350 . S
C2931 H2918 0.929 . S
C2931 C2923 1.433 . S
C2931 N2933 1.384 . S
N2932 C2928 1.427 . S
N2932 C2929 1.384 . S
N2933 C2925 1.427 . S
N2933 C2931 1.384 . S
H2934 C2940 0.930 . S
H2935 C2944 0.930 . S
H2936 C2949 0.929 . S
H2937 C2947 0.929 . S
H2938 C2942 0.929 . S
H2939 C2948 0.929 . S
C2940 H2934 0.930 . S
C2940 C2941 1.367 . S
C2940 C2948 1.378 . S
C2941 C2940 1.367 . S
C2941 C2949 1.433 . S
C2942 H2938 0.929 . S
C2942 C2944 1.378 . S
C2942 C2946 1.350 . S
C2943 C2946 1.463 . S
C2943 C2948 1.350 . S
C2943 N2951 1.427 . S
C2944 H2935 0.930 . S
C2944 C2942 1.378 . S
C2944 C2945 1.367 . S
C2945 C2944 1.367 . S
C2945 C2947 1.433 . S
C2946 C2942 1.350 . S
C2946 C2943 1.463 . S
C2946 N2950 1.427 . S
C2947 H2937 0.929 . S
C2947 C2945 1.433 . S
C2947 N2950 1.384 . S
C2948 H2939 0.929 . S
C2948 C2940 1.378 . S
C2948 C2943 1.350 . S
C2949 H2936 0.929 . S
C2949 C2941 1.433 . S
C2949 N2951 1.384 . S
N2950 C2946 1.427 . S
N2950 C2947 1.384 . S
N2951 C2943 1.427 . S
N2951 C2949 1.384 . S
H2952 C2958 0.930 . S
H2953 C2962 0.930 . S
H2954 C2967 0.929 . S
H2955 C2965 0.929 . S
H2956 C2960 0.929 . S
H2957 C2966 0.929 . S
C2958 H2952 0.930 . S
C2958 C2959 1.367 . S
C2958 C2966 1.378 . S
C2959 C2958 1.367 . S
C2959 C2967 1.433 . S
C2960 H2956 0.929 . S
C2960 C2962 1.378 . S
C2960 C2964 1.350 . S
C2961 C2964 1.463 . S
C2961 C2966 1.350 . S
C2961 N2969 1.427 . S
C2962 H2953 0.930 . S
C2962 C2960 1.378 . S
C2962 C2963 1.367 . S
C2963 C2962 1.367 . S
C2963 C2965 1.433 . S
C2964 C2960 1.350 . S
C2964 C2961 1.463 . S
C2964 N2968 1.427 . S
C2965 H2955 0.929 . S
C2965 C2963 1.433 . S
C2965 N2968 1.384 . S
C2966 H2957 0.929 . S
C2966 C2958 1.378 . S
C2966 C2961 1.350 . S
C2967 H2954 0.929 . S
C2967 C2959 1.433 . S
C2967 N2969 1.384 . S
N2968 C2964 1.427 . S
N2968 C2965 1.384 . S
N2969 C2961 1.427 . S
N2969 C2967 1.384 . S
H2970 C2976 0.930 . S
H2971 C2980 0.930 . S
H2972 C2985 0.929 . S
H2973 C2983 0.929 . S
H2974 C2978 0.929 . S
H2975 C2984 0.929 . S
C2976 H2970 0.930 . S
C2976 C2977 1.367 . S
C2976 C2984 1.378 . S
C2977 C2976 1.367 . S
C2977 C2985 1.433 . S
C2978 H2974 0.929 . S
C2978 C2980 1.378 . S
C2978 C2982 1.350 . S
C2979 C2982 1.463 . S
C2979 C2984 1.350 . S
C2979 N2987 1.427 . S
C2980 H2971 0.930 . S
C2980 C2978 1.378 . S
C2980 C2981 1.367 . S
C2981 C2980 1.367 . S
C2981 C2983 1.433 . S
C2982 C2978 1.350 . S
C2982 C2979 1.463 . S
C2982 N2986 1.427 . S
C2983 H2973 0.929 . S
C2983 C2981 1.433 . S
C2983 N2986 1.384 . S
C2984 H2975 0.929 . S
C2984 C2976 1.378 . S
C2984 C2979 1.350 . S
C2985 H2972 0.929 . S
C2985 C2977 1.433 . S
C2985 N2987 1.384 . S
N2986 C2982 1.427 . S
N2986 C2983 1.384 . S
N2987 C2979 1.427 . S
N2987 C2985 1.384 . S
H2988 C2994 0.930 . S
H2989 C2998 0.930 . S
H2990 C3003 0.929 . S
H2991 C3001 0.929 . S
H2992 C2996 0.929 . S
H2993 C3002 0.929 . S
C2994 H2988 0.930 . S
C2994 C2995 1.367 . S
C2994 C3002 1.378 . S
C2995 C2994 1.367 . S
C2995 C3003 1.433 . S
C2996 H2992 0.929 . S
C2996 C2998 1.378 . S
C2996 C3000 1.350 . S
C2997 C3000 1.463 . S
C2997 C3002 1.350 . S
C2997 N3005 1.427 . S
C2998 H2989 0.930 . S
C2998 C2996 1.378 . S
C2998 C2999 1.367 . S
C2999 C2998 1.367 . S
C2999 C3001 1.433 . S
C3000 C2996 1.350 . S
C3000 C2997 1.463 . S
C3000 N3004 1.427 . S
C3001 H2991 0.929 . S
C3001 C2999 1.433 . S
C3001 N3004 1.384 . S
C3002 H2993 0.929 . S
C3002 C2994 1.378 . S
C3002 C2997 1.350 . S
C3003 H2990 0.929 . S
C3003 C2995 1.433 . S
C3003 N3005 1.384 . S
N3004 C3000 1.427 . S
N3004 C3001 1.384 . S
N3005 C2997 1.427 . S
N3005 C3003 1.384 . S
H3006 C3012 0.930 . S
H3007 C3016 0.930 . S
H3008 C3021 0.929 . S
H3009 C3019 0.929 . S
H3010 C3014 0.929 . S
H3011 C3020 0.929 . S
C3012 H3006 0.930 . S
C3012 C3013 1.367 . S
C3012 C3020 1.378 . S
C3013 C3012 1.367 . S
C3013 C3021 1.433 . S
C3014 H3010 0.929 . S
C3014 C3016 1.378 . S
C3014 C3018 1.350 . S
C3015 C3018 1.463 . S
C3015 C3020 1.350 . S
C3015 N3023 1.427 . S
C3016 H3007 0.930 . S
C3016 C3014 1.378 . S
C3016 C3017 1.367 . S
C3017 C3016 1.367 . S
C3017 C3019 1.433 . S
C3018 C3014 1.350 . S
C3018 C3015 1.463 . S
C3018 N3022 1.427 . S
C3019 H3009 0.929 . S
C3019 C3017 1.433 . S
C3019 N3022 1.384 . S
C3020 H3011 0.929 . S
C3020 C3012 1.378 . S
C3020 C3015 1.350 . S
C3021 H3008 0.929 . S
C3021 C3013 1.433 . S
C3021 N3023 1.384 . S
N3022 C3018 1.427 . S
N3022 C3019 1.384 . S
N3023 C3015 1.427 . S
N3023 C3021 1.384 . S
H3024 C3030 0.930 . S
H3025 C3034 0.930 . S
H3026 C3039 0.929 . S
H3027 C3037 0.929 . S
H3028 C3032 0.929 . S
H3029 C3038 0.929 . S
C3030 H3024 0.930 . S
C3030 C3031 1.367 . S
C3030 C3038 1.378 . S
C3031 C3030 1.367 . S
C3031 C3039 1.433 . S
C3032 H3028 0.929 . S
C3032 C3034 1.378 . S
C3032 C3036 1.350 . S
C3033 C3036 1.463 . S
C3033 C3038 1.350 . S
C3033 N3041 1.427 . S
C3034 H3025 0.930 . S
C3034 C3032 1.378 . S
C3034 C3035 1.367 . S
C3035 C3034 1.367 . S
C3035 C3037 1.433 . S
C3036 C3032 1.350 . S
C3036 C3033 1.463 . S
C3036 N3040 1.427 . S
C3037 H3027 0.929 . S
C3037 C3035 1.433 . S
C3037 N3040 1.384 . S
C3038 H3029 0.929 . S
C3038 C3030 1.378 . S
C3038 C3033 1.350 . S
C3039 H3026 0.929 . S
C3039 C3031 1.433 . S
C3039 N3041 1.384 . S
N3040 C3036 1.427 . S
N3040 C3037 1.384 . S
N3041 C3033 1.427 . S
N3041 C3039 1.384 . S
H3042 C3048 0.930 . S
H3043 C3052 0.930 . S
H3044 C3057 0.929 . S
H3045 C3055 0.929 . S
H3046 C3050 0.929 . S
H3047 C3056 0.929 . S
C3048 H3042 0.930 . S
C3048 C3049 1.367 . S
C3048 C3056 1.378 . S
C3049 C3048 1.367 . S
C3049 C3057 1.433 . S
C3050 H3046 0.929 . S
C3050 C3052 1.378 . S
C3050 C3054 1.350 . S
C3051 C3054 1.463 . S
C3051 C3056 1.350 . S
C3051 N3059 1.427 . S
C3052 H3043 0.930 . S
C3052 C3050 1.378 . S
C3052 C3053 1.367 . S
C3053 C3052 1.367 . S
C3053 C3055 1.433 . S
C3054 C3050 1.350 . S
C3054 C3051 1.463 . S
C3054 N3058 1.427 . S
C3055 H3045 0.929 . S
C3055 C3053 1.433 . S
C3055 N3058 1.384 . S
C3056 H3047 0.929 . S
C3056 C3048 1.378 . S
C3056 C3051 1.350 . S
C3057 H3044 0.929 . S
C3057 C3049 1.433 . S
C3057 N3059 1.384 . S
N3058 C3054 1.427 . S
N3058 C3055 1.384 . S
N3059 C3051 1.427 . S
N3059 C3057 1.384 . S
H3060 C3066 0.930 . S
H3061 C3070 0.930 . S
H3062 C3075 0.929 . S
H3063 C3073 0.929 . S
H3064 C3068 0.929 . S
H3065 C3074 0.929 . S
C3066 H3060 0.930 . S
C3066 C3067 1.367 . S
C3066 C3074 1.378 . S
C3067 C3066 1.367 . S
C3067 C3075 1.433 . S
C3068 H3064 0.929 . S
C3068 C3070 1.378 . S
C3068 C3072 1.350 . S
C3069 C3072 1.463 . S
C3069 C3074 1.350 . S
C3069 N3077 1.427 . S
C3070 H3061 0.930 . S
C3070 C3068 1.378 . S
C3070 C3071 1.367 . S
C3071 C3070 1.367 . S
C3071 C3073 1.433 . S
C3072 C3068 1.350 . S
C3072 C3069 1.463 . S
C3072 N3076 1.427 . S
C3073 H3063 0.929 . S
C3073 C3071 1.433 . S
C3073 N3076 1.384 . S
C3074 H3065 0.929 . S
C3074 C3066 1.378 . S
C3074 C3069 1.350 . S
C3075 H3062 0.929 . S
C3075 C3067 1.433 . S
C3075 N3077 1.384 . S
N3076 C3072 1.427 . S
N3076 C3073 1.384 . S
N3077 C3069 1.427 . S
N3077 C3075 1.384 . S
H3078 C3084 0.930 . S
H3079 C3088 0.930 . S
H3080 C3093 0.929 . S
H3081 C3091 0.929 . S
H3082 C3086 0.929 . S
H3083 C3092 0.929 . S
C3084 H3078 0.930 . S
C3084 C3085 1.367 . S
C3084 C3092 1.378 . S
C3085 C3084 1.367 . S
C3085 C3093 1.433 . S
C3086 H3082 0.929 . S
C3086 C3088 1.378 . S
C3086 C3090 1.350 . S
C3087 C3090 1.463 . S
C3087 C3092 1.350 . S
C3087 N3095 1.427 . S
C3088 H3079 0.930 . S
C3088 C3086 1.378 . S
C3088 C3089 1.367 . S
C3089 C3088 1.367 . S
C3089 C3091 1.433 . S
C3090 C3086 1.350 . S
C3090 C3087 1.463 . S
C3090 N3094 1.427 . S
C3091 H3081 0.929 . S
C3091 C3089 1.433 . S
C3091 N3094 1.384 . S
C3092 H3083 0.929 . S
C3092 C3084 1.378 . S
C3092 C3087 1.350 . S
C3093 H3080 0.929 . S
C3093 C3085 1.433 . S
C3093 N3095 1.384 . S
N3094 C3090 1.427 . S
N3094 C3091 1.384 . S
N3095 C3087 1.427 . S
N3095 C3093 1.384 . S
H3096 C3102 0.930 . S
H3097 C3106 0.930 . S
H3098 C3111 0.929 . S
H3099 C3109 0.929 . S
H3100 C3104 0.929 . S
H3101 C3110 0.929 . S
C3102 H3096 0.930 . S
C3102 C3103 1.367 . S
C3102 C3110 1.378 . S
C3103 C3102 1.367 . S
C3103 C3111 1.433 . S
C3104 H3100 0.929 . S
C3104 C3106 1.378 . S
C3104 C3108 1.350 . S
C3105 C3108 1.463 . S
C3105 C3110 1.350 . S
C3105 N3113 1.427 . S
C3106 H3097 0.930 . S
C3106 C3104 1.378 . S
C3106 C3107 1.367 . S
C3107 C3106 1.367 . S
C3107 C3109 1.433 . S
C3108 C3104 1.350 . S
C3108 C3105 1.463 . S
C3108 N3112 1.427 . S
C3109 H3099 0.929 . S
C3109 C3107 1.433 . S
C3109 N3112 1.384 . S
C3110 H3101 0.929 . S
C3110 C3102 1.378 . S
C3110 C3105 1.350 . S
C3111 H3098 0.929 . S
C3111 C3103 1.433 . S
C3111 N3113 1.384 . S
N3112 C3108 1.427 . S
N3112 C3109 1.384 . S
N3113 C3105 1.427 . S
N3113 C3111 1.384 . S
H3114 C3120 0.930 . S
H3115 C3124 0.930 . S
H3116 C3129 0.929 . S
H3117 C3127 0.929 . S
H3118 C3122 0.929 . S
H3119 C3128 0.929 . S
C3120 H3114 0.930 . S
C3120 C3121 1.367 . S
C3120 C3128 1.378 . S
C3121 C3120 1.367 . S
C3121 C3129 1.433 . S
C3122 H3118 0.929 . S
C3122 C3124 1.378 . S
C3122 C3126 1.350 . S
C3123 C3126 1.463 . S
C3123 C3128 1.350 . S
C3123 N3131 1.427 . S
C3124 H3115 0.930 . S
C3124 C3122 1.378 . S
C3124 C3125 1.367 . S
C3125 C3124 1.367 . S
C3125 C3127 1.433 . S
C3126 C3122 1.350 . S
C3126 C3123 1.463 . S
C3126 N3130 1.427 . S
C3127 H3117 0.929 . S
C3127 C3125 1.433 . S
C3127 N3130 1.384 . S
C3128 H3119 0.929 . S
C3128 C3120 1.378 . S
C3128 C3123 1.350 . S
C3129 H3116 0.929 . S
C3129 C3121 1.433 . S
C3129 N3131 1.384 . S
N3130 C3126 1.427 . S
N3130 C3127 1.384 . S
N3131 C3123 1.427 . S
N3131 C3129 1.384 . S
H3132 C3138 0.930 . S
H3133 C3142 0.930 . S
H3134 C3147 0.929 . S
H3135 C3145 0.929 . S
H3136 C3140 0.929 . S
H3137 C3146 0.929 . S
C3138 H3132 0.930 . S
C3138 C3139 1.367 . S
C3138 C3146 1.378 . S
C3139 C3138 1.367 . S
C3139 C3147 1.433 . S
C3140 H3136 0.929 . S
C3140 C3142 1.378 . S
C3140 C3144 1.350 . S
C3141 C3144 1.463 . S
C3141 C3146 1.350 . S
C3141 N3149 1.427 . S
C3142 H3133 0.930 . S
C3142 C3140 1.378 . S
C3142 C3143 1.367 . S
C3143 C3142 1.367 . S
C3143 C3145 1.433 . S
C3144 C3140 1.350 . S
C3144 C3141 1.463 . S
C3144 N3148 1.427 . S
C3145 H3135 0.929 . S
C3145 C3143 1.433 . S
C3145 N3148 1.384 . S
C3146 H3137 0.929 . S
C3146 C3138 1.378 . S
C3146 C3141 1.350 . S
C3147 H3134 0.929 . S
C3147 C3139 1.433 . S
C3147 N3149 1.384 . S
N3148 C3144 1.427 . S
N3148 C3145 1.384 . S
N3149 C3141 1.427 . S
N3149 C3147 1.384 . S
H3150 C3156 0.930 . S
H3151 C3160 0.930 . S
H3152 C3165 0.929 . S
H3153 C3163 0.929 . S
H3154 C3158 0.929 . S
H3155 C3164 0.929 . S
C3156 H3150 0.930 . S
C3156 C3157 1.367 . S
C3156 C3164 1.378 . S
C3157 C3156 1.367 . S
C3157 C3165 1.433 . S
C3158 H3154 0.929 . S
C3158 C3160 1.378 . S
C3158 C3162 1.350 . S
C3159 C3162 1.463 . S
C3159 C3164 1.350 . S
C3159 N3167 1.427 . S
C3160 H3151 0.930 . S
C3160 C3158 1.378 . S
C3160 C3161 1.367 . S
C3161 C3160 1.367 . S
C3161 C3163 1.433 . S
C3162 C3158 1.350 . S
C3162 C3159 1.463 . S
C3162 N3166 1.427 . S
C3163 H3153 0.929 . S
C3163 C3161 1.433 . S
C3163 N3166 1.384 . S
C3164 H3155 0.929 . S
C3164 C3156 1.378 . S
C3164 C3159 1.350 . S
C3165 H3152 0.929 . S
C3165 C3157 1.433 . S
C3165 N3167 1.384 . S
N3166 C3162 1.427 . S
N3166 C3163 1.384 . S
N3167 C3159 1.427 . S
N3167 C3165 1.384 . S
H3168 C3174 0.930 . S
H3169 C3178 0.930 . S
H3170 C3183 0.929 . S
H3171 C3181 0.929 . S
H3172 C3176 0.929 . S
H3173 C3182 0.929 . S
C3174 H3168 0.930 . S
C3174 C3175 1.367 . S
C3174 C3182 1.378 . S
C3175 C3174 1.367 . S
C3175 C3183 1.433 . S
C3176 H3172 0.929 . S
C3176 C3178 1.378 . S
C3176 C3180 1.350 . S
C3177 C3180 1.463 . S
C3177 C3182 1.350 . S
C3177 N3185 1.427 . S
C3178 H3169 0.930 . S
C3178 C3176 1.378 . S
C3178 C3179 1.367 . S
C3179 C3178 1.367 . S
C3179 C3181 1.433 . S
C3180 C3176 1.350 . S
C3180 C3177 1.463 . S
C3180 N3184 1.427 . S
C3181 H3171 0.929 . S
C3181 C3179 1.433 . S
C3181 N3184 1.384 . S
C3182 H3173 0.929 . S
C3182 C3174 1.378 . S
C3182 C3177 1.350 . S
C3183 H3170 0.929 . S
C3183 C3175 1.433 . S
C3183 N3185 1.384 . S
N3184 C3180 1.427 . S
N3184 C3181 1.384 . S
N3185 C3177 1.427 . S
N3185 C3183 1.384 . S
H3186 C3192 0.930 . S
H3187 C3196 0.930 . S
H3188 C3201 0.929 . S
H3189 C3199 0.929 . S
H3190 C3194 0.929 . S
H3191 C3200 0.929 . S
C3192 H3186 0.930 . S
C3192 C3193 1.367 . S
C3192 C3200 1.378 . S
C3193 C3192 1.367 . S
C3193 C3201 1.433 . S
C3194 H3190 0.929 . S
C3194 C3196 1.378 . S
C3194 C3198 1.350 . S
C3195 C3198 1.463 . S
C3195 C3200 1.350 . S
C3195 N3203 1.427 . S
C3196 H3187 0.930 . S
C3196 C3194 1.378 . S
C3196 C3197 1.367 . S
C3197 C3196 1.367 . S
C3197 C3199 1.433 . S
C3198 C3194 1.350 . S
C3198 C3195 1.463 . S
C3198 N3202 1.427 . S
C3199 H3189 0.929 . S
C3199 C3197 1.433 . S
C3199 N3202 1.384 . S
C3200 H3191 0.929 . S
C3200 C3192 1.378 . S
C3200 C3195 1.350 . S
C3201 H3188 0.929 . S
C3201 C3193 1.433 . S
C3201 N3203 1.384 . S
N3202 C3198 1.427 . S
N3202 C3199 1.384 . S
N3203 C3195 1.427 . S
N3203 C3201 1.384 . S
H3204 C3210 0.930 . S
H3205 C3214 0.930 . S
H3206 C3219 0.929 . S
H3207 C3217 0.929 . S
H3208 C3212 0.929 . S
H3209 C3218 0.929 . S
C3210 H3204 0.930 . S
C3210 C3211 1.367 . S
C3210 C3218 1.378 . S
C3211 C3210 1.367 . S
C3211 C3219 1.433 . S
C3212 H3208 0.929 . S
C3212 C3214 1.378 . S
C3212 C3216 1.350 . S
C3213 C3216 1.463 . S
C3213 C3218 1.350 . S
C3213 N3221 1.427 . S
C3214 H3205 0.930 . S
C3214 C3212 1.378 . S
C3214 C3215 1.367 . S
C3215 C3214 1.367 . S
C3215 C3217 1.433 . S
C3216 C3212 1.350 . S
C3216 C3213 1.463 . S
C3216 N3220 1.427 . S
C3217 H3207 0.929 . S
C3217 C3215 1.433 . S
C3217 N3220 1.384 . S
C3218 H3209 0.929 . S
C3218 C3210 1.378 . S
C3218 C3213 1.350 . S
C3219 H3206 0.929 . S
C3219 C3211 1.433 . S
C3219 N3221 1.384 . S
N3220 C3216 1.427 . S
N3220 C3217 1.384 . S
N3221 C3213 1.427 . S
N3221 C3219 1.384 . S
H3222 C3228 0.930 . S
H3223 C3232 0.930 . S
H3224 C3237 0.929 . S
H3225 C3235 0.929 . S
H3226 C3230 0.929 . S
H3227 C3236 0.929 . S
C3228 H3222 0.930 . S
C3228 C3229 1.367 . S
C3228 C3236 1.378 . S
C3229 C3228 1.367 . S
C3229 C3237 1.433 . S
C3230 H3226 0.929 . S
C3230 C3232 1.378 . S
C3230 C3234 1.350 . S
C3231 C3234 1.463 . S
C3231 C3236 1.350 . S
C3231 N3239 1.427 . S
C3232 H3223 0.930 . S
C3232 C3230 1.378 . S
C3232 C3233 1.367 . S
C3233 C3232 1.367 . S
C3233 C3235 1.433 . S
C3234 C3230 1.350 . S
C3234 C3231 1.463 . S
C3234 N3238 1.427 . S
C3235 H3225 0.929 . S
C3235 C3233 1.433 . S
C3235 N3238 1.384 . S
C3236 H3227 0.929 . S
C3236 C3228 1.378 . S
C3236 C3231 1.350 . S
C3237 H3224 0.929 . S
C3237 C3229 1.433 . S
C3237 N3239 1.384 . S
N3238 C3234 1.427 . S
N3238 C3235 1.384 . S
N3239 C3231 1.427 . S
N3239 C3237 1.384 . S
H3240 C3246 0.930 . S
H3241 C3250 0.930 . S
H3242 C3255 0.929 . S
H3243 C3253 0.929 . S
H3244 C3248 0.929 . S
H3245 C3254 0.929 . S
C3246 H3240 0.930 . S
C3246 C3247 1.367 . S
C3246 C3254 1.378 . S
C3247 C3246 1.367 . S
C3247 C3255 1.433 . S
C3248 H3244 0.929 . S
C3248 C3250 1.378 . S
C3248 C3252 1.350 . S
C3249 C3252 1.463 . S
C3249 C3254 1.350 . S
C3249 N3257 1.427 . S
C3250 H3241 0.930 . S
C3250 C3248 1.378 . S
C3250 C3251 1.367 . S
C3251 C3250 1.367 . S
C3251 C3253 1.433 . S
C3252 C3248 1.350 . S
C3252 C3249 1.463 . S
C3252 N3256 1.427 . S
C3253 H3243 0.929 . S
C3253 C3251 1.433 . S
C3253 N3256 1.384 . S
C3254 H3245 0.929 . S
C3254 C3246 1.378 . S
C3254 C3249 1.350 . S
C3255 H3242 0.929 . S
C3255 C3247 1.433 . S
C3255 N3257 1.384 . S
N3256 C3252 1.427 . S
N3256 C3253 1.384 . S
N3257 C3249 1.427 . S
N3257 C3255 1.384 . S
H3258 C3264 0.930 . S
H3259 C3268 0.930 . S
H3260 C3273 0.929 . S
H3261 C3271 0.929 . S
H3262 C3266 0.929 . S
H3263 C3272 0.929 . S
C3264 H3258 0.930 . S
C3264 C3265 1.367 . S
C3264 C3272 1.378 . S
C3265 C3264 1.367 . S
C3265 C3273 1.433 . S
C3266 H3262 0.929 . S
C3266 C3268 1.378 . S
C3266 C3270 1.350 . S
C3267 C3270 1.463 . S
C3267 C3272 1.350 . S
C3267 N3275 1.427 . S
C3268 H3259 0.930 . S
C3268 C3266 1.378 . S
C3268 C3269 1.367 . S
C3269 C3268 1.367 . S
C3269 C3271 1.433 . S
C3270 C3266 1.350 . S
C3270 C3267 1.463 . S
C3270 N3274 1.427 . S
C3271 H3261 0.929 . S
C3271 C3269 1.433 . S
C3271 N3274 1.384 . S
C3272 H3263 0.929 . S
C3272 C3264 1.378 . S
C3272 C3267 1.350 . S
C3273 H3260 0.929 . S
C3273 C3265 1.433 . S
C3273 N3275 1.384 . S
N3274 C3270 1.427 . S
N3274 C3271 1.384 . S
N3275 C3267 1.427 . S
N3275 C3273 1.384 . S
H3276 C3282 0.930 . S
H3277 C3286 0.930 . S
H3278 C3291 0.929 . S
H3279 C3289 0.929 . S
H3280 C3284 0.929 . S
H3281 C3290 0.929 . S
C3282 H3276 0.930 . S
C3282 C3283 1.367 . S
C3282 C3290 1.378 . S
C3283 C3282 1.367 . S
C3283 C3291 1.433 . S
C3284 H3280 0.929 . S
C3284 C3286 1.378 . S
C3284 C3288 1.350 . S
C3285 C3288 1.463 . S
C3285 C3290 1.350 . S
C3285 N3293 1.427 . S
C3286 H3277 0.930 . S
C3286 C3284 1.378 . S
C3286 C3287 1.367 . S
C3287 C3286 1.367 . S
C3287 C3289 1.433 . S
C3288 C3284 1.350 . S
C3288 C3285 1.463 . S
C3288 N3292 1.427 . S
C3289 H3279 0.929 . S
C3289 C3287 1.433 . S
C3289 N3292 1.384 . S
C3290 H3281 0.929 . S
C3290 C3282 1.378 . S
C3290 C3285 1.350 . S
C3291 H3278 0.929 . S
C3291 C3283 1.433 . S
C3291 N3293 1.384 . S
N3292 C3288 1.427 . S
N3292 C3289 1.384 . S
N3293 C3285 1.427 . S
N3293 C3291 1.384 . S
H3294 C3300 0.930 . S
H3295 C3304 0.930 . S
H3296 C3309 0.929 . S
H3297 C3307 0.929 . S
H3298 C3302 0.929 . S
H3299 C3308 0.929 . S
C3300 H3294 0.930 . S
C3300 C3301 1.367 . S
C3300 C3308 1.378 . S
C3301 C3300 1.367 . S
C3301 C3309 1.433 . S
C3302 H3298 0.929 . S
C3302 C3304 1.378 . S
C3302 C3306 1.350 . S
C3303 C3306 1.463 . S
C3303 C3308 1.350 . S
C3303 N3311 1.427 . S
C3304 H3295 0.930 . S
C3304 C3302 1.378 . S
C3304 C3305 1.367 . S
C3305 C3304 1.367 . S
C3305 C3307 1.433 . S
C3306 C3302 1.350 . S
C3306 C3303 1.463 . S
C3306 N3310 1.427 . S
C3307 H3297 0.929 . S
C3307 C3305 1.433 . S
C3307 N3310 1.384 . S
C3308 H3299 0.929 . S
C3308 C3300 1.378 . S
C3308 C3303 1.350 . S
C3309 H3296 0.929 . S
C3309 C3301 1.433 . S
C3309 N3311 1.384 . S
N3310 C3306 1.427 . S
N3310 C3307 1.384 . S
N3311 C3303 1.427 . S
N3311 C3309 1.384 . S
H3312 C3318 0.930 . S
H3313 C3322 0.930 . S
H3314 C3327 0.929 . S
H3315 C3325 0.929 . S
H3316 C3320 0.929 . S
H3317 C3326 0.929 . S
C3318 H3312 0.930 . S
C3318 C3319 1.367 . S
C3318 C3326 1.378 . S
C3319 C3318 1.367 . S
C3319 C3327 1.433 . S
C3320 H3316 0.929 . S
C3320 C3322 1.378 . S
C3320 C3324 1.350 . S
C3321 C3324 1.463 . S
C3321 C3326 1.350 . S
C3321 N3329 1.427 . S
C3322 H3313 0.930 . S
C3322 C3320 1.378 . S
C3322 C3323 1.367 . S
C3323 C3322 1.367 . S
C3323 C3325 1.433 . S
C3324 C3320 1.350 . S
C3324 C3321 1.463 . S
C3324 N3328 1.427 . S
C3325 H3315 0.929 . S
C3325 C3323 1.433 . S
C3325 N3328 1.384 . S
C3326 H3317 0.929 . S
C3326 C3318 1.378 . S
C3326 C3321 1.350 . S
C3327 H3314 0.929 . S
C3327 C3319 1.433 . S
C3327 N3329 1.384 . S
N3328 C3324 1.427 . S
N3328 C3325 1.384 . S
N3329 C3321 1.427 . S
N3329 C3327 1.384 . S
H3330 C3336 0.930 . S
H3331 C3340 0.930 . S
H3332 C3345 0.929 . S
H3333 C3343 0.944 . S
H3334 C3338 0.929 . S
H3335 C3344 0.929 . S
C3336 H3330 0.930 . S
C3336 C3337 1.367 . S
C3336 C3344 1.378 . S
C3337 C3336 1.367 . S
C3337 C3345 1.433 . S
C3338 H3334 0.929 . S
C3338 C3340 1.378 . S
C3338 C3342 1.350 . S
C3339 C3342 1.463 . S
C3339 C3344 1.350 . S
C3339 N3347 1.427 . S
C3340 H3331 0.930 . S
C3340 C3338 1.378 . S
C3340 C3341 1.367 . S
C3341 C3340 1.367 . S
C3341 C3343 1.429 1_455 S
C3342 C3338 1.350 . S
C3342 C3339 1.463 . S
C3342 N3346 1.427 . S
C3343 H3333 0.944 . S
C3343 C3341 1.429 1_655 S
C3343 N3346 1.372 1_655 S
C3344 H3335 0.929 . S
C3344 C3336 1.378 . S
C3344 C3339 1.350 . S
C3345 H3332 0.929 . S
C3345 C3337 1.433 . S
C3345 N3347 1.384 . S
N3346 C3342 1.427 . S
N3346 C3343 1.372 1_455 S
N3347 C3339 1.427 . S
N3347 C3345 1.384 . S
H3348 C3354 0.930 . S
H3349 C3358 0.930 . S
H3350 C3363 0.929 . S
H3351 C3361 0.929 . S
H3352 C3356 0.929 . S
H3353 C3362 0.929 . S
C3354 H3348 0.930 . S
C3354 C3355 1.367 . S
C3354 C3362 1.378 . S
C3355 C3354 1.367 . S
C3355 C3363 1.433 . S
C3356 H3352 0.929 . S
C3356 C3358 1.378 . S
C3356 C3360 1.350 . S
C3357 C3360 1.463 . S
C3357 C3362 1.350 . S
C3357 N3365 1.427 . S
C3358 H3349 0.930 . S
C3358 C3356 1.378 . S
C3358 C3359 1.367 . S
C3359 C3358 1.367 . S
C3359 C3361 1.433 . S
C3360 C3356 1.350 . S
C3360 C3357 1.463 . S
C3360 N3364 1.427 . S
C3361 H3351 0.929 . S
C3361 C3359 1.433 . S
C3361 N3364 1.384 . S
C3362 H3353 0.929 . S
C3362 C3354 1.378 . S
C3362 C3357 1.350 . S
C3363 H3350 0.929 . S
C3363 C3355 1.433 . S
C3363 N3365 1.384 . S
N3364 C3360 1.427 . S
N3364 C3361 1.384 . S
N3365 C3357 1.427 . S
N3365 C3363 1.384 . S
H3366 C3372 0.930 . S
H3367 C3376 0.930 . S
H3368 C3381 0.929 . S
H3369 C3379 0.929 . S
H3370 C3374 0.929 . S
H3371 C3380 0.929 . S
C3372 H3366 0.930 . S
C3372 C3373 1.367 1_545 S
C3372 C3380 1.378 . S
C3373 C3372 1.367 1_565 S
C3373 C3381 1.433 . S
C3374 H3370 0.929 . S
C3374 C3376 1.378 . S
C3374 C3378 1.350 . S
C3375 C3378 1.463 . S
C3375 C3380 1.350 1_565 S
C3375 N3383 1.427 . S
C3376 H3367 0.930 . S
C3376 C3374 1.378 . S
C3376 C3377 1.367 . S
C3377 C3376 1.367 . S
C3377 C3379 1.433 1_565 S
C3378 C3374 1.350 . S
C3378 C3375 1.463 . S
C3378 N3382 1.427 1_565 S
C3379 H3369 0.929 . S
C3379 C3377 1.433 1_545 S
C3379 N3382 1.384 . S
C3380 H3371 0.929 . S
C3380 C3372 1.378 . S
C3380 C3375 1.350 1_545 S
C3381 H3368 0.929 . S
C3381 C3373 1.433 . S
C3381 N3383 1.384 . S
N3382 C3378 1.427 1_545 S
N3382 C3379 1.384 . S
N3383 C3375 1.427 . S
N3383 C3381 1.384 . S
H3384 C3390 0.930 1_545 S
H3385 C3394 0.930 . S
H3386 C3399 0.929 . S
H3387 C3397 0.929 . S
H3388 C3392 0.929 . S
H3389 C3398 0.929 1_545 S
C3390 H3384 0.930 1_565 S
C3390 C3391 1.367 . S
C3390 C3398 1.378 . S
C3391 C3390 1.367 . S
C3391 C3399 1.433 . S
C3392 H3388 0.929 . S
C3392 C3394 1.378 . S
C3392 C3396 1.350 . S
C3393 C3396 1.463 . S
C3393 C3398 1.350 . S
C3393 N3401 1.427 . S
C3394 H3385 0.930 . S
C3394 C3392 1.378 . S
C3394 C3395 1.367 . S
C3395 C3394 1.367 . S
C3395 C3397 1.433 1_565 S
C3396 C3392 1.350 . S
C3396 C3393 1.463 . S
C3396 N3400 1.427 1_565 S
C3397 H3387 0.929 . S
C3397 C3395 1.433 1_545 S
C3397 N3400 1.384 . S
C3398 H3389 0.929 1_565 S
C3398 C3390 1.378 . S
C3398 C3393 1.350 . S
C3399 H3386 0.929 . S
C3399 C3391 1.433 . S
C3399 N3401 1.384 . S
N3400 C3396 1.427 1_545 S
N3400 C3397 1.384 . S
N3401 C3393 1.427 . S
N3401 C3399 1.384 . S
H3402 C3408 0.957 . S
H3403 C3412 0.930 . S
H3404 C3417 0.929 . S
H3405 C3415 0.929 . S
H3406 C3410 0.929 . S
H3407 C3416 0.929 . S
C3408 H3402 0.957 . S
C3408 C3409 1.353 1_655 S
C3408 C3416 1.366 . S
C3409 C3408 1.353 1_455 S
C3409 C3417 1.433 . S
C3410 H3406 0.929 . S
C3410 C3412 1.378 . S
C3410 C3414 1.350 . S
C3411 C3414 1.463 . S
C3411 C3416 1.350 1_455 S
C3411 N3419 1.427 . S
C3412 H3403 0.930 . S
C3412 C3410 1.378 . S
C3412 C3413 1.367 . S
C3413 C3412 1.367 . S
C3413 C3415 1.433 1_455 S
C3414 C3410 1.350 . S
C3414 C3411 1.463 . S
C3414 N3418 1.427 1_455 S
C3415 H3405 0.929 . S
C3415 C3413 1.433 1_655 S
C3415 N3418 1.384 . S
C3416 H3407 0.929 . S
C3416 C3408 1.366 . S
C3416 C3411 1.350 1_655 S
C3417 H3404 0.929 . S
C3417 C3409 1.433 . S
C3417 N3419 1.384 . S
N3418 C3414 1.427 1_655 S
N3418 C3415 1.384 . S
N3419 C3411 1.427 . S
N3419 C3417 1.384 . S
H3420 C3426 0.930 . S
H3421 C3430 0.930 . S
H3422 C3435 0.929 . S
H3423 C3433 0.929 . S
H3424 C3428 0.929 . S
H3425 C3434 0.929 . S
C3426 H3420 0.930 . S
C3426 C3427 1.367 . S
C3426 C3434 1.378 . S
C3427 C3426 1.367 . S
C3427 C3435 1.433 . S
C3428 H3424 0.929 . S
C3428 C3430 1.378 . S
C3428 C3432 1.350 . S
C3429 C3432 1.463 . S
C3429 C3434 1.350 . S
C3429 N3437 1.427 . S
C3430 H3421 0.930 . S
C3430 C3428 1.378 . S
C3430 C3431 1.367 . S
C3431 C3430 1.367 . S
C3431 C3433 1.433 . S
C3432 C3428 1.350 . S
C3432 C3429 1.463 . S
C3432 N3436 1.427 . S
C3433 H3423 0.929 . S
C3433 C3431 1.433 . S
C3433 N3436 1.384 . S
C3434 H3425 0.929 . S
C3434 C3426 1.378 . S
C3434 C3429 1.350 . S
C3435 H3422 0.929 . S
C3435 C3427 1.433 . S
C3435 N3437 1.384 . S
N3436 C3432 1.427 . S
N3436 C3433 1.384 . S
N3437 C3429 1.427 . S
N3437 C3435 1.384 . S
H3438 C3444 0.930 . S
H3439 C3448 0.930 . S
H3440 C3453 0.929 . S
H3441 C3451 0.929 . S
H3442 C3446 0.929 . S
H3443 C3452 0.929 . S
C3444 H3438 0.930 . S
C3444 C3445 1.367 . S
C3444 C3452 1.378 . S
C3445 C3444 1.367 . S
C3445 C3453 1.433 . S
C3446 H3442 0.929 . S
C3446 C3448 1.378 . S
C3446 C3450 1.350 . S
C3447 C3450 1.463 . S
C3447 C3452 1.350 . S
C3447 N3455 1.427 . S
C3448 H3439 0.930 . S
C3448 C3446 1.378 . S
C3448 C3449 1.367 . S
C3449 C3448 1.367 . S
C3449 C3451 1.433 . S
C3450 C3446 1.350 . S
C3450 C3447 1.463 . S
C3450 N3454 1.427 . S
C3451 H3441 0.929 . S
C3451 C3449 1.433 . S
C3451 N3454 1.384 . S
C3452 H3443 0.929 . S
C3452 C3444 1.378 . S
C3452 C3447 1.350 . S
C3453 H3440 0.929 . S
C3453 C3445 1.433 . S
C3453 N3455 1.384 . S
N3454 C3450 1.427 . S
N3454 C3451 1.384 . S
N3455 C3447 1.427 . S
N3455 C3453 1.384 . S
H3456 C3462 0.930 . S
H3457 C3466 0.930 . S
H3458 C3471 0.929 . S
H3459 C3469 0.929 . S
H3460 C3464 0.929 . S
H3461 C3470 0.929 . S
C3462 H3456 0.930 . S
C3462 C3463 1.367 . S
C3462 C3470 1.378 . S
C3463 C3462 1.367 . S
C3463 C3471 1.433 . S
C3464 H3460 0.929 . S
C3464 C3466 1.378 . S
C3464 C3468 1.350 . S
C3465 C3468 1.463 . S
C3465 C3470 1.350 . S
C3465 N3473 1.427 . S
C3466 H3457 0.930 . S
C3466 C3464 1.378 . S
C3466 C3467 1.367 . S
C3467 C3466 1.367 . S
C3467 C3469 1.433 . S
C3468 C3464 1.350 . S
C3468 C3465 1.463 . S
C3468 N3472 1.427 . S
C3469 H3459 0.929 . S
C3469 C3467 1.433 . S
C3469 N3472 1.384 . S
C3470 H3461 0.929 . S
C3470 C3462 1.378 . S
C3470 C3465 1.350 . S
C3471 H3458 0.929 . S
C3471 C3463 1.433 . S
C3471 N3473 1.384 . S
N3472 C3468 1.427 . S
N3472 C3469 1.384 . S
N3473 C3465 1.427 . S
N3473 C3471 1.384 . S
H3474 C3480 0.930 . S
H3475 C3484 0.930 . S
H3476 C3489 0.929 . S
H3477 C3487 0.929 . S
H3478 C3482 0.929 . S
H3479 C3488 0.929 . S
C3480 H3474 0.930 . S
C3480 C3481 1.367 . S
C3480 C3488 1.378 . S
C3481 C3480 1.367 . S
C3481 C3489 1.433 . S
C3482 H3478 0.929 . S
C3482 C3484 1.378 . S
C3482 C3486 1.350 . S
C3483 C3486 1.463 . S
C3483 C3488 1.350 . S
C3483 N3491 1.427 . S
C3484 H3475 0.930 . S
C3484 C3482 1.378 . S
C3484 C3485 1.367 . S
C3485 C3484 1.367 . S
C3485 C3487 1.433 . S
C3486 C3482 1.350 . S
C3486 C3483 1.463 . S
C3486 N3490 1.427 . S
C3487 H3477 0.929 . S
C3487 C3485 1.433 . S
C3487 N3490 1.384 . S
C3488 H3479 0.929 . S
C3488 C3480 1.378 . S
C3488 C3483 1.350 . S
C3489 H3476 0.929 . S
C3489 C3481 1.433 . S
C3489 N3491 1.384 . S
N3490 C3486 1.427 . S
N3490 C3487 1.384 . S
N3491 C3483 1.427 . S
N3491 C3489 1.384 . S
H3492 C3498 0.930 . S
H3493 C3502 0.930 . S
H3494 C3507 0.929 1_565 S
H3495 C3505 0.929 . S
H3496 C3500 0.929 . S
H3497 C3506 0.929 . S
C3498 H3492 0.930 . S
C3498 C3499 1.367 . S
C3498 C3506 1.378 . S
C3499 C3498 1.367 . S
C3499 C3507 1.433 . S
C3500 H3496 0.929 . S
C3500 C3502 1.378 . S
C3500 C3504 1.350 1_565 S
C3501 C3504 1.463 . S
C3501 C3506 1.350 . S
C3501 N3509 1.427 . S
C3502 H3493 0.930 . S
C3502 C3500 1.378 . S
C3502 C3503 1.367 1_565 S
C3503 C3502 1.367 1_545 S
C3503 C3505 1.433 . S
C3504 C3500 1.350 1_545 S
C3504 C3501 1.463 . S
C3504 N3508 1.427 . S
C3505 H3495 0.929 . S
C3505 C3503 1.433 . S
C3505 N3508 1.384 . S
C3506 H3497 0.929 . S
C3506 C3498 1.378 . S
C3506 C3501 1.350 . S
C3507 H3494 0.929 1_545 S
C3507 C3499 1.433 . S
C3507 N3509 1.384 . S
N3508 C3504 1.427 . S
N3508 C3505 1.384 . S
N3509 C3501 1.427 . S
N3509 C3507 1.384 . S
H3510 C3516 0.930 . S
H3511 C3520 0.930 . S
H3512 C3525 1.006 . S
H3513 C3523 0.929 . S
H3514 C3518 0.929 . S
H3515 C3524 0.929 . S
C3516 H3510 0.930 . S
C3516 C3517 1.367 . S
C3516 C3524 1.378 . S
C3517 C3516 1.367 . S
C3517 C3525 1.383 1_655 S
C3518 H3514 0.929 . S
C3518 C3520 1.378 . S
C3518 C3522 1.350 1_455 S
C3519 C3522 1.463 . S
C3519 C3524 1.350 . S
C3519 N3527 1.427 1_655 S
C3520 H3511 0.930 . S
C3520 C3518 1.378 . S
C3520 C3521 1.367 1_455 S
C3521 C3520 1.367 1_655 S
C3521 C3523 1.433 . S
C3522 C3518 1.350 1_655 S
C3522 C3519 1.463 . S
C3522 N3526 1.427 . S
C3523 H3513 0.929 . S
C3523 C3521 1.433 . S
C3523 N3526 1.384 . S
C3524 H3515 0.929 . S
C3524 C3516 1.378 . S
C3524 C3519 1.350 . S
C3525 H3512 1.006 . S
C3525 C3517 1.383 1_455 S
C3525 N3527 1.357 . S
N3526 C3522 1.427 . S
N3526 C3523 1.384 . S
N3527 C3519 1.427 1_455 S
N3527 C3525 1.357 . S
H3528 C3534 0.930 . S
H3529 C3538 0.930 . S
H3530 C3543 0.929 . S
H3531 C3541 0.929 . S
H3532 C3536 0.929 . S
H3533 C3542 0.929 . S
C3534 H3528 0.930 . S
C3534 C3535 1.367 . S
C3534 C3542 1.378 . S
C3535 C3534 1.367 . S
C3535 C3543 1.433 . S
C3536 H3532 0.929 . S
C3536 C3538 1.378 . S
C3536 C3540 1.350 . S
C3537 C3540 1.463 . S
C3537 C3542 1.350 . S
C3537 N3545 1.427 . S
C3538 H3529 0.930 . S
C3538 C3536 1.378 . S
C3538 C3539 1.367 . S
C3539 C3538 1.367 . S
C3539 C3541 1.433 . S
C3540 C3536 1.350 . S
C3540 C3537 1.463 . S
C3540 N3544 1.427 . S
C3541 H3531 0.929 . S
C3541 C3539 1.433 . S
C3541 N3544 1.384 . S
C3542 H3533 0.929 . S
C3542 C3534 1.378 . S
C3542 C3537 1.350 . S
C3543 H3530 0.929 . S
C3543 C3535 1.433 . S
C3543 N3545 1.384 . S
N3544 C3540 1.427 . S
N3544 C3541 1.384 . S
N3545 C3537 1.427 . S
N3545 C3543 1.384 . S
H3546 C3552 0.930 . S
H3547 C3556 0.930 . S
H3548 C3561 0.929 . S
H3549 C3559 0.929 . S
H3550 C3554 0.929 . S
H3551 C3560 0.929 . S
C3552 H3546 0.930 . S
C3552 C3553 1.367 . S
C3552 C3560 1.378 . S
C3553 C3552 1.367 . S
C3553 C3561 1.433 . S
C3554 H3550 0.929 . S
C3554 C3556 1.378 . S
C3554 C3558 1.350 . S
C3555 C3558 1.463 . S
C3555 C3560 1.350 . S
C3555 N3563 1.427 . S
C3556 H3547 0.930 . S
C3556 C3554 1.378 . S
C3556 C3557 1.367 . S
C3557 C3556 1.367 . S
C3557 C3559 1.433 . S
C3558 C3554 1.350 . S
C3558 C3555 1.463 . S
C3558 N3562 1.427 . S
C3559 H3549 0.929 . S
C3559 C3557 1.433 . S
C3559 N3562 1.384 . S
C3560 H3551 0.929 . S
C3560 C3552 1.378 . S
C3560 C3555 1.350 . S
C3561 H3548 0.929 . S
C3561 C3553 1.433 . S
C3561 N3563 1.384 . S
N3562 C3558 1.427 . S
N3562 C3559 1.384 . S
N3563 C3555 1.427 . S
N3563 C3561 1.384 . S
H3564 C3570 0.930 . S
H3565 C3574 0.930 . S
H3566 C3579 0.929 . S
H3567 C3577 0.929 . S
H3568 C3572 0.929 . S
H3569 C3578 0.929 . S
C3570 H3564 0.930 . S
C3570 C3571 1.367 . S
C3570 C3578 1.378 . S
C3571 C3570 1.367 . S
C3571 C3579 1.433 . S
C3572 H3568 0.929 . S
C3572 C3574 1.378 . S
C3572 C3576 1.350 . S
C3573 C3576 1.463 . S
C3573 C3578 1.350 . S
C3573 N3581 1.427 . S
C3574 H3565 0.930 . S
C3574 C3572 1.378 . S
C3574 C3575 1.367 . S
C3575 C3574 1.367 . S
C3575 C3577 1.433 . S
C3576 C3572 1.350 . S
C3576 C3573 1.463 . S
C3576 N3580 1.427 . S
C3577 H3567 0.929 . S
C3577 C3575 1.433 . S
C3577 N3580 1.384 . S
C3578 H3569 0.929 . S
C3578 C3570 1.378 . S
C3578 C3573 1.350 . S
C3579 H3566 0.929 . S
C3579 C3571 1.433 . S
C3579 N3581 1.384 . S
N3580 C3576 1.427 . S
N3580 C3577 1.384 . S
N3581 C3573 1.427 . S
N3581 C3579 1.384 . S
H3582 C3588 0.930 . S
H3583 C3592 0.930 . S
H3584 C3597 0.929 . S
H3585 C3595 0.929 . S
H3586 C3590 0.929 . S
H3587 C3596 0.929 . S
C3588 H3582 0.930 . S
C3588 C3589 1.367 . S
C3588 C3596 1.378 . S
C3589 C3588 1.367 . S
C3589 C3597 1.433 . S
C3590 H3586 0.929 . S
C3590 C3592 1.378 . S
C3590 C3594 1.350 . S
C3591 C3594 1.463 . S
C3591 C3596 1.350 . S
C3591 N3599 1.427 . S
C3592 H3583 0.930 . S
C3592 C3590 1.378 . S
C3592 C3593 1.367 . S
C3593 C3592 1.367 . S
C3593 C3595 1.433 . S
C3594 C3590 1.350 . S
C3594 C3591 1.463 . S
C3594 N3598 1.427 . S
C3595 H3585 0.929 . S
C3595 C3593 1.433 . S
C3595 N3598 1.384 . S
C3596 H3587 0.929 . S
C3596 C3588 1.378 . S
C3596 C3591 1.350 . S
C3597 H3584 0.929 . S
C3597 C3589 1.433 . S
C3597 N3599 1.384 . S
N3598 C3594 1.427 . S
N3598 C3595 1.384 . S
N3599 C3591 1.427 . S
N3599 C3597 1.384 . S
H3600 C3606 0.930 . S
H3601 C3610 0.930 . S
H3602 C3615 0.929 . S
H3603 C3613 0.929 . S
H3604 C3608 0.929 . S
H3605 C3614 0.929 . S
C3606 H3600 0.930 . S
C3606 C3607 1.367 . S
C3606 C3614 1.378 . S
C3607 C3606 1.367 . S
C3607 C3615 1.433 . S
C3608 H3604 0.929 . S
C3608 C3610 1.378 . S
C3608 C3612 1.350 . S
C3609 C3612 1.463 . S
C3609 C3614 1.350 . S
C3609 N3617 1.427 . S
C3610 H3601 0.930 . S
C3610 C3608 1.378 . S
C3610 C3611 1.367 . S
C3611 C3610 1.367 . S
C3611 C3613 1.433 . S
C3612 C3608 1.350 . S
C3612 C3609 1.463 . S
C3612 N3616 1.427 . S
C3613 H3603 0.929 . S
C3613 C3611 1.433 . S
C3613 N3616 1.384 . S
C3614 H3605 0.929 . S
C3614 C3606 1.378 . S
C3614 C3609 1.350 . S
C3615 H3602 0.929 . S
C3615 C3607 1.433 . S
C3615 N3617 1.384 . S
N3616 C3612 1.427 . S
N3616 C3613 1.384 . S
N3617 C3609 1.427 . S
N3617 C3615 1.384 . S
H3618 C3624 0.930 . S
H3619 C3628 0.930 . S
H3620 C3633 0.929 . S
H3621 C3631 0.929 . S
H3622 C3626 0.929 . S
H3623 C3632 0.929 . S
C3624 H3618 0.930 . S
C3624 C3625 1.367 . S
C3624 C3632 1.378 . S
C3625 C3624 1.367 . S
C3625 C3633 1.433 . S
C3626 H3622 0.929 . S
C3626 C3628 1.378 . S
C3626 C3630 1.350 . S
C3627 C3630 1.463 . S
C3627 C3632 1.350 . S
C3627 N3635 1.427 . S
C3628 H3619 0.930 . S
C3628 C3626 1.378 . S
C3628 C3629 1.367 . S
C3629 C3628 1.367 . S
C3629 C3631 1.433 . S
C3630 C3626 1.350 . S
C3630 C3627 1.463 . S
C3630 N3634 1.427 . S
C3631 H3621 0.929 . S
C3631 C3629 1.433 . S
C3631 N3634 1.384 . S
C3632 H3623 0.929 . S
C3632 C3624 1.378 . S
C3632 C3627 1.350 . S
C3633 H3620 0.929 . S
C3633 C3625 1.433 . S
C3633 N3635 1.384 . S
N3634 C3630 1.427 . S
N3634 C3631 1.384 . S
N3635 C3627 1.427 . S
N3635 C3633 1.384 . S
H3636 C3642 0.930 . S
H3637 C3646 0.930 . S
H3638 C3651 0.929 . S
H3639 C3649 0.929 . S
H3640 C3644 0.929 . S
H3641 C3650 0.929 . S
C3642 H3636 0.930 . S
C3642 C3643 1.367 . S
C3642 C3650 1.378 . S
C3643 C3642 1.367 . S
C3643 C3651 1.433 . S
C3644 H3640 0.929 . S
C3644 C3646 1.378 . S
C3644 C3648 1.350 . S
C3645 C3648 1.463 . S
C3645 C3650 1.350 . S
C3645 N3653 1.427 . S
C3646 H3637 0.930 . S
C3646 C3644 1.378 . S
C3646 C3647 1.367 . S
C3647 C3646 1.367 . S
C3647 C3649 1.433 . S
C3648 C3644 1.350 . S
C3648 C3645 1.463 . S
C3648 N3652 1.427 . S
C3649 H3639 0.929 . S
C3649 C3647 1.433 . S
C3649 N3652 1.384 . S
C3650 H3641 0.929 . S
C3650 C3642 1.378 . S
C3650 C3645 1.350 . S
C3651 H3638 0.929 . S
C3651 C3643 1.433 . S
C3651 N3653 1.384 . S
N3652 C3648 1.427 . S
N3652 C3649 1.384 . S
N3653 C3645 1.427 . S
N3653 C3651 1.384 . S
H3654 C3660 0.930 . S
H3655 C3664 0.930 . S
H3656 C3669 0.929 . S
H3657 C3667 0.929 . S
H3658 C3662 0.929 . S
H3659 C3668 0.909 1_455 S
C3660 H3654 0.930 . S
C3660 C3661 1.367 . S
C3660 C3668 1.378 . S
C3661 C3660 1.367 . S
C3661 C3669 1.433 . S
C3662 H3658 0.929 . S
C3662 C3664 1.378 . S
C3662 C3666 1.350 . S
C3663 C3666 1.463 . S
C3663 C3668 1.350 . S
C3663 N3671 1.427 . S
C3664 H3655 0.930 . S
C3664 C3662 1.378 . S
C3664 C3665 1.367 . S
C3665 C3664 1.367 . S
C3665 C3667 1.433 1_655 S
C3666 C3662 1.350 . S
C3666 C3663 1.463 . S
C3666 N3670 1.436 . S
C3667 H3657 0.929 . S
C3667 C3665 1.433 1_455 S
C3667 N3670 1.372 1_455 S
C3668 H3659 0.909 1_655 S
C3668 C3660 1.378 . S
C3668 C3663 1.350 . S
C3669 H3656 0.929 . S
C3669 C3661 1.433 . S
C3669 N3671 1.384 . S
N3670 C3666 1.436 . S
N3670 C3667 1.372 1_655 S
N3671 C3663 1.427 . S
N3671 C3669 1.384 . S
H3672 C3678 0.930 . S
H3673 C3682 0.930 . S
H3674 C3687 0.929 . S
H3675 C3685 0.929 . S
H3676 C3680 0.929 . S
H3677 C3686 0.929 . S
C3678 H3672 0.930 . S
C3678 C3679 1.367 . S
C3678 C3686 1.378 . S
C3679 C3678 1.367 . S
C3679 C3687 1.433 . S
C3680 H3676 0.929 . S
C3680 C3682 1.378 . S
C3680 C3684 1.350 . S
C3681 C3684 1.463 . S
C3681 C3686 1.350 . S
C3681 N3689 1.427 . S
C3682 H3673 0.930 . S
C3682 C3680 1.378 . S
C3682 C3683 1.367 . S
C3683 C3682 1.367 . S
C3683 C3685 1.433 . S
C3684 C3680 1.350 . S
C3684 C3681 1.463 . S
C3684 N3688 1.427 . S
C3685 H3675 0.929 . S
C3685 C3683 1.433 . S
C3685 N3688 1.384 . S
C3686 H3677 0.929 . S
C3686 C3678 1.378 . S
C3686 C3681 1.350 . S
C3687 H3674 0.929 . S
C3687 C3679 1.433 . S
C3687 N3689 1.384 . S
N3688 C3684 1.427 . S
N3688 C3685 1.384 . S
N3689 C3681 1.427 . S
N3689 C3687 1.384 . S
H3690 C3696 0.930 . S
H3691 C3700 0.930 . S
H3692 C3705 0.929 . S
H3693 C3703 0.929 . S
H3694 C3698 0.929 . S
H3695 C3704 0.929 . S
C3696 H3690 0.930 . S
C3696 C3697 1.367 . S
C3696 C3704 1.378 . S
C3697 C3696 1.367 . S
C3697 C3705 1.433 1_545 S
C3698 H3694 0.929 . S
C3698 C3700 1.378 . S
C3698 C3702 1.350 1_565 S
C3699 C3702 1.463 . S
C3699 C3704 1.350 . S
C3699 N3707 1.427 1_545 S
C3700 H3691 0.930 . S
C3700 C3698 1.378 . S
C3700 C3701 1.367 1_565 S
C3701 C3700 1.367 1_545 S
C3701 C3703 1.433 . S
C3702 C3698 1.350 1_545 S
C3702 C3699 1.463 . S
C3702 N3706 1.427 . S
C3703 H3693 0.929 . S
C3703 C3701 1.433 . S
C3703 N3706 1.384 . S
C3704 H3695 0.929 . S
C3704 C3696 1.378 . S
C3704 C3699 1.350 . S
C3705 H3692 0.929 . S
C3705 C3697 1.433 1_565 S
C3705 N3707 1.384 . S
N3706 C3702 1.427 . S
N3706 C3703 1.384 . S
N3707 C3699 1.427 1_565 S
N3707 C3705 1.384 . S
C2419 C49 1.573 . S
C2423 C2020 1.618 . S
C2437 C137 1.616 . S
C2441 C2066 1.623 . S
C2459 C2098 1.636 . S
C2455 C205 1.589 . S
C2473 C196 1.576 . S
C2477 C2151 1.619 . S
C2491 C57 1.592 . S
C2495 C2197 1.650 . S
C2509 C145 1.612 . S
C2513 C2236 1.630 . S
C2527 C313 1.581 . S
C2531 C2190 1.623 . S
C2549 C2243 1.629 . S
C2545 C401 1.614 . S
C2567 C2144 1.640 . S
C2563 C489 1.586 . S
C2581 C469 1.569 . S
C2585 C2105 1.612 . S
C2603 C1999 1.642 . S
C2599 C293 1.596 . S
C2617 C381 1.620 . S
C2621 C2045 1.618 . S
C2635 C577 1.692 . S
C2639 C2275 1.698 . S
C2653 C645 1.665 . S
C2657 C2342 1.650 . S
C2675 C2388 1.620 . S
C2671 C733 1.622 . S
C2689 C724 1.597 . S
C2693 C1599 1.592 . S
C2707 C585 1.673 . S
C2711 C1645 1.672 . S
C2725 C636 1.671 . S
C2729 C1691 1.671 . S
C2743 C841 1.595 . S
C2747 C1638 1.590 . S
C2761 C937 1.680 . S
C2765 C1684 1.671 . S
C2783 C1592 1.676 . S
C2779 C1025 1.671 . S
C2801 C2367 1.698 . S
C2797 C988 1.697 . S
C2819 C2296 1.624 . S
C2815 C821 1.619 . S
C2837 C2321 1.653 . S
C2833 C900 1.670 . S
C2851 C1105 1.592 . S
C2855 C1723 1.603 . S
C2869 C1193 1.674 . S
C2873 C1776 1.679 . S
C2887 C1281 1.673 . S
C2891 C1822 1.680 . S
C2905 C1289 1.695 . S
C2909 C1868 1.697 . S
C2927 C1921 1.615 . S
C2923 C1113 1.626 . S
C2945 C1967 1.649 . S
C2941 C1201 1.668 . S
C2963 C1914 1.693 . S
C2959 C1369 1.701 . S
C2981 C1960 1.655 . S
C2977 C1457 1.669 . S
C2995 C1553 1.624 . S
C2999 C1875 1.622 . S
C3017 C1829 1.598 . S
C3013 C1516 1.595 . S
C3031 C1349 1.671 . S
C3035 C1744 1.682 . S
C3053 C1783 1.682 . S
C3049 C1437 1.679 . S
C3071 C1606 1.615 . S
C3067 C29 1.611 . S
C3085 C117 1.489 . S
C3089 C1652 1.479 . S
C3107 C1698 1.654 . S
C3103 C225 1.648 . S
C3125 C1730 1.604 . S
C3121 C233 1.608 . S
C3143 C1769 1.632 . S
C3139 C20 1.643 . S
C3161 C1815 1.465 . S
C3157 C108 1.497 . S
C3175 C321 1.616 . S
C3179 C1836 1.616 . S
C3193 C409 1.491 . S
C3197 C1737 1.455 . S
C3211 C497 1.644 . S
C3215 C1790 1.630 . S
C3229 C460 1.618 . S
C3233 C1631 1.628 . S
C3251 C1677 1.652 . S
C3247 C284 1.653 . S
C3265 C372 1.490 . S
C3269 C1585 1.473 . S
C3287 C1861 1.454 . S
C3283 C557 1.485 . S
C3301 C665 1.603 . S
C3305 C1928 1.580 . S
C3319 C753 1.594 . S
C3323 C1974 1.575 . S
C3341 C2013 1.154 . S
C3337 C761 1.153 . S
C3355 C548 1.483 . S
C3359 C2059 1.469 . S
C3373 C673 1.158 . S
C3377 C2091 1.160 . S
C3391 C849 1.151 . S
C3395 C2112 1.148 . S
C3409 C929 1.169 . S
C3413 C2006 1.169 . S
C3431 C2052 1.481 . S
C3427 C1017 1.488 . S
C3445 C997 1.499 . S
C3449 C1907 1.489 . S
C3463 C812 1.596 . S
C3467 C1953 1.578 . S
C3485 C1882 1.562 . S
C3481 C909 1.602 . S
C3503 C2158 1.159 . S
C3499 C1085 1.150 . S
C3517 C1173 1.161 . S
C3521 C2204 1.161 . S
C3535 C1261 1.480 . S
C3539 C2229 1.459 . S
C3557 C2282 1.455 . S
C3553 C1252 1.485 . S
C3575 C2335 1.575 . S
C3571 C1076 1.599 . S
C3589 C1164 1.602 . S
C3593 C2381 1.579 . S
C3607 C1377 1.498 . S
C3611 C2374 1.481 . S
C3625 C1465 1.603 . S
C3629 C2289 1.562 . S
C3647 C2328 1.579 . S
C3643 C1545 1.596 . S
C3665 C2183 1.156 . S
C3661 C1525 1.145 . S
C3683 C2250 1.461 . S
C3679 C1340 1.485 . S
C3697 C1428 1.169 . S
C3701 C2137 1.171 . S
