# Generated by pormake.
# Topology rtl, (3,6)-cn, num edge types: 1
# Building blocks:
#     Node 0, Type 0, BuildingBlock: MIDCAF_clean_linker_0, # of connection points: 3
#     Node 1, Type 0, BuildingBlock: MIDCAF_clean_linker_0, # of connection points: 3
#     Node 2, Type 0, BuildingBlock: MIDCAF_clean_linker_0, # of connection points: 3
#     Node 3, Type 0, BuildingBlock: MIDCAF_clean_linker_0, # of connection points: 3
#     Node 4, Type 1, BuildingBlock: KUMJIN_clean_sbu_1, # of connection points: 6
#     Node 5, Type 1, BuildingBlock: KUMJIN_clean_sbu_1, # of connection points: 6
#     Edge 6, Type (0, 1), BuildingBlock: ZUJKAS_clean_linker_0, # of connection points: 2
#     Edge 7, Type (0, 1), BuildingBlock: ZUJKAS_clean_linker_0, # of connection points: 2
#     Edge 8, Type (0, 1), BuildingBlock: ZUJKAS_clean_linker_0, # of connection points: 2
#     Edge 9, Type (0, 1), BuildingBlock: ZUJKAS_clean_linker_0, # of connection points: 2
#     Edge 10, Type (0, 1), BuildingBlock: ZUJKAS_clean_linker_0, # of connection points: 2
#     Edge 11, Type (0, 1), BuildingBlock: ZUJKAS_clean_linker_0, # of connection points: 2
#     Edge 12, Type (0, 1), BuildingBlock: ZUJKAS_clean_linker_0, # of connection points: 2
#     Edge 13, Type (0, 1), BuildingBlock: ZUJKAS_clean_linker_0, # of connection points: 2
#     Edge 14, Type (0, 1), BuildingBlock: ZUJKAS_clean_linker_0, # of connection points: 2
#     Edge 15, Type (0, 1), BuildingBlock: ZUJKAS_clean_linker_0, # of connection points: 2
#     Edge 16, Type (0, 1), BuildingBlock: ZUJKAS_clean_linker_0, # of connection points: 2
#     Edge 17, Type (0, 1), BuildingBlock: ZUJKAS_clean_linker_0, # of connection points: 2
# Relax obj value: 0.017
# Max RMSD: 0.084
# Mean RMSD: 0.052
data_MOF--net-rtl--node1-KUMJIN_clean_sbu_1--node2-MIDCAF_clean_linker_0--edge1-ZUJKAS_clean_linker_0
_symmetry_space_group_name_H-M    P1
_symmetry_Int_Tables_number       1
_symmetry_cell_setting            triclinic
loop_
_symmetry_equiv_pos_as_xyz
'x, y, z'
_cell_length_a     49.137135
_cell_length_b     49.627967
_cell_length_c     42.792294
_cell_angle_alpha  81.797856
_cell_angle_beta   99.677024
_cell_angle_gamma 90.265601
loop_
_atom_site_label
_atom_site_type_symbol
_atom_site_fract_x
_atom_site_fract_y
_atom_site_fract_z
_atom_type_partial_charge
C0 C 0.17495 0.90055 0.09995 0.0
C1 C 0.18637 0.88989 0.13163 0.0
C2 C 0.20871 0.87123 0.13691 0.0
C3 C 0.21922 0.8633 0.11108 0.0
H4 H 0.26859 0.80368 0.08606 0.0
H5 H 0.30168 0.7659 0.0923 0.0
H6 H 0.30575 0.78232 0.99135 0.0
H7 H 0.27317 0.8201 0.98507 0.0
H8 H 0.22744 0.85609 0.93882 0.0
H9 H 0.20504 0.87433 0.88483 0.0
H10 H 0.15282 0.92609 0.92366 0.0
H11 H 0.17545 0.90828 0.97766 0.0
H12 H 0.17586 0.90127 0.0502 0.0
H13 H 0.15741 0.91455 0.09491 0.0
H14 H 0.21818 0.86284 0.16103 0.0
H15 H 0.23638 0.84884 0.11601 0.0
N16 N 0.23796 0.84534 0.05611 0.0
N17 N 0.23586 0.84888 1.00048 0.0
N18 N 0.20723 0.87662 0.02143 0.0
C19 C 0.247 0.83713 0.03055 0.0
C20 C 0.21598 0.86864 0.99568 0.0
C21 C 0.21809 0.86518 0.05171 0.0
C22 C 0.26808 0.81494 0.03503 0.0
C23 C 0.27669 0.79938 0.06523 0.0
C24 C 0.29554 0.77762 0.0688 0.0
C25 C 0.30633 0.77111 0.04232 0.0
C26 C 0.29811 0.787 0.01232 0.0
C27 C 0.27922 0.80859 0.0087 0.0
C28 C 0.20322 0.88059 0.96272 0.0
C29 C 0.2113 0.87147 0.93593 0.0
C30 C 0.19835 0.88181 0.90494 0.0
C31 C 0.17706 0.90156 0.89995 0.0
C32 C 0.16935 0.91109 0.92666 0.0
C33 C 0.18225 0.90073 0.95767 0.0
C34 C 0.20763 0.87388 0.07938 0.0
C35 C 0.18546 0.89272 0.07421 0.0
C36 C 0.61697 0.65185 0.49779 0.0
C37 C 0.62647 0.66384 0.46989 0.0
C38 C 0.64499 0.68542 0.47198 0.0
C39 C 0.65408 0.69459 0.50122 0.0
H40 H 0.71343 0.73955 0.54097 0.0
H41 H 0.75063 0.77178 0.5417 0.0
H42 H 0.7508 0.77474 0.64209 0.0
H43 H 0.713 0.74242 0.64146 0.0
H44 H 0.6803 0.6925 0.67846 0.0
H45 H 0.66335 0.67306 0.72708 0.0
H46 H 0.593 0.64135 0.66981 0.0
H47 H 0.6098 0.66074 0.62113 0.0
H48 H 0.61852 0.65128 0.54825 0.0
H49 H 0.60253 0.63532 0.49692 0.0
H50 H 0.65309 0.69484 0.45112 0.0
H51 H 0.66861 0.71106 0.50175 0.0
N52 N 0.67642 0.71 0.56214 0.0
N53 N 0.67759 0.70804 0.61734 0.0
N54 N 0.64619 0.68151 0.58761 0.0
C55 C 0.68741 0.71837 0.59032 0.0
C56 C 0.65692 0.68963 0.61617 0.0
C57 C 0.65588 0.69164 0.56045 0.0
C58 C 0.71014 0.73823 0.59121 0.0
C59 C 0.72126 0.74696 0.56331 0.0
C60 C 0.7428 0.76536 0.56373 0.0
C61 C 0.75383 0.77565 0.592 0.0
C62 C 0.74263 0.76724 0.61989 0.0
C63 C 0.72106 0.74864 0.61954 0.0
C64 C 0.64645 0.67819 0.6458 0.0
C65 C 0.66117 0.68147 0.67616 0.0
C66 C 0.65156 0.6702 0.70406 0.0
C67 C 0.62686 0.65569 0.70225 0.0
C68 C 0.61199 0.65264 0.67195 0.0
C69 C 0.62173 0.66363 0.64406 0.0
C70 C 0.64494 0.68244 0.52928 0.0
C71 C 0.62604 0.66111 0.52717 0.0
C72 C 0.83664 0.10007 0.94338 0.0
C73 C 0.8239 0.11174 0.91256 0.0
C74 C 0.80131 0.12976 0.90953 0.0
C75 C 0.79224 0.1366 0.93674 0.0
H76 H 0.74139 0.1918 0.9655 0.0
H77 H 0.70743 0.22843 0.96173 0.0
H78 H 0.71775 0.21905 0.06497 0.0
H79 H 0.75107 0.18236 0.06887 0.0
H80 H 0.80321 0.15185 0.10898 0.0
H81 H 0.82801 0.13441 0.16204 0.0
H82 H 0.86235 0.06871 0.12394 0.0
H83 H 0.83747 0.08614 0.07043 0.0
H84 H 0.83818 0.09766 0.99388 0.0
H85 H 0.85383 0.0858 0.94653 0.0
H86 H 0.79118 0.13926 0.88612 0.0
H87 H 0.77514 0.15099 0.93348 0.0
N88 N 0.77721 0.15363 0.9938 0.0
N89 N 0.78363 0.15112 0.04965 0.0
N90 N 0.81015 0.12309 0.02633 0.0
C91 C 0.77029 0.16223 0.02027 0.0
C92 C 0.80351 0.13156 0.05296 0.0
C93 C 0.79711 0.13401 0.99662 0.0
C94 C 0.74906 0.18405 0.01748 0.0
C95 C 0.73631 0.19744 0.9874 0.0
C96 C 0.71695 0.21855 0.98522 0.0
C97 C 0.70983 0.22664 0.01305 0.0
C98 C 0.72241 0.21308 0.04304 0.0
C99 C 0.74173 0.19209 0.04524 0.0
C100 C 0.81834 0.12044 0.08533 0.0
C101 C 0.81596 0.13364 0.11176 0.0
C102 C 0.83032 0.12377 0.1422 0.0
C103 C 0.84721 0.1003 0.14707 0.0
C104 C 0.84936 0.08679 0.12085 0.0
C105 C 0.83522 0.09687 0.09021 0.0
C106 C 0.80548 0.12549 0.96763 0.0
C107 C 0.82754 0.10681 0.97056 0.0
C108 C 0.40028 0.34997 0.55012 0.0
C109 C 0.38781 0.34412 0.57751 0.0
C110 C 0.36612 0.32556 0.57716 0.0
C111 C 0.35685 0.31338 0.54992 0.0
H112 H 0.29447 0.26789 0.51188 0.0
H113 H 0.25746 0.23539 0.51408 0.0
H114 H 0.27121 0.21115 0.42494 0.0
H115 H 0.30855 0.24381 0.4226 0.0
H116 H 0.33894 0.29328 0.37766 0.0
H117 H 0.35648 0.30992 0.32846 0.0
H118 H 0.42182 0.35103 0.3827 0.0
H119 H 0.40465 0.33431 0.43179 0.0
H120 H 0.40085 0.34308 0.50202 0.0
H121 H 0.41686 0.36439 0.54953 0.0
H122 H 0.35634 0.32034 0.59804 0.0
H123 H 0.33998 0.2993 0.55055 0.0
N124 N 0.33766 0.28917 0.49303 0.0
N125 N 0.33822 0.28546 0.4391 0.0
N126 N 0.36902 0.31437 0.46573 0.0
C127 C 0.32745 0.27811 0.4663 0.0
C128 C 0.35904 0.30364 0.43864 0.0
C129 C 0.35846 0.30724 0.49303 0.0
C130 C 0.30458 0.2585 0.46706 0.0
C131 C 0.2897 0.25571 0.49266 0.0
C132 C 0.26831 0.23719 0.49386 0.0
C133 C 0.26138 0.22079 0.46965 0.0
C134 C 0.27623 0.22344 0.44404 0.0
C135 C 0.2975 0.24224 0.44264 0.0
C136 C 0.37029 0.3125 0.40878 0.0
C137 C 0.35717 0.30569 0.37917 0.0
C138 C 0.36712 0.31535 0.35092 0.0
C139 C 0.39052 0.33181 0.35167 0.0
C140 C 0.40394 0.33814 0.38132 0.0
C141 C 0.39393 0.32867 0.40949 0.0
C142 C 0.369 0.31952 0.52229 0.0
C143 C 0.39096 0.33785 0.52281 0.0
Eu144 Eu 0.02193 0.96952 0.50967 0.0
C145 C 0.94782 0.07 0.48396 0.0
N146 N 0.97433 0.06791 0.49959 0.0
C147 C 0.98577 0.10863 0.46759 0.0
C148 C 0.93951 0.09109 0.45839 0.0
C149 C 0.9931 0.08724 0.49266 0.0
C150 C 0.95894 0.1104 0.45013 0.0
C151 C 0.90129 0.05277 0.47809 0.0
C152 C 0.92902 0.05101 0.49376 0.0
C153 C 0.89312 0.07316 0.45184 0.0
C154 C 0.91215 0.09234 0.44212 0.0
Eu155 Eu 0.98527 0.03135 0.5414 0.0
N156 N 0.93751 0.03166 0.51946 0.0
C157 C 0.8824 0.0345 0.48987 0.0
C158 C 0.91864 0.01539 0.53258 0.0
C159 C 0.89103 0.01606 0.51758 0.0
H160 H 0.01383 0.08577 0.50621 0.0
H161 H 0.87632 0.00265 0.52772 0.0
H162 H 0.97625 0.91855 0.50683 0.0
H163 H 0.13074 0.9647 0.56394 0.0
H164 H 0.92451 0.00219 0.55499 0.0
H165 H 0.86093 0.03516 0.4785 0.0
H166 H 0.08843 0.98464 0.52833 0.0
H167 H 1.00081 0.12368 0.46169 0.0
H168 H 0.87196 0.07467 0.43937 0.0
H169 H 0.90539 0.1083 0.42229 0.0
H170 H 0.97085 0.87279 0.53606 0.0
H171 H 0.95335 0.1269 0.43061 0.0
H172 H 0.12898 0.91985 0.59726 0.0
N173 N 0.0157 0.9245 0.53384 0.0
C174 C 0.03753 0.91261 0.55497 0.0
C175 C 0.98959 0.88389 0.54194 0.0
C176 C 0.03583 0.88609 0.57143 0.0
C177 C 0.99248 0.91006 0.52588 0.0
C178 C 0.01121 0.87199 0.56519 0.0
N179 N 0.0632 0.9518 0.54247 0.0
C180 C 0.08765 0.96508 0.54291 0.0
C181 C 0.08565 0.91431 0.57958 0.0
C182 C 0.06213 0.9265 0.55904 0.0
C183 C 0.11045 0.92851 0.58173 0.0
C184 C 0.11153 0.95385 0.56297 0.0
H185 H 0.00904 0.85161 0.57739 0.0
H186 H 0.05789 0.85399 0.60593 0.0
H187 H 0.10153 0.87871 0.61306 0.0
O188 O 0.04077 0.9805 0.46702 0.0
O189 O 0.0394 0.97999 0.55922 0.0
O190 O 0.00252 0.99611 0.57884 0.0
O191 O 0.02775 0.93929 0.47876 0.0
O192 O 0.04056 0.01141 0.50127 0.0
O193 O 0.03126 0.03531 0.54131 0.0
O194 O 0.96203 0.05087 0.57222 0.0
O195 O 0.9902 0.03171 0.48934 0.0
O196 O 0.98133 0.98785 0.4827 0.0
O197 O 0.00518 0.06102 0.57035 0.0
O198 O 0.97142 0.98834 0.55701 0.0
O199 O 0.9764 0.96649 0.51414 0.0
C200 C 0.02696 0.98429 0.58301 0.0
C201 C 0.02571 0.95641 0.42413 0.0
C202 C 0.03223 0.95311 0.36953 0.0
C203 C 0.0038 0.95831 0.35899 0.0
C204 C 0.99735 0.96098 0.41334 0.0
C205 C 0.98649 0.96211 0.38084 0.0
C206 C 0.04304 0.95233 0.40226 0.0
C207 C 0.04596 0.03078 0.51943 0.0
C208 C 0.03761 0.9566 0.45791 0.0
C209 C 0.05889 0.87425 0.59288 0.0
C210 C 0.08376 0.8883 0.5969 0.0
C211 C 0.97894 0.01382 0.47164 0.0
C212 C 0.98256 0.08473 0.60499 0.0
C213 C 0.9653 0.0994 0.65031 0.0
C214 C 0.98347 0.12137 0.64933 0.0
C215 C 1.00063 0.10671 0.60464 0.0
C216 C 0.96464 0.08131 0.62764 0.0
C217 C 1.00091 0.12501 0.62656 0.0
C218 C 0.96552 0.96838 0.53985 0.0
C219 C 0.98314 0.06515 0.58226 0.0
H220 H 0.99488 0.9589 0.33396 0.0
H221 H 0.98371 0.96363 0.43007 0.0
H222 H 0.9646 0.96581 0.37259 0.0
H223 H 0.065 0.94889 0.41069 0.0
H224 H 0.98413 0.13584 0.66615 0.0
H225 H 0.01452 0.1098 0.58734 0.0
H226 H 0.95097 0.06411 0.62836 0.0
H227 H 0.01481 0.14199 0.62604 0.0
Eu228 Eu 0.47432 0.48645 0.99627 0.0
C229 C 0.58388 0.54303 0.02065 0.0
N230 N 0.57885 0.51747 0.03445 0.0
C231 C 0.62077 0.5007 0.02197 0.0
C232 C 0.6075 0.54823 0.00623 0.0
C233 C 0.59698 0.49645 0.03577 0.0
C234 C 0.62599 0.52666 0.00698 0.0
C235 C 0.56981 0.59059 0.00649 0.0
C236 C 0.56499 0.56387 0.02046 0.0
C237 C 0.593 0.59573 0.99145 0.0
C238 C 0.61178 0.57462 0.99132 0.0
Eu239 Eu 0.53795 0.51194 0.0564 0.0
N240 N 0.54245 0.55823 0.03482 0.0
C241 C 0.55161 0.61151 0.00882 0.0
C242 C 0.52644 0.57901 0.03997 0.0
C243 C 0.5302 0.60578 0.02628 0.0
H244 H 0.59301 0.47642 0.04746 0.0
H245 H 0.51695 0.62206 0.02981 0.0
H246 H 0.42316 0.53349 0.98018 0.0
H247 H 0.47431 0.37926 0.04914 0.0
H248 H 0.51137 0.57534 0.05555 0.0
H249 H 0.55462 0.63231 0.99846 0.0
H250 H 0.49382 0.42065 0.02346 0.0
H251 H 0.63503 0.48395 0.02283 0.0
H252 H 0.59684 0.61609 0.98031 0.0
H253 H 0.62968 0.57896 0.97984 0.0
H254 H 0.37503 0.53776 0.98902 0.0
H255 H 0.64437 0.52984 0.99614 0.0
H256 H 0.42634 0.37993 0.05953 0.0
N257 N 0.42798 0.49226 0.00208 0.0
C258 C 0.41577 0.46994 0.01559 0.0
C259 C 0.38631 0.51863 0.99678 0.0
C260 C 0.38821 0.47132 0.02067 0.0
C261 C 0.41365 0.51629 0.99221 0.0
C262 C 0.37356 0.49609 0.0112 0.0
N263 N 0.45784 0.44513 0.02052 0.0
C264 C 0.47312 0.42152 0.02833 0.0
C265 C 0.41892 0.42229 0.0392 0.0
C266 C 0.43098 0.44565 0.02475 0.0
C267 C 0.43485 0.39828 0.04832 0.0
C268 C 0.46198 0.39786 0.04263 0.0
H269 H 0.35236 0.49797 0.01472 0.0
H270 H 0.35509 0.4488 0.03926 0.0
H271 H 0.38194 0.40593 0.05549 0.0
O272 O 0.48145 0.46666 0.95574 0.0
O273 O 0.47141 0.47951 0.04936 0.0
O274 O 0.51608 0.47509 0.07714 0.0
O275 O 0.44333 0.48902 0.95298 0.0
O276 O 0.5154 0.46336 0.00279 0.0
O277 O 0.54112 0.46712 0.05282 0.0
O278 O 0.54075 0.52996 0.10053 0.0
O279 O 0.54032 0.51129 0.00373 0.0
O280 O 0.49668 0.52427 0.97951 0.0
O281 O 0.57371 0.50363 0.09464 0.0
O282 O 0.4946 0.52897 0.0552 0.0
O283 O 0.4743 0.53087 0.00242 0.0
C284 C 0.48945 0.47103 0.07522 0.0
C285 C 0.46118 0.48976 0.90528 0.0
C286 C 0.45952 0.48751 0.84838 0.0
C287 C 0.46525 0.51547 0.84356 0.0
C288 C 0.46646 0.51767 0.89988 0.0
C289 C 0.46865 0.53039 0.8692 0.0
C290 C 0.45778 0.47473 0.87955 0.0
C291 C 0.53545 0.45514 0.02694 0.0
C292 C 0.45863 0.47633 0.93751 0.0
C293 C 0.37621 0.44809 0.0351 0.0
C294 C 0.3915 0.42366 0.04433 0.0
C295 C 0.52328 0.52408 0.97936 0.0
C296 C 0.58559 0.53994 0.12454 0.0
C297 C 0.60202 0.56846 0.16564 0.0
C298 C 0.62202 0.5791 0.14753 0.0
C299 C 0.6058 0.55073 0.10694 0.0
C300 C 0.58387 0.54878 0.15392 0.0
C301 C 0.62388 0.57021 0.11843 0.0
C302 C 0.47608 0.53926 0.03045 0.0
C303 C 0.5655 0.52028 0.11219 0.0
H304 H 0.46709 0.5258 0.81997 0.0
H305 H 0.46855 0.52964 0.91934 0.0
H306 H 0.47272 0.55195 0.86525 0.0
H307 H 0.45305 0.45329 0.88372 0.0
H308 H 0.63647 0.59404 0.15607 0.0
H309 H 0.60764 0.54417 0.08436 0.0
H310 H 0.56806 0.54069 0.16735 0.0
H311 H 0.63941 0.57844 0.10473 0.0
H312 H 0.26192 0.16745 0.46005 0.0
H313 H 0.22554 0.13398 0.46614 0.0
H314 H 0.1741 0.19544 0.49014 0.0
H315 H 0.21024 0.22898 0.48399 0.0
H316 H 0.20083 0.12041 0.52552 0.0
H317 H 0.12506 0.15942 0.41676 0.0
H318 H 0.16141 0.1669 0.42066 0.0
H319 H 0.13952 0.18436 0.44117 0.0
C320 C 0.2427 0.17389 0.4662 0.0
C321 C 0.2389 0.20082 0.47154 0.0
C322 C 0.22205 0.15474 0.46984 0.0
C323 C 0.19714 0.16234 0.47838 0.0
C324 C 0.19312 0.18927 0.48327 0.0
H325 H 0.06794 0.06969 0.55532 0.0
H326 H 0.10551 0.10056 0.54537 0.0
C327 C 0.21382 0.20834 0.47994 0.0
C328 C 0.17566 0.14192 0.48339 0.0
H329 H 0.10979 0.12507 0.45402 0.0
C330 C 0.18097 0.1213 0.50984 0.0
C331 C 0.14988 0.14314 0.46275 0.0
C332 C 0.14354 0.1645 0.43356 0.0
C333 C 0.16085 0.10216 0.51659 0.0
C334 C 0.13483 0.1038 0.4964 0.0
C335 C 0.12974 0.12403 0.46954 0.0
C336 C 0.11255 0.08469 0.50283 0.0
C337 C 0.16751 0.08025 0.54518 0.0
C338 C 0.104 0.06572 0.48204 0.0
C339 C 0.08263 0.04795 0.4877 0.0
C340 C 0.06919 0.04907 0.51407 0.0
C341 C 0.07783 0.06821 0.53482 0.0
C342 C 0.09935 0.08583 0.52925 0.0
H343 H 0.18999 0.07865 0.55476 0.0
H344 H 0.15658 0.08503 0.56447 0.0
H345 H 0.16031 0.06018 0.53877 0.0
H346 H 0.1139 0.06464 0.46145 0.0
H347 H 0.07648 0.03358 0.47114 0.0
H348 H 0.35309 0.76816 0.01602 0.0
H349 H 0.38207 0.72791 0.01732 0.0
H350 H 0.33203 0.68019 0.07737 0.0
H351 H 0.30254 0.72023 0.07561 0.0
H352 H 0.41265 0.6927 0.07021 0.0
H353 H 0.32979 0.63919 0.99908 0.0
H354 H 0.32774 0.67513 1.00148 0.0
H355 H 0.32095 0.65056 0.03421 0.0
C356 C 0.34823 0.74909 0.02947 0.0
C357 C 0.32536 0.74733 0.04548 0.0
C358 C 0.36489 0.72617 0.03034 0.0
C359 C 0.35893 0.70103 0.04705 0.0
C360 C 0.33672 0.69935 0.06396 0.0
H361 H 0.4636 0.55418 0.08553 0.0
H362 H 0.43524 0.59325 0.09079 0.0
C363 C 0.32007 0.7223 0.06319 0.0
C364 C 0.37557 0.67647 0.04597 0.0
H365 H 0.37203 0.61511 0.01828 0.0
C366 C 0.40379 0.67566 0.059 0.0
C367 C 0.36396 0.65449 0.03092 0.0
C368 C 0.33401 0.65482 0.01536 0.0
C369 C 0.42073 0.65332 0.05751 0.0
C370 C 0.40902 0.63119 0.04286 0.0
C371 C 0.38084 0.63205 0.02973 0.0
C372 C 0.42589 0.60736 0.03987 0.0
C373 C 0.45114 0.6538 0.07089 0.0
C374 C 0.42959 0.60215 0.00948 0.0
C375 C 0.44576 0.57993 0.0064 0.0
C376 C 0.45827 0.56232 0.03367 0.0
C377 C 0.45427 0.56742 0.06409 0.0
C378 C 0.43818 0.58975 0.06715 0.0
H379 H 0.45787 0.6745 0.07543 0.0
H380 H 0.4555 0.63987 0.09392 0.0
H381 H 0.46364 0.64664 0.05423 0.0
H382 H 0.42027 0.61555 0.98815 0.0
H383 H 0.44878 0.57679 0.98267 0.0
H384 H 0.76005 0.8225 0.61947 0.0
H385 H 0.79664 0.85604 0.61583 0.0
H386 H 0.83576 0.80668 0.56026 0.0
H387 H 0.79975 0.77286 0.5644 0.0
H388 H 0.87289 0.82811 0.60842 0.0
H389 H 0.80196 0.90747 0.53203 0.0
H390 H 0.79195 0.89343 0.56943 0.0
H391 H 0.79264 0.87216 0.53896 0.0
C392 C 0.77666 0.81864 0.60686 0.0
C393 C 0.77687 0.79516 0.59194 0.0
C394 C 0.79739 0.83792 0.60456 0.0
C395 C 0.81864 0.83402 0.58735 0.0
C396 C 0.81944 0.81016 0.57347 0.0
H397 H 0.92953 0.9423 0.49906 0.0
H398 H 0.89407 0.90999 0.51271 0.0
C399 C 0.79874 0.79095 0.57568 0.0
C400 C 0.83974 0.855 0.58286 0.0
H401 H 0.84853 0.91929 0.54568 0.0
C402 C 0.86759 0.84813 0.59494 0.0
C403 C 0.83272 0.88095 0.56488 0.0
C404 C 0.80324 0.88901 0.55031 0.0
C405 C 0.88865 0.86651 0.58935 0.0
C406 C 0.88159 0.89246 0.57146 0.0
C407 C 0.85377 0.89941 0.55957 0.0
C408 C 0.90293 0.91221 0.56353 0.0
C409 C 0.91835 0.8578 0.6017 0.0
C410 C 0.91939 0.92434 0.58758 0.0
C411 C 0.93967 0.94277 0.57984 0.0
C412 C 0.94386 0.94921 0.54797 0.0
C413 C 0.92706 0.93733 0.52389 0.0
C414 C 0.90672 0.91903 0.53162 0.0
H415 H 0.92055 0.83555 0.61003 0.0
H416 H 0.9312 0.86325 0.5828 0.0
H417 H 0.92656 0.86862 0.62217 0.0
H418 H 0.9165 0.91959 0.61229 0.0
H419 H 0.95228 0.95175 0.59882 0.0
H420 H 0.66899 0.22973 0.04879 0.0
H421 H 0.63849 0.26854 0.04841 0.0
H422 H 0.67447 0.31392 0.97235 0.0
H423 H 0.70576 0.27544 0.9733 0.0
H424 H 0.6712 0.34313 0.02194 0.0
H425 H 0.57064 0.29653 0.98345 0.0
H426 H 0.5913 0.27687 0.0176 0.0
H427 H 0.60317 0.28162 0.97968 0.0
C428 C 0.67043 0.24795 0.03196 0.0
C429 C 0.68986 0.24949 0.0111 0.0
C430 C 0.65275 0.27002 0.03153 0.0
C431 C 0.65395 0.29398 0.01006 0.0
C432 C 0.67309 0.29553 0.98897 0.0
H433 H 0.53504 0.4287 0.97495 0.0
H434 H 0.56417 0.39023 0.97041 0.0
C435 C 0.69081 0.27345 0.98937 0.0
C436 C 0.63616 0.31787 0.01078 0.0
H437 H 0.56899 0.33847 0.00431 0.0
C438 C 0.64884 0.34219 0.01788 0.0
C439 C 0.607 0.31668 0.00513 0.0
C440 C 0.59218 0.29161 0.99573 0.0
C441 C 0.63316 0.36518 0.0202 0.0
C442 C 0.60404 0.36362 0.01587 0.0
C443 C 0.59133 0.33951 0.00802 0.0
C444 C 0.58635 0.38688 0.01899 0.0
C445 C 0.64791 0.39102 0.02688 0.0
C446 C 0.58886 0.39752 0.048 0.0
C447 C 0.57225 0.41959 0.05072 0.0
C448 C 0.55267 0.43132 0.0245 0.0
C449 C 0.5499 0.42024 0.99565 0.0
C450 C 0.56654 0.39823 0.99296 0.0
H451 H 0.66909 0.39116 0.02098 0.0
H452 H 0.63629 0.40923 0.01297 0.0
H453 H 0.64971 0.39266 0.05273 0.0
H454 H 0.60359 0.38867 0.06862 0.0
H455 H 0.57478 0.42742 0.07338 0.0
H456 H 0.17761 0.85725 0.18631 0.0
H457 H 0.15447 0.86968 0.22881 0.0
H458 H 0.14389 0.95224 0.18058 0.0
H459 H 0.16767 0.94033 0.13844 0.0
H460 H 0.1675 0.92152 0.26684 0.0
H461 H 0.06377 0.9156 0.19208 0.0
H462 H 0.09325 0.89636 0.18642 0.0
H463 H 0.09095 0.9324 0.17374 0.0
C464 C 0.17089 0.87819 0.18503 0.0
C465 C 0.17433 0.89774 0.15879 0.0
C466 C 0.15757 0.88519 0.20926 0.0
C467 C 0.14739 0.91178 0.20758 0.0
C468 C 0.1515 0.93155 0.18208 0.0
H469 H 0.03392 0.98185 0.31042 0.0
H470 H 0.06339 0.97289 0.27208 0.0
C471 C 0.16491 0.92464 0.15794 0.0
C472 C 0.13123 0.91862 0.23163 0.0
H473 H 0.0652 0.9288 0.24292 0.0
C474 C 0.14514 0.92311 0.26176 0.0
C475 C 0.10215 0.92084 0.22464 0.0
C476 C 0.08645 0.91597 0.19255 0.0
C477 C 0.1306 0.93007 0.28517 0.0
C478 C 0.10137 0.93185 0.27841 0.0
C479 C 0.08757 0.92743 0.24811 0.0
C480 C 0.08455 0.93798 0.30239 0.0
C481 C 0.14672 0.93606 0.31659 0.0
C482 C 0.08652 0.92124 0.33207 0.0
C483 C 0.06982 0.92642 0.35405 0.0
C484 C 0.05052 0.94818 0.34655 0.0
C485 C 0.04847 0.96483 0.31675 0.0
C486 C 0.06535 0.95979 0.29491 0.0
H487 H 0.16821 0.94198 0.31428 0.0
H488 H 0.13666 0.95263 0.32569 0.0
H489 H 0.14784 0.91747 0.3346 0.0
H490 H 0.10057 0.90383 0.33802 0.0
H491 H 0.07153 0.91298 0.37661 0.0
H492 H 0.57437 0.6576 0.71531 0.0
H493 H 0.55755 0.63683 0.76371 0.0
H494 H 0.63939 0.60474 0.80386 0.0
H495 H 0.6564 0.62598 0.75582 0.0
H496 H 0.55588 0.58462 0.78822 0.0
H497 H 0.62083 0.63859 0.87752 0.0
H498 H 0.6181 0.64908 0.83495 0.0
H499 H 0.64086 0.62126 0.85486 0.0
C500 C 0.58878 0.64619 0.73453 0.0
C501 C 0.61673 0.64353 0.73185 0.0
C502 C 0.57917 0.63439 0.7622 0.0
C503 C 0.59728 0.61961 0.78772 0.0
C504 C 0.62517 0.61671 0.78496 0.0
H505 H 0.57209 0.51425 0.96025 0.0
H506 H 0.59028 0.53817 0.91419 0.0
C507 C 0.63486 0.62876 0.75743 0.0
C508 C 0.58667 0.60623 0.81652 0.0
H509 H 0.59619 0.60046 0.89826 0.0
C510 C 0.56462 0.58824 0.81223 0.0
C511 C 0.59799 0.61099 0.84793 0.0
C512 C 0.62056 0.63124 0.85413 0.0
C513 C 0.55391 0.5746 0.83843 0.0
C514 C 0.5655 0.5791 0.86972 0.0
C515 C 0.58749 0.59702 0.87416 0.0
C516 C 0.55488 0.56538 0.89813 0.0
C517 C 0.5303 0.55542 0.83251 0.0
C518 C 0.52919 0.57312 0.90451 0.0
C519 C 0.51899 0.55983 0.9311 0.0
C520 C 0.5342 0.5384 0.95149 0.0
C521 C 0.56001 0.53082 0.94508 0.0
C522 C 0.57037 0.54437 0.91876 0.0
H523 H 0.52771 0.54963 0.80805 0.0
H524 H 0.53338 0.53662 0.85031 0.0
H525 H 0.51093 0.56564 0.83503 0.0
H526 H 0.51707 0.58946 0.88895 0.0
H527 H 0.49926 0.56642 0.93575 0.0
H528 H 0.87785 0.12978 0.18888 0.0
H529 H 0.90133 0.11371 0.24337 0.0
H530 H 0.87384 0.03219 0.23347 0.0
H531 H 0.8508 0.04812 0.17859 0.0
H532 H 0.87907 0.09185 0.29369 0.0
H533 H 0.95435 0.01787 0.26929 0.0
H534 H 0.93505 0.04203 0.23799 0.0
H535 H 0.91927 0.01119 0.25313 0.0
C536 C 0.87697 0.10839 0.19828 0.0
C537 C 0.86253 0.09017 0.17952 0.0
C538 C 0.89043 0.09923 0.22938 0.0
C539 C 0.88968 0.07168 0.24241 0.0
C540 C 0.87533 0.0534 0.22367 0.0
H541 H 0.93886 0.98749 0.43631 0.0
H542 H 0.9169 0.00144 0.38049 0.0
C543 C 0.86209 0.06252 0.19238 0.0
C544 C 0.90271 0.06255 0.27614 0.0
H545 H 0.94988 0.01756 0.32391 0.0
C546 C 0.89465 0.07571 0.30022 0.0
C547 C 0.92306 0.04146 0.2847 0.0
C548 C 0.93366 0.02749 0.2599 0.0
C549 C 0.90624 0.06822 0.33256 0.0
C550 C 0.92633 0.04707 0.34102 0.0
C551 C 0.93434 0.03374 0.31715 0.0
C552 C 0.93953 0.03877 0.37463 0.0
C553 C 0.89688 0.0828 0.35762 0.0
C554 C 0.9595 0.05519 0.38955 0.0
C555 C 0.9723 0.04712 0.4212 0.0
C556 C 0.96515 0.02263 0.43841 0.0
C557 C 0.94491 0.00637 0.42346 0.0
C558 C 0.93233 0.01431 0.39171 0.0
H559 H 0.87852 0.09622 0.3477 0.0
H560 H 0.89186 0.06784 0.37764 0.0
H561 H 0.91392 0.09548 0.36762 0.0
H562 H 0.96536 0.0741 0.3766 0.0
H563 H 0.98806 0.05986 0.43203 0.0
H564 H 0.35547 0.36558 0.61428 0.0
H565 H 0.37032 0.38863 0.66089 0.0
H566 H 0.45546 0.37667 0.6522 0.0
H567 H 0.44075 0.35354 0.60546 0.0
H568 H 0.40349 0.36979 0.71885 0.0
H569 H 0.45003 0.45858 0.65413 0.0
H570 H 0.42787 0.43524 0.6336 0.0
H571 H 0.46335 0.42602 0.64944 0.0
C572 C 0.37737 0.36767 0.62241 0.0
C573 C 0.39694 0.35779 0.60611 0.0
C574 C 0.38581 0.38093 0.64897 0.0
C575 C 0.41396 0.38468 0.65973 0.0
C576 C 0.4336 0.37451 0.64386 0.0
H577 H 0.47816 0.4361 0.84528 0.0
H578 H 0.4684 0.41029 0.80007 0.0
C579 C 0.42517 0.3613 0.61719 0.0
C580 C 0.42259 0.39915 0.68769 0.0
H581 H 0.45534 0.45581 0.71048 0.0
C582 C 0.4149 0.38856 0.71708 0.0
C583 C 0.4372 0.42378 0.68517 0.0
C584 C 0.44492 0.43677 0.65385 0.0
C585 C 0.42135 0.40199 0.74405 0.0
C586 C 0.43632 0.42641 0.74166 0.0
C587 C 0.44407 0.43695 0.71229 0.0
C588 C 0.44295 0.44206 0.76891 0.0
C589 C 0.41136 0.39035 0.77458 0.0
C590 C 0.43249 0.4687 0.76609 0.0
C591 C 0.4381 0.4835 0.79178 0.0
C592 C 0.45438 0.47197 0.82081 0.0
C593 C 0.4652 0.44539 0.82341 0.0
C594 C 0.45964 0.43062 0.79763 0.0
H595 H 0.39477 0.37536 0.77026 0.0
H596 H 0.42884 0.37977 0.79166 0.0
H597 H 0.40344 0.40674 0.78601 0.0
H598 H 0.41958 0.47791 0.74413 0.0
H599 H 0.42919 0.50379 0.78911 0.0
H600 H 0.62143 0.61071 0.45912 0.0
H601 H 0.61279 0.59385 0.40728 0.0
H602 H 0.60476 0.6764 0.35864 0.0
H603 H 0.61287 0.69345 0.41021 0.0
H604 H 0.5668 0.60615 0.35114 0.0
H605 H 0.67032 0.6398 0.32692 0.0
H606 H 0.66147 0.63562 0.3666 0.0
H607 H 0.64924 0.66505 0.33826 0.0
C608 C 0.61726 0.62527 0.43742 0.0
C609 C 0.61816 0.65344 0.4388 0.0
C610 C 0.61245 0.6156 0.40785 0.0
C611 C 0.60856 0.63391 0.37923 0.0
C612 C 0.60814 0.66197 0.38051 0.0
H613 H 0.60425 0.62067 0.17917 0.0
H614 H 0.60367 0.63603 0.23088 0.0
C615 C 0.61288 0.67165 0.40999 0.0
C616 C 0.60648 0.62383 0.348 0.0
H617 H 0.64083 0.62263 0.28522 0.0
C618 C 0.58296 0.60963 0.33669 0.0
C619 C 0.62764 0.62846 0.32933 0.0
C620 C 0.65373 0.64287 0.34087 0.0
C621 C 0.57977 0.60045 0.3067 0.0
C622 C 0.60097 0.60511 0.28797 0.0
C623 C 0.62455 0.61915 0.29951 0.0
C624 C 0.59932 0.59571 0.2563 0.0
C625 C 0.55344 0.5865 0.295 0.0
C626 C 0.59705 0.56793 0.25336 0.0
C627 C 0.59732 0.55911 0.22377 0.0
C628 C 0.60025 0.57788 0.19669 0.0
C629 C 0.60229 0.60569 0.19967 0.0
C630 C 0.60183 0.6145 0.22916 0.0
H631 H 0.53647 0.59132 0.30761 0.0
H632 H 0.54666 0.59249 0.26884 0.0
H633 H 0.55708 0.56412 0.29968 0.0
H634 H 0.5958 0.55298 0.2741 0.0
H635 H 0.5961 0.53752 0.22232 0.0
H636 H 0.87791 0.10951 0.90529 0.0
H637 H 0.89645 0.10184 0.85777 0.0
H638 H 0.81387 0.09357 0.80722 0.0
H639 H 0.79507 0.1014 0.85483 0.0
H640 H 0.89164 0.05799 0.82397 0.0
H641 H 0.84535 0.15205 0.74706 0.0
H642 H 0.84625 0.14638 0.78982 0.0
H643 H 0.82149 0.12922 0.76407 0.0
C644 C 0.86367 0.1058 0.88418 0.0
C645 C 0.835 0.10612 0.88383 0.0
C646 C 0.8743 0.10151 0.85699 0.0
C647 C 0.85655 0.09748 0.8288 0.0
C648 C 0.82793 0.09721 0.82849 0.0
H649 H 0.91014 0.08762 0.6438 0.0
H650 H 0.88109 0.08324 0.68572 0.0
C651 C 0.81723 0.10165 0.85571 0.0
C652 C 0.86838 0.09389 0.79991 0.0
H653 H 0.87334 0.12461 0.72441 0.0
C654 C 0.88743 0.07242 0.80209 0.0
C655 C 0.86273 0.11262 0.77127 0.0
C656 C 0.84301 0.13651 0.76781 0.0
C657 C 0.90162 0.06967 0.77683 0.0
C658 C 0.89688 0.08907 0.74882 0.0
C659 C 0.8769 0.10978 0.74596 0.0
C660 C 0.9144 0.08987 0.72369 0.0
C661 C 0.92195 0.04627 0.78054 0.0
C662 C 0.94263 0.09512 0.73119 0.0
C663 C 0.95913 0.09773 0.70743 0.0
C664 C 0.94774 0.09519 0.6756 0.0
C665 C 0.91951 0.08948 0.66817 0.0
C666 C 0.90291 0.08707 0.69201 0.0
H667 H 0.91733 0.02916 0.79852 0.0
H668 H 0.92186 0.03862 0.75737 0.0
H669 H 0.94303 0.05333 0.78887 0.0
H670 H 0.95182 0.09778 0.75538 0.0
H671 H 0.98085 0.10186 0.71396 0.0
H672 H 0.35973 0.35453 0.29474 0.0
H673 H 0.37641 0.3758 0.24642 0.0
H674 H 0.46041 0.35699 0.29272 0.0
H675 H 0.4439 0.33526 0.34091 0.0
H676 H 0.41314 0.42068 0.24418 0.0
H677 H 0.45597 0.33029 0.20463 0.0
H678 H 0.43163 0.32756 0.23217 0.0
H679 H 0.46733 0.33392 0.24597 0.0
C680 C 0.38173 0.35446 0.29443 0.0
C681 C 0.4005 0.34317 0.32165 0.0
C682 C 0.39122 0.36676 0.26688 0.0
C683 C 0.41961 0.36772 0.2659 0.0
C684 C 0.43839 0.35611 0.29282 0.0
H685 H 0.51961 0.44097 0.12839 0.0
H686 H 0.50239 0.41608 0.17452 0.0
C687 C 0.42893 0.34394 0.32042 0.0
C688 C 0.42966 0.38225 0.23743 0.0
H689 H 0.4657 0.37356 0.17783 0.0
C690 C 0.42449 0.41038 0.22952 0.0
C691 C 0.44463 0.36876 0.21857 0.0
C692 C 0.45009 0.33842 0.2255 0.0
C693 C 0.4343 0.42553 0.20356 0.0
C694 C 0.44914 0.41202 0.18453 0.0
C695 C 0.45431 0.38386 0.19243 0.0
C696 C 0.45945 0.42681 0.15631 0.0
C697 C 0.42929 0.45596 0.19728 0.0
C698 C 0.441 0.44083 0.13061 0.0
C699 C 0.45078 0.45532 0.10444 0.0
C700 C 0.4792 0.45567 0.10311 0.0
C701 C 0.49761 0.44124 0.12868 0.0
C702 C 0.4878 0.42689 0.155 0.0
H703 H 0.42464 0.46394 0.21882 0.0
H704 H 0.44746 0.46671 0.18964 0.0
H705 H 0.41128 0.46084 0.17783 0.0
H706 H 0.41899 0.44063 0.1308 0.0
H707 H 0.43602 0.46645 0.08542 0.0
H708 H 0.1598 0.87177 0.85154 0.0
H709 H 0.13467 0.888 0.79786 0.0
H710 H 0.13491 0.96988 0.82068 0.0
H711 H 0.16074 0.95394 0.8742 0.0
H712 H 0.08251 0.9149 0.78289 0.0
H713 H 0.16379 0.97839 0.73479 0.0
H714 H 0.17131 0.95315 0.77007 0.0
H715 H 0.15618 0.98551 0.77246 0.0
C716 C 0.15492 0.89331 0.84498 0.0
C717 C 0.1624 0.91159 0.86709 0.0
C718 C 0.1404 0.9025 0.81439 0.0
C719 C 0.13322 0.93016 0.80522 0.0
C720 C 0.14064 0.94851 0.82714 0.0
H721 H 0.04225 0.01807 0.62707 0.0
H722 H 0.06729 0.00568 0.6821 0.0
C723 C 0.15514 0.93933 0.8578 0.0
C724 C 0.1171 0.93952 0.77306 0.0
H725 H 0.11979 0.9799 0.70206 0.0
C726 C 0.09064 0.92909 0.76519 0.0
C727 C 0.12775 0.95816 0.75015 0.0
C728 C 0.1564 0.96935 0.75706 0.0
C729 C 0.07446 0.93685 0.73497 0.0
C730 C 0.08528 0.95513 0.71186 0.0
C731 C 0.11158 0.96589 0.71987 0.0
C732 C 0.06995 0.96266 0.6789 0.0
C733 C 0.0458 0.92564 0.72818 0.0
C734 C 0.0633 0.9426 0.65898 0.0
C735 C 0.04899 0.94965 0.62784 0.0
C736 C 0.04156 0.97685 0.61595 0.0
C737 C 0.048 0.99695 0.63584 0.0
C738 C 0.06231 0.98992 0.66709 0.0
H739 H 0.03783 0.91831 0.75064 0.0
H740 H 0.03115 0.94125 0.71334 0.0
H741 H 0.0464 0.90813 0.71482 0.0
H742 H 0.0692 0.92149 0.66751 0.0
H743 H 0.04321 0.93376 0.61339 0.0
loop_
_geom_bond_atom_site_label_1
_geom_bond_atom_site_label_2
_geom_bond_distance
_geom_bond_site_symmetry_2
_ccdc_geom_bond_type
C0 C1 1.384 . S
C0 H13 0.947 . S
C0 C35 1.382 . S
C1 C0 1.384 . S
C1 C2 1.378 . S
C2 C1 1.378 . S
C2 C3 1.378 . S
C2 H14 0.952 . S
C3 C2 1.378 . S
C3 H15 0.950 . S
C3 C34 1.383 . S
H4 C23 0.947 . S
H5 C24 0.946 . S
H6 C26 0.953 1_556 S
H7 C27 0.945 . S
H8 C29 0.952 . S
H9 C30 0.949 . S
H10 C32 0.950 . S
H11 C33 0.948 . S
H12 C35 0.951 . S
H13 C0 0.947 . S
H14 C2 0.952 . S
H15 C3 0.950 . S
N16 C19 1.382 . S
N16 C21 1.363 . S
N17 C19 1.371 1_556 S
N17 C20 1.372 . S
N18 C20 1.361 1_554 S
N18 C21 1.377 . S
C19 N16 1.382 . S
C19 N17 1.371 1_554 S
C19 C22 1.480 . S
C20 N17 1.372 . S
C20 N18 1.361 1_556 S
C20 C28 1.457 . S
C21 N16 1.363 . S
C21 N18 1.377 . S
C21 C34 1.479 . S
C22 C19 1.480 . S
C22 C23 1.383 . S
C22 C27 1.385 1_554 S
C23 H4 0.947 . S
C23 C22 1.383 . S
C23 C24 1.388 . S
C24 H5 0.946 . S
C24 C23 1.388 . S
C24 C25 1.384 . S
C25 C24 1.384 . S
C25 C26 1.377 . S
C26 H6 0.953 1_554 S
C26 C25 1.377 . S
C26 C27 1.369 1_554 S
C27 H7 0.945 . S
C27 C22 1.385 1_556 S
C27 C26 1.369 1_556 S
C28 C20 1.457 . S
C28 C29 1.372 . S
C28 C33 1.364 . S
C29 H8 0.952 . S
C29 C28 1.372 . S
C29 C30 1.389 . S
C30 H9 0.949 . S
C30 C29 1.389 . S
C30 C31 1.387 . S
C31 C30 1.387 . S
C31 C32 1.372 . S
C32 H10 0.950 . S
C32 C31 1.372 . S
C32 C33 1.379 . S
C33 H11 0.948 . S
C33 C28 1.364 . S
C33 C32 1.379 . S
C34 C3 1.383 . S
C34 C21 1.479 . S
C34 C35 1.398 . S
C35 C0 1.382 . S
C35 H12 0.951 . S
C35 C34 1.398 . S
C36 C37 1.384 . S
C36 H49 0.947 . S
C36 C71 1.382 . S
C37 C36 1.384 . S
C37 C38 1.378 . S
C38 C37 1.378 . S
C38 C39 1.378 . S
C38 H50 0.952 . S
C39 C38 1.378 . S
C39 H51 0.950 . S
C39 C70 1.383 . S
H40 C59 0.947 . S
H41 C60 0.946 . S
H42 C62 0.953 . S
H43 C63 0.945 . S
H44 C65 0.952 . S
H45 C66 0.949 . S
H46 C68 0.950 . S
H47 C69 0.948 . S
H48 C71 0.951 . S
H49 C36 0.947 . S
H50 C38 0.952 . S
H51 C39 0.950 . S
N52 C55 1.382 . S
N52 C57 1.363 . S
N53 C55 1.371 . S
N53 C56 1.372 . S
N54 C56 1.361 . S
N54 C57 1.377 . S
C55 N52 1.382 . S
C55 N53 1.371 . S
C55 C58 1.480 . S
C56 N53 1.372 . S
C56 N54 1.361 . S
C56 C64 1.457 . S
C57 N52 1.363 . S
C57 N54 1.377 . S
C57 C70 1.479 . S
C58 C55 1.480 . S
C58 C59 1.383 . S
C58 C63 1.385 . S
C59 H40 0.947 . S
C59 C58 1.383 . S
C59 C60 1.388 . S
C60 H41 0.946 . S
C60 C59 1.388 . S
C60 C61 1.384 . S
C61 C60 1.384 . S
C61 C62 1.377 . S
C62 H42 0.953 . S
C62 C61 1.377 . S
C62 C63 1.369 . S
C63 H43 0.945 . S
C63 C58 1.385 . S
C63 C62 1.369 . S
C64 C56 1.457 . S
C64 C65 1.372 . S
C64 C69 1.364 . S
C65 H44 0.952 . S
C65 C64 1.372 . S
C65 C66 1.389 . S
C66 H45 0.949 . S
C66 C65 1.389 . S
C66 C67 1.387 . S
C67 C66 1.387 . S
C67 C68 1.372 . S
C68 H46 0.950 . S
C68 C67 1.372 . S
C68 C69 1.379 . S
C69 H47 0.948 . S
C69 C64 1.364 . S
C69 C68 1.379 . S
C70 C39 1.383 . S
C70 C57 1.479 . S
C70 C71 1.398 . S
C71 C36 1.382 . S
C71 H48 0.951 . S
C71 C70 1.398 . S
C72 C73 1.384 . S
C72 H85 0.947 . S
C72 C107 1.382 . S
C73 C72 1.384 . S
C73 C74 1.378 . S
C74 C73 1.378 . S
C74 C75 1.378 . S
C74 H86 0.952 . S
C75 C74 1.378 . S
C75 H87 0.950 . S
C75 C106 1.383 . S
H76 C95 0.947 . S
H77 C96 0.946 . S
H78 C98 0.953 . S
H79 C99 0.945 . S
H80 C101 0.952 . S
H81 C102 0.949 . S
H82 C104 0.950 . S
H83 C105 0.948 . S
H84 C107 0.951 . S
H85 C72 0.947 . S
H86 C74 0.952 . S
H87 C75 0.950 . S
N88 C91 1.382 1_556 S
N88 C93 1.361 . S
N89 C91 1.371 . S
N89 C92 1.372 . S
N90 C92 1.361 . S
N90 C93 1.352 1_554 S
C91 N88 1.382 1_554 S
C91 N89 1.371 . S
C91 C94 1.480 . S
C92 N89 1.372 . S
C92 N90 1.361 . S
C92 C100 1.457 . S
C93 N88 1.361 . S
C93 N90 1.352 1_556 S
C93 C106 1.508 . S
C94 C91 1.480 . S
C94 C95 1.383 1_554 S
C94 C99 1.385 . S
C95 H76 0.947 . S
C95 C94 1.383 1_556 S
C95 C96 1.388 . S
C96 H77 0.946 . S
C96 C95 1.388 . S
C96 C97 1.384 1_556 S
C97 C96 1.384 1_554 S
C97 C98 1.377 . S
C98 H78 0.953 . S
C98 C97 1.377 . S
C98 C99 1.369 . S
C99 H79 0.945 . S
C99 C94 1.385 . S
C99 C98 1.369 . S
C100 C92 1.457 . S
C100 C101 1.372 . S
C100 C105 1.364 . S
C101 H80 0.952 . S
C101 C100 1.372 . S
C101 C102 1.389 . S
C102 H81 0.949 . S
C102 C101 1.389 . S
C102 C103 1.387 . S
C103 C102 1.387 . S
C103 C104 1.372 . S
C104 H82 0.950 . S
C104 C103 1.372 . S
C104 C105 1.379 . S
C105 H83 0.948 . S
C105 C100 1.364 . S
C105 C104 1.379 . S
C106 C75 1.383 . S
C106 C93 1.508 . S
C106 C107 1.398 . S
C107 C72 1.382 . S
C107 H84 0.951 . S
C107 C106 1.398 . S
C108 C109 1.384 . S
C108 H121 0.947 . S
C108 C143 1.382 . S
C109 C108 1.384 . S
C109 C110 1.378 . S
C110 C109 1.378 . S
C110 C111 1.378 . S
C110 H122 0.952 . S
C111 C110 1.378 . S
C111 H123 0.950 . S
C111 C142 1.383 . S
H112 C131 0.947 . S
H113 C132 0.946 . S
H114 C134 0.953 . S
H115 C135 0.945 . S
H116 C137 0.952 . S
H117 C138 0.949 . S
H118 C140 0.950 . S
H119 C141 0.948 . S
H120 C143 0.951 . S
H121 C108 0.947 . S
H122 C110 0.952 . S
H123 C111 0.950 . S
N124 C127 1.382 . S
N124 C129 1.363 . S
N125 C127 1.371 . S
N125 C128 1.372 . S
N126 C128 1.361 . S
N126 C129 1.377 . S
C127 N124 1.382 . S
C127 N125 1.371 . S
C127 C130 1.480 . S
C128 N125 1.372 . S
C128 N126 1.361 . S
C128 C136 1.457 . S
C129 N124 1.363 . S
C129 N126 1.377 . S
C129 C142 1.479 . S
C130 C127 1.480 . S
C130 C131 1.383 . S
C130 C135 1.385 . S
C131 H112 0.947 . S
C131 C130 1.383 . S
C131 C132 1.388 . S
C132 H113 0.946 . S
C132 C131 1.388 . S
C132 C133 1.384 . S
C133 C132 1.384 . S
C133 C134 1.377 . S
C134 H114 0.953 . S
C134 C133 1.377 . S
C134 C135 1.369 . S
C135 H115 0.945 . S
C135 C130 1.385 . S
C135 C134 1.369 . S
C136 C128 1.457 . S
C136 C137 1.372 . S
C136 C141 1.364 . S
C137 H116 0.952 . S
C137 C136 1.372 . S
C137 C138 1.389 . S
C138 H117 0.949 . S
C138 C137 1.389 . S
C138 C139 1.387 . S
C139 C138 1.387 . S
C139 C140 1.372 . S
C140 H118 0.950 . S
C140 C139 1.372 . S
C140 C141 1.379 . S
C141 H119 0.948 . S
C141 C136 1.364 . S
C141 C140 1.379 . S
C142 C111 1.383 . S
C142 C129 1.479 . S
C142 C143 1.398 . S
C143 C108 1.382 . S
C143 H120 0.951 . S
C143 C142 1.398 . S
Eu144 N173 2.600 . S
Eu144 N179 2.562 . S
Eu144 O188 2.462 . S
Eu144 O189 2.373 . S
Eu144 O191 2.432 . S
Eu144 O192 2.291 1_565 S
Eu144 O196 2.353 1_455 S
Eu144 O199 2.372 1_455 S
Eu144 C208 2.787 . S
C145 N146 1.365 . S
C145 C148 1.405 . S
C145 C152 1.448 . S
N146 C145 1.365 . S
N146 C149 1.319 1_655 S
N146 Eu155 2.600 . S
C147 C149 1.397 . S
C147 C150 1.367 1_455 S
C147 H167 0.931 . S
C148 C145 1.405 . S
C148 C150 1.403 . S
C148 C154 1.439 . S
C149 N146 1.319 1_455 S
C149 C147 1.397 . S
C149 H160 0.930 . S
C150 C147 1.367 1_655 S
C150 C148 1.403 . S
C150 H171 0.929 . S
C151 C152 1.430 . S
C151 C153 1.387 . S
C151 C157 1.404 . S
C152 C145 1.448 . S
C152 C151 1.430 . S
C152 N156 1.351 . S
C153 C151 1.387 . S
C153 C154 1.374 . S
C153 H168 0.931 . S
C154 C148 1.439 . S
C154 C153 1.374 . S
C154 H169 0.931 . S
Eu155 N146 2.600 . S
Eu155 N156 2.562 . S
Eu155 O190 2.335 1_655 S
Eu155 O193 2.372 1_655 S
Eu155 O194 2.462 . S
Eu155 O195 2.373 . S
Eu155 O197 2.432 . S
Eu155 O198 2.291 1_545 S
Eu155 C219 2.787 . S
N156 C152 1.351 . S
N156 Eu155 2.562 . S
N156 C158 1.325 . S
C157 C151 1.404 . S
C157 C159 1.366 . S
C157 H165 0.930 . S
C158 N156 1.325 . S
C158 C159 1.416 . S
C158 H164 0.929 . S
C159 C157 1.366 . S
C159 C158 1.416 . S
C159 H161 0.930 . S
H160 C149 0.930 . S
H161 C159 0.930 . S
H162 C177 0.930 1_655 S
H163 C184 0.930 . S
H164 C158 0.929 . S
H165 C157 0.930 . S
H166 C180 0.929 . S
H167 C147 0.931 . S
H168 C153 0.931 . S
H169 C154 0.931 . S
H170 C175 0.931 1_655 S
H171 C150 0.929 . S
H172 C183 0.930 . S
N173 Eu144 2.600 . S
N173 C174 1.365 . S
N173 C177 1.319 . S
C174 N173 1.365 . S
C174 C176 1.405 . S
C174 C182 1.448 . S
C175 H170 0.931 1_455 S
C175 C177 1.397 . S
C175 C178 1.367 . S
C176 C174 1.405 . S
C176 C178 1.403 . S
C176 C209 1.439 . S
C177 H162 0.930 1_455 S
C177 N173 1.319 . S
C177 C175 1.397 . S
C178 C175 1.367 . S
C178 C176 1.403 . S
C178 H185 0.929 . S
N179 Eu144 2.562 . S
N179 C180 1.325 . S
N179 C182 1.351 . S
C180 H166 0.929 . S
C180 N179 1.325 . S
C180 C184 1.416 . S
C181 C182 1.430 . S
C181 C183 1.404 . S
C181 C210 1.387 . S
C182 C174 1.448 . S
C182 N179 1.351 . S
C182 C181 1.430 . S
C183 H172 0.930 . S
C183 C181 1.404 . S
C183 C184 1.366 . S
C184 H163 0.930 . S
C184 C180 1.416 . S
C184 C183 1.366 . S
H185 C178 0.929 . S
H186 C209 0.931 . S
H187 C210 0.931 . S
O188 Eu144 2.462 . S
O188 C208 1.252 . S
O189 Eu144 2.373 . S
O189 C200 1.249 . S
O190 Eu155 2.335 1_455 S
O190 C200 1.264 1_545 S
O191 Eu144 2.432 . S
O191 C208 1.268 . S
O192 Eu144 2.291 1_545 S
O192 C207 1.255 . S
O193 Eu155 2.372 1_455 S
O193 C207 1.257 . S
O194 Eu155 2.462 . S
O194 C219 1.252 . S
O195 Eu155 2.373 . S
O195 C211 1.249 . S
O196 Eu144 2.353 1_655 S
O196 C211 1.236 1_565 S
O197 Eu155 2.432 . S
O197 C219 1.268 . S
O198 Eu155 2.291 1_565 S
O198 C218 1.255 . S
O199 Eu144 2.372 1_655 S
O199 C218 1.257 . S
C200 O189 1.249 . S
C200 O190 1.264 1_565 S
C201 C204 1.382 . S
C201 C206 1.390 . S
C201 C208 1.506 . S
C202 C203 1.398 . S
C202 C206 1.392 . S
C203 C202 1.398 . S
C203 C205 1.372 . S
C203 H220 0.931 . S
C204 C201 1.382 . S
C204 C205 1.390 . S
C204 H221 0.931 . S
C205 C203 1.372 . S
C205 C204 1.390 . S
C205 H222 0.929 . S
C206 C201 1.390 . S
C206 C202 1.392 . S
C206 H223 0.930 . S
C207 O192 1.255 . S
C207 O193 1.257 . S
C208 Eu144 2.787 . S
C208 O188 1.252 . S
C208 O191 1.268 . S
C208 C201 1.506 . S
C209 C176 1.439 . S
C209 H186 0.931 . S
C209 C210 1.374 . S
C210 C181 1.387 . S
C210 H187 0.931 . S
C210 C209 1.374 . S
C211 O195 1.249 . S
C211 O196 1.236 1_545 S
C212 C215 1.382 . S
C212 C216 1.390 . S
C212 C219 1.506 . S
C213 C214 1.398 . S
C213 C216 1.392 . S
C214 C213 1.398 . S
C214 C217 1.372 . S
C214 H224 0.931 . S
C215 C212 1.382 . S
C215 C217 1.390 . S
C215 H225 0.931 . S
C216 C212 1.390 . S
C216 C213 1.392 . S
C216 H226 0.930 . S
C217 C214 1.372 . S
C217 C215 1.390 . S
C217 H227 0.929 . S
C218 O198 1.255 . S
C218 O199 1.257 . S
C219 Eu155 2.787 . S
C219 O194 1.252 . S
C219 O197 1.268 . S
C219 C212 1.506 . S
H220 C203 0.931 . S
H221 C204 0.931 . S
H222 C205 0.929 . S
H223 C206 0.930 . S
H224 C214 0.931 . S
H225 C215 0.931 . S
H226 C216 0.930 . S
H227 C217 0.929 . S
Eu228 N257 2.600 . S
Eu228 N263 2.562 1_556 S
Eu228 O272 2.462 . S
Eu228 O273 2.373 1_556 S
Eu228 O275 2.432 . S
Eu228 O276 2.291 1_556 S
Eu228 O280 2.335 . S
Eu228 O283 2.372 . S
Eu228 C292 2.787 . S
C229 N230 1.365 . S
C229 C232 1.405 . S
C229 C236 1.448 . S
N230 C229 1.365 . S
N230 C233 1.319 . S
N230 Eu239 2.600 . S
C231 C233 1.397 . S
C231 C234 1.367 . S
C231 H251 0.931 . S
C232 C229 1.405 . S
C232 C234 1.403 . S
C232 C238 1.439 . S
C233 N230 1.319 . S
C233 C231 1.397 . S
C233 H244 0.930 . S
C234 C231 1.367 . S
C234 C232 1.403 . S
C234 H255 0.929 . S
C235 C236 1.430 . S
C235 C237 1.387 . S
C235 C241 1.404 . S
C236 C229 1.448 . S
C236 C235 1.430 . S
C236 N240 1.351 . S
C237 C235 1.387 . S
C237 C238 1.374 . S
C237 H252 0.931 . S
C238 C232 1.439 . S
C238 C237 1.374 . S
C238 H253 0.931 . S
Eu239 N230 2.600 . S
Eu239 N240 2.562 . S
Eu239 O274 2.335 . S
Eu239 O277 2.372 . S
Eu239 O278 2.462 . S
Eu239 O279 2.373 1_554 S
Eu239 O281 2.432 . S
Eu239 O282 2.291 . S
Eu239 C303 2.787 . S
N240 C236 1.351 . S
N240 Eu239 2.562 . S
N240 C242 1.325 . S
C241 C235 1.404 . S
C241 C243 1.366 . S
C241 H249 0.930 . S
C242 N240 1.325 . S
C242 C243 1.416 . S
C242 H248 0.929 . S
C243 C241 1.366 . S
C243 C242 1.416 . S
C243 H245 0.930 . S
H244 C233 0.930 . S
H245 C243 0.930 . S
H246 C261 0.930 . S
H247 C268 0.930 . S
H248 C242 0.929 . S
H249 C241 0.930 . S
H250 C264 0.929 . S
H251 C231 0.931 . S
H252 C237 0.931 . S
H253 C238 0.931 . S
H254 C259 0.931 . S
H255 C234 0.929 . S
H256 C267 0.930 . S
N257 Eu228 2.600 . S
N257 C258 1.365 1_556 S
N257 C261 1.319 . S
C258 N257 1.365 1_554 S
C258 C260 1.405 . S
C258 C266 1.448 . S
C259 H254 0.931 . S
C259 C261 1.397 . S
C259 C262 1.367 1_556 S
C260 C258 1.405 . S
C260 C262 1.403 . S
C260 C293 1.439 . S
C261 H246 0.930 . S
C261 N257 1.319 . S
C261 C259 1.397 . S
C262 C259 1.367 1_554 S
C262 C260 1.403 . S
C262 H269 0.929 . S
N263 Eu228 2.562 1_554 S
N263 C264 1.325 . S
N263 C266 1.351 . S
C264 H250 0.929 . S
C264 N263 1.325 . S
C264 C268 1.416 . S
C265 C266 1.430 . S
C265 C267 1.404 . S
C265 C294 1.387 . S
C266 C258 1.448 . S
C266 N263 1.351 . S
C266 C265 1.430 . S
C267 H256 0.930 . S
C267 C265 1.404 . S
C267 C268 1.366 . S
C268 H247 0.930 . S
C268 C264 1.416 . S
C268 C267 1.366 . S
H269 C262 0.929 . S
H270 C293 0.931 . S
H271 C294 0.931 . S
O272 Eu228 2.462 . S
O272 C292 1.252 . S
O273 Eu228 2.373 1_554 S
O273 C284 1.249 . S
O274 Eu239 2.335 . S
O274 C284 1.264 . S
O275 Eu228 2.432 . S
O275 C292 1.268 . S
O276 Eu228 2.291 1_554 S
O276 C291 1.255 . S
O277 Eu239 2.372 . S
O277 C291 1.257 . S
O278 Eu239 2.462 . S
O278 C303 1.252 . S
O279 Eu239 2.373 1_556 S
O279 C295 1.249 . S
O280 Eu228 2.335 . S
O280 C295 1.264 . S
O281 Eu239 2.432 . S
O281 C303 1.268 . S
O282 Eu239 2.291 . S
O282 C302 1.255 . S
O283 Eu228 2.372 . S
O283 C302 1.257 1_556 S
C284 O273 1.249 . S
C284 O274 1.264 . S
C285 C288 1.382 . S
C285 C290 1.390 . S
C285 C292 1.506 . S
C286 C287 1.398 . S
C286 C290 1.392 . S
C287 C286 1.398 . S
C287 C289 1.372 . S
C287 H304 0.931 . S
C288 C285 1.382 . S
C288 C289 1.390 . S
C288 H305 0.931 . S
C289 C287 1.372 . S
C289 C288 1.390 . S
C289 H306 0.929 . S
C290 C285 1.390 . S
C290 C286 1.392 . S
C290 H307 0.930 . S
C291 O276 1.255 . S
C291 O277 1.257 . S
C292 Eu228 2.787 . S
C292 O272 1.252 . S
C292 O275 1.268 . S
C292 C285 1.506 . S
C293 C260 1.439 . S
C293 H270 0.931 . S
C293 C294 1.374 . S
C294 C265 1.387 . S
C294 H271 0.931 . S
C294 C293 1.374 . S
C295 O279 1.249 . S
C295 O280 1.264 . S
C296 C299 1.382 . S
C296 C300 1.390 . S
C296 C303 1.506 . S
C297 C298 1.398 . S
C297 C300 1.392 . S
C298 C297 1.398 . S
C298 C301 1.372 . S
C298 H308 0.931 . S
C299 C296 1.382 . S
C299 C301 1.390 . S
C299 H309 0.931 . S
C300 C296 1.390 . S
C300 C297 1.392 . S
C300 H310 0.930 . S
C301 C298 1.372 . S
C301 C299 1.390 . S
C301 H311 0.929 . S
C302 O282 1.255 . S
C302 O283 1.257 1_554 S
C303 Eu239 2.787 . S
C303 O278 1.252 . S
C303 O281 1.268 . S
C303 C296 1.506 . S
H304 C287 0.931 . S
H305 C288 0.931 . S
H306 C289 0.929 . S
H307 C290 0.930 . S
H308 C298 0.931 . S
H309 C299 0.931 . S
H310 C300 0.930 . S
H311 C301 0.929 . S
H312 C320 0.929 . S
H313 C322 0.930 . S
H314 C324 0.930 . S
H315 C327 0.929 . S
H316 C330 0.930 . S
H317 C332 0.960 . S
H318 C332 0.960 . S
H319 C332 0.960 . S
C320 H312 0.929 . S
C320 C321 1.377 . S
C320 C322 1.384 . S
C321 C320 1.377 . S
C321 C327 1.390 . S
C322 H313 0.930 . S
C322 C320 1.384 . S
C322 C323 1.372 . S
C323 C322 1.372 . S
C323 C324 1.400 . S
C323 C328 1.490 . S
C324 H314 0.930 . S
C324 C323 1.400 . S
C324 C327 1.386 . S
H325 C341 0.930 . S
H326 C342 0.931 . S
C327 H315 0.929 . S
C327 C321 1.390 . S
C327 C324 1.386 . S
C328 C323 1.490 . S
C328 C330 1.395 . S
C328 C331 1.403 . S
H329 C335 0.930 . S
C330 H316 0.930 . S
C330 C328 1.395 . S
C330 C333 1.403 . S
C331 C328 1.403 . S
C331 C332 1.524 . S
C331 C335 1.400 . S
C332 H317 0.960 . S
C332 H318 0.960 . S
C332 H319 0.960 . S
C332 C331 1.524 . S
C333 C330 1.403 . S
C333 C334 1.392 . S
C333 C337 1.495 . S
C334 C333 1.392 . S
C334 C335 1.385 . S
C334 C336 1.478 . S
C335 H329 0.930 . S
C335 C331 1.400 . S
C335 C334 1.385 . S
C336 C334 1.478 . S
C336 C338 1.381 . S
C336 C342 1.383 . S
C337 C333 1.495 . S
C337 H343 0.959 . S
C337 H344 0.961 . S
C337 H345 0.960 . S
C338 C336 1.381 . S
C338 C339 1.394 . S
C338 H346 0.930 . S
C339 C338 1.394 . S
C339 C340 1.383 . S
C339 H347 0.929 . S
C340 C339 1.383 . S
C340 C341 1.377 . S
C341 H325 0.930 . S
C341 C340 1.377 . S
C341 C342 1.379 . S
C342 H326 0.931 . S
C342 C336 1.383 . S
C342 C341 1.379 . S
H343 C337 0.959 . S
H344 C337 0.961 . S
H345 C337 0.960 . S
H346 C338 0.930 . S
H347 C339 0.929 . S
H348 C356 0.929 . S
H349 C358 0.930 . S
H350 C360 0.930 . S
H351 C363 0.929 . S
H352 C366 0.930 . S
H353 C368 0.960 . S
H354 C368 0.960 . S
H355 C368 0.960 1_554 S
C356 H348 0.929 . S
C356 C357 1.377 . S
C356 C358 1.384 . S
C357 C356 1.377 . S
C357 C363 1.390 . S
C358 H349 0.930 . S
C358 C356 1.384 . S
C358 C359 1.372 . S
C359 C358 1.372 . S
C359 C360 1.400 . S
C359 C364 1.490 . S
C360 H350 0.930 . S
C360 C359 1.400 . S
C360 C363 1.386 . S
H361 C377 0.930 . S
H362 C378 0.931 . S
C363 H351 0.929 . S
C363 C357 1.390 . S
C363 C360 1.386 . S
C364 C359 1.490 . S
C364 C366 1.395 . S
C364 C367 1.403 . S
H365 C371 0.930 . S
C366 H352 0.930 . S
C366 C364 1.395 . S
C366 C369 1.403 . S
C367 C364 1.403 . S
C367 C368 1.524 1_554 S
C367 C371 1.400 . S
C368 H353 0.960 . S
C368 H354 0.960 . S
C368 H355 0.960 1_556 S
C368 C367 1.524 1_556 S
C369 C366 1.403 . S
C369 C370 1.392 . S
C369 C373 1.495 . S
C370 C369 1.392 . S
C370 C371 1.385 . S
C370 C372 1.478 . S
C371 H365 0.930 . S
C371 C367 1.400 . S
C371 C370 1.385 . S
C372 C370 1.478 . S
C372 C374 1.381 . S
C372 C378 1.383 . S
C373 C369 1.495 . S
C373 H379 0.959 . S
C373 H380 0.961 . S
C373 H381 0.960 . S
C374 C372 1.381 . S
C374 C375 1.394 . S
C374 H382 0.930 . S
C375 C374 1.394 . S
C375 C376 1.383 . S
C375 H383 0.929 . S
C376 C375 1.383 . S
C376 C377 1.377 . S
C377 H361 0.930 . S
C377 C376 1.377 . S
C377 C378 1.379 . S
C378 H362 0.931 . S
C378 C372 1.383 . S
C378 C377 1.379 . S
H379 C373 0.959 . S
H380 C373 0.961 . S
H381 C373 0.960 . S
H382 C374 0.930 . S
H383 C375 0.929 . S
H384 C392 0.929 . S
H385 C394 0.930 . S
H386 C396 0.930 . S
H387 C399 0.929 . S
H388 C402 0.930 . S
H389 C404 0.960 . S
H390 C404 0.960 . S
H391 C404 0.960 . S
C392 H384 0.929 . S
C392 C393 1.377 . S
C392 C394 1.384 . S
C393 C392 1.377 . S
C393 C399 1.390 . S
C394 H385 0.930 . S
C394 C392 1.384 . S
C394 C395 1.372 . S
C395 C394 1.372 . S
C395 C396 1.400 . S
C395 C400 1.490 . S
C396 H386 0.930 . S
C396 C395 1.400 . S
C396 C399 1.386 . S
H397 C413 0.930 . S
H398 C414 0.931 . S
C399 H387 0.929 . S
C399 C393 1.390 . S
C399 C396 1.386 . S
C400 C395 1.490 . S
C400 C402 1.395 . S
C400 C403 1.403 . S
H401 C407 0.930 . S
C402 H388 0.930 . S
C402 C400 1.395 . S
C402 C405 1.403 . S
C403 C400 1.403 . S
C403 C404 1.524 . S
C403 C407 1.400 . S
C404 H389 0.960 . S
C404 H390 0.960 . S
C404 H391 0.960 . S
C404 C403 1.524 . S
C405 C402 1.403 . S
C405 C406 1.392 . S
C405 C409 1.495 . S
C406 C405 1.392 . S
C406 C407 1.385 . S
C406 C408 1.478 . S
C407 H401 0.930 . S
C407 C403 1.400 . S
C407 C406 1.385 . S
C408 C406 1.478 . S
C408 C410 1.381 . S
C408 C414 1.383 . S
C409 C405 1.495 . S
C409 H415 0.959 . S
C409 H416 0.961 . S
C409 H417 0.960 . S
C410 C408 1.381 . S
C410 C411 1.394 . S
C410 H418 0.930 . S
C411 C410 1.394 . S
C411 C412 1.383 . S
C411 H419 0.929 . S
C412 C411 1.383 . S
C412 C413 1.377 . S
C413 H397 0.930 . S
C413 C412 1.377 . S
C413 C414 1.379 . S
C414 H398 0.931 . S
C414 C408 1.383 . S
C414 C413 1.379 . S
H415 C409 0.959 . S
H416 C409 0.961 . S
H417 C409 0.960 . S
H418 C410 0.930 . S
H419 C411 0.929 . S
H420 C428 0.929 . S
H421 C430 0.930 . S
H422 C432 0.930 . S
H423 C435 0.929 . S
H424 C438 0.930 . S
H425 C440 0.960 . S
H426 C440 0.977 . S
H427 C440 0.960 . S
C428 H420 0.929 . S
C428 C429 1.377 . S
C428 C430 1.384 . S
C429 C428 1.377 . S
C429 C435 1.390 1_554 S
C430 H421 0.930 . S
C430 C428 1.384 . S
C430 C431 1.372 . S
C431 C430 1.372 . S
C431 C432 1.400 1_554 S
C431 C436 1.490 . S
C432 H422 0.930 . S
C432 C431 1.400 1_556 S
C432 C435 1.386 . S
H433 C449 0.930 . S
H434 C450 0.931 . S
C435 H423 0.929 . S
C435 C429 1.390 1_556 S
C435 C432 1.386 . S
C436 C431 1.490 . S
C436 C438 1.395 . S
C436 C439 1.402 1_554 S
H437 C443 0.930 1_556 S
C438 H424 0.930 . S
C438 C436 1.395 . S
C438 C441 1.403 . S
C439 C436 1.402 1_556 S
C439 C440 1.525 . S
C439 C443 1.399 1_556 S
C440 H425 0.960 . S
C440 H426 0.977 . S
C440 H427 0.960 . S
C440 C439 1.525 . S
C441 C438 1.403 . S
C441 C442 1.392 . S
C441 C445 1.495 . S
C442 C441 1.392 . S
C442 C443 1.385 . S
C442 C444 1.478 . S
C443 H437 0.930 1_554 S
C443 C439 1.399 1_554 S
C443 C442 1.385 . S
C444 C442 1.478 . S
C444 C446 1.381 . S
C444 C450 1.383 1_554 S
C445 C441 1.495 . S
C445 H451 0.959 . S
C445 H452 0.961 . S
C445 H453 0.960 . S
C446 C444 1.381 . S
C446 C447 1.394 . S
C446 H454 0.930 . S
C447 C446 1.394 . S
C447 C448 1.383 . S
C447 H455 0.929 . S
C448 C447 1.383 . S
C448 C449 1.377 1_554 S
C449 H433 0.930 . S
C449 C448 1.377 1_556 S
C449 C450 1.379 . S
C450 H434 0.931 . S
C450 C444 1.383 1_556 S
C450 C449 1.379 . S
H451 C445 0.959 . S
H452 C445 0.961 . S
H453 C445 0.960 . S
H454 C446 0.930 . S
H455 C447 0.929 . S
H456 C464 0.929 . S
H457 C466 0.930 . S
H458 C468 0.930 . S
H459 C471 0.929 . S
H460 C474 0.930 . S
H461 C476 0.960 . S
H462 C476 0.960 . S
H463 C476 0.960 . S
C464 H456 0.929 . S
C464 C465 1.377 . S
C464 C466 1.384 . S
C465 C464 1.377 . S
C465 C471 1.390 . S
C466 H457 0.930 . S
C466 C464 1.384 . S
C466 C467 1.372 . S
C467 C466 1.372 . S
C467 C468 1.400 . S
C467 C472 1.490 . S
C468 H458 0.930 . S
C468 C467 1.400 . S
C468 C471 1.386 . S
H469 C485 0.930 1_545 S
H470 C486 0.931 . S
C471 H459 0.929 . S
C471 C465 1.390 . S
C471 C468 1.386 . S
C472 C467 1.490 . S
C472 C474 1.395 . S
C472 C475 1.403 . S
H473 C479 0.930 . S
C474 H460 0.930 . S
C474 C472 1.395 . S
C474 C477 1.403 . S
C475 C472 1.403 . S
C475 C476 1.524 . S
C475 C479 1.400 . S
C476 H461 0.960 . S
C476 H462 0.960 . S
C476 H463 0.960 . S
C476 C475 1.524 . S
C477 C474 1.403 . S
C477 C478 1.392 . S
C477 C481 1.495 . S
C478 C477 1.392 . S
C478 C479 1.385 . S
C478 C480 1.478 . S
C479 H473 0.930 . S
C479 C475 1.400 . S
C479 C478 1.385 . S
C480 C478 1.478 . S
C480 C482 1.381 . S
C480 C486 1.383 . S
C481 C477 1.495 . S
C481 H487 0.959 . S
C481 H488 0.961 . S
C481 H489 0.960 . S
C482 C480 1.381 . S
C482 C483 1.394 . S
C482 H490 0.930 . S
C483 C482 1.394 . S
C483 C484 1.383 . S
C483 H491 0.929 . S
C484 C483 1.383 . S
C484 C485 1.377 . S
C485 H469 0.930 1_565 S
C485 C484 1.377 . S
C485 C486 1.379 . S
C486 H470 0.931 . S
C486 C480 1.383 . S
C486 C485 1.379 . S
H487 C481 0.959 . S
H488 C481 0.961 . S
H489 C481 0.960 . S
H490 C482 0.930 . S
H491 C483 0.929 . S
H492 C500 0.929 . S
H493 C502 0.930 . S
H494 C504 0.930 . S
H495 C507 0.929 . S
H496 C510 0.930 . S
H497 C512 0.960 . S
H498 C512 0.960 . S
H499 C512 0.960 . S
C500 H492 0.929 . S
C500 C501 1.377 . S
C500 C502 1.384 . S
C501 C500 1.377 . S
C501 C507 1.390 . S
C502 H493 0.930 . S
C502 C500 1.384 . S
C502 C503 1.372 . S
C503 C502 1.372 . S
C503 C504 1.400 . S
C503 C508 1.490 . S
C504 H494 0.930 . S
C504 C503 1.400 . S
C504 C507 1.386 . S
H505 C521 0.930 . S
H506 C522 0.931 . S
C507 H495 0.929 . S
C507 C501 1.390 . S
C507 C504 1.386 . S
C508 C503 1.490 . S
C508 C510 1.395 . S
C508 C511 1.403 . S
H509 C515 0.930 . S
C510 H496 0.930 . S
C510 C508 1.395 . S
C510 C513 1.403 . S
C511 C508 1.403 . S
C511 C512 1.524 . S
C511 C515 1.400 . S
C512 H497 0.960 . S
C512 H498 0.960 . S
C512 H499 0.960 . S
C512 C511 1.524 . S
C513 C510 1.403 . S
C513 C514 1.392 . S
C513 C517 1.495 . S
C514 C513 1.392 . S
C514 C515 1.385 . S
C514 C516 1.478 . S
C515 H509 0.930 . S
C515 C511 1.400 . S
C515 C514 1.385 . S
C516 C514 1.478 . S
C516 C518 1.381 . S
C516 C522 1.383 . S
C517 C513 1.495 . S
C517 H523 0.959 . S
C517 H524 0.961 . S
C517 H525 0.960 . S
C518 C516 1.381 . S
C518 C519 1.394 . S
C518 H526 0.930 . S
C519 C518 1.394 . S
C519 C520 1.383 . S
C519 H527 0.929 . S
C520 C519 1.383 . S
C520 C521 1.377 . S
C521 H505 0.930 . S
C521 C520 1.377 . S
C521 C522 1.379 . S
C522 H506 0.931 . S
C522 C516 1.383 . S
C522 C521 1.379 . S
H523 C517 0.959 . S
H524 C517 0.961 . S
H525 C517 0.960 . S
H526 C518 0.930 . S
H527 C519 0.929 . S
H528 C536 0.929 . S
H529 C538 0.930 . S
H530 C540 0.930 . S
H531 C543 0.929 . S
H532 C546 0.930 . S
H533 C548 0.960 . S
H534 C548 0.960 . S
H535 C548 0.960 . S
C536 H528 0.929 . S
C536 C537 1.377 . S
C536 C538 1.384 . S
C537 C536 1.377 . S
C537 C543 1.390 . S
C538 H529 0.930 . S
C538 C536 1.384 . S
C538 C539 1.372 . S
C539 C538 1.372 . S
C539 C540 1.400 . S
C539 C544 1.490 . S
C540 H530 0.930 . S
C540 C539 1.400 . S
C540 C543 1.386 . S
H541 C557 0.930 1_565 S
H542 C558 0.931 . S
C543 H531 0.929 . S
C543 C537 1.390 . S
C543 C540 1.386 . S
C544 C539 1.490 . S
C544 C546 1.395 . S
C544 C547 1.403 . S
H545 C551 0.930 . S
C546 H532 0.930 . S
C546 C544 1.395 . S
C546 C549 1.403 . S
C547 C544 1.403 . S
C547 C548 1.524 . S
C547 C551 1.400 . S
C548 H533 0.960 . S
C548 H534 0.960 . S
C548 H535 0.960 . S
C548 C547 1.524 . S
C549 C546 1.403 . S
C549 C550 1.392 . S
C549 C553 1.495 . S
C550 C549 1.392 . S
C550 C551 1.385 . S
C550 C552 1.478 . S
C551 H545 0.930 . S
C551 C547 1.400 . S
C551 C550 1.385 . S
C552 C550 1.478 . S
C552 C554 1.381 . S
C552 C558 1.383 . S
C553 C549 1.495 . S
C553 H559 0.959 . S
C553 H560 0.961 . S
C553 H561 0.960 . S
C554 C552 1.381 . S
C554 C555 1.394 . S
C554 H562 0.930 . S
C555 C554 1.394 . S
C555 C556 1.383 . S
C555 H563 0.929 . S
C556 C555 1.383 . S
C556 C557 1.377 . S
C557 H541 0.930 1_545 S
C557 C556 1.377 . S
C557 C558 1.379 . S
C558 H542 0.931 . S
C558 C552 1.383 . S
C558 C557 1.379 . S
H559 C553 0.959 . S
H560 C553 0.961 . S
H561 C553 0.960 . S
H562 C554 0.930 . S
H563 C555 0.929 . S
H564 C572 0.929 . S
H565 C574 0.930 . S
H566 C576 0.930 . S
H567 C579 0.929 . S
H568 C582 0.930 . S
H569 C584 0.960 . S
H570 C584 0.960 . S
H571 C584 0.960 . S
C572 H564 0.929 . S
C572 C573 1.377 . S
C572 C574 1.384 . S
C573 C572 1.377 . S
C573 C579 1.390 . S
C574 H565 0.930 . S
C574 C572 1.384 . S
C574 C575 1.372 . S
C575 C574 1.372 . S
C575 C576 1.400 . S
C575 C580 1.490 . S
C576 H566 0.930 . S
C576 C575 1.400 . S
C576 C579 1.386 . S
H577 C593 0.930 . S
H578 C594 0.931 . S
C579 H567 0.929 . S
C579 C573 1.390 . S
C579 C576 1.386 . S
C580 C575 1.490 . S
C580 C582 1.395 . S
C580 C583 1.403 . S
H581 C587 0.930 . S
C582 H568 0.930 . S
C582 C580 1.395 . S
C582 C585 1.403 . S
C583 C580 1.403 . S
C583 C584 1.524 . S
C583 C587 1.400 . S
C584 H569 0.960 . S
C584 H570 0.960 . S
C584 H571 0.960 . S
C584 C583 1.524 . S
C585 C582 1.403 . S
C585 C586 1.392 . S
C585 C589 1.495 . S
C586 C585 1.392 . S
C586 C587 1.385 . S
C586 C588 1.478 . S
C587 H581 0.930 . S
C587 C583 1.400 . S
C587 C586 1.385 . S
C588 C586 1.478 . S
C588 C590 1.381 . S
C588 C594 1.383 . S
C589 C585 1.495 . S
C589 H595 0.959 . S
C589 H596 0.961 . S
C589 H597 0.960 . S
C590 C588 1.381 . S
C590 C591 1.394 . S
C590 H598 0.930 . S
C591 C590 1.394 . S
C591 C592 1.383 . S
C591 H599 0.929 . S
C592 C591 1.383 . S
C592 C593 1.377 . S
C593 H577 0.930 . S
C593 C592 1.377 . S
C593 C594 1.379 . S
C594 H578 0.931 . S
C594 C588 1.383 . S
C594 C593 1.379 . S
H595 C589 0.959 . S
H596 C589 0.961 . S
H597 C589 0.960 . S
H598 C590 0.930 . S
H599 C591 0.929 . S
H600 C608 0.929 . S
H601 C610 0.930 . S
H602 C612 0.930 . S
H603 C615 0.929 . S
H604 C618 0.930 . S
H605 C620 0.960 . S
H606 C620 0.960 . S
H607 C620 0.960 . S
C608 H600 0.929 . S
C608 C609 1.377 . S
C608 C610 1.384 . S
C609 C608 1.377 . S
C609 C615 1.390 . S
C610 H601 0.930 . S
C610 C608 1.384 . S
C610 C611 1.372 . S
C611 C610 1.372 . S
C611 C612 1.400 . S
C611 C616 1.490 . S
C612 H602 0.930 . S
C612 C611 1.400 . S
C612 C615 1.386 . S
H613 C629 0.930 . S
H614 C630 0.931 . S
C615 H603 0.929 . S
C615 C609 1.390 . S
C615 C612 1.386 . S
C616 C611 1.490 . S
C616 C618 1.395 . S
C616 C619 1.403 . S
H617 C623 0.930 . S
C618 H604 0.930 . S
C618 C616 1.395 . S
C618 C621 1.403 . S
C619 C616 1.403 . S
C619 C620 1.524 . S
C619 C623 1.400 . S
C620 H605 0.960 . S
C620 H606 0.960 . S
C620 H607 0.960 . S
C620 C619 1.524 . S
C621 C618 1.403 . S
C621 C622 1.392 . S
C621 C625 1.495 . S
C622 C621 1.392 . S
C622 C623 1.385 . S
C622 C624 1.478 . S
C623 H617 0.930 . S
C623 C619 1.400 . S
C623 C622 1.385 . S
C624 C622 1.478 . S
C624 C626 1.381 . S
C624 C630 1.383 . S
C625 C621 1.495 . S
C625 H631 0.959 . S
C625 H632 0.961 . S
C625 H633 0.960 . S
C626 C624 1.381 . S
C626 C627 1.394 . S
C626 H634 0.930 . S
C627 C626 1.394 . S
C627 C628 1.383 . S
C627 H635 0.929 . S
C628 C627 1.383 . S
C628 C629 1.377 . S
C629 H613 0.930 . S
C629 C628 1.377 . S
C629 C630 1.379 . S
C630 H614 0.931 . S
C630 C624 1.383 . S
C630 C629 1.379 . S
H631 C625 0.959 . S
H632 C625 0.961 . S
H633 C625 0.960 . S
H634 C626 0.930 . S
H635 C627 0.929 . S
H636 C644 0.929 . S
H637 C646 0.930 . S
H638 C648 0.930 . S
H639 C651 0.929 . S
H640 C654 0.930 . S
H641 C656 0.960 . S
H642 C656 0.960 . S
H643 C656 0.960 . S
C644 H636 0.929 . S
C644 C645 1.377 . S
C644 C646 1.384 . S
C645 C644 1.377 . S
C645 C651 1.390 . S
C646 H637 0.930 . S
C646 C644 1.384 . S
C646 C647 1.372 . S
C647 C646 1.372 . S
C647 C648 1.400 . S
C647 C652 1.490 . S
C648 H638 0.930 . S
C648 C647 1.400 . S
C648 C651 1.386 . S
H649 C665 0.930 . S
H650 C666 0.931 . S
C651 H639 0.929 . S
C651 C645 1.390 . S
C651 C648 1.386 . S
C652 C647 1.490 . S
C652 C654 1.395 . S
C652 C655 1.403 . S
H653 C659 0.930 . S
C654 H640 0.930 . S
C654 C652 1.395 . S
C654 C657 1.403 . S
C655 C652 1.403 . S
C655 C656 1.524 . S
C655 C659 1.400 . S
C656 H641 0.960 . S
C656 H642 0.960 . S
C656 H643 0.960 . S
C656 C655 1.524 . S
C657 C654 1.403 . S
C657 C658 1.392 . S
C657 C661 1.495 . S
C658 C657 1.392 . S
C658 C659 1.385 . S
C658 C660 1.478 . S
C659 H653 0.930 . S
C659 C655 1.400 . S
C659 C658 1.385 . S
C660 C658 1.478 . S
C660 C662 1.381 . S
C660 C666 1.383 . S
C661 C657 1.495 . S
C661 H667 0.959 . S
C661 H668 0.962 . S
C661 H669 0.960 . S
C662 C660 1.381 . S
C662 C663 1.394 . S
C662 H670 0.930 . S
C663 C662 1.394 . S
C663 C664 1.383 . S
C663 H671 0.929 . S
C664 C663 1.383 . S
C664 C665 1.377 . S
C665 H649 0.930 . S
C665 C664 1.377 . S
C665 C666 1.379 . S
C666 H650 0.931 . S
C666 C660 1.383 . S
C666 C665 1.379 . S
H667 C661 0.959 . S
H668 C661 0.962 . S
H669 C661 0.960 . S
H670 C662 0.930 . S
H671 C663 0.929 . S
H672 C680 0.929 . S
H673 C682 0.930 . S
H674 C684 0.930 . S
H675 C687 0.929 . S
H676 C690 0.930 . S
H677 C692 0.960 . S
H678 C692 0.960 . S
H679 C692 0.960 . S
C680 H672 0.929 . S
C680 C681 1.377 . S
C680 C682 1.384 . S
C681 C680 1.377 . S
C681 C687 1.390 . S
C682 H673 0.930 . S
C682 C680 1.384 . S
C682 C683 1.372 . S
C683 C682 1.372 . S
C683 C684 1.400 . S
C683 C688 1.490 . S
C684 H674 0.930 . S
C684 C683 1.400 . S
C684 C687 1.386 . S
H685 C701 0.930 . S
H686 C702 0.931 . S
C687 H675 0.929 . S
C687 C681 1.390 . S
C687 C684 1.386 . S
C688 C683 1.490 . S
C688 C690 1.395 . S
C688 C691 1.403 . S
H689 C695 0.930 . S
C690 H676 0.930 . S
C690 C688 1.395 . S
C690 C693 1.403 . S
C691 C688 1.403 . S
C691 C692 1.524 . S
C691 C695 1.400 . S
C692 H677 0.960 . S
C692 H678 0.960 . S
C692 H679 0.960 . S
C692 C691 1.524 . S
C693 C690 1.403 . S
C693 C694 1.392 . S
C693 C697 1.495 . S
C694 C693 1.392 . S
C694 C695 1.385 . S
C694 C696 1.478 . S
C695 H689 0.930 . S
C695 C691 1.400 . S
C695 C694 1.385 . S
C696 C694 1.478 . S
C696 C698 1.381 . S
C696 C702 1.383 . S
C697 C693 1.495 . S
C697 H703 0.959 . S
C697 H704 0.961 . S
C697 H705 0.960 . S
C698 C696 1.381 . S
C698 C699 1.394 . S
C698 H706 0.930 . S
C699 C698 1.394 . S
C699 C700 1.383 . S
C699 H707 0.929 . S
C700 C699 1.383 . S
C700 C701 1.377 . S
C701 H685 0.930 . S
C701 C700 1.377 . S
C701 C702 1.379 . S
C702 H686 0.931 . S
C702 C696 1.383 . S
C702 C701 1.379 . S
H703 C697 0.959 . S
H704 C697 0.961 . S
H705 C697 0.960 . S
H706 C698 0.930 . S
H707 C699 0.929 . S
H708 C716 0.929 . S
H709 C718 0.930 . S
H710 C720 0.930 . S
H711 C723 0.929 . S
H712 C726 0.930 . S
H713 C728 0.960 1_545 S
H714 C728 0.960 . S
H715 C728 0.975 . S
C716 H708 0.929 . S
C716 C717 1.377 . S
C716 C718 1.384 . S
C717 C716 1.377 . S
C717 C723 1.390 . S
C718 H709 0.930 . S
C718 C716 1.384 . S
C718 C719 1.372 . S
C719 C718 1.372 . S
C719 C720 1.400 . S
C719 C724 1.490 . S
C720 H710 0.930 . S
C720 C719 1.400 . S
C720 C723 1.386 . S
H721 C737 0.930 1_545 S
H722 C738 0.931 . S
C723 H711 0.929 . S
C723 C717 1.390 . S
C723 C720 1.386 . S
C724 C719 1.490 . S
C724 C726 1.395 . S
C724 C727 1.403 . S
H725 C731 0.930 . S
C726 H712 0.930 . S
C726 C724 1.395 . S
C726 C729 1.403 . S
C727 C724 1.403 . S
C727 C728 1.524 . S
C727 C731 1.400 . S
C728 H713 0.960 1_565 S
C728 H714 0.960 . S
C728 H715 0.975 . S
C728 C727 1.524 . S
C729 C726 1.403 . S
C729 C730 1.392 . S
C729 C733 1.495 . S
C730 C729 1.392 . S
C730 C731 1.385 . S
C730 C732 1.478 . S
C731 H725 0.930 . S
C731 C727 1.400 . S
C731 C730 1.385 . S
C732 C730 1.478 . S
C732 C734 1.381 . S
C732 C738 1.383 . S
C733 C729 1.495 . S
C733 H739 0.959 . S
C733 H740 0.961 . S
C733 H741 0.960 . S
C734 C732 1.381 . S
C734 C735 1.394 . S
C734 H742 0.930 . S
C735 C734 1.394 . S
C735 C736 1.383 . S
C735 H743 0.929 . S
C736 C735 1.383 . S
C736 C737 1.377 . S
C737 H721 0.930 1_565 S
C737 C736 1.377 . S
C737 C738 1.379 . S
C738 H722 0.931 . S
C738 C732 1.383 . S
C738 C737 1.379 . S
H739 C733 0.959 . S
H740 C733 0.961 . S
H741 C733 0.960 . S
H742 C734 0.930 . S
H743 C735 0.929 . S
C340 C207 1.606 . S
C321 C133 1.639 . S
C357 C25 1.614 . S
C376 C302 1.611 . S
C393 C61 1.621 . S
C412 C218 1.624 . S
C429 C97 1.589 . S
C448 C291 1.598 . S
C484 C202 1.426 . S
C465 C1 1.564 . S
C520 C295 1.604 . S
C501 C67 1.586 . S
C537 C103 1.567 . S
C556 C211 1.600 . S
C573 C109 1.544 . S
C592 C286 1.391 . S
C628 C297 1.392 . S
C609 C37 1.530 . S
C664 C213 1.438 . S
C645 C73 1.547 . S
C700 C284 1.601 . S
C681 C139 1.604 . S
C717 C31 1.599 . S
C736 C200 1.596 . S
