# Generated by pormake.
# Topology zzz, (3,6)-cn, num edge types: 1
# Building blocks:
#     Node 0, Type 0, BuildingBlock: MIDCAF_clean_linker_0, # of connection points: 3
#     Node 1, Type 0, BuildingBlock: MIDCAF_clean_linker_0, # of connection points: 3
#     Node 2, Type 0, BuildingBlock: MIDCAF_clean_linker_0, # of connection points: 3
#     Node 3, Type 0, BuildingBlock: MIDCAF_clean_linker_0, # of connection points: 3
#     Node 4, Type 0, BuildingBlock: MIDCAF_clean_linker_0, # of connection points: 3
#     Node 5, Type 0, BuildingBlock: MIDCAF_clean_linker_0, # of connection points: 3
#     Node 6, Type 0, BuildingBlock: MIDCAF_clean_linker_0, # of connection points: 3
#     Node 7, Type 0, BuildingBlock: MIDCAF_clean_linker_0, # of connection points: 3
#     Node 8, Type 1, BuildingBlock: PAMTOO_clean_sbu_0, # of connection points: 6
#     Node 9, Type 1, BuildingBlock: PAMTOO_clean_sbu_0, # of connection points: 6
#     Node 10, Type 1, BuildingBlock: PAMTOO_clean_sbu_0, # of connection points: 6
#     Node 11, Type 1, BuildingBlock: PAMTOO_clean_sbu_0, # of connection points: 6
#     Edge 12, Type (0, 1), BuildingBlock: ZUJKAS_clean_linker_0, # of connection points: 2
#     Edge 13, Type (0, 1), BuildingBlock: ZUJKAS_clean_linker_0, # of connection points: 2
#     Edge 14, Type (0, 1), BuildingBlock: ZUJKAS_clean_linker_0, # of connection points: 2
#     Edge 15, Type (0, 1), BuildingBlock: ZUJKAS_clean_linker_0, # of connection points: 2
#     Edge 16, Type (0, 1), BuildingBlock: ZUJKAS_clean_linker_0, # of connection points: 2
#     Edge 17, Type (0, 1), BuildingBlock: ZUJKAS_clean_linker_0, # of connection points: 2
#     Edge 18, Type (0, 1), BuildingBlock: ZUJKAS_clean_linker_0, # of connection points: 2
#     Edge 19, Type (0, 1), BuildingBlock: ZUJKAS_clean_linker_0, # of connection points: 2
#     Edge 20, Type (0, 1), BuildingBlock: ZUJKAS_clean_linker_0, # of connection points: 2
#     Edge 21, Type (0, 1), BuildingBlock: ZUJKAS_clean_linker_0, # of connection points: 2
#     Edge 22, Type (0, 1), BuildingBlock: ZUJKAS_clean_linker_0, # of connection points: 2
#     Edge 23, Type (0, 1), BuildingBlock: ZUJKAS_clean_linker_0, # of connection points: 2
#     Edge 24, Type (0, 1), BuildingBlock: ZUJKAS_clean_linker_0, # of connection points: 2
#     Edge 25, Type (0, 1), BuildingBlock: ZUJKAS_clean_linker_0, # of connection points: 2
#     Edge 26, Type (0, 1), BuildingBlock: ZUJKAS_clean_linker_0, # of connection points: 2
#     Edge 27, Type (0, 1), BuildingBlock: ZUJKAS_clean_linker_0, # of connection points: 2
#     Edge 28, Type (0, 1), BuildingBlock: ZUJKAS_clean_linker_0, # of connection points: 2
#     Edge 29, Type (0, 1), BuildingBlock: ZUJKAS_clean_linker_0, # of connection points: 2
#     Edge 30, Type (0, 1), BuildingBlock: ZUJKAS_clean_linker_0, # of connection points: 2
#     Edge 31, Type (0, 1), BuildingBlock: ZUJKAS_clean_linker_0, # of connection points: 2
#     Edge 32, Type (0, 1), BuildingBlock: ZUJKAS_clean_linker_0, # of connection points: 2
#     Edge 33, Type (0, 1), BuildingBlock: ZUJKAS_clean_linker_0, # of connection points: 2
#     Edge 34, Type (0, 1), BuildingBlock: ZUJKAS_clean_linker_0, # of connection points: 2
#     Edge 35, Type (0, 1), BuildingBlock: ZUJKAS_clean_linker_0, # of connection points: 2
# Relax obj value: 0.330
# Max RMSD: 0.270
# Mean RMSD: 0.217
data_MOF--net-zzz--node1-PAMTOO_clean_sbu_0--node2-MIDCAF_clean_linker_0--edge1-ZUJKAS_clean_linker_0
_symmetry_space_group_name_H-M    P1
_symmetry_Int_Tables_number       1
_symmetry_cell_setting            triclinic
loop_
_symmetry_equiv_pos_as_xyz
'x, y, z'
_cell_length_a     78.21983
_cell_length_b     69.472773
_cell_length_c     26.054944
_cell_angle_alpha  90.698995
_cell_angle_beta   83.235585
_cell_angle_gamma 84.773488
loop_
_atom_site_label
_atom_site_type_symbol
_atom_site_fract_x
_atom_site_fract_y
_atom_site_fract_z
_atom_type_partial_charge
C0 C 0.80406 0.53888 0.4692 0.0
C1 C 0.81119 0.51984 0.47544 0.0
C2 C 0.80389 0.50461 0.4521 0.0
C3 C 0.79049 0.50844 0.42099 0.0
H4 H 0.73819 0.49585 0.31964 0.0
H5 H 0.71233 0.48789 0.28144 0.0
H6 H 0.69853 0.54876 0.26121 0.0
H7 H 0.72393 0.55643 0.29973 0.0
H8 H 0.76782 0.54636 0.18613 0.0
H9 H 0.78797 0.54992 0.10986 0.0
H10 H 0.82527 0.56846 0.20552 0.0
H11 H 0.80526 0.56395 0.2825 0.0
H12 H 0.78658 0.55759 0.43074 0.0
H13 H 0.80941 0.55101 0.48588 0.0
H14 H 0.80896 0.48976 0.45637 0.0
H15 H 0.7859 0.49656 0.40083 0.0
N16 N 0.75846 0.52663 0.36359 0.0
N17 N 0.75894 0.54153 0.28273 0.0
N18 N 0.78267 0.54217 0.32891 0.0
C19 C 0.75048 0.53173 0.321 0.0
C20 C 0.77503 0.54668 0.28609 0.0
C21 C 0.77459 0.53229 0.36776 0.0
C22 C 0.73292 0.52677 0.31329 0.0
C23 C 0.72918 0.50747 0.30894 0.0
C24 C 0.71453 0.50294 0.2862 0.0
C25 C 0.70332 0.51765 0.26764 0.0
C26 C 0.7066 0.53699 0.27542 0.0
C27 C 0.7212 0.54144 0.29767 0.0
C28 C 0.78516 0.55426 0.24049 0.0
C29 C 0.78013 0.55169 0.19102 0.0
C30 C 0.79171 0.55389 0.14699 0.0
C31 C 0.80847 0.55898 0.15152 0.0
C32 C 0.81266 0.56391 0.20077 0.0
C33 C 0.80117 0.5614 0.24491 0.0
C34 C 0.78424 0.52758 0.41229 0.0
C35 C 0.79089 0.54268 0.43772 0.0
C36 C 1.00143 0.76101 0.42998 0.0
C37 C 0.98889 0.77404 0.45871 0.0
C38 C 0.97134 0.77217 0.45489 0.0
C39 C 0.96648 0.75868 0.42052 0.0
H40 H 1.00598 0.69079 0.2695 0.0
H41 H 0.01375 0.6608 0.21757 0.0
H42 H 0.95953 0.65472 0.21141 0.0
H43 H 0.95199 0.68436 0.26282 0.0
H44 H 0.95448 0.7315 0.16917 0.0
H45 H 0.95057 0.75453 0.10086 0.0
H46 H 0.94506 0.80155 0.21342 0.0
H47 H 0.94854 0.77868 0.28159 0.0
H48 H 1.00642 0.73827 0.37175 0.0
H49 H 0.01505 0.76197 0.43234 0.0
H50 H 0.96132 0.78203 0.47579 0.0
H51 H 0.9529 0.75855 0.41588 0.0
N52 N 0.97886 0.71787 0.33062 0.0
N53 N 0.96419 0.72137 0.25682 0.0
N54 N 0.96434 0.74777 0.31271 0.0
C55 C 0.97359 0.71004 0.28739 0.0
C56 C 0.95963 0.74027 0.26889 0.0
C57 C 0.9738 0.7368 0.34385 0.0
C58 C 0.9784 0.68974 0.27037 0.0
C59 C 0.9958 0.68255 0.25866 0.0
C60 C 1.00021 0.66555 0.22837 0.0
C61 C 0.98727 0.65542 0.2099 0.0
C62 C 0.96986 0.66196 0.22527 0.0
C63 C 0.9655 0.67897 0.25479 0.0
C64 C 0.95237 0.75329 0.23069 0.0
C65 C 0.95187 0.7467 0.17965 0.0
C66 C 0.94969 0.7599 0.14038 0.0
C67 C 0.94792 0.77988 0.15149 0.0
C68 C 0.94638 0.78627 0.20337 0.0
C69 C 0.94855 0.77311 0.24258 0.0
C70 C 0.979 0.74651 0.38954 0.0
C71 C 0.99651 0.74727 0.39586 0.0
C72 C 0.72863 0.96432 0.36798 0.0
C73 C 0.72369 0.9812 0.39849 0.0
C74 C 0.73395 0.99683 0.39159 0.0
C75 C 0.74803 0.9961 0.35256 0.0
H76 H 0.81427 0.9639 0.2336 0.0
H77 H 0.8443 0.96446 0.19334 0.0
H78 H 0.82982 0.01756 0.11833 0.0
H79 H 0.8001 0.01683 0.15796 0.0
H80 H 0.76685 0.00339 0.08611 0.0
H81 H 0.74736 0.01 0.02034 0.0
H82 H 0.70843 0.97999 0.10979 0.0
H83 H 0.72778 0.97329 0.17514 0.0
H84 H 0.74499 0.9512 0.30269 0.0
H85 H 0.72096 0.95209 0.3718 0.0
H86 H 0.73058 0.00999 0.41468 0.0
H87 H 0.75483 0.0089 0.34544 0.0
N88 N 0.77881 0.98445 0.26002 0.0
N89 N 0.77657 0.98877 0.17134 0.0
N90 N 0.75225 0.98244 0.22712 0.0
C91 C 0.78634 0.9878 0.21118 0.0
C92 C 0.75958 0.98596 0.17892 0.0
C93 C 0.7616 0.98177 0.26775 0.0
C94 C 0.80494 0.99042 0.19922 0.0
C95 C 0.81772 0.976 0.20994 0.0
C96 C 0.83483 0.9762 0.18635 0.0
C97 C 0.83946 0.99101 0.15234 0.0
C98 C 0.82681 0.00606 0.14462 0.0
C99 C 0.80976 0.00566 0.16738 0.0
C100 C 0.74878 0.98799 0.1361 0.0
C101 C 0.75424 0.99792 0.09128 0.0
C102 C 0.74309 0.00178 0.05374 0.0
C103 C 0.7264 0.99555 0.06008 0.0
C104 C 0.72129 0.9848 0.1036 0.0
C105 C 0.73234 0.98111 0.14128 0.0
C106 C 0.752 0.97981 0.31944 0.0
C107 C 0.7425 0.96373 0.32858 0.0
C108 C 0.58674 0.67141 0.06725 0.0
C109 C 0.58007 0.67326 0.01957 0.0
C110 C 0.57556 0.69191 0.00206 0.0
C111 C 0.57606 0.70815 0.03378 0.0
H112 H 0.58266 0.76967 0.05473 0.0
H113 H 0.5754 0.80027 0.01546 0.0
H114 H 0.53622 0.81582 0.14388 0.0
H115 H 0.54377 0.78488 0.18424 0.0
H116 H 0.53557 0.73729 0.26759 0.0
H117 H 0.52629 0.7178 0.34204 0.0
H118 H 0.57875 0.69201 0.34041 0.0
H119 H 0.58781 0.71138 0.26674 0.0
H120 H 0.59114 0.68555 0.13721 0.0
H121 H 0.59079 0.6573 0.08123 0.0
H122 H 0.57031 0.69392 0.96567 0.0
H123 H 0.5713 0.72214 0.02064 0.0
N124 N 0.57349 0.74047 0.10708 0.0
N125 N 0.5633 0.75051 0.19276 0.0
N126 N 0.57362 0.71808 0.17295 0.0
C127 C 0.56704 0.75484 0.14184 0.0
C128 C 0.56696 0.73204 0.20835 0.0
C129 C 0.57678 0.72208 0.12227 0.0
C130 C 0.56361 0.77466 0.12235 0.0
C131 C 0.57253 0.77958 0.07498 0.0
C132 C 0.56831 0.79714 0.05222 0.0
C133 C 0.55496 0.81034 0.07587 0.0
C134 C 0.54656 0.80594 0.1246 0.0
C135 C 0.55087 0.78824 0.14772 0.0
C136 C 0.56241 0.72591 0.26183 0.0
C137 C 0.54518 0.72808 0.2848 0.0
C138 C 0.53985 0.71671 0.32686 0.0
C139 C 0.55174 0.70316 0.34685 0.0
C140 C 0.56925 0.70236 0.32648 0.0
C141 C 0.57449 0.7135 0.28427 0.0
C142 C 0.58088 0.70602 0.08382 0.0
C143 C 0.58703 0.68761 0.09922 0.0
C144 C 0.2163 0.48894 0.94348 0.0
C145 C 0.21162 0.47395 0.91239 0.0
C146 C 0.22203 0.45625 0.90874 0.0
C147 C 0.23567 0.45301 0.93876 0.0
H148 H 0.30116 0.44196 0.08674 0.0
H149 H 0.32479 0.45246 0.12955 0.0
H150 H 0.30347 0.51184 0.12271 0.0
H151 H 0.27955 0.50104 0.07955 0.0
H152 H 0.2544 0.44212 0.19288 0.0
H153 H 0.23291 0.43422 0.26162 0.0
H154 H 0.20364 0.41012 0.14958 0.0
H155 H 0.22487 0.41917 0.08014 0.0
H156 H 0.23251 0.49694 7e-05 0.0
H157 H 0.20857 0.50273 0.94758 0.0
H158 H 0.21916 0.44451 0.88438 0.0
H159 H 0.24254 0.43872 0.93802 0.0
N160 N 0.26422 0.46948 0.02515 0.0
N161 N 0.26529 0.45027 0.09886 0.0
N162 N 0.24272 0.44849 0.04851 0.0
C163 C 0.2724 0.46332 0.0665 0.0
C164 C 0.25044 0.44287 0.09037 0.0
C165 C 0.24942 0.46163 0.01572 0.0
C166 C 0.28862 0.47069 0.07932 0.0
C167 C 0.30182 0.45732 0.09286 0.0
C168 C 0.3154 0.46338 0.11749 0.0
C169 C 0.31607 0.48302 0.12999 0.0
C170 C 0.30329 0.49657 0.11408 0.0
C171 C 0.28973 0.49047 0.08869 0.0
C172 C 0.24098 0.43193 0.131 0.0
C173 C 0.24369 0.43457 0.18284 0.0
C174 C 0.23132 0.42986 0.22257 0.0
C175 C 0.21613 0.42213 0.2112 0.0
C176 C 0.21484 0.41676 0.15963 0.0
C177 C 0.22705 0.42185 0.11979 0.0
C178 C 0.23952 0.46747 0.97253 0.0
C179 C 0.23012 0.48571 0.97331 0.0
C180 C 0.06226 0.22489 0.93523 0.0
C181 C 0.04567 0.22484 0.91959 0.0
C182 C 0.03312 0.24014 0.93684 0.0
C183 C 0.0368 0.25443 0.97153 0.0
H184 H 0.02508 0.31595 0.09185 0.0
H185 H 0.01907 0.34716 0.13863 0.0
H186 H 0.07314 0.34646 0.15914 0.0
H187 H 0.07895 0.3156 0.11236 0.0
H188 H 0.06002 0.27452 0.22494 0.0
H189 H 0.0552 0.25517 0.30169 0.0
H190 H 0.0605 0.2034 0.20544 0.0
H191 H 0.06561 0.22254 0.12893 0.0
H192 H 0.07834 0.23774 0.98451 0.0
H193 H 0.07219 0.21328 0.92333 0.0
H194 H 0.02024 0.2406 0.92522 0.0
H195 H 0.02659 0.26528 0.98691 0.0
N196 N 0.05275 0.28382 0.04283 0.0
N197 N 0.05925 0.28148 0.1287 0.0
N198 N 0.05958 0.25347 0.07838 0.0
C199 C 0.05514 0.29249 0.08852 0.0
C200 C 0.06136 0.26198 0.1242 0.0
C201 C 0.05542 0.26413 0.0376 0.0
C202 C 0.05251 0.31357 0.09796 0.0
C203 C 0.03574 0.32302 0.10419 0.0
C204 C 0.03229 0.34072 0.13174 0.0
C205 C 0.04557 0.34924 0.15336 0.0
C206 C 0.06259 0.34051 0.14279 0.0
C207 C 0.06598 0.32282 0.11574 0.0
C208 C 0.06277 0.25013 0.1706 0.0
C209 C 0.06064 0.25896 0.22013 0.0
C210 C 0.0578 0.2479 0.26419 0.0
C211 C 0.05715 0.22783 0.25955 0.0
C212 C 0.06097 0.21883 0.21041 0.0
C213 C 0.06377 0.22987 0.16639 0.0
C214 C 0.053 0.2535 0.98993 0.0
C215 C 0.06582 0.23895 0.97026 0.0
C216 C 0.30316 0.99249 0.02467 0.0
C217 C 0.30615 0.00792 0.99138 0.0
C218 C 0.29376 0.0241 0.99477 0.0
C219 C 0.27958 0.02548 0.03369 0.0
H220 H 0.21817 0.99511 0.14642 0.0
H221 H 0.18807 0.9939 0.18511 0.0
H222 H 0.19088 0.04713 0.26971 0.0
H223 H 0.22077 0.04812 0.23165 0.0
H224 H 0.25536 0.01151 0.31134 0.0
H225 H 0.27262 0.00572 0.38302 0.0
H226 H 0.31871 0.01582 0.28223 0.0
H227 H 0.30162 0.02171 0.21113 0.0
H228 H 0.28795 0.98238 0.09087 0.0
H229 H 0.31222 0.97967 0.02254 0.0
H230 H 0.29569 0.03626 0.96983 0.0
H231 H 0.27108 0.03875 0.0384 0.0
N232 N 0.2494 0.01682 0.12652 0.0
N233 N 0.24984 0.02038 0.21653 0.0
N234 N 0.27578 0.01489 0.16211 0.0
C235 C 0.24078 0.01995 0.1752 0.0
C236 C 0.26733 0.01786 0.21029 0.0
C237 C 0.26708 0.01446 0.12019 0.0
C238 C 0.2217 0.0218 0.18572 0.0
C239 C 0.21208 0.00687 0.17178 0.0
C240 C 0.19495 0.00607 0.19445 0.0
C241 C 0.18709 0.02036 0.23079 0.0
C242 C 0.19641 0.03599 0.24159 0.0
C243 C 0.21355 0.03659 0.21972 0.0
C244 C 0.27716 0.01688 0.25541 0.0
C245 C 0.26913 0.01285 0.3048 0.0
C246 C 0.279 0.00944 0.34576 0.0
C247 C 0.29699 0.01028 0.33818 0.0
C248 C 0.30484 0.01529 0.28949 0.0
C249 C 0.29505 0.0185 0.24856 0.0
C250 C 0.27753 0.01065 0.06946 0.0
C251 C 0.2891 0.99389 0.06334 0.0
C252 C 0.49233 0.31902 0.27768 0.0
C253 C 0.5015 0.31331 0.31902 0.0
C254 C 0.50315 0.29363 0.33152 0.0
C255 C 0.49608 0.27994 0.30246 0.0
H256 H 0.46247 0.23027 0.30823 0.0
H257 H 0.46174 0.19823 0.34454 0.0
H258 H 0.47978 0.17241 0.19411 0.0
H259 H 0.48024 0.20485 0.15717 0.0
H260 H 0.48915 0.25524 0.05259 0.0
H261 H 0.48847 0.27628 0.97781 0.0
H262 H 0.44421 0.31064 0.05758 0.0
H263 H 0.44486 0.28948 0.13108 0.0
H264 H 0.47852 0.3104 0.21679 0.0
H265 H 0.49036 0.3341 0.2679 0.0
H266 H 0.51018 0.28877 0.36308 0.0
H267 H 0.49782 0.26486 0.31237 0.0
N268 N 0.47911 0.25296 0.24222 0.0
N269 N 0.46982 0.24497 0.16237 0.0
N270 N 0.47657 0.2765 0.1798 0.0
C271 C 0.4736 0.23973 0.21047 0.0
C272 C 0.47117 0.26357 0.14743 0.0
C273 C 0.48073 0.27134 0.22694 0.0
C274 C 0.47148 0.22005 0.2299 0.0
C275 C 0.46606 0.21777 0.28265 0.0
C276 C 0.46553 0.19941 0.30343 0.0
C277 C 0.47069 0.18281 0.27218 0.0
C278 C 0.47576 0.18499 0.21905 0.0
C279 C 0.47594 0.20349 0.19791 0.0
C280 C 0.46691 0.27064 0.09708 0.0
C281 C 0.47877 0.2667 0.05271 0.0
C282 C 0.47854 0.27897 0.01037 0.0
C283 C 0.46647 0.29539 0.01192 0.0
C284 C 0.45361 0.29811 0.05457 0.0
C285 C 0.4539 0.28592 0.09675 0.0
C286 C 0.4873 0.28569 0.26026 0.0
C287 C 0.48539 0.3054 0.24857 0.0
Dy288 Dy 1.00078 0.00804 0.65567 0.0
Dy289 Dy 0.02864 0.99092 0.73074 0.0
C290 C 0.04124 0.00384 0.61623 0.0
O291 O 1.00702 0.97699 0.63102 0.0
O292 O 0.01491 0.96582 0.70779 0.0
O293 O 0.99318 0.01377 0.57975 0.0
O294 O 0.97566 0.02258 0.64825 0.0
O295 O 1.00346 0.99772 0.781 0.0
O296 O 0.98535 0.99386 0.71995 0.0
O297 O 0.03266 0.02232 0.725 0.0
O298 O 1.00536 0.03253 0.70775 0.0
O299 O 0.04042 0.99258 0.80144 0.0
O300 O 0.04828 0.96869 0.74716 0.0
C301 C 0.01022 0.96264 0.66189 0.0
O302 O 0.02666 0.01496 0.61734 0.0
O303 O 0.04351 0.99101 0.65201 0.0
C304 C 0.97757 0.04412 0.57988 0.0
C305 C 0.97866 0.08136 0.5393 0.0
C306 C 0.9851 0.07707 0.58635 0.0
C307 C 0.98461 0.05863 0.60626 0.0
C308 C 0.97054 0.04843 0.53389 0.0
C309 C 0.97108 0.06697 0.51365 0.0
C310 C 0.97909 0.02427 0.5984 0.0
C311 C 0.98811 0.99476 0.76861 0.0
C312 C 0.02014 0.03616 0.72332 0.0
C313 C 0.04297 0.96102 0.83439 0.0
C314 C 0.02809 0.93107 0.89032 0.0
C315 C 0.02027 0.9501 0.89587 0.0
C316 C 0.02759 0.96492 0.86812 0.0
C317 C 0.05154 0.94233 0.83203 0.0
C318 C 0.04417 0.92744 0.85983 0.0
C319 C 0.04797 0.97503 0.79462 0.0
H320 H 0.99135 0.08766 0.60652 0.0
H321 H 0.99034 0.0555 0.64138 0.0
H322 H 0.96515 0.03733 0.5129 0.0
H323 H 0.96598 0.0699 0.47737 0.0
H324 H 0.00805 0.95339 0.91994 0.0
H325 H 0.02059 0.97915 0.87077 0.0
H326 H 0.06332 0.93895 0.80596 0.0
H327 H 0.05047 0.91289 0.85478 0.0
Dy328 Dy 0.50863 0.98048 0.63565 0.0
Dy329 Dy 0.51601 0.01452 0.71565 0.0
C330 C 0.50319 0.02442 0.60605 0.0
O331 O 0.53533 0.98853 0.60909 0.0
O332 O 0.54198 0.99941 0.68684 0.0
O333 O 0.50887 0.9692 0.55792 0.0
O334 O 0.5004 0.95213 0.62345 0.0
O335 O 0.51524 0.9876 0.76178 0.0
O336 O 0.52265 0.96532 0.69568 0.0
O337 O 0.48716 0.0167 0.71951 0.0
O338 O 0.48439 0.98589 0.69092 0.0
O339 O 0.51261 0.02861 0.79102 0.0
O340 O 0.52851 0.04037 0.72752 0.0
C341 C 0.5468 0.99315 0.63907 0.0
O342 O 0.49644 0.00783 0.60608 0.0
O343 O 0.51395 0.02814 0.63907 0.0
C344 C 0.4845 0.95159 0.55227 0.0
C345 C 0.45086 0.95004 0.52473 0.0
C346 C 0.46148 0.96382 0.50298 0.0
C347 C 0.47812 0.96461 0.51664 0.0
C348 C 0.47425 0.93711 0.57169 0.0
C349 C 0.45753 0.93641 0.5583 0.0
C350 C 0.50082 0.95429 0.57367 0.0
C351 C 0.52064 0.96992 0.74519 0.0
C352 C 0.47774 0.00221 0.7143 0.0
C353 C 0.5383 0.04138 0.80854 0.0
C354 C 0.56897 0.04139 0.85494 0.0
C355 C 0.56074 0.02433 0.85193 0.0
C356 C 0.54559 0.02429 0.82862 0.0
C357 C 0.54612 0.05858 0.81313 0.0
C358 C 0.56139 0.05859 0.83609 0.0
C359 C 0.52394 0.04082 0.77726 0.0
H360 H 0.45663 0.97462 0.47735 0.0
H361 H 0.48565 0.97596 0.50088 0.0
H362 H 0.47889 0.92682 0.59897 0.0
H363 H 0.44969 0.92549 0.5751 0.0
H364 H 0.56644 0.01081 0.86544 0.0
H365 H 0.53994 0.01076 0.82457 0.0
H366 H 0.54075 0.07184 0.7973 0.0
H367 H 0.56745 0.07195 0.83821 0.0
Dy368 Dy 0.52868 0.50021 0.71511 0.0
Dy369 Dy 0.48825 0.50644 0.67986 0.0
C370 C 0.49996 0.4714 0.75171 0.0
O371 O 0.53173 0.48626 0.63662 0.0
O372 O 0.50287 0.48409 0.62566 0.0
O373 O 0.55261 0.48432 0.73196 0.0
O374 O 0.54826 0.51528 0.74591 0.0
O375 O 0.50463 0.52177 0.62094 0.0
O376 O 0.52599 0.52769 0.67087 0.0
O377 O 0.49209 0.52956 0.73705 0.0
O378 O 0.5092 0.50978 0.78124 0.0
O379 O 0.4667 0.52535 0.65856 0.0
O380 O 0.46425 0.49483 0.66817 0.0
C381 C 0.51955 0.47959 0.61233 0.0
O382 O 0.51642 0.47329 0.7374 0.0
O383 O 0.48767 0.48495 0.74369 0.0
C384 C 0.56722 0.49793 0.79767 0.0
C385 C 0.58607 0.49782 0.88456 0.0
C386 C 0.56869 0.50576 0.88853 0.0
C387 C 0.55938 0.50584 0.84557 0.0
C388 C 0.58437 0.48967 0.79386 0.0
C389 C 0.59368 0.48962 0.8366 0.0
C390 C 0.55853 0.49966 0.75011 0.0
C391 C 0.51732 0.53175 0.63138 0.0
C392 C 0.49998 0.52623 0.77817 0.0
C393 C 0.44744 0.51085 0.60882 0.0
C394 C 0.42801 0.50839 0.52399 0.0
C395 C 0.44605 0.50346 0.51776 0.0
C396 C 0.45567 0.50463 0.55982 0.0
C397 C 0.42958 0.51611 0.61494 0.0
C398 C 0.41997 0.51491 0.57313 0.0
C399 C 0.45695 0.51129 0.65459 0.0
H400 H 0.56226 0.512 0.92481 0.0
H401 H 0.54618 0.51241 0.84955 0.0
H402 H 0.59077 0.4837 0.75721 0.0
H403 H 0.60707 0.48368 0.83142 0.0
H404 H 0.45268 0.49824 0.48068 0.0
H405 H 0.46946 0.50043 0.55429 0.0
H406 H 0.42298 0.52098 0.65239 0.0
H407 H 0.40621 0.51914 0.57935 0.0
Dy408 Dy 0.01774 0.51801 0.65234 0.0
Dy409 Dy 1.00679 0.48137 0.72156 0.0
C410 C 0.02048 0.47629 0.6023 0.0
O411 O 0.99113 0.51331 0.63386 0.0
O412 O 0.98168 0.49738 0.70677 0.0
O413 O 0.02023 0.5319 0.57846 0.0
O414 O 0.02838 0.54565 0.64527 0.0
O415 O 0.01026 0.50559 0.77566 0.0
O416 O 1.00293 0.53087 0.72518 0.0
O417 O 0.03577 0.47787 0.71503 0.0
O418 O 0.04031 0.50929 0.69547 0.0
O419 O 0.99929 0.46958 0.7962 0.0
O420 O 1.00073 0.45159 0.72743 0.0
C421 C 0.97858 0.50652 0.66444 0.0
O422 O 0.0292 0.49126 0.6078 0.0
O423 O 0.00823 0.47239 0.63838 0.0
C424 C 0.04722 0.54409 0.56715 0.0
C425 C 0.07888 0.52992 0.51073 0.0
C426 C 0.07714 0.53085 0.565 0.0
C427 C 0.06149 0.53788 0.5929 0.0
C428 C 0.04946 0.54507 0.51307 0.0
C429 C 0.0652 0.53808 0.48502 0.0
C430 C 0.02963 0.54473 0.59486 0.0
C431 C 1.00509 0.52391 0.77082 0.0
C432 C 0.04581 0.49215 0.71124 0.0
C433 C 0.97652 0.4506 0.79087 0.0
C434 C 0.94095 0.45815 0.82384 0.0
C435 C 0.95267 0.45349 0.85985 0.0
C436 C 0.97032 0.44969 0.84341 0.0
C437 C 0.96463 0.4531 0.75446 0.0
C438 C 0.94697 0.45667 0.77083 0.0
C439 C 0.99478 0.45382 0.77624 0.0
H440 H 0.08732 0.52461 0.58618 0.0
H441 H 0.06019 0.53688 0.63458 0.0
H442 H 0.03864 0.54975 0.49238 0.0
H443 H 0.06629 0.53797 0.4432 0.0
H444 H 0.94851 0.45457 0.901 0.0
H445 H 0.97926 0.44792 0.87214 0.0
H446 H 0.96902 0.45394 0.7136 0.0
H447 H 0.93821 0.45979 0.74212 0.0
H448 H 0.17614 0.98787 0.27746 0.0
H449 H 0.15006 0.98527 0.3381 0.0
H450 H 0.13376 0.04526 0.31661 0.0
H451 H 0.15984 0.048 0.25583 0.0
H452 H 0.14176 0.01229 0.43284 0.0
H453 H 0.08996 0.01338 0.30327 0.0
H454 H 0.11222 0.00512 0.28105 0.0
H455 H 0.10596 0.03043 0.29198 0.0
C456 C 0.16681 0.00039 0.2846 0.0
C457 C 0.17007 0.01814 0.26164 0.0
C458 C 0.15197 0.99892 0.31957 0.0
C459 C 0.13994 0.01505 0.33171 0.0
C460 C 0.1428 0.03259 0.30748 0.0
H461 H 0.04413 0.0324 0.54431 0.0
H462 H 0.06803 0.03558 0.47602 0.0
C463 C 0.15774 0.03415 0.27291 0.0
C464 C 0.12513 0.01389 0.37265 0.0
H465 H 0.08122 0.01326 0.39307 0.0
C466 C 0.12852 0.01245 0.42421 0.0
C467 C 0.10787 0.0144 0.36132 0.0
C468 C 0.10364 0.01582 0.30644 0.0
C469 C 0.1151 0.01159 0.46487 0.0
C470 C 0.09781 0.01154 0.45358 0.0
C471 C 0.09443 0.0132 0.40188 0.0
C472 C 0.08314 0.0095 0.49479 0.0
C473 C 0.11962 0.01126 0.51963 0.0
C474 C 0.08345 0.99363 0.52769 0.0
C475 C 0.06991 0.9919 0.5671 0.0
C476 C 0.05554 0.00581 0.57408 0.0
C477 C 0.05501 0.02145 0.54024 0.0
C478 C 0.06867 0.02327 0.50107 0.0
H479 H 0.13202 0.01758 0.52262 0.0
H480 H 0.10933 0.01935 0.54663 0.0
H481 H 0.12115 0.99605 0.53217 0.0
H482 H 0.09416 0.98249 0.52281 0.0
H483 H 0.07068 0.97951 0.59186 0.0
H484 H 0.44623 0.16758 0.33932 0.0
H485 H 0.44987 0.13839 0.39013 0.0
H486 H 0.50164 0.12587 0.31283 0.0
H487 H 0.49788 0.15485 0.26101 0.0
H488 H 0.4852 0.09283 0.33073 0.0
H489 H 0.47857 0.13842 0.5096 0.0
H490 H 0.46013 0.14144 0.47453 0.0
H491 H 0.48064 0.14851 0.44599 0.0
C492 C 0.45829 0.15843 0.33267 0.0
C493 C 0.47184 0.16357 0.29655 0.0
C494 C 0.4604 0.14182 0.36191 0.0
C495 C 0.47619 0.13021 0.35632 0.0
C496 C 0.48937 0.13467 0.31807 0.0
H497 H 0.5175 0.05849 0.58829 0.0
H498 H 0.51063 0.08297 0.52578 0.0
C499 C 0.4872 0.15119 0.28834 0.0
C500 C 0.47937 0.11418 0.39237 0.0
H501 H 0.48083 0.10461 0.52017 0.0
C502 C 0.48422 0.09537 0.37217 0.0
C503 C 0.47837 0.11756 0.44642 0.0
C504 C 0.47431 0.13759 0.47048 0.0
C505 C 0.48802 0.07987 0.40453 0.0
C506 C 0.48662 0.08321 0.45867 0.0
C507 C 0.48176 0.10201 0.47876 0.0
C508 C 0.49098 0.06772 0.49525 0.0
C509 C 0.49403 0.06022 0.38029 0.0
C510 C 0.48216 0.05095 0.49924 0.0
C511 C 0.48616 0.03678 0.53493 0.0
C512 C 0.4989 0.03923 0.56776 0.0
C513 C 0.5076 0.0561 0.56379 0.0
C514 C 0.50369 0.07015 0.52798 0.0
H515 H 0.49867 0.06116 0.3385 0.0
H516 H 0.5046 0.05294 0.39999 0.0
H517 H 0.48306 0.05106 0.38401 0.0
H518 H 0.47203 0.04893 0.47528 0.0
H519 H 0.47914 0.02401 0.53713 0.0
H520 H 0.31146 0.50912 0.21168 0.0
H521 H 0.33186 0.51514 0.2731 0.0
H522 H 0.37069 0.47554 0.18663 0.0
H523 H 0.3504 0.46951 0.12496 0.0
H524 H 0.36679 0.46754 0.28929 0.0
H525 H 0.37406 0.54562 0.26528 0.0
H526 H 0.35196 0.54025 0.27789 0.0
H527 H 0.36477 0.53143 0.21904 0.0
C528 C 0.32448 0.50208 0.20487 0.0
C529 C 0.32922 0.4888 0.16322 0.0
C530 C 0.33616 0.50552 0.24018 0.0
C531 C 0.35292 0.49592 0.23447 0.0
C532 C 0.35785 0.48313 0.19203 0.0
H533 H 0.43601 0.51739 0.4217 0.0
H534 H 0.41849 0.51411 0.35041 0.0
C535 C 0.3462 0.47967 0.15679 0.0
C536 C 0.36485 0.49805 0.27458 0.0
H537 H 0.38486 0.53109 0.33907 0.0
C538 C 0.3708 0.48144 0.29988 0.0
C539 C 0.37029 0.51613 0.28824 0.0
C540 C 0.36509 0.53436 0.26089 0.0
C541 C 0.38166 0.48245 0.33906 0.0
C542 C 0.38656 0.50062 0.35411 0.0
C543 C 0.38098 0.51718 0.32796 0.0
C544 C 0.39723 0.50269 0.39742 0.0
C545 C 0.38791 0.46399 0.3637 0.0
C546 C 0.3911 0.49754 0.44775 0.0
C547 C 0.40109 0.49933 0.48848 0.0
C548 C 0.41748 0.50641 0.48007 0.0
C549 C 0.42357 0.51167 0.42959 0.0
C550 C 0.41351 0.50993 0.38882 0.0
H551 H 0.38699 0.4511 0.33884 0.0
H552 H 0.40152 0.46426 0.37169 0.0
H553 H 0.37976 0.46236 0.40096 0.0
H554 H 0.3785 0.49218 0.45563 0.0
H555 H 0.39601 0.49494 0.52658 0.0
H556 H 0.06386 0.38072 0.16584 0.0
H557 H 0.05988 0.40389 0.239 0.0
H558 H 0.01452 0.37755 0.30281 0.0
H559 H 0.01858 0.35412 0.23079 0.0
H560 H 0.03098 0.43087 0.28191 0.0
H561 H 0.04729 0.37273 0.41712 0.0
H562 H 0.05182 0.36961 0.34781 0.0
H563 H 0.03028 0.36809 0.37922 0.0
C564 C 0.05294 0.37996 0.19521 0.0
C565 C 0.04161 0.36543 0.19244 0.0
C566 C 0.05066 0.39326 0.23692 0.0
C567 C 0.03709 0.39222 0.27684 0.0
C568 C 0.02523 0.37844 0.27282 0.0
H569 H 1.00353 0.44553 0.57647 0.0
H570 H 0.00823 0.42616 0.49646 0.0
C571 C 0.02746 0.36518 0.23116 0.0
C572 C 0.03576 0.40486 0.32393 0.0
H573 H 0.03691 0.40344 0.45454 0.0
C574 C 0.03237 0.42493 0.31965 0.0
C575 C 0.03768 0.39707 0.37309 0.0
C576 C 0.04212 0.37572 0.37979 0.0
C577 C 0.03024 0.43736 0.36353 0.0
C578 C 0.03189 0.42951 0.41286 0.0
C579 C 0.03559 0.40946 0.41684 0.0
C580 C 0.02919 0.44165 0.4612 0.0
C581 C 0.02566 0.45867 0.35689 0.0
C582 C 0.03956 0.45672 0.46852 0.0
C583 C 0.03687 0.46792 0.51441 0.0
C584 C 0.02383 0.46416 0.5541 0.0
C585 C 0.01367 0.44887 0.54686 0.0
C586 C 0.01634 0.43775 0.50103 0.0
H587 H 0.0207 0.46165 0.31926 0.0
H588 H 0.01575 0.46465 0.38848 0.0
H589 H 0.03739 0.46643 0.35816 0.0
H590 H 0.04983 0.45973 0.43891 0.0
H591 H 0.04499 0.47952 0.51872 0.0
H592 H 0.86028 0.02041 0.13187 0.0
H593 H 0.88663 0.01984 0.07082 0.0
H594 H 0.88402 0.95918 0.03929 0.0
H595 H 0.85777 0.9596 0.10085 0.0
H596 H 0.91732 0.96746 0.04356 0.0
H597 H 0.8854 0.01903 0.91606 0.0
H598 H 0.88519 0.0284 0.98061 0.0
H599 H 0.87355 0.00785 0.96948 0.0
C600 C 0.86539 0.0069 0.11224 0.0
C601 C 0.85681 0.99008 0.12101 0.0
C602 C 0.88042 0.00662 0.07711 0.0
C603 C 0.8871 0.98959 0.04932 0.0
C604 C 0.87908 0.97254 0.05993 0.0
H605 H 0.95492 0.98689 0.75825 0.0
H606 H 0.93103 0.9844 0.82665 0.0
C607 C 0.8641 0.97278 0.0954 0.0
C608 C 0.90204 0.9897 0.00797 0.0
H609 H 0.91559 0.01128 0.895 0.0
C610 C 0.91693 0.97702 0.01103 0.0
C611 C 0.90146 0.00189 0.96486 0.0
C612 C 0.88549 0.01492 0.95712 0.0
C613 C 0.93132 0.97645 0.97281 0.0
C614 C 0.93098 0.98919 0.93077 0.0
C615 C 0.91597 0.00163 0.92736 0.0
C616 C 0.94588 0.98979 0.88951 0.0
C617 C 0.94658 0.96189 0.97729 0.0
C618 C 0.96226 0.99371 0.90176 0.0
C619 C 0.97601 0.99503 0.86265 0.0
C620 C 0.97366 0.99271 0.81024 0.0
C621 C 0.95724 0.98878 0.79808 0.0
C622 C 0.94354 0.98736 0.83724 0.0
H623 H 0.94286 0.94968 0.00204 0.0
H624 H 0.9524 0.95598 0.93873 0.0
H625 H 0.95658 0.96905 0.9953 0.0
H626 H 0.96436 0.99612 0.94158 0.0
H627 H 0.98842 0.99817 0.87355 0.0
H628 H 0.55098 0.81323 0.97363 0.0
H629 H 0.54402 0.84223 0.92573 0.0
H630 H 0.53891 0.87664 0.0665 0.0
H631 H 0.54646 0.84754 0.11485 0.0
H632 H 0.51482 0.86812 0.93668 0.0
H633 H 0.57306 0.90478 0.96968 0.0
H634 H 0.57127 0.87957 0.98312 0.0
H635 H 0.55999 0.89795 0.02678 0.0
C636 C 0.54856 0.82697 0.99449 0.0
C637 C 0.54957 0.82808 0.04802 0.0
C638 C 0.54445 0.84354 0.96703 0.0
C639 C 0.54123 0.86167 0.99228 0.0
C640 C 0.54169 0.86285 0.04601 0.0
H641 H 0.52005 0.97416 0.85031 0.0
H642 H 0.52433 0.9487 0.91306 0.0
C643 C 0.54582 0.84619 0.07369 0.0
C644 C 0.53741 0.87913 0.96162 0.0
H645 H 0.55343 0.92109 0.91935 0.0
C646 C 0.52321 0.87976 0.93316 0.0
C647 C 0.54835 0.89434 0.95708 0.0
C648 C 0.56411 0.89417 0.9854 0.0
C649 C 0.51978 0.89498 0.89978 0.0
C650 C 0.531 0.90987 0.89404 0.0
C651 C 0.54489 0.90961 0.92369 0.0
C652 C 0.52888 0.92539 0.85595 0.0
C653 C 0.50417 0.89498 0.87084 0.0
C654 C 0.5304 0.92078 0.8029 0.0
C655 C 0.52801 0.93526 0.76692 0.0
C656 C 0.52407 0.95471 0.78322 0.0
C657 C 0.52296 0.95934 0.83637 0.0
C658 C 0.52542 0.94481 0.87233 0.0
H659 H 0.49448 0.88573 0.88959 0.0
H660 H 0.49788 0.90987 0.86818 0.0
H661 H 0.5083 0.8892 0.83098 0.0
H662 H 0.53339 0.90592 0.7893 0.0
H663 H 0.52904 0.93114 0.72637 0.0
H664 H 0.70373 0.48837 0.19508 0.0
H665 H 0.68226 0.4838 0.13585 0.0
H666 H 0.64979 0.53252 0.2075 0.0
H667 H 0.67092 0.53695 0.26773 0.0
H668 H 0.64459 0.47916 0.15507 0.0
H669 H 0.65964 0.54606 0.05085 0.0
H670 H 0.67398 0.53414 0.09252 0.0
H671 H 0.65478 0.54855 0.11994 0.0
C672 C 0.69186 0.49786 0.1992 0.0
C673 C 0.68923 0.51316 0.23617 0.0
C674 C 0.67963 0.4953 0.16494 0.0
C675 C 0.66454 0.50802 0.16657 0.0
C676 C 0.66148 0.52273 0.20484 0.0
H677 H 0.58507 0.52688 0.95823 0.0
H678 H 0.60291 0.52857 0.02888 0.0
C679 C 0.67363 0.52525 0.23925 0.0
C680 C 0.65235 0.50641 0.12709 0.0
H681 H 0.63693 0.52968 0.02466 0.0
C682 C 0.64291 0.49018 0.12649 0.0
C683 C 0.65009 0.52084 0.08993 0.0
C684 C 0.66022 0.53834 0.08779 0.0
C685 C 0.6311 0.48812 0.09029 0.0
C686 C 0.629 0.50244 0.05255 0.0
C687 C 0.63844 0.5187 0.05342 0.0
C688 C 0.61738 0.50076 0.01127 0.0
C689 C 0.62069 0.47084 0.09377 0.0
C690 C 0.61945 0.48457 0.97747 0.0
C691 C 0.60906 0.48342 0.9374 0.0
C692 C 0.59645 0.49856 0.9294 0.0
C693 C 0.59438 0.51475 0.96344 0.0
C694 C 0.60472 0.51583 0.00374 0.0
H695 H 0.61958 0.46493 0.13334 0.0
H696 H 0.60748 0.47457 0.08311 0.0
H697 H 0.62728 0.45926 0.06684 0.0
H698 H 0.62935 0.47292 0.98138 0.0
H699 H 0.611 0.47062 0.91253 0.0
H700 H 0.01177 0.65368 0.12528 0.0
H701 H 0.01558 0.6303 0.05291 0.0
H702 H 0.97606 0.59811 0.13094 0.0
H703 H 0.97221 0.62138 0.20363 0.0
H704 H 0.02358 0.59006 0.04374 0.0
H705 H 0.95763 0.61168 0.99334 0.0
H706 H 0.96785 0.62554 0.03807 0.0
H707 H 0.95825 0.60395 0.05868 0.0
C708 C 1.00416 0.64139 0.12767 0.0
C709 C 0.99158 0.63952 0.17018 0.0
C710 C 1.00627 0.6281 0.08603 0.0
C711 C 0.99582 0.61271 0.08594 0.0
C712 C 0.98396 0.61015 0.12958 0.0
H713 H 0.00872 0.51425 0.87069 0.0
H714 H 1.00656 0.53577 0.9464 0.0
C715 C 0.98182 0.62344 0.17118 0.0
C716 C 0.99688 0.5998 0.03946 0.0
H717 H 0.97329 0.58501 0.94628 0.0
C718 C 0.01259 0.58895 0.02242 0.0
C719 C 0.98262 0.59861 0.0111 0.0
C720 C 0.96567 0.61068 0.02581 0.0
C721 C 0.01433 0.57668 0.97839 0.0
C722 C 0.99991 0.57503 0.951 0.0
C723 C 0.98429 0.58614 0.96753 0.0
C724 C 1.00078 0.56191 0.905 0.0
C725 C 0.0317 0.56584 0.96105 0.0
C726 C 0.99766 0.56933 0.8567 0.0
C727 C 0.99878 0.55702 0.81317 0.0
C728 C 1.00293 0.537 0.81718 0.0
C729 C 1.00561 0.52959 0.86596 0.0
C730 C 1.0045 0.5419 0.90935 0.0
H731 H 0.04233 0.57246 0.97748 0.0
H732 H 0.03164 0.55074 0.9744 0.0
H733 H 0.03447 0.56542 0.91823 0.0
H734 H 0.99463 0.58472 0.85251 0.0
H735 H 0.9966 0.56323 0.77631 0.0
H736 H 0.06839 0.19143 0.288 0.0
H737 H 0.05251 0.17077 0.34834 0.0
H738 H 0.01381 0.21826 0.39114 0.0
H739 H 0.02929 0.23886 0.33008 0.0
H740 H 0.03896 0.17409 0.45789 0.0
H741 H 0.98828 0.17593 0.32413 0.0
H742 H 0.00941 0.18388 0.30537 0.0
H743 H 0.99362 0.19887 0.34727 0.0
C744 C 0.05666 0.19755 0.31092 0.0
C745 C 0.05 0.21669 0.30388 0.0
C746 C 0.04766 0.18578 0.34548 0.0
C747 C 0.03189 0.19298 0.37333 0.0
C748 C 0.02588 0.21246 0.36943 0.0
H749 H 0.97486 0.11741 0.58541 0.0
H750 H 0.98551 0.14695 0.54842 0.0
C751 C 0.03486 0.22424 0.3349 0.0
C752 C 0.02098 0.17954 0.40218 0.0
H753 H 0.98476 0.15607 0.39617 0.0
C754 C 0.02698 0.17031 0.44501 0.0
C755 C 1.00548 0.17459 0.3846 0.0
C756 C 0.9988 0.18369 0.33763 0.0
C757 C 0.01804 0.15583 0.47016 0.0
C758 C 1.00268 0.15067 0.45206 0.0
C759 C 0.99646 0.16025 0.41005 0.0
C760 C 0.99397 0.13397 0.47277 0.0
C761 C 0.02552 0.14552 0.5143 0.0
C762 C 0.99447 0.11729 0.44159 0.0
C763 C 0.98843 0.10045 0.46248 0.0
C764 C 0.98176 0.10007 0.5149 0.0
C765 C 0.9802 0.11722 0.54509 0.0
C766 C 0.98627 0.13407 0.52412 0.0
H767 H 0.03887 0.14914 0.51803 0.0
H768 H 0.01728 0.14976 0.55104 0.0
H769 H 0.02572 0.12961 0.50896 0.0
H770 H 1.00035 0.11702 0.40176 0.0
H771 H 0.98998 0.08745 0.43837 0.0
H772 H 0.29485 0.97865 0.3989 0.0
H773 H 0.31631 0.96527 0.4532 0.0
H774 H 0.34585 0.01412 0.42058 0.0
H775 H 0.32425 0.0278 0.36765 0.0
H776 H 0.3491 0.95444 0.41206 0.0
H777 H 0.35025 0.00682 0.57225 0.0
H778 H 0.33226 0.00685 0.53466 0.0
H779 H 0.35112 0.01874 0.51149 0.0
C780 C 0.30559 0.98688 0.40492 0.0
C781 C 0.30795 0.00422 0.37885 0.0
C782 C 0.31788 0.97916 0.4357 0.0
C783 C 0.3326 0.98876 0.44127 0.0
C784 C 0.33442 0.00665 0.41775 0.0
H785 H 0.43774 0.95509 0.43277 0.0
H786 H 0.40735 0.96099 0.41925 0.0
C787 C 0.32217 0.01435 0.38701 0.0
C788 C 0.34729 0.97896 0.46466 0.0
H789 H 0.37729 0.98712 0.54533 0.0
C790 C 0.35504 0.96135 0.44214 0.0
C791 C 0.35491 0.9878 0.50435 0.0
C792 C 0.34657 0.006 0.53243 0.0
C793 C 0.3709 0.95313 0.45545 0.0
C794 C 0.37931 0.96295 0.49154 0.0
C795 C 0.37093 0.97974 0.51705 0.0
C796 C 0.39748 0.95726 0.49937 0.0
C797 C 0.37876 0.93432 0.42951 0.0
C798 C 0.402 0.95331 0.54893 0.0
C799 C 0.41938 0.95007 0.55679 0.0
C800 C 0.43251 0.95095 0.51526 0.0
C801 C 0.4279 0.9544 0.46547 0.0
C802 C 0.41055 0.95757 0.45764 0.0
H803 H 0.36864 0.92562 0.4174 0.0
H804 H 0.38739 0.93746 0.39427 0.0
H805 H 0.38652 0.92558 0.45545 0.0
H806 H 0.39209 0.95321 0.58167 0.0
H807 H 0.42256 0.94774 0.59573 0.0
H808 H 0.50228 0.31562 0.424 0.0
H809 H 0.51142 0.34221 0.47352 0.0
H810 H 0.52594 0.37131 0.33191 0.0
H811 H 0.51777 0.34438 0.28208 0.0
H812 H 0.54816 0.37641 0.40409 0.0
H813 H 0.47959 0.39188 0.48903 0.0
H814 H 0.48914 0.36823 0.50197 0.0
H815 H 0.48609 0.37458 0.43672 0.0
C816 C 0.50782 0.32744 0.40334 0.0
C817 C 0.50895 0.32808 0.34912 0.0
C818 C 0.51289 0.34271 0.43171 0.0
C819 C 0.51893 0.35893 0.40638 0.0
C820 C 0.52115 0.359 0.35224 0.0
H821 H 0.50377 0.47459 0.52671 0.0
H822 H 0.50666 0.44553 0.47161 0.0
C823 C 0.51627 0.3437 0.32386 0.0
C824 C 0.52144 0.37661 0.4358 0.0
H825 H 0.4995 0.41205 0.51579 0.0
C826 C 0.53757 0.38421 0.42873 0.0
C827 C 0.50749 0.38687 0.46718 0.0
C828 C 0.48956 0.38011 0.47392 0.0
C829 C 0.54009 0.40194 0.45197 0.0
C830 C 0.52616 0.41207 0.48362 0.0
C831 C 0.51015 0.40427 0.4913 0.0
C832 C 0.52746 0.43104 0.50868 0.0
C833 C 0.55741 0.40993 0.4412 0.0
C834 C 0.53879 0.43291 0.54606 0.0
C835 C 0.53737 0.44973 0.57697 0.0
C836 C 0.52436 0.46464 0.57147 0.0
C837 C 0.51387 0.46326 0.53172 0.0
C838 C 0.51548 0.44666 0.50037 0.0
H839 H 0.56514 0.40306 0.40613 0.0
H840 H 0.55583 0.42581 0.43604 0.0
H841 H 0.56483 0.40705 0.47449 0.0
H842 H 0.5479 0.42092 0.55377 0.0
H843 H 0.54545 0.45037 0.60788 0.0
H844 H 0.18261 0.43186 0.19465 0.0
H845 H 0.15907 0.44444 0.25845 0.0
H846 H 0.19053 0.43106 0.38059 0.0
H847 H 0.21423 0.4174 0.31691 0.0
H848 H 0.14444 0.42919 0.37994 0.0
H849 H 0.17933 0.49535 0.34671 0.0
H850 H 0.17985 0.47775 0.29493 0.0
H851 H 0.19095 0.4718 0.3498 0.0
C852 C 0.18441 0.43056 0.23505 0.0
C853 C 0.20056 0.42388 0.25037 0.0
C854 C 0.17088 0.43793 0.27153 0.0
C855 C 0.17323 0.43886 0.32384 0.0
C856 C 0.18859 0.43047 0.34014 0.0
H857 H 0.11295 0.52729 0.52853 0.0
H858 H 0.13631 0.50396 0.48942 0.0
C859 C 0.20213 0.42283 0.30362 0.0
C860 C 0.16094 0.45164 0.35889 0.0
H861 H 0.15153 0.49933 0.3925 0.0
C862 C 0.14603 0.44447 0.38354 0.0
C863 C 0.16323 0.4715 0.3634 0.0
C864 C 0.17919 0.47971 0.3375 0.0
C865 C 0.133 0.4569 0.41168 0.0
C866 C 0.13482 0.477 0.41363 0.0
C867 C 0.15011 0.48396 0.39068 0.0
C868 C 0.12074 0.49121 0.43708 0.0
C869 C 0.1174 0.44838 0.43882 0.0
C870 C 0.10445 0.49223 0.41932 0.0
C871 C 0.09106 0.50539 0.44183 0.0
C872 C 0.09378 0.51804 0.48205 0.0
C873 C 0.11037 0.51759 0.4981 0.0
C874 C 0.12372 0.50428 0.4758 0.0
H875 H 0.12053 0.433 0.44821 0.0
H876 H 0.11229 0.45656 0.47511 0.0
H877 H 0.10708 0.44891 0.41296 0.0
H878 H 0.10201 0.48269 0.38834 0.0
H879 H 0.07842 0.50511 0.42894 0.0
H880 H 0.97203 0.7757 0.06671 0.0
H881 H 0.98246 0.80137 0.01205 0.0
H882 H 0.94212 0.84187 0.08822 0.0
H883 H 0.93134 0.81611 0.14296 0.0
H884 H 0.96781 0.83122 0.94613 0.0
H885 H 0.98932 0.85886 0.12718 0.0
H886 H 0.98234 0.83496 0.12143 0.0
H887 H 0.96668 0.85565 0.12976 0.0
C888 C 0.96488 0.78985 0.07055 0.0
C889 C 0.95097 0.79393 0.10974 0.0
C890 C 0.97095 0.80454 0.03938 0.0
C891 C 0.96325 0.82351 0.04695 0.0
C892 C 0.94836 0.82731 0.08247 0.0
H893 H 0.99405 0.92603 0.88873 0.0
H894 H 0.97834 0.8995 0.92453 0.0
C895 C 0.94224 0.8126 0.11368 0.0
C896 C 0.97222 0.83952 0.02298 0.0
H897 H 0.99562 0.87648 0.05183 0.0
C898 C 0.9738 0.84122 0.9691 0.0
C899 C 0.98035 0.85218 0.05321 0.0
C900 C 0.97977 0.85032 0.11107 0.0
C901 C 0.98317 0.85554 0.94462 0.0
C902 C 0.99099 0.86843 0.97503 0.0
C903 C 0.98953 0.86658 0.0288 0.0
C904 C 1.00066 0.8841 0.95202 0.0
C905 C 0.98495 0.85654 0.88645 0.0
C906 C 0.01834 0.88437 0.95666 0.0
C907 C 0.02734 0.89963 0.93671 0.0
C908 C 0.01872 0.91494 0.91242 0.0
C909 C 1.00099 0.91459 0.90798 0.0
C910 C 0.99204 0.89933 0.92773 0.0
H911 H 0.9817 0.843 0.86828 0.0
H912 H 0.976 0.86864 0.87512 0.0
H913 H 0.99831 0.85931 0.87083 0.0
H914 H 0.02514 0.87278 0.97576 0.0
H915 H 0.04096 0.89958 0.94084 0.0
H916 H 0.70417 0.97347 0.01819 0.0
H917 H 0.67986 0.98493 0.97199 0.0
H918 H 0.69534 0.04289 0.97616 0.0
H919 H 0.71953 0.03159 0.02312 0.0
H920 H 0.66102 0.03921 0.01895 0.0
H921 H 0.67534 0.00409 0.82444 0.0
H922 H 0.67801 0.9878 0.87652 0.0
H923 H 0.69186 0.00702 0.86619 0.0
C924 C 0.70256 0.98859 0.00837 0.0
C925 C 0.71368 0.00166 0.02434 0.0
C926 C 0.68878 0.99508 0.98163 0.0
C927 C 0.68593 0.01471 0.97036 0.0
C928 C 0.69745 0.02765 0.98421 0.0
H929 H 0.59784 0.05688 0.81096 0.0
H930 H 0.62683 0.05317 0.83856 0.0
C931 C 0.71129 0.02116 0.01073 0.0
C932 C 0.66981 0.022 0.94992 0.0
H933 H 0.64581 0.01606 0.85076 0.0
C934 C 0.65779 0.03442 0.98181 0.0
C935 C 0.66571 0.01577 0.9014 0.0
C936 C 0.67847 0.00308 0.86488 0.0
C937 C 0.6414 0.04007 0.96743 0.0
C938 C 0.63697 0.03299 0.92021 0.0
C939 C 0.64927 0.02133 0.88717 0.0
C940 C 0.6193 0.03657 0.9058 0.0
C941 C 0.62885 0.05329 0.00321 0.0
C942 C 0.60555 0.02853 0.93477 0.0
C943 C 0.58904 0.03061 0.91918 0.0
C944 C 0.58603 0.04079 0.87437 0.0
C945 C 0.59976 0.0492 0.84607 0.0
C946 C 0.61631 0.047 0.86152 0.0
H947 H 0.63557 0.0613 0.03079 0.0
H948 H 0.62133 0.06387 0.98098 0.0
H949 H 0.61961 0.04454 0.02593 0.0
H950 H 0.60771 0.02021 0.96871 0.0
H951 H 0.57867 0.02403 0.94172 0.0
H952 H 0.58226 0.66603 0.91464 0.0
H953 H 0.56915 0.64045 0.87161 0.0
H954 H 0.55382 0.61609 0.01935 0.0
H955 H 0.56629 0.64171 0.06282 0.0
H956 H 0.57197 0.59087 0.90768 0.0
H957 H 0.51047 0.63904 0.91966 0.0
H958 H 0.53117 0.6487 0.90673 0.0
H959 H 0.52451 0.64003 0.96971 0.0
C960 C 0.57629 0.6551 0.93793 0.0
C961 C 0.57529 0.656 0.99223 0.0
C962 C 0.5689 0.64048 0.91327 0.0
C963 C 0.56052 0.62656 0.94256 0.0
C964 C 0.56033 0.62673 0.9963 0.0
H965 H 0.51097 0.5247 0.87333 0.0
H966 H 0.52484 0.54979 0.91513 0.0
C967 C 0.56762 0.64133 0.02097 0.0
C968 C 0.55056 0.61282 0.91799 0.0
H969 H 0.51002 0.60733 0.88772 0.0
C970 C 0.55846 0.59441 0.90293 0.0
C971 C 0.533 0.61768 0.91198 0.0
C972 C 0.52415 0.63742 0.92774 0.0
C973 C 0.54913 0.58054 0.88197 0.0
C974 C 0.53134 0.58519 0.87738 0.0
C975 C 0.52358 0.60377 0.89174 0.0
C976 C 0.52069 0.57106 0.85674 0.0
C977 C 0.55848 0.56118 0.86435 0.0
C978 C 0.51257 0.57526 0.81241 0.0
C979 C 0.50426 0.56111 0.78916 0.0
C980 C 0.50407 0.54252 0.80981 0.0
C981 C 0.51102 0.53888 0.85646 0.0
C982 C 0.51914 0.55309 0.87997 0.0
H983 H 0.57268 0.56196 0.85663 0.0
H984 H 0.55613 0.55056 0.89525 0.0
H985 H 0.5538 0.55572 0.82878 0.0
H986 H 0.51345 0.58914 0.79425 0.0
H987 H 0.49913 0.56431 0.75304 0.0
H988 H 0.80618 0.56556 0.04813 0.0
H989 H 0.8268 0.55243 0.97515 0.0
H990 H 0.86226 0.53154 0.08105 0.0
H991 H 0.84179 0.5439 0.15373 0.0
H992 H 0.87768 0.54817 0.98586 0.0
H993 H 0.83323 0.49162 0.9572 0.0
H994 H 0.82475 0.5166 0.95715 0.0
H995 H 0.83102 0.5063 0.01566 0.0
C996 C 0.81847 0.55841 0.05582 0.0
C997 C 0.8222 0.55562 0.10696 0.0
C998 C 0.83022 0.55097 0.01411 0.0
C999 C 0.84586 0.54079 0.02302 0.0
C1000 C 0.85021 0.53937 0.07353 0.0
H1001 H 0.9182 0.44949 0.90726 0.0
H1002 H 0.89306 0.47034 0.94696 0.0
C1003 C 0.83849 0.54663 0.11511 0.0
C1004 C 0.85714 0.5299 0.98111 0.0
H1005 H 0.86103 0.48746 0.91137 0.0
C1006 C 0.87398 0.53512 0.96857 0.0
C1007 C 0.85223 0.51275 0.95952 0.0
C1008 C 0.83437 0.50631 0.97303 0.0
C1009 C 0.88632 0.52322 0.93641 0.0
C1010 C 0.88154 0.50578 0.91599 0.0
C1011 C 0.86453 0.50091 0.92698 0.0
C1012 C 0.89455 0.49169 0.8872 0.0
C1013 C 0.9046 0.52884 0.9269 0.0
C1014 C 0.90313 0.49642 0.83947 0.0
C1015 C 0.91753 0.48467 0.81705 0.0
C1016 C 0.92354 0.46789 0.84177 0.0
C1017 C 0.91404 0.46242 0.8876 0.0
C1018 C 0.89964 0.47425 0.91015 0.0
H1019 H 0.90678 0.54106 0.95251 0.0
H1020 H 0.91401 0.51636 0.93304 0.0
H1021 H 0.9073 0.5333 0.88622 0.0
H1022 H 0.89925 0.50974 0.82099 0.0
H1023 H 0.92463 0.48952 0.78224 0.0
H1024 H 0.0649 0.20479 0.83758 0.0
H1025 H 0.05944 0.17391 0.79922 0.0
H1026 H 0.01107 0.17492 0.89786 0.0
H1027 H 0.01657 0.20562 0.93702 0.0
H1028 H 0.03278 0.14039 0.90156 0.0
H1029 H 0.02516 0.1598 0.6989 0.0
H1030 H 0.04416 0.16758 0.72247 0.0
H1031 H 0.02315 0.17765 0.75083 0.0
C1032 C 0.05298 0.19858 0.85062 0.0
C1033 C 0.04117 0.20774 0.8904 0.0
C1034 C 0.04982 0.18097 0.82839 0.0
C1035 C 0.03479 0.17213 0.84538 0.0
C1036 C 0.02272 0.18151 0.88393 0.0
H1037 H 0.99739 0.06865 0.7229 0.0
H1038 H 1.00114 0.10148 0.75141 0.0
C1039 C 0.02582 0.19917 0.90598 0.0
C1040 C 0.03228 0.15245 0.82597 0.0
H1041 H 0.02784 0.12627 0.71707 0.0
C1042 C 0.03165 0.13732 0.86125 0.0
C1043 C 0.0307 0.14845 0.77343 0.0
C1044 C 0.03067 0.16423 0.73417 0.0
C1045 C 0.02974 0.1183 0.84532 0.0
C1046 C 0.02858 0.11421 0.79258 0.0
C1047 C 0.02891 0.12938 0.7574 0.0
C1048 C 0.02669 0.09431 0.77356 0.0
C1049 C 0.02875 0.10275 0.88521 0.0
C1050 C 0.03993 0.07936 0.77579 0.0
C1051 C 0.03789 0.06053 0.75916 0.0
C1052 C 0.02254 0.05623 0.73998 0.0
C1053 C 0.0094 0.07134 0.73727 0.0
C1054 C 0.01151 0.09018 0.75358 0.0
H1055 H 0.02603 0.10894 0.92518 0.0
H1056 H 0.01855 0.09319 0.87863 0.0
H1057 H 0.0413 0.09373 0.88202 0.0
H1058 H 0.05185 0.08226 0.79045 0.0
H1059 H 0.04831 0.04932 0.76168 0.0
H1060 H 0.31215 0.01898 0.88977 0.0
H1061 H 0.34016 0.01822 0.83537 0.0
H1062 H 0.36609 0.99677 0.96322 0.0
H1063 H 0.33838 0.99718 0.01697 0.0
H1064 H 0.36889 0.03627 0.84289 0.0
H1065 H 0.38589 0.9576 0.85288 0.0
H1066 H 0.36449 0.96875 0.87459 0.0
H1067 H 0.38134 0.96857 0.91621 0.0
C1068 C 0.32384 0.01404 0.9061 0.0
C1069 C 0.32296 0.00777 0.95743 0.0
C1070 C 0.33984 0.01359 0.87499 0.0
C1071 C 0.35527 0.00694 0.89467 0.0
C1072 C 0.3544 0.0013 0.94639 0.0
H1073 H 0.46096 0.02876 0.78631 0.0
H1074 H 0.43092 0.03037 0.82596 0.0
C1075 C 0.33848 0.00157 0.97719 0.0
C1076 C 0.37237 0.00621 0.86199 0.0
H1077 H 0.40924 0.97659 0.82532 0.0
C1078 C 0.37764 0.02316 0.83859 0.0
C1079 C 0.38375 0.98905 0.8553 0.0
C1080 C 0.37851 0.96993 0.87561 0.0
C1081 C 0.39414 0.02359 0.81049 0.0
C1082 C 0.40594 0.00673 0.80678 0.0
C1083 C 0.4004 0.98963 0.82862 0.0
C1084 C 0.4241 0.00641 0.78093 0.0
C1085 C 0.39862 0.04208 0.78456 0.0
C1086 C 0.4306 0.9921 0.74323 0.0
C1087 C 0.44791 0.9909 0.72126 0.0
C1088 C 0.45918 0.00405 0.73621 0.0
C1089 C 0.45263 0.01852 0.77344 0.0
C1090 C 0.43535 0.01955 0.79592 0.0
H1091 H 0.38682 0.05103 0.7761 0.0
H1092 H 0.4053 0.05069 0.81084 0.0
H1093 H 0.40728 0.03912 0.74785 0.0
H1094 H 0.42228 0.98173 0.73096 0.0
H1095 H 0.45247 0.9796 0.69258 0.0
H1096 H 0.49667 0.30891 0.96968 0.0
H1097 H 0.50017 0.33787 0.91891 0.0
H1098 H 0.44495 0.34721 0.91862 0.0
H1099 H 0.44128 0.318 0.96901 0.0
H1100 H 0.48961 0.34991 0.82222 0.0
H1101 H 0.45775 0.3972 0.98641 0.0
H1102 H 0.46492 0.37209 0.9943 0.0
H1103 H 0.44541 0.37854 0.96595 0.0
C1104 C 0.48525 0.31676 0.95773 0.0
C1105 C 0.46866 0.3111 0.97377 0.0
C1106 C 0.48729 0.33345 0.92901 0.0
C1107 C 0.47281 0.34492 0.91589 0.0
C1108 C 0.45629 0.3388 0.92931 0.0
H1109 H 0.46747 0.46018 0.78092 0.0
H1110 H 0.46003 0.42938 0.81827 0.0
C1111 C 0.45422 0.32207 0.95802 0.0
C1112 C 0.47509 0.36366 0.89025 0.0
H1113 H 0.46749 0.41259 0.90986 0.0
C1114 C 0.48471 0.36362 0.84124 0.0
C1115 C 0.46866 0.38154 0.91511 0.0
C1116 C 0.45872 0.38249 0.96851 0.0
C1117 C 0.48812 0.38097 0.81649 0.0
C1118 C 0.48208 0.39885 0.84195 0.0
C1119 C 0.47213 0.39889 0.89044 0.0
C1120 C 0.48655 0.41765 0.81982 0.0
C1121 C 0.49806 0.37995 0.76311 0.0
C1122 C 0.5039 0.4215 0.80945 0.0
C1123 C 0.5082 0.43904 0.78816 0.0
C1124 C 0.49523 0.45327 0.77715 0.0
C1125 C 0.47781 0.44958 0.78885 0.0
C1126 C 0.47352 0.43196 0.81011 0.0
H1127 H 0.49714 0.36593 0.74314 0.0
H1128 H 0.49327 0.39184 0.73888 0.0
H1129 H 0.51191 0.38133 0.76636 0.0
H1130 H 0.51417 0.4109 0.81788 0.0
H1131 H 0.52175 0.44137 0.78007 0.0
H1132 H 0.18857 0.44688 0.90499 0.0
H1133 H 0.16147 0.44999 0.86693 0.0
H1134 H 0.16931 0.50896 0.82854 0.0
H1135 H 0.19689 0.50578 0.86521 0.0
H1136 H 0.13248 0.47479 0.89574 0.0
H1137 H 0.15783 0.48708 0.69193 0.0
H1138 H 0.17161 0.47821 0.73906 0.0
H1139 H 0.16435 0.50349 0.7381 0.0
C1140 C 0.1848 0.46043 0.8875 0.0
C1141 C 0.19518 0.476 0.88767 0.0
C1142 C 0.16915 0.46223 0.86613 0.0
C1143 C 0.16338 0.47961 0.84409 0.0
C1144 C 0.1736 0.49526 0.84433 0.0
H1145 H 0.06982 0.51859 0.70975 0.0
H1146 H 0.09807 0.51505 0.74124 0.0
C1147 C 0.18932 0.49348 0.86584 0.0
C1148 C 0.14638 0.48139 0.82278 0.0
H1149 H 0.12735 0.49049 0.7127 0.0
C1150 C 0.13138 0.47815 0.85565 0.0
C1151 C 0.14487 0.4858 0.77047 0.0
C1152 C 0.16052 0.48869 0.73262 0.0
C1153 C 0.11498 0.47948 0.83802 0.0
C1154 C 0.11347 0.4838 0.78564 0.0
C1155 C 0.12846 0.48711 0.75277 0.0
C1156 C 0.09642 0.48545 0.76462 0.0
C1157 C 0.09935 0.47676 0.87612 0.0
C1158 C 0.0861 0.46985 0.76606 0.0
C1159 C 0.06982 0.47183 0.74797 0.0
C1160 C 0.06352 0.48942 0.72772 0.0
C1161 C 0.07413 0.50481 0.72507 0.0
C1162 C 0.09036 0.50282 0.74312 0.0
H1163 H 0.10205 0.47863 0.91671 0.0
H1164 H 0.08822 0.48714 0.86937 0.0
H1165 H 0.09556 0.46189 0.87135 0.0
H1166 H 0.09061 0.45614 0.78136 0.0
H1167 H 0.0621 0.45962 0.75043 0.0
H1168 H 0.01428 0.79775 0.42956 0.0
H1169 H 0.01923 0.82819 0.47091 0.0
H1170 H 0.9792 0.81942 0.59467 0.0
H1171 H 0.97419 0.78891 0.55354 0.0
H1172 H 0.97452 0.85491 0.55256 0.0
H1173 H 0.04206 0.84176 0.59714 0.0
H1174 H 0.03971 0.83644 0.53088 0.0
H1175 H 0.02952 0.82242 0.58129 0.0
C1176 C 1.00688 0.80198 0.46636 0.0
C1177 C 0.99383 0.79084 0.48817 0.0
C1178 C 0.00971 0.81946 0.48998 0.0
C1179 C 0.99968 0.82609 0.53617 0.0
C1180 C 0.9871 0.81463 0.55904 0.0
H1181 H 0.01568 0.92917 0.71502 0.0
H1182 H 0.01278 0.89605 0.68644 0.0
C1183 C 0.98424 0.79719 0.53544 0.0
C1184 C 1.00126 0.84567 0.55821 0.0
H1185 H 0.02991 0.87468 0.60119 0.0
C1186 C 0.98661 0.85916 0.56354 0.0
C1187 C 0.01698 0.85123 0.57306 0.0
C1188 C 0.03293 0.83716 0.57083 0.0
C1189 C 0.98734 0.87813 0.58206 0.0
C1190 C 1.00323 0.88393 0.59483 0.0
C1191 C 0.01778 0.87031 0.59084 0.0
C1192 C 1.005 0.9041 0.61209 0.0
C1193 C 0.97101 0.89173 0.58822 0.0
C1194 C 1.00176 0.91968 0.57963 0.0
C1195 C 1.00336 0.93865 0.59586 0.0
C1196 C 0.00834 0.94249 0.64488 0.0
C1197 C 0.01174 0.92681 0.67712 0.0
C1198 C 0.01014 0.90783 0.66081 0.0
H1199 H 0.95927 0.88376 0.59066 0.0
H1200 H 0.97028 0.90109 0.6234 0.0
H1201 H 0.97093 0.90116 0.55417 0.0
H1202 H 0.99811 0.91715 0.54146 0.0
H1203 H 1.00076 0.9503 0.56981 0.0
H1204 H 0.69872 0.01166 0.40662 0.0
H1205 H 0.66976 0.01343 0.45402 0.0
H1206 H 0.68123 0.95682 0.51457 0.0
H1207 H 0.71016 0.95479 0.46595 0.0
H1208 H 0.65111 0.95864 0.48042 0.0
H1209 H 0.65183 0.02421 0.60179 0.0
H1210 H 0.65701 0.02908 0.53465 0.0
H1211 H 0.67122 0.01246 0.56618 0.0
C1212 C 0.69525 -0.00024 0.43099 0.0
C1213 C 0.70686 0.98313 0.43275 0.0
C1214 C 0.67863 0.00081 0.45826 0.0
C1215 C 0.67327 0.98541 0.48883 0.0
C1216 C 0.68499 0.96895 0.49148 0.0
H1217 H 0.57479 0.99581 0.69253 0.0
H1218 H 0.60545 0.99293 0.65815 0.0
C1219 C 0.70156 0.96779 0.4637 0.0
C1220 C 0.65512 0.98594 0.51499 0.0
H1221 H 0.62386 0.01384 0.59273 0.0
C1222 C 0.64524 0.97065 0.50538 0.0
C1223 C 0.64739 0.00141 0.54835 0.0
C1224 C 0.65748 0.0176 0.56381 0.0
C1225 C 0.62786 0.97062 0.52683 0.0
C1226 C 0.61983 0.98665 0.55763 0.0
C1227 C 0.62984 0.00168 0.56853 0.0
C1228 C 0.60109 0.98815 0.57865 0.0
C1229 C 0.61842 0.95321 0.51683 0.0
C1230 C 0.58827 0.98669 0.54559 0.0
C1231 C 0.57073 0.98809 0.56525 0.0
C1232 C 0.56549 0.99137 0.61843 0.0
C1233 C 0.57831 0.99321 0.6514 0.0
C1234 C 0.59589 0.9916 0.63174 0.0
H1235 H 0.62755 0.94006 0.50802 0.0
H1236 H 0.609 0.95031 0.55053 0.0
H1237 H 0.61129 0.95586 0.48282 0.0
H1238 H 0.59181 0.98464 0.50431 0.0
H1239 H 0.56125 0.98685 0.53855 0.0
H1240 H 0.52363 0.68255 0.34532 0.0
H1241 H 0.51647 0.65465 0.39725 0.0
H1242 H 0.55992 0.66108 0.48152 0.0
H1243 H 0.56694 0.68928 0.43055 0.0
H1244 H 0.53877 0.62077 0.39963 0.0
H1245 H 0.52096 0.65293 0.59681 0.0
H1246 H 0.52156 0.66727 0.53938 0.0
H1247 H 0.54127 0.65924 0.56506 0.0
C1248 C 0.53136 0.67842 0.37595 0.0
C1249 C 0.54584 0.68823 0.38385 0.0
C1250 C 0.52734 0.66233 0.40529 0.0
C1251 C 0.53758 0.65582 0.4435 0.0
C1252 C 0.55167 0.66599 0.45279 0.0
H1253 H 0.54237 0.55623 0.64137 0.0
H1254 H 0.54734 0.58581 0.59428 0.0
C1255 C 0.55574 0.68204 0.42336 0.0
C1256 C 0.53436 0.63756 0.47071 0.0
H1257 H 0.52518 0.61863 0.59015 0.0
C1258 C 0.53567 0.62031 0.44126 0.0
C1259 C 0.53045 0.63696 0.52504 0.0
C1260 C 0.52832 0.6551 0.5585 0.0
C1261 C 0.53352 0.60243 0.46469 0.0
C1262 C 0.52958 0.60181 0.51906 0.0
C1263 C 0.52822 0.61909 0.5485 0.0
C1264 C 0.52685 0.5834 0.54621 0.0
C1265 C 0.53599 0.58431 0.43108 0.0
C1266 C 0.51367 0.57215 0.53494 0.0
C1267 C 0.51086 0.55512 0.56158 0.0
C1268 C 0.52107 0.54906 0.60048 0.0
C1269 C 0.5343 0.56036 0.61154 0.0
C1270 C 0.53713 0.57734 0.58477 0.0
H1271 H 0.54359 0.58655 0.3932 0.0
H1272 H 0.54265 0.57214 0.45044 0.0
H1273 H 0.52315 0.58011 0.42347 0.0
H1274 H 0.50533 0.57672 0.50616 0.0
H1275 H 0.50045 0.54693 0.55232 0.0
H1276 H 0.84012 0.49498 0.44589 0.0
H1277 H 0.86738 0.49197 0.48363 0.0
H1278 H 0.84597 0.534 0.6025 0.0
H1279 H 0.81869 0.53719 0.56463 0.0
H1280 H 0.87709 0.54254 0.56105 0.0
H1281 H 0.88189 0.46508 0.60938 0.0
H1282 H 0.87917 0.46878 0.54271 0.0
H1283 H 0.8622 0.47765 0.59236 0.0
C1284 C 0.84104 0.50325 0.48079 0.0
C1285 C 0.8271 0.51629 0.50221 0.0
C1286 C 0.8567 0.50152 0.50242 0.0
C1287 C 0.85879 0.51257 0.54646 0.0
C1288 C 0.84477 0.52528 0.56859 0.0
H1289 H 0.94899 0.49506 0.71805 0.0
H1290 H 0.91981 0.49708 0.69168 0.0
C1291 C 0.82914 0.5271 0.54682 0.0
C1292 C 0.87586 0.51181 0.56748 0.0
H1293 H 0.9077 0.48106 0.60991 0.0
C1294 C 0.8837 0.52909 0.57204 0.0
C1295 C 0.8845 0.49435 0.58266 0.0
C1296 C 0.87644 0.47545 0.58208 0.0
C1297 C 0.89998 0.52934 0.58998 0.0
C1298 C 0.90899 0.51175 0.60275 0.0
C1299 C 0.90097 0.49453 0.59954 0.0
C1300 C 0.92675 0.5109 0.61924 0.0
C1301 C 0.90722 0.54854 0.59582 0.0
C1302 C 0.94051 0.51782 0.58727 0.0
C1303 C 0.9572 0.51675 0.60236 0.0
C1304 C 0.96063 0.50854 0.64967 0.0
C1305 C 0.94684 0.50154 0.68153 0.0
C1306 C 0.93014 0.50265 0.66643 0.0
H1307 H 0.89683 0.56067 0.6 0.0
H1308 H 0.91449 0.54882 0.6299 0.0
H1309 H 0.91617 0.55105 0.56075 0.0
H1310 H 0.93842 0.52381 0.5501 0.0
H1311 H 0.96746 0.52211 0.57644 0.0
loop_
_geom_bond_atom_site_label_1
_geom_bond_atom_site_label_2
_geom_bond_distance
_geom_bond_site_symmetry_2
_ccdc_geom_bond_type
C0 C1 1.384 . S
C0 H13 0.947 . S
C0 C35 1.382 . S
C1 C0 1.384 . S
C1 C2 1.378 . S
C2 C1 1.378 . S
C2 C3 1.378 . S
C2 H14 0.952 . S
C3 C2 1.378 . S
C3 H15 0.950 . S
C3 C34 1.383 . S
H4 C23 0.947 . S
H5 C24 0.946 . S
H6 C26 0.953 . S
H7 C27 0.945 . S
H8 C29 0.952 . S
H9 C30 0.949 . S
H10 C32 0.950 . S
H11 C33 0.948 . S
H12 C35 0.951 . S
H13 C0 0.947 . S
H14 C2 0.952 . S
H15 C3 0.950 . S
N16 C19 1.382 . S
N16 C21 1.363 . S
N17 C19 1.371 . S
N17 C20 1.372 . S
N18 C20 1.361 . S
N18 C21 1.377 . S
C19 N16 1.382 . S
C19 N17 1.371 . S
C19 C22 1.480 . S
C20 N17 1.372 . S
C20 N18 1.361 . S
C20 C28 1.457 . S
C21 N16 1.363 . S
C21 N18 1.377 . S
C21 C34 1.479 . S
C22 C19 1.480 . S
C22 C23 1.383 . S
C22 C27 1.385 . S
C23 H4 0.947 . S
C23 C22 1.383 . S
C23 C24 1.388 . S
C24 H5 0.946 . S
C24 C23 1.388 . S
C24 C25 1.384 . S
C25 C24 1.384 . S
C25 C26 1.377 . S
C26 H6 0.953 . S
C26 C25 1.377 . S
C26 C27 1.369 . S
C27 H7 0.945 . S
C27 C22 1.385 . S
C27 C26 1.369 . S
C28 C20 1.457 . S
C28 C29 1.372 . S
C28 C33 1.364 . S
C29 H8 0.952 . S
C29 C28 1.372 . S
C29 C30 1.389 . S
C30 H9 0.949 . S
C30 C29 1.389 . S
C30 C31 1.387 . S
C31 C30 1.387 . S
C31 C32 1.372 . S
C32 H10 0.950 . S
C32 C31 1.372 . S
C32 C33 1.379 . S
C33 H11 0.948 . S
C33 C28 1.364 . S
C33 C32 1.379 . S
C34 C3 1.383 . S
C34 C21 1.479 . S
C34 C35 1.398 . S
C35 C0 1.382 . S
C35 H12 0.951 . S
C35 C34 1.398 . S
C36 C37 1.384 . S
C36 H49 0.947 . S
C36 C71 1.382 . S
C37 C36 1.384 . S
C37 C38 1.378 . S
C38 C37 1.378 . S
C38 C39 1.378 . S
C38 H50 0.952 . S
C39 C38 1.378 . S
C39 H51 0.950 . S
C39 C70 1.383 . S
H40 C59 0.947 . S
H41 C60 0.946 . S
H42 C62 0.953 . S
H43 C63 0.945 . S
H44 C65 0.952 . S
H45 C66 0.949 . S
H46 C68 0.950 . S
H47 C69 0.948 . S
H48 C71 0.951 . S
H49 C36 0.947 . S
H50 C38 0.952 . S
H51 C39 0.950 . S
N52 C55 1.382 . S
N52 C57 1.363 . S
N53 C55 1.371 . S
N53 C56 1.372 . S
N54 C56 1.361 . S
N54 C57 1.377 . S
C55 N52 1.382 . S
C55 N53 1.371 . S
C55 C58 1.480 . S
C56 N53 1.372 . S
C56 N54 1.361 . S
C56 C64 1.457 . S
C57 N52 1.363 . S
C57 N54 1.377 . S
C57 C70 1.479 . S
C58 C55 1.480 . S
C58 C59 1.383 . S
C58 C63 1.385 . S
C59 H40 0.947 . S
C59 C58 1.383 . S
C59 C60 1.388 . S
C60 H41 0.946 . S
C60 C59 1.388 . S
C60 C61 1.384 . S
C61 C60 1.384 . S
C61 C62 1.377 . S
C62 H42 0.953 . S
C62 C61 1.377 . S
C62 C63 1.369 . S
C63 H43 0.945 . S
C63 C58 1.385 . S
C63 C62 1.369 . S
C64 C56 1.457 . S
C64 C65 1.372 . S
C64 C69 1.364 . S
C65 H44 0.952 . S
C65 C64 1.372 . S
C65 C66 1.389 . S
C66 H45 0.949 . S
C66 C65 1.389 . S
C66 C67 1.387 . S
C67 C66 1.387 . S
C67 C68 1.372 . S
C68 H46 0.950 . S
C68 C67 1.372 . S
C68 C69 1.379 . S
C69 H47 0.948 . S
C69 C64 1.364 . S
C69 C68 1.379 . S
C70 C39 1.383 . S
C70 C57 1.479 . S
C70 C71 1.398 . S
C71 C36 1.382 . S
C71 H48 0.951 . S
C71 C70 1.398 . S
C72 C73 1.383 1_565 S
C72 H85 0.948 . S
C72 C107 1.382 1_565 S
C73 C72 1.383 1_545 S
C73 C74 1.378 . S
C74 C73 1.378 . S
C74 C75 1.378 . S
C74 H86 0.952 . S
C75 C74 1.378 . S
C75 H87 0.950 . S
C75 C106 1.383 . S
H76 C95 0.947 . S
H77 C96 0.950 . S
H78 C98 0.953 . S
H79 C99 0.945 . S
H80 C101 0.951 1_565 S
H81 C102 0.955 . S
H82 C104 0.950 . S
H83 C105 0.948 . S
H84 C107 0.952 1_565 S
H85 C72 0.948 . S
H86 C74 0.952 . S
H87 C75 0.950 . S
N88 C91 1.382 . S
N88 C93 1.363 . S
N89 C91 1.371 . S
N89 C92 1.372 . S
N90 C92 1.361 . S
N90 C93 1.377 . S
C91 N88 1.382 . S
C91 N89 1.371 . S
C91 C94 1.480 . S
C92 N89 1.372 . S
C92 N90 1.361 . S
C92 C100 1.457 . S
C93 N88 1.363 . S
C93 N90 1.377 . S
C93 C106 1.479 . S
C94 C91 1.480 . S
C94 C95 1.383 . S
C94 C99 1.385 . S
C95 H76 0.947 . S
C95 C94 1.383 . S
C95 C96 1.388 1_545 S
C96 H77 0.950 . S
C96 C95 1.388 1_565 S
C96 C97 1.380 1_565 S
C97 C96 1.380 1_545 S
C97 C98 1.377 . S
C98 H78 0.953 . S
C98 C97 1.377 . S
C98 C99 1.369 . S
C99 H79 0.945 . S
C99 C94 1.385 . S
C99 C98 1.369 . S
C100 C92 1.457 . S
C100 C101 1.375 . S
C100 C105 1.364 . S
C101 H80 0.951 1_545 S
C101 C100 1.375 . S
C101 C102 1.383 1_545 S
C102 H81 0.955 . S
C102 C101 1.383 1_565 S
C102 C103 1.386 1_565 S
C103 C102 1.386 1_545 S
C103 C104 1.372 . S
C104 H82 0.950 . S
C104 C103 1.372 . S
C104 C105 1.379 . S
C105 H83 0.948 . S
C105 C100 1.364 . S
C105 C104 1.379 . S
C106 C75 1.383 . S
C106 C93 1.479 . S
C106 C107 1.397 . S
C107 C72 1.382 1_545 S
C107 H84 0.952 1_545 S
C107 C106 1.397 . S
C108 C109 1.384 . S
C108 H121 0.947 . S
C108 C143 1.382 1_556 S
C109 C108 1.384 . S
C109 C110 1.378 . S
C110 C109 1.378 . S
C110 C111 1.378 . S
C110 H122 0.952 . S
C111 C110 1.378 . S
C111 H123 0.950 . S
C111 C142 1.383 . S
H112 C131 0.947 . S
H113 C132 0.946 . S
H114 C134 0.953 . S
H115 C135 0.945 . S
H116 C137 0.952 . S
H117 C138 0.949 . S
H118 C140 0.950 . S
H119 C141 0.948 . S
H120 C143 0.951 . S
H121 C108 0.947 . S
H122 C110 0.952 . S
H123 C111 0.950 . S
N124 C127 1.382 . S
N124 C129 1.363 . S
N125 C127 1.371 . S
N125 C128 1.372 . S
N126 C128 1.361 . S
N126 C129 1.377 . S
C127 N124 1.382 . S
C127 N125 1.371 . S
C127 C130 1.480 . S
C128 N125 1.372 . S
C128 N126 1.361 . S
C128 C136 1.457 . S
C129 N124 1.363 . S
C129 N126 1.377 . S
C129 C142 1.479 1_554 S
C130 C127 1.480 . S
C130 C131 1.383 1_554 S
C130 C135 1.385 . S
C131 H112 0.947 . S
C131 C130 1.383 1_556 S
C131 C132 1.388 . S
C132 H113 0.946 . S
C132 C131 1.388 . S
C132 C133 1.384 1_556 S
C133 C132 1.384 1_554 S
C133 C134 1.377 . S
C134 H114 0.953 . S
C134 C133 1.377 . S
C134 C135 1.369 . S
C135 H115 0.945 . S
C135 C130 1.385 . S
C135 C134 1.369 . S
C136 C128 1.457 . S
C136 C137 1.372 . S
C136 C141 1.364 . S
C137 H116 0.952 . S
C137 C136 1.372 . S
C137 C138 1.389 . S
C138 H117 0.949 . S
C138 C137 1.389 . S
C138 C139 1.387 . S
C139 C138 1.387 . S
C139 C140 1.372 . S
C140 H118 0.950 . S
C140 C139 1.372 . S
C140 C141 1.379 . S
C141 H119 0.948 . S
C141 C136 1.364 . S
C141 C140 1.379 . S
C142 C111 1.383 . S
C142 C129 1.479 1_556 S
C142 C143 1.398 1_556 S
C143 C108 1.382 1_554 S
C143 H120 0.951 . S
C143 C142 1.398 1_554 S
C144 C145 1.384 . S
C144 H157 0.947 . S
C144 C179 1.382 . S
C145 C144 1.384 . S
C145 C146 1.378 . S
C146 C145 1.378 . S
C146 C147 1.378 . S
C146 H158 0.952 . S
C147 C146 1.378 . S
C147 H159 0.950 . S
C147 C178 1.383 . S
H148 C167 0.947 . S
H149 C168 0.946 . S
H150 C170 0.953 . S
H151 C171 0.945 . S
H152 C173 0.952 . S
H153 C174 0.949 . S
H154 C176 0.950 . S
H155 C177 0.948 . S
H156 C179 0.951 . S
H157 C144 0.947 . S
H158 C146 0.952 . S
H159 C147 0.950 . S
N160 C163 1.382 1_556 S
N160 C165 1.363 . S
N161 C163 1.371 . S
N161 C164 1.372 . S
N162 C164 1.361 1_556 S
N162 C165 1.377 . S
C163 N160 1.382 1_554 S
C163 N161 1.371 . S
C163 C166 1.480 . S
C164 N161 1.372 . S
C164 N162 1.361 1_554 S
C164 C172 1.457 . S
C165 N160 1.363 . S
C165 N162 1.377 . S
C165 C178 1.479 . S
C166 C163 1.480 . S
C166 C167 1.383 1_554 S
C166 C171 1.385 . S
C167 H148 0.947 . S
C167 C166 1.383 1_556 S
C167 C168 1.388 . S
C168 H149 0.946 . S
C168 C167 1.388 . S
C168 C169 1.384 1_556 S
C169 C168 1.384 1_554 S
C169 C170 1.377 . S
C170 H150 0.953 . S
C170 C169 1.377 . S
C170 C171 1.369 . S
C171 H151 0.945 . S
C171 C166 1.385 . S
C171 C170 1.369 . S
C172 C164 1.457 . S
C172 C173 1.372 . S
C172 C177 1.364 . S
C173 H152 0.952 . S
C173 C172 1.372 . S
C173 C174 1.389 . S
C174 H153 0.949 . S
C174 C173 1.389 . S
C174 C175 1.387 . S
C175 C174 1.387 . S
C175 C176 1.372 . S
C176 H154 0.950 . S
C176 C175 1.372 . S
C176 C177 1.379 . S
C177 H155 0.948 . S
C177 C172 1.364 . S
C177 C176 1.379 . S
C178 C147 1.383 . S
C178 C165 1.479 . S
C178 C179 1.398 . S
C179 C144 1.382 . S
C179 H156 0.951 . S
C179 C178 1.398 . S
C180 C181 1.384 . S
C180 H193 0.947 . S
C180 C215 1.382 . S
C181 C180 1.384 . S
C181 C182 1.378 . S
C182 C181 1.378 . S
C182 C183 1.378 . S
C182 H194 0.952 . S
C183 C182 1.378 . S
C183 H195 0.950 . S
C183 C214 1.383 . S
H184 C203 0.947 . S
H185 C204 0.946 . S
H186 C206 0.953 . S
H187 C207 0.945 . S
H188 C209 0.952 . S
H189 C210 0.949 . S
H190 C212 0.950 . S
H191 C213 0.948 . S
H192 C215 0.951 1_554 S
H193 C180 0.947 . S
H194 C182 0.952 . S
H195 C183 0.950 . S
N196 C199 1.382 . S
N196 C201 1.363 . S
N197 C199 1.371 . S
N197 C200 1.372 . S
N198 C200 1.361 . S
N198 C201 1.377 . S
C199 N196 1.382 . S
C199 N197 1.371 . S
C199 C202 1.480 . S
C200 N197 1.372 . S
C200 N198 1.361 . S
C200 C208 1.457 . S
C201 N196 1.363 . S
C201 N198 1.377 . S
C201 C214 1.479 1_554 S
C202 C199 1.480 . S
C202 C203 1.383 . S
C202 C207 1.385 . S
C203 H184 0.947 . S
C203 C202 1.383 . S
C203 C204 1.388 . S
C204 H185 0.946 . S
C204 C203 1.388 . S
C204 C205 1.384 . S
C205 C204 1.384 . S
C205 C206 1.377 . S
C206 H186 0.953 . S
C206 C205 1.377 . S
C206 C207 1.369 . S
C207 H187 0.945 . S
C207 C202 1.385 . S
C207 C206 1.369 . S
C208 C200 1.457 . S
C208 C209 1.372 . S
C208 C213 1.364 . S
C209 H188 0.952 . S
C209 C208 1.372 . S
C209 C210 1.389 . S
C210 H189 0.949 . S
C210 C209 1.389 . S
C210 C211 1.387 . S
C211 C210 1.387 . S
C211 C212 1.372 . S
C212 H190 0.950 . S
C212 C211 1.372 . S
C212 C213 1.379 . S
C213 H191 0.948 . S
C213 C208 1.364 . S
C213 C212 1.379 . S
C214 C183 1.383 . S
C214 C201 1.479 1_556 S
C214 C215 1.398 . S
C215 C180 1.382 . S
C215 H192 0.951 1_556 S
C215 C214 1.398 . S
C216 C217 1.384 . S
C216 H229 0.947 1_545 S
C216 C251 1.382 1_556 S
C217 C216 1.384 . S
C217 C218 1.378 . S
C218 C217 1.378 . S
C218 C219 1.378 1_556 S
C218 H230 0.952 . S
C219 C218 1.378 1_554 S
C219 H231 0.950 . S
C219 C250 1.383 . S
H220 C239 0.947 . S
H221 C240 0.949 . S
H222 C242 0.953 . S
H223 C243 0.945 . S
H224 C245 0.945 1_565 S
H225 C246 0.955 . S
H226 C248 0.950 . S
H227 C249 0.948 . S
H228 C251 0.951 1_565 S
H229 C216 0.947 1_565 S
H230 C218 0.952 . S
H231 C219 0.950 . S
N232 C235 1.382 . S
N232 C237 1.363 . S
N233 C235 1.371 . S
N233 C236 1.372 . S
N234 C236 1.361 . S
N234 C237 1.377 . S
C235 N232 1.382 . S
C235 N233 1.371 . S
C235 C238 1.480 . S
C236 N233 1.372 . S
C236 N234 1.361 . S
C236 C244 1.457 . S
C237 N232 1.363 . S
C237 N234 1.377 . S
C237 C250 1.479 . S
C238 C235 1.480 . S
C238 C239 1.383 . S
C238 C243 1.385 . S
C239 H220 0.947 . S
C239 C238 1.383 . S
C239 C240 1.386 1_545 S
C240 H221 0.949 . S
C240 C239 1.386 1_565 S
C240 C241 1.383 1_565 S
C241 C240 1.383 1_545 S
C241 C242 1.377 . S
C242 H222 0.953 . S
C242 C241 1.377 . S
C242 C243 1.369 . S
C243 H223 0.945 . S
C243 C238 1.385 . S
C243 C242 1.369 . S
C244 C236 1.457 . S
C244 C245 1.380 . S
C244 C249 1.364 . S
C245 H224 0.945 1_545 S
C245 C244 1.380 . S
C245 C246 1.390 1_545 S
C246 H225 0.955 . S
C246 C245 1.390 1_565 S
C246 C247 1.381 1_565 S
C247 C246 1.381 1_545 S
C247 C248 1.372 . S
C248 H226 0.950 . S
C248 C247 1.372 . S
C248 C249 1.379 . S
C249 H227 0.948 . S
C249 C244 1.364 . S
C249 C248 1.379 . S
C250 C219 1.383 . S
C250 C237 1.479 . S
C250 C251 1.398 . S
C251 C216 1.382 1_554 S
C251 H228 0.951 1_545 S
C251 C250 1.398 . S
C252 C253 1.384 . S
C252 H265 0.947 . S
C252 C287 1.382 . S
C253 C252 1.384 . S
C253 C254 1.378 . S
C254 C253 1.378 . S
C254 C255 1.378 . S
C254 H266 0.952 . S
C255 C254 1.378 . S
C255 H267 0.950 . S
C255 C286 1.383 . S
H256 C275 0.947 . S
H257 C276 0.946 . S
H258 C278 0.953 . S
H259 C279 0.945 . S
H260 C281 0.952 . S
H261 C282 0.949 . S
H262 C284 0.950 . S
H263 C285 0.948 . S
H264 C287 0.951 . S
H265 C252 0.947 . S
H266 C254 0.952 . S
H267 C255 0.950 . S
N268 C271 1.382 . S
N268 C273 1.363 . S
N269 C271 1.371 . S
N269 C272 1.372 . S
N270 C272 1.361 . S
N270 C273 1.377 . S
C271 N268 1.382 . S
C271 N269 1.371 . S
C271 C274 1.480 . S
C272 N269 1.372 . S
C272 N270 1.361 . S
C272 C280 1.457 . S
C273 N268 1.363 . S
C273 N270 1.377 . S
C273 C286 1.479 . S
C274 C271 1.480 . S
C274 C275 1.383 . S
C274 C279 1.385 . S
C275 H256 0.947 . S
C275 C274 1.383 . S
C275 C276 1.388 . S
C276 H257 0.946 . S
C276 C275 1.388 . S
C276 C277 1.384 . S
C277 C276 1.384 . S
C277 C278 1.377 . S
C278 H258 0.953 . S
C278 C277 1.377 . S
C278 C279 1.369 . S
C279 H259 0.945 . S
C279 C274 1.385 . S
C279 C278 1.369 . S
C280 C272 1.457 . S
C280 C281 1.372 . S
C280 C285 1.364 . S
C281 H260 0.952 . S
C281 C280 1.372 . S
C281 C282 1.389 . S
C282 H261 0.949 . S
C282 C281 1.389 . S
C282 C283 1.387 . S
C283 C282 1.387 . S
C283 C284 1.372 . S
C284 H262 0.950 . S
C284 C283 1.372 . S
C284 C285 1.379 . S
C285 H263 0.948 . S
C285 C280 1.364 . S
C285 C284 1.379 . S
C286 C255 1.383 . S
C286 C273 1.479 . S
C286 C287 1.398 . S
C287 C252 1.382 . S
C287 H264 0.951 . S
C287 C286 1.398 . S
Dy288 O291 2.307 1_545 S
Dy288 O293 2.395 1_655 S
Dy288 O294 2.379 . S
Dy288 O296 2.339 . S
Dy288 O298 2.281 1_655 S
Dy288 O302 2.275 1_655 S
Dy288 C310 2.738 . S
Dy289 O292 2.298 . S
Dy289 O295 2.275 1_455 S
Dy289 O297 2.307 1_565 S
Dy289 O299 2.424 . S
Dy289 O300 2.379 . S
Dy289 O303 2.339 . S
Dy289 C319 2.738 . S
C290 O302 1.254 1_565 S
C290 O303 1.257 . S
O291 Dy288 2.307 1_565 S
O291 C301 1.266 . S
O292 Dy289 2.298 . S
O292 C301 1.236 1_455 S
O293 Dy288 2.395 1_455 S
O293 C310 1.255 1_455 S
O294 Dy288 2.379 . S
O294 C310 1.249 . S
O295 Dy289 2.275 1_655 S
O295 C311 1.254 1_565 S
O296 Dy288 2.339 . S
O296 C311 1.257 . S
O297 Dy289 2.307 1_545 S
O297 C312 1.266 . S
O298 Dy288 2.281 1_455 S
O298 C312 1.272 . S
O299 Dy289 2.424 . S
O299 C319 1.308 . S
O300 Dy289 2.379 . S
O300 C319 1.249 . S
C301 O291 1.266 . S
C301 O292 1.236 1_655 S
O302 Dy288 2.275 1_455 S
O302 C290 1.254 1_545 S
O303 Dy289 2.339 . S
O303 C290 1.257 . S
C304 C307 1.344 1_655 S
C304 C308 1.328 . S
C304 C310 1.516 . S
C305 C306 1.304 1_655 S
C305 C309 1.323 . S
C306 C305 1.304 1_455 S
C306 C307 1.371 . S
C306 H320 0.930 . S
C307 C304 1.344 1_455 S
C307 C306 1.371 . S
C307 H321 0.931 . S
C308 C304 1.328 . S
C308 C309 1.433 . S
C308 H322 0.931 . S
C309 C305 1.323 . S
C309 C308 1.433 . S
C309 H323 0.933 . S
C310 Dy288 2.738 . S
C310 O293 1.255 1_655 S
C310 O294 1.249 . S
C310 C304 1.516 . S
C311 O295 1.254 1_545 S
C311 O296 1.257 . S
C312 O297 1.266 . S
C312 O298 1.272 . S
C313 C316 1.361 . S
C313 C317 1.328 . S
C313 C319 1.516 . S
C314 C315 1.338 . S
C314 C318 1.323 . S
C315 C314 1.338 . S
C315 C316 1.371 . S
C315 H324 0.895 1_455 S
C316 C313 1.361 . S
C316 C315 1.371 . S
C316 H325 0.914 1_455 S
C317 C313 1.328 . S
C317 C318 1.433 . S
C317 H326 0.931 . S
C318 C314 1.323 . S
C318 C317 1.433 . S
C318 H327 0.933 . S
C319 Dy289 2.738 . S
C319 O299 1.308 . S
C319 O300 1.249 . S
C319 C313 1.516 . S
H320 C306 0.930 . S
H321 C307 0.931 . S
H322 C308 0.931 . S
H323 C309 0.933 . S
H324 C315 0.895 1_655 S
H325 C316 0.914 1_655 S
H326 C317 0.931 . S
H327 C318 0.933 . S
Dy328 O331 2.307 . S
Dy328 O333 2.395 1_565 S
Dy328 O334 2.379 . S
Dy328 O336 2.339 . S
Dy328 O338 2.298 . S
Dy328 O342 2.275 1_565 S
Dy328 C350 2.738 . S
Dy329 O332 2.298 . S
Dy329 O335 2.275 1_545 S
Dy329 O337 2.307 . S
Dy329 O339 2.395 1_545 S
Dy329 O340 2.379 . S
Dy329 O343 2.339 . S
Dy329 C359 2.738 . S
C330 O342 1.254 . S
C330 O343 1.257 . S
O331 Dy328 2.307 . S
O331 C341 1.266 . S
O332 Dy329 2.298 . S
O332 C341 1.236 1_545 S
O333 Dy328 2.395 1_545 S
O333 C350 1.255 1_545 S
O334 Dy328 2.379 . S
O334 C350 1.249 . S
O335 Dy329 2.275 1_565 S
O335 C351 1.254 . S
O336 Dy328 2.339 . S
O336 C351 1.257 . S
O337 Dy329 2.307 . S
O337 C352 1.266 . S
O338 Dy328 2.298 . S
O338 C352 1.236 1_565 S
O339 Dy329 2.395 1_565 S
O339 C359 1.255 1_565 S
O340 Dy329 2.379 . S
O340 C359 1.249 . S
C341 O331 1.266 . S
C341 O332 1.236 1_565 S
O342 Dy328 2.275 1_545 S
O342 C330 1.254 . S
O343 Dy329 2.339 . S
O343 C330 1.257 . S
C344 C347 1.344 1_565 S
C344 C348 1.328 . S
C344 C350 1.516 . S
C345 C346 1.306 . S
C345 C349 1.323 . S
C346 C345 1.306 . S
C346 C347 1.370 1_565 S
C346 H360 0.928 1_565 S
C347 C344 1.344 1_545 S
C347 C346 1.370 1_545 S
C347 H361 0.931 . S
C348 C344 1.328 . S
C348 C349 1.433 . S
C348 H362 0.931 . S
C349 C345 1.323 . S
C349 C348 1.433 . S
C349 H363 0.933 . S
C350 Dy328 2.738 . S
C350 O333 1.255 1_565 S
C350 O334 1.249 . S
C350 C344 1.516 . S
C351 O335 1.254 . S
C351 O336 1.257 . S
C352 O337 1.266 . S
C352 O338 1.236 1_545 S
C353 C356 1.306 1_545 S
C353 C357 1.328 . S
C353 C359 1.516 . S
C354 C355 1.319 . S
C354 C358 1.323 . S
C355 C354 1.319 . S
C355 C356 1.364 1_545 S
C355 H364 0.917 1_545 S
C356 C353 1.306 1_565 S
C356 C355 1.364 1_565 S
C356 H365 0.976 . S
C357 C353 1.328 . S
C357 C358 1.433 . S
C357 H366 0.931 . S
C358 C354 1.323 . S
C358 C357 1.433 . S
C358 H367 0.933 . S
C359 Dy329 2.738 . S
C359 O339 1.255 1_545 S
C359 O340 1.249 . S
C359 C353 1.516 . S
H360 C346 0.928 1_545 S
H361 C347 0.931 . S
H362 C348 0.931 . S
H363 C349 0.933 . S
H364 C355 0.917 1_565 S
H365 C356 0.976 . S
H366 C357 0.931 . S
H367 C358 0.933 . S
Dy368 O371 2.307 . S
Dy368 O373 2.395 . S
Dy368 O374 2.379 . S
Dy368 O376 2.339 . S
Dy368 O378 2.298 . S
Dy368 O382 2.275 . S
Dy368 C390 2.738 . S
Dy369 O372 2.298 . S
Dy369 O375 2.275 . S
Dy369 O377 2.307 . S
Dy369 O379 2.395 . S
Dy369 O380 2.379 . S
Dy369 O383 2.339 . S
Dy369 C399 2.738 . S
C370 O382 1.254 . S
C370 O383 1.257 . S
O371 Dy368 2.307 . S
O371 C381 1.266 . S
O372 Dy369 2.298 . S
O372 C381 1.236 . S
O373 Dy368 2.395 . S
O373 C390 1.255 . S
O374 Dy368 2.379 . S
O374 C390 1.249 . S
O375 Dy369 2.275 . S
O375 C391 1.254 . S
O376 Dy368 2.339 . S
O376 C391 1.257 . S
O377 Dy369 2.307 . S
O377 C392 1.266 . S
O378 Dy368 2.298 . S
O378 C392 1.236 . S
O379 Dy369 2.395 . S
O379 C399 1.255 . S
O380 Dy369 2.379 . S
O380 C399 1.249 . S
C381 O371 1.266 . S
C381 O372 1.236 . S
O382 Dy368 2.275 . S
O382 C370 1.254 . S
O383 Dy369 2.339 . S
O383 C370 1.257 . S
C384 C387 1.344 . S
C384 C388 1.328 . S
C384 C390 1.516 . S
C385 C386 1.304 . S
C385 C389 1.323 . S
C386 C385 1.304 . S
C386 C387 1.371 . S
C386 H400 0.930 . S
C387 C384 1.344 . S
C387 C386 1.371 . S
C387 H401 0.931 . S
C388 C384 1.328 . S
C388 C389 1.433 . S
C388 H402 0.931 . S
C389 C385 1.323 . S
C389 C388 1.433 . S
C389 H403 0.933 . S
C390 Dy368 2.738 . S
C390 O373 1.255 . S
C390 O374 1.249 . S
C390 C384 1.516 . S
C391 O375 1.254 . S
C391 O376 1.257 . S
C392 O377 1.266 . S
C392 O378 1.236 . S
C393 C396 1.344 . S
C393 C397 1.328 . S
C393 C399 1.516 . S
C394 C395 1.304 . S
C394 C398 1.323 . S
C395 C394 1.304 . S
C395 C396 1.371 . S
C395 H404 0.930 . S
C396 C393 1.344 . S
C396 C395 1.371 . S
C396 H405 0.931 . S
C397 C393 1.328 . S
C397 C398 1.433 . S
C397 H406 0.931 . S
C398 C394 1.323 . S
C398 C397 1.433 . S
C398 H407 0.933 . S
C399 Dy369 2.738 . S
C399 O379 1.255 . S
C399 O380 1.249 . S
C399 C393 1.516 . S
H400 C386 0.930 . S
H401 C387 0.931 . S
H402 C388 0.931 . S
H403 C389 0.933 . S
H404 C395 0.930 . S
H405 C396 0.931 . S
H406 C397 0.931 . S
H407 C398 0.933 . S
Dy408 O411 2.307 1_455 S
Dy408 O413 2.395 . S
Dy408 O414 2.379 . S
Dy408 O416 2.339 . S
Dy408 O418 2.298 . S
Dy408 O422 2.275 . S
Dy408 C430 2.738 . S
Dy409 O412 2.298 . S
Dy409 O415 2.255 1_655 S
Dy409 O417 2.307 1_655 S
Dy409 O419 2.395 . S
Dy409 O420 2.379 . S
Dy409 O423 2.339 . S
Dy409 C439 2.738 . S
C410 O422 1.254 . S
C410 O423 1.257 1_455 S
O411 Dy408 2.307 1_655 S
O411 C421 1.266 . S
O412 Dy409 2.298 . S
O412 C421 1.236 . S
O413 Dy408 2.395 . S
O413 C430 1.255 . S
O414 Dy408 2.379 . S
O414 C430 1.249 . S
O415 Dy409 2.255 1_455 S
O415 C431 1.273 . S
O416 Dy408 2.339 . S
O416 C431 1.257 . S
O417 Dy409 2.307 1_455 S
O417 C432 1.266 . S
O418 Dy408 2.298 . S
O418 C432 1.236 . S
O419 Dy409 2.395 . S
O419 C439 1.255 . S
O420 Dy409 2.379 . S
O420 C439 1.249 . S
C421 O411 1.266 . S
C421 O412 1.236 . S
O422 Dy408 2.275 . S
O422 C410 1.254 . S
O423 Dy409 2.339 . S
O423 C410 1.257 1_655 S
C424 C427 1.344 . S
C424 C428 1.328 . S
C424 C430 1.516 . S
C425 C426 1.304 . S
C425 C429 1.323 . S
C426 C425 1.304 . S
C426 C427 1.371 . S
C426 H440 0.930 . S
C427 C424 1.344 . S
C427 C426 1.371 . S
C427 H441 0.931 . S
C428 C424 1.328 . S
C428 C429 1.433 . S
C428 H442 0.931 . S
C429 C425 1.323 . S
C429 C428 1.433 . S
C429 H443 0.933 . S
C430 Dy408 2.738 . S
C430 O413 1.255 . S
C430 O414 1.249 . S
C430 C424 1.516 . S
C431 O415 1.273 . S
C431 O416 1.257 . S
C432 O417 1.266 . S
C432 O418 1.236 . S
C433 C436 1.344 . S
C433 C437 1.328 . S
C433 C439 1.516 . S
C434 C435 1.304 . S
C434 C438 1.323 . S
C435 C434 1.304 . S
C435 C436 1.371 . S
C435 H444 0.930 . S
C436 C433 1.344 . S
C436 C435 1.371 . S
C436 H445 0.931 . S
C437 C433 1.328 . S
C437 C438 1.433 . S
C437 H446 0.931 . S
C438 C434 1.323 . S
C438 C437 1.433 . S
C438 H447 0.933 . S
C439 Dy409 2.738 . S
C439 O419 1.255 . S
C439 O420 1.249 . S
C439 C433 1.516 . S
H440 C426 0.930 . S
H441 C427 0.931 . S
H442 C428 0.931 . S
H443 C429 0.933 . S
H444 C435 0.930 . S
H445 C436 0.931 . S
H446 C437 0.931 . S
H447 C438 0.933 . S
H448 C456 0.929 . S
H449 C458 0.930 . S
H450 C460 0.930 . S
H451 C463 0.929 . S
H452 C466 0.930 . S
H453 C468 0.960 . S
H454 C468 0.960 . S
H455 C468 0.960 . S
C456 H448 0.929 . S
C456 C457 1.380 . S
C456 C458 1.384 . S
C457 C456 1.380 . S
C457 C463 1.388 1_565 S
C458 H449 0.930 . S
C458 C456 1.384 . S
C458 C459 1.372 . S
C459 C458 1.372 . S
C459 C460 1.400 1_565 S
C459 C464 1.490 . S
C460 H450 0.930 . S
C460 C459 1.400 1_545 S
C460 C463 1.386 . S
H461 C477 0.930 . S
H462 C478 0.931 . S
C463 H451 0.929 . S
C463 C457 1.388 1_545 S
C463 C460 1.386 . S
C464 C459 1.490 . S
C464 C466 1.395 . S
C464 C467 1.403 1_565 S
H465 C471 0.930 . S
C466 H452 0.930 . S
C466 C464 1.395 . S
C466 C469 1.403 . S
C467 C464 1.403 1_545 S
C467 C468 1.524 . S
C467 C471 1.400 . S
C468 H453 0.960 . S
C468 H454 0.960 . S
C468 H455 0.960 . S
C468 C467 1.524 . S
C469 C466 1.403 . S
C469 C470 1.392 . S
C469 C473 1.495 . S
C470 C469 1.392 . S
C470 C471 1.385 1_565 S
C470 C472 1.478 . S
C471 H465 0.930 . S
C471 C467 1.400 . S
C471 C470 1.385 1_545 S
C472 C470 1.478 . S
C472 C474 1.381 . S
C472 C478 1.383 1_565 S
C473 C469 1.495 . S
C473 H479 0.959 . S
C473 H480 0.961 . S
C473 H481 0.960 . S
C474 C472 1.381 . S
C474 C475 1.394 . S
C474 H482 0.930 . S
C475 C474 1.394 . S
C475 C476 1.412 . S
C475 H483 0.929 . S
C476 C475 1.412 . S
C476 C477 1.347 1_565 S
C477 H461 0.930 . S
C477 C476 1.347 1_545 S
C477 C478 1.379 . S
C478 H462 0.931 . S
C478 C472 1.383 1_545 S
C478 C477 1.379 . S
H479 C473 0.959 . S
H480 C473 0.961 . S
H481 C473 0.960 . S
H482 C474 0.930 . S
H483 C475 0.929 . S
H484 C492 0.929 . S
H485 C494 0.930 . S
H486 C496 0.930 . S
H487 C499 0.929 . S
H488 C502 0.930 . S
H489 C504 0.960 . S
H490 C504 0.960 . S
H491 C504 0.960 . S
C492 H484 0.929 . S
C492 C493 1.377 . S
C492 C494 1.384 . S
C493 C492 1.377 . S
C493 C499 1.390 . S
C494 H485 0.930 . S
C494 C492 1.384 . S
C494 C495 1.372 . S
C495 C494 1.372 . S
C495 C496 1.400 . S
C495 C500 1.490 . S
C496 H486 0.930 . S
C496 C495 1.400 . S
C496 C499 1.386 . S
H497 C513 0.930 . S
H498 C514 0.931 . S
C499 H487 0.929 . S
C499 C493 1.390 . S
C499 C496 1.386 . S
C500 C495 1.490 . S
C500 C502 1.395 . S
C500 C503 1.403 . S
H501 C507 0.930 . S
C502 H488 0.930 . S
C502 C500 1.395 . S
C502 C505 1.403 . S
C503 C500 1.403 . S
C503 C504 1.524 . S
C503 C507 1.400 . S
C504 H489 0.960 . S
C504 H490 0.960 . S
C504 H491 0.960 . S
C504 C503 1.524 . S
C505 C502 1.403 . S
C505 C506 1.392 . S
C505 C509 1.495 . S
C506 C505 1.392 . S
C506 C507 1.385 . S
C506 C508 1.478 . S
C507 H501 0.930 . S
C507 C503 1.400 . S
C507 C506 1.385 . S
C508 C506 1.478 . S
C508 C510 1.381 . S
C508 C514 1.383 . S
C509 C505 1.495 . S
C509 H515 0.959 . S
C509 H516 0.961 . S
C509 H517 0.960 . S
C510 C508 1.381 . S
C510 C511 1.394 . S
C510 H518 0.930 . S
C511 C510 1.394 . S
C511 C512 1.383 . S
C511 H519 0.929 . S
C512 C511 1.383 . S
C512 C513 1.377 . S
C513 H497 0.930 . S
C513 C512 1.377 . S
C513 C514 1.379 . S
C514 H498 0.931 . S
C514 C508 1.383 . S
C514 C513 1.379 . S
H515 C509 0.959 . S
H516 C509 0.961 . S
H517 C509 0.960 . S
H518 C510 0.930 . S
H519 C511 0.929 . S
H520 C528 0.929 . S
H521 C530 0.930 . S
H522 C532 0.930 . S
H523 C535 0.929 . S
H524 C538 0.930 . S
H525 C540 0.960 . S
H526 C540 0.960 . S
H527 C540 0.960 . S
C528 H520 0.929 . S
C528 C529 1.377 . S
C528 C530 1.384 . S
C529 C528 1.377 . S
C529 C535 1.390 . S
C530 H521 0.930 . S
C530 C528 1.384 . S
C530 C531 1.372 . S
C531 C530 1.372 . S
C531 C532 1.400 . S
C531 C536 1.490 . S
C532 H522 0.930 . S
C532 C531 1.400 . S
C532 C535 1.386 . S
H533 C549 0.930 . S
H534 C550 0.931 . S
C535 H523 0.929 . S
C535 C529 1.390 . S
C535 C532 1.386 . S
C536 C531 1.490 . S
C536 C538 1.395 . S
C536 C539 1.403 . S
H537 C543 0.930 . S
C538 H524 0.930 . S
C538 C536 1.395 . S
C538 C541 1.403 . S
C539 C536 1.403 . S
C539 C540 1.524 . S
C539 C543 1.400 . S
C540 H525 0.960 . S
C540 H526 0.960 . S
C540 H527 0.960 . S
C540 C539 1.524 . S
C541 C538 1.403 . S
C541 C542 1.392 . S
C541 C545 1.495 . S
C542 C541 1.392 . S
C542 C543 1.385 . S
C542 C544 1.478 . S
C543 H537 0.930 . S
C543 C539 1.400 . S
C543 C542 1.385 . S
C544 C542 1.478 . S
C544 C546 1.381 . S
C544 C550 1.383 . S
C545 C541 1.495 . S
C545 H551 0.959 . S
C545 H552 0.961 . S
C545 H553 0.960 . S
C546 C544 1.381 . S
C546 C547 1.394 . S
C546 H554 0.930 . S
C547 C546 1.394 . S
C547 C548 1.383 . S
C547 H555 0.929 . S
C548 C547 1.383 . S
C548 C549 1.377 . S
C549 H533 0.930 . S
C549 C548 1.377 . S
C549 C550 1.379 . S
C550 H534 0.931 . S
C550 C544 1.383 . S
C550 C549 1.379 . S
H551 C545 0.959 . S
H552 C545 0.961 . S
H553 C545 0.960 . S
H554 C546 0.930 . S
H555 C547 0.929 . S
H556 C564 0.929 . S
H557 C566 0.930 . S
H558 C568 0.930 1_655 S
H559 C571 0.929 . S
H560 C574 0.930 . S
H561 C576 0.960 . S
H562 C576 0.960 . S
H563 C576 0.960 . S
C564 H556 0.929 . S
C564 C565 1.377 . S
C564 C566 1.384 . S
C565 C564 1.377 . S
C565 C571 1.390 . S
C566 H557 0.930 . S
C566 C564 1.384 . S
C566 C567 1.372 . S
C567 C566 1.372 . S
C567 C568 1.400 . S
C567 C572 1.490 . S
C568 H558 0.930 1_455 S
C568 C567 1.400 . S
C568 C571 1.386 . S
H569 C585 0.930 . S
H570 C586 0.931 . S
C571 H559 0.929 . S
C571 C565 1.390 . S
C571 C568 1.386 . S
C572 C567 1.490 . S
C572 C574 1.395 . S
C572 C575 1.403 . S
H573 C579 0.930 . S
C574 H560 0.930 . S
C574 C572 1.395 . S
C574 C577 1.403 . S
C575 C572 1.403 . S
C575 C576 1.524 . S
C575 C579 1.400 . S
C576 H561 0.960 . S
C576 H562 0.960 . S
C576 H563 0.960 . S
C576 C575 1.524 . S
C577 C574 1.403 . S
C577 C578 1.392 . S
C577 C581 1.495 . S
C578 C577 1.392 . S
C578 C579 1.385 . S
C578 C580 1.478 . S
C579 H573 0.930 . S
C579 C575 1.400 . S
C579 C578 1.385 . S
C580 C578 1.478 . S
C580 C582 1.381 . S
C580 C586 1.383 1_455 S
C581 C577 1.495 . S
C581 H587 0.959 . S
C581 H588 0.961 . S
C581 H589 0.960 . S
C582 C580 1.381 . S
C582 C583 1.394 . S
C582 H590 0.930 . S
C583 C582 1.394 . S
C583 C584 1.383 . S
C583 H591 0.929 . S
C584 C583 1.383 . S
C584 C585 1.377 1_455 S
C585 H569 0.930 . S
C585 C584 1.377 1_655 S
C585 C586 1.379 . S
C586 H570 0.931 . S
C586 C580 1.383 1_655 S
C586 C585 1.379 . S
H587 C581 0.959 . S
H588 C581 0.961 . S
H589 C581 0.960 . S
H590 C582 0.930 . S
H591 C583 0.929 . S
H592 C600 0.929 . S
H593 C602 0.930 . S
H594 C604 0.930 . S
H595 C607 0.929 . S
H596 C610 0.933 . S
H597 C612 0.960 . S
H598 C612 0.960 . S
H599 C612 0.960 1_565 S
C600 H592 0.929 . S
C600 C601 1.394 . S
C600 C602 1.384 . S
C601 C600 1.394 . S
C601 C607 1.375 1_545 S
C602 H593 0.930 . S
C602 C600 1.384 . S
C602 C603 1.372 . S
C603 C602 1.372 . S
C603 C604 1.400 1_545 S
C603 C608 1.490 1_554 S
C604 H594 0.930 . S
C604 C603 1.400 1_565 S
C604 C607 1.386 . S
H605 C621 0.930 . S
H606 C622 0.931 . S
C607 H595 0.929 . S
C607 C601 1.375 1_565 S
C607 C604 1.386 . S
C608 C603 1.490 1_556 S
C608 C610 1.395 1_546 S
C608 C611 1.403 . S
H609 C615 0.930 . S
C610 H596 0.933 . S
C610 C608 1.395 1_564 S
C610 C613 1.402 1_554 S
C611 C608 1.403 . S
C611 C612 1.524 . S
C611 C615 1.400 . S
C612 H597 0.960 . S
C612 H598 0.960 . S
C612 H599 0.960 1_545 S
C612 C611 1.524 . S
C613 C610 1.402 1_556 S
C613 C614 1.391 1_565 S
C613 C617 1.495 . S
C614 C613 1.391 1_545 S
C614 C615 1.386 . S
C614 C616 1.479 1_545 S
C615 H609 0.930 . S
C615 C611 1.400 . S
C615 C614 1.386 . S
C616 C614 1.479 1_565 S
C616 C618 1.384 1_565 S
C616 C622 1.380 . S
C617 C613 1.495 . S
C617 H623 0.959 1_556 S
C617 H624 0.961 . S
C617 H625 0.960 1_565 S
C618 C616 1.384 1_545 S
C618 C619 1.394 . S
C618 H626 0.930 . S
C619 C618 1.394 . S
C619 C620 1.383 . S
C619 H627 0.929 . S
C620 C619 1.383 . S
C620 C621 1.377 1_545 S
C621 H605 0.930 . S
C621 C620 1.377 1_565 S
C621 C622 1.379 . S
C622 H606 0.931 . S
C622 C616 1.380 . S
C622 C621 1.379 . S
H623 C617 0.959 1_554 S
H624 C617 0.961 . S
H625 C617 0.960 1_545 S
H626 C618 0.930 . S
H627 C619 0.929 . S
H628 C636 0.929 . S
H629 C638 0.930 . S
H630 C640 0.930 . S
H631 C643 0.929 1_554 S
H632 C646 0.930 . S
H633 C648 0.960 . S
H634 C648 0.960 . S
H635 C648 0.960 . S
C636 H628 0.929 . S
C636 C637 1.377 . S
C636 C638 1.384 . S
C637 C636 1.377 . S
C637 C643 1.390 . S
C638 H629 0.930 . S
C638 C636 1.384 . S
C638 C639 1.372 . S
C639 C638 1.372 . S
C639 C640 1.400 . S
C639 C644 1.490 . S
C640 H630 0.930 . S
C640 C639 1.400 . S
C640 C643 1.386 . S
H641 C657 0.930 . S
H642 C658 0.931 . S
C643 H631 0.929 1_556 S
C643 C637 1.390 . S
C643 C640 1.386 . S
C644 C639 1.490 . S
C644 C646 1.395 . S
C644 C647 1.403 . S
H645 C651 0.930 . S
C646 H632 0.930 . S
C646 C644 1.395 . S
C646 C649 1.403 . S
C647 C644 1.403 . S
C647 C648 1.524 . S
C647 C651 1.400 . S
C648 H633 0.960 . S
C648 H634 0.960 . S
C648 H635 0.960 . S
C648 C647 1.524 . S
C649 C646 1.403 . S
C649 C650 1.392 . S
C649 C653 1.495 . S
C650 C649 1.392 . S
C650 C651 1.385 . S
C650 C652 1.478 . S
C651 H645 0.930 . S
C651 C647 1.400 . S
C651 C650 1.385 . S
C652 C650 1.478 . S
C652 C654 1.381 . S
C652 C658 1.383 . S
C653 C649 1.495 . S
C653 H659 0.959 . S
C653 H660 0.961 . S
C653 H661 0.960 . S
C654 C652 1.381 . S
C654 C655 1.394 . S
C654 H662 0.930 . S
C655 C654 1.394 . S
C655 C656 1.383 . S
C655 H663 0.929 . S
C656 C655 1.383 . S
C656 C657 1.377 . S
C657 H641 0.930 . S
C657 C656 1.377 . S
C657 C658 1.379 . S
C658 H642 0.931 . S
C658 C652 1.383 . S
C658 C657 1.379 . S
H659 C653 0.959 . S
H660 C653 0.961 . S
H661 C653 0.960 . S
H662 C654 0.930 . S
H663 C655 0.929 . S
H664 C672 0.929 . S
H665 C674 0.930 . S
H666 C676 0.930 . S
H667 C679 0.929 . S
H668 C682 0.930 . S
H669 C684 0.960 . S
H670 C684 0.960 . S
H671 C684 0.960 . S
C672 H664 0.929 . S
C672 C673 1.377 . S
C672 C674 1.384 . S
C673 C672 1.377 . S
C673 C679 1.390 . S
C674 H665 0.930 . S
C674 C672 1.384 . S
C674 C675 1.372 . S
C675 C674 1.372 . S
C675 C676 1.400 . S
C675 C680 1.490 . S
C676 H666 0.930 . S
C676 C675 1.400 . S
C676 C679 1.386 . S
H677 C693 0.930 . S
H678 C694 0.931 . S
C679 H667 0.929 . S
C679 C673 1.390 . S
C679 C676 1.386 . S
C680 C675 1.490 . S
C680 C682 1.395 . S
C680 C683 1.403 . S
H681 C687 0.930 . S
C682 H668 0.930 . S
C682 C680 1.395 . S
C682 C685 1.403 . S
C683 C680 1.403 . S
C683 C684 1.524 . S
C683 C687 1.400 . S
C684 H669 0.960 . S
C684 H670 0.960 . S
C684 H671 0.960 . S
C684 C683 1.524 . S
C685 C682 1.403 . S
C685 C686 1.392 . S
C685 C689 1.495 . S
C686 C685 1.392 . S
C686 C687 1.385 . S
C686 C688 1.478 . S
C687 H681 0.930 . S
C687 C683 1.400 . S
C687 C686 1.385 . S
C688 C686 1.478 . S
C688 C690 1.381 1_554 S
C688 C694 1.383 . S
C689 C685 1.495 . S
C689 H695 0.959 . S
C689 H696 0.961 . S
C689 H697 0.960 . S
C690 C688 1.381 1_556 S
C690 C691 1.394 . S
C690 H698 0.930 . S
C691 C690 1.394 . S
C691 C692 1.383 . S
C691 H699 0.929 . S
C692 C691 1.383 . S
C692 C693 1.377 . S
C693 H677 0.930 . S
C693 C692 1.377 . S
C693 C694 1.379 1_556 S
C694 H678 0.931 . S
C694 C688 1.383 . S
C694 C693 1.379 1_554 S
H695 C689 0.959 . S
H696 C689 0.961 . S
H697 C689 0.960 . S
H698 C690 0.930 . S
H699 C691 0.929 . S
H700 C708 0.929 . S
H701 C710 0.930 . S
H702 C712 0.930 . S
H703 C715 0.929 . S
H704 C718 0.931 1_455 S
H705 C720 0.960 . S
H706 C720 0.960 1_554 S
H707 C720 0.960 1_554 S
C708 H700 0.929 . S
C708 C709 1.377 1_455 S
C708 C710 1.384 . S
C709 C708 1.377 1_655 S
C709 C715 1.390 . S
C710 H701 0.930 . S
C710 C708 1.384 . S
C710 C711 1.372 1_455 S
C711 C710 1.372 1_655 S
C711 C712 1.400 . S
C711 C716 1.490 . S
C712 H702 0.930 . S
C712 C711 1.400 . S
C712 C715 1.386 . S
H713 C729 0.930 . S
H714 C730 0.931 . S
C715 H703 0.929 . S
C715 C709 1.390 . S
C715 C712 1.386 . S
C716 C711 1.490 . S
C716 C718 1.393 . S
C716 C719 1.403 1_554 S
H717 C723 0.930 . S
C718 H704 0.931 1_655 S
C718 C716 1.393 . S
C718 C721 1.403 1_654 S
C719 C716 1.403 1_556 S
C719 C720 1.524 . S
C719 C723 1.400 . S
C720 H705 0.960 . S
C720 H706 0.960 1_556 S
C720 H707 0.960 1_556 S
C720 C719 1.524 . S
C721 C718 1.403 1_456 S
C721 C722 1.392 1_455 S
C721 C725 1.495 . S
C722 C721 1.392 1_655 S
C722 C723 1.385 . S
C722 C724 1.478 . S
C723 H717 0.930 . S
C723 C719 1.400 . S
C723 C722 1.385 . S
C724 C722 1.478 . S
C724 C726 1.381 1_655 S
C724 C730 1.383 . S
C725 C721 1.495 . S
C725 H731 0.959 1_556 S
C725 H732 0.961 . S
C725 H733 0.960 . S
C726 C724 1.381 1_455 S
C726 C727 1.394 . S
C726 H734 0.930 . S
C727 C726 1.394 . S
C727 C728 1.401 . S
C727 H735 0.929 . S
C728 C727 1.401 . S
C728 C729 1.361 1_455 S
C729 H713 0.930 . S
C729 C728 1.361 1_655 S
C729 C730 1.379 . S
C730 H714 0.931 . S
C730 C724 1.383 . S
C730 C729 1.379 . S
H731 C725 0.959 1_554 S
H732 C725 0.961 . S
H733 C725 0.960 . S
H734 C726 0.930 . S
H735 C727 0.929 . S
H736 C744 0.929 . S
H737 C746 0.930 . S
H738 C748 0.930 . S
H739 C751 0.929 . S
H740 C754 0.930 . S
H741 C756 0.960 . S
H742 C756 0.960 . S
H743 C756 0.960 . S
C744 H736 0.929 . S
C744 C745 1.377 . S
C744 C746 1.384 . S
C745 C744 1.377 . S
C745 C751 1.390 . S
C746 H737 0.930 . S
C746 C744 1.384 . S
C746 C747 1.372 . S
C747 C746 1.372 . S
C747 C748 1.400 . S
C747 C752 1.490 . S
C748 H738 0.930 . S
C748 C747 1.400 . S
C748 C751 1.386 . S
H749 C765 0.930 . S
H750 C766 0.931 . S
C751 H739 0.929 . S
C751 C745 1.390 . S
C751 C748 1.386 . S
C752 C747 1.490 . S
C752 C754 1.395 . S
C752 C755 1.403 1_455 S
H753 C759 0.930 . S
C754 H740 0.930 . S
C754 C752 1.395 . S
C754 C757 1.403 . S
C755 C752 1.403 1_655 S
C755 C756 1.524 . S
C755 C759 1.400 . S
C756 H741 0.960 . S
C756 H742 0.960 . S
C756 H743 0.960 . S
C756 C755 1.524 . S
C757 C754 1.403 . S
C757 C758 1.392 . S
C757 C761 1.495 . S
C758 C757 1.392 . S
C758 C759 1.385 1_455 S
C758 C760 1.478 . S
C759 H753 0.930 . S
C759 C755 1.400 . S
C759 C758 1.385 1_655 S
C760 C758 1.478 . S
C760 C762 1.381 . S
C760 C766 1.383 1_455 S
C761 C757 1.495 . S
C761 H767 0.959 . S
C761 H768 0.961 . S
C761 H769 0.960 . S
C762 C760 1.381 . S
C762 C763 1.394 1_455 S
C762 H770 0.930 . S
C763 C762 1.394 1_655 S
C763 C764 1.383 . S
C763 H771 0.930 1_655 S
C764 C763 1.383 . S
C764 C765 1.377 . S
C765 H749 0.930 . S
C765 C764 1.377 . S
C765 C766 1.379 . S
C766 H750 0.931 . S
C766 C760 1.383 1_655 S
C766 C765 1.379 . S
H767 C761 0.959 . S
H768 C761 0.961 . S
H769 C761 0.960 . S
H770 C762 0.930 . S
H771 C763 0.930 1_455 S
H772 C780 0.929 . S
H773 C782 0.930 . S
H774 C784 0.930 . S
H775 C787 0.929 . S
H776 C790 0.930 . S
H777 C792 0.960 . S
H778 C792 0.960 . S
H779 C792 0.960 . S
C780 H772 0.929 . S
C780 C781 1.335 1_565 S
C780 C782 1.384 . S
C781 C780 1.335 1_545 S
C781 C787 1.430 . S
C782 H773 0.930 . S
C782 C780 1.384 . S
C782 C783 1.372 . S
C783 C782 1.372 . S
C783 C784 1.400 1_565 S
C783 C788 1.490 . S
C784 H774 0.930 . S
C784 C783 1.400 1_545 S
C784 C787 1.386 . S
H785 C801 0.930 1_545 S
H786 C802 0.931 1_545 S
C787 H775 0.929 . S
C787 C781 1.430 . S
C787 C784 1.386 . S
C788 C783 1.490 . S
C788 C790 1.395 . S
C788 C791 1.403 1_565 S
H789 C795 0.969 . S
C790 H776 0.930 . S
C790 C788 1.395 . S
C790 C793 1.403 . S
C791 C788 1.403 1_545 S
C791 C792 1.524 . S
C791 C795 1.408 . S
C792 H777 0.960 . S
C792 H778 0.960 . S
C792 H779 0.960 . S
C792 C791 1.524 . S
C793 C790 1.403 . S
C793 C794 1.392 . S
C793 C797 1.495 . S
C794 C793 1.392 . S
C794 C795 1.342 1_565 S
C794 C796 1.478 . S
C795 H789 0.969 . S
C795 C791 1.408 . S
C795 C794 1.342 1_545 S
C796 C794 1.478 . S
C796 C798 1.381 . S
C796 C802 1.383 . S
C797 C793 1.495 . S
C797 H803 0.959 . S
C797 H804 0.961 . S
C797 H805 0.960 . S
C798 C796 1.381 . S
C798 C799 1.394 . S
C798 H806 0.930 . S
C799 C798 1.394 . S
C799 C800 1.383 . S
C799 H807 0.929 . S
C800 C799 1.383 . S
C800 C801 1.377 . S
C801 H785 0.930 1_565 S
C801 C800 1.377 . S
C801 C802 1.379 . S
C802 H786 0.931 1_565 S
C802 C796 1.383 . S
C802 C801 1.379 . S
H803 C797 0.959 . S
H804 C797 0.961 . S
H805 C797 0.960 . S
H806 C798 0.930 . S
H807 C799 0.929 . S
H808 C816 0.929 . S
H809 C818 0.930 . S
H810 C820 0.930 . S
H811 C823 0.929 . S
H812 C826 0.930 . S
H813 C828 0.960 . S
H814 C828 0.960 . S
H815 C828 0.960 . S
C816 H808 0.929 . S
C816 C817 1.377 . S
C816 C818 1.384 . S
C817 C816 1.377 . S
C817 C823 1.390 . S
C818 H809 0.930 . S
C818 C816 1.384 . S
C818 C819 1.372 . S
C819 C818 1.372 . S
C819 C820 1.400 . S
C819 C824 1.490 . S
C820 H810 0.930 . S
C820 C819 1.400 . S
C820 C823 1.386 . S
H821 C837 0.930 . S
H822 C838 0.931 . S
C823 H811 0.929 . S
C823 C817 1.390 . S
C823 C820 1.386 . S
C824 C819 1.490 . S
C824 C826 1.395 . S
C824 C827 1.403 . S
H825 C831 0.930 . S
C826 H812 0.930 . S
C826 C824 1.395 . S
C826 C829 1.403 . S
C827 C824 1.403 . S
C827 C828 1.524 . S
C827 C831 1.400 . S
C828 H813 0.960 . S
C828 H814 0.960 . S
C828 H815 0.960 . S
C828 C827 1.524 . S
C829 C826 1.403 . S
C829 C830 1.392 . S
C829 C833 1.495 . S
C830 C829 1.392 . S
C830 C831 1.385 . S
C830 C832 1.478 . S
C831 H825 0.930 . S
C831 C827 1.400 . S
C831 C830 1.385 . S
C832 C830 1.478 . S
C832 C834 1.381 . S
C832 C838 1.383 . S
C833 C829 1.495 . S
C833 H839 0.959 . S
C833 H840 0.961 . S
C833 H841 0.960 . S
C834 C832 1.381 . S
C834 C835 1.394 . S
C834 H842 0.930 . S
C835 C834 1.394 . S
C835 C836 1.383 . S
C835 H843 0.929 . S
C836 C835 1.383 . S
C836 C837 1.377 . S
C837 H821 0.930 . S
C837 C836 1.377 . S
C837 C838 1.379 . S
C838 H822 0.931 . S
C838 C832 1.383 . S
C838 C837 1.379 . S
H839 C833 0.959 . S
H840 C833 0.961 . S
H841 C833 0.960 . S
H842 C834 0.930 . S
H843 C835 0.929 . S
H844 C852 0.929 . S
H845 C854 0.930 . S
H846 C856 0.930 . S
H847 C859 0.929 . S
H848 C862 0.930 . S
H849 C864 0.960 . S
H850 C864 0.960 . S
H851 C864 0.960 . S
C852 H844 0.929 . S
C852 C853 1.377 . S
C852 C854 1.384 . S
C853 C852 1.377 . S
C853 C859 1.390 . S
C854 H845 0.930 . S
C854 C852 1.384 . S
C854 C855 1.372 . S
C855 C854 1.372 . S
C855 C856 1.400 . S
C855 C860 1.490 . S
C856 H846 0.930 . S
C856 C855 1.400 . S
C856 C859 1.386 . S
H857 C873 0.930 . S
H858 C874 0.931 . S
C859 H847 0.929 . S
C859 C853 1.390 . S
C859 C856 1.386 . S
C860 C855 1.490 . S
C860 C862 1.395 . S
C860 C863 1.403 . S
H861 C867 0.930 . S
C862 H848 0.930 . S
C862 C860 1.395 . S
C862 C865 1.403 . S
C863 C860 1.403 . S
C863 C864 1.524 . S
C863 C867 1.400 . S
C864 H849 0.960 . S
C864 H850 0.960 . S
C864 H851 0.960 . S
C864 C863 1.524 . S
C865 C862 1.403 . S
C865 C866 1.392 . S
C865 C869 1.495 . S
C866 C865 1.392 . S
C866 C867 1.385 . S
C866 C868 1.478 . S
C867 H861 0.930 . S
C867 C863 1.400 . S
C867 C866 1.385 . S
C868 C866 1.478 . S
C868 C870 1.381 . S
C868 C874 1.383 . S
C869 C865 1.495 . S
C869 H875 0.959 . S
C869 H876 0.961 . S
C869 H877 0.960 . S
C870 C868 1.381 . S
C870 C871 1.394 . S
C870 H878 0.930 . S
C871 C870 1.394 . S
C871 C872 1.383 . S
C871 H879 0.929 . S
C872 C871 1.383 . S
C872 C873 1.377 . S
C873 H857 0.930 . S
C873 C872 1.377 . S
C873 C874 1.379 . S
C874 H858 0.931 . S
C874 C868 1.383 . S
C874 C873 1.379 . S
H875 C869 0.959 . S
H876 C869 0.961 . S
H877 C869 0.960 . S
H878 C870 0.930 . S
H879 C871 0.929 . S
H880 C888 0.929 1_455 S
H881 C890 0.930 . S
H882 C892 0.930 . S
H883 C895 0.929 . S
H884 C898 0.930 . S
H885 C900 0.960 . S
H886 C900 0.960 . S
H887 C900 0.960 . S
C888 H880 0.929 1_655 S
C888 C889 1.377 . S
C888 C890 1.384 1_655 S
C889 C888 1.377 . S
C889 C895 1.390 . S
C890 H881 0.930 . S
C890 C888 1.384 1_455 S
C890 C891 1.372 1_455 S
C891 C890 1.372 1_655 S
C891 C892 1.400 . S
C891 C896 1.490 . S
C892 H882 0.930 . S
C892 C891 1.400 . S
C892 C895 1.386 . S
H893 C909 0.930 1_655 S
H894 C910 0.967 . S
C895 H883 0.929 . S
C895 C889 1.390 . S
C895 C892 1.386 . S
C896 C891 1.490 . S
C896 C898 1.395 1_654 S
C896 C899 1.403 . S
H897 C903 0.930 . S
C898 H884 0.930 . S
C898 C896 1.395 1_456 S
C898 C901 1.403 . S
C899 C896 1.403 . S
C899 C900 1.524 . S
C899 C903 1.400 . S
C900 H885 0.960 . S
C900 H886 0.960 . S
C900 H887 0.960 . S
C900 C899 1.524 . S
C901 C898 1.403 . S
C901 C902 1.392 . S
C901 C905 1.495 . S
C902 C901 1.392 . S
C902 C903 1.385 1_456 S
C902 C904 1.478 . S
C903 H897 0.930 . S
C903 C899 1.400 . S
C903 C902 1.385 1_654 S
C904 C902 1.478 . S
C904 C906 1.381 . S
C904 C910 1.356 1_455 S
C905 C901 1.495 . S
C905 H911 0.959 . S
C905 H912 0.961 . S
C905 H913 0.960 . S
C906 C904 1.381 . S
C906 C907 1.394 . S
C906 H914 0.930 . S
C907 C906 1.394 . S
C907 C908 1.383 . S
C907 H915 0.929 . S
C908 C907 1.383 . S
C908 C909 1.377 . S
C909 H893 0.930 1_455 S
C909 C908 1.377 . S
C909 C910 1.372 1_455 S
C910 H894 0.967 . S
C910 C904 1.356 1_655 S
C910 C909 1.372 1_655 S
H911 C905 0.959 . S
H912 C905 0.961 . S
H913 C905 0.960 . S
H914 C906 0.930 . S
H915 C907 0.929 . S
H916 C924 0.929 . S
H917 C926 0.930 . S
H918 C928 0.930 . S
H919 C931 0.929 . S
H920 C934 0.955 . S
H921 C936 0.960 . S
H922 C936 0.960 . S
H923 C936 0.960 . S
C924 H916 0.929 . S
C924 C925 1.426 . S
C924 C926 1.384 . S
C925 C924 1.426 . S
C925 C931 1.340 1_565 S
C926 H917 0.930 . S
C926 C924 1.384 . S
C926 C927 1.372 1_565 S
C927 C926 1.372 1_545 S
C927 C928 1.400 . S
C927 C932 1.490 1_554 S
C928 H918 0.930 . S
C928 C927 1.400 . S
C928 C931 1.386 . S
H929 C945 0.930 . S
H930 C946 0.931 . S
C931 H919 0.929 . S
C931 C925 1.340 1_545 S
C931 C928 1.386 . S
C932 C927 1.490 1_556 S
C932 C934 1.374 1_546 S
C932 C935 1.403 . S
H933 C939 0.930 . S
C934 H920 0.955 . S
C934 C932 1.374 1_564 S
C934 C937 1.403 1_564 S
C935 C932 1.403 . S
C935 C936 1.524 . S
C935 C939 1.400 . S
C936 H921 0.960 . S
C936 H922 0.960 . S
C936 H923 0.960 . S
C936 C935 1.524 . S
C937 C934 1.403 1_546 S
C937 C938 1.392 . S
C937 C941 1.495 1_546 S
C938 C937 1.392 . S
C938 C939 1.385 . S
C938 C940 1.478 . S
C939 H933 0.930 . S
C939 C935 1.400 . S
C939 C938 1.385 . S
C940 C938 1.478 . S
C940 C942 1.381 1_545 S
C940 C946 1.383 . S
C941 C937 1.495 1_564 S
C941 H947 0.959 . S
C941 H948 0.961 1_565 S
C941 H949 0.960 1_554 S
C942 C940 1.381 1_565 S
C942 C943 1.392 1_565 S
C942 H950 0.930 . S
C943 C942 1.392 1_545 S
C943 C944 1.417 . S
C943 H951 0.899 1_545 S
C944 C943 1.417 . S
C944 C945 1.377 . S
C945 H929 0.930 . S
C945 C944 1.377 . S
C945 C946 1.379 . S
C946 H930 0.931 . S
C946 C940 1.383 . S
C946 C945 1.379 . S
H947 C941 0.959 . S
H948 C941 0.961 1_545 S
H949 C941 0.960 1_556 S
H950 C942 0.930 . S
H951 C943 0.899 1_565 S
H952 C960 0.929 . S
H953 C962 0.930 . S
H954 C964 0.930 . S
H955 C967 0.929 . S
H956 C970 0.930 . S
H957 C972 0.960 . S
H958 C972 0.960 . S
H959 C972 0.960 . S
C960 H952 0.929 . S
C960 C961 1.377 . S
C960 C962 1.384 . S
C961 C960 1.377 . S
C961 C967 1.390 . S
C962 H953 0.930 . S
C962 C960 1.384 . S
C962 C963 1.372 . S
C963 C962 1.372 . S
C963 C964 1.400 . S
C963 C968 1.490 . S
C964 H954 0.930 . S
C964 C963 1.400 . S
C964 C967 1.386 . S
H965 C981 0.930 . S
H966 C982 0.931 . S
C967 H955 0.929 . S
C967 C961 1.390 . S
C967 C964 1.386 . S
C968 C963 1.490 . S
C968 C970 1.395 . S
C968 C971 1.403 . S
H969 C975 0.930 . S
C970 H956 0.930 . S
C970 C968 1.395 . S
C970 C973 1.403 . S
C971 C968 1.403 . S
C971 C972 1.524 . S
C971 C975 1.400 . S
C972 H957 0.960 . S
C972 H958 0.960 . S
C972 H959 0.960 . S
C972 C971 1.524 . S
C973 C970 1.403 . S
C973 C974 1.392 . S
C973 C977 1.495 . S
C974 C973 1.392 . S
C974 C975 1.385 . S
C974 C976 1.478 . S
C975 H969 0.930 . S
C975 C971 1.400 . S
C975 C974 1.385 . S
C976 C974 1.478 . S
C976 C978 1.381 . S
C976 C982 1.383 . S
C977 C973 1.495 . S
C977 H983 0.959 . S
C977 H984 0.961 . S
C977 H985 0.960 . S
C978 C976 1.381 . S
C978 C979 1.394 . S
C978 H986 0.930 . S
C979 C978 1.394 . S
C979 C980 1.383 . S
C979 H987 0.929 . S
C980 C979 1.383 . S
C980 C981 1.377 . S
C981 H965 0.930 . S
C981 C980 1.377 . S
C981 C982 1.379 . S
C982 H966 0.931 . S
C982 C976 1.383 . S
C982 C981 1.379 . S
H983 C977 0.959 . S
H984 C977 0.961 . S
H985 C977 0.960 . S
H986 C978 0.930 . S
H987 C979 0.929 . S
H988 C996 0.929 . S
H989 C998 0.930 . S
H990 C1000 0.930 . S
H991 C1003 0.929 . S
H992 C1006 0.930 . S
H993 C1008 0.960 . S
H994 C1008 0.960 . S
H995 C1008 0.960 . S
C996 H988 0.929 . S
C996 C997 1.377 . S
C996 C998 1.384 . S
C997 C996 1.377 . S
C997 C1003 1.390 . S
C998 H989 0.930 . S
C998 C996 1.384 . S
C998 C999 1.372 . S
C999 C998 1.372 . S
C999 C1000 1.400 . S
C999 C1004 1.490 . S
C1000 H990 0.930 . S
C1000 C999 1.400 . S
C1000 C1003 1.386 . S
H1001 C1017 0.930 . S
H1002 C1018 0.931 1_554 S
C1003 H991 0.929 . S
C1003 C997 1.390 . S
C1003 C1000 1.386 . S
C1004 C999 1.490 . S
C1004 C1006 1.395 . S
C1004 C1007 1.403 . S
H1005 C1011 0.930 . S
C1006 H992 0.930 . S
C1006 C1004 1.395 . S
C1006 C1009 1.403 . S
C1007 C1004 1.403 . S
C1007 C1008 1.524 . S
C1007 C1011 1.400 . S
C1008 H993 0.960 . S
C1008 H994 0.960 . S
C1008 H995 0.960 . S
C1008 C1007 1.524 . S
C1009 C1006 1.403 . S
C1009 C1010 1.392 . S
C1009 C1013 1.495 . S
C1010 C1009 1.392 . S
C1010 C1011 1.385 . S
C1010 C1012 1.478 1_554 S
C1011 H1005 0.930 . S
C1011 C1007 1.400 . S
C1011 C1010 1.385 . S
C1012 C1010 1.478 1_556 S
C1012 C1014 1.381 . S
C1012 C1018 1.383 . S
C1013 C1009 1.495 . S
C1013 H1019 0.959 . S
C1013 H1020 0.961 . S
C1013 H1021 0.960 1_554 S
C1014 C1012 1.381 . S
C1014 C1015 1.394 . S
C1014 H1022 0.930 . S
C1015 C1014 1.394 . S
C1015 C1016 1.383 . S
C1015 H1023 0.929 . S
C1016 C1015 1.383 . S
C1016 C1017 1.377 . S
C1017 H1001 0.930 . S
C1017 C1016 1.377 . S
C1017 C1018 1.379 . S
C1018 H1002 0.931 1_556 S
C1018 C1012 1.383 . S
C1018 C1017 1.379 . S
H1019 C1013 0.959 . S
H1020 C1013 0.961 . S
H1021 C1013 0.960 1_556 S
H1022 C1014 0.930 . S
H1023 C1015 0.929 . S
H1024 C1032 0.929 . S
H1025 C1034 0.930 . S
H1026 C1036 0.930 . S
H1027 C1039 0.929 . S
H1028 C1042 0.930 . S
H1029 C1044 0.960 . S
H1030 C1044 0.960 . S
H1031 C1044 0.960 . S
C1032 H1024 0.929 . S
C1032 C1033 1.377 . S
C1032 C1034 1.384 . S
C1033 C1032 1.377 . S
C1033 C1039 1.390 . S
C1034 H1025 0.930 . S
C1034 C1032 1.384 . S
C1034 C1035 1.372 . S
C1035 C1034 1.372 . S
C1035 C1036 1.400 . S
C1035 C1040 1.490 . S
C1036 H1026 0.930 . S
C1036 C1035 1.400 . S
C1036 C1039 1.386 . S
H1037 C1053 0.930 1_655 S
H1038 C1054 0.931 . S
C1039 H1027 0.929 . S
C1039 C1033 1.390 . S
C1039 C1036 1.386 . S
C1040 C1035 1.490 . S
C1040 C1042 1.395 . S
C1040 C1043 1.403 . S
H1041 C1047 0.930 1_655 S
C1042 H1028 0.930 . S
C1042 C1040 1.395 . S
C1042 C1045 1.403 . S
C1043 C1040 1.403 . S
C1043 C1044 1.524 1_455 S
C1043 C1047 1.400 . S
C1044 H1029 0.960 . S
C1044 H1030 0.960 . S
C1044 H1031 0.960 . S
C1044 C1043 1.524 1_655 S
C1045 C1042 1.403 . S
C1045 C1046 1.392 . S
C1045 C1049 1.495 . S
C1046 C1045 1.392 . S
C1046 C1047 1.385 . S
C1046 C1048 1.478 . S
C1047 H1041 0.930 1_455 S
C1047 C1043 1.400 . S
C1047 C1046 1.385 . S
C1048 C1046 1.478 . S
C1048 C1050 1.381 . S
C1048 C1054 1.383 . S
C1049 C1045 1.495 . S
C1049 H1055 0.959 . S
C1049 H1056 0.961 . S
C1049 H1057 0.960 . S
C1050 C1048 1.381 . S
C1050 C1051 1.394 . S
C1050 H1058 0.930 . S
C1051 C1050 1.394 . S
C1051 C1052 1.383 . S
C1051 H1059 0.929 . S
C1052 C1051 1.383 . S
C1052 C1053 1.377 . S
C1053 H1037 0.930 1_455 S
C1053 C1052 1.377 . S
C1053 C1054 1.379 . S
C1054 H1038 0.931 . S
C1054 C1048 1.383 . S
C1054 C1053 1.379 . S
H1055 C1049 0.959 . S
H1056 C1049 0.961 . S
H1057 C1049 0.960 . S
H1058 C1050 0.930 . S
H1059 C1051 0.929 . S
H1060 C1068 0.929 . S
H1061 C1070 0.936 . S
H1062 C1072 0.930 . S
H1063 C1075 0.929 . S
H1064 C1078 0.930 . S
H1065 C1080 0.960 . S
H1066 C1080 0.960 . S
H1067 C1080 0.960 . S
C1068 H1060 0.929 . S
C1068 C1069 1.375 1_565 S
C1068 C1070 1.392 . S
C1069 C1068 1.375 1_545 S
C1069 C1075 1.397 . S
C1070 H1061 0.936 . S
C1070 C1068 1.392 . S
C1070 C1071 1.362 1_565 S
C1071 C1070 1.362 1_545 S
C1071 C1072 1.400 . S
C1071 C1076 1.490 . S
C1072 H1062 0.930 . S
C1072 C1071 1.400 . S
C1072 C1075 1.386 . S
H1073 C1089 0.930 . S
H1074 C1090 0.931 . S
C1075 H1063 0.929 . S
C1075 C1069 1.397 . S
C1075 C1072 1.386 . S
C1076 C1071 1.490 . S
C1076 C1078 1.395 . S
C1076 C1079 1.403 1_545 S
H1077 C1083 0.930 . S
C1078 H1064 0.930 . S
C1078 C1076 1.395 . S
C1078 C1081 1.403 . S
C1079 C1076 1.403 1_565 S
C1079 C1080 1.524 . S
C1079 C1083 1.400 . S
C1080 H1065 0.960 . S
C1080 H1066 0.960 . S
C1080 H1067 0.960 . S
C1080 C1079 1.524 . S
C1081 C1078 1.403 . S
C1081 C1082 1.392 . S
C1081 C1085 1.495 . S
C1082 C1081 1.392 . S
C1082 C1083 1.385 1_545 S
C1082 C1084 1.478 . S
C1083 H1077 0.930 . S
C1083 C1079 1.400 . S
C1083 C1082 1.385 1_565 S
C1084 C1082 1.478 . S
C1084 C1086 1.381 . S
C1084 C1090 1.383 . S
C1085 C1081 1.495 . S
C1085 H1091 0.959 . S
C1085 H1092 0.961 . S
C1085 H1093 0.960 . S
C1086 C1084 1.381 . S
C1086 C1087 1.394 . S
C1086 H1094 0.946 . S
C1087 C1086 1.394 . S
C1087 C1088 1.383 . S
C1087 H1095 0.928 . S
C1088 C1087 1.383 . S
C1088 C1089 1.377 . S
C1089 H1073 0.930 . S
C1089 C1088 1.377 . S
C1089 C1090 1.379 . S
C1090 H1074 0.931 . S
C1090 C1084 1.383 . S
C1090 C1089 1.379 . S
H1091 C1085 0.959 . S
H1092 C1085 0.961 . S
H1093 C1085 0.960 . S
H1094 C1086 0.946 . S
H1095 C1087 0.928 . S
H1096 C1104 0.929 . S
H1097 C1106 0.930 . S
H1098 C1108 0.923 1_556 S
H1099 C1111 0.929 . S
H1100 C1114 0.930 . S
H1101 C1116 0.960 . S
H1102 C1116 0.960 . S
H1103 C1116 0.960 . S
C1104 H1096 0.929 . S
C1104 C1105 1.377 . S
C1104 C1106 1.384 . S
C1105 C1104 1.377 . S
C1105 C1111 1.390 . S
C1106 H1097 0.930 . S
C1106 C1104 1.384 . S
C1106 C1107 1.366 1_554 S
C1107 C1106 1.366 1_556 S
C1107 C1108 1.402 1_556 S
C1107 C1112 1.495 . S
C1108 H1098 0.923 1_554 S
C1108 C1107 1.402 1_554 S
C1108 C1111 1.391 . S
H1109 C1125 0.930 . S
H1110 C1126 0.931 . S
C1111 H1099 0.929 . S
C1111 C1105 1.390 . S
C1111 C1108 1.391 . S
C1112 C1107 1.495 . S
C1112 C1114 1.395 . S
C1112 C1115 1.403 . S
H1113 C1119 0.930 . S
C1114 H1100 0.930 . S
C1114 C1112 1.395 . S
C1114 C1117 1.403 . S
C1115 C1112 1.403 . S
C1115 C1116 1.524 1_556 S
C1115 C1119 1.400 . S
C1116 H1101 0.960 . S
C1116 H1102 0.960 . S
C1116 H1103 0.960 . S
C1116 C1115 1.524 1_554 S
C1117 C1114 1.403 . S
C1117 C1118 1.392 . S
C1117 C1121 1.495 . S
C1118 C1117 1.392 . S
C1118 C1119 1.385 . S
C1118 C1120 1.478 . S
C1119 H1113 0.930 . S
C1119 C1115 1.400 . S
C1119 C1118 1.385 . S
C1120 C1118 1.478 . S
C1120 C1122 1.381 . S
C1120 C1126 1.383 . S
C1121 C1117 1.495 . S
C1121 H1127 0.959 . S
C1121 H1128 0.961 . S
C1121 H1129 0.960 . S
C1122 C1120 1.381 . S
C1122 C1123 1.394 . S
C1122 H1130 0.930 . S
C1123 C1122 1.394 . S
C1123 C1124 1.383 . S
C1123 H1131 0.929 . S
C1124 C1123 1.383 . S
C1124 C1125 1.377 . S
C1125 H1109 0.930 . S
C1125 C1124 1.377 . S
C1125 C1126 1.379 . S
C1126 H1110 0.931 . S
C1126 C1120 1.383 . S
C1126 C1125 1.379 . S
H1127 C1121 0.959 . S
H1128 C1121 0.961 . S
H1129 C1121 0.960 . S
H1130 C1122 0.930 . S
H1131 C1123 0.929 . S
H1132 C1140 0.929 . S
H1133 C1142 0.930 . S
H1134 C1144 0.930 . S
H1135 C1147 0.929 . S
H1136 C1150 0.930 . S
H1137 C1152 0.960 . S
H1138 C1152 0.960 . S
H1139 C1152 0.960 . S
C1140 H1132 0.929 . S
C1140 C1141 1.377 . S
C1140 C1142 1.384 . S
C1141 C1140 1.377 . S
C1141 C1147 1.390 . S
C1142 H1133 0.930 . S
C1142 C1140 1.384 . S
C1142 C1143 1.372 . S
C1143 C1142 1.372 . S
C1143 C1144 1.400 . S
C1143 C1148 1.490 . S
C1144 H1134 0.930 . S
C1144 C1143 1.400 . S
C1144 C1147 1.386 . S
H1145 C1161 0.930 . S
H1146 C1162 0.931 . S
C1147 H1135 0.929 . S
C1147 C1141 1.390 . S
C1147 C1144 1.386 . S
C1148 C1143 1.490 . S
C1148 C1150 1.395 . S
C1148 C1151 1.403 . S
H1149 C1155 0.930 . S
C1150 H1136 0.930 . S
C1150 C1148 1.395 . S
C1150 C1153 1.403 . S
C1151 C1148 1.403 . S
C1151 C1152 1.524 . S
C1151 C1155 1.400 . S
C1152 H1137 0.960 . S
C1152 H1138 0.960 . S
C1152 H1139 0.960 . S
C1152 C1151 1.524 . S
C1153 C1150 1.403 . S
C1153 C1154 1.392 . S
C1153 C1157 1.495 . S
C1154 C1153 1.392 . S
C1154 C1155 1.385 . S
C1154 C1156 1.478 . S
C1155 H1149 0.930 . S
C1155 C1151 1.400 . S
C1155 C1154 1.385 . S
C1156 C1154 1.478 . S
C1156 C1158 1.381 . S
C1156 C1162 1.383 . S
C1157 C1153 1.495 . S
C1157 H1163 0.959 . S
C1157 H1164 0.961 . S
C1157 H1165 0.960 . S
C1158 C1156 1.381 . S
C1158 C1159 1.394 . S
C1158 H1166 0.930 . S
C1159 C1158 1.394 . S
C1159 C1160 1.383 . S
C1159 H1167 0.929 . S
C1160 C1159 1.383 . S
C1160 C1161 1.377 . S
C1161 H1145 0.930 . S
C1161 C1160 1.377 . S
C1161 C1162 1.379 . S
C1162 H1146 0.931 . S
C1162 C1156 1.383 . S
C1162 C1161 1.379 . S
H1163 C1157 0.959 . S
H1164 C1157 0.961 . S
H1165 C1157 0.960 . S
H1166 C1158 0.930 . S
H1167 C1159 0.929 . S
H1168 C1176 0.929 . S
H1169 C1178 0.930 . S
H1170 C1180 0.930 . S
H1171 C1183 0.929 . S
H1172 C1186 0.930 . S
H1173 C1188 0.960 . S
H1174 C1188 0.960 . S
H1175 C1188 0.960 . S
C1176 H1168 0.929 . S
C1176 C1177 1.377 . S
C1176 C1178 1.384 . S
C1177 C1176 1.377 . S
C1177 C1183 1.390 . S
C1178 H1169 0.930 . S
C1178 C1176 1.384 . S
C1178 C1179 1.372 . S
C1179 C1178 1.372 . S
C1179 C1180 1.400 . S
C1179 C1184 1.490 . S
C1180 H1170 0.930 . S
C1180 C1179 1.400 . S
C1180 C1183 1.386 . S
H1181 C1197 0.930 . S
H1182 C1198 0.931 . S
C1183 H1171 0.929 . S
C1183 C1177 1.390 . S
C1183 C1180 1.386 . S
C1184 C1179 1.490 . S
C1184 C1186 1.395 . S
C1184 C1187 1.403 1_655 S
H1185 C1191 0.930 . S
C1186 H1172 0.930 . S
C1186 C1184 1.395 . S
C1186 C1189 1.403 . S
C1187 C1184 1.403 1_455 S
C1187 C1188 1.524 . S
C1187 C1191 1.400 . S
C1188 H1173 0.960 . S
C1188 H1174 0.960 . S
C1188 H1175 0.960 . S
C1188 C1187 1.524 . S
C1189 C1186 1.403 . S
C1189 C1190 1.392 . S
C1189 C1193 1.495 . S
C1190 C1189 1.392 . S
C1190 C1191 1.385 1_655 S
C1190 C1192 1.478 . S
C1191 H1185 0.930 . S
C1191 C1187 1.400 . S
C1191 C1190 1.385 1_455 S
C1192 C1190 1.478 . S
C1192 C1194 1.381 . S
C1192 C1198 1.383 . S
C1193 C1189 1.495 . S
C1193 H1199 0.959 . S
C1193 H1200 0.961 . S
C1193 H1201 0.960 . S
C1194 C1192 1.381 . S
C1194 C1195 1.394 . S
C1194 H1202 0.930 . S
C1195 C1194 1.394 . S
C1195 C1196 1.383 . S
C1195 H1203 0.929 . S
C1196 C1195 1.383 . S
C1196 C1197 1.377 . S
C1197 H1181 0.930 . S
C1197 C1196 1.377 . S
C1197 C1198 1.379 . S
C1198 H1182 0.931 . S
C1198 C1192 1.383 . S
C1198 C1197 1.379 . S
H1199 C1193 0.959 . S
H1200 C1193 0.961 . S
H1201 C1193 0.960 . S
H1202 C1194 0.930 . S
H1203 C1195 0.929 . S
H1204 C1212 0.929 . S
H1205 C1214 0.930 . S
H1206 C1216 0.930 . S
H1207 C1219 0.929 . S
H1208 C1222 0.930 . S
H1209 C1224 0.960 . S
H1210 C1224 0.960 . S
H1211 C1224 0.960 . S
C1212 H1204 0.929 . S
C1212 C1213 1.372 1_545 S
C1212 C1214 1.384 . S
C1213 C1212 1.372 1_565 S
C1213 C1219 1.398 . S
C1214 H1205 0.930 . S
C1214 C1212 1.384 . S
C1214 C1215 1.372 1_545 S
C1215 C1214 1.372 1_565 S
C1215 C1216 1.400 . S
C1215 C1220 1.490 . S
C1216 H1206 0.930 . S
C1216 C1215 1.400 . S
C1216 C1219 1.386 . S
H1217 C1233 0.930 . S
H1218 C1234 0.931 . S
C1219 H1207 0.929 . S
C1219 C1213 1.398 . S
C1219 C1216 1.386 . S
C1220 C1215 1.490 . S
C1220 C1222 1.395 . S
C1220 C1223 1.403 1_565 S
H1221 C1227 0.930 . S
C1222 H1208 0.930 . S
C1222 C1220 1.395 . S
C1222 C1225 1.403 . S
C1223 C1220 1.403 1_545 S
C1223 C1224 1.524 . S
C1223 C1227 1.400 . S
C1224 H1209 0.960 . S
C1224 H1210 0.960 . S
C1224 H1211 0.960 . S
C1224 C1223 1.524 . S
C1225 C1222 1.403 . S
C1225 C1226 1.392 . S
C1225 C1229 1.495 . S
C1226 C1225 1.392 . S
C1226 C1227 1.385 1_565 S
C1226 C1228 1.478 . S
C1227 H1221 0.930 . S
C1227 C1223 1.400 . S
C1227 C1226 1.385 1_545 S
C1228 C1226 1.478 . S
C1228 C1230 1.381 1_565 S
C1228 C1234 1.383 . S
C1229 C1225 1.495 . S
C1229 H1235 0.959 . S
C1229 H1236 0.961 . S
C1229 H1237 0.960 . S
C1230 C1228 1.381 1_545 S
C1230 C1231 1.394 . S
C1230 H1238 0.930 . S
C1231 C1230 1.394 . S
C1231 C1232 1.383 1_545 S
C1231 H1239 0.929 . S
C1232 C1231 1.383 1_565 S
C1232 C1233 1.377 . S
C1233 H1217 0.930 . S
C1233 C1232 1.377 . S
C1233 C1234 1.379 . S
C1234 H1218 0.931 . S
C1234 C1228 1.383 . S
C1234 C1233 1.379 . S
H1235 C1229 0.959 . S
H1236 C1229 0.961 . S
H1237 C1229 0.960 . S
H1238 C1230 0.930 . S
H1239 C1231 0.929 . S
H1240 C1248 0.929 . S
H1241 C1250 0.930 . S
H1242 C1252 0.930 . S
H1243 C1255 0.929 . S
H1244 C1258 0.930 . S
H1245 C1260 0.960 . S
H1246 C1260 0.960 . S
H1247 C1260 0.960 . S
C1248 H1240 0.929 . S
C1248 C1249 1.377 . S
C1248 C1250 1.384 . S
C1249 C1248 1.377 . S
C1249 C1255 1.390 . S
C1250 H1241 0.930 . S
C1250 C1248 1.384 . S
C1250 C1251 1.372 . S
C1251 C1250 1.372 . S
C1251 C1252 1.400 . S
C1251 C1256 1.490 . S
C1252 H1242 0.930 . S
C1252 C1251 1.400 . S
C1252 C1255 1.386 . S
H1253 C1269 0.930 . S
H1254 C1270 0.931 . S
C1255 H1243 0.929 . S
C1255 C1249 1.390 . S
C1255 C1252 1.386 . S
C1256 C1251 1.490 . S
C1256 C1258 1.395 . S
C1256 C1259 1.403 . S
H1257 C1263 0.930 . S
C1258 H1244 0.930 . S
C1258 C1256 1.395 . S
C1258 C1261 1.403 . S
C1259 C1256 1.403 . S
C1259 C1260 1.524 . S
C1259 C1263 1.400 . S
C1260 H1245 0.960 . S
C1260 H1246 0.960 . S
C1260 H1247 0.960 . S
C1260 C1259 1.524 . S
C1261 C1258 1.403 . S
C1261 C1262 1.392 . S
C1261 C1265 1.495 . S
C1262 C1261 1.392 . S
C1262 C1263 1.385 . S
C1262 C1264 1.478 . S
C1263 H1257 0.930 . S
C1263 C1259 1.400 . S
C1263 C1262 1.385 . S
C1264 C1262 1.478 . S
C1264 C1266 1.381 . S
C1264 C1270 1.383 . S
C1265 C1261 1.495 . S
C1265 H1271 0.959 . S
C1265 H1272 0.961 . S
C1265 H1273 0.960 . S
C1266 C1264 1.381 . S
C1266 C1267 1.394 . S
C1266 H1274 0.930 . S
C1267 C1266 1.394 . S
C1267 C1268 1.383 . S
C1267 H1275 0.929 . S
C1268 C1267 1.383 . S
C1268 C1269 1.377 . S
C1269 H1253 0.930 . S
C1269 C1268 1.377 . S
C1269 C1270 1.379 . S
C1270 H1254 0.931 . S
C1270 C1264 1.383 . S
C1270 C1269 1.379 . S
H1271 C1265 0.959 . S
H1272 C1265 0.961 . S
H1273 C1265 0.960 . S
H1274 C1266 0.930 . S
H1275 C1267 0.929 . S
H1276 C1284 0.929 . S
H1277 C1286 0.930 . S
H1278 C1288 0.930 . S
H1279 C1291 0.929 . S
H1280 C1294 0.930 . S
H1281 C1296 0.960 . S
H1282 C1296 0.960 . S
H1283 C1296 0.960 . S
C1284 H1276 0.929 . S
C1284 C1285 1.377 . S
C1284 C1286 1.384 . S
C1285 C1284 1.377 . S
C1285 C1291 1.390 . S
C1286 H1277 0.930 . S
C1286 C1284 1.384 . S
C1286 C1287 1.372 . S
C1287 C1286 1.372 . S
C1287 C1288 1.400 . S
C1287 C1292 1.490 . S
C1288 H1278 0.930 . S
C1288 C1287 1.400 . S
C1288 C1291 1.386 . S
H1289 C1305 0.930 . S
H1290 C1306 0.931 . S
C1291 H1279 0.929 . S
C1291 C1285 1.390 . S
C1291 C1288 1.386 . S
C1292 C1287 1.490 . S
C1292 C1294 1.395 . S
C1292 C1295 1.403 . S
H1293 C1299 0.930 . S
C1294 H1280 0.930 . S
C1294 C1292 1.395 . S
C1294 C1297 1.403 . S
C1295 C1292 1.403 . S
C1295 C1296 1.524 . S
C1295 C1299 1.400 . S
C1296 H1281 0.960 . S
C1296 H1282 0.960 . S
C1296 H1283 0.960 . S
C1296 C1295 1.524 . S
C1297 C1294 1.403 . S
C1297 C1298 1.392 . S
C1297 C1301 1.495 . S
C1298 C1297 1.392 . S
C1298 C1299 1.385 . S
C1298 C1300 1.478 . S
C1299 H1293 0.930 . S
C1299 C1295 1.400 . S
C1299 C1298 1.385 . S
C1300 C1298 1.478 . S
C1300 C1302 1.381 . S
C1300 C1306 1.383 . S
C1301 C1297 1.495 . S
C1301 H1307 0.959 . S
C1301 H1308 0.961 . S
C1301 H1309 0.960 . S
C1302 C1300 1.381 . S
C1302 C1303 1.394 . S
C1302 H1310 0.930 . S
C1303 C1302 1.394 . S
C1303 C1304 1.383 . S
C1303 H1311 0.929 . S
C1304 C1303 1.383 . S
C1304 C1305 1.377 . S
C1305 H1289 0.930 . S
C1305 C1304 1.377 . S
C1305 C1306 1.379 . S
C1306 H1290 0.931 . S
C1306 C1300 1.383 . S
C1306 C1305 1.379 . S
H1307 C1301 0.959 . S
H1308 C1301 0.961 . S
H1309 C1301 0.960 . S
H1310 C1302 0.930 . S
H1311 C1303 0.929 . S
C457 C241 1.767 1_565 S
C476 C290 1.849 . S
C512 C330 2.105 . S
C493 C277 2.045 . S
C548 C394 2.268 . S
C529 C169 2.184 . S
C584 C410 1.782 . S
C565 C205 1.629 . S
C620 C311 1.841 . S
C601 C97 1.759 . S
C637 C133 2.085 1_556 S
C656 C351 2.098 . S
C673 C25 2.155 . S
C692 C385 2.288 . S
C709 C61 1.613 . S
C728 C431 1.780 . S
C764 C305 0.267 . S
C745 C211 0.201 . S
C800 C345 0.438 . S
C781 C247 0.393 . S
C836 C381 0.563 . S
C817 C253 0.589 . S
C853 C175 0.328 . S
C872 C425 0.385 . S
C889 C67 0.344 . S
C908 C314 0.413 . S
C944 C354 0.366 . S
C925 C103 0.390 1_565 S
C980 C392 0.521 . S
C961 C109 0.447 . S
C997 C31 0.440 . S
C1016 C434 0.383 . S
C1033 C181 2.476 . S
C1052 C312 2.693 . S
C1069 C217 2.207 . S
C1088 C352 2.397 . S
C1124 C370 1.762 . S
C1105 C283 1.688 . S
C1160 C432 3.009 . S
C1141 C145 2.751 . S
C1177 C37 2.458 . S
C1196 C301 2.703 . S
C1232 C341 2.401 . S
C1213 C73 2.203 1_565 S
C1268 C391 1.781 . S
C1249 C139 1.728 . S
C1285 C1 2.735 . S
C1304 C421 3.020 . S
