# Generated by pormake.
# Topology eea, (3,6)-cn, num edge types: 1
# Building blocks:
#     Node 0, Type 0, BuildingBlock: ESEHIV_clean_linker_0, # of connection points: 3
#     Node 1, Type 0, BuildingBlock: ESEHIV_clean_linker_0, # of connection points: 3
#     Node 2, Type 0, BuildingBlock: ESEHIV_clean_linker_0, # of connection points: 3
#     Node 3, Type 0, BuildingBlock: ESEHIV_clean_linker_0, # of connection points: 3
#     Node 4, Type 0, BuildingBlock: ESEHIV_clean_linker_0, # of connection points: 3
#     Node 5, Type 0, BuildingBlock: ESEHIV_clean_linker_0, # of connection points: 3
#     Node 6, Type 0, BuildingBlock: ESEHIV_clean_linker_0, # of connection points: 3
#     Node 7, Type 0, BuildingBlock: ESEHIV_clean_linker_0, # of connection points: 3
#     Node 8, Type 0, BuildingBlock: ESEHIV_clean_linker_0, # of connection points: 3
#     Node 9, Type 0, BuildingBlock: ESEHIV_clean_linker_0, # of connection points: 3
#     Node 10, Type 0, BuildingBlock: ESEHIV_clean_linker_0, # of connection points: 3
#     Node 11, Type 0, BuildingBlock: ESEHIV_clean_linker_0, # of connection points: 3
#     Node 12, Type 0, BuildingBlock: ESEHIV_clean_linker_0, # of connection points: 3
#     Node 13, Type 0, BuildingBlock: ESEHIV_clean_linker_0, # of connection points: 3
#     Node 14, Type 0, BuildingBlock: ESEHIV_clean_linker_0, # of connection points: 3
#     Node 15, Type 0, BuildingBlock: ESEHIV_clean_linker_0, # of connection points: 3
#     Node 16, Type 0, BuildingBlock: ESEHIV_clean_linker_0, # of connection points: 3
#     Node 17, Type 0, BuildingBlock: ESEHIV_clean_linker_0, # of connection points: 3
#     Node 18, Type 1, BuildingBlock: CUWYAW_clean_sbu_0, # of connection points: 6
#     Node 19, Type 1, BuildingBlock: CUWYAW_clean_sbu_0, # of connection points: 6
#     Node 20, Type 1, BuildingBlock: CUWYAW_clean_sbu_0, # of connection points: 6
#     Node 21, Type 1, BuildingBlock: CUWYAW_clean_sbu_0, # of connection points: 6
#     Node 22, Type 1, BuildingBlock: CUWYAW_clean_sbu_0, # of connection points: 6
#     Node 23, Type 1, BuildingBlock: CUWYAW_clean_sbu_0, # of connection points: 6
#     Node 24, Type 1, BuildingBlock: CUWYAW_clean_sbu_0, # of connection points: 6
#     Node 25, Type 1, BuildingBlock: CUWYAW_clean_sbu_0, # of connection points: 6
#     Node 26, Type 1, BuildingBlock: CUWYAW_clean_sbu_0, # of connection points: 6
#     Edge 27, Type (0, 1), BuildingBlock: UVAHIK_clean_linker_0, # of connection points: 2
#     Edge 28, Type (0, 1), BuildingBlock: UVAHIK_clean_linker_0, # of connection points: 2
#     Edge 29, Type (0, 1), BuildingBlock: UVAHIK_clean_linker_0, # of connection points: 2
#     Edge 30, Type (0, 1), BuildingBlock: UVAHIK_clean_linker_0, # of connection points: 2
#     Edge 31, Type (0, 1), BuildingBlock: UVAHIK_clean_linker_0, # of connection points: 2
#     Edge 32, Type (0, 1), BuildingBlock: UVAHIK_clean_linker_0, # of connection points: 2
#     Edge 33, Type (0, 1), BuildingBlock: UVAHIK_clean_linker_0, # of connection points: 2
#     Edge 34, Type (0, 1), BuildingBlock: UVAHIK_clean_linker_0, # of connection points: 2
#     Edge 35, Type (0, 1), BuildingBlock: UVAHIK_clean_linker_0, # of connection points: 2
#     Edge 36, Type (0, 1), BuildingBlock: UVAHIK_clean_linker_0, # of connection points: 2
#     Edge 37, Type (0, 1), BuildingBlock: UVAHIK_clean_linker_0, # of connection points: 2
#     Edge 38, Type (0, 1), BuildingBlock: UVAHIK_clean_linker_0, # of connection points: 2
#     Edge 39, Type (0, 1), BuildingBlock: UVAHIK_clean_linker_0, # of connection points: 2
#     Edge 40, Type (0, 1), BuildingBlock: UVAHIK_clean_linker_0, # of connection points: 2
#     Edge 41, Type (0, 1), BuildingBlock: UVAHIK_clean_linker_0, # of connection points: 2
#     Edge 42, Type (0, 1), BuildingBlock: UVAHIK_clean_linker_0, # of connection points: 2
#     Edge 43, Type (0, 1), BuildingBlock: UVAHIK_clean_linker_0, # of connection points: 2
#     Edge 44, Type (0, 1), BuildingBlock: UVAHIK_clean_linker_0, # of connection points: 2
#     Edge 45, Type (0, 1), BuildingBlock: UVAHIK_clean_linker_0, # of connection points: 2
#     Edge 46, Type (0, 1), BuildingBlock: UVAHIK_clean_linker_0, # of connection points: 2
#     Edge 47, Type (0, 1), BuildingBlock: UVAHIK_clean_linker_0, # of connection points: 2
#     Edge 48, Type (0, 1), BuildingBlock: UVAHIK_clean_linker_0, # of connection points: 2
#     Edge 49, Type (0, 1), BuildingBlock: UVAHIK_clean_linker_0, # of connection points: 2
#     Edge 50, Type (0, 1), BuildingBlock: UVAHIK_clean_linker_0, # of connection points: 2
#     Edge 51, Type (0, 1), BuildingBlock: UVAHIK_clean_linker_0, # of connection points: 2
#     Edge 52, Type (0, 1), BuildingBlock: UVAHIK_clean_linker_0, # of connection points: 2
#     Edge 53, Type (0, 1), BuildingBlock: UVAHIK_clean_linker_0, # of connection points: 2
#     Edge 54, Type (0, 1), BuildingBlock: UVAHIK_clean_linker_0, # of connection points: 2
#     Edge 55, Type (0, 1), BuildingBlock: UVAHIK_clean_linker_0, # of connection points: 2
#     Edge 56, Type (0, 1), BuildingBlock: UVAHIK_clean_linker_0, # of connection points: 2
#     Edge 57, Type (0, 1), BuildingBlock: UVAHIK_clean_linker_0, # of connection points: 2
#     Edge 58, Type (0, 1), BuildingBlock: UVAHIK_clean_linker_0, # of connection points: 2
#     Edge 59, Type (0, 1), BuildingBlock: UVAHIK_clean_linker_0, # of connection points: 2
#     Edge 60, Type (0, 1), BuildingBlock: UVAHIK_clean_linker_0, # of connection points: 2
#     Edge 61, Type (0, 1), BuildingBlock: UVAHIK_clean_linker_0, # of connection points: 2
#     Edge 62, Type (0, 1), BuildingBlock: UVAHIK_clean_linker_0, # of connection points: 2
#     Edge 63, Type (0, 1), BuildingBlock: UVAHIK_clean_linker_0, # of connection points: 2
#     Edge 64, Type (0, 1), BuildingBlock: UVAHIK_clean_linker_0, # of connection points: 2
#     Edge 65, Type (0, 1), BuildingBlock: UVAHIK_clean_linker_0, # of connection points: 2
#     Edge 66, Type (0, 1), BuildingBlock: UVAHIK_clean_linker_0, # of connection points: 2
#     Edge 67, Type (0, 1), BuildingBlock: UVAHIK_clean_linker_0, # of connection points: 2
#     Edge 68, Type (0, 1), BuildingBlock: UVAHIK_clean_linker_0, # of connection points: 2
#     Edge 69, Type (0, 1), BuildingBlock: UVAHIK_clean_linker_0, # of connection points: 2
#     Edge 70, Type (0, 1), BuildingBlock: UVAHIK_clean_linker_0, # of connection points: 2
#     Edge 71, Type (0, 1), BuildingBlock: UVAHIK_clean_linker_0, # of connection points: 2
#     Edge 72, Type (0, 1), BuildingBlock: UVAHIK_clean_linker_0, # of connection points: 2
#     Edge 73, Type (0, 1), BuildingBlock: UVAHIK_clean_linker_0, # of connection points: 2
#     Edge 74, Type (0, 1), BuildingBlock: UVAHIK_clean_linker_0, # of connection points: 2
#     Edge 75, Type (0, 1), BuildingBlock: UVAHIK_clean_linker_0, # of connection points: 2
#     Edge 76, Type (0, 1), BuildingBlock: UVAHIK_clean_linker_0, # of connection points: 2
#     Edge 77, Type (0, 1), BuildingBlock: UVAHIK_clean_linker_0, # of connection points: 2
#     Edge 78, Type (0, 1), BuildingBlock: UVAHIK_clean_linker_0, # of connection points: 2
#     Edge 79, Type (0, 1), BuildingBlock: UVAHIK_clean_linker_0, # of connection points: 2
#     Edge 80, Type (0, 1), BuildingBlock: UVAHIK_clean_linker_0, # of connection points: 2
# Relax obj value: 0.035
# Max RMSD: 0.133
# Mean RMSD: 0.075
data_MOF--net-eea--node1-CUWYAW_clean_sbu_0--node2-ESEHIV_clean_linker_0--edge1-UVAHIK_clean_linker_0
_symmetry_space_group_name_H-M    P1
_symmetry_Int_Tables_number       1
_symmetry_cell_setting            triclinic
loop_
_symmetry_equiv_pos_as_xyz
'x, y, z'
_cell_length_a     62.989125
_cell_length_b     62.686726
_cell_length_c     91.569234
_cell_angle_alpha  93.541881
_cell_angle_beta   93.485917
_cell_angle_gamma 119.84151
loop_
_atom_site_label
_atom_site_type_symbol
_atom_site_fract_x
_atom_site_fract_y
_atom_site_fract_z
_atom_type_partial_charge
H0 H 0.27974 0.1821 0.42561 0.0
H1 H 0.27799 0.11244 0.4237 0.0
H2 H 0.24673 0.13035 0.38677 0.0
C3 C 0.27515 0.16465 0.41961 0.0
C4 C 0.26242 0.15807 0.40546 0.0
C5 C 0.28103 0.14838 0.42629 0.0
C6 C 0.27455 0.1256 0.41844 0.0
C7 C 0.26207 0.11891 0.40422 0.0
C8 C 0.25627 0.13535 0.39778 0.0
H9 H 0.84304 0.10256 0.42901 0.0
H10 H 0.91091 0.1722 0.43666 0.0
H11 H 0.88977 0.12927 0.39436 0.0
C12 C 0.85965 0.11672 0.42506 0.0
C13 C 0.86436 0.1135 0.41056 0.0
C14 C 0.8764 0.13772 0.43461 0.0
C15 C 0.89788 0.15595 0.42937 0.0
C16 C 0.9028 0.15314 0.41481 0.0
C17 C 0.88595 0.13181 0.40552 0.0
H18 H 0.84967 0.75142 0.4398 0.0
H19 H 0.91844 0.75212 0.442 0.0
H20 H 0.89365 0.77337 0.40363 0.0
C21 C 0.86608 0.75465 0.43486 0.0
C22 C 0.86957 0.76281 0.42083 0.0
C23 C 0.88366 0.75089 0.44264 0.0
C24 C 0.9048 0.75501 0.43609 0.0
C25 C 0.90849 0.76299 0.42197 0.0
C26 C 0.89081 0.76694 0.41445 0.0
H27 H 0.07926 0.24551 0.56025 0.0
H28 H 0.14701 0.24457 0.55997 0.0
H29 H 0.10533 0.22236 0.59717 0.0
C30 C 0.0931 0.2424 0.56571 0.0
C31 C 0.08991 0.23368 0.57964 0.0
C32 C 0.11348 0.24603 0.55847 0.0
C33 C 0.13096 0.24124 0.56538 0.0
C34 C 0.12822 0.23279 0.57935 0.0
C35 C 0.10765 0.22906 0.58642 0.0
H36 H 0.72631 0.8894 0.57669 0.0
H37 H 0.71976 0.81763 0.57458 0.0
H38 H 0.74743 0.8657 0.61517 0.0
C39 C 0.72797 0.8753 0.58207 0.0
C40 C 0.73711 0.87996 0.59697 0.0
C41 C 0.72179 0.8529 0.57392 0.0
C42 C 0.72431 0.83484 0.58089 0.0
C43 C 0.73359 0.83928 0.5958 0.0
C44 C 0.73982 0.86187 0.60375 0.0
H45 H 0.08739 0.82511 0.56622 0.0
H46 H 0.15491 0.89521 0.57171 0.0
H47 H 0.10647 0.87439 0.60577 0.0
C48 C 0.10011 0.84237 0.5728 0.0
C49 C 0.09418 0.84786 0.58655 0.0
C50 C 0.12213 0.85926 0.56739 0.0
C51 C 0.13835 0.88166 0.57601 0.0
C52 C 0.13284 0.88731 0.58983 0.0
C53 C 0.11071 0.8703 0.59502 0.0
H54 H 0.94414 0.51351 0.75675 0.0
H55 H 0.94145 0.44354 0.75714 0.0
H56 H 0.91257 0.46008 0.71857 0.0
C57 C 0.93961 0.49577 0.75119 0.0
C58 C 0.92759 0.48864 0.73683 0.0
C59 C 0.94492 0.4797 0.7586 0.0
C60 C 0.93847 0.45653 0.75133 0.0
C61 C 0.92663 0.44926 0.73695 0.0
C62 C 0.92151 0.46553 0.72974 0.0
H63 H 0.51289 0.43373 0.76608 0.0
H64 H 0.57945 0.50467 0.77179 0.0
H65 H 0.5584 0.45832 0.73075 0.0
C66 C 0.52933 0.4476 0.76183 0.0
C67 C 0.5337 0.44342 0.74739 0.0
C68 C 0.54578 0.46953 0.77078 0.0
C69 C 0.56661 0.48773 0.76497 0.0
C70 C 0.57111 0.48399 0.75044 0.0
C71 C 0.55455 0.46177 0.74175 0.0
H72 H 0.51815 0.08499 0.77551 0.0
H73 H 0.58523 0.08263 0.77594 0.0
H74 H 0.56049 0.10594 0.73853 0.0
C75 C 0.53422 0.08796 0.77023 0.0
C76 C 0.53719 0.09596 0.75614 0.0
C77 C 0.55146 0.08315 0.77745 0.0
C78 C 0.57185 0.0863 0.7704 0.0
C79 C 0.57519 0.09438 0.7563 0.0
C80 C 0.55771 0.09908 0.74923 0.0
H81 H 0.74786 0.5892 0.89445 0.0
H82 H 0.81681 0.59032 0.89584 0.0
H83 H 0.76891 0.55834 0.92939 0.0
C84 C 0.76097 0.58497 0.89977 0.0
C85 C 0.75563 0.57291 0.91264 0.0
C86 C 0.78308 0.59146 0.89369 0.0
C87 C 0.79983 0.58563 0.90055 0.0
C88 C 0.79484 0.57368 0.91341 0.0
C89 C 0.77279 0.56751 0.91942 0.0
H90 H 0.39067 0.22346 0.91033 0.0
H91 H 0.39161 0.15522 0.90609 0.0
H92 H 0.41772 0.2014 0.94728 0.0
C93 C 0.39417 0.21004 0.91522 0.0
C94 C 0.4045 0.21491 0.9299 0.0
C95 C 0.38932 0.18847 0.90659 0.0
C96 C 0.39444 0.17142 0.91285 0.0
C97 C 0.40505 0.17619 0.92746 0.0
C98 C 0.40973 0.19779 0.93595 0.0
H99 H 0.75471 0.15436 0.90006 0.0
H100 H 0.82145 0.22515 0.90514 0.0
H101 H 0.77302 0.20424 0.93922 0.0
C102 C 0.76723 0.17181 0.90653 0.0
C103 C 0.76114 0.1774 0.9202 0.0
C104 C 0.7891 0.18884 0.90104 0.0
C105 C 0.80503 0.21149 0.90952 0.0
C106 C 0.79936 0.21726 0.92327 0.0
C107 C 0.77739 0.20007 0.92853 0.0
H108 H 0.61569 0.84863 0.09144 0.0
H109 H 0.61383 0.77898 0.09112 0.0
H110 H 0.58258 0.79509 0.05338 0.0
C111 C 0.61111 0.83094 0.08578 0.0
C112 C 0.59833 0.82368 0.07162 0.0
C113 C 0.617 0.81502 0.0929 0.0
C114 C 0.61043 0.79189 0.08551 0.0
C115 C 0.59786 0.78451 0.07131 0.0
C116 C 0.59216 0.80064 0.0644 0.0
H117 H 0.17478 0.76863 0.09529 0.0
H118 H 0.24424 0.83668 0.10325 0.0
H119 H 0.22276 0.79354 0.06107 0.0
C120 C 0.19176 0.78231 0.09143 0.0
C121 C 0.19672 0.77855 0.07707 0.0
C122 C 0.20876 0.80319 0.10099 0.0
C123 C 0.23074 0.8208 0.09588 0.0
C124 C 0.236 0.81729 0.08153 0.0
C125 C 0.21888 0.79616 0.0722 0.0
H126 H 0.181 0.41881 0.10599 0.0
H127 H 0.25065 0.42136 0.10959 0.0
H128 H 0.22716 0.44291 0.07088 0.0
C129 C 0.19785 0.42261 0.10141 0.0
C130 C 0.2021 0.43151 0.08757 0.0
C131 C 0.21521 0.41887 0.10945 0.0
C132 C 0.23692 0.42372 0.10335 0.0
C133 C 0.24147 0.43258 0.08948 0.0
C134 C 0.22398 0.43648 0.08169 0.0
H135 H 0.41698 0.92264 0.22798 0.0
H136 H 0.48576 0.92348 0.22903 0.0
H137 H 0.43878 0.89276 0.26315 0.0
C138 C 0.43016 0.91849 0.23328 0.0
C139 C 0.42515 0.90689 0.24631 0.0
C140 C 0.45207 0.92469 0.22702 0.0
C141 C 0.46893 0.91899 0.23387 0.0
C142 C 0.46424 0.90745 0.24687 0.0
C143 C 0.4424 0.90159 0.25307 0.0
H144 H 0.0593 0.5591 0.24317 0.0
H145 H 0.0596 0.49049 0.23983 0.0
H146 H 0.08666 0.5381 0.28049 0.0
C147 C 0.06278 0.5458 0.24824 0.0
C148 C 0.07338 0.55114 0.26288 0.0
C149 C 0.0576 0.52388 0.23988 0.0
C150 C 0.06269 0.50698 0.24638 0.0
C151 C 0.07355 0.51223 0.26096 0.0
C152 C 0.07851 0.53415 0.26917 0.0
H153 H 0.42453 0.48823 0.23455 0.0
H154 H 0.49098 0.55911 0.23896 0.0
H155 H 0.44274 0.53936 0.27313 0.0
C156 C 0.43677 0.50601 0.24077 0.0
C157 C 0.43112 0.51164 0.25458 0.0
C158 C 0.45839 0.52301 0.23507 0.0
C159 C 0.47438 0.54582 0.24334 0.0
C160 C 0.46899 0.55182 0.25712 0.0
C161 C 0.44737 0.53457 0.26269 0.0
C162 C 0.53537 0.02836 0.04232 0.0
Eu163 Eu 0.51382 0.01356 0.01555 0.0
C164 C 0.52814 0.0218 0.05705 0.0
C165 C 0.53847 0.04017 0.06901 0.0
C166 C 0.53143 0.03438 0.08307 0.0
C167 C 0.51393 0.01006 0.08539 0.0
C168 C 0.50352 0.99171 0.07331 0.0
C169 C 0.51053 0.99755 0.05926 0.0
C170 C 0.49662 0.03713 -0.00083 0.0
C171 C 0.45532 0.97256 0.01554 0.0
C172 C 0.46204 0.97022 0.95985 0.0
Eu173 Eu 0.48278 0.98428 0.9868 0.0
C174 C 0.46972 0.97945 0.94563 0.0
C175 C 0.46151 0.96282 0.93285 0.0
C176 C 0.46968 0.97126 0.91938 0.0
C177 C 0.4862 0.99649 0.9185 0.0
C178 C 0.49431 0.01311 0.93135 0.0
C179 C 0.48617 0.00465 0.94481 0.0
C180 C 0.5001 0.96074 0.00314 0.0
C181 C 0.54118 0.02528 0.98688 0.0
O182 O 0.53661 0.01167 0.03367 0.0
O183 O 0.52487 0.039 0.03552 0.0
O184 O 0.51823 0.04825 0.00658 0.0
O185 O 0.48484 0.01467 0.00129 0.0
O186 O 0.47749 0.98475 0.02296 0.0
O187 O 0.45206 0.97202 0.00112 0.0
O188 O 0.45826 0.98448 0.96908 0.0
O189 O 0.4743 0.9609 0.96618 0.0
O190 O 0.4785 0.9496 0.99569 0.0
O191 O 0.51183 0.98321 0.001 0.0
O192 O 0.51895 0.01378 0.97955 0.0
O193 O 0.54443 0.02508 0.00123 0.0
H194 H 0.55191 0.05904 0.06747 0.0
H195 H 0.53953 0.04901 0.09208 0.0
H196 H 0.49023 0.97275 0.07473 0.0
H197 H 0.50225 0.9831 0.05013 0.0
H198 H 0.44891 0.94329 0.93332 0.0
H199 H 0.46293 0.95807 0.90964 0.0
H200 H 0.50729 0.03259 0.93106 0.0
H201 H 0.49293 0.01778 0.95458 0.0
C202 C 0.98664 0.52165 0.04016 0.0
Eu203 Eu 0.989 0.50528 0.01384 0.0
C204 C 0.99033 0.51724 0.05549 0.0
C205 C 0.97079 0.50958 0.06423 0.0
C206 C 0.97381 0.50558 0.07885 0.0
C207 C 0.99656 0.50942 0.08508 0.0
C208 C 0.01609 0.51692 0.07624 0.0
C209 C 0.01299 0.52072 0.06157 0.0
C210 C 0.95893 0.45879 0.00077 0.0
C211 C 0.02747 0.48455 0.01428 0.0
C212 C 0.00655 0.47669 0.95883 0.0
Eu213 Eu 0.00423 0.49311 0.98514 0.0
C214 C 0.00257 0.48077 0.94347 0.0
C215 C 0.02201 0.48844 0.93463 0.0
C216 C 0.01865 0.49189 0.91994 0.0
C217 C 0.99568 0.48747 0.91377 0.0
C218 C 0.97625 0.48 0.92265 0.0
C219 C 0.97968 0.47678 0.9374 0.0
C220 C 0.0342 0.53965 0.99825 0.0
C221 C 0.96574 0.5138 0.98471 0.0
O222 O 0.00615 0.53251 0.03305 0.0
O223 O 0.96763 0.50361 0.03201 0.0
O224 O 0.95112 0.47168 0.00779 0.0
O225 O 0.98205 0.47027 0.0017 0.0
O226 O 0.01956 0.49777 0.02149 0.0
O227 O 0.02054 0.47686 0.00016 0.0
O228 O 0.98715 0.46571 0.96602 0.0
O229 O 0.02551 0.49496 0.96689 0.0
O230 O 0.0421 0.52679 0.99127 0.0
O231 O 0.01109 0.52808 0.99724 0.0
O232 O 0.9737 0.50065 0.97748 0.0
O233 O 0.97269 0.5215 -0.00117 0.0
H234 H 0.95313 0.50671 0.05975 0.0
H235 H 0.95827 0.49943 0.08525 0.0
H236 H 0.03396 0.52039 0.08072 0.0
H237 H 0.0284 0.52658 0.05508 0.0
H238 H 0.03979 0.49154 0.93907 0.0
H239 H 0.03385 0.49738 0.9133 0.0
H240 H 0.95842 0.47667 0.91818 0.0
H241 H 0.96438 0.47101 0.94397 0.0
C242 C 0.45876 0.47378 0.96151 0.0
Eu243 Eu 0.48184 0.49153 0.98778 0.0
C244 C 0.46593 0.47604 0.9465 0.0
C245 C 0.48891 0.49528 0.94359 0.0
C246 C 0.49594 0.49668 0.92933 0.0
C247 C 0.48015 0.47875 0.91781 0.0
C248 C 0.45708 0.45963 0.92081 0.0
C249 C 0.45004 0.45831 0.93505 0.0
C250 C 0.50099 0.53836 0.00031 0.0
C251 C 0.54075 0.51121 0.98709 0.0
C252 C 0.53816 0.52145 0.04278 0.0
Eu253 Eu 0.515 0.50445 0.01648 0.0
C254 C 0.53148 0.51938 0.05797 0.0
C255 C 0.54425 0.51328 0.06841 0.0
C256 C 0.53796 0.51075 0.08282 0.0
C257 C 0.51881 0.51439 0.08709 0.0
C258 C 0.50601 0.52047 0.07656 0.0
C259 C 0.51225 0.52289 0.06213 0.0
C260 C 0.49573 0.4576 0.00386 0.0
C261 C 0.45622 0.48517 0.01718 0.0
O262 O 0.46655 0.46212 0.96965 0.0
O263 O 0.46112 0.49373 0.96861 0.0
O264 O 0.47898 0.52562 0.99346 0.0
O265 O 0.5122 0.52649 -0.00051 0.0
O266 O 0.51829 0.4985 0.98007 0.0
O267 O 0.54454 0.51891 0.00126 0.0
O268 O 0.53124 0.5338 0.03462 0.0
O269 O 0.53517 0.50127 0.03563 0.0
O270 O 0.51781 0.47037 0.01059 0.0
O271 O 0.48459 0.46952 0.0048 0.0
O272 O 0.47872 0.49812 0.02414 0.0
O273 O 0.45237 0.47707 0.00308 0.0
H274 H 0.50149 0.50904 0.95236 0.0
H275 H 0.51393 0.51144 0.92739 0.0
H276 H 0.44443 0.44572 0.91213 0.0
H277 H 0.43227 0.44332 0.93715 0.0
H278 H 0.55904 0.51034 0.06538 0.0
H279 H 0.54795 0.50569 0.09057 0.0
H280 H 0.4914 0.52373 0.07951 0.0
H281 H 0.50207 0.52757 0.05428 0.0
C282 C 0.20174 0.36111 0.37665 0.0
Eu283 Eu 0.18135 0.34887 0.34961 0.0
C284 C 0.19368 0.3516 0.39075 0.0
C285 C 0.20215 0.36794 0.40366 0.0
C286 C 0.19373 0.3593 0.41705 0.0
C287 C 0.1767 0.33414 0.41771 0.0
C288 C 0.16831 0.3178 0.40472 0.0
C289 C 0.17669 0.32646 0.39135 0.0
C290 C 0.16394 0.37325 0.33425 0.0
C291 C 0.1229 0.30742 0.34868 0.0
C292 C 0.12975 0.30919 0.29333 0.0
Eu293 Eu 0.15088 0.32147 0.32021 0.0
C294 C 0.13746 0.31638 0.27876 0.0
C295 C 0.16152 0.32375 0.27554 0.0
C296 C 0.16881 0.33152 0.2618 0.0
C297 C 0.1522 0.33225 0.25115 0.0
C298 C 0.1281 0.32474 0.25443 0.0
C299 C 0.12081 0.31685 0.26813 0.0
C300 C 0.16826 0.29707 0.33563 0.0
C301 C 0.20964 0.36268 0.32117 0.0
O302 O 0.20477 0.34659 0.36717 0.0
O303 O 0.19039 0.37155 0.37057 0.0
O304 O 0.18545 0.38417 0.3418 0.0
O305 O 0.15238 0.35051 0.33572 0.0
O306 O 0.14497 0.3187 0.35622 0.0
O307 O 0.11996 0.30855 0.33441 0.0
O308 O 0.12979 0.32629 0.30229 0.0
O309 O 0.13869 0.2969 0.29984 0.0
O310 O 0.14681 0.28613 0.32802 0.0
O311 O 0.17979 0.31978 0.33411 0.0
O312 O 0.1877 0.35061 0.31345 0.0
O313 O 0.21242 0.36247 0.33555 0.0
H314 H 0.21517 0.38742 0.40337 0.0
H315 H 0.2007 0.37226 0.4269 0.0
H316 H 0.15495 0.29838 0.40485 0.0
H317 H 0.16973 0.31356 0.38147 0.0
H318 H 0.17474 0.32374 0.28367 0.0
H319 H 0.18756 0.33747 0.25963 0.0
H320 H 0.11485 0.32488 0.24638 0.0
H321 H 0.10221 0.31132 0.27047 0.0
C322 C 0.65605 0.85649 0.37408 0.0
Eu323 Eu 0.65826 0.83967 0.34786 0.0
C324 C 0.65963 0.85215 0.38943 0.0
C325 C 0.64048 0.84588 0.39836 0.0
C326 C 0.64337 0.84182 0.41298 0.0
C327 C 0.6656 0.84418 0.41902 0.0
C328 C 0.68473 0.8503 0.41 0.0
C329 C 0.68175 0.85417 0.39533 0.0
C330 C 0.62818 0.79303 0.33499 0.0
C331 C 0.69643 0.81861 0.34852 0.0
C332 C 0.67582 0.81022 0.29305 0.0
Eu333 Eu 0.67347 0.82708 0.31923 0.0
C334 C 0.67261 0.81444 0.27761 0.0
C335 C 0.6926 0.82243 0.26919 0.0
C336 C 0.68994 0.82592 0.25443 0.0
C337 C 0.66713 0.82121 0.24777 0.0
C338 C 0.64715 0.8134 0.25623 0.0
C339 C 0.64988 0.81014 0.27104 0.0
C340 C 0.70348 0.87376 0.33214 0.0
C341 C 0.63511 0.84793 0.31856 0.0
O342 O 0.6756 0.86706 0.36698 0.0
O343 O 0.63695 0.83849 0.36597 0.0
O344 O 0.62037 0.80597 0.34196 0.0
O345 O 0.65129 0.80455 0.33589 0.0
O346 O 0.68873 0.8321 0.35564 0.0
O347 O 0.68939 0.81071 0.33443 0.0
O348 O 0.65613 0.79985 0.30004 0.0
O349 O 0.69493 0.82808 0.30124 0.0
O350 O 0.71135 0.86085 0.3252 0.0
O351 O 0.68037 0.86217 0.33116 0.0
O352 O 0.64306 0.83469 0.31141 0.0
O353 O 0.64201 0.85573 0.33268 0.0
H354 H 0.62323 0.84411 0.39401 0.0
H355 H 0.62812 0.83673 0.41952 0.0
H356 H 0.70221 0.8526 0.41433 0.0
H357 H 0.69683 0.85892 0.38868 0.0
H358 H 0.71027 0.82574 0.274 0.0
H359 H 0.70555 0.83167 0.24812 0.0
H360 H 0.62942 0.80984 0.25138 0.0
H361 H 0.63414 0.80408 0.27728 0.0
C362 C 0.12837 0.80858 0.29358 0.0
Eu363 Eu 0.15082 0.82722 0.31993 0.0
C364 C 0.13563 0.8102 0.2786 0.0
C365 C 0.15878 0.82899 0.27559 0.0
C366 C 0.16571 0.82992 0.26132 0.0
C367 C 0.14963 0.81198 0.24988 0.0
C368 C 0.12643 0.79326 0.253 0.0
C369 C 0.11951 0.79239 0.26725 0.0
C370 C 0.16936 0.87418 0.33202 0.0
C371 C 0.20993 0.84701 0.32015 0.0
C372 C 0.20518 0.85836 0.37563 0.0
Eu373 Eu 0.18315 0.84086 0.34912 0.0
C374 C 0.19762 0.85705 0.39062 0.0
C375 C 0.20848 0.84962 0.40148 0.0
C376 C 0.20129 0.84777 0.4157 0.0
C377 C 0.18325 0.85354 0.41933 0.0
C378 C 0.17239 0.86102 0.40844 0.0
C379 C 0.17942 0.86266 0.39419 0.0
C380 C 0.16431 0.79386 0.33689 0.0
C381 C 0.12421 0.82147 0.34891 0.0
O382 O 0.13615 0.79733 0.3021 0.0
O383 O 0.13056 0.82873 0.30028 0.0
O384 O 0.1476 0.86126 0.32487 0.0
O385 O 0.18072 0.86241 0.33168 0.0
O386 O 0.18766 0.83429 0.31288 0.0
O387 O 0.21331 0.85482 0.33428 0.0
O388 O 0.19932 0.87083 0.36689 0.0
O389 O 0.20195 0.83774 0.36896 0.0
O390 O 0.18624 0.80675 0.34383 0.0
O391 O 0.15314 0.80577 0.33742 0.0
O392 O 0.14651 0.83458 0.35611 0.0
O393 O 0.12084 0.81312 0.33487 0.0
H394 H 0.17152 0.84281 0.28428 0.0
H395 H 0.1838 0.84438 0.25929 0.0
H396 H 0.11353 0.77937 0.24439 0.0
H397 H 0.10159 0.77775 0.26942 0.0
H398 H 0.22252 0.84519 0.39895 0.0
H399 H 0.21013 0.8422 0.42392 0.0
H400 H 0.15825 0.86534 0.41091 0.0
H401 H 0.17056 0.86823 0.38599 0.0
C402 C 0.86921 0.68939 0.70862 0.0
Eu403 Eu 0.84726 0.67864 0.682 0.0
C404 C 0.86157 0.68382 0.72343 0.0
C405 C 0.87275 0.70257 0.73517 0.0
C406 C 0.86557 0.69775 0.74929 0.0
C407 C 0.84709 0.67402 0.75192 0.0
C408 C 0.83581 0.6553 0.74006 0.0
C409 C 0.84293 0.66018 0.72594 0.0
C410 C 0.82791 0.70335 0.6688 0.0
C411 C 0.78866 0.63739 0.68146 0.0
C412 C 0.79393 0.64298 0.62609 0.0
Eu413 Eu 0.81585 0.65324 0.6527 0.0
C414 C 0.80185 0.64952 0.61149 0.0
C415 C 0.82582 0.65615 0.60845 0.0
C416 C 0.83348 0.66355 0.59471 0.0
C417 C 0.81734 0.66465 0.58389 0.0
C418 C 0.7933 0.65781 0.58698 0.0
C419 C 0.78563 0.6503 0.60068 0.0
C420 C 0.83482 0.62831 0.66601 0.0
C421 C 0.8744 0.69437 0.65323 0.0
O422 O 0.86633 0.67087 0.69962 0.0
O423 O 0.86284 0.70376 0.70224 0.0
O424 O 0.84979 0.71426 0.67586 0.0
O425 O 0.81709 0.68041 0.66958 0.0
O426 O 0.81084 0.64882 0.6889 0.0
O427 O 0.78543 0.63902 0.66728 0.0
O428 O 0.79663 0.66124 0.63523 0.0
O429 O 0.80059 0.62867 0.63231 0.0
O430 O 0.81303 0.61755 0.65882 0.0
O431 O 0.84587 0.65125 0.66517 0.0
O432 O 0.85219 0.68311 0.64587 0.0
O433 O 0.8777 0.69267 0.6674 0.0
H434 H 0.88702 0.72098 0.73341 0.0
H435 H 0.87437 0.71267 0.75813 0.0
H436 H 0.82176 0.63675 0.74171 0.0
H437 H 0.83395 0.64542 0.71701 0.0
H438 H 0.8387 0.6559 0.61674 0.0
H439 H 0.85219 0.66899 0.59269 0.0
H440 H 0.78041 0.65826 0.57879 0.0
H441 H 0.76711 0.64535 0.60289 0.0
C442 C 0.32632 0.19143 0.70645 0.0
Eu443 Eu 0.32829 0.1739 0.68038 0.0
C444 C 0.32939 0.18696 0.72185 0.0
C445 C 0.30951 0.17937 0.73032 0.0
C446 C 0.31192 0.17518 0.74496 0.0
C447 C 0.3344 0.17874 0.7515 0.0
C448 C 0.35428 0.18624 0.74295 0.0
C449 C 0.35179 0.19023 0.72826 0.0
C450 C 0.29721 0.12737 0.66768 0.0
C451 C 0.3653 0.1514 0.68159 0.0
C452 C 0.34535 0.14258 0.62597 0.0
Eu453 Eu 0.34319 0.16004 0.65202 0.0
C454 C 0.34154 0.14623 0.61048 0.0
C455 C 0.3612 0.15397 0.60181 0.0
C456 C 0.35805 0.15717 0.58704 0.0
C457 C 0.33508 0.15241 0.58064 0.0
C458 C 0.31541 0.14477 0.58934 0.0
C459 C 0.31863 0.14181 0.60416 0.0
C460 C 0.37415 0.20657 0.66484 0.0
C461 C 0.30607 0.18239 0.65087 0.0
O462 O 0.34602 0.20138 0.69944 0.0
O463 O 0.30701 0.17381 0.69827 0.0
O464 O 0.28996 0.14099 0.67444 0.0
O465 O 0.32032 0.13819 0.66868 0.0
O466 O 0.35781 0.16524 0.68851 0.0
O467 O 0.35852 0.14348 0.66748 0.0
O468 O 0.32591 0.1321 0.63316 0.0
O469 O 0.3644 0.16093 0.63391 0.0
O470 O 0.38154 0.19296 0.65821 0.0
O471 O 0.35105 0.19567 0.66368 0.0
O472 O 0.31336 0.16837 0.64395 0.0
O473 O 0.31324 0.19063 0.66492 0.0
H474 H 0.29204 0.17668 0.72559 0.0
H475 H 0.29612 0.16905 0.75113 0.0
H476 H 0.37197 0.18952 0.74767 0.0
H477 H 0.36747 0.19605 0.722 0.0
H478 H 0.379 0.15739 0.60644 0.0
H479 H 0.37343 0.1628 0.58054 0.0
H480 H 0.29757 0.14118 0.58468 0.0
H481 H 0.30315 0.13595 0.6106 0.0
C482 C 0.7941 0.13906 0.62697 0.0
Eu483 Eu 0.81645 0.15732 0.65337 0.0
C484 C 0.8014 0.141 0.61199 0.0
C485 C 0.82464 0.15976 0.60909 0.0
C486 C 0.83158 0.16101 0.59481 0.0
C487 C 0.81543 0.14341 0.58327 0.0
C488 C 0.79214 0.1247 0.58627 0.0
C489 C 0.7852 0.12353 0.60053 0.0
C490 C 0.83467 0.2041 0.66572 0.0
C491 C 0.87563 0.17767 0.65354 0.0
C492 C 0.8708 0.18806 0.70905 0.0
Eu493 Eu 0.8488 0.17079 0.68252 0.0
C494 C 0.86327 0.18647 0.72406 0.0
C495 C 0.87451 0.17931 0.73487 0.0
C496 C 0.86745 0.17732 0.74912 0.0
C497 C 0.84915 0.18266 0.75283 0.0
C498 C 0.83788 0.18981 0.74199 0.0
C499 C 0.84479 0.19159 0.72771 0.0
C500 C 0.83042 0.124 0.67005 0.0
C501 C 0.78972 0.15084 0.68233 0.0
O502 O 0.80193 0.12773 0.63537 0.0
O503 O 0.7962 0.15908 0.6338 0.0
O504 O 0.81291 0.19112 0.65858 0.0
O505 O 0.84617 0.19249 0.66525 0.0
O506 O 0.85336 0.16465 0.6463 0.0
O507 O 0.87895 0.18545 0.66767 0.0
O508 O 0.86472 0.20051 0.70044 0.0
O509 O 0.86777 0.16761 0.70226 0.0
O510 O 0.85232 0.13701 0.677 0.0
O511 O 0.81901 0.13568 0.67068 0.0
O512 O 0.812 0.16402 0.68956 0.0
O513 O 0.78644 0.1427 0.66827 0.0
H514 H 0.83744 0.17331 0.61788 0.0
H515 H 0.84973 0.17545 0.59286 0.0
H516 H 0.77921 0.11105 0.57757 0.0
H517 H 0.76722 0.10891 0.60262 0.0
H518 H 0.88877 0.17526 0.73227 0.0
H519 H 0.8766 0.17201 0.7573 0.0
H520 H 0.82354 0.19378 0.74453 0.0
H521 H 0.83564 0.19693 0.71955 0.0
C522 C 0.27353 0.82657 0.06915 0.0
C523 C 0.25974 0.83514 0.07639 0.0
C524 C 0.29567 0.84319 0.064 0.0
C525 C 0.34834 0.88358 0.0617 0.0
H526 H 0.3495 0.93383 0.03852 0.0
C527 C 0.43648 0.95592 0.03858 0.0
C528 C 0.43358 0.95894 0.02363 0.0
C529 C 0.41591 0.94252 0.04609 0.0
C530 C 0.34943 0.9199 0.04498 0.0
H531 H 0.25829 0.86776 0.084 0.0
H532 H 0.29709 0.89696 0.07487 0.0
H533 H 0.31241 0.90696 0.04991 0.0
H534 H 0.40678 0.95064 0.00494 0.0
H535 H 0.37097 0.92732 0.01808 0.0
H536 H 0.38517 0.89617 0.05655 0.0
C537 C 0.2907 0.87735 0.0732 0.0
C538 C 0.32831 0.90469 0.0516 0.0
C539 C 0.26863 0.8607 0.0785 0.0
C540 C 0.40968 0.94862 0.01644 0.0
C541 C 0.38914 0.9354 0.02398 0.0
C542 C 0.36953 0.89893 0.05519 0.0
C543 C 0.30441 0.86873 0.06588 0.0
C544 C 0.32743 0.88613 0.05984 0.0
C545 C 0.39204 0.93207 0.03885 0.0
C546 C 0.37017 0.917 0.04659 0.0
H547 H 0.26722 0.80698 0.0675 0.0
H548 H 0.30572 0.836 0.05827 0.0
H549 H 0.34824 0.86957 0.06809 0.0
H550 H 0.45461 0.96367 0.04446 0.0
H551 H 0.41868 0.9404 0.05758 0.0
C552 C 0.19148 0.45788 0.07274 0.0
C553 C 0.18382 0.436 0.07945 0.0
C554 C 0.17418 0.46265 0.06572 0.0
C555 C 0.10982 0.43224 0.04904 0.0
H556 H 0.11889 0.49816 0.05526 0.0
C557 C 0.05297 0.48671 0.03708 0.0
C558 C 0.04421 0.47795 0.0222 0.0
C559 C 0.06946 0.48109 0.04434 0.0
C560 C 0.11599 0.47961 0.05352 0.0
H561 H 0.15207 0.40164 0.08372 0.0
H562 H 0.12186 0.41008 0.07161 0.0
H563 H 0.14887 0.48929 0.06727 0.0
H564 H 0.04574 0.45617 0.00334 0.0
H565 H 0.07453 0.44653 0.01597 0.0
H566 H 0.0768 0.42248 0.03543 0.0
C567 C 0.14124 0.42352 0.07172 0.0
C568 C 0.13332 0.47461 0.06025 0.0
C569 C 0.15852 0.41879 0.07878 0.0
C570 C 0.05207 0.4632 0.01481 0.0
C571 C 0.06848 0.45754 0.02207 0.0
C572 C 0.09254 0.43726 0.04228 0.0
C573 C 0.14887 0.44558 0.06521 0.0
C574 C 0.13046 0.45089 0.05806 0.0
C575 C 0.07747 0.46652 0.03689 0.0
C576 C 0.09546 0.46101 0.04441 0.0
H577 H 0.21084 0.47157 0.07318 0.0
H578 H 0.18064 0.47968 0.06065 0.0
H579 H 0.10719 0.41383 0.04705 0.0
H580 H 0.04725 0.49808 0.04311 0.0
H581 H 0.07585 0.48804 0.05581 0.0
C582 C 0.60425 0.74882 0.0644 0.0
C583 C 0.58899 0.75924 0.06412 0.0
C584 C 0.59549 0.72479 0.05783 0.0
C585 C 0.53783 0.66632 0.04616 0.0
H586 H 0.57763 0.65168 0.0213 0.0
C587 C 0.49728 0.5748 0.0088 0.0
C588 C 0.51166 0.56353 0.00779 0.0
C589 C 0.50728 0.59856 0.01605 0.0
C590 C 0.56642 0.6554 0.02836 0.0
H591 H 0.55252 0.75256 0.05696 0.0
H592 H 0.53741 0.71086 0.04537 0.0
H593 H 0.59431 0.69347 0.03344 0.0
H594 H 0.54775 0.56816 0.01339 0.0
H595 H 0.56517 0.60957 0.02627 0.0
H596 H 0.50994 0.62835 0.04112 0.0
C597 C 0.55607 0.72117 0.0507 0.0
C598 C 0.57597 0.67933 0.03531 0.0
C599 C 0.56483 0.74516 0.05719 0.0
C600 C 0.53625 0.57644 0.01406 0.0
C601 C 0.54626 0.6002 0.02134 0.0
C602 C 0.52831 0.64242 0.03926 0.0
C603 C 0.57126 0.71068 0.05099 0.0
C604 C 0.56167 0.68508 0.04415 0.0
C605 C 0.53187 0.61151 0.02243 0.0
C606 C 0.54239 0.63673 0.03017 0.0
H607 H 0.62298 0.7593 0.06962 0.0
H608 H 0.60755 0.71711 0.0583 0.0
H609 H 0.52654 0.6701 0.05313 0.0
H610 H 0.47828 0.56525 0.00401 0.0
H611 H 0.49582 0.6069 0.0165 0.0
C612 C 0.84168 0.25181 0.93291 0.0
C613 C 0.81601 0.24159 0.93186 0.0
C614 C 0.85735 0.27508 0.9406 0.0
C615 C 0.8592 0.33287 0.95364 0.0
H616 H 0.91683 0.34521 0.97877 0.0
C617 C 0.91724 0.42301 0.99223 0.0
C618 C 0.94292 0.43382 0.99309 0.0
C619 C 0.90196 0.39946 0.98481 0.0
C620 C 0.90096 0.34212 0.97167 0.0
H621 H 0.78668 0.2478 0.93807 0.0
H622 H 0.81399 0.28815 0.95173 0.0
H623 H 0.88968 0.30408 0.96587 0.0
H624 H 0.97286 0.42862 0.98698 0.0
H625 H 0.94616 0.38748 0.97387 0.0
H626 H 0.87044 0.37087 0.95943 0.0
C627 C 0.82202 0.2783 0.94647 0.0
C628 C 0.88541 0.31856 0.96428 0.0
C629 C 0.80636 0.25504 0.9388 0.0
C630 C 0.95309 0.42067 0.98647 0.0
C631 C 0.93781 0.39708 0.97905 0.0
C632 C 0.87473 0.3564 0.96103 0.0
C633 C 0.84769 0.28865 0.94738 0.0
C634 C 0.86431 0.31366 0.95522 0.0
C635 C 0.91206 0.38624 0.97811 0.0
C636 C 0.89575 0.36127 0.97015 0.0
H637 H 0.84968 0.2418 0.92779 0.0
H638 H 0.87705 0.28262 0.94099 0.0
H639 H 0.84335 0.32983 0.94653 0.0
H640 H 0.90894 0.43277 0.99727 0.0
H641 H 0.88221 0.39149 0.98446 0.0
C642 C 0.71908 0.54276 0.92453 0.0
C643 C 0.73217 0.5658 0.91901 0.0
C644 C 0.69761 0.53641 0.93113 0.0
C645 C 0.6637 0.53594 0.95335 0.0
H646 H 0.6139 0.54954 0.93704 0.0
C647 C 0.58608 0.52943 0.9862 0.0
C648 C 0.5622 0.51755 0.9788 0.0
C649 C 0.60637 0.53518 0.97847 0.0
C650 C 0.62759 0.5455 0.94167 0.0
H651 H 0.73273 0.6001 0.91592 0.0
H652 H 0.69505 0.5889 0.9274 0.0
H653 H 0.64988 0.55935 0.92395 0.0
H654 H 0.54096 0.50261 0.9574 0.0
H655 H 0.57649 0.5127 0.9439 0.0
H656 H 0.64145 0.52199 0.97101 0.0
C657 C 0.70137 0.57571 0.9265 0.0
C658 C 0.64827 0.55132 0.93425 0.0
C659 C 0.72294 0.58211 0.91993 0.0
C660 C 0.5591 0.51176 0.96345 0.0
C661 C 0.57945 0.51765 0.9557 0.0
C662 C 0.64314 0.53027 0.96079 0.0
C663 C 0.68865 0.55291 0.93232 0.0
C664 C 0.66653 0.54659 0.94003 0.0
C665 C 0.60328 0.52929 0.96315 0.0
C666 C 0.62489 0.53504 0.95506 0.0
H667 H 0.72542 0.52957 0.92372 0.0
H668 H 0.68796 0.51853 0.93528 0.0
H669 H 0.67758 0.53231 0.95816 0.0
H670 H 0.58917 0.53422 0.99801 0.0
H671 H 0.62454 0.54445 0.98449 0.0
C672 C 0.39773 0.134 0.93183 0.0
C673 C 0.41324 0.15981 0.9335 0.0
C674 C 0.40582 0.11878 0.93753 0.0
C675 C 0.46211 0.11759 0.94907 0.0
H676 H 0.4214 0.0678 0.97374 0.0
C677 C 0.50141 0.07439 0.98808 0.0
C678 C 0.48665 0.04937 0.99012 0.0
C679 C 0.49181 0.08619 0.97979 0.0
C680 C 0.43284 0.0813 0.96667 0.0
H681 H 0.44949 0.18991 0.94208 0.0
H682 H 0.46357 0.1634 0.95203 0.0
H683 H 0.40544 0.09121 0.96152 0.0
H684 H 0.45038 0.01696 0.98512 0.0
H685 H 0.43374 0.03736 0.97029 0.0
H686 H 0.48955 0.10785 0.95421 0.0
C687 C 0.44519 0.15491 0.94635 0.0
C688 C 0.42369 0.09472 0.95969 0.0
C689 C 0.43704 0.17009 0.9408 0.0
C690 C 0.4622 0.03625 0.98362 0.0
C691 C 0.45262 0.048 0.97525 0.0
C692 C 0.47119 0.10407 0.95594 0.0
C693 C 0.42968 0.12912 0.9448 0.0
C694 C 0.43842 0.1133 0.95106 0.0
C695 C 0.46727 0.07317 0.97332 0.0
C696 C 0.45685 0.08609 0.96505 0.0
H697 H 0.37929 0.12565 0.92626 0.0
H698 H 0.39354 0.09893 0.93615 0.0
H699 H 0.4737 0.13156 0.94227 0.0
H700 H 0.52032 0.08492 0.99301 0.0
H701 H 0.50349 0.10569 0.97874 0.0
C702 C 0.72931 0.13452 0.9249 0.0
C703 C 0.7375 0.15995 0.92565 0.0
C704 C 0.7072 0.11829 0.93031 0.0
C705 C 0.66886 0.09246 0.95161 0.0
H706 H 0.61154 0.09977 0.94473 0.0
C707 C 0.58681 0.04954 0.98617 0.0
C708 C 0.56297 0.03889 0.97884 0.0
C709 C 0.60743 0.06261 0.97867 0.0
C710 C 0.6273 0.09732 0.94663 0.0
H711 H 0.72868 0.1882 0.93228 0.0
H712 H 0.69027 0.15995 0.94184 0.0
H713 H 0.64857 0.12557 0.93308 0.0
H714 H 0.54212 0.03348 0.95782 0.0
H715 H 0.5782 0.05637 0.94474 0.0
H716 H 0.64762 0.06429 0.96522 0.0
C717 C 0.70085 0.15252 0.93703 0.0
C718 C 0.64858 0.11226 0.94008 0.0
C719 C 0.72297 0.16874 0.93171 0.0
C720 C 0.56022 0.04149 0.96381 0.0
C721 C 0.58088 0.05469 0.95632 0.0
C722 C 0.64762 0.07761 0.95823 0.0
C723 C 0.69277 0.12714 0.93646 0.0
C724 C 0.66968 0.11018 0.94263 0.0
C725 C 0.6047 0.06541 0.96369 0.0
C726 C 0.62671 0.08007 0.95594 0.0
H727 H 0.74019 0.12725 0.92035 0.0
H728 H 0.70136 0.09879 0.92964 0.0
H729 H 0.68488 0.09055 0.95387 0.0
H730 H 0.58962 0.04789 0.99773 0.0
H731 H 0.62554 0.07094 0.98469 0.0
C732 C 0.81878 0.57202 0.93577 0.0
C733 C 0.81258 0.56743 0.92046 0.0
C734 C 0.83549 0.56612 0.9424 0.0
C735 C 0.885 0.55301 0.93438 0.0
H736 H 0.87253 0.52488 0.9716 0.0
C737 C 0.94225 0.51398 0.9616 0.0
C738 C 0.94891 0.52035 0.97685 0.0
C739 C 0.92579 0.51968 0.95436 0.0
C740 C 0.87636 0.53292 0.96127 0.0
H741 H 0.81873 0.55275 0.90011 0.0
H742 H 0.84773 0.54222 0.91169 0.0
H743 H 0.84334 0.53479 0.95968 0.0
H744 H 0.94366 0.53791 0.9964 0.0
H745 H 0.91509 0.54782 0.98377 0.0
H746 H 0.918 0.55095 0.93598 0.0
C747 C 0.84006 0.55081 0.91855 0.0
C748 C 0.85967 0.53864 0.95445 0.0
C749 C 0.82342 0.5568 0.91191 0.0
C750 C 0.93892 0.53268 0.98465 0.0
C751 C 0.9224 0.53824 0.97744 0.0
C752 C 0.90166 0.54718 0.94118 0.0
C753 C 0.84627 0.55538 0.93387 0.0
C754 C 0.86386 0.5489 0.94097 0.0
C755 C 0.91555 0.53168 0.96225 0.0
C756 C 0.89759 0.53723 0.95475 0.0
H757 H 0.81097 0.58051 0.9426 0.0
H758 H 0.84019 0.57028 0.9542 0.0
H759 H 0.88894 0.56119 0.92409 0.0
H760 H 0.94962 0.50447 0.95526 0.0
H761 H 0.9207 0.51426 0.94265 0.0
C762 C 0.43462 0.25212 0.94692 0.0
C763 C 0.41155 0.23867 0.93857 0.0
C764 C 0.44182 0.27493 0.95467 0.0
C765 C 0.42963 0.32663 0.95558 0.0
H766 H 0.46737 0.34516 0.9939 0.0
C767 C 0.4601 0.41924 0.99057 0.0
C768 C 0.48466 0.43205 0.9969 0.0
C769 C 0.4497 0.39503 0.98389 0.0
C770 C 0.45698 0.34028 0.98317 0.0
H771 H 0.37776 0.23837 0.93197 0.0
H772 H 0.3903 0.27829 0.94564 0.0
H773 H 0.45133 0.30361 0.98166 0.0
H774 H 0.51762 0.42977 0.00132 0.0
H775 H 0.49947 0.38746 0.98969 0.0
H776 H 0.43541 0.36341 0.95712 0.0
C777 C 0.40294 0.27129 0.94602 0.0
C778 C 0.4478 0.31651 0.97615 0.0
C779 C 0.39574 0.24845 0.93822 0.0
C780 C 0.49861 0.42026 0.99655 0.0
C781 C 0.48819 0.39602 0.98996 0.0
C782 C 0.43873 0.3504 0.96264 0.0
C783 C 0.42612 0.28483 0.95429 0.0
C784 C 0.43432 0.30951 0.96218 0.0
C785 C 0.46364 0.38317 0.98355 0.0
C786 C 0.45278 0.35756 0.97642 0.0
H787 H 0.44741 0.2453 0.94717 0.0
H788 H 0.45999 0.28509 0.96068 0.0
H789 H 0.41959 0.32193 0.94475 0.0
H790 H 0.4489 0.42789 0.9908 0.0
H791 H 0.43067 0.3855 0.97916 0.0
C792 C 0.15372 0.74624 0.06685 0.0
C793 C 0.17924 0.75565 0.06743 0.0
C794 C 0.13726 0.72388 0.05847 0.0
C795 C 0.13322 0.6793 0.02838 0.0
H796 H 0.07598 0.63239 0.04614 0.0
C797 C 0.07571 0.57634 0.00592 0.0
C798 C 0.05004 0.56493 0.00556 0.0
C799 C 0.09081 0.60028 0.01288 0.0
C800 C 0.09169 0.6454 0.04094 0.0
H801 H 0.20748 0.74902 0.05961 0.0
H802 H 0.1788 0.71004 0.045 0.0
H803 H 0.10351 0.6733 0.05911 0.0
H804 H 0.01989 0.56948 0.01206 0.0
H805 H 0.04628 0.61139 0.02422 0.0
H806 H 0.12156 0.65126 0.01029 0.0
C807 C 0.1715 0.72011 0.05084 0.0
C808 C 0.10746 0.66886 0.04836 0.0
C809 C 0.18794 0.74246 0.05921 0.0
C810 C 0.03967 0.57785 0.01224 0.0
C811 C 0.05477 0.60178 0.01924 0.0
C812 C 0.11747 0.65584 0.02096 0.0
C813 C 0.14596 0.71044 0.05049 0.0
C814 C 0.12852 0.686 0.04223 0.0
C815 C 0.08052 0.61326 0.01963 0.0
C816 C 0.09666 0.63855 0.02722 0.0
H817 H 0.14647 0.75617 0.0729 0.0
H818 H 0.11771 0.71712 0.05824 0.0
H819 H 0.14907 0.69222 0.02324 0.0
H820 H 0.08417 0.56673 0.00089 0.0
H821 H 0.11058 0.60847 0.01317 0.0
C822 C 0.27336 0.42134 0.08374 0.0
C823 C 0.26454 0.43795 0.08315 0.0
C824 C 0.2948 0.42618 0.07747 0.0
C825 C 0.33083 0.43374 0.05484 0.0
H826 H 0.38759 0.50005 0.05944 0.0
C827 C 0.41072 0.464 0.0186 0.0
C828 C 0.43481 0.47909 0.02549 0.0
C829 C 0.39048 0.45845 0.02635 0.0
C830 C 0.37197 0.4814 0.05816 0.0
H831 H 0.27157 0.47292 0.07584 0.0
H832 H 0.30886 0.48126 0.06477 0.0
H833 H 0.3515 0.49151 0.072 0.0
H834 H 0.45647 0.50003 0.04599 0.0
H835 H 0.42109 0.4903 0.05951 0.0
H836 H 0.35131 0.42363 0.041 0.0
C837 C 0.29927 0.46455 0.07014 0.0
C838 C 0.35122 0.47656 0.06523 0.0
C839 C 0.27778 0.45965 0.07633 0.0
C840 C 0.43818 0.4884 0.04033 0.0
C841 C 0.41791 0.48293 0.04807 0.0
C842 C 0.35154 0.43861 0.04771 0.0
C843 C 0.30795 0.44781 0.07057 0.0
C844 C 0.33037 0.45272 0.06356 0.0
C845 C 0.39384 0.46793 0.04115 0.0
C846 C 0.37226 0.46252 0.04921 0.0
H847 H 0.26346 0.40438 0.08884 0.0
H848 H 0.30116 0.41303 0.07808 0.0
H849 H 0.31498 0.41523 0.05325 0.0
H850 H 0.40743 0.45651 0.00718 0.0
H851 H 0.37216 0.44709 0.02066 0.0
C852 C 0.56542 0.82815 0.05801 0.0
C853 C 0.58965 0.83918 0.06477 0.0
C854 C 0.5569 0.8424 0.05156 0.0
C855 C 0.56843 0.90601 0.05141 0.0
H856 H 0.52673 0.87916 0.01437 0.0
C857 C 0.53549 0.96105 0.01722 0.0
C858 C 0.51079 0.94807 0.01112 0.0
C859 C 0.54589 0.94869 0.02418 0.0
C860 C 0.53816 0.8868 0.02478 0.0
H861 H 0.62393 0.87384 0.07019 0.0
H862 H 0.60902 0.8989 0.05876 0.0
H863 H 0.54408 0.85614 0.02545 0.0
H864 H 0.4774 0.91226 0.00779 0.0
H865 H 0.49554 0.89063 0.01995 0.0
H866 H 0.56246 0.93675 0.05065 0.0
C867 C 0.59659 0.8792 0.05859 0.0
C868 C 0.54811 0.87362 0.03113 0.0
C869 C 0.60513 0.86488 0.0651 0.0
C870 C 0.49654 0.92266 0.01233 0.0
C871 C 0.50695 0.91028 0.01922 0.0
C872 C 0.55851 0.91926 0.04502 0.0
C873 C 0.57239 0.86805 0.05168 0.0
C874 C 0.5631 0.88291 0.04461 0.0
C875 C 0.5318 0.92311 0.02507 0.0
C876 C 0.54303 0.90962 0.03172 0.0
H877 H 0.55287 0.80847 0.05789 0.0
H878 H 0.538 0.83332 0.04663 0.0
H879 H 0.57972 0.91353 0.06187 0.0
H880 H 0.54691 0.98066 0.01636 0.0
H881 H 0.56513 0.959 0.0285 0.0
C882 C 0.92548 0.179 0.39511 0.0
C883 C 0.92585 0.17201 0.40937 0.0
C884 C 0.94729 0.19564 0.38963 0.0
C885 C 0.01417 0.21995 0.3948 0.0
H886 H 0.01625 0.26818 0.36949 0.0
C887 C 0.10333 0.29026 0.37146 0.0
C888 C 0.1009 0.29328 0.35647 0.0
C889 C 0.08249 0.27689 0.37877 0.0
C890 C 0.0159 0.25469 0.37647 0.0
H891 H 0.94943 0.17733 0.42915 0.0
H892 H 0.98749 0.20683 0.4197 0.0
H893 H 0.97891 0.24278 0.38095 0.0
H894 H 0.07461 0.28466 0.33744 0.0
H895 H 0.03837 0.2613 0.35017 0.0
H896 H 0.05113 0.23178 0.39022 0.0
C897 C 0.97033 0.19917 0.41269 0.0
C898 C 0.99451 0.24014 0.38303 0.0
C899 C 0.94849 0.18249 0.41816 0.0
C900 C 0.07718 0.28272 0.34899 0.0
C901 C 0.05638 0.26947 0.3563 0.0
C902 C 0.03559 0.23457 0.38828 0.0
C903 C 0.97001 0.20574 0.3983 0.0
C904 C 0.99328 0.22237 0.39212 0.0
C905 C 0.05879 0.26638 0.37126 0.0
C906 C 0.03658 0.25188 0.37889 0.0
H907 H 0.9083 0.17148 0.38812 0.0
H908 H 0.94638 0.20008 0.37846 0.0
H909 H 0.01374 0.20621 0.40158 0.0
H910 H 0.12132 0.29818 0.37758 0.0
H911 H 0.08493 0.27499 0.39033 0.0
C912 C 0.82591 0.7508 0.41287 0.0
C913 C 0.85123 0.76756 0.41305 0.0
C914 C 0.80861 0.75577 0.40608 0.0
C915 C 0.77687 0.76457 0.38366 0.0
H916 H 0.78742 0.83112 0.38939 0.0
C917 C 0.72024 0.79646 0.34925 0.0
C918 C 0.7129 0.81175 0.35652 0.0
C919 C 0.73634 0.79048 0.35657 0.0
C920 C 0.78411 0.8124 0.38779 0.0
H921 H 0.87829 0.80264 0.40622 0.0
H922 H 0.84807 0.81117 0.39415 0.0
H923 H 0.81716 0.82179 0.40127 0.0
H924 H 0.71653 0.83253 0.37729 0.0
H925 H 0.74462 0.82195 0.39012 0.0
H926 H 0.74372 0.75512 0.37029 0.0
C927 C 0.8416 0.79429 0.39939 0.0
C928 C 0.80129 0.80713 0.39445 0.0
C929 C 0.8589 0.78927 0.40614 0.0
C930 C 0.72185 0.82075 0.37135 0.0
C931 C 0.73805 0.8148 0.37868 0.0
C932 C 0.75974 0.76985 0.37697 0.0
C933 C 0.81627 0.77766 0.39936 0.0
C934 C 0.7979 0.78318 0.3924 0.0
C935 C 0.74552 0.79968 0.37134 0.0
C936 C 0.76323 0.79385 0.37891 0.0
H937 H 0.81946 0.73381 0.41798 0.0
H938 H 0.78923 0.74268 0.40632 0.0
H939 H 0.77384 0.74598 0.3818 0.0
H940 H 0.71374 0.78923 0.33782 0.0
H941 H 0.74199 0.77904 0.35056 0.0
C942 C 0.26903 0.08387 0.39658 0.0
C943 C 0.25358 0.09407 0.3965 0.0
C944 C 0.26061 0.06014 0.38964 0.0
C945 C 0.20337 0.0017 0.37722 0.0
H946 H 0.2444 0.98807 0.35288 0.0
C947 C 0.16491 0.91036 0.33994 0.0
C948 C 0.17959 0.8994 0.33932 0.0
C949 C 0.17444 0.93414 0.34706 0.0
C950 C 0.23283 0.99152 0.35979 0.0
H951 H 0.21713 0.08731 0.38922 0.0
H952 H 0.2026 0.04615 0.37694 0.0
H953 H 0.26032 0.02967 0.36512 0.0
H954 H 0.21578 0.9046 0.34545 0.0
H955 H 0.23238 0.94606 0.3581 0.0
H956 H 0.1759 0.96362 0.37194 0.0
C957 C 0.22116 0.0564 0.38243 0.0
C958 C 0.24195 0.01533 0.36679 0.0
C959 C 0.22959 0.0801 0.38931 0.0
C960 C 0.20404 0.91264 0.34583 0.0
C961 C 0.21358 0.93642 0.35297 0.0
C962 C 0.19429 0.97791 0.37026 0.0
C963 C 0.23652 0.0461 0.38258 0.0
C964 C 0.22724 0.02071 0.37549 0.0
C965 C 0.19886 0.94741 0.3537 0.0
C966 C 0.20884 0.97258 0.36138 0.0
H967 H 0.28766 0.09427 0.40197 0.0
H968 H 0.27281 0.05262 0.39002 0.0
H969 H 0.19176 0.00516 0.38408 0.0
H970 H 0.14601 0.90055 0.33496 0.0
H971 H 0.16273 0.94223 0.34723 0.0
C972 C 0.49147 0.57846 0.28078 0.0
C973 C 0.48565 0.57635 0.2655 0.0
C974 C 0.50724 0.60159 0.2886 0.0
C975 C 0.55549 0.66509 0.28369 0.0
H976 H 0.53981 0.68195 0.32143 0.0
C977 C 0.58655 0.75677 0.32686 0.0
C978 C 0.61224 0.76792 0.32748 0.0
C979 C 0.57139 0.73305 0.31961 0.0
C980 C 0.54437 0.67755 0.31087 0.0
H981 H 0.49137 0.59693 0.24652 0.0
H982 H 0.51888 0.63722 0.26015 0.0
H983 H 0.5126 0.64125 0.30805 0.0
H984 H 0.64234 0.76311 0.32117 0.0
H985 H 0.61586 0.7216 0.30854 0.0
H986 H 0.58696 0.70155 0.28635 0.0
C987 C 0.51162 0.62097 0.26604 0.0
C988 C 0.52893 0.65415 0.30328 0.0
C989 C 0.49585 0.59788 0.25823 0.0
C990 C 0.62256 0.75495 0.32079 0.0
C991 C 0.6074 0.73125 0.31351 0.0
C992 C 0.57095 0.68846 0.29128 0.0
C993 C 0.51752 0.62309 0.28131 0.0
C994 C 0.53425 0.64771 0.28957 0.0
C995 C 0.58164 0.72004 0.31283 0.0
C996 C 0.5655 0.695 0.30492 0.0
H997 H 0.48413 0.56219 0.28665 0.0
H998 H 0.51167 0.6026 0.30033 0.0
H999 H 0.56023 0.66059 0.27322 0.0
H1000 H 0.57815 0.76643 0.33189 0.0
H1001 H 0.55162 0.72506 0.31911 0.0
C1002 C 0.39282 0.9166 0.25367 0.0
C1003 C 0.40194 0.90019 0.25291 0.0
C1004 C 0.37144 0.91056 0.26037 0.0
C1005 C 0.31844 0.88653 0.26819 0.0
H1006 H 0.31158 0.85823 0.30531 0.0
C1007 C 0.22889 0.84716 0.29683 0.0
C1008 C 0.23165 0.85323 0.31213 0.0
C1009 C 0.24945 0.85302 0.2893 0.0
C1010 C 0.31329 0.86624 0.295 0.0
H1011 H 0.39523 0.86418 0.25811 0.0
H1012 H 0.3581 0.85379 0.2699 0.0
H1013 H 0.34782 0.86833 0.2926 0.0
H1014 H 0.2582 0.87027 0.33151 0.0
H1015 H 0.29397 0.88044 0.31836 0.0
H1016 H 0.28398 0.88467 0.2707 0.0
C1017 C 0.36769 0.87147 0.26551 0.0
C1018 C 0.33391 0.87178 0.28764 0.0
C1019 C 0.38897 0.87745 0.25878 0.0
C1020 C 0.25539 0.86528 0.31973 0.0
C1021 C 0.2759 0.87101 0.31221 0.0
C1022 C 0.29771 0.88085 0.27552 0.0
C1023 C 0.3588 0.88804 0.26649 0.0
C1024 C 0.33673 0.88201 0.27418 0.0
C1025 C 0.27315 0.8649 0.29692 0.0
C1026 C 0.29497 0.87072 0.28902 0.0
H1027 H 0.40253 0.93438 0.2494 0.0
H1028 H 0.36517 0.92381 0.26109 0.0
H1029 H 0.32004 0.89424 0.25778 0.0
H1030 H 0.21087 0.83785 0.29063 0.0
H1031 H 0.24674 0.84787 0.27753 0.0
C1032 C 0.06601 0.4702 0.26597 0.0
C1033 C 0.08166 0.49597 0.26727 0.0
C1034 C 0.07399 0.45512 0.27204 0.0
C1035 C 0.13014 0.45404 0.28419 0.0
H1036 H 0.08906 0.40516 0.30921 0.0
C1037 C 0.16876 0.41093 0.32373 0.0
C1038 C 0.15394 0.38584 0.32557 0.0
C1039 C 0.15925 0.42294 0.31555 0.0
C1040 C 0.1006 0.41844 0.30207 0.0
H1041 H 0.11805 0.52615 0.27555 0.0
H1042 H 0.13189 0.49992 0.28617 0.0
H1043 H 0.07336 0.42838 0.29647 0.0
H1044 H 0.11758 0.35356 0.32049 0.0
H1045 H 0.1011 0.37434 0.30589 0.0
H1046 H 0.15742 0.44426 0.28977 0.0
C1047 C 0.11351 0.49133 0.28048 0.0
C1048 C 0.0916 0.43173 0.29479 0.0
C1049 C 0.10549 0.50636 0.27455 0.0
C1050 C 0.12946 0.37291 0.31912 0.0
C1051 C 0.11997 0.38486 0.31088 0.0
C1052 C 0.13908 0.44067 0.29138 0.0
C1053 C 0.09785 0.46559 0.27932 0.0
C1054 C 0.10646 0.44995 0.28599 0.0
C1055 C 0.13475 0.41004 0.30903 0.0
C1056 C 0.12458 0.42301 0.3006 0.0
H1057 H 0.04755 0.46176 0.26042 0.0
H1058 H 0.0616 0.4353 0.27095 0.0
H1059 H 0.14183 0.46772 0.27728 0.0
H1060 H 0.18768 0.42133 0.32865 0.0
H1061 H 0.17101 0.44244 0.31456 0.0
C1062 C 0.38566 0.48137 0.25129 0.0
C1063 C 0.408 0.49388 0.26045 0.0
C1064 C 0.36375 0.46546 0.25699 0.0
C1065 C 0.33951 0.42952 0.28855 0.0
H1066 H 0.28153 0.43411 0.27774 0.0
C1067 C 0.25534 0.38852 0.32131 0.0
C1068 C 0.2318 0.37655 0.31345 0.0
C1069 C 0.27633 0.40146 0.3141 0.0
C1070 C 0.29746 0.43235 0.28071 0.0
H1071 H 0.42498 0.499 0.28268 0.0
H1072 H 0.38674 0.47156 0.29267 0.0
H1073 H 0.31921 0.45891 0.26641 0.0
H1074 H 0.2119 0.36893 0.2918 0.0
H1075 H 0.24865 0.39143 0.27921 0.0
H1076 H 0.31787 0.40319 0.30298 0.0
C1077 C 0.38615 0.47388 0.28106 0.0
C1078 C 0.31904 0.44655 0.27422 0.0
C1079 C 0.40802 0.48982 0.27537 0.0
C1080 C 0.22974 0.37791 0.2982 0.0
C1081 C 0.25079 0.39091 0.29098 0.0
C1082 C 0.31795 0.41534 0.29504 0.0
C1083 C 0.36373 0.46165 0.27196 0.0
C1084 C 0.3404 0.4455 0.2782 0.0
C1085 C 0.27432 0.40278 0.29886 0.0
C1086 C 0.29677 0.41681 0.29133 0.0
H1087 H 0.38501 0.48428 0.23977 0.0
H1088 H 0.34681 0.45612 0.24967 0.0
H1089 H 0.35552 0.42796 0.29166 0.0
H1090 H 0.25764 0.38793 0.33307 0.0
H1091 H 0.29416 0.41074 0.32053 0.0
C1092 C 0.48862 0.90633 0.26919 0.0
C1093 C 0.4821 0.90134 0.25391 0.0
C1094 C 0.50536 0.90049 0.27583 0.0
C1095 C 0.55442 0.88671 0.2678 0.0
H1096 H 0.54228 0.85946 0.3053 0.0
C1097 C 0.61158 0.84784 0.29539 0.0
C1098 C 0.61836 0.85449 0.31061 0.0
C1099 C 0.59516 0.85352 0.28807 0.0
C1100 C 0.54603 0.86725 0.29488 0.0
H1101 H 0.48777 0.88606 0.23362 0.0
H1102 H 0.51685 0.87563 0.24521 0.0
H1103 H 0.51313 0.86934 0.29331 0.0
H1104 H 0.6134 0.87257 0.33004 0.0
H1105 H 0.58492 0.88246 0.31729 0.0
H1106 H 0.58731 0.88444 0.2694 0.0
C1107 C 0.50938 0.88448 0.25204 0.0
C1108 C 0.52936 0.87296 0.28803 0.0
C1109 C 0.4927 0.89041 0.2454 0.0
C1110 C 0.60855 0.86711 0.31831 0.0
C1111 C 0.59209 0.87265 0.31103 0.0
C1112 C 0.57107 0.8809 0.27464 0.0
C1113 C 0.51587 0.88941 0.26734 0.0
C1114 C 0.53343 0.88292 0.27445 0.0
C1115 C 0.58509 0.86579 0.29586 0.0
C1116 C 0.56713 0.87128 0.28831 0.0
H1117 H 0.48101 0.91507 0.276 0.0
H1118 H 0.51029 0.90494 0.2876 0.0
H1119 H 0.55826 0.89464 0.25743 0.0
H1120 H 0.6188 0.8381 0.28912 0.0
H1121 H 0.58996 0.84786 0.27639 0.0
C1122 C 0.06504 0.58509 0.27091 0.0
C1123 C 0.08074 0.57519 0.27129 0.0
C1124 C 0.07242 0.60805 0.27863 0.0
C1125 C 0.11738 0.65312 0.30873 0.0
H1126 H 0.10506 0.70018 0.28984 0.0
C1127 C 0.16759 0.75671 0.32965 0.0
C1128 C 0.1535 0.76835 0.32993 0.0
C1129 C 0.1574 0.73256 0.32297 0.0
C1130 C 0.10837 0.68712 0.29533 0.0
H1131 H 0.11663 0.58176 0.27977 0.0
H1132 H 0.12952 0.62173 0.29313 0.0
H1133 H 0.08931 0.6588 0.27735 0.0
H1134 H 0.11769 0.76398 0.32364 0.0
H1135 H 0.09988 0.72175 0.31186 0.0
H1136 H 0.13682 0.6816 0.32658 0.0
C1137 C 0.1113 0.61159 0.28718 0.0
C1138 C 0.09932 0.66341 0.28819 0.0
C1139 C 0.10392 0.58867 0.27951 0.0
C1140 C 0.12901 0.75545 0.32347 0.0
C1141 C 0.11885 0.73134 0.3167 0.0
C1142 C 0.1265 0.67683 0.31582 0.0
C1143 C 0.09566 0.62157 0.28682 0.0
C1144 C 0.10395 0.64624 0.29475 0.0
C1145 C 0.13294 0.71965 0.3164 0.0
C1146 C 0.12231 0.69415 0.30913 0.0
H1147 H 0.04699 0.575 0.26475 0.0
H1148 H 0.05985 0.61513 0.27827 0.0
H1149 H 0.12087 0.64016 0.3142 0.0
H1150 H 0.18654 0.7663 0.33454 0.0
H1151 H 0.16879 0.72412 0.32275 0.0
C1152 C 0.85625 0.07775 0.39262 0.0
C1153 C 0.84719 0.09047 0.40095 0.0
C1154 C 0.84009 0.05523 0.38432 0.0
C1155 C 0.77649 0.00298 0.38218 0.0
H1156 H 0.79053 0.98564 0.34402 0.0
C1157 C 0.70892 0.91195 0.3461 0.0
C1158 C 0.71931 0.89908 0.33939 0.0
C1159 C 0.72399 0.9359 0.35309 0.0
C1160 C 0.78647 0.99016 0.35472 0.0
H1161 H 0.81409 0.09003 0.40667 0.0
H1162 H 0.78582 0.05075 0.39209 0.0
H1163 H 0.81773 0.02676 0.35689 0.0
H1164 H 0.75345 0.90098 0.33465 0.0
H1165 H 0.77983 0.94278 0.3469 0.0
H1166 H 0.74532 0.96634 0.38004 0.0
C1167 C 0.80543 0.05796 0.3922 0.0
C1168 C 0.80204 0.0137 0.36209 0.0
C1169 C 0.8216 0.08046 0.40053 0.0
C1170 C 0.74499 0.91056 0.33971 0.0
C1171 C 0.76006 0.93452 0.34664 0.0
C1172 C 0.7609 0.97946 0.37479 0.0
C1173 C 0.81448 0.04494 0.38413 0.0
C1174 C 0.79734 0.02033 0.37596 0.0
C1175 C 0.74973 0.94744 0.35344 0.0
C1176 C 0.76582 0.97273 0.36103 0.0
H1177 H 0.87587 0.08482 0.39289 0.0
H1178 H 0.84768 0.04552 0.3784 0.0
H1179 H 0.77255 0.00734 0.39295 0.0
H1180 H 0.68914 0.90354 0.34595 0.0
H1181 H 0.71548 0.94547 0.35809 0.0
C1182 C 0.92924 0.75979 0.40012 0.0
C1183 C 0.93093 0.76763 0.41507 0.0
C1184 C 0.95039 0.7652 0.39339 0.0
C1185 C 0.01595 0.78382 0.40097 0.0
H1186 H 0.02015 0.80578 0.36202 0.0
C1187 C 0.1052 0.82313 0.37195 0.0
C1188 C 0.10245 0.81533 0.35687 0.0
C1189 C 0.08455 0.8173 0.37939 0.0
C1190 C 0.01916 0.79944 0.37283 0.0
H1191 H 0.95613 0.78708 0.43473 0.0
H1192 H 0.99317 0.79659 0.42294 0.0
H1193 H 0.98358 0.7952 0.37442 0.0
H1194 H 0.07581 0.79515 0.33783 0.0
H1195 H 0.03993 0.78489 0.35082 0.0
H1196 H 0.05163 0.78811 0.39934 0.0
C1197 C 0.97542 0.78601 0.41648 0.0
C1198 C 0.99819 0.79335 0.37993 0.0
C1199 C 0.95422 0.78056 0.42323 0.0
C1200 C 0.07863 0.80154 0.34943 0.0
C1201 C 0.05803 0.79577 0.35685 0.0
C1202 C 0.03697 0.78993 0.39385 0.0
C1203 C 0.97375 0.77863 0.40144 0.0
C1204 C 0.99627 0.78533 0.39404 0.0
C1205 C 0.06074 0.80364 0.3719 0.0
C1206 C 0.03874 0.79767 0.37967 0.0
H1207 H 0.91151 0.74941 0.39362 0.0
H1208 H 0.94844 0.75882 0.38186 0.0
H1209 H 0.01491 0.77746 0.41178 0.0
H1210 H 0.12328 0.83378 0.37802 0.0
H1211 H 0.08724 0.82383 0.39095 0.0
C1212 C 0.22961 0.16349 0.39254 0.0
C1213 C 0.25391 0.17403 0.3991 0.0
C1214 C 0.22116 0.17831 0.38678 0.0
C1215 C 0.24193 0.23785 0.37221 0.0
H1216 H 0.17665 0.22524 0.37898 0.0
C1217 C 0.203 0.29735 0.35043 0.0
C1218 C 0.17844 0.28442 0.3441 0.0
C1219 C 0.21279 0.28522 0.35824 0.0
C1220 C 0.19484 0.22885 0.37689 0.0
H1221 H 0.28848 0.20832 0.40474 0.0
H1222 H 0.27363 0.23438 0.39463 0.0
H1223 H 0.19295 0.20164 0.39059 0.0
H1224 H 0.14479 0.24885 0.34096 0.0
H1225 H 0.16196 0.22749 0.35436 0.0
H1226 H 0.24364 0.26471 0.35829 0.0
C1227 C 0.2612 0.2146 0.39393 0.0
C1228 C 0.20417 0.21538 0.38356 0.0
C1229 C 0.26963 0.19974 0.39978 0.0
C1230 C 0.16378 0.25923 0.34576 0.0
C1231 C 0.17357 0.24707 0.35353 0.0
C1232 C 0.23255 0.25129 0.3655 0.0
C1233 C 0.23683 0.20401 0.38742 0.0
C1234 C 0.22768 0.21951 0.38113 0.0
C1235 C 0.19822 0.25991 0.35981 0.0
C1236 C 0.20877 0.24672 0.36763 0.0
H1237 H 0.21697 0.14376 0.39203 0.0
H1238 H 0.20239 0.16958 0.38168 0.0
H1239 H 0.26001 0.24125 0.37003 0.0
H1240 H 0.21473 0.31679 0.34923 0.0
H1241 H 0.23175 0.29568 0.36307 0.0
C1242 C 0.59227 0.50818 0.72985 0.0
C1243 C 0.59358 0.50266 0.7444 0.0
C1244 C 0.61361 0.52407 0.72367 0.0
C1245 C 0.67901 0.57216 0.73241 0.0
H1246 H 0.6844 0.55041 0.69293 0.0
C1247 C 0.76922 0.61992 0.70427 0.0
C1248 C 0.76677 0.6228 0.68925 0.0
C1249 C 0.74839 0.60592 0.71148 0.0
C1250 C 0.6831 0.55692 0.70389 0.0
H1251 H 0.61828 0.50999 0.76401 0.0
H1252 H 0.65561 0.53788 0.75322 0.0
H1253 H 0.64742 0.52551 0.70468 0.0
H1254 H 0.74043 0.61353 0.67013 0.0
H1255 H 0.70432 0.58949 0.68271 0.0
H1256 H 0.71478 0.60364 0.73156 0.0
C1257 C 0.63802 0.53003 0.74663 0.0
C1258 C 0.66188 0.54264 0.71062 0.0
C1259 C 0.61664 0.51408 0.75282 0.0
C1260 C 0.74306 0.61158 0.68167 0.0
C1261 C 0.72231 0.59765 0.68887 0.0
C1262 C 0.70028 0.58651 0.72564 0.0
C1263 C 0.63676 0.53482 0.73191 0.0
C1264 C 0.65951 0.55015 0.72491 0.0
C1265 C 0.7247 0.59451 0.70382 0.0
C1266 C 0.70248 0.57911 0.71126 0.0
H1267 H 0.57473 0.50002 0.72317 0.0
H1268 H 0.61198 0.52781 0.71239 0.0
H1269 H 0.67764 0.5785 0.74339 0.0
H1270 H 0.7872 0.62833 0.71045 0.0
H1271 H 0.75088 0.60368 0.72298 0.0
C1272 C 0.51069 0.09347 0.73374 0.0
C1273 C 0.51898 0.1013 0.74874 0.0
C1274 C 0.49338 0.09833 0.72684 0.0
C1275 C 0.46771 0.13972 0.73024 0.0
H1276 H 0.41421 0.08893 0.703 0.0
C1277 C 0.38886 0.15225 0.70493 0.0
C1278 C 0.38146 0.14442 0.68985 0.0
C1279 C 0.40482 0.14631 0.71255 0.0
C1280 C 0.42917 0.10338 0.71048 0.0
H1281 H 0.51589 0.1207 0.76821 0.0
H1282 H 0.48543 0.12889 0.75621 0.0
H1283 H 0.44395 0.08009 0.71533 0.0
H1284 H 0.38489 0.12404 0.67097 0.0
H1285 H 0.41285 0.11396 0.68419 0.0
H1286 H 0.45307 0.1631 0.7253 0.0
C1287 C 0.49242 0.11912 0.74977 0.0
C1288 C 0.44621 0.09832 0.71753 0.0
C1289 C 0.50967 0.1142 0.75667 0.0
C1290 C 0.39014 0.13031 0.68259 0.0
C1291 C 0.40608 0.12439 0.6902 0.0
C1292 C 0.45069 0.1448 0.72317 0.0
C1293 C 0.48405 0.11121 0.73478 0.0
C1294 C 0.46573 0.11647 0.72744 0.0
C1295 C 0.41371 0.13242 0.70524 0.0
C1296 C 0.43129 0.12673 0.71315 0.0
H1297 H 0.51738 0.08332 0.72737 0.0
H1298 H 0.48749 0.09222 0.71524 0.0
H1299 H 0.48274 0.1542 0.73767 0.0
H1300 H 0.38246 0.16308 0.71087 0.0
H1301 H 0.41011 0.1525 0.72418 0.0
C1302 C 0.89426 0.41 0.72242 0.0
C1303 C 0.91811 0.42407 0.72979 0.0
C1304 C 0.88587 0.38609 0.71589 0.0
C1305 C 0.90691 0.34486 0.70114 0.0
H1306 H 0.8406 0.29324 0.70586 0.0
C1307 C 0.86916 0.24241 0.67976 0.0
C1308 C 0.84476 0.22921 0.67317 0.0
C1309 C 0.8786 0.26608 0.68705 0.0
C1310 C 0.85906 0.3075 0.7043 0.0
H1311 H 0.95192 0.42421 0.73605 0.0
H1312 H 0.93717 0.38221 0.72465 0.0
H1313 H 0.85632 0.33481 0.71794 0.0
H1314 H 0.81116 0.23032 0.66881 0.0
H1315 H 0.82772 0.27184 0.68128 0.0
H1316 H 0.90956 0.31762 0.68735 0.0
C1317 C 0.92506 0.38981 0.72387 0.0
C1318 C 0.86808 0.33129 0.71124 0.0
C1319 C 0.93343 0.41373 0.73048 0.0
C1320 C 0.83002 0.2401 0.67385 0.0
C1321 C 0.83946 0.26379 0.68109 0.0
C1322 C 0.89786 0.32106 0.69415 0.0
C1323 C 0.90115 0.37572 0.71657 0.0
C1324 C 0.89202 0.35026 0.70965 0.0
C1325 C 0.86383 0.27702 0.68782 0.0
C1326 C 0.87377 0.30215 0.69556 0.0
H1327 H 0.88192 0.41735 0.72186 0.0
H1328 H 0.86746 0.37579 0.71021 0.0
H1329 H 0.92535 0.35919 0.69959 0.0
H1330 H 0.88095 0.23444 0.67934 0.0
H1331 H 0.89736 0.27567 0.69224 0.0
C1332 C 0.14068 0.92516 0.60566 0.0
C1333 C 0.14986 0.91137 0.5986 0.0
C1334 C 0.15673 0.94821 0.61346 0.0
C1335 C 0.22019 0.98704 0.63143 0.0
H1336 H 0.20734 0.04073 0.62655 0.0
C1337 C 0.29016 0.08853 0.65365 0.0
C1338 C 0.28063 0.10244 0.66011 0.0
C1339 C 0.27434 0.06502 0.64629 0.0
C1340 C 0.21104 0.02587 0.62816 0.0
H1341 H 0.18307 0.91068 0.59448 0.0
H1342 H 0.21113 0.9511 0.60793 0.0
H1343 H 0.17939 -8e-05 0.61363 0.0
H1344 H 0.24723 0.10275 0.66409 0.0
H1345 H 0.21956 0.06159 0.65142 0.0
H1346 H 0.25187 0.01304 0.64597 0.0
C1347 C 0.1915 0.94401 0.60751 0.0
C1348 C 0.19502 0.00248 0.62076 0.0
C1349 C 0.17545 0.92098 0.59969 0.0
C1350 C 0.25505 0.09242 0.65917 0.0
C1351 C 0.23923 0.06893 0.65183 0.0
C1352 C 0.23622 0.01045 0.63885 0.0
C1353 C 0.18232 0.95796 0.6144 0.0
C1354 C 0.19938 0.98279 0.62233 0.0
C1355 C 0.24868 0.05498 0.64526 0.0
C1356 C 0.2318 0.03012 0.63732 0.0
H1357 H 0.12108 0.91837 0.60492 0.0
H1358 H 0.14907 0.95838 0.61879 0.0
H1359 H 0.22389 0.97217 0.633 0.0
H1360 H 0.30985 0.09586 0.65423 0.0
H1361 H 0.28221 0.05486 0.64121 0.0
C1362 C 0.0548 0.20672 0.59361 0.0
C1363 C 0.0677 0.22862 0.58692 0.0
C1364 C 0.03374 0.20173 0.60034 0.0
C1365 C 0.98194 0.1893 0.60575 0.0
H1366 H 0.98155 0.24096 0.63112 0.0
C1367 C 0.89443 0.17574 0.6305 0.0
C1368 C 0.89736 0.18426 0.64546 0.0
C1369 C 0.91496 0.18175 0.62292 0.0
C1370 C 0.98142 0.22633 0.62411 0.0
H1371 H 0.06875 0.26255 0.58213 0.0
H1372 H 0.03176 0.25373 0.59383 0.0
H1373 H 0.01805 0.25018 0.61881 0.0
H1374 H 0.92423 0.20598 0.66415 0.0
H1375 H 0.95998 0.21632 0.65093 0.0
H1376 H 0.94551 0.16533 0.61125 0.0
C1377 C 0.03806 0.24051 0.59393 0.0
C1378 C 0.00222 0.23167 0.61695 0.0
C1379 C 0.05909 0.24545 0.58712 0.0
C1380 C 0.92128 0.1991 0.65263 0.0
C1381 C 0.9418 0.20518 0.64504 0.0
C1382 C 0.96111 0.184 0.61285 0.0
C1383 C 0.02512 0.21855 0.60057 0.0
C1384 C 0.00276 0.21316 0.60778 0.0
C1385 C 0.93886 0.19649 0.63012 0.0
C1386 C 0.96069 0.2024 0.62219 0.0
H1387 H 0.06083 0.19327 0.5935 0.0
H1388 H 0.02432 0.18478 0.60551 0.0
H1389 H 0.98171 0.17472 0.59863 0.0
H1390 H 0.87627 0.16434 0.62461 0.0
H1391 H 0.91211 0.17501 0.61138 0.0
C1392 C 0.73423 0.81702 0.61754 0.0
C1393 C 0.73863 0.82133 0.60284 0.0
C1394 C 0.74149 0.80227 0.62467 0.0
C1395 C 0.75966 0.75518 0.61862 0.0
H1396 H 0.79699 0.78323 0.65695 0.0
C1397 C 0.83023 0.74168 0.66071 0.0
C1398 C 0.81664 0.71606 0.66144 0.0
C1399 C 0.81947 0.75366 0.65369 0.0
C1400 C 0.78666 0.77522 0.64624 0.0
H1401 H 0.75352 0.81292 0.584 0.0
H1402 H 0.76581 0.78687 0.59639 0.0
H1403 H 0.77932 0.80483 0.64426 0.0
H1404 H 0.78111 0.68289 0.65566 0.0
H1405 H 0.7624 0.70379 0.64321 0.0
H1406 H 0.76734 0.72574 0.62053 0.0
C1407 C 0.75664 0.79483 0.60236 0.0
C1408 C 0.77632 0.78742 0.63905 0.0
C1409 C 0.74952 0.80971 0.59525 0.0
C1410 C 0.7921 0.70263 0.65508 0.0
C1411 C 0.7814 0.71456 0.64796 0.0
C1412 C 0.76984 0.74286 0.62587 0.0
C1413 C 0.75315 0.79138 0.61722 0.0
C1414 C 0.76288 0.77762 0.62513 0.0
C1415 C 0.79497 0.7402 0.64721 0.0
C1416 C 0.78361 0.75288 0.63969 0.0
H1417 H 0.72549 0.82536 0.62361 0.0
H1418 H 0.73823 0.7996 0.63607 0.0
H1419 H 0.74929 0.74717 0.60792 0.0
H1420 H 0.8492 0.75244 0.66552 0.0
H1421 H 0.83042 0.77342 0.65315 0.0
C1422 C 0.06196 0.805 0.591 0.0
C1423 C 0.07048 0.8305 0.59199 0.0
C1424 C 0.03987 0.78884 0.59646 0.0
C1425 C 0.9818 0.78341 0.60693 0.0
H1426 H 0.98055 0.73442 0.63128 0.0
C1427 C 0.92004 0.71908 0.65257 0.0
C1428 C 0.89618 0.70869 0.6453 0.0
C1429 C 0.94064 0.73253 0.64512 0.0
C1430 C 0.98064 0.74804 0.62452 0.0
H1431 H 0.06223 0.85899 0.59908 0.0
H1432 H 0.02386 0.83088 0.60872 0.0
H1433 H 0.01772 0.76072 0.61988 0.0
H1434 H 0.87529 0.70426 0.62447 0.0
H1435 H 0.91133 0.72777 0.61149 0.0
H1436 H 0.94492 0.77114 0.61186 0.0
C1437 C 0.03416 0.82333 0.60369 0.0
C1438 C 0.00182 0.76291 0.61787 0.0
C1439 C 0.05628 0.83946 0.59832 0.0
C1440 C 0.89339 0.71204 0.63041 0.0
C1441 C 0.91404 0.7256 0.62298 0.0
C1442 C 0.96057 0.76845 0.61352 0.0
C1443 C 0.02578 0.79786 0.6029 0.0
C1444 C 0.00274 0.78097 0.60915 0.0
C1445 C 0.93788 0.73598 0.63026 0.0
C1446 C 0.95987 0.75082 0.62254 0.0
H1447 H 0.07259 0.79759 0.58625 0.0
H1448 H 0.03378 0.76928 0.5956 0.0
H1449 H 0.98187 0.797 0.60014 0.0
H1450 H 0.92288 0.71688 0.66403 0.0
H1451 H 0.95876 0.74059 0.6511 0.0
C1452 C 0.1554 0.23556 0.60144 0.0
C1453 C 0.14679 0.22771 0.58648 0.0
C1454 C 0.17304 0.23093 0.6081 0.0
C1455 C 0.22085 0.2155 0.59966 0.0
H1456 H 0.21442 0.19558 0.63915 0.0
C1457 C 0.28095 0.18036 0.6279 0.0
C1458 C 0.28938 0.18894 0.64283 0.0
C1459 C 0.26409 0.18553 0.62064 0.0
C1460 C 0.2166 0.20137 0.62818 0.0
H1461 H 0.14961 0.20851 0.56683 0.0
H1462 H 0.18027 0.20025 0.57847 0.0
H1463 H 0.18374 0.20353 0.6273 0.0
H1464 H 0.28716 0.21018 0.66173 0.0
H1465 H 0.258 0.21924 0.64906 0.0
H1466 H 0.25369 0.21314 0.60056 0.0
C1467 C 0.17374 0.21039 0.585 0.0
C1468 C 0.19904 0.20595 0.62139 0.0
C1469 C 0.15615 0.21508 0.57833 0.0
C1470 C 0.28099 0.20317 0.65025 0.0
C1471 C 0.26413 0.20826 0.64302 0.0
C1472 C 0.2384 0.21083 0.60645 0.0
C1473 C 0.1824 0.21827 0.59996 0.0
C1474 C 0.201 0.21318 0.60708 0.0
C1475 C 0.25528 0.19927 0.62819 0.0
C1476 C 0.23652 0.20385 0.62081 0.0
H1477 H 0.14879 0.24564 0.60794 0.0
H1478 H 0.17961 0.2376 0.61958 0.0
H1479 H 0.22307 0.22134 0.5887 0.0
H1480 H 0.28705 0.16934 0.62186 0.0
H1481 H 0.25748 0.17824 0.60923 0.0
C1482 C 0.76804 0.91695 0.61385 0.0
C1483 C 0.74521 0.9043 0.60522 0.0
C1484 C 0.77613 0.94021 0.6213 0.0
C1485 C 0.76662 0.99377 0.62118 0.0
H1486 H 0.80273 0.01169 0.65999 0.0
C1487 C 0.79547 0.08562 0.65637 0.0
C1488 C 0.81983 0.09855 0.66303 0.0
C1489 C 0.78551 0.06156 0.64956 0.0
C1490 C 0.79282 0.00698 0.64911 0.0
H1491 H 0.71273 0.90584 0.59777 0.0
H1492 H 0.72667 0.94642 0.61097 0.0
H1493 H 0.78637 0.97003 0.64783 0.0
H1494 H 0.85285 0.09659 0.66798 0.0
H1495 H 0.83541 0.05443 0.65616 0.0
H1496 H 0.77301 0.03077 0.62255 0.0
C1497 C 0.73854 0.93854 0.61178 0.0
C1498 C 0.78348 0.98315 0.64213 0.0
C1499 C 0.73052 0.9153 0.60425 0.0
C1500 C 0.834 0.08698 0.66292 0.0
C1501 C 0.82399 0.06285 0.65623 0.0
C1502 C 0.77583 0.01757 0.62821 0.0
C1503 C 0.7615 0.95132 0.62034 0.0
C1504 C 0.77046 0.97632 0.62803 0.0
C1505 C 0.79968 0.04994 0.64944 0.0
C1506 C 0.7892 0.02446 0.64219 0.0
H1507 H 0.77995 0.90911 0.61459 0.0
H1508 H 0.79411 0.94972 0.62755 0.0
H1509 H 0.757 0.98926 0.61023 0.0
H1510 H 0.78408 0.09406 0.65641 0.0
H1511 H 0.76664 0.05194 0.64455 0.0
C1512 C 0.50843 0.39717 0.74486 0.0
C1513 C 0.517 0.41945 0.73846 0.0
C1514 C 0.49303 0.37453 0.7365 0.0
C1515 C 0.47369 0.32953 0.71422 0.0
H1516 H 0.4196 0.32095 0.68711 0.0
C1517 C 0.41612 0.24137 0.67396 0.0
C1518 C 0.39053 0.23142 0.67257 0.0
C1519 C 0.43169 0.26471 0.68155 0.0
C1520 C 0.43456 0.32304 0.69469 0.0
H1521 H 0.51593 0.43548 0.71831 0.0
H1522 H 0.48916 0.3958 0.70362 0.0
H1523 H 0.44636 0.36096 0.70143 0.0
H1524 H 0.36105 0.23799 0.67784 0.0
H1525 H 0.38826 0.27875 0.69125 0.0
H1526 H 0.46168 0.29155 0.70772 0.0
C1527 C 0.49425 0.39591 0.71514 0.0
C1528 C 0.45003 0.34601 0.70277 0.0
C1529 C 0.50975 0.4186 0.72351 0.0
C1530 C 0.38075 0.24528 0.67877 0.0
C1531 C 0.39633 0.26865 0.68635 0.0
C1532 C 0.45829 0.30662 0.70612 0.0
C1533 C 0.48582 0.37363 0.72154 0.0
C1534 C 0.46968 0.34946 0.71268 0.0
C1535 C 0.42197 0.27857 0.68789 0.0
C1536 C 0.43851 0.30308 0.6963 0.0
H1537 H 0.51391 0.39719 0.7563 0.0
H1538 H 0.48663 0.3577 0.74179 0.0
H1539 H 0.48884 0.33167 0.72164 0.0
H1540 H 0.42412 0.23107 0.66924 0.0
H1541 H 0.45138 0.27198 0.68239 0.0
C1542 C 0.62066 0.1108 0.75706 0.0
C1543 C 0.59723 0.0986 0.74906 0.0
C1544 C 0.64154 0.11576 0.75009 0.0
C1545 C 0.66377 0.12302 0.71337 0.0
H1546 H 0.71648 0.11622 0.73242 0.0
C1547 C 0.74411 0.13098 0.68273 0.0
C1548 C 0.76789 0.14449 0.69027 0.0
C1549 C 0.72345 0.12512 0.69012 0.0
C1550 C 0.70202 0.11845 0.72702 0.0
H1551 H 0.57722 0.08132 0.72761 0.0
H1552 H 0.61362 0.08985 0.71545 0.0
H1553 H 0.67992 0.10595 0.74491 0.0
H1554 H 0.78855 0.16231 0.71154 0.0
H1555 H 0.75241 0.15218 0.72441 0.0
H1556 H 0.68581 0.1355 0.69549 0.0
C1557 C 0.61593 0.09601 0.72705 0.0
C1558 C 0.68108 0.11256 0.73418 0.0
C1559 C 0.59507 0.09109 0.73401 0.0
C1560 C 0.77051 0.15188 0.7054 0.0
C1561 C 0.7498 0.14595 0.7128 0.0
C1562 C 0.68466 0.12887 0.70622 0.0
C1563 C 0.63943 0.10861 0.73497 0.0
C1564 C 0.66169 0.11473 0.72741 0.0
C1565 C 0.72604 0.1326 0.70521 0.0
C1566 C 0.704 0.1266 0.71295 0.0
H1567 H 0.62296 0.11711 0.76863 0.0
H1568 H 0.6594 0.12577 0.75647 0.0
H1569 H 0.64939 0.12536 0.70797 0.0
H1570 H 0.74138 0.12492 0.67109 0.0
H1571 H 0.70539 0.11451 0.68401 0.0
C1572 C 0.8961 0.49382 0.72205 0.0
C1573 C 0.91984 0.50448 0.7295 0.0
C1574 C 0.88853 0.50838 0.71505 0.0
C1575 C 0.90133 0.57228 0.71436 0.0
H1576 H 0.86228 0.54612 0.67642 0.0
C1577 C 0.87033 0.62814 0.6796 0.0
C1578 C 0.84575 0.61524 0.67329 0.0
C1579 C 0.88067 0.61559 0.68641 0.0
C1580 C 0.87301 0.55359 0.68706 0.0
H1581 H 0.95423 0.5388 0.73555 0.0
H1582 H 0.94097 0.56441 0.7232 0.0
H1583 H 0.87843 0.52267 0.68831 0.0
H1584 H 0.81265 0.57928 0.66916 0.0
H1585 H 0.83067 0.55732 0.68103 0.0
H1586 H 0.89577 0.6032 0.71307 0.0
C1587 C 0.92819 0.54475 0.7229 0.0
C1588 C 0.88226 0.54017 0.69387 0.0
C1589 C 0.93578 0.53012 0.72995 0.0
C1590 C 0.83168 0.58963 0.67389 0.0
C1591 C 0.84203 0.57707 0.68062 0.0
C1592 C 0.89212 0.58577 0.70751 0.0
C1593 C 0.90451 0.53397 0.7153 0.0
C1594 C 0.89621 0.54917 0.7077 0.0
C1595 C 0.86665 0.5899 0.68691 0.0
C1596 C 0.87757 0.57637 0.69388 0.0
H1597 H 0.88319 0.4742 0.7218 0.0
H1598 H 0.86998 0.49959 0.70959 0.0
H1599 H 0.91183 0.5796 0.72507 0.0
H1600 H 0.88163 0.64789 0.67917 0.0
H1601 H 0.89975 0.62591 0.69104 0.0
C1602 C 0.43906 0.92811 0.20121 0.0
C1603 C 0.45735 0.93668 0.21319 0.0
C1604 C 0.44469 0.93816 0.18781 0.0
C1605 C 0.49733 0.96975 0.16651 0.0
H1606 H 0.45331 0.98267 0.14212 0.0
C1607 C 0.5249 0.01391 0.11259 0.0
C1608 C 0.50694 0.00374 0.10039 0.0
C1609 C 0.51855 0.00736 0.12664 0.0
C1610 C 0.46569 0.97894 0.14876 0.0
H1611 H 0.49545 0.9634 0.22078 0.0
H1612 H 0.50527 0.9809 0.19741 0.0
H1613 H 0.44256 0.96849 0.1663 0.0
H1614 H 0.46805 0.97923 0.09347 0.0
H1615 H 0.45708 0.96727 0.11795 0.0
H1616 H 0.52026 0.97974 0.14898 0.0
C1617 C 0.48672 0.9661 0.19828 0.0
C1618 C 0.45954 0.97086 0.1626 0.0
C1619 C 0.48111 0.95609 0.21166 0.0
C1620 C 0.48239 0.98715 0.10261 0.0
C1621 C 0.47604 0.98054 0.11667 0.0
C1622 C 0.50343 0.97774 0.1527 0.0
C1623 C 0.4687 0.95695 0.18614 0.0
C1624 C 0.47531 0.96616 0.17161 0.0
C1625 C 0.4941 0.9904 0.12882 0.0
C1626 C 0.48769 0.98241 0.14364 0.0
H1627 H 0.42065 0.91303 0.20203 0.0
H1628 H 0.43047 0.93058 0.17861 0.0
H1629 H 0.50963 0.96582 0.17307 0.0
H1630 H 0.54401 0.02656 0.11126 0.0
H1631 H 0.53285 0.01554 0.1358 0.0
C1632 C 0.06123 0.53876 0.215 0.0
C1633 C 0.04911 0.51977 0.224 0.0
C1634 C 0.05424 0.53476 0.19989 0.0
C1635 C 0.00313 0.49736 0.17172 0.0
H1636 H 0.05432 0.51939 0.14535 0.0
C1637 C 0.98949 0.51411 0.11149 0.0
C1638 C 0.00015 0.50638 0.10085 0.0
C1639 C 0.99377 0.51238 0.12639 0.0
C1640 C 0.0398 0.5129 0.15256 0.0
H1641 H 0.02001 0.48183 0.22434 0.0
H1642 H 0.0075 0.4749 0.19778 0.0
H1643 H 0.06526 0.52298 0.17178 0.0
H1644 H 0.02293 0.48987 0.09756 0.0
H1645 H 0.03086 0.48743 0.12366 0.0
H1646 H 0.97772 0.48775 0.15247 0.0
C1647 C 0.02245 0.49283 0.20248 0.0
C1648 C 0.04608 0.51516 0.16768 0.0
C1649 C 0.02965 0.49675 0.21762 0.0
C1650 C 0.01482 0.49644 0.10547 0.0
C1651 C 0.01927 0.49492 0.12039 0.0
C1652 C 0.99686 0.49534 0.15659 0.0
C1653 C 0.03487 0.51175 0.19348 0.0
C1654 C 0.02786 0.5077 0.17741 0.0
C1655 C 0.00897 0.50309 0.131 0.0
C1656 C 0.01518 0.50334 0.14689 0.0
H1657 H 0.07649 0.55659 0.2196 0.0
H1658 H 0.06395 0.54974 0.19322 0.0
H1659 H 0.98875 0.49155 0.17901 0.0
H1660 H 0.97844 0.52224 0.10838 0.0
H1661 H 0.98589 0.51915 0.13435 0.0
C1662 C 0.48829 0.524 0.21786 0.0
C1663 C 0.46407 0.51748 0.22029 0.0
C1664 C 0.49413 0.52098 0.20371 0.0
C1665 C 0.46777 0.4896 0.16621 0.0
H1666 H 0.52529 0.54635 0.15454 0.0
C1667 C 0.48781 0.50139 0.10555 0.0
C1668 C 0.51247 0.51224 0.1025 0.0
C1669 C 0.48197 0.50017 0.12007 0.0
C1670 C 0.5094 0.53016 0.15766 0.0
H1671 H 0.42684 0.50193 0.20983 0.0
H1672 H 0.43704 0.4965 0.18509 0.0
H1673 H 0.51498 0.54686 0.17967 0.0
H1674 H 0.55031 0.53013 0.11239 0.0
H1675 H 0.54009 0.52733 0.13765 0.0
H1676 H 0.46216 0.47294 0.14414 0.0
C1677 C 0.45147 0.50382 0.19417 0.0
C1678 C 0.50348 0.53048 0.17208 0.0
C1679 C 0.44562 0.50691 0.20834 0.0
C1680 C 0.53111 0.52143 0.11432 0.0
C1681 C 0.52527 0.52011 0.12882 0.0
C1682 C 0.47376 0.48922 0.15178 0.0
C1683 C 0.47588 0.51128 0.19168 0.0
C1684 C 0.48255 0.51026 0.1765 0.0
C1685 C 0.50065 0.5097 0.13188 0.0
C1686 C 0.49459 0.50957 0.14732 0.0
H1687 H 0.50282 0.53173 0.22689 0.0
H1688 H 0.51303 0.52647 0.20216 0.0
H1689 H 0.45165 0.47366 0.16935 0.0
H1690 H 0.47298 0.49382 0.09671 0.0
H1691 H 0.46284 0.49224 0.12202 0.0
C1692 C 0.94668 0.49716 0.78437 0.0
C1693 C 0.9552 0.48601 0.77432 0.0
C1694 C 0.95421 0.50053 0.79941 0.0
C1695 C 0.97365 0.47225 0.82661 0.0
H1696 H 0.98985 0.53059 0.85275 0.0
C1697 C 0.97113 0.47071 0.88914 0.0
C1698 C 0.99179 0.48966 0.89795 0.0
C1699 C 0.96814 0.47194 0.87405 0.0
C1700 C 0.98549 0.51425 0.84555 0.0
H1701 H 0.97949 0.47102 0.77212 0.0
H1702 H 0.99227 0.4765 0.79844 0.0
H1703 H 0.9836 0.53087 0.82609 0.0
H1704 H 0.02513 0.5251 0.89803 0.0
H1705 H 0.01976 0.52735 0.87156 0.0
H1706 H 0.97514 0.45546 0.84601 0.0
C1707 C 0.97959 0.48242 0.79464 0.0
C1708 C 0.9818 0.51437 0.83035 0.0
C1709 C 0.97223 0.47925 0.7796 0.0
C1710 C 0.00912 0.51016 0.89145 0.0
C1711 C 0.00598 0.51153 0.87636 0.0
C1712 C 0.97705 0.47204 0.84178 0.0
C1713 C 0.97027 0.49264 0.80471 0.0
C1714 C 0.97574 0.49331 0.82075 0.0
C1715 C 0.98563 0.49226 0.8675 0.0
C1716 C 0.98281 0.49295 0.8514 0.0
H1717 H 0.93328 0.50227 0.78073 0.0
H1718 H 0.94655 0.50822 0.80695 0.0
H1719 H 0.96873 0.45567 0.81948 0.0
H1720 H 0.9576 0.45462 0.89385 0.0
H1721 H 0.95216 0.45695 0.86748 0.0
C1722 C 0.54476 0.49564 0.79248 0.0
C1723 C 0.5412 0.47287 0.78625 0.0
C1724 C 0.53901 0.49805 0.8068 0.0
C1725 C 0.49946 0.4606 0.83372 0.0
H1726 H 0.54321 0.51537 0.86279 0.0
C1727 C 0.48364 0.45785 0.89467 0.0
C1728 C 0.48784 0.4796 0.90278 0.0
C1729 C 0.49053 0.45839 0.88045 0.0
C1730 C 0.53063 0.50014 0.85474 0.0
H1731 H 0.53012 0.43522 0.79046 0.0
H1732 H 0.51981 0.43935 0.81524 0.0
H1733 H 0.55484 0.51422 0.83786 0.0
H1734 H 0.50262 0.51901 0.90235 0.0
H1735 H 0.51445 0.51993 0.87736 0.0
H1736 H 0.47516 0.4465 0.85039 0.0
C1737 C 0.52661 0.4552 0.80899 0.0
C1738 C 0.53733 0.49948 0.84049 0.0
C1739 C 0.53248 0.45283 0.79478 0.0
C1740 C 0.49933 0.50198 0.8964 0.0
C1741 C 0.50613 0.50251 0.8821 0.0
C1742 C 0.49271 0.46133 0.84788 0.0
C1743 C 0.52948 0.4777 0.81508 0.0
C1744 C 0.52196 0.47948 0.82992 0.0
C1745 C 0.50166 0.48067 0.87393 0.0
C1746 C 0.50838 0.48087 0.85864 0.0
H1747 H 0.55131 0.51137 0.78616 0.0
H1748 H 0.54132 0.51559 0.81124 0.0
H1749 H 0.48702 0.44521 0.8257 0.0
H1750 H 0.47527 0.44041 0.8994 0.0
H1751 H 0.48733 0.44132 0.87461 0.0
C1752 C 0.54136 0.08687 0.80315 0.0
C1753 C 0.54806 0.07498 0.79241 0.0
C1754 C 0.53717 0.07869 0.81707 0.0
C1755 C 0.51921 0.02363 0.83627 0.0
H1756 H 0.54199 0.0704 0.87131 0.0
C1757 C 0.50194 0.99227 0.89458 0.0
C1758 C 0.49499 0.00549 0.90423 0.0
C1759 C 0.51026 0.00083 0.88116 0.0
C1760 C 0.53532 0.05711 0.86162 0.0
H1761 H 0.55586 0.04537 0.78784 0.0
H1762 H 0.54858 0.03106 0.8123 0.0
H1763 H 0.55365 0.0854 0.84748 0.0
H1764 H 0.49095 0.03781 0.90728 0.0
H1765 H 0.50522 0.05263 0.88383 0.0
H1766 H 0.50043 0.99538 0.85034 0.0
C1767 C 0.54649 0.04665 0.80988 0.0
C1768 C 0.54205 0.0657 0.84798 0.0
C1769 C 0.55085 0.05496 0.79595 0.0
C1770 C 0.49652 0.02742 0.90017 0.0
C1771 C 0.50476 0.03593 0.88675 0.0
C1772 C 0.51239 0.01503 0.84991 0.0
C1773 C 0.53949 0.05838 0.82055 0.0
C1774 C 0.53382 0.04909 0.83514 0.0
C1775 C 0.51174 0.02275 0.87708 0.0
C1776 C 0.52012 0.03171 0.86271 0.0
H1777 H 0.5393 0.1025 0.80076 0.0
H1778 H 0.53156 0.08794 0.82501 0.0
H1779 H 0.51236 0.01041 0.82654 0.0
H1780 H 0.50129 0.97549 0.89751 0.0
H1781 H 0.5158 0.99042 0.87406 0.0
C1782 C 0.11345 0.27439 0.5403 0.0
C1783 C 0.11646 0.25439 0.54357 0.0
C1784 C 0.11739 0.28285 0.52639 0.0
C1785 C 0.12074 0.26423 0.488 0.0
H1786 H 0.16285 0.33454 0.48584 0.0
C1787 C 0.16574 0.3027 0.43574 0.0
C1788 C 0.16773 0.32492 0.4319 0.0
C1789 C 0.15748 0.29405 0.44913 0.0
C1790 C 0.15073 0.3149 0.48622 0.0
H1791 H 0.12513 0.22704 0.53477 0.0
H1792 H 0.13209 0.24184 0.51055 0.0
H1793 H 0.1513 0.3193 0.50964 0.0
H1794 H 0.16216 0.35527 0.43894 0.0
H1795 H 0.14755 0.34009 0.46233 0.0
H1796 H 0.12025 0.25973 0.46462 0.0
C1797 C 0.12666 0.25097 0.51868 0.0
C1798 C 0.14413 0.30618 0.49986 0.0
C1799 C 0.12292 0.24266 0.53259 0.0
C1800 C 0.16114 0.33826 0.4417 0.0
C1801 C 0.15278 0.32956 0.45509 0.0
C1802 C 0.12722 0.27293 0.47436 0.0
C1803 C 0.12414 0.27127 0.51547 0.0
C1804 C 0.12939 0.28072 0.5009 0.0
C1805 C 0.1509 0.30737 0.45897 0.0
C1806 C 0.14262 0.29833 0.47334 0.0
H1807 H 0.10858 0.28382 0.54859 0.0
H1808 H 0.11516 0.29844 0.52417 0.0
H1809 H 0.10903 0.24453 0.48845 0.0
H1810 H 0.17102 0.2922 0.4285 0.0
H1811 H 0.15671 0.27714 0.45189 0.0
C1812 C 0.69394 0.827 0.55133 0.0
C1813 C 0.71442 0.84916 0.5579 0.0
C1814 C 0.68739 0.82358 0.53614 0.0
C1815 C 0.71296 0.84505 0.5015 0.0
H1816 H 0.6457 0.82305 0.48617 0.0
C1817 C 0.68232 0.82942 0.43922 0.0
C1818 C 0.66904 0.84091 0.43476 0.0
C1819 C 0.68645 0.8274 0.4541 0.0
C1820 C 0.66453 0.82914 0.49031 0.0
H1821 H 0.74435 0.88487 0.55378 0.0
H1822 H 0.73295 0.87891 0.52729 0.0
H1823 H 0.65602 0.82551 0.51266 0.0
H1824 H 0.64959 0.85915 0.44254 0.0
H1825 H 0.65647 0.85523 0.46843 0.0
H1826 H 0.72162 0.84919 0.47924 0.0
C1827 C 0.72195 0.86421 0.53385 0.0
C1828 C 0.67038 0.83036 0.50542 0.0
C1829 C 0.72831 0.86772 0.54902 0.0
C1830 C 0.65953 0.84982 0.44552 0.0
C1831 C 0.66348 0.84761 0.46038 0.0
C1832 C 0.70707 0.84359 0.48639 0.0
C1833 C 0.70145 0.84212 0.52726 0.0
C1834 C 0.69475 0.83876 0.51117 0.0
C1835 C 0.67721 0.83663 0.46483 0.0
C1836 C 0.68288 0.83602 0.48068 0.0
H1837 H 0.68291 0.81243 0.55796 0.0
H1838 H 0.67155 0.80635 0.5313 0.0
H1839 H 0.73185 0.85137 0.50564 0.0
H1840 H 0.68953 0.82195 0.43121 0.0
H1841 H 0.69689 0.81863 0.45723 0.0
C1842 C 0.15208 0.86129 0.54986 0.0
C1843 C 0.1278 0.85431 0.55245 0.0
C1844 C 0.1579 0.85896 0.5356 0.0
C1845 C 0.13202 0.82817 0.49811 0.0
H1846 H 0.18743 0.88681 0.48626 0.0
C1847 C 0.17127 0.83156 0.44201 0.0
C1848 C 0.17606 0.85214 0.43451 0.0
C1849 C 0.16496 0.83051 0.45643 0.0
C1850 C 0.17189 0.87032 0.48941 0.0
H1851 H 0.09046 0.83863 0.54209 0.0
H1852 H 0.10062 0.83415 0.51722 0.0
H1853 H 0.17723 0.88646 0.51156 0.0
H1854 H 0.17811 0.88777 0.43618 0.0
H1855 H 0.1672 0.88601 0.4614 0.0
H1856 H 0.12664 0.81214 0.47586 0.0
C1857 C 0.1151 0.8414 0.52626 0.0
C1858 C 0.1662 0.87003 0.50391 0.0
C1859 C 0.10929 0.84392 0.54052 0.0
C1860 C 0.17434 0.87161 0.44167 0.0
C1861 C 0.16832 0.87069 0.45613 0.0
C1862 C 0.1379 0.82837 0.48361 0.0
C1863 C 0.13954 0.84937 0.52363 0.0
C1864 C 0.14611 0.84903 0.50839 0.0
C1865 C 0.16364 0.85018 0.46366 0.0
C1866 C 0.15775 0.84954 0.4791 0.0
H1867 H 0.16669 0.86889 0.55884 0.0
H1868 H 0.17684 0.86489 0.5339 0.0
H1869 H 0.11651 0.81171 0.50129 0.0
H1870 H 0.17229 0.81621 0.4367 0.0
H1871 H 0.16157 0.81454 0.46202 0.0
C1872 C 0.64511 0.81469 0.11346 0.0
C1873 C 0.62782 0.82133 0.10851 0.0
C1874 C 0.65293 0.81784 0.12844 0.0
C1875 C 0.65558 0.84931 0.16447 0.0
H1876 H 0.64946 0.7903 0.17968 0.0
C1877 C 0.68154 0.8442 0.22564 0.0
C1878 C 0.664 0.82349 0.2319 0.0
C1879 C 0.679 0.84577 0.21054 0.0
C1880 C 0.65125 0.80691 0.17558 0.0
H1881 H 0.60588 0.83728 0.11545 0.0
H1882 H 0.61994 0.84318 0.14151 0.0
H1883 H 0.64309 0.79094 0.1532 0.0
H1884 H 0.63015 0.7882 0.22732 0.0
H1885 H 0.62577 0.7909 0.20092 0.0
H1886 H 0.66335 0.86509 0.18695 0.0
C1887 C 0.62748 0.83565 0.13377 0.0
C1888 C 0.64788 0.80738 0.16043 0.0
C1889 C 0.61949 0.83231 0.11882 0.0
C1890 C 0.64382 0.80447 0.2228 0.0
C1891 C 0.64145 0.8059 0.2077 0.0
C1892 C 0.65923 0.84894 0.17965 0.0
C1893 C 0.64381 0.82789 0.13876 0.0
C1894 C 0.64968 0.82845 0.15474 0.0
C1895 C 0.65908 0.82649 0.20141 0.0
C1896 C 0.6567 0.82758 0.18534 0.0
H1897 H 0.65221 0.80659 0.10578 0.0
H1898 H 0.6658 0.812 0.13199 0.0
H1899 H 0.65717 0.86582 0.16035 0.0
H1900 H 0.69719 0.85919 0.23244 0.0
H1901 H 0.69288 0.8618 0.20595 0.0
C1902 C 0.20915 0.82881 0.12342 0.0
C1903 C 0.20391 0.80582 0.11649 0.0
C1904 C 0.20393 0.83087 0.13792 0.0
C1905 C 0.16441 0.79331 0.16502 0.0
H1906 H 0.2111 0.84668 0.19398 0.0
C1907 C 0.15189 0.7906 0.22651 0.0
C1908 C 0.157 0.81257 0.23476 0.0
C1909 C 0.15814 0.79089 0.21214 0.0
C1910 C 0.19774 0.83184 0.18597 0.0
H1911 H 0.19012 0.76722 0.11957 0.0
H1912 H 0.18084 0.77078 0.14469 0.0
H1913 H 0.22102 0.84542 0.16865 0.0
H1914 H 0.17283 0.85215 0.23444 0.0
H1915 H 0.18363 0.85266 0.20922 0.0
H1916 H 0.14109 0.77969 0.18221 0.0
C1917 C 0.18852 0.78711 0.13885 0.0
C1918 C 0.20344 0.83112 0.17148 0.0
C1919 C 0.1938 0.78508 0.12445 0.0
C1920 C 0.16885 0.83494 0.22839 0.0
C1921 C 0.17505 0.83523 0.21396 0.0
C1922 C 0.15869 0.79406 0.17945 0.0
C1923 C 0.19331 0.80996 0.14571 0.0
C1924 C 0.18694 0.81166 0.16091 0.0
C1925 C 0.16957 0.81316 0.20563 0.0
C1926 C 0.17541 0.81314 0.19015 0.0
H1927 H 0.21681 0.8451 0.11755 0.0
H1928 H 0.20769 0.84869 0.1429 0.0
H1929 H 0.15111 0.77835 0.15705 0.0
H1930 H 0.14321 0.77314 0.23122 0.0
H1931 H 0.15415 0.77364 0.20615 0.0
C1932 C 0.21626 0.3924 0.12875 0.0
C1933 C 0.21068 0.4103 0.12431 0.0
C1934 C 0.21095 0.38371 0.14254 0.0
C1935 C 0.16987 0.37661 0.17085 0.0
H1936 H 0.21674 0.36996 0.19682 0.0
C1937 C 0.15373 0.35769 0.23082 0.0
C1938 C 0.16 0.34117 0.23672 0.0
C1939 C 0.16058 0.36581 0.21712 0.0
C1940 C 0.20333 0.3714 0.18961 0.0
H1941 H 0.19624 0.43392 0.13117 0.0
H1942 H 0.18666 0.41849 0.15505 0.0
H1943 H 0.22764 0.38457 0.17274 0.0
H1944 H 0.17845 0.32026 0.23297 0.0
H1945 H 0.19017 0.33418 0.20887 0.0
H1946 H 0.14544 0.36327 0.18752 0.0
C1947 C 0.19477 0.41091 0.14778 0.0
C1948 C 0.2096 0.3798 0.17585 0.0
C1949 C 0.20021 0.4197 0.13409 0.0
C1950 C 0.17354 0.33316 0.22872 0.0
C1951 C 0.18028 0.34117 0.21494 0.0
C1952 C 0.16355 0.36808 0.18453 0.0
C1953 C 0.19984 0.39266 0.15209 0.0
C1954 C 0.19302 0.38276 0.16642 0.0
C1955 C 0.17373 0.35748 0.20894 0.0
C1956 C 0.18029 0.36565 0.19416 0.0
H1957 H 0.22415 0.38465 0.12143 0.0
H1958 H 0.21491 0.36952 0.14556 0.0
H1959 H 0.15655 0.37827 0.16369 0.0
H1960 H 0.14369 0.36454 0.23687 0.0
H1961 H 0.15572 0.37881 0.21299 0.0
C1962 C 0.81252 0.62313 0.8786 0.0
C1963 C 0.78865 0.60377 0.87997 0.0
C1964 C 0.81846 0.63328 0.86528 0.0
C1965 C 0.79228 0.63861 0.82944 0.0
H1966 H 0.85247 0.64561 0.81606 0.0
C1967 C 0.81531 0.65302 0.76938 0.0
C1968 C 0.84002 0.66863 0.76702 0.0
C1969 C 0.80889 0.64708 0.78352 0.0
C1970 C 0.83581 0.64418 0.81971 0.0
H1971 H 0.75206 0.58043 0.86858 0.0
H1972 H 0.76244 0.59827 0.84528 0.0
H1973 H 0.84145 0.63223 0.8402 0.0
H1974 H 0.8773 0.6905 0.77777 0.0
H1975 H 0.86602 0.68076 0.80243 0.0
H1976 H 0.78662 0.65047 0.80886 0.0
C1977 C 0.7765 0.60568 0.85456 0.0
C1978 C 0.82949 0.63647 0.83355 0.0
C1979 C 0.77056 0.59547 0.8679 0.0
C1980 C 0.85807 0.67861 0.77918 0.0
C1981 C 0.85164 0.67276 0.79332 0.0
C1982 C 0.79868 0.64645 0.81558 0.0
C1983 C 0.80064 0.62434 0.85304 0.0
C1984 C 0.80762 0.6335 0.83855 0.0
C1985 C 0.82702 0.65668 0.79563 0.0
C1986 C 0.82047 0.64921 0.81054 0.0
H1987 H 0.82672 0.63026 0.8878 0.0
H1988 H 0.8371 0.64796 0.86452 0.0
H1989 H 0.77542 0.63669 0.83307 0.0
H1990 H 0.8009 0.6453 0.76028 0.0
H1991 H 0.78978 0.63447 0.78489 0.0
C1992 C 0.36204 0.16211 0.88394 0.0
C1993 C 0.38128 0.18498 0.89067 0.0
C1994 C 0.35535 0.15876 0.86876 0.0
C1995 C 0.38042 0.18237 0.83453 0.0
H1996 H 0.31257 0.15542 0.81838 0.0
C1997 C 0.35164 0.16515 0.77207 0.0
C1998 C 0.3373 0.17535 0.76727 0.0
C1999 C 0.35545 0.16326 0.78701 0.0
C2000 C 0.33157 0.16288 0.82276 0.0
H2001 H 0.40877 0.22212 0.88688 0.0
H2002 H 0.39715 0.21624 0.86042 0.0
H2003 H 0.32249 0.15839 0.84499 0.0
H2004 H 0.31549 0.19128 0.77449 0.0
H2005 H 0.3218 0.18754 0.80049 0.0
H2006 H 0.38962 0.18726 0.81241 0.0
C2007 C 0.3872 0.20096 0.86685 0.0
C2008 C 0.3372 0.16443 0.83793 0.0
C2009 C 0.39367 0.2044 0.882 0.0
C2010 C 0.32631 0.18297 0.77774 0.0
C2011 C 0.32993 0.18086 0.79265 0.0
C2012 C 0.37477 0.18056 0.81938 0.0
C2013 C 0.36809 0.17809 0.86008 0.0
C2014 C 0.36174 0.1746 0.84396 0.0
C2015 C 0.34481 0.17132 0.79745 0.0
C2016 C 0.35035 0.17116 0.81337 0.0
H2017 H 0.3522 0.14687 0.89042 0.0
H2018 H 0.34059 0.14093 0.86378 0.0
H2019 H 0.39946 0.19006 0.83891 0.0
H2020 H 0.35999 0.15865 0.76429 0.0
H2021 H 0.36679 0.15559 0.79042 0.0
C2022 C 0.8192 0.19114 0.88355 0.0
C2023 C 0.79484 0.18379 0.88615 0.0
C2024 C 0.82503 0.18869 0.86931 0.0
C2025 C 0.79923 0.15719 0.83193 0.0
H2026 H 0.8538 0.21616 0.81977 0.0
C2027 C 0.83791 0.16082 0.77561 0.0
C2028 C 0.84217 0.18122 0.76805 0.0
C2029 C 0.83181 0.15978 0.79007 0.0
C2030 C 0.8385 0.19958 0.82301 0.0
H2031 H 0.75738 0.16736 0.87582 0.0
H2032 H 0.76756 0.16269 0.85099 0.0
H2033 H 0.84381 0.21589 0.84511 0.0
H2034 H 0.84351 0.21652 0.76969 0.0
H2035 H 0.83298 0.21475 0.79499 0.0
H2036 H 0.79384 0.14099 0.80973 0.0
C2037 C 0.7821 0.1703 0.86001 0.0
C2038 C 0.83294 0.19933 0.83754 0.0
C2039 C 0.77628 0.17293 0.87425 0.0
C2040 C 0.84015 0.2005 0.77522 0.0
C2041 C 0.83434 0.19959 0.78972 0.0
C2042 C 0.80498 0.15734 0.81741 0.0
C2043 C 0.8066 0.17864 0.85737 0.0
C2044 C 0.81313 0.17822 0.84212 0.0
C2045 C 0.83019 0.17926 0.7973 0.0
C2046 C 0.82452 0.17864 0.81279 0.0
H2047 H 0.83385 0.19911 0.89251 0.0
H2048 H 0.84402 0.19491 0.8676 0.0
H2049 H 0.78393 0.14063 0.83521 0.0
H2050 H 0.83917 0.14563 0.77029 0.0
H2051 H 0.82882 0.14395 0.7957 0.0
C2052 C 0.28364 0.16462 0.45248 0.0
C2053 C 0.29187 0.154 0.44188 0.0
C2054 C 0.29185 0.16753 0.46737 0.0
C2055 C 0.31298 0.1389 0.49334 0.0
H2056 H 0.32924 0.19639 0.52032 0.0
C2057 C 0.31108 0.13559 0.55585 0.0
C2058 C 0.33149 0.15462 0.5648 0.0
C2059 C 0.30821 0.13705 0.54078 0.0
C2060 C 0.3249 0.1803 0.51288 0.0
H2061 H 0.31622 0.13937 0.43857 0.0
H2062 H 0.33016 0.14402 0.46466 0.0
H2063 H 0.32221 0.19739 0.49383 0.0
H2064 H 0.36459 0.19033 0.56512 0.0
H2065 H 0.35941 0.19299 0.53869 0.0
H2066 H 0.3152 0.12163 0.51237 0.0
C2067 C 0.31723 0.14992 0.46139 0.0
C2068 C 0.32076 0.18082 0.49777 0.0
C2069 C 0.3092 0.1472 0.44648 0.0
C2070 C 0.34877 0.17534 0.55843 0.0
C2071 C 0.34574 0.17694 0.54337 0.0
C2072 C 0.31684 0.13829 0.50844 0.0
C2073 C 0.30829 0.1597 0.47199 0.0
C2074 C 0.31457 0.16005 0.48788 0.0
C2075 C 0.32556 0.15768 0.53439 0.0
C2076 C 0.3226 0.15888 0.51836 0.0
H2077 H 0.27 0.16968 0.44938 0.0
H2078 H 0.28443 0.17486 0.47532 0.0
H2079 H 0.30798 0.12254 0.48598 0.0
H2080 H 0.2976 0.11933 0.56045 0.0
H2081 H 0.29235 0.12207 0.53412 0.0
C2082 C 0.87613 0.16279 0.45711 0.0
C2083 C 0.87161 0.14007 0.45015 0.0
C2084 C 0.87075 0.16454 0.47159 0.0
C2085 C 0.83147 0.12624 0.49844 0.0
H2086 H 0.87725 0.1796 0.5277 0.0
C2087 C 0.81783 0.12246 0.55977 0.0
C2088 C 0.82284 0.14429 0.56815 0.0
C2089 C 0.82423 0.12305 0.54542 0.0
C2090 C 0.86412 0.16476 0.51961 0.0
H2091 H 0.85894 0.10165 0.4532 0.0
H2092 H 0.8493 0.10466 0.4783 0.0
H2093 H 0.88766 0.17891 0.50244 0.0
H2094 H 0.83859 0.1839 0.56809 0.0
H2095 H 0.8496 0.18491 0.5429 0.0
H2096 H 0.80785 0.11209 0.51544 0.0
C2097 C 0.85659 0.12101 0.47249 0.0
C2098 C 0.87011 0.16436 0.50516 0.0
C2099 C 0.86208 0.1193 0.45809 0.0
C2100 C 0.83469 0.1668 0.56193 0.0
C2101 C 0.84102 0.16738 0.54752 0.0
C2102 C 0.82544 0.12669 0.51282 0.0
C2103 C 0.86065 0.14357 0.47935 0.0
C2104 C 0.85396 0.1449 0.49449 0.0
C2105 C 0.8357 0.14546 0.53906 0.0
C2106 C 0.84182 0.14577 0.52363 0.0
H2107 H 0.88328 0.17909 0.45125 0.0
H2108 H 0.87393 0.18214 0.4766 0.0
H2109 H 0.81845 0.11126 0.49038 0.0
H2110 H 0.80913 0.1049 0.56436 0.0
H2111 H 0.82036 0.1059 0.53935 0.0
C2112 C 0.88462 0.72443 0.46197 0.0
C2113 C 0.87974 0.74284 0.45764 0.0
C2114 C 0.87925 0.71581 0.47577 0.0
C2115 C 0.83828 0.70964 0.50387 0.0
H2116 H 0.88348 0.70097 0.53009 0.0
C2117 C 0.82019 0.69046 0.56354 0.0
C2118 C 0.82564 0.67343 0.56952 0.0
C2119 C 0.82759 0.69855 0.54992 0.0
C2120 C 0.87052 0.70296 0.52281 0.0
H2121 H 0.86675 0.76762 0.46474 0.0
H2122 H 0.85707 0.75234 0.48865 0.0
H2123 H 0.89533 0.71581 0.50615 0.0
H2124 H 0.84318 0.65158 0.56599 0.0
H2125 H 0.85582 0.66544 0.542 0.0
H2126 H 0.81333 0.6966 0.52028 0.0
C2127 C 0.86466 0.74429 0.48129 0.0
C2128 C 0.87735 0.71151 0.50913 0.0
C2129 C 0.87016 0.75299 0.46758 0.0
C2130 C 0.8389 0.66486 0.56167 0.0
C2131 C 0.84617 0.67284 0.54796 0.0
C2132 C 0.83139 0.70095 0.51744 0.0
C2133 C 0.86879 0.72537 0.48544 0.0
C2134 C 0.8614 0.71525 0.49964 0.0
C2135 C 0.84044 0.68967 0.54188 0.0
C2136 C 0.84754 0.69783 0.52717 0.0
H2137 H 0.89185 0.71612 0.45452 0.0
H2138 H 0.88253 0.70113 0.4787 0.0
H2139 H 0.82543 0.71189 0.49664 0.0
H2140 H 0.81041 0.69774 0.56948 0.0
H2141 H 0.82337 0.71196 0.54574 0.0
loop_
_geom_bond_atom_site_label_1
_geom_bond_atom_site_label_2
_geom_bond_distance
_geom_bond_site_symmetry_2
_ccdc_geom_bond_type
H0 C3 0.931 . S
H1 C6 0.928 . S
H2 C8 0.930 . S
C3 H0 0.931 . S
C3 C4 1.413 . S
C3 C5 1.360 . S
C4 C3 1.413 . S
C4 C8 1.429 . S
C5 C3 1.360 . S
C5 C6 1.372 . S
C6 H1 0.928 . S
C6 C5 1.372 . S
C6 C7 1.404 . S
C7 C6 1.404 . S
C7 C8 1.391 . S
C8 H2 0.930 . S
C8 C4 1.429 . S
C8 C7 1.391 . S
H9 C12 0.931 . S
H10 C15 0.928 . S
H11 C17 0.930 . S
C12 H9 0.931 . S
C12 C13 1.413 . S
C12 C14 1.360 . S
C13 C12 1.413 . S
C13 C17 1.429 . S
C14 C12 1.360 . S
C14 C15 1.372 . S
C15 H10 0.928 . S
C15 C14 1.372 . S
C15 C16 1.404 . S
C16 C15 1.404 . S
C16 C17 1.391 . S
C17 H11 0.930 . S
C17 C13 1.429 . S
C17 C16 1.391 . S
H18 C21 0.931 . S
H19 C24 0.928 . S
H20 C26 0.930 . S
C21 H18 0.931 . S
C21 C22 1.413 . S
C21 C23 1.360 . S
C22 C21 1.413 . S
C22 C26 1.429 . S
C23 C21 1.360 . S
C23 C24 1.372 . S
C24 H19 0.928 . S
C24 C23 1.372 . S
C24 C25 1.404 . S
C25 C24 1.404 . S
C25 C26 1.391 . S
C26 H20 0.930 . S
C26 C22 1.429 . S
C26 C25 1.391 . S
H27 C30 0.931 . S
H28 C33 0.928 . S
H29 C35 0.930 . S
C30 H27 0.931 . S
C30 C31 1.413 . S
C30 C32 1.360 . S
C31 C30 1.413 . S
C31 C35 1.429 . S
C32 C30 1.360 . S
C32 C33 1.372 . S
C33 H28 0.928 . S
C33 C32 1.372 . S
C33 C34 1.404 . S
C34 C33 1.404 . S
C34 C35 1.391 . S
C35 H29 0.930 . S
C35 C31 1.429 . S
C35 C34 1.391 . S
H36 C39 0.931 . S
H37 C42 0.928 . S
H38 C44 0.930 . S
C39 H36 0.931 . S
C39 C40 1.413 . S
C39 C41 1.360 . S
C40 C39 1.413 . S
C40 C44 1.429 . S
C41 C39 1.360 . S
C41 C42 1.372 . S
C42 H37 0.928 . S
C42 C41 1.372 . S
C42 C43 1.404 . S
C43 C42 1.404 . S
C43 C44 1.391 . S
C44 H38 0.930 . S
C44 C40 1.429 . S
C44 C43 1.391 . S
H45 C48 0.931 . S
H46 C51 0.928 . S
H47 C53 0.930 . S
C48 H45 0.931 . S
C48 C49 1.413 . S
C48 C50 1.360 . S
C49 C48 1.413 . S
C49 C53 1.429 . S
C50 C48 1.360 . S
C50 C51 1.372 . S
C51 H46 0.928 . S
C51 C50 1.372 . S
C51 C52 1.404 . S
C52 C51 1.404 . S
C52 C53 1.391 . S
C53 H47 0.930 . S
C53 C49 1.429 . S
C53 C52 1.391 . S
H54 C57 0.931 . S
H55 C60 0.928 . S
H56 C62 0.930 . S
C57 H54 0.931 . S
C57 C58 1.413 . S
C57 C59 1.360 . S
C58 C57 1.413 . S
C58 C62 1.429 . S
C59 C57 1.360 . S
C59 C60 1.372 . S
C60 H55 0.928 . S
C60 C59 1.372 . S
C60 C61 1.404 . S
C61 C60 1.404 . S
C61 C62 1.391 . S
C62 H56 0.930 . S
C62 C58 1.429 . S
C62 C61 1.391 . S
H63 C66 0.931 . S
H64 C69 0.928 . S
H65 C71 0.930 . S
C66 H63 0.931 . S
C66 C67 1.413 . S
C66 C68 1.360 . S
C67 C66 1.413 . S
C67 C71 1.429 . S
C68 C66 1.360 . S
C68 C69 1.372 . S
C69 H64 0.928 . S
C69 C68 1.372 . S
C69 C70 1.404 . S
C70 C69 1.404 . S
C70 C71 1.391 . S
C71 H65 0.930 . S
C71 C67 1.429 . S
C71 C70 1.391 . S
H72 C75 0.931 . S
H73 C78 0.928 . S
H74 C80 0.930 . S
C75 H72 0.931 . S
C75 C76 1.413 . S
C75 C77 1.360 . S
C76 C75 1.413 . S
C76 C80 1.429 . S
C77 C75 1.360 . S
C77 C78 1.372 . S
C78 H73 0.928 . S
C78 C77 1.372 . S
C78 C79 1.404 . S
C79 C78 1.404 . S
C79 C80 1.391 . S
C80 H74 0.930 . S
C80 C76 1.429 . S
C80 C79 1.391 . S
H81 C84 0.931 . S
H82 C87 0.928 . S
H83 C89 0.930 . S
C84 H81 0.931 . S
C84 C85 1.413 . S
C84 C86 1.360 . S
C85 C84 1.413 . S
C85 C89 1.429 . S
C86 C84 1.360 . S
C86 C87 1.372 . S
C87 H82 0.928 . S
C87 C86 1.372 . S
C87 C88 1.404 . S
C88 C87 1.404 . S
C88 C89 1.391 . S
C89 H83 0.930 . S
C89 C85 1.429 . S
C89 C88 1.391 . S
H90 C93 0.931 . S
H91 C96 0.928 . S
H92 C98 0.930 . S
C93 H90 0.931 . S
C93 C94 1.413 . S
C93 C95 1.360 . S
C94 C93 1.413 . S
C94 C98 1.429 . S
C95 C93 1.360 . S
C95 C96 1.372 . S
C96 H91 0.928 . S
C96 C95 1.372 . S
C96 C97 1.404 . S
C97 C96 1.404 . S
C97 C98 1.391 . S
C98 H92 0.930 . S
C98 C94 1.429 . S
C98 C97 1.391 . S
H99 C102 0.931 . S
H100 C105 0.928 . S
H101 C107 0.930 . S
C102 H99 0.931 . S
C102 C103 1.413 . S
C102 C104 1.360 . S
C103 C102 1.413 . S
C103 C107 1.429 . S
C104 C102 1.360 . S
C104 C105 1.372 . S
C105 H100 0.928 . S
C105 C104 1.372 . S
C105 C106 1.404 . S
C106 C105 1.404 . S
C106 C107 1.391 . S
C107 H101 0.930 . S
C107 C103 1.429 . S
C107 C106 1.391 . S
H108 C111 0.931 . S
H109 C114 0.928 . S
H110 C116 0.930 . S
C111 H108 0.931 . S
C111 C112 1.413 . S
C111 C113 1.360 . S
C112 C111 1.413 . S
C112 C116 1.429 . S
C113 C111 1.360 . S
C113 C114 1.372 . S
C114 H109 0.928 . S
C114 C113 1.372 . S
C114 C115 1.404 . S
C115 C114 1.404 . S
C115 C116 1.391 . S
C116 H110 0.930 . S
C116 C112 1.429 . S
C116 C115 1.391 . S
H117 C120 0.931 . S
H118 C123 0.928 . S
H119 C125 0.930 . S
C120 H117 0.931 . S
C120 C121 1.413 . S
C120 C122 1.360 . S
C121 C120 1.413 . S
C121 C125 1.429 . S
C122 C120 1.360 . S
C122 C123 1.372 . S
C123 H118 0.928 . S
C123 C122 1.372 . S
C123 C124 1.404 . S
C124 C123 1.404 . S
C124 C125 1.391 . S
C125 H119 0.930 . S
C125 C121 1.429 . S
C125 C124 1.391 . S
H126 C129 0.931 . S
H127 C132 0.928 . S
H128 C134 0.930 . S
C129 H126 0.931 . S
C129 C130 1.413 . S
C129 C131 1.360 . S
C130 C129 1.413 . S
C130 C134 1.429 . S
C131 C129 1.360 . S
C131 C132 1.372 . S
C132 H127 0.928 . S
C132 C131 1.372 . S
C132 C133 1.404 . S
C133 C132 1.404 . S
C133 C134 1.391 . S
C134 H128 0.930 . S
C134 C130 1.429 . S
C134 C133 1.391 . S
H135 C138 0.931 . S
H136 C141 0.928 . S
H137 C143 0.930 . S
C138 H135 0.931 . S
C138 C139 1.413 . S
C138 C140 1.360 . S
C139 C138 1.413 . S
C139 C143 1.429 . S
C140 C138 1.360 . S
C140 C141 1.372 . S
C141 H136 0.928 . S
C141 C140 1.372 . S
C141 C142 1.404 . S
C142 C141 1.404 . S
C142 C143 1.391 . S
C143 H137 0.930 . S
C143 C139 1.429 . S
C143 C142 1.391 . S
H144 C147 0.931 . S
H145 C150 0.928 . S
H146 C152 0.930 . S
C147 H144 0.931 . S
C147 C148 1.413 . S
C147 C149 1.360 . S
C148 C147 1.413 . S
C148 C152 1.429 . S
C149 C147 1.360 . S
C149 C150 1.372 . S
C150 H145 0.928 . S
C150 C149 1.372 . S
C150 C151 1.404 . S
C151 C150 1.404 . S
C151 C152 1.391 . S
C152 H146 0.930 . S
C152 C148 1.429 . S
C152 C151 1.391 . S
H153 C156 0.931 . S
H154 C159 0.928 . S
H155 C161 0.930 . S
C156 H153 0.931 . S
C156 C157 1.413 . S
C156 C158 1.360 . S
C157 C156 1.413 . S
C157 C161 1.429 . S
C158 C156 1.360 . S
C158 C159 1.372 . S
C159 H154 0.928 . S
C159 C158 1.372 . S
C159 C160 1.404 . S
C160 C159 1.404 . S
C160 C161 1.391 . S
C161 H155 0.930 . S
C161 C157 1.429 . S
C161 C160 1.391 . S
C162 Eu163 2.835 . S
C162 C164 1.500 . S
C162 O182 1.257 1_545 S
C162 O183 1.260 . S
Eu163 C162 2.835 . S
Eu163 O182 2.473 1_545 S
Eu163 O183 2.480 . S
Eu163 O184 2.430 . S
Eu163 O185 2.670 1_554 S
Eu163 O186 2.394 1_545 S
Eu163 O191 2.355 1_545 S
Eu163 O193 2.374 . S
C164 C162 1.500 . S
C164 C165 1.377 . S
C164 C169 1.377 1_545 S
C165 C164 1.377 . S
C165 C166 1.395 . S
C165 H194 0.931 . S
C166 C165 1.395 . S
C166 C167 1.383 1_545 S
C166 H195 0.931 . S
C167 C166 1.383 1_565 S
C167 C168 1.394 . S
C168 C167 1.394 . S
C168 C169 1.378 . S
C168 H196 0.931 . S
C169 C164 1.377 1_565 S
C169 C168 1.378 . S
C169 H197 0.931 . S
C170 O184 1.252 1_556 S
C170 O185 1.272 . S
C171 O186 1.251 . S
C171 O187 1.251 1_554 S
C172 Eu173 2.835 . S
C172 C174 1.500 . S
C172 O188 1.257 1_565 S
C172 O189 1.260 . S
Eu173 C172 2.835 . S
Eu173 O185 2.355 1_565 S
Eu173 O187 2.374 . S
Eu173 O188 2.473 1_565 S
Eu173 O189 2.480 . S
Eu173 O190 2.430 . S
Eu173 O191 2.670 1_556 S
Eu173 O192 2.394 1_565 S
C174 C172 1.500 . S
C174 C175 1.377 . S
C174 C179 1.377 1_565 S
C175 C174 1.377 . S
C175 C176 1.395 . S
C175 H198 0.931 . S
C176 C175 1.395 . S
C176 C177 1.383 1_565 S
C176 H199 0.931 . S
C177 C176 1.383 1_545 S
C177 C178 1.394 . S
C178 C177 1.394 . S
C178 C179 1.378 . S
C178 H200 0.931 . S
C179 C174 1.377 1_545 S
C179 C178 1.378 . S
C179 H201 0.931 . S
C180 O190 1.259 1_554 S
C180 O191 1.270 . S
C181 O192 1.251 . S
C181 O193 1.251 1_556 S
O182 C162 1.257 1_565 S
O182 Eu163 2.473 1_565 S
O183 C162 1.260 . S
O183 Eu163 2.480 . S
O184 Eu163 2.430 . S
O184 C170 1.252 1_554 S
O185 Eu163 2.670 1_556 S
O185 C170 1.272 . S
O185 Eu173 2.355 1_545 S
O186 Eu163 2.394 1_565 S
O186 C171 1.251 . S
O187 C171 1.251 1_556 S
O187 Eu173 2.374 . S
O188 C172 1.257 1_545 S
O188 Eu173 2.473 1_545 S
O189 C172 1.260 . S
O189 Eu173 2.480 . S
O190 Eu173 2.430 . S
O190 C180 1.259 1_556 S
O191 Eu163 2.355 1_565 S
O191 Eu173 2.670 1_554 S
O191 C180 1.270 . S
O192 Eu173 2.394 1_545 S
O192 C181 1.251 . S
O193 Eu163 2.374 . S
O193 C181 1.251 1_554 S
H194 C165 0.931 . S
H195 C166 0.931 . S
H196 C168 0.931 . S
H197 C169 0.931 . S
H198 C175 0.931 . S
H199 C176 0.931 . S
H200 C178 0.931 . S
H201 C179 0.931 . S
C202 Eu203 2.835 . S
C202 C204 1.500 1_655 S
C202 O222 1.257 1_655 S
C202 O223 1.260 . S
Eu203 C202 2.835 . S
Eu203 O222 2.473 1_655 S
Eu203 O223 2.480 . S
Eu203 O224 2.430 . S
Eu203 O225 2.670 1_554 S
Eu203 O226 2.394 1_655 S
Eu203 O231 2.355 1_655 S
Eu203 O233 2.374 . S
C204 C202 1.500 1_455 S
C204 C205 1.377 1_455 S
C204 C209 1.377 . S
C205 C204 1.377 1_655 S
C205 C206 1.395 . S
C205 H234 0.931 . S
C206 C205 1.395 . S
C206 C207 1.383 1_655 S
C206 H235 0.931 . S
C207 C206 1.383 1_455 S
C207 C208 1.394 . S
C208 C207 1.394 . S
C208 C209 1.378 . S
C208 H236 0.931 . S
C209 C204 1.377 . S
C209 C208 1.378 . S
C209 H237 0.931 . S
C210 O224 1.259 1_556 S
C210 O225 1.270 . S
C211 O226 1.251 . S
C211 O227 1.251 . S
C212 Eu213 2.835 . S
C212 C214 1.500 1_455 S
C212 O228 1.257 1_455 S
C212 O229 1.260 . S
Eu213 C212 2.835 . S
Eu213 O225 2.355 1_455 S
Eu213 O227 2.374 1_556 S
Eu213 O228 2.473 1_455 S
Eu213 O229 2.480 . S
Eu213 O230 2.430 . S
Eu213 O231 2.670 1_556 S
Eu213 O232 2.394 1_455 S
C214 C212 1.500 1_655 S
C214 C215 1.377 1_655 S
C214 C219 1.377 . S
C215 C214 1.377 1_455 S
C215 C216 1.395 . S
C215 H238 0.931 . S
C216 C215 1.395 . S
C216 C217 1.383 1_455 S
C216 H239 0.931 . S
C217 C216 1.383 1_655 S
C217 C218 1.394 . S
C218 C217 1.394 . S
C218 C219 1.378 . S
C218 H240 0.931 . S
C219 C214 1.377 . S
C219 C218 1.378 . S
C219 H241 0.931 . S
C220 O230 1.259 1_554 S
C220 O231 1.270 . S
C221 O232 1.251 . S
C221 O233 1.251 1_556 S
O222 C202 1.257 1_455 S
O222 Eu203 2.473 1_455 S
O223 C202 1.260 . S
O223 Eu203 2.480 . S
O224 Eu203 2.430 . S
O224 C210 1.259 1_554 S
O225 Eu203 2.670 1_556 S
O225 C210 1.270 . S
O225 Eu213 2.355 1_655 S
O226 Eu203 2.394 1_455 S
O226 C211 1.251 . S
O227 C211 1.251 . S
O227 Eu213 2.374 1_554 S
O228 C212 1.257 1_655 S
O228 Eu213 2.473 1_655 S
O229 C212 1.260 . S
O229 Eu213 2.480 . S
O230 Eu213 2.430 . S
O230 C220 1.259 1_556 S
O231 Eu203 2.355 1_455 S
O231 Eu213 2.670 1_554 S
O231 C220 1.270 . S
O232 Eu213 2.394 1_655 S
O232 C221 1.251 . S
O233 Eu203 2.374 . S
O233 C221 1.251 1_554 S
H234 C205 0.931 . S
H235 C206 0.931 . S
H236 C208 0.931 . S
H237 C209 0.931 . S
H238 C215 0.931 . S
H239 C216 0.931 . S
H240 C218 0.931 . S
H241 C219 0.931 . S
C242 Eu243 2.835 . S
C242 C244 1.500 . S
C242 O262 1.257 . S
C242 O263 1.260 . S
Eu243 C242 2.835 . S
Eu243 O262 2.473 . S
Eu243 O263 2.480 . S
Eu243 O264 2.430 . S
Eu243 O265 2.670 1_556 S
Eu243 O266 2.394 . S
Eu243 O271 2.355 . S
Eu243 O273 2.377 1_556 S
C244 C242 1.500 . S
C244 C245 1.377 . S
C244 C249 1.377 . S
C245 C244 1.377 . S
C245 C246 1.395 . S
C245 H274 0.931 . S
C246 C245 1.395 . S
C246 C247 1.383 . S
C246 H275 0.931 . S
C247 C246 1.383 . S
C247 C248 1.394 . S
C248 C247 1.394 . S
C248 C249 1.378 . S
C248 H276 0.931 . S
C249 C244 1.377 . S
C249 C248 1.378 . S
C249 H277 0.931 . S
C250 O264 1.259 1_554 S
C250 O265 1.270 . S
C251 O266 1.251 . S
C251 O267 1.251 1_556 S
C252 Eu253 2.835 . S
C252 C254 1.500 . S
C252 O268 1.257 . S
C252 O269 1.260 . S
Eu253 C252 2.835 . S
Eu253 O265 2.355 . S
Eu253 O267 2.374 . S
Eu253 O268 2.473 . S
Eu253 O269 2.480 . S
Eu253 O270 2.430 . S
Eu253 O271 2.670 1_554 S
Eu253 O272 2.394 . S
C254 C252 1.500 . S
C254 C255 1.377 . S
C254 C259 1.377 . S
C255 C254 1.377 . S
C255 C256 1.395 . S
C255 H278 0.931 . S
C256 C255 1.395 . S
C256 C257 1.383 . S
C256 H279 0.931 . S
C257 C256 1.383 . S
C257 C258 1.394 . S
C258 C257 1.394 . S
C258 C259 1.378 . S
C258 H280 0.931 . S
C259 C254 1.377 . S
C259 C258 1.378 . S
C259 H281 0.931 . S
C260 O270 1.259 1_556 S
C260 O271 1.270 . S
C261 O272 1.251 . S
C261 O273 1.247 . S
O262 C242 1.257 . S
O262 Eu243 2.473 . S
O263 C242 1.260 . S
O263 Eu243 2.480 . S
O264 Eu243 2.430 . S
O264 C250 1.259 1_556 S
O265 Eu243 2.670 1_554 S
O265 C250 1.270 . S
O265 Eu253 2.355 . S
O266 Eu243 2.394 . S
O266 C251 1.251 . S
O267 C251 1.251 1_554 S
O267 Eu253 2.374 . S
O268 C252 1.257 . S
O268 Eu253 2.473 . S
O269 C252 1.260 . S
O269 Eu253 2.480 . S
O270 Eu253 2.430 . S
O270 C260 1.259 1_554 S
O271 Eu243 2.355 . S
O271 Eu253 2.670 1_556 S
O271 C260 1.270 . S
O272 Eu253 2.394 . S
O272 C261 1.251 . S
O273 Eu243 2.377 1_554 S
O273 C261 1.247 . S
H274 C245 0.931 . S
H275 C246 0.931 . S
H276 C248 0.931 . S
H277 C249 0.931 . S
H278 C255 0.931 . S
H279 C256 0.931 . S
H280 C258 0.931 . S
H281 C259 0.931 . S
C282 Eu283 2.835 . S
C282 C284 1.500 . S
C282 O302 1.257 . S
C282 O303 1.260 . S
Eu283 C282 2.835 . S
Eu283 O302 2.473 . S
Eu283 O303 2.480 . S
Eu283 O304 2.430 . S
Eu283 O305 2.670 . S
Eu283 O306 2.394 . S
Eu283 O311 2.355 . S
Eu283 O313 2.374 . S
C284 C282 1.500 . S
C284 C285 1.377 . S
C284 C289 1.377 . S
C285 C284 1.377 . S
C285 C286 1.395 . S
C285 H314 0.931 . S
C286 C285 1.395 . S
C286 C287 1.383 . S
C286 H315 0.931 . S
C287 C286 1.383 . S
C287 C288 1.394 . S
C288 C287 1.394 . S
C288 C289 1.378 . S
C288 H316 0.931 . S
C289 C284 1.377 . S
C289 C288 1.378 . S
C289 H317 0.931 . S
C290 O304 1.259 . S
C290 O305 1.270 . S
C291 O306 1.251 . S
C291 O307 1.251 . S
C292 Eu293 2.835 . S
C292 C294 1.500 . S
C292 O308 1.257 . S
C292 O309 1.260 . S
Eu293 C292 2.835 . S
Eu293 O305 2.355 . S
Eu293 O307 2.374 . S
Eu293 O308 2.473 . S
Eu293 O309 2.480 . S
Eu293 O310 2.430 . S
Eu293 O311 2.670 . S
Eu293 O312 2.394 . S
C294 C292 1.500 . S
C294 C295 1.377 . S
C294 C299 1.377 . S
C295 C294 1.377 . S
C295 C296 1.395 . S
C295 H318 0.931 . S
C296 C295 1.395 . S
C296 C297 1.383 . S
C296 H319 0.931 . S
C297 C296 1.383 . S
C297 C298 1.394 . S
C298 C297 1.394 . S
C298 C299 1.378 . S
C298 H320 0.931 . S
C299 C294 1.377 . S
C299 C298 1.378 . S
C299 H321 0.931 . S
C300 O310 1.259 . S
C300 O311 1.270 . S
C301 O312 1.251 . S
C301 O313 1.251 . S
O302 C282 1.257 . S
O302 Eu283 2.473 . S
O303 C282 1.260 . S
O303 Eu283 2.480 . S
O304 Eu283 2.430 . S
O304 C290 1.259 . S
O305 Eu283 2.670 . S
O305 C290 1.270 . S
O305 Eu293 2.355 . S
O306 Eu283 2.394 . S
O306 C291 1.251 . S
O307 C291 1.251 . S
O307 Eu293 2.374 . S
O308 C292 1.257 . S
O308 Eu293 2.473 . S
O309 C292 1.260 . S
O309 Eu293 2.480 . S
O310 Eu293 2.430 . S
O310 C300 1.259 . S
O311 Eu283 2.355 . S
O311 Eu293 2.670 . S
O311 C300 1.270 . S
O312 Eu293 2.394 . S
O312 C301 1.251 . S
O313 Eu283 2.374 . S
O313 C301 1.251 . S
H314 C285 0.931 . S
H315 C286 0.931 . S
H316 C288 0.931 . S
H317 C289 0.931 . S
H318 C295 0.931 . S
H319 C296 0.931 . S
H320 C298 0.931 . S
H321 C299 0.931 . S
C322 Eu323 2.835 . S
C322 C324 1.500 . S
C322 O342 1.257 . S
C322 O343 1.260 . S
Eu323 C322 2.835 . S
Eu323 O342 2.473 . S
Eu323 O343 2.480 . S
Eu323 O344 2.430 . S
Eu323 O345 2.670 . S
Eu323 O346 2.394 . S
Eu323 O351 2.355 . S
Eu323 O353 2.374 . S
C324 C322 1.500 . S
C324 C325 1.377 . S
C324 C329 1.377 . S
C325 C324 1.377 . S
C325 C326 1.395 . S
C325 H354 0.931 . S
C326 C325 1.395 . S
C326 C327 1.383 . S
C326 H355 0.931 . S
C327 C326 1.383 . S
C327 C328 1.394 . S
C328 C327 1.394 . S
C328 C329 1.378 . S
C328 H356 0.931 . S
C329 C324 1.377 . S
C329 C328 1.378 . S
C329 H357 0.931 . S
C330 O344 1.259 . S
C330 O345 1.270 . S
C331 O346 1.251 . S
C331 O347 1.251 . S
C332 Eu333 2.835 . S
C332 C334 1.500 . S
C332 O348 1.257 . S
C332 O349 1.260 . S
Eu333 C332 2.835 . S
Eu333 O345 2.355 . S
Eu333 O347 2.374 . S
Eu333 O348 2.473 . S
Eu333 O349 2.480 . S
Eu333 O350 2.430 . S
Eu333 O351 2.670 . S
Eu333 O352 2.394 . S
C334 C332 1.500 . S
C334 C335 1.377 . S
C334 C339 1.377 . S
C335 C334 1.377 . S
C335 C336 1.395 . S
C335 H358 0.931 . S
C336 C335 1.395 . S
C336 C337 1.383 . S
C336 H359 0.931 . S
C337 C336 1.383 . S
C337 C338 1.394 . S
C338 C337 1.394 . S
C338 C339 1.378 . S
C338 H360 0.931 . S
C339 C334 1.377 . S
C339 C338 1.378 . S
C339 H361 0.931 . S
C340 O350 1.259 . S
C340 O351 1.270 . S
C341 O352 1.251 . S
C341 O353 1.251 . S
O342 C322 1.257 . S
O342 Eu323 2.473 . S
O343 C322 1.260 . S
O343 Eu323 2.480 . S
O344 Eu323 2.430 . S
O344 C330 1.259 . S
O345 Eu323 2.670 . S
O345 C330 1.270 . S
O345 Eu333 2.355 . S
O346 Eu323 2.394 . S
O346 C331 1.251 . S
O347 C331 1.251 . S
O347 Eu333 2.374 . S
O348 C332 1.257 . S
O348 Eu333 2.473 . S
O349 C332 1.260 . S
O349 Eu333 2.480 . S
O350 Eu333 2.430 . S
O350 C340 1.259 . S
O351 Eu323 2.355 . S
O351 Eu333 2.670 . S
O351 C340 1.270 . S
O352 Eu333 2.394 . S
O352 C341 1.251 . S
O353 Eu323 2.374 . S
O353 C341 1.251 . S
H354 C325 0.931 . S
H355 C326 0.931 . S
H356 C328 0.931 . S
H357 C329 0.931 . S
H358 C335 0.931 . S
H359 C336 0.931 . S
H360 C338 0.931 . S
H361 C339 0.931 . S
C362 Eu363 2.835 . S
C362 C364 1.500 . S
C362 O382 1.257 . S
C362 O383 1.260 . S
Eu363 C362 2.835 . S
Eu363 O382 2.473 . S
Eu363 O383 2.480 . S
Eu363 O384 2.430 . S
Eu363 O385 2.670 . S
Eu363 O386 2.394 . S
Eu363 O391 2.355 . S
Eu363 O393 2.374 . S
C364 C362 1.500 . S
C364 C365 1.377 . S
C364 C369 1.377 . S
C365 C364 1.377 . S
C365 C366 1.395 . S
C365 H394 0.931 . S
C366 C365 1.395 . S
C366 C367 1.383 . S
C366 H395 0.931 . S
C367 C366 1.383 . S
C367 C368 1.394 . S
C368 C367 1.394 . S
C368 C369 1.378 . S
C368 H396 0.931 . S
C369 C364 1.377 . S
C369 C368 1.378 . S
C369 H397 0.931 . S
C370 O384 1.259 . S
C370 O385 1.270 . S
C371 O386 1.251 . S
C371 O387 1.251 . S
C372 Eu373 2.835 . S
C372 C374 1.500 . S
C372 O388 1.257 . S
C372 O389 1.260 . S
Eu373 C372 2.835 . S
Eu373 O385 2.355 . S
Eu373 O387 2.374 . S
Eu373 O388 2.473 . S
Eu373 O389 2.480 . S
Eu373 O390 2.430 . S
Eu373 O391 2.670 . S
Eu373 O392 2.394 . S
C374 C372 1.500 . S
C374 C375 1.377 . S
C374 C379 1.377 . S
C375 C374 1.377 . S
C375 C376 1.395 . S
C375 H398 0.931 . S
C376 C375 1.395 . S
C376 C377 1.383 . S
C376 H399 0.931 . S
C377 C376 1.383 . S
C377 C378 1.394 . S
C378 C377 1.394 . S
C378 C379 1.378 . S
C378 H400 0.931 . S
C379 C374 1.377 . S
C379 C378 1.378 . S
C379 H401 0.931 . S
C380 O390 1.259 . S
C380 O391 1.270 . S
C381 O392 1.251 . S
C381 O393 1.251 . S
O382 C362 1.257 . S
O382 Eu363 2.473 . S
O383 C362 1.260 . S
O383 Eu363 2.480 . S
O384 Eu363 2.430 . S
O384 C370 1.259 . S
O385 Eu363 2.670 . S
O385 C370 1.270 . S
O385 Eu373 2.355 . S
O386 Eu363 2.394 . S
O386 C371 1.251 . S
O387 C371 1.251 . S
O387 Eu373 2.374 . S
O388 C372 1.257 . S
O388 Eu373 2.473 . S
O389 C372 1.260 . S
O389 Eu373 2.480 . S
O390 Eu373 2.430 . S
O390 C380 1.259 . S
O391 Eu363 2.355 . S
O391 Eu373 2.670 . S
O391 C380 1.270 . S
O392 Eu373 2.394 . S
O392 C381 1.251 . S
O393 Eu363 2.374 . S
O393 C381 1.251 . S
H394 C365 0.931 . S
H395 C366 0.931 . S
H396 C368 0.931 . S
H397 C369 0.931 . S
H398 C375 0.931 . S
H399 C376 0.931 . S
H400 C378 0.931 . S
H401 C379 0.931 . S
C402 Eu403 2.835 . S
C402 C404 1.500 . S
C402 O422 1.257 . S
C402 O423 1.260 . S
Eu403 C402 2.835 . S
Eu403 O422 2.473 . S
Eu403 O423 2.480 . S
Eu403 O424 2.430 . S
Eu403 O425 2.670 . S
Eu403 O426 2.394 . S
Eu403 O431 2.355 . S
Eu403 O433 2.374 . S
C404 C402 1.500 . S
C404 C405 1.377 . S
C404 C409 1.377 . S
C405 C404 1.377 . S
C405 C406 1.395 . S
C405 H434 0.931 . S
C406 C405 1.395 . S
C406 C407 1.383 . S
C406 H435 0.931 . S
C407 C406 1.383 . S
C407 C408 1.394 . S
C408 C407 1.394 . S
C408 C409 1.378 . S
C408 H436 0.931 . S
C409 C404 1.377 . S
C409 C408 1.378 . S
C409 H437 0.931 . S
C410 O424 1.259 . S
C410 O425 1.270 . S
C411 O426 1.251 . S
C411 O427 1.251 . S
C412 Eu413 2.835 . S
C412 C414 1.500 . S
C412 O428 1.257 . S
C412 O429 1.260 . S
Eu413 C412 2.835 . S
Eu413 O425 2.355 . S
Eu413 O427 2.374 . S
Eu413 O428 2.473 . S
Eu413 O429 2.480 . S
Eu413 O430 2.430 . S
Eu413 O431 2.670 . S
Eu413 O432 2.394 . S
C414 C412 1.500 . S
C414 C415 1.377 . S
C414 C419 1.377 . S
C415 C414 1.377 . S
C415 C416 1.395 . S
C415 H438 0.931 . S
C416 C415 1.395 . S
C416 C417 1.383 . S
C416 H439 0.931 . S
C417 C416 1.383 . S
C417 C418 1.394 . S
C418 C417 1.394 . S
C418 C419 1.378 . S
C418 H440 0.931 . S
C419 C414 1.377 . S
C419 C418 1.378 . S
C419 H441 0.931 . S
C420 O430 1.259 . S
C420 O431 1.270 . S
C421 O432 1.251 . S
C421 O433 1.251 . S
O422 C402 1.257 . S
O422 Eu403 2.473 . S
O423 C402 1.260 . S
O423 Eu403 2.480 . S
O424 Eu403 2.430 . S
O424 C410 1.259 . S
O425 Eu403 2.670 . S
O425 C410 1.270 . S
O425 Eu413 2.355 . S
O426 Eu403 2.394 . S
O426 C411 1.251 . S
O427 C411 1.251 . S
O427 Eu413 2.374 . S
O428 C412 1.257 . S
O428 Eu413 2.473 . S
O429 C412 1.260 . S
O429 Eu413 2.480 . S
O430 Eu413 2.430 . S
O430 C420 1.259 . S
O431 Eu403 2.355 . S
O431 Eu413 2.670 . S
O431 C420 1.270 . S
O432 Eu413 2.394 . S
O432 C421 1.251 . S
O433 Eu403 2.374 . S
O433 C421 1.251 . S
H434 C405 0.931 . S
H435 C406 0.931 . S
H436 C408 0.931 . S
H437 C409 0.931 . S
H438 C415 0.931 . S
H439 C416 0.931 . S
H440 C418 0.931 . S
H441 C419 0.931 . S
C442 Eu443 2.835 . S
C442 C444 1.500 . S
C442 O462 1.257 . S
C442 O463 1.260 . S
Eu443 C442 2.835 . S
Eu443 O462 2.473 . S
Eu443 O463 2.480 . S
Eu443 O464 2.430 . S
Eu443 O465 2.670 . S
Eu443 O466 2.394 . S
Eu443 O471 2.355 . S
Eu443 O473 2.374 . S
C444 C442 1.500 . S
C444 C445 1.377 . S
C444 C449 1.377 . S
C445 C444 1.377 . S
C445 C446 1.395 . S
C445 H474 0.931 . S
C446 C445 1.395 . S
C446 C447 1.383 . S
C446 H475 0.931 . S
C447 C446 1.383 . S
C447 C448 1.394 . S
C448 C447 1.394 . S
C448 C449 1.378 . S
C448 H476 0.931 . S
C449 C444 1.377 . S
C449 C448 1.378 . S
C449 H477 0.931 . S
C450 O464 1.259 . S
C450 O465 1.270 . S
C451 O466 1.251 . S
C451 O467 1.251 . S
C452 Eu453 2.835 . S
C452 C454 1.500 . S
C452 O468 1.257 . S
C452 O469 1.260 . S
Eu453 C452 2.835 . S
Eu453 O465 2.355 . S
Eu453 O467 2.374 . S
Eu453 O468 2.473 . S
Eu453 O469 2.480 . S
Eu453 O470 2.430 . S
Eu453 O471 2.670 . S
Eu453 O472 2.394 . S
C454 C452 1.500 . S
C454 C455 1.377 . S
C454 C459 1.377 . S
C455 C454 1.377 . S
C455 C456 1.395 . S
C455 H478 0.931 . S
C456 C455 1.395 . S
C456 C457 1.383 . S
C456 H479 0.931 . S
C457 C456 1.383 . S
C457 C458 1.394 . S
C458 C457 1.394 . S
C458 C459 1.378 . S
C458 H480 0.931 . S
C459 C454 1.377 . S
C459 C458 1.378 . S
C459 H481 0.931 . S
C460 O470 1.259 . S
C460 O471 1.270 . S
C461 O472 1.251 . S
C461 O473 1.251 . S
O462 C442 1.257 . S
O462 Eu443 2.473 . S
O463 C442 1.260 . S
O463 Eu443 2.480 . S
O464 Eu443 2.430 . S
O464 C450 1.259 . S
O465 Eu443 2.670 . S
O465 C450 1.270 . S
O465 Eu453 2.355 . S
O466 Eu443 2.394 . S
O466 C451 1.251 . S
O467 C451 1.251 . S
O467 Eu453 2.374 . S
O468 C452 1.257 . S
O468 Eu453 2.473 . S
O469 C452 1.260 . S
O469 Eu453 2.480 . S
O470 Eu453 2.430 . S
O470 C460 1.259 . S
O471 Eu443 2.355 . S
O471 Eu453 2.670 . S
O471 C460 1.270 . S
O472 Eu453 2.394 . S
O472 C461 1.251 . S
O473 Eu443 2.374 . S
O473 C461 1.251 . S
H474 C445 0.931 . S
H475 C446 0.931 . S
H476 C448 0.931 . S
H477 C449 0.931 . S
H478 C455 0.931 . S
H479 C456 0.931 . S
H480 C458 0.931 . S
H481 C459 0.931 . S
C482 Eu483 2.835 . S
C482 C484 1.500 . S
C482 O502 1.257 . S
C482 O503 1.260 . S
Eu483 C482 2.835 . S
Eu483 O502 2.473 . S
Eu483 O503 2.480 . S
Eu483 O504 2.430 . S
Eu483 O505 2.670 . S
Eu483 O506 2.394 . S
Eu483 O511 2.355 . S
Eu483 O513 2.374 . S
C484 C482 1.500 . S
C484 C485 1.377 . S
C484 C489 1.377 . S
C485 C484 1.377 . S
C485 C486 1.395 . S
C485 H514 0.931 . S
C486 C485 1.395 . S
C486 C487 1.383 . S
C486 H515 0.931 . S
C487 C486 1.383 . S
C487 C488 1.394 . S
C488 C487 1.394 . S
C488 C489 1.378 . S
C488 H516 0.931 . S
C489 C484 1.377 . S
C489 C488 1.378 . S
C489 H517 0.931 . S
C490 O504 1.259 . S
C490 O505 1.270 . S
C491 O506 1.251 . S
C491 O507 1.251 . S
C492 Eu493 2.835 . S
C492 C494 1.500 . S
C492 O508 1.257 . S
C492 O509 1.260 . S
Eu493 C492 2.835 . S
Eu493 O505 2.355 . S
Eu493 O507 2.374 . S
Eu493 O508 2.473 . S
Eu493 O509 2.480 . S
Eu493 O510 2.430 . S
Eu493 O511 2.670 . S
Eu493 O512 2.394 . S
C494 C492 1.500 . S
C494 C495 1.377 . S
C494 C499 1.377 . S
C495 C494 1.377 . S
C495 C496 1.395 . S
C495 H518 0.931 . S
C496 C495 1.395 . S
C496 C497 1.383 . S
C496 H519 0.931 . S
C497 C496 1.383 . S
C497 C498 1.394 . S
C498 C497 1.394 . S
C498 C499 1.378 . S
C498 H520 0.931 . S
C499 C494 1.377 . S
C499 C498 1.378 . S
C499 H521 0.931 . S
C500 O510 1.259 . S
C500 O511 1.270 . S
C501 O512 1.251 . S
C501 O513 1.251 . S
O502 C482 1.257 . S
O502 Eu483 2.473 . S
O503 C482 1.260 . S
O503 Eu483 2.480 . S
O504 Eu483 2.430 . S
O504 C490 1.259 . S
O505 Eu483 2.670 . S
O505 C490 1.270 . S
O505 Eu493 2.355 . S
O506 Eu483 2.394 . S
O506 C491 1.251 . S
O507 C491 1.251 . S
O507 Eu493 2.374 . S
O508 C492 1.257 . S
O508 Eu493 2.473 . S
O509 C492 1.260 . S
O509 Eu493 2.480 . S
O510 Eu493 2.430 . S
O510 C500 1.259 . S
O511 Eu483 2.355 . S
O511 Eu493 2.670 . S
O511 C500 1.270 . S
O512 Eu493 2.394 . S
O512 C501 1.251 . S
O513 Eu483 2.374 . S
O513 C501 1.251 . S
H514 C485 0.931 . S
H515 C486 0.931 . S
H516 C488 0.931 . S
H517 C489 0.931 . S
H518 C495 0.931 . S
H519 C496 0.931 . S
H520 C498 0.931 . S
H521 C499 0.931 . S
C522 C523 1.349 . S
C522 C524 1.327 . S
C522 H547 0.950 . S
C523 C522 1.349 . S
C523 C539 1.349 . S
C524 C522 1.327 . S
C524 C543 1.429 . S
C524 H548 0.950 . S
C525 C542 1.574 . S
C525 C544 1.368 . S
C525 H549 0.949 . S
H526 C530 0.949 . S
C527 C528 1.349 . S
C527 C529 1.327 . S
C527 H550 0.950 . S
C528 C527 1.349 . S
C528 C540 1.349 . S
C529 C527 1.327 . S
C529 C545 1.429 . S
C529 H551 0.950 . S
C530 H526 0.949 . S
C530 C538 1.574 . S
C530 C546 1.368 . S
H531 C539 0.950 . S
H532 C537 0.950 . S
H533 C538 0.949 . S
H534 C540 0.950 . S
H535 C541 0.950 . S
H536 C542 0.949 . S
C537 H532 0.950 . S
C537 C539 1.327 . S
C537 C543 1.429 . S
C538 C530 1.574 . S
C538 H533 0.949 . S
C538 C544 1.368 . S
C539 C523 1.349 . S
C539 H531 0.950 . S
C539 C537 1.327 . S
C540 C528 1.349 . S
C540 H534 0.950 . S
C540 C541 1.327 . S
C541 H535 0.950 . S
C541 C540 1.327 . S
C541 C545 1.429 . S
C542 C525 1.574 . S
C542 H536 0.949 . S
C542 C546 1.368 . S
C543 C524 1.429 . S
C543 C537 1.429 . S
C543 C544 1.523 . S
C544 C525 1.368 . S
C544 C538 1.368 . S
C544 C543 1.523 . S
C545 C529 1.429 . S
C545 C541 1.429 . S
C545 C546 1.523 . S
C546 C530 1.368 . S
C546 C542 1.368 . S
C546 C545 1.523 . S
H547 C522 0.950 . S
H548 C524 0.950 . S
H549 C525 0.949 . S
H550 C527 0.950 . S
H551 C529 0.950 . S
C552 C553 1.349 . S
C552 C554 1.327 . S
C552 H577 0.950 . S
C553 C552 1.349 . S
C553 C569 1.349 . S
C554 C552 1.327 . S
C554 C573 1.429 . S
C554 H578 0.950 . S
C555 C572 1.574 . S
C555 C574 1.368 . S
C555 H579 0.949 . S
H556 C560 0.949 . S
C557 C558 1.349 . S
C557 C559 1.327 . S
C557 H580 0.950 . S
C558 C557 1.349 . S
C558 C570 1.349 . S
C559 C557 1.327 . S
C559 C575 1.429 . S
C559 H581 0.950 . S
C560 H556 0.949 . S
C560 C568 1.574 . S
C560 C576 1.368 . S
H561 C569 0.950 . S
H562 C567 0.950 . S
H563 C568 0.949 . S
H564 C570 0.950 . S
H565 C571 0.950 . S
H566 C572 0.949 . S
C567 H562 0.950 . S
C567 C569 1.327 . S
C567 C573 1.429 . S
C568 C560 1.574 . S
C568 H563 0.949 . S
C568 C574 1.368 . S
C569 C553 1.349 . S
C569 H561 0.950 . S
C569 C567 1.327 . S
C570 C558 1.349 . S
C570 H564 0.950 . S
C570 C571 1.327 . S
C571 H565 0.950 . S
C571 C570 1.327 . S
C571 C575 1.429 . S
C572 C555 1.574 . S
C572 H566 0.949 . S
C572 C576 1.368 . S
C573 C554 1.429 . S
C573 C567 1.429 . S
C573 C574 1.523 . S
C574 C555 1.368 . S
C574 C568 1.368 . S
C574 C573 1.523 . S
C575 C559 1.429 . S
C575 C571 1.429 . S
C575 C576 1.523 . S
C576 C560 1.368 . S
C576 C572 1.368 . S
C576 C575 1.523 . S
H577 C552 0.950 . S
H578 C554 0.950 . S
H579 C555 0.949 . S
H580 C557 0.950 . S
H581 C559 0.950 . S
C582 C583 1.349 . S
C582 C584 1.327 . S
C582 H607 0.950 . S
C583 C582 1.349 . S
C583 C599 1.349 . S
C584 C582 1.327 . S
C584 C603 1.429 . S
C584 H608 0.950 . S
C585 C602 1.574 . S
C585 C604 1.368 . S
C585 H609 0.949 . S
H586 C590 0.949 . S
C587 C588 1.349 . S
C587 C589 1.327 . S
C587 H610 0.950 . S
C588 C587 1.349 . S
C588 C600 1.349 . S
C589 C587 1.327 . S
C589 C605 1.429 . S
C589 H611 0.950 . S
C590 H586 0.949 . S
C590 C598 1.574 . S
C590 C606 1.368 . S
H591 C599 0.950 . S
H592 C597 0.950 . S
H593 C598 0.949 . S
H594 C600 0.950 1_556 S
H595 C601 0.950 . S
H596 C602 0.949 . S
C597 H592 0.950 . S
C597 C599 1.327 . S
C597 C603 1.429 . S
C598 C590 1.574 . S
C598 H593 0.949 . S
C598 C604 1.368 . S
C599 C583 1.349 . S
C599 H591 0.950 . S
C599 C597 1.327 . S
C600 C588 1.349 . S
C600 H594 0.950 1_554 S
C600 C601 1.327 . S
C601 H595 0.950 . S
C601 C600 1.327 . S
C601 C605 1.429 . S
C602 C585 1.574 . S
C602 H596 0.949 . S
C602 C606 1.368 . S
C603 C584 1.429 . S
C603 C597 1.429 . S
C603 C604 1.523 . S
C604 C585 1.368 . S
C604 C598 1.368 . S
C604 C603 1.523 . S
C605 C589 1.429 . S
C605 C601 1.429 . S
C605 C606 1.523 . S
C606 C590 1.368 . S
C606 C602 1.368 . S
C606 C605 1.523 . S
H607 C582 0.950 . S
H608 C584 0.950 . S
H609 C585 0.949 . S
H610 C587 0.950 . S
H611 C589 0.950 . S
C612 C613 1.349 . S
C612 C614 1.327 . S
C612 H637 0.950 . S
C613 C612 1.349 . S
C613 C629 1.349 . S
C614 C612 1.327 . S
C614 C633 1.429 . S
C614 H638 0.950 . S
C615 C632 1.574 . S
C615 C634 1.368 . S
C615 H639 0.949 . S
H616 C620 0.949 . S
C617 C618 1.349 . S
C617 C619 1.327 . S
C617 H640 0.950 . S
C618 C617 1.349 . S
C618 C630 1.349 . S
C619 C617 1.327 . S
C619 C635 1.429 . S
C619 H641 0.950 . S
C620 H616 0.949 . S
C620 C628 1.574 . S
C620 C636 1.368 . S
H621 C629 0.950 . S
H622 C627 0.950 . S
H623 C628 0.949 . S
H624 C630 0.950 1_554 S
H625 C631 0.950 . S
H626 C632 0.949 . S
C627 H622 0.950 . S
C627 C629 1.327 . S
C627 C633 1.429 . S
C628 C620 1.574 . S
C628 H623 0.949 . S
C628 C634 1.368 . S
C629 C613 1.349 . S
C629 H621 0.950 . S
C629 C627 1.327 . S
C630 C618 1.349 . S
C630 H624 0.950 1_556 S
C630 C631 1.327 . S
C631 H625 0.950 . S
C631 C630 1.327 . S
C631 C635 1.429 . S
C632 C615 1.574 . S
C632 H626 0.949 . S
C632 C636 1.368 . S
C633 C614 1.429 . S
C633 C627 1.429 . S
C633 C634 1.523 . S
C634 C615 1.368 . S
C634 C628 1.368 . S
C634 C633 1.523 . S
C635 C619 1.429 . S
C635 C631 1.429 . S
C635 C636 1.523 . S
C636 C620 1.368 . S
C636 C632 1.368 . S
C636 C635 1.523 . S
H637 C612 0.950 . S
H638 C614 0.950 . S
H639 C615 0.949 . S
H640 C617 0.950 . S
H641 C619 0.950 . S
C642 C643 1.349 . S
C642 C644 1.327 . S
C642 H667 0.950 . S
C643 C642 1.349 . S
C643 C659 1.349 . S
C644 C642 1.327 . S
C644 C663 1.429 . S
C644 H668 0.950 . S
C645 C662 1.574 . S
C645 C664 1.368 . S
C645 H669 0.949 . S
H646 C650 0.949 . S
C647 C648 1.349 . S
C647 C649 1.327 . S
C647 H670 0.950 . S
C648 C647 1.349 . S
C648 C660 1.349 . S
C649 C647 1.327 . S
C649 C665 1.429 . S
C649 H671 0.950 . S
C650 H646 0.949 . S
C650 C658 1.574 . S
C650 C666 1.368 . S
H651 C659 0.950 . S
H652 C657 0.950 . S
H653 C658 0.949 . S
H654 C660 0.950 . S
H655 C661 0.950 . S
H656 C662 0.949 . S
C657 H652 0.950 . S
C657 C659 1.327 . S
C657 C663 1.429 . S
C658 C650 1.574 . S
C658 H653 0.949 . S
C658 C664 1.368 . S
C659 C643 1.349 . S
C659 H651 0.950 . S
C659 C657 1.327 . S
C660 C648 1.349 . S
C660 H654 0.950 . S
C660 C661 1.327 . S
C661 H655 0.950 . S
C661 C660 1.327 . S
C661 C665 1.429 . S
C662 C645 1.574 . S
C662 H656 0.949 . S
C662 C666 1.368 . S
C663 C644 1.429 . S
C663 C657 1.429 . S
C663 C664 1.523 . S
C664 C645 1.368 . S
C664 C658 1.368 . S
C664 C663 1.523 . S
C665 C649 1.429 . S
C665 C661 1.429 . S
C665 C666 1.523 . S
C666 C650 1.368 . S
C666 C662 1.368 . S
C666 C665 1.523 . S
H667 C642 0.950 . S
H668 C644 0.950 . S
H669 C645 0.949 . S
H670 C647 0.950 . S
H671 C649 0.950 . S
C672 C673 1.349 . S
C672 C674 1.327 . S
C672 H697 0.950 . S
C673 C672 1.349 . S
C673 C689 1.349 . S
C674 C672 1.327 . S
C674 C693 1.429 . S
C674 H698 0.950 . S
C675 C692 1.574 . S
C675 C694 1.368 . S
C675 H699 0.949 . S
H676 C680 0.949 . S
C677 C678 1.349 . S
C677 C679 1.327 . S
C677 H700 0.950 . S
C678 C677 1.349 . S
C678 C690 1.349 . S
C679 C677 1.327 . S
C679 C695 1.429 . S
C679 H701 0.950 . S
C680 H676 0.949 . S
C680 C688 1.574 . S
C680 C696 1.368 . S
H681 C689 0.950 . S
H682 C687 0.950 . S
H683 C688 0.949 . S
H684 C690 0.950 . S
H685 C691 0.950 . S
H686 C692 0.949 . S
C687 H682 0.950 . S
C687 C689 1.327 . S
C687 C693 1.429 . S
C688 C680 1.574 . S
C688 H683 0.949 . S
C688 C694 1.368 . S
C689 C673 1.349 . S
C689 H681 0.950 . S
C689 C687 1.327 . S
C690 C678 1.349 . S
C690 H684 0.950 . S
C690 C691 1.327 . S
C691 H685 0.950 . S
C691 C690 1.327 . S
C691 C695 1.429 . S
C692 C675 1.574 . S
C692 H686 0.949 . S
C692 C696 1.368 . S
C693 C674 1.429 . S
C693 C687 1.429 . S
C693 C694 1.523 . S
C694 C675 1.368 . S
C694 C688 1.368 . S
C694 C693 1.523 . S
C695 C679 1.429 . S
C695 C691 1.429 . S
C695 C696 1.523 . S
C696 C680 1.368 . S
C696 C692 1.368 . S
C696 C695 1.523 . S
H697 C672 0.950 . S
H698 C674 0.950 . S
H699 C675 0.949 . S
H700 C677 0.950 . S
H701 C679 0.950 . S
C702 C703 1.349 . S
C702 C704 1.327 . S
C702 H727 0.950 . S
C703 C702 1.349 . S
C703 C719 1.349 . S
C704 C702 1.327 . S
C704 C723 1.429 . S
C704 H728 0.950 . S
C705 C722 1.574 . S
C705 C724 1.368 . S
C705 H729 0.949 . S
H706 C710 0.949 . S
C707 C708 1.349 . S
C707 C709 1.327 . S
C707 H730 0.950 1_556 S
C708 C707 1.349 . S
C708 C720 1.349 . S
C709 C707 1.327 . S
C709 C725 1.429 . S
C709 H731 0.950 . S
C710 H706 0.949 . S
C710 C718 1.574 . S
C710 C726 1.368 . S
H711 C719 0.950 . S
H712 C717 0.950 . S
H713 C718 0.949 . S
H714 C720 0.950 . S
H715 C721 0.950 . S
H716 C722 0.949 . S
C717 H712 0.950 . S
C717 C719 1.327 . S
C717 C723 1.429 . S
C718 C710 1.574 . S
C718 H713 0.949 . S
C718 C724 1.368 . S
C719 C703 1.349 . S
C719 H711 0.950 . S
C719 C717 1.327 . S
C720 C708 1.349 . S
C720 H714 0.950 . S
C720 C721 1.327 . S
C721 H715 0.950 . S
C721 C720 1.327 . S
C721 C725 1.429 . S
C722 C705 1.574 . S
C722 H716 0.949 . S
C722 C726 1.368 . S
C723 C704 1.429 . S
C723 C717 1.429 . S
C723 C724 1.523 . S
C724 C705 1.368 . S
C724 C718 1.368 . S
C724 C723 1.523 . S
C725 C709 1.429 . S
C725 C721 1.429 . S
C725 C726 1.523 . S
C726 C710 1.368 . S
C726 C722 1.368 . S
C726 C725 1.523 . S
H727 C702 0.950 . S
H728 C704 0.950 . S
H729 C705 0.949 . S
H730 C707 0.950 1_554 S
H731 C709 0.950 . S
C732 C733 1.349 . S
C732 C734 1.327 . S
C732 H757 0.950 . S
C733 C732 1.349 . S
C733 C749 1.349 . S
C734 C732 1.327 . S
C734 C753 1.429 . S
C734 H758 0.950 . S
C735 C752 1.574 . S
C735 C754 1.368 . S
C735 H759 0.949 . S
H736 C740 0.949 . S
C737 C738 1.349 . S
C737 C739 1.327 . S
C737 H760 0.950 . S
C738 C737 1.349 . S
C738 C750 1.349 . S
C739 C737 1.327 . S
C739 C755 1.429 . S
C739 H761 0.950 . S
C740 H736 0.949 . S
C740 C748 1.574 . S
C740 C756 1.368 . S
H741 C749 0.950 . S
H742 C747 0.950 . S
H743 C748 0.949 . S
H744 C750 0.910 1_554 S
H745 C751 0.950 . S
H746 C752 0.949 . S
C747 H742 0.950 . S
C747 C749 1.327 . S
C747 C753 1.429 . S
C748 C740 1.574 . S
C748 H743 0.949 . S
C748 C754 1.368 . S
C749 C733 1.349 . S
C749 H741 0.950 . S
C749 C747 1.327 . S
C750 C738 1.349 . S
C750 H744 0.910 1_556 S
C750 C751 1.327 . S
C751 H745 0.950 . S
C751 C750 1.327 . S
C751 C755 1.429 . S
C752 C735 1.574 . S
C752 H746 0.949 . S
C752 C756 1.368 . S
C753 C734 1.429 . S
C753 C747 1.429 . S
C753 C754 1.523 . S
C754 C735 1.368 . S
C754 C748 1.368 . S
C754 C753 1.523 . S
C755 C739 1.429 . S
C755 C751 1.429 . S
C755 C756 1.523 . S
C756 C740 1.368 . S
C756 C752 1.368 . S
C756 C755 1.523 . S
H757 C732 0.950 . S
H758 C734 0.950 . S
H759 C735 0.949 . S
H760 C737 0.950 . S
H761 C739 0.950 . S
C762 C763 1.349 . S
C762 C764 1.327 . S
C762 H787 0.950 . S
C763 C762 1.349 . S
C763 C779 1.349 . S
C764 C762 1.327 . S
C764 C783 1.429 . S
C764 H788 0.950 . S
C765 C782 1.574 . S
C765 C784 1.368 . S
C765 H789 0.949 . S
H766 C770 0.949 . S
C767 C768 1.349 . S
C767 C769 1.327 . S
C767 H790 0.950 . S
C768 C767 1.349 . S
C768 C780 1.349 . S
C769 C767 1.327 . S
C769 C785 1.429 . S
C769 H791 0.950 . S
C770 H766 0.949 . S
C770 C778 1.574 . S
C770 C786 1.368 . S
H771 C779 0.950 . S
H772 C777 0.950 . S
H773 C778 0.949 . S
H774 C780 0.950 1_554 S
H775 C781 0.950 1_554 S
H776 C782 0.949 . S
C777 H772 0.950 . S
C777 C779 1.327 . S
C777 C783 1.429 . S
C778 C770 1.574 . S
C778 H773 0.949 . S
C778 C784 1.368 . S
C779 C763 1.349 . S
C779 H771 0.950 . S
C779 C777 1.327 . S
C780 C768 1.349 . S
C780 H774 0.950 1_556 S
C780 C781 1.327 . S
C781 H775 0.950 1_556 S
C781 C780 1.327 . S
C781 C785 1.429 . S
C782 C765 1.574 . S
C782 H776 0.949 . S
C782 C786 1.368 . S
C783 C764 1.429 . S
C783 C777 1.429 . S
C783 C784 1.523 . S
C784 C765 1.368 . S
C784 C778 1.368 . S
C784 C783 1.523 . S
C785 C769 1.429 . S
C785 C781 1.429 . S
C785 C786 1.523 . S
C786 C770 1.368 . S
C786 C782 1.368 . S
C786 C785 1.523 . S
H787 C762 0.950 . S
H788 C764 0.950 . S
H789 C765 0.949 . S
H790 C767 0.950 . S
H791 C769 0.950 . S
C792 C793 1.349 . S
C792 C794 1.327 . S
C792 H817 0.950 . S
C793 C792 1.349 . S
C793 C809 1.349 . S
C794 C792 1.327 . S
C794 C813 1.429 . S
C794 H818 0.950 . S
C795 C812 1.574 . S
C795 C814 1.368 . S
C795 H819 0.949 . S
H796 C800 0.949 . S
C797 C798 1.349 . S
C797 C799 1.327 . S
C797 H820 0.997 . S
C798 C797 1.349 . S
C798 C810 1.349 . S
C799 C797 1.327 . S
C799 C815 1.429 . S
C799 H821 0.950 . S
C800 H796 0.949 . S
C800 C808 1.574 . S
C800 C816 1.368 . S
H801 C809 0.950 . S
H802 C807 0.950 . S
H803 C808 0.949 . S
H804 C810 0.950 . S
H805 C811 0.950 . S
H806 C812 0.949 . S
C807 H802 0.950 . S
C807 C809 1.327 . S
C807 C813 1.429 . S
C808 C800 1.574 . S
C808 H803 0.949 . S
C808 C814 1.368 . S
C809 C793 1.349 . S
C809 H801 0.950 . S
C809 C807 1.327 . S
C810 C798 1.349 . S
C810 H804 0.950 . S
C810 C811 1.327 . S
C811 H805 0.950 . S
C811 C810 1.327 . S
C811 C815 1.429 . S
C812 C795 1.574 . S
C812 H806 0.949 . S
C812 C816 1.368 . S
C813 C794 1.429 . S
C813 C807 1.429 . S
C813 C814 1.523 . S
C814 C795 1.368 . S
C814 C808 1.368 . S
C814 C813 1.523 . S
C815 C799 1.429 . S
C815 C811 1.429 . S
C815 C816 1.523 . S
C816 C800 1.368 . S
C816 C812 1.368 . S
C816 C815 1.523 . S
H817 C792 0.950 . S
H818 C794 0.950 . S
H819 C795 0.949 . S
H820 C797 0.997 . S
H821 C799 0.950 . S
C822 C823 1.349 . S
C822 C824 1.327 . S
C822 H847 0.950 . S
C823 C822 1.349 . S
C823 C839 1.349 . S
C824 C822 1.327 . S
C824 C843 1.429 . S
C824 H848 0.950 . S
C825 C842 1.574 . S
C825 C844 1.368 . S
C825 H849 0.949 . S
H826 C830 0.949 . S
C827 C828 1.349 . S
C827 C829 1.327 . S
C827 H850 0.950 . S
C828 C827 1.349 . S
C828 C840 1.349 . S
C829 C827 1.327 . S
C829 C845 1.429 . S
C829 H851 0.950 . S
C830 H826 0.949 . S
C830 C838 1.574 . S
C830 C846 1.368 . S
H831 C839 0.950 . S
H832 C837 0.950 . S
H833 C838 0.949 . S
H834 C840 0.950 . S
H835 C841 0.950 . S
H836 C842 0.949 . S
C837 H832 0.950 . S
C837 C839 1.327 . S
C837 C843 1.429 . S
C838 C830 1.574 . S
C838 H833 0.949 . S
C838 C844 1.368 . S
C839 C823 1.349 . S
C839 H831 0.950 . S
C839 C837 1.327 . S
C840 C828 1.349 . S
C840 H834 0.950 . S
C840 C841 1.327 . S
C841 H835 0.950 . S
C841 C840 1.327 . S
C841 C845 1.429 . S
C842 C825 1.574 . S
C842 H836 0.949 . S
C842 C846 1.368 . S
C843 C824 1.429 . S
C843 C837 1.429 . S
C843 C844 1.523 . S
C844 C825 1.368 . S
C844 C838 1.368 . S
C844 C843 1.523 . S
C845 C829 1.429 . S
C845 C841 1.429 . S
C845 C846 1.523 . S
C846 C830 1.368 . S
C846 C842 1.368 . S
C846 C845 1.523 . S
H847 C822 0.950 . S
H848 C824 0.950 . S
H849 C825 0.949 . S
H850 C827 0.950 . S
H851 C829 0.950 . S
C852 C853 1.349 . S
C852 C854 1.327 . S
C852 H877 0.950 . S
C853 C852 1.349 . S
C853 C869 1.349 . S
C854 C852 1.327 . S
C854 C873 1.429 . S
C854 H878 0.950 . S
C855 C872 1.574 . S
C855 C874 1.368 . S
C855 H879 0.949 . S
H856 C860 0.949 . S
C857 C858 1.349 . S
C857 C859 1.327 . S
C857 H880 0.950 . S
C858 C857 1.349 . S
C858 C870 1.349 . S
C859 C857 1.327 . S
C859 C875 1.429 . S
C859 H881 0.950 . S
C860 H856 0.949 . S
C860 C868 1.574 . S
C860 C876 1.368 . S
H861 C869 0.950 . S
H862 C867 0.950 . S
H863 C868 0.949 . S
H864 C870 0.950 . S
H865 C871 0.950 . S
H866 C872 0.949 . S
C867 H862 0.950 . S
C867 C869 1.327 . S
C867 C873 1.429 . S
C868 C860 1.574 . S
C868 H863 0.949 . S
C868 C874 1.368 . S
C869 C853 1.349 . S
C869 H861 0.950 . S
C869 C867 1.327 . S
C870 C858 1.349 . S
C870 H864 0.950 . S
C870 C871 1.327 . S
C871 H865 0.950 . S
C871 C870 1.327 . S
C871 C875 1.429 . S
C872 C855 1.574 . S
C872 H866 0.949 . S
C872 C876 1.368 . S
C873 C854 1.429 . S
C873 C867 1.429 . S
C873 C874 1.523 . S
C874 C855 1.368 . S
C874 C868 1.368 . S
C874 C873 1.523 . S
C875 C859 1.429 . S
C875 C871 1.429 . S
C875 C876 1.523 . S
C876 C860 1.368 . S
C876 C872 1.368 . S
C876 C875 1.523 . S
H877 C852 0.950 . S
H878 C854 0.950 . S
H879 C855 0.949 . S
H880 C857 0.950 . S
H881 C859 0.950 . S
C882 C883 1.349 . S
C882 C884 1.327 . S
C882 H907 0.950 . S
C883 C882 1.349 . S
C883 C899 1.349 . S
C884 C882 1.327 . S
C884 C903 1.429 . S
C884 H908 0.950 . S
C885 C902 1.604 . S
C885 C904 1.336 1_455 S
C885 H909 0.952 1_455 S
H886 C890 0.949 . S
C887 C888 1.349 . S
C887 C889 1.327 . S
C887 H910 0.950 . S
C888 C887 1.349 . S
C888 C900 1.349 . S
C889 C887 1.327 . S
C889 C905 1.429 . S
C889 H911 0.950 . S
C890 H886 0.949 . S
C890 C898 1.574 1_455 S
C890 C906 1.368 . S
H891 C899 0.950 . S
H892 C897 0.950 . S
H893 C898 0.949 . S
H894 C900 0.950 . S
H895 C901 0.950 . S
H896 C902 0.949 . S
C897 H892 0.950 . S
C897 C899 1.327 . S
C897 C903 1.429 . S
C898 C890 1.574 1_655 S
C898 H893 0.949 . S
C898 C904 1.368 . S
C899 C883 1.349 . S
C899 H891 0.950 . S
C899 C897 1.327 . S
C900 C888 1.349 . S
C900 H894 0.950 . S
C900 C901 1.327 . S
C901 H895 0.950 . S
C901 C900 1.327 . S
C901 C905 1.429 . S
C902 C885 1.604 . S
C902 H896 0.949 . S
C902 C906 1.368 . S
C903 C884 1.429 . S
C903 C897 1.429 . S
C903 C904 1.523 . S
C904 C885 1.336 1_655 S
C904 C898 1.368 . S
C904 C903 1.523 . S
C905 C889 1.429 . S
C905 C901 1.429 . S
C905 C906 1.523 . S
C906 C890 1.368 . S
C906 C902 1.368 . S
C906 C905 1.523 . S
H907 C882 0.950 . S
H908 C884 0.950 . S
H909 C885 0.952 1_655 S
H910 C887 0.950 . S
H911 C889 0.950 . S
C912 C913 1.349 . S
C912 C914 1.327 . S
C912 H937 0.950 . S
C913 C912 1.349 . S
C913 C929 1.349 . S
C914 C912 1.327 . S
C914 C933 1.429 . S
C914 H938 0.950 . S
C915 C932 1.574 . S
C915 C934 1.368 . S
C915 H939 0.949 . S
H916 C920 0.949 . S
C917 C918 1.349 . S
C917 C919 1.327 . S
C917 H940 0.950 . S
C918 C917 1.349 . S
C918 C930 1.349 . S
C919 C917 1.327 . S
C919 C935 1.429 . S
C919 H941 0.950 . S
C920 H916 0.949 . S
C920 C928 1.574 . S
C920 C936 1.368 . S
H921 C929 0.950 . S
H922 C927 0.950 . S
H923 C928 0.949 . S
H924 C930 0.950 . S
H925 C931 0.950 . S
H926 C932 0.949 . S
C927 H922 0.950 . S
C927 C929 1.327 . S
C927 C933 1.429 . S
C928 C920 1.574 . S
C928 H923 0.949 . S
C928 C934 1.368 . S
C929 C913 1.349 . S
C929 H921 0.950 . S
C929 C927 1.327 . S
C930 C918 1.349 . S
C930 H924 0.950 . S
C930 C931 1.327 . S
C931 H925 0.950 . S
C931 C930 1.327 . S
C931 C935 1.429 . S
C932 C915 1.574 . S
C932 H926 0.949 . S
C932 C936 1.368 . S
C933 C914 1.429 . S
C933 C927 1.429 . S
C933 C934 1.523 . S
C934 C915 1.368 . S
C934 C928 1.368 . S
C934 C933 1.523 . S
C935 C919 1.429 . S
C935 C931 1.429 . S
C935 C936 1.523 . S
C936 C920 1.368 . S
C936 C932 1.368 . S
C936 C935 1.523 . S
H937 C912 0.950 . S
H938 C914 0.950 . S
H939 C915 0.949 . S
H940 C917 0.950 . S
H941 C919 0.950 . S
C942 C943 1.349 . S
C942 C944 1.327 . S
C942 H967 0.950 . S
C943 C942 1.349 . S
C943 C959 1.349 . S
C944 C942 1.327 . S
C944 C963 1.429 . S
C944 H968 0.950 . S
C945 C962 1.574 1_545 S
C945 C964 1.368 . S
C945 H969 0.949 . S
H946 C950 0.949 . S
C947 C948 1.349 . S
C947 C949 1.327 . S
C947 H970 0.950 . S
C948 C947 1.349 . S
C948 C960 1.349 . S
C949 C947 1.327 . S
C949 C965 1.429 . S
C949 H971 0.950 . S
C950 H946 0.949 . S
C950 C958 1.574 1_565 S
C950 C966 1.368 . S
H951 C959 0.950 . S
H952 C957 0.950 . S
H953 C958 0.949 . S
H954 C960 0.950 . S
H955 C961 0.950 . S
H956 C962 0.949 . S
C957 H952 0.950 . S
C957 C959 1.327 . S
C957 C963 1.429 . S
C958 C950 1.574 1_545 S
C958 H953 0.949 . S
C958 C964 1.368 . S
C959 C943 1.349 . S
C959 H951 0.950 . S
C959 C957 1.327 . S
C960 C948 1.349 . S
C960 H954 0.950 . S
C960 C961 1.327 . S
C961 H955 0.950 . S
C961 C960 1.327 . S
C961 C965 1.429 . S
C962 C945 1.574 1_565 S
C962 H956 0.949 . S
C962 C966 1.368 . S
C963 C944 1.429 . S
C963 C957 1.429 . S
C963 C964 1.523 . S
C964 C945 1.368 . S
C964 C958 1.368 . S
C964 C963 1.523 . S
C965 C949 1.429 . S
C965 C961 1.429 . S
C965 C966 1.523 . S
C966 C950 1.368 . S
C966 C962 1.368 . S
C966 C965 1.523 . S
H967 C942 0.950 . S
H968 C944 0.950 . S
H969 C945 0.949 . S
H970 C947 0.950 . S
H971 C949 0.950 . S
C972 C973 1.349 . S
C972 C974 1.327 . S
C972 H997 0.950 . S
C973 C972 1.349 . S
C973 C989 1.349 . S
C974 C972 1.327 . S
C974 C993 1.429 . S
C974 H998 0.950 . S
C975 C992 1.574 . S
C975 C994 1.368 . S
C975 H999 0.949 . S
H976 C980 0.949 . S
C977 C978 1.349 . S
C977 C979 1.327 . S
C977 H1000 0.950 . S
C978 C977 1.349 . S
C978 C990 1.349 . S
C979 C977 1.327 . S
C979 C995 1.429 . S
C979 H1001 0.950 . S
C980 H976 0.949 . S
C980 C988 1.574 . S
C980 C996 1.368 . S
H981 C989 0.950 . S
H982 C987 0.950 . S
H983 C988 0.949 . S
H984 C990 0.950 . S
H985 C991 0.950 . S
H986 C992 0.949 . S
C987 H982 0.950 . S
C987 C989 1.327 . S
C987 C993 1.429 . S
C988 C980 1.574 . S
C988 H983 0.949 . S
C988 C994 1.368 . S
C989 C973 1.349 . S
C989 H981 0.950 . S
C989 C987 1.327 . S
C990 C978 1.349 . S
C990 H984 0.950 . S
C990 C991 1.327 . S
C991 H985 0.950 . S
C991 C990 1.327 . S
C991 C995 1.429 . S
C992 C975 1.574 . S
C992 H986 0.949 . S
C992 C996 1.368 . S
C993 C974 1.429 . S
C993 C987 1.429 . S
C993 C994 1.523 . S
C994 C975 1.368 . S
C994 C988 1.368 . S
C994 C993 1.523 . S
C995 C979 1.429 . S
C995 C991 1.429 . S
C995 C996 1.523 . S
C996 C980 1.368 . S
C996 C992 1.368 . S
C996 C995 1.523 . S
H997 C972 0.950 . S
H998 C974 0.950 . S
H999 C975 0.949 . S
H1000 C977 0.950 . S
H1001 C979 0.950 . S
C1002 C1003 1.349 . S
C1002 C1004 1.327 . S
C1002 H1027 0.950 . S
C1003 C1002 1.349 . S
C1003 C1019 1.349 . S
C1004 C1002 1.327 . S
C1004 C1023 1.429 . S
C1004 H1028 0.950 . S
C1005 C1022 1.574 . S
C1005 C1024 1.368 . S
C1005 H1029 0.949 . S
H1006 C1010 0.949 . S
C1007 C1008 1.349 . S
C1007 C1009 1.327 . S
C1007 H1030 0.950 . S
C1008 C1007 1.349 . S
C1008 C1020 1.349 . S
C1009 C1007 1.327 . S
C1009 C1025 1.429 . S
C1009 H1031 0.950 . S
C1010 H1006 0.949 . S
C1010 C1018 1.574 . S
C1010 C1026 1.368 . S
H1011 C1019 0.950 . S
H1012 C1017 0.950 . S
H1013 C1018 0.949 . S
H1014 C1020 0.950 . S
H1015 C1021 0.950 . S
H1016 C1022 0.949 . S
C1017 H1012 0.950 . S
C1017 C1019 1.327 . S
C1017 C1023 1.429 . S
C1018 C1010 1.574 . S
C1018 H1013 0.949 . S
C1018 C1024 1.368 . S
C1019 C1003 1.349 . S
C1019 H1011 0.950 . S
C1019 C1017 1.327 . S
C1020 C1008 1.349 . S
C1020 H1014 0.950 . S
C1020 C1021 1.327 . S
C1021 H1015 0.950 . S
C1021 C1020 1.327 . S
C1021 C1025 1.429 . S
C1022 C1005 1.574 . S
C1022 H1016 0.949 . S
C1022 C1026 1.368 . S
C1023 C1004 1.429 . S
C1023 C1017 1.429 . S
C1023 C1024 1.523 . S
C1024 C1005 1.368 . S
C1024 C1018 1.368 . S
C1024 C1023 1.523 . S
C1025 C1009 1.429 . S
C1025 C1021 1.429 . S
C1025 C1026 1.523 . S
C1026 C1010 1.368 . S
C1026 C1022 1.368 . S
C1026 C1025 1.523 . S
H1027 C1002 0.950 . S
H1028 C1004 0.950 . S
H1029 C1005 0.949 . S
H1030 C1007 0.950 . S
H1031 C1009 0.950 . S
C1032 C1033 1.349 . S
C1032 C1034 1.327 . S
C1032 H1057 0.950 . S
C1033 C1032 1.349 . S
C1033 C1049 1.349 . S
C1034 C1032 1.327 . S
C1034 C1053 1.429 . S
C1034 H1058 0.950 . S
C1035 C1052 1.574 . S
C1035 C1054 1.368 . S
C1035 H1059 0.949 . S
H1036 C1040 0.949 . S
C1037 C1038 1.349 . S
C1037 C1039 1.327 . S
C1037 H1060 0.950 . S
C1038 C1037 1.349 . S
C1038 C1050 1.349 . S
C1039 C1037 1.327 . S
C1039 C1055 1.429 . S
C1039 H1061 0.950 . S
C1040 H1036 0.949 . S
C1040 C1048 1.574 . S
C1040 C1056 1.368 . S
H1041 C1049 0.950 . S
H1042 C1047 0.950 . S
H1043 C1048 0.949 . S
H1044 C1050 0.950 . S
H1045 C1051 0.950 . S
H1046 C1052 0.949 . S
C1047 H1042 0.950 . S
C1047 C1049 1.327 . S
C1047 C1053 1.429 . S
C1048 C1040 1.574 . S
C1048 H1043 0.949 . S
C1048 C1054 1.368 . S
C1049 C1033 1.349 . S
C1049 H1041 0.950 . S
C1049 C1047 1.327 . S
C1050 C1038 1.349 . S
C1050 H1044 0.950 . S
C1050 C1051 1.327 . S
C1051 H1045 0.950 . S
C1051 C1050 1.327 . S
C1051 C1055 1.429 . S
C1052 C1035 1.574 . S
C1052 H1046 0.949 . S
C1052 C1056 1.368 . S
C1053 C1034 1.429 . S
C1053 C1047 1.429 . S
C1053 C1054 1.523 . S
C1054 C1035 1.368 . S
C1054 C1048 1.368 . S
C1054 C1053 1.523 . S
C1055 C1039 1.429 . S
C1055 C1051 1.429 . S
C1055 C1056 1.523 . S
C1056 C1040 1.368 . S
C1056 C1052 1.368 . S
C1056 C1055 1.523 . S
H1057 C1032 0.950 . S
H1058 C1034 0.950 . S
H1059 C1035 0.949 . S
H1060 C1037 0.950 . S
H1061 C1039 0.950 . S
C1062 C1063 1.349 . S
C1062 C1064 1.327 . S
C1062 H1087 0.950 . S
C1063 C1062 1.349 . S
C1063 C1079 1.349 . S
C1064 C1062 1.327 . S
C1064 C1083 1.429 . S
C1064 H1088 0.950 . S
C1065 C1082 1.574 . S
C1065 C1084 1.368 . S
C1065 H1089 0.949 . S
H1066 C1070 0.949 . S
C1067 C1068 1.349 . S
C1067 C1069 1.327 . S
C1067 H1090 0.950 . S
C1068 C1067 1.349 . S
C1068 C1080 1.349 . S
C1069 C1067 1.327 . S
C1069 C1085 1.429 . S
C1069 H1091 0.950 . S
C1070 H1066 0.949 . S
C1070 C1078 1.574 . S
C1070 C1086 1.368 . S
H1071 C1079 0.950 . S
H1072 C1077 0.950 . S
H1073 C1078 0.949 . S
H1074 C1080 0.950 . S
H1075 C1081 0.950 . S
H1076 C1082 0.949 . S
C1077 H1072 0.950 . S
C1077 C1079 1.327 . S
C1077 C1083 1.429 . S
C1078 C1070 1.574 . S
C1078 H1073 0.949 . S
C1078 C1084 1.368 . S
C1079 C1063 1.349 . S
C1079 H1071 0.950 . S
C1079 C1077 1.327 . S
C1080 C1068 1.349 . S
C1080 H1074 0.950 . S
C1080 C1081 1.327 . S
C1081 H1075 0.950 . S
C1081 C1080 1.327 . S
C1081 C1085 1.429 . S
C1082 C1065 1.574 . S
C1082 H1076 0.949 . S
C1082 C1086 1.368 . S
C1083 C1064 1.429 . S
C1083 C1077 1.429 . S
C1083 C1084 1.523 . S
C1084 C1065 1.368 . S
C1084 C1078 1.368 . S
C1084 C1083 1.523 . S
C1085 C1069 1.429 . S
C1085 C1081 1.429 . S
C1085 C1086 1.523 . S
C1086 C1070 1.368 . S
C1086 C1082 1.368 . S
C1086 C1085 1.523 . S
H1087 C1062 0.950 . S
H1088 C1064 0.950 . S
H1089 C1065 0.949 . S
H1090 C1067 0.950 . S
H1091 C1069 0.950 . S
C1092 C1093 1.349 . S
C1092 C1094 1.327 . S
C1092 H1117 0.950 . S
C1093 C1092 1.349 . S
C1093 C1109 1.349 . S
C1094 C1092 1.327 . S
C1094 C1113 1.429 . S
C1094 H1118 0.950 . S
C1095 C1112 1.574 . S
C1095 C1114 1.368 . S
C1095 H1119 0.949 . S
H1096 C1100 0.949 . S
C1097 C1098 1.349 . S
C1097 C1099 1.327 . S
C1097 H1120 0.950 . S
C1098 C1097 1.349 . S
C1098 C1110 1.349 . S
C1099 C1097 1.327 . S
C1099 C1115 1.429 . S
C1099 H1121 0.950 . S
C1100 H1096 0.949 . S
C1100 C1108 1.574 . S
C1100 C1116 1.368 . S
H1101 C1109 0.950 . S
H1102 C1107 0.950 . S
H1103 C1108 0.949 . S
H1104 C1110 0.950 . S
H1105 C1111 0.950 . S
H1106 C1112 0.949 . S
C1107 H1102 0.950 . S
C1107 C1109 1.327 . S
C1107 C1113 1.429 . S
C1108 C1100 1.574 . S
C1108 H1103 0.949 . S
C1108 C1114 1.368 . S
C1109 C1093 1.349 . S
C1109 H1101 0.950 . S
C1109 C1107 1.327 . S
C1110 C1098 1.349 . S
C1110 H1104 0.950 . S
C1110 C1111 1.327 . S
C1111 H1105 0.950 . S
C1111 C1110 1.327 . S
C1111 C1115 1.429 . S
C1112 C1095 1.574 . S
C1112 H1106 0.949 . S
C1112 C1116 1.368 . S
C1113 C1094 1.429 . S
C1113 C1107 1.429 . S
C1113 C1114 1.523 . S
C1114 C1095 1.368 . S
C1114 C1108 1.368 . S
C1114 C1113 1.523 . S
C1115 C1099 1.429 . S
C1115 C1111 1.429 . S
C1115 C1116 1.523 . S
C1116 C1100 1.368 . S
C1116 C1112 1.368 . S
C1116 C1115 1.523 . S
H1117 C1092 0.950 . S
H1118 C1094 0.950 . S
H1119 C1095 0.949 . S
H1120 C1097 0.950 . S
H1121 C1099 0.950 . S
C1122 C1123 1.349 . S
C1122 C1124 1.327 . S
C1122 H1147 0.950 . S
C1123 C1122 1.349 . S
C1123 C1139 1.349 . S
C1124 C1122 1.327 . S
C1124 C1143 1.429 . S
C1124 H1148 0.950 . S
C1125 C1142 1.574 . S
C1125 C1144 1.368 . S
C1125 H1149 0.949 . S
H1126 C1130 0.949 . S
C1127 C1128 1.349 . S
C1127 C1129 1.327 . S
C1127 H1150 0.950 . S
C1128 C1127 1.349 . S
C1128 C1140 1.349 . S
C1129 C1127 1.327 . S
C1129 C1145 1.429 . S
C1129 H1151 0.950 . S
C1130 H1126 0.949 . S
C1130 C1138 1.574 . S
C1130 C1146 1.368 . S
H1131 C1139 0.950 . S
H1132 C1137 0.950 . S
H1133 C1138 0.949 . S
H1134 C1140 0.950 . S
H1135 C1141 0.950 . S
H1136 C1142 0.949 . S
C1137 H1132 0.950 . S
C1137 C1139 1.327 . S
C1137 C1143 1.429 . S
C1138 C1130 1.574 . S
C1138 H1133 0.949 . S
C1138 C1144 1.368 . S
C1139 C1123 1.349 . S
C1139 H1131 0.950 . S
C1139 C1137 1.327 . S
C1140 C1128 1.349 . S
C1140 H1134 0.950 . S
C1140 C1141 1.327 . S
C1141 H1135 0.950 . S
C1141 C1140 1.327 . S
C1141 C1145 1.429 . S
C1142 C1125 1.574 . S
C1142 H1136 0.949 . S
C1142 C1146 1.368 . S
C1143 C1124 1.429 . S
C1143 C1137 1.429 . S
C1143 C1144 1.523 . S
C1144 C1125 1.368 . S
C1144 C1138 1.368 . S
C1144 C1143 1.523 . S
C1145 C1129 1.429 . S
C1145 C1141 1.429 . S
C1145 C1146 1.523 . S
C1146 C1130 1.368 . S
C1146 C1142 1.368 . S
C1146 C1145 1.523 . S
H1147 C1122 0.950 . S
H1148 C1124 0.950 . S
H1149 C1125 0.949 . S
H1150 C1127 0.950 . S
H1151 C1129 0.950 . S
C1152 C1153 1.349 . S
C1152 C1154 1.327 . S
C1152 H1177 0.950 . S
C1153 C1152 1.349 . S
C1153 C1169 1.349 . S
C1154 C1152 1.327 . S
C1154 C1173 1.429 . S
C1154 H1178 0.950 . S
C1155 C1172 1.574 1_545 S
C1155 C1174 1.368 . S
C1155 H1179 0.949 . S
H1156 C1160 0.949 . S
C1157 C1158 1.349 . S
C1157 C1159 1.327 . S
C1157 H1180 0.950 . S
C1158 C1157 1.349 . S
C1158 C1170 1.349 . S
C1159 C1157 1.327 . S
C1159 C1175 1.429 . S
C1159 H1181 0.950 . S
C1160 H1156 0.949 . S
C1160 C1168 1.574 1_565 S
C1160 C1176 1.368 . S
H1161 C1169 0.950 . S
H1162 C1167 0.950 . S
H1163 C1168 0.949 . S
H1164 C1170 0.950 . S
H1165 C1171 0.950 . S
H1166 C1172 0.949 . S
C1167 H1162 0.950 . S
C1167 C1169 1.327 . S
C1167 C1173 1.429 . S
C1168 C1160 1.574 1_545 S
C1168 H1163 0.949 . S
C1168 C1174 1.368 . S
C1169 C1153 1.349 . S
C1169 H1161 0.950 . S
C1169 C1167 1.327 . S
C1170 C1158 1.349 . S
C1170 H1164 0.950 . S
C1170 C1171 1.327 . S
C1171 H1165 0.950 . S
C1171 C1170 1.327 . S
C1171 C1175 1.429 . S
C1172 C1155 1.574 1_565 S
C1172 H1166 0.949 . S
C1172 C1176 1.368 . S
C1173 C1154 1.429 . S
C1173 C1167 1.429 . S
C1173 C1174 1.523 . S
C1174 C1155 1.368 . S
C1174 C1168 1.368 . S
C1174 C1173 1.523 . S
C1175 C1159 1.429 . S
C1175 C1171 1.429 . S
C1175 C1176 1.523 . S
C1176 C1160 1.368 . S
C1176 C1172 1.368 . S
C1176 C1175 1.523 . S
H1177 C1152 0.950 . S
H1178 C1154 0.950 . S
H1179 C1155 0.949 . S
H1180 C1157 0.950 . S
H1181 C1159 0.950 . S
C1182 C1183 1.349 . S
C1182 C1184 1.327 . S
C1182 H1207 0.950 . S
C1183 C1182 1.349 . S
C1183 C1199 1.349 . S
C1184 C1182 1.327 . S
C1184 C1203 1.429 . S
C1184 H1208 0.950 . S
C1185 C1202 1.574 . S
C1185 C1204 1.368 1_455 S
C1185 H1209 0.949 . S
H1186 C1190 0.949 . S
C1187 C1188 1.349 . S
C1187 C1189 1.327 . S
C1187 H1210 0.950 . S
C1188 C1187 1.349 . S
C1188 C1200 1.349 . S
C1189 C1187 1.327 . S
C1189 C1205 1.429 . S
C1189 H1211 0.950 . S
C1190 H1186 0.949 . S
C1190 C1198 1.574 1_455 S
C1190 C1206 1.368 . S
H1191 C1199 0.950 . S
H1192 C1197 0.950 . S
H1193 C1198 0.949 . S
H1194 C1200 0.950 . S
H1195 C1201 0.950 . S
H1196 C1202 0.949 . S
C1197 H1192 0.950 . S
C1197 C1199 1.327 . S
C1197 C1203 1.429 . S
C1198 C1190 1.574 1_655 S
C1198 H1193 0.949 . S
C1198 C1204 1.368 . S
C1199 C1183 1.349 . S
C1199 H1191 0.950 . S
C1199 C1197 1.327 . S
C1200 C1188 1.349 . S
C1200 H1194 0.950 . S
C1200 C1201 1.327 . S
C1201 H1195 0.950 . S
C1201 C1200 1.327 . S
C1201 C1205 1.429 . S
C1202 C1185 1.574 . S
C1202 H1196 0.949 . S
C1202 C1206 1.368 . S
C1203 C1184 1.429 . S
C1203 C1197 1.429 . S
C1203 C1204 1.523 . S
C1204 C1185 1.368 1_655 S
C1204 C1198 1.368 . S
C1204 C1203 1.523 . S
C1205 C1189 1.429 . S
C1205 C1201 1.429 . S
C1205 C1206 1.523 . S
C1206 C1190 1.368 . S
C1206 C1202 1.368 . S
C1206 C1205 1.523 . S
H1207 C1182 0.950 . S
H1208 C1184 0.950 . S
H1209 C1185 0.949 . S
H1210 C1187 0.950 . S
H1211 C1189 0.950 . S
C1212 C1213 1.349 . S
C1212 C1214 1.327 . S
C1212 H1237 0.950 . S
C1213 C1212 1.349 . S
C1213 C1229 1.349 . S
C1214 C1212 1.327 . S
C1214 C1233 1.429 . S
C1214 H1238 0.950 . S
C1215 C1232 1.574 . S
C1215 C1234 1.368 . S
C1215 H1239 0.949 . S
H1216 C1220 0.949 . S
C1217 C1218 1.349 . S
C1217 C1219 1.327 . S
C1217 H1240 0.950 . S
C1218 C1217 1.349 . S
C1218 C1230 1.349 . S
C1219 C1217 1.327 . S
C1219 C1235 1.429 . S
C1219 H1241 0.950 . S
C1220 H1216 0.949 . S
C1220 C1228 1.574 . S
C1220 C1236 1.368 . S
H1221 C1229 0.950 . S
H1222 C1227 0.950 . S
H1223 C1228 0.949 . S
H1224 C1230 0.950 . S
H1225 C1231 0.950 . S
H1226 C1232 0.949 . S
C1227 H1222 0.950 . S
C1227 C1229 1.327 . S
C1227 C1233 1.429 . S
C1228 C1220 1.574 . S
C1228 H1223 0.949 . S
C1228 C1234 1.368 . S
C1229 C1213 1.349 . S
C1229 H1221 0.950 . S
C1229 C1227 1.327 . S
C1230 C1218 1.349 . S
C1230 H1224 0.950 . S
C1230 C1231 1.327 . S
C1231 H1225 0.950 . S
C1231 C1230 1.327 . S
C1231 C1235 1.429 . S
C1232 C1215 1.574 . S
C1232 H1226 0.949 . S
C1232 C1236 1.368 . S
C1233 C1214 1.429 . S
C1233 C1227 1.429 . S
C1233 C1234 1.523 . S
C1234 C1215 1.368 . S
C1234 C1228 1.368 . S
C1234 C1233 1.523 . S
C1235 C1219 1.429 . S
C1235 C1231 1.429 . S
C1235 C1236 1.523 . S
C1236 C1220 1.368 . S
C1236 C1232 1.368 . S
C1236 C1235 1.523 . S
H1237 C1212 0.950 . S
H1238 C1214 0.950 . S
H1239 C1215 0.949 . S
H1240 C1217 0.950 . S
H1241 C1219 0.950 . S
C1242 C1243 1.349 . S
C1242 C1244 1.327 . S
C1242 H1267 0.950 . S
C1243 C1242 1.349 . S
C1243 C1259 1.349 . S
C1244 C1242 1.327 . S
C1244 C1263 1.429 . S
C1244 H1268 0.950 . S
C1245 C1262 1.574 . S
C1245 C1264 1.368 . S
C1245 H1269 0.949 . S
H1246 C1250 0.949 . S
C1247 C1248 1.349 . S
C1247 C1249 1.327 . S
C1247 H1270 0.950 . S
C1248 C1247 1.349 . S
C1248 C1260 1.349 . S
C1249 C1247 1.327 . S
C1249 C1265 1.429 . S
C1249 H1271 0.950 . S
C1250 H1246 0.949 . S
C1250 C1258 1.574 . S
C1250 C1266 1.368 . S
H1251 C1259 0.950 . S
H1252 C1257 0.950 . S
H1253 C1258 0.949 . S
H1254 C1260 0.950 . S
H1255 C1261 0.950 . S
H1256 C1262 0.949 . S
C1257 H1252 0.950 . S
C1257 C1259 1.327 . S
C1257 C1263 1.429 . S
C1258 C1250 1.574 . S
C1258 H1253 0.949 . S
C1258 C1264 1.368 . S
C1259 C1243 1.349 . S
C1259 H1251 0.950 . S
C1259 C1257 1.327 . S
C1260 C1248 1.349 . S
C1260 H1254 0.950 . S
C1260 C1261 1.327 . S
C1261 H1255 0.950 . S
C1261 C1260 1.327 . S
C1261 C1265 1.429 . S
C1262 C1245 1.574 . S
C1262 H1256 0.949 . S
C1262 C1266 1.368 . S
C1263 C1244 1.429 . S
C1263 C1257 1.429 . S
C1263 C1264 1.523 . S
C1264 C1245 1.368 . S
C1264 C1258 1.368 . S
C1264 C1263 1.523 . S
C1265 C1249 1.429 . S
C1265 C1261 1.429 . S
C1265 C1266 1.523 . S
C1266 C1250 1.368 . S
C1266 C1262 1.368 . S
C1266 C1265 1.523 . S
H1267 C1242 0.950 . S
H1268 C1244 0.950 . S
H1269 C1245 0.949 . S
H1270 C1247 0.950 . S
H1271 C1249 0.950 . S
C1272 C1273 1.349 . S
C1272 C1274 1.327 . S
C1272 H1297 0.950 . S
C1273 C1272 1.349 . S
C1273 C1289 1.349 . S
C1274 C1272 1.327 . S
C1274 C1293 1.429 . S
C1274 H1298 0.950 . S
C1275 C1292 1.574 . S
C1275 C1294 1.368 . S
C1275 H1299 0.949 . S
H1276 C1280 0.949 . S
C1277 C1278 1.349 . S
C1277 C1279 1.327 . S
C1277 H1300 0.950 . S
C1278 C1277 1.349 . S
C1278 C1290 1.349 . S
C1279 C1277 1.327 . S
C1279 C1295 1.429 . S
C1279 H1301 0.950 . S
C1280 H1276 0.949 . S
C1280 C1288 1.574 . S
C1280 C1296 1.368 . S
H1281 C1289 0.950 . S
H1282 C1287 0.950 . S
H1283 C1288 0.949 . S
H1284 C1290 0.950 . S
H1285 C1291 0.950 . S
H1286 C1292 0.949 . S
C1287 H1282 0.950 . S
C1287 C1289 1.327 . S
C1287 C1293 1.429 . S
C1288 C1280 1.574 . S
C1288 H1283 0.949 . S
C1288 C1294 1.368 . S
C1289 C1273 1.349 . S
C1289 H1281 0.950 . S
C1289 C1287 1.327 . S
C1290 C1278 1.349 . S
C1290 H1284 0.950 . S
C1290 C1291 1.327 . S
C1291 H1285 0.950 . S
C1291 C1290 1.327 . S
C1291 C1295 1.429 . S
C1292 C1275 1.574 . S
C1292 H1286 0.949 . S
C1292 C1296 1.368 . S
C1293 C1274 1.429 . S
C1293 C1287 1.429 . S
C1293 C1294 1.523 . S
C1294 C1275 1.368 . S
C1294 C1288 1.368 . S
C1294 C1293 1.523 . S
C1295 C1279 1.429 . S
C1295 C1291 1.429 . S
C1295 C1296 1.523 . S
C1296 C1280 1.368 . S
C1296 C1292 1.368 . S
C1296 C1295 1.523 . S
H1297 C1272 0.950 . S
H1298 C1274 0.950 . S
H1299 C1275 0.949 . S
H1300 C1277 0.950 . S
H1301 C1279 0.950 . S
C1302 C1303 1.349 . S
C1302 C1304 1.327 . S
C1302 H1327 0.950 . S
C1303 C1302 1.349 . S
C1303 C1319 1.349 . S
C1304 C1302 1.327 . S
C1304 C1323 1.429 . S
C1304 H1328 0.950 . S
C1305 C1322 1.574 . S
C1305 C1324 1.368 . S
C1305 H1329 0.949 . S
H1306 C1310 0.949 . S
C1307 C1308 1.349 . S
C1307 C1309 1.327 . S
C1307 H1330 0.950 . S
C1308 C1307 1.349 . S
C1308 C1320 1.349 . S
C1309 C1307 1.327 . S
C1309 C1325 1.429 . S
C1309 H1331 0.950 . S
C1310 H1306 0.949 . S
C1310 C1318 1.574 . S
C1310 C1326 1.368 . S
H1311 C1319 0.950 . S
H1312 C1317 0.950 . S
H1313 C1318 0.949 . S
H1314 C1320 0.950 . S
H1315 C1321 0.950 . S
H1316 C1322 0.949 . S
C1317 H1312 0.950 . S
C1317 C1319 1.327 . S
C1317 C1323 1.429 . S
C1318 C1310 1.574 . S
C1318 H1313 0.949 . S
C1318 C1324 1.368 . S
C1319 C1303 1.349 . S
C1319 H1311 0.950 . S
C1319 C1317 1.327 . S
C1320 C1308 1.349 . S
C1320 H1314 0.950 . S
C1320 C1321 1.327 . S
C1321 H1315 0.950 . S
C1321 C1320 1.327 . S
C1321 C1325 1.429 . S
C1322 C1305 1.574 . S
C1322 H1316 0.949 . S
C1322 C1326 1.368 . S
C1323 C1304 1.429 . S
C1323 C1317 1.429 . S
C1323 C1324 1.523 . S
C1324 C1305 1.368 . S
C1324 C1318 1.368 . S
C1324 C1323 1.523 . S
C1325 C1309 1.429 . S
C1325 C1321 1.429 . S
C1325 C1326 1.523 . S
C1326 C1310 1.368 . S
C1326 C1322 1.368 . S
C1326 C1325 1.523 . S
H1327 C1302 0.950 . S
H1328 C1304 0.950 . S
H1329 C1305 0.949 . S
H1330 C1307 0.950 . S
H1331 C1309 0.950 . S
C1332 C1333 1.349 . S
C1332 C1334 1.327 . S
C1332 H1357 0.950 . S
C1333 C1332 1.349 . S
C1333 C1349 1.349 . S
C1334 C1332 1.327 . S
C1334 C1353 1.429 . S
C1334 H1358 0.950 . S
C1335 C1352 1.574 1_565 S
C1335 C1354 1.368 . S
C1335 H1359 0.949 . S
H1336 C1340 0.949 . S
C1337 C1338 1.349 . S
C1337 C1339 1.327 . S
C1337 H1360 0.950 . S
C1338 C1337 1.349 . S
C1338 C1350 1.349 . S
C1339 C1337 1.327 . S
C1339 C1355 1.429 . S
C1339 H1361 0.950 . S
C1340 H1336 0.949 . S
C1340 C1348 1.574 1_545 S
C1340 C1356 1.368 . S
H1341 C1349 0.950 . S
H1342 C1347 0.950 . S
H1343 C1348 0.949 . S
H1344 C1350 0.950 . S
H1345 C1351 0.950 . S
H1346 C1352 0.949 . S
C1347 H1342 0.950 . S
C1347 C1349 1.327 . S
C1347 C1353 1.429 . S
C1348 C1340 1.574 1_565 S
C1348 H1343 0.949 . S
C1348 C1354 1.368 . S
C1349 C1333 1.349 . S
C1349 H1341 0.950 . S
C1349 C1347 1.327 . S
C1350 C1338 1.349 . S
C1350 H1344 0.950 . S
C1350 C1351 1.327 . S
C1351 H1345 0.950 . S
C1351 C1350 1.327 . S
C1351 C1355 1.429 . S
C1352 C1335 1.574 1_545 S
C1352 H1346 0.949 . S
C1352 C1356 1.368 . S
C1353 C1334 1.429 . S
C1353 C1347 1.429 . S
C1353 C1354 1.523 . S
C1354 C1335 1.368 . S
C1354 C1348 1.368 . S
C1354 C1353 1.523 . S
C1355 C1339 1.429 . S
C1355 C1351 1.429 . S
C1355 C1356 1.523 . S
C1356 C1340 1.368 . S
C1356 C1352 1.368 . S
C1356 C1355 1.523 . S
H1357 C1332 0.950 . S
H1358 C1334 0.950 . S
H1359 C1335 0.949 . S
H1360 C1337 0.950 . S
H1361 C1339 0.950 . S
C1362 C1363 1.349 . S
C1362 C1364 1.327 . S
C1362 H1387 0.950 . S
C1363 C1362 1.349 . S
C1363 C1379 1.349 . S
C1364 C1362 1.327 . S
C1364 C1383 1.429 . S
C1364 H1388 0.950 . S
C1365 C1382 1.574 . S
C1365 C1384 1.368 1_655 S
C1365 H1389 0.949 1_655 S
H1366 C1370 0.949 . S
C1367 C1368 1.349 . S
C1367 C1369 1.327 . S
C1367 H1390 0.950 . S
C1368 C1367 1.349 . S
C1368 C1380 1.349 . S
C1369 C1367 1.327 . S
C1369 C1385 1.429 . S
C1369 H1391 0.950 . S
C1370 H1366 0.949 . S
C1370 C1378 1.574 1_655 S
C1370 C1386 1.368 . S
H1371 C1379 0.950 . S
H1372 C1377 0.950 . S
H1373 C1378 0.949 . S
H1374 C1380 0.950 . S
H1375 C1381 0.950 . S
H1376 C1382 0.949 . S
C1377 H1372 0.950 . S
C1377 C1379 1.327 . S
C1377 C1383 1.429 . S
C1378 C1370 1.574 1_455 S
C1378 H1373 0.949 . S
C1378 C1384 1.368 . S
C1379 C1363 1.349 . S
C1379 H1371 0.950 . S
C1379 C1377 1.327 . S
C1380 C1368 1.349 . S
C1380 H1374 0.950 . S
C1380 C1381 1.327 . S
C1381 H1375 0.950 . S
C1381 C1380 1.327 . S
C1381 C1385 1.429 . S
C1382 C1365 1.574 . S
C1382 H1376 0.949 . S
C1382 C1386 1.368 . S
C1383 C1364 1.429 . S
C1383 C1377 1.429 . S
C1383 C1384 1.523 . S
C1384 C1365 1.368 1_455 S
C1384 C1378 1.368 . S
C1384 C1383 1.523 . S
C1385 C1369 1.429 . S
C1385 C1381 1.429 . S
C1385 C1386 1.523 . S
C1386 C1370 1.368 . S
C1386 C1382 1.368 . S
C1386 C1385 1.523 . S
H1387 C1362 0.950 . S
H1388 C1364 0.950 . S
H1389 C1365 0.949 1_455 S
H1390 C1367 0.950 . S
H1391 C1369 0.950 . S
C1392 C1393 1.349 . S
C1392 C1394 1.327 . S
C1392 H1417 0.950 . S
C1393 C1392 1.349 . S
C1393 C1409 1.349 . S
C1394 C1392 1.327 . S
C1394 C1413 1.429 . S
C1394 H1418 0.950 . S
C1395 C1412 1.574 . S
C1395 C1414 1.368 . S
C1395 H1419 0.949 . S
H1396 C1400 0.949 . S
C1397 C1398 1.349 . S
C1397 C1399 1.327 . S
C1397 H1420 0.950 . S
C1398 C1397 1.349 . S
C1398 C1410 1.349 . S
C1399 C1397 1.327 . S
C1399 C1415 1.429 . S
C1399 H1421 0.950 . S
C1400 H1396 0.949 . S
C1400 C1408 1.574 . S
C1400 C1416 1.368 . S
H1401 C1409 0.950 . S
H1402 C1407 0.950 . S
H1403 C1408 0.949 . S
H1404 C1410 0.950 . S
H1405 C1411 0.950 . S
H1406 C1412 0.949 . S
C1407 H1402 0.950 . S
C1407 C1409 1.327 . S
C1407 C1413 1.429 . S
C1408 C1400 1.574 . S
C1408 H1403 0.949 . S
C1408 C1414 1.368 . S
C1409 C1393 1.349 . S
C1409 H1401 0.950 . S
C1409 C1407 1.327 . S
C1410 C1398 1.349 . S
C1410 H1404 0.950 . S
C1410 C1411 1.327 . S
C1411 H1405 0.950 . S
C1411 C1410 1.327 . S
C1411 C1415 1.429 . S
C1412 C1395 1.574 . S
C1412 H1406 0.949 . S
C1412 C1416 1.368 . S
C1413 C1394 1.429 . S
C1413 C1407 1.429 . S
C1413 C1414 1.523 . S
C1414 C1395 1.368 . S
C1414 C1408 1.368 . S
C1414 C1413 1.523 . S
C1415 C1399 1.429 . S
C1415 C1411 1.429 . S
C1415 C1416 1.523 . S
C1416 C1400 1.368 . S
C1416 C1412 1.368 . S
C1416 C1415 1.523 . S
H1417 C1392 0.950 . S
H1418 C1394 0.950 . S
H1419 C1395 0.949 . S
H1420 C1397 0.950 . S
H1421 C1399 0.950 . S
C1422 C1423 1.349 . S
C1422 C1424 1.327 . S
C1422 H1447 0.950 . S
C1423 C1422 1.349 . S
C1423 C1439 1.349 . S
C1424 C1422 1.327 . S
C1424 C1443 1.429 . S
C1424 H1448 0.950 . S
C1425 C1442 1.574 1_455 S
C1425 C1444 1.368 . S
C1425 H1449 0.949 . S
H1426 C1430 0.949 . S
C1427 C1428 1.349 . S
C1427 C1429 1.327 . S
C1427 H1450 0.950 . S
C1428 C1427 1.349 . S
C1428 C1440 1.349 . S
C1429 C1427 1.327 . S
C1429 C1445 1.429 . S
C1429 H1451 0.950 . S
C1430 H1426 0.949 . S
C1430 C1438 1.574 1_655 S
C1430 C1446 1.368 . S
H1431 C1439 0.950 . S
H1432 C1437 0.950 . S
H1433 C1438 0.949 . S
H1434 C1440 0.950 . S
H1435 C1441 0.950 . S
H1436 C1442 0.949 . S
C1437 H1432 0.950 . S
C1437 C1439 1.327 . S
C1437 C1443 1.429 . S
C1438 C1430 1.574 1_455 S
C1438 H1433 0.949 . S
C1438 C1444 1.368 . S
C1439 C1423 1.349 . S
C1439 H1431 0.950 . S
C1439 C1437 1.327 . S
C1440 C1428 1.349 . S
C1440 H1434 0.950 . S
C1440 C1441 1.327 . S
C1441 H1435 0.950 . S
C1441 C1440 1.327 . S
C1441 C1445 1.429 . S
C1442 C1425 1.574 1_655 S
C1442 H1436 0.949 . S
C1442 C1446 1.368 . S
C1443 C1424 1.429 . S
C1443 C1437 1.429 . S
C1443 C1444 1.523 . S
C1444 C1425 1.368 . S
C1444 C1438 1.368 . S
C1444 C1443 1.523 . S
C1445 C1429 1.429 . S
C1445 C1441 1.429 . S
C1445 C1446 1.523 . S
C1446 C1430 1.368 . S
C1446 C1442 1.368 . S
C1446 C1445 1.523 . S
H1447 C1422 0.950 . S
H1448 C1424 0.950 . S
H1449 C1425 0.949 . S
H1450 C1427 0.950 . S
H1451 C1429 0.950 . S
C1452 C1453 1.349 . S
C1452 C1454 1.327 . S
C1452 H1477 0.950 . S
C1453 C1452 1.349 . S
C1453 C1469 1.349 . S
C1454 C1452 1.327 . S
C1454 C1473 1.429 . S
C1454 H1478 0.950 . S
C1455 C1472 1.574 . S
C1455 C1474 1.368 . S
C1455 H1479 0.949 . S
H1456 C1460 0.949 . S
C1457 C1458 1.349 . S
C1457 C1459 1.327 . S
C1457 H1480 0.950 . S
C1458 C1457 1.349 . S
C1458 C1470 1.349 . S
C1459 C1457 1.327 . S
C1459 C1475 1.429 . S
C1459 H1481 0.950 . S
C1460 H1456 0.949 . S
C1460 C1468 1.574 . S
C1460 C1476 1.368 . S
H1461 C1469 0.950 . S
H1462 C1467 0.950 . S
H1463 C1468 0.949 . S
H1464 C1470 0.950 . S
H1465 C1471 0.950 . S
H1466 C1472 0.949 . S
C1467 H1462 0.950 . S
C1467 C1469 1.327 . S
C1467 C1473 1.429 . S
C1468 C1460 1.574 . S
C1468 H1463 0.949 . S
C1468 C1474 1.368 . S
C1469 C1453 1.349 . S
C1469 H1461 0.950 . S
C1469 C1467 1.327 . S
C1470 C1458 1.349 . S
C1470 H1464 0.950 . S
C1470 C1471 1.327 . S
C1471 H1465 0.950 . S
C1471 C1470 1.327 . S
C1471 C1475 1.429 . S
C1472 C1455 1.574 . S
C1472 H1466 0.949 . S
C1472 C1476 1.368 . S
C1473 C1454 1.429 . S
C1473 C1467 1.429 . S
C1473 C1474 1.523 . S
C1474 C1455 1.368 . S
C1474 C1468 1.368 . S
C1474 C1473 1.523 . S
C1475 C1459 1.429 . S
C1475 C1471 1.429 . S
C1475 C1476 1.523 . S
C1476 C1460 1.368 . S
C1476 C1472 1.368 . S
C1476 C1475 1.523 . S
H1477 C1452 0.950 . S
H1478 C1454 0.950 . S
H1479 C1455 0.949 . S
H1480 C1457 0.950 . S
H1481 C1459 0.950 . S
C1482 C1483 1.349 . S
C1482 C1484 1.327 . S
C1482 H1507 0.950 . S
C1483 C1482 1.349 . S
C1483 C1499 1.349 . S
C1484 C1482 1.327 . S
C1484 C1503 1.429 . S
C1484 H1508 0.950 . S
C1485 C1502 1.574 1_565 S
C1485 C1504 1.368 . S
C1485 H1509 0.949 . S
H1486 C1490 0.949 . S
C1487 C1488 1.349 . S
C1487 C1489 1.327 . S
C1487 H1510 0.950 . S
C1488 C1487 1.349 . S
C1488 C1500 1.349 . S
C1489 C1487 1.327 . S
C1489 C1505 1.429 . S
C1489 H1511 0.950 . S
C1490 H1486 0.949 . S
C1490 C1498 1.574 1_545 S
C1490 C1506 1.368 . S
H1491 C1499 0.950 . S
H1492 C1497 0.950 . S
H1493 C1498 0.949 . S
H1494 C1500 0.950 . S
H1495 C1501 0.950 . S
H1496 C1502 0.949 . S
C1497 H1492 0.950 . S
C1497 C1499 1.327 . S
C1497 C1503 1.429 . S
C1498 C1490 1.574 1_565 S
C1498 H1493 0.949 . S
C1498 C1504 1.368 . S
C1499 C1483 1.349 . S
C1499 H1491 0.950 . S
C1499 C1497 1.327 . S
C1500 C1488 1.349 . S
C1500 H1494 0.950 . S
C1500 C1501 1.327 . S
C1501 H1495 0.950 . S
C1501 C1500 1.327 . S
C1501 C1505 1.429 . S
C1502 C1485 1.574 1_545 S
C1502 H1496 0.949 . S
C1502 C1506 1.368 . S
C1503 C1484 1.429 . S
C1503 C1497 1.429 . S
C1503 C1504 1.523 . S
C1504 C1485 1.368 . S
C1504 C1498 1.368 . S
C1504 C1503 1.523 . S
C1505 C1489 1.429 . S
C1505 C1501 1.429 . S
C1505 C1506 1.523 . S
C1506 C1490 1.368 . S
C1506 C1502 1.368 . S
C1506 C1505 1.523 . S
H1507 C1482 0.950 . S
H1508 C1484 0.950 . S
H1509 C1485 0.949 . S
H1510 C1487 0.950 . S
H1511 C1489 0.950 . S
C1512 C1513 1.349 . S
C1512 C1514 1.327 . S
C1512 H1537 0.950 . S
C1513 C1512 1.349 . S
C1513 C1529 1.349 . S
C1514 C1512 1.327 . S
C1514 C1533 1.429 . S
C1514 H1538 0.950 . S
C1515 C1532 1.574 . S
C1515 C1534 1.368 . S
C1515 H1539 0.949 . S
H1516 C1520 0.949 . S
C1517 C1518 1.349 . S
C1517 C1519 1.327 . S
C1517 H1540 0.950 . S
C1518 C1517 1.349 . S
C1518 C1530 1.349 . S
C1519 C1517 1.327 . S
C1519 C1535 1.429 . S
C1519 H1541 0.950 . S
C1520 H1516 0.949 . S
C1520 C1528 1.574 . S
C1520 C1536 1.368 . S
H1521 C1529 0.950 . S
H1522 C1527 0.950 . S
H1523 C1528 0.949 . S
H1524 C1530 0.950 . S
H1525 C1531 0.950 . S
H1526 C1532 0.949 . S
C1527 H1522 0.950 . S
C1527 C1529 1.327 . S
C1527 C1533 1.429 . S
C1528 C1520 1.574 . S
C1528 H1523 0.949 . S
C1528 C1534 1.368 . S
C1529 C1513 1.349 . S
C1529 H1521 0.950 . S
C1529 C1527 1.327 . S
C1530 C1518 1.349 . S
C1530 H1524 0.950 . S
C1530 C1531 1.327 . S
C1531 H1525 0.950 . S
C1531 C1530 1.327 . S
C1531 C1535 1.429 . S
C1532 C1515 1.574 . S
C1532 H1526 0.949 . S
C1532 C1536 1.368 . S
C1533 C1514 1.429 . S
C1533 C1527 1.429 . S
C1533 C1534 1.523 . S
C1534 C1515 1.368 . S
C1534 C1528 1.368 . S
C1534 C1533 1.523 . S
C1535 C1519 1.429 . S
C1535 C1531 1.429 . S
C1535 C1536 1.523 . S
C1536 C1520 1.368 . S
C1536 C1532 1.368 . S
C1536 C1535 1.523 . S
H1537 C1512 0.950 . S
H1538 C1514 0.950 . S
H1539 C1515 0.949 . S
H1540 C1517 0.950 . S
H1541 C1519 0.950 . S
C1542 C1543 1.349 . S
C1542 C1544 1.327 . S
C1542 H1567 0.950 . S
C1543 C1542 1.349 . S
C1543 C1559 1.349 . S
C1544 C1542 1.327 . S
C1544 C1563 1.429 . S
C1544 H1568 0.950 . S
C1545 C1562 1.574 . S
C1545 C1564 1.368 . S
C1545 H1569 0.949 . S
H1546 C1550 0.949 . S
C1547 C1548 1.349 . S
C1547 C1549 1.327 . S
C1547 H1570 0.950 . S
C1548 C1547 1.349 . S
C1548 C1560 1.349 . S
C1549 C1547 1.327 . S
C1549 C1565 1.429 . S
C1549 H1571 0.950 . S
C1550 H1546 0.949 . S
C1550 C1558 1.574 . S
C1550 C1566 1.368 . S
H1551 C1559 0.950 . S
H1552 C1557 0.950 . S
H1553 C1558 0.949 . S
H1554 C1560 0.950 . S
H1555 C1561 0.950 . S
H1556 C1562 0.949 . S
C1557 H1552 0.950 . S
C1557 C1559 1.327 . S
C1557 C1563 1.429 . S
C1558 C1550 1.574 . S
C1558 H1553 0.949 . S
C1558 C1564 1.368 . S
C1559 C1543 1.349 . S
C1559 H1551 0.950 . S
C1559 C1557 1.327 . S
C1560 C1548 1.349 . S
C1560 H1554 0.950 . S
C1560 C1561 1.327 . S
C1561 H1555 0.950 . S
C1561 C1560 1.327 . S
C1561 C1565 1.429 . S
C1562 C1545 1.574 . S
C1562 H1556 0.949 . S
C1562 C1566 1.368 . S
C1563 C1544 1.429 . S
C1563 C1557 1.429 . S
C1563 C1564 1.523 . S
C1564 C1545 1.368 . S
C1564 C1558 1.368 . S
C1564 C1563 1.523 . S
C1565 C1549 1.429 . S
C1565 C1561 1.429 . S
C1565 C1566 1.523 . S
C1566 C1550 1.368 . S
C1566 C1562 1.368 . S
C1566 C1565 1.523 . S
H1567 C1542 0.950 . S
H1568 C1544 0.950 . S
H1569 C1545 0.949 . S
H1570 C1547 0.950 . S
H1571 C1549 0.950 . S
C1572 C1573 1.349 . S
C1572 C1574 1.327 . S
C1572 H1597 0.950 . S
C1573 C1572 1.349 . S
C1573 C1589 1.349 . S
C1574 C1572 1.327 . S
C1574 C1593 1.429 . S
C1574 H1598 0.950 . S
C1575 C1592 1.574 . S
C1575 C1594 1.368 . S
C1575 H1599 0.949 . S
H1576 C1580 0.949 . S
C1577 C1578 1.349 . S
C1577 C1579 1.327 . S
C1577 H1600 0.950 . S
C1578 C1577 1.349 . S
C1578 C1590 1.349 . S
C1579 C1577 1.327 . S
C1579 C1595 1.429 . S
C1579 H1601 0.950 . S
C1580 H1576 0.949 . S
C1580 C1588 1.574 . S
C1580 C1596 1.368 . S
H1581 C1589 0.950 . S
H1582 C1587 0.950 . S
H1583 C1588 0.949 . S
H1584 C1590 0.950 . S
H1585 C1591 0.950 . S
H1586 C1592 0.949 . S
C1587 H1582 0.950 . S
C1587 C1589 1.327 . S
C1587 C1593 1.429 . S
C1588 C1580 1.574 . S
C1588 H1583 0.949 . S
C1588 C1594 1.368 . S
C1589 C1573 1.349 . S
C1589 H1581 0.950 . S
C1589 C1587 1.327 . S
C1590 C1578 1.349 . S
C1590 H1584 0.950 . S
C1590 C1591 1.327 . S
C1591 H1585 0.950 . S
C1591 C1590 1.327 . S
C1591 C1595 1.429 . S
C1592 C1575 1.574 . S
C1592 H1586 0.949 . S
C1592 C1596 1.368 . S
C1593 C1574 1.429 . S
C1593 C1587 1.429 . S
C1593 C1594 1.523 . S
C1594 C1575 1.368 . S
C1594 C1588 1.368 . S
C1594 C1593 1.523 . S
C1595 C1579 1.429 . S
C1595 C1591 1.429 . S
C1595 C1596 1.523 . S
C1596 C1580 1.368 . S
C1596 C1592 1.368 . S
C1596 C1595 1.523 . S
H1597 C1572 0.950 . S
H1598 C1574 0.950 . S
H1599 C1575 0.949 . S
H1600 C1577 0.950 . S
H1601 C1579 0.950 . S
C1602 C1603 1.349 . S
C1602 C1604 1.327 . S
C1602 H1627 0.950 . S
C1603 C1602 1.349 . S
C1603 C1619 1.349 . S
C1604 C1602 1.327 . S
C1604 C1623 1.429 . S
C1604 H1628 0.950 . S
C1605 C1622 1.574 . S
C1605 C1624 1.368 . S
C1605 H1629 0.949 . S
H1606 C1610 0.949 . S
C1607 C1608 1.349 1_545 S
C1607 C1609 1.337 . S
C1607 H1630 0.950 . S
C1608 C1607 1.349 1_565 S
C1608 C1620 1.349 . S
C1609 C1607 1.337 . S
C1609 C1625 1.412 1_545 S
C1609 H1631 0.958 . S
C1610 H1606 0.949 . S
C1610 C1618 1.574 . S
C1610 C1626 1.368 . S
H1611 C1619 0.950 . S
H1612 C1617 0.950 . S
H1613 C1618 0.949 . S
H1614 C1620 0.950 . S
H1615 C1621 0.950 . S
H1616 C1622 0.949 1_545 S
C1617 H1612 0.950 . S
C1617 C1619 1.327 . S
C1617 C1623 1.429 . S
C1618 C1610 1.574 . S
C1618 H1613 0.949 . S
C1618 C1624 1.368 . S
C1619 C1603 1.349 . S
C1619 H1611 0.950 . S
C1619 C1617 1.327 . S
C1620 C1608 1.349 . S
C1620 H1614 0.950 . S
C1620 C1621 1.327 . S
C1621 H1615 0.950 . S
C1621 C1620 1.327 . S
C1621 C1625 1.429 . S
C1622 C1605 1.574 . S
C1622 H1616 0.949 1_565 S
C1622 C1626 1.368 . S
C1623 C1604 1.429 . S
C1623 C1617 1.429 . S
C1623 C1624 1.523 . S
C1624 C1605 1.368 . S
C1624 C1618 1.368 . S
C1624 C1623 1.523 . S
C1625 C1609 1.412 1_565 S
C1625 C1621 1.429 . S
C1625 C1626 1.523 . S
C1626 C1610 1.368 . S
C1626 C1622 1.368 . S
C1626 C1625 1.523 . S
H1627 C1602 0.950 . S
H1628 C1604 0.950 . S
H1629 C1605 0.949 . S
H1630 C1607 0.950 . S
H1631 C1609 0.958 . S
C1632 C1633 1.349 . S
C1632 C1634 1.327 . S
C1632 H1657 0.950 . S
C1633 C1632 1.349 . S
C1633 C1649 1.349 . S
C1634 C1632 1.327 . S
C1634 C1653 1.429 . S
C1634 H1658 0.950 . S
C1635 C1652 1.575 1_455 S
C1635 C1654 1.368 . S
C1635 H1659 0.949 1_455 S
H1636 C1640 0.949 . S
C1637 C1638 1.349 1_655 S
C1637 C1639 1.327 . S
C1637 H1660 0.950 . S
C1638 C1637 1.349 1_455 S
C1638 C1650 1.349 . S
C1639 C1637 1.327 . S
C1639 C1655 1.429 1_655 S
C1639 H1661 0.950 . S
C1640 H1636 0.949 . S
C1640 C1648 1.574 . S
C1640 C1656 1.368 . S
H1641 C1649 0.950 1_655 S
H1642 C1647 0.950 1_655 S
H1643 C1648 0.949 . S
H1644 C1650 0.950 . S
H1645 C1651 0.950 . S
H1646 C1652 0.966 . S
C1647 H1642 0.950 1_455 S
C1647 C1649 1.327 . S
C1647 C1653 1.429 . S
C1648 C1640 1.574 . S
C1648 H1643 0.949 . S
C1648 C1654 1.368 . S
C1649 C1633 1.349 . S
C1649 H1641 0.950 1_455 S
C1649 C1647 1.327 . S
C1650 C1638 1.349 . S
C1650 H1644 0.950 . S
C1650 C1651 1.327 . S
C1651 H1645 0.950 . S
C1651 C1650 1.327 . S
C1651 C1655 1.429 . S
C1652 C1635 1.575 1_655 S
C1652 H1646 0.966 . S
C1652 C1656 1.350 1_655 S
C1653 C1634 1.429 . S
C1653 C1647 1.429 . S
C1653 C1654 1.523 . S
C1654 C1635 1.368 . S
C1654 C1648 1.368 . S
C1654 C1653 1.523 . S
C1655 C1639 1.429 1_455 S
C1655 C1651 1.429 . S
C1655 C1656 1.523 . S
C1656 C1640 1.368 . S
C1656 C1652 1.350 1_455 S
C1656 C1655 1.523 . S
H1657 C1632 0.950 . S
H1658 C1634 0.950 . S
H1659 C1635 0.949 1_655 S
H1660 C1637 0.950 . S
H1661 C1639 0.950 . S
C1662 C1663 1.349 . S
C1662 C1664 1.327 . S
C1662 H1687 0.950 . S
C1663 C1662 1.349 . S
C1663 C1679 1.349 . S
C1664 C1662 1.327 . S
C1664 C1683 1.429 . S
C1664 H1688 0.950 . S
C1665 C1682 1.574 . S
C1665 C1684 1.368 . S
C1665 H1689 0.949 . S
H1666 C1670 0.949 . S
C1667 C1668 1.349 . S
C1667 C1669 1.327 . S
C1667 H1690 0.950 . S
C1668 C1667 1.349 . S
C1668 C1680 1.349 . S
C1669 C1667 1.327 . S
C1669 C1685 1.429 . S
C1669 H1691 0.950 . S
C1670 H1666 0.949 . S
C1670 C1678 1.574 . S
C1670 C1686 1.368 . S
H1671 C1679 0.950 . S
H1672 C1677 0.950 . S
H1673 C1678 0.949 . S
H1674 C1680 0.950 . S
H1675 C1681 0.950 . S
H1676 C1682 0.949 . S
C1677 H1672 0.950 . S
C1677 C1679 1.327 . S
C1677 C1683 1.429 . S
C1678 C1670 1.574 . S
C1678 H1673 0.949 . S
C1678 C1684 1.368 . S
C1679 C1663 1.349 . S
C1679 H1671 0.950 . S
C1679 C1677 1.327 . S
C1680 C1668 1.349 . S
C1680 H1674 0.950 . S
C1680 C1681 1.327 . S
C1681 H1675 0.950 . S
C1681 C1680 1.327 . S
C1681 C1685 1.429 . S
C1682 C1665 1.574 . S
C1682 H1676 0.949 . S
C1682 C1686 1.368 . S
C1683 C1664 1.429 . S
C1683 C1677 1.429 . S
C1683 C1684 1.523 . S
C1684 C1665 1.368 . S
C1684 C1678 1.368 . S
C1684 C1683 1.523 . S
C1685 C1669 1.429 . S
C1685 C1681 1.429 . S
C1685 C1686 1.523 . S
C1686 C1670 1.368 . S
C1686 C1682 1.368 . S
C1686 C1685 1.523 . S
H1687 C1662 0.950 . S
H1688 C1664 0.950 . S
H1689 C1665 0.949 . S
H1690 C1667 0.950 . S
H1691 C1669 0.950 . S
C1692 C1693 1.349 . S
C1692 C1694 1.327 . S
C1692 H1717 0.950 . S
C1693 C1692 1.349 . S
C1693 C1709 1.349 . S
C1694 C1692 1.327 . S
C1694 C1713 1.429 . S
C1694 H1718 0.950 . S
C1695 C1712 1.574 . S
C1695 C1714 1.368 . S
C1695 H1719 0.949 . S
H1696 C1700 0.949 . S
C1697 C1698 1.349 . S
C1697 C1699 1.327 . S
C1697 H1720 0.950 . S
C1698 C1697 1.349 . S
C1698 C1710 1.349 . S
C1699 C1697 1.327 . S
C1699 C1715 1.429 . S
C1699 H1721 0.950 . S
C1700 H1696 0.949 . S
C1700 C1708 1.574 . S
C1700 C1716 1.368 . S
H1701 C1709 0.950 . S
H1702 C1707 0.950 . S
H1703 C1708 0.949 . S
H1704 C1710 0.950 . S
H1705 C1711 0.950 . S
H1706 C1712 0.949 . S
C1707 H1702 0.950 . S
C1707 C1709 1.327 . S
C1707 C1713 1.429 . S
C1708 C1700 1.574 . S
C1708 H1703 0.949 . S
C1708 C1714 1.368 . S
C1709 C1693 1.349 . S
C1709 H1701 0.950 . S
C1709 C1707 1.327 . S
C1710 C1698 1.349 . S
C1710 H1704 0.950 . S
C1710 C1711 1.327 . S
C1711 H1705 0.950 . S
C1711 C1710 1.327 . S
C1711 C1715 1.429 . S
C1712 C1695 1.574 . S
C1712 H1706 0.949 . S
C1712 C1716 1.368 . S
C1713 C1694 1.429 . S
C1713 C1707 1.429 . S
C1713 C1714 1.523 . S
C1714 C1695 1.368 . S
C1714 C1708 1.368 . S
C1714 C1713 1.523 . S
C1715 C1699 1.429 . S
C1715 C1711 1.429 . S
C1715 C1716 1.523 . S
C1716 C1700 1.368 . S
C1716 C1712 1.368 . S
C1716 C1715 1.523 . S
H1717 C1692 0.950 . S
H1718 C1694 0.950 . S
H1719 C1695 0.949 . S
H1720 C1697 0.950 . S
H1721 C1699 0.950 . S
C1722 C1723 1.349 . S
C1722 C1724 1.327 . S
C1722 H1747 0.950 . S
C1723 C1722 1.349 . S
C1723 C1739 1.349 . S
C1724 C1722 1.327 . S
C1724 C1743 1.429 . S
C1724 H1748 0.950 . S
C1725 C1742 1.574 . S
C1725 C1744 1.368 . S
C1725 H1749 0.949 . S
H1726 C1730 0.949 . S
C1727 C1728 1.349 . S
C1727 C1729 1.327 . S
C1727 H1750 0.950 . S
C1728 C1727 1.349 . S
C1728 C1740 1.349 . S
C1729 C1727 1.327 . S
C1729 C1745 1.429 . S
C1729 H1751 0.950 . S
C1730 H1726 0.949 . S
C1730 C1738 1.574 . S
C1730 C1746 1.368 . S
H1731 C1739 0.950 . S
H1732 C1737 0.950 . S
H1733 C1738 0.949 . S
H1734 C1740 0.950 . S
H1735 C1741 0.950 . S
H1736 C1742 0.949 . S
C1737 H1732 0.950 . S
C1737 C1739 1.327 . S
C1737 C1743 1.429 . S
C1738 C1730 1.574 . S
C1738 H1733 0.949 . S
C1738 C1744 1.368 . S
C1739 C1723 1.349 . S
C1739 H1731 0.950 . S
C1739 C1737 1.327 . S
C1740 C1728 1.349 . S
C1740 H1734 0.950 . S
C1740 C1741 1.327 . S
C1741 H1735 0.950 . S
C1741 C1740 1.327 . S
C1741 C1745 1.429 . S
C1742 C1725 1.574 . S
C1742 H1736 0.949 . S
C1742 C1746 1.368 . S
C1743 C1724 1.429 . S
C1743 C1737 1.429 . S
C1743 C1744 1.523 . S
C1744 C1725 1.368 . S
C1744 C1738 1.368 . S
C1744 C1743 1.523 . S
C1745 C1729 1.429 . S
C1745 C1741 1.429 . S
C1745 C1746 1.523 . S
C1746 C1730 1.368 . S
C1746 C1742 1.368 . S
C1746 C1745 1.523 . S
H1747 C1722 0.950 . S
H1748 C1724 0.950 . S
H1749 C1725 0.949 . S
H1750 C1727 0.950 . S
H1751 C1729 0.950 . S
C1752 C1753 1.349 . S
C1752 C1754 1.327 . S
C1752 H1777 0.950 . S
C1753 C1752 1.349 . S
C1753 C1769 1.349 . S
C1754 C1752 1.327 . S
C1754 C1773 1.429 . S
C1754 H1778 0.950 . S
C1755 C1772 1.574 . S
C1755 C1774 1.368 . S
C1755 H1779 0.949 . S
H1756 C1760 0.949 . S
C1757 C1758 1.349 1_565 S
C1757 C1759 1.327 1_565 S
C1757 H1780 0.950 . S
C1758 C1757 1.349 1_545 S
C1758 C1770 1.349 . S
C1759 C1757 1.327 1_545 S
C1759 C1775 1.429 . S
C1759 H1781 0.950 1_545 S
C1760 H1756 0.949 . S
C1760 C1768 1.574 . S
C1760 C1776 1.368 . S
H1761 C1769 0.950 . S
H1762 C1767 0.950 . S
H1763 C1768 0.949 . S
H1764 C1770 0.950 . S
H1765 C1771 0.950 . S
H1766 C1772 0.978 . S
C1767 H1762 0.950 . S
C1767 C1769 1.327 . S
C1767 C1773 1.429 . S
C1768 C1760 1.574 . S
C1768 H1763 0.949 . S
C1768 C1774 1.368 . S
C1769 C1753 1.349 . S
C1769 H1761 0.950 . S
C1769 C1767 1.327 . S
C1770 C1758 1.349 . S
C1770 H1764 0.950 . S
C1770 C1771 1.327 . S
C1771 H1765 0.950 . S
C1771 C1770 1.327 . S
C1771 C1775 1.429 . S
C1772 C1755 1.574 . S
C1772 H1766 0.978 . S
C1772 C1776 1.368 . S
C1773 C1754 1.429 . S
C1773 C1767 1.429 . S
C1773 C1774 1.523 . S
C1774 C1755 1.368 . S
C1774 C1768 1.368 . S
C1774 C1773 1.523 . S
C1775 C1759 1.429 . S
C1775 C1771 1.429 . S
C1775 C1776 1.523 . S
C1776 C1760 1.368 . S
C1776 C1772 1.368 . S
C1776 C1775 1.523 . S
H1777 C1752 0.950 . S
H1778 C1754 0.950 . S
H1779 C1755 0.949 . S
H1780 C1757 0.950 . S
H1781 C1759 0.950 1_565 S
C1782 C1783 1.349 . S
C1782 C1784 1.327 . S
C1782 H1807 0.950 . S
C1783 C1782 1.349 . S
C1783 C1799 1.349 . S
C1784 C1782 1.327 . S
C1784 C1803 1.429 . S
C1784 H1808 0.950 . S
C1785 C1802 1.574 . S
C1785 C1804 1.368 . S
C1785 H1809 0.949 . S
H1786 C1790 0.949 . S
C1787 C1788 1.349 . S
C1787 C1789 1.327 . S
C1787 H1810 0.950 . S
C1788 C1787 1.349 . S
C1788 C1800 1.349 . S
C1789 C1787 1.327 . S
C1789 C1805 1.429 . S
C1789 H1811 0.950 . S
C1790 H1786 0.949 . S
C1790 C1798 1.574 . S
C1790 C1806 1.368 . S
H1791 C1799 0.950 . S
H1792 C1797 0.950 . S
H1793 C1798 0.949 . S
H1794 C1800 0.950 . S
H1795 C1801 0.950 . S
H1796 C1802 0.949 . S
C1797 H1792 0.950 . S
C1797 C1799 1.327 . S
C1797 C1803 1.429 . S
C1798 C1790 1.574 . S
C1798 H1793 0.949 . S
C1798 C1804 1.368 . S
C1799 C1783 1.349 . S
C1799 H1791 0.950 . S
C1799 C1797 1.327 . S
C1800 C1788 1.349 . S
C1800 H1794 0.950 . S
C1800 C1801 1.327 . S
C1801 H1795 0.950 . S
C1801 C1800 1.327 . S
C1801 C1805 1.429 . S
C1802 C1785 1.574 . S
C1802 H1796 0.949 . S
C1802 C1806 1.368 . S
C1803 C1784 1.429 . S
C1803 C1797 1.429 . S
C1803 C1804 1.523 . S
C1804 C1785 1.368 . S
C1804 C1798 1.368 . S
C1804 C1803 1.523 . S
C1805 C1789 1.429 . S
C1805 C1801 1.429 . S
C1805 C1806 1.523 . S
C1806 C1790 1.368 . S
C1806 C1802 1.368 . S
C1806 C1805 1.523 . S
H1807 C1782 0.950 . S
H1808 C1784 0.950 . S
H1809 C1785 0.949 . S
H1810 C1787 0.950 . S
H1811 C1789 0.950 . S
C1812 C1813 1.349 . S
C1812 C1814 1.327 . S
C1812 H1837 0.950 . S
C1813 C1812 1.349 . S
C1813 C1829 1.349 . S
C1814 C1812 1.327 . S
C1814 C1833 1.429 . S
C1814 H1838 0.950 . S
C1815 C1832 1.574 . S
C1815 C1834 1.368 . S
C1815 H1839 0.949 . S
H1816 C1820 0.949 . S
C1817 C1818 1.349 . S
C1817 C1819 1.327 . S
C1817 H1840 0.950 . S
C1818 C1817 1.349 . S
C1818 C1830 1.349 . S
C1819 C1817 1.327 . S
C1819 C1835 1.429 . S
C1819 H1841 0.950 . S
C1820 H1816 0.949 . S
C1820 C1828 1.574 . S
C1820 C1836 1.368 . S
H1821 C1829 0.950 . S
H1822 C1827 0.950 . S
H1823 C1828 0.949 . S
H1824 C1830 0.950 . S
H1825 C1831 0.950 . S
H1826 C1832 0.949 . S
C1827 H1822 0.950 . S
C1827 C1829 1.327 . S
C1827 C1833 1.429 . S
C1828 C1820 1.574 . S
C1828 H1823 0.949 . S
C1828 C1834 1.368 . S
C1829 C1813 1.349 . S
C1829 H1821 0.950 . S
C1829 C1827 1.327 . S
C1830 C1818 1.349 . S
C1830 H1824 0.950 . S
C1830 C1831 1.327 . S
C1831 H1825 0.950 . S
C1831 C1830 1.327 . S
C1831 C1835 1.429 . S
C1832 C1815 1.574 . S
C1832 H1826 0.949 . S
C1832 C1836 1.368 . S
C1833 C1814 1.429 . S
C1833 C1827 1.429 . S
C1833 C1834 1.523 . S
C1834 C1815 1.368 . S
C1834 C1828 1.368 . S
C1834 C1833 1.523 . S
C1835 C1819 1.429 . S
C1835 C1831 1.429 . S
C1835 C1836 1.523 . S
C1836 C1820 1.368 . S
C1836 C1832 1.368 . S
C1836 C1835 1.523 . S
H1837 C1812 0.950 . S
H1838 C1814 0.950 . S
H1839 C1815 0.949 . S
H1840 C1817 0.950 . S
H1841 C1819 0.950 . S
C1842 C1843 1.349 . S
C1842 C1844 1.327 . S
C1842 H1867 0.950 . S
C1843 C1842 1.349 . S
C1843 C1859 1.349 . S
C1844 C1842 1.327 . S
C1844 C1863 1.429 . S
C1844 H1868 0.950 . S
C1845 C1862 1.574 . S
C1845 C1864 1.368 . S
C1845 H1869 0.949 . S
H1846 C1850 0.949 . S
C1847 C1848 1.349 . S
C1847 C1849 1.327 . S
C1847 H1870 0.950 . S
C1848 C1847 1.349 . S
C1848 C1860 1.349 . S
C1849 C1847 1.327 . S
C1849 C1865 1.429 . S
C1849 H1871 0.950 . S
C1850 H1846 0.949 . S
C1850 C1858 1.574 . S
C1850 C1866 1.368 . S
H1851 C1859 0.950 . S
H1852 C1857 0.950 . S
H1853 C1858 0.949 . S
H1854 C1860 0.950 . S
H1855 C1861 0.950 . S
H1856 C1862 0.949 . S
C1857 H1852 0.950 . S
C1857 C1859 1.327 . S
C1857 C1863 1.429 . S
C1858 C1850 1.574 . S
C1858 H1853 0.949 . S
C1858 C1864 1.368 . S
C1859 C1843 1.349 . S
C1859 H1851 0.950 . S
C1859 C1857 1.327 . S
C1860 C1848 1.349 . S
C1860 H1854 0.950 . S
C1860 C1861 1.327 . S
C1861 H1855 0.950 . S
C1861 C1860 1.327 . S
C1861 C1865 1.429 . S
C1862 C1845 1.574 . S
C1862 H1856 0.949 . S
C1862 C1866 1.368 . S
C1863 C1844 1.429 . S
C1863 C1857 1.429 . S
C1863 C1864 1.523 . S
C1864 C1845 1.368 . S
C1864 C1858 1.368 . S
C1864 C1863 1.523 . S
C1865 C1849 1.429 . S
C1865 C1861 1.429 . S
C1865 C1866 1.523 . S
C1866 C1850 1.368 . S
C1866 C1862 1.368 . S
C1866 C1865 1.523 . S
H1867 C1842 0.950 . S
H1868 C1844 0.950 . S
H1869 C1845 0.949 . S
H1870 C1847 0.950 . S
H1871 C1849 0.950 . S
C1872 C1873 1.349 . S
C1872 C1874 1.327 . S
C1872 H1897 0.950 . S
C1873 C1872 1.349 . S
C1873 C1889 1.349 . S
C1874 C1872 1.327 . S
C1874 C1893 1.429 . S
C1874 H1898 0.950 . S
C1875 C1892 1.574 . S
C1875 C1894 1.368 . S
C1875 H1899 0.949 . S
H1876 C1880 0.949 . S
C1877 C1878 1.349 . S
C1877 C1879 1.327 . S
C1877 H1900 0.950 . S
C1878 C1877 1.349 . S
C1878 C1890 1.349 . S
C1879 C1877 1.327 . S
C1879 C1895 1.429 . S
C1879 H1901 0.950 . S
C1880 H1876 0.949 . S
C1880 C1888 1.574 . S
C1880 C1896 1.368 . S
H1881 C1889 0.950 . S
H1882 C1887 0.950 . S
H1883 C1888 0.949 . S
H1884 C1890 0.950 . S
H1885 C1891 0.950 . S
H1886 C1892 0.949 . S
C1887 H1882 0.950 . S
C1887 C1889 1.327 . S
C1887 C1893 1.429 . S
C1888 C1880 1.574 . S
C1888 H1883 0.949 . S
C1888 C1894 1.368 . S
C1889 C1873 1.349 . S
C1889 H1881 0.950 . S
C1889 C1887 1.327 . S
C1890 C1878 1.349 . S
C1890 H1884 0.950 . S
C1890 C1891 1.327 . S
C1891 H1885 0.950 . S
C1891 C1890 1.327 . S
C1891 C1895 1.429 . S
C1892 C1875 1.574 . S
C1892 H1886 0.949 . S
C1892 C1896 1.368 . S
C1893 C1874 1.429 . S
C1893 C1887 1.429 . S
C1893 C1894 1.523 . S
C1894 C1875 1.368 . S
C1894 C1888 1.368 . S
C1894 C1893 1.523 . S
C1895 C1879 1.429 . S
C1895 C1891 1.429 . S
C1895 C1896 1.523 . S
C1896 C1880 1.368 . S
C1896 C1892 1.368 . S
C1896 C1895 1.523 . S
H1897 C1872 0.950 . S
H1898 C1874 0.950 . S
H1899 C1875 0.949 . S
H1900 C1877 0.950 . S
H1901 C1879 0.950 . S
C1902 C1903 1.349 . S
C1902 C1904 1.327 . S
C1902 H1927 0.950 . S
C1903 C1902 1.349 . S
C1903 C1919 1.349 . S
C1904 C1902 1.327 . S
C1904 C1923 1.429 . S
C1904 H1928 0.950 . S
C1905 C1922 1.574 . S
C1905 C1924 1.368 . S
C1905 H1929 0.949 . S
H1906 C1910 0.949 . S
C1907 C1908 1.349 . S
C1907 C1909 1.327 . S
C1907 H1930 0.950 . S
C1908 C1907 1.349 . S
C1908 C1920 1.349 . S
C1909 C1907 1.327 . S
C1909 C1925 1.429 . S
C1909 H1931 0.950 . S
C1910 H1906 0.949 . S
C1910 C1918 1.574 . S
C1910 C1926 1.368 . S
H1911 C1919 0.950 . S
H1912 C1917 0.950 . S
H1913 C1918 0.949 . S
H1914 C1920 0.950 . S
H1915 C1921 0.950 . S
H1916 C1922 0.949 . S
C1917 H1912 0.950 . S
C1917 C1919 1.327 . S
C1917 C1923 1.429 . S
C1918 C1910 1.574 . S
C1918 H1913 0.949 . S
C1918 C1924 1.368 . S
C1919 C1903 1.349 . S
C1919 H1911 0.950 . S
C1919 C1917 1.327 . S
C1920 C1908 1.349 . S
C1920 H1914 0.950 . S
C1920 C1921 1.327 . S
C1921 H1915 0.950 . S
C1921 C1920 1.327 . S
C1921 C1925 1.429 . S
C1922 C1905 1.574 . S
C1922 H1916 0.949 . S
C1922 C1926 1.368 . S
C1923 C1904 1.429 . S
C1923 C1917 1.429 . S
C1923 C1924 1.523 . S
C1924 C1905 1.368 . S
C1924 C1918 1.368 . S
C1924 C1923 1.523 . S
C1925 C1909 1.429 . S
C1925 C1921 1.429 . S
C1925 C1926 1.523 . S
C1926 C1910 1.368 . S
C1926 C1922 1.368 . S
C1926 C1925 1.523 . S
H1927 C1902 0.950 . S
H1928 C1904 0.950 . S
H1929 C1905 0.949 . S
H1930 C1907 0.950 . S
H1931 C1909 0.950 . S
C1932 C1933 1.349 . S
C1932 C1934 1.327 . S
C1932 H1957 0.950 . S
C1933 C1932 1.349 . S
C1933 C1949 1.349 . S
C1934 C1932 1.327 . S
C1934 C1953 1.429 . S
C1934 H1958 0.950 . S
C1935 C1952 1.574 . S
C1935 C1954 1.368 . S
C1935 H1959 0.949 . S
H1936 C1940 0.949 . S
C1937 C1938 1.349 . S
C1937 C1939 1.327 . S
C1937 H1960 0.950 . S
C1938 C1937 1.349 . S
C1938 C1950 1.349 . S
C1939 C1937 1.327 . S
C1939 C1955 1.429 . S
C1939 H1961 0.950 . S
C1940 H1936 0.949 . S
C1940 C1948 1.574 . S
C1940 C1956 1.368 . S
H1941 C1949 0.950 . S
H1942 C1947 0.950 . S
H1943 C1948 0.949 . S
H1944 C1950 0.950 . S
H1945 C1951 0.950 . S
H1946 C1952 0.949 . S
C1947 H1942 0.950 . S
C1947 C1949 1.327 . S
C1947 C1953 1.429 . S
C1948 C1940 1.574 . S
C1948 H1943 0.949 . S
C1948 C1954 1.368 . S
C1949 C1933 1.349 . S
C1949 H1941 0.950 . S
C1949 C1947 1.327 . S
C1950 C1938 1.349 . S
C1950 H1944 0.950 . S
C1950 C1951 1.327 . S
C1951 H1945 0.950 . S
C1951 C1950 1.327 . S
C1951 C1955 1.429 . S
C1952 C1935 1.574 . S
C1952 H1946 0.949 . S
C1952 C1956 1.368 . S
C1953 C1934 1.429 . S
C1953 C1947 1.429 . S
C1953 C1954 1.523 . S
C1954 C1935 1.368 . S
C1954 C1948 1.368 . S
C1954 C1953 1.523 . S
C1955 C1939 1.429 . S
C1955 C1951 1.429 . S
C1955 C1956 1.523 . S
C1956 C1940 1.368 . S
C1956 C1952 1.368 . S
C1956 C1955 1.523 . S
H1957 C1932 0.950 . S
H1958 C1934 0.950 . S
H1959 C1935 0.949 . S
H1960 C1937 0.950 . S
H1961 C1939 0.950 . S
C1962 C1963 1.349 . S
C1962 C1964 1.327 . S
C1962 H1987 0.950 . S
C1963 C1962 1.349 . S
C1963 C1979 1.349 . S
C1964 C1962 1.327 . S
C1964 C1983 1.429 . S
C1964 H1988 0.950 . S
C1965 C1982 1.574 . S
C1965 C1984 1.368 . S
C1965 H1989 0.949 . S
H1966 C1970 0.949 . S
C1967 C1968 1.349 . S
C1967 C1969 1.327 . S
C1967 H1990 0.950 . S
C1968 C1967 1.349 . S
C1968 C1980 1.349 . S
C1969 C1967 1.327 . S
C1969 C1985 1.429 . S
C1969 H1991 0.950 . S
C1970 H1966 0.949 . S
C1970 C1978 1.574 . S
C1970 C1986 1.368 . S
H1971 C1979 0.950 . S
H1972 C1977 0.950 . S
H1973 C1978 0.949 . S
H1974 C1980 0.950 . S
H1975 C1981 0.950 . S
H1976 C1982 0.949 . S
C1977 H1972 0.950 . S
C1977 C1979 1.327 . S
C1977 C1983 1.429 . S
C1978 C1970 1.574 . S
C1978 H1973 0.949 . S
C1978 C1984 1.368 . S
C1979 C1963 1.349 . S
C1979 H1971 0.950 . S
C1979 C1977 1.327 . S
C1980 C1968 1.349 . S
C1980 H1974 0.950 . S
C1980 C1981 1.327 . S
C1981 H1975 0.950 . S
C1981 C1980 1.327 . S
C1981 C1985 1.429 . S
C1982 C1965 1.574 . S
C1982 H1976 0.949 . S
C1982 C1986 1.368 . S
C1983 C1964 1.429 . S
C1983 C1977 1.429 . S
C1983 C1984 1.523 . S
C1984 C1965 1.368 . S
C1984 C1978 1.368 . S
C1984 C1983 1.523 . S
C1985 C1969 1.429 . S
C1985 C1981 1.429 . S
C1985 C1986 1.523 . S
C1986 C1970 1.368 . S
C1986 C1982 1.368 . S
C1986 C1985 1.523 . S
H1987 C1962 0.950 . S
H1988 C1964 0.950 . S
H1989 C1965 0.949 . S
H1990 C1967 0.950 . S
H1991 C1969 0.950 . S
C1992 C1993 1.349 . S
C1992 C1994 1.327 . S
C1992 H2017 0.950 . S
C1993 C1992 1.349 . S
C1993 C2009 1.349 . S
C1994 C1992 1.327 . S
C1994 C2013 1.429 . S
C1994 H2018 0.950 . S
C1995 C2012 1.574 . S
C1995 C2014 1.368 . S
C1995 H2019 0.949 . S
H1996 C2000 0.949 . S
C1997 C1998 1.349 . S
C1997 C1999 1.327 . S
C1997 H2020 0.950 . S
C1998 C1997 1.349 . S
C1998 C2010 1.349 . S
C1999 C1997 1.327 . S
C1999 C2015 1.429 . S
C1999 H2021 0.950 . S
C2000 H1996 0.949 . S
C2000 C2008 1.574 . S
C2000 C2016 1.368 . S
H2001 C2009 0.950 . S
H2002 C2007 0.950 . S
H2003 C2008 0.949 . S
H2004 C2010 0.950 . S
H2005 C2011 0.950 . S
H2006 C2012 0.949 . S
C2007 H2002 0.950 . S
C2007 C2009 1.327 . S
C2007 C2013 1.429 . S
C2008 C2000 1.574 . S
C2008 H2003 0.949 . S
C2008 C2014 1.368 . S
C2009 C1993 1.349 . S
C2009 H2001 0.950 . S
C2009 C2007 1.327 . S
C2010 C1998 1.349 . S
C2010 H2004 0.950 . S
C2010 C2011 1.327 . S
C2011 H2005 0.950 . S
C2011 C2010 1.327 . S
C2011 C2015 1.429 . S
C2012 C1995 1.574 . S
C2012 H2006 0.949 . S
C2012 C2016 1.368 . S
C2013 C1994 1.429 . S
C2013 C2007 1.429 . S
C2013 C2014 1.523 . S
C2014 C1995 1.368 . S
C2014 C2008 1.368 . S
C2014 C2013 1.523 . S
C2015 C1999 1.429 . S
C2015 C2011 1.429 . S
C2015 C2016 1.523 . S
C2016 C2000 1.368 . S
C2016 C2012 1.368 . S
C2016 C2015 1.523 . S
H2017 C1992 0.950 . S
H2018 C1994 0.950 . S
H2019 C1995 0.949 . S
H2020 C1997 0.950 . S
H2021 C1999 0.950 . S
C2022 C2023 1.349 . S
C2022 C2024 1.327 . S
C2022 H2047 0.950 . S
C2023 C2022 1.349 . S
C2023 C2039 1.349 . S
C2024 C2022 1.327 . S
C2024 C2043 1.429 . S
C2024 H2048 0.950 . S
C2025 C2042 1.574 . S
C2025 C2044 1.368 . S
C2025 H2049 0.949 . S
H2026 C2030 0.949 . S
C2027 C2028 1.349 . S
C2027 C2029 1.327 . S
C2027 H2050 0.950 . S
C2028 C2027 1.349 . S
C2028 C2040 1.349 . S
C2029 C2027 1.327 . S
C2029 C2045 1.429 . S
C2029 H2051 0.950 . S
C2030 H2026 0.949 . S
C2030 C2038 1.574 . S
C2030 C2046 1.368 . S
H2031 C2039 0.950 . S
H2032 C2037 0.950 . S
H2033 C2038 0.949 . S
H2034 C2040 0.950 . S
H2035 C2041 0.950 . S
H2036 C2042 0.949 . S
C2037 H2032 0.950 . S
C2037 C2039 1.327 . S
C2037 C2043 1.429 . S
C2038 C2030 1.574 . S
C2038 H2033 0.949 . S
C2038 C2044 1.368 . S
C2039 C2023 1.349 . S
C2039 H2031 0.950 . S
C2039 C2037 1.327 . S
C2040 C2028 1.349 . S
C2040 H2034 0.950 . S
C2040 C2041 1.327 . S
C2041 H2035 0.950 . S
C2041 C2040 1.327 . S
C2041 C2045 1.429 . S
C2042 C2025 1.574 . S
C2042 H2036 0.949 . S
C2042 C2046 1.368 . S
C2043 C2024 1.429 . S
C2043 C2037 1.429 . S
C2043 C2044 1.523 . S
C2044 C2025 1.368 . S
C2044 C2038 1.368 . S
C2044 C2043 1.523 . S
C2045 C2029 1.429 . S
C2045 C2041 1.429 . S
C2045 C2046 1.523 . S
C2046 C2030 1.368 . S
C2046 C2042 1.368 . S
C2046 C2045 1.523 . S
H2047 C2022 0.950 . S
H2048 C2024 0.950 . S
H2049 C2025 0.949 . S
H2050 C2027 0.950 . S
H2051 C2029 0.950 . S
C2052 C2053 1.349 . S
C2052 C2054 1.327 . S
C2052 H2077 0.950 . S
C2053 C2052 1.349 . S
C2053 C2069 1.349 . S
C2054 C2052 1.327 . S
C2054 C2073 1.429 . S
C2054 H2078 0.950 . S
C2055 C2072 1.574 . S
C2055 C2074 1.368 . S
C2055 H2079 0.949 . S
H2056 C2060 0.949 . S
C2057 C2058 1.349 . S
C2057 C2059 1.327 . S
C2057 H2080 0.950 . S
C2058 C2057 1.349 . S
C2058 C2070 1.349 . S
C2059 C2057 1.327 . S
C2059 C2075 1.429 . S
C2059 H2081 0.950 . S
C2060 H2056 0.949 . S
C2060 C2068 1.574 . S
C2060 C2076 1.368 . S
H2061 C2069 0.950 . S
H2062 C2067 0.950 . S
H2063 C2068 0.949 . S
H2064 C2070 0.950 . S
H2065 C2071 0.950 . S
H2066 C2072 0.949 . S
C2067 H2062 0.950 . S
C2067 C2069 1.327 . S
C2067 C2073 1.429 . S
C2068 C2060 1.574 . S
C2068 H2063 0.949 . S
C2068 C2074 1.368 . S
C2069 C2053 1.349 . S
C2069 H2061 0.950 . S
C2069 C2067 1.327 . S
C2070 C2058 1.349 . S
C2070 H2064 0.950 . S
C2070 C2071 1.327 . S
C2071 H2065 0.950 . S
C2071 C2070 1.327 . S
C2071 C2075 1.429 . S
C2072 C2055 1.574 . S
C2072 H2066 0.949 . S
C2072 C2076 1.368 . S
C2073 C2054 1.429 . S
C2073 C2067 1.429 . S
C2073 C2074 1.523 . S
C2074 C2055 1.368 . S
C2074 C2068 1.368 . S
C2074 C2073 1.523 . S
C2075 C2059 1.429 . S
C2075 C2071 1.429 . S
C2075 C2076 1.523 . S
C2076 C2060 1.368 . S
C2076 C2072 1.368 . S
C2076 C2075 1.523 . S
H2077 C2052 0.950 . S
H2078 C2054 0.950 . S
H2079 C2055 0.949 . S
H2080 C2057 0.950 . S
H2081 C2059 0.950 . S
C2082 C2083 1.349 . S
C2082 C2084 1.327 . S
C2082 H2107 0.950 . S
C2083 C2082 1.349 . S
C2083 C2099 1.349 . S
C2084 C2082 1.327 . S
C2084 C2103 1.429 . S
C2084 H2108 0.950 . S
C2085 C2102 1.574 . S
C2085 C2104 1.368 . S
C2085 H2109 0.949 . S
H2086 C2090 0.949 . S
C2087 C2088 1.349 . S
C2087 C2089 1.327 . S
C2087 H2110 0.950 . S
C2088 C2087 1.349 . S
C2088 C2100 1.349 . S
C2089 C2087 1.327 . S
C2089 C2105 1.429 . S
C2089 H2111 0.950 . S
C2090 H2086 0.949 . S
C2090 C2098 1.574 . S
C2090 C2106 1.368 . S
H2091 C2099 0.950 . S
H2092 C2097 0.950 . S
H2093 C2098 0.949 . S
H2094 C2100 0.950 . S
H2095 C2101 0.950 . S
H2096 C2102 0.949 . S
C2097 H2092 0.950 . S
C2097 C2099 1.327 . S
C2097 C2103 1.429 . S
C2098 C2090 1.574 . S
C2098 H2093 0.949 . S
C2098 C2104 1.368 . S
C2099 C2083 1.349 . S
C2099 H2091 0.950 . S
C2099 C2097 1.327 . S
C2100 C2088 1.349 . S
C2100 H2094 0.950 . S
C2100 C2101 1.327 . S
C2101 H2095 0.950 . S
C2101 C2100 1.327 . S
C2101 C2105 1.429 . S
C2102 C2085 1.574 . S
C2102 H2096 0.949 . S
C2102 C2106 1.368 . S
C2103 C2084 1.429 . S
C2103 C2097 1.429 . S
C2103 C2104 1.523 . S
C2104 C2085 1.368 . S
C2104 C2098 1.368 . S
C2104 C2103 1.523 . S
C2105 C2089 1.429 . S
C2105 C2101 1.429 . S
C2105 C2106 1.523 . S
C2106 C2090 1.368 . S
C2106 C2102 1.368 . S
C2106 C2105 1.523 . S
H2107 C2082 0.950 . S
H2108 C2084 0.950 . S
H2109 C2085 0.949 . S
H2110 C2087 0.950 . S
H2111 C2089 0.950 . S
C2112 C2113 1.349 . S
C2112 C2114 1.327 . S
C2112 H2137 0.950 . S
C2113 C2112 1.349 . S
C2113 C2129 1.349 . S
C2114 C2112 1.327 . S
C2114 C2133 1.429 . S
C2114 H2138 0.950 . S
C2115 C2132 1.574 . S
C2115 C2134 1.368 . S
C2115 H2139 0.949 . S
H2116 C2120 0.949 . S
C2117 C2118 1.349 . S
C2117 C2119 1.327 . S
C2117 H2140 0.950 . S
C2118 C2117 1.349 . S
C2118 C2130 1.349 . S
C2119 C2117 1.327 . S
C2119 C2135 1.429 . S
C2119 H2141 0.950 . S
C2120 H2116 0.949 . S
C2120 C2128 1.574 . S
C2120 C2136 1.368 . S
H2121 C2129 0.950 . S
H2122 C2127 0.950 . S
H2123 C2128 0.949 . S
H2124 C2130 0.950 . S
H2125 C2131 0.950 . S
H2126 C2132 0.949 . S
C2127 H2122 0.950 . S
C2127 C2129 1.327 . S
C2127 C2133 1.429 . S
C2128 C2120 1.574 . S
C2128 H2123 0.949 . S
C2128 C2134 1.368 . S
C2129 C2113 1.349 . S
C2129 H2121 0.950 . S
C2129 C2127 1.327 . S
C2130 C2118 1.349 . S
C2130 H2124 0.950 . S
C2130 C2131 1.327 . S
C2131 H2125 0.950 . S
C2131 C2130 1.327 . S
C2131 C2135 1.429 . S
C2132 C2115 1.574 . S
C2132 H2126 0.949 . S
C2132 C2136 1.368 . S
C2133 C2114 1.429 . S
C2133 C2127 1.429 . S
C2133 C2134 1.523 . S
C2134 C2115 1.368 . S
C2134 C2128 1.368 . S
C2134 C2133 1.523 . S
C2135 C2119 1.429 . S
C2135 C2131 1.429 . S
C2135 C2136 1.523 . S
C2136 C2120 1.368 . S
C2136 C2132 1.368 . S
C2136 C2135 1.523 . S
H2137 C2112 0.950 . S
H2138 C2114 0.950 . S
H2139 C2115 0.949 . S
H2140 C2117 0.950 . S
H2141 C2119 0.950 . S
C523 C124 1.543 . S
C528 C171 1.527 . S
C553 C130 1.744 . S
C558 C211 1.727 . S
C583 C115 1.564 . S
C588 C250 1.553 . S
C613 C106 1.458 . S
C618 C210 1.438 . S
C648 C251 1.413 . S
C643 C85 1.423 . S
C673 C97 1.251 . S
C678 C170 1.254 . S
C708 C181 1.555 . S
C703 C103 1.569 . S
C738 C221 1.702 . S
C733 C88 1.716 . S
C763 C94 1.564 . S
C768 C260 1.551 . S
C793 C121 1.457 . S
C798 C220 1.436 . S
C823 C133 1.395 . S
C828 C261 1.385 . S
C858 C180 1.276 . S
C853 C112 1.276 . S
C888 C291 1.528 . S
C883 C16 1.543 . S
C913 C22 1.744 . S
C918 C331 1.727 . S
C943 C7 1.563 . S
C948 C370 1.553 . S
C973 C160 1.457 . S
C978 C330 1.438 . S
C1003 C139 1.423 . S
C1008 C371 1.413 . S
C1033 C151 1.251 . S
C1038 C290 1.251 . S
C1063 C157 1.569 . S
C1068 C301 1.555 . S
C1093 C142 1.717 . S
C1098 C341 1.702 . S
C1128 C380 1.552 . S
C1123 C148 1.564 . S
C1153 C13 1.457 . S
C1158 C340 1.436 . S
C1188 C381 1.385 . S
C1183 C25 1.395 . S
C1213 C4 1.276 . S
C1218 C300 1.276 . S
C1248 C411 1.528 . S
C1243 C70 1.543 . S
C1273 C76 1.744 . S
C1278 C451 1.727 . S
C1308 C490 1.554 . S
C1303 C61 1.564 . S
C1338 C450 1.438 . S
C1333 C52 1.457 . S
C1368 C491 1.412 . S
C1363 C31 1.423 . S
C1393 C43 1.251 . S
C1398 C410 1.251 . S
C1423 C49 1.569 . S
C1428 C421 1.555 . S
C1453 C34 1.717 . S
C1458 C461 1.702 . S
C1488 C500 1.551 . S
C1483 C40 1.564 . S
C1513 C67 1.457 . S
C1518 C460 1.436 . S
C1543 C79 1.395 . S
C1548 C501 1.385 . S
C1573 C58 1.276 . S
C1578 C420 1.276 . S
C1603 C140 1.329 . S
C1608 C167 1.323 . S
C1638 C207 1.772 . S
C1633 C149 1.766 . S
C1663 C158 1.547 . S
C1668 C257 1.551 . S
C1693 C59 1.790 . S
C1698 C217 1.795 . S
C1723 C68 1.523 . S
C1728 C247 1.527 . S
C1758 C177 1.322 . S
C1753 C77 1.328 . S
C1783 C32 1.329 . S
C1788 C287 1.323 . S
C1813 C41 1.766 . S
C1818 C327 1.772 . S
C1843 C50 1.547 . S
C1848 C377 1.551 . S
C1873 C113 1.790 . S
C1878 C337 1.795 . S
C1908 C367 1.527 . S
C1903 C122 1.523 . S
C1933 C131 1.328 . S
C1938 C297 1.322 . S
C1963 C86 1.329 . S
C1968 C407 1.323 . S
C1993 C95 1.766 . S
C1998 C447 1.772 . S
C2028 C497 1.551 . S
C2023 C104 1.547 . S
C2053 C5 1.790 . S
C2058 C457 1.795 . S
C2083 C14 1.523 . S
C2088 C487 1.526 . S
C2113 C23 1.328 . S
C2118 C417 1.322 . S
