# Generated by pormake.
# Topology anh, (6,3)-cn, num edge types: 1
# Building blocks:
#     Node 0, Type 0, BuildingBlock: BETFAJ_clean_sbu_0, # of connection points: 6
#     Node 1, Type 0, BuildingBlock: BETFAJ_clean_sbu_0, # of connection points: 6
#     Node 2, Type 0, BuildingBlock: BETFAJ_clean_sbu_0, # of connection points: 6
#     Node 3, Type 1, BuildingBlock: BETDAH_clean_linker_0, # of connection points: 3
#     Node 4, Type 1, BuildingBlock: BETDAH_clean_linker_0, # of connection points: 3
#     Node 5, Type 1, BuildingBlock: BETDAH_clean_linker_0, # of connection points: 3
#     Node 6, Type 1, BuildingBlock: BETDAH_clean_linker_0, # of connection points: 3
#     Node 7, Type 1, BuildingBlock: BETDAH_clean_linker_0, # of connection points: 3
#     Node 8, Type 1, BuildingBlock: BETDAH_clean_linker_0, # of connection points: 3
#     Edge 9, Type (0, 1), BuildingBlock: CIFDUS_clean_linker_0, # of connection points: 2
#     Edge 10, Type (0, 1), BuildingBlock: CIFDUS_clean_linker_0, # of connection points: 2
#     Edge 11, Type (0, 1), BuildingBlock: CIFDUS_clean_linker_0, # of connection points: 2
#     Edge 12, Type (0, 1), BuildingBlock: CIFDUS_clean_linker_0, # of connection points: 2
#     Edge 13, Type (0, 1), BuildingBlock: CIFDUS_clean_linker_0, # of connection points: 2
#     Edge 14, Type (0, 1), BuildingBlock: CIFDUS_clean_linker_0, # of connection points: 2
#     Edge 15, Type (0, 1), BuildingBlock: CIFDUS_clean_linker_0, # of connection points: 2
#     Edge 16, Type (0, 1), BuildingBlock: CIFDUS_clean_linker_0, # of connection points: 2
#     Edge 17, Type (0, 1), BuildingBlock: CIFDUS_clean_linker_0, # of connection points: 2
#     Edge 18, Type (0, 1), BuildingBlock: CIFDUS_clean_linker_0, # of connection points: 2
#     Edge 19, Type (0, 1), BuildingBlock: CIFDUS_clean_linker_0, # of connection points: 2
#     Edge 20, Type (0, 1), BuildingBlock: CIFDUS_clean_linker_0, # of connection points: 2
#     Edge 21, Type (0, 1), BuildingBlock: CIFDUS_clean_linker_0, # of connection points: 2
#     Edge 22, Type (0, 1), BuildingBlock: CIFDUS_clean_linker_0, # of connection points: 2
#     Edge 23, Type (0, 1), BuildingBlock: CIFDUS_clean_linker_0, # of connection points: 2
#     Edge 24, Type (0, 1), BuildingBlock: CIFDUS_clean_linker_0, # of connection points: 2
#     Edge 25, Type (0, 1), BuildingBlock: CIFDUS_clean_linker_0, # of connection points: 2
#     Edge 26, Type (0, 1), BuildingBlock: CIFDUS_clean_linker_0, # of connection points: 2
# Relax obj value: 0.173
# Max RMSD: 0.195
# Mean RMSD: 0.115
data_MOF--net-anh--node1-BETFAJ_clean_sbu_0--node2-BETDAH_clean_linker_0--edge1-CIFDUS_clean_linker_0
_symmetry_space_group_name_H-M    P1
_symmetry_Int_Tables_number       1
_symmetry_cell_setting            triclinic
loop_
_symmetry_equiv_pos_as_xyz
'x, y, z'
_cell_length_a     27.461803
_cell_length_b     34.424787
_cell_length_c     42.851765
_cell_angle_alpha  94.306533
_cell_angle_beta   89.61429
_cell_angle_gamma 130.96844
loop_
_atom_site_label
_atom_site_type_symbol
_atom_site_fract_x
_atom_site_fract_y
_atom_site_fract_z
_atom_type_partial_charge
Sm0 Sm 0.20166 0.57649 0.14738 0.0
Sm1 Sm 0.1072 0.5867 0.17344 0.0
C2 C 0.27696 0.56777 0.11541 0.0
C3 C 0.27944 0.52642 0.11177 0.0
C4 C 0.3099 0.52347 0.08656 0.0
C5 C 0.30917 0.48239 0.08228 0.0
C6 C 0.27798 0.44379 0.10322 0.0
C7 C 0.24745 0.447 0.12844 0.0
C8 C 0.24792 0.48784 0.13258 0.0
C9 C 0.18278 0.56402 0.21042 0.0
C10 C 0.25732 0.69377 0.16684 0.0
C11 C 1.03241 0.59801 0.20331 0.0
C12 C 0.96162 0.56492 0.20276 0.0
C13 C 0.92215 0.51208 0.20703 0.0
C14 C 0.85552 0.47903 0.20082 0.0
C15 C 0.82714 0.498 0.18987 0.0
C16 C 0.8662 0.55147 0.18771 0.0
C17 C 0.93287 0.58463 0.19418 0.0
C18 C 0.09407 0.56372 0.1092 0.0
C19 C 1.05626 0.47174 0.15855 0.0
O20 O 0.29387 0.59259 0.14341 0.0
O21 O 0.22467 0.5557 0.10293 0.0
O22 O 0.18865 0.59722 0.196 0.0
O23 O 0.18978 0.53666 0.19183 0.0
O24 O 0.26906 0.66558 0.15233 0.0
O25 O 0.20039 0.67242 0.17802 0.0
O26 O 1.05638 0.57973 0.21582 0.0
O27 O 1.05918 0.61933 0.17737 0.0
O28 O 0.14681 0.59605 0.12514 0.0
O29 O 1.0458 0.54324 0.12702 0.0
O30 O 1.05278 0.50087 0.1785 0.0
O31 O 0.10424 0.49289 0.13953 0.0
H32 H 0.33387 0.5527 0.07012 0.0
H33 H 0.33363 0.48115 0.06282 0.0
H34 H 0.22241 0.41754 0.14472 0.0
H35 H 0.22314 0.48905 0.15189 0.0
H36 H 0.94285 0.49563 0.21368 0.0
H37 H 0.82662 0.4382 0.2032 0.0
H38 H 0.84605 0.56734 0.17903 0.0
H39 H 0.96238 0.6252 0.19072 0.0
Sm40 Sm 0.69853 0.06363 0.48446 0.0
Sm41 Sm 0.61089 0.08331 0.47081 0.0
C42 C 0.75552 0.03149 0.50652 0.0
C43 C 0.73331 0.9829 0.51719 0.0
C44 C 0.67222 0.94799 0.52937 0.0
C45 C 0.64946 0.9001 0.53719 0.0
C46 C 0.68747 0.88638 0.53296 0.0
C47 C 0.74933 0.92208 0.52148 0.0
C48 C 0.77197 0.96993 0.51361 0.0
C49 C 0.68151 0.06803 0.42185 0.0
C50 C 0.54174 0.96464 0.47381 0.0
C51 C 0.55757 0.11964 0.45161 0.0
C52 C 0.57259 0.16769 0.46347 0.0
C53 C 0.54947 0.18728 0.44757 0.0
C54 C 0.5646 0.23326 0.45959 0.0
C55 C 0.60298 0.26009 0.48771 0.0
C56 C 0.62634 0.24021 0.50328 0.0
C57 C 0.61153 0.19465 0.4912 0.0
C58 C 0.62149 0.0763 0.53334 0.0
C59 C 0.77049 0.18282 0.47946 0.0
O60 O 0.7426 0.05616 0.52408 0.0
O61 O 0.74535 0.03041 0.47661 0.0
O62 O 0.63793 0.04497 0.44103 0.0
O63 O 0.73734 0.08922 0.4351 0.0
O64 O 0.5962 0.98419 0.4892 0.0
O65 O 0.53781 0.99495 0.45904 0.0
O66 O 0.60389 0.12569 0.43707 0.0
O67 O 0.53143 0.08484 0.47168 0.0
O68 O 0.66852 0.09997 0.51569 0.0
O69 O 0.56879 0.05879 0.51852 0.0
O70 O 0.71327 0.16502 0.46894 0.0
O71 O 0.77717 0.15161 0.49024 0.0
H72 H 0.64167 0.95738 0.53237 0.0
H73 H 0.60188 0.87363 0.54624 0.0
H74 H 0.77937 0.91236 0.51752 0.0
H75 H 0.81909 0.99635 0.50406 0.0
H76 H 0.51982 0.16709 0.42598 0.0
H77 H 0.54654 0.24791 0.44683 0.0
H78 H 0.65503 0.25925 0.52519 0.0
H79 H 0.63002 0.18007 0.50372 0.0
Sm80 Sm 0.67943 0.60653 0.85065 0.0
Sm81 Sm 0.58187 0.49174 0.84937 0.0
C82 C 0.74733 0.70415 0.8389 0.0
C83 C 0.73577 0.73844 0.83091 0.0
C84 C 0.6732 0.71882 0.82321 0.0
C85 C 0.66315 0.75201 0.81559 0.0
C86 C 0.71556 0.80542 0.81541 0.0
C87 C 0.77819 0.82469 0.82295 0.0
C88 C 0.78811 0.79148 0.83064 0.0
C89 C 0.65549 0.56825 0.90806 0.0
C90 C 0.52044 0.54683 0.85572 0.0
C91 C 0.5187 0.39307 0.85526 0.0
C92 C 0.5279 0.35703 0.84281 0.0
C93 C 0.54117 0.33477 0.86343 0.0
C94 C 0.5534 0.30288 0.85182 0.0
C95 C 0.5521 0.29233 0.81933 0.0
C96 C 0.53814 0.31423 0.79876 0.0
C97 C 0.52637 0.34628 0.81033 0.0
C98 C 0.6022 0.52762 0.79164 0.0
C99 C 0.74172 0.55159 0.8529 0.0
O100 O 0.7286 0.66702 0.81744 0.0
O101 O 0.73429 0.68914 0.86719 0.0
O102 O 0.61405 0.55366 0.88677 0.0
O103 O 0.71343 0.60597 0.89987 0.0
O104 O 0.57844 0.58794 0.84707 0.0
O105 O 0.51213 0.50598 0.86286 0.0
O106 O 0.56256 0.43023 0.87618 0.0
O107 O 0.50083 0.40871 0.83495 0.0
O108 O 0.64648 0.54437 0.81203 0.0
O109 O 0.54589 0.48979 0.80086 0.0
O110 O 0.6805 0.50951 0.85595 0.0
O111 O 0.75544 0.59532 0.84757 0.0
H112 H 0.6322 0.67788 0.82306 0.0
H113 H 0.61439 0.73581 0.80964 0.0
H114 H 0.81949 0.86564 0.82353 0.0
H115 H 0.83675 0.80728 0.83651 0.0
H116 H 0.54276 0.34249 0.88856 0.0
H117 H 0.56348 0.28624 0.86827 0.0
H118 H 0.53769 0.3075 0.77362 0.0
H119 H 0.51696 0.36317 0.79371 0.0
H120 H 0.5708 0.97692 0.24064 0.0
H121 H 0.72903 0.13432 0.22292 0.0
H122 H 0.60436 0.0199 0.14624 0.0
C123 C 0.59799 1.00633 0.22438 0.0
C124 C 0.58032 0.99222 0.19223 0.0
C125 C 0.65179 0.05731 0.23569 0.0
C126 C 0.68796 0.09491 0.21431 0.0
C127 C 0.67073 0.08159 0.18196 0.0
C128 C 0.61745 0.03013 0.17114 0.0
N129 N 0.70564 0.11862 0.15961 0.0
C130 C 0.75613 0.17158 0.1668 0.0
H131 H 0.64573 0.48127 0.60711 0.0
H132 H 0.63659 0.6012 0.60414 0.0
H133 H 0.58742 0.50108 0.5212 0.0
C134 C 0.63808 0.50278 0.594 0.0
C135 C 0.61687 0.48695 0.56227 0.0
C136 C 0.64437 0.54352 0.60944 0.0
C137 C 0.63222 0.57001 0.59234 0.0
C138 C 0.61222 0.55484 0.56034 0.0
C139 C 0.60389 0.51308 0.54573 0.0
N140 N 0.59759 0.57918 0.54226 0.0
C141 C 0.61619 0.62706 0.55092 0.0
H142 H 1.03003 0.56682 0.92537 0.0
H143 H 0.18585 0.56708 0.91215 0.0
H144 H 1.08924 0.56519 0.83222 0.0
C145 C 1.05995 0.56541 0.90959 0.0
C146 C 1.05116 0.56474 0.87714 0.0
C147 C 0.10849 0.56688 0.92238 0.0
C148 C 0.14945 0.56688 0.90232 0.0
C149 C 0.14342 0.56598 0.86973 0.0
C150 C 0.09428 0.56554 0.85729 0.0
N151 N 0.18514 0.56509 0.84918 0.0
C152 C 0.2379 0.56757 0.85678 0.0
H153 H 0.23304 0.68238 0.38913 0.0
H154 H 1.09107 0.52182 0.40515 0.0
H155 H 0.20147 0.63868 0.4832 0.0
C156 C 0.20731 0.65259 0.40525 0.0
C157 C 0.22271 0.66699 0.43742 0.0
C158 C 0.16038 0.60063 0.3934 0.0
C159 C 0.12763 0.56191 0.41427 0.0
C160 C 0.14183 0.57543 0.44689 0.0
C161 C 0.19032 0.62807 0.4582 0.0
N162 N 0.1085 0.53765 0.46902 0.0
C163 C 1.0541 0.48522 0.46251 0.0
H164 H 0.6645 0.15434 0.71723 0.0
H165 H 0.72239 0.06579 0.72672 0.0
H166 H 0.70159 0.13268 0.80884 0.0
C167 C 0.67751 0.13785 0.73204 0.0
C168 C 0.68065 0.14694 0.76475 0.0
C169 C 0.69273 0.10888 0.71809 0.0
C170 C 0.71094 0.08836 0.73729 0.0
C171 C 0.71391 0.097 0.77016 0.0
C172 C 0.69956 0.12666 0.78353 0.0
N173 N 0.73165 0.07717 0.79076 0.0
C174 C 0.73072 0.03674 0.78297 0.0
H175 H 0.59333 0.39829 0.05194 0.0
H176 H 0.40202 0.29311 0.007 0.0
H177 H 0.446 0.25207 0.08763 0.0
C178 C 0.54467 0.36107 0.0495 0.0
C179 C 0.52539 0.32556 0.07131 0.0
C180 C 0.50103 0.34997 0.02583 0.0
C181 C 0.43718 0.30252 0.02466 0.0
C182 C 0.41704 0.26741 0.04705 0.0
C183 C 0.46181 0.27835 0.0698 0.0
N184 N 0.35036 0.22589 0.04996 0.0
C185 C 0.31058 0.23742 0.05251 0.0
H186 H 0.25459 0.38556 0.04928 0.0
H187 H 0.30208 0.40571 0.14827 0.0
H188 H 0.30772 0.33772 0.14169 0.0
H189 H 0.30822 0.27775 0.10714 0.0
H190 H 0.26564 0.25982 0.00799 0.0
H191 H 0.24832 0.32135 0.01512 0.0
C192 C 0.26612 0.37497 0.06937 0.0
C193 C 0.27828 0.4008 0.09917 0.0
C194 C 0.2697 0.33606 0.06537 0.0
C195 C 0.29213 0.38617 0.12512 0.0
C196 C 0.29558 0.34744 0.12137 0.0
C197 C 0.29327 0.28635 0.08733 0.0
C198 C 0.28671 0.26398 0.05725 0.0
C199 C 0.28532 0.32264 0.09158 0.0
C200 C 0.26933 0.27605 0.03143 0.0
C201 C 0.26023 0.31156 0.03549 0.0
H202 H 0.78233 0.25845 0.45195 0.0
H203 H 0.8915 0.23368 0.50515 0.0
H204 H 0.98849 0.32392 0.5036 0.0
H205 H 1.04348 0.41097 0.48773 0.0
H206 H 0.93644 0.4371 0.43448 0.0
H207 H 0.83823 0.34586 0.43523 0.0
C208 C 0.82727 0.27277 0.46326 0.0
C209 C 0.82901 0.23878 0.47871 0.0
C210 C 0.8837 0.3252 0.46211 0.0
C211 C 0.88814 0.25843 0.49307 0.0
C212 C 0.94397 0.31027 0.49219 0.0
C213 C 0.99869 0.39642 0.47604 0.0
C214 C 0.99709 0.43038 0.46083 0.0
C215 C 0.94249 0.34404 0.47678 0.0
C216 C 0.93881 0.41142 0.44608 0.0
C217 C 0.88264 0.35932 0.44665 0.0
H218 H 0.78724 0.88745 0.77996 0.0
H219 H 0.61998 0.80411 0.83568 0.0
H220 H 0.60631 0.86599 0.82777 0.0
H221 H 0.64685 0.94777 0.80857 0.0
H222 H 0.81581 0.03301 0.75449 0.0
H223 H 0.82414 0.96666 0.75814 0.0
C224 C 0.74782 0.88284 0.79038 0.0
C225 C 0.70496 0.84128 0.80856 0.0
C226 C 0.74066 0.91901 0.78604 0.0
C227 C 0.65339 0.8354 0.82138 0.0
C228 C 0.64573 0.87098 0.81703 0.0
C229 C 0.68471 0.95111 0.79715 0.0
C230 C 0.73046 0.99457 0.78112 0.0
C231 C 0.68962 0.91335 0.79984 0.0
C232 C 0.77987 0.99936 0.76669 0.0
C233 C 0.78477 0.96166 0.76895 0.0
H234 H 0.76681 0.40768 0.15383 0.0
H235 H 0.73609 0.50786 0.19536 0.0
H236 H 0.63359 0.45772 0.16467 0.0
H237 H 0.56122 0.39328 0.12076 0.0
H238 H 0.59306 0.29448 0.07873 0.0
H239 H 0.6862 0.33535 0.11562 0.0
C240 C 0.73683 0.41765 0.157 0.0
C241 C 0.75949 0.46189 0.17658 0.0
C242 C 0.67849 0.38907 0.13905 0.0
C243 C 0.72028 0.47457 0.18 0.0
C244 C 0.66168 0.4459 0.16251 0.0
C245 C 0.58777 0.37998 0.1204 0.0
C246 C 0.57114 0.3413 0.09737 0.0
C247 C 0.64161 0.40432 0.14115 0.0
C248 C 0.60537 0.32411 0.09658 0.0
C249 C 0.65866 0.3477 0.11744 0.0
H250 H 0.4177 0.91086 0.45066 0.0
H251 H 0.5396 0.88983 0.49383 0.0
H252 H 0.45036 0.79654 0.48964 0.0
H253 H 0.3386 0.7194 0.4704 0.0
H254 H 0.21799 0.74099 0.42665 0.0
H255 H 0.30467 0.83475 0.43479 0.0
C256 C 0.42476 0.88597 0.45929 0.0
C257 C 0.4858 0.90777 0.47235 0.0
C258 C 0.37295 0.83198 0.45683 0.0
C259 C 0.49348 0.87454 0.48361 0.0
C260 C 0.44227 0.82091 0.48122 0.0
C261 C 0.331 0.74477 0.46337 0.0
C262 C 0.27178 0.72323 0.44809 0.0
C263 C 0.38186 0.799 0.46755 0.0
C264 C 0.26301 0.75662 0.43858 0.0
C265 C 0.31275 0.81028 0.44304 0.0
H266 H 0.64793 0.29419 0.83907 0.0
H267 H 0.48761 0.21619 0.77092 0.0
H268 H 0.51296 0.16444 0.74822 0.0
H269 H 0.58106 0.14173 0.74737 0.0
H270 H 0.74257 0.22052 0.8149 0.0
H271 H 0.71551 0.27066 0.83856 0.0
C272 C 0.61811 0.26544 0.81948 0.0
C273 C 0.56604 0.25922 0.80668 0.0
C274 C 0.6331 0.23586 0.80644 0.0
C275 C 0.52842 0.22224 0.781 0.0
C276 C 0.54274 0.19248 0.76807 0.0
C277 C 0.61072 0.17018 0.76709 0.0
C278 C 0.66388 0.17734 0.77925 0.0
C279 C 0.59524 0.19922 0.78043 0.0
C280 C 0.70098 0.21375 0.80523 0.0
C281 C 0.68575 0.24267 0.81869 0.0
H282 H 0.74969 0.86022 0.56139 0.0
H283 H 0.56656 0.79464 0.51677 0.0
H284 H 0.52597 0.70775 0.52148 0.0
H285 H 0.54574 0.65041 0.53393 0.0
H286 H 0.72956 0.71518 0.57648 0.0
H287 H 0.76707 0.80253 0.57695 0.0
C288 C 0.70086 0.82688 0.55278 0.0
C289 C 0.66136 0.83391 0.53861 0.0
C290 C 0.67816 0.77698 0.5551 0.0
C291 C 0.59779 0.79034 0.52804 0.0
C292 C 0.57465 0.74061 0.53051 0.0
C293 C 0.59355 0.68378 0.54378 0.0
C294 C 0.63507 0.67719 0.55526 0.0
C295 C 0.61479 0.73351 0.54344 0.0
C296 C 0.69705 0.72002 0.56772 0.0
C297 C 0.71844 0.76974 0.56783 0.0
H298 H 0.868 0.60878 0.82979 0.0
H299 H 0.73645 0.48714 0.88882 0.0
H300 H 0.81619 0.4792 0.9002 0.0
H301 H 0.92466 0.50684 0.89504 0.0
H302 H 1.05647 0.62445 0.83419 0.0
H303 H 0.97646 0.63281 0.8218 0.0
C304 C 0.85658 0.58048 0.84514 0.0
C305 C 0.79475 0.54878 0.85843 0.0
C306 C 0.90332 0.57493 0.85126 0.0
C307 C 0.7823 0.51217 0.87796 0.0
C308 C 0.82843 0.50753 0.88462 0.0
C309 C 0.93622 0.53422 0.87882 0.0
C310 C 0.99804 0.56499 0.86576 0.0
C311 C 0.88926 0.53863 0.87157 0.0
C312 C 1.01011 0.59964 0.84459 0.0
C313 C 0.96404 0.60478 0.83767 0.0
H314 H 0.37392 0.75635 0.1394 0.0
H315 H 0.26038 0.76 0.20775 0.0
H316 H 0.34869 0.85225 0.22058 0.0
H317 H 0.46005 0.9316 0.21436 0.0
H318 H 0.5737 0.92996 0.14537 0.0
H319 H 0.4836 0.8378 0.13062 0.0
C320 C 0.36837 0.77737 0.15698 0.0
C321 C 0.31041 0.75084 0.17267 0.0
C322 C 0.41952 0.83097 0.16419 0.0
C323 C 0.30412 0.77905 0.1952 0.0
C324 C 0.3548 0.83198 0.20268 0.0
C325 C 0.46496 0.91107 0.196 0.0
C326 C 0.52367 0.93752 0.18115 0.0
C327 C 0.41294 0.85822 0.18761 0.0
C328 C 0.52896 0.91058 0.15707 0.0
C329 C 0.47755 0.85779 0.14877 0.0
H330 H 0.52154 0.27949 0.49024 0.0
H331 H 0.71652 0.34775 0.51644 0.0
H332 H 0.73738 0.42311 0.54276 0.0
H333 H 0.69979 0.46944 0.5589 0.0
H334 H 0.50677 0.40293 0.53045 0.0
H335 H 0.4858 0.32736 0.50407 0.0
C336 C 0.56896 0.31118 0.50123 0.0
C337 C 0.61717 0.30769 0.5015 0.0
C338 C 0.58092 0.35469 0.51602 0.0
C339 C 0.67808 0.34894 0.51632 0.0
C340 C 0.69021 0.3922 0.53128 0.0
C341 C 0.65318 0.43822 0.54698 0.0
C342 C 0.6048 0.4414 0.54661 0.0
C343 C 0.64181 0.39529 0.53152 0.0
C344 C 0.54475 0.40119 0.53084 0.0
C345 C 0.53274 0.35805 0.51583 0.0
H346 H 0.51238 0.62402 0.84848 0.0
H347 H 0.39516 0.46449 0.86724 0.0
H348 H 0.30051 0.45662 0.87008 0.0
H349 H 0.24708 0.49343 0.86655 0.0
H350 H 0.36265 0.65274 0.84861 0.0
H351 H 0.45901 0.66178 0.84639 0.0
C352 C 0.4663 0.58745 0.85324 0.0
C353 C 0.46273 0.54491 0.85755 0.0
C354 C 0.41031 0.5829 0.85514 0.0
C355 C 0.40128 0.49827 0.86377 0.0
C356 C 0.34623 0.49355 0.86543 0.0
C357 C 0.2934 0.53037 0.86247 0.0
C358 C 0.2966 0.57253 0.85808 0.0
C359 C 0.34962 0.5354 0.86114 0.0
C360 C 0.35778 0.61961 0.85243 0.0
C361 C 0.41338 0.62477 0.85102 0.0
H362 H 0.9506 0.41366 0.19404 0.0
H363 H 1.04768 0.40035 0.11998 0.0
H364 H 0.96454 0.30646 0.11681 0.0
H365 H 0.86257 0.22744 0.13414 0.0
H366 H 0.7649 0.23975 0.20787 0.0
H367 H 0.84972 0.33439 0.21225 0.0
C368 C 0.95371 0.39028 0.17724 0.0
C369 C 1.00552 0.41439 0.15722 0.0
C370 C 0.90553 0.33595 0.17552 0.0
C371 C 1.00852 0.38318 0.13565 0.0
C372 C 0.9609 0.32931 0.13381 0.0
C373 C 0.86039 0.25103 0.15131 0.0
C374 C 0.80817 0.22715 0.17079 0.0
C375 C 0.90909 0.30524 0.1535 0.0
C376 C 0.80511 0.25765 0.1928 0.0
C377 C 0.85345 0.31165 0.19521 0.0
H378 H 0.18955 0.61191 0.06765 0.0
H379 H 0.98262 0.49847 0.07286 0.0
H380 H 0.96883 0.48809 0.01577 0.0
H381 H 1.01504 0.51284 0.96432 0.0
H382 H 0.22179 0.62754 0.9587 0.0
H383 H 0.23611 0.63515 0.01571 0.0
C384 C 0.14152 0.58478 0.05623 0.0
C385 C 1.08717 0.55623 0.07449 0.0
C386 C 0.13385 0.57914 0.02325 0.0
C387 C 1.02524 0.5211 0.05938 0.0
C388 C 1.01728 0.51513 0.0267 0.0
C389 C 1.06326 0.53971 0.97555 0.0
C390 C 0.11718 0.56969 0.95711 0.0
C391 C 1.07116 0.54431 0.0084 0.0
C392 C 0.17937 0.60358 0.97216 0.0
C393 C 0.18762 0.60822 0.00484 0.0
H394 H 0.76672 0.10989 0.37521 0.0
H395 H 0.56574 0.02268 0.39314 0.0
H396 H 0.53978 0.01483 0.33756 0.0
H397 H 0.5726 0.02885 0.28357 0.0
H398 H 0.77255 0.11448 0.26443 0.0
H399 H 0.80069 0.12784 0.32063 0.0
C400 C 0.7174 0.08942 0.36687 0.0
C401 C 0.66816 0.06643 0.3882 0.0
C402 C 0.70259 0.08488 0.33467 0.0
C403 C 0.60448 0.04035 0.37718 0.0
C404 C 0.58952 0.03586 0.34538 0.0
C405 C 0.62238 0.05046 0.2917 0.0
C406 C 0.67026 0.07018 0.26984 0.0
C407 C 0.63795 0.05731 0.32388 0.0
C408 C 0.73477 0.09908 0.28079 0.0
C409 C 0.75081 0.10638 0.31291 0.0
H410 H 0.69788 0.55276 0.75393 0.0
H411 H 0.52593 0.53301 0.7571 0.0
H412 H 0.52941 0.54378 0.70122 0.0
H413 H 0.57329 0.54812 0.65054 0.0
H414 H 0.73868 0.55911 0.6456 0.0
H415 H 0.74628 0.56262 0.70289 0.0
C416 C 0.66218 0.55197 0.74237 0.0
C417 C 0.61176 0.54221 0.75936 0.0
C418 C 0.66292 0.55596 0.70987 0.0
C419 C 0.56502 0.54038 0.74428 0.0
C420 C 0.5669 0.54639 0.71237 0.0
C421 C 0.61193 0.55257 0.66209 0.0
C422 C 0.65551 0.55358 0.64401 0.0
C423 C 0.61446 0.55266 0.69477 0.0
C424 C 0.70456 0.5582 0.65915 0.0
C425 C 0.7088 0.56011 0.69185 0.0
H426 H 0.72357 0.10621 0.57139 0.0
H427 H 0.5284 0.04774 0.57277 0.0
H428 H 0.53229 0.05014 0.6295 0.0
H429 H 0.59143 0.07156 0.67907 0.0
H430 H 0.78505 0.12757 0.67956 0.0
H431 H 0.78116 0.12243 0.62199 0.0
C432 C 0.68201 0.09389 0.58419 0.0
C433 C 0.62606 0.07734 0.56784 0.0
C434 C 0.68409 0.09465 0.61717 0.0
C435 C 0.57227 0.06099 0.5847 0.0
C436 C 0.57429 0.06224 0.61722 0.0
C437 C 0.63263 0.08236 0.66652 0.0
C438 C 0.68855 0.10028 0.6834 0.0
C439 C 0.62999 0.07938 0.6337 0.0
C440 C 0.74135 0.11348 0.66696 0.0
C441 C 0.73927 0.11089 0.6341 0.0
H442 H 0.54202 0.50419 0.93455 0.0
H443 H 0.7345 0.5575 0.93636 0.0
H444 H 0.70301 0.49323 0.97239 0.0
H445 H 0.61895 0.41917 0.001 0.0
H446 H 0.42858 0.37086 0.00196 0.0
H447 H 0.46065 0.43493 0.96636 0.0
C448 C 0.57725 0.50214 0.94325 0.0
C449 C 0.64042 0.53545 0.9331 0.0
C450 C 0.55883 0.46536 0.96386 0.0
C451 C 0.6858 0.53261 0.9443 0.0
C452 C 0.66761 0.49558 0.96461 0.0
C453 C 0.58458 0.42301 0.99388 0.0
C454 C 0.52102 0.38939 0.004 0.0
C455 C 0.60398 0.46135 0.97425 0.0
C456 C 0.47719 0.39482 0.99395 0.0
C457 C 0.4957 0.43203 0.97388 0.0
H458 H 0.15774 0.61385 0.24888 0.0
H459 H 0.18412 0.50343 0.24782 0.0
H460 H 0.17214 0.50004 0.30464 0.0
H461 H 0.16254 0.53441 0.35529 0.0
H462 H 0.13135 0.64188 0.35436 0.0
H463 H 0.13412 0.63891 0.2974 0.0
C464 C 0.15946 0.58816 0.26091 0.0
C465 C 0.17185 0.55901 0.24424 0.0
C466 C 0.15125 0.58569 0.29321 0.0
C467 C 0.17487 0.52643 0.26024 0.0
C468 C 0.16788 0.52442 0.29268 0.0
C469 C 0.15464 0.55599 0.34244 0.0
C470 C 0.14743 0.58874 0.35894 0.0
C471 C 0.15698 0.55452 0.30953 0.0
C472 C 0.1376 0.61681 0.34212 0.0
C473 C 0.13953 0.61536 0.3096 0.0
loop_
_geom_bond_atom_site_label_1
_geom_bond_atom_site_label_2
_geom_bond_distance
_geom_bond_site_symmetry_2
_ccdc_geom_bond_type
Sm0 C2 2.846 . S
Sm0 O20 2.543 . S
Sm0 O21 2.450 . S
Sm0 O22 2.681 . S
Sm0 O23 2.464 . S
Sm0 O24 2.396 . S
Sm0 O28 2.386 . S
Sm0 O31 2.408 1_455 S
Sm1 C11 2.846 1_455 S
Sm1 O22 2.386 . S
Sm1 O25 2.408 . S
Sm1 O26 2.543 1_455 S
Sm1 O27 2.450 1_455 S
Sm1 O28 2.681 . S
Sm1 O29 2.464 . S
Sm1 O30 2.396 1_455 S
C2 Sm0 2.846 . S
C2 C3 1.506 . S
C2 O20 1.261 . S
C2 O21 1.242 . S
C3 C2 1.506 . S
C3 C4 1.358 . S
C3 C8 1.382 . S
C4 C3 1.358 . S
C4 C5 1.385 . S
C4 H32 0.930 . S
C5 C4 1.385 . S
C5 C6 1.395 . S
C5 H33 0.929 . S
C6 C5 1.395 . S
C6 C7 1.335 . S
C7 C6 1.335 . S
C7 C8 1.398 . S
C7 H34 0.930 . S
C8 C3 1.382 . S
C8 C7 1.398 . S
C8 H35 0.929 . S
C9 O22 1.271 . S
C9 O23 1.251 . S
C10 O24 1.252 . S
C10 O25 1.272 . S
C11 Sm1 2.846 1_655 S
C11 C12 1.506 . S
C11 O26 1.261 . S
C11 O27 1.242 . S
C12 C11 1.506 . S
C12 C13 1.358 . S
C12 C17 1.382 . S
C13 C12 1.358 . S
C13 C14 1.385 . S
C13 H36 0.930 . S
C14 C13 1.385 . S
C14 C15 1.395 . S
C14 H37 0.929 . S
C15 C14 1.395 . S
C15 C16 1.335 . S
C16 C15 1.335 . S
C16 C17 1.398 . S
C16 H38 0.930 . S
C17 C12 1.382 . S
C17 C16 1.398 . S
C17 H39 0.929 . S
C18 O28 1.271 . S
C18 O29 1.251 . S
C19 O30 1.252 . S
C19 O31 1.272 . S
O20 Sm0 2.543 . S
O20 C2 1.261 . S
O21 Sm0 2.450 . S
O21 C2 1.242 . S
O22 Sm0 2.681 . S
O22 Sm1 2.386 . S
O22 C9 1.271 . S
O23 Sm0 2.464 . S
O23 C9 1.251 . S
O24 Sm0 2.396 . S
O24 C10 1.252 . S
O25 Sm1 2.408 . S
O25 C10 1.272 . S
O26 Sm1 2.543 1_655 S
O26 C11 1.261 . S
O27 Sm1 2.450 1_655 S
O27 C11 1.242 . S
O28 Sm0 2.386 . S
O28 Sm1 2.681 . S
O28 C18 1.271 . S
O29 Sm1 2.464 . S
O29 C18 1.251 . S
O30 Sm1 2.396 1_655 S
O30 C19 1.252 . S
O31 Sm0 2.408 1_655 S
O31 C19 1.272 . S
H32 C4 0.930 . S
H33 C5 0.929 . S
H34 C7 0.930 . S
H35 C8 0.929 . S
H36 C13 0.930 . S
H37 C14 0.929 . S
H38 C16 0.930 . S
H39 C17 0.929 . S
Sm40 C42 2.846 1_545 S
Sm40 O60 2.543 1_545 S
Sm40 O61 2.450 1_545 S
Sm40 O62 2.681 . S
Sm40 O63 2.464 . S
Sm40 O64 2.396 1_545 S
Sm40 O68 2.386 . S
Sm40 O71 2.408 . S
Sm41 C51 2.846 . S
Sm41 O62 2.386 . S
Sm41 O65 2.408 1_545 S
Sm41 O66 2.543 . S
Sm41 O67 2.450 . S
Sm41 O68 2.681 . S
Sm41 O69 2.464 . S
Sm41 O70 2.396 . S
C42 Sm40 2.846 1_565 S
C42 C43 1.506 . S
C42 O60 1.261 . S
C42 O61 1.242 . S
C43 C42 1.506 . S
C43 C44 1.358 . S
C43 C48 1.382 . S
C44 C43 1.358 . S
C44 C45 1.385 . S
C44 H72 0.930 . S
C45 C44 1.385 . S
C45 C46 1.395 . S
C45 H73 0.929 . S
C46 C45 1.395 . S
C46 C47 1.335 . S
C47 C46 1.335 . S
C47 C48 1.398 . S
C47 H74 0.930 . S
C48 C43 1.382 . S
C48 C47 1.398 . S
C48 H75 0.929 . S
C49 O62 1.271 . S
C49 O63 1.251 . S
C50 O64 1.252 . S
C50 O65 1.272 . S
C51 Sm41 2.846 . S
C51 C52 1.506 . S
C51 O66 1.261 . S
C51 O67 1.242 . S
C52 C51 1.506 . S
C52 C53 1.358 . S
C52 C57 1.382 . S
C53 C52 1.358 . S
C53 C54 1.385 . S
C53 H76 0.930 . S
C54 C53 1.385 . S
C54 C55 1.395 . S
C54 H77 0.929 . S
C55 C54 1.395 . S
C55 C56 1.335 . S
C56 C55 1.335 . S
C56 C57 1.398 . S
C56 H78 0.930 . S
C57 C52 1.382 . S
C57 C56 1.398 . S
C57 H79 0.929 . S
C58 O68 1.271 . S
C58 O69 1.251 . S
C59 O70 1.252 . S
C59 O71 1.272 . S
O60 Sm40 2.543 1_565 S
O60 C42 1.261 . S
O61 Sm40 2.450 1_565 S
O61 C42 1.242 . S
O62 Sm40 2.681 . S
O62 Sm41 2.386 . S
O62 C49 1.271 . S
O63 Sm40 2.464 . S
O63 C49 1.251 . S
O64 Sm40 2.396 1_565 S
O64 C50 1.252 . S
O65 Sm41 2.408 1_565 S
O65 C50 1.272 . S
O66 Sm41 2.543 . S
O66 C51 1.261 . S
O67 Sm41 2.450 . S
O67 C51 1.242 . S
O68 Sm40 2.386 . S
O68 Sm41 2.681 . S
O68 C58 1.271 . S
O69 Sm41 2.464 . S
O69 C58 1.251 . S
O70 Sm41 2.396 . S
O70 C59 1.252 . S
O71 Sm40 2.408 . S
O71 C59 1.272 . S
H72 C44 0.930 . S
H73 C45 0.929 . S
H74 C47 0.930 . S
H75 C48 0.929 . S
H76 C53 0.930 . S
H77 C54 0.929 . S
H78 C56 0.930 . S
H79 C57 0.929 . S
Sm80 C82 2.846 . S
Sm80 O100 2.543 . S
Sm80 O101 2.450 . S
Sm80 O102 2.681 . S
Sm80 O103 2.464 . S
Sm80 O104 2.396 . S
Sm80 O108 2.386 . S
Sm80 O111 2.408 . S
Sm81 C91 2.846 . S
Sm81 O102 2.386 . S
Sm81 O105 2.408 . S
Sm81 O106 2.543 . S
Sm81 O107 2.450 . S
Sm81 O108 2.681 . S
Sm81 O109 2.464 . S
Sm81 O110 2.396 . S
C82 Sm80 2.846 . S
C82 C83 1.506 . S
C82 O100 1.261 . S
C82 O101 1.242 . S
C83 C82 1.506 . S
C83 C84 1.358 . S
C83 C88 1.382 . S
C84 C83 1.358 . S
C84 C85 1.385 . S
C84 H112 0.930 . S
C85 C84 1.385 . S
C85 C86 1.395 . S
C85 H113 0.929 . S
C86 C85 1.395 . S
C86 C87 1.335 . S
C87 C86 1.335 . S
C87 C88 1.398 . S
C87 H114 0.930 . S
C88 C83 1.382 . S
C88 C87 1.398 . S
C88 H115 0.929 . S
C89 O102 1.271 . S
C89 O103 1.251 . S
C90 O104 1.252 . S
C90 O105 1.272 . S
C91 Sm81 2.846 . S
C91 C92 1.506 . S
C91 O106 1.261 . S
C91 O107 1.242 . S
C92 C91 1.506 . S
C92 C93 1.358 . S
C92 C97 1.382 . S
C93 C92 1.358 . S
C93 C94 1.385 . S
C93 H116 0.930 . S
C94 C93 1.385 . S
C94 C95 1.395 . S
C94 H117 0.929 . S
C95 C94 1.395 . S
C95 C96 1.335 . S
C96 C95 1.335 . S
C96 C97 1.398 . S
C96 H118 0.930 . S
C97 C92 1.382 . S
C97 C96 1.398 . S
C97 H119 0.929 . S
C98 O108 1.271 . S
C98 O109 1.251 . S
C99 O110 1.252 . S
C99 O111 1.272 . S
O100 Sm80 2.543 . S
O100 C82 1.261 . S
O101 Sm80 2.450 . S
O101 C82 1.242 . S
O102 Sm80 2.681 . S
O102 Sm81 2.386 . S
O102 C89 1.271 . S
O103 Sm80 2.464 . S
O103 C89 1.251 . S
O104 Sm80 2.396 . S
O104 C90 1.252 . S
O105 Sm81 2.408 . S
O105 C90 1.272 . S
O106 Sm81 2.543 . S
O106 C91 1.261 . S
O107 Sm81 2.450 . S
O107 C91 1.242 . S
O108 Sm80 2.386 . S
O108 Sm81 2.681 . S
O108 C98 1.271 . S
O109 Sm81 2.464 . S
O109 C98 1.251 . S
O110 Sm81 2.396 . S
O110 C99 1.252 . S
O111 Sm80 2.408 . S
O111 C99 1.272 . S
H112 C84 0.930 . S
H113 C85 0.929 . S
H114 C87 0.930 . S
H115 C88 0.929 . S
H116 C93 0.930 . S
H117 C94 0.929 . S
H118 C96 0.930 . S
H119 C97 0.929 . S
H120 C123 0.929 . S
H121 C126 0.929 . S
H122 C128 0.930 . S
C123 H120 0.929 . S
C123 C124 1.398 . S
C123 C125 1.396 1_565 S
C124 C123 1.398 . S
C124 C128 1.407 1_565 S
C125 C123 1.396 1_545 S
C125 C126 1.394 . S
C126 H121 0.929 . S
C126 C125 1.394 . S
C126 C127 1.382 . S
C127 C126 1.382 . S
C127 C128 1.392 . S
C127 N129 1.420 . S
C128 H122 0.930 . S
C128 C124 1.407 1_545 S
C128 C127 1.392 . S
N129 C127 1.420 . S
N129 C130 1.244 . S
C130 N129 1.244 . S
H131 C134 0.929 . S
H132 C137 0.929 . S
H133 C139 0.930 . S
C134 H131 0.929 . S
C134 C135 1.398 . S
C134 C136 1.396 . S
C135 C134 1.398 . S
C135 C139 1.407 . S
C136 C134 1.396 . S
C136 C137 1.394 . S
C137 H132 0.929 . S
C137 C136 1.394 . S
C137 C138 1.382 . S
C138 C137 1.382 . S
C138 C139 1.392 . S
C138 N140 1.420 . S
C139 H133 0.930 . S
C139 C135 1.407 . S
C139 C138 1.392 . S
N140 C138 1.420 . S
N140 C141 1.244 . S
C141 N140 1.244 . S
H142 C145 0.929 1_655 S
H143 C148 0.929 . S
H144 C150 0.930 . S
C145 H142 0.929 1_455 S
C145 C146 1.398 . S
C145 C147 1.396 . S
C146 C145 1.398 . S
C146 C150 1.407 . S
C147 C145 1.396 . S
C147 C148 1.394 . S
C148 H143 0.929 . S
C148 C147 1.394 . S
C148 C149 1.382 . S
C149 C148 1.382 . S
C149 C150 1.392 . S
C149 N151 1.420 . S
C150 H144 0.930 . S
C150 C146 1.407 . S
C150 C149 1.392 . S
N151 C149 1.420 . S
N151 C152 1.244 . S
C152 N151 1.244 . S
H153 C156 0.929 . S
H154 C159 0.929 . S
H155 C161 0.930 . S
C156 H153 0.929 . S
C156 C157 1.398 . S
C156 C158 1.396 . S
C157 C156 1.398 . S
C157 C161 1.407 . S
C158 C156 1.396 . S
C158 C159 1.394 1_455 S
C159 H154 0.929 . S
C159 C158 1.394 1_655 S
C159 C160 1.382 . S
C160 C159 1.382 . S
C160 C161 1.392 1_655 S
C160 N162 1.420 . S
C161 H155 0.930 . S
C161 C157 1.407 . S
C161 C160 1.392 1_455 S
N162 C160 1.420 . S
N162 C163 1.244 . S
C163 N162 1.244 . S
H164 C167 0.929 . S
H165 C170 0.929 1_565 S
H166 C172 0.930 . S
C167 H164 0.929 . S
C167 C168 1.398 . S
C167 C169 1.396 . S
C168 C167 1.398 . S
C168 C172 1.407 . S
C169 C167 1.396 . S
C169 C170 1.394 . S
C170 H165 0.929 1_545 S
C170 C169 1.394 . S
C170 C171 1.382 . S
C171 C170 1.382 . S
C171 C172 1.392 . S
C171 N173 1.420 1_545 S
C172 H166 0.930 . S
C172 C168 1.407 . S
C172 C171 1.392 . S
N173 C171 1.420 1_565 S
N173 C174 1.244 . S
C174 N173 1.244 . S
H175 C178 0.929 . S
H176 C181 0.929 . S
H177 C183 0.930 . S
C178 H175 0.929 . S
C178 C179 1.398 . S
C178 C180 1.396 . S
C179 C178 1.398 . S
C179 C183 1.407 . S
C180 C178 1.396 . S
C180 C181 1.394 . S
C181 H176 0.929 . S
C181 C180 1.394 . S
C181 C182 1.382 . S
C182 C181 1.382 . S
C182 C183 1.392 . S
C182 N184 1.420 . S
C183 H177 0.930 . S
C183 C179 1.407 . S
C183 C182 1.392 . S
N184 C182 1.420 . S
N184 C185 1.244 . S
C185 N184 1.244 . S
H186 C192 0.930 . S
H187 C195 0.930 . S
H188 C196 0.930 . S
H189 C197 0.930 . S
H190 C200 0.930 . S
H191 C201 0.930 . S
C192 H186 0.930 . S
C192 C193 1.355 . S
C192 C194 1.415 . S
C193 C192 1.355 . S
C193 C195 1.419 . S
C194 C192 1.415 . S
C194 C199 1.425 . S
C194 C201 1.409 . S
C195 H187 0.930 . S
C195 C193 1.419 . S
C195 C196 1.362 . S
C196 H188 0.930 . S
C196 C195 1.362 . S
C196 C199 1.409 . S
C197 H189 0.930 . S
C197 C198 1.355 . S
C197 C199 1.415 . S
C198 C197 1.355 . S
C198 C200 1.419 . S
C199 C194 1.425 . S
C199 C196 1.409 . S
C199 C197 1.415 . S
C200 H190 0.930 . S
C200 C198 1.419 . S
C200 C201 1.362 . S
C201 H191 0.930 . S
C201 C194 1.409 . S
C201 C200 1.362 . S
H202 C208 0.930 . S
H203 C211 0.930 . S
H204 C212 0.930 . S
H205 C213 0.930 . S
H206 C216 0.930 . S
H207 C217 0.930 . S
C208 H202 0.930 . S
C208 C209 1.355 . S
C208 C210 1.415 . S
C209 C208 1.355 . S
C209 C211 1.419 . S
C210 C208 1.415 . S
C210 C215 1.425 . S
C210 C217 1.409 . S
C211 H203 0.930 . S
C211 C209 1.419 . S
C211 C212 1.362 . S
C212 H204 0.930 . S
C212 C211 1.362 . S
C212 C215 1.409 . S
C213 H205 0.930 . S
C213 C214 1.355 . S
C213 C215 1.415 . S
C214 C213 1.355 . S
C214 C216 1.419 . S
C215 C210 1.425 . S
C215 C212 1.409 . S
C215 C213 1.415 . S
C216 H206 0.930 . S
C216 C214 1.419 . S
C216 C217 1.362 . S
C217 H207 0.930 . S
C217 C210 1.409 . S
C217 C216 1.362 . S
H218 C224 0.930 . S
H219 C227 0.930 . S
H220 C228 0.930 . S
H221 C229 0.930 . S
H222 C232 0.930 . S
H223 C233 0.930 . S
C224 H218 0.930 . S
C224 C225 1.355 . S
C224 C226 1.415 . S
C225 C224 1.355 . S
C225 C227 1.419 . S
C226 C224 1.415 . S
C226 C231 1.425 . S
C226 C233 1.409 . S
C227 H219 0.930 . S
C227 C225 1.419 . S
C227 C228 1.362 . S
C228 H220 0.930 . S
C228 C227 1.362 . S
C228 C231 1.409 . S
C229 H221 0.930 . S
C229 C230 1.355 . S
C229 C231 1.415 . S
C230 C229 1.355 . S
C230 C232 1.419 . S
C231 C226 1.425 . S
C231 C228 1.409 . S
C231 C229 1.415 . S
C232 H222 0.930 . S
C232 C230 1.419 . S
C232 C233 1.362 . S
C233 H223 0.930 . S
C233 C226 1.409 . S
C233 C232 1.362 . S
H234 C240 0.930 . S
H235 C243 0.930 . S
H236 C244 0.930 . S
H237 C245 0.930 . S
H238 C248 0.930 . S
H239 C249 0.930 . S
C240 H234 0.930 . S
C240 C241 1.355 . S
C240 C242 1.415 . S
C241 C240 1.355 . S
C241 C243 1.419 . S
C242 C240 1.415 . S
C242 C247 1.425 . S
C242 C249 1.409 . S
C243 H235 0.930 . S
C243 C241 1.419 . S
C243 C244 1.362 . S
C244 H236 0.930 . S
C244 C243 1.362 . S
C244 C247 1.409 . S
C245 H237 0.930 . S
C245 C246 1.355 . S
C245 C247 1.415 . S
C246 C245 1.355 . S
C246 C248 1.419 . S
C247 C242 1.425 . S
C247 C244 1.409 . S
C247 C245 1.415 . S
C248 H238 0.930 . S
C248 C246 1.419 . S
C248 C249 1.362 . S
C249 H239 0.930 . S
C249 C242 1.409 . S
C249 C248 1.362 . S
H250 C256 0.930 . S
H251 C259 0.930 . S
H252 C260 0.930 . S
H253 C261 0.930 . S
H254 C264 0.930 . S
H255 C265 0.930 . S
C256 H250 0.930 . S
C256 C257 1.355 . S
C256 C258 1.415 . S
C257 C256 1.355 . S
C257 C259 1.419 . S
C258 C256 1.415 . S
C258 C263 1.425 . S
C258 C265 1.409 . S
C259 H251 0.930 . S
C259 C257 1.419 . S
C259 C260 1.362 . S
C260 H252 0.930 . S
C260 C259 1.362 . S
C260 C263 1.409 . S
C261 H253 0.930 . S
C261 C262 1.355 . S
C261 C263 1.415 . S
C262 C261 1.355 . S
C262 C264 1.419 . S
C263 C258 1.425 . S
C263 C260 1.409 . S
C263 C261 1.415 . S
C264 H254 0.930 . S
C264 C262 1.419 . S
C264 C265 1.362 . S
C265 H255 0.930 . S
C265 C258 1.409 . S
C265 C264 1.362 . S
H266 C272 0.930 . S
H267 C275 0.930 . S
H268 C276 0.930 . S
H269 C277 0.930 . S
H270 C280 0.930 . S
H271 C281 0.930 . S
C272 H266 0.930 . S
C272 C273 1.355 . S
C272 C274 1.415 . S
C273 C272 1.355 . S
C273 C275 1.419 . S
C274 C272 1.415 . S
C274 C279 1.425 . S
C274 C281 1.409 . S
C275 H267 0.930 . S
C275 C273 1.419 . S
C275 C276 1.362 . S
C276 H268 0.930 . S
C276 C275 1.362 . S
C276 C279 1.409 . S
C277 H269 0.930 . S
C277 C278 1.355 . S
C277 C279 1.415 . S
C278 C277 1.355 . S
C278 C280 1.419 . S
C279 C274 1.425 . S
C279 C276 1.409 . S
C279 C277 1.415 . S
C280 H270 0.930 . S
C280 C278 1.419 . S
C280 C281 1.362 . S
C281 H271 0.930 . S
C281 C274 1.409 . S
C281 C280 1.362 . S
H282 C288 0.930 . S
H283 C291 0.930 . S
H284 C292 0.930 . S
H285 C293 0.930 . S
H286 C296 0.930 . S
H287 C297 0.930 . S
C288 H282 0.930 . S
C288 C289 1.355 . S
C288 C290 1.415 . S
C289 C288 1.355 . S
C289 C291 1.419 . S
C290 C288 1.415 . S
C290 C295 1.425 . S
C290 C297 1.409 . S
C291 H283 0.930 . S
C291 C289 1.419 . S
C291 C292 1.362 . S
C292 H284 0.930 . S
C292 C291 1.362 . S
C292 C295 1.409 . S
C293 H285 0.930 . S
C293 C294 1.355 . S
C293 C295 1.415 . S
C294 C293 1.355 . S
C294 C296 1.419 . S
C295 C290 1.425 . S
C295 C292 1.409 . S
C295 C293 1.415 . S
C296 H286 0.930 . S
C296 C294 1.419 . S
C296 C297 1.362 . S
C297 H287 0.930 . S
C297 C290 1.409 . S
C297 C296 1.362 . S
H298 C304 0.930 . S
H299 C307 0.930 . S
H300 C308 0.930 . S
H301 C309 0.930 . S
H302 C312 0.930 . S
H303 C313 0.930 . S
C304 H298 0.930 . S
C304 C305 1.355 . S
C304 C306 1.415 . S
C305 C304 1.355 . S
C305 C307 1.419 . S
C306 C304 1.415 . S
C306 C311 1.425 . S
C306 C313 1.409 . S
C307 H299 0.930 . S
C307 C305 1.419 . S
C307 C308 1.362 . S
C308 H300 0.930 . S
C308 C307 1.362 . S
C308 C311 1.409 . S
C309 H301 0.930 . S
C309 C310 1.355 . S
C309 C311 1.415 . S
C310 C309 1.355 . S
C310 C312 1.419 . S
C311 C306 1.425 . S
C311 C308 1.409 . S
C311 C309 1.415 . S
C312 H302 0.930 . S
C312 C310 1.419 . S
C312 C313 1.362 . S
C313 H303 0.930 . S
C313 C306 1.409 . S
C313 C312 1.362 . S
H314 C320 0.930 . S
H315 C323 0.930 . S
H316 C324 0.930 . S
H317 C325 0.930 . S
H318 C328 0.930 . S
H319 C329 0.930 . S
C320 H314 0.930 . S
C320 C321 1.355 . S
C320 C322 1.415 . S
C321 C320 1.355 . S
C321 C323 1.419 . S
C322 C320 1.415 . S
C322 C327 1.425 . S
C322 C329 1.409 . S
C323 H315 0.930 . S
C323 C321 1.419 . S
C323 C324 1.362 . S
C324 H316 0.930 . S
C324 C323 1.362 . S
C324 C327 1.409 . S
C325 H317 0.930 . S
C325 C326 1.355 . S
C325 C327 1.415 . S
C326 C325 1.355 . S
C326 C328 1.419 . S
C327 C322 1.425 . S
C327 C324 1.409 . S
C327 C325 1.415 . S
C328 H318 0.930 . S
C328 C326 1.419 . S
C328 C329 1.362 . S
C329 H319 0.930 . S
C329 C322 1.409 . S
C329 C328 1.362 . S
H330 C336 0.930 . S
H331 C339 0.930 . S
H332 C340 0.930 . S
H333 C341 0.930 . S
H334 C344 0.930 . S
H335 C345 0.930 . S
C336 H330 0.930 . S
C336 C337 1.355 . S
C336 C338 1.415 . S
C337 C336 1.355 . S
C337 C339 1.419 . S
C338 C336 1.415 . S
C338 C343 1.425 . S
C338 C345 1.409 . S
C339 H331 0.930 . S
C339 C337 1.419 . S
C339 C340 1.362 . S
C340 H332 0.930 . S
C340 C339 1.362 . S
C340 C343 1.409 . S
C341 H333 0.930 . S
C341 C342 1.355 . S
C341 C343 1.415 . S
C342 C341 1.355 . S
C342 C344 1.419 . S
C343 C338 1.425 . S
C343 C340 1.409 . S
C343 C341 1.415 . S
C344 H334 0.930 . S
C344 C342 1.419 . S
C344 C345 1.362 . S
C345 H335 0.930 . S
C345 C338 1.409 . S
C345 C344 1.362 . S
H346 C352 0.930 . S
H347 C355 0.930 . S
H348 C356 0.930 . S
H349 C357 0.930 . S
H350 C360 0.930 . S
H351 C361 0.930 . S
C352 H346 0.930 . S
C352 C353 1.355 . S
C352 C354 1.415 . S
C353 C352 1.355 . S
C353 C355 1.419 . S
C354 C352 1.415 . S
C354 C359 1.425 . S
C354 C361 1.409 . S
C355 H347 0.930 . S
C355 C353 1.419 . S
C355 C356 1.362 . S
C356 H348 0.930 . S
C356 C355 1.362 . S
C356 C359 1.409 . S
C357 H349 0.930 . S
C357 C358 1.355 . S
C357 C359 1.415 . S
C358 C357 1.355 . S
C358 C360 1.419 . S
C359 C354 1.425 . S
C359 C356 1.409 . S
C359 C357 1.415 . S
C360 H350 0.930 . S
C360 C358 1.419 . S
C360 C361 1.362 . S
C361 H351 0.930 . S
C361 C354 1.409 . S
C361 C360 1.362 . S
H362 C368 0.930 . S
H363 C371 0.930 . S
H364 C372 0.930 . S
H365 C373 0.930 . S
H366 C376 0.930 . S
H367 C377 0.930 . S
C368 H362 0.930 . S
C368 C369 1.355 . S
C368 C370 1.415 . S
C369 C368 1.355 . S
C369 C371 1.419 . S
C370 C368 1.415 . S
C370 C375 1.425 . S
C370 C377 1.409 . S
C371 H363 0.930 . S
C371 C369 1.419 . S
C371 C372 1.362 . S
C372 H364 0.930 . S
C372 C371 1.362 . S
C372 C375 1.409 . S
C373 H365 0.930 . S
C373 C374 1.355 . S
C373 C375 1.415 . S
C374 C373 1.355 . S
C374 C376 1.419 . S
C375 C370 1.425 . S
C375 C372 1.409 . S
C375 C373 1.415 . S
C376 H366 0.930 . S
C376 C374 1.419 . S
C376 C377 1.362 . S
C377 H367 0.930 . S
C377 C370 1.409 . S
C377 C376 1.362 . S
H378 C384 0.930 . S
H379 C387 0.930 . S
H380 C388 0.930 . S
H381 C389 0.930 1_655 S
H382 C392 0.930 . S
H383 C393 0.930 . S
C384 H378 0.930 . S
C384 C385 1.355 . S
C384 C386 1.415 . S
C385 C384 1.355 . S
C385 C387 1.419 1_455 S
C386 C384 1.415 . S
C386 C391 1.425 . S
C386 C393 1.409 . S
C387 H379 0.930 . S
C387 C385 1.419 1_655 S
C387 C388 1.362 . S
C388 H380 0.930 . S
C388 C387 1.362 . S
C388 C391 1.409 1_655 S
C389 H381 0.930 1_455 S
C389 C390 1.355 . S
C389 C391 1.415 1_556 S
C390 C389 1.355 . S
C390 C392 1.419 . S
C391 C386 1.425 . S
C391 C388 1.409 1_455 S
C391 C389 1.415 1_554 S
C392 H382 0.930 . S
C392 C390 1.419 . S
C392 C393 1.362 1_556 S
C393 H383 0.930 . S
C393 C386 1.409 . S
C393 C392 1.362 1_554 S
H394 C400 0.930 . S
H395 C403 0.930 . S
H396 C404 0.930 . S
H397 C405 0.930 . S
H398 C408 0.930 . S
H399 C409 0.930 . S
C400 H394 0.930 . S
C400 C401 1.355 . S
C400 C402 1.415 . S
C401 C400 1.355 . S
C401 C403 1.419 . S
C402 C400 1.415 . S
C402 C407 1.425 . S
C402 C409 1.409 . S
C403 H395 0.930 . S
C403 C401 1.419 . S
C403 C404 1.362 . S
C404 H396 0.930 . S
C404 C403 1.362 . S
C404 C407 1.409 . S
C405 H397 0.930 . S
C405 C406 1.355 . S
C405 C407 1.415 . S
C406 C405 1.355 . S
C406 C408 1.419 . S
C407 C402 1.425 . S
C407 C404 1.409 . S
C407 C405 1.415 . S
C408 H398 0.930 . S
C408 C406 1.419 . S
C408 C409 1.362 . S
C409 H399 0.930 . S
C409 C402 1.409 . S
C409 C408 1.362 . S
H410 C416 0.930 . S
H411 C419 0.930 . S
H412 C420 0.930 . S
H413 C421 0.930 . S
H414 C424 0.930 . S
H415 C425 0.930 . S
C416 H410 0.930 . S
C416 C417 1.355 . S
C416 C418 1.415 . S
C417 C416 1.355 . S
C417 C419 1.419 . S
C418 C416 1.415 . S
C418 C423 1.425 . S
C418 C425 1.409 . S
C419 H411 0.930 . S
C419 C417 1.419 . S
C419 C420 1.362 . S
C420 H412 0.930 . S
C420 C419 1.362 . S
C420 C423 1.409 . S
C421 H413 0.930 . S
C421 C422 1.355 . S
C421 C423 1.415 . S
C422 C421 1.355 . S
C422 C424 1.419 . S
C423 C418 1.425 . S
C423 C420 1.409 . S
C423 C421 1.415 . S
C424 H414 0.930 . S
C424 C422 1.419 . S
C424 C425 1.362 . S
C425 H415 0.930 . S
C425 C418 1.409 . S
C425 C424 1.362 . S
H426 C432 0.930 . S
H427 C435 0.930 . S
H428 C436 0.930 . S
H429 C437 0.930 . S
H430 C440 0.930 . S
H431 C441 0.930 . S
C432 H426 0.930 . S
C432 C433 1.355 . S
C432 C434 1.415 . S
C433 C432 1.355 . S
C433 C435 1.419 1_545 S
C434 C432 1.415 . S
C434 C439 1.425 . S
C434 C441 1.409 . S
C435 H427 0.930 . S
C435 C433 1.419 1_565 S
C435 C436 1.362 . S
C436 H428 0.930 . S
C436 C435 1.362 . S
C436 C439 1.409 1_565 S
C437 H429 0.930 . S
C437 C438 1.355 1_565 S
C437 C439 1.415 1_565 S
C438 C437 1.355 1_545 S
C438 C440 1.419 . S
C439 C434 1.425 . S
C439 C436 1.409 1_545 S
C439 C437 1.415 1_545 S
C440 H430 0.930 . S
C440 C438 1.419 . S
C440 C441 1.362 . S
C441 H431 0.930 . S
C441 C434 1.409 . S
C441 C440 1.362 . S
H442 C448 0.930 . S
H443 C451 0.930 . S
H444 C452 0.930 . S
H445 C453 0.930 . S
H446 C456 0.930 . S
H447 C457 0.930 . S
C448 H442 0.930 . S
C448 C449 1.355 . S
C448 C450 1.415 . S
C449 C448 1.355 . S
C449 C451 1.419 . S
C450 C448 1.415 . S
C450 C455 1.425 . S
C450 C457 1.409 . S
C451 H443 0.930 . S
C451 C449 1.419 . S
C451 C452 1.362 . S
C452 H444 0.930 . S
C452 C451 1.362 . S
C452 C455 1.409 . S
C453 H445 0.930 . S
C453 C454 1.355 . S
C453 C455 1.415 1_554 S
C454 C453 1.355 . S
C454 C456 1.419 . S
C455 C450 1.425 . S
C455 C452 1.409 . S
C455 C453 1.415 1_556 S
C456 H446 0.930 . S
C456 C454 1.419 . S
C456 C457 1.362 1_554 S
C457 H447 0.930 . S
C457 C450 1.409 . S
C457 C456 1.362 1_556 S
H458 C464 0.930 . S
H459 C467 0.930 . S
H460 C468 0.930 . S
H461 C469 0.930 . S
H462 C472 0.930 . S
H463 C473 0.930 . S
C464 H458 0.930 . S
C464 C465 1.355 . S
C464 C466 1.415 . S
C465 C464 1.355 . S
C465 C467 1.419 1_455 S
C466 C464 1.415 . S
C466 C471 1.425 . S
C466 C473 1.409 . S
C467 H459 0.930 . S
C467 C465 1.419 1_655 S
C467 C468 1.362 . S
C468 H460 0.930 . S
C468 C467 1.362 . S
C468 C471 1.409 1_655 S
C469 H461 0.930 . S
C469 C470 1.355 1_655 S
C469 C471 1.415 1_655 S
C470 C469 1.355 1_455 S
C470 C472 1.419 . S
C471 C466 1.425 . S
C471 C468 1.409 1_455 S
C471 C469 1.415 1_455 S
C472 H462 0.930 . S
C472 C470 1.419 . S
C472 C473 1.362 . S
C473 H463 0.930 . S
C473 C466 1.409 . S
C473 C472 1.362 . S
C193 C6 0.922 . S
C198 C185 0.885 . S
C209 C59 1.940 . S
C214 C163 1.870 . S
C225 C86 1.328 . S
C230 C174 1.323 . S
C241 C15 0.562 . S
C246 C179 0.336 . S
C262 C157 1.844 . S
C257 C50 1.897 . S
C278 C168 1.213 . S
C273 C95 1.175 . S
C289 C46 1.355 . S
C294 C141 1.343 . S
C305 C99 3.047 . S
C310 C146 3.006 1_655 S
C321 C10 1.885 . S
C326 C124 1.884 . S
C342 C135 1.196 . S
C337 C55 1.181 . S
C358 C152 3.008 . S
C353 C90 3.057 . S
C369 C19 1.941 . S
C374 C130 1.910 . S
C390 C147 1.745 . S
C385 C18 1.680 . S
C401 C49 1.437 . S
C406 C125 1.458 . S
C417 C98 1.514 . S
C422 C136 1.518 . S
C438 C169 1.489 . S
C433 C58 1.514 . S
C454 C180 1.254 . S
C449 C89 1.220 . S
C465 C9 1.344 . S
C470 C158 1.409 . S
