# Generated by pormake.
# Topology cml, (3,6)-cn, num edge types: 1
# Building blocks:
#     Node 0, Type 0, BuildingBlock: BETDAH_clean_linker_0, # of connection points: 3
#     Node 1, Type 0, BuildingBlock: BETDAH_clean_linker_0, # of connection points: 3
#     Node 2, Type 0, BuildingBlock: BETDAH_clean_linker_0, # of connection points: 3
#     Node 3, Type 0, BuildingBlock: BETDAH_clean_linker_0, # of connection points: 3
#     Node 4, Type 0, BuildingBlock: BETDAH_clean_linker_0, # of connection points: 3
#     Node 5, Type 0, BuildingBlock: BETDAH_clean_linker_0, # of connection points: 3
#     Node 6, Type 0, BuildingBlock: BETDAH_clean_linker_0, # of connection points: 3
#     Node 7, Type 0, BuildingBlock: BETDAH_clean_linker_0, # of connection points: 3
#     Node 8, Type 1, BuildingBlock: IZENUY_clean_sbu_0, # of connection points: 6
#     Node 9, Type 1, BuildingBlock: IZENUY_clean_sbu_0, # of connection points: 6
#     Node 10, Type 1, BuildingBlock: IZENUY_clean_sbu_0, # of connection points: 6
#     Node 11, Type 1, BuildingBlock: IZENUY_clean_sbu_0, # of connection points: 6
#     Edge 12, Type (0, 1), BuildingBlock: UVAHIK_clean_linker_0, # of connection points: 2
#     Edge 13, Type (0, 1), BuildingBlock: UVAHIK_clean_linker_0, # of connection points: 2
#     Edge 14, Type (0, 1), BuildingBlock: UVAHIK_clean_linker_0, # of connection points: 2
#     Edge 15, Type (0, 1), BuildingBlock: UVAHIK_clean_linker_0, # of connection points: 2
#     Edge 16, Type (0, 1), BuildingBlock: UVAHIK_clean_linker_0, # of connection points: 2
#     Edge 17, Type (0, 1), BuildingBlock: UVAHIK_clean_linker_0, # of connection points: 2
#     Edge 18, Type (0, 1), BuildingBlock: UVAHIK_clean_linker_0, # of connection points: 2
#     Edge 19, Type (0, 1), BuildingBlock: UVAHIK_clean_linker_0, # of connection points: 2
#     Edge 20, Type (0, 1), BuildingBlock: UVAHIK_clean_linker_0, # of connection points: 2
#     Edge 21, Type (0, 1), BuildingBlock: UVAHIK_clean_linker_0, # of connection points: 2
#     Edge 22, Type (0, 1), BuildingBlock: UVAHIK_clean_linker_0, # of connection points: 2
#     Edge 23, Type (0, 1), BuildingBlock: UVAHIK_clean_linker_0, # of connection points: 2
#     Edge 24, Type (0, 1), BuildingBlock: UVAHIK_clean_linker_0, # of connection points: 2
#     Edge 25, Type (0, 1), BuildingBlock: UVAHIK_clean_linker_0, # of connection points: 2
#     Edge 26, Type (0, 1), BuildingBlock: UVAHIK_clean_linker_0, # of connection points: 2
#     Edge 27, Type (0, 1), BuildingBlock: UVAHIK_clean_linker_0, # of connection points: 2
#     Edge 28, Type (0, 1), BuildingBlock: UVAHIK_clean_linker_0, # of connection points: 2
#     Edge 29, Type (0, 1), BuildingBlock: UVAHIK_clean_linker_0, # of connection points: 2
#     Edge 30, Type (0, 1), BuildingBlock: UVAHIK_clean_linker_0, # of connection points: 2
#     Edge 31, Type (0, 1), BuildingBlock: UVAHIK_clean_linker_0, # of connection points: 2
#     Edge 32, Type (0, 1), BuildingBlock: UVAHIK_clean_linker_0, # of connection points: 2
#     Edge 33, Type (0, 1), BuildingBlock: UVAHIK_clean_linker_0, # of connection points: 2
#     Edge 34, Type (0, 1), BuildingBlock: UVAHIK_clean_linker_0, # of connection points: 2
#     Edge 35, Type (0, 1), BuildingBlock: UVAHIK_clean_linker_0, # of connection points: 2
# Relax obj value: 0.003
# Max RMSD: 0.067
# Mean RMSD: 0.052
data_MOF--net-cml--node1-IZENUY_clean_sbu_0--node2-BETDAH_clean_linker_0--edge1-UVAHIK_clean_linker_0
_symmetry_space_group_name_H-M    P1
_symmetry_Int_Tables_number       1
_symmetry_cell_setting            triclinic
loop_
_symmetry_equiv_pos_as_xyz
'x, y, z'
_cell_length_a     48.016826
_cell_length_b     53.526853
_cell_length_c     47.011107
_cell_angle_alpha  89.428384
_cell_angle_beta   90.674312
_cell_angle_gamma 90.829871
loop_
_atom_site_label
_atom_site_type_symbol
_atom_site_fract_x
_atom_site_fract_y
_atom_site_fract_z
_atom_type_partial_charge
H0 H 0.3358 0.41308 0.01622 0.0
H1 H 0.28671 0.37851 0.94947 0.0
H2 H 0.30724 0.33709 0.02516 0.0
C3 C 0.32351 0.39747 0.00825 0.0
C4 C 0.3222 0.37534 0.02446 0.0
C5 C 0.31095 0.39897 0.98104 0.0
C6 C 0.29624 0.37794 0.97046 0.0
C7 C 0.29514 0.35564 0.9865 0.0
C8 C 0.30818 0.35448 0.01318 0.0
N9 N 0.28364 0.33323 0.97538 0.0
C10 C 0.25855 0.33142 0.96055 0.0
H11 H 0.68476 0.59753 0.53682 0.0
H12 H 0.70595 0.6265 0.4541 0.0
H13 H 0.72168 0.67102 0.52789 0.0
C14 C 0.69397 0.61207 0.52364 0.0
C15 C 0.70299 0.63459 0.5362 0.0
C16 C 0.695 0.60871 0.49404 0.0
C17 C 0.70609 0.62807 0.47706 0.0
C18 C 0.7164 0.65012 0.48927 0.0
C19 C 0.71492 0.65339 0.5188 0.0
N20 N 0.7243 0.67013 0.47106 0.0
C21 C 0.75062 0.68122 0.47145 0.0
H22 H 0.68271 0.419 0.02885 0.0
H23 H 0.74339 0.41563 0.96268 0.0
H24 H 0.75077 0.36764 0.0362 0.0
C25 C 0.70137 0.41096 0.02021 0.0
C26 C 0.71559 0.39252 0.03589 0.0
C27 C 0.71094 0.41926 0.99366 0.0
C28 C 0.7351 0.40878 0.98268 0.0
C29 C 0.74919 0.3899 0.99759 0.0
C30 C 0.73923 0.38147 0.02411 0.0
N31 N 0.77517 0.38219 0.98705 0.0
C32 C 0.78307 0.35748 0.98423 0.0
H33 H 0.33947 0.58746 0.52596 0.0
H34 H 0.26998 0.6375 0.52491 0.0
H35 H 0.27796 0.583 0.45901 0.0
C36 C 0.3205 0.59418 0.51598 0.0
C37 C 0.31062 0.58301 0.49091 0.0
C38 C 0.30601 0.61388 0.52837 0.0
C39 C 0.2813 0.62241 0.51538 0.0
C40 C 0.27135 0.61129 0.49014 0.0
C41 C 0.286 0.59166 0.47824 0.0
N42 N 0.24647 0.61882 0.47623 0.0
C43 C 0.23269 0.64098 0.48099 0.0
H44 H 0.82472 0.90295 0.04681 0.0
H45 H 0.80305 0.87138 0.96546 0.0
H46 H 0.79926 0.82578 0.04062 0.0
C47 C 0.81706 0.88741 0.03425 0.0
C48 C 0.81226 0.86415 0.04759 0.0
C49 C 0.81411 0.8904 0.00458 0.0
C50 C 0.80447 0.86996 0.98843 0.0
C51 C 0.79868 0.84689 0.00161 0.0
C52 C 0.80272 0.84401 0.03098 0.0
N53 N 0.79336 0.82553 0.98488 0.0
C54 C 0.76692 0.81932 0.97479 0.0
H55 H 0.17873 0.09269 0.53001 0.0
H56 H 0.23321 0.12776 0.46871 0.0
H57 H 0.21275 0.16595 0.54547 0.0
C58 C 0.19232 0.10806 0.52372 0.0
C59 C 0.19457 0.12904 0.54127 0.0
C60 C 0.20608 0.1073 0.49745 0.0
C61 C 0.22265 0.12797 0.48893 0.0
C62 C 0.22493 0.14915 0.5064 0.0
C63 C 0.21077 0.14954 0.53223 0.0
N64 N 0.24016 0.17098 0.49846 0.0
C65 C 0.26158 0.17225 0.47887 0.0
H66 H 0.17853 0.90869 0.02384 0.0
H67 H 0.25278 0.90915 0.97363 0.0
H68 H 0.25081 0.86861 0.05293 0.0
C69 C 0.19963 0.90243 0.02061 0.0
C70 C 0.21274 0.88755 0.04147 0.0
C71 C 0.21389 0.9104 0.99622 0.0
C72 C 0.24132 0.90261 0.99205 0.0
C73 C 0.25425 0.88687 0.01213 0.0
C74 C 0.24007 0.87961 0.03686 0.0
N75 N 0.28267 0.88089 0.00939 0.0
C76 C 0.2914 0.86148 0.99242 0.0
H77 H 0.82698 0.08387 0.53398 0.0
H78 H 0.80773 0.16233 0.5335 0.0
H79 H 0.81463 0.12366 0.45496 0.0
C80 C 0.8217 0.10083 0.52257 0.0
C81 C 0.82158 0.10086 0.49264 0.0
C82 C 0.81694 0.12288 0.53785 0.0
C83 C 0.81039 0.14482 0.52258 0.0
C84 C 0.80931 0.14483 0.49282 0.0
C85 C 0.81489 0.12302 0.47801 0.0
N86 N 0.80622 0.16745 0.47751 0.0
C87 C 0.78056 0.17867 0.47431 0.0
Fe88 Fe 0.01938 0.83741 0.33245 0.0
Fe89 Fe 0.02034 0.86928 0.38654 0.0
O90 O 0.01928 0.86707 0.34894 0.0
Fe91 Fe 0.01788 0.89452 0.32766 0.0
O92 O 0.98473 0.88494 0.31194 0.0
O93 O 0.99776 0.84692 0.30185 0.0
O94 O 0.98742 0.82802 0.34992 0.0
C95 C 0.98362 0.8281 0.37643 0.0
C96 C 0.05418 0.86351 0.29715 0.0
O97 O 0.99971 0.8405 0.39278 0.0
C98 C 0.05603 0.90903 0.36807 0.0
O99 O 0.0407 0.82235 0.36017 0.0
O100 O 0.05304 0.85279 0.38886 0.0
O101 O 0.03745 0.88154 0.29822 0.0
O102 O 0.05142 0.84486 0.31361 0.0
C103 C 0.98295 0.9059 0.37367 0.0
O104 O 0.04113 0.89846 0.38692 0.0
O105 O 0.05081 0.90598 0.34196 0.0
C106 C 0.05668 0.8312 0.37928 0.0
O107 O 0.98765 0.88591 0.38714 0.0
O108 O 0.9982 0.91263 0.35316 0.0
C109 C 0.98083 0.86471 0.29883 0.0
Fe110 Fe 1.00062 0.13364 0.88571 0.0
Fe111 Fe 0.99461 0.10493 0.8298 0.0
O112 O 0.99634 0.13363 0.84818 0.0
Fe113 Fe 0.99372 0.16209 0.82885 0.0
O114 O 0.02749 0.17275 0.84163 0.0
O115 O 0.02151 0.16277 0.88666 0.0
O116 O 0.03326 0.11677 0.88385 0.0
C117 C 0.03537 0.0956 0.87253 0.0
C118 C 0.96227 0.17083 0.87852 0.0
O119 O 0.01714 0.08802 0.85489 0.0
C120 C 0.95481 0.13409 0.80031 0.0
O121 O 0.98017 0.1046 0.8913 0.0
O122 O 0.96358 0.09541 0.84878 0.0
O123 O 0.97546 0.17869 0.85695 0.0
O124 O 0.96843 0.15039 0.89045 0.0
C125 C 0.0279 0.13225 0.79426 0.0
O126 O 0.97168 0.11618 0.80119 0.0
O127 O 0.9596 0.15351 0.81459 0.0
C128 C 0.96219 0.09373 0.87551 0.0
O129 O 0.02554 0.11291 0.80971 0.0
O130 O 0.01168 0.15052 0.79731 0.0
C131 C 0.03465 0.17458 0.8674 0.0
Fe132 Fe 0.51904 0.33142 0.31831 0.0
Fe133 Fe 0.5145 0.35844 0.37535 0.0
O134 O 0.51672 0.35953 0.33776 0.0
Fe135 Fe 0.51654 0.38873 0.31977 0.0
O136 O 0.48547 0.38025 0.29971 0.0
O137 O 0.49938 0.34302 0.28723 0.0
O138 O 0.48608 0.31991 0.33215 0.0
C139 C 0.48088 0.31718 0.35821 0.0
C140 C 0.55596 0.3609 0.28888 0.0
O141 O 0.49555 0.32835 0.37683 0.0
C142 C 0.54951 0.40075 0.36532 0.0
O143 O 0.53926 0.31485 0.34602 0.0
O144 O 0.54784 0.34342 0.37839 0.0
O145 O 0.53941 0.37898 0.29103 0.0
O146 O 0.55205 0.3409 0.30279 0.0
C147 C 0.47685 0.39474 0.36353 0.0
O148 O 0.53302 0.3883 0.38101 0.0
O149 O 0.54768 0.39931 0.33862 0.0
C150 C 0.55373 0.32309 0.36675 0.0
O151 O 0.48101 0.37357 0.37468 0.0
O152 O 0.4935 0.40377 0.34525 0.0
C153 C 0.48303 0.36126 0.28419 0.0
Fe154 Fe 0.49734 0.64024 0.87153 0.0
Fe155 Fe 0.49901 0.61352 0.81387 0.0
O156 O 0.49838 0.64146 0.83381 0.0
Fe157 Fe 0.49894 0.67077 0.81585 0.0
O158 O 0.5313 0.67974 0.83329 0.0
O159 O 0.51869 0.66879 0.87655 0.0
O160 O 0.5295 0.62289 0.87382 0.0
C161 C 0.53405 0.60262 0.86136 0.0
C162 C 0.46168 0.67879 0.86118 0.0
O163 O 0.51907 0.59575 0.84044 0.0
C164 C 0.4627 0.64467 0.78183 0.0
O165 O 0.47592 0.61147 0.87317 0.0
O166 O 0.46621 0.60271 0.82847 0.0
O167 O 0.47819 0.68694 0.84234 0.0
O168 O 0.46505 0.65748 0.87227 0.0
C169 C 0.53626 0.6421 0.78379 0.0
O170 O 0.47884 0.62617 0.78367 0.0
O171 O 0.46659 0.66361 0.79721 0.0
C172 C 0.46105 0.60035 0.85461 0.0
O173 O 0.53203 0.62223 0.7978 0.0
O174 O 0.51987 0.66028 0.78592 0.0
C175 C 0.53514 0.68032 0.85986 0.0
C176 C 0.21053 0.31637 0.96592 0.0
C177 C 0.23235 0.32364 0.94805 0.0
C178 C 0.18712 0.30388 0.95487 0.0
C179 C 0.16756 0.26348 0.89459 0.0
H180 H 0.09374 0.26797 0.92654 0.0
C181 C 0.0737 0.204 0.85429 0.0
C182 C 0.05697 0.19273 0.87534 0.0
C183 C 0.09415 0.22172 0.86161 0.0
C184 C 0.1143 0.26643 0.91753 0.0
H185 H 0.24692 0.32472 0.90472 0.0
H186 H 0.20555 0.30349 0.88498 0.0
H187 H 0.13006 0.29775 0.94099 0.0
H188 H 0.0488 0.19125 0.92063 0.0
H189 H 0.08451 0.22221 0.93333 0.0
H190 H 0.15176 0.23208 0.87123 0.0
C191 C 0.20655 0.30701 0.90761 0.0
C192 C 0.13512 0.2835 0.92578 0.0
C193 C 0.23005 0.31943 0.91877 0.0
C194 C 0.0613 0.19953 0.90388 0.0
C195 C 0.08161 0.21742 0.91115 0.0
C196 C 0.14668 0.24654 0.88619 0.0
C197 C 0.18516 0.29841 0.92567 0.0
C198 C 0.16216 0.28201 0.91475 0.0
C199 C 0.09822 0.22875 0.89009 0.0
C200 C 0.11994 0.24759 0.89789 0.0
H201 H 0.21221 0.31915 0.98869 0.0
H202 H 0.17133 0.29729 0.96952 0.0
H203 H 0.18822 0.26141 0.88601 0.0
H204 H 0.07096 0.19919 0.8321 0.0
H205 H 0.10652 0.23022 0.84488 0.0
C206 C 0.78959 0.70925 0.48615 0.0
C207 C 0.77713 0.69326 0.46616 0.0
C208 C 0.81408 0.72251 0.47939 0.0
C209 C 0.87193 0.725 0.42697 0.0
H210 H 0.87715 0.79477 0.44806 0.0
C211 C 0.94637 0.79497 0.37164 0.0
C212 C 0.96129 0.81204 0.38877 0.0
C213 C 0.92545 0.77972 0.38324 0.0
C214 C 0.87617 0.77523 0.4423 0.0
H215 H 0.77994 0.67818 0.42384 0.0
H216 H 0.82228 0.7014 0.41174 0.0
H217 H 0.83828 0.76904 0.46503 0.0
H218 H 0.96563 0.82655 0.43156 0.0
H219 H 0.92892 0.79996 0.45173 0.0
H220 H 0.90941 0.73143 0.40359 0.0
C221 C 0.81383 0.70351 0.43282 0.0
C222 C 0.85393 0.76043 0.4521 0.0
C223 C 0.7895 0.69028 0.43964 0.0
C224 C 0.95462 0.81357 0.41776 0.0
C225 C 0.9335 0.79844 0.42931 0.0
C226 C 0.89402 0.73983 0.41703 0.0
C227 C 0.82634 0.72 0.45247 0.0
C228 C 0.85129 0.7352 0.44421 0.0
C229 C 0.91875 0.78127 0.41219 0.0
C230 C 0.8962 0.7652 0.42425 0.0
H231 H 0.78017 0.71184 0.50672 0.0
H232 H 0.8233 0.73482 0.49515 0.0
H233 H 0.87093 0.70553 0.42094 0.0
H234 H 0.95088 0.79331 0.34922 0.0
H235 H 0.91421 0.76692 0.3694 0.0
C236 C 0.80391 0.31634 0.99562 0.0
C237 C 0.795 0.33418 0.97563 0.0
C238 C 0.81851 0.29532 0.98674 0.0
C239 C 0.83717 0.25971 0.92157 0.0
H240 H 0.90162 0.24027 0.96658 0.0
C241 C 0.92933 0.20663 0.87493 0.0
C242 C 0.94055 0.18675 0.8909 0.0
C243 C 0.90913 0.22195 0.8865 0.0
C244 C 0.88348 0.24526 0.95396 0.0
H245 H 0.79385 0.34442 0.93105 0.0
H246 H 0.81957 0.30827 0.91549 0.0
H247 H 0.87008 0.27152 0.9848 0.0
H248 H 0.93917 0.16736 0.93163 0.0
H249 H 0.90412 0.1945 0.952 0.0
H250 H 0.85132 0.23417 0.89023 0.0
C251 C 0.8149 0.3098 0.93787 0.0
C252 C 0.8653 0.26312 0.96443 0.0
C253 C 0.80026 0.33062 0.94675 0.0
C254 C 0.93097 0.18251 0.91874 0.0
C255 C 0.91099 0.19809 0.93047 0.0
C256 C 0.8555 0.24209 0.91099 0.0
C257 C 0.82457 0.29198 0.95774 0.0
C258 C 0.84217 0.27095 0.94813 0.0
C259 C 0.89985 0.21797 0.91444 0.0
C260 C 0.87911 0.23498 0.92684 0.0
H261 H 0.80018 0.31893 0.01808 0.0
H262 H 0.82533 0.28188 0.00261 0.0
H263 H 0.81926 0.26478 0.90867 0.0
H264 H 0.93613 0.21038 0.8534 0.0
H265 H 0.90116 0.23727 0.87373 0.0
C266 C 0.22739 0.68675 0.48355 0.0
C267 C 0.21558 0.66281 0.48073 0.0
C268 C 0.21102 0.7079 0.47886 0.0
C269 C 0.13713 0.72777 0.4683 0.0
H270 H 0.17001 0.77984 0.42093 0.0
C271 C 0.07357 0.78853 0.39159 0.0
C272 C 0.077 0.81458 0.3935 0.0
C273 C 0.09139 0.77258 0.40641 0.0
C274 C 0.1607 0.76562 0.43451 0.0
H275 H 0.17794 0.64168 0.47151 0.0
H276 H 0.14943 0.67823 0.46283 0.0
H277 H 0.19945 0.74707 0.44099 0.0
H278 H 0.10232 0.84433 0.41185 0.0
H279 H 0.13426 0.81612 0.43718 0.0
H280 H 0.09811 0.74556 0.46023 0.0
C281 C 0.17094 0.68109 0.46932 0.0
C282 C 0.17753 0.74689 0.44614 0.0
C283 C 0.18725 0.66009 0.47415 0.0
C284 C 0.09914 0.82433 0.41004 0.0
C285 C 0.11739 0.80827 0.42448 0.0
C286 C 0.1203 0.74623 0.45633 0.0
C287 C 0.18269 0.7053 0.47108 0.0
C288 C 0.1658 0.72732 0.46253 0.0
C289 C 0.11335 0.78227 0.42309 0.0
C290 C 0.13183 0.76493 0.43877 0.0
H291 H 0.24938 0.68909 0.48843 0.0
H292 H 0.22067 0.72622 0.48072 0.0
H293 H 0.12747 0.7134 0.4814 0.0
H294 H 0.05667 0.7804 0.37915 0.0
H295 H 0.08808 0.75257 0.40476 0.0
C296 C 0.73545 0.8109 0.93427 0.0
C297 C 0.74081 0.80992 0.96359 0.0
C298 C 0.71173 0.79908 0.92289 0.0
C299 C 0.64308 0.77106 0.94157 0.0
H300 H 0.65443 0.73182 0.87389 0.0
C301 C 0.56236 0.69784 0.90126 0.0
C302 C 0.55791 0.69626 0.87171 0.0
C303 C 0.58386 0.71288 0.91234 0.0
C304 C 0.65077 0.74293 0.89257 0.0
H305 H 0.72595 0.79653 0.00428 0.0
H306 H 0.68439 0.7757 0.98452 0.0
H307 H 0.69273 0.75685 0.89329 0.0
H308 H 0.57266 0.70941 0.83065 0.0
H309 H 0.60987 0.73577 0.84996 0.0
H310 H 0.60111 0.75692 0.94093 0.0
C311 C 0.69815 0.78582 0.97025 0.0
C312 C 0.67274 0.75733 0.90369 0.0
C313 C 0.72191 0.79764 0.98158 0.0
C314 C 0.57548 0.71011 0.85351 0.0
C315 C 0.59695 0.72514 0.86459 0.0
C316 C 0.62106 0.75666 0.93042 0.0
C317 C 0.69305 0.78599 0.94069 0.0
C318 C 0.66921 0.77151 0.92837 0.0
C319 C 0.60145 0.72669 0.89413 0.0
C320 C 0.62467 0.74235 0.90583 0.0
H321 H 0.74996 0.82024 0.92008 0.0
H322 H 0.70821 0.79988 0.9001 0.0
H323 H 0.63958 0.78198 0.96043 0.0
H324 H 0.5493 0.68736 0.91591 0.0
H325 H 0.58698 0.71337 0.93518 0.0
C326 C 0.31106 0.18336 0.47574 0.0
C327 C 0.2855 0.17887 0.46199 0.0
C328 C 0.33324 0.19429 0.46094 0.0
C329 C 0.34632 0.2352 0.39859 0.0
H330 H 0.42351 0.22275 0.41853 0.0
C331 C 0.43919 0.28963 0.34776 0.0
C332 C 0.45904 0.29902 0.36732 0.0
C333 C 0.41853 0.27262 0.35659 0.0
C334 C 0.40203 0.22645 0.41277 0.0
H335 H 0.26284 0.18131 0.42209 0.0
H336 H 0.30192 0.1998 0.39568 0.0
H337 H 0.38692 0.19562 0.43775 0.0
H338 H 0.47281 0.29766 0.41144 0.0
H339 H 0.43698 0.26789 0.42667 0.0
H340 H 0.36162 0.26612 0.37367 0.0
C341 C 0.30486 0.19529 0.41801 0.0
C342 C 0.38103 0.21094 0.42382 0.0
C343 C 0.28259 0.18444 0.43295 0.0
C344 C 0.45786 0.29085 0.39581 0.0
C345 C 0.43745 0.27364 0.40452 0.0
C346 C 0.36738 0.25055 0.3873 0.0
C347 C 0.33027 0.20095 0.43201 0.0
C348 C 0.35283 0.21544 0.41742 0.0
C349 C 0.41751 0.26438 0.38506 0.0
C350 C 0.3954 0.24667 0.39478 0.0
H351 H 0.3135 0.17954 0.49831 0.0
H352 H 0.35221 0.19869 0.47264 0.0
H353 H 0.32488 0.23953 0.39346 0.0
H354 H 0.43947 0.29558 0.32568 0.0
H355 H 0.40347 0.26574 0.34111 0.0
C356 C 0.30562 0.81762 0.98841 0.0
C357 C 0.30337 0.84156 0.97636 0.0
C358 C 0.31994 0.79896 0.97419 0.0
C359 C 0.37508 0.79202 0.92111 0.0
H360 H 0.35169 0.72237 0.92113 0.0
C361 C 0.43546 0.71888 0.85895 0.0
C362 C 0.44028 0.69573 0.87239 0.0
C363 C 0.41674 0.73574 0.8703 0.0
C364 C 0.35863 0.74171 0.92116 0.0
H365 H 0.31339 0.86499 0.94009 0.0
H366 H 0.33817 0.83238 0.9149 0.0
H367 H 0.32221 0.75353 0.943 0.0
H368 H 0.42843 0.67187 0.90795 0.0
H369 H 0.396 0.70152 0.92801 0.0
H370 H 0.41162 0.78033 0.89972 0.0
C371 C 0.32923 0.82794 0.93542 0.0
C372 C 0.34171 0.75957 0.93366 0.0
C373 C 0.31489 0.84655 0.94965 0.0
C374 C 0.42525 0.68955 0.89705 0.0
C375 C 0.40654 0.70651 0.90849 0.0
C376 C 0.39197 0.77421 0.90869 0.0
C377 C 0.33237 0.80403 0.94774 0.0
C378 C 0.34975 0.78496 0.93377 0.0
C379 C 0.40238 0.72998 0.89547 0.0
C380 C 0.38399 0.74882 0.90852 0.0
H381 H 0.29701 0.81354 0.00918 0.0
H382 H 0.32219 0.78088 0.98444 0.0
H383 H 0.38224 0.8113 0.92134 0.0
H384 H 0.44638 0.72417 0.83974 0.0
H385 H 0.41362 0.75339 0.85935 0.0
C386 C 0.73707 0.1818 0.44671 0.0
C387 C 0.75481 0.19105 0.46808 0.0
C388 C 0.71359 0.19522 0.43827 0.0
C389 C 0.6878 0.25947 0.43655 0.0
H390 H 0.61763 0.22773 0.41514 0.0
C391 C 0.59173 0.31632 0.40282 0.0
C392 C 0.57614 0.30765 0.37932 0.0
C393 C 0.61261 0.3017 0.41504 0.0
C394 C 0.63719 0.23682 0.42081 0.0
H395 H 0.7622 0.22079 0.49813 0.0
H396 H 0.72084 0.24429 0.48375 0.0
H397 H 0.65511 0.20249 0.43528 0.0
H398 H 0.57042 0.27677 0.35016 0.0
H399 H 0.60712 0.25135 0.37134 0.0
H400 H 0.67007 0.29373 0.42184 0.0
C401 C 0.72509 0.22687 0.47321 0.0
C402 C 0.65862 0.22238 0.43239 0.0
C403 C 0.74857 0.21342 0.4816 0.0
C404 C 0.58198 0.284 0.36827 0.0
C405 C 0.60288 0.26935 0.38054 0.0
C406 C 0.6664 0.27389 0.425 0.0
C407 C 0.70762 0.21815 0.45108 0.0
C408 C 0.68422 0.23354 0.44025 0.0
C409 C 0.61843 0.27806 0.40404 0.0
C410 C 0.64091 0.26271 0.41685 0.0
H411 H 0.74182 0.16459 0.43593 0.0
H412 H 0.70077 0.18812 0.42097 0.0
H413 H 0.70744 0.26858 0.44187 0.0
H414 H 0.58777 0.33443 0.41194 0.0
H415 H 0.624 0.30882 0.43332 0.0
C416 C 0.32282 0.41939 0.93415 0.0
C417 C 0.31605 0.42164 0.96303 0.0
C418 C 0.33257 0.44012 0.91863 0.0
C419 C 0.3438 0.50968 0.92193 0.0
H420 H 0.40655 0.4953 0.87389 0.0
C421 C 0.42997 0.58181 0.89211 0.0
C422 C 0.43932 0.58214 0.86386 0.0
C423 C 0.4108 0.56362 0.9013 0.0
C424 C 0.38883 0.49962 0.88691 0.0
H425 H 0.31191 0.44801 0.99742 0.0
H426 H 0.32998 0.4837 0.97093 0.0
H427 H 0.37966 0.46103 0.8946 0.0
H428 H 0.43525 0.5639 0.82296 0.0
H429 H 0.40216 0.53191 0.83922 0.0
H430 H 0.35418 0.5484 0.91522 0.0
C431 C 0.32755 0.46609 0.96 0.0
C432 C 0.37323 0.47994 0.89872 0.0
C433 C 0.31748 0.44546 0.97538 0.0
C434 C 0.42854 0.56419 0.84487 0.0
C435 C 0.40967 0.5458 0.85418 0.0
C436 C 0.35968 0.52936 0.91041 0.0
C437 C 0.33607 0.46356 0.93165 0.0
C438 C 0.35071 0.48465 0.91673 0.0
C439 C 0.40082 0.54517 0.88256 0.0
C440 C 0.38256 0.52451 0.89306 0.0
H441 H 0.32207 0.40137 0.92389 0.0
H442 H 0.33822 0.43753 0.89664 0.0
H443 H 0.32632 0.51412 0.93521 0.0
H444 H 0.43775 0.59543 0.90725 0.0
H445 H 0.40451 0.56348 0.92336 0.0
C446 C 0.69407 0.57535 0.45641 0.0
C447 C 0.68234 0.586 0.48069 0.0
C448 C 0.68127 0.55478 0.4432 0.0
C449 C 0.6129 0.52119 0.43904 0.0
H450 H 0.65579 0.46876 0.40479 0.0
C451 C 0.56361 0.42741 0.40657 0.0
C452 C 0.5679 0.42005 0.37834 0.0
C453 C 0.57911 0.44707 0.41831 0.0
C454 C 0.64362 0.48339 0.41414 0.0
H455 H 0.64773 0.58308 0.50995 0.0
H456 H 0.62655 0.54666 0.48811 0.0
H457 H 0.67994 0.50417 0.42716 0.0
H458 H 0.59273 0.42693 0.34072 0.0
H459 H 0.62032 0.46116 0.36166 0.0
H460 H 0.57667 0.49998 0.42678 0.0
C461 C 0.64523 0.55453 0.47872 0.0
C462 C 0.65739 0.50373 0.42685 0.0
C463 C 0.65777 0.57523 0.49165 0.0
C464 C 0.58885 0.43222 0.36248 0.0
C465 C 0.6047 0.45172 0.37445 0.0
C466 C 0.59923 0.50074 0.42676 0.0
C467 C 0.65654 0.54421 0.45407 0.0
C468 C 0.64219 0.52281 0.4397 0.0
C469 C 0.59955 0.45962 0.40228 0.0
C470 C 0.61443 0.48157 0.41438 0.0
H471 H 0.71313 0.58295 0.44752 0.0
H472 H 0.69051 0.54751 0.42414 0.0
H473 H 0.6004 0.5358 0.44793 0.0
H474 H 0.54768 0.41846 0.41942 0.0
H475 H 0.57495 0.45265 0.43992 0.0
C476 C 0.68989 0.43715 0.94883 0.0
C477 C 0.69607 0.43939 0.97799 0.0
C478 C 0.67458 0.45556 0.93453 0.0
C479 C 0.65308 0.52141 0.93863 0.0
H480 H 0.59073 0.4998 0.8914 0.0
C481 C 0.56765 0.58928 0.89983 0.0
C482 C 0.55543 0.5854 0.87289 0.0
C483 C 0.58659 0.57215 0.91125 0.0
C484 C 0.60833 0.50623 0.90409 0.0
H485 H 0.69198 0.4631 0.01478 0.0
H486 H 0.66529 0.4952 0.98987 0.0
H487 H 0.621 0.46879 0.91332 0.0
H488 H 0.55442 0.56093 0.83635 0.0
H489 H 0.58787 0.53148 0.85591 0.0
H490 H 0.64052 0.55885 0.92938 0.0
C491 C 0.67222 0.47922 0.97804 0.0
C492 C 0.62566 0.48841 0.9167 0.0
C493 C 0.68727 0.46073 0.99237 0.0
C494 C 0.56319 0.56437 0.85732 0.0
C495 C 0.58228 0.54737 0.86862 0.0
C496 C 0.63588 0.53927 0.92583 0.0
C497 C 0.66544 0.47673 0.94904 0.0
C498 C 0.64806 0.49578 0.93433 0.0
C499 C 0.59397 0.55083 0.8959 0.0
C500 C 0.6131 0.53192 0.90859 0.0
H501 H 0.69632 0.42086 0.93723 0.0
H502 H 0.66986 0.45323 0.91212 0.0
H503 H 0.6704 0.52767 0.95183 0.0
H504 H 0.5621 0.60524 0.91244 0.0
H505 H 0.59486 0.57531 0.93246 0.0
C506 C 0.33155 0.5626 0.4487 0.0
C507 C 0.32589 0.56223 0.47793 0.0
C508 C 0.34587 0.54301 0.43636 0.0
C509 C 0.39188 0.48991 0.45464 0.0
H510 H 0.37353 0.46954 0.37763 0.0
C511 C 0.44341 0.40566 0.40189 0.0
C512 C 0.45511 0.41092 0.37517 0.0
C513 C 0.42527 0.4225 0.41426 0.0
C514 C 0.37887 0.47508 0.39913 0.0
H515 H 0.33026 0.54098 0.51712 0.0
H516 H 0.35466 0.5064 0.49554 0.0
H517 H 0.3465 0.50206 0.4 0.0
H518 H 0.45587 0.43735 0.33988 0.0
H519 H 0.42387 0.46653 0.36135 0.0
H520 H 0.42408 0.46267 0.45373 0.0
C521 C 0.34872 0.52209 0.48219 0.0
C522 C 0.36352 0.49381 0.41193 0.0
C523 C 0.33468 0.54184 0.49459 0.0
C524 C 0.4473 0.43281 0.36055 0.0
C525 C 0.42889 0.44947 0.37276 0.0
C526 C 0.40698 0.47099 0.44195 0.0
C527 C 0.35457 0.52245 0.45292 0.0
C528 C 0.37004 0.50169 0.43974 0.0
C529 C 0.41816 0.44473 0.39997 0.0
C530 C 0.40082 0.46358 0.41398 0.0
H531 H 0.32527 0.57825 0.43545 0.0
H532 H 0.35049 0.54423 0.4139 0.0
H533 H 0.39785 0.49573 0.47587 0.0
H534 H 0.449 0.38897 0.41372 0.0
H535 H 0.41707 0.4183 0.43516 0.0
C536 C 0.84777 0.92661 0.00106 0.0
C537 C 0.82398 0.91394 0.99046 0.0
C538 C 0.85759 0.94841 0.98795 0.0
C539 C 0.86252 0.98015 0.92031 0.0
H540 H 0.88289 0.03767 0.96601 0.0
C541 C 0.91968 0.06606 0.87179 0.0
C542 C 0.94151 0.07632 0.88833 0.0
C543 C 0.90108 0.04857 0.88355 0.0
C544 C 0.87753 0.02172 0.95294 0.0
H545 H 0.79214 0.91442 0.9573 0.0
H546 H 0.81019 0.95228 0.93366 0.0
H547 H 0.85799 0.00247 0.98771 0.0
H548 H 0.9606 0.07652 0.93038 0.0
H549 H 0.92882 0.04567 0.95063 0.0
H550 H 0.88331 0.99867 0.88589 0.0
C551 C 0.82077 0.94527 0.95252 0.0
C552 C 0.8631 1.00166 0.96535 0.0
C553 C 0.81056 0.92357 0.96599 0.0
C554 C 0.94397 0.06909 0.91705 0.0
C555 C 0.92555 0.05147 0.92873 0.0
C556 C 0.87728 1.00011 0.90793 0.0
C557 C 0.8443 0.95792 0.96354 0.0
C558 C 0.85599 0.98047 0.94932 0.0
C559 C 0.90398 0.04082 0.9121 0.0
C560 C 0.88555 0.0209 0.92428 0.0
H561 H 0.85936 0.91943 0.01918 0.0
H562 H 0.87614 0.95749 0.9965 0.0
H563 H 0.85746 0.96392 0.90756 0.0
H564 H 0.91704 0.0714 0.84964 0.0
H565 H 0.88448 0.04108 0.87023 0.0
C566 C 0.19486 0.08883 0.44953 0.0
C567 C 0.20112 0.08545 0.47859 0.0
C568 C 0.1853 0.06869 0.43309 0.0
C569 C 0.17456 0.99902 0.43434 0.0
H570 H 0.11115 0.01438 0.38576 0.0
C571 C 0.08794 0.92757 0.40506 0.0
C572 C 0.07783 0.92738 0.37688 0.0
C573 C 0.10731 0.94572 0.41389 0.0
C574 C 0.12908 0.0098 0.3989 0.0
H575 H 0.20451 0.05789 0.51251 0.0
H576 H 0.18707 0.02318 0.48438 0.0
H577 H 0.13826 0.04825 0.40708 0.0
H578 H 0.08064 0.94587 0.33569 0.0
H579 H 0.11413 0.97789 0.35135 0.0
H580 H 0.16424 0.96045 0.42722 0.0
C581 C 0.18968 0.04119 0.47399 0.0
C582 C 0.14477 0.02925 0.41106 0.0
C583 C 0.19941 0.06121 0.49029 0.0
C584 C 0.08799 0.94548 0.35756 0.0
C585 C 0.10707 0.96388 0.36652 0.0
C586 C 0.15863 0.97958 0.42246 0.0
C587 C 0.18168 0.04476 0.44536 0.0
C588 C 0.1674 0.02414 0.42944 0.0
C589 C 0.11676 0.9643 0.39484 0.0
C590 C 0.13543 0.98478 0.40504 0.0
H591 H 0.19591 0.10725 0.43984 0.0
H592 H 0.17992 0.07208 0.41097 0.0
H593 H 0.19218 0.9943 0.44784 0.0
H594 H 0.08065 0.91382 0.42043 0.0
H595 H 0.11422 0.94571 0.43591 0.0
C596 C 0.17523 0.92237 0.96314 0.0
C597 C 0.2004 0.92863 0.97685 0.0
C598 C 0.15978 0.9407 0.94897 0.0
C599 C 0.16147 0.00746 0.92371 0.0
H600 H 0.08147 0.99995 0.93152 0.0
C601 C 0.07964 0.08558 0.89967 0.0
C602 C 0.05691 0.07783 0.8826 0.0
C603 C 0.09906 0.06814 0.9098 0.0
C604 C 0.10377 0.00225 0.92905 0.0
H605 H 0.22966 0.95862 0.98612 0.0
H606 H 0.20234 0.99096 0.9622 0.0
H607 H 0.11184 0.96791 0.95075 0.0
H608 H 0.03714 0.04567 0.86245 0.0
H609 H 0.0705 0.01556 0.8805 0.0
H610 H 0.15292 0.04246 0.90275 0.0
C611 C 0.19474 0.97184 0.96156 0.0
C612 C 0.12127 0.98375 0.93985 0.0
C613 C 0.21045 0.95334 0.9753 0.0
C614 C 0.05431 0.05239 0.87558 0.0
C615 C 0.07337 0.03504 0.88599 0.0
C616 C 0.14388 0.02622 0.91324 0.0
C617 C 0.16879 0.96588 0.94883 0.0
C618 C 0.15038 0.98588 0.93708 0.0
C619 C 0.09578 0.04265 0.90341 0.0
C620 C 0.11484 0.02363 0.91557 0.0
H621 H 0.16711 0.90339 0.96413 0.0
H622 H 0.14038 0.93516 0.93873 0.0
H623 H 0.18371 0.00974 0.92091 0.0
H624 H 0.08232 0.10503 0.90536 0.0
H625 H 0.11615 0.07446 0.92327 0.0
C626 C 0.84917 0.08243 0.45325 0.0
C627 C 0.8319 0.07884 0.47694 0.0
C628 C 0.86192 0.06224 0.44054 0.0
C629 C 0.86347 0.99291 0.43682 0.0
H630 H 0.94023 0.00642 0.41615 0.0
C631 C 0.94508 0.91745 0.40756 0.0
C632 C 0.96166 0.92334 0.38386 0.0
C633 C 0.92653 0.93497 0.41811 0.0
C634 C 0.91875 0.0024 0.42159 0.0
H635 H 0.81321 0.05073 0.50463 0.0
H636 H 0.83654 0.01551 0.48314 0.0
H637 H 0.91265 0.03959 0.43573 0.0
H638 H 0.97067 0.95181 0.35187 0.0
H639 H 0.93863 0.98216 0.37037 0.0
H640 H 0.87023 0.95531 0.42312 0.0
C641 C 0.83989 0.03402 0.47422 0.0
C642 C 0.90285 0.02145 0.43269 0.0
C643 C 0.82678 0.05428 0.48676 0.0
C644 C 0.9585 0.94669 0.37035 0.0
C645 C 0.94019 0.96415 0.38096 0.0
C646 C 0.87957 0.97368 0.42587 0.0
C647 C 0.85822 0.03789 0.45143 0.0
C648 C 0.87489 0.0171 0.44009 0.0
C649 C 0.92442 0.95869 0.40524 0.0
C650 C 0.90725 0.9784 0.41783 0.0
H651 H 0.85399 0.10099 0.44518 0.0
H652 H 0.87535 0.06585 0.42257 0.0
H653 H 0.84198 0.98894 0.44222 0.0
H654 H 0.94687 0.89955 0.41834 0.0
H655 H 0.91461 0.93033 0.43691 0.0
C656 C 0.33605 0.39333 0.07188 0.0
C657 C 0.33683 0.37356 0.05244 0.0
C658 C 0.35033 0.39174 0.09793 0.0
C659 C 0.40857 0.35871 0.13281 0.0
H660 H 0.37627 0.38235 0.20264 0.0
C661 C 0.46137 0.34126 0.24121 0.0
C662 C 0.4632 0.36163 0.25981 0.0
C663 C 0.44436 0.34231 0.21695 0.0
C664 C 0.38563 0.37586 0.18326 0.0
H665 H 0.35336 0.33669 0.0451 0.0
H666 H 0.37764 0.33371 0.09066 0.0
H667 H 0.34974 0.38523 0.15805 0.0
H668 H 0.44769 0.39875 0.26802 0.0
H669 H 0.41816 0.4006 0.22551 0.0
H670 H 0.44444 0.3494 0.15785 0.0
C671 C 0.36626 0.35055 0.0857 0.0
C672 C 0.37047 0.37753 0.15773 0.0
C673 C 0.35203 0.35214 0.05971 0.0
C674 C 0.44685 0.38274 0.2541 0.0
C675 C 0.4298 0.38377 0.22981 0.0
C676 C 0.42367 0.357 0.15827 0.0
C677 C 0.36575 0.37039 0.10504 0.0
C678 C 0.38175 0.36889 0.13223 0.0
C679 C 0.42875 0.36373 0.21071 0.0
C680 C 0.41237 0.36547 0.1838 0.0
H681 H 0.32434 0.41 0.067 0.0
H682 H 0.34972 0.40744 0.11226 0.0
H683 H 0.41811 0.35235 0.11347 0.0
H684 H 0.47346 0.32462 0.24506 0.0
H685 H 0.4436 0.32637 0.20293 0.0
C686 C 0.69723 0.62012 0.58699 0.0
C687 C 0.69596 0.6394 0.56645 0.0
C688 C 0.6848 0.62282 0.61354 0.0
C689 C 0.62741 0.65776 0.64484 0.0
H690 H 0.6514 0.62601 0.71527 0.0
C691 C 0.56321 0.66553 0.74655 0.0
C692 C 0.55864 0.64339 0.76226 0.0
C693 C 0.58302 0.66658 0.72505 0.0
C694 C 0.64438 0.63485 0.6957 0.0
H695 H 0.68253 0.67743 0.55879 0.0
H696 H 0.66194 0.68248 0.60535 0.0
H697 H 0.68201 0.62613 0.67402 0.0
H698 H 0.57221 0.60519 0.76829 0.0
H699 H 0.60667 0.60696 0.73044 0.0
H700 H 0.5897 0.66618 0.66618 0.0
C701 C 0.67179 0.66495 0.60063 0.0
C702 C 0.66192 0.63496 0.67207 0.0
C703 C 0.68404 0.6622 0.57403 0.0
C704 C 0.57509 0.62252 0.75654 0.0
C705 C 0.59497 0.62358 0.73496 0.0
C706 C 0.60998 0.65773 0.66839 0.0
C707 C 0.67098 0.64494 0.62026 0.0
C708 C 0.65357 0.6463 0.64626 0.0
C709 C 0.59883 0.64551 0.71864 0.0
C710 C 0.61813 0.64616 0.69407 0.0
H711 H 0.70667 0.60245 0.58205 0.0
H712 H 0.68464 0.607 0.62807 0.0
H713 H 0.61989 0.66612 0.62518 0.0
H714 H 0.55119 0.68208 0.75056 0.0
H715 H 0.58581 0.6839 0.71326 0.0
C716 C 0.70022 0.40617 0.08365 0.0
C717 C 0.70619 0.38652 0.06519 0.0
C718 C 0.68746 0.40144 0.10963 0.0
C719 C 0.66982 0.35438 0.16416 0.0
H720 H 0.60623 0.39698 0.175 0.0
C721 C 0.58926 0.34056 0.2555 0.0
C722 C 0.57779 0.3623 0.26685 0.0
C723 C 0.60731 0.34212 0.23228 0.0
C724 C 0.62415 0.38515 0.17264 0.0
H725 H 0.70528 0.34633 0.06036 0.0
H726 H 0.68276 0.33794 0.10633 0.0
H727 H 0.63393 0.40179 0.13244 0.0
H728 H 0.57783 0.40275 0.26407 0.0
H729 H 0.60972 0.40553 0.2244 0.0
H730 H 0.66 0.3379 0.20472 0.0
C731 C 0.68797 0.35703 0.10042 0.0
C732 C 0.63998 0.38786 0.14812 0.0
C733 C 0.70084 0.3618 0.07418 0.0
C734 C 0.58592 0.38562 0.25554 0.0
C735 C 0.6041 0.38719 0.23263 0.0
C736 C 0.65399 0.35176 0.18897 0.0
C737 C 0.68034 0.37693 0.11794 0.0
C738 C 0.6632 0.37277 0.14372 0.0
C739 C 0.6144 0.36546 0.22013 0.0
C740 C 0.63116 0.36738 0.19366 0.0
H741 H 0.70467 0.42538 0.07754 0.0
H742 H 0.68245 0.41711 0.12297 0.0
H743 H 0.68761 0.34249 0.1613 0.0
H744 H 0.58339 0.32229 0.26374 0.0
H745 H 0.61477 0.325 0.22317 0.0
C746 C 0.2997 0.62585 0.57929 0.0
C747 C 0.31672 0.62478 0.55525 0.0
C748 C 0.31107 0.63265 0.60571 0.0
C749 C 0.34732 0.62603 0.65923 0.0
H750 H 0.4037 0.67805 0.66845 0.0
C751 C 0.43327 0.62281 0.74527 0.0
C752 C 0.44098 0.64502 0.75919 0.0
C753 C 0.41394 0.62311 0.72286 0.0
C754 C 0.38772 0.66368 0.66636 0.0
H755 H 0.35838 0.63137 0.53945 0.0
H756 H 0.37819 0.64348 0.5854 0.0
H757 H 0.37703 0.67539 0.62393 0.0
H758 H 0.43389 0.68493 0.76089 0.0
H759 H 0.40031 0.68545 0.72133 0.0
H760 H 0.35866 0.61379 0.70127 0.0
C761 C 0.35614 0.63904 0.58398 0.0
C762 C 0.37261 0.66205 0.64082 0.0
C763 C 0.34487 0.63195 0.55772 0.0
C764 C 0.42843 0.66749 0.75058 0.0
C765 C 0.4093 0.66783 0.72788 0.0
C766 C 0.36261 0.62751 0.68466 0.0
C767 C 0.33955 0.63885 0.60841 0.0
C768 C 0.35267 0.64288 0.63677 0.0
C769 C 0.40203 0.64566 0.71366 0.0
C770 C 0.38339 0.64601 0.68824 0.0
H771 H 0.27795 0.62028 0.57793 0.0
H772 H 0.29777 0.63249 0.62417 0.0
H773 H 0.33226 0.61094 0.65667 0.0
H774 H 0.44241 0.60517 0.75148 0.0
H775 H 0.40899 0.60577 0.71212 0.0
C776 C 0.83565 0.83878 0.08592 0.0
C777 C 0.82108 0.86036 0.07782 0.0
C778 C 0.8484 0.83701 0.11269 0.0
C779 C 0.8552 0.867 0.18385 0.0
H780 H 0.92996 0.84085 0.1803 0.0
C781 C 0.94099 0.88295 0.2706 0.0
C782 C 0.95838 0.86268 0.27701 0.0
C783 C 0.92122 0.88131 0.24853 0.0
C784 C 0.909 0.8479 0.1818 0.0
H785 H 0.80657 0.89612 0.09261 0.0
H786 H 0.82972 0.89345 0.1389 0.0
H787 H 0.9002 0.83978 0.13828 0.0
H788 H 0.9676 0.82436 0.26612 0.0
H789 H 0.93324 0.82157 0.22787 0.0
H790 H 0.86466 0.87577 0.2274 0.0
C791 C 0.83111 0.87777 0.12463 0.0
C792 C 0.89183 0.8472 0.15769 0.0
C793 C 0.81808 0.87942 0.09792 0.0
C794 C 0.95483 0.84046 0.26158 0.0
C795 C 0.93517 0.83886 0.23957 0.0
C796 C 0.87252 0.86783 0.20803 0.0
C797 C 0.84723 0.85689 0.13196 0.0
C798 C 0.8647 0.85671 0.15834 0.0
C799 C 0.91851 0.85939 0.23243 0.0
C800 C 0.89961 0.85826 0.20722 0.0
H801 H 0.83863 0.82375 0.07106 0.0
H802 H 0.86007 0.82038 0.11788 0.0
H803 H 0.83436 0.87433 0.18517 0.0
H804 H 0.94308 0.9003 0.28215 0.0
H805 H 0.90875 0.89748 0.24342 0.0
C806 C 0.17807 0.10874 0.58663 0.0
C807 C 0.17924 0.12981 0.56856 0.0
C808 C 0.16306 0.10929 0.61193 0.0
C809 C 0.10578 0.1426 0.64594 0.0
H810 H 0.13428 0.11223 0.71544 0.0
C811 C 0.0502 0.15385 0.75265 0.0
C812 C 0.04751 0.13249 0.77012 0.0
C813 C 0.06749 0.15379 0.72897 0.0
C814 C 0.12592 0.12058 0.69613 0.0
H815 H 0.16553 0.168 0.56295 0.0
H816 H 0.13978 0.1691 0.60726 0.0
H817 H 0.16215 0.1116 0.67232 0.0
H818 H 0.06157 0.09449 0.77672 0.0
H819 H 0.09153 0.09433 0.73516 0.0
H820 H 0.06952 0.15145 0.66957 0.0
C821 C 0.15025 0.15205 0.60175 0.0
C822 C 0.14189 0.12023 0.67143 0.0
C823 C 0.16528 0.15152 0.57651 0.0
C824 C 0.06311 0.11126 0.76371 0.0
C825 C 0.0804 0.1112 0.73996 0.0
C826 C 0.08984 0.14295 0.67058 0.0
C827 C 0.14881 0.1309 0.61969 0.0
C828 C 0.13201 0.13128 0.64606 0.0
C829 C 0.08253 0.13238 0.72211 0.0
C830 C 0.09972 0.132 0.696 0.0
H831 H 0.18883 0.09181 0.58125 0.0
H832 H 0.16219 0.09261 0.62514 0.0
H833 H 0.09732 0.15086 0.62663 0.0
H834 H 0.03873 0.17062 0.75708 0.0
H835 H 0.06905 0.17057 0.716 0.0
C836 C 0.19942 0.85837 0.08181 0.0
C837 C 0.19847 0.88215 0.06881 0.0
C838 C 0.18508 0.85354 0.10715 0.0
C839 C 0.12616 0.87732 0.148 0.0
H840 H 0.15864 0.84249 0.2128 0.0
C841 C 0.07904 0.88531 0.25765 0.0
C842 C 0.07444 0.86331 0.27359 0.0
C843 C 0.09548 0.88516 0.23346 0.0
C844 C 0.14922 0.85197 0.19472 0.0
H845 H 0.18313 0.91983 0.07317 0.0
H846 H 0.15819 0.91142 0.11691 0.0
H847 H 0.18486 0.84651 0.16839 0.0
H848 H 0.08486 0.82411 0.2774 0.0
H849 H 0.11388 0.8239 0.2347 0.0
H850 H 0.09082 0.88318 0.17412 0.0
C851 C 0.16935 0.8963 0.10726 0.0
C852 C 0.16418 0.85426 0.16934 0.0
C853 C 0.18362 0.90111 0.08212 0.0
C854 C 0.08791 0.84135 0.26551 0.0
C855 C 0.10452 0.84122 0.24112 0.0
C856 C 0.11133 0.87508 0.1732 0.0
C857 C 0.16954 0.8724 0.11988 0.0
C858 C 0.15303 0.86751 0.14595 0.0
C859 C 0.10782 0.86302 0.22446 0.0
C860 C 0.12292 0.86294 0.19708 0.0
H861 H 0.2107 0.84338 0.07205 0.0
H862 H 0.18557 0.83493 0.11638 0.0
H863 H 0.11668 0.88707 0.13014 0.0
H864 H 0.06941 0.90268 0.26348 0.0
H865 H 0.09819 0.9024 0.22148 0.0
C866 C 0.84281 0.10891 0.58189 0.0
C867 C 0.8218 0.12357 0.56928 0.0
C868 C 0.84869 0.11039 0.61091 0.0
C869 C 0.85393 0.15262 0.66772 0.0
H870 H 0.85841 0.09327 0.71545 0.0
C871 C 0.91367 0.15365 0.77533 0.0
C872 C 0.93151 0.13327 0.77938 0.0
C873 C 0.89315 0.15315 0.75387 0.0
C874 C 0.85733 0.11005 0.70244 0.0
H875 H 0.79029 0.15114 0.57799 0.0
H876 H 0.80193 0.15467 0.62871 0.0
H877 H 0.83529 0.09095 0.66903 0.0
H878 H 0.94101 0.09604 0.76472 0.0
H879 H 0.90618 0.09544 0.72727 0.0
H880 H 0.87794 0.17131 0.6999 0.0
C881 C 0.81327 0.1417 0.61581 0.0
C882 C 0.84387 0.10872 0.67602 0.0
C883 C 0.80683 0.13977 0.58675 0.0
C884 C 0.92774 0.11212 0.76222 0.0
C885 C 0.90744 0.11167 0.74083 0.0
C886 C 0.86783 0.15388 0.694 0.0
C887 C 0.83426 0.12699 0.62803 0.0
C888 C 0.84287 0.12978 0.65809 0.0
C889 C 0.89008 0.13226 0.73608 0.0
C890 C 0.87063 0.13234 0.71118 0.0
H891 H 0.85556 0.09683 0.5693 0.0
H892 H 0.86536 0.09921 0.61982 0.0
H893 H 0.85356 0.16904 0.65407 0.0
H894 H 0.9159 0.17017 0.78833 0.0
H895 H 0.87995 0.16923 0.75099 0.0
loop_
_geom_bond_atom_site_label_1
_geom_bond_atom_site_label_2
_geom_bond_distance
_geom_bond_site_symmetry_2
_ccdc_geom_bond_type
H0 C3 0.929 . S
H1 C6 0.929 . S
H2 C8 0.930 . S
C3 H0 0.929 . S
C3 C4 1.398 . S
C3 C5 1.396 1_554 S
C4 C3 1.398 . S
C4 C8 1.407 . S
C5 C3 1.396 1_556 S
C5 C6 1.394 . S
C6 H1 0.929 . S
C6 C5 1.394 . S
C6 C7 1.382 1_556 S
C7 C6 1.382 1_554 S
C7 C8 1.392 . S
C7 N9 1.410 1_554 S
C8 H2 0.930 . S
C8 C4 1.407 . S
C8 C7 1.392 . S
N9 C7 1.410 1_556 S
N9 C10 1.269 . S
C10 N9 1.269 . S
H11 C14 0.929 . S
H12 C17 0.929 . S
H13 C19 0.930 . S
C14 H11 0.929 . S
C14 C15 1.398 . S
C14 C16 1.396 . S
C15 C14 1.398 . S
C15 C19 1.407 . S
C16 C14 1.396 . S
C16 C17 1.394 . S
C17 H12 0.929 . S
C17 C16 1.394 . S
C17 C18 1.382 . S
C18 C17 1.382 . S
C18 C19 1.392 . S
C18 N20 1.420 . S
C19 H13 0.930 . S
C19 C15 1.407 . S
C19 C18 1.392 . S
N20 C18 1.420 . S
N20 C21 1.244 . S
C21 N20 1.244 . S
H22 C25 0.929 . S
H23 C28 0.929 . S
H24 C30 0.930 . S
C25 H22 0.929 . S
C25 C26 1.398 . S
C25 C27 1.396 1_554 S
C26 C25 1.398 . S
C26 C30 1.407 . S
C27 C25 1.396 1_556 S
C27 C28 1.394 . S
C28 H23 0.929 . S
C28 C27 1.394 . S
C28 C29 1.382 1_556 S
C29 C28 1.382 1_554 S
C29 C30 1.392 . S
C29 N31 1.420 . S
C30 H24 0.930 . S
C30 C26 1.407 . S
C30 C29 1.392 . S
N31 C29 1.420 . S
N31 C32 1.244 1_554 S
C32 N31 1.244 1_556 S
H33 C36 0.929 . S
H34 C39 0.929 . S
H35 C41 0.930 . S
C36 H33 0.929 . S
C36 C37 1.398 . S
C36 C38 1.396 . S
C37 C36 1.398 . S
C37 C41 1.407 . S
C38 C36 1.396 . S
C38 C39 1.394 . S
C39 H34 0.929 . S
C39 C38 1.394 . S
C39 C40 1.382 . S
C40 C39 1.382 . S
C40 C41 1.392 . S
C40 N42 1.420 . S
C41 H35 0.930 . S
C41 C37 1.407 . S
C41 C40 1.392 . S
N42 C40 1.420 . S
N42 C43 1.244 . S
C43 N42 1.244 . S
H44 C47 0.929 . S
H45 C50 0.929 . S
H46 C52 0.930 . S
C47 H44 0.929 . S
C47 C48 1.398 . S
C47 C49 1.396 1_554 S
C48 C47 1.398 . S
C48 C52 1.407 . S
C49 C47 1.396 1_556 S
C49 C50 1.394 . S
C50 H45 0.929 . S
C50 C49 1.394 . S
C50 C51 1.382 1_556 S
C51 C50 1.382 1_554 S
C51 C52 1.392 . S
C51 N53 1.410 1_554 S
C52 H46 0.930 . S
C52 C48 1.407 . S
C52 C51 1.392 . S
N53 C51 1.410 1_556 S
N53 C54 1.268 . S
C54 N53 1.268 . S
H55 C58 0.929 . S
H56 C61 0.929 . S
H57 C63 0.930 . S
C58 H55 0.929 . S
C58 C59 1.398 . S
C58 C60 1.396 . S
C59 C58 1.398 . S
C59 C63 1.407 . S
C60 C58 1.396 . S
C60 C61 1.394 . S
C61 H56 0.929 . S
C61 C60 1.394 . S
C61 C62 1.382 . S
C62 C61 1.382 . S
C62 C63 1.392 . S
C62 N64 1.420 . S
C63 H57 0.930 . S
C63 C59 1.407 . S
C63 C62 1.392 . S
N64 C62 1.420 . S
N64 C65 1.244 . S
C65 N64 1.244 . S
H66 C69 0.929 . S
H67 C72 0.929 . S
H68 C74 0.930 . S
C69 H66 0.929 . S
C69 C70 1.398 . S
C69 C71 1.396 1_554 S
C70 C69 1.398 . S
C70 C74 1.407 . S
C71 C69 1.396 1_556 S
C71 C72 1.394 . S
C72 H67 0.929 . S
C72 C71 1.394 . S
C72 C73 1.382 1_556 S
C73 C72 1.382 1_554 S
C73 C74 1.392 . S
C73 N75 1.420 . S
C74 H68 0.930 . S
C74 C70 1.407 . S
C74 C73 1.392 . S
N75 C73 1.420 . S
N75 C76 1.244 1_554 S
C76 N75 1.244 1_556 S
H77 C80 0.929 . S
H78 C83 0.929 . S
H79 C85 0.930 . S
C80 H77 0.929 . S
C80 C81 1.398 . S
C80 C82 1.396 . S
C81 C80 1.398 . S
C81 C85 1.407 . S
C82 C80 1.396 . S
C82 C83 1.394 . S
C83 H78 0.929 . S
C83 C82 1.394 . S
C83 C84 1.382 . S
C84 C83 1.382 . S
C84 C85 1.392 . S
C84 N86 1.420 . S
C85 H79 0.930 . S
C85 C81 1.407 . S
C85 C84 1.392 . S
N86 C84 1.420 . S
N86 C87 1.244 . S
C87 N86 1.244 . S
Fe88 O90 1.918 . S
Fe88 O93 1.997 1_455 S
Fe88 O94 2.002 1_455 S
Fe88 O99 1.976 . S
Fe88 O102 1.996 . S
Fe89 O90 1.918 . S
Fe89 O97 1.997 1_455 S
Fe89 O100 1.996 . S
Fe89 O104 1.976 . S
Fe89 O107 2.002 1_455 S
O90 Fe88 1.918 . S
O90 Fe89 1.918 . S
O90 Fe91 1.918 . S
Fe91 O90 1.918 . S
Fe91 O92 2.002 1_455 S
Fe91 O101 1.976 . S
Fe91 O105 1.996 . S
Fe91 O108 1.997 1_455 S
O92 Fe91 2.002 1_655 S
O92 C109 1.295 . S
O93 Fe88 1.997 1_655 S
O93 C109 1.235 . S
O94 Fe88 2.002 1_655 S
O94 C95 1.295 . S
C95 O94 1.295 . S
C95 O97 1.235 . S
C96 O101 1.287 . S
C96 O102 1.255 . S
O97 Fe89 1.997 1_655 S
O97 C95 1.235 . S
C98 O104 1.287 . S
C98 O105 1.255 . S
O99 Fe88 1.976 . S
O99 C106 1.287 . S
O100 Fe89 1.996 . S
O100 C106 1.255 . S
O101 Fe91 1.976 . S
O101 C96 1.287 . S
O102 Fe88 1.996 . S
O102 C96 1.255 . S
C103 O107 1.295 . S
C103 O108 1.235 . S
O104 Fe89 1.976 . S
O104 C98 1.287 . S
O105 Fe91 1.996 . S
O105 C98 1.255 . S
C106 O99 1.287 . S
C106 O100 1.255 . S
O107 Fe89 2.002 1_655 S
O107 C103 1.295 . S
O108 Fe91 1.997 1_655 S
O108 C103 1.235 . S
C109 O92 1.295 . S
C109 O93 1.235 . S
Fe110 O112 1.918 1_455 S
Fe110 O115 2.018 . S
Fe110 O116 2.025 . S
Fe110 O121 1.954 1_455 S
Fe110 O124 1.974 1_455 S
Fe111 O112 1.918 1_455 S
Fe111 O119 2.007 . S
Fe111 O122 1.986 1_455 S
Fe111 O126 1.966 1_455 S
Fe111 O129 2.013 . S
O112 Fe110 1.918 1_655 S
O112 Fe111 1.918 1_655 S
O112 Fe113 1.918 1_655 S
Fe113 O112 1.918 1_455 S
Fe113 O114 2.022 . S
Fe113 O123 1.956 1_455 S
Fe113 O127 1.977 1_455 S
Fe113 O130 2.016 . S
O114 Fe113 2.022 . S
O114 C131 1.295 . S
O115 Fe110 2.018 . S
O115 C131 1.235 . S
O116 Fe110 2.025 . S
O116 C117 1.295 . S
C117 O116 1.295 . S
C117 O119 1.235 . S
C118 O123 1.287 . S
C118 O124 1.255 . S
O119 Fe111 2.007 . S
O119 C117 1.235 . S
C120 O126 1.287 . S
C120 O127 1.255 . S
O121 Fe110 1.954 1_655 S
O121 C128 1.287 . S
O122 Fe111 1.986 1_655 S
O122 C128 1.255 . S
O123 Fe113 1.956 1_655 S
O123 C118 1.287 . S
O124 Fe110 1.974 1_655 S
O124 C118 1.255 . S
C125 O129 1.295 . S
C125 O130 1.235 . S
O126 Fe111 1.966 1_655 S
O126 C120 1.287 . S
O127 Fe113 1.977 1_655 S
O127 C120 1.255 . S
C128 O121 1.287 . S
C128 O122 1.255 . S
O129 Fe111 2.013 . S
O129 C125 1.295 . S
O130 Fe113 2.016 . S
O130 C125 1.235 . S
C131 O114 1.295 . S
C131 O115 1.235 . S
Fe132 O134 1.918 . S
Fe132 O137 1.997 . S
Fe132 O138 2.002 . S
Fe132 O143 1.976 . S
Fe132 O146 1.996 . S
Fe133 O134 1.918 . S
Fe133 O141 1.997 . S
Fe133 O144 1.996 . S
Fe133 O148 1.976 . S
Fe133 O151 2.002 . S
O134 Fe132 1.918 . S
O134 Fe133 1.918 . S
O134 Fe135 1.918 . S
Fe135 O134 1.918 . S
Fe135 O136 2.002 . S
Fe135 O145 1.976 . S
Fe135 O149 1.996 . S
Fe135 O152 1.997 . S
O136 Fe135 2.002 . S
O136 C153 1.295 . S
O137 Fe132 1.997 . S
O137 C153 1.235 . S
O138 Fe132 2.002 . S
O138 C139 1.295 . S
C139 O138 1.295 . S
C139 O141 1.235 . S
C140 O145 1.287 . S
C140 O146 1.255 . S
O141 Fe133 1.997 . S
O141 C139 1.235 . S
C142 O148 1.287 . S
C142 O149 1.255 . S
O143 Fe132 1.976 . S
O143 C150 1.287 . S
O144 Fe133 1.996 . S
O144 C150 1.255 . S
O145 Fe135 1.976 . S
O145 C140 1.287 . S
O146 Fe132 1.996 . S
O146 C140 1.255 . S
C147 O151 1.295 . S
C147 O152 1.235 . S
O148 Fe133 1.976 . S
O148 C142 1.287 . S
O149 Fe135 1.996 . S
O149 C142 1.255 . S
C150 O143 1.287 . S
C150 O144 1.255 . S
O151 Fe133 2.002 . S
O151 C147 1.295 . S
O152 Fe135 1.997 . S
O152 C147 1.235 . S
C153 O136 1.295 . S
C153 O137 1.235 . S
Fe154 O156 1.918 . S
Fe154 O159 1.997 . S
Fe154 O160 2.002 . S
Fe154 O165 1.976 . S
Fe154 O168 1.996 . S
Fe155 O156 1.918 . S
Fe155 O163 1.997 . S
Fe155 O166 1.996 . S
Fe155 O170 1.976 . S
Fe155 O173 2.002 . S
O156 Fe154 1.918 . S
O156 Fe155 1.918 . S
O156 Fe157 1.918 . S
Fe157 O156 1.918 . S
Fe157 O158 2.002 . S
Fe157 O167 1.976 . S
Fe157 O171 1.996 . S
Fe157 O174 1.997 . S
O158 Fe157 2.002 . S
O158 C175 1.295 . S
O159 Fe154 1.997 . S
O159 C175 1.235 . S
O160 Fe154 2.002 . S
O160 C161 1.295 . S
C161 O160 1.295 . S
C161 O163 1.235 . S
C162 O167 1.287 . S
C162 O168 1.255 . S
O163 Fe155 1.997 . S
O163 C161 1.235 . S
C164 O170 1.287 . S
C164 O171 1.255 . S
O165 Fe154 1.976 . S
O165 C172 1.287 . S
O166 Fe155 1.996 . S
O166 C172 1.255 . S
O167 Fe157 1.976 . S
O167 C162 1.287 . S
O168 Fe154 1.996 . S
O168 C162 1.255 . S
C169 O173 1.295 . S
C169 O174 1.235 . S
O170 Fe155 1.976 . S
O170 C164 1.287 . S
O171 Fe157 1.996 . S
O171 C164 1.255 . S
C172 O165 1.287 . S
C172 O166 1.255 . S
O173 Fe155 2.002 . S
O173 C169 1.295 . S
O174 Fe157 1.997 . S
O174 C169 1.235 . S
C175 O158 1.295 . S
C175 O159 1.235 . S
C176 C177 1.349 . S
C176 C178 1.327 . S
C176 H201 0.950 1_556 S
C177 C176 1.349 . S
C177 C193 1.349 . S
C178 C176 1.327 . S
C178 C197 1.429 . S
C178 H202 0.950 . S
C179 C196 1.574 . S
C179 C198 1.368 . S
C179 H203 0.949 . S
H180 C184 0.949 . S
C181 C182 1.349 . S
C181 C183 1.327 . S
C181 H204 0.950 . S
C182 C181 1.349 . S
C182 C194 1.349 . S
C183 C181 1.327 . S
C183 C199 1.429 . S
C183 H205 0.950 . S
C184 H180 0.949 . S
C184 C192 1.574 . S
C184 C200 1.368 . S
H185 C193 0.950 . S
H186 C191 0.950 . S
H187 C192 0.949 . S
H188 C194 0.950 . S
H189 C195 0.950 . S
H190 C196 0.949 . S
C191 H186 0.950 . S
C191 C193 1.327 . S
C191 C197 1.429 . S
C192 C184 1.574 . S
C192 H187 0.949 . S
C192 C198 1.368 . S
C193 C177 1.349 . S
C193 H185 0.950 . S
C193 C191 1.327 . S
C194 C182 1.349 . S
C194 H188 0.950 . S
C194 C195 1.327 . S
C195 H189 0.950 . S
C195 C194 1.327 . S
C195 C199 1.429 . S
C196 C179 1.574 . S
C196 H190 0.949 . S
C196 C200 1.368 . S
C197 C178 1.429 . S
C197 C191 1.429 . S
C197 C198 1.523 . S
C198 C179 1.368 . S
C198 C192 1.368 . S
C198 C197 1.523 . S
C199 C183 1.429 . S
C199 C195 1.429 . S
C199 C200 1.523 . S
C200 C184 1.368 . S
C200 C196 1.368 . S
C200 C199 1.523 . S
H201 C176 0.950 1_554 S
H202 C178 0.950 . S
H203 C179 0.949 . S
H204 C181 0.950 . S
H205 C183 0.950 . S
C206 C207 1.349 . S
C206 C208 1.327 . S
C206 H231 0.950 . S
C207 C206 1.349 . S
C207 C223 1.349 . S
C208 C206 1.327 . S
C208 C227 1.429 . S
C208 H232 0.950 . S
C209 C226 1.574 . S
C209 C228 1.368 . S
C209 H233 0.949 . S
H210 C214 0.949 . S
C211 C212 1.349 . S
C211 C213 1.327 . S
C211 H234 0.950 . S
C212 C211 1.349 . S
C212 C224 1.349 . S
C213 C211 1.327 . S
C213 C229 1.429 . S
C213 H235 0.950 . S
C214 H210 0.949 . S
C214 C222 1.574 . S
C214 C230 1.368 . S
H215 C223 0.950 . S
H216 C221 0.950 . S
H217 C222 0.949 . S
H218 C224 0.950 . S
H219 C225 0.950 . S
H220 C226 0.949 . S
C221 H216 0.950 . S
C221 C223 1.327 . S
C221 C227 1.429 . S
C222 C214 1.574 . S
C222 H217 0.949 . S
C222 C228 1.368 . S
C223 C207 1.349 . S
C223 H215 0.950 . S
C223 C221 1.327 . S
C224 C212 1.349 . S
C224 H218 0.950 . S
C224 C225 1.327 . S
C225 H219 0.950 . S
C225 C224 1.327 . S
C225 C229 1.429 . S
C226 C209 1.574 . S
C226 H220 0.949 . S
C226 C230 1.368 . S
C227 C208 1.429 . S
C227 C221 1.429 . S
C227 C228 1.523 . S
C228 C209 1.368 . S
C228 C222 1.368 . S
C228 C227 1.523 . S
C229 C213 1.429 . S
C229 C225 1.429 . S
C229 C230 1.523 . S
C230 C214 1.368 . S
C230 C226 1.368 . S
C230 C229 1.523 . S
H231 C206 0.950 . S
H232 C208 0.950 . S
H233 C209 0.949 . S
H234 C211 0.950 . S
H235 C213 0.950 . S
C236 C237 1.349 . S
C236 C238 1.327 . S
C236 H261 0.950 1_556 S
C237 C236 1.349 . S
C237 C253 1.349 . S
C238 C236 1.327 . S
C238 C257 1.429 . S
C238 H262 0.950 . S
C239 C256 1.574 . S
C239 C258 1.368 . S
C239 H263 0.949 . S
H240 C244 0.949 . S
C241 C242 1.349 . S
C241 C243 1.327 . S
C241 H264 0.950 . S
C242 C241 1.349 . S
C242 C254 1.349 . S
C243 C241 1.327 . S
C243 C259 1.429 . S
C243 H265 0.950 . S
C244 H240 0.949 . S
C244 C252 1.574 . S
C244 C260 1.368 . S
H245 C253 0.950 . S
H246 C251 0.950 . S
H247 C252 0.949 . S
H248 C254 0.950 . S
H249 C255 0.950 . S
H250 C256 0.949 . S
C251 H246 0.950 . S
C251 C253 1.327 . S
C251 C257 1.429 . S
C252 C244 1.574 . S
C252 H247 0.949 . S
C252 C258 1.368 . S
C253 C237 1.349 . S
C253 H245 0.950 . S
C253 C251 1.327 . S
C254 C242 1.349 . S
C254 H248 0.950 . S
C254 C255 1.327 . S
C255 H249 0.950 . S
C255 C254 1.327 . S
C255 C259 1.429 . S
C256 C239 1.574 . S
C256 H250 0.949 . S
C256 C260 1.368 . S
C257 C238 1.429 . S
C257 C251 1.429 . S
C257 C258 1.523 . S
C258 C239 1.368 . S
C258 C252 1.368 . S
C258 C257 1.523 . S
C259 C243 1.429 . S
C259 C255 1.429 . S
C259 C260 1.523 . S
C260 C244 1.368 . S
C260 C256 1.368 . S
C260 C259 1.523 . S
H261 C236 0.950 1_554 S
H262 C238 0.950 . S
H263 C239 0.949 . S
H264 C241 0.950 . S
H265 C243 0.950 . S
C266 C267 1.349 . S
C266 C268 1.327 . S
C266 H291 0.950 . S
C267 C266 1.349 . S
C267 C283 1.349 . S
C268 C266 1.327 . S
C268 C287 1.429 . S
C268 H292 0.950 . S
C269 C286 1.574 . S
C269 C288 1.368 . S
C269 H293 0.949 . S
H270 C274 0.949 . S
C271 C272 1.349 . S
C271 C273 1.327 . S
C271 H294 0.950 . S
C272 C271 1.349 . S
C272 C284 1.349 . S
C273 C271 1.327 . S
C273 C289 1.429 . S
C273 H295 0.950 . S
C274 H270 0.949 . S
C274 C282 1.574 . S
C274 C290 1.368 . S
H275 C283 0.950 . S
H276 C281 0.950 . S
H277 C282 0.949 . S
H278 C284 0.950 . S
H279 C285 0.950 . S
H280 C286 0.949 . S
C281 H276 0.950 . S
C281 C283 1.327 . S
C281 C287 1.429 . S
C282 C274 1.574 . S
C282 H277 0.949 . S
C282 C288 1.368 . S
C283 C267 1.349 . S
C283 H275 0.950 . S
C283 C281 1.327 . S
C284 C272 1.349 . S
C284 H278 0.950 . S
C284 C285 1.327 . S
C285 H279 0.950 . S
C285 C284 1.327 . S
C285 C289 1.429 . S
C286 C269 1.574 . S
C286 H280 0.949 . S
C286 C290 1.368 . S
C287 C268 1.429 . S
C287 C281 1.429 . S
C287 C288 1.523 . S
C288 C269 1.368 . S
C288 C282 1.368 . S
C288 C287 1.523 . S
C289 C273 1.429 . S
C289 C285 1.429 . S
C289 C290 1.523 . S
C290 C274 1.368 . S
C290 C286 1.368 . S
C290 C289 1.523 . S
H291 C266 0.950 . S
H292 C268 0.950 . S
H293 C269 0.949 . S
H294 C271 0.950 . S
H295 C273 0.950 . S
C296 C297 1.349 . S
C296 C298 1.327 . S
C296 H321 0.950 . S
C297 C296 1.349 . S
C297 C313 1.349 . S
C298 C296 1.327 . S
C298 C317 1.429 . S
C298 H322 0.950 . S
C299 C316 1.574 . S
C299 C318 1.368 . S
C299 H323 0.949 . S
H300 C304 0.949 . S
C301 C302 1.349 . S
C301 C303 1.327 . S
C301 H324 0.950 . S
C302 C301 1.349 . S
C302 C314 1.349 . S
C303 C301 1.327 . S
C303 C319 1.429 . S
C303 H325 0.950 . S
C304 H300 0.949 . S
C304 C312 1.574 . S
C304 C320 1.368 . S
H305 C313 0.950 1_554 S
H306 C311 0.950 . S
H307 C312 0.949 . S
H308 C314 0.950 . S
H309 C315 0.950 . S
H310 C316 0.949 . S
C311 H306 0.950 . S
C311 C313 1.327 . S
C311 C317 1.429 . S
C312 C304 1.574 . S
C312 H307 0.949 . S
C312 C318 1.368 . S
C313 C297 1.349 . S
C313 H305 0.950 1_556 S
C313 C311 1.327 . S
C314 C302 1.349 . S
C314 H308 0.950 . S
C314 C315 1.327 . S
C315 H309 0.950 . S
C315 C314 1.327 . S
C315 C319 1.429 . S
C316 C299 1.574 . S
C316 H310 0.949 . S
C316 C320 1.368 . S
C317 C298 1.429 . S
C317 C311 1.429 . S
C317 C318 1.523 . S
C318 C299 1.368 . S
C318 C312 1.368 . S
C318 C317 1.523 . S
C319 C303 1.429 . S
C319 C315 1.429 . S
C319 C320 1.523 . S
C320 C304 1.368 . S
C320 C316 1.368 . S
C320 C319 1.523 . S
H321 C296 0.950 . S
H322 C298 0.950 . S
H323 C299 0.949 . S
H324 C301 0.950 . S
H325 C303 0.950 . S
C326 C327 1.349 . S
C326 C328 1.327 . S
C326 H351 0.950 . S
C327 C326 1.349 . S
C327 C343 1.349 . S
C328 C326 1.327 . S
C328 C347 1.429 . S
C328 H352 0.950 . S
C329 C346 1.574 . S
C329 C348 1.368 . S
C329 H353 0.949 . S
H330 C334 0.949 . S
C331 C332 1.349 . S
C331 C333 1.327 . S
C331 H354 0.950 . S
C332 C331 1.349 . S
C332 C344 1.349 . S
C333 C331 1.327 . S
C333 C349 1.429 . S
C333 H355 0.950 . S
C334 H330 0.949 . S
C334 C342 1.574 . S
C334 C350 1.368 . S
H335 C343 0.950 . S
H336 C341 0.950 . S
H337 C342 0.949 . S
H338 C344 0.950 . S
H339 C345 0.950 . S
H340 C346 0.949 . S
C341 H336 0.950 . S
C341 C343 1.327 . S
C341 C347 1.429 . S
C342 C334 1.574 . S
C342 H337 0.949 . S
C342 C348 1.368 . S
C343 C327 1.349 . S
C343 H335 0.950 . S
C343 C341 1.327 . S
C344 C332 1.349 . S
C344 H338 0.950 . S
C344 C345 1.327 . S
C345 H339 0.950 . S
C345 C344 1.327 . S
C345 C349 1.429 . S
C346 C329 1.574 . S
C346 H340 0.949 . S
C346 C350 1.368 . S
C347 C328 1.429 . S
C347 C341 1.429 . S
C347 C348 1.523 . S
C348 C329 1.368 . S
C348 C342 1.368 . S
C348 C347 1.523 . S
C349 C333 1.429 . S
C349 C345 1.429 . S
C349 C350 1.523 . S
C350 C334 1.368 . S
C350 C346 1.368 . S
C350 C349 1.523 . S
H351 C326 0.950 . S
H352 C328 0.950 . S
H353 C329 0.949 . S
H354 C331 0.950 . S
H355 C333 0.950 . S
C356 C357 1.349 . S
C356 C358 1.327 . S
C356 H381 0.950 . S
C357 C356 1.349 . S
C357 C373 1.349 . S
C358 C356 1.327 . S
C358 C377 1.429 . S
C358 H382 0.950 . S
C359 C376 1.574 . S
C359 C378 1.368 . S
C359 H383 0.949 . S
H360 C364 0.949 . S
C361 C362 1.349 . S
C361 C363 1.327 . S
C361 H384 0.950 . S
C362 C361 1.349 . S
C362 C374 1.349 . S
C363 C361 1.327 . S
C363 C379 1.429 . S
C363 H385 0.950 . S
C364 H360 0.949 . S
C364 C372 1.574 . S
C364 C380 1.368 . S
H365 C373 0.950 . S
H366 C371 0.950 . S
H367 C372 0.949 . S
H368 C374 0.950 . S
H369 C375 0.950 . S
H370 C376 0.949 . S
C371 H366 0.950 . S
C371 C373 1.327 . S
C371 C377 1.429 . S
C372 C364 1.574 . S
C372 H367 0.949 . S
C372 C378 1.368 . S
C373 C357 1.349 . S
C373 H365 0.950 . S
C373 C371 1.327 . S
C374 C362 1.349 . S
C374 H368 0.950 . S
C374 C375 1.327 . S
C375 H369 0.950 . S
C375 C374 1.327 . S
C375 C379 1.429 . S
C376 C359 1.574 . S
C376 H370 0.949 . S
C376 C380 1.368 . S
C377 C358 1.429 . S
C377 C371 1.429 . S
C377 C378 1.523 . S
C378 C359 1.368 . S
C378 C372 1.368 . S
C378 C377 1.523 . S
C379 C363 1.429 . S
C379 C375 1.429 . S
C379 C380 1.523 . S
C380 C364 1.368 . S
C380 C376 1.368 . S
C380 C379 1.523 . S
H381 C356 0.950 . S
H382 C358 0.950 . S
H383 C359 0.949 . S
H384 C361 0.950 . S
H385 C363 0.950 . S
C386 C387 1.349 . S
C386 C388 1.327 . S
C386 H411 0.950 . S
C387 C386 1.349 . S
C387 C403 1.349 . S
C388 C386 1.327 . S
C388 C407 1.429 . S
C388 H412 0.950 . S
C389 C406 1.574 . S
C389 C408 1.368 . S
C389 H413 0.949 . S
H390 C394 0.949 . S
C391 C392 1.349 . S
C391 C393 1.327 . S
C391 H414 0.950 . S
C392 C391 1.349 . S
C392 C404 1.349 . S
C393 C391 1.327 . S
C393 C409 1.429 . S
C393 H415 0.950 . S
C394 H390 0.949 . S
C394 C402 1.574 . S
C394 C410 1.368 . S
H395 C403 0.950 . S
H396 C401 0.950 . S
H397 C402 0.949 . S
H398 C404 0.950 . S
H399 C405 0.950 . S
H400 C406 0.949 . S
C401 H396 0.950 . S
C401 C403 1.327 . S
C401 C407 1.429 . S
C402 C394 1.574 . S
C402 H397 0.949 . S
C402 C408 1.368 . S
C403 C387 1.349 . S
C403 H395 0.950 . S
C403 C401 1.327 . S
C404 C392 1.349 . S
C404 H398 0.950 . S
C404 C405 1.327 . S
C405 H399 0.950 . S
C405 C404 1.327 . S
C405 C409 1.429 . S
C406 C389 1.574 . S
C406 H400 0.949 . S
C406 C410 1.368 . S
C407 C388 1.429 . S
C407 C401 1.429 . S
C407 C408 1.523 . S
C408 C389 1.368 . S
C408 C402 1.368 . S
C408 C407 1.523 . S
C409 C393 1.429 . S
C409 C405 1.429 . S
C409 C410 1.523 . S
C410 C394 1.368 . S
C410 C406 1.368 . S
C410 C409 1.523 . S
H411 C386 0.950 . S
H412 C388 0.950 . S
H413 C389 0.949 . S
H414 C391 0.950 . S
H415 C393 0.950 . S
C416 C417 1.349 . S
C416 C418 1.327 . S
C416 H441 0.950 . S
C417 C416 1.349 . S
C417 C433 1.349 . S
C418 C416 1.327 . S
C418 C437 1.429 . S
C418 H442 0.950 . S
C419 C436 1.574 . S
C419 C438 1.368 . S
C419 H443 0.949 . S
H420 C424 0.949 . S
C421 C422 1.349 . S
C421 C423 1.327 . S
C421 H444 0.950 . S
C422 C421 1.349 . S
C422 C434 1.349 . S
C423 C421 1.327 . S
C423 C439 1.429 . S
C423 H445 0.950 . S
C424 H420 0.949 . S
C424 C432 1.574 . S
C424 C440 1.368 . S
H425 C433 0.950 . S
H426 C431 0.950 . S
H427 C432 0.949 . S
H428 C434 0.950 . S
H429 C435 0.950 . S
H430 C436 0.949 . S
C431 H426 0.950 . S
C431 C433 1.327 . S
C431 C437 1.429 . S
C432 C424 1.574 . S
C432 H427 0.949 . S
C432 C438 1.368 . S
C433 C417 1.349 . S
C433 H425 0.950 . S
C433 C431 1.327 . S
C434 C422 1.349 . S
C434 H428 0.950 . S
C434 C435 1.327 . S
C435 H429 0.950 . S
C435 C434 1.327 . S
C435 C439 1.429 . S
C436 C419 1.574 . S
C436 H430 0.949 . S
C436 C440 1.368 . S
C437 C418 1.429 . S
C437 C431 1.429 . S
C437 C438 1.523 . S
C438 C419 1.368 . S
C438 C432 1.368 . S
C438 C437 1.523 . S
C439 C423 1.429 . S
C439 C435 1.429 . S
C439 C440 1.523 . S
C440 C424 1.368 . S
C440 C436 1.368 . S
C440 C439 1.523 . S
H441 C416 0.950 . S
H442 C418 0.950 . S
H443 C419 0.949 . S
H444 C421 0.950 . S
H445 C423 0.950 . S
C446 C447 1.349 . S
C446 C448 1.327 . S
C446 H471 0.950 . S
C447 C446 1.349 . S
C447 C463 1.349 . S
C448 C446 1.327 . S
C448 C467 1.429 . S
C448 H472 0.950 . S
C449 C466 1.574 . S
C449 C468 1.368 . S
C449 H473 0.949 . S
H450 C454 0.949 . S
C451 C452 1.349 . S
C451 C453 1.327 . S
C451 H474 0.950 . S
C452 C451 1.349 . S
C452 C464 1.349 . S
C453 C451 1.327 . S
C453 C469 1.429 . S
C453 H475 0.950 . S
C454 H450 0.949 . S
C454 C462 1.574 . S
C454 C470 1.368 . S
H455 C463 0.950 . S
H456 C461 0.950 . S
H457 C462 0.949 . S
H458 C464 0.950 . S
H459 C465 0.950 . S
H460 C466 0.949 . S
C461 H456 0.950 . S
C461 C463 1.327 . S
C461 C467 1.429 . S
C462 C454 1.574 . S
C462 H457 0.949 . S
C462 C468 1.368 . S
C463 C447 1.349 . S
C463 H455 0.950 . S
C463 C461 1.327 . S
C464 C452 1.349 . S
C464 H458 0.950 . S
C464 C465 1.327 . S
C465 H459 0.950 . S
C465 C464 1.327 . S
C465 C469 1.429 . S
C466 C449 1.574 . S
C466 H460 0.949 . S
C466 C470 1.368 . S
C467 C448 1.429 . S
C467 C461 1.429 . S
C467 C468 1.523 . S
C468 C449 1.368 . S
C468 C462 1.368 . S
C468 C467 1.523 . S
C469 C453 1.429 . S
C469 C465 1.429 . S
C469 C470 1.523 . S
C470 C454 1.368 . S
C470 C466 1.368 . S
C470 C469 1.523 . S
H471 C446 0.950 . S
H472 C448 0.950 . S
H473 C449 0.949 . S
H474 C451 0.950 . S
H475 C453 0.950 . S
C476 C477 1.349 . S
C476 C478 1.327 . S
C476 H501 0.950 . S
C477 C476 1.349 . S
C477 C493 1.349 . S
C478 C476 1.327 . S
C478 C497 1.429 . S
C478 H502 0.950 . S
C479 C496 1.574 . S
C479 C498 1.368 . S
C479 H503 0.949 . S
H480 C484 0.949 . S
C481 C482 1.349 . S
C481 C483 1.327 . S
C481 H504 0.950 . S
C482 C481 1.349 . S
C482 C494 1.349 . S
C483 C481 1.327 . S
C483 C499 1.429 . S
C483 H505 0.950 . S
C484 H480 0.949 . S
C484 C492 1.574 . S
C484 C500 1.368 . S
H485 C493 0.963 . S
H486 C491 0.950 . S
H487 C492 0.949 . S
H488 C494 0.950 . S
H489 C495 0.950 . S
H490 C496 0.949 . S
C491 H486 0.950 . S
C491 C493 1.327 . S
C491 C497 1.429 . S
C492 C484 1.574 . S
C492 H487 0.949 . S
C492 C498 1.368 . S
C493 C477 1.349 . S
C493 H485 0.963 . S
C493 C491 1.327 . S
C494 C482 1.349 . S
C494 H488 0.950 . S
C494 C495 1.327 . S
C495 H489 0.950 . S
C495 C494 1.327 . S
C495 C499 1.429 . S
C496 C479 1.574 . S
C496 H490 0.949 . S
C496 C500 1.368 . S
C497 C478 1.429 . S
C497 C491 1.429 . S
C497 C498 1.523 . S
C498 C479 1.368 . S
C498 C492 1.368 . S
C498 C497 1.523 . S
C499 C483 1.429 . S
C499 C495 1.429 . S
C499 C500 1.523 . S
C500 C484 1.368 . S
C500 C496 1.368 . S
C500 C499 1.523 . S
H501 C476 0.950 . S
H502 C478 0.950 . S
H503 C479 0.949 . S
H504 C481 0.950 . S
H505 C483 0.950 . S
C506 C507 1.349 . S
C506 C508 1.327 . S
C506 H531 0.950 . S
C507 C506 1.349 . S
C507 C523 1.349 . S
C508 C506 1.327 . S
C508 C527 1.429 . S
C508 H532 0.950 . S
C509 C526 1.574 . S
C509 C528 1.368 . S
C509 H533 0.949 . S
H510 C514 0.949 . S
C511 C512 1.349 . S
C511 C513 1.327 . S
C511 H534 0.950 . S
C512 C511 1.349 . S
C512 C524 1.349 . S
C513 C511 1.327 . S
C513 C529 1.429 . S
C513 H535 0.950 . S
C514 H510 0.949 . S
C514 C522 1.574 . S
C514 C530 1.368 . S
H515 C523 0.950 . S
H516 C521 0.950 . S
H517 C522 0.949 . S
H518 C524 0.950 . S
H519 C525 0.950 . S
H520 C526 0.949 . S
C521 H516 0.950 . S
C521 C523 1.327 . S
C521 C527 1.429 . S
C522 C514 1.574 . S
C522 H517 0.949 . S
C522 C528 1.368 . S
C523 C507 1.349 . S
C523 H515 0.950 . S
C523 C521 1.327 . S
C524 C512 1.349 . S
C524 H518 0.950 . S
C524 C525 1.327 . S
C525 H519 0.950 . S
C525 C524 1.327 . S
C525 C529 1.429 . S
C526 C509 1.574 . S
C526 H520 0.949 . S
C526 C530 1.368 . S
C527 C508 1.429 . S
C527 C521 1.429 . S
C527 C528 1.523 . S
C528 C509 1.368 . S
C528 C522 1.368 . S
C528 C527 1.523 . S
C529 C513 1.429 . S
C529 C525 1.429 . S
C529 C530 1.523 . S
C530 C514 1.368 . S
C530 C526 1.368 . S
C530 C529 1.523 . S
H531 C506 0.950 . S
H532 C508 0.950 . S
H533 C509 0.949 . S
H534 C511 0.950 . S
H535 C513 0.950 . S
C536 C537 1.349 . S
C536 C538 1.327 . S
C536 H561 0.950 1_556 S
C537 C536 1.349 . S
C537 C553 1.349 . S
C538 C536 1.327 . S
C538 C557 1.429 . S
C538 H562 0.950 . S
C539 C556 1.574 1_565 S
C539 C558 1.368 . S
C539 H563 0.949 . S
H540 C544 0.949 . S
C541 C542 1.349 . S
C541 C543 1.327 . S
C541 H564 0.950 . S
C542 C541 1.349 . S
C542 C554 1.349 . S
C543 C541 1.327 . S
C543 C559 1.429 . S
C543 H565 0.950 . S
C544 H540 0.949 . S
C544 C552 1.574 1_545 S
C544 C560 1.368 . S
H545 C553 0.950 . S
H546 C551 0.950 . S
H547 C552 0.949 . S
H548 C554 0.950 . S
H549 C555 0.950 . S
H550 C556 0.949 . S
C551 H546 0.950 . S
C551 C553 1.327 . S
C551 C557 1.429 . S
C552 C544 1.574 1_565 S
C552 H547 0.949 . S
C552 C558 1.368 . S
C553 C537 1.349 . S
C553 H545 0.950 . S
C553 C551 1.327 . S
C554 C542 1.349 . S
C554 H548 0.950 . S
C554 C555 1.327 . S
C555 H549 0.950 . S
C555 C554 1.327 . S
C555 C559 1.429 . S
C556 C539 1.574 1_545 S
C556 H550 0.949 . S
C556 C560 1.368 . S
C557 C538 1.429 . S
C557 C551 1.429 . S
C557 C558 1.523 . S
C558 C539 1.368 . S
C558 C552 1.368 . S
C558 C557 1.523 . S
C559 C543 1.429 . S
C559 C555 1.429 . S
C559 C560 1.523 . S
C560 C544 1.368 . S
C560 C556 1.368 . S
C560 C559 1.523 . S
H561 C536 0.950 1_554 S
H562 C538 0.950 . S
H563 C539 0.949 . S
H564 C541 0.950 . S
H565 C543 0.950 . S
C566 C567 1.349 . S
C566 C568 1.327 . S
C566 H591 0.950 . S
C567 C566 1.349 . S
C567 C583 1.349 . S
C568 C566 1.327 . S
C568 C587 1.429 . S
C568 H592 0.950 . S
C569 C586 1.571 1_545 S
C569 C588 1.372 . S
C569 H593 0.948 1_545 S
H570 C574 0.949 . S
C571 C572 1.349 . S
C571 C573 1.327 . S
C571 H594 0.950 . S
C572 C571 1.349 . S
C572 C584 1.349 . S
C573 C571 1.327 . S
C573 C589 1.429 . S
C573 H595 0.950 . S
C574 H570 0.949 . S
C574 C582 1.574 . S
C574 C590 1.368 1_545 S
H575 C583 0.950 . S
H576 C581 0.950 . S
H577 C582 0.949 . S
H578 C584 0.950 . S
H579 C585 0.950 . S
H580 C586 0.949 . S
C581 H576 0.950 . S
C581 C583 1.327 . S
C581 C587 1.429 . S
C582 C574 1.574 . S
C582 H577 0.949 . S
C582 C588 1.368 . S
C583 C567 1.349 . S
C583 H575 0.950 . S
C583 C581 1.327 . S
C584 C572 1.349 . S
C584 H578 0.950 . S
C584 C585 1.327 . S
C585 H579 0.950 . S
C585 C584 1.327 . S
C585 C589 1.429 . S
C586 C569 1.571 1_565 S
C586 H580 0.949 . S
C586 C590 1.368 . S
C587 C568 1.429 . S
C587 C581 1.429 . S
C587 C588 1.523 . S
C588 C569 1.372 . S
C588 C582 1.368 . S
C588 C587 1.523 . S
C589 C573 1.429 . S
C589 C585 1.429 . S
C589 C590 1.523 . S
C590 C574 1.368 1_565 S
C590 C586 1.368 . S
C590 C589 1.523 . S
H591 C566 0.950 . S
H592 C568 0.950 . S
H593 C569 0.948 1_565 S
H594 C571 0.950 . S
H595 C573 0.950 . S
C596 C597 1.349 . S
C596 C598 1.327 . S
C596 H621 0.950 . S
C597 C596 1.349 . S
C597 C613 1.349 . S
C598 C596 1.327 . S
C598 C617 1.429 . S
C598 H622 0.950 . S
C599 C616 1.574 . S
C599 C618 1.368 1_545 S
C599 H623 0.949 . S
H600 C604 0.949 . S
C601 C602 1.349 . S
C601 C603 1.327 . S
C601 H624 0.950 . S
C602 C601 1.349 . S
C602 C614 1.349 . S
C603 C601 1.327 . S
C603 C619 1.429 . S
C603 H625 0.950 . S
C604 H600 0.949 . S
C604 C612 1.574 . S
C604 C620 1.368 1_565 S
H605 C613 0.950 . S
H606 C611 0.950 . S
H607 C612 0.949 . S
H608 C614 0.950 . S
H609 C615 0.950 . S
H610 C616 0.949 . S
C611 H606 0.950 . S
C611 C613 1.327 . S
C611 C617 1.429 . S
C612 C604 1.574 . S
C612 H607 0.949 . S
C612 C618 1.368 . S
C613 C597 1.349 . S
C613 H605 0.950 . S
C613 C611 1.327 . S
C614 C602 1.349 . S
C614 H608 0.950 . S
C614 C615 1.327 . S
C615 H609 0.950 . S
C615 C614 1.327 . S
C615 C619 1.429 . S
C616 C599 1.574 . S
C616 H610 0.949 . S
C616 C620 1.368 . S
C617 C598 1.429 . S
C617 C611 1.429 . S
C617 C618 1.523 . S
C618 C599 1.368 1_565 S
C618 C612 1.368 . S
C618 C617 1.523 . S
C619 C603 1.429 . S
C619 C615 1.429 . S
C619 C620 1.523 . S
C620 C604 1.368 1_545 S
C620 C616 1.368 . S
C620 C619 1.523 . S
H621 C596 0.950 . S
H622 C598 0.950 . S
H623 C599 0.949 . S
H624 C601 0.950 . S
H625 C603 0.950 . S
C626 C627 1.349 . S
C626 C628 1.327 . S
C626 H651 0.950 . S
C627 C626 1.349 . S
C627 C643 1.349 . S
C628 C626 1.327 . S
C628 C647 1.429 . S
C628 H652 0.950 . S
C629 C646 1.574 . S
C629 C648 1.368 1_565 S
C629 H653 0.949 . S
H630 C634 0.949 . S
C631 C632 1.349 . S
C631 C633 1.327 . S
C631 H654 0.950 . S
C632 C631 1.349 . S
C632 C644 1.349 . S
C633 C631 1.327 . S
C633 C649 1.429 . S
C633 H655 0.950 . S
C634 H630 0.949 . S
C634 C642 1.574 . S
C634 C650 1.368 1_545 S
H635 C643 0.950 . S
H636 C641 0.950 . S
H637 C642 0.949 . S
H638 C644 0.950 . S
H639 C645 0.950 . S
H640 C646 0.949 . S
C641 H636 0.950 . S
C641 C643 1.327 . S
C641 C647 1.429 . S
C642 C634 1.574 . S
C642 H637 0.949 . S
C642 C648 1.368 . S
C643 C627 1.349 . S
C643 H635 0.950 . S
C643 C641 1.327 . S
C644 C632 1.349 . S
C644 H638 0.950 . S
C644 C645 1.327 . S
C645 H639 0.950 . S
C645 C644 1.327 . S
C645 C649 1.429 . S
C646 C629 1.574 . S
C646 H640 0.949 . S
C646 C650 1.368 . S
C647 C628 1.429 . S
C647 C641 1.429 . S
C647 C648 1.523 . S
C648 C629 1.368 1_545 S
C648 C642 1.368 . S
C648 C647 1.523 . S
C649 C633 1.429 . S
C649 C645 1.429 . S
C649 C650 1.523 . S
C650 C634 1.368 1_565 S
C650 C646 1.368 . S
C650 C649 1.523 . S
H651 C626 0.950 . S
H652 C628 0.950 . S
H653 C629 0.949 . S
H654 C631 0.950 . S
H655 C633 0.950 . S
C656 C657 1.349 . S
C656 C658 1.327 . S
C656 H681 0.950 . S
C657 C656 1.349 . S
C657 C673 1.349 . S
C658 C656 1.327 . S
C658 C677 1.429 . S
C658 H682 0.950 . S
C659 C676 1.574 . S
C659 C678 1.368 . S
C659 H683 0.949 . S
H660 C664 0.949 . S
C661 C662 1.349 . S
C661 C663 1.327 . S
C661 H684 0.950 . S
C662 C661 1.349 . S
C662 C674 1.349 . S
C663 C661 1.327 . S
C663 C679 1.429 . S
C663 H685 0.950 . S
C664 H660 0.949 . S
C664 C672 1.574 . S
C664 C680 1.368 . S
H665 C673 0.950 . S
H666 C671 0.950 . S
H667 C672 0.949 . S
H668 C674 0.950 . S
H669 C675 0.950 . S
H670 C676 0.949 . S
C671 H666 0.950 . S
C671 C673 1.327 . S
C671 C677 1.429 . S
C672 C664 1.574 . S
C672 H667 0.949 . S
C672 C678 1.368 . S
C673 C657 1.349 . S
C673 H665 0.950 . S
C673 C671 1.327 . S
C674 C662 1.349 . S
C674 H668 0.950 . S
C674 C675 1.327 . S
C675 H669 0.950 . S
C675 C674 1.327 . S
C675 C679 1.429 . S
C676 C659 1.574 . S
C676 H670 0.949 . S
C676 C680 1.368 . S
C677 C658 1.429 . S
C677 C671 1.429 . S
C677 C678 1.523 . S
C678 C659 1.368 . S
C678 C672 1.368 . S
C678 C677 1.523 . S
C679 C663 1.429 . S
C679 C675 1.429 . S
C679 C680 1.523 . S
C680 C664 1.368 . S
C680 C676 1.368 . S
C680 C679 1.523 . S
H681 C656 0.950 . S
H682 C658 0.950 . S
H683 C659 0.949 . S
H684 C661 0.950 . S
H685 C663 0.950 . S
C686 C687 1.349 . S
C686 C688 1.327 . S
C686 H711 0.950 . S
C687 C686 1.349 . S
C687 C703 1.349 . S
C688 C686 1.327 . S
C688 C707 1.429 . S
C688 H712 0.950 . S
C689 C706 1.574 . S
C689 C708 1.368 . S
C689 H713 0.949 . S
H690 C694 0.949 . S
C691 C692 1.349 . S
C691 C693 1.327 . S
C691 H714 0.950 . S
C692 C691 1.349 . S
C692 C704 1.349 . S
C693 C691 1.327 . S
C693 C709 1.429 . S
C693 H715 0.950 . S
C694 H690 0.949 . S
C694 C702 1.574 . S
C694 C710 1.368 . S
H695 C703 0.950 . S
H696 C701 0.950 . S
H697 C702 0.949 . S
H698 C704 0.950 . S
H699 C705 0.950 . S
H700 C706 0.949 . S
C701 H696 0.950 . S
C701 C703 1.327 . S
C701 C707 1.429 . S
C702 C694 1.574 . S
C702 H697 0.949 . S
C702 C708 1.368 . S
C703 C687 1.349 . S
C703 H695 0.950 . S
C703 C701 1.327 . S
C704 C692 1.349 . S
C704 H698 0.950 . S
C704 C705 1.327 . S
C705 H699 0.950 . S
C705 C704 1.327 . S
C705 C709 1.429 . S
C706 C689 1.574 . S
C706 H700 0.949 . S
C706 C710 1.368 . S
C707 C688 1.429 . S
C707 C701 1.429 . S
C707 C708 1.523 . S
C708 C689 1.368 . S
C708 C702 1.368 . S
C708 C707 1.523 . S
C709 C693 1.429 . S
C709 C705 1.429 . S
C709 C710 1.523 . S
C710 C694 1.368 . S
C710 C706 1.368 . S
C710 C709 1.523 . S
H711 C686 0.950 . S
H712 C688 0.950 . S
H713 C689 0.949 . S
H714 C691 0.950 . S
H715 C693 0.950 . S
C716 C717 1.349 . S
C716 C718 1.327 . S
C716 H741 0.950 . S
C717 C716 1.349 . S
C717 C733 1.349 . S
C718 C716 1.327 . S
C718 C737 1.429 . S
C718 H742 0.950 . S
C719 C736 1.574 . S
C719 C738 1.368 . S
C719 H743 0.949 . S
H720 C724 0.949 . S
C721 C722 1.349 . S
C721 C723 1.327 . S
C721 H744 0.950 . S
C722 C721 1.349 . S
C722 C734 1.349 . S
C723 C721 1.327 . S
C723 C739 1.429 . S
C723 H745 0.950 . S
C724 H720 0.949 . S
C724 C732 1.574 . S
C724 C740 1.368 . S
H725 C733 0.950 . S
H726 C731 0.950 . S
H727 C732 0.949 . S
H728 C734 0.950 . S
H729 C735 0.950 . S
H730 C736 0.949 . S
C731 H726 0.950 . S
C731 C733 1.327 . S
C731 C737 1.429 . S
C732 C724 1.574 . S
C732 H727 0.949 . S
C732 C738 1.368 . S
C733 C717 1.349 . S
C733 H725 0.950 . S
C733 C731 1.327 . S
C734 C722 1.349 . S
C734 H728 0.950 . S
C734 C735 1.327 . S
C735 H729 0.950 . S
C735 C734 1.327 . S
C735 C739 1.429 . S
C736 C719 1.574 . S
C736 H730 0.949 . S
C736 C740 1.368 . S
C737 C718 1.429 . S
C737 C731 1.429 . S
C737 C738 1.523 . S
C738 C719 1.368 . S
C738 C732 1.368 . S
C738 C737 1.523 . S
C739 C723 1.429 . S
C739 C735 1.429 . S
C739 C740 1.523 . S
C740 C724 1.368 . S
C740 C736 1.368 . S
C740 C739 1.523 . S
H741 C716 0.950 . S
H742 C718 0.950 . S
H743 C719 0.949 . S
H744 C721 0.950 . S
H745 C723 0.950 . S
C746 C747 1.349 . S
C746 C748 1.327 . S
C746 H771 0.950 . S
C747 C746 1.349 . S
C747 C763 1.349 . S
C748 C746 1.327 . S
C748 C767 1.429 . S
C748 H772 0.950 . S
C749 C766 1.574 . S
C749 C768 1.368 . S
C749 H773 0.949 . S
H750 C754 0.949 . S
C751 C752 1.349 . S
C751 C753 1.327 . S
C751 H774 0.950 . S
C752 C751 1.349 . S
C752 C764 1.349 . S
C753 C751 1.327 . S
C753 C769 1.429 . S
C753 H775 0.950 . S
C754 H750 0.949 . S
C754 C762 1.574 . S
C754 C770 1.368 . S
H755 C763 0.950 . S
H756 C761 0.950 . S
H757 C762 0.949 . S
H758 C764 0.950 . S
H759 C765 0.950 . S
H760 C766 0.949 . S
C761 H756 0.950 . S
C761 C763 1.327 . S
C761 C767 1.429 . S
C762 C754 1.574 . S
C762 H757 0.949 . S
C762 C768 1.368 . S
C763 C747 1.349 . S
C763 H755 0.950 . S
C763 C761 1.327 . S
C764 C752 1.349 . S
C764 H758 0.950 . S
C764 C765 1.327 . S
C765 H759 0.950 . S
C765 C764 1.327 . S
C765 C769 1.429 . S
C766 C749 1.574 . S
C766 H760 0.949 . S
C766 C770 1.368 . S
C767 C748 1.429 . S
C767 C761 1.429 . S
C767 C768 1.523 . S
C768 C749 1.368 . S
C768 C762 1.368 . S
C768 C767 1.523 . S
C769 C753 1.429 . S
C769 C765 1.429 . S
C769 C770 1.523 . S
C770 C754 1.368 . S
C770 C766 1.368 . S
C770 C769 1.523 . S
H771 C746 0.950 . S
H772 C748 0.950 . S
H773 C749 0.949 . S
H774 C751 0.950 . S
H775 C753 0.950 . S
C776 C777 1.349 . S
C776 C778 1.327 . S
C776 H801 0.950 . S
C777 C776 1.349 . S
C777 C793 1.349 . S
C778 C776 1.327 . S
C778 C797 1.429 . S
C778 H802 0.950 . S
C779 C796 1.574 . S
C779 C798 1.368 . S
C779 H803 0.949 . S
H780 C784 0.949 . S
C781 C782 1.349 . S
C781 C783 1.327 . S
C781 H804 0.950 . S
C782 C781 1.349 . S
C782 C794 1.349 . S
C783 C781 1.327 . S
C783 C799 1.429 . S
C783 H805 0.950 . S
C784 H780 0.949 . S
C784 C792 1.574 . S
C784 C800 1.368 . S
H785 C793 0.950 . S
H786 C791 0.950 . S
H787 C792 0.949 . S
H788 C794 0.950 . S
H789 C795 0.950 . S
H790 C796 0.949 . S
C791 H786 0.950 . S
C791 C793 1.327 . S
C791 C797 1.429 . S
C792 C784 1.574 . S
C792 H787 0.949 . S
C792 C798 1.368 . S
C793 C777 1.349 . S
C793 H785 0.950 . S
C793 C791 1.327 . S
C794 C782 1.349 . S
C794 H788 0.950 . S
C794 C795 1.327 . S
C795 H789 0.950 . S
C795 C794 1.327 . S
C795 C799 1.429 . S
C796 C779 1.574 . S
C796 H790 0.949 . S
C796 C800 1.368 . S
C797 C778 1.429 . S
C797 C791 1.429 . S
C797 C798 1.523 . S
C798 C779 1.368 . S
C798 C792 1.368 . S
C798 C797 1.523 . S
C799 C783 1.429 . S
C799 C795 1.429 . S
C799 C800 1.523 . S
C800 C784 1.368 . S
C800 C796 1.368 . S
C800 C799 1.523 . S
H801 C776 0.950 . S
H802 C778 0.950 . S
H803 C779 0.949 . S
H804 C781 0.950 . S
H805 C783 0.950 . S
C806 C807 1.349 . S
C806 C808 1.327 . S
C806 H831 0.950 . S
C807 C806 1.349 . S
C807 C823 1.349 . S
C808 C806 1.327 . S
C808 C827 1.429 . S
C808 H832 0.950 . S
C809 C826 1.574 . S
C809 C828 1.368 . S
C809 H833 0.949 . S
H810 C814 0.949 . S
C811 C812 1.349 . S
C811 C813 1.327 . S
C811 H834 0.950 . S
C812 C811 1.349 . S
C812 C824 1.349 . S
C813 C811 1.327 . S
C813 C829 1.429 . S
C813 H835 0.950 . S
C814 H810 0.949 . S
C814 C822 1.574 . S
C814 C830 1.368 . S
H815 C823 0.950 . S
H816 C821 0.950 . S
H817 C822 0.949 . S
H818 C824 0.950 . S
H819 C825 0.950 . S
H820 C826 0.949 . S
C821 H816 0.950 . S
C821 C823 1.327 . S
C821 C827 1.429 . S
C822 C814 1.574 . S
C822 H817 0.949 . S
C822 C828 1.368 . S
C823 C807 1.349 . S
C823 H815 0.950 . S
C823 C821 1.327 . S
C824 C812 1.349 . S
C824 H818 0.950 . S
C824 C825 1.327 . S
C825 H819 0.950 . S
C825 C824 1.327 . S
C825 C829 1.429 . S
C826 C809 1.574 . S
C826 H820 0.949 . S
C826 C830 1.368 . S
C827 C808 1.429 . S
C827 C821 1.429 . S
C827 C828 1.523 . S
C828 C809 1.368 . S
C828 C822 1.368 . S
C828 C827 1.523 . S
C829 C813 1.429 . S
C829 C825 1.429 . S
C829 C830 1.523 . S
C830 C814 1.368 . S
C830 C826 1.368 . S
C830 C829 1.523 . S
H831 C806 0.950 . S
H832 C808 0.950 . S
H833 C809 0.949 . S
H834 C811 0.950 . S
H835 C813 0.950 . S
C836 C837 1.349 . S
C836 C838 1.327 . S
C836 H861 0.950 . S
C837 C836 1.349 . S
C837 C853 1.349 . S
C838 C836 1.327 . S
C838 C857 1.429 . S
C838 H862 0.950 . S
C839 C856 1.574 . S
C839 C858 1.368 . S
C839 H863 0.949 . S
H840 C844 0.949 . S
C841 C842 1.349 . S
C841 C843 1.327 . S
C841 H864 0.950 . S
C842 C841 1.349 . S
C842 C854 1.349 . S
C843 C841 1.327 . S
C843 C859 1.429 . S
C843 H865 0.950 . S
C844 H840 0.949 . S
C844 C852 1.574 . S
C844 C860 1.368 . S
H845 C853 0.950 . S
H846 C851 0.950 . S
H847 C852 0.949 . S
H848 C854 0.950 . S
H849 C855 0.950 . S
H850 C856 0.949 . S
C851 H846 0.950 . S
C851 C853 1.327 . S
C851 C857 1.429 . S
C852 C844 1.574 . S
C852 H847 0.949 . S
C852 C858 1.368 . S
C853 C837 1.349 . S
C853 H845 0.950 . S
C853 C851 1.327 . S
C854 C842 1.349 . S
C854 H848 0.950 . S
C854 C855 1.327 . S
C855 H849 0.950 . S
C855 C854 1.327 . S
C855 C859 1.429 . S
C856 C839 1.574 . S
C856 H850 0.949 . S
C856 C860 1.368 . S
C857 C838 1.429 . S
C857 C851 1.429 . S
C857 C858 1.523 . S
C858 C839 1.368 . S
C858 C852 1.368 . S
C858 C857 1.523 . S
C859 C843 1.429 . S
C859 C855 1.429 . S
C859 C860 1.523 . S
C860 C844 1.368 . S
C860 C856 1.368 . S
C860 C859 1.523 . S
H861 C836 0.950 . S
H862 C838 0.950 . S
H863 C839 0.949 . S
H864 C841 0.950 . S
H865 C843 0.950 . S
C866 C867 1.349 . S
C866 C868 1.327 . S
C866 H891 0.950 . S
C867 C866 1.349 . S
C867 C883 1.349 . S
C868 C866 1.327 . S
C868 C887 1.429 . S
C868 H892 0.950 . S
C869 C886 1.574 . S
C869 C888 1.368 . S
C869 H893 0.949 . S
H870 C874 0.949 . S
C871 C872 1.349 . S
C871 C873 1.327 . S
C871 H894 0.950 . S
C872 C871 1.349 . S
C872 C884 1.349 . S
C873 C871 1.327 . S
C873 C889 1.429 . S
C873 H895 0.950 . S
C874 H870 0.949 . S
C874 C882 1.574 . S
C874 C890 1.368 . S
H875 C883 0.950 . S
H876 C881 0.950 . S
H877 C882 0.949 . S
H878 C884 0.950 . S
H879 C885 0.950 . S
H880 C886 0.949 . S
C881 H876 0.950 . S
C881 C883 1.327 . S
C881 C887 1.429 . S
C882 C874 1.574 . S
C882 H877 0.949 . S
C882 C888 1.368 . S
C883 C867 1.349 . S
C883 H875 0.950 . S
C883 C881 1.327 . S
C884 C872 1.349 . S
C884 H878 0.950 . S
C884 C885 1.327 . S
C885 H879 0.950 . S
C885 C884 1.327 . S
C885 C889 1.429 . S
C886 C869 1.574 . S
C886 H880 0.949 . S
C886 C890 1.368 . S
C887 C868 1.429 . S
C887 C881 1.429 . S
C887 C888 1.523 . S
C888 C869 1.368 . S
C888 C882 1.368 . S
C888 C887 1.523 . S
C889 C873 1.429 . S
C889 C885 1.429 . S
C889 C890 1.523 . S
C890 C874 1.368 . S
C890 C886 1.368 . S
C890 C889 1.523 . S
H891 C866 0.950 . S
H892 C868 0.950 . S
H893 C869 0.949 . S
H894 C871 0.950 . S
H895 C873 0.950 . S
C177 C10 1.551 . S
C182 C131 1.542 . S
C212 C95 1.545 . S
C207 C21 1.553 . S
C242 C118 1.621 . S
C237 C32 1.614 . S
C272 C106 1.484 . S
C267 C43 1.481 . S
C302 C175 1.542 . S
C297 C54 1.551 . S
C332 C139 1.545 . S
C327 C65 1.552 . S
C357 C76 1.614 . S
C362 C162 1.621 . S
C392 C150 1.484 . S
C387 C87 1.481 . S
C417 C5 1.499 . S
C422 C172 1.530 . S
C452 C142 1.508 . S
C447 C16 1.477 . S
C477 C27 1.586 . S
C482 C161 1.607 . S
C507 C37 1.448 . S
C512 C147 1.455 . S
C542 C128 1.530 . S
C537 C49 1.499 . S
C567 C60 1.477 . S
C572 C98 1.508 . S
C602 C117 1.607 . S
C597 C71 1.586 . S
C632 C103 1.455 . S
C627 C81 1.448 . S
C662 C153 1.532 . S
C657 C4 1.528 . S
C692 C169 1.515 . S
C687 C15 1.509 . S
C717 C26 1.493 . S
C722 C140 1.499 . S
C752 C164 1.485 . S
C747 C38 1.455 . S
C782 C109 1.532 . S
C777 C48 1.528 . S
C807 C59 1.509 . S
C812 C125 1.515 . S
C837 C70 1.493 . S
C842 C96 1.499 . S
C867 C82 1.455 . S
C872 C120 1.485 . S
