# Generated by pormake.
# Topology anh, (6,3)-cn, num edge types: 1
# Building blocks:
#     Node 0, Type 0, BuildingBlock: GEDQOX_clean_sbu_0, # of connection points: 6
#     Node 1, Type 0, BuildingBlock: GEDQOX_clean_sbu_0, # of connection points: 6
#     Node 2, Type 0, BuildingBlock: GEDQOX_clean_sbu_0, # of connection points: 6
#     Node 3, Type 1, BuildingBlock: BELTOD_clean_linker_0, # of connection points: 3
#     Node 4, Type 1, BuildingBlock: BELTOD_clean_linker_0, # of connection points: 3
#     Node 5, Type 1, BuildingBlock: BELTOD_clean_linker_0, # of connection points: 3
#     Node 6, Type 1, BuildingBlock: BELTOD_clean_linker_0, # of connection points: 3
#     Node 7, Type 1, BuildingBlock: BELTOD_clean_linker_0, # of connection points: 3
#     Node 8, Type 1, BuildingBlock: BELTOD_clean_linker_0, # of connection points: 3
#     Edge 9, Type (0, 1), None
#     Edge 10, Type (0, 1), None
#     Edge 11, Type (0, 1), None
#     Edge 12, Type (0, 1), None
#     Edge 13, Type (0, 1), None
#     Edge 14, Type (0, 1), None
#     Edge 15, Type (0, 1), None
#     Edge 16, Type (0, 1), None
#     Edge 17, Type (0, 1), None
#     Edge 18, Type (0, 1), None
#     Edge 19, Type (0, 1), None
#     Edge 20, Type (0, 1), None
#     Edge 21, Type (0, 1), None
#     Edge 22, Type (0, 1), None
#     Edge 23, Type (0, 1), None
#     Edge 24, Type (0, 1), None
#     Edge 25, Type (0, 1), None
#     Edge 26, Type (0, 1), None
# Relax obj value: 0.313
# Max RMSD: 0.276
# Mean RMSD: 0.183
data_MOF--net-anh--node1-GEDQOX_clean_sbu_0--node2-BELTOD_clean_linker_0--edge1-none
_symmetry_space_group_name_H-M    P1
_symmetry_Int_Tables_number       1
_symmetry_cell_setting            triclinic
loop_
_symmetry_equiv_pos_as_xyz
'x, y, z'
_cell_length_a     18.839113
_cell_length_b     17.586489
_cell_length_c     32.20376
_cell_angle_alpha  92.203692
_cell_angle_beta   90.420607
_cell_angle_gamma 96.001977
loop_
_atom_site_label
_atom_site_type_symbol
_atom_site_fract_x
_atom_site_fract_y
_atom_site_fract_z
_atom_type_partial_charge
Nd0 Nd 1.09406 0.66578 0.13718 0.0
Nd1 Nd 1.06867 0.48695 0.10548 0.0
C2 C 0.14112 0.81229 0.14882 0.0
C3 C 0.2147 0.85149 0.15196 0.0
C4 C 0.27097 0.82148 0.13065 0.0
C5 C 0.34202 0.84671 0.141 0.0
C6 C 0.35869 0.90182 0.17336 0.0
C7 C 0.30243 0.93542 0.19291 0.0
C8 C 0.23114 0.91029 0.18237 0.0
C9 C 1.06695 0.56946 0.20272 0.0
C10 C 0.2422 0.56553 0.11841 0.0
C11 C 1.04345 0.33663 0.10766 0.0
C12 C 0.98749 0.28661 0.12855 0.0
C13 C 0.95685 0.31133 0.16576 0.0
C14 C 0.90303 0.26446 0.18506 0.0
C15 C 0.87796 0.19207 0.16739 0.0
C16 C 0.90869 0.16777 0.13001 0.0
C17 C 0.96284 0.2145 0.11087 0.0
C18 C 1.09165 0.59435 0.04602 0.0
C19 C 0.9228 0.5856 0.11564 0.0
O20 O 0.11794 0.78268 0.11255 0.0
O21 O 0.12471 0.76655 0.17907 0.0
O22 O 1.07872 0.64302 0.20749 0.0
O23 O 1.0674 0.55304 0.16457 0.0
O24 O 0.21533 0.63151 0.12977 0.0
O25 O 0.19669 0.50279 0.10875 0.0
O26 O 1.09007 0.37731 0.13211 0.0
O27 O 1.02188 0.37555 0.07688 0.0
O28 O 1.05374 0.5288 0.03821 0.0
O29 O 0.11904 0.5956 0.08156 0.0
O30 O 0.95008 0.5182 0.11644 0.0
O31 O 0.96788 0.65109 0.118 0.0
H32 H 0.26053 0.77549 0.10757 0.0
H33 H 0.38409 0.8208 0.12475 0.0
H34 H 0.31329 0.97773 0.2181 0.0
H35 H 0.18882 0.93359 0.19974 0.0
H36 H 0.9743 0.36718 0.17985 0.0
H37 H 0.88023 0.28548 0.2135 0.0
H38 H 0.89152 0.11205 0.11575 0.0
H39 H 0.98544 0.1943 0.08216 0.0
Nd40 Nd 0.55103 0.94073 0.51353 0.0
Nd41 Nd 0.70466 0.95529 0.50882 0.0
C42 C 0.41447 0.89199 0.52195 0.0
C43 C 0.37392 0.82684 0.49932 0.0
C44 C 0.3071 0.79506 0.51291 0.0
C45 C 0.27068 0.73179 0.49111 0.0
C46 C 0.30058 0.69986 0.45533 0.0
C47 C 0.36795 0.73169 0.44232 0.0
C48 C 0.40419 0.79423 0.4641 0.0
C49 C 0.60007 0.96059 0.4336 0.0
C50 C 0.63454 0.78143 0.51227 0.0
C51 C 0.84053 0.9934 0.49105 0.0
C52 C 0.88518 0.0586 0.47454 0.0
C53 C 0.85506 0.1148 0.45244 0.0
C54 C 0.89897 0.17459 0.43539 0.0
C55 C 0.97364 0.17891 0.44015 0.0
C56 C 1.00311 0.12338 0.46331 0.0
C57 C 0.95924 0.06379 0.48028 0.0
C58 C 0.65741 0.93257 0.58838 0.0
C59 C 0.62315 0.11259 0.51945 0.0
O60 O 0.46421 0.8739 0.54708 0.0
O61 O 0.43682 0.94941 0.49921 0.0
O62 O 0.54836 0.99427 0.44953 0.0
O63 O 0.62337 0.91644 0.45922 0.0
O64 O 0.57592 0.81405 0.52098 0.0
O65 O 0.6929 0.82394 0.50159 0.0
O66 O 0.79473 0.95585 0.46507 0.0
O67 O 0.81409 1.00383 0.52794 0.0
O68 O 0.70833 0.89865 0.57129 0.0
O69 O 0.63265 0.97801 0.5638 0.0
O70 O 0.67602 0.08005 0.50153 0.0
O71 O 0.56871 0.0687 0.53444 0.0
H72 H 0.28322 0.81904 0.54026 0.0
H73 H 0.21883 0.70859 0.50184 0.0
H74 H 0.39321 0.70764 0.41547 0.0
H75 H 0.45629 0.81712 0.45348 0.0
H76 H 0.7978 0.11169 0.44777 0.0
H77 H 0.87462 0.21604 0.41748 0.0
H78 H 1.06027 0.12576 0.46816 0.0
H79 H 0.98328 0.02116 0.49752 0.0
Nd80 Nd 0.52143 0.43488 0.8145 0.0
Nd81 Nd 0.67114 0.45954 0.83769 0.0
C82 C 0.39355 0.42258 0.78154 0.0
C83 C 0.34896 0.48671 0.78296 0.0
C84 C 0.37718 0.55858 0.76879 0.0
C85 C 0.35518 0.62588 0.78634 0.0
C86 C 0.30429 0.62184 0.81777 0.0
C87 C 0.2681 0.55038 0.82684 0.0
C88 C 0.29027 0.48314 0.8095 0.0
C89 C 0.54573 0.47649 0.89818 0.0
C90 C 0.59259 0.61095 0.82187 0.0
C91 C 0.7986 0.48631 0.87099 0.0
C92 C 0.84271 0.56021 0.87284 0.0
C93 C 0.91417 0.56412 0.86115 0.0
C94 C 0.95412 0.63502 0.85862 0.0
C95 C 0.9231 0.70337 0.86752 0.0
C96 C 0.85144 0.6993 0.87925 0.0
C97 C 0.81151 0.62831 0.88178 0.0
C98 C 0.64712 0.4733 0.75403 0.0
C99 C 0.60253 0.27976 0.82327 0.0
O100 O 0.45108 0.43286 0.75902 0.0
O101 O 0.40606 0.39474 0.81781 0.0
O102 O 0.49938 0.50488 0.87502 0.0
O103 O 0.5765 0.42785 0.87725 0.0
O104 O 0.54714 0.56309 0.79978 0.0
O105 O 0.63931 0.58301 0.84621 0.0
O106 O 0.74057 0.48318 0.89322 0.0
O107 O 0.78807 0.45481 0.83367 0.0
O108 O 0.69002 0.52134 0.77619 0.0
O109 O 0.61844 0.42113 0.77602 0.0
O110 O 0.6601 0.32693 0.83353 0.0
O111 O 0.54125 0.30681 0.8148 0.0
H112 H 0.42175 0.56353 0.74767 0.0
H113 H 0.38264 0.6804 0.77822 0.0
H114 H 0.22663 0.54623 0.85004 0.0
H115 H 0.26707 0.42872 0.82054 0.0
H116 H 0.93889 0.51243 0.85371 0.0
H117 H 1.01001 0.63607 0.85075 0.0
H118 H 0.82649 0.75085 0.88667 0.0
H119 H 0.75608 0.62691 0.89055 0.0
P120 P 0.66125 0.96003 0.2474 0.0
H121 H 0.57376 0.82207 0.21686 0.0
H122 H 0.45364 0.79864 0.18751 0.0
H123 H 0.43287 0.041 0.19642 0.0
H124 H 0.55464 0.06427 0.22553 0.0
H125 H 0.77264 0.07499 0.28305 0.0
H126 H 0.86151 0.16528 0.25067 0.0
H127 H 0.76425 0.10389 0.1305 0.0
H128 H 0.67636 0.01349 0.16304 0.0
H129 H 0.71954 0.87991 0.31646 0.0
H130 H 0.57915 0.05582 0.30181 0.0
O131 O 0.70262 0.88238 0.23644 0.0
H132 H 0.69377 0.87832 0.39085 0.0
H133 H 0.55275 0.05389 0.37609 0.0
C134 C 0.5737 0.94504 0.22302 0.0
C135 C 0.54407 0.87049 0.21197 0.0
C136 C 0.47518 0.85715 0.19501 0.0
C137 C 0.43365 0.91802 0.18923 0.0
C138 C 0.46336 0.99288 0.20049 0.0
C139 C 0.53296 1.00625 0.21705 0.0
C140 C 0.71659 0.03874 0.22566 0.0
C141 C 0.76932 0.08244 0.2499 0.0
C142 C 0.82036 0.13395 0.23125 0.0
C143 C 0.82048 0.14175 0.18784 0.0
C144 C 0.76649 0.09886 0.16389 0.0
C145 C 0.71543 0.04782 0.18257 0.0
C146 C 0.65055 0.96737 0.30326 0.0
C147 C 0.68362 0.91869 0.32919 0.0
C148 C 0.6688 0.91758 0.37182 0.0
C149 C 0.62041 0.96505 0.38923 0.0
C150 C 0.58967 0.01592 0.3635 0.0
C151 C 0.60481 0.01727 0.32097 0.0
P152 P 0.67554 0.45664 0.5654 0.0
H153 H 0.75179 0.353 0.51259 0.0
H154 H 0.73381 0.21609 0.49716 0.0
H155 H 0.52466 0.2064 0.55175 0.0
H156 H 0.54277 0.34569 0.56658 0.0
H157 H 0.75111 0.55922 0.50631 0.0
H158 H 0.73809 0.69034 0.48772 0.0
H159 H 0.53673 0.67988 0.55131 0.0
H160 H 0.55092 0.54837 0.57065 0.0
H161 H 0.63042 0.33992 0.62729 0.0
H162 H 0.6842 0.58458 0.62652 0.0
O163 O 0.76466 0.4653 0.56603 0.0
H164 H 0.61787 0.34776 0.70225 0.0
H165 H 0.67583 0.59158 0.70239 0.0
C166 C 0.64946 0.36068 0.54174 0.0
C167 C 0.70116 0.32242 0.52055 0.0
C168 C 0.6909 0.2431 0.5119 0.0
C169 C 0.62844 0.19877 0.52416 0.0
C170 C 0.57401 0.23795 0.54239 0.0
C171 C 0.58405 0.31811 0.55054 0.0
C172 C 0.65225 0.54293 0.54022 0.0
C173 C 0.70314 0.58403 0.51555 0.0
C174 C 0.69588 0.65986 0.50507 0.0
C175 C 0.63687 0.69702 0.51842 0.0
C176 C 0.58316 0.6538 0.5405 0.0
C177 C 0.59088 0.5779 0.55136 0.0
C178 C 0.65453 0.46226 0.62033 0.0
C179 C 0.63682 0.39585 0.64264 0.0
C180 C 0.63066 0.4001 0.68594 0.0
C181 C 0.64557 0.47032 0.70808 0.0
C182 C 0.66364 0.53674 0.68601 0.0
C183 C 0.66779 0.53276 0.64256 0.0
P184 P 0.17608 0.84643 0.92546 0.0
H185 H 0.24744 0.87049 0.84342 0.0
H186 H 0.2881 0.77022 0.79649 0.0
H187 H 0.30846 0.62845 0.90147 0.0
H188 H 0.26533 0.72504 0.94684 0.0
H189 H 1.03828 0.89139 0.95017 0.0
H190 H 0.92753 0.81717 0.92841 0.0
H191 H 1.02331 0.75689 0.8121 0.0
H192 H 0.13322 0.82805 0.8341 0.0
H193 H 0.21341 0.82626 0.01268 0.0
H194 H 1.07557 0.70694 0.91861 0.0
O195 O 0.21005 0.92865 0.94879 0.0
H196 H 0.18587 0.7196 0.05814 0.0
H197 H 1.04054 0.60548 0.96651 0.0
C198 C 0.2437 0.80053 0.89736 0.0
C199 C 0.26012 0.81734 0.85608 0.0
C200 C 0.28379 0.76052 0.82942 0.0
C201 C 0.29499 0.68919 0.8451 0.0
C202 C 0.29444 0.68064 0.88817 0.0
C203 C 0.26978 0.73642 0.91421 0.0
C204 C 1.0966 0.85912 0.89582 0.0
C205 C 1.03451 0.86625 0.91888 0.0
C206 C 0.97081 0.82321 0.90644 0.0
C207 C 0.96914 0.77675 0.86987 0.0
C208 C 1.02505 0.78863 0.84167 0.0
C209 C 1.08895 0.82956 0.85471 0.0
C210 C 0.14362 0.77713 0.96297 0.0
C211 C 0.17418 0.7796 0.0027 0.0
C212 C 0.15796 0.71888 0.02886 0.0
C213 C 0.10826 0.65645 0.01687 0.0
C214 C 1.07754 0.65384 0.97709 0.0
C215 C 1.0965 0.71279 0.95003 0.0
P216 P 0.16887 0.42034 0.35271 0.0
H217 H 0.17595 0.45582 0.44358 0.0
H218 H 0.22926 0.56831 0.48461 0.0
H219 H 0.28684 0.68155 0.37114 0.0
H220 H 0.23473 0.56939 0.33065 0.0
H221 H 0.1755 0.2579 0.36501 0.0
H222 H 1.09726 0.16125 0.39912 0.0
H223 H 0.95695 0.33176 0.434 0.0
H224 H 1.03574 0.42874 0.39892 0.0
H225 H 0.17413 0.37709 0.26381 0.0
H226 H 1.06313 0.52826 0.34261 0.0
O227 O 0.24126 0.38072 0.3369 0.0
H228 H 0.13309 0.43849 0.20239 0.0
H229 H 1.02187 0.58932 0.28122 0.0
C230 C 0.20025 0.5047 0.38401 0.0
C231 C 0.199 0.50535 0.42759 0.0
C232 C 0.22939 0.56974 0.45102 0.0
C233 C 0.26249 0.63382 0.43114 0.0
C234 C 0.2625 0.63294 0.38746 0.0
C235 C 0.23215 0.56898 0.36424 0.0
C236 C 0.11179 0.35069 0.3798 0.0
C237 C 0.12827 0.27489 0.38021 0.0
C238 C 1.08352 0.21957 0.39995 0.0
C239 C 1.0211 0.23883 0.41963 0.0
C240 C 1.00442 0.31498 0.41893 0.0
C241 C 1.0495 0.3705 0.39912 0.0
C242 C 0.12285 0.44938 0.30774 0.0
C243 C 0.13896 0.42166 0.26783 0.0
C244 C 0.11463 0.45593 0.23264 0.0
C245 C 1.07392 0.51806 0.23714 0.0
C246 C 1.05292 0.54114 0.27702 0.0
C247 C 1.07666 0.50652 0.31208 0.0
P248 P 0.65244 0.94624 0.77768 0.0
H249 H 0.73678 0.07207 0.82406 0.0
H250 H 0.71899 0.20444 0.84 0.0
H251 H 0.50117 0.16154 0.79566 0.0
H252 H 0.51953 0.02685 0.77969 0.0
H253 H 0.69475 0.86192 0.84935 0.0
H254 H 0.67561 0.72647 0.86497 0.0
H255 H 0.51716 0.68965 0.76684 0.0
H256 H 0.53597 0.82569 0.7517 0.0
H257 H 0.59914 0.04786 0.7141 0.0
H258 H 0.68723 0.83114 0.71683 0.0
O259 O 0.7406 0.94811 0.78438 0.0
H260 H 0.6009 0.04112 0.63816 0.0
H261 H 0.69036 0.82527 0.6411 0.0
C262 C 0.62982 0.03831 0.80006 0.0
C263 C 0.68444 0.08985 0.81834 0.0
C264 C 0.67427 0.16662 0.8274 0.0
C265 C 0.60897 0.19508 0.81854 0.0
C266 C 0.55249 0.14235 0.80273 0.0
C267 C 0.56273 0.0648 0.79381 0.0
C268 C 0.61717 0.85502 0.79916 0.0
C269 C 0.65401 0.82553 0.83205 0.0
C270 C 0.64357 0.74728 0.84066 0.0
C271 C 0.59569 0.69601 0.81672 0.0
C272 C 0.5547 0.72681 0.78592 0.0
C273 C 0.56513 0.80526 0.77737 0.0
C274 C 0.64194 0.93921 0.72159 0.0
C275 C 0.61716 0.9979 0.69871 0.0
C276 C 0.61835 0.99423 0.65508 0.0
C277 C 0.64593 0.93277 0.63377 0.0
C278 C 0.66889 0.87342 0.65669 0.0
C279 C 0.66685 0.87662 0.70004 0.0
P280 P 0.57954 0.53366 0.08745 0.0
H281 H 0.68745 0.47321 0.14477 0.0
H282 H 0.81713 0.48773 0.1522 0.0
H283 H 0.83095 0.6772 0.07138 0.0
H284 H 0.69934 0.65931 0.06164 0.0
H285 H 0.44303 0.43219 0.08411 0.0
H286 H 0.31671 0.44184 0.09474 0.0
H287 H 0.36295 0.67988 0.13032 0.0
H288 H 0.49232 0.67011 0.11934 0.0
H289 H 0.65216 0.44122 0.02653 0.0
H290 H 0.50044 0.60814 0.02256 0.0
O291 O 0.57682 0.44219 0.10008 0.0
H292 H 0.63656 0.41531 0.95153 0.0
H293 H 0.48444 0.58206 0.9475 0.0
C294 C 0.67836 0.56548 0.10295 0.0
C295 C 0.71661 0.5194 0.12878 0.0
C296 C 0.7931 0.52759 0.13303 0.0
C297 C 0.83847 0.58421 0.1129 0.0
C298 C 0.8006 0.6331 0.08835 0.0
C299 C 0.72343 0.62318 0.08298 0.0
C300 C 0.48215 0.54924 0.10194 0.0
C301 C 0.4279 0.48705 0.09514 0.0
C302 C 0.35331 0.49272 0.10103 0.0
C303 C 0.32558 0.56162 0.11391 0.0
C304 C 0.37942 0.62494 0.12065 0.0
C305 C 0.45517 0.61923 0.11453 0.0
C306 C 0.57707 0.52616 0.03067 0.0
C307 C 0.61609 0.47307 0.00954 0.0
C308 C 0.60687 0.45796 0.96654 0.0
C309 C 0.55841 0.49571 0.94347 0.0
C310 C 0.52159 0.55126 0.96433 0.0
C311 C 0.53097 0.56647 0.00739 0.0
loop_
_geom_bond_atom_site_label_1
_geom_bond_atom_site_label_2
_geom_bond_distance
_geom_bond_site_symmetry_2
_ccdc_geom_bond_type
Nd0 C2 2.836 . S
Nd0 O20 2.500 . S
Nd0 O21 2.492 . S
Nd0 O22 2.487 . S
Nd0 O23 2.682 . S
Nd0 O24 2.410 . S
Nd0 O29 2.414 . S
Nd0 O31 2.424 1_455 S
Nd1 C11 2.836 . S
Nd1 O23 2.414 1_655 S
Nd1 O25 2.424 1_655 S
Nd1 O26 2.500 . S
Nd1 O27 2.492 . S
Nd1 O28 2.487 . S
Nd1 O29 2.682 1_655 S
Nd1 O30 2.410 . S
C2 Nd0 2.836 . S
C2 C3 1.498 . S
C2 O20 1.258 . S
C2 O21 1.239 . S
C3 C2 1.498 . S
C3 C4 1.366 . S
C3 C8 1.407 . S
C4 C3 1.366 . S
C4 C5 1.392 . S
C4 H32 0.930 . S
C5 C4 1.392 . S
C5 C6 1.398 . S
C5 H33 0.929 . S
C6 C5 1.398 . S
C6 C7 1.352 . S
C7 C6 1.352 . S
C7 C8 1.384 . S
C7 H34 0.930 . S
C8 C3 1.407 . S
C8 C7 1.384 . S
C8 H35 0.929 . S
C9 O22 1.241 . S
C9 O23 1.273 . S
C10 O24 1.251 . S
C10 O25 1.268 . S
C11 Nd1 2.836 . S
C11 C12 1.498 . S
C11 O26 1.258 . S
C11 O27 1.239 . S
C12 C11 1.498 . S
C12 C13 1.366 . S
C12 C17 1.407 . S
C13 C12 1.366 . S
C13 C14 1.392 . S
C13 H36 0.930 . S
C14 C13 1.392 . S
C14 C15 1.398 . S
C14 H37 0.929 . S
C15 C14 1.398 . S
C15 C16 1.352 . S
C16 C15 1.352 . S
C16 C17 1.384 . S
C16 H38 0.930 . S
C17 C12 1.407 . S
C17 C16 1.384 . S
C17 H39 0.929 . S
C18 O28 1.241 1_455 S
C18 O29 1.273 . S
C19 O30 1.251 . S
C19 O31 1.268 . S
O20 Nd0 2.500 . S
O20 C2 1.258 . S
O21 Nd0 2.492 . S
O21 C2 1.239 . S
O22 Nd0 2.487 . S
O22 C9 1.241 . S
O23 Nd0 2.682 . S
O23 Nd1 2.414 1_455 S
O23 C9 1.273 . S
O24 Nd0 2.410 . S
O24 C10 1.251 . S
O25 Nd1 2.424 1_455 S
O25 C10 1.268 . S
O26 Nd1 2.500 . S
O26 C11 1.258 . S
O27 Nd1 2.492 . S
O27 C11 1.239 . S
O28 Nd1 2.487 . S
O28 C18 1.241 1_655 S
O29 Nd0 2.414 . S
O29 Nd1 2.682 1_455 S
O29 C18 1.273 . S
O30 Nd1 2.410 . S
O30 C19 1.251 . S
O31 Nd0 2.424 1_655 S
O31 C19 1.268 . S
H32 C4 0.930 . S
H33 C5 0.929 . S
H34 C7 0.930 . S
H35 C8 0.929 . S
H36 C13 0.930 . S
H37 C14 0.929 . S
H38 C16 0.930 . S
H39 C17 0.929 . S
Nd40 C42 2.836 1_545 S
Nd40 O60 2.500 1_545 S
Nd40 O61 2.492 1_545 S
Nd40 O62 2.487 1_545 S
Nd40 O63 2.682 . S
Nd40 O64 2.410 1_545 S
Nd40 O69 2.414 . S
Nd40 O71 2.424 . S
Nd41 C51 2.836 . S
Nd41 O63 2.414 . S
Nd41 O65 2.424 1_545 S
Nd41 O66 2.500 . S
Nd41 O67 2.492 . S
Nd41 O68 2.487 . S
Nd41 O69 2.682 . S
Nd41 O70 2.410 . S
C42 Nd40 2.836 1_565 S
C42 C43 1.498 . S
C42 O60 1.258 . S
C42 O61 1.239 . S
C43 C42 1.498 . S
C43 C44 1.366 . S
C43 C48 1.407 . S
C44 C43 1.366 . S
C44 C45 1.392 . S
C44 H72 0.930 . S
C45 C44 1.392 . S
C45 C46 1.398 . S
C45 H73 0.929 . S
C46 C45 1.398 . S
C46 C47 1.352 . S
C47 C46 1.352 . S
C47 C48 1.384 . S
C47 H74 0.930 . S
C48 C43 1.407 . S
C48 C47 1.384 . S
C48 H75 0.929 . S
C49 O62 1.241 1_545 S
C49 O63 1.273 . S
C50 O64 1.251 . S
C50 O65 1.268 . S
C51 Nd41 2.836 . S
C51 C52 1.498 . S
C51 O66 1.258 . S
C51 O67 1.239 . S
C52 C51 1.498 . S
C52 C53 1.366 . S
C52 C57 1.407 . S
C53 C52 1.366 . S
C53 C54 1.392 . S
C53 H76 0.930 . S
C54 C53 1.392 . S
C54 C55 1.398 . S
C54 H77 0.929 . S
C55 C54 1.398 . S
C55 C56 1.352 . S
C56 C55 1.352 . S
C56 C57 1.384 . S
C56 H78 0.930 . S
C57 C52 1.407 . S
C57 C56 1.384 . S
C57 H79 0.929 . S
C58 O68 1.241 . S
C58 O69 1.273 . S
C59 O70 1.251 . S
C59 O71 1.268 . S
O60 Nd40 2.500 1_565 S
O60 C42 1.258 . S
O61 Nd40 2.492 1_565 S
O61 C42 1.239 . S
O62 Nd40 2.487 1_565 S
O62 C49 1.241 1_565 S
O63 Nd40 2.682 . S
O63 Nd41 2.414 . S
O63 C49 1.273 . S
O64 Nd40 2.410 1_565 S
O64 C50 1.251 . S
O65 Nd41 2.424 1_565 S
O65 C50 1.268 . S
O66 Nd41 2.500 . S
O66 C51 1.258 . S
O67 Nd41 2.492 . S
O67 C51 1.239 . S
O68 Nd41 2.487 . S
O68 C58 1.241 . S
O69 Nd40 2.414 . S
O69 Nd41 2.682 . S
O69 C58 1.273 . S
O70 Nd41 2.410 . S
O70 C59 1.251 . S
O71 Nd40 2.424 . S
O71 C59 1.268 . S
H72 C44 0.930 . S
H73 C45 0.929 . S
H74 C47 0.930 . S
H75 C48 0.929 . S
H76 C53 0.930 . S
H77 C54 0.929 . S
H78 C56 0.930 . S
H79 C57 0.929 . S
Nd80 C82 2.836 . S
Nd80 O100 2.500 . S
Nd80 O101 2.492 . S
Nd80 O102 2.487 . S
Nd80 O103 2.682 . S
Nd80 O104 2.410 . S
Nd80 O109 2.414 . S
Nd80 O111 2.424 . S
Nd81 C91 2.836 . S
Nd81 O103 2.414 . S
Nd81 O105 2.424 . S
Nd81 O106 2.500 . S
Nd81 O107 2.492 . S
Nd81 O108 2.487 . S
Nd81 O109 2.682 . S
Nd81 O110 2.410 . S
C82 Nd80 2.836 . S
C82 C83 1.498 . S
C82 O100 1.258 . S
C82 O101 1.239 . S
C83 C82 1.498 . S
C83 C84 1.366 . S
C83 C88 1.407 . S
C84 C83 1.366 . S
C84 C85 1.392 . S
C84 H112 0.930 . S
C85 C84 1.392 . S
C85 C86 1.398 . S
C85 H113 0.929 . S
C86 C85 1.398 . S
C86 C87 1.352 . S
C87 C86 1.352 . S
C87 C88 1.384 . S
C87 H114 0.930 . S
C88 C83 1.407 . S
C88 C87 1.384 . S
C88 H115 0.929 . S
C89 O102 1.241 . S
C89 O103 1.273 . S
C90 O104 1.251 . S
C90 O105 1.268 . S
C91 Nd81 2.836 . S
C91 C92 1.498 . S
C91 O106 1.258 . S
C91 O107 1.239 . S
C92 C91 1.498 . S
C92 C93 1.366 . S
C92 C97 1.407 . S
C93 C92 1.366 . S
C93 C94 1.392 . S
C93 H116 0.930 . S
C94 C93 1.392 . S
C94 C95 1.398 . S
C94 H117 0.929 . S
C95 C94 1.398 . S
C95 C96 1.352 . S
C96 C95 1.352 . S
C96 C97 1.384 . S
C96 H118 0.930 . S
C97 C92 1.407 . S
C97 C96 1.384 . S
C97 H119 0.929 . S
C98 O108 1.241 . S
C98 O109 1.273 . S
C99 O110 1.251 . S
C99 O111 1.268 . S
O100 Nd80 2.500 . S
O100 C82 1.258 . S
O101 Nd80 2.492 . S
O101 C82 1.239 . S
O102 Nd80 2.487 . S
O102 C89 1.241 . S
O103 Nd80 2.682 . S
O103 Nd81 2.414 . S
O103 C89 1.273 . S
O104 Nd80 2.410 . S
O104 C90 1.251 . S
O105 Nd81 2.424 . S
O105 C90 1.268 . S
O106 Nd81 2.500 . S
O106 C91 1.258 . S
O107 Nd81 2.492 . S
O107 C91 1.239 . S
O108 Nd81 2.487 . S
O108 C98 1.241 . S
O109 Nd80 2.414 . S
O109 Nd81 2.682 . S
O109 C98 1.273 . S
O110 Nd81 2.410 . S
O110 C99 1.251 . S
O111 Nd80 2.424 . S
O111 C99 1.268 . S
H112 C84 0.930 . S
H113 C85 0.929 . S
H114 C87 0.930 . S
H115 C88 0.929 . S
H116 C93 0.930 . S
H117 C94 0.929 . S
H118 C96 0.930 . S
H119 C97 0.929 . S
P120 O131 1.490 . S
P120 C134 1.812 . S
P120 C140 1.803 1_565 S
P120 C146 1.819 . S
H121 C135 0.941 . S
H122 C136 0.939 . S
H123 C138 0.940 . S
H124 C139 0.940 1_545 S
H125 C141 0.939 . S
H126 C142 0.942 . S
H127 C144 0.940 . S
H128 C145 0.939 . S
H129 C147 0.941 . S
H130 C151 0.939 . S
O131 P120 1.490 . S
H132 C148 0.939 . S
H133 C150 0.940 . S
C134 P120 1.812 . S
C134 C135 1.389 . S
C134 C139 1.391 . S
C135 H121 0.941 . S
C135 C134 1.389 . S
C135 C136 1.397 . S
C136 H122 0.939 . S
C136 C135 1.397 . S
C136 C137 1.378 . S
C137 C136 1.378 . S
C137 C138 1.378 . S
C138 H123 0.940 . S
C138 C137 1.378 . S
C138 C139 1.396 . S
C139 H124 0.940 1_565 S
C139 C134 1.391 . S
C139 C138 1.396 . S
C140 P120 1.803 1_545 S
C140 C141 1.378 . S
C140 C145 1.400 . S
C141 H125 0.939 . S
C141 C140 1.378 . S
C141 C142 1.361 . S
C142 H126 0.942 . S
C142 C141 1.361 . S
C142 C143 1.369 . S
C143 C142 1.369 . S
C143 C144 1.404 . S
C144 H127 0.940 . S
C144 C143 1.404 . S
C144 C145 1.389 . S
C145 H128 0.939 . S
C145 C140 1.400 . S
C145 C144 1.389 . S
C146 P120 1.819 . S
C146 C147 1.391 . S
C146 C151 1.391 1_565 S
C147 H129 0.941 . S
C147 C146 1.391 . S
C147 C148 1.396 . S
C148 H132 0.939 . S
C148 C147 1.396 . S
C148 C149 1.397 1_565 S
C149 C148 1.397 1_545 S
C149 C150 1.385 . S
C150 H133 0.940 . S
C150 C149 1.385 . S
C150 C151 1.388 . S
C151 H130 0.939 . S
C151 C146 1.391 1_545 S
C151 C150 1.388 . S
P152 O163 1.490 . S
P152 C166 1.812 . S
P152 C172 1.803 . S
P152 C178 1.819 . S
H153 C167 0.941 . S
H154 C168 0.939 . S
H155 C170 0.940 . S
H156 C171 0.940 . S
H157 C173 0.939 . S
H158 C174 0.942 . S
H159 C176 0.940 . S
H160 C177 0.939 . S
H161 C179 0.941 . S
H162 C183 0.939 . S
O163 P152 1.490 . S
H164 C180 0.939 . S
H165 C182 0.940 . S
C166 P152 1.812 . S
C166 C167 1.389 . S
C166 C171 1.391 . S
C167 H153 0.941 . S
C167 C166 1.389 . S
C167 C168 1.397 . S
C168 H154 0.939 . S
C168 C167 1.397 . S
C168 C169 1.378 . S
C169 C168 1.378 . S
C169 C170 1.378 . S
C170 H155 0.940 . S
C170 C169 1.378 . S
C170 C171 1.396 . S
C171 H156 0.940 . S
C171 C166 1.391 . S
C171 C170 1.396 . S
C172 P152 1.803 . S
C172 C173 1.378 . S
C172 C177 1.400 . S
C173 H157 0.939 . S
C173 C172 1.378 . S
C173 C174 1.361 . S
C174 H158 0.942 . S
C174 C173 1.361 . S
C174 C175 1.369 . S
C175 C174 1.369 . S
C175 C176 1.404 . S
C176 H159 0.940 . S
C176 C175 1.404 . S
C176 C177 1.389 . S
C177 H160 0.939 . S
C177 C172 1.400 . S
C177 C176 1.389 . S
C178 P152 1.819 . S
C178 C179 1.391 . S
C178 C183 1.391 . S
C179 H161 0.941 . S
C179 C178 1.391 . S
C179 C180 1.396 . S
C180 H164 0.939 . S
C180 C179 1.396 . S
C180 C181 1.397 . S
C181 C180 1.397 . S
C181 C182 1.385 . S
C182 H165 0.940 . S
C182 C181 1.385 . S
C182 C183 1.388 . S
C183 H162 0.939 . S
C183 C178 1.391 . S
C183 C182 1.388 . S
P184 O195 1.490 . S
P184 C198 1.812 . S
P184 C204 1.803 1_455 S
P184 C210 1.819 . S
H185 C199 0.941 . S
H186 C200 0.939 . S
H187 C202 0.940 . S
H188 C203 0.940 . S
H189 C205 0.939 . S
H190 C206 0.942 . S
H191 C208 0.940 . S
H192 C209 0.939 . S
H193 C211 0.941 . S
H194 C215 0.939 . S
O195 P184 1.490 . S
H196 C212 0.939 . S
H197 C214 0.940 . S
C198 P184 1.812 . S
C198 C199 1.389 . S
C198 C203 1.391 . S
C199 H185 0.941 . S
C199 C198 1.389 . S
C199 C200 1.397 . S
C200 H186 0.939 . S
C200 C199 1.397 . S
C200 C201 1.378 . S
C201 C200 1.378 . S
C201 C202 1.378 . S
C202 H187 0.940 . S
C202 C201 1.378 . S
C202 C203 1.396 . S
C203 H188 0.940 . S
C203 C198 1.391 . S
C203 C202 1.396 . S
C204 P184 1.803 1_655 S
C204 C205 1.378 . S
C204 C209 1.400 . S
C205 H189 0.939 . S
C205 C204 1.378 . S
C205 C206 1.361 . S
C206 H190 0.942 . S
C206 C205 1.361 . S
C206 C207 1.369 . S
C207 C206 1.369 . S
C207 C208 1.404 . S
C208 H191 0.940 . S
C208 C207 1.404 . S
C208 C209 1.389 . S
C209 H192 0.939 . S
C209 C204 1.400 . S
C209 C208 1.389 . S
C210 P184 1.819 . S
C210 C211 1.391 1_556 S
C210 C215 1.391 1_455 S
C211 H193 0.941 . S
C211 C210 1.391 1_554 S
C211 C212 1.396 . S
C212 H196 0.939 . S
C212 C211 1.396 . S
C212 C213 1.397 . S
C213 C212 1.397 . S
C213 C214 1.385 1_455 S
C214 H197 0.940 . S
C214 C213 1.385 1_655 S
C214 C215 1.389 1_554 S
C215 H194 0.939 . S
C215 C210 1.391 1_655 S
C215 C214 1.389 1_556 S
P216 O227 1.490 . S
P216 C230 1.812 . S
P216 C236 1.803 1_455 S
P216 C242 1.819 . S
H217 C231 0.941 . S
H218 C232 0.939 . S
H219 C234 0.940 . S
H220 C235 0.940 . S
H221 C237 0.939 . S
H222 C238 0.942 . S
H223 C240 0.940 . S
H224 C241 0.939 . S
H225 C243 0.941 . S
H226 C247 0.939 . S
O227 P216 1.490 . S
H228 C244 0.939 . S
H229 C246 0.940 . S
C230 P216 1.812 . S
C230 C231 1.389 . S
C230 C235 1.391 . S
C231 H217 0.941 . S
C231 C230 1.389 . S
C231 C232 1.397 . S
C232 H218 0.939 . S
C232 C231 1.397 . S
C232 C233 1.378 . S
C233 C232 1.378 . S
C233 C234 1.378 . S
C234 H219 0.940 . S
C234 C233 1.378 . S
C234 C235 1.396 . S
C235 H220 0.940 . S
C235 C230 1.391 . S
C235 C234 1.396 . S
C236 P216 1.803 1_655 S
C236 C237 1.378 . S
C236 C241 1.400 . S
C237 H221 0.939 . S
C237 C236 1.378 . S
C237 C238 1.361 . S
C238 H222 0.942 . S
C238 C237 1.361 . S
C238 C239 1.369 . S
C239 C238 1.369 . S
C239 C240 1.404 . S
C240 H223 0.940 . S
C240 C239 1.404 . S
C240 C241 1.389 . S
C241 H224 0.939 . S
C241 C236 1.400 . S
C241 C240 1.389 . S
C242 P216 1.819 . S
C242 C243 1.391 . S
C242 C247 1.391 1_455 S
C243 H225 0.941 . S
C243 C242 1.391 . S
C243 C244 1.396 . S
C244 H228 0.939 . S
C244 C243 1.396 . S
C244 C245 1.397 . S
C245 C244 1.397 . S
C245 C246 1.385 1_455 S
C246 H229 0.940 . S
C246 C245 1.385 1_655 S
C246 C247 1.388 . S
C247 H226 0.939 . S
C247 C242 1.391 1_655 S
C247 C246 1.388 . S
P248 O259 1.490 . S
P248 C262 1.812 . S
P248 C268 1.803 1_545 S
P248 C274 1.819 . S
H249 C263 0.941 . S
H250 C264 0.939 . S
H251 C266 0.940 . S
H252 C267 0.940 . S
H253 C269 0.939 . S
H254 C270 0.942 . S
H255 C272 0.940 . S
H256 C273 0.939 . S
H257 C275 0.941 . S
H258 C279 0.939 . S
O259 P248 1.490 . S
H260 C276 0.939 . S
H261 C278 0.940 . S
C262 P248 1.812 . S
C262 C263 1.389 . S
C262 C267 1.391 . S
C263 H249 0.941 . S
C263 C262 1.389 . S
C263 C264 1.397 . S
C264 H250 0.939 . S
C264 C263 1.397 . S
C264 C265 1.378 . S
C265 C264 1.378 . S
C265 C266 1.378 . S
C266 H251 0.940 . S
C266 C265 1.378 . S
C266 C267 1.396 . S
C267 H252 0.940 . S
C267 C262 1.391 . S
C267 C266 1.396 . S
C268 P248 1.803 1_565 S
C268 C269 1.378 . S
C268 C273 1.400 . S
C269 H253 0.939 . S
C269 C268 1.378 . S
C269 C270 1.361 . S
C270 H254 0.942 . S
C270 C269 1.361 . S
C270 C271 1.369 . S
C271 C270 1.369 . S
C271 C272 1.404 . S
C272 H255 0.940 . S
C272 C271 1.404 . S
C272 C273 1.389 . S
C273 H256 0.939 . S
C273 C268 1.400 . S
C273 C272 1.389 . S
C274 P248 1.819 . S
C274 C275 1.391 . S
C274 C279 1.391 1_545 S
C275 H257 0.941 . S
C275 C274 1.391 . S
C275 C276 1.396 . S
C276 H260 0.939 . S
C276 C275 1.396 . S
C276 C277 1.397 1_545 S
C277 C276 1.397 1_565 S
C277 C278 1.385 . S
C278 H261 0.940 . S
C278 C277 1.385 . S
C278 C279 1.388 . S
C279 H258 0.939 . S
C279 C274 1.391 1_565 S
C279 C278 1.388 . S
P280 O291 1.490 . S
P280 C294 1.812 . S
P280 C300 1.803 . S
P280 C306 1.819 . S
H281 C295 0.941 . S
H282 C296 0.939 . S
H283 C298 0.940 . S
H284 C299 0.940 . S
H285 C301 0.939 . S
H286 C302 0.942 . S
H287 C304 0.940 . S
H288 C305 0.939 . S
H289 C307 0.945 . S
H290 C311 0.939 . S
O291 P280 1.490 . S
H292 C308 0.939 . S
H293 C310 0.940 . S
C294 P280 1.812 . S
C294 C295 1.389 . S
C294 C299 1.391 . S
C295 H281 0.941 . S
C295 C294 1.389 . S
C295 C296 1.397 . S
C296 H282 0.939 . S
C296 C295 1.397 . S
C296 C297 1.378 . S
C297 C296 1.378 . S
C297 C298 1.378 . S
C298 H283 0.940 . S
C298 C297 1.378 . S
C298 C299 1.396 . S
C299 H284 0.940 . S
C299 C294 1.391 . S
C299 C298 1.396 . S
C300 P280 1.803 . S
C300 C301 1.378 . S
C300 C305 1.400 . S
C301 H285 0.939 . S
C301 C300 1.378 . S
C301 C302 1.361 . S
C302 H286 0.942 . S
C302 C301 1.361 . S
C302 C303 1.369 . S
C303 C302 1.369 . S
C303 C304 1.404 . S
C304 H287 0.940 . S
C304 C303 1.404 . S
C304 C305 1.389 . S
C305 H288 0.939 . S
C305 C300 1.400 . S
C305 C304 1.389 . S
C306 P280 1.819 . S
C306 C307 1.400 . S
C306 C311 1.391 . S
C307 H289 0.945 . S
C307 C306 1.400 . S
C307 C308 1.384 1_554 S
C308 H292 0.939 . S
C308 C307 1.384 1_556 S
C308 C309 1.397 . S
C309 C308 1.397 . S
C309 C310 1.385 . S
C310 H293 0.940 . S
C310 C309 1.385 . S
C310 C311 1.388 1_556 S
C311 H290 0.939 . S
C311 C306 1.391 . S
C311 C310 1.388 1_554 S
C10 C303 4.820 . S
C55 C239 2.115 . S
C90 C271 2.715 . S
C19 C297 4.833 . S
C233 C46 2.031 . S
C265 C99 3.007 . S
C50 C175 2.575 . S
C95 C207 3.899 . S
C6 C137 1.684 . S
C169 C59 2.882 . S
C201 C86 2.268 . S
C15 C143 2.834 . S
C213 C18 1.951 . S
C49 C149 1.363 . S
C98 C181 0.977 . S
C277 C58 1.036 1_565 S
C309 C89 2.022 . S
C9 C245 1.460 . S
