# Generated by pormake.
# Topology pto, (3,4)-cn, num edge types: 1
# Building blocks:
#     Node 0, Type 0, BuildingBlock: ESEHIV_clean_linker_0, # of connection points: 3
#     Node 1, Type 0, BuildingBlock: ESEHIV_clean_linker_0, # of connection points: 3
#     Node 2, Type 0, BuildingBlock: ESEHIV_clean_linker_0, # of connection points: 3
#     Node 3, Type 0, BuildingBlock: ESEHIV_clean_linker_0, # of connection points: 3
#     Node 4, Type 0, BuildingBlock: ESEHIV_clean_linker_0, # of connection points: 3
#     Node 5, Type 0, BuildingBlock: ESEHIV_clean_linker_0, # of connection points: 3
#     Node 6, Type 0, BuildingBlock: ESEHIV_clean_linker_0, # of connection points: 3
#     Node 7, Type 0, BuildingBlock: ESEHIV_clean_linker_0, # of connection points: 3
#     Node 8, Type 1, BuildingBlock: KOZSID_clean_sbu_0, # of connection points: 4
#     Node 9, Type 1, BuildingBlock: KOZSID_clean_sbu_0, # of connection points: 4
#     Node 10, Type 1, BuildingBlock: KOZSID_clean_sbu_0, # of connection points: 4
#     Node 11, Type 1, BuildingBlock: KOZSID_clean_sbu_0, # of connection points: 4
#     Node 12, Type 1, BuildingBlock: KOZSID_clean_sbu_0, # of connection points: 4
#     Node 13, Type 1, BuildingBlock: KOZSID_clean_sbu_0, # of connection points: 4
#     Edge 14, Type (0, 1), BuildingBlock: XIVTED_clean_linker_0, # of connection points: 2
#     Edge 15, Type (0, 1), BuildingBlock: XIVTED_clean_linker_0, # of connection points: 2
#     Edge 16, Type (0, 1), BuildingBlock: XIVTED_clean_linker_0, # of connection points: 2
#     Edge 17, Type (0, 1), BuildingBlock: XIVTED_clean_linker_0, # of connection points: 2
#     Edge 18, Type (0, 1), BuildingBlock: XIVTED_clean_linker_0, # of connection points: 2
#     Edge 19, Type (0, 1), BuildingBlock: XIVTED_clean_linker_0, # of connection points: 2
#     Edge 20, Type (0, 1), BuildingBlock: XIVTED_clean_linker_0, # of connection points: 2
#     Edge 21, Type (0, 1), BuildingBlock: XIVTED_clean_linker_0, # of connection points: 2
#     Edge 22, Type (0, 1), BuildingBlock: XIVTED_clean_linker_0, # of connection points: 2
#     Edge 23, Type (0, 1), BuildingBlock: XIVTED_clean_linker_0, # of connection points: 2
#     Edge 24, Type (0, 1), BuildingBlock: XIVTED_clean_linker_0, # of connection points: 2
#     Edge 25, Type (0, 1), BuildingBlock: XIVTED_clean_linker_0, # of connection points: 2
#     Edge 26, Type (0, 1), BuildingBlock: XIVTED_clean_linker_0, # of connection points: 2
#     Edge 27, Type (0, 1), BuildingBlock: XIVTED_clean_linker_0, # of connection points: 2
#     Edge 28, Type (0, 1), BuildingBlock: XIVTED_clean_linker_0, # of connection points: 2
#     Edge 29, Type (0, 1), BuildingBlock: XIVTED_clean_linker_0, # of connection points: 2
#     Edge 30, Type (0, 1), BuildingBlock: XIVTED_clean_linker_0, # of connection points: 2
#     Edge 31, Type (0, 1), BuildingBlock: XIVTED_clean_linker_0, # of connection points: 2
#     Edge 32, Type (0, 1), BuildingBlock: XIVTED_clean_linker_0, # of connection points: 2
#     Edge 33, Type (0, 1), BuildingBlock: XIVTED_clean_linker_0, # of connection points: 2
#     Edge 34, Type (0, 1), BuildingBlock: XIVTED_clean_linker_0, # of connection points: 2
#     Edge 35, Type (0, 1), BuildingBlock: XIVTED_clean_linker_0, # of connection points: 2
#     Edge 36, Type (0, 1), BuildingBlock: XIVTED_clean_linker_0, # of connection points: 2
#     Edge 37, Type (0, 1), BuildingBlock: XIVTED_clean_linker_0, # of connection points: 2
# Relax obj value: 0.000
# Max RMSD: 0.029
# Mean RMSD: 0.013
data_MOF--net-pto--node1-KOZSID_clean_sbu_0--node2-ESEHIV_clean_linker_0--edge1-XIVTED_clean_linker_0
_symmetry_space_group_name_H-M    P1
_symmetry_Int_Tables_number       1
_symmetry_cell_setting            triclinic
loop_
_symmetry_equiv_pos_as_xyz
'x, y, z'
_cell_length_a     36.834809
_cell_length_b     49.809371
_cell_length_c     43.382239
_cell_angle_alpha  87.451419
_cell_angle_beta   86.599391
_cell_angle_gamma 93.279357
loop_
_atom_site_label
_atom_site_type_symbol
_atom_site_fract_x
_atom_site_fract_y
_atom_site_fract_z
_atom_type_partial_charge
H0 H 0.29655 0.30112 0.28912 0.0
H1 H 0.30855 0.21708 0.30909 0.0
H2 H 0.23301 0.25963 0.36517 0.0
C3 C 0.28908 0.28298 0.30332 0.0
C4 C 0.2628 0.28351 0.32815 0.0
C5 C 0.30507 0.259 0.29599 0.0
C6 C 0.29561 0.23548 0.31435 0.0
C7 C 0.27026 0.23573 0.33981 0.0
C8 C 0.25382 0.25976 0.34643 0.0
H9 H 0.26852 0.72755 0.76526 0.0
H10 H 0.28382 0.81314 0.75157 0.0
H11 H 0.21649 0.76837 0.69182 0.0
C12 C 0.26283 0.74583 0.75248 0.0
C13 C 0.23954 0.74475 0.72791 0.0
C14 C 0.27848 0.77043 0.76127 0.0
C15 C 0.27184 0.79418 0.74456 0.0
C16 C 0.25031 0.79365 0.71888 0.0
C17 C 0.23384 0.76885 0.71104 0.0
H18 H 0.74791 0.80881 0.2993 0.0
H19 H 0.81799 0.76671 0.35831 0.0
H20 H 0.77094 0.72681 0.28314 0.0
C21 C 0.76132 0.79078 0.30572 0.0
C22 C 0.75634 0.76777 0.28851 0.0
C23 C 0.78342 0.79068 0.33105 0.0
C24 C 0.80116 0.76726 0.33866 0.0
C25 C 0.79671 0.74419 0.32153 0.0
C26 C 0.7739 0.74445 0.29675 0.0
H27 H 0.74772 0.22938 0.77309 0.0
H28 H 0.82606 0.27613 0.71201 0.0
H29 H 0.77632 0.3117 0.7912 0.0
C30 C 0.76334 0.24809 0.76671 0.0
C31 C 0.75944 0.27021 0.78533 0.0
C32 C 0.78749 0.24989 0.74024 0.0
C33 C 0.80726 0.27446 0.73226 0.0
C34 C 0.8031 0.29695 0.75029 0.0
C35 C 0.77929 0.29457 0.77689 0.0
H36 H 0.73903 0.81772 0.75649 0.0
H37 H 0.74333 0.73252 0.77297 0.0
H38 H 0.81038 0.77346 0.69848 0.0
C39 C 0.75032 0.7989 0.7504 0.0
C40 C 0.77527 0.79824 0.72472 0.0
C41 C 0.73899 0.77526 0.76791 0.0
C42 C 0.75257 0.75072 0.75949 0.0
C43 C 0.77868 0.7497 0.73459 0.0
C44 C 0.78966 0.77365 0.71724 0.0
H45 H 0.74829 0.21909 0.31448 0.0
H46 H 0.77564 0.303 0.29211 0.0
H47 H 0.82062 0.26387 0.37031 0.0
C48 C 0.76319 0.23772 0.31914 0.0
C49 C 0.78512 0.23862 0.34452 0.0
C50 C 0.75928 0.26094 0.30038 0.0
C51 C 0.7778 0.28521 0.30707 0.0
C52 C 0.80014 0.28645 0.33217 0.0
C53 C 0.80353 0.26306 0.35084 0.0
H54 H 0.22164 0.2687 0.70169 0.0
H55 H 0.29585 0.22643 0.75576 0.0
H56 H 0.26117 0.30342 0.78323 0.0
C57 C 0.23781 0.26761 0.72173 0.0
C58 C 0.2397 0.28922 0.74142 0.0
C59 C 0.25768 0.24485 0.72708 0.0
C60 C 0.28 0.24384 0.75217 0.0
C61 C 0.28169 0.26493 0.77262 0.0
C62 C 0.26113 0.28743 0.76712 0.0
H63 H 0.21161 0.75493 0.34948 0.0
H64 H 0.25601 0.72284 0.26606 0.0
H65 H 0.29011 0.803 0.29001 0.0
C66 C 0.22956 0.75733 0.32869 0.0
C67 C 0.2506 0.78151 0.32212 0.0
C68 C 0.23137 0.73625 0.30843 0.0
C69 C 0.25437 0.73937 0.28143 0.0
C70 C 0.27614 0.76324 0.27477 0.0
C71 C 0.27415 0.78422 0.29533 0.0
C72 C 0.07337 0.54894 0.37892 0.0
C73 C 0.08275 0.55901 0.40691 0.0
C74 C 0.06231 0.54418 0.42953 0.0
C75 C 0.0414 0.52619 0.41416 0.0
N76 N 0.04773 0.52822 0.3831 0.0
Co77 Co 0.01981 0.50848 0.35185 0.0
N78 N 0.98795 0.48806 0.38504 0.0
C79 C 0.99056 0.48916 0.41592 0.0
C80 C 0.96634 0.47165 0.43297 0.0
C81 C 0.94752 0.45818 0.41168 0.0
C82 C 0.96143 0.46836 0.3828 0.0
N83 N 0.99052 0.49014 0.32048 0.0
C84 C 0.96222 0.47147 0.32442 0.0
C85 C 0.94919 0.46438 0.29632 0.0
C86 C 0.97022 0.47894 0.27383 0.0
C87 C 0.99475 0.49405 0.28937 0.0
N88 N 0.05302 0.52757 0.31868 0.0
C89 C 0.0535 0.52379 0.28799 0.0
C90 C 0.08055 0.53893 0.27109 0.0
C91 C 0.0981 0.55351 0.29223 0.0
C92 C 0.08033 0.5466 0.32085 0.0
N93 N 0.05359 0.47883 0.35273 0.0
C94 C 0.10487 0.43894 0.35216 0.0
C95 C 0.08666 0.44555 0.32581 0.0
C96 C 0.06148 0.46532 0.32658 0.0
C97 C 0.09598 0.45196 0.37923 0.0
C98 C 0.07032 0.47164 0.37904 0.0
N99 N 0.98634 0.53825 0.35081 0.0
C100 C 0.96173 0.57525 0.32267 0.0
C101 C 0.94291 0.58281 0.3494 0.0
C102 C 0.94523 0.56735 0.37674 0.0
C103 C 0.96727 0.54539 0.37701 0.0
C104 C 0.98274 0.5529 0.32378 0.0
H105 H 0.96885 0.53476 0.39874 0.0
H106 H 0.99612 0.54807 0.30247 0.0
H107 H 0.04897 0.46933 0.30554 0.0
H108 H 0.06474 0.48091 0.40036 0.0
C109 C 0.01521 0.50748 0.42814 0.0
C110 C 0.08824 0.56031 0.34889 0.0
C111 C 0.94889 0.45839 0.35398 0.0
C112 C 0.0251 0.50897 0.27546 0.0
H113 H 0.10177 0.57569 0.41074 0.0
H114 H 0.06206 0.54666 0.4542 0.0
H115 H 0.96284 0.46896 0.45788 0.0
H116 H 0.92611 0.44253 0.41676 0.0
H117 H 0.92761 0.44952 0.29237 0.0
H118 H 0.96891 0.47767 0.24908 0.0
H119 H 0.08578 0.54021 0.24624 0.0
H120 H 0.12049 0.56837 0.28705 0.0
H121 H 0.09167 0.43545 0.3045 0.0
H122 H 0.10922 0.44743 0.40032 0.0
H123 H 0.96015 0.58653 0.30089 0.0
H124 H 0.93097 0.57264 0.39798 0.0
C125 C 0.06912 0.56788 0.72925 0.0
C126 C 0.07779 0.57921 0.75682 0.0
C127 C 0.05832 0.56448 0.78 0.0
C128 C 0.03848 0.54535 0.76543 0.0
N129 N 0.04409 0.54686 0.73425 0.0
Co130 Co 0.01766 0.52478 0.70402 0.0
N131 N 0.98875 0.50335 0.73835 0.0
C132 C 0.99155 0.50565 0.7691 0.0
C133 C 0.9696 0.48728 0.78705 0.0
C134 C 0.95197 0.47206 0.7666 0.0
C135 C 0.96412 0.4822 0.73721 0.0
N136 N 0.99035 0.50331 0.67381 0.0
C137 C 0.96481 0.48265 0.67882 0.0
C138 C 0.95238 0.47356 0.65133 0.0
C139 C 0.9711 0.48879 0.62805 0.0
C140 C 0.99363 0.50631 0.64261 0.0
N141 N 0.04742 0.54562 0.66976 0.0
C142 C 0.0462 0.54207 0.63909 0.0
C143 C 0.07093 0.55848 0.62118 0.0
C144 C 0.08902 0.57351 0.64157 0.0
C145 C 0.07393 0.56556 0.67089 0.0
N146 N 0.05508 0.49769 0.70506 0.0
C147 C 0.10246 0.45542 0.70822 0.0
C148 C 0.08822 0.46317 0.6803 0.0
C149 C 0.06509 0.48442 0.67916 0.0
C150 C 0.0938 0.46985 0.73422 0.0
C151 C 0.07021 0.49068 0.73217 0.0
N152 N 0.98001 0.55174 0.70307 0.0
C153 C 0.94337 0.58213 0.67496 0.0
C154 C 0.92708 0.59052 0.70255 0.0
C155 C 0.93779 0.57905 0.7303 0.0
C156 C 0.96374 0.55982 0.73001 0.0
C157 C 0.96964 0.56293 0.67574 0.0
H158 H 0.97034 0.55197 0.75199 0.0
H159 H 0.98122 0.55752 0.65398 0.0
H160 H 0.05521 0.48946 0.65719 0.0
H161 H 0.06405 0.50041 0.75301 0.0
C162 C 0.01457 0.52558 0.78044 0.0
C163 C 0.08535 0.57783 0.69899 0.0
C164 C 0.95233 0.47048 0.709 0.0
C165 C 0.02041 0.52407 0.62772 0.0
H166 H 0.09607 0.59648 0.76006 0.0
H167 H 0.05838 0.5675 0.80456 0.0
H168 H 0.96694 0.4851 0.81203 0.0
H169 H 0.93267 0.45519 0.77269 0.0
H170 H 0.93232 0.45727 0.64844 0.0
H171 H 0.96924 0.48682 0.60343 0.0
H172 H 0.07506 0.55959 0.59623 0.0
H173 H 0.11069 0.58874 0.63548 0.0
H174 H 0.09478 0.45282 0.65942 0.0
H175 H 0.10415 0.46449 0.75639 0.0
H176 H 0.93585 0.59019 0.65279 0.0
H177 H 0.92679 0.58521 0.75241 0.0
C178 C 0.26624 0.97177 0.57036 0.0
C179 C 0.29959 0.96176 0.57683 0.0
C180 C 0.32564 0.97679 0.55904 0.0
C181 C 0.3069 0.99478 0.54242 0.0
N182 N 0.2704 0.99242 0.54874 0.0
Co183 Co 0.23288 0.01198 0.52644 0.0
N184 N 0.2714 0.0342 0.50049 0.0
C185 C 0.30788 0.03377 0.50237 0.0
C186 C 0.32744 0.0525 0.483 0.0
C187 C 0.30189 0.0661 0.46825 0.0
C188 C 0.26813 0.05474 0.47952 0.0
N189 N 0.19535 0.03023 0.50276 0.0
C190 C 0.1994 0.05005 0.48019 0.0
C191 C 0.16612 0.05667 0.46952 0.0
C192 C 0.14006 0.04063 0.4862 0.0
C193 C 0.15885 0.02515 0.50594 0.0
N194 N 0.19439 0.99117 0.55381 0.0
C195 C 0.15802 0.99367 0.55394 0.0
C196 C 0.13843 0.97779 0.57637 0.0
C197 C 0.16378 0.96419 0.59138 0.0
C198 C 0.19749 0.97235 0.57688 0.0
N199 N 0.2334 0.04075 0.55656 0.0
C200 C 0.23623 0.08462 0.59544 0.0
C201 C 0.2038 0.07634 0.58246 0.0
C202 C 0.20291 0.0544 0.56348 0.0
C203 C 0.26681 0.06986 0.58942 0.0
C204 C 0.26488 0.04832 0.57001 0.0
N205 N 0.23258 0.98316 0.49624 0.0
C206 C 0.20236 0.94478 0.47415 0.0
C207 C 0.2345 0.93922 0.45744 0.0
C208 C 0.26511 0.95676 0.45954 0.0
C209 C 0.26363 0.97827 0.47893 0.0
C210 C 0.20192 0.96681 0.49303 0.0
H211 H 0.28823 0.99041 0.47969 0.0
H212 H 0.17657 0.96993 0.50515 0.0
H213 H 0.17739 0.04912 0.55426 0.0
H214 H 0.28941 0.03834 0.56595 0.0
C215 C 0.32286 0.01466 0.52146 0.0
C216 C 0.23138 0.9607 0.58484 0.0
C217 C 0.23381 0.06436 0.4698 0.0
C218 C 0.14297 0.0088 0.53062 0.0
H219 H 0.30478 0.94511 0.59246 0.0
H220 H 0.35477 0.97471 0.55814 0.0
H221 H 0.35675 0.05584 0.47995 0.0
H222 H 0.30744 0.08258 0.4512 0.0
H223 H 0.16113 0.07214 0.45222 0.0
H224 H 0.11082 0.04112 0.48511 0.0
H225 H 0.10913 0.97571 0.58067 0.0
H226 H 0.158 0.94944 0.61037 0.0
H227 H 0.17931 0.08708 0.58623 0.0
H228 H 0.29235 0.07486 0.59956 0.0
H229 H 0.1778 0.93186 0.47336 0.0
H230 H 0.29039 0.95395 0.44634 0.0
C231 C 0.4599 0.79874 0.0702 0.0
C232 C 0.44719 0.82315 0.07899 0.0
C233 C 0.46768 0.8428 0.06196 0.0
C234 C 0.49145 0.82933 0.04371 0.0
N235 N 0.48726 0.80222 0.04783 0.0
Co236 Co 0.51587 0.77494 0.0258 0.0
N237 N 0.54714 0.80396 0.00179 0.0
C238 C 0.54565 0.83087 0.00426 0.0
C239 C 0.5694 0.8458 0.9839 0.0
C240 C 0.58691 0.82739 0.96715 0.0
C241 C 0.57292 0.80212 0.97845 0.0
N242 N 0.54406 0.74766 0.00337 0.0
C243 C 0.57013 0.75119 0.97993 0.0
C244 C 0.58234 0.72678 0.97058 0.0
C245 C 0.56259 0.70709 0.98815 0.0
C246 C 0.53971 0.72053 0.00726 0.0
N247 N 0.48494 0.7459 0.05011 0.0
C248 C 0.48758 0.71898 0.04873 0.0
C249 C 0.46364 0.7041 0.069 0.0
C250 C 0.44473 0.72257 0.08451 0.0
C251 C 0.45818 0.74779 0.07263 0.0
N252 N 0.48096 0.77474 0.99272 0.0
C253 C 0.43513 0.77403 0.94302 0.0
C254 C 0.44413 0.75012 0.95794 0.0
C255 C 0.46682 0.75093 0.98253 0.0
C256 C 0.44867 0.79835 0.95396 0.0
C257 C 0.47132 0.79824 0.97868 0.0
N258 N 0.55089 0.77508 0.05894 0.0
C259 C 0.58666 0.7509 0.09467 0.0
C260 C 0.5978 0.77473 0.10803 0.0
C261 C 0.58566 0.79886 0.09594 0.0
C262 C 0.56251 0.79858 0.07155 0.0
C263 C 0.56345 0.75153 0.07045 0.0
H264 H 0.55407 0.8176 0.06356 0.0
H265 H 0.55592 0.73261 0.06163 0.0
H266 H 0.4728 0.732 0.9927 0.0
H267 H 0.48111 0.8174 0.9857 0.0
C268 C 0.51913 0.84157 0.02365 0.0
C269 C 0.44565 0.77289 0.08433 0.0
C270 C 0.58336 0.77706 0.96513 0.0
C271 C 0.51323 0.70825 0.0285 0.0
H272 H 0.42564 0.82643 0.09623 0.0
H273 H 0.46588 0.86436 0.06313 0.0
H274 H 0.57251 0.86751 0.98072 0.0
H275 H 0.60686 0.8322 0.94812 0.0
H276 H 0.60301 0.72353 0.95257 0.0
H277 H 0.56427 0.68555 0.9868 0.0
H278 H 0.46068 0.68241 0.07242 0.0
H279 H 0.42382 0.71795 0.10285 0.0
H280 H 0.43369 0.73077 0.95074 0.0
H281 H 0.44262 0.81743 0.94306 0.0
H282 H 0.59591 0.73171 0.10272 0.0
H283 H 0.59332 0.81789 0.10561 0.0
C284 C 0.84514 0.98194 0.57944 0.0
C285 C 0.87943 0.97508 0.58747 0.0
C286 C 0.90404 0.99138 0.56955 0.0
C287 C 0.88343 0.0072 0.55172 0.0
N288 N 0.84711 0.00216 0.55734 0.0
Co289 Co 0.80719 0.02021 0.53647 0.0
N290 N 0.8434 0.04223 0.50789 0.0
C291 C 0.88012 0.0414 0.50665 0.0
C292 C 0.89774 0.05896 0.48476 0.0
C293 C 0.87071 0.07194 0.47128 0.0
C294 C 0.83803 0.06146 0.48582 0.0
N295 N 0.76726 0.03863 0.51607 0.0
C296 C 0.76924 0.05864 0.49372 0.0
C297 C 0.73493 0.06625 0.4866 0.0
C298 C 0.71035 0.05076 0.50543 0.0
C299 C 0.73096 0.03462 0.52285 0.0
N300 N 0.77095 0.99771 0.56454 0.0
C301 C 0.73417 0.99804 0.56534 0.0
C302 C 0.71655 0.97964 0.5863 0.0
C303 C 0.74363 0.96645 0.59941 0.0
C304 C 0.77632 0.97769 0.58562 0.0
N305 N 0.80881 0.04883 0.56692 0.0
C306 C 0.81 0.09136 0.60749 0.0
C307 C 0.77776 0.07624 0.6035 0.0
C308 C 0.77772 0.05538 0.58311 0.0
C309 C 0.84183 0.0846 0.5914 0.0
C310 C 0.84072 0.06319 0.57167 0.0
N311 N 0.80553 0.99169 0.50605 0.0
C312 C 0.77098 0.95976 0.47732 0.0
C313 C 0.80291 0.95015 0.46403 0.0
C314 C 0.83621 0.96191 0.47201 0.0
C315 C 0.83689 0.98239 0.49297 0.0
C316 C 0.77291 0.98043 0.49789 0.0
H317 H 0.8631 0.9903 0.49833 0.0
H318 H 0.74759 0.98677 0.50711 0.0
H319 H 0.75204 0.04518 0.58056 0.0
H320 H 0.86596 0.05885 0.56034 0.0
C321 C 0.89732 0.02523 0.52777 0.0
C322 C 0.8116 0.96796 0.59254 0.0
C323 C 0.80282 0.07139 0.47898 0.0
C324 C 0.71699 0.01559 0.54573 0.0
H325 H 0.88593 0.95951 0.60412 0.0
H326 H 0.93344 0.99115 0.56891 0.0
H327 H 0.92682 0.06242 0.47975 0.0
H328 H 0.87467 0.08774 0.45325 0.0
H329 H 0.72837 0.08158 0.46969 0.0
H330 H 0.68097 0.05132 0.50646 0.0
H331 H 0.68748 0.97596 0.59112 0.0
H332 H 0.73975 0.95013 0.61683 0.0
H333 H 0.75238 0.08097 0.6154 0.0
H334 H 0.86751 0.0957 0.59414 0.0
H335 H 0.74444 0.95109 0.47238 0.0
H336 H 0.86177 0.95551 0.46205 0.0
C337 C 0.46841 0.28012 0.0806 0.0
C338 C 0.45552 0.3047 0.0885 0.0
C339 C 0.47474 0.32392 0.06979 0.0
C340 C 0.49795 0.31001 0.05148 0.0
N341 N 0.49437 0.28303 0.05706 0.0
Co342 Co 0.52232 0.25518 0.03562 0.0
N343 N 0.55476 0.28363 0.01177 0.0
C344 C 0.55385 0.31063 0.01386 0.0
C345 C 0.57927 0.32507 0.99453 0.0
C346 C 0.59746 0.30622 0.97901 0.0
C347 C 0.58203 0.28122 0.98987 0.0
N348 N 0.54949 0.22732 0.01341 0.0
C349 C 0.57643 0.23027 0.99063 0.0
C350 C 0.58693 0.20557 0.98077 0.0
C351 C 0.5654 0.18632 0.99751 0.0
C352 C 0.54315 0.20029 0.0166 0.0
N353 N 0.49083 0.22679 0.06051 0.0
C354 C 0.49235 0.19978 0.05914 0.0
C355 C 0.46951 0.18541 0.08071 0.0
C356 C 0.45285 0.20433 0.09733 0.0
C357 C 0.46633 0.22928 0.08465 0.0
N358 N 0.48733 0.25536 0.00237 0.0
C359 C 0.4393 0.25564 0.95389 0.0
C360 C 0.44447 0.23194 0.97118 0.0
C361 C 0.46858 0.23221 0.9949 0.0
C362 C 0.45853 0.27918 0.96153 0.0
C363 C 0.48176 0.27864 0.98574 0.0
N364 N 0.55708 0.25504 0.06876 0.0
C365 C 0.59211 0.23094 0.10512 0.0
C366 C 0.60304 0.25492 0.11841 0.0
C367 C 0.59123 0.27899 0.10585 0.0
C368 C 0.56844 0.27859 0.08133 0.0
C369 C 0.56942 0.23147 0.08042 0.0
H370 H 0.56006 0.29758 0.07311 0.0
H371 H 0.5618 0.21254 0.07143 0.0
H372 H 0.47159 0.21337 0.00672 0.0
H373 H 0.49511 0.29738 0.99025 0.0
C374 C 0.52642 0.32182 0.03188 0.0
C375 C 0.45662 0.25477 0.09725 0.0
C376 C 0.59254 0.25592 0.97727 0.0
C377 C 0.51666 0.18859 0.03816 0.0
H378 H 0.43513 0.30839 0.10658 0.0
H379 H 0.47312 0.34552 0.07043 0.0
H380 H 0.58322 0.34673 0.99127 0.0
H381 H 0.6189 0.31053 0.96105 0.0
H382 H 0.60787 0.20187 0.96316 0.0
H383 H 0.56585 0.16471 0.99592 0.0
H384 H 0.46622 0.16376 0.08454 0.0
H385 H 0.43369 0.20011 0.11703 0.0
H386 H 0.4299 0.21317 0.96668 0.0
H387 H 0.4563 0.29806 0.94863 0.0
H388 H 0.60029 0.21172 0.1141 0.0
H389 H 0.59955 0.29818 0.11482 0.0
H390 H 0.23919 0.3033 0.38386 0.0
H391 H 0.15592 0.43207 0.3053 0.0
H392 H 0.24119 0.32042 0.28522 0.0
H393 H 0.11788 0.39957 0.39619 0.0
H394 H 0.19751 0.39595 0.30097 0.0
H395 H 0.20381 0.34289 0.39174 0.0
C396 C 0.23232 0.31531 0.36386 0.0
C397 C 0.24327 0.30836 0.33378 0.0
C398 C 0.18015 0.39677 0.32191 0.0
C399 C 0.20356 0.35395 0.3428 0.0
C400 C 0.15626 0.41731 0.32437 0.0
C401 C 0.13278 0.41857 0.3509 0.0
C402 C 0.18093 0.37735 0.34624 0.0
C403 C 0.13542 0.39938 0.37529 0.0
C404 C 0.2123 0.33796 0.36844 0.0
C405 C 0.23409 0.32509 0.30885 0.0
N406 N 0.15891 0.3794 0.37229 0.0
N407 N 0.21481 0.34704 0.31394 0.0
H408 H 0.21647 0.70185 0.76808 0.0
H409 H 0.07973 0.62756 0.67096 0.0
H410 H 0.21775 0.72764 0.67138 0.0
H411 H 0.15223 0.58096 0.72301 0.0
H412 H 0.12179 0.66751 0.67385 0.0
H413 H 0.18459 0.65985 0.75632 0.0
C414 C 0.21073 0.69876 0.74429 0.0
C415 C 0.2204 0.71867 0.72071 0.0
C416 C 0.12862 0.64839 0.68419 0.0
C417 C 0.18201 0.67078 0.70767 0.0
C418 C 0.10479 0.62573 0.68255 0.0
C419 C 0.11258 0.60116 0.69702 0.0
C420 C 0.15966 0.64647 0.70117 0.0
C421 C 0.14524 0.5997 0.71188 0.0
C422 C 0.1922 0.67474 0.73775 0.0
C423 C 0.21043 0.7134 0.69057 0.0
N424 N 0.16725 0.62224 0.71424 0.0
N425 N 0.19128 0.69012 0.685 0.0
H426 H 0.7707 0.69152 0.32922 0.0
H427 H 0.96659 0.63335 0.32846 0.0
H428 H 0.86928 0.74253 0.32979 0.0
H429 H 0.87125 0.58714 0.36801 0.0
H430 H 0.93061 0.67302 0.32423 0.0
H431 H 0.80619 0.65205 0.33899 0.0
C432 C 0.79979 0.69435 0.33149 0.0
C433 C 0.81718 0.72022 0.32872 0.0
C434 C 0.9176 0.65426 0.33404 0.0
C435 C 0.85774 0.67544 0.33955 0.0
C436 C 0.93804 0.63167 0.33632 0.0
C437 C 0.92171 0.60707 0.34853 0.0
C438 C 0.88039 0.65211 0.34348 0.0
C439 C 0.88474 0.60585 0.35859 0.0
C440 C 0.81992 0.67193 0.33722 0.0
C441 C 0.85485 0.72292 0.332 0.0
N442 N 0.86512 0.62804 0.35552 0.0
N443 N 0.87394 0.70077 0.33694 0.0
H444 H 0.7788 0.3479 0.75118 0.0
H445 H 0.97381 0.42031 0.69831 0.0
H446 H 0.87488 0.30496 0.72958 0.0
H447 H 0.87961 0.46324 0.72488 0.0
H448 H 0.93675 0.37773 0.70571 0.0
H449 H 0.81411 0.39036 0.73836 0.0
C450 C 0.80736 0.34741 0.74381 0.0
C451 C 0.82395 0.32283 0.74161 0.0
C452 C 0.92405 0.39643 0.70977 0.0
C453 C 0.86447 0.37136 0.72658 0.0
C454 C 0.94515 0.42061 0.70546 0.0
C455 C 0.92949 0.44497 0.71115 0.0
C456 C 0.8871 0.39676 0.71987 0.0
C457 C 0.89242 0.44466 0.72038 0.0
C458 C 0.82745 0.37165 0.73632 0.0
C459 C 0.86088 0.3234 0.73135 0.0
N460 N 0.87243 0.42086 0.72463 0.0
N461 N 0.87991 0.34727 0.72435 0.0
H462 H 0.26207 0.23049 0.40296 0.0
H463 H 0.22721 0.06999 0.40768 0.0
H464 H 0.25713 0.18434 0.32128 0.0
H465 H 0.24198 0.11548 0.48856 0.0
H466 H 0.23249 0.11214 0.37569 0.0
H467 H 0.24897 0.18903 0.43491 0.0
C468 C 0.25792 0.21165 0.39175 0.0
C469 C 0.26091 0.21084 0.35941 0.0
C470 C 0.23434 0.11297 0.40044 0.0
C471 C 0.24622 0.16328 0.39583 0.0
C472 C 0.23122 0.089 0.41858 0.0
C473 C 0.23412 0.08961 0.45053 0.0
C474 C 0.24049 0.13758 0.41452 0.0
C475 C 0.23954 0.11446 0.46388 0.0
C476 C 0.25064 0.18797 0.41 0.0
C477 C 0.25565 0.18583 0.34613 0.0
N478 N 0.24267 0.13753 0.44578 0.0
N479 N 0.24865 0.16304 0.36439 0.0
H480 H 0.27711 0.80588 0.80775 0.0
H481 H 0.43777 0.73982 0.89536 0.0
H482 H 0.33228 0.73717 0.77599 0.0
H483 H 0.38064 0.80706 0.92887 0.0
H484 H 0.39971 0.73885 0.85125 0.0
H485 H 0.31547 0.80722 0.85178 0.0
C486 C 0.29745 0.79116 0.80996 0.0
C487 C 0.30154 0.7714 0.78815 0.0
C488 C 0.39545 0.75381 0.86824 0.0
C489 C 0.34532 0.77264 0.83865 0.0
C490 C 0.41705 0.75428 0.89356 0.0
C491 C 0.41229 0.77348 0.91597 0.0
C492 C 0.36885 0.77269 0.86521 0.0
C493 C 0.3855 0.79208 0.91203 0.0
C494 C 0.31921 0.79184 0.83519 0.0
C495 C 0.32793 0.75256 0.79243 0.0
N496 N 0.36476 0.79119 0.88718 0.0
N497 N 0.34884 0.75368 0.81716 0.0
H498 H 0.845 0.81086 0.35709 0.0
H499 H 0.75326 0.94035 0.42042 0.0
H500 H 0.7318 0.82599 0.3474 0.0
H501 H 0.8489 0.90879 0.45828 0.0
H502 H 0.74917 0.90212 0.3873 0.0
H503 H 0.85087 0.85026 0.38846 0.0
C504 C 0.82132 0.82233 0.36163 0.0
C505 C 0.78779 0.81495 0.34959 0.0
C506 C 0.77106 0.90362 0.40286 0.0
C507 C 0.79468 0.86042 0.38489 0.0
C508 C 0.77334 0.92538 0.42191 0.0
C509 C 0.8013 0.92777 0.44247 0.0
C510 C 0.79712 0.88421 0.40404 0.0
C511 C 0.8271 0.90803 0.44263 0.0
C512 C 0.8248 0.8449 0.37939 0.0
C513 C 0.75834 0.83105 0.35572 0.0
N514 N 0.82437 0.88708 0.42373 0.0
N515 N 0.7625 0.85303 0.37288 0.0
H516 H 0.77408 0.28716 0.84261 0.0
H517 H 0.57535 0.2436 0.91927 0.0
H518 H 0.68981 0.24743 0.79317 0.0
H519 H 0.6656 0.26936 0.97174 0.0
H520 H 0.61615 0.24621 0.87227 0.0
H521 H 0.73387 0.28275 0.88968 0.0
C522 C 0.74701 0.27762 0.84166 0.0
C523 C 0.73519 0.2677 0.81396 0.0
C524 C 0.62711 0.2512 0.89405 0.0
C525 C 0.68913 0.26241 0.86774 0.0
C526 C 0.60389 0.24969 0.92074 0.0
C527 C 0.61737 0.2564 0.94907 0.0
C528 C 0.66397 0.25965 0.8958 0.0
C529 C 0.65438 0.26417 0.95012 0.0
C530 C 0.72418 0.27494 0.86856 0.0
C531 C 0.70007 0.25516 0.81411 0.0
N532 N 0.67643 0.26575 0.92378 0.0
N533 N 0.67821 0.25297 0.84057 0.0
H534 H 0.3001 0.83656 0.70605 0.0
H535 H 0.19857 0.91107 0.57746 0.0
H536 H 0.19021 0.8088 0.68831 0.0
H537 H 0.26148 0.95578 0.64074 0.0
H538 H 0.20011 0.87055 0.61185 0.0
H539 H 0.29213 0.878 0.67602 0.0
C540 C 0.27412 0.83915 0.69625 0.0
C541 C 0.24567 0.81897 0.70017 0.0
C542 C 0.21332 0.88931 0.61822 0.0
C543 C 0.23719 0.86618 0.66457 0.0
C544 C 0.21248 0.91229 0.59872 0.0
C545 C 0.23024 0.93654 0.60631 0.0
C546 C 0.23279 0.89059 0.64499 0.0
C547 C 0.24789 0.93728 0.63402 0.0
C548 C 0.26978 0.86282 0.67891 0.0
C549 C 0.21319 0.82341 0.68568 0.0
N550 N 0.24927 0.91448 0.65218 0.0
N551 N 0.20995 0.84645 0.66826 0.0
H552 H 0.70521 0.72937 0.27317 0.0
H553 H 0.65443 0.8105 0.11963 0.0
H554 H 0.75487 0.80738 0.24283 0.0
H555 H 0.59521 0.73784 0.15705 0.0
H556 H 0.69315 0.80893 0.16344 0.0
H557 H 0.66683 0.73096 0.22909 0.0
C558 C 0.70814 0.74677 0.25713 0.0
C559 C 0.73317 0.7683 0.2617 0.0
C560 C 0.67166 0.79334 0.16205 0.0
C561 C 0.68924 0.77036 0.21133 0.0
C562 C 0.64941 0.7943 0.13712 0.0
C563 C 0.62153 0.77424 0.13456 0.0
C564 C 0.66608 0.77213 0.18459 0.0
C565 C 0.61672 0.7535 0.15774 0.0
C566 C 0.68609 0.74775 0.23208 0.0
C567 C 0.73558 0.79049 0.24039 0.0
N568 N 0.63877 0.75298 0.18172 0.0
N569 N 0.71393 0.79093 0.21611 0.0
H570 H 0.78812 0.19666 0.75994 0.0
H571 H 0.83811 0.14263 0.59359 0.0
H572 H 0.79831 0.24858 0.67699 0.0
H573 H 0.78138 0.09259 0.66689 0.0
H574 H 0.83434 0.18144 0.62631 0.0
H575 H 0.79521 0.15785 0.72816 0.0
C576 C 0.79159 0.19998 0.73508 0.0
C577 C 0.79236 0.22606 0.7212 0.0
C578 C 0.82285 0.16193 0.63522 0.0
C579 C 0.80158 0.18166 0.68484 0.0
C580 C 0.82522 0.13982 0.61671 0.0
C581 C 0.80996 0.1145 0.62764 0.0
C582 C 0.80562 0.15853 0.66499 0.0
C583 C 0.79323 0.11188 0.6576 0.0
C584 C 0.79589 0.17778 0.71701 0.0
C585 C 0.79802 0.22899 0.68885 0.0
N586 N 0.7916 0.13364 0.67532 0.0
N587 N 0.80251 0.20707 0.67179 0.0
H588 H 0.36341 0.29395 0.27824 0.0
H589 H 0.4817 0.27354 0.15036 0.0
H590 H 0.30376 0.22289 0.25051 0.0
H591 H 0.38591 0.23736 0.11289 0.0
H592 H 0.4479 0.27499 0.20066 0.0
H593 H 0.40277 0.29377 0.23078 0.0
C594 C 0.35886 0.27819 0.26224 0.0
C595 C 0.33049 0.25832 0.26831 0.0
C596 C 0.43411 0.26701 0.1814 0.0
C597 C 0.37556 0.25773 0.21427 0.0
C598 C 0.45345 0.26599 0.15288 0.0
C599 C 0.43641 0.25523 0.12779 0.0
C600 C 0.39748 0.25718 0.18468 0.0
C601 C 0.39989 0.24561 0.13192 0.0
C602 C 0.38155 0.27791 0.23533 0.0
C603 C 0.32567 0.23835 0.24685 0.0
N604 N 0.38165 0.24664 0.15996 0.0
N605 N 0.34777 0.23872 0.22061 0.0
H606 H 0.79458 0.70916 0.77587 0.0
H607 H 0.92533 0.63555 0.66342 0.0
H608 H 0.8031 0.73152 0.67812 0.0
H609 H 0.86703 0.59389 0.74251 0.0
H610 H 0.88455 0.67243 0.66851 0.0
H611 H 0.82516 0.6684 0.76503 0.0
C612 C 0.80225 0.70543 0.75204 0.0
C613 C 0.79595 0.72404 0.7279 0.0
C614 C 0.88057 0.65503 0.68448 0.0
C615 C 0.83244 0.67754 0.71559 0.0
C616 C 0.90371 0.63389 0.68155 0.0
C617 C 0.90012 0.61167 0.7029 0.0
C618 C 0.85411 0.65412 0.70919 0.0
C619 C 0.87169 0.61091 0.72609 0.0
C620 C 0.81999 0.68214 0.74594 0.0
C621 C 0.80786 0.71816 0.69762 0.0
N622 N 0.85019 0.63199 0.7289 0.0
N623 N 0.82593 0.69558 0.69236 0.0
H624 H 0.77603 0.33757 0.33024 0.0
H625 H 0.9698 0.40763 0.36451 0.0
H626 H 0.87081 0.2936 0.34811 0.0
H627 H 0.87639 0.45197 0.34433 0.0
H628 H 0.93267 0.3654 0.36208 0.0
H629 H 0.8111 0.37957 0.33825 0.0
C630 C 0.80423 0.33675 0.33583 0.0
C631 C 0.82055 0.31202 0.33837 0.0
C632 C 0.92015 0.38432 0.35832 0.0
C633 C 0.86078 0.36001 0.34782 0.0
C634 C 0.9413 0.40831 0.35978 0.0
C635 C 0.92592 0.43299 0.35444 0.0
C636 C 0.8834 0.38515 0.35142 0.0
C637 C 0.88902 0.43314 0.34842 0.0
C638 C 0.82418 0.36073 0.34056 0.0
C639 C 0.857 0.31215 0.3462 0.0
N640 N 0.86898 0.40952 0.3469 0.0
N641 N 0.87591 0.33576 0.3505 0.0
H642 H 0.17141 0.29273 0.71951 0.0
H643 H 0.16597 0.45117 0.73731 0.0
H644 H 0.26235 0.34191 0.74864 0.0
H645 H 0.08961 0.40579 0.68522 0.0
H646 H 0.20021 0.41088 0.74422 0.0
H647 H 0.13946 0.33349 0.70911 0.0
C648 C 0.1848 0.31206 0.72354 0.0
C649 C 0.21967 0.3138 0.73507 0.0
C650 C 0.17611 0.40978 0.7311 0.0
C651 C 0.1829 0.36055 0.72364 0.0
C652 C 0.15652 0.43272 0.72725 0.0
C653 C 0.12493 0.43177 0.7107 0.0
C654 C 0.16375 0.3856 0.71865 0.0
C655 C 0.11402 0.40743 0.69791 0.0
C656 C 0.16646 0.33533 0.71769 0.0
C657 C 0.23529 0.33947 0.74033 0.0
N658 N 0.13323 0.38524 0.70236 0.0
N659 N 0.21675 0.36179 0.73469 0.0
H660 H 0.18117 0.71283 0.27299 0.0
H661 H 0.15461 0.57468 0.37076 0.0
H662 H 0.23167 0.70228 0.35948 0.0
H663 H 0.06833 0.60585 0.31939 0.0
H664 H 0.18889 0.61854 0.36258 0.0
H665 H 0.14494 0.67028 0.28463 0.0
C666 C 0.18454 0.70146 0.29441 0.0
C667 C 0.20918 0.71089 0.3154 0.0
C668 C 0.16229 0.61579 0.3534 0.0
C669 C 0.16855 0.66239 0.3286 0.0
C670 C 0.14279 0.59093 0.35814 0.0
C671 C 0.10854 0.58699 0.34606 0.0
C672 C 0.14778 0.63642 0.33572 0.0
C673 C 0.09462 0.60831 0.32918 0.0
C674 C 0.16385 0.67737 0.30109 0.0
C675 C 0.2127 0.69561 0.34288 0.0
N676 N 0.11446 0.63208 0.32423 0.0
N677 N 0.19281 0.67188 0.34861 0.0
H678 H 0.7912 0.84902 0.74424 0.0
H679 H 0.81086 0.91704 0.57282 0.0
H680 H 0.78378 0.80433 0.66162 0.0
H681 H 0.81426 0.96214 0.65508 0.0
H682 H 0.80672 0.87504 0.60494 0.0
H683 H 0.80492 0.8903 0.71207 0.0
C684 C 0.79246 0.84789 0.71932 0.0
C685 C 0.78603 0.82321 0.7056 0.0
C686 C 0.80872 0.89407 0.61604 0.0
C687 C 0.80202 0.87035 0.66863 0.0
C688 C 0.8112 0.91791 0.59771 0.0
C689 C 0.81295 0.94273 0.61157 0.0
C690 C 0.80778 0.89521 0.6484 0.0
C691 C 0.81305 0.94318 0.64378 0.0
C692 C 0.8005 0.87144 0.70097 0.0
C693 C 0.78877 0.82287 0.6732 0.0
N694 N 0.81027 0.91972 0.6612 0.0
N695 N 0.79632 0.8461 0.65584 0.0
H696 H 0.70934 0.29659 0.28378 0.0
H697 H 0.66005 0.22331 0.13006 0.0
H698 H 0.75578 0.22299 0.25664 0.0
H699 H 0.59857 0.2865 0.16853 0.0
H700 H 0.69762 0.22412 0.17465 0.0
H701 H 0.67118 0.29487 0.23962 0.0
C702 C 0.71157 0.28012 0.26843 0.0
C703 C 0.73576 0.25992 0.27383 0.0
C704 C 0.67586 0.23777 0.17331 0.0
C705 C 0.69211 0.25773 0.22332 0.0
C706 C 0.65427 0.23725 0.14792 0.0
C707 C 0.62612 0.25494 0.1454 0.0
C708 C 0.66942 0.25621 0.19629 0.0
C709 C 0.62035 0.27283 0.16911 0.0
C710 C 0.68965 0.27905 0.24334 0.0
C711 C 0.73724 0.23884 0.25344 0.0
N712 N 0.64185 0.27305 0.19346 0.0
N713 N 0.71581 0.23835 0.229 0.0
H714 H 0.31307 0.21885 0.69898 0.0
H715 H 0.18378 0.10257 0.6363 0.0
H716 H 0.19587 0.21872 0.70904 0.0
H717 H 0.29381 0.12181 0.59837 0.0
H718 H 0.18851 0.14226 0.66729 0.0
H719 H 0.30761 0.18003 0.66643 0.0
C720 C 0.28621 0.21059 0.69431 0.0
C721 C 0.25486 0.22192 0.70662 0.0
C722 C 0.21154 0.13774 0.65212 0.0
C723 C 0.24839 0.17757 0.66972 0.0
C724 C 0.20885 0.11514 0.63428 0.0
C725 C 0.23848 0.10864 0.61465 0.0
C726 C 0.24421 0.15381 0.65064 0.0
C727 C 0.27048 0.12555 0.61358 0.0
C728 C 0.2831 0.18857 0.67567 0.0
C729 C 0.22068 0.21063 0.69975 0.0
N730 N 0.27255 0.14724 0.63142 0.0
N731 N 0.21832 0.18893 0.68191 0.0
H732 H 0.34656 0.78462 0.26876 0.0
H733 H 0.3732 0.75747 0.08824 0.0
H734 H 0.26229 0.74842 0.21632 0.0
H735 H 0.45982 0.78707 0.14244 0.0
H736 H 0.33107 0.75613 0.13438 0.0
H737 H 0.38748 0.78817 0.2221 0.0
C738 C 0.33659 0.7776 0.24737 0.0
C739 C 0.30098 0.76614 0.24645 0.0
C740 C 0.35927 0.76293 0.13624 0.0
C741 C 0.34776 0.76991 0.19301 0.0
C742 C 0.38317 0.76366 0.10998 0.0
C743 C 0.41978 0.77223 0.11189 0.0
C744 C 0.37219 0.77095 0.16449 0.0
C745 C 0.43167 0.78027 0.14031 0.0
C746 C 0.36002 0.77947 0.22078 0.0
C747 C 0.28967 0.75705 0.21818 0.0
N748 N 0.40792 0.77941 0.16557 0.0
N749 N 0.31297 0.75913 0.1926 0.0
H750 H 0.78344 0.23436 0.40775 0.0
H751 H 0.80958 0.07556 0.41602 0.0
H752 H 0.79434 0.18709 0.32708 0.0
H753 H 0.79215 0.12222 0.49619 0.0
H754 H 0.80597 0.11644 0.38277 0.0
H755 H 0.78875 0.19377 0.44047 0.0
C756 C 0.78718 0.21545 0.39692 0.0
C757 C 0.78848 0.21411 0.36463 0.0
C758 C 0.80296 0.11779 0.40762 0.0
C759 C 0.79423 0.16748 0.40196 0.0
C760 C 0.80506 0.09454 0.42646 0.0
C761 C 0.80119 0.09586 0.45861 0.0
C762 C 0.79696 0.1424 0.42119 0.0
C763 C 0.79528 0.12066 0.47137 0.0
C764 C 0.79 0.19225 0.41561 0.0
C765 C 0.7928 0.18899 0.35188 0.0
N766 N 0.79335 0.14302 0.4526 0.0
N767 N 0.79556 0.16667 0.37057 0.0
H768 H 0.32026 0.30631 0.7985 0.0
H769 H 0.42462 0.2156 0.91361 0.0
H770 H 0.29619 0.22028 0.80881 0.0
H771 H 0.39722 0.29636 0.93444 0.0
H772 H 0.3852 0.21729 0.8703 0.0
H773 H 0.35684 0.30361 0.84346 0.0
C774 C 0.32233 0.28686 0.81023 0.0
C775 C 0.30475 0.2635 0.79972 0.0
C776 C 0.38787 0.23455 0.8845 0.0
C777 C 0.34772 0.26031 0.85072 0.0
C778 C 0.41019 0.2336 0.9094 0.0
C779 C 0.41457 0.25592 0.92788 0.0
C780 C 0.37033 0.25814 0.87762 0.0
C781 C 0.39558 0.27886 0.92058 0.0
C782 C 0.34343 0.28537 0.83582 0.0
C783 C 0.30958 0.2388 0.81556 0.0
N784 N 0.3746 0.27945 0.89589 0.0
N785 N 0.33078 0.23784 0.84015 0.0
H786 H 0.18841 0.8023 0.34582 0.0
H787 H 0.29187 0.90699 0.44887 0.0
H788 H 0.30554 0.81211 0.3455 0.0
H789 H 0.18174 0.91622 0.42268 0.0
H790 H 0.29565 0.86851 0.41634 0.0
H791 H 0.18372 0.84026 0.37963 0.0
C792 C 0.21311 0.81238 0.35305 0.0
C793 C 0.24742 0.80414 0.34291 0.0
C794 C 0.27069 0.87901 0.41769 0.0
C795 C 0.24228 0.84738 0.38146 0.0
C796 C 0.26853 0.90112 0.43613 0.0
C797 C 0.23654 0.91519 0.43834 0.0
C798 C 0.24053 0.87056 0.40158 0.0
C799 C 0.20685 0.90594 0.42197 0.0
C800 C 0.21042 0.83409 0.37214 0.0
C801 C 0.2786 0.818 0.35264 0.0
N802 N 0.20957 0.88419 0.40429 0.0
N803 N 0.27528 0.83889 0.3715 0.0
H804 H 0.67623 0.74438 0.78372 0.0
H805 H 0.65465 0.79525 0.95475 0.0
H806 H 0.74618 0.80829 0.81584 0.0
H807 H 0.56403 0.75965 0.90945 0.0
H808 H 0.69197 0.79581 0.90586 0.0
H809 H 0.63749 0.74528 0.83167 0.0
C810 C 0.6833 0.75862 0.80088 0.0
C811 C 0.71428 0.77634 0.79592 0.0
C812 C 0.66387 0.78801 0.90659 0.0
C813 C 0.67063 0.77725 0.85068 0.0
C814 C 0.6427 0.7877 0.93437 0.0
C815 C 0.6063 0.7777 0.93577 0.0
C816 C 0.64866 0.77769 0.8803 0.0
C817 C 0.59202 0.76766 0.90905 0.0
C818 C 0.66121 0.75919 0.82809 0.0
C819 C 0.72231 0.79448 0.81874 0.0
N820 N 0.6133 0.76778 0.88236 0.0
N821 N 0.70078 0.79432 0.84528 0.0
loop_
_geom_bond_atom_site_label_1
_geom_bond_atom_site_label_2
_geom_bond_distance
_geom_bond_site_symmetry_2
_ccdc_geom_bond_type
H0 C3 0.931 . S
H1 C6 0.928 . S
H2 C8 0.930 . S
C3 H0 0.931 . S
C3 C4 1.413 . S
C3 C5 1.360 . S
C4 C3 1.413 . S
C4 C8 1.429 . S
C5 C3 1.360 . S
C5 C6 1.372 . S
C6 H1 0.928 . S
C6 C5 1.372 . S
C6 C7 1.404 . S
C7 C6 1.404 . S
C7 C8 1.391 . S
C8 H2 0.930 . S
C8 C4 1.429 . S
C8 C7 1.391 . S
H9 C12 0.931 . S
H10 C15 0.928 . S
H11 C17 0.930 . S
C12 H9 0.931 . S
C12 C13 1.413 . S
C12 C14 1.360 . S
C13 C12 1.413 . S
C13 C17 1.429 . S
C14 C12 1.360 . S
C14 C15 1.372 . S
C15 H10 0.928 . S
C15 C14 1.372 . S
C15 C16 1.404 . S
C16 C15 1.404 . S
C16 C17 1.391 . S
C17 H11 0.930 . S
C17 C13 1.429 . S
C17 C16 1.391 . S
H18 C21 0.931 . S
H19 C24 0.928 . S
H20 C26 0.930 . S
C21 H18 0.931 . S
C21 C22 1.413 . S
C21 C23 1.360 . S
C22 C21 1.413 . S
C22 C26 1.429 . S
C23 C21 1.360 . S
C23 C24 1.372 . S
C24 H19 0.928 . S
C24 C23 1.372 . S
C24 C25 1.404 . S
C25 C24 1.404 . S
C25 C26 1.391 . S
C26 H20 0.930 . S
C26 C22 1.429 . S
C26 C25 1.391 . S
H27 C30 0.931 . S
H28 C33 0.928 . S
H29 C35 0.930 . S
C30 H27 0.931 . S
C30 C31 1.413 . S
C30 C32 1.360 . S
C31 C30 1.413 . S
C31 C35 1.429 . S
C32 C30 1.360 . S
C32 C33 1.372 . S
C33 H28 0.928 . S
C33 C32 1.372 . S
C33 C34 1.404 . S
C34 C33 1.404 . S
C34 C35 1.391 . S
C35 H29 0.930 . S
C35 C31 1.429 . S
C35 C34 1.391 . S
H36 C39 0.931 . S
H37 C42 0.928 . S
H38 C44 0.930 . S
C39 H36 0.931 . S
C39 C40 1.413 . S
C39 C41 1.360 . S
C40 C39 1.413 . S
C40 C44 1.429 . S
C41 C39 1.360 . S
C41 C42 1.372 . S
C42 H37 0.928 . S
C42 C41 1.372 . S
C42 C43 1.404 . S
C43 C42 1.404 . S
C43 C44 1.391 . S
C44 H38 0.930 . S
C44 C40 1.429 . S
C44 C43 1.391 . S
H45 C48 0.931 . S
H46 C51 0.928 . S
H47 C53 0.930 . S
C48 H45 0.931 . S
C48 C49 1.413 . S
C48 C50 1.360 . S
C49 C48 1.413 . S
C49 C53 1.429 . S
C50 C48 1.360 . S
C50 C51 1.372 . S
C51 H46 0.928 . S
C51 C50 1.372 . S
C51 C52 1.404 . S
C52 C51 1.404 . S
C52 C53 1.391 . S
C53 H47 0.930 . S
C53 C49 1.429 . S
C53 C52 1.391 . S
H54 C57 0.931 . S
H55 C60 0.928 . S
H56 C62 0.930 . S
C57 H54 0.931 . S
C57 C58 1.413 . S
C57 C59 1.360 . S
C58 C57 1.413 . S
C58 C62 1.429 . S
C59 C57 1.360 . S
C59 C60 1.372 . S
C60 H55 0.928 . S
C60 C59 1.372 . S
C60 C61 1.404 . S
C61 C60 1.404 . S
C61 C62 1.391 . S
C62 H56 0.930 . S
C62 C58 1.429 . S
C62 C61 1.391 . S
H63 C66 0.931 . S
H64 C69 0.928 . S
H65 C71 0.930 . S
C66 H63 0.931 . S
C66 C67 1.413 . S
C66 C68 1.360 . S
C67 C66 1.413 . S
C67 C71 1.429 . S
C68 C66 1.360 . S
C68 C69 1.372 . S
C69 H64 0.928 . S
C69 C68 1.372 . S
C69 C70 1.404 . S
C70 C69 1.404 . S
C70 C71 1.391 . S
C71 H65 0.930 . S
C71 C67 1.429 . S
C71 C70 1.391 . S
C72 C73 1.443 . S
C72 N76 1.376 . S
C72 C110 1.389 . S
C73 C72 1.443 . S
C73 C74 1.340 . S
C73 H113 0.951 . S
C74 C73 1.340 . S
C74 C75 1.439 . S
C74 H114 0.950 . S
C75 C74 1.439 . S
C75 N76 1.374 . S
C75 C109 1.395 . S
N76 C72 1.376 . S
N76 C75 1.374 . S
N76 Co77 2.008 . S
Co77 N76 2.008 . S
Co77 N78 1.995 1_455 S
Co77 N83 2.008 . S
Co77 N88 1.995 . S
Co77 N93 2.282 . S
Co77 N99 2.282 1_455 S
N78 Co77 1.995 1_655 S
N78 C79 1.376 . S
N78 C82 1.383 . S
C79 N78 1.376 . S
C79 C80 1.446 . S
C79 C109 1.391 1_655 S
C80 C79 1.446 . S
C80 C81 1.339 . S
C80 H115 0.949 . S
C81 C80 1.339 . S
C81 C82 1.439 . S
C81 H116 0.950 . S
C82 N78 1.383 . S
C82 C81 1.439 . S
C82 C111 1.392 . S
N83 Co77 2.008 . S
N83 C84 1.376 1_455 S
N83 C87 1.374 . S
C84 N83 1.376 1_655 S
C84 C85 1.443 . S
C84 C111 1.389 . S
C85 C84 1.443 . S
C85 C86 1.340 . S
C85 H117 0.951 . S
C86 C85 1.340 . S
C86 C87 1.439 1_655 S
C86 H118 0.950 . S
C87 N83 1.374 . S
C87 C86 1.439 1_455 S
C87 C112 1.395 . S
N88 Co77 1.995 . S
N88 C89 1.376 . S
N88 C92 1.383 . S
C89 N88 1.376 . S
C89 C90 1.446 . S
C89 C112 1.391 . S
C90 C89 1.446 . S
C90 C91 1.339 . S
C90 H119 0.949 . S
C91 C90 1.339 . S
C91 C92 1.439 . S
C91 H120 0.950 . S
C92 N88 1.383 . S
C92 C91 1.439 . S
C92 C110 1.392 . S
N93 Co77 2.282 . S
N93 C96 1.332 . S
N93 C98 1.332 . S
C94 C95 1.386 . S
C94 C97 1.388 . S
C95 C94 1.386 . S
C95 C96 1.382 . S
C95 H121 0.950 . S
C96 N93 1.332 . S
C96 C95 1.382 . S
C96 H107 0.952 . S
C97 C94 1.388 . S
C97 C98 1.382 . S
C97 H122 0.950 . S
C98 N93 1.332 . S
C98 C97 1.382 . S
C98 H108 0.948 . S
N99 Co77 2.282 1_655 S
N99 C103 1.332 . S
N99 C104 1.332 . S
C100 C101 1.388 . S
C100 C104 1.382 . S
C100 H123 0.950 . S
C101 C100 1.388 . S
C101 C102 1.386 . S
C102 C101 1.386 . S
C102 C103 1.382 . S
C102 H124 0.950 . S
C103 N99 1.332 . S
C103 C102 1.382 . S
C103 H105 0.952 . S
C104 N99 1.332 . S
C104 C100 1.382 . S
C104 H106 0.948 . S
H105 C103 0.952 . S
H106 C104 0.948 . S
H107 C96 0.952 . S
H108 C98 0.948 . S
C109 C75 1.395 . S
C109 C79 1.391 1_455 S
C110 C72 1.389 . S
C110 C92 1.392 . S
C111 C82 1.392 . S
C111 C84 1.389 . S
C112 C87 1.395 . S
C112 C89 1.391 . S
H113 C73 0.951 . S
H114 C74 0.950 . S
H115 C80 0.949 . S
H116 C81 0.950 . S
H117 C85 0.951 . S
H118 C86 0.950 . S
H119 C90 0.949 . S
H120 C91 0.950 . S
H121 C95 0.950 . S
H122 C97 0.950 . S
H123 C100 0.950 . S
H124 C102 0.950 . S
C125 C126 1.443 . S
C125 N129 1.376 . S
C125 C163 1.389 . S
C126 C125 1.443 . S
C126 C127 1.340 . S
C126 H166 0.951 . S
C127 C126 1.340 . S
C127 C128 1.439 . S
C127 H167 0.950 . S
C128 C127 1.439 . S
C128 N129 1.374 . S
C128 C162 1.395 . S
N129 C125 1.376 . S
N129 C128 1.374 . S
N129 Co130 2.008 . S
Co130 N129 2.008 . S
Co130 N131 1.995 1_455 S
Co130 N136 2.008 1_455 S
Co130 N141 1.995 . S
Co130 N146 2.282 . S
Co130 N152 2.282 1_455 S
N131 Co130 1.995 1_655 S
N131 C132 1.376 . S
N131 C135 1.383 . S
C132 N131 1.376 . S
C132 C133 1.446 . S
C132 C162 1.391 1_655 S
C133 C132 1.446 . S
C133 C134 1.339 . S
C133 H168 0.949 . S
C134 C133 1.339 . S
C134 C135 1.439 . S
C134 H169 0.950 . S
C135 N131 1.383 . S
C135 C134 1.439 . S
C135 C164 1.392 . S
N136 Co130 2.008 1_655 S
N136 C137 1.376 . S
N136 C140 1.374 1_655 S
C137 N136 1.376 . S
C137 C138 1.443 . S
C137 C164 1.389 . S
C138 C137 1.443 . S
C138 C139 1.340 . S
C138 H170 0.951 . S
C139 C138 1.340 . S
C139 C140 1.439 1_655 S
C139 H171 0.950 . S
C140 N136 1.374 1_455 S
C140 C139 1.439 1_455 S
C140 C165 1.395 . S
N141 Co130 1.995 . S
N141 C142 1.376 . S
N141 C145 1.383 . S
C142 N141 1.376 . S
C142 C143 1.446 . S
C142 C165 1.391 . S
C143 C142 1.446 . S
C143 C144 1.339 . S
C143 H172 0.949 . S
C144 C143 1.339 . S
C144 C145 1.439 . S
C144 H173 0.950 . S
C145 N141 1.383 . S
C145 C144 1.439 . S
C145 C163 1.392 . S
N146 Co130 2.282 . S
N146 C149 1.332 . S
N146 C151 1.332 . S
C147 C148 1.386 . S
C147 C150 1.388 . S
C148 C147 1.386 . S
C148 C149 1.382 . S
C148 H174 0.950 . S
C149 N146 1.332 . S
C149 C148 1.382 . S
C149 H160 0.952 . S
C150 C147 1.388 . S
C150 C151 1.382 . S
C150 H175 0.950 . S
C151 N146 1.332 . S
C151 C150 1.382 . S
C151 H161 0.948 . S
N152 Co130 2.282 1_655 S
N152 C156 1.332 . S
N152 C157 1.332 . S
C153 C154 1.388 . S
C153 C157 1.382 . S
C153 H176 0.950 . S
C154 C153 1.388 . S
C154 C155 1.386 . S
C155 C154 1.386 . S
C155 C156 1.382 . S
C155 H177 0.950 . S
C156 N152 1.332 . S
C156 C155 1.382 . S
C156 H158 0.952 . S
C157 N152 1.332 . S
C157 C153 1.382 . S
C157 H159 0.948 . S
H158 C156 0.952 . S
H159 C157 0.948 . S
H160 C149 0.952 . S
H161 C151 0.948 . S
C162 C128 1.395 . S
C162 C132 1.391 1_455 S
C163 C125 1.389 . S
C163 C145 1.392 . S
C164 C135 1.392 . S
C164 C137 1.389 . S
C165 C140 1.395 . S
C165 C142 1.391 . S
H166 C126 0.951 . S
H167 C127 0.950 . S
H168 C133 0.949 . S
H169 C134 0.950 . S
H170 C138 0.951 . S
H171 C139 0.950 . S
H172 C143 0.949 . S
H173 C144 0.950 . S
H174 C148 0.950 . S
H175 C150 0.950 . S
H176 C153 0.950 . S
H177 C155 0.950 . S
C178 C179 1.443 . S
C178 N182 1.376 . S
C178 C216 1.389 . S
C179 C178 1.443 . S
C179 C180 1.340 . S
C179 H219 0.951 . S
C180 C179 1.340 . S
C180 C181 1.439 . S
C180 H220 0.950 . S
C181 C180 1.439 . S
C181 N182 1.374 . S
C181 C215 1.395 1_565 S
N182 C178 1.376 . S
N182 C181 1.374 . S
N182 Co183 2.008 1_565 S
Co183 N182 2.008 1_545 S
Co183 N184 1.995 . S
Co183 N189 2.008 . S
Co183 N194 1.995 1_545 S
Co183 N199 2.282 . S
Co183 N205 2.282 1_545 S
N184 Co183 1.995 . S
N184 C185 1.376 . S
N184 C188 1.383 . S
C185 N184 1.376 . S
C185 C186 1.446 . S
C185 C215 1.391 . S
C186 C185 1.446 . S
C186 C187 1.339 . S
C186 H221 0.949 . S
C187 C186 1.339 . S
C187 C188 1.439 . S
C187 H222 0.950 . S
C188 N184 1.383 . S
C188 C187 1.439 . S
C188 C217 1.392 . S
N189 Co183 2.008 . S
N189 C190 1.376 . S
N189 C193 1.374 . S
C190 N189 1.376 . S
C190 C191 1.443 . S
C190 C217 1.389 . S
C191 C190 1.443 . S
C191 C192 1.340 . S
C191 H223 0.951 . S
C192 C191 1.340 . S
C192 C193 1.439 . S
C192 H224 0.950 . S
C193 N189 1.374 . S
C193 C192 1.439 . S
C193 C218 1.395 . S
N194 Co183 1.995 1_565 S
N194 C195 1.376 . S
N194 C198 1.383 . S
C195 N194 1.376 . S
C195 C196 1.446 . S
C195 C218 1.391 1_565 S
C196 C195 1.446 . S
C196 C197 1.339 . S
C196 H225 0.949 . S
C197 C196 1.339 . S
C197 C198 1.439 . S
C197 H226 0.950 . S
C198 N194 1.383 . S
C198 C197 1.439 . S
C198 C216 1.392 . S
N199 Co183 2.282 . S
N199 C202 1.332 . S
N199 C204 1.332 . S
C200 C201 1.386 . S
C200 C203 1.388 . S
C201 C200 1.386 . S
C201 C202 1.382 . S
C201 H227 0.950 . S
C202 N199 1.332 . S
C202 C201 1.382 . S
C202 H213 0.952 . S
C203 C200 1.388 . S
C203 C204 1.382 . S
C203 H228 0.950 . S
C204 N199 1.332 . S
C204 C203 1.382 . S
C204 H214 0.948 . S
N205 Co183 2.282 1_565 S
N205 C209 1.332 . S
N205 C210 1.332 . S
C206 C207 1.388 . S
C206 C210 1.382 . S
C206 H229 0.950 . S
C207 C206 1.388 . S
C207 C208 1.386 . S
C208 C207 1.386 . S
C208 C209 1.382 . S
C208 H230 0.950 . S
C209 N205 1.332 . S
C209 C208 1.382 . S
C209 H211 0.952 . S
C210 N205 1.332 . S
C210 C206 1.382 . S
C210 H212 0.948 . S
H211 C209 0.952 . S
H212 C210 0.948 . S
H213 C202 0.952 . S
H214 C204 0.948 . S
C215 C181 1.395 1_545 S
C215 C185 1.391 . S
C216 C178 1.389 . S
C216 C198 1.392 . S
C217 C188 1.392 . S
C217 C190 1.389 . S
C218 C193 1.395 . S
C218 C195 1.391 1_545 S
H219 C179 0.951 . S
H220 C180 0.950 . S
H221 C186 0.949 . S
H222 C187 0.950 . S
H223 C191 0.951 . S
H224 C192 0.950 . S
H225 C196 0.949 . S
H226 C197 0.950 . S
H227 C201 0.950 . S
H228 C203 0.950 . S
H229 C206 0.950 . S
H230 C208 0.950 . S
C231 C232 1.443 . S
C231 N235 1.376 . S
C231 C269 1.389 . S
C232 C231 1.443 . S
C232 C233 1.340 . S
C232 H272 0.951 . S
C233 C232 1.340 . S
C233 C234 1.439 . S
C233 H273 0.950 . S
C234 C233 1.439 . S
C234 N235 1.374 . S
C234 C268 1.395 . S
N235 C231 1.376 . S
N235 C234 1.374 . S
N235 Co236 2.008 . S
Co236 N235 2.008 . S
Co236 N237 1.995 1_554 S
Co236 N242 2.008 1_554 S
Co236 N247 1.995 . S
Co236 N252 2.282 1_554 S
Co236 N258 2.282 . S
N237 Co236 1.995 1_556 S
N237 C238 1.376 1_556 S
N237 C241 1.383 . S
C238 N237 1.376 1_554 S
C238 C239 1.446 1_554 S
C238 C268 1.391 . S
C239 C238 1.446 1_556 S
C239 C240 1.339 . S
C239 H274 0.949 . S
C240 C239 1.339 . S
C240 C241 1.439 . S
C240 H275 0.950 . S
C241 N237 1.383 . S
C241 C240 1.439 . S
C241 C270 1.392 . S
N242 Co236 2.008 1_556 S
N242 C243 1.376 . S
N242 C246 1.374 . S
C243 N242 1.376 . S
C243 C244 1.443 . S
C243 C270 1.389 . S
C244 C243 1.443 . S
C244 C245 1.340 . S
C244 H276 0.951 . S
C245 C244 1.340 . S
C245 C246 1.439 . S
C245 H277 0.950 . S
C246 N242 1.374 . S
C246 C245 1.439 . S
C246 C271 1.395 1_556 S
N247 Co236 1.995 . S
N247 C248 1.376 . S
N247 C251 1.383 . S
C248 N247 1.376 . S
C248 C249 1.446 . S
C248 C271 1.391 . S
C249 C248 1.446 . S
C249 C250 1.339 . S
C249 H278 0.949 . S
C250 C249 1.339 . S
C250 C251 1.439 . S
C250 H279 0.950 . S
C251 N247 1.383 . S
C251 C250 1.439 . S
C251 C269 1.392 . S
N252 Co236 2.282 1_556 S
N252 C255 1.332 . S
N252 C257 1.332 . S
C253 C254 1.386 . S
C253 C256 1.388 . S
C254 C253 1.386 . S
C254 C255 1.382 . S
C254 H280 0.950 . S
C255 N252 1.332 . S
C255 C254 1.382 . S
C255 H266 0.952 . S
C256 C253 1.388 . S
C256 C257 1.382 . S
C256 H281 0.950 . S
C257 N252 1.332 . S
C257 C256 1.382 . S
C257 H267 0.948 . S
N258 Co236 2.282 . S
N258 C262 1.332 . S
N258 C263 1.332 . S
C259 C260 1.388 . S
C259 C263 1.382 . S
C259 H282 0.950 . S
C260 C259 1.388 . S
C260 C261 1.386 . S
C261 C260 1.386 . S
C261 C262 1.382 . S
C261 H283 0.950 . S
C262 N258 1.332 . S
C262 C261 1.382 . S
C262 H264 0.952 . S
C263 N258 1.332 . S
C263 C259 1.382 . S
C263 H265 0.948 . S
H264 C262 0.952 . S
H265 C263 0.948 . S
H266 C255 0.952 . S
H267 C257 0.948 . S
C268 C234 1.395 . S
C268 C238 1.391 . S
C269 C231 1.389 . S
C269 C251 1.392 . S
C270 C241 1.392 . S
C270 C243 1.389 . S
C271 C246 1.395 1_554 S
C271 C248 1.391 . S
H272 C232 0.951 . S
H273 C233 0.950 . S
H274 C239 0.949 . S
H275 C240 0.950 . S
H276 C244 0.951 . S
H277 C245 0.950 . S
H278 C249 0.949 . S
H279 C250 0.950 . S
H280 C254 0.950 . S
H281 C256 0.950 . S
H282 C259 0.950 . S
H283 C261 0.950 . S
C284 C285 1.443 . S
C284 N288 1.376 1_565 S
C284 C322 1.389 . S
C285 C284 1.443 . S
C285 C286 1.340 . S
C285 H325 0.951 . S
C286 C285 1.340 . S
C286 C287 1.439 1_565 S
C286 H326 0.950 . S
C287 C286 1.439 1_545 S
C287 N288 1.374 . S
C287 C321 1.395 . S
N288 C284 1.376 1_545 S
N288 C287 1.374 . S
N288 Co289 2.008 . S
Co289 N288 2.008 . S
Co289 N290 1.995 . S
Co289 N295 2.008 . S
Co289 N300 1.995 . S
Co289 N305 2.282 . S
Co289 N311 2.282 1_545 S
N290 Co289 1.995 . S
N290 C291 1.376 . S
N290 C294 1.383 . S
C291 N290 1.376 . S
C291 C292 1.446 . S
C291 C321 1.391 . S
C292 C291 1.446 . S
C292 C293 1.339 . S
C292 H327 0.949 . S
C293 C292 1.339 . S
C293 C294 1.439 . S
C293 H328 0.950 . S
C294 N290 1.383 . S
C294 C293 1.439 . S
C294 C323 1.392 . S
N295 Co289 2.008 . S
N295 C296 1.376 . S
N295 C299 1.374 . S
C296 N295 1.376 . S
C296 C297 1.443 . S
C296 C323 1.389 . S
C297 C296 1.443 . S
C297 C298 1.340 . S
C297 H329 0.951 . S
C298 C297 1.340 . S
C298 C299 1.439 . S
C298 H330 0.950 . S
C299 N295 1.374 . S
C299 C298 1.439 . S
C299 C324 1.395 . S
N300 Co289 1.995 . S
N300 C301 1.376 . S
N300 C304 1.383 1_545 S
C301 N300 1.376 . S
C301 C302 1.446 1_545 S
C301 C324 1.391 . S
C302 C301 1.446 1_565 S
C302 C303 1.339 . S
C302 H331 0.949 . S
C303 C302 1.339 . S
C303 C304 1.439 . S
C303 H332 0.950 . S
C304 N300 1.383 1_565 S
C304 C303 1.439 . S
C304 C322 1.392 . S
N305 Co289 2.282 . S
N305 C308 1.332 . S
N305 C310 1.332 . S
C306 C307 1.386 . S
C306 C309 1.388 . S
C307 C306 1.386 . S
C307 C308 1.382 . S
C307 H333 0.950 . S
C308 N305 1.332 . S
C308 C307 1.382 . S
C308 H319 0.952 . S
C309 C306 1.388 . S
C309 C310 1.382 . S
C309 H334 0.950 . S
C310 N305 1.332 . S
C310 C309 1.382 . S
C310 H320 0.948 . S
N311 Co289 2.282 1_565 S
N311 C315 1.332 . S
N311 C316 1.332 . S
C312 C313 1.388 . S
C312 C316 1.382 . S
C312 H335 0.950 . S
C313 C312 1.388 . S
C313 C314 1.386 . S
C314 C313 1.386 . S
C314 C315 1.382 . S
C314 H336 0.950 . S
C315 N311 1.332 . S
C315 C314 1.382 . S
C315 H317 0.952 . S
C316 N311 1.332 . S
C316 C312 1.382 . S
C316 H318 0.948 . S
H317 C315 0.952 . S
H318 C316 0.948 . S
H319 C308 0.952 . S
H320 C310 0.948 . S
C321 C287 1.395 . S
C321 C291 1.391 . S
C322 C284 1.389 . S
C322 C304 1.392 . S
C323 C294 1.392 . S
C323 C296 1.389 . S
C324 C299 1.395 . S
C324 C301 1.391 . S
H325 C285 0.951 . S
H326 C286 0.950 . S
H327 C292 0.949 . S
H328 C293 0.950 . S
H329 C297 0.951 . S
H330 C298 0.950 . S
H331 C302 0.949 . S
H332 C303 0.950 . S
H333 C307 0.950 . S
H334 C309 0.950 . S
H335 C312 0.950 . S
H336 C314 0.950 . S
C337 C338 1.443 . S
C337 N341 1.376 . S
C337 C375 1.389 . S
C338 C337 1.443 . S
C338 C339 1.340 . S
C338 H378 0.951 . S
C339 C338 1.340 . S
C339 C340 1.439 . S
C339 H379 0.950 . S
C340 C339 1.439 . S
C340 N341 1.374 . S
C340 C374 1.395 . S
N341 C337 1.376 . S
N341 C340 1.374 . S
N341 Co342 2.008 . S
Co342 N341 2.008 . S
Co342 N343 1.995 . S
Co342 N348 2.008 . S
Co342 N353 1.995 . S
Co342 N358 2.282 . S
Co342 N364 2.282 . S
N343 Co342 1.995 . S
N343 C344 1.376 . S
N343 C347 1.383 1_554 S
C344 N343 1.376 . S
C344 C345 1.446 1_554 S
C344 C374 1.391 . S
C345 C344 1.446 1_556 S
C345 C346 1.339 . S
C345 H380 0.949 . S
C346 C345 1.339 . S
C346 C347 1.439 . S
C346 H381 0.950 . S
C347 N343 1.383 1_556 S
C347 C346 1.439 . S
C347 C376 1.392 . S
N348 Co342 2.008 . S
N348 C349 1.376 1_554 S
N348 C352 1.374 . S
C349 N348 1.376 1_556 S
C349 C350 1.443 . S
C349 C376 1.389 . S
C350 C349 1.443 . S
C350 C351 1.340 . S
C350 H382 0.951 . S
C351 C350 1.340 . S
C351 C352 1.439 1_556 S
C351 H383 0.950 . S
C352 N348 1.374 . S
C352 C351 1.439 1_554 S
C352 C377 1.395 . S
N353 Co342 1.995 . S
N353 C354 1.376 . S
N353 C357 1.383 . S
C354 N353 1.376 . S
C354 C355 1.446 . S
C354 C377 1.391 . S
C355 C354 1.446 . S
C355 C356 1.339 . S
C355 H384 0.949 . S
C356 C355 1.339 . S
C356 C357 1.439 . S
C356 H385 0.950 . S
C357 N353 1.383 . S
C357 C356 1.439 . S
C357 C375 1.392 . S
N358 Co342 2.282 . S
N358 C361 1.332 1_554 S
N358 C363 1.332 1_554 S
C359 C360 1.386 . S
C359 C362 1.388 . S
C360 C359 1.386 . S
C360 C361 1.382 . S
C360 H386 0.950 . S
C361 N358 1.332 1_556 S
C361 C360 1.382 . S
C361 H372 0.952 1_556 S
C362 C359 1.388 . S
C362 C363 1.382 . S
C362 H387 0.950 . S
C363 N358 1.332 1_556 S
C363 C362 1.382 . S
C363 H373 0.948 . S
N364 Co342 2.282 . S
N364 C368 1.332 . S
N364 C369 1.332 . S
C365 C366 1.388 . S
C365 C369 1.382 . S
C365 H388 0.950 . S
C366 C365 1.388 . S
C366 C367 1.386 . S
C367 C366 1.386 . S
C367 C368 1.382 . S
C367 H389 0.950 . S
C368 N364 1.332 . S
C368 C367 1.382 . S
C368 H370 0.952 . S
C369 N364 1.332 . S
C369 C365 1.382 . S
C369 H371 0.948 . S
H370 C368 0.952 . S
H371 C369 0.948 . S
H372 C361 0.952 1_554 S
H373 C363 0.948 . S
C374 C340 1.395 . S
C374 C344 1.391 . S
C375 C337 1.389 . S
C375 C357 1.392 . S
C376 C347 1.392 . S
C376 C349 1.389 . S
C377 C352 1.395 . S
C377 C354 1.391 . S
H378 C338 0.951 . S
H379 C339 0.950 . S
H380 C345 0.949 . S
H381 C346 0.950 . S
H382 C350 0.951 . S
H383 C351 0.950 . S
H384 C355 0.949 . S
H385 C356 0.950 . S
H386 C360 0.950 . S
H387 C362 0.950 . S
H388 C365 0.950 . S
H389 C367 0.950 . S
H390 C396 0.930 . S
H391 C400 0.930 . S
H392 C405 0.929 . S
H393 C403 0.929 . S
H394 C398 0.929 . S
H395 C404 0.929 . S
C396 H390 0.930 . S
C396 C397 1.367 . S
C396 C404 1.378 . S
C397 C396 1.367 . S
C397 C405 1.433 . S
C398 H394 0.929 . S
C398 C400 1.378 . S
C398 C402 1.350 . S
C399 C402 1.463 . S
C399 C404 1.350 . S
C399 N407 1.427 . S
C400 H391 0.930 . S
C400 C398 1.378 . S
C400 C401 1.367 . S
C401 C400 1.367 . S
C401 C403 1.433 . S
C402 C398 1.350 . S
C402 C399 1.463 . S
C402 N406 1.427 . S
C403 H393 0.929 . S
C403 C401 1.433 . S
C403 N406 1.384 . S
C404 H395 0.929 . S
C404 C396 1.378 . S
C404 C399 1.350 . S
C405 H392 0.929 . S
C405 C397 1.433 . S
C405 N407 1.384 . S
N406 C402 1.427 . S
N406 C403 1.384 . S
N407 C399 1.427 . S
N407 C405 1.384 . S
H408 C414 0.930 . S
H409 C418 0.930 . S
H410 C423 0.929 . S
H411 C421 0.929 . S
H412 C416 0.929 . S
H413 C422 0.929 . S
C414 H408 0.930 . S
C414 C415 1.367 . S
C414 C422 1.378 . S
C415 C414 1.367 . S
C415 C423 1.433 . S
C416 H412 0.929 . S
C416 C418 1.378 . S
C416 C420 1.350 . S
C417 C420 1.463 . S
C417 C422 1.350 . S
C417 N425 1.427 . S
C418 H409 0.930 . S
C418 C416 1.378 . S
C418 C419 1.367 . S
C419 C418 1.367 . S
C419 C421 1.433 . S
C420 C416 1.350 . S
C420 C417 1.463 . S
C420 N424 1.427 . S
C421 H411 0.929 . S
C421 C419 1.433 . S
C421 N424 1.384 . S
C422 H413 0.929 . S
C422 C414 1.378 . S
C422 C417 1.350 . S
C423 H410 0.929 . S
C423 C415 1.433 . S
C423 N425 1.384 . S
N424 C420 1.427 . S
N424 C421 1.384 . S
N425 C417 1.427 . S
N425 C423 1.384 . S
H426 C432 0.930 . S
H427 C436 0.930 . S
H428 C441 0.929 . S
H429 C439 0.929 . S
H430 C434 0.929 . S
H431 C440 0.929 . S
C432 H426 0.930 . S
C432 C433 1.367 . S
C432 C440 1.378 . S
C433 C432 1.367 . S
C433 C441 1.433 . S
C434 H430 0.929 . S
C434 C436 1.378 . S
C434 C438 1.350 . S
C435 C438 1.463 . S
C435 C440 1.350 . S
C435 N443 1.427 . S
C436 H427 0.930 . S
C436 C434 1.378 . S
C436 C437 1.367 . S
C437 C436 1.367 . S
C437 C439 1.433 . S
C438 C434 1.350 . S
C438 C435 1.463 . S
C438 N442 1.427 . S
C439 H429 0.929 . S
C439 C437 1.433 . S
C439 N442 1.384 . S
C440 H431 0.929 . S
C440 C432 1.378 . S
C440 C435 1.350 . S
C441 H428 0.929 . S
C441 C433 1.433 . S
C441 N443 1.384 . S
N442 C438 1.427 . S
N442 C439 1.384 . S
N443 C435 1.427 . S
N443 C441 1.384 . S
H444 C450 0.930 . S
H445 C454 0.930 . S
H446 C459 0.929 . S
H447 C457 0.929 . S
H448 C452 0.929 . S
H449 C458 0.929 . S
C450 H444 0.930 . S
C450 C451 1.367 . S
C450 C458 1.378 . S
C451 C450 1.367 . S
C451 C459 1.433 . S
C452 H448 0.929 . S
C452 C454 1.378 . S
C452 C456 1.350 . S
C453 C456 1.463 . S
C453 C458 1.350 . S
C453 N461 1.427 . S
C454 H445 0.930 . S
C454 C452 1.378 . S
C454 C455 1.367 . S
C455 C454 1.367 . S
C455 C457 1.433 . S
C456 C452 1.350 . S
C456 C453 1.463 . S
C456 N460 1.427 . S
C457 H447 0.929 . S
C457 C455 1.433 . S
C457 N460 1.384 . S
C458 H449 0.929 . S
C458 C450 1.378 . S
C458 C453 1.350 . S
C459 H446 0.929 . S
C459 C451 1.433 . S
C459 N461 1.384 . S
N460 C456 1.427 . S
N460 C457 1.384 . S
N461 C453 1.427 . S
N461 C459 1.384 . S
H462 C468 0.930 . S
H463 C472 0.930 . S
H464 C477 0.929 . S
H465 C475 0.929 . S
H466 C470 0.929 . S
H467 C476 0.929 . S
C468 H462 0.930 . S
C468 C469 1.367 . S
C468 C476 1.378 . S
C469 C468 1.367 . S
C469 C477 1.433 . S
C470 H466 0.929 . S
C470 C472 1.378 . S
C470 C474 1.350 . S
C471 C474 1.463 . S
C471 C476 1.350 . S
C471 N479 1.427 . S
C472 H463 0.930 . S
C472 C470 1.378 . S
C472 C473 1.367 . S
C473 C472 1.367 . S
C473 C475 1.433 . S
C474 C470 1.350 . S
C474 C471 1.463 . S
C474 N478 1.427 . S
C475 H465 0.929 . S
C475 C473 1.433 . S
C475 N478 1.384 . S
C476 H467 0.929 . S
C476 C468 1.378 . S
C476 C471 1.350 . S
C477 H464 0.929 . S
C477 C469 1.433 . S
C477 N479 1.384 . S
N478 C474 1.427 . S
N478 C475 1.384 . S
N479 C471 1.427 . S
N479 C477 1.384 . S
H480 C486 0.930 . S
H481 C490 0.930 . S
H482 C495 0.929 . S
H483 C493 0.929 . S
H484 C488 0.929 . S
H485 C494 0.929 . S
C486 H480 0.930 . S
C486 C487 1.367 . S
C486 C494 1.378 . S
C487 C486 1.367 . S
C487 C495 1.433 . S
C488 H484 0.929 . S
C488 C490 1.378 . S
C488 C492 1.350 . S
C489 C492 1.463 . S
C489 C494 1.350 . S
C489 N497 1.427 . S
C490 H481 0.930 . S
C490 C488 1.378 . S
C490 C491 1.367 . S
C491 C490 1.367 . S
C491 C493 1.433 . S
C492 C488 1.350 . S
C492 C489 1.463 . S
C492 N496 1.427 . S
C493 H483 0.929 . S
C493 C491 1.433 . S
C493 N496 1.384 . S
C494 H485 0.929 . S
C494 C486 1.378 . S
C494 C489 1.350 . S
C495 H482 0.929 . S
C495 C487 1.433 . S
C495 N497 1.384 . S
N496 C492 1.427 . S
N496 C493 1.384 . S
N497 C489 1.427 . S
N497 C495 1.384 . S
H498 C504 0.930 . S
H499 C508 0.930 . S
H500 C513 0.929 . S
H501 C511 0.929 . S
H502 C506 0.929 . S
H503 C512 0.929 . S
C504 H498 0.930 . S
C504 C505 1.367 . S
C504 C512 1.378 . S
C505 C504 1.367 . S
C505 C513 1.433 . S
C506 H502 0.929 . S
C506 C508 1.378 . S
C506 C510 1.350 . S
C507 C510 1.463 . S
C507 C512 1.350 . S
C507 N515 1.427 . S
C508 H499 0.930 . S
C508 C506 1.378 . S
C508 C509 1.367 . S
C509 C508 1.367 . S
C509 C511 1.433 . S
C510 C506 1.350 . S
C510 C507 1.463 . S
C510 N514 1.427 . S
C511 H501 0.929 . S
C511 C509 1.433 . S
C511 N514 1.384 . S
C512 H503 0.929 . S
C512 C504 1.378 . S
C512 C507 1.350 . S
C513 H500 0.929 . S
C513 C505 1.433 . S
C513 N515 1.384 . S
N514 C510 1.427 . S
N514 C511 1.384 . S
N515 C507 1.427 . S
N515 C513 1.384 . S
H516 C522 0.930 . S
H517 C526 0.930 . S
H518 C531 0.929 . S
H519 C529 0.929 . S
H520 C524 0.929 . S
H521 C530 0.929 . S
C522 H516 0.930 . S
C522 C523 1.367 . S
C522 C530 1.378 . S
C523 C522 1.367 . S
C523 C531 1.433 . S
C524 H520 0.929 . S
C524 C526 1.378 . S
C524 C528 1.350 . S
C525 C528 1.463 . S
C525 C530 1.350 . S
C525 N533 1.427 . S
C526 H517 0.930 . S
C526 C524 1.378 . S
C526 C527 1.367 . S
C527 C526 1.367 . S
C527 C529 1.433 . S
C528 C524 1.350 . S
C528 C525 1.463 . S
C528 N532 1.427 . S
C529 H519 0.929 . S
C529 C527 1.433 . S
C529 N532 1.384 . S
C530 H521 0.929 . S
C530 C522 1.378 . S
C530 C525 1.350 . S
C531 H518 0.929 . S
C531 C523 1.433 . S
C531 N533 1.384 . S
N532 C528 1.427 . S
N532 C529 1.384 . S
N533 C525 1.427 . S
N533 C531 1.384 . S
H534 C540 0.930 . S
H535 C544 0.930 . S
H536 C549 0.929 . S
H537 C547 0.929 . S
H538 C542 0.929 . S
H539 C548 0.929 . S
C540 H534 0.930 . S
C540 C541 1.367 . S
C540 C548 1.378 . S
C541 C540 1.367 . S
C541 C549 1.433 . S
C542 H538 0.929 . S
C542 C544 1.378 . S
C542 C546 1.350 . S
C543 C546 1.463 . S
C543 C548 1.350 . S
C543 N551 1.427 . S
C544 H535 0.930 . S
C544 C542 1.378 . S
C544 C545 1.367 . S
C545 C544 1.367 . S
C545 C547 1.433 . S
C546 C542 1.350 . S
C546 C543 1.463 . S
C546 N550 1.427 . S
C547 H537 0.929 . S
C547 C545 1.433 . S
C547 N550 1.384 . S
C548 H539 0.929 . S
C548 C540 1.378 . S
C548 C543 1.350 . S
C549 H536 0.929 . S
C549 C541 1.433 . S
C549 N551 1.384 . S
N550 C546 1.427 . S
N550 C547 1.384 . S
N551 C543 1.427 . S
N551 C549 1.384 . S
H552 C558 0.930 . S
H553 C562 0.930 . S
H554 C567 0.929 . S
H555 C565 0.929 . S
H556 C560 0.929 . S
H557 C566 0.929 . S
C558 H552 0.930 . S
C558 C559 1.367 . S
C558 C566 1.378 . S
C559 C558 1.367 . S
C559 C567 1.433 . S
C560 H556 0.929 . S
C560 C562 1.378 . S
C560 C564 1.350 . S
C561 C564 1.463 . S
C561 C566 1.350 . S
C561 N569 1.427 . S
C562 H553 0.930 . S
C562 C560 1.378 . S
C562 C563 1.367 . S
C563 C562 1.367 . S
C563 C565 1.433 . S
C564 C560 1.350 . S
C564 C561 1.463 . S
C564 N568 1.427 . S
C565 H555 0.929 . S
C565 C563 1.433 . S
C565 N568 1.384 . S
C566 H557 0.929 . S
C566 C558 1.378 . S
C566 C561 1.350 . S
C567 H554 0.929 . S
C567 C559 1.433 . S
C567 N569 1.384 . S
N568 C564 1.427 . S
N568 C565 1.384 . S
N569 C561 1.427 . S
N569 C567 1.384 . S
H570 C576 0.930 . S
H571 C580 0.930 . S
H572 C585 0.929 . S
H573 C583 0.929 . S
H574 C578 0.929 . S
H575 C584 0.929 . S
C576 H570 0.930 . S
C576 C577 1.367 . S
C576 C584 1.378 . S
C577 C576 1.367 . S
C577 C585 1.433 . S
C578 H574 0.929 . S
C578 C580 1.378 . S
C578 C582 1.350 . S
C579 C582 1.463 . S
C579 C584 1.350 . S
C579 N587 1.427 . S
C580 H571 0.930 . S
C580 C578 1.378 . S
C580 C581 1.367 . S
C581 C580 1.367 . S
C581 C583 1.433 . S
C582 C578 1.350 . S
C582 C579 1.463 . S
C582 N586 1.427 . S
C583 H573 0.929 . S
C583 C581 1.433 . S
C583 N586 1.384 . S
C584 H575 0.929 . S
C584 C576 1.378 . S
C584 C579 1.350 . S
C585 H572 0.929 . S
C585 C577 1.433 . S
C585 N587 1.384 . S
N586 C582 1.427 . S
N586 C583 1.384 . S
N587 C579 1.427 . S
N587 C585 1.384 . S
H588 C594 0.930 . S
H589 C598 0.930 . S
H590 C603 0.929 . S
H591 C601 0.929 . S
H592 C596 0.929 . S
H593 C602 0.929 . S
C594 H588 0.930 . S
C594 C595 1.367 . S
C594 C602 1.378 . S
C595 C594 1.367 . S
C595 C603 1.433 . S
C596 H592 0.929 . S
C596 C598 1.378 . S
C596 C600 1.350 . S
C597 C600 1.463 . S
C597 C602 1.350 . S
C597 N605 1.427 . S
C598 H589 0.930 . S
C598 C596 1.378 . S
C598 C599 1.367 . S
C599 C598 1.367 . S
C599 C601 1.433 . S
C600 C596 1.350 . S
C600 C597 1.463 . S
C600 N604 1.427 . S
C601 H591 0.929 . S
C601 C599 1.433 . S
C601 N604 1.384 . S
C602 H593 0.929 . S
C602 C594 1.378 . S
C602 C597 1.350 . S
C603 H590 0.929 . S
C603 C595 1.433 . S
C603 N605 1.384 . S
N604 C600 1.427 . S
N604 C601 1.384 . S
N605 C597 1.427 . S
N605 C603 1.384 . S
H606 C612 0.930 . S
H607 C616 0.930 . S
H608 C621 0.929 . S
H609 C619 0.929 . S
H610 C614 0.929 . S
H611 C620 0.929 . S
C612 H606 0.930 . S
C612 C613 1.367 . S
C612 C620 1.378 . S
C613 C612 1.367 . S
C613 C621 1.433 . S
C614 H610 0.929 . S
C614 C616 1.378 . S
C614 C618 1.350 . S
C615 C618 1.463 . S
C615 C620 1.350 . S
C615 N623 1.427 . S
C616 H607 0.930 . S
C616 C614 1.378 . S
C616 C617 1.367 . S
C617 C616 1.367 . S
C617 C619 1.433 . S
C618 C614 1.350 . S
C618 C615 1.463 . S
C618 N622 1.427 . S
C619 H609 0.929 . S
C619 C617 1.433 . S
C619 N622 1.384 . S
C620 H611 0.929 . S
C620 C612 1.378 . S
C620 C615 1.350 . S
C621 H608 0.929 . S
C621 C613 1.433 . S
C621 N623 1.384 . S
N622 C618 1.427 . S
N622 C619 1.384 . S
N623 C615 1.427 . S
N623 C621 1.384 . S
H624 C630 0.930 . S
H625 C634 0.930 . S
H626 C639 0.929 . S
H627 C637 0.929 . S
H628 C632 0.929 . S
H629 C638 0.929 . S
C630 H624 0.930 . S
C630 C631 1.367 . S
C630 C638 1.378 . S
C631 C630 1.367 . S
C631 C639 1.433 . S
C632 H628 0.929 . S
C632 C634 1.378 . S
C632 C636 1.350 . S
C633 C636 1.463 . S
C633 C638 1.350 . S
C633 N641 1.427 . S
C634 H625 0.930 . S
C634 C632 1.378 . S
C634 C635 1.367 . S
C635 C634 1.367 . S
C635 C637 1.433 . S
C636 C632 1.350 . S
C636 C633 1.463 . S
C636 N640 1.427 . S
C637 H627 0.929 . S
C637 C635 1.433 . S
C637 N640 1.384 . S
C638 H629 0.929 . S
C638 C630 1.378 . S
C638 C633 1.350 . S
C639 H626 0.929 . S
C639 C631 1.433 . S
C639 N641 1.384 . S
N640 C636 1.427 . S
N640 C637 1.384 . S
N641 C633 1.427 . S
N641 C639 1.384 . S
H642 C648 0.930 . S
H643 C652 0.930 . S
H644 C657 0.929 . S
H645 C655 0.929 . S
H646 C650 0.929 . S
H647 C656 0.929 . S
C648 H642 0.930 . S
C648 C649 1.367 . S
C648 C656 1.378 . S
C649 C648 1.367 . S
C649 C657 1.433 . S
C650 H646 0.929 . S
C650 C652 1.378 . S
C650 C654 1.350 . S
C651 C654 1.463 . S
C651 C656 1.350 . S
C651 N659 1.427 . S
C652 H643 0.930 . S
C652 C650 1.378 . S
C652 C653 1.367 . S
C653 C652 1.367 . S
C653 C655 1.433 . S
C654 C650 1.350 . S
C654 C651 1.463 . S
C654 N658 1.427 . S
C655 H645 0.929 . S
C655 C653 1.433 . S
C655 N658 1.384 . S
C656 H647 0.929 . S
C656 C648 1.378 . S
C656 C651 1.350 . S
C657 H644 0.929 . S
C657 C649 1.433 . S
C657 N659 1.384 . S
N658 C654 1.427 . S
N658 C655 1.384 . S
N659 C651 1.427 . S
N659 C657 1.384 . S
H660 C666 0.930 . S
H661 C670 0.930 . S
H662 C675 0.929 . S
H663 C673 0.929 . S
H664 C668 0.929 . S
H665 C674 0.929 . S
C666 H660 0.930 . S
C666 C667 1.367 . S
C666 C674 1.378 . S
C667 C666 1.367 . S
C667 C675 1.433 . S
C668 H664 0.929 . S
C668 C670 1.378 . S
C668 C672 1.350 . S
C669 C672 1.463 . S
C669 C674 1.350 . S
C669 N677 1.427 . S
C670 H661 0.930 . S
C670 C668 1.378 . S
C670 C671 1.367 . S
C671 C670 1.367 . S
C671 C673 1.433 . S
C672 C668 1.350 . S
C672 C669 1.463 . S
C672 N676 1.427 . S
C673 H663 0.929 . S
C673 C671 1.433 . S
C673 N676 1.384 . S
C674 H665 0.929 . S
C674 C666 1.378 . S
C674 C669 1.350 . S
C675 H662 0.929 . S
C675 C667 1.433 . S
C675 N677 1.384 . S
N676 C672 1.427 . S
N676 C673 1.384 . S
N677 C669 1.427 . S
N677 C675 1.384 . S
H678 C684 0.930 . S
H679 C688 0.930 . S
H680 C693 0.929 . S
H681 C691 0.929 . S
H682 C686 0.929 . S
H683 C692 0.929 . S
C684 H678 0.930 . S
C684 C685 1.367 . S
C684 C692 1.378 . S
C685 C684 1.367 . S
C685 C693 1.433 . S
C686 H682 0.929 . S
C686 C688 1.378 . S
C686 C690 1.350 . S
C687 C690 1.463 . S
C687 C692 1.350 . S
C687 N695 1.427 . S
C688 H679 0.930 . S
C688 C686 1.378 . S
C688 C689 1.367 . S
C689 C688 1.367 . S
C689 C691 1.433 . S
C690 C686 1.350 . S
C690 C687 1.463 . S
C690 N694 1.427 . S
C691 H681 0.929 . S
C691 C689 1.433 . S
C691 N694 1.384 . S
C692 H683 0.929 . S
C692 C684 1.378 . S
C692 C687 1.350 . S
C693 H680 0.929 . S
C693 C685 1.433 . S
C693 N695 1.384 . S
N694 C690 1.427 . S
N694 C691 1.384 . S
N695 C687 1.427 . S
N695 C693 1.384 . S
H696 C702 0.930 . S
H697 C706 0.930 . S
H698 C711 0.929 . S
H699 C709 0.929 . S
H700 C704 0.929 . S
H701 C710 0.929 . S
C702 H696 0.930 . S
C702 C703 1.367 . S
C702 C710 1.378 . S
C703 C702 1.367 . S
C703 C711 1.433 . S
C704 H700 0.929 . S
C704 C706 1.378 . S
C704 C708 1.350 . S
C705 C708 1.463 . S
C705 C710 1.350 . S
C705 N713 1.427 . S
C706 H697 0.930 . S
C706 C704 1.378 . S
C706 C707 1.367 . S
C707 C706 1.367 . S
C707 C709 1.433 . S
C708 C704 1.350 . S
C708 C705 1.463 . S
C708 N712 1.427 . S
C709 H699 0.929 . S
C709 C707 1.433 . S
C709 N712 1.384 . S
C710 H701 0.929 . S
C710 C702 1.378 . S
C710 C705 1.350 . S
C711 H698 0.929 . S
C711 C703 1.433 . S
C711 N713 1.384 . S
N712 C708 1.427 . S
N712 C709 1.384 . S
N713 C705 1.427 . S
N713 C711 1.384 . S
H714 C720 0.930 . S
H715 C724 0.930 . S
H716 C729 0.929 . S
H717 C727 0.929 . S
H718 C722 0.929 . S
H719 C728 0.929 . S
C720 H714 0.930 . S
C720 C721 1.367 . S
C720 C728 1.378 . S
C721 C720 1.367 . S
C721 C729 1.433 . S
C722 H718 0.929 . S
C722 C724 1.378 . S
C722 C726 1.350 . S
C723 C726 1.463 . S
C723 C728 1.350 . S
C723 N731 1.427 . S
C724 H715 0.930 . S
C724 C722 1.378 . S
C724 C725 1.367 . S
C725 C724 1.367 . S
C725 C727 1.433 . S
C726 C722 1.350 . S
C726 C723 1.463 . S
C726 N730 1.427 . S
C727 H717 0.929 . S
C727 C725 1.433 . S
C727 N730 1.384 . S
C728 H719 0.929 . S
C728 C720 1.378 . S
C728 C723 1.350 . S
C729 H716 0.929 . S
C729 C721 1.433 . S
C729 N731 1.384 . S
N730 C726 1.427 . S
N730 C727 1.384 . S
N731 C723 1.427 . S
N731 C729 1.384 . S
H732 C738 0.930 . S
H733 C742 0.930 . S
H734 C747 0.929 . S
H735 C745 0.929 . S
H736 C740 0.929 . S
H737 C746 0.929 . S
C738 H732 0.930 . S
C738 C739 1.367 . S
C738 C746 1.378 . S
C739 C738 1.367 . S
C739 C747 1.433 . S
C740 H736 0.929 . S
C740 C742 1.378 . S
C740 C744 1.350 . S
C741 C744 1.463 . S
C741 C746 1.350 . S
C741 N749 1.427 . S
C742 H733 0.930 . S
C742 C740 1.378 . S
C742 C743 1.367 . S
C743 C742 1.367 . S
C743 C745 1.433 . S
C744 C740 1.350 . S
C744 C741 1.463 . S
C744 N748 1.427 . S
C745 H735 0.929 . S
C745 C743 1.433 . S
C745 N748 1.384 . S
C746 H737 0.929 . S
C746 C738 1.378 . S
C746 C741 1.350 . S
C747 H734 0.929 . S
C747 C739 1.433 . S
C747 N749 1.384 . S
N748 C744 1.427 . S
N748 C745 1.384 . S
N749 C741 1.427 . S
N749 C747 1.384 . S
H750 C756 0.930 . S
H751 C760 0.930 . S
H752 C765 0.929 . S
H753 C763 0.929 . S
H754 C758 0.929 . S
H755 C764 0.929 . S
C756 H750 0.930 . S
C756 C757 1.367 . S
C756 C764 1.378 . S
C757 C756 1.367 . S
C757 C765 1.433 . S
C758 H754 0.929 . S
C758 C760 1.378 . S
C758 C762 1.350 . S
C759 C762 1.463 . S
C759 C764 1.350 . S
C759 N767 1.427 . S
C760 H751 0.930 . S
C760 C758 1.378 . S
C760 C761 1.367 . S
C761 C760 1.367 . S
C761 C763 1.433 . S
C762 C758 1.350 . S
C762 C759 1.463 . S
C762 N766 1.427 . S
C763 H753 0.929 . S
C763 C761 1.433 . S
C763 N766 1.384 . S
C764 H755 0.929 . S
C764 C756 1.378 . S
C764 C759 1.350 . S
C765 H752 0.929 . S
C765 C757 1.433 . S
C765 N767 1.384 . S
N766 C762 1.427 . S
N766 C763 1.384 . S
N767 C759 1.427 . S
N767 C765 1.384 . S
H768 C774 0.930 . S
H769 C778 0.930 . S
H770 C783 0.929 . S
H771 C781 0.929 . S
H772 C776 0.929 . S
H773 C782 0.929 . S
C774 H768 0.930 . S
C774 C775 1.367 . S
C774 C782 1.378 . S
C775 C774 1.367 . S
C775 C783 1.433 . S
C776 H772 0.929 . S
C776 C778 1.378 . S
C776 C780 1.350 . S
C777 C780 1.463 . S
C777 C782 1.350 . S
C777 N785 1.427 . S
C778 H769 0.930 . S
C778 C776 1.378 . S
C778 C779 1.367 . S
C779 C778 1.367 . S
C779 C781 1.433 . S
C780 C776 1.350 . S
C780 C777 1.463 . S
C780 N784 1.427 . S
C781 H771 0.929 . S
C781 C779 1.433 . S
C781 N784 1.384 . S
C782 H773 0.929 . S
C782 C774 1.378 . S
C782 C777 1.350 . S
C783 H770 0.929 . S
C783 C775 1.433 . S
C783 N785 1.384 . S
N784 C780 1.427 . S
N784 C781 1.384 . S
N785 C777 1.427 . S
N785 C783 1.384 . S
H786 C792 0.930 . S
H787 C796 0.930 . S
H788 C801 0.929 . S
H789 C799 0.929 . S
H790 C794 0.929 . S
H791 C800 0.929 . S
C792 H786 0.930 . S
C792 C793 1.367 . S
C792 C800 1.378 . S
C793 C792 1.367 . S
C793 C801 1.433 . S
C794 H790 0.929 . S
C794 C796 1.378 . S
C794 C798 1.350 . S
C795 C798 1.463 . S
C795 C800 1.350 . S
C795 N803 1.427 . S
C796 H787 0.930 . S
C796 C794 1.378 . S
C796 C797 1.367 . S
C797 C796 1.367 . S
C797 C799 1.433 . S
C798 C794 1.350 . S
C798 C795 1.463 . S
C798 N802 1.427 . S
C799 H789 0.929 . S
C799 C797 1.433 . S
C799 N802 1.384 . S
C800 H791 0.929 . S
C800 C792 1.378 . S
C800 C795 1.350 . S
C801 H788 0.929 . S
C801 C793 1.433 . S
C801 N803 1.384 . S
N802 C798 1.427 . S
N802 C799 1.384 . S
N803 C795 1.427 . S
N803 C801 1.384 . S
H804 C810 0.930 . S
H805 C814 0.930 . S
H806 C819 0.929 . S
H807 C817 0.929 . S
H808 C812 0.929 . S
H809 C818 0.929 . S
C810 H804 0.930 . S
C810 C811 1.367 . S
C810 C818 1.378 . S
C811 C810 1.367 . S
C811 C819 1.433 . S
C812 H808 0.929 . S
C812 C814 1.378 . S
C812 C816 1.350 . S
C813 C816 1.463 . S
C813 C818 1.350 . S
C813 N821 1.427 . S
C814 H805 0.930 . S
C814 C812 1.378 . S
C814 C815 1.367 . S
C815 C814 1.367 . S
C815 C817 1.433 . S
C816 C812 1.350 . S
C816 C813 1.463 . S
C816 N820 1.427 . S
C817 H807 0.929 . S
C817 C815 1.433 . S
C817 N820 1.384 . S
C818 H809 0.929 . S
C818 C810 1.378 . S
C818 C813 1.350 . S
C819 H806 0.929 . S
C819 C811 1.433 . S
C819 N821 1.384 . S
N820 C816 1.427 . S
N820 C817 1.384 . S
N821 C813 1.427 . S
N821 C819 1.384 . S
C401 C94 1.544 . S
C397 C4 1.550 . S
C419 C163 1.541 . S
C415 C13 1.546 . S
C437 C101 1.541 . S
C433 C25 1.549 . S
C455 C164 1.542 . S
C451 C34 1.546 . S
C473 C217 1.543 . S
C469 C7 1.545 . S
C491 C253 1.519 . S
C487 C14 1.518 . S
C505 C23 1.531 . S
C509 C313 1.527 . S
C527 C376 1.524 . S
C523 C31 1.522 . S
C545 C216 1.538 . S
C541 C16 1.542 . S
C559 C22 1.524 . S
C563 C260 1.522 . S
C581 C306 1.531 . S
C577 C32 1.531 . S
C599 C375 1.525 . S
C595 C5 1.524 . S
C613 C43 1.552 . S
C617 C154 1.549 . S
C635 C111 1.541 . S
C631 C52 1.548 . S
C649 C58 1.551 . S
C653 C147 1.542 . S
C667 C68 1.547 . S
C671 C110 1.543 . S
C689 C322 1.540 . S
C685 C40 1.539 . S
C707 C366 1.516 . S
C703 C50 1.516 . S
C725 C200 1.549 . S
C721 C59 1.553 . S
C739 C70 1.512 . S
C743 C269 1.510 . S
C761 C323 1.536 . S
C757 C49 1.539 . S
C779 C359 1.513 . S
C775 C61 1.513 . S
C797 C207 1.546 . S
C793 C67 1.551 . S
C811 C41 1.518 . S
C815 C270 1.517 . S
