# Generated by pormake.
# Topology pyr, (3,6)-cn, num edge types: 1
# Building blocks:
#     Node 0, Type 0, BuildingBlock: CUQRIR_clean_linker_1, # of connection points: 3
#     Node 1, Type 0, BuildingBlock: CUQRIR_clean_linker_1, # of connection points: 3
#     Node 2, Type 0, BuildingBlock: CUQRIR_clean_linker_1, # of connection points: 3
#     Node 3, Type 0, BuildingBlock: CUQRIR_clean_linker_1, # of connection points: 3
#     Node 4, Type 0, BuildingBlock: CUQRIR_clean_linker_1, # of connection points: 3
#     Node 5, Type 0, BuildingBlock: CUQRIR_clean_linker_1, # of connection points: 3
#     Node 6, Type 0, BuildingBlock: CUQRIR_clean_linker_1, # of connection points: 3
#     Node 7, Type 0, BuildingBlock: CUQRIR_clean_linker_1, # of connection points: 3
#     Node 8, Type 1, BuildingBlock: MIFKUJ_clean_sbu_0, # of connection points: 6
#     Node 9, Type 1, BuildingBlock: MIFKUJ_clean_sbu_0, # of connection points: 6
#     Node 10, Type 1, BuildingBlock: MIFKUJ_clean_sbu_0, # of connection points: 6
#     Node 11, Type 1, BuildingBlock: MIFKUJ_clean_sbu_0, # of connection points: 6
#     Edge 12, Type (0, 1), BuildingBlock: XIVTED_clean_linker_0, # of connection points: 2
#     Edge 13, Type (0, 1), BuildingBlock: XIVTED_clean_linker_0, # of connection points: 2
#     Edge 14, Type (0, 1), BuildingBlock: XIVTED_clean_linker_0, # of connection points: 2
#     Edge 15, Type (0, 1), BuildingBlock: XIVTED_clean_linker_0, # of connection points: 2
#     Edge 16, Type (0, 1), BuildingBlock: XIVTED_clean_linker_0, # of connection points: 2
#     Edge 17, Type (0, 1), BuildingBlock: XIVTED_clean_linker_0, # of connection points: 2
#     Edge 18, Type (0, 1), BuildingBlock: XIVTED_clean_linker_0, # of connection points: 2
#     Edge 19, Type (0, 1), BuildingBlock: XIVTED_clean_linker_0, # of connection points: 2
#     Edge 20, Type (0, 1), BuildingBlock: XIVTED_clean_linker_0, # of connection points: 2
#     Edge 21, Type (0, 1), BuildingBlock: XIVTED_clean_linker_0, # of connection points: 2
#     Edge 22, Type (0, 1), BuildingBlock: XIVTED_clean_linker_0, # of connection points: 2
#     Edge 23, Type (0, 1), BuildingBlock: XIVTED_clean_linker_0, # of connection points: 2
#     Edge 24, Type (0, 1), BuildingBlock: XIVTED_clean_linker_0, # of connection points: 2
#     Edge 25, Type (0, 1), BuildingBlock: XIVTED_clean_linker_0, # of connection points: 2
#     Edge 26, Type (0, 1), BuildingBlock: XIVTED_clean_linker_0, # of connection points: 2
#     Edge 27, Type (0, 1), BuildingBlock: XIVTED_clean_linker_0, # of connection points: 2
#     Edge 28, Type (0, 1), BuildingBlock: XIVTED_clean_linker_0, # of connection points: 2
#     Edge 29, Type (0, 1), BuildingBlock: XIVTED_clean_linker_0, # of connection points: 2
#     Edge 30, Type (0, 1), BuildingBlock: XIVTED_clean_linker_0, # of connection points: 2
#     Edge 31, Type (0, 1), BuildingBlock: XIVTED_clean_linker_0, # of connection points: 2
#     Edge 32, Type (0, 1), BuildingBlock: XIVTED_clean_linker_0, # of connection points: 2
#     Edge 33, Type (0, 1), BuildingBlock: XIVTED_clean_linker_0, # of connection points: 2
#     Edge 34, Type (0, 1), BuildingBlock: XIVTED_clean_linker_0, # of connection points: 2
#     Edge 35, Type (0, 1), BuildingBlock: XIVTED_clean_linker_0, # of connection points: 2
# Relax obj value: 0.096
# Max RMSD: 0.225
# Mean RMSD: 0.152
data_MOF--net-pyr--node1-MIFKUJ_clean_sbu_0--node2-CUQRIR_clean_linker_1--edge1-XIVTED_clean_linker_0
_symmetry_space_group_name_H-M    P1
_symmetry_Int_Tables_number       1
_symmetry_cell_setting            triclinic
loop_
_symmetry_equiv_pos_as_xyz
'x, y, z'
_cell_length_a     36.913422
_cell_length_b     33.254447
_cell_length_c     34.561772
_cell_angle_alpha  83.173811
_cell_angle_beta   90.06563
_cell_angle_gamma 100.64417
loop_
_atom_site_label
_atom_site_type_symbol
_atom_site_fract_x
_atom_site_fract_y
_atom_site_fract_z
_atom_type_partial_charge
C0 C 0.17784 0.21033 0.2042 0.0
N1 N 0.2009 0.18365 0.21338 0.0
N2 N 0.1851 0.22976 0.16766 0.0
C3 C 0.14734 0.21637 0.23056 0.0
C4 C 0.21353 0.21385 0.15483 0.0
N5 N 0.22284 0.18528 0.18258 0.0
C6 C 0.2314 0.22516 0.11495 0.0
H7 H 0.12238 0.19304 0.22652 0.0
H8 H 0.14056 0.24753 0.22359 0.0
H9 H 0.15509 0.21209 0.26157 0.0
H10 H 0.22702 0.25567 0.1013 0.0
H11 H 0.21913 0.20186 0.09589 0.0
H12 H 0.26144 0.22521 0.11653 0.0
C13 C 0.32569 0.82761 0.67097 0.0
N14 N 0.3219 0.85583 0.69517 0.0
N15 N 0.35647 0.81181 0.67919 0.0
C16 C 0.30154 0.81861 0.63669 0.0
C17 C 0.37165 0.83193 0.70882 0.0
N18 N 0.35081 0.85898 0.71825 0.0
C19 C 0.40549 0.82339 0.73011 0.0
H20 H 0.27793 0.79359 0.6464 0.0
H21 H 0.31701 0.80849 0.61328 0.0
H22 H 0.29056 0.84624 0.62452 0.0
H23 H 0.42999 0.84469 0.71632 0.0
H24 H 0.4092 0.79125 0.72861 0.0
H25 H 0.40383 0.82865 0.76111 0.0
C26 C 0.62531 0.33948 0.81685 0.0
N27 N 0.64796 0.33379 0.84706 0.0
N28 N 0.63669 0.37674 0.7958 0.0
C29 C 0.59048 0.31003 0.80963 0.0
C30 C 0.66687 0.39372 0.8146 0.0
N31 N 0.67344 0.36782 0.84605 0.0
C32 C 0.69142 0.43427 0.80072 0.0
H33 H 0.59726 0.28691 0.79153 0.0
H34 H 0.5702 0.32647 0.79401 0.0
H35 H 0.57775 0.29345 0.83749 0.0
H36 H 0.6818 0.459 0.8145 0.0
H37 H 0.69033 0.44149 0.76862 0.0
H38 H 0.72041 0.43408 0.80909 0.0
C39 C 0.82542 0.62687 0.2882 0.0
N40 N 0.85959 0.64955 0.2808 0.0
N41 N 0.80865 0.64024 0.31776 0.0
C42 C 0.80767 0.59334 0.26484 0.0
C43 C 0.83391 0.67199 0.32799 0.0
N44 N 0.86483 0.67769 0.30544 0.0
C45 C 0.82863 0.69701 0.36043 0.0
H46 H 0.81835 0.59941 0.2343 0.0
H47 H 0.77726 0.59067 0.26483 0.0
H48 H 0.81437 0.56355 0.27792 0.0
H49 H 0.80998 0.67828 0.38366 0.0
H50 H 0.81614 0.72361 0.3484 0.0
H51 H 0.85521 0.70923 0.37349 0.0
C52 C 0.80818 0.86005 0.84523 0.0
N53 N 0.83622 0.85532 0.82207 0.0
N54 N 0.78781 0.88582 0.82623 0.0
C55 C 0.79905 0.83709 0.88526 0.0
C56 C 0.80434 0.89631 0.79054 0.0
N57 N 0.83358 0.87738 0.78789 0.0
C58 C 0.79402 0.9279 0.75971 0.0
H59 H 0.76913 0.83282 0.8921 0.0
H60 H 0.81446 0.85504 0.90711 0.0
H61 H 0.8073 0.80646 0.88767 0.0
H62 H 0.78041 0.95027 0.77284 0.0
H63 H 0.77456 0.91198 0.7395 0.0
H64 H 0.81869 0.94494 0.7426 0.0
C65 C 0.72662 0.20427 0.39842 0.0
N66 N 0.73521 0.17767 0.37451 0.0
N67 N 0.69762 0.22099 0.38447 0.0
C68 C 0.74548 0.21245 0.43604 0.0
C69 C 0.68933 0.20404 0.35115 0.0
N70 N 0.7122 0.17797 0.34498 0.0
C71 C 0.65806 0.21192 0.32507 0.0
H72 H 0.73382 0.18737 0.45919 0.0
H73 H 0.74132 0.24201 0.44535 0.0
H74 H 0.77546 0.21269 0.43312 0.0
H75 H 0.65187 0.24305 0.32693 0.0
H76 H 0.6331 0.18861 0.33436 0.0
H77 H 0.66469 0.20911 0.29432 0.0
C78 C 0.31484 0.62699 0.18892 0.0
N79 N 0.34651 0.64972 0.20057 0.0
N80 N 0.29712 0.65044 0.1635 0.0
C81 C 0.29927 0.58312 0.20501 0.0
C82 C 0.31865 0.68823 0.16038 0.0
N83 N 0.34844 0.68798 0.18316 0.0
C84 C 0.3114 0.72498 0.13374 0.0
H85 H 0.31204 0.56209 0.18903 0.0
H86 H 0.26899 0.57581 0.20145 0.0
H87 H 0.30547 0.57737 0.23639 0.0
H88 H 0.29879 0.74503 0.15109 0.0
H89 H 0.29231 0.71552 0.11028 0.0
H90 H 0.33755 0.74328 0.12042 0.0
C91 C 0.12728 0.35926 0.72017 0.0
N92 N 0.1533 0.35402 0.69453 0.0
N93 N 0.13885 0.39356 0.73784 0.0
C94 C 0.09252 0.32836 0.73122 0.0
C95 C 0.17302 0.40871 0.72222 0.0
N96 N 0.18193 0.38447 0.69629 0.0
C97 C 0.1967 0.4488 0.72993 0.0
H98 H 0.06986 0.33634 0.71247 0.0
H99 H 0.08447 0.32859 0.7621 0.0
H100 H 0.09614 0.29678 0.72697 0.0
H101 H 0.21523 0.44278 0.75437 0.0
H102 H 0.17953 0.47078 0.7379 0.0
H103 H 0.21408 0.46308 0.70394 0.0
Zn104 Zn 0.07684 0.02626 0.53907 0.0
Zn105 Zn 0.99372 0.97963 0.46285 0.0
C106 C 0.11288 0.10664 0.55227 0.0
O107 O 0.14043 0.09363 0.53679 0.0
C108 C 0.98509 0.92951 0.39979 0.0
O109 O 0.99248 0.96584 0.37895 0.0
O110 O 0.11591 0.99911 0.56679 0.0
O111 O 0.02907 0.99066 0.55923 0.0
O112 O 0.98554 0.96331 0.52059 0.0
C113 C 0.12875 0.00826 0.59948 0.0
O114 O 0.11708 0.03709 0.6162 0.0
O115 O 0.08142 0.08307 0.55587 0.0
C116 C 0.95294 0.03896 0.41759 0.0
O117 O 0.98155 0.04913 0.3935 0.0
O118 O 0.95351 0.01206 0.44689 0.0
O119 O 0.04379 0.00986 0.44264 0.0
O120 O 0.08866 0.03374 0.48158 0.0
O121 O 0.98381 0.92746 0.43678 0.0
C122 C 0.99798 0.96826 0.55435 0.0
C123 C 0.07657 0.02808 0.44783 0.0
Zn124 Zn 0.52102 0.99289 0.99365 0.0
Zn125 Zn 0.50515 0.04245 0.10001 0.0
C126 C 0.45078 0.96799 0.95514 0.0
O127 O 0.44032 0.94599 0.98871 0.0
C128 C 0.57346 0.05149 0.13965 0.0
O129 O 0.58598 0.05314 0.10381 0.0
O130 O 0.56718 0.98019 0.97055 0.0
O131 O 0.53288 0.04857 0.01187 0.0
O132 O 0.53007 0.08726 0.05838 0.0
C133 C 0.5708 0.97878 0.93418 0.0
O134 O 0.54438 0.98705 0.9108 0.0
O135 O 0.48246 0.9911 0.95189 0.0
C136 C 0.44879 0.06829 0.14575 0.0
O137 O 0.47451 0.07172 0.17208 0.0
O138 O 0.45556 0.0559 0.11354 0.0
O139 O 0.49797 0.98344 0.08689 0.0
O140 O 0.5038 0.94819 0.03757 0.0
O141 O 0.53884 0.04608 0.14592 0.0
C142 C 0.5401 0.08361 0.02406 0.0
C143 C 0.49541 0.9492 0.07307 0.0
Zn144 Zn 0.50433 0.47353 0.47598 0.0
Zn145 Zn 0.47799 0.53987 0.51728 0.0
C146 C 0.55744 0.51806 0.42443 0.0
O147 O 0.53631 0.49335 0.4032 0.0
C148 C 0.42685 0.48783 0.57071 0.0
O149 O 0.45078 0.50554 0.59453 0.0
O150 O 0.52043 0.42294 0.45894 0.0
O151 O 0.50074 0.46059 0.5346 0.0
O152 O 0.52281 0.52437 0.54375 0.0
C153 C 0.55189 0.41902 0.47253 0.0
O154 O 0.56767 0.4452 0.49587 0.0
O155 O 0.54834 0.5181 0.45989 0.0
C156 C 0.43648 0.59813 0.53727 0.0
O157 O 0.4115 0.57478 0.51853 0.0
O158 O 0.46881 0.59014 0.5398 0.0
O159 O 0.47885 0.55404 0.45923 0.0
O160 O 0.46221 0.4908 0.444 0.0
O161 O 0.43303 0.49619 0.53418 0.0
C162 C 0.52007 0.4861 0.55442 0.0
C163 C 0.46366 0.52951 0.4359 0.0
Zn164 Zn 0.96768 0.55702 0.96829 0.0
Zn165 Zn 0.99868 0.49261 0.02483 0.0
C166 C 0.91466 0.49667 0.9335 0.0
O167 O 0.9375 0.50813 0.90343 0.0
C168 C 0.05117 0.54598 0.06191 0.0
O169 O 0.02827 0.5286 0.09073 0.0
O170 O 0.95703 0.60609 0.93341 0.0
O171 O 0.97036 0.57311 0.02266 0.0
O172 O 0.95784 0.51031 0.05416 0.0
C173 C 0.97088 0.64279 0.93901 0.0
O174 O 0.99385 0.64903 0.96768 0.0
O175 O 0.92223 0.51245 0.96501 0.0
C176 C 0.04664 0.43887 0.0411 0.0
O177 O 0.06191 0.4642 0.01102 0.0
O178 O 0.01549 0.44318 0.05416 0.0
O179 O 0.99131 0.47769 0.96998 0.0
O180 O 0.01281 0.5414 0.94559 0.0
O181 O 0.04382 0.53717 0.0276 0.0
C182 C 0.9584 0.54888 0.05306 0.0
C183 C 0.01029 0.50309 0.94412 0.0
H184 H 0.22576 0.19209 0.28564 0.0
H185 H 0.06606 0.01119 0.37251 0.0
H186 H 0.16219 0.1069 0.21611 0.0
H187 H 0.14332 0.08096 0.44466 0.0
H188 H 0.10481 0.04138 0.31547 0.0
H189 H 0.20156 0.14685 0.34488 0.0
C190 C 0.20773 0.16294 0.28309 0.0
C191 C 0.196 0.15266 0.24645 0.0
C192 C 0.11354 0.04977 0.34382 0.0
C193 C 0.16701 0.10179 0.31338 0.0
C194 C 0.09127 0.0327 0.37642 0.0
C195 C 0.10116 0.04394 0.41342 0.0
C196 C 0.14575 0.07873 0.34806 0.0
C197 C 0.13444 0.07159 0.41669 0.0
C198 C 0.1936 0.13735 0.31671 0.0
C199 C 0.17197 0.11528 0.24412 0.0
N200 N 0.15529 0.08843 0.38437 0.0
N201 N 0.1577 0.09144 0.2772 0.0
H202 H 0.40685 0.92249 0.7208 0.0
H203 H 0.38386 0.9169 0.94965 0.0
H204 H 0.31193 0.85234 0.78545 0.0
H205 H 0.46784 0.00247 0.87994 0.0
H206 H 0.35322 0.89798 0.88987 0.0
H207 H 0.42588 0.9577 0.77792 0.0
C208 C 0.3897 0.91536 0.74702 0.0
C209 C 0.35795 0.88483 0.74886 0.0
C210 C 0.37804 0.92135 0.88769 0.0
C211 C 0.3797 0.92371 0.81456 0.0
C212 C 0.39558 0.93218 0.92184 0.0
C213 C 0.42879 0.96092 0.91985 0.0
C214 C 0.394 0.93912 0.8513 0.0
C215 C 0.44253 0.97985 0.88296 0.0
C216 C 0.40049 0.9352 0.77962 0.0
C217 C 0.33651 0.87602 0.78324 0.0
N218 N 0.42536 0.96822 0.85021 0.0
N219 N 0.34808 0.89492 0.81509 0.0
H220 H 0.62145 0.33917 0.73118 0.0
H221 H 0.55163 0.53066 0.6117 0.0
H222 H 0.61748 0.45163 0.77982 0.0
H223 H 0.53009 0.40764 0.57818 0.0
H224 H 0.58137 0.50485 0.67052 0.0
H225 H 0.59347 0.36626 0.67173 0.0
C226 C 0.61451 0.36957 0.72922 0.0
C227 C 0.62141 0.39316 0.76032 0.0
C228 C 0.5701 0.48355 0.65027 0.0
C229 C 0.58997 0.4247 0.69244 0.0
C230 C 0.55322 0.49826 0.61666 0.0
C231 C 0.53828 0.47123 0.59004 0.0
C232 C 0.5724 0.44162 0.65707 0.0
C233 C 0.54105 0.42954 0.598 0.0
C234 C 0.59867 0.38509 0.69536 0.0
C235 C 0.61267 0.4327 0.75627 0.0
N236 N 0.55786 0.41606 0.63071 0.0
N237 N 0.59737 0.4473 0.7229 0.0
H238 H 0.89318 0.58451 0.28485 0.0
H239 H 0.95121 0.62845 0.05862 0.0
H240 H 0.88201 0.6958 0.21258 0.0
H241 H 0.94286 0.50981 0.12745 0.0
H242 H 0.93524 0.6575 0.11658 0.0
H243 H 0.92278 0.56159 0.2301 0.0
C244 C 0.89825 0.60465 0.25762 0.0
C245 C 0.88571 0.64213 0.253 0.0
C246 C 0.93699 0.62515 0.11902 0.0
C247 C 0.91816 0.61584 0.18995 0.0
C248 C 0.94602 0.60844 0.08591 0.0
C249 C 0.94807 0.56645 0.08803 0.0
C250 C 0.93016 0.59981 0.15469 0.0
C251 C 0.94124 0.5422 0.12429 0.0
C252 C 0.91461 0.59143 0.22629 0.0
C253 C 0.89195 0.667 0.21718 0.0
N254 N 0.93256 0.55923 0.15614 0.0
N255 N 0.90741 0.65321 0.18675 0.0
H256 H 0.27777 0.18187 0.23348 0.0
H257 H 0.38945 0.06618 0.0975 0.0
H258 H 0.23518 0.13761 0.12731 0.0
H259 H 0.42655 0.09903 0.21002 0.0
H260 H 0.33202 0.09018 0.10863 0.0
H261 H 0.3313 0.14895 0.22692 0.0
C262 C 0.2796 0.1647 0.20906 0.0
C263 C 0.25243 0.1627 0.18069 0.0
C264 C 0.35262 0.0919 0.13099 0.0
C265 C 0.31365 0.12559 0.17242 0.0
C266 C 0.38548 0.07822 0.12464 0.0
C267 C 0.41301 0.08074 0.15279 0.0
C268 C 0.34724 0.1084 0.16569 0.0
C269 C 0.40621 0.0966 0.18742 0.0
C270 C 0.31019 0.14616 0.20512 0.0
C271 C 0.25604 0.14049 0.14933 0.0
N272 N 0.37414 0.11 0.19278 0.0
N273 N 0.28625 0.12306 0.14583 0.0
H274 H 0.32938 0.93896 0.68754 0.0
H275 H 0.13656 0.92935 0.59394 0.0
H276 H 0.24896 0.8264 0.69901 0.0
H277 H 0.18266 0.03648 0.64926 0.0
H278 H 0.18197 0.89258 0.62639 0.0
H279 H 0.2798 0.97794 0.67037 0.0
C280 C 0.30112 0.9227 0.68752 0.0
C281 C 0.293 0.87957 0.69417 0.0
C282 C 0.18195 0.92405 0.63161 0.0
C283 C 0.23697 0.92323 0.6734 0.0
C284 C 0.15632 0.94511 0.61288 0.0
C285 C 0.156 0.98594 0.61895 0.0
C286 C 0.20804 0.94432 0.65575 0.0
C287 C 0.18202 0.00491 0.64399 0.0
C288 C 0.273 0.94478 0.67748 0.0
C289 C 0.25614 0.85964 0.69338 0.0
N290 N 0.20745 0.98411 0.66113 0.0
N291 N 0.22953 0.88152 0.68224 0.0
H292 H 0.73347 0.33346 0.84208 0.0
H293 H 0.85074 0.48815 0.97663 0.0
H294 H 0.6864 0.41854 0.90163 0.0
H295 H 0.89741 0.44197 0.88031 0.0
H296 H 0.79022 0.44792 0.96341 0.0
H297 H 0.79353 0.35759 0.87076 0.0
C298 C 0.73571 0.35621 0.86235 0.0
C299 C 0.70533 0.37392 0.87002 0.0
C300 C 0.81386 0.44624 0.94555 0.0
C301 C 0.77337 0.40211 0.90222 0.0
C302 C 0.84839 0.46903 0.95314 0.0
C303 C 0.87905 0.46873 0.92924 0.0
C304 C 0.81015 0.42247 0.9143 0.0
C305 C 0.87441 0.44347 0.89915 0.0
C306 C 0.76986 0.37029 0.87831 0.0
C307 C 0.70937 0.40403 0.89559 0.0
N308 N 0.8406 0.42146 0.89246 0.0
N309 N 0.74289 0.41744 0.91066 0.0
H310 H 0.78122 0.56045 0.34226 0.0
H311 H 0.59858 0.59071 0.44276 0.0
H312 H 0.75479 0.68211 0.33278 0.0
H313 H 0.5996 0.4923 0.37208 0.0
H314 H 0.66106 0.62278 0.41741 0.0
H315 H 0.71905 0.53179 0.36895 0.0
C316 C 0.76224 0.58103 0.3458 0.0
C317 C 0.7728 0.62353 0.33504 0.0
C318 C 0.64729 0.59426 0.40752 0.0
C319 C 0.70265 0.5914 0.36666 0.0
C320 C 0.61193 0.57603 0.42192 0.0
C321 C 0.59403 0.53912 0.40915 0.0
C322 C 0.66491 0.57452 0.38139 0.0
C323 C 0.61234 0.52105 0.38226 0.0
C324 C 0.72703 0.56479 0.36115 0.0
C325 C 0.74764 0.64919 0.34111 0.0
N326 N 0.64699 0.53869 0.3696 0.0
N327 N 0.71359 0.63273 0.35677 0.0
H328 H 0.11277 0.21628 0.15156 0.0
H329 H 0.1199 0.43874 0.03468 0.0
H330 H 0.21173 0.30869 0.13866 0.0
H331 H 0.01959 0.36812 0.09012 0.0
H332 H 0.15375 0.38716 0.06466 0.0
H333 H 0.07771 0.26733 0.1211 0.0
C334 C 0.12702 0.24733 0.14189 0.0
C335 C 0.16507 0.25847 0.14701 0.0
C336 C 0.12436 0.38296 0.07033 0.0
C337 C 0.1256 0.31663 0.11233 0.0
C338 C 0.10494 0.41226 0.05311 0.0
C339 C 0.06682 0.40763 0.05989 0.0
C340 C 0.10551 0.34833 0.09406 0.0
C341 C 0.04897 0.37288 0.08425 0.0
C342 C 0.10712 0.27637 0.12476 0.0
C343 C 0.18253 0.29893 0.13436 0.0
N344 N 0.06846 0.34429 0.1003 0.0
N345 N 0.16268 0.32659 0.11739 0.0
H346 H 0.63716 0.33189 0.92451 0.0
H347 H 0.56907 0.08681 0.95029 0.0
H348 H 0.64694 0.25521 0.83471 0.0
H349 H 0.55922 0.16321 0.04095 0.0
H350 H 0.60295 0.14726 0.9097 0.0
H351 H 0.61555 0.2697 0.9705 0.0
C352 C 0.63568 0.3018 0.91494 0.0
C353 C 0.64361 0.29831 0.87603 0.0
C354 C 0.59351 0.1508 0.93853 0.0
C355 C 0.61815 0.22732 0.92764 0.0
C356 C 0.574 0.11626 0.96169 0.0
C357 C 0.56091 0.11991 0.99901 0.0
C358 C 0.59996 0.1894 0.95265 0.0
C359 C 0.5685 0.1589 0.01229 0.0
C360 C 0.62298 0.26636 0.94091 0.0
C361 C 0.64084 0.25885 0.86458 0.0
N362 N 0.58731 0.19209 0.98909 0.0
N363 N 0.62794 0.22488 0.89011 0.0
H364 H 0.92046 0.67727 0.35543 0.0
H365 H 0.97129 0.92335 0.32265 0.0
H366 H 0.87796 0.7516 0.26233 0.0
H367 H 0.98017 0.84936 0.43242 0.0
H368 H 0.95293 0.8602 0.29201 0.0
H369 H 0.95995 0.73952 0.37433 0.0
C370 C 0.92089 0.70662 0.33794 0.0
C371 C 0.8964 0.70972 0.30726 0.0
C372 C 0.95932 0.85786 0.32269 0.0
C373 C 0.94014 0.78079 0.32909 0.0
C374 C 0.96977 0.89385 0.34025 0.0
C375 C 0.97676 0.89162 0.38032 0.0
C376 C 0.95624 0.81935 0.34526 0.0
C377 C 0.97454 0.85253 0.40158 0.0
C378 C 0.94285 0.74212 0.34901 0.0
C379 C 0.89693 0.74829 0.28588 0.0
N380 N 0.96428 0.81794 0.38383 0.0
N381 N 0.91806 0.78255 0.29752 0.0
H382 H 0.31683 0.7378 0.66816 0.0
H383 H 0.48212 0.65998 0.56909 0.0
H384 H 0.42459 0.81378 0.64912 0.0
H385 H 0.36726 0.61063 0.55261 0.0
H386 H 0.4636 0.71228 0.60532 0.0
H387 H 0.33697 0.68561 0.63328 0.0
C388 C 0.34478 0.7433 0.65657 0.0
C389 C 0.36908 0.78001 0.6611 0.0
C390 C 0.44255 0.69004 0.5936 0.0
C391 C 0.39251 0.72061 0.62171 0.0
C392 C 0.45306 0.66022 0.573 0.0
C393 C 0.42617 0.631 0.55776 0.0
C394 C 0.40494 0.69014 0.59945 0.0
C395 C 0.38892 0.63268 0.56366 0.0
C396 C 0.35627 0.71366 0.63673 0.0
C397 C 0.40523 0.78564 0.64629 0.0
N398 N 0.37942 0.66158 0.58424 0.0
N399 N 0.41594 0.75619 0.62717 0.0
H400 H 0.90718 0.90337 0.78896 0.0
H401 H 0.92806 0.92206 0.55657 0.0
H402 H 0.81786 0.86486 0.71358 0.0
H403 H 0.01547 0.96943 0.63146 0.0
H404 H 0.88938 0.89368 0.61419 0.0
H405 H 0.94953 0.91995 0.73222 0.0
C406 C 0.89676 0.89787 0.7604 0.0
C407 C 0.85922 0.88304 0.75556 0.0
C408 C 0.9171 0.91009 0.61802 0.0
C409 C 0.90691 0.90232 0.69067 0.0
C410 C 0.93926 0.92631 0.5851 0.0
C411 C 0.97503 0.94854 0.58907 0.0
C412 C 0.93074 0.91608 0.65526 0.0
C413 C 0.98799 0.95283 0.62688 0.0
C414 C 0.92074 0.90754 0.72804 0.0
C415 C 0.84668 0.87669 0.71813 0.0
N416 N 0.9658 0.93696 0.65846 0.0
N417 N 0.87043 0.88663 0.68701 0.0
H418 H 0.73701 0.18677 0.27073 0.0
H419 H 0.55891 0.03738 0.21819 0.0
H420 H 0.66873 0.10376 0.35756 0.0
H421 H 0.64705 0.08492 0.13373 0.0
H422 H 0.60077 0.05804 0.27005 0.0
H423 H 0.70846 0.146 0.22014 0.0
C424 C 0.71708 0.15883 0.2791 0.0
C425 C 0.70525 0.14803 0.31799 0.0
C426 C 0.61116 0.06337 0.24023 0.0
C427 C 0.67131 0.1026 0.26083 0.0
C428 C 0.58718 0.05178 0.2106 0.0
C429 C 0.59941 0.05982 0.17158 0.0
C430 C 0.64742 0.08388 0.23073 0.0
C431 C 0.63642 0.0783 0.16344 0.0
C432 C 0.7005 0.13583 0.25037 0.0
C433 C 0.67865 0.11243 0.32773 0.0
N434 N 0.65897 0.09035 0.19271 0.0
N435 N 0.66194 0.09138 0.29923 0.0
H436 H 0.36764 0.68693 0.26429 0.0
H437 H 0.44051 0.4913 0.37112 0.0
H438 H 0.37821 0.58202 0.20619 0.0
H439 H 0.45272 0.60821 0.41695 0.0
H440 H 0.41646 0.52276 0.31089 0.0
H441 H 0.39937 0.65859 0.32048 0.0
C442 C 0.3774 0.65833 0.26314 0.0
C443 C 0.37024 0.63664 0.23081 0.0
C444 C 0.42459 0.54148 0.33414 0.0
C445 C 0.40547 0.60321 0.29528 0.0
C446 C 0.4381 0.52347 0.36858 0.0
C447 C 0.44859 0.54707 0.39921 0.0
C448 C 0.42123 0.58323 0.33051 0.0
C449 C 0.44506 0.58874 0.39417 0.0
C450 C 0.39515 0.64188 0.29531 0.0
C451 C 0.38283 0.59929 0.23093 0.0
N452 N 0.43156 0.60535 0.36067 0.0
N453 N 0.39945 0.58345 0.26286 0.0
H454 H 0.06765 0.4036 0.7373 0.0
H455 H 0.07857 0.53483 0.91248 0.0
H456 H 0.16621 0.42004 0.8051 0.0
H457 H 0.98482 0.43737 0.90504 0.0
H458 H 0.11046 0.50779 0.8616 0.0
H459 H 0.03518 0.4299 0.78815 0.0
C460 C 0.08237 0.41264 0.76291 0.0
C461 C 0.11962 0.40963 0.76709 0.0
C462 C 0.08286 0.49255 0.87114 0.0
C463 C 0.0833 0.44113 0.82409 0.0
C464 C 0.06467 0.50798 0.89984 0.0
C465 C 0.02918 0.48812 0.9128 0.0
C466 C 0.06487 0.45794 0.85458 0.0
C467 C 0.01231 0.45329 0.89585 0.0
C468 C 0.06396 0.42777 0.79165 0.0
C469 C 0.13772 0.42262 0.80043 0.0
N470 N 0.03017 0.43949 0.86718 0.0
N471 N 0.11949 0.43825 0.82753 0.0
H472 H 0.72157 0.88445 0.79272 0.0
H473 H 0.63347 0.96606 0.97256 0.0
H474 H 0.78317 0.91875 0.89335 0.0
H475 H 0.58283 0.96256 0.86002 0.0
H476 H 0.6868 0.94366 0.94604 0.0
H477 H 0.6684 0.9082 0.81866 0.0
C478 C 0.72378 0.89719 0.82022 0.0
C479 C 0.75652 0.89974 0.84105 0.0
C480 C 0.66407 0.94796 0.92714 0.0
C481 C 0.69612 0.92634 0.87116 0.0
C482 C 0.6336 0.96068 0.94227 0.0
C483 C 0.60367 0.96626 0.91845 0.0
C484 C 0.66448 0.94042 0.88803 0.0
C485 C 0.60532 0.95879 0.87942 0.0
C486 C 0.69356 0.91061 0.83507 0.0
C487 C 0.75815 0.91593 0.87677 0.0
N488 N 0.63515 0.94609 0.86547 0.0
N489 N 0.7283 0.92852 0.89081 0.0
H490 H 0.78991 0.17974 0.32248 0.0
H491 H 0.89078 0.02765 0.4638 0.0
H492 H 0.7475 0.12356 0.43592 0.0
H493 H 0.93933 0.09363 0.35554 0.0
H494 H 0.83642 0.05905 0.45209 0.0
H495 H 0.84269 0.14435 0.33151 0.0
C496 C 0.79169 0.15955 0.34912 0.0
C497 C 0.76473 0.15465 0.37863 0.0
C498 C 0.85893 0.06668 0.43086 0.0
C499 C 0.82484 0.11443 0.38952 0.0
C500 C 0.89006 0.04874 0.43752 0.0
C501 C 0.91983 0.05806 0.41066 0.0
C502 C 0.85732 0.09414 0.397 0.0
C503 C 0.91715 0.08562 0.37712 0.0
C504 C 0.82183 0.13962 0.35443 0.0
C505 C 0.76814 0.12852 0.4128 0.0
N506 N 0.88647 0.10266 0.37125 0.0
N507 N 0.79772 0.10945 0.41738 0.0
H508 H 0.28076 0.59444 0.11286 0.0
H509 H 0.0666 0.59318 0.12084 0.0
H510 H 0.23516 0.68 0.17342 0.0
H511 H 0.11762 0.55123 0.02478 0.0
H512 H 0.12768 0.62301 0.14262 0.0
H513 H 0.22069 0.57438 0.08261 0.0
C514 C 0.25792 0.60889 0.11959 0.0
C515 C 0.26237 0.63865 0.14548 0.0
C516 C 0.12552 0.60784 0.11644 0.0
C517 C 0.1942 0.61615 0.11161 0.0
C518 C 0.09072 0.59087 0.10401 0.0
C519 C 0.08721 0.56984 0.071 0.0
C520 C 0.15704 0.60281 0.09625 0.0
C521 C 0.11924 0.56754 0.05023 0.0
C522 C 0.22391 0.59778 0.10226 0.0
C523 C 0.23241 0.65691 0.15349 0.0
N524 N 0.15296 0.58325 0.06359 0.0
N525 N 0.19938 0.64509 0.13688 0.0
H526 H 0.24704 0.38284 0.72996 0.0
H527 H 0.36312 0.46342 0.5315 0.0
H528 H 0.19624 0.39753 0.61842 0.0
H529 H 0.40983 0.45575 0.64607 0.0
H530 H 0.30285 0.42986 0.56055 0.0
H531 H 0.30781 0.3996 0.6977 0.0
C532 C 0.24896 0.38927 0.6985 0.0
C533 C 0.21706 0.38928 0.67666 0.0
C534 C 0.32642 0.43513 0.57921 0.0
C535 C 0.28617 0.40896 0.63936 0.0
C536 C 0.36084 0.45412 0.56265 0.0
C537 C 0.39146 0.46279 0.58648 0.0
C538 C 0.32274 0.42463 0.61981 0.0
C539 C 0.38692 0.45012 0.62663 0.0
C540 C 0.2835 0.39886 0.68004 0.0
C541 C 0.2205 0.39739 0.63601 0.0
N542 N 0.35322 0.43199 0.64199 0.0
N543 N 0.25458 0.40741 0.61856 0.0
H544 H 0.84786 0.79096 0.78629 0.0
H545 H 0.98509 0.72404 0.9512 0.0
H546 H 0.88422 0.86103 0.88061 0.0
H547 H 0.92786 0.64139 0.87437 0.0
H548 H 0.95853 0.78002 0.91696 0.0
H549 H 0.88745 0.74145 0.80945 0.0
C550 C 0.8648 0.79611 0.81148 0.0
C551 C 0.86287 0.82952 0.83195 0.0
C552 C 0.95207 0.7497 0.90739 0.0
C553 C 0.90767 0.77359 0.85869 0.0
C554 C 0.96729 0.71774 0.92686 0.0
C555 C 0.95832 0.67785 0.91595 0.0
C556 C 0.92785 0.74177 0.87668 0.0
C557 C 0.9352 0.67157 0.88406 0.0
C558 C 0.88713 0.76792 0.82482 0.0
C559 C 0.88496 0.83521 0.86449 0.0
N560 N 0.92056 0.70314 0.86571 0.0
N561 N 0.90632 0.80734 0.87708 0.0
H562 H 0.34868 0.75908 0.21297 0.0
H563 H 0.50302 0.87188 0.05977 0.0
H564 H 0.4155 0.69453 0.1503 0.0
H565 H 0.4567 0.93643 0.14292 0.0
H566 H 0.47545 0.80653 0.09701 0.0
H567 H 0.39237 0.82366 0.1942 0.0
C568 C 0.37346 0.75851 0.19647 0.0
C569 C 0.37889 0.72182 0.18323 0.0
C570 C 0.47167 0.83492 0.1075 0.0
C571 C 0.42804 0.79531 0.16022 0.0
C572 C 0.48726 0.87234 0.08608 0.0
C573 C 0.48178 0.90976 0.09793 0.0
C574 C 0.4498 0.83466 0.14077 0.0
C575 C 0.46146 0.90834 0.13257 0.0
C576 C 0.39818 0.79527 0.18543 0.0
C577 C 0.41081 0.72233 0.16129 0.0
N578 N 0.4457 0.87138 0.15243 0.0
N579 N 0.43386 0.75868 0.14975 0.0
H580 H 0.20154 0.30268 0.68757 0.0
H581 H 0.06183 0.15097 0.57263 0.0
H582 H 0.09825 0.33151 0.64589 0.0
H583 H 0.17887 0.15174 0.57083 0.0
H584 H 0.07334 0.21426 0.60399 0.0
H585 H 0.19327 0.24451 0.6487 0.0
C586 C 0.17742 0.29704 0.66975 0.0
C587 C 0.15046 0.32166 0.66982 0.0
C588 C 0.09651 0.20072 0.59642 0.0
C589 C 0.14027 0.25493 0.62641 0.0
C590 C 0.08994 0.16457 0.57866 0.0
C591 C 0.11943 0.14611 0.56911 0.0
C592 C 0.13274 0.21808 0.60537 0.0
C593 C 0.15534 0.16506 0.57754 0.0
C594 C 0.17258 0.26382 0.6478 0.0
C595 C 0.11933 0.31275 0.64689 0.0
N596 N 0.16097 0.1998 0.59557 0.0
N597 N 0.11485 0.27983 0.62641 0.0
H598 H 0.72407 0.29825 0.4007 0.0
H599 H 0.52532 0.34898 0.43824 0.0
H600 H 0.62565 0.20527 0.40548 0.0
H601 H 0.62514 0.41875 0.4797 0.0
H602 H 0.56116 0.29876 0.41919 0.0
H603 H 0.688 0.34608 0.42399 0.0
C604 C 0.69496 0.28784 0.40739 0.0
C605 C 0.67773 0.24788 0.40178 0.0
C606 C 0.57505 0.32504 0.43263 0.0
C607 C 0.63611 0.30237 0.42683 0.0
C608 C 0.55467 0.35371 0.44331 0.0
C609 C 0.57223 0.38796 0.46069 0.0
C610 C 0.61326 0.33121 0.43875 0.0
C611 C 0.61037 0.39265 0.46664 0.0
C612 C 0.67434 0.31506 0.42032 0.0
C613 C 0.63974 0.23596 0.40964 0.0
N614 N 0.62961 0.36479 0.45546 0.0
N615 N 0.62005 0.26319 0.42148 0.0
loop_
_geom_bond_atom_site_label_1
_geom_bond_atom_site_label_2
_geom_bond_distance
_geom_bond_site_symmetry_2
_ccdc_geom_bond_type
C0 N1 1.317 . S
C0 N2 1.348 . S
C0 C3 1.485 . S
N1 C0 1.317 . S
N1 N5 1.370 . S
N2 C0 1.348 . S
N2 C4 1.346 . S
C3 C0 1.485 . S
C3 H7 0.960 . S
C3 H8 0.961 . S
C3 H9 0.960 . S
C4 N2 1.346 . S
C4 N5 1.307 . S
C4 C6 1.486 . S
N5 N1 1.370 . S
N5 C4 1.307 . S
C6 C4 1.486 . S
C6 H10 0.960 . S
C6 H11 0.960 . S
C6 H12 0.959 . S
H7 C3 0.960 . S
H8 C3 0.961 . S
H9 C3 0.960 . S
H10 C6 0.960 . S
H11 C6 0.960 . S
H12 C6 0.959 . S
C13 N14 1.317 . S
C13 N15 1.348 . S
C13 C16 1.485 . S
N14 C13 1.317 . S
N14 N18 1.370 . S
N15 C13 1.348 . S
N15 C17 1.346 . S
C16 C13 1.485 . S
C16 H20 0.960 . S
C16 H21 0.961 . S
C16 H22 0.960 . S
C17 N15 1.346 . S
C17 N18 1.307 . S
C17 C19 1.486 . S
N18 N14 1.370 . S
N18 C17 1.307 . S
C19 C17 1.486 . S
C19 H23 0.960 . S
C19 H24 0.960 . S
C19 H25 0.959 . S
H20 C16 0.960 . S
H21 C16 0.961 . S
H22 C16 0.960 . S
H23 C19 0.960 . S
H24 C19 0.960 . S
H25 C19 0.959 . S
C26 N27 1.317 . S
C26 N28 1.348 . S
C26 C29 1.485 . S
N27 C26 1.317 . S
N27 N31 1.370 . S
N28 C26 1.348 . S
N28 C30 1.346 . S
C29 C26 1.485 . S
C29 H33 0.960 . S
C29 H34 0.961 . S
C29 H35 0.960 . S
C30 N28 1.346 . S
C30 N31 1.307 . S
C30 C32 1.486 . S
N31 N27 1.370 . S
N31 C30 1.307 . S
C32 C30 1.486 . S
C32 H36 0.960 . S
C32 H37 0.960 . S
C32 H38 0.959 . S
H33 C29 0.960 . S
H34 C29 0.961 . S
H35 C29 0.960 . S
H36 C32 0.960 . S
H37 C32 0.960 . S
H38 C32 0.959 . S
C39 N40 1.317 . S
C39 N41 1.348 . S
C39 C42 1.485 . S
N40 C39 1.317 . S
N40 N44 1.370 . S
N41 C39 1.348 . S
N41 C43 1.346 . S
C42 C39 1.485 . S
C42 H46 0.960 . S
C42 H47 0.961 . S
C42 H48 0.960 . S
C43 N41 1.346 . S
C43 N44 1.307 . S
C43 C45 1.486 . S
N44 N40 1.370 . S
N44 C43 1.307 . S
C45 C43 1.486 . S
C45 H49 0.960 . S
C45 H50 0.960 . S
C45 H51 0.959 . S
H46 C42 0.960 . S
H47 C42 0.961 . S
H48 C42 0.960 . S
H49 C45 0.960 . S
H50 C45 0.960 . S
H51 C45 0.959 . S
C52 N53 1.317 . S
C52 N54 1.348 . S
C52 C55 1.485 . S
N53 C52 1.317 . S
N53 N57 1.370 . S
N54 C52 1.348 . S
N54 C56 1.346 . S
C55 C52 1.485 . S
C55 H59 0.960 . S
C55 H60 0.961 . S
C55 H61 0.960 . S
C56 N54 1.346 . S
C56 N57 1.307 . S
C56 C58 1.486 . S
N57 N53 1.370 . S
N57 C56 1.307 . S
C58 C56 1.486 . S
C58 H62 0.960 . S
C58 H63 0.960 . S
C58 H64 0.959 . S
H59 C55 0.960 . S
H60 C55 0.961 . S
H61 C55 0.960 . S
H62 C58 0.960 . S
H63 C58 0.960 . S
H64 C58 0.959 . S
C65 N66 1.317 . S
C65 N67 1.348 . S
C65 C68 1.485 . S
N66 C65 1.317 . S
N66 N70 1.370 . S
N67 C65 1.348 . S
N67 C69 1.346 . S
C68 C65 1.485 . S
C68 H72 0.960 . S
C68 H73 0.961 . S
C68 H74 0.960 . S
C69 N67 1.346 . S
C69 N70 1.307 . S
C69 C71 1.486 . S
N70 N66 1.370 . S
N70 C69 1.307 . S
C71 C69 1.486 . S
C71 H75 0.960 . S
C71 H76 0.960 . S
C71 H77 0.959 . S
H72 C68 0.960 . S
H73 C68 0.961 . S
H74 C68 0.960 . S
H75 C71 0.960 . S
H76 C71 0.960 . S
H77 C71 0.959 . S
C78 N79 1.317 . S
C78 N80 1.348 . S
C78 C81 1.485 . S
N79 C78 1.317 . S
N79 N83 1.370 . S
N80 C78 1.348 . S
N80 C82 1.346 . S
C81 C78 1.485 . S
C81 H85 0.960 . S
C81 H86 0.961 . S
C81 H87 0.960 . S
C82 N80 1.346 . S
C82 N83 1.307 . S
C82 C84 1.486 . S
N83 N79 1.370 . S
N83 C82 1.307 . S
C84 C82 1.486 . S
C84 H88 0.960 . S
C84 H89 0.960 . S
C84 H90 0.959 . S
H85 C81 0.960 . S
H86 C81 0.961 . S
H87 C81 0.960 . S
H88 C84 0.960 . S
H89 C84 0.960 . S
H90 C84 0.959 . S
C91 N92 1.317 . S
C91 N93 1.348 . S
C91 C94 1.485 . S
N92 C91 1.317 . S
N92 N96 1.370 . S
N93 C91 1.348 . S
N93 C95 1.346 . S
C94 C91 1.485 . S
C94 H98 0.960 . S
C94 H99 0.961 . S
C94 H100 0.960 . S
C95 N93 1.346 . S
C95 N96 1.307 . S
C95 C97 1.486 . S
N96 N92 1.370 . S
N96 C95 1.307 . S
C97 C95 1.486 . S
C97 H101 0.960 . S
C97 H102 0.960 . S
C97 H103 0.959 . S
H98 C94 0.960 . S
H99 C94 0.961 . S
H100 C94 0.960 . S
H101 C97 0.960 . S
H102 C97 0.960 . S
H103 C97 0.959 . S
Zn104 O110 1.969 1_545 S
Zn104 O111 1.965 1_545 S
Zn104 O115 2.024 . S
Zn104 O120 1.969 . S
Zn105 O112 1.978 . S
Zn105 O118 1.949 1_565 S
Zn105 O119 1.949 1_665 S
Zn105 O121 2.047 . S
C106 O107 1.229 . S
C106 O115 1.058 . S
O107 C106 1.229 . S
C108 O109 1.229 . S
C108 O121 1.057 . S
O109 C108 1.229 . S
O110 Zn104 1.969 1_565 S
O110 C113 1.267 . S
O111 Zn104 1.965 1_565 S
O111 C122 1.260 . S
O112 Zn105 1.978 . S
O112 C122 1.258 1_655 S
C113 O110 1.267 . S
C113 O114 1.228 . S
O114 C113 1.228 . S
O115 Zn104 2.024 . S
O115 C106 1.058 . S
C116 O117 1.228 . S
C116 O118 1.267 . S
O117 C116 1.228 . S
O118 Zn105 1.949 1_545 S
O118 C116 1.267 . S
O119 Zn105 1.949 1_445 S
O119 C123 1.260 . S
O120 Zn104 1.969 . S
O120 C123 1.258 . S
O121 Zn105 2.047 . S
O121 C108 1.057 . S
C122 O111 1.260 . S
C122 O112 1.258 1_455 S
C123 O119 1.260 . S
C123 O120 1.258 . S
Zn124 O130 1.969 . S
Zn124 O131 1.965 1_566 S
Zn124 O135 2.024 . S
Zn124 O140 1.969 1_556 S
Zn125 O132 1.969 . S
Zn125 O138 1.969 . S
Zn125 O139 1.965 1_545 S
Zn125 O141 2.024 . S
C126 O127 1.229 . S
C126 O135 1.058 . S
O127 C126 1.229 . S
C128 O129 1.229 . S
C128 O141 1.058 . S
O129 C128 1.229 . S
O130 Zn124 1.969 . S
O130 C133 1.267 . S
O131 Zn124 1.965 1_544 S
O131 C142 1.260 . S
O132 Zn125 1.969 . S
O132 C142 1.258 . S
C133 O130 1.267 . S
C133 O134 1.228 . S
O134 C133 1.228 . S
O135 Zn124 2.024 . S
O135 C126 1.058 . S
C136 O137 1.228 . S
C136 O138 1.267 . S
O137 C136 1.228 . S
O138 Zn125 1.969 . S
O138 C136 1.267 . S
O139 Zn125 1.965 1_565 S
O139 C143 1.260 . S
O140 Zn124 1.969 1_554 S
O140 C143 1.258 . S
O141 Zn125 2.024 . S
O141 C128 1.058 . S
C142 O131 1.260 . S
C142 O132 1.258 . S
C143 O139 1.260 . S
C143 O140 1.258 . S
Zn144 O150 1.969 . S
Zn144 O151 1.965 . S
Zn144 O155 2.024 . S
Zn144 O160 1.969 . S
Zn145 O152 1.969 . S
Zn145 O158 1.969 . S
Zn145 O159 1.965 . S
Zn145 O161 2.024 . S
C146 O147 1.229 . S
C146 O155 1.058 . S
O147 C146 1.229 . S
C148 O149 1.229 . S
C148 O161 1.058 . S
O149 C148 1.229 . S
O150 Zn144 1.969 . S
O150 C153 1.267 . S
O151 Zn144 1.965 . S
O151 C162 1.260 . S
O152 Zn145 1.969 . S
O152 C162 1.258 . S
C153 O150 1.267 . S
C153 O154 1.228 . S
O154 C153 1.228 . S
O155 Zn144 2.024 . S
O155 C146 1.058 . S
C156 O157 1.228 . S
C156 O158 1.267 . S
O157 C156 1.228 . S
O158 Zn145 1.969 . S
O158 C156 1.267 . S
O159 Zn145 1.965 . S
O159 C163 1.260 . S
O160 Zn144 1.969 . S
O160 C163 1.258 . S
O161 Zn145 2.024 . S
O161 C148 1.058 . S
C162 O151 1.260 . S
C162 O152 1.258 . S
C163 O159 1.260 . S
C163 O160 1.258 . S
Zn164 O170 1.969 . S
Zn164 O171 1.965 1_556 S
Zn164 O175 2.024 . S
Zn164 O180 1.963 1_655 S
Zn165 O172 1.969 . S
Zn165 O178 1.969 . S
Zn165 O179 1.965 1_554 S
Zn165 O181 2.024 . S
C166 O167 1.229 . S
C166 O175 1.058 . S
O167 C166 1.229 . S
C168 O169 1.229 . S
C168 O181 1.058 . S
O169 C168 1.229 . S
O170 Zn164 1.969 . S
O170 C173 1.267 . S
O171 Zn164 1.965 1_554 S
O171 C182 1.260 . S
O172 Zn165 1.969 . S
O172 C182 1.258 1_455 S
C173 O170 1.267 . S
C173 O174 1.228 . S
O174 C173 1.228 . S
O175 Zn164 2.024 . S
O175 C166 1.058 . S
C176 O177 1.228 . S
C176 O178 1.267 . S
O177 C176 1.228 . S
O178 Zn165 1.969 . S
O178 C176 1.267 . S
O179 Zn165 1.965 1_556 S
O179 C183 1.260 . S
O180 Zn164 1.963 1_455 S
O180 C183 1.264 . S
O181 Zn165 2.024 . S
O181 C168 1.058 . S
C182 O171 1.260 . S
C182 O172 1.258 1_655 S
C183 O179 1.260 . S
C183 O180 1.264 . S
H184 C190 0.930 . S
H185 C194 0.930 . S
H186 C199 0.929 . S
H187 C197 0.929 . S
H188 C192 0.929 . S
H189 C198 0.929 . S
C190 H184 0.930 . S
C190 C191 1.367 . S
C190 C198 1.378 . S
C191 C190 1.367 . S
C191 C199 1.433 . S
C192 H188 0.929 . S
C192 C194 1.378 . S
C192 C196 1.350 . S
C193 C196 1.463 . S
C193 C198 1.350 . S
C193 N201 1.427 . S
C194 H185 0.930 . S
C194 C192 1.378 . S
C194 C195 1.367 . S
C195 C194 1.367 . S
C195 C197 1.433 . S
C196 C192 1.350 . S
C196 C193 1.463 . S
C196 N200 1.427 . S
C197 H187 0.929 . S
C197 C195 1.433 . S
C197 N200 1.384 . S
C198 H189 0.929 . S
C198 C190 1.378 . S
C198 C193 1.350 . S
C199 H186 0.929 . S
C199 C191 1.433 . S
C199 N201 1.384 . S
N200 C196 1.427 . S
N200 C197 1.384 . S
N201 C193 1.427 . S
N201 C199 1.384 . S
H202 C208 0.930 . S
H203 C212 0.930 . S
H204 C217 0.929 . S
H205 C215 0.929 . S
H206 C210 0.929 . S
H207 C216 0.929 . S
C208 H202 0.930 . S
C208 C209 1.367 . S
C208 C216 1.378 . S
C209 C208 1.367 . S
C209 C217 1.433 . S
C210 H206 0.929 . S
C210 C212 1.378 . S
C210 C214 1.350 . S
C211 C214 1.463 . S
C211 C216 1.350 . S
C211 N219 1.427 . S
C212 H203 0.930 . S
C212 C210 1.378 . S
C212 C213 1.367 . S
C213 C212 1.367 . S
C213 C215 1.433 . S
C214 C210 1.350 . S
C214 C211 1.463 . S
C214 N218 1.427 . S
C215 H205 0.929 . S
C215 C213 1.433 . S
C215 N218 1.384 . S
C216 H207 0.929 . S
C216 C208 1.378 . S
C216 C211 1.350 . S
C217 H204 0.929 . S
C217 C209 1.433 . S
C217 N219 1.384 . S
N218 C214 1.427 . S
N218 C215 1.384 . S
N219 C211 1.427 . S
N219 C217 1.384 . S
H220 C226 0.930 . S
H221 C230 0.930 . S
H222 C235 0.929 . S
H223 C233 0.929 . S
H224 C228 0.929 . S
H225 C234 0.929 . S
C226 H220 0.930 . S
C226 C227 1.367 . S
C226 C234 1.378 . S
C227 C226 1.367 . S
C227 C235 1.433 . S
C228 H224 0.929 . S
C228 C230 1.378 . S
C228 C232 1.350 . S
C229 C232 1.463 . S
C229 C234 1.350 . S
C229 N237 1.427 . S
C230 H221 0.930 . S
C230 C228 1.378 . S
C230 C231 1.367 . S
C231 C230 1.367 . S
C231 C233 1.433 . S
C232 C228 1.350 . S
C232 C229 1.463 . S
C232 N236 1.427 . S
C233 H223 0.929 . S
C233 C231 1.433 . S
C233 N236 1.384 . S
C234 H225 0.929 . S
C234 C226 1.378 . S
C234 C229 1.350 . S
C235 H222 0.929 . S
C235 C227 1.433 . S
C235 N237 1.384 . S
N236 C232 1.427 . S
N236 C233 1.384 . S
N237 C229 1.427 . S
N237 C235 1.384 . S
H238 C244 0.930 . S
H239 C248 0.930 . S
H240 C253 0.929 . S
H241 C251 0.929 . S
H242 C246 0.929 . S
H243 C252 0.929 . S
C244 H238 0.930 . S
C244 C245 1.367 . S
C244 C252 1.378 . S
C245 C244 1.367 . S
C245 C253 1.433 . S
C246 H242 0.929 . S
C246 C248 1.378 . S
C246 C250 1.350 . S
C247 C250 1.463 . S
C247 C252 1.350 . S
C247 N255 1.427 . S
C248 H239 0.930 . S
C248 C246 1.378 . S
C248 C249 1.367 . S
C249 C248 1.367 . S
C249 C251 1.433 . S
C250 C246 1.350 . S
C250 C247 1.463 . S
C250 N254 1.427 . S
C251 H241 0.929 . S
C251 C249 1.433 . S
C251 N254 1.384 . S
C252 H243 0.929 . S
C252 C244 1.378 . S
C252 C247 1.350 . S
C253 H240 0.929 . S
C253 C245 1.433 . S
C253 N255 1.384 . S
N254 C250 1.427 . S
N254 C251 1.384 . S
N255 C247 1.427 . S
N255 C253 1.384 . S
H256 C262 0.930 . S
H257 C266 0.930 . S
H258 C271 0.929 . S
H259 C269 0.929 . S
H260 C264 0.929 . S
H261 C270 0.929 . S
C262 H256 0.930 . S
C262 C263 1.367 . S
C262 C270 1.378 . S
C263 C262 1.367 . S
C263 C271 1.433 . S
C264 H260 0.929 . S
C264 C266 1.378 . S
C264 C268 1.350 . S
C265 C268 1.463 . S
C265 C270 1.350 . S
C265 N273 1.427 . S
C266 H257 0.930 . S
C266 C264 1.378 . S
C266 C267 1.367 . S
C267 C266 1.367 . S
C267 C269 1.433 . S
C268 C264 1.350 . S
C268 C265 1.463 . S
C268 N272 1.427 . S
C269 H259 0.929 . S
C269 C267 1.433 . S
C269 N272 1.384 . S
C270 H261 0.929 . S
C270 C262 1.378 . S
C270 C265 1.350 . S
C271 H258 0.929 . S
C271 C263 1.433 . S
C271 N273 1.384 . S
N272 C268 1.427 . S
N272 C269 1.384 . S
N273 C265 1.427 . S
N273 C271 1.384 . S
H274 C280 0.930 . S
H275 C284 0.930 . S
H276 C289 0.929 . S
H277 C287 0.929 . S
H278 C282 0.929 . S
H279 C288 0.929 . S
C280 H274 0.930 . S
C280 C281 1.367 . S
C280 C288 1.378 . S
C281 C280 1.367 . S
C281 C289 1.433 . S
C282 H278 0.929 . S
C282 C284 1.378 . S
C282 C286 1.350 . S
C283 C286 1.463 . S
C283 C288 1.350 . S
C283 N291 1.427 . S
C284 H275 0.930 . S
C284 C282 1.378 . S
C284 C285 1.367 . S
C285 C284 1.367 . S
C285 C287 1.433 . S
C286 C282 1.350 . S
C286 C283 1.463 . S
C286 N290 1.427 . S
C287 H277 0.929 . S
C287 C285 1.433 . S
C287 N290 1.384 . S
C288 H279 0.929 . S
C288 C280 1.378 . S
C288 C283 1.350 . S
C289 H276 0.929 . S
C289 C281 1.433 . S
C289 N291 1.384 . S
N290 C286 1.427 . S
N290 C287 1.384 . S
N291 C283 1.427 . S
N291 C289 1.384 . S
H292 C298 0.930 . S
H293 C302 0.930 . S
H294 C307 0.929 . S
H295 C305 0.929 . S
H296 C300 0.929 . S
H297 C306 0.929 . S
C298 H292 0.930 . S
C298 C299 1.367 . S
C298 C306 1.378 . S
C299 C298 1.367 . S
C299 C307 1.433 . S
C300 H296 0.929 . S
C300 C302 1.378 . S
C300 C304 1.350 . S
C301 C304 1.463 . S
C301 C306 1.350 . S
C301 N309 1.427 . S
C302 H293 0.930 . S
C302 C300 1.378 . S
C302 C303 1.367 . S
C303 C302 1.367 . S
C303 C305 1.433 . S
C304 C300 1.350 . S
C304 C301 1.463 . S
C304 N308 1.427 . S
C305 H295 0.929 . S
C305 C303 1.433 . S
C305 N308 1.384 . S
C306 H297 0.929 . S
C306 C298 1.378 . S
C306 C301 1.350 . S
C307 H294 0.929 . S
C307 C299 1.433 . S
C307 N309 1.384 . S
N308 C304 1.427 . S
N308 C305 1.384 . S
N309 C301 1.427 . S
N309 C307 1.384 . S
H310 C316 0.930 . S
H311 C320 0.930 . S
H312 C325 0.929 . S
H313 C323 0.929 . S
H314 C318 0.929 . S
H315 C324 0.929 . S
C316 H310 0.930 . S
C316 C317 1.367 . S
C316 C324 1.378 . S
C317 C316 1.367 . S
C317 C325 1.433 . S
C318 H314 0.929 . S
C318 C320 1.378 . S
C318 C322 1.350 . S
C319 C322 1.463 . S
C319 C324 1.350 . S
C319 N327 1.427 . S
C320 H311 0.930 . S
C320 C318 1.378 . S
C320 C321 1.367 . S
C321 C320 1.367 . S
C321 C323 1.433 . S
C322 C318 1.350 . S
C322 C319 1.463 . S
C322 N326 1.427 . S
C323 H313 0.929 . S
C323 C321 1.433 . S
C323 N326 1.384 . S
C324 H315 0.929 . S
C324 C316 1.378 . S
C324 C319 1.350 . S
C325 H312 0.929 . S
C325 C317 1.433 . S
C325 N327 1.384 . S
N326 C322 1.427 . S
N326 C323 1.384 . S
N327 C319 1.427 . S
N327 C325 1.384 . S
H328 C334 0.930 . S
H329 C338 0.930 . S
H330 C343 0.929 . S
H331 C341 0.929 . S
H332 C336 0.929 . S
H333 C342 0.929 . S
C334 H328 0.930 . S
C334 C335 1.367 . S
C334 C342 1.378 . S
C335 C334 1.367 . S
C335 C343 1.433 . S
C336 H332 0.929 . S
C336 C338 1.378 . S
C336 C340 1.350 . S
C337 C340 1.463 . S
C337 C342 1.350 . S
C337 N345 1.427 . S
C338 H329 0.930 . S
C338 C336 1.378 . S
C338 C339 1.367 . S
C339 C338 1.367 . S
C339 C341 1.433 . S
C340 C336 1.350 . S
C340 C337 1.463 . S
C340 N344 1.427 . S
C341 H331 0.929 . S
C341 C339 1.433 . S
C341 N344 1.384 . S
C342 H333 0.929 . S
C342 C334 1.378 . S
C342 C337 1.350 . S
C343 H330 0.929 . S
C343 C335 1.433 . S
C343 N345 1.384 . S
N344 C340 1.427 . S
N344 C341 1.384 . S
N345 C337 1.427 . S
N345 C343 1.384 . S
H346 C352 0.930 . S
H347 C356 0.930 . S
H348 C361 0.929 . S
H349 C359 0.929 . S
H350 C354 0.929 . S
H351 C360 0.929 . S
C352 H346 0.930 . S
C352 C353 1.367 . S
C352 C360 1.378 . S
C353 C352 1.367 . S
C353 C361 1.433 . S
C354 H350 0.929 . S
C354 C356 1.378 . S
C354 C358 1.350 . S
C355 C358 1.463 . S
C355 C360 1.350 . S
C355 N363 1.427 . S
C356 H347 0.930 . S
C356 C354 1.378 . S
C356 C357 1.367 . S
C357 C356 1.367 . S
C357 C359 1.433 . S
C358 C354 1.350 . S
C358 C355 1.463 . S
C358 N362 1.427 . S
C359 H349 0.929 . S
C359 C357 1.433 . S
C359 N362 1.384 . S
C360 H351 0.929 . S
C360 C352 1.378 . S
C360 C355 1.350 . S
C361 H348 0.929 . S
C361 C353 1.433 . S
C361 N363 1.384 . S
N362 C358 1.427 . S
N362 C359 1.384 . S
N363 C355 1.427 . S
N363 C361 1.384 . S
H364 C370 0.930 . S
H365 C374 0.930 . S
H366 C379 0.929 . S
H367 C377 0.929 1_455 S
H368 C372 0.929 . S
H369 C378 0.929 . S
C370 H364 0.930 . S
C370 C371 1.367 . S
C370 C378 1.378 . S
C371 C370 1.367 . S
C371 C379 1.433 . S
C372 H368 0.929 . S
C372 C374 1.378 . S
C372 C376 1.350 . S
C373 C376 1.463 . S
C373 C378 1.350 . S
C373 N381 1.427 . S
C374 H365 0.930 . S
C374 C372 1.378 . S
C374 C375 1.367 . S
C375 C374 1.367 . S
C375 C377 1.433 . S
C376 C372 1.350 . S
C376 C373 1.463 . S
C376 N380 1.427 . S
C377 H367 0.929 1_655 S
C377 C375 1.433 . S
C377 N380 1.384 . S
C378 H369 0.929 . S
C378 C370 1.378 . S
C378 C373 1.350 . S
C379 H366 0.929 . S
C379 C371 1.433 . S
C379 N381 1.384 . S
N380 C376 1.427 . S
N380 C377 1.384 . S
N381 C373 1.427 . S
N381 C379 1.384 . S
H382 C388 0.930 . S
H383 C392 0.930 . S
H384 C397 0.929 . S
H385 C395 0.929 . S
H386 C390 0.929 . S
H387 C396 0.929 . S
C388 H382 0.930 . S
C388 C389 1.367 . S
C388 C396 1.378 . S
C389 C388 1.367 . S
C389 C397 1.433 . S
C390 H386 0.929 . S
C390 C392 1.378 . S
C390 C394 1.350 . S
C391 C394 1.463 . S
C391 C396 1.350 . S
C391 N399 1.427 . S
C392 H383 0.930 . S
C392 C390 1.378 . S
C392 C393 1.367 . S
C393 C392 1.367 . S
C393 C395 1.433 . S
C394 C390 1.350 . S
C394 C391 1.463 . S
C394 N398 1.427 . S
C395 H385 0.929 . S
C395 C393 1.433 . S
C395 N398 1.384 . S
C396 H387 0.929 . S
C396 C388 1.378 . S
C396 C391 1.350 . S
C397 H384 0.929 . S
C397 C389 1.433 . S
C397 N399 1.384 . S
N398 C394 1.427 . S
N398 C395 1.384 . S
N399 C391 1.427 . S
N399 C397 1.384 . S
H400 C406 0.930 . S
H401 C410 0.930 . S
H402 C415 0.929 . S
H403 C413 0.929 1_455 S
H404 C408 0.929 . S
H405 C414 0.929 . S
C406 H400 0.930 . S
C406 C407 1.367 . S
C406 C414 1.378 . S
C407 C406 1.367 . S
C407 C415 1.433 . S
C408 H404 0.929 . S
C408 C410 1.378 . S
C408 C412 1.350 . S
C409 C412 1.463 . S
C409 C414 1.350 . S
C409 N417 1.427 . S
C410 H401 0.930 . S
C410 C408 1.378 . S
C410 C411 1.367 . S
C411 C410 1.367 . S
C411 C413 1.433 . S
C412 C408 1.350 . S
C412 C409 1.463 . S
C412 N416 1.427 . S
C413 H403 0.929 1_655 S
C413 C411 1.433 . S
C413 N416 1.384 . S
C414 H405 0.929 . S
C414 C406 1.378 . S
C414 C409 1.350 . S
C415 H402 0.929 . S
C415 C407 1.433 . S
C415 N417 1.384 . S
N416 C412 1.427 . S
N416 C413 1.384 . S
N417 C409 1.427 . S
N417 C415 1.384 . S
H418 C424 0.930 . S
H419 C428 0.930 . S
H420 C433 0.929 . S
H421 C431 0.929 . S
H422 C426 0.929 . S
H423 C432 0.929 . S
C424 H418 0.930 . S
C424 C425 1.367 . S
C424 C432 1.378 . S
C425 C424 1.367 . S
C425 C433 1.433 . S
C426 H422 0.929 . S
C426 C428 1.378 . S
C426 C430 1.350 . S
C427 C430 1.463 . S
C427 C432 1.350 . S
C427 N435 1.427 . S
C428 H419 0.930 . S
C428 C426 1.378 . S
C428 C429 1.367 . S
C429 C428 1.367 . S
C429 C431 1.433 . S
C430 C426 1.350 . S
C430 C427 1.463 . S
C430 N434 1.427 . S
C431 H421 0.929 . S
C431 C429 1.433 . S
C431 N434 1.384 . S
C432 H423 0.929 . S
C432 C424 1.378 . S
C432 C427 1.350 . S
C433 H420 0.929 . S
C433 C425 1.433 . S
C433 N435 1.384 . S
N434 C430 1.427 . S
N434 C431 1.384 . S
N435 C427 1.427 . S
N435 C433 1.384 . S
H436 C442 0.930 . S
H437 C446 0.930 . S
H438 C451 0.929 . S
H439 C449 0.929 . S
H440 C444 0.929 . S
H441 C450 0.929 . S
C442 H436 0.930 . S
C442 C443 1.367 . S
C442 C450 1.378 . S
C443 C442 1.367 . S
C443 C451 1.433 . S
C444 H440 0.929 . S
C444 C446 1.378 . S
C444 C448 1.350 . S
C445 C448 1.463 . S
C445 C450 1.350 . S
C445 N453 1.427 . S
C446 H437 0.930 . S
C446 C444 1.378 . S
C446 C447 1.367 . S
C447 C446 1.367 . S
C447 C449 1.433 . S
C448 C444 1.350 . S
C448 C445 1.463 . S
C448 N452 1.427 . S
C449 H439 0.929 . S
C449 C447 1.433 . S
C449 N452 1.384 . S
C450 H441 0.929 . S
C450 C442 1.378 . S
C450 C445 1.350 . S
C451 H438 0.929 . S
C451 C443 1.433 . S
C451 N453 1.384 . S
N452 C448 1.427 . S
N452 C449 1.384 . S
N453 C445 1.427 . S
N453 C451 1.384 . S
H454 C460 0.930 . S
H455 C464 0.930 . S
H456 C469 0.929 . S
H457 C467 0.929 . S
H458 C462 0.929 . S
H459 C468 0.929 . S
C460 H454 0.930 . S
C460 C461 1.367 . S
C460 C468 1.378 . S
C461 C460 1.367 . S
C461 C469 1.433 . S
C462 H458 0.929 . S
C462 C464 1.378 . S
C462 C466 1.350 . S
C463 C466 1.463 . S
C463 C468 1.350 . S
C463 N471 1.427 . S
C464 H455 0.930 . S
C464 C462 1.378 . S
C464 C465 1.367 . S
C465 C464 1.367 . S
C465 C467 1.433 . S
C466 C462 1.350 . S
C466 C463 1.463 . S
C466 N470 1.427 . S
C467 H457 0.929 . S
C467 C465 1.433 . S
C467 N470 1.384 . S
C468 H459 0.929 . S
C468 C460 1.378 . S
C468 C463 1.350 . S
C469 H456 0.929 . S
C469 C461 1.433 . S
C469 N471 1.384 . S
N470 C466 1.427 . S
N470 C467 1.384 . S
N471 C463 1.427 . S
N471 C469 1.384 . S
H472 C478 0.930 . S
H473 C482 0.930 . S
H474 C487 0.929 . S
H475 C485 0.929 . S
H476 C480 0.929 . S
H477 C486 0.929 . S
C478 H472 0.930 . S
C478 C479 1.367 . S
C478 C486 1.378 . S
C479 C478 1.367 . S
C479 C487 1.433 . S
C480 H476 0.929 . S
C480 C482 1.378 . S
C480 C484 1.350 . S
C481 C484 1.463 . S
C481 C486 1.350 . S
C481 N489 1.427 . S
C482 H473 0.930 . S
C482 C480 1.378 . S
C482 C483 1.367 . S
C483 C482 1.367 . S
C483 C485 1.433 . S
C484 C480 1.350 . S
C484 C481 1.463 . S
C484 N488 1.427 . S
C485 H475 0.929 . S
C485 C483 1.433 . S
C485 N488 1.384 . S
C486 H477 0.929 . S
C486 C478 1.378 . S
C486 C481 1.350 . S
C487 H474 0.929 . S
C487 C479 1.433 . S
C487 N489 1.384 . S
N488 C484 1.427 . S
N488 C485 1.384 . S
N489 C481 1.427 . S
N489 C487 1.384 . S
H490 C496 0.930 . S
H491 C500 0.930 . S
H492 C505 0.929 . S
H493 C503 0.929 . S
H494 C498 0.929 . S
H495 C504 0.929 . S
C496 H490 0.930 . S
C496 C497 1.367 . S
C496 C504 1.378 . S
C497 C496 1.367 . S
C497 C505 1.433 . S
C498 H494 0.929 . S
C498 C500 1.378 . S
C498 C502 1.350 . S
C499 C502 1.463 . S
C499 C504 1.350 . S
C499 N507 1.427 . S
C500 H491 0.930 . S
C500 C498 1.378 . S
C500 C501 1.367 . S
C501 C500 1.367 . S
C501 C503 1.433 . S
C502 C498 1.350 . S
C502 C499 1.463 . S
C502 N506 1.427 . S
C503 H493 0.929 . S
C503 C501 1.433 . S
C503 N506 1.384 . S
C504 H495 0.929 . S
C504 C496 1.378 . S
C504 C499 1.350 . S
C505 H492 0.929 . S
C505 C497 1.433 . S
C505 N507 1.384 . S
N506 C502 1.427 . S
N506 C503 1.384 . S
N507 C499 1.427 . S
N507 C505 1.384 . S
H508 C514 0.930 . S
H509 C518 0.930 . S
H510 C523 0.929 . S
H511 C521 0.929 . S
H512 C516 0.929 . S
H513 C522 0.929 . S
C514 H508 0.930 . S
C514 C515 1.367 . S
C514 C522 1.378 . S
C515 C514 1.367 . S
C515 C523 1.433 . S
C516 H512 0.929 . S
C516 C518 1.378 . S
C516 C520 1.350 . S
C517 C520 1.463 . S
C517 C522 1.350 . S
C517 N525 1.427 . S
C518 H509 0.930 . S
C518 C516 1.378 . S
C518 C519 1.367 . S
C519 C518 1.367 . S
C519 C521 1.433 . S
C520 C516 1.350 . S
C520 C517 1.463 . S
C520 N524 1.427 . S
C521 H511 0.929 . S
C521 C519 1.433 . S
C521 N524 1.384 . S
C522 H513 0.929 . S
C522 C514 1.378 . S
C522 C517 1.350 . S
C523 H510 0.929 . S
C523 C515 1.433 . S
C523 N525 1.384 . S
N524 C520 1.427 . S
N524 C521 1.384 . S
N525 C517 1.427 . S
N525 C523 1.384 . S
H526 C532 0.930 . S
H527 C536 0.930 . S
H528 C541 0.929 . S
H529 C539 0.929 . S
H530 C534 0.929 . S
H531 C540 0.929 . S
C532 H526 0.930 . S
C532 C533 1.367 . S
C532 C540 1.378 . S
C533 C532 1.367 . S
C533 C541 1.433 . S
C534 H530 0.929 . S
C534 C536 1.378 . S
C534 C538 1.350 . S
C535 C538 1.463 . S
C535 C540 1.350 . S
C535 N543 1.427 . S
C536 H527 0.930 . S
C536 C534 1.378 . S
C536 C537 1.367 . S
C537 C536 1.367 . S
C537 C539 1.433 . S
C538 C534 1.350 . S
C538 C535 1.463 . S
C538 N542 1.427 . S
C539 H529 0.929 . S
C539 C537 1.433 . S
C539 N542 1.384 . S
C540 H531 0.929 . S
C540 C532 1.378 . S
C540 C535 1.350 . S
C541 H528 0.929 . S
C541 C533 1.433 . S
C541 N543 1.384 . S
N542 C538 1.427 . S
N542 C539 1.384 . S
N543 C535 1.427 . S
N543 C541 1.384 . S
H544 C550 0.930 . S
H545 C554 0.930 . S
H546 C559 0.929 . S
H547 C557 0.929 . S
H548 C552 0.929 . S
H549 C558 0.929 . S
C550 H544 0.930 . S
C550 C551 1.367 . S
C550 C558 1.378 . S
C551 C550 1.367 . S
C551 C559 1.433 . S
C552 H548 0.929 . S
C552 C554 1.378 . S
C552 C556 1.350 . S
C553 C556 1.463 . S
C553 C558 1.350 . S
C553 N561 1.427 . S
C554 H545 0.930 . S
C554 C552 1.378 . S
C554 C555 1.367 . S
C555 C554 1.367 . S
C555 C557 1.433 . S
C556 C552 1.350 . S
C556 C553 1.463 . S
C556 N560 1.427 . S
C557 H547 0.929 . S
C557 C555 1.433 . S
C557 N560 1.384 . S
C558 H549 0.929 . S
C558 C550 1.378 . S
C558 C553 1.350 . S
C559 H546 0.929 . S
C559 C551 1.433 . S
C559 N561 1.384 . S
N560 C556 1.427 . S
N560 C557 1.384 . S
N561 C553 1.427 . S
N561 C559 1.384 . S
H562 C568 0.930 . S
H563 C572 0.930 . S
H564 C577 0.929 . S
H565 C575 0.929 . S
H566 C570 0.929 . S
H567 C576 0.929 . S
C568 H562 0.930 . S
C568 C569 1.367 . S
C568 C576 1.378 . S
C569 C568 1.367 . S
C569 C577 1.433 . S
C570 H566 0.929 . S
C570 C572 1.378 . S
C570 C574 1.350 . S
C571 C574 1.463 . S
C571 C576 1.350 . S
C571 N579 1.427 . S
C572 H563 0.930 . S
C572 C570 1.378 . S
C572 C573 1.367 . S
C573 C572 1.367 . S
C573 C575 1.433 . S
C574 C570 1.350 . S
C574 C571 1.463 . S
C574 N578 1.427 . S
C575 H565 0.929 . S
C575 C573 1.433 . S
C575 N578 1.384 . S
C576 H567 0.929 . S
C576 C568 1.378 . S
C576 C571 1.350 . S
C577 H564 0.929 . S
C577 C569 1.433 . S
C577 N579 1.384 . S
N578 C574 1.427 . S
N578 C575 1.384 . S
N579 C571 1.427 . S
N579 C577 1.384 . S
H580 C586 0.930 . S
H581 C590 0.930 . S
H582 C595 0.929 . S
H583 C593 0.929 . S
H584 C588 0.929 . S
H585 C594 0.929 . S
C586 H580 0.930 . S
C586 C587 1.367 . S
C586 C594 1.378 . S
C587 C586 1.367 . S
C587 C595 1.433 . S
C588 H584 0.929 . S
C588 C590 1.378 . S
C588 C592 1.350 . S
C589 C592 1.463 . S
C589 C594 1.350 . S
C589 N597 1.427 . S
C590 H581 0.930 . S
C590 C588 1.378 . S
C590 C591 1.367 . S
C591 C590 1.367 . S
C591 C593 1.433 . S
C592 C588 1.350 . S
C592 C589 1.463 . S
C592 N596 1.427 . S
C593 H583 0.929 . S
C593 C591 1.433 . S
C593 N596 1.384 . S
C594 H585 0.929 . S
C594 C586 1.378 . S
C594 C589 1.350 . S
C595 H582 0.929 . S
C595 C587 1.433 . S
C595 N597 1.384 . S
N596 C592 1.427 . S
N596 C593 1.384 . S
N597 C589 1.427 . S
N597 C595 1.384 . S
H598 C604 0.930 . S
H599 C608 0.930 . S
H600 C613 0.929 . S
H601 C611 0.929 . S
H602 C606 0.929 . S
H603 C612 0.929 . S
C604 H598 0.930 . S
C604 C605 1.367 . S
C604 C612 1.378 . S
C605 C604 1.367 . S
C605 C613 1.433 . S
C606 H602 0.929 . S
C606 C608 1.378 . S
C606 C610 1.350 . S
C607 C610 1.463 . S
C607 C612 1.350 . S
C607 N615 1.427 . S
C608 H599 0.930 . S
C608 C606 1.378 . S
C608 C609 1.367 . S
C609 C608 1.367 . S
C609 C611 1.433 . S
C610 C606 1.350 . S
C610 C607 1.463 . S
C610 N614 1.427 . S
C611 H601 0.929 . S
C611 C609 1.433 . S
C611 N614 1.384 . S
C612 H603 0.929 . S
C612 C604 1.378 . S
C612 C607 1.350 . S
C613 H600 0.929 . S
C613 C605 1.433 . S
C613 N615 1.384 . S
N614 C610 1.427 . S
N614 C611 1.384 . S
N615 C607 1.427 . S
N615 C613 1.384 . S
C191 N1 1.418 . S
C195 C123 1.415 . S
C209 N18 1.530 . S
C213 C126 1.513 . S
C231 C162 1.360 . S
C227 N28 1.376 . S
C245 N40 1.803 . S
C249 C182 1.814 . S
C267 C136 1.984 . S
C263 N5 1.984 . S
C285 C113 1.585 . S
C281 N14 1.575 . S
C303 C166 1.584 . S
C299 N31 1.659 . S
C321 C146 1.107 . S
C317 N41 1.149 . S
C335 N2 1.269 . S
C339 C176 1.202 . S
C357 C142 1.743 1_556 S
C353 N27 1.733 . S
C371 N44 1.724 . S
C375 C108 1.696 . S
C389 N15 1.186 . S
C393 C156 1.172 . S
C411 C122 1.775 1_655 S
C407 N57 1.796 . S
C425 N70 1.151 . S
C429 C128 1.142 . S
C443 N79 1.626 . S
C447 C163 1.615 . S
C461 N93 1.623 . S
C465 C183 1.598 . S
C479 N54 1.581 . S
C483 C133 1.543 . S
C501 C116 1.975 . S
C497 N66 1.972 . S
C519 C168 1.135 . S
C515 N80 1.219 . S
C537 C148 1.331 . S
C533 N96 1.437 . S
C551 N53 1.312 . S
C555 C173 1.279 . S
C573 C143 1.550 . S
C569 N83 1.557 . S
C591 C106 1.797 . S
C587 N92 1.830 . S
C605 N67 1.248 . S
C609 C153 1.195 . S
