# Generated by pormake.
# Topology pts, (4,4)-cn, num edge types: 1
# Building blocks:
#     Node 0, Type 0, BuildingBlock: GIZVER_clean_linker_0, # of connection points: 4
#     Node 1, Type 0, BuildingBlock: GIZVER_clean_linker_0, # of connection points: 4
#     Node 2, Type 1, BuildingBlock: AZAVOO_clean_sbu_0, # of connection points: 4
#     Node 3, Type 1, BuildingBlock: AZAVOO_clean_sbu_0, # of connection points: 4
#     Edge 4, Type (0, 1), BuildingBlock: FUNLAD_clean_linker_1, # of connection points: 2
#     Edge 5, Type (0, 1), BuildingBlock: FUNLAD_clean_linker_1, # of connection points: 2
#     Edge 6, Type (0, 1), BuildingBlock: FUNLAD_clean_linker_1, # of connection points: 2
#     Edge 7, Type (0, 1), BuildingBlock: FUNLAD_clean_linker_1, # of connection points: 2
#     Edge 8, Type (0, 1), BuildingBlock: FUNLAD_clean_linker_1, # of connection points: 2
#     Edge 9, Type (0, 1), BuildingBlock: FUNLAD_clean_linker_1, # of connection points: 2
#     Edge 10, Type (0, 1), BuildingBlock: FUNLAD_clean_linker_1, # of connection points: 2
#     Edge 11, Type (0, 1), BuildingBlock: FUNLAD_clean_linker_1, # of connection points: 2
# Relax obj value: 0.014
# Max RMSD: 0.077
# Mean RMSD: 0.070
data_MOF--net-pts--node1-AZAVOO_clean_sbu_0--node2-GIZVER_clean_linker_0--edge1-FUNLAD_clean_linker_1
_symmetry_space_group_name_H-M    P1
_symmetry_Int_Tables_number       1
_symmetry_cell_setting            triclinic
loop_
_symmetry_equiv_pos_as_xyz
'x, y, z'
_cell_length_a     26.053999
_cell_length_b     27.481725
_cell_length_c     36.078925
_cell_angle_alpha  90.094988
_cell_angle_beta   96.265587
_cell_angle_gamma 90.469414
loop_
_atom_site_label
_atom_site_type_symbol
_atom_site_fract_x
_atom_site_fract_y
_atom_site_fract_z
_atom_type_partial_charge
H0 H 0.59536 0.07568 0.05038 0.0
H1 H 0.58499 0.08689 0.93068 0.0
H2 H 0.71786 0.02191 -0.00879 0.0
H3 H 0.53576 0.13476 0.01464 0.0
H4 H 0.52674 0.1329 0.96497 0.0
H5 H 0.48925 0.07928 0.05143 0.0
H6 H 0.36541 0.99452 -0.00558 0.0
H7 H 0.47506 0.06639 0.93181 0.0
C8 C 0.61147 0.0689 0.02441 0.0
C9 C 0.66084 0.04853 0.02512 0.0
C10 C 0.58367 0.0826 -0.00959 0.0
C11 C 0.60557 0.07527 0.95687 0.0
C12 C 0.65495 0.05521 0.95721 0.0
C13 C 0.6813 0.0403 -0.00876 0.0
C14 C 0.53343 0.10968 -0.00975 0.0
C15 C 0.48802 0.07544 -0.00844 0.0
C16 C 0.46958 0.0644 0.02586 0.0
C17 C 0.42502 0.03545 0.02692 0.0
C18 C 0.40038 0.01609 -0.00631 0.0
C19 C 0.41696 0.02807 0.95923 0.0
C20 C 0.46155 0.05708 0.95827 0.0
H21 H 0.07008 0.55237 0.4223 0.0
H22 H 0.11787 0.56634 0.54006 0.0
H23 H 1.0172 0.67214 0.48327 0.0
H24 H 0.14615 0.50655 0.4545 0.0
H25 H 0.1569 0.50545 0.50431 0.0
H26 H 0.07947 0.45571 0.42061 0.0
H27 H 1.00372 0.34828 0.48132 0.0
H28 H 0.10095 0.45602 0.54085 0.0
C29 C 0.06781 0.57075 0.44867 0.0
C30 C 0.03931 0.61368 0.44966 0.0
C31 C 0.09488 0.55252 0.48154 0.0
C32 C 0.09483 0.57878 0.51509 0.0
C33 C 0.0665 0.62186 0.51623 0.0
C34 C 0.03731 0.63784 0.48356 0.0
C35 C 0.12629 0.50685 0.48028 0.0
C36 C 0.09173 0.46264 0.48074 0.0
C37 C 0.07003 0.44139 0.44703 0.0
C38 C 0.03781 0.4004 0.44752 0.0
C39 C 0.02625 0.38152 0.48157 0.0
C40 C 0.04976 0.40044 0.51542 0.0
C41 C 0.08206 0.44148 0.51486 0.0
Mg42 Mg 0.09585 0.98805 0.26417 0.0
O43 O 1.01973 0.99319 0.22509 0.0
O44 O 0.95537 0.98196 0.26076 0.0
Mg45 Mg 0.98939 0.96896 0.32093 0.0
C46 C 0.97164 0.99023 0.2292 0.0
C47 C 0.18034 0.04949 0.23167 0.0
O48 O 0.18522 0.06502 0.2663 0.0
O49 O 0.0806 0.06293 0.28687 0.0
O50 O 1.01796 0.04915 0.32342 0.0
O51 O 0.09953 0.90836 0.25507 0.0
O52 O 0.06011 0.94251 0.29966 0.0
C53 C 0.04975 0.07772 0.30946 0.0
C54 C 0.07185 0.90359 0.28252 0.0
O55 O 0.14436 0.01945 0.22083 0.0
Mg56 Mg 1.00925 0.99508 0.71737 0.0
O57 O 0.09341 0.99944 0.7456 0.0
O58 O 0.14415 0.99339 0.6994 0.0
Mg59 Mg 0.09468 0.98266 0.64382 0.0
C60 C 0.13805 0.99853 0.7338 0.0
C61 C 0.92551 0.02067 0.76477 0.0
O62 O 0.90157 0.00612 0.73266 0.0
O63 O 1.01665 0.07206 0.69533 0.0
O64 O 0.06531 0.06119 0.64863 0.0
O65 O 1.00699 0.91446 0.72323 0.0
O66 O 0.03405 0.95293 0.67513 0.0
C67 C 0.03914 0.08845 0.66821 0.0
C68 C 0.02681 0.9125 0.69193 0.0
O69 O 0.97458 0.02225 0.76878 0.0
H70 H 0.37415 0.99647 0.06205 0.0
C71 C 0.39957 0.02801 0.06129 0.0
H72 H 0.41968 0.09618 0.08604 0.0
H73 H 0.19893 0.1161 0.14192 0.0
H74 H 0.20121 0.18381 0.0991 0.0
H75 H 0.27496 0.19548 0.0625 0.0
H76 H 0.34684 0.13974 0.06854 0.0
C77 C 0.39802 0.06247 0.08762 0.0
C78 C 0.35786 0.05959 0.11399 0.0
C79 C 0.31656 0.09327 0.11062 0.0
C80 C 0.27397 0.08659 0.1317 0.0
C81 C 0.2325 0.1198 0.12694 0.0
C82 C 0.23321 0.15873 0.10234 0.0
C83 C 0.27473 0.16529 0.08173 0.0
C84 C 0.31587 0.13298 0.08556 0.0
H85 H 0.247 0.09216 0.21651 0.0
C86 C 0.22009 0.063 0.20736 0.0
H87 H 0.20269 0.00616 0.16844 0.0
H88 H 0.43434 0.99327 0.1315 0.0
H89 H 0.43232 0.92589 0.17481 0.0
H90 H 0.35728 0.91284 0.20993 0.0
H91 H 0.284 0.96725 0.20221 0.0
C92 C 0.22719 0.03739 0.17665 0.0
C93 C 0.27286 0.04641 0.15616 0.0
C94 C 0.31502 0.01388 0.16063 0.0
C95 C 0.35787 0.02084 0.1399 0.0
C96 C 0.40018 0.98872 0.14576 0.0
C97 C 0.39968 0.95015 0.17073 0.0
C98 C 0.35746 0.94285 0.19054 0.0
C99 C 0.31559 0.97429 0.18577 0.0
H100 H 0.08639 0.36479 0.56602 0.0
C101 C 0.04936 0.37103 0.54981 0.0
H102 H 0.97084 0.35176 0.5409 0.0
H103 H 1.01004 0.12915 0.56986 0.0
H104 H 0.96686 0.1307 0.50699 0.0
H105 H 0.94366 0.20854 0.47597 0.0
H106 H 0.96321 0.28481 0.50751 0.0
C107 C 1.00781 0.34451 0.55679 0.0
C108 C 1.01399 0.29804 0.57811 0.0
C109 C 1.00064 0.25338 0.55936 0.0
C110 C 1.014 0.20844 0.57716 0.0
C111 C 1.00119 0.1644 0.5576 0.0
C112 C 0.97618 0.16468 0.5215 0.0
C113 C 0.96309 0.20847 0.50407 0.0
C114 C 0.97501 0.25227 0.52258 0.0
H115 H 1.00259 0.16061 0.6704 0.0
C116 C 0.03145 0.13998 0.6576 0.0
H117 H 0.0841 0.13979 0.61714 0.0
H118 H 0.0351 0.37615 0.62442 0.0
H119 H 0.07775 0.37435 0.68776 0.0
H120 H 0.10451 0.29651 0.7176 0.0
H121 H 0.08817 0.21998 0.68455 0.0
C122 C 0.05621 0.16059 0.63079 0.0
C123 C 0.03974 0.20802 0.61385 0.0
C124 C 0.05058 0.2524 0.63334 0.0
C125 C 0.03695 0.29745 0.61562 0.0
C126 C 0.04652 0.34114 0.63611 0.0
C127 C 0.07057 0.34056 0.67254 0.0
C128 C 0.08549 0.29672 0.68938 0.0
C129 C 0.07573 0.25303 0.67015 0.0
H130 H 0.67073 0.03012 0.08553 0.0
C131 C 0.69125 0.03716 0.06139 0.0
H132 H 0.76462 0.04885 0.04276 0.0
H133 H 0.89311 0.09048 0.19547 0.0
H134 H 0.88348 0.17235 0.17091 0.0
H135 H 0.82387 0.18911 0.11454 0.0
H136 H 0.77327 0.12409 0.08253 0.0
C137 C 0.7433 0.03754 0.06554 0.0
C138 C 0.77453 0.02777 0.10172 0.0
C139 C 0.80412 0.06609 0.11996 0.0
C140 C 0.8389 0.05635 0.15222 0.0
C141 C 0.86701 0.09557 0.17036 0.0
C142 C 0.86163 0.14284 0.15669 0.0
C143 C 0.82806 0.15228 0.12497 0.0
C144 C 0.79942 0.11456 0.10677 0.0
H145 H 0.94781 0.00747 0.16999 0.0
C146 C 0.9336 0.9986 0.19642 0.0
H147 H 0.86732 0.98737 0.22459 0.0
H148 H 0.72418 0.94557 0.07324 0.0
H149 H 0.73254 0.86412 0.09864 0.0
H150 H 0.79169 0.84759 0.15529 0.0
H151 H 0.84322 0.91249 0.18669 0.0
C152 C 0.88237 0.99732 0.19869 0.0
C153 C 0.8445 0.00812 0.16589 0.0
C154 C 0.81355 0.9701 0.14849 0.0
C155 C 0.77884 0.9798 0.11614 0.0
C156 C 0.75026 0.94063 0.09834 0.0
C157 C 0.75486 0.89357 0.11254 0.0
C158 C 0.7882 0.88425 0.14442 0.0
C159 C 0.81746 0.92187 0.16221 0.0
H160 H 0.11262 0.65524 0.56505 0.0
C161 C 0.0745 0.65423 0.54942 0.0
H162 H 1.00026 0.68511 0.54254 0.0
H163 H 0.10565 0.79516 0.69783 0.0
H164 H 0.11434 0.71511 0.72613 0.0
H165 H 0.09235 0.64105 0.6888 0.0
H166 H 0.06291 0.6465 0.6228 0.0
C167 C 0.0386 0.68618 0.55775 0.0
C168 C 0.05217 0.72995 0.58125 0.0
C169 C 0.06715 0.726 0.62009 0.0
C170 C 0.07696 0.76881 0.64208 0.0
C171 C 0.0951 0.76389 0.68031 0.0
C172 C 0.1007 0.71817 0.6968 0.0
C173 C 0.08852 0.67647 0.67574 0.0
C174 C 0.07188 0.6801 0.63783 0.0
H175 H 1.01396 0.83418 0.6827 0.0
C176 C 0.03673 0.8652 0.67511 0.0
H177 H 0.09233 0.89118 0.64183 0.0
H178 H 0.032 0.75052 0.50669 0.0
H179 H 0.02201 0.83017 0.47869 0.0
H180 H 0.03233 0.90432 0.51743 0.0
H181 H 0.05295 0.89912 0.5842 0.0
C182 C 0.06936 0.86021 0.64906 0.0
C183 C 0.06856 0.81539 0.62562 0.0
C184 C 0.05572 0.8193 0.5865 0.0
C185 C 0.04824 0.77655 0.56428 0.0
C186 C 0.03663 0.78156 0.52515 0.0
C187 C 0.03109 0.82719 0.5086 0.0
C188 C 0.03698 0.8689 0.53039 0.0
C189 C 0.049 0.86527 0.56885 0.0
H190 H 0.35784 0.98196 0.92754 0.0
C191 C 0.38326 0.01319 0.92524 0.0
H192 H 0.39676 0.07507 0.89301 0.0
H193 H 0.23238 0.92439 0.78921 0.0
H194 H 0.30341 0.86769 0.79134 0.0
H195 H 0.38728 0.88702 0.82713 0.0
H196 H 0.40019 0.96284 0.86163 0.0
C197 C 0.375 0.04146 0.89485 0.0
C198 C 0.32811 0.03336 0.86786 0.0
C199 C 0.32201 0.99005 0.84635 0.0
C200 C 0.27449 0.98006 0.82418 0.0
C201 C 0.26836 0.93495 0.80508 0.0
C202 C 0.30872 0.90185 0.80632 0.0
C203 C 0.35587 0.91264 0.82658 0.0
C204 C 0.36265 0.95614 0.84644 0.0
H205 H 0.22185 0.00728 0.74826 0.0
C206 C 0.18524 1.00433 0.76003 0.0
H207 H 0.149 1.00443 0.80958 0.0
H208 H 0.32655 0.11995 0.9058 0.0
H209 H 0.25691 0.17809 0.90155 0.0
H210 H 0.17642 0.16283 0.86041 0.0
H211 H 0.16488 0.08896 0.82359 0.0
C212 C 0.18517 0.00601 0.79719 0.0
C213 C 0.23406 0.01466 0.82198 0.0
C214 C 0.24061 0.05846 0.84283 0.0
C215 C 0.28751 0.06771 0.86594 0.0
C216 C 0.29226 0.11124 0.88724 0.0
C217 C 0.25248 0.145 0.88515 0.0
C218 C 0.20714 0.13638 0.86203 0.0
C219 C 0.20104 0.09373 0.84107 0.0
H220 H 0.98405 0.35665 0.40958 0.0
C221 C 0.02354 0.37036 0.41402 0.0
H222 H 0.1009 0.3557 0.40673 0.0
H223 H 0.04634 0.13091 0.41135 0.0
H224 H 0.07688 0.14516 0.47638 0.0
H225 H 0.09598 0.22836 0.49995 0.0
H226 H 0.08492 0.29768 0.45865 0.0
C227 C 0.06062 0.34584 0.39906 0.0
C228 C 0.04967 0.29599 0.38409 0.0
C229 C 0.05719 0.25568 0.40859 0.0
C230 C 0.04622 0.20773 0.39502 0.0
C231 C 0.05386 0.16818 0.42014 0.0
C232 C 0.07153 0.17579 0.45756 0.0
C233 C 0.08231 0.22261 0.47083 0.0
C234 C 0.07548 0.26216 0.44678 0.0
H235 H 0.08289 0.15189 0.31049 0.0
C236 C 0.05255 0.12954 0.32035 0.0
H237 H 0.99069 0.1274 0.35362 0.0
H238 H 0.03103 0.36532 0.33038 0.0
H239 H 0.99809 0.3515 0.26549 0.0
H240 H 0.97783 0.26839 0.24197 0.0
H241 H 0.99057 0.1986 0.28301 0.0
C242 C 1.02036 0.14944 0.34266 0.0
C243 C 0.0287 0.20009 0.35685 0.0
C244 C 1.02034 0.24048 0.33251 0.0
C245 C 0.03109 0.28852 0.34618 0.0
C246 C 0.02299 0.32819 0.32136 0.0
C247 C 1.00416 0.32074 0.28412 0.0
C248 C 0.99284 0.27393 0.27086 0.0
C249 C 1.00062 0.23414 0.29466 0.0
H250 H 0.65505 0.04398 0.89613 0.0
C251 C 0.67943 0.05088 0.92205 0.0
H252 H 0.75537 0.06515 0.94701 0.0
H253 H 0.87072 0.9498 0.83157 0.0
H254 H 0.87771 0.89333 0.88329 0.0
H255 H 0.82983 0.90689 0.93767 0.0
H256 H 0.77428 0.97681 0.94043 0.0
C257 C 0.73072 0.05679 0.9215 0.0
C258 C 0.75705 0.04804 0.88761 0.0
C259 C 0.79011 0.00742 0.88671 0.0
C260 C 0.81842 1.00007 0.85566 0.0
C261 C 0.84954 0.9581 0.85491 0.0
C262 C 0.85363 0.92511 0.88433 0.0
C263 C 0.82664 0.93271 0.91492 0.0
C264 C 0.79503 0.97316 0.91619 0.0
H265 H 0.91711 0.04116 0.82313 0.0
C266 C 0.89603 0.03138 0.79645 0.0
H267 H 0.82266 0.01815 0.76674 0.0
H268 H 0.69847 0.13059 0.8811 0.0
H269 H 0.69076 0.18671 0.82905 0.0
H270 H 0.73924 0.17355 0.77491 0.0
H271 H 0.79603 0.10433 0.77262 0.0
C272 C 0.84427 0.02681 0.79345 0.0
C273 C 0.81443 0.03399 0.8259 0.0
C274 C 0.78058 0.07407 0.82646 0.0
C275 C 0.75211 0.08134 0.85749 0.0
C276 C 0.72013 0.12271 0.85793 0.0
C277 C 0.71553 0.15537 0.82829 0.0
C278 C 0.74285 0.14798 0.79782 0.0
C279 C 0.77521 0.10801 0.79682 0.0
H280 H 0.9826 0.65872 0.41605 0.0
C281 C 1.01899 0.63971 0.41547 0.0
H282 H 0.09063 0.64051 0.39379 0.0
H283 H 0.9694 0.79846 0.27731 0.0
H284 H 0.92821 0.72784 0.24576 0.0
H285 H 0.94012 0.64579 0.27289 0.0
H286 H 0.99314 0.63386 0.33191 0.0
C287 C 0.05192 0.65546 0.39192 0.0
C288 C 0.04456 0.7044 0.37481 0.0
C289 C 1.01403 0.71063 0.34027 0.0
C290 C 1.00801 0.75785 0.32431 0.0
C291 C 0.97636 0.76324 0.29015 0.0
C292 C 0.95225 0.72306 0.2719 0.0
C293 C 0.95888 0.67686 0.28722 0.0
C294 C 0.98934 0.67049 0.32105 0.0
H295 H 0.07396 0.82369 0.28136 0.0
C296 C 0.05803 0.85463 0.2949 0.0
H297 H 1.01792 0.87798 0.33928 0.0
H298 H 0.10363 0.70541 0.4427 0.0
H299 H 0.14271 0.77592 0.47497 0.0
H300 H 0.13288 0.85767 0.44717 0.0
H301 H 0.08359 0.86934 0.38707 0.0
C302 C 0.03238 0.84722 0.32471 0.0
C303 C 0.0331 0.79856 0.34283 0.0
C304 C 0.06203 0.79251 0.37814 0.0
C305 C 0.06799 0.74537 0.39405 0.0
C306 C 0.09761 0.74031 0.42921 0.0
C307 C 0.1205 0.78052 0.44807 0.0
C308 C 0.11493 0.82652 0.43243 0.0
C309 C 0.08632 0.83267 0.39786 0.0
loop_
_geom_bond_atom_site_label_1
_geom_bond_atom_site_label_2
_geom_bond_distance
_geom_bond_site_symmetry_2
_ccdc_geom_bond_type
H0 C8 0.930 . S
H1 C11 0.930 . S
H2 C13 0.930 . S
H3 C14 0.970 . S
H4 C14 0.970 1_556 S
H5 C16 0.930 . S
H6 C18 0.929 . S
H7 C20 0.930 . S
C8 H0 0.930 . S
C8 C9 1.382 . S
C8 C10 1.426 . S
C9 C8 1.382 . S
C9 C13 1.389 1_545 S
C10 C8 1.426 . S
C10 C11 1.375 1_554 S
C10 C14 1.532 . S
C11 H1 0.930 . S
C11 C10 1.375 1_556 S
C11 C12 1.416 . S
C12 C11 1.416 . S
C12 C13 1.371 1_546 S
C13 H2 0.930 . S
C13 C9 1.389 1_565 S
C13 C12 1.371 1_564 S
C14 H3 0.970 . S
C14 H4 0.970 1_554 S
C14 C10 1.532 . S
C14 C15 1.498 . S
C15 C14 1.498 . S
C15 C16 1.382 . S
C15 C20 1.404 1_554 S
C16 H5 0.930 . S
C16 C15 1.382 . S
C16 C17 1.407 . S
C17 C16 1.407 . S
C17 C18 1.349 1_544 S
C18 H6 0.929 . S
C18 C17 1.349 1_566 S
C18 C19 1.411 1_565 S
C19 C18 1.411 1_545 S
C19 C20 1.387 . S
C20 H7 0.930 . S
C20 C15 1.404 1_556 S
C20 C19 1.387 . S
H21 C29 0.930 . S
H22 C32 0.930 . S
H23 C34 0.930 1_655 S
H24 C35 0.970 . S
H25 C35 0.970 . S
H26 C37 0.930 . S
H27 C39 0.930 1_655 S
H28 C41 0.930 . S
C29 H21 0.930 . S
C29 C30 1.382 . S
C29 C31 1.426 . S
C30 C29 1.382 . S
C30 C34 1.389 . S
C31 C29 1.426 . S
C31 C32 1.375 . S
C31 C35 1.532 . S
C32 H22 0.930 . S
C32 C31 1.375 . S
C32 C33 1.416 . S
C33 C32 1.416 . S
C33 C34 1.371 . S
C34 H23 0.930 1_455 S
C34 C30 1.389 . S
C34 C33 1.371 . S
C35 H24 0.970 . S
C35 H25 0.970 . S
C35 C31 1.532 . S
C35 C36 1.499 . S
C36 C35 1.499 . S
C36 C37 1.370 . S
C36 C41 1.415 . S
C37 H26 0.930 . S
C37 C36 1.370 . S
C37 C38 1.407 . S
C38 C37 1.407 . S
C38 C39 1.365 . S
C39 H27 0.930 1_455 S
C39 C38 1.365 . S
C39 C40 1.393 . S
C40 C39 1.393 . S
C40 C41 1.387 . S
C41 H28 0.930 . S
C41 C36 1.415 . S
C41 C40 1.387 . S
Mg42 O43 2.028 . S
Mg42 O49 1.986 . S
Mg42 O51 2.114 1_545 S
Mg42 O52 2.251 1_545 S
Mg42 O55 2.010 . S
O43 Mg42 2.028 . S
O43 C46 1.250 1_455 S
O44 Mg45 2.028 . S
O44 C46 1.248 . S
Mg45 O44 2.028 . S
Mg45 O50 2.032 . S
Mg45 O52 2.079 1_645 S
C46 O43 1.250 1_655 S
C46 O44 1.248 . S
C47 O48 1.264 . S
C47 O55 1.249 . S
O48 C47 1.264 . S
O49 Mg42 1.986 . S
O49 C53 1.246 . S
O50 Mg45 2.032 . S
O50 C53 1.259 1_655 S
O51 Mg42 2.114 1_565 S
O51 C54 1.252 . S
O52 Mg42 2.251 1_565 S
O52 Mg45 2.079 1_465 S
O52 C54 1.273 . S
C53 O49 1.246 . S
C53 O50 1.259 1_455 S
C54 O51 1.252 . S
C54 O52 1.273 . S
O55 Mg42 2.010 . S
O55 C47 1.249 . S
Mg56 O57 2.028 1_655 S
Mg56 O63 1.986 . S
Mg56 O65 2.114 1_545 S
Mg56 O66 2.251 1_645 S
Mg56 O69 2.010 . S
O57 Mg56 2.028 1_455 S
O57 C60 1.250 . S
O58 Mg59 2.028 . S
O58 C60 1.248 . S
Mg59 O58 2.028 . S
Mg59 O64 2.032 . S
Mg59 O66 2.079 1_545 S
C60 O57 1.250 . S
C60 O58 1.248 . S
C61 O62 1.264 . S
C61 O69 1.249 . S
O62 C61 1.264 . S
O63 Mg56 1.986 . S
O63 C67 1.246 1_655 S
O64 Mg59 2.032 . S
O64 C67 1.259 . S
O65 Mg56 2.114 1_565 S
O65 C68 1.252 1_655 S
O66 Mg56 2.251 1_465 S
O66 Mg59 2.079 1_565 S
O66 C68 1.273 . S
C67 O63 1.246 1_455 S
C67 O64 1.259 . S
C68 O65 1.252 1_455 S
C68 O66 1.273 . S
O69 Mg56 2.010 . S
O69 C61 1.249 . S
H70 C71 0.956 . S
C71 H70 0.956 . S
C71 C77 1.261 1_565 S
H72 C77 0.950 . S
H73 C81 0.949 . S
H74 C82 0.950 . S
H75 C83 0.951 . S
H76 C84 0.951 . S
C77 C71 1.261 1_545 S
C77 H72 0.950 . S
C77 C78 1.478 . S
C78 C77 1.478 . S
C78 C79 1.397 . S
C78 C95 1.394 1_545 S
C79 C78 1.397 . S
C79 C80 1.438 . S
C79 C84 1.429 . S
C80 C79 1.438 . S
C80 C81 1.428 . S
C80 C93 1.394 . S
C81 H73 0.949 . S
C81 C80 1.428 . S
C81 C82 1.345 . S
C82 H74 0.950 . S
C82 C81 1.345 . S
C82 C83 1.424 . S
C83 H75 0.951 . S
C83 C82 1.424 . S
C83 C84 1.347 . S
C84 H76 0.951 . S
C84 C79 1.429 . S
C84 C83 1.347 . S
H85 C86 0.951 . S
C86 H85 0.951 . S
C86 C92 1.265 . S
H87 C92 0.950 1_565 S
H88 C96 0.949 . S
H89 C97 0.950 . S
H90 C98 0.951 . S
H91 C99 0.951 . S
C92 C86 1.265 . S
C92 H87 0.950 1_545 S
C92 C93 1.478 . S
C93 C80 1.394 . S
C93 C92 1.478 . S
C93 C94 1.397 1_545 S
C94 C93 1.397 1_565 S
C94 C95 1.438 . S
C94 C99 1.429 . S
C95 C78 1.394 1_565 S
C95 C94 1.438 . S
C95 C96 1.428 . S
C96 H88 0.949 . S
C96 C95 1.428 . S
C96 C97 1.345 . S
C97 H89 0.950 . S
C97 C96 1.345 . S
C97 C98 1.424 . S
C98 H90 0.951 . S
C98 C97 1.424 . S
C98 C99 1.347 . S
C99 H91 0.951 . S
C99 C94 1.429 . S
C99 C98 1.347 . S
H100 C101 0.951 . S
C101 H100 0.951 . S
C101 C107 1.265 . S
H102 C107 0.950 1_655 S
H103 C111 0.949 . S
H104 C112 0.950 . S
H105 C113 0.951 . S
H106 C114 0.951 . S
C107 C101 1.265 . S
C107 H102 0.950 1_455 S
C107 C108 1.478 . S
C108 C107 1.478 . S
C108 C109 1.397 1_455 S
C108 C125 1.394 . S
C109 C108 1.397 1_655 S
C109 C110 1.438 . S
C109 C114 1.429 . S
C110 C109 1.438 . S
C110 C111 1.428 . S
C110 C123 1.394 1_655 S
C111 H103 0.949 . S
C111 C110 1.428 . S
C111 C112 1.345 . S
C112 H104 0.950 . S
C112 C111 1.345 . S
C112 C113 1.424 . S
C113 H105 0.951 . S
C113 C112 1.424 . S
C113 C114 1.347 . S
C114 H106 0.951 . S
C114 C109 1.429 . S
C114 C113 1.347 . S
H115 C116 0.951 1_655 S
C116 H115 0.951 1_455 S
C116 C122 1.265 . S
H117 C122 0.950 . S
H118 C126 0.949 . S
H119 C127 0.950 . S
H120 C128 0.951 . S
H121 C129 0.951 . S
C122 C116 1.265 . S
C122 H117 0.950 . S
C122 C123 1.478 . S
C123 C110 1.394 1_455 S
C123 C122 1.478 . S
C123 C124 1.397 . S
C124 C123 1.397 . S
C124 C125 1.438 . S
C124 C129 1.429 . S
C125 C108 1.394 . S
C125 C124 1.438 . S
C125 C126 1.428 . S
C126 H118 0.949 . S
C126 C125 1.428 . S
C126 C127 1.345 . S
C127 H119 0.950 . S
C127 C126 1.345 . S
C127 C128 1.424 . S
C128 H120 0.951 . S
C128 C127 1.424 . S
C128 C129 1.347 . S
C129 H121 0.951 . S
C129 C124 1.429 . S
C129 C128 1.347 . S
H130 C131 0.951 1_565 S
C131 H130 0.951 1_545 S
C131 C137 1.265 . S
H132 C137 0.950 . S
H133 C141 0.949 . S
H134 C142 0.950 . S
H135 C143 0.951 . S
H136 C144 0.951 . S
C137 C131 1.265 . S
C137 H132 0.950 . S
C137 C138 1.478 . S
C138 C137 1.478 . S
C138 C139 1.397 . S
C138 C155 1.394 1_545 S
C139 C138 1.397 . S
C139 C140 1.438 . S
C139 C144 1.429 . S
C140 C139 1.438 . S
C140 C141 1.428 . S
C140 C153 1.394 . S
C141 H133 0.949 . S
C141 C140 1.428 . S
C141 C142 1.345 . S
C142 H134 0.950 . S
C142 C141 1.345 . S
C142 C143 1.424 . S
C143 H135 0.951 . S
C143 C142 1.424 . S
C143 C144 1.347 . S
C144 H136 0.951 . S
C144 C139 1.429 . S
C144 C143 1.347 . S
H145 C146 0.951 . S
C146 H145 0.951 . S
C146 C152 1.265 . S
H147 C152 0.950 1_565 S
H148 C156 0.949 . S
H149 C157 0.950 . S
H150 C158 0.951 . S
H151 C159 0.951 . S
C152 C146 1.265 . S
C152 H147 0.950 1_545 S
C152 C153 1.478 . S
C153 C140 1.394 . S
C153 C152 1.478 . S
C153 C154 1.397 1_545 S
C154 C153 1.397 1_565 S
C154 C155 1.438 . S
C154 C159 1.429 . S
C155 C138 1.394 1_565 S
C155 C154 1.438 . S
C155 C156 1.428 . S
C156 H148 0.949 . S
C156 C155 1.428 . S
C156 C157 1.345 . S
C157 H149 0.950 . S
C157 C156 1.345 . S
C157 C158 1.424 . S
C158 H150 0.951 . S
C158 C157 1.424 . S
C158 C159 1.347 . S
C159 H151 0.951 . S
C159 C154 1.429 . S
C159 C158 1.347 . S
H160 C161 0.951 . S
C161 H160 0.951 . S
C161 C167 1.265 1_455 S
H162 C167 0.950 . S
H163 C171 0.949 . S
H164 C172 0.950 . S
H165 C173 0.951 . S
H166 C174 0.951 . S
C167 C161 1.265 1_655 S
C167 H162 0.950 . S
C167 C168 1.478 1_655 S
C168 C167 1.478 1_455 S
C168 C169 1.397 . S
C168 C185 1.394 . S
C169 C168 1.397 . S
C169 C170 1.438 . S
C169 C174 1.429 . S
C170 C169 1.438 . S
C170 C171 1.428 . S
C170 C183 1.394 . S
C171 H163 0.949 . S
C171 C170 1.428 . S
C171 C172 1.345 . S
C172 H164 0.950 . S
C172 C171 1.345 . S
C172 C173 1.424 . S
C173 H165 0.951 . S
C173 C172 1.424 . S
C173 C174 1.347 . S
C174 H166 0.951 . S
C174 C169 1.429 . S
C174 C173 1.347 . S
H175 C176 0.951 1_655 S
C176 H175 0.951 1_455 S
C176 C182 1.265 . S
H177 C182 0.950 . S
H178 C186 0.949 . S
H179 C187 0.950 . S
H180 C188 0.951 . S
H181 C189 0.951 . S
C182 C176 1.265 . S
C182 H177 0.950 . S
C182 C183 1.478 . S
C183 C170 1.394 . S
C183 C182 1.478 . S
C183 C184 1.397 . S
C184 C183 1.397 . S
C184 C185 1.438 . S
C184 C189 1.429 . S
C185 C168 1.394 . S
C185 C184 1.438 . S
C185 C186 1.428 1_455 S
C186 H178 0.949 . S
C186 C185 1.428 1_655 S
C186 C187 1.345 . S
C187 H179 0.950 . S
C187 C186 1.345 . S
C187 C188 1.424 1_655 S
C188 H180 0.951 . S
C188 C187 1.424 1_455 S
C188 C189 1.347 . S
C189 H181 0.951 . S
C189 C184 1.429 . S
C189 C188 1.347 . S
H190 C191 0.951 . S
C191 H190 0.951 . S
C191 C197 1.265 . S
H192 C197 0.950 1_565 S
H193 C201 0.949 . S
H194 C202 0.950 . S
H195 C203 0.951 . S
H196 C204 0.951 . S
C197 C191 1.265 . S
C197 H192 0.950 1_545 S
C197 C198 1.478 . S
C198 C197 1.478 . S
C198 C199 1.397 1_545 S
C198 C215 1.394 . S
C199 C198 1.397 1_565 S
C199 C200 1.438 . S
C199 C204 1.429 . S
C200 C199 1.438 . S
C200 C201 1.428 . S
C200 C213 1.394 1_565 S
C201 H193 0.949 . S
C201 C200 1.428 . S
C201 C202 1.345 . S
C202 H194 0.950 . S
C202 C201 1.345 . S
C202 C203 1.424 . S
C203 H195 0.951 . S
C203 C202 1.424 . S
C203 C204 1.347 . S
C204 H196 0.951 . S
C204 C199 1.429 . S
C204 C203 1.347 . S
H205 C206 0.951 . S
C206 H205 0.951 . S
C206 C212 1.265 . S
H207 C212 0.950 . S
H208 C216 0.949 . S
H209 C217 0.950 . S
H210 C218 0.951 . S
H211 C219 0.951 . S
C212 C206 1.265 . S
C212 H207 0.950 . S
C212 C213 1.478 . S
C213 C200 1.394 1_545 S
C213 C212 1.478 . S
C213 C214 1.397 . S
C214 C213 1.397 . S
C214 C215 1.438 . S
C214 C219 1.429 . S
C215 C198 1.394 . S
C215 C214 1.438 . S
C215 C216 1.428 . S
C216 H208 0.949 . S
C216 C215 1.428 . S
C216 C217 1.345 . S
C217 H209 0.950 . S
C217 C216 1.345 . S
C217 C218 1.424 . S
C218 H210 0.951 . S
C218 C217 1.424 . S
C218 C219 1.347 . S
C219 H211 0.951 . S
C219 C214 1.429 . S
C219 C218 1.347 . S
H220 C221 0.951 1_655 S
C221 H220 0.951 1_455 S
C221 C227 1.265 . S
H222 C227 0.950 . S
H223 C231 0.949 . S
H224 C232 0.950 . S
H225 C233 0.951 . S
H226 C234 0.951 . S
C227 C221 1.265 . S
C227 H222 0.950 . S
C227 C228 1.478 . S
C228 C227 1.478 . S
C228 C229 1.397 . S
C228 C245 1.394 . S
C229 C228 1.397 . S
C229 C230 1.438 . S
C229 C234 1.429 . S
C230 C229 1.438 . S
C230 C231 1.428 . S
C230 C243 1.394 . S
C231 H223 0.949 . S
C231 C230 1.428 . S
C231 C232 1.345 . S
C232 H224 0.950 . S
C232 C231 1.345 . S
C232 C233 1.424 . S
C233 H225 0.951 . S
C233 C232 1.424 . S
C233 C234 1.347 . S
C234 H226 0.951 . S
C234 C229 1.429 . S
C234 C233 1.347 . S
H235 C236 0.951 . S
C236 H235 0.951 . S
C236 C242 1.265 . S
H237 C242 0.950 1_655 S
H238 C246 0.949 . S
H239 C247 0.950 . S
H240 C248 0.951 . S
H241 C249 0.951 . S
C242 C236 1.265 . S
C242 H237 0.950 1_455 S
C242 C243 1.478 . S
C243 C230 1.394 . S
C243 C242 1.478 . S
C243 C244 1.397 . S
C244 C243 1.397 . S
C244 C245 1.438 . S
C244 C249 1.429 . S
C245 C228 1.394 . S
C245 C244 1.438 . S
C245 C246 1.428 . S
C246 H238 0.949 . S
C246 C245 1.428 . S
C246 C247 1.345 . S
C247 H239 0.950 . S
C247 C246 1.345 . S
C247 C248 1.424 . S
C248 H240 0.951 . S
C248 C247 1.424 . S
C248 C249 1.347 . S
C249 H241 0.951 . S
C249 C244 1.429 . S
C249 C248 1.347 . S
H250 C251 0.951 . S
C251 H250 0.951 . S
C251 C257 1.264 1_565 S
H252 C257 0.950 . S
H253 C261 0.949 . S
H254 C262 0.950 . S
H255 C263 0.951 . S
H256 C264 0.951 . S
C257 C251 1.264 1_545 S
C257 H252 0.950 . S
C257 C258 1.478 . S
C258 C257 1.478 . S
C258 C259 1.397 1_545 S
C258 C275 1.394 . S
C259 C258 1.397 1_565 S
C259 C260 1.438 . S
C259 C264 1.429 . S
C260 C259 1.438 . S
C260 C261 1.428 . S
C260 C273 1.394 1_565 S
C261 H253 0.949 . S
C261 C260 1.428 . S
C261 C262 1.345 . S
C262 H254 0.950 . S
C262 C261 1.345 . S
C262 C263 1.424 . S
C263 H255 0.951 . S
C263 C262 1.424 . S
C263 C264 1.347 . S
C264 H256 0.951 . S
C264 C259 1.429 . S
C264 C263 1.347 . S
H265 C266 0.951 . S
C266 H265 0.951 . S
C266 C272 1.265 . S
H267 C272 0.950 . S
H268 C276 0.949 . S
H269 C277 0.950 . S
H270 C278 0.951 . S
H271 C279 0.951 . S
C272 C266 1.265 . S
C272 H267 0.950 . S
C272 C273 1.478 . S
C273 C260 1.394 1_545 S
C273 C272 1.478 . S
C273 C274 1.397 . S
C274 C273 1.397 . S
C274 C275 1.438 . S
C274 C279 1.429 . S
C275 C258 1.394 . S
C275 C274 1.438 . S
C275 C276 1.428 . S
C276 H268 0.949 . S
C276 C275 1.428 . S
C276 C277 1.345 . S
C277 H269 0.950 . S
C277 C276 1.345 . S
C277 C278 1.424 . S
C278 H270 0.951 . S
C278 C277 1.424 . S
C278 C279 1.347 . S
C279 H271 0.951 . S
C279 C274 1.429 . S
C279 C278 1.347 . S
H280 C281 0.951 . S
C281 H280 0.951 . S
C281 C287 1.265 . S
H282 C287 0.950 . S
H283 C291 0.949 . S
H284 C292 0.950 . S
H285 C293 0.951 . S
H286 C294 0.951 . S
C287 C281 1.265 . S
C287 H282 0.950 . S
C287 C288 1.478 . S
C288 C287 1.478 . S
C288 C289 1.397 1_455 S
C288 C305 1.394 . S
C289 C288 1.397 1_655 S
C289 C290 1.438 . S
C289 C294 1.429 . S
C290 C289 1.438 . S
C290 C291 1.428 . S
C290 C303 1.394 1_655 S
C291 H283 0.949 . S
C291 C290 1.428 . S
C291 C292 1.345 . S
C292 H284 0.950 . S
C292 C291 1.345 . S
C292 C293 1.424 . S
C293 H285 0.951 . S
C293 C292 1.424 . S
C293 C294 1.347 . S
C294 H286 0.951 . S
C294 C289 1.429 . S
C294 C293 1.347 . S
H295 C296 0.951 . S
C296 H295 0.951 . S
C296 C302 1.265 . S
H297 C302 0.950 . S
H298 C306 0.949 . S
H299 C307 0.950 . S
H300 C308 0.951 . S
H301 C309 0.951 . S
C302 C296 1.265 . S
C302 H297 0.950 . S
C302 C303 1.478 . S
C303 C290 1.394 1_455 S
C303 C302 1.478 . S
C303 C304 1.397 . S
C304 C303 1.397 . S
C304 C305 1.438 . S
C304 C309 1.429 . S
C305 C288 1.394 . S
C305 C304 1.438 . S
C305 C306 1.428 . S
C306 H298 0.949 . S
C306 C305 1.428 . S
C306 C307 1.345 . S
C307 H299 0.950 . S
C307 C306 1.345 . S
C307 C308 1.424 . S
C308 H300 0.951 . S
C308 C307 1.424 . S
C308 C309 1.347 . S
C309 H301 0.951 . S
C309 C304 1.429 . S
C309 C308 1.347 . S
C86 C47 1.180 . S
C71 C17 1.418 1_565 S
C116 C67 1.540 . S
C101 C40 1.424 . S
C146 C46 1.534 . S
C131 C9 1.517 . S
C176 C68 1.535 . S
C161 C33 1.387 . S
C206 C60 1.433 . S
C191 C19 1.422 . S
C236 C53 1.539 . S
C221 C38 1.504 . S
C266 C61 1.369 . S
C251 C12 1.498 1_565 S
C281 C30 1.423 . S
C296 C54 1.545 . S
