# Generated by pormake.
# Topology ant, (3,6)-cn, num edge types: 1
# Building blocks:
#     Node 0, Type 0, BuildingBlock: BETDIP_clean_linker_0, # of connection points: 3
#     Node 1, Type 0, BuildingBlock: BETDIP_clean_linker_0, # of connection points: 3
#     Node 2, Type 0, BuildingBlock: BETDIP_clean_linker_0, # of connection points: 3
#     Node 3, Type 0, BuildingBlock: BETDIP_clean_linker_0, # of connection points: 3
#     Node 4, Type 0, BuildingBlock: BETDIP_clean_linker_0, # of connection points: 3
#     Node 5, Type 0, BuildingBlock: BETDIP_clean_linker_0, # of connection points: 3
#     Node 6, Type 0, BuildingBlock: BETDIP_clean_linker_0, # of connection points: 3
#     Node 7, Type 0, BuildingBlock: BETDIP_clean_linker_0, # of connection points: 3
#     Node 8, Type 1, BuildingBlock: MIDCAF_clean_sbu_0, # of connection points: 6
#     Node 9, Type 1, BuildingBlock: MIDCAF_clean_sbu_0, # of connection points: 6
#     Node 10, Type 1, BuildingBlock: MIDCAF_clean_sbu_0, # of connection points: 6
#     Node 11, Type 1, BuildingBlock: MIDCAF_clean_sbu_0, # of connection points: 6
#     Edge 12, Type (0, 1), BuildingBlock: TEMPAE_clean_linker_10, # of connection points: 2
#     Edge 13, Type (0, 1), BuildingBlock: TEMPAE_clean_linker_10, # of connection points: 2
#     Edge 14, Type (0, 1), BuildingBlock: TEMPAE_clean_linker_10, # of connection points: 2
#     Edge 15, Type (0, 1), BuildingBlock: TEMPAE_clean_linker_10, # of connection points: 2
#     Edge 16, Type (0, 1), BuildingBlock: TEMPAE_clean_linker_10, # of connection points: 2
#     Edge 17, Type (0, 1), BuildingBlock: TEMPAE_clean_linker_10, # of connection points: 2
#     Edge 18, Type (0, 1), BuildingBlock: TEMPAE_clean_linker_10, # of connection points: 2
#     Edge 19, Type (0, 1), BuildingBlock: TEMPAE_clean_linker_10, # of connection points: 2
#     Edge 20, Type (0, 1), BuildingBlock: TEMPAE_clean_linker_10, # of connection points: 2
#     Edge 21, Type (0, 1), BuildingBlock: TEMPAE_clean_linker_10, # of connection points: 2
#     Edge 22, Type (0, 1), BuildingBlock: TEMPAE_clean_linker_10, # of connection points: 2
#     Edge 23, Type (0, 1), BuildingBlock: TEMPAE_clean_linker_10, # of connection points: 2
#     Edge 24, Type (0, 1), BuildingBlock: TEMPAE_clean_linker_10, # of connection points: 2
#     Edge 25, Type (0, 1), BuildingBlock: TEMPAE_clean_linker_10, # of connection points: 2
#     Edge 26, Type (0, 1), BuildingBlock: TEMPAE_clean_linker_10, # of connection points: 2
#     Edge 27, Type (0, 1), BuildingBlock: TEMPAE_clean_linker_10, # of connection points: 2
#     Edge 28, Type (0, 1), BuildingBlock: TEMPAE_clean_linker_10, # of connection points: 2
#     Edge 29, Type (0, 1), BuildingBlock: TEMPAE_clean_linker_10, # of connection points: 2
#     Edge 30, Type (0, 1), BuildingBlock: TEMPAE_clean_linker_10, # of connection points: 2
#     Edge 31, Type (0, 1), BuildingBlock: TEMPAE_clean_linker_10, # of connection points: 2
#     Edge 32, Type (0, 1), BuildingBlock: TEMPAE_clean_linker_10, # of connection points: 2
#     Edge 33, Type (0, 1), BuildingBlock: TEMPAE_clean_linker_10, # of connection points: 2
#     Edge 34, Type (0, 1), BuildingBlock: TEMPAE_clean_linker_10, # of connection points: 2
#     Edge 35, Type (0, 1), BuildingBlock: TEMPAE_clean_linker_10, # of connection points: 2
# Relax obj value: 0.091
# Max RMSD: 0.189
# Mean RMSD: 0.127
data_MOF--net-ant--node1-MIDCAF_clean_sbu_0--node2-BETDIP_clean_linker_0--edge1-TEMPAE_clean_linker_10
_symmetry_space_group_name_H-M    P1
_symmetry_Int_Tables_number       1
_symmetry_cell_setting            triclinic
loop_
_symmetry_equiv_pos_as_xyz
'x, y, z'
_cell_length_a     29.285329
_cell_length_b     29.140997
_cell_length_c     71.187309
_cell_angle_alpha  94.707416
_cell_angle_beta   93.685003
_cell_angle_gamma 90.000407
loop_
_atom_site_label
_atom_site_type_symbol
_atom_site_fract_x
_atom_site_fract_y
_atom_site_fract_z
_atom_type_partial_charge
H0 H 0.1972 0.26239 0.09836 0.0
H1 H 0.1541 0.14779 0.0595 0.0
H2 H 0.14846 0.28545 0.04171 0.0
H3 H 0.12667 0.13137 0.09177 0.0
C4 C 0.16268 0.13143 0.09659 0.0
C5 C 0.18349 0.24934 0.08445 0.0
C6 C 0.17211 0.27993 0.07058 0.0
C7 C 0.17683 0.20178 0.08049 0.0
C8 C 0.15917 0.18453 0.06244 0.0
C9 C 0.149 0.21422 0.04818 0.0
C10 C 0.15576 0.26191 0.05249 0.0
N11 N 0.18932 0.1712 0.0945 0.0
H12 H 0.03755 0.83023 0.34824 0.0
H13 H 0.12045 0.8069 0.30107 0.0
H14 H 0.97423 0.7897 0.29312 0.0
H15 H 0.14323 0.75144 0.33321 0.0
C16 C 0.15507 0.78573 0.33856 0.0
C17 C 0.03998 0.8214 0.33326 0.0
C18 C 1.00022 0.81197 0.32135 0.0
C19 C 0.08321 0.818 0.32591 0.0
C20 C 0.08674 0.80746 0.30649 0.0
C21 C 0.04754 0.798 0.2943 0.0
C22 C 0.00456 0.79956 0.30204 0.0
N23 N 0.1235 0.82269 0.33811 0.0
H24 H 0.70062 0.7742 0.59598 0.0
H25 H 0.68117 0.65648 0.55586 0.0
H26 H 0.65693 0.79221 0.53808 0.0
H27 H 0.64098 0.64595 0.5898 0.0
C28 C 0.67705 0.64467 0.59447 0.0
C29 C 0.69198 0.76018 0.58162 0.0
C30 C 0.67752 0.78941 0.56759 0.0
C31 C 0.69288 0.71234 0.57742 0.0
C32 C 0.68046 0.69348 0.55902 0.0
C33 C 0.66709 0.72205 0.54478 0.0
C34 C 0.66601 0.7699 0.54918 0.0
N35 N 0.70523 0.68289 0.5918 0.0
H36 H 0.53355 0.33082 0.84541 0.0
H37 H 0.62189 0.29669 0.80063 0.0
H38 H 0.47624 0.29414 0.7887 0.0
H39 H 0.64208 0.24898 0.83476 0.0
C40 C 0.65297 0.28416 0.83912 0.0
C41 C 0.53761 0.32075 0.83062 0.0
C42 C 0.4989 0.31291 0.81789 0.0
C43 C 0.58181 0.31416 0.82445 0.0
C44 C 0.5876 0.30108 0.80537 0.0
C45 C 0.54964 0.29504 0.79234 0.0
C46 C 0.50546 0.30081 0.79868 0.0
N47 N 0.62062 0.32012 0.83742 0.0
H48 H 0.03942 0.71852 0.89404 0.0
H49 H 0.07162 0.76299 0.95255 0.0
H50 H 0.0708 0.61878 0.93382 0.0
H51 H 0.03942 0.8286 0.94458 0.0
C52 C 0.05055 0.83242 0.93054 0.0
C53 C 0.04857 0.71058 0.90841 0.0
C54 C 0.05307 0.66463 0.91262 0.0
C55 C 0.05623 0.74644 0.9227 0.0
C56 C 0.0669 0.73556 0.94147 0.0
C57 C 0.07162 0.68933 0.94591 0.0
C58 C 0.06586 0.65452 0.93111 0.0
N59 N 0.05464 0.7928 0.91764 0.0
H60 H 0.62448 0.82253 0.14997 0.0
H61 H 0.71186 0.81672 0.20034 0.0
H62 H 0.56634 0.82893 0.20417 0.0
H63 H 0.75019 0.87253 0.18265 0.0
C64 C 0.75274 0.84601 0.17108 0.0
C65 C 0.62861 0.82303 0.16522 0.0
C66 C 0.58996 0.8255 0.17605 0.0
C67 C 0.67271 0.82255 0.17414 0.0
C68 C 0.67791 0.82114 0.19381 0.0
C69 C 0.64006 0.8235 0.20494 0.0
C70 C 0.59612 0.82677 0.19588 0.0
N71 N 0.71205 0.8229 0.16343 0.0
H72 H 0.52257 0.19802 0.3864 0.0
H73 H 0.56025 0.254 0.44309 0.0
H74 H 0.55554 0.10728 0.42972 0.0
H75 H 0.51747 0.31461 0.43274 0.0
C76 C 0.53211 0.31698 0.4192 0.0
C77 C 0.53269 0.19303 0.40101 0.0
C78 C 0.53703 0.14844 0.40685 0.0
C79 C 0.54156 0.2313 0.414 0.0
C80 C 0.55411 0.22447 0.43304 0.0
C81 C 0.55903 0.17971 0.43907 0.0
C82 C 0.55106 0.14209 0.42565 0.0
N83 N 0.53947 0.27614 0.40745 0.0
H84 H 0.12726 0.3054 0.64703 0.0
H85 H 0.21112 0.29608 0.69794 0.0
H86 H 0.06617 0.31388 0.70073 0.0
H87 H 0.25125 0.35243 0.68255 0.0
C88 C 0.2542 0.32821 0.67022 0.0
C89 C 0.13014 0.30609 0.66229 0.0
C90 C 0.09068 0.30761 0.6727 0.0
C91 C 0.17371 0.30506 0.67163 0.0
C92 C 0.17768 0.30188 0.69122 0.0
C93 C 0.13934 0.30496 0.702 0.0
C94 C 0.09605 0.30948 0.69259 0.0
N95 N 0.21381 0.30668 0.66145 0.0
Zn96 Zn 0.19847 0.67126 0.14666 0.0
Zn97 Zn 0.12652 0.774 0.10128 0.0
Zn98 Zn 0.16365 0.72357 0.12236 0.0
C99 C 0.11943 0.69071 0.08122 0.0
C100 C 0.20819 0.81425 0.10699 0.0
O101 O 0.12276 0.72577 0.14763 0.0
O102 O 0.153 0.6746 0.16602 0.0
C103 C 0.18798 0.61519 0.11351 0.0
O104 O 0.14759 0.68073 0.09496 0.0
O105 O 0.10171 0.73005 0.08148 0.0
O106 O 0.17592 0.81304 0.0944 0.0
O107 O 0.20928 0.78436 0.11943 0.0
O108 O 0.20332 0.61431 0.13043 0.0
O109 O 0.17068 0.65265 0.10764 0.0
O110 O 0.233 0.75316 0.13101 0.0
O111 O 0.25591 0.70641 0.15255 0.0
C112 C 0.26366 0.74051 0.14335 0.0
O113 O 0.09665 0.74821 0.13344 0.0
O114 O 0.07835 0.80427 0.11549 0.0
C115 C 0.12342 0.70496 0.16295 0.0
C116 C 0.06911 0.78068 0.12882 0.0
Zn117 Zn 0.5527 0.69057 0.3416 0.0
Zn118 Zn 0.6373 0.8191 0.4061 0.0
Zn119 Zn 0.58858 0.73854 0.37209 0.0
C120 C 0.54507 0.83754 0.39009 0.0
C121 C 0.68824 0.79783 0.37271 0.0
O122 O 0.58001 0.66494 0.3787 0.0
O123 O 0.54844 0.63015 0.3522 0.0
C124 C 0.48951 0.75911 0.35274 0.0
O125 O 0.54443 0.79868 0.37986 0.0
O126 O 0.57946 0.85101 0.40084 0.0
O127 O 0.68483 0.82333 0.38788 0.0
O128 O 0.65687 0.76798 0.36643 0.0
O129 O 0.49584 0.72835 0.3396 0.0
O130 O 0.52049 0.7675 0.36625 0.0
O131 O 0.63225 0.74775 0.349 0.0
O132 O 0.60242 0.70221 0.32496 0.0
C133 C 0.63245 0.73112 0.33172 0.0
O134 O 0.59935 0.69093 0.39424 0.0
O135 O 0.62587 0.75495 0.40765 0.0
C136 C 0.56341 0.62839 0.36916 0.0
C137 C 0.61851 0.71316 0.40875 0.0
Zn138 Zn 0.61988 0.28876 0.60009 0.0
Zn139 Zn 0.70844 0.18292 0.63779 0.0
Zn140 Zn 0.66406 0.232 0.6178 0.0
C141 C 0.77252 0.23666 0.62549 0.0
C142 C 0.66621 0.12433 0.61026 0.0
O143 O 0.60093 0.2518 0.63263 0.0
O144 O 0.57171 0.30812 0.61679 0.0
C145 C 0.70293 0.32914 0.60532 0.0
O146 O 0.73524 0.25932 0.62264 0.0
O147 O 0.7705 0.19558 0.62975 0.0
O148 O 0.67855 0.1246 0.62758 0.0
O149 O 0.66369 0.16253 0.60232 0.0
O150 O 0.66573 0.33456 0.5959 0.0
O151 O 0.70869 0.29355 0.61485 0.0
O152 O 0.6432 0.19413 0.58987 0.0
O153 O 0.59957 0.24802 0.57819 0.0
C154 C 0.61599 0.20804 0.57656 0.0
O155 O 0.63177 0.23063 0.64517 0.0
O156 O 0.69169 0.21034 0.66294 0.0
C157 C 0.56963 0.28227 0.63005 0.0
C158 C 0.65134 0.22538 0.66158 0.0
Zn159 Zn 0.04965 0.19226 0.84704 0.0
Zn160 Zn 0.13086 0.3067 0.89855 0.0
Zn161 Zn 0.08829 0.25008 0.8741 0.0
C162 C 0.12439 0.22495 0.91563 0.0
C163 C 0.04881 0.34853 0.89033 0.0
O164 O 0.12708 0.24785 0.84853 0.0
O165 O 0.09516 0.19481 0.82776 0.0
C166 C 0.06365 0.14246 0.8787 0.0
O167 O 0.10193 0.21238 0.89988 0.0
O168 O 0.1416 0.26478 0.91834 0.0
O169 O 0.08336 0.35364 0.90183 0.0
O170 O 0.04448 0.31197 0.87887 0.0
O171 O 0.04705 0.13805 0.86183 0.0
O172 O 0.08093 0.18141 0.88573 0.0
O173 O 0.01948 0.278 0.86732 0.0
O174 O 0.99279 0.22904 0.84377 0.0
C175 C 0.98746 0.26459 0.85481 0.0
O176 O 0.15468 0.27144 0.86331 0.0
O177 O 0.18455 0.32299 0.8851 0.0
C178 C 0.1252 0.22554 0.8321 0.0
C179 C 0.1871 0.29992 0.86943 0.0
C180 C 0.16026 0.35182 0.09164 0.0
C181 C 0.17603 0.33081 0.07486 0.0
C182 C 0.16143 0.39993 0.0954 0.0
C183 C 0.17886 0.42785 0.08208 0.0
C184 C 0.19466 0.4069 0.06508 0.0
C185 C 0.19323 0.3587 0.06172 0.0
C186 C 0.14439 0.42088 0.11375 0.0
C187 C 0.21374 0.43536 0.05059 0.0
C188 C 0.15085 0.55561 0.08991 0.0
C189 C 0.18908 0.57152 0.10143 0.0
C190 C 0.14789 0.50921 0.08252 0.0
C191 C 0.18404 0.47851 0.08679 0.0
C192 C 0.22412 0.49563 0.09716 0.0
C193 C 0.22606 0.54181 0.10435 0.0
C194 C 0.10478 0.49243 0.07133 0.0
C195 C 0.26374 0.46447 0.10188 0.0
H196 H 0.14627 0.33065 0.10173 0.0
H197 H 0.20598 0.34277 0.0488 0.0
H198 H 0.17286 0.43915 0.12231 0.0
H199 H 0.11752 0.44669 0.11088 0.0
H200 H 0.1301 0.39464 0.12225 0.0
H201 H 0.22179 0.41411 0.03755 0.0
H202 H 0.18896 0.46235 0.04672 0.0
H203 H 0.24547 0.45318 0.05665 0.0
H204 H 0.12201 0.57835 0.08781 0.0
H205 H 0.25579 0.55418 0.1132 0.0
H206 H 0.08436 0.47176 0.08022 0.0
H207 H 0.11306 0.46977 0.05873 0.0
H208 H 0.08338 0.5214 0.06668 0.0
H209 H 0.25322 0.43987 0.11192 0.0
H210 H 0.2941 0.48404 0.10839 0.0
H211 H 0.27384 0.44396 0.089 0.0
C212 C 0.94627 0.79405 0.34586 0.0
C213 C 0.95394 0.81308 0.32886 0.0
C214 C 0.90201 0.79196 0.35226 0.0
C215 C 0.86455 0.80903 0.34135 0.0
C216 C 0.87212 0.82881 0.32433 0.0
C217 C 0.91673 0.83093 0.31838 0.0
C218 C 0.89523 0.77105 0.37062 0.0
C219 C 0.83304 0.84743 0.31233 0.0
C220 C 0.7465 0.76563 0.35087 0.0
C221 C 0.7308 0.80206 0.36281 0.0
C222 C 0.78934 0.76809 0.34317 0.0
C223 C 0.81759 0.8073 0.34803 0.0
C224 C 0.80157 0.84447 0.3598 0.0
C225 C 0.75829 0.84155 0.36689 0.0
C226 C 0.80495 0.72815 0.33033 0.0
C227 C 0.83075 0.88674 0.36543 0.0
H228 H 0.97469 0.77972 0.35392 0.0
H229 H 0.92248 0.84641 0.30539 0.0
H230 H 0.87871 0.79633 0.38051 0.0
H231 H 0.87205 0.74078 0.368 0.0
H232 H 0.92798 0.75995 0.37756 0.0
H233 H 0.84463 0.86102 0.2993 0.0
H234 H 0.80723 0.81994 0.30823 0.0
H235 H 0.81564 0.87547 0.32056 0.0
H236 H 0.72617 0.7345 0.34807 0.0
H237 H 0.74646 0.86995 0.37611 0.0
H238 H 0.83492 0.71153 0.33725 0.0
H239 H 0.816 0.74056 0.31701 0.0
H240 H 0.7776 0.70185 0.32681 0.0
H241 H 0.86219 0.87695 0.37367 0.0
H242 H 0.81248 0.91339 0.37411 0.0
H243 H 0.8417 0.9021 0.35269 0.0
C244 C 0.74289 0.59382 0.60407 0.0
C245 C 0.69585 0.60051 0.60026 0.0
C246 C 0.76 0.55 0.60771 0.0
C247 C 0.72932 0.51226 0.60721 0.0
C248 C 0.68164 0.51957 0.60407 0.0
C249 C 0.66563 0.56357 0.60072 0.0
C250 C 0.81088 0.54397 0.61127 0.0
C251 C 0.6474 0.48052 0.60344 0.0
C252 C 0.74495 0.3887 0.59105 0.0
C253 C 0.73469 0.36845 0.60744 0.0
C254 C 0.75072 0.43648 0.59127 0.0
C255 C 0.7459 0.46418 0.60831 0.0
C256 C 0.744 0.44291 0.62544 0.0
C257 C 0.73834 0.39489 0.62481 0.0
C258 C 0.75413 0.45748 0.57272 0.0
C259 C 0.7407 0.47108 0.64403 0.0
H260 H 0.76643 0.6224 0.60376 0.0
H261 H 0.62926 0.56881 0.59783 0.0
H262 H 0.81864 0.51828 0.62169 0.0
H263 H 0.82579 0.53138 0.59788 0.0
H264 H 0.82798 0.57705 0.61646 0.0
H265 H 0.61151 0.49241 0.60136 0.0
H266 H 0.65414 0.45445 0.5917 0.0
H267 H 0.6508 0.46323 0.61676 0.0
H268 H 0.74226 0.36807 0.57762 0.0
H269 H 0.7303 0.37925 0.63751 0.0
H270 H 0.77743 0.48771 0.57439 0.0
H271 H 0.71977 0.46941 0.56776 0.0
H272 H 0.76656 0.43219 0.56169 0.0
H273 H 0.76212 0.50265 0.6447 0.0
H274 H 0.7514 0.45083 0.65611 0.0
H275 H 0.70467 0.48183 0.64554 0.0
C276 C 0.72923 0.25524 0.84939 0.0
C277 C 0.7017 0.2928 0.84528 0.0
C278 C 0.77662 0.26034 0.85306 0.0
C279 C 0.79723 0.30409 0.85231 0.0
C280 C 0.7693 0.34273 0.84905 0.0
C281 C 0.72166 0.33665 0.84561 0.0
C282 C 0.80489 0.21823 0.8567 0.0
C283 C 0.7899 0.38986 0.84808 0.0
C284 C 0.92196 0.30351 0.87045 0.0
C285 C 0.94246 0.2875 0.85391 0.0
C286 C 0.87481 0.31325 0.87004 0.0
C287 C 0.84811 0.30728 0.85266 0.0
C288 C 0.86996 0.29615 0.83572 0.0
C289 C 0.91677 0.28605 0.83658 0.0
C290 C 0.85302 0.32558 0.88839 0.0
C291 C 0.84321 0.29044 0.81681 0.0
H292 H 0.71376 0.22138 0.84922 0.0
H293 H 0.70047 0.36582 0.84237 0.0
H294 H 0.82642 0.20958 0.84464 0.0
H295 H 0.82821 0.22514 0.86953 0.0
H296 H 0.78332 0.18778 0.85857 0.0
H297 H 0.76365 0.41734 0.84893 0.0
H298 H 0.81679 0.3973 0.85964 0.0
H299 H 0.80636 0.39105 0.83452 0.0
H300 H 0.94178 0.30474 0.88388 0.0
H301 H 0.93277 0.27433 0.82374 0.0
H302 H 0.83628 0.29451 0.89291 0.0
H303 H 0.82625 0.35212 0.88667 0.0
H304 H 0.87872 0.33844 0.89977 0.0
H305 H 0.8228 0.25815 0.81586 0.0
H306 H 0.86594 0.28868 0.80487 0.0
H307 H 0.819 0.31934 0.81523 0.0
C308 C 0.07732 0.59337 0.89484 0.0
C309 C 0.04283 0.62545 0.89847 0.0
C310 C 0.06646 0.54781 0.88828 0.0
C311 C 0.01986 0.53427 0.8852 0.0
C312 C 0.98529 0.56819 0.88629 0.0
C313 C 0.99719 0.61359 0.89311 0.0
C314 C 0.10472 0.51312 0.8871 0.0
C315 C 0.93545 0.55573 0.88234 0.0
C316 C 0.01536 0.40695 0.87013 0.0
C317 C 0.02024 0.38947 0.88792 0.0
C318 C 0.00941 0.45448 0.86862 0.0
C319 C 0.00826 0.48449 0.88528 0.0
C320 C 0.00602 0.46572 0.90295 0.0
C321 C 0.01199 0.41832 0.90403 0.0
C322 C 0.01002 0.47281 0.84944 0.0
C323 C 0.00384 0.49615 0.92111 0.0
H324 H 0.11258 0.60276 0.89903 0.0
H325 H 0.97046 0.63846 0.89598 0.0
H326 H 0.10398 0.4911 0.89908 0.0
H327 H 0.10033 0.49036 0.87384 0.0
H328 H 0.13888 0.52996 0.88769 0.0
H329 H 0.91527 0.58582 0.878 0.0
H330 H 0.93072 0.52701 0.87114 0.0
H331 H 0.92151 0.54454 0.89537 0.0
H332 H 0.02171 0.38465 0.85762 0.0
H333 H 0.01546 0.40461 0.91776 0.0
H334 H 0.04569 0.48177 0.84672 0.0
H335 H 0.98901 0.50436 0.84865 0.0
H336 H 0.99726 0.44657 0.83811 0.0
H337 H 0.03696 0.51457 0.92436 0.0
H338 H 0.99695 0.47608 0.93325 0.0
H339 H 0.97676 0.52244 0.9197 0.0
C340 C 0.83685 0.84966 0.17711 0.0
C341 C 0.79897 0.83147 0.16593 0.0
C342 C 0.88155 0.83785 0.17278 0.0
C343 C 0.88861 0.80769 0.15664 0.0
C344 C 0.85039 0.78815 0.14555 0.0
C345 C 0.80584 0.80012 0.15039 0.0
C346 C 0.9212 0.85913 0.18509 0.0
C347 C 0.85661 0.75607 0.12816 0.0
C348 C 0.99803 0.82654 0.13267 0.0
C349 C 0.02482 0.78882 0.13757 0.0
C350 C 0.95361 0.8325 0.13858 0.0
C351 C 0.93573 0.80086 0.15027 0.0
C352 C 0.96301 0.7636 0.1559 0.0
C353 C 0.00682 0.75736 0.14907 0.0
C354 C 0.92547 0.87231 0.13199 0.0
C355 C 0.94572 0.73009 0.16892 0.0
H356 H 0.8315 0.87358 0.18925 0.0
H357 H 0.77657 0.78579 0.14179 0.0
H358 H 0.94777 0.833 0.18787 0.0
H359 H 0.93724 0.88634 0.17765 0.0
H360 H 0.91023 0.87488 0.1988 0.0
H361 H 0.82363 0.74126 0.12184 0.0
H362 H 0.87283 0.77503 0.11742 0.0
H363 H 0.87982 0.72748 0.13166 0.0
H364 H 0.01128 0.85098 0.12367 0.0
H365 H 0.02622 0.72715 0.15228 0.0
H366 H 0.91583 0.89518 0.14432 0.0
H367 H 0.89329 0.85924 0.12431 0.0
H368 H 0.94405 0.89315 0.12251 0.0
H369 H 0.93416 0.74896 0.18193 0.0
H370 H 0.97229 0.70493 0.17302 0.0
H371 H 0.91574 0.71093 0.16191 0.0
C372 C 0.52032 0.4017 0.42199 0.0
C373 C 0.53971 0.36307 0.41262 0.0
C374 C 0.52595 0.44585 0.41591 0.0
C375 C 0.55248 0.45155 0.40031 0.0
C376 C 0.5734 0.41275 0.39117 0.0
C377 C 0.56638 0.36883 0.39731 0.0
C378 C 0.50233 0.48616 0.4258 0.0
C379 C 0.60262 0.41756 0.37471 0.0
C380 C 0.52637 0.55213 0.37086 0.0
C381 C 0.56053 0.58404 0.37776 0.0
C382 C 0.52323 0.5092 0.37822 0.0
C383 C 0.55544 0.49748 0.39271 0.0
C384 C 0.59003 0.52956 0.39979 0.0
C385 C 0.59212 0.57258 0.39222 0.0
C386 C 0.48532 0.4764 0.37049 0.0
C387 C 0.62534 0.51811 0.41506 0.0
H388 H 0.49984 0.39722 0.43388 0.0
H389 H 0.58197 0.33908 0.39018 0.0
H390 H 0.52749 0.51372 0.43066 0.0
H391 H 0.47693 0.50093 0.41576 0.0
H392 H 0.48441 0.47623 0.43815 0.0
H393 H 0.61942 0.38471 0.37013 0.0
H394 H 0.58122 0.42902 0.36255 0.0
H395 H 0.62941 0.44423 0.37854 0.0
H396 H 0.50172 0.56089 0.35971 0.0
H397 H 0.61913 0.59675 0.3973 0.0
H398 H 0.46467 0.4668 0.38212 0.0
H399 H 0.50009 0.44424 0.36406 0.0
H400 H 0.46219 0.49139 0.35964 0.0
H401 H 0.60841 0.50717 0.42746 0.0
H402 H 0.64829 0.54777 0.41978 0.0
H403 H 0.64645 0.48883 0.40972 0.0
C404 C 0.03281 0.32603 0.64639 0.0
C405 C 0.04373 0.30474 0.66311 0.0
C406 C 0.98865 0.32196 0.63728 0.0
C407 C 0.95458 0.29651 0.64521 0.0
C408 C 0.96522 0.27566 0.66221 0.0
C409 C 0.0096 0.27946 0.67074 0.0
C410 C 0.97865 0.34408 0.61904 0.0
C411 C 0.92996 0.24826 0.67124 0.0
C412 C 0.82621 0.30189 0.63536 0.0
C413 C 0.81794 0.25853 0.62577 0.0
C414 C 0.87124 0.31718 0.64036 0.0
C415 C 0.90845 0.28848 0.63541 0.0
C416 C 0.90001 0.24701 0.6239 0.0
C417 C 0.8548 0.23231 0.6194 0.0
C418 C 0.87858 0.36159 0.65264 0.0
C419 C 0.93853 0.21576 0.61794 0.0
H420 H 0.05868 0.34593 0.64041 0.0
H421 H 0.01771 0.26167 0.6833 0.0
H422 H 0.97038 0.31707 0.60741 0.0
H423 H 0.94828 0.36666 0.62012 0.0
H424 H 0.00802 0.36478 0.61523 0.0
H425 H 0.94287 0.23698 0.68514 0.0
H426 H 0.89872 0.26913 0.67332 0.0
H427 H 0.91984 0.21723 0.66181 0.0
H428 H 0.79769 0.32194 0.64045 0.0
H429 H 0.84828 0.19887 0.61183 0.0
H430 H 0.90877 0.38062 0.64862 0.0
H431 H 0.88515 0.35363 0.66755 0.0
H432 H 0.84811 0.38423 0.65177 0.0
H433 H 0.96716 0.23593 0.61321 0.0
H434 H 0.927 0.18964 0.60636 0.0
H435 H 0.95196 0.19743 0.63018 0.0
C436 C 0.31076 0.29461 0.64806 0.0
C437 C 0.30031 0.31163 0.66621 0.0
C438 C 0.35619 0.28415 0.64413 0.0
C439 C 0.39132 0.28985 0.65884 0.0
C440 C 0.38004 0.30363 0.67746 0.0
C441 C 0.33472 0.31514 0.68085 0.0
C442 C 0.36699 0.27004 0.62402 0.0
C443 C 0.41614 0.30878 0.69362 0.0
C444 C 0.50863 0.2451 0.64664 0.0
C445 C 0.5287 0.28504 0.64108 0.0
C446 C 0.46451 0.24628 0.65337 0.0
C447 C 0.44005 0.28825 0.65422 0.0
C448 C 0.46133 0.32907 0.64958 0.0
C449 C 0.50545 0.32694 0.64314 0.0
C450 C 0.44322 0.20235 0.65863 0.0
C451 C 0.43653 0.3746 0.65034 0.0
H452 H 0.28395 0.29182 0.63679 0.0
H453 H 0.32626 0.32767 0.69497 0.0
H454 H 0.38659 0.29799 0.61846 0.0
H455 H 0.38873 0.23886 0.62344 0.0
H456 H 0.33559 0.26296 0.61463 0.0
H457 H 0.40091 0.3117 0.70757 0.0
H458 H 0.43976 0.27902 0.69306 0.0
H459 H 0.4368 0.34021 0.69248 0.0
H460 H 0.52613 0.21249 0.6446 0.0
H461 H 0.52101 0.35786 0.63884 0.0
H462 H 0.41383 0.19235 0.64852 0.0
H463 H 0.4298 0.20768 0.67286 0.0
H464 H 0.46799 0.17346 0.65855 0.0
H465 H 0.40606 0.37221 0.64019 0.0
H466 H 0.45856 0.40335 0.64686 0.0
H467 H 0.42424 0.38306 0.66462 0.0
C468 C 0.52964 0.78823 0.15327 0.0
C469 C 0.54276 0.82394 0.16695 0.0
C470 C 0.48337 0.78101 0.14719 0.0
C471 C 0.44954 0.81061 0.15479 0.0
C472 C 0.46314 0.84901 0.1674 0.0
C473 C 0.50953 0.85496 0.17347 0.0
C474 C 0.47041 0.73942 0.13386 0.0
C475 C 0.42837 0.88196 0.17552 0.0
C476 C 0.32653 0.79215 0.13405 0.0
C477 C 0.30918 0.76339 0.1468 0.0
C478 C 0.37165 0.80952 0.13676 0.0
C479 C 0.40032 0.79672 0.15228 0.0
C480 C 0.3825 0.76863 0.16539 0.0
C481 C 0.33726 0.75284 0.16259 0.0
C482 C 0.38896 0.84026 0.1227 0.0
C483 C 0.41167 0.75379 0.18211 0.0
H484 H 0.55519 0.76407 0.14827 0.0
H485 H 0.51966 0.88296 0.18388 0.0
H486 H 0.45317 0.71363 0.14165 0.0
H487 H 0.44591 0.74907 0.12233 0.0
H488 H 0.50069 0.72301 0.12753 0.0
H489 H 0.44466 0.91398 0.18242 0.0
H490 H 0.40271 0.89124 0.16433 0.0
H491 H 0.40979 0.86515 0.18622 0.0
H492 H 0.30558 0.79983 0.12166 0.0
H493 H 0.32427 0.73095 0.17266 0.0
H494 H 0.41259 0.82056 0.11354 0.0
H495 H 0.40845 0.86988 0.13004 0.0
H496 H 0.36059 0.85356 0.11356 0.0
H497 H 0.44152 0.73395 0.1771 0.0
H498 H 0.39246 0.73206 0.19104 0.0
H499 H 0.42513 0.7844 0.19104 0.0
C500 C 0.44263 0.29611 0.84164 0.0
C501 C 0.45174 0.31466 0.82468 0.0
C502 C 0.39797 0.29485 0.84767 0.0
C503 C 0.36132 0.31226 0.83643 0.0
C504 C 0.37019 0.33133 0.81937 0.0
C505 C 0.41528 0.33254 0.81376 0.0
C506 C 0.38996 0.27443 0.86602 0.0
C507 C 0.332 0.35023 0.80701 0.0
C508 C 0.24345 0.26913 0.84645 0.0
C509 C 0.22859 0.30499 0.85889 0.0
C510 C 0.28559 0.27201 0.8382 0.0
C511 C 0.31394 0.31126 0.84286 0.0
C512 C 0.29835 0.34822 0.85489 0.0
C513 C 0.25587 0.34468 0.8627 0.0
C514 C 0.30068 0.23213 0.82521 0.0
C515 C 0.32742 0.39068 0.86023 0.0
H516 H 0.4703 0.28148 0.85003 0.0
H517 H 0.422 0.34751 0.80076 0.0
H518 H 0.37362 0.30024 0.87575 0.0
H519 H 0.36617 0.24464 0.86333 0.0
H520 H 0.42217 0.26272 0.8732 0.0
H521 H 0.34448 0.36331 0.79403 0.0
H522 H 0.30594 0.32304 0.80282 0.0
H523 H 0.31462 0.37868 0.81501 0.0
H524 H 0.22326 0.23788 0.84385 0.0
H525 H 0.24456 0.37265 0.87226 0.0
H526 H 0.32958 0.21424 0.8323 0.0
H527 H 0.31307 0.24462 0.81213 0.0
H528 H 0.27262 0.20682 0.82125 0.0
H529 H 0.35845 0.38135 0.86885 0.0
H530 H 0.30881 0.41787 0.86848 0.0
H531 H 0.33905 0.4051 0.8474 0.0
C532 C 0.22458 0.83594 0.34771 0.0
C533 C 0.20421 0.79218 0.34447 0.0
C534 C 0.27233 0.84069 0.35127 0.0
C535 C 0.29994 0.80077 0.35157 0.0
C536 C 0.27901 0.75667 0.34917 0.0
C537 C 0.23153 0.753 0.34559 0.0
C538 C 0.29333 0.88825 0.35379 0.0
C539 C 0.30697 0.71311 0.34952 0.0
C540 C 0.42002 0.78852 0.33593 0.0
C541 C 0.44462 0.78212 0.35302 0.0
C542 C 0.37349 0.79982 0.33546 0.0
C543 C 0.35084 0.80389 0.3525 0.0
C544 C 0.37661 0.80194 0.36997 0.0
C545 C 0.42347 0.79128 0.37003 0.0
C546 C 0.34773 0.80285 0.31655 0.0
C547 C 0.35398 0.80655 0.38847 0.0
H548 H 0.20355 0.86638 0.34683 0.0
H549 H 0.21577 0.71917 0.34315 0.0
H550 H 0.32011 0.89078 0.36558 0.0
H551 H 0.31004 0.89532 0.34077 0.0
H552 H 0.26729 0.91527 0.35655 0.0
H553 H 0.2852 0.68171 0.3488 0.0
H554 H 0.32893 0.71026 0.33734 0.0
H555 H 0.32986 0.71413 0.36258 0.0
H556 H 0.4366 0.7822 0.32278 0.0
H557 H 0.4425 0.78649 0.38329 0.0
H558 H 0.32381 0.83236 0.31704 0.0
H559 H 0.32711 0.77102 0.31293 0.0
H560 H 0.37119 0.80665 0.3051 0.0
H561 H 0.3279 0.83415 0.38855 0.0
H562 H 0.37932 0.81407 0.40063 0.0
H563 H 0.33625 0.77377 0.39041 0.0
C564 C 0.70579 0.86466 0.58416 0.0
C565 C 0.67317 0.84006 0.57201 0.0
C566 C 0.70173 0.91239 0.58837 0.0
C567 C 0.66431 0.9362 0.58014 0.0
C568 C 0.63156 0.91173 0.56771 0.0
C569 C 0.63618 0.864 0.56392 0.0
C570 C 0.73718 0.93724 0.60184 0.0
C571 C 0.5911 0.9358 0.55874 0.0
C572 C 0.63397 0.0458 0.60874 0.0
C573 C 0.65695 0.07923 0.59981 0.0
C574 C 0.63399 0.99943 0.60184 0.0
C575 C 0.65792 0.98607 0.58566 0.0
C576 C 0.67869 0.02013 0.57583 0.0
C577 C 0.67798 0.06655 0.58307 0.0
C578 C 0.61103 0.96444 0.61268 0.0
C579 C 0.70418 0.00717 0.55843 0.0
H580 H 0.73472 0.84667 0.5903 0.0
H581 H 0.61025 0.84525 0.5548 0.0
H582 H 0.75257 0.96589 0.59502 0.0
H583 H 0.72071 0.95257 0.61448 0.0
H584 H 0.76497 0.91405 0.60656 0.0
H585 H 0.57053 0.91247 0.54833 0.0
H586 H 0.56861 0.94951 0.56982 0.0
H587 H 0.60285 0.96556 0.55151 0.0
H588 H 0.61784 0.05572 0.62175 0.0
H589 H 0.69671 0.0922 0.57645 0.0
H590 H 0.63744 0.94288 0.61952 0.0
H591 H 0.58871 0.94112 0.60299 0.0
H592 H 0.59007 0.98092 0.6238 0.0
H593 H 0.73536 0.98761 0.56238 0.0
H594 H 0.71458 0.03786 0.55143 0.0
H595 H 0.68272 0.98444 0.54815 0.0
C596 C 0.15462 0.04935 0.1022 0.0
C597 C 0.18316 0.08785 0.10234 0.0
C598 C 0.17242 0.00601 0.1056 0.0
C599 C 0.22022 1.00093 0.10942 0.0
C600 C 0.24912 0.04019 0.11048 0.0
C601 C 0.23026 0.0833 0.10678 0.0
C602 C 0.14005 0.96527 0.10431 0.0
C603 C 0.30003 0.03647 0.11478 0.0
C604 C 0.23567 0.88344 0.12696 0.0
C605 C 0.23544 0.8571 0.10958 0.0
C606 C 0.23732 0.93182 0.12768 0.0
C607 C 0.23902 0.95362 0.11066 0.0
C608 C 0.24713 0.92674 0.09373 0.0
C609 C 0.2454 0.87861 0.09342 0.0
C610 C 0.23044 0.95922 0.14617 0.0
C611 C 0.25016 0.94832 0.07528 0.0
H612 H 0.11821 0.05289 0.09883 0.0
H613 H 0.25252 0.11306 0.10695 0.0
H614 H 0.14897 0.93996 0.09262 0.0
H615 H 0.14326 0.94768 0.11756 0.0
H616 H 0.10376 0.97541 0.10174 0.0
H617 H 0.31576 0.07052 0.11947 0.0
H618 H 0.30782 0.01245 0.12586 0.0
H619 H 0.31633 0.02267 0.10187 0.0
H620 H 0.22828 0.86689 0.13954 0.0
H621 H 0.24575 0.85812 0.08 0.0
H622 H 0.19359 0.96743 0.14703 0.0
H623 H 0.24973 0.99221 0.14727 0.0
H624 H 0.24132 0.93947 0.15838 0.0
H625 H 0.21528 0.95774 0.0699 0.0
H626 H 0.26507 0.92427 0.06441 0.0
H627 H 0.27114 0.98021 0.07725 0.0
C628 C 0.48048 0.09507 0.3889 0.0
C629 C 0.5262 0.10716 0.39395 0.0
C630 C 0.4685 0.04933 0.3827 0.0
C631 C 0.50307 0.0154 0.38195 0.0
C632 C 0.54972 0.02897 0.38483 0.0
C633 C 0.56064 0.07482 0.39078 0.0
C634 C 0.41862 0.03683 0.37891 0.0
C635 C 0.58804 0.99426 0.38395 0.0
C636 C 0.49864 0.90178 0.40233 0.0
C637 C 0.51045 0.87288 0.38674 0.0
C638 C 0.48966 0.94841 0.40053 0.0
C639 C 0.49159 0.96585 0.38258 0.0
C640 C 0.49458 0.93481 0.36634 0.0
C641 C 0.50433 0.88828 0.36861 0.0
C642 C 0.48571 0.97996 0.41828 0.0
C643 C 0.49394 0.95153 0.34685 0.0
H644 H 0.45383 0.12027 0.39138 0.0
H645 H 0.59596 0.08454 0.39468 0.0
H646 H 0.41378 0.006 0.36874 0.0
H647 H 0.40403 0.02917 0.39232 0.0
H648 H 0.39904 0.06596 0.37331 0.0
H649 H 0.62227 0.01103 0.38479 0.0
H650 H 0.58675 0.97219 0.39591 0.0
H651 H 0.58422 0.97154 0.37068 0.0
H652 H 0.50296 0.88951 0.41631 0.0
H653 H 0.51321 0.86588 0.35648 0.0
H654 H 0.45759 0.00491 0.41635 0.0
H655 H 0.518 0.99988 0.42146 0.0
H656 H 0.47935 0.96056 0.43066 0.0
H657 H 0.4718 0.98221 0.3457 0.0
H658 H 0.48171 0.924 0.33596 0.0
H659 H 0.52917 0.96125 0.34379 0.0
C660 C 0.04322 0.91753 0.93644 0.0
C661 C 0.05651 0.87964 0.92465 0.0
C662 C 0.04669 0.96266 0.93104 0.0
C663 C 0.06465 0.97016 0.91354 0.0
C664 C 0.0798 0.93207 0.9019 0.0
C665 C 0.07524 0.88722 0.90753 0.0
C666 C 0.03011 1.00219 0.94384 0.0
C667 C 0.09968 0.9386 0.88325 0.0
C668 C 0.02494 0.07169 0.88679 0.0
C669 C 0.0625 0.10179 0.8898 0.0
C670 C 0.02469 0.02966 0.89502 0.0
C671 C 0.06322 0.01699 0.90645 0.0
C672 C 0.10065 0.04805 0.91016 0.0
C673 C 0.09991 0.09014 0.9017 0.0
C674 C 0.98365 0.99814 0.89096 0.0
C675 C 0.14234 0.03599 0.9223 0.0
H676 H 0.02911 0.91176 0.94977 0.0
H677 H 0.08617 0.85814 0.89846 0.0
H678 H 0.05891 0.02615 0.9483 0.0
H679 H 0.00356 0.02189 0.93614 0.0
H680 H 0.01559 0.99045 0.95668 0.0
H681 H 0.11352 0.90608 0.87665 0.0
H682 H 0.07286 0.9516 0.87333 0.0
H683 H 0.12751 0.96473 0.88523 0.0
H684 H 0.99589 0.0807 0.87761 0.0
H685 H 0.12934 0.11297 0.90376 0.0
H686 H 0.97079 0.98806 0.90436 0.0
H687 H 0.99371 0.96614 0.88274 0.0
H688 H 0.95528 0.01441 0.88281 0.0
H689 H 0.13226 0.02309 0.93567 0.0
H690 H 0.16572 0.06596 0.92574 0.0
H691 H 0.16131 0.00799 0.91473 0.0
C692 C 0.1052 0.2227 0.01716 0.0
C693 C 0.13365 0.19601 0.02852 0.0
C694 C 0.09931 0.2122 0.9976 0.0
C695 C 0.11993 0.17218 0.98926 0.0
C696 C 0.14266 0.14133 0.001 0.0
C697 C 0.1504 0.15415 0.02042 0.0
C698 C 0.07498 0.24663 0.98576 0.0
C699 C 0.16196 0.09639 0.99303 0.0
C700 C 0.09116 0.17065 0.93678 0.0
C701 C 0.12846 0.19587 0.93164 0.0
C702 C 0.09046 0.15618 0.95516 0.0
C703 C 0.12674 0.16947 0.96866 0.0
C704 C 0.16664 0.18994 0.96272 0.0
C705 C 0.16722 0.20202 0.94417 0.0
C706 C 0.04947 0.13004 0.96047 0.0
C707 C 0.20669 0.20421 0.97643 0.0
H708 H 0.08965 0.2536 0.02335 0.0
H709 H 0.1718 0.13241 0.02889 0.0
H710 H 0.09925 0.26092 0.97636 0.0
H711 H 0.04676 0.22965 0.97667 0.0
H712 H 0.06047 0.27573 0.99451 0.0
H713 H 0.15749 0.06915 0.00281 0.0
H714 H 0.14546 0.08477 0.97896 0.0
H715 H 0.19925 0.10033 0.99168 0.0
H716 H 0.06125 0.16535 0.92705 0.0
H717 H 0.19655 0.22055 0.93998 0.0
H718 H 0.02459 0.15436 0.96683 0.0
H719 H 0.05966 0.10527 0.97101 0.0
H720 H 0.03192 0.11109 0.94786 0.0
H721 H 0.1954 0.22975 0.9876 0.0
H722 H 0.23505 0.21972 0.9694 0.0
H723 H 0.22027 0.174 0.98341 0.0
C724 C 0.0898 0.76167 0.26723 0.0
C725 C 0.05138 0.78549 0.27366 0.0
C726 C 0.09461 0.75086 0.24792 0.0
C727 C 0.05916 0.76209 0.23462 0.0
C728 C 0.01955 0.78463 0.24093 0.0
C729 C 0.01662 0.79707 0.2603 0.0
C730 C 0.13793 0.72756 0.24176 0.0
C731 C 0.98034 0.79573 0.22724 0.0
C732 C 0.09988 0.76808 0.18553 0.0
C733 C 0.09595 0.72184 0.1786 0.0
C734 C 0.08523 0.78271 0.20342 0.0
C735 C 0.06455 0.75051 0.21415 0.0
C736 C 0.05575 0.70501 0.20614 0.0
C737 C 0.07281 0.6908 0.18864 0.0
C738 C 0.0965 0.83114 0.21157 0.0
C739 C 0.03135 0.67042 0.21663 0.0
H740 H 0.11631 0.7511 0.27726 0.0
H741 H 0.98708 0.81621 0.26488 0.0
H742 H 0.12984 0.69256 0.23507 0.0
H743 H 0.15355 0.74723 0.23108 0.0
H744 H 0.16363 0.72442 0.25376 0.0
H745 H 0.94985 0.80838 0.23458 0.0
H746 H 0.99114 0.8226 0.21829 0.0
H747 H 0.9704 0.7648 0.21771 0.0
H748 H 0.1182 0.79187 0.17775 0.0
H749 H 0.0696 0.65506 0.18313 0.0
H750 H 0.12514 0.83008 0.22252 0.0
H751 H 0.06695 0.84713 0.2185 0.0
H752 H 0.10688 0.85342 0.20062 0.0
H753 H 0.05527 0.65743 0.22767 0.0
H754 H 0.01855 0.64055 0.20703 0.0
H755 H 0.00207 0.68661 0.22375 0.0
C756 C 0.61761 0.72029 0.51483 0.0
C757 C 0.65498 0.70261 0.52516 0.0
C758 C 0.61023 0.70864 0.4954 0.0
C759 C 0.64074 0.67812 0.48611 0.0
C760 C 0.6757 0.6565 0.49681 0.0
C761 C 0.68266 0.66926 0.51624 0.0
C762 C 0.57254 0.73269 0.48458 0.0
C763 C 0.70827 0.62302 0.4875 0.0
C764 C 0.60686 0.65834 0.43363 0.0
C765 C 0.63118 0.69422 0.4269 0.0
C766 C 0.61282 0.64923 0.45277 0.0
C767 C 0.64233 0.67785 0.46529 0.0
C768 C 0.66937 0.7117 0.45809 0.0
C769 C 0.66406 0.71873 0.43897 0.0
C770 C 0.58526 0.61123 0.45978 0.0
C771 C 0.70087 0.74365 0.47081 0.0
H772 H 0.59535 0.74509 0.5218 0.0
H773 H 0.71149 0.65522 0.52417 0.0
H774 H 0.58783 0.75826 0.47606 0.0
H775 H 0.55269 0.70768 0.47469 0.0
H776 H 0.54864 0.75099 0.49409 0.0
H777 H 0.72495 0.60069 0.49782 0.0
H778 H 0.69031 0.60097 0.47586 0.0
H779 H 0.73547 0.64238 0.48134 0.0
H780 H 0.58128 0.63951 0.42438 0.0
H781 H 0.68357 0.74609 0.43373 0.0
H782 H 0.55458 0.62606 0.46629 0.0
H783 H 0.60551 0.59344 0.4707 0.0
H784 H 0.57363 0.58552 0.44805 0.0
H785 H 0.68039 0.76562 0.48056 0.0
H786 H 0.72117 0.76652 0.46273 0.0
H787 H 0.72493 0.72362 0.47955 0.0
C788 C 0.58512 0.24599 0.76683 0.0
C789 C 0.55649 0.28266 0.77211 0.0
C790 C 0.59492 0.23604 0.74791 0.0
C791 C 0.57627 0.26398 0.73397 0.0
C792 C 0.54599 0.30007 0.73914 0.0
C793 C 0.53624 0.30882 0.75818 0.0
C794 C 0.62661 0.19662 0.74294 0.0
C795 C 0.52598 0.33114 0.72482 0.0
C796 C 0.65098 0.26974 0.69272 0.0
C797 C 0.6286 0.2391 0.67899 0.0
C798 C 0.63296 0.27987 0.71034 0.0
C799 C 0.59209 0.2579 0.71446 0.0
C800 C 0.56867 0.22775 0.70042 0.0
C801 C 0.58722 0.2188 0.68274 0.0
C802 C 0.65862 0.31281 0.72478 0.0
C803 C 0.52525 0.20345 0.70437 0.0
H804 H 0.60031 0.22539 0.77759 0.0
H805 H 0.51427 0.33737 0.76228 0.0
H806 H 0.61113 0.17398 0.73092 0.0
H807 H 0.65919 0.21029 0.73846 0.0
H808 H 0.63454 0.17553 0.75504 0.0
H809 H 0.49662 0.35128 0.73017 0.0
H810 H 0.55273 0.35563 0.72148 0.0
H811 H 0.51452 0.31104 0.71145 0.0
H812 H 0.68312 0.28527 0.68973 0.0
H813 H 0.57069 0.19416 0.67226 0.0
H814 H 0.67229 0.29391 0.73681 0.0
H815 H 0.63518 0.33966 0.73046 0.0
H816 H 0.68763 0.32995 0.71879 0.0
H817 H 0.53233 0.1808 0.71599 0.0
H818 H 0.5105 0.18216 0.69179 0.0
H819 H 0.4994 0.22892 0.7091 0.0
C820 C 0.06684 0.63439 0.97155 0.0
C821 C 0.0817 0.67685 0.96583 0.0
C822 C 0.076 0.62205 0.99006 0.0
C823 C 0.09758 0.65414 0.00375 0.0
C824 C 0.11266 0.69701 -0.00177 0.0
C825 C 0.1058 0.70718 0.97931 0.0
C826 C 0.06095 0.57507 0.99485 0.0
C827 C 0.13436 0.73317 0.01248 0.0
C828 C 0.06684 0.66465 0.05437 0.0
C829 C 0.1101 0.66069 0.06372 0.0
C830 C 0.06119 0.65892 0.03467 0.0
C831 C 0.09928 0.6462 0.02419 0.0
C832 C 0.14076 0.63365 0.03382 0.0
C833 C 0.14612 0.64193 0.05363 0.0
C834 C 0.01614 0.67247 0.02516 0.0
C835 C 0.18069 0.61562 0.02314 0.0
H836 H 0.04704 0.6106 0.96177 0.0
H837 H 0.11897 0.73937 0.97526 0.0
H838 H 0.08075 0.5634 0.00738 0.0
H839 H 0.02418 0.57605 0.99773 0.0
H840 H 0.06471 0.54915 0.98271 0.0
H841 H 0.14254 0.76539 0.00604 0.0
H842 H 0.11093 0.7417 0.02391 0.0
H843 H 0.1664 0.71977 0.0191 0.0
H844 H 0.03875 0.67833 0.0623 0.0
H845 H 0.17949 0.63819 0.06085 0.0
H846 H 0.00311 0.64448 0.01474 0.0
H847 H 0.02119 0.70344 0.01741 0.0
H848 H 0.9896 0.6803 0.03541 0.0
H849 H 0.16874 0.59261 0.01058 0.0
H850 H 0.20489 0.59645 0.03225 0.0
H851 H 0.19951 0.64483 0.01814 0.0
C852 C 0.61444 0.79606 0.23517 0.0
C853 C 0.64674 0.81952 0.22575 0.0
C854 C 0.62193 0.78851 0.2543 0.0
C855 C 0.66361 0.80313 0.26422 0.0
C856 C 0.69616 0.82743 0.25502 0.0
C857 C 0.68686 0.83629 0.23604 0.0
C858 C 0.58568 0.76334 0.26372 0.0
C859 C 0.74133 0.84273 0.26501 0.0
C860 C 0.65188 0.80055 0.31643 0.0
C861 C 0.65896 0.75357 0.31822 0.0
C862 C 0.65796 0.81927 0.29922 0.0
C863 C 0.67313 0.79042 0.28389 0.0
C864 C 0.68771 0.74507 0.28685 0.0
C865 C 0.67936 0.72673 0.30391 0.0
C866 C 0.64156 0.86762 0.29677 0.0
C867 C 0.70659 0.71401 0.27123 0.0
H868 H 0.58377 0.78206 0.22749 0.0
H869 H 0.71162 0.85566 0.2292 0.0
H870 H 0.59846 0.72887 0.26699 0.0
H871 H 0.57786 0.78246 0.27725 0.0
H872 H 0.55341 0.75865 0.25467 0.0
H873 H 0.7638 0.85962 0.25561 0.0
H874 H 0.73548 0.86719 0.27738 0.0
H875 H 0.75961 0.81268 0.27044 0.0
H876 H 0.63592 0.82122 0.32755 0.0
H877 H 0.68515 0.69042 0.30543 0.0
H878 H 0.60565 0.86612 0.29071 0.0
H879 H 0.6623 0.88504 0.28696 0.0
H880 H 0.64239 0.88874 0.31052 0.0
H881 H 0.67792 0.69968 0.26157 0.0
H882 H 0.72593 0.68481 0.2769 0.0
H883 H 0.72943 0.73342 0.26284 0.0
C884 C 0.59987 0.20345 0.47067 0.0
C885 C 0.57166 0.17197 0.45929 0.0
C886 C 0.60877 0.19863 0.49001 0.0
C887 C 0.59078 0.16023 0.49813 0.0
C888 C 0.56525 0.12648 0.48652 0.0
C889 C 0.55494 0.13335 0.46743 0.0
C890 C 0.63539 0.23608 0.50194 0.0
C891 C 0.54699 0.08404 0.49438 0.0
C892 C 0.63885 0.15633 0.5488 0.0
C893 C 0.60513 0.181 0.55836 0.0
C894 C 0.6327 0.14461 0.52919 0.0
C895 C 0.59289 0.15964 0.51907 0.0
C896 C 0.55712 0.18054 0.52906 0.0
C897 C 0.56334 0.18989 0.54862 0.0
C898 C 0.67026 0.11949 0.51915 0.0
C899 C 0.51431 0.19787 0.51897 0.0
H900 H 0.61445 0.23253 0.46458 0.0
H901 H 0.53254 0.10885 0.4591 0.0
H902 H 0.61341 0.25246 0.5127 0.0
H903 H 0.6653 0.22122 0.50959 0.0
H904 H 0.64779 0.26323 0.4934 0.0
H905 H 0.53948 0.056 0.48306 0.0
H906 H 0.57168 0.07116 0.50519 0.0
H907 H 0.51474 0.0925 0.50121 0.0
H908 H 0.67132 0.14969 0.55622 0.0
H909 H 0.53693 0.20844 0.55607 0.0
H910 H 0.6916 0.14456 0.51267 0.0
H911 H 0.65576 0.09461 0.50766 0.0
H912 H 0.69279 0.10075 0.52905 0.0
H913 H 0.52346 0.22602 0.51027 0.0
H914 H 0.48884 0.21128 0.52893 0.0
H915 H 0.49791 0.17008 0.5093 0.0
C916 C 0.11034 0.27995 0.73208 0.0
C917 C 0.14471 0.30088 0.72284 0.0
C918 C 0.11605 0.27297 0.75132 0.0
C919 C 0.1581 0.28508 0.76147 0.0
C920 C 0.19289 0.30653 0.75243 0.0
C921 C 0.18533 0.31528 0.73338 0.0
C922 C 0.07731 0.25144 0.76063 0.0
C923 C 0.23873 0.3185 0.76261 0.0
C924 C 0.14575 0.28998 0.8139 0.0
C925 C 0.14956 0.24314 0.81677 0.0
C926 C 0.15253 0.30556 0.79618 0.0
C927 C 0.16525 0.27362 0.78138 0.0
C928 C 0.17588 0.22773 0.78519 0.0
C929 C 0.16666 0.21263 0.80276 0.0
C930 C 0.13992 0.35454 0.79276 0.0
C931 C 0.19229 0.19336 0.77011 0.0
H932 H 0.0792 0.26768 0.72425 0.0
H933 H 0.21179 0.33276 0.72671 0.0
H934 H 0.08696 0.21622 0.76417 0.0
H935 H 0.07041 0.27179 0.77401 0.0
H936 H 0.04521 0.24905 0.75139 0.0
H937 H 0.26075 0.33861 0.75411 0.0
H938 H 0.23434 0.33846 0.77631 0.0
H939 H 0.25685 0.2863 0.76579 0.0
H940 H 0.13231 0.31352 0.82478 0.0
H941 H 0.17002 0.17646 0.80512 0.0
H942 H 0.10452 0.35499 0.78619 0.0
H943 H 0.1628 0.36921 0.78296 0.0
H944 H 0.1411 0.37707 0.80615 0.0
H945 H 0.16273 0.18069 0.76056 0.0
H946 H 0.20881 0.16327 0.77632 0.0
H947 H 0.21699 0.20959 0.76145 0.0
loop_
_geom_bond_atom_site_label_1
_geom_bond_atom_site_label_2
_geom_bond_distance
_geom_bond_site_symmetry_2
_ccdc_geom_bond_type
H0 C5 0.930 . S
H1 C8 0.930 . S
H2 C10 0.930 . S
H3 C4 1.016 . S
C4 H3 1.016 . S
C4 N11 1.286 . S
C5 H0 0.930 . S
C5 C6 1.397 . S
C5 C7 1.361 . S
C6 C5 1.397 . S
C6 C10 1.390 . S
C7 C5 1.361 . S
C7 C8 1.393 . S
C7 N11 1.413 . S
C8 H1 0.930 . S
C8 C7 1.393 . S
C8 C9 1.399 . S
C9 C8 1.399 . S
C9 C10 1.381 . S
C10 H2 0.930 . S
C10 C6 1.390 . S
C10 C9 1.381 . S
N11 C4 1.286 . S
N11 C7 1.413 . S
H12 C17 0.930 . S
H13 C20 0.930 . S
H14 C22 0.930 . S
H15 C16 1.016 . S
C16 H15 1.016 . S
C16 N23 1.286 . S
C17 H12 0.930 . S
C17 C18 1.397 . S
C17 C19 1.361 . S
C18 C17 1.397 . S
C18 C22 1.390 . S
C19 C17 1.361 . S
C19 C20 1.393 . S
C19 N23 1.413 . S
C20 H13 0.930 . S
C20 C19 1.393 . S
C20 C21 1.399 . S
C21 C20 1.399 . S
C21 C22 1.381 . S
C22 H14 0.930 . S
C22 C18 1.390 . S
C22 C21 1.381 . S
N23 C16 1.286 . S
N23 C19 1.413 . S
H24 C29 0.930 . S
H25 C32 0.930 . S
H26 C34 0.930 . S
H27 C28 1.016 . S
C28 H27 1.016 . S
C28 N35 1.286 . S
C29 H24 0.930 . S
C29 C30 1.397 . S
C29 C31 1.361 . S
C30 C29 1.397 . S
C30 C34 1.390 . S
C31 C29 1.361 . S
C31 C32 1.393 . S
C31 N35 1.413 . S
C32 H25 0.930 . S
C32 C31 1.393 . S
C32 C33 1.399 . S
C33 C32 1.399 . S
C33 C34 1.381 . S
C34 H26 0.930 . S
C34 C30 1.390 . S
C34 C33 1.381 . S
N35 C28 1.286 . S
N35 C31 1.413 . S
H36 C41 0.930 . S
H37 C44 0.930 . S
H38 C46 0.930 . S
H39 C40 1.016 . S
C40 H39 1.016 . S
C40 N47 1.286 . S
C41 H36 0.930 . S
C41 C42 1.397 . S
C41 C43 1.361 . S
C42 C41 1.397 . S
C42 C46 1.390 . S
C43 C41 1.361 . S
C43 C44 1.393 . S
C43 N47 1.413 . S
C44 H37 0.930 . S
C44 C43 1.393 . S
C44 C45 1.399 . S
C45 C44 1.399 . S
C45 C46 1.381 . S
C46 H38 0.930 . S
C46 C42 1.390 . S
C46 C45 1.381 . S
N47 C40 1.286 . S
N47 C43 1.413 . S
H48 C53 0.930 . S
H49 C56 0.930 . S
H50 C58 0.930 . S
H51 C52 1.016 . S
C52 H51 1.016 . S
C52 N59 1.286 . S
C53 H48 0.930 . S
C53 C54 1.397 . S
C53 C55 1.361 . S
C54 C53 1.397 . S
C54 C58 1.390 . S
C55 C53 1.361 . S
C55 C56 1.393 . S
C55 N59 1.413 . S
C56 H49 0.930 . S
C56 C55 1.393 . S
C56 C57 1.399 . S
C57 C56 1.399 . S
C57 C58 1.381 . S
C58 H50 0.930 . S
C58 C54 1.390 . S
C58 C57 1.381 . S
N59 C52 1.286 . S
N59 C55 1.413 . S
H60 C65 0.930 . S
H61 C68 0.930 . S
H62 C70 0.930 . S
H63 C64 1.016 . S
C64 H63 1.016 . S
C64 N71 1.286 . S
C65 H60 0.930 . S
C65 C66 1.397 . S
C65 C67 1.361 . S
C66 C65 1.397 . S
C66 C70 1.390 . S
C67 C65 1.361 . S
C67 C68 1.393 . S
C67 N71 1.413 . S
C68 H61 0.930 . S
C68 C67 1.393 . S
C68 C69 1.399 . S
C69 C68 1.399 . S
C69 C70 1.381 . S
C70 H62 0.930 . S
C70 C66 1.390 . S
C70 C69 1.381 . S
N71 C64 1.286 . S
N71 C67 1.413 . S
H72 C77 0.930 . S
H73 C80 0.930 . S
H74 C82 0.930 . S
H75 C76 1.016 . S
C76 H75 1.016 . S
C76 N83 1.286 . S
C77 H72 0.930 . S
C77 C78 1.397 . S
C77 C79 1.361 . S
C78 C77 1.397 . S
C78 C82 1.390 . S
C79 C77 1.361 . S
C79 C80 1.393 . S
C79 N83 1.413 . S
C80 H73 0.930 . S
C80 C79 1.393 . S
C80 C81 1.399 . S
C81 C80 1.399 . S
C81 C82 1.381 . S
C82 H74 0.930 . S
C82 C78 1.390 . S
C82 C81 1.381 . S
N83 C76 1.286 . S
N83 C79 1.413 . S
H84 C89 0.930 . S
H85 C92 0.930 . S
H86 C94 0.930 . S
H87 C88 1.016 . S
C88 H87 1.016 . S
C88 N95 1.286 . S
C89 H84 0.930 . S
C89 C90 1.397 . S
C89 C91 1.361 . S
C90 C89 1.397 . S
C90 C94 1.390 . S
C91 C89 1.361 . S
C91 C92 1.393 . S
C91 N95 1.413 . S
C92 H85 0.930 . S
C92 C91 1.393 . S
C92 C93 1.399 . S
C93 C92 1.399 . S
C93 C94 1.381 . S
C94 H86 0.930 . S
C94 C90 1.390 . S
C94 C93 1.381 . S
N95 C88 1.286 . S
N95 C91 1.413 . S
Zn96 O102 1.920 . S
Zn96 O108 1.898 . S
Zn96 O111 1.905 . S
Zn97 O105 1.905 . S
Zn97 O106 1.898 . S
Zn97 O114 1.920 . S
Zn98 O101 2.080 . S
Zn98 O104 2.114 . S
Zn98 O107 2.120 . S
Zn98 O109 2.120 . S
Zn98 O110 2.114 . S
Zn98 O113 2.080 . S
C99 O104 1.166 . S
C99 O105 1.182 . S
C100 O106 1.167 . S
C100 O107 1.299 . S
O101 Zn98 2.080 . S
O101 C115 1.305 . S
O102 Zn96 1.920 . S
O102 C115 1.234 . S
C103 O108 1.167 . S
C103 O109 1.299 . S
O104 Zn98 2.114 . S
O104 C99 1.166 . S
O105 Zn97 1.905 . S
O105 C99 1.182 . S
O106 Zn97 1.898 . S
O106 C100 1.167 . S
O107 Zn98 2.120 . S
O107 C100 1.299 . S
O108 Zn96 1.898 . S
O108 C103 1.167 . S
O109 Zn98 2.120 . S
O109 C103 1.299 . S
O110 Zn98 2.114 . S
O110 C112 1.166 . S
O111 Zn96 1.905 . S
O111 C112 1.182 . S
C112 O110 1.166 . S
C112 O111 1.182 . S
O113 Zn98 2.080 . S
O113 C116 1.305 . S
O114 Zn97 1.920 . S
O114 C116 1.234 . S
C115 O101 1.305 . S
C115 O102 1.234 . S
C116 O113 1.305 . S
C116 O114 1.234 . S
Zn117 O123 1.920 . S
Zn117 O129 1.898 . S
Zn117 O132 1.905 . S
Zn118 O126 1.905 . S
Zn118 O127 1.898 . S
Zn118 O135 1.920 . S
Zn119 O122 2.080 . S
Zn119 O125 2.114 . S
Zn119 O128 2.120 . S
Zn119 O130 2.120 . S
Zn119 O131 2.114 . S
Zn119 O134 2.080 . S
C120 O125 1.166 . S
C120 O126 1.182 . S
C121 O127 1.167 . S
C121 O128 1.299 . S
O122 Zn119 2.080 . S
O122 C136 1.305 . S
O123 Zn117 1.920 . S
O123 C136 1.234 . S
C124 O129 1.167 . S
C124 O130 1.299 . S
O125 Zn119 2.114 . S
O125 C120 1.166 . S
O126 Zn118 1.905 . S
O126 C120 1.182 . S
O127 Zn118 1.898 . S
O127 C121 1.167 . S
O128 Zn119 2.120 . S
O128 C121 1.299 . S
O129 Zn117 1.898 . S
O129 C124 1.167 . S
O130 Zn119 2.120 . S
O130 C124 1.299 . S
O131 Zn119 2.114 . S
O131 C133 1.166 . S
O132 Zn117 1.905 . S
O132 C133 1.182 . S
C133 O131 1.166 . S
C133 O132 1.182 . S
O134 Zn119 2.080 . S
O134 C137 1.305 . S
O135 Zn118 1.920 . S
O135 C137 1.234 . S
C136 O122 1.305 . S
C136 O123 1.234 . S
C137 O134 1.305 . S
C137 O135 1.234 . S
Zn138 O144 1.920 . S
Zn138 O150 1.898 . S
Zn138 O153 1.905 . S
Zn139 O147 1.905 . S
Zn139 O148 1.898 . S
Zn139 O156 1.920 . S
Zn140 O143 2.080 . S
Zn140 O146 2.114 . S
Zn140 O149 2.120 . S
Zn140 O151 2.120 . S
Zn140 O152 2.114 . S
Zn140 O155 2.080 . S
C141 O146 1.166 . S
C141 O147 1.182 . S
C142 O148 1.167 . S
C142 O149 1.299 . S
O143 Zn140 2.080 . S
O143 C157 1.305 . S
O144 Zn138 1.920 . S
O144 C157 1.234 . S
C145 O150 1.167 . S
C145 O151 1.299 . S
O146 Zn140 2.114 . S
O146 C141 1.166 . S
O147 Zn139 1.905 . S
O147 C141 1.182 . S
O148 Zn139 1.898 . S
O148 C142 1.167 . S
O149 Zn140 2.120 . S
O149 C142 1.299 . S
O150 Zn138 1.898 . S
O150 C145 1.167 . S
O151 Zn140 2.120 . S
O151 C145 1.299 . S
O152 Zn140 2.114 . S
O152 C154 1.166 . S
O153 Zn138 1.905 . S
O153 C154 1.182 . S
C154 O152 1.166 . S
C154 O153 1.182 . S
O155 Zn140 2.080 . S
O155 C158 1.305 . S
O156 Zn139 1.920 . S
O156 C158 1.234 . S
C157 O143 1.305 . S
C157 O144 1.234 . S
C158 O155 1.305 . S
C158 O156 1.234 . S
Zn159 O165 1.920 . S
Zn159 O171 1.898 . S
Zn159 O174 1.905 1_455 S
Zn160 O168 1.905 . S
Zn160 O169 1.898 . S
Zn160 O177 1.920 . S
Zn161 O164 2.080 . S
Zn161 O167 2.114 . S
Zn161 O170 2.120 . S
Zn161 O172 2.120 . S
Zn161 O173 2.114 . S
Zn161 O176 2.080 . S
C162 O167 1.166 . S
C162 O168 1.182 . S
C163 O169 1.167 . S
C163 O170 1.299 . S
O164 Zn161 2.080 . S
O164 C178 1.305 . S
O165 Zn159 1.920 . S
O165 C178 1.234 . S
C166 O171 1.167 . S
C166 O172 1.299 . S
O167 Zn161 2.114 . S
O167 C162 1.166 . S
O168 Zn160 1.905 . S
O168 C162 1.182 . S
O169 Zn160 1.898 . S
O169 C163 1.167 . S
O170 Zn161 2.120 . S
O170 C163 1.299 . S
O171 Zn159 1.898 . S
O171 C166 1.167 . S
O172 Zn161 2.120 . S
O172 C166 1.299 . S
O173 Zn161 2.114 . S
O173 C175 1.166 . S
O174 Zn159 1.905 1_655 S
O174 C175 1.182 1_655 S
C175 O173 1.166 . S
C175 O174 1.182 1_455 S
O176 Zn161 2.080 . S
O176 C179 1.305 . S
O177 Zn160 1.920 . S
O177 C179 1.234 . S
C178 O164 1.305 . S
C178 O165 1.234 . S
C179 O176 1.305 . S
C179 O177 1.234 . S
C180 C181 1.391 . S
C180 C182 1.394 . S
C180 H196 0.931 . S
C181 C180 1.391 . S
C181 C185 1.376 . S
C182 C180 1.394 . S
C182 C183 1.369 . S
C182 C186 1.531 . S
C183 C182 1.369 . S
C183 C184 1.410 . S
C183 C191 1.503 . S
C184 C183 1.410 . S
C184 C185 1.392 . S
C184 C187 1.511 . S
C185 C181 1.376 . S
C185 C184 1.392 . S
C185 H197 0.929 . S
C186 C182 1.531 . S
C186 H198 0.960 . S
C186 H199 0.962 . S
C186 H200 0.960 . S
C187 C184 1.511 . S
C187 H201 0.961 . S
C187 H202 0.961 . S
C187 H203 0.961 . S
C188 C189 1.370 . S
C188 C190 1.363 . S
C188 H204 0.931 . S
C189 C188 1.370 . S
C189 C193 1.408 . S
C190 C188 1.363 . S
C190 C191 1.370 . S
C190 C194 1.524 . S
C191 C183 1.503 . S
C191 C190 1.370 . S
C191 C192 1.403 . S
C192 C191 1.403 . S
C192 C193 1.404 . S
C192 C195 1.539 . S
C193 C189 1.408 . S
C193 C192 1.404 . S
C193 H205 0.930 . S
C194 C190 1.524 . S
C194 H206 0.956 . S
C194 H207 0.961 . S
C194 H208 0.961 . S
C195 C192 1.539 . S
C195 H209 0.958 . S
C195 H210 0.961 . S
C195 H211 0.960 . S
H196 C180 0.931 . S
H197 C185 0.929 . S
H198 C186 0.960 . S
H199 C186 0.962 . S
H200 C186 0.960 . S
H201 C187 0.961 . S
H202 C187 0.961 . S
H203 C187 0.961 . S
H204 C188 0.931 . S
H205 C193 0.930 . S
H206 C194 0.956 . S
H207 C194 0.961 . S
H208 C194 0.961 . S
H209 C195 0.958 . S
H210 C195 0.961 . S
H211 C195 0.960 . S
C212 C213 1.391 . S
C212 C214 1.394 . S
C212 H228 0.931 1_655 S
C213 C212 1.391 . S
C213 C217 1.376 . S
C214 C212 1.394 . S
C214 C215 1.369 . S
C214 C218 1.531 . S
C215 C214 1.369 . S
C215 C216 1.410 . S
C215 C223 1.503 . S
C216 C215 1.410 . S
C216 C217 1.392 . S
C216 C219 1.511 . S
C217 C213 1.376 . S
C217 C216 1.392 . S
C217 H229 0.929 . S
C218 C214 1.531 . S
C218 H230 0.960 . S
C218 H231 0.962 . S
C218 H232 0.960 . S
C219 C216 1.511 . S
C219 H233 0.961 . S
C219 H234 0.961 . S
C219 H235 0.961 . S
C220 C221 1.370 . S
C220 C222 1.363 . S
C220 H236 0.931 . S
C221 C220 1.370 . S
C221 C225 1.408 . S
C222 C220 1.363 . S
C222 C223 1.370 . S
C222 C226 1.524 . S
C223 C215 1.503 . S
C223 C222 1.370 . S
C223 C224 1.403 . S
C224 C223 1.403 . S
C224 C225 1.404 . S
C224 C227 1.539 . S
C225 C221 1.408 . S
C225 C224 1.404 . S
C225 H237 0.930 . S
C226 C222 1.524 . S
C226 H238 0.956 . S
C226 H239 0.961 . S
C226 H240 0.961 . S
C227 C224 1.539 . S
C227 H241 0.958 . S
C227 H242 0.961 . S
C227 H243 0.960 . S
H228 C212 0.931 1_455 S
H229 C217 0.929 . S
H230 C218 0.960 . S
H231 C218 0.962 . S
H232 C218 0.960 . S
H233 C219 0.961 . S
H234 C219 0.961 . S
H235 C219 0.961 . S
H236 C220 0.931 . S
H237 C225 0.930 . S
H238 C226 0.956 . S
H239 C226 0.961 . S
H240 C226 0.961 . S
H241 C227 0.958 . S
H242 C227 0.961 . S
H243 C227 0.960 . S
C244 C245 1.391 . S
C244 C246 1.394 . S
C244 H260 0.931 . S
C245 C244 1.391 . S
C245 C249 1.376 . S
C246 C244 1.394 . S
C246 C247 1.369 . S
C246 C250 1.531 . S
C247 C246 1.369 . S
C247 C248 1.410 . S
C247 C255 1.503 . S
C248 C247 1.410 . S
C248 C249 1.392 . S
C248 C251 1.511 . S
C249 C245 1.376 . S
C249 C248 1.392 . S
C249 H261 0.929 . S
C250 C246 1.531 . S
C250 H262 0.960 . S
C250 H263 0.962 . S
C250 H264 0.960 . S
C251 C248 1.511 . S
C251 H265 0.961 . S
C251 H266 0.961 . S
C251 H267 0.961 . S
C252 C253 1.370 . S
C252 C254 1.363 . S
C252 H268 0.931 . S
C253 C252 1.370 . S
C253 C257 1.408 . S
C254 C252 1.363 . S
C254 C255 1.370 . S
C254 C258 1.524 . S
C255 C247 1.503 . S
C255 C254 1.370 . S
C255 C256 1.403 . S
C256 C255 1.403 . S
C256 C257 1.404 . S
C256 C259 1.539 . S
C257 C253 1.408 . S
C257 C256 1.404 . S
C257 H269 0.930 . S
C258 C254 1.524 . S
C258 H270 0.956 . S
C258 H271 0.961 . S
C258 H272 0.961 . S
C259 C256 1.539 . S
C259 H273 0.958 . S
C259 H274 0.961 . S
C259 H275 0.960 . S
H260 C244 0.931 . S
H261 C249 0.929 . S
H262 C250 0.960 . S
H263 C250 0.962 . S
H264 C250 0.960 . S
H265 C251 0.961 . S
H266 C251 0.961 . S
H267 C251 0.961 . S
H268 C252 0.931 . S
H269 C257 0.930 . S
H270 C258 0.956 . S
H271 C258 0.961 . S
H272 C258 0.961 . S
H273 C259 0.958 . S
H274 C259 0.961 . S
H275 C259 0.960 . S
C276 C277 1.391 . S
C276 C278 1.394 . S
C276 H292 0.931 . S
C277 C276 1.391 . S
C277 C281 1.376 . S
C278 C276 1.394 . S
C278 C279 1.369 . S
C278 C282 1.531 . S
C279 C278 1.369 . S
C279 C280 1.410 . S
C279 C287 1.503 . S
C280 C279 1.410 . S
C280 C281 1.392 . S
C280 C283 1.511 . S
C281 C277 1.376 . S
C281 C280 1.392 . S
C281 H293 0.929 . S
C282 C278 1.531 . S
C282 H294 0.960 . S
C282 H295 0.962 . S
C282 H296 0.960 . S
C283 C280 1.511 . S
C283 H297 0.961 . S
C283 H298 0.961 . S
C283 H299 0.961 . S
C284 C285 1.370 . S
C284 C286 1.363 . S
C284 H300 0.931 . S
C285 C284 1.370 . S
C285 C289 1.408 . S
C286 C284 1.363 . S
C286 C287 1.370 . S
C286 C290 1.524 . S
C287 C279 1.503 . S
C287 C286 1.370 . S
C287 C288 1.403 . S
C288 C287 1.403 . S
C288 C289 1.404 . S
C288 C291 1.539 . S
C289 C285 1.408 . S
C289 C288 1.404 . S
C289 H301 0.930 . S
C290 C286 1.524 . S
C290 H302 0.956 . S
C290 H303 0.961 . S
C290 H304 0.961 . S
C291 C288 1.539 . S
C291 H305 0.958 . S
C291 H306 0.961 . S
C291 H307 0.960 . S
H292 C276 0.931 . S
H293 C281 0.929 . S
H294 C282 0.960 . S
H295 C282 0.962 . S
H296 C282 0.960 . S
H297 C283 0.961 . S
H298 C283 0.961 . S
H299 C283 0.961 . S
H300 C284 0.931 . S
H301 C289 0.930 . S
H302 C290 0.956 . S
H303 C290 0.961 . S
H304 C290 0.961 . S
H305 C291 0.958 . S
H306 C291 0.961 . S
H307 C291 0.960 . S
C308 C309 1.391 . S
C308 C310 1.394 . S
C308 H324 0.931 . S
C309 C308 1.391 . S
C309 C313 1.376 . S
C310 C308 1.394 . S
C310 C311 1.369 . S
C310 C314 1.531 . S
C311 C310 1.369 . S
C311 C312 1.410 . S
C311 C319 1.503 . S
C312 C311 1.410 . S
C312 C313 1.392 . S
C312 C315 1.511 . S
C313 C309 1.376 . S
C313 C312 1.392 . S
C313 H325 0.929 . S
C314 C310 1.531 . S
C314 H326 0.960 . S
C314 H327 0.962 . S
C314 H328 0.960 . S
C315 C312 1.511 . S
C315 H329 0.961 . S
C315 H330 0.961 . S
C315 H331 0.961 . S
C316 C317 1.370 . S
C316 C318 1.363 . S
C316 H332 0.931 . S
C317 C316 1.370 . S
C317 C321 1.408 . S
C318 C316 1.363 . S
C318 C319 1.370 . S
C318 C322 1.524 . S
C319 C311 1.503 . S
C319 C318 1.370 . S
C319 C320 1.403 . S
C320 C319 1.403 . S
C320 C321 1.404 . S
C320 C323 1.539 1_455 S
C321 C317 1.408 . S
C321 C320 1.404 . S
C321 H333 0.930 . S
C322 C318 1.524 . S
C322 H334 0.956 . S
C322 H335 0.961 . S
C322 H336 0.961 . S
C323 C320 1.539 1_655 S
C323 H337 0.958 . S
C323 H338 0.961 . S
C323 H339 0.960 . S
H324 C308 0.931 . S
H325 C313 0.929 . S
H326 C314 0.960 . S
H327 C314 0.962 . S
H328 C314 0.960 . S
H329 C315 0.961 . S
H330 C315 0.961 . S
H331 C315 0.961 . S
H332 C316 0.931 . S
H333 C321 0.930 . S
H334 C322 0.956 . S
H335 C322 0.961 . S
H336 C322 0.961 . S
H337 C323 0.958 . S
H338 C323 0.961 . S
H339 C323 0.960 . S
C340 C341 1.391 . S
C340 C342 1.394 . S
C340 H356 0.931 . S
C341 C340 1.391 . S
C341 C345 1.376 . S
C342 C340 1.394 . S
C342 C343 1.369 . S
C342 C346 1.531 . S
C343 C342 1.369 . S
C343 C344 1.410 . S
C343 C351 1.503 . S
C344 C343 1.410 . S
C344 C345 1.392 . S
C344 C347 1.511 . S
C345 C341 1.376 . S
C345 C344 1.392 . S
C345 H357 0.929 . S
C346 C342 1.531 . S
C346 H358 0.960 . S
C346 H359 0.962 . S
C346 H360 0.960 . S
C347 C344 1.511 . S
C347 H361 0.961 . S
C347 H362 0.961 . S
C347 H363 0.961 . S
C348 C349 1.370 . S
C348 C350 1.363 . S
C348 H364 0.931 . S
C349 C348 1.370 . S
C349 C353 1.408 . S
C350 C348 1.363 . S
C350 C351 1.370 . S
C350 C354 1.524 . S
C351 C343 1.503 . S
C351 C350 1.370 . S
C351 C352 1.403 . S
C352 C351 1.403 . S
C352 C353 1.404 . S
C352 C355 1.539 . S
C353 C349 1.408 . S
C353 C352 1.404 . S
C353 H365 0.930 . S
C354 C350 1.524 . S
C354 H366 0.956 . S
C354 H367 0.961 . S
C354 H368 0.961 . S
C355 C352 1.539 . S
C355 H369 0.958 . S
C355 H370 0.961 . S
C355 H371 0.960 . S
H356 C340 0.931 . S
H357 C345 0.929 . S
H358 C346 0.960 . S
H359 C346 0.962 . S
H360 C346 0.960 . S
H361 C347 0.961 . S
H362 C347 0.961 . S
H363 C347 0.961 . S
H364 C348 0.931 . S
H365 C353 0.930 . S
H366 C354 0.956 . S
H367 C354 0.961 . S
H368 C354 0.961 . S
H369 C355 0.958 . S
H370 C355 0.961 . S
H371 C355 0.960 . S
C372 C373 1.391 . S
C372 C374 1.394 . S
C372 H388 0.931 . S
C373 C372 1.391 . S
C373 C377 1.376 . S
C374 C372 1.394 . S
C374 C375 1.369 . S
C374 C378 1.531 . S
C375 C374 1.369 . S
C375 C376 1.410 . S
C375 C383 1.503 . S
C376 C375 1.410 . S
C376 C377 1.392 . S
C376 C379 1.511 . S
C377 C373 1.376 . S
C377 C376 1.392 . S
C377 H389 0.929 . S
C378 C374 1.531 . S
C378 H390 0.960 . S
C378 H391 0.962 . S
C378 H392 0.960 . S
C379 C376 1.511 . S
C379 H393 0.961 . S
C379 H394 0.961 . S
C379 H395 0.961 . S
C380 C381 1.370 . S
C380 C382 1.363 . S
C380 H396 0.931 . S
C381 C380 1.370 . S
C381 C385 1.408 . S
C382 C380 1.363 . S
C382 C383 1.370 . S
C382 C386 1.524 . S
C383 C375 1.503 . S
C383 C382 1.370 . S
C383 C384 1.403 . S
C384 C383 1.403 . S
C384 C385 1.404 . S
C384 C387 1.539 . S
C385 C381 1.408 . S
C385 C384 1.404 . S
C385 H397 0.930 . S
C386 C382 1.524 . S
C386 H398 0.956 . S
C386 H399 0.961 . S
C386 H400 0.961 . S
C387 C384 1.539 . S
C387 H401 0.958 . S
C387 H402 0.961 . S
C387 H403 0.960 . S
H388 C372 0.931 . S
H389 C377 0.929 . S
H390 C378 0.960 . S
H391 C378 0.962 . S
H392 C378 0.960 . S
H393 C379 0.961 . S
H394 C379 0.961 . S
H395 C379 0.961 . S
H396 C380 0.931 . S
H397 C385 0.930 . S
H398 C386 0.956 . S
H399 C386 0.961 . S
H400 C386 0.961 . S
H401 C387 0.958 . S
H402 C387 0.961 . S
H403 C387 0.960 . S
C404 C405 1.391 1_655 S
C404 C406 1.394 . S
C404 H420 0.931 1_655 S
C405 C404 1.391 1_455 S
C405 C409 1.376 1_455 S
C406 C404 1.394 . S
C406 C407 1.369 . S
C406 C410 1.531 . S
C407 C406 1.369 . S
C407 C408 1.410 . S
C407 C415 1.503 . S
C408 C407 1.410 . S
C408 C409 1.392 . S
C408 C411 1.511 . S
C409 C405 1.376 1_655 S
C409 C408 1.392 . S
C409 H421 0.929 . S
C410 C406 1.531 . S
C410 H422 0.960 . S
C410 H423 0.962 . S
C410 H424 0.960 . S
C411 C408 1.511 . S
C411 H425 0.961 . S
C411 H426 0.961 . S
C411 H427 0.961 . S
C412 C413 1.370 . S
C412 C414 1.363 . S
C412 H428 0.931 . S
C413 C412 1.370 . S
C413 C417 1.408 . S
C414 C412 1.363 . S
C414 C415 1.370 . S
C414 C418 1.524 . S
C415 C407 1.503 . S
C415 C414 1.370 . S
C415 C416 1.403 . S
C416 C415 1.403 . S
C416 C417 1.404 . S
C416 C419 1.539 . S
C417 C413 1.408 . S
C417 C416 1.404 . S
C417 H429 0.930 . S
C418 C414 1.524 . S
C418 H430 0.956 . S
C418 H431 0.961 . S
C418 H432 0.961 . S
C419 C416 1.539 . S
C419 H433 0.958 . S
C419 H434 0.961 . S
C419 H435 0.960 . S
H420 C404 0.931 1_455 S
H421 C409 0.929 . S
H422 C410 0.960 . S
H423 C410 0.962 . S
H424 C410 0.960 . S
H425 C411 0.961 . S
H426 C411 0.961 . S
H427 C411 0.961 . S
H428 C412 0.931 . S
H429 C417 0.930 . S
H430 C418 0.956 . S
H431 C418 0.961 . S
H432 C418 0.961 . S
H433 C419 0.958 . S
H434 C419 0.961 . S
H435 C419 0.960 . S
C436 C437 1.391 . S
C436 C438 1.394 . S
C436 H452 0.931 . S
C437 C436 1.391 . S
C437 C441 1.376 . S
C438 C436 1.394 . S
C438 C439 1.369 . S
C438 C442 1.531 . S
C439 C438 1.369 . S
C439 C440 1.410 . S
C439 C447 1.503 . S
C440 C439 1.410 . S
C440 C441 1.392 . S
C440 C443 1.511 . S
C441 C437 1.376 . S
C441 C440 1.392 . S
C441 H453 0.929 . S
C442 C438 1.531 . S
C442 H454 0.960 . S
C442 H455 0.962 . S
C442 H456 0.960 . S
C443 C440 1.511 . S
C443 H457 0.961 . S
C443 H458 0.961 . S
C443 H459 0.961 . S
C444 C445 1.370 . S
C444 C446 1.363 . S
C444 H460 0.931 . S
C445 C444 1.370 . S
C445 C449 1.408 . S
C446 C444 1.363 . S
C446 C447 1.370 . S
C446 C450 1.524 . S
C447 C439 1.503 . S
C447 C446 1.370 . S
C447 C448 1.403 . S
C448 C447 1.403 . S
C448 C449 1.404 . S
C448 C451 1.539 . S
C449 C445 1.408 . S
C449 C448 1.404 . S
C449 H461 0.930 . S
C450 C446 1.524 . S
C450 H462 0.956 . S
C450 H463 0.961 . S
C450 H464 0.961 . S
C451 C448 1.539 . S
C451 H465 0.958 . S
C451 H466 0.961 . S
C451 H467 0.960 . S
H452 C436 0.931 . S
H453 C441 0.929 . S
H454 C442 0.960 . S
H455 C442 0.962 . S
H456 C442 0.960 . S
H457 C443 0.961 . S
H458 C443 0.961 . S
H459 C443 0.961 . S
H460 C444 0.931 . S
H461 C449 0.930 . S
H462 C450 0.956 . S
H463 C450 0.961 . S
H464 C450 0.961 . S
H465 C451 0.958 . S
H466 C451 0.961 . S
H467 C451 0.960 . S
C468 C469 1.391 . S
C468 C470 1.394 . S
C468 H484 0.931 . S
C469 C468 1.391 . S
C469 C473 1.376 . S
C470 C468 1.394 . S
C470 C471 1.369 . S
C470 C474 1.531 . S
C471 C470 1.369 . S
C471 C472 1.410 . S
C471 C479 1.503 . S
C472 C471 1.410 . S
C472 C473 1.392 . S
C472 C475 1.511 . S
C473 C469 1.376 . S
C473 C472 1.392 . S
C473 H485 0.929 . S
C474 C470 1.531 . S
C474 H486 0.960 . S
C474 H487 0.962 . S
C474 H488 0.960 . S
C475 C472 1.511 . S
C475 H489 0.961 . S
C475 H490 0.961 . S
C475 H491 0.961 . S
C476 C477 1.370 . S
C476 C478 1.363 . S
C476 H492 0.931 . S
C477 C476 1.370 . S
C477 C481 1.408 . S
C478 C476 1.363 . S
C478 C479 1.370 . S
C478 C482 1.524 . S
C479 C471 1.503 . S
C479 C478 1.370 . S
C479 C480 1.403 . S
C480 C479 1.403 . S
C480 C481 1.404 . S
C480 C483 1.539 . S
C481 C477 1.408 . S
C481 C480 1.404 . S
C481 H493 0.930 . S
C482 C478 1.524 . S
C482 H494 0.956 . S
C482 H495 0.961 . S
C482 H496 0.961 . S
C483 C480 1.539 . S
C483 H497 0.958 . S
C483 H498 0.961 . S
C483 H499 0.960 . S
H484 C468 0.931 . S
H485 C473 0.929 . S
H486 C474 0.960 . S
H487 C474 0.962 . S
H488 C474 0.960 . S
H489 C475 0.961 . S
H490 C475 0.961 . S
H491 C475 0.961 . S
H492 C476 0.931 . S
H493 C481 0.930 . S
H494 C482 0.956 . S
H495 C482 0.961 . S
H496 C482 0.961 . S
H497 C483 0.958 . S
H498 C483 0.961 . S
H499 C483 0.960 . S
C500 C501 1.391 . S
C500 C502 1.394 . S
C500 H516 0.931 . S
C501 C500 1.391 . S
C501 C505 1.376 . S
C502 C500 1.394 . S
C502 C503 1.369 . S
C502 C506 1.531 . S
C503 C502 1.369 . S
C503 C504 1.410 . S
C503 C511 1.503 . S
C504 C503 1.410 . S
C504 C505 1.392 . S
C504 C507 1.511 . S
C505 C501 1.376 . S
C505 C504 1.392 . S
C505 H517 0.929 . S
C506 C502 1.531 . S
C506 H518 0.960 . S
C506 H519 0.962 . S
C506 H520 0.960 . S
C507 C504 1.511 . S
C507 H521 0.961 . S
C507 H522 0.961 . S
C507 H523 0.961 . S
C508 C509 1.370 . S
C508 C510 1.363 . S
C508 H524 0.931 . S
C509 C508 1.370 . S
C509 C513 1.408 . S
C510 C508 1.363 . S
C510 C511 1.370 . S
C510 C514 1.524 . S
C511 C503 1.503 . S
C511 C510 1.370 . S
C511 C512 1.403 . S
C512 C511 1.403 . S
C512 C513 1.404 . S
C512 C515 1.539 . S
C513 C509 1.408 . S
C513 C512 1.404 . S
C513 H525 0.930 . S
C514 C510 1.524 . S
C514 H526 0.956 . S
C514 H527 0.961 . S
C514 H528 0.961 . S
C515 C512 1.539 . S
C515 H529 0.958 . S
C515 H530 0.961 . S
C515 H531 0.960 . S
H516 C500 0.931 . S
H517 C505 0.929 . S
H518 C506 0.960 . S
H519 C506 0.962 . S
H520 C506 0.960 . S
H521 C507 0.961 . S
H522 C507 0.961 . S
H523 C507 0.961 . S
H524 C508 0.931 . S
H525 C513 0.930 . S
H526 C514 0.956 . S
H527 C514 0.961 . S
H528 C514 0.961 . S
H529 C515 0.958 . S
H530 C515 0.961 . S
H531 C515 0.960 . S
C532 C533 1.391 . S
C532 C534 1.394 . S
C532 H548 0.931 . S
C533 C532 1.391 . S
C533 C537 1.376 . S
C534 C532 1.394 . S
C534 C535 1.369 . S
C534 C538 1.531 . S
C535 C534 1.369 . S
C535 C536 1.410 . S
C535 C543 1.503 . S
C536 C535 1.410 . S
C536 C537 1.392 . S
C536 C539 1.511 . S
C537 C533 1.376 . S
C537 C536 1.392 . S
C537 H549 0.929 . S
C538 C534 1.531 . S
C538 H550 0.960 . S
C538 H551 0.962 . S
C538 H552 0.960 . S
C539 C536 1.511 . S
C539 H553 0.961 . S
C539 H554 0.961 . S
C539 H555 0.961 . S
C540 C541 1.370 . S
C540 C542 1.363 . S
C540 H556 0.931 . S
C541 C540 1.370 . S
C541 C545 1.408 . S
C542 C540 1.363 . S
C542 C543 1.370 . S
C542 C546 1.524 . S
C543 C535 1.503 . S
C543 C542 1.370 . S
C543 C544 1.403 . S
C544 C543 1.403 . S
C544 C545 1.404 . S
C544 C547 1.539 . S
C545 C541 1.408 . S
C545 C544 1.404 . S
C545 H557 0.930 . S
C546 C542 1.524 . S
C546 H558 0.956 . S
C546 H559 0.961 . S
C546 H560 0.961 . S
C547 C544 1.539 . S
C547 H561 0.958 . S
C547 H562 0.961 . S
C547 H563 0.960 . S
H548 C532 0.931 . S
H549 C537 0.929 . S
H550 C538 0.960 . S
H551 C538 0.962 . S
H552 C538 0.960 . S
H553 C539 0.961 . S
H554 C539 0.961 . S
H555 C539 0.961 . S
H556 C540 0.931 . S
H557 C545 0.930 . S
H558 C546 0.956 . S
H559 C546 0.961 . S
H560 C546 0.961 . S
H561 C547 0.958 . S
H562 C547 0.961 . S
H563 C547 0.960 . S
C564 C565 1.391 . S
C564 C566 1.394 . S
C564 H580 0.931 . S
C565 C564 1.391 . S
C565 C569 1.376 . S
C566 C564 1.394 . S
C566 C567 1.369 . S
C566 C570 1.531 . S
C567 C566 1.369 . S
C567 C568 1.410 . S
C567 C575 1.503 . S
C568 C567 1.410 . S
C568 C569 1.392 . S
C568 C571 1.511 . S
C569 C565 1.376 . S
C569 C568 1.392 . S
C569 H581 0.929 . S
C570 C566 1.531 . S
C570 H582 0.960 . S
C570 H583 0.962 . S
C570 H584 0.960 . S
C571 C568 1.511 . S
C571 H585 0.961 . S
C571 H586 0.961 . S
C571 H587 0.961 . S
C572 C573 1.370 . S
C572 C574 1.363 1_545 S
C572 H588 0.931 . S
C573 C572 1.370 . S
C573 C577 1.408 . S
C574 C572 1.363 1_565 S
C574 C575 1.370 . S
C574 C578 1.524 . S
C575 C567 1.503 . S
C575 C574 1.370 . S
C575 C576 1.403 1_565 S
C576 C575 1.403 1_545 S
C576 C577 1.404 . S
C576 C579 1.543 . S
C577 C573 1.408 . S
C577 C576 1.404 . S
C577 H589 0.930 . S
C578 C574 1.524 . S
C578 H590 0.956 . S
C578 H591 0.961 . S
C578 H592 0.961 . S
C579 C576 1.543 . S
C579 H593 0.955 1_545 S
C579 H594 0.977 . S
C579 H595 0.944 1_545 S
H580 C564 0.931 . S
H581 C569 0.929 . S
H582 C570 0.960 . S
H583 C570 0.962 . S
H584 C570 0.960 . S
H585 C571 0.961 . S
H586 C571 0.961 . S
H587 C571 0.961 . S
H588 C572 0.931 . S
H589 C577 0.930 . S
H590 C578 0.956 . S
H591 C578 0.961 . S
H592 C578 0.961 . S
H593 C579 0.955 1_565 S
H594 C579 0.977 . S
H595 C579 0.944 1_565 S
C596 C597 1.391 . S
C596 C598 1.394 . S
C596 H612 0.931 . S
C597 C596 1.391 . S
C597 C601 1.376 . S
C598 C596 1.394 . S
C598 C599 1.369 1_545 S
C598 C602 1.531 1_545 S
C599 C598 1.369 1_565 S
C599 C600 1.410 1_565 S
C599 C607 1.503 . S
C600 C599 1.410 1_545 S
C600 C601 1.392 . S
C600 C603 1.511 1_545 S
C601 C597 1.376 . S
C601 C600 1.392 . S
C601 H613 0.929 . S
C602 C598 1.531 1_565 S
C602 H614 0.960 . S
C602 H615 0.962 . S
C602 H616 0.960 1_565 S
C603 C600 1.511 1_565 S
C603 H617 0.961 1_565 S
C603 H618 0.961 . S
C603 H619 0.961 . S
C604 C605 1.370 . S
C604 C606 1.363 . S
C604 H620 0.931 . S
C605 C604 1.370 . S
C605 C609 1.408 . S
C606 C604 1.363 . S
C606 C607 1.370 . S
C606 C610 1.524 . S
C607 C599 1.503 . S
C607 C606 1.370 . S
C607 C608 1.403 . S
C608 C607 1.403 . S
C608 C609 1.404 . S
C608 C611 1.539 . S
C609 C605 1.408 . S
C609 C608 1.404 . S
C609 H621 0.930 . S
C610 C606 1.524 . S
C610 H622 0.950 1_565 S
C610 H623 0.961 1_565 S
C610 H624 0.961 . S
C611 C608 1.539 . S
C611 H625 0.958 . S
C611 H626 0.961 . S
C611 H627 0.960 . S
H612 C596 0.931 . S
H613 C601 0.929 . S
H614 C602 0.960 . S
H615 C602 0.962 . S
H616 C602 0.960 1_545 S
H617 C603 0.961 1_545 S
H618 C603 0.961 . S
H619 C603 0.961 . S
H620 C604 0.931 . S
H621 C609 0.930 . S
H622 C610 0.950 1_545 S
H623 C610 0.961 1_545 S
H624 C610 0.961 . S
H625 C611 0.958 . S
H626 C611 0.961 . S
H627 C611 0.960 . S
C628 C629 1.391 . S
C628 C630 1.394 . S
C628 H644 0.931 . S
C629 C628 1.391 . S
C629 C633 1.376 . S
C630 C628 1.394 . S
C630 C631 1.369 . S
C630 C634 1.531 . S
C631 C630 1.369 . S
C631 C632 1.410 . S
C631 C639 1.503 . S
C632 C631 1.410 . S
C632 C633 1.392 . S
C632 C635 1.511 . S
C633 C629 1.376 . S
C633 C632 1.392 . S
C633 H645 0.929 . S
C634 C630 1.531 . S
C634 H646 0.960 . S
C634 H647 0.962 . S
C634 H648 0.960 . S
C635 C632 1.511 . S
C635 H649 0.961 . S
C635 H650 0.961 . S
C635 H651 0.961 . S
C636 C637 1.370 . S
C636 C638 1.363 . S
C636 H652 0.931 . S
C637 C636 1.370 . S
C637 C641 1.408 . S
C638 C636 1.363 . S
C638 C639 1.370 1_565 S
C638 C642 1.524 . S
C639 C631 1.503 . S
C639 C638 1.370 1_545 S
C639 C640 1.403 1_545 S
C640 C639 1.403 1_565 S
C640 C641 1.404 . S
C640 C643 1.539 1_565 S
C641 C637 1.408 . S
C641 C640 1.404 . S
C641 H653 0.930 . S
C642 C638 1.524 . S
C642 H654 0.956 1_565 S
C642 H655 0.961 1_565 S
C642 H656 0.961 . S
C643 C640 1.539 1_545 S
C643 H657 0.958 . S
C643 H658 0.961 . S
C643 H659 0.960 . S
H644 C628 0.931 . S
H645 C633 0.929 . S
H646 C634 0.960 . S
H647 C634 0.962 . S
H648 C634 0.960 . S
H649 C635 0.961 . S
H650 C635 0.961 . S
H651 C635 0.961 . S
H652 C636 0.931 . S
H653 C641 0.930 . S
H654 C642 0.956 1_545 S
H655 C642 0.961 1_545 S
H656 C642 0.961 . S
H657 C643 0.958 . S
H658 C643 0.961 . S
H659 C643 0.960 . S
C660 C661 1.391 . S
C660 C662 1.394 . S
C660 H676 0.931 1_455 S
C661 C660 1.391 . S
C661 C665 1.376 . S
C662 C660 1.394 . S
C662 C663 1.369 . S
C662 C666 1.531 1_465 S
C663 C662 1.369 . S
C663 C664 1.410 . S
C663 C671 1.503 1_565 S
C664 C663 1.410 . S
C664 C665 1.392 . S
C664 C667 1.511 . S
C665 C661 1.376 . S
C665 C664 1.392 . S
C665 H677 0.929 . S
C666 C662 1.531 1_645 S
C666 H678 0.956 1_655 S
C666 H679 0.962 . S
C666 H680 0.957 1_545 S
C667 C664 1.511 . S
C667 H681 0.961 . S
C667 H682 0.961 . S
C667 H683 0.961 . S
C668 C669 1.370 . S
C668 C670 1.363 . S
C668 H684 0.931 . S
C669 C668 1.370 . S
C669 C673 1.408 . S
C670 C668 1.363 . S
C670 C671 1.370 . S
C670 C674 1.524 . S
C671 C663 1.503 1_545 S
C671 C670 1.370 . S
C671 C672 1.403 . S
C672 C671 1.403 . S
C672 C673 1.404 . S
C672 C675 1.539 . S
C673 C669 1.408 . S
C673 C672 1.404 . S
C673 H685 0.930 . S
C674 C670 1.524 . S
C674 H686 0.952 1_545 S
C674 H687 0.961 1_545 S
C674 H688 0.961 . S
C675 C672 1.539 . S
C675 H689 0.958 . S
C675 H690 0.961 . S
C675 H691 0.960 . S
H676 C660 0.931 1_655 S
H677 C665 0.929 . S
H678 C666 0.956 1_455 S
H679 C666 0.962 . S
H680 C666 0.957 1_565 S
H681 C667 0.961 . S
H682 C667 0.961 . S
H683 C667 0.961 . S
H684 C668 0.931 . S
H685 C673 0.930 . S
H686 C674 0.952 1_565 S
H687 C674 0.961 1_565 S
H688 C674 0.961 . S
H689 C675 0.958 . S
H690 C675 0.961 . S
H691 C675 0.960 . S
C692 C693 1.391 . S
C692 C694 1.394 . S
C692 H708 0.931 . S
C693 C692 1.391 . S
C693 C697 1.376 . S
C694 C692 1.394 . S
C694 C695 1.369 1_554 S
C694 C698 1.521 1_554 S
C695 C694 1.369 1_556 S
C695 C696 1.410 . S
C695 C703 1.503 . S
C696 C695 1.410 . S
C696 C697 1.392 1_556 S
C696 C699 1.511 . S
C697 C693 1.376 . S
C697 C696 1.392 1_554 S
C697 H709 0.929 . S
C698 C694 1.521 1_556 S
C698 H710 0.987 . S
C698 H711 0.965 . S
C698 H712 0.941 1_556 S
C699 C696 1.511 . S
C699 H713 0.961 . S
C699 H714 0.961 . S
C699 H715 0.961 . S
C700 C701 1.370 . S
C700 C702 1.363 . S
C700 H716 0.931 . S
C701 C700 1.370 . S
C701 C705 1.408 . S
C702 C700 1.363 . S
C702 C703 1.370 . S
C702 C706 1.524 . S
C703 C695 1.503 . S
C703 C702 1.370 . S
C703 C704 1.403 . S
C704 C703 1.403 . S
C704 C705 1.404 . S
C704 C707 1.539 . S
C705 C701 1.408 . S
C705 C704 1.404 . S
C705 H717 0.930 . S
C706 C702 1.524 . S
C706 H718 0.956 . S
C706 H719 0.961 . S
C706 H720 0.961 . S
C707 C704 1.539 . S
C707 H721 0.958 . S
C707 H722 0.961 . S
C707 H723 0.960 . S
H708 C692 0.931 . S
H709 C697 0.929 . S
H710 C698 0.987 . S
H711 C698 0.965 . S
H712 C698 0.941 1_554 S
H713 C699 0.961 . S
H714 C699 0.961 . S
H715 C699 0.961 . S
H716 C700 0.931 . S
H717 C705 0.930 . S
H718 C706 0.956 . S
H719 C706 0.961 . S
H720 C706 0.961 . S
H721 C707 0.958 . S
H722 C707 0.961 . S
H723 C707 0.960 . S
C724 C725 1.391 . S
C724 C726 1.394 . S
C724 H740 0.931 . S
C725 C724 1.391 . S
C725 C729 1.376 . S
C726 C724 1.394 . S
C726 C727 1.369 . S
C726 C730 1.531 . S
C727 C726 1.369 . S
C727 C728 1.410 . S
C727 C735 1.503 . S
C728 C727 1.410 . S
C728 C729 1.392 . S
C728 C731 1.511 . S
C729 C725 1.376 . S
C729 C728 1.392 . S
C729 H741 0.929 . S
C730 C726 1.531 . S
C730 H742 0.960 . S
C730 H743 0.962 . S
C730 H744 0.960 . S
C731 C728 1.511 . S
C731 H745 0.961 . S
C731 H746 0.961 . S
C731 H747 0.961 1_455 S
C732 C733 1.370 . S
C732 C734 1.363 . S
C732 H748 0.931 . S
C733 C732 1.370 . S
C733 C737 1.408 . S
C734 C732 1.363 . S
C734 C735 1.370 . S
C734 C738 1.524 . S
C735 C727 1.503 . S
C735 C734 1.370 . S
C735 C736 1.403 . S
C736 C735 1.403 . S
C736 C737 1.404 . S
C736 C739 1.539 . S
C737 C733 1.408 . S
C737 C736 1.404 . S
C737 H749 0.930 . S
C738 C734 1.524 . S
C738 H750 0.956 . S
C738 H751 0.961 . S
C738 H752 0.961 . S
C739 C736 1.539 . S
C739 H753 0.958 . S
C739 H754 0.961 . S
C739 H755 0.960 . S
H740 C724 0.931 . S
H741 C729 0.929 . S
H742 C730 0.960 . S
H743 C730 0.962 . S
H744 C730 0.960 . S
H745 C731 0.961 . S
H746 C731 0.961 . S
H747 C731 0.961 1_655 S
H748 C732 0.931 . S
H749 C737 0.930 . S
H750 C738 0.956 . S
H751 C738 0.961 . S
H752 C738 0.961 . S
H753 C739 0.958 . S
H754 C739 0.961 . S
H755 C739 0.960 . S
C756 C757 1.391 . S
C756 C758 1.394 . S
C756 H772 0.931 . S
C757 C756 1.391 . S
C757 C761 1.376 . S
C758 C756 1.394 . S
C758 C759 1.369 . S
C758 C762 1.531 . S
C759 C758 1.369 . S
C759 C760 1.410 . S
C759 C767 1.503 . S
C760 C759 1.410 . S
C760 C761 1.392 . S
C760 C763 1.511 . S
C761 C757 1.376 . S
C761 C760 1.392 . S
C761 H773 0.929 . S
C762 C758 1.531 . S
C762 H774 0.960 . S
C762 H775 0.962 . S
C762 H776 0.960 . S
C763 C760 1.511 . S
C763 H777 0.961 . S
C763 H778 0.961 . S
C763 H779 0.961 . S
C764 C765 1.370 . S
C764 C766 1.363 . S
C764 H780 0.931 . S
C765 C764 1.370 . S
C765 C769 1.408 . S
C766 C764 1.363 . S
C766 C767 1.370 . S
C766 C770 1.524 . S
C767 C759 1.503 . S
C767 C766 1.370 . S
C767 C768 1.403 . S
C768 C767 1.403 . S
C768 C769 1.404 . S
C768 C771 1.539 . S
C769 C765 1.408 . S
C769 C768 1.404 . S
C769 H781 0.930 . S
C770 C766 1.524 . S
C770 H782 0.956 . S
C770 H783 0.961 . S
C770 H784 0.961 . S
C771 C768 1.539 . S
C771 H785 0.958 . S
C771 H786 0.961 . S
C771 H787 0.960 . S
H772 C756 0.931 . S
H773 C761 0.929 . S
H774 C762 0.960 . S
H775 C762 0.962 . S
H776 C762 0.960 . S
H777 C763 0.961 . S
H778 C763 0.961 . S
H779 C763 0.961 . S
H780 C764 0.931 . S
H781 C769 0.930 . S
H782 C770 0.956 . S
H783 C770 0.961 . S
H784 C770 0.961 . S
H785 C771 0.958 . S
H786 C771 0.961 . S
H787 C771 0.960 . S
C788 C789 1.391 . S
C788 C790 1.394 . S
C788 H804 0.931 . S
C789 C788 1.391 . S
C789 C793 1.376 . S
C790 C788 1.394 . S
C790 C791 1.369 . S
C790 C794 1.531 . S
C791 C790 1.369 . S
C791 C792 1.410 . S
C791 C799 1.503 . S
C792 C791 1.410 . S
C792 C793 1.392 . S
C792 C795 1.511 . S
C793 C789 1.376 . S
C793 C792 1.392 . S
C793 H805 0.929 . S
C794 C790 1.531 . S
C794 H806 0.960 . S
C794 H807 0.962 . S
C794 H808 0.960 . S
C795 C792 1.511 . S
C795 H809 0.961 . S
C795 H810 0.961 . S
C795 H811 0.961 . S
C796 C797 1.370 . S
C796 C798 1.363 . S
C796 H812 0.931 . S
C797 C796 1.370 . S
C797 C801 1.408 . S
C798 C796 1.363 . S
C798 C799 1.370 . S
C798 C802 1.524 . S
C799 C791 1.503 . S
C799 C798 1.370 . S
C799 C800 1.403 . S
C800 C799 1.403 . S
C800 C801 1.404 . S
C800 C803 1.539 . S
C801 C797 1.408 . S
C801 C800 1.404 . S
C801 H813 0.930 . S
C802 C798 1.524 . S
C802 H814 0.956 . S
C802 H815 0.961 . S
C802 H816 0.961 . S
C803 C800 1.539 . S
C803 H817 0.958 . S
C803 H818 0.961 . S
C803 H819 0.960 . S
H804 C788 0.931 . S
H805 C793 0.929 . S
H806 C794 0.960 . S
H807 C794 0.962 . S
H808 C794 0.960 . S
H809 C795 0.961 . S
H810 C795 0.961 . S
H811 C795 0.961 . S
H812 C796 0.931 . S
H813 C801 0.930 . S
H814 C802 0.956 . S
H815 C802 0.961 . S
H816 C802 0.961 . S
H817 C803 0.958 . S
H818 C803 0.961 . S
H819 C803 0.960 . S
C820 C821 1.391 . S
C820 C822 1.394 . S
C820 H836 0.931 1_455 S
C821 C820 1.391 . S
C821 C825 1.376 . S
C822 C820 1.394 . S
C822 C823 1.369 1_556 S
C822 C826 1.530 1_456 S
C823 C822 1.369 1_554 S
C823 C824 1.410 1_554 S
C823 C831 1.503 . S
C824 C823 1.410 1_556 S
C824 C825 1.392 . S
C824 C827 1.511 1_556 S
C825 C821 1.376 . S
C825 C824 1.392 . S
C825 H837 0.929 . S
C826 C822 1.530 1_654 S
C826 H838 0.959 1_655 S
C826 H839 0.963 . S
C826 H840 0.961 1_554 S
C827 C824 1.511 1_554 S
C827 H841 0.961 1_554 S
C827 H842 0.961 . S
C827 H843 0.961 . S
C828 C829 1.370 . S
C828 C830 1.363 . S
C828 H844 0.931 . S
C829 C828 1.370 . S
C829 C833 1.408 . S
C830 C828 1.363 . S
C830 C831 1.370 . S
C830 C834 1.524 . S
C831 C823 1.503 . S
C831 C830 1.370 . S
C831 C832 1.403 . S
C832 C831 1.403 . S
C832 C833 1.404 . S
C832 C835 1.539 . S
C833 C829 1.408 . S
C833 C832 1.404 . S
C833 H845 0.930 . S
C834 C830 1.524 . S
C834 H846 0.956 1_455 S
C834 H847 0.961 . S
C834 H848 0.961 . S
C835 C832 1.539 . S
C835 H849 0.958 . S
C835 H850 0.961 . S
C835 H851 0.960 . S
H836 C820 0.931 1_655 S
H837 C825 0.929 . S
H838 C826 0.959 1_455 S
H839 C826 0.963 . S
H840 C826 0.961 1_556 S
H841 C827 0.961 1_556 S
H842 C827 0.961 . S
H843 C827 0.961 . S
H844 C828 0.931 . S
H845 C833 0.930 . S
H846 C834 0.956 1_655 S
H847 C834 0.961 . S
H848 C834 0.961 . S
H849 C835 0.958 . S
H850 C835 0.961 . S
H851 C835 0.960 . S
C852 C853 1.391 . S
C852 C854 1.394 . S
C852 H868 0.931 . S
C853 C852 1.391 . S
C853 C857 1.376 . S
C854 C852 1.394 . S
C854 C855 1.369 . S
C854 C858 1.531 . S
C855 C854 1.369 . S
C855 C856 1.410 . S
C855 C863 1.503 . S
C856 C855 1.410 . S
C856 C857 1.392 . S
C856 C859 1.511 . S
C857 C853 1.376 . S
C857 C856 1.392 . S
C857 H869 0.929 . S
C858 C854 1.531 . S
C858 H870 0.960 . S
C858 H871 0.962 . S
C858 H872 0.960 . S
C859 C856 1.511 . S
C859 H873 0.961 . S
C859 H874 0.961 . S
C859 H875 0.961 . S
C860 C861 1.370 . S
C860 C862 1.363 . S
C860 H876 0.931 . S
C861 C860 1.370 . S
C861 C865 1.408 . S
C862 C860 1.363 . S
C862 C863 1.370 . S
C862 C866 1.524 . S
C863 C855 1.503 . S
C863 C862 1.370 . S
C863 C864 1.403 . S
C864 C863 1.403 . S
C864 C865 1.404 . S
C864 C867 1.539 . S
C865 C861 1.408 . S
C865 C864 1.404 . S
C865 H877 0.930 . S
C866 C862 1.524 . S
C866 H878 0.956 . S
C866 H879 0.961 . S
C866 H880 0.961 . S
C867 C864 1.539 . S
C867 H881 0.958 . S
C867 H882 0.961 . S
C867 H883 0.960 . S
H868 C852 0.931 . S
H869 C857 0.929 . S
H870 C858 0.960 . S
H871 C858 0.962 . S
H872 C858 0.960 . S
H873 C859 0.961 . S
H874 C859 0.961 . S
H875 C859 0.961 . S
H876 C860 0.931 . S
H877 C865 0.930 . S
H878 C866 0.956 . S
H879 C866 0.961 . S
H880 C866 0.961 . S
H881 C867 0.958 . S
H882 C867 0.961 . S
H883 C867 0.960 . S
C884 C885 1.391 . S
C884 C886 1.394 . S
C884 H900 0.931 . S
C885 C884 1.391 . S
C885 C889 1.376 . S
C886 C884 1.394 . S
C886 C887 1.369 . S
C886 C890 1.531 . S
C887 C886 1.369 . S
C887 C888 1.410 . S
C887 C895 1.503 . S
C888 C887 1.410 . S
C888 C889 1.392 . S
C888 C891 1.511 . S
C889 C885 1.376 . S
C889 C888 1.392 . S
C889 H901 0.929 . S
C890 C886 1.531 . S
C890 H902 0.960 . S
C890 H903 0.962 . S
C890 H904 0.960 . S
C891 C888 1.511 . S
C891 H905 0.961 . S
C891 H906 0.961 . S
C891 H907 0.961 . S
C892 C893 1.370 . S
C892 C894 1.363 . S
C892 H908 0.931 . S
C893 C892 1.370 . S
C893 C897 1.408 . S
C894 C892 1.363 . S
C894 C895 1.370 . S
C894 C898 1.524 . S
C895 C887 1.503 . S
C895 C894 1.370 . S
C895 C896 1.403 . S
C896 C895 1.403 . S
C896 C897 1.404 . S
C896 C899 1.539 . S
C897 C893 1.408 . S
C897 C896 1.404 . S
C897 H909 0.930 . S
C898 C894 1.524 . S
C898 H910 0.956 . S
C898 H911 0.961 . S
C898 H912 0.961 . S
C899 C896 1.539 . S
C899 H913 0.958 . S
C899 H914 0.961 . S
C899 H915 0.960 . S
H900 C884 0.931 . S
H901 C889 0.929 . S
H902 C890 0.960 . S
H903 C890 0.962 . S
H904 C890 0.960 . S
H905 C891 0.961 . S
H906 C891 0.961 . S
H907 C891 0.961 . S
H908 C892 0.931 . S
H909 C897 0.930 . S
H910 C898 0.956 . S
H911 C898 0.961 . S
H912 C898 0.961 . S
H913 C899 0.958 . S
H914 C899 0.961 . S
H915 C899 0.960 . S
C916 C917 1.391 . S
C916 C918 1.394 . S
C916 H932 0.931 . S
C917 C916 1.391 . S
C917 C921 1.376 . S
C918 C916 1.394 . S
C918 C919 1.369 . S
C918 C922 1.531 . S
C919 C918 1.369 . S
C919 C920 1.410 . S
C919 C927 1.503 . S
C920 C919 1.410 . S
C920 C921 1.392 . S
C920 C923 1.511 . S
C921 C917 1.376 . S
C921 C920 1.392 . S
C921 H933 0.929 . S
C922 C918 1.531 . S
C922 H934 0.960 . S
C922 H935 0.962 . S
C922 H936 0.960 . S
C923 C920 1.511 . S
C923 H937 0.961 . S
C923 H938 0.961 . S
C923 H939 0.961 . S
C924 C925 1.370 . S
C924 C926 1.363 . S
C924 H940 0.931 . S
C925 C924 1.370 . S
C925 C929 1.408 . S
C926 C924 1.363 . S
C926 C927 1.370 . S
C926 C930 1.524 . S
C927 C919 1.503 . S
C927 C926 1.370 . S
C927 C928 1.403 . S
C928 C927 1.403 . S
C928 C929 1.404 . S
C928 C931 1.539 . S
C929 C925 1.408 . S
C929 C928 1.404 . S
C929 H941 0.930 . S
C930 C926 1.524 . S
C930 H942 0.956 . S
C930 H943 0.961 . S
C930 H944 0.961 . S
C931 C928 1.539 . S
C931 H945 0.958 . S
C931 H946 0.961 . S
C931 H947 0.960 . S
H932 C916 0.931 . S
H933 C921 0.929 . S
H934 C922 0.960 . S
H935 C922 0.962 . S
H936 C922 0.960 . S
H937 C923 0.961 . S
H938 C923 0.961 . S
H939 C923 0.961 . S
H940 C924 0.931 . S
H941 C929 0.930 . S
H942 C930 0.956 . S
H943 C930 0.961 . S
H944 C930 0.961 . S
H945 C931 0.958 . S
H946 C931 0.961 . S
H947 C931 0.960 . S
C189 C103 1.417 . S
C181 C6 1.588 . S
C221 C121 1.575 . S
C213 C18 1.686 1_655 S
C245 C28 1.409 . S
C253 C145 1.300 . S
C285 C175 1.123 1_655 S
C277 C40 1.168 . S
C317 C163 1.273 . S
C309 C54 1.358 . S
C341 C64 1.153 . S
C349 C116 1.160 1_655 S
C373 C76 1.570 . S
C381 C136 1.522 . S
C405 C90 1.695 . S
C413 C141 1.508 . S
C437 C88 1.179 . S
C445 C157 1.120 . S
C469 C66 1.696 . S
C477 C112 1.506 . S
C509 C179 1.598 . S
C501 C42 1.688 . S
C541 C124 1.096 . S
C533 C16 1.214 . S
C565 C30 1.570 . S
C573 C142 1.426 . S
C597 C4 1.391 . S
C605 C100 1.315 . S
C637 C120 1.243 . S
C629 C78 1.335 . S
C669 C166 1.518 . S
C661 C52 1.572 . S
C701 C162 1.344 . S
C693 C9 1.488 . S
C733 C115 1.477 . S
C725 C21 1.553 . S
C757 C33 1.468 . S
C765 C137 1.320 . S
C789 C45 1.573 . S
C797 C158 1.495 . S
C829 C99 1.356 . S
C821 C57 1.528 . S
C853 C69 1.506 . S
C861 C133 1.398 . S
C893 C154 1.323 . S
C885 C81 1.580 . S
C925 C178 1.372 . S
C917 C93 1.482 . S
