# Generated by pormake.
# Topology hwx, (6,3)-cn, num edge types: 1
# Building blocks:
#     Node 0, Type 0, BuildingBlock: OJICUG_clean_sbu_0, # of connection points: 6
#     Node 1, Type 0, BuildingBlock: OJICUG_clean_sbu_0, # of connection points: 6
#     Node 2, Type 0, BuildingBlock: OJICUG_clean_sbu_0, # of connection points: 6
#     Node 3, Type 0, BuildingBlock: OJICUG_clean_sbu_0, # of connection points: 6
#     Node 4, Type 1, BuildingBlock: ESEHIV_clean_linker_0, # of connection points: 3
#     Node 5, Type 1, BuildingBlock: ESEHIV_clean_linker_0, # of connection points: 3
#     Node 6, Type 1, BuildingBlock: ESEHIV_clean_linker_0, # of connection points: 3
#     Node 7, Type 1, BuildingBlock: ESEHIV_clean_linker_0, # of connection points: 3
#     Node 8, Type 1, BuildingBlock: ESEHIV_clean_linker_0, # of connection points: 3
#     Node 9, Type 1, BuildingBlock: ESEHIV_clean_linker_0, # of connection points: 3
#     Node 10, Type 1, BuildingBlock: ESEHIV_clean_linker_0, # of connection points: 3
#     Node 11, Type 1, BuildingBlock: ESEHIV_clean_linker_0, # of connection points: 3
#     Edge 12, Type (0, 1), BuildingBlock: CIFDUS_clean_linker_0, # of connection points: 2
#     Edge 13, Type (0, 1), BuildingBlock: CIFDUS_clean_linker_0, # of connection points: 2
#     Edge 14, Type (0, 1), BuildingBlock: CIFDUS_clean_linker_0, # of connection points: 2
#     Edge 15, Type (0, 1), BuildingBlock: CIFDUS_clean_linker_0, # of connection points: 2
#     Edge 16, Type (0, 1), BuildingBlock: CIFDUS_clean_linker_0, # of connection points: 2
#     Edge 17, Type (0, 1), BuildingBlock: CIFDUS_clean_linker_0, # of connection points: 2
#     Edge 18, Type (0, 1), BuildingBlock: CIFDUS_clean_linker_0, # of connection points: 2
#     Edge 19, Type (0, 1), BuildingBlock: CIFDUS_clean_linker_0, # of connection points: 2
#     Edge 20, Type (0, 1), BuildingBlock: CIFDUS_clean_linker_0, # of connection points: 2
#     Edge 21, Type (0, 1), BuildingBlock: CIFDUS_clean_linker_0, # of connection points: 2
#     Edge 22, Type (0, 1), BuildingBlock: CIFDUS_clean_linker_0, # of connection points: 2
#     Edge 23, Type (0, 1), BuildingBlock: CIFDUS_clean_linker_0, # of connection points: 2
#     Edge 24, Type (0, 1), BuildingBlock: CIFDUS_clean_linker_0, # of connection points: 2
#     Edge 25, Type (0, 1), BuildingBlock: CIFDUS_clean_linker_0, # of connection points: 2
#     Edge 26, Type (0, 1), BuildingBlock: CIFDUS_clean_linker_0, # of connection points: 2
#     Edge 27, Type (0, 1), BuildingBlock: CIFDUS_clean_linker_0, # of connection points: 2
#     Edge 28, Type (0, 1), BuildingBlock: CIFDUS_clean_linker_0, # of connection points: 2
#     Edge 29, Type (0, 1), BuildingBlock: CIFDUS_clean_linker_0, # of connection points: 2
#     Edge 30, Type (0, 1), BuildingBlock: CIFDUS_clean_linker_0, # of connection points: 2
#     Edge 31, Type (0, 1), BuildingBlock: CIFDUS_clean_linker_0, # of connection points: 2
#     Edge 32, Type (0, 1), BuildingBlock: CIFDUS_clean_linker_0, # of connection points: 2
#     Edge 33, Type (0, 1), BuildingBlock: CIFDUS_clean_linker_0, # of connection points: 2
#     Edge 34, Type (0, 1), BuildingBlock: CIFDUS_clean_linker_0, # of connection points: 2
#     Edge 35, Type (0, 1), BuildingBlock: CIFDUS_clean_linker_0, # of connection points: 2
# Relax obj value: 0.076
# Max RMSD: 0.101
# Mean RMSD: 0.093
data_MOF--net-hwx--node1-OJICUG_clean_sbu_0--node2-ESEHIV_clean_linker_0--edge1-CIFDUS_clean_linker_0
_symmetry_space_group_name_H-M    P1
_symmetry_Int_Tables_number       1
_symmetry_cell_setting            triclinic
loop_
_symmetry_equiv_pos_as_xyz
'x, y, z'
_cell_length_a     41.313424
_cell_length_b     41.50833
_cell_length_c     18.746779
_cell_angle_alpha  89.952413
_cell_angle_beta   90.070966
_cell_angle_gamma 90.013194
loop_
_atom_site_label
_atom_site_type_symbol
_atom_site_fract_x
_atom_site_fract_y
_atom_site_fract_z
_atom_type_partial_charge
Sc0 Sc 0.2267 0.22613 0.12296 0.0
Sc1 Sc 0.17751 0.17241 0.02531 0.0
Sc2 Sc 0.22752 0.22862 0.93583 0.0
O3 O 0.21059 0.20897 0.02797 0.0
C4 C 0.22283 0.29123 0.03418 0.0
C5 C 0.15129 0.21634 0.15286 0.0
C6 C 0.15235 0.21961 0.90178 0.0
C7 C 0.22213 0.15078 0.15533 0.0
C8 C 0.2916 0.22323 0.03033 0.0
C9 C 0.22284 0.15365 0.89438 0.0
O10 O 0.22291 0.27574 0.09241 0.0
O11 O 0.14752 0.19466 0.10563 0.0
O12 O 0.17927 0.23406 0.8933 0.0
O13 O 0.23245 0.17905 0.16701 0.0
O14 O 0.27729 0.2251 0.97027 0.0
O15 O 0.20335 0.14598 0.94405 0.0
O16 O 0.27663 0.22341 0.08965 0.0
O17 O 0.20235 0.14416 0.1054 0.0
O18 O 0.23292 0.18232 0.8853 0.0
O19 O 0.1783 0.2301 0.16457 0.0
O20 O 0.22453 0.27755 0.97371 0.0
O21 O 0.14856 0.19653 0.94572 0.0
Sc22 Sc 0.27253 0.72153 0.41327 0.0
Sc23 Sc 0.3266 0.66734 0.49407 0.0
Sc24 Sc 0.27612 0.71629 0.59784 0.0
O25 O 0.29196 0.7017 0.50166 0.0
C26 C 0.2769 0.78208 0.51997 0.0
C27 C 0.34677 0.71954 0.37565 0.0
C28 C 0.35175 0.70635 0.62698 0.0
C29 C 0.28161 0.64802 0.36571 0.0
C30 C 0.21077 0.71519 0.50627 0.0
C31 C 0.27973 0.64086 0.61621 0.0
O32 O 0.26877 0.7691 0.46101 0.0
O33 O 0.35199 0.69369 0.41081 0.0
O34 O 0.32334 0.71444 0.64542 0.0
O35 O 0.27306 0.67694 0.35347 0.0
O36 O 0.2266 0.72095 0.56303 0.0
O37 O 0.30425 0.63777 0.57558 0.0
O38 O 0.22425 0.71016 0.44647 0.0
O39 O 0.29901 0.63995 0.41844 0.0
O40 O 0.26571 0.66766 0.6269 0.0
O41 O 0.31961 0.73395 0.37537 0.0
O42 O 0.28523 0.76582 0.57425 0.0
O43 O 0.35764 0.69077 0.57022 0.0
Sc44 Sc 0.77084 0.77087 0.89179 0.0
Sc45 Sc 0.8339 0.81741 0.96778 0.0
Sc46 Sc 0.78051 0.77297 0.07695 0.0
O47 O 0.79515 0.7871 0.97875 0.0
C48 C 0.71257 0.78177 -0.00176 0.0
C49 C 0.78576 0.84378 0.84777 0.0
C50 C 0.79462 0.84768 0.09767 0.0
C51 C 0.84467 0.76641 0.84267 0.0
C52 C 0.77315 0.70812 0.99091 0.0
C53 C 0.85734 0.77309 0.09627 0.0
O54 O 0.72412 0.7805 0.93567 0.0
O55 O 0.80984 0.84677 0.88942 0.0
O56 O 0.78072 0.82136 0.11336 0.0
O57 O 0.81495 0.75881 0.83901 0.0
O58 O 0.77885 0.72324 0.04828 0.0
O59 O 0.86324 0.79216 0.04493 0.0
O60 O 0.76887 0.72198 0.93106 0.0
O61 O 0.85555 0.78743 0.88605 0.0
O62 O 0.82887 0.76473 0.11338 0.0
O63 O 0.76941 0.81791 0.84312 0.0
O64 O 0.72983 0.77903 0.05396 0.0
O65 O 0.81555 0.8503 0.04813 0.0
Sc66 Sc 0.72702 0.26623 0.57654 0.0
Sc67 Sc 0.67632 0.31905 0.48018 0.0
Sc68 Sc 0.72616 0.26357 0.38966 0.0
O69 O 0.70985 0.28305 0.48214 0.0
C70 C 0.79104 0.26888 0.48007 0.0
C71 C 0.72251 0.34119 0.60799 0.0
C72 C 0.72019 0.33844 0.34847 0.0
C73 C 0.65149 0.2757 0.60903 0.0
C74 C 0.72186 0.20138 0.4899 0.0
C75 C 0.65109 0.27154 0.35729 0.0
O76 O 0.77677 0.26617 0.53999 0.0
O77 O 0.70062 0.34671 0.56179 0.0
O78 O 0.72925 0.30962 0.33734 0.0
O79 O 0.67929 0.26402 0.62262 0.0
O80 O 0.72552 0.2147 0.42938 0.0
O81 O 0.64783 0.29548 0.39903 0.0
O82 O 0.72042 0.21702 0.54769 0.0
O83 O 0.64643 0.29565 0.55876 0.0
O84 O 0.67761 0.25624 0.35055 0.0
O85 O 0.73502 0.31359 0.6172 0.0
O86 O 0.77594 0.26967 0.42091 0.0
O87 O 0.70223 0.3463 0.40066 0.0
H88 H 0.21898 0.57482 0.96873 0.0
H89 H 0.21259 0.48138 0.87456 0.0
H90 H 0.24438 0.49115 0.09276 0.0
C91 C 0.22074 0.54888 0.9744 0.0
C92 C 0.23259 0.5356 0.03815 0.0
C93 C 0.21465 0.52954 0.915 0.0
C94 C 0.21722 0.49617 0.92113 0.0
C95 C 0.2271 0.48197 0.98566 0.0
C96 C 0.23482 0.50183 0.04437 0.0
H97 H 0.9256 0.72026 0.48167 0.0
H98 H 0.01169 0.70526 0.35858 0.0
H99 H 0.01697 0.71117 0.5883 0.0
C100 C 0.95141 0.71561 0.47962 0.0
C101 C 0.96965 0.71628 0.54262 0.0
C102 C 0.96641 0.71126 0.41336 0.0
C103 C 7e-05 0.70745 0.41015 0.0
C104 C 0.01869 0.70736 0.47305 0.0
C105 C 0.00312 0.71148 0.53919 0.0
H106 H 0.72244 0.42881 0.98116 0.0
H107 H 0.72784 0.51899 0.09369 0.0
H108 H 0.72578 0.51733 0.86376 0.0
C109 C 0.72407 0.45488 0.98076 0.0
C110 C 0.72376 0.47126 0.91544 0.0
C111 C 0.72547 0.47187 0.04543 0.0
C112 C 0.72666 0.50569 0.04402 0.0
C113 C 0.7267 0.52232 0.97853 0.0
C114 C 0.725 0.50486 0.91459 0.0
H115 H 0.07773 0.27799 0.52547 0.0
H116 H 0.98909 0.2728 0.64341 0.0
H117 H 0.9881 0.26644 0.41308 0.0
C118 C 0.0515 0.27672 0.52621 0.0
C119 C 0.03465 0.27354 0.46183 0.0
C120 C 0.03531 0.27583 0.59166 0.0
C121 C 0.00148 0.27277 0.59253 0.0
C122 C 0.98383 0.26993 0.52827 0.0
C123 C 0.00088 0.26981 0.463 0.0
H124 H 0.72922 0.91708 0.46984 0.0
H125 H 0.73551 0.00625 0.58549 0.0
H126 H 0.73699 0.00597 0.35517 0.0
C127 C 0.73017 0.9432 0.47014 0.0
C128 C 0.73295 0.95982 0.40553 0.0
C129 C 0.7311 0.95973 0.53523 0.0
C130 C 0.73418 0.99344 0.53521 0.0
C131 C 0.73612 0.01046 0.47024 0.0
C132 C 0.73556 0.99332 0.4057 0.0
H133 H 0.57799 0.21171 0.98186 0.0
H134 H 0.48862 0.2218 0.09529 0.0
H135 H 0.48917 0.21877 0.86463 0.0
C136 C 0.55175 0.21295 0.9813 0.0
C137 C 0.53545 0.2149 0.91601 0.0
C138 C 0.53503 0.21519 0.04592 0.0
C139 C 0.50127 0.21902 0.0451 0.0
C140 C 0.4841 0.21995 0.97994 0.0
C141 C 0.50163 0.218 0.91546 0.0
H142 H 0.22796 0.06248 0.5301 0.0
H143 H 0.23063 0.97451 0.41105 0.0
H144 H 0.23553 0.9718 0.64075 0.0
C145 C 0.22998 0.03644 0.52917 0.0
C146 C 0.23226 0.01921 0.59354 0.0
C147 C 0.22902 0.02036 0.46355 0.0
C148 C 0.23054 0.98677 0.46212 0.0
C149 C 0.23305 0.96899 0.52561 0.0
C150 C 0.2338 0.98534 0.59145 0.0
H151 H 0.4286 0.74904 0.02167 0.0
H152 H 0.50998 0.764 0.88394 0.0
H153 H 0.52435 0.74995 0.11022 0.0
C154 C 0.45446 0.75219 0.01454 0.0
C155 C 0.47501 0.75006 0.07377 0.0
C156 C 0.467 0.75658 0.94596 0.0
C157 C 0.50047 0.75974 0.93697 0.0
C158 C 0.52153 0.7577 -0.0041 0.0
C159 C 0.50854 0.75241 0.06436 0.0
H160 H 0.14377 0.27086 0.23085 0.0
H161 H 0.09585 0.18178 0.17639 0.0
H162 H 0.0526 0.19387 0.26105 0.0
H163 H 0.03178 0.2269 0.36038 0.0
H164 H 0.08047 0.31538 0.41513 0.0
H165 H 0.11976 0.30663 0.31984 0.0
C166 C 0.12376 0.25417 0.23709 0.0
C167 C 0.12336 0.22521 0.19825 0.0
C168 C 0.09908 0.26119 0.28595 0.0
C169 C 0.09689 0.20417 0.20596 0.0
C170 C 0.07216 0.21102 0.25447 0.0
C171 C 0.05047 0.24464 0.34999 0.0
C172 C 0.05345 0.27161 0.3948 0.0
C173 C 0.0734 0.23909 0.29602 0.0
C174 C 0.07793 0.29433 0.38144 0.0
C175 C 0.10046 0.28926 0.32728 0.0
H176 H 0.22241 0.6356 0.68518 0.0
H177 H 0.30881 0.58199 0.633 0.0
H178 H 0.29123 0.53808 0.71058 0.0
H179 H 0.25638 0.51975 0.8082 0.0
H180 H 0.17276 0.57564 0.86753 0.0
H181 H 0.18363 0.61356 0.7704 0.0
C182 C 0.23732 0.6142 0.69017 0.0
C183 C 0.26733 0.61245 0.65496 0.0
C184 C 0.22742 0.58943 0.73583 0.0
C185 C 0.28587 0.58418 0.66046 0.0
C186 C 0.27583 0.55906 0.70476 0.0
C187 C 0.23983 0.53952 0.79783 0.0
C188 C 0.21385 0.54511 0.84445 0.0
C189 C 0.24729 0.56202 0.7447 0.0
C190 C 0.1928 0.571 0.83176 0.0
C191 C 0.19927 0.59281 0.77696 0.0
H192 H 0.85592 0.72251 0.18703 0.0
H193 H 0.91934 0.79653 0.10551 0.0
H194 H 0.96102 0.78073 0.19149 0.0
H195 H 0.9765 0.75023 0.29939 0.0
H196 H 0.91165 0.67803 0.38263 0.0
H197 H 0.87342 0.68862 0.28588 0.0
C198 C 0.87895 0.73508 0.18756 0.0
C199 C 0.88428 0.76105 0.14085 0.0
C200 C 0.90246 0.72625 0.23763 0.0
C201 C 0.91452 0.77659 0.14126 0.0
C202 C 0.93832 0.76765 0.19057 0.0
C203 C 0.95435 0.73632 0.29507 0.0
C204 C 0.94665 0.71355 0.34791 0.0
C205 C 0.93217 0.74311 0.24032 0.0
C206 C 0.91781 0.69583 0.34257 0.0
C207 C 0.89598 0.70194 0.28752 0.0
H208 H 0.69185 0.39841 0.63034 0.0
H209 H 0.77305 0.34117 0.70171 0.0
H210 H 0.78173 0.3778 0.80116 0.0
H211 H 0.76281 0.42265 0.87494 0.0
H212 H 0.68161 0.47979 0.80529 0.0
H213 H 0.67644 0.44671 0.69773 0.0
C214 C 0.71183 0.39426 0.6668 0.0
C215 C 0.73139 0.36677 0.65918 0.0
C216 C 0.71641 0.41514 0.72472 0.0
C217 C 0.7573 0.36189 0.70681 0.0
C218 C 0.76226 0.38277 0.76391 0.0
C219 C 0.74412 0.42785 0.83587 0.0
C220 C 0.72231 0.45311 0.84799 0.0
C221 C 0.74132 0.4088 0.77464 0.0
C222 C 0.69855 0.46025 0.79676 0.0
C223 C 0.69558 0.44136 0.73552 0.0
H224 H 0.64448 0.21728 0.27698 0.0
H225 H 0.59479 0.30489 0.33545 0.0
H226 H 0.55172 0.29269 0.25067 0.0
H227 H 0.53147 0.26041 0.14999 0.0
H228 H 0.5818 0.1736 0.09006 0.0
H229 H 0.62102 0.18199 0.18595 0.0
C230 C 0.62411 0.2336 0.27172 0.0
C231 C 0.62324 0.26223 0.31178 0.0
C232 C 0.5995 0.2266 0.22246 0.0
C233 C 0.59632 0.28279 0.30498 0.0
C234 C 0.57163 0.27588 0.25637 0.0
C235 C 0.55049 0.2429 0.15935 0.0
C236 C 0.55394 0.21656 0.11298 0.0
C237 C 0.57338 0.24828 0.21354 0.0
C238 C 0.57889 0.19419 0.12499 0.0
C239 C 0.60137 0.19905 0.17951 0.0
H240 H 0.19908 0.09241 0.87865 0.0
H241 H 0.26858 0.15914 0.79007 0.0
H242 H 0.27997 0.12174 0.69348 0.0
H243 H 0.26674 0.07255 0.62781 0.0
H244 H 0.19621 0.00629 0.71268 0.0
H245 H 0.1893 0.04063 0.81776 0.0
C246 C 0.21705 0.09862 0.83883 0.0
C247 C 0.23258 0.12885 0.84142 0.0
C248 C 0.22328 0.07708 0.78252 0.0
C249 C 0.25591 0.13629 0.78927 0.0
C250 C 0.26249 0.11489 0.73383 0.0
C251 C 0.25003 0.06552 0.66962 0.0
C252 C 0.23173 0.03714 0.66211 0.0
C253 C 0.24573 0.08564 0.72892 0.0
C254 C 0.21065 0.02797 0.71731 0.0
C255 C 0.2065 0.04774 0.77709 0.0
H256 H 0.40441 0.69159 0.33884 0.0
H257 H 0.34719 0.77774 0.30866 0.0
H258 H 0.38508 0.7969 0.21931 0.0
H259 H 0.43018 0.78619 0.13887 0.0
H260 H 0.48706 0.70003 0.16454 0.0
H261 H 0.45411 0.6842 0.26765 0.0
C262 C 0.40051 0.71477 0.31354 0.0
C263 C 0.37256 0.73279 0.32942 0.0
C264 C 0.42229 0.72564 0.26127 0.0
C265 C 0.3681 0.76298 0.29659 0.0
C266 C 0.3898 0.77408 0.24547 0.0
C267 C 0.43569 0.7643 0.16821 0.0
C268 C 0.4606 0.74411 0.14441 0.0
C269 C 0.4163 0.75513 0.22579 0.0
C270 C 0.46794 0.71592 0.18251 0.0
C271 C 0.44893 0.70677 0.24086 0.0
H272 H 0.73199 0.85031 0.7649 0.0
H273 H 0.81997 0.89941 0.8258 0.0
H274 H 0.80819 0.94241 0.741 0.0
H275 H 0.77598 0.96303 0.64031 0.0
H276 H 0.68911 0.91302 0.57724 0.0
H277 H 0.69708 0.87373 0.67289 0.0
C278 C 0.74852 0.8705 0.76008 0.0
C279 C 0.77709 0.87127 0.80095 0.0
C280 C 0.74175 0.89507 0.71083 0.0
C281 C 0.79792 0.89796 0.79465 0.0
C282 C 0.79123 0.92262 0.74611 0.0
C283 C 0.75837 0.94404 0.64896 0.0
C284 C 0.73207 0.94077 0.60199 0.0
C285 C 0.76361 0.92106 0.70277 0.0
C286 C 0.70959 0.91584 0.61286 0.0
C287 C 0.71424 0.89331 0.66717 0.0
H288 H 0.90746 0.78214 0.81145 0.0
H289 H 0.83187 0.71383 0.76087 0.0
H290 H 0.86551 0.69004 0.66894 0.0
H291 H 0.91411 0.69155 0.5953 0.0
H292 H 0.9894 0.76038 0.64155 0.0
H293 H 0.95859 0.78041 0.74372 0.0
C294 C 0.89851 0.76183 0.78088 0.0
C295 C 0.86694 0.75027 0.79235 0.0
C296 C 0.91793 0.74827 0.72722 0.0
C297 C 0.85584 0.7237 0.75251 0.0
C298 C 0.87508 0.70993 0.69989 0.0
C299 C 0.92386 0.71073 0.62825 0.0
C300 C 0.95371 0.72469 0.61072 0.0
C301 C 0.90578 0.72253 0.68561 0.0
C302 C 0.96645 0.74915 0.65434 0.0
C303 C 0.94873 0.7608 0.71232 0.0
H304 H 0.69487 0.39885 0.33217 0.0
H305 H 0.76579 0.33362 0.24402 0.0
H306 H 0.77582 0.37086 0.14618 0.0
H307 H 0.76102 0.41936 0.07966 0.0
H308 H 0.6889 0.48395 0.16405 0.0
H309 H 0.68331 0.44992 0.27009 0.0
C310 C 0.71287 0.39298 0.29219 0.0
C311 C 0.72921 0.36322 0.2951 0.0
C312 C 0.71823 0.41433 0.23517 0.0
C313 C 0.75252 0.35612 0.24278 0.0
C314 C 0.75831 0.37741 0.18668 0.0
C315 C 0.74419 0.42605 0.1215 0.0
C316 C 0.72509 0.45384 0.11372 0.0
C317 C 0.74069 0.40612 0.18135 0.0
C318 C 0.70391 0.46266 0.16893 0.0
C319 C 0.70055 0.4431 0.22928 0.0
H320 H 0.14695 0.27289 0.81763 0.0
H321 H 0.09488 0.18777 0.88395 0.0
H322 H 0.05142 0.20043 0.80042 0.0
H323 H 0.03119 0.23228 0.69897 0.0
H324 H 0.08388 0.31652 0.631 0.0
H325 H 0.12381 0.30789 0.72544 0.0
C326 C 0.126 0.25721 0.8143 0.0
C327 C 0.12453 0.22913 0.8563 0.0
C328 C 0.10114 0.26449 0.7658 0.0
C329 C 0.09687 0.20941 0.85197 0.0
C330 C 0.07195 0.21661 0.80411 0.0
C331 C 0.05091 0.24923 0.70627 0.0
C332 C 0.05476 0.27487 0.65806 0.0
C333 C 0.07419 0.24365 0.75955 0.0
C334 C 0.08061 0.29649 0.66739 0.0
C335 C 0.1035 0.29147 0.72106 0.0
H336 H 0.28806 0.64962 0.22353 0.0
H337 H 0.25374 0.59004 0.39562 0.0
H338 H 0.23574 0.54898 0.30995 0.0
H339 H 0.22814 0.53126 0.1845 0.0
H340 H 0.26872 0.58942 0.01553 0.0
H341 H 0.28587 0.6296 0.10125 0.0
C342 C 0.27661 0.62761 0.24201 0.0
C343 C 0.27169 0.62287 0.31508 0.0
C344 C 0.26735 0.60391 0.19294 0.0
C345 C 0.25754 0.59408 0.33914 0.0
C346 C 0.24727 0.57069 0.29028 0.0
C347 C 0.24103 0.55254 0.16666 0.0
C348 C 0.24593 0.55777 0.09327 0.0
C349 C 0.25187 0.57543 0.2168 0.0
C350 C 0.26323 0.58532 0.07128 0.0
C351 C 0.27338 0.60831 0.12032 0.0
H352 H 0.35075 0.75108 0.73164 0.0
H353 H 0.41354 0.68215 0.62894 0.0
H354 H 0.45641 0.69439 0.71488 0.0
H355 H 0.47398 0.72111 0.8257 0.0
H356 H 0.41035 0.78906 0.9286 0.0
H357 H 0.36977 0.78086 0.83549 0.0
C358 C 0.37383 0.73875 0.72777 0.0
C359 C 0.37876 0.71536 0.67469 0.0
C360 C 0.39815 0.74572 0.77738 0.0
C361 C 0.40905 0.70012 0.66961 0.0
C362 C 0.43354 0.70707 0.71877 0.0
C363 C 0.45151 0.73462 0.8267 0.0
C364 C 0.44496 0.75548 0.88391 0.0
C365 C 0.42811 0.72936 0.77369 0.0
C366 C 0.41567 0.77263 0.88528 0.0
C367 C 0.39251 0.76793 0.83223 0.0
H368 H 0.73829 0.85614 0.16588 0.0
H369 H 0.82982 0.90265 0.12463 0.0
H370 H 0.81625 0.94495 0.21098 0.0
H371 H 0.78136 0.96401 0.30933 0.0
H372 H 0.6919 0.91446 0.3542 0.0
H373 H 0.70159 0.87775 0.2546 0.0
C374 C 0.75527 0.87563 0.17537 0.0
C375 C 0.78534 0.87596 0.14038 0.0
C376 C 0.74768 0.89907 0.22585 0.0
C377 C 0.80665 0.90181 0.15154 0.0
C378 C 0.79895 0.92583 0.20106 0.0
C379 C 0.76372 0.94561 0.29595 0.0
C380 C 0.73606 0.9416 0.33865 0.0
C381 C 0.76999 0.92406 0.24013 0.0
C382 C 0.7134 0.91763 0.32191 0.0
C383 C 0.71898 0.89671 0.26529 0.0
H384 H 0.64677 0.22191 0.69055 0.0
H385 H 0.59419 0.30743 0.62932 0.0
H386 H 0.55089 0.29355 0.7126 0.0
H387 H 0.53097 0.26013 0.81205 0.0
H388 H 0.5841 0.17511 0.87355 0.0
H389 H 0.62394 0.18547 0.78007 0.0
C390 C 0.62577 0.23745 0.69514 0.0
C391 C 0.62399 0.26595 0.65474 0.0
C392 C 0.60102 0.22935 0.74305 0.0
C393 C 0.59628 0.28546 0.66019 0.0
C394 C 0.57151 0.27756 0.70784 0.0
C395 C 0.55077 0.24342 0.8035 0.0
C396 C 0.55479 0.21703 0.84971 0.0
C397 C 0.57397 0.24993 0.75067 0.0
C398 C 0.58072 0.1957 0.83876 0.0
C399 C 0.60356 0.20171 0.78567 0.0
H400 H 0.19246 0.09307 0.17979 0.0
H401 H 0.27286 0.15213 0.24792 0.0
H402 H 0.28308 0.11583 0.34738 0.0
H403 H 0.26612 0.07035 0.42162 0.0
H404 H 0.18582 0.01119 0.35542 0.0
H405 H 0.17872 0.04433 0.24835 0.0
C406 C 0.21259 0.09765 0.21557 0.0
C407 C 0.23154 0.12552 0.20696 0.0
C408 C 0.2181 0.0769 0.27354 0.0
C409 C 0.25758 0.13108 0.25384 0.0
C410 C 0.26344 0.11039 0.31091 0.0
C411 C 0.24717 0.06473 0.38347 0.0
C412 C 0.22625 0.0388 0.39643 0.0
C413 C 0.24327 0.08382 0.32247 0.0
C414 C 0.20214 0.03119 0.34628 0.0
C415 C 0.19805 0.05014 0.2853 0.0
H416 H 0.24559 0.3332 0.93584 0.0
H417 H 0.19808 0.32887 0.14043 0.0
H418 H 0.19663 0.38773 0.14572 0.0
H419 H 0.20744 0.44058 0.08991 0.0
H420 H 0.25696 0.44406 0.8875 0.0
H421 H 0.25919 0.38545 0.8839 0.0
C422 C 0.23478 0.34514 0.98142 0.0
C423 C 0.22168 0.32676 0.03723 0.0
C424 C 0.23448 0.37886 0.98464 0.0
C425 C 0.20829 0.34254 0.09664 0.0
C426 C 0.20746 0.37618 0.09975 0.0
C427 C 0.21908 0.42844 0.04562 0.0
C428 C 0.23151 0.44657 0.98857 0.0
C429 C 0.2204 0.39461 0.04391 0.0
C430 C 0.24656 0.43058 0.93137 0.0
C431 C 0.24793 0.39708 0.92928 0.0
H432 H 0.16797 0.68355 0.42132 0.0
H433 H 0.17409 0.74931 0.59915 0.0
H434 H 0.11528 0.7531 0.60327 0.0
H435 H 0.06259 0.73907 0.55472 0.0
H436 H 0.05538 0.66991 0.38338 0.0
H437 H 0.11434 0.66682 0.37709 0.0
C438 C 0.15634 0.69865 0.46093 0.0
C439 C 0.17523 0.71617 0.50971 0.0
C440 C 0.12247 0.70036 0.46377 0.0
C441 C 0.16 0.73543 0.56131 0.0
C442 C 0.12641 0.73773 0.56353 0.0
C443 C 0.07375 0.72276 0.51688 0.0
C444 C 0.05447 0.70469 0.46978 0.0
C445 C 0.10747 0.72036 0.51496 0.0
C446 C 0.06959 0.68446 0.4197 0.0
C447 C 0.1033 0.68248 0.41639 0.0
H448 H 0.73284 0.67101 0.91293 0.0
H449 H 0.80412 0.66699 0.08104 0.0
H450 H 0.79526 0.60901 0.09386 0.0
H451 H 0.76743 0.55959 0.05654 0.0
H452 H 0.69389 0.56441 0.89311 0.0
H453 H 0.70339 0.62209 0.87928 0.0
C454 C 0.74665 0.65732 0.95179 0.0
C455 C 0.76931 0.67298 -0.00458 0.0
C456 C 0.74083 0.6243 0.96011 0.0
C457 C 0.7866 0.65526 0.04671 0.0
C458 C 0.78149 0.62221 0.05419 0.0
C459 C 0.75311 0.57338 0.0188 0.0
C460 C 0.73013 0.55777 0.97571 0.0
C461 C 0.75853 0.60653 0.01143 0.0
C462 C 0.71204 0.57585 0.92627 0.0
C463 C 0.71742 0.6088 0.91834 0.0
H464 H 0.83396 0.24582 0.57788 0.0
H465 H 0.82833 0.29817 0.37928 0.0
H466 H 0.88718 0.30359 0.37732 0.0
H467 H 0.94006 0.29424 0.43276 0.0
H468 H 0.94611 0.23792 0.62626 0.0
H469 H 0.88733 0.23396 0.63007 0.0
C470 C 0.84564 0.25847 0.53428 0.0
C471 C 0.82677 0.27167 0.47899 0.0
C472 C 0.87957 0.261 0.53276 0.0
C473 C 0.84228 0.28766 0.42238 0.0
C474 C 0.87594 0.29085 0.4213 0.0
C475 C 0.9287 0.28064 0.47528 0.0
C476 C 0.94781 0.26667 0.52939 0.0
C477 C 0.89483 0.2776 0.47617 0.0
C478 C 0.93226 0.24965 0.58464 0.0
C479 C 0.89854 0.24708 0.58661 0.0
H480 H 0.75444 0.15864 0.40876 0.0
H481 H 0.68652 0.16544 0.58258 0.0
H482 H 0.68553 0.10673 0.59351 0.0
H483 H 0.70353 0.05354 0.55232 0.0
H484 H 0.77452 0.04723 0.38408 0.0
H485 H 0.77478 0.10569 0.37231 0.0
C486 C 0.73926 0.14716 0.44856 0.0
C487 C 0.72033 0.16608 0.49424 0.0
C488 C 0.73948 0.11358 0.45577 0.0
C489 C 0.70123 0.15117 0.5467 0.0
C490 C 0.7007 0.11769 0.55305 0.0
C491 C 0.71944 0.06499 0.5139 0.0
C492 C 0.73865 0.04604 0.46861 0.0
C493 C 0.71981 0.09866 0.50799 0.0
C494 C 0.75896 0.06124 0.41863 0.0
C495 C 0.75922 0.09467 0.41195 0.0
H496 H 0.33444 0.24646 0.9331 0.0
H497 H 0.32872 0.193 0.13016 0.0
H498 H 0.38752 0.1866 0.13106 0.0
H499 H 0.44028 0.19533 0.07488 0.0
H500 H 0.44645 0.25322 0.88364 0.0
H501 H 0.38776 0.258 0.88071 0.0
C502 C 0.3461 0.23338 0.97616 0.0
C503 C 0.32727 0.22011 0.0313 0.0
C504 C 0.37998 0.23033 0.97712 0.0
C505 C 0.34271 0.20357 0.08724 0.0
C506 C 0.37631 0.19981 0.08767 0.0
C507 C 0.42899 0.20947 0.03307 0.0
C508 C 0.44812 0.2236 0.97926 0.0
C509 C 0.39518 0.21309 0.03288 0.0
C510 C 0.4326 0.24131 0.92493 0.0
C511 C 0.39893 0.24437 0.9235 0.0
H512 H 0.23496 0.82111 0.45106 0.0
H513 H 0.31092 0.82159 0.60911 0.0
H514 H 0.30313 0.87944 0.62754 0.0
H515 H 0.27494 0.93002 0.59743 0.0
H516 H 0.19722 0.92833 0.44345 0.0
H517 H 0.20533 0.87075 0.42511 0.0
C518 C 0.25004 0.83397 0.48896 0.0
C519 C 0.27374 0.81728 0.52797 0.0
C520 C 0.2449 0.86692 0.5005 0.0
C521 C 0.29262 0.83404 0.57815 0.0
C522 C 0.28811 0.86704 0.58888 0.0
C523 C 0.25947 0.9169 0.56078 0.0
C524 C 0.2357 0.93343 0.52148 0.0
C525 C 0.26421 0.88372 0.55054 0.0
C526 C 0.216 0.9162 0.47361 0.0
C527 C 0.2206 0.8833 0.46306 0.0
H528 H 0.6685 0.75761 0.90738 0.0
H529 H 0.67763 0.80763 0.10802 0.0
H530 H 0.6188 0.80551 0.12406 0.0
H531 H 0.56518 0.78813 0.08186 0.0
H532 H 0.55766 0.73357 0.88631 0.0
H533 H 0.61558 0.73924 0.86697 0.0
C534 C 0.65757 0.76846 0.95417 0.0
C535 C 0.67718 0.78302 0.00613 0.0
C536 C 0.62411 0.76624 0.96398 0.0
C537 C 0.66287 0.79635 0.06726 0.0
C538 C 0.62933 0.79508 0.07647 0.0
C539 C 0.57624 0.77717 0.03542 0.0
C540 C 0.55697 0.76065 0.98541 0.0
C541 C 0.60978 0.77972 0.0255 0.0
C542 C 0.57171 0.747 0.92497 0.0
C543 C 0.6049 0.75002 0.91403 0.0
loop_
_geom_bond_atom_site_label_1
_geom_bond_atom_site_label_2
_geom_bond_distance
_geom_bond_site_symmetry_2
_ccdc_geom_bond_type
Sc0 O3 2.029 . S
Sc0 O10 2.105 . S
Sc0 O13 2.105 . S
Sc0 O16 2.105 . S
Sc0 O19 2.105 . S
Sc1 O3 2.025 . S
Sc1 O11 2.108 . S
Sc1 O15 2.102 1_554 S
Sc1 O17 2.108 . S
Sc1 O21 2.102 1_554 S
Sc2 O3 2.021 1_556 S
Sc2 O12 2.105 . S
Sc2 O14 2.105 . S
Sc2 O18 2.105 . S
Sc2 O20 2.105 . S
O3 Sc0 2.029 . S
O3 Sc1 2.025 . S
O3 Sc2 2.021 1_554 S
C4 O10 1.271 . S
C4 O20 1.265 1_554 S
C5 O11 1.268 . S
C5 O19 1.268 . S
C6 O12 1.268 . S
C6 O21 1.268 . S
C7 O13 1.268 . S
C7 O17 1.268 . S
C8 O14 1.263 1_554 S
C8 O16 1.273 . S
C9 O15 1.268 . S
C9 O18 1.268 . S
O10 Sc0 2.105 . S
O10 C4 1.271 . S
O11 Sc1 2.108 . S
O11 C5 1.268 . S
O12 Sc2 2.105 . S
O12 C6 1.268 . S
O13 Sc0 2.105 . S
O13 C7 1.268 . S
O14 Sc2 2.105 . S
O14 C8 1.263 1_556 S
O15 Sc1 2.102 1_556 S
O15 C9 1.268 . S
O16 Sc0 2.105 . S
O16 C8 1.273 . S
O17 Sc1 2.108 . S
O17 C7 1.268 . S
O18 Sc2 2.105 . S
O18 C9 1.268 . S
O19 Sc0 2.105 . S
O19 C5 1.268 . S
O20 Sc2 2.105 . S
O20 C4 1.265 1_556 S
O21 Sc1 2.102 1_556 S
O21 C6 1.268 . S
Sc22 O25 2.025 . S
Sc22 O32 2.105 . S
Sc22 O35 2.105 . S
Sc22 O38 2.105 . S
Sc22 O41 2.105 . S
Sc23 O25 2.025 . S
Sc23 O33 2.105 . S
Sc23 O37 2.105 . S
Sc23 O39 2.105 . S
Sc23 O43 2.105 . S
Sc24 O25 2.025 . S
Sc24 O34 2.105 . S
Sc24 O36 2.105 . S
Sc24 O40 2.105 . S
Sc24 O42 2.105 . S
O25 Sc22 2.025 . S
O25 Sc23 2.025 . S
O25 Sc24 2.025 . S
C26 O32 1.268 . S
C26 O42 1.268 . S
C27 O33 1.268 . S
C27 O41 1.268 . S
C28 O34 1.268 . S
C28 O43 1.268 . S
C29 O35 1.268 . S
C29 O39 1.268 . S
C30 O36 1.268 . S
C30 O38 1.268 . S
C31 O37 1.268 . S
C31 O40 1.268 . S
O32 Sc22 2.105 . S
O32 C26 1.268 . S
O33 Sc23 2.105 . S
O33 C27 1.268 . S
O34 Sc24 2.105 . S
O34 C28 1.268 . S
O35 Sc22 2.105 . S
O35 C29 1.268 . S
O36 Sc24 2.105 . S
O36 C30 1.268 . S
O37 Sc23 2.105 . S
O37 C31 1.268 . S
O38 Sc22 2.105 . S
O38 C30 1.268 . S
O39 Sc23 2.105 . S
O39 C29 1.268 . S
O40 Sc24 2.105 . S
O40 C31 1.268 . S
O41 Sc22 2.105 . S
O41 C27 1.268 . S
O42 Sc24 2.105 . S
O42 C26 1.268 . S
O43 Sc23 2.105 . S
O43 C28 1.268 . S
Sc44 O47 2.021 1_556 S
Sc44 O54 2.105 . S
Sc44 O57 2.105 . S
Sc44 O60 2.105 . S
Sc44 O63 2.105 . S
Sc45 O47 2.025 . S
Sc45 O55 2.102 1_554 S
Sc45 O59 2.108 . S
Sc45 O61 2.102 1_554 S
Sc45 O65 2.108 . S
Sc46 O47 2.029 . S
Sc46 O56 2.105 . S
Sc46 O58 2.105 . S
Sc46 O62 2.105 . S
Sc46 O64 2.105 . S
O47 Sc44 2.021 1_554 S
O47 Sc45 2.025 . S
O47 Sc46 2.029 . S
C48 O54 1.265 1_554 S
C48 O64 1.271 . S
C49 O55 1.268 . S
C49 O63 1.268 . S
C50 O56 1.268 . S
C50 O65 1.268 . S
C51 O57 1.268 . S
C51 O61 1.268 . S
C52 O58 1.274 . S
C52 O60 1.263 1_554 S
C53 O59 1.268 . S
C53 O62 1.268 . S
O54 Sc44 2.105 . S
O54 C48 1.265 1_556 S
O55 Sc45 2.102 1_556 S
O55 C49 1.268 . S
O56 Sc46 2.105 . S
O56 C50 1.268 . S
O57 Sc44 2.105 . S
O57 C51 1.268 . S
O58 Sc46 2.105 . S
O58 C52 1.274 . S
O59 Sc45 2.108 . S
O59 C53 1.268 . S
O60 Sc44 2.105 . S
O60 C52 1.263 1_556 S
O61 Sc45 2.102 1_556 S
O61 C51 1.268 . S
O62 Sc46 2.105 . S
O62 C53 1.268 . S
O63 Sc44 2.105 . S
O63 C49 1.268 . S
O64 Sc46 2.105 . S
O64 C48 1.271 . S
O65 Sc45 2.108 . S
O65 C50 1.268 . S
Sc66 O69 2.025 . S
Sc66 O76 2.105 . S
Sc66 O79 2.105 . S
Sc66 O82 2.105 . S
Sc66 O85 2.105 . S
Sc67 O69 2.025 . S
Sc67 O77 2.105 . S
Sc67 O81 2.105 . S
Sc67 O83 2.105 . S
Sc67 O87 2.105 . S
Sc68 O69 2.025 . S
Sc68 O78 2.105 . S
Sc68 O80 2.105 . S
Sc68 O84 2.105 . S
Sc68 O86 2.105 . S
O69 Sc66 2.025 . S
O69 Sc67 2.025 . S
O69 Sc68 2.025 . S
C70 O76 1.268 . S
C70 O86 1.268 . S
C71 O77 1.268 . S
C71 O85 1.268 . S
C72 O78 1.268 . S
C72 O87 1.268 . S
C73 O79 1.268 . S
C73 O83 1.268 . S
C74 O80 1.268 . S
C74 O82 1.268 . S
C75 O81 1.268 . S
C75 O84 1.268 . S
O76 Sc66 2.105 . S
O76 C70 1.268 . S
O77 Sc67 2.105 . S
O77 C71 1.268 . S
O78 Sc68 2.105 . S
O78 C72 1.268 . S
O79 Sc66 2.105 . S
O79 C73 1.268 . S
O80 Sc68 2.105 . S
O80 C74 1.268 . S
O81 Sc67 2.105 . S
O81 C75 1.268 . S
O82 Sc66 2.105 . S
O82 C74 1.268 . S
O83 Sc67 2.105 . S
O83 C73 1.268 . S
O84 Sc68 2.105 . S
O84 C75 1.268 . S
O85 Sc66 2.105 . S
O85 C71 1.268 . S
O86 Sc68 2.105 . S
O86 C70 1.268 . S
O87 Sc67 2.105 . S
O87 C72 1.268 . S
H88 C91 0.931 . S
H89 C94 0.928 . S
H90 C96 0.930 . S
C91 H88 0.931 . S
C91 C92 1.413 1_556 S
C91 C93 1.360 . S
C92 C91 1.413 1_554 S
C92 C96 1.429 . S
C93 C91 1.360 . S
C93 C94 1.372 . S
C94 H89 0.928 . S
C94 C93 1.372 . S
C94 C95 1.408 . S
C95 C94 1.408 . S
C95 C96 1.386 1_556 S
C96 H90 0.930 . S
C96 C92 1.429 . S
C96 C95 1.386 1_554 S
H97 C100 0.931 . S
H98 C103 0.928 1_455 S
H99 C105 0.930 1_455 S
C100 H97 0.931 . S
C100 C101 1.413 . S
C100 C102 1.360 . S
C101 C100 1.413 . S
C101 C105 1.429 . S
C102 C100 1.360 . S
C102 C103 1.372 . S
C103 H98 0.928 1_655 S
C103 C102 1.372 . S
C103 C104 1.404 1_655 S
C104 C103 1.404 1_455 S
C104 C105 1.391 1_455 S
C105 H99 0.930 1_655 S
C105 C101 1.429 . S
C105 C104 1.391 1_655 S
H106 C109 0.931 . S
H107 C112 0.928 . S
H108 C114 0.930 . S
C109 H106 0.931 . S
C109 C110 1.413 1_554 S
C109 C111 1.360 . S
C110 C109 1.413 1_556 S
C110 C114 1.429 . S
C111 C109 1.360 . S
C111 C112 1.372 . S
C112 H107 0.928 . S
C112 C111 1.372 . S
C112 C113 1.404 . S
C113 C112 1.404 . S
C113 C114 1.391 1_554 S
C114 H108 0.930 . S
C114 C110 1.429 . S
C114 C113 1.391 1_556 S
H115 C118 0.931 . S
H116 C121 0.928 1_655 S
H117 C123 0.930 1_655 S
C118 H115 0.931 . S
C118 C119 1.413 . S
C118 C120 1.360 . S
C119 C118 1.413 . S
C119 C123 1.429 . S
C120 C118 1.360 . S
C120 C121 1.372 . S
C121 H116 0.928 1_455 S
C121 C120 1.372 . S
C121 C122 1.404 1_455 S
C122 C121 1.404 1_655 S
C122 C123 1.391 1_655 S
C123 H117 0.930 1_455 S
C123 C119 1.429 . S
C123 C122 1.391 1_455 S
H124 C127 0.931 . S
H125 C130 0.928 1_545 S
H126 C132 0.930 1_545 S
C127 H124 0.931 . S
C127 C128 1.413 . S
C127 C129 1.360 . S
C128 C127 1.413 . S
C128 C132 1.429 . S
C129 C127 1.360 . S
C129 C130 1.372 . S
C130 H125 0.928 1_565 S
C130 C129 1.372 . S
C130 C131 1.404 1_565 S
C131 C130 1.404 1_545 S
C131 C132 1.391 1_545 S
C132 H126 0.930 1_565 S
C132 C128 1.429 . S
C132 C131 1.391 1_565 S
H133 C136 0.931 . S
H134 C139 0.928 . S
H135 C141 0.930 . S
C136 H133 0.931 . S
C136 C137 1.413 1_554 S
C136 C138 1.360 . S
C137 C136 1.413 1_556 S
C137 C141 1.429 . S
C138 C136 1.360 . S
C138 C139 1.372 . S
C139 H134 0.928 . S
C139 C138 1.372 . S
C139 C140 1.404 . S
C140 C139 1.404 . S
C140 C141 1.391 1_554 S
C141 H135 0.930 . S
C141 C137 1.429 . S
C141 C140 1.391 1_556 S
H142 C145 0.931 . S
H143 C148 0.928 1_565 S
H144 C150 0.930 1_565 S
C145 H142 0.931 . S
C145 C146 1.413 . S
C145 C147 1.360 . S
C146 C145 1.413 . S
C146 C150 1.429 . S
C147 C145 1.360 . S
C147 C148 1.372 . S
C148 H143 0.928 1_545 S
C148 C147 1.372 . S
C148 C149 1.404 1_545 S
C149 C148 1.404 1_565 S
C149 C150 1.391 1_565 S
C150 H144 0.930 1_545 S
C150 C146 1.429 . S
C150 C149 1.391 1_545 S
H151 C154 0.931 . S
H152 C157 0.928 . S
H153 C159 0.930 . S
C154 H151 0.931 . S
C154 C155 1.413 1_556 S
C154 C156 1.360 . S
C155 C154 1.413 1_554 S
C155 C159 1.429 . S
C156 C154 1.360 . S
C156 C157 1.372 . S
C157 H152 0.928 . S
C157 C156 1.372 . S
C157 C158 1.408 . S
C158 C157 1.408 . S
C158 C159 1.386 1_556 S
C159 H153 0.930 . S
C159 C155 1.429 . S
C159 C158 1.386 1_554 S
H160 C166 0.930 . S
H161 C169 0.930 . S
H162 C170 0.930 . S
H163 C171 0.930 . S
H164 C174 0.930 . S
H165 C175 0.930 . S
C166 H160 0.930 . S
C166 C167 1.355 . S
C166 C168 1.415 . S
C167 C166 1.355 . S
C167 C169 1.419 . S
C168 C166 1.415 . S
C168 C173 1.425 . S
C168 C175 1.409 . S
C169 H161 0.930 . S
C169 C167 1.419 . S
C169 C170 1.362 . S
C170 H162 0.930 . S
C170 C169 1.362 . S
C170 C173 1.409 . S
C171 H163 0.930 . S
C171 C172 1.355 . S
C171 C173 1.415 . S
C172 C171 1.355 . S
C172 C174 1.419 . S
C173 C168 1.425 . S
C173 C170 1.409 . S
C173 C171 1.415 . S
C174 H164 0.930 . S
C174 C172 1.419 . S
C174 C175 1.362 . S
C175 H165 0.930 . S
C175 C168 1.409 . S
C175 C174 1.362 . S
H176 C182 0.930 . S
H177 C185 0.930 . S
H178 C186 0.930 . S
H179 C187 0.930 . S
H180 C190 0.930 . S
H181 C191 0.930 . S
C182 H176 0.930 . S
C182 C183 1.355 . S
C182 C184 1.415 . S
C183 C182 1.355 . S
C183 C185 1.419 . S
C184 C182 1.415 . S
C184 C189 1.425 . S
C184 C191 1.409 . S
C185 H177 0.930 . S
C185 C183 1.419 . S
C185 C186 1.362 . S
C186 H178 0.930 . S
C186 C185 1.362 . S
C186 C189 1.409 . S
C187 H179 0.930 . S
C187 C188 1.355 . S
C187 C189 1.415 . S
C188 C187 1.355 . S
C188 C190 1.419 . S
C189 C184 1.425 . S
C189 C186 1.409 . S
C189 C187 1.415 . S
C190 H180 0.930 . S
C190 C188 1.419 . S
C190 C191 1.362 . S
C191 H181 0.930 . S
C191 C184 1.409 . S
C191 C190 1.362 . S
H192 C198 0.930 . S
H193 C201 0.930 . S
H194 C202 0.930 . S
H195 C203 0.930 . S
H196 C206 0.930 . S
H197 C207 0.930 . S
C198 H192 0.930 . S
C198 C199 1.355 . S
C198 C200 1.415 . S
C199 C198 1.355 . S
C199 C201 1.419 . S
C200 C198 1.415 . S
C200 C205 1.425 . S
C200 C207 1.409 . S
C201 H193 0.930 . S
C201 C199 1.419 . S
C201 C202 1.362 . S
C202 H194 0.930 . S
C202 C201 1.362 . S
C202 C205 1.409 . S
C203 H195 0.930 . S
C203 C204 1.355 . S
C203 C205 1.415 . S
C204 C203 1.355 . S
C204 C206 1.419 . S
C205 C200 1.425 . S
C205 C202 1.409 . S
C205 C203 1.415 . S
C206 H196 0.930 . S
C206 C204 1.419 . S
C206 C207 1.362 . S
C207 H197 0.930 . S
C207 C200 1.409 . S
C207 C206 1.362 . S
H208 C214 0.930 . S
H209 C217 0.930 . S
H210 C218 0.930 . S
H211 C219 0.930 . S
H212 C222 0.930 . S
H213 C223 0.930 . S
C214 H208 0.930 . S
C214 C215 1.355 . S
C214 C216 1.415 . S
C215 C214 1.355 . S
C215 C217 1.419 . S
C216 C214 1.415 . S
C216 C221 1.425 . S
C216 C223 1.409 . S
C217 H209 0.930 . S
C217 C215 1.419 . S
C217 C218 1.362 . S
C218 H210 0.930 . S
C218 C217 1.362 . S
C218 C221 1.409 . S
C219 H211 0.930 . S
C219 C220 1.355 . S
C219 C221 1.415 . S
C220 C219 1.355 . S
C220 C222 1.419 . S
C221 C216 1.425 . S
C221 C218 1.409 . S
C221 C219 1.415 . S
C222 H212 0.930 . S
C222 C220 1.419 . S
C222 C223 1.362 . S
C223 H213 0.930 . S
C223 C216 1.409 . S
C223 C222 1.362 . S
H224 C230 0.930 . S
H225 C233 0.930 . S
H226 C234 0.930 . S
H227 C235 0.930 . S
H228 C238 0.930 . S
H229 C239 0.930 . S
C230 H224 0.930 . S
C230 C231 1.355 . S
C230 C232 1.415 . S
C231 C230 1.355 . S
C231 C233 1.419 . S
C232 C230 1.415 . S
C232 C237 1.425 . S
C232 C239 1.409 . S
C233 H225 0.930 . S
C233 C231 1.419 . S
C233 C234 1.362 . S
C234 H226 0.930 . S
C234 C233 1.362 . S
C234 C237 1.409 . S
C235 H227 0.930 . S
C235 C236 1.355 . S
C235 C237 1.415 . S
C236 C235 1.355 . S
C236 C238 1.419 . S
C237 C232 1.425 . S
C237 C234 1.409 . S
C237 C235 1.415 . S
C238 H228 0.930 . S
C238 C236 1.419 . S
C238 C239 1.362 . S
C239 H229 0.930 . S
C239 C232 1.409 . S
C239 C238 1.362 . S
H240 C246 0.930 . S
H241 C249 0.930 . S
H242 C250 0.930 . S
H243 C251 0.930 . S
H244 C254 0.930 . S
H245 C255 0.930 . S
C246 H240 0.930 . S
C246 C247 1.355 . S
C246 C248 1.415 . S
C247 C246 1.355 . S
C247 C249 1.419 . S
C248 C246 1.415 . S
C248 C253 1.425 . S
C248 C255 1.409 . S
C249 H241 0.930 . S
C249 C247 1.419 . S
C249 C250 1.362 . S
C250 H242 0.930 . S
C250 C249 1.362 . S
C250 C253 1.409 . S
C251 H243 0.930 . S
C251 C252 1.355 . S
C251 C253 1.415 . S
C252 C251 1.355 . S
C252 C254 1.419 . S
C253 C248 1.425 . S
C253 C250 1.409 . S
C253 C251 1.415 . S
C254 H244 0.930 . S
C254 C252 1.419 . S
C254 C255 1.362 . S
C255 H245 0.930 . S
C255 C248 1.409 . S
C255 C254 1.362 . S
H256 C262 0.930 . S
H257 C265 0.930 . S
H258 C266 0.930 . S
H259 C267 0.930 . S
H260 C270 0.930 . S
H261 C271 0.930 . S
C262 H256 0.930 . S
C262 C263 1.355 . S
C262 C264 1.415 . S
C263 C262 1.355 . S
C263 C265 1.419 . S
C264 C262 1.415 . S
C264 C269 1.425 . S
C264 C271 1.409 . S
C265 H257 0.930 . S
C265 C263 1.419 . S
C265 C266 1.362 . S
C266 H258 0.930 . S
C266 C265 1.362 . S
C266 C269 1.409 . S
C267 H259 0.930 . S
C267 C268 1.355 . S
C267 C269 1.415 . S
C268 C267 1.355 . S
C268 C270 1.419 . S
C269 C264 1.425 . S
C269 C266 1.409 . S
C269 C267 1.415 . S
C270 H260 0.930 . S
C270 C268 1.419 . S
C270 C271 1.362 . S
C271 H261 0.930 . S
C271 C264 1.409 . S
C271 C270 1.362 . S
H272 C278 0.930 . S
H273 C281 0.930 . S
H274 C282 0.930 . S
H275 C283 0.930 . S
H276 C286 0.930 . S
H277 C287 0.930 . S
C278 H272 0.930 . S
C278 C279 1.355 . S
C278 C280 1.415 . S
C279 C278 1.355 . S
C279 C281 1.419 . S
C280 C278 1.415 . S
C280 C285 1.425 . S
C280 C287 1.409 . S
C281 H273 0.930 . S
C281 C279 1.419 . S
C281 C282 1.362 . S
C282 H274 0.930 . S
C282 C281 1.362 . S
C282 C285 1.409 . S
C283 H275 0.930 . S
C283 C284 1.355 . S
C283 C285 1.415 . S
C284 C283 1.355 . S
C284 C286 1.419 . S
C285 C280 1.425 . S
C285 C282 1.409 . S
C285 C283 1.415 . S
C286 H276 0.930 . S
C286 C284 1.419 . S
C286 C287 1.362 . S
C287 H277 0.930 . S
C287 C280 1.409 . S
C287 C286 1.362 . S
H288 C294 0.930 . S
H289 C297 0.930 . S
H290 C298 0.930 . S
H291 C299 0.930 . S
H292 C302 0.930 . S
H293 C303 0.930 . S
C294 H288 0.930 . S
C294 C295 1.355 . S
C294 C296 1.415 . S
C295 C294 1.355 . S
C295 C297 1.419 . S
C296 C294 1.415 . S
C296 C301 1.425 . S
C296 C303 1.409 . S
C297 H289 0.930 . S
C297 C295 1.419 . S
C297 C298 1.362 . S
C298 H290 0.930 . S
C298 C297 1.362 . S
C298 C301 1.409 . S
C299 H291 0.930 . S
C299 C300 1.355 . S
C299 C301 1.415 . S
C300 C299 1.355 . S
C300 C302 1.419 . S
C301 C296 1.425 . S
C301 C298 1.409 . S
C301 C299 1.415 . S
C302 H292 0.930 . S
C302 C300 1.419 . S
C302 C303 1.362 . S
C303 H293 0.930 . S
C303 C296 1.409 . S
C303 C302 1.362 . S
H304 C310 0.930 . S
H305 C313 0.930 . S
H306 C314 0.930 . S
H307 C315 0.930 . S
H308 C318 0.930 . S
H309 C319 0.930 . S
C310 H304 0.930 . S
C310 C311 1.355 . S
C310 C312 1.415 . S
C311 C310 1.355 . S
C311 C313 1.419 . S
C312 C310 1.415 . S
C312 C317 1.425 . S
C312 C319 1.409 . S
C313 H305 0.930 . S
C313 C311 1.419 . S
C313 C314 1.362 . S
C314 H306 0.930 . S
C314 C313 1.362 . S
C314 C317 1.409 . S
C315 H307 0.930 . S
C315 C316 1.355 . S
C315 C317 1.415 . S
C316 C315 1.355 . S
C316 C318 1.419 . S
C317 C312 1.425 . S
C317 C314 1.409 . S
C317 C315 1.415 . S
C318 H308 0.930 . S
C318 C316 1.419 . S
C318 C319 1.362 . S
C319 H309 0.930 . S
C319 C312 1.409 . S
C319 C318 1.362 . S
H320 C326 0.930 . S
H321 C329 0.930 . S
H322 C330 0.930 . S
H323 C331 0.930 . S
H324 C334 0.930 . S
H325 C335 0.930 . S
C326 H320 0.930 . S
C326 C327 1.355 . S
C326 C328 1.415 . S
C327 C326 1.355 . S
C327 C329 1.419 . S
C328 C326 1.415 . S
C328 C333 1.425 . S
C328 C335 1.409 . S
C329 H321 0.930 . S
C329 C327 1.419 . S
C329 C330 1.362 . S
C330 H322 0.930 . S
C330 C329 1.362 . S
C330 C333 1.409 . S
C331 H323 0.930 . S
C331 C332 1.355 . S
C331 C333 1.415 . S
C332 C331 1.355 . S
C332 C334 1.419 . S
C333 C328 1.425 . S
C333 C330 1.409 . S
C333 C331 1.415 . S
C334 H324 0.930 . S
C334 C332 1.419 . S
C334 C335 1.362 . S
C335 H325 0.930 . S
C335 C328 1.409 . S
C335 C334 1.362 . S
H336 C342 0.930 . S
H337 C345 0.930 . S
H338 C346 0.930 . S
H339 C347 0.930 . S
H340 C350 0.930 . S
H341 C351 0.930 . S
C342 H336 0.930 . S
C342 C343 1.355 . S
C342 C344 1.415 . S
C343 C342 1.355 . S
C343 C345 1.419 . S
C344 C342 1.415 . S
C344 C349 1.425 . S
C344 C351 1.409 . S
C345 H337 0.930 . S
C345 C343 1.419 . S
C345 C346 1.362 . S
C346 H338 0.930 . S
C346 C345 1.362 . S
C346 C349 1.409 . S
C347 H339 0.930 . S
C347 C348 1.355 . S
C347 C349 1.415 . S
C348 C347 1.355 . S
C348 C350 1.419 . S
C349 C344 1.425 . S
C349 C346 1.409 . S
C349 C347 1.415 . S
C350 H340 0.930 . S
C350 C348 1.419 . S
C350 C351 1.362 . S
C351 H341 0.930 . S
C351 C344 1.409 . S
C351 C350 1.362 . S
H352 C358 0.930 . S
H353 C361 0.930 . S
H354 C362 0.930 . S
H355 C363 0.930 . S
H356 C366 0.930 . S
H357 C367 0.930 . S
C358 H352 0.930 . S
C358 C359 1.355 . S
C358 C360 1.415 . S
C359 C358 1.355 . S
C359 C361 1.419 . S
C360 C358 1.415 . S
C360 C365 1.425 . S
C360 C367 1.409 . S
C361 H353 0.930 . S
C361 C359 1.419 . S
C361 C362 1.362 . S
C362 H354 0.930 . S
C362 C361 1.362 . S
C362 C365 1.409 . S
C363 H355 0.930 . S
C363 C364 1.355 . S
C363 C365 1.415 . S
C364 C363 1.355 . S
C364 C366 1.419 . S
C365 C360 1.425 . S
C365 C362 1.409 . S
C365 C363 1.415 . S
C366 H356 0.930 . S
C366 C364 1.419 . S
C366 C367 1.362 . S
C367 H357 0.930 . S
C367 C360 1.409 . S
C367 C366 1.362 . S
H368 C374 0.930 . S
H369 C377 0.930 . S
H370 C378 0.930 . S
H371 C379 0.930 . S
H372 C382 0.930 . S
H373 C383 0.930 . S
C374 H368 0.930 . S
C374 C375 1.355 . S
C374 C376 1.415 . S
C375 C374 1.355 . S
C375 C377 1.419 . S
C376 C374 1.415 . S
C376 C381 1.425 . S
C376 C383 1.409 . S
C377 H369 0.930 . S
C377 C375 1.419 . S
C377 C378 1.362 . S
C378 H370 0.930 . S
C378 C377 1.362 . S
C378 C381 1.409 . S
C379 H371 0.930 . S
C379 C380 1.355 . S
C379 C381 1.415 . S
C380 C379 1.355 . S
C380 C382 1.419 . S
C381 C376 1.425 . S
C381 C378 1.409 . S
C381 C379 1.415 . S
C382 H372 0.930 . S
C382 C380 1.419 . S
C382 C383 1.362 . S
C383 H373 0.930 . S
C383 C376 1.409 . S
C383 C382 1.362 . S
H384 C390 0.930 . S
H385 C393 0.930 . S
H386 C394 0.930 . S
H387 C395 0.930 . S
H388 C398 0.930 . S
H389 C399 0.930 . S
C390 H384 0.930 . S
C390 C391 1.355 . S
C390 C392 1.415 . S
C391 C390 1.355 . S
C391 C393 1.419 . S
C392 C390 1.415 . S
C392 C397 1.425 . S
C392 C399 1.409 . S
C393 H385 0.930 . S
C393 C391 1.419 . S
C393 C394 1.362 . S
C394 H386 0.930 . S
C394 C393 1.362 . S
C394 C397 1.409 . S
C395 H387 0.930 . S
C395 C396 1.355 . S
C395 C397 1.415 . S
C396 C395 1.355 . S
C396 C398 1.419 . S
C397 C392 1.425 . S
C397 C394 1.409 . S
C397 C395 1.415 . S
C398 H388 0.930 . S
C398 C396 1.419 . S
C398 C399 1.362 . S
C399 H389 0.930 . S
C399 C392 1.409 . S
C399 C398 1.362 . S
H400 C406 0.930 . S
H401 C409 0.930 . S
H402 C410 0.930 . S
H403 C411 0.930 . S
H404 C414 0.930 . S
H405 C415 0.930 . S
C406 H400 0.930 . S
C406 C407 1.355 . S
C406 C408 1.415 . S
C407 C406 1.355 . S
C407 C409 1.419 . S
C408 C406 1.415 . S
C408 C413 1.425 . S
C408 C415 1.409 . S
C409 H401 0.930 . S
C409 C407 1.419 . S
C409 C410 1.362 . S
C410 H402 0.930 . S
C410 C409 1.362 . S
C410 C413 1.409 . S
C411 H403 0.930 . S
C411 C412 1.355 . S
C411 C413 1.415 . S
C412 C411 1.355 . S
C412 C414 1.419 . S
C413 C408 1.425 . S
C413 C410 1.409 . S
C413 C411 1.415 . S
C414 H404 0.930 . S
C414 C412 1.419 . S
C414 C415 1.362 . S
C415 H405 0.930 . S
C415 C408 1.409 . S
C415 C414 1.362 . S
H416 C422 0.930 . S
H417 C425 0.930 . S
H418 C426 0.930 . S
H419 C427 0.930 . S
H420 C430 0.930 . S
H421 C431 0.930 . S
C422 H416 0.930 . S
C422 C423 1.355 1_556 S
C422 C424 1.415 . S
C423 C422 1.355 1_554 S
C423 C425 1.419 . S
C424 C422 1.415 . S
C424 C429 1.425 1_556 S
C424 C431 1.409 . S
C425 H417 0.930 . S
C425 C423 1.419 . S
C425 C426 1.362 . S
C426 H418 0.930 . S
C426 C425 1.362 . S
C426 C429 1.409 . S
C427 H419 0.930 . S
C427 C428 1.355 1_554 S
C427 C429 1.415 . S
C428 C427 1.355 1_556 S
C428 C430 1.419 . S
C429 C424 1.425 1_554 S
C429 C426 1.409 . S
C429 C427 1.415 . S
C430 H420 0.930 . S
C430 C428 1.419 . S
C430 C431 1.362 . S
C431 H421 0.930 . S
C431 C424 1.409 . S
C431 C430 1.362 . S
H432 C438 0.930 . S
H433 C441 0.930 . S
H434 C442 0.930 . S
H435 C443 0.930 . S
H436 C446 0.930 . S
H437 C447 0.930 . S
C438 H432 0.930 . S
C438 C439 1.355 . S
C438 C440 1.415 . S
C439 C438 1.355 . S
C439 C441 1.419 . S
C440 C438 1.415 . S
C440 C445 1.425 . S
C440 C447 1.409 . S
C441 H433 0.930 . S
C441 C439 1.419 . S
C441 C442 1.362 . S
C442 H434 0.930 . S
C442 C441 1.362 . S
C442 C445 1.409 . S
C443 H435 0.930 . S
C443 C444 1.355 . S
C443 C445 1.415 . S
C444 C443 1.355 . S
C444 C446 1.419 . S
C445 C440 1.425 . S
C445 C442 1.409 . S
C445 C443 1.415 . S
C446 H436 0.930 . S
C446 C444 1.419 . S
C446 C447 1.362 . S
C447 H437 0.930 . S
C447 C440 1.409 . S
C447 C446 1.362 . S
H448 C454 0.930 . S
H449 C457 0.930 . S
H450 C458 0.930 . S
H451 C459 0.930 . S
H452 C462 0.930 . S
H453 C463 0.930 . S
C454 H448 0.930 . S
C454 C455 1.355 1_556 S
C454 C456 1.415 . S
C455 C454 1.355 1_554 S
C455 C457 1.419 . S
C456 C454 1.415 . S
C456 C461 1.425 1_556 S
C456 C463 1.409 . S
C457 H449 0.930 . S
C457 C455 1.419 . S
C457 C458 1.362 . S
C458 H450 0.930 . S
C458 C457 1.362 . S
C458 C461 1.409 . S
C459 H451 0.930 . S
C459 C460 1.355 1_554 S
C459 C461 1.415 . S
C460 C459 1.355 1_556 S
C460 C462 1.419 . S
C461 C456 1.425 1_554 S
C461 C458 1.409 . S
C461 C459 1.415 . S
C462 H452 0.930 . S
C462 C460 1.419 . S
C462 C463 1.362 . S
C463 H453 0.930 . S
C463 C456 1.409 . S
C463 C462 1.362 . S
H464 C470 0.930 . S
H465 C473 0.930 . S
H466 C474 0.930 . S
H467 C475 0.930 . S
H468 C478 0.930 . S
H469 C479 0.930 . S
C470 H464 0.930 . S
C470 C471 1.355 . S
C470 C472 1.415 . S
C471 C470 1.355 . S
C471 C473 1.419 . S
C472 C470 1.415 . S
C472 C477 1.425 . S
C472 C479 1.409 . S
C473 H465 0.930 . S
C473 C471 1.419 . S
C473 C474 1.362 . S
C474 H466 0.930 . S
C474 C473 1.362 . S
C474 C477 1.409 . S
C475 H467 0.930 . S
C475 C476 1.355 . S
C475 C477 1.415 . S
C476 C475 1.355 . S
C476 C478 1.419 . S
C477 C472 1.425 . S
C477 C474 1.409 . S
C477 C475 1.415 . S
C478 H468 0.930 . S
C478 C476 1.419 . S
C478 C479 1.362 . S
C479 H469 0.930 . S
C479 C472 1.409 . S
C479 C478 1.362 . S
H480 C486 0.930 . S
H481 C489 0.930 . S
H482 C490 0.930 . S
H483 C491 0.930 . S
H484 C494 0.930 . S
H485 C495 0.930 . S
C486 H480 0.930 . S
C486 C487 1.355 . S
C486 C488 1.415 . S
C487 C486 1.355 . S
C487 C489 1.419 . S
C488 C486 1.415 . S
C488 C493 1.425 . S
C488 C495 1.409 . S
C489 H481 0.930 . S
C489 C487 1.419 . S
C489 C490 1.362 . S
C490 H482 0.930 . S
C490 C489 1.362 . S
C490 C493 1.409 . S
C491 H483 0.930 . S
C491 C492 1.355 . S
C491 C493 1.415 . S
C492 C491 1.355 . S
C492 C494 1.419 . S
C493 C488 1.425 . S
C493 C490 1.409 . S
C493 C491 1.415 . S
C494 H484 0.930 . S
C494 C492 1.419 . S
C494 C495 1.362 . S
C495 H485 0.930 . S
C495 C488 1.409 . S
C495 C494 1.362 . S
H496 C502 0.930 . S
H497 C505 0.930 . S
H498 C506 0.930 . S
H499 C507 0.930 . S
H500 C510 0.930 . S
H501 C511 0.930 . S
C502 H496 0.930 . S
C502 C503 1.355 . S
C502 C504 1.414 1_556 S
C503 C502 1.355 . S
C503 C505 1.419 . S
C504 C502 1.414 1_554 S
C504 C509 1.425 . S
C504 C511 1.409 . S
C505 H497 0.930 . S
C505 C503 1.419 . S
C505 C506 1.362 . S
C506 H498 0.930 . S
C506 C505 1.362 . S
C506 C509 1.409 1_556 S
C507 H499 0.930 . S
C507 C508 1.355 . S
C507 C509 1.415 . S
C508 C507 1.355 . S
C508 C510 1.419 . S
C509 C504 1.425 . S
C509 C506 1.409 1_554 S
C509 C507 1.415 . S
C510 H500 0.930 . S
C510 C508 1.419 . S
C510 C511 1.362 . S
C511 H501 0.930 . S
C511 C504 1.409 . S
C511 C510 1.362 . S
H512 C518 0.930 . S
H513 C521 0.930 . S
H514 C522 0.930 . S
H515 C523 0.930 . S
H516 C526 0.930 . S
H517 C527 0.930 . S
C518 H512 0.930 . S
C518 C519 1.355 . S
C518 C520 1.415 . S
C519 C518 1.355 . S
C519 C521 1.419 . S
C520 C518 1.415 . S
C520 C525 1.425 . S
C520 C527 1.409 . S
C521 H513 0.930 . S
C521 C519 1.419 . S
C521 C522 1.362 . S
C522 H514 0.930 . S
C522 C521 1.362 . S
C522 C525 1.409 . S
C523 H515 0.930 . S
C523 C524 1.355 . S
C523 C525 1.415 . S
C524 C523 1.355 . S
C524 C526 1.419 . S
C525 C520 1.425 . S
C525 C522 1.409 . S
C525 C523 1.415 . S
C526 H516 0.930 . S
C526 C524 1.419 . S
C526 C527 1.362 . S
C527 H517 0.930 . S
C527 C520 1.409 . S
C527 C526 1.362 . S
H528 C534 0.930 . S
H529 C537 0.930 . S
H530 C538 0.930 . S
H531 C539 0.930 . S
H532 C542 0.930 . S
H533 C543 0.930 . S
C534 H528 0.930 . S
C534 C535 1.355 1_556 S
C534 C536 1.415 . S
C535 C534 1.355 1_554 S
C535 C537 1.419 . S
C536 C534 1.415 . S
C536 C541 1.425 1_556 S
C536 C543 1.409 . S
C537 H529 0.930 . S
C537 C535 1.419 . S
C537 C538 1.362 . S
C538 H530 0.930 . S
C538 C537 1.362 . S
C538 C541 1.409 . S
C539 H531 0.930 . S
C539 C540 1.355 1_554 S
C539 C541 1.415 . S
C540 C539 1.355 1_556 S
C540 C542 1.419 . S
C541 C536 1.425 1_554 S
C541 C538 1.409 . S
C541 C539 1.415 . S
C542 H532 0.930 . S
C542 C540 1.419 . S
C542 C543 1.362 . S
C543 H533 0.930 . S
C543 C536 1.409 . S
C543 C542 1.362 . S
C167 C5 1.420 . S
C172 C119 1.452 . S
C183 C31 1.404 . S
C188 C93 1.452 . S
C204 C102 1.458 . S
C199 C53 1.407 . S
C215 C71 1.438 . S
C220 C110 1.428 . S
C236 C138 1.448 . S
C231 C75 1.429 . S
C252 C146 1.446 . S
C247 C9 1.406 . S
C268 C155 1.446 . S
C263 C27 1.406 . S
C284 C129 1.460 . S
C279 C49 1.395 . S
C295 C51 1.395 . S
C300 C101 1.457 . S
C311 C72 1.434 . S
C316 C111 1.429 . S
C327 C6 1.443 . S
C332 C120 1.437 . S
C348 C92 1.429 . S
C343 C29 1.451 . S
C359 C28 1.431 . S
C364 C156 1.447 . S
C380 C128 1.434 . S
C375 C50 1.449 . S
C396 C137 1.436 . S
C391 C73 1.446 . S
C407 C7 1.441 . S
C412 C147 1.426 . S
C428 C95 1.470 . S
C423 C4 1.487 . S
C444 C104 1.489 . S
C439 C30 1.457 . S
C455 C52 1.487 . S
C460 C113 1.466 1_556 S
C471 C70 1.489 . S
C476 C122 1.464 . S
C492 C131 1.469 . S
C487 C74 1.488 . S
C503 C8 1.488 1_556 S
C508 C140 1.469 . S
C519 C26 1.486 . S
C524 C149 1.466 . S
C535 C48 1.489 . S
C540 C158 1.464 . S
