# Generated by pormake.
# Topology nom, (4,4)-cn, num edge types: 1
# Building blocks:
#     Node 0, Type 0, BuildingBlock: KUFVIS_clean_linker_0, # of connection points: 4
#     Node 1, Type 0, BuildingBlock: KUFVIS_clean_linker_0, # of connection points: 4
#     Node 2, Type 0, BuildingBlock: KUFVIS_clean_linker_0, # of connection points: 4
#     Node 3, Type 0, BuildingBlock: KUFVIS_clean_linker_0, # of connection points: 4
#     Node 4, Type 0, BuildingBlock: KUFVIS_clean_linker_0, # of connection points: 4
#     Node 5, Type 0, BuildingBlock: KUFVIS_clean_linker_0, # of connection points: 4
#     Node 6, Type 1, BuildingBlock: NAHDIM_clean_sbu_0, # of connection points: 4
#     Node 7, Type 1, BuildingBlock: NAHDIM_clean_sbu_0, # of connection points: 4
#     Node 8, Type 1, BuildingBlock: NAHDIM_clean_sbu_0, # of connection points: 4
#     Node 9, Type 1, BuildingBlock: NAHDIM_clean_sbu_0, # of connection points: 4
#     Node 10, Type 1, BuildingBlock: NAHDIM_clean_sbu_0, # of connection points: 4
#     Node 11, Type 1, BuildingBlock: NAHDIM_clean_sbu_0, # of connection points: 4
#     Edge 12, Type (0, 1), BuildingBlock: OJICUG_clean_linker_0, # of connection points: 2
#     Edge 13, Type (0, 1), BuildingBlock: OJICUG_clean_linker_0, # of connection points: 2
#     Edge 14, Type (0, 1), BuildingBlock: OJICUG_clean_linker_0, # of connection points: 2
#     Edge 15, Type (0, 1), BuildingBlock: OJICUG_clean_linker_0, # of connection points: 2
#     Edge 16, Type (0, 1), BuildingBlock: OJICUG_clean_linker_0, # of connection points: 2
#     Edge 17, Type (0, 1), BuildingBlock: OJICUG_clean_linker_0, # of connection points: 2
#     Edge 18, Type (0, 1), BuildingBlock: OJICUG_clean_linker_0, # of connection points: 2
#     Edge 19, Type (0, 1), BuildingBlock: OJICUG_clean_linker_0, # of connection points: 2
#     Edge 20, Type (0, 1), BuildingBlock: OJICUG_clean_linker_0, # of connection points: 2
#     Edge 21, Type (0, 1), BuildingBlock: OJICUG_clean_linker_0, # of connection points: 2
#     Edge 22, Type (0, 1), BuildingBlock: OJICUG_clean_linker_0, # of connection points: 2
#     Edge 23, Type (0, 1), BuildingBlock: OJICUG_clean_linker_0, # of connection points: 2
#     Edge 24, Type (0, 1), BuildingBlock: OJICUG_clean_linker_0, # of connection points: 2
#     Edge 25, Type (0, 1), BuildingBlock: OJICUG_clean_linker_0, # of connection points: 2
#     Edge 26, Type (0, 1), BuildingBlock: OJICUG_clean_linker_0, # of connection points: 2
#     Edge 27, Type (0, 1), BuildingBlock: OJICUG_clean_linker_0, # of connection points: 2
#     Edge 28, Type (0, 1), BuildingBlock: OJICUG_clean_linker_0, # of connection points: 2
#     Edge 29, Type (0, 1), BuildingBlock: OJICUG_clean_linker_0, # of connection points: 2
#     Edge 30, Type (0, 1), BuildingBlock: OJICUG_clean_linker_0, # of connection points: 2
#     Edge 31, Type (0, 1), BuildingBlock: OJICUG_clean_linker_0, # of connection points: 2
#     Edge 32, Type (0, 1), BuildingBlock: OJICUG_clean_linker_0, # of connection points: 2
#     Edge 33, Type (0, 1), BuildingBlock: OJICUG_clean_linker_0, # of connection points: 2
#     Edge 34, Type (0, 1), BuildingBlock: OJICUG_clean_linker_0, # of connection points: 2
#     Edge 35, Type (0, 1), BuildingBlock: OJICUG_clean_linker_0, # of connection points: 2
# Relax obj value: 0.022
# Max RMSD: 0.124
# Mean RMSD: 0.082
data_MOF--net-nom--node1-NAHDIM_clean_sbu_0--node2-KUFVIS_clean_linker_0--edge1-OJICUG_clean_linker_0
_symmetry_space_group_name_H-M    P1
_symmetry_Int_Tables_number       1
_symmetry_cell_setting            triclinic
loop_
_symmetry_equiv_pos_as_xyz
'x, y, z'
_cell_length_a     32.112635
_cell_length_b     33.886196
_cell_length_c     36.449974
_cell_angle_alpha  89.755832
_cell_angle_beta   90.439236
_cell_angle_gamma 121.47616
loop_
_atom_site_label
_atom_site_type_symbol
_atom_site_fract_x
_atom_site_fract_y
_atom_site_fract_z
_atom_type_partial_charge
H0 H 0.20303 0.62728 0.31039 0.0
H1 H 0.09235 0.59579 0.22987 0.0
H2 H 0.05258 0.53903 0.33955 0.0
H3 H 0.98392 0.53981 0.32469 0.0
H4 H 0.8763 0.46232 0.24189 0.0
H5 H 1.02771 0.52471 0.21616 0.0
C6 C 0.16465 0.60963 0.30295 0.0
C7 C 0.12924 0.5843 0.32951 0.0
C8 C 0.1516 0.61356 0.2671 0.0
C9 C 0.10204 0.59139 0.25746 0.0
C10 C 0.06546 0.56317 0.28313 0.0
C11 C 0.07973 0.56006 0.31926 0.0
C12 C 1.01284 0.53593 0.27193 0.0
C13 C 0.9752 0.52614 0.29705 0.0
C14 C 0.92588 0.4983 0.28659 0.0
C15 C 0.91427 0.48186 0.25052 0.0
C16 C 0.95083 0.49221 0.22495 0.0
C17 C 0.99987 0.51853 0.23588 0.0
H18 H 0.59152 0.17992 0.47421 0.0
H19 H 0.52595 0.07159 0.39454 0.0
H20 H 0.55158 0.04261 0.50562 0.0
H21 H 0.48372 0.97437 0.49391 0.0
H22 H 0.449 0.8693 0.414 0.0
H23 H 0.53471 1.01167 0.38208 0.0
C24 C 0.57577 0.14371 0.46729 0.0
C25 C 0.57188 0.11255 0.49429 0.0
C26 C 0.55983 0.12913 0.43142 0.0
C27 C 0.53986 0.08251 0.42213 0.0
C28 C 0.53623 0.05028 0.44874 0.0
C29 C 0.55335 0.0662 0.48472 0.0
C30 C 0.51325 1.00007 0.43942 0.0
C31 C 0.48778 0.96539 0.46626 0.0
C32 C 0.46521 0.91844 0.45712 0.0
C33 C 0.46762 0.90571 0.42118 0.0
C34 C 0.49198 0.93923 0.3941 0.0
C35 C 0.51517 0.98623 0.40329 0.0
H36 H 0.58498 0.41884 0.5801 0.0
H37 H 0.52826 0.46773 0.66227 0.0
H38 H 0.5475 0.51934 0.55095 0.0
H39 H 0.47739 0.51887 0.56715 0.0
H40 H 0.45992 0.59988 0.6484 0.0
H41 H 0.54916 0.54309 0.67263 0.0
C42 C 0.57051 0.44031 0.58765 0.0
C43 C 0.56662 0.46818 0.56111 0.0
C44 C 0.55715 0.44033 0.62401 0.0
C45 C 0.53966 0.4689 0.63419 0.0
C46 C 0.53549 0.49757 0.60795 0.0
C47 C 0.54975 0.49727 0.57144 0.0
C48 C 0.51578 0.52719 0.6186 0.0
C49 C 0.48622 0.53466 0.5941 0.0
C50 C 0.46755 0.56231 0.60441 0.0
C51 C 0.47695 0.58102 0.63981 0.0
C52 C 0.50572 0.57379 0.66477 0.0
C53 C 0.5257 0.5475 0.65375 0.0
H54 H 0.20054 0.57718 0.74304 0.0
H55 H 0.0975 0.50287 0.82838 0.0
H56 H 0.04823 0.50647 0.71792 0.0
H57 H 0.98237 0.44089 0.73474 0.0
H58 H 0.87742 0.41198 0.81841 0.0
H59 H 1.02924 0.50019 0.84344 0.0
C60 C 0.163 0.55661 0.75223 0.0
C61 C 0.12528 0.54242 0.72671 0.0
C62 C 0.15322 0.54309 0.78898 0.0
C63 C 0.1045 0.51428 0.80011 0.0
C64 C 0.06541 0.50097 0.77499 0.0
C65 C 0.07671 0.51524 0.73803 0.0
C66 C 1.01324 0.47421 0.78737 0.0
C67 C 0.97477 0.44609 0.76258 0.0
C68 C 0.92581 0.4251 0.77338 0.0
C69 C 0.91518 0.42979 0.80962 0.0
C70 C 0.95237 0.45582 0.83498 0.0
C71 C 1.00118 0.47841 0.82378 0.0
H72 H 0.49616 0.87295 -0.02206 0.0
H73 H 0.55669 0.97866 0.8958 0.0
H74 H 0.5307 1.00968 0.00542 0.0
H75 H 0.59831 0.07908 -0.0083 0.0
H76 H 0.61873 0.17836 0.90953 0.0
H77 H 0.54155 0.03466 0.88164 0.0
C78 C 0.51081 0.90875 -0.02988 0.0
C79 C 0.51323 0.94017 -0.00393 0.0
C80 C 0.52577 0.92235 0.93399 0.0
C81 C 0.54375 0.96835 0.92358 0.0
C82 C 0.54628 1.00081 0.9492 0.0
C83 C 0.53003 0.98588 -0.01463 0.0
C84 C 0.56602 0.05007 0.93842 0.0
C85 C 0.59153 0.08635 0.96408 0.0
C86 C 0.60928 0.13251 0.95404 0.0
C87 C 0.60277 0.14257 0.91796 0.0
C88 C 0.57957 0.10754 0.8918 0.0
C89 C 0.5605 0.06139 0.90213 0.0
H90 H 0.48373 0.62613 0.0786 0.0
H91 H 0.54632 0.58299 0.16172 0.0
H92 H 0.52359 0.52724 0.05164 0.0
H93 H 0.59359 0.52955 0.06561 0.0
H94 H 0.62726 0.46025 0.1484 0.0
H95 H 0.53675 0.51388 0.17567 0.0
C96 C 0.49885 0.60529 0.08678 0.0
C97 C 0.50312 0.57732 0.06085 0.0
C98 C 0.51363 0.60678 0.12314 0.0
C99 C 0.53311 0.57987 0.13383 0.0
C100 C 0.5375 0.55099 0.10821 0.0
C101 C 0.52122 0.54934 0.07181 0.0
C102 C 0.56092 0.52434 0.11895 0.0
C103 C 0.58859 0.51628 0.09334 0.0
C104 C 0.61236 0.49312 0.10394 0.0
C105 C 0.60824 0.47753 0.14002 0.0
C106 C 0.58161 0.48553 0.16584 0.0
C107 C 0.55771 0.50853 0.15533 0.0
C108 C 0.61616 0.29559 0.35379 0.0
O109 O 0.65072 0.31195 0.32897 0.0
O110 O 0.71236 0.4157 0.35391 0.0
Zn111 Zn 0.64089 0.392 0.36261 0.0
O112 O 0.62698 0.41578 0.40872 0.0
C113 C 0.62923 0.44595 0.30692 0.0
O114 O 0.66739 0.48022 0.32347 0.0
O115 O 0.60634 0.32302 0.36982 0.0
C116 C 0.6344 0.45506 0.41819 0.0
O117 O 0.65797 0.49085 0.39633 0.0
C118 C 0.75024 0.4544 0.36204 0.0
O119 O 0.74563 0.48576 0.37943 0.0
O120 O 0.61179 0.40495 0.31863 0.0
C121 C 0.35928 0.7494 0.53721 0.0
O122 O 0.38253 0.7353 0.55809 0.0
O123 O 0.33167 0.63271 0.53965 0.0
Zn124 Zn 0.28165 0.6508 0.53104 0.0
O125 O 0.24465 0.62664 0.48365 0.0
C126 C 0.21264 0.59023 0.58516 0.0
O127 O 0.21806 0.55901 0.56836 0.0
O128 O 0.31704 0.71999 0.52493 0.0
C129 C 0.20353 0.59109 0.47561 0.0
O130 O 0.1784 0.55976 0.50067 0.0
C131 C 0.32922 0.59515 0.53123 0.0
O132 O 0.29036 0.56248 0.51407 0.0
O133 O 0.23628 0.63185 0.57396 0.0
C134 C 0.61535 0.33099 0.70273 0.0
O135 O 0.64997 0.34922 0.72782 0.0
O136 O 0.71066 0.30399 0.70526 0.0
Zn137 Zn 0.63923 0.2582 0.69509 0.0
O138 O 0.62701 0.22191 0.64853 0.0
C139 C 0.62705 0.19291 0.75075 0.0
O140 O 0.66647 0.19791 0.73558 0.0
O141 O 0.60537 0.29353 0.6871 0.0
C142 C 0.633 0.18892 0.63976 0.0
O143 O 0.65273 0.17379 0.6632 0.0
C144 C 0.74762 0.30182 0.69624 0.0
O145 O 0.74146 0.26631 0.67722 0.0
O146 O 0.60882 0.21568 0.73818 0.0
C147 C 0.46947 0.75768 0.85316 0.0
O148 O 0.43696 0.74363 0.82656 0.0
O149 O 0.37098 0.63653 0.8509 0.0
Zn150 Zn 0.44271 0.66031 0.85921 0.0
O151 O 0.4555 0.63383 0.90431 0.0
C152 C 0.49125 0.62644 0.81135 0.0
O153 O 0.49713 0.6076 0.84092 0.0
O154 O 0.47733 0.72868 0.86903 0.0
C155 C 0.44465 0.59358 0.91434 0.0
O156 O 0.41851 0.55789 0.89273 0.0
C157 C 0.33383 0.60062 0.86402 0.0
O158 O 0.33982 0.57378 0.8867 0.0
O159 O 0.47038 0.64952 0.81357 0.0
C160 C 0.72287 0.43398 0.02426 0.0
O161 O 0.70335 0.40435 -0.00295 0.0
O162 O 0.74044 0.33703 0.01957 0.0
Zn163 Zn 0.79273 0.40335 0.02897 0.0
O164 O 0.8334 0.40898 0.07289 0.0
C165 C 0.87174 0.42612 -0.02082 0.0
O166 O 0.88374 0.40566 0.00415 0.0
O167 O 0.76074 0.43929 0.04034 0.0
C168 C 0.87194 0.44781 0.07922 0.0
O169 O 0.88494 0.48187 0.05583 0.0
C170 C 0.74421 0.3023 0.02687 0.0
O171 O 0.7845 0.30885 0.04221 0.0
O172 O 0.83448 0.42932 -0.0158 0.0
C173 C 0.45987 0.71846 0.20242 0.0
O174 O 0.42528 0.69998 0.2272 0.0
O175 O 0.3644 0.74389 0.20203 0.0
Zn176 Zn 0.43611 0.79124 0.19542 0.0
O177 O 0.45156 0.83062 0.15009 0.0
C178 C 0.44707 0.85534 0.25172 0.0
O179 O 0.41152 0.85488 0.23334 0.0
O180 O 0.47036 0.75646 0.18737 0.0
C181 C 0.44319 0.86163 0.13944 0.0
O182 O 0.41729 0.87271 0.1598 0.0
C183 C 0.3269 0.74565 0.19352 0.0
O184 O 0.33224 0.78272 0.1774 0.0
O185 O 0.46346 0.8305 0.24075 0.0
C186 C 0.19478 0.68124 0.2243 0.0
C187 C 0.19112 0.64205 0.24082 0.0
H188 H 0.24106 0.74524 0.19611 0.0
C189 C 0.22976 0.63429 0.23709 0.0
H190 H 0.16552 0.68805 0.22704 0.0
C191 C 0.27283 0.66687 0.21981 0.0
C192 C 0.27825 0.70799 0.20581 0.0
H193 H 0.2276 0.60411 0.2494 0.0
H194 H 0.30271 0.66073 0.21895 0.0
C195 C 0.2381 0.71403 0.20685 0.0
C196 C 0.54243 0.1895 0.41239 0.0
C197 C 0.56442 0.16399 0.40465 0.0
H198 H 0.54103 0.25081 0.40193 0.0
C199 C 0.59818 0.1783 0.37596 0.0
H200 H 0.51636 0.17904 0.43451 0.0
C201 C 0.61285 0.21983 0.35739 0.0
C202 C 0.59392 0.2475 0.3674 0.0
H203 H 0.6159 0.1593 0.36984 0.0
H204 H 0.64121 0.23163 0.33694 0.0
C205 C 0.55689 0.23074 0.39389 0.0
C206 C 0.4452 0.61614 0.57649 0.0
C207 C 0.43648 0.57109 0.57949 0.0
H208 H 0.41846 0.65902 0.55873 0.0
C209 C 0.39484 0.53448 0.56244 0.0
H210 H 0.47737 0.64509 0.58895 0.0
C211 C 0.36082 0.54245 0.54496 0.0
C212 C 0.36799 0.58713 0.54436 0.0
H213 H 0.38717 0.49939 0.56449 0.0
H214 H 0.32785 0.5133 0.5336 0.0
C215 C 0.41137 0.62406 0.55921 0.0
C216 C 0.87967 0.36026 0.72818 0.0
C217 C 0.88453 0.39814 0.74763 0.0
H218 H 0.83212 0.29964 0.69643 0.0
C219 C 0.84641 0.40697 0.74618 0.0
H220 H 0.90852 0.35268 0.729 0.0
C221 C 0.80289 0.37677 0.72794 0.0
C222 C 0.79645 0.33701 0.71059 0.0
H223 H 0.84952 0.43632 0.76059 0.0
H224 H 0.77361 0.38376 0.72865 0.0
C225 C 0.83588 0.32986 0.70975 0.0
C226 C 0.53989 0.85929 0.91692 0.0
C227 C 0.52076 0.887 0.90768 0.0
H228 H 0.53926 0.79706 0.90654 0.0
C229 C 0.49014 0.87549 0.87682 0.0
H230 H 0.56377 0.86767 0.94054 0.0
C231 C 0.4756 0.83465 0.85738 0.0
C232 C 0.49162 0.8049 0.86856 0.0
H233 H 0.47474 0.89627 0.86938 0.0
H234 H 0.44966 0.82511 0.83503 0.0
C235 C 0.52561 0.81876 0.89751 0.0
C236 C 0.62346 0.45842 0.04711 0.0
C237 C 0.64347 0.48612 0.07847 0.0
H238 H 0.63315 0.41997 0.00499 0.0
C239 C 0.69184 0.50157 0.08864 0.0
H240 H 0.5861 0.44599 0.03894 0.0
C241 C 0.71866 0.48685 0.06946 0.0
C242 C 0.69753 0.45608 0.03981 0.0
H243 H 0.70804 0.52322 0.11264 0.0
H244 H 0.75514 0.49781 0.07909 0.0
C245 C 0.65033 0.44341 0.02789 0.0
C246 C 0.46043 0.87031 0.51087 0.0
C247 C 0.43672 0.88143 0.48398 0.0
H248 H 0.45427 0.81944 0.54926 0.0
C249 C 0.38635 0.85203 0.47846 0.0
H250 H 0.49945 0.89243 0.51519 0.0
C251 C 0.3605 0.81052 0.49779 0.0
C252 C 0.38472 0.79732 0.5227 0.0
H253 H 0.36752 0.86 0.45767 0.0
H254 H 0.32207 0.78763 0.49159 0.0
C255 C 0.43459 0.82847 0.53014 0.0
C256 C 0.59644 0.4298 0.67966 0.0
C257 C 0.56283 0.41038 0.65057 0.0
H258 H 0.63967 0.41968 0.71936 0.0
C259 C 0.54138 0.36315 0.6427 0.0
H260 H 0.61368 0.46629 0.68597 0.0
C261 C 0.55618 0.33659 0.66151 0.0
C262 C 0.59301 0.35681 0.68848 0.0
H263 H 0.51528 0.34748 0.62038 0.0
H264 H 0.54063 0.30083 0.65343 0.0
C265 C 0.61148 0.40317 0.69853 0.0
C266 C 0.20036 0.52742 0.83622 0.0
C267 C 0.19514 0.55899 0.81459 0.0
H268 H 0.24873 0.51589 0.86913 0.0
C269 C 0.23362 0.60545 0.81353 0.0
H270 H 0.17131 0.49139 0.8374 0.0
C271 C 0.27785 0.61932 0.83114 0.0
C272 C 0.28453 0.58714 0.85054 0.0
H273 H 0.23028 0.63069 0.79752 0.0
H274 H 0.30744 0.65496 0.82835 0.0
C275 C 0.24476 0.54143 0.85417 0.0
C276 C 0.67977 0.17658 -0.00257 0.0
C277 C 0.63836 0.17156 -0.02043 0.0
H278 H 0.7461 0.2222 0.02658 0.0
C279 C 0.62902 0.20761 -0.01835 0.0
H280 H 0.68794 0.1494 -0.00398 0.0
C281 C 0.66227 0.24923 -0.00122 0.0
C282 C 0.70564 0.25573 0.01424 0.0
H283 H 0.59707 0.2044 -0.03161 0.0
H284 H 0.65491 0.27701 -0.00154 0.0
C285 C 0.71319 0.21839 0.01466 0.0
C286 C 0.52919 0.68431 0.14019 0.0
C287 C 0.50864 0.63744 0.14908 0.0
H288 H 0.53061 0.74692 0.15055 0.0
C289 C 0.47721 0.61897 0.17922 0.0
H290 H 0.55368 0.69927 0.11709 0.0
C291 C 0.46343 0.64616 0.19833 0.0
C292 C 0.4811 0.69218 0.18754 0.0
H293 H 0.46076 0.58278 0.18638 0.0
H294 H 0.43692 0.63036 0.22011 0.0
C295 C 0.51576 0.71147 0.15931 0.0
C296 C 0.88228 0.52136 0.33059 0.0
C297 C 0.8853 0.48662 0.31216 0.0
H298 H 0.83686 0.53849 0.36101 0.0
C299 C 0.84588 0.4407 0.31422 0.0
H300 H 0.9121 0.55706 0.32926 0.0
C301 C 0.80298 0.4301 0.33203 0.0
C302 C 0.79842 0.46518 0.34829 0.0
H303 H 0.84749 0.41318 0.30058 0.0
H304 H 0.77269 0.39455 0.33177 0.0
C305 C 0.83912 0.51071 0.34855 0.0
C306 C 0.12511 0.54489 0.38954 0.0
C307 C 0.14516 0.58519 0.36796 0.0
H308 H 0.12808 0.51494 0.44086 0.0
C309 C 0.18279 0.62711 0.38276 0.0
H310 H 0.09616 0.51207 0.37881 0.0
C311 C 0.20155 0.62855 0.41751 0.0
C312 C 0.18259 0.58825 0.43883 0.0
H313 H 0.19814 0.65905 0.36729 0.0
H314 H 0.23088 0.66154 0.42773 0.0
C315 C 0.14359 0.54646 0.42486 0.0
C316 C 0.57113 0.15847 0.54714 0.0
C317 C 0.58538 0.12899 0.53262 0.0
H318 H 0.57516 0.2005 0.59192 0.0
C319 C 0.61378 0.11737 0.55435 0.0
H320 H 0.54826 0.16719 0.53141 0.0
C321 C 0.62898 0.13629 0.58953 0.0
C322 C 0.61608 0.16714 0.60335 0.0
H323 H 0.62536 0.0948 0.54378 0.0
H324 H 0.65158 0.12751 0.60555 0.0
C325 C 0.58649 0.1775 0.58191 0.0
C326 C 0.50733 0.56312 0.73296 0.0
C327 C 0.51139 0.59118 0.70298 0.0
H328 H 0.49825 0.55262 0.79107 0.0
C329 C 0.51525 0.63381 0.70978 0.0
H330 H 0.50397 0.52995 0.72873 0.0
C331 C 0.51077 0.64617 0.74532 0.0
C332 C 0.5035 0.6167 0.77492 0.0
H333 H 0.51975 0.65686 0.68743 0.0
H334 H 0.51156 0.6782 0.74947 0.0
C335 C 0.50377 0.57596 0.76868 0.0
C336 C 0.90196 0.46638 0.881 0.0
C337 C 0.93899 0.45734 0.87342 0.0
H338 H 0.85193 0.464 0.92048 0.0
C339 C 0.95791 0.4433 0.90201 0.0
H340 H 0.88709 0.4776 0.85939 0.0
C341 C 0.93754 0.43511 0.93704 0.0
C342 C 0.89813 0.44109 0.94398 0.0
H343 H 0.98632 0.4359 0.89672 0.0
H344 H 0.95125 0.42218 0.95819 0.0
C345 C 0.88181 0.45846 0.91595 0.0
C346 C 0.46668 0.93367 0.05334 0.0
C347 C 0.4985 0.92434 0.03431 0.0
H348 H 0.42375 0.92084 0.10174 0.0
C349 C 0.51409 0.89685 0.0511 0.0
H350 H 0.454 0.95465 0.04092 0.0
C351 C 0.49659 0.87727 0.0854 0.0
C352 C 0.46327 0.88493 0.10397 0.0
H353 H 0.53934 0.88981 0.03736 0.0
H354 H 0.50887 0.85562 0.09713 0.0
C355 C 0.44918 0.9141 0.08798 0.0
C356 C 0.60822 0.50911 0.23031 0.0
C357 C 0.58378 0.47364 0.20441 0.0
H358 H 0.6423 0.52811 0.28329 0.0
C359 C 0.56963 0.42815 0.21389 0.0
H360 H 0.61998 0.54453 0.22329 0.0
C361 C 0.58201 0.41862 0.24819 0.0
C362 C 0.60968 0.45467 0.27317 0.0
H363 H 0.55108 0.40042 0.19407 0.0
H364 H 0.57234 0.38351 0.25426 0.0
C365 C 0.62141 0.49976 0.26438 0.0
C366 C 0.50113 0.89119 0.3469 0.0
C367 C 0.48883 0.92411 0.35575 0.0
H368 H 0.49817 0.84398 0.30665 0.0
C369 C 0.46694 0.93749 0.32902 0.0
H370 H 0.51795 0.88034 0.36722 0.0
C371 C 0.45476 0.91613 0.29465 0.0
C372 C 0.46495 0.88157 0.28633 0.0
H373 H 0.45671 0.9625 0.33544 0.0
H374 H 0.43608 0.92573 0.275 0.0
C375 C 0.48972 0.87039 0.31233 0.0
C376 C 0.61123 0.50603 0.50266 0.0
C377 C 0.58022 0.46578 0.52279 0.0
H378 H 0.65322 0.53436 0.45359 0.0
C379 C 0.56504 0.42243 0.50724 0.0
H380 H 0.62364 0.53989 0.5141 0.0
C381 C 0.58232 0.41924 0.47319 0.0
C382 C 0.61489 0.45936 0.45356 0.0
H383 H 0.54041 0.39078 0.52184 0.0
H384 H 0.57041 0.38516 0.46245 0.0
C385 C 0.62842 0.50284 0.46822 0.0
C386 C 0.16778 0.60111 0.6777 0.0
C387 C 0.13816 0.55452 0.6879 0.0
H388 H 0.21411 0.64902 0.63675 0.0
C389 C 0.12854 0.51972 0.66255 0.0
H390 H 0.17584 0.62839 0.69709 0.0
C391 C 0.15119 0.53137 0.6283 0.0
C392 C 0.18325 0.578 0.61886 0.0
H393 H 0.10621 0.48357 0.67014 0.0
H394 H 0.1451 0.50385 0.60984 0.0
C395 C 0.18979 0.61279 0.6433 0.0
C396 C 0.56581 0.15092 0.84258 0.0
C397 C 0.5815 0.12081 0.853 0.0
H398 H 0.56739 0.197 0.80153 0.0
C399 C 0.60716 0.11029 0.82786 0.0
H400 H 0.54617 0.15962 0.86173 0.0
C401 C 0.62024 0.13235 0.7938 0.0
C402 C 0.60719 0.1647 0.78421 0.0
H403 H 0.62007 0.08755 0.83554 0.0
H404 H 0.64218 0.12542 0.77559 0.0
C405 C 0.57814 0.17237 0.80826 0.0
C406 C 0.46022 0.5402 0.00135 0.0
C407 C 0.49099 0.58009 0.02205 0.0
H408 H 0.42087 0.513 0.95071 0.0
C409 C 0.50863 0.62375 0.00616 0.0
H410 H 0.44616 0.50614 0.01307 0.0
C411 C 0.4942 0.62771 -0.029 0.0
C412 C 0.46183 0.58807 0.95065 0.0
H413 H 0.53318 0.65506 0.02125 0.0
H414 H 0.50804 0.6621 0.96002 0.0
C415 C 0.44565 0.54416 -0.03417 0.0
C416 C 0.89809 0.43331 0.17785 0.0
C417 C 0.937 0.47803 0.18628 0.0
H418 H 0.84732 0.38839 0.13714 0.0
C419 C 0.95844 0.51084 0.15805 0.0
H420 H 0.88133 0.40723 0.19909 0.0
C421 C 0.9389 0.50018 0.12257 0.0
C422 C 0.89773 0.45647 0.11474 0.0
H423 H 0.98835 0.54563 0.16386 0.0
H424 H 0.95466 0.52692 0.10177 0.0
C425 C 0.87872 0.42256 0.14238 0.0
loop_
_geom_bond_atom_site_label_1
_geom_bond_atom_site_label_2
_geom_bond_distance
_geom_bond_site_symmetry_2
_ccdc_geom_bond_type
H0 C6 0.930 . S
H1 C9 0.931 . S
H2 C11 0.931 . S
H3 C13 0.930 . S
H4 C15 0.930 . S
H5 C17 0.931 . S
C6 H0 0.930 . S
C6 C7 1.380 . S
C6 C8 1.394 . S
C7 C6 1.380 . S
C7 C11 1.382 . S
C8 C6 1.394 . S
C8 C9 1.400 . S
C9 H1 0.931 . S
C9 C8 1.400 . S
C9 C10 1.375 . S
C10 C9 1.375 . S
C10 C11 1.415 . S
C10 C12 1.501 1_455 S
C11 H2 0.931 . S
C11 C7 1.382 . S
C11 C10 1.415 . S
C12 C10 1.501 1_655 S
C12 C13 1.384 . S
C12 C17 1.408 . S
C13 H3 0.930 . S
C13 C12 1.384 . S
C13 C14 1.389 . S
C14 C13 1.389 . S
C14 C15 1.405 . S
C15 H4 0.930 . S
C15 C14 1.405 . S
C15 C16 1.364 . S
C16 C15 1.364 . S
C16 C17 1.400 . S
C17 H5 0.931 . S
C17 C12 1.408 . S
C17 C16 1.400 . S
H18 C24 0.930 . S
H19 C27 0.931 . S
H20 C29 0.931 . S
H21 C31 0.930 . S
H22 C33 0.930 . S
H23 C35 0.931 . S
C24 H18 0.930 . S
C24 C25 1.380 . S
C24 C26 1.394 . S
C25 C24 1.380 . S
C25 C29 1.382 . S
C26 C24 1.394 . S
C26 C27 1.400 . S
C27 H19 0.931 . S
C27 C26 1.400 . S
C27 C28 1.375 . S
C28 C27 1.375 . S
C28 C29 1.415 . S
C28 C30 1.501 1_545 S
C29 H20 0.931 . S
C29 C25 1.382 . S
C29 C28 1.415 . S
C30 C28 1.501 1_565 S
C30 C31 1.384 . S
C30 C35 1.408 . S
C31 H21 0.930 . S
C31 C30 1.384 . S
C31 C32 1.389 . S
C32 C31 1.389 . S
C32 C33 1.405 . S
C33 H22 0.930 . S
C33 C32 1.405 . S
C33 C34 1.364 . S
C34 C33 1.364 . S
C34 C35 1.400 . S
C35 H23 0.931 . S
C35 C30 1.408 . S
C35 C34 1.400 . S
H36 C42 0.930 . S
H37 C45 0.931 . S
H38 C47 0.931 . S
H39 C49 0.930 . S
H40 C51 0.930 . S
H41 C53 0.931 . S
C42 H36 0.930 . S
C42 C43 1.380 . S
C42 C44 1.394 . S
C43 C42 1.380 . S
C43 C47 1.382 . S
C44 C42 1.394 . S
C44 C45 1.400 . S
C45 H37 0.931 . S
C45 C44 1.400 . S
C45 C46 1.375 . S
C46 C45 1.375 . S
C46 C47 1.415 . S
C46 C48 1.501 . S
C47 H38 0.931 . S
C47 C43 1.382 . S
C47 C46 1.415 . S
C48 C46 1.501 . S
C48 C49 1.384 . S
C48 C53 1.408 . S
C49 H39 0.930 . S
C49 C48 1.384 . S
C49 C50 1.389 . S
C50 C49 1.389 . S
C50 C51 1.405 . S
C51 H40 0.930 . S
C51 C50 1.405 . S
C51 C52 1.364 . S
C52 C51 1.364 . S
C52 C53 1.400 . S
C53 H41 0.931 . S
C53 C48 1.408 . S
C53 C52 1.400 . S
H54 C60 0.930 . S
H55 C63 0.931 . S
H56 C65 0.931 . S
H57 C67 0.930 . S
H58 C69 0.930 . S
H59 C71 0.931 . S
C60 H54 0.930 . S
C60 C61 1.380 . S
C60 C62 1.394 . S
C61 C60 1.380 . S
C61 C65 1.382 . S
C62 C60 1.394 . S
C62 C63 1.400 . S
C63 H55 0.931 . S
C63 C62 1.400 . S
C63 C64 1.375 . S
C64 C63 1.375 . S
C64 C65 1.415 . S
C64 C66 1.501 1_455 S
C65 H56 0.931 . S
C65 C61 1.382 . S
C65 C64 1.415 . S
C66 C64 1.501 1_655 S
C66 C67 1.384 . S
C66 C71 1.408 . S
C67 H57 0.930 . S
C67 C66 1.384 . S
C67 C68 1.389 . S
C68 C67 1.389 . S
C68 C69 1.405 . S
C69 H58 0.930 . S
C69 C68 1.405 . S
C69 C70 1.364 . S
C70 C69 1.364 . S
C70 C71 1.400 . S
C71 H59 0.931 . S
C71 C66 1.408 . S
C71 C70 1.400 . S
H72 C78 0.930 . S
H73 C81 0.931 . S
H74 C83 0.931 . S
H75 C85 0.930 . S
H76 C87 0.930 . S
H77 C89 0.931 . S
C78 H72 0.930 . S
C78 C79 1.380 . S
C78 C80 1.394 1_554 S
C79 C78 1.380 . S
C79 C83 1.382 . S
C80 C78 1.394 1_556 S
C80 C81 1.400 . S
C81 H73 0.931 . S
C81 C80 1.400 . S
C81 C82 1.375 . S
C82 C81 1.375 . S
C82 C83 1.415 1_556 S
C82 C84 1.501 1_565 S
C83 H74 0.931 . S
C83 C79 1.382 . S
C83 C82 1.415 1_554 S
C84 C82 1.501 1_545 S
C84 C85 1.384 1_556 S
C84 C89 1.408 . S
C85 H75 0.930 . S
C85 C84 1.384 1_554 S
C85 C86 1.389 1_554 S
C86 C85 1.389 1_556 S
C86 C87 1.405 . S
C87 H76 0.930 . S
C87 C86 1.405 . S
C87 C88 1.364 . S
C88 C87 1.364 . S
C88 C89 1.400 . S
C89 H77 0.931 . S
C89 C84 1.408 . S
C89 C88 1.400 . S
H90 C96 0.930 . S
H91 C99 0.931 . S
H92 C101 0.931 . S
H93 C103 0.930 . S
H94 C105 0.930 . S
H95 C107 0.931 . S
C96 H90 0.930 . S
C96 C97 1.380 . S
C96 C98 1.394 . S
C97 C96 1.380 . S
C97 C101 1.382 . S
C98 C96 1.394 . S
C98 C99 1.400 . S
C99 H91 0.931 . S
C99 C98 1.400 . S
C99 C100 1.375 . S
C100 C99 1.375 . S
C100 C101 1.415 . S
C100 C102 1.501 . S
C101 H92 0.931 . S
C101 C97 1.382 . S
C101 C100 1.415 . S
C102 C100 1.501 . S
C102 C103 1.384 . S
C102 C107 1.408 . S
C103 H93 0.930 . S
C103 C102 1.384 . S
C103 C104 1.389 . S
C104 C103 1.389 . S
C104 C105 1.405 . S
C105 H94 0.930 . S
C105 C104 1.405 . S
C105 C106 1.364 . S
C106 C105 1.364 . S
C106 C107 1.400 . S
C107 H95 0.931 . S
C107 C102 1.408 . S
C107 C106 1.400 . S
C108 O109 1.160 . S
C108 O115 1.185 . S
O109 C108 1.160 . S
O110 Zn111 1.899 . S
O110 C118 1.284 . S
Zn111 O110 1.899 . S
Zn111 O112 2.032 . S
Zn111 O115 2.086 . S
Zn111 O120 1.977 . S
O112 Zn111 2.032 . S
O112 C116 1.278 . S
C113 O114 1.203 . S
C113 O120 1.267 . S
O114 C113 1.203 . S
O115 C108 1.185 . S
O115 Zn111 2.086 . S
C116 O112 1.278 . S
C116 O117 1.211 . S
O117 C116 1.211 . S
C118 O110 1.284 . S
C118 O119 1.273 . S
O119 C118 1.273 . S
O120 Zn111 1.977 . S
O120 C113 1.267 . S
C121 O122 1.160 . S
C121 O128 1.185 . S
O122 C121 1.160 . S
O123 Zn124 1.899 . S
O123 C131 1.284 . S
Zn124 O123 1.899 . S
Zn124 O125 2.032 . S
Zn124 O128 2.086 . S
Zn124 O133 1.977 . S
O125 Zn124 2.032 . S
O125 C129 1.278 . S
C126 O127 1.203 . S
C126 O133 1.267 . S
O127 C126 1.203 . S
O128 C121 1.185 . S
O128 Zn124 2.086 . S
C129 O125 1.278 . S
C129 O130 1.211 . S
O130 C129 1.211 . S
C131 O123 1.284 . S
C131 O132 1.273 . S
O132 C131 1.273 . S
O133 Zn124 1.977 . S
O133 C126 1.267 . S
C134 O135 1.160 . S
C134 O141 1.185 . S
O135 C134 1.160 . S
O136 Zn137 1.899 . S
O136 C144 1.284 . S
Zn137 O136 1.899 . S
Zn137 O138 2.032 . S
Zn137 O141 2.086 . S
Zn137 O146 1.977 . S
O138 Zn137 2.032 . S
O138 C142 1.278 . S
C139 O140 1.203 . S
C139 O146 1.267 . S
O140 C139 1.203 . S
O141 C134 1.185 . S
O141 Zn137 2.086 . S
C142 O138 1.278 . S
C142 O143 1.211 . S
O143 C142 1.211 . S
C144 O136 1.284 . S
C144 O145 1.273 . S
O145 C144 1.273 . S
O146 Zn137 1.977 . S
O146 C139 1.267 . S
C147 O148 1.160 . S
C147 O154 1.185 . S
O148 C147 1.160 . S
O149 Zn150 1.899 . S
O149 C157 1.284 . S
Zn150 O149 1.899 . S
Zn150 O151 2.032 . S
Zn150 O154 2.086 . S
Zn150 O159 1.977 . S
O151 Zn150 2.032 . S
O151 C155 1.278 . S
C152 O153 1.203 . S
C152 O159 1.267 . S
O153 C152 1.203 . S
O154 C147 1.185 . S
O154 Zn150 2.086 . S
C155 O151 1.278 . S
C155 O156 1.211 . S
O156 C155 1.211 . S
C157 O149 1.284 . S
C157 O158 1.273 . S
O158 C157 1.273 . S
O159 Zn150 1.977 . S
O159 C152 1.267 . S
C160 O161 1.160 . S
C160 O167 1.185 . S
O161 C160 1.160 . S
O162 Zn163 1.899 . S
O162 C170 1.284 . S
Zn163 O162 1.899 . S
Zn163 O164 2.032 . S
Zn163 O167 2.086 . S
Zn163 O172 1.977 . S
O164 Zn163 2.032 . S
O164 C168 1.278 . S
C165 O166 1.203 1_556 S
C165 O172 1.267 1_556 S
O166 C165 1.203 1_554 S
O167 C160 1.185 . S
O167 Zn163 2.086 . S
C168 O164 1.278 . S
C168 O169 1.211 . S
O169 C168 1.211 . S
C170 O162 1.284 . S
C170 O171 1.273 . S
O171 C170 1.273 . S
O172 Zn163 1.977 . S
O172 C165 1.267 1_554 S
C173 O174 1.160 . S
C173 O180 1.185 . S
O174 C173 1.160 . S
O175 Zn176 1.899 . S
O175 C183 1.284 . S
Zn176 O175 1.899 . S
Zn176 O177 2.032 . S
Zn176 O180 2.086 . S
Zn176 O185 1.977 . S
O177 Zn176 2.032 . S
O177 C181 1.278 . S
C178 O179 1.203 . S
C178 O185 1.267 . S
O179 C178 1.203 . S
O180 C173 1.185 . S
O180 Zn176 2.086 . S
C181 O177 1.278 . S
C181 O182 1.211 . S
O182 C181 1.211 . S
C183 O175 1.284 . S
C183 O184 1.273 . S
O184 C183 1.273 . S
O185 Zn176 1.977 . S
O185 C178 1.267 . S
C186 C187 1.387 . S
C186 H190 0.950 . S
C186 C195 1.390 . S
C187 C186 1.387 . S
C187 C189 1.387 . S
H188 C195 0.950 . S
C189 C187 1.387 . S
C189 C191 1.390 . S
C189 H193 0.950 . S
H190 C186 0.950 . S
C191 C189 1.390 . S
C191 C192 1.387 . S
C191 H194 0.950 . S
C192 C191 1.387 . S
C192 C195 1.387 . S
H193 C189 0.950 . S
H194 C191 0.950 . S
C195 C186 1.390 . S
C195 H188 0.950 . S
C195 C192 1.387 . S
C196 C197 1.387 . S
C196 H200 0.950 . S
C196 C205 1.390 . S
C197 C196 1.387 . S
C197 C199 1.387 . S
H198 C205 0.950 . S
C199 C197 1.387 . S
C199 C201 1.390 . S
C199 H203 0.950 . S
H200 C196 0.950 . S
C201 C199 1.390 . S
C201 C202 1.387 . S
C201 H204 0.950 . S
C202 C201 1.387 . S
C202 C205 1.387 . S
H203 C199 0.950 . S
H204 C201 0.950 . S
C205 C196 1.390 . S
C205 H198 0.950 . S
C205 C202 1.387 . S
C206 C207 1.387 . S
C206 H210 0.950 . S
C206 C215 1.390 . S
C207 C206 1.387 . S
C207 C209 1.387 . S
H208 C215 0.950 . S
C209 C207 1.387 . S
C209 C211 1.390 . S
C209 H213 0.950 . S
H210 C206 0.950 . S
C211 C209 1.390 . S
C211 C212 1.387 . S
C211 H214 0.950 . S
C212 C211 1.387 . S
C212 C215 1.387 . S
H213 C209 0.950 . S
H214 C211 0.950 . S
C215 C206 1.390 . S
C215 H208 0.950 . S
C215 C212 1.387 . S
C216 C217 1.387 . S
C216 H220 0.950 . S
C216 C225 1.390 . S
C217 C216 1.387 . S
C217 C219 1.387 . S
H218 C225 0.950 . S
C219 C217 1.387 . S
C219 C221 1.390 . S
C219 H223 0.950 . S
H220 C216 0.950 . S
C221 C219 1.390 . S
C221 C222 1.387 . S
C221 H224 0.950 . S
C222 C221 1.387 . S
C222 C225 1.387 . S
H223 C219 0.950 . S
H224 C221 0.950 . S
C225 C216 1.390 . S
C225 H218 0.950 . S
C225 C222 1.387 . S
C226 C227 1.387 . S
C226 H230 0.950 1_556 S
C226 C235 1.390 . S
C227 C226 1.387 . S
C227 C229 1.387 . S
H228 C235 0.950 . S
C229 C227 1.387 . S
C229 C231 1.390 . S
C229 H233 0.950 . S
H230 C226 0.950 1_554 S
C231 C229 1.390 . S
C231 C232 1.387 . S
C231 H234 0.950 . S
C232 C231 1.387 . S
C232 C235 1.387 . S
H233 C229 0.950 . S
H234 C231 0.950 . S
C235 C226 1.390 . S
C235 H228 0.950 . S
C235 C232 1.387 . S
C236 C237 1.387 . S
C236 H240 0.950 . S
C236 C245 1.390 . S
C237 C236 1.387 . S
C237 C239 1.387 . S
H238 C245 0.950 . S
C239 C237 1.387 . S
C239 C241 1.390 . S
C239 H243 0.950 . S
H240 C236 0.950 . S
C241 C239 1.390 . S
C241 C242 1.387 . S
C241 H244 0.950 . S
C242 C241 1.387 . S
C242 C245 1.387 . S
H243 C239 0.950 . S
H244 C241 0.950 . S
C245 C236 1.390 . S
C245 H238 0.950 . S
C245 C242 1.387 . S
C246 C247 1.387 . S
C246 H250 0.950 . S
C246 C255 1.390 . S
C247 C246 1.387 . S
C247 C249 1.387 . S
H248 C255 0.950 . S
C249 C247 1.387 . S
C249 C251 1.390 . S
C249 H253 0.950 . S
H250 C246 0.950 . S
C251 C249 1.390 . S
C251 C252 1.387 . S
C251 H254 0.950 . S
C252 C251 1.387 . S
C252 C255 1.387 . S
H253 C249 0.950 . S
H254 C251 0.950 . S
C255 C246 1.390 . S
C255 H248 0.950 . S
C255 C252 1.387 . S
C256 C257 1.387 . S
C256 H260 0.950 . S
C256 C265 1.390 . S
C257 C256 1.387 . S
C257 C259 1.387 . S
H258 C265 0.950 . S
C259 C257 1.387 . S
C259 C261 1.390 . S
C259 H263 0.950 . S
H260 C256 0.950 . S
C261 C259 1.390 . S
C261 C262 1.387 . S
C261 H264 0.950 . S
C262 C261 1.387 . S
C262 C265 1.387 . S
H263 C259 0.950 . S
H264 C261 0.950 . S
C265 C256 1.390 . S
C265 H258 0.950 . S
C265 C262 1.387 . S
C266 C267 1.387 . S
C266 H270 0.950 . S
C266 C275 1.390 . S
C267 C266 1.387 . S
C267 C269 1.387 . S
H268 C275 0.950 . S
C269 C267 1.387 . S
C269 C271 1.390 . S
C269 H273 0.950 . S
H270 C266 0.950 . S
C271 C269 1.390 . S
C271 C272 1.387 . S
C271 H274 0.950 . S
C272 C271 1.387 . S
C272 C275 1.387 . S
H273 C269 0.950 . S
H274 C271 0.950 . S
C275 C266 1.390 . S
C275 H268 0.950 . S
C275 C272 1.387 . S
C276 C277 1.387 . S
C276 H280 0.950 . S
C276 C285 1.390 . S
C277 C276 1.387 . S
C277 C279 1.387 1_554 S
H278 C285 0.950 . S
C279 C277 1.387 1_556 S
C279 C281 1.390 1_556 S
C279 H283 0.950 . S
H280 C276 0.950 . S
C281 C279 1.390 1_554 S
C281 C282 1.387 . S
C281 H284 0.950 1_554 S
C282 C281 1.387 . S
C282 C285 1.387 . S
H283 C279 0.950 . S
H284 C281 0.950 1_556 S
C285 C276 1.390 . S
C285 H278 0.950 . S
C285 C282 1.387 . S
C286 C287 1.387 . S
C286 H290 0.950 . S
C286 C295 1.390 . S
C287 C286 1.387 . S
C287 C289 1.387 . S
H288 C295 0.950 . S
C289 C287 1.387 . S
C289 C291 1.390 . S
C289 H293 0.950 . S
H290 C286 0.950 . S
C291 C289 1.390 . S
C291 C292 1.387 . S
C291 H294 0.950 . S
C292 C291 1.387 . S
C292 C295 1.387 . S
H293 C289 0.950 . S
H294 C291 0.950 . S
C295 C286 1.390 . S
C295 H288 0.950 . S
C295 C292 1.387 . S
C296 C297 1.387 . S
C296 H300 0.950 . S
C296 C305 1.390 . S
C297 C296 1.387 . S
C297 C299 1.387 . S
H298 C305 0.950 . S
C299 C297 1.387 . S
C299 C301 1.390 . S
C299 H303 0.950 . S
H300 C296 0.950 . S
C301 C299 1.390 . S
C301 C302 1.387 . S
C301 H304 0.950 . S
C302 C301 1.387 . S
C302 C305 1.387 . S
H303 C299 0.950 . S
H304 C301 0.950 . S
C305 C296 1.390 . S
C305 H298 0.950 . S
C305 C302 1.387 . S
C306 C307 1.387 . S
C306 H310 0.950 . S
C306 C315 1.390 . S
C307 C306 1.387 . S
C307 C309 1.387 . S
H308 C315 0.950 . S
C309 C307 1.387 . S
C309 C311 1.390 . S
C309 H313 0.950 . S
H310 C306 0.950 . S
C311 C309 1.390 . S
C311 C312 1.387 . S
C311 H314 0.950 . S
C312 C311 1.387 . S
C312 C315 1.387 . S
H313 C309 0.950 . S
H314 C311 0.950 . S
C315 C306 1.390 . S
C315 H308 0.950 . S
C315 C312 1.387 . S
C316 C317 1.387 . S
C316 H320 0.950 . S
C316 C325 1.390 . S
C317 C316 1.387 . S
C317 C319 1.387 . S
H318 C325 0.950 . S
C319 C317 1.387 . S
C319 C321 1.390 . S
C319 H323 0.950 . S
H320 C316 0.950 . S
C321 C319 1.390 . S
C321 C322 1.387 . S
C321 H324 0.950 . S
C322 C321 1.387 . S
C322 C325 1.387 . S
H323 C319 0.950 . S
H324 C321 0.950 . S
C325 C316 1.390 . S
C325 H318 0.950 . S
C325 C322 1.387 . S
C326 C327 1.387 . S
C326 H330 0.950 . S
C326 C335 1.390 . S
C327 C326 1.387 . S
C327 C329 1.387 . S
H328 C335 0.950 . S
C329 C327 1.387 . S
C329 C331 1.390 . S
C329 H333 0.950 . S
H330 C326 0.950 . S
C331 C329 1.390 . S
C331 C332 1.387 . S
C331 H334 0.950 . S
C332 C331 1.387 . S
C332 C335 1.387 . S
H333 C329 0.950 . S
H334 C331 0.950 . S
C335 C326 1.390 . S
C335 H328 0.950 . S
C335 C332 1.387 . S
C336 C337 1.387 . S
C336 H340 0.950 . S
C336 C345 1.390 . S
C337 C336 1.387 . S
C337 C339 1.387 . S
H338 C345 0.950 . S
C339 C337 1.387 . S
C339 C341 1.390 . S
C339 H343 0.950 . S
H340 C336 0.950 . S
C341 C339 1.390 . S
C341 C342 1.387 . S
C341 H344 0.950 . S
C342 C341 1.387 . S
C342 C345 1.387 . S
H343 C339 0.950 . S
H344 C341 0.950 . S
C345 C336 1.390 . S
C345 H338 0.950 . S
C345 C342 1.387 . S
C346 C347 1.387 . S
C346 H350 0.950 . S
C346 C355 1.390 . S
C347 C346 1.387 . S
C347 C349 1.387 . S
H348 C355 0.950 . S
C349 C347 1.387 . S
C349 C351 1.390 . S
C349 H353 0.950 . S
H350 C346 0.950 . S
C351 C349 1.390 . S
C351 C352 1.387 . S
C351 H354 0.950 . S
C352 C351 1.387 . S
C352 C355 1.387 . S
H353 C349 0.950 . S
H354 C351 0.950 . S
C355 C346 1.390 . S
C355 H348 0.950 . S
C355 C352 1.387 . S
C356 C357 1.387 . S
C356 H360 0.950 . S
C356 C365 1.390 . S
C357 C356 1.387 . S
C357 C359 1.387 . S
H358 C365 0.950 . S
C359 C357 1.387 . S
C359 C361 1.390 . S
C359 H363 0.950 . S
H360 C356 0.950 . S
C361 C359 1.390 . S
C361 C362 1.387 . S
C361 H364 0.950 . S
C362 C361 1.387 . S
C362 C365 1.387 . S
H363 C359 0.950 . S
H364 C361 0.950 . S
C365 C356 1.390 . S
C365 H358 0.950 . S
C365 C362 1.387 . S
C366 C367 1.387 . S
C366 H370 0.950 . S
C366 C375 1.390 . S
C367 C366 1.387 . S
C367 C369 1.387 . S
H368 C375 0.950 . S
C369 C367 1.387 . S
C369 C371 1.390 . S
C369 H373 0.950 . S
H370 C366 0.950 . S
C371 C369 1.390 . S
C371 C372 1.387 . S
C371 H374 0.950 . S
C372 C371 1.387 . S
C372 C375 1.387 . S
H373 C369 0.950 . S
H374 C371 0.950 . S
C375 C366 1.390 . S
C375 H368 0.950 . S
C375 C372 1.387 . S
C376 C377 1.387 . S
C376 H380 0.950 . S
C376 C385 1.390 . S
C377 C376 1.387 . S
C377 C379 1.387 . S
H378 C385 0.950 . S
C379 C377 1.387 . S
C379 C381 1.390 . S
C379 H383 0.950 . S
H380 C376 0.950 . S
C381 C379 1.390 . S
C381 C382 1.387 . S
C381 H384 0.950 . S
C382 C381 1.387 . S
C382 C385 1.387 . S
H383 C379 0.950 . S
H384 C381 0.950 . S
C385 C376 1.390 . S
C385 H378 0.950 . S
C385 C382 1.387 . S
C386 C387 1.387 . S
C386 H390 0.950 . S
C386 C395 1.390 . S
C387 C386 1.387 . S
C387 C389 1.387 . S
H388 C395 0.950 . S
C389 C387 1.387 . S
C389 C391 1.390 . S
C389 H393 0.950 . S
H390 C386 0.950 . S
C391 C389 1.390 . S
C391 C392 1.387 . S
C391 H394 0.950 . S
C392 C391 1.387 . S
C392 C395 1.387 . S
H393 C389 0.950 . S
H394 C391 0.950 . S
C395 C386 1.390 . S
C395 H388 0.950 . S
C395 C392 1.387 . S
C396 C397 1.387 . S
C396 H400 0.950 . S
C396 C405 1.390 . S
C397 C396 1.387 . S
C397 C399 1.387 . S
H398 C405 0.950 . S
C399 C397 1.387 . S
C399 C401 1.390 . S
C399 H403 0.950 . S
H400 C396 0.950 . S
C401 C399 1.390 . S
C401 C402 1.387 . S
C401 H404 0.950 . S
C402 C401 1.387 . S
C402 C405 1.387 . S
H403 C399 0.950 . S
H404 C401 0.950 . S
C405 C396 1.390 . S
C405 H398 0.950 . S
C405 C402 1.387 . S
C406 C407 1.387 . S
C406 H410 0.950 . S
C406 C415 1.390 1_554 S
C407 C406 1.387 . S
C407 C409 1.387 . S
H408 C415 0.950 . S
C409 C407 1.387 . S
C409 C411 1.390 . S
C409 H413 0.950 . S
H410 C406 0.950 . S
C411 C409 1.390 . S
C411 C412 1.387 1_554 S
C411 H414 0.950 . S
C412 C411 1.387 1_556 S
C412 C415 1.387 . S
H413 C409 0.950 . S
H414 C411 0.950 . S
C415 C406 1.390 1_556 S
C415 H408 0.950 . S
C415 C412 1.387 . S
C416 C417 1.387 . S
C416 H420 0.950 . S
C416 C425 1.390 . S
C417 C416 1.387 . S
C417 C419 1.387 . S
H418 C425 0.950 . S
C419 C417 1.387 . S
C419 C421 1.390 . S
C419 H423 0.950 . S
H420 C416 0.950 . S
C421 C419 1.390 . S
C421 C422 1.387 . S
C421 H424 0.950 . S
C422 C421 1.387 . S
C422 C425 1.387 . S
H423 C419 0.950 . S
H424 C421 0.950 . S
C425 C416 1.390 . S
C425 H418 0.950 . S
C425 C422 1.387 . S
C192 C183 1.572 . S
C187 C8 1.531 . S
C197 C26 1.504 . S
C202 C108 1.476 . S
C207 C50 1.532 . S
C212 C131 1.589 . S
C217 C68 1.449 . S
C222 C144 1.487 . S
C232 C147 1.496 . S
C227 C80 1.525 . S
C237 C104 1.446 . S
C242 C160 1.442 . S
C247 C32 1.453 . S
C252 C121 1.449 . S
C257 C44 1.527 . S
C262 C134 1.501 . S
C267 C62 1.450 . S
C272 C157 1.484 . S
C282 C170 1.584 . S
C277 C86 1.528 1_554 S
C292 C173 1.472 . S
C287 C98 1.502 . S
C302 C118 1.575 . S
C297 C14 1.529 . S
C307 C7 1.471 . S
C312 C129 1.474 . S
C317 C25 1.438 . S
C322 C142 1.447 . S
C332 C152 1.471 . S
C327 C52 1.458 . S
C337 C70 1.449 . S
C342 C165 1.453 . S
C352 C181 1.475 . S
C347 C79 1.468 . S
C362 C113 1.449 . S
C357 C106 1.430 . S
C372 C178 1.447 . S
C367 C34 1.431 . S
C377 C43 1.468 . S
C382 C116 1.476 . S
C392 C126 1.452 . S
C387 C61 1.445 . S
C397 C88 1.461 . S
C402 C139 1.470 . S
C407 C97 1.441 . S
C412 C155 1.450 . S
C417 C16 1.474 . S
C422 C168 1.473 . S
