# Generated by pormake.
# Topology pyr, (3,6)-cn, num edge types: 1
# Building blocks:
#     Node 0, Type 0, BuildingBlock: QEWDON_clean_linker_0, # of connection points: 3
#     Node 1, Type 0, BuildingBlock: QEWDON_clean_linker_0, # of connection points: 3
#     Node 2, Type 0, BuildingBlock: QEWDON_clean_linker_0, # of connection points: 3
#     Node 3, Type 0, BuildingBlock: QEWDON_clean_linker_0, # of connection points: 3
#     Node 4, Type 0, BuildingBlock: QEWDON_clean_linker_0, # of connection points: 3
#     Node 5, Type 0, BuildingBlock: QEWDON_clean_linker_0, # of connection points: 3
#     Node 6, Type 0, BuildingBlock: QEWDON_clean_linker_0, # of connection points: 3
#     Node 7, Type 0, BuildingBlock: QEWDON_clean_linker_0, # of connection points: 3
#     Node 8, Type 1, BuildingBlock: VOLQOD_clean_sbu_1, # of connection points: 6
#     Node 9, Type 1, BuildingBlock: VOLQOD_clean_sbu_1, # of connection points: 6
#     Node 10, Type 1, BuildingBlock: VOLQOD_clean_sbu_1, # of connection points: 6
#     Node 11, Type 1, BuildingBlock: VOLQOD_clean_sbu_1, # of connection points: 6
#     Edge 12, Type (0, 1), BuildingBlock: KIFKEQ_clean_linker_1, # of connection points: 2
#     Edge 13, Type (0, 1), BuildingBlock: KIFKEQ_clean_linker_1, # of connection points: 2
#     Edge 14, Type (0, 1), BuildingBlock: KIFKEQ_clean_linker_1, # of connection points: 2
#     Edge 15, Type (0, 1), BuildingBlock: KIFKEQ_clean_linker_1, # of connection points: 2
#     Edge 16, Type (0, 1), BuildingBlock: KIFKEQ_clean_linker_1, # of connection points: 2
#     Edge 17, Type (0, 1), BuildingBlock: KIFKEQ_clean_linker_1, # of connection points: 2
#     Edge 18, Type (0, 1), BuildingBlock: KIFKEQ_clean_linker_1, # of connection points: 2
#     Edge 19, Type (0, 1), BuildingBlock: KIFKEQ_clean_linker_1, # of connection points: 2
#     Edge 20, Type (0, 1), BuildingBlock: KIFKEQ_clean_linker_1, # of connection points: 2
#     Edge 21, Type (0, 1), BuildingBlock: KIFKEQ_clean_linker_1, # of connection points: 2
#     Edge 22, Type (0, 1), BuildingBlock: KIFKEQ_clean_linker_1, # of connection points: 2
#     Edge 23, Type (0, 1), BuildingBlock: KIFKEQ_clean_linker_1, # of connection points: 2
#     Edge 24, Type (0, 1), BuildingBlock: KIFKEQ_clean_linker_1, # of connection points: 2
#     Edge 25, Type (0, 1), BuildingBlock: KIFKEQ_clean_linker_1, # of connection points: 2
#     Edge 26, Type (0, 1), BuildingBlock: KIFKEQ_clean_linker_1, # of connection points: 2
#     Edge 27, Type (0, 1), BuildingBlock: KIFKEQ_clean_linker_1, # of connection points: 2
#     Edge 28, Type (0, 1), BuildingBlock: KIFKEQ_clean_linker_1, # of connection points: 2
#     Edge 29, Type (0, 1), BuildingBlock: KIFKEQ_clean_linker_1, # of connection points: 2
#     Edge 30, Type (0, 1), BuildingBlock: KIFKEQ_clean_linker_1, # of connection points: 2
#     Edge 31, Type (0, 1), BuildingBlock: KIFKEQ_clean_linker_1, # of connection points: 2
#     Edge 32, Type (0, 1), BuildingBlock: KIFKEQ_clean_linker_1, # of connection points: 2
#     Edge 33, Type (0, 1), BuildingBlock: KIFKEQ_clean_linker_1, # of connection points: 2
#     Edge 34, Type (0, 1), BuildingBlock: KIFKEQ_clean_linker_1, # of connection points: 2
#     Edge 35, Type (0, 1), BuildingBlock: KIFKEQ_clean_linker_1, # of connection points: 2
# Relax obj value: 0.167
# Max RMSD: 0.274
# Mean RMSD: 0.204
data_MOF--net-pry--node1-VOLQOD_clean_sbu_1--node2-QEWDON_clean_linker_0--edge1-KIFKEQ_clean_linker_1
_symmetry_space_group_name_H-M    P1
_symmetry_Int_Tables_number       1
_symmetry_cell_setting            triclinic
loop_
_symmetry_equiv_pos_as_xyz
'x, y, z'
_cell_length_a     37.491073
_cell_length_b     37.739313
_cell_length_c     40.488643
_cell_angle_alpha  89.770839
_cell_angle_beta   90.548744
_cell_angle_gamma 98.505814
loop_
_atom_site_label
_atom_site_type_symbol
_atom_site_fract_x
_atom_site_fract_y
_atom_site_fract_z
_atom_type_partial_charge
H0 H 0.23273 0.22997 0.15075 0.0
C1 C 0.21318 0.21719 0.16828 0.0
C2 C 0.21431 0.18162 0.1781 0.0
C3 C 0.18901 0.23737 0.18304 0.0
H4 H 0.19196 0.139 0.21064 0.0
C5 C 0.19034 0.16607 0.20233 0.0
C6 C 0.16603 0.18582 0.21744 0.0
C7 C 0.16537 0.22152 0.20744 0.0
C8 C 0.19405 0.27666 0.17819 0.0
H9 H 0.1478 0.23755 0.21977 0.0
C10 C 0.17023 0.29383 0.15871 0.0
C11 C 0.17682 0.33142 0.15418 0.0
C12 C 0.22383 0.29718 0.19354 0.0
H13 H 0.24231 0.28442 0.20866 0.0
C14 C 0.22994 0.33424 0.18977 0.0
H15 H 0.14742 0.27797 0.14657 0.0
C16 C 0.20671 0.35126 0.1703 0.0
H17 H 0.21208 0.38017 0.16806 0.0
H18 H 0.25283 0.34986 0.20194 0.0
H19 H 0.36297 0.93822 0.78583 0.0
C20 C 0.37494 0.91932 0.77094 0.0
C21 C 0.40826 0.9097 0.78042 0.0
C22 C 0.35596 0.90368 0.74341 0.0
H23 H 0.44805 0.87567 0.76966 0.0
C24 C 0.42283 0.88395 0.76179 0.0
C25 C 0.40447 0.86831 0.73358 0.0
C26 C 0.37113 0.87883 0.7244 0.0
C27 C 0.31873 0.91099 0.73707 0.0
H28 H 0.35636 0.86689 0.70309 0.0
C29 C 0.30831 0.92434 0.70645 0.0
C30 C 0.2736 0.934 0.70246 0.0
C31 C 0.29371 0.90598 0.76294 0.0
H32 H 0.30103 0.89542 0.78657 0.0
C33 C 0.25913 0.91468 0.7587 0.0
H34 H 0.32745 0.92858 0.68642 0.0
C35 C 0.24919 0.92888 0.72878 0.0
H36 H 0.22227 0.93579 0.72611 0.0
H37 H 0.2401 0.91074 0.77878 0.0
H38 H 0.62812 0.49826 0.97286 0.0
C39 C 0.61884 0.47196 0.98308 0.0
C40 C 0.64381 0.45079 0.99553 0.0
C41 C 0.58179 0.45901 0.98298 0.0
H42 H 0.64994 0.39959 0.0171 0.0
C43 C 0.63105 0.41634 0.00762 0.0
C44 C 0.59416 0.40273 0.00659 0.0
C45 C 0.56955 0.42441 0.99468 0.0
C46 C 0.55597 0.48051 0.96827 0.0
H47 H 0.541 0.41403 0.99365 0.0
C48 C 0.55803 0.48904 0.93456 0.0
C49 C 0.53243 0.50775 0.91957 0.0
C50 C 0.52844 0.49125 0.98732 0.0
H51 H 0.52638 0.48465 0.01337 0.0
C52 C 0.5035 0.51075 0.9728 0.0
H53 H 0.57926 0.48048 0.91992 0.0
C54 C 0.50537 0.51895 0.9391 0.0
H55 H 0.48513 0.5332 0.92819 0.0
H56 H 0.48235 0.51911 0.9876 0.0
H57 H 0.86458 0.70407 0.36839 0.0
C58 C 0.85347 0.69278 0.39141 0.0
C59 C 0.86505 0.70959 0.42123 0.0
C60 C 0.82668 0.66248 0.39119 0.0
H61 H 0.85713 0.71054 0.4739 0.0
C62 C 0.84943 0.69652 0.451 0.0
C63 C 0.82235 0.66675 0.45114 0.0
C64 C 0.81169 0.64932 0.42132 0.0
C65 C 0.81264 0.64623 0.35941 0.0
H66 H 0.79048 0.62643 0.42148 0.0
C67 C 0.83624 0.64251 0.33328 0.0
C68 C 0.82297 0.62852 0.30267 0.0
C69 C 0.77541 0.63536 0.35467 0.0
H70 H 0.75642 0.63851 0.37404 0.0
C71 C 0.76212 0.62112 0.32448 0.0
H72 H 0.86503 0.65004 0.33693 0.0
C73 C 0.78565 0.61778 0.29858 0.0
H74 H 0.77453 0.60737 0.27518 0.0
H75 H 0.73341 0.61306 0.321 0.0
H76 H 0.85856 0.90159 0.90233 0.0
C77 C 0.87468 0.9115 0.88125 0.0
C78 C 0.90616 0.89688 0.87369 0.0
C79 C 0.86299 0.93777 0.86084 0.0
H80 H 0.94971 0.89768 0.83874 0.0
C81 C 0.92613 0.90943 0.84552 0.0
C82 C 0.91511 0.93635 0.82538 0.0
C83 C 0.88386 0.95054 0.83354 0.0
C84 C 0.82735 0.94968 0.8656 0.0
H85 H 0.8748 0.97066 0.8176 0.0
C86 C 0.81646 0.9609 0.89664 0.0
C87 C 0.78333 0.97405 0.89968 0.0
C88 C 0.80414 0.95044 0.83816 0.0
H89 H 0.81147 0.94128 0.81418 0.0
C90 C 0.77118 0.96283 0.84129 0.0
H91 H 0.83408 0.96052 0.91797 0.0
C92 C 0.76088 0.97476 0.87173 0.0
H93 H 0.73502 0.98414 0.87354 0.0
H94 H 0.75355 0.96324 0.82 0.0
H95 H 0.68907 0.17481 0.48461 0.0
C96 C 0.67834 0.17158 0.45967 0.0
C97 C 0.69713 0.15497 0.43572 0.0
C98 C 0.64468 0.18223 0.45229 0.0
H99 H 0.6958 0.13631 0.38534 0.0
C100 C 0.68178 0.14924 0.40406 0.0
C101 C 0.64821 0.15957 0.39625 0.0
C102 C 0.63007 0.17681 0.42026 0.0
C103 C 0.6226 0.19343 0.47953 0.0
H104 H 0.60354 0.18361 0.41475 0.0
C105 C 0.60951 0.22666 0.47929 0.0
C106 C 0.58856 0.23618 0.50584 0.0
C107 C 0.61442 0.16991 0.50626 0.0
H108 H 0.62398 0.14418 0.50688 0.0
C109 C 0.59358 0.17906 0.53228 0.0
H110 H 0.61575 0.24497 0.45876 0.0
C111 C 0.58078 0.21187 0.53216 0.0
H112 H 0.56533 0.21854 0.55312 0.0
H113 H 0.58748 0.1607 0.55275 0.0
H114 H 0.4229 0.67962 0.20348 0.0
C115 C 0.3974 0.67715 0.19023 0.0
C116 C 0.3897 0.70551 0.1702 0.0
C117 C 0.37282 0.64518 0.19203 0.0
H118 H 0.35094 0.72444 0.13752 0.0
C119 C 0.35714 0.70217 0.15246 0.0
C120 C 0.33205 0.67093 0.1546 0.0
C121 C 0.34 0.64249 0.17441 0.0
C122 C 0.38139 0.61432 0.21183 0.0
H123 H 0.32064 0.6182 0.17601 0.0
C124 C 0.39629 0.61945 0.24377 0.0
C125 C 0.4035 0.59006 0.26293 0.0
C126 C 0.37427 0.57944 0.19893 0.0
H127 H 0.36327 0.57474 0.17423 0.0
C128 C 0.38156 0.55024 0.21768 0.0
H129 H 0.40198 0.6463 0.25377 0.0
C130 C 0.39591 0.55539 0.24949 0.0
H131 H 0.40051 0.53212 0.26374 0.0
H132 H 0.37585 0.52346 0.20758 0.0
H133 H 0.13132 0.45535 0.66906 0.0
C134 C 0.12306 0.43813 0.64818 0.0
C135 C 0.14633 0.43814 0.62114 0.0
C136 C 0.09017 0.41465 0.64896 0.0
H137 H 0.15566 0.41226 0.57523 0.0
C138 C 0.13682 0.41406 0.59509 0.0
C139 C 0.10458 0.39009 0.59587 0.0
C140 C 0.08071 0.39179 0.62202 0.0
C141 C 0.06733 0.41109 0.67901 0.0
H142 H 0.05575 0.37323 0.62252 0.0
C143 C 0.06358 0.44109 0.69849 0.0
C144 C 0.04262 0.4372 0.72724 0.0
C145 C 0.04984 0.3771 0.68895 0.0
H146 H 0.05312 0.35311 0.67545 0.0
C147 C 0.02845 0.37332 0.71703 0.0
H148 H 0.0767 0.46747 0.6913 0.0
C149 C 0.0248 0.40313 0.73611 0.0
H150 H 0.00895 0.39932 0.75842 0.0
H151 H 0.01521 0.34707 0.72439 0.0
O152 O 0.02148 0.11837 0.54443 0.0
Zn153 Zn 0.99607 0.06798 0.53918 0.0
O154 O 0.02393 0.04162 0.50976 0.0
Zn155 Zn 0.9981 0.03279 0.46746 0.0
Zn156 Zn 0.07178 0.06859 0.50172 0.0
Zn157 Zn 0.0304 0.99691 0.53122 0.0
O158 O 0.98743 0.97951 0.4588 0.0
O159 O 0.00782 0.95546 0.50417 0.0
O160 O 0.94762 0.073 0.51905 0.0
O161 O 0.95033 0.05233 0.46801 0.0
O162 O 0.02779 0.05623 0.42941 0.0
O163 O 0.08074 0.07573 0.45298 0.0
O164 O 0.11214 0.04563 0.52314 0.0
O165 O 0.98823 0.04422 0.58429 0.0
O166 O 0.08266 0.99277 0.53807 0.0
O167 O 0.00924 0.99292 0.57687 0.0
C168 C 0.05178 0.13458 0.53466 0.0
C169 C 0.99243 0.95224 0.47596 0.0
C170 C 0.06046 0.07134 0.42744 0.0
C171 C 0.9337 0.06686 0.49043 0.0
C172 C 0.11191 0.01442 0.5354 0.0
C173 C 0.99444 0.0139 0.59508 0.0
O174 O 0.07366 0.11833 0.51888 0.0
O175 O 0.51275 0.11944 0.04574 0.0
Zn176 Zn 0.48963 0.06915 0.05636 0.0
O177 O 0.52017 0.04677 0.0875 0.0
Zn178 Zn 0.5321 0.00329 0.06763 0.0
Zn179 Zn 0.56544 0.07887 0.09663 0.0
Zn180 Zn 0.49389 0.03487 0.12883 0.0
O181 O 0.51614 0.96079 0.09604 0.0
O182 O 0.48685 0.98134 0.13756 0.0
O183 O 0.48013 0.04069 0.01361 0.0
O184 O 0.50925 0.99446 0.02269 0.0
O185 O 0.58505 0.00586 0.06077 0.0
O186 O 0.60938 0.05962 0.07847 0.0
O187 O 0.57202 0.08835 0.14574 0.0
O188 O 0.44225 0.07513 0.07727 0.0
O189 O 0.52208 0.05881 0.16763 0.0
O190 O 0.44506 0.05223 0.1277 0.0
C191 C 0.54159 0.13877 0.05564 0.0
C192 C 0.49829 0.95561 0.12262 0.0
C193 C 0.61245 0.02956 0.06536 0.0
C194 C 0.48992 0.0114 0.00415 0.0
C195 C 0.55235 0.07899 0.17073 0.0
C196 C 0.42848 0.06784 0.10558 0.0
O197 O 0.56364 0.12649 0.07517 0.0
O198 O 0.53839 0.57827 0.66136 0.0
Zn199 Zn 0.53727 0.60153 0.61663 0.0
O200 O 0.50453 0.56999 0.58712 0.0
Zn201 Zn 0.53019 0.55794 0.54837 0.0
Zn202 Zn 0.48543 0.52471 0.60916 0.0
Zn203 Zn 0.46536 0.59563 0.57296 0.0
O204 O 0.51049 0.57671 0.50674 0.0
O205 O 0.46413 0.60218 0.52345 0.0
O206 O 0.58868 0.61007 0.599 0.0
O207 O 0.58163 0.57836 0.55268 0.0
O208 O 0.52964 0.50499 0.54286 0.0
O209 O 0.5008 0.48087 0.58684 0.0
O210 O 0.43096 0.51857 0.61018 0.0
O211 O 0.51905 0.64903 0.62482 0.0
O212 O 0.41788 0.568 0.58588 0.0
O213 O 0.46858 0.64382 0.59504 0.0
C214 C 0.52324 0.5488 0.67371 0.0
C215 C 0.48403 0.59332 0.50049 0.0
C216 C 0.51792 0.47764 0.56019 0.0
C217 C 0.6016 0.59783 0.5731 0.0
C218 C 0.40804 0.5382 0.60032 0.0
C219 C 0.49093 0.66148 0.61497 0.0
O220 O 0.50259 0.52603 0.65645 0.0
O221 O 0.96824 0.57425 0.08895 0.0
Zn222 Zn 0.97765 0.55303 0.04538 0.0
O223 O 0.00223 0.59064 0.01676 0.0
Zn224 Zn 0.97189 0.59715 0.97882 0.0
Zn225 Zn 0.01197 0.63676 0.04012 0.0
Zn226 Zn 0.04683 0.57519 1.00203 0.0
O227 O 0.99411 0.58289 0.93717 0.0
O228 O 0.04827 0.57141 0.95251 0.0
O229 O 0.92846 0.53328 0.02695 0.0
O230 O 0.92304 0.56818 0.98345 0.0
O231 O 0.96503 0.6483 0.97278 0.0
O232 O 0.99556 0.67807 0.01365 0.0
O233 O 0.06542 0.6483 0.04953 0.0
O234 O 0.00661 0.51249 0.054 0.0
O235 O 0.08914 0.60922 0.01866 0.0
O236 O 0.05356 0.52688 0.02124 0.0
C237 C 0.97157 0.60584 0.10064 0.0
C238 C 0.02476 0.57442 0.93015 0.0
C239 C 0.97614 0.67758 0.98754 0.0
C240 C 0.90992 0.54331 1.00306 0.0
C241 C 0.09268 0.63569 0.03844 0.0
C242 C 0.03616 0.50571 0.04203 0.0
O243 O 0.98633 0.63288 0.08416 0.0
H244 H 0.15838 0.21733 0.27705 0.0
H245 H 0.12704 0.11876 0.22349 0.0
H246 H 0.13068 0.18937 0.32685 0.0
H247 H 0.0998 0.09055 0.27356 0.0
H248 H 0.02795 0.06388 0.36615 0.0
H249 H 0.05004 0.09236 0.31437 0.0
H250 H 0.14668 0.1419 0.36455 0.0
H251 H 0.12482 0.11376 0.4161 0.0
C252 C 0.14497 0.1899 0.27574 0.0
C253 C 0.14491 0.17025 0.24632 0.0
C254 C 0.1295 0.17374 0.30438 0.0
C255 C 0.11342 0.13762 0.30424 0.0
C256 C 0.1119 0.11843 0.27445 0.0
C257 C 0.12763 0.13452 0.24584 0.0
C258 C 0.054 0.08069 0.3661 0.0
C259 C 0.07456 0.08649 0.39537 0.0
C260 C 0.06664 0.09696 0.33642 0.0
C261 C 0.09993 0.11968 0.33545 0.0
C262 C 0.12064 0.12506 0.36459 0.0
C263 C 0.10821 0.1086 0.39412 0.0
H264 H 0.43337 0.87412 0.83269 0.0
H265 H 0.42183 0.98008 0.79803 0.0
H266 H 0.45396 0.89881 0.88639 0.0
H267 H 0.44347 0.00514 0.85121 0.0
H268 H 0.44047 0.03264 0.96065 0.0
H269 H 0.42349 0.00826 0.90613 0.0
H270 H 0.50012 0.93384 0.91696 0.0
H271 H 0.51602 0.95728 0.97183 0.0
C272 C 0.43612 0.90282 0.83634 0.0
C273 C 0.42594 0.92516 0.81123 0.0
C274 C 0.44788 0.91706 0.86715 0.0
C275 C 0.45007 0.95405 0.87345 0.0
C276 C 0.44131 0.97648 0.84769 0.0
C277 C 0.42924 0.96219 0.81706 0.0
C278 C 0.45366 0.01106 0.9514 0.0
C279 C 0.47951 0.9969 0.97076 0.0
C280 C 0.44413 0.9972 0.91996 0.0
C281 C 0.46047 0.96904 0.90689 0.0
C282 C 0.48649 0.95508 0.92626 0.0
C283 C 0.49576 0.9687 0.95778 0.0
H284 H 0.52294 0.56903 0.88631 0.0
H285 H 0.54335 0.46059 0.87117 0.0
H286 H 0.52271 0.57854 0.82657 0.0
H287 H 0.54422 0.47043 0.81166 0.0
H288 H 0.49671 0.4886 0.70864 0.0
H289 H 0.50048 0.47906 0.76799 0.0
H290 H 0.56416 0.58355 0.77906 0.0
H291 H 0.56005 0.59344 0.7197 0.0
C292 C 0.52745 0.5473 0.87023 0.0
C293 C 0.53319 0.5141 0.88341 0.0
C294 C 0.5277 0.55284 0.83607 0.0
C295 C 0.53349 0.52523 0.81445 0.0
C296 C 0.5394 0.49211 0.82768 0.0
C297 C 0.53926 0.48662 0.86177 0.0
C298 C 0.51175 0.50948 0.72364 0.0
C299 C 0.52798 0.54184 0.70938 0.0
C300 C 0.51402 0.50393 0.75766 0.0
C301 C 0.53249 0.53062 0.77819 0.0
C302 C 0.54933 0.56269 0.7639 0.0
C303 C 0.54718 0.56822 0.72985 0.0
H304 H 0.82119 0.57344 0.25885 0.0
H305 H 0.88117 0.67677 0.28375 0.0
H306 H 0.8604 0.56939 0.21199 0.0
H307 H 0.92165 0.67191 0.23768 0.0
H308 H 0.95416 0.66772 0.12714 0.0
H309 H 0.92083 0.67362 0.17785 0.0
H310 H 0.92079 0.56123 0.19883 0.0
H311 H 0.95301 0.55513 0.14787 0.0
C312 C 0.84284 0.59525 0.25438 0.0
C313 C 0.84794 0.62547 0.27495 0.0
C314 C 0.86567 0.59272 0.22777 0.0
C315 C 0.89431 0.62027 0.22118 0.0
C316 C 0.89968 0.65037 0.24194 0.0
C317 C 0.87673 0.65295 0.26855 0.0
C318 C 0.94741 0.64442 0.14282 0.0
C319 C 0.95578 0.61087 0.13329 0.0
C320 C 0.92841 0.6478 0.17193 0.0
C321 C 0.91769 0.61776 0.19214 0.0
C322 C 0.92783 0.5847 0.1834 0.0
C323 C 0.94649 0.58126 0.15427 0.0
H324 H 0.23344 0.1711 0.11413 0.0
H325 H 0.26077 0.14867 0.215 0.0
H326 H 0.28189 0.13979 0.09482 0.0
H327 H 0.31016 0.11904 0.1962 0.0
H328 H 0.38199 0.04522 0.15584 0.0
H329 H 0.3277 0.06926 0.17139 0.0
H330 H 0.34413 0.14493 0.09048 0.0
H331 H 0.39705 0.11952 0.07404 0.0
C332 C 0.24996 0.15954 0.13212 0.0
C333 C 0.24321 0.16207 0.166 0.0
C334 C 0.27791 0.14175 0.12115 0.0
C335 C 0.30022 0.12668 0.14386 0.0
C336 C 0.29324 0.12938 0.1778 0.0
C337 C 0.26499 0.1466 0.18868 0.0
C338 C 0.3737 0.0667 0.14118 0.0
C339 C 0.39392 0.08044 0.11374 0.0
C340 C 0.34268 0.08078 0.15024 0.0
C341 C 0.33144 0.10946 0.13249 0.0
C342 C 0.35135 0.12256 0.10457 0.0
C343 C 0.38196 0.10807 0.09518 0.0
H344 H 0.2701 0.90555 0.6403 0.0
H345 H 0.24999 0.99803 0.69536 0.0
H346 H 0.23933 0.92704 0.59198 0.0
H347 H 0.21943 0.01953 0.64753 0.0
H348 H 0.17343 0.05814 0.55517 0.0
H349 H 0.22242 0.04129 0.58941 0.0
H350 H 0.17384 0.93031 0.58413 0.0
H351 H 0.12521 0.94699 0.54999 0.0
C352 C 0.26001 0.93095 0.64168 0.0
C353 C 0.26212 0.95009 0.67146 0.0
C354 C 0.24224 0.94315 0.61419 0.0
C355 C 0.22677 0.9749 0.61599 0.0
C356 C 0.23133 0.99521 0.64514 0.0
C357 C 0.24863 0.98283 0.67262 0.0
C358 C 0.17374 0.03006 0.5606 0.0
C359 C 0.14516 0.00397 0.55024 0.0
C360 C 0.2017 0.02044 0.58034 0.0
C361 C 0.20185 0.9845 0.58972 0.0
C362 C 0.17474 0.95817 0.57717 0.0
C363 C 0.14666 0.9678 0.55779 0.0
H364 H 0.67818 0.51882 0.008 0.0
H365 H 0.69881 0.41276 0.98174 0.0
H366 H 0.7429 0.54013 0.00763 0.0
H367 H 0.76346 0.43396 0.9828 0.0
H368 H 0.87482 0.48192 0.03122 0.0
H369 H 0.81034 0.45896 0.02798 0.0
H370 H 0.79379 0.547 0.96408 0.0
H371 H 0.85806 0.56985 0.96691 0.0
C372 C 0.69639 0.50009 1.00197 0.0
C373 C 0.68319 0.46402 0.99507 0.0
C374 C 0.73343 0.51229 1.00189 0.0
C375 C 0.75802 0.48859 0.99531 0.0
C376 C 0.745 0.45262 0.98836 0.0
C377 C 0.70797 0.44051 0.98795 0.0
C378 C 0.85748 0.49619 0.01626 0.0
C379 C 0.87155 0.5277 0.99936 0.0
C380 C 0.82066 0.483 0.01435 0.0
C381 C 0.79723 0.5014 0.99594 0.0
C382 C 0.81131 0.53255 0.97868 0.0
C383 C 0.84814 0.54543 0.98016 0.0
H384 H 0.78834 0.71038 0.48875 0.0
H385 H 0.80817 0.60107 0.48052 0.0
H386 H 0.74125 0.69206 0.52887 0.0
H387 H 0.76222 0.58269 0.52204 0.0
H388 H 0.63857 0.56112 0.53159 0.0
H389 H 0.69952 0.57685 0.51274 0.0
H390 H 0.71522 0.66708 0.57954 0.0
H391 H 0.65266 0.65158 0.59801 0.0
C392 C 0.78357 0.68263 0.49664 0.0
C393 C 0.80128 0.65695 0.48127 0.0
C394 C 0.75669 0.67211 0.5198 0.0
C395 C 0.74736 0.63575 0.52816 0.0
C396 C 0.76807 0.61077 0.51544 0.0
C397 C 0.79445 0.62121 0.49181 0.0
C398 C 0.65498 0.58416 0.54262 0.0
C399 C 0.64052 0.60558 0.56579 0.0
C400 C 0.69035 0.5929 0.53214 0.0
C401 C 0.71246 0.62329 0.54458 0.0
C402 C 0.69875 0.64366 0.56926 0.0
C403 C 0.66303 0.63478 0.5799 0.0
H404 H 0.10253 0.32224 0.14997 0.0
H405 H 0.19818 0.38463 0.10982 0.0
H406 H 0.06509 0.35912 0.11902 0.0
H407 H 0.16142 0.42225 0.08046 0.0
H408 H 0.09055 0.47516 0.01441 0.0
H409 H 0.12088 0.42764 0.03704 0.0
H410 H 0.04934 0.41822 0.1207 0.0
H411 H 0.01806 0.46483 0.09728 0.0
C412 C 0.11554 0.34353 0.13428 0.0
C413 C 0.15337 0.35072 0.1327 0.0
C414 C 0.09413 0.36498 0.11682 0.0
C415 C 0.11009 0.39399 0.0973 0.0
C416 C 0.1479 0.40004 0.0948 0.0
C417 C 0.16914 0.37866 0.11206 0.0
C418 C 0.08097 0.46266 0.03743 0.0
C419 C 0.05206 0.47413 0.05415 0.0
C420 C 0.09854 0.43547 0.05057 0.0
C421 C 0.08806 0.41929 0.08107 0.0
C422 C 0.05808 0.4297 0.09706 0.0
C423 C 0.0402 0.45665 0.08369 0.0
H424 H 0.61157 0.36718 0.0618 0.0
H425 H 0.55029 0.35289 0.97079 0.0
H426 H 0.59727 0.30317 0.07325 0.0
H427 H 0.53663 0.28872 0.98169 0.0
H428 H 0.49457 0.17904 0.02713 0.0
H429 H 0.50455 0.24336 0.01659 0.0
H430 H 0.61442 0.24909 0.0519 0.0
H431 H 0.60415 0.18515 0.06337 0.0
C432 C 0.5949 0.35028 0.04436 0.0
C433 C 0.58207 0.36485 0.01543 0.0
C434 C 0.58691 0.31363 0.05074 0.0
C435 C 0.56622 0.29075 0.02814 0.0
C436 C 0.55236 0.30561 0.99974 0.0
C437 C 0.56013 0.34234 0.9935 0.0
C438 C 0.52094 0.194 0.0324 0.0
C439 C 0.54853 0.17702 0.04623 0.0
C440 C 0.52666 0.23087 0.02633 0.0
C441 C 0.56015 0.25145 0.03376 0.0
C442 C 0.58802 0.2342 0.04666 0.0
C443 C 0.58224 0.19746 0.05295 0.0
H444 H 0.92954 0.7227 0.45322 0.0
H445 H 0.85707 0.77185 0.3905 0.0
H446 H 0.96691 0.78081 0.46108 0.0
H447 H 0.89299 0.83036 0.39963 0.0
H448 H 0.98434 0.89014 0.51111 0.0
H449 H 0.95903 0.83084 0.49262 0.0
H450 H 0.9464 0.87191 0.39396 0.0
H451 H 0.97049 0.93208 0.41307 0.0
C452 C 0.92201 0.74603 0.44082 0.0
C453 C 0.89058 0.74316 0.42143 0.0
C454 C 0.94311 0.77931 0.44548 0.0
C455 C 0.93259 0.81044 0.43153 0.0
C456 C 0.90216 0.80702 0.41052 0.0
C457 C 0.88146 0.77358 0.40536 0.0
C458 C 0.97646 0.88657 0.48539 0.0
C459 C 0.97918 0.91588 0.46361 0.0
C460 C 0.96224 0.85237 0.47464 0.0
C461 C 0.95081 0.84643 0.4417 0.0
C462 C 0.95452 0.8756 0.4196 0.0
C463 C 0.9684 0.91005 0.43051 0.0
H464 H 0.47489 0.86471 0.71681 0.0
H465 H 0.36701 0.8065 0.70813 0.0
H466 H 0.49813 0.81728 0.68633 0.0
H467 H 0.39009 0.75953 0.67768 0.0
H468 H 0.43487 0.69698 0.59792 0.0
H469 H 0.41606 0.74854 0.62488 0.0
H470 H 0.50715 0.75436 0.69176 0.0
H471 H 0.52645 0.70293 0.66437 0.0
C472 C 0.45614 0.84179 0.70853 0.0
C473 C 0.41899 0.83967 0.71476 0.0
C474 C 0.46947 0.81461 0.69103 0.0
C475 C 0.44598 0.78467 0.67927 0.0
C476 C 0.40891 0.78254 0.68567 0.0
C477 C 0.39563 0.80958 0.70317 0.0
C478 C 0.45121 0.7094 0.61813 0.0
C479 C 0.4821 0.6955 0.62906 0.0
C480 C 0.44022 0.73889 0.63378 0.0
C481 C 0.45976 0.75536 0.66083 0.0
C482 C 0.49153 0.74247 0.67091 0.0
C483 C 0.50256 0.71289 0.65522 0.0
H484 H 0.93321 0.89407 0.7755 0.0
H485 H 0.93754 0.0046 0.80408 0.0
H486 H 0.95399 0.913 0.72038 0.0
H487 H 0.9595 0.02382 0.74941 0.0
H488 H 0.95251 0.04469 0.63857 0.0
H489 H 0.93699 0.02605 0.69494 0.0
H490 H 1.00125 0.94041 0.6867 0.0
H491 H 0.01556 0.95824 0.63 0.0
C492 C 0.9396 0.92245 0.77022 0.0
C493 C 0.93371 0.94785 0.79403 0.0
C494 C 0.95148 0.93339 0.73858 0.0
C495 C 0.95807 0.97003 0.73012 0.0
C496 C 0.95385 0.9954 0.75463 0.0
C497 C 0.94163 0.98443 0.7861 0.0
C498 C 0.96331 0.02188 0.64879 0.0
C499 C 0.98514 0.00291 0.62962 0.0
C500 C 0.95466 0.01131 0.68129 0.0
C501 C 0.96793 0.9817 0.69563 0.0
C502 C 0.99003 0.96296 0.67647 0.0
C503 C 0.99838 0.97332 0.6439 0.0
H504 H 0.63481 0.09267 0.37071 0.0
H505 H 0.62334 0.20245 0.34904 0.0
H506 H 0.60969 0.07441 0.31645 0.0
H507 H 0.59851 0.1842 0.29416 0.0
H508 H 0.60408 0.13579 0.18639 0.0
H509 H 0.62447 0.15689 0.24147 0.0
H510 H 0.54908 0.07287 0.28548 0.0
H511 H 0.5283 0.05196 0.23059 0.0
C512 C 0.62676 0.11285 0.35427 0.0
C513 C 0.63105 0.14896 0.36393 0.0
C514 C 0.61225 0.10239 0.32333 0.0
C515 C 0.6022 0.12789 0.3011 0.0
C516 C 0.60623 0.16405 0.31079 0.0
C517 C 0.62019 0.17445 0.34214 0.0
C518 C 0.59179 0.12186 0.20781 0.0
C519 C 0.56468 0.09206 0.20407 0.0
C520 C 0.60327 0.13414 0.23931 0.0
C521 C 0.58833 0.11652 0.26771 0.0
C522 C 0.56116 0.08686 0.264 0.0
C523 C 0.54925 0.07495 0.23256 0.0
H524 H 0.38617 0.63654 0.31009 0.0
H525 H 0.45408 0.55541 0.29321 0.0
H526 H 0.40877 0.64343 0.36664 0.0
H527 H 0.47482 0.56057 0.3502 0.0
H528 H 0.52729 0.59277 0.44675 0.0
H529 H 0.51047 0.59725 0.38885 0.0
H530 H 0.40269 0.61153 0.41746 0.0
H531 H 0.42003 0.60851 0.47537 0.0
C532 C 0.40609 0.62032 0.31834 0.0
C533 C 0.4182 0.59531 0.29709 0.0
C534 C 0.4187 0.62395 0.35093 0.0
C535 C 0.44353 0.60247 0.36311 0.0
C536 C 0.4561 0.57794 0.34163 0.0
C537 C 0.44374 0.57454 0.30902 0.0
C538 C 0.50013 0.59732 0.44066 0.0
C539 C 0.4749 0.59999 0.46563 0.0
C540 C 0.4904 0.59966 0.40745 0.0
C541 C 0.45506 0.60424 0.3984 0.0
C542 C 0.43025 0.60836 0.42345 0.0
C543 C 0.44014 0.60647 0.45671 0.0
H544 H 0.09857 0.48666 0.7485 0.0
H545 H 0.98328 0.45647 0.75645 0.0
H546 H 0.09741 0.53036 0.7927 0.0
H547 H 0.98218 0.49912 0.80115 0.0
H548 H 0.98415 0.5839 0.87532 0.0
H549 H 0.99102 0.56074 0.82006 0.0
H550 H 0.08796 0.52064 0.85183 0.0
H551 H 0.08163 0.54445 0.90681 0.0
C552 C 0.07289 0.49 0.75917 0.0
C553 C 0.04105 0.46791 0.74943 0.0
C554 C 0.07228 0.51476 0.78463 0.0
C555 C 0.0398 0.51789 0.80065 0.0
C556 C 0.00762 0.4976 0.78918 0.0
C557 C 0.00826 0.47286 0.76383 0.0
C558 C 0.00729 0.57069 0.87037 0.0
C559 C 0.03198 0.56538 0.89563 0.0
C560 C 0.01118 0.55742 0.83872 0.0
C561 C 0.03974 0.53847 0.83171 0.0
C562 C 0.0658 0.53538 0.85634 0.0
C563 C 0.06201 0.54879 0.88797 0.0
H564 H 0.7795 0.93951 0.95942 0.0
H565 H 0.75867 0.03687 0.91167 0.0
H566 H 0.74743 0.95523 0.00849 0.0
H567 H 0.72622 0.05229 0.96002 0.0
H568 H 0.67212 0.07853 0.05095 0.0
H569 H 0.72408 0.06792 0.01829 0.0
H570 H 0.68285 0.95483 0.01561 0.0
H571 H 0.63163 0.96527 0.04844 0.0
C572 C 0.76891 0.9647 0.9598 0.0
C573 C 0.77107 0.98675 0.93166 0.0
C574 C 0.75034 0.9736 0.98774 0.0
C575 C 0.73387 0.00483 0.98806 0.0
C576 C 0.73873 0.02821 0.96083 0.0
C577 C 0.75705 0.01923 0.93296 0.0
C578 C 0.67473 0.0513 0.04415 0.0
C579 C 0.64744 0.02283 0.05183 0.0
C580 C 0.70438 0.04524 0.02529 0.0
C581 C 0.70743 0.01058 0.01398 0.0
C582 C 0.68161 0.98182 0.02404 0.0
C583 C 0.65198 0.98788 0.04266 0.0
H584 H 0.71836 0.09132 0.41799 0.0
H585 H 0.75396 0.18823 0.47286 0.0
H586 H 0.77478 0.06955 0.43131 0.0
H587 H 0.81053 0.16637 0.48627 0.0
H588 H 0.89135 0.09996 0.53156 0.0
H589 H 0.83428 0.12066 0.51872 0.0
H590 H 0.8387 0.08134 0.41904 0.0
H591 H 0.89555 0.06002 0.43199 0.0
C592 C 0.73839 0.1082 0.43261 0.0
C593 C 0.73166 0.14169 0.44416 0.0
C594 C 0.77078 0.09566 0.44028 0.0
C595 C 0.79731 0.11621 0.45979 0.0
C596 C 0.79051 0.14961 0.47154 0.0
C597 C 0.75809 0.16218 0.46384 0.0
C598 C 0.88014 0.09553 0.50692 0.0
C599 C 0.89817 0.07825 0.48283 0.0
C600 C 0.84748 0.10768 0.49949 0.0
C601 C 0.8319 0.10284 0.4678 0.0
C602 C 0.8497 0.0852 0.44381 0.0
C603 C 0.88242 0.07308 0.45121 0.0
H604 H 0.32176 0.68802 0.09008 0.0
H605 H 0.2645 0.64861 0.178 0.0
H606 H 0.26448 0.68547 0.06015 0.0
H607 H 0.20725 0.64566 0.14798 0.0
H608 H 0.10996 0.67587 0.09395 0.0
H609 H 0.16887 0.68788 0.1212 0.0
H610 H 0.21615 0.63605 0.0412 0.0
H611 H 0.15746 0.62409 0.01385 0.0
C612 C 0.29688 0.67891 0.10297 0.0
C613 C 0.29746 0.66842 0.13629 0.0
C614 C 0.2642 0.67734 0.08584 0.0
C615 C 0.2315 0.66561 0.10183 0.0
C616 C 0.23207 0.65529 0.1352 0.0
C617 C 0.26478 0.65653 0.15224 0.0
C618 C 0.13305 0.66771 0.08182 0.0
C619 C 0.129 0.64875 0.05188 0.0
C620 C 0.16667 0.67431 0.09757 0.0
C621 C 0.19689 0.66248 0.08347 0.0
C622 C 0.19331 0.64554 0.05257 0.0
C623 C 0.15966 0.63861 0.03698 0.0
H624 H 0.17932 0.47847 0.57111 0.0
H625 H 0.19564 0.44522 0.67162 0.0
H626 H 0.24248 0.50545 0.56835 0.0
H627 H 0.25871 0.47302 0.66919 0.0
H628 H 0.37598 0.47735 0.6316 0.0
H629 H 0.31168 0.45779 0.63946 0.0
H630 H 0.28777 0.55338 0.59021 0.0
H631 H 0.35188 0.57277 0.58185 0.0
C632 C 0.19631 0.47758 0.5928 0.0
C633 C 0.18267 0.45969 0.62152 0.0
C634 C 0.23239 0.49317 0.59131 0.0
C635 C 0.2556 0.49108 0.61849 0.0
C636 C 0.24154 0.47462 0.64774 0.0
C637 C 0.20536 0.45914 0.64927 0.0
C638 C 0.35704 0.49426 0.62251 0.0
C639 C 0.36911 0.5265 0.60589 0.0
C640 C 0.32022 0.48319 0.62729 0.0
C641 C 0.29471 0.50409 0.61548 0.0
C642 C 0.30679 0.53655 0.5993 0.0
C643 C 0.34356 0.54766 0.59458 0.0
H644 H 0.97395 0.88662 0.89448 0.0
H645 H 0.8621 0.83856 0.898 0.0
H646 H 0.99103 0.83504 0.92438 0.0
H647 H 0.87902 0.78777 0.92847 0.0
H648 H 0.92694 0.68376 0.93874 0.0
H649 H 0.91073 0.7378 0.91393 0.0
H650 H 0.98562 0.80232 0.97899 0.0
H651 H 0.00231 0.74766 0.00404 0.0
C652 C 0.95301 0.86519 0.9018 0.0
C653 C 0.91665 0.86674 0.89374 0.0
C654 C 0.96276 0.83583 0.91922 0.0
C655 C 0.93641 0.8072 0.92869 0.0
C656 C 0.90004 0.80918 0.92125 0.0
C657 C 0.89029 0.83852 0.90405 0.0
C658 C 0.94002 0.70937 0.94797 0.0
C659 C 0.966 0.71124 0.97348 0.0
C660 C 0.93048 0.74044 0.9338 0.0
C661 C 0.9467 0.77442 0.94456 0.0
C662 C 0.97276 0.77651 0.97004 0.0
C663 C 0.98216 0.74522 0.98451 0.0
H664 H 0.41851 0.73561 0.11405 0.0
H665 H 0.41675 0.75118 0.21949 0.0
H666 H 0.45143 0.79572 0.10711 0.0
H667 H 0.45017 0.81185 0.2127 0.0
H668 H 0.45123 0.93037 0.1718 0.0
H669 H 0.43256 0.86788 0.18762 0.0
H670 H 0.50842 0.83492 0.11868 0.0
H671 H 0.52666 0.89698 0.10247 0.0
C672 C 0.426 0.75177 0.13579 0.0
C673 C 0.41516 0.73906 0.16724 0.0
C674 C 0.44497 0.7861 0.13189 0.0
C675 C 0.45328 0.80853 0.15938 0.0
C676 C 0.44388 0.79517 0.1911 0.0
C677 C 0.42512 0.7605 0.19502 0.0
C678 C 0.46427 0.90983 0.16038 0.0
C679 C 0.48989 0.91858 0.13541 0.0
C680 C 0.45378 0.87408 0.16963 0.0
C681 C 0.46881 0.84653 0.15412 0.0
C682 C 0.49598 0.85555 0.13066 0.0
C683 C 0.50636 0.89114 0.12137 0.0
H684 H 0.04267 0.36069 0.56364 0.0
H685 H 0.15379 0.34698 0.58048 0.0
H686 H 0.02989 0.29956 0.54236 0.0
H687 H 0.1411 0.28631 0.55956 0.0
H688 H 0.10983 0.17927 0.5106 0.0
H689 H 0.12251 0.2442 0.51545 0.0
H690 H 0.02621 0.24337 0.57344 0.0
H691 H 0.013 0.1786 0.56801 0.0
C692 C 0.06453 0.34497 0.5619 0.0
C693 C 0.09908 0.35841 0.57403 0.0
C694 C 0.0572 0.30997 0.54998 0.0
C695 C 0.08432 0.28794 0.55001 0.0
C696 C 0.11965 0.30263 0.55909 0.0
C697 C 0.12697 0.33756 0.57096 0.0
C698 C 0.09136 0.19291 0.52445 0.0
C699 C 0.06052 0.17371 0.53916 0.0
C700 C 0.0986 0.23012 0.52708 0.0
C701 C 0.07521 0.2489 0.54454 0.0
C702 C 0.04434 0.22973 0.55917 0.0
C703 C 0.03703 0.19254 0.55648 0.0
H704 H 0.52173 0.24994 0.52326 0.0
H705 H 0.62638 0.3027 0.49296 0.0
H706 H 0.50297 0.30789 0.53407 0.0
H707 H 0.60776 0.3609 0.50403 0.0
H708 H 0.55359 0.4615 0.50476 0.0
H709 H 0.56855 0.40363 0.48799 0.0
H710 H 0.51584 0.35474 0.57476 0.0
H711 H 0.50023 0.41257 0.59129 0.0
C712 C 0.54069 0.27399 0.51872 0.0
C713 C 0.57568 0.27167 0.50751 0.0
C714 C 0.52999 0.30724 0.5251 0.0
C715 C 0.55398 0.33916 0.52044 0.0
C716 C 0.58845 0.33693 0.50773 0.0
C717 C 0.59915 0.30356 0.50128 0.0
C718 C 0.54496 0.43841 0.52024 0.0
C719 C 0.52566 0.44184 0.54947 0.0
C720 C 0.55378 0.40519 0.51066 0.0
C721 C 0.54352 0.37441 0.52998 0.0
C722 C 0.52379 0.37773 0.55899 0.0
C723 C 0.51498 0.41099 0.5686 0.0
loop_
_geom_bond_atom_site_label_1
_geom_bond_atom_site_label_2
_geom_bond_distance
_geom_bond_site_symmetry_2
_ccdc_geom_bond_type
H0 C1 0.949 . S
C1 H0 0.949 . S
C1 C2 1.395 . S
C1 C3 1.391 . S
C2 C1 1.395 . S
C2 C5 1.390 . S
C3 C1 1.391 . S
C3 C7 1.387 . S
C3 C8 1.491 . S
H4 C5 0.950 . S
C5 C2 1.390 . S
C5 H4 0.950 . S
C5 C6 1.378 . S
C6 C5 1.378 . S
C6 C7 1.409 . S
C7 C3 1.387 . S
C7 C6 1.409 . S
C7 H9 0.951 . S
C8 C3 1.491 . S
C8 C10 1.382 . S
C8 C12 1.404 . S
H9 C7 0.951 . S
C10 C8 1.382 . S
C10 C11 1.390 . S
C10 H15 0.949 . S
C11 C10 1.390 . S
C11 C16 1.399 . S
C12 C8 1.404 . S
C12 H13 0.950 . S
C12 C14 1.375 . S
H13 C12 0.950 . S
C14 C12 1.375 . S
C14 C16 1.382 . S
C14 H18 0.950 . S
H15 C10 0.949 . S
C16 C11 1.399 . S
C16 C14 1.382 . S
C16 H17 0.952 . S
H17 C16 0.952 . S
H18 C14 0.950 . S
H19 C20 0.949 . S
C20 H19 0.949 . S
C20 C21 1.395 . S
C20 C22 1.391 . S
C21 C20 1.395 . S
C21 C24 1.390 . S
C22 C20 1.391 . S
C22 C26 1.387 . S
C22 C27 1.491 . S
H23 C24 0.950 . S
C24 C21 1.390 . S
C24 H23 0.950 . S
C24 C25 1.378 . S
C25 C24 1.378 . S
C25 C26 1.409 . S
C26 C22 1.387 . S
C26 C25 1.409 . S
C26 H28 0.951 . S
C27 C22 1.491 . S
C27 C29 1.382 . S
C27 C31 1.404 . S
H28 C26 0.951 . S
C29 C27 1.382 . S
C29 C30 1.390 . S
C29 H34 0.949 . S
C30 C29 1.390 . S
C30 C35 1.399 . S
C31 C27 1.404 . S
C31 H32 0.950 . S
C31 C33 1.375 . S
H32 C31 0.950 . S
C33 C31 1.375 . S
C33 C35 1.382 . S
C33 H37 0.950 . S
H34 C29 0.949 . S
C35 C30 1.399 . S
C35 C33 1.382 . S
C35 H36 0.952 . S
H36 C35 0.952 . S
H37 C33 0.950 . S
H38 C39 0.949 . S
C39 H38 0.949 . S
C39 C40 1.395 . S
C39 C41 1.391 . S
C40 C39 1.395 . S
C40 C43 1.390 . S
C41 C39 1.391 . S
C41 C45 1.387 . S
C41 C46 1.491 . S
H42 C43 0.950 . S
C43 C40 1.390 . S
C43 H42 0.950 . S
C43 C44 1.378 . S
C44 C43 1.378 . S
C44 C45 1.409 . S
C45 C41 1.387 . S
C45 C44 1.409 . S
C45 H47 0.951 . S
C46 C41 1.491 . S
C46 C48 1.382 . S
C46 C50 1.404 . S
H47 C45 0.951 . S
C48 C46 1.382 . S
C48 C49 1.390 . S
C48 H53 0.949 . S
C49 C48 1.390 . S
C49 C54 1.399 . S
C50 C46 1.404 . S
C50 H51 0.950 . S
C50 C52 1.375 . S
H51 C50 0.950 . S
C52 C50 1.375 . S
C52 C54 1.382 . S
C52 H56 0.950 . S
H53 C48 0.949 . S
C54 C49 1.399 . S
C54 C52 1.382 . S
C54 H55 0.952 . S
H55 C54 0.952 . S
H56 C52 0.950 . S
H57 C58 0.949 . S
C58 H57 0.949 . S
C58 C59 1.395 . S
C58 C60 1.391 . S
C59 C58 1.395 . S
C59 C62 1.390 . S
C60 C58 1.391 . S
C60 C64 1.387 . S
C60 C65 1.491 . S
H61 C62 0.950 . S
C62 C59 1.390 . S
C62 H61 0.950 . S
C62 C63 1.378 . S
C63 C62 1.378 . S
C63 C64 1.409 . S
C64 C60 1.387 . S
C64 C63 1.409 . S
C64 H66 0.951 . S
C65 C60 1.491 . S
C65 C67 1.382 . S
C65 C69 1.404 . S
H66 C64 0.951 . S
C67 C65 1.382 . S
C67 C68 1.390 . S
C67 H72 0.949 . S
C68 C67 1.390 . S
C68 C73 1.399 . S
C69 C65 1.404 . S
C69 H70 0.950 . S
C69 C71 1.375 . S
H70 C69 0.950 . S
C71 C69 1.375 . S
C71 C73 1.382 . S
C71 H75 0.950 . S
H72 C67 0.949 . S
C73 C68 1.399 . S
C73 C71 1.382 . S
C73 H74 0.952 . S
H74 C73 0.952 . S
H75 C71 0.950 . S
H76 C77 0.949 . S
C77 H76 0.949 . S
C77 C78 1.395 . S
C77 C79 1.391 . S
C78 C77 1.395 . S
C78 C81 1.390 . S
C79 C77 1.391 . S
C79 C83 1.387 1_565 S
C79 C84 1.491 1_565 S
H80 C81 0.950 . S
C81 C78 1.390 . S
C81 H80 0.950 . S
C81 C82 1.378 . S
C82 C81 1.378 . S
C82 C83 1.409 1_565 S
C83 C79 1.387 1_545 S
C83 C82 1.409 1_545 S
C83 H85 0.951 . S
C84 C79 1.491 1_545 S
C84 C86 1.382 . S
C84 C88 1.404 . S
H85 C83 0.951 . S
C86 C84 1.382 . S
C86 C87 1.390 . S
C86 H91 0.949 . S
C87 C86 1.390 . S
C87 C92 1.399 . S
C88 C84 1.404 . S
C88 H89 0.950 . S
C88 C90 1.375 . S
H89 C88 0.950 . S
C90 C88 1.375 . S
C90 C92 1.382 . S
C90 H94 0.950 . S
H91 C86 0.949 . S
C92 C87 1.399 . S
C92 C90 1.382 . S
C92 H93 0.952 . S
H93 C92 0.952 . S
H94 C90 0.950 . S
H95 C96 0.949 . S
C96 H95 0.949 . S
C96 C97 1.395 . S
C96 C98 1.391 . S
C97 C96 1.395 . S
C97 C100 1.390 . S
C98 C96 1.391 . S
C98 C102 1.387 . S
C98 C103 1.491 . S
H99 C100 0.950 . S
C100 C97 1.390 . S
C100 H99 0.950 . S
C100 C101 1.378 . S
C101 C100 1.378 . S
C101 C102 1.409 . S
C102 C98 1.387 . S
C102 C101 1.409 . S
C102 H104 0.951 . S
C103 C98 1.491 . S
C103 C105 1.382 . S
C103 C107 1.404 . S
H104 C102 0.951 . S
C105 C103 1.382 . S
C105 C106 1.390 . S
C105 H110 0.949 . S
C106 C105 1.390 . S
C106 C111 1.399 . S
C107 C103 1.404 . S
C107 H108 0.950 . S
C107 C109 1.375 . S
H108 C107 0.950 . S
C109 C107 1.375 . S
C109 C111 1.382 . S
C109 H113 0.950 . S
H110 C105 0.949 . S
C111 C106 1.399 . S
C111 C109 1.382 . S
C111 H112 0.952 . S
H112 C111 0.952 . S
H113 C109 0.950 . S
H114 C115 0.949 . S
C115 H114 0.949 . S
C115 C116 1.395 . S
C115 C117 1.391 . S
C116 C115 1.395 . S
C116 C119 1.390 . S
C117 C115 1.391 . S
C117 C121 1.387 . S
C117 C122 1.491 . S
H118 C119 0.950 . S
C119 C116 1.390 . S
C119 H118 0.950 . S
C119 C120 1.378 . S
C120 C119 1.378 . S
C120 C121 1.409 . S
C121 C117 1.387 . S
C121 C120 1.409 . S
C121 H123 0.951 . S
C122 C117 1.491 . S
C122 C124 1.382 . S
C122 C126 1.404 . S
H123 C121 0.951 . S
C124 C122 1.382 . S
C124 C125 1.390 . S
C124 H129 0.949 . S
C125 C124 1.390 . S
C125 C130 1.399 . S
C126 C122 1.404 . S
C126 H127 0.950 . S
C126 C128 1.375 . S
H127 C126 0.950 . S
C128 C126 1.375 . S
C128 C130 1.382 . S
C128 H132 0.950 . S
H129 C124 0.949 . S
C130 C125 1.399 . S
C130 C128 1.382 . S
C130 H131 0.952 . S
H131 C130 0.952 . S
H132 C128 0.950 . S
H133 C134 0.949 . S
C134 H133 0.949 . S
C134 C135 1.395 . S
C134 C136 1.391 . S
C135 C134 1.395 . S
C135 C138 1.390 . S
C136 C134 1.391 . S
C136 C140 1.387 . S
C136 C141 1.491 . S
H137 C138 0.950 . S
C138 C135 1.390 . S
C138 H137 0.950 . S
C138 C139 1.378 . S
C139 C138 1.378 . S
C139 C140 1.409 . S
C140 C136 1.387 . S
C140 C139 1.409 . S
C140 H142 0.951 . S
C141 C136 1.491 . S
C141 C143 1.382 . S
C141 C145 1.404 . S
H142 C140 0.951 . S
C143 C141 1.382 . S
C143 C144 1.390 . S
C143 H148 0.949 . S
C144 C143 1.390 . S
C144 C149 1.399 . S
C145 C141 1.404 . S
C145 H146 0.950 . S
C145 C147 1.375 . S
H146 C145 0.950 . S
C147 C145 1.375 . S
C147 C149 1.382 . S
C147 H151 0.950 . S
H148 C143 0.949 . S
C149 C144 1.399 . S
C149 C147 1.382 . S
C149 H150 0.952 . S
H150 C149 0.952 . S
H151 C147 0.950 . S
O152 Zn153 1.953 . S
O152 C168 1.225 1_655 S
Zn153 O152 1.953 . S
Zn153 O154 1.949 1_655 S
Zn153 O160 1.919 . S
Zn153 O165 1.924 . S
O154 Zn153 1.949 1_455 S
O154 Zn155 1.923 1_455 S
O154 Zn156 1.950 . S
O154 Zn157 1.954 . S
Zn155 O154 1.923 1_655 S
Zn155 O158 1.933 1_545 S
Zn155 O161 1.941 . S
Zn155 O162 1.965 1_655 S
Zn156 O154 1.950 . S
Zn156 O163 1.938 . S
Zn156 O164 1.906 . S
Zn156 O174 1.953 . S
Zn157 O154 1.954 . S
Zn157 O159 1.924 1_445 S
Zn157 O166 1.974 1_545 S
Zn157 O167 1.912 1_455 S
O158 Zn155 1.933 1_565 S
O158 C169 1.226 . S
O159 Zn157 1.924 1_665 S
O159 C169 1.307 . S
O160 Zn153 1.919 . S
O160 C171 1.253 . S
O161 Zn155 1.941 . S
O161 C171 1.283 . S
O162 Zn155 1.965 1_455 S
O162 C170 1.303 . S
O163 Zn156 1.938 . S
O163 C170 1.247 . S
O164 Zn156 1.906 . S
O164 C172 1.304 . S
O165 Zn153 1.924 . S
O165 C173 1.311 . S
O166 Zn157 1.974 1_565 S
O166 C172 1.272 1_565 S
O167 Zn157 1.912 1_655 S
O167 C173 1.231 . S
C168 O152 1.225 1_455 S
C168 O174 1.298 . S
C169 O158 1.226 . S
C169 O159 1.307 . S
C170 O162 1.303 . S
C170 O163 1.247 . S
C171 O160 1.253 . S
C171 O161 1.283 . S
C172 O164 1.304 . S
C172 O166 1.272 1_545 S
C173 O165 1.311 . S
C173 O167 1.231 . S
O174 Zn156 1.953 . S
O174 C168 1.298 . S
O175 Zn176 1.953 . S
O175 C191 1.225 . S
Zn176 O175 1.953 . S
Zn176 O177 1.949 . S
Zn176 O183 1.919 . S
Zn176 O188 1.924 . S
O177 Zn176 1.949 . S
O177 Zn178 1.923 1_545 S
O177 Zn179 1.950 . S
O177 Zn180 1.945 . S
Zn178 O177 1.923 1_565 S
Zn178 O181 1.933 . S
Zn178 O184 1.941 . S
Zn178 O185 1.965 1_565 S
Zn179 O177 1.950 . S
Zn179 O186 1.938 . S
Zn179 O187 1.906 . S
Zn179 O197 1.953 . S
Zn180 O177 1.945 . S
Zn180 O182 1.932 1_545 S
Zn180 O189 1.977 . S
Zn180 O190 1.910 . S
O181 Zn178 1.933 . S
O181 C192 1.226 . S
O182 Zn180 1.932 1_565 S
O182 C192 1.307 . S
O183 Zn176 1.919 . S
O183 C194 1.254 . S
O184 Zn178 1.941 . S
O184 C194 1.285 1_565 S
O185 Zn178 1.965 1_545 S
O185 C193 1.303 . S
O186 Zn179 1.938 . S
O186 C193 1.247 . S
O187 Zn179 1.906 . S
O187 C195 1.304 . S
O188 Zn176 1.924 . S
O188 C196 1.311 . S
O189 Zn180 1.977 . S
O189 C195 1.272 . S
O190 Zn180 1.910 . S
O190 C196 1.231 . S
C191 O175 1.225 . S
C191 O197 1.298 . S
C192 O181 1.226 . S
C192 O182 1.307 . S
C193 O185 1.303 . S
C193 O186 1.247 . S
C194 O183 1.254 . S
C194 O184 1.285 1_545 S
C195 O187 1.304 . S
C195 O189 1.272 . S
C196 O188 1.311 . S
C196 O190 1.231 . S
O197 Zn179 1.953 . S
O197 C191 1.298 . S
O198 Zn199 1.953 . S
O198 C214 1.225 . S
Zn199 O198 1.953 . S
Zn199 O200 1.949 . S
Zn199 O206 1.919 . S
Zn199 O211 1.924 . S
O200 Zn199 1.949 . S
O200 Zn201 1.923 . S
O200 Zn202 1.950 . S
O200 Zn203 1.945 . S
Zn201 O200 1.923 . S
Zn201 O204 1.933 . S
Zn201 O207 1.941 . S
Zn201 O208 1.965 . S
Zn202 O200 1.950 . S
Zn202 O209 1.938 . S
Zn202 O210 1.906 . S
Zn202 O220 1.953 . S
Zn203 O200 1.945 . S
Zn203 O205 1.932 . S
Zn203 O212 1.977 . S
Zn203 O213 1.910 . S
O204 Zn201 1.933 . S
O204 C215 1.226 . S
O205 Zn203 1.932 . S
O205 C215 1.307 . S
O206 Zn199 1.919 . S
O206 C217 1.253 . S
O207 Zn201 1.941 . S
O207 C217 1.283 . S
O208 Zn201 1.965 . S
O208 C216 1.303 . S
O209 Zn202 1.938 . S
O209 C216 1.247 . S
O210 Zn202 1.906 . S
O210 C218 1.304 . S
O211 Zn199 1.924 . S
O211 C219 1.311 . S
O212 Zn203 1.977 . S
O212 C218 1.272 . S
O213 Zn203 1.910 . S
O213 C219 1.231 . S
C214 O198 1.225 . S
C214 O220 1.298 . S
C215 O204 1.226 . S
C215 O205 1.307 . S
C216 O208 1.303 . S
C216 O209 1.247 . S
C217 O206 1.253 . S
C217 O207 1.283 . S
C218 O210 1.304 . S
C218 O212 1.272 . S
C219 O211 1.311 . S
C219 O213 1.231 . S
O220 Zn202 1.953 . S
O220 C214 1.298 . S
O221 Zn222 1.953 . S
O221 C237 1.225 . S
Zn222 O221 1.953 . S
Zn222 O223 1.949 1_655 S
Zn222 O229 1.919 . S
Zn222 O234 1.924 . S
O223 Zn222 1.949 1_455 S
O223 Zn224 1.923 1_454 S
O223 Zn225 1.950 . S
O223 Zn226 1.945 . S
Zn224 O223 1.923 1_656 S
Zn224 O227 1.933 1_655 S
Zn224 O230 1.941 . S
Zn224 O231 1.965 . S
Zn225 O223 1.950 . S
Zn225 O232 1.938 . S
Zn225 O233 1.906 . S
Zn225 O243 1.953 . S
Zn226 O223 1.945 . S
Zn226 O228 1.932 1_554 S
Zn226 O235 1.977 . S
Zn226 O236 1.910 . S
O227 Zn224 1.933 1_455 S
O227 C238 1.226 . S
O228 Zn226 1.932 1_556 S
O228 C238 1.307 . S
O229 Zn222 1.919 . S
O229 C240 1.253 1_554 S
O230 Zn224 1.941 . S
O230 C240 1.283 . S
O231 Zn224 1.965 . S
O231 C239 1.303 1_656 S
O232 Zn225 1.938 . S
O232 C239 1.247 . S
O233 Zn225 1.906 . S
O233 C241 1.304 . S
O234 Zn222 1.924 . S
O234 C242 1.311 1_655 S
O235 Zn226 1.977 . S
O235 C241 1.272 . S
O236 Zn226 1.910 . S
O236 C242 1.231 . S
C237 O221 1.225 . S
C237 O243 1.298 1_655 S
C238 O227 1.226 . S
C238 O228 1.307 . S
C239 O231 1.303 1_454 S
C239 O232 1.247 . S
C240 O229 1.253 1_556 S
C240 O230 1.283 . S
C241 O233 1.304 . S
C241 O235 1.272 . S
C242 O234 1.311 1_455 S
C242 O236 1.231 . S
O243 Zn225 1.953 . S
O243 C237 1.298 1_455 S
H244 C252 0.950 . S
H245 C257 0.950 . S
H246 C254 0.950 . S
H247 C256 0.950 . S
H248 C258 0.950 . S
H249 C260 0.950 . S
H250 C262 0.950 . S
H251 C263 0.950 . S
C252 H244 0.950 . S
C252 C253 1.386 . S
C252 C254 1.391 . S
C253 C252 1.386 . S
C253 C257 1.393 . S
C254 H246 0.950 . S
C254 C252 1.391 . S
C254 C255 1.400 . S
C255 C254 1.400 . S
C255 C256 1.398 . S
C255 C261 1.491 . S
C256 H247 0.950 . S
C256 C255 1.398 . S
C256 C257 1.391 . S
C257 H245 0.950 . S
C257 C253 1.393 . S
C257 C256 1.391 . S
C258 H248 0.950 . S
C258 C259 1.386 . S
C258 C260 1.391 . S
C259 C258 1.386 . S
C259 C263 1.393 . S
C260 H249 0.950 . S
C260 C258 1.391 . S
C260 C261 1.400 . S
C261 C255 1.491 . S
C261 C260 1.400 . S
C261 C262 1.398 . S
C262 H250 0.950 . S
C262 C261 1.398 . S
C262 C263 1.391 . S
C263 H251 0.950 . S
C263 C259 1.393 . S
C263 C262 1.391 . S
H264 C272 0.950 . S
H265 C277 0.950 . S
H266 C274 0.950 . S
H267 C276 0.950 1_545 S
H268 C278 0.950 . S
H269 C280 0.951 1_545 S
H270 C282 0.950 . S
H271 C283 0.950 . S
C272 H264 0.950 . S
C272 C273 1.386 . S
C272 C274 1.391 . S
C273 C272 1.386 . S
C273 C277 1.393 . S
C274 H266 0.950 . S
C274 C272 1.391 . S
C274 C275 1.400 . S
C275 C274 1.400 . S
C275 C276 1.398 . S
C275 C281 1.491 . S
C276 H267 0.950 1_565 S
C276 C275 1.398 . S
C276 C277 1.391 . S
C277 H265 0.950 . S
C277 C273 1.393 . S
C277 C276 1.391 . S
C278 H268 0.950 . S
C278 C279 1.386 1_545 S
C278 C280 1.392 1_545 S
C279 C278 1.386 1_565 S
C279 C283 1.393 . S
C280 H269 0.951 1_565 S
C280 C278 1.392 1_565 S
C280 C281 1.399 . S
C281 C275 1.491 . S
C281 C280 1.399 . S
C281 C282 1.398 . S
C282 H270 0.950 . S
C282 C281 1.398 . S
C282 C283 1.391 . S
C283 H271 0.950 . S
C283 C279 1.393 . S
C283 C282 1.391 . S
H284 C292 0.950 . S
H285 C297 0.950 . S
H286 C294 0.950 . S
H287 C296 0.950 . S
H288 C298 0.950 . S
H289 C300 0.950 . S
H290 C302 0.950 . S
H291 C303 0.950 . S
C292 H284 0.950 . S
C292 C293 1.386 . S
C292 C294 1.391 . S
C293 C292 1.386 . S
C293 C297 1.393 . S
C294 H286 0.950 . S
C294 C292 1.391 . S
C294 C295 1.400 . S
C295 C294 1.400 . S
C295 C296 1.398 . S
C295 C301 1.491 . S
C296 H287 0.950 . S
C296 C295 1.398 . S
C296 C297 1.391 . S
C297 H285 0.950 . S
C297 C293 1.393 . S
C297 C296 1.391 . S
C298 H288 0.950 . S
C298 C299 1.386 . S
C298 C300 1.391 . S
C299 C298 1.386 . S
C299 C303 1.393 . S
C300 H289 0.950 . S
C300 C298 1.391 . S
C300 C301 1.400 . S
C301 C295 1.491 . S
C301 C300 1.400 . S
C301 C302 1.398 . S
C302 H290 0.950 . S
C302 C301 1.398 . S
C302 C303 1.391 . S
C303 H291 0.950 . S
C303 C299 1.393 . S
C303 C302 1.391 . S
H304 C312 0.950 . S
H305 C317 0.950 . S
H306 C314 0.950 . S
H307 C316 0.950 . S
H308 C318 0.950 . S
H309 C320 0.950 . S
H310 C322 0.950 1_455 S
H311 C323 0.950 1_455 S
C312 H304 0.950 . S
C312 C313 1.386 . S
C312 C314 1.391 . S
C313 C312 1.386 . S
C313 C317 1.393 . S
C314 H306 0.950 . S
C314 C312 1.391 . S
C314 C315 1.400 . S
C315 C314 1.400 . S
C315 C316 1.398 . S
C315 C321 1.491 . S
C316 H307 0.950 . S
C316 C315 1.398 . S
C316 C317 1.391 . S
C317 H305 0.950 . S
C317 C313 1.393 . S
C317 C316 1.391 . S
C318 H308 0.950 . S
C318 C319 1.386 . S
C318 C320 1.391 . S
C319 C318 1.386 . S
C319 C323 1.393 . S
C320 H309 0.950 . S
C320 C318 1.391 . S
C320 C321 1.400 . S
C321 C315 1.491 . S
C321 C320 1.400 . S
C321 C322 1.398 . S
C322 H310 0.950 1_655 S
C322 C321 1.398 . S
C322 C323 1.391 . S
C323 H311 0.950 1_655 S
C323 C319 1.393 . S
C323 C322 1.391 . S
H324 C332 0.950 . S
H325 C337 0.950 . S
H326 C334 0.950 . S
H327 C336 0.950 . S
H328 C338 0.950 . S
H329 C340 0.950 . S
H330 C342 0.950 . S
H331 C343 0.950 . S
C332 H324 0.950 . S
C332 C333 1.386 . S
C332 C334 1.391 . S
C333 C332 1.386 . S
C333 C337 1.393 . S
C334 H326 0.950 . S
C334 C332 1.391 . S
C334 C335 1.400 . S
C335 C334 1.400 . S
C335 C336 1.398 . S
C335 C341 1.491 . S
C336 H327 0.950 . S
C336 C335 1.398 . S
C336 C337 1.391 . S
C337 H325 0.950 . S
C337 C333 1.393 . S
C337 C336 1.391 . S
C338 H328 0.950 . S
C338 C339 1.386 . S
C338 C340 1.391 . S
C339 C338 1.386 . S
C339 C343 1.393 . S
C340 H329 0.950 . S
C340 C338 1.391 . S
C340 C341 1.400 . S
C341 C335 1.491 . S
C341 C340 1.400 . S
C341 C342 1.398 . S
C342 H330 0.950 . S
C342 C341 1.398 . S
C342 C343 1.391 . S
C343 H331 0.950 . S
C343 C339 1.393 . S
C343 C342 1.391 . S
H344 C352 0.950 . S
H345 C357 0.950 . S
H346 C354 0.950 . S
H347 C356 0.950 . S
H348 C358 0.950 . S
H349 C360 0.950 . S
H350 C362 0.950 . S
H351 C363 0.950 . S
C352 H344 0.950 . S
C352 C353 1.386 . S
C352 C354 1.391 . S
C353 C352 1.386 . S
C353 C357 1.393 . S
C354 H346 0.950 . S
C354 C352 1.391 . S
C354 C355 1.400 . S
C355 C354 1.400 . S
C355 C356 1.398 . S
C355 C361 1.491 . S
C356 H347 0.950 . S
C356 C355 1.398 . S
C356 C357 1.391 . S
C357 H345 0.950 . S
C357 C353 1.393 . S
C357 C356 1.391 . S
C358 H348 0.950 . S
C358 C359 1.385 1_545 S
C358 C360 1.391 . S
C359 C358 1.385 1_565 S
C359 C363 1.395 . S
C360 H349 0.950 . S
C360 C358 1.391 . S
C360 C361 1.400 1_545 S
C361 C355 1.491 . S
C361 C360 1.400 1_565 S
C361 C362 1.398 . S
C362 H350 0.950 . S
C362 C361 1.398 . S
C362 C363 1.391 . S
C363 H351 0.950 . S
C363 C359 1.395 . S
C363 C362 1.391 . S
H364 C372 0.950 . S
H365 C377 0.950 . S
H366 C374 0.929 1_554 S
H367 C376 0.950 . S
H368 C378 0.950 . S
H369 C380 0.950 . S
H370 C382 0.950 1_554 S
H371 C383 0.950 1_554 S
C372 H364 0.950 . S
C372 C373 1.386 . S
C372 C374 1.391 . S
C373 C372 1.386 . S
C373 C377 1.393 . S
C374 H366 0.929 1_556 S
C374 C372 1.391 . S
C374 C375 1.400 . S
C375 C374 1.400 . S
C375 C376 1.398 . S
C375 C381 1.491 . S
C376 H367 0.950 . S
C376 C375 1.398 . S
C376 C377 1.391 . S
C377 H365 0.950 . S
C377 C373 1.393 . S
C377 C376 1.391 . S
C378 H368 0.950 . S
C378 C379 1.386 . S
C378 C380 1.391 . S
C379 C378 1.386 . S
C379 C383 1.393 . S
C380 H369 0.950 . S
C380 C378 1.391 . S
C380 C381 1.400 . S
C381 C375 1.491 . S
C381 C380 1.400 . S
C381 C382 1.398 . S
C382 H370 0.950 1_556 S
C382 C381 1.398 . S
C382 C383 1.391 . S
C383 H371 0.950 1_556 S
C383 C379 1.393 . S
C383 C382 1.391 . S
H384 C392 0.950 . S
H385 C397 0.950 . S
H386 C394 0.950 . S
H387 C396 0.950 . S
H388 C398 0.950 . S
H389 C400 0.950 . S
H390 C402 0.950 . S
H391 C403 0.950 . S
C392 H384 0.950 . S
C392 C393 1.386 . S
C392 C394 1.391 . S
C393 C392 1.386 . S
C393 C397 1.393 . S
C394 H386 0.950 . S
C394 C392 1.391 . S
C394 C395 1.400 . S
C395 C394 1.400 . S
C395 C396 1.398 . S
C395 C401 1.491 . S
C396 H387 0.950 . S
C396 C395 1.398 . S
C396 C397 1.391 . S
C397 H385 0.950 . S
C397 C393 1.393 . S
C397 C396 1.391 . S
C398 H388 0.950 . S
C398 C399 1.386 . S
C398 C400 1.391 . S
C399 C398 1.386 . S
C399 C403 1.393 . S
C400 H389 0.950 . S
C400 C398 1.391 . S
C400 C401 1.400 . S
C401 C395 1.491 . S
C401 C400 1.400 . S
C401 C402 1.398 . S
C402 H390 0.950 . S
C402 C401 1.398 . S
C402 C403 1.391 . S
C403 H391 0.950 . S
C403 C399 1.393 . S
C403 C402 1.391 . S
H404 C412 0.950 . S
H405 C417 0.950 . S
H406 C414 0.950 . S
H407 C416 0.950 . S
H408 C418 0.950 . S
H409 C420 0.950 . S
H410 C422 0.950 . S
H411 C423 0.950 1_655 S
C412 H404 0.950 . S
C412 C413 1.386 . S
C412 C414 1.391 . S
C413 C412 1.386 . S
C413 C417 1.393 . S
C414 H406 0.950 . S
C414 C412 1.391 . S
C414 C415 1.400 . S
C415 C414 1.400 . S
C415 C416 1.398 . S
C415 C421 1.491 . S
C416 H407 0.950 . S
C416 C415 1.398 . S
C416 C417 1.391 . S
C417 H405 0.950 . S
C417 C413 1.393 . S
C417 C416 1.391 . S
C418 H408 0.950 . S
C418 C419 1.386 . S
C418 C420 1.391 . S
C419 C418 1.386 . S
C419 C423 1.393 . S
C420 H409 0.950 . S
C420 C418 1.391 . S
C420 C421 1.400 . S
C421 C415 1.491 . S
C421 C420 1.400 . S
C421 C422 1.398 . S
C422 H410 0.950 . S
C422 C421 1.398 . S
C422 C423 1.391 . S
C423 H411 0.950 1_455 S
C423 C419 1.393 . S
C423 C422 1.391 . S
H424 C432 0.950 . S
H425 C437 0.950 . S
H426 C434 0.950 . S
H427 C436 0.950 . S
H428 C438 0.950 1_556 S
H429 C440 0.953 1_556 S
H430 C442 0.950 . S
H431 C443 0.950 . S
C432 H424 0.950 . S
C432 C433 1.386 1_554 S
C432 C434 1.391 . S
C433 C432 1.386 1_556 S
C433 C437 1.393 . S
C434 H426 0.950 . S
C434 C432 1.391 . S
C434 C435 1.400 . S
C435 C434 1.400 . S
C435 C436 1.398 1_554 S
C435 C441 1.491 . S
C436 H427 0.950 . S
C436 C435 1.398 1_556 S
C436 C437 1.391 . S
C437 H425 0.950 . S
C437 C433 1.393 . S
C437 C436 1.391 . S
C438 H428 0.950 1_554 S
C438 C439 1.386 . S
C438 C440 1.390 . S
C439 C438 1.386 . S
C439 C443 1.393 . S
C440 H429 0.953 1_554 S
C440 C438 1.390 . S
C440 C441 1.399 . S
C441 C435 1.491 . S
C441 C440 1.399 . S
C441 C442 1.398 . S
C442 H430 0.950 . S
C442 C441 1.398 . S
C442 C443 1.391 . S
C443 H431 0.950 . S
C443 C439 1.393 . S
C443 C442 1.391 . S
H444 C452 0.950 . S
H445 C457 0.950 . S
H446 C454 0.950 . S
H447 C456 0.950 . S
H448 C458 0.950 . S
H449 C460 0.950 . S
H450 C462 0.950 . S
H451 C463 0.950 1_455 S
C452 H444 0.950 . S
C452 C453 1.386 . S
C452 C454 1.391 . S
C453 C452 1.386 . S
C453 C457 1.393 . S
C454 H446 0.950 . S
C454 C452 1.391 . S
C454 C455 1.400 . S
C455 C454 1.400 . S
C455 C456 1.398 . S
C455 C461 1.491 . S
C456 H447 0.950 . S
C456 C455 1.398 . S
C456 C457 1.391 . S
C457 H445 0.950 . S
C457 C453 1.393 . S
C457 C456 1.391 . S
C458 H448 0.950 . S
C458 C459 1.386 . S
C458 C460 1.391 . S
C459 C458 1.386 . S
C459 C463 1.393 . S
C460 H449 0.950 . S
C460 C458 1.391 . S
C460 C461 1.400 . S
C461 C455 1.491 . S
C461 C460 1.400 . S
C461 C462 1.398 . S
C462 H450 0.950 . S
C462 C461 1.398 . S
C462 C463 1.391 . S
C463 H451 0.950 1_655 S
C463 C459 1.393 . S
C463 C462 1.391 . S
H464 C472 0.950 . S
H465 C477 0.950 . S
H466 C474 0.950 . S
H467 C476 0.950 . S
H468 C478 0.950 . S
H469 C480 0.950 . S
H470 C482 0.950 . S
H471 C483 0.950 . S
C472 H464 0.950 . S
C472 C473 1.386 . S
C472 C474 1.391 . S
C473 C472 1.386 . S
C473 C477 1.393 . S
C474 H466 0.950 . S
C474 C472 1.391 . S
C474 C475 1.400 . S
C475 C474 1.400 . S
C475 C476 1.398 . S
C475 C481 1.491 . S
C476 H467 0.950 . S
C476 C475 1.398 . S
C476 C477 1.391 . S
C477 H465 0.950 . S
C477 C473 1.393 . S
C477 C476 1.391 . S
C478 H468 0.950 . S
C478 C479 1.386 . S
C478 C480 1.391 . S
C479 C478 1.386 . S
C479 C483 1.393 . S
C480 H469 0.950 . S
C480 C478 1.391 . S
C480 C481 1.400 . S
C481 C475 1.491 . S
C481 C480 1.400 . S
C481 C482 1.398 . S
C482 H470 0.950 . S
C482 C481 1.398 . S
C482 C483 1.391 . S
C483 H471 0.950 . S
C483 C479 1.393 . S
C483 C482 1.391 . S
H484 C492 0.950 . S
H485 C497 0.950 . S
H486 C494 0.950 . S
H487 C496 0.950 . S
H488 C498 0.939 1_455 S
H489 C500 0.950 . S
H490 C502 0.950 . S
H491 C503 0.950 . S
C492 H484 0.950 . S
C492 C493 1.386 1_565 S
C492 C494 1.391 . S
C493 C492 1.386 1_545 S
C493 C497 1.393 . S
C494 H486 0.950 . S
C494 C492 1.391 . S
C494 C495 1.400 1_565 S
C495 C494 1.400 1_545 S
C495 C496 1.398 . S
C495 C501 1.491 . S
C496 H487 0.950 . S
C496 C495 1.398 . S
C496 C497 1.391 . S
C497 H485 0.950 . S
C497 C493 1.393 . S
C497 C496 1.391 . S
C498 H488 0.939 1_655 S
C498 C499 1.386 . S
C498 C500 1.391 . S
C499 C498 1.386 . S
C499 C503 1.393 1_545 S
C500 H489 0.950 . S
C500 C498 1.391 . S
C500 C501 1.400 . S
C501 C495 1.491 . S
C501 C500 1.400 . S
C501 C502 1.398 1_545 S
C502 H490 0.950 . S
C502 C501 1.398 1_565 S
C502 C503 1.391 . S
C503 H491 0.950 . S
C503 C499 1.393 1_565 S
C503 C502 1.391 . S
H504 C512 0.950 . S
H505 C517 0.950 . S
H506 C514 0.950 . S
H507 C516 0.950 . S
H508 C518 0.950 . S
H509 C520 0.950 . S
H510 C522 0.950 . S
H511 C523 0.950 . S
C512 H504 0.950 . S
C512 C513 1.386 . S
C512 C514 1.391 . S
C513 C512 1.386 . S
C513 C517 1.393 . S
C514 H506 0.950 . S
C514 C512 1.391 . S
C514 C515 1.400 . S
C515 C514 1.400 . S
C515 C516 1.398 . S
C515 C521 1.491 . S
C516 H507 0.950 . S
C516 C515 1.398 . S
C516 C517 1.391 . S
C517 H505 0.950 . S
C517 C513 1.393 . S
C517 C516 1.391 . S
C518 H508 0.950 . S
C518 C519 1.386 . S
C518 C520 1.391 . S
C519 C518 1.386 . S
C519 C523 1.393 . S
C520 H509 0.950 . S
C520 C518 1.391 . S
C520 C521 1.400 . S
C521 C515 1.491 . S
C521 C520 1.400 . S
C521 C522 1.398 . S
C522 H510 0.950 . S
C522 C521 1.398 . S
C522 C523 1.391 . S
C523 H511 0.950 . S
C523 C519 1.393 . S
C523 C522 1.391 . S
H524 C532 0.950 . S
H525 C537 0.950 . S
H526 C534 0.950 . S
H527 C536 0.950 . S
H528 C538 0.950 . S
H529 C540 0.950 . S
H530 C542 0.950 . S
H531 C543 0.950 . S
C532 H524 0.950 . S
C532 C533 1.386 . S
C532 C534 1.391 . S
C533 C532 1.386 . S
C533 C537 1.393 . S
C534 H526 0.950 . S
C534 C532 1.391 . S
C534 C535 1.400 . S
C535 C534 1.400 . S
C535 C536 1.398 . S
C535 C541 1.491 . S
C536 H527 0.950 . S
C536 C535 1.398 . S
C536 C537 1.391 . S
C537 H525 0.950 . S
C537 C533 1.393 . S
C537 C536 1.391 . S
C538 H528 0.950 . S
C538 C539 1.386 . S
C538 C540 1.391 . S
C539 C538 1.386 . S
C539 C543 1.393 . S
C540 H529 0.950 . S
C540 C538 1.391 . S
C540 C541 1.400 . S
C541 C535 1.491 . S
C541 C540 1.400 . S
C541 C542 1.398 . S
C542 H530 0.950 . S
C542 C541 1.398 . S
C542 C543 1.391 . S
C543 H531 0.950 . S
C543 C539 1.393 . S
C543 C542 1.391 . S
H544 C552 0.950 . S
H545 C557 0.950 . S
H546 C554 0.950 . S
H547 C556 0.950 . S
H548 C558 0.925 1_655 S
H549 C560 0.950 . S
H550 C562 0.950 . S
H551 C563 0.950 . S
C552 H544 0.950 . S
C552 C553 1.386 . S
C552 C554 1.391 . S
C553 C552 1.386 . S
C553 C557 1.393 . S
C554 H546 0.950 . S
C554 C552 1.391 . S
C554 C555 1.400 . S
C555 C554 1.400 . S
C555 C556 1.398 . S
C555 C561 1.491 . S
C556 H547 0.950 . S
C556 C555 1.398 . S
C556 C557 1.391 . S
C557 H545 0.950 . S
C557 C553 1.393 . S
C557 C556 1.391 . S
C558 H548 0.925 1_455 S
C558 C559 1.386 . S
C558 C560 1.391 . S
C559 C558 1.386 . S
C559 C563 1.393 . S
C560 H549 0.950 . S
C560 C558 1.391 . S
C560 C561 1.400 . S
C561 C555 1.491 . S
C561 C560 1.400 . S
C561 C562 1.398 . S
C562 H550 0.950 . S
C562 C561 1.398 . S
C562 C563 1.391 . S
C563 H551 0.950 . S
C563 C559 1.393 . S
C563 C562 1.391 . S
H564 C572 0.950 . S
H565 C577 0.950 . S
H566 C574 0.950 . S
H567 C576 0.950 . S
H568 C578 0.950 . S
H569 C580 0.950 . S
H570 C582 0.950 1_556 S
H571 C583 0.950 1_556 S
C572 H564 0.950 . S
C572 C573 1.376 1_556 S
C572 C574 1.391 . S
C573 C572 1.376 1_554 S
C573 C577 1.407 . S
C574 H566 0.950 . S
C574 C572 1.391 . S
C574 C575 1.400 1_556 S
C575 C574 1.400 1_554 S
C575 C576 1.398 . S
C575 C581 1.491 . S
C576 H567 0.950 . S
C576 C575 1.398 . S
C576 C577 1.391 . S
C577 H565 0.950 . S
C577 C573 1.407 . S
C577 C576 1.391 . S
C578 H568 0.950 . S
C578 C579 1.386 . S
C578 C580 1.391 . S
C579 C578 1.386 . S
C579 C583 1.393 . S
C580 H569 0.950 . S
C580 C578 1.391 . S
C580 C581 1.400 . S
C581 C575 1.491 . S
C581 C580 1.400 . S
C581 C582 1.398 . S
C582 H570 0.950 1_554 S
C582 C581 1.398 . S
C582 C583 1.391 . S
C583 H571 0.950 1_554 S
C583 C579 1.393 . S
C583 C582 1.391 . S
H584 C592 0.950 . S
H585 C597 0.950 . S
H586 C594 0.950 . S
H587 C596 0.950 . S
H588 C598 0.950 . S
H589 C600 0.950 . S
H590 C602 0.950 . S
H591 C603 0.950 . S
C592 H584 0.950 . S
C592 C593 1.386 . S
C592 C594 1.391 . S
C593 C592 1.386 . S
C593 C597 1.393 . S
C594 H586 0.950 . S
C594 C592 1.391 . S
C594 C595 1.400 . S
C595 C594 1.400 . S
C595 C596 1.398 . S
C595 C601 1.491 . S
C596 H587 0.950 . S
C596 C595 1.398 . S
C596 C597 1.391 . S
C597 H585 0.950 . S
C597 C593 1.393 . S
C597 C596 1.391 . S
C598 H588 0.950 . S
C598 C599 1.386 . S
C598 C600 1.391 . S
C599 C598 1.386 . S
C599 C603 1.393 . S
C600 H589 0.950 . S
C600 C598 1.391 . S
C600 C601 1.400 . S
C601 C595 1.491 . S
C601 C600 1.400 . S
C601 C602 1.398 . S
C602 H590 0.950 . S
C602 C601 1.398 . S
C602 C603 1.391 . S
C603 H591 0.950 . S
C603 C599 1.393 . S
C603 C602 1.391 . S
H604 C612 0.950 . S
H605 C617 0.950 . S
H606 C614 0.950 . S
H607 C616 0.950 . S
H608 C618 0.950 . S
H609 C620 0.950 . S
H610 C622 0.950 . S
H611 C623 0.950 . S
C612 H604 0.950 . S
C612 C613 1.386 . S
C612 C614 1.391 . S
C613 C612 1.386 . S
C613 C617 1.393 . S
C614 H606 0.950 . S
C614 C612 1.391 . S
C614 C615 1.400 . S
C615 C614 1.400 . S
C615 C616 1.398 . S
C615 C621 1.491 . S
C616 H607 0.950 . S
C616 C615 1.398 . S
C616 C617 1.391 . S
C617 H605 0.950 . S
C617 C613 1.393 . S
C617 C616 1.391 . S
C618 H608 0.950 . S
C618 C619 1.386 . S
C618 C620 1.391 . S
C619 C618 1.386 . S
C619 C623 1.393 . S
C620 H609 0.950 . S
C620 C618 1.391 . S
C620 C621 1.400 . S
C621 C615 1.491 . S
C621 C620 1.400 . S
C621 C622 1.398 . S
C622 H610 0.950 . S
C622 C621 1.398 . S
C622 C623 1.391 . S
C623 H611 0.950 . S
C623 C619 1.393 . S
C623 C622 1.391 . S
H624 C632 0.950 . S
H625 C637 0.950 . S
H626 C634 0.950 . S
H627 C636 0.950 . S
H628 C638 0.950 . S
H629 C640 0.950 . S
H630 C642 0.950 . S
H631 C643 0.950 . S
C632 H624 0.950 . S
C632 C633 1.386 . S
C632 C634 1.391 . S
C633 C632 1.386 . S
C633 C637 1.393 . S
C634 H626 0.950 . S
C634 C632 1.391 . S
C634 C635 1.400 . S
C635 C634 1.400 . S
C635 C636 1.398 . S
C635 C641 1.491 . S
C636 H627 0.950 . S
C636 C635 1.398 . S
C636 C637 1.391 . S
C637 H625 0.950 . S
C637 C633 1.393 . S
C637 C636 1.391 . S
C638 H628 0.950 . S
C638 C639 1.386 . S
C638 C640 1.391 . S
C639 C638 1.386 . S
C639 C643 1.393 . S
C640 H629 0.950 . S
C640 C638 1.391 . S
C640 C641 1.400 . S
C641 C635 1.491 . S
C641 C640 1.400 . S
C641 C642 1.398 . S
C642 H630 0.950 . S
C642 C641 1.398 . S
C642 C643 1.391 . S
C643 H631 0.950 . S
C643 C639 1.393 . S
C643 C642 1.391 . S
H644 C652 0.950 1_455 S
H645 C657 0.950 . S
H646 C654 0.950 1_455 S
H647 C656 0.950 . S
H648 C658 0.950 1_554 S
H649 C660 0.950 . S
H650 C662 0.950 . S
H651 C663 0.950 . S
C652 H644 0.950 1_655 S
C652 C653 1.386 . S
C652 C654 1.391 . S
C653 C652 1.386 . S
C653 C657 1.393 . S
C654 H646 0.950 1_655 S
C654 C652 1.391 . S
C654 C655 1.400 . S
C655 C654 1.400 . S
C655 C656 1.398 . S
C655 C661 1.491 . S
C656 H647 0.950 . S
C656 C655 1.398 . S
C656 C657 1.391 . S
C657 H645 0.950 . S
C657 C653 1.393 . S
C657 C656 1.391 . S
C658 H648 0.950 1_556 S
C658 C659 1.386 . S
C658 C660 1.391 . S
C659 C658 1.386 . S
C659 C663 1.393 1_655 S
C660 H649 0.950 . S
C660 C658 1.391 . S
C660 C661 1.400 . S
C661 C655 1.491 . S
C661 C660 1.400 . S
C661 C662 1.398 1_655 S
C662 H650 0.950 . S
C662 C661 1.398 1_455 S
C662 C663 1.391 . S
C663 H651 0.950 . S
C663 C659 1.393 1_455 S
C663 C662 1.391 . S
H664 C672 0.950 . S
H665 C677 0.950 . S
H666 C674 0.950 . S
H667 C676 0.950 . S
H668 C678 0.950 . S
H669 C680 0.950 . S
H670 C682 0.950 . S
H671 C683 0.950 . S
C672 H664 0.950 . S
C672 C673 1.386 . S
C672 C674 1.391 . S
C673 C672 1.386 . S
C673 C677 1.393 . S
C674 H666 0.950 . S
C674 C672 1.391 . S
C674 C675 1.400 . S
C675 C674 1.400 . S
C675 C676 1.398 . S
C675 C681 1.491 . S
C676 H667 0.950 . S
C676 C675 1.398 . S
C676 C677 1.391 . S
C677 H665 0.950 . S
C677 C673 1.393 . S
C677 C676 1.391 . S
C678 H668 0.950 . S
C678 C679 1.386 . S
C678 C680 1.391 . S
C679 C678 1.386 . S
C679 C683 1.393 . S
C680 H669 0.950 . S
C680 C678 1.391 . S
C680 C681 1.400 . S
C681 C675 1.491 . S
C681 C680 1.400 . S
C681 C682 1.398 . S
C682 H670 0.950 . S
C682 C681 1.398 . S
C682 C683 1.391 . S
C683 H671 0.950 . S
C683 C679 1.393 . S
C683 C682 1.391 . S
H684 C692 0.950 . S
H685 C697 0.950 . S
H686 C694 0.950 . S
H687 C696 0.950 . S
H688 C698 0.950 . S
H689 C700 0.950 . S
H690 C702 0.950 . S
H691 C703 0.950 1_655 S
C692 H684 0.950 . S
C692 C693 1.386 . S
C692 C694 1.391 . S
C693 C692 1.386 . S
C693 C697 1.393 . S
C694 H686 0.950 . S
C694 C692 1.391 . S
C694 C695 1.400 . S
C695 C694 1.400 . S
C695 C696 1.398 . S
C695 C701 1.491 . S
C696 H687 0.950 . S
C696 C695 1.398 . S
C696 C697 1.391 . S
C697 H685 0.950 . S
C697 C693 1.393 . S
C697 C696 1.391 . S
C698 H688 0.950 . S
C698 C699 1.386 . S
C698 C700 1.391 . S
C699 C698 1.386 . S
C699 C703 1.393 . S
C700 H689 0.950 . S
C700 C698 1.391 . S
C700 C701 1.400 . S
C701 C695 1.491 . S
C701 C700 1.400 . S
C701 C702 1.398 . S
C702 H690 0.950 . S
C702 C701 1.398 . S
C702 C703 1.391 . S
C703 H691 0.950 1_455 S
C703 C699 1.393 . S
C703 C702 1.391 . S
H704 C712 0.950 . S
H705 C717 0.950 . S
H706 C714 0.950 . S
H707 C716 0.950 . S
H708 C718 0.950 . S
H709 C720 0.950 . S
H710 C722 0.950 . S
H711 C723 0.950 . S
C712 H704 0.950 . S
C712 C713 1.386 . S
C712 C714 1.391 . S
C713 C712 1.386 . S
C713 C717 1.393 . S
C714 H706 0.950 . S
C714 C712 1.391 . S
C714 C715 1.400 . S
C715 C714 1.400 . S
C715 C716 1.398 . S
C715 C721 1.491 . S
C716 H707 0.950 . S
C716 C715 1.398 . S
C716 C717 1.391 . S
C717 H705 0.950 . S
C717 C713 1.393 . S
C717 C716 1.391 . S
C718 H708 0.950 . S
C718 C719 1.386 . S
C718 C720 1.391 . S
C719 C718 1.386 . S
C719 C723 1.393 . S
C720 H709 0.950 . S
C720 C718 1.391 . S
C720 C721 1.400 . S
C721 C715 1.491 . S
C721 C720 1.400 . S
C721 C722 1.398 . S
C722 H710 0.950 . S
C722 C721 1.398 . S
C722 C723 1.391 . S
C723 H711 0.950 . S
C723 C719 1.393 . S
C723 C722 1.391 . S
C253 C6 1.861 . S
C259 C170 1.824 . S
C273 C21 2.168 . S
C279 C194 2.106 1_566 S
C299 C214 0.847 . S
C293 C49 0.838 . S
C313 C68 1.122 . S
C319 C237 1.273 . S
C339 C196 2.368 . S
C333 C2 2.382 . S
C359 C172 1.383 1_565 S
C353 C30 1.262 . S
C379 C240 1.429 . S
C373 C40 1.483 . S
C399 C217 1.334 . S
C393 C63 1.357 . S
C413 C11 1.307 . S
C419 C242 1.458 . S
C439 C191 1.777 . S
C433 C44 1.767 . S
C453 C59 1.248 . S
C459 C169 1.268 . S
C473 C25 1.711 . S
C479 C219 1.676 . S
C499 C173 2.100 . S
C493 C82 2.068 1_545 S
C513 C101 1.844 . S
C519 C195 1.864 . S
C533 C125 1.495 . S
C539 C215 1.564 . S
C553 C144 1.154 . S
C559 C238 1.286 . S
C573 C87 1.174 1_554 S
C579 C193 1.353 . S
C599 C171 2.167 . S
C593 C97 2.164 . S
C619 C241 1.315 . S
C613 C120 1.370 . S
C639 C218 1.337 . S
C633 C135 1.318 . S
C653 C78 2.145 . S
C659 C239 2.128 1_656 S
C679 C192 1.173 . S
C673 C116 1.152 . S
C699 C168 1.693 . S
C693 C139 1.666 . S
C713 C106 1.685 . S
C719 C216 1.739 . S
