# Generated by pormake.
# Topology zzz, (3,6)-cn, num edge types: 1
# Building blocks:
#     Node 0, Type 0, BuildingBlock: BETDAH_clean_linker_0, # of connection points: 3
#     Node 1, Type 0, BuildingBlock: BETDAH_clean_linker_0, # of connection points: 3
#     Node 2, Type 0, BuildingBlock: BETDAH_clean_linker_0, # of connection points: 3
#     Node 3, Type 0, BuildingBlock: BETDAH_clean_linker_0, # of connection points: 3
#     Node 4, Type 0, BuildingBlock: BETDAH_clean_linker_0, # of connection points: 3
#     Node 5, Type 0, BuildingBlock: BETDAH_clean_linker_0, # of connection points: 3
#     Node 6, Type 0, BuildingBlock: BETDAH_clean_linker_0, # of connection points: 3
#     Node 7, Type 0, BuildingBlock: BETDAH_clean_linker_0, # of connection points: 3
#     Node 8, Type 1, BuildingBlock: BETDAH_clean_sbu_0, # of connection points: 6
#     Node 9, Type 1, BuildingBlock: BETDAH_clean_sbu_0, # of connection points: 6
#     Node 10, Type 1, BuildingBlock: BETDAH_clean_sbu_0, # of connection points: 6
#     Node 11, Type 1, BuildingBlock: BETDAH_clean_sbu_0, # of connection points: 6
#     Edge 12, Type (0, 1), BuildingBlock: MIFKUJ_clean_linker_0, # of connection points: 2
#     Edge 13, Type (0, 1), BuildingBlock: MIFKUJ_clean_linker_0, # of connection points: 2
#     Edge 14, Type (0, 1), BuildingBlock: MIFKUJ_clean_linker_0, # of connection points: 2
#     Edge 15, Type (0, 1), BuildingBlock: MIFKUJ_clean_linker_0, # of connection points: 2
#     Edge 16, Type (0, 1), BuildingBlock: MIFKUJ_clean_linker_0, # of connection points: 2
#     Edge 17, Type (0, 1), BuildingBlock: MIFKUJ_clean_linker_0, # of connection points: 2
#     Edge 18, Type (0, 1), BuildingBlock: MIFKUJ_clean_linker_0, # of connection points: 2
#     Edge 19, Type (0, 1), BuildingBlock: MIFKUJ_clean_linker_0, # of connection points: 2
#     Edge 20, Type (0, 1), BuildingBlock: MIFKUJ_clean_linker_0, # of connection points: 2
#     Edge 21, Type (0, 1), BuildingBlock: MIFKUJ_clean_linker_0, # of connection points: 2
#     Edge 22, Type (0, 1), BuildingBlock: MIFKUJ_clean_linker_0, # of connection points: 2
#     Edge 23, Type (0, 1), BuildingBlock: MIFKUJ_clean_linker_0, # of connection points: 2
#     Edge 24, Type (0, 1), BuildingBlock: MIFKUJ_clean_linker_0, # of connection points: 2
#     Edge 25, Type (0, 1), BuildingBlock: MIFKUJ_clean_linker_0, # of connection points: 2
#     Edge 26, Type (0, 1), BuildingBlock: MIFKUJ_clean_linker_0, # of connection points: 2
#     Edge 27, Type (0, 1), BuildingBlock: MIFKUJ_clean_linker_0, # of connection points: 2
#     Edge 28, Type (0, 1), BuildingBlock: MIFKUJ_clean_linker_0, # of connection points: 2
#     Edge 29, Type (0, 1), BuildingBlock: MIFKUJ_clean_linker_0, # of connection points: 2
#     Edge 30, Type (0, 1), BuildingBlock: MIFKUJ_clean_linker_0, # of connection points: 2
#     Edge 31, Type (0, 1), BuildingBlock: MIFKUJ_clean_linker_0, # of connection points: 2
#     Edge 32, Type (0, 1), BuildingBlock: MIFKUJ_clean_linker_0, # of connection points: 2
#     Edge 33, Type (0, 1), BuildingBlock: MIFKUJ_clean_linker_0, # of connection points: 2
#     Edge 34, Type (0, 1), BuildingBlock: MIFKUJ_clean_linker_0, # of connection points: 2
#     Edge 35, Type (0, 1), BuildingBlock: MIFKUJ_clean_linker_0, # of connection points: 2
# Relax obj value: 0.228
# Max RMSD: 0.176
# Mean RMSD: 0.162
data_MOF--net-zzz--node1-BETDAH_clean_sbu_0--node2-BETDAH_clean_linker_0--edge1-MIFKUJ_clean_linker_0
_symmetry_space_group_name_H-M    P1
_symmetry_Int_Tables_number       1
_symmetry_cell_setting            triclinic
loop_
_symmetry_equiv_pos_as_xyz
'x, y, z'
_cell_length_a     68.462811
_cell_length_b     68.527953
_cell_length_c     17.111735
_cell_angle_alpha  90.025419
_cell_angle_beta   89.806958
_cell_angle_gamma 89.867444
loop_
_atom_site_label
_atom_site_type_symbol
_atom_site_fract_x
_atom_site_fract_y
_atom_site_fract_z
_atom_type_partial_charge
H0 H 0.79618 0.53185 0.23637 0.0
H1 H 0.73585 0.52433 0.17889 0.0
H2 H 0.75823 0.50189 0.39673 0.0
C3 C 0.78178 0.52667 0.2524 0.0
C4 C 0.77941 0.51644 0.32278 0.0
C5 C 0.76628 0.52934 0.19991 0.0
C6 C 0.7477 0.52243 0.21988 0.0
C7 C 0.74458 0.51281 0.29161 0.0
C8 C 0.76051 0.50986 0.34281 0.0
N9 N 0.7258 0.50538 0.3123 0.0
C10 C 0.70939 0.5064 0.26399 0.0
H11 H 0.99045 0.79043 0.25804 0.0
H12 H 0.99799 0.72991 0.20391 0.0
H13 H 1.0086 0.75074 0.43845 0.0
C14 C 0.99351 0.7757 0.27767 0.0
C15 C 0.99901 0.7726 0.3555 0.0
C16 C 0.99308 0.76042 0.22323 0.0
C17 C 0.99816 0.74155 0.24672 0.0
C18 C 1.00362 0.73782 0.3246 0.0
C19 C 1.00422 0.75348 0.37869 0.0
N20 N 1.00874 0.71859 0.34932 0.0
C21 C 1.00882 0.70233 0.29981 0.0
H22 H 0.73282 0.01231 0.30385 0.0
H23 H 0.79202 1.0028 0.23058 0.0
H24 H 0.7774 1.00381 0.47679 0.0
C25 C 0.74809 0.01019 0.31879 0.0
C26 C 0.75335 1.00857 0.39727 0.0
C27 C 0.76194 1.00801 0.25906 0.0
C28 C 0.78153 1.00464 0.27754 0.0
C29 C 0.7874 1.00351 0.35629 0.0
C30 C 0.77312 1.00514 0.41614 0.0
N31 N 0.80738 1.0005 0.37658 0.0
C32 C 0.82274 0.99992 0.32245 0.0
H33 H 0.50251 0.73001 0.28564 0.0
H34 H 0.5074 0.78865 0.20131 0.0
H35 H 0.52197 0.77521 0.44122 0.0
C36 C 0.50609 0.74519 0.29651 0.0
C37 C 0.51229 0.75086 0.37085 0.0
C38 C 0.50446 0.75873 0.23576 0.0
C39 C 0.50885 0.77838 0.24893 0.0
C40 C 0.51526 0.78455 0.3231 0.0
C41 C 0.51709 0.77062 0.38395 0.0
N42 N 0.51989 0.80452 0.33808 0.0
C43 C 0.51866 0.81958 0.28295 0.0
H44 H 0.2266 0.52934 0.1412 0.0
H45 H 0.28669 0.52315 0.20615 0.0
H46 H 0.26513 0.49461 0.99866 0.0
C47 C 0.24105 0.52357 0.1288 0.0
C48 C 0.24374 0.51135 0.06386 0.0
C49 C 0.25638 0.52784 0.18019 0.0
C50 C 0.27498 0.52007 0.16561 0.0
C51 C 0.27835 0.50833 0.0992 0.0
C52 C 0.26266 0.50408 0.04845 0.0
N53 N 0.29714 0.50023 0.08313 0.0
C54 C 0.31342 0.50247 0.13133 0.0
H55 H 0.99791 0.22949 0.1358 0.0
H56 H 0.00925 0.2894 0.18968 0.0
H57 H 0.02013 0.2675 0.9566 0.0
C58 C 1.00216 0.24395 0.11638 0.0
C59 C 1.00855 0.24654 0.03928 0.0
C60 C 1.00253 0.2593 0.17048 0.0
C61 C 1.00884 0.27776 0.14693 0.0
C62 C 0.01489 0.28102 0.06932 0.0
C63 C 0.01507 0.26521 0.01593 0.0
N64 N 0.0211 0.2999 0.04447 0.0
C65 C 0.02058 0.31642 0.0926 0.0
H66 H 0.29662 0.98765 0.10221 0.0
H67 H 0.2389 0.99747 0.19327 0.0
H68 H 0.25635 0.02337 0.97405 0.0
C69 C 0.28206 0.99368 0.0955 0.0
C70 C 0.27811 1.00531 0.03016 0.0
C71 C 0.26808 0.99086 0.15471 0.0
C72 C 0.24961 0.99958 0.14745 0.0
C73 C 0.24514 0.0112 0.08198 0.0
C74 C 0.25959 0.01421 0.02395 0.0
N75 N 0.22647 0.02023 0.0735 0.0
C76 C 0.21101 0.01852 0.12681 0.0
H77 H 0.53196 0.29338 0.10911 0.0
H78 H 0.52148 0.23421 0.17743 0.0
H79 H 0.49233 0.25829 0.97495 0.0
C80 C 0.52486 0.2795 0.09804 0.0
C81 C 0.5117 0.27795 0.0361 0.0
C82 C 0.52842 0.26382 0.14842 0.0
C83 C 0.51893 0.24604 0.13676 0.0
C84 C 0.50606 0.24376 0.07317 0.0
C85 C 0.50258 0.25979 0.02263 0.0
N86 N 0.4961 0.22578 0.06018 0.0
C87 C 0.49731 0.20961 0.10984 0.0
Ho88 Ho 0.02438 1.00277 0.78502 0.0
Ho89 Ho 1.00374 0.01308 0.63829 0.0
C90 C 0.01033 0.96821 0.6637 0.0
C91 C 0.03247 0.98431 0.91086 0.0
C92 C 0.02664 0.96395 0.92563 0.0
C93 C 1.00726 0.95813 0.91117 0.0
C94 C 1.00257 0.93844 0.90458 0.0
C95 C 0.01709 0.92412 0.91268 0.0
C96 C 0.03623 0.92986 0.9315 0.0
C97 C 0.04097 0.94963 0.93782 0.0
C98 C 0.04866 0.0129 0.66734 0.0
C99 C 0.01744 0.04779 0.75972 0.0
C100 C 0.99365 0.03051 0.51159 0.0
C101 C 0.99381 0.05164 0.49418 0.0
C102 C 0.01141 0.06113 0.47549 0.0
C103 C 0.01226 0.08145 0.47308 0.0
C104 C 0.99554 0.09269 0.48895 0.0
C105 C 0.97773 0.08322 0.50365 0.0
C106 C 0.97686 0.06289 0.50591 0.0
C107 C 0.97977 1.00298 0.75773 0.0
O108 O 0.01493 0.9733 0.73601 0.0
O109 O 1.00697 0.98147 0.60955 0.0
O110 O 0.04521 0.98648 0.85439 0.0
O111 O 0.01821 0.99702 0.90691 0.0
O112 O 0.05152 0.01741 0.74023 0.0
O113 O 0.0335 1.00249 0.66112 0.0
O114 O 0.01252 0.04272 0.68761 0.0
O115 O 0.02134 0.03448 0.81329 0.0
O116 O 0.98105 0.02493 0.5646 0.0
O117 O 0.01074 0.02222 0.52066 0.0
O118 O 0.97676 0.99822 0.68534 0.0
O119 O 0.99483 0.01349 0.76205 0.0
H120 H 0.99588 0.96877 0.90004 0.0
H121 H 0.98775 0.93449 0.8894 0.0
H122 H 0.04764 0.91908 0.93963 0.0
H123 H 0.05601 0.95375 0.94808 0.0
H124 H 0.02473 0.05293 0.4655 0.0
H125 H 0.02609 0.08838 0.45981 0.0
H126 H 0.96461 0.09153 0.51626 0.0
H127 H 0.96307 0.05601 0.5202 0.0
Ho128 Ho 0.5169 0.02402 0.76792 0.0
Ho129 Ho 0.50892 1.00419 0.60421 0.0
C130 C 0.55368 0.01158 0.65219 0.0
C131 C 0.52884 0.033 0.90596 0.0
C132 C 0.54737 0.02958 0.94753 0.0
C133 C 0.55051 0.01215 0.98905 0.0
C134 C 0.56908 1.00755 0.01709 0.0
C135 C 0.58476 0.02035 0.00442 0.0
C136 C 0.58124 0.03839 0.96795 0.0
C137 C 0.56271 0.04301 0.94031 0.0
C138 C 0.50652 0.04809 0.64986 0.0
C139 C 0.47287 0.01274 0.72605 0.0
C140 C 0.49575 0.99982 0.4654 0.0
C141 C 0.4764 0.9921 0.44346 0.0
C142 C 0.46193 1.00521 0.41827 0.0
C143 C 0.44229 0.99989 0.42032 0.0
C144 C 0.43684 0.98121 0.44572 0.0
C145 C 0.45132 0.96745 0.4636 0.0
C146 C 0.47099 0.97288 0.46304 0.0
C147 C 0.51107 0.97662 0.71966 0.0
O148 O 0.54758 0.01729 0.72268 0.0
O149 O 0.54157 1.00678 0.59496 0.0
O150 O 0.52962 0.04503 0.84653 0.0
O151 O 0.51833 0.0175 0.89113 0.0
O152 O 0.50119 0.05052 0.72216 0.0
O153 O 0.51768 0.03342 0.64469 0.0
O154 O 0.47853 0.01025 0.65245 0.0
O155 O 0.48541 0.01599 0.7832 0.0
O156 O 0.50818 0.98749 0.49668 0.0
O157 O 0.49501 0.01651 0.50283 0.0
O158 O 0.50766 0.97265 0.64682 0.0
O159 O 0.5129 0.99483 0.72439 0.0
H160 H 0.53885 1.00166 0.99693 0.0
H161 H 0.57131 0.99369 0.04616 0.0
H162 H 0.59303 0.04851 0.95641 0.0
H163 H 0.5607 0.0567 0.90967 0.0
H164 H 0.46568 0.02007 0.40273 0.0
H165 H 0.43129 0.01061 0.40504 0.0
H166 H 0.44735 0.95292 0.48275 0.0
H167 H 0.48175 0.9624 0.48284 0.0
Ho168 Ho 0.50234 0.51959 0.77102 0.0
Ho169 Ho 0.52149 0.50867 0.60727 0.0
C170 C 0.51514 0.55436 0.65505 0.0
C171 C 0.4917 0.52794 0.9108 0.0
C172 C 0.48226 0.54603 0.93754 0.0
C173 C 0.49046 0.55641 0.99982 0.0
C174 C 0.48588 0.5761 0.01058 0.0
C175 C 0.47302 0.58562 0.95916 0.0
C176 C 0.46343 0.57474 0.9015 0.0
C177 C 0.46807 0.5551 0.89055 0.0
C178 C 0.47839 0.51977 0.64552 0.0
C179 C 0.51212 0.47383 0.72998 0.0
C180 C 0.52609 0.49745 0.46471 0.0
C181 C 0.52887 0.47781 0.43166 0.0
C182 C 0.51596 0.46258 0.45048 0.0
C183 C 0.52041 0.44342 0.42938 0.0
C184 C 0.53793 0.43914 0.39006 0.0
C185 C 0.55049 0.45441 0.36877 0.0
C186 C 0.54593 0.47363 0.38903 0.0
C187 C 0.54936 0.51266 0.72047 0.0
O188 O 0.51207 0.54912 0.72874 0.0
O189 O 0.51713 0.54138 0.5977 0.0
O190 O 0.48133 0.51667 0.86493 0.0
O191 O 0.50963 0.53044 0.88554 0.0
O192 O 0.47684 0.53175 0.7038 0.0
O193 O 0.49195 0.50771 0.6588 0.0
O194 O 0.51688 0.47852 0.65703 0.0
O195 O 0.50737 0.48711 0.78352 0.0
O196 O 0.54047 0.5036 0.5082 0.0
O197 O 0.50895 0.50135 0.4952 0.0
O198 O 0.55317 0.5083 0.64828 0.0
O199 O 0.53119 0.51481 0.72545 0.0
H200 H 0.50152 0.54974 0.0363 0.0
H201 H 0.49322 0.58415 0.05634 0.0
H202 H 0.45351 0.58173 0.86098 0.0
H203 H 0.46162 0.5475 0.84155 0.0
H204 H 0.50281 0.4653 0.48418 0.0
H205 H 0.51058 0.43184 0.44689 0.0
H206 H 0.564 0.45142 0.33777 0.0
H207 H 0.55612 0.48514 0.37429 0.0
Ho208 Ho 1.00517 0.49951 0.76953 0.0
Ho209 Ho 0.01855 0.51842 0.6252 0.0
C210 C 0.97216 0.51358 0.6541 0.0
C211 C 0.99322 0.49076 0.90737 0.0
C212 C 0.97325 0.49465 0.93694 0.0
C213 C 0.96688 0.51399 0.94797 0.0
C214 C 0.947 0.51842 0.94925 0.0
C215 C 0.93304 0.50356 0.94099 0.0
C216 C 0.93941 0.48404 0.93859 0.0
C217 C 0.95933 0.47962 0.93666 0.0
C218 C 1.00674 0.4751 0.64481 0.0
C219 C 0.05187 0.50262 0.73765 0.0
C220 C 0.03101 0.53123 0.49336 0.0
C221 C 0.05172 0.53562 0.47577 0.0
C222 C 0.06584 0.52071 0.48005 0.0
C223 C 0.08561 0.52525 0.48499 0.0
C224 C 0.0918 0.54477 0.48562 0.0
C225 C 0.07789 0.55965 0.4753 0.0
C226 C 0.05799 0.55511 0.47051 0.0
C227 C 0.01739 0.54223 0.75201 0.0
O228 O 0.97647 0.51138 0.72858 0.0
O229 O 0.98621 0.51438 0.60081 0.0
O230 O 0.99428 0.47792 0.85095 0.0
O231 O 1.00401 0.50612 0.89319 0.0
O232 O 0.9932 0.47478 0.69773 0.0
O233 O 0.01934 0.48779 0.66221 0.0
O234 O 0.04765 0.50728 0.6649 0.0
O235 O 0.03789 0.50032 0.79051 0.0
O236 O 0.02292 0.54261 0.54561 0.0
O237 O 0.0267 0.51284 0.50486 0.0
O238 O 0.03151 0.54171 0.70173 0.0
O239 O 1.0044 0.53014 0.73255 0.0
H240 H 0.97718 0.52594 0.94967 0.0
H241 H 0.94266 0.53361 0.95153 0.0
H242 H 0.929 0.4722 0.93477 0.0
H243 H 0.9638 0.46456 0.92904 0.0
H244 H 0.06163 0.50552 0.48417 0.0
H245 H 0.09606 0.51343 0.49058 0.0
H246 H 0.08227 0.57483 0.47495 0.0
H247 H 0.04744 0.56689 0.46756 0.0
H248 H 0.17649 0.03683 0.10697 0.0
H249 H 0.14793 0.03602 0.19409 0.0
H250 H 0.17901 0.99777 0.35089 0.0
H251 H 0.20747 0.99842 0.26304 0.0
H252 H 0.14189 0.98572 0.3346 0.0
H253 H 0.17357 0.04699 0.38956 0.0
H254 H 0.18749 0.07914 0.35687 0.0
H255 H 0.13194 0.09801 0.26862 0.0
H256 H 0.11774 0.06587 0.29987 0.0
H257 H 0.08346 0.03188 0.67833 0.0
H258 H 0.10996 0.03302 0.58223 0.0
H259 H 0.07512 0.99956 0.42116 0.0
H260 H 0.04862 0.99814 0.518 0.0
H261 H 0.11393 0.04735 0.43886 0.0
H262 H 0.10507 0.97016 0.31396 0.0
H263 H 0.09151 0.93828 0.35343 0.0
H264 H 0.10347 0.95135 0.59399 0.0
H265 H 0.11724 0.98321 0.55586 0.0
C266 C 0.17716 0.02825 0.16006 0.0
C267 C 0.19414 0.01775 0.17861 0.0
C268 C 0.16086 0.02783 0.20997 0.0
C269 C 0.16128 0.01699 0.2798 0.0
C270 C 0.17825 1.00624 0.29755 0.0
C271 C 0.19455 1.00667 0.24752 0.0
C272 C 0.1442 0.01707 0.33474 0.0
C273 C 0.13578 0.99922 0.35712 0.0
C274 C 0.13615 0.03462 0.36492 0.0
C275 C 0.14465 0.05397 0.34636 0.0
C276 C 0.16436 0.05795 0.36266 0.0
C277 C 0.1723 0.07618 0.34448 0.0
C278 C 0.16062 0.09059 0.31051 0.0
C279 C 0.14097 0.08683 0.29483 0.0
C280 C 0.13297 0.06861 0.31282 0.0
C281 C 0.08139 0.02483 0.6223 0.0
C282 C 0.06399 0.01478 0.60607 0.0
C283 C 0.09656 0.02555 0.5672 0.0
C284 C 0.09475 0.01617 0.49454 0.0
C285 C 0.07708 1.00665 0.47716 0.0
C286 C 0.06188 1.00592 0.53242 0.0
C287 C 0.11157 0.01603 0.43838 0.0
C288 C 0.11995 0.03386 0.41581 0.0
C289 C 0.11969 0.99847 0.40864 0.0
C290 C 0.11202 0.97911 0.43205 0.0
C291 C 0.1049 0.96617 0.37521 0.0
C292 C 0.09715 0.94813 0.39736 0.0
C293 C 0.09658 0.94282 0.47618 0.0
C294 C 0.10386 0.9555 0.53298 0.0
C295 C 0.11162 0.97356 0.51115 0.0
H296 H 0.09053 0.92887 0.49321 0.0
H297 H 0.16679 0.10469 0.29648 0.0
H298 H 0.48093 0.20635 0.25296 0.0
H299 H 0.48196 0.17796 0.34035 0.0
H300 H 0.51658 0.14659 0.17037 0.0
H301 H 0.51522 0.17498 0.08248 0.0
H302 H 0.48945 0.12288 0.23245 0.0
H303 H 0.53739 0.16676 0.33417 0.0
H304 H 0.54991 0.1982 0.3828 0.0
H305 H 0.50848 0.19693 0.57168 0.0
H306 H 0.49551 0.16561 0.52348 0.0
H307 H 0.52199 0.04873 0.50137 0.0
H308 H 0.51982 0.0752 0.40507 0.0
H309 H 0.48386 0.10841 0.56445 0.0
H310 H 0.48599 0.08207 0.66048 0.0
H311 H 0.51254 0.13067 0.50512 0.0
H312 H 0.46457 0.08667 0.40283 0.0
H313 H 0.45228 0.05513 0.3544 0.0
H314 H 0.49415 0.0563 0.16709 0.0
H315 H 0.50689 0.08774 0.2151 0.0
C316 C 0.48874 0.19337 0.2345 0.0
C317 C 0.49808 0.1928 0.16148 0.0
C318 C 0.48939 0.17716 0.28446 0.0
C319 C 0.49956 0.1601 0.26264 0.0
C320 C 0.50866 0.15951 0.18881 0.0
C321 C 0.50797 0.17574 0.13878 0.0
C322 C 0.50087 0.14307 0.31725 0.0
C323 C 0.49476 0.12455 0.29173 0.0
C324 C 0.50748 0.14517 0.39523 0.0
C325 C 0.51536 0.16392 0.42478 0.0
C326 C 0.53086 0.17325 0.38577 0.0
C327 C 0.53805 0.19104 0.41329 0.0
C328 C 0.52996 0.19958 0.48018 0.0
C329 C 0.51471 0.19031 0.51982 0.0
C330 C 0.50744 0.17253 0.49246 0.0
C331 C 0.51343 0.06158 0.5154 0.0
C332 C 0.50414 0.06328 0.58855 0.0
C333 C 0.51218 0.07672 0.46028 0.0
C334 C 0.50162 0.09387 0.47718 0.0
C335 C 0.49215 0.09541 0.5499 0.0
C336 C 0.49332 0.08029 0.60472 0.0
C337 C 0.50094 0.11052 0.42067 0.0
C338 C 0.50724 0.12898 0.44582 0.0
C339 C 0.49455 0.10832 0.34244 0.0
C340 C 0.48683 0.08947 0.31308 0.0
C341 C 0.47127 0.08013 0.35169 0.0
C342 C 0.4642 0.06228 0.32425 0.0
C343 C 0.47247 0.05368 0.25787 0.0
C344 C 0.48778 0.06296 0.21861 0.0
C345 C 0.49492 0.08081 0.24587 0.0
H346 H 0.46698 0.03985 0.23676 0.0
H347 H 0.53555 0.21336 0.50138 0.0
H348 H 0.34102 0.47496 0.15459 0.0
H349 H 0.37045 0.47768 0.23548 0.0
H350 H 0.35404 0.53649 0.29824 0.0
H351 H 0.32473 0.53379 0.21623 0.0
H352 H 0.39233 0.53462 0.26597 0.0
H353 H 0.34781 0.49804 0.42564 0.0
H354 H 0.32513 0.47125 0.457 0.0
H355 H 0.37105 0.4294 0.42066 0.0
H356 H 0.39396 0.45594 0.38802 0.0
H357 H 0.45122 0.54679 0.6047 0.0
H358 H 0.42498 0.54364 0.50894 0.0
H359 H 0.4455 0.48596 0.44925 0.0
H360 H 0.47183 0.48905 0.5457 0.0
H361 H 0.4063 0.48645 0.47487 0.0
H362 H 0.4514 0.52359 0.3229 0.0
H363 H 0.47385 0.55058 0.29164 0.0
H364 H 0.42679 0.59173 0.31439 0.0
H365 H 0.40409 0.56501 0.34706 0.0
C366 C 0.34375 0.48843 0.18586 0.0
C367 C 0.33068 0.50415 0.17978 0.0
C368 C 0.36051 0.48997 0.23226 0.0
C369 C 0.36444 0.50723 0.2739 0.0
C370 C 0.35139 0.52303 0.26688 0.0
C371 C 0.33462 0.52147 0.22036 0.0
C372 C 0.3821 0.5088 0.32472 0.0
C373 C 0.39525 0.52422 0.31229 0.0
C374 C 0.38628 0.49496 0.38394 0.0
C375 C 0.37254 0.47897 0.40355 0.0
C376 C 0.35303 0.48312 0.4237 0.0
C377 C 0.34014 0.46798 0.44182 0.0
C378 C 0.34663 0.44863 0.4406 0.0
C379 C 0.36604 0.44439 0.42144 0.0
C380 C 0.37898 0.45948 0.40318 0.0
C381 C 0.45028 0.53351 0.57054 0.0
C382 C 0.46364 0.5182 0.58251 0.0
C383 C 0.4353 0.53176 0.51552 0.0
C384 C 0.43328 0.51462 0.47121 0.0
C385 C 0.44677 0.49935 0.48246 0.0
C386 C 0.46188 0.50117 0.53725 0.0
C387 C 0.41648 0.51235 0.41646 0.0
C388 C 0.40346 0.4968 0.42827 0.0
C389 C 0.4124 0.52613 0.3569 0.0
C390 C 0.42607 0.54228 0.33822 0.0
C391 C 0.44587 0.53841 0.32207 0.0
C392 C 0.45863 0.55366 0.30393 0.0
C393 C 0.45176 0.57286 0.30123 0.0
C394 C 0.4321 0.57685 0.31663 0.0
C395 C 0.41927 0.56165 0.33492 0.0
H396 H 0.46166 0.58465 0.28703 0.0
H397 H 0.33662 0.43693 0.45467 0.0
H398 H 0.99168 0.32547 0.1941 0.0
H399 H 0.99006 0.35371 0.28228 0.0
H400 H 0.04577 0.37359 0.19502 0.0
H401 H 0.04745 0.34512 0.10758 0.0
H402 H 0.04457 0.3771 0.34988 0.0
H403 H 1.00242 0.39572 0.14061 0.0
H404 H 0.97525 0.39245 0.04731 0.0
H405 H 0.93433 0.38941 0.2376 0.0
H406 H 0.96128 0.39239 0.33212 0.0
H407 H 0.03672 0.47021 0.539 0.0
H408 H 0.03988 0.44467 0.43888 0.0
H409 H 0.98438 0.42073 0.51014 0.0
H410 H 0.98104 0.44632 0.60875 0.0
H411 H 0.9867 0.42075 0.35661 0.0
H412 H 0.02913 0.40018 0.56556 0.0
H413 H 0.05625 0.40391 0.65884 0.0
H414 H 0.09662 0.41104 0.46843 0.0
H415 H 0.06967 0.40759 0.374 0.0
C416 C 1.00352 0.33594 0.19379 0.0
C417 C 0.01964 0.33327 0.14408 0.0
C418 C 1.00257 0.35212 0.24389 0.0
C419 C 0.01767 0.36603 0.24487 0.0
C420 C 0.03391 0.36316 0.19544 0.0
C421 C 0.03485 0.34695 0.14534 0.0
C422 C 0.01662 0.38337 0.29811 0.0
C423 C 0.03204 0.38681 0.35039 0.0
C424 C 1.00015 0.39596 0.30016 0.0
C425 C 0.98391 0.39408 0.24347 0.0
C426 C 0.98765 0.39418 0.16259 0.0
C427 C 0.97228 0.39241 0.10948 0.0
C428 C 0.95308 0.39067 0.13651 0.0
C429 C 0.94921 0.39073 0.21674 0.0
C430 C 0.96453 0.39247 0.27011 0.0
C431 C 0.02519 0.45952 0.53301 0.0
C432 C 1.0087 0.46019 0.58217 0.0
C433 C 0.02704 0.44485 0.47601 0.0
C434 C 0.0125 0.4305 0.46737 0.0
C435 C 0.99584 0.43152 0.51545 0.0
C436 C 0.99399 0.44614 0.57214 0.0
C437 C 0.01451 0.41431 0.40906 0.0
C438 C 0.99928 0.41109 0.35578 0.0
C439 C 0.03113 0.40194 0.40612 0.0
C440 C 0.04736 0.40384 0.46277 0.0
C441 C 0.04377 0.40268 0.54361 0.0
C442 C 0.05911 0.40472 0.59668 0.0
C443 C 0.07814 0.40777 0.56959 0.0
C444 C 0.08187 0.40871 0.48934 0.0
C445 C 0.06657 0.4067 0.43602 0.0
H446 H 0.08999 0.40936 0.61078 0.0
H447 H 0.94121 0.38932 0.09529 0.0
H448 H 0.85866 0.01509 0.3449 0.0
H449 H 0.88639 0.01457 0.25346 0.0
H450 H 0.85133 0.98342 0.08573 0.0
H451 H 0.82368 0.98374 0.17795 0.0
H452 H 0.8878 0.96809 0.09294 0.0
H453 H 0.86053 0.03286 0.06758 0.0
H454 H 0.84933 0.06492 0.11591 0.0
H455 H 0.90665 0.07673 0.20513 0.0
H456 H 0.91813 0.04463 0.15818 0.0
H457 H 0.9448 0.98402 0.75114 0.0
H458 H 0.91934 0.98251 0.85162 0.0
H459 H 0.95564 0.01589 0.00774 0.0
H460 H 0.98104 0.01772 0.90654 0.0
H461 H 0.91959 0.02979 0.01098 0.0
H462 H 0.94772 0.96664 0.0367 0.0
H463 H 0.9601 0.93468 0.9924 0.0
H464 H 0.90305 0.91965 0.90843 0.0
H465 H 0.89034 0.95162 0.95172 0.0
C466 C 0.85694 1.00815 0.28843 0.0
C467 C 0.8391 0.99954 0.26805 0.0
C468 C 0.87275 1.0079 0.23607 0.0
C469 C 0.87098 0.99915 0.16198 0.0
C470 C 0.85313 0.99028 0.14229 0.0
C471 C 0.83732 0.99053 0.19477 0.0
C472 C 0.88762 0.99938 0.10495 0.0
C473 C 0.89457 0.98161 0.0743 0.0
C474 C 0.897 0.01693 0.08221 0.0
C475 C 0.89013 0.03627 0.11003 0.0
C476 C 0.87071 0.04224 0.09798 0.0
C477 C 0.86432 0.06043 0.12505 0.0
C478 C 0.87726 0.07283 0.16374 0.0
C479 C 0.89664 0.0671 0.17524 0.0
C480 C 0.90309 0.04892 0.14836 0.0
C481 C 0.94742 0.99092 0.80708 0.0
C482 C 0.96494 1.00099 0.82084 0.0
C483 C 0.93286 0.98998 0.86476 0.0
C484 C 0.93553 0.99895 0.93792 0.0
C485 C 0.95315 0.00885 0.95197 0.0
C486 C 0.96772 0.00982 0.89418 0.0
C487 C 0.91968 0.99852 0.99844 0.0
C488 C 0.91287 0.01625 0.02974 0.0
C489 C 0.91061 0.98093 0.02242 0.0
C490 C 0.91811 0.96161 0.99686 0.0
C491 C 0.93784 0.95657 0.00832 0.0
C492 C 0.94491 0.93845 0.98344 0.0
C493 C 0.93239 0.92517 0.94731 0.0
C494 C 0.91274 0.92997 0.93633 0.0
C495 C 0.90558 0.94807 0.96118 0.0
H496 H 0.93791 0.91115 0.92802 0.0
H497 H 0.87228 0.0869 0.18467 0.0
H498 H 0.50456 0.81997 0.1347 0.0
H499 H 0.50372 0.84774 0.04432 0.0
H500 H 0.5303 0.88421 0.2197 0.0
H501 H 0.53093 0.85639 0.31042 0.0
H502 H 0.50171 0.90395 0.14671 0.0
H503 H 0.55707 0.86623 0.06523 0.0
H504 H 0.57477 0.83653 0.02435 0.0
H505 H 0.53754 0.83118 0.82408 0.0
H506 H 0.51944 0.86071 0.86434 0.0
H507 H 0.52439 0.98072 0.87129 0.0
H508 H 0.52621 0.95533 0.97259 0.0
H509 H 0.50164 0.91368 0.81156 0.0
H510 H 0.50004 0.93883 0.71098 0.0
H511 H 0.53114 0.89762 0.8827 0.0
H512 H 0.47517 0.93505 0.96644 0.0
H513 H 0.45765 0.96484 0.00752 0.0
H514 H 0.49611 0.97095 0.20369 0.0
H515 H 0.51409 0.94137 0.16296 0.0
C516 C 0.51023 0.83391 0.15384 0.0
C517 C 0.51792 0.83605 0.22923 0.0
C518 C 0.5098 0.8498 0.10209 0.0
C519 C 0.51717 0.86814 0.12451 0.0
C520 C 0.52455 0.87029 0.20067 0.0
C521 C 0.52497 0.85438 0.25239 0.0
C522 C 0.5174 0.88492 0.06825 0.0
C523 C 0.50838 0.90264 0.08937 0.0
C524 C 0.52587 0.88329 0.99283 0.0
C525 C 0.53679 0.86559 0.9682 0.0
C526 C 0.55257 0.85864 0.01277 0.0
C527 C 0.56269 0.84185 0.98967 0.0
C528 C 0.55725 0.83195 0.92177 0.0
C529 C 0.54172 0.83885 0.87671 0.0
C530 C 0.53154 0.85563 0.8996 0.0
C531 C 0.51915 0.96623 0.85811 0.0
C532 C 0.51188 0.96187 0.78338 0.0
C533 C 0.52021 0.95166 0.91599 0.0
C534 C 0.5139 0.93248 0.90035 0.0
C535 C 0.50666 0.92825 0.82553 0.0
C536 C 0.50569 0.94271 0.76795 0.0
C537 C 0.5151 0.91657 0.96039 0.0
C538 C 0.52448 0.89899 0.94008 0.0
C539 C 0.50697 0.91838 0.03642 0.0
C540 C 0.49612 0.93612 0.06113 0.0
C541 C 0.48 0.94284 0.01796 0.0
C542 C 0.46997 0.95967 0.04123 0.0
C543 C 0.4758 0.96981 0.10804 0.0
C544 C 0.49164 0.9631 0.15184 0.0
C545 C 0.50176 0.94631 0.12869 0.0
H546 H 0.46801 0.98283 0.126 0.0
H547 H 0.5651 0.81895 0.90398 0.0
H548 H 0.70874 0.50687 0.10608 0.0
H549 H 0.67988 0.50859 0.02165 0.0
H550 H 0.64256 0.50947 0.22534 0.0
H551 H 0.67154 0.50761 0.3098 0.0
H552 H 0.62778 0.48555 0.11304 0.0
H553 H 0.65131 0.5512 0.12436 0.0
H554 H 0.67591 0.57734 0.11503 0.0
H555 H 0.68531 0.56374 0.87282 0.0
H556 H 0.66096 0.53733 0.88097 0.0
H557 H 0.54385 0.51291 0.88073 0.0
H558 H 0.56933 0.51258 0.98204 0.0
H559 H 0.61372 0.51265 0.80249 0.0
H560 H 0.5885 0.51325 0.7023 0.0
H561 H 0.62294 0.53781 0.9136 0.0
H562 H 0.60078 0.47116 0.90325 0.0
H563 H 0.577 0.44427 0.9125 0.0
H564 H 0.56529 0.45915 0.15193 0.0
H565 H 0.58876 0.48636 0.1437 0.0
C566 C 0.69437 0.50747 0.13263 0.0
C567 C 0.69228 0.50726 0.21417 0.0
C568 C 0.67787 0.50848 0.08446 0.0
C569 C 0.65896 0.5094 0.11695 0.0
C570 C 0.65693 0.50882 0.19874 0.0
C571 C 0.67346 0.50783 0.24693 0.0
C572 C 0.64145 0.51122 0.06541 0.0
C573 C 0.62655 0.49716 0.07028 0.0
C574 C 0.63988 0.5262 0.00877 0.0
C575 C 0.65442 0.54219 0.00347 0.0
C576 C 0.65872 0.5537 0.06924 0.0
C577 C 0.6726 0.56858 0.06414 0.0
C578 C 0.6822 0.57217 0.99342 0.0
C579 C 0.67788 0.56093 0.92758 0.0
C580 C 0.66402 0.54602 0.93238 0.0
C581 C 0.55904 0.51312 0.86323 0.0
C582 C 0.56416 0.5133 0.78361 0.0
C583 C 0.57361 0.51272 0.92106 0.0
C584 C 0.59354 0.51248 0.9001 0.0
C585 C 0.59853 0.51288 0.82048 0.0
C586 C 0.58406 0.51319 0.76312 0.0
C587 C 0.60941 0.51192 0.95992 0.0
C588 C 0.62402 0.52627 0.95678 0.0
C589 C 0.61068 0.49717 0.01787 0.0
C590 C 0.59634 0.48098 0.02252 0.0
C591 C 0.59297 0.46885 0.95761 0.0
C592 C 0.57957 0.45352 0.96271 0.0
C593 C 0.56959 0.45005 0.03266 0.0
C594 C 0.57299 0.46189 0.0977 0.0
C595 C 0.58633 0.47728 0.09283 0.0
H596 H 0.55927 0.43814 0.03655 0.0
H597 H 0.69295 0.58369 0.98961 0.0
H598 H 0.98121 0.67428 0.28666 0.0
H599 H 0.98146 0.64621 0.19715 0.0
H600 H 0.03735 0.66461 0.1064 0.0
H601 H 0.03686 0.69281 0.19506 0.0
H602 H 0.01476 0.65455 0.99008 0.0
H603 H 0.03215 0.6248 0.23353 0.0
H604 H 0.02871 0.61597 0.37259 0.0
H605 H 0.97433 0.58743 0.32387 0.0
H606 H 0.97733 0.59629 0.18459 0.0
H607 H 0.04453 0.56911 0.79332 0.0
H608 H 0.04158 0.59536 0.88921 0.0
H609 H 0.98325 0.57636 0.94627 0.0
H610 H 0.98614 0.54995 0.84917 0.0
H611 H 1.00501 0.58635 0.07903 0.0
H612 H 0.98909 0.61533 0.83231 0.0
H613 H 0.9942 0.62318 0.69313 0.0
H614 H 0.04756 0.65276 0.74939 0.0
H615 H 0.04291 0.64485 0.88884 0.0
C616 C 0.99354 0.67222 0.24763 0.0
C617 C 1.00905 0.68558 0.24765 0.0
C618 C 0.99374 0.65614 0.19676 0.0
C619 C 0.00954 0.65304 0.14526 0.0
C620 C 0.02499 0.66657 0.14536 0.0
C621 C 0.02476 0.68265 0.19614 0.0
C622 C 0.00981 0.63606 0.08995 0.0
C623 C 0.01285 0.63964 0.00995 0.0
C624 C 1.00683 0.61654 0.11492 0.0
C625 C 1.00486 0.61141 0.19878 0.0
C626 C 0.01936 0.61681 0.2526 0.0
C627 C 0.01752 0.61176 0.33143 0.0
C628 C 1.00128 0.6012 0.35709 0.0
C629 C 0.98688 0.59564 0.30394 0.0
C630 C 0.98865 0.60066 0.22503 0.0
C631 C 0.03107 0.57045 0.82636 0.0
C632 C 0.01554 0.55746 0.81354 0.0
C633 C 0.02939 0.58553 0.88116 0.0
C634 C 0.01211 0.58807 0.92452 0.0
C635 C 0.99673 0.57476 0.91352 0.0
C636 C 0.99838 0.55966 0.85814 0.0
C637 C 0.01016 0.6049 0.97973 0.0
C638 C 1.0068 0.6013 0.05944 0.0
C639 C 0.01298 0.62441 0.95472 0.0
C640 C 0.01573 0.62936 0.87097 0.0
C641 C 1.00198 0.6234 0.81495 0.0
C642 C 1.00479 0.62787 0.73601 0.0
C643 C 0.02122 0.63843 0.71241 0.0
C644 C 0.03485 0.64458 0.76774 0.0
C645 C 0.03212 0.64012 0.84676 0.0
H646 H 0.02337 0.64187 0.65126 0.0
H647 H 0.99989 0.59728 0.41813 0.0
H648 H 0.97026 0.2422 0.23229 0.0
H649 H 0.96976 0.22336 0.35255 0.0
H650 H 0.02606 0.24678 0.41526 0.0
H651 H 0.02661 0.26556 0.29378 0.0
H652 H 0.02834 0.20959 0.3807 0.0
H653 H 0.98924 0.24521 0.55452 0.0
H654 H 0.9622 0.26605 0.60072 0.0
H655 H 0.92095 0.22135 0.542 0.0
H656 H 0.94766 0.20032 0.49424 0.0
H657 H 0.02392 0.11498 0.55624 0.0
H658 H 0.02642 0.15064 0.55613 0.0
H659 H 0.97261 0.15448 0.42658 0.0
H660 H 0.96997 0.11894 0.42668 0.0
H661 H 0.97583 0.18267 0.54883 0.0
H662 H 0.01269 0.15617 0.32733 0.0
H663 H 0.03837 0.13618 0.26485 0.0
H664 H 0.08207 0.16495 0.40231 0.0
H665 H 0.05656 0.18499 0.46613 0.0
C666 C 0.98203 0.24409 0.27376 0.0
C667 C 0.99865 0.25489 0.25342 0.0
C668 C 0.98169 0.23345 0.34307 0.0
C669 C 0.99802 0.23345 0.39261 0.0
C670 C 0.01334 0.24656 0.37778 0.0
C671 C 0.01364 0.25727 0.30836 0.0
C672 C 1.00143 0.21602 0.44178 0.0
C673 C 0.01726 0.20406 0.42036 0.0
C674 C 0.98681 0.2086 0.49215 0.0
C675 C 0.97054 0.22114 0.52079 0.0
C676 C 0.9744 0.23984 0.55099 0.0
C677 C 0.95912 0.25169 0.57754 0.0
C678 C 0.93987 0.24502 0.57435 0.0
C679 C 0.93587 0.22648 0.54462 0.0
C680 C 0.9511 0.21456 0.51799 0.0
C681 C 0.01259 0.12346 0.52805 0.0
C682 C 0.99676 0.11422 0.49127 0.0
C683 C 0.01399 0.14377 0.52853 0.0
C684 C 0.99963 0.1551 0.49182 0.0
C685 C 0.98368 0.14594 0.45615 0.0
C686 C 0.98221 0.12566 0.45609 0.0
C687 C 1.00197 0.17636 0.48335 0.0
C688 C 0.98732 0.18875 0.51259 0.0
C689 C 0.01747 0.18422 0.43894 0.0
C690 C 0.03272 0.17179 0.40249 0.0
C691 C 0.02775 0.15803 0.34499 0.0
C692 C 0.04226 0.14674 0.30916 0.0
C693 C 0.06182 0.14921 0.32993 0.0
C694 C 0.0669 0.16299 0.38652 0.0
C695 C 0.05243 0.17431 0.42257 0.0
H696 H 0.07305 0.14052 0.30189 0.0
H697 H 0.92806 0.25423 0.5949 0.0
H698 H 0.26136 1.00222 0.30599 0.0
H699 H 0.28152 0.99304 0.41762 0.0
H700 H 0.30953 0.94853 0.27822 0.0
H701 H 0.28871 0.95688 0.1682 0.0
H702 H 0.31485 0.94109 0.43237 0.0
H703 H 0.32252 0.99671 0.25217 0.0
H704 H 0.3106 0.02713 0.1915 0.0
H705 H 0.3041 0.05321 0.41849 0.0
H706 H 0.31574 0.02278 0.4804 0.0
H707 H 0.41558 0.95215 0.3789 0.0
H708 H 0.38017 0.94771 0.38676 0.0
H709 H 0.3762 0.99526 0.55195 0.0
H710 H 0.41152 1.0002 0.54105 0.0
H711 H 0.35386 1.00197 0.43666 0.0
H712 H 0.36341 0.94735 0.5976 0.0
H713 H 0.37698 0.91623 0.64436 0.0
H714 H 0.35403 0.88684 0.44314 0.0
H715 H 0.34051 0.91782 0.39432 0.0
C716 C 0.27099 0.98973 0.30047 0.0
C717 C 0.27407 0.98076 0.22751 0.0
C718 C 0.28256 0.98452 0.36442 0.0
C719 C 0.29759 0.97069 0.35508 0.0
C720 C 0.29827 0.95949 0.28648 0.0
C721 C 0.28651 0.96444 0.22315 0.0
C722 C 0.31543 0.97163 0.40379 0.0
C723 C 0.32342 0.95436 0.43434 0.0
C724 C 0.32639 0.9891 0.40778 0.0
C725 C 0.31974 1.00747 0.37083 0.0
C726 C 0.31849 0.00894 0.28903 0.0
C727 C 0.31177 0.02615 0.25446 0.0
C728 C 0.30655 0.04208 0.30114 0.0
C729 C 0.30809 0.04084 0.38246 0.0
C730 C 0.31473 0.02361 0.41733 0.0
C731 C 0.40712 0.96135 0.41786 0.0
C732 C 0.41604 0.97669 0.45833 0.0
C733 C 0.38693 0.95869 0.42319 0.0
C734 C 0.37548 0.97106 0.47049 0.0
C735 C 0.3847 0.98555 0.5151 0.0
C736 C 0.4048 0.98844 0.50856 0.0
C737 C 0.35393 0.97114 0.46211 0.0
C738 C 0.34521 0.98872 0.43869 0.0
C739 C 0.34266 0.95382 0.46323 0.0
C740 C 0.35081 0.93503 0.49233 0.0
C741 C 0.36126 0.93431 0.56302 0.0
C742 C 0.36897 0.91666 0.58995 0.0
C743 C 0.36634 0.89956 0.54682 0.0
C744 C 0.356 0.90009 0.47663 0.0
C745 C 0.34826 0.9177 0.4494 0.0
H746 H 0.37233 0.88591 0.56776 0.0
H747 H 0.30134 0.05541 0.27431 0.0
H748 H 0.56777 0.26751 0.15382 0.0
H749 H 0.58293 0.29273 0.23366 0.0
H750 H 0.53055 0.29655 0.37361 0.0
H751 H 0.51562 0.27112 0.29471 0.0
H752 H 0.56068 0.32399 0.19918 0.0
H753 H 0.53788 0.32836 0.52793 0.0
H754 H 0.53902 0.30782 0.6459 0.0
H755 H 0.58687 0.27516 0.5487 0.0
H756 H 0.58631 0.29574 0.43068 0.0
H757 H 0.51592 0.41094 0.32175 0.0
H758 H 0.52461 0.37657 0.30246 0.0
H759 H 0.58082 0.38676 0.40793 0.0
H760 H 0.57222 0.42126 0.42696 0.0
H761 H 0.5598 0.35283 0.46487 0.0
H762 H 0.58064 0.38251 0.22365 0.0
H763 H 0.57663 0.40292 0.10612 0.0
H764 H 0.52987 0.36624 0.0279 0.0
H765 H 0.53328 0.34581 0.14573 0.0
C766 C 0.56014 0.27263 0.20552 0.0
C767 C 0.54046 0.26777 0.21757 0.0
C768 C 0.56876 0.28715 0.25093 0.0
C769 C 0.55765 0.29691 0.30801 0.0
C770 C 0.53941 0.28927 0.32979 0.0
C771 C 0.53085 0.27464 0.28469 0.0
C772 C 0.56142 0.31784 0.32291 0.0
C773 C 0.56094 0.33024 0.25745 0.0
C774 C 0.56144 0.326 0.39883 0.0
C775 C 0.56198 0.31358 0.46997 0.0
C776 C 0.54874 0.31689 0.53177 0.0
C777 C 0.54927 0.30521 0.59871 0.0
C778 C 0.56297 0.29016 0.6047 0.0
C779 C 0.57621 0.28678 0.54385 0.0
C780 C 0.57578 0.29844 0.47683 0.0
C781 C 0.53014 0.40583 0.34046 0.0
C782 C 0.54348 0.41866 0.3752 0.0
C783 C 0.53509 0.38628 0.3294 0.0
C784 C 0.55338 0.37927 0.35345 0.0
C785 C 0.56668 0.392 0.38884 0.0
C786 C 0.56182 0.41164 0.39902 0.0
C787 C 0.5584 0.35856 0.34135 0.0
C788 C 0.56024 0.3464 0.40695 0.0
C789 C 0.55918 0.35046 0.26553 0.0
C790 C 0.55717 0.36267 0.19404 0.0
C791 C 0.56939 0.37887 0.18178 0.0
C792 C 0.56723 0.39044 0.11502 0.0
C793 C 0.55299 0.38588 0.05965 0.0
C794 C 0.54089 0.36973 0.07088 0.0
C795 C 0.54294 0.35815 0.13766 0.0
H796 H 0.55135 0.39485 0.00801 0.0
H797 H 0.56335 0.28113 0.65655 0.0
H798 H 0.26519 0.51745 0.33036 0.0
H799 H 0.24658 0.52763 0.44581 0.0
H800 H 0.21738 0.57158 0.3082 0.0
H801 H 0.23657 0.56213 0.19448 0.0
H802 H 0.2147 0.58085 0.45996 0.0
H803 H 0.20447 0.52124 0.29748 0.0
H804 H 0.21535 0.48906 0.24872 0.0
H805 H 0.22253 0.46891 0.48444 0.0
H806 H 0.21196 0.50109 0.53454 0.0
H807 H 0.11463 0.57105 0.40718 0.0
H808 H 0.15004 0.57474 0.4164 0.0
H809 H 0.15153 0.53238 0.60286 0.0
H810 H 0.1161 0.52879 0.59413 0.0
H811 H 0.17384 0.52149 0.48541 0.0
H812 H 0.16911 0.57784 0.63768 0.0
H813 H 0.15699 0.60978 0.68296 0.0
H814 H 0.17644 0.63631 0.46926 0.0
H815 H 0.18847 0.60448 0.4221 0.0
C816 C 0.25563 0.53002 0.32602 0.0
C817 C 0.25177 0.5386 0.25308 0.0
C818 C 0.24491 0.53577 0.39198 0.0
C819 C 0.22999 0.54979 0.38474 0.0
C820 C 0.22857 0.56051 0.31511 0.0
C821 C 0.23945 0.55499 0.24976 0.0
C822 C 0.21296 0.54994 0.43867 0.0
C823 C 0.20581 0.56788 0.46662 0.0
C824 C 0.2016 0.53289 0.4498 0.0
C825 C 0.20769 0.51356 0.41964 0.0
C826 C 0.20842 0.50994 0.33879 0.0
C827 C 0.21454 0.49174 0.31094 0.0
C828 C 0.21966 0.47698 0.36342 0.0
C829 C 0.21862 0.48038 0.44388 0.0
C830 C 0.2126 0.49859 0.47205 0.0
C831 C 0.12245 0.56295 0.45159 0.0
C832 C 0.1127 0.54931 0.49872 0.0
C833 C 0.14268 0.56517 0.45729 0.0
C834 C 0.15346 0.55388 0.51057 0.0
C835 C 0.14354 0.54124 0.5614 0.0
C836 C 0.12334 0.53904 0.5557 0.0
C837 C 0.17499 0.55264 0.50224 0.0
C838 C 0.18295 0.53442 0.48263 0.0
C839 C 0.18691 0.56944 0.49861 0.0
C840 C 0.17969 0.5887 0.52629 0.0
C841 C 0.17072 0.59045 0.60008 0.0
C842 C 0.16388 0.60855 0.62614 0.0
C843 C 0.16594 0.62507 0.57902 0.0
C844 C 0.17488 0.62351 0.50575 0.0
C845 C 0.18176 0.60543 0.4794 0.0
H846 H 0.16062 0.63907 0.59929 0.0
H847 H 0.22439 0.4629 0.34174 0.0
H848 H 0.9629 0.78146 0.16387 0.0
H849 H 0.96439 0.80042 0.04437 0.0
H850 H 0.01661 0.76941 0.97484 0.0
H851 H 0.01553 0.7509 0.09688 0.0
H852 H 0.02486 0.80496 1.00102 0.0
H853 H 0.97682 0.77594 0.84811 0.0
H854 H 0.94584 0.76029 0.8116 0.0
H855 H 0.91451 0.81272 0.86919 0.0
H856 H 0.94523 0.82864 0.9074 0.0
H857 H 0.03839 0.89686 0.83246 0.0
H858 H 0.032 0.86185 0.82321 0.0
H859 H 0.97855 0.86953 0.95403 0.0
H860 H 0.98484 0.90445 0.96361 0.0
H861 H 0.97515 0.84012 0.84468 0.0
H862 H 0.02061 0.86119 0.04736 0.0
H863 H 0.0507 0.87718 0.09336 0.0
H864 H 0.08527 0.83865 0.9509 0.0
H865 H 0.05534 0.82258 0.90349 0.0
C866 C 0.97419 0.77808 0.12139 0.0
C867 C 0.98942 0.76521 0.14036 0.0
C868 C 0.97494 0.7888 0.05236 0.0
C869 C 0.99083 0.78661 1.0009 0.0
C870 C 1.00432 0.77147 0.01406 0.0
C871 C 1.00367 0.76085 0.08373 0.0
C872 C 0.99612 0.80327 0.94981 0.0
C873 C 0.01421 0.8122 0.96418 0.0
C874 C 0.98213 0.81303 0.90312 0.0
C875 C 0.96345 0.80353 0.88067 0.0
C876 C 0.96333 0.78412 0.85368 0.0
C877 C 0.94579 0.7752 0.83249 0.0
C878 C 0.92822 0.7855 0.83802 0.0
C879 C 0.92815 0.80477 0.86473 0.0
C880 C 0.94565 0.81378 0.88593 0.0
C881 C 0.02519 0.89108 0.85858 0.0
C882 C 0.01233 0.9033 0.90023 0.0
C883 C 0.02143 0.87114 0.85227 0.0
C884 C 1.00487 0.8631 0.88835 0.0
C885 C 0.99134 0.87547 0.92524 0.0
C886 C 0.99504 0.89541 0.93124 0.0
C887 C 1.00321 0.84181 0.90028 0.0
C888 C 0.98593 0.83226 0.87874 0.0
C889 C 0.01774 0.83145 0.94173 0.0
C890 C 0.03575 0.84095 0.97074 0.0
C891 C 0.03463 0.85625 0.02539 0.0
C892 C 0.05165 0.8653 0.0518 0.0
C893 C 0.06988 0.85901 0.02474 0.0
C894 C 0.07113 0.84358 0.9715 0.0
C895 C 0.05414 0.8345 0.94477 0.0
H896 H 0.08305 0.86603 0.04527 0.0
H897 H 0.91465 0.77856 0.82161 0.0
H898 H 0.76053 0.97659 0.16334 0.0
H899 H 0.73598 0.97222 0.06116 0.0
H900 H 0.72139 0.03343 0.07658 0.0
H901 H 0.74589 0.03769 0.17749 0.0
H902 H 0.7012 0.97659 0.11766 0.0
H903 H 0.69312 0.04938 0.93412 0.0
H904 H 0.7131 0.0692 0.84466 0.0
H905 H 0.7512 0.02038 0.804 0.0
H906 H 0.73126 1.00008 0.89208 0.0
H907 H 0.61442 0.04242 0.06365 0.0
H908 H 0.64917 0.03435 0.06213 0.0
H909 H 0.636 0.97648 0.97876 0.0
H910 H 0.60118 0.98457 0.97762 0.0
H911 H 0.67129 0.02157 0.92522 0.0
H912 H 0.67255 0.94749 0.07411 0.0
H913 H 0.65234 0.92742 0.16266 0.0
H914 H 0.62961 0.97927 0.27113 0.0
H915 H 0.64989 0.99959 0.18417 0.0
C916 C 0.75291 0.98928 0.14104 0.0
C917 C 0.75482 1.00743 0.17816 0.0
C918 C 0.73883 0.98677 0.08296 0.0
C919 C 0.72664 1.00241 0.06181 0.0
C920 C 0.73068 0.02115 0.09098 0.0
C921 C 0.74467 0.02362 0.149 0.0
C922 C 0.70689 0.99864 0.0302 0.0
C923 C 0.69485 0.98595 0.07336 0.0
C924 C 0.69846 0.01088 0.97281 0.0
C925 C 0.71066 0.02316 0.92021 0.0
C926 C 0.70567 0.04277 0.90582 0.0
C927 C 0.71702 0.05413 0.85534 0.0
C928 C 0.73343 0.04606 0.81875 0.0
C929 C 0.73852 0.02662 0.83257 0.0
C930 C 0.72721 0.01519 0.88294 0.0
C931 C 0.61889 0.02792 0.04555 0.0
C932 C 0.60508 0.0142 0.02016 0.0
C933 C 0.63871 0.02341 0.04414 0.0
C934 C 0.64502 1.005 0.01873 0.0
C935 C 0.6313 0.99083 0.99778 0.0
C936 C 0.61142 0.99538 0.99853 0.0
C937 C 0.66608 1.00073 0.01675 0.0
C938 C 0.67803 0.01178 0.96704 0.0
C939 C 0.6745 0.98706 0.06809 0.0
C940 C 0.66246 0.97503 0.12164 0.0
C941 C 0.66321 0.95458 0.11682 0.0
C942 C 0.65176 0.94317 0.16675 0.0
C943 C 0.63955 0.95206 0.22194 0.0
C944 C 0.63888 0.97239 0.22772 0.0
C945 C 0.65034 0.98386 0.17806 0.0
H946 H 0.63074 0.9432 0.26066 0.0
H947 H 0.74219 0.05488 0.77966 0.0
H948 H 0.52592 0.7382 0.13237 0.0
H949 H 0.51296 0.71639 0.03307 0.0
H950 H 0.45519 0.74004 0.0712 0.0
H951 H 0.46834 0.76181 0.17198 0.0
H952 H 0.45615 0.70331 0.10647 0.0
H953 H 0.47459 0.73751 0.88015 0.0
H954 H 0.49456 0.757 0.78908 0.0
H955 H 0.53758 0.71135 0.78041 0.0
H956 H 0.51816 0.69184 0.87309 0.0
H957 H 0.43995 0.60817 0.94929 0.0
H958 H 0.43811 0.64399 0.9493 0.0
H959 H 0.50088 0.64699 0.96726 0.0
H960 H 0.50283 0.61148 0.9657 0.0
H961 H 0.486 0.67506 0.86741 0.0
H962 H 0.47326 0.64739 0.12453 0.0
H963 H 0.4548 0.62728 0.21845 0.0
H964 H 0.40319 0.66125 0.17496 0.0
H965 H 0.42127 0.6813 0.07928 0.0
C966 C 0.51066 0.73943 0.11639 0.0
C967 C 0.49808 0.75159 0.15904 0.0
C968 C 0.50322 0.72703 0.05932 0.0
C969 C 0.48305 0.72657 0.04434 0.0
C970 C 0.47079 0.74024 0.08144 0.0
C971 C 0.47829 0.7527 0.13867 0.0
C972 C 0.47475 0.70894 0.0069 0.0
C973 C 0.46214 0.69744 0.05256 0.0
C974 C 0.48267 0.70113 0.93706 0.0
C975 C 0.49481 0.71312 0.88331 0.0
C976 C 0.48839 0.73168 0.85939 0.0
C977 C 0.49962 0.74275 0.80745 0.0
C978 C 0.51731 0.73541 0.77882 0.0
C979 C 0.52385 0.71702 0.80242 0.0
C980 C 0.51272 0.70593 0.85457 0.0
C981 C 0.45332 0.61655 0.95256 0.0
C982 C 0.4715 0.60712 0.95932 0.0
C983 C 0.45226 0.63693 0.95212 0.0
C984 C 0.46938 0.64807 0.95817 0.0
C985 C 0.48754 0.63864 0.96187 0.0
C986 C 0.4886 0.61837 0.96258 0.0
C987 C 0.46862 0.66941 0.96983 0.0
C988 C 0.47942 0.6814 0.91933 0.0
C989 C 0.45936 0.67764 0.03602 0.0
C990 C 0.4485 0.66559 0.09357 0.0
C991 C 0.45789 0.65038 0.13406 0.0
C992 C 0.44751 0.63901 0.18772 0.0
C993 C 0.4278 0.6429 0.20231 0.0
C994 C 0.41844 0.6582 0.16335 0.0
C995 C 0.42874 0.66955 0.1093 0.0
H996 H 0.4198 0.63413 0.24407 0.0
H997 H 0.52595 0.74397 0.73842 0.0
H998 H 0.75495 0.51363 0.05999 0.0
H999 H 0.77515 0.51469 0.94239 0.0
H1000 H 0.80951 0.56079 0.04425 0.0
H1001 H 0.78847 0.56084 0.15858 0.0
H1002 H 0.81788 0.55891 0.89551 0.0
H1003 H 0.81354 0.51018 0.11175 0.0
H1004 H 0.79531 0.48502 0.18525 0.0
H1005 H 0.78544 0.45323 0.97282 0.0
H1006 H 0.80337 0.47835 0.89804 0.0
H1007 H 0.91179 0.53231 0.01358 0.0
H1008 H 0.87753 0.54066 0.99316 0.0
H1009 H 0.87249 0.49443 0.82344 0.0
H1010 H 0.90702 0.48637 0.84124 0.0
H1011 H 0.84531 0.49301 0.94509 0.0
H1012 H 0.86973 0.53788 0.76418 0.0
H1013 H 0.88992 0.56405 0.70851 0.0
H1014 H 0.86549 0.60495 0.87195 0.0
H1015 H 0.84536 0.579 0.92991 0.0
C1016 C 0.76594 0.52491 0.0551 0.0
C1017 C 0.77088 0.53646 0.12003 0.0
C1018 C 0.77763 0.52539 0.98786 0.0
C1019 C 0.79462 0.5369 0.98685 0.0
C1020 C 0.79687 0.55131 0.04445 0.0
C1021 C 0.78488 0.55123 0.11043 0.0
C1022 C 0.81235 0.53045 0.94353 0.0
C1023 C 0.8239 0.54447 0.90536 0.0
C1024 C 0.82001 0.51138 0.9545 0.0
C1025 C 0.80954 0.49617 0.99938 0.0
C1026 C 0.80746 0.4978 0.0809 0.0
C1027 C 0.79717 0.4836 0.1227 0.0
C1028 C 0.78921 0.46758 0.08371 0.0
C1029 C 0.79156 0.46569 0.00288 0.0
C1030 C 0.80175 0.4799 0.96074 0.0
C1031 C 0.90353 0.52412 0.97086 0.0
C1032 C 0.91213 0.50854 0.92967 0.0
C1033 C 0.88398 0.52897 0.959 0.0
C1034 C 0.87261 0.51832 0.90604 0.0
C1035 C 0.8811 0.50288 0.86423 0.0
C1036 C 0.90074 0.49813 0.87545 0.0
C1037 C 0.85135 0.52191 0.90245 0.0
C1038 C 0.83917 0.50724 0.93166 0.0
C1039 C 0.84352 0.54057 0.88562 0.0
C1040 C 0.85581 0.55636 0.8513 0.0
C1041 C 0.86865 0.5524 0.78873 0.0
C1042 C 0.88012 0.56723 0.75662 0.0
C1043 C 0.87894 0.58616 0.78647 0.0
C1044 C 0.86632 0.59029 0.84863 0.0
C1045 C 0.85482 0.5755 0.88101 0.0
H1046 H 0.88784 0.59763 0.76153 0.0
H1047 H 0.78124 0.4566 0.11616 0.0
H1048 H 0.97874 0.22171 0.00593 0.0
H1049 H 0.98099 0.18918 0.94781 0.0
H1050 H 0.0422 0.19844 0.90065 0.0
H1051 H 0.03995 0.23109 0.95982 0.0
H1052 H 0.98949 0.17262 0.81522 0.0
H1053 H 0.06696 0.15554 0.93908 0.0
H1054 H 0.08736 0.16466 0.05199 0.0
H1055 H 0.03601 0.18068 0.18198 0.0
H1056 H 0.01532 0.17139 0.07044 0.0
H1057 H 0.01634 0.07975 0.66223 0.0
H1058 H 0.01585 0.1143 0.69868 0.0
H1059 H 0.01809 0.09839 0.94226 0.0
H1060 H 0.01936 0.06394 0.90622 0.0
H1061 H 0.03898 0.12798 0.92831 0.0
H1062 H 0.97613 0.11212 0.83785 0.0
H1063 H 0.95004 0.10082 0.75026 0.0
H1064 H 0.96183 0.1482 0.59358 0.0
H1065 H 0.989 0.15903 0.67705 0.0
C1066 C 0.99257 0.217 0.98138 0.0
C1067 C 0.00916 0.22901 0.98732 0.0
C1068 C 0.99387 0.19834 0.94821 0.0
C1069 C 0.01183 0.19109 0.92072 0.0
C1070 C 0.0282 0.20352 0.92233 0.0
C1071 C 0.02688 0.2223 0.95524 0.0
C1072 C 0.01352 0.17019 0.89517 0.0
C1073 C 1.00047 0.16289 0.83911 0.0
C1074 C 0.02723 0.15718 0.92891 0.0
C1075 C 0.03963 0.16304 0.99588 0.0
C1076 C 0.06004 0.16102 0.99174 0.0
C1077 C 0.07164 0.16619 0.05557 0.0
C1078 C 0.06299 0.17331 0.12401 0.0
C1079 C 0.04271 0.17525 0.12883 0.0
C1080 C 0.03104 0.17006 0.06527 0.0
C1081 C 0.01686 0.08359 0.7236 0.0
C1082 C 0.01787 0.06894 0.78126 0.0
C1083 C 0.01649 0.10343 0.74442 0.0
C1084 C 0.01666 0.10918 0.82342 0.0
C1085 C 0.018 0.09454 0.88086 0.0
C1086 C 0.01866 0.07474 0.86011 0.0
C1087 C 0.01518 0.13033 0.84662 0.0
C1088 C 0.02822 0.1377 0.90277 0.0
C1089 C 1.00076 0.14313 0.8157 0.0
C1090 C 0.98496 0.13616 0.7632 0.0
C1091 C 0.97355 0.11986 0.78368 0.0
C1092 C 0.95861 0.11349 0.73451 0.0
C1093 C 0.95452 0.1236 0.66564 0.0
C1094 C 0.96535 0.14013 0.64593 0.0
C1095 C 0.98062 0.14632 0.69392 0.0
H1096 H 0.94283 0.11875 0.62796 0.0
H1097 H 0.072 0.17726 0.17339 0.0
H1098 H 0.29486 0.03988 0.98505 0.0
H1099 H 0.32574 0.04406 0.91309 0.0
H1100 H 0.32913 0.98183 0.87756 0.0
H1101 H 0.29844 0.97771 0.94914 0.0
H1102 H 0.36019 0.03118 0.95731 0.0
H1103 H 0.35379 0.97023 0.72198 0.0
H1104 H 0.32908 0.95777 0.62973 0.0
H1105 H 0.3008 0.01369 0.62747 0.0
H1106 H 0.32495 0.02633 0.72133 0.0
H1107 H 0.45592 1.00328 0.86566 0.0
H1108 H 0.42131 1.00343 0.89992 0.0
H1109 H 0.40696 0.02211 0.66619 0.0
H1110 H 0.44165 0.02072 0.63029 0.0
H1111 H 0.37993 0.99964 0.70818 0.0
H1112 H 0.40846 0.05439 0.8352 0.0
H1113 H 0.4321 0.07205 0.91736 0.0
H1114 H 0.41491 0.03797 0.11642 0.0
H1115 H 0.39132 0.01993 0.03524 0.0
C1116 C 0.3019 0.02721 0.95955 0.0
C1117 C 0.29415 1.00849 0.97223 0.0
C1118 C 0.31965 0.02956 0.91901 0.0
C1119 C 0.32987 0.01328 0.88937 0.0
C1120 C 0.32152 0.9947 0.89851 0.0
C1121 C 0.30395 0.99233 0.93962 0.0
C1122 C 0.35014 0.01525 0.85681 0.0
C1123 C 0.36445 0.02439 0.90258 0.0
C1124 C 0.3558 1.00687 0.78445 0.0
C1125 C 0.34112 0.99917 0.72898 0.0
C1126 C 0.3423 0.97985 0.7018 0.0
C1127 C 0.32838 0.97276 0.64934 0.0
C1128 C 0.3135 0.98496 0.62231 0.0
C1129 C 0.31233 1.00423 0.64849 0.0
C1130 C 0.32602 0.01133 0.70183 0.0
C1131 C 0.4454 1.00738 0.82141 0.0
C1132 C 0.45162 0.01224 0.74549 0.0
C1133 C 0.42553 1.0076 0.84124 0.0
C1134 C 0.41131 0.01339 0.78659 0.0
C1135 C 0.41748 0.01771 0.70992 0.0
C1136 C 0.43738 0.01699 0.68943 0.0
C1137 C 0.39017 0.01508 0.80996 0.0
C1138 C 0.3757 1.00659 0.76263 0.0
C1139 C 0.38422 0.02474 0.87964 0.0
C1140 C 0.39822 0.03572 0.92896 0.0
C1141 C 0.40978 0.0506 0.89642 0.0
C1142 C 0.42317 0.06068 0.94282 0.0
C1143 C 0.42503 0.05611 0.02203 0.0
C1144 C 0.41345 0.04149 0.05506 0.0
C1145 C 0.40005 0.03135 0.0089 0.0
H1146 H 0.43542 0.06391 0.05783 0.0
H1147 H 0.30286 0.97947 0.5812 0.0
H1148 H 0.49954 0.31263 0.09482 0.0
H1149 H 0.49799 0.34409 0.02922 0.0
H1150 H 0.51275 0.31646 0.81019 0.0
H1151 H 0.51476 0.28463 0.87715 0.0
H1152 H 0.53422 0.34869 0.82935 0.0
H1153 H 0.46626 0.33543 0.84489 0.0
H1154 H 0.43517 0.32557 0.90614 0.0
H1155 H 0.43922 0.37337 0.06757 0.0
H1156 H 0.47048 0.38337 0.00799 0.0
H1157 H 0.51855 0.44131 0.63785 0.0
H1158 H 0.51692 0.40693 0.67647 0.0
H1159 H 0.50341 0.42408 0.91303 0.0
H1160 H 0.50473 0.45835 0.87496 0.0
H1161 H 0.4797 0.39553 0.86796 0.0
H1162 H 0.54964 0.40639 0.85726 0.0
H1163 H 0.58034 0.41616 0.79255 0.0
H1164 H 0.57152 0.37263 0.61547 0.0
H1165 H 0.54069 0.3627 0.67894 0.0
C1166 C 0.50208 0.31315 0.03232 0.0
C1167 C 0.50714 0.29608 0.99111 0.0
C1168 C 0.50117 0.33122 0.99467 0.0
C1169 C 0.50507 0.33282 0.91427 0.0
C1170 C 0.50961 0.31569 0.87219 0.0
C1171 C 0.51053 0.29745 0.91019 0.0
C1172 C 0.50524 0.35256 0.87632 0.0
C1173 C 0.52211 0.35877 0.83644 0.0
C1174 C 0.48963 0.36599 0.88624 0.0
C1175 C 0.47079 0.36008 0.92222 0.0
C1176 C 0.46059 0.34377 0.89379 0.0
C1177 C 0.44293 0.33816 0.92817 0.0
C1178 C 0.43524 0.34882 0.99079 0.0
C1179 C 0.44519 0.36512 0.01907 0.0
C1180 C 0.46287 0.37079 0.98493 0.0
C1181 C 0.5153 0.43781 0.69822 0.0
C1182 C 0.51176 0.45277 0.75313 0.0
C1183 C 0.51445 0.41806 0.72034 0.0
C1184 C 0.51015 0.41276 0.79799 0.0
C1185 C 0.50669 0.42768 0.85275 0.0
C1186 C 0.50751 0.44736 0.83077 0.0
C1187 C 0.50882 0.39179 0.82258 0.0
C1188 C 0.49172 0.38536 0.86009 0.0
C1189 C 0.52414 0.37816 0.80987 0.0
C1190 C 0.54278 0.38394 0.77239 0.0
C1191 C 0.55421 0.39897 0.80432 0.0
C1192 C 0.57164 0.40452 0.76793 0.0
C1193 C 0.57786 0.39506 0.69983 0.0
C1194 C 0.56669 0.37996 0.66818 0.0
C1195 C 0.54925 0.37434 0.70441 0.0
H1196 H 0.59134 0.39939 0.67168 0.0
H1197 H 0.42156 0.34445 0.01732 0.0
H1198 H 0.24005 0.50874 0.90271 0.0
H1199 H 0.20997 0.50291 0.828 0.0
H1200 H 0.1778 0.49665 0.04383 0.0
H1201 H 0.2076 0.5013 0.11738 0.0
H1202 H 0.16482 0.47142 0.94836 0.0
H1203 H 0.17919 0.54196 0.92019 0.0
H1204 H 0.19958 0.56957 0.87616 0.0
H1205 H 0.2003 0.54641 0.64298 0.0
H1206 H 0.17983 0.51875 0.68557 0.0
H1207 H 0.06708 0.49791 0.88462 0.0
H1208 H 0.10142 0.49558 0.92182 0.0
H1209 H 0.11851 0.49933 0.67953 0.0
H1210 H 0.08416 0.50227 0.64195 0.0
H1211 H 0.14154 0.52169 0.76209 0.0
H1212 H 0.12171 0.45585 0.7814 0.0
H1213 H 0.10108 0.42796 0.8194 0.0
H1214 H 0.11174 0.44009 0.06172 0.0
H1215 H 0.13222 0.46823 0.02525 0.0
C1216 C 0.2266 0.50578 0.93395 0.0
C1217 C 0.22626 0.50584 0.01624 0.0
C1218 C 0.20932 0.5027 0.89121 0.0
C1219 C 0.19135 0.49977 0.92998 0.0
C1220 C 0.1913 0.49898 0.01195 0.0
C1221 C 0.20844 0.50183 0.05425 0.0
C1222 C 0.17233 0.49788 0.8874 0.0
C1223 C 0.15973 0.48252 0.90806 0.0
C1224 C 0.16582 0.51171 0.83155 0.0
C1225 C 0.17812 0.52828 0.80614 0.0
C1226 C 0.18374 0.54277 0.85958 0.0
C1227 C 0.19526 0.55844 0.83482 0.0
C1228 C 0.20118 0.55976 0.75674 0.0
C1229 C 0.1956 0.54542 0.70326 0.0
C1230 C 0.18401 0.52978 0.72763 0.0
C1231 C 0.0781 0.49813 0.83907 0.0
C1232 C 0.07276 0.50023 0.76023 0.0
C1233 C 0.0978 0.49671 0.86042 0.0
C1234 C 0.11268 0.49706 0.80348 0.0
C1235 C 0.10738 0.49908 0.72466 0.0
C1236 C 0.08768 0.50067 0.70327 0.0
C1237 C 0.1337 0.49587 0.82686 0.0
C1238 C 0.14669 0.51049 0.80189 0.0
C1239 C 0.14065 0.48122 0.87815 0.0
C1240 C 0.12841 0.46425 0.90054 0.0
C1241 C 0.11956 0.45266 0.84282 0.0
C1242 C 0.1079 0.43679 0.86409 0.0
C1243 C 0.10507 0.43228 0.94293 0.0
C1244 C 0.11394 0.4436 1.00067 0.0
C1245 C 0.12559 0.4595 0.97973 0.0
H1246 H 0.09604 0.41999 0.95928 0.0
H1247 H 0.2101 0.57189 0.73766 0.0
H1248 H 0.02845 0.78374 0.45644 0.0
H1249 H 0.03198 0.81567 0.52133 0.0
H1250 H 0.9755 0.83306 0.43512 0.0
H1251 H 0.97168 0.80129 0.37254 0.0
H1252 H 1.00792 0.8594 0.39799 0.0
H1253 H 0.97943 0.82415 0.62213 0.0
H1254 H 0.98187 0.79528 0.70737 0.0
H1255 H 0.03887 0.81337 0.78154 0.0
H1256 H 0.03693 0.84214 0.69519 0.0
H1257 H 0.98772 0.95116 0.55171 0.0
H1258 H 0.98651 0.91685 0.51398 0.0
H1259 H 0.03011 0.90318 0.68724 0.0
H1260 H 0.03009 0.93739 0.72951 0.0
H1261 H 1.00891 0.87381 0.6821 0.0
H1262 H 0.04008 0.90799 0.47857 0.0
H1263 H 0.04594 0.93325 0.37871 0.0
H1264 H 0.99435 0.91539 0.25606 0.0
H1265 H 0.98804 0.89017 0.35578 0.0
C1266 C 0.01657 0.79417 0.45331 0.0
C1267 C 0.99985 0.78997 0.40866 0.0
C1268 C 0.01867 0.81249 0.48979 0.0
C1269 C 1.00411 0.82691 0.48216 0.0
C1270 C 0.98704 0.82232 0.4411 0.0
C1271 C 0.98486 0.80408 0.40553 0.0
C1272 C 1.00671 0.84713 0.51337 0.0
C1273 C 1.00791 0.86262 0.46007 0.0
C1274 C 1.00782 0.85125 0.59422 0.0
C1275 C 1.00805 0.83524 0.65223 0.0
C1276 C 0.99243 0.82202 0.65701 0.0
C1277 C 0.99378 0.80562 0.70518 0.0
C1278 C 0.01055 0.80245 0.74976 0.0
C1279 C 0.02591 0.81583 0.74694 0.0
C1280 C 0.02468 0.83219 0.69846 0.0
C1281 C 0.99698 0.94083 0.58209 0.0
C1282 C 0.00918 0.9471 0.64289 0.0
C1283 C 0.99643 0.92114 0.56001 0.0
C1284 C 1.00872 0.90723 0.59564 0.0
C1285 C 0.02052 0.91342 0.65817 0.0
C1286 C 0.02059 0.93307 0.68207 0.0
C1287 C 0.00937 0.88649 0.56639 0.0
C1288 C 1.00892 0.87081 0.6199 0.0
C1289 C 0.00985 0.88208 0.48519 0.0
C1290 C 0.01349 0.89729 0.42511 0.0
C1291 C 0.0299 0.90954 0.43063 0.0
C1292 C 0.03332 0.92384 0.374 0.0
C1293 C 0.02049 0.92595 0.31119 0.0
C1294 C 1.00426 0.91374 0.3048 0.0
C1295 C 1.00076 0.89943 0.36133 0.0
H1296 H 0.02316 0.93703 0.26738 0.0
H1297 H 0.0116 0.78971 0.78686 0.0
H1298 H 0.73612 0.97826 0.47361 0.0
H1299 H 0.70355 0.97856 0.53443 0.0
H1300 H 0.7007 0.041 0.50649 0.0
H1301 H 0.73318 0.04066 0.44531 0.0
H1302 H 0.68232 0.02638 0.64912 0.0
H1303 H 0.68243 0.015 0.36729 0.0
H1304 H 0.69646 0.99652 0.2567 0.0
H1305 H 0.67469 0.9431 0.35454 0.0
H1306 H 0.66081 0.96126 0.46643 0.0
H1307 H 0.57965 0.04157 0.66423 0.0
H1308 H 0.61444 0.04155 0.6306 0.0
H1309 H 0.61103 0.98023 0.57391 0.0
H1310 H 0.57581 0.98091 0.60043 0.0
H1311 H 0.63406 0.99333 0.47888 0.0
H1312 H 0.63045 1.00403 0.7537 0.0
H1313 H 0.62027 0.02048 0.87428 0.0
H1314 H 0.65218 0.0717 0.80824 0.0
H1315 H 0.6614 0.05609 0.68359 0.0
C1316 C 0.7289 0.99212 0.48377 0.0
C1317 C 0.73733 0.00948 0.45611 0.0
C1318 C 0.71019 0.99227 0.51773 0.0
C1319 C 0.69953 0.00979 0.52438 0.0
C1320 C 0.7086 0.02732 0.50236 0.0
C1321 C 0.72723 0.02715 0.46785 0.0
C1322 C 0.67823 0.00962 0.54465 0.0
C1323 C 0.67166 0.01935 0.6118 0.0
C1324 C 0.66441 1.00001 0.49689 0.0
C1325 C 0.67069 0.98945 0.4254 0.0
C1326 C 0.68056 0.99932 0.36497 0.0
C1327 C 0.68861 0.9889 0.3024 0.0
C1328 C 0.68665 0.96862 0.29913 0.0
C1329 C 0.67632 0.95879 0.35759 0.0
C1330 C 0.6683 0.96914 0.42045 0.0
C1331 C 0.58639 0.02811 0.64465 0.0
C1332 C 0.57506 0.0112 0.63568 0.0
C1333 C 0.60641 0.02801 0.62591 0.0
C1334 C 0.61592 0.01073 0.60152 0.0
C1335 C 0.6044 0.99382 0.59255 0.0
C1336 C 0.58422 0.99414 0.6083 0.0
C1337 C 0.63764 0.01024 0.58462 0.0
C1338 C 0.64444 1.00041 0.51726 0.0
C1339 C 0.65172 0.01955 0.63327 0.0
C1340 C 0.64639 0.02894 0.7086 0.0
C1341 C 0.63514 0.01888 0.76428 0.0
C1342 C 0.62953 0.02808 0.83354 0.0
C1343 C 0.63569 0.04707 0.84964 0.0
C1344 C 0.64738 0.05699 0.79579 0.0
C1345 C 0.65265 0.04804 0.72537 0.0
H1346 H 0.63139 0.05409 0.90369 0.0
H1347 H 0.69299 0.96054 0.25095 0.0
H1348 H 0.54488 0.73377 0.4337 0.0
H1349 H 0.5461 0.70199 0.50065 0.0
H1350 H 0.48318 0.70051 0.50676 0.0
H1351 H 0.48199 0.732 0.43934 0.0
H1352 H 0.53024 0.6829 0.63888 0.0
H1353 H 0.46942 0.6581 0.43655 0.0
H1354 H 0.45426 0.66927 0.31368 0.0
H1355 H 0.50964 0.69084 0.23357 0.0
H1356 H 0.52513 0.67976 0.35589 0.0
H1357 H 0.5039 0.58544 0.74681 0.0
H1358 H 0.5037 0.62009 0.7131 0.0
H1359 H 0.52769 0.60646 0.48607 0.0
H1360 H 0.52727 0.57173 0.51848 0.0
H1361 H 0.50106 0.63243 0.46713 0.0
H1362 H 0.55553 0.62767 0.64655 0.0
H1363 H 0.57119 0.61912 0.77169 0.0
H1364 H 0.53138 0.65684 0.89431 0.0
H1365 H 0.51528 0.66535 0.76993 0.0
C1366 C 0.53137 0.72702 0.45246 0.0
C1367 C 0.51334 0.73545 0.43209 0.0
C1368 C 0.53205 0.70881 0.49038 0.0
C1369 C 0.51473 0.69867 0.50797 0.0
C1370 C 0.49675 0.70791 0.49343 0.0
C1371 C 0.49607 0.726 0.45542 0.0
C1372 C 0.51527 0.67757 0.53069 0.0
C1373 C 0.52386 0.67185 0.60149 0.0
C1374 C 0.50716 0.66303 0.48171 0.0
C1375 C 0.49838 0.66817 0.40537 0.0
C1376 C 0.47839 0.665 0.39227 0.0
C1377 C 0.46974 0.67139 0.32291 0.0
C1378 C 0.48099 0.68078 0.266 0.0
C1379 C 0.50096 0.68359 0.2778 0.0
C1380 C 0.50967 0.67727 0.34712 0.0
C1381 C 0.50927 0.58979 0.68979 0.0
C1382 C 0.51572 0.57565 0.6356 0.0
C1383 C 0.50922 0.60973 0.67061 0.0
C1384 C 0.51599 0.61618 0.59723 0.0
C1385 C 0.5224 0.60205 0.54309 0.0
C1386 C 0.52222 0.5821 0.56186 0.0
C1387 C 0.51607 0.63749 0.57595 0.0
C1388 C 0.50752 0.64333 0.50498 0.0
C1389 C 0.52441 0.65206 0.62462 0.0
C1390 C 0.53418 0.64708 0.69912 0.0
C1391 C 0.55008 0.63407 0.70028 0.0
C1392 C 0.55901 0.62922 0.77104 0.0
C1393 C 0.55225 0.6374 0.84092 0.0
C1394 C 0.53657 0.65049 0.84017 0.0
C1395 C 0.52756 0.65535 0.76959 0.0
H1396 H 0.55918 0.63363 0.89564 0.0
H1397 H 0.47425 0.68592 0.21285 0.0
H1398 H 0.78362 0.51669 0.48433 0.0
H1399 H 0.81395 0.51281 0.55905 0.0
H1400 H 0.8459 0.50382 0.34415 0.0
H1401 H 0.81584 0.50601 0.27104 0.0
H1402 H 0.86115 0.48183 0.44262 0.0
H1403 H 0.84523 0.55312 0.46092 0.0
H1404 H 0.82323 0.58021 0.49848 0.0
H1405 H 0.81809 0.55654 0.73001 0.0
H1406 H 0.83979 0.52918 0.69316 0.0
H1407 H 0.95715 0.51352 0.50557 0.0
H1408 H 0.92288 0.5118 0.46665 0.0
H1409 H 0.90519 0.51272 0.70864 0.0
H1410 H 0.9395 0.51446 0.74831 0.0
H1411 H 0.88101 0.53526 0.6207 0.0
H1412 H 0.90533 0.47028 0.6095 0.0
H1413 H 0.92849 0.44416 0.57335 0.0
H1414 H 0.91719 0.45454 0.33022 0.0
H1415 H 0.89422 0.48097 0.36483 0.0
C1416 C 0.79707 0.51353 0.4533 0.0
C1417 C 0.79719 0.51216 0.37118 0.0
C1418 C 0.81454 0.51164 0.49603 0.0
C1419 C 0.83257 0.50864 0.4575 0.0
C1420 C 0.83242 0.50631 0.376 0.0
C1421 C 0.81507 0.50782 0.3338 0.0
C1422 C 0.85179 0.50832 0.49974 0.0
C1423 C 0.86545 0.49362 0.48119 0.0
C1424 C 0.85745 0.52312 0.55299 0.0
C1425 C 0.84419 0.53929 0.57459 0.0
C1426 C 0.83936 0.55374 0.51975 0.0
C1427 C 0.82693 0.56909 0.54085 0.0
C1428 C 0.81931 0.57013 0.61666 0.0
C1429 C 0.82404 0.55576 0.67143 0.0
C1430 C 0.83642 0.54036 0.65052 0.0
C1431 C 0.94601 0.5135 0.55068 0.0
C1432 C 0.9512 0.51404 0.63011 0.0
C1433 C 0.92636 0.5124 0.52831 0.0
C1434 C 0.91137 0.51176 0.58468 0.0
C1435 C 0.91644 0.51303 0.66401 0.0
C1436 C 0.93612 0.51402 0.68653 0.0
C1437 C 0.89052 0.50935 0.56032 0.0
C1438 C 0.87661 0.52339 0.58284 0.0
C1439 C 0.8846 0.49387 0.51093 0.0
C1440 C 0.89814 0.47771 0.4898 0.0
C1441 C 0.90786 0.46708 0.5483 0.0
C1442 C 0.92096 0.45221 0.52808 0.0
C1443 C 0.92434 0.44772 0.44953 0.0
C1444 C 0.91457 0.45804 0.39104 0.0
C1445 C 0.90149 0.47296 0.41093 0.0
H1446 H 0.9345 0.43622 0.434 0.0
H1447 H 0.80971 0.58204 0.63292 0.0
loop_
_geom_bond_atom_site_label_1
_geom_bond_atom_site_label_2
_geom_bond_distance
_geom_bond_site_symmetry_2
_ccdc_geom_bond_type
H0 C3 0.929 . S
H1 C6 0.929 . S
H2 C8 0.930 . S
C3 H0 0.929 . S
C3 C4 1.398 . S
C3 C5 1.396 . S
C4 C3 1.398 . S
C4 C8 1.407 . S
C5 C3 1.396 . S
C5 C6 1.394 . S
C6 H1 0.929 . S
C6 C5 1.394 . S
C6 C7 1.382 . S
C7 C6 1.382 . S
C7 C8 1.392 . S
C7 N9 1.420 . S
C8 H2 0.930 . S
C8 C4 1.407 . S
C8 C7 1.392 . S
N9 C7 1.420 . S
N9 C10 1.244 . S
C10 N9 1.244 . S
H11 C14 0.929 . S
H12 C17 0.929 . S
H13 C19 0.930 . S
C14 H11 0.929 . S
C14 C15 1.397 1_655 S
C14 C16 1.396 1_655 S
C15 C14 1.397 1_455 S
C15 C19 1.410 . S
C16 C14 1.396 1_455 S
C16 C17 1.394 . S
C17 H12 0.929 . S
C17 C16 1.394 . S
C17 C18 1.382 . S
C18 C17 1.382 . S
C18 C19 1.392 . S
C18 N20 1.420 . S
C19 H13 0.930 . S
C19 C15 1.410 . S
C19 C18 1.392 . S
N20 C18 1.420 . S
N20 C21 1.226 1_455 S
C21 N20 1.226 1_655 S
H22 C25 0.929 . S
H23 C28 0.929 . S
H24 C30 0.930 . S
C25 H22 0.929 . S
C25 C26 1.398 1_565 S
C25 C27 1.396 . S
C26 C25 1.398 1_545 S
C26 C30 1.408 . S
C27 C25 1.396 . S
C27 C28 1.394 1_565 S
C28 H23 0.929 . S
C28 C27 1.394 1_545 S
C28 C29 1.382 . S
C29 C28 1.382 . S
C29 C30 1.392 . S
C29 N31 1.420 . S
C30 H24 0.930 . S
C30 C26 1.408 . S
C30 C29 1.392 . S
N31 C29 1.420 . S
N31 C32 1.221 1_545 S
C32 N31 1.221 1_565 S
H33 C36 0.929 . S
H34 C39 0.929 . S
H35 C41 0.930 . S
C36 H33 0.929 . S
C36 C37 1.398 . S
C36 C38 1.396 . S
C37 C36 1.398 . S
C37 C41 1.407 . S
C38 C36 1.396 . S
C38 C39 1.394 . S
C39 H34 0.929 . S
C39 C38 1.394 . S
C39 C40 1.382 . S
C40 C39 1.382 . S
C40 C41 1.392 . S
C40 N42 1.420 . S
C41 H35 0.930 . S
C41 C37 1.407 . S
C41 C40 1.392 . S
N42 C40 1.420 . S
N42 C43 1.244 . S
C43 N42 1.244 . S
H44 C47 0.929 . S
H45 C50 0.929 . S
H46 C52 0.930 . S
C47 H44 0.929 . S
C47 C48 1.398 1_554 S
C47 C49 1.396 . S
C48 C47 1.398 1_556 S
C48 C52 1.407 . S
C49 C47 1.396 . S
C49 C50 1.394 . S
C50 H45 0.929 . S
C50 C49 1.394 . S
C50 C51 1.382 . S
C51 C50 1.382 . S
C51 C52 1.392 1_554 S
C51 N53 1.420 . S
C52 H46 0.930 . S
C52 C48 1.407 . S
C52 C51 1.392 1_556 S
N53 C51 1.420 . S
N53 C54 1.244 . S
C54 N53 1.244 . S
H55 C58 0.943 . S
H56 C61 0.929 . S
H57 C63 0.930 . S
C58 H55 0.943 . S
C58 C59 1.398 1_554 S
C58 C60 1.396 . S
C59 C58 1.398 1_556 S
C59 C63 1.407 . S
C60 C58 1.396 . S
C60 C61 1.394 . S
C61 H56 0.929 . S
C61 C60 1.394 . S
C61 C62 1.382 . S
C62 C61 1.382 . S
C62 C63 1.392 1_554 S
C62 N64 1.420 . S
C63 H57 0.930 . S
C63 C59 1.407 . S
C63 C62 1.392 1_556 S
N64 C62 1.420 . S
N64 C65 1.244 . S
C65 N64 1.244 . S
H66 C69 0.941 . S
H67 C72 0.929 . S
H68 C74 0.930 . S
C69 H66 0.941 . S
C69 C70 1.398 1_554 S
C69 C71 1.396 . S
C70 C69 1.398 1_556 S
C70 C74 1.407 . S
C71 C69 1.396 . S
C71 C72 1.394 . S
C72 H67 0.929 . S
C72 C71 1.394 . S
C72 C73 1.382 . S
C73 C72 1.382 . S
C73 C74 1.392 1_554 S
C73 N75 1.420 . S
C74 H68 0.930 . S
C74 C70 1.407 . S
C74 C73 1.392 1_556 S
N75 C73 1.420 . S
N75 C76 1.244 . S
C76 N75 1.244 . S
H77 C80 0.929 . S
H78 C83 0.929 . S
H79 C85 0.930 . S
C80 H77 0.929 . S
C80 C81 1.398 1_554 S
C80 C82 1.396 . S
C81 C80 1.398 1_556 S
C81 C85 1.407 . S
C82 C80 1.396 . S
C82 C83 1.394 . S
C83 H78 0.929 . S
C83 C82 1.394 . S
C83 C84 1.382 . S
C84 C83 1.382 . S
C84 C85 1.392 1_554 S
C84 N86 1.420 . S
C85 H79 0.930 . S
C85 C81 1.407 . S
C85 C84 1.392 1_556 S
N86 C84 1.420 . S
N86 C87 1.244 . S
C87 N86 1.244 . S
Ho88 C91 2.811 . S
Ho88 O108 2.322 . S
Ho88 O110 2.378 . S
Ho88 O111 2.548 . S
Ho88 O112 2.381 . S
Ho88 O113 2.669 1_565 S
Ho88 O115 2.346 1_565 S
Ho88 O119 2.305 1_455 S
Ho89 C100 2.811 . S
Ho89 O109 2.346 1_545 S
Ho89 O113 2.305 1_655 S
Ho89 O114 2.322 . S
Ho89 O116 2.378 . S
Ho89 O117 2.524 1_655 S
Ho89 O118 2.381 . S
Ho89 O119 2.669 1_545 S
C90 O108 1.259 1_655 S
C90 O109 1.268 . S
C91 Ho88 2.811 . S
C91 C92 1.488 . S
C91 O110 1.215 . S
C91 O111 1.342 . S
C92 C91 1.488 . S
C92 C93 1.348 . S
C92 C97 1.413 . S
C93 C92 1.348 . S
C93 C94 1.442 . S
C93 H120 0.930 1_455 S
C94 C93 1.442 . S
C94 C95 1.381 . S
C94 H121 0.931 1_455 S
C95 C94 1.381 . S
C95 C96 1.321 . S
C96 C95 1.321 . S
C96 C97 1.403 . S
C96 H122 0.934 . S
C97 C92 1.413 . S
C97 C96 1.403 . S
C97 H123 0.930 . S
C98 O112 1.275 1_545 S
C98 O113 1.256 . S
C99 O114 1.259 1_455 S
C99 O115 1.268 . S
C100 Ho89 2.811 . S
C100 C101 1.488 . S
C100 O116 1.215 . S
C100 O117 1.289 1_655 S
C101 C100 1.488 . S
C101 C102 1.323 1_655 S
C101 C106 1.413 . S
C102 C101 1.323 1_455 S
C102 C103 1.439 1_455 S
C102 H124 0.959 . S
C103 C102 1.439 1_655 S
C103 C104 1.381 . S
C103 H125 0.931 1_655 S
C104 C103 1.381 . S
C104 C105 1.321 . S
C105 C104 1.321 . S
C105 C106 1.403 . S
C105 H126 0.934 . S
C106 C101 1.413 . S
C106 C105 1.403 . S
C106 H127 0.930 . S
C107 O118 1.275 . S
C107 O119 1.256 1_545 S
O108 Ho88 2.322 . S
O108 C90 1.259 1_455 S
O109 Ho89 2.346 1_565 S
O109 C90 1.268 . S
O110 Ho88 2.378 . S
O110 C91 1.215 . S
O111 Ho88 2.548 . S
O111 C91 1.342 . S
O112 Ho88 2.381 . S
O112 C98 1.275 1_565 S
O113 Ho88 2.669 1_545 S
O113 Ho89 2.305 1_455 S
O113 C98 1.256 . S
O114 Ho89 2.322 . S
O114 C99 1.259 1_655 S
O115 Ho88 2.346 1_545 S
O115 C99 1.268 . S
O116 Ho89 2.378 . S
O116 C100 1.215 . S
O117 Ho89 2.524 1_455 S
O117 C100 1.289 1_455 S
O118 Ho89 2.381 . S
O118 C107 1.275 . S
O119 Ho88 2.305 1_655 S
O119 Ho89 2.669 1_565 S
O119 C107 1.256 1_565 S
H120 C93 0.930 1_655 S
H121 C94 0.931 1_655 S
H122 C96 0.934 . S
H123 C97 0.930 . S
H124 C102 0.959 . S
H125 C103 0.931 1_455 S
H126 C105 0.934 . S
H127 C106 0.930 . S
Ho128 C131 2.811 . S
Ho128 O148 2.322 . S
Ho128 O150 2.378 . S
Ho128 O151 2.544 . S
Ho128 O152 2.381 . S
Ho128 O153 2.669 . S
Ho128 O155 2.346 . S
Ho128 O159 2.305 1_545 S
Ho129 C140 2.811 . S
Ho129 O149 2.346 . S
Ho129 O153 2.305 1_565 S
Ho129 O154 2.322 . S
Ho129 O156 2.378 . S
Ho129 O157 2.524 1_565 S
Ho129 O158 2.381 . S
Ho129 O159 2.669 . S
C130 O148 1.259 1_565 S
C130 O149 1.268 . S
C131 Ho128 2.811 . S
C131 C132 1.488 . S
C131 O150 1.215 . S
C131 O151 1.334 . S
C132 C131 1.488 . S
C132 C133 1.348 . S
C132 C137 1.413 . S
C133 C132 1.348 . S
C133 C134 1.442 . S
C133 H160 0.930 1_545 S
C134 C133 1.442 . S
C134 C135 1.381 . S
C134 H161 0.931 1_545 S
C135 C134 1.381 . S
C135 C136 1.321 . S
C136 C135 1.321 . S
C136 C137 1.403 . S
C136 H162 0.934 . S
C137 C132 1.413 . S
C137 C136 1.403 . S
C137 H163 0.930 . S
C138 O152 1.275 . S
C138 O153 1.256 . S
C139 O154 1.259 1_545 S
C139 O155 1.268 . S
C140 Ho129 2.811 . S
C140 C141 1.488 . S
C140 O156 1.215 . S
C140 O157 1.289 1_565 S
C141 C140 1.488 . S
C141 C142 1.330 1_565 S
C141 C146 1.413 . S
C142 C141 1.330 1_545 S
C142 C143 1.439 1_545 S
C142 H164 0.951 . S
C143 C142 1.439 1_565 S
C143 C144 1.381 . S
C143 H165 0.931 1_565 S
C144 C143 1.381 . S
C144 C145 1.321 . S
C145 C144 1.321 . S
C145 C146 1.403 . S
C145 H166 0.934 . S
C146 C141 1.413 . S
C146 C145 1.403 . S
C146 H167 0.930 . S
C147 O158 1.275 . S
C147 O159 1.256 . S
O148 Ho128 2.322 . S
O148 C130 1.259 1_545 S
O149 Ho129 2.346 . S
O149 C130 1.268 . S
O150 Ho128 2.378 . S
O150 C131 1.215 . S
O151 Ho128 2.544 . S
O151 C131 1.334 . S
O152 Ho128 2.381 . S
O152 C138 1.275 . S
O153 Ho128 2.669 . S
O153 Ho129 2.305 1_545 S
O153 C138 1.256 . S
O154 Ho129 2.322 . S
O154 C139 1.259 1_565 S
O155 Ho128 2.346 . S
O155 C139 1.268 . S
O156 Ho129 2.378 . S
O156 C140 1.215 . S
O157 Ho129 2.524 1_545 S
O157 C140 1.289 1_545 S
O158 Ho129 2.381 . S
O158 C147 1.275 . S
O159 Ho128 2.305 1_565 S
O159 Ho129 2.669 . S
O159 C147 1.256 . S
H160 C133 0.930 1_565 S
H161 C134 0.931 1_565 S
H162 C136 0.934 . S
H163 C137 0.930 . S
H164 C142 0.951 . S
H165 C143 0.931 1_545 S
H166 C145 0.934 . S
H167 C146 0.930 . S
Ho168 C171 2.811 . S
Ho168 O188 2.322 . S
Ho168 O190 2.378 . S
Ho168 O191 2.524 . S
Ho168 O192 2.381 . S
Ho168 O193 2.669 . S
Ho168 O195 2.346 . S
Ho168 O199 2.305 . S
Ho169 C180 2.811 . S
Ho169 O189 2.346 . S
Ho169 O193 2.305 . S
Ho169 O194 2.322 . S
Ho169 O196 2.378 . S
Ho169 O197 2.524 . S
Ho169 O198 2.381 . S
Ho169 O199 2.669 . S
C170 O188 1.259 . S
C170 O189 1.268 . S
C171 Ho168 2.811 . S
C171 C172 1.488 . S
C171 O190 1.215 . S
C171 O191 1.289 . S
C172 C171 1.488 . S
C172 C173 1.348 . S
C172 C177 1.413 . S
C173 C172 1.348 . S
C173 C174 1.442 . S
C173 H200 0.930 . S
C174 C173 1.442 . S
C174 C175 1.381 . S
C174 H201 0.931 . S
C175 C174 1.381 . S
C175 C176 1.321 . S
C176 C175 1.321 . S
C176 C177 1.403 . S
C176 H202 0.934 . S
C177 C172 1.413 . S
C177 C176 1.403 . S
C177 H203 0.930 . S
C178 O192 1.275 . S
C178 O193 1.256 . S
C179 O194 1.259 . S
C179 O195 1.268 . S
C180 Ho169 2.811 . S
C180 C181 1.488 . S
C180 O196 1.215 . S
C180 O197 1.289 . S
C181 C180 1.488 . S
C181 C182 1.348 . S
C181 C186 1.413 . S
C182 C181 1.348 . S
C182 C183 1.442 . S
C182 H204 0.930 . S
C183 C182 1.442 . S
C183 C184 1.381 . S
C183 H205 0.931 . S
C184 C183 1.381 . S
C184 C185 1.321 . S
C185 C184 1.321 . S
C185 C186 1.403 . S
C185 H206 0.934 . S
C186 C181 1.413 . S
C186 C185 1.403 . S
C186 H207 0.930 . S
C187 O198 1.275 . S
C187 O199 1.256 . S
O188 Ho168 2.322 . S
O188 C170 1.259 . S
O189 Ho169 2.346 . S
O189 C170 1.268 . S
O190 Ho168 2.378 . S
O190 C171 1.215 . S
O191 Ho168 2.524 . S
O191 C171 1.289 . S
O192 Ho168 2.381 . S
O192 C178 1.275 . S
O193 Ho168 2.669 . S
O193 Ho169 2.305 . S
O193 C178 1.256 . S
O194 Ho169 2.322 . S
O194 C179 1.259 . S
O195 Ho168 2.346 . S
O195 C179 1.268 . S
O196 Ho169 2.378 . S
O196 C180 1.215 . S
O197 Ho169 2.524 . S
O197 C180 1.289 . S
O198 Ho169 2.381 . S
O198 C187 1.275 . S
O199 Ho168 2.305 . S
O199 Ho169 2.669 . S
O199 C187 1.256 . S
H200 C173 0.930 . S
H201 C174 0.931 . S
H202 C176 0.934 . S
H203 C177 0.930 . S
H204 C182 0.930 . S
H205 C183 0.931 . S
H206 C185 0.934 . S
H207 C186 0.930 . S
Ho208 C211 2.811 . S
Ho208 O228 2.322 . S
Ho208 O230 2.378 . S
Ho208 O231 2.524 . S
Ho208 O232 2.381 . S
Ho208 O233 2.669 1_655 S
Ho208 O235 2.346 1_655 S
Ho208 O239 2.305 . S
Ho209 C220 2.811 . S
Ho209 O229 2.346 1_455 S
Ho209 O233 2.305 . S
Ho209 O234 2.322 . S
Ho209 O236 2.378 . S
Ho209 O237 2.524 . S
Ho209 O238 2.381 . S
Ho209 O239 2.669 1_455 S
C210 O228 1.259 . S
C210 O229 1.268 . S
C211 Ho208 2.811 . S
C211 C212 1.488 . S
C211 O230 1.215 . S
C211 O231 1.289 . S
C212 C211 1.488 . S
C212 C213 1.348 . S
C212 C217 1.413 . S
C213 C212 1.348 . S
C213 C214 1.442 . S
C213 H240 0.930 . S
C214 C213 1.442 . S
C214 C215 1.381 . S
C214 H241 0.931 . S
C215 C214 1.381 . S
C215 C216 1.321 . S
C216 C215 1.321 . S
C216 C217 1.403 . S
C216 H242 0.934 . S
C217 C212 1.413 . S
C217 C216 1.403 . S
C217 H243 0.930 . S
C218 O232 1.275 1_455 S
C218 O233 1.256 . S
C219 O234 1.259 . S
C219 O235 1.268 . S
C220 Ho209 2.811 . S
C220 C221 1.488 . S
C220 O236 1.215 . S
C220 O237 1.289 . S
C221 C220 1.488 . S
C221 C222 1.348 . S
C221 C226 1.413 . S
C222 C221 1.348 . S
C222 C223 1.442 . S
C222 H244 0.930 . S
C223 C222 1.442 . S
C223 C224 1.381 . S
C223 H245 0.931 . S
C224 C223 1.381 . S
C224 C225 1.321 . S
C225 C224 1.321 . S
C225 C226 1.403 . S
C225 H246 0.934 . S
C226 C221 1.413 . S
C226 C225 1.403 . S
C226 H247 0.930 . S
C227 O238 1.275 . S
C227 O239 1.256 1_455 S
O228 Ho208 2.322 . S
O228 C210 1.259 . S
O229 Ho209 2.346 1_655 S
O229 C210 1.268 . S
O230 Ho208 2.378 . S
O230 C211 1.215 . S
O231 Ho208 2.524 . S
O231 C211 1.289 . S
O232 Ho208 2.381 . S
O232 C218 1.275 1_655 S
O233 Ho208 2.669 1_455 S
O233 Ho209 2.305 . S
O233 C218 1.256 . S
O234 Ho209 2.322 . S
O234 C219 1.259 . S
O235 Ho208 2.346 1_455 S
O235 C219 1.268 . S
O236 Ho209 2.378 . S
O236 C220 1.215 . S
O237 Ho209 2.524 . S
O237 C220 1.289 . S
O238 Ho209 2.381 . S
O238 C227 1.275 . S
O239 Ho208 2.305 . S
O239 Ho209 2.669 1_655 S
O239 C227 1.256 1_655 S
H240 C213 0.930 . S
H241 C214 0.931 . S
H242 C216 0.934 . S
H243 C217 0.930 . S
H244 C222 0.930 . S
H245 C223 0.931 . S
H246 C225 0.934 . S
H247 C226 0.930 . S
H248 C266 0.951 . S
H249 C268 0.951 . S
H250 C270 0.950 . S
H251 C271 0.950 . S
H252 C273 0.950 . S
H253 C276 0.950 . S
H254 C277 0.950 . S
H255 C279 0.950 . S
H256 C280 0.950 . S
H257 C281 0.951 . S
H258 C283 0.951 . S
H259 C285 0.950 . S
H260 C286 0.950 . S
H261 C288 0.950 . S
H262 C291 0.950 . S
H263 C292 0.950 . S
H264 C294 0.950 . S
H265 C295 0.950 . S
C266 H248 0.951 . S
C266 C267 1.366 . S
C266 C268 1.388 . S
C267 C266 1.366 . S
C267 C271 1.385 1_545 S
C268 H249 0.951 . S
C268 C266 1.388 . S
C268 C269 1.366 . S
C269 C268 1.366 . S
C269 C270 1.414 1_545 S
C269 C272 1.499 . S
C270 H250 0.950 . S
C270 C269 1.414 1_565 S
C270 C271 1.374 . S
C271 H251 0.950 . S
C271 C267 1.385 1_565 S
C271 C270 1.374 . S
C272 C269 1.499 . S
C272 C273 1.373 1_545 S
C272 C274 1.389 . S
C273 H252 0.950 . S
C273 C272 1.373 1_565 S
C273 C289 1.377 . S
C274 C272 1.389 . S
C274 C275 1.524 . S
C274 C288 1.377 . S
C275 C274 1.524 . S
C275 C276 1.397 . S
C275 C280 1.363 . S
C276 H253 0.950 . S
C276 C275 1.397 . S
C276 C277 1.334 . S
C277 H254 0.950 . S
C277 C276 1.334 . S
C277 C278 1.287 . S
C278 C277 1.287 . S
C278 C279 1.524 . S
C278 H297 0.913 . S
C279 H255 0.950 . S
C279 C278 1.524 . S
C279 C280 1.415 . S
C280 H256 0.950 . S
C280 C275 1.363 . S
C280 C279 1.415 . S
C281 H257 0.951 . S
C281 C282 1.366 1_565 S
C281 C283 1.388 . S
C282 C281 1.366 1_545 S
C282 C286 1.385 . S
C283 H258 0.951 . S
C283 C281 1.388 . S
C283 C284 1.366 1_565 S
C284 C283 1.366 1_545 S
C284 C285 1.414 . S
C284 C287 1.499 . S
C285 H259 0.950 . S
C285 C284 1.414 . S
C285 C286 1.374 . S
C286 H260 0.950 . S
C286 C282 1.385 . S
C286 C285 1.374 . S
C287 C284 1.499 . S
C287 C288 1.373 . S
C287 C289 1.389 1_545 S
C288 H261 0.950 . S
C288 C274 1.377 . S
C288 C287 1.373 . S
C289 C273 1.377 . S
C289 C287 1.389 1_565 S
C289 C290 1.524 . S
C290 C289 1.524 . S
C290 C291 1.397 . S
C290 C295 1.363 . S
C291 H262 0.950 . S
C291 C290 1.397 . S
C291 C292 1.334 . S
C292 H263 0.950 . S
C292 C291 1.334 . S
C292 C293 1.287 . S
C293 C292 1.287 . S
C293 C294 1.524 . S
C293 H296 0.999 . S
C294 H264 0.950 . S
C294 C293 1.524 . S
C294 C295 1.415 . S
C295 H265 0.950 . S
C295 C290 1.363 . S
C295 C294 1.415 . S
H296 C293 0.999 . S
H297 C278 0.913 . S
H298 C316 0.951 . S
H299 C318 0.951 . S
H300 C320 0.950 . S
H301 C321 0.950 . S
H302 C323 0.950 . S
H303 C326 0.950 . S
H304 C327 0.950 . S
H305 C329 0.950 . S
H306 C330 0.950 . S
H307 C331 0.951 . S
H308 C333 0.951 . S
H309 C335 0.950 . S
H310 C336 0.950 . S
H311 C338 0.950 . S
H312 C341 0.950 . S
H313 C342 0.950 . S
H314 C344 0.950 . S
H315 C345 0.950 . S
C316 H298 0.951 . S
C316 C317 1.366 . S
C316 C318 1.388 . S
C317 C316 1.366 . S
C317 C321 1.385 . S
C318 H299 0.951 . S
C318 C316 1.388 . S
C318 C319 1.366 . S
C319 C318 1.366 . S
C319 C320 1.414 . S
C319 C322 1.499 . S
C320 H300 0.950 . S
C320 C319 1.414 . S
C320 C321 1.374 . S
C321 H301 0.950 . S
C321 C317 1.385 . S
C321 C320 1.374 . S
C322 C319 1.499 . S
C322 C323 1.373 . S
C322 C324 1.389 . S
C323 H302 0.950 . S
C323 C322 1.373 . S
C323 C339 1.377 . S
C324 C322 1.389 . S
C324 C325 1.524 . S
C324 C338 1.377 . S
C325 C324 1.524 . S
C325 C326 1.397 . S
C325 C330 1.363 . S
C326 H303 0.950 . S
C326 C325 1.397 . S
C326 C327 1.334 . S
C327 H304 0.950 . S
C327 C326 1.334 . S
C327 C328 1.287 . S
C328 C327 1.287 . S
C328 C329 1.524 . S
C328 H347 0.913 . S
C329 H305 0.950 . S
C329 C328 1.524 . S
C329 C330 1.415 . S
C330 H306 0.950 . S
C330 C325 1.363 . S
C330 C329 1.415 . S
C331 H307 0.951 . S
C331 C332 1.366 . S
C331 C333 1.388 . S
C332 C331 1.366 . S
C332 C336 1.385 . S
C333 H308 0.951 . S
C333 C331 1.388 . S
C333 C334 1.366 . S
C334 C333 1.366 . S
C334 C335 1.414 . S
C334 C337 1.499 . S
C335 H309 0.950 . S
C335 C334 1.414 . S
C335 C336 1.374 . S
C336 H310 0.950 . S
C336 C332 1.385 . S
C336 C335 1.374 . S
C337 C334 1.499 . S
C337 C338 1.373 . S
C337 C339 1.389 . S
C338 H311 0.950 . S
C338 C324 1.377 . S
C338 C337 1.373 . S
C339 C323 1.377 . S
C339 C337 1.389 . S
C339 C340 1.524 . S
C340 C339 1.524 . S
C340 C341 1.397 . S
C340 C345 1.363 . S
C341 H312 0.950 . S
C341 C340 1.397 . S
C341 C342 1.334 . S
C342 H313 0.950 . S
C342 C341 1.334 . S
C342 C343 1.287 . S
C343 C342 1.287 . S
C343 C344 1.524 . S
C343 H346 0.999 . S
C344 H314 0.950 . S
C344 C343 1.524 . S
C344 C345 1.415 . S
C345 H315 0.950 . S
C345 C340 1.363 . S
C345 C344 1.415 . S
H346 C343 0.999 . S
H347 C328 0.913 . S
H348 C366 0.951 . S
H349 C368 0.951 . S
H350 C370 0.950 . S
H351 C371 0.950 . S
H352 C373 0.950 . S
H353 C376 0.950 . S
H354 C377 0.950 . S
H355 C379 0.950 . S
H356 C380 0.950 . S
H357 C381 0.951 . S
H358 C383 0.951 . S
H359 C385 0.950 . S
H360 C386 0.950 . S
H361 C388 0.950 . S
H362 C391 0.950 . S
H363 C392 0.950 . S
H364 C394 0.950 . S
H365 C395 0.950 . S
C366 H348 0.951 . S
C366 C367 1.366 . S
C366 C368 1.388 . S
C367 C366 1.366 . S
C367 C371 1.385 . S
C368 H349 0.951 . S
C368 C366 1.388 . S
C368 C369 1.366 . S
C369 C368 1.366 . S
C369 C370 1.414 . S
C369 C372 1.499 . S
C370 H350 0.950 . S
C370 C369 1.414 . S
C370 C371 1.374 . S
C371 H351 0.950 . S
C371 C367 1.385 . S
C371 C370 1.374 . S
C372 C369 1.499 . S
C372 C373 1.373 . S
C372 C374 1.389 . S
C373 H352 0.950 . S
C373 C372 1.373 . S
C373 C389 1.377 . S
C374 C372 1.389 . S
C374 C375 1.524 . S
C374 C388 1.377 . S
C375 C374 1.524 . S
C375 C376 1.397 . S
C375 C380 1.363 . S
C376 H353 0.950 . S
C376 C375 1.397 . S
C376 C377 1.334 . S
C377 H354 0.950 . S
C377 C376 1.334 . S
C377 C378 1.287 . S
C378 C377 1.287 . S
C378 C379 1.524 . S
C378 H397 0.913 . S
C379 H355 0.950 . S
C379 C378 1.524 . S
C379 C380 1.415 . S
C380 H356 0.950 . S
C380 C375 1.363 . S
C380 C379 1.415 . S
C381 H357 0.951 . S
C381 C382 1.366 . S
C381 C383 1.388 . S
C382 C381 1.366 . S
C382 C386 1.385 . S
C383 H358 0.951 . S
C383 C381 1.388 . S
C383 C384 1.366 . S
C384 C383 1.366 . S
C384 C385 1.414 . S
C384 C387 1.499 . S
C385 H359 0.950 . S
C385 C384 1.414 . S
C385 C386 1.374 . S
C386 H360 0.950 . S
C386 C382 1.385 . S
C386 C385 1.374 . S
C387 C384 1.499 . S
C387 C388 1.373 . S
C387 C389 1.389 . S
C388 H361 0.950 . S
C388 C374 1.377 . S
C388 C387 1.373 . S
C389 C373 1.377 . S
C389 C387 1.389 . S
C389 C390 1.524 . S
C390 C389 1.524 . S
C390 C391 1.397 . S
C390 C395 1.363 . S
C391 H362 0.950 . S
C391 C390 1.397 . S
C391 C392 1.334 . S
C392 H363 0.950 . S
C392 C391 1.334 . S
C392 C393 1.287 . S
C393 C392 1.287 . S
C393 C394 1.524 . S
C393 H396 0.999 . S
C394 H364 0.950 . S
C394 C393 1.524 . S
C394 C395 1.415 . S
C395 H365 0.950 . S
C395 C390 1.363 . S
C395 C394 1.415 . S
H396 C393 0.999 . S
H397 C378 0.913 . S
H398 C416 0.951 . S
H399 C418 0.951 . S
H400 C420 0.950 . S
H401 C421 0.950 . S
H402 C423 0.950 . S
H403 C426 0.950 . S
H404 C427 0.950 . S
H405 C429 0.950 . S
H406 C430 0.950 . S
H407 C431 0.951 . S
H408 C433 0.951 . S
H409 C435 0.950 . S
H410 C436 0.950 . S
H411 C438 0.950 . S
H412 C441 0.950 . S
H413 C442 0.950 . S
H414 C444 0.950 . S
H415 C445 0.950 . S
C416 H398 0.951 . S
C416 C417 1.366 1_655 S
C416 C418 1.388 . S
C417 C416 1.366 1_455 S
C417 C421 1.385 . S
C418 H399 0.951 . S
C418 C416 1.388 . S
C418 C419 1.366 1_655 S
C419 C418 1.366 1_455 S
C419 C420 1.414 . S
C419 C422 1.499 . S
C420 H400 0.950 . S
C420 C419 1.414 . S
C420 C421 1.374 . S
C421 H401 0.950 . S
C421 C417 1.385 . S
C421 C420 1.374 . S
C422 C419 1.499 . S
C422 C423 1.373 . S
C422 C424 1.389 1_455 S
C423 H402 0.950 . S
C423 C422 1.373 . S
C423 C439 1.377 . S
C424 C422 1.389 1_655 S
C424 C425 1.524 . S
C424 C438 1.377 . S
C425 C424 1.524 . S
C425 C426 1.397 . S
C425 C430 1.363 . S
C426 H403 0.950 . S
C426 C425 1.397 . S
C426 C427 1.334 . S
C427 H404 0.950 . S
C427 C426 1.334 . S
C427 C428 1.287 . S
C428 C427 1.287 . S
C428 C429 1.524 . S
C428 H447 0.913 . S
C429 H405 0.950 . S
C429 C428 1.524 . S
C429 C430 1.415 . S
C430 H406 0.950 . S
C430 C425 1.363 . S
C430 C429 1.415 . S
C431 H407 0.951 . S
C431 C432 1.366 . S
C431 C433 1.388 . S
C432 C431 1.366 . S
C432 C436 1.385 1_455 S
C433 H408 0.951 . S
C433 C431 1.388 . S
C433 C434 1.366 . S
C434 C433 1.366 . S
C434 C435 1.414 1_455 S
C434 C437 1.499 . S
C435 H409 0.950 . S
C435 C434 1.414 1_655 S
C435 C436 1.374 . S
C436 H410 0.950 . S
C436 C432 1.385 1_655 S
C436 C435 1.374 . S
C437 C434 1.499 . S
C437 C438 1.373 1_455 S
C437 C439 1.389 . S
C438 H411 0.950 . S
C438 C424 1.377 . S
C438 C437 1.373 1_655 S
C439 C423 1.377 . S
C439 C437 1.389 . S
C439 C440 1.524 . S
C440 C439 1.524 . S
C440 C441 1.397 . S
C440 C445 1.363 . S
C441 H412 0.950 . S
C441 C440 1.397 . S
C441 C442 1.334 . S
C442 H413 0.950 . S
C442 C441 1.334 . S
C442 C443 1.287 . S
C443 C442 1.287 . S
C443 C444 1.524 . S
C443 H446 0.999 . S
C444 H414 0.950 . S
C444 C443 1.524 . S
C444 C445 1.415 . S
C445 H415 0.950 . S
C445 C440 1.363 . S
C445 C444 1.415 . S
H446 C443 0.999 . S
H447 C428 0.913 . S
H448 C466 0.956 . S
H449 C468 0.951 . S
H450 C470 0.956 . S
H451 C471 0.950 . S
H452 C473 0.950 . S
H453 C476 0.950 . S
H454 C477 0.950 . S
H455 C479 0.950 . S
H456 C480 0.950 . S
H457 C481 0.954 . S
H458 C483 0.951 . S
H459 C485 0.950 1_554 S
H460 C486 0.950 . S
H461 C488 0.950 . S
H462 C491 0.950 . S
H463 C492 0.950 . S
H464 C494 0.950 . S
H465 C495 0.950 . S
C466 H448 0.956 . S
C466 C467 1.362 1_545 S
C466 C468 1.391 . S
C467 C466 1.362 1_565 S
C467 C471 1.386 . S
C468 H449 0.951 . S
C468 C466 1.391 . S
C468 C469 1.369 . S
C469 C468 1.369 . S
C469 C470 1.408 1_545 S
C469 C472 1.500 . S
C470 H450 0.956 . S
C470 C469 1.408 1_565 S
C470 C471 1.376 . S
C471 H451 0.950 . S
C471 C467 1.386 . S
C471 C470 1.376 . S
C472 C469 1.500 . S
C472 C473 1.373 1_545 S
C472 C474 1.389 . S
C473 H452 0.950 . S
C473 C472 1.373 1_565 S
C473 C489 1.377 1_554 S
C474 C472 1.389 . S
C474 C475 1.524 . S
C474 C488 1.377 . S
C475 C474 1.524 . S
C475 C476 1.397 . S
C475 C480 1.363 . S
C476 H453 0.950 . S
C476 C475 1.397 . S
C476 C477 1.334 . S
C477 H454 0.950 . S
C477 C476 1.334 . S
C477 C478 1.287 . S
C478 C477 1.287 . S
C478 C479 1.524 . S
C478 H497 0.913 . S
C479 H455 0.950 . S
C479 C478 1.524 . S
C479 C480 1.415 . S
C480 H456 0.950 . S
C480 C475 1.363 . S
C480 C479 1.415 . S
C481 H457 0.954 . S
C481 C482 1.362 1_565 S
C481 C483 1.390 . S
C482 C481 1.362 1_545 S
C482 C486 1.387 . S
C483 H458 0.951 . S
C483 C481 1.390 . S
C483 C484 1.368 . S
C484 C483 1.368 . S
C484 C485 1.411 1_565 S
C484 C487 1.499 . S
C485 H459 0.950 1_556 S
C485 C484 1.411 1_545 S
C485 C486 1.374 . S
C486 H460 0.950 . S
C486 C482 1.387 . S
C486 C485 1.374 . S
C487 C484 1.499 . S
C487 C488 1.337 1_566 S
C487 C489 1.424 . S
C488 H461 0.950 . S
C488 C474 1.377 . S
C488 C487 1.337 1_544 S
C489 C473 1.377 1_556 S
C489 C487 1.424 . S
C489 C490 1.524 . S
C490 C489 1.524 . S
C490 C491 1.397 . S
C490 C495 1.363 . S
C491 H462 0.950 . S
C491 C490 1.397 . S
C491 C492 1.334 . S
C492 H463 0.950 . S
C492 C491 1.334 . S
C492 C493 1.287 . S
C493 C492 1.287 . S
C493 C494 1.524 . S
C493 H496 0.999 . S
C494 H464 0.950 . S
C494 C493 1.524 . S
C494 C495 1.415 . S
C495 H465 0.950 . S
C495 C490 1.363 . S
C495 C494 1.415 . S
H496 C493 0.999 . S
H497 C478 0.913 . S
H498 C516 0.951 . S
H499 C518 0.951 . S
H500 C520 0.950 . S
H501 C521 0.950 . S
H502 C523 0.950 . S
H503 C526 0.950 . S
H504 C527 0.950 . S
H505 C529 0.950 . S
H506 C530 0.950 . S
H507 C531 0.951 . S
H508 C533 0.951 1_554 S
H509 C535 0.950 . S
H510 C536 0.950 . S
H511 C538 0.950 . S
H512 C541 0.950 . S
H513 C542 0.950 . S
H514 C544 0.950 . S
H515 C545 0.950 . S
C516 H498 0.951 . S
C516 C517 1.366 . S
C516 C518 1.388 . S
C517 C516 1.366 . S
C517 C521 1.385 . S
C518 H499 0.951 . S
C518 C516 1.388 . S
C518 C519 1.366 . S
C519 C518 1.366 . S
C519 C520 1.414 . S
C519 C522 1.499 . S
C520 H500 0.950 . S
C520 C519 1.414 . S
C520 C521 1.374 . S
C521 H501 0.950 . S
C521 C517 1.385 . S
C521 C520 1.374 . S
C522 C519 1.499 . S
C522 C523 1.373 . S
C522 C524 1.389 . S
C523 H502 0.950 . S
C523 C522 1.373 . S
C523 C539 1.377 . S
C524 C522 1.389 . S
C524 C525 1.524 . S
C524 C538 1.377 1_554 S
C525 C524 1.524 . S
C525 C526 1.397 . S
C525 C530 1.363 1_554 S
C526 H503 0.950 . S
C526 C525 1.397 . S
C526 C527 1.334 . S
C527 H504 0.950 . S
C527 C526 1.334 . S
C527 C528 1.287 1_554 S
C528 C527 1.287 1_556 S
C528 C529 1.524 . S
C528 H547 0.913 . S
C529 H505 0.950 . S
C529 C528 1.524 . S
C529 C530 1.415 . S
C530 H506 0.950 . S
C530 C525 1.363 1_556 S
C530 C529 1.415 . S
C531 H507 0.951 . S
C531 C532 1.366 . S
C531 C533 1.388 . S
C532 C531 1.366 . S
C532 C536 1.385 . S
C533 H508 0.951 1_556 S
C533 C531 1.388 . S
C533 C534 1.366 . S
C534 C533 1.366 . S
C534 C535 1.414 . S
C534 C537 1.499 . S
C535 H509 0.950 . S
C535 C534 1.414 . S
C535 C536 1.374 . S
C536 H510 0.950 . S
C536 C532 1.385 . S
C536 C535 1.374 . S
C537 C534 1.499 . S
C537 C538 1.373 . S
C537 C539 1.389 1_556 S
C538 H511 0.950 . S
C538 C524 1.377 1_556 S
C538 C537 1.373 . S
C539 C523 1.377 . S
C539 C537 1.389 1_554 S
C539 C540 1.524 . S
C540 C539 1.524 . S
C540 C541 1.397 . S
C540 C545 1.363 . S
C541 H512 0.950 . S
C541 C540 1.397 . S
C541 C542 1.334 . S
C542 H513 0.950 . S
C542 C541 1.334 . S
C542 C543 1.287 . S
C543 C542 1.287 . S
C543 C544 1.524 . S
C543 H546 0.999 . S
C544 H514 0.950 . S
C544 C543 1.524 . S
C544 C545 1.415 . S
C545 H515 0.950 . S
C545 C540 1.363 . S
C545 C544 1.415 . S
H546 C543 0.999 . S
H547 C528 0.913 . S
H548 C566 0.951 . S
H549 C568 0.951 . S
H550 C570 0.950 . S
H551 C571 0.950 . S
H552 C573 0.950 . S
H553 C576 0.950 . S
H554 C577 0.950 . S
H555 C579 0.950 . S
H556 C580 0.950 . S
H557 C581 0.951 . S
H558 C583 0.951 1_554 S
H559 C585 0.950 . S
H560 C586 0.950 . S
H561 C588 0.950 . S
H562 C591 0.950 1_556 S
H563 C592 0.950 1_556 S
H564 C594 0.950 . S
H565 C595 0.950 . S
C566 H548 0.951 . S
C566 C567 1.366 . S
C566 C568 1.388 . S
C567 C566 1.366 . S
C567 C571 1.385 . S
C568 H549 0.951 . S
C568 C566 1.388 . S
C568 C569 1.366 . S
C569 C568 1.366 . S
C569 C570 1.414 . S
C569 C572 1.499 . S
C570 H550 0.950 . S
C570 C569 1.414 . S
C570 C571 1.374 . S
C571 H551 0.950 . S
C571 C567 1.385 . S
C571 C570 1.374 . S
C572 C569 1.499 . S
C572 C573 1.373 . S
C572 C574 1.389 . S
C573 H552 0.950 . S
C573 C572 1.373 . S
C573 C589 1.377 . S
C574 C572 1.389 . S
C574 C575 1.524 . S
C574 C588 1.377 1_554 S
C575 C574 1.524 . S
C575 C576 1.397 . S
C575 C580 1.363 1_554 S
C576 H553 0.950 . S
C576 C575 1.397 . S
C576 C577 1.334 . S
C577 H554 0.950 . S
C577 C576 1.334 . S
C577 C578 1.287 . S
C578 C577 1.287 . S
C578 C579 1.524 1_554 S
C578 H597 0.913 . S
C579 H555 0.950 . S
C579 C578 1.524 1_556 S
C579 C580 1.415 . S
C580 H556 0.950 . S
C580 C575 1.363 1_556 S
C580 C579 1.415 . S
C581 H557 0.951 . S
C581 C582 1.366 . S
C581 C583 1.388 . S
C582 C581 1.366 . S
C582 C586 1.385 . S
C583 H558 0.951 1_556 S
C583 C581 1.388 . S
C583 C584 1.366 . S
C584 C583 1.366 . S
C584 C585 1.414 . S
C584 C587 1.499 . S
C585 H559 0.950 . S
C585 C584 1.414 . S
C585 C586 1.374 . S
C586 H560 0.950 . S
C586 C582 1.385 . S
C586 C585 1.374 . S
C587 C584 1.499 . S
C587 C588 1.373 . S
C587 C589 1.389 1_556 S
C588 H561 0.950 . S
C588 C574 1.377 1_556 S
C588 C587 1.373 . S
C589 C573 1.377 . S
C589 C587 1.389 1_554 S
C589 C590 1.524 . S
C590 C589 1.524 . S
C590 C591 1.397 . S
C590 C595 1.363 . S
C591 H562 0.950 1_554 S
C591 C590 1.397 . S
C591 C592 1.334 . S
C592 H563 0.950 1_554 S
C592 C591 1.334 . S
C592 C593 1.287 . S
C593 C592 1.287 . S
C593 C594 1.524 . S
C593 H596 0.999 . S
C594 H564 0.950 . S
C594 C593 1.524 . S
C594 C595 1.415 . S
C595 H565 0.950 . S
C595 C590 1.363 . S
C595 C594 1.415 . S
H596 C593 0.999 . S
H597 C578 0.913 . S
H598 C616 0.951 . S
H599 C618 0.951 . S
H600 C620 0.950 . S
H601 C621 0.950 . S
H602 C623 0.950 . S
H603 C626 0.950 1_455 S
H604 C627 0.950 . S
H605 C629 0.950 . S
H606 C630 0.950 . S
H607 C631 0.951 . S
H608 C633 0.951 . S
H609 C635 0.950 . S
H610 C636 0.950 . S
H611 C638 0.950 . S
H612 C641 0.950 1_655 S
H613 C642 0.950 . S
H614 C644 0.950 . S
H615 C645 0.950 . S
C616 H598 0.951 . S
C616 C617 1.371 . S
C616 C618 1.388 . S
C617 C616 1.371 . S
C617 C621 1.379 1_655 S
C618 H599 0.951 . S
C618 C616 1.388 . S
C618 C619 1.359 1_655 S
C619 C618 1.359 1_455 S
C619 C620 1.421 . S
C619 C622 1.498 . S
C620 H600 0.950 . S
C620 C619 1.421 . S
C620 C621 1.374 . S
C621 H601 0.950 . S
C621 C617 1.379 1_455 S
C621 C620 1.374 . S
C622 C619 1.498 . S
C622 C623 1.401 . S
C622 C624 1.362 1_455 S
C623 H602 0.950 . S
C623 C622 1.401 . S
C623 C639 1.377 1_554 S
C624 C622 1.362 1_655 S
C624 C625 1.524 . S
C624 C638 1.377 . S
C625 C624 1.524 . S
C625 C626 1.397 . S
C625 C630 1.363 . S
C626 H603 0.950 1_655 S
C626 C625 1.397 . S
C626 C627 1.334 . S
C627 H604 0.950 . S
C627 C626 1.334 . S
C627 C628 1.287 . S
C628 C627 1.287 . S
C628 C629 1.524 . S
C628 H647 0.913 . S
C629 H605 0.950 . S
C629 C628 1.524 . S
C629 C630 1.415 . S
C630 H606 0.950 . S
C630 C625 1.363 . S
C630 C629 1.415 . S
C631 H607 0.951 . S
C631 C632 1.403 . S
C631 C633 1.388 . S
C632 C631 1.403 . S
C632 C636 1.347 1_455 S
C633 H608 0.951 . S
C633 C631 1.388 . S
C633 C634 1.378 . S
C634 C633 1.378 . S
C634 C635 1.401 1_455 S
C634 C637 1.498 1_455 S
C635 H609 0.950 . S
C635 C634 1.401 1_655 S
C635 C636 1.374 . S
C636 H610 0.950 . S
C636 C632 1.347 1_655 S
C636 C635 1.374 . S
C637 C634 1.498 1_655 S
C637 C638 1.383 1_556 S
C637 C639 1.379 1_655 S
C638 H611 0.950 . S
C638 C624 1.377 . S
C638 C637 1.383 1_554 S
C639 C623 1.377 1_556 S
C639 C637 1.379 1_455 S
C639 C640 1.524 . S
C640 C639 1.524 . S
C640 C641 1.397 . S
C640 C645 1.363 . S
C641 H612 0.950 1_455 S
C641 C640 1.397 . S
C641 C642 1.334 . S
C642 H613 0.950 . S
C642 C641 1.334 . S
C642 C643 1.287 . S
C643 C642 1.287 . S
C643 C644 1.524 . S
C643 H646 0.999 . S
C644 H614 0.950 . S
C644 C643 1.524 . S
C644 C645 1.415 . S
C645 H615 0.950 . S
C645 C640 1.363 . S
C645 C644 1.415 . S
H646 C643 0.999 . S
H647 C628 0.913 . S
H648 C666 0.951 . S
H649 C668 0.951 . S
H650 C670 0.950 . S
H651 C671 0.950 . S
H652 C673 0.950 . S
H653 C676 0.950 . S
H654 C677 0.950 . S
H655 C679 0.950 . S
H656 C680 0.950 . S
H657 C681 0.951 1_455 S
H658 C683 0.951 1_455 S
H659 C685 0.950 . S
H660 C686 0.950 . S
H661 C688 0.950 . S
H662 C691 0.950 . S
H663 C692 0.950 . S
H664 C694 0.950 . S
H665 C695 0.950 . S
C666 H648 0.951 . S
C666 C667 1.366 1_655 S
C666 C668 1.388 . S
C667 C666 1.366 1_455 S
C667 C671 1.385 . S
C668 H649 0.951 . S
C668 C666 1.388 . S
C668 C669 1.366 . S
C669 C668 1.366 . S
C669 C670 1.414 1_655 S
C669 C672 1.499 . S
C670 H650 0.950 . S
C670 C669 1.414 1_455 S
C670 C671 1.374 . S
C671 H651 0.950 . S
C671 C667 1.385 . S
C671 C670 1.374 . S
C672 C669 1.499 . S
C672 C673 1.373 1_655 S
C672 C674 1.389 . S
C673 H652 0.950 . S
C673 C672 1.373 1_455 S
C673 C689 1.377 . S
C674 C672 1.389 . S
C674 C675 1.524 . S
C674 C688 1.377 . S
C675 C674 1.524 . S
C675 C676 1.397 . S
C675 C680 1.363 . S
C676 H653 0.950 . S
C676 C675 1.397 . S
C676 C677 1.334 . S
C677 H654 0.950 . S
C677 C676 1.334 . S
C677 C678 1.287 . S
C678 C677 1.287 . S
C678 C679 1.524 . S
C678 H697 0.913 . S
C679 H655 0.950 . S
C679 C678 1.524 . S
C679 C680 1.415 . S
C680 H656 0.950 . S
C680 C675 1.363 . S
C680 C679 1.415 . S
C681 H657 0.951 1_655 S
C681 C682 1.366 . S
C681 C683 1.388 . S
C682 C681 1.366 . S
C682 C686 1.385 . S
C683 H658 0.951 1_655 S
C683 C681 1.388 . S
C683 C684 1.366 . S
C684 C683 1.366 . S
C684 C685 1.414 . S
C684 C687 1.499 . S
C685 H659 0.950 . S
C685 C684 1.414 . S
C685 C686 1.374 . S
C686 H660 0.950 . S
C686 C682 1.385 . S
C686 C685 1.374 . S
C687 C684 1.499 . S
C687 C688 1.373 . S
C687 C689 1.389 1_655 S
C688 H661 0.950 . S
C688 C674 1.377 . S
C688 C687 1.373 . S
C689 C673 1.377 . S
C689 C687 1.389 1_455 S
C689 C690 1.524 . S
C690 C689 1.524 . S
C690 C691 1.397 . S
C690 C695 1.363 . S
C691 H662 0.950 . S
C691 C690 1.397 . S
C691 C692 1.334 . S
C692 H663 0.950 . S
C692 C691 1.334 . S
C692 C693 1.287 . S
C693 C692 1.287 . S
C693 C694 1.524 . S
C693 H696 0.999 . S
C694 H664 0.950 . S
C694 C693 1.524 . S
C694 C695 1.415 . S
C695 H665 0.950 . S
C695 C690 1.363 . S
C695 C694 1.415 . S
H696 C693 0.999 . S
H697 C678 0.913 . S
H698 C716 0.951 . S
H699 C718 0.951 . S
H700 C720 0.950 . S
H701 C721 0.946 1_565 S
H702 C723 0.950 . S
H703 C726 0.950 . S
H704 C727 0.950 . S
H705 C729 0.950 . S
H706 C730 0.950 . S
H707 C731 0.951 . S
H708 C733 0.951 . S
H709 C735 0.950 . S
H710 C736 0.950 . S
H711 C738 0.950 . S
H712 C741 0.950 . S
H713 C742 0.950 . S
H714 C744 0.950 . S
H715 C745 0.950 . S
C716 H698 0.951 . S
C716 C717 1.366 . S
C716 C718 1.388 . S
C717 C716 1.366 . S
C717 C721 1.398 . S
C718 H699 0.951 . S
C718 C716 1.388 . S
C718 C719 1.366 1_545 S
C719 C718 1.366 1_565 S
C719 C720 1.414 . S
C719 C722 1.498 . S
C720 H700 0.950 . S
C720 C719 1.414 . S
C720 C721 1.367 1_565 S
C721 H701 0.946 1_545 S
C721 C717 1.398 . S
C721 C720 1.367 1_545 S
C722 C719 1.498 . S
C722 C723 1.373 . S
C722 C724 1.389 1_565 S
C723 H702 0.950 . S
C723 C722 1.373 . S
C723 C739 1.377 . S
C724 C722 1.389 1_545 S
C724 C725 1.524 . S
C724 C738 1.377 . S
C725 C724 1.524 . S
C725 C726 1.397 . S
C725 C730 1.363 . S
C726 H703 0.950 . S
C726 C725 1.397 . S
C726 C727 1.334 . S
C727 H704 0.950 . S
C727 C726 1.334 . S
C727 C728 1.287 . S
C728 C727 1.287 . S
C728 C729 1.524 . S
C728 H747 0.913 . S
C729 H705 0.950 . S
C729 C728 1.524 . S
C729 C730 1.415 . S
C730 H706 0.950 . S
C730 C725 1.363 . S
C730 C729 1.415 . S
C731 H707 0.951 . S
C731 C732 1.366 . S
C731 C733 1.388 . S
C732 C731 1.366 . S
C732 C736 1.385 . S
C733 H708 0.951 . S
C733 C731 1.388 . S
C733 C734 1.366 . S
C734 C733 1.366 . S
C734 C735 1.414 . S
C734 C737 1.499 . S
C735 H709 0.950 . S
C735 C734 1.414 . S
C735 C736 1.374 . S
C736 H710 0.950 . S
C736 C732 1.385 . S
C736 C735 1.374 . S
C737 C734 1.499 . S
C737 C738 1.373 1_565 S
C737 C739 1.389 . S
C738 H711 0.950 . S
C738 C724 1.377 . S
C738 C737 1.373 1_545 S
C739 C723 1.377 . S
C739 C737 1.389 . S
C739 C740 1.524 . S
C740 C739 1.524 . S
C740 C741 1.397 . S
C740 C745 1.363 . S
C741 H712 0.950 . S
C741 C740 1.397 . S
C741 C742 1.334 . S
C742 H713 0.950 . S
C742 C741 1.334 . S
C742 C743 1.287 . S
C743 C742 1.287 . S
C743 C744 1.524 . S
C743 H746 0.999 . S
C744 H714 0.950 . S
C744 C743 1.524 . S
C744 C745 1.415 . S
C745 H715 0.950 . S
C745 C740 1.363 . S
C745 C744 1.415 . S
H746 C743 0.999 . S
H747 C728 0.913 . S
H748 C766 0.951 . S
H749 C768 0.951 . S
H750 C770 0.950 . S
H751 C771 0.950 . S
H752 C773 0.950 . S
H753 C776 0.950 . S
H754 C777 0.950 . S
H755 C779 0.950 . S
H756 C780 0.950 . S
H757 C781 0.951 . S
H758 C783 0.951 . S
H759 C785 0.950 . S
H760 C786 0.950 . S
H761 C788 0.950 . S
H762 C791 0.950 . S
H763 C792 0.950 . S
H764 C794 0.950 . S
H765 C795 0.950 . S
C766 H748 0.951 . S
C766 C767 1.366 . S
C766 C768 1.388 . S
C767 C766 1.366 . S
C767 C771 1.385 . S
C768 H749 0.951 . S
C768 C766 1.388 . S
C768 C769 1.366 . S
C769 C768 1.366 . S
C769 C770 1.414 . S
C769 C772 1.499 . S
C770 H750 0.950 . S
C770 C769 1.414 . S
C770 C771 1.374 . S
C771 H751 0.950 . S
C771 C767 1.385 . S
C771 C770 1.374 . S
C772 C769 1.499 . S
C772 C773 1.373 . S
C772 C774 1.389 . S
C773 H752 0.950 . S
C773 C772 1.373 . S
C773 C789 1.377 . S
C774 C772 1.389 . S
C774 C775 1.524 . S
C774 C788 1.377 . S
C775 C774 1.524 . S
C775 C776 1.397 . S
C775 C780 1.363 . S
C776 H753 0.950 . S
C776 C775 1.397 . S
C776 C777 1.334 . S
C777 H754 0.950 . S
C777 C776 1.334 . S
C777 C778 1.287 . S
C778 C777 1.287 . S
C778 C779 1.524 . S
C778 H797 0.913 . S
C779 H755 0.950 . S
C779 C778 1.524 . S
C779 C780 1.415 . S
C780 H756 0.950 . S
C780 C775 1.363 . S
C780 C779 1.415 . S
C781 H757 0.951 . S
C781 C782 1.366 . S
C781 C783 1.388 . S
C782 C781 1.366 . S
C782 C786 1.385 . S
C783 H758 0.951 . S
C783 C781 1.388 . S
C783 C784 1.366 . S
C784 C783 1.366 . S
C784 C785 1.414 . S
C784 C787 1.499 . S
C785 H759 0.950 . S
C785 C784 1.414 . S
C785 C786 1.374 . S
C786 H760 0.950 . S
C786 C782 1.385 . S
C786 C785 1.374 . S
C787 C784 1.499 . S
C787 C788 1.373 . S
C787 C789 1.389 . S
C788 H761 0.950 . S
C788 C774 1.377 . S
C788 C787 1.373 . S
C789 C773 1.377 . S
C789 C787 1.389 . S
C789 C790 1.524 . S
C790 C789 1.524 . S
C790 C791 1.397 . S
C790 C795 1.363 . S
C791 H762 0.950 . S
C791 C790 1.397 . S
C791 C792 1.334 . S
C792 H763 0.950 . S
C792 C791 1.334 . S
C792 C793 1.287 . S
C793 C792 1.287 . S
C793 C794 1.524 . S
C793 H796 0.999 . S
C794 H764 0.950 . S
C794 C793 1.524 . S
C794 C795 1.415 . S
C795 H765 0.950 . S
C795 C790 1.363 . S
C795 C794 1.415 . S
H796 C793 0.999 . S
H797 C778 0.913 . S
H798 C816 0.951 . S
H799 C818 0.951 . S
H800 C820 0.950 . S
H801 C821 0.950 . S
H802 C823 0.950 . S
H803 C826 0.950 . S
H804 C827 0.950 . S
H805 C829 0.950 . S
H806 C830 0.950 . S
H807 C831 0.951 . S
H808 C833 0.951 . S
H809 C835 0.950 . S
H810 C836 0.950 . S
H811 C838 0.950 . S
H812 C841 0.950 . S
H813 C842 0.950 . S
H814 C844 0.950 . S
H815 C845 0.950 . S
C816 H798 0.951 . S
C816 C817 1.366 . S
C816 C818 1.388 . S
C817 C816 1.366 . S
C817 C821 1.385 . S
C818 H799 0.951 . S
C818 C816 1.388 . S
C818 C819 1.366 . S
C819 C818 1.366 . S
C819 C820 1.414 . S
C819 C822 1.499 . S
C820 H800 0.950 . S
C820 C819 1.414 . S
C820 C821 1.374 . S
C821 H801 0.950 . S
C821 C817 1.385 . S
C821 C820 1.374 . S
C822 C819 1.499 . S
C822 C823 1.373 . S
C822 C824 1.389 . S
C823 H802 0.950 . S
C823 C822 1.373 . S
C823 C839 1.377 . S
C824 C822 1.389 . S
C824 C825 1.524 . S
C824 C838 1.377 . S
C825 C824 1.524 . S
C825 C826 1.397 . S
C825 C830 1.363 . S
C826 H803 0.950 . S
C826 C825 1.397 . S
C826 C827 1.334 . S
C827 H804 0.950 . S
C827 C826 1.334 . S
C827 C828 1.287 . S
C828 C827 1.287 . S
C828 C829 1.524 . S
C828 H847 0.913 . S
C829 H805 0.950 . S
C829 C828 1.524 . S
C829 C830 1.415 . S
C830 H806 0.950 . S
C830 C825 1.363 . S
C830 C829 1.415 . S
C831 H807 0.951 . S
C831 C832 1.366 . S
C831 C833 1.388 . S
C832 C831 1.366 . S
C832 C836 1.385 . S
C833 H808 0.951 . S
C833 C831 1.388 . S
C833 C834 1.366 . S
C834 C833 1.366 . S
C834 C835 1.414 . S
C834 C837 1.499 . S
C835 H809 0.950 . S
C835 C834 1.414 . S
C835 C836 1.374 . S
C836 H810 0.950 . S
C836 C832 1.385 . S
C836 C835 1.374 . S
C837 C834 1.499 . S
C837 C838 1.373 . S
C837 C839 1.389 . S
C838 H811 0.950 . S
C838 C824 1.377 . S
C838 C837 1.373 . S
C839 C823 1.377 . S
C839 C837 1.389 . S
C839 C840 1.524 . S
C840 C839 1.524 . S
C840 C841 1.397 . S
C840 C845 1.363 . S
C841 H812 0.950 . S
C841 C840 1.397 . S
C841 C842 1.334 . S
C842 H813 0.950 . S
C842 C841 1.334 . S
C842 C843 1.287 . S
C843 C842 1.287 . S
C843 C844 1.524 . S
C843 H846 0.999 . S
C844 H814 0.950 . S
C844 C843 1.524 . S
C844 C845 1.415 . S
C845 H815 0.950 . S
C845 C840 1.363 . S
C845 C844 1.415 . S
H846 C843 0.999 . S
H847 C828 0.913 . S
H848 C866 0.951 . S
H849 C868 0.951 . S
H850 C870 0.950 . S
H851 C871 0.950 . S
H852 C873 0.950 . S
H853 C876 0.950 . S
H854 C877 0.950 . S
H855 C879 0.950 . S
H856 C880 0.950 . S
H857 C881 0.951 . S
H858 C883 0.951 . S
H859 C885 0.950 . S
H860 C886 0.950 . S
H861 C888 0.950 . S
H862 C891 0.950 . S
H863 C892 0.950 . S
H864 C894 0.950 . S
H865 C895 0.950 . S
C866 H848 0.951 . S
C866 C867 1.366 . S
C866 C868 1.388 . S
C867 C866 1.366 . S
C867 C871 1.385 1_655 S
C868 H849 0.951 . S
C868 C866 1.388 . S
C868 C869 1.366 1_655 S
C869 C868 1.366 1_455 S
C869 C870 1.414 . S
C869 C872 1.499 . S
C870 H850 0.950 . S
C870 C869 1.414 . S
C870 C871 1.374 . S
C871 H851 0.950 . S
C871 C867 1.385 1_455 S
C871 C870 1.374 . S
C872 C869 1.499 . S
C872 C873 1.373 . S
C872 C874 1.389 1_455 S
C873 H852 0.950 . S
C873 C872 1.373 . S
C873 C889 1.377 . S
C874 C872 1.389 1_655 S
C874 C875 1.524 . S
C874 C888 1.377 . S
C875 C874 1.524 . S
C875 C876 1.397 . S
C875 C880 1.363 . S
C876 H853 0.950 . S
C876 C875 1.397 . S
C876 C877 1.334 . S
C877 H854 0.950 . S
C877 C876 1.334 . S
C877 C878 1.287 . S
C878 C877 1.287 . S
C878 C879 1.524 . S
C878 H897 0.913 . S
C879 H855 0.950 . S
C879 C878 1.524 . S
C879 C880 1.415 . S
C880 H856 0.950 . S
C880 C875 1.363 . S
C880 C879 1.415 . S
C881 H857 0.951 . S
C881 C882 1.366 . S
C881 C883 1.388 . S
C882 C881 1.366 . S
C882 C886 1.385 1_556 S
C883 H858 0.951 . S
C883 C881 1.388 . S
C883 C884 1.366 1_556 S
C884 C883 1.366 1_554 S
C884 C885 1.414 . S
C884 C887 1.499 . S
C885 H859 0.950 . S
C885 C884 1.414 . S
C885 C886 1.374 . S
C886 H860 0.950 . S
C886 C882 1.385 1_554 S
C886 C885 1.374 . S
C887 C884 1.499 . S
C887 C888 1.373 1_455 S
C887 C889 1.389 . S
C888 H861 0.950 . S
C888 C874 1.377 . S
C888 C887 1.373 1_655 S
C889 C873 1.377 . S
C889 C887 1.389 . S
C889 C890 1.524 . S
C890 C889 1.524 . S
C890 C891 1.397 . S
C890 C895 1.363 . S
C891 H862 0.950 . S
C891 C890 1.397 . S
C891 C892 1.334 . S
C892 H863 0.950 . S
C892 C891 1.334 . S
C892 C893 1.287 . S
C893 C892 1.287 . S
C893 C894 1.524 . S
C893 H896 0.999 . S
C894 H864 0.950 . S
C894 C893 1.524 . S
C894 C895 1.415 . S
C895 H865 0.950 . S
C895 C890 1.363 . S
C895 C894 1.415 . S
H896 C893 0.999 . S
H897 C878 0.913 . S
H898 C916 0.956 . S
H899 C918 0.951 . S
H900 C920 0.950 . S
H901 C921 0.952 . S
H902 C923 0.974 . S
H903 C926 0.950 . S
H904 C927 0.950 . S
H905 C929 0.940 1_556 S
H906 C930 0.950 1_556 S
H907 C931 0.951 . S
H908 C933 0.951 . S
H909 C935 0.950 . S
H910 C936 0.950 . S
H911 C938 0.950 . S
H912 C941 0.950 . S
H913 C942 0.950 . S
H914 C944 0.950 . S
H915 C945 0.950 . S
C916 H898 0.956 . S
C916 C917 1.368 . S
C916 C918 1.381 1_565 S
C917 C916 1.368 . S
C917 C921 1.385 1_565 S
C918 H899 0.951 . S
C918 C916 1.381 1_545 S
C918 C919 1.366 . S
C919 C918 1.366 . S
C919 C920 1.414 . S
C919 C922 1.499 . S
C920 H900 0.950 . S
C920 C919 1.414 . S
C920 C921 1.374 . S
C921 H901 0.952 . S
C921 C917 1.385 1_545 S
C921 C920 1.374 . S
C922 C919 1.499 . S
C922 C923 1.355 1_545 S
C922 C924 1.389 . S
C923 H902 0.974 . S
C923 C922 1.355 1_565 S
C923 C939 1.373 1_565 S
C924 C922 1.389 . S
C924 C925 1.524 . S
C924 C938 1.377 . S
C925 C924 1.524 . S
C925 C926 1.397 . S
C925 C930 1.363 . S
C926 H903 0.950 . S
C926 C925 1.397 . S
C926 C927 1.334 . S
C927 H904 0.950 . S
C927 C926 1.334 . S
C927 C928 1.287 . S
C928 C927 1.287 . S
C928 C929 1.533 . S
C928 H947 0.913 . S
C929 H905 0.940 1_554 S
C929 C928 1.533 . S
C929 C930 1.417 . S
C930 H906 0.950 1_554 S
C930 C925 1.363 . S
C930 C929 1.417 . S
C931 H907 0.951 . S
C931 C932 1.366 1_554 S
C931 C933 1.388 . S
C932 C931 1.366 1_556 S
C932 C936 1.385 . S
C933 H908 0.951 . S
C933 C931 1.388 . S
C933 C934 1.366 . S
C934 C933 1.366 . S
C934 C935 1.414 1_554 S
C934 C937 1.499 . S
C935 H909 0.950 . S
C935 C934 1.414 1_556 S
C935 C936 1.374 . S
C936 H910 0.950 . S
C936 C932 1.385 . S
C936 C935 1.374 . S
C937 C934 1.499 . S
C937 C938 1.373 . S
C937 C939 1.389 . S
C938 H911 0.950 . S
C938 C924 1.377 . S
C938 C937 1.373 . S
C939 C923 1.373 1_545 S
C939 C937 1.389 . S
C939 C940 1.524 1_545 S
C940 C939 1.524 1_565 S
C940 C941 1.397 . S
C940 C945 1.363 . S
C941 H912 0.950 . S
C941 C940 1.397 . S
C941 C942 1.334 . S
C942 H913 0.950 . S
C942 C941 1.334 . S
C942 C943 1.287 . S
C943 C942 1.287 . S
C943 C944 1.524 . S
C943 H946 0.999 . S
C944 H914 0.950 . S
C944 C943 1.524 . S
C944 C945 1.415 . S
C945 H915 0.950 . S
C945 C940 1.363 . S
C945 C944 1.415 . S
H946 C943 0.999 . S
H947 C928 0.913 . S
H948 C966 0.951 . S
H949 C968 0.951 . S
H950 C970 0.950 . S
H951 C971 0.950 . S
H952 C973 0.950 . S
H953 C976 0.950 . S
H954 C977 0.951 . S
H955 C979 0.950 . S
H956 C980 0.950 . S
H957 C981 0.951 . S
H958 C983 0.951 . S
H959 C985 0.950 . S
H960 C986 0.950 . S
H961 C988 0.950 1_556 S
H962 C991 0.950 . S
H963 C992 0.950 . S
H964 C994 0.950 . S
H965 C995 0.950 . S
C966 H948 0.951 . S
C966 C967 1.366 . S
C966 C968 1.388 . S
C967 C966 1.366 . S
C967 C971 1.385 . S
C968 H949 0.951 . S
C968 C966 1.388 . S
C968 C969 1.366 . S
C969 C968 1.366 . S
C969 C970 1.414 . S
C969 C972 1.499 . S
C970 H950 0.950 . S
C970 C969 1.414 . S
C970 C971 1.374 . S
C971 H951 0.950 . S
C971 C967 1.385 . S
C971 C970 1.374 . S
C972 C969 1.499 . S
C972 C973 1.373 . S
C972 C974 1.389 . S
C973 H952 0.950 . S
C973 C972 1.373 . S
C973 C989 1.377 . S
C974 C972 1.389 . S
C974 C975 1.524 . S
C974 C988 1.377 . S
C975 C974 1.524 . S
C975 C976 1.397 . S
C975 C980 1.363 1_554 S
C976 H953 0.950 . S
C976 C975 1.397 . S
C976 C977 1.334 1_554 S
C977 H954 0.951 . S
C977 C976 1.334 1_556 S
C977 C978 1.287 . S
C978 C977 1.287 . S
C978 C979 1.524 . S
C978 H997 0.913 . S
C979 H955 0.950 . S
C979 C978 1.524 . S
C979 C980 1.415 . S
C980 H956 0.950 . S
C980 C975 1.363 1_556 S
C980 C979 1.415 . S
C981 H957 0.951 . S
C981 C982 1.366 1_554 S
C981 C983 1.388 . S
C982 C981 1.366 1_556 S
C982 C986 1.385 . S
C983 H958 0.951 . S
C983 C981 1.388 . S
C983 C984 1.366 . S
C984 C983 1.366 . S
C984 C985 1.414 1_554 S
C984 C987 1.499 . S
C985 H959 0.950 . S
C985 C984 1.414 1_556 S
C985 C986 1.374 . S
C986 H960 0.950 . S
C986 C982 1.385 . S
C986 C985 1.374 . S
C987 C984 1.499 . S
C987 C988 1.373 . S
C987 C989 1.389 . S
C988 H961 0.950 1_554 S
C988 C974 1.377 . S
C988 C987 1.373 . S
C989 C973 1.377 . S
C989 C987 1.389 . S
C989 C990 1.524 . S
C990 C989 1.524 . S
C990 C991 1.397 . S
C990 C995 1.363 . S
C991 H962 0.950 . S
C991 C990 1.397 . S
C991 C992 1.334 . S
C992 H963 0.950 . S
C992 C991 1.334 . S
C992 C993 1.287 . S
C993 C992 1.287 . S
C993 C994 1.524 . S
C993 H996 0.999 . S
C994 H964 0.950 . S
C994 C993 1.524 . S
C994 C995 1.415 . S
C995 H965 0.950 . S
C995 C990 1.363 . S
C995 C994 1.415 . S
H996 C993 0.999 . S
H997 C978 0.913 . S
H998 C1016 0.951 . S
H999 C1018 0.951 . S
H1000 C1020 0.950 . S
H1001 C1021 0.950 . S
H1002 C1023 0.950 . S
H1003 C1026 0.950 . S
H1004 C1027 0.950 . S
H1005 C1029 0.950 . S
H1006 C1030 0.950 . S
H1007 C1031 0.951 . S
H1008 C1033 0.951 . S
H1009 C1035 0.950 . S
H1010 C1036 0.950 . S
H1011 C1038 0.950 . S
H1012 C1041 0.950 . S
H1013 C1042 0.950 . S
H1014 C1044 0.950 . S
H1015 C1045 0.950 . S
C1016 H998 0.951 . S
C1016 C1017 1.366 . S
C1016 C1018 1.388 . S
C1017 C1016 1.366 . S
C1017 C1021 1.385 . S
C1018 H999 0.951 . S
C1018 C1016 1.388 . S
C1018 C1019 1.366 . S
C1019 C1018 1.366 . S
C1019 C1020 1.414 . S
C1019 C1022 1.499 . S
C1020 H1000 0.950 . S
C1020 C1019 1.414 . S
C1020 C1021 1.374 . S
C1021 H1001 0.950 . S
C1021 C1017 1.385 . S
C1021 C1020 1.374 . S
C1022 C1019 1.499 . S
C1022 C1023 1.373 . S
C1022 C1024 1.389 . S
C1023 H1002 0.950 . S
C1023 C1022 1.373 . S
C1023 C1039 1.377 . S
C1024 C1022 1.389 . S
C1024 C1025 1.524 . S
C1024 C1038 1.377 . S
C1025 C1024 1.524 . S
C1025 C1026 1.397 . S
C1025 C1030 1.363 . S
C1026 H1003 0.950 . S
C1026 C1025 1.397 . S
C1026 C1027 1.334 . S
C1027 H1004 0.950 . S
C1027 C1026 1.334 . S
C1027 C1028 1.287 . S
C1028 C1027 1.287 . S
C1028 C1029 1.524 . S
C1028 H1047 0.913 . S
C1029 H1005 0.950 . S
C1029 C1028 1.524 . S
C1029 C1030 1.415 . S
C1030 H1006 0.950 . S
C1030 C1025 1.363 . S
C1030 C1029 1.415 . S
C1031 H1007 0.951 . S
C1031 C1032 1.366 1_554 S
C1031 C1033 1.388 . S
C1032 C1031 1.366 1_556 S
C1032 C1036 1.385 . S
C1033 H1008 0.951 . S
C1033 C1031 1.388 . S
C1033 C1034 1.366 . S
C1034 C1033 1.366 . S
C1034 C1035 1.414 1_554 S
C1034 C1037 1.499 . S
C1035 H1009 0.950 . S
C1035 C1034 1.414 1_556 S
C1035 C1036 1.374 . S
C1036 H1010 0.950 . S
C1036 C1032 1.385 . S
C1036 C1035 1.374 . S
C1037 C1034 1.499 . S
C1037 C1038 1.373 . S
C1037 C1039 1.389 . S
C1038 H1011 0.950 . S
C1038 C1024 1.377 . S
C1038 C1037 1.373 . S
C1039 C1023 1.377 . S
C1039 C1037 1.389 . S
C1039 C1040 1.524 . S
C1040 C1039 1.524 . S
C1040 C1041 1.397 1_554 S
C1040 C1045 1.363 . S
C1041 H1012 0.950 . S
C1041 C1040 1.397 1_556 S
C1041 C1042 1.334 . S
C1042 H1013 0.950 . S
C1042 C1041 1.334 . S
C1042 C1043 1.287 . S
C1043 C1042 1.287 . S
C1043 C1044 1.524 1_556 S
C1043 H1046 0.999 . S
C1044 H1014 0.950 . S
C1044 C1043 1.524 1_554 S
C1044 C1045 1.415 . S
C1045 H1015 0.950 . S
C1045 C1040 1.363 . S
C1045 C1044 1.415 . S
H1046 C1043 0.999 . S
H1047 C1028 0.913 . S
H1048 C1066 0.951 1_655 S
H1049 C1068 0.952 . S
H1050 C1070 0.950 . S
H1051 C1071 0.950 . S
H1052 C1073 0.979 . S
H1053 C1076 0.950 . S
H1054 C1077 0.950 . S
H1055 C1079 0.950 . S
H1056 C1080 0.950 . S
H1057 C1081 0.951 . S
H1058 C1083 0.951 . S
H1059 C1085 0.950 . S
H1060 C1086 0.950 . S
H1061 C1088 0.950 . S
H1062 C1091 0.950 . S
H1063 C1092 0.950 . S
H1064 C1094 0.950 . S
H1065 C1095 0.950 . S
C1066 H1048 0.951 1_455 S
C1066 C1067 1.366 . S
C1066 C1068 1.388 . S
C1067 C1066 1.366 . S
C1067 C1071 1.385 . S
C1068 H1049 0.952 . S
C1068 C1066 1.388 . S
C1068 C1069 1.366 . S
C1069 C1068 1.366 . S
C1069 C1070 1.414 . S
C1069 C1072 1.499 . S
C1070 H1050 0.950 . S
C1070 C1069 1.414 . S
C1070 C1071 1.374 . S
C1071 H1051 0.950 . S
C1071 C1067 1.385 . S
C1071 C1070 1.374 . S
C1072 C1069 1.499 . S
C1072 C1073 1.345 1_455 S
C1072 C1074 1.389 . S
C1073 H1052 0.979 . S
C1073 C1072 1.345 1_655 S
C1073 C1089 1.380 . S
C1074 C1072 1.389 . S
C1074 C1075 1.524 . S
C1074 C1088 1.377 . S
C1075 C1074 1.524 . S
C1075 C1076 1.397 . S
C1075 C1080 1.363 1_556 S
C1076 H1053 0.950 . S
C1076 C1075 1.397 . S
C1076 C1077 1.334 . S
C1077 H1054 0.950 . S
C1077 C1076 1.334 . S
C1077 C1078 1.287 1_556 S
C1078 C1077 1.287 1_554 S
C1078 C1079 1.524 . S
C1078 H1097 0.913 . S
C1079 H1055 0.950 . S
C1079 C1078 1.524 . S
C1079 C1080 1.415 . S
C1080 H1056 0.950 . S
C1080 C1075 1.363 1_554 S
C1080 C1079 1.415 . S
C1081 H1057 0.951 . S
C1081 C1082 1.366 . S
C1081 C1083 1.388 . S
C1082 C1081 1.366 . S
C1082 C1086 1.385 . S
C1083 H1058 0.951 . S
C1083 C1081 1.388 . S
C1083 C1084 1.366 . S
C1084 C1083 1.366 . S
C1084 C1085 1.414 . S
C1084 C1087 1.499 . S
C1085 H1059 0.950 . S
C1085 C1084 1.414 . S
C1085 C1086 1.374 . S
C1086 H1060 0.950 . S
C1086 C1082 1.385 . S
C1086 C1085 1.374 . S
C1087 C1084 1.499 . S
C1087 C1088 1.373 . S
C1087 C1089 1.389 1_455 S
C1088 H1061 0.950 . S
C1088 C1074 1.377 . S
C1088 C1087 1.373 . S
C1089 C1073 1.380 . S
C1089 C1087 1.389 1_655 S
C1089 C1090 1.524 . S
C1090 C1089 1.524 . S
C1090 C1091 1.397 . S
C1090 C1095 1.363 . S
C1091 H1062 0.950 . S
C1091 C1090 1.397 . S
C1091 C1092 1.334 . S
C1092 H1063 0.950 . S
C1092 C1091 1.334 . S
C1092 C1093 1.287 . S
C1093 C1092 1.287 . S
C1093 C1094 1.524 . S
C1093 H1096 0.999 . S
C1094 H1064 0.950 . S
C1094 C1093 1.524 . S
C1094 C1095 1.415 . S
C1095 H1065 0.950 . S
C1095 C1090 1.363 . S
C1095 C1094 1.415 . S
H1096 C1093 0.999 . S
H1097 C1078 0.913 . S
H1098 C1116 0.951 . S
H1099 C1118 0.951 . S
H1100 C1120 0.950 . S
H1101 C1121 0.950 . S
H1102 C1123 0.950 . S
H1103 C1126 0.950 . S
H1104 C1127 0.950 . S
H1105 C1129 0.950 . S
H1106 C1130 0.950 . S
H1107 C1131 0.951 . S
H1108 C1133 0.951 . S
H1109 C1135 0.950 . S
H1110 C1136 0.950 . S
H1111 C1138 0.950 . S
H1112 C1141 0.950 . S
H1113 C1142 0.950 . S
H1114 C1144 0.950 1_565 S
H1115 C1145 0.975 . S
C1116 H1098 0.951 . S
C1116 C1117 1.366 . S
C1116 C1118 1.388 . S
C1117 C1116 1.366 . S
C1117 C1121 1.385 1_545 S
C1118 H1099 0.951 . S
C1118 C1116 1.388 . S
C1118 C1119 1.366 . S
C1119 C1118 1.366 . S
C1119 C1120 1.414 1_545 S
C1119 C1122 1.499 . S
C1120 H1100 0.950 . S
C1120 C1119 1.414 1_565 S
C1120 C1121 1.374 . S
C1121 H1101 0.950 . S
C1121 C1117 1.385 1_565 S
C1121 C1120 1.374 . S
C1122 C1119 1.499 . S
C1122 C1123 1.373 . S
C1122 C1124 1.389 . S
C1123 H1102 0.950 . S
C1123 C1122 1.373 . S
C1123 C1139 1.377 . S
C1124 C1122 1.389 . S
C1124 C1125 1.524 . S
C1124 C1138 1.377 . S
C1125 C1124 1.524 . S
C1125 C1126 1.397 1_545 S
C1125 C1130 1.363 . S
C1126 H1103 0.950 . S
C1126 C1125 1.397 1_565 S
C1126 C1127 1.334 . S
C1127 H1104 0.950 . S
C1127 C1126 1.334 . S
C1127 C1128 1.287 . S
C1128 C1127 1.287 . S
C1128 C1129 1.524 1_565 S
C1128 H1147 0.913 . S
C1129 H1105 0.950 . S
C1129 C1128 1.524 1_545 S
C1129 C1130 1.415 . S
C1130 H1106 0.950 . S
C1130 C1125 1.363 . S
C1130 C1129 1.415 . S
C1131 H1107 0.951 . S
C1131 C1132 1.366 1_565 S
C1131 C1133 1.388 . S
C1132 C1131 1.366 1_545 S
C1132 C1136 1.385 . S
C1133 H1108 0.951 . S
C1133 C1131 1.388 . S
C1133 C1134 1.366 1_565 S
C1134 C1133 1.366 1_545 S
C1134 C1135 1.414 . S
C1134 C1137 1.499 . S
C1135 H1109 0.950 . S
C1135 C1134 1.414 . S
C1135 C1136 1.374 . S
C1136 H1110 0.950 . S
C1136 C1132 1.385 . S
C1136 C1135 1.374 . S
C1137 C1134 1.499 . S
C1137 C1138 1.373 . S
C1137 C1139 1.389 . S
C1138 H1111 0.950 . S
C1138 C1124 1.377 . S
C1138 C1137 1.373 . S
C1139 C1123 1.377 . S
C1139 C1137 1.389 . S
C1139 C1140 1.524 . S
C1140 C1139 1.524 . S
C1140 C1141 1.397 . S
C1140 C1145 1.343 1_546 S
C1141 H1112 0.950 . S
C1141 C1140 1.397 . S
C1141 C1142 1.334 1_556 S
C1142 H1113 0.950 . S
C1142 C1141 1.334 1_554 S
C1142 C1143 1.287 . S
C1143 C1142 1.287 . S
C1143 C1144 1.524 . S
C1143 H1146 0.999 . S
C1144 H1114 0.950 1_545 S
C1144 C1143 1.524 . S
C1144 C1145 1.411 1_545 S
C1145 H1115 0.975 . S
C1145 C1140 1.343 1_564 S
C1145 C1144 1.411 1_565 S
H1146 C1143 0.999 . S
H1147 C1128 0.913 . S
H1148 C1166 0.951 . S
H1149 C1168 0.951 . S
H1150 C1170 0.950 . S
H1151 C1171 0.950 . S
H1152 C1173 0.950 . S
H1153 C1176 0.950 . S
H1154 C1177 0.950 . S
H1155 C1179 0.950 1_554 S
H1156 C1180 0.950 . S
H1157 C1181 0.951 . S
H1158 C1183 0.951 . S
H1159 C1185 0.950 . S
H1160 C1186 0.950 . S
H1161 C1188 0.950 . S
H1162 C1191 0.950 . S
H1163 C1192 0.950 . S
H1164 C1194 0.950 . S
H1165 C1195 0.950 . S
C1166 H1148 0.951 . S
C1166 C1167 1.366 . S
C1166 C1168 1.388 . S
C1167 C1166 1.366 . S
C1167 C1171 1.385 . S
C1168 H1149 0.951 . S
C1168 C1166 1.388 . S
C1168 C1169 1.366 . S
C1169 C1168 1.366 . S
C1169 C1170 1.414 . S
C1169 C1172 1.499 . S
C1170 H1150 0.950 . S
C1170 C1169 1.414 . S
C1170 C1171 1.374 . S
C1171 H1151 0.950 . S
C1171 C1167 1.385 . S
C1171 C1170 1.374 . S
C1172 C1169 1.499 . S
C1172 C1173 1.373 . S
C1172 C1174 1.389 . S
C1173 H1152 0.950 . S
C1173 C1172 1.373 . S
C1173 C1189 1.377 . S
C1174 C1172 1.389 . S
C1174 C1175 1.524 . S
C1174 C1188 1.377 . S
C1175 C1174 1.524 . S
C1175 C1176 1.397 . S
C1175 C1180 1.363 . S
C1176 H1153 0.950 . S
C1176 C1175 1.397 . S
C1176 C1177 1.334 . S
C1177 H1154 0.950 . S
C1177 C1176 1.334 . S
C1177 C1178 1.287 . S
C1178 C1177 1.287 . S
C1178 C1179 1.524 . S
C1178 H1197 0.913 . S
C1179 H1155 0.950 1_556 S
C1179 C1178 1.524 . S
C1179 C1180 1.415 . S
C1180 H1156 0.950 . S
C1180 C1175 1.363 . S
C1180 C1179 1.415 . S
C1181 H1157 0.951 . S
C1181 C1182 1.366 . S
C1181 C1183 1.388 . S
C1182 C1181 1.366 . S
C1182 C1186 1.385 . S
C1183 H1158 0.951 . S
C1183 C1181 1.388 . S
C1183 C1184 1.366 . S
C1184 C1183 1.366 . S
C1184 C1185 1.414 . S
C1184 C1187 1.499 . S
C1185 H1159 0.950 . S
C1185 C1184 1.414 . S
C1185 C1186 1.374 . S
C1186 H1160 0.950 . S
C1186 C1182 1.385 . S
C1186 C1185 1.374 . S
C1187 C1184 1.499 . S
C1187 C1188 1.373 . S
C1187 C1189 1.389 . S
C1188 H1161 0.950 . S
C1188 C1174 1.377 . S
C1188 C1187 1.373 . S
C1189 C1173 1.377 . S
C1189 C1187 1.389 . S
C1189 C1190 1.524 . S
C1190 C1189 1.524 . S
C1190 C1191 1.397 . S
C1190 C1195 1.363 . S
C1191 H1162 0.950 . S
C1191 C1190 1.397 . S
C1191 C1192 1.334 . S
C1192 H1163 0.950 . S
C1192 C1191 1.334 . S
C1192 C1193 1.287 . S
C1193 C1192 1.287 . S
C1193 C1194 1.524 . S
C1193 H1196 0.999 . S
C1194 H1164 0.950 . S
C1194 C1193 1.524 . S
C1194 C1195 1.415 . S
C1195 H1165 0.950 . S
C1195 C1190 1.363 . S
C1195 C1194 1.415 . S
H1196 C1193 0.999 . S
H1197 C1178 0.913 . S
H1198 C1216 0.951 . S
H1199 C1218 0.951 . S
H1200 C1220 0.950 . S
H1201 C1221 0.950 . S
H1202 C1223 0.950 . S
H1203 C1226 0.950 . S
H1204 C1227 0.950 . S
H1205 C1229 0.950 . S
H1206 C1230 0.950 . S
H1207 C1231 0.951 . S
H1208 C1233 0.951 . S
H1209 C1235 0.950 . S
H1210 C1236 0.950 . S
H1211 C1238 0.950 . S
H1212 C1241 0.950 . S
H1213 C1242 0.950 . S
H1214 C1244 0.950 . S
H1215 C1245 0.950 1_554 S
C1216 H1198 0.951 . S
C1216 C1217 1.366 . S
C1216 C1218 1.388 . S
C1217 C1216 1.366 . S
C1217 C1221 1.385 . S
C1218 H1199 0.951 . S
C1218 C1216 1.388 . S
C1218 C1219 1.366 . S
C1219 C1218 1.366 . S
C1219 C1220 1.414 . S
C1219 C1222 1.499 . S
C1220 H1200 0.950 . S
C1220 C1219 1.414 . S
C1220 C1221 1.374 . S
C1221 H1201 0.950 . S
C1221 C1217 1.385 . S
C1221 C1220 1.374 . S
C1222 C1219 1.499 . S
C1222 C1223 1.373 . S
C1222 C1224 1.389 . S
C1223 H1202 0.950 . S
C1223 C1222 1.373 . S
C1223 C1239 1.377 . S
C1224 C1222 1.389 . S
C1224 C1225 1.524 . S
C1224 C1238 1.377 . S
C1225 C1224 1.524 . S
C1225 C1226 1.397 . S
C1225 C1230 1.363 . S
C1226 H1203 0.950 . S
C1226 C1225 1.397 . S
C1226 C1227 1.334 . S
C1227 H1204 0.950 . S
C1227 C1226 1.334 . S
C1227 C1228 1.287 . S
C1228 C1227 1.287 . S
C1228 C1229 1.524 . S
C1228 H1247 0.913 . S
C1229 H1205 0.950 . S
C1229 C1228 1.524 . S
C1229 C1230 1.415 . S
C1230 H1206 0.950 . S
C1230 C1225 1.363 . S
C1230 C1229 1.415 . S
C1231 H1207 0.951 . S
C1231 C1232 1.366 . S
C1231 C1233 1.388 . S
C1232 C1231 1.366 . S
C1232 C1236 1.385 . S
C1233 H1208 0.951 . S
C1233 C1231 1.388 . S
C1233 C1234 1.366 . S
C1234 C1233 1.366 . S
C1234 C1235 1.414 . S
C1234 C1237 1.499 . S
C1235 H1209 0.950 . S
C1235 C1234 1.414 . S
C1235 C1236 1.374 . S
C1236 H1210 0.950 . S
C1236 C1232 1.385 . S
C1236 C1235 1.374 . S
C1237 C1234 1.499 . S
C1237 C1238 1.373 . S
C1237 C1239 1.389 . S
C1238 H1211 0.950 . S
C1238 C1224 1.377 . S
C1238 C1237 1.373 . S
C1239 C1223 1.377 . S
C1239 C1237 1.389 . S
C1239 C1240 1.524 . S
C1240 C1239 1.524 . S
C1240 C1241 1.397 . S
C1240 C1245 1.363 . S
C1241 H1212 0.950 . S
C1241 C1240 1.397 . S
C1241 C1242 1.334 . S
C1242 H1213 0.950 . S
C1242 C1241 1.334 . S
C1242 C1243 1.287 . S
C1243 C1242 1.287 . S
C1243 C1244 1.524 1_556 S
C1243 H1246 0.999 1_556 S
C1244 H1214 0.950 . S
C1244 C1243 1.524 1_554 S
C1244 C1245 1.415 1_554 S
C1245 H1215 0.950 1_556 S
C1245 C1240 1.363 . S
C1245 C1244 1.415 1_556 S
H1246 C1243 0.999 1_554 S
H1247 C1228 0.913 . S
H1248 C1266 0.951 . S
H1249 C1268 0.951 . S
H1250 C1270 0.950 . S
H1251 C1271 0.950 . S
H1252 C1273 0.950 . S
H1253 C1276 0.950 . S
H1254 C1277 0.950 . S
H1255 C1279 0.950 . S
H1256 C1280 0.950 . S
H1257 C1281 0.951 . S
H1258 C1283 0.951 . S
H1259 C1285 0.950 . S
H1260 C1286 0.950 . S
H1261 C1288 0.950 . S
H1262 C1291 0.950 . S
H1263 C1292 0.950 . S
H1264 C1294 0.950 . S
H1265 C1295 0.950 . S
C1266 H1248 0.951 . S
C1266 C1267 1.316 1_455 S
C1266 C1268 1.388 . S
C1267 C1266 1.316 1_655 S
C1267 C1271 1.437 . S
C1268 H1249 0.951 . S
C1268 C1266 1.388 . S
C1268 C1269 1.366 1_455 S
C1269 C1268 1.366 1_655 S
C1269 C1270 1.414 . S
C1269 C1272 1.499 . S
C1270 H1250 0.950 . S
C1270 C1269 1.414 . S
C1270 C1271 1.374 . S
C1271 H1251 0.950 . S
C1271 C1267 1.437 . S
C1271 C1270 1.374 . S
C1272 C1269 1.499 . S
C1272 C1273 1.373 . S
C1272 C1274 1.389 1_655 S
C1273 H1252 0.950 . S
C1273 C1272 1.373 . S
C1273 C1289 1.377 . S
C1274 C1272 1.389 1_455 S
C1274 C1275 1.524 . S
C1274 C1288 1.377 . S
C1275 C1274 1.524 . S
C1275 C1276 1.397 . S
C1275 C1280 1.363 . S
C1276 H1253 0.950 . S
C1276 C1275 1.397 . S
C1276 C1277 1.334 . S
C1277 H1254 0.950 . S
C1277 C1276 1.334 . S
C1277 C1278 1.287 . S
C1278 C1277 1.287 . S
C1278 C1279 1.524 . S
C1278 H1297 0.913 . S
C1279 H1255 0.950 . S
C1279 C1278 1.524 . S
C1279 C1280 1.415 . S
C1280 H1256 0.950 . S
C1280 C1275 1.363 . S
C1280 C1279 1.415 . S
C1281 H1257 0.951 . S
C1281 C1282 1.366 . S
C1281 C1283 1.388 . S
C1282 C1281 1.366 . S
C1282 C1286 1.385 1_655 S
C1283 H1258 0.951 . S
C1283 C1281 1.388 . S
C1283 C1284 1.366 . S
C1284 C1283 1.366 . S
C1284 C1285 1.414 1_655 S
C1284 C1287 1.499 . S
C1285 H1259 0.950 . S
C1285 C1284 1.414 1_455 S
C1285 C1286 1.374 . S
C1286 H1260 0.950 . S
C1286 C1282 1.385 1_455 S
C1286 C1285 1.374 . S
C1287 C1284 1.499 . S
C1287 C1288 1.373 1_655 S
C1287 C1289 1.389 . S
C1288 H1261 0.950 . S
C1288 C1274 1.377 . S
C1288 C1287 1.373 1_455 S
C1289 C1273 1.377 . S
C1289 C1287 1.389 . S
C1289 C1290 1.524 . S
C1290 C1289 1.524 . S
C1290 C1291 1.397 . S
C1290 C1295 1.363 . S
C1291 H1262 0.950 . S
C1291 C1290 1.397 . S
C1291 C1292 1.334 . S
C1292 H1263 0.950 . S
C1292 C1291 1.334 . S
C1292 C1293 1.287 . S
C1293 C1292 1.287 . S
C1293 C1294 1.524 . S
C1293 H1296 0.999 . S
C1294 H1264 0.950 . S
C1294 C1293 1.524 . S
C1294 C1295 1.415 . S
C1295 H1265 0.950 . S
C1295 C1290 1.363 . S
C1295 C1294 1.415 . S
H1296 C1293 0.999 . S
H1297 C1278 0.913 . S
H1298 C1316 0.951 . S
H1299 C1318 0.951 . S
H1300 C1320 0.950 . S
H1301 C1321 0.950 . S
H1302 C1323 0.950 . S
H1303 C1326 0.950 . S
H1304 C1327 0.950 . S
H1305 C1329 0.950 . S
H1306 C1330 0.950 . S
H1307 C1331 0.951 . S
H1308 C1333 0.951 . S
H1309 C1335 0.950 . S
H1310 C1336 0.950 . S
H1311 C1338 0.950 . S
H1312 C1341 0.950 1_565 S
H1313 C1342 0.950 . S
H1314 C1344 0.950 . S
H1315 C1345 0.950 . S
C1316 H1298 0.951 . S
C1316 C1317 1.366 . S
C1316 C1318 1.388 . S
C1317 C1316 1.366 . S
C1317 C1321 1.385 1_565 S
C1318 H1299 0.951 . S
C1318 C1316 1.388 . S
C1318 C1319 1.366 . S
C1319 C1318 1.366 . S
C1319 C1320 1.414 1_565 S
C1319 C1322 1.499 . S
C1320 H1300 0.950 . S
C1320 C1319 1.414 1_545 S
C1320 C1321 1.374 . S
C1321 H1301 0.950 . S
C1321 C1317 1.385 1_545 S
C1321 C1320 1.374 . S
C1322 C1319 1.499 . S
C1322 C1323 1.373 1_565 S
C1322 C1324 1.389 . S
C1323 H1302 0.950 . S
C1323 C1322 1.373 1_545 S
C1323 C1339 1.377 . S
C1324 C1322 1.389 . S
C1324 C1325 1.524 . S
C1324 C1338 1.377 . S
C1325 C1324 1.524 . S
C1325 C1326 1.397 . S
C1325 C1330 1.363 . S
C1326 H1303 0.950 . S
C1326 C1325 1.397 . S
C1326 C1327 1.334 . S
C1327 H1304 0.950 . S
C1327 C1326 1.334 . S
C1327 C1328 1.287 . S
C1328 C1327 1.287 . S
C1328 C1329 1.524 . S
C1328 H1347 0.913 . S
C1329 H1305 0.950 . S
C1329 C1328 1.524 . S
C1329 C1330 1.415 . S
C1330 H1306 0.950 . S
C1330 C1325 1.363 . S
C1330 C1329 1.415 . S
C1331 H1307 0.951 . S
C1331 C1332 1.366 1_545 S
C1331 C1333 1.388 . S
C1332 C1331 1.366 1_565 S
C1332 C1336 1.385 . S
C1333 H1308 0.951 . S
C1333 C1331 1.388 . S
C1333 C1334 1.366 1_545 S
C1334 C1333 1.366 1_565 S
C1334 C1335 1.414 . S
C1334 C1337 1.499 . S
C1335 H1309 0.950 . S
C1335 C1334 1.414 . S
C1335 C1336 1.374 . S
C1336 H1310 0.950 . S
C1336 C1332 1.385 . S
C1336 C1335 1.374 . S
C1337 C1334 1.499 . S
C1337 C1338 1.373 . S
C1337 C1339 1.389 1_565 S
C1338 H1311 0.950 . S
C1338 C1324 1.377 . S
C1338 C1337 1.373 . S
C1339 C1323 1.377 . S
C1339 C1337 1.389 1_545 S
C1339 C1340 1.524 . S
C1340 C1339 1.524 . S
C1340 C1341 1.397 . S
C1340 C1345 1.363 . S
C1341 H1312 0.950 1_545 S
C1341 C1340 1.397 . S
C1341 C1342 1.334 . S
C1342 H1313 0.950 . S
C1342 C1341 1.334 . S
C1342 C1343 1.287 . S
C1343 C1342 1.287 . S
C1343 C1344 1.524 . S
C1343 H1346 0.999 . S
C1344 H1314 0.950 . S
C1344 C1343 1.524 . S
C1344 C1345 1.415 . S
C1345 H1315 0.950 . S
C1345 C1340 1.363 . S
C1345 C1344 1.415 . S
H1346 C1343 0.999 . S
H1347 C1328 0.913 . S
H1348 C1366 0.951 . S
H1349 C1368 0.951 . S
H1350 C1370 0.950 . S
H1351 C1371 0.950 . S
H1352 C1373 0.950 . S
H1353 C1376 0.950 . S
H1354 C1377 0.950 . S
H1355 C1379 0.950 . S
H1356 C1380 0.950 . S
H1357 C1381 0.951 . S
H1358 C1383 0.951 . S
H1359 C1385 0.950 . S
H1360 C1386 0.950 . S
H1361 C1388 0.950 . S
H1362 C1391 0.950 . S
H1363 C1392 0.950 . S
H1364 C1394 0.950 . S
H1365 C1395 0.950 . S
C1366 H1348 0.951 . S
C1366 C1367 1.366 . S
C1366 C1368 1.388 . S
C1367 C1366 1.366 . S
C1367 C1371 1.385 . S
C1368 H1349 0.951 . S
C1368 C1366 1.388 . S
C1368 C1369 1.366 . S
C1369 C1368 1.366 . S
C1369 C1370 1.414 . S
C1369 C1372 1.499 . S
C1370 H1350 0.950 . S
C1370 C1369 1.414 . S
C1370 C1371 1.374 . S
C1371 H1351 0.950 . S
C1371 C1367 1.385 . S
C1371 C1370 1.374 . S
C1372 C1369 1.499 . S
C1372 C1373 1.373 . S
C1372 C1374 1.389 . S
C1373 H1352 0.950 . S
C1373 C1372 1.373 . S
C1373 C1389 1.377 . S
C1374 C1372 1.389 . S
C1374 C1375 1.524 . S
C1374 C1388 1.377 . S
C1375 C1374 1.524 . S
C1375 C1376 1.397 . S
C1375 C1380 1.363 . S
C1376 H1353 0.950 . S
C1376 C1375 1.397 . S
C1376 C1377 1.334 . S
C1377 H1354 0.950 . S
C1377 C1376 1.334 . S
C1377 C1378 1.287 . S
C1378 C1377 1.287 . S
C1378 C1379 1.524 . S
C1378 H1397 0.913 . S
C1379 H1355 0.950 . S
C1379 C1378 1.524 . S
C1379 C1380 1.415 . S
C1380 H1356 0.950 . S
C1380 C1375 1.363 . S
C1380 C1379 1.415 . S
C1381 H1357 0.951 . S
C1381 C1382 1.366 . S
C1381 C1383 1.388 . S
C1382 C1381 1.366 . S
C1382 C1386 1.385 . S
C1383 H1358 0.951 . S
C1383 C1381 1.388 . S
C1383 C1384 1.366 . S
C1384 C1383 1.366 . S
C1384 C1385 1.414 . S
C1384 C1387 1.499 . S
C1385 H1359 0.950 . S
C1385 C1384 1.414 . S
C1385 C1386 1.374 . S
C1386 H1360 0.950 . S
C1386 C1382 1.385 . S
C1386 C1385 1.374 . S
C1387 C1384 1.499 . S
C1387 C1388 1.373 . S
C1387 C1389 1.389 . S
C1388 H1361 0.950 . S
C1388 C1374 1.377 . S
C1388 C1387 1.373 . S
C1389 C1373 1.377 . S
C1389 C1387 1.389 . S
C1389 C1390 1.524 . S
C1390 C1389 1.524 . S
C1390 C1391 1.397 . S
C1390 C1395 1.363 . S
C1391 H1362 0.950 . S
C1391 C1390 1.397 . S
C1391 C1392 1.334 . S
C1392 H1363 0.950 . S
C1392 C1391 1.334 . S
C1392 C1393 1.287 . S
C1393 C1392 1.287 . S
C1393 C1394 1.524 . S
C1393 H1396 0.999 . S
C1394 H1364 0.950 . S
C1394 C1393 1.524 . S
C1394 C1395 1.415 . S
C1395 H1365 0.950 . S
C1395 C1390 1.363 . S
C1395 C1394 1.415 . S
H1396 C1393 0.999 . S
H1397 C1378 0.913 . S
H1398 C1416 0.951 . S
H1399 C1418 0.951 . S
H1400 C1420 0.950 . S
H1401 C1421 0.950 . S
H1402 C1423 0.950 . S
H1403 C1426 0.950 . S
H1404 C1427 0.950 . S
H1405 C1429 0.950 . S
H1406 C1430 0.950 . S
H1407 C1431 0.951 . S
H1408 C1433 0.951 . S
H1409 C1435 0.950 . S
H1410 C1436 0.950 . S
H1411 C1438 0.950 . S
H1412 C1441 0.950 . S
H1413 C1442 0.950 . S
H1414 C1444 0.950 . S
H1415 C1445 0.950 . S
C1416 H1398 0.951 . S
C1416 C1417 1.366 . S
C1416 C1418 1.388 . S
C1417 C1416 1.366 . S
C1417 C1421 1.385 . S
C1418 H1399 0.951 . S
C1418 C1416 1.388 . S
C1418 C1419 1.366 . S
C1419 C1418 1.366 . S
C1419 C1420 1.414 . S
C1419 C1422 1.499 . S
C1420 H1400 0.950 . S
C1420 C1419 1.414 . S
C1420 C1421 1.374 . S
C1421 H1401 0.950 . S
C1421 C1417 1.385 . S
C1421 C1420 1.374 . S
C1422 C1419 1.499 . S
C1422 C1423 1.373 . S
C1422 C1424 1.389 . S
C1423 H1402 0.950 . S
C1423 C1422 1.373 . S
C1423 C1439 1.377 . S
C1424 C1422 1.389 . S
C1424 C1425 1.524 . S
C1424 C1438 1.377 . S
C1425 C1424 1.524 . S
C1425 C1426 1.397 . S
C1425 C1430 1.363 . S
C1426 H1403 0.950 . S
C1426 C1425 1.397 . S
C1426 C1427 1.334 . S
C1427 H1404 0.950 . S
C1427 C1426 1.334 . S
C1427 C1428 1.287 . S
C1428 C1427 1.287 . S
C1428 C1429 1.524 . S
C1428 H1447 0.913 . S
C1429 H1405 0.950 . S
C1429 C1428 1.524 . S
C1429 C1430 1.415 . S
C1430 H1406 0.950 . S
C1430 C1425 1.363 . S
C1430 C1429 1.415 . S
C1431 H1407 0.951 . S
C1431 C1432 1.366 . S
C1431 C1433 1.388 . S
C1432 C1431 1.366 . S
C1432 C1436 1.385 . S
C1433 H1408 0.951 . S
C1433 C1431 1.388 . S
C1433 C1434 1.366 . S
C1434 C1433 1.366 . S
C1434 C1435 1.414 . S
C1434 C1437 1.499 . S
C1435 H1409 0.950 . S
C1435 C1434 1.414 . S
C1435 C1436 1.374 . S
C1436 H1410 0.950 . S
C1436 C1432 1.385 . S
C1436 C1435 1.374 . S
C1437 C1434 1.499 . S
C1437 C1438 1.373 . S
C1437 C1439 1.389 . S
C1438 H1411 0.950 . S
C1438 C1424 1.377 . S
C1438 C1437 1.373 . S
C1439 C1423 1.377 . S
C1439 C1437 1.389 . S
C1439 C1440 1.524 . S
C1440 C1439 1.524 . S
C1440 C1441 1.397 . S
C1440 C1445 1.363 . S
C1441 H1412 0.950 . S
C1441 C1440 1.397 . S
C1441 C1442 1.334 . S
C1442 H1413 0.950 . S
C1442 C1441 1.334 . S
C1442 C1443 1.287 . S
C1443 C1442 1.287 . S
C1443 C1444 1.524 . S
C1443 H1446 0.999 . S
C1444 H1414 0.950 . S
C1444 C1443 1.524 . S
C1444 C1445 1.415 . S
C1445 H1415 0.950 . S
C1445 C1440 1.363 . S
C1445 C1444 1.415 . S
H1446 C1443 0.999 . S
H1447 C1428 0.913 . S
C267 C76 1.729 . S
C282 C98 1.813 . S
C332 C138 1.813 . S
C317 C87 1.730 . S
C382 C178 1.813 . S
C367 C54 1.730 . S
C432 C218 1.812 . S
C417 C65 1.728 . S
C482 C107 1.816 . S
C467 C32 1.729 . S
C517 C43 1.729 . S
C532 C147 1.812 . S
C567 C10 1.730 . S
C582 C187 1.813 . S
C617 C21 1.728 . S
C632 C227 1.818 . S
C682 C104 0.329 . S
C667 C60 0.389 . S
C732 C144 0.326 . S
C717 C71 0.389 . S
C782 C184 0.327 . S
C767 C82 0.388 . S
C817 C49 0.391 . S
C832 C224 0.327 . S
C867 C16 0.400 1_655 S
C882 C95 0.326 . S
C932 C135 0.330 . S
C917 C27 0.401 . S
C982 C175 0.328 . S
C967 C38 0.399 . S
C1017 C5 0.402 . S
C1032 C215 0.329 . S
C1067 C59 1.861 . S
C1082 C99 2.054 . S
C1117 C70 1.859 . S
C1132 C139 2.053 . S
C1182 C179 2.055 . S
C1167 C81 1.861 . S
C1232 C219 2.053 . S
C1217 C48 1.860 . S
C1267 C15 1.860 1_655 S
C1282 C90 2.054 . S
C1332 C130 2.054 . S
C1317 C26 1.863 1_565 S
C1382 C170 2.053 . S
C1367 C37 1.863 . S
C1417 C4 1.862 . S
C1432 C210 2.054 . S
