# Generated by pormake.
# Topology eea, (3,6)-cn, num edge types: 1
# Building blocks:
#     Node 0, Type 0, BuildingBlock: PAMTOO_clean_linker_0, # of connection points: 3
#     Node 1, Type 0, BuildingBlock: PAMTOO_clean_linker_0, # of connection points: 3
#     Node 2, Type 0, BuildingBlock: PAMTOO_clean_linker_0, # of connection points: 3
#     Node 3, Type 0, BuildingBlock: PAMTOO_clean_linker_0, # of connection points: 3
#     Node 4, Type 0, BuildingBlock: PAMTOO_clean_linker_0, # of connection points: 3
#     Node 5, Type 0, BuildingBlock: PAMTOO_clean_linker_0, # of connection points: 3
#     Node 6, Type 0, BuildingBlock: PAMTOO_clean_linker_0, # of connection points: 3
#     Node 7, Type 0, BuildingBlock: PAMTOO_clean_linker_0, # of connection points: 3
#     Node 8, Type 0, BuildingBlock: PAMTOO_clean_linker_0, # of connection points: 3
#     Node 9, Type 0, BuildingBlock: PAMTOO_clean_linker_0, # of connection points: 3
#     Node 10, Type 0, BuildingBlock: PAMTOO_clean_linker_0, # of connection points: 3
#     Node 11, Type 0, BuildingBlock: PAMTOO_clean_linker_0, # of connection points: 3
#     Node 12, Type 0, BuildingBlock: PAMTOO_clean_linker_0, # of connection points: 3
#     Node 13, Type 0, BuildingBlock: PAMTOO_clean_linker_0, # of connection points: 3
#     Node 14, Type 0, BuildingBlock: PAMTOO_clean_linker_0, # of connection points: 3
#     Node 15, Type 0, BuildingBlock: PAMTOO_clean_linker_0, # of connection points: 3
#     Node 16, Type 0, BuildingBlock: PAMTOO_clean_linker_0, # of connection points: 3
#     Node 17, Type 0, BuildingBlock: PAMTOO_clean_linker_0, # of connection points: 3
#     Node 18, Type 1, BuildingBlock: NUHQIS_clean_sbu_0, # of connection points: 6
#     Node 19, Type 1, BuildingBlock: NUHQIS_clean_sbu_0, # of connection points: 6
#     Node 20, Type 1, BuildingBlock: NUHQIS_clean_sbu_0, # of connection points: 6
#     Node 21, Type 1, BuildingBlock: NUHQIS_clean_sbu_0, # of connection points: 6
#     Node 22, Type 1, BuildingBlock: NUHQIS_clean_sbu_0, # of connection points: 6
#     Node 23, Type 1, BuildingBlock: NUHQIS_clean_sbu_0, # of connection points: 6
#     Node 24, Type 1, BuildingBlock: NUHQIS_clean_sbu_0, # of connection points: 6
#     Node 25, Type 1, BuildingBlock: NUHQIS_clean_sbu_0, # of connection points: 6
#     Node 26, Type 1, BuildingBlock: NUHQIS_clean_sbu_0, # of connection points: 6
#     Edge 27, Type (0, 1), None
#     Edge 28, Type (0, 1), None
#     Edge 29, Type (0, 1), None
#     Edge 30, Type (0, 1), None
#     Edge 31, Type (0, 1), None
#     Edge 32, Type (0, 1), None
#     Edge 33, Type (0, 1), None
#     Edge 34, Type (0, 1), None
#     Edge 35, Type (0, 1), None
#     Edge 36, Type (0, 1), None
#     Edge 37, Type (0, 1), None
#     Edge 38, Type (0, 1), None
#     Edge 39, Type (0, 1), None
#     Edge 40, Type (0, 1), None
#     Edge 41, Type (0, 1), None
#     Edge 42, Type (0, 1), None
#     Edge 43, Type (0, 1), None
#     Edge 44, Type (0, 1), None
#     Edge 45, Type (0, 1), None
#     Edge 46, Type (0, 1), None
#     Edge 47, Type (0, 1), None
#     Edge 48, Type (0, 1), None
#     Edge 49, Type (0, 1), None
#     Edge 50, Type (0, 1), None
#     Edge 51, Type (0, 1), None
#     Edge 52, Type (0, 1), None
#     Edge 53, Type (0, 1), None
#     Edge 54, Type (0, 1), None
#     Edge 55, Type (0, 1), None
#     Edge 56, Type (0, 1), None
#     Edge 57, Type (0, 1), None
#     Edge 58, Type (0, 1), None
#     Edge 59, Type (0, 1), None
#     Edge 60, Type (0, 1), None
#     Edge 61, Type (0, 1), None
#     Edge 62, Type (0, 1), None
#     Edge 63, Type (0, 1), None
#     Edge 64, Type (0, 1), None
#     Edge 65, Type (0, 1), None
#     Edge 66, Type (0, 1), None
#     Edge 67, Type (0, 1), None
#     Edge 68, Type (0, 1), None
#     Edge 69, Type (0, 1), None
#     Edge 70, Type (0, 1), None
#     Edge 71, Type (0, 1), None
#     Edge 72, Type (0, 1), None
#     Edge 73, Type (0, 1), None
#     Edge 74, Type (0, 1), None
#     Edge 75, Type (0, 1), None
#     Edge 76, Type (0, 1), None
#     Edge 77, Type (0, 1), None
#     Edge 78, Type (0, 1), None
#     Edge 79, Type (0, 1), None
#     Edge 80, Type (0, 1), None
# Relax obj value: 0.061
# Max RMSD: 0.275
# Mean RMSD: 0.200
data_MOF--net-eea--node1-NUHQIS_clean_sbu_0--node2-PAMTOO_clean_linker_0--edge1-none
_symmetry_space_group_name_H-M    P1
_symmetry_Int_Tables_number       1
_symmetry_cell_setting            triclinic
loop_
_symmetry_equiv_pos_as_xyz
'x, y, z'
_cell_length_a     23.625964
_cell_length_b     24.004366
_cell_length_c     37.722645
_cell_angle_alpha  91.811281
_cell_angle_beta   91.773233
_cell_angle_gamma 120.13041
loop_
_atom_site_label
_atom_site_type_symbol
_atom_site_fract_x
_atom_site_fract_y
_atom_site_fract_z
_atom_type_partial_charge
H0 H 0.29519 0.02712 0.45466 0.0
H1 H 0.25468 0.18108 0.47103 0.0
H2 H 0.18758 0.06446 0.3734 0.0
H3 H 0.26212 0.21394 0.37108 0.0
C4 C 0.24095 0.22346 0.39491 0.0
O5 O 0.19711 0.16577 0.40878 0.0
H6 H 0.28112 0.25322 0.41524 0.0
C7 C 0.27377 0.05483 0.44493 0.0
C8 C 0.24008 0.03852 0.41136 0.0
C9 C 0.27933 0.10589 0.46666 0.0
C10 C 0.24987 0.14061 0.45489 0.0
C11 C 0.218 0.12652 0.42113 0.0
C12 C 0.21236 0.07501 0.39946 0.0
H13 H 0.01859 0.27782 0.45032 0.0
H14 H 0.88318 0.08214 0.47283 0.0
H15 H 0.97125 0.1231 0.37199 0.0
H16 H 0.81388 0.04248 0.37977 0.0
C17 C 0.81655 0.01366 0.40165 0.0
O18 O 0.8814 0.03351 0.41036 0.0
H19 H 0.79355 0.02111 0.42527 0.0
C20 C 0.99272 0.22702 0.44198 0.0
C21 C 1.00281 0.20621 0.40848 0.0
C22 C 0.95018 0.18268 0.46542 0.0
C23 C 0.91758 0.11688 0.4554 0.0
C24 C 0.92309 0.09567 0.42141 0.0
C25 C 0.96664 0.14005 0.3981 0.0
H26 H 0.76758 0.73157 0.45251 0.0
H27 H 0.96636 0.7744 0.47095 0.0
H28 H 0.91338 0.84012 0.37804 0.0
H29 H 0.98962 0.7703 0.36882 0.0
C30 C 0.02261 0.79096 0.39323 0.0
O31 O 1.00745 0.83165 0.41195 0.0
H32 H 1.01523 0.7505 0.40976 0.0
C33 C 0.81766 0.7541 0.44454 0.0
C34 C 0.83457 0.78759 0.41294 0.0
C35 C 0.86437 0.74874 0.46591 0.0
C36 C 0.92908 0.77741 0.45508 0.0
C37 C 0.94629 0.80927 0.42326 0.0
C38 C 0.89935 0.81505 0.40245 0.0
H39 H 0.03925 0.28857 0.61602 0.0
H40 H 0.18467 0.23691 0.59433 0.0
H41 H 0.086 0.18441 0.69185 0.0
H42 H 0.24216 0.26143 0.68984 0.0
C43 C 0.24341 0.23079 0.66743 0.0
O44 O 0.18028 0.18696 0.65489 0.0
H45 H 0.2708 0.26186 0.64563 0.0
C46 C 0.06689 0.26581 0.62414 0.0
C47 C 0.05521 0.23496 0.65663 0.0
C48 C 0.11299 0.26642 0.60134 0.0
C49 C 0.14772 0.23567 0.61116 0.0
C50 C 0.13941 0.20792 0.64407 0.0
C51 C 0.09253 0.20664 0.66661 0.0
H52 H 0.75264 0.75203 0.6151 0.0
H53 H 0.80872 0.94776 0.59673 0.0
H54 H 0.86613 0.90281 0.69598 0.0
H55 H 0.78627 0.98108 0.69112 0.0
C56 C 0.81431 0.00989 0.66876 0.0
O57 O 0.86027 0.99313 0.65981 0.0
H58 H 0.77895 0.99936 0.64584 0.0
C59 C 0.77801 0.80228 0.62433 0.0
C60 C 0.81219 0.82163 0.65781 0.0
C61 C 0.77701 0.8473 0.60208 0.0
C62 C 0.81042 0.91251 0.61333 0.0
C63 C 0.84001 0.93213 0.64754 0.0
C64 C 0.84215 0.88703 0.6697 0.0
H65 H 0.27853 0.99326 0.61205 0.0
H66 H 0.08384 0.83022 0.59574 0.0
H67 H 0.13484 0.95519 0.68967 0.0
H68 H 0.06369 0.81288 0.69896 0.0
C69 C 0.03062 0.79688 0.67452 0.0
O70 O 0.04235 0.84963 0.65567 0.0
H71 H 0.0402 0.76392 0.65767 0.0
C72 C 0.22963 0.96389 0.62126 0.0
C73 C 0.21279 0.98123 0.65356 0.0
C74 C 0.18379 0.90982 0.6001 0.0
C75 C 0.11977 0.87287 0.61136 0.0
C76 C 0.1025 0.88884 0.64378 0.0
C77 C 0.14872 0.94337 0.66466 0.0
H78 H 0.96178 0.36032 0.788 0.0
H79 H 0.92131 0.51429 0.80443 0.0
H80 H 0.85431 0.39783 0.70674 0.0
H81 H 0.92891 0.54729 0.7045 0.0
C82 C 0.90774 0.55681 0.72833 0.0
O83 O 0.86384 0.49911 0.74217 0.0
H84 H 0.9479 0.58652 0.74867 0.0
C85 C 0.94038 0.38805 0.77828 0.0
C86 C 0.90674 0.37181 0.7447 0.0
C87 C 0.94592 0.43908 0.80003 0.0
C88 C 0.91649 0.47383 0.78827 0.0
C89 C 0.88467 0.4598 0.75451 0.0
C90 C 0.87904 0.40832 0.73282 0.0
H91 H 0.68544 0.61121 0.78376 0.0
H92 H 0.5499 0.41552 0.8062 0.0
H93 H 0.63813 0.45654 0.70541 0.0
H94 H 0.48084 0.37597 0.71305 0.0
C95 C 0.48341 0.34712 0.73494 0.0
O96 O 0.54822 0.36694 0.74373 0.0
H97 H 0.46032 0.35456 0.75852 0.0
C98 C 0.65955 0.56042 0.77541 0.0
C99 C 0.66966 0.53963 0.74191 0.0
C100 C 0.61696 0.51608 0.79883 0.0
C101 C 0.58433 0.45027 0.78879 0.0
C102 C 0.58989 0.42909 0.7548 0.0
C103 C 0.63349 0.47348 0.73152 0.0
H104 H 0.4342 0.06491 0.78569 0.0
H105 H 0.63298 0.10782 0.80424 0.0
H106 H 0.58008 0.17335 0.71123 0.0
H107 H 0.65621 0.10268 0.70245 0.0
C108 C 0.68945 0.12414 0.72673 0.0
O109 O 0.67413 0.16492 0.74522 0.0
H110 H 0.68304 0.08484 0.74398 0.0
C111 C 0.4843 0.08743 0.77774 0.0
C112 C 0.50124 0.12091 0.74613 0.0
C113 C 0.53098 0.08209 0.79914 0.0
C114 C 0.59571 0.11078 0.78834 0.0
C115 C 0.61295 0.14256 0.7565 0.0
C116 C 0.56603 0.14831 0.73565 0.0
H117 H 0.70582 0.62183 0.94952 0.0
H118 H 0.85111 0.57004 0.92773 0.0
H119 H 0.75277 0.51781 1.02536 0.0
H120 H 0.90925 0.59528 1.02305 0.0
C121 C 0.91017 0.56433 1.00071 0.0
O122 O 0.84699 0.52033 0.98833 0.0
H123 H 0.93769 0.59605 0.97916 0.0
C124 C 0.73346 0.59906 0.95763 0.0
C125 C 0.72187 0.56827 0.99014 0.0
C126 C 0.77948 0.5996 0.93479 0.0
C127 C 0.81421 0.56883 0.94458 0.0
C128 C 0.80601 0.54118 0.97752 0.0
C129 C 0.75921 0.53997 1.0001 0.0
H130 H 0.41929 0.08516 0.9484 0.0
H131 H 0.47566 0.28091 0.9299 0.0
H132 H 0.53273 0.23598 0.02927 0.0
H133 H 0.45295 0.31435 1.02408 0.0
C134 C 0.48125 0.34333 1.00183 0.0
O135 O 0.5271 0.32633 0.99301 0.0
H136 H 0.44704 0.33365 0.97846 0.0
C137 C 0.44469 0.13542 0.95761 0.0
C138 C 0.47882 0.15479 0.99111 0.0
C139 C 0.44378 0.18044 0.93532 0.0
C140 C 0.47725 0.24566 0.94655 0.0
C141 C 0.50675 0.26529 0.98077 0.0
C142 C 0.50879 0.22019 1.00298 0.0
H143 H 0.94526 0.32667 0.94539 0.0
H144 H 0.75061 0.16358 0.92894 0.0
H145 H 0.80132 0.28853 1.02286 0.0
H146 H 0.73004 0.14661 0.03225 0.0
C147 C 0.69722 0.13027 1.0077 0.0
O148 O 0.70894 0.18297 0.9888 0.0
H149 H 0.70759 0.09728 0.9914 0.0
C150 C 0.89633 0.29727 0.95456 0.0
C151 C 0.87939 0.31458 0.98682 0.0
C152 C 0.85055 0.2432 0.93337 0.0
C153 C 0.78649 0.20623 0.94458 0.0
C154 C 0.76912 0.22219 0.97696 0.0
C155 C 0.81527 0.27672 0.99787 0.0
H156 H 0.62832 0.69366 0.12152 0.0
H157 H 0.58815 0.84789 0.13769 0.0
H158 H 0.52068 0.73084 0.04022 0.0
H159 H 0.59456 0.87967 0.03734 0.0
C160 C 0.57423 0.88974 0.06136 0.0
O161 O 0.53041 0.83233 0.07548 0.0
H162 H 0.61562 0.91969 0.08102 0.0
C163 C 0.60694 0.72138 0.11176 0.0
C164 C 0.57322 0.705 0.0782 0.0
C165 C 0.61262 0.77256 0.13344 0.0
C166 C 0.58322 0.80731 0.12161 0.0
C167 C 0.55124 0.79308 0.08788 0.0
C168 C 0.5455 0.74146 0.06627 0.0
H169 H 0.35217 0.94439 0.11703 0.0
H170 H 0.21672 0.74871 0.13951 0.0
H171 H 0.30484 0.7897 0.03868 0.0
H172 H 0.14756 0.70921 0.04639 0.0
C173 C 0.15013 0.68036 0.06828 0.0
O174 O 0.21494 0.70012 0.07703 0.0
H175 H 0.12711 0.68785 0.09188 0.0
C176 C 0.32631 0.8936 0.10868 0.0
C177 C 0.3364 0.87279 0.07518 0.0
C178 C 0.28374 0.84926 0.13212 0.0
C179 C 0.25114 0.78345 0.12209 0.0
C180 C 0.25666 0.76226 0.0881 0.0
C181 C 0.30023 0.80664 0.0648 0.0
H182 H 0.10074 0.39812 0.1191 0.0
H183 H 0.2994 0.44057 0.13746 0.0
H184 H 0.24653 0.50641 0.04457 0.0
H185 H 0.32274 0.43588 0.03559 0.0
C186 C 0.35589 0.45714 0.05991 0.0
O187 O 0.34056 0.49784 0.07847 0.0
H188 H 0.34936 0.41769 0.07708 0.0
C189 C 0.1508 0.42055 0.1111 0.0
C190 C 0.16773 0.45403 0.0795 0.0
C191 C 0.19747 0.41508 0.13244 0.0
C192 C 0.26215 0.44364 0.12159 0.0
C193 C 0.27938 0.47547 0.08977 0.0
C194 C 0.23248 0.48133 0.06898 0.0
H195 H 0.37248 0.955 0.28273 0.0
H196 H 0.5177 0.90308 0.26103 0.0
H197 H 0.41916 0.85085 0.3586 0.0
H198 H 0.57534 0.92786 0.3565 0.0
C199 C 0.57654 0.89714 0.33411 0.0
O200 O 0.51338 0.85328 0.32163 0.0
H201 H 0.60388 0.92813 0.31228 0.0
C202 C 0.40006 0.9322 0.29086 0.0
C203 C 0.3884 0.90139 0.32336 0.0
C204 C 0.44611 0.93271 0.26805 0.0
C205 C 0.48078 0.90191 0.27787 0.0
C206 C 0.47249 0.87422 0.3108 0.0
C207 C 0.42567 0.87303 0.33335 0.0
H208 H 0.08546 0.41855 0.28167 0.0
H209 H 0.14165 0.61431 0.26331 0.0
H210 H 0.19922 0.56933 0.36251 0.0
H211 H 0.11941 0.64768 0.35772 0.0
C212 C 0.14745 0.6765 0.33536 0.0
O213 O 0.19335 0.65968 0.32638 0.0
H214 H 0.11208 0.66604 0.31246 0.0
C215 C 0.11088 0.4688 0.2909 0.0
C216 C 0.14516 0.48815 0.32435 0.0
C217 C 0.10988 0.51384 0.26865 0.0
C218 C 0.14334 0.57905 0.2799 0.0
C219 C 0.173 0.59866 0.3141 0.0
C220 C 0.17516 0.55355 0.33625 0.0
H221 H 0.61193 0.65972 0.27884 0.0
H222 H 0.41714 0.49688 0.26237 0.0
H223 H 0.46809 0.62167 0.35637 0.0
H224 H 0.39681 0.47915 0.36547 0.0
C225 C 0.36374 0.46333 0.34103 0.0
O226 O 0.37559 0.51622 0.32228 0.0
H227 H 0.37321 0.43038 0.3241 0.0
C228 C 0.563 0.63037 0.28802 0.0
C229 C 0.54612 0.6477 0.3203 0.0
C230 C 0.51714 0.57637 0.26681 0.0
C231 C 0.45308 0.53947 0.27802 0.0
C232 C 0.43579 0.55541 0.31044 0.0
C233 C 0.482 0.60987 0.33136 0.0
Tb234 Tb 0.48439 0.97854 0.99321 0.0
Eu235 Eu 0.51842 0.04473 0.07539 0.0
C236 C 0.54218 0.92768 0.05171 0.0
C237 C 0.38602 0.92127 0.05254 0.0
C238 C 0.47461 0.97525 0.89471 0.0
C239 C 0.53819 0.00672 0.84183 0.0
C240 C 0.51992 0.97215 0.87266 0.0
C241 C 0.44696 0.01283 0.8848 0.0
C242 C 0.46553 0.04777 0.85409 0.0
C243 C 0.51163 0.04542 0.83219 0.0
C244 C 0.45876 0.94088 0.9283 0.0
O245 O 0.44814 0.04511 1.00029 0.0
O246 O 0.52354 0.12148 0.04015 0.0
O247 O 0.61584 0.08591 0.05132 0.0
O248 O 0.58063 0.0662 0.99194 0.0
C249 C 0.48336 0.10563 1.01198 0.0
O250 O 0.48232 0.07618 0.12001 0.0
O251 O 0.57328 0.07558 0.12662 0.0
O252 O 0.5238 0.95316 0.0771 0.0
O253 O 0.53871 0.93848 1.01808 0.0
O254 O 0.41244 0.90541 1.02678 0.0
O255 O 0.41107 0.98195 0.06241 0.0
C256 C 0.62734 0.09335 1.01747 0.0
O257 O 0.50849 0.94575 0.94694 0.0
O258 O 0.41785 0.94643 0.94855 0.0
C259 C 0.50284 0.04118 0.17403 0.0
C260 C 0.46125 0.9686 0.23501 0.0
C261 C 0.47469 0.03279 0.23581 0.0
C262 C 0.49559 0.06886 0.20557 0.0
C263 C 0.4868 0.97627 0.17273 0.0
C264 C 0.46663 0.94045 0.203 0.0
C265 C 0.52713 0.07965 0.14253 0.0
H266 H 0.57266 0.00244 0.82533 0.0
H267 H 0.54162 0.94314 0.87939 0.0
H268 H 0.41124 0.01569 0.90082 0.0
H269 H 0.44421 0.07722 0.84778 0.0
H270 H 0.47127 0.0558 0.26017 0.0
H271 H 0.50709 0.11865 0.20697 0.0
H272 H 0.49091 0.95358 0.14843 0.0
H273 H 0.45581 0.89088 0.2015 0.0
Tb274 Tb 0.05869 0.501 0.99637 0.0
Eu275 Eu 0.99167 0.4711 0.07363 0.0
C276 C 0.11262 0.61049 0.05677 0.0
C277 C 0.1172 0.46105 0.05887 0.0
C278 C 0.05823 0.49322 0.89969 0.0
C279 C 0.04627 0.46202 0.83694 0.0
C280 C 0.08297 0.48002 0.86933 0.0
C281 C 0.99607 0.48762 0.89741 0.0
C282 C 0.95962 0.47013 0.86506 0.0
C283 C 0.98434 0.4572 0.83448 0.0
C284 C 0.09636 0.5116 0.93386 0.0
O285 O 0.99069 0.39849 0.99937 0.0
O286 O 0.91393 0.39837 0.03422 0.0
O287 O 0.95375 0.52866 0.04738 0.0
O288 O 0.9703 0.50856 0.98959 0.0
C289 C 0.92956 0.37267 1.00789 0.0
O290 O 0.9548 0.40407 0.11621 0.0
O291 O 0.95904 0.49615 0.12181 0.0
O292 O 0.08616 0.56725 0.08082 0.0
O293 O 0.10086 0.59559 1.02263 0.0
O294 O 0.13248 0.50147 0.03331 0.0
O295 O 0.05684 0.42891 0.06851 0.0
C296 C 0.9457 0.53118 1.01311 0.0
O297 O 0.09607 0.55792 0.95259 0.0
O298 O 0.08684 0.46407 0.9533 0.0
C299 C 0.99281 0.46142 0.17121 0.0
C300 C 0.07065 0.49288 0.23458 0.0
C301 C 1.00475 0.44296 0.23306 0.0
C302 C 0.96595 0.42746 0.20152 0.0
C303 C 0.05923 0.50957 0.17236 0.0
C304 C 0.0977 0.52552 0.20385 0.0
C305 C 0.95288 0.44628 0.13797 0.0
H306 H 0.06672 0.45277 0.81369 0.0
H307 H 0.13064 0.48374 0.87065 0.0
H308 H 0.97567 0.49688 0.92062 0.0
H309 H 0.91179 0.46605 0.86403 0.0
H310 H 0.98276 0.41736 0.25652 0.0
H311 H 0.91501 0.38961 0.20089 0.0
H312 H 0.08122 0.53538 0.14897 0.0
H313 H 0.14854 0.56359 0.20426 0.0
Tb314 Tb 0.57078 0.52396 0.07189 0.0
Eu315 Eu 0.5338 0.55166 0.9917 0.0
C316 C 0.51339 0.41337 1.01244 0.0
C317 C 0.66914 0.56481 1.01211 0.0
C318 C 0.57728 0.52898 0.16925 0.0
C319 C 0.59736 0.56017 0.23219 0.0
C320 C 0.61722 0.54537 0.20044 0.0
C321 C 0.51707 0.52746 0.17019 0.0
C322 C 0.49698 0.54184 0.20196 0.0
C323 C 0.53707 0.55868 0.23327 0.0
C324 C 0.59891 0.51463 0.13574 0.0
O325 O 0.6044 0.6256 0.06719 0.0
O326 O 0.52681 0.62322 0.029 0.0
O327 O 0.4368 0.49587 1.01584 0.0
O328 O 0.47295 0.51267 0.07503 0.0
C329 C 0.56767 0.64933 0.05691 0.0
O330 O 0.56523 0.6191 0.94916 0.0
O331 O 0.48031 0.52371 0.94007 0.0
O332 O 0.53136 0.45592 0.98779 0.0
O333 O 0.51584 0.42902 0.04619 0.0
O334 O 0.64387 0.52374 0.03724 0.0
O335 O 0.64187 0.59811 1.00281 0.0
C336 C 0.42574 0.49214 0.04982 0.0
O337 O 0.55361 0.46694 0.11572 0.0
O338 O 0.63528 0.56404 0.11728 0.0
C339 C 0.55265 0.56493 0.89391 0.0
C340 C 0.60127 0.53789 0.83241 0.0
C341 C 0.57892 0.58227 0.83204 0.0
C342 C 0.55448 0.59547 0.86257 0.0
C343 C 0.57814 0.5232 0.89484 0.0
C344 C 0.60181 0.50943 0.86429 0.0
C345 C 0.52376 0.57573 0.92556 0.0
H346 H 0.62906 0.57245 0.25599 0.0
H347 H 0.66384 0.54693 0.20022 0.0
H348 H 0.48562 0.51541 0.14634 0.0
H349 H 0.45072 0.54105 0.20186 0.0
H350 H 0.57759 0.6045 0.80771 0.0
H351 H 0.53567 0.62832 0.86149 0.0
H352 H 0.57828 0.50005 0.91902 0.0
H353 H 0.61926 0.47547 0.86532 0.0
Tb354 Tb 0.15088 0.3118 0.32653 0.0
Eu355 Eu 0.18484 0.37821 0.40866 0.0
C356 C 0.20842 0.26091 0.38516 0.0
C357 C 0.05245 0.25466 0.38584 0.0
C358 C 0.14113 0.3083 0.22804 0.0
C359 C 0.20447 0.3395 0.17506 0.0
C360 C 0.18621 0.30496 0.2059 0.0
C361 C 0.11371 0.34613 0.21821 0.0
C362 C 0.13227 0.38103 0.18749 0.0
C363 C 0.17812 0.37843 0.1655 0.0
C364 C 0.12534 0.27399 0.26164 0.0
O365 O 0.1147 0.37849 0.33343 0.0
O366 O 0.18994 0.45486 0.37336 0.0
O367 O 0.28229 0.41934 0.38463 0.0
O368 O 0.24715 0.39939 0.32525 0.0
C369 C 0.14983 0.439 0.34516 0.0
O370 O 0.14859 0.40956 0.45326 0.0
O371 O 0.23977 0.40939 0.45987 0.0
O372 O 0.19034 0.28673 0.41053 0.0
O373 O 0.20507 0.27171 0.35151 0.0
O374 O 0.07889 0.23876 0.36011 0.0
O375 O 0.07749 0.31536 0.39567 0.0
C376 C 0.29383 0.42664 0.35078 0.0
O377 O 0.17514 0.27905 0.2803 0.0
O378 O 0.08435 0.27944 0.28186 0.0
C379 C 0.16939 0.37484 0.5073 0.0
C380 C 0.12807 0.30231 0.56831 0.0
C381 C 0.14136 0.36645 0.5691 0.0
C382 C 0.16211 0.4025 0.53884 0.0
C383 C 0.15352 0.30999 0.50601 0.0
C384 C 0.13349 0.27419 0.5363 0.0
C385 C 0.19351 0.41328 0.47578 0.0
H386 H 0.23877 0.33505 0.1585 0.0
H387 H 0.20774 0.27577 0.21257 0.0
H388 H 0.07819 0.34919 0.2343 0.0
H389 H 0.11114 0.41068 0.18124 0.0
H390 H 0.1379 0.38943 0.59346 0.0
H391 H 0.17349 0.45224 0.54024 0.0
H392 H 0.15766 0.28731 0.48172 0.0
H393 H 0.12278 0.22466 0.53481 0.0
Tb394 Tb 0.72531 0.83428 0.32978 0.0
Eu395 Eu 0.65845 0.80433 0.40708 0.0
C396 C 0.77911 0.94378 0.39015 0.0
C397 C 0.78398 0.79443 0.39226 0.0
C398 C 0.72498 0.8268 0.23309 0.0
C399 C 0.71289 0.79533 0.17037 0.0
C400 C 0.74959 0.81332 0.20276 0.0
C401 C 0.66296 0.82152 0.23077 0.0
C402 C 0.6265 0.80403 0.19841 0.0
C403 C 0.65109 0.79079 0.16788 0.0
C404 C 0.76305 0.84506 0.26728 0.0
O405 O 0.6574 0.73173 0.33274 0.0
O406 O 0.5807 0.73142 0.36774 0.0
O407 O 0.62027 0.8616 0.38076 0.0
O408 O 0.63676 0.84154 0.32295 0.0
C409 C 0.59631 0.7058 0.34136 0.0
O410 O 0.62176 0.73736 0.44969 0.0
O411 O 0.6259 0.8294 0.45528 0.0
O412 O 0.7529 0.90052 0.41421 0.0
O413 O 0.76712 0.92886 0.35602 0.0
O414 O 0.79919 0.83488 0.36673 0.0
O415 O 0.72361 0.76215 0.40186 0.0
C416 C 0.61152 0.86345 0.34649 0.0
O417 O 0.76278 0.89134 0.28606 0.0
O418 O 0.75348 0.79745 0.28667 0.0
C419 C 0.65982 0.79478 0.50466 0.0
C420 C 0.73776 0.82631 0.568 0.0
C421 C 0.6719 0.7763 0.56649 0.0
C422 C 0.63306 0.76076 0.53497 0.0
C423 C 0.7262 0.84303 0.50581 0.0
C424 C 0.76472 0.85901 0.53728 0.0
C425 C 0.61983 0.77958 0.47145 0.0
H426 H 0.73324 0.78586 0.14716 0.0
H427 H 0.79714 0.8168 0.20411 0.0
H428 H 0.64265 0.83101 0.25395 0.0
H429 H 0.57877 0.80016 0.19736 0.0
H430 H 0.64997 0.75065 0.58995 0.0
H431 H 0.58215 0.72283 0.53435 0.0
H432 H 0.74812 0.86889 0.48242 0.0
H433 H 0.81552 0.89716 0.53768 0.0
Tb434 Tb 0.23744 0.85746 0.40515 0.0
Eu435 Eu 0.2004 0.88499 0.32493 0.0
C436 C 0.17908 0.74656 0.34585 0.0
C437 C 0.33566 0.89799 0.34531 0.0
C438 C 0.24398 0.86256 0.50253 0.0
C439 C 0.26406 0.89374 0.56546 0.0
C440 C 0.28396 0.87903 0.53371 0.0
C441 C 0.1837 0.86088 0.50348 0.0
C442 C 0.16357 0.87519 0.53526 0.0
C443 C 0.20371 0.89212 0.56656 0.0
C444 C 0.26567 0.8483 0.46901 0.0
O445 O 0.27123 0.95912 0.4003 0.0
O446 O 0.19356 0.95669 0.36218 0.0
O447 O 0.10344 0.82938 0.34912 0.0
O448 O 0.13969 0.84639 0.4083 0.0
C449 C 0.23451 0.98286 0.39005 0.0
O450 O 0.23174 0.95233 0.28234 0.0
O451 O 0.14691 0.85686 0.2733 0.0
O452 O 0.19774 0.78912 0.32119 0.0
O453 O 0.18216 0.76241 0.37961 0.0
O454 O 0.31036 0.85697 0.37047 0.0
O455 O 0.30846 0.93133 0.33597 0.0
C456 C 0.09243 0.82563 0.3831 0.0
O457 O 0.22045 0.80053 0.449 0.0
O458 O 0.30191 0.89774 0.45054 0.0
C459 C 0.21925 0.89808 0.22713 0.0
C460 C 0.26801 0.87108 0.16568 0.0
C461 C 0.24559 0.91541 0.16527 0.0
C462 C 0.22109 0.92859 0.19578 0.0
C463 C 0.24481 0.8564 0.2281 0.0
C464 C 0.26854 0.84264 0.19757 0.0
C465 C 0.19031 0.90887 0.25876 0.0
H466 H 0.29579 0.9061 0.58925 0.0
H467 H 0.33064 0.88071 0.53347 0.0
H468 H 0.15222 0.84877 0.47964 0.0
H469 H 0.11726 0.87428 0.53517 0.0
H470 H 0.24426 0.9376 0.14093 0.0
H471 H 0.20224 0.9614 0.19467 0.0
H472 H 0.24494 0.83327 0.25229 0.0
H473 H 0.28603 0.80873 0.19863 0.0
Tb474 Tb 0.81776 0.64528 0.65998 0.0
Eu475 Eu 0.85171 0.71162 0.74214 0.0
C476 C 0.87526 0.59432 0.71859 0.0
C477 C 0.71932 0.58809 0.71928 0.0
C478 C 0.80806 0.64192 0.56149 0.0
C479 C 0.87156 0.67332 0.50857 0.0
C480 C 0.8533 0.63876 0.53941 0.0
C481 C 0.78048 0.67958 0.55161 0.0
C482 C 0.79903 0.71451 0.5209 0.0
C483 C 0.84505 0.71208 0.49897 0.0
C484 C 0.79223 0.60756 0.59508 0.0
O485 O 0.7816 0.71196 0.66695 0.0
O486 O 0.85688 0.78832 0.70686 0.0
O487 O 0.94917 0.75281 0.71812 0.0
O488 O 0.91405 0.73286 0.65872 0.0
C489 C 0.81678 0.77248 0.67866 0.0
O490 O 0.81546 0.74299 0.78673 0.0
O491 O 0.90652 0.74261 0.79339 0.0
O492 O 0.8572 0.62013 0.74397 0.0
O493 O 0.87192 0.60513 0.68495 0.0
O494 O 0.74576 0.57221 0.69354 0.0
O495 O 0.74436 0.64879 0.72913 0.0
C496 C 0.96071 0.76012 0.68427 0.0
O497 O 0.84199 0.61255 0.61374 0.0
O498 O 0.75125 0.61302 0.61531 0.0
C499 C 0.83602 0.70809 0.84077 0.0
C500 C 0.79455 0.63549 0.90176 0.0
C501 C 0.80795 0.69967 0.90257 0.0
C502 C 0.82879 0.73575 0.87232 0.0
C503 C 0.82001 0.64319 0.83946 0.0
C504 C 0.7999 0.60736 0.86973 0.0
C505 C 0.86028 0.74658 0.80927 0.0
H506 H 0.90598 0.66899 0.49205 0.0
H507 H 0.87496 0.6097 0.54612 0.0
H508 H 0.74481 0.68249 0.56766 0.0
H509 H 0.77777 0.74403 0.51461 0.0
H510 H 0.80455 0.72267 0.92694 0.0
H511 H 0.84028 0.78553 0.87374 0.0
H512 H 0.82411 0.62051 0.81516 0.0
H513 H 0.78911 0.5578 0.86822 0.0
Tb514 Tb 0.39209 0.16778 0.66302 0.0
Eu515 Eu 0.32526 0.1378 0.74032 0.0
C516 C 0.44597 0.27725 0.72342 0.0
C517 C 0.45069 0.12779 0.72544 0.0
C518 C 0.39166 0.16014 0.56633 0.0
C519 C 0.37967 0.12884 0.50358 0.0
C520 C 0.41638 0.14687 0.53597 0.0
C521 C 0.32953 0.15459 0.56402 0.0
C522 C 0.29307 0.13707 0.53167 0.0
C523 C 0.31776 0.12406 0.50111 0.0
C524 C 0.42978 0.17851 0.6005 0.0
O525 O 0.32409 0.06525 0.66595 0.0
O526 O 0.24744 0.06498 0.70098 0.0
O527 O 0.2871 0.19513 0.71404 0.0
O528 O 0.3036 0.17517 0.65621 0.0
C529 C 0.26301 0.03935 0.67458 0.0
O530 O 0.28852 0.07076 0.78289 0.0
O531 O 0.29279 0.16285 0.78856 0.0
O532 O 0.41973 0.23397 0.74746 0.0
O533 O 0.43401 0.26235 0.68928 0.0
O534 O 0.46595 0.16831 0.69994 0.0
O535 O 0.39031 0.09552 0.73503 0.0
C536 C 0.27837 0.19705 0.67978 0.0
O537 O 0.42943 0.22478 0.61926 0.0
O538 O 0.42031 0.13097 0.61992 0.0
C539 C 0.32665 0.12806 0.83789 0.0
C540 C 0.40457 0.15945 0.90123 0.0
C541 C 0.33868 0.10951 0.89972 0.0
C542 C 0.29985 0.09405 0.8682 0.0
C543 C 0.39307 0.17621 0.83904 0.0
C544 C 0.43158 0.19213 0.87051 0.0
C545 C 0.28666 0.11297 0.80469 0.0
H546 H 0.40011 0.11954 0.48035 0.0
H547 H 0.46403 0.15055 0.5373 0.0
H548 H 0.30913 0.16391 0.58723 0.0
H549 H 0.24525 0.13302 0.53064 0.0
H550 H 0.3167 0.08389 0.92318 0.0
H551 H 0.24891 0.05619 0.86757 0.0
H552 H 0.41502 0.20206 0.81565 0.0
H553 H 0.48241 0.23022 0.87091 0.0
Tb554 Tb 0.90433 0.19092 0.73847 0.0
Eu555 Eu 0.86703 0.2183 0.65827 0.0
C556 C 0.84587 0.07994 0.67922 0.0
C557 C 1.00242 0.23145 0.67857 0.0
C558 C 0.911 0.1961 0.83583 0.0
C559 C 0.93096 0.22727 0.89878 0.0
C560 C 0.95094 0.21261 0.86703 0.0
C561 C 0.85066 0.19431 0.83677 0.0
C562 C 0.83046 0.20857 0.86853 0.0
C563 C 0.87056 0.22555 0.89984 0.0
C564 C 0.93277 0.18193 0.80232 0.0
O565 O 0.93803 0.29254 0.73355 0.0
O566 O 0.86019 0.28999 0.69553 0.0
O567 O 0.77014 0.16276 0.68255 0.0
O568 O 0.80655 0.17969 0.74171 0.0
C569 C 0.90121 0.31621 0.72336 0.0
O570 O 0.89816 0.28562 0.61567 0.0
O571 O 0.81346 0.19006 0.60666 0.0
O572 O 0.86442 0.12246 0.65454 0.0
O573 O 0.84904 0.09583 0.71298 0.0
O574 O 0.97721 0.19047 0.70375 0.0
O575 O 0.97513 0.26471 0.66922 0.0
C576 C 0.75924 0.15912 0.71655 0.0
O577 O 0.88765 0.13406 0.78233 0.0
O578 O 0.96884 0.23141 0.78384 0.0
C579 C 0.88571 0.23139 0.56047 0.0
C580 C 0.93448 0.2045 0.49899 0.0
C581 C 0.91193 0.24872 0.49859 0.0
C582 C 0.88742 0.26185 0.52912 0.0
C583 C 0.9114 0.18983 0.56143 0.0
C584 C 0.93514 0.17613 0.53088 0.0
C585 C 0.85675 0.24211 0.59211 0.0
H586 H 0.96267 0.23966 0.92257 0.0
H587 H 0.99766 0.21437 0.86682 0.0
H588 H 0.8192 0.18216 0.81291 0.0
H589 H 0.78411 0.20759 0.86842 0.0
H590 H 0.9105 0.27086 0.47425 0.0
H591 H 0.86845 0.29457 0.52802 0.0
H592 H 0.91163 0.16675 0.58562 0.0
H593 H 0.95273 0.14229 0.53193 0.0
loop_
_geom_bond_atom_site_label_1
_geom_bond_atom_site_label_2
_geom_bond_distance
_geom_bond_site_symmetry_2
_ccdc_geom_bond_type
H0 C7 0.929 . S
H1 C10 0.930 . S
H2 C12 0.929 . S
H3 C4 0.969 . S
C4 H3 0.969 . S
C4 O5 1.550 . S
C4 H6 0.973 . S
O5 C4 1.550 . S
O5 C11 1.412 . S
H6 C4 0.973 . S
C7 H0 0.929 . S
C7 C8 1.400 . S
C7 C9 1.364 . S
C8 C7 1.400 . S
C8 C12 1.377 . S
C9 C7 1.364 . S
C9 C10 1.374 . S
C10 H1 0.930 . S
C10 C9 1.374 . S
C10 C11 1.383 . S
C11 O5 1.412 . S
C11 C10 1.383 . S
C11 C12 1.394 . S
C12 H2 0.929 . S
C12 C8 1.377 . S
C12 C11 1.394 . S
H13 C20 0.929 . S
H14 C23 0.930 . S
H15 C25 0.929 . S
H16 C17 0.969 1_545 S
C17 H16 0.969 1_565 S
C17 O18 1.550 1_565 S
C17 H19 0.973 . S
O18 C17 1.550 1_545 S
O18 C24 1.412 . S
H19 C17 0.973 . S
C20 H13 0.929 . S
C20 C21 1.400 . S
C20 C22 1.364 . S
C21 C20 1.400 . S
C21 C25 1.377 . S
C22 C20 1.364 . S
C22 C23 1.374 . S
C23 H14 0.930 . S
C23 C22 1.374 . S
C23 C24 1.383 . S
C24 O18 1.412 . S
C24 C23 1.383 . S
C24 C25 1.394 . S
C25 H15 0.929 . S
C25 C21 1.377 . S
C25 C24 1.394 . S
H26 C33 0.929 . S
H27 C36 0.930 . S
H28 C38 0.929 . S
H29 C30 0.969 . S
C30 H29 0.969 . S
C30 O31 1.549 . S
C30 H32 0.973 . S
O31 C30 1.549 . S
O31 C37 1.413 1_455 S
H32 C30 0.973 . S
C33 H26 0.929 . S
C33 C34 1.400 . S
C33 C35 1.364 . S
C34 C33 1.400 . S
C34 C38 1.377 . S
C35 C33 1.364 . S
C35 C36 1.374 . S
C36 H27 0.930 . S
C36 C35 1.374 . S
C36 C37 1.383 . S
C37 O31 1.413 1_655 S
C37 C36 1.383 . S
C37 C38 1.394 . S
C38 H28 0.929 . S
C38 C34 1.377 . S
C38 C37 1.394 . S
H39 C46 0.929 . S
H40 C49 0.930 . S
H41 C51 0.929 . S
H42 C43 0.969 . S
C43 H42 0.969 . S
C43 O44 1.550 . S
C43 H45 0.973 . S
O44 C43 1.550 . S
O44 C50 1.412 . S
H45 C43 0.973 . S
C46 H39 0.929 . S
C46 C47 1.400 . S
C46 C48 1.364 . S
C47 C46 1.400 . S
C47 C51 1.377 . S
C48 C46 1.364 . S
C48 C49 1.374 . S
C49 H40 0.930 . S
C49 C48 1.374 . S
C49 C50 1.383 . S
C50 O44 1.412 . S
C50 C49 1.383 . S
C50 C51 1.394 . S
C51 H41 0.929 . S
C51 C47 1.377 . S
C51 C50 1.394 . S
H52 C59 0.929 . S
H53 C62 0.930 . S
H54 C64 0.929 . S
H55 C56 0.969 1_565 S
C56 H55 0.969 1_545 S
C56 O57 1.550 1_545 S
C56 H58 0.973 . S
O57 C56 1.550 1_565 S
O57 C63 1.412 . S
H58 C56 0.973 . S
C59 H52 0.929 . S
C59 C60 1.400 . S
C59 C61 1.364 . S
C60 C59 1.400 . S
C60 C64 1.377 . S
C61 C59 1.364 . S
C61 C62 1.374 . S
C62 H53 0.930 . S
C62 C61 1.374 . S
C62 C63 1.383 . S
C63 O57 1.412 . S
C63 C62 1.383 . S
C63 C64 1.394 . S
C64 H54 0.929 . S
C64 C60 1.377 . S
C64 C63 1.394 . S
H65 C72 0.929 . S
H66 C75 0.930 . S
H67 C77 0.929 . S
H68 C69 0.969 1_455 S
C69 H68 0.969 1_655 S
C69 O70 1.550 1_655 S
C69 H71 0.973 . S
O70 C69 1.550 1_455 S
O70 C76 1.412 . S
H71 C69 0.973 . S
C72 H65 0.929 . S
C72 C73 1.400 . S
C72 C74 1.364 . S
C73 C72 1.400 . S
C73 C77 1.377 . S
C74 C72 1.364 . S
C74 C75 1.374 . S
C75 H66 0.930 . S
C75 C74 1.374 . S
C75 C76 1.383 . S
C76 O70 1.412 . S
C76 C75 1.383 . S
C76 C77 1.394 . S
C77 H67 0.929 . S
C77 C73 1.377 . S
C77 C76 1.394 . S
H78 C85 0.929 . S
H79 C88 0.930 . S
H80 C90 0.929 . S
H81 C82 0.969 . S
C82 H81 0.969 . S
C82 O83 1.550 . S
C82 H84 0.973 . S
O83 C82 1.550 . S
O83 C89 1.412 . S
H84 C82 0.973 . S
C85 H78 0.929 . S
C85 C86 1.400 . S
C85 C87 1.364 . S
C86 C85 1.400 . S
C86 C90 1.377 . S
C87 C85 1.364 . S
C87 C88 1.374 . S
C88 H79 0.930 . S
C88 C87 1.374 . S
C88 C89 1.383 . S
C89 O83 1.412 . S
C89 C88 1.383 . S
C89 C90 1.394 . S
C90 H80 0.929 . S
C90 C86 1.377 . S
C90 C89 1.394 . S
H91 C98 0.929 . S
H92 C101 0.930 . S
H93 C103 0.929 . S
H94 C95 0.969 . S
C95 H94 0.969 . S
C95 O96 1.550 . S
C95 H97 0.973 . S
O96 C95 1.550 . S
O96 C102 1.412 . S
H97 C95 0.973 . S
C98 H91 0.929 . S
C98 C99 1.400 . S
C98 C100 1.364 . S
C99 C98 1.400 . S
C99 C103 1.377 . S
C100 C98 1.364 . S
C100 C101 1.374 . S
C101 H92 0.930 . S
C101 C100 1.374 . S
C101 C102 1.383 . S
C102 O96 1.412 . S
C102 C101 1.383 . S
C102 C103 1.394 . S
C103 H93 0.929 . S
C103 C99 1.377 . S
C103 C102 1.394 . S
H104 C111 0.929 . S
H105 C114 0.930 . S
H106 C116 0.929 . S
H107 C108 0.969 . S
C108 H107 0.969 . S
C108 O109 1.550 . S
C108 H110 0.973 . S
O109 C108 1.550 . S
O109 C115 1.412 . S
H110 C108 0.973 . S
C111 H104 0.929 . S
C111 C112 1.400 . S
C111 C113 1.364 . S
C112 C111 1.400 . S
C112 C116 1.377 . S
C113 C111 1.364 . S
C113 C114 1.374 . S
C114 H105 0.930 . S
C114 C113 1.374 . S
C114 C115 1.383 . S
C115 O109 1.412 . S
C115 C114 1.383 . S
C115 C116 1.394 . S
C116 H106 0.929 . S
C116 C112 1.377 . S
C116 C115 1.394 . S
H117 C124 0.929 . S
H118 C127 0.930 . S
H119 C129 0.929 . S
H120 C121 0.969 . S
C121 H120 0.969 . S
C121 O122 1.550 . S
C121 H123 0.973 . S
O122 C121 1.550 . S
O122 C128 1.412 . S
H123 C121 0.973 . S
C124 H117 0.929 . S
C124 C125 1.400 . S
C124 C126 1.364 . S
C125 C124 1.400 . S
C125 C129 1.377 . S
C126 C124 1.364 . S
C126 C127 1.374 . S
C127 H118 0.930 . S
C127 C126 1.374 . S
C127 C128 1.383 . S
C128 O122 1.412 . S
C128 C127 1.383 . S
C128 C129 1.394 . S
C129 H119 0.929 . S
C129 C125 1.377 . S
C129 C128 1.394 . S
H130 C137 0.929 . S
H131 C140 0.930 . S
H132 C142 0.929 . S
H133 C134 0.969 . S
C134 H133 0.969 . S
C134 O135 1.550 1_556 S
C134 H136 0.973 . S
O135 C134 1.550 1_554 S
O135 C141 1.412 1_554 S
H136 C134 0.973 . S
C137 H130 0.929 . S
C137 C138 1.400 . S
C137 C139 1.364 . S
C138 C137 1.400 . S
C138 C142 1.377 1_556 S
C139 C137 1.364 . S
C139 C140 1.374 . S
C140 H131 0.930 . S
C140 C139 1.374 . S
C140 C141 1.383 . S
C141 O135 1.412 1_556 S
C141 C140 1.383 . S
C141 C142 1.394 1_556 S
C142 H132 0.929 . S
C142 C138 1.377 1_554 S
C142 C141 1.394 1_554 S
H143 C150 0.929 . S
H144 C153 0.930 . S
H145 C155 0.929 1_554 S
H146 C147 0.969 . S
C147 H146 0.969 . S
C147 O148 1.550 . S
C147 H149 0.973 . S
O148 C147 1.550 . S
O148 C154 1.412 . S
H149 C147 0.973 . S
C150 H143 0.929 . S
C150 C151 1.400 . S
C150 C152 1.364 . S
C151 C150 1.400 . S
C151 C155 1.377 . S
C152 C150 1.364 . S
C152 C153 1.374 . S
C153 H144 0.930 . S
C153 C152 1.374 . S
C153 C154 1.383 . S
C154 O148 1.412 . S
C154 C153 1.383 . S
C154 C155 1.394 . S
C155 H145 0.929 1_556 S
C155 C151 1.377 . S
C155 C154 1.394 . S
H156 C163 0.929 . S
H157 C166 0.930 . S
H158 C168 0.929 1_556 S
H159 C160 0.969 . S
C160 H159 0.969 . S
C160 O161 1.550 . S
C160 H162 0.973 . S
O161 C160 1.550 . S
O161 C167 1.412 . S
H162 C160 0.973 . S
C163 H156 0.929 . S
C163 C164 1.400 . S
C163 C165 1.364 . S
C164 C163 1.400 . S
C164 C168 1.377 . S
C165 C163 1.364 . S
C165 C166 1.374 . S
C166 H157 0.930 . S
C166 C165 1.374 . S
C166 C167 1.383 . S
C167 O161 1.412 . S
C167 C166 1.383 . S
C167 C168 1.394 . S
C168 H158 0.929 1_554 S
C168 C164 1.377 . S
C168 C167 1.394 . S
H169 C176 0.929 . S
H170 C179 0.930 . S
H171 C181 0.929 1_556 S
H172 C173 0.969 . S
C173 H172 0.969 . S
C173 O174 1.550 . S
C173 H175 0.973 . S
O174 C173 1.550 . S
O174 C180 1.412 . S
H175 C173 0.973 . S
C176 H169 0.929 . S
C176 C177 1.400 . S
C176 C178 1.364 . S
C177 C176 1.400 . S
C177 C181 1.377 . S
C178 C176 1.364 . S
C178 C179 1.374 . S
C179 H170 0.930 . S
C179 C178 1.374 . S
C179 C180 1.383 . S
C180 O174 1.412 . S
C180 C179 1.383 . S
C180 C181 1.394 . S
C181 H171 0.929 1_554 S
C181 C177 1.377 . S
C181 C180 1.394 . S
H182 C189 0.929 . S
H183 C192 0.930 . S
H184 C194 0.929 . S
H185 C186 0.969 . S
C186 H185 0.969 . S
C186 O187 1.550 . S
C186 H188 0.973 . S
O187 C186 1.550 . S
O187 C193 1.412 . S
H188 C186 0.973 . S
C189 H182 0.929 . S
C189 C190 1.400 . S
C189 C191 1.364 . S
C190 C189 1.400 . S
C190 C194 1.377 . S
C191 C189 1.364 . S
C191 C192 1.374 . S
C192 H183 0.930 . S
C192 C191 1.374 . S
C192 C193 1.383 . S
C193 O187 1.412 . S
C193 C192 1.383 . S
C193 C194 1.394 . S
C194 H184 0.929 . S
C194 C190 1.377 . S
C194 C193 1.394 . S
H195 C202 0.929 . S
H196 C205 0.930 . S
H197 C207 0.929 . S
H198 C199 0.969 . S
C199 H198 0.969 . S
C199 O200 1.550 . S
C199 H201 0.973 . S
O200 C199 1.550 . S
O200 C206 1.412 . S
H201 C199 0.973 . S
C202 H195 0.929 . S
C202 C203 1.400 . S
C202 C204 1.364 . S
C203 C202 1.400 . S
C203 C207 1.377 . S
C204 C202 1.364 . S
C204 C205 1.374 . S
C205 H196 0.930 . S
C205 C204 1.374 . S
C205 C206 1.383 . S
C206 O200 1.412 . S
C206 C205 1.383 . S
C206 C207 1.394 . S
C207 H197 0.929 . S
C207 C203 1.377 . S
C207 C206 1.394 . S
H208 C215 0.929 . S
H209 C218 0.930 . S
H210 C220 0.929 . S
H211 C212 0.969 . S
C212 H211 0.969 . S
C212 O213 1.550 . S
C212 H214 0.973 . S
O213 C212 1.550 . S
O213 C219 1.412 . S
H214 C212 0.973 . S
C215 H208 0.929 . S
C215 C216 1.400 . S
C215 C217 1.364 . S
C216 C215 1.400 . S
C216 C220 1.377 . S
C217 C215 1.364 . S
C217 C218 1.374 . S
C218 H209 0.930 . S
C218 C217 1.374 . S
C218 C219 1.383 . S
C219 O213 1.412 . S
C219 C218 1.383 . S
C219 C220 1.394 . S
C220 H210 0.929 . S
C220 C216 1.377 . S
C220 C219 1.394 . S
H221 C228 0.929 . S
H222 C231 0.930 . S
H223 C233 0.929 . S
H224 C225 0.969 . S
C225 H224 0.969 . S
C225 O226 1.550 . S
C225 H227 0.973 . S
O226 C225 1.550 . S
O226 C232 1.412 . S
H227 C225 0.973 . S
C228 H221 0.929 . S
C228 C229 1.400 . S
C228 C230 1.364 . S
C229 C228 1.400 . S
C229 C233 1.377 . S
C230 C228 1.364 . S
C230 C231 1.374 . S
C231 H222 0.930 . S
C231 C230 1.374 . S
C231 C232 1.383 . S
C232 O226 1.412 . S
C232 C231 1.383 . S
C232 C233 1.394 . S
C233 H223 0.929 . S
C233 C229 1.377 . S
C233 C232 1.394 . S
Tb234 C244 2.825 1_565 S
Tb234 O245 2.347 1_565 S
Tb234 O248 2.366 1_565 S
Tb234 O253 2.418 . S
Tb234 O254 2.384 . S
Tb234 O257 2.479 . S
Tb234 O258 2.471 1_565 S
Eu235 O246 2.418 . S
Eu235 O247 2.384 . S
Eu235 O250 2.479 . S
Eu235 O251 2.471 1_545 S
Eu235 O252 2.347 1_545 S
Eu235 O255 2.366 1_545 S
Eu235 C265 2.825 . S
C236 O252 1.259 . S
C236 O253 1.265 1_554 S
C237 O254 1.255 1_554 S
C237 O255 1.265 . S
C238 C240 1.380 1_545 S
C238 C241 1.374 . S
C238 C244 1.507 . S
C239 C240 1.384 1_545 S
C239 C243 1.387 . S
C239 H266 0.930 1_545 S
C240 C238 1.380 1_565 S
C240 C239 1.384 1_565 S
C240 H267 0.931 . S
C241 C238 1.374 . S
C241 C242 1.390 . S
C241 H268 0.930 . S
C242 C241 1.390 . S
C242 C243 1.391 . S
C242 H269 0.930 . S
C243 C239 1.387 . S
C243 C242 1.391 . S
C244 Tb234 2.825 1_545 S
C244 C238 1.507 . S
C244 O257 1.238 1_545 S
C244 O258 1.247 . S
O245 Tb234 2.347 1_545 S
O245 C249 1.259 1_556 S
O246 Eu235 2.418 . S
O246 C249 1.265 . S
O247 Eu235 2.384 . S
O247 C256 1.255 1_554 S
O248 Tb234 2.366 1_545 S
O248 C256 1.265 . S
C249 O245 1.259 1_554 S
C249 O246 1.265 . S
O250 Eu235 2.479 . S
O250 C265 1.238 . S
O251 Eu235 2.471 1_565 S
O251 C265 1.247 1_565 S
O252 Eu235 2.347 1_565 S
O252 C236 1.259 . S
O253 Tb234 2.418 . S
O253 C236 1.265 1_556 S
O254 Tb234 2.384 . S
O254 C237 1.255 1_556 S
O255 Eu235 2.366 1_565 S
O255 C237 1.265 . S
C256 O247 1.255 1_556 S
C256 O248 1.265 . S
O257 Tb234 2.479 . S
O257 C244 1.238 1_565 S
O258 Tb234 2.471 1_545 S
O258 C244 1.247 . S
C259 C262 1.380 . S
C259 C263 1.374 1_545 S
C259 C265 1.507 . S
C260 C261 1.387 1_565 S
C260 C264 1.391 . S
C261 C260 1.387 1_545 S
C261 C262 1.384 . S
C261 H270 0.930 . S
C262 C259 1.380 . S
C262 C261 1.384 . S
C262 H271 0.931 . S
C263 C259 1.374 1_565 S
C263 C264 1.390 . S
C263 H272 0.930 . S
C264 C260 1.391 . S
C264 C263 1.390 . S
C264 H273 0.930 . S
C265 Eu235 2.825 . S
C265 O250 1.238 . S
C265 O251 1.247 1_545 S
C265 C259 1.507 . S
H266 C239 0.930 1_565 S
H267 C240 0.931 . S
H268 C241 0.930 . S
H269 C242 0.930 . S
H270 C261 0.930 . S
H271 C262 0.931 . S
H272 C263 0.930 . S
H273 C264 0.930 . S
Tb274 C284 2.825 . S
Tb274 O285 2.347 1_455 S
Tb274 O288 2.366 1_455 S
Tb274 O293 2.418 . S
Tb274 O294 2.384 1_556 S
Tb274 O297 2.479 . S
Tb274 O298 2.471 1_455 S
Eu275 O286 2.418 . S
Eu275 O287 2.384 . S
Eu275 O290 2.479 . S
Eu275 O291 2.471 1_655 S
Eu275 O292 2.347 1_655 S
Eu275 O295 2.366 1_655 S
Eu275 C305 2.825 1_655 S
C276 O292 1.259 . S
C276 O293 1.265 1_554 S
C277 O294 1.255 . S
C277 O295 1.265 . S
C278 C280 1.380 1_655 S
C278 C281 1.374 . S
C278 C284 1.507 1_655 S
C279 C280 1.385 . S
C279 C283 1.387 1_455 S
C279 H306 0.930 . S
C280 C278 1.380 1_455 S
C280 C279 1.385 . S
C280 H307 0.931 . S
C281 C278 1.374 . S
C281 C282 1.390 . S
C281 H308 0.930 . S
C282 C281 1.390 . S
C282 C283 1.391 . S
C282 H309 0.930 . S
C283 C279 1.387 1_655 S
C283 C282 1.391 . S
C284 Tb274 2.825 . S
C284 C278 1.507 1_455 S
C284 O297 1.238 . S
C284 O298 1.247 1_455 S
O285 Tb274 2.347 1_655 S
O285 C289 1.259 . S
O286 Eu275 2.418 . S
O286 C289 1.265 1_554 S
O287 Eu275 2.384 . S
O287 C296 1.255 1_554 S
O288 Tb274 2.366 1_655 S
O288 C296 1.265 . S
C289 O285 1.259 . S
C289 O286 1.265 1_556 S
O290 Eu275 2.479 . S
O290 C305 1.238 1_655 S
O291 Eu275 2.471 1_455 S
O291 C305 1.247 . S
O292 Eu275 2.347 1_455 S
O292 C276 1.259 . S
O293 Tb274 2.418 . S
O293 C276 1.265 1_556 S
O294 Tb274 2.384 1_554 S
O294 C277 1.255 . S
O295 Eu275 2.366 1_455 S
O295 C277 1.265 . S
C296 O287 1.255 1_556 S
C296 O288 1.265 . S
O297 Tb274 2.479 . S
O297 C284 1.238 . S
O298 Tb274 2.471 1_655 S
O298 C284 1.247 1_655 S
C299 C302 1.380 1_455 S
C299 C303 1.374 . S
C299 C305 1.507 . S
C300 C301 1.387 . S
C300 C304 1.391 . S
C301 C300 1.387 . S
C301 C302 1.384 1_455 S
C301 H310 0.930 1_455 S
C302 C299 1.380 1_655 S
C302 C301 1.384 1_655 S
C302 H311 0.931 . S
C303 C299 1.374 . S
C303 C304 1.390 . S
C303 H312 0.930 . S
C304 C300 1.391 . S
C304 C303 1.390 . S
C304 H313 0.930 . S
C305 Eu275 2.825 1_455 S
C305 O290 1.238 1_455 S
C305 O291 1.247 . S
C305 C299 1.507 . S
H306 C279 0.930 . S
H307 C280 0.931 . S
H308 C281 0.930 . S
H309 C282 0.930 . S
H310 C301 0.930 1_655 S
H311 C302 0.931 . S
H312 C303 0.930 . S
H313 C304 0.930 . S
Tb314 C324 2.825 . S
Tb314 O325 2.347 . S
Tb314 O328 2.366 . S
Tb314 O333 2.418 . S
Tb314 O334 2.384 . S
Tb314 O337 2.479 . S
Tb314 O338 2.471 . S
Eu315 O326 2.418 . S
Eu315 O327 2.384 1_556 S
Eu315 O330 2.479 . S
Eu315 O331 2.471 . S
Eu315 O332 2.347 . S
Eu315 O335 2.366 . S
Eu315 C345 2.825 . S
C316 O332 1.259 1_554 S
C316 O333 1.265 . S
C317 O334 1.255 1_556 S
C317 O335 1.265 . S
C318 C320 1.380 . S
C318 C321 1.374 . S
C318 C324 1.507 . S
C319 C320 1.384 . S
C319 C323 1.387 . S
C319 H346 0.930 . S
C320 C318 1.380 . S
C320 C319 1.384 . S
C320 H347 0.931 . S
C321 C318 1.374 . S
C321 C322 1.390 . S
C321 H348 0.930 . S
C322 C321 1.390 . S
C322 C323 1.391 . S
C322 H349 0.930 . S
C323 C319 1.387 . S
C323 C322 1.391 . S
C324 Tb314 2.825 . S
C324 C318 1.507 . S
C324 O337 1.238 . S
C324 O338 1.247 . S
O325 Tb314 2.347 . S
O325 C329 1.259 . S
O326 Eu315 2.418 . S
O326 C329 1.265 1_556 S
O327 Eu315 2.384 1_554 S
O327 C336 1.255 . S
O328 Tb314 2.366 . S
O328 C336 1.265 . S
C329 O325 1.259 . S
C329 O326 1.265 1_554 S
O330 Eu315 2.479 . S
O330 C345 1.238 . S
O331 Eu315 2.471 . S
O331 C345 1.247 . S
O332 Eu315 2.347 . S
O332 C316 1.259 1_556 S
O333 Tb314 2.418 . S
O333 C316 1.265 . S
O334 Tb314 2.384 . S
O334 C317 1.255 1_554 S
O335 Eu315 2.366 . S
O335 C317 1.265 . S
C336 O327 1.255 . S
C336 O328 1.265 . S
O337 Tb314 2.479 . S
O337 C324 1.238 . S
O338 Tb314 2.471 . S
O338 C324 1.247 . S
C339 C342 1.380 . S
C339 C343 1.374 . S
C339 C345 1.507 . S
C340 C341 1.387 . S
C340 C344 1.391 . S
C341 C340 1.387 . S
C341 C342 1.384 . S
C341 H350 0.930 . S
C342 C339 1.380 . S
C342 C341 1.384 . S
C342 H351 0.931 . S
C343 C339 1.374 . S
C343 C344 1.390 . S
C343 H352 0.930 . S
C344 C340 1.391 . S
C344 C343 1.390 . S
C344 H353 0.930 . S
C345 Eu315 2.825 . S
C345 O330 1.238 . S
C345 O331 1.247 . S
C345 C339 1.507 . S
H346 C319 0.930 . S
H347 C320 0.931 . S
H348 C321 0.930 . S
H349 C322 0.930 . S
H350 C341 0.930 . S
H351 C342 0.931 . S
H352 C343 0.930 . S
H353 C344 0.930 . S
Tb354 C364 2.825 . S
Tb354 O365 2.347 . S
Tb354 O368 2.366 . S
Tb354 O373 2.418 . S
Tb354 O374 2.384 . S
Tb354 O377 2.479 . S
Tb354 O378 2.471 . S
Eu355 O366 2.418 . S
Eu355 O367 2.384 . S
Eu355 O370 2.479 . S
Eu355 O371 2.471 . S
Eu355 O372 2.347 . S
Eu355 O375 2.366 . S
Eu355 C385 2.825 . S
C356 O372 1.259 . S
C356 O373 1.265 . S
C357 O374 1.255 . S
C357 O375 1.265 . S
C358 C360 1.380 . S
C358 C361 1.374 . S
C358 C364 1.507 . S
C359 C360 1.384 . S
C359 C363 1.387 . S
C359 H386 0.930 . S
C360 C358 1.380 . S
C360 C359 1.384 . S
C360 H387 0.931 . S
C361 C358 1.374 . S
C361 C362 1.390 . S
C361 H388 0.930 . S
C362 C361 1.390 . S
C362 C363 1.391 . S
C362 H389 0.930 . S
C363 C359 1.387 . S
C363 C362 1.391 . S
C364 Tb354 2.825 . S
C364 C358 1.507 . S
C364 O377 1.238 . S
C364 O378 1.247 . S
O365 Tb354 2.347 . S
O365 C369 1.259 . S
O366 Eu355 2.418 . S
O366 C369 1.265 . S
O367 Eu355 2.384 . S
O367 C376 1.255 . S
O368 Tb354 2.366 . S
O368 C376 1.265 . S
C369 O365 1.259 . S
C369 O366 1.265 . S
O370 Eu355 2.479 . S
O370 C385 1.238 . S
O371 Eu355 2.471 . S
O371 C385 1.247 . S
O372 Eu355 2.347 . S
O372 C356 1.259 . S
O373 Tb354 2.418 . S
O373 C356 1.265 . S
O374 Tb354 2.384 . S
O374 C357 1.255 . S
O375 Eu355 2.366 . S
O375 C357 1.265 . S
C376 O367 1.255 . S
C376 O368 1.265 . S
O377 Tb354 2.479 . S
O377 C364 1.238 . S
O378 Tb354 2.471 . S
O378 C364 1.247 . S
C379 C382 1.380 . S
C379 C383 1.374 . S
C379 C385 1.507 . S
C380 C381 1.387 . S
C380 C384 1.391 . S
C381 C380 1.387 . S
C381 C382 1.384 . S
C381 H390 0.930 . S
C382 C379 1.380 . S
C382 C381 1.384 . S
C382 H391 0.931 . S
C383 C379 1.374 . S
C383 C384 1.390 . S
C383 H392 0.930 . S
C384 C380 1.391 . S
C384 C383 1.390 . S
C384 H393 0.930 . S
C385 Eu355 2.825 . S
C385 O370 1.238 . S
C385 O371 1.247 . S
C385 C379 1.507 . S
H386 C359 0.930 . S
H387 C360 0.931 . S
H388 C361 0.930 . S
H389 C362 0.930 . S
H390 C381 0.930 . S
H391 C382 0.931 . S
H392 C383 0.930 . S
H393 C384 0.930 . S
Tb394 C404 2.825 . S
Tb394 O405 2.347 . S
Tb394 O408 2.366 . S
Tb394 O413 2.418 . S
Tb394 O414 2.384 . S
Tb394 O417 2.479 . S
Tb394 O418 2.471 . S
Eu395 O406 2.418 . S
Eu395 O407 2.384 . S
Eu395 O410 2.479 . S
Eu395 O411 2.471 . S
Eu395 O412 2.347 . S
Eu395 O415 2.366 . S
Eu395 C425 2.825 . S
C396 O412 1.259 . S
C396 O413 1.265 . S
C397 O414 1.255 . S
C397 O415 1.265 . S
C398 C400 1.380 . S
C398 C401 1.374 . S
C398 C404 1.507 . S
C399 C400 1.384 . S
C399 C403 1.387 . S
C399 H426 0.930 . S
C400 C398 1.380 . S
C400 C399 1.384 . S
C400 H427 0.931 . S
C401 C398 1.374 . S
C401 C402 1.390 . S
C401 H428 0.930 . S
C402 C401 1.390 . S
C402 C403 1.391 . S
C402 H429 0.930 . S
C403 C399 1.387 . S
C403 C402 1.391 . S
C404 Tb394 2.825 . S
C404 C398 1.507 . S
C404 O417 1.238 . S
C404 O418 1.247 . S
O405 Tb394 2.347 . S
O405 C409 1.259 . S
O406 Eu395 2.418 . S
O406 C409 1.265 . S
O407 Eu395 2.384 . S
O407 C416 1.255 . S
O408 Tb394 2.366 . S
O408 C416 1.265 . S
C409 O405 1.259 . S
C409 O406 1.265 . S
O410 Eu395 2.479 . S
O410 C425 1.238 . S
O411 Eu395 2.471 . S
O411 C425 1.247 . S
O412 Eu395 2.347 . S
O412 C396 1.259 . S
O413 Tb394 2.418 . S
O413 C396 1.265 . S
O414 Tb394 2.384 . S
O414 C397 1.255 . S
O415 Eu395 2.366 . S
O415 C397 1.265 . S
C416 O407 1.255 . S
C416 O408 1.265 . S
O417 Tb394 2.479 . S
O417 C404 1.238 . S
O418 Tb394 2.471 . S
O418 C404 1.247 . S
C419 C422 1.380 . S
C419 C423 1.374 . S
C419 C425 1.507 . S
C420 C421 1.387 . S
C420 C424 1.391 . S
C421 C420 1.387 . S
C421 C422 1.384 . S
C421 H430 0.930 . S
C422 C419 1.380 . S
C422 C421 1.384 . S
C422 H431 0.931 . S
C423 C419 1.374 . S
C423 C424 1.390 . S
C423 H432 0.930 . S
C424 C420 1.391 . S
C424 C423 1.390 . S
C424 H433 0.930 . S
C425 Eu395 2.825 . S
C425 O410 1.238 . S
C425 O411 1.247 . S
C425 C419 1.507 . S
H426 C399 0.930 . S
H427 C400 0.931 . S
H428 C401 0.930 . S
H429 C402 0.930 . S
H430 C421 0.930 . S
H431 C422 0.931 . S
H432 C423 0.930 . S
H433 C424 0.930 . S
Tb434 C444 2.825 . S
Tb434 O445 2.347 . S
Tb434 O448 2.366 . S
Tb434 O453 2.418 . S
Tb434 O454 2.384 . S
Tb434 O457 2.479 . S
Tb434 O458 2.471 . S
Eu435 O446 2.418 1_565 S
Eu435 O447 2.384 . S
Eu435 O450 2.479 . S
Eu435 O451 2.471 . S
Eu435 O452 2.347 . S
Eu435 O455 2.366 . S
Eu435 C465 2.825 . S
C436 O452 1.259 . S
C436 O453 1.265 . S
C437 O454 1.255 . S
C437 O455 1.265 . S
C438 C440 1.380 . S
C438 C441 1.374 . S
C438 C444 1.507 . S
C439 C440 1.384 . S
C439 C443 1.387 . S
C439 H466 0.930 . S
C440 C438 1.380 . S
C440 C439 1.384 . S
C440 H467 0.931 . S
C441 C438 1.374 . S
C441 C442 1.390 . S
C441 H468 0.930 . S
C442 C441 1.390 . S
C442 C443 1.391 . S
C442 H469 0.930 . S
C443 C439 1.387 . S
C443 C442 1.391 . S
C444 Tb434 2.825 . S
C444 C438 1.507 . S
C444 O457 1.238 . S
C444 O458 1.247 . S
O445 Tb434 2.347 . S
O445 C449 1.259 1_565 S
O446 Eu435 2.418 1_545 S
O446 C449 1.265 . S
O447 Eu435 2.384 . S
O447 C456 1.255 . S
O448 Tb434 2.366 . S
O448 C456 1.265 . S
C449 O445 1.259 1_545 S
C449 O446 1.265 . S
O450 Eu435 2.479 . S
O450 C465 1.238 . S
O451 Eu435 2.471 . S
O451 C465 1.247 . S
O452 Eu435 2.347 . S
O452 C436 1.259 . S
O453 Tb434 2.418 . S
O453 C436 1.265 . S
O454 Tb434 2.384 . S
O454 C437 1.255 . S
O455 Eu435 2.366 . S
O455 C437 1.265 . S
C456 O447 1.255 . S
C456 O448 1.265 . S
O457 Tb434 2.479 . S
O457 C444 1.238 . S
O458 Tb434 2.471 . S
O458 C444 1.247 . S
C459 C462 1.380 . S
C459 C463 1.374 . S
C459 C465 1.507 . S
C460 C461 1.387 . S
C460 C464 1.391 . S
C461 C460 1.387 . S
C461 C462 1.384 . S
C461 H470 0.930 . S
C462 C459 1.380 . S
C462 C461 1.384 . S
C462 H471 0.931 . S
C463 C459 1.374 . S
C463 C464 1.390 . S
C463 H472 0.930 . S
C464 C460 1.391 . S
C464 C463 1.390 . S
C464 H473 0.930 . S
C465 Eu435 2.825 . S
C465 O450 1.238 . S
C465 O451 1.247 . S
C465 C459 1.507 . S
H466 C439 0.930 . S
H467 C440 0.931 . S
H468 C441 0.930 . S
H469 C442 0.930 . S
H470 C461 0.930 . S
H471 C462 0.931 . S
H472 C463 0.930 . S
H473 C464 0.930 . S
Tb474 C484 2.825 . S
Tb474 O485 2.347 . S
Tb474 O488 2.366 . S
Tb474 O493 2.418 . S
Tb474 O494 2.384 . S
Tb474 O497 2.479 . S
Tb474 O498 2.471 . S
Eu475 O486 2.418 . S
Eu475 O487 2.384 . S
Eu475 O490 2.479 . S
Eu475 O491 2.471 . S
Eu475 O492 2.347 . S
Eu475 O495 2.366 . S
Eu475 C505 2.825 . S
C476 O492 1.259 . S
C476 O493 1.265 . S
C477 O494 1.255 . S
C477 O495 1.265 . S
C478 C480 1.380 . S
C478 C481 1.374 . S
C478 C484 1.507 . S
C479 C480 1.384 . S
C479 C483 1.387 . S
C479 H506 0.930 . S
C480 C478 1.380 . S
C480 C479 1.384 . S
C480 H507 0.931 . S
C481 C478 1.374 . S
C481 C482 1.390 . S
C481 H508 0.930 . S
C482 C481 1.390 . S
C482 C483 1.391 . S
C482 H509 0.930 . S
C483 C479 1.387 . S
C483 C482 1.391 . S
C484 Tb474 2.825 . S
C484 C478 1.507 . S
C484 O497 1.238 . S
C484 O498 1.247 . S
O485 Tb474 2.347 . S
O485 C489 1.259 . S
O486 Eu475 2.418 . S
O486 C489 1.265 . S
O487 Eu475 2.384 . S
O487 C496 1.255 . S
O488 Tb474 2.366 . S
O488 C496 1.265 . S
C489 O485 1.259 . S
C489 O486 1.265 . S
O490 Eu475 2.479 . S
O490 C505 1.238 . S
O491 Eu475 2.471 . S
O491 C505 1.247 . S
O492 Eu475 2.347 . S
O492 C476 1.259 . S
O493 Tb474 2.418 . S
O493 C476 1.265 . S
O494 Tb474 2.384 . S
O494 C477 1.255 . S
O495 Eu475 2.366 . S
O495 C477 1.265 . S
C496 O487 1.255 . S
C496 O488 1.265 . S
O497 Tb474 2.479 . S
O497 C484 1.238 . S
O498 Tb474 2.471 . S
O498 C484 1.247 . S
C499 C502 1.380 . S
C499 C503 1.374 . S
C499 C505 1.507 . S
C500 C501 1.387 . S
C500 C504 1.391 . S
C501 C500 1.387 . S
C501 C502 1.384 . S
C501 H510 0.930 . S
C502 C499 1.380 . S
C502 C501 1.384 . S
C502 H511 0.931 . S
C503 C499 1.374 . S
C503 C504 1.390 . S
C503 H512 0.930 . S
C504 C500 1.391 . S
C504 C503 1.390 . S
C504 H513 0.930 . S
C505 Eu475 2.825 . S
C505 O490 1.238 . S
C505 O491 1.247 . S
C505 C499 1.507 . S
H506 C479 0.930 . S
H507 C480 0.931 . S
H508 C481 0.930 . S
H509 C482 0.930 . S
H510 C501 0.930 . S
H511 C502 0.931 . S
H512 C503 0.930 . S
H513 C504 0.930 . S
Tb514 C524 2.825 . S
Tb514 O525 2.347 . S
Tb514 O528 2.366 . S
Tb514 O533 2.418 . S
Tb514 O534 2.384 . S
Tb514 O537 2.479 . S
Tb514 O538 2.471 . S
Eu515 O526 2.418 . S
Eu515 O527 2.384 . S
Eu515 O530 2.479 . S
Eu515 O531 2.471 . S
Eu515 O532 2.347 . S
Eu515 O535 2.366 . S
Eu515 C545 2.825 . S
C516 O532 1.259 . S
C516 O533 1.265 . S
C517 O534 1.255 . S
C517 O535 1.265 . S
C518 C520 1.380 . S
C518 C521 1.374 . S
C518 C524 1.507 . S
C519 C520 1.384 . S
C519 C523 1.387 . S
C519 H546 0.930 . S
C520 C518 1.380 . S
C520 C519 1.384 . S
C520 H547 0.931 . S
C521 C518 1.374 . S
C521 C522 1.390 . S
C521 H548 0.930 . S
C522 C521 1.390 . S
C522 C523 1.391 . S
C522 H549 0.930 . S
C523 C519 1.387 . S
C523 C522 1.391 . S
C524 Tb514 2.825 . S
C524 C518 1.507 . S
C524 O537 1.238 . S
C524 O538 1.247 . S
O525 Tb514 2.347 . S
O525 C529 1.259 . S
O526 Eu515 2.418 . S
O526 C529 1.265 . S
O527 Eu515 2.384 . S
O527 C536 1.255 . S
O528 Tb514 2.366 . S
O528 C536 1.265 . S
C529 O525 1.259 . S
C529 O526 1.265 . S
O530 Eu515 2.479 . S
O530 C545 1.238 . S
O531 Eu515 2.471 . S
O531 C545 1.247 . S
O532 Eu515 2.347 . S
O532 C516 1.259 . S
O533 Tb514 2.418 . S
O533 C516 1.265 . S
O534 Tb514 2.384 . S
O534 C517 1.255 . S
O535 Eu515 2.366 . S
O535 C517 1.265 . S
C536 O527 1.255 . S
C536 O528 1.265 . S
O537 Tb514 2.479 . S
O537 C524 1.238 . S
O538 Tb514 2.471 . S
O538 C524 1.247 . S
C539 C542 1.380 . S
C539 C543 1.374 . S
C539 C545 1.507 . S
C540 C541 1.387 . S
C540 C544 1.391 . S
C541 C540 1.387 . S
C541 C542 1.384 . S
C541 H550 0.930 . S
C542 C539 1.380 . S
C542 C541 1.384 . S
C542 H551 0.931 . S
C543 C539 1.374 . S
C543 C544 1.390 . S
C543 H552 0.930 . S
C544 C540 1.391 . S
C544 C543 1.390 . S
C544 H553 0.930 . S
C545 Eu515 2.825 . S
C545 O530 1.238 . S
C545 O531 1.247 . S
C545 C539 1.507 . S
H546 C519 0.930 . S
H547 C520 0.931 . S
H548 C521 0.930 . S
H549 C522 0.930 . S
H550 C541 0.930 . S
H551 C542 0.931 . S
H552 C543 0.930 . S
H553 C544 0.930 . S
Tb554 C564 2.825 . S
Tb554 O565 2.347 . S
Tb554 O568 2.366 . S
Tb554 O573 2.418 . S
Tb554 O574 2.384 . S
Tb554 O577 2.479 . S
Tb554 O578 2.471 . S
Eu555 O566 2.418 . S
Eu555 O567 2.384 . S
Eu555 O570 2.479 . S
Eu555 O571 2.471 . S
Eu555 O572 2.347 . S
Eu555 O575 2.366 . S
Eu555 C585 2.825 . S
C556 O572 1.259 . S
C556 O573 1.265 . S
C557 O574 1.255 1_455 S
C557 O575 1.266 1_455 S
C558 C560 1.380 . S
C558 C561 1.374 . S
C558 C564 1.507 . S
C559 C560 1.384 . S
C559 C563 1.387 . S
C559 H586 0.930 . S
C560 C558 1.380 . S
C560 C559 1.384 . S
C560 H587 0.931 . S
C561 C558 1.374 . S
C561 C562 1.390 . S
C561 H588 0.930 . S
C562 C561 1.390 . S
C562 C563 1.391 . S
C562 H589 0.930 . S
C563 C559 1.387 . S
C563 C562 1.391 . S
C564 Tb554 2.825 . S
C564 C558 1.507 . S
C564 O577 1.238 . S
C564 O578 1.247 . S
O565 Tb554 2.347 . S
O565 C569 1.259 . S
O566 Eu555 2.418 . S
O566 C569 1.265 . S
O567 Eu555 2.384 . S
O567 C576 1.255 . S
O568 Tb554 2.366 . S
O568 C576 1.265 . S
C569 O565 1.259 . S
C569 O566 1.265 . S
O570 Eu555 2.479 . S
O570 C585 1.238 . S
O571 Eu555 2.471 . S
O571 C585 1.247 . S
O572 Eu555 2.347 . S
O572 C556 1.259 . S
O573 Tb554 2.418 . S
O573 C556 1.265 . S
O574 Tb554 2.384 . S
O574 C557 1.255 1_655 S
O575 Eu555 2.366 . S
O575 C557 1.266 1_655 S
C576 O567 1.255 . S
C576 O568 1.265 . S
O577 Tb554 2.479 . S
O577 C564 1.238 . S
O578 Tb554 2.471 . S
O578 C564 1.247 . S
C579 C582 1.380 . S
C579 C583 1.374 . S
C579 C585 1.507 . S
C580 C581 1.387 . S
C580 C584 1.391 . S
C581 C580 1.387 . S
C581 C582 1.384 . S
C581 H590 0.930 . S
C582 C579 1.380 . S
C582 C581 1.384 . S
C582 H591 0.931 . S
C583 C579 1.374 . S
C583 C584 1.390 . S
C583 H592 0.930 . S
C584 C580 1.391 . S
C584 C583 1.390 . S
C584 H593 0.930 . S
C585 Eu555 2.825 . S
C585 O570 1.238 . S
C585 O571 1.247 . S
C585 C579 1.507 . S
H586 C559 0.930 . S
H587 C560 0.931 . S
H588 C561 0.930 . S
H589 C562 0.930 . S
H590 C581 0.930 . S
H591 C582 0.931 . S
H592 C583 0.930 . S
H593 C584 0.930 . S
C177 C237 1.790 . S
C190 C277 1.902 . S
C164 C329 1.636 . S
C151 C289 1.509 . S
C317 C125 1.617 . S
C138 C249 1.462 1_556 S
C256 C147 2.026 . S
C296 C121 1.700 . S
C134 C316 1.901 1_556 S
C173 C276 1.720 . S
C186 C336 1.709 . S
C236 C160 1.915 . S
C357 C21 1.791 1_455 S
C34 C397 1.902 . S
C8 C449 1.636 . S
C229 C409 1.509 . S
C203 C437 1.617 . S
C216 C369 1.463 . S
C225 C376 2.026 . S
C199 C416 1.701 . S
C436 C212 1.901 . S
C17 C396 1.720 . S
C456 C30 1.709 . S
C4 C356 1.914 . S
C477 C99 1.790 . S
C112 C517 1.902 . S
C569 C86 1.636 . S
C529 C73 1.509 1_545 S
C557 C47 1.616 . S
C60 C489 1.462 . S
C69 C496 2.026 . S
C43 C536 1.701 . S
C556 C56 1.901 . S
C95 C516 1.720 . S
C108 C576 1.709 . S
C82 C476 1.915 . S
C204 C260 2.100 . S
C300 C217 2.373 . S
C230 C323 1.627 . S
C87 C283 1.889 . S
C100 C340 1.880 . S
C243 C113 1.380 . S
C48 C380 2.100 . S
C61 C420 2.373 . S
C74 C443 1.627 . S
C165 C403 1.889 . S
C460 C178 1.880 . S
C191 C363 1.380 . S
C126 C500 2.100 . S
C139 C540 2.374 . S
C563 C152 1.627 . S
C9 C523 1.889 . S
C22 C580 1.880 . S
C35 C483 1.380 . S
