# Generated by pormake.
# Topology pth, (4,4)-cn, num edge types: 1
# Building blocks:
#     Node 0, Type 0, BuildingBlock: CEKHIL_clean_sbu_0, # of connection points: 4
#     Node 1, Type 0, BuildingBlock: CEKHIL_clean_sbu_0, # of connection points: 4
#     Node 2, Type 0, BuildingBlock: CEKHIL_clean_sbu_0, # of connection points: 4
#     Node 3, Type 1, BuildingBlock: NAHDIM_clean_linker_0, # of connection points: 4
#     Node 4, Type 1, BuildingBlock: NAHDIM_clean_linker_0, # of connection points: 4
#     Node 5, Type 1, BuildingBlock: NAHDIM_clean_linker_0, # of connection points: 4
#     Edge 6, Type (0, 1), BuildingBlock: FUNLAD_clean_linker_0, # of connection points: 2
#     Edge 7, Type (0, 1), BuildingBlock: FUNLAD_clean_linker_0, # of connection points: 2
#     Edge 8, Type (0, 1), BuildingBlock: FUNLAD_clean_linker_0, # of connection points: 2
#     Edge 9, Type (0, 1), BuildingBlock: FUNLAD_clean_linker_0, # of connection points: 2
#     Edge 10, Type (0, 1), BuildingBlock: FUNLAD_clean_linker_0, # of connection points: 2
#     Edge 11, Type (0, 1), BuildingBlock: FUNLAD_clean_linker_0, # of connection points: 2
#     Edge 12, Type (0, 1), BuildingBlock: FUNLAD_clean_linker_0, # of connection points: 2
#     Edge 13, Type (0, 1), BuildingBlock: FUNLAD_clean_linker_0, # of connection points: 2
#     Edge 14, Type (0, 1), BuildingBlock: FUNLAD_clean_linker_0, # of connection points: 2
#     Edge 15, Type (0, 1), BuildingBlock: FUNLAD_clean_linker_0, # of connection points: 2
#     Edge 16, Type (0, 1), BuildingBlock: FUNLAD_clean_linker_0, # of connection points: 2
#     Edge 17, Type (0, 1), BuildingBlock: FUNLAD_clean_linker_0, # of connection points: 2
# Relax obj value: 0.006
# Max RMSD: 0.047
# Mean RMSD: 0.045
data_MOF--net-pth--node1-CEKHIL_clean_sbu_0--node2-NAHDIM_clean_linker_0--edge1-FUNLAD_clean_linker_0
_symmetry_space_group_name_H-M    P1
_symmetry_Int_Tables_number       1
_symmetry_cell_setting            triclinic
loop_
_symmetry_equiv_pos_as_xyz
'x, y, z'
_cell_length_a     35.128433
_cell_length_b     35.219943
_cell_length_c     91.486894
_cell_angle_alpha  90.72116
_cell_angle_beta   90.450708
_cell_angle_gamma 120.30935
loop_
_atom_site_label
_atom_site_type_symbol
_atom_site_fract_x
_atom_site_fract_y
_atom_site_fract_z
_atom_type_partial_charge
Co0 Co 0.02741 0.06628 0.07902 0.0
O1 O 0.99802 0.02376 0.09382 0.0
O2 O 0.05129 0.02714 0.08012 0.0
C3 C 0.03863 0.12435 0.0929 0.0
O4 O 0.06642 0.10756 0.06318 0.0
Co5 Co 0.98448 0.11837 0.06731 0.0
O6 O 0.04413 0.15637 0.05931 0.0
C7 C 0.9491 0.02641 0.05773 0.0
C8 C 0.02397 0.00869 0.09079 0.0
C9 C 0.07167 0.14325 0.05757 0.0
O10 O 0.98202 0.02653 0.06403 0.0
O11 O 0.94188 0.05853 0.05876 0.0
O12 O 0.06531 0.10906 0.09383 0.0
O13 O 0.00408 0.10182 0.08465 0.0
Co14 Co 0.02661 0.06941 0.40131 0.0
O15 O 0.0027 0.09563 0.38863 0.0
O16 O 0.06064 0.13258 0.40345 0.0
C17 C 0.02609 0.02144 0.38471 0.0
O18 O 0.06206 0.05464 0.41538 0.0
Co19 Co 0.97307 0.97083 0.40926 0.0
O20 O 0.03017 0.98144 0.41756 0.0
C21 C 0.95078 0.0336 0.42259 0.0
C22 C 0.03418 0.13335 0.39359 0.0
C23 C 0.06214 0.02037 0.42003 0.0
O24 O 0.98608 0.06581 0.41737 0.0
O25 O 0.93759 0.9932 0.41953 0.0
O26 O 0.05802 0.06214 0.38502 0.0
O27 O 0.99392 0.01227 0.39343 0.0
Co28 Co 0.02261 0.05602 0.73244 0.0
O29 O 0.07178 0.08526 0.71957 0.0
O30 O 0.05486 0.02483 0.73168 0.0
C31 C 0.97247 0.05782 0.71746 0.0
O32 O 0.97369 0.01577 0.74616 0.0
Co33 Co 0.97504 0.10394 0.74441 0.0
O34 O 0.92969 0.04393 0.75025 0.0
C35 C 0.06203 0.12614 0.75661 0.0
C36 C 0.08071 0.05464 0.72256 0.0
C37 C 0.93824 0.01291 0.75123 0.0
O38 O 0.06042 0.09375 0.74937 0.0
O39 O 0.03291 0.13758 0.75525 0.0
O40 O 0.9826 0.0273 0.71576 0.0
O41 O 0.99557 0.08796 0.72714 0.0
C42 C 0.97439 0.66069 0.32962 0.0
C43 C -0.00038 0.6987 0.31915 0.0
C44 C 0.99005 0.66687 0.29486 0.0
C45 C 0.03372 0.68411 0.29042 0.0
C46 C 0.04482 0.66086 0.28044 0.0
C47 C 0.01144 0.61959 0.27483 0.0
C48 C 0.96698 0.60336 0.27867 0.0
C49 C 0.95677 0.62761 0.28855 0.0
C50 C 0.09241 0.67963 0.27629 0.0
C51 C 0.93063 0.55964 0.27279 0.0
C52 C 0.16274 0.44585 0.30359 0.0
C53 C 0.12068 0.43848 0.31106 0.0
C54 C 0.07993 0.45653 0.29303 0.0
C55 C 0.04036 0.43883 0.28508 0.0
C56 C 0.02989 0.46561 0.27678 0.0
C57 C 0.06057 0.51123 0.2761 0.0
C58 C 0.10087 0.52947 0.28407 0.0
C59 C 0.10999 0.50201 0.29258 0.0
C60 C 0.98602 0.44508 0.26877 0.0
C61 C 0.13442 0.57794 0.28354 0.0
C62 C 0.11792 0.47061 0.18642 0.0
C63 C 0.07279 0.44896 0.18954 0.0
C64 C 0.05333 0.47257 0.1949 0.0
C65 C 0.0798 0.51854 0.19736 0.0
C66 C 0.1247 0.54066 0.19339 0.0
C67 C 0.14304 0.51633 0.18776 0.0
C68 C 0.00494 0.44825 0.19847 0.0
C69 C 0.15372 0.5897 0.19568 0.0
C70 C 0.93284 0.72133 0.17914 0.0
C71 C 0.97639 0.72499 0.17463 0.0
C72 C 0.98529 0.66171 0.17869 0.0
C73 C 0.95775 0.61686 0.18106 0.0
C74 C 0.97227 0.59334 0.18941 0.0
C75 C 0.0158 0.61524 0.19522 0.0
C76 C 0.04452 0.66023 0.19228 0.0
C77 C 0.02891 0.68307 0.18405 0.0
C78 C 0.94094 0.54529 0.19223 0.0
C79 C 0.09155 0.68415 0.19793 0.0
C80 C 0.02387 0.59159 0.26628 0.0
C81 C 0.0355 0.56508 0.27414 0.0
C82 C 0.05032 0.53975 0.26706 0.0
C83 C 0.05427 0.54114 0.25169 0.0
C84 C 0.07126 0.51785 0.2443 0.0
C85 C 0.07422 0.51871 0.22916 0.0
C86 C 0.05987 0.54253 0.2208 0.0
C87 C 0.06183 0.54276 0.20537 0.0
C88 C 0.04732 0.56672 0.19738 0.0
C89 C 0.03115 0.59104 0.20442 0.0
C90 C 0.02933 0.59164 0.21987 0.0
C91 C 0.01382 0.61625 0.22733 0.0
C92 C 0.01242 0.61671 0.24255 0.0
C93 C 0.0256 0.59188 0.25084 0.0
C94 C 0.04105 0.56663 0.24354 0.0
C95 C 0.04341 0.56694 0.22806 0.0
C96 C 0.17244 0.41155 0.1928 0.0
C97 C 0.12931 0.40796 0.18755 0.0
O98 O 0.97947 0.6871 0.30543 0.0
O99 O 0.96894 0.68336 0.17113 0.0
O100 O 0.13838 0.44838 0.18228 0.0
O101 O 0.08766 0.42835 0.30075 0.0
H102 H 0.034 0.70504 0.31866 0.0
H103 H 0.97498 0.63111 0.32559 0.0
H104 H 0.93946 0.65237 0.33039 0.0
H105 H 0.98999 0.66959 0.34069 0.0
H106 H 0.05918 0.71545 0.29492 0.0
H107 H 0.92304 0.61503 0.29192 0.0
H108 H 0.10501 0.6589 0.28083 0.0
H109 H 0.11369 0.7139 0.28046 0.0
H110 H 0.09514 0.67914 0.26421 0.0
H111 H 0.8975 0.55259 0.27629 0.0
H112 H 0.93608 0.53298 0.27667 0.0
H113 H 0.93127 0.55909 0.26066 0.0
H114 H 0.12803 0.4688 0.31733 0.0
H115 H 0.18887 0.45312 0.31191 0.0
H116 H 0.17532 0.4741 0.29613 0.0
H117 H 0.15624 0.41628 0.29707 0.0
H118 H 0.01736 0.40375 0.28551 0.0
H119 H 0.14079 0.51632 0.29867 0.0
H120 H 0.99138 0.44545 0.25682 0.0
H121 H 0.96949 0.46436 0.27093 0.0
H122 H 0.96364 0.4105 0.27199 0.0
H123 H 0.16622 0.58609 0.28889 0.0
H124 H 0.12123 0.59685 0.28919 0.0
H125 H 0.14069 0.58883 0.27203 0.0
H126 H 0.10752 0.39891 0.19723 0.0
H127 H 0.05291 0.41364 0.18793 0.0
H128 H 0.17766 0.53269 0.18504 0.0
H129 H 0.00116 0.44695 0.21052 0.0
H130 H 0.98767 0.41404 0.19398 0.0
H131 H 0.98872 0.46589 0.19407 0.0
H132 H 0.18803 0.60192 0.19205 0.0
H133 H 0.15458 0.5983 0.20745 0.0
H134 H 0.13979 0.60702 0.18954 0.0
H135 H -0.00069 0.73945 0.18422 0.0
H136 H 0.93796 0.75433 0.18207 0.0
H137 H 0.91978 0.70008 0.18883 0.0
H138 H 0.90793 0.70663 0.17012 0.0
H139 H 0.92434 0.60061 0.17666 0.0
H140 H 0.05082 0.71746 0.18171 0.0
H141 H 0.93771 0.53969 0.20419 0.0
H142 H 0.9544 0.52531 0.18757 0.0
H143 H 0.90765 0.53349 0.18737 0.0
H144 H 0.11044 0.71842 0.19397 0.0
H145 H 0.10851 0.6662 0.19445 0.0
H146 H 0.09186 0.6851 0.21006 0.0
H147 H 0.03321 0.56436 0.28597 0.0
H148 H 0.08257 0.49873 0.25014 0.0
H149 H 0.08767 0.50015 0.22411 0.0
H150 H 0.04877 0.56655 0.18554 0.0
H151 H 0.00279 0.6356 0.2215 0.0
H152 H 0.00043 0.6364 0.24773 0.0
H153 H 0.16611 0.3798 0.19736 0.0
H154 H 0.18785 0.43728 0.20155 0.0
H155 H 0.19595 0.42057 0.18366 0.0
C156 C 0.38834 0.99047 0.66975 0.0
C157 C 0.37634 0.01965 0.6609 0.0
C158 C 0.39741 0.01642 0.63601 0.0
C159 C 0.42478 0.06077 0.63262 0.0
C160 C 0.45843 0.07341 0.62238 0.0
C161 C 0.46502 0.04093 0.61553 0.0
C162 C 0.43624 0.99595 0.61854 0.0
C163 C 0.40225 0.98423 0.62861 0.0
C164 C 0.48765 0.12156 0.61918 0.0
C165 C 0.44232 0.96042 0.61151 0.0
C166 C 0.82971 0.17823 0.61932 0.0
C167 C 0.78498 0.13803 0.62262 0.0
C168 C 0.71303 0.13311 0.62326 0.0
C169 C 0.68721 0.0881 0.6197 0.0
C170 C 0.6434 0.0702 0.61481 0.0
C171 C 0.62545 0.09803 0.61331 0.0
C172 C 0.65054 0.14272 0.6178 0.0
C173 C 0.69397 0.15954 0.62289 0.0
C174 C 0.617 0.02205 0.61058 0.0
C175 C 0.63222 0.17318 0.61656 0.0
C176 C 0.69457 0.11817 0.52006 0.0
C177 C 0.67153 0.07577 0.52576 0.0
C178 C 0.63127 0.06108 0.53283 0.0
C179 C 0.61434 0.08985 0.53446 0.0
C180 C 0.63691 0.13212 0.52824 0.0
C181 C 0.67647 0.14542 0.52089 0.0
C182 C 0.60731 0.01518 0.53881 0.0
C183 C 0.61981 0.1636 0.52963 0.0
C184 C 0.27507 0.99548 0.52737 0.0
C185 C 0.31013 0.02202 0.51606 0.0
C186 C 0.3757 0.01637 0.52096 0.0
C187 C 0.38568 0.98392 0.52459 0.0
C188 C 0.42496 0.99468 0.53209 0.0
C189 C 0.45505 0.03912 0.5359 0.0
C190 C 0.44592 0.07234 0.53179 0.0
C191 C 0.40651 0.06067 0.52423 0.0
C192 C 0.43413 0.95861 0.53609 0.0
C193 C 0.47787 0.12018 0.53538 0.0
C194 C 0.50408 0.05432 0.60619 0.0
C195 C 0.54464 0.0683 0.61325 0.0
C196 C 0.58305 0.08204 0.6053 0.0
C197 C 0.58124 0.08146 0.58986 0.0
C198 C 0.61948 0.09559 0.58156 0.0
C199 C 0.61744 0.09432 0.56639 0.0
C200 C 0.57709 0.07894 0.55888 0.0
C201 C 0.57467 0.07685 0.54343 0.0
C202 C 0.53432 0.06295 0.5363 0.0
C203 C 0.4961 0.05106 0.5442 0.0
C204 C 0.49766 0.05195 0.55967 0.0
C205 C 0.45974 0.03978 0.56798 0.0
C206 C 0.4617 0.04062 0.58321 0.0
C207 C 0.50164 0.05369 0.59072 0.0
C208 C 0.54036 0.06686 0.58254 0.0
C209 C 0.53832 0.06578 0.56702 0.0
C210 C 0.80249 0.17828 0.52574 0.0
C211 C 0.76985 0.13247 0.51952 0.0
O212 O 0.36663 0.0041 0.64655 0.0
O213 O 0.3367 0.00378 0.51401 0.0
O214 O 0.73393 0.13329 0.51348 0.0
O215 O 0.75648 0.15239 0.62686 0.0
H216 H 0.40537 0.05365 0.66133 0.0
H217 H 0.41797 0.99153 0.6651 0.0
H218 H 0.36076 0.9558 0.66947 0.0
H219 H 0.39596 0.00238 0.6813 0.0
H220 H 0.41997 0.0855 0.63806 0.0
H221 H 0.38048 0.95 0.63121 0.0
H222 H 0.52052 0.13364 0.62437 0.0
H223 H 0.47388 0.14173 0.62346 0.0
H224 H 0.49241 0.12648 0.60722 0.0
H225 H 0.41827 0.92716 0.61549 0.0
H226 H 0.47622 0.96696 0.61381 0.0
H227 H 0.43833 0.96062 0.59947 0.0
H228 H 0.77281 0.11809 0.6123 0.0
H229 H 0.85311 0.1679 0.61547 0.0
H230 H 0.84387 0.19962 0.62923 0.0
H231 H 0.82575 0.19764 0.61058 0.0
H232 H 0.70131 0.06704 0.62052 0.0
H233 H 0.71399 0.19403 0.62596 0.0
H234 H 0.61375 0.01859 0.59849 0.0
H235 H 0.58325 0.00701 0.61506 0.0
H236 H 0.63286 0.00355 0.61452 0.0
H237 H 0.65607 0.20713 0.6205 0.0
H238 H 0.60175 0.1603 0.62306 0.0
H239 H 0.62321 0.17447 0.60499 0.0
H240 H 0.75951 0.10892 0.52868 0.0
H241 H 0.68493 0.05414 0.5246 0.0
H242 H 0.69429 0.17782 0.51618 0.0
H243 H 0.61052 0.01699 0.55091 0.0
H244 H 0.62078 0.99469 0.53458 0.0
H245 H 0.57162 0.9987 0.53595 0.0
H246 H 0.64331 0.19662 0.52536 0.0
H247 H 0.61322 0.16729 0.54126 0.0
H248 H 0.58819 0.15013 0.52344 0.0
H249 H 0.32932 0.05624 0.52045 0.0
H250 H 0.25292 0.00914 0.52891 0.0
H251 H 0.29127 0.99728 0.53803 0.0
H252 H 0.25502 0.96036 0.52388 0.0
H253 H 0.36211 0.94993 0.52175 0.0
H254 H 0.40046 0.08639 0.52072 0.0
H255 H 0.43653 0.95741 0.54817 0.0
H256 H 0.46632 0.96577 0.5316 0.0
H257 H 0.40806 0.92581 0.53192 0.0
H258 H 0.46526 0.14195 0.53186 0.0
H259 H 0.50965 0.13061 0.52991 0.0
H260 H 0.48463 0.12474 0.54734 0.0
H261 H 0.54642 0.06885 0.62511 0.0
H262 H 0.65156 0.10775 0.58666 0.0
H263 H 0.64802 0.10561 0.56064 0.0
H264 H 0.53274 0.06191 0.52444 0.0
H265 H 0.42808 0.0293 0.56279 0.0
H266 H 0.43152 0.03085 0.58904 0.0
H267 H 0.8145 0.20296 0.51693 0.0
H268 H 0.83115 0.17846 0.53104 0.0
H269 H 0.78607 0.18796 0.53411 0.0
C270 C 0.69766 0.64576 0.81773 0.0
C271 C 0.69737 0.6852 0.82484 0.0
C272 C 0.67568 0.66891 0.84991 0.0
C273 C 0.64466 0.68233 0.85174 0.0
C274 C 0.60911 0.6599 0.86118 0.0
C275 C 0.60444 0.62305 0.86878 0.0
C276 C 0.63706 0.61087 0.86747 0.0
C277 C 0.67277 0.63453 0.85817 0.0
C278 C 0.57552 0.67438 0.86254 0.0
C279 C 0.63296 0.5715 0.87526 0.0
C280 C 0.30911 0.33181 0.82545 0.0
C281 C 0.34998 0.36087 0.83405 0.0
C282 C 0.38763 0.43307 0.84619 0.0
C283 C 0.41812 0.42561 0.8538 0.0
C284 C 0.45049 0.45824 0.86299 0.0
C285 C 0.4524 0.49914 0.86466 0.0
C286 C 0.42176 0.5068 0.85707 0.0
C287 C 0.38966 0.47353 0.84793 0.0
C288 C 0.48278 0.44904 0.87091 0.0
C289 C 0.42299 0.55008 0.85866 0.0
C290 C 0.34429 0.44218 0.95347 0.0
C291 C 0.37795 0.43187 0.95236 0.0
C292 C 0.41942 0.46258 0.94695 0.0
C293 C 0.42761 0.50467 0.94288 0.0
C294 C 0.39462 0.51596 0.94481 0.0
C295 C 0.35337 0.4845 0.95012 0.0
C296 C 0.45421 0.4498 0.94529 0.0
C297 C 0.40251 0.56077 0.94082 0.0
C298 C 0.76305 0.70116 0.96372 0.0
C299 C 0.73782 0.72478 0.96759 0.0
C300 C 0.66066 0.67075 0.96539 0.0
C301 C 0.64555 0.62621 0.96289 0.0
C302 C 0.60818 0.60049 0.95404 0.0
C303 C 0.58484 0.61979 0.94797 0.0
C304 C 0.59913 0.66458 0.95103 0.0
C305 C 0.63738 0.68979 0.95961 0.0
C306 C 0.59393 0.55285 0.95109 0.0
C307 C 0.57432 0.68585 0.94511 0.0
C308 C 0.56284 0.59408 0.87648 0.0
C309 C 0.52699 0.56351 0.86793 0.0
C310 C 0.48698 0.53387 0.87423 0.0
C311 C 0.48186 0.53519 0.88949 0.0
C312 C 0.44166 0.50634 0.89611 0.0
C313 C 0.43733 0.50682 0.91119 0.0
C314 C 0.47315 0.53594 0.92024 0.0
C315 C 0.4694 0.53565 0.93562 0.0
C316 C 0.50592 0.56419 0.94433 0.0
C317 C 0.54642 0.59327 0.93807 0.0
C318 C 0.55058 0.59469 0.92267 0.0
C319 C 0.59068 0.62384 0.91598 0.0
C320 C 0.59454 0.62448 0.90084 0.0
C321 C 0.55884 0.59515 0.89183 0.0
C322 C 0.51809 0.56559 0.89834 0.0
C323 C 0.51384 0.56566 0.91376 0.0
C324 C 0.23817 0.34967 0.94868 0.0
C325 C 0.28196 0.36716 0.957 0.0
O326 O 0.70719 0.68729 0.83964 0.0
O327 O 0.69765 0.69511 0.97354 0.0
O328 O 0.30286 0.41271 0.95778 0.0
O329 O 0.35594 0.40219 0.83713 0.0
H330 H 0.66351 0.67984 0.82316 0.0
H331 H 0.67172 0.61483 0.82262 0.0
H332 H 0.73004 0.64792 0.81947 0.0
H333 H 0.69068 0.64421 0.8058 0.0
H334 H 0.64776 0.70966 0.84548 0.0
H335 H 0.69724 0.62476 0.85669 0.0
H336 H 0.54457 0.65012 0.85678 0.0
H337 H 0.58722 0.70721 0.85775 0.0
H338 H 0.56763 0.67554 0.87422 0.0
H339 H 0.66075 0.56594 0.87287 0.0
H340 H 0.60158 0.54155 0.87194 0.0
H341 H 0.632 0.57613 0.88724 0.0
H342 H 0.38038 0.36215 0.82989 0.0
H343 H 0.32087 0.32588 0.81471 0.0
H344 H 0.29747 0.35366 0.82071 0.0
H345 H 0.27117 0.28094 0.83984 0.0
H346 H 0.41696 0.39443 0.85262 0.0
H347 H 0.36599 0.47899 0.84205 0.0
H348 H 0.47946 0.45138 0.8829 0.0
H349 H 0.51704 0.47414 0.86809 0.0
H350 H 0.47759 0.41592 0.86817 0.0
H351 H 0.39609 0.55049 0.85233 0.0
H352 H 0.45516 0.57708 0.85485 0.0
H353 H 0.42014 0.55686 0.87037 0.0
H354 H 0.30153 0.35598 0.95068 0.0
H355 H 0.37216 0.40003 0.95568 0.0
H356 H 0.32748 0.49245 0.9513 0.0
H357 H 0.46424 0.45271 0.93368 0.0
H358 H 0.44259 0.41565 0.94882 0.0
H359 H 0.48389 0.47269 0.95188 0.0
H360 H 0.37473 0.56556 0.944 0.0
H361 H 0.40699 0.565 0.92884 0.0
H362 H 0.43326 0.58678 0.94624 0.0
H363 H 0.7324 0.73859 0.95739 0.0
H364 H 0.79531 0.7244 0.95883 0.0
H365 H 0.74378 0.67433 0.95558 0.0
H366 H 0.76882 0.68671 0.97363 0.0
H367 H 0.66379 0.61196 0.96762 0.0
H368 H 0.64923 0.7243 0.96185 0.0
H369 H 0.58897 0.54535 0.93917 0.0
H370 H 0.56196 0.53164 0.95645 0.0
H371 H 0.61832 0.54425 0.9553 0.0
H372 H 0.5866 0.71925 0.9499 0.0
H373 H 0.53861 0.66513 0.94738 0.0
H374 H 0.57792 0.6886 0.93307 0.0
H375 H 0.53067 0.56197 0.8562 0.0
H376 H 0.41309 0.48298 0.88971 0.0
H377 H 0.40562 0.48368 0.91566 0.0
H378 H 0.50302 0.56318 0.95613 0.0
H379 H 0.61957 0.64658 0.92237 0.0
H380 H 0.62607 0.64775 0.89627 0.0
H381 H 0.22074 0.31319 0.94774 0.0
H382 H 0.24438 0.36314 0.93748 0.0
H383 H 0.21659 0.35961 0.95435 0.0
C384 C 0.07545 0.17684 0.1137 0.0
C385 C 0.04561 0.16253 0.10182 0.0
C386 C 0.08058 0.21111 0.12283 0.0
C387 C 0.05631 0.23215 0.12018 0.0
C388 C 0.02772 0.21908 0.10798 0.0
C389 C 0.02191 0.18405 0.09896 0.0
C390 C 0.06162 0.26836 0.12995 0.0
C391 C 0.06541 0.26638 0.14453 0.0
C392 C 0.07673 0.3036 0.15478 0.0
C393 C 0.06473 0.29459 0.16946 0.0
C394 C 0.07993 0.32866 0.17987 0.0
C395 C 0.10781 0.37246 0.17582 0.0
H396 H 0.11451 0.35559 0.13946 0.0
C397 C 0.11923 0.38162 0.16106 0.0
C398 C 0.10356 0.34755 0.1506 0.0
H399 H 0.14153 0.41495 0.15767 0.0
H400 H 0.09429 0.16099 0.11615 0.0
H401 H 0.10381 0.22133 0.13193 0.0
H402 H 0.00915 0.23529 0.10563 0.0
H403 H 0.99892 0.1738 0.08979 0.0
H404 H 0.06191 0.2965 0.12511 0.0
H405 H 0.06058 0.23606 0.14923 0.0
H406 H 0.04453 0.26096 0.17297 0.0
H407 H 0.07126 0.32067 0.19121 0.0
C408 C 0.94501 0.08273 0.44135 0.0
C409 C 0.92474 0.04358 0.43293 0.0
C410 C 0.92073 0.09146 0.45149 0.0
C411 C 0.87553 0.0615 0.45323 0.0
C412 C 0.85502 0.02298 0.44456 0.0
C413 C 0.8795 0.01376 0.43465 0.0
C414 C 0.84895 0.0704 0.46372 0.0
C415 C 0.86483 0.08908 0.47695 0.0
C416 C 0.83855 0.09819 0.48751 0.0
C417 C 0.84444 0.09492 0.50252 0.0
C418 C 0.82113 0.10473 0.51274 0.0
C419 C 0.79207 0.11885 0.50816 0.0
H420 H 0.80517 0.11622 0.47137 0.0
C421 C 0.78679 0.12286 0.49309 0.0
C422 C 0.80944 0.11219 0.48287 0.0
H423 H 0.76556 0.13469 0.48916 0.0
H424 H 0.97982 0.10634 0.44027 0.0
H425 H 0.9372 0.12193 0.45781 0.0
H426 H 0.82014 -0.00036 0.44563 0.0
H427 H 0.86292 0.98347 0.42823 0.0
H428 H 0.81478 0.05908 0.46078 0.0
H429 H 0.89743 0.09606 0.48045 0.0
H430 H 0.86707 0.08466 0.50636 0.0
H431 H 0.82635 0.10203 0.52427 0.0
C432 C 0.91936 0.94395 0.76467 0.0
C433 C 0.90646 0.97268 0.75893 0.0
C434 C 0.88952 0.90703 0.77248 0.0
C435 C 0.8461 0.898 0.77458 0.0
C436 C 0.83299 0.92605 0.7685 0.0
C437 C 0.86289 0.9632 0.76089 0.0
C438 C 0.8131 0.85901 0.7826 0.0
C439 C 0.82362 0.84158 0.79388 0.0
C440 C 0.79064 0.80287 0.80218 0.0
C441 C 0.80558 0.78074 0.81114 0.0
C442 C 0.77573 0.74345 0.81877 0.0
C443 C 0.7302 0.72748 0.81762 0.0
H444 H 0.73182 0.80439 0.79528 0.0
C445 C 0.71527 0.75029 0.80904 0.0
C446 C 0.74505 0.78771 0.80151 0.0
H447 H 0.68037 0.73896 0.80806 0.0
H448 H 0.95266 0.95029 0.7633 0.0
H449 H 0.90037 0.88538 0.77666 0.0
H450 H 0.7996 0.91955 0.76982 0.0
H451 H 0.85175 0.98442 0.7565 0.0
H452 H 0.77898 0.84548 0.77921 0.0
H453 H 0.85803 0.85598 0.79717 0.0
H454 H 0.84045 0.79189 0.81205 0.0
H455 H 0.78813 0.72661 0.82538 0.0
C456 C 0.04635 0.95243 0.09619 0.0
C457 C 0.02439 0.97503 0.10016 0.0
C458 C 0.04762 0.92221 0.10578 0.0
C459 C 0.02762 0.915 0.11953 0.0
C460 C 0.00592 0.93771 0.1234 0.0
C461 C 0.00385 0.96692 0.1138 0.0
C462 C 0.02956 0.88538 0.13046 0.0
C463 C 0.02734 0.84703 0.12708 0.0
C464 C 0.0203 0.81504 0.13866 0.0
C465 C 0.9905 0.77015 0.13607 0.0
C466 C 0.97766 0.74042 0.14753 0.0
C467 C 0.99514 0.75503 0.16173 0.0
H468 H 0.0637 0.86342 0.1549 0.0
C469 C 0.02706 0.79949 0.16408 0.0
C470 C 0.03974 0.82916 0.15265 0.0
H471 H 0.04103 0.81163 0.1749 0.0
H472 H 0.06265 0.95827 0.08578 0.0
H473 H 0.06514 0.90552 0.1026 0.0
H474 H 0.99033 0.93278 0.13394 0.0
H475 H 0.98694 0.98398 0.11727 0.0
H476 H 0.02747 0.89319 0.14186 0.0
H477 H 0.02455 0.83657 0.11571 0.0
H478 H 0.97519 0.75846 0.12537 0.0
H479 H 0.95273 0.70637 0.14545 0.0
C480 C 0.10234 0.99012 0.43406 0.0
C481 C 0.09975 0.02655 0.42929 0.0
C482 C 0.13586 0.99576 0.44374 0.0
C483 C 0.1677 0.0381 0.44884 0.0
C484 C 0.16569 0.07452 0.4438 0.0
C485 C 0.13232 0.06891 0.43407 0.0
C486 C 0.20069 0.04521 0.46041 0.0
C487 C 0.21475 0.01669 0.46308 0.0
C488 C 0.24266 0.02039 0.47597 0.0
C489 C 0.24329 0.98264 0.48037 0.0
C490 C 0.26593 0.98336 0.49309 0.0
C491 C 0.28868 0.02202 0.50167 0.0
H492 H 0.26916 0.09002 0.48103 0.0
C493 C 0.2896 0.06029 0.49699 0.0
C494 C 0.26717 0.05966 0.48423 0.0
H495 H 0.30726 0.09066 0.50332 0.0
H496 H 0.07782 0.95702 0.43062 0.0
H497 H 0.13539 0.96668 0.44764 0.0
H498 H 0.18959 0.10745 0.44761 0.0
H499 H 0.13143 0.09777 0.43063 0.0
H500 H 0.21224 0.0745 0.46722 0.0
H501 H 0.20335 0.98782 0.45603 0.0
H502 H 0.22513 0.95204 0.47417 0.0
H503 H 0.2649 0.95345 0.49641 0.0
C504 C 0.10214 0.18715 0.77511 0.0
C505 C 0.09865 0.15084 0.7673 0.0
C506 C 0.13579 0.20981 0.78549 0.0
C507 C 0.16663 0.19644 0.78842 0.0
C508 C 0.16379 0.16086 0.78037 0.0
C509 C 0.13013 0.13819 0.76996 0.0
C510 C 0.2027 0.21926 0.79948 0.0
C511 C 0.20118 0.24346 0.81072 0.0
C512 C 0.23724 0.26601 0.82159 0.0
C513 C 0.2346 0.30523 0.83386 0.0
C514 C 0.27781 0.33583 0.84719 0.0
C515 C 0.32755 0.33038 0.84504 0.0
H516 H 0.28101 0.22826 0.81593 0.0
C517 C 0.32583 0.28218 0.83585 0.0
C518 C 0.28111 0.25331 0.82289 0.0
H519 H 0.35406 0.2776 0.83584 0.0
H520 H 0.07886 0.19824 0.77322 0.0
H521 H 0.13765 0.23805 0.79101 0.0
H522 H 0.1874 0.15018 0.78227 0.0
H523 H 0.12865 0.11055 0.7641 0.0
H524 H 0.23103 0.21503 0.79837 0.0
H525 H 0.17281 0.24748 0.81212 0.0
H526 H 0.20702 0.31073 0.8331 0.0
H527 H 0.27838 0.36186 0.85377 0.0
C528 C 0.91286 0.02619 0.69816 0.0
C529 C 0.93711 0.05857 0.70891 0.0
C530 C 0.88177 0.02921 0.68935 0.0
C531 C 0.87471 0.06502 0.69109 0.0
C532 C 0.89749 0.096 0.70236 0.0
C533 C 0.92837 0.09291 0.71114 0.0
C534 C 0.84617 0.07324 0.68108 0.0
C535 C 0.83276 0.05465 0.66765 0.0
C536 C 0.81372 0.07115 0.65652 0.0
C537 C 0.81678 0.06241 0.64169 0.0
C538 C 0.80531 0.08238 0.63078 0.0
C539 C 0.79033 0.11138 0.63446 0.0
H540 H 0.79096 0.1041 0.67142 0.0
C541 C 0.78497 0.11833 0.64928 0.0
C542 C 0.79581 0.09787 0.66018 0.0
H543 H 0.77347 0.14048 0.65249 0.0
H544 H 0.91847 0.99895 0.69636 0.0
H545 H 0.86397 0.00371 0.68116 0.0
H546 H 0.89251 0.12368 0.7041 0.0
H547 H 0.94619 0.11815 0.71945 0.0
H548 H 0.84052 0.09963 0.68439 0.0
H549 H 0.8407 0.03015 0.66394 0.0
H550 H 0.83001 0.04167 0.63851 0.0
H551 H 0.80987 0.0766 0.61944 0.0
C552 C 0.93417 0.96137 0.04213 0.0
C553 C 0.91915 0.98796 0.04842 0.0
C554 C 0.90662 0.92608 0.03285 0.0
C555 C 0.86327 0.9163 0.02984 0.0
C556 C 0.84778 0.94195 0.03646 0.0
C557 C 0.87565 0.97787 0.04551 0.0
C558 C 0.83352 0.87905 0.02003 0.0
C559 C 0.84798 0.86913 0.0078 0.0
C560 C 0.81847 0.83239 0.99777 0.0
C561 C 0.82617 0.8367 0.98271 0.0
C562 C 0.79934 0.80224 0.97302 0.0
C563 C 0.76474 0.76248 0.97824 0.0
H564 H 0.77824 0.78785 0.01468 0.0
C565 C 0.7578 0.75779 0.99341 0.0
C566 C 0.7841 0.79258 0.00306 0.0
H567 H 0.73228 0.7272 0.99785 0.0
H568 H 0.96751 0.96828 0.04417 0.0
H569 H 0.91912 0.90621 0.02815 0.0
H570 H 0.81433 0.93471 0.03439 0.0
H571 H 0.86305 0.99755 0.0503 0.0
H572 H 0.79855 0.86117 0.02245 0.0
H573 H 0.88205 0.89005 0.0046 0.0
H574 H 0.85285 0.86689 0.97841 0.0
H575 H 0.80592 0.8064 0.96143 0.0
C576 C 0.9926 0.94354 0.37594 0.0
C577 C 0.02752 0.98725 0.37565 0.0
C578 C 0.99395 0.91087 0.36756 0.0
C579 C 0.03021 0.92131 0.35859 0.0
C580 C 0.06526 0.96498 0.3584 0.0
C581 C 0.06387 0.99772 0.36679 0.0
C582 C 0.03353 0.88707 0.34998 0.0
C583 C 0.99801 0.84902 0.34543 0.0
C584 C 0.0007 0.8129 0.33784 0.0
C585 C 0.96355 0.78074 0.33 0.0
C586 C 0.96351 0.74449 0.3236 0.0
C587 C 0.00073 0.73968 0.32489 0.0
H588 H 0.06675 0.83114 0.34547 0.0
C589 C 0.03793 0.77182 0.33271 0.0
C590 C 0.03799 0.80805 0.33911 0.0
H591 H 0.06667 0.76838 0.33415 0.0
H592 H 0.96432 0.9344 0.38277 0.0
H593 H 0.96699 0.8774 0.36844 0.0
H594 H 0.09381 0.97383 0.35173 0.0
H595 H 0.09137 0.03112 0.36639 0.0
H596 H 0.06635 0.89416 0.34708 0.0
H597 H 0.96524 0.84404 0.34712 0.0
H598 H 0.93418 0.7833 0.32901 0.0
H599 H 0.93407 0.71973 0.31788 0.0
C600 C 0.12427 0.01754 0.71705 0.0
C601 C 0.11824 0.05386 0.71564 0.0
C602 C 0.15921 0.01676 0.71004 0.0
C603 C 0.18883 0.05242 0.70153 0.0
C604 C 0.18317 0.08896 0.70041 0.0
C605 C 0.14814 0.08958 0.70728 0.0
C606 C 0.22688 0.05363 0.69408 0.0
C607 C 0.22776 0.01742 0.68967 0.0
C608 C 0.26594 0.01937 0.68201 0.0
C609 C 0.25902 0.98388 0.67294 0.0
C610 C 0.29432 0.98427 0.66581 0.0
C611 C 0.33738 0.02021 0.66764 0.0
H612 H 0.31629 0.08231 0.69129 0.0
C613 C 0.34442 0.05541 0.67688 0.0
C614 C 0.30919 0.05506 0.68398 0.0
H615 H 0.37741 0.08298 0.6788 0.0
H616 H 0.10188 0.98962 0.72348 0.0
H617 H 0.16324 0.98854 0.71152 0.0
H618 H 0.2057 0.11705 0.69406 0.0
H619 H 0.14458 0.11818 0.70604 0.0
H620 H 0.25416 0.08587 0.69141 0.0
H621 H 0.19879 0.9852 0.69106 0.0
H622 H 0.22619 0.95571 0.67137 0.0
H623 H 0.2881 0.95625 0.65901 0.0
C624 C 0.12186 0.21314 0.04498 0.0
C625 C 0.10964 0.16945 0.04801 0.0
C626 C 0.15403 0.2369 0.03472 0.0
C627 C 0.17507 0.21765 0.0272 0.0
C628 C 0.16388 0.17441 0.03055 0.0
C629 C 0.13176 0.15063 0.04096 0.0
C630 C 0.20447 0.23998 0.0147 0.0
C631 C 0.22671 0.28407 0.01332 0.0
C632 C 0.24616 0.30662 -0.00059 0.0
C633 C 0.24974 0.34763 0.99711 0.0
C634 C 0.26274 0.36799 0.98362 0.0
C635 C 0.27357 0.34829 0.97219 0.0
H636 H 0.25722 0.2565 0.98958 0.0
C637 C 0.27186 0.30815 0.97465 0.0
C638 C 0.25845 0.28752 0.98815 0.0
H639 H 0.27974 0.29214 0.96599 0.0
H640 H 0.10558 0.22871 0.05024 0.0
H641 H 0.16042 0.26951 0.0322 0.0
H642 H 0.1792 0.15861 0.02482 0.0
H643 H 0.12295 0.11696 0.04301 0.0
H644 H 0.20471 0.21901 0.00596 0.0
H645 H 0.22684 0.30459 0.02231 0.0
H646 H 0.24051 0.36312 0.00557 0.0
H647 H 0.26303 0.39855 0.982 0.0
C648 C 0.01101 0.17459 0.37727 0.0
C649 C 0.04129 0.175 0.38747 0.0
C650 C 0.01999 0.21299 0.37015 0.0
C651 C 0.0598 0.25255 0.37295 0.0
C652 C 0.08874 0.2535 0.38381 0.0
C653 C 0.07967 0.21506 0.39099 0.0
C654 C 0.07282 0.29276 0.36438 0.0
C655 C 0.05958 0.29084 0.35038 0.0
C656 C 0.07548 0.32959 0.34081 0.0
C657 C 0.0703 0.32216 0.32562 0.0
C658 C 0.08491 0.35721 0.31608 0.0
C659 C 0.10469 0.40066 0.32151 0.0
H660 H 0.09881 0.38033 0.3579 0.0
C661 C 0.1098 0.40829 0.3367 0.0
C662 C 0.09512 0.37312 0.34628 0.0
H663 H 0.12496 0.44148 0.34117 0.0
H664 H 0.98074 0.14436 0.37452 0.0
H665 H 0.9959 0.21132 0.36232 0.0
H666 H 0.11931 0.28367 0.38634 0.0
H667 H 0.10347 0.21647 0.3989 0.0
H668 H 0.09708 0.32404 0.3693 0.0
H669 H 0.03839 0.25888 0.34522 0.0
H670 H 0.0552 0.28904 0.32108 0.0
H671 H 0.08074 0.35039 0.30442 0.0
loop_
_geom_bond_atom_site_label_1
_geom_bond_atom_site_label_2
_geom_bond_distance
_geom_bond_site_symmetry_2
_ccdc_geom_bond_type
Co0 O1 2.221 1_545 S
Co0 O2 2.091 . S
Co0 O4 2.004 . S
Co0 O10 2.021 . S
Co0 O12 2.137 . S
Co0 O13 2.244 . S
O1 Co0 2.221 1_565 S
O1 C8 1.269 . S
O2 Co0 2.091 . S
O2 C8 1.261 1_545 S
C3 O12 1.247 . S
C3 O13 1.272 . S
O4 Co0 2.004 . S
O4 C9 1.259 . S
Co5 O6 2.061 1_655 S
Co5 O11 2.052 . S
Co5 O13 2.135 1_655 S
O6 Co5 2.061 1_455 S
O6 C9 1.235 . S
C7 O10 1.238 1_655 S
C7 O11 1.241 . S
C8 O1 1.269 . S
C8 O2 1.261 1_565 S
C9 O4 1.259 . S
C9 O6 1.235 . S
O10 Co0 2.021 . S
O10 C7 1.238 1_455 S
O11 Co5 2.052 . S
O11 C7 1.241 . S
O12 Co0 2.137 . S
O12 C3 1.247 . S
O13 Co0 2.244 . S
O13 C3 1.272 . S
O13 Co5 2.135 1_455 S
Co14 O15 2.216 . S
Co14 O16 2.091 . S
Co14 O18 2.004 . S
Co14 O24 2.021 . S
Co14 O26 2.137 . S
Co14 O27 2.244 . S
O15 Co14 2.216 . S
O15 C22 1.247 . S
O16 Co14 2.091 . S
O16 C22 1.261 . S
C17 O26 1.247 . S
C17 O27 1.272 . S
O18 Co14 2.004 . S
O18 C23 1.259 . S
Co19 O20 2.061 1_565 S
Co19 O25 2.052 1_465 S
Co19 O27 2.135 1_565 S
O20 Co19 2.061 1_545 S
O20 C23 1.235 . S
C21 O24 1.238 1_655 S
C21 O25 1.241 . S
C22 O15 1.247 . S
C22 O16 1.261 . S
C23 O18 1.259 . S
C23 O20 1.235 . S
O24 Co14 2.021 . S
O24 C21 1.238 1_455 S
O25 Co19 2.052 1_645 S
O25 C21 1.241 . S
O26 Co14 2.137 . S
O26 C17 1.247 . S
O27 Co14 2.244 . S
O27 C17 1.272 . S
O27 Co19 2.135 1_545 S
Co28 O29 2.216 . S
Co28 O30 2.091 . S
Co28 O32 2.004 1_445 S
Co28 O38 2.021 . S
Co28 O40 2.137 1_455 S
Co28 O41 2.244 1_455 S
O29 Co28 2.216 . S
O29 C36 1.247 . S
O30 Co28 2.091 . S
O30 C36 1.261 . S
C31 O40 1.247 . S
C31 O41 1.272 . S
O32 Co28 2.004 1_665 S
O32 C37 1.259 . S
Co33 O34 2.061 . S
Co33 O39 2.052 1_655 S
Co33 O41 2.135 . S
O34 Co33 2.061 . S
O34 C37 1.235 1_545 S
C35 O38 1.238 . S
C35 O39 1.241 . S
C36 O29 1.247 . S
C36 O30 1.261 . S
C37 O32 1.259 . S
C37 O34 1.235 1_565 S
O38 Co28 2.021 . S
O38 C35 1.238 . S
O39 Co33 2.052 1_455 S
O39 C35 1.241 . S
O40 Co28 2.137 1_655 S
O40 C31 1.247 . S
O41 Co28 2.244 1_655 S
O41 C31 1.272 . S
O41 Co33 2.135 . S
C42 C43 1.560 1_655 S
C42 H103 0.959 . S
C42 H104 0.959 . S
C42 H105 0.960 . S
C43 C42 1.560 1_455 S
C43 O98 1.426 1_455 S
C43 H102 0.980 . S
C44 C45 1.407 . S
C44 C49 1.418 1_455 S
C44 O98 1.334 1_455 S
C45 C44 1.407 . S
C45 C46 1.360 . S
C45 H106 0.929 . S
C46 C45 1.360 . S
C46 C47 1.401 . S
C46 C50 1.527 . S
C47 C46 1.401 . S
C47 C48 1.405 1_455 S
C47 C80 1.587 . S
C48 C47 1.405 1_655 S
C48 C49 1.332 . S
C48 C51 1.496 . S
C49 C44 1.418 1_655 S
C49 C48 1.332 . S
C49 H107 0.929 . S
C50 C46 1.527 . S
C50 H108 0.959 . S
C50 H109 0.961 . S
C50 H110 0.961 . S
C51 C48 1.496 . S
C51 H111 0.960 . S
C51 H112 0.960 . S
C51 H113 0.961 . S
C52 C53 1.517 . S
C52 H115 0.961 . S
C52 H116 0.960 . S
C52 H117 0.959 . S
C53 C52 1.517 . S
C53 O101 1.468 . S
C53 H114 0.980 . S
C54 C55 1.349 . S
C54 C59 1.367 . S
C54 O101 1.408 . S
C55 C54 1.349 . S
C55 C56 1.407 . S
C55 H118 0.930 . S
C56 C55 1.407 . S
C56 C57 1.449 . S
C56 C60 1.535 1_455 S
C57 C56 1.449 . S
C57 C58 1.384 . S
C57 C82 1.553 . S
C58 C57 1.384 . S
C58 C59 1.364 . S
C58 C61 1.450 . S
C59 C54 1.367 . S
C59 C58 1.364 . S
C59 H119 0.931 . S
C60 C56 1.535 1_655 S
C60 H120 0.959 . S
C60 H121 0.961 . S
C60 H122 0.959 . S
C61 C58 1.450 . S
C61 H123 0.960 . S
C61 H124 0.960 . S
C61 H125 0.960 . S
C62 C63 1.309 . S
C62 C67 1.304 . S
C62 O100 1.435 . S
C63 C62 1.309 . S
C63 C64 1.476 . S
C63 H127 0.925 1_455 S
C64 C63 1.476 . S
C64 C65 1.400 . S
C64 C68 1.567 1_455 S
C65 C64 1.400 . S
C65 C66 1.373 . S
C65 C87 1.432 . S
C66 C65 1.373 . S
C66 C67 1.339 . S
C66 C69 1.530 . S
C67 C62 1.304 . S
C67 C66 1.339 . S
C67 H128 0.930 . S
C68 C64 1.567 1_655 S
C68 H129 0.961 . S
C68 H130 0.960 . S
C68 H131 0.958 . S
C69 C66 1.530 . S
C69 H132 0.961 . S
C69 H133 0.960 . S
C69 H134 0.960 . S
C70 C71 1.530 1_655 S
C70 H136 0.960 1_655 S
C70 H137 0.961 . S
C70 H138 0.959 . S
C71 C70 1.530 1_455 S
C71 O99 1.412 1_455 S
C71 H135 0.980 . S
C72 C73 1.288 . S
C72 C77 1.377 1_655 S
C72 O99 1.393 . S
C73 C72 1.288 . S
C73 C74 1.369 . S
C73 H139 0.932 . S
C74 C73 1.369 . S
C74 C75 1.398 1_655 S
C74 C78 1.527 . S
C75 C74 1.398 1_455 S
C75 C76 1.380 . S
C75 C89 1.497 . S
C76 C75 1.380 . S
C76 C77 1.383 . S
C76 C79 1.603 . S
C77 C72 1.377 1_455 S
C77 C76 1.383 . S
C77 H140 0.929 . S
C78 C74 1.527 . S
C78 H141 0.961 . S
C78 H142 0.959 . S
C78 H143 0.959 . S
C79 C76 1.603 . S
C79 H144 0.960 . S
C79 H145 0.962 . S
C79 H146 0.961 . S
C80 C47 1.587 . S
C80 C81 1.360 . S
C80 C93 1.412 . S
C81 C80 1.360 . S
C81 C82 1.365 . S
C81 H147 0.929 . S
C82 C57 1.553 . S
C82 C81 1.365 . S
C82 C83 1.404 . S
C83 C82 1.404 . S
C83 C84 1.395 . S
C83 C94 1.451 . S
C84 C83 1.395 . S
C84 C85 1.322 . S
C84 H148 0.930 . S
C85 C84 1.322 . S
C85 C86 1.459 . S
C85 H149 0.929 . S
C86 C85 1.459 . S
C86 C87 1.445 . S
C86 C95 1.395 . S
C87 C65 1.432 . S
C87 C86 1.445 . S
C87 C88 1.370 . S
C88 C87 1.370 . S
C88 C89 1.438 . S
C88 H150 0.930 . S
C89 C75 1.497 . S
C89 C88 1.438 . S
C89 C90 1.360 . S
C90 C89 1.360 . S
C90 C91 1.401 . S
C90 C95 1.446 . S
C91 C90 1.401 . S
C91 C92 1.347 . S
C91 H151 0.929 . S
C92 C91 1.347 . S
C92 C93 1.455 . S
C92 H152 0.930 . S
C93 C80 1.412 . S
C93 C92 1.455 . S
C93 C94 1.331 . S
C94 C83 1.451 . S
C94 C93 1.331 . S
C94 C95 1.497 . S
C95 C86 1.395 . S
C95 C90 1.446 . S
C95 C94 1.497 . S
C96 C97 1.582 . S
C96 H153 0.962 . S
C96 H154 0.959 . S
C96 H155 0.958 . S
C97 C96 1.582 . S
C97 O100 1.458 . S
C97 H126 0.980 . S
O98 C43 1.426 1_655 S
O98 C44 1.334 1_655 S
O99 C71 1.412 1_655 S
O99 C72 1.393 . S
O100 C62 1.435 . S
O100 C97 1.458 . S
O101 C53 1.468 . S
O101 C54 1.408 . S
H102 C43 0.980 . S
H103 C42 0.959 . S
H104 C42 0.959 . S
H105 C42 0.960 . S
H106 C45 0.929 . S
H107 C49 0.929 . S
H108 C50 0.959 . S
H109 C50 0.961 . S
H110 C50 0.961 . S
H111 C51 0.960 . S
H112 C51 0.960 . S
H113 C51 0.961 . S
H114 C53 0.980 . S
H115 C52 0.961 . S
H116 C52 0.960 . S
H117 C52 0.959 . S
H118 C55 0.930 . S
H119 C59 0.931 . S
H120 C60 0.959 . S
H121 C60 0.961 . S
H122 C60 0.959 . S
H123 C61 0.960 . S
H124 C61 0.960 . S
H125 C61 0.960 . S
H126 C97 0.980 . S
H127 C63 0.925 1_655 S
H128 C67 0.930 . S
H129 C68 0.961 . S
H130 C68 0.960 . S
H131 C68 0.958 . S
H132 C69 0.961 . S
H133 C69 0.960 . S
H134 C69 0.960 . S
H135 C71 0.980 . S
H136 C70 0.960 1_455 S
H137 C70 0.961 . S
H138 C70 0.959 . S
H139 C73 0.932 . S
H140 C77 0.929 . S
H141 C78 0.961 . S
H142 C78 0.959 . S
H143 C78 0.959 . S
H144 C79 0.960 . S
H145 C79 0.962 . S
H146 C79 0.961 . S
H147 C81 0.929 . S
H148 C84 0.930 . S
H149 C85 0.929 . S
H150 C88 0.930 . S
H151 C91 0.929 . S
H152 C92 0.930 . S
H153 C96 0.962 . S
H154 C96 0.959 . S
H155 C96 0.958 . S
C156 C157 1.560 1_565 S
C156 H217 0.959 . S
C156 H218 0.959 . S
C156 H219 0.960 1_565 S
C157 C156 1.560 1_545 S
C157 O212 1.426 . S
C157 H216 0.980 . S
C158 C159 1.407 . S
C158 C163 1.418 1_545 S
C158 O212 1.334 . S
C159 C158 1.407 . S
C159 C160 1.360 . S
C159 H220 0.929 . S
C160 C159 1.360 . S
C160 C161 1.401 . S
C160 C164 1.527 . S
C161 C160 1.401 . S
C161 C162 1.405 . S
C161 C194 1.587 . S
C162 C161 1.405 . S
C162 C163 1.332 1_545 S
C162 C165 1.496 1_545 S
C163 C158 1.418 1_565 S
C163 C162 1.332 1_565 S
C163 H221 0.929 . S
C164 C160 1.527 . S
C164 H222 0.959 . S
C164 H223 0.961 . S
C164 H224 0.961 . S
C165 C162 1.496 1_565 S
C165 H225 0.960 . S
C165 H226 0.960 . S
C165 H227 0.961 . S
C166 C167 1.517 . S
C166 H229 0.961 . S
C166 H230 0.960 . S
C166 H231 0.959 . S
C167 C166 1.517 . S
C167 O215 1.468 . S
C167 H228 0.980 . S
C168 C169 1.349 . S
C168 C173 1.367 . S
C168 O215 1.408 . S
C169 C168 1.349 . S
C169 C170 1.407 . S
C169 H232 0.930 . S
C170 C169 1.407 . S
C170 C171 1.449 . S
C170 C174 1.535 . S
C171 C170 1.449 . S
C171 C172 1.384 . S
C171 C196 1.553 . S
C172 C171 1.384 . S
C172 C173 1.364 . S
C172 C175 1.450 . S
C173 C168 1.367 . S
C173 C172 1.364 . S
C173 H233 0.931 . S
C174 C170 1.535 . S
C174 H234 0.959 . S
C174 H235 0.961 1_545 S
C174 H236 0.959 1_545 S
C175 C172 1.450 . S
C175 H237 0.960 . S
C175 H238 0.960 . S
C175 H239 0.960 . S
C176 C177 1.309 . S
C176 C181 1.304 . S
C176 O214 1.435 . S
C177 C176 1.309 . S
C177 C178 1.476 . S
C177 H241 0.930 . S
C178 C177 1.476 . S
C178 C179 1.400 . S
C178 C182 1.567 . S
C179 C178 1.400 . S
C179 C180 1.373 . S
C179 C201 1.432 . S
C180 C179 1.373 . S
C180 C181 1.339 . S
C180 C183 1.530 . S
C181 C176 1.304 . S
C181 C180 1.339 . S
C181 H242 0.930 . S
C182 C178 1.567 . S
C182 H243 0.961 . S
C182 H244 0.960 1_545 S
C182 H245 0.958 1_545 S
C183 C180 1.530 . S
C183 H246 0.961 . S
C183 H247 0.960 . S
C183 H248 0.960 . S
C184 C185 1.530 . S
C184 H250 0.961 . S
C184 H251 0.961 . S
C184 H252 0.959 . S
C185 C184 1.530 . S
C185 O213 1.412 . S
C185 H249 0.980 . S
C186 C187 1.288 . S
C186 C191 1.377 . S
C186 O213 1.393 . S
C187 C186 1.288 . S
C187 C188 1.369 . S
C187 H253 0.932 1_545 S
C188 C187 1.369 . S
C188 C189 1.398 . S
C188 C192 1.527 1_545 S
C189 C188 1.398 . S
C189 C190 1.380 . S
C189 C203 1.497 . S
C190 C189 1.380 . S
C190 C191 1.383 . S
C190 C193 1.603 . S
C191 C186 1.377 . S
C191 C190 1.383 . S
C191 H254 0.929 . S
C192 C188 1.527 1_565 S
C192 H255 0.961 . S
C192 H256 0.959 . S
C192 H257 0.959 . S
C193 C190 1.603 . S
C193 H258 0.960 . S
C193 H259 0.962 . S
C193 H260 0.961 . S
C194 C161 1.587 . S
C194 C195 1.360 . S
C194 C207 1.412 . S
C195 C194 1.360 . S
C195 C196 1.365 . S
C195 H261 0.929 . S
C196 C171 1.553 . S
C196 C195 1.365 . S
C196 C197 1.404 . S
C197 C196 1.404 . S
C197 C198 1.395 . S
C197 C208 1.451 . S
C198 C197 1.395 . S
C198 C199 1.322 . S
C198 H262 0.930 . S
C199 C198 1.322 . S
C199 C200 1.459 . S
C199 H263 0.929 . S
C200 C199 1.459 . S
C200 C201 1.445 . S
C200 C209 1.395 . S
C201 C179 1.432 . S
C201 C200 1.445 . S
C201 C202 1.370 . S
C202 C201 1.370 . S
C202 C203 1.438 . S
C202 H264 0.930 . S
C203 C189 1.497 . S
C203 C202 1.438 . S
C203 C204 1.360 . S
C204 C203 1.360 . S
C204 C205 1.401 . S
C204 C209 1.446 . S
C205 C204 1.401 . S
C205 C206 1.347 . S
C205 H265 0.929 . S
C206 C205 1.347 . S
C206 C207 1.455 . S
C206 H266 0.930 . S
C207 C194 1.412 . S
C207 C206 1.455 . S
C207 C208 1.331 . S
C208 C197 1.451 . S
C208 C207 1.331 . S
C208 C209 1.497 . S
C209 C200 1.395 . S
C209 C204 1.446 . S
C209 C208 1.497 . S
C210 C211 1.582 . S
C210 H267 0.962 . S
C210 H268 0.959 . S
C210 H269 0.958 . S
C211 C210 1.582 . S
C211 O214 1.458 . S
C211 H240 0.980 . S
O212 C157 1.426 . S
O212 C158 1.334 . S
O213 C185 1.412 . S
O213 C186 1.393 . S
O214 C176 1.435 . S
O214 C211 1.458 . S
O215 C167 1.468 . S
O215 C168 1.408 . S
H216 C157 0.980 . S
H217 C156 0.959 . S
H218 C156 0.959 . S
H219 C156 0.960 1_545 S
H220 C159 0.929 . S
H221 C163 0.929 . S
H222 C164 0.959 . S
H223 C164 0.961 . S
H224 C164 0.961 . S
H225 C165 0.960 . S
H226 C165 0.960 . S
H227 C165 0.961 . S
H228 C167 0.980 . S
H229 C166 0.961 . S
H230 C166 0.960 . S
H231 C166 0.959 . S
H232 C169 0.930 . S
H233 C173 0.931 . S
H234 C174 0.959 . S
H235 C174 0.961 1_565 S
H236 C174 0.959 1_565 S
H237 C175 0.960 . S
H238 C175 0.960 . S
H239 C175 0.960 . S
H240 C211 0.980 . S
H241 C177 0.930 . S
H242 C181 0.930 . S
H243 C182 0.961 . S
H244 C182 0.960 1_565 S
H245 C182 0.958 1_565 S
H246 C183 0.961 . S
H247 C183 0.960 . S
H248 C183 0.960 . S
H249 C185 0.980 . S
H250 C184 0.961 . S
H251 C184 0.961 . S
H252 C184 0.959 . S
H253 C187 0.932 1_565 S
H254 C191 0.929 . S
H255 C192 0.961 . S
H256 C192 0.959 . S
H257 C192 0.959 . S
H258 C193 0.960 . S
H259 C193 0.962 . S
H260 C193 0.961 . S
H261 C195 0.929 . S
H262 C198 0.930 . S
H263 C199 0.929 . S
H264 C202 0.930 . S
H265 C205 0.929 . S
H266 C206 0.930 . S
H267 C210 0.962 . S
H268 C210 0.959 . S
H269 C210 0.958 . S
C270 C271 1.560 . S
C270 H331 0.959 . S
C270 H332 0.959 . S
C270 H333 0.960 . S
C271 C270 1.560 . S
C271 O326 1.426 . S
C271 H330 0.980 . S
C272 C273 1.407 . S
C272 C277 1.418 . S
C272 O326 1.334 . S
C273 C272 1.407 . S
C273 C274 1.360 . S
C273 H334 0.929 . S
C274 C273 1.360 . S
C274 C275 1.401 . S
C274 C278 1.527 . S
C275 C274 1.401 . S
C275 C276 1.405 . S
C275 C308 1.587 . S
C276 C275 1.405 . S
C276 C277 1.332 . S
C276 C279 1.496 . S
C277 C272 1.418 . S
C277 C276 1.332 . S
C277 H335 0.929 . S
C278 C274 1.527 . S
C278 H336 0.959 . S
C278 H337 0.961 . S
C278 H338 0.961 . S
C279 C276 1.496 . S
C279 H339 0.960 . S
C279 H340 0.960 . S
C279 H341 0.961 . S
C280 C281 1.517 . S
C280 H343 0.961 . S
C280 H344 0.960 . S
C280 H345 0.959 . S
C281 C280 1.517 . S
C281 O329 1.468 . S
C281 H342 0.980 . S
C282 C283 1.349 . S
C282 C287 1.367 . S
C282 O329 1.408 . S
C283 C282 1.349 . S
C283 C284 1.407 . S
C283 H346 0.930 . S
C284 C283 1.407 . S
C284 C285 1.449 . S
C284 C288 1.535 . S
C285 C284 1.449 . S
C285 C286 1.384 . S
C285 C310 1.553 . S
C286 C285 1.384 . S
C286 C287 1.364 . S
C286 C289 1.450 . S
C287 C282 1.367 . S
C287 C286 1.364 . S
C287 H347 0.931 . S
C288 C284 1.535 . S
C288 H348 0.959 . S
C288 H349 0.961 . S
C288 H350 0.959 . S
C289 C286 1.450 . S
C289 H351 0.960 . S
C289 H352 0.960 . S
C289 H353 0.960 . S
C290 C291 1.309 . S
C290 C295 1.304 . S
C290 O328 1.435 . S
C291 C290 1.309 . S
C291 C292 1.476 . S
C291 H355 0.930 . S
C292 C291 1.476 . S
C292 C293 1.400 . S
C292 C296 1.567 . S
C293 C292 1.400 . S
C293 C294 1.373 . S
C293 C315 1.432 . S
C294 C293 1.373 . S
C294 C295 1.339 . S
C294 C297 1.530 . S
C295 C290 1.304 . S
C295 C294 1.339 . S
C295 H356 0.930 . S
C296 C292 1.567 . S
C296 H357 0.961 . S
C296 H358 0.960 . S
C296 H359 0.958 . S
C297 C294 1.530 . S
C297 H360 0.961 . S
C297 H361 0.960 . S
C297 H362 0.960 . S
C298 C299 1.530 . S
C298 H364 0.961 . S
C298 H365 0.961 . S
C298 H366 0.959 . S
C299 C298 1.530 . S
C299 O327 1.412 . S
C299 H363 0.980 . S
C300 C301 1.288 . S
C300 C305 1.377 . S
C300 O327 1.393 . S
C301 C300 1.288 . S
C301 C302 1.369 . S
C301 H367 0.932 . S
C302 C301 1.369 . S
C302 C303 1.398 . S
C302 C306 1.527 . S
C303 C302 1.398 . S
C303 C304 1.380 . S
C303 C317 1.497 . S
C304 C303 1.380 . S
C304 C305 1.383 . S
C304 C307 1.603 . S
C305 C300 1.377 . S
C305 C304 1.383 . S
C305 H368 0.929 . S
C306 C302 1.527 . S
C306 H369 0.961 . S
C306 H370 0.959 . S
C306 H371 0.959 . S
C307 C304 1.603 . S
C307 H372 0.960 . S
C307 H373 0.962 . S
C307 H374 0.961 . S
C308 C275 1.587 . S
C308 C309 1.360 . S
C308 C321 1.412 . S
C309 C308 1.360 . S
C309 C310 1.365 . S
C309 H375 0.929 . S
C310 C285 1.553 . S
C310 C309 1.365 . S
C310 C311 1.404 . S
C311 C310 1.404 . S
C311 C312 1.395 . S
C311 C322 1.451 . S
C312 C311 1.395 . S
C312 C313 1.322 . S
C312 H376 0.930 . S
C313 C312 1.322 . S
C313 C314 1.459 . S
C313 H377 0.929 . S
C314 C313 1.459 . S
C314 C315 1.445 . S
C314 C323 1.395 . S
C315 C293 1.432 . S
C315 C314 1.445 . S
C315 C316 1.370 . S
C316 C315 1.370 . S
C316 C317 1.438 . S
C316 H378 0.930 . S
C317 C303 1.497 . S
C317 C316 1.438 . S
C317 C318 1.360 . S
C318 C317 1.360 . S
C318 C319 1.401 . S
C318 C323 1.446 . S
C319 C318 1.401 . S
C319 C320 1.347 . S
C319 H379 0.929 . S
C320 C319 1.347 . S
C320 C321 1.455 . S
C320 H380 0.930 . S
C321 C308 1.412 . S
C321 C320 1.455 . S
C321 C322 1.331 . S
C322 C311 1.451 . S
C322 C321 1.331 . S
C322 C323 1.497 . S
C323 C314 1.395 . S
C323 C318 1.446 . S
C323 C322 1.497 . S
C324 C325 1.582 . S
C324 H381 0.962 . S
C324 H382 0.959 . S
C324 H383 0.958 . S
C325 C324 1.582 . S
C325 O328 1.458 . S
C325 H354 0.980 . S
O326 C271 1.426 . S
O326 C272 1.334 . S
O327 C299 1.412 . S
O327 C300 1.393 . S
O328 C290 1.435 . S
O328 C325 1.458 . S
O329 C281 1.468 . S
O329 C282 1.408 . S
H330 C271 0.980 . S
H331 C270 0.959 . S
H332 C270 0.959 . S
H333 C270 0.960 . S
H334 C273 0.929 . S
H335 C277 0.929 . S
H336 C278 0.959 . S
H337 C278 0.961 . S
H338 C278 0.961 . S
H339 C279 0.960 . S
H340 C279 0.960 . S
H341 C279 0.961 . S
H342 C281 0.980 . S
H343 C280 0.961 . S
H344 C280 0.960 . S
H345 C280 0.959 . S
H346 C283 0.930 . S
H347 C287 0.931 . S
H348 C288 0.959 . S
H349 C288 0.961 . S
H350 C288 0.959 . S
H351 C289 0.960 . S
H352 C289 0.960 . S
H353 C289 0.960 . S
H354 C325 0.980 . S
H355 C291 0.930 . S
H356 C295 0.930 . S
H357 C296 0.961 . S
H358 C296 0.960 . S
H359 C296 0.958 . S
H360 C297 0.961 . S
H361 C297 0.960 . S
H362 C297 0.960 . S
H363 C299 0.980 . S
H364 C298 0.961 . S
H365 C298 0.961 . S
H366 C298 0.959 . S
H367 C301 0.932 . S
H368 C305 0.929 . S
H369 C306 0.961 . S
H370 C306 0.959 . S
H371 C306 0.959 . S
H372 C307 0.960 . S
H373 C307 0.962 . S
H374 C307 0.961 . S
H375 C309 0.929 . S
H376 C312 0.930 . S
H377 C313 0.929 . S
H378 C316 0.930 . S
H379 C319 0.929 . S
H380 C320 0.930 . S
H381 C324 0.962 . S
H382 C324 0.959 . S
H383 C324 0.958 . S
C384 C385 1.386 . S
C384 C386 1.383 . S
C384 H400 0.951 1_455 S
C385 C384 1.386 . S
C385 C389 1.383 . S
C386 C384 1.383 . S
C386 C387 1.402 . S
C386 H401 0.961 . S
C387 C386 1.402 . S
C387 C388 1.375 . S
C387 C390 1.481 . S
C388 C387 1.375 . S
C388 C389 1.367 . S
C388 H402 0.951 . S
C389 C385 1.383 . S
C389 C388 1.367 . S
C389 H403 0.950 . S
C390 C387 1.481 . S
C390 C391 1.297 . S
C390 H404 0.950 . S
C391 C390 1.297 . S
C391 C392 1.479 . S
C391 H405 0.950 . S
C392 C391 1.479 . S
C392 C393 1.375 . S
C392 C398 1.404 . S
C393 C392 1.375 . S
C393 C394 1.377 . S
C393 H406 0.950 1_455 S
C394 C393 1.377 . S
C394 C395 1.391 . S
C394 H407 0.943 1_455 S
C395 C394 1.391 . S
C395 C397 1.384 . S
H396 C398 0.949 . S
C397 C395 1.384 . S
C397 C398 1.385 . S
C397 H399 0.950 . S
C398 C392 1.404 . S
C398 H396 0.949 . S
C398 C397 1.385 . S
H399 C397 0.950 . S
H400 C384 0.951 1_655 S
H401 C386 0.961 . S
H402 C388 0.951 . S
H403 C389 0.950 . S
H404 C390 0.950 . S
H405 C391 0.950 . S
H406 C393 0.950 1_655 S
H407 C394 0.943 1_655 S
C408 C409 1.386 . S
C408 C410 1.383 . S
C408 H424 0.951 . S
C409 C408 1.386 . S
C409 C413 1.383 . S
C410 C408 1.383 . S
C410 C411 1.402 . S
C410 H425 0.951 . S
C411 C410 1.402 . S
C411 C412 1.375 . S
C411 C414 1.481 . S
C412 C411 1.375 . S
C412 C413 1.367 . S
C412 H426 0.951 . S
C413 C409 1.383 . S
C413 C412 1.367 . S
C413 H427 0.950 . S
C414 C411 1.481 . S
C414 C415 1.297 . S
C414 H428 0.950 . S
C415 C414 1.297 . S
C415 C416 1.479 . S
C415 H429 0.950 . S
C416 C415 1.479 . S
C416 C417 1.375 . S
C416 C422 1.404 . S
C417 C416 1.375 . S
C417 C418 1.369 . S
C417 H430 0.950 . S
C418 C417 1.369 . S
C418 C419 1.392 . S
C418 H431 0.951 . S
C419 C418 1.392 . S
C419 C421 1.384 . S
H420 C422 0.949 . S
C421 C419 1.384 . S
C421 C422 1.385 . S
C421 H423 0.950 . S
C422 C416 1.404 . S
C422 H420 0.949 . S
C422 C421 1.385 . S
H423 C421 0.950 . S
H424 C408 0.951 . S
H425 C410 0.951 . S
H426 C412 0.951 . S
H427 C413 0.950 . S
H428 C414 0.950 . S
H429 C415 0.950 . S
H430 C417 0.950 . S
H431 C418 0.951 . S
C432 C433 1.386 . S
C432 C434 1.383 . S
C432 H448 0.951 . S
C433 C432 1.386 . S
C433 C437 1.383 . S
C434 C432 1.383 . S
C434 C435 1.402 . S
C434 H449 0.951 . S
C435 C434 1.402 . S
C435 C436 1.375 . S
C435 C438 1.481 . S
C436 C435 1.375 . S
C436 C437 1.367 . S
C436 H450 0.951 . S
C437 C433 1.383 . S
C437 C436 1.367 . S
C437 H451 0.950 . S
C438 C435 1.481 . S
C438 C439 1.297 . S
C438 H452 0.950 . S
C439 C438 1.297 . S
C439 C440 1.479 . S
C439 H453 0.950 . S
C440 C439 1.479 . S
C440 C441 1.375 . S
C440 C446 1.404 . S
C441 C440 1.375 . S
C441 C442 1.369 . S
C441 H454 0.950 . S
C442 C441 1.369 . S
C442 C443 1.392 . S
C442 H455 0.951 . S
C443 C442 1.392 . S
C443 C445 1.384 . S
H444 C446 0.949 . S
C445 C443 1.384 . S
C445 C446 1.385 . S
C445 H447 0.950 . S
C446 C440 1.404 . S
C446 H444 0.949 . S
C446 C445 1.385 . S
H447 C445 0.950 . S
H448 C432 0.951 . S
H449 C434 0.951 . S
H450 C436 0.951 . S
H451 C437 0.950 . S
H452 C438 0.950 . S
H453 C439 0.950 . S
H454 C441 0.950 . S
H455 C442 0.951 . S
C456 C457 1.386 . S
C456 C458 1.383 . S
C456 H472 0.951 . S
C457 C456 1.386 . S
C457 C461 1.368 1_455 S
C458 C456 1.383 . S
C458 C459 1.402 . S
C458 H473 0.951 . S
C459 C458 1.402 . S
C459 C460 1.375 1_455 S
C459 C462 1.481 . S
C460 C459 1.375 1_655 S
C460 C461 1.360 . S
C460 H474 0.951 . S
C461 C457 1.368 1_655 S
C461 C460 1.360 . S
C461 H475 0.973 . S
C462 C459 1.481 . S
C462 C463 1.297 . S
C462 H476 0.950 1_455 S
C463 C462 1.297 . S
C463 C464 1.479 . S
C463 H477 0.950 . S
C464 C463 1.479 . S
C464 C465 1.375 . S
C464 C470 1.404 . S
C465 C464 1.375 . S
C465 C466 1.369 . S
C465 H478 0.950 . S
C466 C465 1.369 . S
C466 C467 1.392 . S
C466 H479 0.951 . S
C467 C466 1.392 . S
C467 C469 1.384 . S
H468 C470 0.949 1_655 S
C469 C467 1.384 . S
C469 C470 1.385 . S
C469 H471 0.950 1_455 S
C470 C464 1.404 . S
C470 H468 0.949 1_455 S
C470 C469 1.385 . S
H471 C469 0.950 1_655 S
H472 C456 0.951 . S
H473 C458 0.951 . S
H474 C460 0.951 . S
H475 C461 0.973 . S
H476 C462 0.950 1_655 S
H477 C463 0.950 . S
H478 C465 0.950 . S
H479 C466 0.951 . S
C480 C481 1.386 . S
C480 C482 1.383 . S
C480 H496 0.951 . S
C481 C480 1.386 . S
C481 C485 1.383 . S
C482 C480 1.383 . S
C482 C483 1.402 . S
C482 H497 0.951 . S
C483 C482 1.402 . S
C483 C484 1.375 . S
C483 C486 1.481 . S
C484 C483 1.375 . S
C484 C485 1.367 . S
C484 H498 0.951 . S
C485 C481 1.383 . S
C485 C484 1.367 . S
C485 H499 0.950 . S
C486 C483 1.481 . S
C486 C487 1.297 . S
C486 H500 0.950 . S
C487 C486 1.297 . S
C487 C488 1.479 . S
C487 H501 0.950 . S
C488 C487 1.479 . S
C488 C489 1.375 . S
C488 C494 1.404 . S
C489 C488 1.375 . S
C489 C490 1.369 . S
C489 H502 0.950 . S
C490 C489 1.369 . S
C490 C491 1.392 . S
C490 H503 0.951 . S
C491 C490 1.392 . S
C491 C493 1.384 . S
H492 C494 0.949 . S
C493 C491 1.384 . S
C493 C494 1.385 . S
C493 H495 0.950 . S
C494 C488 1.404 . S
C494 H492 0.949 . S
C494 C493 1.385 . S
H495 C493 0.950 . S
H496 C480 0.951 . S
H497 C482 0.951 . S
H498 C484 0.951 . S
H499 C485 0.950 . S
H500 C486 0.950 . S
H501 C487 0.950 . S
H502 C489 0.950 . S
H503 C490 0.951 . S
C504 C505 1.386 . S
C504 C506 1.383 . S
C504 H520 0.951 . S
C505 C504 1.386 . S
C505 C509 1.383 . S
C506 C504 1.383 . S
C506 C507 1.402 . S
C506 H521 0.951 . S
C507 C506 1.402 . S
C507 C508 1.375 . S
C507 C510 1.481 . S
C508 C507 1.375 . S
C508 C509 1.367 . S
C508 H522 0.951 . S
C509 C505 1.383 . S
C509 C508 1.367 . S
C509 H523 0.950 . S
C510 C507 1.481 . S
C510 C511 1.297 . S
C510 H524 0.950 . S
C511 C510 1.297 . S
C511 C512 1.479 . S
C511 H525 0.950 . S
C512 C511 1.479 . S
C512 C513 1.375 . S
C512 C518 1.404 . S
C513 C512 1.375 . S
C513 C514 1.369 . S
C513 H526 0.950 . S
C514 C513 1.369 . S
C514 C515 1.392 . S
C514 H527 0.951 . S
C515 C514 1.392 . S
C515 C517 1.384 . S
H516 C518 0.949 . S
C517 C515 1.384 . S
C517 C518 1.385 . S
C517 H519 0.950 . S
C518 C512 1.404 . S
C518 H516 0.949 . S
C518 C517 1.385 . S
H519 C517 0.950 . S
H520 C504 0.951 . S
H521 C506 0.951 . S
H522 C508 0.951 . S
H523 C509 0.950 . S
H524 C510 0.950 . S
H525 C511 0.950 . S
H526 C513 0.950 . S
H527 C514 0.951 . S
C528 C529 1.386 . S
C528 C530 1.383 . S
C528 H544 0.951 . S
C529 C528 1.386 . S
C529 C533 1.383 . S
C530 C528 1.383 . S
C530 C531 1.402 . S
C530 H545 0.951 . S
C531 C530 1.402 . S
C531 C532 1.375 . S
C531 C534 1.481 . S
C532 C531 1.375 . S
C532 C533 1.367 . S
C532 H546 0.951 . S
C533 C529 1.383 . S
C533 C532 1.367 . S
C533 H547 0.950 . S
C534 C531 1.481 . S
C534 C535 1.297 . S
C534 H548 0.950 . S
C535 C534 1.297 . S
C535 C536 1.479 . S
C535 H549 0.950 . S
C536 C535 1.479 . S
C536 C537 1.375 . S
C536 C542 1.404 . S
C537 C536 1.375 . S
C537 C538 1.369 . S
C537 H550 0.950 . S
C538 C537 1.369 . S
C538 C539 1.392 . S
C538 H551 0.951 . S
C539 C538 1.392 . S
C539 C541 1.384 . S
H540 C542 0.949 . S
C541 C539 1.384 . S
C541 C542 1.385 . S
C541 H543 0.950 . S
C542 C536 1.404 . S
C542 H540 0.949 . S
C542 C541 1.385 . S
H543 C541 0.950 . S
H544 C528 0.951 . S
H545 C530 0.951 . S
H546 C532 0.951 . S
H547 C533 0.950 . S
H548 C534 0.950 . S
H549 C535 0.950 . S
H550 C537 0.950 . S
H551 C538 0.951 . S
C552 C553 1.386 . S
C552 C554 1.383 . S
C552 H568 0.951 . S
C553 C552 1.386 . S
C553 C557 1.383 . S
C554 C552 1.383 . S
C554 C555 1.402 . S
C554 H569 0.951 . S
C555 C554 1.402 . S
C555 C556 1.375 . S
C555 C558 1.481 . S
C556 C555 1.375 . S
C556 C557 1.367 . S
C556 H570 0.951 . S
C557 C553 1.383 . S
C557 C556 1.367 . S
C557 H571 0.950 . S
C558 C555 1.481 . S
C558 C559 1.297 . S
C558 H572 0.950 . S
C559 C558 1.297 . S
C559 C560 1.479 . S
C559 H573 0.950 . S
C560 C559 1.479 . S
C560 C561 1.375 1_554 S
C560 C566 1.404 . S
C561 C560 1.375 1_556 S
C561 C562 1.369 . S
C561 H574 0.950 . S
C562 C561 1.369 . S
C562 C563 1.392 . S
C562 H575 0.951 . S
C563 C562 1.392 . S
C563 C565 1.384 . S
H564 C566 0.949 . S
C565 C563 1.384 . S
C565 C566 1.385 1_556 S
C565 H567 0.956 . S
C566 C560 1.404 . S
C566 H564 0.949 . S
C566 C565 1.385 1_554 S
H567 C565 0.956 . S
H568 C552 0.951 . S
H569 C554 0.951 . S
H570 C556 0.951 . S
H571 C557 0.950 . S
H572 C558 0.950 . S
H573 C559 0.950 . S
H574 C561 0.950 . S
H575 C562 0.951 . S
C576 C577 1.386 . S
C576 C578 1.383 . S
C576 H592 0.951 1_455 S
C577 C576 1.386 . S
C577 C581 1.383 . S
C578 C576 1.383 . S
C578 C579 1.402 . S
C578 H593 0.951 1_455 S
C579 C578 1.402 . S
C579 C580 1.375 . S
C579 C582 1.481 . S
C580 C579 1.375 . S
C580 C581 1.367 . S
C580 H594 0.951 . S
C581 C577 1.383 . S
C581 C580 1.367 . S
C581 H595 0.950 1_565 S
C582 C579 1.481 . S
C582 C583 1.297 . S
C582 H596 0.950 . S
C583 C582 1.297 . S
C583 C584 1.479 . S
C583 H597 0.950 1_455 S
C584 C583 1.479 . S
C584 C585 1.375 1_455 S
C584 C590 1.404 . S
C585 C584 1.375 1_655 S
C585 C586 1.369 . S
C585 H598 0.950 . S
C586 C585 1.369 . S
C586 C587 1.392 1_655 S
C586 H599 0.951 . S
C587 C586 1.392 1_455 S
C587 C589 1.384 . S
H588 C590 0.949 . S
C589 C587 1.384 . S
C589 C590 1.385 . S
C589 H591 0.950 . S
C590 C584 1.404 . S
C590 H588 0.949 . S
C590 C589 1.385 . S
H591 C589 0.950 . S
H592 C576 0.951 1_655 S
H593 C578 0.951 1_655 S
H594 C580 0.951 . S
H595 C581 0.950 1_545 S
H596 C582 0.950 . S
H597 C583 0.950 1_655 S
H598 C585 0.950 . S
H599 C586 0.951 . S
C600 C601 1.386 . S
C600 C602 1.383 . S
C600 H616 0.951 1_545 S
C601 C600 1.386 . S
C601 C605 1.383 . S
C602 C600 1.383 . S
C602 C603 1.402 . S
C602 H617 0.951 1_545 S
C603 C602 1.402 . S
C603 C604 1.375 . S
C603 C606 1.481 . S
C604 C603 1.375 . S
C604 C605 1.367 . S
C604 H618 0.951 . S
C605 C601 1.383 . S
C605 C604 1.367 . S
C605 H619 0.950 . S
C606 C603 1.481 . S
C606 C607 1.297 . S
C606 H620 0.950 . S
C607 C606 1.297 . S
C607 C608 1.479 . S
C607 H621 0.950 . S
C608 C607 1.479 . S
C608 C609 1.375 . S
C608 C614 1.404 . S
C609 C608 1.375 . S
C609 C610 1.369 . S
C609 H622 0.950 1_545 S
C610 C609 1.369 . S
C610 C611 1.392 . S
C610 H623 0.951 1_545 S
C611 C610 1.392 . S
C611 C613 1.384 . S
H612 C614 0.949 . S
C613 C611 1.384 . S
C613 C614 1.385 . S
C613 H615 0.950 . S
C614 C608 1.404 . S
C614 H612 0.949 . S
C614 C613 1.385 . S
H615 C613 0.950 . S
H616 C600 0.951 1_565 S
H617 C602 0.951 1_565 S
H618 C604 0.951 . S
H619 C605 0.950 . S
H620 C606 0.950 . S
H621 C607 0.950 . S
H622 C609 0.950 1_565 S
H623 C610 0.951 1_565 S
C624 C625 1.386 . S
C624 C626 1.383 . S
C624 H640 0.951 . S
C625 C624 1.386 . S
C625 C629 1.383 . S
C626 C624 1.383 . S
C626 C627 1.402 . S
C626 H641 0.951 . S
C627 C626 1.402 . S
C627 C628 1.375 . S
C627 C630 1.481 . S
C628 C627 1.375 . S
C628 C629 1.367 . S
C628 H642 0.951 . S
C629 C625 1.383 . S
C629 C628 1.367 . S
C629 H643 0.950 . S
C630 C627 1.481 . S
C630 C631 1.297 . S
C630 H644 0.904 1_554 S
C631 C630 1.297 . S
C631 C632 1.479 1_554 S
C631 H645 0.950 . S
C632 C631 1.479 1_556 S
C632 C633 1.375 1_556 S
C632 C638 1.404 . S
C633 C632 1.375 1_554 S
C633 C634 1.369 1_554 S
C633 H646 0.950 . S
C634 C633 1.369 1_556 S
C634 C635 1.392 . S
C634 H647 0.951 . S
C635 C634 1.392 . S
C635 C637 1.384 . S
H636 C638 0.949 . S
C637 C635 1.384 . S
C637 C638 1.385 . S
C637 H639 0.950 . S
C638 C632 1.404 . S
C638 H636 0.949 . S
C638 C637 1.385 . S
H639 C637 0.950 . S
H640 C624 0.951 . S
H641 C626 0.951 . S
H642 C628 0.951 . S
H643 C629 0.950 . S
H644 C630 0.904 1_556 S
H645 C631 0.950 . S
H646 C633 0.950 . S
H647 C634 0.951 . S
C648 C649 1.386 . S
C648 C650 1.383 . S
C648 H664 0.951 . S
C649 C648 1.386 . S
C649 C653 1.383 . S
C650 C648 1.383 . S
C650 C651 1.402 . S
C650 H665 0.951 . S
C651 C650 1.402 . S
C651 C652 1.375 . S
C651 C654 1.481 . S
C652 C651 1.375 . S
C652 C653 1.367 . S
C652 H666 0.951 . S
C653 C649 1.383 . S
C653 C652 1.367 . S
C653 H667 0.950 . S
C654 C651 1.481 . S
C654 C655 1.297 . S
C654 H668 0.950 . S
C655 C654 1.297 . S
C655 C656 1.479 . S
C655 H669 0.950 . S
C656 C655 1.479 . S
C656 C657 1.375 . S
C656 C662 1.404 . S
C657 C656 1.375 . S
C657 C658 1.369 . S
C657 H670 0.950 . S
C658 C657 1.369 . S
C658 C659 1.392 . S
C658 H671 0.951 . S
C659 C658 1.392 . S
C659 C661 1.384 . S
H660 C662 0.949 . S
C661 C659 1.384 . S
C661 C662 1.385 . S
C661 H663 0.950 . S
C662 C656 1.404 . S
C662 H660 0.949 . S
C662 C661 1.385 . S
H663 C661 0.950 . S
H664 C648 0.951 . S
H665 C650 0.951 . S
H666 C652 0.951 . S
H667 C653 0.950 . S
H668 C654 0.950 . S
H669 C655 0.950 . S
H670 C657 0.950 . S
H671 C658 0.951 . S
C395 C97 1.022 . S
C385 C3 1.572 . S
C409 C21 1.609 . S
C419 C211 1.122 . S
C433 C37 1.303 . S
C443 C271 1.142 . S
C457 C8 1.408 . S
C467 C71 1.131 . S
C491 C185 1.258 . S
C481 C23 1.430 . S
C505 C35 1.480 . S
C515 C281 1.000 . S
C539 C167 0.937 . S
C529 C31 1.498 . S
C553 C7 1.419 1_565 S
C563 C299 1.109 . S
C587 C43 1.148 . S
C577 C17 1.321 1_565 S
C611 C157 1.138 . S
C601 C36 1.300 . S
C635 C325 1.300 . S
C625 C9 1.574 . S
C649 C22 1.492 . S
C659 C53 0.977 . S
