# Generated by pormake.
# Topology pto, (3,4)-cn, num edge types: 1
# Building blocks:
#     Node 0, Type 0, BuildingBlock: INOVEN_clean_linker_0, # of connection points: 3
#     Node 1, Type 0, BuildingBlock: INOVEN_clean_linker_0, # of connection points: 3
#     Node 2, Type 0, BuildingBlock: INOVEN_clean_linker_0, # of connection points: 3
#     Node 3, Type 0, BuildingBlock: INOVEN_clean_linker_0, # of connection points: 3
#     Node 4, Type 0, BuildingBlock: INOVEN_clean_linker_0, # of connection points: 3
#     Node 5, Type 0, BuildingBlock: INOVEN_clean_linker_0, # of connection points: 3
#     Node 6, Type 0, BuildingBlock: INOVEN_clean_linker_0, # of connection points: 3
#     Node 7, Type 0, BuildingBlock: INOVEN_clean_linker_0, # of connection points: 3
#     Node 8, Type 1, BuildingBlock: KOZSID_clean_sbu_0, # of connection points: 4
#     Node 9, Type 1, BuildingBlock: KOZSID_clean_sbu_0, # of connection points: 4
#     Node 10, Type 1, BuildingBlock: KOZSID_clean_sbu_0, # of connection points: 4
#     Node 11, Type 1, BuildingBlock: KOZSID_clean_sbu_0, # of connection points: 4
#     Node 12, Type 1, BuildingBlock: KOZSID_clean_sbu_0, # of connection points: 4
#     Node 13, Type 1, BuildingBlock: KOZSID_clean_sbu_0, # of connection points: 4
#     Edge 14, Type (0, 1), None
#     Edge 15, Type (0, 1), None
#     Edge 16, Type (0, 1), None
#     Edge 17, Type (0, 1), None
#     Edge 18, Type (0, 1), None
#     Edge 19, Type (0, 1), None
#     Edge 20, Type (0, 1), None
#     Edge 21, Type (0, 1), None
#     Edge 22, Type (0, 1), None
#     Edge 23, Type (0, 1), None
#     Edge 24, Type (0, 1), None
#     Edge 25, Type (0, 1), None
#     Edge 26, Type (0, 1), None
#     Edge 27, Type (0, 1), None
#     Edge 28, Type (0, 1), None
#     Edge 29, Type (0, 1), None
#     Edge 30, Type (0, 1), None
#     Edge 31, Type (0, 1), None
#     Edge 32, Type (0, 1), None
#     Edge 33, Type (0, 1), None
#     Edge 34, Type (0, 1), None
#     Edge 35, Type (0, 1), None
#     Edge 36, Type (0, 1), None
#     Edge 37, Type (0, 1), None
# Relax obj value: 0.013
# Max RMSD: 0.130
# Mean RMSD: 0.064
data_MOF--net-pto--node1-KOZSID_clean_sbu_0--node2-INOVEN_clean_linker_0--edge1-none
_symmetry_space_group_name_H-M    P1
_symmetry_Int_Tables_number       1
_symmetry_cell_setting            triclinic
loop_
_symmetry_equiv_pos_as_xyz
'x, y, z'
_cell_length_a     18.837937
_cell_length_b     23.800934
_cell_length_c     21.643951
_cell_angle_alpha  101.06651
_cell_angle_beta   90.36572
_cell_angle_gamma 107.73933
loop_
_atom_site_label
_atom_site_type_symbol
_atom_site_fract_x
_atom_site_fract_y
_atom_site_fract_z
_atom_type_partial_charge
H0 H 0.24728 0.25242 0.49103 0.0
H1 H 0.38081 0.17094 0.36484 0.0
H2 H 0.28091 0.29294 0.30574 0.0
N3 N 0.22612 0.32523 0.4166 0.0
N4 N 0.21852 0.35416 0.37594 0.0
C5 C 0.27072 0.24589 0.4456 0.0
C6 C 0.31101 0.20416 0.4316 0.0
C7 C 0.26017 0.27878 0.40076 0.0
C8 C 0.28868 0.26836 0.34118 0.0
C9 C 0.33592 0.2329 0.32925 0.0
C10 C 0.34553 0.19963 0.37411 0.0
H11 H 0.17875 0.78404 0.7484 0.0
H12 H 0.32161 0.73977 0.87409 0.0
H13 H 0.40098 0.90516 0.80895 0.0
N14 N 0.27957 0.88536 0.73033 0.0
N15 N 0.33503 0.9288 0.71749 0.0
C16 C 0.23174 0.79487 0.77503 0.0
C17 C 0.242 0.75667 0.8143 0.0
C18 C 0.2903 0.84733 0.77039 0.0
C19 C 0.35733 0.86303 0.80829 0.0
C20 C 0.36659 0.82506 0.8474 0.0
C21 C 0.31158 0.77031 0.84621 0.0
H22 H 0.85621 0.70351 0.30999 0.0
H23 H 0.94307 0.79725 0.50011 0.0
H24 H 0.83899 0.87905 0.38096 0.0
N25 N 0.80692 0.79476 0.28446 0.0
N26 N 0.77321 0.75129 0.24188 0.0
C27 C 0.86462 0.7418 0.34867 0.0
C28 C 0.90299 0.74446 0.40589 0.0
C29 C 0.84237 0.79117 0.34046 0.0
C30 C 0.85636 0.84136 0.38891 0.0
C31 C 0.88907 0.84334 0.44761 0.0
C32 C 0.91478 0.79538 0.45564 0.0
H33 H 0.76991 0.41796 0.93288 0.0
H34 H 0.91503 0.34776 0.80988 0.0
H35 H 0.74756 0.22948 0.89999 0.0
N36 N 0.70514 0.31782 0.97234 0.0
N37 N 0.67626 0.26725 0.99075 0.0
C38 C 0.78725 0.38033 0.90924 0.0
C39 C 0.8474 0.39026 0.87045 0.0
C40 C 0.75333 0.32308 0.92214 0.0
C41 C 0.77425 0.27386 0.89044 0.0
C42 C 0.83057 0.28183 0.8475 0.0
C43 C 0.86907 0.34062 0.84026 0.0
H44 H 0.74314 0.84857 0.84608 0.0
H45 H 0.81211 0.71926 0.92255 0.0
H46 H 0.90837 0.77744 0.7554 0.0
N47 N 0.83093 0.85708 0.75459 0.0
N48 N 0.88103 0.90991 0.76643 0.0
C49 C 0.77749 0.81917 0.84415 0.0
C50 C 0.77481 0.78583 0.89098 0.0
C51 C 0.82601 0.81714 0.79616 0.0
C52 C 0.87014 0.77844 0.79246 0.0
C53 C 0.86553 0.74234 0.83816 0.0
C54 C 0.81735 0.74668 0.88719 0.0
H55 H 0.72809 0.21188 0.42561 0.0
H56 H 0.80465 0.37814 0.36362 0.0
H57 H 0.9451 0.33652 0.49553 0.0
N58 N 0.8358 0.22995 0.5076 0.0
N59 N 0.89369 0.21583 0.52353 0.0
C60 C 0.77077 0.25484 0.42753 0.0
C61 C 0.76271 0.29169 0.38726 0.0
C62 C 0.8351 0.27083 0.46777 0.0
C63 C 0.89381 0.32481 0.46627 0.0
C64 C 0.88407 0.36385 0.42677 0.0
C65 C 0.81565 0.34798 0.39141 0.0
H66 H 0.26032 0.30071 0.79068 0.0
H67 H 0.38055 0.20726 0.88012 0.0
H68 H 0.30299 0.34502 0.9917 0.0
N69 N 0.24125 0.37151 0.89582 0.0
N70 N 0.2526 0.40738 0.85917 0.0
C71 C 0.28482 0.29368 0.83289 0.0
C72 C 0.31975 0.24905 0.82855 0.0
C73 C 0.27977 0.3286 0.89159 0.0
C74 C 0.3091 0.31861 0.94651 0.0
C75 C 0.34694 0.27556 0.94317 0.0
C76 C 0.35188 0.24079 0.88369 0.0
H77 H 0.35852 0.68087 0.30738 0.0
H78 H 0.24817 0.77801 0.44114 0.0
H79 H 0.41724 0.87328 0.33322 0.0
N80 N 0.43198 0.77329 0.25874 0.0
N81 N 0.46876 0.82109 0.23816 0.0
C82 C 0.35322 0.72317 0.33282 0.0
C83 C 0.29883 0.72274 0.37698 0.0
C84 C 0.39368 0.77683 0.315 0.0
C85 C 0.38625 0.83178 0.34716 0.0
C86 C 0.33568 0.83312 0.39456 0.0
C87 C 0.29055 0.77805 0.40761 0.0
C88 C 0.22139 0.65352 0.44693 0.0
C89 C 0.25996 0.69031 0.50238 0.0
C90 C 0.21294 0.68017 0.54992 0.0
C91 C 0.14932 0.63639 0.52169 0.0
N92 N 0.15405 0.61757 0.45953 0.0
Co93 Co 0.07303 0.55595 0.40225 0.0
N94 N 0.0201 0.52536 0.47347 0.0
C95 C 0.02429 0.55816 0.53194 0.0
C96 C 0.97511 0.52799 0.57003 0.0
C97 C 0.93934 0.47217 0.53343 0.0
C98 C 0.96863 0.47151 0.47471 0.0
N99 N 0.99312 0.49217 0.34612 0.0
C100 C 0.95543 0.43664 0.35646 0.0
C101 C 0.92327 0.39822 0.29975 0.0
C102 C 0.93607 0.432 0.25409 0.0
C103 C 0.97858 0.48857 0.28427 0.0
N104 N 0.12359 0.58782 0.33003 0.0
C105 C 0.09048 0.57728 0.27167 0.0
C106 C 0.13353 0.60978 0.23222 0.0
C107 C 0.19729 0.64415 0.26807 0.0
C108 C 0.19024 0.63026 0.32801 0.0
N109 N 0.12934 0.49845 0.3974 0.0
C110 C 0.18848 0.40278 0.3859 0.0
C111 C 0.17078 0.42215 0.33282 0.0
C112 C 0.141 0.4695 0.33932 0.0
C113 C 0.17922 0.4337 0.44577 0.0
C114 C 0.15029 0.48221 0.45045 0.0
N115 N 0.01653 0.61383 0.4067 0.0
C116 C 0.90081 0.63778 0.40676 0.0
C117 C 0.94037 0.69877 0.40987 0.0
C118 C 0.01797 0.71627 0.41177 0.0
C119 C 0.05459 0.67339 0.40917 0.0
C120 C 0.94017 0.59602 0.40629 0.0
H121 H 0.11405 0.68921 0.40818 0.0
H122 H 0.90901 0.54939 0.40487 0.0
H123 H 0.12494 0.481 0.29686 0.0
H124 H 0.14307 0.50554 0.49676 0.0
C125 C 0.08542 0.61016 0.55192 0.0
C126 C 0.24249 0.66435 0.38342 0.0
C127 C 0.94338 0.42109 0.41993 0.0
C128 C 0.02296 0.53154 0.2534 0.0
H129 H 0.31406 0.72445 0.50725 0.0
H130 H 0.22338 0.70328 0.59875 0.0
H131 H 0.96785 0.54386 0.61909 0.0
H132 H 0.89628 0.43642 0.5481 0.0
H133 H 0.89471 0.35043 0.29168 0.0
H134 H 0.9223 0.41567 0.20388 0.0
H135 H 0.12027 0.60861 0.18314 0.0
H136 H 0.2418 0.67725 0.25145 0.0
H137 H 0.17854 0.39961 0.28607 0.0
H138 H 0.19419 0.42082 0.48814 0.0
H139 H 0.84033 0.62264 0.40471 0.0
H140 H 0.05035 0.76279 0.41297 0.0
C141 C 0.16811 0.69078 0.88788 0.0
C142 C 0.20157 0.73166 0.94293 0.0
C143 C 0.18503 0.70164 0.99155 0.0
C144 C 0.14035 0.64482 0.96425 0.0
N145 N 0.12782 0.63739 0.90146 0.0
Co146 Co 0.05375 0.56824 0.84562 0.0
N147 N 1.00059 0.53949 0.91855 0.0
C148 C 0.029 0.55651 0.97904 0.0
C149 C 0.98426 0.52624 0.01927 0.0
C150 C 0.92455 0.48642 0.98188 0.0
C151 C 0.93576 0.49473 0.9202 0.0
N152 N 0.97964 0.49989 0.7888 0.0
C153 C 0.91308 0.4627 0.80065 0.0
C154 C 0.87737 0.42331 0.74543 0.0
C155 C 0.92591 0.43308 0.69895 0.0
C156 C 0.98733 0.47902 0.72762 0.0
N157 N 0.10756 0.59612 0.77338 0.0
C158 C 0.10771 0.56095 0.71687 0.0
C159 C 0.15834 0.58952 0.67884 0.0
C160 C 0.19089 0.64673 0.71323 0.0
C161 C 0.15814 0.64976 0.77054 0.0
N162 N 0.11761 0.51778 0.85063 0.0
C163 C 0.20775 0.44531 0.85845 0.0
C164 C 0.13107 0.42373 0.86477 0.0
C165 C 0.08702 0.46025 0.85977 0.0
C166 C 0.23882 0.50348 0.84764 0.0
C167 C 0.19296 0.5396 0.84517 0.0
N168 N 0.99082 0.61938 0.8411 0.0
C169 C 0.92311 0.66505 0.78168 0.0
C170 C 0.91164 0.70133 0.83755 0.0
C171 C 0.9414 0.69581 0.89474 0.0
C172 C 0.97939 0.65429 0.89555 0.0
C173 C 0.96296 0.62429 0.7845 0.0
H174 H 0.00084 0.65149 0.94058 0.0
H175 H 0.97171 0.59709 0.74104 0.0
H176 H 0.02815 0.44137 0.86298 0.0
H177 H 0.21837 0.58498 0.83844 0.0
C178 C 0.09469 0.60439 0.9972 0.0
C179 C 0.18154 0.70188 0.82326 0.0
C180 C 0.89125 0.45282 0.86401 0.0
C181 C 0.05075 0.50628 0.69789 0.0
H182 H 0.23415 0.77851 0.94787 0.0
H183 H 0.1991 0.7205 0.04136 0.0
H184 H 0.99408 0.53206 0.06979 0.0
H185 H 0.88018 0.45354 0.99889 0.0
H186 H 0.82445 0.38773 0.74051 0.0
H187 H 0.91775 0.40891 0.65041 0.0
H188 H 0.16917 0.57139 0.63136 0.0
H189 H 0.23512 0.68166 0.69862 0.0
H190 H 0.10502 0.37824 0.87161 0.0
H191 H 0.2981 0.52104 0.84205 0.0
H192 H 0.90056 0.66735 0.73642 0.0
H193 H 0.93564 0.72359 0.93913 0.0
C194 C 0.39719 0.00905 0.66538 0.0
C195 C 0.46734 0.00979 0.68648 0.0
C196 C 0.51848 0.04988 0.65888 0.0
C197 C 0.47702 0.07092 0.62216 0.0
N198 N 0.4024 0.04758 0.62554 0.0
Co199 Co 0.32233 0.06605 0.57938 0.0
N200 N 0.39741 0.12616 0.53944 0.0
C201 C 0.4726 0.14292 0.54948 0.0
C202 C 0.51006 0.18812 0.51979 0.0
C203 C 0.45566 0.20163 0.48935 0.0
C204 C 0.38763 0.16311 0.50141 0.0
N205 N 0.24214 0.08313 0.5313 0.0
C206 C 0.24651 0.12113 0.49093 0.0
C207 C 0.17617 0.11542 0.46521 0.0
C208 C 0.12573 0.07396 0.49155 0.0
C209 C 0.16782 0.05611 0.53089 0.0
N210 N 0.24687 0.00781 0.62116 0.0
C211 C 0.17206 0.99608 0.61558 0.0
C212 C 0.13377 0.95929 0.65356 0.0
C213 C 0.18716 0.94607 0.68531 0.0
C214 C 0.25573 0.97446 0.66345 0.0
N215 N 0.32296 0.13186 0.65174 0.0
C216 C 0.32133 0.21053 0.76645 0.0
C217 C 0.25598 0.18114 0.72748 0.0
C218 C 0.25798 0.14216 0.6707 0.0
C219 C 0.38809 0.20294 0.74536 0.0
C220 C 0.38784 0.16466 0.68773 0.0
N221 N 0.32251 0.99907 0.50861 0.0
C222 C 0.26125 0.89798 0.44957 0.0
C223 C 0.32964 0.89184 0.4298 0.0
C224 C 0.39323 0.94231 0.44607 0.0
C225 C 0.38826 0.99515 0.4844 0.0
C226 C 0.25894 0.95165 0.48837 0.0
H227 H 0.43904 0.0314 0.49587 0.0
H228 H 0.20546 0.95302 0.50313 0.0
H229 H 0.20623 0.11991 0.64354 0.0
H230 H 0.44084 0.16167 0.67405 0.0
C231 C 0.50634 0.11531 0.58712 0.0
C232 C 0.32808 0.96909 0.68319 0.0
C233 C 0.31535 0.16391 0.47621 0.0
C234 C 0.1392 0.01806 0.57201 0.0
H235 H 0.4801 0.98391 0.71858 0.0
H236 H 0.57866 0.06285 0.66555 0.0
H237 H 0.56985 0.20926 0.52078 0.0
H238 H 0.46527 0.23643 0.46192 0.0
H239 H 0.1622 0.13907 0.43136 0.0
H240 H 0.06544 0.05961 0.48409 0.0
H241 H 0.07402 0.94396 0.65781 0.0
H242 H 0.17499 0.91921 0.72105 0.0
H243 H 0.20321 0.18684 0.74176 0.0
H244 H 0.4404 0.22654 0.77318 0.0
H245 H 0.20967 0.8613 0.43616 0.0
H246 H 0.44759 0.94055 0.43168 0.0
C247 C 0.53919 0.87478 0.16299 0.0
C248 C 0.54503 0.93186 0.19702 0.0
C249 C 0.58971 0.9721 0.16472 0.0
C250 C 0.60851 0.93733 0.11304 0.0
N251 N 0.57838 0.87794 0.11097 0.0
Co252 Co 0.58879 0.81182 0.04413 0.0
N253 N 0.67942 0.86583 0.01609 0.0
C254 C 0.70178 0.92658 0.03006 0.0
C255 C 0.7688 0.95174 0.0064 0.0
C256 C 0.78904 0.90392 0.97478 0.0
C257 C 0.73227 0.8519 0.97992 0.0
N258 N 0.59777 0.74534 0.97718 0.0
C259 C 0.65577 0.74164 0.94191 0.0
C260 C 0.63601 0.68804 0.89712 0.0
C261 C 0.56299 0.65791 0.90442 0.0
C262 C 0.54208 0.6945 0.95291 0.0
N263 N 0.49762 0.75829 0.07252 0.0
C264 C 0.45111 0.70748 0.03713 0.0
C265 C 0.38923 0.68238 0.06739 0.0
C266 C 0.39764 0.71974 0.12556 0.0
C267 C 0.46536 0.7653 0.12804 0.0
N268 N 0.52814 0.83311 0.98486 0.0
C269 C 0.42912 0.84264 0.89503 0.0
C270 C 0.49811 0.83699 0.87789 0.0
C271 C 0.54739 0.8329 0.92388 0.0
C272 C 0.41361 0.84968 0.95868 0.0
C273 C 0.46381 0.84454 0.00294 0.0
N274 N 0.65024 0.79056 0.10256 0.0
C275 C 0.68037 0.71735 0.15192 0.0
C276 C 0.73679 0.76325 0.19045 0.0
C277 C 0.75109 0.82264 0.18195 0.0
C278 C 0.70699 0.83525 0.13841 0.0
C279 C 0.63751 0.73197 0.10799 0.0
H280 H 0.71796 0.88153 0.13472 0.0
H281 H 0.59309 0.69622 0.07942 0.0
H282 H 0.59888 0.82568 0.90905 0.0
H283 H 0.44838 0.84601 0.05096 0.0
C284 C 0.66485 0.95775 0.07332 0.0
C285 C 0.49361 0.81872 0.17964 0.0
C286 C 0.72541 0.7913 0.94326 0.0
C287 C 0.4737 0.68018 0.98086 0.0
H288 H 0.51972 0.94303 0.24053 0.0
H289 H 0.60893 0.02074 0.17887 0.0
H290 H 0.80038 0.99905 0.01295 0.0
H291 H 0.83908 0.90719 0.94955 0.0
H292 H 0.66969 0.67306 0.86126 0.0
H293 H 0.5294 0.61443 0.87775 0.0
H294 H 0.34417 0.64117 0.04993 0.0
H295 H 0.35688 0.7144 0.16064 0.0
H296 H 0.51127 0.8309 0.82887 0.0
H297 H 0.36027 0.854 0.97321 0.0
H298 H 0.66772 0.67113 0.15745 0.0
H299 H 0.7946 0.85976 0.21029 0.0
C300 C 0.94299 0.00777 0.74448 0.0
C301 C 0.00956 0.01272 0.77624 0.0
C302 C 0.0631 0.0594 0.75927 0.0
C303 C 0.02618 0.08023 0.71847 0.0
N304 N 0.95222 0.05057 0.70942 0.0
Co305 Co 0.87835 0.06548 0.65282 0.0
N306 N 0.95917 0.12506 0.61744 0.0
C307 C 0.03349 0.13902 0.63047 0.0
C308 C 0.07604 0.18056 0.59868 0.0
C309 C 0.02581 0.19456 0.56363 0.0
C310 C 0.95525 0.16082 0.57641 0.0
N311 N 0.8041 0.0835 0.59874 0.0
C312 C 0.81403 0.12432 0.56053 0.0
C313 C 0.74582 0.11888 0.53029 0.0
C314 C 0.69173 0.07749 0.55372 0.0
C315 C 0.72893 0.05835 0.59549 0.0
N316 N 0.79826 1.00263 0.68496 0.0
C317 C 0.72399 0.98617 0.67002 0.0
C318 C 0.68286 0.93984 0.69639 0.0
C319 C 0.73415 0.92392 0.72799 0.0
C320 C 0.8044 0.96098 0.71806 0.0
N321 N 0.86762 0.13084 0.72138 0.0
C322 C 0.8457 0.22864 0.80767 0.0
C323 C 0.78654 0.17649 0.78456 0.0
C324 C 0.79867 0.12874 0.74259 0.0
C325 C 0.91719 0.22991 0.78881 0.0
C326 C 0.92686 0.18077 0.74606 0.0
N327 N 0.88736 0.9993 0.58502 0.0
C328 C 0.82471 0.91106 0.50624 0.0
C329 C 0.88961 0.89453 0.49931 0.0
C330 C 0.95393 0.93117 0.53658 0.0
C331 C 0.95156 0.9834 0.57902 0.0
C332 C 0.82519 0.9633 0.54772 0.0
H333 H 0.00161 0.01017 0.60696 0.0
H334 H 0.77374 0.97277 0.54924 0.0
H335 H 0.75037 0.09143 0.72684 0.0
H336 H 0.98241 0.1846 0.73275 0.0
C337 C 0.06081 0.11868 0.67895 0.0
C338 C 0.87587 0.95652 0.74138 0.0
C339 C 0.88694 0.16878 0.5528 0.0
C340 C 0.69521 0.01361 0.62892 0.0
H341 H 0.01919 0.98303 0.80521 0.0
H342 H 0.12265 0.07322 0.7712 0.0
H343 H 0.13624 0.20027 0.60267 0.0
H344 H 0.03931 0.22761 0.5339 0.0
H345 H 0.73426 0.14057 0.49382 0.0
H346 H 0.63233 0.06216 0.54069 0.0
H347 H 0.62281 0.91924 0.6921 0.0
H348 H 0.72002 0.88883 0.75496 0.0
H349 H 0.72987 0.173 0.79669 0.0
H350 H 0.96545 0.2687 0.80633 0.0
H351 H 0.77327 0.88403 0.47861 0.0
H352 H 0.00564 0.92027 0.53202 0.0
C353 C 0.43741 0.29802 0.27262 0.0
C354 C 0.44323 0.35013 0.31761 0.0
C355 C 0.50713 0.39289 0.30876 0.0
C356 C 0.53753 0.36512 0.25969 0.0
N357 N 0.49598 0.30767 0.23546 0.0
Co358 Co 0.52902 0.25022 0.17151 0.0
N359 N 0.60983 0.31706 0.14726 0.0
C360 C 0.64021 0.37234 0.18319 0.0
C361 C 0.7001 0.4074 0.15813 0.0
C362 C 0.70803 0.37205 0.10253 0.0
C363 C 0.65096 0.31736 0.09605 0.0
N364 N 0.56386 0.19357 0.1084 0.0
C365 C 0.60793 0.20458 0.06006 0.0
C366 C 0.61885 0.15216 0.02712 0.0
C367 C 0.57986 0.10664 0.05588 0.0
C368 C 0.54751 0.13384 0.10457 0.0
N369 N 0.44856 0.18303 0.19549 0.0
C370 C 0.44169 0.12392 0.17892 0.0
C371 C 0.38026 0.08757 0.20125 0.0
C372 C 0.34716 0.12611 0.2354 0.0
C373 C 0.39125 0.18414 0.23294 0.0
N374 N 0.46125 0.25643 0.10623 0.0
C375 C 0.38307 0.26836 0.00136 0.0
C376 C 0.38181 0.21137 0.01067 0.0
C377 C 0.42092 0.20639 0.06345 0.0
C378 C 0.42149 0.31894 0.04744 0.0
C379 C 0.45986 0.31199 0.09942 0.0
N380 N 0.59755 0.24497 0.23663 0.0
C381 C 0.62875 0.25429 0.34693 0.0
C382 C 0.70422 0.26929 0.3354 0.0
C383 C 0.72474 0.26523 0.27315 0.0
C384 C 0.67047 0.25247 0.22434 0.0
C385 C 0.57604 0.24181 0.29657 0.0
H386 H 0.6883 0.25242 0.17715 0.0
H387 H 0.51867 0.23307 0.30719 0.0
H388 H 0.42053 0.16215 0.06842 0.0
H389 H 0.49103 0.35194 0.13278 0.0
C390 C 0.60504 0.39184 0.23545 0.0
C391 C 0.38335 0.23843 0.27414 0.0
C392 C 0.64235 0.26405 0.04538 0.0
C393 C 0.49086 0.10395 0.1389 0.0
H394 H 0.40857 0.35664 0.35611 0.0
H395 H 0.53009 0.43817 0.33641 0.0
H396 H 0.73359 0.45339 0.17753 0.0
H397 H 0.75299 0.38526 0.07237 0.0
H398 H 0.65117 0.14743 0.98637 0.0
H399 H 0.57292 0.05906 0.04108 0.0
H400 H 0.3617 0.03888 0.19365 0.0
H401 H 0.29796 0.11303 0.26141 0.0
H402 H 0.3516 0.17088 0.97707 0.0
H403 H 0.42454 0.36396 0.04227 0.0
H404 H 0.61102 0.2553 0.39456 0.0
H405 H 0.78261 0.27378 0.26244 0.0
loop_
_geom_bond_atom_site_label_1
_geom_bond_atom_site_label_2
_geom_bond_distance
_geom_bond_site_symmetry_2
_ccdc_geom_bond_type
H0 C5 0.929 . S
H1 C10 0.931 . S
H2 C8 0.930 . S
N3 N4 1.234 . S
N3 C7 1.453 . S
N4 N3 1.234 . S
C5 H0 0.929 . S
C5 C6 1.373 . S
C5 C7 1.368 . S
C6 C5 1.373 . S
C6 C10 1.397 . S
C7 N3 1.453 . S
C7 C5 1.368 . S
C7 C8 1.373 . S
C8 H2 0.930 . S
C8 C7 1.373 . S
C8 C9 1.371 . S
C9 C8 1.371 . S
C9 C10 1.383 . S
C10 H1 0.931 . S
C10 C6 1.397 . S
C10 C9 1.383 . S
H11 C16 0.929 . S
H12 C21 0.931 . S
H13 C19 0.930 . S
N14 N15 1.234 . S
N14 C18 1.453 . S
N15 N14 1.234 . S
C16 H11 0.929 . S
C16 C17 1.373 . S
C16 C18 1.368 . S
C17 C16 1.373 . S
C17 C21 1.397 . S
C18 N14 1.453 . S
C18 C16 1.368 . S
C18 C19 1.373 . S
C19 H13 0.930 . S
C19 C18 1.373 . S
C19 C20 1.371 . S
C20 C19 1.371 . S
C20 C21 1.383 . S
C21 H12 0.931 . S
C21 C17 1.397 . S
C21 C20 1.383 . S
H22 C27 0.929 . S
H23 C32 0.931 . S
H24 C30 0.930 . S
N25 N26 1.234 . S
N25 C29 1.453 . S
N26 N25 1.234 . S
C27 H22 0.929 . S
C27 C28 1.373 . S
C27 C29 1.368 . S
C28 C27 1.373 . S
C28 C32 1.397 . S
C29 N25 1.453 . S
C29 C27 1.368 . S
C29 C30 1.373 . S
C30 H24 0.930 . S
C30 C29 1.373 . S
C30 C31 1.371 . S
C31 C30 1.371 . S
C31 C32 1.383 . S
C32 H23 0.931 . S
C32 C28 1.397 . S
C32 C31 1.383 . S
H33 C38 0.929 . S
H34 C43 0.931 . S
H35 C41 0.930 . S
N36 N37 1.234 . S
N36 C40 1.453 . S
N37 N36 1.234 . S
C38 H33 0.929 . S
C38 C39 1.373 . S
C38 C40 1.368 . S
C39 C38 1.373 . S
C39 C43 1.397 . S
C40 N36 1.453 . S
C40 C38 1.368 . S
C40 C41 1.373 . S
C41 H35 0.930 . S
C41 C40 1.373 . S
C41 C42 1.371 . S
C42 C41 1.371 . S
C42 C43 1.383 . S
C43 H34 0.931 . S
C43 C39 1.397 . S
C43 C42 1.383 . S
H44 C49 0.929 . S
H45 C54 0.931 . S
H46 C52 0.930 . S
N47 N48 1.234 . S
N47 C51 1.453 . S
N48 N47 1.234 . S
C49 H44 0.929 . S
C49 C50 1.373 . S
C49 C51 1.368 . S
C50 C49 1.373 . S
C50 C54 1.397 . S
C51 N47 1.453 . S
C51 C49 1.368 . S
C51 C52 1.373 . S
C52 H46 0.930 . S
C52 C51 1.373 . S
C52 C53 1.371 . S
C53 C52 1.371 . S
C53 C54 1.383 . S
C54 H45 0.931 . S
C54 C50 1.397 . S
C54 C53 1.383 . S
H55 C60 0.929 . S
H56 C65 0.931 . S
H57 C63 0.930 . S
N58 N59 1.234 . S
N58 C62 1.453 . S
N59 N58 1.234 . S
C60 H55 0.929 . S
C60 C61 1.373 . S
C60 C62 1.368 . S
C61 C60 1.373 . S
C61 C65 1.397 . S
C62 N58 1.453 . S
C62 C60 1.368 . S
C62 C63 1.373 . S
C63 H57 0.930 . S
C63 C62 1.373 . S
C63 C64 1.371 . S
C64 C63 1.371 . S
C64 C65 1.383 . S
C65 H56 0.931 . S
C65 C61 1.397 . S
C65 C64 1.383 . S
H66 C71 0.929 . S
H67 C76 0.931 . S
H68 C74 0.930 . S
N69 N70 1.234 . S
N69 C73 1.453 . S
N70 N69 1.234 . S
C71 H66 0.929 . S
C71 C72 1.373 . S
C71 C73 1.368 . S
C72 C71 1.373 . S
C72 C76 1.397 . S
C73 N69 1.453 . S
C73 C71 1.368 . S
C73 C74 1.373 . S
C74 H68 0.930 . S
C74 C73 1.373 . S
C74 C75 1.371 . S
C75 C74 1.371 . S
C75 C76 1.383 . S
C76 H67 0.931 . S
C76 C72 1.397 . S
C76 C75 1.383 . S
H77 C82 0.929 . S
H78 C87 0.931 . S
H79 C85 0.930 . S
N80 N81 1.234 . S
N80 C84 1.453 . S
N81 N80 1.234 . S
C82 H77 0.929 . S
C82 C83 1.373 . S
C82 C84 1.368 . S
C83 C82 1.373 . S
C83 C87 1.397 . S
C84 N80 1.453 . S
C84 C82 1.368 . S
C84 C85 1.373 . S
C85 H79 0.930 . S
C85 C84 1.373 . S
C85 C86 1.371 . S
C86 C85 1.371 . S
C86 C87 1.383 . S
C87 H78 0.931 . S
C87 C83 1.397 . S
C87 C86 1.383 . S
C88 C89 1.443 . S
C88 N92 1.376 . S
C88 C126 1.389 . S
C89 C88 1.443 . S
C89 C90 1.340 . S
C89 H129 0.951 . S
C90 C89 1.340 . S
C90 C91 1.439 . S
C90 H130 0.950 . S
C91 C90 1.439 . S
C91 N92 1.374 . S
C91 C125 1.395 . S
N92 C88 1.376 . S
N92 C91 1.374 . S
N92 Co93 2.008 . S
Co93 N92 2.008 . S
Co93 N94 1.995 . S
Co93 N99 2.008 . S
Co93 N104 1.995 . S
Co93 N109 2.282 . S
Co93 N115 2.282 . S
N94 Co93 1.995 . S
N94 C95 1.376 . S
N94 C98 1.383 . S
C95 N94 1.376 . S
C95 C96 1.446 . S
C95 C125 1.391 . S
C96 C95 1.446 . S
C96 C97 1.339 1_455 S
C96 H131 0.949 . S
C97 C96 1.339 1_655 S
C97 C98 1.439 1_655 S
C97 H132 0.950 . S
C98 N94 1.383 . S
C98 C97 1.439 1_455 S
C98 C127 1.392 1_455 S
N99 Co93 2.008 . S
N99 C100 1.376 1_455 S
N99 C103 1.374 . S
C100 N99 1.376 1_655 S
C100 C101 1.443 . S
C100 C127 1.389 . S
C101 C100 1.443 . S
C101 C102 1.340 . S
C101 H133 0.951 . S
C102 C101 1.340 . S
C102 C103 1.439 1_655 S
C102 H134 0.950 . S
C103 N99 1.374 . S
C103 C102 1.439 1_455 S
C103 C128 1.395 . S
N104 Co93 1.995 . S
N104 C105 1.376 . S
N104 C108 1.383 . S
C105 N104 1.376 . S
C105 C106 1.446 . S
C105 C128 1.391 . S
C106 C105 1.446 . S
C106 C107 1.339 . S
C106 H135 0.949 . S
C107 C106 1.339 . S
C107 C108 1.439 . S
C107 H136 0.950 . S
C108 N104 1.383 . S
C108 C107 1.439 . S
C108 C126 1.392 . S
N109 Co93 2.282 . S
N109 C112 1.332 . S
N109 C114 1.332 . S
C110 C111 1.386 . S
C110 C113 1.388 . S
C111 C110 1.386 . S
C111 C112 1.382 . S
C111 H137 0.950 . S
C112 N109 1.332 . S
C112 C111 1.382 . S
C112 H123 0.952 . S
C113 C110 1.388 . S
C113 C114 1.382 . S
C113 H138 0.950 . S
C114 N109 1.332 . S
C114 C113 1.382 . S
C114 H124 0.948 . S
N115 Co93 2.282 . S
N115 C119 1.332 1_455 S
N115 C120 1.332 1_455 S
C116 C117 1.388 . S
C116 C120 1.382 . S
C116 H139 0.950 . S
C117 C116 1.388 . S
C117 C118 1.386 . S
C118 C117 1.386 . S
C118 C119 1.382 . S
C118 H140 0.950 . S
C119 N115 1.332 1_655 S
C119 C118 1.382 . S
C119 H121 0.952 1_655 S
C120 N115 1.332 1_655 S
C120 C116 1.382 . S
C120 H122 0.948 . S
H121 C119 0.952 1_455 S
H122 C120 0.948 . S
H123 C112 0.952 . S
H124 C114 0.948 . S
C125 C91 1.395 . S
C125 C95 1.391 . S
C126 C88 1.389 . S
C126 C108 1.392 . S
C127 C98 1.392 1_655 S
C127 C100 1.389 . S
C128 C103 1.395 . S
C128 C105 1.391 . S
H129 C89 0.951 . S
H130 C90 0.950 . S
H131 C96 0.949 . S
H132 C97 0.950 . S
H133 C101 0.951 . S
H134 C102 0.950 . S
H135 C106 0.949 . S
H136 C107 0.950 . S
H137 C111 0.950 . S
H138 C113 0.950 . S
H139 C116 0.950 . S
H140 C118 0.950 . S
C141 C142 1.443 . S
C141 N145 1.376 . S
C141 C179 1.389 . S
C142 C141 1.443 . S
C142 C143 1.340 . S
C142 H182 0.951 . S
C143 C142 1.340 . S
C143 C144 1.439 . S
C143 H183 0.951 1_556 S
C144 C143 1.439 . S
C144 N145 1.374 . S
C144 C178 1.395 . S
N145 C141 1.376 . S
N145 C144 1.374 . S
N145 Co146 2.008 . S
Co146 N145 2.008 . S
Co146 N147 1.995 1_455 S
Co146 N152 2.008 1_455 S
Co146 N157 1.995 . S
Co146 N162 2.282 . S
Co146 N168 2.282 1_455 S
N147 Co146 1.995 1_655 S
N147 C148 1.376 1_655 S
N147 C151 1.383 . S
C148 N147 1.376 1_455 S
C148 C149 1.446 1_456 S
C148 C178 1.391 . S
C149 C148 1.446 1_654 S
C149 C150 1.339 1_554 S
C149 H184 0.949 . S
C150 C149 1.339 1_556 S
C150 C151 1.439 . S
C150 H185 0.950 1_556 S
C151 N147 1.383 . S
C151 C150 1.439 . S
C151 C180 1.392 . S
N152 Co146 2.008 1_655 S
N152 C153 1.376 . S
N152 C156 1.374 . S
C153 N152 1.376 . S
C153 C154 1.443 . S
C153 C180 1.389 . S
C154 C153 1.443 . S
C154 C155 1.340 . S
C154 H186 0.951 . S
C155 C154 1.340 . S
C155 C156 1.439 . S
C155 H187 0.950 . S
C156 N152 1.374 . S
C156 C155 1.439 . S
C156 C181 1.395 . S
N157 Co146 1.995 . S
N157 C158 1.376 . S
N157 C161 1.383 . S
C158 N157 1.376 . S
C158 C159 1.446 . S
C158 C181 1.391 1_455 S
C159 C158 1.446 . S
C159 C160 1.339 . S
C159 H188 0.949 . S
C160 C159 1.339 . S
C160 C161 1.439 . S
C160 H189 0.950 . S
C161 N157 1.383 . S
C161 C160 1.439 . S
C161 C179 1.392 . S
N162 Co146 2.282 . S
N162 C165 1.332 . S
N162 C167 1.332 . S
C163 C164 1.386 . S
C163 C166 1.388 . S
C164 C163 1.386 . S
C164 C165 1.382 . S
C164 H190 0.950 . S
C165 N162 1.332 . S
C165 C164 1.382 . S
C165 H176 0.952 . S
C166 C163 1.388 . S
C166 C167 1.382 . S
C166 H191 0.950 . S
C167 N162 1.332 . S
C167 C166 1.382 . S
C167 H177 0.948 . S
N168 Co146 2.282 1_655 S
N168 C172 1.332 . S
N168 C173 1.332 . S
C169 C170 1.388 . S
C169 C173 1.382 . S
C169 H192 0.950 . S
C170 C169 1.388 . S
C170 C171 1.386 . S
C171 C170 1.386 . S
C171 C172 1.382 . S
C171 H193 0.950 . S
C172 N168 1.332 . S
C172 C171 1.382 . S
C172 H174 0.952 . S
C173 N168 1.332 . S
C173 C169 1.382 . S
C173 H175 0.948 . S
H174 C172 0.952 . S
H175 C173 0.948 . S
H176 C165 0.952 . S
H177 C167 0.948 . S
C178 C144 1.395 . S
C178 C148 1.391 . S
C179 C141 1.389 . S
C179 C161 1.392 . S
C180 C151 1.392 . S
C180 C153 1.389 . S
C181 C156 1.395 . S
C181 C158 1.391 1_655 S
H182 C142 0.951 . S
H183 C143 0.951 1_554 S
H184 C149 0.949 . S
H185 C150 0.950 1_554 S
H186 C154 0.951 . S
H187 C155 0.950 . S
H188 C159 0.949 . S
H189 C160 0.950 . S
H190 C164 0.950 . S
H191 C166 0.950 . S
H192 C169 0.950 . S
H193 C171 0.950 . S
C194 C195 1.443 . S
C194 N198 1.376 1_565 S
C194 C232 1.389 . S
C195 C194 1.443 . S
C195 C196 1.340 1_565 S
C195 H235 0.951 . S
C196 C195 1.340 1_545 S
C196 C197 1.439 . S
C196 H236 0.950 . S
C197 C196 1.439 . S
C197 N198 1.374 . S
C197 C231 1.395 . S
N198 C194 1.376 1_545 S
N198 C197 1.374 . S
N198 Co199 2.008 . S
Co199 N198 2.008 . S
Co199 N200 1.995 . S
Co199 N205 2.008 . S
Co199 N210 1.995 1_545 S
Co199 N215 2.282 . S
Co199 N221 2.282 1_545 S
N200 Co199 1.995 . S
N200 C201 1.376 . S
N200 C204 1.383 . S
C201 N200 1.376 . S
C201 C202 1.446 . S
C201 C231 1.391 . S
C202 C201 1.446 . S
C202 C203 1.339 . S
C202 H237 0.949 . S
C203 C202 1.339 . S
C203 C204 1.439 . S
C203 H238 0.950 . S
C204 N200 1.383 . S
C204 C203 1.439 . S
C204 C233 1.392 . S
N205 Co199 2.008 . S
N205 C206 1.376 . S
N205 C209 1.374 . S
C206 N205 1.376 . S
C206 C207 1.443 . S
C206 C233 1.389 . S
C207 C206 1.443 . S
C207 C208 1.340 . S
C207 H239 0.951 . S
C208 C207 1.340 . S
C208 C209 1.439 . S
C208 H240 0.950 . S
C209 N205 1.374 . S
C209 C208 1.439 . S
C209 C234 1.395 . S
N210 Co199 1.995 1_565 S
N210 C211 1.376 . S
N210 C214 1.383 . S
C211 N210 1.376 . S
C211 C212 1.446 . S
C211 C234 1.391 1_565 S
C212 C211 1.446 . S
C212 C213 1.339 . S
C212 H241 0.949 . S
C213 C212 1.339 . S
C213 C214 1.439 . S
C213 H242 0.950 . S
C214 N210 1.383 . S
C214 C213 1.439 . S
C214 C232 1.392 . S
N215 Co199 2.282 . S
N215 C218 1.332 . S
N215 C220 1.332 . S
C216 C217 1.386 . S
C216 C219 1.388 . S
C217 C216 1.386 . S
C217 C218 1.382 . S
C217 H243 0.950 . S
C218 N215 1.332 . S
C218 C217 1.382 . S
C218 H229 0.952 . S
C219 C216 1.388 . S
C219 C220 1.382 . S
C219 H244 0.950 . S
C220 N215 1.332 . S
C220 C219 1.382 . S
C220 H230 0.948 . S
N221 Co199 2.282 1_565 S
N221 C225 1.332 . S
N221 C226 1.332 . S
C222 C223 1.388 . S
C222 C226 1.382 . S
C222 H245 0.950 . S
C223 C222 1.388 . S
C223 C224 1.386 . S
C224 C223 1.386 . S
C224 C225 1.382 . S
C224 H246 0.950 . S
C225 N221 1.332 . S
C225 C224 1.382 . S
C225 H227 0.952 1_565 S
C226 N221 1.332 . S
C226 C222 1.382 . S
C226 H228 0.948 . S
H227 C225 0.952 1_545 S
H228 C226 0.948 . S
H229 C218 0.952 . S
H230 C220 0.948 . S
C231 C197 1.395 . S
C231 C201 1.391 . S
C232 C194 1.389 . S
C232 C214 1.392 . S
C233 C204 1.392 . S
C233 C206 1.389 . S
C234 C209 1.395 . S
C234 C211 1.391 1_545 S
H235 C195 0.951 . S
H236 C196 0.950 . S
H237 C202 0.949 . S
H238 C203 0.950 . S
H239 C207 0.951 . S
H240 C208 0.950 . S
H241 C212 0.949 . S
H242 C213 0.950 . S
H243 C217 0.950 . S
H244 C219 0.950 . S
H245 C222 0.950 . S
H246 C224 0.950 . S
C247 C248 1.443 . S
C247 N251 1.376 . S
C247 C285 1.389 . S
C248 C247 1.443 . S
C248 C249 1.340 . S
C248 H288 0.951 . S
C249 C248 1.340 . S
C249 C250 1.439 . S
C249 H289 0.950 . S
C250 C249 1.439 . S
C250 N251 1.374 . S
C250 C284 1.395 . S
N251 C247 1.376 . S
N251 C250 1.374 . S
N251 Co252 2.019 . S
Co252 N251 2.019 . S
Co252 N253 1.986 1_554 S
Co252 N258 1.998 1_554 S
Co252 N263 2.003 . S
Co252 N268 2.269 1_554 S
Co252 N274 2.296 . S
N253 Co252 1.986 1_556 S
N253 C254 1.376 . S
N253 C257 1.383 . S
C254 N253 1.376 . S
C254 C255 1.446 . S
C254 C284 1.391 1_556 S
C255 C254 1.446 . S
C255 C256 1.339 . S
C255 H290 0.949 . S
C256 C255 1.339 . S
C256 C257 1.439 . S
C256 H291 0.950 . S
C257 N253 1.383 . S
C257 C256 1.439 . S
C257 C286 1.392 . S
N258 Co252 1.998 1_556 S
N258 C259 1.376 . S
N258 C262 1.374 . S
C259 N258 1.376 . S
C259 C260 1.443 . S
C259 C286 1.389 . S
C260 C259 1.443 . S
C260 C261 1.340 . S
C260 H292 0.951 . S
C261 C260 1.340 . S
C261 C262 1.439 . S
C261 H293 0.950 . S
C262 N258 1.374 . S
C262 C261 1.439 . S
C262 C287 1.395 . S
N263 Co252 2.003 . S
N263 C264 1.376 . S
N263 C267 1.383 . S
C264 N263 1.376 . S
C264 C265 1.446 . S
C264 C287 1.391 1_554 S
C265 C264 1.446 . S
C265 C266 1.339 . S
C265 H294 0.949 . S
C266 C265 1.339 . S
C266 C267 1.439 . S
C266 H295 0.950 . S
C267 N263 1.383 . S
C267 C266 1.439 . S
C267 C285 1.392 . S
N268 Co252 2.269 1_556 S
N268 C271 1.332 . S
N268 C273 1.332 . S
C269 C270 1.386 . S
C269 C272 1.388 . S
C270 C269 1.386 . S
C270 C271 1.382 . S
C270 H296 0.950 . S
C271 N268 1.332 . S
C271 C270 1.382 . S
C271 H282 0.952 . S
C272 C269 1.388 . S
C272 C273 1.382 . S
C272 H297 0.950 . S
C273 N268 1.332 . S
C273 C272 1.382 . S
C273 H283 0.948 . S
N274 Co252 2.296 . S
N274 C278 1.332 . S
N274 C279 1.332 . S
C275 C276 1.388 . S
C275 C279 1.382 . S
C275 H298 0.950 . S
C276 C275 1.388 . S
C276 C277 1.386 . S
C277 C276 1.386 . S
C277 C278 1.382 . S
C277 H299 0.950 . S
C278 N274 1.332 . S
C278 C277 1.382 . S
C278 H280 0.952 . S
C279 N274 1.332 . S
C279 C275 1.382 . S
C279 H281 0.948 . S
H280 C278 0.952 . S
H281 C279 0.948 . S
H282 C271 0.952 . S
H283 C273 0.948 . S
C284 C250 1.395 . S
C284 C254 1.391 1_554 S
C285 C247 1.389 . S
C285 C267 1.392 . S
C286 C257 1.392 . S
C286 C259 1.389 . S
C287 C262 1.395 . S
C287 C264 1.391 1_556 S
H288 C248 0.951 . S
H289 C249 0.950 . S
H290 C255 0.949 . S
H291 C256 0.950 . S
H292 C260 0.951 . S
H293 C261 0.950 . S
H294 C265 0.949 . S
H295 C266 0.950 . S
H296 C270 0.950 . S
H297 C272 0.950 . S
H298 C275 0.950 . S
H299 C277 0.950 . S
C300 C301 1.443 1_655 S
C300 N304 1.376 1_565 S
C300 C338 1.389 . S
C301 C300 1.443 1_455 S
C301 C302 1.340 1_565 S
C301 H341 0.951 . S
C302 C301 1.340 1_545 S
C302 C303 1.439 . S
C302 H342 0.950 . S
C303 C302 1.439 . S
C303 N304 1.374 1_455 S
C303 C337 1.395 . S
N304 C300 1.376 1_545 S
N304 C303 1.374 1_655 S
N304 Co305 2.008 . S
Co305 N304 2.008 . S
Co305 N306 1.995 1_655 S
Co305 N311 2.008 . S
Co305 N316 1.995 . S
Co305 N321 2.282 . S
Co305 N327 2.282 . S
N306 Co305 1.995 1_455 S
N306 C307 1.376 . S
N306 C310 1.383 . S
C307 N306 1.376 . S
C307 C308 1.446 . S
C307 C337 1.391 . S
C308 C307 1.446 . S
C308 C309 1.339 . S
C308 H343 0.949 . S
C309 C308 1.339 . S
C309 C310 1.439 . S
C309 H344 0.950 . S
C310 N306 1.383 . S
C310 C309 1.439 . S
C310 C339 1.392 1_455 S
N311 Co305 2.008 . S
N311 C312 1.376 . S
N311 C315 1.374 . S
C312 N311 1.376 . S
C312 C313 1.443 . S
C312 C339 1.389 . S
C313 C312 1.443 . S
C313 C314 1.340 . S
C313 H345 0.951 . S
C314 C313 1.340 . S
C314 C315 1.439 . S
C314 H346 0.950 . S
C315 N311 1.374 . S
C315 C314 1.439 . S
C315 C340 1.395 . S
N316 Co305 1.995 . S
N316 C317 1.376 . S
N316 C320 1.383 1_545 S
C317 N316 1.376 . S
C317 C318 1.446 1_545 S
C317 C340 1.391 . S
C318 C317 1.446 1_565 S
C318 C319 1.339 . S
C318 H347 0.949 . S
C319 C318 1.339 . S
C319 C320 1.439 . S
C319 H348 0.950 . S
C320 N316 1.383 1_565 S
C320 C319 1.439 . S
C320 C338 1.392 . S
N321 Co305 2.282 . S
N321 C324 1.332 . S
N321 C326 1.332 . S
C322 C323 1.386 . S
C322 C325 1.388 . S
C323 C322 1.386 . S
C323 C324 1.382 . S
C323 H349 0.950 . S
C324 N321 1.332 . S
C324 C323 1.382 . S
C324 H335 0.952 . S
C325 C322 1.388 . S
C325 C326 1.382 . S
C325 H350 0.950 1_655 S
C326 N321 1.332 . S
C326 C325 1.382 . S
C326 H336 0.948 1_655 S
N327 Co305 2.282 . S
N327 C331 1.332 . S
N327 C332 1.332 1_545 S
C328 C329 1.388 . S
C328 C332 1.382 . S
C328 H351 0.950 . S
C329 C328 1.388 . S
C329 C330 1.390 . S
C330 C329 1.390 . S
C330 C331 1.384 1_565 S
C330 H352 0.944 1_655 S
C331 N327 1.332 . S
C331 C330 1.384 1_545 S
C331 H333 0.952 1_655 S
C332 N327 1.332 1_565 S
C332 C328 1.382 . S
C332 H334 0.948 . S
H333 C331 0.952 1_455 S
H334 C332 0.948 . S
H335 C324 0.952 . S
H336 C326 0.948 1_455 S
C337 C303 1.395 . S
C337 C307 1.391 . S
C338 C300 1.389 . S
C338 C320 1.392 . S
C339 C310 1.392 1_655 S
C339 C312 1.389 . S
C340 C315 1.395 . S
C340 C317 1.391 . S
H341 C301 0.951 . S
H342 C302 0.950 . S
H343 C308 0.949 . S
H344 C309 0.950 . S
H345 C313 0.951 . S
H346 C314 0.950 . S
H347 C318 0.949 . S
H348 C319 0.950 . S
H349 C323 0.950 . S
H350 C325 0.950 1_455 S
H351 C328 0.950 . S
H352 C330 0.944 1_455 S
C353 C354 1.443 . S
C353 N357 1.376 . S
C353 C391 1.389 . S
C354 C353 1.443 . S
C354 C355 1.340 . S
C354 H394 0.951 . S
C355 C354 1.340 . S
C355 C356 1.439 . S
C355 H395 0.950 . S
C356 C355 1.439 . S
C356 N357 1.374 . S
C356 C390 1.395 . S
N357 C353 1.376 . S
N357 C356 1.374 . S
N357 Co358 2.008 . S
Co358 N357 2.008 . S
Co358 N359 1.995 . S
Co358 N364 2.008 . S
Co358 N369 1.995 . S
Co358 N374 2.282 . S
Co358 N380 2.282 . S
N359 Co358 1.995 . S
N359 C360 1.376 . S
N359 C363 1.383 . S
C360 N359 1.376 . S
C360 C361 1.446 . S
C360 C390 1.391 . S
C361 C360 1.446 . S
C361 C362 1.339 . S
C361 H396 0.949 . S
C362 C361 1.339 . S
C362 C363 1.439 . S
C362 H397 0.950 . S
C363 N359 1.383 . S
C363 C362 1.439 . S
C363 C392 1.392 . S
N364 Co358 2.008 . S
N364 C365 1.376 . S
N364 C368 1.374 . S
C365 N364 1.376 . S
C365 C366 1.443 . S
C365 C392 1.389 . S
C366 C365 1.443 . S
C366 C367 1.340 . S
C366 H398 0.951 1_554 S
C367 C366 1.340 . S
C367 C368 1.439 . S
C367 H399 0.950 . S
C368 N364 1.374 . S
C368 C367 1.439 . S
C368 C393 1.395 . S
N369 Co358 1.995 . S
N369 C370 1.376 . S
N369 C373 1.383 . S
C370 N369 1.376 . S
C370 C371 1.446 . S
C370 C393 1.391 . S
C371 C370 1.446 . S
C371 C372 1.339 . S
C371 H400 0.949 . S
C372 C371 1.339 . S
C372 C373 1.439 . S
C372 H401 0.950 . S
C373 N369 1.383 . S
C373 C372 1.439 . S
C373 C391 1.392 . S
N374 Co358 2.282 . S
N374 C377 1.332 . S
N374 C379 1.332 . S
C375 C376 1.386 1_556 S
C375 C378 1.388 1_556 S
C376 C375 1.386 1_554 S
C376 C377 1.382 . S
C376 H402 0.950 1_554 S
C377 N374 1.332 . S
C377 C376 1.382 . S
C377 H388 0.952 . S
C378 C375 1.388 1_554 S
C378 C379 1.382 . S
C378 H403 0.950 . S
C379 N374 1.332 . S
C379 C378 1.382 . S
C379 H389 0.948 . S
N380 Co358 2.282 . S
N380 C384 1.332 . S
N380 C385 1.332 . S
C381 C382 1.388 . S
C381 C385 1.382 . S
C381 H404 0.950 . S
C382 C381 1.388 . S
C382 C383 1.386 . S
C383 C382 1.386 . S
C383 C384 1.382 . S
C383 H405 0.950 . S
C384 N380 1.332 . S
C384 C383 1.382 . S
C384 H386 0.952 . S
C385 N380 1.332 . S
C385 C381 1.382 . S
C385 H387 0.948 . S
H386 C384 0.952 . S
H387 C385 0.948 . S
H388 C377 0.952 . S
H389 C379 0.948 . S
C390 C356 1.395 . S
C390 C360 1.391 . S
C391 C353 1.389 . S
C391 C373 1.392 . S
C392 C363 1.392 . S
C392 C365 1.389 . S
C393 C368 1.395 . S
C393 C370 1.391 . S
H394 C354 0.951 . S
H395 C355 0.950 . S
H396 C361 0.949 . S
H397 C362 0.950 . S
H398 C366 0.951 1_556 S
H399 C367 0.950 . S
H400 C371 0.949 . S
H401 C372 0.950 . S
H402 C376 0.950 1_556 S
H403 C378 0.950 . S
H404 C381 0.950 . S
H405 C383 0.950 . S
C110 N4 1.855 . S
C179 C17 1.700 . S
C117 C28 1.852 . S
C180 C39 1.613 . S
C233 C6 1.903 . S
C269 C20 1.534 . S
C31 C329 2.114 . S
C392 N37 1.478 1_554 S
C232 N15 1.633 . S
N26 C276 1.614 . S
C322 C42 2.211 . S
C391 C9 1.815 . S
C53 C170 1.651 . S
C127 C64 2.086 . S
N70 C163 1.483 . S
C83 C126 1.980 . S
C338 N48 1.919 . S
C382 C61 2.013 . S
C216 C72 1.855 . S
N81 C285 1.788 . S
C339 N59 1.942 . S
C375 C75 1.822 . S
C223 C86 2.002 . S
C50 C286 1.635 . S
