# Generated by pormake.
# Topology zzz, (3,6)-cn, num edge types: 1
# Building blocks:
#     Node 0, Type 0, BuildingBlock: BELTOD_clean_linker_0, # of connection points: 3
#     Node 1, Type 0, BuildingBlock: BELTOD_clean_linker_0, # of connection points: 3
#     Node 2, Type 0, BuildingBlock: BELTOD_clean_linker_0, # of connection points: 3
#     Node 3, Type 0, BuildingBlock: BELTOD_clean_linker_0, # of connection points: 3
#     Node 4, Type 0, BuildingBlock: BELTOD_clean_linker_0, # of connection points: 3
#     Node 5, Type 0, BuildingBlock: BELTOD_clean_linker_0, # of connection points: 3
#     Node 6, Type 0, BuildingBlock: BELTOD_clean_linker_0, # of connection points: 3
#     Node 7, Type 0, BuildingBlock: BELTOD_clean_linker_0, # of connection points: 3
#     Node 8, Type 1, BuildingBlock: BETDEL_clean_sbu_0, # of connection points: 6
#     Node 9, Type 1, BuildingBlock: BETDEL_clean_sbu_0, # of connection points: 6
#     Node 10, Type 1, BuildingBlock: BETDEL_clean_sbu_0, # of connection points: 6
#     Node 11, Type 1, BuildingBlock: BETDEL_clean_sbu_0, # of connection points: 6
#     Edge 12, Type (0, 1), None
#     Edge 13, Type (0, 1), None
#     Edge 14, Type (0, 1), None
#     Edge 15, Type (0, 1), None
#     Edge 16, Type (0, 1), None
#     Edge 17, Type (0, 1), None
#     Edge 18, Type (0, 1), None
#     Edge 19, Type (0, 1), None
#     Edge 20, Type (0, 1), None
#     Edge 21, Type (0, 1), None
#     Edge 22, Type (0, 1), None
#     Edge 23, Type (0, 1), None
#     Edge 24, Type (0, 1), None
#     Edge 25, Type (0, 1), None
#     Edge 26, Type (0, 1), None
#     Edge 27, Type (0, 1), None
#     Edge 28, Type (0, 1), None
#     Edge 29, Type (0, 1), None
#     Edge 30, Type (0, 1), None
#     Edge 31, Type (0, 1), None
#     Edge 32, Type (0, 1), None
#     Edge 33, Type (0, 1), None
#     Edge 34, Type (0, 1), None
#     Edge 35, Type (0, 1), None
# Relax obj value: 0.365
# Max RMSD: 0.239
# Mean RMSD: 0.211
data_MOF--net-zzz--node1-BETDEL_clean_sbu_0--node2-BELTOD_clean_linker_0--edge1-none
_symmetry_space_group_name_H-M    P1
_symmetry_Int_Tables_number       1
_symmetry_cell_setting            triclinic
loop_
_symmetry_equiv_pos_as_xyz
'x, y, z'
_cell_length_a     26.162322
_cell_length_b     27.05895
_cell_length_c     9.4694116
_cell_angle_alpha  91.759231
_cell_angle_beta   88.310043
_cell_angle_gamma 96.138209
loop_
_atom_site_label
_atom_site_type_symbol
_atom_site_fract_x
_atom_site_fract_y
_atom_site_fract_z
_atom_type_partial_charge
P0 P 0.72734 0.46455 0.17941 0.0
H1 H 0.74362 0.45908 0.48123 0.0
H2 H 0.82564 0.47277 0.59398 0.0
H3 H 0.88561 0.56704 0.25468 0.0
H4 H 0.80239 0.55284 0.14111 0.0
H5 H 0.66941 0.41581 0.95386 0.0
H6 H 0.61204 0.44228 0.77996 0.0
H7 H 0.63574 0.59261 0.94856 0.0
H8 H 0.69247 0.56504 0.1297 0.0
H9 H 0.7957 0.38833 0.23557 0.0
H10 H 0.77461 0.4916 0.90894 0.0
O11 O 0.69405 0.41863 0.26732 0.0
H12 H 0.88154 0.37632 0.13258 0.0
H13 H 0.85963 0.48178 0.81419 0.0
C14 C 0.7667 0.50396 0.30056 0.0
C15 C 0.77317 0.4851 0.43444 0.0
C16 C 0.8209 0.49259 0.49884 0.0
C17 C 0.86315 0.51982 0.43185 0.0
C18 C 0.85434 0.54496 0.30825 0.0
C19 C 0.8062 0.53767 0.24433 0.0
C20 C 0.68439 0.48809 0.05685 0.0
C21 C 0.66142 0.45427 0.95651 0.0
C22 C 0.62895 0.4695 0.85619 0.0
C23 C 0.61931 0.51937 0.85131 0.0
C24 C 0.64247 0.55385 0.95087 0.0
C25 C 0.67474 0.53818 0.05406 0.0
C26 C 0.77786 0.43952 0.07698 0.0
C27 C 0.80839 0.40656 0.13854 0.0
C28 C 0.85758 0.40041 0.08183 0.0
C29 C 0.87641 0.42796 0.9651 0.0
C30 C 0.84506 0.45918 0.90153 0.0
C31 C 0.7961 0.46447 0.95546 0.0
P32 P 0.06096 0.7406 0.14267 0.0
H33 H 0.05993 0.75916 0.44735 0.0
H34 H 0.03818 0.83385 0.56836 0.0
H35 H 0.94496 0.86549 0.22028 0.0
H36 H 0.96666 0.78949 0.09894 0.0
H37 H 0.10532 0.64837 0.07466 0.0
H38 H 0.08679 0.58328 0.89477 0.0
H39 H 0.95106 0.64938 0.78369 0.0
H40 H 0.96722 0.71248 0.97367 0.0
H41 H 0.14192 0.82369 0.17745 0.0
H42 H 0.02465 0.77525 0.87732 0.0
O43 O 0.11059 0.72649 0.23498 0.0
H44 H 0.14986 0.90723 0.07815 0.0
H45 H 0.02717 0.8589 0.79597 0.0
C46 C 0.01661 0.76918 0.26129 0.0
C47 C 0.03246 0.78033 0.39958 0.0
C48 C 0.02004 0.82381 0.46924 0.0
C49 C 0.99103 0.85686 0.4026 0.0
C50 C 0.96835 0.84153 0.27362 0.0
C51 C 0.98035 0.79744 0.20465 0.0
C52 C 0.03822 0.68616 0.03684 0.0
C53 C 0.07046 0.64815 0.01579 0.0
C54 C 0.05996 0.61087 0.91221 0.0
C55 C 0.01797 0.61191 0.82398 0.0
C56 C 0.98399 0.64818 0.84976 0.0
C57 C 0.99338 0.68435 0.95798 0.0
C58 C 0.08299 0.79256 0.03424 0.0
C59 C 0.11894 0.8304 0.08814 0.0
C60 C 0.12246 0.87847 0.03451 0.0
C61 C 0.08813 0.88935 0.93193 0.0
C62 C 0.05437 0.85104 0.8739 0.0
C63 C 0.05301 0.80286 0.92099 0.0
P64 P 0.77987 0.02627 0.15482 0.0
H65 H 0.75135 0.01584 0.45468 0.0
H66 H 0.66788 0.98979 0.56573 0.0
H67 H 0.61432 0.92401 0.17006 0.0
H68 H 0.69781 0.95055 0.05753 0.0
H69 H 0.89102 0.02384 0.14498 0.0
H70 H 0.95125 0.01562 0.94496 0.0
H71 H 0.82432 0.95981 0.68341 0.0
H72 H 0.7645 0.96926 0.88362 0.0
H73 H 0.68588 0.07247 0.23005 0.0
H74 H 0.79419 0.07509 0.87683 0.0
O75 O 0.81482 0.06072 0.27373 0.0
H76 H 0.62052 0.09679 0.07669 0.0
H77 H 0.72816 0.09757 0.72194 0.0
C78 C 0.73148 0.98507 0.24706 0.0
C79 C 0.72281 0.99369 0.39253 0.0
C80 C 0.67472 0.97928 0.45613 0.0
C81 C 0.63458 0.95536 0.37618 0.0
C82 C 0.64485 0.9418 0.23456 0.0
C83 C 0.69291 0.95671 0.17028 0.0
C84 C 0.82319 0.99853 0.02921 0.0
C85 C 0.87636 0.00883 0.04564 0.0
C86 C 0.91074 1.00411 0.93091 0.0
C87 C 0.89245 0.98843 0.79715 0.0
C88 C 0.83964 0.97268 0.78464 0.0
C89 C 0.80532 0.97742 0.90002 0.0
C90 C 0.74338 0.06744 0.06199 0.0
C91 C 0.69615 0.07937 0.12032 0.0
C92 C 0.65879 0.09376 0.03265 0.0
C93 C 0.66876 0.09662 0.88654 0.0
C94 C 0.71913 0.09404 0.83383 0.0
C95 C 0.75666 0.08026 0.92217 0.0
P96 P 0.46324 0.78383 0.23098 0.0
H97 H 0.48625 0.77612 0.53002 0.0
H98 H 0.51132 0.70321 0.6418 0.0
H99 H 0.569 0.65015 0.23895 0.0
H100 H 0.54446 0.72405 0.1283 0.0
H101 H 0.40414 0.85002 0.09174 0.0
H102 H 0.42297 0.90767 0.90047 0.0
H103 H 0.5834 0.88391 0.90589 0.0
H104 H 0.56386 0.82425 0.09815 0.0
H105 H 0.42061 0.6851 0.31829 0.0
H106 H 0.4338 0.7666 0.93114 0.0
O107 O 0.42235 0.80507 0.35096 0.0
H108 H 0.4062 0.60733 0.18033 0.0
H109 H 0.4158 0.68998 0.79631 0.0
C110 C 0.51218 0.75507 0.31983 0.0
C111 C 0.50701 0.75043 0.46679 0.0
C112 C 0.52089 0.70805 0.53064 0.0
C113 C 0.54011 0.66961 0.44818 0.0
C114 C 0.55338 0.6785 0.30537 0.0
C115 C 0.54002 0.72135 0.242 0.0
C116 C 0.48256 0.83313 0.11005 0.0
C117 C 0.44362 0.85774 0.05414 0.0
C118 C 0.45433 0.89033 0.94381 0.0
C119 C 0.50451 0.89979 0.88782 0.0
C120 C 0.54438 0.87712 0.94769 0.0
C121 C 0.53329 0.84324 0.05738 0.0
C122 C 0.42984 0.73188 0.13568 0.0
C123 C 0.41808 0.68665 0.20458 0.0
C124 C 0.4099 0.64209 0.12594 0.0
C125 C 0.41082 0.6427 0.97804 0.0
C126 C 0.41494 0.68848 0.91062 0.0
C127 C 0.42534 0.73273 0.98856 0.0
P128 P 0.26645 0.42935 0.0209 0.0
H129 H 0.22632 0.36528 0.78647 0.0
H130 H 0.14926 0.38468 0.67262 0.0
H131 H 0.19719 0.54111 0.72852 0.0
H132 H 0.27322 0.52152 0.85303 0.0
H133 H 0.28722 0.39428 0.29082 0.0
H134 H 0.34641 0.42275 0.47415 0.0
H135 H 0.42814 0.52673 0.18981 0.0
H136 H 0.36534 0.49934 0.00314 0.0
H137 H 0.15598 0.40919 0.02345 0.0
H138 H 0.26828 0.52711 0.16679 0.0
O139 O 0.24876 0.3689 0.04406 0.0
H140 H 0.08797 0.46177 0.07301 0.0
H141 H 0.19936 0.57885 0.22891 0.0
C142 C 0.25433 0.44179 0.83794 0.0
C143 C 0.2222 0.404 0.76901 0.0
C144 C 0.17717 0.41498 0.70555 0.0
C145 C 0.16612 0.46433 0.69739 0.0
C146 C 0.20417 0.50259 0.73695 0.0
C147 C 0.24868 0.49131 0.80453 0.0
C148 C 0.32172 0.44435 0.13212 0.0
C149 C 0.3183 0.42259 0.26512 0.0
C150 C 0.3521 0.43925 0.37123 0.0
C151 C 0.39108 0.47802 0.34791 0.0
C152 C 0.39753 0.49762 0.21133 0.0
C153 C 0.36222 0.48161 0.10436 0.0
C154 C 0.2169 0.46318 0.09796 0.0
C155 C 0.16582 0.44594 0.06974 0.0
C156 C 0.12714 0.47673 0.09423 0.0
C157 C 0.13842 0.52467 0.15446 0.0
C158 C 0.18973 0.54232 0.18082 0.0
C159 C 0.22884 0.51201 0.15063 0.0
P160 P 0.09541 0.27058 0.0174 0.0
H161 H 0.15576 0.24143 0.77007 0.0
H162 H 0.13194 0.16119 0.65313 0.0
H163 H 0.97216 0.1756 0.74806 0.0
H164 H 0.99619 0.25549 0.87036 0.0
H165 H 0.14058 0.31755 0.26429 0.0
H166 H 0.10981 0.37265 0.44607 0.0
H167 H 0.98117 0.3963 0.19151 0.0
H168 H 1.01192 0.33897 0.00648 0.0
H169 H 0.12058 0.16911 0.02117 0.0
H170 H 0.99726 0.25167 0.17662 0.0
O171 O 0.15886 0.26952 0.0296 0.0
H172 H 0.06836 0.09167 0.07198 0.0
H173 H 0.94569 0.17409 0.23506 0.0
C174 C 0.0781 0.25326 0.83786 0.0
C175 C 0.11526 0.22902 0.76019 0.0
C176 C 0.10186 0.18231 0.69607 0.0
C177 C 0.05061 0.16126 0.69951 0.0
C178 C 1.01225 0.19055 0.74882 0.0
C179 C 0.02597 0.23714 0.81481 0.0
C180 C 0.07889 0.32421 0.12067 0.0
C181 C 0.10657 0.33552 0.24414 0.0
C182 C 0.08875 0.36685 0.34926 0.0
C183 C 0.04298 0.38824 0.33355 0.0
C184 C 0.01678 0.38022 0.20561 0.0
C185 C 0.0344 0.34774 0.09981 0.0
C186 C 0.06382 0.21637 0.10019 0.0
C187 C 0.08283 0.17066 0.07017 0.0
C188 C 0.05223 0.12635 0.09533 0.0
C189 C 1.00247 0.12687 0.15532 0.0
C190 C 0.98352 0.17264 0.18638 0.0
C191 C 0.01376 0.21705 0.1576 0.0
P192 P 0.27301 0.07296 0.04676 0.0
H193 H 0.32813 0.14784 0.86418 0.0
H194 H 0.40557 0.13891 0.7225 0.0
H195 H 0.36616 0.98015 0.69774 0.0
H196 H 0.28605 0.98972 0.82924 0.0
H197 H 0.2147 0.14046 0.21598 0.0
H198 H 0.15021 0.11823 0.39822 0.0
H199 H 0.11501 0.97452 0.19683 0.0
H200 H 0.18335 0.99535 0.01622 0.0
H201 H 0.3335 0.08076 0.30076 0.0
H202 H 0.26308 0.96177 0.03369 0.0
O203 O 0.29883 0.128 0.11093 0.0
H204 H 0.37915 0.02168 0.41826 0.0
H205 H 0.3153 0.90335 0.13975 0.0
C206 C 0.30284 0.06892 0.87022 0.0
C207 C 0.33456 0.11102 0.82441 0.0
C208 C 0.37963 0.1059 0.74408 0.0
C209 C 0.3937 0.05851 0.7063 0.0
C210 C 0.35762 0.0171 0.73069 0.0
C211 C 0.3118 0.02256 0.80835 0.0
C212 C 0.20584 0.06891 0.10377 0.0
C213 C 0.19261 0.10443 0.20651 0.0
C214 C 0.15582 0.09167 0.31266 0.0
C215 C 0.12942 0.04396 0.31432 0.0
C216 C 0.13614 0.01113 0.19892 0.0
C217 C 0.17464 0.02332 0.0947 0.0
C218 C 0.29807 0.02671 0.14992 0.0
C219 C 0.32797 0.04214 0.26596 0.0
C220 C 0.3538 0.00812 0.33424 0.0
C221 C 0.35142 0.95843 0.2853 0.0
C222 C 0.31809 0.94172 0.17748 0.0
C223 C 0.28972 0.97558 0.11398 0.0
P224 P 0.4562 0.25339 0.05615 0.0
H225 H 0.37467 0.30858 0.96764 0.0
H226 H 0.38621 0.38608 0.84259 0.0
H227 H 0.52913 0.34532 0.65899 0.0
H228 H 0.51877 0.26821 0.79147 0.0
H229 H 0.41711 0.14912 0.01672 0.0
H230 H 0.43641 0.07671 0.14493 0.0
H231 H 0.57509 0.15974 0.29691 0.0
H232 H 0.55596 0.23066 0.17178 0.0
H233 H 0.42777 0.33097 0.25035 0.0
H234 H 0.56454 0.29477 0.02059 0.0
O235 O 0.39928 0.24523 0.14162 0.0
H236 H 0.47227 0.4103 0.32188 0.0
H237 H 0.61139 0.37228 0.10929 0.0
C238 C 0.44619 0.28227 0.89109 0.0
C239 C 0.40735 0.31458 0.89502 0.0
C240 C 0.41442 0.35978 0.82574 0.0
C241 C 0.45936 0.37248 0.74506 0.0
C242 C 0.49434 0.33671 0.72235 0.0
C243 C 0.48792 0.29194 0.79563 0.0
C244 C 0.4847 0.19616 0.08206 0.0
C245 C 0.45303 0.15099 0.07132 0.0
C246 C 0.46372 0.10974 0.1474 0.0
C247 C 0.50646 0.11302 0.23573 0.0
C248 C 0.5412 0.15616 0.23282 0.0
C249 C 0.53037 0.1972 0.15766 0.0
C250 C 0.49356 0.30544 0.13713 0.0
C251 C 0.46799 0.33896 0.22039 0.0
C252 C 0.49336 0.38462 0.2598 0.0
C253 C 0.54517 0.39716 0.2201 0.0
C254 C 0.57135 0.36361 0.13886 0.0
C255 C 0.54497 0.3187 0.09273 0.0
Dy256 Dy 0.04808 0.99407 0.67455 0.0
C257 C 0.97679 0.0811 0.2157 0.0
C258 C 0.0852 0.93952 0.88102 0.0
Dy259 Dy 0.98315 0.02364 0.44169 0.0
O260 O 0.10962 0.95352 0.76554 0.0
O261 O 0.04155 0.95852 0.88627 0.0
O262 O 0.1171 0.03629 0.57095 0.0
O263 O 0.05895 0.99893 0.44701 0.0
C264 C 0.10034 0.02737 0.44381 0.0
C265 C 0.92705 0.99349 0.66964 0.0
O266 O 0.97838 0.94378 0.37386 0.0
O267 O 0.0143 0.92061 0.57934 0.0
O268 O 0.94833 0.08311 0.33041 0.0
O269 O 1.00106 0.04177 0.21715 0.0
O270 O 0.90972 0.98928 0.54105 0.0
O271 O 0.97109 0.01839 0.66983 0.0
O272 O 0.04918 0.07361 0.74572 0.0
O273 O 0.0175 0.09736 0.53475 0.0
C274 C 0.99226 0.9092 0.45645 0.0
C275 C 0.03797 0.10834 0.65933 0.0
Dy276 Dy 0.48011 0.96441 0.4642 0.0
C277 C 0.62566 0.08856 0.78969 0.0
C278 C 0.39153 0.92965 0.33155 0.0
Dy279 Dy 0.54805 0.04029 0.63566 0.0
O280 O 0.4364 0.94006 0.27075 0.0
O281 O 0.39861 0.9299 0.46637 0.0
O282 O 0.54517 0.91778 0.41007 0.0
O283 O 0.56019 0.9944 0.44863 0.0
C284 C 0.58092 0.9546 0.43102 0.0
C285 C 0.44732 0.05275 0.65589 0.0
O286 O 0.54831 0.08246 0.43624 0.0
O287 O 0.47768 0.03472 0.34418 0.0
O288 O 0.57795 0.0806 0.83214 0.0
O289 O 0.63045 0.07118 0.66125 0.0
O290 O 0.48405 0.08914 0.66238 0.0
O291 O 0.46684 0.01186 0.64999 0.0
O292 O 0.47894 0.92247 0.66133 0.0
O293 O 0.54742 0.97068 0.76434 0.0
C294 C 0.51198 0.0744 0.34094 0.0
C295 C 0.51251 0.93126 0.76283 0.0
Dy296 Dy 0.46753 0.53963 0.70185 0.0
C297 C 0.57024 0.44409 0.27562 0.0
C298 C 0.41923 0.59796 0.89267 0.0
Dy299 Dy 0.53936 0.50325 0.49401 0.0
O300 O 0.41157 0.59461 0.75812 0.0
O301 O 0.45236 0.56773 0.92426 0.0
O302 O 0.40071 0.49632 0.59992 0.0
O303 O 0.46262 0.52659 0.47164 0.0
C304 C 0.42025 0.49902 0.4725 0.0
C305 C 0.58647 0.53357 0.73769 0.0
O306 O 0.54769 0.58098 0.41981 0.0
O307 O 0.51277 0.61013 0.62742 0.0
O308 O 0.58561 0.44413 0.40454 0.0
O309 O 0.54542 0.48266 0.26452 0.0
O310 O 0.60722 0.53945 0.61162 0.0
O311 O 0.54189 0.51085 0.72477 0.0
O312 O 0.45851 0.46176 0.77725 0.0
O313 O 0.49871 0.43152 0.57708 0.0
C314 C 0.53592 0.6183 0.50298 0.0
C315 C 0.47195 0.4241 0.69676 0.0
Dy316 Dy 0.9922 0.463 0.68873 0.0
C317 C 0.09656 0.54845 0.22571 0.0
C318 C 0.92879 0.42768 0.90736 0.0
Dy319 Dy 0.03705 0.52863 0.4601 0.0
O320 O 0.9362 0.40458 0.78766 0.0
O321 O 0.95943 0.4688 0.90937 0.0
O322 O 0.02386 0.39715 0.5862 0.0
O323 O 0.99955 0.45291 0.46 0.0
C324 C 0.02114 0.41322 0.45884 0.0
C325 C 0.01337 0.57873 0.69729 0.0
O326 O 0.95614 0.53215 0.39876 0.0
O327 O 0.92234 0.49276 0.59907 0.0
O328 O 0.10469 0.56946 0.34947 0.0
O329 O 0.05093 0.52445 0.22775 0.0
O330 O 1.01106 0.59634 0.57121 0.0
O331 O 0.0324 0.53772 0.68916 0.0
O332 O 0.07445 0.4624 0.74844 0.0
O333 O 0.10744 0.49654 0.53868 0.0
C334 C 0.91639 0.5163 0.48061 0.0
C335 C 0.11374 0.47521 0.66029 0.0
loop_
_geom_bond_atom_site_label_1
_geom_bond_atom_site_label_2
_geom_bond_distance
_geom_bond_site_symmetry_2
_ccdc_geom_bond_type
P0 O11 1.490 . S
P0 C14 1.812 . S
P0 C20 1.803 . S
P0 C26 1.819 . S
H1 C15 0.941 . S
H2 C16 0.939 . S
H3 C18 0.940 . S
H4 C19 0.940 . S
H5 C21 0.939 1_556 S
H6 C22 0.942 . S
H7 C24 0.940 . S
H8 C25 0.939 . S
H9 C27 0.941 1_554 S
H10 C31 0.939 . S
O11 P0 1.490 . S
H12 C28 0.939 . S
H13 C30 0.940 . S
C14 P0 1.812 . S
C14 C15 1.389 . S
C14 C19 1.391 . S
C15 H1 0.941 . S
C15 C14 1.389 . S
C15 C16 1.397 . S
C16 H2 0.939 . S
C16 C15 1.397 . S
C16 C17 1.378 . S
C17 C16 1.378 . S
C17 C18 1.378 . S
C18 H3 0.940 . S
C18 C17 1.378 . S
C18 C19 1.396 . S
C19 H4 0.940 . S
C19 C14 1.391 . S
C19 C18 1.396 . S
C20 P0 1.803 . S
C20 C21 1.378 . S
C20 C25 1.400 . S
C21 H5 0.939 1_554 S
C21 C20 1.378 . S
C21 C22 1.361 1_554 S
C22 H6 0.942 . S
C22 C21 1.361 1_556 S
C22 C23 1.369 1_556 S
C23 C22 1.369 1_554 S
C23 C24 1.404 . S
C24 H7 0.940 . S
C24 C23 1.404 . S
C24 C25 1.389 . S
C25 H8 0.939 . S
C25 C20 1.400 . S
C25 C24 1.389 . S
C26 P0 1.819 . S
C26 C27 1.391 1_554 S
C26 C31 1.391 1_554 S
C27 H9 0.941 1_556 S
C27 C26 1.391 1_556 S
C27 C28 1.396 . S
C28 H12 0.939 . S
C28 C27 1.396 . S
C28 C29 1.397 . S
C29 C28 1.397 . S
C29 C30 1.385 . S
C30 H13 0.940 . S
C30 C29 1.385 . S
C30 C31 1.388 . S
C31 H10 0.939 . S
C31 C26 1.391 1_556 S
C31 C30 1.388 . S
P32 O43 1.490 . S
P32 C46 1.812 . S
P32 C52 1.803 . S
P32 C58 1.819 1_554 S
H33 C47 0.941 . S
H34 C48 0.939 . S
H35 C50 0.940 . S
H36 C51 0.951 . S
H37 C53 0.939 . S
H38 C54 0.942 . S
H39 C56 0.940 . S
H40 C57 0.939 . S
H41 C59 0.941 1_554 S
H42 C63 0.939 1_655 S
O43 P32 1.490 . S
H44 C60 0.939 . S
H45 C62 0.940 . S
C46 P32 1.812 . S
C46 C47 1.389 . S
C46 C51 1.374 1_455 S
C47 H33 0.941 . S
C47 C46 1.389 . S
C47 C48 1.397 . S
C48 H34 0.939 . S
C48 C47 1.397 . S
C48 C49 1.378 . S
C49 C48 1.378 . S
C49 C50 1.378 1_455 S
C50 H35 0.940 . S
C50 C49 1.378 1_655 S
C50 C51 1.403 . S
C51 H36 0.951 . S
C51 C46 1.374 1_655 S
C51 C50 1.403 . S
C52 P32 1.803 . S
C52 C53 1.378 1_554 S
C52 C57 1.400 1_455 S
C53 H37 0.939 . S
C53 C52 1.378 1_556 S
C53 C54 1.361 . S
C54 H38 0.942 . S
C54 C53 1.361 . S
C54 C55 1.369 1_556 S
C55 C54 1.369 1_554 S
C55 C56 1.404 1_455 S
C56 H39 0.940 . S
C56 C55 1.404 1_655 S
C56 C57 1.389 . S
C57 H40 0.939 . S
C57 C52 1.400 1_655 S
C57 C56 1.389 . S
C58 P32 1.819 1_556 S
C58 C59 1.391 . S
C58 C63 1.391 . S
C59 H41 0.941 1_556 S
C59 C58 1.391 . S
C59 C60 1.396 . S
C60 H44 0.939 . S
C60 C59 1.396 . S
C60 C61 1.397 . S
C61 C60 1.397 . S
C61 C62 1.385 1_455 S
C62 H45 0.940 . S
C62 C61 1.385 1_655 S
C62 C63 1.388 1_655 S
C63 H42 0.939 1_455 S
C63 C58 1.391 . S
C63 C62 1.388 1_455 S
P64 O75 1.490 . S
P64 C78 1.812 . S
P64 C84 1.803 . S
P64 C90 1.819 1_554 S
H65 C79 0.941 . S
H66 C80 0.939 . S
H67 C82 0.940 . S
H68 C83 0.940 . S
H69 C85 0.939 . S
H70 C86 0.942 . S
H71 C88 0.940 . S
H72 C89 0.939 . S
H73 C91 0.941 1_554 S
H74 C95 0.939 . S
O75 P64 1.490 . S
H76 C92 0.939 . S
H77 C94 0.940 . S
C78 P64 1.812 . S
C78 C79 1.389 . S
C78 C83 1.391 1_545 S
C79 H65 0.941 . S
C79 C78 1.389 . S
C79 C80 1.397 . S
C80 H66 0.939 . S
C80 C79 1.397 . S
C80 C81 1.378 1_545 S
C81 C80 1.378 1_565 S
C81 C82 1.378 . S
C82 H67 0.940 . S
C82 C81 1.378 . S
C82 C83 1.396 . S
C83 H68 0.940 . S
C83 C78 1.391 1_565 S
C83 C82 1.396 . S
C84 P64 1.803 . S
C84 C85 1.378 1_554 S
C84 C89 1.400 1_545 S
C85 H69 0.939 . S
C85 C84 1.378 1_556 S
C85 C86 1.361 . S
C86 H70 0.942 . S
C86 C85 1.361 . S
C86 C87 1.369 1_545 S
C87 C86 1.369 1_565 S
C87 C88 1.404 1_556 S
C88 H71 0.940 . S
C88 C87 1.404 1_554 S
C88 C89 1.389 . S
C89 H72 0.939 . S
C89 C84 1.400 1_565 S
C89 C88 1.389 . S
C90 P64 1.819 1_556 S
C90 C91 1.391 . S
C90 C95 1.391 1_545 S
C91 H73 0.941 1_556 S
C91 C90 1.391 . S
C91 C92 1.396 . S
C92 H76 0.939 . S
C92 C91 1.396 . S
C92 C93 1.397 1_545 S
C93 C92 1.397 1_565 S
C93 C94 1.385 . S
C94 H77 0.940 . S
C94 C93 1.385 . S
C94 C95 1.388 . S
C95 H74 0.939 . S
C95 C90 1.391 1_565 S
C95 C94 1.388 . S
P96 O107 1.490 . S
P96 C110 1.812 . S
P96 C116 1.803 . S
P96 C122 1.819 . S
H97 C111 0.941 . S
H98 C112 0.939 . S
H99 C114 0.940 . S
H100 C115 0.940 . S
H101 C117 0.939 . S
H102 C118 0.942 1_556 S
H103 C120 0.940 . S
H104 C121 0.939 . S
H105 C123 0.941 . S
H106 C127 0.939 . S
O107 P96 1.490 . S
H108 C124 0.939 . S
H109 C126 0.940 . S
C110 P96 1.812 . S
C110 C111 1.389 . S
C110 C115 1.391 . S
C111 H97 0.941 . S
C111 C110 1.389 . S
C111 C112 1.397 . S
C112 H98 0.939 . S
C112 C111 1.397 . S
C112 C113 1.378 . S
C113 C112 1.378 . S
C113 C114 1.378 . S
C114 H99 0.940 . S
C114 C113 1.378 . S
C114 C115 1.396 . S
C115 H100 0.940 . S
C115 C110 1.391 . S
C115 C114 1.396 . S
C116 P96 1.803 . S
C116 C117 1.378 . S
C116 C121 1.400 . S
C117 H101 0.939 . S
C117 C116 1.378 . S
C117 C118 1.361 . S
C118 H102 0.942 1_554 S
C118 C117 1.361 . S
C118 C119 1.369 . S
C119 C118 1.369 . S
C119 C120 1.404 . S
C120 H103 0.940 . S
C120 C119 1.404 . S
C120 C121 1.389 . S
C121 H104 0.939 . S
C121 C116 1.400 . S
C121 C120 1.389 . S
C122 P96 1.819 . S
C122 C123 1.391 . S
C122 C127 1.391 1_554 S
C123 H105 0.941 . S
C123 C122 1.391 . S
C123 C124 1.396 1_554 S
C124 H108 0.939 . S
C124 C123 1.396 1_556 S
C124 C125 1.397 . S
C125 C124 1.397 . S
C125 C126 1.385 . S
C126 H109 0.940 . S
C126 C125 1.385 . S
C126 C127 1.388 . S
C127 H106 0.939 . S
C127 C122 1.391 1_556 S
C127 C126 1.388 . S
P128 O139 1.490 . S
P128 C142 1.812 1_554 S
P128 C148 1.803 . S
P128 C154 1.819 . S
H129 C143 0.941 . S
H130 C144 0.939 . S
H131 C146 0.940 . S
H132 C147 0.940 . S
H133 C149 0.939 . S
H134 C150 0.942 . S
H135 C152 0.940 . S
H136 C153 0.939 1_556 S
H137 C155 0.941 . S
H138 C159 0.939 . S
O139 P128 1.490 . S
H140 C156 0.939 . S
H141 C158 0.940 . S
C142 P128 1.812 1_556 S
C142 C143 1.389 . S
C142 C147 1.391 . S
C143 H129 0.941 . S
C143 C142 1.389 . S
C143 C144 1.397 . S
C144 H130 0.939 . S
C144 C143 1.397 . S
C144 C145 1.378 . S
C145 C144 1.378 . S
C145 C146 1.378 . S
C146 H131 0.940 . S
C146 C145 1.378 . S
C146 C147 1.396 . S
C147 H132 0.940 . S
C147 C142 1.391 . S
C147 C146 1.396 . S
C148 P128 1.803 . S
C148 C149 1.378 . S
C148 C153 1.400 . S
C149 H133 0.939 . S
C149 C148 1.378 . S
C149 C150 1.361 . S
C150 H134 0.942 . S
C150 C149 1.361 . S
C150 C151 1.369 . S
C151 C150 1.369 . S
C151 C152 1.404 . S
C152 H135 0.940 . S
C152 C151 1.404 . S
C152 C153 1.389 . S
C153 H136 0.939 1_554 S
C153 C148 1.400 . S
C153 C152 1.389 . S
C154 P128 1.819 . S
C154 C155 1.391 . S
C154 C159 1.391 . S
C155 H137 0.941 . S
C155 C154 1.391 . S
C155 C156 1.396 . S
C156 H140 0.939 . S
C156 C155 1.396 . S
C156 C157 1.397 . S
C157 C156 1.397 . S
C157 C158 1.385 . S
C158 H141 0.940 . S
C158 C157 1.385 . S
C158 C159 1.388 . S
C159 H138 0.939 . S
C159 C154 1.391 . S
C159 C158 1.388 . S
P160 O171 1.490 . S
P160 C174 1.812 1_554 S
P160 C180 1.803 . S
P160 C186 1.819 . S
H161 C175 0.941 . S
H162 C176 0.939 . S
H163 C178 0.940 . S
H164 C179 0.947 . S
H165 C181 0.939 . S
H166 C182 0.942 . S
H167 C184 0.940 . S
H168 C185 0.939 1_556 S
H169 C187 0.941 . S
H170 C191 0.939 1_655 S
O171 P160 1.490 . S
H172 C188 0.939 . S
H173 C190 0.940 . S
C174 P160 1.812 1_556 S
C174 C175 1.389 . S
C174 C179 1.380 1_455 S
C175 H161 0.941 . S
C175 C174 1.389 . S
C175 C176 1.397 . S
C176 H162 0.939 . S
C176 C175 1.397 . S
C176 C177 1.378 . S
C177 C176 1.378 . S
C177 C178 1.378 1_455 S
C178 H163 0.940 . S
C178 C177 1.378 1_655 S
C178 C179 1.401 . S
C179 H164 0.947 . S
C179 C174 1.380 1_655 S
C179 C178 1.401 . S
C180 P160 1.803 . S
C180 C181 1.378 . S
C180 C185 1.400 1_455 S
C181 H165 0.939 . S
C181 C180 1.378 . S
C181 C182 1.361 . S
C182 H166 0.942 . S
C182 C181 1.361 . S
C182 C183 1.369 . S
C183 C182 1.369 . S
C183 C184 1.404 1_455 S
C184 H167 0.940 . S
C184 C183 1.404 1_655 S
C184 C185 1.389 . S
C185 H168 0.939 1_554 S
C185 C180 1.400 1_655 S
C185 C184 1.389 . S
C186 P160 1.819 . S
C186 C187 1.391 . S
C186 C191 1.391 . S
C187 H169 0.941 . S
C187 C186 1.391 . S
C187 C188 1.396 . S
C188 H172 0.939 . S
C188 C187 1.396 . S
C188 C189 1.397 . S
C189 C188 1.397 . S
C189 C190 1.385 1_455 S
C190 H173 0.940 . S
C190 C189 1.385 1_655 S
C190 C191 1.388 1_655 S
C191 H170 0.939 1_455 S
C191 C186 1.391 . S
C191 C190 1.388 1_455 S
P192 O203 1.490 . S
P192 C206 1.812 1_554 S
P192 C212 1.803 . S
P192 C218 1.819 . S
H193 C207 0.941 . S
H194 C208 0.939 . S
H195 C210 0.940 1_565 S
H196 C211 0.940 . S
H197 C213 0.939 . S
H198 C214 0.942 . S
H199 C216 0.940 1_565 S
H200 C217 0.939 . S
H201 C219 0.941 . S
H202 C223 0.939 . S
O203 P192 1.490 . S
H204 C220 0.939 . S
H205 C222 0.940 . S
C206 P192 1.812 1_556 S
C206 C207 1.389 . S
C206 C211 1.391 . S
C207 H193 0.941 . S
C207 C206 1.389 . S
C207 C208 1.397 . S
C208 H194 0.939 . S
C208 C207 1.397 . S
C208 C209 1.378 . S
C209 C208 1.378 . S
C209 C210 1.378 . S
C210 H195 0.940 1_545 S
C210 C209 1.378 . S
C210 C211 1.396 . S
C211 H196 0.940 . S
C211 C206 1.391 . S
C211 C210 1.396 . S
C212 P192 1.803 . S
C212 C213 1.378 . S
C212 C217 1.400 . S
C213 H197 0.939 . S
C213 C212 1.378 . S
C213 C214 1.361 . S
C214 H198 0.942 . S
C214 C213 1.361 . S
C214 C215 1.369 . S
C215 C214 1.369 . S
C215 C216 1.404 . S
C216 H199 0.940 1_545 S
C216 C215 1.404 . S
C216 C217 1.389 . S
C217 H200 0.939 . S
C217 C212 1.400 . S
C217 C216 1.389 . S
C218 P192 1.819 . S
C218 C219 1.391 . S
C218 C223 1.391 . S
C219 H201 0.941 . S
C219 C218 1.391 . S
C219 C220 1.396 . S
C220 H204 0.939 . S
C220 C219 1.396 . S
C220 C221 1.397 . S
C221 C220 1.397 . S
C221 C222 1.385 . S
C222 H205 0.940 . S
C222 C221 1.385 . S
C222 C223 1.388 . S
C223 H202 0.939 . S
C223 C218 1.391 . S
C223 C222 1.388 . S
P224 O235 1.489 . S
P224 C238 1.806 1_554 S
P224 C244 1.805 . S
P224 C250 1.823 . S
H225 C239 0.941 . S
H226 C240 0.939 . S
H227 C242 0.940 . S
H228 C243 0.940 . S
H229 C245 0.939 . S
H230 C246 0.942 . S
H231 C248 0.940 1_556 S
H232 C249 0.939 . S
H233 C251 0.941 . S
H234 C255 0.939 . S
O235 P224 1.489 . S
H236 C252 0.939 . S
H237 C254 0.940 . S
C238 P224 1.806 1_556 S
C238 C239 1.389 . S
C238 C243 1.391 . S
C239 H225 0.941 . S
C239 C238 1.389 . S
C239 C240 1.397 . S
C240 H226 0.939 . S
C240 C239 1.397 . S
C240 C241 1.378 . S
C241 C240 1.378 . S
C241 C242 1.378 . S
C242 H227 0.940 . S
C242 C241 1.378 . S
C242 C243 1.396 . S
C243 H228 0.940 . S
C243 C238 1.391 . S
C243 C242 1.396 . S
C244 P224 1.805 . S
C244 C245 1.378 . S
C244 C249 1.400 1_554 S
C245 H229 0.939 . S
C245 C244 1.378 . S
C245 C246 1.361 . S
C246 H230 0.942 . S
C246 C245 1.361 . S
C246 C247 1.369 . S
C247 C246 1.369 . S
C247 C248 1.404 . S
C248 H231 0.940 1_554 S
C248 C247 1.404 . S
C248 C249 1.389 1_554 S
C249 H232 0.939 . S
C249 C244 1.400 1_556 S
C249 C248 1.389 1_556 S
C250 P224 1.823 . S
C250 C251 1.391 . S
C250 C255 1.391 . S
C251 H233 0.941 . S
C251 C250 1.391 . S
C251 C252 1.396 . S
C252 H236 0.939 . S
C252 C251 1.396 . S
C252 C253 1.397 . S
C253 C252 1.397 . S
C253 C254 1.385 . S
C254 H237 0.940 . S
C254 C253 1.385 . S
C254 C255 1.388 . S
C255 H234 0.939 . S
C255 C250 1.391 . S
C255 C254 1.388 . S
Dy256 O260 2.398 . S
Dy256 O261 2.491 1_455 S
Dy256 O262 2.403 . S
Dy256 O263 2.664 1_565 S
Dy256 O267 2.326 . S
Dy256 O271 2.310 1_455 S
Dy256 O272 2.351 1_565 S
C257 O268 1.185 . S
C257 O269 1.355 1_655 S
C258 O260 1.185 . S
C258 O261 1.355 1_455 S
Dy259 O263 2.310 1_655 S
Dy259 O266 2.351 1_545 S
Dy259 O268 2.398 . S
Dy259 O269 2.491 1_655 S
Dy259 O270 2.403 . S
Dy259 O271 2.664 1_545 S
Dy259 O273 2.326 . S
O260 Dy256 2.398 . S
O260 C258 1.185 . S
O261 Dy256 2.491 1_655 S
O261 C258 1.355 1_655 S
O262 Dy256 2.403 . S
O262 C264 1.254 1_565 S
O263 Dy256 2.664 1_545 S
O263 Dy259 2.310 1_455 S
O263 C264 1.268 . S
C264 O262 1.254 1_545 S
C264 O263 1.268 . S
C265 O270 1.254 1_565 S
C265 O271 1.268 . S
O266 Dy259 2.351 1_565 S
O266 C274 1.249 . S
O267 Dy256 2.326 . S
O267 C274 1.267 1_455 S
O268 C257 1.185 . S
O268 Dy259 2.398 . S
O269 C257 1.355 1_455 S
O269 Dy259 2.491 1_455 S
O270 Dy259 2.403 . S
O270 C265 1.254 1_545 S
O271 Dy256 2.310 1_655 S
O271 Dy259 2.664 1_565 S
O271 C265 1.268 . S
O272 Dy256 2.351 1_545 S
O272 C275 1.249 . S
O273 Dy259 2.326 . S
O273 C275 1.267 1_655 S
C274 O266 1.249 . S
C274 O267 1.267 1_655 S
C275 O272 1.249 . S
C275 O273 1.267 1_455 S
Dy276 O280 2.398 . S
Dy276 O281 2.491 1_565 S
Dy276 O282 2.403 . S
Dy276 O283 2.664 . S
Dy276 O287 2.326 1_565 S
Dy276 O291 2.310 1_565 S
Dy276 O292 2.351 . S
C277 O288 1.185 . S
C277 O289 1.355 1_545 S
C278 O280 1.185 . S
C278 O281 1.355 1_565 S
Dy279 O283 2.310 1_545 S
Dy279 O286 2.351 . S
Dy279 O288 2.398 . S
Dy279 O289 2.491 1_545 S
Dy279 O290 2.403 . S
Dy279 O291 2.664 . S
Dy279 O293 2.326 1_545 S
O280 Dy276 2.398 . S
O280 C278 1.185 . S
O281 Dy276 2.491 1_545 S
O281 C278 1.355 1_545 S
O282 Dy276 2.403 . S
O282 C284 1.254 . S
O283 Dy276 2.664 . S
O283 Dy279 2.310 1_565 S
O283 C284 1.268 . S
C284 O282 1.254 . S
C284 O283 1.268 . S
C285 O290 1.254 . S
C285 O291 1.268 . S
O286 Dy279 2.351 . S
O286 C294 1.249 . S
O287 Dy276 2.326 1_545 S
O287 C294 1.267 . S
O288 C277 1.185 . S
O288 Dy279 2.398 . S
O289 C277 1.355 1_565 S
O289 Dy279 2.491 1_565 S
O290 Dy279 2.403 . S
O290 C285 1.254 . S
O291 Dy276 2.310 1_545 S
O291 Dy279 2.664 . S
O291 C285 1.268 . S
O292 Dy276 2.351 . S
O292 C295 1.249 . S
O293 Dy279 2.326 1_565 S
O293 C295 1.267 . S
C294 O286 1.249 . S
C294 O287 1.267 . S
C295 O292 1.249 . S
C295 O293 1.267 . S
Dy296 O300 2.398 . S
Dy296 O301 2.491 . S
Dy296 O302 2.403 . S
Dy296 O303 2.664 . S
Dy296 O307 2.326 . S
Dy296 O311 2.310 . S
Dy296 O312 2.351 . S
C297 O308 1.185 . S
C297 O309 1.355 . S
C298 O300 1.185 . S
C298 O301 1.355 . S
Dy299 O303 2.310 . S
Dy299 O306 2.351 . S
Dy299 O308 2.398 . S
Dy299 O309 2.491 . S
Dy299 O310 2.403 . S
Dy299 O311 2.664 . S
Dy299 O313 2.326 . S
O300 Dy296 2.398 . S
O300 C298 1.185 . S
O301 Dy296 2.491 . S
O301 C298 1.355 . S
O302 Dy296 2.403 . S
O302 C304 1.254 . S
O303 Dy296 2.664 . S
O303 Dy299 2.310 . S
O303 C304 1.268 . S
C304 O302 1.254 . S
C304 O303 1.268 . S
C305 O310 1.254 . S
C305 O311 1.268 . S
O306 Dy299 2.351 . S
O306 C314 1.249 . S
O307 Dy296 2.326 . S
O307 C314 1.267 . S
O308 C297 1.185 . S
O308 Dy299 2.398 . S
O309 C297 1.355 . S
O309 Dy299 2.491 . S
O310 Dy299 2.403 . S
O310 C305 1.254 . S
O311 Dy296 2.310 . S
O311 Dy299 2.664 . S
O311 C305 1.268 . S
O312 Dy296 2.351 . S
O312 C315 1.249 . S
O313 Dy299 2.326 . S
O313 C315 1.267 . S
C314 O306 1.249 . S
C314 O307 1.267 . S
C315 O312 1.249 . S
C315 O313 1.267 . S
Dy316 O320 2.398 . S
Dy316 O321 2.491 . S
Dy316 O322 2.403 . S
Dy316 O323 2.664 1_655 S
Dy316 O327 2.326 . S
Dy316 O331 2.310 . S
Dy316 O332 2.351 1_655 S
C317 O328 1.185 . S
C317 O329 1.355 . S
C318 O320 1.185 . S
C318 O321 1.355 . S
Dy319 O323 2.310 . S
Dy319 O326 2.351 1_455 S
Dy319 O328 2.398 . S
Dy319 O329 2.491 . S
Dy319 O330 2.403 . S
Dy319 O331 2.664 1_455 S
Dy319 O333 2.326 . S
O320 Dy316 2.398 . S
O320 C318 1.185 . S
O321 Dy316 2.491 . S
O321 C318 1.355 . S
O322 Dy316 2.403 . S
O322 C324 1.254 . S
O323 Dy316 2.664 1_455 S
O323 Dy319 2.310 . S
O323 C324 1.268 1_455 S
C324 O322 1.254 . S
C324 O323 1.268 1_655 S
C325 O330 1.254 . S
C325 O331 1.268 1_455 S
O326 Dy319 2.351 1_655 S
O326 C334 1.249 . S
O327 Dy316 2.326 . S
O327 C334 1.267 . S
O328 C317 1.185 . S
O328 Dy319 2.398 . S
O329 C317 1.355 . S
O329 Dy319 2.491 . S
O330 Dy319 2.403 . S
O330 C325 1.254 . S
O331 Dy316 2.310 . S
O331 Dy319 2.664 1_655 S
O331 C325 1.268 1_655 S
O332 Dy316 2.351 1_455 S
O332 C335 1.249 . S
O333 Dy319 2.326 . S
O333 C335 1.267 . S
C334 O326 1.249 . S
C334 O327 1.267 . S
C335 O332 1.249 . S
C335 O333 1.267 . S
C215 C264 3.252 . S
C294 C247 3.427 . S
C304 C151 3.440 . S
C324 C183 3.127 1_655 S
C265 C87 3.102 . S
C119 C295 3.253 1_554 S
C23 C305 3.441 1_554 S
C55 C325 3.094 1_554 S
C257 C189 1.543 1_655 S
C278 C221 2.294 1_565 S
C297 C253 2.141 . S
C157 C317 1.479 . S
C61 C258 1.123 . S
C277 C93 1.847 1_545 S
C298 C125 1.579 . S
C29 C318 1.033 . S
C177 C275 3.606 . S
C209 C285 3.798 . S
C315 C241 4.004 . S
C335 C145 3.838 . S
C49 C274 3.653 1_455 S
C284 C81 3.754 . S
C314 C113 3.954 . S
C17 C334 3.907 . S
