# Generated by pormake.
# Topology tsx, (6,3)-cn, num edge types: 1
# Building blocks:
#     Node 0, Type 0, BuildingBlock: FUNLAD_clean_sbu_0, # of connection points: 6
#     Node 1, Type 0, BuildingBlock: FUNLAD_clean_sbu_0, # of connection points: 6
#     Node 2, Type 1, BuildingBlock: ESEHIV_clean_linker_0, # of connection points: 3
#     Node 3, Type 1, BuildingBlock: ESEHIV_clean_linker_0, # of connection points: 3
#     Node 4, Type 1, BuildingBlock: ESEHIV_clean_linker_0, # of connection points: 3
#     Node 5, Type 1, BuildingBlock: ESEHIV_clean_linker_0, # of connection points: 3
#     Edge 6, Type (0, 1), BuildingBlock: KIFKEQ_clean_linker_1, # of connection points: 2
#     Edge 7, Type (0, 1), BuildingBlock: KIFKEQ_clean_linker_1, # of connection points: 2
#     Edge 8, Type (0, 1), BuildingBlock: KIFKEQ_clean_linker_1, # of connection points: 2
#     Edge 9, Type (0, 1), BuildingBlock: KIFKEQ_clean_linker_1, # of connection points: 2
#     Edge 10, Type (0, 1), BuildingBlock: KIFKEQ_clean_linker_1, # of connection points: 2
#     Edge 11, Type (0, 1), BuildingBlock: KIFKEQ_clean_linker_1, # of connection points: 2
#     Edge 12, Type (0, 1), BuildingBlock: KIFKEQ_clean_linker_1, # of connection points: 2
#     Edge 13, Type (0, 1), BuildingBlock: KIFKEQ_clean_linker_1, # of connection points: 2
#     Edge 14, Type (0, 1), BuildingBlock: KIFKEQ_clean_linker_1, # of connection points: 2
#     Edge 15, Type (0, 1), BuildingBlock: KIFKEQ_clean_linker_1, # of connection points: 2
#     Edge 16, Type (0, 1), BuildingBlock: KIFKEQ_clean_linker_1, # of connection points: 2
#     Edge 17, Type (0, 1), BuildingBlock: KIFKEQ_clean_linker_1, # of connection points: 2
# Relax obj value: 0.164
# Max RMSD: 0.154
# Mean RMSD: 0.080
data_MOF--net-tsx--node1-FUNLAD_clean_sbu_0--node2-ESEHIV_clean_linker_0--edge1-KIFKEQ_clean_linker_1
_symmetry_space_group_name_H-M    P1
_symmetry_Int_Tables_number       1
_symmetry_cell_setting            triclinic
loop_
_symmetry_equiv_pos_as_xyz
'x, y, z'
_cell_length_a     18.032605
_cell_length_b     19.99041
_cell_length_c     41.109819
_cell_angle_alpha  91.019139
_cell_angle_beta   91.990162
_cell_angle_gamma 89.97394
loop_
_atom_site_label
_atom_site_type_symbol
_atom_site_fract_x
_atom_site_fract_y
_atom_site_fract_z
_atom_type_partial_charge
C0 C 0.90285 0.91702 -0.00015 0.0
N1 N 0.03329 0.99443 0.07704 0.0
C2 C 0.96846 0.00083 0.09276 0.0
C3 C 0.96729 0.99514 0.12642 0.0
C4 C 0.03346 0.98268 0.14425 0.0
C5 C 0.09968 0.97583 0.12747 0.0
C6 C 0.09835 0.9821 0.09362 0.0
Zn7 Zn 0.02853 0.00203 0.02763 0.0
C8 C 0.1188 0.89857 -0.00567 0.0
N9 N 0.00785 0.01484 0.92452 0.0
C10 C 0.94044 0.01968 0.90883 0.0
C11 C 0.07183 0.01779 0.90801 0.0
C12 C 0.06959 0.02663 0.87441 0.0
C13 C 0.00084 0.03216 0.85759 0.0
C14 C 0.93563 0.0282 0.87518 0.0
Zn15 Zn 0.01437 0.00642 0.97389 0.0
O16 O 0.9363 0.93797 0.02571 0.0
C17 C 0.9239 0.10929 0.00609 0.0
O18 O 0.92552 0.93516 0.97242 0.0
H19 H 0.12482 0.01366 0.92096 0.0
H20 H 0.91723 0.01005 0.07913 0.0
H21 H 0.8903 0.01763 0.92247 0.0
O22 O 0.95646 0.08692 0.03155 0.0
O23 O 0.93697 0.08349 0.9785 0.0
H24 H 0.14922 0.97712 0.0806 0.0
O25 O 0.10302 0.07938 0.97662 0.0
O26 O 0.11902 0.06631 0.02928 0.0
O27 O 0.09106 0.92803 0.96964 0.0
O28 O 0.10156 0.91818 0.02271 0.0
C29 C 0.1376 0.09426 0.00332 0.0
H30 H 0.91483 -0.00032 0.13833 0.0
H31 H 0.15196 0.96668 0.14039 0.0
H32 H 0.12114 0.02844 0.86169 0.0
H33 H 0.88152 0.03278 0.86315 0.0
C34 C 0.41353 0.39194 0.49113 0.0
N35 N 0.52087 0.47419 0.5731 0.0
C36 C 0.45576 0.46766 0.58847 0.0
C37 C 0.45552 0.46306 0.62225 0.0
C38 C 0.52294 0.4653 0.64038 0.0
C39 C 0.58942 0.47071 0.62382 0.0
C40 C 0.58709 0.47513 0.58998 0.0
Zn41 Zn 0.51855 0.48534 0.52407 0.0
C42 C 0.62582 0.39678 0.49129 0.0
N43 N 0.51297 0.51174 0.4218 0.0
C44 C 0.44602 0.5134 0.40557 0.0
C45 C 0.57739 0.51829 0.4059 0.0
C46 C 0.57598 0.52713 0.3723 0.0
C47 C 0.50761 0.52876 0.35484 0.0
C48 C 0.44204 0.52161 0.37195 0.0
Zn49 Zn 0.51598 0.49999 0.47086 0.0
O50 O 0.4438 0.40673 0.51858 0.0
C51 C 0.40722 0.5877 0.50253 0.0
O52 O 0.43 0.42487 0.46618 0.0
H53 H 0.63 0.51687 0.41932 0.0
H54 H 0.40379 0.46678 0.57452 0.0
H55 H 0.39549 0.5082 0.41871 0.0
O56 O 0.42862 0.55569 0.52761 0.0
O57 O 0.4364 0.57529 0.47546 0.0
H58 H 0.63814 0.48045 0.57722 0.0
O59 O 0.60125 0.57415 0.47651 0.0
O60 O 0.59493 0.56414 0.52935 0.0
O61 O 0.59596 0.42467 0.46661 0.0
O62 O 0.6064 0.41457 0.51961 0.0
C63 C 0.62239 0.59241 0.50513 0.0
H64 H 0.40309 0.45803 0.63405 0.0
H65 H 0.64253 0.4734 0.6369 0.0
H66 H 0.62788 0.53332 0.36022 0.0
H67 H 0.38815 0.52143 0.35949 0.0
H68 H 0.90595 0.02756 0.38564 0.0
H69 H 0.05769 0.86262 0.39553 0.0
H70 H 0.95528 0.94637 0.47985 0.0
C71 C 0.93436 0.99096 0.40072 0.0
C72 C 0.92454 0.99212 0.43442 0.0
C73 C 0.98231 0.94459 0.38643 0.0
C74 C 0.01897 0.89756 0.40615 0.0
C75 C 0.00996 0.8985 0.43994 0.0
C76 C 0.96266 0.94576 0.45394 0.0
H77 H 0.92203 0.95957 0.61348 0.0
H78 H 0.07673 0.12137 0.60476 0.0
H79 H 0.01673 -0.00165 0.52122 0.0
C80 C 0.95763 0.98946 0.59873 0.0
C81 C 0.96276 0.97391 0.56549 0.0
C82 C -0.00032 0.04157 0.61328 0.0
C83 C 0.04521 0.08001 0.59389 0.0
C84 C 0.05067 0.06502 0.56054 0.0
C85 C 0.01141 0.01042 0.54672 0.0
H86 H 0.44766 0.56667 0.88506 0.0
H87 H 0.63129 0.42974 0.89378 0.0
H88 H 0.54462 0.52259 0.97913 0.0
C89 C 0.48844 0.54017 0.89995 0.0
C90 C 0.48998 0.54985 0.9338 0.0
C91 C 0.53997 0.49773 0.88522 0.0
C92 C 0.59299 0.46449 0.90482 0.0
C93 C 0.59409 0.47287 0.93878 0.0
C94 C 0.54321 0.51631 0.95307 0.0
H95 H 0.41713 0.46035 0.10725 0.0
H96 H 0.53625 0.6464 0.10535 0.0
H97 H 0.46526 0.54781 0.01584 0.0
C98 C 0.44042 0.50087 0.09368 0.0
C99 C 0.43792 0.49762 0.05955 0.0
C100 C 0.47457 0.55499 0.11038 0.0
C101 C 0.50752 0.60554 0.0926 0.0
C102 C 0.50576 0.6026 0.05847 0.0
C103 C 0.46867 0.54961 0.04204 0.0
H104 H 0.17187 0.18583 0.95694 0.0
H105 H 0.23218 0.12317 0.05438 0.0
H106 H 0.25638 0.28152 0.96379 0.0
H107 H 0.31429 0.21831 0.06141 0.0
H108 H 0.32135 0.48919 0.01532 0.0
H109 H 0.25881 0.38663 -0.00447 0.0
H110 H 0.42692 0.26846 0.04534 0.0
H111 H 0.48683 0.37072 0.06601 0.0
C112 C 0.20391 0.19188 0.97958 0.0
C113 C 0.19506 0.14714 0.00518 0.0
C114 C 0.25184 0.24688 0.98358 0.0
C115 C 0.29215 0.25767 0.01314 0.0
C116 C 0.28525 0.21117 0.03811 0.0
C117 C 0.2375 0.1567 0.03417 0.0
C118 C 0.34514 0.44108 0.0215 0.0
C119 C 0.40749 0.43729 0.04275 0.0
C120 C 0.3098 0.3824 0.01005 0.0
C121 C 0.33701 0.31928 0.01944 0.0
C122 C 0.40331 0.31617 0.03841 0.0
C123 C 0.43777 0.37456 0.05017 0.0
H124 H 0.22162 0.84701 0.038 0.0
H125 H 0.13286 0.82297 0.93949 0.0
H126 H 0.31109 0.75683 0.02786 0.0
H127 H 0.22088 0.73331 0.92966 0.0
H128 H 0.34046 0.53615 0.9303 0.0
H129 H 0.24766 0.61564 0.94951 0.0
H130 H 0.4226 0.74349 0.98921 0.0
H131 H 0.51529 0.66417 0.96931 0.0
C132 C 0.22072 0.82208 0.01438 0.0
C133 C 0.17043 0.8421 0.98951 0.0
C134 C 0.27195 0.77081 0.00857 0.0
C135 C 0.27248 0.73795 0.97805 0.0
C136 C 0.22109 0.75716 0.95354 0.0
C137 C 0.17103 0.80886 0.95912 0.0
C138 C 0.35875 0.58089 0.94351 0.0
C139 C 0.43464 0.5942 0.94864 0.0
C140 C 0.30591 0.62622 0.95449 0.0
C141 C 0.32806 0.68568 0.97079 0.0
C142 C 0.40405 0.6976 0.97712 0.0
C143 C 0.45698 0.65235 0.96587 0.0
H144 H 0.83801 0.83111 0.95397 0.0
H145 H 0.81736 0.9074 0.05226 0.0
H146 H 0.7306 0.75753 0.96128 0.0
H147 H 0.71126 0.83537 0.05928 0.0
H148 H 0.49191 0.73804 0.05896 0.0
H149 H 0.5797 0.81884 0.03809 0.0
H150 H 0.70911 0.6566 -0.00128 0.0
H151 H 0.62166 0.57609 0.01994 0.0
C152 C 0.8102 0.83262 0.97691 0.0
C153 C 0.83641 0.87451 0.00262 0.0
C154 C 0.749 0.79064 0.98108 0.0
C155 C 0.7123 0.79124 0.01075 0.0
C156 C 0.73757 0.83454 0.03598 0.0
C157 C 0.79898 0.87533 0.03203 0.0
C158 C 0.53822 0.72003 0.04517 0.0
C159 C 0.54994 0.65119 0.04073 0.0
C160 C 0.58835 0.76602 0.03326 0.0
C161 C 0.65136 0.74389 0.01694 0.0
C162 C 0.66058 0.67508 0.01083 0.0
C163 C 0.61052 0.62905 0.02287 0.0
H164 H 0.94809 0.23381 0.03222 0.0
H165 H 0.78307 0.10989 0.98229 0.0
H166 H 0.86716 0.33209 0.02483 0.0
H167 H 0.70136 0.20686 0.97611 0.0
H168 H 0.55577 0.39003 0.98711 0.0
H169 H 0.63456 0.3055 0.01358 0.0
H170 H 0.82322 0.37795 0.96287 0.0
H171 H 0.74413 0.46126 0.93572 0.0
C172 C 0.8935 0.22742 0.02073 0.0
C173 C 0.87119 0.16489 0.00782 0.0
C174 C 0.84757 0.28332 0.01646 0.0
C175 C 0.77817 0.27653 0.00013 0.0
C176 C 0.75424 0.21301 0.98916 0.0
C177 C 0.80086 0.15779 0.99257 0.0
C178 C 0.61449 0.3889 0.98233 0.0
C179 C 0.64412 0.43144 0.95924 0.0
C180 C 0.65933 0.34074 -0.00256 0.0
C181 C 0.73467 0.3357 0.99024 0.0
C182 C 0.7654 0.38157 0.96903 0.0
C183 C 0.72026 0.42872 0.95338 0.0
H184 H 0.65428 0.65781 0.56225 0.0
H185 H 0.71207 0.65169 0.46103 0.0
H186 H 0.73836 0.75133 0.57226 0.0
H187 H 0.79787 0.74596 0.47148 0.0
H188 H 0.00294 0.86324 0.52991 0.0
H189 H 0.92172 0.77068 0.51069 0.0
H190 H 0.73344 0.87357 0.55011 0.0
H191 H 0.81377 0.9659 0.56848 0.0
C192 C 0.68525 0.67615 0.54213 0.0
C193 C 0.67616 0.64755 0.51078 0.0
C194 C 0.73318 0.72991 0.54789 0.0
C195 C 0.7739 0.75599 0.52257 0.0
C196 C 0.76685 0.72654 0.49135 0.0
C197 C 0.7177 0.67298 0.4854 0.0
C198 C 0.94393 0.86638 0.53369 0.0
C199 C 0.91438 0.92119 0.55073 0.0
C200 C 0.89766 0.81371 0.52276 0.0
C201 C 0.82167 0.81501 0.52928 0.0
C202 C 0.79201 0.87118 0.54513 0.0
C203 C 0.83786 0.92378 0.55568 0.0
H204 H 0.67453 0.34777 0.43381 0.0
H205 H 0.69256 0.3169 0.53765 0.0
H206 H 0.74577 0.24667 0.42446 0.0
H207 H 0.76483 0.21477 0.52799 0.0
H208 H 0.96076 0.07818 0.48491 0.0
H209 H 0.8902 0.17622 0.50275 0.0
H210 H 0.71429 0.12432 0.43288 0.0
H211 H 0.78405 0.02614 0.41557 0.0
C212 C 0.69423 0.31977 0.45471 0.0
C213 C 0.67719 0.34008 0.48648 0.0
C214 C 0.73466 0.26157 0.44929 0.0
C215 C 0.75945 0.22236 0.47547 0.0
C216 C 0.74592 0.2441 0.5074 0.0
C217 C 0.70471 0.30245 0.51288 0.0
C218 C 0.90596 0.08663 0.47423 0.0
C219 C 0.87773 0.0448 0.44887 0.0
C220 C 0.86589 0.14288 0.48425 0.0
C221 C 0.79747 0.15825 0.46878 0.0
C222 C 0.76759 0.1142 0.44476 0.0
C223 C 0.8073 0.05805 0.43492 0.0
H224 H 0.27544 0.38776 0.46137 0.0
H225 H 0.43319 0.27117 0.51768 0.0
H226 H 0.18027 0.30162 0.46889 0.0
H227 H 0.33972 0.18507 0.52451 0.0
H228 H 0.16577 0.02659 0.52324 0.0
H229 H 0.25137 0.09985 0.49536 0.0
H230 H 0.12313 0.27196 0.52441 0.0
H231 H 0.03832 0.19883 0.55237 0.0
C232 C 0.29022 0.34272 0.47436 0.0
C233 C 0.36103 0.3358 0.48912 0.0
C234 C 0.236 0.29377 0.47876 0.0
C235 C 0.25282 0.2368 0.49726 0.0
C236 C 0.32544 0.22799 0.50984 0.0
C237 C 0.37875 0.27737 0.5061 0.0
C238 C 0.1553 0.07995 0.52298 0.0
C239 C 0.09651 0.10751 0.54022 0.0
C240 C 0.20401 0.12172 0.50708 0.0
C241 C 0.19373 0.19147 0.50776 0.0
C242 C 0.13187 0.21837 0.52319 0.0
C243 C 0.08397 0.17676 0.53949 0.0
H244 H 0.27552 0.58104 0.53339 0.0
H245 H 0.40646 0.70786 0.47385 0.0
H246 H 0.17042 0.65924 0.52735 0.0
H247 H 0.30333 0.78658 0.46888 0.0
H248 H 0.12108 0.93625 0.48211 0.0
H249 H 0.21584 0.86362 0.50721 0.0
H250 H 0.09901 0.68983 0.4684 0.0
H251 H 0.00532 0.76274 0.44268 0.0
C252 C 0.28237 0.62654 0.51988 0.0
C253 C 0.3486 0.63871 0.50399 0.0
C254 C 0.2225 0.67094 0.51638 0.0
C255 C 0.22928 0.72888 0.49784 0.0
C256 C 0.2971 0.74267 0.48362 0.0
C257 C 0.35585 0.69758 0.48632 0.0
C258 C 0.1148 0.88246 0.47984 0.0
C259 C 0.05662 0.85466 0.46052 0.0
C260 C 0.16874 0.84109 0.49412 0.0
C261 C 0.16441 0.77134 0.48969 0.0
C262 C 0.10298 0.74344 0.47244 0.0
C263 C 0.04982 0.78491 0.45762 0.0
H264 H 0.95944 0.06242 0.18658 0.0
H265 H 0.10523 0.89109 0.18298 0.0
H266 H 0.95171 0.05107 0.24513 0.0
H267 H 0.09939 0.88097 0.2421 0.0
H268 H 0.98915 0.84196 0.34149 0.0
H269 H 0.00769 0.8507 0.28298 0.0
H270 H 0.02958 0.06518 0.29421 0.0
H271 H 0.01075 0.05644 0.35229 0.0
C272 C 0.99002 0.02239 0.19835 0.0
C273 C 0.03265 0.97745 0.18016 0.0
C274 C 0.98624 0.01631 0.23196 0.0
C275 C 0.02511 0.96522 0.24826 0.0
C276 C 0.06839 0.92053 0.23016 0.0
C277 C 0.07235 0.92675 0.19641 0.0
C278 C -0.0014 0.89079 0.33139 0.0
C279 C 0.9973 0.94861 0.3513 0.0
C280 C 0.00941 0.89581 0.29798 0.0
C281 C 0.01931 0.95872 0.28396 0.0
C282 C 0.02048 0.01616 0.30415 0.0
C283 C 0.00958 0.01116 0.3374 0.0
H284 H 0.90887 0.96945 0.8126 0.0
H285 H 0.08507 0.11551 0.82193 0.0
H286 H 0.90652 0.98078 0.75371 0.0
H287 H 0.08215 0.12771 0.76293 0.0
H288 H 0.11715 0.05942 0.65607 0.0
H289 H 0.1151 0.06402 0.71535 0.0
H290 H 0.87544 0.05519 0.71011 0.0
H291 H 0.87789 0.04931 0.65082 0.0
C292 C 0.94634 0.00474 0.80207 0.0
C293 C 0.99734 0.04137 0.82186 0.0
C294 C 0.94489 0.01145 0.76831 0.0
C295 C 0.99412 0.05525 0.75356 0.0
C296 C 0.04423 0.09282 0.77345 0.0
C297 C 0.04591 0.08585 0.80723 0.0
C298 C 0.06406 0.05974 0.66763 0.0
C299 C 0.99773 0.05346 0.64891 0.0
C300 C 0.0628 0.06241 0.70159 0.0
C301 C 0.9951 0.05926 0.71751 0.0
C302 C 0.92859 0.05622 0.69864 0.0
C303 C 0.92992 0.05313 0.66472 0.0
H304 H 0.618 0.39782 0.68155 0.0
H305 H 0.43007 0.53208 0.68062 0.0
H306 H 0.62167 0.40077 0.741 0.0
H307 H 0.43372 0.53497 0.73984 0.0
H308 H 0.41763 0.47695 0.8454 0.0
H309 H 0.41256 0.46392 0.78629 0.0
H310 H 0.65128 0.48168 0.78521 0.0
H311 H 0.65632 0.49449 0.8444 0.0
C312 C 0.57763 0.42804 0.69404 0.0
C313 C 0.52371 0.46467 0.67642 0.0
C314 C 0.57974 0.42973 0.72804 0.0
C315 C 0.52795 0.46806 0.74507 0.0
C316 C 0.47359 0.50407 0.72742 0.0
C317 C 0.47149 0.50239 0.69349 0.0
C318 C 0.46896 0.47835 0.83249 0.0
C319 C 0.53733 0.48728 0.84945 0.0
C320 C 0.46607 0.47082 0.79868 0.0
C321 C 0.53148 0.47212 0.78111 0.0
C322 C 0.60001 0.47966 0.79812 0.0
C323 C 0.6029 0.48712 0.83198 0.0
H324 H 0.40719 0.60109 0.31829 0.0
H325 H 0.60096 0.47515 0.31012 0.0
H326 H 0.39931 0.61079 0.25922 0.0
H327 H 0.59393 0.48656 0.25117 0.0
H328 H 0.59715 0.57854 0.1496 0.0
H329 H 0.6062 0.57648 0.20906 0.0
H330 H 0.37228 0.53131 0.21156 0.0
H331 H 0.36312 0.53399 0.1521 0.0
C332 C 0.44795 0.5753 0.30395 0.0
C333 C 0.50453 0.53706 0.31899 0.0
C334 C 0.44352 0.58111 0.27015 0.0
C335 C 0.49598 0.54941 0.2507 0.0
C336 C 0.5533 0.5122 0.26566 0.0
C337 C 0.55737 0.50585 0.29943 0.0
C338 C 0.54758 0.56896 0.16292 0.0
C339 C 0.47941 0.55649 0.14636 0.0
C340 C 0.55289 0.56722 0.19686 0.0
C341 C 0.48996 0.55365 0.21483 0.0
C342 C 0.42151 0.54241 0.19828 0.0
C343 C 0.41637 0.54345 0.16433 0.0
loop_
_geom_bond_atom_site_label_1
_geom_bond_atom_site_label_2
_geom_bond_distance
_geom_bond_site_symmetry_2
_ccdc_geom_bond_type
C0 O16 1.251 . S
C0 O18 1.254 1_554 S
N1 C2 1.333 1_445 S
N1 C6 1.307 . S
N1 Zn7 2.020 . S
C2 N1 1.333 1_665 S
C2 C3 1.379 . S
C2 H20 0.952 . S
C3 C2 1.379 . S
C3 C4 1.390 1_665 S
C3 H30 0.949 . S
C4 C3 1.390 1_445 S
C4 C5 1.357 . S
C5 C4 1.357 . S
C5 C6 1.370 . S
C5 H31 0.950 . S
C6 N1 1.307 . S
C6 C5 1.370 . S
C6 H24 0.948 . S
Zn7 N1 2.020 . S
Zn7 O16 2.039 1_445 S
Zn7 O22 2.034 1_455 S
Zn7 O26 2.025 . S
Zn7 O28 2.024 1_545 S
C8 O27 1.246 1_554 S
C8 O28 1.249 . S
N9 C10 1.307 1_445 S
N9 C11 1.333 . S
N9 Zn15 2.020 . S
C10 N9 1.307 1_665 S
C10 C14 1.370 . S
C10 H21 0.948 . S
C11 N9 1.333 . S
C11 C12 1.379 . S
C11 H19 0.952 . S
C12 C11 1.379 . S
C12 C13 1.390 . S
C12 H32 0.949 . S
C13 C12 1.390 . S
C13 C14 1.357 1_445 S
C14 C10 1.370 . S
C14 C13 1.357 1_665 S
C14 H33 0.950 . S
Zn15 N9 2.020 . S
Zn15 O18 2.025 1_445 S
Zn15 O23 2.024 1_455 S
Zn15 O25 2.039 . S
Zn15 O27 2.034 1_545 S
O16 C0 1.251 . S
O16 Zn7 2.039 1_665 S
C17 O22 1.246 . S
C17 O23 1.249 1_554 S
O18 C0 1.254 1_556 S
O18 Zn15 2.025 1_665 S
H19 C11 0.952 . S
H20 C2 0.952 . S
H21 C10 0.948 . S
O22 Zn7 2.034 1_655 S
O22 C17 1.246 . S
O23 Zn15 2.024 1_655 S
O23 C17 1.249 1_556 S
H24 C6 0.948 . S
O25 Zn15 2.039 . S
O25 C29 1.251 1_556 S
O26 Zn7 2.025 . S
O26 C29 1.254 . S
O27 C8 1.246 1_556 S
O27 Zn15 2.034 1_565 S
O28 Zn7 2.024 1_565 S
O28 C8 1.249 . S
C29 O25 1.251 1_554 S
C29 O26 1.254 . S
H30 C3 0.949 . S
H31 C5 0.950 . S
H32 C12 0.949 . S
H33 C14 0.950 . S
C34 O50 1.251 . S
C34 O52 1.254 . S
N35 C36 1.333 . S
N35 C40 1.307 . S
N35 Zn41 2.020 . S
C36 N35 1.333 . S
C36 C37 1.379 . S
C36 H54 0.952 . S
C37 C36 1.379 . S
C37 C38 1.390 . S
C37 H64 0.949 . S
C38 C37 1.390 . S
C38 C39 1.357 . S
C39 C38 1.357 . S
C39 C40 1.370 . S
C39 H65 0.950 . S
C40 N35 1.307 . S
C40 C39 1.370 . S
C40 H58 0.948 . S
Zn41 N35 2.020 . S
Zn41 O50 2.039 . S
Zn41 O56 2.034 . S
Zn41 O60 2.025 . S
Zn41 O62 2.024 . S
C42 O61 1.246 . S
C42 O62 1.249 . S
N43 C44 1.307 . S
N43 C45 1.333 . S
N43 Zn49 2.020 . S
C44 N43 1.307 . S
C44 C48 1.370 . S
C44 H55 0.948 . S
C45 N43 1.333 . S
C45 C46 1.379 . S
C45 H53 0.952 . S
C46 C45 1.379 . S
C46 C47 1.390 . S
C46 H66 0.949 . S
C47 C46 1.390 . S
C47 C48 1.357 . S
C48 C44 1.370 . S
C48 C47 1.357 . S
C48 H67 0.950 . S
Zn49 N43 2.020 . S
Zn49 O52 2.025 . S
Zn49 O57 2.024 . S
Zn49 O59 2.039 . S
Zn49 O61 2.034 . S
O50 C34 1.251 . S
O50 Zn41 2.039 . S
C51 O56 1.246 . S
C51 O57 1.249 . S
O52 C34 1.254 . S
O52 Zn49 2.025 . S
H53 C45 0.952 . S
H54 C36 0.952 . S
H55 C44 0.948 . S
O56 Zn41 2.034 . S
O56 C51 1.246 . S
O57 Zn49 2.024 . S
O57 C51 1.249 . S
H58 C40 0.948 . S
O59 Zn49 2.039 . S
O59 C63 1.251 . S
O60 Zn41 2.025 . S
O60 C63 1.254 . S
O61 C42 1.246 . S
O61 Zn49 2.034 . S
O62 Zn41 2.024 . S
O62 C42 1.249 . S
C63 O59 1.251 . S
C63 O60 1.254 . S
H64 C37 0.949 . S
H65 C39 0.950 . S
H66 C46 0.949 . S
H67 C48 0.950 . S
H68 C71 0.931 . S
H69 C74 0.928 . S
H70 C76 0.930 . S
C71 H68 0.931 . S
C71 C72 1.413 . S
C71 C73 1.358 1_545 S
C72 C71 1.413 . S
C72 C76 1.429 1_645 S
C73 C71 1.358 1_565 S
C73 C74 1.374 1_655 S
C74 H69 0.928 . S
C74 C73 1.374 1_455 S
C74 C75 1.404 . S
C75 C74 1.404 . S
C75 C76 1.391 . S
C76 H70 0.930 . S
C76 C72 1.429 1_465 S
C76 C75 1.391 . S
H77 C80 0.931 . S
H78 C83 0.928 . S
H79 C85 0.930 . S
C80 H77 0.931 . S
C80 C81 1.413 . S
C80 C82 1.360 1_665 S
C81 C80 1.413 . S
C81 C85 1.429 1_665 S
C82 C80 1.360 1_445 S
C82 C83 1.372 . S
C83 H78 0.928 . S
C83 C82 1.372 . S
C83 C84 1.404 . S
C84 C83 1.404 . S
C84 C85 1.391 . S
C85 H79 0.930 . S
C85 C81 1.429 1_445 S
C85 C84 1.391 . S
H86 C89 0.931 . S
H87 C92 0.928 . S
H88 C94 0.914 1_554 S
C89 H86 0.931 . S
C89 C90 1.413 . S
C89 C91 1.360 . S
C90 C89 1.413 . S
C90 C94 1.429 . S
C91 C89 1.360 . S
C91 C92 1.372 . S
C92 H87 0.928 . S
C92 C91 1.372 . S
C92 C93 1.404 . S
C93 C92 1.404 . S
C93 C94 1.391 . S
C94 H88 0.914 1_556 S
C94 C90 1.429 . S
C94 C93 1.391 . S
H95 C98 0.931 . S
H96 C101 0.928 . S
H97 C103 0.930 . S
C98 H95 0.931 . S
C98 C99 1.413 . S
C98 C100 1.360 . S
C99 C98 1.413 . S
C99 C103 1.429 . S
C100 C98 1.360 . S
C100 C101 1.372 . S
C101 H96 0.928 . S
C101 C100 1.372 . S
C101 C102 1.404 . S
C102 C101 1.404 . S
C102 C103 1.391 . S
C103 H97 0.930 . S
C103 C99 1.429 . S
C103 C102 1.391 . S
H104 C112 0.950 . S
H105 C117 0.950 . S
H106 C114 0.950 . S
H107 C116 0.950 . S
H108 C118 0.950 . S
H109 C120 0.950 . S
H110 C122 0.929 1_556 S
H111 C123 0.950 . S
C112 H104 0.950 . S
C112 C113 1.386 1_556 S
C112 C114 1.391 . S
C113 C112 1.386 1_554 S
C113 C117 1.393 . S
C114 H106 0.950 . S
C114 C112 1.391 . S
C114 C115 1.400 1_556 S
C115 C114 1.400 1_554 S
C115 C116 1.398 . S
C115 C121 1.491 . S
C116 H107 0.950 . S
C116 C115 1.398 . S
C116 C117 1.391 . S
C117 H105 0.950 . S
C117 C113 1.393 . S
C117 C116 1.391 . S
C118 H108 0.950 . S
C118 C119 1.386 . S
C118 C120 1.391 . S
C119 C118 1.386 . S
C119 C123 1.393 . S
C120 H109 0.950 . S
C120 C118 1.391 . S
C120 C121 1.400 . S
C121 C115 1.491 . S
C121 C120 1.400 . S
C121 C122 1.398 . S
C122 H110 0.929 1_554 S
C122 C121 1.398 . S
C122 C123 1.391 . S
C123 H111 0.950 . S
C123 C119 1.393 . S
C123 C122 1.391 . S
H124 C132 0.950 . S
H125 C137 0.950 . S
H126 C134 0.950 . S
H127 C136 0.950 . S
H128 C138 0.950 . S
H129 C140 0.950 . S
H130 C142 0.950 1_554 S
H131 C143 0.950 . S
C132 H124 0.950 . S
C132 C133 1.386 . S
C132 C134 1.391 . S
C133 C132 1.386 . S
C133 C137 1.393 1_554 S
C134 H126 0.950 . S
C134 C132 1.391 . S
C134 C135 1.400 1_554 S
C135 C134 1.400 1_556 S
C135 C136 1.398 . S
C135 C141 1.491 . S
C136 H127 0.950 . S
C136 C135 1.398 . S
C136 C137 1.391 . S
C137 H125 0.950 . S
C137 C133 1.393 1_556 S
C137 C136 1.391 . S
C138 H128 0.950 . S
C138 C139 1.386 . S
C138 C140 1.391 . S
C139 C138 1.386 . S
C139 C143 1.393 . S
C140 H129 0.950 . S
C140 C138 1.391 . S
C140 C141 1.400 . S
C141 C135 1.491 . S
C141 C140 1.400 . S
C141 C142 1.398 . S
C142 H130 0.950 1_556 S
C142 C141 1.398 . S
C142 C143 1.391 . S
C143 H131 0.950 . S
C143 C139 1.393 . S
C143 C142 1.391 . S
H144 C152 0.950 . S
H145 C157 0.950 . S
H146 C154 0.939 1_556 S
H147 C156 0.950 . S
H148 C158 0.950 . S
H149 C160 0.950 . S
H150 C162 0.950 1_556 S
H151 C163 0.950 . S
C152 H144 0.950 . S
C152 C153 1.386 1_556 S
C152 C154 1.386 1_556 S
C153 C152 1.386 1_554 S
C153 C157 1.393 . S
C154 H146 0.939 1_554 S
C154 C152 1.386 1_554 S
C154 C155 1.416 . S
C155 C154 1.416 . S
C155 C156 1.398 . S
C155 C161 1.491 . S
C156 H147 0.950 . S
C156 C155 1.398 . S
C156 C157 1.391 . S
C157 H145 0.950 . S
C157 C153 1.393 . S
C157 C156 1.391 . S
C158 H148 0.950 . S
C158 C159 1.386 . S
C158 C160 1.391 . S
C159 C158 1.386 . S
C159 C163 1.393 . S
C160 H149 0.950 . S
C160 C158 1.391 . S
C160 C161 1.400 . S
C161 C155 1.491 . S
C161 C160 1.400 . S
C161 C162 1.398 . S
C162 H150 0.950 1_554 S
C162 C161 1.398 . S
C162 C163 1.391 . S
C163 H151 0.950 . S
C163 C159 1.393 . S
C163 C162 1.391 . S
H164 C172 0.950 . S
H165 C177 0.950 . S
H166 C174 0.950 . S
H167 C176 0.950 . S
H168 C178 0.950 1_554 S
H169 C180 0.950 . S
H170 C182 0.950 . S
H171 C183 0.950 . S
C172 H164 0.950 . S
C172 C173 1.386 1_556 S
C172 C174 1.391 . S
C173 C172 1.386 1_554 S
C173 C177 1.393 . S
C174 H166 0.950 . S
C174 C172 1.391 . S
C174 C175 1.400 . S
C175 C174 1.400 . S
C175 C176 1.398 1_556 S
C175 C181 1.491 . S
C176 H167 0.950 . S
C176 C175 1.398 1_554 S
C176 C177 1.391 . S
C177 H165 0.950 . S
C177 C173 1.393 . S
C177 C176 1.391 . S
C178 H168 0.950 1_556 S
C178 C179 1.386 . S
C178 C180 1.391 1_556 S
C179 C178 1.386 . S
C179 C183 1.393 . S
C180 H169 0.950 . S
C180 C178 1.391 1_554 S
C180 C181 1.400 1_554 S
C181 C175 1.491 . S
C181 C180 1.400 1_556 S
C181 C182 1.398 . S
C182 H170 0.950 . S
C182 C181 1.398 . S
C182 C183 1.391 . S
C183 H171 0.950 . S
C183 C179 1.393 . S
C183 C182 1.391 . S
H184 C192 0.950 . S
H185 C197 0.950 . S
H186 C194 0.950 . S
H187 C196 0.950 . S
H188 C198 0.949 . S
H189 C200 0.950 . S
H190 C202 0.950 . S
H191 C203 0.950 . S
C192 H184 0.950 . S
C192 C193 1.386 . S
C192 C194 1.391 . S
C193 C192 1.386 . S
C193 C197 1.393 . S
C194 H186 0.950 . S
C194 C192 1.391 . S
C194 C195 1.400 . S
C195 C194 1.400 . S
C195 C196 1.398 . S
C195 C201 1.491 . S
C196 H187 0.950 . S
C196 C195 1.398 . S
C196 C197 1.391 . S
C197 H185 0.950 . S
C197 C193 1.393 . S
C197 C196 1.391 . S
C198 H188 0.949 . S
C198 C199 1.386 . S
C198 C200 1.391 . S
C199 C198 1.386 . S
C199 C203 1.393 . S
C200 H189 0.950 . S
C200 C198 1.391 . S
C200 C201 1.400 . S
C201 C195 1.491 . S
C201 C200 1.400 . S
C201 C202 1.398 . S
C202 H190 0.950 . S
C202 C201 1.398 . S
C202 C203 1.391 . S
C203 H191 0.950 . S
C203 C199 1.393 . S
C203 C202 1.391 . S
H204 C212 0.950 . S
H205 C217 0.950 . S
H206 C214 0.950 . S
H207 C216 0.950 . S
H208 C218 0.950 . S
H209 C220 0.950 . S
H210 C222 0.950 . S
H211 C223 0.950 . S
C212 H204 0.950 . S
C212 C213 1.386 . S
C212 C214 1.391 . S
C213 C212 1.386 . S
C213 C217 1.393 . S
C214 H206 0.950 . S
C214 C212 1.391 . S
C214 C215 1.400 . S
C215 C214 1.400 . S
C215 C216 1.398 . S
C215 C221 1.491 . S
C216 H207 0.950 . S
C216 C215 1.398 . S
C216 C217 1.391 . S
C217 H205 0.950 . S
C217 C213 1.393 . S
C217 C216 1.391 . S
C218 H208 0.950 . S
C218 C219 1.386 . S
C218 C220 1.391 . S
C219 C218 1.386 . S
C219 C223 1.393 . S
C220 H209 0.950 . S
C220 C218 1.391 . S
C220 C221 1.400 . S
C221 C215 1.491 . S
C221 C220 1.400 . S
C221 C222 1.398 . S
C222 H210 0.950 . S
C222 C221 1.398 . S
C222 C223 1.391 . S
C223 H211 0.950 . S
C223 C219 1.393 . S
C223 C222 1.391 . S
H224 C232 0.950 . S
H225 C237 0.950 . S
H226 C234 0.950 . S
H227 C236 0.950 . S
H228 C238 0.950 . S
H229 C240 0.950 . S
H230 C242 0.950 . S
H231 C243 0.950 . S
C232 H224 0.950 . S
C232 C233 1.386 . S
C232 C234 1.391 . S
C233 C232 1.386 . S
C233 C237 1.393 . S
C234 H226 0.950 . S
C234 C232 1.391 . S
C234 C235 1.400 . S
C235 C234 1.400 . S
C235 C236 1.398 . S
C235 C241 1.491 . S
C236 H227 0.950 . S
C236 C235 1.398 . S
C236 C237 1.391 . S
C237 H225 0.950 . S
C237 C233 1.393 . S
C237 C236 1.391 . S
C238 H228 0.950 . S
C238 C239 1.386 . S
C238 C240 1.391 . S
C239 C238 1.386 . S
C239 C243 1.393 . S
C240 H229 0.950 . S
C240 C238 1.391 . S
C240 C241 1.400 . S
C241 C235 1.491 . S
C241 C240 1.400 . S
C241 C242 1.398 . S
C242 H230 0.950 . S
C242 C241 1.398 . S
C242 C243 1.391 . S
C243 H231 0.950 . S
C243 C239 1.393 . S
C243 C242 1.391 . S
H244 C252 0.950 . S
H245 C257 0.950 . S
H246 C254 0.950 . S
H247 C256 0.950 . S
H248 C258 0.950 . S
H249 C260 0.950 . S
H250 C262 0.950 . S
H251 C263 0.950 . S
C252 H244 0.950 . S
C252 C253 1.386 . S
C252 C254 1.391 . S
C253 C252 1.386 . S
C253 C257 1.393 . S
C254 H246 0.950 . S
C254 C252 1.391 . S
C254 C255 1.400 . S
C255 C254 1.400 . S
C255 C256 1.398 . S
C255 C261 1.491 . S
C256 H247 0.950 . S
C256 C255 1.398 . S
C256 C257 1.391 . S
C257 H245 0.950 . S
C257 C253 1.393 . S
C257 C256 1.391 . S
C258 H248 0.950 . S
C258 C259 1.386 . S
C258 C260 1.391 . S
C259 C258 1.386 . S
C259 C263 1.393 . S
C260 H249 0.950 . S
C260 C258 1.391 . S
C260 C261 1.400 . S
C261 C255 1.491 . S
C261 C260 1.400 . S
C261 C262 1.398 . S
C262 H250 0.950 . S
C262 C261 1.398 . S
C262 C263 1.391 . S
C263 H251 0.950 . S
C263 C259 1.393 . S
C263 C262 1.391 . S
H264 C272 0.950 . S
H265 C277 0.950 . S
H266 C274 0.950 . S
H267 C276 0.950 . S
H268 C278 0.950 . S
H269 C280 0.950 . S
H270 C282 0.950 . S
H271 C283 0.950 . S
C272 H264 0.950 . S
C272 C273 1.386 1_655 S
C272 C274 1.391 . S
C273 C272 1.386 1_455 S
C273 C277 1.393 1_545 S
C274 H266 0.950 . S
C274 C272 1.391 . S
C274 C275 1.400 1_655 S
C275 C274 1.400 1_455 S
C275 C276 1.398 1_545 S
C275 C281 1.491 . S
C276 H267 0.950 . S
C276 C275 1.398 1_565 S
C276 C277 1.391 . S
C277 H265 0.950 . S
C277 C273 1.393 1_565 S
C277 C276 1.391 . S
C278 H268 0.950 . S
C278 C279 1.386 1_565 S
C278 C280 1.391 . S
C279 C278 1.386 1_545 S
C279 C283 1.393 1_455 S
C280 H269 0.950 . S
C280 C278 1.391 . S
C280 C281 1.400 1_565 S
C281 C275 1.491 . S
C281 C280 1.400 1_545 S
C281 C282 1.398 1_455 S
C282 H270 0.950 . S
C282 C281 1.398 1_655 S
C282 C283 1.391 . S
C283 H271 0.950 . S
C283 C279 1.393 1_655 S
C283 C282 1.391 . S
H284 C292 0.950 . S
H285 C297 0.950 . S
H286 C294 0.950 . S
H287 C296 0.950 . S
H288 C298 0.950 . S
H289 C300 0.950 . S
H290 C302 0.950 . S
H291 C303 0.950 . S
C292 H284 0.950 . S
C292 C293 1.386 1_665 S
C292 C294 1.391 . S
C293 C292 1.386 1_445 S
C293 C297 1.393 . S
C294 H286 0.950 . S
C294 C292 1.391 . S
C294 C295 1.400 1_665 S
C295 C294 1.400 1_445 S
C295 C296 1.398 . S
C295 C301 1.491 . S
C296 H287 0.950 . S
C296 C295 1.398 . S
C296 C297 1.391 . S
C297 H285 0.950 . S
C297 C293 1.393 . S
C297 C296 1.391 . S
C298 H288 0.950 . S
C298 C299 1.386 . S
C298 C300 1.391 . S
C299 C298 1.386 . S
C299 C303 1.393 1_445 S
C300 H289 0.950 . S
C300 C298 1.391 . S
C300 C301 1.400 . S
C301 C295 1.491 . S
C301 C300 1.400 . S
C301 C302 1.398 1_445 S
C302 H290 0.950 . S
C302 C301 1.398 1_665 S
C302 C303 1.391 . S
C303 H291 0.950 . S
C303 C299 1.393 1_665 S
C303 C302 1.391 . S
H304 C312 0.950 . S
H305 C317 0.950 . S
H306 C314 0.950 . S
H307 C316 0.950 . S
H308 C318 0.950 . S
H309 C320 0.950 . S
H310 C322 0.950 . S
H311 C323 0.950 . S
C312 H304 0.950 . S
C312 C313 1.386 . S
C312 C314 1.391 . S
C313 C312 1.386 . S
C313 C317 1.393 . S
C314 H306 0.950 . S
C314 C312 1.391 . S
C314 C315 1.400 . S
C315 C314 1.400 . S
C315 C316 1.398 . S
C315 C321 1.491 . S
C316 H307 0.950 . S
C316 C315 1.398 . S
C316 C317 1.391 . S
C317 H305 0.950 . S
C317 C313 1.393 . S
C317 C316 1.391 . S
C318 H308 0.950 . S
C318 C319 1.386 . S
C318 C320 1.391 . S
C319 C318 1.386 . S
C319 C323 1.393 . S
C320 H309 0.950 . S
C320 C318 1.391 . S
C320 C321 1.400 . S
C321 C315 1.491 . S
C321 C320 1.400 . S
C321 C322 1.398 . S
C322 H310 0.950 . S
C322 C321 1.398 . S
C322 C323 1.391 . S
C323 H311 0.950 . S
C323 C319 1.393 . S
C323 C322 1.391 . S
H324 C332 0.950 . S
H325 C337 0.950 . S
H326 C334 0.950 . S
H327 C336 0.950 . S
H328 C338 0.950 . S
H329 C340 0.950 . S
H330 C342 0.950 . S
H331 C343 0.950 . S
C332 H324 0.950 . S
C332 C333 1.386 . S
C332 C334 1.391 . S
C333 C332 1.386 . S
C333 C337 1.393 . S
C334 H326 0.950 . S
C334 C332 1.391 . S
C334 C335 1.400 . S
C335 C334 1.400 . S
C335 C336 1.398 . S
C335 C341 1.491 . S
C336 H327 0.950 . S
C336 C335 1.398 . S
C336 C337 1.391 . S
C337 H325 0.950 . S
C337 C333 1.393 . S
C337 C336 1.391 . S
C338 H328 0.950 . S
C338 C339 1.386 . S
C338 C340 1.391 . S
C339 C338 1.386 . S
C339 C343 1.393 . S
C340 H329 0.950 . S
C340 C338 1.391 . S
C340 C341 1.400 . S
C341 C335 1.491 . S
C341 C340 1.400 . S
C341 C342 1.398 . S
C342 H330 0.950 . S
C342 C341 1.398 . S
C342 C343 1.391 . S
C343 H331 0.950 . S
C343 C339 1.393 . S
C343 C342 1.391 . S
C119 C99 1.347 . S
C113 C29 1.370 . S
C133 C8 1.375 . S
C139 C90 1.350 . S
C153 C0 1.365 . S
C159 C102 1.360 . S
C173 C17 1.356 . S
C179 C93 1.355 . S
C193 C63 1.361 . S
C199 C81 1.361 . S
C213 C42 1.367 . S
C219 C72 1.363 . S
C239 C84 1.344 . S
C233 C34 1.372 . S
C259 C75 1.341 . S
C253 C51 1.369 . S
C273 C4 1.491 . S
C279 C73 1.490 1_445 S
C293 C13 1.488 . S
C299 C82 1.490 . S
C319 C91 1.490 . S
C313 C38 1.486 . S
C333 C47 1.490 . S
C339 C100 1.489 . S
