# Generated by pormake.
# Topology pyr, (3,6)-cn, num edge types: 1
# Building blocks:
#     Node 0, Type 0, BuildingBlock: BETDIP_clean_linker_0, # of connection points: 3
#     Node 1, Type 0, BuildingBlock: BETDIP_clean_linker_0, # of connection points: 3
#     Node 2, Type 0, BuildingBlock: BETDIP_clean_linker_0, # of connection points: 3
#     Node 3, Type 0, BuildingBlock: BETDIP_clean_linker_0, # of connection points: 3
#     Node 4, Type 0, BuildingBlock: BETDIP_clean_linker_0, # of connection points: 3
#     Node 5, Type 0, BuildingBlock: BETDIP_clean_linker_0, # of connection points: 3
#     Node 6, Type 0, BuildingBlock: BETDIP_clean_linker_0, # of connection points: 3
#     Node 7, Type 0, BuildingBlock: BETDIP_clean_linker_0, # of connection points: 3
#     Node 8, Type 1, BuildingBlock: INOVEN_clean_sbu_0, # of connection points: 6
#     Node 9, Type 1, BuildingBlock: INOVEN_clean_sbu_0, # of connection points: 6
#     Node 10, Type 1, BuildingBlock: INOVEN_clean_sbu_0, # of connection points: 6
#     Node 11, Type 1, BuildingBlock: INOVEN_clean_sbu_0, # of connection points: 6
#     Edge 12, Type (0, 1), BuildingBlock: XIVTED_clean_linker_0, # of connection points: 2
#     Edge 13, Type (0, 1), BuildingBlock: XIVTED_clean_linker_0, # of connection points: 2
#     Edge 14, Type (0, 1), BuildingBlock: XIVTED_clean_linker_0, # of connection points: 2
#     Edge 15, Type (0, 1), BuildingBlock: XIVTED_clean_linker_0, # of connection points: 2
#     Edge 16, Type (0, 1), BuildingBlock: XIVTED_clean_linker_0, # of connection points: 2
#     Edge 17, Type (0, 1), BuildingBlock: XIVTED_clean_linker_0, # of connection points: 2
#     Edge 18, Type (0, 1), BuildingBlock: XIVTED_clean_linker_0, # of connection points: 2
#     Edge 19, Type (0, 1), BuildingBlock: XIVTED_clean_linker_0, # of connection points: 2
#     Edge 20, Type (0, 1), BuildingBlock: XIVTED_clean_linker_0, # of connection points: 2
#     Edge 21, Type (0, 1), BuildingBlock: XIVTED_clean_linker_0, # of connection points: 2
#     Edge 22, Type (0, 1), BuildingBlock: XIVTED_clean_linker_0, # of connection points: 2
#     Edge 23, Type (0, 1), BuildingBlock: XIVTED_clean_linker_0, # of connection points: 2
#     Edge 24, Type (0, 1), BuildingBlock: XIVTED_clean_linker_0, # of connection points: 2
#     Edge 25, Type (0, 1), BuildingBlock: XIVTED_clean_linker_0, # of connection points: 2
#     Edge 26, Type (0, 1), BuildingBlock: XIVTED_clean_linker_0, # of connection points: 2
#     Edge 27, Type (0, 1), BuildingBlock: XIVTED_clean_linker_0, # of connection points: 2
#     Edge 28, Type (0, 1), BuildingBlock: XIVTED_clean_linker_0, # of connection points: 2
#     Edge 29, Type (0, 1), BuildingBlock: XIVTED_clean_linker_0, # of connection points: 2
#     Edge 30, Type (0, 1), BuildingBlock: XIVTED_clean_linker_0, # of connection points: 2
#     Edge 31, Type (0, 1), BuildingBlock: XIVTED_clean_linker_0, # of connection points: 2
#     Edge 32, Type (0, 1), BuildingBlock: XIVTED_clean_linker_0, # of connection points: 2
#     Edge 33, Type (0, 1), BuildingBlock: XIVTED_clean_linker_0, # of connection points: 2
#     Edge 34, Type (0, 1), BuildingBlock: XIVTED_clean_linker_0, # of connection points: 2
#     Edge 35, Type (0, 1), BuildingBlock: XIVTED_clean_linker_0, # of connection points: 2
# Relax obj value: 0.125
# Max RMSD: 0.169
# Mean RMSD: 0.138
data_MOF--net-pyr--node1-INOVEN_clean_sbu_0--node2-BETDIP_clean_linker_0--edge1-XIVTED_clean_linker_0
_symmetry_space_group_name_H-M    P1
_symmetry_Int_Tables_number       1
_symmetry_cell_setting            triclinic
loop_
_symmetry_equiv_pos_as_xyz
'x, y, z'
_cell_length_a     38.497851
_cell_length_b     39.643082
_cell_length_c     36.994858
_cell_angle_alpha  91.487598
_cell_angle_beta   87.117279
_cell_angle_gamma 106.62859
loop_
_atom_site_label
_atom_site_type_symbol
_atom_site_fract_x
_atom_site_fract_y
_atom_site_fract_z
_atom_type_partial_charge
H0 H 0.31691 0.33122 0.23171 0.0
H1 H 0.39271 0.30217 0.15688 0.0
H2 H 0.33639 0.23052 0.24045 0.0
H3 H 0.3613 0.39057 0.21635 0.0
C4 C 0.35286 0.38232 0.18912 0.0
C5 C 0.33143 0.31268 0.22243 0.0
C6 C 0.32392 0.28014 0.23953 0.0
C7 C 0.35646 0.32086 0.19279 0.0
C8 C 0.37417 0.29615 0.1804 0.0
C9 C 0.36737 0.26351 0.19764 0.0
C10 C 0.34228 0.25581 0.22735 0.0
N11 N 0.36195 0.35265 0.17357 0.0
H12 H 0.1759 0.83743 0.73281 0.0
H13 H 0.17043 0.77279 0.63701 0.0
H14 H 0.22641 0.75359 0.72773 0.0
H15 H 0.1346 0.80147 0.61727 0.0
C16 C 0.13804 0.82542 0.63325 0.0
C17 C 0.18098 0.81466 0.71916 0.0
C18 C 0.20255 0.7964 0.7348 0.0
C19 C 0.16847 0.80597 0.68438 0.0
C20 C 0.17779 0.77869 0.66474 0.0
C21 C 0.19834 0.75954 0.6806 0.0
C22 C 0.20963 0.76782 0.71595 0.0
N23 N 0.1502 0.82802 0.66898 0.0
H24 H 0.71594 0.43968 0.85274 0.0
H25 H 0.62431 0.34753 0.84612 0.0
H26 H 0.70551 0.35223 0.92318 0.0
H27 H 0.62346 0.36781 0.78878 0.0
C28 C 0.63143 0.39632 0.79122 0.0
C29 C 0.70129 0.41363 0.86223 0.0
C30 C 0.71545 0.39801 0.88966 0.0
C31 C 0.66879 0.39567 0.84591 0.0
C32 C 0.64966 0.3615 0.8579 0.0
C33 C 0.66309 0.34535 0.88554 0.0
C34 C 0.69584 0.36396 0.90108 0.0
N35 N 0.65601 0.41318 0.81823 0.0
H36 H 0.81727 0.65224 0.36376 0.0
H37 H 0.91166 0.7426 0.35852 0.0
H38 H 0.8307 0.73454 0.44432 0.0
H39 H 0.92304 0.72199 0.30484 0.0
C40 C 0.90728 0.69476 0.30136 0.0
C41 C 0.83271 0.67743 0.3746 0.0
C42 C 0.82008 0.69102 0.40642 0.0
C43 C 0.86548 0.69565 0.35675 0.0
C44 C 0.88597 0.72825 0.37119 0.0
C45 C 0.87369 0.74205 0.40322 0.0
C46 C 0.84073 0.72336 0.42034 0.0
N47 N 0.87696 0.67954 0.3252 0.0
H48 H 0.63004 0.78895 0.92922 0.0
H49 H 0.70833 0.75592 0.86126 0.0
H50 H 0.6907 0.85631 0.84431 0.0
H51 H 0.65649 0.69177 0.88374 0.0
C52 C 0.67064 0.7073 0.90599 0.0
C53 C 0.64951 0.79375 0.90639 0.0
C54 C 0.65743 0.82554 0.88738 0.0
C55 C 0.66744 0.7684 0.89692 0.0
C56 C 0.69377 0.775 0.86832 0.0
C57 C 0.70251 0.80676 0.8495 0.0
C58 C 0.68383 0.83165 0.85872 0.0
N59 N 0.66031 0.7375 0.91796 0.0
H60 H 0.81648 0.20037 0.40278 0.0
H61 H 0.80666 0.27395 0.48699 0.0
H62 H 0.71968 0.23395 0.41503 0.0
H63 H 0.84893 0.25422 0.51254 0.0
C64 C 0.86069 0.23959 0.49264 0.0
C65 C 0.80083 0.21612 0.4164 0.0
C66 C 0.76599 0.21411 0.40552 0.0
C67 C 0.8154 0.23716 0.44582 0.0
C68 C 0.79531 0.2571 0.4645 0.0
C69 C 0.7605 0.25573 0.45369 0.0
C70 C 0.746 0.23409 0.42426 0.0
N71 N 0.84989 0.23637 0.45642 0.0
H72 H 0.32441 0.67032 0.22285 0.0
H73 H 0.41698 0.76175 0.22628 0.0
H74 H 0.33303 0.75649 0.15167 0.0
H75 H 0.41644 0.7423 0.2863 0.0
C76 C 0.40847 0.71379 0.28379 0.0
C77 C 0.33903 0.69613 0.21271 0.0
C78 C 0.32452 0.71115 0.18518 0.0
C79 C 0.37173 0.71437 0.22841 0.0
C80 C 0.39107 0.74817 0.21537 0.0
C81 C 0.37766 0.7636 0.18695 0.0
C82 C 0.34407 0.74486 0.17282 0.0
N83 N 0.38461 0.69706 0.25618 0.0
H84 H 0.13059 0.34693 0.73458 0.0
H85 H 0.22078 0.44086 0.72473 0.0
H86 H 0.21243 0.35566 0.64899 0.0
H87 H 0.1852 0.46584 0.75547 0.0
C88 C 0.167 0.44665 0.77322 0.0
C89 C 0.15562 0.36176 0.72084 0.0
C90 C 0.16926 0.34732 0.69001 0.0
C91 C 0.17335 0.39587 0.73329 0.0
C92 C 0.20601 0.41499 0.71524 0.0
C93 C 0.2199 0.40089 0.68439 0.0
C94 C 0.20137 0.36707 0.67218 0.0
N95 N 0.15762 0.41016 0.76368 0.0
Gd96 Gd 0.02532 0.05787 0.51558 0.0
Gd97 Gd 0.01819 1.02524 0.5898 0.0
C98 C 0.05827 0.10615 0.58553 0.0
C99 C 0.02839 0.09764 0.4611 0.0
C100 C 0.05929 0.12393 0.44443 0.0
C101 C 0.09431 0.12014 0.44602 0.0
C102 C 0.05424 0.15327 0.42768 0.0
C103 C 0.11889 0.17371 0.41171 0.0
C104 C 0.08388 0.17812 0.41149 0.0
C105 C 0.12378 0.14461 0.42952 0.0
C106 C 0.07951 1.03034 0.53102 0.0
C107 C 0.98542 0.97731 0.51941 0.0
C108 C 0.01411 0.9849 0.64405 0.0
C109 C 0.98219 0.95912 0.65986 0.0
C110 C 0.94757 0.96283 0.655 0.0
C111 C 0.98578 0.93052 0.67914 0.0
C112 C 0.92026 0.91066 0.69074 0.0
C113 C 0.95499 0.90634 0.69443 0.0
C114 C 0.91695 0.93905 0.67055 0.0
C115 C 0.9642 0.05302 0.57477 0.0
O116 O 0.04372 0.10464 0.55365 0.0
O117 O 0.05798 0.07716 0.60256 0.0
O118 O 0.02972 0.06509 0.4578 0.0
O119 O 0.01835 0.10558 0.49374 0.0
O120 O 0.0678 1.03038 0.49888 0.0
O121 O 0.06419 0.04731 0.55215 0.0
O122 O 1.00017 0.97854 0.55118 0.0
O123 O 0.9852 1.00642 0.50305 0.0
O124 O 0.01366 1.01769 0.64758 0.0
O125 O 0.02447 0.97713 0.61146 0.0
O126 O 0.97565 0.05241 0.60692 0.0
O127 O 0.97935 0.03609 0.55339 0.0
H128 H 0.09881 0.09789 0.45945 0.0
H129 H 0.0274 0.15681 0.42692 0.0
H130 H 0.0793 0.20055 0.39853 0.0
H131 H 0.15016 0.13999 0.42974 0.0
H132 H 0.94425 0.98454 0.63966 0.0
H133 H 0.01233 0.92705 0.68253 0.0
H134 H 0.95844 0.88445 0.70932 0.0
H135 H 0.89084 0.94365 0.66763 0.0
Gd136 Gd 0.55149 0.06338 0.05145 0.0
Gd137 Gd 0.48452 0.04658 1.01295 0.0
C138 C 0.48426 0.0884 0.08543 0.0
C139 C 0.61467 0.09437 0.07472 0.0
C140 C 0.63064 0.09674 0.10986 0.0
C141 C 0.61056 0.07802 0.13932 0.0
C142 C 0.66573 0.1186 0.11433 0.0
C143 C 0.66023 0.10429 0.17822 0.0
C144 C 0.68045 0.12247 0.14834 0.0
C145 C 0.62533 0.0816 0.17327 0.0
C146 C 0.5088 1.00288 0.08264 0.0
C147 C 0.5448 1.00949 0.98684 0.0
C148 C 0.42782 1.02557 0.97514 0.0
C149 C 0.40466 0.99389 0.95807 0.0
C150 C 0.41623 0.97981 0.92603 0.0
C151 C 0.36927 0.97924 0.97243 0.0
C152 C 0.35655 0.93804 0.92196 0.0
C153 C 0.34545 0.9514 0.95464 0.0
C154 C 0.39233 0.95213 0.9081 0.0
C155 C 0.52977 0.11215 0.99934 0.0
O156 O 0.51994 0.09644 0.08132 0.0
O157 O 0.46353 0.06362 0.06538 0.0
O158 O 0.60651 0.0631 0.05951 0.0
O159 O 0.5892 0.11011 0.07274 0.0
O160 O 0.54064 1.0202 0.09258 0.0
O161 O 0.49984 1.01881 0.05714 0.0
O162 O 0.50954 1.00473 0.99114 0.0
O163 O 0.5676 0.03625 1.00263 0.0
O164 O 0.4606 0.0387 0.96085 0.0
O165 O 0.42633 1.02673 1.01054 0.0
O166 O 0.4954 0.1051 1.00668 0.0
O167 O 0.53908 0.08414 1.00037 0.0
H168 H 0.58326 0.06118 0.13627 0.0
H169 H 0.68139 0.13328 0.09174 0.0
H170 H 0.70713 0.14068 0.15143 0.0
H171 H 0.60925 0.06705 0.1957 0.0
H172 H 0.44331 0.99079 0.91415 0.0
H173 H 0.3597 0.98988 0.99698 0.0
H174 H 0.31815 0.9408 0.96611 0.0
H175 H 0.40147 0.94277 0.88262 0.0
Gd176 Gd 0.51877 0.5255 0.51181 0.0
Gd177 Gd 0.51149 0.58107 0.56637 0.0
C178 C 0.54462 0.52224 0.59517 0.0
C179 C 0.54363 0.48325 0.47105 0.0
C180 C 0.56443 0.45838 0.47735 0.0
C181 C 0.55746 0.4373 0.50834 0.0
C182 C 0.59328 0.45745 0.45315 0.0
C183 C 0.60837 0.41484 0.49083 0.0
C184 C 0.61512 0.4359 0.45984 0.0
C185 C 0.57918 0.41548 0.51492 0.0
C186 C 0.45231 0.51356 0.54447 0.0
C187 C 0.48637 0.58404 0.48284 0.0
C188 C 0.48622 0.62198 0.60881 0.0
C189 C 0.45474 0.63581 0.60886 0.0
C190 C 0.43654 0.63935 0.6418 0.0
C191 C 0.4406 0.6423 0.57635 0.0
C192 C 0.38949 0.65444 0.60979 0.0
C193 C 0.40828 0.65173 0.5768 0.0
C194 C 0.4042 0.64862 0.6423 0.0
C195 C 0.57801 0.59272 0.53427 0.0
O196 O 0.5444 0.51069 0.56115 0.0
O197 O 0.53139 0.54858 0.60477 0.0
O198 O 0.51018 0.47508 0.48443 0.0
O199 O 0.56129 0.51641 0.47587 0.0
O200 O 0.45776 0.506 0.51066 0.0
O201 O 0.48211 0.52535 0.55948 0.0
O202 O 0.48252 0.59252 0.5175 0.0
O203 O 0.50323 0.5604 0.47289 0.0
O204 O 0.51206 0.63379 0.58399 0.0
O205 O 0.47817 0.58795 0.6131 0.0
O206 O 0.57244 0.60092 0.56785 0.0
O207 O 0.54832 0.58118 0.51904 0.0
H208 H 0.53555 0.43797 0.52763 0.0
H209 H 0.59916 0.47372 0.42925 0.0
H210 H 0.63712 0.43545 0.44055 0.0
H211 H 0.57355 0.39959 0.53907 0.0
H212 H 0.44696 0.63421 0.66713 0.0
H213 H 0.45407 0.63935 0.55064 0.0
H214 H 0.39752 0.65596 0.55135 0.0
H215 H 0.39064 0.65115 0.66817 0.0
Gd216 Gd 0.02013 0.51919 0.05374 0.0
Gd217 Gd 0.01838 0.58855 1.02445 0.0
C218 C 0.08839 0.58959 0.067 0.0
C219 C 0.03888 0.46415 0.07009 0.0
C220 C 0.07254 0.45728 0.08104 0.0
C221 C 0.07342 0.44307 0.1152 0.0
C222 C 0.10388 0.4648 0.05794 0.0
C223 C 0.13628 0.44376 0.10303 0.0
C224 C 0.1354 0.45797 0.06881 0.0
C225 C 0.10503 0.43651 0.12618 0.0
C226 C 0.98447 0.55546 0.09719 0.0
C227 C 0.95053 0.51756 1.01059 0.0
C228 C 0.99969 0.64423 1.00986 0.0
C229 C 0.96615 0.65124 0.99938 0.0
C230 C 0.96768 0.68349 0.98381 0.0
C231 C 0.93244 0.62603 1.00509 0.0
C232 C 0.90206 0.66503 0.97912 0.0
C233 C 0.90069 0.63274 0.99478 0.0
C234 C 0.93584 0.69044 0.97391 0.0
C235 C 0.05612 0.5539 0.98177 0.0
O236 O 0.07695 0.55473 0.06456 0.0
O237 O 0.06841 0.60918 0.05613 0.0
O238 O 0.02343 0.48117 0.09358 0.0
O239 O 0.03853 0.47441 0.0368 0.0
O240 O 0.97369 0.52143 0.09315 0.0
O241 O 0.01378 0.56794 0.07922 0.0
O242 O 0.96223 0.5524 1.01238 0.0
O243 O 0.97004 0.49798 1.02241 0.0
O244 O 0.01511 0.6277 0.98583 0.0
O245 O 0.99894 0.63237 0.04264 0.0
O246 O 0.06565 0.5879 0.98624 0.0
O247 O 0.02625 0.54021 0.99863 0.0
H248 H 0.04958 0.43699 0.13342 0.0
H249 H 0.10419 0.47599 1.03148 0.0
H250 H 0.15922 0.46418 0.05058 0.0
H251 H 0.10483 0.42523 0.15257 0.0
H252 H 0.99348 0.70329 0.97936 0.0
H253 H 0.93059 0.6013 1.01781 0.0
H254 H 0.875 0.61288 0.99961 0.0
H255 H 0.93768 0.71548 0.96172 0.0
H256 H 0.25637 0.28906 0.23933 0.0
H257 H 0.19034 0.1971 0.42974 0.0
H258 H 0.32553 0.24973 0.30492 0.0
H259 H 0.1181 0.20426 0.34641 0.0
H260 H 0.24189 0.22841 0.39058 0.0
H261 H 0.2073 0.27035 0.28529 0.0
C262 C 0.26134 0.27686 0.26366 0.0
C263 C 0.29494 0.27072 0.26833 0.0
C264 C 0.21467 0.22342 0.38118 0.0
C265 C 0.23891 0.24906 0.32075 0.0
C266 C 0.18525 0.20547 0.40338 0.0
C267 C 0.14981 0.19753 0.39113 0.0
C268 C 0.20854 0.23385 0.34673 0.0
C269 C 0.14481 0.20992 0.35716 0.0
C270 C 0.23329 0.26605 0.28974 0.0
C271 C 0.29983 0.25448 0.30015 0.0
N272 N 0.1739 0.22725 0.33603 0.0
N273 N 0.27199 0.24406 0.3252 0.0
H274 H 0.27263 0.80037 0.74839 0.0
H275 H 0.28581 0.93428 0.91117 0.0
H276 H 0.17824 0.82614 0.79556 0.0
H277 H 0.36769 0.88145 0.88441 0.0
H278 H 0.24499 0.89391 0.87072 0.0
H279 H 0.30704 0.82875 0.79928 0.0
C280 C 0.25877 0.81119 0.76989 0.0
C281 C 0.22225 0.81048 0.76778 0.0
C282 C 0.27169 0.89083 0.87415 0.0
C283 C 0.26221 0.84434 0.82571 0.0
C284 C 0.29496 0.91374 0.89735 0.0
C285 C 0.33029 0.91132 0.90093 0.0
C286 C 0.28405 0.86568 0.85416 0.0
C287 C 0.34091 0.88463 0.88189 0.0
C288 C 0.27864 0.82771 0.79888 0.0
C289 C 0.20638 0.82628 0.79593 0.0
N290 N 0.31799 0.86306 0.85898 0.0
N291 N 0.22661 0.84294 0.82363 0.0
H292 H 0.63746 0.46779 0.7892 0.0
H293 H 0.559 0.45809 0.59099 0.0
H294 H 0.59885 0.37096 0.7287 0.0
H295 H 0.56304 0.54529 0.66446 0.0
H296 H 0.58062 0.42834 0.63852 0.0
H297 H 0.61714 0.49908 0.74155 0.0
C298 C 0.62486 0.45312 0.76587 0.0
C299 C 0.6199 0.41663 0.76293 0.0
C300 C 0.57683 0.45402 0.64426 0.0
C301 C 0.59688 0.45236 0.70812 0.0
C302 C 0.56461 0.47114 0.617 0.0
C303 C 0.55905 0.50434 0.62356 0.0
C304 C 0.58419 0.47028 0.67839 0.0
C305 C 0.56674 0.5197 0.65808 0.0
C306 C 0.61316 0.47098 0.73873 0.0
C307 C 0.60322 0.39906 0.73211 0.0
N308 N 0.57901 0.50268 0.68406 0.0
N309 N 0.59254 0.41702 0.70593 0.0
H310 H 0.96267 0.71708 0.25135 0.0
H311 H 0.92508 0.53217 0.14402 0.0
H312 H 0.8749 0.62564 0.28115 0.0
H313 H 0.01212 0.62469 0.11564 0.0
H314 H 0.90487 0.56588 0.19328 0.0
H315 H 0.9801 0.68363 0.20061 0.0
C316 C 0.94704 0.68994 0.24714 0.0
C317 C 0.91735 0.67418 0.2705 0.0
C318 C 0.92829 0.57883 0.17615 0.0
C319 C 0.93708 0.63552 0.21238 0.0
C320 C 0.93978 0.55961 0.14802 0.0
C321 C 0.97031 0.57564 0.12571 0.0
C322 C 0.94752 0.61434 0.18203 0.0
C323 C 0.98837 0.61127 0.13209 0.0
C324 C 0.95697 0.67082 0.21816 0.0
C325 C 0.89802 0.6389 0.26383 0.0
N326 N 0.9768 0.62932 0.15964 0.0
N327 N 0.90825 0.62075 0.23542 0.0
H328 H 0.43908 0.27371 0.17772 0.0
H329 H 0.41208 0.07745 0.10391 0.0
H330 H 0.33663 0.19291 0.18625 0.0
H331 H 0.51738 0.15133 0.1184 0.0
H332 H 0.38381 0.1191 0.13407 0.0
H333 H 0.46812 0.2295 0.1547 0.0
C334 C 0.42272 0.24666 0.17471 0.0
C335 C 0.38543 0.23696 0.18395 0.0
C336 C 0.41312 0.12604 0.13102 0.0
C337 C 0.41843 0.18621 0.15776 0.0
C338 C 0.42932 0.10223 0.11385 0.0
C339 C 0.4672 0.11095 0.10842 0.0
C340 C 0.4349 0.15902 0.14251 0.0
C341 C 0.48809 0.14346 0.12195 0.0
C342 C 0.43933 0.22139 0.16183 0.0
C343 C 0.36555 0.20146 0.17982 0.0
N344 N 0.47165 0.16646 0.138 0.0
N345 N 0.38224 0.17743 0.16684 0.0
H346 H 0.11892 0.8314 0.5647 0.0
H347 H 0.10547 1.0271 0.59711 0.0
H348 H 0.14384 0.89005 0.66468 0.0
H349 H 0.08921 0.97313 0.49383 0.0
H350 H 0.12313 0.97809 0.62126 0.0
H351 H 0.10987 0.88365 0.53722 0.0
C352 C 0.12241 0.85527 0.58078 0.0
C353 C 0.13188 0.85644 0.61688 0.0
C354 C 0.11617 0.97709 0.59317 0.0
C355 C 0.12201 0.91606 0.58591 0.0
C356 C 0.10627 1.00511 0.57939 0.0
C357 C 0.09583 1.0039 0.54358 0.0
C358 C 0.11535 0.94763 0.57097 0.0
C359 C 0.09717 0.97494 0.52163 0.0
C360 C 0.11746 0.88506 0.56512 0.0
C361 C 0.13637 0.88793 0.63672 0.0
N362 N 0.10638 0.94765 0.53583 0.0
N363 N 0.13128 0.91648 0.62095 0.0
H364 H 0.74326 0.46916 0.90539 0.0
H365 H 0.91814 0.44678 1.00076 0.0
H366 H 0.76839 0.37024 0.91284 0.0
H367 H 0.90251 0.54812 0.98093 0.0
H368 H 0.8617 0.41846 0.97116 0.0
H369 H 0.80001 0.49863 0.93441 0.0
C370 C 0.76067 0.45356 0.91284 0.0
C371 C 0.75054 0.41692 0.90663 0.0
C372 C 0.87053 0.44691 0.9733 0.0
C373 C 0.81565 0.4507 0.94067 0.0
C374 C 0.90285 0.46318 0.99035 0.0
C375 C 0.91534 0.50005 0.9936 0.0
C376 C 0.85016 0.46747 0.95929 0.0
C377 C 0.89408 0.51968 0.97934 0.0
C378 C 0.79305 0.47047 0.92969 0.0
C379 C 0.77433 0.39833 0.91757 0.0
N380 N 0.86263 0.5032 0.96289 0.0
N381 N 0.80549 0.41533 0.93404 0.0
H382 H 0.80571 0.68197 0.4793 0.0
H383 H 0.59329 0.58843 0.46152 0.0
H384 H 0.75513 0.65674 0.37671 0.0
H385 H 0.64408 0.62015 0.56307 0.0
H386 H 0.6529 0.60854 0.42991 0.0
H387 H 0.74735 0.65495 0.51034 0.0
C388 C 0.7823 0.6707 0.46327 0.0
C389 C 0.78528 0.67195 0.42532 0.0
C390 C 0.65103 0.61094 0.45912 0.0
C391 C 0.71822 0.64061 0.46078 0.0
C392 C 0.61705 0.59938 0.47717 0.0
C393 C 0.61384 0.60278 0.51493 0.0
C394 C 0.68195 0.62601 0.47903 0.0
C395 C 0.64539 0.61722 0.5339 0.0
C396 C 0.74897 0.65513 0.48103 0.0
C397 C 0.75414 0.65623 0.40599 0.0
N398 N 0.67811 0.62844 0.51574 0.0
N399 N 0.72185 0.64141 0.42394 0.0
H400 H 0.31795 0.4259 0.22221 0.0
H401 H 0.18057 0.4123 0.06341 0.0
H402 H 0.32032 0.36543 0.12396 0.0
H403 H 0.16779 0.45814 0.16852 0.0
H404 H 0.23513 0.39947 0.08297 0.0
H405 H 0.26617 0.44268 0.20074 0.0
C406 C 0.30771 0.41644 0.19596 0.0
C407 C 0.32335 0.39433 0.17481 0.0
C408 C 0.22042 0.41236 0.10175 0.0
C409 C 0.26415 0.41315 0.15015 0.0
C410 C 0.1894 0.41986 0.09054 0.0
C411 C 0.16962 0.43624 0.11442 0.0
C412 C 0.23187 0.42151 0.13703 0.0
C413 C 0.18202 0.44509 0.14941 0.0
C414 C 0.2781 0.42587 0.1838 0.0
C415 C 0.30902 0.38255 0.14112 0.0
N416 N 0.21238 0.43765 0.15965 0.0
N417 N 0.28016 0.39208 0.12984 0.0
H418 H 0.58952 0.31756 0.89968 0.0
H419 H 0.6019 0.13261 0.9747 0.0
H420 H 0.69053 0.29124 0.90339 0.0
H421 H 0.50634 0.16877 0.98578 0.0
H422 H 0.63461 0.18854 0.94516 0.0
H423 H 0.5579 0.2606 0.92654 0.0
C424 C 0.60505 0.2997 0.90575 0.0
C425 C 0.64287 0.3095 0.89934 0.0
C426 C 0.60647 0.18416 0.95411 0.0
C427 C 0.60672 0.244 0.93067 0.0
C428 C 0.58785 0.15228 0.971 0.0
C429 C 0.5513 0.14594 0.98269 0.0
C430 C 0.58831 0.20974 0.94867 0.0
C431 C 0.53445 0.1724 0.9772 0.0
C432 C 0.587 0.26722 0.92142 0.0
C433 C 0.66145 0.28516 0.90828 0.0
N434 N 0.55296 0.2029 0.96056 0.0
N435 N 0.64327 0.25369 0.92347 0.0
H436 H 0.89082 0.75577 0.47378 0.0
H437 H 0.96362 0.96424 0.44973 0.0
H438 H 0.90322 0.80564 0.36983 0.0
H439 H 0.9716 0.91161 0.54837 0.0
H440 H 0.93939 0.90685 0.42039 0.0
H441 H 0.91902 0.81289 0.50179 0.0
C442 C 0.89977 0.7788 0.45681 0.0
C443 C 0.8946 0.77601 0.41943 0.0
C444 C 0.94649 0.90788 0.44843 0.0
C445 C 0.92669 0.84165 0.45139 0.0
C446 C 0.96011 0.94064 0.4653 0.0
C447 C 0.96953 0.94278 0.50166 0.0
C448 C 0.94193 0.87698 0.46811 0.0
C449 C 0.96469 0.91127 0.52033 0.0
C450 C 0.91589 0.8114 0.47281 0.0
C451 C 0.90693 0.80663 0.39869 0.0
N452 N 0.9511 0.87972 0.50339 0.0
N453 N 0.92211 0.83826 0.41501 0.0
H454 H 0.19605 0.69236 0.697 0.0
H455 H 0.37196 0.70501 0.57131 0.0
H456 H 0.23738 0.77236 0.61653 0.0
H457 H 0.32763 0.62376 0.65006 0.0
H458 H 0.31644 0.72332 0.57861 0.0
H459 H 0.23627 0.65958 0.67077 0.0
C460 C 0.2129 0.70241 0.67309 0.0
C461 C 0.21377 0.73509 0.65902 0.0
C462 C 0.31864 0.70115 0.59391 0.0
C463 C 0.2606 0.69854 0.62955 0.0
C464 C 0.35029 0.69068 0.5897 0.0
C465 C 0.35463 0.6633 0.61067 0.0
C466 C 0.29125 0.68413 0.6193 0.0
C467 C 0.32575 0.64562 0.63409 0.0
C468 C 0.23602 0.68388 0.65824 0.0
C469 C 0.23597 0.74715 0.62808 0.0
N470 N 0.29549 0.6566 0.63809 0.0
N471 N 0.25915 0.72921 0.61479 0.0
H472 H 0.7694 0.79748 0.85586 0.0
H473 H 0.85059 0.88677 0.66741 0.0
H474 H 0.70605 0.83553 0.78221 0.0
H475 H 0.91559 0.88168 0.7579 0.0
H476 H 0.79622 0.85602 0.70325 0.0
H477 H 0.82187 0.81579 0.8136 0.0
C478 C 0.7664 0.80923 0.83052 0.0
C479 C 0.7334 0.81519 0.82255 0.0
C480 C 0.82248 0.86136 0.715 0.0
C481 C 0.7934 0.83646 0.77434 0.0
C482 C 0.85353 0.87902 0.69468 0.0
C483 C 0.88777 0.88737 0.70983 0.0
C484 C 0.82575 0.85157 0.75052 0.0
C485 C 0.88993 0.8757 0.74492 0.0
C486 C 0.79641 0.81987 0.80656 0.0
C487 C 0.73116 0.8309 0.78953 0.0
N488 N 0.8593 0.85861 0.76415 0.0
N489 N 0.76087 0.84115 0.76661 0.0
H490 H 0.8017 0.20357 0.34223 0.0
H491 H 0.62309 0.11208 0.24137 0.0
H492 H 0.69587 0.1738 0.39727 0.0
H493 H 0.72979 0.11311 0.19827 0.0
H494 H 0.64869 0.132 0.29965 0.0
H495 H 0.77585 0.16879 0.28988 0.0
C496 C 0.77311 0.18935 0.34354 0.0
C497 C 0.75087 0.19181 0.37415 0.0
C498 C 0.66641 0.12736 0.27759 0.0
C499 C 0.72101 0.1525 0.31397 0.0
C500 C 0.65179 0.11578 0.24434 0.0
C501 C 0.67447 0.11136 0.21479 0.0
C502 C 0.70398 0.13499 0.28111 0.0
C503 C 0.71151 0.11702 0.22013 0.0
C504 C 0.75836 0.16955 0.31357 0.0
C505 C 0.71388 0.17327 0.37397 0.0
N506 N 0.72523 0.12904 0.25256 0.0
N507 N 0.7 0.15465 0.34415 0.0
H508 H 0.40298 0.64246 0.28498 0.0
H509 H 0.47027 0.6474 0.48755 0.0
H510 H 0.43718 0.73787 0.34858 0.0
H511 H 0.47177 0.56283 0.41237 0.0
H512 H 0.45038 0.67802 0.4395 0.0
H513 H 0.42073 0.61021 0.33344 0.0
C514 C 0.41409 0.65663 0.30915 0.0
C515 C 0.41861 0.69303 0.31267 0.0
C516 C 0.45492 0.65269 0.43352 0.0
C517 C 0.43862 0.6561 0.36851 0.0
C518 C 0.46601 0.63501 0.46111 0.0
C519 C 0.47258 0.60229 0.45425 0.0
C520 C 0.44982 0.63749 0.39869 0.0
C521 C 0.46713 0.58798 0.41903 0.0
C522 C 0.42431 0.6382 0.33678 0.0
C523 C 0.43328 0.7099 0.34464 0.0
N524 N 0.45596 0.60553 0.39272 0.0
N525 N 0.44253 0.69136 0.37128 0.0
H526 H 0.18561 0.51359 0.79802 0.0
H527 H 0.03392 0.4843 0.95992 0.0
H528 H 0.11255 0.41129 0.82251 0.0
H529 H 0.11736 0.58174 0.93997 0.0
H530 H 0.06144 0.45619 0.91069 0.0
H531 H 0.16 0.53827 0.85033 0.0
C532 C 0.16414 0.49629 0.81455 0.0
C533 C 0.15122 0.46039 0.80587 0.0
C534 C 0.0738 0.48366 0.91726 0.0
C535 C 0.12137 0.48854 0.8661 0.0
C536 C 0.05815 0.4997 0.94537 0.0
C537 C 0.07329 0.53549 0.95391 0.0
C538 C 0.1047 0.50364 0.89752 0.0
C539 C 0.10464 0.55417 0.9342 0.0
C540 C 0.14951 0.51038 0.84451 0.0
C541 C 0.12336 0.43914 0.82826 0.0
N542 N 0.11912 0.53812 0.90692 0.0
N543 N 0.10921 0.45358 0.8573 0.0
H544 H 0.68942 0.89639 0.89417 0.0
H545 H 0.50777 0.94293 0.9638 0.0
H546 H 0.58573 0.81791 0.90719 0.0
H547 H 0.61521 1.01584 0.96523 0.0
H548 H 0.53409 0.89807 0.93684 0.0
H549 H 0.66093 0.94161 0.91411 0.0
C550 C 0.66053 0.88869 0.90086 0.0
C551 C 0.63992 0.85327 0.89884 0.0
C552 C 0.55181 0.92398 0.94286 0.0
C553 C 0.60706 0.90508 0.92225 0.0
C554 C 0.53679 0.94966 0.95805 0.0
C555 C 0.55932 0.98318 0.96693 0.0
C556 C 0.58957 0.93199 0.93632 0.0
C557 C 0.59676 0.99034 0.95905 0.0
C558 C 0.6443 0.91454 0.91251 0.0
C559 C 0.6027 0.84485 0.90861 0.0
N560 N 0.61066 0.96498 0.94433 0.0
N561 N 0.58745 0.87057 0.9199 0.0
H562 H 0.87418 0.22821 0.56198 0.0
H563 H 0.94367 0.06136 0.50717 0.0
H564 H 0.88886 0.19418 0.45189 0.0
H565 H 0.94485 0.10311 0.61614 0.0
H566 H 0.92006 0.10832 0.48705 0.0
H567 H 0.89862 0.18187 0.58315 0.0
C568 C 0.88295 0.21125 0.54234 0.0
C569 C 0.87941 0.21487 0.5053 0.0
C570 C 0.92535 0.10718 0.5154 0.0
C571 C 0.90659 0.16177 0.52904 0.0
C572 C 0.9386 0.08029 0.52688 0.0
C573 C 0.94626 0.07862 0.56325 0.0
C574 C 0.91959 0.13238 0.54059 0.0
C575 C 0.93923 0.10361 0.58781 0.0
C576 C 0.89665 0.18475 0.55437 0.0
C577 C 0.89093 0.19223 0.48078 0.0
N578 N 0.92635 0.12964 0.57599 0.0
N579 N 0.9038 0.16648 0.49314 0.0
H580 H 0.2971 0.63987 0.17014 0.0
H581 H 0.11925 0.66019 0.07895 0.0
H582 H 0.27047 0.73808 0.16328 0.0
H583 H 0.13806 0.55936 0.09408 0.0
H584 H 0.17568 0.68879 0.10825 0.0
H585 H 0.23996 0.60967 0.14206 0.0
C586 C 0.27927 0.65515 0.16301 0.0
C587 C 0.28911 0.69183 0.16904 0.0
C588 C 0.16758 0.6604 0.10519 0.0
C589 C 0.22355 0.65722 0.13613 0.0
C590 C 0.13526 0.64397 0.08829 0.0
C591 C 0.12365 0.60718 0.08383 0.0
C592 C 0.18889 0.64011 0.11787 0.0
C593 C 0.1458 0.58777 0.09676 0.0
C594 C 0.24667 0.63784 0.1467 0.0
C595 C 0.26478 0.71001 0.15862 0.0
N596 N 0.17727 0.60443 0.11313 0.0
N597 N 0.23341 0.69261 0.14269 0.0
H598 H 0.28378 0.44129 0.71207 0.0
H599 H 0.38628 0.48153 0.51713 0.0
H600 H 0.23277 0.40692 0.61103 0.0
H601 H 0.43814 0.51679 0.61749 0.0
H602 H 0.32883 0.45695 0.55119 0.0
H603 H 0.33958 0.47222 0.67813 0.0
C604 C 0.28419 0.44051 0.68277 0.0
C605 C 0.25357 0.42128 0.66441 0.0
C606 C 0.35269 0.47027 0.5658 0.0
C607 C 0.31747 0.45631 0.62537 0.0
C608 C 0.38547 0.48433 0.54634 0.0
C609 C 0.41697 0.50109 0.56454 0.0
C610 C 0.3514 0.47293 0.60379 0.0
C611 C 0.41444 0.50407 0.60241 0.0
C612 C 0.31612 0.45801 0.6634 0.0
C613 C 0.25586 0.42089 0.62637 0.0
N614 N 0.38226 0.48995 0.62081 0.0
N615 N 0.28723 0.43799 0.60818 0.0
H616 H 0.69795 0.65387 0.88449 0.0
H617 H 0.88064 0.72462 0.99182 0.0
H618 H 0.72027 0.74645 0.95322 0.0
H619 H 0.84664 0.62145 0.9421 0.0
H620 H 0.82417 0.73529 0.97442 0.0
H621 H 0.75447 0.64352 0.90204 0.0
C622 C 0.71473 0.67189 0.90343 0.0
C623 C 0.70437 0.70085 0.91761 0.0
C624 C 0.82906 0.71032 0.96735 0.0
C625 C 0.76915 0.68947 0.93758 0.0
C626 C 0.86135 0.70432 0.97706 0.0
C627 C 0.86826 0.67211 0.96839 0.0
C628 C 0.80368 0.68405 0.9485 0.0
C629 C 0.8422 0.64652 0.94961 0.0
C630 C 0.74694 0.66601 0.91343 0.0
C631 C 0.72714 0.72365 0.94181 0.0
N632 N 0.81113 0.65309 0.94019 0.0
N633 N 0.75855 0.71751 0.95098 0.0
H634 H 0.38138 0.7857 0.11615 0.0
H635 H 0.51955 0.97597 0.14651 0.0
H636 H 0.42181 0.82272 0.2211 0.0
H637 H 0.45048 0.95144 0.0556 0.0
H638 H 0.48819 0.91844 0.1722 0.0
H639 H 0.41059 0.84393 0.09179 0.0
C640 C 0.39604 0.806 0.13437 0.0
C641 C 0.39819 0.7989 0.17125 0.0
C642 C 0.47967 0.92562 0.14675 0.0
C643 C 0.43316 0.86618 0.14256 0.0
C644 C 0.49758 0.95851 0.132 0.0
C645 C 0.48757 0.96869 0.09887 0.0
C646 C 0.45178 0.90212 0.12804 0.0
C647 C 0.45895 0.94484 0.08131 0.0
C648 C 0.41298 0.83937 0.12017 0.0
C649 C 0.4192 0.82645 0.19261 0.0
N650 N 0.44229 0.91258 0.09594 0.0
N651 N 0.43581 0.8587 0.17798 0.0
H652 H 0.15422 0.32895 0.61975 0.0
H653 H 0.07969 0.1219 0.65531 0.0
H654 H 0.14144 0.2852 0.72679 0.0
H655 H 0.07474 0.17025 0.55319 0.0
H656 H 0.10516 0.18063 0.68189 0.0
H657 H 0.12749 0.27022 0.59485 0.0
C658 C 0.14565 0.30691 0.63805 0.0
C659 C 0.15018 0.31195 0.67541 0.0
C660 C 0.09847 0.1783 0.65368 0.0
C661 C 0.11949 0.24437 0.64701 0.0
C662 C 0.08413 0.1448 0.63843 0.0
C663 C 0.07509 0.14112 0.60195 0.0
C664 C 0.10407 0.20826 0.63219 0.0
C665 C 0.08119 0.17174 0.58145 0.0
C666 C 0.1303 0.27336 0.62382 0.0
C667 C 0.13821 0.28248 0.69787 0.0
N668 N 0.09535 0.20392 0.59681 0.0
N669 N 0.12362 0.24986 0.68329 0.0
H670 H 0.78588 0.3253 0.47221 0.0
H671 H 0.58679 0.34538 0.50938 0.0
H672 H 0.68844 0.23792 0.47465 0.0
H673 H 0.68226 0.43188 0.48645 0.0
H674 H 0.62526 0.30586 0.51139 0.0
H675 H 0.74983 0.36444 0.49245 0.0
C676 C 0.75699 0.31424 0.47773 0.0
C677 C 0.73998 0.27846 0.47127 0.0
C678 C 0.63781 0.33358 0.50641 0.0
C679 C 0.69857 0.32308 0.49382 0.0
C680 C 0.61592 0.35612 0.50544 0.0
C681 C 0.63143 0.39174 0.49716 0.0
C682 C 0.67538 0.3469 0.49918 0.0
C683 C 0.66925 0.40439 0.49217 0.0
C684 C 0.7364 0.33662 0.48904 0.0
C685 C 0.70244 0.26553 0.47862 0.0
N686 N 0.68993 0.38191 0.49291 0.0
N687 N 0.68288 0.28793 0.48912 0.0
loop_
_geom_bond_atom_site_label_1
_geom_bond_atom_site_label_2
_geom_bond_distance
_geom_bond_site_symmetry_2
_ccdc_geom_bond_type
H0 C5 0.930 . S
H1 C8 0.930 . S
H2 C10 0.930 . S
H3 C4 1.016 . S
C4 H3 1.016 . S
C4 N11 1.286 . S
C5 H0 0.930 . S
C5 C6 1.397 . S
C5 C7 1.361 . S
C6 C5 1.397 . S
C6 C10 1.390 . S
C7 C5 1.361 . S
C7 C8 1.393 . S
C7 N11 1.413 . S
C8 H1 0.930 . S
C8 C7 1.393 . S
C8 C9 1.399 . S
C9 C8 1.399 . S
C9 C10 1.381 . S
C10 H2 0.930 . S
C10 C6 1.390 . S
C10 C9 1.381 . S
N11 C4 1.286 . S
N11 C7 1.413 . S
H12 C17 0.930 . S
H13 C20 0.930 . S
H14 C22 0.930 . S
H15 C16 1.016 . S
C16 H15 1.016 . S
C16 N23 1.286 . S
C17 H12 0.930 . S
C17 C18 1.397 . S
C17 C19 1.361 . S
C18 C17 1.397 . S
C18 C22 1.390 . S
C19 C17 1.361 . S
C19 C20 1.393 . S
C19 N23 1.413 . S
C20 H13 0.930 . S
C20 C19 1.393 . S
C20 C21 1.399 . S
C21 C20 1.399 . S
C21 C22 1.381 . S
C22 H14 0.930 . S
C22 C18 1.390 . S
C22 C21 1.381 . S
N23 C16 1.286 . S
N23 C19 1.413 . S
H24 C29 0.930 . S
H25 C32 0.930 . S
H26 C34 0.930 . S
H27 C28 1.016 . S
C28 H27 1.016 . S
C28 N35 1.286 . S
C29 H24 0.930 . S
C29 C30 1.397 . S
C29 C31 1.361 . S
C30 C29 1.397 . S
C30 C34 1.390 . S
C31 C29 1.361 . S
C31 C32 1.393 . S
C31 N35 1.413 . S
C32 H25 0.930 . S
C32 C31 1.393 . S
C32 C33 1.399 . S
C33 C32 1.399 . S
C33 C34 1.381 . S
C34 H26 0.930 . S
C34 C30 1.390 . S
C34 C33 1.381 . S
N35 C28 1.286 . S
N35 C31 1.413 . S
H36 C41 0.930 . S
H37 C44 0.930 . S
H38 C46 0.930 . S
H39 C40 1.016 . S
C40 H39 1.016 . S
C40 N47 1.286 . S
C41 H36 0.930 . S
C41 C42 1.397 . S
C41 C43 1.361 . S
C42 C41 1.397 . S
C42 C46 1.390 . S
C43 C41 1.361 . S
C43 C44 1.393 . S
C43 N47 1.413 . S
C44 H37 0.930 . S
C44 C43 1.393 . S
C44 C45 1.399 . S
C45 C44 1.399 . S
C45 C46 1.381 . S
C46 H38 0.930 . S
C46 C42 1.390 . S
C46 C45 1.381 . S
N47 C40 1.286 . S
N47 C43 1.413 . S
H48 C53 0.930 . S
H49 C56 0.930 . S
H50 C58 0.930 . S
H51 C52 1.016 . S
C52 H51 1.016 . S
C52 N59 1.286 . S
C53 H48 0.930 . S
C53 C54 1.397 . S
C53 C55 1.361 . S
C54 C53 1.397 . S
C54 C58 1.390 . S
C55 C53 1.361 . S
C55 C56 1.393 . S
C55 N59 1.413 . S
C56 H49 0.930 . S
C56 C55 1.393 . S
C56 C57 1.399 . S
C57 C56 1.399 . S
C57 C58 1.381 . S
C58 H50 0.930 . S
C58 C54 1.390 . S
C58 C57 1.381 . S
N59 C52 1.286 . S
N59 C55 1.413 . S
H60 C65 0.930 . S
H61 C68 0.930 . S
H62 C70 0.930 . S
H63 C64 1.016 . S
C64 H63 1.016 . S
C64 N71 1.286 . S
C65 H60 0.930 . S
C65 C66 1.397 . S
C65 C67 1.361 . S
C66 C65 1.397 . S
C66 C70 1.390 . S
C67 C65 1.361 . S
C67 C68 1.393 . S
C67 N71 1.413 . S
C68 H61 0.930 . S
C68 C67 1.393 . S
C68 C69 1.399 . S
C69 C68 1.399 . S
C69 C70 1.381 . S
C70 H62 0.930 . S
C70 C66 1.390 . S
C70 C69 1.381 . S
N71 C64 1.286 . S
N71 C67 1.413 . S
H72 C77 0.930 . S
H73 C80 0.930 . S
H74 C82 0.930 . S
H75 C76 1.016 . S
C76 H75 1.016 . S
C76 N83 1.286 . S
C77 H72 0.930 . S
C77 C78 1.397 . S
C77 C79 1.361 . S
C78 C77 1.397 . S
C78 C82 1.390 . S
C79 C77 1.361 . S
C79 C80 1.393 . S
C79 N83 1.413 . S
C80 H73 0.930 . S
C80 C79 1.393 . S
C80 C81 1.399 . S
C81 C80 1.399 . S
C81 C82 1.381 . S
C82 H74 0.930 . S
C82 C78 1.390 . S
C82 C81 1.381 . S
N83 C76 1.286 . S
N83 C79 1.413 . S
H84 C89 0.930 . S
H85 C92 0.930 . S
H86 C94 0.930 . S
H87 C88 1.016 . S
C88 H87 1.016 . S
C88 N95 1.286 . S
C89 H84 0.930 . S
C89 C90 1.397 . S
C89 C91 1.361 . S
C90 C89 1.397 . S
C90 C94 1.390 . S
C91 C89 1.361 . S
C91 C92 1.393 . S
C91 N95 1.413 . S
C92 H85 0.930 . S
C92 C91 1.393 . S
C92 C93 1.399 . S
C93 C92 1.399 . S
C93 C94 1.381 . S
C94 H86 0.930 . S
C94 C90 1.390 . S
C94 C93 1.381 . S
N95 C88 1.286 . S
N95 C91 1.413 . S
Gd96 C99 2.818 . S
Gd96 O116 2.377 . S
Gd96 O118 2.448 . S
Gd96 O119 2.506 . S
Gd96 O120 2.435 1_545 S
Gd96 O121 2.717 1_545 S
Gd96 O123 2.395 1_445 S
Gd96 O127 2.327 1_455 S
Gd97 C108 2.817 . S
Gd97 O117 2.397 1_665 S
Gd97 O121 2.326 1_655 S
Gd97 O122 2.376 . S
Gd97 O124 2.448 . S
Gd97 O125 2.504 . S
Gd97 O126 2.437 1_565 S
Gd97 O127 2.718 1_565 S
C98 O116 1.240 . S
C98 O117 1.240 . S
C99 Gd96 2.818 . S
C99 C100 1.510 . S
C99 O118 1.249 . S
C99 O119 1.252 . S
C100 C99 1.510 . S
C100 C101 1.404 . S
C100 C102 1.352 . S
C101 C100 1.404 . S
C101 C105 1.389 . S
C101 H128 0.930 . S
C102 C100 1.352 . S
C102 C104 1.374 . S
C102 H129 0.931 . S
C103 C104 1.359 . S
C103 C105 1.364 . S
C104 C102 1.374 . S
C104 C103 1.359 . S
C104 H130 0.931 . S
C105 C101 1.389 . S
C105 C103 1.364 . S
C105 H131 0.931 . S
C106 O120 1.256 . S
C106 O121 1.257 . S
C107 O122 1.240 . S
C107 O123 1.240 . S
C108 Gd97 2.817 . S
C108 C109 1.510 . S
C108 O124 1.249 . S
C108 O125 1.252 . S
C109 C108 1.510 . S
C109 C110 1.404 . S
C109 C111 1.352 . S
C110 C109 1.404 . S
C110 C114 1.389 . S
C110 H132 0.930 . S
C111 C109 1.352 . S
C111 C113 1.374 . S
C111 H133 0.931 . S
C112 C113 1.359 . S
C112 C114 1.364 . S
C113 C111 1.374 . S
C113 C112 1.359 . S
C113 H134 0.931 . S
C114 C110 1.389 . S
C114 C112 1.364 . S
C114 H135 0.931 . S
C115 O126 1.256 . S
C115 O127 1.257 . S
O116 Gd96 2.377 . S
O116 C98 1.240 . S
O117 Gd97 2.397 1_445 S
O117 C98 1.240 . S
O118 Gd96 2.448 . S
O118 C99 1.249 . S
O119 Gd96 2.506 . S
O119 C99 1.252 . S
O120 Gd96 2.435 1_565 S
O120 C106 1.256 . S
O121 Gd96 2.717 1_565 S
O121 Gd97 2.326 1_455 S
O121 C106 1.257 . S
O122 Gd97 2.376 . S
O122 C107 1.240 . S
O123 Gd96 2.395 1_665 S
O123 C107 1.240 . S
O124 Gd97 2.448 . S
O124 C108 1.249 . S
O125 Gd97 2.504 . S
O125 C108 1.252 . S
O126 Gd97 2.437 1_545 S
O126 C115 1.256 . S
O127 Gd96 2.327 1_655 S
O127 Gd97 2.718 1_545 S
O127 C115 1.257 . S
H128 C101 0.930 . S
H129 C102 0.931 . S
H130 C104 0.931 . S
H131 C105 0.931 . S
H132 C110 0.930 . S
H133 C111 0.931 . S
H134 C113 0.931 . S
H135 C114 0.931 . S
Gd136 C139 2.818 . S
Gd136 O156 2.377 . S
Gd136 O158 2.448 . S
Gd136 O159 2.506 . S
Gd136 O160 2.435 1_545 S
Gd136 O161 2.717 1_545 S
Gd136 O163 2.395 1_544 S
Gd136 O167 2.327 . S
Gd137 C148 2.818 1_545 S
Gd137 O157 2.395 1_556 S
Gd137 O161 2.327 1_546 S
Gd137 O162 2.377 1_545 S
Gd137 O164 2.448 1_545 S
Gd137 O165 2.506 1_545 S
Gd137 O166 2.435 . S
Gd137 O167 2.717 1_556 S
C138 O156 1.240 . S
C138 O157 1.240 . S
C139 Gd136 2.818 . S
C139 C140 1.510 . S
C139 O158 1.249 . S
C139 O159 1.252 . S
C140 C139 1.510 . S
C140 C141 1.404 . S
C140 C142 1.352 . S
C141 C140 1.404 . S
C141 C145 1.389 . S
C141 H168 0.930 . S
C142 C140 1.352 . S
C142 C144 1.374 . S
C142 H169 0.931 . S
C143 C144 1.359 . S
C143 C145 1.364 . S
C144 C142 1.374 . S
C144 C143 1.359 . S
C144 H170 0.931 . S
C145 C141 1.389 . S
C145 C143 1.364 . S
C145 H171 0.931 . S
C146 O160 1.256 . S
C146 O161 1.257 . S
C147 O162 1.240 . S
C147 O163 1.240 . S
C148 Gd137 2.818 1_565 S
C148 C149 1.510 . S
C148 O164 1.249 . S
C148 O165 1.252 . S
C149 C148 1.510 . S
C149 C150 1.404 . S
C149 C151 1.352 . S
C150 C149 1.404 . S
C150 C154 1.389 . S
C150 H172 0.930 . S
C151 C149 1.352 . S
C151 C153 1.374 . S
C151 H173 0.931 . S
C152 C153 1.359 . S
C152 C154 1.364 . S
C153 C151 1.374 . S
C153 C152 1.359 . S
C153 H174 0.931 . S
C154 C150 1.389 . S
C154 C152 1.364 . S
C154 H175 0.931 . S
C155 O166 1.256 . S
C155 O167 1.257 1_556 S
O156 Gd136 2.377 . S
O156 C138 1.240 . S
O157 Gd137 2.395 1_554 S
O157 C138 1.240 . S
O158 Gd136 2.448 . S
O158 C139 1.249 . S
O159 Gd136 2.506 . S
O159 C139 1.252 . S
O160 Gd136 2.435 1_565 S
O160 C146 1.256 . S
O161 Gd136 2.717 1_565 S
O161 Gd137 2.327 1_564 S
O161 C146 1.257 . S
O162 Gd137 2.377 1_565 S
O162 C147 1.240 . S
O163 Gd136 2.395 1_566 S
O163 C147 1.240 . S
O164 Gd137 2.448 1_565 S
O164 C148 1.249 . S
O165 Gd137 2.506 1_565 S
O165 C148 1.252 . S
O166 Gd137 2.435 . S
O166 C155 1.256 . S
O167 Gd136 2.327 . S
O167 Gd137 2.717 1_554 S
O167 C155 1.257 1_554 S
H168 C141 0.930 . S
H169 C142 0.931 . S
H170 C144 0.931 . S
H171 C145 0.931 . S
H172 C150 0.930 . S
H173 C151 0.931 . S
H174 C153 0.931 . S
H175 C154 0.931 . S
Gd176 C179 2.818 . S
Gd176 O196 2.377 . S
Gd176 O198 2.448 . S
Gd176 O199 2.506 . S
Gd176 O200 2.435 . S
Gd176 O201 2.717 . S
Gd176 O203 2.395 . S
Gd176 O207 2.327 . S
Gd177 C188 2.818 . S
Gd177 O197 2.395 . S
Gd177 O201 2.327 . S
Gd177 O202 2.377 . S
Gd177 O204 2.448 . S
Gd177 O205 2.506 . S
Gd177 O206 2.435 . S
Gd177 O207 2.717 . S
C178 O196 1.240 . S
C178 O197 1.240 . S
C179 Gd176 2.818 . S
C179 C180 1.510 . S
C179 O198 1.249 . S
C179 O199 1.252 . S
C180 C179 1.510 . S
C180 C181 1.404 . S
C180 C182 1.352 . S
C181 C180 1.404 . S
C181 C185 1.389 . S
C181 H208 0.930 . S
C182 C180 1.352 . S
C182 C184 1.374 . S
C182 H209 0.931 . S
C183 C184 1.359 . S
C183 C185 1.364 . S
C184 C182 1.374 . S
C184 C183 1.359 . S
C184 H210 0.931 . S
C185 C181 1.389 . S
C185 C183 1.364 . S
C185 H211 0.931 . S
C186 O200 1.256 . S
C186 O201 1.257 . S
C187 O202 1.240 . S
C187 O203 1.240 . S
C188 Gd177 2.818 . S
C188 C189 1.510 . S
C188 O204 1.249 . S
C188 O205 1.252 . S
C189 C188 1.510 . S
C189 C190 1.404 . S
C189 C191 1.352 . S
C190 C189 1.404 . S
C190 C194 1.389 . S
C190 H212 0.930 . S
C191 C189 1.352 . S
C191 C193 1.374 . S
C191 H213 0.931 . S
C192 C193 1.359 . S
C192 C194 1.364 . S
C193 C191 1.374 . S
C193 C192 1.359 . S
C193 H214 0.931 . S
C194 C190 1.389 . S
C194 C192 1.364 . S
C194 H215 0.931 . S
C195 O206 1.256 . S
C195 O207 1.257 . S
O196 Gd176 2.377 . S
O196 C178 1.240 . S
O197 Gd177 2.395 . S
O197 C178 1.240 . S
O198 Gd176 2.448 . S
O198 C179 1.249 . S
O199 Gd176 2.506 . S
O199 C179 1.252 . S
O200 Gd176 2.435 . S
O200 C186 1.256 . S
O201 Gd176 2.717 . S
O201 Gd177 2.327 . S
O201 C186 1.257 . S
O202 Gd177 2.377 . S
O202 C187 1.240 . S
O203 Gd176 2.395 . S
O203 C187 1.240 . S
O204 Gd177 2.448 . S
O204 C188 1.249 . S
O205 Gd177 2.506 . S
O205 C188 1.252 . S
O206 Gd177 2.435 . S
O206 C195 1.256 . S
O207 Gd176 2.327 . S
O207 Gd177 2.717 . S
O207 C195 1.257 . S
H208 C181 0.930 . S
H209 C182 0.931 . S
H210 C184 0.931 . S
H211 C185 0.931 . S
H212 C190 0.930 . S
H213 C191 0.931 . S
H214 C193 0.931 . S
H215 C194 0.931 . S
Gd216 C219 2.818 . S
Gd216 O236 2.377 . S
Gd216 O238 2.448 . S
Gd216 O239 2.506 . S
Gd216 O240 2.435 1_455 S
Gd216 O241 2.717 1_455 S
Gd216 O243 2.395 1_455 S
Gd216 O247 2.327 1_554 S
Gd217 C228 2.818 1_455 S
Gd217 O237 2.395 1_556 S
Gd217 O241 2.327 1_456 S
Gd217 O242 2.377 1_455 S
Gd217 O244 2.448 1_455 S
Gd217 O245 2.506 1_455 S
Gd217 O246 2.435 . S
Gd217 O247 2.717 . S
C218 O236 1.240 . S
C218 O237 1.240 . S
C219 Gd216 2.818 . S
C219 C220 1.510 . S
C219 O238 1.249 . S
C219 O239 1.252 . S
C220 C219 1.510 . S
C220 C221 1.404 . S
C220 C222 1.352 . S
C221 C220 1.404 . S
C221 C225 1.389 . S
C221 H248 0.930 . S
C222 C220 1.352 . S
C222 C224 1.374 . S
C222 H249 0.931 . S
C223 C224 1.359 . S
C223 C225 1.364 . S
C224 C222 1.374 . S
C224 C223 1.359 . S
C224 H250 0.931 . S
C225 C221 1.389 . S
C225 C223 1.364 . S
C225 H251 0.931 . S
C226 O240 1.256 . S
C226 O241 1.257 . S
C227 O242 1.240 . S
C227 O243 1.240 1_556 S
C228 Gd217 2.818 1_655 S
C228 C229 1.510 . S
C228 O244 1.249 . S
C228 O245 1.252 . S
C229 C228 1.510 . S
C229 C230 1.404 . S
C229 C231 1.352 . S
C230 C229 1.404 . S
C230 C234 1.389 . S
C230 H252 0.930 . S
C231 C229 1.352 . S
C231 C233 1.374 . S
C231 H253 0.931 . S
C232 C233 1.359 . S
C232 C234 1.364 . S
C233 C231 1.374 . S
C233 C232 1.359 . S
C233 H254 0.931 . S
C234 C230 1.389 . S
C234 C232 1.364 . S
C234 H255 0.931 . S
C235 O246 1.256 . S
C235 O247 1.257 . S
O236 Gd216 2.377 . S
O236 C218 1.240 . S
O237 Gd217 2.395 1_554 S
O237 C218 1.240 . S
O238 Gd216 2.448 . S
O238 C219 1.249 . S
O239 Gd216 2.506 . S
O239 C219 1.252 . S
O240 Gd216 2.435 1_655 S
O240 C226 1.256 . S
O241 Gd216 2.717 1_655 S
O241 Gd217 2.327 1_654 S
O241 C226 1.257 . S
O242 Gd217 2.377 1_655 S
O242 C227 1.240 . S
O243 Gd216 2.395 1_655 S
O243 C227 1.240 1_554 S
O244 Gd217 2.448 1_655 S
O244 C228 1.249 . S
O245 Gd217 2.506 1_655 S
O245 C228 1.252 . S
O246 Gd217 2.435 . S
O246 C235 1.256 . S
O247 Gd216 2.327 1_556 S
O247 Gd217 2.717 . S
O247 C235 1.257 . S
H248 C221 0.930 . S
H249 C222 0.931 . S
H250 C224 0.931 . S
H251 C225 0.931 . S
H252 C230 0.930 . S
H253 C231 0.931 . S
H254 C233 0.931 . S
H255 C234 0.931 . S
H256 C262 0.930 . S
H257 C266 0.930 . S
H258 C271 0.929 . S
H259 C269 0.929 . S
H260 C264 0.929 . S
H261 C270 0.929 . S
C262 H256 0.930 . S
C262 C263 1.367 . S
C262 C270 1.378 . S
C263 C262 1.367 . S
C263 C271 1.433 . S
C264 H260 0.929 . S
C264 C266 1.378 . S
C264 C268 1.350 . S
C265 C268 1.463 . S
C265 C270 1.350 . S
C265 N273 1.427 . S
C266 H257 0.930 . S
C266 C264 1.378 . S
C266 C267 1.367 . S
C267 C266 1.367 . S
C267 C269 1.433 . S
C268 C264 1.350 . S
C268 C265 1.463 . S
C268 N272 1.427 . S
C269 H259 0.929 . S
C269 C267 1.433 . S
C269 N272 1.384 . S
C270 H261 0.929 . S
C270 C262 1.378 . S
C270 C265 1.350 . S
C271 H258 0.929 . S
C271 C263 1.433 . S
C271 N273 1.384 . S
N272 C268 1.427 . S
N272 C269 1.384 . S
N273 C265 1.427 . S
N273 C271 1.384 . S
H274 C280 0.930 . S
H275 C284 0.930 . S
H276 C289 0.929 . S
H277 C287 0.929 . S
H278 C282 0.929 . S
H279 C288 0.929 . S
C280 H274 0.930 . S
C280 C281 1.367 . S
C280 C288 1.378 . S
C281 C280 1.367 . S
C281 C289 1.433 . S
C282 H278 0.929 . S
C282 C284 1.378 . S
C282 C286 1.350 . S
C283 C286 1.463 . S
C283 C288 1.350 . S
C283 N291 1.427 . S
C284 H275 0.930 . S
C284 C282 1.378 . S
C284 C285 1.367 . S
C285 C284 1.367 . S
C285 C287 1.433 . S
C286 C282 1.350 . S
C286 C283 1.463 . S
C286 N290 1.427 . S
C287 H277 0.929 . S
C287 C285 1.433 . S
C287 N290 1.384 . S
C288 H279 0.929 . S
C288 C280 1.378 . S
C288 C283 1.350 . S
C289 H276 0.929 . S
C289 C281 1.433 . S
C289 N291 1.384 . S
N290 C286 1.427 . S
N290 C287 1.384 . S
N291 C283 1.427 . S
N291 C289 1.384 . S
H292 C298 0.930 . S
H293 C302 0.930 . S
H294 C307 0.929 . S
H295 C305 0.929 . S
H296 C300 0.929 . S
H297 C306 0.929 . S
C298 H292 0.930 . S
C298 C299 1.367 . S
C298 C306 1.378 . S
C299 C298 1.367 . S
C299 C307 1.433 . S
C300 H296 0.929 . S
C300 C302 1.378 . S
C300 C304 1.350 . S
C301 C304 1.463 . S
C301 C306 1.350 . S
C301 N309 1.427 . S
C302 H293 0.930 . S
C302 C300 1.378 . S
C302 C303 1.367 . S
C303 C302 1.367 . S
C303 C305 1.433 . S
C304 C300 1.350 . S
C304 C301 1.463 . S
C304 N308 1.427 . S
C305 H295 0.929 . S
C305 C303 1.433 . S
C305 N308 1.384 . S
C306 H297 0.929 . S
C306 C298 1.378 . S
C306 C301 1.350 . S
C307 H294 0.929 . S
C307 C299 1.433 . S
C307 N309 1.384 . S
N308 C304 1.427 . S
N308 C305 1.384 . S
N309 C301 1.427 . S
N309 C307 1.384 . S
H310 C316 0.930 . S
H311 C320 0.930 . S
H312 C325 0.929 . S
H313 C323 0.929 1_455 S
H314 C318 0.929 . S
H315 C324 0.929 . S
C316 H310 0.930 . S
C316 C317 1.367 . S
C316 C324 1.378 . S
C317 C316 1.367 . S
C317 C325 1.433 . S
C318 H314 0.929 . S
C318 C320 1.378 . S
C318 C322 1.350 . S
C319 C322 1.463 . S
C319 C324 1.350 . S
C319 N327 1.427 . S
C320 H311 0.930 . S
C320 C318 1.378 . S
C320 C321 1.367 . S
C321 C320 1.367 . S
C321 C323 1.433 . S
C322 C318 1.350 . S
C322 C319 1.463 . S
C322 N326 1.427 . S
C323 H313 0.929 1_655 S
C323 C321 1.433 . S
C323 N326 1.384 . S
C324 H315 0.929 . S
C324 C316 1.378 . S
C324 C319 1.350 . S
C325 H312 0.929 . S
C325 C317 1.433 . S
C325 N327 1.384 . S
N326 C322 1.427 . S
N326 C323 1.384 . S
N327 C319 1.427 . S
N327 C325 1.384 . S
H328 C334 0.930 . S
H329 C338 0.930 . S
H330 C343 0.929 . S
H331 C341 0.929 . S
H332 C336 0.929 . S
H333 C342 0.929 . S
C334 H328 0.930 . S
C334 C335 1.367 . S
C334 C342 1.378 . S
C335 C334 1.367 . S
C335 C343 1.433 . S
C336 H332 0.929 . S
C336 C338 1.378 . S
C336 C340 1.350 . S
C337 C340 1.463 . S
C337 C342 1.350 . S
C337 N345 1.427 . S
C338 H329 0.930 . S
C338 C336 1.378 . S
C338 C339 1.367 . S
C339 C338 1.367 . S
C339 C341 1.433 . S
C340 C336 1.350 . S
C340 C337 1.463 . S
C340 N344 1.427 . S
C341 H331 0.929 . S
C341 C339 1.433 . S
C341 N344 1.384 . S
C342 H333 0.929 . S
C342 C334 1.378 . S
C342 C337 1.350 . S
C343 H330 0.929 . S
C343 C335 1.433 . S
C343 N345 1.384 . S
N344 C340 1.427 . S
N344 C341 1.384 . S
N345 C337 1.427 . S
N345 C343 1.384 . S
H346 C352 0.930 . S
H347 C356 0.930 . S
H348 C361 0.929 . S
H349 C359 0.929 . S
H350 C354 0.929 . S
H351 C360 0.929 . S
C352 H346 0.930 . S
C352 C353 1.367 . S
C352 C360 1.378 . S
C353 C352 1.367 . S
C353 C361 1.433 . S
C354 H350 0.929 . S
C354 C356 1.378 . S
C354 C358 1.350 . S
C355 C358 1.463 . S
C355 C360 1.350 . S
C355 N363 1.427 . S
C356 H347 0.930 . S
C356 C354 1.378 . S
C356 C357 1.367 . S
C357 C356 1.367 . S
C357 C359 1.433 . S
C358 C354 1.350 . S
C358 C355 1.463 . S
C358 N362 1.427 . S
C359 H349 0.929 . S
C359 C357 1.433 . S
C359 N362 1.384 . S
C360 H351 0.929 . S
C360 C352 1.378 . S
C360 C355 1.350 . S
C361 H348 0.929 . S
C361 C353 1.433 . S
C361 N363 1.384 . S
N362 C358 1.427 . S
N362 C359 1.384 . S
N363 C355 1.427 . S
N363 C361 1.384 . S
H364 C370 0.930 . S
H365 C374 0.930 . S
H366 C379 0.929 . S
H367 C377 0.929 . S
H368 C372 0.929 . S
H369 C378 0.929 . S
C370 H364 0.930 . S
C370 C371 1.367 . S
C370 C378 1.378 . S
C371 C370 1.367 . S
C371 C379 1.433 . S
C372 H368 0.929 . S
C372 C374 1.378 . S
C372 C376 1.350 . S
C373 C376 1.463 . S
C373 C378 1.350 . S
C373 N381 1.427 . S
C374 H365 0.930 . S
C374 C372 1.378 . S
C374 C375 1.367 . S
C375 C374 1.367 . S
C375 C377 1.433 . S
C376 C372 1.350 . S
C376 C373 1.463 . S
C376 N380 1.427 . S
C377 H367 0.929 . S
C377 C375 1.433 . S
C377 N380 1.384 . S
C378 H369 0.929 . S
C378 C370 1.378 . S
C378 C373 1.350 . S
C379 H366 0.929 . S
C379 C371 1.433 . S
C379 N381 1.384 . S
N380 C376 1.427 . S
N380 C377 1.384 . S
N381 C373 1.427 . S
N381 C379 1.384 . S
H382 C388 0.930 . S
H383 C392 0.930 . S
H384 C397 0.929 . S
H385 C395 0.929 . S
H386 C390 0.929 . S
H387 C396 0.929 . S
C388 H382 0.930 . S
C388 C389 1.367 . S
C388 C396 1.378 . S
C389 C388 1.367 . S
C389 C397 1.433 . S
C390 H386 0.929 . S
C390 C392 1.378 . S
C390 C394 1.350 . S
C391 C394 1.463 . S
C391 C396 1.350 . S
C391 N399 1.427 . S
C392 H383 0.930 . S
C392 C390 1.378 . S
C392 C393 1.367 . S
C393 C392 1.367 . S
C393 C395 1.433 . S
C394 C390 1.350 . S
C394 C391 1.463 . S
C394 N398 1.427 . S
C395 H385 0.929 . S
C395 C393 1.433 . S
C395 N398 1.384 . S
C396 H387 0.929 . S
C396 C388 1.378 . S
C396 C391 1.350 . S
C397 H384 0.929 . S
C397 C389 1.433 . S
C397 N399 1.384 . S
N398 C394 1.427 . S
N398 C395 1.384 . S
N399 C391 1.427 . S
N399 C397 1.384 . S
H400 C406 0.930 . S
H401 C410 0.930 . S
H402 C415 0.929 . S
H403 C413 0.929 . S
H404 C408 0.929 . S
H405 C414 0.929 . S
C406 H400 0.930 . S
C406 C407 1.367 . S
C406 C414 1.378 . S
C407 C406 1.367 . S
C407 C415 1.433 . S
C408 H404 0.929 . S
C408 C410 1.378 . S
C408 C412 1.350 . S
C409 C412 1.463 . S
C409 C414 1.350 . S
C409 N417 1.427 . S
C410 H401 0.930 . S
C410 C408 1.378 . S
C410 C411 1.367 . S
C411 C410 1.367 . S
C411 C413 1.433 . S
C412 C408 1.350 . S
C412 C409 1.463 . S
C412 N416 1.427 . S
C413 H403 0.929 . S
C413 C411 1.433 . S
C413 N416 1.384 . S
C414 H405 0.929 . S
C414 C406 1.378 . S
C414 C409 1.350 . S
C415 H402 0.929 . S
C415 C407 1.433 . S
C415 N417 1.384 . S
N416 C412 1.427 . S
N416 C413 1.384 . S
N417 C409 1.427 . S
N417 C415 1.384 . S
H418 C424 0.930 . S
H419 C428 0.930 . S
H420 C433 0.929 . S
H421 C431 0.929 . S
H422 C426 0.929 . S
H423 C432 0.929 . S
C424 H418 0.930 . S
C424 C425 1.367 . S
C424 C432 1.378 . S
C425 C424 1.367 . S
C425 C433 1.433 . S
C426 H422 0.929 . S
C426 C428 1.378 . S
C426 C430 1.350 . S
C427 C430 1.463 . S
C427 C432 1.350 . S
C427 N435 1.427 . S
C428 H419 0.930 . S
C428 C426 1.378 . S
C428 C429 1.367 . S
C429 C428 1.367 . S
C429 C431 1.433 . S
C430 C426 1.350 . S
C430 C427 1.463 . S
C430 N434 1.427 . S
C431 H421 0.929 . S
C431 C429 1.433 . S
C431 N434 1.384 . S
C432 H423 0.929 . S
C432 C424 1.378 . S
C432 C427 1.350 . S
C433 H420 0.929 . S
C433 C425 1.433 . S
C433 N435 1.384 . S
N434 C430 1.427 . S
N434 C431 1.384 . S
N435 C427 1.427 . S
N435 C433 1.384 . S
H436 C442 0.930 . S
H437 C446 0.930 . S
H438 C451 0.929 . S
H439 C449 0.929 . S
H440 C444 0.929 . S
H441 C450 0.929 . S
C442 H436 0.930 . S
C442 C443 1.367 . S
C442 C450 1.378 . S
C443 C442 1.367 . S
C443 C451 1.433 . S
C444 H440 0.929 . S
C444 C446 1.378 . S
C444 C448 1.350 . S
C445 C448 1.463 . S
C445 C450 1.350 . S
C445 N453 1.427 . S
C446 H437 0.930 . S
C446 C444 1.378 . S
C446 C447 1.367 . S
C447 C446 1.367 . S
C447 C449 1.433 . S
C448 C444 1.350 . S
C448 C445 1.463 . S
C448 N452 1.427 . S
C449 H439 0.929 . S
C449 C447 1.433 . S
C449 N452 1.384 . S
C450 H441 0.929 . S
C450 C442 1.378 . S
C450 C445 1.350 . S
C451 H438 0.929 . S
C451 C443 1.433 . S
C451 N453 1.384 . S
N452 C448 1.427 . S
N452 C449 1.384 . S
N453 C445 1.427 . S
N453 C451 1.384 . S
H454 C460 0.930 . S
H455 C464 0.930 . S
H456 C469 0.929 . S
H457 C467 0.929 . S
H458 C462 0.929 . S
H459 C468 0.929 . S
C460 H454 0.930 . S
C460 C461 1.367 . S
C460 C468 1.378 . S
C461 C460 1.367 . S
C461 C469 1.433 . S
C462 H458 0.929 . S
C462 C464 1.378 . S
C462 C466 1.350 . S
C463 C466 1.463 . S
C463 C468 1.350 . S
C463 N471 1.427 . S
C464 H455 0.930 . S
C464 C462 1.378 . S
C464 C465 1.367 . S
C465 C464 1.367 . S
C465 C467 1.433 . S
C466 C462 1.350 . S
C466 C463 1.463 . S
C466 N470 1.427 . S
C467 H457 0.929 . S
C467 C465 1.433 . S
C467 N470 1.384 . S
C468 H459 0.929 . S
C468 C460 1.378 . S
C468 C463 1.350 . S
C469 H456 0.929 . S
C469 C461 1.433 . S
C469 N471 1.384 . S
N470 C466 1.427 . S
N470 C467 1.384 . S
N471 C463 1.427 . S
N471 C469 1.384 . S
H472 C478 0.930 . S
H473 C482 0.930 . S
H474 C487 0.929 . S
H475 C485 0.929 . S
H476 C480 0.929 . S
H477 C486 0.929 . S
C478 H472 0.930 . S
C478 C479 1.367 . S
C478 C486 1.378 . S
C479 C478 1.367 . S
C479 C487 1.433 . S
C480 H476 0.929 . S
C480 C482 1.378 . S
C480 C484 1.350 . S
C481 C484 1.463 . S
C481 C486 1.350 . S
C481 N489 1.427 . S
C482 H473 0.930 . S
C482 C480 1.378 . S
C482 C483 1.367 . S
C483 C482 1.367 . S
C483 C485 1.433 . S
C484 C480 1.350 . S
C484 C481 1.463 . S
C484 N488 1.427 . S
C485 H475 0.929 . S
C485 C483 1.433 . S
C485 N488 1.384 . S
C486 H477 0.929 . S
C486 C478 1.378 . S
C486 C481 1.350 . S
C487 H474 0.929 . S
C487 C479 1.433 . S
C487 N489 1.384 . S
N488 C484 1.427 . S
N488 C485 1.384 . S
N489 C481 1.427 . S
N489 C487 1.384 . S
H490 C496 0.930 . S
H491 C500 0.930 . S
H492 C505 0.929 . S
H493 C503 0.929 . S
H494 C498 0.929 . S
H495 C504 0.929 . S
C496 H490 0.930 . S
C496 C497 1.367 . S
C496 C504 1.378 . S
C497 C496 1.367 . S
C497 C505 1.433 . S
C498 H494 0.929 . S
C498 C500 1.378 . S
C498 C502 1.350 . S
C499 C502 1.463 . S
C499 C504 1.350 . S
C499 N507 1.427 . S
C500 H491 0.930 . S
C500 C498 1.378 . S
C500 C501 1.367 . S
C501 C500 1.367 . S
C501 C503 1.433 . S
C502 C498 1.350 . S
C502 C499 1.463 . S
C502 N506 1.427 . S
C503 H493 0.929 . S
C503 C501 1.433 . S
C503 N506 1.384 . S
C504 H495 0.929 . S
C504 C496 1.378 . S
C504 C499 1.350 . S
C505 H492 0.929 . S
C505 C497 1.433 . S
C505 N507 1.384 . S
N506 C502 1.427 . S
N506 C503 1.384 . S
N507 C499 1.427 . S
N507 C505 1.384 . S
H508 C514 0.930 . S
H509 C518 0.930 . S
H510 C523 0.929 . S
H511 C521 0.929 . S
H512 C516 0.929 . S
H513 C522 0.929 . S
C514 H508 0.930 . S
C514 C515 1.367 . S
C514 C522 1.378 . S
C515 C514 1.367 . S
C515 C523 1.433 . S
C516 H512 0.929 . S
C516 C518 1.378 . S
C516 C520 1.350 . S
C517 C520 1.463 . S
C517 C522 1.350 . S
C517 N525 1.427 . S
C518 H509 0.930 . S
C518 C516 1.378 . S
C518 C519 1.367 . S
C519 C518 1.367 . S
C519 C521 1.433 . S
C520 C516 1.350 . S
C520 C517 1.463 . S
C520 N524 1.427 . S
C521 H511 0.929 . S
C521 C519 1.433 . S
C521 N524 1.384 . S
C522 H513 0.929 . S
C522 C514 1.378 . S
C522 C517 1.350 . S
C523 H510 0.929 . S
C523 C515 1.433 . S
C523 N525 1.384 . S
N524 C520 1.427 . S
N524 C521 1.384 . S
N525 C517 1.427 . S
N525 C523 1.384 . S
H526 C532 0.930 . S
H527 C536 0.930 . S
H528 C541 0.929 . S
H529 C539 0.929 . S
H530 C534 0.929 . S
H531 C540 0.929 . S
C532 H526 0.930 . S
C532 C533 1.367 . S
C532 C540 1.378 . S
C533 C532 1.367 . S
C533 C541 1.433 . S
C534 H530 0.929 . S
C534 C536 1.378 . S
C534 C538 1.350 . S
C535 C538 1.463 . S
C535 C540 1.350 . S
C535 N543 1.427 . S
C536 H527 0.930 . S
C536 C534 1.378 . S
C536 C537 1.367 . S
C537 C536 1.367 . S
C537 C539 1.433 . S
C538 C534 1.350 . S
C538 C535 1.463 . S
C538 N542 1.427 . S
C539 H529 0.929 . S
C539 C537 1.433 . S
C539 N542 1.384 . S
C540 H531 0.929 . S
C540 C532 1.378 . S
C540 C535 1.350 . S
C541 H528 0.929 . S
C541 C533 1.433 . S
C541 N543 1.384 . S
N542 C538 1.427 . S
N542 C539 1.384 . S
N543 C535 1.427 . S
N543 C541 1.384 . S
H544 C550 0.930 . S
H545 C554 0.930 . S
H546 C559 0.929 . S
H547 C557 0.929 . S
H548 C552 0.929 . S
H549 C558 0.929 . S
C550 H544 0.930 . S
C550 C551 1.367 . S
C550 C558 1.378 . S
C551 C550 1.367 . S
C551 C559 1.433 . S
C552 H548 0.929 . S
C552 C554 1.378 . S
C552 C556 1.350 . S
C553 C556 1.463 . S
C553 C558 1.350 . S
C553 N561 1.427 . S
C554 H545 0.930 . S
C554 C552 1.378 . S
C554 C555 1.367 . S
C555 C554 1.367 . S
C555 C557 1.433 . S
C556 C552 1.350 . S
C556 C553 1.463 . S
C556 N560 1.427 . S
C557 H547 0.929 . S
C557 C555 1.433 . S
C557 N560 1.384 . S
C558 H549 0.929 . S
C558 C550 1.378 . S
C558 C553 1.350 . S
C559 H546 0.929 . S
C559 C551 1.433 . S
C559 N561 1.384 . S
N560 C556 1.427 . S
N560 C557 1.384 . S
N561 C553 1.427 . S
N561 C559 1.384 . S
H562 C568 0.930 . S
H563 C572 0.930 . S
H564 C577 0.929 . S
H565 C575 0.929 . S
H566 C570 0.929 . S
H567 C576 0.929 . S
C568 H562 0.930 . S
C568 C569 1.367 . S
C568 C576 1.378 . S
C569 C568 1.367 . S
C569 C577 1.433 . S
C570 H566 0.929 . S
C570 C572 1.378 . S
C570 C574 1.350 . S
C571 C574 1.463 . S
C571 C576 1.350 . S
C571 N579 1.427 . S
C572 H563 0.930 . S
C572 C570 1.378 . S
C572 C573 1.367 . S
C573 C572 1.367 . S
C573 C575 1.433 . S
C574 C570 1.350 . S
C574 C571 1.463 . S
C574 N578 1.427 . S
C575 H565 0.929 . S
C575 C573 1.433 . S
C575 N578 1.384 . S
C576 H567 0.929 . S
C576 C568 1.378 . S
C576 C571 1.350 . S
C577 H564 0.929 . S
C577 C569 1.433 . S
C577 N579 1.384 . S
N578 C574 1.427 . S
N578 C575 1.384 . S
N579 C571 1.427 . S
N579 C577 1.384 . S
H580 C586 0.930 . S
H581 C590 0.930 . S
H582 C595 0.929 . S
H583 C593 0.929 . S
H584 C588 0.929 . S
H585 C594 0.929 . S
C586 H580 0.930 . S
C586 C587 1.367 . S
C586 C594 1.378 . S
C587 C586 1.367 . S
C587 C595 1.433 . S
C588 H584 0.929 . S
C588 C590 1.378 . S
C588 C592 1.350 . S
C589 C592 1.463 . S
C589 C594 1.350 . S
C589 N597 1.427 . S
C590 H581 0.930 . S
C590 C588 1.378 . S
C590 C591 1.367 . S
C591 C590 1.367 . S
C591 C593 1.433 . S
C592 C588 1.350 . S
C592 C589 1.463 . S
C592 N596 1.427 . S
C593 H583 0.929 . S
C593 C591 1.433 . S
C593 N596 1.384 . S
C594 H585 0.929 . S
C594 C586 1.378 . S
C594 C589 1.350 . S
C595 H582 0.929 . S
C595 C587 1.433 . S
C595 N597 1.384 . S
N596 C592 1.427 . S
N596 C593 1.384 . S
N597 C589 1.427 . S
N597 C595 1.384 . S
H598 C604 0.930 . S
H599 C608 0.930 . S
H600 C613 0.929 . S
H601 C611 0.929 . S
H602 C606 0.929 . S
H603 C612 0.929 . S
C604 H598 0.930 . S
C604 C605 1.367 . S
C604 C612 1.378 . S
C605 C604 1.367 . S
C605 C613 1.433 . S
C606 H602 0.929 . S
C606 C608 1.378 . S
C606 C610 1.350 . S
C607 C610 1.463 . S
C607 C612 1.350 . S
C607 N615 1.427 . S
C608 H599 0.930 . S
C608 C606 1.378 . S
C608 C609 1.367 . S
C609 C608 1.367 . S
C609 C611 1.433 . S
C610 C606 1.350 . S
C610 C607 1.463 . S
C610 N614 1.427 . S
C611 H601 0.929 . S
C611 C609 1.433 . S
C611 N614 1.384 . S
C612 H603 0.929 . S
C612 C604 1.378 . S
C612 C607 1.350 . S
C613 H600 0.929 . S
C613 C605 1.433 . S
C613 N615 1.384 . S
N614 C610 1.427 . S
N614 C611 1.384 . S
N615 C607 1.427 . S
N615 C613 1.384 . S
H616 C622 0.930 . S
H617 C626 0.930 . S
H618 C631 0.929 . S
H619 C629 0.929 . S
H620 C624 0.929 . S
H621 C630 0.929 . S
C622 H616 0.930 . S
C622 C623 1.367 . S
C622 C630 1.378 . S
C623 C622 1.367 . S
C623 C631 1.433 . S
C624 H620 0.929 . S
C624 C626 1.378 . S
C624 C628 1.350 . S
C625 C628 1.463 . S
C625 C630 1.350 . S
C625 N633 1.427 . S
C626 H617 0.930 . S
C626 C624 1.378 . S
C626 C627 1.367 . S
C627 C626 1.367 . S
C627 C629 1.433 . S
C628 C624 1.350 . S
C628 C625 1.463 . S
C628 N632 1.427 . S
C629 H619 0.929 . S
C629 C627 1.433 . S
C629 N632 1.384 . S
C630 H621 0.929 . S
C630 C622 1.378 . S
C630 C625 1.350 . S
C631 H618 0.929 . S
C631 C623 1.433 . S
C631 N633 1.384 . S
N632 C628 1.427 . S
N632 C629 1.384 . S
N633 C625 1.427 . S
N633 C631 1.384 . S
H634 C640 0.930 . S
H635 C644 0.930 . S
H636 C649 0.929 . S
H637 C647 0.929 . S
H638 C642 0.929 . S
H639 C648 0.929 . S
C640 H634 0.930 . S
C640 C641 1.367 . S
C640 C648 1.378 . S
C641 C640 1.367 . S
C641 C649 1.433 . S
C642 H638 0.929 . S
C642 C644 1.378 . S
C642 C646 1.350 . S
C643 C646 1.463 . S
C643 C648 1.350 . S
C643 N651 1.427 . S
C644 H635 0.930 . S
C644 C642 1.378 . S
C644 C645 1.367 . S
C645 C644 1.367 . S
C645 C647 1.433 . S
C646 C642 1.350 . S
C646 C643 1.463 . S
C646 N650 1.427 . S
C647 H637 0.929 . S
C647 C645 1.433 . S
C647 N650 1.384 . S
C648 H639 0.929 . S
C648 C640 1.378 . S
C648 C643 1.350 . S
C649 H636 0.929 . S
C649 C641 1.433 . S
C649 N651 1.384 . S
N650 C646 1.427 . S
N650 C647 1.384 . S
N651 C643 1.427 . S
N651 C649 1.384 . S
H652 C658 0.930 . S
H653 C662 0.930 . S
H654 C667 0.929 . S
H655 C665 0.929 . S
H656 C660 0.929 . S
H657 C666 0.929 . S
C658 H652 0.930 . S
C658 C659 1.367 . S
C658 C666 1.378 . S
C659 C658 1.367 . S
C659 C667 1.433 . S
C660 H656 0.929 . S
C660 C662 1.378 . S
C660 C664 1.350 . S
C661 C664 1.463 . S
C661 C666 1.350 . S
C661 N669 1.427 . S
C662 H653 0.930 . S
C662 C660 1.378 . S
C662 C663 1.367 . S
C663 C662 1.367 . S
C663 C665 1.433 . S
C664 C660 1.350 . S
C664 C661 1.463 . S
C664 N668 1.427 . S
C665 H655 0.929 . S
C665 C663 1.433 . S
C665 N668 1.384 . S
C666 H657 0.929 . S
C666 C658 1.378 . S
C666 C661 1.350 . S
C667 H654 0.929 . S
C667 C659 1.433 . S
C667 N669 1.384 . S
N668 C664 1.427 . S
N668 C665 1.384 . S
N669 C661 1.427 . S
N669 C667 1.384 . S
H670 C676 0.930 . S
H671 C680 0.930 . S
H672 C685 0.929 . S
H673 C683 0.929 . S
H674 C678 0.929 . S
H675 C684 0.929 . S
C676 H670 0.930 . S
C676 C677 1.367 . S
C676 C684 1.378 . S
C677 C676 1.367 . S
C677 C685 1.433 . S
C678 H674 0.929 . S
C678 C680 1.378 . S
C678 C682 1.350 . S
C679 C682 1.463 . S
C679 C684 1.350 . S
C679 N687 1.427 . S
C680 H671 0.930 . S
C680 C678 1.378 . S
C680 C681 1.367 . S
C681 C680 1.367 . S
C681 C683 1.433 . S
C682 C678 1.350 . S
C682 C679 1.463 . S
C682 N686 1.427 . S
C683 H673 0.929 . S
C683 C681 1.433 . S
C683 N686 1.384 . S
C684 H675 0.929 . S
C684 C676 1.378 . S
C684 C679 1.350 . S
C685 H672 0.929 . S
C685 C677 1.433 . S
C685 N687 1.384 . S
N686 C682 1.427 . S
N686 C683 1.384 . S
N687 C679 1.427 . S
N687 C685 1.384 . S
C263 C6 1.054 . S
C267 C103 1.090 . S
C281 C18 1.275 . S
C285 C152 1.264 . S
C303 C178 2.554 . S
C299 C28 2.591 . S
C317 C40 1.788 . S
C321 C226 1.749 . S
C339 C138 2.337 . S
C335 C9 2.236 . S
C357 C106 0.911 . S
C353 C16 0.918 . S
C375 C227 1.881 . S
C371 C30 1.901 . S
C393 C195 1.271 . S
C389 C42 1.295 . S
C407 C4 1.494 . S
C411 C223 1.519 . S
C429 C155 2.505 . S
C425 C33 2.573 . S
C443 C45 2.069 . S
C447 C107 2.062 . S
C461 C21 1.055 . S
C465 C192 1.081 . S
C483 C112 1.102 . S
C479 C57 1.084 . S
C497 C66 1.297 . S
C501 C143 1.282 . S
C515 C76 2.639 . S
C519 C187 2.602 . S
C533 C88 1.724 . S
C537 C235 1.697 . S
C551 C54 2.214 . S
C555 C147 2.320 . S
C573 C115 1.023 . S
C569 C64 1.036 . S
C591 C218 1.789 . S
C587 C78 1.823 . S
C609 C186 1.307 . S
C605 C93 1.336 . S
C623 C52 1.458 . S
C627 C232 1.525 . S
C645 C146 2.489 . S
C641 C81 2.561 . S
C663 C98 2.042 . S
C659 C90 2.046 . S
C677 C69 1.076 . S
C681 C183 1.094 . S
