# Generated by pormake.
# Topology anh, (6,3)-cn, num edge types: 1
# Building blocks:
#     Node 0, Type 0, BuildingBlock: PAMTUU_clean_sbu_0, # of connection points: 6
#     Node 1, Type 0, BuildingBlock: PAMTUU_clean_sbu_0, # of connection points: 6
#     Node 2, Type 0, BuildingBlock: PAMTUU_clean_sbu_0, # of connection points: 6
#     Node 3, Type 1, BuildingBlock: BETDIP_clean_linker_0, # of connection points: 3
#     Node 4, Type 1, BuildingBlock: BETDIP_clean_linker_0, # of connection points: 3
#     Node 5, Type 1, BuildingBlock: BETDIP_clean_linker_0, # of connection points: 3
#     Node 6, Type 1, BuildingBlock: BETDIP_clean_linker_0, # of connection points: 3
#     Node 7, Type 1, BuildingBlock: BETDIP_clean_linker_0, # of connection points: 3
#     Node 8, Type 1, BuildingBlock: BETDIP_clean_linker_0, # of connection points: 3
#     Edge 9, Type (0, 1), BuildingBlock: TEMPAE_clean_linker_10, # of connection points: 2
#     Edge 10, Type (0, 1), BuildingBlock: TEMPAE_clean_linker_10, # of connection points: 2
#     Edge 11, Type (0, 1), BuildingBlock: TEMPAE_clean_linker_10, # of connection points: 2
#     Edge 12, Type (0, 1), BuildingBlock: TEMPAE_clean_linker_10, # of connection points: 2
#     Edge 13, Type (0, 1), BuildingBlock: TEMPAE_clean_linker_10, # of connection points: 2
#     Edge 14, Type (0, 1), BuildingBlock: TEMPAE_clean_linker_10, # of connection points: 2
#     Edge 15, Type (0, 1), BuildingBlock: TEMPAE_clean_linker_10, # of connection points: 2
#     Edge 16, Type (0, 1), BuildingBlock: TEMPAE_clean_linker_10, # of connection points: 2
#     Edge 17, Type (0, 1), BuildingBlock: TEMPAE_clean_linker_10, # of connection points: 2
#     Edge 18, Type (0, 1), BuildingBlock: TEMPAE_clean_linker_10, # of connection points: 2
#     Edge 19, Type (0, 1), BuildingBlock: TEMPAE_clean_linker_10, # of connection points: 2
#     Edge 20, Type (0, 1), BuildingBlock: TEMPAE_clean_linker_10, # of connection points: 2
#     Edge 21, Type (0, 1), BuildingBlock: TEMPAE_clean_linker_10, # of connection points: 2
#     Edge 22, Type (0, 1), BuildingBlock: TEMPAE_clean_linker_10, # of connection points: 2
#     Edge 23, Type (0, 1), BuildingBlock: TEMPAE_clean_linker_10, # of connection points: 2
#     Edge 24, Type (0, 1), BuildingBlock: TEMPAE_clean_linker_10, # of connection points: 2
#     Edge 25, Type (0, 1), BuildingBlock: TEMPAE_clean_linker_10, # of connection points: 2
#     Edge 26, Type (0, 1), BuildingBlock: TEMPAE_clean_linker_10, # of connection points: 2
# Relax obj value: 0.246
# Max RMSD: 0.171
# Mean RMSD: 0.117
data_MOF--net-anh--node1-PAMTUU_clean_sbu_0--node2-BETDIP_clean_linker_0--edge1-TEMPAE_clean_linker_10
_symmetry_space_group_name_H-M    P1
_symmetry_Int_Tables_number       1
_symmetry_cell_setting            triclinic
loop_
_symmetry_equiv_pos_as_xyz
'x, y, z'
_cell_length_a     30.904316
_cell_length_b     30.95816
_cell_length_c     50.090803
_cell_angle_alpha  94.828077
_cell_angle_beta   91.343141
_cell_angle_gamma 120.04214
loop_
_atom_site_label
_atom_site_type_symbol
_atom_site_fract_x
_atom_site_fract_y
_atom_site_fract_z
_atom_type_partial_charge
Tb0 Tb 0.12675 0.69771 0.15289 0.0
Tb1 Tb 0.18918 0.64158 0.16243 0.0
C2 C 0.16433 0.65967 0.10478 0.0
C3 C 1.02132 0.71763 0.15636 0.0
C4 C 0.91919 0.6597 0.16609 0.0
C5 C 0.93335 0.68203 0.14203 0.0
C6 C 0.98395 0.71078 0.13725 0.0
C7 C 1.00737 0.69845 0.18121 0.0
C8 C 0.95684 0.67006 0.18607 0.0
C9 C 1.07303 0.73674 0.14857 0.0
O10 O 1.06933 0.61622 0.14588 0.0
O11 O 1.11133 0.58109 0.16479 0.0
O12 O 0.18161 0.67345 0.20152 0.0
O13 O 1.1068 0.66659 0.19043 0.0
O14 O 0.22406 0.60238 0.14745 0.0
O15 O 0.22318 0.61795 0.19007 0.0
O16 O 0.24732 0.7178 0.15531 0.0
O17 O 0.20459 0.75884 0.16632 0.0
O18 O 0.1609 0.69766 0.11571 0.0
O19 O 0.1647 0.62679 0.11963 0.0
C20 C 1.06927 0.57712 0.15501 0.0
O21 O 1.10764 0.75075 0.16814 0.0
O22 O 1.07757 0.70918 0.12886 0.0
C23 C 0.1386 0.66786 0.20838 0.0
C24 C 0.29321 0.61523 0.1748 0.0
C25 C 0.39215 0.63413 0.17546 0.0
C26 C 0.35544 0.59374 0.18783 0.0
C27 C 0.30633 0.58435 0.18744 0.0
C28 C 0.33037 0.65776 0.16416 0.0
C29 C 0.37958 0.6671 0.16443 0.0
C30 C 0.24016 0.60026 0.17126 0.0
C31 C 0.2472 0.75998 0.16161 0.0
H32 H 0.90545 0.67438 0.12604 0.0
H33 H 0.99378 0.72482 0.11789 0.0
H34 H 1.0353 0.70286 0.19636 0.0
H35 H 0.94728 0.6541 0.20497 0.0
H36 H 0.36373 0.56726 0.19614 0.0
H37 H 0.27805 0.55152 0.19586 0.0
H38 H 0.32089 0.68235 0.15458 0.0
H39 H 0.40721 0.69862 0.15489 0.0
Tb40 Tb 0.61158 0.10744 0.48159 0.0
Tb41 Tb 0.73251 0.17074 0.49459 0.0
C42 C 0.68236 0.14524 0.43626 0.0
C43 C 0.48061 1.00315 0.47786 0.0
C44 C 0.40394 0.90648 0.48645 0.0
C45 C 0.44267 0.91241 0.47029 0.0
C46 C 0.48087 0.96036 0.46613 0.0
C47 C 0.44312 0.99715 0.49495 0.0
C48 C 0.40526 0.94924 0.49934 0.0
C49 C 0.51832 1.05405 0.47218 0.0
O50 O 0.6345 1.04982 0.47676 0.0
O51 O 0.71483 0.09279 0.49699 0.0
O52 O 0.69974 0.16826 0.53301 0.0
O53 O 0.62522 0.09571 0.52178 0.0
O54 O 0.8029 0.21951 0.48124 0.0
O55 O 0.79685 0.19444 0.52047 0.0
O56 O 0.71241 0.22959 0.4918 0.0
O57 O 0.62645 0.18485 0.49219 0.0
O58 O 0.64413 0.14493 0.44692 0.0
O59 O 0.71685 0.14402 0.45151 0.0
C60 C 0.67463 1.05017 0.48708 0.0
O61 O 0.53966 0.08747 0.4931 0.0
O62 O 0.55036 1.05748 0.4547 0.0
C63 C 0.65894 0.12942 0.5398 0.0
C64 C 0.85316 0.27961 0.51643 0.0
C65 C 0.89699 0.38482 0.5272 0.0
C66 C 0.92553 0.36342 0.51763 0.0
C67 C 0.9035 0.31126 0.5119 0.0
C68 C 0.82627 0.30025 0.52858 0.0
C69 C 0.84771 0.35208 0.53378 0.0
C70 C 0.82591 0.22686 0.50474 0.0
C71 C 0.66902 0.22816 0.49302 0.0
H72 H 0.44231 0.87992 0.46011 0.0
H73 H 0.50968 0.96373 0.45313 0.0
H74 H 0.44228 1.02955 0.50431 0.0
H75 H 0.37535 0.94566 0.51152 0.0
H76 H 0.96416 0.38679 0.51329 0.0
H77 H 0.92498 0.2959 0.50268 0.0
H78 H 0.78733 0.27639 0.53236 0.0
H79 H 0.82382 0.3659 0.54113 0.0
Tb80 Tb 0.67489 0.57286 0.81324 0.0
Tb81 Tb 0.73209 0.69202 0.83008 0.0
C82 C 0.7077 0.64605 0.77014 0.0
C83 C 0.64558 0.4413 0.80882 0.0
C84 C 0.66571 0.3651 0.81974 0.0
C85 C 0.69587 0.40141 0.8031 0.0
C86 C 0.68603 0.43932 0.79774 0.0
C87 C 0.61672 0.40614 0.82629 0.0
C88 C 0.62685 0.36853 0.83182 0.0
C89 C 0.63271 0.47931 0.80235 0.0
O90 O 0.7552 0.5966 0.81043 0.0
O91 O 0.7934 0.67517 0.83431 0.0
O92 O 0.69759 0.65368 0.86505 0.0
O93 O 0.70694 0.58679 0.85369 0.0
O94 O 0.75533 0.76453 0.81992 0.0
O95 O 0.76855 0.75291 0.86035 0.0
O96 O 0.65376 0.67116 0.81955 0.0
O97 O 0.61434 0.58769 0.82499 0.0
O98 O 0.66951 0.60676 0.77833 0.0
O99 O 0.7433 0.68017 0.78763 0.0
C100 C 0.79574 0.6363 0.82283 0.0
O101 O 0.62255 0.50109 0.82267 0.0
O102 O 0.66052 0.51117 0.78594 0.0
C103 C 0.70024 0.61505 0.87185 0.0
C104 C 0.73766 0.80739 0.8543 0.0
C105 C 0.67312 0.84712 0.85991 0.0
C106 C 0.72506 0.87896 0.85781 0.0
C107 C 0.75685 0.85907 0.85453 0.0
C108 C 0.68735 0.77642 0.85921 0.0
C109 C 0.65532 0.79573 0.86155 0.0
C110 C 0.76661 0.78391 0.84495 0.0
C111 C 0.61248 0.62903 0.82295 0.0
H112 H 0.72602 0.39944 0.79354 0.0
H113 H 0.70939 0.46624 0.78444 0.0
H114 H 0.58548 0.40701 0.83517 0.0
H115 H 0.60251 0.34048 0.84436 0.0
H116 H 0.74103 0.91896 0.85748 0.0
H117 H 0.79576 0.88367 0.85097 0.0
H118 H 0.6719 0.73647 0.85955 0.0
H119 H 0.61597 0.76921 0.86278 0.0
H120 H 0.61549 0.12368 0.15801 0.0
H121 H 0.71904 0.20285 0.22794 0.0
H122 H 0.58135 1.06818 0.23566 0.0
H123 H 0.72404 0.27096 0.20803 0.0
C124 C 0.73573 0.26196 0.18907 0.0
C125 C 0.62522 0.12698 0.17927 0.0
C126 C 0.59252 0.08802 0.19505 0.0
C127 C 0.67086 0.17031 0.1913 0.0
C128 C 0.6835 0.17243 0.21877 0.0
C129 C 0.65186 0.13546 0.23461 0.0
C130 C 0.60653 0.09482 0.22277 0.0
N131 N 0.70493 0.21091 0.17632 0.0
H132 H 0.66318 0.59133 0.49062 0.0
H133 H 0.69898 0.6971 0.56125 0.0
H134 H 0.69731 0.55979 0.56835 0.0
H135 H 0.63458 0.70301 0.53927 0.0
C136 C 0.65388 0.71463 0.52108 0.0
C137 C 0.67348 0.60198 0.51196 0.0
C138 C 0.67892 0.56821 0.52799 0.0
C139 C 0.67931 0.64874 0.52402 0.0
C140 C 0.69249 0.66136 0.55184 0.0
C141 C 0.69833 0.62932 0.56784 0.0
C142 C 0.69229 0.58388 0.55571 0.0
N143 N 0.67227 0.68325 0.5089 0.0
H144 H 0.16058 0.62968 0.82373 0.0
H145 H 0.23545 0.63021 0.89796 0.0
H146 H 1.09866 0.63292 0.89978 0.0
H147 H 0.30501 0.67934 0.87668 0.0
C148 C 0.2965 0.65488 0.85808 0.0
C149 C 0.1626 0.6306 0.84539 0.0
C150 C 0.12243 0.62922 0.85999 0.0
C151 C 0.20525 0.63267 0.85909 0.0
C152 C 0.20564 0.63191 0.88723 0.0
C153 C 0.16733 0.63162 0.90187 0.0
C154 C 0.12703 0.63123 0.88815 0.0
N155 N 0.24652 0.63368 0.84506 0.0
H156 H 1.01957 0.70594 0.46754 0.0
H157 H 0.9568 0.65996 0.38587 0.0
H158 H 1.09162 0.65985 0.40942 0.0
H159 H 0.90482 0.70784 0.46605 0.0
C160 C 0.92308 0.68669 0.4603 0.0
C161 C 1.0185 0.68883 0.44766 0.0
C162 C 1.0578 0.68061 0.44121 0.0
C163 C 0.98057 0.67922 0.42806 0.0
C164 C 0.9842 0.66433 0.40136 0.0
C165 C 1.02399 0.65667 0.39453 0.0
C166 C 1.05946 0.66307 0.41479 0.0
N167 N 0.94165 0.68946 0.43435 0.0
H168 H 0.49394 0.982 0.78758 0.0
H169 H 0.49071 0.94828 0.70237 0.0
H170 H 0.62081 1.07462 0.74515 0.0
H171 H 0.37634 0.87618 0.76975 0.0
C172 C 0.4159 0.89081 0.76734 0.0
C173 C 0.5131 0.988 0.76932 0.0
C174 C 0.56131 1.02977 0.76953 0.0
C175 C 0.48814 0.95704 0.74532 0.0
C176 C 0.51121 0.9699 0.72114 0.0
C177 C 0.5591 1.01259 0.721 0.0
C178 C 0.58457 1.04088 0.74539 0.0
N179 N 0.43767 0.91674 0.7447 0.0
H180 H 0.56125 0.43266 0.11903 0.0
H181 H 0.60718 0.41533 0.04037 0.0
H182 H 0.60903 0.55158 0.06845 0.0
H183 H 0.56963 0.32616 0.11774 0.0
C184 C 0.59147 0.36205 0.10996 0.0
C185 C 0.57602 0.44795 0.10046 0.0
C186 C 0.58524 0.49597 0.09639 0.0
C187 C 0.58446 0.41895 0.08047 0.0
C188 C 0.60146 0.43794 0.05602 0.0
C189 C 0.61092 0.48613 0.05185 0.0
C190 C 0.60317 0.51504 0.07211 0.0
N191 N 0.57564 0.37058 0.08503 0.0
C192 C 0.4655 0.62514 0.18935 0.0
C193 C 0.43973 0.63564 0.16987 0.0
C194 C 0.50155 0.61229 0.18209 0.0
C195 C 0.51099 0.609 0.15471 0.0
C196 C 0.48923 0.62509 0.13557 0.0
C197 C 0.45399 0.63847 0.14344 0.0
C198 C 0.52579 0.59763 0.20325 0.0
C199 C 0.49848 0.62245 0.10616 0.0
C200 C 0.60227 0.57477 0.12418 0.0
C201 C 0.57012 0.52359 0.11583 0.0
C202 C 0.58493 0.60275 0.13911 0.0
C203 C 0.534 0.57907 0.14498 0.0
C204 C 0.50241 0.52668 0.13799 0.0
C205 C 0.52105 0.49954 0.12369 0.0
C206 C 0.62031 0.65803 0.14709 0.0
C207 C 0.44772 0.49986 0.14371 0.0
H208 H 0.45521 0.62388 0.20994 0.0
H209 H 0.43416 0.64644 0.12826 0.0
H210 H 0.50558 0.55614 0.2027 0.0
H211 H 0.56541 0.6103 0.19943 0.0
H212 H 0.5245 0.61365 0.22371 0.0
H213 H 0.48359 0.64184 0.09452 0.0
H214 H 0.53913 0.63953 0.10358 0.0
H215 H 0.47993 0.58253 0.0975 0.0
H216 H 0.64048 0.59318 0.11831 0.0
H217 H 0.49614 0.46002 0.11708 0.0
H218 H 0.61215 0.67056 0.16677 0.0
H219 H 0.61586 0.67977 0.13184 0.0
H220 H 0.65999 0.6671 0.14823 0.0
H221 H 0.44374 0.50713 0.1653 0.0
H222 H 0.42915 0.45861 0.13828 0.0
H223 H 0.42757 0.5143 0.13208 0.0
C224 C 0.89361 0.46306 0.54221 0.0
C225 C 0.91478 0.43955 0.52647 0.0
C226 C 0.89748 0.50814 0.53589 0.0
C227 C 0.92642 0.5323 0.51469 0.0
C228 C 0.95449 0.51324 0.50171 0.0
C229 C 0.94726 0.46645 0.50714 0.0
C230 C 0.86764 0.52785 0.55055 0.0
C231 C 0.98925 0.54038 0.48054 0.0
C232 C 0.88776 0.5971 0.46678 0.0
C233 C 0.91826 0.64747 0.47678 0.0
C234 C 0.88787 0.55918 0.48009 0.0
C235 C 0.9213 0.57234 0.50316 0.0
C236 C 0.95119 0.62339 0.51377 0.0
C237 C 0.94807 0.66037 0.50082 0.0
C238 C 0.85357 0.50514 0.46876 0.0
C239 C 0.9897 0.63992 0.53718 0.0
H240 H 0.87109 0.44475 0.55839 0.0
H241 H 0.96472 0.44998 0.49484 0.0
H242 H 0.89315 0.56625 0.56057 0.0
H243 H 0.8416 0.53046 0.53601 0.0
H244 H 0.84546 0.50361 0.56594 0.0
H245 H 1.01587 0.52678 0.47658 0.0
H246 H 0.96698 0.53423 0.46146 0.0
H247 H 1.01098 0.58145 0.48678 0.0
H248 H 0.86449 0.58749 0.44823 0.0
H249 H 0.97192 0.69967 0.5083 0.0
H250 H 0.83376 0.48213 0.48501 0.0
H251 H 0.87592 0.48962 0.45957 0.0
H252 H 0.82532 0.50118 0.45315 0.0
H253 H 0.97898 0.61108 0.5513 0.0
H254 H 0.99624 0.67542 0.54843 0.0
H255 H 1.02573 0.64705 0.52931 0.0
C256 C 0.64702 0.90425 0.84077 0.0
C257 C 0.63656 0.8651 0.85657 0.0
C258 C 0.60922 0.91346 0.83209 0.0
C259 C 0.5592 0.88094 0.83789 0.0
C260 C 0.54922 0.8453 0.85622 0.0
C261 C 0.58837 0.83886 0.86595 0.0
C262 C 0.62229 0.95556 0.81489 0.0
C263 C 0.49683 0.81205 0.86439 0.0
C264 C 0.45227 0.89939 0.81376 0.0
C265 C 0.44594 0.88108 0.78661 0.0
C266 C 0.48922 0.90009 0.83098 0.0
C267 C 0.51754 0.87842 0.82109 0.0
C268 C 0.50766 0.8559 0.79406 0.0
C269 C 0.47302 0.85888 0.77702 0.0
C270 C 0.49873 0.9264 0.85908 0.0
C271 C 0.53482 0.83049 0.78218 0.0
H272 H 0.68377 0.92589 0.8335 0.0
H273 H 0.5802 0.811 0.8797 0.0
H274 H 0.61644 0.94072 0.79338 0.0
H275 H 0.59816 0.97232 0.81842 0.0
H276 H 0.66218 0.9856 0.81897 0.0
H277 H 0.49438 0.7823 0.87627 0.0
H278 H 0.48507 0.83512 0.87686 0.0
H279 H 0.4698 0.79397 0.84642 0.0
H280 H 0.4313 0.91695 0.82098 0.0
H281 H 0.46769 0.8445 0.75596 0.0
H282 H 0.5007 0.96312 0.8584 0.0
H283 H 0.53373 0.93309 0.86976 0.0
H284 H 0.46662 0.90353 0.87091 0.0
H285 H 0.56379 0.85605 0.76952 0.0
H286 H 0.50835 0.79597 0.76887 0.0
H287 H 0.55325 0.82012 0.79754 0.0
C288 C 0.85592 0.57507 0.17836 0.0
C289 C 0.86628 0.62015 0.16843 0.0
C290 C 0.80753 0.53291 0.17496 0.0
C291 C 0.76884 0.53584 0.16118 0.0
C292 C 0.77762 0.58264 0.15397 0.0
C293 C 0.8264 0.62432 0.15758 0.0
C294 C 0.79873 0.48403 0.18401 0.0
C295 C 0.73639 0.58763 0.14046 0.0
C296 C 0.68138 0.42566 0.11103 0.0
C297 C 0.63812 0.40201 0.12482 0.0
C298 C 0.72435 0.46854 0.12303 0.0
C299 C 0.72358 0.48886 0.14933 0.0
C300 C 0.68014 0.46433 0.16364 0.0
C301 C 0.63783 0.42057 0.15122 0.0
C302 C 0.77006 0.49288 0.10714 0.0
C303 C 0.67691 0.48567 0.19123 0.0
H304 H 0.88626 0.57131 0.18689 0.0
H305 H 0.83378 0.65945 0.15064 0.0
H306 H 0.76685 0.46887 0.19696 0.0
H307 H 0.78859 0.45575 0.16633 0.0
H308 H 0.83221 0.48856 0.19538 0.0
H309 H 0.74657 0.62753 0.14057 0.0
H310 H 0.72886 0.5705 0.11927 0.0
H311 H 0.70112 0.56733 0.15055 0.0
H312 H 0.68111 0.4111 0.09051 0.0
H313 H 0.6037 0.40256 0.16153 0.0
H314 H 0.80374 0.49936 0.11918 0.0
H315 H 0.77675 0.52996 0.1023 0.0
H316 H 0.7659 0.46971 0.08802 0.0
H317 H 0.71315 0.50332 0.2035 0.0
H318 H 0.64747 0.45637 0.20221 0.0
H319 H 0.66705 0.51516 0.18908 0.0
C320 C 0.33502 0.84014 0.50992 0.0
C321 C 0.35793 0.85704 0.48616 0.0
C322 C 0.28552 0.79994 0.50901 0.0
C323 C 0.2582 0.77796 0.48378 0.0
C324 C 0.28294 0.79181 0.45983 0.0
C325 C 0.33277 0.83087 0.46137 0.0
C326 C 0.26149 0.78414 0.53499 0.0
C327 C 0.25533 0.76953 0.43242 0.0
C328 C 0.12634 0.67306 0.46401 0.0
C329 C 1.10292 0.70103 0.45994 0.0
C330 C 0.17588 0.69675 0.4754 0.0
C331 C 0.2026 0.74954 0.48175 0.0
C332 C 0.17715 0.7768 0.48033 0.0
C333 C 0.12736 0.75199 0.46967 0.0
C334 C 0.20073 0.66593 0.4783 0.0
C335 C 0.20404 0.83319 0.48693 0.0
H336 H 0.35487 0.85995 0.52915 0.0
H337 H 0.35046 0.84401 0.44299 0.0
H338 H 0.24409 0.8068 0.54133 0.0
H339 H 0.23182 0.74393 0.53274 0.0
H340 H 0.28986 0.79067 0.55125 0.0
H341 H 0.28089 0.78204 0.41592 0.0
H342 H 0.23535 0.72798 0.43081 0.0
H343 H 0.22683 0.78085 0.42941 0.0
H344 H 1.107 0.63337 0.45685 0.0
H345 H 1.10927 0.77364 0.46648 0.0
H346 H 0.22967 0.68223 0.49545 0.0
H347 H 0.2193 0.66504 0.45975 0.0
H348 H 0.17273 0.62658 0.48123 0.0
H349 H 0.22445 0.84444 0.50707 0.0
H350 H 0.17792 0.84802 0.48662 0.0
H351 H 0.23207 0.85125 0.47207 0.0
C352 C 0.66691 0.29171 0.79695 0.0
C353 C 0.66902 0.31934 0.82101 0.0
C354 C 0.6578 0.24269 0.79666 0.0
C355 C 0.65174 0.22119 0.82121 0.0
C356 C 0.65938 0.25093 0.84584 0.0
C357 C 0.66704 0.29957 0.84543 0.0
C358 C 0.64986 0.2125 0.76977 0.0
C359 C 0.65616 0.23076 0.87254 0.0
C360 C 0.55299 0.08806 0.80309 0.0
C361 C 0.58249 1.06885 0.79284 0.0
C362 C 0.57537 0.13654 0.81654 0.0
C363 C 0.62832 0.16587 0.81992 0.0
C364 C 0.6574 0.14311 0.81419 0.0
C365 C 0.63412 0.09473 0.80026 0.0
C366 C 0.54267 0.15878 0.82323 0.0
C367 C 0.71358 0.17197 0.81962 0.0
H368 H 0.66822 0.30691 0.77806 0.0
H369 H 0.66944 0.32133 0.86412 0.0
H370 H 0.67467 0.19622 0.76918 0.0
H371 H 0.61055 0.18091 0.76667 0.0
H372 H 0.65749 0.23547 0.75272 0.0
H373 H 0.68363 0.26082 0.88787 0.0
H374 H 0.61828 0.21788 0.87961 0.0
H375 H 0.66314 0.19883 0.87131 0.0
H376 H 0.51297 1.06798 0.7977 0.0
H377 H 0.65683 0.07918 0.79303 0.0
H378 H 0.54734 0.18575 0.80871 0.0
H379 H 0.55387 0.1796 0.84361 0.0
H380 H 0.50235 0.12957 0.82231 0.0
H381 H 0.73097 0.19384 0.80258 0.0
H382 H 0.7284 0.14621 0.82175 0.0
H383 H 0.72502 0.19873 0.83813 0.0
C384 C 0.71457 0.99932 0.50111 0.0
C385 C 0.67401 1.00065 0.48847 0.0
C386 C 0.71353 0.95345 0.50405 0.0
C387 C 0.67096 0.90647 0.49408 0.0
C388 C 0.63036 0.90758 0.48073 0.0
C389 C 0.63227 0.95402 0.47818 0.0
C390 C 0.75775 0.95533 0.51869 0.0
C391 C 0.584 0.85933 0.46961 0.0
C392 C 0.68054 0.78447 0.48887 0.0
C393 C 0.65956 0.76332 0.51244 0.0
C394 C 0.6842 0.83039 0.48243 0.0
C395 C 0.667 0.85663 0.49994 0.0
C396 C 0.64608 0.83519 0.52369 0.0
C397 C 0.64253 0.78953 0.52943 0.0
C398 C 0.70647 0.85089 0.45678 0.0
C399 C 0.62746 0.86074 0.54338 0.0
H400 H 0.7472 1.0344 0.50932 0.0
H401 H 0.60042 0.95361 0.46837 0.0
H402 H 0.74615 0.9378 0.53764 0.0
H403 H 0.77108 0.93349 0.50633 0.0
H404 H 0.78944 0.99436 0.52366 0.0
H405 H 0.55734 0.86605 0.45792 0.0
H406 H 0.59446 0.83584 0.45646 0.0
H407 H 0.56458 0.83753 0.48633 0.0
H408 H 0.69391 0.76519 0.4754 0.0
H409 H 0.62631 0.77422 0.54776 0.0
H410 H 0.74006 0.88877 0.46144 0.0
H411 H 0.67906 0.8551 0.44419 0.0
H412 H 0.71741 0.82631 0.44497 0.0
H413 H 0.65843 0.89908 0.55066 0.0
H414 H 0.61238 0.83972 0.56102 0.0
H415 H 0.59752 0.86475 0.53329 0.0
C416 C 0.88469 0.66963 0.84382 0.0
C417 C 0.84517 0.63633 0.82471 0.0
C418 C 0.92991 0.66828 0.84686 0.0
C419 C 0.93748 0.63353 0.83007 0.0
C420 C 0.89828 0.6008 0.81021 0.0
C421 C 0.85292 0.60214 0.80802 0.0
C422 C 0.96921 0.70331 0.86878 0.0
C423 C 0.90398 0.56368 0.79132 0.0
C424 C 1.07427 0.65742 0.82959 0.0
C425 C 1.07434 0.62513 0.84779 0.0
C426 C 1.03007 0.65937 0.82285 0.0
C427 C 0.98433 0.62896 0.83474 0.0
C428 C 0.98393 0.59496 0.85219 0.0
C429 C 1.028 0.59305 0.85809 0.0
C430 C 1.03279 0.6953 0.80355 0.0
C431 C 0.93725 0.56184 0.86579 0.0
H432 H 0.87979 0.69614 0.85706 0.0
H433 H 0.82335 0.57617 0.79305 0.0
H434 H 0.97488 0.68114 0.88334 0.0
H435 H 1.0056 0.72615 0.86014 0.0
H436 H 0.95876 0.729 0.87981 0.0
H437 H 0.87282 0.54432 0.77532 0.0
H438 H 0.93998 0.58304 0.78176 0.0
H439 H 0.90495 0.53495 0.80272 0.0
H440 H 1.10924 0.68276 0.82148 0.0
H441 H 1.0266 0.5673 0.87189 0.0
H442 H 1.02957 0.7261 0.81452 0.0
H443 H 1.00103 0.67582 0.78792 0.0
H444 H 1.06852 0.712 0.79357 0.0
H445 H 0.92661 0.5855 0.87867 0.0
H446 H 0.94237 0.53674 0.87847 0.0
H447 H 0.9055 0.53836 0.85058 0.0
C448 C 0.30542 0.85202 0.18083 0.0
C449 C 0.29674 0.80973 0.16349 0.0
C450 C 0.35274 0.8975 0.18374 0.0
C451 C 0.39287 0.90253 0.16829 0.0
C452 C 0.38352 0.8605 0.14999 0.0
C453 C 0.33655 0.81492 0.14823 0.0
C454 C 0.36032 0.93976 0.2042 0.0
C455 C 0.42347 0.8634 0.13226 0.0
C456 C 0.50784 1.03762 0.1658 0.0
C457 C 0.54366 1.03945 0.18455 0.0
C458 C 0.45961 0.99343 0.15967 0.0
C459 C 0.44544 0.94963 0.17294 0.0
C460 C 0.48205 0.95096 0.19115 0.0
C461 C 0.53014 0.99455 0.19609 0.0
C462 C 0.42338 0.99398 0.13924 0.0
C463 C 0.46995 0.90659 0.20635 0.0
H464 H 0.27562 0.84904 0.19292 0.0
H465 H 0.33085 0.78317 0.13454 0.0
H466 H 0.39068 0.94792 0.21957 0.0
H467 H 0.37229 0.97442 0.1944 0.0
H468 H 0.32579 0.9308 0.21448 0.0
H469 H 0.40869 0.8307 0.11661 0.0
H470 H 0.43969 0.89834 0.12225 0.0
H471 H 0.45437 0.86464 0.14463 0.0
H472 H 0.51679 1.07117 0.15647 0.0
H473 H 0.55717 0.99372 0.20989 0.0
H474 H 0.39174 0.99357 0.14945 0.0
H475 H 0.40743 0.95986 0.12454 0.0
H476 H 0.44142 1.0277 0.12822 0.0
H477 H 0.43643 0.89697 0.2177 0.0
H478 H 0.50144 0.91395 0.22071 0.0
H479 H 0.46086 0.87326 0.19211 0.0
C480 C 0.62619 0.28002 0.48665 0.0
C481 C 0.66855 0.27749 0.49531 0.0
C482 C 0.62605 0.32622 0.4885 0.0
C483 C 0.66865 0.37183 0.50019 0.0
C484 C 0.71156 0.36935 0.50878 0.0
C485 C 0.7111 0.323 0.50597 0.0
C486 C 0.58004 0.32616 0.47775 0.0
C487 C 0.75805 0.41509 0.52208 0.0
C488 C 0.6886 0.50582 0.49403 0.0
C489 C 0.67018 0.51588 0.51783 0.0
C490 C 0.68693 0.45902 0.48753 0.0
C491 C 0.66705 0.42077 0.50527 0.0
C492 C 0.64726 0.43038 0.52882 0.0
C493 C 0.64789 0.47638 0.53432 0.0
C494 C 0.70757 0.45082 0.46188 0.0
C495 C 0.62737 0.39281 0.54915 0.0
H496 H 0.59308 0.2458 0.47799 0.0
H497 H 0.74419 0.32234 0.51283 0.0
H498 H 0.56178 0.33462 0.49456 0.0
H499 H 0.59075 0.35595 0.46418 0.0
H500 H 0.55228 0.28946 0.46659 0.0
H501 H 0.75637 0.41563 0.5442 0.0
H502 H 0.79205 0.41364 0.51689 0.0
H503 H 0.76209 0.45065 0.51635 0.0
H504 H 0.70597 0.53512 0.48089 0.0
H505 H 0.63194 0.48198 0.5524 0.0
H506 H 0.67719 0.41846 0.44882 0.0
H507 H 0.73688 0.44121 0.46635 0.0
H508 H 0.72385 0.48434 0.45068 0.0
H509 H 0.59593 0.35645 0.5397 0.0
H510 H 0.61402 0.40584 0.56675 0.0
H511 H 0.65732 0.38582 0.55639 0.0
C512 C 0.55975 0.67123 0.81976 0.0
C513 C 0.56321 0.62898 0.82501 0.0
C514 C 0.51507 0.67317 0.82271 0.0
C515 C 0.4714 0.63185 0.83118 0.0
C516 C 0.47439 0.58872 0.83613 0.0
C517 C 0.51963 0.58772 0.83292 0.0
C518 C 0.51504 0.72001 0.8167 0.0
C519 C 0.42996 0.54384 0.84562 0.0
C520 C 0.37972 0.66147 0.86877 0.0
C521 C 0.3388 0.6458 0.84977 0.0
C522 C 0.42179 0.65646 0.86306 0.0
C523 C 0.42478 0.63566 0.83731 0.0
C524 C 0.38374 0.61985 0.81779 0.0
C525 C 0.34128 0.62463 0.82424 0.0
C526 C 0.46354 0.67396 0.88481 0.0
C527 C 0.38518 0.59874 0.78984 0.0
H528 H 0.59242 0.70344 0.81343 0.0
H529 H 0.52106 0.5547 0.83718 0.0
H530 H 0.49368 0.71254 0.7971 0.0
H531 H 0.49644 0.73119 0.83215 0.0
H532 H 0.55366 0.75188 0.81567 0.0
H533 H 0.43671 0.51207 0.84717 0.0
H534 H 0.4214 0.55462 0.86563 0.0
H535 H 0.39635 0.53091 0.83165 0.0
H536 H 0.37889 0.678 0.88857 0.0
H537 H 0.31066 0.61274 0.80914 0.0
H538 H 0.49954 0.70267 0.87781 0.0
H539 H 0.46812 0.64194 0.88936 0.0
H540 H 0.45644 0.69026 0.90365 0.0
H541 H 0.41766 0.6275 0.78022 0.0
H542 H 0.35041 0.58689 0.77704 0.0
H543 H 0.39054 0.56602 0.79073 0.0
C544 C 1.01881 0.48752 0.1679 0.0
C545 C 1.02006 0.5278 0.15596 0.0
C546 C 0.97322 0.4423 0.17045 0.0
C547 C 0.92637 0.43594 0.16101 0.0
C548 C 0.92755 0.47586 0.1481 0.0
C549 C 0.97375 0.52075 0.14587 0.0
C550 C 0.97528 0.40138 0.18376 0.0
C551 C 0.88044 0.47256 0.13649 0.0
C552 C 0.80454 0.3036 0.15543 0.0
C553 C 0.78415 0.30467 0.18016 0.0
C554 C 0.85016 0.34572 0.14876 0.0
C555 C 0.87684 0.39027 0.16717 0.0
C556 C 0.85604 0.39111 0.19204 0.0
C557 C 0.81076 0.34902 0.19805 0.0
C558 C 0.8699 0.34275 0.12189 0.0
C559 C 0.88213 0.43618 0.21296 0.0
H560 H 1.05372 0.4915 0.17578 0.0
H561 H 0.97325 0.55072 0.13637 0.0
H562 H 0.95895 0.39799 0.20349 0.0
H563 H 0.95262 0.3647 0.17132 0.0
H564 H 1.01424 0.40892 0.18708 0.0
H565 H 0.87879 0.50615 0.14457 0.0
H566 H 0.88195 0.47327 0.1144 0.0
H567 H 0.84559 0.43834 0.14052 0.0
H568 H 0.78489 0.27013 0.14124 0.0
H569 H 0.79614 0.35087 0.21732 0.0
H570 H 0.90864 0.34957 0.12478 0.0
H571 H 0.87168 0.37261 0.11034 0.0
H572 H 0.84613 0.30575 0.10989 0.0
H573 H 0.91254 0.43461 0.22423 0.0
H574 H 0.85599 0.43689 0.22761 0.0
H575 H 0.89943 0.47187 0.20366 0.0
C576 C 0.15971 0.68518 0.0591 0.0
C577 C 0.1666 0.65367 0.07512 0.0
C578 C 0.16106 0.68009 0.03105 0.0
C579 C 0.16987 0.64276 0.01852 0.0
C580 C 0.17728 0.61103 0.03453 0.0
C581 C 0.17538 0.61672 0.06262 0.0
C582 C 0.15254 0.71447 0.01478 0.0
C583 C 0.18707 0.57099 0.02197 0.0
C584 C 0.12507 0.60236 0.94443 0.0
C585 C 0.16899 0.63177 0.93176 0.0
C586 C 0.12511 0.60459 0.97258 0.0
C587 C 0.17029 0.63663 0.98861 0.0
C588 C 0.21513 0.66509 0.97599 0.0
C589 C 0.21393 0.66245 0.94777 0.0
C590 C 1.07643 0.57367 0.98515 0.0
C591 C 0.26414 0.69953 0.99232 0.0
H592 H 0.15275 0.71378 0.06844 0.0
H593 H 0.18091 0.59228 0.07477 0.0
H594 H 0.18524 0.73558 0.00296 0.0
H595 H 0.11933 0.69196 0.00027 0.0
H596 H 0.1465 0.74181 0.02757 0.0
H597 H 0.19319 0.55011 0.0372 0.0
H598 H 0.15488 0.54386 0.00777 0.0
H599 H 0.22057 0.5882 0.01022 0.0
H600 H 1.09034 0.57773 0.9323 0.0
H601 H 0.248 0.68562 0.93826 0.0
H602 H 1.06635 0.59891 -0.00305 0.0
H603 H 1.08068 0.55008 -0.00072 0.0
H604 H 1.04502 0.5489 0.96992 0.0
H605 H 0.26195 0.73052 0.00381 0.0
H606 H 0.2963 0.71607 0.97955 0.0
H607 H 0.27151 0.67882 0.00712 0.0
C608 C 0.72685 0.15247 0.39364 0.0
C609 C 0.68436 0.14539 0.4066 0.0
C610 C 0.72774 0.1527 0.36548 0.0
C611 C 0.68501 0.1452 0.35 0.0
C612 C 0.6421 0.13785 0.36304 0.0
C613 C 0.6424 0.1382 0.39102 0.0
C614 C 0.7743 0.16104 0.35229 0.0
C615 C 0.59551 0.12924 0.3474 0.0
C616 C 0.68682 0.1853 0.28011 0.0
C617 C 0.66571 0.13918 0.26388 0.0
C618 C 0.69631 0.18839 0.30802 0.0
C619 C 0.68404 0.14426 0.32011 0.0
C620 C 0.66481 0.09801 0.3037 0.0
C621 C 0.65611 0.09609 0.27584 0.0
C622 C 0.71707 0.2385 0.32472 0.0
C623 C 0.65098 1.05001 0.31571 0.0
H624 H 0.75945 0.15815 0.40548 0.0
H625 H 0.60913 0.13237 0.40067 0.0
H626 H 0.76529 0.12823 0.33763 0.0
H627 H 0.78846 0.19424 0.34094 0.0
H628 H 0.80461 0.16698 0.36711 0.0
H629 H 0.56521 0.124 0.36059 0.0
H630 H 0.60462 0.16163 0.33602 0.0
H631 H 0.58105 0.09547 0.33256 0.0
H632 H 0.69418 0.2188 0.27117 0.0
H633 H 0.64088 1.06046 0.26344 0.0
H634 H 0.7484 0.24525 0.33897 0.0
H635 H 0.68741 0.23845 0.33681 0.0
H636 H 0.73067 0.27005 0.31212 0.0
H637 H 0.68235 1.05522 0.3294 0.0
H638 H 0.64121 1.01821 0.30008 0.0
H639 H 0.61828 1.03982 0.32783 0.0
C640 C 0.67622 0.60875 0.72264 0.0
C641 C 0.71059 0.64978 0.74072 0.0
C642 C 0.67815 0.61011 0.69477 0.0
C643 C 0.71517 0.65383 0.68444 0.0
C644 C 0.74985 0.69567 0.70249 0.0
C645 C 0.74734 0.69309 0.73045 0.0
C646 C 0.64061 0.56446 0.67633 0.0
C647 C 0.78951 0.74312 0.69226 0.0
C648 C 0.74012 0.63082 0.6121 0.0
C649 C 0.70787 0.64177 0.5977 0.0
C650 C 0.74479 0.63692 0.64036 0.0
C651 C 0.71699 0.65494 0.6547 0.0
C652 C 0.68654 0.66869 0.64032 0.0
C653 C 0.68213 0.66169 0.61207 0.0
C654 C 0.77755 0.62162 0.65484 0.0
C655 C 0.65649 0.68835 0.65477 0.0
H656 H 0.64775 0.57489 0.73024 0.0
H657 H 0.77397 0.72497 0.74421 0.0
H658 H 0.61828 0.57448 0.66324 0.0
H659 H 0.6605 0.55081 0.66304 0.0
H660 H 0.61446 0.53324 0.68756 0.0
H661 H 0.81328 0.77256 0.70884 0.0
H662 H 0.81393 0.73478 0.67956 0.0
H663 H 0.77159 0.75821 0.67942 0.0
H664 H 0.76101 0.61642 0.60125 0.0
H665 H 0.65672 0.66986 0.60128 0.0
H666 H 0.75372 0.58791 0.66506 0.0
H667 H 0.80319 0.65191 0.67057 0.0
H668 H 0.80026 0.61277 0.64096 0.0
H669 H 0.62574 0.65765 0.66436 0.0
H670 H 0.63977 0.70323 0.64094 0.0
H671 H 0.6804 0.71856 0.67096 0.0
C672 C 0.60042 0.09726 0.57553 0.0
C673 C 0.64993 0.12108 0.56815 0.0
C674 C 0.58904 0.08213 0.6012 0.0
C675 C 0.62808 0.09019 0.61989 0.0
C676 C 0.67844 0.1155 0.61284 0.0
C677 C 0.68888 0.13116 0.58701 0.0
C678 C 0.53499 1.05642 0.60809 0.0
C679 C 0.72092 0.12429 0.63221 0.0
C680 C 0.59533 0.08282 0.69235 0.0
C681 C 0.57966 1.03256 0.69549 0.0
C682 C 0.61305 0.10264 0.66819 0.0
C683 C 0.61547 1.07153 0.64664 0.0
C684 C 0.60102 1.0211 0.64991 0.0
C685 C 0.58276 1.00201 0.67428 0.0
C686 C 0.62706 0.15622 0.66537 0.0
C687 C 0.60361 0.98698 0.62744 0.0
H688 H 0.57028 0.08969 0.56094 0.0
H689 H 0.72709 0.14904 0.58116 0.0
H690 H 0.52256 1.01735 0.61211 0.0
H691 H 0.53115 1.07615 0.62662 0.0
H692 H 0.50946 1.05524 0.59168 0.0
H693 H 0.75809 0.14634 0.62409 0.0
H694 H 0.72051 0.14442 0.6515 0.0
H695 H 0.71602 0.08766 0.63668 0.0
H696 H 0.59227 0.10635 0.70861 0.0
H697 H 0.57089 0.96327 0.67677 0.0
H698 H 0.60003 0.15654 0.65052 0.0
H699 H 0.66476 0.17696 0.65772 0.0
H700 H 0.62699 0.1766 0.68471 0.0
H701 H 0.57593 0.97953 0.61061 0.0
H702 H 0.59567 0.95048 0.63401 0.0
H703 H 0.64126 1.00542 0.61953 0.0
C704 C 0.67242 0.54857 0.90254 0.0
C705 C 0.69009 0.59908 0.89905 0.0
C706 C 0.66091 0.53138 0.9278 0.0
C707 C 0.66825 0.56573 0.95031 0.0
C708 C 0.68694 0.61702 0.94707 0.0
C709 C 0.69706 0.63303 0.92132 0.0
C710 C 0.63986 0.47618 0.93026 0.0
C711 C 0.69607 0.65481 0.97077 0.0
C712 C 0.59177 0.51075 0.0093 0.0
C713 C 0.62574 0.50565 0.02579 0.0
C714 C 0.60536 0.53085 0.98479 0.0
C715 C 0.65446 0.54716 0.97697 0.0
C716 C 0.68921 0.54283 0.99389 0.0
C717 C 0.67419 0.52156 0.01808 0.0
C718 C 0.5669 0.53377 0.96705 0.0
C719 C 0.74209 0.56054 0.98639 0.0
H720 H 0.6664 0.52197 0.88532 0.0
H721 H 0.71089 0.6721 0.91866 0.0
H722 H 0.66426 0.47109 0.94471 0.0
H723 H 0.60228 0.46015 0.9382 0.0
H724 H 0.63636 0.45442 0.91071 0.0
H725 H 0.7131 0.69365 0.9651 0.0
H726 H 0.6602 0.64502 0.97969 0.0
H727 H 0.72125 0.65386 0.98658 0.0
H728 H 0.55437 0.49852 0.01556 0.0
H729 H 0.70043 0.51805 0.0312 0.0
H730 H 0.56015 0.51091 0.94747 0.0
H731 H 0.58108 0.57304 0.96282 0.0
H732 H 0.53059 0.5201 0.97628 0.0
H733 H 0.74147 0.53802 0.9678 0.0
H734 H 0.76534 0.55739 0.00252 0.0
H735 H 0.76024 0.60026 0.98212 0.0
C736 C 1.07183 0.62803 0.23942 0.0
C737 C 0.12288 0.65911 0.23589 0.0
C738 C 1.05408 0.6222 0.26506 0.0
C739 C 1.0881 0.64899 0.28776 0.0
C740 C 0.14007 0.67903 0.28441 0.0
C741 C 0.157 0.6833 0.2584 0.0
C742 C 0.99863 0.58885 0.26773 0.0
C743 C 0.17737 0.70851 0.30817 0.0
C744 C 1.03608 0.68366 0.34849 0.0
C745 C 1.03387 0.64992 0.36612 0.0
C746 C 1.05359 0.6836 0.32291 0.0
C747 C 1.06866 0.64853 0.31467 0.0
C748 C 1.06474 0.6131 0.33201 0.0
C749 C 1.0477 0.61446 0.35764 0.0
C750 C 1.05744 0.72214 0.30504 0.0
C751 C 1.07943 0.57447 0.32369 0.0
H752 H 1.04544 0.6086 0.22197 0.0
H753 H 0.19642 0.70732 0.25561 0.0
H754 H 0.99228 0.56286 0.28308 0.0
H755 H 0.98224 0.61225 0.27452 0.0
H756 H 0.9782 0.56635 0.24844 0.0
H757 H 0.21666 0.7274 0.30238 0.0
H758 H 0.16962 0.73749 0.31751 0.0
H759 H 0.17354 0.68349 0.32366 0.0
H760 H 1.02636 0.71174 0.35518 0.0
H761 H 1.0461 0.58843 0.37132 0.0
H762 H 1.0349 0.70316 0.28571 0.0
H763 H 1.09695 0.74592 0.30032 0.0
H764 H 1.04425 0.74684 0.31447 0.0
H765 H 1.05862 0.55252 0.30441 0.0
H766 H 1.07192 0.54811 0.33902 0.0
H767 H 0.11994 0.59351 0.32035 0.0
loop_
_geom_bond_atom_site_label_1
_geom_bond_atom_site_label_2
_geom_bond_distance
_geom_bond_site_symmetry_2
_ccdc_geom_bond_type
Tb0 C9 2.764 1_455 S
Tb0 O10 2.325 1_455 S
Tb0 O13 2.303 . S
Tb0 O17 2.322 . S
Tb0 O18 2.349 . S
Tb0 O21 2.415 1_455 S
Tb0 O22 2.399 1_455 S
Tb1 O11 2.322 . S
Tb1 O12 2.349 . S
Tb1 O14 2.415 . S
Tb1 O15 2.399 . S
Tb1 O16 2.325 . S
Tb1 O19 2.303 . S
Tb1 C30 2.764 . S
C2 O18 1.261 . S
C2 O19 1.257 . S
C3 C6 1.358 . S
C3 C7 1.332 . S
C3 C9 1.504 . S
C4 C5 1.373 . S
C4 C8 1.308 . S
C5 C4 1.373 . S
C5 C6 1.429 . S
C5 H32 0.932 . S
C6 C3 1.358 . S
C6 C5 1.429 . S
C6 H33 0.930 . S
C7 C3 1.332 . S
C7 C8 1.394 . S
C7 H34 0.932 . S
C8 C4 1.308 . S
C8 C7 1.394 . S
C8 H35 0.929 . S
C9 Tb0 2.764 1_655 S
C9 C3 1.504 . S
C9 O21 1.239 . S
C9 O22 1.263 . S
O10 Tb0 2.325 1_655 S
O10 C20 1.236 . S
O11 Tb1 2.322 . S
O11 C20 1.257 1_455 S
O12 Tb1 2.349 . S
O12 C23 1.261 . S
O13 Tb0 2.303 . S
O13 C23 1.257 . S
O14 Tb1 2.415 . S
O14 C30 1.239 . S
O15 Tb1 2.399 . S
O15 C30 1.263 . S
O16 Tb1 2.325 . S
O16 C31 1.236 . S
O17 Tb0 2.322 . S
O17 C31 1.257 . S
O18 Tb0 2.349 . S
O18 C2 1.261 . S
O19 Tb1 2.303 . S
O19 C2 1.257 . S
C20 O10 1.236 . S
C20 O11 1.257 1_655 S
O21 Tb0 2.415 1_655 S
O21 C9 1.239 . S
O22 Tb0 2.399 1_655 S
O22 C9 1.263 . S
C23 O12 1.261 . S
C23 O13 1.257 . S
C24 C27 1.358 . S
C24 C28 1.332 . S
C24 C30 1.504 . S
C25 C26 1.373 . S
C25 C29 1.308 . S
C26 C25 1.373 . S
C26 C27 1.429 . S
C26 H36 0.932 . S
C27 C24 1.358 . S
C27 C26 1.429 . S
C27 H37 0.930 . S
C28 C24 1.332 . S
C28 C29 1.394 . S
C28 H38 0.932 . S
C29 C25 1.308 . S
C29 C28 1.394 . S
C29 H39 0.929 . S
C30 Tb1 2.764 . S
C30 O14 1.239 . S
C30 O15 1.263 . S
C30 C24 1.504 . S
C31 O16 1.236 . S
C31 O17 1.257 . S
H32 C5 0.932 . S
H33 C6 0.930 . S
H34 C7 0.932 . S
H35 C8 0.929 . S
H36 C26 0.932 . S
H37 C27 0.930 . S
H38 C28 0.932 . S
H39 C29 0.929 . S
Tb40 C49 2.764 1_545 S
Tb40 O50 2.325 1_545 S
Tb40 O53 2.303 . S
Tb40 O57 2.322 . S
Tb40 O58 2.349 . S
Tb40 O61 2.415 1_545 S
Tb40 O62 2.399 1_545 S
Tb41 O51 2.322 . S
Tb41 O52 2.349 . S
Tb41 O54 2.415 . S
Tb41 O55 2.399 . S
Tb41 O56 2.325 . S
Tb41 O59 2.303 . S
Tb41 C70 2.764 . S
C42 O58 1.261 . S
C42 O59 1.257 . S
C43 C46 1.358 . S
C43 C47 1.332 . S
C43 C49 1.504 . S
C44 C45 1.373 . S
C44 C48 1.308 . S
C45 C44 1.373 . S
C45 C46 1.429 . S
C45 H72 0.932 . S
C46 C43 1.358 . S
C46 C45 1.429 . S
C46 H73 0.930 . S
C47 C43 1.332 . S
C47 C48 1.394 . S
C47 H74 0.932 . S
C48 C44 1.308 . S
C48 C47 1.394 . S
C48 H75 0.929 . S
C49 Tb40 2.764 1_565 S
C49 C43 1.504 . S
C49 O61 1.239 . S
C49 O62 1.263 . S
O50 Tb40 2.325 1_565 S
O50 C60 1.236 . S
O51 Tb41 2.322 . S
O51 C60 1.257 1_545 S
O52 Tb41 2.349 . S
O52 C63 1.261 . S
O53 Tb40 2.303 . S
O53 C63 1.257 . S
O54 Tb41 2.415 . S
O54 C70 1.239 . S
O55 Tb41 2.399 . S
O55 C70 1.263 . S
O56 Tb41 2.325 . S
O56 C71 1.236 . S
O57 Tb40 2.322 . S
O57 C71 1.257 . S
O58 Tb40 2.349 . S
O58 C42 1.261 . S
O59 Tb41 2.303 . S
O59 C42 1.257 . S
C60 O50 1.236 . S
C60 O51 1.257 1_565 S
O61 Tb40 2.415 1_565 S
O61 C49 1.239 . S
O62 Tb40 2.399 1_565 S
O62 C49 1.263 . S
C63 O52 1.261 . S
C63 O53 1.257 . S
C64 C67 1.358 . S
C64 C68 1.332 . S
C64 C70 1.504 . S
C65 C66 1.373 . S
C65 C69 1.308 . S
C66 C65 1.373 . S
C66 C67 1.429 . S
C66 H76 0.932 . S
C67 C64 1.358 . S
C67 C66 1.429 . S
C67 H77 0.930 . S
C68 C64 1.332 . S
C68 C69 1.394 . S
C68 H78 0.932 . S
C69 C65 1.308 . S
C69 C68 1.394 . S
C69 H79 0.929 . S
C70 Tb41 2.764 . S
C70 O54 1.239 . S
C70 O55 1.263 . S
C70 C64 1.504 . S
C71 O56 1.236 . S
C71 O57 1.257 . S
H72 C45 0.932 . S
H73 C46 0.930 . S
H74 C47 0.932 . S
H75 C48 0.929 . S
H76 C66 0.932 . S
H77 C67 0.930 . S
H78 C68 0.932 . S
H79 C69 0.929 . S
Tb80 C89 2.764 . S
Tb80 O90 2.325 . S
Tb80 O93 2.303 . S
Tb80 O97 2.322 . S
Tb80 O98 2.349 . S
Tb80 O101 2.415 . S
Tb80 O102 2.399 . S
Tb81 O91 2.322 . S
Tb81 O92 2.349 . S
Tb81 O94 2.415 . S
Tb81 O95 2.399 . S
Tb81 O96 2.325 . S
Tb81 O99 2.303 . S
Tb81 C110 2.764 . S
C82 O98 1.261 . S
C82 O99 1.257 . S
C83 C86 1.358 . S
C83 C87 1.332 . S
C83 C89 1.504 . S
C84 C85 1.373 . S
C84 C88 1.308 . S
C85 C84 1.373 . S
C85 C86 1.429 . S
C85 H112 0.932 . S
C86 C83 1.358 . S
C86 C85 1.429 . S
C86 H113 0.930 . S
C87 C83 1.332 . S
C87 C88 1.394 . S
C87 H114 0.932 . S
C88 C84 1.308 . S
C88 C87 1.394 . S
C88 H115 0.929 . S
C89 Tb80 2.764 . S
C89 C83 1.504 . S
C89 O101 1.239 . S
C89 O102 1.263 . S
O90 Tb80 2.325 . S
O90 C100 1.236 . S
O91 Tb81 2.322 . S
O91 C100 1.257 . S
O92 Tb81 2.349 . S
O92 C103 1.261 . S
O93 Tb80 2.303 . S
O93 C103 1.257 . S
O94 Tb81 2.415 . S
O94 C110 1.239 . S
O95 Tb81 2.399 . S
O95 C110 1.263 . S
O96 Tb81 2.325 . S
O96 C111 1.236 . S
O97 Tb80 2.322 . S
O97 C111 1.257 . S
O98 Tb80 2.349 . S
O98 C82 1.261 . S
O99 Tb81 2.303 . S
O99 C82 1.257 . S
C100 O90 1.236 . S
C100 O91 1.257 . S
O101 Tb80 2.415 . S
O101 C89 1.239 . S
O102 Tb80 2.399 . S
O102 C89 1.263 . S
C103 O92 1.261 . S
C103 O93 1.257 . S
C104 C107 1.358 . S
C104 C108 1.332 . S
C104 C110 1.504 . S
C105 C106 1.373 . S
C105 C109 1.308 . S
C106 C105 1.373 . S
C106 C107 1.429 . S
C106 H116 0.932 . S
C107 C104 1.358 . S
C107 C106 1.429 . S
C107 H117 0.930 . S
C108 C104 1.332 . S
C108 C109 1.394 . S
C108 H118 0.932 . S
C109 C105 1.308 . S
C109 C108 1.394 . S
C109 H119 0.929 . S
C110 Tb81 2.764 . S
C110 O94 1.239 . S
C110 O95 1.263 . S
C110 C104 1.504 . S
C111 O96 1.236 . S
C111 O97 1.257 . S
H112 C85 0.932 . S
H113 C86 0.930 . S
H114 C87 0.932 . S
H115 C88 0.929 . S
H116 C106 0.932 . S
H117 C107 0.930 . S
H118 C108 0.932 . S
H119 C109 0.929 . S
H120 C125 0.930 . S
H121 C128 0.930 . S
H122 C130 0.930 . S
H123 C124 1.016 . S
C124 H123 1.016 . S
C124 N131 1.286 . S
C125 H120 0.930 . S
C125 C126 1.397 . S
C125 C127 1.361 . S
C126 C125 1.397 . S
C126 C130 1.390 . S
C127 C125 1.361 . S
C127 C128 1.393 . S
C127 N131 1.413 . S
C128 H121 0.930 . S
C128 C127 1.393 . S
C128 C129 1.399 . S
C129 C128 1.399 . S
C129 C130 1.381 . S
C130 H122 0.930 . S
C130 C126 1.390 . S
C130 C129 1.381 . S
N131 C124 1.286 . S
N131 C127 1.413 . S
H132 C137 0.930 . S
H133 C140 0.930 . S
H134 C142 0.930 . S
H135 C136 1.016 . S
C136 H135 1.016 . S
C136 N143 1.286 . S
C137 H132 0.930 . S
C137 C138 1.397 . S
C137 C139 1.361 . S
C138 C137 1.397 . S
C138 C142 1.390 . S
C139 C137 1.361 . S
C139 C140 1.393 . S
C139 N143 1.413 . S
C140 H133 0.930 . S
C140 C139 1.393 . S
C140 C141 1.399 . S
C141 C140 1.399 . S
C141 C142 1.381 . S
C142 H134 0.930 . S
C142 C138 1.390 . S
C142 C141 1.381 . S
N143 C136 1.286 . S
N143 C139 1.413 . S
H144 C149 0.930 . S
H145 C152 0.930 . S
H146 C154 0.930 1_655 S
H147 C148 1.016 . S
C148 H147 1.016 . S
C148 N155 1.286 . S
C149 H144 0.930 . S
C149 C150 1.397 1_455 S
C149 C151 1.361 . S
C150 C149 1.397 1_655 S
C150 C154 1.390 1_655 S
C151 C149 1.361 . S
C151 C152 1.393 . S
C151 N155 1.413 . S
C152 H145 0.930 . S
C152 C151 1.393 . S
C152 C153 1.399 . S
C153 C152 1.399 . S
C153 C154 1.381 . S
C154 H146 0.930 1_455 S
C154 C150 1.390 1_455 S
C154 C153 1.381 . S
N155 C148 1.286 . S
N155 C151 1.413 . S
H156 C161 0.930 . S
H157 C164 0.930 . S
H158 C166 0.930 . S
H159 C160 1.016 . S
C160 H159 1.016 . S
C160 N167 1.286 . S
C161 H156 0.930 . S
C161 C162 1.397 . S
C161 C163 1.361 1_455 S
C162 C161 1.397 . S
C162 C166 1.390 . S
C163 C161 1.361 1_655 S
C163 C164 1.393 . S
C163 N167 1.413 . S
C164 H157 0.930 . S
C164 C163 1.393 . S
C164 C165 1.399 1_655 S
C165 C164 1.399 1_455 S
C165 C166 1.381 . S
C166 H158 0.930 . S
C166 C162 1.390 . S
C166 C165 1.381 . S
N167 C160 1.286 . S
N167 C163 1.413 . S
H168 C173 0.930 . S
H169 C176 0.930 . S
H170 C178 0.930 . S
H171 C172 1.016 . S
C172 H171 1.016 . S
C172 N179 1.286 . S
C173 H168 0.930 . S
C173 C174 1.397 . S
C173 C175 1.361 . S
C174 C173 1.397 . S
C174 C178 1.390 . S
C175 C173 1.361 . S
C175 C176 1.393 1_545 S
C175 N179 1.413 1_545 S
C176 H169 0.930 . S
C176 C175 1.393 1_565 S
C176 C177 1.399 1_565 S
C177 C176 1.399 1_545 S
C177 C178 1.381 . S
C178 H170 0.930 . S
C178 C174 1.390 . S
C178 C177 1.381 . S
N179 C172 1.286 . S
N179 C175 1.413 1_565 S
H180 C185 0.930 . S
H181 C188 0.930 . S
H182 C190 0.930 . S
H183 C184 1.016 . S
C184 H183 1.016 . S
C184 N191 1.286 . S
C185 H180 0.930 . S
C185 C186 1.397 . S
C185 C187 1.361 . S
C186 C185 1.397 . S
C186 C190 1.390 . S
C187 C185 1.361 . S
C187 C188 1.393 . S
C187 N191 1.413 . S
C188 H181 0.930 . S
C188 C187 1.393 . S
C188 C189 1.399 . S
C189 C188 1.399 . S
C189 C190 1.381 . S
C190 H182 0.930 . S
C190 C186 1.390 . S
C190 C189 1.381 . S
N191 C184 1.286 . S
N191 C187 1.413 . S
C192 C193 1.391 . S
C192 C194 1.394 . S
C192 H208 0.931 . S
C193 C192 1.391 . S
C193 C197 1.376 . S
C194 C192 1.394 . S
C194 C195 1.369 . S
C194 C198 1.531 . S
C195 C194 1.369 . S
C195 C196 1.410 . S
C195 C203 1.503 . S
C196 C195 1.410 . S
C196 C197 1.392 . S
C196 C199 1.511 . S
C197 C193 1.376 . S
C197 C196 1.392 . S
C197 H209 0.929 . S
C198 C194 1.531 . S
C198 H210 0.960 . S
C198 H211 0.962 . S
C198 H212 0.960 . S
C199 C196 1.511 . S
C199 H213 0.961 . S
C199 H214 0.961 . S
C199 H215 0.961 . S
C200 C201 1.370 . S
C200 C202 1.363 . S
C200 H216 0.931 . S
C201 C200 1.370 . S
C201 C205 1.408 . S
C202 C200 1.363 . S
C202 C203 1.370 . S
C202 C206 1.524 . S
C203 C195 1.503 . S
C203 C202 1.370 . S
C203 C204 1.403 . S
C204 C203 1.403 . S
C204 C205 1.404 . S
C204 C207 1.539 . S
C205 C201 1.408 . S
C205 C204 1.404 . S
C205 H217 0.930 . S
C206 C202 1.524 . S
C206 H218 0.956 . S
C206 H219 0.961 . S
C206 H220 0.961 . S
C207 C204 1.539 . S
C207 H221 0.958 . S
C207 H222 0.961 . S
C207 H223 0.960 . S
H208 C192 0.931 . S
H209 C197 0.929 . S
H210 C198 0.960 . S
H211 C198 0.962 . S
H212 C198 0.960 . S
H213 C199 0.961 . S
H214 C199 0.961 . S
H215 C199 0.961 . S
H216 C200 0.931 . S
H217 C205 0.930 . S
H218 C206 0.956 . S
H219 C206 0.961 . S
H220 C206 0.961 . S
H221 C207 0.958 . S
H222 C207 0.961 . S
H223 C207 0.960 . S
C224 C225 1.391 . S
C224 C226 1.394 . S
C224 H240 0.931 . S
C225 C224 1.391 . S
C225 C229 1.376 . S
C226 C224 1.394 . S
C226 C227 1.369 . S
C226 C230 1.531 . S
C227 C226 1.369 . S
C227 C228 1.410 . S
C227 C235 1.503 . S
C228 C227 1.410 . S
C228 C229 1.392 . S
C228 C231 1.511 . S
C229 C225 1.376 . S
C229 C228 1.392 . S
C229 H241 0.929 . S
C230 C226 1.531 . S
C230 H242 0.960 . S
C230 H243 0.962 . S
C230 H244 0.960 . S
C231 C228 1.511 . S
C231 H245 0.961 . S
C231 H246 0.961 . S
C231 H247 0.961 . S
C232 C233 1.370 . S
C232 C234 1.363 . S
C232 H248 0.931 . S
C233 C232 1.370 . S
C233 C237 1.408 . S
C234 C232 1.363 . S
C234 C235 1.370 . S
C234 C238 1.524 . S
C235 C227 1.503 . S
C235 C234 1.370 . S
C235 C236 1.403 . S
C236 C235 1.403 . S
C236 C237 1.404 . S
C236 C239 1.539 . S
C237 C233 1.408 . S
C237 C236 1.404 . S
C237 H249 0.930 . S
C238 C234 1.524 . S
C238 H250 0.956 . S
C238 H251 0.961 . S
C238 H252 0.961 . S
C239 C236 1.539 . S
C239 H253 0.958 . S
C239 H254 0.961 . S
C239 H255 0.960 . S
H240 C224 0.931 . S
H241 C229 0.929 . S
H242 C230 0.960 . S
H243 C230 0.962 . S
H244 C230 0.960 . S
H245 C231 0.961 . S
H246 C231 0.961 . S
H247 C231 0.961 . S
H248 C232 0.931 . S
H249 C237 0.930 . S
H250 C238 0.956 . S
H251 C238 0.961 . S
H252 C238 0.961 . S
H253 C239 0.958 . S
H254 C239 0.961 . S
H255 C239 0.960 . S
C256 C257 1.391 . S
C256 C258 1.394 . S
C256 H272 0.931 . S
C257 C256 1.391 . S
C257 C261 1.376 . S
C258 C256 1.394 . S
C258 C259 1.369 . S
C258 C262 1.531 . S
C259 C258 1.369 . S
C259 C260 1.410 . S
C259 C267 1.503 . S
C260 C259 1.410 . S
C260 C261 1.392 . S
C260 C263 1.511 . S
C261 C257 1.376 . S
C261 C260 1.392 . S
C261 H273 0.929 . S
C262 C258 1.531 . S
C262 H274 0.960 . S
C262 H275 0.962 . S
C262 H276 0.960 . S
C263 C260 1.511 . S
C263 H277 0.961 . S
C263 H278 0.961 . S
C263 H279 0.961 . S
C264 C265 1.370 . S
C264 C266 1.363 . S
C264 H280 0.931 . S
C265 C264 1.370 . S
C265 C269 1.408 . S
C266 C264 1.363 . S
C266 C267 1.370 . S
C266 C270 1.524 . S
C267 C259 1.503 . S
C267 C266 1.370 . S
C267 C268 1.403 . S
C268 C267 1.403 . S
C268 C269 1.404 . S
C268 C271 1.539 . S
C269 C265 1.408 . S
C269 C268 1.404 . S
C269 H281 0.930 . S
C270 C266 1.524 . S
C270 H282 0.956 . S
C270 H283 0.961 . S
C270 H284 0.961 . S
C271 C268 1.539 . S
C271 H285 0.958 . S
C271 H286 0.961 . S
C271 H287 0.960 . S
H272 C256 0.931 . S
H273 C261 0.929 . S
H274 C262 0.960 . S
H275 C262 0.962 . S
H276 C262 0.960 . S
H277 C263 0.961 . S
H278 C263 0.961 . S
H279 C263 0.961 . S
H280 C264 0.931 . S
H281 C269 0.930 . S
H282 C270 0.956 . S
H283 C270 0.961 . S
H284 C270 0.961 . S
H285 C271 0.958 . S
H286 C271 0.961 . S
H287 C271 0.960 . S
C288 C289 1.391 . S
C288 C290 1.394 . S
C288 H304 0.931 . S
C289 C288 1.391 . S
C289 C293 1.376 . S
C290 C288 1.394 . S
C290 C291 1.369 . S
C290 C294 1.531 . S
C291 C290 1.369 . S
C291 C292 1.410 . S
C291 C299 1.503 . S
C292 C291 1.410 . S
C292 C293 1.392 . S
C292 C295 1.511 . S
C293 C289 1.376 . S
C293 C292 1.392 . S
C293 H305 0.929 . S
C294 C290 1.531 . S
C294 H306 0.960 . S
C294 H307 0.962 . S
C294 H308 0.960 . S
C295 C292 1.511 . S
C295 H309 0.961 . S
C295 H310 0.961 . S
C295 H311 0.961 . S
C296 C297 1.370 . S
C296 C298 1.363 . S
C296 H312 0.931 . S
C297 C296 1.370 . S
C297 C301 1.408 . S
C298 C296 1.363 . S
C298 C299 1.370 . S
C298 C302 1.524 . S
C299 C291 1.503 . S
C299 C298 1.370 . S
C299 C300 1.403 . S
C300 C299 1.403 . S
C300 C301 1.404 . S
C300 C303 1.539 . S
C301 C297 1.408 . S
C301 C300 1.404 . S
C301 H313 0.930 . S
C302 C298 1.524 . S
C302 H314 0.956 . S
C302 H315 0.961 . S
C302 H316 0.961 . S
C303 C300 1.539 . S
C303 H317 0.958 . S
C303 H318 0.961 . S
C303 H319 0.960 . S
H304 C288 0.931 . S
H305 C293 0.929 . S
H306 C294 0.960 . S
H307 C294 0.962 . S
H308 C294 0.960 . S
H309 C295 0.961 . S
H310 C295 0.961 . S
H311 C295 0.961 . S
H312 C296 0.931 . S
H313 C301 0.930 . S
H314 C302 0.956 . S
H315 C302 0.961 . S
H316 C302 0.961 . S
H317 C303 0.958 . S
H318 C303 0.961 . S
H319 C303 0.960 . S
C320 C321 1.391 . S
C320 C322 1.394 . S
C320 H336 0.931 . S
C321 C320 1.391 . S
C321 C325 1.376 . S
C322 C320 1.394 . S
C322 C323 1.369 . S
C322 C326 1.531 . S
C323 C322 1.369 . S
C323 C324 1.410 . S
C323 C331 1.503 . S
C324 C323 1.410 . S
C324 C325 1.392 . S
C324 C327 1.511 . S
C325 C321 1.376 . S
C325 C324 1.392 . S
C325 H337 0.929 . S
C326 C322 1.531 . S
C326 H338 0.960 . S
C326 H339 0.962 . S
C326 H340 0.960 . S
C327 C324 1.511 . S
C327 H341 0.961 . S
C327 H342 0.961 . S
C327 H343 0.961 . S
C328 C329 1.370 . S
C328 C330 1.363 . S
C328 H344 0.931 . S
C329 C328 1.370 . S
C329 C333 1.408 . S
C330 C328 1.363 . S
C330 C331 1.370 . S
C330 C334 1.524 . S
C331 C323 1.503 . S
C331 C330 1.370 . S
C331 C332 1.403 . S
C332 C331 1.403 . S
C332 C333 1.404 . S
C332 C335 1.539 . S
C333 C329 1.408 . S
C333 C332 1.404 . S
C333 H345 0.930 . S
C334 C330 1.524 . S
C334 H346 0.956 . S
C334 H347 0.961 . S
C334 H348 0.961 . S
C335 C332 1.539 . S
C335 H349 0.958 . S
C335 H350 0.961 . S
C335 H351 0.960 . S
H336 C320 0.931 . S
H337 C325 0.929 . S
H338 C326 0.960 . S
H339 C326 0.962 . S
H340 C326 0.960 . S
H341 C327 0.961 . S
H342 C327 0.961 . S
H343 C327 0.961 . S
H344 C328 0.931 . S
H345 C333 0.930 . S
H346 C334 0.956 . S
H347 C334 0.961 . S
H348 C334 0.961 . S
H349 C335 0.958 . S
H350 C335 0.961 . S
H351 C335 0.960 . S
C352 C353 1.391 . S
C352 C354 1.394 . S
C352 H368 0.931 . S
C353 C352 1.391 . S
C353 C357 1.376 . S
C354 C352 1.394 . S
C354 C355 1.369 . S
C354 C358 1.531 . S
C355 C354 1.369 . S
C355 C356 1.410 . S
C355 C363 1.503 . S
C356 C355 1.410 . S
C356 C357 1.392 . S
C356 C359 1.511 . S
C357 C353 1.376 . S
C357 C356 1.392 . S
C357 H369 0.929 . S
C358 C354 1.531 . S
C358 H370 0.960 . S
C358 H371 0.962 . S
C358 H372 0.960 . S
C359 C356 1.511 . S
C359 H373 0.961 . S
C359 H374 0.961 . S
C359 H375 0.961 . S
C360 C361 1.370 . S
C360 C362 1.363 . S
C360 H376 0.931 . S
C361 C360 1.370 . S
C361 C365 1.408 . S
C362 C360 1.363 . S
C362 C363 1.370 . S
C362 C366 1.524 . S
C363 C355 1.503 . S
C363 C362 1.370 . S
C363 C364 1.403 . S
C364 C363 1.403 . S
C364 C365 1.404 . S
C364 C367 1.539 . S
C365 C361 1.408 . S
C365 C364 1.404 . S
C365 H377 0.930 . S
C366 C362 1.524 . S
C366 H378 0.956 . S
C366 H379 0.961 . S
C366 H380 0.961 . S
C367 C364 1.539 . S
C367 H381 0.958 . S
C367 H382 0.961 . S
C367 H383 0.960 . S
H368 C352 0.931 . S
H369 C357 0.929 . S
H370 C358 0.960 . S
H371 C358 0.962 . S
H372 C358 0.960 . S
H373 C359 0.961 . S
H374 C359 0.961 . S
H375 C359 0.961 . S
H376 C360 0.931 . S
H377 C365 0.930 . S
H378 C366 0.956 . S
H379 C366 0.961 . S
H380 C366 0.961 . S
H381 C367 0.958 . S
H382 C367 0.961 . S
H383 C367 0.960 . S
C384 C385 1.391 . S
C384 C386 1.394 . S
C384 H400 0.931 . S
C385 C384 1.391 . S
C385 C389 1.376 . S
C386 C384 1.394 . S
C386 C387 1.369 . S
C386 C390 1.531 . S
C387 C386 1.369 . S
C387 C388 1.410 . S
C387 C395 1.503 . S
C388 C387 1.410 . S
C388 C389 1.392 . S
C388 C391 1.511 . S
C389 C385 1.376 . S
C389 C388 1.392 . S
C389 H401 0.929 . S
C390 C386 1.531 . S
C390 H402 0.960 . S
C390 H403 0.962 . S
C390 H404 0.960 . S
C391 C388 1.511 . S
C391 H405 0.961 . S
C391 H406 0.961 . S
C391 H407 0.961 . S
C392 C393 1.370 . S
C392 C394 1.363 . S
C392 H408 0.931 . S
C393 C392 1.370 . S
C393 C397 1.408 . S
C394 C392 1.363 . S
C394 C395 1.370 . S
C394 C398 1.524 . S
C395 C387 1.503 . S
C395 C394 1.370 . S
C395 C396 1.403 . S
C396 C395 1.403 . S
C396 C397 1.404 . S
C396 C399 1.539 . S
C397 C393 1.408 . S
C397 C396 1.404 . S
C397 H409 0.930 . S
C398 C394 1.524 . S
C398 H410 0.956 . S
C398 H411 0.961 . S
C398 H412 0.961 . S
C399 C396 1.539 . S
C399 H413 0.958 . S
C399 H414 0.961 . S
C399 H415 0.960 . S
H400 C384 0.931 . S
H401 C389 0.929 . S
H402 C390 0.960 . S
H403 C390 0.962 . S
H404 C390 0.960 . S
H405 C391 0.961 . S
H406 C391 0.961 . S
H407 C391 0.961 . S
H408 C392 0.931 . S
H409 C397 0.930 . S
H410 C398 0.956 . S
H411 C398 0.961 . S
H412 C398 0.961 . S
H413 C399 0.958 . S
H414 C399 0.961 . S
H415 C399 0.960 . S
C416 C417 1.391 . S
C416 C418 1.394 . S
C416 H432 0.931 . S
C417 C416 1.391 . S
C417 C421 1.376 . S
C418 C416 1.394 . S
C418 C419 1.369 . S
C418 C422 1.531 . S
C419 C418 1.369 . S
C419 C420 1.410 . S
C419 C427 1.503 . S
C420 C419 1.410 . S
C420 C421 1.392 . S
C420 C423 1.511 . S
C421 C417 1.376 . S
C421 C420 1.392 . S
C421 H433 0.929 . S
C422 C418 1.531 . S
C422 H434 0.960 . S
C422 H435 0.962 . S
C422 H436 0.960 . S
C423 C420 1.511 . S
C423 H437 0.961 . S
C423 H438 0.961 . S
C423 H439 0.961 . S
C424 C425 1.370 . S
C424 C426 1.363 . S
C424 H440 0.931 . S
C425 C424 1.370 . S
C425 C429 1.408 . S
C426 C424 1.363 . S
C426 C427 1.370 . S
C426 C430 1.524 . S
C427 C419 1.503 . S
C427 C426 1.370 . S
C427 C428 1.403 . S
C428 C427 1.403 . S
C428 C429 1.404 . S
C428 C431 1.539 . S
C429 C425 1.408 . S
C429 C428 1.404 . S
C429 H441 0.930 . S
C430 C426 1.524 . S
C430 H442 0.956 . S
C430 H443 0.961 . S
C430 H444 0.961 . S
C431 C428 1.539 . S
C431 H445 0.958 . S
C431 H446 0.961 . S
C431 H447 0.960 . S
H432 C416 0.931 . S
H433 C421 0.929 . S
H434 C422 0.960 . S
H435 C422 0.962 . S
H436 C422 0.960 . S
H437 C423 0.961 . S
H438 C423 0.961 . S
H439 C423 0.961 . S
H440 C424 0.931 . S
H441 C429 0.930 . S
H442 C430 0.956 . S
H443 C430 0.961 . S
H444 C430 0.961 . S
H445 C431 0.958 . S
H446 C431 0.961 . S
H447 C431 0.960 . S
C448 C449 1.391 . S
C448 C450 1.394 . S
C448 H464 0.931 . S
C449 C448 1.391 . S
C449 C453 1.376 . S
C450 C448 1.394 . S
C450 C451 1.369 . S
C450 C454 1.531 . S
C451 C450 1.369 . S
C451 C452 1.410 . S
C451 C459 1.503 . S
C452 C451 1.410 . S
C452 C453 1.392 . S
C452 C455 1.511 . S
C453 C449 1.376 . S
C453 C452 1.392 . S
C453 H465 0.929 . S
C454 C450 1.531 . S
C454 H466 0.960 . S
C454 H467 0.962 . S
C454 H468 0.960 . S
C455 C452 1.511 . S
C455 H469 0.961 . S
C455 H470 0.961 . S
C455 H471 0.961 . S
C456 C457 1.370 . S
C456 C458 1.363 . S
C456 H472 0.931 . S
C457 C456 1.370 . S
C457 C461 1.408 . S
C458 C456 1.363 . S
C458 C459 1.370 . S
C458 C462 1.524 . S
C459 C451 1.503 . S
C459 C458 1.370 . S
C459 C460 1.403 . S
C460 C459 1.403 . S
C460 C461 1.404 . S
C460 C463 1.539 . S
C461 C457 1.408 . S
C461 C460 1.404 . S
C461 H473 0.930 . S
C462 C458 1.524 . S
C462 H474 0.956 . S
C462 H475 0.961 . S
C462 H476 0.961 . S
C463 C460 1.539 . S
C463 H477 0.958 . S
C463 H478 0.961 . S
C463 H479 0.960 . S
H464 C448 0.931 . S
H465 C453 0.929 . S
H466 C454 0.960 . S
H467 C454 0.962 . S
H468 C454 0.960 . S
H469 C455 0.961 . S
H470 C455 0.961 . S
H471 C455 0.961 . S
H472 C456 0.931 . S
H473 C461 0.930 . S
H474 C462 0.956 . S
H475 C462 0.961 . S
H476 C462 0.961 . S
H477 C463 0.958 . S
H478 C463 0.961 . S
H479 C463 0.960 . S
C480 C481 1.391 . S
C480 C482 1.394 . S
C480 H496 0.931 . S
C481 C480 1.391 . S
C481 C485 1.376 . S
C482 C480 1.394 . S
C482 C483 1.369 . S
C482 C486 1.531 . S
C483 C482 1.369 . S
C483 C484 1.410 . S
C483 C491 1.503 . S
C484 C483 1.410 . S
C484 C485 1.392 . S
C484 C487 1.511 . S
C485 C481 1.376 . S
C485 C484 1.392 . S
C485 H497 0.929 . S
C486 C482 1.531 . S
C486 H498 0.960 . S
C486 H499 0.962 . S
C486 H500 0.960 . S
C487 C484 1.511 . S
C487 H501 0.961 . S
C487 H502 0.961 . S
C487 H503 0.961 . S
C488 C489 1.370 . S
C488 C490 1.363 . S
C488 H504 0.931 . S
C489 C488 1.370 . S
C489 C493 1.408 . S
C490 C488 1.363 . S
C490 C491 1.370 . S
C490 C494 1.524 . S
C491 C483 1.503 . S
C491 C490 1.370 . S
C491 C492 1.403 . S
C492 C491 1.403 . S
C492 C493 1.404 . S
C492 C495 1.539 . S
C493 C489 1.408 . S
C493 C492 1.404 . S
C493 H505 0.930 . S
C494 C490 1.524 . S
C494 H506 0.956 . S
C494 H507 0.961 . S
C494 H508 0.961 . S
C495 C492 1.539 . S
C495 H509 0.958 . S
C495 H510 0.961 . S
C495 H511 0.960 . S
H496 C480 0.931 . S
H497 C485 0.929 . S
H498 C486 0.960 . S
H499 C486 0.962 . S
H500 C486 0.960 . S
H501 C487 0.961 . S
H502 C487 0.961 . S
H503 C487 0.961 . S
H504 C488 0.931 . S
H505 C493 0.930 . S
H506 C494 0.956 . S
H507 C494 0.961 . S
H508 C494 0.961 . S
H509 C495 0.958 . S
H510 C495 0.961 . S
H511 C495 0.960 . S
C512 C513 1.391 . S
C512 C514 1.394 . S
C512 H528 0.931 . S
C513 C512 1.391 . S
C513 C517 1.376 . S
C514 C512 1.394 . S
C514 C515 1.369 . S
C514 C518 1.531 . S
C515 C514 1.369 . S
C515 C516 1.410 . S
C515 C523 1.503 . S
C516 C515 1.410 . S
C516 C517 1.392 . S
C516 C519 1.511 . S
C517 C513 1.376 . S
C517 C516 1.392 . S
C517 H529 0.929 . S
C518 C514 1.531 . S
C518 H530 0.960 . S
C518 H531 0.962 . S
C518 H532 0.960 . S
C519 C516 1.511 . S
C519 H533 0.961 . S
C519 H534 0.961 . S
C519 H535 0.961 . S
C520 C521 1.370 . S
C520 C522 1.363 . S
C520 H536 0.931 . S
C521 C520 1.370 . S
C521 C525 1.408 . S
C522 C520 1.363 . S
C522 C523 1.370 . S
C522 C526 1.524 . S
C523 C515 1.503 . S
C523 C522 1.370 . S
C523 C524 1.403 . S
C524 C523 1.403 . S
C524 C525 1.404 . S
C524 C527 1.539 . S
C525 C521 1.408 . S
C525 C524 1.404 . S
C525 H537 0.930 . S
C526 C522 1.524 . S
C526 H538 0.956 . S
C526 H539 0.961 . S
C526 H540 0.961 . S
C527 C524 1.539 . S
C527 H541 0.958 . S
C527 H542 0.961 . S
C527 H543 0.960 . S
H528 C512 0.931 . S
H529 C517 0.929 . S
H530 C518 0.960 . S
H531 C518 0.962 . S
H532 C518 0.960 . S
H533 C519 0.961 . S
H534 C519 0.961 . S
H535 C519 0.961 . S
H536 C520 0.931 . S
H537 C525 0.930 . S
H538 C526 0.956 . S
H539 C526 0.961 . S
H540 C526 0.961 . S
H541 C527 0.958 . S
H542 C527 0.961 . S
H543 C527 0.960 . S
C544 C545 1.391 . S
C544 C546 1.394 . S
C544 H560 0.931 . S
C545 C544 1.391 . S
C545 C549 1.376 . S
C546 C544 1.394 . S
C546 C547 1.369 . S
C546 C550 1.531 . S
C547 C546 1.369 . S
C547 C548 1.410 . S
C547 C555 1.503 . S
C548 C547 1.410 . S
C548 C549 1.392 . S
C548 C551 1.511 . S
C549 C545 1.376 . S
C549 C548 1.392 . S
C549 H561 0.929 . S
C550 C546 1.531 . S
C550 H562 0.960 . S
C550 H563 0.962 . S
C550 H564 0.960 . S
C551 C548 1.511 . S
C551 H565 0.961 . S
C551 H566 0.961 . S
C551 H567 0.961 . S
C552 C553 1.370 . S
C552 C554 1.363 . S
C552 H568 0.931 . S
C553 C552 1.370 . S
C553 C557 1.408 . S
C554 C552 1.363 . S
C554 C555 1.370 . S
C554 C558 1.524 . S
C555 C547 1.503 . S
C555 C554 1.370 . S
C555 C556 1.403 . S
C556 C555 1.403 . S
C556 C557 1.404 . S
C556 C559 1.539 . S
C557 C553 1.408 . S
C557 C556 1.404 . S
C557 H569 0.930 . S
C558 C554 1.524 . S
C558 H570 0.956 . S
C558 H571 0.961 . S
C558 H572 0.961 . S
C559 C556 1.539 . S
C559 H573 0.958 . S
C559 H574 0.961 . S
C559 H575 0.960 . S
H560 C544 0.931 . S
H561 C549 0.929 . S
H562 C550 0.960 . S
H563 C550 0.962 . S
H564 C550 0.960 . S
H565 C551 0.961 . S
H566 C551 0.961 . S
H567 C551 0.961 . S
H568 C552 0.931 . S
H569 C557 0.930 . S
H570 C558 0.956 . S
H571 C558 0.961 . S
H572 C558 0.961 . S
H573 C559 0.958 . S
H574 C559 0.961 . S
H575 C559 0.960 . S
C576 C577 1.391 . S
C576 C578 1.394 . S
C576 H592 0.931 . S
C577 C576 1.391 . S
C577 C581 1.376 . S
C578 C576 1.394 . S
C578 C579 1.369 . S
C578 C582 1.531 . S
C579 C578 1.369 . S
C579 C580 1.410 . S
C579 C587 1.474 1_554 S
C580 C579 1.410 . S
C580 C581 1.392 . S
C580 C583 1.511 . S
C581 C577 1.376 . S
C581 C580 1.392 . S
C581 H593 0.929 . S
C582 C578 1.531 . S
C582 H594 0.960 . S
C582 H595 0.962 1_455 S
C582 H596 0.960 . S
C583 C580 1.511 . S
C583 H597 0.961 . S
C583 H598 0.961 . S
C583 H599 0.961 . S
C584 C585 1.370 . S
C584 C586 1.363 . S
C584 H600 0.931 1_455 S
C585 C584 1.370 . S
C585 C589 1.408 . S
C586 C584 1.363 . S
C586 C587 1.382 . S
C586 C590 1.524 1_455 S
C587 C579 1.474 1_556 S
C587 C586 1.382 . S
C587 C588 1.421 . S
C588 C587 1.421 . S
C588 C589 1.404 . S
C588 C591 1.539 1_556 S
C589 C585 1.408 . S
C589 C588 1.404 . S
C589 H601 0.930 . S
C590 C586 1.524 1_655 S
C590 H602 0.956 1_556 S
C590 H603 0.961 1_656 S
C590 H604 0.961 . S
C591 C588 1.539 1_554 S
C591 H605 0.958 . S
C591 H606 0.961 1_554 S
C591 H607 0.960 . S
H592 C576 0.931 . S
H593 C581 0.929 . S
H594 C582 0.960 . S
H595 C582 0.962 1_655 S
H596 C582 0.960 . S
H597 C583 0.961 . S
H598 C583 0.961 . S
H599 C583 0.961 . S
H600 C584 0.931 1_655 S
H601 C589 0.930 . S
H602 C590 0.956 1_554 S
H603 C590 0.961 1_454 S
H604 C590 0.961 . S
H605 C591 0.958 . S
H606 C591 0.961 1_556 S
H607 C591 0.960 . S
C608 C609 1.391 . S
C608 C610 1.394 . S
C608 H624 0.931 . S
C609 C608 1.391 . S
C609 C613 1.376 . S
C610 C608 1.394 . S
C610 C611 1.369 . S
C610 C614 1.531 . S
C611 C610 1.369 . S
C611 C612 1.410 . S
C611 C619 1.503 . S
C612 C611 1.410 . S
C612 C613 1.392 . S
C612 C615 1.511 . S
C613 C609 1.376 . S
C613 C612 1.392 . S
C613 H625 0.929 . S
C614 C610 1.531 . S
C614 H626 0.960 1_545 S
C614 H627 0.962 . S
C614 H628 0.960 1_545 S
C615 C612 1.511 . S
C615 H629 0.961 . S
C615 H630 0.961 . S
C615 H631 0.961 . S
C616 C617 1.370 . S
C616 C618 1.363 . S
C616 H632 0.931 . S
C617 C616 1.370 . S
C617 C621 1.408 . S
C618 C616 1.363 . S
C618 C619 1.370 . S
C618 C622 1.524 . S
C619 C611 1.503 . S
C619 C618 1.370 . S
C619 C620 1.403 . S
C620 C619 1.403 . S
C620 C621 1.404 . S
C620 C623 1.539 1_545 S
C621 C617 1.408 . S
C621 C620 1.404 . S
C621 H633 0.928 1_545 S
C622 C618 1.524 . S
C622 H634 0.956 . S
C622 H635 0.961 . S
C622 H636 0.961 . S
C623 C620 1.539 1_565 S
C623 H637 0.958 . S
C623 H638 0.961 . S
C623 H639 0.960 . S
H624 C608 0.931 . S
H625 C613 0.929 . S
H626 C614 0.960 1_565 S
H627 C614 0.962 . S
H628 C614 0.960 1_565 S
H629 C615 0.961 . S
H630 C615 0.961 . S
H631 C615 0.961 . S
H632 C616 0.931 . S
H633 C621 0.928 1_565 S
H634 C622 0.956 . S
H635 C622 0.961 . S
H636 C622 0.961 . S
H637 C623 0.958 . S
H638 C623 0.961 . S
H639 C623 0.960 . S
C640 C641 1.391 . S
C640 C642 1.394 . S
C640 H656 0.931 . S
C641 C640 1.391 . S
C641 C645 1.376 . S
C642 C640 1.394 . S
C642 C643 1.369 . S
C642 C646 1.531 . S
C643 C642 1.369 . S
C643 C644 1.410 . S
C643 C651 1.503 . S
C644 C643 1.410 . S
C644 C645 1.392 . S
C644 C647 1.511 . S
C645 C641 1.376 . S
C645 C644 1.392 . S
C645 H657 0.929 . S
C646 C642 1.531 . S
C646 H658 0.960 . S
C646 H659 0.962 . S
C646 H660 0.960 . S
C647 C644 1.511 . S
C647 H661 0.961 . S
C647 H662 0.961 . S
C647 H663 0.961 . S
C648 C649 1.370 . S
C648 C650 1.363 . S
C648 H664 0.931 . S
C649 C648 1.370 . S
C649 C653 1.408 . S
C650 C648 1.363 . S
C650 C651 1.370 . S
C650 C654 1.524 . S
C651 C643 1.503 . S
C651 C650 1.370 . S
C651 C652 1.403 . S
C652 C651 1.403 . S
C652 C653 1.404 . S
C652 C655 1.539 . S
C653 C649 1.408 . S
C653 C652 1.404 . S
C653 H665 0.930 . S
C654 C650 1.524 . S
C654 H666 0.956 . S
C654 H667 0.961 . S
C654 H668 0.961 . S
C655 C652 1.539 . S
C655 H669 0.958 . S
C655 H670 0.961 . S
C655 H671 0.960 . S
H656 C640 0.931 . S
H657 C645 0.929 . S
H658 C646 0.960 . S
H659 C646 0.962 . S
H660 C646 0.960 . S
H661 C647 0.961 . S
H662 C647 0.961 . S
H663 C647 0.961 . S
H664 C648 0.931 . S
H665 C653 0.930 . S
H666 C654 0.956 . S
H667 C654 0.961 . S
H668 C654 0.961 . S
H669 C655 0.958 . S
H670 C655 0.961 . S
H671 C655 0.960 . S
C672 C673 1.391 . S
C672 C674 1.394 . S
C672 H688 0.931 1_545 S
C673 C672 1.391 . S
C673 C677 1.376 . S
C674 C672 1.394 . S
C674 C675 1.369 . S
C674 C678 1.531 1_545 S
C675 C674 1.369 . S
C675 C676 1.410 . S
C675 C683 1.503 . S
C676 C675 1.410 . S
C676 C677 1.392 . S
C676 C679 1.511 . S
C677 C673 1.376 . S
C677 C676 1.392 . S
C677 H689 0.929 . S
C678 C674 1.531 1_565 S
C678 H690 0.960 . S
C678 H691 0.962 . S
C678 H692 0.960 . S
C679 C676 1.511 . S
C679 H693 0.961 . S
C679 H694 0.961 . S
C679 H695 0.961 . S
C680 C681 1.370 . S
C680 C682 1.363 . S
C680 H696 0.931 . S
C681 C680 1.370 . S
C681 C685 1.408 . S
C682 C680 1.363 . S
C682 C683 1.370 . S
C682 C686 1.524 . S
C683 C675 1.503 . S
C683 C682 1.370 . S
C683 C684 1.403 . S
C684 C683 1.403 . S
C684 C685 1.404 . S
C684 C687 1.539 . S
C685 C681 1.408 . S
C685 C684 1.404 . S
C685 H697 0.930 . S
C686 C682 1.524 . S
C686 H698 0.956 . S
C686 H699 0.961 . S
C686 H700 0.961 . S
C687 C684 1.539 . S
C687 H701 0.958 . S
C687 H702 0.961 . S
C687 H703 0.960 . S
H688 C672 0.931 1_565 S
H689 C677 0.929 . S
H690 C678 0.960 . S
H691 C678 0.962 . S
H692 C678 0.960 . S
H693 C679 0.961 . S
H694 C679 0.961 . S
H695 C679 0.961 . S
H696 C680 0.931 . S
H697 C685 0.930 . S
H698 C686 0.956 . S
H699 C686 0.961 . S
H700 C686 0.961 . S
H701 C687 0.958 . S
H702 C687 0.961 . S
H703 C687 0.960 . S
C704 C705 1.391 . S
C704 C706 1.394 . S
C704 H720 0.931 . S
C705 C704 1.391 . S
C705 C709 1.376 . S
C706 C704 1.394 . S
C706 C707 1.369 . S
C706 C710 1.531 . S
C707 C706 1.369 . S
C707 C708 1.410 . S
C707 C715 1.503 . S
C708 C707 1.410 . S
C708 C709 1.392 . S
C708 C711 1.511 . S
C709 C705 1.376 . S
C709 C708 1.392 . S
C709 H721 0.929 . S
C710 C706 1.531 . S
C710 H722 0.960 . S
C710 H723 0.962 . S
C710 H724 0.960 . S
C711 C708 1.511 . S
C711 H725 0.961 . S
C711 H726 0.961 . S
C711 H727 0.961 . S
C712 C713 1.370 . S
C712 C714 1.363 1_554 S
C712 H728 0.931 . S
C713 C712 1.370 . S
C713 C717 1.408 . S
C714 C712 1.363 1_556 S
C714 C715 1.370 . S
C714 C718 1.524 . S
C715 C707 1.503 . S
C715 C714 1.370 . S
C715 C716 1.403 1_556 S
C716 C715 1.403 1_554 S
C716 C717 1.404 . S
C716 C719 1.539 . S
C717 C713 1.408 . S
C717 C716 1.404 . S
C717 H729 0.930 . S
C718 C714 1.524 . S
C718 H730 0.956 . S
C718 H731 0.961 . S
C718 H732 0.961 . S
C719 C716 1.539 . S
C719 H733 0.958 . S
C719 H734 0.961 . S
C719 H735 0.960 1_554 S
H720 C704 0.931 . S
H721 C709 0.929 . S
H722 C710 0.960 . S
H723 C710 0.962 . S
H724 C710 0.960 . S
H725 C711 0.961 . S
H726 C711 0.961 . S
H727 C711 0.961 . S
H728 C712 0.931 . S
H729 C717 0.930 . S
H730 C718 0.956 . S
H731 C718 0.961 . S
H732 C718 0.961 . S
H733 C719 0.958 . S
H734 C719 0.961 . S
H735 C719 0.960 1_556 S
C736 C737 1.391 . S
C736 C738 1.394 . S
C736 H752 0.931 . S
C737 C736 1.391 . S
C737 C741 1.376 . S
C738 C736 1.394 . S
C738 C739 1.369 . S
C738 C742 1.531 . S
C739 C738 1.369 . S
C739 C740 1.410 . S
C739 C747 1.503 . S
C740 C739 1.410 . S
C740 C741 1.392 . S
C740 C743 1.511 . S
C741 C737 1.376 . S
C741 C740 1.392 . S
C741 H753 0.929 . S
C742 C738 1.531 . S
C742 H754 0.960 . S
C742 H755 0.962 1_455 S
C742 H756 0.960 . S
C743 C740 1.511 . S
C743 H757 0.961 . S
C743 H758 0.961 . S
C743 H759 0.961 . S
C744 C745 1.370 1_655 S
C744 C746 1.364 . S
C744 H760 0.931 . S
C745 C744 1.370 1_455 S
C745 C749 1.408 . S
C746 C744 1.364 . S
C746 C747 1.365 1_655 S
C746 C750 1.528 . S
C747 C739 1.503 . S
C747 C746 1.365 1_455 S
C747 C748 1.403 . S
C748 C747 1.403 . S
C748 C749 1.404 . S
C748 C751 1.539 . S
C749 C745 1.408 . S
C749 C748 1.404 . S
C749 H761 0.930 . S
C750 C746 1.528 . S
C750 H762 0.956 . S
C750 H763 0.961 . S
C750 H764 0.961 . S
C751 C748 1.539 . S
C751 H765 0.958 . S
C751 H766 0.961 . S
C751 H767 0.960 . S
H752 C736 0.931 . S
H753 C741 0.929 . S
H754 C742 0.960 . S
H755 C742 0.962 1_655 S
H756 C742 0.960 . S
H757 C743 0.961 . S
H758 C743 0.961 . S
H759 C743 0.961 . S
H760 C744 0.931 . S
H761 C749 0.930 . S
H762 C750 0.956 . S
H763 C750 0.961 . S
H764 C750 0.961 . S
H765 C751 0.958 . S
H766 C751 0.961 . S
H767 C751 0.960 . S
C193 C25 0.614 . S
C201 C186 0.620 . S
C225 C65 0.450 . S
C233 C160 0.303 . S
C257 C105 0.273 . S
C265 C172 0.257 . S
C289 C4 0.496 . S
C297 C184 0.302 . S
C329 C162 0.204 . S
C321 C44 0.350 . S
C361 C174 0.166 . S
C353 C84 0.185 . S
C385 C60 3.025 . S
C393 C136 2.944 . S
C417 C100 3.341 . S
C425 C150 3.311 . S
C449 C31 2.980 . S
C457 C126 2.938 1_565 S
C489 C138 2.944 . S
C481 C71 2.979 . S
C521 C148 2.627 . S
C513 C111 2.719 . S
C545 C20 3.027 . S
C553 C124 2.951 . S
C585 C153 1.801 . S
C577 C2 1.722 . S
C609 C42 1.730 . S
C617 C129 1.763 . S
C641 C82 1.700 . S
C649 C141 1.739 . S
C681 C177 1.193 . S
C673 C63 1.132 . S
C713 C189 1.216 . S
C705 C103 1.190 . S
C737 C23 1.129 . S
C745 C165 1.161 . S
