# Generated by pormake.
# Topology zzz, (3,6)-cn, num edge types: 1
# Building blocks:
#     Node 0, Type 0, BuildingBlock: ESEHIV_clean_linker_0, # of connection points: 3
#     Node 1, Type 0, BuildingBlock: ESEHIV_clean_linker_0, # of connection points: 3
#     Node 2, Type 0, BuildingBlock: ESEHIV_clean_linker_0, # of connection points: 3
#     Node 3, Type 0, BuildingBlock: ESEHIV_clean_linker_0, # of connection points: 3
#     Node 4, Type 0, BuildingBlock: ESEHIV_clean_linker_0, # of connection points: 3
#     Node 5, Type 0, BuildingBlock: ESEHIV_clean_linker_0, # of connection points: 3
#     Node 6, Type 0, BuildingBlock: ESEHIV_clean_linker_0, # of connection points: 3
#     Node 7, Type 0, BuildingBlock: ESEHIV_clean_linker_0, # of connection points: 3
#     Node 8, Type 1, BuildingBlock: BETFAJ_clean_sbu_0, # of connection points: 6
#     Node 9, Type 1, BuildingBlock: BETFAJ_clean_sbu_0, # of connection points: 6
#     Node 10, Type 1, BuildingBlock: BETFAJ_clean_sbu_0, # of connection points: 6
#     Node 11, Type 1, BuildingBlock: BETFAJ_clean_sbu_0, # of connection points: 6
#     Edge 12, Type (0, 1), BuildingBlock: MIFKUJ_clean_linker_0, # of connection points: 2
#     Edge 13, Type (0, 1), BuildingBlock: MIFKUJ_clean_linker_0, # of connection points: 2
#     Edge 14, Type (0, 1), BuildingBlock: MIFKUJ_clean_linker_0, # of connection points: 2
#     Edge 15, Type (0, 1), BuildingBlock: MIFKUJ_clean_linker_0, # of connection points: 2
#     Edge 16, Type (0, 1), BuildingBlock: MIFKUJ_clean_linker_0, # of connection points: 2
#     Edge 17, Type (0, 1), BuildingBlock: MIFKUJ_clean_linker_0, # of connection points: 2
#     Edge 18, Type (0, 1), BuildingBlock: MIFKUJ_clean_linker_0, # of connection points: 2
#     Edge 19, Type (0, 1), BuildingBlock: MIFKUJ_clean_linker_0, # of connection points: 2
#     Edge 20, Type (0, 1), BuildingBlock: MIFKUJ_clean_linker_0, # of connection points: 2
#     Edge 21, Type (0, 1), BuildingBlock: MIFKUJ_clean_linker_0, # of connection points: 2
#     Edge 22, Type (0, 1), BuildingBlock: MIFKUJ_clean_linker_0, # of connection points: 2
#     Edge 23, Type (0, 1), BuildingBlock: MIFKUJ_clean_linker_0, # of connection points: 2
#     Edge 24, Type (0, 1), BuildingBlock: MIFKUJ_clean_linker_0, # of connection points: 2
#     Edge 25, Type (0, 1), BuildingBlock: MIFKUJ_clean_linker_0, # of connection points: 2
#     Edge 26, Type (0, 1), BuildingBlock: MIFKUJ_clean_linker_0, # of connection points: 2
#     Edge 27, Type (0, 1), BuildingBlock: MIFKUJ_clean_linker_0, # of connection points: 2
#     Edge 28, Type (0, 1), BuildingBlock: MIFKUJ_clean_linker_0, # of connection points: 2
#     Edge 29, Type (0, 1), BuildingBlock: MIFKUJ_clean_linker_0, # of connection points: 2
#     Edge 30, Type (0, 1), BuildingBlock: MIFKUJ_clean_linker_0, # of connection points: 2
#     Edge 31, Type (0, 1), BuildingBlock: MIFKUJ_clean_linker_0, # of connection points: 2
#     Edge 32, Type (0, 1), BuildingBlock: MIFKUJ_clean_linker_0, # of connection points: 2
#     Edge 33, Type (0, 1), BuildingBlock: MIFKUJ_clean_linker_0, # of connection points: 2
#     Edge 34, Type (0, 1), BuildingBlock: MIFKUJ_clean_linker_0, # of connection points: 2
#     Edge 35, Type (0, 1), BuildingBlock: MIFKUJ_clean_linker_0, # of connection points: 2
# Relax obj value: 0.446
# Max RMSD: 0.271
# Mean RMSD: 0.253
data_MOF--net-zzz--node1-BETFAJ_clean_sbu_0--node2-ESEHIV_clean_linker_0--edge1-MIFKUJ_clean_linker_0
_symmetry_space_group_name_H-M    P1
_symmetry_Int_Tables_number       1
_symmetry_cell_setting            triclinic
loop_
_symmetry_equiv_pos_as_xyz
'x, y, z'
_cell_length_a     60.573183
_cell_length_b     60.515677
_cell_length_c     18.556415
_cell_angle_alpha  90.016749
_cell_angle_beta   90.160788
_cell_angle_gamma 89.971123
loop_
_atom_site_label
_atom_site_type_symbol
_atom_site_fract_x
_atom_site_fract_y
_atom_site_fract_z
_atom_type_partial_charge
H0 H 0.76869 0.51957 0.28538 0.0
H1 H 0.70571 0.52464 0.18128 0.0
H2 H 0.70925 0.51138 0.40943 0.0
C3 C 0.75082 0.52028 0.28883 0.0
C4 C 0.74068 0.51665 0.35563 0.0
C5 C 0.73831 0.52262 0.22582 0.0
C6 C 0.71537 0.52293 0.23037 0.0
C7 C 0.70462 0.51861 0.29553 0.0
C8 C 0.7173 0.51544 0.35913 0.0
H9 H 0.05787 0.766 0.33122 0.0
H10 H 0.06261 0.71016 0.18961 0.0
H11 H 1.00487 0.71889 0.32202 0.0
C12 C 0.05145 0.75033 0.31215 0.0
C13 C 0.03053 0.74354 0.33516 0.0
C14 C 0.06286 0.73879 0.25849 0.0
C15 C 0.054 0.71903 0.23189 0.0
C16 C 0.03341 0.71136 0.25588 0.0
C17 C 0.02131 0.72399 0.30636 0.0
H18 H 0.74271 0.95183 0.36162 0.0
H19 H 0.79537 0.94298 0.21075 0.0
H20 H 0.79413 1.00044 0.34955 0.0
C21 C 0.75859 0.95696 0.34039 0.0
C22 C 0.76746 0.97703 0.36364 0.0
C23 C 0.76831 0.94476 0.28494 0.0
C24 C 0.78819 0.95213 0.25515 0.0
C25 C 0.79815 0.97189 0.27928 0.0
C26 C 0.78727 0.98475 0.33252 0.0
H27 H 0.54661 0.7382 0.31954 0.0
H28 H 0.52333 0.79901 0.41284 0.0
H29 H 0.54922 0.79791 0.19652 0.0
C30 C 0.54483 0.75601 0.31681 0.0
C31 C 0.54919 0.76684 0.25191 0.0
C32 C 0.53537 0.76719 0.37513 0.0
C33 C 0.53137 0.79024 0.36934 0.0
C34 C 0.53734 0.80158 0.30531 0.0
C35 C 0.54622 0.78965 0.24748 0.0
H36 H 0.23532 0.55805 0.05309 0.0
H37 H 0.2865 0.56448 0.21034 0.0
H38 H 0.28761 0.50996 0.05909 0.0
C39 C 0.25096 0.55239 0.07498 0.0
C40 C 0.2603 0.53284 0.04899 0.0
C41 C 0.26025 0.56365 0.133 0.0
C42 C 0.27988 0.55592 0.16373 0.0
C43 C 0.29061 0.53701 0.13608 0.0
C44 C 0.28023 0.525 0.07957 0.0
H45 H 0.96691 0.23941 0.04098 0.0
H46 H 0.96103 0.30073 0.15628 0.0
H47 H 0.01951 0.28665 0.03232 0.0
C48 C 0.97302 0.25574 0.05428 0.0
C49 C 0.99377 0.2619 0.02826 0.0
C50 C 0.9611 0.26938 0.10135 0.0
C51 C 0.96996 0.29005 0.11964 0.0
C52 C 0.99101 0.29648 0.0954 0.0
C53 C 1.00311 0.28213 0.05016 0.0
H54 H 0.27622 0.05896 0.10453 0.0
H55 H 0.21493 0.05968 0.21949 0.0
H56 H 0.22317 0.01631 0.03713 0.0
C57 C 0.25912 0.05379 0.10901 0.0
C58 C 0.251 0.03761 0.0618 0.0
C59 C 0.24636 0.0615 0.16656 0.0
C60 C 0.22464 0.05407 0.17394 0.0
C61 C 0.21595 0.03805 0.12717 0.0
C62 C 0.22932 0.02946 0.07133 0.0
H63 H 0.55791 0.2673 0.08406 0.0
H64 H 0.50146 0.22423 0.07509 0.0
H65 H 0.55441 0.21146 0.22534 0.0
C66 C 0.54974 0.2522 0.10052 0.0
C67 C 0.55864 0.23985 0.1573 0.0
C68 C 0.52909 0.24701 0.07079 0.0
C69 C 0.51767 0.22819 0.09624 0.0
C70 C 0.5274 0.21465 0.14986 0.0
C71 C 0.5477 0.22083 0.18047 0.0
Sm72 Sm 0.01784 0.99525 0.74035 0.0
Sm73 Sm 0.98873 0.00987 0.62299 0.0
C74 C 0.03958 0.98619 0.86075 0.0
C75 C 0.05337 0.9679 0.88627 0.0
C76 C 0.0629 0.95308 0.83721 0.0
C77 C 0.07494 0.93493 0.86212 0.0
C78 C 0.07747 0.93119 0.93652 0.0
C79 C 0.06819 0.94639 0.98533 0.0
C80 C 0.05625 0.96459 0.96031 0.0
C81 C 0.03921 0.99698 0.60927 0.0
C82 C 0.99919 0.95635 0.64022 0.0
C83 C 0.96624 0.02074 0.50569 0.0
C84 C 0.9559 0.04154 0.48259 0.0
C85 C 0.96405 0.06175 0.50824 0.0
C86 C 0.95402 0.08154 0.48818 0.0
C87 C 0.93543 0.08158 0.44253 0.0
C88 C 0.92718 0.06124 0.41729 0.0
C89 C 0.93734 0.04136 0.4373 0.0
C90 C 0.96789 1.00875 0.75513 0.0
C91 C 1.00872 0.0486 0.72033 0.0
O92 O 0.01868 0.98158 0.8514 0.0
O93 O 0.04778 0.99812 0.80862 0.0
O94 O 0.02586 0.01143 0.63233 0.0
O95 O 0.04201 0.98145 0.65649 0.0
O96 O 1.00733 0.9606 0.70466 0.0
O97 O 0.99295 0.97255 0.59688 0.0
O98 O 0.98782 0.02076 0.50888 0.0
O99 O 0.9572 0.01123 0.56141 0.0
O100 O 0.98069 0.9939 0.73141 0.0
O101 O 0.96567 0.02455 0.7086 0.0
O102 O 1.00136 0.04418 0.65509 0.0
O103 O 0.01332 0.03249 0.76591 0.0
H104 H 0.06074 0.95537 0.77971 0.0
H105 H 0.08207 0.92371 0.82311 0.0
H106 H 0.06946 0.94383 0.04295 0.0
H107 H 0.04885 0.97583 0.99881 0.0
H108 H 0.97829 0.06227 0.5436 0.0
H109 H 0.96116 0.09685 0.50743 0.0
H110 H 0.91281 0.06067 0.38249 0.0
H111 H 0.93068 0.02586 0.41765 0.0
Sm112 Sm 0.51927 0.02352 0.79878 0.0
Sm113 Sm 0.50416 0.99241 0.65919 0.0
C114 C 0.53554 0.03354 0.92642 0.0
C115 C 0.55071 0.02082 0.9718 0.0
C116 C 0.55891 1.00068 0.94586 0.0
C117 C 0.57298 0.98794 0.9882 0.0
C118 C 0.57941 0.99533 0.0567 0.0
C119 C 0.57155 0.01571 0.08238 0.0
C120 C 0.55704 0.02834 0.04025 0.0
C121 C 0.5067 0.04893 0.68077 0.0
C122 C 0.55647 1.00433 0.67896 0.0
C123 C 0.48408 0.98052 0.54037 0.0
C124 C 0.46174 0.9874 0.51816 0.0
C125 C 0.45912 1.00089 0.45742 0.0
C126 C 0.43951 0.01257 0.44717 0.0
C127 C 0.42232 0.01104 0.49753 0.0
C128 C 0.42409 0.99595 0.55443 0.0
C129 C 0.44368 0.98426 0.56489 0.0
C130 C 0.51548 0.96727 0.77974 0.0
C131 C 0.4668 0.01251 0.77443 0.0
O132 O 0.51601 0.02457 0.91766 0.0
O133 O 0.54407 0.04088 0.86612 0.0
O134 O 0.50746 0.02822 0.68653 0.0
O135 O 0.5123 0.05746 0.74265 0.0
O136 O 0.55217 0.01225 0.74453 0.0
O137 O 0.54087 0.99729 0.63411 0.0
O138 O 0.4989 0.99637 0.54138 0.0
O139 O 0.48511 0.96765 0.59709 0.0
O140 O 0.51534 0.98793 0.77267 0.0
O141 O 0.51017 0.95866 0.7179 0.0
O142 O 0.47135 1.005 0.70889 0.0
O143 O 0.48228 0.0182 0.82158 0.0
H144 H 0.55445 0.99484 0.89257 0.0
H145 H 0.57934 0.97259 0.96658 0.0
H146 H 0.57658 0.02177 0.13485 0.0
H147 H 0.5509 0.04393 0.06074 0.0
H148 H 0.4727 1.00352 0.4205 0.0
H149 H 0.43802 0.0234 0.40127 0.0
H150 H 0.41094 0.99428 0.5935 0.0
H151 H 0.4451 0.97397 0.61241 0.0
Sm152 Sm 0.48303 0.5129 0.77617 0.0
Sm153 Sm 0.51528 0.50143 0.65002 0.0
C154 C 0.4608 0.51952 0.89622 0.0
C155 C 0.45104 0.53982 0.92477 0.0
C156 C 0.45556 0.54565 0.99638 0.0
C157 C 0.45571 0.56787 0.01645 0.0
C158 C 0.45123 0.58429 0.96496 0.0
C159 C 0.44341 0.57813 0.89662 0.0
C160 C 0.4434 0.55597 0.87644 0.0
C161 C 0.46451 0.51395 0.64077 0.0
C162 C 0.50334 0.55373 0.68394 0.0
C163 C 0.53134 0.49047 0.52287 0.0
C164 C 0.54605 0.47305 0.49715 0.0
C165 C 0.54789 0.46917 0.42316 0.0
C166 C 0.55934 0.4507 0.39838 0.0
C167 C 0.56912 0.43586 0.44738 0.0
C168 C 0.56818 0.44045 0.52151 0.0
C169 C 0.5566 0.4589 0.54629 0.0
C170 C 0.53968 0.5069 0.77609 0.0
C171 C 0.49932 0.46051 0.7521 0.0
O172 O 0.48237 0.52023 0.89274 0.0
O173 O 0.45169 0.51118 0.83814 0.0
O174 O 0.47806 0.49952 0.66311 0.0
O175 O 0.4599 0.52804 0.69125 0.0
O176 O 0.49637 0.54785 0.74893 0.0
O177 O 0.50819 0.53874 0.63435 0.0
O178 O 0.51221 0.48355 0.54651 0.0
O179 O 0.5403 0.5056 0.564 0.0
O180 O 0.51914 0.50864 0.76786 0.0
O181 O 0.54845 0.50198 0.71441 0.0
O182 O 0.51107 0.46635 0.69523 0.0
O183 O 0.48756 0.475 0.78955 0.0
H184 H 0.46155 0.53339 0.03424 0.0
H185 H 0.46179 0.57223 0.06955 0.0
H186 H 0.43974 0.59058 0.85633 0.0
H187 H 0.43991 0.55187 0.82073 0.0
H188 H 0.5398 0.47997 0.3847 0.0
H189 H 0.56003 0.44767 0.34089 0.0
H190 H 0.57536 0.42918 0.56042 0.0
H191 H 0.55513 0.46165 0.60379 0.0
Sm192 Sm 1.00123 0.48667 0.73816 0.0
Sm193 Sm 0.01141 0.51721 0.60672 0.0
C194 C 0.98356 0.46562 0.84774 0.0
C195 C 0.96 0.46216 0.86424 0.0
C196 C 0.94683 0.47995 0.88679 0.0
C197 C 0.92396 0.47797 0.88769 0.0
C198 C 0.91372 0.45821 0.86605 0.0
C199 C 0.92685 0.43996 0.84785 0.0
C200 C 0.94984 0.44191 0.84707 0.0
C201 C 0.01472 0.46571 0.61445 0.0
C202 C 0.95968 0.50481 0.63641 0.0
C203 C 0.02302 0.52991 0.4762 0.0
C204 C 0.03807 0.54509 0.43834 0.0
C205 C 0.05593 0.53631 0.4 0.0
C206 C 0.07037 0.55019 0.36332 0.0
C207 C 0.0671 0.57322 0.36306 0.0
C208 C 0.04897 0.58202 0.40048 0.0
C209 C 0.03456 0.56808 0.43781 0.0
C210 C 1.00722 0.54366 0.72776 0.0
C211 C 0.05157 0.50335 0.72152 0.0
O212 O 0.99101 0.48591 0.85294 0.0
O213 O 0.99058 0.4555 0.78992 0.0
O214 O 1.00121 0.48158 0.61766 0.0
O215 O 0.02178 0.46044 0.67833 0.0
O216 O 0.96594 0.49611 0.69872 0.0
O217 O 0.97417 0.51231 0.58943 0.0
O218 O 0.03208 0.513 0.50941 0.0
O219 O 1.00637 0.53859 0.51137 0.0
O220 O 1.00535 0.52296 0.72466 0.0
O221 O 0.01093 0.55138 0.66363 0.0
O222 O 0.04629 0.50977 0.65509 0.0
O223 O 0.03661 0.49609 0.76749 0.0
H224 H 0.95406 0.49573 0.90094 0.0
H225 H 0.91423 0.4921 0.90433 0.0
H226 H 0.91935 0.42448 0.83171 0.0
H227 H 0.95961 0.4279 0.82969 0.0
H228 H 0.05887 0.51864 0.39884 0.0
H229 H 0.08441 0.54281 0.33651 0.0
H230 H 0.04588 0.59965 0.40083 0.0
H231 H 0.02074 0.57534 0.46619 0.0
H232 H 0.20653 0.99905 0.19258 0.0
H233 H 0.17261 0.99024 0.25805 0.0
H234 H 0.14203 0.04929 0.17385 0.0
H235 H 0.1763 0.05841 0.11058 0.0
H236 H 0.13782 0.04868 0.31269 0.0
H237 H 0.12473 0.99439 0.12828 0.0
H238 H 0.13557 0.96321 0.05039 0.0
H239 H 0.14537 0.9223 0.23673 0.0
H240 H 0.13493 0.95333 0.31587 0.0
H241 H 0.03839 0.02964 0.50611 0.0
H242 H 0.06428 0.03476 0.40592 0.0
H243 H 0.09955 0.97608 0.47118 0.0
H244 H 0.07336 0.97053 0.56919 0.0
H245 H 0.09866 0.97701 0.33197 0.0
H246 H 0.11694 0.03047 0.51514 0.0
H247 H 0.1098 0.06145 0.59836 0.0
H248 H 0.09286 0.1032 0.41948 0.0
H249 H 0.09964 0.07237 0.33524 0.0
C250 C 0.19221 1.00958 0.18559 0.0
C251 C 0.19384 0.02913 0.14521 0.0
C252 C 0.17281 1.00463 0.22342 0.0
C253 C 0.15453 0.01902 0.22093 0.0
C254 C 0.15579 0.03789 0.17688 0.0
C255 C 0.17527 0.04295 0.13982 0.0
C256 C 0.13515 0.0157 0.26977 0.0
C257 C 0.12895 0.03314 0.31558 0.0
C258 C 0.12392 0.99523 0.2757 0.0
C259 C 0.12925 0.97627 0.22804 0.0
C260 C 0.12928 0.97878 0.15268 0.0
C261 C 0.13541 0.96115 0.10833 0.0
C262 C 0.14136 0.94086 0.13868 0.0
C263 C 0.14088 0.93806 0.21337 0.0
C264 C 0.13483 0.95566 0.25799 0.0
C265 C 0.05158 0.01777 0.49862 0.0
C266 C 0.05395 0.99981 0.54604 0.0
C267 C 0.06647 0.02075 0.44151 0.0
C268 C 0.08424 1.00603 0.43136 0.0
C269 C 0.0861 0.98772 0.4775 0.0
C270 C 0.07113 0.98462 0.53394 0.0
C271 C 0.10143 0.01 0.37489 0.0
C272 C 0.10728 0.99267 0.32802 0.0
C273 C 0.11257 0.03049 0.36847 0.0
C274 C 0.10855 0.04905 0.419 0.0
C275 C 0.11154 0.04622 0.49362 0.0
C276 C 0.10758 0.06375 0.54095 0.0
C277 C 0.10082 0.08425 0.51423 0.0
C278 C 0.09806 0.08729 0.4401 0.0
C279 C 0.10196 0.0698 0.39254 0.0
H280 H 0.09778 0.09781 0.55094 0.0
H281 H 0.14623 0.92728 0.10426 0.0
H282 H 0.49468 0.214 0.24969 0.0
H283 H 0.48536 0.18283 0.32866 0.0
H284 H 0.52777 0.14028 0.20413 0.0
H285 H 0.53717 0.17151 0.12558 0.0
H286 H 0.48935 0.11828 0.25781 0.0
H287 H 0.54898 0.16405 0.34162 0.0
H288 H 0.56595 0.19981 0.373 0.0
H289 H 0.51742 0.20972 0.53815 0.0
H290 H 0.49984 0.17421 0.50658 0.0
H291 H 0.51424 0.03871 0.53813 0.0
H292 H 0.51198 0.06402 0.43506 0.0
H293 H 0.48499 0.11449 0.57373 0.0
H294 H 0.48836 0.08963 0.67659 0.0
H295 H 0.51581 0.13197 0.50694 0.0
H296 H 0.45078 0.09284 0.39853 0.0
H297 H 0.42973 0.06138 0.34894 0.0
H298 H 0.48689 0.03972 0.23234 0.0
H299 H 0.50796 0.0717 0.27861 0.0
C300 C 0.50119 0.19776 0.23738 0.0
C301 C 0.51632 0.19502 0.18089 0.0
C302 C 0.49608 0.18001 0.28292 0.0
C303 C 0.50608 0.15924 0.27288 0.0
C304 C 0.5198 0.15609 0.21288 0.0
C305 C 0.52506 0.17388 0.16774 0.0
C306 C 0.50444 0.14179 0.32946 0.0
C307 C 0.49525 0.12119 0.31227 0.0
C308 C 0.512 0.14556 0.40064 0.0
C309 C 0.52297 0.16657 0.42129 0.0
C310 C 0.54185 0.17391 0.38434 0.0
C311 C 0.55157 0.19414 0.40213 0.0
C312 C 0.54275 0.20705 0.45745 0.0
C313 C 0.52422 0.19971 0.49524 0.0
C314 C 0.51436 0.17954 0.47742 0.0
C315 C 0.50727 0.05501 0.54594 0.0
C316 C 0.50148 0.06218 0.61544 0.0
C317 C 0.50587 0.06954 0.48676 0.0
C318 C 0.49822 0.0914 0.4957 0.0
C319 C 0.49117 0.09792 0.56473 0.0
C320 C 0.49301 0.08363 0.62374 0.0
C321 C 0.49991 0.10834 0.43662 0.0
C322 C 0.50957 0.12894 0.453 0.0
C323 C 0.49272 0.10457 0.36483 0.0
C324 C 0.48101 0.08428 0.34313 0.0
C325 C 0.45891 0.08117 0.36314 0.0
C326 C 0.44692 0.06342 0.33501 0.0
C327 C 0.45703 0.04842 0.28823 0.0
C328 C 0.47911 0.05127 0.26887 0.0
C329 C 0.49103 0.0693 0.29551 0.0
H330 H 0.44771 0.03464 0.26675 0.0
H331 H 0.55029 0.22272 0.4711 0.0
H332 H 0.32437 0.56389 0.17866 0.0
H333 H 0.35715 0.55438 0.24692 0.0
H334 H 0.3402 0.48527 0.23308 0.0
H335 H 0.30611 0.49497 0.1682 0.0
H336 H 0.35282 0.49299 0.36245 0.0
H337 H 0.38628 0.50908 0.1397 0.0
H338 H 0.39271 0.52976 0.02725 0.0
H339 H 0.41588 0.58548 0.14901 0.0
H340 H 0.40933 0.56526 0.26236 0.0
H341 H 0.45611 0.47778 0.55459 0.0
H342 H 0.43076 0.47611 0.45056 0.0
H343 H 0.41903 0.54615 0.46919 0.0
H344 H 0.44374 0.54776 0.57355 0.0
H345 H 0.42469 0.53022 0.322 0.0
H346 H 0.38385 0.51355 0.54354 0.0
H347 H 0.37707 0.49135 0.65274 0.0
H348 H 0.36967 0.43303 0.52305 0.0
H349 H 0.37671 0.45487 0.41313 0.0
C350 C 0.32748 0.54661 0.19001 0.0
C351 C 0.31228 0.53025 0.16852 0.0
C352 C 0.34657 0.54113 0.22831 0.0
C353 C 0.35159 0.51902 0.24461 0.0
C354 C 0.33686 0.50247 0.22117 0.0
C355 C 0.31743 0.50801 0.18337 0.0
C356 C 0.37141 0.51375 0.29022 0.0
C357 C 0.36867 0.50069 0.35225 0.0
C358 C 0.39231 0.52368 0.27771 0.0
C359 C 0.39713 0.53568 0.20967 0.0
C360 C 0.39268 0.52577 0.14257 0.0
C361 C 0.39632 0.53742 0.07866 0.0
C362 C 0.40449 0.55898 0.08107 0.0
C363 C 0.40942 0.56881 0.14732 0.0
C364 C 0.40581 0.55723 0.21143 0.0
C365 C 0.44836 0.49283 0.53566 0.0
C366 C 0.4518 0.51289 0.57236 0.0
C367 C 0.43385 0.49187 0.47641 0.0
C368 C 0.42292 0.51102 0.45215 0.0
C369 C 0.42728 0.53119 0.48668 0.0
C370 C 0.44136 0.53207 0.5465 0.0
C371 C 0.4057 0.51013 0.39452 0.0
C372 C 0.40897 0.52208 0.3306 0.0
C373 C 0.38551 0.49879 0.40437 0.0
C374 C 0.38107 0.48577 0.47032 0.0
C375 C 0.38095 0.49596 0.53841 0.0
C376 C 0.37703 0.48346 0.6004 0.0
C377 C 0.37301 0.46078 0.59486 0.0
C378 C 0.37283 0.45058 0.52728 0.0
C379 C 0.37678 0.46301 0.46513 0.0
H380 H 0.36998 0.45112 0.64291 0.0
H381 H 0.40706 0.56805 0.03154 0.0
H382 H 0.02949 0.30143 0.17052 0.0
H383 H 0.03988 0.33315 0.24585 0.0
H384 H 0.98374 0.36949 0.16551 0.0
H385 H 0.97332 0.33784 0.09044 0.0
H386 H 0.02128 0.39683 0.19347 0.0
H387 H 0.97681 0.34069 0.30887 0.0
H388 H 0.96881 0.30226 0.34436 0.0
H389 H 0.02901 0.29996 0.46689 0.0
H390 H 0.03758 0.33828 0.43087 0.0
H391 H 0.99326 0.46826 0.48471 0.0
H392 H 0.99476 0.44172 0.38524 0.0
H393 H 0.04381 0.40386 0.50067 0.0
H394 H 0.04187 0.43004 0.601 0.0
H395 H 0.0135 0.37728 0.45188 0.0
H396 H 0.05609 0.43534 0.34755 0.0
H397 H 0.06409 0.47363 0.31052 0.0
H398 H 1.00831 0.47271 0.16727 0.0
H399 H 0.99972 0.43454 0.20442 0.0
C400 C 0.01989 0.3165 0.16692 0.0
C401 C 1.00059 0.3172 0.12483 0.0
C402 C 0.02574 0.33456 0.21028 0.0
C403 C 0.01242 0.3536 0.21196 0.0
C404 C 0.99426 0.35502 0.16508 0.0
C405 C 0.98831 0.33692 0.12231 0.0
C406 C 0.01543 0.37058 0.26923 0.0
C407 C 0.01953 0.39264 0.24999 0.0
C408 C 0.01341 0.36505 0.34303 0.0
C409 C 1.00795 0.34226 0.36656 0.0
C410 C 0.9884 0.33194 0.34303 0.0
C411 C 0.98377 0.31018 0.36321 0.0
C412 C 0.99843 0.29865 0.40769 0.0
C413 C 0.0177 0.3089 0.43232 0.0
C414 C 0.02246 0.33064 0.41203 0.0
C415 C 1.00456 0.45442 0.48842 0.0
C416 C 0.0174 0.45119 0.55074 0.0
C417 C 1.00549 0.43928 0.43135 0.0
C418 C 0.01953 0.42078 0.43492 0.0
C419 C 0.0328 0.41792 0.49648 0.0
C420 C 0.03175 0.43295 0.55372 0.0
C421 C 0.01946 0.40375 0.37659 0.0
C422 C 0.01567 0.38159 0.39559 0.0
C423 C 0.02182 0.40927 0.3027 0.0
C424 C 0.02716 0.43211 0.27925 0.0
C425 C 0.04544 0.44334 0.30849 0.0
C426 C 0.05009 0.46503 0.28746 0.0
C427 C 0.03669 0.47561 0.23669 0.0
C428 C 0.01866 0.46449 0.20666 0.0
C429 C 0.0139 0.44282 0.22765 0.0
H430 H 0.04031 0.4924 0.22053 0.0
H431 H 0.99482 0.2818 0.42322 0.0
H432 H 0.80823 0.01251 0.22134 0.0
H433 H 0.83993 0.02165 0.14455 0.0
H434 H 0.86651 0.95634 0.17836 0.0
H435 H 0.83515 0.94731 0.25557 0.0
H436 H 0.8996 0.98675 0.17214 0.0
H437 H 0.83546 0.96726 0.03165 0.0
H438 H 0.79662 0.97056 0.99299 0.0
H439 H 0.80803 0.03757 0.92685 0.0
H440 H 0.84689 0.03477 0.96619 0.0
H441 H 0.96478 0.97407 0.85094 0.0
H442 H 0.93865 0.97024 0.95131 0.0
H443 H 0.91217 0.03483 0.9041 0.0
H444 H 0.93794 0.03859 0.80397 0.0
H445 H 0.87963 1.00642 0.92078 0.0
H446 H 0.94482 0.02504 0.0537 0.0
H447 H 0.9836 0.02153 0.09271 0.0
H448 H 0.97064 0.95626 0.17269 0.0
H449 H 0.93182 0.95924 0.13318 0.0
C450 C 0.82114 1.00033 0.21391 0.0
C451 C 0.81907 0.97913 0.24406 0.0
C452 C 0.83917 1.00549 0.16951 0.0
C453 C 0.85549 0.98955 0.1545 0.0
C454 C 0.85418 0.96891 0.18867 0.0
C455 C 0.83616 0.96373 0.23262 0.0
C456 C 0.87284 0.99353 0.09876 0.0
C457 C 0.89524 0.99092 0.11706 0.0
C458 C 0.86728 0.99924 0.02693 0.0
C459 C 0.844 1.00089 1.00256 0.0
C460 C 0.82964 0.98275 0.00932 0.0
C461 C 0.80763 0.98452 0.98724 0.0
C462 C 0.79984 1.00428 0.95765 0.0
C463 C 0.81407 0.02229 0.9499 0.0
C464 C 0.83609 0.02062 0.97205 0.0
C465 C 0.95349 0.9875 0.86245 0.0
C466 C 0.95336 1.00658 0.81921 0.0
C467 C 0.9386 0.98535 0.92004 0.0
C468 C 0.92338 1.00229 0.93574 0.0
C469 C 0.92361 0.02148 0.89322 0.0
C470 C 0.93843 0.02362 0.83593 0.0
C471 C 0.9065 0.99975 0.99395 0.0
C472 C 0.88411 1.00248 0.97596 0.0
C473 C 0.91213 0.99414 0.0659 0.0
C474 C 0.93545 0.99228 0.08977 0.0
C475 C 0.95027 0.00986 0.07903 0.0
C476 C 0.97226 1.00798 0.10134 0.0
C477 C 0.9796 0.98866 0.13496 0.0
C478 C 0.96494 0.9712 0.14653 0.0
C479 C 0.94294 0.97298 0.12423 0.0
H480 H 0.99662 0.98724 0.15221 0.0
H481 H 0.78279 1.00562 0.94058 0.0
H482 H 0.56546 0.83642 0.31544 0.0
H483 H 0.56242 0.87095 0.24708 0.0
H484 H 0.4964 0.85292 0.18205 0.0
H485 H 0.49933 0.81883 0.25211 0.0
H486 H 0.56044 0.87274 0.11044 0.0
H487 H 0.46726 0.89628 0.11997 0.0
H488 H 0.43704 0.89801 0.20859 0.0
H489 H 0.48423 0.90417 0.38051 0.0
H490 H 0.51473 0.90275 0.29289 0.0
H491 H 0.52518 0.92364 0.78784 0.0
H492 H 0.52993 0.90081 0.89525 0.0
H493 H 0.5201 0.95812 0.02971 0.0
H494 H 0.51456 0.98092 0.92143 0.0
H495 H 0.49745 0.92434 0.0818 0.0
H496 H 0.56982 0.93479 0.99723 0.0
H497 H 0.6025 0.93494 0.91913 0.0
H498 H 0.59992 0.86419 0.90451 0.0
H499 H 0.56713 0.86365 0.98265 0.0
C500 C 0.54987 0.8405 0.28995 0.0
C501 C 0.5324 0.82522 0.29088 0.0
C502 C 0.54825 0.86008 0.24969 0.0
C503 C 0.52919 0.86474 0.20879 0.0
C504 C 0.51116 0.85015 0.21387 0.0
C505 C 0.51273 0.83066 0.2546 0.0
C506 C 0.5292 0.88304 0.15408 0.0
C507 C 0.54668 0.88406 0.10436 0.0
C508 C 0.51154 0.89826 0.14669 0.0
C509 C 0.49329 0.89923 0.1998 0.0
C510 C 0.47119 0.8981 0.17664 0.0
C511 C 0.45401 0.899 0.22672 0.0
C512 C 0.45872 0.90114 0.30015 0.0
C513 C 0.48061 0.90243 0.32364 0.0
C514 C 0.49786 0.90153 0.27379 0.0
C515 C 0.52421 0.93145 0.84027 0.0
C516 C 0.51993 0.95422 0.84611 0.0
C517 C 0.527 0.91836 0.90182 0.0
C518 C 0.52568 0.92767 0.97105 0.0
C519 C 0.52131 0.95047 0.97709 0.0
C520 C 0.51844 0.96359 0.9152 0.0
C521 C 0.52826 0.91338 0.0365 0.0
C522 C 0.51128 0.9131 0.08807 0.0
C523 C 0.54656 0.89897 0.04595 0.0
C524 C 0.56594 0.89923 0.9966 0.0
C525 C 0.57618 0.91927 0.97766 0.0
C526 C 0.59475 0.91942 0.93317 0.0
C527 C 0.60333 0.89958 0.90694 0.0
C528 C 0.59329 0.87956 0.92503 0.0
C529 C 0.57471 0.87934 0.96962 0.0
H530 H 0.61772 0.89971 0.87252 0.0
H531 H 0.44539 0.90184 0.33883 0.0
H532 H 0.6706 0.54763 0.3161 0.0
H533 H 0.63501 0.54563 0.25308 0.0
H534 H 0.65114 0.47974 0.18114 0.0
H535 H 0.68549 0.48123 0.24869 0.0
H536 H 0.63081 0.54555 0.12007 0.0
H537 H 0.6092 0.45236 0.10431 0.0
H538 H 0.61226 0.41933 0.18118 0.0
H539 H 0.60868 0.45991 0.37053 0.0
H540 H 0.60476 0.4932 0.29488 0.0
H541 H 0.58399 0.51132 0.79151 0.0
H542 H 0.6055 0.5141 0.90279 0.0
H543 H 0.54575 0.50958 0.02756 0.0
H544 H 0.52401 0.50694 0.91547 0.0
H545 H 0.58059 0.48204 0.0794 0.0
H546 H 0.56896 0.55775 0.01971 0.0
H547 H 0.56804 0.59024 0.93959 0.0
H548 H 0.63783 0.58434 0.90441 0.0
H549 H 0.63912 0.5516 0.98351 0.0
C550 C 0.66573 0.5322 0.29112 0.0
C551 C 0.68056 0.51436 0.28914 0.0
C552 C 0.64558 0.53119 0.2535 0.0
C553 C 0.64004 0.5125 0.21173 0.0
C554 C 0.6543 0.49414 0.21415 0.0
C555 C 0.67404 0.49492 0.25345 0.0
C556 C 0.62127 0.51327 0.15844 0.0
C557 C 0.61969 0.5317 0.11233 0.0
C558 C 0.60646 0.49534 0.14733 0.0
C559 C 0.60688 0.47534 0.19376 0.0
C560 C 0.60869 0.45425 0.16233 0.0
C561 C 0.6106 0.43547 0.20568 0.0
C562 C 0.61079 0.43755 0.28057 0.0
C563 C 0.6086 0.45836 0.31242 0.0
C564 C 0.60643 0.47719 0.26933 0.0
C565 C 0.57537 0.51103 0.84258 0.0
C566 C 0.55226 0.50911 0.84464 0.0
C567 C 0.58771 0.51265 0.90624 0.0
C568 C 0.57729 0.51222 0.97376 0.0
C569 C 0.55418 0.51003 0.97618 0.0
C570 C 0.54175 0.50868 0.91214 0.0
C571 C 0.59081 0.51392 0.04105 0.0
C572 C 0.59143 0.496 0.08903 0.0
C573 C 0.60472 0.53227 0.05419 0.0
C574 C 0.6041 0.55213 0.00727 0.0
C575 C 0.58409 0.56329 0.99456 0.0
C576 C 0.5835 0.58177 0.94936 0.0
C577 C 0.60286 0.58932 0.91684 0.0
C578 C 0.62285 0.57846 0.92963 0.0
C579 C 0.62352 0.55996 0.97474 0.0
H580 H 0.60237 0.60361 0.8818 0.0
H581 H 0.61276 0.42302 0.31372 0.0
H582 H 1.00864 0.70965 0.13454 0.0
H583 H 1.00086 0.67713 0.06051 0.0
H584 H 0.03125 0.63544 0.22145 0.0
H585 H 0.03971 0.66833 0.29428 0.0
H586 H 0.04607 0.6237 0.09864 0.0
H587 H 0.9735 0.63458 0.18388 0.0
H588 H 0.93936 0.65462 0.21479 0.0
H589 H 0.92955 0.67128 0.9921 0.0
H590 H 0.9638 0.65162 0.9599 0.0
H591 H 0.01239 0.53104 0.86963 0.0
H592 H 0.01394 0.55545 0.97608 0.0
H593 H 1.00191 0.61189 0.83974 0.0
H594 H 1.00082 0.58784 0.73407 0.0
H595 H 0.97579 0.61076 0.96761 0.0
H596 H 0.05157 0.59885 0.88967 0.0
H597 H 0.0846 0.57613 0.86722 0.0
H598 H 0.08732 0.5583 0.09095 0.0
H599 H 0.05383 0.58029 0.11442 0.0
C600 C 0.01297 0.69345 0.15502 0.0
C601 C 0.02422 0.69137 0.22082 0.0
C602 C 1.00857 0.67481 0.11267 0.0
C603 C 0.01514 0.65359 0.13548 0.0
C604 C 0.02588 0.6515 0.20251 0.0
C605 C 0.03047 0.67024 0.24461 0.0
C606 C 0.01218 0.63406 0.08676 0.0
C607 C 0.03052 0.62058 0.07132 0.0
C608 C 0.99197 0.62984 0.0506 0.0
C609 C 0.97133 0.64173 0.06955 0.0
C610 C 0.96415 0.64265 0.14154 0.0
C611 C 0.94477 0.65393 0.15929 0.0
C612 C 0.93232 0.66425 0.10546 0.0
C613 C 0.93922 0.66328 0.03374 0.0
C614 C 0.9586 0.65205 0.0157 0.0
C615 C 0.00989 0.54863 0.86275 0.0
C616 C 1.00646 0.55755 0.79359 0.0
C617 C 0.01087 0.56256 0.92344 0.0
C618 C 1.00811 0.58554 0.91586 0.0
C619 C 1.00406 0.59425 0.84701 0.0
C620 C 1.00348 0.58048 0.78659 0.0
C621 C 0.00975 0.60091 0.97847 0.0
C622 C 0.99116 0.61364 0.99626 0.0
C623 C 0.02959 0.60402 0.01794 0.0
C624 C 0.0498 0.59083 1.00346 0.0
C625 C 0.0589 0.58974 0.93387 0.0
C626 C 0.07775 0.577 0.92096 0.0
C627 C 0.0879 0.56556 0.97745 0.0
C628 C 0.07932 0.56698 0.04709 0.0
C629 C 0.06036 0.57954 0.06017 0.0
H630 H 0.10256 0.55581 0.96738 0.0
H631 H 0.91731 0.67296 0.11932 0.0
H632 H 0.94944 0.2759 0.24282 0.0
H633 H 0.92865 0.25003 0.31545 0.0
H634 H 0.90983 0.21413 0.12427 0.0
H635 H 0.92882 0.24129 0.05001 0.0
H636 H 0.88258 0.20368 0.23782 0.0
H637 H 0.96087 0.20587 0.18689 0.0
H638 H 0.99659 0.22532 0.18005 0.0
H639 H 0.99469 0.2373 0.40812 0.0
H640 H 0.95874 0.2182 0.41594 0.0
H641 H 0.91981 0.09269 0.30844 0.0
H642 H 0.90982 0.12955 0.26549 0.0
H643 H 0.91983 0.15585 0.47898 0.0
H644 H 0.92905 0.11895 0.52319 0.0
H645 H 0.94741 0.17346 0.36928 0.0
H646 H 0.87081 0.15993 0.41408 0.0
H647 H 0.83589 0.13914 0.40692 0.0
H648 H 0.83613 0.14507 0.17636 0.0
H649 H 0.87124 0.16563 0.182 0.0
C650 C 0.93977 0.26344 0.21528 0.0
C651 C 0.9418 0.26002 0.14053 0.0
C652 C 0.92791 0.2485 0.25731 0.0
C653 C 0.9187 0.22957 0.22545 0.0
C654 C 0.91728 0.22835 0.15015 0.0
C655 C 0.92852 0.24372 0.10781 0.0
C656 C 0.91648 0.20905 0.26832 0.0
C657 C 0.89665 0.19706 0.26697 0.0
C658 C 0.93497 0.20032 0.30561 0.0
C659 C 0.95708 0.2108 0.3019 0.0
C660 C 0.9681 0.21266 0.23554 0.0
C661 C 0.98834 0.22365 0.23145 0.0
C662 C 0.99788 0.23259 0.29361 0.0
C663 C 0.98725 0.23041 0.36002 0.0
C664 C 0.96695 0.21949 0.36433 0.0
C665 C 0.91913 0.10613 0.34691 0.0
C666 C 0.92562 0.10293 0.41903 0.0
C667 C 0.9134 0.1272 0.32221 0.0
C668 C 0.91413 0.14537 0.36913 0.0
C669 C 0.91918 0.142 0.44204 0.0
C670 C 0.92467 0.12094 0.46694 0.0
C671 C 0.91341 0.16806 0.33977 0.0
C672 C 0.93301 0.18031 0.34239 0.0
C673 C 0.89491 0.17652 0.30212 0.0
C674 C 0.87377 0.1642 0.29847 0.0
C675 C 0.86353 0.15664 0.36179 0.0
C676 C 0.84367 0.14493 0.35801 0.0
C677 C 0.83382 0.14075 0.29122 0.0
C678 C 0.84379 0.14832 0.22806 0.0
C679 C 0.86365 0.16003 0.23153 0.0
H680 H 0.81844 0.13168 0.28841 0.0
H681 H 0.01351 0.24118 0.29035 0.0
H682 H 0.2466 0.04894 0.30589 0.0
H683 H 0.27439 0.05826 0.39416 0.0
H684 H 0.29945 0.1093 0.25359 0.0
H685 H 0.27223 0.09868 0.16215 0.0
H686 H 0.32951 0.0834 0.2735 0.0
H687 H 0.28556 0.11813 0.44463 0.0
H688 H 0.25344 0.12655 0.52105 0.0
H689 H 0.2616 0.0648 0.63181 0.0
H690 H 0.29352 0.05577 0.55537 0.0
H691 H 0.42332 0.0555 0.47826 0.0
H692 H 0.39198 0.07996 0.45346 0.0
H693 H 0.34719 0.02552 0.48679 0.0
H694 H 0.37857 1.00082 0.50864 0.0
H695 H 0.33121 0.06909 0.53626 0.0
H696 H 0.36542 0.03186 0.32864 0.0
H697 H 0.39572 0.0233 0.24464 0.0
H698 H 0.40409 0.09243 0.2005 0.0
H699 H 0.37404 0.10141 0.2853 0.0
C700 C 0.25735 0.06284 0.29504 0.0
C701 C 0.25749 0.0729 0.22694 0.0
C702 C 0.27326 0.06837 0.3462 0.0
C703 C 0.2893 0.08448 0.33094 0.0
C704 C 0.28745 0.09665 0.26653 0.0
C705 C 0.27189 0.09064 0.21431 0.0
C706 C 0.31049 0.08407 0.37171 0.0
C707 C 0.32987 0.08124 0.33137 0.0
C708 C 0.31129 0.08105 0.44746 0.0
C709 C 0.29205 0.08629 0.49406 0.0
C710 C 0.28046 0.10626 0.48498 0.0
C711 C 0.26227 0.11115 0.52838 0.0
C712 C 0.2555 0.09622 0.58127 0.0
C713 C 0.2669 0.07637 0.59092 0.0
C714 C 0.2851 0.07139 0.54766 0.0
C715 C 0.40675 0.04882 0.48026 0.0
C716 C 0.40327 0.02618 0.49272 0.0
C717 C 0.38892 0.06286 0.46751 0.0
C718 C 0.36737 0.05447 0.46801 0.0
C719 C 0.36375 0.03228 0.48667 0.0
C720 C 0.38162 0.01817 0.49866 0.0
C721 C 0.3491 0.06737 0.43659 0.0
C722 C 0.33064 0.07244 0.47888 0.0
C723 C 0.34904 0.07269 0.36254 0.0
C724 C 0.36779 0.06733 0.31431 0.0
C725 C 0.37398 0.04525 0.302 0.0
C726 C 0.39101 0.04031 0.2539 0.0
C727 C 0.4018 0.05731 0.21718 0.0
C728 C 0.3957 0.07928 0.22895 0.0
C729 C 0.37872 0.08431 0.27715 0.0
H730 H 0.41491 0.05345 0.17972 0.0
H731 H 0.2414 0.10004 0.61479 0.0
H732 H 0.556 0.24925 0.29893 0.0
H733 H 0.57511 0.27949 0.35768 0.0
H734 H 0.61977 0.28437 0.17736 0.0
H735 H 0.59939 0.25489 0.11585 0.0
H736 H 0.60909 0.2984 0.40437 0.0
H737 H 0.62599 0.33463 0.12806 0.0
H738 H 0.61516 0.33087 1.00011 0.0
H739 H 0.55086 0.30835 0.06345 0.0
H740 H 0.56147 0.31166 0.19167 0.0
H741 H 0.60784 0.41537 0.4874 0.0
H742 H 0.62193 0.37967 0.44379 0.0
H743 H 0.5642 0.37281 0.30845 0.0
H744 H 0.55059 0.40825 0.34996 0.0
H745 H 0.59782 0.36107 0.23615 0.0
H746 H 0.57089 0.34704 0.47964 0.0
H747 H 0.57091 0.35158 0.61185 0.0
H748 H 0.63852 0.33034 0.62113 0.0
H749 H 0.63894 0.32593 0.48881 0.0
C750 C 0.5705 0.25609 0.27312 0.0
C751 C 0.57593 0.25018 0.20225 0.0
C752 C 0.5815 0.27347 0.30685 0.0
C753 C 0.59833 0.2849 0.27061 0.0
C754 C 0.60629 0.27634 0.20519 0.0
C755 C 0.59482 0.25935 0.17034 0.0
C756 C 0.60358 0.30783 0.29371 0.0
C757 C 0.60707 0.31213 0.36736 0.0
C758 C 0.60083 0.32589 0.24578 0.0
C759 C 0.59464 0.32307 0.16907 0.0
C760 C 0.60962 0.32872 0.1145 0.0
C761 C 0.60352 0.32664 0.04205 0.0
C762 C 0.5824 0.3192 0.0237 0.0
C763 C 0.56728 0.3139 0.07775 0.0
C764 C 0.57335 0.31578 0.15027 0.0
C765 C 0.59829 0.40616 0.44818 0.0
C766 C 0.57825 0.41465 0.4214 0.0
C767 C 0.60634 0.38583 0.42332 0.0
C768 C 0.59417 0.37357 0.37264 0.0
C769 C 0.57413 0.3821 0.34655 0.0
C770 C 0.56632 0.40239 0.37035 0.0
C771 C 0.60134 0.35146 0.34732 0.0
C772 C 0.60073 0.34742 0.27294 0.0
C773 C 0.60525 0.33365 0.39512 0.0
C774 C 0.60506 0.33649 0.4744 0.0
C775 C 0.58581 0.34353 0.50988 0.0
C776 C 0.58573 0.34605 0.58479 0.0
C777 C 0.60473 0.34133 0.62482 0.0
C778 C 0.62384 0.33406 0.59002 0.0
C779 C 0.62401 0.33156 0.51509 0.0
H780 H 0.60462 0.34323 0.68281 0.0
H781 H 0.57774 0.3176 0.9676 0.0
H782 H 0.2483 0.60356 0.0768 0.0
H783 H 0.21771 0.62673 0.11871 0.0
H784 H 0.20948 0.58329 0.30162 0.0
H785 H 0.24091 0.56163 0.26279 0.0
H786 H 0.17947 0.61693 0.11654 0.0
H787 H 0.18004 0.59865 0.43058 0.0
H788 H 0.2063 0.60227 0.53139 0.0
H789 H 0.2444 0.64892 0.40979 0.0
H790 H 0.21818 0.64592 0.30849 0.0
H791 H 0.08825 0.56602 0.23547 0.0
H792 H 0.12109 0.58439 0.19282 0.0
H793 H 0.11495 0.63318 0.36175 0.0
H794 H 0.08306 0.61334 0.40912 0.0
H795 H 0.15279 0.62085 0.36823 0.0
H796 H 0.11505 0.64665 0.17104 0.0
H797 H 0.08882 0.64874 0.06956 0.0
H798 H 0.12533 0.59883 0.9565 0.0
H799 H 0.1511 0.59562 0.05856 0.0
C800 C 0.24062 0.59988 0.12806 0.0
C801 C 0.24703 0.58112 0.16739 0.0
C802 C 0.223 0.61293 0.15166 0.0
C803 C 0.21114 0.60702 0.21381 0.0
C804 C 0.2186 0.58895 0.25511 0.0
C805 C 0.23658 0.57637 0.23271 0.0
C806 C 0.18894 0.61662 0.22875 0.0
C807 C 0.17371 0.61819 0.17156 0.0
C808 C 0.1814 0.61997 0.30008 0.0
C809 C 0.19703 0.6221 0.36174 0.0
C810 C 0.19384 0.60991 0.42548 0.0
C811 C 0.20879 0.61178 0.4827 0.0
C812 C 0.227 0.62582 0.47701 0.0
C813 C 0.2303 0.63803 0.4141 0.0
C814 C 0.2154 0.63623 0.35671 0.0
C815 C 0.09376 0.58076 0.26337 0.0
C816 C 0.08343 0.58777 0.32704 0.0
C817 C 0.11237 0.59166 0.23783 0.0
C818 C 0.12068 0.61038 0.27373 0.0
C819 C 0.10904 0.61871 0.33327 0.0
C820 C 0.09065 0.60744 0.36 0.0
C821 C 0.14329 0.61837 0.25638 0.0
C822 C 0.15859 0.62042 0.31307 0.0
C823 C 0.15091 0.61948 0.18445 0.0
C824 C 0.13528 0.62109 0.12249 0.0
C825 C 0.11744 0.636 0.12479 0.0
C826 C 0.10256 0.63732 0.06721 0.0
C827 C 0.10545 0.624 0.0065 0.0
C828 C 0.12314 0.60921 1.00345 0.0
C829 C 0.1379 0.60762 0.06123 0.0
H830 H 0.09398 0.62513 0.96186 0.0
H831 H 0.23856 0.62722 0.52135 0.0
H832 H 0.09883 0.75971 0.3169 0.0
H833 H 0.11838 0.79045 0.25992 0.0
H834 H 0.086 0.77575 0.0582 0.0
H835 H 0.06674 0.74505 0.11436 0.0
H836 H 0.12507 0.79678 0.03532 0.0
H837 H 0.05895 0.80669 0.1841 0.0
H838 H 0.03765 0.80415 0.29699 0.0
H839 H 0.08758 0.84139 0.40796 0.0
H840 H 0.10917 0.84414 0.29557 0.0
H841 H 0.07429 0.88938 0.88151 0.0
H842 H 0.08809 0.85528 0.93444 0.0
H843 H 0.11859 0.89237 0.10655 0.0
H844 H 0.10474 0.92671 0.05345 0.0
H845 H 0.09215 0.86185 0.15737 0.0
H846 H 0.15045 0.86176 0.98756 0.0
H847 H 0.16792 0.86529 0.8683 0.0
H848 H 0.13014 0.81021 0.79019 0.0
H849 H 0.11219 0.80652 0.90861 0.0
C850 C 0.09674 0.76242 0.25958 0.0
C851 C 0.08093 0.75034 0.22039 0.0
C852 C 0.10786 0.78001 0.22714 0.0
C853 C 0.10306 0.78578 0.15551 0.0
C854 C 0.08982 0.77169 0.11372 0.0
C855 C 0.07883 0.75404 0.14594 0.0
C856 C 0.10753 0.80837 0.12867 0.0
C857 C 0.1181 0.8111 0.06208 0.0
C858 C 0.09869 0.82709 0.16431 0.0
C859 C 0.08582 0.82532 0.23189 0.0
C860 C 0.06543 0.81421 0.23273 0.0
C861 C 0.05329 0.81278 0.29653 0.0
C862 C 0.06135 0.82244 0.35974 0.0
C863 C 0.08143 0.83379 0.35906 0.0
C864 C 0.09361 0.83532 0.29534 0.0
C865 C 0.08453 0.89041 0.92931 0.0
C866 C 0.0884 0.91081 0.96339 0.0
C867 C 0.0925 0.87085 0.95947 0.0
C868 C 0.10463 0.87126 0.02403 0.0
C869 C 0.10939 0.89167 0.05645 0.0
C870 C 0.10136 0.91126 0.02634 0.0
C871 C 0.10919 0.85032 0.06271 0.0
C872 C 0.10007 0.84784 0.13159 0.0
C873 C 0.11905 0.8319 0.02845 0.0
C874 C 0.12993 0.8339 0.9571 0.0
C875 C 0.14577 0.85046 0.94487 0.0
C876 C 0.15577 0.85249 0.87739 0.0
C877 C 0.15014 0.83799 0.8217 0.0
C878 C 0.13451 0.82141 0.83341 0.0
C879 C 0.12445 0.81932 0.90077 0.0
H880 H 0.15789 0.83959 0.76948 0.0
H881 H 0.05202 0.82119 0.40921 0.0
H882 H 0.7477 0.90943 0.34715 0.0
H883 H 0.71051 0.89868 0.31063 0.0
H884 H 0.71964 0.9318 0.10722 0.0
H885 H 0.75652 0.94288 0.14404 0.0
H886 H 0.68906 0.93866 0.3005 0.0
H887 H 0.67696 0.91861 0.99406 0.0
H888 H 0.69044 0.89156 0.90526 0.0
H889 H 0.70634 0.84623 0.07564 0.0
H890 H 0.69261 0.87284 0.16554 0.0
H891 H 0.61994 1.00832 0.10181 0.0
H892 H 0.64921 0.98473 0.15096 0.0
H893 H 0.60473 0.92902 0.15002 0.0
H894 H 0.57515 0.95297 0.10342 0.0
H895 H 0.64573 0.92093 0.0809 0.0
H896 H 0.61866 0.94872 0.30414 0.0
H897 H 0.60545 0.97844 0.38375 0.0
H898 H 0.66918 1.00925 0.37723 0.0
H899 H 0.68275 0.97999 0.29617 0.0
C900 C 0.74231 0.91309 0.29272 0.0
C901 C 0.75454 0.92771 0.2495 0.0
C902 C 0.721 0.90699 0.27198 0.0
C903 C 0.7121 0.91504 0.20723 0.0
C904 C 0.72612 0.92551 0.1577 0.0
C905 C 0.74736 0.93181 0.17875 0.0
C906 C 0.68814 0.91958 0.20221 0.0
C907 C 0.67937 0.93431 0.2533 0.0
C908 C 0.67554 0.91394 0.14071 0.0
C909 C 0.68379 0.89781 0.08673 0.0
C910 C 0.68318 0.90283 0.01269 0.0
C911 C 0.69091 0.88757 0.9621 0.0
C912 C 0.69927 0.8672 0.98479 0.0
C913 C 0.69991 0.86204 0.05814 0.0
C914 C 0.6922 0.87723 0.10896 0.0
C915 C 0.61632 0.99119 0.11395 0.0
C916 C 0.59555 0.98224 0.09801 0.0
C917 C 0.633 0.97771 0.14149 0.0
C918 C 0.6291 0.95513 0.15365 0.0
C919 C 0.60807 0.94636 0.14037 0.0
C920 C 0.59131 0.95993 0.11351 0.0
C921 C 0.64748 0.94076 0.17711 0.0
C922 C 0.65514 0.92448 0.12936 0.0
C923 C 0.65929 0.94518 0.24123 0.0
C924 C 0.65168 0.96215 0.29359 0.0
C925 C 0.62988 0.96184 0.31949 0.0
C926 C 0.62233 0.97864 0.36487 0.0
C927 C 0.63651 0.99571 0.38562 0.0
C928 C 0.65829 0.99595 0.3613 0.0
C929 C 0.66592 0.97925 0.31564 0.0
H930 H 0.63062 1.00876 0.42052 0.0
H931 H 0.70525 0.85541 0.94553 0.0
H932 H 0.52193 0.76985 0.13785 0.0
H933 H 0.51214 0.73934 0.06008 0.0
H934 H 0.56872 0.70262 0.1365 0.0
H935 H 0.57764 0.73291 0.21936 0.0
H936 H 0.52085 0.71193 0.96473 0.0
H937 H 0.55522 0.6512 0.16953 0.0
H938 H 0.56941 0.64967 0.29446 0.0
H939 H 0.52712 0.70354 0.35322 0.0
H940 H 0.51272 0.70549 0.2289 0.0
H941 H 0.47937 0.60545 0.87687 0.0
H942 H 0.50129 0.63799 0.90402 0.0
H943 H 0.46656 0.64574 0.10546 0.0
H944 H 0.44517 0.61221 0.07949 0.0
H945 H 0.50835 0.64832 0.12824 0.0
H946 H 0.45934 0.68148 0.95591 0.0
H947 H 0.43999 0.68336 0.83896 0.0
H948 H 0.50225 0.68806 0.72974 0.0
H949 H 0.52189 0.68574 0.84559 0.0
C950 C 0.5329 0.75571 0.13585 0.0
C951 C 0.55022 0.75344 0.18568 0.0
C952 C 0.52725 0.73815 0.09123 0.0
C953 C 0.53911 0.71825 0.09487 0.0
C954 C 0.5588 0.71751 0.1351 0.0
C955 C 0.56408 0.73488 0.18171 0.0
C956 C 0.52829 0.69779 0.06866 0.0
C957 C 0.51835 0.69791 1.00018 0.0
C958 C 0.52462 0.67956 0.11519 0.0
C959 C 0.53316 0.67866 0.18992 0.0
C960 C 0.549 0.66273 0.20925 0.0
C961 C 0.55707 0.66183 0.27988 0.0
C962 C 0.54924 0.67663 0.33165 0.0
C963 C 0.53321 0.69222 0.31304 0.0
C964 C 0.52513 0.69327 0.24252 0.0
C965 C 0.47593 0.61448 0.92592 0.0
C966 C 0.46041 0.60656 0.97576 0.0
C967 C 0.48854 0.63305 0.94151 0.0
C968 C 0.48547 0.64442 0.00649 0.0
C969 C 0.46923 0.63714 0.05503 0.0
C970 C 0.45689 0.61819 0.04005 0.0
C971 C 0.50017 0.663 0.02584 0.0
C972 C 0.51104 0.66225 0.09248 0.0
C973 C 0.50391 0.68101 0.9789 0.0
C974 C 0.49208 0.68321 0.90929 0.0
C975 C 0.46888 0.68281 0.90681 0.0
C976 C 0.45784 0.68391 0.84069 0.0
C977 C 0.46984 0.68564 0.7768 0.0
C978 C 0.4929 0.68654 0.77897 0.0
C979 C 0.50401 0.68537 0.8449 0.0
H980 H 0.4612 0.68628 0.72581 0.0
H981 H 0.55557 0.67606 0.38617 0.0
H982 H 0.72488 0.4956 0.11735 0.0
H983 H 0.74787 0.48134 0.02085 0.0
H984 H 0.79931 0.52731 0.07899 0.0
H985 H 0.77629 0.54183 0.1763 0.0
H986 H 0.77434 0.49263 0.90347 0.0
H987 H 0.84353 0.49706 0.11811 0.0
H988 H 0.84746 0.49901 0.25045 0.0
H989 H 0.78484 0.46679 0.27584 0.0
H990 H 0.78062 0.46449 0.14388 0.0
H991 H 0.88545 0.48869 0.81131 0.0
H992 H 0.846 0.49134 0.8338 0.0
H993 H 0.84754 0.42798 0.94026 0.0
H994 H 0.88721 0.42518 0.91708 0.0
H995 H 0.83968 0.46177 0.03018 0.0
H996 H 0.80695 0.43448 0.82172 0.0
H997 H 0.7976 0.42664 0.69495 0.0
H998 H 0.7834 0.49529 0.65935 0.0
H999 H 0.79278 0.50361 0.78593 0.0
C1000 C 0.74064 0.50348 0.10756 0.0
C1001 C 0.74902 0.51958 0.15515 0.0
C1002 C 0.75375 0.49525 0.05227 0.0
C1003 C 0.77535 0.50296 0.04425 0.0
C1004 C 0.78269 0.52101 0.08541 0.0
C1005 C 0.76961 0.52922 0.14099 0.0
C1006 C 0.79143 0.48941 1.00472 0.0
C1007 C 0.78876 0.48595 0.93052 0.0
C1008 C 0.80928 0.47946 0.04161 0.0
C1009 C 0.81172 0.48073 0.12115 0.0
C1010 C 0.83064 0.49034 0.152 0.0
C1011 C 0.8329 0.49153 0.22691 0.0
C1012 C 0.81641 0.48302 0.27148 0.0
C1013 C 0.79757 0.47342 0.24129 0.0
C1014 C 0.79522 0.4722 0.16644 0.0
C1015 C 0.87721 0.47494 0.83697 0.0
C1016 C 0.88939 0.45698 0.86382 0.0
C1017 C 0.8546 0.47633 0.84905 0.0
C1018 C 0.84389 0.45988 0.88888 0.0
C1019 C 0.85554 0.44076 0.90887 0.0
C1020 C 0.8782 0.43925 0.89606 0.0
C1021 C 0.82354 0.46601 0.92725 0.0
C1022 C 0.82525 0.46815 1.00228 0.0
C1023 C 0.80462 0.47411 0.89109 0.0
C1024 C 0.80065 0.46967 0.81345 0.0
C1025 C 0.80208 0.44797 0.78674 0.0
C1026 C 0.7966 0.4434 0.71502 0.0
C1027 C 0.78971 0.46042 0.66935 0.0
C1028 C 0.78856 0.4821 0.69502 0.0
C1029 C 0.79394 0.48674 0.76678 0.0
H1030 H 0.7854 0.45683 0.61393 0.0
H1031 H 0.81831 0.48378 0.32939 0.0
H1032 H 0.98528 0.25316 0.88817 0.0
H1033 H 0.99335 0.21841 0.82603 0.0
H1034 H 0.03399 0.19775 1.00485 0.0
H1035 H 0.02591 0.2327 0.06708 0.0
H1036 H 0.04924 0.18165 0.86677 0.0
H1037 H 0.98414 0.18262 0.01232 0.0
H1038 H 0.94895 0.19781 0.05671 0.0
H1039 H 0.92099 0.19252 0.84453 0.0
H1040 H 0.95614 0.17745 0.79866 0.0
H1041 H 0.03155 0.06446 0.83694 0.0
H1042 H 0.03393 0.10271 0.87939 0.0
H1043 H 0.99286 0.12386 0.70227 0.0
H1044 H 0.99062 0.08567 0.65883 0.0
H1045 H 0.97914 0.14002 0.83815 0.0
H1046 H 0.04533 0.13583 0.69676 0.0
H1047 H 0.08088 0.11984 0.65888 0.0
H1048 H 0.10725 0.12995 0.87137 0.0
H1049 H 0.07171 0.14572 0.91087 0.0
C1050 C 0.99684 0.24168 0.91247 0.0
C1051 C 1.0053 0.24573 0.98175 0.0
C1052 C 1.00125 0.22172 0.87736 0.0
C1053 C 0.01403 0.20533 0.9112 0.0
C1054 C 0.02416 0.21017 0.9776 0.0
C1055 C 0.0197 0.23021 0.01288 0.0
C1056 C 0.01405 0.18236 0.88222 0.0
C1057 C 0.03397 0.17246 0.86107 0.0
C1058 C 0.9941 0.17036 0.87449 0.0
C1059 C 0.97283 0.17912 0.9019 0.0
C1060 C 0.97054 0.18483 0.97501 0.0
C1061 C 0.95059 0.19338 1.00048 0.0
C1062 C 0.93277 0.19621 0.95344 0.0
C1063 C 0.93483 0.19036 0.88088 0.0
C1064 C 0.95474 0.18177 0.85513 0.0
C1065 C 0.02312 0.07725 0.80668 0.0
C1066 C 0.0109 0.07196 0.74439 0.0
C1067 C 0.02458 0.09914 0.83092 0.0
C1068 C 0.01366 0.1162 0.79388 0.0
C1069 C 1.00146 0.11099 0.73165 0.0
C1070 C 1.00027 0.08914 0.70674 0.0
C1071 C 0.0143 0.13931 0.82164 0.0
C1072 C 0.99444 0.14922 0.84321 0.0
C1073 C 0.03434 0.15111 0.83064 0.0
C1074 C 0.05577 0.14175 0.80697 0.0
C1075 C 0.05864 0.13447 0.7356 0.0
C1076 C 0.0788 0.12547 0.71379 0.0
C1077 C 0.09629 0.12381 0.76273 0.0
C1078 C 0.09367 0.13121 0.83354 0.0
C1079 C 0.07352 0.1402 0.85565 0.0
H1080 H 0.1119 0.11684 0.74574 0.0
H1081 H 0.91735 0.20287 0.97325 0.0
H1082 H 0.28145 1.00624 0.09036 0.0
H1083 H 0.31569 0.99984 0.02358 0.0
H1084 H 0.29253 0.04248 0.85355 0.0
H1085 H 0.25832 0.04932 0.92145 0.0
H1086 H 0.3226 0.9974 0.82018 0.0
H1087 H 0.32042 0.07092 0.92656 0.0
H1088 H 0.30959 0.0961 0.02489 0.0
H1089 H 0.34781 0.05792 0.17497 0.0
H1090 H 0.35886 0.03248 0.0775 0.0
H1091 H 0.43121 0.02032 0.68692 0.0
H1092 H 0.39233 0.02332 0.72086 0.0
H1093 H 0.41001 0.01228 0.94347 0.0
H1094 H 0.44898 0.01011 0.9097 0.0
H1095 H 0.38047 0.04259 0.93982 0.0
H1096 H 0.38617 0.97118 0.82077 0.0
H1097 H 0.39519 0.94687 0.71824 0.0
H1098 H 0.34853 0.98154 0.58526 0.0
H1099 H 0.33961 1.00638 0.68647 0.0
C1100 C 0.2832 0.01337 0.03713 0.0
C1101 C 0.26704 0.02789 0.01035 0.0
C1102 C 0.30283 0.00982 0.9992 0.0
C1103 C 0.30667 0.02062 0.93346 0.0
C1104 C 0.28981 0.03375 0.90369 0.0
C1105 C 0.2702 0.03754 0.94223 0.0
C1106 C 0.32948 0.0211 0.90351 0.0
C1107 C 0.33525 1.00747 0.84543 0.0
C1108 C 0.34599 0.03411 0.9367 0.0
C1109 C 0.34036 0.0498 0.99498 0.0
C1110 C 0.32651 0.06792 0.98063 0.0
C1111 C 0.32036 0.08224 0.03612 0.0
C1112 C 0.32808 0.07866 0.1061 0.0
C1113 C 0.34199 0.06076 0.1207 0.0
C1114 C 0.34824 0.04641 0.06533 0.0
C1115 C 0.42677 0.01837 0.74301 0.0
C1116 C 0.44318 0.01469 0.79545 0.0
C1117 C 0.40446 0.02005 0.76248 0.0
C1118 C 0.39793 0.01754 0.83479 0.0
C1119 C 0.41443 0.01422 0.8873 0.0
C1120 C 0.43677 0.01294 0.86796 0.0
C1121 C 0.37407 0.01855 0.85635 0.0
C1122 C 0.368 0.03251 0.91363 0.0
C1123 C 0.35731 1.00601 0.82135 0.0
C1124 C 0.36235 0.99074 0.76106 0.0
C1125 C 0.37792 0.97369 0.76955 0.0
C1126 C 0.38304 0.95984 0.71162 0.0
C1127 C 0.3725 0.96271 0.6452 0.0
C1128 C 0.35674 0.97938 0.63666 0.0
C1129 C 0.35165 0.99335 0.69426 0.0
H1130 H 0.37651 0.952 0.60039 0.0
H1131 H 0.32328 0.0898 0.14882 0.0
H1132 H 0.49381 0.27411 0.09348 0.0
H1133 H 0.48564 0.30847 0.02875 0.0
H1134 H 0.53573 0.29252 0.87221 0.0
H1135 H 0.54429 0.25859 0.93843 0.0
H1136 H 0.54253 0.33185 0.91618 0.0
H1137 H 0.4778 0.2948 0.83224 0.0
H1138 H 0.44335 0.27332 0.84177 0.0
H1139 H 0.41457 0.32444 0.97171 0.0
H1140 H 0.44896 0.34611 0.96376 0.0
H1141 H 0.52285 0.42582 0.69458 0.0
H1142 H 0.5249 0.38773 0.73811 0.0
H1143 H 0.47944 0.40352 0.90892 0.0
H1144 H 0.47707 0.44157 0.86531 0.0
H1145 H 0.4697 0.36375 0.85216 0.0
H1146 H 0.53565 0.3996 0.93944 0.0
H1147 H 0.5703 0.42071 0.9288 0.0
H1148 H 0.59692 0.37085 0.78909 0.0
H1149 H 0.5623 0.34956 0.79818 0.0
C1150 C 0.50237 0.27751 0.04353 0.0
C1151 C 0.51936 0.26343 0.02015 0.0
C1152 C 0.49781 0.29728 0.00662 0.0
C1153 C 0.50998 0.30326 0.94501 0.0
C1154 C 0.52608 0.28846 0.91944 0.0
C1155 C 0.53077 0.26887 0.95671 0.0
C1156 C 0.50753 0.3257 0.91136 0.0
C1157 C 0.52659 0.33856 0.90099 0.0
C1158 C 0.48675 0.33497 0.893 0.0
C1159 C 0.46604 0.32199 0.89794 0.0
C1160 C 0.46419 0.30139 0.86333 0.0
C1161 C 0.44466 0.28919 0.86836 0.0
C1162 C 0.4268 0.29749 0.90747 0.0
C1163 C 0.42842 0.31803 0.9415 0.0
C1164 C 0.44792 0.33028 0.93668 0.0
C1165 C 0.51316 0.42123 0.74121 0.0
C1166 C 0.49984 0.43695 0.77644 0.0
C1167 C 0.51444 0.39938 0.76632 0.0
C1168 C 0.50254 0.39267 0.82754 0.0
C1169 C 0.48882 0.40818 0.8617 0.0
C1170 C 0.48754 0.43003 0.83669 0.0
C1171 C 0.50471 0.3697 0.85691 0.0
C1172 C 0.48562 0.35684 0.86683 0.0
C1173 C 0.52549 0.36033 0.87451 0.0
C1174 C 0.54629 0.37312 0.86888 0.0
C1175 C 0.54882 0.39323 0.90599 0.0
C1176 C 0.56847 0.40521 0.90032 0.0
C1177 C 0.58577 0.39716 0.85812 0.0
C1178 C 0.58349 0.37708 0.82165 0.0
C1179 C 0.56387 0.36505 0.82708 0.0
H1180 H 0.60097 0.40645 0.85382 0.0
H1181 H 0.41169 0.28802 0.91129 0.0
H1182 H 0.25321 0.54436 0.9097 0.0
H1183 H 0.2199 0.5354 0.84074 0.0
H1184 H 0.2019 0.48709 1.00081 0.0
H1185 H 0.23537 0.49604 0.06975 0.0
H1186 H 0.18764 0.47498 0.86262 0.0
H1187 H 0.18322 0.5373 0.02061 0.0
H1188 H 0.1951 0.57292 0.07238 0.0
H1189 H 0.18658 0.60419 0.86653 0.0
H1190 H 0.17486 0.56868 0.81331 0.0
H1191 H 0.07013 0.48189 0.8363 0.0
H1192 H 0.10829 0.48347 0.87881 0.0
H1193 H 0.1245 0.52839 0.70674 0.0
H1194 H 0.0862 0.52668 0.66296 0.0
H1195 H 0.14018 0.54173 0.84639 0.0
H1196 H 0.14162 0.47773 0.69255 0.0
H1197 H 0.12868 0.44154 0.64838 0.0
H1198 H 0.14121 0.41288 0.85617 0.0
H1199 H 0.15391 0.449 0.90194 0.0
C1200 C 0.24279 0.53095 0.92801 0.0
C1201 C 0.24705 0.52068 0.99458 0.0
C1202 C 0.22354 0.52609 0.88921 0.0
C1203 C 0.20809 0.51094 0.9164 0.0
C1204 C 0.2135 0.49889 0.97881 0.0
C1205 C 0.2328 0.5038 0.01778 0.0
C1206 C 0.18538 0.50979 0.88506 0.0
C1207 C 0.17723 0.48954 0.85945 0.0
C1208 C 0.17171 0.5288 0.8807 0.0
C1209 C 0.17847 0.55026 0.91271 0.0
C1210 C 0.18406 0.55173 0.98622 0.0
C1211 C 0.19076 0.5719 0.01584 0.0
C1212 C 0.19179 0.59075 0.97259 0.0
C1213 C 0.18589 0.58954 0.89984 0.0
C1214 C 0.1792 0.5694 0.86994 0.0
C1215 C 0.08177 0.49208 0.80715 0.0
C1216 C 0.07503 0.50413 0.74596 0.0
C1217 C 0.10365 0.4929 0.83151 0.0
C1218 C 0.11934 0.50593 0.7958 0.0
C1219 C 0.11269 0.51816 0.73507 0.0
C1220 C 0.09082 0.5171 0.70993 0.0
C1221 C 0.14255 0.50698 0.8229 0.0
C1222 C 0.15069 0.52722 0.84856 0.0
C1223 C 0.15603 0.48789 0.82834 0.0
C1224 C 0.14853 0.46613 0.80085 0.0
C1225 C 0.14144 0.46376 0.72901 0.0
C1226 C 0.13418 0.44325 0.70365 0.0
C1227 C 0.13407 0.42494 0.74949 0.0
C1228 C 0.14128 0.42709 0.82075 0.0
C1229 C 0.14853 0.44757 0.8464 0.0
H1230 H 0.12844 0.40907 0.72976 0.0
H1231 H 0.19703 0.60634 0.99554 0.0
H1232 H 0.04034 0.75608 0.4721 0.0
H1233 H 0.0287 0.7904 0.53057 0.0
H1234 H 0.98313 0.80281 0.35628 0.0
H1235 H 0.99477 0.76829 0.29789 0.0
H1236 H 0.01209 0.83693 0.37702 0.0
H1237 H 0.96396 0.79405 0.52581 0.0
H1238 H 0.9539 0.76374 0.60813 0.0
H1239 H 1.00069 0.78744 0.76425 0.0
H1240 H 0.01126 0.81773 0.68245 0.0
H1241 H 0.97895 0.9404 0.51836 0.0
H1242 H 0.97891 0.90252 0.4727 0.0
H1243 H 0.01787 0.88168 0.65539 0.0
H1244 H 0.01742 0.91942 0.70245 0.0
H1245 H 0.98886 0.85131 0.62874 0.0
H1246 H 0.04059 0.89041 0.483 0.0
H1247 H 0.05425 0.91982 0.4027 0.0
H1248 H 1.00563 0.90224 0.24391 0.0
H1249 H 0.99149 0.8729 0.32373 0.0
C1250 C 0.02705 0.76559 0.44817 0.0
C1251 C 0.01811 0.75928 0.38123 0.0
C1252 C 0.02051 0.78532 0.48132 0.0
C1253 C 1.005 0.79928 0.44798 0.0
C1254 C 0.99505 0.79231 0.38325 0.0
C1255 C 1.00145 0.77242 0.3504 0.0
C1256 C 1.00128 0.8221 0.47623 0.0
C1257 C 1.00657 0.84008 0.43165 0.0
C1258 C 0.99488 0.82627 0.54832 0.0
C1259 C 0.98853 0.80808 0.5977 0.0
C1260 C 0.97224 0.79271 0.57744 0.0
C1261 C 0.96641 0.77554 0.62408 0.0
C1262 C 0.97668 0.77364 0.69132 0.0
C1263 C 0.99276 0.78893 0.71213 0.0
C1264 C 0.99865 0.80611 0.66568 0.0
C1265 C 0.98743 0.92776 0.5491 0.0
C1266 C 0.99826 0.93306 0.61406 0.0
C1267 C 0.9875 0.90605 0.52264 0.0
C1268 C 0.99872 0.88914 0.55974 0.0
C1269 C 0.0091 0.89432 0.62548 0.0
C1270 C 1.00886 0.91599 0.65236 0.0
C1271 C 0.99988 0.86618 0.52968 0.0
C1272 C 0.99419 0.84819 0.57391 0.0
C1273 C 1.00646 0.86192 0.45767 0.0
C1274 C 0.01479 0.87965 0.40975 0.0
C1275 C 0.03268 0.89295 0.43124 0.0
C1276 C 0.04054 0.90958 0.38575 0.0
C1277 C 0.03077 0.91294 0.31834 0.0
C1278 C 0.01315 0.89964 0.29621 0.0
C1279 C 1.00521 0.88301 0.34154 0.0
H1280 H 0.03688 0.92581 0.28318 0.0
H1281 H 0.97214 0.76034 0.72734 0.0
H1282 H 0.7408 0.01211 0.33422 0.0
H1283 H 0.70714 0.02127 0.40078 0.0
H1284 H 0.72713 0.97724 0.57165 0.0
H1285 H 0.76073 0.96818 0.505 0.0
H1286 H 0.68788 0.96565 0.521 0.0
H1287 H 0.72074 0.03398 0.59923 0.0
H1288 H 0.73977 0.06962 0.58236 0.0
H1289 H 0.68663 0.09247 0.44805 0.0
H1290 H 0.6674 0.05685 0.4634 0.0
H1291 H 0.59343 0.02233 0.74325 0.0
H1292 H 0.63163 0.0213 0.70008 0.0
H1293 H 0.61087 0.98342 0.51534 0.0
H1294 H 0.57287 0.98445 0.5574 0.0
H1295 H 0.65153 0.03671 0.58087 0.0
H1296 H 0.652 0.94883 0.46123 0.0
H1297 H 0.63296 0.91319 0.47741 0.0
H1298 H 0.62107 0.92877 0.69978 0.0
H1299 H 0.64019 0.96446 0.68498 0.0
C1300 C 0.73861 1.00542 0.38787 0.0
C1301 C 0.75365 0.98978 0.41504 0.0
C1302 C 0.71914 0.01038 0.42558 0.0
C1303 C 0.7143 0.99973 0.49113 0.0
C1304 C 0.73031 0.98561 0.52113 0.0
C1305 C 0.74975 0.98073 0.48363 0.0
C1306 C 0.69173 1.00101 0.52378 0.0
C1307 C 0.68005 0.98122 0.53453 0.0
C1308 C 0.68125 0.02126 0.54103 0.0
C1309 C 0.6927 0.04271 0.53212 0.0
C1310 C 0.71318 0.04656 0.56573 0.0
C1311 C 0.72399 0.06676 0.55651 0.0
C1312 C 0.71443 0.08329 0.51407 0.0
C1313 C 0.69401 0.07966 0.4809 0.0
C1314 C 0.68313 0.05948 0.48994 0.0
C1315 C 0.59698 0.01373 0.69342 0.0
C1316 C 0.57992 1.00342 0.65407 0.0
C1317 C 0.61888 0.01327 0.66853 0.0
C1318 C 0.62433 1.00225 0.60424 0.0
C1319 C 0.6073 0.99199 0.56502 0.0
C1320 C 0.58544 0.99258 0.58941 0.0
C1321 C 0.64776 1.00132 0.57837 0.0
C1322 C 0.65949 0.02115 0.56812 0.0
C1323 C 0.65835 0.98108 0.5615 0.0
C1324 C 0.64727 0.95945 0.57168 0.0
C1325 C 0.64534 0.94464 0.51358 0.0
C1326 C 0.63453 0.92444 0.52251 0.0
C1327 C 0.62573 0.91876 0.58952 0.0
C1328 C 0.62781 0.93324 0.64782 0.0
C1329 C 0.6386 0.95348 0.63915 0.0
H1330 H 0.61735 0.90311 0.59632 0.0
H1331 H 0.72283 0.09891 0.50697 0.0
H1332 H 0.49606 0.74615 0.3843 0.0
H1333 H 0.48872 0.71252 0.45246 0.0
H1334 H 0.55045 0.72071 0.56616 0.0
H1335 H 0.5582 0.75378 0.49437 0.0
H1336 H 0.55005 0.68208 0.52732 0.0
H1337 H 0.49415 0.72386 0.64337 0.0
H1338 H 0.46165 0.74801 0.65656 0.0
H1339 H 0.4215 0.7003 0.54605 0.0
H1340 H 0.45383 0.67596 0.53127 0.0
H1341 H 0.49321 0.59083 0.76498 0.0
H1342 H 0.49671 0.6299 0.72974 0.0
H1343 H 0.52073 0.60984 0.52126 0.0
H1344 H 0.51756 0.57121 0.5561 0.0
H1345 H 0.47858 0.65551 0.62384 0.0
H1346 H 0.55905 0.64324 0.46227 0.0
H1347 H 0.5925 0.62001 0.46567 0.0
H1348 H 0.58505 0.61156 0.6941 0.0
H1349 H 0.55176 0.63505 0.69212 0.0
C1350 C 0.50751 0.74138 0.42646 0.0
C1351 C 0.52742 0.75303 0.43539 0.0
C1352 C 0.50337 0.72194 0.46552 0.0
C1353 C 0.51892 0.71372 0.51545 0.0
C1354 C 0.53814 0.72634 0.5279 0.0
C1355 C 0.54242 0.7456 0.48791 0.0
C1356 C 0.51625 0.69113 0.54897 0.0
C1357 C 0.53437 0.67653 0.54876 0.0
C1358 C 0.49594 0.68341 0.57785 0.0
C1359 C 0.4765 0.69816 0.58557 0.0
C1360 C 0.47846 0.71862 0.62111 0.0
C1361 C 0.46004 0.73232 0.62909 0.0
C1362 C 0.43954 0.72572 0.602 0.0
C1363 C 0.4374 0.7054 0.56695 0.0
C1364 C 0.45576 0.69163 0.55884 0.0
C1365 C 0.49929 0.59477 0.71176 0.0
C1366 C 0.50524 0.5777 0.66387 0.0
C1367 C 0.50119 0.61715 0.69144 0.0
C1368 C 0.50925 0.62301 0.62289 0.0
C1369 C 0.51483 0.60595 0.57482 0.0
C1370 C 0.51293 0.58371 0.59498 0.0
C1371 C 0.51226 0.64677 0.6011 0.0
C1372 C 0.4942 0.66136 0.60272 0.0
C1373 C 0.53274 0.65477 0.57521 0.0
C1374 C 0.5529 0.64087 0.57692 0.0
C1375 C 0.56467 0.6366 0.51326 0.0
C1376 C 0.58357 0.62333 0.51493 0.0
C1377 C 0.59089 0.61429 0.58005 0.0
C1378 C 0.57935 0.61854 0.64367 0.0
C1379 C 0.56045 0.63181 0.64228 0.0
H1380 H 0.60551 0.60401 0.58121 0.0
H1381 H 0.42529 0.73635 0.60828 0.0
H1382 H 0.7548 0.54523 0.46011 0.0
H1383 H 0.78965 0.54204 0.52699 0.0
H1384 H 0.79779 0.4756 0.44695 0.0
H1385 H 0.76251 0.47852 0.38355 0.0
H1386 H 0.81864 0.47664 0.56246 0.0
H1387 H 0.81899 0.52392 0.35882 0.0
H1388 H 0.80722 0.55483 0.28133 0.0
H1389 H 0.82574 0.60107 0.44638 0.0
H1390 H 0.83732 0.57032 0.5253 0.0
H1391 H 0.94114 0.51513 0.50577 0.0
H1392 H 0.90218 0.51592 0.47249 0.0
H1393 H 0.88442 0.4983 0.68957 0.0
H1394 H 0.92359 0.49662 0.72306 0.0
H1395 H 0.86871 0.53893 0.50534 0.0
H1396 H 0.83737 0.46968 0.6946 0.0
H1397 H 0.85043 0.43468 0.74836 0.0
H1398 H 0.89814 0.42774 0.57933 0.0
H1399 H 0.88458 0.46207 0.52278 0.0
C1400 C 0.76348 0.52958 0.46006 0.0
C1401 C 0.7558 0.51205 0.41719 0.0
C1402 C 0.78371 0.52788 0.49703 0.0
C1403 C 0.79705 0.50889 0.48984 0.0
C1404 C 0.7882 0.49058 0.45302 0.0
C1405 C 0.76785 0.49217 0.41712 0.0
C1406 C 0.82085 0.50883 0.51364 0.0
C1407 C 0.82939 0.49048 0.55108 0.0
C1408 C 0.83557 0.52623 0.49557 0.0
C1409 C 0.8288 0.5448 0.44821 0.0
C1410 C 0.82044 0.54066 0.3787 0.0
C1411 C 0.8138 0.55815 0.33453 0.0
C1412 C 0.81568 0.57991 0.35898 0.0
C1413 C 0.82426 0.58421 0.42759 0.0
C1414 C 0.83086 0.56674 0.47206 0.0
C1415 C 0.92902 0.51137 0.54674 0.0
C1416 C 0.93568 0.50572 0.6172 0.0
C1417 C 0.90661 0.51192 0.52755 0.0
C1418 C 0.89014 0.50694 0.57823 0.0
C1419 C 0.89673 0.50173 0.64904 0.0
C1420 C 0.91919 0.50091 0.66819 0.0
C1421 C 0.8662 0.50711 0.55666 0.0
C1422 C 0.85774 0.52538 0.51872 0.0
C1423 C 0.8518 0.48923 0.57162 0.0
C1424 C 0.85994 0.46845 0.60473 0.0
C1425 C 0.85039 0.46048 0.66846 0.0
C1426 C 0.85792 0.44081 0.69945 0.0
C1427 C 0.87521 0.4291 0.66763 0.0
C1428 C 0.88481 0.43688 0.60414 0.0
C1429 C 0.87713 0.45639 0.57243 0.0
H1430 H 0.88113 0.41397 0.69207 0.0
H1431 H 0.81054 0.59345 0.32473 0.0
loop_
_geom_bond_atom_site_label_1
_geom_bond_atom_site_label_2
_geom_bond_distance
_geom_bond_site_symmetry_2
_ccdc_geom_bond_type
H0 C3 0.931 . S
H1 C6 0.928 . S
H2 C8 0.930 . S
C3 H0 0.931 . S
C3 C4 1.413 . S
C3 C5 1.360 . S
C4 C3 1.413 . S
C4 C8 1.429 . S
C5 C3 1.360 . S
C5 C6 1.372 . S
C6 H1 0.928 . S
C6 C5 1.372 . S
C6 C7 1.404 . S
C7 C6 1.404 . S
C7 C8 1.391 . S
C8 H2 0.930 . S
C8 C4 1.429 . S
C8 C7 1.391 . S
H9 C12 0.931 . S
H10 C15 0.928 . S
H11 C17 0.930 . S
C12 H9 0.931 . S
C12 C13 1.413 . S
C12 C14 1.360 . S
C13 C12 1.413 . S
C13 C17 1.429 1_655 S
C14 C12 1.360 . S
C14 C15 1.372 . S
C15 H10 0.928 . S
C15 C14 1.372 . S
C15 C16 1.404 . S
C16 C15 1.404 . S
C16 C17 1.390 1_655 S
C17 H11 0.930 . S
C17 C13 1.429 1_455 S
C17 C16 1.390 1_455 S
H18 C21 0.931 . S
H19 C24 0.928 . S
H20 C26 0.930 . S
C21 H18 0.931 . S
C21 C22 1.413 . S
C21 C23 1.360 . S
C22 C21 1.413 . S
C22 C26 1.429 1_565 S
C23 C21 1.360 . S
C23 C24 1.372 . S
C24 H19 0.928 . S
C24 C23 1.372 . S
C24 C25 1.404 . S
C25 C24 1.404 . S
C25 C26 1.390 1_565 S
C26 H20 0.930 . S
C26 C22 1.429 1_545 S
C26 C25 1.390 1_545 S
H27 C30 0.931 . S
H28 C33 0.928 . S
H29 C35 0.930 . S
C30 H27 0.931 . S
C30 C31 1.413 . S
C30 C32 1.360 . S
C31 C30 1.413 . S
C31 C35 1.429 . S
C32 C30 1.360 . S
C32 C33 1.372 . S
C33 H28 0.928 . S
C33 C32 1.372 . S
C33 C34 1.404 . S
C34 C33 1.404 . S
C34 C35 1.391 . S
C35 H29 0.930 . S
C35 C31 1.429 . S
C35 C34 1.391 . S
H36 C39 0.931 . S
H37 C42 0.928 . S
H38 C44 0.930 . S
C39 H36 0.931 . S
C39 C40 1.413 1_554 S
C39 C41 1.360 . S
C40 C39 1.413 1_556 S
C40 C44 1.429 . S
C41 C39 1.360 . S
C41 C42 1.372 . S
C42 H37 0.928 . S
C42 C41 1.372 . S
C42 C43 1.404 . S
C43 C42 1.404 . S
C43 C44 1.391 1_554 S
C44 H38 0.930 . S
C44 C40 1.429 . S
C44 C43 1.391 1_556 S
H45 C48 0.931 . S
H46 C51 0.928 . S
H47 C53 0.930 . S
C48 H45 0.931 . S
C48 C49 1.413 1_554 S
C48 C50 1.360 . S
C49 C48 1.413 1_556 S
C49 C53 1.429 1_655 S
C50 C48 1.360 . S
C50 C51 1.372 . S
C51 H46 0.928 . S
C51 C50 1.372 . S
C51 C52 1.404 . S
C52 C51 1.404 . S
C52 C53 1.391 1_654 S
C53 H47 0.930 . S
C53 C49 1.429 1_455 S
C53 C52 1.391 1_456 S
H54 C57 0.931 . S
H55 C60 0.928 . S
H56 C62 0.930 . S
C57 H54 0.931 . S
C57 C58 1.413 1_554 S
C57 C59 1.360 . S
C58 C57 1.413 1_556 S
C58 C62 1.429 1_565 S
C59 C57 1.360 . S
C59 C60 1.372 . S
C60 H55 0.928 . S
C60 C59 1.372 . S
C60 C61 1.404 . S
C61 C60 1.404 . S
C61 C62 1.391 1_564 S
C62 H56 0.930 . S
C62 C58 1.429 1_545 S
C62 C61 1.391 1_546 S
H63 C66 0.931 . S
H64 C69 0.928 . S
H65 C71 0.930 . S
C66 H63 0.931 . S
C66 C67 1.413 . S
C66 C68 1.360 1_554 S
C67 C66 1.413 . S
C67 C71 1.429 . S
C68 C66 1.360 1_556 S
C68 C69 1.372 . S
C69 H64 0.928 . S
C69 C68 1.372 . S
C69 C70 1.404 1_556 S
C70 C69 1.404 1_554 S
C70 C71 1.391 . S
C71 H65 0.930 . S
C71 C67 1.429 . S
C71 C70 1.391 . S
Sm72 C74 2.846 . S
Sm72 O92 2.543 . S
Sm72 O93 2.450 . S
Sm72 O94 2.681 1_565 S
Sm72 O95 2.464 . S
Sm72 O96 2.396 . S
Sm72 O100 2.386 1_455 S
Sm72 O103 2.408 1_565 S
Sm73 C83 2.846 . S
Sm73 O94 2.386 1_655 S
Sm73 O97 2.408 1_545 S
Sm73 O98 2.543 . S
Sm73 O99 2.450 . S
Sm73 O100 2.681 1_545 S
Sm73 O101 2.464 . S
Sm73 O102 2.396 . S
C74 Sm72 2.846 . S
C74 C75 1.506 . S
C74 O92 1.261 . S
C74 O93 1.242 . S
C75 C74 1.506 . S
C75 C76 1.358 . S
C75 C80 1.382 . S
C76 C75 1.358 . S
C76 C77 1.385 . S
C76 H104 0.930 1_455 S
C77 C76 1.385 . S
C77 C78 1.395 . S
C77 H105 0.929 1_455 S
C78 C77 1.395 . S
C78 C79 1.335 . S
C79 C78 1.335 . S
C79 C80 1.398 . S
C79 H106 0.930 . S
C80 C75 1.382 . S
C80 C79 1.398 . S
C80 H107 0.929 . S
C81 O94 1.271 1_565 S
C81 O95 1.251 . S
C82 O96 1.252 1_655 S
C82 O97 1.272 . S
C83 Sm73 2.846 . S
C83 C84 1.506 . S
C83 O98 1.261 . S
C83 O99 1.242 . S
C84 C83 1.506 . S
C84 C85 1.358 . S
C84 C89 1.382 . S
C85 C84 1.358 . S
C85 C86 1.385 . S
C85 H108 0.930 1_655 S
C86 C85 1.385 . S
C86 C87 1.395 . S
C86 H109 0.929 1_655 S
C87 C86 1.395 . S
C87 C88 1.335 . S
C88 C87 1.335 . S
C88 C89 1.398 . S
C88 H110 0.930 . S
C89 C84 1.382 . S
C89 C88 1.398 . S
C89 H111 0.929 . S
C90 O100 1.271 1_545 S
C90 O101 1.251 . S
C91 O102 1.252 1_455 S
C91 O103 1.272 . S
O92 Sm72 2.543 . S
O92 C74 1.261 . S
O93 Sm72 2.450 . S
O93 C74 1.242 . S
O94 Sm72 2.681 1_545 S
O94 Sm73 2.386 1_455 S
O94 C81 1.271 1_545 S
O95 Sm72 2.464 . S
O95 C81 1.251 . S
O96 Sm72 2.396 . S
O96 C82 1.252 1_455 S
O97 Sm73 2.408 1_565 S
O97 C82 1.272 . S
O98 Sm73 2.543 . S
O98 C83 1.261 . S
O99 Sm73 2.450 . S
O99 C83 1.242 . S
O100 Sm72 2.386 1_655 S
O100 Sm73 2.681 1_565 S
O100 C90 1.271 1_565 S
O101 Sm73 2.464 . S
O101 C90 1.251 . S
O102 Sm73 2.396 . S
O102 C91 1.252 1_655 S
O103 Sm72 2.408 1_545 S
O103 C91 1.272 . S
H104 C76 0.930 1_655 S
H105 C77 0.929 1_655 S
H106 C79 0.930 . S
H107 C80 0.929 . S
H108 C85 0.930 1_455 S
H109 C86 0.929 1_455 S
H110 C88 0.930 . S
H111 C89 0.929 . S
Sm112 C114 2.846 . S
Sm112 O132 2.543 . S
Sm112 O133 2.450 . S
Sm112 O134 2.681 . S
Sm112 O135 2.464 . S
Sm112 O136 2.396 . S
Sm112 O140 2.386 1_545 S
Sm112 O143 2.408 . S
Sm113 C123 2.846 . S
Sm113 O134 2.386 1_565 S
Sm113 O137 2.408 . S
Sm113 O138 2.543 . S
Sm113 O139 2.450 . S
Sm113 O140 2.681 . S
Sm113 O141 2.464 . S
Sm113 O142 2.396 . S
C114 Sm112 2.846 . S
C114 C115 1.506 . S
C114 O132 1.261 . S
C114 O133 1.242 . S
C115 C114 1.506 . S
C115 C116 1.358 . S
C115 C120 1.382 . S
C116 C115 1.358 . S
C116 C117 1.385 . S
C116 H144 0.930 1_545 S
C117 C116 1.385 . S
C117 C118 1.395 . S
C117 H145 0.929 1_545 S
C118 C117 1.395 . S
C118 C119 1.335 . S
C119 C118 1.335 . S
C119 C120 1.398 . S
C119 H146 0.930 . S
C120 C115 1.382 . S
C120 C119 1.398 . S
C120 H147 0.929 . S
C121 O134 1.271 . S
C121 O135 1.251 . S
C122 O136 1.252 1_565 S
C122 O137 1.272 . S
C123 Sm113 2.846 . S
C123 C124 1.506 . S
C123 O138 1.261 . S
C123 O139 1.242 . S
C124 C123 1.506 . S
C124 C125 1.358 . S
C124 C129 1.382 . S
C125 C124 1.358 . S
C125 C126 1.385 . S
C125 H148 0.930 1_565 S
C126 C125 1.385 . S
C126 C127 1.395 . S
C126 H149 0.929 1_565 S
C127 C126 1.395 . S
C127 C128 1.335 . S
C128 C127 1.335 . S
C128 C129 1.398 . S
C128 H150 0.930 . S
C129 C124 1.382 . S
C129 C128 1.398 . S
C129 H151 0.929 . S
C130 O140 1.271 . S
C130 O141 1.251 . S
C131 O142 1.252 1_545 S
C131 O143 1.272 . S
O132 Sm112 2.543 . S
O132 C114 1.261 . S
O133 Sm112 2.450 . S
O133 C114 1.242 . S
O134 Sm112 2.681 . S
O134 Sm113 2.386 1_545 S
O134 C121 1.271 . S
O135 Sm112 2.464 . S
O135 C121 1.251 . S
O136 Sm112 2.396 . S
O136 C122 1.252 1_545 S
O137 Sm113 2.408 . S
O137 C122 1.272 . S
O138 Sm113 2.543 . S
O138 C123 1.261 . S
O139 Sm113 2.450 . S
O139 C123 1.242 . S
O140 Sm112 2.386 1_565 S
O140 Sm113 2.681 . S
O140 C130 1.271 . S
O141 Sm113 2.464 . S
O141 C130 1.251 . S
O142 Sm113 2.396 . S
O142 C131 1.252 1_565 S
O143 Sm112 2.408 . S
O143 C131 1.272 . S
H144 C116 0.930 1_565 S
H145 C117 0.929 1_565 S
H146 C119 0.930 . S
H147 C120 0.929 . S
H148 C125 0.930 1_545 S
H149 C126 0.929 1_545 S
H150 C128 0.930 . S
H151 C129 0.929 . S
Sm152 C154 2.846 . S
Sm152 O172 2.543 . S
Sm152 O173 2.450 . S
Sm152 O174 2.681 . S
Sm152 O175 2.464 . S
Sm152 O176 2.396 . S
Sm152 O180 2.386 . S
Sm152 O183 2.408 . S
Sm153 C163 2.846 . S
Sm153 O174 2.386 . S
Sm153 O177 2.408 . S
Sm153 O178 2.543 . S
Sm153 O179 2.450 . S
Sm153 O180 2.681 . S
Sm153 O181 2.464 . S
Sm153 O182 2.396 . S
C154 Sm152 2.846 . S
C154 C155 1.506 . S
C154 O172 1.261 . S
C154 O173 1.242 . S
C155 C154 1.506 . S
C155 C156 1.358 . S
C155 C160 1.382 . S
C156 C155 1.358 . S
C156 C157 1.385 . S
C156 H184 0.930 . S
C157 C156 1.385 . S
C157 C158 1.395 . S
C157 H185 0.929 . S
C158 C157 1.395 . S
C158 C159 1.335 . S
C159 C158 1.335 . S
C159 C160 1.398 . S
C159 H186 0.930 . S
C160 C155 1.382 . S
C160 C159 1.398 . S
C160 H187 0.929 . S
C161 O174 1.271 . S
C161 O175 1.251 . S
C162 O176 1.252 . S
C162 O177 1.272 . S
C163 Sm153 2.846 . S
C163 C164 1.506 . S
C163 O178 1.261 . S
C163 O179 1.242 . S
C164 C163 1.506 . S
C164 C165 1.358 . S
C164 C169 1.382 . S
C165 C164 1.358 . S
C165 C166 1.385 . S
C165 H188 0.930 . S
C166 C165 1.385 . S
C166 C167 1.395 . S
C166 H189 0.929 . S
C167 C166 1.395 . S
C167 C168 1.335 . S
C168 C167 1.335 . S
C168 C169 1.398 . S
C168 H190 0.930 . S
C169 C164 1.382 . S
C169 C168 1.398 . S
C169 H191 0.929 . S
C170 O180 1.271 . S
C170 O181 1.251 . S
C171 O182 1.252 . S
C171 O183 1.272 . S
O172 Sm152 2.543 . S
O172 C154 1.261 . S
O173 Sm152 2.450 . S
O173 C154 1.242 . S
O174 Sm152 2.681 . S
O174 Sm153 2.386 . S
O174 C161 1.271 . S
O175 Sm152 2.464 . S
O175 C161 1.251 . S
O176 Sm152 2.396 . S
O176 C162 1.252 . S
O177 Sm153 2.408 . S
O177 C162 1.272 . S
O178 Sm153 2.543 . S
O178 C163 1.261 . S
O179 Sm153 2.450 . S
O179 C163 1.242 . S
O180 Sm152 2.386 . S
O180 Sm153 2.681 . S
O180 C170 1.271 . S
O181 Sm153 2.464 . S
O181 C170 1.251 . S
O182 Sm153 2.396 . S
O182 C171 1.252 . S
O183 Sm152 2.408 . S
O183 C171 1.272 . S
H184 C156 0.930 . S
H185 C157 0.929 . S
H186 C159 0.930 . S
H187 C160 0.929 . S
H188 C165 0.930 . S
H189 C166 0.929 . S
H190 C168 0.930 . S
H191 C169 0.929 . S
Sm192 C194 2.846 . S
Sm192 O212 2.543 . S
Sm192 O213 2.450 . S
Sm192 O214 2.681 1_655 S
Sm192 O215 2.464 . S
Sm192 O216 2.396 . S
Sm192 O220 2.386 . S
Sm192 O223 2.408 1_655 S
Sm193 C203 2.846 . S
Sm193 O214 2.386 . S
Sm193 O217 2.408 1_455 S
Sm193 O218 2.543 . S
Sm193 O219 2.450 . S
Sm193 O220 2.681 1_455 S
Sm193 O221 2.464 . S
Sm193 O222 2.396 . S
C194 Sm192 2.846 . S
C194 C195 1.506 . S
C194 O212 1.261 . S
C194 O213 1.242 . S
C195 C194 1.506 . S
C195 C196 1.358 . S
C195 C200 1.382 . S
C196 C195 1.358 . S
C196 C197 1.385 . S
C196 H224 0.930 . S
C197 C196 1.385 . S
C197 C198 1.395 . S
C197 H225 0.929 . S
C198 C197 1.395 . S
C198 C199 1.335 . S
C199 C198 1.335 . S
C199 C200 1.398 . S
C199 H226 0.930 . S
C200 C195 1.382 . S
C200 C199 1.398 . S
C200 H227 0.929 . S
C201 O214 1.260 1_655 S
C201 O215 1.270 . S
C202 O216 1.252 . S
C202 O217 1.272 . S
C203 Sm193 2.846 . S
C203 C204 1.506 . S
C203 O218 1.261 . S
C203 O219 1.242 . S
C204 C203 1.506 . S
C204 C205 1.358 . S
C204 C209 1.382 . S
C205 C204 1.358 . S
C205 C206 1.385 . S
C205 H228 0.930 . S
C206 C205 1.385 . S
C206 C207 1.395 . S
C206 H229 0.929 . S
C207 C206 1.395 . S
C207 C208 1.335 . S
C208 C207 1.335 . S
C208 C209 1.398 . S
C208 H230 0.930 . S
C209 C204 1.382 . S
C209 C208 1.398 . S
C209 H231 0.929 . S
C210 O220 1.257 1_455 S
C210 O221 1.277 . S
C211 O222 1.252 . S
C211 O223 1.272 . S
O212 Sm192 2.543 . S
O212 C194 1.261 . S
O213 Sm192 2.450 . S
O213 C194 1.242 . S
O214 Sm192 2.681 1_455 S
O214 Sm193 2.386 . S
O214 C201 1.260 1_455 S
O215 Sm192 2.464 . S
O215 C201 1.270 . S
O216 Sm192 2.396 . S
O216 C202 1.252 . S
O217 Sm193 2.408 1_655 S
O217 C202 1.272 . S
O218 Sm193 2.543 . S
O218 C203 1.261 . S
O219 Sm193 2.450 . S
O219 C203 1.242 . S
O220 Sm192 2.386 . S
O220 Sm193 2.681 1_655 S
O220 C210 1.257 1_655 S
O221 Sm193 2.464 . S
O221 C210 1.277 . S
O222 Sm193 2.396 . S
O222 C211 1.252 . S
O223 Sm192 2.408 1_455 S
O223 C211 1.272 . S
H224 C196 0.930 . S
H225 C197 0.929 . S
H226 C199 0.930 . S
H227 C200 0.929 . S
H228 C205 0.930 . S
H229 C206 0.929 . S
H230 C208 0.930 . S
H231 C209 0.929 . S
H232 C250 0.951 . S
H233 C252 0.951 . S
H234 C254 0.950 . S
H235 C255 0.950 . S
H236 C257 0.950 . S
H237 C260 0.950 . S
H238 C261 0.950 . S
H239 C263 0.950 . S
H240 C264 0.950 . S
H241 C265 0.951 . S
H242 C267 0.951 . S
H243 C269 0.950 . S
H244 C270 0.950 . S
H245 C272 0.950 . S
H246 C275 0.950 . S
H247 C276 0.950 . S
H248 C278 0.950 . S
H249 C279 0.950 . S
C250 H232 0.951 . S
C250 C251 1.362 1_565 S
C250 C252 1.388 . S
C251 C250 1.362 1_545 S
C251 C255 1.388 . S
C252 H233 0.951 . S
C252 C250 1.388 . S
C252 C253 1.376 . S
C253 C252 1.376 . S
C253 C254 1.403 1_565 S
C253 C256 1.498 . S
C254 H234 0.950 . S
C254 C253 1.403 1_545 S
C254 C255 1.374 . S
C255 H235 0.950 . S
C255 C251 1.388 . S
C255 C254 1.374 . S
C256 C253 1.498 . S
C256 C257 1.377 1_565 S
C256 C258 1.386 . S
C257 H236 0.950 . S
C257 C256 1.377 1_545 S
C257 C273 1.377 . S
C258 C256 1.386 . S
C258 C259 1.524 . S
C258 C272 1.377 . S
C259 C258 1.524 . S
C259 C260 1.397 . S
C259 C264 1.363 . S
C260 H237 0.950 . S
C260 C259 1.397 . S
C260 C261 1.334 . S
C261 H238 0.950 . S
C261 C260 1.334 . S
C261 C262 1.287 . S
C262 C261 1.287 . S
C262 C263 1.524 . S
C262 H281 0.913 . S
C263 H239 0.950 . S
C263 C262 1.524 . S
C263 C264 1.415 . S
C264 H240 0.950 . S
C264 C259 1.363 . S
C264 C263 1.415 . S
C265 H241 0.951 . S
C265 C266 1.366 . S
C265 C267 1.388 . S
C266 C265 1.366 . S
C266 C270 1.385 1_545 S
C267 H242 0.951 . S
C267 C265 1.388 . S
C267 C268 1.366 . S
C268 C267 1.366 . S
C268 C269 1.414 1_545 S
C268 C271 1.499 . S
C269 H243 0.950 . S
C269 C268 1.414 1_565 S
C269 C270 1.374 . S
C270 H244 0.950 . S
C270 C266 1.385 1_565 S
C270 C269 1.374 . S
C271 C268 1.499 . S
C271 C272 1.373 1_545 S
C271 C273 1.389 . S
C272 H245 0.950 . S
C272 C258 1.377 . S
C272 C271 1.373 1_565 S
C273 C257 1.377 . S
C273 C271 1.389 . S
C273 C274 1.524 . S
C274 C273 1.524 . S
C274 C275 1.397 . S
C274 C279 1.363 . S
C275 H246 0.950 . S
C275 C274 1.397 . S
C275 C276 1.334 . S
C276 H247 0.950 . S
C276 C275 1.334 . S
C276 C277 1.287 . S
C277 C276 1.287 . S
C277 C278 1.524 . S
C277 H280 0.999 . S
C278 H248 0.950 . S
C278 C277 1.524 . S
C278 C279 1.415 . S
C279 H249 0.950 . S
C279 C274 1.363 . S
C279 C278 1.415 . S
H280 C277 0.999 . S
H281 C262 0.913 . S
H282 C300 0.951 . S
H283 C302 0.951 . S
H284 C304 0.950 . S
H285 C305 0.950 . S
H286 C307 0.950 . S
H287 C310 0.950 . S
H288 C311 0.950 . S
H289 C313 0.950 . S
H290 C314 0.950 . S
H291 C315 0.951 . S
H292 C317 0.951 . S
H293 C319 0.950 . S
H294 C320 0.950 . S
H295 C322 0.950 . S
H296 C325 0.950 . S
H297 C326 0.950 . S
H298 C328 0.950 . S
H299 C329 0.950 . S
C300 H282 0.951 . S
C300 C301 1.366 . S
C300 C302 1.388 . S
C301 C300 1.366 . S
C301 C305 1.385 . S
C302 H283 0.951 . S
C302 C300 1.388 . S
C302 C303 1.366 . S
C303 C302 1.366 . S
C303 C304 1.414 . S
C303 C306 1.499 . S
C304 H284 0.950 . S
C304 C303 1.414 . S
C304 C305 1.374 . S
C305 H285 0.950 . S
C305 C301 1.385 . S
C305 C304 1.374 . S
C306 C303 1.499 . S
C306 C307 1.373 . S
C306 C308 1.389 . S
C307 H286 0.950 . S
C307 C306 1.373 . S
C307 C323 1.377 . S
C308 C306 1.389 . S
C308 C309 1.524 . S
C308 C322 1.377 . S
C309 C308 1.524 . S
C309 C310 1.397 . S
C309 C314 1.363 . S
C310 H287 0.950 . S
C310 C309 1.397 . S
C310 C311 1.334 . S
C311 H288 0.950 . S
C311 C310 1.334 . S
C311 C312 1.287 . S
C312 C311 1.287 . S
C312 C313 1.524 . S
C312 H331 0.913 . S
C313 H289 0.950 . S
C313 C312 1.524 . S
C313 C314 1.415 . S
C314 H290 0.950 . S
C314 C309 1.363 . S
C314 C313 1.415 . S
C315 H291 0.951 . S
C315 C316 1.366 . S
C315 C317 1.388 . S
C316 C315 1.366 . S
C316 C320 1.385 . S
C317 H292 0.951 . S
C317 C315 1.388 . S
C317 C318 1.366 . S
C318 C317 1.366 . S
C318 C319 1.414 . S
C318 C321 1.499 . S
C319 H293 0.950 . S
C319 C318 1.414 . S
C319 C320 1.374 . S
C320 H294 0.950 . S
C320 C316 1.385 . S
C320 C319 1.374 . S
C321 C318 1.499 . S
C321 C322 1.373 . S
C321 C323 1.389 . S
C322 H295 0.950 . S
C322 C308 1.377 . S
C322 C321 1.373 . S
C323 C307 1.377 . S
C323 C321 1.389 . S
C323 C324 1.524 . S
C324 C323 1.524 . S
C324 C325 1.397 . S
C324 C329 1.363 . S
C325 H296 0.950 . S
C325 C324 1.397 . S
C325 C326 1.334 . S
C326 H297 0.950 . S
C326 C325 1.334 . S
C326 C327 1.287 . S
C327 C326 1.287 . S
C327 C328 1.524 . S
C327 H330 0.999 . S
C328 H298 0.950 . S
C328 C327 1.524 . S
C328 C329 1.415 . S
C329 H299 0.950 . S
C329 C324 1.363 . S
C329 C328 1.415 . S
H330 C327 0.999 . S
H331 C312 0.913 . S
H332 C350 0.951 . S
H333 C352 0.951 . S
H334 C354 0.950 . S
H335 C355 0.950 . S
H336 C357 0.950 . S
H337 C360 0.950 . S
H338 C361 0.950 . S
H339 C363 0.950 . S
H340 C364 0.950 . S
H341 C365 0.951 . S
H342 C367 0.951 . S
H343 C369 0.950 . S
H344 C370 0.950 . S
H345 C372 0.950 . S
H346 C375 0.950 . S
H347 C376 0.950 . S
H348 C378 0.950 . S
H349 C379 0.950 . S
C350 H332 0.951 . S
C350 C351 1.366 . S
C350 C352 1.388 . S
C351 C350 1.366 . S
C351 C355 1.385 . S
C352 H333 0.951 . S
C352 C350 1.388 . S
C352 C353 1.366 . S
C353 C352 1.366 . S
C353 C354 1.414 . S
C353 C356 1.499 . S
C354 H334 0.950 . S
C354 C353 1.414 . S
C354 C355 1.374 . S
C355 H335 0.950 . S
C355 C351 1.385 . S
C355 C354 1.374 . S
C356 C353 1.499 . S
C356 C357 1.373 . S
C356 C358 1.389 . S
C357 H336 0.950 . S
C357 C356 1.373 . S
C357 C373 1.377 . S
C358 C356 1.389 . S
C358 C359 1.524 . S
C358 C372 1.377 . S
C359 C358 1.524 . S
C359 C360 1.397 . S
C359 C364 1.363 . S
C360 H337 0.950 . S
C360 C359 1.397 . S
C360 C361 1.334 . S
C361 H338 0.950 . S
C361 C360 1.334 . S
C361 C362 1.287 . S
C362 C361 1.287 . S
C362 C363 1.524 . S
C362 H381 0.913 . S
C363 H339 0.950 . S
C363 C362 1.524 . S
C363 C364 1.415 . S
C364 H340 0.950 . S
C364 C359 1.363 . S
C364 C363 1.415 . S
C365 H341 0.951 . S
C365 C366 1.366 . S
C365 C367 1.388 . S
C366 C365 1.366 . S
C366 C370 1.385 . S
C367 H342 0.951 . S
C367 C365 1.388 . S
C367 C368 1.366 . S
C368 C367 1.366 . S
C368 C369 1.414 . S
C368 C371 1.499 . S
C369 H343 0.950 . S
C369 C368 1.414 . S
C369 C370 1.374 . S
C370 H344 0.950 . S
C370 C366 1.385 . S
C370 C369 1.374 . S
C371 C368 1.499 . S
C371 C372 1.373 . S
C371 C373 1.389 . S
C372 H345 0.950 . S
C372 C358 1.377 . S
C372 C371 1.373 . S
C373 C357 1.377 . S
C373 C371 1.389 . S
C373 C374 1.524 . S
C374 C373 1.524 . S
C374 C375 1.397 . S
C374 C379 1.363 . S
C375 H346 0.950 . S
C375 C374 1.397 . S
C375 C376 1.334 . S
C376 H347 0.950 . S
C376 C375 1.334 . S
C376 C377 1.287 . S
C377 C376 1.287 . S
C377 C378 1.524 . S
C377 H380 0.999 . S
C378 H348 0.950 . S
C378 C377 1.524 . S
C378 C379 1.415 . S
C379 H349 0.950 . S
C379 C374 1.363 . S
C379 C378 1.415 . S
H380 C377 0.999 . S
H381 C362 0.913 . S
H382 C400 0.951 . S
H383 C402 0.951 . S
H384 C404 0.950 . S
H385 C405 0.950 . S
H386 C407 0.950 . S
H387 C410 0.950 . S
H388 C411 0.950 . S
H389 C413 0.950 . S
H390 C414 0.950 . S
H391 C415 0.949 1_655 S
H392 C417 0.949 1_655 S
H393 C419 0.950 . S
H394 C420 0.950 . S
H395 C422 0.950 . S
H396 C425 0.950 . S
H397 C426 0.950 . S
H398 C428 0.950 . S
H399 C429 0.950 . S
C400 H382 0.951 . S
C400 C401 1.366 . S
C400 C402 1.388 . S
C401 C400 1.366 . S
C401 C405 1.384 1_455 S
C402 H383 0.951 . S
C402 C400 1.388 . S
C402 C403 1.364 1_455 S
C403 C402 1.364 1_655 S
C403 C404 1.415 . S
C403 C406 1.499 . S
C404 H384 0.950 . S
C404 C403 1.415 . S
C404 C405 1.374 . S
C405 H385 0.950 . S
C405 C401 1.384 1_655 S
C405 C404 1.374 . S
C406 C403 1.499 . S
C406 C407 1.354 1_655 S
C406 C408 1.407 . S
C407 H386 0.950 . S
C407 C406 1.354 1_455 S
C407 C423 1.377 . S
C408 C406 1.407 . S
C408 C409 1.524 . S
C408 C422 1.377 . S
C409 C408 1.524 . S
C409 C410 1.397 . S
C409 C414 1.363 . S
C410 H387 0.950 . S
C410 C409 1.397 . S
C410 C411 1.334 . S
C411 H388 0.950 . S
C411 C410 1.334 . S
C411 C412 1.287 . S
C412 C411 1.287 . S
C412 C413 1.524 . S
C412 H431 0.913 . S
C413 H389 0.950 . S
C413 C412 1.524 . S
C413 C414 1.415 . S
C414 H390 0.950 . S
C414 C409 1.363 . S
C414 C413 1.415 . S
C415 H391 0.949 1_455 S
C415 C416 1.367 . S
C415 C417 1.388 . S
C416 C415 1.367 . S
C416 C420 1.385 . S
C417 H392 0.949 1_455 S
C417 C415 1.388 . S
C417 C418 1.369 . S
C418 C417 1.369 . S
C418 C419 1.414 . S
C418 C421 1.499 . S
C419 H393 0.950 . S
C419 C418 1.414 . S
C419 C420 1.374 . S
C420 H394 0.950 . S
C420 C416 1.385 . S
C420 C419 1.374 . S
C421 C418 1.499 . S
C421 C422 1.373 1_455 S
C421 C423 1.389 . S
C422 H395 0.950 . S
C422 C408 1.377 . S
C422 C421 1.373 1_655 S
C423 C407 1.377 . S
C423 C421 1.389 . S
C423 C424 1.524 . S
C424 C423 1.524 . S
C424 C425 1.397 . S
C424 C429 1.363 . S
C425 H396 0.950 . S
C425 C424 1.397 . S
C425 C426 1.334 . S
C426 H397 0.950 . S
C426 C425 1.334 . S
C426 C427 1.287 . S
C427 C426 1.287 . S
C427 C428 1.524 . S
C427 H430 0.999 . S
C428 H398 0.950 . S
C428 C427 1.524 . S
C428 C429 1.415 . S
C429 H399 0.950 . S
C429 C424 1.363 . S
C429 C428 1.415 . S
H430 C427 0.999 . S
H431 C412 0.913 . S
H432 C450 0.951 . S
H433 C452 0.951 . S
H434 C454 0.950 . S
H435 C455 0.950 . S
H436 C457 0.950 . S
H437 C460 0.950 . S
H438 C461 0.950 . S
H439 C463 0.950 1_545 S
H440 C464 0.950 . S
H441 C465 0.951 . S
H442 C467 0.951 . S
H443 C469 0.950 . S
H444 C470 0.950 . S
H445 C472 0.950 . S
H446 C475 0.950 . S
H447 C476 0.950 . S
H448 C478 0.950 1_565 S
H449 C479 0.950 . S
C450 H432 0.951 . S
C450 C451 1.363 . S
C450 C452 1.388 . S
C451 C450 1.363 . S
C451 C455 1.387 1_545 S
C452 H433 0.951 . S
C452 C450 1.388 . S
C452 C453 1.366 1_545 S
C453 C452 1.366 1_565 S
C453 C454 1.414 . S
C453 C456 1.499 . S
C454 H434 0.950 . S
C454 C453 1.414 . S
C454 C455 1.374 . S
C455 H435 0.950 . S
C455 C451 1.387 1_565 S
C455 C454 1.374 . S
C456 C453 1.499 . S
C456 C457 1.373 1_565 S
C456 C458 1.389 . S
C457 H436 0.950 . S
C457 C456 1.373 1_545 S
C457 C473 1.377 . S
C458 C456 1.389 . S
C458 C459 1.524 . S
C458 C472 1.377 1_554 S
C459 C458 1.524 . S
C459 C460 1.397 . S
C459 C464 1.363 1_564 S
C460 H437 0.950 . S
C460 C459 1.397 . S
C460 C461 1.334 . S
C461 H438 0.950 . S
C461 C460 1.334 . S
C461 C462 1.287 1_554 S
C462 C461 1.287 1_556 S
C462 C463 1.524 . S
C462 H481 0.913 . S
C463 H439 0.950 1_565 S
C463 C462 1.524 . S
C463 C464 1.415 1_565 S
C464 H440 0.950 . S
C464 C459 1.363 1_546 S
C464 C463 1.415 1_545 S
C465 H441 0.951 . S
C465 C466 1.366 . S
C465 C467 1.388 . S
C466 C465 1.366 . S
C466 C470 1.385 1_565 S
C467 H442 0.951 . S
C467 C465 1.388 . S
C467 C468 1.365 1_565 S
C468 C467 1.365 1_545 S
C468 C469 1.414 . S
C468 C471 1.496 1_556 S
C469 H443 0.950 . S
C469 C468 1.414 . S
C469 C470 1.374 . S
C470 H444 0.950 . S
C470 C466 1.385 1_545 S
C470 C469 1.374 . S
C471 C468 1.496 1_554 S
C471 C472 1.368 1_544 S
C471 C473 1.396 . S
C472 H445 0.950 . S
C472 C458 1.377 1_556 S
C472 C471 1.368 1_566 S
C473 C457 1.377 . S
C473 C471 1.396 . S
C473 C474 1.524 . S
C474 C473 1.524 . S
C474 C475 1.397 . S
C474 C479 1.363 1_545 S
C475 H446 0.950 . S
C475 C474 1.397 . S
C475 C476 1.334 . S
C476 H447 0.950 . S
C476 C475 1.334 . S
C476 C477 1.287 . S
C477 C476 1.287 . S
C477 C478 1.524 . S
C477 H480 0.999 . S
C478 H448 0.950 1_545 S
C478 C477 1.524 . S
C478 C479 1.415 1_545 S
C479 H449 0.950 . S
C479 C474 1.363 1_565 S
C479 C478 1.415 1_565 S
H480 C477 0.999 . S
H481 C462 0.913 . S
H482 C500 0.951 . S
H483 C502 0.951 . S
H484 C504 0.950 . S
H485 C505 0.950 . S
H486 C507 0.950 . S
H487 C510 0.950 . S
H488 C511 0.950 . S
H489 C513 0.950 . S
H490 C514 0.950 . S
H491 C515 0.951 . S
H492 C517 0.951 . S
H493 C519 0.950 . S
H494 C520 0.950 . S
H495 C522 0.950 . S
H496 C525 0.950 . S
H497 C526 0.950 . S
H498 C528 0.950 . S
H499 C529 0.950 . S
C500 H482 0.951 . S
C500 C501 1.366 . S
C500 C502 1.388 . S
C501 C500 1.366 . S
C501 C505 1.385 . S
C502 H483 0.951 . S
C502 C500 1.388 . S
C502 C503 1.366 . S
C503 C502 1.366 . S
C503 C504 1.414 . S
C503 C506 1.499 . S
C504 H484 0.950 . S
C504 C503 1.414 . S
C504 C505 1.374 . S
C505 H485 0.950 . S
C505 C501 1.385 . S
C505 C504 1.374 . S
C506 C503 1.499 . S
C506 C507 1.373 . S
C506 C508 1.389 . S
C507 H486 0.950 . S
C507 C506 1.373 . S
C507 C523 1.386 . S
C508 C506 1.389 . S
C508 C509 1.524 . S
C508 C522 1.377 . S
C509 C508 1.524 . S
C509 C510 1.397 . S
C509 C514 1.363 . S
C510 H487 0.950 . S
C510 C509 1.397 . S
C510 C511 1.334 . S
C511 H488 0.950 . S
C511 C510 1.334 . S
C511 C512 1.287 . S
C512 C511 1.287 . S
C512 C513 1.524 . S
C512 H531 0.913 . S
C513 H489 0.950 . S
C513 C512 1.524 . S
C513 C514 1.415 . S
C514 H490 0.950 . S
C514 C509 1.363 . S
C514 C513 1.415 . S
C515 H491 0.951 . S
C515 C516 1.366 . S
C515 C517 1.388 . S
C516 C515 1.366 . S
C516 C520 1.385 . S
C517 H492 0.951 . S
C517 C515 1.388 . S
C517 C518 1.366 . S
C518 C517 1.366 . S
C518 C519 1.414 . S
C518 C521 1.499 1_556 S
C519 H493 0.950 . S
C519 C518 1.414 . S
C519 C520 1.374 . S
C520 H494 0.950 . S
C520 C516 1.385 . S
C520 C519 1.374 . S
C521 C518 1.499 1_554 S
C521 C522 1.373 . S
C521 C523 1.390 . S
C522 H495 0.950 . S
C522 C508 1.377 . S
C522 C521 1.373 . S
C523 C507 1.386 . S
C523 C521 1.390 . S
C523 C524 1.515 1_554 S
C524 C523 1.515 1_556 S
C524 C525 1.397 . S
C524 C529 1.363 . S
C525 H496 0.950 . S
C525 C524 1.397 . S
C525 C526 1.334 . S
C526 H497 0.950 . S
C526 C525 1.334 . S
C526 C527 1.287 . S
C527 C526 1.287 . S
C527 C528 1.524 . S
C527 H530 0.999 . S
C528 H498 0.950 . S
C528 C527 1.524 . S
C528 C529 1.415 . S
C529 H499 0.950 . S
C529 C524 1.363 . S
C529 C528 1.415 . S
H530 C527 0.999 . S
H531 C512 0.913 . S
H532 C550 0.951 . S
H533 C552 0.951 . S
H534 C554 0.950 . S
H535 C555 0.950 . S
H536 C557 0.950 . S
H537 C560 0.950 . S
H538 C561 0.950 . S
H539 C563 0.950 . S
H540 C564 0.950 . S
H541 C565 0.951 . S
H542 C567 0.951 . S
H543 C569 0.950 . S
H544 C570 0.950 . S
H545 C572 0.950 . S
H546 C575 0.950 . S
H547 C576 0.950 . S
H548 C578 0.950 . S
H549 C579 0.950 . S
C550 H532 0.951 . S
C550 C551 1.366 . S
C550 C552 1.388 . S
C551 C550 1.366 . S
C551 C555 1.385 . S
C552 H533 0.951 . S
C552 C550 1.388 . S
C552 C553 1.366 . S
C553 C552 1.366 . S
C553 C554 1.414 . S
C553 C556 1.499 . S
C554 H534 0.950 . S
C554 C553 1.414 . S
C554 C555 1.374 . S
C555 H535 0.950 . S
C555 C551 1.385 . S
C555 C554 1.374 . S
C556 C553 1.499 . S
C556 C557 1.373 . S
C556 C558 1.389 . S
C557 H536 0.950 . S
C557 C556 1.373 . S
C557 C573 1.377 1_554 S
C558 C556 1.389 . S
C558 C559 1.524 . S
C558 C572 1.377 . S
C559 C558 1.524 . S
C559 C560 1.397 . S
C559 C564 1.363 . S
C560 H537 0.950 . S
C560 C559 1.397 . S
C560 C561 1.334 . S
C561 H538 0.950 . S
C561 C560 1.334 . S
C561 C562 1.287 . S
C562 C561 1.287 . S
C562 C563 1.524 . S
C562 H581 0.913 . S
C563 H539 0.950 . S
C563 C562 1.524 . S
C563 C564 1.415 . S
C564 H540 0.950 . S
C564 C559 1.363 . S
C564 C563 1.415 . S
C565 H541 0.951 . S
C565 C566 1.366 . S
C565 C567 1.388 . S
C566 C565 1.366 . S
C566 C570 1.385 . S
C567 H542 0.951 . S
C567 C565 1.388 . S
C567 C568 1.366 . S
C568 C567 1.366 . S
C568 C569 1.414 . S
C568 C571 1.499 1_556 S
C569 H543 0.950 . S
C569 C568 1.414 . S
C569 C570 1.374 . S
C570 H544 0.950 . S
C570 C566 1.385 . S
C570 C569 1.374 . S
C571 C568 1.499 1_554 S
C571 C572 1.373 . S
C571 C573 1.389 1_554 S
C572 H545 0.950 . S
C572 C558 1.377 . S
C572 C571 1.373 . S
C573 C557 1.377 1_556 S
C573 C571 1.389 1_556 S
C573 C574 1.524 . S
C574 C573 1.524 . S
C574 C575 1.397 . S
C574 C579 1.363 . S
C575 H546 0.950 . S
C575 C574 1.397 . S
C575 C576 1.334 . S
C576 H547 0.950 . S
C576 C575 1.334 . S
C576 C577 1.287 . S
C577 C576 1.287 . S
C577 C578 1.524 . S
C577 H580 0.999 . S
C578 H548 0.950 . S
C578 C577 1.524 . S
C578 C579 1.415 . S
C579 H549 0.950 . S
C579 C574 1.363 . S
C579 C578 1.415 . S
H580 C577 0.999 . S
H581 C562 0.913 . S
H582 C600 0.951 . S
H583 C602 0.951 . S
H584 C604 0.950 . S
H585 C605 0.950 . S
H586 C607 0.950 . S
H587 C610 0.950 . S
H588 C611 0.950 . S
H589 C613 0.950 . S
H590 C614 0.950 . S
H591 C615 0.951 . S
H592 C617 0.951 . S
H593 C619 0.950 . S
H594 C620 0.950 . S
H595 C622 0.950 . S
H596 C625 0.950 . S
H597 C626 0.950 . S
H598 C628 0.950 . S
H599 C629 0.950 1_554 S
C600 H582 0.951 . S
C600 C601 1.371 . S
C600 C602 1.388 . S
C601 C600 1.371 . S
C601 C605 1.379 1_655 S
C602 H583 0.951 . S
C602 C600 1.388 . S
C602 C603 1.399 . S
C603 C602 1.399 . S
C603 C604 1.381 1_655 S
C603 C606 1.498 . S
C604 H584 0.950 . S
C604 C603 1.381 1_455 S
C604 C605 1.374 . S
C605 H585 0.950 . S
C605 C601 1.379 1_455 S
C605 C604 1.374 . S
C606 C603 1.498 . S
C606 C607 1.365 1_655 S
C606 C608 1.398 . S
C607 H586 0.950 . S
C607 C606 1.365 1_455 S
C607 C623 1.377 . S
C608 C606 1.398 . S
C608 C609 1.524 . S
C608 C622 1.377 . S
C609 C608 1.524 . S
C609 C610 1.397 . S
C609 C614 1.363 . S
C610 H587 0.950 . S
C610 C609 1.397 . S
C610 C611 1.334 . S
C611 H588 0.950 . S
C611 C610 1.334 . S
C611 C612 1.287 . S
C612 C611 1.287 . S
C612 C613 1.524 . S
C612 H631 0.913 . S
C613 H589 0.950 . S
C613 C612 1.524 . S
C613 C614 1.415 . S
C614 H590 0.950 . S
C614 C609 1.363 . S
C614 C613 1.415 . S
C615 H591 0.951 . S
C615 C616 1.366 1_455 S
C615 C617 1.388 . S
C616 C615 1.366 1_655 S
C616 C620 1.385 . S
C617 H592 0.951 . S
C617 C615 1.388 . S
C617 C618 1.366 1_455 S
C618 C617 1.366 1_655 S
C618 C619 1.414 . S
C618 C621 1.499 . S
C619 H593 0.950 . S
C619 C618 1.414 . S
C619 C620 1.374 . S
C620 H594 0.950 . S
C620 C616 1.385 . S
C620 C619 1.374 . S
C621 C618 1.499 . S
C621 C622 1.373 1_556 S
C621 C623 1.389 1_656 S
C622 H595 0.950 . S
C622 C608 1.377 . S
C622 C621 1.373 1_554 S
C623 C607 1.377 . S
C623 C621 1.389 1_454 S
C623 C624 1.524 1_554 S
C624 C623 1.524 1_556 S
C624 C625 1.397 . S
C624 C629 1.363 . S
C625 H596 0.950 . S
C625 C624 1.397 . S
C625 C626 1.334 . S
C626 H597 0.950 . S
C626 C625 1.334 . S
C626 C627 1.287 . S
C627 C626 1.287 . S
C627 C628 1.524 . S
C627 H630 0.999 . S
C628 H598 0.950 . S
C628 C627 1.524 . S
C628 C629 1.415 . S
C629 H599 0.950 1_556 S
C629 C624 1.363 . S
C629 C628 1.415 . S
H630 C627 0.999 . S
H631 C612 0.913 . S
H632 C650 0.951 . S
H633 C652 0.951 . S
H634 C654 0.950 . S
H635 C655 0.950 . S
H636 C657 0.950 . S
H637 C660 0.950 . S
H638 C661 0.950 . S
H639 C663 0.950 . S
H640 C664 0.950 . S
H641 C665 0.951 . S
H642 C667 0.951 . S
H643 C669 0.950 . S
H644 C670 0.950 . S
H645 C672 0.925 1_455 S
H646 C675 0.950 . S
H647 C676 0.950 . S
H648 C678 0.950 . S
H649 C679 0.950 . S
C650 H632 0.951 . S
C650 C651 1.366 . S
C650 C652 1.388 . S
C651 C650 1.366 . S
C651 C655 1.385 1_455 S
C652 H633 0.951 . S
C652 C650 1.388 . S
C652 C653 1.366 1_455 S
C653 C652 1.366 1_655 S
C653 C654 1.414 . S
C653 C656 1.499 . S
C654 H634 0.950 . S
C654 C653 1.414 . S
C654 C655 1.374 . S
C655 H635 0.950 . S
C655 C651 1.385 1_655 S
C655 C654 1.374 . S
C656 C653 1.499 . S
C656 C657 1.373 . S
C656 C658 1.389 1_655 S
C657 H636 0.950 . S
C657 C656 1.373 . S
C657 C673 1.377 . S
C658 C656 1.389 1_455 S
C658 C659 1.524 . S
C658 C672 1.370 1_455 S
C659 C658 1.524 . S
C659 C660 1.397 . S
C659 C664 1.363 . S
C660 H637 0.950 . S
C660 C659 1.397 . S
C660 C661 1.334 . S
C661 H638 0.950 . S
C661 C660 1.334 . S
C661 C662 1.287 . S
C662 C661 1.287 . S
C662 C663 1.524 . S
C662 H681 0.913 . S
C663 H639 0.950 . S
C663 C662 1.524 . S
C663 C664 1.415 . S
C664 H640 0.950 . S
C664 C659 1.363 . S
C664 C663 1.415 . S
C665 H641 0.951 . S
C665 C666 1.366 . S
C665 C667 1.388 . S
C666 C665 1.366 . S
C666 C670 1.385 . S
C667 H642 0.951 . S
C667 C665 1.388 . S
C667 C668 1.366 . S
C668 C667 1.366 . S
C668 C669 1.414 . S
C668 C671 1.499 . S
C669 H643 0.950 . S
C669 C668 1.414 . S
C669 C670 1.374 . S
C670 H644 0.950 . S
C670 C666 1.385 . S
C670 C669 1.374 . S
C671 C668 1.499 . S
C671 C672 1.406 . S
C671 C673 1.389 . S
C672 H645 0.925 1_655 S
C672 C658 1.370 1_655 S
C672 C671 1.406 . S
C673 C657 1.377 . S
C673 C671 1.389 . S
C673 C674 1.524 . S
C674 C673 1.524 . S
C674 C675 1.397 . S
C674 C679 1.363 . S
C675 H646 0.950 . S
C675 C674 1.397 . S
C675 C676 1.334 . S
C676 H647 0.950 . S
C676 C675 1.334 . S
C676 C677 1.287 . S
C677 C676 1.287 . S
C677 C678 1.524 . S
C677 H680 0.999 . S
C678 H648 0.950 . S
C678 C677 1.524 . S
C678 C679 1.415 . S
C679 H649 0.950 . S
C679 C674 1.363 . S
C679 C678 1.415 . S
H680 C677 0.999 . S
H681 C662 0.913 . S
H682 C700 0.951 . S
H683 C702 0.951 . S
H684 C704 0.950 . S
H685 C705 0.950 . S
H686 C707 0.950 1_545 S
H687 C710 0.950 . S
H688 C711 0.950 . S
H689 C713 0.950 . S
H690 C714 0.950 . S
H691 C715 0.951 . S
H692 C717 0.951 1_545 S
H693 C719 0.950 . S
H694 C720 0.950 . S
H695 C722 0.950 . S
H696 C725 0.950 . S
H697 C726 0.950 . S
H698 C728 0.950 . S
H699 C729 0.950 . S
C700 H682 0.951 . S
C700 C701 1.366 1_565 S
C700 C702 1.388 . S
C701 C700 1.366 1_545 S
C701 C705 1.385 . S
C702 H683 0.951 . S
C702 C700 1.388 . S
C702 C703 1.366 . S
C703 C702 1.366 . S
C703 C704 1.414 1_565 S
C703 C706 1.499 . S
C704 H684 0.950 . S
C704 C703 1.414 1_545 S
C704 C705 1.374 . S
C705 H685 0.950 . S
C705 C701 1.385 . S
C705 C704 1.374 . S
C706 C703 1.499 . S
C706 C707 1.373 . S
C706 C708 1.389 . S
C707 H686 0.950 1_565 S
C707 C706 1.373 . S
C707 C723 1.377 . S
C708 C706 1.389 . S
C708 C709 1.524 . S
C708 C722 1.377 . S
C709 C708 1.524 . S
C709 C710 1.397 . S
C709 C714 1.363 . S
C710 H687 0.950 . S
C710 C709 1.397 . S
C710 C711 1.334 . S
C711 H688 0.950 . S
C711 C710 1.334 . S
C711 C712 1.287 . S
C712 C711 1.287 . S
C712 C713 1.524 . S
C712 H731 0.913 . S
C713 H689 0.950 . S
C713 C712 1.524 . S
C713 C714 1.415 . S
C714 H690 0.950 . S
C714 C709 1.363 . S
C714 C713 1.415 . S
C715 H691 0.951 . S
C715 C716 1.366 . S
C715 C717 1.388 . S
C716 C715 1.366 . S
C716 C720 1.385 . S
C717 H692 0.951 1_565 S
C717 C715 1.388 . S
C717 C718 1.366 . S
C718 C717 1.366 . S
C718 C719 1.414 . S
C718 C721 1.499 . S
C719 H693 0.950 . S
C719 C718 1.414 . S
C719 C720 1.374 . S
C720 H694 0.950 . S
C720 C716 1.385 . S
C720 C719 1.374 . S
C721 C718 1.499 . S
C721 C722 1.373 . S
C721 C723 1.389 . S
C722 H695 0.950 . S
C722 C708 1.377 . S
C722 C721 1.373 . S
C723 C707 1.377 . S
C723 C721 1.389 . S
C723 C724 1.524 1_565 S
C724 C723 1.524 1_545 S
C724 C725 1.397 1_545 S
C724 C729 1.363 . S
C725 H696 0.950 . S
C725 C724 1.397 1_565 S
C725 C726 1.334 . S
C726 H697 0.950 . S
C726 C725 1.334 . S
C726 C727 1.287 1_565 S
C727 C726 1.287 1_545 S
C727 C728 1.524 . S
C727 H730 0.999 . S
C728 H698 0.950 . S
C728 C727 1.524 . S
C728 C729 1.415 . S
C729 H699 0.950 . S
C729 C724 1.363 . S
C729 C728 1.415 . S
H730 C727 0.999 . S
H731 C712 0.913 . S
H732 C750 0.951 . S
H733 C752 0.951 . S
H734 C754 0.950 . S
H735 C755 0.950 . S
H736 C757 0.950 . S
H737 C760 0.950 . S
H738 C761 0.950 1_556 S
H739 C763 0.950 . S
H740 C764 0.950 . S
H741 C765 0.951 . S
H742 C767 0.951 . S
H743 C769 0.950 . S
H744 C770 0.950 . S
H745 C772 0.950 . S
H746 C775 0.950 . S
H747 C776 0.950 . S
H748 C778 0.950 . S
H749 C779 0.950 . S
C750 H732 0.951 . S
C750 C751 1.366 . S
C750 C752 1.388 . S
C751 C750 1.366 . S
C751 C755 1.385 . S
C752 H733 0.951 . S
C752 C750 1.388 . S
C752 C753 1.366 . S
C753 C752 1.366 . S
C753 C754 1.414 . S
C753 C756 1.499 . S
C754 H734 0.950 . S
C754 C753 1.414 . S
C754 C755 1.374 . S
C755 H735 0.950 . S
C755 C751 1.385 . S
C755 C754 1.374 . S
C756 C753 1.499 . S
C756 C757 1.373 . S
C756 C758 1.389 . S
C757 H736 0.950 . S
C757 C756 1.373 . S
C757 C773 1.377 . S
C758 C756 1.389 . S
C758 C759 1.524 . S
C758 C772 1.377 . S
C759 C758 1.524 . S
C759 C760 1.397 . S
C759 C764 1.363 . S
C760 H737 0.950 . S
C760 C759 1.397 . S
C760 C761 1.334 . S
C761 H738 0.950 1_554 S
C761 C760 1.334 . S
C761 C762 1.287 . S
C762 C761 1.287 . S
C762 C763 1.524 . S
C762 H781 0.913 . S
C763 H739 0.950 . S
C763 C762 1.524 . S
C763 C764 1.415 . S
C764 H740 0.950 . S
C764 C759 1.363 . S
C764 C763 1.415 . S
C765 H741 0.951 . S
C765 C766 1.366 . S
C765 C767 1.388 . S
C766 C765 1.366 . S
C766 C770 1.385 . S
C767 H742 0.951 . S
C767 C765 1.388 . S
C767 C768 1.366 . S
C768 C767 1.366 . S
C768 C769 1.414 . S
C768 C771 1.499 . S
C769 H743 0.950 . S
C769 C768 1.414 . S
C769 C770 1.374 . S
C770 H744 0.950 . S
C770 C766 1.385 . S
C770 C769 1.374 . S
C771 C768 1.499 . S
C771 C772 1.373 . S
C771 C773 1.389 . S
C772 H745 0.950 . S
C772 C758 1.377 . S
C772 C771 1.373 . S
C773 C757 1.377 . S
C773 C771 1.389 . S
C773 C774 1.524 . S
C774 C773 1.524 . S
C774 C775 1.397 . S
C774 C779 1.363 . S
C775 H746 0.950 . S
C775 C774 1.397 . S
C775 C776 1.334 . S
C776 H747 0.950 . S
C776 C775 1.334 . S
C776 C777 1.287 . S
C777 C776 1.287 . S
C777 C778 1.524 . S
C777 H780 0.999 . S
C778 H748 0.950 . S
C778 C777 1.524 . S
C778 C779 1.415 . S
C779 H749 0.950 . S
C779 C774 1.363 . S
C779 C778 1.415 . S
H780 C777 0.999 . S
H781 C762 0.913 . S
H782 C800 0.951 . S
H783 C802 0.951 . S
H784 C804 0.950 . S
H785 C805 0.950 . S
H786 C807 0.950 . S
H787 C810 0.950 . S
H788 C811 0.950 . S
H789 C813 0.950 . S
H790 C814 0.950 . S
H791 C815 0.951 . S
H792 C817 0.951 . S
H793 C819 0.950 . S
H794 C820 0.950 . S
H795 C822 0.950 . S
H796 C825 0.950 . S
H797 C826 0.950 . S
H798 C828 0.950 . S
H799 C829 0.950 . S
C800 H782 0.951 . S
C800 C801 1.366 . S
C800 C802 1.388 . S
C801 C800 1.366 . S
C801 C805 1.385 . S
C802 H783 0.951 . S
C802 C800 1.388 . S
C802 C803 1.366 . S
C803 C802 1.366 . S
C803 C804 1.414 . S
C803 C806 1.499 . S
C804 H784 0.950 . S
C804 C803 1.414 . S
C804 C805 1.374 . S
C805 H785 0.950 . S
C805 C801 1.385 . S
C805 C804 1.374 . S
C806 C803 1.499 . S
C806 C807 1.373 . S
C806 C808 1.389 . S
C807 H786 0.950 . S
C807 C806 1.373 . S
C807 C823 1.377 . S
C808 C806 1.389 . S
C808 C809 1.524 . S
C808 C822 1.377 . S
C809 C808 1.524 . S
C809 C810 1.397 . S
C809 C814 1.363 . S
C810 H787 0.950 . S
C810 C809 1.397 . S
C810 C811 1.334 . S
C811 H788 0.950 . S
C811 C810 1.334 . S
C811 C812 1.287 . S
C812 C811 1.287 . S
C812 C813 1.524 . S
C812 H831 0.913 . S
C813 H789 0.950 . S
C813 C812 1.524 . S
C813 C814 1.415 . S
C814 H790 0.950 . S
C814 C809 1.363 . S
C814 C813 1.415 . S
C815 H791 0.951 . S
C815 C816 1.366 . S
C815 C817 1.388 . S
C816 C815 1.366 . S
C816 C820 1.385 . S
C817 H792 0.951 . S
C817 C815 1.388 . S
C817 C818 1.366 . S
C818 C817 1.366 . S
C818 C819 1.414 . S
C818 C821 1.499 . S
C819 H793 0.950 . S
C819 C818 1.414 . S
C819 C820 1.374 . S
C820 H794 0.950 . S
C820 C816 1.385 . S
C820 C819 1.374 . S
C821 C818 1.499 . S
C821 C822 1.373 . S
C821 C823 1.389 . S
C822 H795 0.950 . S
C822 C808 1.377 . S
C822 C821 1.373 . S
C823 C807 1.377 . S
C823 C821 1.389 . S
C823 C824 1.524 . S
C824 C823 1.524 . S
C824 C825 1.397 . S
C824 C829 1.363 . S
C825 H796 0.950 . S
C825 C824 1.397 . S
C825 C826 1.334 . S
C826 H797 0.950 . S
C826 C825 1.334 . S
C826 C827 1.287 . S
C827 C826 1.287 . S
C827 C828 1.524 . S
C827 H830 0.999 . S
C828 H798 0.950 . S
C828 C827 1.524 . S
C828 C829 1.415 . S
C829 H799 0.950 . S
C829 C824 1.363 . S
C829 C828 1.415 . S
H830 C827 0.999 . S
H831 C812 0.913 . S
H832 C850 0.951 . S
H833 C852 0.951 . S
H834 C854 0.950 . S
H835 C855 0.950 . S
H836 C857 0.968 . S
H837 C860 0.950 . S
H838 C861 0.950 . S
H839 C863 0.950 . S
H840 C864 0.950 . S
H841 C865 0.951 . S
H842 C867 0.951 1_655 S
H843 C869 0.950 1_554 S
H844 C870 0.950 . S
H845 C872 0.950 . S
H846 C875 0.950 . S
H847 C876 0.938 1_455 S
H848 C878 0.950 . S
H849 C879 0.950 1_554 S
C850 H832 0.951 . S
C850 C851 1.366 1_455 S
C850 C852 1.388 . S
C851 C850 1.366 1_655 S
C851 C855 1.385 . S
C852 H833 0.951 . S
C852 C850 1.388 . S
C852 C853 1.366 . S
C853 C852 1.366 . S
C853 C854 1.414 1_455 S
C853 C856 1.499 . S
C854 H834 0.950 . S
C854 C853 1.414 1_655 S
C854 C855 1.374 . S
C855 H835 0.950 . S
C855 C851 1.385 . S
C855 C854 1.374 . S
C856 C853 1.499 . S
C856 C857 1.361 1_455 S
C856 C858 1.389 . S
C857 H836 0.968 . S
C857 C856 1.361 1_655 S
C857 C873 1.372 1_655 S
C858 C856 1.389 . S
C858 C859 1.524 . S
C858 C872 1.377 . S
C859 C858 1.524 . S
C859 C860 1.397 . S
C859 C864 1.363 . S
C860 H837 0.950 . S
C860 C859 1.397 . S
C860 C861 1.334 . S
C861 H838 0.950 . S
C861 C860 1.334 . S
C861 C862 1.287 . S
C862 C861 1.287 . S
C862 C863 1.524 . S
C862 H881 0.913 . S
C863 H839 0.950 . S
C863 C862 1.524 . S
C863 C864 1.415 . S
C864 H840 0.950 . S
C864 C859 1.363 . S
C864 C863 1.415 . S
C865 H841 0.951 . S
C865 C866 1.366 . S
C865 C867 1.388 1_556 S
C866 C865 1.366 . S
C866 C870 1.385 . S
C867 H842 0.951 1_455 S
C867 C865 1.388 1_554 S
C867 C868 1.366 . S
C868 C867 1.366 . S
C868 C869 1.414 1_554 S
C868 C871 1.499 . S
C869 H843 0.950 1_556 S
C869 C868 1.414 1_556 S
C869 C870 1.374 . S
C870 H844 0.950 . S
C870 C866 1.385 . S
C870 C869 1.374 . S
C871 C868 1.499 . S
C871 C872 1.373 . S
C871 C873 1.389 . S
C872 H845 0.950 . S
C872 C858 1.377 . S
C872 C871 1.373 . S
C873 C857 1.372 1_455 S
C873 C871 1.389 . S
C873 C874 1.524 1_454 S
C874 C873 1.524 1_656 S
C874 C875 1.397 1_655 S
C874 C879 1.363 . S
C875 H846 0.950 . S
C875 C874 1.397 1_455 S
C875 C876 1.334 1_455 S
C876 H847 0.938 1_655 S
C876 C875 1.334 1_655 S
C876 C877 1.287 . S
C877 C876 1.287 . S
C877 C878 1.524 . S
C877 H880 0.999 . S
C878 H848 0.950 . S
C878 C877 1.524 . S
C878 C879 1.415 . S
C879 H849 0.950 1_556 S
C879 C874 1.363 . S
C879 C878 1.415 . S
H880 C877 0.999 . S
H881 C862 0.913 . S
H882 C900 0.951 . S
H883 C902 0.951 . S
H884 C904 0.950 . S
H885 C905 0.950 . S
H886 C907 0.950 . S
H887 C910 0.950 . S
H888 C911 0.950 . S
H889 C913 0.950 . S
H890 C914 0.950 . S
H891 C915 0.951 . S
H892 C917 0.951 1_554 S
H893 C919 0.950 1_565 S
H894 C920 0.950 . S
H895 C922 0.950 1_565 S
H896 C925 0.950 . S
H897 C926 0.950 . S
H898 C928 0.950 . S
H899 C929 0.950 . S
C900 H882 0.951 . S
C900 C901 1.366 . S
C900 C902 1.388 . S
C901 C900 1.366 . S
C901 C905 1.385 1_565 S
C902 H883 0.951 . S
C902 C900 1.388 . S
C902 C903 1.366 1_565 S
C903 C902 1.366 1_545 S
C903 C904 1.414 . S
C903 C906 1.499 . S
C904 H884 0.950 . S
C904 C903 1.414 . S
C904 C905 1.374 . S
C905 H885 0.950 . S
C905 C901 1.385 1_545 S
C905 C904 1.374 . S
C906 C903 1.499 . S
C906 C907 1.373 . S
C906 C908 1.389 1_545 S
C907 H886 0.950 . S
C907 C906 1.373 . S
C907 C923 1.377 . S
C908 C906 1.389 1_565 S
C908 C909 1.524 . S
C908 C922 1.377 1_565 S
C909 C908 1.524 . S
C909 C910 1.397 . S
C909 C914 1.363 . S
C910 H887 0.950 . S
C910 C909 1.397 . S
C910 C911 1.334 . S
C911 H888 0.950 . S
C911 C910 1.334 . S
C911 C912 1.287 . S
C912 C911 1.287 . S
C912 C913 1.524 . S
C912 H931 0.913 . S
C913 H889 0.950 . S
C913 C912 1.524 . S
C913 C914 1.415 . S
C914 H890 0.950 . S
C914 C909 1.363 . S
C914 C913 1.415 . S
C915 H891 0.951 . S
C915 C916 1.366 . S
C915 C917 1.388 . S
C916 C915 1.366 . S
C916 C920 1.385 . S
C917 H892 0.951 1_556 S
C917 C915 1.388 . S
C917 C918 1.366 1_556 S
C918 C917 1.366 1_554 S
C918 C919 1.414 . S
C918 C921 1.499 . S
C919 H893 0.950 1_545 S
C919 C918 1.414 . S
C919 C920 1.374 1_554 S
C920 H894 0.950 . S
C920 C916 1.385 . S
C920 C919 1.374 1_556 S
C921 C918 1.499 . S
C921 C922 1.373 . S
C921 C923 1.389 . S
C922 H895 0.950 1_545 S
C922 C908 1.377 1_545 S
C922 C921 1.373 . S
C923 C907 1.377 . S
C923 C921 1.389 . S
C923 C924 1.524 . S
C924 C923 1.524 . S
C924 C925 1.397 . S
C924 C929 1.363 . S
C925 H896 0.950 . S
C925 C924 1.397 . S
C925 C926 1.334 . S
C926 H897 0.950 . S
C926 C925 1.334 . S
C926 C927 1.287 . S
C927 C926 1.287 . S
C927 C928 1.524 . S
C927 H930 0.999 . S
C928 H898 0.950 . S
C928 C927 1.524 . S
C928 C929 1.415 . S
C929 H899 0.950 . S
C929 C924 1.363 . S
C929 C928 1.415 . S
H930 C927 0.999 . S
H931 C912 0.913 . S
H932 C950 0.951 . S
H933 C952 0.951 . S
H934 C954 0.950 . S
H935 C955 0.950 . S
H936 C957 0.950 . S
H937 C960 0.950 . S
H938 C961 0.950 . S
H939 C963 0.950 . S
H940 C964 0.950 . S
H941 C965 0.951 . S
H942 C967 0.951 . S
H943 C969 0.950 . S
H944 C970 0.950 . S
H945 C972 0.950 . S
H946 C975 0.950 . S
H947 C976 0.950 . S
H948 C978 0.950 . S
H949 C979 0.950 . S
C950 H932 0.951 . S
C950 C951 1.366 . S
C950 C952 1.388 . S
C951 C950 1.366 . S
C951 C955 1.385 . S
C952 H933 0.951 . S
C952 C950 1.388 . S
C952 C953 1.366 . S
C953 C952 1.366 . S
C953 C954 1.414 . S
C953 C956 1.499 . S
C954 H934 0.950 . S
C954 C953 1.414 . S
C954 C955 1.374 . S
C955 H935 0.950 . S
C955 C951 1.385 . S
C955 C954 1.374 . S
C956 C953 1.499 . S
C956 C957 1.373 . S
C956 C958 1.389 . S
C957 H936 0.950 . S
C957 C956 1.373 . S
C957 C973 1.377 . S
C958 C956 1.389 . S
C958 C959 1.524 . S
C958 C972 1.377 . S
C959 C958 1.524 . S
C959 C960 1.397 . S
C959 C964 1.363 . S
C960 H937 0.950 . S
C960 C959 1.397 . S
C960 C961 1.334 . S
C961 H938 0.950 . S
C961 C960 1.334 . S
C961 C962 1.287 . S
C962 C961 1.287 . S
C962 C963 1.524 . S
C962 H981 0.913 . S
C963 H939 0.950 . S
C963 C962 1.524 . S
C963 C964 1.415 . S
C964 H940 0.950 . S
C964 C959 1.363 . S
C964 C963 1.415 . S
C965 H941 0.951 . S
C965 C966 1.366 . S
C965 C967 1.388 . S
C966 C965 1.366 . S
C966 C970 1.385 1_556 S
C967 H942 0.951 . S
C967 C965 1.388 . S
C967 C968 1.366 1_556 S
C968 C967 1.366 1_554 S
C968 C969 1.414 . S
C968 C971 1.499 . S
C969 H943 0.950 . S
C969 C968 1.414 . S
C969 C970 1.374 . S
C970 H944 0.950 . S
C970 C966 1.385 1_554 S
C970 C969 1.374 . S
C971 C968 1.499 . S
C971 C972 1.373 . S
C971 C973 1.389 . S
C972 H945 0.950 . S
C972 C958 1.377 . S
C972 C971 1.373 . S
C973 C957 1.377 . S
C973 C971 1.389 . S
C973 C974 1.524 1_554 S
C974 C973 1.524 1_556 S
C974 C975 1.397 . S
C974 C979 1.363 . S
C975 H946 0.950 . S
C975 C974 1.397 . S
C975 C976 1.334 . S
C976 H947 0.950 . S
C976 C975 1.334 . S
C976 C977 1.287 . S
C977 C976 1.287 . S
C977 C978 1.524 . S
C977 H980 0.999 . S
C978 H948 0.950 . S
C978 C977 1.524 . S
C978 C979 1.415 . S
C979 H949 0.950 . S
C979 C974 1.363 . S
C979 C978 1.415 . S
H980 C977 0.999 . S
H981 C962 0.913 . S
H982 C1000 0.951 . S
H983 C1002 0.951 . S
H984 C1004 0.950 . S
H985 C1005 0.950 . S
H986 C1007 0.950 . S
H987 C1010 0.950 . S
H988 C1011 0.950 . S
H989 C1013 0.950 . S
H990 C1014 0.950 . S
H991 C1015 0.951 . S
H992 C1017 0.951 . S
H993 C1019 0.950 . S
H994 C1020 0.950 . S
H995 C1022 0.950 . S
H996 C1025 0.950 1_554 S
H997 C1026 0.950 . S
H998 C1028 0.950 . S
H999 C1029 0.950 . S
C1000 H982 0.951 . S
C1000 C1001 1.366 . S
C1000 C1002 1.388 . S
C1001 C1000 1.366 . S
C1001 C1005 1.385 . S
C1002 H983 0.951 . S
C1002 C1000 1.388 . S
C1002 C1003 1.366 . S
C1003 C1002 1.366 . S
C1003 C1004 1.414 . S
C1003 C1006 1.499 . S
C1004 H984 0.950 . S
C1004 C1003 1.414 . S
C1004 C1005 1.374 . S
C1005 H985 0.950 . S
C1005 C1001 1.385 . S
C1005 C1004 1.374 . S
C1006 C1003 1.499 . S
C1006 C1007 1.373 . S
C1006 C1008 1.389 . S
C1007 H986 0.950 . S
C1007 C1006 1.373 . S
C1007 C1023 1.377 . S
C1008 C1006 1.389 . S
C1008 C1009 1.524 . S
C1008 C1022 1.377 . S
C1009 C1008 1.524 . S
C1009 C1010 1.397 . S
C1009 C1014 1.363 . S
C1010 H987 0.950 . S
C1010 C1009 1.397 . S
C1010 C1011 1.334 . S
C1011 H988 0.950 . S
C1011 C1010 1.334 . S
C1011 C1012 1.287 . S
C1012 C1011 1.287 . S
C1012 C1013 1.524 . S
C1012 H1031 0.913 . S
C1013 H989 0.950 . S
C1013 C1012 1.524 . S
C1013 C1014 1.415 . S
C1014 H990 0.950 . S
C1014 C1009 1.363 . S
C1014 C1013 1.415 . S
C1015 H991 0.951 . S
C1015 C1016 1.366 . S
C1015 C1017 1.388 . S
C1016 C1015 1.366 . S
C1016 C1020 1.385 1_556 S
C1017 H992 0.951 . S
C1017 C1015 1.388 . S
C1017 C1018 1.366 1_556 S
C1018 C1017 1.366 1_554 S
C1018 C1019 1.414 . S
C1018 C1021 1.499 . S
C1019 H993 0.950 . S
C1019 C1018 1.414 . S
C1019 C1020 1.374 . S
C1020 H994 0.950 . S
C1020 C1016 1.385 1_554 S
C1020 C1019 1.374 . S
C1021 C1018 1.499 . S
C1021 C1022 1.373 . S
C1021 C1023 1.389 . S
C1022 H995 0.950 . S
C1022 C1008 1.377 . S
C1022 C1021 1.373 . S
C1023 C1007 1.377 . S
C1023 C1021 1.389 . S
C1023 C1024 1.524 1_554 S
C1024 C1023 1.524 1_556 S
C1024 C1025 1.397 . S
C1024 C1029 1.363 . S
C1025 H996 0.950 1_556 S
C1025 C1024 1.397 . S
C1025 C1026 1.334 . S
C1026 H997 0.950 . S
C1026 C1025 1.334 . S
C1026 C1027 1.287 . S
C1027 C1026 1.287 . S
C1027 C1028 1.524 . S
C1027 H1030 0.999 . S
C1028 H998 0.950 . S
C1028 C1027 1.524 . S
C1028 C1029 1.415 . S
C1029 H999 0.950 . S
C1029 C1024 1.363 . S
C1029 C1028 1.415 . S
H1030 C1027 0.999 . S
H1031 C1012 0.913 . S
H1032 C1050 0.951 . S
H1033 C1052 0.951 . S
H1034 C1054 0.950 . S
H1035 C1055 0.950 . S
H1036 C1057 0.950 . S
H1037 C1060 0.950 . S
H1038 C1061 0.950 . S
H1039 C1063 0.950 . S
H1040 C1064 0.950 . S
H1041 C1065 0.951 . S
H1042 C1067 0.951 . S
H1043 C1069 0.950 . S
H1044 C1070 0.950 . S
H1045 C1072 0.950 . S
H1046 C1075 0.950 . S
H1047 C1076 0.950 . S
H1048 C1078 0.950 . S
H1049 C1079 0.950 . S
C1050 H1032 0.951 . S
C1050 C1051 1.366 1_655 S
C1050 C1052 1.388 . S
C1051 C1050 1.366 1_455 S
C1051 C1055 1.385 . S
C1052 H1033 0.951 . S
C1052 C1050 1.388 . S
C1052 C1053 1.366 1_655 S
C1053 C1052 1.366 1_455 S
C1053 C1054 1.414 . S
C1053 C1056 1.499 . S
C1054 H1034 0.950 . S
C1054 C1053 1.414 . S
C1054 C1055 1.374 . S
C1055 H1035 0.950 . S
C1055 C1051 1.385 . S
C1055 C1054 1.374 . S
C1056 C1053 1.499 . S
C1056 C1057 1.373 . S
C1056 C1058 1.389 1_455 S
C1057 H1036 0.950 . S
C1057 C1056 1.373 . S
C1057 C1073 1.377 . S
C1058 C1056 1.389 1_655 S
C1058 C1059 1.524 . S
C1058 C1072 1.377 . S
C1059 C1058 1.524 . S
C1059 C1060 1.397 . S
C1059 C1064 1.363 . S
C1060 H1037 0.950 . S
C1060 C1059 1.397 . S
C1060 C1061 1.334 . S
C1061 H1038 0.950 . S
C1061 C1060 1.334 . S
C1061 C1062 1.287 . S
C1062 C1061 1.287 . S
C1062 C1063 1.524 . S
C1062 H1081 0.913 . S
C1063 H1039 0.950 . S
C1063 C1062 1.524 . S
C1063 C1064 1.415 . S
C1064 H1040 0.950 . S
C1064 C1059 1.363 . S
C1064 C1063 1.415 . S
C1065 H1041 0.951 . S
C1065 C1066 1.366 . S
C1065 C1067 1.388 . S
C1066 C1065 1.366 . S
C1066 C1070 1.385 1_455 S
C1067 H1042 0.951 . S
C1067 C1065 1.388 . S
C1067 C1068 1.366 . S
C1068 C1067 1.366 . S
C1068 C1069 1.414 1_455 S
C1068 C1071 1.499 . S
C1069 H1043 0.950 . S
C1069 C1068 1.414 1_655 S
C1069 C1070 1.374 . S
C1070 H1044 0.950 . S
C1070 C1066 1.385 1_655 S
C1070 C1069 1.374 . S
C1071 C1068 1.499 . S
C1071 C1072 1.373 1_455 S
C1071 C1073 1.389 . S
C1072 H1045 0.950 . S
C1072 C1058 1.377 . S
C1072 C1071 1.373 1_655 S
C1073 C1057 1.377 . S
C1073 C1071 1.389 . S
C1073 C1074 1.524 . S
C1074 C1073 1.524 . S
C1074 C1075 1.397 . S
C1074 C1079 1.363 . S
C1075 H1046 0.950 . S
C1075 C1074 1.397 . S
C1075 C1076 1.334 . S
C1076 H1047 0.950 . S
C1076 C1075 1.334 . S
C1076 C1077 1.287 . S
C1077 C1076 1.287 . S
C1077 C1078 1.524 . S
C1077 H1080 0.999 . S
C1078 H1048 0.950 . S
C1078 C1077 1.524 . S
C1078 C1079 1.415 . S
C1079 H1049 0.950 . S
C1079 C1074 1.363 . S
C1079 C1078 1.415 . S
H1080 C1077 0.999 . S
H1081 C1062 0.913 . S
H1082 C1100 0.951 1_554 S
H1083 C1102 0.951 . S
H1084 C1104 0.950 . S
H1085 C1105 0.950 . S
H1086 C1107 0.950 . S
H1087 C1110 0.950 . S
H1088 C1111 0.950 . S
H1089 C1113 0.950 . S
H1090 C1114 0.950 . S
H1091 C1115 0.951 . S
H1092 C1117 0.951 . S
H1093 C1119 0.950 1_565 S
H1094 C1120 0.950 1_565 S
H1095 C1122 0.950 . S
H1096 C1125 0.950 . S
H1097 C1126 0.950 . S
H1098 C1128 0.950 . S
H1099 C1129 0.919 1_545 S
C1100 H1082 0.951 1_556 S
C1100 C1101 1.366 1_565 S
C1100 C1102 1.388 . S
C1101 C1100 1.366 1_545 S
C1101 C1105 1.385 . S
C1102 H1083 0.951 . S
C1102 C1100 1.388 . S
C1102 C1103 1.366 1_565 S
C1103 C1102 1.366 1_545 S
C1103 C1104 1.414 . S
C1103 C1106 1.499 . S
C1104 H1084 0.950 . S
C1104 C1103 1.414 . S
C1104 C1105 1.374 . S
C1105 H1085 0.950 . S
C1105 C1101 1.385 . S
C1105 C1104 1.374 . S
C1106 C1103 1.499 . S
C1106 C1107 1.373 1_545 S
C1106 C1108 1.389 . S
C1107 H1086 0.950 . S
C1107 C1106 1.373 1_565 S
C1107 C1123 1.377 . S
C1108 C1106 1.389 . S
C1108 C1109 1.524 . S
C1108 C1122 1.377 . S
C1109 C1108 1.524 . S
C1109 C1110 1.397 . S
C1109 C1114 1.363 1_556 S
C1110 H1087 0.950 . S
C1110 C1109 1.397 . S
C1110 C1111 1.334 1_556 S
C1111 H1088 0.950 . S
C1111 C1110 1.334 1_554 S
C1111 C1112 1.287 . S
C1112 C1111 1.287 . S
C1112 C1113 1.524 . S
C1112 H1131 0.913 . S
C1113 H1089 0.950 . S
C1113 C1112 1.524 . S
C1113 C1114 1.415 . S
C1114 H1090 0.950 . S
C1114 C1109 1.363 1_554 S
C1114 C1113 1.415 . S
C1115 H1091 0.951 . S
C1115 C1116 1.366 . S
C1115 C1117 1.388 . S
C1116 C1115 1.366 . S
C1116 C1120 1.385 . S
C1117 H1092 0.951 . S
C1117 C1115 1.388 . S
C1117 C1118 1.366 . S
C1118 C1117 1.366 . S
C1118 C1119 1.414 . S
C1118 C1121 1.499 . S
C1119 H1093 0.950 1_545 S
C1119 C1118 1.414 . S
C1119 C1120 1.374 . S
C1120 H1094 0.950 1_545 S
C1120 C1116 1.385 . S
C1120 C1119 1.374 . S
C1121 C1118 1.499 . S
C1121 C1122 1.373 . S
C1121 C1123 1.389 1_545 S
C1122 H1095 0.950 . S
C1122 C1108 1.377 . S
C1122 C1121 1.373 . S
C1123 C1107 1.377 . S
C1123 C1121 1.389 1_565 S
C1123 C1124 1.524 . S
C1124 C1123 1.524 . S
C1124 C1125 1.397 . S
C1124 C1129 1.363 . S
C1125 H1096 0.950 . S
C1125 C1124 1.397 . S
C1125 C1126 1.334 . S
C1126 H1097 0.950 . S
C1126 C1125 1.334 . S
C1126 C1127 1.287 . S
C1127 C1126 1.287 . S
C1127 C1128 1.524 . S
C1127 H1130 0.999 . S
C1128 H1098 0.950 . S
C1128 C1127 1.524 . S
C1128 C1129 1.415 . S
C1129 H1099 0.919 1_565 S
C1129 C1124 1.363 . S
C1129 C1128 1.415 . S
H1130 C1127 0.999 . S
H1131 C1112 0.913 . S
H1132 C1150 0.951 . S
H1133 C1152 0.951 . S
H1134 C1154 0.950 . S
H1135 C1155 0.950 . S
H1136 C1157 0.950 . S
H1137 C1160 0.950 . S
H1138 C1161 0.950 . S
H1139 C1163 0.950 . S
H1140 C1164 0.950 . S
H1141 C1165 0.951 . S
H1142 C1167 0.951 . S
H1143 C1169 0.950 . S
H1144 C1170 0.950 . S
H1145 C1172 0.950 . S
H1146 C1175 0.950 . S
H1147 C1176 0.950 1_554 S
H1148 C1178 0.950 . S
H1149 C1179 0.950 . S
C1150 H1132 0.951 . S
C1150 C1151 1.366 . S
C1150 C1152 1.388 . S
C1151 C1150 1.366 . S
C1151 C1155 1.385 . S
C1152 H1133 0.951 . S
C1152 C1150 1.388 . S
C1152 C1153 1.366 . S
C1153 C1152 1.366 . S
C1153 C1154 1.414 . S
C1153 C1156 1.499 . S
C1154 H1134 0.950 . S
C1154 C1153 1.414 . S
C1154 C1155 1.374 . S
C1155 H1135 0.950 . S
C1155 C1151 1.385 . S
C1155 C1154 1.374 . S
C1156 C1153 1.499 . S
C1156 C1157 1.373 . S
C1156 C1158 1.389 . S
C1157 H1136 0.950 . S
C1157 C1156 1.373 . S
C1157 C1173 1.377 . S
C1158 C1156 1.389 . S
C1158 C1159 1.524 . S
C1158 C1172 1.377 . S
C1159 C1158 1.524 . S
C1159 C1160 1.397 . S
C1159 C1164 1.363 . S
C1160 H1137 0.950 . S
C1160 C1159 1.397 . S
C1160 C1161 1.334 . S
C1161 H1138 0.950 . S
C1161 C1160 1.334 . S
C1161 C1162 1.287 . S
C1162 C1161 1.287 . S
C1162 C1163 1.524 . S
C1162 H1181 0.913 . S
C1163 H1139 0.950 . S
C1163 C1162 1.524 . S
C1163 C1164 1.415 . S
C1164 H1140 0.950 . S
C1164 C1159 1.363 . S
C1164 C1163 1.415 . S
C1165 H1141 0.951 . S
C1165 C1166 1.366 . S
C1165 C1167 1.388 . S
C1166 C1165 1.366 . S
C1166 C1170 1.385 . S
C1167 H1142 0.951 . S
C1167 C1165 1.388 . S
C1167 C1168 1.366 . S
C1168 C1167 1.366 . S
C1168 C1169 1.414 . S
C1168 C1171 1.499 . S
C1169 H1143 0.950 . S
C1169 C1168 1.414 . S
C1169 C1170 1.374 . S
C1170 H1144 0.950 . S
C1170 C1166 1.385 . S
C1170 C1169 1.374 . S
C1171 C1168 1.499 . S
C1171 C1172 1.373 . S
C1171 C1173 1.389 . S
C1172 H1145 0.950 . S
C1172 C1158 1.377 . S
C1172 C1171 1.373 . S
C1173 C1157 1.377 . S
C1173 C1171 1.389 . S
C1173 C1174 1.524 . S
C1174 C1173 1.524 . S
C1174 C1175 1.397 . S
C1174 C1179 1.363 . S
C1175 H1146 0.950 . S
C1175 C1174 1.397 . S
C1175 C1176 1.334 . S
C1176 H1147 0.950 1_556 S
C1176 C1175 1.334 . S
C1176 C1177 1.287 1_556 S
C1177 C1176 1.287 1_554 S
C1177 C1178 1.524 1_554 S
C1177 H1180 0.999 . S
C1178 H1148 0.950 . S
C1178 C1177 1.524 1_556 S
C1178 C1179 1.415 . S
C1179 H1149 0.950 . S
C1179 C1174 1.363 . S
C1179 C1178 1.415 . S
H1180 C1177 0.999 . S
H1181 C1162 0.913 . S
H1182 C1200 0.951 . S
H1183 C1202 0.951 . S
H1184 C1204 0.950 . S
H1185 C1205 0.950 . S
H1186 C1207 0.950 . S
H1187 C1210 0.950 . S
H1188 C1211 0.950 1_554 S
H1189 C1213 0.950 . S
H1190 C1214 0.950 . S
H1191 C1215 0.951 . S
H1192 C1217 0.951 . S
H1193 C1219 0.950 . S
H1194 C1220 0.950 . S
H1195 C1222 0.950 . S
H1196 C1225 0.950 . S
H1197 C1226 0.950 . S
H1198 C1228 0.950 . S
H1199 C1229 0.950 . S
C1200 H1182 0.951 . S
C1200 C1201 1.366 . S
C1200 C1202 1.388 . S
C1201 C1200 1.366 . S
C1201 C1205 1.385 . S
C1202 H1183 0.951 . S
C1202 C1200 1.388 . S
C1202 C1203 1.366 . S
C1203 C1202 1.366 . S
C1203 C1204 1.414 . S
C1203 C1206 1.499 . S
C1204 H1184 0.950 . S
C1204 C1203 1.414 . S
C1204 C1205 1.374 . S
C1205 H1185 0.950 . S
C1205 C1201 1.385 . S
C1205 C1204 1.374 . S
C1206 C1203 1.499 . S
C1206 C1207 1.373 . S
C1206 C1208 1.389 . S
C1207 H1186 0.950 . S
C1207 C1206 1.373 . S
C1207 C1223 1.377 . S
C1208 C1206 1.389 . S
C1208 C1209 1.524 . S
C1208 C1222 1.377 . S
C1209 C1208 1.524 . S
C1209 C1210 1.397 . S
C1209 C1214 1.363 . S
C1210 H1187 0.950 . S
C1210 C1209 1.397 . S
C1210 C1211 1.334 . S
C1211 H1188 0.950 1_556 S
C1211 C1210 1.334 . S
C1211 C1212 1.287 . S
C1212 C1211 1.287 . S
C1212 C1213 1.524 . S
C1212 H1231 0.913 . S
C1213 H1189 0.950 . S
C1213 C1212 1.524 . S
C1213 C1214 1.415 . S
C1214 H1190 0.950 . S
C1214 C1209 1.363 . S
C1214 C1213 1.415 . S
C1215 H1191 0.951 . S
C1215 C1216 1.366 . S
C1215 C1217 1.388 . S
C1216 C1215 1.366 . S
C1216 C1220 1.385 . S
C1217 H1192 0.951 . S
C1217 C1215 1.388 . S
C1217 C1218 1.366 . S
C1218 C1217 1.366 . S
C1218 C1219 1.414 . S
C1218 C1221 1.499 . S
C1219 H1193 0.950 . S
C1219 C1218 1.414 . S
C1219 C1220 1.374 . S
C1220 H1194 0.950 . S
C1220 C1216 1.385 . S
C1220 C1219 1.374 . S
C1221 C1218 1.499 . S
C1221 C1222 1.373 . S
C1221 C1223 1.389 . S
C1222 H1195 0.950 . S
C1222 C1208 1.377 . S
C1222 C1221 1.373 . S
C1223 C1207 1.377 . S
C1223 C1221 1.389 . S
C1223 C1224 1.524 . S
C1224 C1223 1.524 . S
C1224 C1225 1.397 . S
C1224 C1229 1.363 . S
C1225 H1196 0.950 . S
C1225 C1224 1.397 . S
C1225 C1226 1.334 . S
C1226 H1197 0.950 . S
C1226 C1225 1.334 . S
C1226 C1227 1.287 . S
C1227 C1226 1.287 . S
C1227 C1228 1.524 . S
C1227 H1230 0.999 . S
C1228 H1198 0.950 . S
C1228 C1227 1.524 . S
C1228 C1229 1.415 . S
C1229 H1199 0.950 . S
C1229 C1224 1.363 . S
C1229 C1228 1.415 . S
H1230 C1227 0.999 . S
H1231 C1212 0.913 . S
H1232 C1250 0.951 . S
H1233 C1252 0.951 . S
H1234 C1254 0.950 . S
H1235 C1255 0.950 . S
H1236 C1257 0.950 . S
H1237 C1260 0.950 . S
H1238 C1261 0.950 . S
H1239 C1263 0.950 . S
H1240 C1264 0.950 . S
H1241 C1265 0.951 . S
H1242 C1267 0.951 . S
H1243 C1269 0.950 . S
H1244 C1270 0.950 . S
H1245 C1272 0.950 . S
H1246 C1275 0.950 . S
H1247 C1276 0.950 . S
H1248 C1278 0.950 . S
H1249 C1279 0.950 . S
C1250 H1232 0.951 . S
C1250 C1251 1.366 1_455 S
C1250 C1252 1.388 . S
C1251 C1250 1.366 1_655 S
C1251 C1255 1.385 . S
C1252 H1233 0.951 . S
C1252 C1250 1.388 . S
C1252 C1253 1.366 1_455 S
C1253 C1252 1.366 1_655 S
C1253 C1254 1.414 . S
C1253 C1256 1.499 . S
C1254 H1234 0.950 . S
C1254 C1253 1.414 . S
C1254 C1255 1.374 . S
C1255 H1235 0.950 . S
C1255 C1251 1.385 . S
C1255 C1254 1.374 . S
C1256 C1253 1.499 . S
C1256 C1257 1.373 . S
C1256 C1258 1.389 . S
C1257 H1236 0.950 . S
C1257 C1256 1.373 . S
C1257 C1273 1.377 . S
C1258 C1256 1.389 . S
C1258 C1259 1.524 . S
C1258 C1272 1.377 . S
C1259 C1258 1.524 . S
C1259 C1260 1.397 . S
C1259 C1264 1.363 1_655 S
C1260 H1237 0.950 . S
C1260 C1259 1.397 . S
C1260 C1261 1.334 . S
C1261 H1238 0.950 . S
C1261 C1260 1.334 . S
C1261 C1262 1.287 . S
C1262 C1261 1.287 . S
C1262 C1263 1.524 1_655 S
C1262 H1281 0.913 . S
C1263 H1239 0.950 . S
C1263 C1262 1.524 1_455 S
C1263 C1264 1.415 . S
C1264 H1240 0.950 . S
C1264 C1259 1.363 1_455 S
C1264 C1263 1.415 . S
C1265 H1241 0.951 . S
C1265 C1266 1.366 . S
C1265 C1267 1.388 . S
C1266 C1265 1.366 . S
C1266 C1270 1.385 1_655 S
C1267 H1242 0.951 . S
C1267 C1265 1.388 . S
C1267 C1268 1.366 . S
C1268 C1267 1.366 . S
C1268 C1269 1.414 1_655 S
C1268 C1271 1.499 . S
C1269 H1243 0.950 . S
C1269 C1268 1.414 1_455 S
C1269 C1270 1.374 . S
C1270 H1244 0.950 . S
C1270 C1266 1.385 1_455 S
C1270 C1269 1.374 . S
C1271 C1268 1.499 . S
C1271 C1272 1.373 . S
C1271 C1273 1.389 . S
C1272 H1245 0.950 . S
C1272 C1258 1.377 . S
C1272 C1271 1.373 . S
C1273 C1257 1.377 . S
C1273 C1271 1.389 . S
C1273 C1274 1.524 . S
C1274 C1273 1.524 . S
C1274 C1275 1.397 1_655 S
C1274 C1279 1.363 . S
C1275 H1246 0.950 . S
C1275 C1274 1.397 1_455 S
C1275 C1276 1.334 . S
C1276 H1247 0.950 . S
C1276 C1275 1.334 . S
C1276 C1277 1.287 1_455 S
C1277 C1276 1.287 1_655 S
C1277 C1278 1.524 . S
C1277 H1280 0.999 . S
C1278 H1248 0.950 . S
C1278 C1277 1.524 . S
C1278 C1279 1.415 . S
C1279 H1249 0.950 . S
C1279 C1274 1.363 . S
C1279 C1278 1.415 . S
H1280 C1277 0.999 . S
H1281 C1262 0.913 . S
H1282 C1300 0.951 . S
H1283 C1302 0.951 . S
H1284 C1304 0.950 . S
H1285 C1305 0.950 . S
H1286 C1307 0.950 . S
H1287 C1310 0.950 . S
H1288 C1311 0.950 . S
H1289 C1313 0.950 . S
H1290 C1314 0.950 . S
H1291 C1315 0.951 . S
H1292 C1317 0.951 . S
H1293 C1319 0.950 . S
H1294 C1320 0.950 . S
H1295 C1322 0.950 . S
H1296 C1325 0.950 . S
H1297 C1326 0.950 . S
H1298 C1328 0.950 . S
H1299 C1329 0.950 . S
C1300 H1282 0.951 . S
C1300 C1301 1.366 1_545 S
C1300 C1302 1.388 . S
C1301 C1300 1.366 1_565 S
C1301 C1305 1.385 . S
C1302 H1283 0.951 . S
C1302 C1300 1.388 . S
C1302 C1303 1.366 1_545 S
C1303 C1302 1.366 1_565 S
C1303 C1304 1.414 . S
C1303 C1306 1.499 . S
C1304 H1284 0.950 . S
C1304 C1303 1.414 . S
C1304 C1305 1.374 . S
C1305 H1285 0.950 . S
C1305 C1301 1.385 . S
C1305 C1304 1.374 . S
C1306 C1303 1.499 . S
C1306 C1307 1.373 . S
C1306 C1308 1.389 1_565 S
C1307 H1286 0.950 . S
C1307 C1306 1.373 . S
C1307 C1323 1.377 . S
C1308 C1306 1.389 1_545 S
C1308 C1309 1.524 . S
C1308 C1322 1.377 . S
C1309 C1308 1.524 . S
C1309 C1310 1.397 . S
C1309 C1314 1.363 . S
C1310 H1287 0.950 . S
C1310 C1309 1.397 . S
C1310 C1311 1.334 . S
C1311 H1288 0.950 . S
C1311 C1310 1.334 . S
C1311 C1312 1.287 . S
C1312 C1311 1.287 . S
C1312 C1313 1.524 . S
C1312 H1331 0.913 . S
C1313 H1289 0.950 . S
C1313 C1312 1.524 . S
C1313 C1314 1.415 . S
C1314 H1290 0.950 . S
C1314 C1309 1.363 . S
C1314 C1313 1.415 . S
C1315 H1291 0.951 . S
C1315 C1316 1.366 . S
C1315 C1317 1.388 . S
C1316 C1315 1.366 . S
C1316 C1320 1.385 1_565 S
C1317 H1292 0.951 . S
C1317 C1315 1.388 . S
C1317 C1318 1.366 . S
C1318 C1317 1.366 . S
C1318 C1319 1.414 1_565 S
C1318 C1321 1.499 . S
C1319 H1293 0.950 . S
C1319 C1318 1.414 1_545 S
C1319 C1320 1.374 . S
C1320 H1294 0.950 . S
C1320 C1316 1.385 1_545 S
C1320 C1319 1.374 . S
C1321 C1318 1.499 . S
C1321 C1322 1.373 1_565 S
C1321 C1323 1.389 . S
C1322 H1295 0.950 . S
C1322 C1308 1.377 . S
C1322 C1321 1.373 1_545 S
C1323 C1307 1.377 . S
C1323 C1321 1.389 . S
C1323 C1324 1.524 . S
C1324 C1323 1.524 . S
C1324 C1325 1.397 . S
C1324 C1329 1.363 . S
C1325 H1296 0.950 . S
C1325 C1324 1.397 . S
C1325 C1326 1.334 . S
C1326 H1297 0.950 . S
C1326 C1325 1.334 . S
C1326 C1327 1.287 . S
C1327 C1326 1.287 . S
C1327 C1328 1.524 . S
C1327 H1330 0.999 . S
C1328 H1298 0.950 . S
C1328 C1327 1.524 . S
C1328 C1329 1.415 . S
C1329 H1299 0.950 . S
C1329 C1324 1.363 . S
C1329 C1328 1.415 . S
H1330 C1327 0.999 . S
H1331 C1312 0.913 . S
H1332 C1350 0.951 . S
H1333 C1352 0.951 . S
H1334 C1354 0.950 . S
H1335 C1355 0.950 . S
H1336 C1357 0.950 . S
H1337 C1360 0.950 . S
H1338 C1361 0.950 . S
H1339 C1363 0.950 . S
H1340 C1364 0.950 . S
H1341 C1365 0.951 . S
H1342 C1367 0.951 . S
H1343 C1369 0.950 . S
H1344 C1370 0.950 . S
H1345 C1372 0.950 . S
H1346 C1375 0.950 . S
H1347 C1376 0.950 . S
H1348 C1378 0.950 . S
H1349 C1379 0.950 . S
C1350 H1332 0.951 . S
C1350 C1351 1.366 . S
C1350 C1352 1.388 . S
C1351 C1350 1.366 . S
C1351 C1355 1.385 . S
C1352 H1333 0.951 . S
C1352 C1350 1.388 . S
C1352 C1353 1.366 . S
C1353 C1352 1.366 . S
C1353 C1354 1.414 . S
C1353 C1356 1.499 . S
C1354 H1334 0.950 . S
C1354 C1353 1.414 . S
C1354 C1355 1.374 . S
C1355 H1335 0.950 . S
C1355 C1351 1.385 . S
C1355 C1354 1.374 . S
C1356 C1353 1.499 . S
C1356 C1357 1.373 . S
C1356 C1358 1.389 . S
C1357 H1336 0.950 . S
C1357 C1356 1.373 . S
C1357 C1373 1.377 . S
C1358 C1356 1.389 . S
C1358 C1359 1.524 . S
C1358 C1372 1.377 . S
C1359 C1358 1.524 . S
C1359 C1360 1.397 . S
C1359 C1364 1.363 . S
C1360 H1337 0.950 . S
C1360 C1359 1.397 . S
C1360 C1361 1.334 . S
C1361 H1338 0.950 . S
C1361 C1360 1.334 . S
C1361 C1362 1.287 . S
C1362 C1361 1.287 . S
C1362 C1363 1.524 . S
C1362 H1381 0.913 . S
C1363 H1339 0.950 . S
C1363 C1362 1.524 . S
C1363 C1364 1.415 . S
C1364 H1340 0.950 . S
C1364 C1359 1.363 . S
C1364 C1363 1.415 . S
C1365 H1341 0.951 . S
C1365 C1366 1.366 . S
C1365 C1367 1.388 . S
C1366 C1365 1.366 . S
C1366 C1370 1.385 . S
C1367 H1342 0.951 . S
C1367 C1365 1.388 . S
C1367 C1368 1.366 . S
C1368 C1367 1.366 . S
C1368 C1369 1.414 . S
C1368 C1371 1.499 . S
C1369 H1343 0.950 . S
C1369 C1368 1.414 . S
C1369 C1370 1.374 . S
C1370 H1344 0.950 . S
C1370 C1366 1.385 . S
C1370 C1369 1.374 . S
C1371 C1368 1.499 . S
C1371 C1372 1.373 . S
C1371 C1373 1.389 . S
C1372 H1345 0.950 . S
C1372 C1358 1.377 . S
C1372 C1371 1.373 . S
C1373 C1357 1.377 . S
C1373 C1371 1.389 . S
C1373 C1374 1.524 . S
C1374 C1373 1.524 . S
C1374 C1375 1.397 . S
C1374 C1379 1.363 . S
C1375 H1346 0.950 . S
C1375 C1374 1.397 . S
C1375 C1376 1.334 . S
C1376 H1347 0.950 . S
C1376 C1375 1.334 . S
C1376 C1377 1.287 . S
C1377 C1376 1.287 . S
C1377 C1378 1.524 . S
C1377 H1380 0.999 . S
C1378 H1348 0.950 . S
C1378 C1377 1.524 . S
C1378 C1379 1.415 . S
C1379 H1349 0.950 . S
C1379 C1374 1.363 . S
C1379 C1378 1.415 . S
H1380 C1377 0.999 . S
H1381 C1362 0.913 . S
H1382 C1400 0.951 . S
H1383 C1402 0.951 . S
H1384 C1404 0.950 . S
H1385 C1405 0.950 . S
H1386 C1407 0.950 . S
H1387 C1410 0.950 . S
H1388 C1411 0.950 . S
H1389 C1413 0.950 . S
H1390 C1414 0.950 . S
H1391 C1415 0.951 . S
H1392 C1417 0.951 . S
H1393 C1419 0.950 . S
H1394 C1420 0.950 . S
H1395 C1422 0.950 . S
H1396 C1425 0.950 . S
H1397 C1426 0.950 . S
H1398 C1428 0.950 . S
H1399 C1429 0.950 . S
C1400 H1382 0.951 . S
C1400 C1401 1.366 . S
C1400 C1402 1.388 . S
C1401 C1400 1.366 . S
C1401 C1405 1.385 . S
C1402 H1383 0.951 . S
C1402 C1400 1.388 . S
C1402 C1403 1.366 . S
C1403 C1402 1.366 . S
C1403 C1404 1.414 . S
C1403 C1406 1.499 . S
C1404 H1384 0.950 . S
C1404 C1403 1.414 . S
C1404 C1405 1.374 . S
C1405 H1385 0.950 . S
C1405 C1401 1.385 . S
C1405 C1404 1.374 . S
C1406 C1403 1.499 . S
C1406 C1407 1.373 . S
C1406 C1408 1.389 . S
C1407 H1386 0.950 . S
C1407 C1406 1.373 . S
C1407 C1423 1.377 . S
C1408 C1406 1.389 . S
C1408 C1409 1.524 . S
C1408 C1422 1.377 . S
C1409 C1408 1.524 . S
C1409 C1410 1.397 . S
C1409 C1414 1.363 . S
C1410 H1387 0.950 . S
C1410 C1409 1.397 . S
C1410 C1411 1.334 . S
C1411 H1388 0.950 . S
C1411 C1410 1.334 . S
C1411 C1412 1.287 . S
C1412 C1411 1.287 . S
C1412 C1413 1.524 . S
C1412 H1431 0.913 . S
C1413 H1389 0.950 . S
C1413 C1412 1.524 . S
C1413 C1414 1.415 . S
C1414 H1390 0.950 . S
C1414 C1409 1.363 . S
C1414 C1413 1.415 . S
C1415 H1391 0.951 . S
C1415 C1416 1.366 . S
C1415 C1417 1.388 . S
C1416 C1415 1.366 . S
C1416 C1420 1.385 . S
C1417 H1392 0.951 . S
C1417 C1415 1.388 . S
C1417 C1418 1.366 . S
C1418 C1417 1.366 . S
C1418 C1419 1.414 . S
C1418 C1421 1.499 . S
C1419 H1393 0.950 . S
C1419 C1418 1.414 . S
C1419 C1420 1.374 . S
C1420 H1394 0.950 . S
C1420 C1416 1.385 . S
C1420 C1419 1.374 . S
C1421 C1418 1.499 . S
C1421 C1422 1.373 . S
C1421 C1423 1.389 . S
C1422 H1395 0.950 . S
C1422 C1408 1.377 . S
C1422 C1421 1.373 . S
C1423 C1407 1.377 . S
C1423 C1421 1.389 . S
C1423 C1424 1.524 . S
C1424 C1423 1.524 . S
C1424 C1425 1.397 . S
C1424 C1429 1.363 . S
C1425 H1396 0.950 . S
C1425 C1424 1.397 . S
C1425 C1426 1.334 . S
C1426 H1397 0.950 . S
C1426 C1425 1.334 . S
C1426 C1427 1.287 . S
C1427 C1426 1.287 . S
C1427 C1428 1.524 . S
C1427 H1430 0.999 . S
C1428 H1398 0.950 . S
C1428 C1427 1.524 . S
C1428 C1429 1.415 . S
C1429 H1399 0.950 . S
C1429 C1424 1.363 . S
C1429 C1428 1.415 . S
H1430 C1427 0.999 . S
H1431 C1412 0.913 . S
C251 C61 1.638 1_545 S
C266 C81 1.718 1_545 S
C316 C121 1.727 . S
C301 C70 1.649 . S
C366 C161 1.732 . S
C351 C43 1.648 . S
C416 C201 1.726 1_455 S
C401 C52 1.646 1_455 S
C466 C90 1.723 1_565 S
C451 C25 1.645 1_545 S
C501 C34 1.655 . S
C516 C130 1.732 . S
C551 C7 1.648 . S
C566 C170 1.731 . S
C601 C16 1.645 . S
C616 C210 1.726 1_655 S
C666 C87 0.306 . S
C651 C50 0.261 1_455 S
C716 C127 0.310 . S
C701 C59 0.266 1_545 S
C766 C167 0.307 . S
C751 C67 0.256 . S
C801 C41 0.264 . S
C816 C207 0.305 . S
C851 C14 0.259 . S
C866 C78 0.303 . S
C916 C118 0.308 . S
C901 C23 0.255 . S
C966 C158 0.307 . S
C951 C31 0.264 . S
C1001 C5 0.250 . S
C1016 C198 0.311 . S
C1051 C49 1.799 1_455 S
C1066 C91 1.971 . S
C1101 C58 1.780 1_545 S
C1116 C131 1.956 . S
C1166 C171 1.948 . S
C1151 C68 1.769 . S
C1216 C211 1.964 . S
C1201 C40 1.784 . S
C1251 C13 1.798 . S
C1266 C82 1.983 . S
C1316 C122 1.956 . S
C1301 C22 1.778 . S
C1366 C162 1.948 . S
C1351 C32 1.772 . S
C1401 C4 1.787 . S
C1416 C202 1.969 . S
