# Generated by pormake.
# Topology pyr, (3,6)-cn, num edge types: 1
# Building blocks:
#     Node 0, Type 0, BuildingBlock: VETTIZ_charged_linker_0, # of connection points: 3
#     Node 1, Type 0, BuildingBlock: VETTIZ_charged_linker_0, # of connection points: 3
#     Node 2, Type 0, BuildingBlock: VETTIZ_charged_linker_0, # of connection points: 3
#     Node 3, Type 0, BuildingBlock: VETTIZ_charged_linker_0, # of connection points: 3
#     Node 4, Type 0, BuildingBlock: VETTIZ_charged_linker_0, # of connection points: 3
#     Node 5, Type 0, BuildingBlock: VETTIZ_charged_linker_0, # of connection points: 3
#     Node 6, Type 0, BuildingBlock: VETTIZ_charged_linker_0, # of connection points: 3
#     Node 7, Type 0, BuildingBlock: VETTIZ_charged_linker_0, # of connection points: 3
#     Node 8, Type 1, BuildingBlock: MIDCAF_clean_sbu_0, # of connection points: 6
#     Node 9, Type 1, BuildingBlock: MIDCAF_clean_sbu_0, # of connection points: 6
#     Node 10, Type 1, BuildingBlock: MIDCAF_clean_sbu_0, # of connection points: 6
#     Node 11, Type 1, BuildingBlock: MIDCAF_clean_sbu_0, # of connection points: 6
#     Edge 12, Type (0, 1), BuildingBlock: XUDNAN_clean_linker_2, # of connection points: 2
#     Edge 13, Type (0, 1), BuildingBlock: XUDNAN_clean_linker_2, # of connection points: 2
#     Edge 14, Type (0, 1), BuildingBlock: XUDNAN_clean_linker_2, # of connection points: 2
#     Edge 15, Type (0, 1), BuildingBlock: XUDNAN_clean_linker_2, # of connection points: 2
#     Edge 16, Type (0, 1), BuildingBlock: XUDNAN_clean_linker_2, # of connection points: 2
#     Edge 17, Type (0, 1), BuildingBlock: XUDNAN_clean_linker_2, # of connection points: 2
#     Edge 18, Type (0, 1), BuildingBlock: XUDNAN_clean_linker_2, # of connection points: 2
#     Edge 19, Type (0, 1), BuildingBlock: XUDNAN_clean_linker_2, # of connection points: 2
#     Edge 20, Type (0, 1), BuildingBlock: XUDNAN_clean_linker_2, # of connection points: 2
#     Edge 21, Type (0, 1), BuildingBlock: XUDNAN_clean_linker_2, # of connection points: 2
#     Edge 22, Type (0, 1), BuildingBlock: XUDNAN_clean_linker_2, # of connection points: 2
#     Edge 23, Type (0, 1), BuildingBlock: XUDNAN_clean_linker_2, # of connection points: 2
#     Edge 24, Type (0, 1), BuildingBlock: XUDNAN_clean_linker_2, # of connection points: 2
#     Edge 25, Type (0, 1), BuildingBlock: XUDNAN_clean_linker_2, # of connection points: 2
#     Edge 26, Type (0, 1), BuildingBlock: XUDNAN_clean_linker_2, # of connection points: 2
#     Edge 27, Type (0, 1), BuildingBlock: XUDNAN_clean_linker_2, # of connection points: 2
#     Edge 28, Type (0, 1), BuildingBlock: XUDNAN_clean_linker_2, # of connection points: 2
#     Edge 29, Type (0, 1), BuildingBlock: XUDNAN_clean_linker_2, # of connection points: 2
#     Edge 30, Type (0, 1), BuildingBlock: XUDNAN_clean_linker_2, # of connection points: 2
#     Edge 31, Type (0, 1), BuildingBlock: XUDNAN_clean_linker_2, # of connection points: 2
#     Edge 32, Type (0, 1), BuildingBlock: XUDNAN_clean_linker_2, # of connection points: 2
#     Edge 33, Type (0, 1), BuildingBlock: XUDNAN_clean_linker_2, # of connection points: 2
#     Edge 34, Type (0, 1), BuildingBlock: XUDNAN_clean_linker_2, # of connection points: 2
#     Edge 35, Type (0, 1), BuildingBlock: XUDNAN_clean_linker_2, # of connection points: 2
# Relax obj value: 0.019
# Max RMSD: 0.063
# Mean RMSD: 0.021
data_MOF--net-pyr--node1-MIDCAF_clean_sbu_0--node2-VETTIZ_charged_linker_0--edge1-XUDNAN_clean_linker_2
_symmetry_space_group_name_H-M    P1
_symmetry_Int_Tables_number       1
_symmetry_cell_setting            triclinic
loop_
_symmetry_equiv_pos_as_xyz
'x, y, z'
_cell_length_a     43.60199
_cell_length_b     43.67949
_cell_length_c     43.666004
_cell_angle_alpha  89.985418
_cell_angle_beta   89.969108
_cell_angle_gamma 90.10222
loop_
_atom_site_label
_atom_site_type_symbol
_atom_site_fract_x
_atom_site_fract_y
_atom_site_fract_z
_atom_type_partial_charge
C0 C 0.17251 0.18067 0.31901 0.0
C1 C 0.14864 0.19789 0.33248 0.0
C2 C 0.14232 0.22723 0.32039 0.0
C3 C 0.18013 0.21995 0.28038 0.0
C4 C 0.18814 0.19229 0.2934 0.0
C5 C 0.21474 0.17755 0.27701 0.0
H6 H 0.30637 0.17238 0.15214 0.0
C7 C 0.19878 0.22424 0.25242 0.0
C8 C 0.21938 0.19965 0.25046 0.0
H9 H 0.31378 0.11861 0.23534 0.0
H10 H 0.27055 0.1453 0.25651 0.0
H11 H 0.29999 0.23621 0.18907 0.0
H12 H 0.23389 0.17561 0.14775 0.0
H13 H 0.2214 0.21317 0.14081 0.0
H14 H 0.25764 0.20059 0.12528 0.0
H15 H 0.29649 0.23146 0.14838 0.0
H16 H 0.27335 0.25869 0.16894 0.0
C17 C 0.24272 0.1771 0.29898 0.0
C18 C 0.20474 0.14547 0.26579 0.0
C19 C 0.17378 0.3115 0.17954 0.0
C20 C 0.18305 0.31853 0.1494 0.0
C21 C 0.20511 0.29953 0.13525 0.0
C22 C 0.21764 0.27433 0.15073 0.0
C23 C 0.20786 0.2676 0.18065 0.0
C24 C 0.18598 0.28584 0.19437 0.0
C25 C 0.17647 0.27387 0.22527 0.0
C26 C 0.19695 0.24593 0.22823 0.0
C27 C 0.2155 0.24255 0.20215 0.0
C28 C 0.18413 0.29846 0.24969 0.0
C29 C 0.14204 0.26517 0.22339 0.0
C30 C 0.29934 0.16643 0.17514 0.0
C31 C 0.31395 0.14281 0.19169 0.0
C32 C 0.3029 0.13594 0.22139 0.0
C33 C 0.27794 0.15181 0.23401 0.0
C34 C 0.26402 0.17537 0.2172 0.0
C35 C 0.27513 0.1827 0.18851 0.0
C36 C 0.25912 0.21003 0.17496 0.0
C37 C 0.23687 0.21809 0.20046 0.0
C38 C 0.23929 0.19721 0.2248 0.0
C39 C 0.28333 0.23552 0.16978 0.0
C40 C 0.24223 0.1996 0.14552 0.0
H41 H 0.15142 0.26044 0.28618 0.0
H42 H 0.17854 0.15824 0.32754 0.0
H43 H 0.1824 0.14684 0.25358 0.0
H44 H 0.22121 0.13525 0.24958 0.0
H45 H 0.20199 0.12946 0.28537 0.0
H46 H 0.24008 0.19366 0.31815 0.0
H47 H 0.24599 0.15409 0.30931 0.0
H48 H 0.2642 0.18412 0.28733 0.0
H49 H 0.15719 0.32548 0.1915 0.0
H50 H 0.21229 0.3036 0.11188 0.0
H51 H 0.23416 0.26079 0.13859 0.0
H52 H 0.20511 0.31151 0.24328 0.0
H53 H 0.16509 0.31514 0.25219 0.0
H54 H 0.18943 0.28844 0.27232 0.0
H55 H 0.13668 0.25431 0.20096 0.0
H56 H 0.13494 0.24817 0.24063 0.0
H57 H 0.12729 0.28576 0.22568 0.0
H58 H 0.12525 0.24186 0.33082 0.0
C59 C 0.15774 0.2382 0.29445 0.0
C60 C 0.22351 0.86963 0.6746 0.0
C61 C 0.21073 0.89461 0.69027 0.0
C62 C 0.22392 0.90422 0.71808 0.0
C63 C 0.26304 0.86497 0.71348 0.0
C64 C 0.24933 0.85498 0.68674 0.0
C65 C 0.26508 0.8274 0.67348 0.0
H66 H 0.38502 0.72963 0.67463 0.0
C67 C 0.28994 0.84519 0.7194 0.0
C68 C 0.29096 0.82285 0.69628 0.0
H69 H 0.30702 0.73039 0.61328 0.0
H70 H 0.2851 0.77236 0.64122 0.0
H71 H 0.39261 0.80389 0.68174 0.0
H72 H 0.34547 0.73526 0.73469 0.0
H73 H 0.35832 0.76295 0.76085 0.0
H74 H 0.38593 0.74152 0.73867 0.0
H75 H 0.41168 0.77391 0.70244 0.0
H76 H 0.40134 0.80923 0.72079 0.0
C77 C 0.27722 0.83612 0.6413 0.0
C78 C 0.24213 0.8002 0.67369 0.0
C79 C 0.36344 0.87126 0.80612 0.0
C80 C 0.39062 0.85754 0.8169 0.0
C81 C 0.40059 0.83012 0.80294 0.0
C82 C 0.38463 0.81734 0.77819 0.0
C83 C 0.35814 0.83185 0.76718 0.0
C84 C 0.34756 0.85796 0.78155 0.0
C85 C 0.31817 0.86942 0.76758 0.0
C86 C 0.31333 0.84629 0.74203 0.0
C87 C 0.33704 0.82455 0.74169 0.0
C88 C 0.32403 0.90204 0.75496 0.0
C89 C 0.29254 0.86759 0.79215 0.0
C90 C 0.36305 0.73851 0.66732 0.0
C91 C 0.34815 0.72675 0.64117 0.0
C92 C 0.31958 0.73936 0.63268 0.0
C93 C 0.30667 0.76368 0.64913 0.0
C94 C 0.32223 0.77562 0.67463 0.0
C95 C 0.34962 0.76266 0.68372 0.0
C96 C 0.3622 0.77755 0.7122 0.0
C97 C 0.33805 0.80188 0.71833 0.0
C98 C 0.31494 0.80086 0.69598 0.0
C99 C 0.39371 0.79184 0.70416 0.0
C100 C 0.36333 0.75319 0.73802 0.0
H101 H 0.25944 0.89823 0.75074 0.0
H102 H 0.21341 0.8615 0.65343 0.0
H103 H 0.22455 0.80289 0.69198 0.0
H104 H 0.25335 0.7781 0.67891 0.0
H105 H 0.22981 0.79831 0.65151 0.0
H106 H 0.28805 0.85921 0.64174 0.0
H107 H 0.25826 0.83671 0.62433 0.0
H108 H 0.29514 0.82051 0.63279 0.0
H109 H 0.35496 0.89231 0.81605 0.0
H110 H 0.42084 0.81839 0.81114 0.0
H111 H 0.39368 0.79671 0.76844 0.0
H112 H 0.34627 0.90299 0.74249 0.0
H113 H 0.325 0.91905 0.77385 0.0
H114 H 0.30658 0.90952 0.73832 0.0
H115 H 0.29716 0.84909 0.80905 0.0
H116 H 0.26994 0.86166 0.78228 0.0
H117 H 0.29059 0.88942 0.80505 0.0
H118 H 0.2143 0.92342 0.73047 0.0
C119 C 0.25012 0.88962 0.7297 0.0
C120 C 0.69028 0.22245 0.87247 0.0
C121 C 0.666 0.20423 0.8616 0.0
C122 C 0.65091 0.21264 0.83437 0.0
C123 C 0.68459 0.25633 0.82869 0.0
C124 C 0.69944 0.24815 0.85544 0.0
C125 C 0.72579 0.26935 0.86258 0.0
H126 H 0.81327 0.39095 0.82094 0.0
C127 C 0.70028 0.28333 0.81576 0.0
C128 C 0.72481 0.29083 0.83518 0.0
H129 H 0.81763 0.33877 0.90513 0.0
H130 H 0.77728 0.3057 0.88705 0.0
H131 H 0.73854 0.39444 0.82141 0.0
H132 H 0.80376 0.33684 0.77508 0.0
H133 H 0.77283 0.34157 0.74977 0.0
H134 H 0.79502 0.37457 0.76143 0.0
H135 H 0.76502 0.40807 0.79297 0.0
H136 H 0.72848 0.39236 0.78245 0.0
C137 C 0.71849 0.28617 0.89296 0.0
C138 C 0.75565 0.25025 0.86328 0.0
C139 C 0.657 0.336 0.72146 0.0
C140 C 0.66764 0.36027 0.70297 0.0
C141 C 0.6972 0.37231 0.70879 0.0
C142 C 0.71469 0.36199 0.7336 0.0
C143 C 0.70287 0.33906 0.75278 0.0
C144 C 0.67512 0.32553 0.74579 0.0
C145 C 0.6678 0.29923 0.76685 0.0
C146 C 0.6947 0.3008 0.78893 0.0
C147 C 0.71484 0.32453 0.78085 0.0
C148 C 0.637 0.30603 0.78311 0.0
C149 C 0.66785 0.26925 0.74772 0.0
C150 C 0.80552 0.37255 0.83566 0.0
C151 C 0.81888 0.36768 0.86458 0.0
C152 C 0.80827 0.34293 0.88255 0.0
C153 C 0.7845 0.32388 0.87217 0.0
C154 C 0.77085 0.32971 0.84363 0.0
C155 C 0.78142 0.35374 0.82593 0.0
C156 C 0.76312 0.35776 0.79705 0.0
C157 C 0.73976 0.33217 0.80033 0.0
C158 C 0.74452 0.31565 0.82754 0.0
C159 C 0.74801 0.38983 0.7982 0.0
C160 C 0.78466 0.35267 0.76926 0.0
H161 H 0.64742 0.2439 0.79756 0.0
H162 H 0.7023 0.21638 0.89331 0.0
H163 H 0.75589 0.23336 0.84421 0.0
H164 H 0.7765 0.26424 0.86011 0.0
H165 H 0.75769 0.23736 0.88512 0.0
H166 H 0.69337 0.28971 0.89572 0.0
H167 H 0.72659 0.27283 0.91305 0.0
H168 H 0.72841 0.30944 0.89389 0.0
H169 H 0.63471 0.32574 0.71778 0.0
H170 H 0.70691 0.38994 0.69431 0.0
H171 H 0.73666 0.37251 0.73708 0.0
H172 H 0.63654 0.33006 0.79154 0.0
H173 H 0.61739 0.30293 0.76717 0.0
H174 H 0.63307 0.29148 0.8034 0.0
H175 H 0.68054 0.27197 0.72577 0.0
H176 H 0.67975 0.25029 0.75964 0.0
H177 H 0.64416 0.26188 0.74192 0.0
H178 H 0.63188 0.19912 0.82584 0.0
C179 C 0.65996 0.23862 0.81796 0.0
C180 C 0.86392 0.81282 0.36339 0.0
C181 C 0.85257 0.82309 0.39192 0.0
C182 C 0.8292 0.80567 0.4062 0.0
C183 C 0.82858 0.76976 0.36399 0.0
C184 C 0.85213 0.78589 0.35032 0.0
C185 C 0.8636 0.77024 0.32178 0.0
H186 H 0.86181 0.64571 0.22953 0.0
C187 C 0.82187 0.7426 0.34497 0.0
C188 C 0.84272 0.7423 0.32053 0.0
H189 H 0.91853 0.72698 0.2221 0.0
H190 H 0.89253 0.74923 0.26501 0.0
H191 H 0.85788 0.63983 0.30312 0.0
H192 H 0.79956 0.68654 0.23843 0.0
H193 H 0.77602 0.66981 0.26643 0.0
H194 H 0.79922 0.64564 0.24225 0.0
H195 H 0.83502 0.61996 0.27523 0.0
H196 H 0.81914 0.6315 0.31148 0.0
C197 C 0.89757 0.76136 0.32714 0.0
C198 C 0.85832 0.79193 0.29421 0.0
C199 C 0.72893 0.6774 0.36966 0.0
C200 C 0.71617 0.65104 0.35642 0.0
C201 C 0.73209 0.63626 0.33255 0.0
C202 C 0.75973 0.64851 0.32115 0.0
C203 C 0.77159 0.67567 0.33394 0.0
C204 C 0.75648 0.6892 0.35825 0.0
C205 C 0.77285 0.71705 0.37008 0.0
C206 C 0.79919 0.71939 0.3475 0.0
C207 C 0.79852 0.69509 0.32641 0.0
C208 C 0.78416 0.71021 0.40311 0.0
C209 C 0.75082 0.74472 0.36764 0.0
C210 C 0.86863 0.66839 0.23683 0.0
C211 C 0.89318 0.684 0.22255 0.0
C212 C 0.90075 0.71365 0.23313 0.0
C213 C 0.8854 0.72677 0.25805 0.0
C214 C 0.8618 0.71044 0.2726 0.0
C215 C 0.85311 0.68215 0.26141 0.0
C216 C 0.82566 0.66944 0.27821 0.0
C217 C 0.82056 0.69396 0.30238 0.0
C218 C 0.84208 0.71777 0.29913 0.0
C219 C 0.83464 0.63842 0.29272 0.0
C220 C 0.79862 0.66746 0.2553 0.0
H221 H 0.79919 0.76765 0.40436 0.0
H222 H 0.88172 0.82517 0.35132 0.0
H223 H 0.83721 0.80583 0.29748 0.0
H224 H 0.8545 0.77946 0.27252 0.0
H225 H 0.87784 0.80804 0.2913 0.0
H226 H 0.90104 0.7531 0.351 0.0
H227 H 0.91296 0.78135 0.32358 0.0
H228 H 0.90538 0.74238 0.31248 0.0
H229 H 0.71757 0.68871 0.38861 0.0
H230 H 0.72275 0.61571 0.32224 0.0
H231 H 0.7707 0.63652 0.30271 0.0
H232 H 0.78532 0.6852 0.4078 0.0
H233 H 0.76864 0.7204 0.42051 0.0
H234 H 0.80783 0.71857 0.4071 0.0
H235 H 0.73933 0.745 0.34489 0.0
H236 H 0.76257 0.76699 0.36974 0.0
H237 H 0.7327 0.74353 0.3855 0.0
H238 H 0.82053 0.81167 0.42861 0.0
C239 C 0.81701 0.7795 0.3923 0.0
C240 C 0.93192 0.82792 0.96669 0.0
C241 C 0.95876 0.81142 0.95963 0.0
C242 C 0.98097 0.82538 0.94057 0.0
C243 C 0.94833 0.86958 0.9336 0.0
C244 C 0.9274 0.85696 0.95374 0.0
C245 C 0.90044 0.87774 0.95912 0.0
H246 H 0.82098 0.00486 0.92028 0.0
C247 C 0.93615 0.89923 0.9229 0.0
C248 C 0.90838 0.9045 0.93827 0.0
H249 H 0.79828 0.93686 0.98868 0.0
H250 H 0.84604 0.91097 0.97928 0.0
H251 H 0.84906 0.95643 0.87008 0.0
H252 H 0.89014 0.01297 0.93966 0.0
H253 H 0.91647 0.0115 0.90926 0.0
H254 H 0.87913 0.02838 0.90321 0.0
H255 H 0.84915 0.99753 0.86898 0.0
H256 H 0.88073 0.97577 0.85413 0.0
C257 C 0.87112 0.86076 0.94842 0.0
C258 C 0.90023 0.88716 0.99337 0.0
C259 C 0.98706 0.95363 0.83326 0.0
C260 C 0.98022 0.98091 0.81776 0.0
C261 C 0.95635 0.9997 0.82848 0.0
C262 C 0.93856 0.9908 0.85369 0.0
C263 C 0.94474 0.96281 0.8683 0.0
C264 C 0.96927 0.94522 0.85869 0.0
C265 C 0.9734 0.91706 0.87811 0.0
C266 C 0.94642 0.91997 0.90001 0.0
C267 C 0.92946 0.94657 0.8938 0.0
C268 C 0.97036 0.88867 0.85709 0.0
C269 C 0.00464 0.91948 0.89495 0.0
C270 C 0.82635 0.98436 0.93317 0.0
C271 C 0.80579 0.97288 0.9552 0.0
C272 C 0.81384 0.9464 0.97182 0.0
C273 C 0.84152 0.93122 0.96617 0.0
C274 C 0.86148 0.9425 0.94358 0.0
C275 C 0.85404 0.96894 0.92787 0.0
C276 C 0.87841 0.97781 0.9051 0.0
C277 C 0.90152 0.95216 0.90959 0.0
C278 C 0.89122 0.93136 0.93188 0.0
C279 C 0.86378 0.97709 0.87279 0.0
C280 C 0.89172 0.00938 0.91448 0.0
H281 H 0.99336 0.86318 0.91279 0.0
H282 H 0.91436 0.81825 0.98132 0.0
H283 H 0.92373 0.88671 0.00329 0.0
H284 H 0.89236 0.91098 0.99684 0.0
H285 H 0.88572 0.87145 0.0072 0.0
H286 H 0.87532 0.84875 0.92635 0.0
H287 H 0.8639 0.84334 0.96551 0.0
H288 H 0.85165 0.8762 0.94402 0.0
H289 H 0.00555 0.93905 0.82547 0.0
H290 H 0.95086 0.0208 0.81666 0.0
H291 H 0.9203 0.00576 0.86044 0.0
H292 H 0.94991 0.89088 0.84202 0.0
H293 H 0.99087 0.88623 0.8422 0.0
H294 H 0.96725 0.86711 0.86982 0.0
H295 H 0.01262 0.94363 0.89673 0.0
H296 H 0.00323 0.91142 0.91896 0.0
H297 H 0.02277 0.90642 0.88278 0.0
H298 H 0.00243 0.81401 0.93556 0.0
C299 C 0.97584 0.85417 0.92748 0.0
C300 C 0.72353 0.08573 0.4554 0.0
C301 C 0.7351 0.05984 0.44033 0.0
C302 C 0.72305 0.05157 0.4116 0.0
C303 C 0.68732 0.0942 0.41408 0.0
C304 C 0.7 0.10265 0.44184 0.0
C305 C 0.68625 0.13156 0.45438 0.0
H306 H 0.58459 0.24726 0.44012 0.0
C307 C 0.66287 0.11654 0.40671 0.0
C308 C 0.66239 0.13859 0.43017 0.0
H309 H 0.65372 0.23539 0.51006 0.0
H310 H 0.66953 0.18781 0.48666 0.0
H311 H 0.5619 0.17766 0.43919 0.0
H312 H 0.62672 0.22741 0.38395 0.0
H313 H 0.60445 0.20475 0.3592 0.0
H314 H 0.58608 0.23367 0.38213 0.0
H315 H 0.54987 0.20329 0.40945 0.0
H316 H 0.55809 0.1635 0.40178 0.0
C317 C 0.67133 0.12411 0.48571 0.0
C318 C 0.71175 0.15637 0.4557 0.0
C319 C 0.59693 0.10272 0.31146 0.0
C320 C 0.57176 0.11906 0.29952 0.0
C321 C 0.5609 0.14479 0.31572 0.0
C322 C 0.57497 0.15428 0.34296 0.0
C323 C 0.60023 0.1379 0.35436 0.0
C324 C 0.61061 0.11239 0.33885 0.0
C325 C 0.63736 0.09747 0.35477 0.0
C326 C 0.64135 0.11834 0.38232 0.0
C327 C 0.61966 0.14209 0.38178 0.0
C328 C 0.62756 0.06473 0.36423 0.0
C329 C 0.66547 0.09869 0.3331 0.0
C330 C 0.60286 0.23422 0.45067 0.0
C331 C 0.61786 0.24505 0.47707 0.0
C332 C 0.64196 0.22765 0.48962 0.0
C333 C 0.65107 0.20002 0.476 0.0
C334 C 0.63608 0.18973 0.44938 0.0
C335 C 0.61235 0.20675 0.43724 0.0
C336 C 0.59942 0.19271 0.40856 0.0
C337 C 0.61967 0.1647 0.40514 0.0
C338 C 0.64096 0.16299 0.42917 0.0
C339 C 0.5655 0.18395 0.41475 0.0
C340 C 0.60411 0.21573 0.38194 0.0
H341 H 0.69052 0.06103 0.37665 0.0
H342 H 0.73297 0.09293 0.4772 0.0
H343 H 0.72968 0.15231 0.43803 0.0
H344 H 0.70306 0.17958 0.45061 0.0
H345 H 0.72329 0.15655 0.47837 0.0
H346 H 0.65893 0.10184 0.48471 0.0
H347 H 0.68897 0.1224 0.50398 0.0
H348 H 0.65397 0.14107 0.49273 0.0
H349 H 0.60623 0.0831 0.29952 0.0
H350 H 0.5413 0.15753 0.30744 0.0
H351 H 0.56564 0.17408 0.35406 0.0
H352 H 0.60365 0.06467 0.37315 0.0
H353 H 0.62843 0.04888 0.34435 0.0
H354 H 0.64164 0.05519 0.38288 0.0
H355 H 0.66541 0.12009 0.31926 0.0
H356 H 0.6875 0.09915 0.34556 0.0
H357 H 0.66541 0.07905 0.31694 0.0
H358 H 0.73194 0.03178 0.3996 0.0
C359 C 0.69903 0.06853 0.39845 0.0
C360 C 0.48475 0.59851 0.20347 0.0
C361 C 0.47613 0.57511 0.22385 0.0
C362 C 0.45131 0.55585 0.216 0.0
C363 C 0.44249 0.58515 0.16977 0.0
C364 C 0.46763 0.60314 0.17675 0.0
C365 C 0.4723 0.62847 0.15392 0.0
H366 H 0.4158 0.71454 0.03901 0.0
C367 C 0.42799 0.59776 0.14193 0.0
C368 C 0.44553 0.62298 0.13236 0.0
H369 H 0.49947 0.72739 0.09044 0.0
H370 H 0.49209 0.67884 0.11549 0.0
H371 H 0.3756 0.69064 0.09394 0.0
H372 H 0.42682 0.64105 0.02591 0.0
H373 H 0.39357 0.61954 0.03329 0.0
H374 H 0.39017 0.65768 0.01759 0.0
H375 H 0.36486 0.68926 0.05427 0.0
H376 H 0.35255 0.6603 0.08086 0.0
C377 C 0.46945 0.65933 0.17127 0.0
C378 C 0.5036 0.62344 0.13781 0.0
C379 C 0.32571 0.55513 0.10548 0.0
C380 C 0.30562 0.56378 0.08183 0.0
C381 C 0.31437 0.58775 0.06194 0.0
C382 C 0.34225 0.60318 0.06585 0.0
C383 C 0.3616 0.59491 0.09012 0.0
C384 C 0.35349 0.57092 0.10913 0.0
C385 C 0.37699 0.56544 0.13373 0.0
C386 C 0.40043 0.59014 0.12633 0.0
C387 C 0.39109 0.60754 0.10096 0.0
C388 C 0.36129 0.5708 0.16515 0.0
C389 C 0.39034 0.53289 0.12933 0.0
C390 C 0.4327 0.70649 0.0553 0.0
C391 C 0.45796 0.72486 0.06322 0.0
C392 C 0.47958 0.71375 0.08443 0.0
C393 C 0.47519 0.68562 0.09902 0.0
C394 C 0.44867 0.66854 0.09271 0.0
C395 C 0.42846 0.67843 0.07043 0.0
C396 C 0.40164 0.65696 0.06686 0.0
C397 C 0.40873 0.63319 0.09132 0.0
C398 C 0.4361 0.64041 0.1066 0.0
C399 C 0.37196 0.67504 0.07413 0.0
C400 C 0.40278 0.64313 0.0342 0.0
H401 H 0.4156 0.54562 0.18475 0.0
H402 H 0.50391 0.61346 0.20859 0.0
H403 H 0.50955 0.59869 0.13677 0.0
H404 H 0.50343 0.63098 0.11362 0.0
H405 H 0.52241 0.63534 0.15016 0.0
H406 H 0.45093 0.65814 0.18878 0.0
H407 H 0.49114 0.66512 0.18329 0.0
H408 H 0.46303 0.67869 0.15644 0.0
H409 H 0.31986 0.53665 0.12097 0.0
H410 H 0.29922 0.59529 0.04381 0.0
H411 H 0.34731 0.62143 0.0502 0.0
H412 H 0.34459 0.58999 0.16379 0.0
H413 H 0.34856 0.55009 0.17272 0.0
H414 H 0.37745 0.57763 0.18333 0.0
H415 H 0.39181 0.52693 0.1046 0.0
H416 H 0.41408 0.53079 0.13791 0.0
H417 H 0.37571 0.51537 0.14064 0.0
H418 H 0.44387 0.53784 0.23136 0.0
C419 C 0.43461 0.56063 0.18904 0.0
C420 C 0.06445 0.32286 0.57065 0.0
C421 C 0.07939 0.31012 0.54516 0.0
C422 C 0.10808 0.32184 0.53613 0.0
C423 C 0.10649 0.3586 0.57784 0.0
C424 C 0.07849 0.34672 0.58679 0.0
C425 C 0.0667 0.3612 0.61574 0.0
H426 H 0.09088 0.45694 0.73513 0.0
C427 C 0.11513 0.38264 0.60012 0.0
C428 C 0.09203 0.38406 0.62253 0.0
H429 H 0.01345 0.39688 0.72029 0.0
H430 H 0.03426 0.38187 0.67113 0.0
H431 H 0.09218 0.4834 0.66657 0.0
H432 H 0.14293 0.41149 0.71085 0.0
H433 H 0.16888 0.43336 0.68902 0.0
H434 H 0.14806 0.45131 0.71976 0.0
H435 H 0.12335 0.49141 0.69215 0.0
H436 H 0.12958 0.48489 0.65178 0.0
C437 C 0.03595 0.37729 0.60844 0.0
C438 C 0.06446 0.33595 0.64061 0.0
C439 C 0.21415 0.44238 0.58553 0.0
C440 C 0.22885 0.46538 0.60273 0.0
C441 C 0.21455 0.47617 0.62961 0.0
C442 C 0.18641 0.46398 0.63939 0.0
C443 C 0.17233 0.44064 0.62219 0.0
C444 C 0.18615 0.43037 0.59565 0.0
C445 C 0.16815 0.40518 0.58047 0.0
C446 C 0.14096 0.40238 0.602 0.0
C447 C 0.14361 0.42307 0.62647 0.0
C448 C 0.15836 0.41642 0.5483 0.0
C449 C 0.1881 0.3758 0.58028 0.0
C450 C 0.07851 0.44042 0.72133 0.0
C451 C 0.05075 0.42767 0.73173 0.0
C452 C 0.0349 0.40692 0.71276 0.0
C453 C 0.04714 0.39812 0.68434 0.0
C454 C 0.07549 0.41028 0.67475 0.0
C455 C 0.09033 0.43154 0.6929 0.0
C456 C 0.11974 0.44275 0.67876 0.0
C457 C 0.12068 0.42394 0.64957 0.0
C458 C 0.09483 0.40482 0.64742 0.0
C459 C 0.11636 0.47745 0.67207 0.0
C460 C 0.14645 0.43459 0.70066 0.0
H461 H 0.14343 0.35428 0.54417 0.0
H462 H 0.04268 0.31374 0.57847 0.0
H463 H 0.08347 0.31915 0.6382 0.0
H464 H 0.06679 0.34489 0.66412 0.0
H465 H 0.04251 0.32314 0.63876 0.0
H466 H 0.03658 0.38787 0.58526 0.0
H467 H 0.01656 0.36076 0.60888 0.0
H468 H 0.03087 0.39639 0.62421 0.0
H469 H 0.2242 0.4338 0.56454 0.0
H470 H 0.22545 0.49359 0.64352 0.0
H471 H 0.1769 0.47294 0.66019 0.0
H472 H 0.15046 0.44061 0.5493 0.0
H473 H 0.17785 0.4153 0.53194 0.0
H474 H 0.13891 0.40338 0.53874 0.0
H475 H 0.20436 0.37549 0.59991 0.0
H476 H 0.17437 0.35467 0.58306 0.0
H477 H 0.20187 0.37413 0.55894 0.0
H478 H 0.11996 0.31214 0.51662 0.0
C479 C 0.1216 0.34622 0.55217 0.0
Zn480 Zn 0.96635 0.07069 0.56897 0.0
Zn481 Zn 0.04052 0.00421 0.49845 0.0
Zn482 Zn 0.002 0.03663 0.5347 0.0
C483 C 0.04767 0.065 0.48174 0.0
C484 C 0.9798 0.98197 0.48969 0.0
O485 O 0.01361 0.02827 0.58378 0.0
O486 O 0.98501 0.06176 0.60903 0.0
C487 C 0.99618 0.11086 0.53063 0.0
O488 O 0.02752 0.06779 0.50323 0.0
O489 O 0.05779 0.03892 0.47451 0.0
O490 O 0.00716 0.97785 0.48098 0.0
O491 O 0.97349 0.00345 0.50898 0.0
O492 O 0.97468 0.11074 0.54993 0.0
O493 O 0.00953 0.08567 0.52293 0.0
O494 O 0.95344 0.02469 0.52425 0.0
O495 O 0.92705 0.05106 0.55864 0.0
C496 C 0.92767 0.03261 0.53645 0.0
O497 O 0.03347 0.01038 0.56506 0.0
O498 O 0.06551 0.98793 0.53271 0.0
C499 C 0.00498 0.04093 0.60906 0.0
C500 C 0.05708 0.99333 0.55985 0.0
Zn501 Zn 0.48707 0.04723 0.99786 0.0
Zn502 Zn 0.5592 0.97772 0.06911 0.0
Zn503 Zn 0.52531 0.00983 0.03118 0.0
C504 C 0.59886 0.00478 0.02637 0.0
C505 C 0.518 0.93731 0.04067 0.0
O506 O 0.49467 0.03706 0.06151 0.0
O507 O 0.46351 0.06484 0.03264 0.0
C508 C 0.54907 0.06057 0.98319 0.0
O509 O 0.57358 0.01708 0.01731 0.0
O510 O 0.5988 0.98588 0.04827 0.0
O511 O 0.53721 0.93882 0.06224 0.0
O512 O 0.51171 0.96126 0.02465 0.0
O513 O 0.52215 0.07062 0.97961 0.0
O514 O 0.55439 0.03733 1.00054 0.0
O515 O 0.49834 0.97968 0.00136 0.0
O516 O 0.46986 0.01169 0.97399 0.0
C517 C 0.4788 0.98477 0.97982 0.0
O518 O 0.51912 0.0262 0.07938 0.0
O519 O 0.55122 0.99924 0.10775 0.0
C520 C 0.47205 0.05592 0.05878 0.0
C521 C 0.53163 0.02031 0.10554 0.0
Zn522 Zn 0.53974 0.5519 0.54327 0.0
Zn523 Zn 0.47547 0.47529 0.47414 0.0
Zn524 Zn 0.50549 0.51441 0.50766 0.0
C525 C 0.51992 0.44132 0.50256 0.0
C526 C 0.50126 0.51688 0.43381 0.0
O527 O 0.47299 0.54404 0.53272 0.0
O528 O 0.50374 0.57581 0.55794 0.0
C529 C 0.55106 0.49241 0.56295 0.0
O530 O 0.52419 0.46751 0.51562 0.0
O531 O 0.49946 0.43828 0.4824 0.0
O532 O 0.48222 0.49508 0.43403 0.0
O533 O 0.51313 0.52656 0.45905 0.0
O534 O 0.55707 0.51975 0.57022 0.0
O535 O 0.53389 0.48666 0.53955 0.0
O536 O 0.53324 0.54387 0.47717 0.0
O537 O 0.56466 0.56863 0.50855 0.0
C538 C 0.55588 0.5623 0.48172 0.0
O539 O 0.45617 0.51836 0.52125 0.0
O540 O 0.4361 0.47936 0.49587 0.0
C541 C 0.47709 0.56755 0.55016 0.0
C542 C 0.43323 0.50062 0.51523 0.0
Zn543 Zn 0.05864 0.55259 0.97222 0.0
Zn544 Zn 0.98847 0.49167 0.04582 0.0
Zn545 Zn 0.02392 0.52621 0.00841 0.0
C546 C 0.04977 0.4731 0.05396 0.0
C547 C 0.96897 0.4805 0.98628 0.0
O548 O 0.01152 0.57554 0.01276 0.0
O549 O 0.03485 0.59092 0.97069 0.0
C550 C 0.09751 0.53316 0.01574 0.0
O551 O 0.05451 0.49573 0.0355 0.0
O552 O 0.02276 0.46634 0.06205 0.0
O553 O 0.9621 0.47352 0.01348 0.0
O554 O 0.99153 0.49877 0.98053 0.0
O555 O 0.09755 0.55272 0.99452 0.0
O556 O 0.07252 0.51885 0.02264 0.0
O557 O 0.01427 0.50986 0.96061 0.0
O558 O 0.05638 0.52494 0.93688 0.0
C559 C 0.03176 0.50982 0.93676 0.0
O560 O 0.99962 0.55875 0.03841 0.0
O561 O 0.97381 0.52791 0.0696 0.0
C562 C 0.01682 0.59651 0.99262 0.0
C563 C 0.98198 0.55457 0.06178 0.0
H564 H 0.16553 0.15608 0.37741 0.0
H565 H 0.08763 0.20913 0.34512 0.0
H566 H 0.05547 0.18608 0.38504 0.0
H567 H 0.12326 0.08835 0.38638 0.0
H568 H 0.14425 0.07532 0.41945 0.0
H569 H 0.16259 0.09989 0.39189 0.0
H570 H 0.17603 0.13777 0.43508 0.0
H571 H 0.15683 0.11426 0.46312 0.0
H572 H 0.14602 0.15379 0.45838 0.0
H573 H 0.02999 0.15369 0.4251 0.0
H574 H 0.01298 0.11182 0.45934 0.0
H575 H 0.10602 0.07739 0.46311 0.0
C576 C 0.14179 0.1631 0.37858 0.0
C577 C 0.12958 0.18501 0.35801 0.0
C578 C 0.09821 0.19331 0.36096 0.0
C579 C 0.07951 0.18014 0.38356 0.0
C580 C 0.09223 0.15834 0.40299 0.0
C581 C 0.12258 0.14968 0.40055 0.0
C582 C 0.12978 0.12331 0.4219 0.0
C583 C 0.14059 0.09505 0.40382 0.0
C584 C 0.15355 0.13285 0.44607 0.0
C585 C 0.09853 0.11804 0.43616 0.0
C586 C 0.0773 0.13889 0.42541 0.0
C587 C 0.04651 0.13752 0.43401 0.0
C588 C 0.03707 0.11383 0.4536 0.0
C589 C 0.05833 0.0919 0.46429 0.0
C590 C 0.08944 0.09423 0.4556 0.0
H591 H 0.37007 0.89044 0.86719 0.0
H592 H 0.45337 0.85882 0.82261 0.0
H593 H 0.48422 0.88381 0.86252 0.0
H594 H 0.39867 0.96436 0.88493 0.0
H595 H 0.37907 0.96719 0.92118 0.0
H596 H 0.36319 0.94398 0.89103 0.0
H597 H 0.36241 0.89709 0.92743 0.0
H598 H 0.37842 0.92018 0.95768 0.0
H599 H 0.39734 0.88539 0.94613 0.0
H600 H 0.50646 0.91471 0.90503 0.0
H601 H 0.51848 0.95136 0.94649 0.0
H602 H 0.42144 0.96543 0.96236 0.0
C603 C 0.39478 0.88869 0.86572 0.0
C604 C 0.4091 0.87214 0.84174 0.0
C605 C 0.44161 0.87049 0.84104 0.0
C606 C 0.45944 0.88482 0.86356 0.0
C607 C 0.44458 0.90098 0.88666 0.0
C608 C 0.41301 0.90317 0.88786 0.0
C609 C 0.40292 0.92365 0.91405 0.0
C610 C 0.3849 0.95144 0.90207 0.0
C611 C 0.38416 0.90548 0.93772 0.0
C612 C 0.43378 0.93309 0.92697 0.0
C613 C 0.45748 0.91935 0.91105 0.0
C614 C 0.48812 0.92526 0.91793 0.0
C615 C 0.49472 0.94597 0.94152 0.0
C616 C 0.47087 0.96032 0.95806 0.0
C617 C 0.44002 0.95398 0.95056 0.0
H618 H 0.66643 0.42016 0.68318 0.0
H619 H 0.62315 0.33176 0.66749 0.0
H620 H 0.58787 0.35588 0.63064 0.0
H621 H 0.60146 0.46653 0.6776 0.0
H622 H 0.62044 0.49692 0.65703 0.0
H623 H 0.64204 0.4728 0.68251 0.0
H624 H 0.67932 0.45882 0.6384 0.0
H625 H 0.65806 0.48322 0.61285 0.0
H626 H 0.66416 0.44359 0.60314 0.0
H627 H 0.55427 0.39126 0.59855 0.0
H628 H 0.53003 0.43328 0.56935 0.0
H629 H 0.60082 0.49569 0.60058 0.0
C630 C 0.65017 0.40544 0.67164 0.0
C631 C 0.6477 0.37392 0.67874 0.0
C632 C 0.62525 0.35608 0.66328 0.0
C633 C 0.60517 0.36952 0.64204 0.0
C634 C 0.60819 0.40069 0.63597 0.0
C635 C 0.63056 0.41823 0.64989 0.0
C636 C 0.62966 0.45105 0.63896 0.0
C637 C 0.623 0.47311 0.66561 0.0
C638 C 0.65957 0.45967 0.62234 0.0
C639 C 0.60297 0.4494 0.61698 0.0
C640 C 0.59058 0.42029 0.61578 0.0
C641 C 0.5644 0.4139 0.5986 0.0
C642 C 0.55098 0.4378 0.5818 0.0
C643 C 0.56439 0.46734 0.58142 0.0
C644 C 0.59044 0.47316 0.59971 0.0
H645 H 0.87333 0.6424 0.17866 0.0
H646 H 0.95453 0.69174 0.20903 0.0
H647 H 0.98429 0.66826 0.16752 0.0
H648 H 0.91275 0.57273 0.16458 0.0
H649 H 0.88963 0.56235 0.13197 0.0
H650 H 0.87368 0.58589 0.16179 0.0
H651 H 0.85982 0.62729 0.12156 0.0
H652 H 0.87598 0.60391 0.09164 0.0
H653 H 0.88944 0.64257 0.09708 0.0
H654 H 0.00616 0.63798 0.12367 0.0
H655 H 0.01921 0.59927 0.08429 0.0
H656 H 0.92541 0.56636 0.08565 0.0
C657 C 0.89736 0.64834 0.17683 0.0
C658 C 0.91117 0.66957 0.19715 0.0
C659 C 0.94282 0.67649 0.1934 0.0
C660 C 0.96012 0.66306 0.1699 0.0
C661 C 0.94573 0.64234 0.15042 0.0
C662 C 0.91517 0.63469 0.15388 0.0
C663 C 0.90585 0.60988 0.13148 0.0
C664 C 0.89484 0.58101 0.14847 0.0
C665 C 0.88132 0.62163 0.10912 0.0
C666 C 0.93608 0.60443 0.11525 0.0
C667 C 0.95866 0.62384 0.12608 0.0
C668 C 0.98863 0.62277 0.11491 0.0
C669 C 0.99583 0.60086 0.09253 0.0
C670 C 0.9732 0.58025 0.08181 0.0
C671 C 0.94297 0.58219 0.09324 0.0
H672 H 0.35632 0.16301 0.14863 0.0
H673 H 0.33208 0.08303 0.203 0.0
H674 H 0.37509 0.05494 0.18009 0.0
H675 H 0.36876 0.12104 0.08121 0.0
H676 H 0.39942 0.14524 0.06764 0.0
H677 H 0.37021 0.16081 0.09217 0.0
H678 H 0.4121 0.17903 0.13024 0.0
H679 H 0.44144 0.16325 0.10584 0.0
H680 H 0.43907 0.15171 0.1454 0.0
H681 H 0.41969 0.03435 0.1493 0.0
H682 H 0.45648 0.021 0.10821 0.0
H683 H 0.44658 0.1119 0.06969 0.0
C684 C 0.35966 0.13957 0.15585 0.0
C685 C 0.34052 0.12569 0.17817 0.0
C686 C 0.34663 0.09491 0.18682 0.0
C687 C 0.37105 0.07855 0.17376 0.0
C688 C 0.38907 0.09294 0.15168 0.0
C689 C 0.38332 0.12262 0.14245 0.0
C690 C 0.40365 0.13173 0.11582 0.0
C691 C 0.38435 0.14018 0.08755 0.0
C692 C 0.42535 0.15799 0.12488 0.0
C693 C 0.42116 0.10225 0.11094 0.0
C694 C 0.41316 0.08044 0.13247 0.0
C695 C 0.42613 0.05127 0.13235 0.0
C696 C 0.44707 0.04392 0.10905 0.0
C697 C 0.45421 0.06544 0.08587 0.0
C698 C 0.44146 0.09508 0.08719 0.0
H699 H 0.20714 0.92169 0.63435 0.0
H700 H 0.15458 0.90394 0.71669 0.0
H701 H 0.10916 0.92883 0.69313 0.0
H702 H 0.17396 0.99692 0.61906 0.0
H703 H 0.17496 0.99166 0.57813 0.0
H704 H 0.20305 0.9731 0.60198 0.0
H705 H 0.1878 0.92052 0.57899 0.0
H706 H 0.15964 0.93888 0.55515 0.0
H707 H 0.1483 0.90833 0.58053 0.0
H708 H 0.06822 0.95122 0.65782 0.0
H709 H 0.03704 0.97303 0.61563 0.0
H710 H 0.11822 0.98093 0.5594 0.0
C711 C 0.18607 0.92323 0.64741 0.0
C712 C 0.18409 0.91086 0.67716 0.0
C713 C 0.15637 0.91342 0.69383 0.0
C714 C 0.13055 0.92742 0.68062 0.0
C715 C 0.13315 0.93918 0.65101 0.0
C716 C 0.16039 0.93762 0.63483 0.0
C717 C 0.15741 0.95208 0.60352 0.0
C718 C 0.1786 0.98011 0.60051 0.0
C719 C 0.16365 0.92854 0.57805 0.0
C720 C 0.12404 0.96143 0.60422 0.0
C721 C 0.11032 0.95374 0.63171 0.0
C722 C 0.07902 0.95829 0.63665 0.0
C723 C 0.06153 0.97128 0.61295 0.0
C724 C 0.07541 0.98026 0.58514 0.0
C725 C 0.10705 0.97497 0.58076 0.0
H726 H 0.86875 0.35478 0.90139 0.0
H727 H 0.82205 0.42995 0.85595 0.0
H728 H 0.85951 0.46612 0.87751 0.0
H729 H 0.88081 0.39377 0.97046 0.0
H730 H 0.91779 0.37704 0.97807 0.0
H731 H 0.89005 0.3564 0.95561 0.0
H732 H 0.92945 0.35163 0.91136 0.0
H733 H 0.95733 0.37235 0.93374 0.0
H734 H 0.94714 0.3857 0.89604 0.0
H735 H 0.89913 0.4949 0.90733 0.0
H736 H 0.93682 0.51404 0.94525 0.0
H737 H 0.95601 0.42094 0.97331 0.0
C738 C 0.8664 0.3788 0.89579 0.0
C739 C 0.84252 0.38928 0.87656 0.0
C740 C 0.84053 0.42103 0.86987 0.0
C741 C 0.86165 0.44188 0.88215 0.0
C742 C 0.88463 0.43077 0.90124 0.0
C743 C 0.88709 0.4 0.90813 0.0
C744 C 0.91232 0.39433 0.93126 0.0
C745 C 0.89946 0.37952 0.96059 0.0
C746 C 0.93808 0.37485 0.91725 0.0
C747 C 0.92299 0.42682 0.937 0.0
C748 C 0.90713 0.44746 0.91899 0.0
C749 C 0.91203 0.47893 0.92119 0.0
C750 C 0.93346 0.48959 0.94263 0.0
C751 C 0.94961 0.46883 0.96142 0.0
C752 C 0.94433 0.43712 0.95859 0.0
H753 H 0.7011 0.59343 0.37705 0.0
H754 H 0.66377 0.68405 0.36179 0.0
H755 H 0.61517 0.66829 0.38619 0.0
H756 H 0.62664 0.55009 0.36774 0.0
H757 H 0.63635 0.52371 0.39795 0.0
H758 H 0.6662 0.5403 0.37461 0.0
H759 H 0.69329 0.56037 0.42348 0.0
H760 H 0.66353 0.54402 0.44686 0.0
H761 H 0.6723 0.58425 0.44983 0.0
H762 H 0.57414 0.64576 0.41853 0.0
H763 H 0.5431 0.61742 0.45668 0.0
H764 H 0.60581 0.54093 0.45102 0.0
C765 C 0.68227 0.60953 0.37801 0.0
C766 C 0.68598 0.63986 0.36739 0.0
C767 C 0.66126 0.66069 0.36979 0.0
C768 C 0.63355 0.6519 0.38345 0.0
C769 C 0.63083 0.62212 0.39453 0.0
C770 C 0.65441 0.60113 0.39183 0.0
C771 C 0.64663 0.57162 0.40849 0.0
C772 C 0.64378 0.54484 0.38584 0.0
C773 C 0.67034 0.56468 0.43365 0.0
C774 C 0.61567 0.57983 0.42203 0.0
C775 C 0.60677 0.60891 0.41323 0.0
C776 C 0.58043 0.62269 0.42495 0.0
C777 C 0.56297 0.60652 0.44656 0.0
C778 C 0.57175 0.57687 0.45588 0.0
C779 C 0.59821 0.56323 0.4433 0.0
H780 H 0.1242 0.34125 0.15462 0.0
H781 H 0.20978 0.35577 0.10553 0.0
H782 H 0.18551 0.39731 0.07605 0.0
H783 H 0.07335 0.3557 0.09422 0.0
H784 H 0.04576 0.37587 0.11738 0.0
H785 H 0.06987 0.34717 0.13447 0.0
H786 H 0.0892 0.38668 0.17437 0.0
H787 H 0.06501 0.41549 0.15749 0.0
H788 H 0.1056 0.42232 0.1614 0.0
H789 H 0.15005 0.43479 0.04896 0.0
H790 H 0.10795 0.46738 0.02995 0.0
H791 H 0.0487 0.43302 0.102 0.0
C792 C 0.13828 0.35343 0.13823 0.0
C793 C 0.16903 0.34479 0.13248 0.0
C794 C 0.18601 0.36122 0.11006 0.0
C795 C 0.17251 0.38513 0.09333 0.0
C796 C 0.14216 0.39282 0.0996 0.0
C797 C 0.12545 0.37772 0.12185 0.0
C798 C 0.09333 0.3905 0.1245 0.0
C799 C 0.06916 0.36584 0.1172 0.0
C800 C 0.08798 0.40459 0.15633 0.0
C801 C 0.09438 0.41487 0.09991 0.0
C802 C 0.12263 0.41576 0.0856 0.0
C803 C 0.12816 0.43493 0.06065 0.0
C804 C 0.10423 0.45376 0.05026 0.0
C805 C 0.07546 0.454 0.06534 0.0
C806 C 0.07064 0.43407 0.0904 0.0
H807 H 0.64926 0.19898 0.92187 0.0
H808 H 0.65939 0.1471 0.83789 0.0
H809 H 0.63679 0.10174 0.86308 0.0
H810 H 0.66234 0.13322 0.97636 0.0
H811 H 0.63359 0.14711 0.00256 0.0
H812 H 0.6555 0.17378 0.97978 0.0
H813 H 0.60505 0.19677 0.95853 0.0
H814 H 0.58307 0.17014 0.98105 0.0
H815 H 0.57758 0.17192 0.94017 0.0
H816 H 0.60649 0.06516 0.89405 0.0
H817 H 0.57054 0.03925 0.92945 0.0
H818 H 0.57993 0.11385 0.99401 0.0
C819 C 0.64758 0.17772 0.90922 0.0
C820 C 0.6562 0.1763 0.87808 0.0
C821 C 0.65291 0.14849 0.8618 0.0
C822 C 0.64028 0.12262 0.87596 0.0
C823 C 0.63115 0.12492 0.90644 0.0
C824 C 0.63476 0.15168 0.923 0.0
C825 C 0.62002 0.14901 0.95436 0.0
C826 C 0.64432 0.15089 0.97977 0.0
C827 C 0.59494 0.1734 0.95876 0.0
C828 C 0.60644 0.11711 0.95229 0.0
C829 C 0.61363 0.10345 0.92463 0.0
C830 C 0.60144 0.07518 0.91614 0.0
C831 C 0.58113 0.06064 0.93631 0.0
C832 C 0.57364 0.07414 0.9647 0.0
C833 C 0.58643 0.10265 0.97285 0.0
H834 H 0.91085 0.84874 0.38591 0.0
H835 H 0.82388 0.86198 0.43312 0.0
H836 H 0.84686 0.90364 0.46293 0.0
H837 H 0.96072 0.86477 0.44553 0.0
H838 H 0.98776 0.88653 0.42309 0.0
H839 H 0.96476 0.8574 0.4051 0.0
H840 H 0.94417 0.89705 0.36607 0.0
H841 H 0.96744 0.92627 0.38369 0.0
H842 H 0.92667 0.93182 0.37978 0.0
H843 H 0.8819 0.93807 0.49339 0.0
H844 H 0.92346 0.96982 0.51475 0.0
H845 H 0.98295 0.94351 0.44 0.0
C846 C 0.89611 0.86063 0.40184 0.0
C847 C 0.86554 0.85091 0.40745 0.0
C848 C 0.84771 0.86756 0.42904 0.0
C849 C 0.86042 0.8917 0.44596 0.0
C850 C 0.89072 0.89992 0.44035 0.0
C851 C 0.90802 0.88557 0.41813 0.0
C852 C 0.93979 0.89957 0.41597 0.0
C853 C 0.96471 0.87564 0.42284 0.0
C854 C 0.9448 0.91457 0.38451 0.0
C855 C 0.93788 0.92338 0.44113 0.0
C856 C 0.90952 0.92287 0.45521 0.0
C857 C 0.90359 0.93997 0.48146 0.0
C858 C 0.92705 0.95862 0.49309 0.0
C859 C 0.95544 0.96144 0.47769 0.0
C860 C 0.961 0.94304 0.45161 0.0
H861 H 0.38373 0.67803 0.66067 0.0
H862 H 0.34606 0.71984 0.57861 0.0
H863 H 0.37047 0.68002 0.54718 0.0
H864 H 0.4564 0.66206 0.62856 0.0
H865 H 0.46143 0.62639 0.64869 0.0
H866 H 0.43811 0.6561 0.66512 0.0
H867 H 0.39244 0.61818 0.6691 0.0
H868 H 0.41566 0.58838 0.6525 0.0
H869 H 0.37948 0.59837 0.63527 0.0
H870 H 0.40166 0.6378 0.52405 0.0
H871 H 0.43961 0.59769 0.51108 0.0
H872 H 0.4591 0.58483 0.60747 0.0
C873 C 0.38052 0.67891 0.63611 0.0
C874 C 0.3625 0.70208 0.62232 0.0
C875 C 0.35895 0.70203 0.59 0.0
C876 C 0.3729 0.67954 0.57184 0.0
C877 C 0.39053 0.65721 0.58619 0.0
C878 C 0.39455 0.6568 0.61757 0.0
C879 C 0.41639 0.63156 0.62705 0.0
C880 C 0.44476 0.64483 0.6433 0.0
C881 C 0.4 0.60771 0.64717 0.0
C882 C 0.42457 0.61831 0.59604 0.0
C883 C 0.409 0.63312 0.5728 0.0
C884 C 0.41365 0.62575 0.54207 0.0
C885 C 0.4351 0.60295 0.53491 0.0
C886 C 0.45144 0.58776 0.55836 0.0
C887 C 0.44615 0.59558 0.58926 0.0
H888 H 0.9711 0.95455 0.76258 0.0
H889 H 0.02237 0.02614 0.80811 0.0
H890 H 0.04292 0.04349 0.75801 0.0
H891 H 0.02635 0.94027 0.69775 0.0
H892 H 0.99568 0.93545 0.6705 0.0
H893 H 0.99022 0.92426 0.7099 0.0
H894 H 0.94249 0.95909 0.7141 0.0
H895 H 0.94714 0.96999 0.67473 0.0
H896 H 0.94572 0.99901 0.70405 0.0
H897 H 0.05169 0.05736 0.70289 0.0
H898 H 0.04474 0.06907 0.64778 0.0
H899 H 0.98523 0.99032 0.63849 0.0
C900 C 0.98758 0.97313 0.76191 0.0
C901 C 0.99589 0.98868 0.78891 0.0
C902 C 0.01637 0.01373 0.78749 0.0
C903 C 0.02817 0.02357 0.75922 0.0
C904 C 0.01904 0.00816 0.73272 0.0
C905 C 0.99911 0.98349 0.73387 0.0
C906 C 0.98918 0.97376 0.70212 0.0
C907 C 0.00107 0.94152 0.69462 0.0
C908 C 0.95407 0.97561 0.69856 0.0
C909 C 0.00534 0.99773 0.68298 0.0
C910 C 0.02328 0.01677 0.7009 0.0
C911 C 0.03839 0.04213 0.68855 0.0
C912 C 0.03443 0.04858 0.65729 0.0
C913 C 0.01548 0.02982 0.63895 0.0
C914 C 0.00094 0.0041 0.65192 0.0
H915 H 0.56159 0.06068 0.27831 0.0
H916 H 0.54999 0.15619 0.25352 0.0
H917 H 0.52945 0.14056 0.20326 0.0
H918 H 0.59071 0.03771 0.20865 0.0
H919 H 0.57261 0.00057 0.20864 0.0
H920 H 0.58106 0.01923 0.24431 0.0
H921 H 0.52391 0.01456 0.26021 0.0
H922 H 0.51527 0.99603 0.22434 0.0
H923 H 0.49458 0.02992 0.23554 0.0
H924 H 0.51653 0.11467 0.15317 0.0
H925 H 0.51581 0.08114 0.10754 0.0
H926 H 0.53643 0.00291 0.165 0.0
C927 C 0.55445 0.07837 0.26249 0.0
C928 C 0.55731 0.10969 0.27006 0.0
C929 C 0.54752 0.13202 0.2486 0.0
C930 C 0.53583 0.12337 0.21992 0.0
C931 C 0.53387 0.09228 0.21302 0.0
C932 C 0.54291 0.07014 0.23377 0.0
C933 C 0.5416 0.03849 0.2198 0.0
C934 C 0.57338 0.02312 0.22038 0.0
C935 C 0.51739 0.01858 0.23594 0.0
C936 C 0.53179 0.04637 0.18753 0.0
C937 C 0.5267 0.07741 0.18416 0.0
C938 C 0.51984 0.09025 0.15569 0.0
C939 C 0.51923 0.07101 0.1299 0.0
C940 C 0.52559 0.03938 0.13283 0.0
C941 C 0.53106 0.02695 0.16216 0.0
H942 H 0.49082 0.52252 0.2548 0.0
H943 H 0.49352 0.62151 0.26242 0.0
H944 H 0.51027 0.61694 0.31611 0.0
H945 H 0.45596 0.50993 0.32257 0.0
H946 H 0.47597 0.47518 0.33229 0.0
H947 H 0.47167 0.48594 0.29286 0.0
H948 H 0.53064 0.48371 0.28544 0.0
H949 H 0.53512 0.47276 0.325 0.0
H950 H 0.55524 0.50572 0.31029 0.0
H951 H 0.51675 0.60192 0.37117 0.0
H952 H 0.51185 0.57746 0.42209 0.0
H953 H 0.50489 0.48861 0.37879 0.0
C954 C 0.49566 0.54324 0.26754 0.0
C955 C 0.49099 0.57234 0.25432 0.0
C956 C 0.4975 0.59892 0.2718 0.0
C957 C 0.50698 0.59656 0.3024 0.0
C958 C 0.51015 0.56748 0.31512 0.0
C959 C 0.50496 0.54126 0.29809 0.0
C960 C 0.50604 0.51291 0.31792 0.0
C961 C 0.4756 0.49497 0.31632 0.0
C962 C 0.5334 0.49258 0.30914 0.0
C963 C 0.51073 0.52737 0.34902 0.0
C964 C 0.51387 0.5588 0.34694 0.0
C965 C 0.51531 0.57725 0.37302 0.0
C966 C 0.51282 0.56323 0.40186 0.0
C967 C 0.50887 0.53122 0.40425 0.0
C968 C 0.50845 0.51313 0.37752 0.0
H969 H 0.08327 0.42857 0.78485 0.0
H970 H 0.99231 0.44458 0.74832 0.0
H971 H 0.97474 0.46144 0.79966 0.0
H972 H 0.05868 0.40203 0.86161 0.0
H973 H 0.09062 0.42071 0.88002 0.0
H974 H 0.09451 0.40647 0.84147 0.0
H975 H 0.1114 0.4604 0.82306 0.0
H976 H 0.10769 0.4747 0.86145 0.0
H977 H 0.08701 0.49282 0.83066 0.0
H978 H 0.96965 0.48343 0.85369 0.0
H979 H 0.97791 0.50772 0.90437 0.0
H980 H 0.07117 0.47439 0.90538 0.0
C981 C 0.05954 0.43528 0.78774 0.0
C982 C 0.03915 0.43542 0.7627 0.0
C983 C 0.00823 0.44415 0.76735 0.0
C984 C 0.99808 0.45373 0.79639 0.0
C985 C 0.01904 0.4539 0.82055 0.0
C986 C 0.04907 0.44458 0.81647 0.0
C987 C 0.06776 0.44869 0.8453 0.0
C988 C 0.07852 0.41762 0.85784 0.0
C989 C 0.09505 0.47045 0.83978 0.0
C990 C 0.04397 0.46295 0.86598 0.0
C991 C 0.01584 0.46548 0.8516 0.0
C992 C 0.99128 0.48062 0.8655 0.0
C993 C 0.99589 0.49391 0.8945 0.0
C994 C 0.02463 0.4917 0.90922 0.0
C995 C 0.04869 0.47565 0.89489 0.0
H996 H 0.77734 0.98477 0.00977 0.0
H997 H 0.76522 0.99242 0.91152 0.0
H998 H 0.71185 0.00969 0.91951 0.0
H999 H 0.70788 0.9523 0.02522 0.0
H1000 H 0.70133 0.97173 0.06105 0.0
H1001 H 0.73985 0.96558 0.04782 0.0
H1002 H 0.75078 0.02384 0.05136 0.0
H1003 H 0.71217 0.03018 0.06471 0.0
H1004 H 0.72618 0.05038 0.03151 0.0
H1005 H 0.65753 0.01673 0.93787 0.0
H1006 H 0.60795 0.01413 0.96533 0.0
H1007 H 0.65587 0.00464 0.05142 0.0
C1008 C 0.76364 0.99072 0.98997 0.0
C1009 C 0.7754 0.98733 0.96004 0.0
C1010 C 0.75679 0.99527 0.93468 0.0
C1011 C 0.72644 0.00505 0.939 0.0
C1012 C 0.71522 0.00723 0.96883 0.0
C1013 C 0.73343 0.00065 0.9939 0.0
C1014 C 0.71528 0.002 0.0234 0.0
C1015 C 0.71613 0.97107 0.04034 0.0
C1016 C 0.72679 0.02817 0.04395 0.0
C1017 C 0.68366 0.0088 0.01093 0.0
C1018 C 0.6841 0.01224 0.97945 0.0
C1019 C 0.65707 0.0153 0.96261 0.0
C1020 C 0.62898 0.01435 0.97834 0.0
C1021 C 0.62814 0.01071 0.01047 0.0
C1022 C 0.6559 0.00833 0.02689 0.0
H1023 H 0.79331 0.05031 0.41902 0.0
H1024 H 0.73291 0.03173 0.49554 0.0
H1025 H 0.77649 0.0112 0.52507 0.0
H1026 H 0.84988 0.9833 0.43464 0.0
H1027 H 0.88195 0.00688 0.42352 0.0
H1028 H 0.84524 0.0118 0.40512 0.0
H1029 H 0.84596 0.06939 0.4196 0.0
H1030 H 0.88238 0.06458 0.43808 0.0
H1031 H 0.85049 0.08017 0.45921 0.0
H1032 H 0.82624 0.00422 0.54992 0.0
H1033 H 0.87916 0.01121 0.56858 0.0
H1034 H 0.90911 0.03367 0.47671 0.0
C1035 C 0.78923 0.0405 0.44144 0.0
C1036 C 0.75986 0.04205 0.45498 0.0
C1037 C 0.75527 0.03031 0.48479 0.0
C1038 C 0.77985 0.01848 0.50162 0.0
C1039 C 0.80888 0.0184 0.48823 0.0
C1040 C 0.81372 0.02876 0.45865 0.0
C1041 C 0.84778 0.03057 0.45152 0.0
C1042 C 0.85673 0.00672 0.42725 0.0
C1043 C 0.85718 0.0631 0.44154 0.0
C1044 C 0.86119 0.02227 0.48245 0.0
C1045 C 0.83831 0.01433 0.50297 0.0
C1046 C 0.84444 0.00943 0.53389 0.0
C1047 C 0.8745 0.01358 0.54433 0.0
C1048 C 0.89805 0.02243 0.52391 0.0
C1049 C 0.89153 0.02596 0.49247 0.0
H1050 H 0.27622 0.54817 0.02876 0.0
H1051 H 0.26525 0.54763 0.12748 0.0
H1052 H 0.21153 0.53059 0.12139 0.0
H1053 H 0.2083 0.58243 0.0132 0.0
H1054 H 0.20028 0.56166 0.97844 0.0
H1055 H 0.23924 0.56686 0.99068 0.0
H1056 H 0.24761 0.50808 0.98972 0.0
H1057 H 0.20854 0.5027 0.97732 0.0
H1058 H 0.22222 0.48349 0.01118 0.0
H1059 H 0.15668 0.5215 0.10411 0.0
H1060 H 0.10653 0.52295 0.07721 0.0
H1061 H 0.15386 0.53161 0.99039 0.0
C1062 C 0.26273 0.5439 0.04914 0.0
C1063 C 0.27497 0.5492 0.07857 0.0
C1064 C 0.25655 0.54325 0.10467 0.0
C1065 C 0.22596 0.53361 0.10144 0.0
C1066 C 0.21425 0.52976 0.07197 0.0
C1067 C 0.23224 0.53453 0.04629 0.0
C1068 C 0.21359 0.53259 0.01722 0.0
C1069 C 0.21546 0.56267 0.99884 0.0
C1070 C 0.22359 0.50507 0.99772 0.0
C1071 C 0.182 0.52764 0.03054 0.0
C1072 C 0.18277 0.52521 0.0621 0.0
C1073 C 0.15589 0.52281 0.07938 0.0
C1074 C 0.12755 0.52366 0.064 0.0
C1075 C 0.12656 0.52728 0.03184 0.0
C1076 C 0.15411 0.52861 0.01502 0.0
H1077 H 0.27678 0.43287 0.5787 0.0
H1078 H 0.25 0.5249 0.6048 0.0
H1079 H 0.30058 0.54429 0.58775 0.0
H1080 H 0.35635 0.43846 0.6001 0.0
H1081 H 0.36927 0.41611 0.5679 0.0
H1082 H 0.33169 0.40959 0.58378 0.0
H1083 H 0.30731 0.41876 0.5304 0.0
H1084 H 0.34479 0.42521 0.51435 0.0
H1085 H 0.31539 0.45388 0.51023 0.0
H1086 H 0.35424 0.55361 0.56554 0.0
H1087 H 0.4046 0.55151 0.5394 0.0
H1088 H 0.39457 0.45372 0.52788 0.0
C1089 C 0.28136 0.45716 0.5807 0.0
C1090 C 0.25932 0.47735 0.59304 0.0
C1091 C 0.26662 0.5089 0.59574 0.0
C1092 C 0.29525 0.52015 0.586 0.0
C1093 C 0.31631 0.49956 0.57368 0.0
C1094 C 0.3096 0.46873 0.57103 0.0
C1095 C 0.33557 0.45135 0.5562 0.0
C1096 C 0.34901 0.42748 0.57832 0.0
C1097 C 0.32514 0.43643 0.52601 0.0
C1098 C 0.35789 0.47722 0.55053 0.0
C1099 C 0.34663 0.50487 0.56094 0.0
C1100 C 0.36331 0.53198 0.55758 0.0
C1101 C 0.39207 0.53067 0.543 0.0
C1102 C 0.40375 0.50263 0.53195 0.0
C1103 C 0.38631 0.47564 0.536 0.0
H1104 H 0.98728 0.76408 0.92983 0.0
H1105 H 0.94035 0.78583 0.01485 0.0
H1106 H 0.94742 0.73241 0.03215 0.0
H1107 H 0.96002 0.68787 0.92069 0.0
H1108 H 0.99612 0.67374 0.90643 0.0
H1109 H 0.98566 0.71312 0.90032 0.0
H1110 H 0.03611 0.7309 0.92634 0.0
H1111 H 0.04683 0.69158 0.93232 0.0
H1112 H 0.04507 0.71753 0.96436 0.0
H1113 H 0.95953 0.67497 0.03939 0.0
H1114 H 0.97904 0.62184 0.03716 0.0
H1115 H 0.0219 0.64145 0.94982 0.0
C1116 C 0.9788 0.75802 0.95233 0.0
C1117 C 0.96325 0.77947 0.97089 0.0
C1118 C 0.95193 0.76987 0.99986 0.0
C1119 C 0.95598 0.73955 0.00999 0.0
C1120 C 0.97161 0.71916 0.99105 0.0
C1121 C 0.98308 0.72823 0.96296 0.0
C1122 C 1.00013 0.70263 0.94723 0.0
C1123 C 0.98454 0.69383 0.91688 0.0
C1124 C 0.03404 0.71117 0.94229 0.0
C1125 C 0.99664 0.67765 0.97087 0.0
C1126 C 0.97981 0.68727 0.99586 0.0
C1127 C 0.97316 0.66746 0.02009 0.0
C1128 C 0.98453 0.63731 0.01884 0.0
C1129 C 0.00286 0.6275 0.99398 0.0
C1130 C 0.00846 0.64809 0.96959 0.0
H1131 H 0.46476 0.77529 0.09821 0.0
H1132 H 0.45712 0.74602 0.00375 0.0
H1133 H 0.46605 0.79961 0.98658 0.0
H1134 H 0.42845 0.85094 0.08845 0.0
H1135 H 0.4541 0.86849 0.11567 0.0
H1136 H 0.44357 0.82878 0.11982 0.0
H1137 H 0.50107 0.81362 0.11991 0.0
H1138 H 0.51174 0.85315 0.11578 0.0
H1139 H 0.52519 0.82532 0.08844 0.0
H1140 H 0.48274 0.85578 0.98054 0.0
H1141 H 0.50439 0.90796 0.98658 0.0
H1142 H 0.49816 0.89936 0.08495 0.0
C1143 C 0.46461 0.78025 0.0739 0.0
C1144 C 0.46054 0.75674 0.05222 0.0
C1145 C 0.46019 0.76393 0.02063 0.0
C1146 C 0.4652 0.79422 0.01075 0.0
C1147 C 0.4699 0.81687 0.03286 0.0
C1148 C 0.46926 0.81013 0.06381 0.0
C1149 C 0.4767 0.83776 0.08316 0.0
C1150 C 0.44905 0.84704 0.10294 0.0
C1151 C 0.50538 0.83212 0.10296 0.0
C1152 C 0.48281 0.861 0.05835 0.0
C1153 C 0.47849 0.84885 0.02943 0.0
C1154 C 0.4853 0.86572 0.0031 0.0
C1155 C 0.49717 0.8955 0.00659 0.0
C1156 C 0.50196 0.90795 0.03605 0.0
C1157 C 0.49425 0.89054 0.06209 0.0
H1158 H 0.10421 0.25348 0.53634 0.0
H1159 H 0.02235 0.30711 0.52036 0.0
H1160 H 0.99518 0.26077 0.50269 0.0
H1161 H 0.08963 0.19346 0.47231 0.0
H1162 H 0.10393 0.16319 0.49639 0.0
H1163 H 0.12015 0.20114 0.49909 0.0
H1164 H 0.10855 0.20202 0.55728 0.0
H1165 H 0.09262 0.16421 0.55479 0.0
H1166 H 0.06992 0.19498 0.57032 0.0
H1167 H 0.97389 0.20913 0.49829 0.0
H1168 H 0.95956 0.15545 0.50849 0.0
H1169 H 0.0545 0.13356 0.52737 0.0
C1170 C 0.08103 0.25551 0.5277 0.0
C1171 C 0.06538 0.28375 0.5292 0.0
C1172 C 0.03469 0.28564 0.51902 0.0
C1173 C 0.0192 0.25949 0.50876 0.0
C1174 C 0.03477 0.23164 0.50872 0.0
C1175 C 0.06515 0.22944 0.51763 0.0
C1176 C 0.07491 0.19619 0.52031 0.0
C1177 C 0.09857 0.18804 0.49554 0.0
C1178 C 0.08719 0.18895 0.55259 0.0
C1179 C 0.04466 0.18021 0.51416 0.0
C1180 C 0.02211 0.20108 0.50642 0.0
C1181 C 0.99149 0.19246 0.50338 0.0
C1182 C 0.98353 0.162 0.50933 0.0
C1183 C 0.00607 0.14054 0.51818 0.0
C1184 C 0.03711 0.14949 0.5197 0.0
H1185 H 0.55984 0.26673 0.48627 0.0
H1186 H 0.65562 0.29118 0.49728 0.0
H1187 H 0.64043 0.34334 0.51323 0.0
H1188 H 0.53767 0.33291 0.45143 0.0
H1189 H 0.50039 0.33521 0.46912 0.0
H1190 H 0.51855 0.29864 0.4644 0.0
H1191 H 0.51364 0.2884 0.52272 0.0
H1192 H 0.49531 0.32504 0.5276 0.0
H1193 H 0.52904 0.31576 0.54955 0.0
H1194 H 0.61485 0.39502 0.51994 0.0
H1195 H 0.58132 0.4407 0.51672 0.0
H1196 H 0.50274 0.38178 0.50154 0.0
C1197 C 0.57761 0.28288 0.49261 0.0
C1198 C 0.60889 0.27491 0.49058 0.0
C1199 C 0.63148 0.29667 0.49909 0.0
C1200 C 0.62306 0.32636 0.50813 0.0
C1201 C 0.59196 0.33377 0.50893 0.0
C1202 C 0.5696 0.31246 0.50168 0.0
C1203 C 0.53805 0.3267 0.50133 0.0
C1204 C 0.5228 0.32316 0.4697 0.0
C1205 C 0.51782 0.31317 0.52683 0.0
C1206 C 0.54621 0.35966 0.50797 0.0
C1207 C 0.57732 0.36334 0.5129 0.0
C1208 C 0.59038 0.3923 0.51682 0.0
C1209 C 0.57122 0.4181 0.51502 0.0
C1210 C 0.53945 0.41463 0.50938 0.0
C1211 C 0.52689 0.38501 0.50639 0.0
loop_
_geom_bond_atom_site_label_1
_geom_bond_atom_site_label_2
_geom_bond_distance
_geom_bond_site_symmetry_2
_ccdc_geom_bond_type
C0 C1 1.391 . S
C0 C4 1.391 . S
C0 H42 0.948 . S
C1 C0 1.391 . S
C1 C2 1.391 . S
C2 C1 1.391 . S
C2 H58 0.947 . S
C2 C59 1.392 . S
C3 C4 1.391 . S
C3 C7 1.397 . S
C3 C59 1.419 . S
C4 C0 1.391 . S
C4 C3 1.391 . S
C4 C5 1.399 . S
C5 C4 1.399 . S
C5 C8 1.396 . S
C5 C17 1.453 . S
C5 C18 1.684 . S
H6 C30 0.948 . S
C7 C3 1.397 . S
C7 C8 1.394 . S
C7 C26 1.723 . S
C8 C5 1.396 . S
C8 C7 1.394 . S
C8 C38 1.723 . S
H9 C32 0.947 . S
H10 C33 0.948 . S
H11 C39 0.982 . S
H12 C40 0.979 . S
H13 C40 0.980 . S
H14 C40 0.983 . S
H15 C39 0.979 . S
H16 C39 0.977 . S
C17 C5 1.453 . S
C17 H46 0.982 . S
C17 H47 0.979 . S
C17 H48 0.977 . S
C18 C5 1.684 . S
C18 H43 0.979 . S
C18 H44 0.980 . S
C18 H45 0.983 . S
C19 C20 1.391 . S
C19 C24 1.391 . S
C19 H49 0.948 . S
C20 C19 1.391 . S
C20 C21 1.391 . S
C21 C20 1.391 . S
C21 C22 1.392 . S
C21 H50 0.947 . S
C22 C21 1.392 . S
C22 C23 1.419 . S
C22 H51 0.948 . S
C23 C22 1.419 . S
C23 C24 1.391 . S
C23 C27 1.397 . S
C24 C19 1.391 . S
C24 C23 1.391 . S
C24 C25 1.399 . S
C25 C24 1.399 . S
C25 C26 1.396 . S
C25 C28 1.453 . S
C25 C29 1.684 . S
C26 C7 1.723 . S
C26 C25 1.396 . S
C26 C27 1.394 . S
C27 C23 1.397 . S
C27 C26 1.394 . S
C27 C37 1.723 . S
C28 C25 1.453 . S
C28 H52 0.982 . S
C28 H53 0.979 . S
C28 H54 0.977 . S
C29 C25 1.684 . S
C29 H55 0.979 . S
C29 H56 0.980 . S
C29 H57 0.983 . S
C30 H6 0.948 . S
C30 C31 1.391 . S
C30 C35 1.391 . S
C31 C30 1.391 . S
C31 C32 1.391 . S
C32 H9 0.947 . S
C32 C31 1.391 . S
C32 C33 1.392 . S
C33 H10 0.948 . S
C33 C32 1.392 . S
C33 C34 1.419 . S
C34 C33 1.419 . S
C34 C35 1.391 . S
C34 C38 1.397 . S
C35 C30 1.391 . S
C35 C34 1.391 . S
C35 C36 1.399 . S
C36 C35 1.399 . S
C36 C37 1.396 . S
C36 C39 1.453 . S
C36 C40 1.684 . S
C37 C27 1.723 . S
C37 C36 1.396 . S
C37 C38 1.394 . S
C38 C8 1.723 . S
C38 C34 1.397 . S
C38 C37 1.394 . S
C39 H11 0.982 . S
C39 H15 0.979 . S
C39 H16 0.977 . S
C39 C36 1.453 . S
C40 H12 0.979 . S
C40 H13 0.980 . S
C40 H14 0.983 . S
C40 C36 1.684 . S
H41 C59 0.948 . S
H42 C0 0.948 . S
H43 C18 0.979 . S
H44 C18 0.980 . S
H45 C18 0.983 . S
H46 C17 0.982 . S
H47 C17 0.979 . S
H48 C17 0.977 . S
H49 C19 0.948 . S
H50 C21 0.947 . S
H51 C22 0.948 . S
H52 C28 0.982 . S
H53 C28 0.979 . S
H54 C28 0.977 . S
H55 C29 0.979 . S
H56 C29 0.980 . S
H57 C29 0.983 . S
H58 C2 0.947 . S
C59 C2 1.392 . S
C59 C3 1.419 . S
C59 H41 0.948 . S
C60 C61 1.391 . S
C60 C64 1.391 . S
C60 H102 0.948 . S
C61 C60 1.391 . S
C61 C62 1.391 . S
C62 C61 1.391 . S
C62 H118 0.947 . S
C62 C119 1.392 . S
C63 C64 1.391 . S
C63 C67 1.397 . S
C63 C119 1.419 . S
C64 C60 1.391 . S
C64 C63 1.391 . S
C64 C65 1.399 . S
C65 C64 1.399 . S
C65 C68 1.396 . S
C65 C77 1.453 . S
C65 C78 1.684 . S
H66 C90 0.948 . S
C67 C63 1.397 . S
C67 C68 1.394 . S
C67 C86 1.723 . S
C68 C65 1.396 . S
C68 C67 1.394 . S
C68 C98 1.723 . S
H69 C92 0.947 . S
H70 C93 0.948 . S
H71 C99 0.982 . S
H72 C100 0.979 . S
H73 C100 0.980 . S
H74 C100 0.983 . S
H75 C99 0.979 . S
H76 C99 0.977 . S
C77 C65 1.453 . S
C77 H106 0.982 . S
C77 H107 0.979 . S
C77 H108 0.977 . S
C78 C65 1.684 . S
C78 H103 0.979 . S
C78 H104 0.980 . S
C78 H105 0.983 . S
C79 C80 1.391 . S
C79 C84 1.391 . S
C79 H109 0.948 . S
C80 C79 1.391 . S
C80 C81 1.391 . S
C81 C80 1.391 . S
C81 C82 1.392 . S
C81 H110 0.947 . S
C82 C81 1.392 . S
C82 C83 1.419 . S
C82 H111 0.948 . S
C83 C82 1.419 . S
C83 C84 1.391 . S
C83 C87 1.397 . S
C84 C79 1.391 . S
C84 C83 1.391 . S
C84 C85 1.399 . S
C85 C84 1.399 . S
C85 C86 1.396 . S
C85 C88 1.453 . S
C85 C89 1.684 . S
C86 C67 1.723 . S
C86 C85 1.396 . S
C86 C87 1.394 . S
C87 C83 1.397 . S
C87 C86 1.394 . S
C87 C97 1.723 . S
C88 C85 1.453 . S
C88 H112 0.982 . S
C88 H113 0.979 . S
C88 H114 0.977 . S
C89 C85 1.684 . S
C89 H115 0.979 . S
C89 H116 0.980 . S
C89 H117 0.983 . S
C90 H66 0.948 . S
C90 C91 1.391 . S
C90 C95 1.391 . S
C91 C90 1.391 . S
C91 C92 1.391 . S
C92 H69 0.947 . S
C92 C91 1.391 . S
C92 C93 1.392 . S
C93 H70 0.948 . S
C93 C92 1.392 . S
C93 C94 1.419 . S
C94 C93 1.419 . S
C94 C95 1.391 . S
C94 C98 1.397 . S
C95 C90 1.391 . S
C95 C94 1.391 . S
C95 C96 1.399 . S
C96 C95 1.399 . S
C96 C97 1.396 . S
C96 C99 1.453 . S
C96 C100 1.684 . S
C97 C87 1.723 . S
C97 C96 1.396 . S
C97 C98 1.394 . S
C98 C68 1.723 . S
C98 C94 1.397 . S
C98 C97 1.394 . S
C99 H71 0.982 . S
C99 H75 0.979 . S
C99 H76 0.977 . S
C99 C96 1.453 . S
C100 H72 0.979 . S
C100 H73 0.980 . S
C100 H74 0.983 . S
C100 C96 1.684 . S
H101 C119 0.948 . S
H102 C60 0.948 . S
H103 C78 0.979 . S
H104 C78 0.980 . S
H105 C78 0.983 . S
H106 C77 0.982 . S
H107 C77 0.979 . S
H108 C77 0.977 . S
H109 C79 0.948 . S
H110 C81 0.947 . S
H111 C82 0.948 . S
H112 C88 0.982 . S
H113 C88 0.979 . S
H114 C88 0.977 . S
H115 C89 0.979 . S
H116 C89 0.980 . S
H117 C89 0.983 . S
H118 C62 0.947 . S
C119 C62 1.392 . S
C119 C63 1.419 . S
C119 H101 0.948 . S
C120 C121 1.391 . S
C120 C124 1.391 . S
C120 H162 0.948 . S
C121 C120 1.391 . S
C121 C122 1.391 . S
C122 C121 1.391 . S
C122 H178 0.947 . S
C122 C179 1.392 . S
C123 C124 1.391 . S
C123 C127 1.397 . S
C123 C179 1.419 . S
C124 C120 1.391 . S
C124 C123 1.391 . S
C124 C125 1.399 . S
C125 C124 1.399 . S
C125 C128 1.396 . S
C125 C137 1.453 . S
C125 C138 1.684 . S
H126 C150 0.948 . S
C127 C123 1.397 . S
C127 C128 1.394 . S
C127 C146 1.723 . S
C128 C125 1.396 . S
C128 C127 1.394 . S
C128 C158 1.723 . S
H129 C152 0.947 . S
H130 C153 0.948 . S
H131 C159 0.982 . S
H132 C160 0.979 . S
H133 C160 0.980 . S
H134 C160 0.983 . S
H135 C159 0.979 . S
H136 C159 0.977 . S
C137 C125 1.453 . S
C137 H166 0.982 . S
C137 H167 0.979 . S
C137 H168 0.977 . S
C138 C125 1.684 . S
C138 H163 0.979 . S
C138 H164 0.980 . S
C138 H165 0.983 . S
C139 C140 1.391 . S
C139 C144 1.391 . S
C139 H169 0.948 . S
C140 C139 1.391 . S
C140 C141 1.391 . S
C141 C140 1.391 . S
C141 C142 1.392 . S
C141 H170 0.947 . S
C142 C141 1.392 . S
C142 C143 1.419 . S
C142 H171 0.948 . S
C143 C142 1.419 . S
C143 C144 1.391 . S
C143 C147 1.397 . S
C144 C139 1.391 . S
C144 C143 1.391 . S
C144 C145 1.399 . S
C145 C144 1.399 . S
C145 C146 1.396 . S
C145 C148 1.453 . S
C145 C149 1.684 . S
C146 C127 1.723 . S
C146 C145 1.396 . S
C146 C147 1.394 . S
C147 C143 1.397 . S
C147 C146 1.394 . S
C147 C157 1.723 . S
C148 C145 1.453 . S
C148 H172 0.982 . S
C148 H173 0.979 . S
C148 H174 0.977 . S
C149 C145 1.684 . S
C149 H175 0.979 . S
C149 H176 0.980 . S
C149 H177 0.983 . S
C150 H126 0.948 . S
C150 C151 1.391 . S
C150 C155 1.391 . S
C151 C150 1.391 . S
C151 C152 1.391 . S
C152 H129 0.947 . S
C152 C151 1.391 . S
C152 C153 1.392 . S
C153 H130 0.948 . S
C153 C152 1.392 . S
C153 C154 1.419 . S
C154 C153 1.419 . S
C154 C155 1.391 . S
C154 C158 1.397 . S
C155 C150 1.391 . S
C155 C154 1.391 . S
C155 C156 1.399 . S
C156 C155 1.399 . S
C156 C157 1.396 . S
C156 C159 1.453 . S
C156 C160 1.684 . S
C157 C147 1.723 . S
C157 C156 1.396 . S
C157 C158 1.394 . S
C158 C128 1.723 . S
C158 C154 1.397 . S
C158 C157 1.394 . S
C159 H131 0.982 . S
C159 H135 0.979 . S
C159 H136 0.977 . S
C159 C156 1.453 . S
C160 H132 0.979 . S
C160 H133 0.980 . S
C160 H134 0.983 . S
C160 C156 1.684 . S
H161 C179 0.948 . S
H162 C120 0.948 . S
H163 C138 0.979 . S
H164 C138 0.980 . S
H165 C138 0.983 . S
H166 C137 0.982 . S
H167 C137 0.979 . S
H168 C137 0.977 . S
H169 C139 0.948 . S
H170 C141 0.947 . S
H171 C142 0.948 . S
H172 C148 0.982 . S
H173 C148 0.979 . S
H174 C148 0.977 . S
H175 C149 0.979 . S
H176 C149 0.980 . S
H177 C149 0.983 . S
H178 C122 0.947 . S
C179 C122 1.392 . S
C179 C123 1.419 . S
C179 H161 0.948 . S
C180 C181 1.391 . S
C180 C184 1.391 . S
C180 H222 0.948 . S
C181 C180 1.391 . S
C181 C182 1.391 . S
C182 C181 1.391 . S
C182 H238 0.947 . S
C182 C239 1.392 . S
C183 C184 1.391 . S
C183 C187 1.397 . S
C183 C239 1.419 . S
C184 C180 1.391 . S
C184 C183 1.391 . S
C184 C185 1.399 . S
C185 C184 1.399 . S
C185 C188 1.396 . S
C185 C197 1.453 . S
C185 C198 1.684 . S
H186 C210 0.948 . S
C187 C183 1.397 . S
C187 C188 1.394 . S
C187 C206 1.723 . S
C188 C185 1.396 . S
C188 C187 1.394 . S
C188 C218 1.723 . S
H189 C212 0.947 . S
H190 C213 0.948 . S
H191 C219 0.982 . S
H192 C220 0.979 . S
H193 C220 0.980 . S
H194 C220 0.983 . S
H195 C219 0.979 . S
H196 C219 0.977 . S
C197 C185 1.453 . S
C197 H226 0.982 . S
C197 H227 0.979 . S
C197 H228 0.977 . S
C198 C185 1.684 . S
C198 H223 0.979 . S
C198 H224 0.980 . S
C198 H225 0.983 . S
C199 C200 1.391 . S
C199 C204 1.391 . S
C199 H229 0.948 . S
C200 C199 1.391 . S
C200 C201 1.391 . S
C201 C200 1.391 . S
C201 C202 1.392 . S
C201 H230 0.947 . S
C202 C201 1.392 . S
C202 C203 1.419 . S
C202 H231 0.948 . S
C203 C202 1.419 . S
C203 C204 1.391 . S
C203 C207 1.397 . S
C204 C199 1.391 . S
C204 C203 1.391 . S
C204 C205 1.399 . S
C205 C204 1.399 . S
C205 C206 1.396 . S
C205 C208 1.453 . S
C205 C209 1.684 . S
C206 C187 1.723 . S
C206 C205 1.396 . S
C206 C207 1.394 . S
C207 C203 1.397 . S
C207 C206 1.394 . S
C207 C217 1.723 . S
C208 C205 1.453 . S
C208 H232 0.982 . S
C208 H233 0.979 . S
C208 H234 0.977 . S
C209 C205 1.684 . S
C209 H235 0.979 . S
C209 H236 0.980 . S
C209 H237 0.983 . S
C210 H186 0.948 . S
C210 C211 1.391 . S
C210 C215 1.391 . S
C211 C210 1.391 . S
C211 C212 1.391 . S
C212 H189 0.947 . S
C212 C211 1.391 . S
C212 C213 1.392 . S
C213 H190 0.948 . S
C213 C212 1.392 . S
C213 C214 1.419 . S
C214 C213 1.419 . S
C214 C215 1.391 . S
C214 C218 1.397 . S
C215 C210 1.391 . S
C215 C214 1.391 . S
C215 C216 1.399 . S
C216 C215 1.399 . S
C216 C217 1.396 . S
C216 C219 1.453 . S
C216 C220 1.684 . S
C217 C207 1.723 . S
C217 C216 1.396 . S
C217 C218 1.394 . S
C218 C188 1.723 . S
C218 C214 1.397 . S
C218 C217 1.394 . S
C219 H191 0.982 . S
C219 H195 0.979 . S
C219 H196 0.977 . S
C219 C216 1.453 . S
C220 H192 0.979 . S
C220 H193 0.980 . S
C220 H194 0.983 . S
C220 C216 1.684 . S
H221 C239 0.948 . S
H222 C180 0.948 . S
H223 C198 0.979 . S
H224 C198 0.980 . S
H225 C198 0.983 . S
H226 C197 0.982 . S
H227 C197 0.979 . S
H228 C197 0.977 . S
H229 C199 0.948 . S
H230 C201 0.947 . S
H231 C202 0.948 . S
H232 C208 0.982 . S
H233 C208 0.979 . S
H234 C208 0.977 . S
H235 C209 0.979 . S
H236 C209 0.980 . S
H237 C209 0.983 . S
H238 C182 0.947 . S
C239 C182 1.392 . S
C239 C183 1.419 . S
C239 H221 0.948 . S
C240 C241 1.391 . S
C240 C244 1.391 . S
C240 H282 0.948 1_556 S
C241 C240 1.391 . S
C241 C242 1.391 1_655 S
C242 C241 1.391 1_455 S
C242 H298 0.947 . S
C242 C299 1.392 1_455 S
C243 C244 1.391 . S
C243 C247 1.397 . S
C243 C299 1.419 . S
C244 C240 1.391 . S
C244 C243 1.391 . S
C244 C245 1.399 . S
C245 C244 1.399 . S
C245 C248 1.396 . S
C245 C257 1.453 . S
C245 C258 1.684 1_556 S
H246 C270 0.948 1_545 S
C247 C243 1.397 . S
C247 C248 1.394 . S
C247 C266 1.723 . S
C248 C245 1.396 . S
C248 C247 1.394 . S
C248 C278 1.723 . S
H249 C272 0.947 . S
H250 C273 0.948 1_554 S
H251 C279 0.982 . S
H252 C280 0.979 . S
H253 C280 0.980 . S
H254 C280 0.983 . S
H255 C279 0.979 1_545 S
H256 C279 0.977 . S
C257 C245 1.453 . S
C257 H286 0.982 . S
C257 H287 0.979 1_556 S
C257 H288 0.977 . S
C258 C245 1.684 1_554 S
C258 H283 0.979 . S
C258 H284 0.980 . S
C258 H285 0.983 . S
C259 C260 1.391 . S
C259 C264 1.391 . S
C259 H289 0.948 1_655 S
C260 C259 1.391 . S
C260 C261 1.391 1_565 S
C261 C260 1.391 1_545 S
C261 C262 1.392 1_545 S
C261 H290 0.947 . S
C262 C261 1.392 1_565 S
C262 C263 1.419 . S
C262 H291 0.948 1_565 S
C263 C262 1.419 . S
C263 C264 1.391 . S
C263 C267 1.397 . S
C264 C259 1.391 . S
C264 C263 1.391 . S
C264 C265 1.399 . S
C265 C264 1.399 . S
C265 C266 1.396 . S
C265 C268 1.453 . S
C265 C269 1.684 1_655 S
C266 C247 1.723 . S
C266 C265 1.396 . S
C266 C267 1.394 . S
C267 C263 1.397 . S
C267 C266 1.394 . S
C267 C277 1.723 . S
C268 C265 1.453 . S
C268 H292 0.982 . S
C268 H293 0.989 . S
C268 H294 0.977 . S
C269 C265 1.684 1_455 S
C269 H295 0.979 . S
C269 H296 0.980 . S
C269 H297 0.983 . S
C270 H246 0.948 1_565 S
C270 C271 1.391 . S
C270 C275 1.391 . S
C271 C270 1.391 . S
C271 C272 1.391 1_556 S
C272 H249 0.947 . S
C272 C271 1.391 1_554 S
C272 C273 1.392 1_554 S
C273 H250 0.948 1_556 S
C273 C272 1.392 1_556 S
C273 C274 1.419 . S
C274 C273 1.419 . S
C274 C275 1.391 . S
C274 C278 1.397 . S
C275 C270 1.391 . S
C275 C274 1.391 . S
C275 C276 1.399 . S
C276 C275 1.399 . S
C276 C277 1.396 . S
C276 C279 1.453 . S
C276 C280 1.684 1_565 S
C277 C267 1.723 . S
C277 C276 1.396 . S
C277 C278 1.394 . S
C278 C248 1.723 . S
C278 C274 1.397 . S
C278 C277 1.394 . S
C279 H251 0.982 . S
C279 H255 0.979 1_565 S
C279 H256 0.977 . S
C279 C276 1.453 . S
C280 H252 0.979 . S
C280 H253 0.980 . S
C280 H254 0.983 . S
C280 C276 1.684 1_545 S
H281 C299 0.948 1_455 S
H282 C240 0.948 1_554 S
H283 C258 0.979 . S
H284 C258 0.980 . S
H285 C258 0.983 . S
H286 C257 0.982 . S
H287 C257 0.979 1_554 S
H288 C257 0.977 . S
H289 C259 0.948 1_455 S
H290 C261 0.947 . S
H291 C262 0.948 1_545 S
H292 C268 0.982 . S
H293 C268 0.989 . S
H294 C268 0.977 . S
H295 C269 0.979 . S
H296 C269 0.980 . S
H297 C269 0.983 . S
H298 C242 0.947 . S
C299 C242 1.392 1_655 S
C299 C243 1.419 . S
C299 H281 0.948 1_655 S
C300 C301 1.391 . S
C300 C304 1.391 . S
C300 H342 0.948 . S
C301 C300 1.391 . S
C301 C302 1.391 . S
C302 C301 1.391 . S
C302 H358 0.947 . S
C302 C359 1.392 . S
C303 C304 1.391 . S
C303 C307 1.397 . S
C303 C359 1.419 . S
C304 C300 1.391 . S
C304 C303 1.391 . S
C304 C305 1.399 . S
C305 C304 1.399 . S
C305 C308 1.396 . S
C305 C317 1.453 . S
C305 C318 1.684 . S
H306 C330 0.948 . S
C307 C303 1.397 . S
C307 C308 1.394 . S
C307 C326 1.723 . S
C308 C305 1.396 . S
C308 C307 1.394 . S
C308 C338 1.723 . S
H309 C332 0.947 . S
H310 C333 0.948 . S
H311 C339 0.982 . S
H312 C340 0.979 . S
H313 C340 0.980 . S
H314 C340 0.983 . S
H315 C339 0.979 . S
H316 C339 0.977 . S
C317 C305 1.453 . S
C317 H346 0.982 . S
C317 H347 0.979 . S
C317 H348 0.977 . S
C318 C305 1.684 . S
C318 H343 0.979 . S
C318 H344 0.980 . S
C318 H345 0.983 . S
C319 C320 1.391 . S
C319 C324 1.391 . S
C319 H349 0.948 . S
C320 C319 1.391 . S
C320 C321 1.391 . S
C321 C320 1.391 . S
C321 C322 1.392 . S
C321 H350 0.947 . S
C322 C321 1.392 . S
C322 C323 1.419 . S
C322 H351 0.948 . S
C323 C322 1.419 . S
C323 C324 1.391 . S
C323 C327 1.397 . S
C324 C319 1.391 . S
C324 C323 1.391 . S
C324 C325 1.399 . S
C325 C324 1.399 . S
C325 C326 1.396 . S
C325 C328 1.453 . S
C325 C329 1.684 . S
C326 C307 1.723 . S
C326 C325 1.396 . S
C326 C327 1.394 . S
C327 C323 1.397 . S
C327 C326 1.394 . S
C327 C337 1.723 . S
C328 C325 1.453 . S
C328 H352 0.982 . S
C328 H353 0.979 . S
C328 H354 0.977 . S
C329 C325 1.684 . S
C329 H355 0.979 . S
C329 H356 0.980 . S
C329 H357 0.983 . S
C330 H306 0.948 . S
C330 C331 1.391 . S
C330 C335 1.391 . S
C331 C330 1.391 . S
C331 C332 1.391 . S
C332 H309 0.947 . S
C332 C331 1.391 . S
C332 C333 1.392 . S
C333 H310 0.948 . S
C333 C332 1.392 . S
C333 C334 1.419 . S
C334 C333 1.419 . S
C334 C335 1.391 . S
C334 C338 1.397 . S
C335 C330 1.391 . S
C335 C334 1.391 . S
C335 C336 1.399 . S
C336 C335 1.399 . S
C336 C337 1.396 . S
C336 C339 1.453 . S
C336 C340 1.684 . S
C337 C327 1.723 . S
C337 C336 1.396 . S
C337 C338 1.394 . S
C338 C308 1.723 . S
C338 C334 1.397 . S
C338 C337 1.394 . S
C339 H311 0.982 . S
C339 H315 0.979 . S
C339 H316 0.977 . S
C339 C336 1.453 . S
C340 H312 0.979 . S
C340 H313 0.980 . S
C340 H314 0.983 . S
C340 C336 1.684 . S
H341 C359 0.948 . S
H342 C300 0.948 . S
H343 C318 0.979 . S
H344 C318 0.980 . S
H345 C318 0.983 . S
H346 C317 0.982 . S
H347 C317 0.979 . S
H348 C317 0.977 . S
H349 C319 0.948 . S
H350 C321 0.947 . S
H351 C322 0.948 . S
H352 C328 0.982 . S
H353 C328 0.979 . S
H354 C328 0.977 . S
H355 C329 0.979 . S
H356 C329 0.980 . S
H357 C329 0.983 . S
H358 C302 0.947 . S
C359 C302 1.392 . S
C359 C303 1.419 . S
C359 H341 0.948 . S
C360 C361 1.391 . S
C360 C364 1.391 . S
C360 H402 0.948 . S
C361 C360 1.391 . S
C361 C362 1.391 . S
C362 C361 1.391 . S
C362 H418 0.947 . S
C362 C419 1.392 . S
C363 C364 1.391 . S
C363 C367 1.397 . S
C363 C419 1.419 . S
C364 C360 1.391 . S
C364 C363 1.391 . S
C364 C365 1.399 . S
C365 C364 1.399 . S
C365 C368 1.396 . S
C365 C377 1.453 . S
C365 C378 1.684 . S
H366 C390 0.948 . S
C367 C363 1.397 . S
C367 C368 1.394 . S
C367 C386 1.723 . S
C368 C365 1.396 . S
C368 C367 1.394 . S
C368 C398 1.723 . S
H369 C392 0.947 . S
H370 C393 0.948 . S
H371 C399 0.982 . S
H372 C400 0.979 . S
H373 C400 0.980 . S
H374 C400 0.983 . S
H375 C399 0.979 . S
H376 C399 0.977 . S
C377 C365 1.453 . S
C377 H406 0.982 . S
C377 H407 0.979 . S
C377 H408 0.977 . S
C378 C365 1.684 . S
C378 H403 0.979 . S
C378 H404 0.980 . S
C378 H405 0.983 . S
C379 C380 1.391 . S
C379 C384 1.391 . S
C379 H409 0.948 . S
C380 C379 1.391 . S
C380 C381 1.391 . S
C381 C380 1.391 . S
C381 C382 1.392 . S
C381 H410 0.947 . S
C382 C381 1.392 . S
C382 C383 1.419 . S
C382 H411 0.948 . S
C383 C382 1.419 . S
C383 C384 1.391 . S
C383 C387 1.397 . S
C384 C379 1.391 . S
C384 C383 1.391 . S
C384 C385 1.399 . S
C385 C384 1.399 . S
C385 C386 1.396 . S
C385 C388 1.453 . S
C385 C389 1.684 . S
C386 C367 1.723 . S
C386 C385 1.396 . S
C386 C387 1.394 . S
C387 C383 1.397 . S
C387 C386 1.394 . S
C387 C397 1.723 . S
C388 C385 1.453 . S
C388 H412 0.982 . S
C388 H413 0.979 . S
C388 H414 0.977 . S
C389 C385 1.684 . S
C389 H415 0.979 . S
C389 H416 0.980 . S
C389 H417 0.983 . S
C390 H366 0.948 . S
C390 C391 1.391 . S
C390 C395 1.391 . S
C391 C390 1.391 . S
C391 C392 1.391 . S
C392 H369 0.947 . S
C392 C391 1.391 . S
C392 C393 1.392 . S
C393 H370 0.948 . S
C393 C392 1.392 . S
C393 C394 1.419 . S
C394 C393 1.419 . S
C394 C395 1.391 . S
C394 C398 1.397 . S
C395 C390 1.391 . S
C395 C394 1.391 . S
C395 C396 1.399 . S
C396 C395 1.399 . S
C396 C397 1.396 . S
C396 C399 1.453 . S
C396 C400 1.684 . S
C397 C387 1.723 . S
C397 C396 1.396 . S
C397 C398 1.394 . S
C398 C368 1.723 . S
C398 C394 1.397 . S
C398 C397 1.394 . S
C399 H371 0.982 . S
C399 H375 0.979 . S
C399 H376 0.977 . S
C399 C396 1.453 . S
C400 H372 0.979 . S
C400 H373 0.980 . S
C400 H374 0.983 . S
C400 C396 1.684 . S
H401 C419 0.948 . S
H402 C360 0.948 . S
H403 C378 0.979 . S
H404 C378 0.980 . S
H405 C378 0.983 . S
H406 C377 0.982 . S
H407 C377 0.979 . S
H408 C377 0.977 . S
H409 C379 0.948 . S
H410 C381 0.947 . S
H411 C382 0.948 . S
H412 C388 0.982 . S
H413 C388 0.979 . S
H414 C388 0.977 . S
H415 C389 0.979 . S
H416 C389 0.980 . S
H417 C389 0.983 . S
H418 C362 0.947 . S
C419 C362 1.392 . S
C419 C363 1.419 . S
C419 H401 0.948 . S
C420 C421 1.391 . S
C420 C424 1.391 . S
C420 H462 0.948 . S
C421 C420 1.391 . S
C421 C422 1.391 . S
C422 C421 1.391 . S
C422 H478 0.947 . S
C422 C479 1.392 . S
C423 C424 1.391 . S
C423 C427 1.397 . S
C423 C479 1.419 . S
C424 C420 1.391 . S
C424 C423 1.391 . S
C424 C425 1.399 . S
C425 C424 1.399 . S
C425 C428 1.396 . S
C425 C437 1.453 . S
C425 C438 1.684 . S
H426 C450 0.948 . S
C427 C423 1.397 . S
C427 C428 1.394 . S
C427 C446 1.723 . S
C428 C425 1.396 . S
C428 C427 1.394 . S
C428 C458 1.723 . S
H429 C452 0.947 . S
H430 C453 0.948 . S
H431 C459 0.982 . S
H432 C460 0.979 . S
H433 C460 0.980 . S
H434 C460 0.983 . S
H435 C459 0.979 . S
H436 C459 0.977 . S
C437 C425 1.453 . S
C437 H466 0.982 . S
C437 H467 0.979 . S
C437 H468 0.977 . S
C438 C425 1.684 . S
C438 H463 0.979 . S
C438 H464 0.980 . S
C438 H465 0.983 . S
C439 C440 1.391 . S
C439 C444 1.391 . S
C439 H469 0.948 . S
C440 C439 1.391 . S
C440 C441 1.391 . S
C441 C440 1.391 . S
C441 C442 1.392 . S
C441 H470 0.947 . S
C442 C441 1.392 . S
C442 C443 1.419 . S
C442 H471 0.948 . S
C443 C442 1.419 . S
C443 C444 1.391 . S
C443 C447 1.397 . S
C444 C439 1.391 . S
C444 C443 1.391 . S
C444 C445 1.399 . S
C445 C444 1.399 . S
C445 C446 1.396 . S
C445 C448 1.453 . S
C445 C449 1.684 . S
C446 C427 1.723 . S
C446 C445 1.396 . S
C446 C447 1.394 . S
C447 C443 1.397 . S
C447 C446 1.394 . S
C447 C457 1.723 . S
C448 C445 1.453 . S
C448 H472 0.982 . S
C448 H473 0.979 . S
C448 H474 0.977 . S
C449 C445 1.684 . S
C449 H475 0.979 . S
C449 H476 0.980 . S
C449 H477 0.983 . S
C450 H426 0.948 . S
C450 C451 1.391 . S
C450 C455 1.391 . S
C451 C450 1.391 . S
C451 C452 1.391 . S
C452 H429 0.947 . S
C452 C451 1.391 . S
C452 C453 1.392 . S
C453 H430 0.948 . S
C453 C452 1.392 . S
C453 C454 1.419 . S
C454 C453 1.419 . S
C454 C455 1.391 . S
C454 C458 1.397 . S
C455 C450 1.391 . S
C455 C454 1.391 . S
C455 C456 1.399 . S
C456 C455 1.399 . S
C456 C457 1.396 . S
C456 C459 1.453 . S
C456 C460 1.684 . S
C457 C447 1.723 . S
C457 C456 1.396 . S
C457 C458 1.394 . S
C458 C428 1.723 . S
C458 C454 1.397 . S
C458 C457 1.394 . S
C459 H431 0.982 . S
C459 H435 0.979 . S
C459 H436 0.977 . S
C459 C456 1.453 . S
C460 H432 0.979 . S
C460 H433 0.980 . S
C460 H434 0.983 . S
C460 C456 1.684 . S
H461 C479 0.948 . S
H462 C420 0.948 . S
H463 C438 0.979 . S
H464 C438 0.980 . S
H465 C438 0.983 . S
H466 C437 0.982 . S
H467 C437 0.979 . S
H468 C437 0.977 . S
H469 C439 0.948 . S
H470 C441 0.947 . S
H471 C442 0.948 . S
H472 C448 0.982 . S
H473 C448 0.979 . S
H474 C448 0.977 . S
H475 C449 0.979 . S
H476 C449 0.980 . S
H477 C449 0.983 . S
H478 C422 0.947 . S
C479 C422 1.392 . S
C479 C423 1.419 . S
C479 H461 0.948 . S
Zn480 O486 1.920 . S
Zn480 O492 1.898 . S
Zn480 O495 1.905 . S
Zn481 O489 1.905 1_565 S
Zn481 O490 1.898 . S
Zn481 O498 1.920 . S
Zn482 O485 2.080 1_455 S
Zn482 O488 2.114 . S
Zn482 O491 2.120 1_445 S
Zn482 O493 2.120 . S
Zn482 O494 2.114 1_455 S
Zn482 O497 2.080 . S
C483 O488 1.166 . S
C483 O489 1.182 . S
C484 O490 1.167 1_655 S
C484 O491 1.299 . S
O485 Zn482 2.080 1_655 S
O485 C499 1.305 . S
O486 Zn480 1.920 . S
O486 C499 1.234 . S
C487 O492 1.167 1_455 S
C487 O493 1.299 . S
O488 Zn482 2.114 . S
O488 C483 1.166 . S
O489 Zn481 1.905 1_545 S
O489 C483 1.182 . S
O490 Zn481 1.898 . S
O490 C484 1.167 1_455 S
O491 Zn482 2.120 1_665 S
O491 C484 1.299 . S
O492 Zn480 1.898 . S
O492 C487 1.167 1_655 S
O493 Zn482 2.120 . S
O493 C487 1.299 . S
O494 Zn482 2.114 1_655 S
O494 C496 1.166 . S
O495 Zn480 1.905 . S
O495 C496 1.182 . S
C496 O494 1.166 . S
C496 O495 1.182 . S
O497 Zn482 2.080 . S
O497 C500 1.305 1_545 S
O498 Zn481 1.920 . S
O498 C500 1.234 . S
C499 O485 1.305 . S
C499 O486 1.234 . S
C500 O497 1.305 1_565 S
C500 O498 1.234 . S
Zn501 O507 1.920 1_556 S
Zn501 O513 1.898 . S
Zn501 O516 1.905 . S
Zn502 O510 1.905 . S
Zn502 O511 1.898 . S
Zn502 O519 1.920 . S
Zn503 O506 2.080 . S
Zn503 O509 2.114 1_545 S
Zn503 O512 2.120 1_545 S
Zn503 O514 2.120 . S
Zn503 O515 2.114 1_544 S
Zn503 O518 2.080 . S
C504 O509 1.166 . S
C504 O510 1.182 . S
C505 O511 1.167 . S
C505 O512 1.299 . S
O506 Zn503 2.080 . S
O506 C520 1.305 . S
O507 Zn501 1.920 1_554 S
O507 C520 1.234 . S
C508 O513 1.167 . S
C508 O514 1.299 1_556 S
O509 Zn503 2.114 1_565 S
O509 C504 1.166 . S
O510 Zn502 1.905 . S
O510 C504 1.182 . S
O511 Zn502 1.898 . S
O511 C505 1.167 . S
O512 Zn503 2.120 1_565 S
O512 C505 1.299 . S
O513 Zn501 1.898 . S
O513 C508 1.167 . S
O514 Zn503 2.120 . S
O514 C508 1.299 1_554 S
O515 Zn503 2.114 1_566 S
O515 C517 1.166 . S
O516 Zn501 1.905 . S
O516 C517 1.182 1_545 S
C517 O515 1.166 . S
C517 O516 1.182 1_565 S
O518 Zn503 2.080 . S
O518 C521 1.305 . S
O519 Zn502 1.920 . S
O519 C521 1.234 1_565 S
C520 O506 1.305 . S
C520 O507 1.234 . S
C521 O518 1.305 . S
C521 O519 1.234 1_545 S
Zn522 O528 1.920 . S
Zn522 O534 1.898 . S
Zn522 O537 1.905 . S
Zn523 O531 1.905 . S
Zn523 O532 1.898 . S
Zn523 O540 1.920 . S
Zn524 O527 2.080 . S
Zn524 O530 2.114 . S
Zn524 O533 2.120 . S
Zn524 O535 2.120 . S
Zn524 O536 2.114 . S
Zn524 O539 2.080 . S
C525 O530 1.166 . S
C525 O531 1.182 . S
C526 O532 1.167 . S
C526 O533 1.299 . S
O527 Zn524 2.080 . S
O527 C541 1.305 . S
O528 Zn522 1.920 . S
O528 C541 1.234 . S
C529 O534 1.167 . S
C529 O535 1.299 . S
O530 Zn524 2.114 . S
O530 C525 1.166 . S
O531 Zn523 1.905 . S
O531 C525 1.182 . S
O532 Zn523 1.898 . S
O532 C526 1.167 . S
O533 Zn524 2.120 . S
O533 C526 1.299 . S
O534 Zn522 1.898 . S
O534 C529 1.167 . S
O535 Zn524 2.120 . S
O535 C529 1.299 . S
O536 Zn524 2.114 . S
O536 C538 1.166 . S
O537 Zn522 1.905 . S
O537 C538 1.182 . S
C538 O536 1.166 . S
C538 O537 1.182 . S
O539 Zn524 2.080 . S
O539 C542 1.305 . S
O540 Zn523 1.920 . S
O540 C542 1.234 . S
C541 O527 1.305 . S
C541 O528 1.234 . S
C542 O539 1.305 . S
C542 O540 1.234 . S
Zn543 O549 1.920 . S
Zn543 O555 1.898 . S
Zn543 O558 1.905 . S
Zn544 O552 1.905 1_655 S
Zn544 O553 1.898 . S
Zn544 O561 1.920 . S
Zn545 O548 2.080 1_554 S
Zn545 O551 2.114 . S
Zn545 O554 2.120 1_454 S
Zn545 O556 2.120 . S
Zn545 O557 2.114 1_554 S
Zn545 O560 2.080 . S
C546 O551 1.166 . S
C546 O552 1.182 . S
C547 O553 1.167 1_556 S
C547 O554 1.299 . S
O548 Zn545 2.080 1_556 S
O548 C562 1.305 . S
O549 Zn543 1.920 . S
O549 C562 1.234 . S
C550 O555 1.167 1_554 S
C550 O556 1.299 . S
O551 Zn545 2.114 . S
O551 C546 1.166 . S
O552 Zn544 1.905 1_455 S
O552 C546 1.182 . S
O553 Zn544 1.898 . S
O553 C547 1.167 1_554 S
O554 Zn545 2.120 1_656 S
O554 C547 1.299 . S
O555 Zn543 1.898 . S
O555 C550 1.167 1_556 S
O556 Zn545 2.120 . S
O556 C550 1.299 . S
O557 Zn545 2.114 1_556 S
O557 C559 1.166 . S
O558 Zn543 1.905 . S
O558 C559 1.182 . S
C559 O557 1.166 . S
C559 O558 1.182 . S
O560 Zn545 2.080 . S
O560 C563 1.305 1_455 S
O561 Zn544 1.920 . S
O561 C563 1.234 . S
C562 O548 1.305 . S
C562 O549 1.234 . S
C563 O560 1.305 1_655 S
C563 O561 1.234 . S
H564 C576 0.930 . S
H565 C578 0.930 . S
H566 C579 0.930 . S
H567 C583 0.959 . S
H568 C583 0.959 . S
H569 C583 0.961 . S
H570 C584 0.960 . S
H571 C584 0.961 . S
H572 C584 0.959 . S
H573 C587 0.929 . S
H574 C588 0.931 . S
H575 C590 0.930 . S
C576 H564 0.930 . S
C576 C577 1.399 . S
C576 C581 1.399 . S
C577 C576 1.399 . S
C577 C578 1.376 . S
C578 H565 0.930 . S
C578 C577 1.376 . S
C578 C579 1.388 . S
C579 H566 0.930 . S
C579 C578 1.388 . S
C579 C580 1.390 . S
C580 C579 1.390 . S
C580 C581 1.394 . S
C580 C586 1.465 . S
C581 C576 1.399 . S
C581 C580 1.394 . S
C581 C582 1.516 . S
C582 C581 1.516 . S
C582 C583 1.502 . S
C582 C584 1.561 . S
C582 C585 1.526 . S
C583 H567 0.959 . S
C583 H568 0.959 . S
C583 H569 0.961 . S
C583 C582 1.502 . S
C584 H570 0.960 . S
C584 H571 0.961 . S
C584 H572 0.959 . S
C584 C582 1.561 . S
C585 C582 1.526 . S
C585 C586 1.396 . S
C585 C590 1.390 . S
C586 C580 1.465 . S
C586 C585 1.396 . S
C586 C587 1.399 . S
C587 H573 0.929 . S
C587 C586 1.399 . S
C587 C588 1.385 . S
C588 H574 0.931 . S
C588 C587 1.385 . S
C588 C589 1.389 . S
C589 C588 1.389 . S
C589 C590 1.387 . S
C590 H575 0.930 . S
C590 C585 1.390 . S
C590 C589 1.387 . S
H591 C603 0.930 . S
H592 C605 0.930 . S
H593 C606 0.930 . S
H594 C610 0.959 . S
H595 C610 0.959 . S
H596 C610 0.961 . S
H597 C611 0.960 . S
H598 C611 0.961 . S
H599 C611 0.959 . S
H600 C614 0.929 . S
H601 C615 0.931 1_545 S
H602 C617 0.930 . S
C603 H591 0.930 . S
C603 C604 1.399 . S
C603 C608 1.399 . S
C604 C603 1.399 . S
C604 C605 1.376 . S
C605 H592 0.930 . S
C605 C604 1.376 . S
C605 C606 1.388 . S
C606 H593 0.930 . S
C606 C605 1.388 . S
C606 C607 1.390 . S
C607 C606 1.390 . S
C607 C608 1.394 . S
C607 C613 1.465 . S
C608 C603 1.399 . S
C608 C607 1.394 . S
C608 C609 1.516 . S
C609 C608 1.516 . S
C609 C610 1.502 . S
C609 C611 1.561 . S
C609 C612 1.526 . S
C610 H594 0.959 . S
C610 H595 0.959 . S
C610 H596 0.961 . S
C610 C609 1.502 . S
C611 H597 0.960 . S
C611 H598 0.961 . S
C611 H599 0.959 . S
C611 C609 1.561 . S
C612 C609 1.526 . S
C612 C613 1.396 . S
C612 C617 1.390 . S
C613 C607 1.465 . S
C613 C612 1.396 . S
C613 C614 1.399 . S
C614 H600 0.929 . S
C614 C613 1.399 . S
C614 C615 1.385 . S
C615 H601 0.931 1_565 S
C615 C614 1.385 . S
C615 C616 1.389 . S
C616 C615 1.389 . S
C616 C617 1.387 . S
C617 H602 0.930 . S
C617 C612 1.390 . S
C617 C616 1.387 . S
H618 C630 0.930 . S
H619 C632 0.930 . S
H620 C633 0.930 . S
H621 C637 0.959 . S
H622 C637 0.959 . S
H623 C637 0.961 . S
H624 C638 0.960 . S
H625 C638 0.961 . S
H626 C638 0.959 . S
H627 C641 0.929 . S
H628 C642 0.931 . S
H629 C644 0.930 . S
C630 H618 0.930 . S
C630 C631 1.399 . S
C630 C635 1.399 . S
C631 C630 1.399 . S
C631 C632 1.376 . S
C632 H619 0.930 . S
C632 C631 1.376 . S
C632 C633 1.388 . S
C633 H620 0.930 . S
C633 C632 1.388 . S
C633 C634 1.390 . S
C634 C633 1.390 . S
C634 C635 1.394 . S
C634 C640 1.465 . S
C635 C630 1.399 . S
C635 C634 1.394 . S
C635 C636 1.516 . S
C636 C635 1.516 . S
C636 C637 1.502 . S
C636 C638 1.561 . S
C636 C639 1.526 . S
C637 H621 0.959 . S
C637 H622 0.959 . S
C637 H623 0.961 . S
C637 C636 1.502 . S
C638 H624 0.960 . S
C638 H625 0.961 . S
C638 H626 0.959 . S
C638 C636 1.561 . S
C639 C636 1.526 . S
C639 C640 1.396 . S
C639 C644 1.390 . S
C640 C634 1.465 . S
C640 C639 1.396 . S
C640 C641 1.399 . S
C641 H627 0.929 . S
C641 C640 1.399 . S
C641 C642 1.385 . S
C642 H628 0.931 . S
C642 C641 1.385 . S
C642 C643 1.389 . S
C643 C642 1.389 . S
C643 C644 1.387 . S
C644 H629 0.930 . S
C644 C639 1.390 . S
C644 C643 1.387 . S
H645 C657 0.930 . S
H646 C659 0.930 . S
H647 C660 0.930 . S
H648 C664 0.959 . S
H649 C664 0.959 . S
H650 C664 0.961 . S
H651 C665 0.960 . S
H652 C665 0.961 . S
H653 C665 0.959 . S
H654 C668 0.929 . S
H655 C669 0.931 1_455 S
H656 C671 0.930 . S
C657 H645 0.930 . S
C657 C658 1.399 . S
C657 C662 1.399 . S
C658 C657 1.399 . S
C658 C659 1.376 . S
C659 H646 0.930 . S
C659 C658 1.376 . S
C659 C660 1.388 . S
C660 H647 0.930 . S
C660 C659 1.388 . S
C660 C661 1.390 . S
C661 C660 1.390 . S
C661 C662 1.394 . S
C661 C667 1.465 . S
C662 C657 1.399 . S
C662 C661 1.394 . S
C662 C663 1.516 . S
C663 C662 1.516 . S
C663 C664 1.502 . S
C663 C665 1.561 . S
C663 C666 1.526 . S
C664 H648 0.959 . S
C664 H649 0.959 . S
C664 H650 0.961 . S
C664 C663 1.502 . S
C665 H651 0.960 . S
C665 H652 0.961 . S
C665 H653 0.959 . S
C665 C663 1.561 . S
C666 C663 1.526 . S
C666 C667 1.396 . S
C666 C671 1.390 . S
C667 C661 1.465 . S
C667 C666 1.396 . S
C667 C668 1.399 . S
C668 H654 0.929 . S
C668 C667 1.399 . S
C668 C669 1.385 . S
C669 H655 0.931 1_655 S
C669 C668 1.385 . S
C669 C670 1.389 . S
C670 C669 1.389 . S
C670 C671 1.387 . S
C671 H656 0.930 . S
C671 C666 1.390 . S
C671 C670 1.387 . S
H672 C684 0.930 . S
H673 C686 0.930 . S
H674 C687 0.930 . S
H675 C691 0.959 . S
H676 C691 0.959 . S
H677 C691 0.961 . S
H678 C692 0.960 . S
H679 C692 0.961 . S
H680 C692 0.959 . S
H681 C695 0.929 . S
H682 C696 0.931 . S
H683 C698 0.930 . S
C684 H672 0.930 . S
C684 C685 1.399 . S
C684 C689 1.399 . S
C685 C684 1.399 . S
C685 C686 1.376 . S
C686 H673 0.930 . S
C686 C685 1.376 . S
C686 C687 1.388 . S
C687 H674 0.930 . S
C687 C686 1.388 . S
C687 C688 1.390 . S
C688 C687 1.390 . S
C688 C689 1.394 . S
C688 C694 1.465 . S
C689 C684 1.399 . S
C689 C688 1.394 . S
C689 C690 1.516 . S
C690 C689 1.516 . S
C690 C691 1.502 . S
C690 C692 1.561 . S
C690 C693 1.526 . S
C691 H675 0.959 . S
C691 H676 0.959 . S
C691 H677 0.961 . S
C691 C690 1.502 . S
C692 H678 0.960 . S
C692 H679 0.961 . S
C692 H680 0.959 . S
C692 C690 1.561 . S
C693 C690 1.526 . S
C693 C694 1.396 . S
C693 C698 1.390 . S
C694 C688 1.465 . S
C694 C693 1.396 . S
C694 C695 1.399 . S
C695 H681 0.929 . S
C695 C694 1.399 . S
C695 C696 1.385 . S
C696 H682 0.931 . S
C696 C695 1.385 . S
C696 C697 1.389 . S
C697 C696 1.389 . S
C697 C698 1.387 . S
C698 H683 0.930 . S
C698 C693 1.390 . S
C698 C697 1.387 . S
H699 C711 0.930 . S
H700 C713 0.930 . S
H701 C714 0.930 . S
H702 C718 0.959 . S
H703 C718 0.959 1_545 S
H704 C718 0.961 . S
H705 C719 0.960 . S
H706 C719 0.961 . S
H707 C719 0.961 . S
H708 C722 0.929 . S
H709 C723 0.931 . S
H710 C725 0.930 1_545 S
C711 H699 0.930 . S
C711 C712 1.399 . S
C711 C716 1.399 . S
C712 C711 1.399 . S
C712 C713 1.376 . S
C713 H700 0.930 . S
C713 C712 1.376 . S
C713 C714 1.388 . S
C714 H701 0.930 . S
C714 C713 1.388 . S
C714 C715 1.390 . S
C715 C714 1.390 . S
C715 C716 1.394 . S
C715 C721 1.465 . S
C716 C711 1.399 . S
C716 C715 1.394 . S
C716 C717 1.516 . S
C717 C716 1.516 . S
C717 C718 1.502 . S
C717 C719 1.561 1_565 S
C717 C720 1.526 . S
C718 H702 0.959 . S
C718 H703 0.959 1_565 S
C718 H704 0.961 . S
C718 C717 1.502 . S
C719 H705 0.960 . S
C719 H706 0.961 . S
C719 H707 0.961 . S
C719 C717 1.561 1_545 S
C720 C717 1.526 . S
C720 C721 1.396 . S
C720 C725 1.390 . S
C721 C715 1.465 . S
C721 C720 1.396 . S
C721 C722 1.399 . S
C722 H708 0.929 . S
C722 C721 1.399 . S
C722 C723 1.385 . S
C723 H709 0.931 . S
C723 C722 1.385 . S
C723 C724 1.389 . S
C724 C723 1.389 . S
C724 C725 1.387 . S
C725 H710 0.930 1_565 S
C725 C720 1.390 . S
C725 C724 1.387 . S
H726 C738 0.930 . S
H727 C740 0.930 . S
H728 C741 0.930 . S
H729 C745 0.959 . S
H730 C745 0.959 . S
H731 C745 0.961 . S
H732 C746 0.960 . S
H733 C746 0.961 . S
H734 C746 0.959 . S
H735 C749 0.910 1_554 S
H736 C750 0.931 1_554 S
H737 C752 0.930 . S
C738 H726 0.930 . S
C738 C739 1.399 . S
C738 C743 1.399 . S
C739 C738 1.399 . S
C739 C740 1.376 . S
C740 H727 0.930 . S
C740 C739 1.376 . S
C740 C741 1.388 . S
C741 H728 0.930 . S
C741 C740 1.388 . S
C741 C742 1.390 . S
C742 C741 1.390 . S
C742 C743 1.394 . S
C742 C748 1.465 . S
C743 C738 1.399 . S
C743 C742 1.394 . S
C743 C744 1.516 . S
C744 C743 1.516 . S
C744 C745 1.502 . S
C744 C746 1.561 . S
C744 C747 1.526 . S
C745 H729 0.959 . S
C745 H730 0.959 . S
C745 H731 0.961 . S
C745 C744 1.502 . S
C746 H732 0.960 . S
C746 H733 0.961 . S
C746 H734 0.959 . S
C746 C744 1.561 . S
C747 C744 1.526 . S
C747 C748 1.396 . S
C747 C752 1.390 . S
C748 C742 1.465 . S
C748 C747 1.396 . S
C748 C749 1.399 . S
C749 H735 0.910 1_556 S
C749 C748 1.399 . S
C749 C750 1.385 . S
C750 H736 0.931 1_556 S
C750 C749 1.385 . S
C750 C751 1.389 . S
C751 C750 1.389 . S
C751 C752 1.387 . S
C752 H737 0.930 . S
C752 C747 1.390 . S
C752 C751 1.387 . S
H753 C765 0.930 . S
H754 C767 0.930 . S
H755 C768 0.930 . S
H756 C772 0.959 . S
H757 C772 0.959 . S
H758 C772 0.961 . S
H759 C773 0.960 . S
H760 C773 0.961 . S
H761 C773 0.959 . S
H762 C776 0.929 . S
H763 C777 0.931 . S
H764 C779 0.930 . S
C765 H753 0.930 . S
C765 C766 1.399 . S
C765 C770 1.399 . S
C766 C765 1.399 . S
C766 C767 1.376 . S
C767 H754 0.930 . S
C767 C766 1.376 . S
C767 C768 1.388 . S
C768 H755 0.930 . S
C768 C767 1.388 . S
C768 C769 1.390 . S
C769 C768 1.390 . S
C769 C770 1.394 . S
C769 C775 1.465 . S
C770 C765 1.399 . S
C770 C769 1.394 . S
C770 C771 1.516 . S
C771 C770 1.516 . S
C771 C772 1.502 . S
C771 C773 1.561 . S
C771 C774 1.526 . S
C772 H756 0.959 . S
C772 H757 0.959 . S
C772 H758 0.961 . S
C772 C771 1.502 . S
C773 H759 0.960 . S
C773 H760 0.961 . S
C773 H761 0.959 . S
C773 C771 1.561 . S
C774 C771 1.526 . S
C774 C775 1.396 . S
C774 C779 1.390 . S
C775 C769 1.465 . S
C775 C774 1.396 . S
C775 C776 1.399 . S
C776 H762 0.929 . S
C776 C775 1.399 . S
C776 C777 1.385 . S
C777 H763 0.931 . S
C777 C776 1.385 . S
C777 C778 1.389 . S
C778 C777 1.389 . S
C778 C779 1.387 . S
C779 H764 0.930 . S
C779 C774 1.390 . S
C779 C778 1.387 . S
H780 C792 0.930 . S
H781 C794 0.930 . S
H782 C795 0.930 . S
H783 C799 0.959 . S
H784 C799 0.959 . S
H785 C799 0.961 . S
H786 C800 0.960 . S
H787 C800 0.961 . S
H788 C800 0.959 . S
H789 C803 0.929 . S
H790 C804 0.931 . S
H791 C806 0.930 . S
C792 H780 0.930 . S
C792 C793 1.399 . S
C792 C797 1.399 . S
C793 C792 1.399 . S
C793 C794 1.376 . S
C794 H781 0.930 . S
C794 C793 1.376 . S
C794 C795 1.388 . S
C795 H782 0.930 . S
C795 C794 1.388 . S
C795 C796 1.390 . S
C796 C795 1.390 . S
C796 C797 1.394 . S
C796 C802 1.465 . S
C797 C792 1.399 . S
C797 C796 1.394 . S
C797 C798 1.516 . S
C798 C797 1.516 . S
C798 C799 1.502 . S
C798 C800 1.561 . S
C798 C801 1.526 . S
C799 H783 0.959 . S
C799 H784 0.959 . S
C799 H785 0.961 . S
C799 C798 1.502 . S
C800 H786 0.960 . S
C800 H787 0.961 . S
C800 H788 0.959 . S
C800 C798 1.561 . S
C801 C798 1.526 . S
C801 C802 1.396 . S
C801 C806 1.390 . S
C802 C796 1.465 . S
C802 C801 1.396 . S
C802 C803 1.399 . S
C803 H789 0.929 . S
C803 C802 1.399 . S
C803 C804 1.385 . S
C804 H790 0.931 . S
C804 C803 1.385 . S
C804 C805 1.389 . S
C805 C804 1.389 . S
C805 C806 1.387 . S
C806 H791 0.930 . S
C806 C801 1.390 . S
C806 C805 1.387 . S
H807 C819 0.930 . S
H808 C821 0.930 . S
H809 C822 0.930 . S
H810 C826 0.959 1_556 S
H811 C826 0.959 . S
H812 C826 0.961 . S
H813 C827 0.960 . S
H814 C827 0.961 1_554 S
H815 C827 0.959 . S
H816 C830 0.929 . S
H817 C831 0.931 . S
H818 C833 0.930 1_554 S
C819 H807 0.930 . S
C819 C820 1.399 . S
C819 C824 1.399 . S
C820 C819 1.399 . S
C820 C821 1.376 . S
C821 H808 0.930 . S
C821 C820 1.376 . S
C821 C822 1.388 . S
C822 H809 0.930 . S
C822 C821 1.388 . S
C822 C823 1.390 . S
C823 C822 1.390 . S
C823 C824 1.394 . S
C823 C829 1.465 . S
C824 C819 1.399 . S
C824 C823 1.394 . S
C824 C825 1.516 . S
C825 C824 1.516 . S
C825 C826 1.502 1_556 S
C825 C827 1.561 . S
C825 C828 1.526 . S
C826 H810 0.959 1_554 S
C826 H811 0.959 . S
C826 H812 0.961 . S
C826 C825 1.502 1_554 S
C827 H813 0.960 . S
C827 H814 0.961 1_556 S
C827 H815 0.959 . S
C827 C825 1.561 . S
C828 C825 1.526 . S
C828 C829 1.396 . S
C828 C833 1.390 . S
C829 C823 1.465 . S
C829 C828 1.396 . S
C829 C830 1.399 . S
C830 H816 0.929 . S
C830 C829 1.399 . S
C830 C831 1.385 . S
C831 H817 0.931 . S
C831 C830 1.385 . S
C831 C832 1.389 . S
C832 C831 1.389 . S
C832 C833 1.387 . S
C833 H818 0.930 1_556 S
C833 C828 1.390 . S
C833 C832 1.387 . S
H834 C846 0.930 . S
H835 C848 0.930 . S
H836 C849 0.930 . S
H837 C853 0.959 . S
H838 C853 0.959 1_455 S
H839 C853 0.966 . S
H840 C854 0.960 . S
H841 C854 0.961 . S
H842 C854 0.959 . S
H843 C857 0.929 . S
H844 C858 0.931 . S
H845 C860 0.930 . S
C846 H834 0.930 . S
C846 C847 1.399 . S
C846 C851 1.399 . S
C847 C846 1.399 . S
C847 C848 1.376 . S
C848 H835 0.930 . S
C848 C847 1.376 . S
C848 C849 1.388 . S
C849 H836 0.930 . S
C849 C848 1.388 . S
C849 C850 1.390 . S
C850 C849 1.390 . S
C850 C851 1.394 . S
C850 C856 1.465 . S
C851 C846 1.399 . S
C851 C850 1.394 . S
C851 C852 1.516 . S
C852 C851 1.516 . S
C852 C853 1.502 . S
C852 C854 1.561 . S
C852 C855 1.526 . S
C853 H837 0.959 . S
C853 H838 0.959 1_655 S
C853 H839 0.966 . S
C853 C852 1.502 . S
C854 H840 0.960 . S
C854 H841 0.961 . S
C854 H842 0.959 . S
C854 C852 1.561 . S
C855 C852 1.526 . S
C855 C856 1.396 . S
C855 C860 1.390 . S
C856 C850 1.465 . S
C856 C855 1.396 . S
C856 C857 1.399 . S
C857 H843 0.929 . S
C857 C856 1.399 . S
C857 C858 1.385 . S
C858 H844 0.931 . S
C858 C857 1.385 . S
C858 C859 1.389 . S
C859 C858 1.389 . S
C859 C860 1.387 . S
C860 H845 0.930 . S
C860 C855 1.390 . S
C860 C859 1.387 . S
H861 C873 0.930 . S
H862 C875 0.930 . S
H863 C876 0.930 . S
H864 C880 0.959 . S
H865 C880 0.959 . S
H866 C880 0.961 . S
H867 C881 0.960 . S
H868 C881 0.961 . S
H869 C881 0.959 . S
H870 C884 0.929 . S
H871 C885 0.931 . S
H872 C887 0.930 . S
C873 H861 0.930 . S
C873 C874 1.399 . S
C873 C878 1.399 . S
C874 C873 1.399 . S
C874 C875 1.376 . S
C875 H862 0.930 . S
C875 C874 1.376 . S
C875 C876 1.388 . S
C876 H863 0.930 . S
C876 C875 1.388 . S
C876 C877 1.390 . S
C877 C876 1.390 . S
C877 C878 1.394 . S
C877 C883 1.465 . S
C878 C873 1.399 . S
C878 C877 1.394 . S
C878 C879 1.516 . S
C879 C878 1.516 . S
C879 C880 1.502 . S
C879 C881 1.561 . S
C879 C882 1.526 . S
C880 H864 0.959 . S
C880 H865 0.959 . S
C880 H866 0.961 . S
C880 C879 1.502 . S
C881 H867 0.960 . S
C881 H868 0.961 . S
C881 H869 0.959 . S
C881 C879 1.561 . S
C882 C879 1.526 . S
C882 C883 1.396 . S
C882 C887 1.390 . S
C883 C877 1.465 . S
C883 C882 1.396 . S
C883 C884 1.399 . S
C884 H870 0.929 . S
C884 C883 1.399 . S
C884 C885 1.385 . S
C885 H871 0.931 . S
C885 C884 1.385 . S
C885 C886 1.389 . S
C886 C885 1.389 . S
C886 C887 1.387 . S
C887 H872 0.930 . S
C887 C882 1.390 . S
C887 C886 1.387 . S
H888 C900 0.930 . S
H889 C902 0.930 . S
H890 C903 0.930 . S
H891 C907 0.959 . S
H892 C907 0.959 . S
H893 C907 0.961 . S
H894 C908 0.960 . S
H895 C908 0.961 . S
H896 C908 0.959 . S
H897 C911 0.929 . S
H898 C912 0.931 . S
H899 C914 0.930 . S
C900 H888 0.930 . S
C900 C901 1.400 . S
C900 C905 1.399 . S
C901 C900 1.400 . S
C901 C902 1.376 1_565 S
C902 H889 0.930 . S
C902 C901 1.376 1_545 S
C902 C903 1.388 . S
C903 H890 0.930 . S
C903 C902 1.388 . S
C903 C904 1.390 . S
C904 C903 1.390 . S
C904 C905 1.394 1_545 S
C904 C910 1.465 . S
C905 C900 1.399 . S
C905 C904 1.394 1_565 S
C905 C906 1.516 . S
C906 C905 1.516 . S
C906 C907 1.502 1_655 S
C906 C908 1.561 . S
C906 C909 1.526 . S
C907 H891 0.959 . S
C907 H892 0.959 . S
C907 H893 0.961 . S
C907 C906 1.502 1_455 S
C908 H894 0.960 . S
C908 H895 0.961 . S
C908 H896 0.959 . S
C908 C906 1.561 . S
C909 C906 1.526 . S
C909 C910 1.396 1_565 S
C909 C914 1.390 . S
C910 C904 1.465 . S
C910 C909 1.396 1_545 S
C910 C911 1.399 . S
C911 H897 0.929 . S
C911 C910 1.399 . S
C911 C912 1.385 . S
C912 H898 0.931 . S
C912 C911 1.385 . S
C912 C913 1.389 . S
C913 C912 1.389 . S
C913 C914 1.387 1_545 S
C914 H899 0.930 . S
C914 C909 1.390 . S
C914 C913 1.387 1_565 S
H915 C927 0.930 . S
H916 C929 0.930 . S
H917 C930 0.930 . S
H918 C934 0.959 1_545 S
H919 C934 0.959 . S
H920 C934 0.961 . S
H921 C935 0.960 . S
H922 C935 0.961 . S
H923 C935 0.959 . S
H924 C938 0.929 . S
H925 C939 0.931 . S
H926 C941 0.930 1_565 S
C927 H915 0.930 . S
C927 C928 1.399 . S
C927 C932 1.399 . S
C928 C927 1.399 . S
C928 C929 1.376 . S
C929 H916 0.930 . S
C929 C928 1.376 . S
C929 C930 1.388 . S
C930 H917 0.930 . S
C930 C929 1.388 . S
C930 C931 1.390 . S
C931 C930 1.390 . S
C931 C932 1.394 . S
C931 C937 1.465 . S
C932 C927 1.399 . S
C932 C931 1.394 . S
C932 C933 1.507 1_545 S
C933 C932 1.507 1_565 S
C933 C934 1.506 . S
C933 C935 1.573 . S
C933 C936 1.519 1_565 S
C934 H918 0.959 1_565 S
C934 H919 0.959 . S
C934 H920 0.961 . S
C934 C933 1.506 . S
C935 H921 0.960 . S
C935 H922 0.961 . S
C935 H923 0.959 . S
C935 C933 1.573 . S
C936 C933 1.519 1_545 S
C936 C937 1.396 . S
C936 C941 1.390 . S
C937 C931 1.465 . S
C937 C936 1.396 . S
C937 C938 1.399 . S
C938 H924 0.929 . S
C938 C937 1.399 . S
C938 C939 1.385 . S
C939 H925 0.931 . S
C939 C938 1.385 . S
C939 C940 1.389 . S
C940 C939 1.389 . S
C940 C941 1.387 . S
C941 H926 0.930 1_545 S
C941 C936 1.390 . S
C941 C940 1.387 . S
H942 C954 0.930 . S
H943 C956 0.930 . S
H944 C957 0.930 . S
H945 C961 0.959 . S
H946 C961 0.959 . S
H947 C961 0.961 . S
H948 C962 0.960 . S
H949 C962 0.961 . S
H950 C962 0.959 . S
H951 C965 0.929 . S
H952 C966 0.931 . S
H953 C968 0.930 . S
C954 H942 0.930 . S
C954 C955 1.399 . S
C954 C959 1.399 . S
C955 C954 1.399 . S
C955 C956 1.376 . S
C956 H943 0.930 . S
C956 C955 1.376 . S
C956 C957 1.388 . S
C957 H944 0.930 . S
C957 C956 1.388 . S
C957 C958 1.390 . S
C958 C957 1.390 . S
C958 C959 1.394 . S
C958 C964 1.465 . S
C959 C954 1.399 . S
C959 C958 1.394 . S
C959 C960 1.516 . S
C960 C959 1.516 . S
C960 C961 1.502 . S
C960 C962 1.561 . S
C960 C963 1.526 . S
C961 H945 0.959 . S
C961 H946 0.959 . S
C961 H947 0.961 . S
C961 C960 1.502 . S
C962 H948 0.960 . S
C962 H949 0.961 . S
C962 H950 0.959 . S
C962 C960 1.561 . S
C963 C960 1.526 . S
C963 C964 1.396 . S
C963 C968 1.390 . S
C964 C958 1.465 . S
C964 C963 1.396 . S
C964 C965 1.399 . S
C965 H951 0.929 . S
C965 C964 1.399 . S
C965 C966 1.385 . S
C966 H952 0.931 . S
C966 C965 1.385 . S
C966 C967 1.389 . S
C967 C966 1.389 . S
C967 C968 1.387 . S
C968 H953 0.930 . S
C968 C963 1.390 . S
C968 C967 1.387 . S
H969 C981 0.930 . S
H970 C983 0.930 . S
H971 C984 0.930 . S
H972 C988 0.959 1_655 S
H973 C988 0.959 . S
H974 C988 0.967 . S
H975 C989 0.960 . S
H976 C989 0.961 . S
H977 C989 0.959 . S
H978 C992 0.929 . S
H979 C993 0.931 . S
H980 C995 0.930 . S
C981 H969 0.930 . S
C981 C982 1.399 . S
C981 C986 1.399 . S
C982 C981 1.399 . S
C982 C983 1.376 . S
C983 H970 0.930 . S
C983 C982 1.376 . S
C983 C984 1.388 . S
C984 H971 0.930 . S
C984 C983 1.388 . S
C984 C985 1.390 . S
C985 C984 1.390 . S
C985 C986 1.394 . S
C985 C991 1.465 . S
C986 C981 1.399 . S
C986 C985 1.394 . S
C986 C987 1.516 . S
C987 C986 1.516 . S
C987 C988 1.502 . S
C987 C989 1.561 . S
C987 C990 1.526 . S
C988 H972 0.959 1_455 S
C988 H973 0.959 . S
C988 H974 0.967 . S
C988 C987 1.502 . S
C989 H975 0.960 . S
C989 H976 0.961 . S
C989 H977 0.959 . S
C989 C987 1.561 . S
C990 C987 1.526 . S
C990 C991 1.396 . S
C990 C995 1.390 . S
C991 C985 1.465 . S
C991 C990 1.396 . S
C991 C992 1.399 . S
C992 H978 0.929 . S
C992 C991 1.399 . S
C992 C993 1.385 . S
C993 H979 0.931 . S
C993 C992 1.385 . S
C993 C994 1.389 . S
C994 C993 1.389 . S
C994 C995 1.387 . S
C995 H980 0.930 . S
C995 C990 1.390 . S
C995 C994 1.387 . S
H996 C1008 0.930 . S
H997 C1010 0.930 . S
H998 C1011 0.930 . S
H999 C1015 0.959 . S
H1000 C1015 0.968 . S
H1001 C1015 0.961 . S
H1002 C1016 0.960 . S
H1003 C1016 0.961 . S
H1004 C1016 0.959 . S
H1005 C1019 0.929 . S
H1006 C1020 0.931 . S
H1007 C1022 0.930 1_556 S
C1008 H996 0.930 . S
C1008 C1009 1.399 1_545 S
C1008 C1013 1.406 . S
C1009 C1008 1.399 1_565 S
C1009 C1010 1.376 1_556 S
C1010 H997 0.930 . S
C1010 C1009 1.376 1_554 S
C1010 C1011 1.388 . S
C1011 H998 0.930 . S
C1011 C1010 1.388 . S
C1011 C1012 1.390 . S
C1012 C1011 1.390 . S
C1012 C1013 1.360 1_564 S
C1012 C1018 1.465 . S
C1013 C1008 1.406 . S
C1013 C1012 1.360 1_546 S
C1013 C1014 1.539 . S
C1014 C1013 1.539 . S
C1014 C1015 1.502 1_556 S
C1014 C1016 1.561 . S
C1014 C1017 1.526 1_556 S
C1015 H999 0.959 . S
C1015 H1000 0.968 . S
C1015 H1001 0.961 . S
C1015 C1014 1.502 1_554 S
C1016 H1002 0.960 . S
C1016 H1003 0.961 . S
C1016 H1004 0.959 . S
C1016 C1014 1.561 . S
C1017 C1014 1.526 1_554 S
C1017 C1018 1.396 1_545 S
C1017 C1022 1.390 . S
C1018 C1012 1.465 . S
C1018 C1017 1.396 1_565 S
C1018 C1019 1.399 . S
C1019 H1005 0.929 . S
C1019 C1018 1.399 . S
C1019 C1020 1.385 . S
C1020 H1006 0.931 . S
C1020 C1019 1.385 . S
C1020 C1021 1.389 . S
C1021 C1020 1.389 . S
C1021 C1022 1.387 1_565 S
C1022 H1007 0.930 1_554 S
C1022 C1017 1.390 . S
C1022 C1021 1.387 1_545 S
H1023 C1035 0.930 . S
H1024 C1037 0.930 . S
H1025 C1038 0.930 . S
H1026 C1042 0.959 . S
H1027 C1042 0.959 . S
H1028 C1042 0.961 . S
H1029 C1043 0.960 . S
H1030 C1043 0.961 . S
H1031 C1043 0.959 . S
H1032 C1046 0.929 . S
H1033 C1047 0.931 . S
H1034 C1049 0.930 . S
C1035 H1023 0.930 . S
C1035 C1036 1.399 . S
C1035 C1040 1.399 . S
C1036 C1035 1.399 . S
C1036 C1037 1.376 . S
C1037 H1024 0.930 . S
C1037 C1036 1.376 . S
C1037 C1038 1.388 . S
C1038 H1025 0.930 . S
C1038 C1037 1.388 . S
C1038 C1039 1.390 . S
C1039 C1038 1.390 . S
C1039 C1040 1.394 . S
C1039 C1045 1.465 . S
C1040 C1035 1.399 . S
C1040 C1039 1.394 . S
C1040 C1041 1.516 . S
C1041 C1040 1.516 . S
C1041 C1042 1.502 . S
C1041 C1043 1.561 . S
C1041 C1044 1.526 . S
C1042 H1026 0.959 . S
C1042 H1027 0.959 . S
C1042 H1028 0.961 . S
C1042 C1041 1.502 . S
C1043 H1029 0.960 . S
C1043 H1030 0.961 . S
C1043 H1031 0.959 . S
C1043 C1041 1.561 . S
C1044 C1041 1.526 . S
C1044 C1045 1.396 . S
C1044 C1049 1.390 . S
C1045 C1039 1.465 . S
C1045 C1044 1.396 . S
C1045 C1046 1.399 . S
C1046 H1032 0.929 . S
C1046 C1045 1.399 . S
C1046 C1047 1.385 . S
C1047 H1033 0.931 . S
C1047 C1046 1.385 . S
C1047 C1048 1.389 . S
C1048 C1047 1.389 . S
C1048 C1049 1.387 . S
C1049 H1034 0.930 . S
C1049 C1044 1.390 . S
C1049 C1048 1.387 . S
H1050 C1062 0.930 . S
H1051 C1064 0.930 . S
H1052 C1065 0.930 . S
H1053 C1069 0.959 . S
H1054 C1069 0.959 . S
H1055 C1069 0.961 . S
H1056 C1070 0.960 . S
H1057 C1070 0.961 . S
H1058 C1070 0.959 . S
H1059 C1073 0.929 . S
H1060 C1074 0.931 . S
H1061 C1076 0.930 . S
C1062 H1050 0.930 . S
C1062 C1063 1.399 . S
C1062 C1067 1.399 . S
C1063 C1062 1.399 . S
C1063 C1064 1.376 . S
C1064 H1051 0.930 . S
C1064 C1063 1.376 . S
C1064 C1065 1.388 . S
C1065 H1052 0.930 . S
C1065 C1064 1.388 . S
C1065 C1066 1.390 . S
C1066 C1065 1.390 . S
C1066 C1067 1.394 . S
C1066 C1072 1.465 . S
C1067 C1062 1.399 . S
C1067 C1066 1.394 . S
C1067 C1068 1.516 . S
C1068 C1067 1.516 . S
C1068 C1069 1.502 . S
C1068 C1070 1.561 . S
C1068 C1071 1.526 . S
C1069 H1053 0.959 . S
C1069 H1054 0.959 . S
C1069 H1055 0.961 . S
C1069 C1068 1.502 . S
C1070 H1056 0.960 . S
C1070 H1057 0.961 . S
C1070 H1058 0.959 . S
C1070 C1068 1.561 . S
C1071 C1068 1.526 . S
C1071 C1072 1.396 . S
C1071 C1076 1.390 . S
C1072 C1066 1.465 . S
C1072 C1071 1.396 . S
C1072 C1073 1.399 . S
C1073 H1059 0.929 . S
C1073 C1072 1.399 . S
C1073 C1074 1.385 . S
C1074 H1060 0.931 . S
C1074 C1073 1.385 . S
C1074 C1075 1.389 . S
C1075 C1074 1.389 . S
C1075 C1076 1.387 . S
C1076 H1061 0.930 . S
C1076 C1071 1.390 . S
C1076 C1075 1.387 . S
H1077 C1089 0.930 . S
H1078 C1091 0.930 . S
H1079 C1092 0.930 . S
H1080 C1096 0.959 . S
H1081 C1096 0.959 . S
H1082 C1096 0.961 . S
H1083 C1097 0.960 . S
H1084 C1097 0.961 . S
H1085 C1097 0.959 . S
H1086 C1100 0.929 . S
H1087 C1101 0.931 . S
H1088 C1103 0.930 . S
C1089 H1077 0.930 . S
C1089 C1090 1.399 . S
C1089 C1094 1.399 . S
C1090 C1089 1.399 . S
C1090 C1091 1.376 . S
C1091 H1078 0.930 . S
C1091 C1090 1.376 . S
C1091 C1092 1.388 . S
C1092 H1079 0.930 . S
C1092 C1091 1.388 . S
C1092 C1093 1.390 . S
C1093 C1092 1.390 . S
C1093 C1094 1.394 . S
C1093 C1099 1.465 . S
C1094 C1089 1.399 . S
C1094 C1093 1.394 . S
C1094 C1095 1.516 . S
C1095 C1094 1.516 . S
C1095 C1096 1.502 . S
C1095 C1097 1.561 . S
C1095 C1098 1.526 . S
C1096 H1080 0.959 . S
C1096 H1081 0.959 . S
C1096 H1082 0.961 . S
C1096 C1095 1.502 . S
C1097 H1083 0.960 . S
C1097 H1084 0.961 . S
C1097 H1085 0.959 . S
C1097 C1095 1.561 . S
C1098 C1095 1.526 . S
C1098 C1099 1.396 . S
C1098 C1103 1.390 . S
C1099 C1093 1.465 . S
C1099 C1098 1.396 . S
C1099 C1100 1.399 . S
C1100 H1086 0.929 . S
C1100 C1099 1.399 . S
C1100 C1101 1.385 . S
C1101 H1087 0.931 . S
C1101 C1100 1.385 . S
C1101 C1102 1.389 . S
C1102 C1101 1.389 . S
C1102 C1103 1.387 . S
C1103 H1088 0.930 . S
C1103 C1098 1.390 . S
C1103 C1102 1.387 . S
H1104 C1116 0.930 . S
H1105 C1118 0.930 . S
H1106 C1119 0.930 . S
H1107 C1123 0.959 . S
H1108 C1123 0.959 . S
H1109 C1123 0.961 . S
H1110 C1124 0.960 . S
H1111 C1124 0.961 . S
H1112 C1124 0.959 . S
H1113 C1127 0.929 . S
H1114 C1128 0.931 . S
H1115 C1130 0.930 . S
C1116 H1104 0.930 . S
C1116 C1117 1.399 . S
C1116 C1121 1.399 1_655 S
C1117 C1116 1.399 . S
C1117 C1118 1.374 1_656 S
C1118 H1105 0.930 . S
C1118 C1117 1.374 1_454 S
C1118 C1119 1.391 . S
C1119 H1106 0.930 . S
C1119 C1118 1.391 . S
C1119 C1120 1.390 . S
C1120 C1119 1.390 . S
C1120 C1121 1.394 1_554 S
C1120 C1126 1.465 . S
C1121 C1116 1.399 1_455 S
C1121 C1120 1.394 1_556 S
C1121 C1122 1.516 . S
C1122 C1121 1.516 . S
C1122 C1123 1.502 1_455 S
C1122 C1124 1.561 . S
C1122 C1125 1.526 . S
C1123 H1107 0.959 . S
C1123 H1108 0.959 . S
C1123 H1109 0.961 . S
C1123 C1122 1.502 1_655 S
C1124 H1110 0.960 . S
C1124 H1111 0.961 . S
C1124 H1112 0.959 . S
C1124 C1122 1.561 . S
C1125 C1122 1.526 . S
C1125 C1126 1.396 1_556 S
C1125 C1130 1.390 . S
C1126 C1120 1.465 . S
C1126 C1125 1.396 1_554 S
C1126 C1127 1.399 . S
C1127 H1113 0.929 . S
C1127 C1126 1.399 . S
C1127 C1128 1.385 . S
C1128 H1114 0.931 . S
C1128 C1127 1.385 . S
C1128 C1129 1.389 1_554 S
C1129 C1128 1.389 1_556 S
C1129 C1130 1.387 . S
C1130 H1115 0.930 . S
C1130 C1125 1.390 . S
C1130 C1129 1.387 . S
H1131 C1143 0.930 . S
H1132 C1145 0.930 . S
H1133 C1146 0.930 1_556 S
H1134 C1150 0.959 . S
H1135 C1150 0.959 . S
H1136 C1150 0.961 . S
H1137 C1151 0.960 . S
H1138 C1151 0.961 . S
H1139 C1151 0.959 . S
H1140 C1154 0.929 1_556 S
H1141 C1155 0.931 1_556 S
H1142 C1157 0.930 . S
C1143 H1131 0.930 . S
C1143 C1144 1.399 . S
C1143 C1148 1.399 . S
C1144 C1143 1.399 . S
C1144 C1145 1.376 . S
C1145 H1132 0.930 . S
C1145 C1144 1.376 . S
C1145 C1146 1.388 . S
C1146 H1133 0.930 1_554 S
C1146 C1145 1.388 . S
C1146 C1147 1.390 . S
C1147 C1146 1.390 . S
C1147 C1148 1.394 . S
C1147 C1153 1.465 . S
C1148 C1143 1.399 . S
C1148 C1147 1.394 . S
C1148 C1149 1.516 . S
C1149 C1148 1.516 . S
C1149 C1150 1.502 . S
C1149 C1151 1.561 . S
C1149 C1152 1.526 . S
C1150 H1134 0.959 . S
C1150 H1135 0.959 . S
C1150 H1136 0.961 . S
C1150 C1149 1.502 . S
C1151 H1137 0.960 . S
C1151 H1138 0.961 . S
C1151 H1139 0.959 . S
C1151 C1149 1.561 . S
C1152 C1149 1.526 . S
C1152 C1153 1.396 . S
C1152 C1157 1.390 . S
C1153 C1147 1.465 . S
C1153 C1152 1.396 . S
C1153 C1154 1.399 . S
C1154 H1140 0.929 1_554 S
C1154 C1153 1.399 . S
C1154 C1155 1.385 . S
C1155 H1141 0.931 1_554 S
C1155 C1154 1.385 . S
C1155 C1156 1.389 . S
C1156 C1155 1.389 . S
C1156 C1157 1.387 . S
C1157 H1142 0.930 . S
C1157 C1152 1.390 . S
C1157 C1156 1.387 . S
H1158 C1170 0.930 . S
H1159 C1172 0.930 . S
H1160 C1173 0.930 1_655 S
H1161 C1177 0.959 . S
H1162 C1177 0.959 . S
H1163 C1177 0.961 . S
H1164 C1178 0.960 . S
H1165 C1178 0.961 . S
H1166 C1178 0.959 . S
H1167 C1181 0.929 . S
H1168 C1182 0.950 . S
H1169 C1184 0.930 . S
C1170 H1158 0.930 . S
C1170 C1171 1.399 . S
C1170 C1175 1.399 . S
C1171 C1170 1.399 . S
C1171 C1172 1.376 . S
C1172 H1159 0.930 . S
C1172 C1171 1.376 . S
C1172 C1173 1.388 . S
C1173 H1160 0.930 1_455 S
C1173 C1172 1.388 . S
C1173 C1174 1.390 . S
C1174 C1173 1.390 . S
C1174 C1175 1.394 . S
C1174 C1180 1.465 . S
C1175 C1170 1.399 . S
C1175 C1174 1.394 . S
C1175 C1176 1.516 . S
C1176 C1175 1.516 . S
C1176 C1177 1.502 . S
C1176 C1178 1.561 . S
C1176 C1179 1.526 . S
C1177 H1161 0.959 . S
C1177 H1162 0.959 . S
C1177 H1163 0.961 . S
C1177 C1176 1.502 . S
C1178 H1164 0.960 . S
C1178 H1165 0.961 . S
C1178 H1166 0.959 . S
C1178 C1176 1.561 . S
C1179 C1176 1.526 . S
C1179 C1180 1.396 . S
C1179 C1184 1.390 . S
C1180 C1174 1.465 . S
C1180 C1179 1.396 . S
C1180 C1181 1.399 1_455 S
C1181 H1167 0.929 . S
C1181 C1180 1.399 1_655 S
C1181 C1182 1.386 . S
C1182 H1168 0.950 . S
C1182 C1181 1.386 . S
C1182 C1183 1.370 1_655 S
C1183 C1182 1.370 1_455 S
C1183 C1184 1.387 . S
C1184 H1169 0.930 . S
C1184 C1179 1.390 . S
C1184 C1183 1.387 . S
H1185 C1197 0.930 . S
H1186 C1199 0.930 . S
H1187 C1200 0.930 . S
H1188 C1204 0.959 . S
H1189 C1204 0.959 . S
H1190 C1204 0.961 . S
H1191 C1205 0.960 . S
H1192 C1205 0.961 . S
H1193 C1205 0.959 . S
H1194 C1208 0.929 . S
H1195 C1209 0.931 . S
H1196 C1211 0.930 . S
C1197 H1185 0.930 . S
C1197 C1198 1.399 . S
C1197 C1202 1.399 . S
C1198 C1197 1.399 . S
C1198 C1199 1.376 . S
C1199 H1186 0.930 . S
C1199 C1198 1.376 . S
C1199 C1200 1.388 . S
C1200 H1187 0.930 . S
C1200 C1199 1.388 . S
C1200 C1201 1.390 . S
C1201 C1200 1.390 . S
C1201 C1202 1.394 . S
C1201 C1207 1.465 . S
C1202 C1197 1.399 . S
C1202 C1201 1.394 . S
C1202 C1203 1.516 . S
C1203 C1202 1.516 . S
C1203 C1204 1.502 . S
C1203 C1205 1.561 . S
C1203 C1206 1.526 . S
C1204 H1188 0.959 . S
C1204 H1189 0.959 . S
C1204 H1190 0.961 . S
C1204 C1203 1.502 . S
C1205 H1191 0.960 . S
C1205 H1192 0.961 . S
C1205 H1193 0.959 . S
C1205 C1203 1.561 . S
C1206 C1203 1.526 . S
C1206 C1207 1.396 . S
C1206 C1211 1.390 . S
C1207 C1201 1.465 . S
C1207 C1206 1.396 . S
C1207 C1208 1.399 . S
C1208 H1194 0.929 . S
C1208 C1207 1.399 . S
C1208 C1209 1.385 . S
C1209 H1195 0.931 . S
C1209 C1208 1.385 . S
C1209 C1210 1.389 . S
C1210 C1209 1.389 . S
C1210 C1211 1.387 . S
C1211 H1196 0.930 . S
C1211 C1206 1.390 . S
C1211 C1210 1.387 . S
C577 C1 1.492 . S
C589 C483 1.466 . S
C604 C80 1.497 . S
C616 C517 1.366 . S
C643 C529 1.439 . S
C631 C140 1.466 . S
C658 C211 1.492 . S
C670 C563 1.381 . S
C697 C520 1.452 . S
C685 C31 1.481 . S
C724 C500 1.359 . S
C712 C61 1.505 . S
C751 C547 1.331 . S
C739 C151 1.452 . S
C778 C538 1.436 . S
C766 C200 1.486 . S
C793 C20 1.498 . S
C805 C546 1.469 . S
C832 C508 1.378 . S
C820 C121 1.449 . S
C847 C181 1.462 . S
C859 C484 1.448 . S
C874 C91 1.466 . S
C886 C541 1.445 . S
C913 C499 1.566 . S
C901 C260 1.701 . S
C928 C320 1.620 . S
C940 C521 1.659 . S
C955 C361 1.762 . S
C967 C526 1.681 . S
C982 C451 1.681 . S
C994 C559 1.601 . S
C1009 C271 1.699 . S
C1021 C504 1.600 . S
C1048 C496 1.612 . S
C1036 C301 1.701 . S
C1075 C550 1.601 . S
C1063 C380 1.713 . S
C1102 C542 1.623 . S
C1090 C440 1.681 . S
C1117 C241 1.728 . S
C1129 C562 1.622 . S
C1156 C505 1.644 . S
C1144 C391 1.762 . S
C1183 C487 1.563 . S
C1171 C421 1.642 . S
C1198 C331 1.599 . S
C1210 C525 1.634 . S
