# Generated by pormake.
# Topology pyr, (3,6)-cn, num edge types: 1
# Building blocks:
#     Node 0, Type 0, BuildingBlock: VETTIZ_charged_linker_0, # of connection points: 3
#     Node 1, Type 0, BuildingBlock: VETTIZ_charged_linker_0, # of connection points: 3
#     Node 2, Type 0, BuildingBlock: VETTIZ_charged_linker_0, # of connection points: 3
#     Node 3, Type 0, BuildingBlock: VETTIZ_charged_linker_0, # of connection points: 3
#     Node 4, Type 0, BuildingBlock: VETTIZ_charged_linker_0, # of connection points: 3
#     Node 5, Type 0, BuildingBlock: VETTIZ_charged_linker_0, # of connection points: 3
#     Node 6, Type 0, BuildingBlock: VETTIZ_charged_linker_0, # of connection points: 3
#     Node 7, Type 0, BuildingBlock: VETTIZ_charged_linker_0, # of connection points: 3
#     Node 8, Type 1, BuildingBlock: BETFEN_clean_sbu_0, # of connection points: 6
#     Node 9, Type 1, BuildingBlock: BETFEN_clean_sbu_0, # of connection points: 6
#     Node 10, Type 1, BuildingBlock: BETFEN_clean_sbu_0, # of connection points: 6
#     Node 11, Type 1, BuildingBlock: BETFEN_clean_sbu_0, # of connection points: 6
#     Edge 12, Type (0, 1), BuildingBlock: ZUJKAS_clean_linker_0, # of connection points: 2
#     Edge 13, Type (0, 1), BuildingBlock: ZUJKAS_clean_linker_0, # of connection points: 2
#     Edge 14, Type (0, 1), BuildingBlock: ZUJKAS_clean_linker_0, # of connection points: 2
#     Edge 15, Type (0, 1), BuildingBlock: ZUJKAS_clean_linker_0, # of connection points: 2
#     Edge 16, Type (0, 1), BuildingBlock: ZUJKAS_clean_linker_0, # of connection points: 2
#     Edge 17, Type (0, 1), BuildingBlock: ZUJKAS_clean_linker_0, # of connection points: 2
#     Edge 18, Type (0, 1), BuildingBlock: ZUJKAS_clean_linker_0, # of connection points: 2
#     Edge 19, Type (0, 1), BuildingBlock: ZUJKAS_clean_linker_0, # of connection points: 2
#     Edge 20, Type (0, 1), BuildingBlock: ZUJKAS_clean_linker_0, # of connection points: 2
#     Edge 21, Type (0, 1), BuildingBlock: ZUJKAS_clean_linker_0, # of connection points: 2
#     Edge 22, Type (0, 1), BuildingBlock: ZUJKAS_clean_linker_0, # of connection points: 2
#     Edge 23, Type (0, 1), BuildingBlock: ZUJKAS_clean_linker_0, # of connection points: 2
#     Edge 24, Type (0, 1), BuildingBlock: ZUJKAS_clean_linker_0, # of connection points: 2
#     Edge 25, Type (0, 1), BuildingBlock: ZUJKAS_clean_linker_0, # of connection points: 2
#     Edge 26, Type (0, 1), BuildingBlock: ZUJKAS_clean_linker_0, # of connection points: 2
#     Edge 27, Type (0, 1), BuildingBlock: ZUJKAS_clean_linker_0, # of connection points: 2
#     Edge 28, Type (0, 1), BuildingBlock: ZUJKAS_clean_linker_0, # of connection points: 2
#     Edge 29, Type (0, 1), BuildingBlock: ZUJKAS_clean_linker_0, # of connection points: 2
#     Edge 30, Type (0, 1), BuildingBlock: ZUJKAS_clean_linker_0, # of connection points: 2
#     Edge 31, Type (0, 1), BuildingBlock: ZUJKAS_clean_linker_0, # of connection points: 2
#     Edge 32, Type (0, 1), BuildingBlock: ZUJKAS_clean_linker_0, # of connection points: 2
#     Edge 33, Type (0, 1), BuildingBlock: ZUJKAS_clean_linker_0, # of connection points: 2
#     Edge 34, Type (0, 1), BuildingBlock: ZUJKAS_clean_linker_0, # of connection points: 2
#     Edge 35, Type (0, 1), BuildingBlock: ZUJKAS_clean_linker_0, # of connection points: 2
# Relax obj value: 0.111
# Max RMSD: 0.215
# Mean RMSD: 0.105
data_MOF--net-pyr--node1-BETFEN_clean_sbu_0--node2-VETTIZ_charged_linker_0--edge1-ZUJKAS_clean_linker_0
_symmetry_space_group_name_H-M    P1
_symmetry_Int_Tables_number       1
_symmetry_cell_setting            triclinic
loop_
_symmetry_equiv_pos_as_xyz
'x, y, z'
_cell_length_a     56.361854
_cell_length_b     59.282007
_cell_length_c     56.072526
_cell_angle_alpha  91.090916
_cell_angle_beta   97.710231
_cell_angle_gamma 103.91373
loop_
_atom_site_label
_atom_site_type_symbol
_atom_site_fract_x
_atom_site_fract_y
_atom_site_fract_z
_atom_type_partial_charge
C0 C 0.2696 0.27015 0.32755 0.0
C1 C 0.2484 0.27786 0.33057 0.0
C2 C 0.24339 0.2966 0.31738 0.0
C3 C 0.27929 0.29836 0.29732 0.0
C4 C 0.28468 0.28057 0.31091 0.0
C5 C 0.30689 0.27332 0.3044 0.0
H6 H 0.39148 0.27927 0.22875 0.0
C7 C 0.29755 0.3041 0.28037 0.0
C8 C 0.31392 0.28966 0.2846 0.0
H9 H 0.37719 0.23279 0.2866 0.0
H10 H 0.34827 0.25318 0.29856 0.0
H11 H 0.3882 0.32765 0.2584 0.0
H12 H 0.3373 0.27521 0.21016 0.0
H13 H 0.33087 0.30187 0.20267 0.0
H14 H 0.36082 0.29728 0.19969 0.0
H15 H 0.39003 0.32509 0.22678 0.0
H16 H 0.3708 0.3419 0.2382 0.0
C17 C 0.32706 0.27818 0.32681 0.0
C18 C 0.29848 0.24748 0.29488 0.0
C19 C 0.28607 0.3598 0.21482 0.0
C20 C 0.29812 0.36647 0.19475 0.0
C21 C 0.31976 0.35927 0.19221 0.0
C22 C 0.32873 0.34496 0.20898 0.0
C23 C 0.31569 0.33747 0.22826 0.0
C24 C 0.29505 0.34532 0.23119 0.0
C25 C 0.28305 0.3351 0.25223 0.0
C26 C 0.29974 0.31956 0.26132 0.0
C27 C 0.31871 0.3209 0.24713 0.0
C28 C 0.28441 0.35518 0.27085 0.0
C29 C 0.25647 0.3209 0.24248 0.0
C30 C 0.38227 0.27355 0.24411 0.0
C31 C 0.38657 0.25419 0.25655 0.0
C32 C 0.37448 0.24771 0.27674 0.0
C33 C 0.35738 0.25941 0.2835 0.0
C34 C 0.35197 0.27757 0.26975 0.0
C35 C 0.36477 0.28474 0.25079 0.0
C36 C 0.35579 0.30357 0.23748 0.0
C37 C 0.33533 0.30636 0.25146 0.0
C38 C 0.33311 0.29102 0.27026 0.0
C39 C 0.37726 0.32576 0.2401 0.0
C40 C 0.34579 0.29426 0.21107 0.0
H41 H 0.25377 0.32092 0.29114 0.0
H42 H 0.2738 0.25557 0.33712 0.0
H43 H 0.27937 0.24346 0.28491 0.0
H44 H 0.30976 0.24301 0.28174 0.0
H45 H 0.29858 0.23556 0.30991 0.0
H46 H 0.3268 0.29432 0.33714 0.0
H47 H 0.32412 0.26366 0.33917 0.0
H48 H 0.34595 0.28132 0.3221 0.0
H49 H 0.26914 0.36467 0.21708 0.0
H50 H 0.32947 0.36434 0.177 0.0
H51 H 0.34505 0.33971 0.20588 0.0
H52 H 0.30165 0.36911 0.27096 0.0
H53 H 0.26856 0.36323 0.2666 0.0
H54 H 0.28511 0.34955 0.28955 0.0
H55 H 0.25596 0.31192 0.22474 0.0
H56 H 0.2492 0.30683 0.25408 0.0
H57 H 0.24349 0.33238 0.23993 0.0
H58 H 0.22735 0.30305 0.3196 0.0
C59 C 0.25879 0.30697 0.30089 0.0
C60 C 0.20004 0.83225 0.66526 0.0
C61 C 0.1885 0.84697 0.67703 0.0
C62 C 0.19623 0.85293 0.7018 0.0
C63 C 0.22739 0.83104 0.70231 0.0
C64 C 0.21936 0.82446 0.67825 0.0
C65 C 0.23412 0.80915 0.66859 0.0
H66 H 0.33301 0.76187 0.68649 0.0
C67 C 0.24876 0.82136 0.71024 0.0
C68 C 0.25276 0.80834 0.69064 0.0
H69 H 0.27944 0.75472 0.62228 0.0
H70 H 0.25659 0.77733 0.64233 0.0
H71 H 0.33789 0.81477 0.69804 0.0
H72 H 0.2934 0.75319 0.72385 0.0
H73 H 0.30484 0.77306 0.74878 0.0
H74 H 0.32618 0.7627 0.73276 0.0
H75 H 0.35058 0.79753 0.71986 0.0
H76 H 0.33754 0.82084 0.72869 0.0
C77 C 0.24665 0.82151 0.64783 0.0
C78 C 0.21661 0.78492 0.66109 0.0
C79 C 0.29746 0.84514 0.79355 0.0
C80 C 0.31994 0.84154 0.80502 0.0
C81 C 0.33133 0.8265 0.79346 0.0
C82 C 0.321 0.81593 0.77064 0.0
C83 C 0.29913 0.82058 0.75901 0.0
C84 C 0.28759 0.83473 0.77061 0.0
C85 C 0.26504 0.83846 0.75517 0.0
C86 C 0.26505 0.8243 0.73232 0.0
C87 C 0.28504 0.81389 0.73469 0.0
C88 C 0.2694 0.86486 0.75099 0.0
C89 C 0.24224 0.82817 0.76773 0.0
C90 C 0.31644 0.76529 0.67667 0.0
C91 C 0.30816 0.75677 0.6527 0.0
C92 C 0.28617 0.76113 0.64077 0.0
C93 C 0.27302 0.77432 0.65241 0.0
C94 C 0.2819 0.78315 0.67626 0.0
C95 C 0.3031 0.77826 0.68804 0.0
C96 C 0.30976 0.78863 0.71339 0.0
C97 C 0.28907 0.80059 0.71501 0.0
C98 C 0.27289 0.79757 0.69316 0.0
C99 C 0.33532 0.80627 0.71535 0.0
C100 C 0.30872 0.76849 0.73075 0.0
H101 H 0.22064 0.85048 0.73316 0.0
H102 H 0.19432 0.82707 0.64633 0.0
H103 H 0.20215 0.78044 0.6731 0.0
H104 H 0.22624 0.77073 0.66276 0.0
H105 H 0.2071 0.78445 0.64234 0.0
H106 H 0.25439 0.84038 0.65273 0.0
H107 H 0.23318 0.8199 0.63112 0.0
H108 H 0.26239 0.81486 0.64371 0.0
H109 H 0.28797 0.85631 0.80197 0.0
H110 H 0.3488 0.82358 0.8016 0.0
H111 H 0.33084 0.80505 0.76268 0.0
H112 H 0.28917 0.87275 0.74964 0.0
H113 H 0.26436 0.87431 0.76608 0.0
H114 H 0.25931 0.86863 0.73388 0.0
H115 H 0.24461 0.81258 0.77762 0.0
H116 H 0.22512 0.82188 0.75484 0.0
H117 H 0.23931 0.84105 0.78097 0.0
H118 H 0.18795 0.86444 0.7113 0.0
C119 C 0.21545 0.84498 0.71447 0.0
C120 C 0.6156 0.25156 0.86816 0.0
C121 C 0.59128 0.23934 0.85942 0.0
C122 C 0.57807 0.24825 0.84018 0.0
C123 C 0.61335 0.28106 0.83899 0.0
C124 C 0.62612 0.27223 0.85789 0.0
C125 C 0.65134 0.2876 0.86615 0.0
H126 H 0.73592 0.38884 0.8605 0.0
C127 C 0.62957 0.30331 0.83306 0.0
C128 C 0.65179 0.30717 0.84912 0.0
H129 H 0.74107 0.33307 0.90788 0.0
H130 H 0.70145 0.3103 0.88848 0.0
H131 H 0.67829 0.38664 0.86138 0.0
H132 H 0.7176 0.35683 0.81396 0.0
H133 H 0.69163 0.36117 0.79541 0.0
H134 H 0.71395 0.3859 0.81101 0.0
H135 H 0.69764 0.40313 0.84164 0.0
H136 H 0.66543 0.39004 0.83171 0.0
C137 C 0.65229 0.29602 0.89271 0.0
C138 C 0.67073 0.27379 0.8621 0.0
C139 C 0.60145 0.35134 0.76477 0.0
C140 C 0.613 0.37289 0.75622 0.0
C141 C 0.63701 0.38437 0.76709 0.0
C142 C 0.64917 0.37501 0.78631 0.0
C143 C 0.63736 0.35381 0.79498 0.0
C144 C 0.61397 0.34216 0.78423 0.0
C145 C 0.60457 0.3198 0.79625 0.0
C146 C 0.62639 0.3199 0.81558 0.0
C147 C 0.64538 0.34003 0.81472 0.0
C148 C 0.58138 0.32174 0.80732 0.0
C149 C 0.59992 0.2993 0.77738 0.0
C150 C 0.72837 0.37177 0.86674 0.0
C151 C 0.7414 0.36279 0.88587 0.0
C152 C 0.73132 0.3403 0.89314 0.0
C153 C 0.70827 0.32718 0.88191 0.0
C154 C 0.69518 0.33657 0.8631 0.0
C155 C 0.7055 0.35833 0.85553 0.0
C156 C 0.68952 0.36509 0.83459 0.0
C157 C 0.6675 0.3441 0.83133 0.0
C158 C 0.67082 0.3276 0.84821 0.0
C159 C 0.68236 0.38747 0.84249 0.0
C160 C 0.70381 0.36757 0.81257 0.0
H161 H 0.57809 0.27484 0.81521 0.0
H162 H 0.6261 0.2455 0.88324 0.0
H163 H 0.66423 0.2616 0.84592 0.0
H164 H 0.68839 0.2851 0.85844 0.0
H165 H 0.67435 0.26332 0.87778 0.0
H166 H 0.63425 0.29921 0.89582 0.0
H167 H 0.65645 0.28281 0.90533 0.0
H168 H 0.66582 0.31277 0.89786 0.0
H169 H 0.58299 0.34211 0.75684 0.0
H170 H 0.64656 0.40069 0.76059 0.0
H171 H 0.66732 0.38478 0.79373 0.0
H172 H 0.58349 0.33973 0.81483 0.0
H173 H 0.56464 0.31745 0.79352 0.0
H174 H 0.57813 0.31054 0.82263 0.0
H175 H 0.61534 0.30168 0.76645 0.0
H176 H 0.59896 0.2824 0.78559 0.0
H177 H 0.58258 0.29812 0.76486 0.0
H178 H 0.5593 0.23913 0.83308 0.0
C179 C 0.58902 0.26896 0.82982 0.0
C180 C 0.89579 0.74355 0.3643 0.0
C181 C 0.88785 0.75523 0.38278 0.0
C182 C 0.86707 0.74339 0.39292 0.0
C183 C 0.86218 0.70931 0.36632 0.0
C184 C 0.88257 0.72067 0.35627 0.0
C185 C 0.88768 0.70569 0.33633 0.0
H186 H 0.85793 0.60278 0.26935 0.0
C187 C 0.8524 0.68586 0.35409 0.0
C188 C 0.86717 0.68349 0.3364 0.0
H189 H 0.91614 0.66403 0.26322 0.0
H190 H 0.90404 0.68367 0.29584 0.0
H191 H 0.86419 0.60501 0.32978 0.0
H192 H 0.81586 0.63182 0.27715 0.0
H193 H 0.79914 0.61714 0.29905 0.0
H194 H 0.81298 0.60112 0.27963 0.0
H195 H 0.84041 0.58612 0.30888 0.0
H196 H 0.83362 0.59761 0.33643 0.0
C197 C 0.91356 0.70127 0.34367 0.0
C198 C 0.88491 0.71817 0.31247 0.0
C199 C 0.77704 0.63296 0.3813 0.0
C200 C 0.76269 0.61034 0.37433 0.0
C201 C 0.76991 0.59781 0.35598 0.0
C202 C 0.79064 0.60782 0.34465 0.0
C203 C 0.80451 0.63067 0.35169 0.0
C204 C 0.79752 0.64265 0.36987 0.0
C205 C 0.81404 0.66657 0.37546 0.0
C206 C 0.83213 0.6673 0.3576 0.0
C207 C 0.82668 0.64627 0.34354 0.0
C208 C 0.82684 0.66773 0.40191 0.0
C209 C 0.79812 0.68443 0.37009 0.0
C210 C 0.86815 0.62036 0.27517 0.0
C211 C 0.88807 0.6318 0.26345 0.0
C212 C 0.9006 0.65482 0.27155 0.0
C213 C 0.8936 0.66623 0.29065 0.0
C214 C 0.87361 0.65474 0.30199 0.0
C215 C 0.86112 0.63219 0.29418 0.0
C216 C 0.83982 0.62309 0.30806 0.0
C217 C 0.84172 0.64376 0.32547 0.0
C218 C 0.86175 0.66229 0.32188 0.0
C219 C 0.84453 0.60171 0.32146 0.0
C220 C 0.81557 0.61783 0.29014 0.0
H221 H 0.83873 0.71289 0.39354 0.0
H222 H 0.91161 0.75215 0.356 0.0
H223 H 0.87017 0.72778 0.31207 0.0
H224 H 0.8791 0.70596 0.29645 0.0
H225 H 0.90235 0.73094 0.31026 0.0
H226 H 0.91638 0.69772 0.36313 0.0
H227 H 0.92832 0.71668 0.34063 0.0
H228 H 0.91624 0.68587 0.33405 0.0
H229 H 0.77261 0.64304 0.39563 0.0
H230 H 0.75927 0.58039 0.35006 0.0
H231 H 0.79503 0.59745 0.33076 0.0
H232 H 0.83018 0.65058 0.40696 0.0
H233 H 0.8153 0.6727 0.4147 0.0
H234 H 0.84536 0.67984 0.40498 0.0
H235 H 0.78291 0.67785 0.35495 0.0
H236 H 0.80862 0.70106 0.36409 0.0
H237 H 0.78957 0.68797 0.38604 0.0
H238 H 0.86074 0.75165 0.40741 0.0
C239 C 0.85432 0.72068 0.38489 0.0
C240 C 0.71924 0.67797 0.86498 0.0
C241 C 0.74009 0.66897 0.86444 0.0
C242 C 0.75284 0.67264 0.84431 0.0
C243 C 0.72593 0.69619 0.82724 0.0
C244 C 0.71246 0.69144 0.84619 0.0
C245 C 0.69156 0.70332 0.84444 0.0
H246 H 0.64247 0.78846 0.7981 0.0
C247 C 0.7158 0.71269 0.81208 0.0
C248 C 0.69536 0.71665 0.82178 0.0
H249 H 0.61775 0.74241 0.85359 0.0
H250 H 0.64667 0.71986 0.84634 0.0
H251 H 0.64458 0.74686 0.76046 0.0
H252 H 0.6992 0.79311 0.81162 0.0
H253 H 0.71168 0.79207 0.78463 0.0
H254 H 0.68429 0.80253 0.78463 0.0
H255 H 0.65805 0.77627 0.75387 0.0
H256 H 0.67205 0.75277 0.74764 0.0
C257 C 0.66683 0.68442 0.84116 0.0
C258 C 0.69568 0.7198 0.86719 0.0
C259 C 0.76367 0.7526 0.74762 0.0
C260 C 0.76062 0.77075 0.73264 0.0
C261 C 0.73935 0.77935 0.73262 0.0
C262 C 0.72192 0.77062 0.74787 0.0
C263 C 0.72585 0.75326 0.76354 0.0
C264 C 0.74615 0.74419 0.76287 0.0
C265 C 0.74739 0.72592 0.78092 0.0
C266 C 0.72449 0.7256 0.79258 0.0
C267 C 0.71218 0.7419 0.78255 0.0
C268 C 0.74548 0.70251 0.7671 0.0
C269 C 0.77151 0.73478 0.79887 0.0
C270 C 0.64281 0.77323 0.80837 0.0
C271 C 0.62811 0.76758 0.82684 0.0
C272 C 0.62933 0.74758 0.83973 0.0
C273 C 0.64612 0.73448 0.8355 0.0
C274 C 0.66198 0.74146 0.81829 0.0
C275 C 0.65944 0.75992 0.80436 0.0
C276 C 0.67734 0.76436 0.78636 0.0
C277 C 0.69149 0.74591 0.79229 0.0
C278 C 0.68275 0.73291 0.81137 0.0
C279 C 0.6624 0.76004 0.76069 0.0
C280 C 0.69401 0.78933 0.79184 0.0
H281 H 0.75661 0.68868 0.81119 0.0
H282 H 0.70883 0.67509 0.88 0.0
H283 H 0.71525 0.73002 0.87085 0.0
H284 H 0.68451 0.73272 0.86552 0.0
H285 H 0.6915 0.70976 0.88328 0.0
H286 H 0.66882 0.66781 0.83306 0.0
H287 H 0.66001 0.68057 0.85869 0.0
H288 H 0.65232 0.68939 0.82852 0.0
H289 H 0.7796 0.74536 0.74782 0.0
H290 H 0.7366 0.79348 0.72147 0.0
H291 H 0.70643 0.77823 0.74736 0.0
H292 H 0.73462 0.70154 0.74884 0.0
H293 H 0.76403 0.70022 0.76474 0.0
H294 H 0.73551 0.68735 0.77603 0.0
H295 H 0.77462 0.75368 0.80359 0.0
H296 H 0.77121 0.72641 0.81622 0.0
H297 H 0.78777 0.73229 0.79091 0.0
H298 H 0.76907 0.66607 0.84347 0.0
C299 C 0.74577 0.68606 0.82568 0.0
C300 C 0.81902 0.19674 0.39923 0.0
C301 C 0.82844 0.18037 0.38732 0.0
C302 C 0.82034 0.17493 0.36253 0.0
C303 C 0.79261 0.20037 0.36227 0.0
C304 C 0.80116 0.20652 0.38634 0.0
C305 C 0.78863 0.2238 0.39607 0.0
H306 H 0.7004 0.28446 0.37749 0.0
C307 C 0.77332 0.21265 0.35432 0.0
C308 C 0.77101 0.22667 0.37392 0.0
H309 H 0.75041 0.2837 0.44291 0.0
H310 H 0.76972 0.25792 0.42282 0.0
H311 H 0.6889 0.23058 0.36433 0.0
H312 H 0.74095 0.28882 0.3412 0.0
H313 H 0.72861 0.26975 0.31579 0.0
H314 H 0.70842 0.28286 0.33076 0.0
H315 H 0.67962 0.25111 0.34426 0.0
H316 H 0.68835 0.22597 0.33325 0.0
C317 C 0.77467 0.21253 0.41652 0.0
C318 C 0.80846 0.24663 0.40403 0.0
C319 C 0.72357 0.19249 0.27114 0.0
C320 C 0.70337 0.19965 0.25905 0.0
C321 C 0.69534 0.21769 0.2697 0.0
C322 C 0.70655 0.22766 0.29257 0.0
C323 C 0.72598 0.21949 0.30495 0.0
C324 C 0.73453 0.20258 0.29393 0.0
C325 C 0.75543 0.19611 0.30956 0.0
C326 C 0.75757 0.21146 0.33211 0.0
C327 C 0.74018 0.22495 0.3294 0.0
C328 C 0.74713 0.16988 0.31428 0.0
C329 C 0.77882 0.20285 0.29692 0.0
C330 C 0.71579 0.27909 0.38743 0.0
C331 C 0.72391 0.28622 0.41182 0.0
C332 C 0.74364 0.27831 0.42417 0.0
C333 C 0.75488 0.2634 0.41245 0.0
C334 C 0.74622 0.25616 0.38814 0.0
C335 C 0.7271 0.26418 0.37604 0.0
C336 C 0.71989 0.25444 0.35046 0.0
C337 C 0.73792 0.23934 0.34907 0.0
C338 C 0.75327 0.24028 0.37121 0.0
C339 C 0.69275 0.23985 0.34767 0.0
C340 C 0.72447 0.27492 0.33352 0.0
H341 H 0.79705 0.17969 0.33125 0.0
H342 H 0.82489 0.20134 0.41825 0.0
H343 H 0.82256 0.25005 0.39156 0.0
H344 H 0.80079 0.26212 0.40353 0.0
H345 H 0.81819 0.24566 0.42242 0.0
H346 H 0.76581 0.19381 0.41176 0.0
H347 H 0.78748 0.21362 0.43361 0.0
H348 H 0.75944 0.22033 0.41981 0.0
H349 H 0.73042 0.17893 0.2632 0.0
H350 H 0.67975 0.22346 0.26074 0.0
H351 H 0.69925 0.24095 0.29998 0.0
H352 H 0.72751 0.16519 0.31746 0.0
H353 H 0.74869 0.15888 0.29859 0.0
H354 H 0.75755 0.16484 0.33052 0.0
H355 H 0.77804 0.21734 0.28474 0.0
H356 H 0.79589 0.2095 0.30984 0.0
H357 H 0.78094 0.18791 0.28586 0.0
H358 H 0.82772 0.16287 0.35276 0.0
C359 C 0.80258 0.18483 0.34999 0.0
C360 C 0.42328 0.69064 0.30545 0.0
C361 C 0.41059 0.67115 0.3166 0.0
C362 C 0.38617 0.65997 0.30679 0.0
C363 C 0.3874 0.68698 0.27491 0.0
C364 C 0.41117 0.69845 0.28479 0.0
C365 C 0.42111 0.71948 0.271 0.0
H366 H 0.40407 0.78436 0.17408 0.0
C367 C 0.38008 0.69898 0.25337 0.0
C368 C 0.39958 0.71829 0.25102 0.0
H369 H 0.46735 0.79709 0.22971 0.0
H370 H 0.44766 0.7634 0.2502 0.0
H371 H 0.36459 0.77451 0.20854 0.0
H372 H 0.3954 0.72826 0.16922 0.0
H373 H 0.36325 0.71683 0.16567 0.0
H374 H 0.37548 0.74517 0.15512 0.0
H375 H 0.35442 0.76703 0.17707 0.0
H376 H 0.34045 0.74971 0.20003 0.0
C377 C 0.42593 0.74147 0.288 0.0
C378 C 0.4443 0.716 0.26098 0.0
C379 C 0.29825 0.6639 0.2005 0.0
C380 C 0.28614 0.67117 0.17959 0.0
C381 C 0.29709 0.69233 0.17006 0.0
C382 C 0.32011 0.70584 0.18089 0.0
C383 C 0.33225 0.6982 0.20161 0.0
C384 C 0.32109 0.67778 0.21131 0.0
C385 C 0.33608 0.67305 0.23409 0.0
C386 C 0.35845 0.69367 0.23602 0.0
C387 C 0.3562 0.70815 0.21683 0.0
C388 C 0.3209 0.67354 0.25517 0.0
C389 C 0.34299 0.64968 0.22987 0.0
C390 C 0.41381 0.77978 0.19057 0.0
C391 C 0.43739 0.79317 0.20013 0.0
C392 C 0.44915 0.787 0.22198 0.0
C393 C 0.43772 0.76742 0.23379 0.0
C394 C 0.41417 0.75403 0.22377 0.0
C395 C 0.4026 0.76055 0.20261 0.0
C396 C 0.37742 0.74495 0.1947 0.0
C397 C 0.37572 0.72777 0.21442 0.0
C398 C 0.39732 0.73295 0.23141 0.0
C399 C 0.3581 0.75968 0.19487 0.0
C400 C 0.37764 0.7332 0.16982 0.0
H401 H 0.35609 0.65821 0.27941 0.0
H402 H 0.44199 0.69968 0.31281 0.0
H403 H 0.44101 0.69794 0.25315 0.0
H404 H 0.44938 0.7275 0.24629 0.0
H405 H 0.46038 0.71894 0.27549 0.0
H406 H 0.41165 0.73959 0.30023 0.0
H407 H 0.44423 0.74455 0.2994 0.0
H408 H 0.4248 0.75724 0.27822 0.0
H409 H 0.28997 0.64789 0.20841 0.0
H410 H 0.28802 0.6982 0.15394 0.0
H411 H 0.32761 0.72162 0.17259 0.0
H412 H 0.30692 0.68389 0.25113 0.0
H413 H 0.31087 0.65572 0.25895 0.0
H414 H 0.33252 0.68212 0.27192 0.0
H415 H 0.34876 0.64861 0.21175 0.0
H416 H 0.35874 0.64743 0.24275 0.0
H417 H 0.32698 0.6347 0.2308 0.0
H418 H 0.37615 0.64485 0.31497 0.0
C419 C 0.37458 0.66771 0.28605 0.0
C420 C 0.12787 0.29269 0.69802 0.0
C421 C 0.13434 0.28194 0.67796 0.0
C422 C 0.15479 0.29395 0.66747 0.0
C423 C 0.16163 0.32685 0.69613 0.0
C424 C 0.14166 0.31523 0.70665 0.0
C425 C 0.13708 0.32991 0.72714 0.0
H426 H 0.16801 0.43216 0.79527 0.0
C427 C 0.17194 0.34997 0.70894 0.0
C428 C 0.15766 0.35206 0.72714 0.0
H429 H 0.1087 0.3714 0.80023 0.0
H430 H 0.12099 0.35178 0.76786 0.0
H431 H 0.16217 0.43077 0.73558 0.0
H432 H 0.20998 0.40206 0.78696 0.0
H433 H 0.22674 0.41717 0.76531 0.0
H434 H 0.2133 0.4329 0.78541 0.0
H435 H 0.18623 0.449 0.75676 0.0
H436 H 0.19273 0.43793 0.72889 0.0
C437 C 0.11117 0.33453 0.72055 0.0
C438 C 0.14027 0.31698 0.75063 0.0
C439 C 0.24662 0.40312 0.68092 0.0
C440 C 0.26109 0.42569 0.68789 0.0
C441 C 0.25506 0.43761 0.70747 0.0
C442 C 0.23488 0.42732 0.71944 0.0
C443 C 0.22048 0.40477 0.71192 0.0
C444 C 0.22669 0.39319 0.69295 0.0
C445 C 0.20979 0.36949 0.68701 0.0
C446 C 0.19229 0.36848 0.70549 0.0
C447 C 0.19839 0.38914 0.72021 0.0
C448 C 0.1964 0.36911 0.66087 0.0
C449 C 0.22545 0.3513 0.69123 0.0
C450 C 0.15775 0.41458 0.7895 0.0
C451 C 0.13701 0.40359 0.80042 0.0
C452 C 0.1243 0.38067 0.79203 0.0
C453 C 0.13158 0.36914 0.77321 0.0
C454 C 0.15195 0.38041 0.76229 0.0
C455 C 0.16482 0.40274 0.77052 0.0
C456 C 0.18613 0.41183 0.75664 0.0
C457 C 0.18376 0.39143 0.73872 0.0
C458 C 0.16359 0.37299 0.74217 0.0
C459 C 0.18182 0.43365 0.74382 0.0
C460 C 0.21043 0.41642 0.77442 0.0
H461 H 0.18371 0.32408 0.66746 0.0
H462 H 0.11219 0.28399 0.70645 0.0
H463 H 0.15583 0.30842 0.75091 0.0
H464 H 0.14503 0.32875 0.76697 0.0
H465 H 0.12332 0.30327 0.75224 0.0
H466 H 0.10739 0.3372 0.70095 0.0
H467 H 0.09649 0.3196 0.72482 0.0
H468 H 0.10926 0.35056 0.72961 0.0
H469 H 0.25082 0.3931 0.66639 0.0
H470 H 0.26569 0.45505 0.71329 0.0
H471 H 0.23117 0.43735 0.73402 0.0
H472 H 0.19404 0.38667 0.65615 0.0
H473 H 0.20699 0.36345 0.64755 0.0
H474 H 0.17739 0.35791 0.65823 0.0
H475 H 0.24053 0.35708 0.70666 0.0
H476 H 0.21475 0.3343 0.6962 0.0
H477 H 0.23416 0.34864 0.67511 0.0
H478 H 0.16046 0.28604 0.65232 0.0
C479 C 0.1684 0.31614 0.67641 0.0
Pr480 Pr 0.99161 1.01002 0.54459 0.0
Pr481 Pr 0.03423 0.02479 0.51984 0.0
C482 C 0.95368 0.99003 0.56787 0.0
C483 C 0.9438 0.96994 0.5817 0.0
C484 C 0.93524 0.97399 0.60331 0.0
C485 C 0.9242 0.95541 0.61618 0.0
C486 C 0.92133 0.93234 0.60759 0.0
C487 C 0.93062 0.92828 0.58625 0.0
C488 C 0.94178 0.94696 0.57338 0.0
C489 C 0.01858 0.05559 0.55944 0.0
C490 C 0.0412 0.99111 0.56291 0.0
C491 C 0.07222 0.04522 0.49683 0.0
C492 C 0.0822 0.06602 0.48408 0.0
C493 C 0.09465 0.06356 0.46458 0.0
C494 C 0.10541 0.08303 0.45271 0.0
C495 C 0.10402 0.10539 0.4602 0.0
C496 C 0.09093 0.10775 0.47942 0.0
C497 C 0.08007 0.08818 0.49128 0.0
C498 C 1.00724 0.97928 0.50484 0.0
C499 C 0.98429 0.04322 0.50135 0.0
O500 O 0.95355 0.98653 0.54476 0.0
O501 O 0.97329 1.00525 0.5783 0.0
O502 O 0.0281 0.03862 0.55663 0.0
O503 O 0.99475 0.04931 0.55428 0.0
O504 O 0.05348 1.00865 0.55201 0.0
O505 O 0.01687 0.98587 0.56005 0.0
O506 O 0.0726 0.04774 0.52009 0.0
O507 O 0.05227 0.03073 0.48599 0.0
O508 O 0.99774 0.99625 0.50781 0.0
O509 O 0.0311 0.98562 0.50966 0.0
O510 O 0.97222 0.02553 0.51219 0.0
O511 O 1.00864 0.04877 0.50431 0.0
H512 H 0.93674 0.9916 0.61008 0.0
H513 H 0.91769 0.95913 0.63279 0.0
H514 H 0.92857 0.91071 0.57912 0.0
H515 H 0.94837 0.94341 0.55676 0.0
H516 H 0.09629 0.04656 0.45868 0.0
H517 H 0.11488 0.08054 0.43766 0.0
H518 H 0.08963 0.12475 0.48567 0.0
H519 H 0.07036 0.09039 0.50624 0.0
Pr520 Pr 0.48954 0.02279 0.04757 0.0
Pr521 Pr 0.53662 1.01592 1.01768 0.0
C522 C 0.46 0.02194 0.08136 0.0
C523 C 0.45518 0.04005 0.09683 0.0
C524 C 0.46149 0.06338 0.09081 0.0
C525 C 0.45872 0.0809 0.10638 0.0
C526 C 0.44978 0.0754 0.12832 0.0
C527 C 0.44342 0.05196 0.13425 0.0
C528 C 0.44609 0.0344 0.11857 0.0
C529 C 0.50219 0.0567 1.01381 0.0
C530 C 0.54826 0.05316 0.06537 0.0
C531 C 0.5659 1.01621 0.98381 0.0
C532 C 0.5698 0.99718 0.96898 0.0
C533 C 0.56081 0.97413 0.97494 0.0
C534 C 0.56304 0.95572 0.9603 0.0
C535 C 0.57417 0.96002 0.93932 0.0
C536 C 0.58309 0.98317 0.93332 0.0
C537 C 0.58093 1.00166 0.94811 0.0
C538 C 0.52399 0.98175 0.05119 0.0
C539 C 0.4778 0.98576 0.99968 0.0
O540 O 0.48229 0.01861 0.08602 0.0
O541 O 0.45216 0.02212 0.05823 0.0
O542 O 0.51175 0.04031 1.01984 0.0
O543 O 0.48396 0.05612 1.02603 0.0
O544 O 0.55581 0.04715 0.04529 0.0
O545 O 0.52577 0.04452 0.07089 0.0
O546 O 0.5438 0.02005 0.97919 0.0
O547 O 0.57394 1.01645 1.00695 0.0
O548 O 0.51451 0.99834 0.04561 0.0
O549 O 0.54212 0.98246 0.03883 0.0
O550 O 0.47008 0.99203 1.01955 0.0
O551 O 0.50045 0.99399 0.99442 0.0
H552 H 0.46899 0.06808 0.07428 0.0
H553 H 0.46412 0.09881 0.10149 0.0
H554 H 0.43631 0.04722 0.15095 0.0
H555 H 0.4414 1.01647 0.12355 0.0
H556 H 0.55173 0.97037 0.99078 0.0
H557 H 0.55562 0.93808 0.96516 0.0
H558 H 0.59186 0.98697 0.91732 0.0
H559 H 0.5877 0.01939 0.94316 0.0
Pr560 Pr 0.51492 0.54233 0.54037 0.0
Pr561 Pr 0.5095 0.49231 0.52177 0.0
C562 C 0.5171 0.58794 0.54684 0.0
C563 C 0.49989 0.60204 0.55207 0.0
C564 C 0.50611 0.61761 0.57235 0.0
C565 C 0.4896 0.63032 0.57827 0.0
C566 C 0.46653 0.62781 0.56392 0.0
C567 C 0.46051 0.61243 0.54338 0.0
C568 C 0.47698 0.59964 0.53755 0.0
C569 C 0.53525 0.5149 0.57316 0.0
C570 C 0.4671 0.50405 0.55402 0.0
C571 C 0.50739 0.44674 0.51484 0.0
C572 C 0.52539 0.43369 0.50975 0.0
C573 C 0.51741 0.41026 0.5016 0.0
C574 C 0.5345 0.398 0.49611 0.0
C575 C 0.55987 0.40902 0.49873 0.0
C576 C 0.56774 0.43253 0.50706 0.0
C577 C 0.55064 0.44475 0.51248 0.0
C578 C 0.48917 0.52 0.48922 0.0
C579 C 0.55739 0.53058 0.50834 0.0
O580 O 0.51291 0.57711 0.52556 0.0
O581 O 0.52391 0.57543 0.56422 0.0
O582 O 0.5373 0.51524 0.55103 0.0
O583 O 0.52364 0.53005 0.5793 0.0
O584 O 0.47795 0.48817 0.54669 0.0
O585 O 0.4756 0.52631 0.55037 0.0
O586 O 0.51153 0.45737 0.53619 0.0
O587 O 0.50074 0.45946 0.49761 0.0
O588 O 0.48699 0.51925 0.51129 0.0
O589 O 0.50121 0.50525 0.48295 0.0
O590 O 0.54632 0.5464 0.51534 0.0
O591 O 0.54903 0.50837 0.5122 0.0
H592 H 0.52363 0.61969 0.58386 0.0
H593 H 0.49473 0.64173 0.59441 0.0
H594 H 0.44308 0.61031 0.53173 0.0
H595 H 0.47163 0.58778 0.52177 0.0
H596 H 0.49797 0.40148 0.49938 0.0
H597 H 0.52788 0.37986 0.48998 0.0
H598 H 0.58707 0.44162 0.50895 0.0
H599 H 0.55711 0.46291 0.51861 0.0
Pr600 Pr 1.00939 0.53581 1.01777 0.0
Pr601 Pr 0.01777 0.49796 0.04889 0.0
C602 C 0.99188 0.56792 0.99249 0.0
C603 C 0.97085 0.57845 0.9925 0.0
C604 C 0.97317 0.6015 0.98609 0.0
C605 C 0.95299 0.61143 0.98508 0.0
C606 C 0.93007 0.59838 0.99029 0.0
C607 C 0.92811 0.57549 0.99754 0.0
C608 C 0.94837 0.56565 0.99875 0.0
C609 C 0.05708 0.54502 0.04307 0.0
C610 C 0.98939 0.53295 0.07189 0.0
C611 C 0.0355 0.46604 0.07431 0.0
C612 C 0.05734 0.45662 0.07515 0.0
C613 C 0.05705 0.43502 0.08487 0.0
C614 C 0.07821 0.42646 0.08694 0.0
C615 C 0.10005 0.43947 0.07942 0.0
C616 C 0.09993 0.46079 0.06888 0.0
C617 C 0.07871 0.46927 0.0667 0.0
C618 C 0.97013 0.48866 1.02352 0.0
C619 C 0.03758 0.50079 0.99473 0.0
O620 O 0.98661 0.54591 0.98542 0.0
O621 O 1.00904 0.57334 1.01121 0.0
O622 O 0.03759 0.53661 0.05183 0.0
O623 O 0.05236 0.54927 1.02054 0.0
O624 O 1.0032 0.51824 0.07757 0.0
O625 O 0.9863 0.53974 0.04956 0.0
O626 O 0.03962 0.48782 0.08186 0.0
O627 O 0.01938 0.46062 0.05479 0.0
O628 O 0.98964 0.49712 1.01479 0.0
O629 O 0.97485 0.48427 0.04601 0.0
O630 O 0.02328 0.51506 0.98899 0.0
O631 O 0.04121 0.49449 1.01721 0.0
H632 H 0.99051 0.61171 0.98156 0.0
H633 H 0.95527 0.62925 0.97989 0.0
H634 H 0.91072 0.56486 1.00145 0.0
H635 H 0.94632 0.54788 1.00406 0.0
H636 H 0.04059 0.42495 0.09121 0.0
H637 H 0.07755 0.40977 0.09471 0.0
H638 H 0.11647 0.47134 0.0631 0.0
H639 H 0.07915 0.48595 0.05894 0.0
H640 H 0.25896 0.26179 0.37521 0.0
H641 H 0.23024 0.23624 0.39797 0.0
H642 H 0.16939 0.23987 0.3439 0.0
H643 H 0.19802 0.26497 0.32072 0.0
H644 H 0.18536 0.24077 0.4163 0.0
H645 H 0.16981 0.16968 0.34529 0.0
H646 H 0.19512 0.19524 0.34711 0.0
H647 H 0.16437 0.19692 0.33545 0.0
C648 C 0.23944 0.25728 0.36825 0.0
C649 C 0.23078 0.26521 0.34606 0.0
C650 C 0.22306 0.24284 0.38135 0.0
C651 C 0.19779 0.236 0.37243 0.0
C652 C 0.18888 0.24482 0.35094 0.0
H653 H 0.08737 0.144 0.44727 0.0
H654 H 0.10845 0.17735 0.42634 0.0
C655 C 0.20525 0.25931 0.33783 0.0
C656 C 0.18123 0.2182 0.38471 0.0
H657 H 0.14941 0.16115 0.37912 0.0
C658 C 0.17723 0.22342 0.40813 0.0
C659 C 0.17093 0.19556 0.37399 0.0
C660 C 0.17534 0.18883 0.34915 0.0
C661 C 0.16344 0.2064 0.42131 0.0
C662 C 0.15343 0.18372 0.41067 0.0
C663 C 0.15704 0.17864 0.38709 0.0
C664 C 0.14092 0.16441 0.42431 0.0
C665 C 0.16042 0.21244 0.44679 0.0
C666 C 0.15224 0.14621 0.42999 0.0
C667 C 0.14038 0.1273 0.44196 0.0
C668 C 0.11681 0.12609 0.4483 0.0
C669 C 0.10561 0.14453 0.44283 0.0
C670 C 0.11757 0.16355 0.43087 0.0
H671 H 0.172 0.22993 0.45345 0.0
H672 H 0.1408 0.21224 0.44757 0.0
H673 H 0.16537 0.19929 0.45908 0.0
H674 H 0.17031 0.14663 0.42511 0.0
H675 H 0.14974 0.11362 0.4463 0.0
H676 H 0.347 0.82666 0.84338 0.0
H677 H 0.37126 0.85001 0.8787 0.0
H678 H 0.34476 0.90931 0.85442 0.0
H679 H 0.32175 0.88663 0.81841 0.0
H680 H 0.39333 0.92043 0.86539 0.0
H681 H 0.35289 0.87272 0.94013 0.0
H682 H 0.36321 0.85442 0.92003 0.0
H683 H 0.33828 0.86736 0.90919 0.0
C684 C 0.34629 0.84466 0.84556 0.0
C685 C 0.33241 0.85472 0.82796 0.0
C686 C 0.35989 0.8579 0.86598 0.0
C687 C 0.35955 0.88133 0.8694 0.0
C688 C 0.34516 0.89121 0.85224 0.0
H689 H 0.42737 0.97249 0.99663 0.0
H690 H 0.39827 0.94679 0.96545 0.0
C691 C 0.3318 0.8781 0.83173 0.0
C692 C 0.37583 0.89617 0.88964 0.0
H693 H 0.39141 0.90089 0.95085 0.0
C694 C 0.39276 0.91623 0.88409 0.0
C695 C 0.37491 0.89082 0.91404 0.0
C696 C 0.35617 0.87029 0.92125 0.0
C697 C 0.40905 0.93091 0.90218 0.0
C698 C 0.40893 0.925 0.92649 0.0
C699 C 0.39168 0.9052 0.93215 0.0
C700 C 0.42655 0.9393 0.94622 0.0
C701 C 0.42595 0.95281 0.89505 0.0
C702 C 0.45207 0.94307 0.94608 0.0
C703 C 0.4687 0.9579 0.96367 0.0
C704 C 0.46013 0.96895 0.98199 0.0
C705 C 0.43457 0.9643 0.98273 0.0
C706 C 0.41792 0.94962 0.96495 0.0
H707 H 0.41881 0.95819 0.87716 0.0
H708 H 0.42833 0.96742 0.90854 0.0
H709 H 0.44436 0.94958 0.89384 0.0
H710 H 0.45914 0.93477 0.93216 0.0
H711 H 0.48828 0.96079 0.96279 0.0
H712 H 0.61147 0.41836 0.75403 0.0
H713 H 0.59601 0.43787 0.71955 0.0
H714 H 0.57095 0.37225 0.67844 0.0
H715 H 0.58677 0.35247 0.71304 0.0
H716 H 0.61275 0.43626 0.67257 0.0
H717 H 0.51097 0.40392 0.66948 0.0
H718 H 0.53231 0.40347 0.69646 0.0
H719 H 0.52946 0.38292 0.67175 0.0
C720 C 0.60258 0.40801 0.7377 0.0
C721 C 0.60059 0.38389 0.73618 0.0
C722 C 0.59371 0.41919 0.71804 0.0
C723 C 0.58242 0.40653 0.69645 0.0
C724 C 0.57947 0.3823 0.69504 0.0
H725 H 0.55944 0.48143 0.56379 0.0
H726 H 0.57049 0.45265 0.59135 0.0
C727 C 0.58843 0.37103 0.71481 0.0
C728 C 0.575 0.41922 0.67528 0.0
H729 H 0.52493 0.4311 0.64126 0.0
C730 C 0.59356 0.43494 0.66546 0.0
C731 C 0.54996 0.4175 0.66622 0.0
C732 C 0.5294 0.40116 0.67649 0.0
C733 C 0.58776 0.44949 0.64727 0.0
C734 C 0.5627 0.44815 0.63854 0.0
C735 C 0.54412 0.43199 0.64791 0.0
C736 C 0.55543 0.46481 0.62128 0.0
C737 C 0.60843 0.46694 0.63831 0.0
C738 C 0.54303 0.48093 0.62885 0.0
C739 C 0.53675 0.49731 0.61322 0.0
C740 C 0.54261 0.49781 0.58963 0.0
C741 C 0.55483 0.48152 0.58193 0.0
C742 C 0.56116 0.46511 0.59764 0.0
H743 H 0.62648 0.46843 0.64976 0.0
H744 H 0.61011 0.46146 0.6197 0.0
H745 H 0.60442 0.48439 0.63777 0.0
H746 H 0.53846 0.48102 0.64701 0.0
H747 H 0.52721 0.50954 0.61962 0.0
H748 H 0.89451 0.58721 0.25913 0.0
H749 H 0.91074 0.5699 0.22662 0.0
H750 H 0.91504 0.63267 0.1881 0.0
H751 H 0.8996 0.65016 0.22071 0.0
H752 H 0.89631 0.55878 0.18015 0.0
H753 H 0.98367 0.62692 0.18753 0.0
H754 H 0.96274 0.62514 0.20946 0.0
H755 H 0.95736 0.63898 0.18158 0.0
C756 C 0.89884 0.59729 0.24368 0.0
C757 C 0.89604 0.62026 0.24281 0.0
C758 C 0.90822 0.58738 0.22506 0.0
C759 C 0.91494 0.60012 0.205 0.0
C760 C 0.91103 0.62266 0.20365 0.0
H761 H 0.96627 0.56906 0.06983 0.0
H762 H 0.94778 0.58463 0.1017 0.0
C763 C 0.90199 0.63264 0.22234 0.0
C764 C 0.92587 0.58991 0.18549 0.0
H765 H 0.97428 0.60089 0.1527 0.0
C766 C 0.91345 0.56799 0.17434 0.0
C767 C 0.9484 0.60167 0.17773 0.0
C768 C 0.96394 0.62435 0.18987 0.0
C769 C 0.92253 0.5579 0.15553 0.0
C770 C 0.94467 0.56993 0.14747 0.0
C771 C 0.95718 0.59173 0.15863 0.0
C772 C 0.95539 0.55999 0.12781 0.0
C773 C 0.9082 0.53454 0.14407 0.0
C774 C 0.96602 0.54099 0.13176 0.0
C775 C 0.97687 0.53219 0.11364 0.0
C776 C 0.97722 0.54202 0.09095 0.0
C777 C 0.96632 0.56093 0.08697 0.0
C778 C 0.95574 0.56991 0.10523 0.0
H779 H 0.88954 0.52911 0.14959 0.0
H780 H 0.90623 0.53495 0.12412 0.0
H781 H 0.91845 0.52121 0.1495 0.0
H782 H 0.96623 0.53313 0.14905 0.0
H783 H 0.98503 0.51764 0.11748 0.0
H784 H 0.41782 0.23076 0.28167 0.0
H785 H 0.43697 0.20204 0.26512 0.0
H786 H 0.40731 0.21499 0.19319 0.0
H787 H 0.38756 0.2429 0.20934 0.0
H788 H 0.40868 0.16181 0.23597 0.0
H789 H 0.48001 0.21581 0.18809 0.0
H790 H 0.46713 0.22762 0.2119 0.0
H791 H 0.45054 0.2227 0.18179 0.0
C792 C 0.41555 0.22763 0.26232 0.0
C793 C 0.40116 0.23923 0.24687 0.0
C794 C 0.42664 0.21135 0.25292 0.0
C795 C 0.42383 0.2067 0.22795 0.0
C796 C 0.4102 0.21877 0.21249 0.0
H797 H 0.43091 0.11269 0.11696 0.0
H798 H 0.42775 0.14418 0.14417 0.0
C799 C 0.39897 0.23482 0.22181 0.0
C800 C 0.43267 0.18757 0.21782 0.0
H801 H 0.46563 0.1754 0.17462 0.0
C802 C 0.42157 0.1647 0.22296 0.0
C803 C 0.44943 0.19151 0.20086 0.0
C804 C 0.46266 0.21576 0.19548 0.0
C805 C 0.42547 0.14558 0.21029 0.0
C806 C 0.44124 0.14956 0.19239 0.0
C807 C 0.45342 0.17243 0.18826 0.0
C808 C 0.44365 0.13044 0.17629 0.0
C809 C 0.4115 0.12138 0.21509 0.0
C810 C 0.45372 0.11235 0.18537 0.0
C811 C 0.45547 0.09426 0.16984 0.0
C812 C 0.4474 0.09416 0.14498 0.0
C813 C 0.43748 0.11242 0.13598 0.0
C814 C 0.43565 0.13038 0.1515 0.0
H815 H 0.39663 0.12164 0.22617 0.0
H816 H 0.40314 0.11121 0.19791 0.0
H817 H 0.42448 0.1122 0.22496 0.0
H818 H 0.46039 0.1123 0.2044 0.0
H819 H 0.46354 0.0806 0.17721 0.0
H820 H 0.14594 0.85325 0.69159 0.0
H821 H 0.11791 0.87521 0.67194 0.0
H822 H 0.16 0.88628 0.61258 0.0
H823 H 0.18841 0.86468 0.63229 0.0
H824 H 0.13411 0.92259 0.66042 0.0
H825 H 0.08703 0.86529 0.57981 0.0
H826 H 0.10269 0.85474 0.60592 0.0
H827 H 0.12016 0.8708 0.58451 0.0
C828 C 0.14915 0.8602 0.67426 0.0
C829 C 0.16951 0.85734 0.66357 0.0
C830 C 0.13305 0.87265 0.66303 0.0
C831 C 0.13683 0.88224 0.64078 0.0
C832 C 0.15655 0.87868 0.62958 0.0
H833 H 0.09115 0.9981 0.57511 0.0
H834 H 0.1135 0.97149 0.59512 0.0
C835 C 0.17273 0.86629 0.64085 0.0
C836 C 0.12138 0.89755 0.63029 0.0
H837 H 0.08125 0.90374 0.58098 0.0
C838 C 0.12242 0.91842 0.64312 0.0
C839 C 0.10607 0.89196 0.60782 0.0
C840 C 0.10367 0.8694 0.59374 0.0
C841 C 0.10896 0.93412 0.6338 0.0
C842 C 0.09423 0.92885 0.611 0.0
C843 C 0.0927 0.90774 0.59841 0.0
C844 C 0.0806 0.94527 0.59973 0.0
C845 C 0.11052 0.95621 0.64839 0.0
C846 C 0.05471 0.93926 0.59566 0.0
C847 C 0.04186 0.95447 0.58431 0.0
C848 C 0.05472 0.97583 0.57658 0.0
C849 C 0.08068 0.98183 0.58088 0.0
C850 C 0.0935 0.96668 0.59237 0.0
H851 H 0.1181 0.95524 0.66758 0.0
H852 H 0.12287 0.97099 0.64084 0.0
H853 H 0.09204 0.95994 0.64753 0.0
H854 H 0.04447 0.92276 0.60118 0.0
H855 H 0.02186 0.94925 0.58116 0.0
H856 H 0.75148 0.40749 0.90418 0.0
H857 H 0.79035 0.43048 0.9265 0.0
H858 H 0.82397 0.37321 0.91785 0.0
H859 H 0.78479 0.34987 0.89633 0.0
H860 H 0.83501 0.3902 0.96218 0.0
H861 H 0.85207 0.46405 0.90271 0.0
H862 H 0.82274 0.46002 0.91321 0.0
H863 H 0.82839 0.4377 0.89405 0.0
C864 C 0.76728 0.39994 0.90687 0.0
C865 C 0.76523 0.37697 0.8985 0.0
C866 C 0.78952 0.41313 0.91948 0.0
C867 C 0.81029 0.40379 0.92344 0.0
C868 C 0.80825 0.38085 0.91495 0.0
H869 H 0.96039 0.48235 0.97457 0.0
H870 H 0.92131 0.46217 0.95039 0.0
C871 C 0.78589 0.36752 0.90269 0.0
C872 C 0.83377 0.41743 0.9375 0.0
H873 H 0.87668 0.46952 0.94153 0.0
C874 C 0.84419 0.40749 0.95755 0.0
C875 C 0.84598 0.43988 0.9313 0.0
C876 C 0.83686 0.45093 0.909 0.0
C877 C 0.86628 0.41937 0.97168 0.0
C878 C 0.87784 0.44227 0.9662 0.0
C879 C 0.86761 0.45213 0.94597 0.0
C880 C 0.90099 0.45592 0.98076 0.0
C881 C 0.8773 0.40694 0.99193 0.0
C882 C 0.9024 0.45981 1.00576 0.0
C883 C 0.92481 0.47096 1.01964 0.0
C884 C 0.94604 0.47891 1.00867 0.0
C885 C 0.94431 0.47627 0.9835 0.0
C886 C 0.92199 0.46476 0.96967 0.0
H887 H 0.87055 0.38773 0.98907 0.0
H888 H 0.89778 0.41151 0.99377 0.0
H889 H 0.8718 0.41204 1.00912 0.0
H890 H 0.88626 0.45386 1.01462 0.0
H891 H 0.9256 0.4731 0.03898 0.0
H892 H 0.74575 0.5653 0.3878 0.0
H893 H 0.71038 0.54992 0.40904 0.0
H894 H 0.69447 0.61746 0.41018 0.0
H895 H 0.72894 0.63265 0.38827 0.0
H896 H 0.70173 0.56253 0.45367 0.0
H897 H 0.62712 0.57691 0.38542 0.0
H898 H 0.65794 0.57873 0.37874 0.0
H899 H 0.65093 0.603 0.39368 0.0
C900 C 0.73446 0.57679 0.39216 0.0
C901 C 0.74039 0.60029 0.38624 0.0
C902 C 0.7143 0.56799 0.40451 0.0
C903 C 0.6994 0.58238 0.41102 0.0
C904 C 0.70523 0.60578 0.40501 0.0
H905 H 0.57797 0.57413 0.49385 0.0
H906 H 0.61251 0.58563 0.47083 0.0
C907 C 0.72527 0.61455 0.3927 0.0
C908 C 0.67836 0.57335 0.42485 0.0
H909 H 0.61669 0.56922 0.4249 0.0
C910 C 0.68309 0.56377 0.44724 0.0
C911 C 0.65393 0.57493 0.4166 0.0
C912 C 0.64708 0.58373 0.39219 0.0
C913 C 0.66439 0.5565 0.46183 0.0
C914 C 0.64009 0.55852 0.45376 0.0
C915 C 0.63529 0.56778 0.43124 0.0
C916 C 0.61943 0.55138 0.46845 0.0
C917 C 0.67101 0.5474 0.48613 0.0
C918 C 0.61156 0.52821 0.4748 0.0
C919 C 0.59174 0.52154 0.48802 0.0
C920 C 0.57921 0.53786 0.4952 0.0
C921 C 0.58718 0.56106 0.48883 0.0
C922 C 0.60694 0.56769 0.47556 0.0
H923 H 0.69125 0.55233 0.49219 0.0
H924 H 0.66165 0.55404 0.49996 0.0
H925 H 0.66486 0.52812 0.48494 0.0
H926 H 0.62048 0.51515 0.46919 0.0
H927 H 0.58609 0.50349 0.49239 0.0
H928 H 0.27752 0.40314 0.20022 0.0
H929 H 0.2501 0.41718 0.16979 0.0
H930 H 0.26515 0.3722 0.1154 0.0
H931 H 0.29201 0.35742 0.14598 0.0
H932 H 0.25234 0.43689 0.12435 0.0
H933 H 0.19113 0.34714 0.11848 0.0
H934 H 0.21743 0.35646 0.14162 0.0
H935 H 0.22183 0.35015 0.1113 0.0
C936 C 0.2753 0.39651 0.18171 0.0
C937 C 0.28652 0.37886 0.17557 0.0
C938 C 0.25979 0.40466 0.1643 0.0
C939 C 0.25524 0.39537 0.14047 0.0
C940 C 0.26815 0.3793 0.1338 0.0
H941 H 0.13587 0.44174 0.05004 0.0
H942 H 0.1752 0.43057 0.0594 0.0
C943 C 0.28365 0.37104 0.15126 0.0
C944 C 0.23466 0.40038 0.12387 0.0
H945 H 0.17457 0.37619 0.10049 0.0
C946 C 0.2355 0.42358 0.11857 0.0
C947 C 0.21269 0.38291 0.11656 0.0
C948 C 0.21048 0.35777 0.12234 0.0
C949 C 0.21444 0.42999 0.1074 0.0
C950 C 0.19218 0.41268 0.1013 0.0
C951 C 0.19178 0.38932 0.10517 0.0
C952 C 0.16834 0.41878 0.09467 0.0
C953 C 0.2156 0.45536 0.10376 0.0
C954 C 0.15146 0.41546 0.11126 0.0
C955 C 0.12919 0.42186 0.10608 0.0
C956 C 0.12324 0.43158 0.08408 0.0
C957 C 0.14005 0.43453 0.06725 0.0
C958 C 0.16246 0.42814 0.07252 0.0
H959 H 0.23386 0.46682 0.11127 0.0
H960 H 0.21205 0.45806 0.0842 0.0
H961 H 0.20108 0.46071 0.11243 0.0
H962 H 0.15577 0.40835 0.12851 0.0
H963 H 0.11694 0.41975 0.11963 0.0
H964 H 0.54516 0.22719 0.87315 0.0
H965 H 0.52867 0.19435 0.89711 0.0
H966 H 0.59502 0.17044 0.89627 0.0
H967 H 0.61163 0.2032 0.87253 0.0
H968 H 0.51966 0.1458 0.8901 0.0
H969 H 0.59234 0.1789 0.96818 0.0
H970 H 0.58685 0.19633 0.94296 0.0
H971 H 0.60423 0.17479 0.94071 0.0
C972 C 0.55605 0.21472 0.87776 0.0
C973 C 0.57982 0.21795 0.8712 0.0
C974 C 0.54666 0.19603 0.89153 0.0
C975 C 0.56086 0.18026 0.89897 0.0
C976 C 0.58401 0.18274 0.8913 0.0
H977 H 0.54401 0.06375 0.99258 0.0
H978 H 0.55734 0.09274 0.96336 0.0
C979 C 0.59344 0.20144 0.87768 0.0
C980 C 0.55191 0.16167 0.91537 0.0
H981 H 0.56633 0.14139 0.97075 0.0
C982 C 0.52979 0.14487 0.90776 0.0
C983 C 0.56514 0.1605 0.93847 0.0
C984 C 0.58833 0.1787 0.94821 0.0
C985 C 0.52082 0.12667 0.92245 0.0
C986 C 0.53415 0.12546 0.94545 0.0
C987 C 0.55622 0.14227 0.95305 0.0
C988 C 0.52538 0.10713 0.96217 0.0
C989 C 0.4974 0.10865 0.91304 0.0
C990 C 0.50311 0.10571 0.97134 0.0
C991 C 0.49548 0.08915 0.98798 0.0
C992 C 0.50999 0.07371 0.99573 0.0
C993 C 0.53228 0.07516 0.98658 0.0
C994 C 0.53995 0.09177 0.97 0.0
H995 H 0.49286 0.10864 0.89314 0.0
H996 H 0.49896 0.09096 0.91801 0.0
H997 H 0.48183 0.11252 0.92118 0.0
H998 H 0.49184 0.11769 0.96597 0.0
H999 H 0.47831 0.08853 0.9949 0.0
H1000 H 0.867 0.79098 0.39227 0.0
H1001 H 0.88727 0.8294 0.41138 0.0
H1002 H 0.95807 0.81304 0.41403 0.0
H1003 H 0.93779 0.7745 0.3946 0.0
H1004 H 0.91355 0.83969 0.4556 0.0
H1005 H 0.97294 0.87705 0.38785 0.0
H1006 H 0.94835 0.85097 0.38141 0.0
H1007 H 0.97763 0.84969 0.3979 0.0
C1008 C 0.88693 0.7956 0.39673 0.0
C1009 C 0.90075 0.77956 0.39193 0.0
C1010 C 0.89852 0.81763 0.40767 0.0
C1011 C 0.92428 0.82435 0.41408 0.0
C1012 C 0.93824 0.80857 0.40886 0.0
H1013 H 0.0269 0.9434 0.49383 0.0
H1014 H 1.00606 0.90622 0.47227 0.0
C1015 C 0.92662 0.78649 0.39774 0.0
C1016 C 0.93615 0.84733 0.4273 0.0
H1017 H 0.98022 0.89813 0.42573 0.0
C1018 C 0.92802 0.85251 0.44895 0.0
C1019 C 0.95507 0.86418 0.41874 0.0
C1020 C 0.96387 0.86034 0.39509 0.0
C1021 C 0.93854 0.8737 0.46243 0.0
C1022 C 0.95755 0.89046 0.45394 0.0
C1023 C 0.96565 0.88533 0.43228 0.0
C1024 C 0.9698 0.91311 0.46757 0.0
C1025 C 0.92965 0.8777 0.486 0.0
C1026 C 0.95641 0.92956 0.47221 0.0
C1027 C 0.96835 0.95097 0.48461 0.0
C1028 C 0.99393 0.95639 0.49252 0.0
C1029 C 1.00719 0.93983 0.48797 0.0
C1030 C 0.9953 0.91854 0.47558 0.0
H1031 H 0.91942 0.8612 0.49277 0.0
H1032 H 0.94538 0.88608 0.49997 0.0
H1033 H 0.91699 0.88945 0.48335 0.0
H1034 H 0.93679 0.92599 0.46591 0.0
H1035 H 0.95764 0.96337 0.48777 0.0
H1036 H 0.29145 0.7159 0.62505 0.0
H1037 H 0.31649 0.69278 0.60792 0.0
H1038 H 0.38266 0.74507 0.63535 0.0
H1039 H 0.35789 0.76804 0.6526 0.0
H1040 H 0.35049 0.70276 0.57507 0.0
H1041 H 0.3961 0.68614 0.66458 0.0
H1042 H 0.36903 0.69764 0.66093 0.0
H1043 H 0.3991 0.71653 0.66012 0.0
C1044 C 0.31132 0.72252 0.62719 0.0
C1045 C 0.32277 0.7436 0.64044 0.0
C1046 C 0.32559 0.70929 0.61749 0.0
C1047 C 0.35146 0.71697 0.62088 0.0
C1048 C 0.36278 0.73851 0.63312 0.0
H1049 H 0.47639 0.67286 0.58217 0.0
H1050 H 0.44722 0.6936 0.59493 0.0
C1051 C 0.3486 0.75163 0.64291 0.0
C1052 C 0.36683 0.70244 0.61201 0.0
H1053 H 0.41394 0.67696 0.63055 0.0
C1054 C 0.3642 0.6969 0.58718 0.0
C1055 C 0.38459 0.6947 0.62791 0.0
C1056 C 0.38724 0.69884 0.65489 0.0
C1057 C 0.37956 0.68456 0.57776 0.0
C1058 C 0.3978 0.67751 0.59362 0.0
C1059 C 0.40006 0.68261 0.61845 0.0
C1060 C 0.41507 0.6651 0.58486 0.0
C1061 C 0.37669 0.6797 0.55089 0.0
C1062 C 0.40659 0.64217 0.57509 0.0
C1063 C 0.42324 0.63014 0.56804 0.0
C1064 C 0.44869 0.64085 0.57064 0.0
C1065 C 0.457 0.66396 0.58023 0.0
C1066 C 0.44036 0.6759 0.58738 0.0
H1067 H 0.36466 0.68971 0.54082 0.0
H1068 H 0.395 0.68402 0.54452 0.0
H1069 H 0.36832 0.66088 0.54658 0.0
H1070 H 0.38717 0.63342 0.57339 0.0
H1071 H 0.41623 0.61226 0.56112 0.0
H1072 H 0.75508 0.78581 0.68678 0.0
H1073 H 0.78723 0.80842 0.66555 0.0
H1074 H 0.84271 0.80318 0.72471 0.0
H1075 H 0.8106 0.78136 0.74649 0.0
H1076 H 0.84625 0.84748 0.71267 0.0
H1077 H 0.83965 0.79225 0.63028 0.0
H1078 H 0.81021 0.79678 0.63486 0.0
H1079 H 0.82594 0.7812 0.65637 0.0
C1080 C 0.77414 0.78931 0.69519 0.0
C1081 C 0.78025 0.78184 0.71836 0.0
C1082 C 0.79254 0.80195 0.68289 0.0
C1083 C 0.81741 0.80718 0.6934 0.0
C1084 C 0.82365 0.79913 0.71618 0.0
H1085 H 0.93257 0.89042 0.6168 0.0
H1086 H 0.90991 0.85859 0.63862 0.0
C1087 C 0.80527 0.78654 0.72853 0.0
C1088 C 0.83641 0.82318 0.68178 0.0
H1089 H 0.85912 0.83311 0.62845 0.0
C1090 C 0.84937 0.84414 0.6944 0.0
C1091 C 0.84074 0.8187 0.65807 0.0
C1092 C 0.82858 0.79589 0.6442 0.0
C1093 C 0.86548 0.86129 0.68348 0.0
C1094 C 0.86838 0.85751 0.6592 0.0
C1095 C 0.85658 0.83605 0.64699 0.0
C1096 C 0.88205 0.87634 0.64572 0.0
C1097 C 0.8789 0.88352 0.69789 0.0
C1098 C 0.87352 0.89653 0.64213 0.0
C1099 C 0.88624 0.91456 0.62965 0.0
C1100 C 0.90777 0.91277 0.62044 0.0
C1101 C 0.91601 0.89228 0.62362 0.0
C1102 C 0.90318 0.87415 0.63613 0.0
H1103 H 0.8805 0.88101 0.71758 0.0
H1104 H 0.8977 0.89015 0.69302 0.0
H1105 H 0.86841 0.89698 0.69401 0.0
H1106 H 0.8569 0.89829 0.6489 0.0
H1107 H 0.87904 0.92984 0.627 0.0
H1108 H 0.68688 0.21814 0.21738 0.0
H1109 H 0.66302 0.19681 0.18045 0.0
H1110 H 0.66465 0.13176 0.21306 0.0
H1111 H 0.68875 0.15287 0.24961 0.0
H1112 H 0.67388 0.131 0.16703 0.0
H1113 H 0.59041 0.16412 0.17275 0.0
H1114 H 0.61824 0.18621 0.17153 0.0
H1115 H 0.61565 0.16849 0.19717 0.0
C1116 C 0.6821 0.19929 0.21659 0.0
C1117 C 0.68966 0.18714 0.23633 0.0
C1118 C 0.66844 0.18714 0.19556 0.0
C1119 C 0.66177 0.1627 0.19414 0.0
C1120 C 0.66963 0.15061 0.21373 0.0
H1121 H 0.54343 0.06366 0.11179 0.0
H1122 H 0.57221 0.09172 0.14076 0.0
C1123 C 0.68345 0.1627 0.23459 0.0
C1124 C 0.64629 0.14939 0.17257 0.0
H1125 H 0.58878 0.13835 0.13979 0.0
C1126 C 0.65532 0.1327 0.16092 0.0
C1127 C 0.62203 0.15155 0.16482 0.0
C1128 C 0.61085 0.1684 0.1773 0.0
C1129 C 0.64052 0.1176 0.1422 0.0
C1130 C 0.61623 0.11971 0.1345 0.0
C1131 C 0.60746 0.13688 0.14566 0.0
C1132 C 0.59887 0.10307 0.11636 0.0
C1133 C 0.65062 0.09883 0.1317 0.0
C1134 C 0.6042 0.10024 0.09289 0.0
C1135 C 0.58786 0.08394 0.07627 0.0
C1136 C 0.56573 0.07046 0.08276 0.0
C1137 C 0.56028 0.07372 0.10614 0.0
C1138 C 0.5767 0.08981 0.12275 0.0
H1139 H 0.66716 0.09617 0.1434 0.0
H1140 H 0.63645 0.08203 0.129 0.0
H1141 H 0.65611 0.10393 0.11391 0.0
H1142 H 0.62095 0.11067 0.08741 0.0
H1143 H 0.59247 0.08206 0.05833 0.0
H1144 H 0.45382 0.65738 0.32149 0.0
H1145 H 0.46884 0.63466 0.35377 0.0
H1146 H 0.40903 0.64079 0.39207 0.0
H1147 H 0.39359 0.66277 0.35953 0.0
H1148 H 0.48365 0.64072 0.40246 0.0
H1149 H 0.39694 0.57116 0.38301 0.0
H1150 H 0.40452 0.59501 0.36367 0.0
H1151 H 0.3919 0.59893 0.39086 0.0
C1152 C 0.44421 0.65422 0.33704 0.0
C1153 C 0.42244 0.66158 0.33796 0.0
C1154 C 0.45272 0.64118 0.35542 0.0
C1155 C 0.43965 0.63544 0.37502 0.0
C1156 C 0.41898 0.64436 0.37678 0.0
H1157 H 0.45979 0.54907 0.49742 0.0
H1158 H 0.44846 0.57849 0.47086 0.0
C1159 C 0.41029 0.65707 0.35831 0.0
C1160 C 0.44678 0.61914 0.39288 0.0
H1161 H 0.42502 0.56692 0.41705 0.0
C1162 C 0.47083 0.62459 0.40563 0.0
C1163 C 0.43009 0.59796 0.39691 0.0
C1164 C 0.40451 0.59026 0.38273 0.0
C1165 C 0.47852 0.60955 0.42244 0.0
C1166 C 0.46175 0.58858 0.42655 0.0
C1167 C 0.43771 0.58317 0.41398 0.0
C1168 C 0.46915 0.57143 0.44297 0.0
C1169 C 0.50448 0.61609 0.43579 0.0
C1170 C 0.48427 0.55762 0.43591 0.0
C1171 C 0.49052 0.54072 0.45087 0.0
C1172 C 0.48187 0.53744 0.47323 0.0
C1173 C 0.46674 0.5513 0.4803 0.0
C1174 C 0.4603 0.56809 0.4652 0.0
H1175 H 0.514 0.63444 0.43334 0.0
H1176 H 0.50429 0.61354 0.45534 0.0
H1177 H 0.51528 0.60457 0.42905 0.0
H1178 H 0.49106 0.55981 0.4187 0.0
H1179 H 0.50229 0.53035 0.44501 0.0
H1180 H 0.08924 0.40148 0.8079 0.0
H1181 H 0.07481 0.41883 0.84125 0.0
H1182 H 0.1501 0.45041 0.87189 0.0
H1183 H 0.16479 0.43292 0.8385 0.0
H1184 H 0.08228 0.41245 0.88929 0.0
H1185 H 0.11933 0.50559 0.87363 0.0
H1186 H 0.11799 0.4826 0.85154 0.0
H1187 H 0.14218 0.48892 0.87687 0.0
C1188 C 0.10286 0.41203 0.82172 0.0
C1189 C 0.12831 0.41558 0.82035 0.0
C1190 C 0.0945 0.42207 0.84084 0.0
C1191 C 0.11123 0.43619 0.85919 0.0
C1192 C 0.13667 0.44002 0.85783 0.0
H1193 H 0.06815 0.47055 0.99898 0.0
H1194 H 0.08687 0.45519 0.96724 0.0
C1195 C 0.14508 0.42995 0.83863 0.0
C1196 C 0.10186 0.4462 0.87991 0.0
H1197 H 0.10123 0.4973 0.90926 0.0
C1198 C 0.08652 0.43102 0.89364 0.0
C1199 C 0.10701 0.47046 0.88563 0.0
C1200 C 0.12233 0.4879 0.87104 0.0
C1201 C 0.07635 0.43929 0.91274 0.0
C1202 C 0.08186 0.46352 0.91875 0.0
C1203 C 0.09711 0.47873 0.90496 0.0
C1204 C 0.07117 0.47345 0.93856 0.0
C1205 C 0.05915 0.42196 0.92586 0.0
C1206 C 0.05659 0.48945 0.93344 0.0
C1207 C 0.04594 0.49837 0.95162 0.0
C1208 C 0.04965 0.49171 0.97558 0.0
C1209 C 0.06467 0.47603 0.98079 0.0
C1210 C 0.07532 0.46708 0.96255 0.0
H1211 H 0.05186 0.40508 0.91531 0.0
H1212 H 0.06936 0.4186 0.94322 0.0
H1213 H 0.04332 0.42879 0.92981 0.0
H1214 H 0.0531 0.49479 0.9152 0.0
H1215 H 0.0346 0.51042 0.94679 0.0
H1216 H 0.62278 0.77969 0.87265 0.0
H1217 H 0.60481 0.81043 0.88557 0.0
H1218 H 0.58446 0.82451 0.81148 0.0
H1219 H 0.60188 0.79312 0.79818 0.0
H1220 H 0.61369 0.86333 0.8408 0.0
H1221 H 0.53397 0.81801 0.88395 0.0
H1222 H 0.56139 0.80835 0.89357 0.0
H1223 H 0.54731 0.80343 0.86256 0.0
C1224 C 0.61371 0.78866 0.85899 0.0
C1225 C 0.6138 0.78387 0.83433 0.0
C1226 C 0.60348 0.80632 0.86645 0.0
C1227 C 0.5931 0.81956 0.84947 0.0
C1228 C 0.5923 0.81436 0.82483 0.0
H1229 H 0.56426 0.9542 0.89009 0.0
H1230 H 0.56616 0.92053 0.86494 0.0
C1231 C 0.6024 0.79653 0.8173 0.0
C1232 C 0.5859 0.84042 0.85781 0.0
H1233 H 0.55174 0.85831 0.89676 0.0
C1234 C 0.59975 0.86233 0.85259 0.0
C1235 C 0.56774 0.83896 0.87318 0.0
C1236 C 0.55157 0.81591 0.87847 0.0
C1237 C 0.59713 0.88281 0.86373 0.0
C1238 C 0.57989 0.88124 0.88014 0.0
C1239 C 0.56506 0.85941 0.88427 0.0
C1240 C 0.57854 0.90172 0.89489 0.0
C1241 C 0.61386 0.9058 0.85901 0.0
C1242 C 0.58463 0.90212 0.92 0.0
C1243 C 0.58353 0.9212 0.93434 0.0
C1244 C 0.57625 0.94025 0.92383 0.0
C1245 C 0.57026 0.93989 0.89863 0.0
C1246 C 0.57128 0.92069 0.88427 0.0
H1247 H 0.6291 0.9035 0.84926 0.0
H1248 H 0.60294 0.91605 0.84786 0.0
H1249 H 0.622 0.91605 0.8762 0.0
H1250 H 0.59039 0.88767 0.92851 0.0
H1251 H 0.5885 0.9211 0.95367 0.0
H1252 H 0.82799 0.13441 0.383 0.0
H1253 H 0.85777 0.11456 0.40292 0.0
H1254 H 0.89841 0.17875 0.4416 0.0
H1255 H 0.86867 0.19896 0.42142 0.0
H1256 H 0.9099 0.1258 0.40154 0.0
H1257 H 0.88623 0.13061 0.49448 0.0
H1258 H 0.86594 0.13524 0.46825 0.0
H1259 H 0.89308 0.15751 0.47952 0.0
C1260 C 0.84334 0.1444 0.39562 0.0
C1261 C 0.84607 0.16833 0.40048 0.0
C1262 C 0.86028 0.13299 0.40705 0.0
C1263 C 0.88023 0.14517 0.42374 0.0
C1264 C 0.88296 0.169 0.42894 0.0
H1265 H 1.00263 0.08357 0.47962 0.0
H1266 H 0.97925 0.10996 0.46045 0.0
C1267 C 0.86595 0.18049 0.41745 0.0
C1268 C 0.89813 0.13268 0.43533 0.0
H1269 H 0.91745 0.11168 0.48882 0.0
C1270 C 0.91178 0.12288 0.42066 0.0
C1271 C 0.90032 0.12881 0.46023 0.0
C1272 C 0.88554 0.13841 0.47662 0.0
C1273 C 0.92724 0.1089 0.43018 0.0
C1274 C 0.9292 0.1048 0.45502 0.0
C1275 C 0.91594 0.11498 0.46978 0.0
C1276 C 0.94356 0.08871 0.46579 0.0
C1277 C 0.9406 0.09786 0.41346 0.0
C1278 C 0.9312 0.06809 0.4751 0.0
C1279 C 0.94443 0.05301 0.48599 0.0
C1280 C 0.97034 0.05833 0.48794 0.0
C1281 C 0.98268 0.07889 0.47829 0.0
C1282 C 0.96938 0.09398 0.46732 0.0
H1283 H 0.93379 0.0995 0.3942 0.0
H1284 H 0.96061 0.10651 0.41688 0.0
H1285 H 0.93845 0.07912 0.41684 0.0
H1286 H 0.91127 0.06371 0.47404 0.0
H1287 H 0.9343 0.03736 0.49324 0.0
H1288 H 0.24337 0.68446 0.16692 0.0
H1289 H 0.2042 0.66077 0.14577 0.0
H1290 H 0.23663 0.602 0.14254 0.0
H1291 H 0.27542 0.62541 0.16473 0.0
H1292 H 0.19391 0.6419 0.10265 0.0
H1293 H 0.17365 0.57093 0.16512 0.0
H1294 H 0.19779 0.59706 0.17319 0.0
H1295 H 0.20319 0.57362 0.15543 0.0
C1296 C 0.24196 0.6664 0.1619 0.0
C1297 C 0.26226 0.65666 0.16751 0.0
C1298 C 0.21963 0.65287 0.14983 0.0
C1299 C 0.21727 0.62944 0.14287 0.0
C1300 C 0.23767 0.61977 0.14836 0.0
H1301 H 0.10184 0.55879 1.02763 0.0
H1302 H 0.14142 0.57761 0.05185 0.0
C1303 C 0.25988 0.63318 0.16087 0.0
C1304 C 0.1939 0.61565 0.1287 0.0
H1305 H 0.14984 0.56441 0.12592 0.0
C1306 C 0.18421 0.62502 0.10786 0.0
C1307 C 0.18102 0.59373 0.1356 0.0
C1308 C 0.18931 0.58337 0.1587 0.0
C1309 C 0.16213 0.61314 0.09372 0.0
C1310 C 0.14986 0.59074 0.09997 0.0
C1311 C 0.15944 0.5814 0.1209 0.0
C1312 C 0.12655 0.57717 0.08557 0.0
C1313 C 0.15185 0.62514 0.07267 0.0
C1314 C 0.10537 0.5693 0.09667 0.0
C1315 C 0.08293 0.55797 0.08295 0.0
C1316 C 0.08124 0.55458 0.05786 0.0
C1317 C 0.10261 0.56155 0.0469 0.0
C1318 C 0.12516 0.57246 0.06069 0.0
H1319 H 0.15908 0.64434 0.07484 0.0
H1320 H 0.15746 0.61916 0.0559 0.0
H1321 H 0.13137 0.62111 0.0705 0.0
H1322 H 0.10601 0.57253 0.11585 0.0
H1323 H 0.06672 0.55265 0.09187 0.0
H1324 H 0.26297 0.42231 0.63927 0.0
H1325 H 0.29804 0.43664 0.61782 0.0
H1326 H 0.34202 0.46865 0.68415 0.0
H1327 H 0.30716 0.45347 0.70605 0.0
H1328 H 0.32426 0.47935 0.61061 0.0
H1329 H 0.3867 0.43163 0.66081 0.0
H1330 H 0.35426 0.42583 0.6634 0.0
H1331 H 0.3757 0.45052 0.67966 0.0
C1332 C 0.28015 0.43217 0.64947 0.0
C1333 C 0.28218 0.43633 0.6746 0.0
C1334 C 0.30022 0.44055 0.63705 0.0
C1335 C 0.323 0.45337 0.64931 0.0
C1336 C 0.32491 0.45833 0.67427 0.0
H1337 H 0.44192 0.5319 0.57455 0.0
H1338 H 0.40749 0.52025 0.59759 0.0
C1339 C 0.30478 0.44987 0.68676 0.0
C1340 C 0.3445 0.46143 0.63579 0.0
H1341 H 0.40389 0.45804 0.63289 0.0
C1342 C 0.34167 0.47471 0.61555 0.0
C1343 C 0.36721 0.45512 0.64186 0.0
C1344 C 0.37117 0.43981 0.66246 0.0
C1345 C 0.36075 0.48187 0.60138 0.0
C1346 C 0.38368 0.47608 0.60781 0.0
C1347 C 0.38648 0.4627 0.62798 0.0
C1348 C 0.40479 0.4833 0.59363 0.0
C1349 C 0.35583 0.49503 0.57922 0.0
C1350 C 0.41542 0.46657 0.58409 0.0
C1351 C 0.43536 0.47322 0.57102 0.0
C1352 C 0.44529 0.49682 0.56718 0.0
C1353 C 0.43468 0.51355 0.57685 0.0
C1354 C 0.41481 0.50689 0.58999 0.0
H1355 H 0.33572 0.4922 0.57299 0.0
H1356 H 0.36353 0.51393 0.58354 0.0
H1357 H 0.36468 0.48975 0.56421 0.0
H1358 H 0.4082 0.44826 0.58667 0.0
H1359 H 0.44305 0.45981 0.56402 0.0
H1360 H 0.75859 0.63038 0.86464 0.0
H1361 H 0.78329 0.6175 0.89825 0.0
H1362 H 0.76925 0.66935 0.94584 0.0
H1363 H 0.74522 0.68294 0.91197 0.0
H1364 H 0.81714 0.6737 0.94697 0.0
H1365 H 0.77437 0.58138 0.95748 0.0
H1366 H 0.77687 0.58592 0.92633 0.0
H1367 H 0.75764 0.60018 0.94133 0.0
C1368 C 0.76033 0.63872 0.88236 0.0
C1369 C 0.75019 0.65781 0.8856 0.0
C1370 C 0.77417 0.63112 0.90167 0.0
C1371 C 0.7779 0.64228 0.92467 0.0
C1372 C 0.76643 0.66037 0.9283 0.0
H1373 H 0.89214 0.59309 1.01761 0.0
H1374 H 0.85377 0.60586 1.00838 0.0
C1375 C 0.7526 0.66803 0.90894 0.0
C1376 C 0.79703 0.63761 0.94341 0.0
H1377 H 0.8198 0.59302 0.9665 0.0
C1378 C 0.81738 0.65612 0.95185 0.0
C1379 C 0.79726 0.61482 0.95026 0.0
C1380 C 0.77518 0.59453 0.94356 0.0
C1381 C 0.83887 0.6521 0.96482 0.0
C1382 C 0.84014 0.62898 0.96903 0.0
C1383 C 0.81895 0.61074 0.96283 0.0
C1384 C 0.86403 0.62309 0.97631 0.0
C1385 C 0.86047 0.67255 0.9728 0.0
C1386 C 0.88236 0.62849 0.96127 0.0
C1387 C 0.90404 0.62105 0.96628 0.0
C1388 C 0.90788 0.60796 0.98645 0.0
C1389 C 0.88966 0.60296 1.00181 0.0
C1390 C 0.86782 0.61034 0.99668 0.0
H1391 H 0.85413 0.68853 0.97615 0.0
H1392 H 0.87184 0.66908 0.98944 0.0
H1393 H 0.87231 0.67597 0.95832 0.0
H1394 H 0.8795 0.63773 0.94507 0.0
H1395 H 0.91734 0.62475 0.95373 0.0
H1396 H 0.45983 0.83763 0.21831 0.0
H1397 H 0.47534 0.87175 0.19549 0.0
H1398 H 0.45764 0.8283 0.12983 0.0
H1399 H 0.4417 0.79444 0.15237 0.0
H1400 H 0.51136 0.88314 0.16718 0.0
H1401 H 0.42078 0.87738 0.1122 0.0
H1402 H 0.42422 0.86052 0.13831 0.0
H1403 H 0.43056 0.85091 0.10969 0.0
C1404 C 0.45948 0.83539 0.19904 0.0
C1405 C 0.44928 0.81345 0.18706 0.0
C1406 C 0.46825 0.85488 0.18601 0.0
C1407 C 0.46703 0.85272 0.16083 0.0
C1408 C 0.45802 0.83058 0.1491 0.0
H1409 H 0.54528 0.94676 0.06551 0.0
H1410 H 0.53177 0.91685 0.09357 0.0
C1411 C 0.44905 0.81121 0.16202 0.0
C1412 C 0.47496 0.8735 0.14667 0.0
H1413 H 0.45581 0.90201 0.09822 0.0
C1414 C 0.49916 0.8874 0.15223 0.0
C1415 C 0.45889 0.87943 0.12749 0.0
C1416 C 0.43209 0.86643 0.12173 0.0
C1417 C 0.50798 0.90649 0.13858 0.0
C1418 C 0.49238 0.91147 0.11842 0.0
C1419 C 0.46792 0.89807 0.11344 0.0
C1420 C 0.50108 0.93014 0.10193 0.0
C1421 C 0.53384 0.92125 0.14611 0.0
C1422 C 0.48789 0.94718 0.09654 0.0
C1423 C 0.49534 0.96404 0.08011 0.0
C1424 C 0.5162 0.96427 0.06887 0.0
C1425 C 0.52931 0.94719 0.07415 0.0
C1426 C 0.52174 0.9302 0.09039 0.0
H1427 H 0.54 0.92017 0.16564 0.0
H1428 H 0.54675 0.91482 0.13601 0.0
H1429 H 0.53518 0.93979 0.14229 0.0
H1430 H 0.4717 0.94735 0.10494 0.0
H1431 H 0.48456 0.97664 0.07593 0.0
H1432 H 0.1192 0.24168 0.70143 0.0
H1433 H 0.10059 0.20227 0.68313 0.0
H1434 H 0.09882 0.22982 0.61247 0.0
H1435 H 0.11773 0.2689 0.63057 0.0
H1436 H 0.05805 0.1818 0.65483 0.0
H1437 H 0.13525 0.18037 0.60404 0.0
H1438 H 0.13718 0.2027 0.62703 0.0
H1439 H 0.12224 0.20462 0.59691 0.0
C1440 C 0.11461 0.23931 0.68202 0.0
C1441 C 0.12026 0.2584 0.66746 0.0
C1442 C 0.10409 0.21676 0.67154 0.0
C1443 C 0.09896 0.21285 0.64631 0.0
C1444 C 0.10339 0.23212 0.63189 0.0
H1445 H 1.00032 0.09363 0.56416 0.0
H1446 H 0.0205 0.13082 0.58588 0.0
C1447 C 0.11405 0.25453 0.64229 0.0
C1448 C 0.08889 0.18879 0.63492 0.0
H1449 H 0.09793 0.15089 0.59215 0.0
C1450 C 0.0669 0.175 0.64127 0.0
C1451 C 0.10062 0.17952 0.61755 0.0
C1452 C 0.12526 0.19247 0.61117 0.0
C1453 C 0.05589 0.15273 0.63015 0.0
C1454 C 0.06679 0.14411 0.61167 0.0
C1455 C 0.08928 0.15752 0.60599 0.0
C1456 C 0.05489 0.12151 0.59771 0.0
C1457 C 0.0328 0.13859 0.6386 0.0
C1458 C 0.0678 0.10407 0.59594 0.0
C1459 C 0.05635 0.08277 0.58308 0.0
C1460 C 0.03175 0.0785 0.57176 0.0
C1461 C 0.01917 0.09622 0.57295 0.0
C1462 C 0.03064 0.11748 0.58559 0.0
H1463 H 0.03161 0.1439 0.65743 0.0
H1464 H 0.01639 0.14151 0.62697 0.0
H1465 H 0.03206 0.1197 0.63764 0.0
H1466 H 0.08661 0.10678 0.60485 0.0
H1467 H 0.06657 0.06952 0.5824 0.0
H1468 H 0.70769 0.3236 0.39467 0.0
H1469 H 0.68267 0.34526 0.41343 0.0
H1470 H 0.68629 0.30455 0.47614 0.0
H1471 H 0.71065 0.28218 0.45711 0.0
H1472 H 0.63918 0.30652 0.45914 0.0
H1473 H 0.70081 0.39527 0.46767 0.0
H1474 H 0.6958 0.38245 0.43761 0.0
H1475 H 0.71159 0.36968 0.46176 0.0
C1476 C 0.70327 0.31931 0.41251 0.0
C1477 C 0.7111 0.30109 0.42436 0.0
C1478 C 0.68921 0.33191 0.42333 0.0
C1479 C 0.68288 0.32674 0.44632 0.0
C1480 C 0.69113 0.30893 0.45845 0.0
H1481 H 0.60568 0.41025 0.52322 0.0
H1482 H 0.63583 0.38973 0.51218 0.0
C1483 C 0.70519 0.29628 0.44762 0.0
C1484 C 0.66613 0.33874 0.45682 0.0
H1485 H 0.65824 0.39247 0.4711 0.0
C1486 C 0.64346 0.32529 0.46201 0.0
C1487 C 0.67184 0.36321 0.46083 0.0
C1488 C 0.69644 0.37848 0.45691 0.0
C1489 C 0.62599 0.33571 0.47029 0.0
C1490 C 0.63116 0.36025 0.47304 0.0
C1491 C 0.65419 0.37366 0.4687 0.0
C1492 C 0.61273 0.37236 0.47991 0.0
C1493 C 0.60219 0.32031 0.47607 0.0
C1494 C 0.58985 0.3696 0.4653 0.0
C1495 C 0.57262 0.38131 0.47153 0.0
C1496 C 0.57802 0.3962 0.4924 0.0
C1497 C 0.60104 0.39906 0.50692 0.0
C1498 C 0.61824 0.38729 0.5007 0.0
H1499 H 0.60409 0.30244 0.47981 0.0
H1500 H 0.59608 0.32762 0.49189 0.0
H1501 H 0.58756 0.31896 0.46037 0.0
H1502 H 0.58545 0.35862 0.44886 0.0
H1503 H 0.55528 0.37907 0.45971 0.0
loop_
_geom_bond_atom_site_label_1
_geom_bond_atom_site_label_2
_geom_bond_distance
_geom_bond_site_symmetry_2
_ccdc_geom_bond_type
C0 C1 1.391 . S
C0 C4 1.391 . S
C0 H42 0.948 . S
C1 C0 1.391 . S
C1 C2 1.391 . S
C2 C1 1.391 . S
C2 H58 0.947 . S
C2 C59 1.392 . S
C3 C4 1.391 . S
C3 C7 1.397 . S
C3 C59 1.419 . S
C4 C0 1.391 . S
C4 C3 1.391 . S
C4 C5 1.399 . S
C5 C4 1.399 . S
C5 C8 1.396 . S
C5 C17 1.453 . S
C5 C18 1.684 . S
H6 C30 0.948 . S
C7 C3 1.397 . S
C7 C8 1.394 . S
C7 C26 1.723 . S
C8 C5 1.396 . S
C8 C7 1.394 . S
C8 C38 1.723 . S
H9 C32 0.947 . S
H10 C33 0.948 . S
H11 C39 0.982 . S
H12 C40 0.979 . S
H13 C40 0.980 . S
H14 C40 0.983 . S
H15 C39 0.979 . S
H16 C39 0.977 . S
C17 C5 1.453 . S
C17 H46 0.982 . S
C17 H47 0.979 . S
C17 H48 0.977 . S
C18 C5 1.684 . S
C18 H43 0.979 . S
C18 H44 0.980 . S
C18 H45 0.983 . S
C19 C20 1.391 . S
C19 C24 1.391 . S
C19 H49 0.948 . S
C20 C19 1.391 . S
C20 C21 1.391 . S
C21 C20 1.391 . S
C21 C22 1.392 . S
C21 H50 0.947 . S
C22 C21 1.392 . S
C22 C23 1.419 . S
C22 H51 0.948 . S
C23 C22 1.419 . S
C23 C24 1.391 . S
C23 C27 1.397 . S
C24 C19 1.391 . S
C24 C23 1.391 . S
C24 C25 1.399 . S
C25 C24 1.399 . S
C25 C26 1.396 . S
C25 C28 1.453 . S
C25 C29 1.684 . S
C26 C7 1.723 . S
C26 C25 1.396 . S
C26 C27 1.394 . S
C27 C23 1.397 . S
C27 C26 1.394 . S
C27 C37 1.723 . S
C28 C25 1.453 . S
C28 H52 0.982 . S
C28 H53 0.979 . S
C28 H54 0.977 . S
C29 C25 1.684 . S
C29 H55 0.979 . S
C29 H56 0.980 . S
C29 H57 0.983 . S
C30 H6 0.948 . S
C30 C31 1.391 . S
C30 C35 1.391 . S
C31 C30 1.391 . S
C31 C32 1.391 . S
C32 H9 0.947 . S
C32 C31 1.391 . S
C32 C33 1.392 . S
C33 H10 0.948 . S
C33 C32 1.392 . S
C33 C34 1.419 . S
C34 C33 1.419 . S
C34 C35 1.391 . S
C34 C38 1.397 . S
C35 C30 1.391 . S
C35 C34 1.391 . S
C35 C36 1.399 . S
C36 C35 1.399 . S
C36 C37 1.396 . S
C36 C39 1.453 . S
C36 C40 1.684 . S
C37 C27 1.723 . S
C37 C36 1.396 . S
C37 C38 1.394 . S
C38 C8 1.723 . S
C38 C34 1.397 . S
C38 C37 1.394 . S
C39 H11 0.982 . S
C39 H15 0.979 . S
C39 H16 0.977 . S
C39 C36 1.453 . S
C40 H12 0.979 . S
C40 H13 0.980 . S
C40 H14 0.983 . S
C40 C36 1.684 . S
H41 C59 0.948 . S
H42 C0 0.948 . S
H43 C18 0.979 . S
H44 C18 0.980 . S
H45 C18 0.983 . S
H46 C17 0.982 . S
H47 C17 0.979 . S
H48 C17 0.977 . S
H49 C19 0.948 . S
H50 C21 0.947 . S
H51 C22 0.948 . S
H52 C28 0.982 . S
H53 C28 0.979 . S
H54 C28 0.977 . S
H55 C29 0.979 . S
H56 C29 0.980 . S
H57 C29 0.983 . S
H58 C2 0.947 . S
C59 C2 1.392 . S
C59 C3 1.419 . S
C59 H41 0.948 . S
C60 C61 1.391 . S
C60 C64 1.391 . S
C60 H102 0.948 . S
C61 C60 1.391 . S
C61 C62 1.391 . S
C62 C61 1.391 . S
C62 H118 0.947 . S
C62 C119 1.392 . S
C63 C64 1.391 . S
C63 C67 1.397 . S
C63 C119 1.419 . S
C64 C60 1.391 . S
C64 C63 1.391 . S
C64 C65 1.399 . S
C65 C64 1.399 . S
C65 C68 1.396 . S
C65 C77 1.453 . S
C65 C78 1.684 . S
H66 C90 0.948 . S
C67 C63 1.397 . S
C67 C68 1.394 . S
C67 C86 1.723 . S
C68 C65 1.396 . S
C68 C67 1.394 . S
C68 C98 1.723 . S
H69 C92 0.947 . S
H70 C93 0.948 . S
H71 C99 0.982 . S
H72 C100 0.979 . S
H73 C100 0.980 . S
H74 C100 0.983 . S
H75 C99 0.979 . S
H76 C99 0.977 . S
C77 C65 1.453 . S
C77 H106 0.982 . S
C77 H107 0.979 . S
C77 H108 0.977 . S
C78 C65 1.684 . S
C78 H103 0.979 . S
C78 H104 0.980 . S
C78 H105 0.983 . S
C79 C80 1.391 . S
C79 C84 1.391 . S
C79 H109 0.948 . S
C80 C79 1.391 . S
C80 C81 1.391 . S
C81 C80 1.391 . S
C81 C82 1.392 . S
C81 H110 0.947 . S
C82 C81 1.392 . S
C82 C83 1.419 . S
C82 H111 0.948 . S
C83 C82 1.419 . S
C83 C84 1.391 . S
C83 C87 1.397 . S
C84 C79 1.391 . S
C84 C83 1.391 . S
C84 C85 1.399 . S
C85 C84 1.399 . S
C85 C86 1.396 . S
C85 C88 1.453 . S
C85 C89 1.684 . S
C86 C67 1.723 . S
C86 C85 1.396 . S
C86 C87 1.394 . S
C87 C83 1.397 . S
C87 C86 1.394 . S
C87 C97 1.723 . S
C88 C85 1.453 . S
C88 H112 0.982 . S
C88 H113 0.979 . S
C88 H114 0.977 . S
C89 C85 1.684 . S
C89 H115 0.979 . S
C89 H116 0.980 . S
C89 H117 0.983 . S
C90 H66 0.948 . S
C90 C91 1.391 . S
C90 C95 1.391 . S
C91 C90 1.391 . S
C91 C92 1.391 . S
C92 H69 0.947 . S
C92 C91 1.391 . S
C92 C93 1.392 . S
C93 H70 0.948 . S
C93 C92 1.392 . S
C93 C94 1.419 . S
C94 C93 1.419 . S
C94 C95 1.391 . S
C94 C98 1.397 . S
C95 C90 1.391 . S
C95 C94 1.391 . S
C95 C96 1.399 . S
C96 C95 1.399 . S
C96 C97 1.396 . S
C96 C99 1.453 . S
C96 C100 1.684 . S
C97 C87 1.723 . S
C97 C96 1.396 . S
C97 C98 1.394 . S
C98 C68 1.723 . S
C98 C94 1.397 . S
C98 C97 1.394 . S
C99 H71 0.982 . S
C99 H75 0.979 . S
C99 H76 0.977 . S
C99 C96 1.453 . S
C100 H72 0.979 . S
C100 H73 0.980 . S
C100 H74 0.983 . S
C100 C96 1.684 . S
H101 C119 0.948 . S
H102 C60 0.948 . S
H103 C78 0.979 . S
H104 C78 0.980 . S
H105 C78 0.983 . S
H106 C77 0.982 . S
H107 C77 0.979 . S
H108 C77 0.977 . S
H109 C79 0.948 . S
H110 C81 0.947 . S
H111 C82 0.948 . S
H112 C88 0.982 . S
H113 C88 0.979 . S
H114 C88 0.977 . S
H115 C89 0.979 . S
H116 C89 0.980 . S
H117 C89 0.983 . S
H118 C62 0.947 . S
C119 C62 1.392 . S
C119 C63 1.419 . S
C119 H101 0.948 . S
C120 C121 1.391 . S
C120 C124 1.391 . S
C120 H162 0.948 . S
C121 C120 1.391 . S
C121 C122 1.391 . S
C122 C121 1.391 . S
C122 H178 0.947 . S
C122 C179 1.392 . S
C123 C124 1.391 . S
C123 C127 1.397 . S
C123 C179 1.419 . S
C124 C120 1.391 . S
C124 C123 1.391 . S
C124 C125 1.399 . S
C125 C124 1.399 . S
C125 C128 1.396 . S
C125 C137 1.453 . S
C125 C138 1.684 . S
H126 C150 0.948 . S
C127 C123 1.397 . S
C127 C128 1.394 . S
C127 C146 1.723 . S
C128 C125 1.396 . S
C128 C127 1.394 . S
C128 C158 1.723 . S
H129 C152 0.947 . S
H130 C153 0.948 . S
H131 C159 0.982 . S
H132 C160 0.979 . S
H133 C160 0.980 . S
H134 C160 0.983 . S
H135 C159 0.979 . S
H136 C159 0.977 . S
C137 C125 1.453 . S
C137 H166 0.982 . S
C137 H167 0.979 . S
C137 H168 0.977 . S
C138 C125 1.684 . S
C138 H163 0.979 . S
C138 H164 0.980 . S
C138 H165 0.983 . S
C139 C140 1.391 . S
C139 C144 1.391 . S
C139 H169 0.948 . S
C140 C139 1.391 . S
C140 C141 1.391 . S
C141 C140 1.391 . S
C141 C142 1.392 . S
C141 H170 0.947 . S
C142 C141 1.392 . S
C142 C143 1.419 . S
C142 H171 0.948 . S
C143 C142 1.419 . S
C143 C144 1.391 . S
C143 C147 1.397 . S
C144 C139 1.391 . S
C144 C143 1.391 . S
C144 C145 1.399 . S
C145 C144 1.399 . S
C145 C146 1.396 . S
C145 C148 1.453 . S
C145 C149 1.684 . S
C146 C127 1.723 . S
C146 C145 1.396 . S
C146 C147 1.394 . S
C147 C143 1.397 . S
C147 C146 1.394 . S
C147 C157 1.723 . S
C148 C145 1.453 . S
C148 H172 0.982 . S
C148 H173 0.979 . S
C148 H174 0.977 . S
C149 C145 1.684 . S
C149 H175 0.979 . S
C149 H176 0.980 . S
C149 H177 0.983 . S
C150 H126 0.948 . S
C150 C151 1.391 . S
C150 C155 1.391 . S
C151 C150 1.391 . S
C151 C152 1.391 . S
C152 H129 0.947 . S
C152 C151 1.391 . S
C152 C153 1.392 . S
C153 H130 0.948 . S
C153 C152 1.392 . S
C153 C154 1.419 . S
C154 C153 1.419 . S
C154 C155 1.391 . S
C154 C158 1.397 . S
C155 C150 1.391 . S
C155 C154 1.391 . S
C155 C156 1.399 . S
C156 C155 1.399 . S
C156 C157 1.396 . S
C156 C159 1.453 . S
C156 C160 1.684 . S
C157 C147 1.723 . S
C157 C156 1.396 . S
C157 C158 1.394 . S
C158 C128 1.723 . S
C158 C154 1.397 . S
C158 C157 1.394 . S
C159 H131 0.982 . S
C159 H135 0.979 . S
C159 H136 0.977 . S
C159 C156 1.453 . S
C160 H132 0.979 . S
C160 H133 0.980 . S
C160 H134 0.983 . S
C160 C156 1.684 . S
H161 C179 0.948 . S
H162 C120 0.948 . S
H163 C138 0.979 . S
H164 C138 0.980 . S
H165 C138 0.983 . S
H166 C137 0.982 . S
H167 C137 0.979 . S
H168 C137 0.977 . S
H169 C139 0.948 . S
H170 C141 0.947 . S
H171 C142 0.948 . S
H172 C148 0.982 . S
H173 C148 0.979 . S
H174 C148 0.977 . S
H175 C149 0.979 . S
H176 C149 0.980 . S
H177 C149 0.983 . S
H178 C122 0.947 . S
C179 C122 1.392 . S
C179 C123 1.419 . S
C179 H161 0.948 . S
C180 C181 1.391 . S
C180 C184 1.391 . S
C180 H222 0.948 . S
C181 C180 1.391 . S
C181 C182 1.391 . S
C182 C181 1.391 . S
C182 H238 0.947 . S
C182 C239 1.392 . S
C183 C184 1.391 . S
C183 C187 1.397 . S
C183 C239 1.419 . S
C184 C180 1.391 . S
C184 C183 1.391 . S
C184 C185 1.399 . S
C185 C184 1.399 . S
C185 C188 1.396 . S
C185 C197 1.453 . S
C185 C198 1.684 . S
H186 C210 0.948 . S
C187 C183 1.397 . S
C187 C188 1.394 . S
C187 C206 1.723 . S
C188 C185 1.396 . S
C188 C187 1.394 . S
C188 C218 1.723 . S
H189 C212 0.947 . S
H190 C213 0.948 . S
H191 C219 0.982 . S
H192 C220 0.979 . S
H193 C220 0.980 . S
H194 C220 0.983 . S
H195 C219 0.979 . S
H196 C219 0.977 . S
C197 C185 1.453 . S
C197 H226 0.982 . S
C197 H227 0.979 . S
C197 H228 0.977 . S
C198 C185 1.684 . S
C198 H223 0.979 . S
C198 H224 0.980 . S
C198 H225 0.983 . S
C199 C200 1.391 . S
C199 C204 1.391 . S
C199 H229 0.948 . S
C200 C199 1.391 . S
C200 C201 1.391 . S
C201 C200 1.391 . S
C201 C202 1.392 . S
C201 H230 0.947 . S
C202 C201 1.392 . S
C202 C203 1.419 . S
C202 H231 0.948 . S
C203 C202 1.419 . S
C203 C204 1.391 . S
C203 C207 1.397 . S
C204 C199 1.391 . S
C204 C203 1.391 . S
C204 C205 1.399 . S
C205 C204 1.399 . S
C205 C206 1.396 . S
C205 C208 1.453 . S
C205 C209 1.684 . S
C206 C187 1.723 . S
C206 C205 1.396 . S
C206 C207 1.394 . S
C207 C203 1.397 . S
C207 C206 1.394 . S
C207 C217 1.723 . S
C208 C205 1.453 . S
C208 H232 0.982 . S
C208 H233 0.979 . S
C208 H234 0.977 . S
C209 C205 1.684 . S
C209 H235 0.979 . S
C209 H236 0.980 . S
C209 H237 0.983 . S
C210 H186 0.948 . S
C210 C211 1.391 . S
C210 C215 1.391 . S
C211 C210 1.391 . S
C211 C212 1.391 . S
C212 H189 0.947 . S
C212 C211 1.391 . S
C212 C213 1.392 . S
C213 H190 0.948 . S
C213 C212 1.392 . S
C213 C214 1.419 . S
C214 C213 1.419 . S
C214 C215 1.391 . S
C214 C218 1.397 . S
C215 C210 1.391 . S
C215 C214 1.391 . S
C215 C216 1.399 . S
C216 C215 1.399 . S
C216 C217 1.396 . S
C216 C219 1.453 . S
C216 C220 1.684 . S
C217 C207 1.723 . S
C217 C216 1.396 . S
C217 C218 1.394 . S
C218 C188 1.723 . S
C218 C214 1.397 . S
C218 C217 1.394 . S
C219 H191 0.982 . S
C219 H195 0.979 . S
C219 H196 0.977 . S
C219 C216 1.453 . S
C220 H192 0.979 . S
C220 H193 0.980 . S
C220 H194 0.983 . S
C220 C216 1.684 . S
H221 C239 0.948 . S
H222 C180 0.948 . S
H223 C198 0.979 . S
H224 C198 0.980 . S
H225 C198 0.983 . S
H226 C197 0.982 . S
H227 C197 0.979 . S
H228 C197 0.977 . S
H229 C199 0.948 . S
H230 C201 0.947 . S
H231 C202 0.948 . S
H232 C208 0.982 . S
H233 C208 0.979 . S
H234 C208 0.977 . S
H235 C209 0.979 . S
H236 C209 0.980 . S
H237 C209 0.983 . S
H238 C182 0.947 . S
C239 C182 1.392 . S
C239 C183 1.419 . S
C239 H221 0.948 . S
C240 C241 1.391 . S
C240 C244 1.391 . S
C240 H282 0.948 . S
C241 C240 1.391 . S
C241 C242 1.391 . S
C242 C241 1.391 . S
C242 H298 0.947 . S
C242 C299 1.392 . S
C243 C244 1.391 . S
C243 C247 1.397 . S
C243 C299 1.419 . S
C244 C240 1.391 . S
C244 C243 1.391 . S
C244 C245 1.399 . S
C245 C244 1.399 . S
C245 C248 1.396 . S
C245 C257 1.453 . S
C245 C258 1.684 . S
H246 C270 0.948 . S
C247 C243 1.397 . S
C247 C248 1.394 . S
C247 C266 1.723 . S
C248 C245 1.396 . S
C248 C247 1.394 . S
C248 C278 1.723 . S
H249 C272 0.947 . S
H250 C273 0.948 . S
H251 C279 0.982 . S
H252 C280 0.979 . S
H253 C280 0.980 . S
H254 C280 0.983 . S
H255 C279 0.979 . S
H256 C279 0.977 . S
C257 C245 1.453 . S
C257 H286 0.982 . S
C257 H287 0.979 . S
C257 H288 0.977 . S
C258 C245 1.684 . S
C258 H283 0.979 . S
C258 H284 0.980 . S
C258 H285 0.983 . S
C259 C260 1.391 . S
C259 C264 1.391 . S
C259 H289 0.948 . S
C260 C259 1.391 . S
C260 C261 1.391 . S
C261 C260 1.391 . S
C261 C262 1.392 . S
C261 H290 0.947 . S
C262 C261 1.392 . S
C262 C263 1.419 . S
C262 H291 0.948 . S
C263 C262 1.419 . S
C263 C264 1.391 . S
C263 C267 1.397 . S
C264 C259 1.391 . S
C264 C263 1.391 . S
C264 C265 1.399 . S
C265 C264 1.399 . S
C265 C266 1.396 . S
C265 C268 1.453 . S
C265 C269 1.684 . S
C266 C247 1.723 . S
C266 C265 1.396 . S
C266 C267 1.394 . S
C267 C263 1.397 . S
C267 C266 1.394 . S
C267 C277 1.723 . S
C268 C265 1.453 . S
C268 H292 0.982 . S
C268 H293 0.979 . S
C268 H294 0.977 . S
C269 C265 1.684 . S
C269 H295 0.979 . S
C269 H296 0.980 . S
C269 H297 0.983 . S
C270 H246 0.948 . S
C270 C271 1.391 . S
C270 C275 1.391 . S
C271 C270 1.391 . S
C271 C272 1.391 . S
C272 H249 0.947 . S
C272 C271 1.391 . S
C272 C273 1.392 . S
C273 H250 0.948 . S
C273 C272 1.392 . S
C273 C274 1.419 . S
C274 C273 1.419 . S
C274 C275 1.391 . S
C274 C278 1.397 . S
C275 C270 1.391 . S
C275 C274 1.391 . S
C275 C276 1.399 . S
C276 C275 1.399 . S
C276 C277 1.396 . S
C276 C279 1.453 . S
C276 C280 1.684 . S
C277 C267 1.723 . S
C277 C276 1.396 . S
C277 C278 1.394 . S
C278 C248 1.723 . S
C278 C274 1.397 . S
C278 C277 1.394 . S
C279 H251 0.982 . S
C279 H255 0.979 . S
C279 H256 0.977 . S
C279 C276 1.453 . S
C280 H252 0.979 . S
C280 H253 0.980 . S
C280 H254 0.983 . S
C280 C276 1.684 . S
H281 C299 0.948 . S
H282 C240 0.948 . S
H283 C258 0.979 . S
H284 C258 0.980 . S
H285 C258 0.983 . S
H286 C257 0.982 . S
H287 C257 0.979 . S
H288 C257 0.977 . S
H289 C259 0.948 . S
H290 C261 0.947 . S
H291 C262 0.948 . S
H292 C268 0.982 . S
H293 C268 0.979 . S
H294 C268 0.977 . S
H295 C269 0.979 . S
H296 C269 0.980 . S
H297 C269 0.983 . S
H298 C242 0.947 . S
C299 C242 1.392 . S
C299 C243 1.419 . S
C299 H281 0.948 . S
C300 C301 1.391 . S
C300 C304 1.391 . S
C300 H342 0.948 . S
C301 C300 1.391 . S
C301 C302 1.391 . S
C302 C301 1.391 . S
C302 H358 0.947 . S
C302 C359 1.392 . S
C303 C304 1.391 . S
C303 C307 1.397 . S
C303 C359 1.419 . S
C304 C300 1.391 . S
C304 C303 1.391 . S
C304 C305 1.399 . S
C305 C304 1.399 . S
C305 C308 1.396 . S
C305 C317 1.453 . S
C305 C318 1.684 . S
H306 C330 0.948 . S
C307 C303 1.397 . S
C307 C308 1.394 . S
C307 C326 1.723 . S
C308 C305 1.396 . S
C308 C307 1.394 . S
C308 C338 1.723 . S
H309 C332 0.947 . S
H310 C333 0.948 . S
H311 C339 0.982 . S
H312 C340 0.979 . S
H313 C340 0.980 . S
H314 C340 0.983 . S
H315 C339 0.979 . S
H316 C339 0.977 . S
C317 C305 1.453 . S
C317 H346 0.982 . S
C317 H347 0.979 . S
C317 H348 0.977 . S
C318 C305 1.684 . S
C318 H343 0.979 . S
C318 H344 0.980 . S
C318 H345 0.983 . S
C319 C320 1.391 . S
C319 C324 1.391 . S
C319 H349 0.948 . S
C320 C319 1.391 . S
C320 C321 1.391 . S
C321 C320 1.391 . S
C321 C322 1.392 . S
C321 H350 0.947 . S
C322 C321 1.392 . S
C322 C323 1.419 . S
C322 H351 0.948 . S
C323 C322 1.419 . S
C323 C324 1.391 . S
C323 C327 1.397 . S
C324 C319 1.391 . S
C324 C323 1.391 . S
C324 C325 1.399 . S
C325 C324 1.399 . S
C325 C326 1.396 . S
C325 C328 1.453 . S
C325 C329 1.684 . S
C326 C307 1.723 . S
C326 C325 1.396 . S
C326 C327 1.394 . S
C327 C323 1.397 . S
C327 C326 1.394 . S
C327 C337 1.723 . S
C328 C325 1.453 . S
C328 H352 0.982 . S
C328 H353 0.979 . S
C328 H354 0.977 . S
C329 C325 1.684 . S
C329 H355 0.979 . S
C329 H356 0.980 . S
C329 H357 0.983 . S
C330 H306 0.948 . S
C330 C331 1.391 . S
C330 C335 1.391 . S
C331 C330 1.391 . S
C331 C332 1.391 . S
C332 H309 0.947 . S
C332 C331 1.391 . S
C332 C333 1.392 . S
C333 H310 0.948 . S
C333 C332 1.392 . S
C333 C334 1.419 . S
C334 C333 1.419 . S
C334 C335 1.391 . S
C334 C338 1.397 . S
C335 C330 1.391 . S
C335 C334 1.391 . S
C335 C336 1.399 . S
C336 C335 1.399 . S
C336 C337 1.396 . S
C336 C339 1.453 . S
C336 C340 1.684 . S
C337 C327 1.723 . S
C337 C336 1.396 . S
C337 C338 1.394 . S
C338 C308 1.723 . S
C338 C334 1.397 . S
C338 C337 1.394 . S
C339 H311 0.982 . S
C339 H315 0.979 . S
C339 H316 0.977 . S
C339 C336 1.453 . S
C340 H312 0.979 . S
C340 H313 0.980 . S
C340 H314 0.983 . S
C340 C336 1.684 . S
H341 C359 0.948 . S
H342 C300 0.948 . S
H343 C318 0.979 . S
H344 C318 0.980 . S
H345 C318 0.983 . S
H346 C317 0.982 . S
H347 C317 0.979 . S
H348 C317 0.977 . S
H349 C319 0.948 . S
H350 C321 0.947 . S
H351 C322 0.948 . S
H352 C328 0.982 . S
H353 C328 0.979 . S
H354 C328 0.977 . S
H355 C329 0.979 . S
H356 C329 0.980 . S
H357 C329 0.983 . S
H358 C302 0.947 . S
C359 C302 1.392 . S
C359 C303 1.419 . S
C359 H341 0.948 . S
C360 C361 1.391 . S
C360 C364 1.391 . S
C360 H402 0.948 . S
C361 C360 1.391 . S
C361 C362 1.391 . S
C362 C361 1.391 . S
C362 H418 0.947 . S
C362 C419 1.392 . S
C363 C364 1.391 . S
C363 C367 1.397 . S
C363 C419 1.419 . S
C364 C360 1.391 . S
C364 C363 1.391 . S
C364 C365 1.399 . S
C365 C364 1.399 . S
C365 C368 1.396 . S
C365 C377 1.453 . S
C365 C378 1.684 . S
H366 C390 0.948 . S
C367 C363 1.397 . S
C367 C368 1.394 . S
C367 C386 1.723 . S
C368 C365 1.396 . S
C368 C367 1.394 . S
C368 C398 1.723 . S
H369 C392 0.947 . S
H370 C393 0.948 . S
H371 C399 0.982 . S
H372 C400 0.979 . S
H373 C400 0.980 . S
H374 C400 0.983 . S
H375 C399 0.979 . S
H376 C399 0.977 . S
C377 C365 1.453 . S
C377 H406 0.982 . S
C377 H407 0.979 . S
C377 H408 0.977 . S
C378 C365 1.684 . S
C378 H403 0.979 . S
C378 H404 0.980 . S
C378 H405 0.983 . S
C379 C380 1.391 . S
C379 C384 1.391 . S
C379 H409 0.948 . S
C380 C379 1.391 . S
C380 C381 1.391 . S
C381 C380 1.391 . S
C381 C382 1.392 . S
C381 H410 0.947 . S
C382 C381 1.392 . S
C382 C383 1.419 . S
C382 H411 0.948 . S
C383 C382 1.419 . S
C383 C384 1.391 . S
C383 C387 1.397 . S
C384 C379 1.391 . S
C384 C383 1.391 . S
C384 C385 1.399 . S
C385 C384 1.399 . S
C385 C386 1.396 . S
C385 C388 1.453 . S
C385 C389 1.684 . S
C386 C367 1.723 . S
C386 C385 1.396 . S
C386 C387 1.394 . S
C387 C383 1.397 . S
C387 C386 1.394 . S
C387 C397 1.723 . S
C388 C385 1.453 . S
C388 H412 0.982 . S
C388 H413 0.979 . S
C388 H414 0.977 . S
C389 C385 1.684 . S
C389 H415 0.979 . S
C389 H416 0.980 . S
C389 H417 0.983 . S
C390 H366 0.948 . S
C390 C391 1.391 . S
C390 C395 1.391 . S
C391 C390 1.391 . S
C391 C392 1.391 . S
C392 H369 0.947 . S
C392 C391 1.391 . S
C392 C393 1.392 . S
C393 H370 0.948 . S
C393 C392 1.392 . S
C393 C394 1.419 . S
C394 C393 1.419 . S
C394 C395 1.391 . S
C394 C398 1.397 . S
C395 C390 1.391 . S
C395 C394 1.391 . S
C395 C396 1.399 . S
C396 C395 1.399 . S
C396 C397 1.396 . S
C396 C399 1.453 . S
C396 C400 1.684 . S
C397 C387 1.723 . S
C397 C396 1.396 . S
C397 C398 1.394 . S
C398 C368 1.723 . S
C398 C394 1.397 . S
C398 C397 1.394 . S
C399 H371 0.982 . S
C399 H375 0.979 . S
C399 H376 0.977 . S
C399 C396 1.453 . S
C400 H372 0.979 . S
C400 H373 0.980 . S
C400 H374 0.983 . S
C400 C396 1.684 . S
H401 C419 0.948 . S
H402 C360 0.948 . S
H403 C378 0.979 . S
H404 C378 0.980 . S
H405 C378 0.983 . S
H406 C377 0.982 . S
H407 C377 0.979 . S
H408 C377 0.977 . S
H409 C379 0.948 . S
H410 C381 0.947 . S
H411 C382 0.948 . S
H412 C388 0.982 . S
H413 C388 0.979 . S
H414 C388 0.977 . S
H415 C389 0.979 . S
H416 C389 0.980 . S
H417 C389 0.983 . S
H418 C362 0.947 . S
C419 C362 1.392 . S
C419 C363 1.419 . S
C419 H401 0.948 . S
C420 C421 1.391 . S
C420 C424 1.391 . S
C420 H462 0.948 . S
C421 C420 1.391 . S
C421 C422 1.391 . S
C422 C421 1.391 . S
C422 H478 0.947 . S
C422 C479 1.392 . S
C423 C424 1.391 . S
C423 C427 1.397 . S
C423 C479 1.419 . S
C424 C420 1.391 . S
C424 C423 1.391 . S
C424 C425 1.399 . S
C425 C424 1.399 . S
C425 C428 1.396 . S
C425 C437 1.453 . S
C425 C438 1.684 . S
H426 C450 0.948 . S
C427 C423 1.397 . S
C427 C428 1.394 . S
C427 C446 1.723 . S
C428 C425 1.396 . S
C428 C427 1.394 . S
C428 C458 1.723 . S
H429 C452 0.947 . S
H430 C453 0.948 . S
H431 C459 0.982 . S
H432 C460 0.979 . S
H433 C460 0.980 . S
H434 C460 0.983 . S
H435 C459 0.979 . S
H436 C459 0.977 . S
C437 C425 1.453 . S
C437 H466 0.982 . S
C437 H467 0.979 . S
C437 H468 0.977 . S
C438 C425 1.684 . S
C438 H463 0.979 . S
C438 H464 0.980 . S
C438 H465 0.983 . S
C439 C440 1.391 . S
C439 C444 1.391 . S
C439 H469 0.948 . S
C440 C439 1.391 . S
C440 C441 1.391 . S
C441 C440 1.391 . S
C441 C442 1.392 . S
C441 H470 0.947 . S
C442 C441 1.392 . S
C442 C443 1.419 . S
C442 H471 0.948 . S
C443 C442 1.419 . S
C443 C444 1.391 . S
C443 C447 1.397 . S
C444 C439 1.391 . S
C444 C443 1.391 . S
C444 C445 1.399 . S
C445 C444 1.399 . S
C445 C446 1.396 . S
C445 C448 1.453 . S
C445 C449 1.684 . S
C446 C427 1.723 . S
C446 C445 1.396 . S
C446 C447 1.394 . S
C447 C443 1.397 . S
C447 C446 1.394 . S
C447 C457 1.723 . S
C448 C445 1.453 . S
C448 H472 0.982 . S
C448 H473 0.979 . S
C448 H474 0.977 . S
C449 C445 1.684 . S
C449 H475 0.979 . S
C449 H476 0.980 . S
C449 H477 0.983 . S
C450 H426 0.948 . S
C450 C451 1.391 . S
C450 C455 1.391 . S
C451 C450 1.391 . S
C451 C452 1.391 . S
C452 H429 0.947 . S
C452 C451 1.391 . S
C452 C453 1.392 . S
C453 H430 0.948 . S
C453 C452 1.392 . S
C453 C454 1.419 . S
C454 C453 1.419 . S
C454 C455 1.391 . S
C454 C458 1.397 . S
C455 C450 1.391 . S
C455 C454 1.391 . S
C455 C456 1.399 . S
C456 C455 1.399 . S
C456 C457 1.396 . S
C456 C459 1.453 . S
C456 C460 1.684 . S
C457 C447 1.723 . S
C457 C456 1.396 . S
C457 C458 1.394 . S
C458 C428 1.723 . S
C458 C454 1.397 . S
C458 C457 1.394 . S
C459 H431 0.982 . S
C459 H435 0.979 . S
C459 H436 0.977 . S
C459 C456 1.453 . S
C460 H432 0.979 . S
C460 H433 0.980 . S
C460 H434 0.983 . S
C460 C456 1.684 . S
H461 C479 0.948 . S
H462 C420 0.948 . S
H463 C438 0.979 . S
H464 C438 0.980 . S
H465 C438 0.983 . S
H466 C437 0.982 . S
H467 C437 0.979 . S
H468 C437 0.977 . S
H469 C439 0.948 . S
H470 C441 0.947 . S
H471 C442 0.948 . S
H472 C448 0.982 . S
H473 C448 0.979 . S
H474 C448 0.977 . S
H475 C449 0.979 . S
H476 C449 0.980 . S
H477 C449 0.983 . S
H478 C422 0.947 . S
C479 C422 1.392 . S
C479 C423 1.419 . S
C479 H461 0.948 . S
Pr480 C482 2.880 . S
Pr480 O500 2.562 . S
Pr480 O501 2.490 . S
Pr480 O502 2.695 1_665 S
Pr480 O503 2.512 1_665 S
Pr480 O505 2.437 1_655 S
Pr480 O508 2.436 . S
Pr480 O510 2.438 1_565 S
Pr481 C491 2.880 . S
Pr481 O502 2.436 . S
Pr481 O504 2.438 1_545 S
Pr481 O506 2.562 . S
Pr481 O507 2.490 . S
Pr481 O508 2.695 1_445 S
Pr481 O509 2.512 1_445 S
Pr481 O511 2.437 1_455 S
C482 Pr480 2.880 . S
C482 C483 1.491 . S
C482 O500 1.254 . S
C482 O501 1.225 . S
C483 C482 1.491 . S
C483 C484 1.392 . S
C483 C488 1.356 . S
C484 C483 1.392 . S
C484 C485 1.368 . S
C484 H512 0.929 . S
C485 C484 1.368 . S
C485 C486 1.386 . S
C485 H513 0.929 . S
C486 C485 1.386 . S
C486 C487 1.373 . S
C487 C486 1.373 . S
C487 C488 1.409 . S
C487 H514 0.931 . S
C488 C483 1.356 . S
C488 C487 1.409 . S
C488 H515 0.930 . S
C489 O502 1.270 . S
C489 O503 1.248 . S
C490 O504 1.267 . S
C490 O505 1.278 . S
C491 Pr481 2.880 . S
C491 C492 1.491 . S
C491 O506 1.254 . S
C491 O507 1.225 . S
C492 C491 1.491 . S
C492 C493 1.392 . S
C492 C497 1.356 . S
C493 C492 1.392 . S
C493 C494 1.368 . S
C493 H516 0.929 . S
C494 C493 1.368 . S
C494 C495 1.386 . S
C494 H517 0.929 . S
C495 C494 1.386 . S
C495 C496 1.373 . S
C496 C495 1.373 . S
C496 C497 1.409 . S
C496 H518 0.931 . S
C497 C492 1.356 . S
C497 C496 1.409 . S
C497 H519 0.930 . S
C498 O508 1.270 . S
C498 O509 1.248 . S
C499 O510 1.267 . S
C499 O511 1.278 . S
O500 Pr480 2.562 . S
O500 C482 1.254 . S
O501 Pr480 2.490 . S
O501 C482 1.225 . S
O502 Pr480 2.695 1_445 S
O502 Pr481 2.436 . S
O502 C489 1.270 . S
O503 Pr480 2.512 1_445 S
O503 C489 1.248 . S
O504 Pr481 2.438 1_565 S
O504 C490 1.267 . S
O505 Pr480 2.437 1_455 S
O505 C490 1.278 . S
O506 Pr481 2.562 . S
O506 C491 1.254 . S
O507 Pr481 2.490 . S
O507 C491 1.225 . S
O508 Pr480 2.436 . S
O508 Pr481 2.695 1_665 S
O508 C498 1.270 . S
O509 Pr481 2.512 1_665 S
O509 C498 1.248 . S
O510 Pr480 2.438 1_545 S
O510 C499 1.267 . S
O511 Pr481 2.437 1_655 S
O511 C499 1.278 . S
H512 C484 0.929 . S
H513 C485 0.929 . S
H514 C487 0.931 . S
H515 C488 0.930 . S
H516 C493 0.929 . S
H517 C494 0.929 . S
H518 C496 0.931 . S
H519 C497 0.930 . S
Pr520 C522 2.861 1_556 S
Pr520 O540 2.538 1_556 S
Pr520 O541 2.481 1_556 S
Pr520 O542 2.710 . S
Pr520 O543 2.529 . S
Pr520 O545 2.425 1_556 S
Pr520 O548 2.425 1_546 S
Pr520 O550 2.457 1_545 S
Pr521 C531 2.880 1_554 S
Pr521 O542 2.436 1_564 S
Pr521 O544 2.438 1_565 S
Pr521 O546 2.562 1_554 S
Pr521 O547 2.490 1_554 S
Pr521 O548 2.695 . S
Pr521 O549 2.512 . S
Pr521 O551 2.437 1_554 S
C522 Pr520 2.861 1_554 S
C522 C523 1.491 . S
C522 O540 1.254 . S
C522 O541 1.225 . S
C523 C522 1.491 . S
C523 C524 1.392 . S
C523 C528 1.356 . S
C524 C523 1.392 . S
C524 C525 1.368 . S
C524 H552 0.929 . S
C525 C524 1.368 . S
C525 C526 1.386 . S
C525 H553 0.929 . S
C526 C525 1.386 . S
C526 C527 1.373 . S
C527 C526 1.373 . S
C527 C528 1.409 . S
C527 H554 0.931 . S
C528 C523 1.356 . S
C528 C527 1.409 . S
C528 H555 0.930 . S
C529 O542 1.270 . S
C529 O543 1.248 . S
C530 O544 1.267 . S
C530 O545 1.278 . S
C531 Pr521 2.880 1_556 S
C531 C532 1.491 . S
C531 O546 1.254 . S
C531 O547 1.225 . S
C532 C531 1.491 . S
C532 C533 1.392 . S
C532 C537 1.356 . S
C533 C532 1.392 . S
C533 C534 1.368 . S
C533 H556 0.929 . S
C534 C533 1.368 . S
C534 C535 1.386 . S
C534 H557 0.929 . S
C535 C534 1.386 . S
C535 C536 1.373 . S
C536 C535 1.373 . S
C536 C537 1.409 . S
C536 H558 0.931 . S
C537 C532 1.356 . S
C537 C536 1.409 . S
C537 H559 0.930 . S
C538 O548 1.270 . S
C538 O549 1.248 . S
C539 O550 1.267 . S
C539 O551 1.278 . S
O540 Pr520 2.538 1_554 S
O540 C522 1.254 . S
O541 Pr520 2.481 1_554 S
O541 C522 1.225 . S
O542 Pr520 2.710 . S
O542 Pr521 2.436 1_546 S
O542 C529 1.270 . S
O543 Pr520 2.529 . S
O543 C529 1.248 . S
O544 Pr521 2.438 1_545 S
O544 C530 1.267 . S
O545 Pr520 2.425 1_554 S
O545 C530 1.278 . S
O546 Pr521 2.562 1_556 S
O546 C531 1.254 . S
O547 Pr521 2.490 1_556 S
O547 C531 1.225 . S
O548 Pr520 2.425 1_564 S
O548 Pr521 2.695 . S
O548 C538 1.270 . S
O549 Pr521 2.512 . S
O549 C538 1.248 . S
O550 Pr520 2.457 1_565 S
O550 C539 1.267 . S
O551 Pr521 2.437 1_556 S
O551 C539 1.278 . S
H552 C524 0.929 . S
H553 C525 0.929 . S
H554 C527 0.931 . S
H555 C528 0.930 . S
H556 C533 0.929 . S
H557 C534 0.929 . S
H558 C536 0.931 . S
H559 C537 0.930 . S
Pr560 C562 2.880 . S
Pr560 O580 2.562 . S
Pr560 O581 2.490 . S
Pr560 O582 2.695 . S
Pr560 O583 2.512 . S
Pr560 O585 2.437 . S
Pr560 O588 2.436 . S
Pr560 O590 2.438 . S
Pr561 C571 2.880 . S
Pr561 O582 2.436 . S
Pr561 O584 2.438 . S
Pr561 O586 2.562 . S
Pr561 O587 2.490 . S
Pr561 O588 2.695 . S
Pr561 O589 2.512 . S
Pr561 O591 2.437 . S
C562 Pr560 2.880 . S
C562 C563 1.491 . S
C562 O580 1.254 . S
C562 O581 1.225 . S
C563 C562 1.491 . S
C563 C564 1.392 . S
C563 C568 1.356 . S
C564 C563 1.392 . S
C564 C565 1.368 . S
C564 H592 0.929 . S
C565 C564 1.368 . S
C565 C566 1.386 . S
C565 H593 0.929 . S
C566 C565 1.386 . S
C566 C567 1.373 . S
C567 C566 1.373 . S
C567 C568 1.409 . S
C567 H594 0.931 . S
C568 C563 1.356 . S
C568 C567 1.409 . S
C568 H595 0.930 . S
C569 O582 1.270 . S
C569 O583 1.248 . S
C570 O584 1.267 . S
C570 O585 1.278 . S
C571 Pr561 2.880 . S
C571 C572 1.491 . S
C571 O586 1.254 . S
C571 O587 1.225 . S
C572 C571 1.491 . S
C572 C573 1.392 . S
C572 C577 1.356 . S
C573 C572 1.392 . S
C573 C574 1.368 . S
C573 H596 0.929 . S
C574 C573 1.368 . S
C574 C575 1.386 . S
C574 H597 0.929 . S
C575 C574 1.386 . S
C575 C576 1.373 . S
C576 C575 1.373 . S
C576 C577 1.409 . S
C576 H598 0.931 . S
C577 C572 1.356 . S
C577 C576 1.409 . S
C577 H599 0.930 . S
C578 O588 1.270 . S
C578 O589 1.248 . S
C579 O590 1.267 . S
C579 O591 1.278 . S
O580 Pr560 2.562 . S
O580 C562 1.254 . S
O581 Pr560 2.490 . S
O581 C562 1.225 . S
O582 Pr560 2.695 . S
O582 Pr561 2.436 . S
O582 C569 1.270 . S
O583 Pr560 2.512 . S
O583 C569 1.248 . S
O584 Pr561 2.438 . S
O584 C570 1.267 . S
O585 Pr560 2.437 . S
O585 C570 1.278 . S
O586 Pr561 2.562 . S
O586 C571 1.254 . S
O587 Pr561 2.490 . S
O587 C571 1.225 . S
O588 Pr560 2.436 . S
O588 Pr561 2.695 . S
O588 C578 1.270 . S
O589 Pr561 2.512 . S
O589 C578 1.248 . S
O590 Pr560 2.438 . S
O590 C579 1.267 . S
O591 Pr561 2.437 . S
O591 C579 1.278 . S
H592 C564 0.929 . S
H593 C565 0.929 . S
H594 C567 0.931 . S
H595 C568 0.930 . S
H596 C573 0.929 . S
H597 C574 0.929 . S
H598 C576 0.931 . S
H599 C577 0.930 . S
Pr600 C602 2.880 . S
Pr600 O620 2.562 . S
Pr600 O621 2.490 . S
Pr600 O622 2.695 1_656 S
Pr600 O623 2.512 1_656 S
Pr600 O625 2.437 1_556 S
Pr600 O628 2.436 . S
Pr600 O630 2.438 1_655 S
Pr601 C611 2.880 . S
Pr601 O622 2.436 . S
Pr601 O624 2.438 1_455 S
Pr601 O626 2.562 . S
Pr601 O627 2.490 . S
Pr601 O628 2.695 1_454 S
Pr601 O629 2.512 1_454 S
Pr601 O631 2.437 1_554 S
C602 Pr600 2.880 . S
C602 C603 1.491 . S
C602 O620 1.254 . S
C602 O621 1.225 . S
C603 C602 1.491 . S
C603 C604 1.392 . S
C603 C608 1.356 . S
C604 C603 1.392 . S
C604 C605 1.368 . S
C604 H632 0.929 . S
C605 C604 1.368 . S
C605 C606 1.386 . S
C605 H633 0.929 . S
C606 C605 1.386 . S
C606 C607 1.373 . S
C607 C606 1.373 . S
C607 C608 1.409 . S
C607 H634 0.931 . S
C608 C603 1.356 . S
C608 C607 1.409 . S
C608 H635 0.930 . S
C609 O622 1.270 . S
C609 O623 1.248 . S
C610 O624 1.267 . S
C610 O625 1.278 . S
C611 Pr601 2.880 . S
C611 C612 1.491 . S
C611 O626 1.254 . S
C611 O627 1.225 . S
C612 C611 1.491 . S
C612 C613 1.392 . S
C612 C617 1.356 . S
C613 C612 1.392 . S
C613 C614 1.368 . S
C613 H636 0.929 . S
C614 C613 1.368 . S
C614 C615 1.386 . S
C614 H637 0.929 . S
C615 C614 1.386 . S
C615 C616 1.373 . S
C616 C615 1.373 . S
C616 C617 1.409 . S
C616 H638 0.931 . S
C617 C612 1.356 . S
C617 C616 1.409 . S
C617 H639 0.930 . S
C618 O628 1.270 . S
C618 O629 1.248 . S
C619 O630 1.267 . S
C619 O631 1.278 . S
O620 Pr600 2.562 . S
O620 C602 1.254 . S
O621 Pr600 2.490 . S
O621 C602 1.225 . S
O622 Pr600 2.695 1_454 S
O622 Pr601 2.436 . S
O622 C609 1.270 . S
O623 Pr600 2.512 1_454 S
O623 C609 1.248 . S
O624 Pr601 2.438 1_655 S
O624 C610 1.267 . S
O625 Pr600 2.437 1_554 S
O625 C610 1.278 . S
O626 Pr601 2.562 . S
O626 C611 1.254 . S
O627 Pr601 2.490 . S
O627 C611 1.225 . S
O628 Pr600 2.436 . S
O628 Pr601 2.695 1_656 S
O628 C618 1.270 . S
O629 Pr601 2.512 1_656 S
O629 C618 1.248 . S
O630 Pr600 2.438 1_455 S
O630 C619 1.267 . S
O631 Pr601 2.437 1_556 S
O631 C619 1.278 . S
H632 C604 0.929 . S
H633 C605 0.929 . S
H634 C607 0.931 . S
H635 C608 0.930 . S
H636 C613 0.929 . S
H637 C614 0.929 . S
H638 C616 0.931 . S
H639 C617 0.930 . S
H640 C648 0.929 . S
H641 C650 0.930 . S
H642 C652 0.930 . S
H643 C655 0.929 . S
H644 C658 0.930 . S
H645 C660 0.960 . S
H646 C660 0.960 . S
H647 C660 0.960 . S
C648 H640 0.929 . S
C648 C649 1.377 . S
C648 C650 1.384 . S
C649 C648 1.377 . S
C649 C655 1.390 . S
C650 H641 0.930 . S
C650 C648 1.384 . S
C650 C651 1.372 . S
C651 C650 1.372 . S
C651 C652 1.400 . S
C651 C656 1.490 . S
C652 H642 0.930 . S
C652 C651 1.400 . S
C652 C655 1.386 . S
H653 C669 0.930 . S
H654 C670 0.931 . S
C655 H643 0.929 . S
C655 C649 1.390 . S
C655 C652 1.386 . S
C656 C651 1.490 . S
C656 C658 1.395 . S
C656 C659 1.403 . S
H657 C663 0.930 . S
C658 H644 0.930 . S
C658 C656 1.395 . S
C658 C661 1.403 . S
C659 C656 1.403 . S
C659 C660 1.524 . S
C659 C663 1.400 . S
C660 H645 0.960 . S
C660 H646 0.960 . S
C660 H647 0.960 . S
C660 C659 1.524 . S
C661 C658 1.403 . S
C661 C662 1.392 . S
C661 C665 1.495 . S
C662 C661 1.392 . S
C662 C663 1.385 . S
C662 C664 1.478 . S
C663 H657 0.930 . S
C663 C659 1.400 . S
C663 C662 1.385 . S
C664 C662 1.478 . S
C664 C666 1.381 . S
C664 C670 1.383 . S
C665 C661 1.495 . S
C665 H671 0.959 . S
C665 H672 0.961 . S
C665 H673 0.960 . S
C666 C664 1.381 . S
C666 C667 1.394 . S
C666 H674 0.930 . S
C667 C666 1.394 . S
C667 C668 1.383 . S
C667 H675 0.929 . S
C668 C667 1.383 . S
C668 C669 1.377 . S
C669 H653 0.930 . S
C669 C668 1.377 . S
C669 C670 1.379 . S
C670 H654 0.931 . S
C670 C664 1.383 . S
C670 C669 1.379 . S
H671 C665 0.959 . S
H672 C665 0.961 . S
H673 C665 0.960 . S
H674 C666 0.930 . S
H675 C667 0.929 . S
H676 C684 0.929 . S
H677 C686 0.930 . S
H678 C688 0.930 . S
H679 C691 0.929 . S
H680 C694 0.930 . S
H681 C696 0.960 . S
H682 C696 0.960 . S
H683 C696 0.960 . S
C684 H676 0.929 . S
C684 C685 1.377 . S
C684 C686 1.384 . S
C685 C684 1.377 . S
C685 C691 1.390 . S
C686 H677 0.930 . S
C686 C684 1.384 . S
C686 C687 1.372 . S
C687 C686 1.372 . S
C687 C688 1.400 . S
C687 C692 1.490 . S
C688 H678 0.930 . S
C688 C687 1.400 . S
C688 C691 1.386 . S
H689 C705 0.930 . S
H690 C706 0.931 . S
C691 H679 0.929 . S
C691 C685 1.390 . S
C691 C688 1.386 . S
C692 C687 1.490 . S
C692 C694 1.395 . S
C692 C695 1.403 . S
H693 C699 0.930 . S
C694 H680 0.930 . S
C694 C692 1.395 . S
C694 C697 1.403 . S
C695 C692 1.403 . S
C695 C696 1.524 . S
C695 C699 1.400 . S
C696 H681 0.960 . S
C696 H682 0.960 . S
C696 H683 0.960 . S
C696 C695 1.524 . S
C697 C694 1.403 . S
C697 C698 1.392 . S
C697 C701 1.495 . S
C698 C697 1.392 . S
C698 C699 1.385 . S
C698 C700 1.478 . S
C699 H693 0.930 . S
C699 C695 1.400 . S
C699 C698 1.385 . S
C700 C698 1.478 . S
C700 C702 1.381 . S
C700 C706 1.383 . S
C701 C697 1.495 . S
C701 H707 0.959 . S
C701 H708 0.961 . S
C701 H709 0.960 . S
C702 C700 1.381 . S
C702 C703 1.394 . S
C702 H710 0.930 . S
C703 C702 1.394 . S
C703 C704 1.383 . S
C703 H711 0.929 . S
C704 C703 1.383 . S
C704 C705 1.377 . S
C705 H689 0.930 . S
C705 C704 1.377 . S
C705 C706 1.379 . S
C706 H690 0.931 . S
C706 C700 1.383 . S
C706 C705 1.379 . S
H707 C701 0.959 . S
H708 C701 0.961 . S
H709 C701 0.960 . S
H710 C702 0.930 . S
H711 C703 0.929 . S
H712 C720 0.929 . S
H713 C722 0.930 . S
H714 C724 0.930 . S
H715 C727 0.929 . S
H716 C730 0.930 . S
H717 C732 0.960 . S
H718 C732 0.960 . S
H719 C732 0.960 . S
C720 H712 0.929 . S
C720 C721 1.377 . S
C720 C722 1.384 . S
C721 C720 1.377 . S
C721 C727 1.390 . S
C722 H713 0.930 . S
C722 C720 1.384 . S
C722 C723 1.372 . S
C723 C722 1.372 . S
C723 C724 1.400 . S
C723 C728 1.490 . S
C724 H714 0.930 . S
C724 C723 1.400 . S
C724 C727 1.386 . S
H725 C741 0.930 . S
H726 C742 0.931 . S
C727 H715 0.929 . S
C727 C721 1.390 . S
C727 C724 1.386 . S
C728 C723 1.490 . S
C728 C730 1.395 . S
C728 C731 1.403 . S
H729 C735 0.930 . S
C730 H716 0.930 . S
C730 C728 1.395 . S
C730 C733 1.403 . S
C731 C728 1.403 . S
C731 C732 1.524 . S
C731 C735 1.400 . S
C732 H717 0.960 . S
C732 H718 0.960 . S
C732 H719 0.960 . S
C732 C731 1.524 . S
C733 C730 1.403 . S
C733 C734 1.392 . S
C733 C737 1.495 . S
C734 C733 1.392 . S
C734 C735 1.385 . S
C734 C736 1.478 . S
C735 H729 0.930 . S
C735 C731 1.400 . S
C735 C734 1.385 . S
C736 C734 1.478 . S
C736 C738 1.381 . S
C736 C742 1.383 . S
C737 C733 1.495 . S
C737 H743 0.959 . S
C737 H744 0.961 . S
C737 H745 0.960 . S
C738 C736 1.381 . S
C738 C739 1.394 . S
C738 H746 0.930 . S
C739 C738 1.394 . S
C739 C740 1.383 . S
C739 H747 0.929 . S
C740 C739 1.383 . S
C740 C741 1.377 . S
C741 H725 0.930 . S
C741 C740 1.377 . S
C741 C742 1.379 . S
C742 H726 0.931 . S
C742 C736 1.383 . S
C742 C741 1.379 . S
H743 C737 0.959 . S
H744 C737 0.961 . S
H745 C737 0.960 . S
H746 C738 0.930 . S
H747 C739 0.929 . S
H748 C756 0.929 . S
H749 C758 0.930 . S
H750 C760 0.930 . S
H751 C763 0.929 . S
H752 C766 0.930 . S
H753 C768 0.960 . S
H754 C768 0.960 . S
H755 C768 0.960 . S
C756 H748 0.929 . S
C756 C757 1.377 . S
C756 C758 1.384 . S
C757 C756 1.377 . S
C757 C763 1.390 . S
C758 H749 0.930 . S
C758 C756 1.384 . S
C758 C759 1.372 . S
C759 C758 1.372 . S
C759 C760 1.400 . S
C759 C764 1.490 . S
C760 H750 0.930 . S
C760 C759 1.400 . S
C760 C763 1.386 . S
H761 C777 0.930 . S
H762 C778 0.931 . S
C763 H751 0.929 . S
C763 C757 1.390 . S
C763 C760 1.386 . S
C764 C759 1.490 . S
C764 C766 1.395 . S
C764 C767 1.403 . S
H765 C771 0.930 . S
C766 H752 0.930 . S
C766 C764 1.395 . S
C766 C769 1.403 . S
C767 C764 1.403 . S
C767 C768 1.524 . S
C767 C771 1.400 . S
C768 H753 0.960 . S
C768 H754 0.960 . S
C768 H755 0.960 . S
C768 C767 1.524 . S
C769 C766 1.403 . S
C769 C770 1.392 . S
C769 C773 1.495 . S
C770 C769 1.392 . S
C770 C771 1.385 . S
C770 C772 1.478 . S
C771 H765 0.930 . S
C771 C767 1.400 . S
C771 C770 1.385 . S
C772 C770 1.478 . S
C772 C774 1.381 . S
C772 C778 1.383 . S
C773 C769 1.495 . S
C773 H779 0.959 . S
C773 H780 0.961 . S
C773 H781 0.960 . S
C774 C772 1.381 . S
C774 C775 1.394 . S
C774 H782 0.930 . S
C775 C774 1.394 . S
C775 C776 1.383 . S
C775 H783 0.929 . S
C776 C775 1.383 . S
C776 C777 1.377 . S
C777 H761 0.930 . S
C777 C776 1.377 . S
C777 C778 1.379 . S
C778 H762 0.931 . S
C778 C772 1.383 . S
C778 C777 1.379 . S
H779 C773 0.959 . S
H780 C773 0.961 . S
H781 C773 0.960 . S
H782 C774 0.930 . S
H783 C775 0.929 . S
H784 C792 0.929 . S
H785 C794 0.930 . S
H786 C796 0.930 . S
H787 C799 0.929 . S
H788 C802 0.930 . S
H789 C804 0.960 . S
H790 C804 0.960 . S
H791 C804 0.960 . S
C792 H784 0.929 . S
C792 C793 1.377 . S
C792 C794 1.384 . S
C793 C792 1.377 . S
C793 C799 1.390 . S
C794 H785 0.930 . S
C794 C792 1.384 . S
C794 C795 1.372 . S
C795 C794 1.372 . S
C795 C796 1.400 . S
C795 C800 1.490 . S
C796 H786 0.930 . S
C796 C795 1.400 . S
C796 C799 1.386 . S
H797 C813 0.930 . S
H798 C814 0.931 . S
C799 H787 0.929 . S
C799 C793 1.390 . S
C799 C796 1.386 . S
C800 C795 1.490 . S
C800 C802 1.395 . S
C800 C803 1.403 . S
H801 C807 0.930 . S
C802 H788 0.930 . S
C802 C800 1.395 . S
C802 C805 1.403 . S
C803 C800 1.403 . S
C803 C804 1.524 . S
C803 C807 1.400 . S
C804 H789 0.960 . S
C804 H790 0.960 . S
C804 H791 0.960 . S
C804 C803 1.524 . S
C805 C802 1.403 . S
C805 C806 1.392 . S
C805 C809 1.495 . S
C806 C805 1.392 . S
C806 C807 1.385 . S
C806 C808 1.478 . S
C807 H801 0.930 . S
C807 C803 1.400 . S
C807 C806 1.385 . S
C808 C806 1.478 . S
C808 C810 1.381 . S
C808 C814 1.383 . S
C809 C805 1.495 . S
C809 H815 0.959 . S
C809 H816 0.961 . S
C809 H817 0.960 . S
C810 C808 1.381 . S
C810 C811 1.394 . S
C810 H818 0.930 . S
C811 C810 1.394 . S
C811 C812 1.383 . S
C811 H819 0.929 . S
C812 C811 1.383 . S
C812 C813 1.377 . S
C813 H797 0.930 . S
C813 C812 1.377 . S
C813 C814 1.379 . S
C814 H798 0.931 . S
C814 C808 1.383 . S
C814 C813 1.379 . S
H815 C809 0.959 . S
H816 C809 0.961 . S
H817 C809 0.960 . S
H818 C810 0.930 . S
H819 C811 0.929 . S
H820 C828 0.929 . S
H821 C830 0.930 . S
H822 C832 0.930 . S
H823 C835 0.929 . S
H824 C838 0.930 . S
H825 C840 0.960 . S
H826 C840 0.960 . S
H827 C840 0.960 . S
C828 H820 0.929 . S
C828 C829 1.377 . S
C828 C830 1.384 . S
C829 C828 1.377 . S
C829 C835 1.390 . S
C830 H821 0.930 . S
C830 C828 1.384 . S
C830 C831 1.372 . S
C831 C830 1.372 . S
C831 C832 1.400 . S
C831 C836 1.490 . S
C832 H822 0.930 . S
C832 C831 1.400 . S
C832 C835 1.386 . S
H833 C849 0.930 . S
H834 C850 0.931 . S
C835 H823 0.929 . S
C835 C829 1.390 . S
C835 C832 1.386 . S
C836 C831 1.490 . S
C836 C838 1.395 . S
C836 C839 1.403 . S
H837 C843 0.930 . S
C838 H824 0.930 . S
C838 C836 1.395 . S
C838 C841 1.403 . S
C839 C836 1.403 . S
C839 C840 1.524 . S
C839 C843 1.400 . S
C840 H825 0.960 . S
C840 H826 0.960 . S
C840 H827 0.960 . S
C840 C839 1.524 . S
C841 C838 1.403 . S
C841 C842 1.392 . S
C841 C845 1.495 . S
C842 C841 1.392 . S
C842 C843 1.385 . S
C842 C844 1.478 . S
C843 H837 0.930 . S
C843 C839 1.400 . S
C843 C842 1.385 . S
C844 C842 1.478 . S
C844 C846 1.381 . S
C844 C850 1.383 . S
C845 C841 1.495 . S
C845 H851 0.959 . S
C845 H852 0.961 . S
C845 H853 0.960 . S
C846 C844 1.381 . S
C846 C847 1.394 . S
C846 H854 0.930 . S
C847 C846 1.394 . S
C847 C848 1.383 . S
C847 H855 0.929 . S
C848 C847 1.383 . S
C848 C849 1.377 . S
C849 H833 0.930 . S
C849 C848 1.377 . S
C849 C850 1.379 . S
C850 H834 0.931 . S
C850 C844 1.383 . S
C850 C849 1.379 . S
H851 C845 0.959 . S
H852 C845 0.961 . S
H853 C845 0.960 . S
H854 C846 0.930 . S
H855 C847 0.929 . S
H856 C864 0.929 . S
H857 C866 0.930 . S
H858 C868 0.930 . S
H859 C871 0.929 . S
H860 C874 0.930 . S
H861 C876 0.960 . S
H862 C876 0.960 . S
H863 C876 0.960 . S
C864 H856 0.929 . S
C864 C865 1.377 . S
C864 C866 1.384 . S
C865 C864 1.377 . S
C865 C871 1.390 . S
C866 H857 0.930 . S
C866 C864 1.384 . S
C866 C867 1.372 . S
C867 C866 1.372 . S
C867 C868 1.400 . S
C867 C872 1.490 . S
C868 H858 0.930 . S
C868 C867 1.400 . S
C868 C871 1.386 . S
H869 C885 0.930 . S
H870 C886 0.931 . S
C871 H859 0.929 . S
C871 C865 1.390 . S
C871 C868 1.386 . S
C872 C867 1.490 . S
C872 C874 1.395 . S
C872 C875 1.403 . S
H873 C879 0.930 . S
C874 H860 0.930 . S
C874 C872 1.395 . S
C874 C877 1.403 . S
C875 C872 1.403 . S
C875 C876 1.524 . S
C875 C879 1.400 . S
C876 H861 0.960 . S
C876 H862 0.960 . S
C876 H863 0.960 . S
C876 C875 1.524 . S
C877 C874 1.403 . S
C877 C878 1.392 . S
C877 C881 1.495 . S
C878 C877 1.392 . S
C878 C879 1.385 . S
C878 C880 1.478 . S
C879 H873 0.930 . S
C879 C875 1.400 . S
C879 C878 1.385 . S
C880 C878 1.478 . S
C880 C882 1.381 . S
C880 C886 1.383 . S
C881 C877 1.495 . S
C881 H887 0.959 . S
C881 H888 0.961 . S
C881 H889 0.960 . S
C882 C880 1.381 . S
C882 C883 1.394 . S
C882 H890 0.930 . S
C883 C882 1.394 . S
C883 C884 1.383 . S
C883 H891 0.929 . S
C884 C883 1.383 . S
C884 C885 1.377 . S
C885 H869 0.930 . S
C885 C884 1.377 . S
C885 C886 1.379 . S
C886 H870 0.931 . S
C886 C880 1.383 . S
C886 C885 1.379 . S
H887 C881 0.959 . S
H888 C881 0.961 . S
H889 C881 0.960 . S
H890 C882 0.930 . S
H891 C883 0.929 . S
H892 C900 0.929 . S
H893 C902 0.930 . S
H894 C904 0.930 . S
H895 C907 0.929 . S
H896 C910 0.930 . S
H897 C912 0.960 . S
H898 C912 0.960 . S
H899 C912 0.960 . S
C900 H892 0.929 . S
C900 C901 1.377 . S
C900 C902 1.384 . S
C901 C900 1.377 . S
C901 C907 1.390 . S
C902 H893 0.930 . S
C902 C900 1.384 . S
C902 C903 1.372 . S
C903 C902 1.372 . S
C903 C904 1.400 . S
C903 C908 1.490 . S
C904 H894 0.930 . S
C904 C903 1.400 . S
C904 C907 1.386 . S
H905 C921 0.930 . S
H906 C922 0.931 . S
C907 H895 0.929 . S
C907 C901 1.390 . S
C907 C904 1.386 . S
C908 C903 1.490 . S
C908 C910 1.395 . S
C908 C911 1.403 . S
H909 C915 0.930 . S
C910 H896 0.930 . S
C910 C908 1.395 . S
C910 C913 1.403 . S
C911 C908 1.403 . S
C911 C912 1.524 . S
C911 C915 1.400 . S
C912 H897 0.960 . S
C912 H898 0.960 . S
C912 H899 0.960 . S
C912 C911 1.524 . S
C913 C910 1.403 . S
C913 C914 1.392 . S
C913 C917 1.495 . S
C914 C913 1.392 . S
C914 C915 1.385 . S
C914 C916 1.478 . S
C915 H909 0.930 . S
C915 C911 1.400 . S
C915 C914 1.385 . S
C916 C914 1.478 . S
C916 C918 1.381 . S
C916 C922 1.383 . S
C917 C913 1.495 . S
C917 H923 0.959 . S
C917 H924 0.961 . S
C917 H925 0.960 . S
C918 C916 1.381 . S
C918 C919 1.394 . S
C918 H926 0.930 . S
C919 C918 1.394 . S
C919 C920 1.383 . S
C919 H927 0.929 . S
C920 C919 1.383 . S
C920 C921 1.377 . S
C921 H905 0.930 . S
C921 C920 1.377 . S
C921 C922 1.379 . S
C922 H906 0.931 . S
C922 C916 1.383 . S
C922 C921 1.379 . S
H923 C917 0.959 . S
H924 C917 0.961 . S
H925 C917 0.960 . S
H926 C918 0.930 . S
H927 C919 0.929 . S
H928 C936 0.929 . S
H929 C938 0.930 . S
H930 C940 0.930 . S
H931 C943 0.929 . S
H932 C946 0.930 . S
H933 C948 0.960 . S
H934 C948 0.960 . S
H935 C948 0.960 . S
C936 H928 0.929 . S
C936 C937 1.377 . S
C936 C938 1.384 . S
C937 C936 1.377 . S
C937 C943 1.390 . S
C938 H929 0.930 . S
C938 C936 1.384 . S
C938 C939 1.372 . S
C939 C938 1.372 . S
C939 C940 1.400 . S
C939 C944 1.490 . S
C940 H930 0.930 . S
C940 C939 1.400 . S
C940 C943 1.386 . S
H941 C957 0.930 . S
H942 C958 0.931 . S
C943 H931 0.929 . S
C943 C937 1.390 . S
C943 C940 1.386 . S
C944 C939 1.490 . S
C944 C946 1.395 . S
C944 C947 1.403 . S
H945 C951 0.930 . S
C946 H932 0.930 . S
C946 C944 1.395 . S
C946 C949 1.403 . S
C947 C944 1.403 . S
C947 C948 1.524 . S
C947 C951 1.400 . S
C948 H933 0.960 . S
C948 H934 0.960 . S
C948 H935 0.960 . S
C948 C947 1.524 . S
C949 C946 1.403 . S
C949 C950 1.392 . S
C949 C953 1.495 . S
C950 C949 1.392 . S
C950 C951 1.385 . S
C950 C952 1.478 . S
C951 H945 0.930 . S
C951 C947 1.400 . S
C951 C950 1.385 . S
C952 C950 1.478 . S
C952 C954 1.381 . S
C952 C958 1.383 . S
C953 C949 1.495 . S
C953 H959 0.959 . S
C953 H960 0.961 . S
C953 H961 0.960 . S
C954 C952 1.381 . S
C954 C955 1.394 . S
C954 H962 0.930 . S
C955 C954 1.394 . S
C955 C956 1.383 . S
C955 H963 0.929 . S
C956 C955 1.383 . S
C956 C957 1.377 . S
C957 H941 0.930 . S
C957 C956 1.377 . S
C957 C958 1.379 . S
C958 H942 0.931 . S
C958 C952 1.383 . S
C958 C957 1.379 . S
H959 C953 0.959 . S
H960 C953 0.961 . S
H961 C953 0.960 . S
H962 C954 0.930 . S
H963 C955 0.929 . S
H964 C972 0.929 . S
H965 C974 0.930 . S
H966 C976 0.930 . S
H967 C979 0.929 . S
H968 C982 0.930 . S
H969 C984 0.960 . S
H970 C984 0.960 . S
H971 C984 0.960 . S
C972 H964 0.929 . S
C972 C973 1.377 . S
C972 C974 1.384 . S
C973 C972 1.377 . S
C973 C979 1.390 . S
C974 H965 0.930 . S
C974 C972 1.384 . S
C974 C975 1.372 . S
C975 C974 1.372 . S
C975 C976 1.400 . S
C975 C980 1.490 . S
C976 H966 0.930 . S
C976 C975 1.400 . S
C976 C979 1.386 . S
H977 C993 0.930 . S
H978 C994 0.931 . S
C979 H967 0.929 . S
C979 C973 1.390 . S
C979 C976 1.386 . S
C980 C975 1.490 . S
C980 C982 1.395 . S
C980 C983 1.403 . S
H981 C987 0.930 . S
C982 H968 0.930 . S
C982 C980 1.395 . S
C982 C985 1.403 . S
C983 C980 1.403 . S
C983 C984 1.524 . S
C983 C987 1.400 . S
C984 H969 0.960 . S
C984 H970 0.960 . S
C984 H971 0.960 . S
C984 C983 1.524 . S
C985 C982 1.403 . S
C985 C986 1.392 . S
C985 C989 1.495 . S
C986 C985 1.392 . S
C986 C987 1.385 . S
C986 C988 1.478 . S
C987 H981 0.930 . S
C987 C983 1.400 . S
C987 C986 1.385 . S
C988 C986 1.478 . S
C988 C990 1.381 . S
C988 C994 1.383 . S
C989 C985 1.495 . S
C989 H995 0.959 . S
C989 H996 0.961 . S
C989 H997 0.960 . S
C990 C988 1.381 . S
C990 C991 1.394 . S
C990 H998 0.930 . S
C991 C990 1.394 . S
C991 C992 1.383 . S
C991 H999 0.929 . S
C992 C991 1.383 . S
C992 C993 1.377 . S
C993 H977 0.930 . S
C993 C992 1.377 . S
C993 C994 1.379 . S
C994 H978 0.931 . S
C994 C988 1.383 . S
C994 C993 1.379 . S
H995 C989 0.959 . S
H996 C989 0.961 . S
H997 C989 0.960 . S
H998 C990 0.930 . S
H999 C991 0.929 . S
H1000 C1008 0.929 . S
H1001 C1010 0.930 . S
H1002 C1012 0.930 . S
H1003 C1015 0.929 . S
H1004 C1018 0.930 . S
H1005 C1020 0.960 . S
H1006 C1020 0.960 . S
H1007 C1020 0.960 . S
C1008 H1000 0.929 . S
C1008 C1009 1.377 . S
C1008 C1010 1.384 . S
C1009 C1008 1.377 . S
C1009 C1015 1.390 . S
C1010 H1001 0.930 . S
C1010 C1008 1.384 . S
C1010 C1011 1.372 . S
C1011 C1010 1.372 . S
C1011 C1012 1.400 . S
C1011 C1016 1.490 . S
C1012 H1002 0.930 . S
C1012 C1011 1.400 . S
C1012 C1015 1.386 . S
H1013 C1029 0.930 . S
H1014 C1030 0.931 . S
C1015 H1003 0.929 . S
C1015 C1009 1.390 . S
C1015 C1012 1.386 . S
C1016 C1011 1.490 . S
C1016 C1018 1.395 . S
C1016 C1019 1.403 . S
H1017 C1023 0.930 . S
C1018 H1004 0.930 . S
C1018 C1016 1.395 . S
C1018 C1021 1.403 . S
C1019 C1016 1.403 . S
C1019 C1020 1.524 . S
C1019 C1023 1.400 . S
C1020 H1005 0.960 . S
C1020 H1006 0.960 . S
C1020 H1007 0.960 . S
C1020 C1019 1.524 . S
C1021 C1018 1.403 . S
C1021 C1022 1.392 . S
C1021 C1025 1.495 . S
C1022 C1021 1.392 . S
C1022 C1023 1.385 . S
C1022 C1024 1.478 . S
C1023 H1017 0.930 . S
C1023 C1019 1.400 . S
C1023 C1022 1.385 . S
C1024 C1022 1.478 . S
C1024 C1026 1.381 . S
C1024 C1030 1.383 . S
C1025 C1021 1.495 . S
C1025 H1031 0.959 . S
C1025 H1032 0.961 . S
C1025 H1033 0.960 . S
C1026 C1024 1.381 . S
C1026 C1027 1.394 . S
C1026 H1034 0.930 . S
C1027 C1026 1.394 . S
C1027 C1028 1.383 . S
C1027 H1035 0.929 . S
C1028 C1027 1.383 . S
C1028 C1029 1.377 . S
C1029 H1013 0.930 . S
C1029 C1028 1.377 . S
C1029 C1030 1.379 . S
C1030 H1014 0.931 . S
C1030 C1024 1.383 . S
C1030 C1029 1.379 . S
H1031 C1025 0.959 . S
H1032 C1025 0.961 . S
H1033 C1025 0.960 . S
H1034 C1026 0.930 . S
H1035 C1027 0.929 . S
H1036 C1044 0.929 . S
H1037 C1046 0.930 . S
H1038 C1048 0.930 . S
H1039 C1051 0.929 . S
H1040 C1054 0.930 . S
H1041 C1056 0.960 . S
H1042 C1056 0.960 . S
H1043 C1056 0.960 . S
C1044 H1036 0.929 . S
C1044 C1045 1.377 . S
C1044 C1046 1.384 . S
C1045 C1044 1.377 . S
C1045 C1051 1.390 . S
C1046 H1037 0.930 . S
C1046 C1044 1.384 . S
C1046 C1047 1.372 . S
C1047 C1046 1.372 . S
C1047 C1048 1.400 . S
C1047 C1052 1.490 . S
C1048 H1038 0.930 . S
C1048 C1047 1.400 . S
C1048 C1051 1.386 . S
H1049 C1065 0.930 . S
H1050 C1066 0.931 . S
C1051 H1039 0.929 . S
C1051 C1045 1.390 . S
C1051 C1048 1.386 . S
C1052 C1047 1.490 . S
C1052 C1054 1.395 . S
C1052 C1055 1.403 . S
H1053 C1059 0.930 . S
C1054 H1040 0.930 . S
C1054 C1052 1.395 . S
C1054 C1057 1.403 . S
C1055 C1052 1.403 . S
C1055 C1056 1.524 . S
C1055 C1059 1.400 . S
C1056 H1041 0.960 . S
C1056 H1042 0.960 . S
C1056 H1043 0.960 . S
C1056 C1055 1.524 . S
C1057 C1054 1.403 . S
C1057 C1058 1.392 . S
C1057 C1061 1.495 . S
C1058 C1057 1.392 . S
C1058 C1059 1.385 . S
C1058 C1060 1.478 . S
C1059 H1053 0.930 . S
C1059 C1055 1.400 . S
C1059 C1058 1.385 . S
C1060 C1058 1.478 . S
C1060 C1062 1.381 . S
C1060 C1066 1.383 . S
C1061 C1057 1.495 . S
C1061 H1067 0.959 . S
C1061 H1068 0.961 . S
C1061 H1069 0.960 . S
C1062 C1060 1.381 . S
C1062 C1063 1.394 . S
C1062 H1070 0.930 . S
C1063 C1062 1.394 . S
C1063 C1064 1.383 . S
C1063 H1071 0.929 . S
C1064 C1063 1.383 . S
C1064 C1065 1.377 . S
C1065 H1049 0.930 . S
C1065 C1064 1.377 . S
C1065 C1066 1.379 . S
C1066 H1050 0.931 . S
C1066 C1060 1.383 . S
C1066 C1065 1.379 . S
H1067 C1061 0.959 . S
H1068 C1061 0.961 . S
H1069 C1061 0.960 . S
H1070 C1062 0.930 . S
H1071 C1063 0.929 . S
H1072 C1080 0.929 . S
H1073 C1082 0.930 . S
H1074 C1084 0.930 . S
H1075 C1087 0.929 . S
H1076 C1090 0.930 . S
H1077 C1092 0.960 . S
H1078 C1092 0.960 . S
H1079 C1092 0.960 . S
C1080 H1072 0.929 . S
C1080 C1081 1.377 . S
C1080 C1082 1.384 . S
C1081 C1080 1.377 . S
C1081 C1087 1.390 . S
C1082 H1073 0.930 . S
C1082 C1080 1.384 . S
C1082 C1083 1.372 . S
C1083 C1082 1.372 . S
C1083 C1084 1.400 . S
C1083 C1088 1.490 . S
C1084 H1074 0.930 . S
C1084 C1083 1.400 . S
C1084 C1087 1.386 . S
H1085 C1101 0.930 . S
H1086 C1102 0.931 . S
C1087 H1075 0.929 . S
C1087 C1081 1.390 . S
C1087 C1084 1.386 . S
C1088 C1083 1.490 . S
C1088 C1090 1.395 . S
C1088 C1091 1.403 . S
H1089 C1095 0.930 . S
C1090 H1076 0.930 . S
C1090 C1088 1.395 . S
C1090 C1093 1.403 . S
C1091 C1088 1.403 . S
C1091 C1092 1.524 . S
C1091 C1095 1.400 . S
C1092 H1077 0.960 . S
C1092 H1078 0.960 . S
C1092 H1079 0.960 . S
C1092 C1091 1.524 . S
C1093 C1090 1.403 . S
C1093 C1094 1.392 . S
C1093 C1097 1.495 . S
C1094 C1093 1.392 . S
C1094 C1095 1.385 . S
C1094 C1096 1.478 . S
C1095 H1089 0.930 . S
C1095 C1091 1.400 . S
C1095 C1094 1.385 . S
C1096 C1094 1.478 . S
C1096 C1098 1.381 . S
C1096 C1102 1.383 . S
C1097 C1093 1.495 . S
C1097 H1103 0.959 . S
C1097 H1104 0.961 . S
C1097 H1105 0.960 . S
C1098 C1096 1.381 . S
C1098 C1099 1.394 . S
C1098 H1106 0.930 . S
C1099 C1098 1.394 . S
C1099 C1100 1.383 . S
C1099 H1107 0.929 . S
C1100 C1099 1.383 . S
C1100 C1101 1.377 . S
C1101 H1085 0.930 . S
C1101 C1100 1.377 . S
C1101 C1102 1.379 . S
C1102 H1086 0.931 . S
C1102 C1096 1.383 . S
C1102 C1101 1.379 . S
H1103 C1097 0.959 . S
H1104 C1097 0.961 . S
H1105 C1097 0.960 . S
H1106 C1098 0.930 . S
H1107 C1099 0.929 . S
H1108 C1116 0.929 . S
H1109 C1118 0.930 . S
H1110 C1120 0.930 . S
H1111 C1123 0.929 . S
H1112 C1126 0.930 . S
H1113 C1128 0.960 . S
H1114 C1128 0.960 . S
H1115 C1128 0.960 . S
C1116 H1108 0.929 . S
C1116 C1117 1.377 . S
C1116 C1118 1.384 . S
C1117 C1116 1.377 . S
C1117 C1123 1.390 . S
C1118 H1109 0.930 . S
C1118 C1116 1.384 . S
C1118 C1119 1.372 . S
C1119 C1118 1.372 . S
C1119 C1120 1.400 . S
C1119 C1124 1.490 . S
C1120 H1110 0.930 . S
C1120 C1119 1.400 . S
C1120 C1123 1.386 . S
H1121 C1137 0.930 . S
H1122 C1138 0.931 . S
C1123 H1111 0.929 . S
C1123 C1117 1.390 . S
C1123 C1120 1.386 . S
C1124 C1119 1.490 . S
C1124 C1126 1.395 . S
C1124 C1127 1.403 . S
H1125 C1131 0.930 . S
C1126 H1112 0.930 . S
C1126 C1124 1.395 . S
C1126 C1129 1.403 . S
C1127 C1124 1.403 . S
C1127 C1128 1.524 . S
C1127 C1131 1.400 . S
C1128 H1113 0.960 . S
C1128 H1114 0.960 . S
C1128 H1115 0.960 . S
C1128 C1127 1.524 . S
C1129 C1126 1.403 . S
C1129 C1130 1.392 . S
C1129 C1133 1.495 . S
C1130 C1129 1.392 . S
C1130 C1131 1.385 . S
C1130 C1132 1.478 . S
C1131 H1125 0.930 . S
C1131 C1127 1.400 . S
C1131 C1130 1.385 . S
C1132 C1130 1.478 . S
C1132 C1134 1.381 . S
C1132 C1138 1.383 . S
C1133 C1129 1.495 . S
C1133 H1139 0.959 . S
C1133 H1140 0.961 . S
C1133 H1141 0.960 . S
C1134 C1132 1.381 . S
C1134 C1135 1.394 . S
C1134 H1142 0.930 . S
C1135 C1134 1.394 . S
C1135 C1136 1.383 . S
C1135 H1143 0.929 . S
C1136 C1135 1.383 . S
C1136 C1137 1.377 . S
C1137 H1121 0.930 . S
C1137 C1136 1.377 . S
C1137 C1138 1.379 . S
C1138 H1122 0.931 . S
C1138 C1132 1.383 . S
C1138 C1137 1.379 . S
H1139 C1133 0.959 . S
H1140 C1133 0.961 . S
H1141 C1133 0.960 . S
H1142 C1134 0.930 . S
H1143 C1135 0.929 . S
H1144 C1152 0.929 . S
H1145 C1154 0.930 . S
H1146 C1156 0.930 . S
H1147 C1159 0.929 . S
H1148 C1162 0.930 . S
H1149 C1164 0.960 . S
H1150 C1164 0.960 . S
H1151 C1164 0.960 . S
C1152 H1144 0.929 . S
C1152 C1153 1.377 . S
C1152 C1154 1.384 . S
C1153 C1152 1.377 . S
C1153 C1159 1.390 . S
C1154 H1145 0.930 . S
C1154 C1152 1.384 . S
C1154 C1155 1.372 . S
C1155 C1154 1.372 . S
C1155 C1156 1.400 . S
C1155 C1160 1.490 . S
C1156 H1146 0.930 . S
C1156 C1155 1.400 . S
C1156 C1159 1.386 . S
H1157 C1173 0.930 . S
H1158 C1174 0.931 . S
C1159 H1147 0.929 . S
C1159 C1153 1.390 . S
C1159 C1156 1.386 . S
C1160 C1155 1.490 . S
C1160 C1162 1.395 . S
C1160 C1163 1.403 . S
H1161 C1167 0.930 . S
C1162 H1148 0.930 . S
C1162 C1160 1.395 . S
C1162 C1165 1.403 . S
C1163 C1160 1.403 . S
C1163 C1164 1.524 . S
C1163 C1167 1.400 . S
C1164 H1149 0.960 . S
C1164 H1150 0.960 . S
C1164 H1151 0.960 . S
C1164 C1163 1.524 . S
C1165 C1162 1.403 . S
C1165 C1166 1.392 . S
C1165 C1169 1.495 . S
C1166 C1165 1.392 . S
C1166 C1167 1.385 . S
C1166 C1168 1.478 . S
C1167 H1161 0.930 . S
C1167 C1163 1.400 . S
C1167 C1166 1.385 . S
C1168 C1166 1.478 . S
C1168 C1170 1.381 . S
C1168 C1174 1.383 . S
C1169 C1165 1.495 . S
C1169 H1175 0.959 . S
C1169 H1176 0.961 . S
C1169 H1177 0.960 . S
C1170 C1168 1.381 . S
C1170 C1171 1.394 . S
C1170 H1178 0.930 . S
C1171 C1170 1.394 . S
C1171 C1172 1.383 . S
C1171 H1179 0.929 . S
C1172 C1171 1.383 . S
C1172 C1173 1.377 . S
C1173 H1157 0.930 . S
C1173 C1172 1.377 . S
C1173 C1174 1.379 . S
C1174 H1158 0.931 . S
C1174 C1168 1.383 . S
C1174 C1173 1.379 . S
H1175 C1169 0.959 . S
H1176 C1169 0.961 . S
H1177 C1169 0.960 . S
H1178 C1170 0.930 . S
H1179 C1171 0.929 . S
H1180 C1188 0.929 . S
H1181 C1190 0.930 . S
H1182 C1192 0.930 . S
H1183 C1195 0.929 . S
H1184 C1198 0.930 . S
H1185 C1200 0.960 . S
H1186 C1200 0.960 . S
H1187 C1200 0.960 . S
C1188 H1180 0.929 . S
C1188 C1189 1.377 . S
C1188 C1190 1.384 . S
C1189 C1188 1.377 . S
C1189 C1195 1.390 . S
C1190 H1181 0.930 . S
C1190 C1188 1.384 . S
C1190 C1191 1.372 . S
C1191 C1190 1.372 . S
C1191 C1192 1.400 . S
C1191 C1196 1.490 . S
C1192 H1182 0.930 . S
C1192 C1191 1.400 . S
C1192 C1195 1.386 . S
H1193 C1209 0.930 . S
H1194 C1210 0.931 . S
C1195 H1183 0.929 . S
C1195 C1189 1.390 . S
C1195 C1192 1.386 . S
C1196 C1191 1.490 . S
C1196 C1198 1.395 . S
C1196 C1199 1.403 . S
H1197 C1203 0.930 . S
C1198 H1184 0.930 . S
C1198 C1196 1.395 . S
C1198 C1201 1.403 . S
C1199 C1196 1.403 . S
C1199 C1200 1.524 . S
C1199 C1203 1.400 . S
C1200 H1185 0.960 . S
C1200 H1186 0.960 . S
C1200 H1187 0.960 . S
C1200 C1199 1.524 . S
C1201 C1198 1.403 . S
C1201 C1202 1.392 . S
C1201 C1205 1.495 . S
C1202 C1201 1.392 . S
C1202 C1203 1.385 . S
C1202 C1204 1.478 . S
C1203 H1197 0.930 . S
C1203 C1199 1.400 . S
C1203 C1202 1.385 . S
C1204 C1202 1.478 . S
C1204 C1206 1.381 . S
C1204 C1210 1.383 . S
C1205 C1201 1.495 . S
C1205 H1211 0.959 . S
C1205 H1212 0.961 . S
C1205 H1213 0.960 . S
C1206 C1204 1.381 . S
C1206 C1207 1.394 . S
C1206 H1214 0.930 . S
C1207 C1206 1.394 . S
C1207 C1208 1.383 . S
C1207 H1215 0.929 . S
C1208 C1207 1.383 . S
C1208 C1209 1.377 . S
C1209 H1193 0.930 . S
C1209 C1208 1.377 . S
C1209 C1210 1.379 . S
C1210 H1194 0.931 . S
C1210 C1204 1.383 . S
C1210 C1209 1.379 . S
H1211 C1205 0.959 . S
H1212 C1205 0.961 . S
H1213 C1205 0.960 . S
H1214 C1206 0.930 . S
H1215 C1207 0.929 . S
H1216 C1224 0.929 . S
H1217 C1226 0.930 . S
H1218 C1228 0.930 . S
H1219 C1231 0.929 . S
H1220 C1234 0.930 . S
H1221 C1236 0.960 . S
H1222 C1236 0.960 . S
H1223 C1236 0.960 . S
C1224 H1216 0.929 . S
C1224 C1225 1.377 . S
C1224 C1226 1.384 . S
C1225 C1224 1.377 . S
C1225 C1231 1.390 . S
C1226 H1217 0.930 . S
C1226 C1224 1.384 . S
C1226 C1227 1.372 . S
C1227 C1226 1.372 . S
C1227 C1228 1.400 . S
C1227 C1232 1.490 . S
C1228 H1218 0.930 . S
C1228 C1227 1.400 . S
C1228 C1231 1.386 . S
H1229 C1245 0.930 . S
H1230 C1246 0.931 . S
C1231 H1219 0.929 . S
C1231 C1225 1.390 . S
C1231 C1228 1.386 . S
C1232 C1227 1.490 . S
C1232 C1234 1.395 . S
C1232 C1235 1.403 . S
H1233 C1239 0.930 . S
C1234 H1220 0.930 . S
C1234 C1232 1.395 . S
C1234 C1237 1.403 . S
C1235 C1232 1.403 . S
C1235 C1236 1.524 . S
C1235 C1239 1.400 . S
C1236 H1221 0.960 . S
C1236 H1222 0.960 . S
C1236 H1223 0.960 . S
C1236 C1235 1.524 . S
C1237 C1234 1.403 . S
C1237 C1238 1.392 . S
C1237 C1241 1.495 . S
C1238 C1237 1.392 . S
C1238 C1239 1.385 . S
C1238 C1240 1.478 . S
C1239 H1233 0.930 . S
C1239 C1235 1.400 . S
C1239 C1238 1.385 . S
C1240 C1238 1.478 . S
C1240 C1242 1.381 . S
C1240 C1246 1.383 . S
C1241 C1237 1.495 . S
C1241 H1247 0.959 . S
C1241 H1248 0.961 . S
C1241 H1249 0.960 . S
C1242 C1240 1.381 . S
C1242 C1243 1.394 . S
C1242 H1250 0.930 . S
C1243 C1242 1.394 . S
C1243 C1244 1.383 . S
C1243 H1251 0.929 . S
C1244 C1243 1.383 . S
C1244 C1245 1.377 . S
C1245 H1229 0.930 . S
C1245 C1244 1.377 . S
C1245 C1246 1.379 . S
C1246 H1230 0.931 . S
C1246 C1240 1.383 . S
C1246 C1245 1.379 . S
H1247 C1241 0.959 . S
H1248 C1241 0.961 . S
H1249 C1241 0.960 . S
H1250 C1242 0.930 . S
H1251 C1243 0.929 . S
H1252 C1260 0.929 . S
H1253 C1262 0.930 . S
H1254 C1264 0.930 . S
H1255 C1267 0.929 . S
H1256 C1270 0.930 . S
H1257 C1272 0.960 . S
H1258 C1272 0.960 . S
H1259 C1272 0.960 . S
C1260 H1252 0.929 . S
C1260 C1261 1.377 . S
C1260 C1262 1.384 . S
C1261 C1260 1.377 . S
C1261 C1267 1.390 . S
C1262 H1253 0.930 . S
C1262 C1260 1.384 . S
C1262 C1263 1.372 . S
C1263 C1262 1.372 . S
C1263 C1264 1.400 . S
C1263 C1268 1.490 . S
C1264 H1254 0.930 . S
C1264 C1263 1.400 . S
C1264 C1267 1.386 . S
H1265 C1281 0.930 . S
H1266 C1282 0.931 . S
C1267 H1255 0.929 . S
C1267 C1261 1.390 . S
C1267 C1264 1.386 . S
C1268 C1263 1.490 . S
C1268 C1270 1.395 . S
C1268 C1271 1.403 . S
H1269 C1275 0.930 . S
C1270 H1256 0.930 . S
C1270 C1268 1.395 . S
C1270 C1273 1.403 . S
C1271 C1268 1.403 . S
C1271 C1272 1.524 . S
C1271 C1275 1.400 . S
C1272 H1257 0.960 . S
C1272 H1258 0.960 . S
C1272 H1259 0.960 . S
C1272 C1271 1.524 . S
C1273 C1270 1.403 . S
C1273 C1274 1.392 . S
C1273 C1277 1.495 . S
C1274 C1273 1.392 . S
C1274 C1275 1.385 . S
C1274 C1276 1.478 . S
C1275 H1269 0.930 . S
C1275 C1271 1.400 . S
C1275 C1274 1.385 . S
C1276 C1274 1.478 . S
C1276 C1278 1.381 . S
C1276 C1282 1.383 . S
C1277 C1273 1.495 . S
C1277 H1283 0.959 . S
C1277 H1284 0.961 . S
C1277 H1285 0.960 . S
C1278 C1276 1.381 . S
C1278 C1279 1.394 . S
C1278 H1286 0.930 . S
C1279 C1278 1.394 . S
C1279 C1280 1.383 . S
C1279 H1287 0.929 . S
C1280 C1279 1.383 . S
C1280 C1281 1.377 . S
C1281 H1265 0.930 . S
C1281 C1280 1.377 . S
C1281 C1282 1.379 . S
C1282 H1266 0.931 . S
C1282 C1276 1.383 . S
C1282 C1281 1.379 . S
H1283 C1277 0.959 . S
H1284 C1277 0.961 . S
H1285 C1277 0.960 . S
H1286 C1278 0.930 . S
H1287 C1279 0.929 . S
H1288 C1296 0.929 . S
H1289 C1298 0.930 . S
H1290 C1300 0.930 . S
H1291 C1303 0.929 . S
H1292 C1306 0.930 . S
H1293 C1308 0.960 . S
H1294 C1308 0.960 . S
H1295 C1308 0.960 . S
C1296 H1288 0.929 . S
C1296 C1297 1.377 . S
C1296 C1298 1.384 . S
C1297 C1296 1.377 . S
C1297 C1303 1.390 . S
C1298 H1289 0.930 . S
C1298 C1296 1.384 . S
C1298 C1299 1.372 . S
C1299 C1298 1.372 . S
C1299 C1300 1.400 . S
C1299 C1304 1.490 . S
C1300 H1290 0.930 . S
C1300 C1299 1.400 . S
C1300 C1303 1.386 . S
H1301 C1317 0.930 . S
H1302 C1318 0.931 . S
C1303 H1291 0.929 . S
C1303 C1297 1.390 . S
C1303 C1300 1.386 . S
C1304 C1299 1.490 . S
C1304 C1306 1.395 . S
C1304 C1307 1.403 . S
H1305 C1311 0.930 . S
C1306 H1292 0.930 . S
C1306 C1304 1.395 . S
C1306 C1309 1.403 . S
C1307 C1304 1.403 . S
C1307 C1308 1.524 . S
C1307 C1311 1.400 . S
C1308 H1293 0.960 . S
C1308 H1294 0.960 . S
C1308 H1295 0.960 . S
C1308 C1307 1.524 . S
C1309 C1306 1.403 . S
C1309 C1310 1.392 . S
C1309 C1313 1.495 . S
C1310 C1309 1.392 . S
C1310 C1311 1.385 . S
C1310 C1312 1.478 . S
C1311 H1305 0.930 . S
C1311 C1307 1.400 . S
C1311 C1310 1.385 . S
C1312 C1310 1.478 . S
C1312 C1314 1.381 . S
C1312 C1318 1.383 . S
C1313 C1309 1.495 . S
C1313 H1319 0.959 . S
C1313 H1320 0.961 . S
C1313 H1321 0.960 . S
C1314 C1312 1.381 . S
C1314 C1315 1.394 . S
C1314 H1322 0.930 . S
C1315 C1314 1.394 . S
C1315 C1316 1.383 . S
C1315 H1323 0.929 . S
C1316 C1315 1.383 . S
C1316 C1317 1.377 . S
C1317 H1301 0.930 . S
C1317 C1316 1.377 . S
C1317 C1318 1.379 . S
C1318 H1302 0.931 . S
C1318 C1312 1.383 . S
C1318 C1317 1.379 . S
H1319 C1313 0.959 . S
H1320 C1313 0.961 . S
H1321 C1313 0.960 . S
H1322 C1314 0.930 . S
H1323 C1315 0.929 . S
H1324 C1332 0.929 . S
H1325 C1334 0.930 . S
H1326 C1336 0.930 . S
H1327 C1339 0.929 . S
H1328 C1342 0.930 . S
H1329 C1344 0.960 . S
H1330 C1344 0.960 . S
H1331 C1344 0.960 . S
C1332 H1324 0.929 . S
C1332 C1333 1.377 . S
C1332 C1334 1.384 . S
C1333 C1332 1.377 . S
C1333 C1339 1.390 . S
C1334 H1325 0.930 . S
C1334 C1332 1.384 . S
C1334 C1335 1.372 . S
C1335 C1334 1.372 . S
C1335 C1336 1.400 . S
C1335 C1340 1.490 . S
C1336 H1326 0.930 . S
C1336 C1335 1.400 . S
C1336 C1339 1.386 . S
H1337 C1353 0.930 . S
H1338 C1354 0.931 . S
C1339 H1327 0.929 . S
C1339 C1333 1.390 . S
C1339 C1336 1.386 . S
C1340 C1335 1.490 . S
C1340 C1342 1.395 . S
C1340 C1343 1.403 . S
H1341 C1347 0.930 . S
C1342 H1328 0.930 . S
C1342 C1340 1.395 . S
C1342 C1345 1.403 . S
C1343 C1340 1.403 . S
C1343 C1344 1.524 . S
C1343 C1347 1.400 . S
C1344 H1329 0.960 . S
C1344 H1330 0.960 . S
C1344 H1331 0.960 . S
C1344 C1343 1.524 . S
C1345 C1342 1.403 . S
C1345 C1346 1.392 . S
C1345 C1349 1.495 . S
C1346 C1345 1.392 . S
C1346 C1347 1.385 . S
C1346 C1348 1.478 . S
C1347 H1341 0.930 . S
C1347 C1343 1.400 . S
C1347 C1346 1.385 . S
C1348 C1346 1.478 . S
C1348 C1350 1.381 . S
C1348 C1354 1.383 . S
C1349 C1345 1.495 . S
C1349 H1355 0.959 . S
C1349 H1356 0.961 . S
C1349 H1357 0.960 . S
C1350 C1348 1.381 . S
C1350 C1351 1.394 . S
C1350 H1358 0.930 . S
C1351 C1350 1.394 . S
C1351 C1352 1.383 . S
C1351 H1359 0.929 . S
C1352 C1351 1.383 . S
C1352 C1353 1.377 . S
C1353 H1337 0.930 . S
C1353 C1352 1.377 . S
C1353 C1354 1.379 . S
C1354 H1338 0.931 . S
C1354 C1348 1.383 . S
C1354 C1353 1.379 . S
H1355 C1349 0.959 . S
H1356 C1349 0.961 . S
H1357 C1349 0.960 . S
H1358 C1350 0.930 . S
H1359 C1351 0.929 . S
H1360 C1368 0.929 . S
H1361 C1370 0.930 . S
H1362 C1372 0.930 . S
H1363 C1375 0.929 . S
H1364 C1378 0.930 . S
H1365 C1380 0.960 . S
H1366 C1380 0.960 . S
H1367 C1380 0.960 . S
C1368 H1360 0.929 . S
C1368 C1369 1.377 . S
C1368 C1370 1.384 . S
C1369 C1368 1.377 . S
C1369 C1375 1.390 . S
C1370 H1361 0.930 . S
C1370 C1368 1.384 . S
C1370 C1371 1.372 . S
C1371 C1370 1.372 . S
C1371 C1372 1.400 . S
C1371 C1376 1.490 . S
C1372 H1362 0.930 . S
C1372 C1371 1.400 . S
C1372 C1375 1.386 . S
H1373 C1389 0.930 . S
H1374 C1390 0.931 . S
C1375 H1363 0.929 . S
C1375 C1369 1.390 . S
C1375 C1372 1.386 . S
C1376 C1371 1.490 . S
C1376 C1378 1.395 . S
C1376 C1379 1.403 . S
H1377 C1383 0.930 . S
C1378 H1364 0.930 . S
C1378 C1376 1.395 . S
C1378 C1381 1.403 . S
C1379 C1376 1.403 . S
C1379 C1380 1.524 . S
C1379 C1383 1.400 . S
C1380 H1365 0.960 . S
C1380 H1366 0.960 . S
C1380 H1367 0.960 . S
C1380 C1379 1.524 . S
C1381 C1378 1.403 . S
C1381 C1382 1.392 . S
C1381 C1385 1.495 . S
C1382 C1381 1.392 . S
C1382 C1383 1.385 . S
C1382 C1384 1.478 . S
C1383 H1377 0.930 . S
C1383 C1379 1.400 . S
C1383 C1382 1.385 . S
C1384 C1382 1.478 . S
C1384 C1386 1.381 . S
C1384 C1390 1.383 . S
C1385 C1381 1.495 . S
C1385 H1391 0.959 . S
C1385 H1392 0.961 . S
C1385 H1393 0.960 . S
C1386 C1384 1.381 . S
C1386 C1387 1.394 . S
C1386 H1394 0.930 . S
C1387 C1386 1.394 . S
C1387 C1388 1.383 . S
C1387 H1395 0.929 . S
C1388 C1387 1.383 . S
C1388 C1389 1.377 . S
C1389 H1373 0.930 . S
C1389 C1388 1.377 . S
C1389 C1390 1.379 . S
C1390 H1374 0.931 . S
C1390 C1384 1.383 . S
C1390 C1389 1.379 . S
H1391 C1385 0.959 . S
H1392 C1385 0.961 . S
H1393 C1385 0.960 . S
H1394 C1386 0.930 . S
H1395 C1387 0.929 . S
H1396 C1404 0.929 . S
H1397 C1406 0.930 . S
H1398 C1408 0.930 . S
H1399 C1411 0.929 . S
H1400 C1414 0.930 . S
H1401 C1416 0.960 . S
H1402 C1416 0.960 . S
H1403 C1416 0.960 . S
C1404 H1396 0.929 . S
C1404 C1405 1.377 . S
C1404 C1406 1.384 . S
C1405 C1404 1.377 . S
C1405 C1411 1.390 . S
C1406 H1397 0.930 . S
C1406 C1404 1.384 . S
C1406 C1407 1.372 . S
C1407 C1406 1.372 . S
C1407 C1408 1.400 . S
C1407 C1412 1.490 . S
C1408 H1398 0.930 . S
C1408 C1407 1.400 . S
C1408 C1411 1.386 . S
H1409 C1425 0.930 . S
H1410 C1426 0.931 . S
C1411 H1399 0.929 . S
C1411 C1405 1.390 . S
C1411 C1408 1.386 . S
C1412 C1407 1.490 . S
C1412 C1414 1.395 . S
C1412 C1415 1.403 . S
H1413 C1419 0.930 . S
C1414 H1400 0.930 . S
C1414 C1412 1.395 . S
C1414 C1417 1.403 . S
C1415 C1412 1.403 . S
C1415 C1416 1.524 . S
C1415 C1419 1.400 . S
C1416 H1401 0.960 . S
C1416 H1402 0.960 . S
C1416 H1403 0.960 . S
C1416 C1415 1.524 . S
C1417 C1414 1.403 . S
C1417 C1418 1.392 . S
C1417 C1421 1.495 . S
C1418 C1417 1.392 . S
C1418 C1419 1.385 . S
C1418 C1420 1.478 . S
C1419 H1413 0.930 . S
C1419 C1415 1.400 . S
C1419 C1418 1.385 . S
C1420 C1418 1.478 . S
C1420 C1422 1.381 . S
C1420 C1426 1.383 . S
C1421 C1417 1.495 . S
C1421 H1427 0.959 . S
C1421 H1428 0.961 . S
C1421 H1429 0.960 . S
C1422 C1420 1.381 . S
C1422 C1423 1.394 . S
C1422 H1430 0.930 . S
C1423 C1422 1.394 . S
C1423 C1424 1.383 . S
C1423 H1431 0.929 . S
C1424 C1423 1.383 . S
C1424 C1425 1.377 . S
C1425 H1409 0.930 . S
C1425 C1424 1.377 . S
C1425 C1426 1.379 . S
C1426 H1410 0.931 . S
C1426 C1420 1.383 . S
C1426 C1425 1.379 . S
H1427 C1421 0.959 . S
H1428 C1421 0.961 . S
H1429 C1421 0.960 . S
H1430 C1422 0.930 . S
H1431 C1423 0.929 . S
H1432 C1440 0.929 . S
H1433 C1442 0.930 . S
H1434 C1444 0.930 . S
H1435 C1447 0.929 . S
H1436 C1450 0.930 . S
H1437 C1452 0.960 . S
H1438 C1452 0.960 . S
H1439 C1452 0.960 . S
C1440 H1432 0.929 . S
C1440 C1441 1.377 . S
C1440 C1442 1.384 . S
C1441 C1440 1.377 . S
C1441 C1447 1.390 . S
C1442 H1433 0.930 . S
C1442 C1440 1.384 . S
C1442 C1443 1.372 . S
C1443 C1442 1.372 . S
C1443 C1444 1.400 . S
C1443 C1448 1.490 . S
C1444 H1434 0.930 . S
C1444 C1443 1.400 . S
C1444 C1447 1.386 . S
H1445 C1461 0.930 . S
H1446 C1462 0.931 . S
C1447 H1435 0.929 . S
C1447 C1441 1.390 . S
C1447 C1444 1.386 . S
C1448 C1443 1.490 . S
C1448 C1450 1.395 . S
C1448 C1451 1.403 . S
H1449 C1455 0.930 . S
C1450 H1436 0.930 . S
C1450 C1448 1.395 . S
C1450 C1453 1.403 . S
C1451 C1448 1.403 . S
C1451 C1452 1.524 . S
C1451 C1455 1.400 . S
C1452 H1437 0.960 . S
C1452 H1438 0.960 . S
C1452 H1439 0.960 . S
C1452 C1451 1.524 . S
C1453 C1450 1.403 . S
C1453 C1454 1.392 . S
C1453 C1457 1.495 . S
C1454 C1453 1.392 . S
C1454 C1455 1.385 . S
C1454 C1456 1.478 . S
C1455 H1449 0.930 . S
C1455 C1451 1.400 . S
C1455 C1454 1.385 . S
C1456 C1454 1.478 . S
C1456 C1458 1.381 . S
C1456 C1462 1.383 . S
C1457 C1453 1.495 . S
C1457 H1463 0.959 . S
C1457 H1464 0.961 . S
C1457 H1465 0.960 . S
C1458 C1456 1.381 . S
C1458 C1459 1.394 . S
C1458 H1466 0.930 . S
C1459 C1458 1.394 . S
C1459 C1460 1.383 . S
C1459 H1467 0.929 . S
C1460 C1459 1.383 . S
C1460 C1461 1.377 . S
C1461 H1445 0.930 . S
C1461 C1460 1.377 . S
C1461 C1462 1.379 . S
C1462 H1446 0.931 . S
C1462 C1456 1.383 . S
C1462 C1461 1.379 . S
H1463 C1457 0.959 . S
H1464 C1457 0.961 . S
H1465 C1457 0.960 . S
H1466 C1458 0.930 . S
H1467 C1459 0.929 . S
H1468 C1476 0.929 . S
H1469 C1478 0.930 . S
H1470 C1480 0.930 . S
H1471 C1483 0.929 . S
H1472 C1486 0.930 . S
H1473 C1488 0.960 . S
H1474 C1488 0.960 . S
H1475 C1488 0.960 . S
C1476 H1468 0.929 . S
C1476 C1477 1.377 . S
C1476 C1478 1.384 . S
C1477 C1476 1.377 . S
C1477 C1483 1.390 . S
C1478 H1469 0.930 . S
C1478 C1476 1.384 . S
C1478 C1479 1.372 . S
C1479 C1478 1.372 . S
C1479 C1480 1.400 . S
C1479 C1484 1.490 . S
C1480 H1470 0.930 . S
C1480 C1479 1.400 . S
C1480 C1483 1.386 . S
H1481 C1497 0.930 . S
H1482 C1498 0.931 . S
C1483 H1471 0.929 . S
C1483 C1477 1.390 . S
C1483 C1480 1.386 . S
C1484 C1479 1.490 . S
C1484 C1486 1.395 . S
C1484 C1487 1.403 . S
H1485 C1491 0.930 . S
C1486 H1472 0.930 . S
C1486 C1484 1.395 . S
C1486 C1489 1.403 . S
C1487 C1484 1.403 . S
C1487 C1488 1.524 . S
C1487 C1491 1.400 . S
C1488 H1473 0.960 . S
C1488 H1474 0.960 . S
C1488 H1475 0.960 . S
C1488 C1487 1.524 . S
C1489 C1486 1.403 . S
C1489 C1490 1.392 . S
C1489 C1493 1.495 . S
C1490 C1489 1.392 . S
C1490 C1491 1.385 . S
C1490 C1492 1.478 . S
C1491 H1485 0.930 . S
C1491 C1487 1.400 . S
C1491 C1490 1.385 . S
C1492 C1490 1.478 . S
C1492 C1494 1.381 . S
C1492 C1498 1.383 . S
C1493 C1489 1.495 . S
C1493 H1499 0.959 . S
C1493 H1500 0.961 . S
C1493 H1501 0.960 . S
C1494 C1492 1.381 . S
C1494 C1495 1.394 . S
C1494 H1502 0.930 . S
C1495 C1494 1.394 . S
C1495 C1496 1.383 . S
C1495 H1503 0.929 . S
C1496 C1495 1.383 . S
C1496 C1497 1.377 . S
C1497 H1481 0.930 . S
C1497 C1496 1.377 . S
C1497 C1498 1.379 . S
C1498 H1482 0.931 . S
C1498 C1492 1.383 . S
C1498 C1497 1.379 . S
H1499 C1493 0.959 . S
H1500 C1493 0.961 . S
H1501 C1493 0.960 . S
H1502 C1494 0.930 . S
H1503 C1495 0.929 . S
C649 C1 0.895 . S
C668 C495 0.894 . S
C685 C80 1.603 . S
C704 C539 1.587 . S
C740 C569 2.015 . S
C721 C140 1.976 . S
C757 C211 2.782 . S
C776 C610 2.778 . S
C812 C526 0.696 . S
C793 C31 0.711 . S
C848 C490 2.614 . S
C829 C61 2.570 . S
C884 C618 1.090 . S
C865 C151 1.094 . S
C920 C579 2.161 . S
C901 C200 2.229 . S
C937 C20 0.697 . S
C956 C615 0.645 . S
C992 C529 1.982 . S
C973 C121 2.039 . S
C1009 C181 2.094 . S
C1028 C498 2.100 . S
C1045 C91 1.904 . S
C1064 C566 1.881 . S
C1100 C486 0.913 . S
C1081 C260 0.918 . S
C1117 C320 1.601 . S
C1136 C530 1.553 . S
C1153 C361 1.938 . S
C1172 C578 2.015 . S
C1189 C451 2.782 . S
C1208 C619 2.766 . S
C1225 C271 0.698 . S
C1244 C535 0.685 . S
C1280 C499 2.615 . S
C1261 C301 2.570 . S
C1316 C609 1.070 . S
C1297 C380 1.076 . S
C1352 C570 2.160 . S
C1333 C440 2.230 . S
C1369 C241 0.713 . S
C1388 C606 0.711 . S
C1424 C538 1.958 . S
C1405 C391 2.013 . S
C1460 C489 2.064 . S
C1441 C421 2.091 . S
C1477 C331 1.904 . S
C1496 C575 1.894 . S
