# Generated by pormake.
# Topology pyr, (3,6)-cn, num edge types: 1
# Building blocks:
#     Node 0, Type 0, BuildingBlock: BELTOD_clean_linker_0, # of connection points: 3
#     Node 1, Type 0, BuildingBlock: BELTOD_clean_linker_0, # of connection points: 3
#     Node 2, Type 0, BuildingBlock: BELTOD_clean_linker_0, # of connection points: 3
#     Node 3, Type 0, BuildingBlock: BELTOD_clean_linker_0, # of connection points: 3
#     Node 4, Type 0, BuildingBlock: BELTOD_clean_linker_0, # of connection points: 3
#     Node 5, Type 0, BuildingBlock: BELTOD_clean_linker_0, # of connection points: 3
#     Node 6, Type 0, BuildingBlock: BELTOD_clean_linker_0, # of connection points: 3
#     Node 7, Type 0, BuildingBlock: BELTOD_clean_linker_0, # of connection points: 3
#     Node 8, Type 1, BuildingBlock: MIDCAF_clean_sbu_0, # of connection points: 6
#     Node 9, Type 1, BuildingBlock: MIDCAF_clean_sbu_0, # of connection points: 6
#     Node 10, Type 1, BuildingBlock: MIDCAF_clean_sbu_0, # of connection points: 6
#     Node 11, Type 1, BuildingBlock: MIDCAF_clean_sbu_0, # of connection points: 6
#     Edge 12, Type (0, 1), BuildingBlock: CIFDUS_clean_linker_0, # of connection points: 2
#     Edge 13, Type (0, 1), BuildingBlock: CIFDUS_clean_linker_0, # of connection points: 2
#     Edge 14, Type (0, 1), BuildingBlock: CIFDUS_clean_linker_0, # of connection points: 2
#     Edge 15, Type (0, 1), BuildingBlock: CIFDUS_clean_linker_0, # of connection points: 2
#     Edge 16, Type (0, 1), BuildingBlock: CIFDUS_clean_linker_0, # of connection points: 2
#     Edge 17, Type (0, 1), BuildingBlock: CIFDUS_clean_linker_0, # of connection points: 2
#     Edge 18, Type (0, 1), BuildingBlock: CIFDUS_clean_linker_0, # of connection points: 2
#     Edge 19, Type (0, 1), BuildingBlock: CIFDUS_clean_linker_0, # of connection points: 2
#     Edge 20, Type (0, 1), BuildingBlock: CIFDUS_clean_linker_0, # of connection points: 2
#     Edge 21, Type (0, 1), BuildingBlock: CIFDUS_clean_linker_0, # of connection points: 2
#     Edge 22, Type (0, 1), BuildingBlock: CIFDUS_clean_linker_0, # of connection points: 2
#     Edge 23, Type (0, 1), BuildingBlock: CIFDUS_clean_linker_0, # of connection points: 2
#     Edge 24, Type (0, 1), BuildingBlock: CIFDUS_clean_linker_0, # of connection points: 2
#     Edge 25, Type (0, 1), BuildingBlock: CIFDUS_clean_linker_0, # of connection points: 2
#     Edge 26, Type (0, 1), BuildingBlock: CIFDUS_clean_linker_0, # of connection points: 2
#     Edge 27, Type (0, 1), BuildingBlock: CIFDUS_clean_linker_0, # of connection points: 2
#     Edge 28, Type (0, 1), BuildingBlock: CIFDUS_clean_linker_0, # of connection points: 2
#     Edge 29, Type (0, 1), BuildingBlock: CIFDUS_clean_linker_0, # of connection points: 2
#     Edge 30, Type (0, 1), BuildingBlock: CIFDUS_clean_linker_0, # of connection points: 2
#     Edge 31, Type (0, 1), BuildingBlock: CIFDUS_clean_linker_0, # of connection points: 2
#     Edge 32, Type (0, 1), BuildingBlock: CIFDUS_clean_linker_0, # of connection points: 2
#     Edge 33, Type (0, 1), BuildingBlock: CIFDUS_clean_linker_0, # of connection points: 2
#     Edge 34, Type (0, 1), BuildingBlock: CIFDUS_clean_linker_0, # of connection points: 2
#     Edge 35, Type (0, 1), BuildingBlock: CIFDUS_clean_linker_0, # of connection points: 2
# Relax obj value: 0.020
# Max RMSD: 0.062
# Mean RMSD: 0.033
data_MOF--net-pry--node1-MIDCAF_clean_sbu_0--node2-BELTOD_clean_linker_0--edge1-CIFDUS_clean_linker_0
_symmetry_space_group_name_H-M    P1
_symmetry_Int_Tables_number       1
_symmetry_cell_setting            triclinic
loop_
_symmetry_equiv_pos_as_xyz
'x, y, z'
_cell_length_a     36.064726
_cell_length_b     36.347833
_cell_length_c     35.710837
_cell_angle_alpha  89.573774
_cell_angle_beta   90.018264
_cell_angle_gamma 90.360924
loop_
_atom_site_label
_atom_site_type_symbol
_atom_site_fract_x
_atom_site_fract_y
_atom_site_fract_z
_atom_type_partial_charge
P0 P 0.25378 0.26853 0.26111 0.0
H1 H 0.2852 0.2803 0.18625 0.0
H2 H 0.32909 0.24664 0.14889 0.0
H3 H 0.34321 0.1684 0.23968 0.0
H4 H 0.29614 0.20075 0.27563 0.0
H5 H 0.22602 0.34398 0.26823 0.0
H6 H 0.18552 0.38186 0.22903 0.0
H7 H 0.17662 0.29279 0.14985 0.0
H8 H 0.21544 0.25472 0.19011 0.0
H9 H 0.26764 0.23608 0.33488 0.0
H10 H 0.17866 0.23635 0.25417 0.0
O11 O 0.27908 0.29641 0.28801 0.0
H12 H 0.22981 0.19828 0.37736 0.0
H13 H 0.14075 0.19878 0.29648 0.0
C14 C 0.28595 0.24229 0.23322 0.0
C15 C 0.29677 0.2553 0.19783 0.0
C16 C 0.32285 0.2363 0.17669 0.0
C17 C 0.34032 0.20459 0.19104 0.0
C18 C 0.33004 0.19213 0.2271 0.0
C19 C 0.30309 0.21076 0.24788 0.0
C20 C 0.22428 0.29671 0.23179 0.0
C21 C 0.2154 0.33269 0.24236 0.0
C22 C 0.19244 0.35447 0.21971 0.0
C23 C 0.17782 0.3406 0.18605 0.0
C24 C 0.18689 0.3044 0.17572 0.0
C25 C 0.20942 0.2826 0.19857 0.0
C26 C 0.22592 0.23948 0.29148 0.0
C27 C 0.23998 0.22802 0.32626 0.0
C28 C 0.21837 0.20632 0.35049 0.0
C29 C 0.18213 0.19577 0.34044 0.0
C30 C 0.16831 0.20695 0.30533 0.0
C31 C 0.1901 0.22835 0.28098 0.0
P32 P 0.29686 0.81134 0.72506 0.0
H33 H 0.36909 0.83604 0.74977 0.0
H34 H 0.39253 0.85724 0.80984 0.0
H35 H 0.28857 0.82682 0.86209 0.0
H36 H 0.26529 0.80528 0.80142 0.0
H37 H 0.29964 0.78172 0.64997 0.0
H38 H 0.32899 0.72774 0.6235 0.0
H39 H 0.36378 0.69383 0.73435 0.0
H40 H 0.3319 0.74672 0.76087 0.0
H41 H 0.24551 0.86268 0.75983 0.0
H42 H 0.23915 0.77311 0.68156 0.0
O43 O 0.3143 0.84398 0.69693 0.0
H44 H 0.1825 0.88023 0.74399 0.0
H45 H 0.17834 0.79274 0.66241 0.0
C46 C 0.31507 0.82041 0.77099 0.0
C47 C 0.35151 0.83343 0.77424 0.0
C48 C 0.365 0.8452 0.80873 0.0
C49 C 0.34224 0.84405 0.84068 0.0
C50 C 0.30652 0.82851 0.83782 0.0
C51 C 0.29317 0.81634 0.8032 0.0
C52 C 0.3136 0.76829 0.70733 0.0
C53 C 0.3127 0.76213 0.66869 0.0
C54 C 0.32994 0.73142 0.65355 0.0
C55 C 0.34949 0.70674 0.67666 0.0
C56 C 0.34884 0.71208 0.71569 0.0
C57 C 0.33084 0.74255 0.73091 0.0
C58 C 0.24726 0.81641 0.72209 0.0
C59 C 0.23028 0.84614 0.73989 0.0
C60 C 0.19432 0.85667 0.73013 0.0
C61 C 0.17523 0.83878 0.70097 0.0
C62 C 0.19151 0.80732 0.68516 0.0
C63 C 0.22695 0.79616 0.69585 0.0
P64 P 0.7553 0.27467 0.78535 0.0
H65 H 0.77146 0.27203 0.86646 0.0
H66 H 0.81159 0.30787 0.90629 0.0
H67 H 0.84913 0.37066 0.80994 0.0
H68 H 0.80575 0.3367 0.77067 0.0
H69 H 0.73768 0.19601 0.78088 0.0
H70 H 0.70049 0.15462 0.82012 0.0
H71 H 0.66638 0.24671 0.88723 0.0
H72 H 0.70342 0.28825 0.84751 0.0
H73 H 0.77772 0.30427 0.71292 0.0
H74 H 0.68107 0.30939 0.78375 0.0
O75 O 0.78407 0.24762 0.76164 0.0
H76 H 0.74877 0.34665 0.66853 0.0
H77 H 0.65176 0.3517 0.73902 0.0
C78 C 0.78413 0.30252 0.8156 0.0
C79 C 0.78716 0.2943 0.85387 0.0
C80 C 0.81115 0.31443 0.87669 0.0
C81 C 0.83419 0.34228 0.86158 0.0
C82 C 0.83148 0.35007 0.82298 0.0
C83 C 0.80664 0.33047 0.80032 0.0
C84 C 0.72388 0.24521 0.81161 0.0
C85 C 0.722 0.20747 0.8038 0.0
C86 C 0.70068 0.18376 0.82624 0.0
C87 C 0.68097 0.19734 0.85708 0.0
C88 C 0.68182 0.23538 0.86405 0.0
C89 C 0.70272 0.25916 0.8412 0.0
C90 C 0.73156 0.3034 0.75162 0.0
C91 C 0.75008 0.31415 0.71876 0.0
C92 C 0.73356 0.33849 0.69342 0.0
C93 C 0.698 0.35249 0.70029 0.0
C94 C 0.67903 0.34104 0.73281 0.0
C95 C 0.69585 0.31695 0.75848 0.0
P96 P 0.76259 0.78865 0.25791 0.0
H97 H 0.80602 0.85628 0.24956 0.0
H98 H 0.84715 0.88983 0.29223 0.0
H99 H 0.81876 0.81329 0.38103 0.0
H100 H 0.77907 0.77946 0.33826 0.0
H101 H 0.74886 0.75808 0.18385 0.0
H102 H 0.78775 0.72345 0.14058 0.0
H103 H 0.88143 0.73839 0.21457 0.0
H104 H 0.8422 0.77177 0.25806 0.0
H105 H 0.69388 0.79009 0.30104 0.0
H106 H 0.7755 0.70963 0.27017 0.0
O107 O 0.73302 0.81643 0.23577 0.0
H108 H 0.66232 0.74407 0.34014 0.0
H109 H 0.74355 0.66327 0.30796 0.0
C110 C 0.78935 0.81547 0.29067 0.0
C111 C 0.80842 0.84705 0.27837 0.0
C112 C 0.83176 0.86629 0.30283 0.0
C113 C 0.83644 0.85415 0.34003 0.0
C114 C 0.8163 0.82308 0.35243 0.0
C115 C 0.79325 0.8038 0.32795 0.0
C116 C 0.79272 0.76796 0.22387 0.0
C117 C 0.77794 0.7544 0.19037 0.0
C118 C 0.80026 0.73474 0.16559 0.0
C119 C 0.83775 0.7281 0.17408 0.0
C120 C 0.8526 0.74264 0.20733 0.0
C121 C 0.83023 0.7621 0.23211 0.0
C122 C 0.73669 0.75322 0.28224 0.0
C123 C 0.70448 0.76228 0.30197 0.0
C124 C 0.68639 0.73587 0.32421 0.0
C125 C 0.70035 0.69987 0.32724 0.0
C126 C 0.73224 0.69078 0.30666 0.0
C127 C 0.75039 0.71726 0.28466 0.0
P128 P 0.9345 0.95949 0.9499 0.0
H129 H 0.89179 0.95851 0.01816 0.0
H130 H 0.82986 0.97884 0.03423 0.0
H131 H 0.81113 0.01056 0.91877 0.0
H132 H 0.87218 0.98712 0.90247 0.0
H133 H 0.96863 0.92886 0.0172 0.0
H134 H 0.97876 0.8664 0.03949 0.0
H135 H 0.92489 0.82415 0.94037 0.0
H136 H 0.91315 0.88733 0.91917 0.0
H137 H 0.9306 0.02496 0.90348 0.0
H138 H 0.97397 0.91528 0.89263 0.0
O139 O 0.9608 0.98687 0.97636 0.0
H140 H 0.95326 0.0405 0.84123 0.0
H141 H 0.9979 0.93101 0.83044 0.0
C142 C 0.88705 0.97187 0.95931 0.0
C143 C 0.87421 0.96949 0.9962 0.0
C144 C 0.83883 0.98175 0.00544 0.0
C145 C 0.81554 0.9975 0.97805 0.0
C146 C 0.82813 0.99879 0.94072 0.0
C147 C 0.86343 0.98573 0.93138 0.0
C148 C 0.94138 0.91275 0.96578 0.0
C149 C 0.95903 0.90623 1.00013 0.0
C150 C 0.96485 0.87034 0.0129 0.0
C151 C 0.95332 0.84002 0.99147 0.0
C152 C 0.93409 0.84672 0.95775 0.0
C153 C 0.9278 0.88282 0.94526 0.0
C154 C 0.94906 0.96851 0.90226 0.0
C155 C 0.94449 0.00396 0.88743 0.0
C156 C 0.95808 0.013 0.85197 0.0
C157 C 0.97762 0.98705 0.83073 0.0
C158 C 0.9825 0.95149 0.84575 0.0
C159 C 0.9686 0.9424 0.88135 0.0
P160 P 0.64389 0.15016 0.38521 0.0
H161 H 0.66872 0.2249 0.40158 0.0
H162 H 0.64364 0.27285 0.44073 0.0
H163 H 0.56169 0.196 0.48403 0.0
H164 H 0.58503 0.14918 0.44173 0.0
H165 H 0.7096 0.10981 0.36233 0.0
H166 H 0.75439 0.07387 0.39816 0.0
H167 H 0.68179 0.0763 0.49425 0.0
H168 H 0.63714 0.11226 0.45836 0.0
H169 H 0.57716 0.18525 0.35682 0.0
H170 H 0.62688 0.07771 0.35413 0.0
O171 O 0.67133 0.17146 0.35416 0.0
H172 H 0.53148 0.16596 0.31024 0.0
H173 H 0.58198 0.05846 0.3072 0.0
C174 C 0.62849 0.18363 0.41847 0.0
C175 C 0.64544 0.21832 0.41959 0.0
C176 C 0.63131 0.24568 0.44264 0.0
C177 C 0.60036 0.23862 0.46573 0.0
C178 C 0.58498 0.20288 0.46614 0.0
C179 C 0.59856 0.17585 0.44227 0.0
C180 C 0.67076 0.11504 0.40815 0.0
C181 C 0.70286 0.10186 0.39082 0.0
C182 C 0.72828 0.08091 0.4112 0.0
C183 C 0.72183 0.07288 0.4492 0.0
C184 C 0.68766 0.08261 0.46514 0.0
C185 C 0.66221 0.10343 0.44467 0.0
C186 C 0.60505 0.13271 0.3593 0.0
C187 C 0.5775 0.1571 0.3471 0.0
C188 C 0.55156 0.14616 0.32028 0.0
C189 C 0.55305 0.11072 0.30495 0.0
C190 C 0.57951 0.08574 0.31889 0.0
C191 C 0.60541 0.09674 0.34568 0.0
P192 P 0.44016 0.59045 0.08793 0.0
H193 H 0.38997 0.53464 0.05673 0.0
H194 H 0.32265 0.53148 0.05059 0.0
H195 H 0.31336 0.63223 0.11361 0.0
H196 H 0.38064 0.63658 0.11683 0.0
H197 H 0.50271 0.63762 0.10936 0.0
H198 H 0.5223 0.69896 0.08977 0.0
H199 H 0.42857 0.70556 0.0147 0.0
H200 H 0.40881 0.64381 0.03471 0.0
H201 H 0.50825 0.55438 0.11252 0.0
H202 H 0.41357 0.6048 0.16448 0.0
O203 O 0.45823 0.56148 0.05695 0.0
H204 H 0.53488 0.5421 0.1743 0.0
H205 H 0.43922 0.59169 0.22597 0.0
C206 C 0.39033 0.58598 0.08704 0.0
C207 C 0.37338 0.55601 0.06925 0.0
C208 C 0.33473 0.55402 0.06614 0.0
C209 C 0.31228 0.58174 0.08133 0.0
C210 C 0.32958 0.61078 0.10075 0.0
C211 C 0.36815 0.61311 0.10309 0.0
C212 C 0.45375 0.63641 0.07424 0.0
C213 C 0.4861 0.65221 0.08893 0.0
C214 C 0.49752 0.68725 0.07739 0.0
C215 C 0.477 0.70711 0.05061 0.0
C216 C 0.44471 0.6911 0.03566 0.0
C217 C 0.4334 0.65585 0.04712 0.0
C218 C 0.45843 0.5797 0.13375 0.0
C219 C 0.49291 0.56237 0.13718 0.0
C220 C 0.50816 0.55543 0.17255 0.0
C221 C 0.48923 0.56588 0.2052 0.0
C222 C 0.4549 0.58374 0.20151 0.0
C223 C 0.43983 0.59081 0.16616 0.0
P224 P 0.16396 0.37356 0.66137 0.0
H225 H 0.19169 0.34515 0.59058 0.0
H226 H 0.16371 0.30501 0.54319 0.0
H227 H 0.05952 0.30872 0.6026 0.0
H228 H 0.0875 0.34792 0.64975 0.0
H229 H 0.24299 0.38675 0.67394 0.0
H230 H 0.28711 0.42993 0.64653 0.0
H231 H 0.19834 0.48117 0.58396 0.0
H232 H 0.15459 0.43628 0.61025 0.0
H233 H 0.15567 0.36997 0.74265 0.0
H234 H 0.10126 0.42362 0.64979 0.0
O235 O 0.18794 0.34172 0.68483 0.0
H236 H 0.11455 0.4008 0.78621 0.0
H237 H 0.05943 0.45438 0.69337 0.0
C238 C 0.14148 0.35026 0.62324 0.0
C239 C 0.16256 0.33803 0.59279 0.0
C240 C 0.14665 0.31502 0.56584 0.0
C241 C 0.10933 0.30408 0.56893 0.0
C242 C 0.08808 0.31739 0.5989 0.0
C243 C 0.10411 0.33989 0.626 0.0
C244 C 0.19558 0.40807 0.64383 0.0
C245 C 0.23292 0.40739 0.65451 0.0
C246 C 0.25814 0.43256 0.63911 0.0
C247 C 0.24642 0.45926 0.61296 0.0
C248 C 0.2085 0.46077 0.60361 0.0
C249 C 0.18336 0.43526 0.61879 0.0
C250 C 0.13152 0.39448 0.69296 0.0
C251 C 0.13449 0.38799 0.73155 0.0
C252 C 0.11066 0.40541 0.75648 0.0
C253 C 0.08346 0.42988 0.74329 0.0
C254 C 0.08018 0.43584 0.70445 0.0
C255 C 0.10411 0.41835 0.67951 0.0
Zn256 Zn 0.9798 0.07527 0.56244 0.0
Zn257 Zn 0.05209 0.97602 0.48958 0.0
Zn258 Zn 0.01106 0.02706 0.52431 0.0
C259 C 0.08219 0.0454 0.47094 0.0
C260 C 0.97896 0.97388 0.46022 0.0
O261 O 0.01419 0.01326 0.58561 0.0
O262 O 0.99669 0.06406 0.61386 0.0
C263 C 0.02619 0.11571 0.5199 0.0
O264 O 0.05434 0.05602 0.49071 0.0
O265 O 0.08888 0.01149 0.46751 0.0
O266 O 0.01044 0.95907 0.45781 0.0
O267 O 0.97305 0.99972 0.48406 0.0
O268 O 0.99754 0.1212 0.5392 0.0
O269 O 0.0363 0.08248 0.51284 0.0
O270 O 0.9513 0.02246 0.50862 0.0
O271 O 0.9289 0.05983 0.55126 0.0
C272 C 0.92336 0.03717 0.52526 0.0
O273 O 0.03661 0.98883 0.56524 0.0
O274 O 0.0659 0.94557 0.53373 0.0
C275 C 0.00843 0.03151 0.61593 0.0
C276 C 0.05595 0.95915 0.56451 0.0
Zn277 Zn 0.4674 0.04822 0.98766 0.0
Zn278 Zn 0.55952 0.97225 0.07174 0.0
Zn279 Zn 0.5151 0.00914 0.03029 0.0
C280 C 0.60478 0.01507 0.02733 0.0
C281 C 0.51999 0.91992 0.03396 0.0
O282 O 0.48185 0.04581 0.0668 0.0
O283 O 0.44849 0.08045 0.02839 0.0
C284 C 0.53992 0.06196 0.96108 0.0
O285 O 0.57301 0.02136 0.01208 0.0
O286 O 0.60665 0.99656 0.05729 0.0
O287 O 0.54965 0.92239 0.05252 0.0
O288 O 0.50246 0.9493 0.02423 0.0
O289 O 0.50634 0.06764 0.95289 0.0
O290 O 0.5485 0.04185 0.98964 0.0
O291 O 0.47965 0.97013 0.99979 0.0
O292 O 0.43759 0.00462 0.97138 0.0
C293 C 0.45066 0.97325 0.97896 0.0
O294 O 0.50546 0.02485 0.08933 0.0
O295 O 0.53773 0.9835 0.12095 0.0
C296 C 0.4584 0.07195 0.06123 0.0
C297 C 0.51539 0.01004 0.12063 0.0
Zn298 Zn 0.57194 0.56538 0.55004 0.0
Zn299 Zn 0.47857 0.48347 0.47315 0.0
Zn300 Zn 0.52308 0.52438 0.51143 0.0
C301 C 0.52708 0.43563 0.50784 0.0
C302 C 0.51281 0.5272 0.42067 0.0
O303 O 0.48973 0.55794 0.54894 0.0
O304 O 0.53171 0.59629 0.57221 0.0
C305 C 0.58476 0.49293 0.57107 0.0
O306 O 0.54092 0.4665 0.51885 0.0
O307 O 0.49779 0.43519 0.48853 0.0
O308 O 0.49095 0.50007 0.42231 0.0
O309 O 0.52707 0.54059 0.45085 0.0
O310 O 0.59464 0.5251 0.57991 0.0
O311 O 0.56027 0.48796 0.54517 0.0
O312 O 0.55302 0.56165 0.47178 0.0
O313 O 0.59902 0.58488 0.50555 0.0
C314 C 0.58275 0.58144 0.47445 0.0
O315 O 0.4656 0.53144 0.5334 0.0
O316 O 0.43099 0.49896 0.49453 0.0
C317 C 0.49832 0.58601 0.56895 0.0
C318 C 0.43356 0.51943 0.52278 0.0
Zn319 Zn 0.04868 0.58325 0.97083 0.0
Zn320 Zn 0.97375 0.49785 0.05942 0.0
Zn321 Zn 0.01355 0.54046 0.01662 0.0
C322 C 0.04735 0.48249 0.07667 0.0
C323 C 0.95455 0.47824 0.9879 0.0
O324 O 0.99216 0.59861 0.0215 0.0
O325 O 0.0228 0.62962 0.97762 0.0
C326 C 0.10105 0.55571 0.02165 0.0
O327 O 0.05288 0.51078 0.0552 0.0
O328 O 0.01498 0.46991 0.08125 0.0
O329 O 0.94381 0.47231 0.02104 0.0
O330 O 0.98099 0.50149 0.98132 0.0
O331 O 0.09729 0.57896 0.99553 0.0
O332 O 0.07296 0.53663 0.03318 0.0
O333 O 0.00778 0.51844 0.95872 0.0
O334 O 0.04084 0.55675 0.92367 0.0
C335 C 0.02123 0.52802 0.92658 0.0
O336 O 0.97603 0.57634 0.04931 0.0
O337 O 0.95179 0.53714 0.09042 0.0
C338 C 0.99883 0.62877 0.00323 0.0
C339 C 0.95592 0.56968 0.07849 0.0
H340 H 0.20295 0.13511 0.38012 0.0
H341 H 0.1091 0.2051 0.35868 0.0
H342 H 0.07031 0.1663 0.39923 0.0
H343 H 0.06229 0.11039 0.43826 0.0
H344 H 0.15603 0.03983 0.45802 0.0
H345 H 0.19561 0.0809 0.42092 0.0
C346 C 0.17412 0.14211 0.38466 0.0
C347 C 0.15895 0.17289 0.36625 0.0
C348 C 0.15189 0.11945 0.40767 0.0
C349 C 0.12137 0.18129 0.37209 0.0
C350 C 0.0992 0.15919 0.39541 0.0
C351 C 0.09153 0.10444 0.43496 0.0
C352 C 0.1063 0.07232 0.45114 0.0
C353 C 0.11404 0.12793 0.413 0.0
C354 C 0.14403 0.06443 0.44589 0.0
C355 C 0.16668 0.08789 0.42466 0.0
H356 H 0.40996 0.84129 0.87444 0.0
H357 H 0.30195 0.89082 0.88351 0.0
H358 H 0.32523 0.93261 0.93132 0.0
H359 H 0.3783 0.96103 0.96342 0.0
H360 H 0.48695 0.91366 0.95207 0.0
H361 H 0.46151 0.86497 0.91262 0.0
C362 C 0.39142 0.86086 0.88736 0.0
C363 C 0.35442 0.86324 0.87512 0.0
C364 C 0.40524 0.88546 0.91415 0.0
C365 C 0.3305 0.88827 0.89253 0.0
C366 C 0.34389 0.91247 0.9196 0.0
C367 C 0.3962 0.93962 0.95279 0.0
C368 C 0.43435 0.94077 0.96062 0.0
C369 C 0.3815 0.91223 0.92952 0.0
C370 C 0.45738 0.91298 0.94681 0.0
C371 C 0.4429 0.88535 0.92399 0.0
H372 H 0.62837 0.35432 0.66969 0.0
H373 H 0.73201 0.41407 0.67359 0.0
H374 H 0.70664 0.4617 0.63267 0.0
H375 H 0.6546 0.48756 0.59742 0.0
H376 H 0.55071 0.42861 0.59256 0.0
H377 H 0.57656 0.37928 0.63163 0.0
C378 C 0.64529 0.37781 0.66152 0.0
C379 C 0.68201 0.38069 0.67469 0.0
C380 C 0.63055 0.4051 0.63764 0.0
C381 C 0.70379 0.41106 0.6636 0.0
C382 C 0.68927 0.43838 0.6403 0.0
C383 C 0.63771 0.46377 0.60474 0.0
C384 C 0.60095 0.46152 0.59187 0.0
C385 C 0.65267 0.4358 0.62735 0.0
C386 C 0.57932 0.43062 0.60157 0.0
C387 C 0.594 0.40259 0.62419 0.0
H388 H 0.88565 0.67528 0.19677 0.0
H389 H 0.84031 0.72558 0.09713 0.0
H390 H 0.87434 0.68209 0.0582 0.0
H391 H 0.9141 0.62676 0.05308 0.0
H392 H 0.95912 0.57786 0.15319 0.0
H393 H 0.92814 0.62375 0.19148 0.0
C394 C 0.88376 0.67734 0.16652 0.0
C395 C 0.86046 0.70373 0.14996 0.0
C396 C 0.90326 0.6523 0.14442 0.0
C397 C 0.85774 0.70529 0.11066 0.0
C398 C 0.87731 0.68052 0.08837 0.0
C399 C 0.91805 0.62718 0.08308 0.0
C400 C 0.93938 0.59966 0.10027 0.0
C401 C 0.89983 0.65359 0.10497 0.0
C402 C 0.94288 0.59899 0.13942 0.0
C403 C 0.92521 0.62518 0.1613 0.0
H404 H 0.35656 0.13043 0.1901 0.0
H405 H 0.38998 0.23449 0.14077 0.0
H406 H 0.43033 0.20273 0.09755 0.0
H407 H 0.45269 0.1452 0.07011 0.0
H408 H 0.4248 0.04163 0.1225 0.0
H409 H 0.38692 0.07351 0.16907 0.0
C410 C 0.37317 0.14642 0.17057 0.0
C411 C 0.36883 0.18498 0.16817 0.0
C412 C 0.39756 0.12803 0.1463 0.0
C413 C 0.39105 0.20478 0.14243 0.0
C414 C 0.41465 0.18666 0.11782 0.0
C415 C 0.43875 0.12977 0.09215 0.0
C416 C 0.44116 0.09126 0.09289 0.0
C417 C 0.41741 0.14828 0.11887 0.0
C418 C 0.42333 0.07138 0.1216 0.0
C419 C 0.40151 0.08959 0.14801 0.0
H420 H 0.15775 0.91201 0.69596 0.0
H421 H 0.11674 0.80433 0.6651 0.0
H422 H 0.07316 0.83266 0.62172 0.0
H423 H 0.05388 0.88759 0.58565 0.0
H424 H 0.09124 0.99482 0.62047 0.0
H425 H 0.12812 0.96692 0.67057 0.0
C426 C 0.13852 0.89441 0.68106 0.0
C427 C 0.14189 0.85577 0.68303 0.0
C428 C 0.11292 0.91086 0.65665 0.0
C429 C 0.11624 0.83404 0.66307 0.0
C430 C 0.09101 0.85022 0.63835 0.0
C431 C 0.06942 0.90475 0.60489 0.0
C432 C 0.07045 0.943 0.59934 0.0
C433 C 0.09037 0.88852 0.63366 0.0
C434 C 0.09021 0.96524 0.62441 0.0
C435 C 0.11144 0.94929 0.65283 0.0
H436 H 0.85875 0.41424 0.85582 0.0
H437 H 0.872 0.31529 0.92243 0.0
H438 H 0.91072 0.34854 0.96634 0.0
H439 H 0.93816 0.40622 0.98816 0.0
H440 H 0.93092 0.50396 0.91973 0.0
H441 H 0.89369 0.47029 0.87343 0.0
C442 C 0.87058 0.39961 0.87947 0.0
C443 C 0.86114 0.36233 0.88611 0.0
C444 C 0.89413 0.41866 0.90427 0.0
C445 C 0.87711 0.34423 0.91715 0.0
C446 C 0.89977 0.36313 0.9422 0.0
C447 C 0.92869 0.42 0.96288 0.0
C448 C 0.93671 0.45748 0.95741 0.0
C449 C 0.90784 0.40044 0.93645 0.0
C450 C 0.92492 0.47505 0.92441 0.0
C451 C 0.90352 0.45585 0.89813 0.0
H452 H 0.62653 0.6877 0.34109 0.0
H453 H 0.73577 0.65108 0.37324 0.0
H454 H 0.70869 0.6089 0.41906 0.0
H455 H 0.65437 0.58523 0.4532 0.0
H456 H 0.5458 0.62513 0.42533 0.0
H457 H 0.57185 0.66277 0.37441 0.0
C458 C 0.64442 0.67052 0.35813 0.0
C459 C 0.6832 0.67267 0.35356 0.0
C460 C 0.62868 0.64665 0.38505 0.0
C461 C 0.70586 0.64973 0.37561 0.0
C462 C 0.69042 0.62574 0.40211 0.0
C463 C 0.63647 0.60182 0.43553 0.0
C464 C 0.59803 0.60142 0.44179 0.0
C465 C 0.65195 0.62433 0.40742 0.0
C466 C 0.57511 0.62349 0.41941 0.0
C467 C 0.59018 0.64558 0.39093 0.0
H468 H 0.17975 0.41518 0.17101 0.0
H469 H 0.11652 0.31629 0.14872 0.0
H470 H 0.07341 0.35129 0.11063 0.0
H471 H 0.05178 0.40964 0.08554 0.0
H472 H 0.11003 0.51016 0.11107 0.0
H473 H 0.15714 0.47495 0.14572 0.0
C474 C 0.15644 0.40131 0.158 0.0
C475 C 0.15182 0.36288 0.16263 0.0
C476 C 0.13095 0.42188 0.13653 0.0
C477 C 0.12152 0.34551 0.14514 0.0
C478 C 0.09654 0.36558 0.12351 0.0
C479 C 0.07493 0.42389 0.09852 0.0
C480 C 0.07795 0.46234 0.09513 0.0
C481 C 0.10086 0.40368 0.11921 0.0
C482 C 0.10781 0.48045 0.11235 0.0
C483 C 0.13441 0.46033 0.13253 0.0
H484 H 0.63282 0.14338 0.83659 0.0
H485 H 0.6819 0.19413 0.93356 0.0
H486 H 0.6461 0.1531 0.97476 0.0
H487 H 0.59751 0.10527 0.98319 0.0
H488 H 0.54508 0.05876 0.88586 0.0
H489 H 0.58601 0.09472 0.84485 0.0
C490 C 0.63592 0.14518 0.86674 0.0
C491 C 0.65983 0.17183 0.882 0.0
C492 C 0.61475 0.12201 0.8902 0.0
C493 C 0.6633 0.17413 0.92115 0.0
C494 C 0.643 0.15054 0.94471 0.0
C495 C 0.5957 0.10261 0.95301 0.0
C496 C 0.56867 0.07931 0.9374 0.0
C497 C 0.61824 0.12468 0.92957 0.0
C498 C 0.5659 0.07648 0.89833 0.0
C499 C 0.58911 0.09716 0.87492 0.0
H500 H 0.85096 0.92796 0.3485 0.0
H501 H 0.88434 0.82049 0.38791 0.0
H502 H 0.92982 0.84847 0.42927 0.0
H503 H 0.96126 0.9029 0.45353 0.0
H504 H 0.93105 0.01069 0.4136 0.0
H505 H 0.88335 0.98329 0.37292 0.0
C506 C 0.86831 0.91071 0.36602 0.0
C507 C 0.86387 0.87212 0.36526 0.0
C508 C 0.89497 0.92703 0.38961 0.0
C509 C 0.88648 0.85022 0.3884 0.0
C510 C 0.91277 0.86617 0.41191 0.0
C511 C 0.94409 0.92035 0.43596 0.0
C512 C 0.94904 0.95864 0.43681 0.0
C513 C 0.91728 0.90443 0.41268 0.0
C514 C 0.92718 0.98111 0.41364 0.0
C515 C 0.90007 0.96543 0.39042 0.0
H516 H 0.39096 0.71275 0.61363 0.0
H517 H 0.36229 0.63608 0.70203 0.0
H518 H 0.40531 0.59109 0.67608 0.0
H519 H 0.45384 0.57511 0.62974 0.0
H520 H 0.47954 0.65154 0.5406 0.0
H521 H 0.4346 0.69521 0.56526 0.0
C522 C 0.39328 0.68592 0.62686 0.0
C523 C 0.37323 0.67789 0.65974 0.0
C524 C 0.41772 0.66024 0.61171 0.0
C525 C 0.37765 0.64323 0.67694 0.0
C526 C 0.40214 0.61742 0.66204 0.0
C527 C 0.44869 0.6009 0.61532 0.0
C528 C 0.46921 0.61011 0.58317 0.0
C529 C 0.42267 0.62581 0.62965 0.0
C530 C 0.46365 0.64407 0.56531 0.0
C531 C 0.43807 0.66895 0.57938 0.0
H532 H 0.97944 0.94608 0.76642 0.0
H533 H 0.01083 0.05197 0.81091 0.0
H534 H 0.02752 0.0735 0.74846 0.0
H535 H 0.02639 0.06488 0.68065 0.0
H536 H 0.99591 0.95945 0.63516 0.0
H537 H 0.98717 0.93466 0.69858 0.0
C538 C 0.99066 0.97359 0.76259 0.0
C539 C 0.99281 0.99768 0.79332 0.0
C540 C 0.00048 0.98589 0.72639 0.0
C541 C 0.00761 0.03321 0.7877 0.0
C542 C 0.01746 0.04552 0.75198 0.0
C543 C 0.01853 0.03626 0.68467 0.0
C544 C 0.01152 0.01411 0.65336 0.0
C545 C 0.01288 0.02252 0.72103 0.0
C546 C 0.00169 0.977 0.65887 0.0
C547 C 0.99629 0.96295 0.69513 0.0
H548 H 0.51828 0.04606 0.28913 0.0
H549 H 0.54016 0.15435 0.2437 0.0
H550 H 0.52064 0.13402 0.18185 0.0
H551 H 0.51222 0.08212 0.13873 0.0
H552 H 0.49667 0.97275 0.18364 0.0
H553 H 0.49855 0.99664 0.24733 0.0
C554 C 0.51805 0.06537 0.26581 0.0
C555 C 0.5315 0.10134 0.27087 0.0
C556 C 0.50849 0.05306 0.22996 0.0
C557 C 0.53008 0.1264 0.24066 0.0
C558 C 0.5193 0.1147 0.20509 0.0
C559 C 0.50777 0.06385 0.16249 0.0
C560 C 0.5047 0.02581 0.1568 0.0
C561 C 0.51057 0.07759 0.19905 0.0
C562 C 0.49936 0.00217 0.18763 0.0
C563 C 0.50066 0.01578 0.22399 0.0
H564 H 0.48789 0.6081 0.26819 0.0
H565 H 0.52383 0.50261 0.22743 0.0
H566 H 0.54117 0.48412 0.29075 0.0
H567 H 0.53783 0.49444 0.35859 0.0
H568 H 0.49498 0.59659 0.39984 0.0
H569 H 0.48931 0.62025 0.33579 0.0
C570 C 0.49967 0.58111 0.27312 0.0
C571 C 0.50408 0.55666 0.24303 0.0
C572 C 0.50862 0.5702 0.30983 0.0
C573 C 0.52024 0.52213 0.24988 0.0
C574 C 0.52996 0.51139 0.28619 0.0
C575 C 0.52847 0.52233 0.35339 0.0
C576 C 0.51839 0.54448 0.38374 0.0
C577 C 0.52323 0.53475 0.31647 0.0
C578 C 0.50496 0.58001 0.37694 0.0
C579 C 0.50085 0.59312 0.34028 0.0
H580 H 0.05104 0.40619 0.80846 0.0
H581 H 0.06689 0.50285 0.73913 0.0
H582 H 0.04129 0.54122 0.78821 0.0
H583 H 0.02474 0.54857 0.85402 0.0
H584 H 0.01309 0.45304 0.92545 0.0
H585 H 0.02579 0.41297 0.87229 0.0
C586 C 0.04845 0.43561 0.80397 0.0
C587 C 0.06144 0.45165 0.77035 0.0
C588 C 0.0346 0.45776 0.8328 0.0
C589 C 0.05707 0.48968 0.7646 0.0
C590 C 0.0427 0.51175 0.79281 0.0
C591 C 0.02414 0.51892 0.85776 0.0
C592 C 0.01841 0.50379 0.89365 0.0
C593 C 0.03285 0.49626 0.82749 0.0
C594 C 0.01723 0.46537 0.89807 0.0
C595 C 0.02498 0.44247 0.86775 0.0
H596 H 0.75053 0.99695 0.93734 0.0
H597 H 0.79659 0.0321 0.04308 0.0
H598 H 0.73488 0.04622 0.0658 0.0
H599 H 0.66756 0.0401 0.05908 0.0
H600 H 0.62079 0.00841 0.95304 0.0
H601 H 0.68317 0.00331 0.92635 0.0
C602 C 0.74735 0.00858 0.96499 0.0
C603 C 0.77836 0.01193 0.9889 0.0
C604 C 0.7116 0.01751 0.97781 0.0
C605 C 0.77327 0.02744 0.02456 0.0
C606 C 0.73795 0.036 0.03754 0.0
C607 C 0.67107 0.03323 0.02977 0.0
C608 C 0.63987 0.02419 0.00814 0.0
C609 C 0.70686 0.02981 0.01494 0.0
C610 C 0.64452 0.01559 0.97017 0.0
C611 C 0.6802 0.01219 0.95509 0.0
H612 H 0.77255 0.01787 0.43836 0.0
H613 H 0.74236 0.10499 0.51386 0.0
H614 H 0.80096 0.09857 0.54666 0.0
H615 H 0.86356 0.07529 0.54785 0.0
H616 H 0.89394 0.98427 0.4785 0.0
H617 H 0.83261 0.98536 0.44852 0.0
C618 C 0.77861 0.03482 0.4625 0.0
C619 C 0.75329 0.06207 0.47346 0.0
C620 C 0.81269 0.03115 0.48132 0.0
C621 C 0.76118 0.08361 0.50503 0.0
C622 C 0.79489 0.08027 0.52359 0.0
C623 C 0.85692 0.05531 0.52641 0.0
C624 C 0.88448 0.03166 0.51277 0.0
C625 C 0.82131 0.05519 0.51102 0.0
C626 C 0.87443 0.00497 0.48648 0.0
C627 C 0.83904 0.0051 0.47021 0.0
H628 H 0.26367 0.52295 0.07756 0.0
H629 H 0.26867 0.64161 0.06844 0.0
H630 H 0.20311 0.64339 0.05394 0.0
H631 H 0.14543 0.61185 0.03906 0.0
H632 H 0.14001 0.49351 0.04072 0.0
H633 H 0.20451 0.49089 0.06302 0.0
C634 C 0.2505 0.5492 0.07231 0.0
C635 C 0.27144 0.58211 0.07447 0.0
C636 C 0.21263 0.55009 0.06265 0.0
C637 C 0.25348 0.61584 0.06799 0.0
C638 C 0.21589 0.61695 0.05925 0.0
C639 C 0.15829 0.58547 0.04471 0.0
C640 C 0.13797 0.55292 0.03912 0.0
C641 C 0.19541 0.58432 0.05598 0.0
C642 C 0.1549 0.51891 0.04602 0.0
C643 C 0.19185 0.51748 0.05825 0.0
H644 H 0.30998 0.49054 0.64083 0.0
H645 H 0.24609 0.47969 0.53909 0.0
H646 H 0.29678 0.50648 0.50315 0.0
H647 H 0.36277 0.52147 0.49879 0.0
H648 H 0.42953 0.524 0.59873 0.0
H649 H 0.37441 0.51311 0.63718 0.0
C650 C 0.307 0.49433 0.61084 0.0
C651 C 0.27434 0.48239 0.59276 0.0
C652 C 0.337 0.50834 0.58992 0.0
C653 C 0.27065 0.48863 0.55399 0.0
C654 C 0.29986 0.50368 0.53324 0.0
C655 C 0.36502 0.5207 0.52909 0.0
C656 C 0.40007 0.52395 0.54601 0.0
C657 C 0.33366 0.51201 0.55066 0.0
C658 C 0.40272 0.52281 0.5852 0.0
C659 C 0.37127 0.51571 0.6071 0.0
H660 H 0.9125 0.77614 0.9851 0.0
H661 H 0.01822 0.81782 0.02355 0.0
H662 H 0.03832 0.7557 0.03794 0.0
H663 H 0.02953 0.68924 0.03191 0.0
H664 H 0.9272 0.64643 0.98768 0.0
H665 H 0.9019 0.70887 0.98371 0.0
C666 C 0.93988 0.77166 0.99673 0.0
C667 C 0.96373 0.8019 0.00306 0.0
C668 C 0.95184 0.73549 0.0041 0.0
C669 C 0.99892 0.7954 0.01878 0.0
C670 C 0.01066 0.75973 0.02682 0.0
C671 C 0.00121 0.69363 0.02269 0.0
C672 C 0.97975 0.66345 0.01122 0.0
C673 C 0.98776 0.72958 0.01876 0.0
C674 C 0.94364 0.66929 0.99793 0.0
C675 C 0.92948 0.70501 0.99507 0.0
H676 H 0.43497 0.76885 0.04151 0.0
H677 H 0.54721 0.72921 0.0333 0.0
H678 H 0.56974 0.79175 0.02239 0.0
H679 H 0.55854 0.85797 0.02223 0.0
H680 H 0.44706 0.89867 0.03253 0.0
H681 H 0.42301 0.83548 0.03418 0.0
C682 C 0.46424 0.77386 0.03656 0.0
C683 C 0.48947 0.7445 0.0389 0.0
C684 C 0.4771 0.81007 0.03061 0.0
C685 C 0.52734 0.75143 0.03252 0.0
C686 C 0.54023 0.78716 0.0261 0.0
C687 C 0.5289 0.85296 0.02415 0.0
C688 C 0.50458 0.88282 0.0272 0.0
C689 C 0.51552 0.81673 0.02622 0.0
C690 C 0.46627 0.87609 0.02964 0.0
C691 C 0.45258 0.83996 0.03101 0.0
H692 H 0.1404 0.23932 0.5484 0.0
H693 H 0.04181 0.30461 0.53456 0.0
H694 H 0.00893 0.25166 0.50871 0.0
H695 H 0.00472 0.18468 0.50323 0.0
H696 H 0.10183 0.11841 0.52129 0.0
H697 H 0.13928 0.17391 0.53058 0.0
C698 C 0.11215 0.24228 0.53847 0.0
C699 C 0.09326 0.27558 0.54409 0.0
C700 C 0.09311 0.21139 0.52459 0.0
C701 C 0.05663 0.27901 0.53119 0.0
C702 C 0.03784 0.24875 0.51644 0.0
C703 C 0.03436 0.18254 0.50794 0.0
C704 C 0.05046 0.14764 0.51198 0.0
C705 C 0.0552 0.2144 0.515 0.0
C706 C 0.08886 0.14502 0.51784 0.0
C707 C 0.11016 0.17677 0.52371 0.0
H708 H 0.63206 0.30011 0.4971 0.0
H709 H 0.52593 0.24731 0.47814 0.0
H710 H 0.49432 0.30226 0.49822 0.0
H711 H 0.49624 0.36816 0.50933 0.0
H712 H 0.6015 0.42432 0.51841 0.0
H713 H 0.63385 0.36553 0.5142 0.0
C714 C 0.60202 0.30049 0.4974 0.0
C715 C 0.58167 0.26949 0.48531 0.0
C716 C 0.58373 0.33312 0.50686 0.0
C717 C 0.54268 0.2703 0.48741 0.0
C718 C 0.52438 0.30204 0.49849 0.0
C719 C 0.52627 0.36747 0.51106 0.0
C720 C 0.54647 0.40048 0.514 0.0
C721 C 0.54459 0.33401 0.50651 0.0
C722 C 0.5853 0.39922 0.51654 0.0
C723 C 0.6038 0.36564 0.51368 0.0
loop_
_geom_bond_atom_site_label_1
_geom_bond_atom_site_label_2
_geom_bond_distance
_geom_bond_site_symmetry_2
_ccdc_geom_bond_type
P0 O11 1.490 . S
P0 C14 1.812 . S
P0 C20 1.803 . S
P0 C26 1.819 . S
H1 C15 0.941 . S
H2 C16 0.939 . S
H3 C18 0.940 . S
H4 C19 0.940 . S
H5 C21 0.939 . S
H6 C22 0.942 . S
H7 C24 0.940 . S
H8 C25 0.939 . S
H9 C27 0.941 . S
H10 C31 0.939 . S
O11 P0 1.490 . S
H12 C28 0.939 . S
H13 C30 0.940 . S
C14 P0 1.812 . S
C14 C15 1.389 . S
C14 C19 1.391 . S
C15 H1 0.941 . S
C15 C14 1.389 . S
C15 C16 1.397 . S
C16 H2 0.939 . S
C16 C15 1.397 . S
C16 C17 1.378 . S
C17 C16 1.378 . S
C17 C18 1.378 . S
C18 H3 0.940 . S
C18 C17 1.378 . S
C18 C19 1.396 . S
C19 H4 0.940 . S
C19 C14 1.391 . S
C19 C18 1.396 . S
C20 P0 1.803 . S
C20 C21 1.378 . S
C20 C25 1.400 . S
C21 H5 0.939 . S
C21 C20 1.378 . S
C21 C22 1.361 . S
C22 H6 0.942 . S
C22 C21 1.361 . S
C22 C23 1.369 . S
C23 C22 1.369 . S
C23 C24 1.404 . S
C24 H7 0.940 . S
C24 C23 1.404 . S
C24 C25 1.389 . S
C25 H8 0.939 . S
C25 C20 1.400 . S
C25 C24 1.389 . S
C26 P0 1.819 . S
C26 C27 1.391 . S
C26 C31 1.391 . S
C27 H9 0.941 . S
C27 C26 1.391 . S
C27 C28 1.396 . S
C28 H12 0.939 . S
C28 C27 1.396 . S
C28 C29 1.397 . S
C29 C28 1.397 . S
C29 C30 1.385 . S
C30 H13 0.940 . S
C30 C29 1.385 . S
C30 C31 1.388 . S
C31 H10 0.939 . S
C31 C26 1.391 . S
C31 C30 1.388 . S
P32 O43 1.490 . S
P32 C46 1.812 . S
P32 C52 1.803 . S
P32 C58 1.819 . S
H33 C47 0.941 . S
H34 C48 0.939 . S
H35 C50 0.940 . S
H36 C51 0.940 . S
H37 C53 0.939 . S
H38 C54 0.942 . S
H39 C56 0.940 . S
H40 C57 0.939 . S
H41 C59 0.941 . S
H42 C63 0.939 . S
O43 P32 1.490 . S
H44 C60 0.939 . S
H45 C62 0.940 . S
C46 P32 1.812 . S
C46 C47 1.389 . S
C46 C51 1.391 . S
C47 H33 0.941 . S
C47 C46 1.389 . S
C47 C48 1.397 . S
C48 H34 0.939 . S
C48 C47 1.397 . S
C48 C49 1.378 . S
C49 C48 1.378 . S
C49 C50 1.378 . S
C50 H35 0.940 . S
C50 C49 1.378 . S
C50 C51 1.396 . S
C51 H36 0.940 . S
C51 C46 1.391 . S
C51 C50 1.396 . S
C52 P32 1.803 . S
C52 C53 1.378 . S
C52 C57 1.400 . S
C53 H37 0.939 . S
C53 C52 1.378 . S
C53 C54 1.361 . S
C54 H38 0.942 . S
C54 C53 1.361 . S
C54 C55 1.369 . S
C55 C54 1.369 . S
C55 C56 1.404 . S
C56 H39 0.940 . S
C56 C55 1.404 . S
C56 C57 1.389 . S
C57 H40 0.939 . S
C57 C52 1.400 . S
C57 C56 1.389 . S
C58 P32 1.819 . S
C58 C59 1.391 . S
C58 C63 1.391 . S
C59 H41 0.941 . S
C59 C58 1.391 . S
C59 C60 1.396 . S
C60 H44 0.939 . S
C60 C59 1.396 . S
C60 C61 1.397 . S
C61 C60 1.397 . S
C61 C62 1.385 . S
C62 H45 0.940 . S
C62 C61 1.385 . S
C62 C63 1.388 . S
C63 H42 0.939 . S
C63 C58 1.391 . S
C63 C62 1.388 . S
P64 O75 1.490 . S
P64 C78 1.812 . S
P64 C84 1.803 . S
P64 C90 1.819 . S
H65 C79 0.941 . S
H66 C80 0.939 . S
H67 C82 0.940 . S
H68 C83 0.940 . S
H69 C85 0.939 . S
H70 C86 0.942 . S
H71 C88 0.940 . S
H72 C89 0.939 . S
H73 C91 0.941 . S
H74 C95 0.939 . S
O75 P64 1.490 . S
H76 C92 0.939 . S
H77 C94 0.940 . S
C78 P64 1.812 . S
C78 C79 1.389 . S
C78 C83 1.391 . S
C79 H65 0.941 . S
C79 C78 1.389 . S
C79 C80 1.397 . S
C80 H66 0.939 . S
C80 C79 1.397 . S
C80 C81 1.378 . S
C81 C80 1.378 . S
C81 C82 1.378 . S
C82 H67 0.940 . S
C82 C81 1.378 . S
C82 C83 1.396 . S
C83 H68 0.940 . S
C83 C78 1.391 . S
C83 C82 1.396 . S
C84 P64 1.803 . S
C84 C85 1.378 . S
C84 C89 1.400 . S
C85 H69 0.939 . S
C85 C84 1.378 . S
C85 C86 1.361 . S
C86 H70 0.942 . S
C86 C85 1.361 . S
C86 C87 1.369 . S
C87 C86 1.369 . S
C87 C88 1.404 . S
C88 H71 0.940 . S
C88 C87 1.404 . S
C88 C89 1.389 . S
C89 H72 0.939 . S
C89 C84 1.400 . S
C89 C88 1.389 . S
C90 P64 1.819 . S
C90 C91 1.391 . S
C90 C95 1.391 . S
C91 H73 0.941 . S
C91 C90 1.391 . S
C91 C92 1.396 . S
C92 H76 0.939 . S
C92 C91 1.396 . S
C92 C93 1.397 . S
C93 C92 1.397 . S
C93 C94 1.385 . S
C94 H77 0.940 . S
C94 C93 1.385 . S
C94 C95 1.388 . S
C95 H74 0.939 . S
C95 C90 1.391 . S
C95 C94 1.388 . S
P96 O107 1.490 . S
P96 C110 1.812 . S
P96 C116 1.803 . S
P96 C122 1.819 . S
H97 C111 0.941 . S
H98 C112 0.939 . S
H99 C114 0.940 . S
H100 C115 0.940 . S
H101 C117 0.939 . S
H102 C118 0.942 . S
H103 C120 0.940 . S
H104 C121 0.939 . S
H105 C123 0.941 . S
H106 C127 0.939 . S
O107 P96 1.490 . S
H108 C124 0.939 . S
H109 C126 0.940 . S
C110 P96 1.812 . S
C110 C111 1.389 . S
C110 C115 1.391 . S
C111 H97 0.941 . S
C111 C110 1.389 . S
C111 C112 1.397 . S
C112 H98 0.939 . S
C112 C111 1.397 . S
C112 C113 1.378 . S
C113 C112 1.378 . S
C113 C114 1.378 . S
C114 H99 0.940 . S
C114 C113 1.378 . S
C114 C115 1.396 . S
C115 H100 0.940 . S
C115 C110 1.391 . S
C115 C114 1.396 . S
C116 P96 1.803 . S
C116 C117 1.378 . S
C116 C121 1.400 . S
C117 H101 0.939 . S
C117 C116 1.378 . S
C117 C118 1.361 . S
C118 H102 0.942 . S
C118 C117 1.361 . S
C118 C119 1.369 . S
C119 C118 1.369 . S
C119 C120 1.404 . S
C120 H103 0.940 . S
C120 C119 1.404 . S
C120 C121 1.389 . S
C121 H104 0.939 . S
C121 C116 1.400 . S
C121 C120 1.389 . S
C122 P96 1.819 . S
C122 C123 1.391 . S
C122 C127 1.391 . S
C123 H105 0.941 . S
C123 C122 1.391 . S
C123 C124 1.396 . S
C124 H108 0.939 . S
C124 C123 1.396 . S
C124 C125 1.397 . S
C125 C124 1.397 . S
C125 C126 1.385 . S
C126 H109 0.940 . S
C126 C125 1.385 . S
C126 C127 1.388 . S
C127 H106 0.939 . S
C127 C122 1.391 . S
C127 C126 1.388 . S
P128 O139 1.490 . S
P128 C142 1.812 . S
P128 C148 1.803 . S
P128 C154 1.819 . S
H129 C143 0.941 . S
H130 C144 0.939 . S
H131 C146 0.940 . S
H132 C147 0.940 . S
H133 C149 0.946 . S
H134 C150 0.942 1_554 S
H135 C152 0.940 . S
H136 C153 0.939 . S
H137 C155 0.941 . S
H138 C159 0.939 . S
O139 P128 1.490 . S
H140 C156 0.939 . S
H141 C158 0.940 . S
C142 P128 1.812 . S
C142 C143 1.389 1_556 S
C142 C147 1.391 . S
C143 H129 0.941 . S
C143 C142 1.389 1_554 S
C143 C144 1.397 . S
C144 H130 0.939 . S
C144 C143 1.397 . S
C144 C145 1.378 1_554 S
C145 C144 1.378 1_556 S
C145 C146 1.378 . S
C146 H131 0.940 . S
C146 C145 1.378 . S
C146 C147 1.396 . S
C147 H132 0.940 . S
C147 C142 1.391 . S
C147 C146 1.396 . S
C148 P128 1.803 . S
C148 C149 1.369 1_655 S
C148 C153 1.400 . S
C149 H133 0.946 . S
C149 C148 1.369 1_455 S
C149 C150 1.363 . S
C150 H134 0.942 1_556 S
C150 C149 1.363 . S
C150 C151 1.369 1_455 S
C151 C150 1.369 1_655 S
C151 C152 1.404 . S
C152 H135 0.940 . S
C152 C151 1.404 . S
C152 C153 1.389 . S
C153 H136 0.939 . S
C153 C148 1.400 . S
C153 C152 1.389 . S
C154 P128 1.819 . S
C154 C155 1.391 1_565 S
C154 C159 1.391 . S
C155 H137 0.941 . S
C155 C154 1.391 1_545 S
C155 C156 1.396 . S
C156 H140 0.939 . S
C156 C155 1.396 . S
C156 C157 1.397 1_545 S
C157 C156 1.397 1_565 S
C157 C158 1.385 . S
C158 H141 0.940 . S
C158 C157 1.385 . S
C158 C159 1.388 . S
C159 H138 0.939 . S
C159 C154 1.391 . S
C159 C158 1.388 . S
P160 O171 1.490 . S
P160 C174 1.812 . S
P160 C180 1.803 . S
P160 C186 1.819 . S
H161 C175 0.941 . S
H162 C176 0.939 . S
H163 C178 0.940 . S
H164 C179 0.940 . S
H165 C181 0.939 . S
H166 C182 0.942 . S
H167 C184 0.940 . S
H168 C185 0.939 . S
H169 C187 0.941 . S
H170 C191 0.939 . S
O171 P160 1.490 . S
H172 C188 0.939 . S
H173 C190 0.940 . S
C174 P160 1.812 . S
C174 C175 1.389 . S
C174 C179 1.391 . S
C175 H161 0.941 . S
C175 C174 1.389 . S
C175 C176 1.397 . S
C176 H162 0.939 . S
C176 C175 1.397 . S
C176 C177 1.378 . S
C177 C176 1.378 . S
C177 C178 1.378 . S
C178 H163 0.940 . S
C178 C177 1.378 . S
C178 C179 1.396 . S
C179 H164 0.940 . S
C179 C174 1.391 . S
C179 C178 1.396 . S
C180 P160 1.803 . S
C180 C181 1.378 . S
C180 C185 1.400 . S
C181 H165 0.939 . S
C181 C180 1.378 . S
C181 C182 1.361 . S
C182 H166 0.942 . S
C182 C181 1.361 . S
C182 C183 1.369 . S
C183 C182 1.369 . S
C183 C184 1.404 . S
C184 H167 0.940 . S
C184 C183 1.404 . S
C184 C185 1.389 . S
C185 H168 0.939 . S
C185 C180 1.400 . S
C185 C184 1.389 . S
C186 P160 1.819 . S
C186 C187 1.391 . S
C186 C191 1.391 . S
C187 H169 0.941 . S
C187 C186 1.391 . S
C187 C188 1.396 . S
C188 H172 0.939 . S
C188 C187 1.396 . S
C188 C189 1.397 . S
C189 C188 1.397 . S
C189 C190 1.385 . S
C190 H173 0.940 . S
C190 C189 1.385 . S
C190 C191 1.388 . S
C191 H170 0.939 . S
C191 C186 1.391 . S
C191 C190 1.388 . S
P192 O203 1.490 . S
P192 C206 1.812 . S
P192 C212 1.803 . S
P192 C218 1.819 . S
H193 C207 0.941 . S
H194 C208 0.939 1_556 S
H195 C210 0.940 . S
H196 C211 0.940 . S
H197 C213 0.939 . S
H198 C214 0.942 . S
H199 C216 0.940 . S
H200 C217 0.939 . S
H201 C219 0.941 . S
H202 C223 0.939 . S
O203 P192 1.490 . S
H204 C220 0.939 . S
H205 C222 0.940 . S
C206 P192 1.812 . S
C206 C207 1.389 . S
C206 C211 1.391 . S
C207 H193 0.941 . S
C207 C206 1.389 . S
C207 C208 1.397 . S
C208 H194 0.939 1_554 S
C208 C207 1.397 . S
C208 C209 1.378 . S
C209 C208 1.378 . S
C209 C210 1.378 . S
C210 H195 0.940 . S
C210 C209 1.378 . S
C210 C211 1.396 . S
C211 H196 0.940 . S
C211 C206 1.391 . S
C211 C210 1.396 . S
C212 P192 1.803 . S
C212 C213 1.378 . S
C212 C217 1.400 . S
C213 H197 0.939 . S
C213 C212 1.378 . S
C213 C214 1.361 . S
C214 H198 0.942 . S
C214 C213 1.361 . S
C214 C215 1.369 . S
C215 C214 1.369 . S
C215 C216 1.404 . S
C216 H199 0.940 . S
C216 C215 1.404 . S
C216 C217 1.389 . S
C217 H200 0.939 . S
C217 C212 1.400 . S
C217 C216 1.389 . S
C218 P192 1.819 . S
C218 C219 1.391 . S
C218 C223 1.391 . S
C219 H201 0.941 . S
C219 C218 1.391 . S
C219 C220 1.396 . S
C220 H204 0.939 . S
C220 C219 1.396 . S
C220 C221 1.397 . S
C221 C220 1.397 . S
C221 C222 1.385 . S
C222 H205 0.940 . S
C222 C221 1.385 . S
C222 C223 1.388 . S
C223 H202 0.939 . S
C223 C218 1.391 . S
C223 C222 1.388 . S
P224 O235 1.490 . S
P224 C238 1.812 . S
P224 C244 1.803 . S
P224 C250 1.819 . S
H225 C239 0.941 . S
H226 C240 0.939 . S
H227 C242 0.940 . S
H228 C243 0.940 . S
H229 C245 0.939 . S
H230 C246 0.942 . S
H231 C248 0.940 . S
H232 C249 0.939 . S
H233 C251 0.941 . S
H234 C255 0.939 . S
O235 P224 1.490 . S
H236 C252 0.939 . S
H237 C254 0.940 . S
C238 P224 1.812 . S
C238 C239 1.389 . S
C238 C243 1.391 . S
C239 H225 0.941 . S
C239 C238 1.389 . S
C239 C240 1.397 . S
C240 H226 0.939 . S
C240 C239 1.397 . S
C240 C241 1.378 . S
C241 C240 1.378 . S
C241 C242 1.378 . S
C242 H227 0.940 . S
C242 C241 1.378 . S
C242 C243 1.396 . S
C243 H228 0.940 . S
C243 C238 1.391 . S
C243 C242 1.396 . S
C244 P224 1.803 . S
C244 C245 1.378 . S
C244 C249 1.400 . S
C245 H229 0.939 . S
C245 C244 1.378 . S
C245 C246 1.361 . S
C246 H230 0.942 . S
C246 C245 1.361 . S
C246 C247 1.369 . S
C247 C246 1.369 . S
C247 C248 1.404 . S
C248 H231 0.940 . S
C248 C247 1.404 . S
C248 C249 1.389 . S
C249 H232 0.939 . S
C249 C244 1.400 . S
C249 C248 1.389 . S
C250 P224 1.819 . S
C250 C251 1.391 . S
C250 C255 1.391 . S
C251 H233 0.941 . S
C251 C250 1.391 . S
C251 C252 1.396 . S
C252 H236 0.939 . S
C252 C251 1.396 . S
C252 C253 1.397 . S
C253 C252 1.397 . S
C253 C254 1.385 . S
C254 H237 0.940 . S
C254 C253 1.385 . S
C254 C255 1.388 . S
C255 H234 0.939 . S
C255 C250 1.391 . S
C255 C254 1.388 . S
Zn256 O262 1.920 . S
Zn256 O268 1.898 . S
Zn256 O271 1.905 . S
Zn257 O265 1.905 1_565 S
Zn257 O266 1.898 . S
Zn257 O274 1.920 . S
Zn258 O261 2.080 1_455 S
Zn258 O264 2.114 . S
Zn258 O267 2.120 1_445 S
Zn258 O269 2.120 . S
Zn258 O270 2.114 1_455 S
Zn258 O273 2.080 . S
C259 O264 1.166 . S
C259 O265 1.182 . S
C260 O266 1.167 1_655 S
C260 O267 1.299 . S
O261 Zn258 2.080 1_655 S
O261 C275 1.305 . S
O262 Zn256 1.920 . S
O262 C275 1.234 . S
C263 O268 1.167 1_455 S
C263 O269 1.299 . S
O264 Zn258 2.114 . S
O264 C259 1.166 . S
O265 Zn257 1.905 1_545 S
O265 C259 1.182 . S
O266 Zn257 1.898 . S
O266 C260 1.167 1_455 S
O267 Zn258 2.120 1_665 S
O267 C260 1.299 . S
O268 Zn256 1.898 . S
O268 C263 1.167 1_655 S
O269 Zn258 2.120 . S
O269 C263 1.299 . S
O270 Zn258 2.114 1_655 S
O270 C272 1.166 . S
O271 Zn256 1.905 . S
O271 C272 1.182 . S
C272 O270 1.166 . S
C272 O271 1.182 . S
O273 Zn258 2.080 . S
O273 C276 1.305 1_545 S
O274 Zn257 1.920 . S
O274 C276 1.234 . S
C275 O261 1.305 . S
C275 O262 1.234 . S
C276 O273 1.305 1_565 S
C276 O274 1.234 . S
Zn277 O283 1.920 1_556 S
Zn277 O289 1.898 . S
Zn277 O292 1.905 . S
Zn278 O286 1.905 . S
Zn278 O287 1.898 . S
Zn278 O295 1.920 . S
Zn279 O282 2.080 . S
Zn279 O285 2.114 1_545 S
Zn279 O288 2.120 1_545 S
Zn279 O290 2.120 . S
Zn279 O291 2.114 1_544 S
Zn279 O294 2.080 . S
C280 O285 1.166 . S
C280 O286 1.182 . S
C281 O287 1.167 . S
C281 O288 1.299 . S
O282 Zn279 2.080 . S
O282 C296 1.305 . S
O283 Zn277 1.920 1_554 S
O283 C296 1.234 . S
C284 O289 1.167 . S
C284 O290 1.299 1_556 S
O285 Zn279 2.114 1_565 S
O285 C280 1.166 . S
O286 Zn278 1.905 . S
O286 C280 1.182 . S
O287 Zn278 1.898 . S
O287 C281 1.167 . S
O288 Zn279 2.120 1_565 S
O288 C281 1.299 . S
O289 Zn277 1.898 . S
O289 C284 1.167 . S
O290 Zn279 2.120 . S
O290 C284 1.299 1_554 S
O291 Zn279 2.114 1_566 S
O291 C293 1.166 . S
O292 Zn277 1.905 . S
O292 C293 1.182 1_545 S
C293 O291 1.166 . S
C293 O292 1.182 1_565 S
O294 Zn279 2.080 . S
O294 C297 1.305 . S
O295 Zn278 1.920 . S
O295 C297 1.234 1_565 S
C296 O282 1.305 . S
C296 O283 1.234 . S
C297 O294 1.305 . S
C297 O295 1.234 1_545 S
Zn298 O304 1.920 . S
Zn298 O310 1.898 . S
Zn298 O313 1.905 . S
Zn299 O307 1.905 . S
Zn299 O308 1.898 . S
Zn299 O316 1.920 . S
Zn300 O303 2.080 . S
Zn300 O306 2.114 . S
Zn300 O309 2.120 . S
Zn300 O311 2.120 . S
Zn300 O312 2.114 . S
Zn300 O315 2.080 . S
C301 O306 1.166 . S
C301 O307 1.182 . S
C302 O308 1.167 . S
C302 O309 1.299 . S
O303 Zn300 2.080 . S
O303 C317 1.305 . S
O304 Zn298 1.920 . S
O304 C317 1.234 . S
C305 O310 1.167 . S
C305 O311 1.299 . S
O306 Zn300 2.114 . S
O306 C301 1.166 . S
O307 Zn299 1.905 . S
O307 C301 1.182 . S
O308 Zn299 1.898 . S
O308 C302 1.167 . S
O309 Zn300 2.120 . S
O309 C302 1.299 . S
O310 Zn298 1.898 . S
O310 C305 1.167 . S
O311 Zn300 2.120 . S
O311 C305 1.299 . S
O312 Zn300 2.114 . S
O312 C314 1.166 . S
O313 Zn298 1.905 . S
O313 C314 1.182 . S
C314 O312 1.166 . S
C314 O313 1.182 . S
O315 Zn300 2.080 . S
O315 C318 1.305 . S
O316 Zn299 1.920 . S
O316 C318 1.234 . S
C317 O303 1.305 . S
C317 O304 1.234 . S
C318 O315 1.305 . S
C318 O316 1.234 . S
Zn319 O325 1.920 . S
Zn319 O331 1.898 . S
Zn319 O334 1.905 . S
Zn320 O328 1.905 1_655 S
Zn320 O329 1.898 . S
Zn320 O337 1.920 . S
Zn321 O324 2.080 1_554 S
Zn321 O327 2.114 . S
Zn321 O330 2.120 1_454 S
Zn321 O332 2.120 . S
Zn321 O333 2.114 1_554 S
Zn321 O336 2.080 . S
C322 O327 1.166 . S
C322 O328 1.182 . S
C323 O329 1.167 1_556 S
C323 O330 1.299 . S
O324 Zn321 2.080 1_556 S
O324 C338 1.305 . S
O325 Zn319 1.920 . S
O325 C338 1.234 . S
C326 O331 1.167 1_554 S
C326 O332 1.299 . S
O327 Zn321 2.114 . S
O327 C322 1.166 . S
O328 Zn320 1.905 1_455 S
O328 C322 1.182 . S
O329 Zn320 1.898 . S
O329 C323 1.167 1_554 S
O330 Zn321 2.120 1_656 S
O330 C323 1.299 . S
O331 Zn319 1.898 . S
O331 C326 1.167 1_556 S
O332 Zn321 2.120 . S
O332 C326 1.299 . S
O333 Zn321 2.114 1_556 S
O333 C335 1.166 . S
O334 Zn319 1.905 . S
O334 C335 1.182 . S
C335 O333 1.166 . S
C335 O334 1.182 . S
O336 Zn321 2.080 . S
O336 C339 1.305 1_455 S
O337 Zn320 1.920 . S
O337 C339 1.234 . S
C338 O324 1.305 . S
C338 O325 1.234 . S
C339 O336 1.305 1_655 S
C339 O337 1.234 . S
H340 C346 0.930 . S
H341 C349 0.930 . S
H342 C350 0.930 . S
H343 C351 0.930 . S
H344 C354 0.930 . S
H345 C355 0.930 . S
C346 H340 0.930 . S
C346 C347 1.355 . S
C346 C348 1.415 . S
C347 C346 1.355 . S
C347 C349 1.419 . S
C348 C346 1.415 . S
C348 C353 1.425 . S
C348 C355 1.409 . S
C349 H341 0.930 . S
C349 C347 1.419 . S
C349 C350 1.362 . S
C350 H342 0.930 . S
C350 C349 1.362 . S
C350 C353 1.409 . S
C351 H343 0.930 . S
C351 C352 1.355 . S
C351 C353 1.415 . S
C352 C351 1.355 . S
C352 C354 1.419 . S
C353 C348 1.425 . S
C353 C350 1.409 . S
C353 C351 1.415 . S
C354 H344 0.930 . S
C354 C352 1.419 . S
C354 C355 1.362 . S
C355 H345 0.930 . S
C355 C348 1.409 . S
C355 C354 1.362 . S
H356 C362 0.930 . S
H357 C365 0.930 . S
H358 C366 0.930 . S
H359 C367 0.930 . S
H360 C370 0.930 . S
H361 C371 0.930 . S
C362 H356 0.930 . S
C362 C363 1.355 . S
C362 C364 1.415 . S
C363 C362 1.355 . S
C363 C365 1.419 . S
C364 C362 1.415 . S
C364 C369 1.425 . S
C364 C371 1.409 . S
C365 H357 0.930 . S
C365 C363 1.419 . S
C365 C366 1.362 . S
C366 H358 0.930 . S
C366 C365 1.362 . S
C366 C369 1.409 . S
C367 H359 0.930 . S
C367 C368 1.355 . S
C367 C369 1.415 . S
C368 C367 1.355 . S
C368 C370 1.419 . S
C369 C364 1.425 . S
C369 C366 1.409 . S
C369 C367 1.415 . S
C370 H360 0.930 . S
C370 C368 1.419 . S
C370 C371 1.362 . S
C371 H361 0.930 . S
C371 C364 1.409 . S
C371 C370 1.362 . S
H372 C378 0.930 . S
H373 C381 0.930 . S
H374 C382 0.930 . S
H375 C383 0.930 . S
H376 C386 0.930 . S
H377 C387 0.930 . S
C378 H372 0.930 . S
C378 C379 1.355 . S
C378 C380 1.415 . S
C379 C378 1.355 . S
C379 C381 1.419 . S
C380 C378 1.415 . S
C380 C385 1.425 . S
C380 C387 1.409 . S
C381 H373 0.930 . S
C381 C379 1.419 . S
C381 C382 1.362 . S
C382 H374 0.930 . S
C382 C381 1.362 . S
C382 C385 1.409 . S
C383 H375 0.930 . S
C383 C384 1.355 . S
C383 C385 1.415 . S
C384 C383 1.355 . S
C384 C386 1.419 . S
C385 C380 1.425 . S
C385 C382 1.409 . S
C385 C383 1.415 . S
C386 H376 0.930 . S
C386 C384 1.419 . S
C386 C387 1.362 . S
C387 H377 0.930 . S
C387 C380 1.409 . S
C387 C386 1.362 . S
H388 C394 0.930 . S
H389 C397 0.930 . S
H390 C398 0.930 . S
H391 C399 0.930 . S
H392 C402 0.930 . S
H393 C403 0.930 . S
C394 H388 0.930 . S
C394 C395 1.355 . S
C394 C396 1.415 . S
C395 C394 1.355 . S
C395 C397 1.419 . S
C396 C394 1.415 . S
C396 C401 1.425 . S
C396 C403 1.409 . S
C397 H389 0.930 . S
C397 C395 1.419 . S
C397 C398 1.362 . S
C398 H390 0.930 . S
C398 C397 1.362 . S
C398 C401 1.409 . S
C399 H391 0.930 . S
C399 C400 1.355 . S
C399 C401 1.415 . S
C400 C399 1.355 . S
C400 C402 1.419 . S
C401 C396 1.425 . S
C401 C398 1.409 . S
C401 C399 1.415 . S
C402 H392 0.930 . S
C402 C400 1.419 . S
C402 C403 1.362 . S
C403 H393 0.930 . S
C403 C396 1.409 . S
C403 C402 1.362 . S
H404 C410 0.930 . S
H405 C413 0.930 . S
H406 C414 0.930 . S
H407 C415 0.930 . S
H408 C418 0.930 . S
H409 C419 0.930 . S
C410 H404 0.930 . S
C410 C411 1.355 . S
C410 C412 1.415 . S
C411 C410 1.355 . S
C411 C413 1.419 . S
C412 C410 1.415 . S
C412 C417 1.425 . S
C412 C419 1.409 . S
C413 H405 0.930 . S
C413 C411 1.419 . S
C413 C414 1.362 . S
C414 H406 0.930 . S
C414 C413 1.362 . S
C414 C417 1.409 . S
C415 H407 0.930 . S
C415 C416 1.355 . S
C415 C417 1.415 . S
C416 C415 1.355 . S
C416 C418 1.419 . S
C417 C412 1.425 . S
C417 C414 1.409 . S
C417 C415 1.415 . S
C418 H408 0.930 . S
C418 C416 1.419 . S
C418 C419 1.362 . S
C419 H409 0.930 . S
C419 C412 1.409 . S
C419 C418 1.362 . S
H420 C426 0.930 . S
H421 C429 0.930 . S
H422 C430 0.930 . S
H423 C431 0.930 . S
H424 C434 0.930 . S
H425 C435 0.930 . S
C426 H420 0.930 . S
C426 C427 1.355 . S
C426 C428 1.415 . S
C427 C426 1.355 . S
C427 C429 1.419 . S
C428 C426 1.415 . S
C428 C433 1.425 . S
C428 C435 1.409 . S
C429 H421 0.930 . S
C429 C427 1.419 . S
C429 C430 1.362 . S
C430 H422 0.930 . S
C430 C429 1.362 . S
C430 C433 1.409 . S
C431 H423 0.930 . S
C431 C432 1.355 . S
C431 C433 1.415 . S
C432 C431 1.355 . S
C432 C434 1.419 . S
C433 C428 1.425 . S
C433 C430 1.409 . S
C433 C431 1.415 . S
C434 H424 0.930 . S
C434 C432 1.419 . S
C434 C435 1.362 . S
C435 H425 0.930 . S
C435 C428 1.409 . S
C435 C434 1.362 . S
H436 C442 0.930 . S
H437 C445 0.930 . S
H438 C446 0.930 . S
H439 C447 0.930 . S
H440 C450 0.930 1_554 S
H441 C451 0.930 . S
C442 H436 0.930 . S
C442 C443 1.355 . S
C442 C444 1.415 . S
C443 C442 1.355 . S
C443 C445 1.419 . S
C444 C442 1.415 . S
C444 C449 1.425 . S
C444 C451 1.409 . S
C445 H437 0.930 . S
C445 C443 1.419 . S
C445 C446 1.362 . S
C446 H438 0.930 . S
C446 C445 1.362 . S
C446 C449 1.409 . S
C447 H439 0.930 . S
C447 C448 1.355 . S
C447 C449 1.415 . S
C448 C447 1.355 . S
C448 C450 1.419 . S
C449 C444 1.425 . S
C449 C446 1.409 . S
C449 C447 1.415 . S
C450 H440 0.930 1_556 S
C450 C448 1.419 . S
C450 C451 1.362 . S
C451 H441 0.930 . S
C451 C444 1.409 . S
C451 C450 1.362 . S
H452 C458 0.930 . S
H453 C461 0.930 . S
H454 C462 0.930 . S
H455 C463 0.930 . S
H456 C466 0.930 . S
H457 C467 0.930 . S
C458 H452 0.930 . S
C458 C459 1.355 . S
C458 C460 1.415 . S
C459 C458 1.355 . S
C459 C461 1.419 . S
C460 C458 1.415 . S
C460 C465 1.425 . S
C460 C467 1.409 . S
C461 H453 0.930 . S
C461 C459 1.419 . S
C461 C462 1.362 . S
C462 H454 0.930 . S
C462 C461 1.362 . S
C462 C465 1.409 . S
C463 H455 0.930 . S
C463 C464 1.355 . S
C463 C465 1.415 . S
C464 C463 1.355 . S
C464 C466 1.419 . S
C465 C460 1.425 . S
C465 C462 1.409 . S
C465 C463 1.415 . S
C466 H456 0.930 . S
C466 C464 1.419 . S
C466 C467 1.362 . S
C467 H457 0.930 . S
C467 C460 1.409 . S
C467 C466 1.362 . S
H468 C474 0.930 . S
H469 C477 0.930 . S
H470 C478 0.930 . S
H471 C479 0.930 . S
H472 C482 0.930 . S
H473 C483 0.930 . S
C474 H468 0.930 . S
C474 C475 1.355 . S
C474 C476 1.415 . S
C475 C474 1.355 . S
C475 C477 1.419 . S
C476 C474 1.415 . S
C476 C481 1.425 . S
C476 C483 1.409 . S
C477 H469 0.930 . S
C477 C475 1.419 . S
C477 C478 1.362 . S
C478 H470 0.930 . S
C478 C477 1.362 . S
C478 C481 1.409 . S
C479 H471 0.930 . S
C479 C480 1.355 . S
C479 C481 1.415 . S
C480 C479 1.355 . S
C480 C482 1.419 . S
C481 C476 1.425 . S
C481 C478 1.409 . S
C481 C479 1.415 . S
C482 H472 0.930 . S
C482 C480 1.419 . S
C482 C483 1.362 . S
C483 H473 0.930 . S
C483 C476 1.409 . S
C483 C482 1.362 . S
H484 C490 0.930 . S
H485 C493 0.930 . S
H486 C494 0.930 1_554 S
H487 C495 0.930 1_554 S
H488 C498 0.930 . S
H489 C499 0.930 . S
C490 H484 0.930 . S
C490 C491 1.355 . S
C490 C492 1.415 . S
C491 C490 1.355 . S
C491 C493 1.419 . S
C492 C490 1.415 . S
C492 C497 1.425 . S
C492 C499 1.409 . S
C493 H485 0.930 . S
C493 C491 1.419 . S
C493 C494 1.362 . S
C494 H486 0.930 1_556 S
C494 C493 1.362 . S
C494 C497 1.409 . S
C495 H487 0.930 1_556 S
C495 C496 1.355 . S
C495 C497 1.415 . S
C496 C495 1.355 . S
C496 C498 1.419 . S
C497 C492 1.425 . S
C497 C494 1.409 . S
C497 C495 1.415 . S
C498 H488 0.930 . S
C498 C496 1.419 . S
C498 C499 1.362 . S
C499 H489 0.930 . S
C499 C492 1.409 . S
C499 C498 1.362 . S
H500 C506 0.930 . S
H501 C509 0.930 . S
H502 C510 0.930 . S
H503 C511 0.930 . S
H504 C514 0.930 . S
H505 C515 0.930 . S
C506 H500 0.930 . S
C506 C507 1.355 . S
C506 C508 1.415 . S
C507 C506 1.355 . S
C507 C509 1.419 . S
C508 C506 1.415 . S
C508 C513 1.425 . S
C508 C515 1.409 . S
C509 H501 0.930 . S
C509 C507 1.419 . S
C509 C510 1.362 . S
C510 H502 0.930 . S
C510 C509 1.362 . S
C510 C513 1.409 . S
C511 H503 0.930 . S
C511 C512 1.355 . S
C511 C513 1.415 . S
C512 C511 1.355 . S
C512 C514 1.419 . S
C513 C508 1.425 . S
C513 C510 1.409 . S
C513 C511 1.415 . S
C514 H504 0.930 . S
C514 C512 1.419 . S
C514 C515 1.362 . S
C515 H505 0.930 . S
C515 C508 1.409 . S
C515 C514 1.362 . S
H516 C522 0.930 . S
H517 C525 0.930 . S
H518 C526 0.930 . S
H519 C527 0.930 . S
H520 C530 0.930 . S
H521 C531 0.930 . S
C522 H516 0.930 . S
C522 C523 1.355 . S
C522 C524 1.415 . S
C523 C522 1.355 . S
C523 C525 1.419 . S
C524 C522 1.415 . S
C524 C529 1.425 . S
C524 C531 1.409 . S
C525 H517 0.930 . S
C525 C523 1.419 . S
C525 C526 1.362 . S
C526 H518 0.930 . S
C526 C525 1.362 . S
C526 C529 1.409 . S
C527 H519 0.930 . S
C527 C528 1.355 . S
C527 C529 1.415 . S
C528 C527 1.355 . S
C528 C530 1.419 . S
C529 C524 1.425 . S
C529 C526 1.409 . S
C529 C527 1.415 . S
C530 H520 0.930 . S
C530 C528 1.419 . S
C530 C531 1.362 . S
C531 H521 0.930 . S
C531 C524 1.409 . S
C531 C530 1.362 . S
H532 C538 0.930 . S
H533 C541 0.930 . S
H534 C542 0.930 . S
H535 C543 0.930 1_455 S
H536 C546 0.930 . S
H537 C547 0.930 . S
C538 H532 0.930 . S
C538 C539 1.348 1_565 S
C538 C540 1.415 . S
C539 C538 1.348 1_545 S
C539 C541 1.428 1_655 S
C540 C538 1.415 . S
C540 C545 1.425 1_565 S
C540 C547 1.409 . S
C541 H533 0.930 . S
C541 C539 1.428 1_455 S
C541 C542 1.362 . S
C542 H534 0.930 . S
C542 C541 1.362 . S
C542 C545 1.409 1_455 S
C543 H535 0.930 1_655 S
C543 C544 1.355 . S
C543 C545 1.415 . S
C544 C543 1.355 . S
C544 C546 1.419 1_545 S
C545 C540 1.425 1_545 S
C545 C542 1.409 1_655 S
C545 C543 1.415 . S
C546 H536 0.930 . S
C546 C544 1.419 1_565 S
C546 C547 1.362 . S
C547 H537 0.930 . S
C547 C540 1.409 . S
C547 C546 1.362 . S
H548 C554 0.930 . S
H549 C557 0.930 . S
H550 C558 0.930 . S
H551 C559 0.930 . S
H552 C562 0.930 . S
H553 C563 0.930 . S
C554 H548 0.930 . S
C554 C555 1.355 . S
C554 C556 1.415 . S
C555 C554 1.355 . S
C555 C557 1.419 . S
C556 C554 1.415 . S
C556 C561 1.425 . S
C556 C563 1.409 1_545 S
C557 H549 0.930 . S
C557 C555 1.419 . S
C557 C558 1.362 . S
C558 H550 0.930 . S
C558 C557 1.362 . S
C558 C561 1.409 . S
C559 H551 0.930 . S
C559 C560 1.355 . S
C559 C561 1.415 . S
C560 C559 1.355 . S
C560 C562 1.419 1_545 S
C561 C556 1.425 . S
C561 C558 1.409 . S
C561 C559 1.415 . S
C562 H552 0.930 . S
C562 C560 1.419 1_565 S
C562 C563 1.362 . S
C563 H553 0.930 . S
C563 C556 1.409 1_565 S
C563 C562 1.362 . S
H564 C570 0.930 . S
H565 C573 0.930 . S
H566 C574 0.930 . S
H567 C575 0.930 . S
H568 C578 0.930 . S
H569 C579 0.930 . S
C570 H564 0.930 . S
C570 C571 1.355 . S
C570 C572 1.415 . S
C571 C570 1.355 . S
C571 C573 1.419 . S
C572 C570 1.415 . S
C572 C577 1.425 . S
C572 C579 1.409 . S
C573 H565 0.930 . S
C573 C571 1.419 . S
C573 C574 1.362 . S
C574 H566 0.930 . S
C574 C573 1.362 . S
C574 C577 1.409 . S
C575 H567 0.930 . S
C575 C576 1.355 . S
C575 C577 1.415 . S
C576 C575 1.355 . S
C576 C578 1.419 . S
C577 C572 1.425 . S
C577 C574 1.409 . S
C577 C575 1.415 . S
C578 H568 0.930 . S
C578 C576 1.419 . S
C578 C579 1.362 . S
C579 H569 0.930 . S
C579 C572 1.409 . S
C579 C578 1.362 . S
H580 C586 0.930 . S
H581 C589 0.930 . S
H582 C590 0.930 . S
H583 C591 0.930 . S
H584 C594 0.930 1_655 S
H585 C595 0.930 1_655 S
C586 H580 0.930 . S
C586 C587 1.355 . S
C586 C588 1.415 . S
C587 C586 1.355 . S
C587 C589 1.419 . S
C588 C586 1.415 . S
C588 C593 1.425 . S
C588 C595 1.409 . S
C589 H581 0.930 . S
C589 C587 1.419 . S
C589 C590 1.362 . S
C590 H582 0.930 . S
C590 C589 1.362 . S
C590 C593 1.409 . S
C591 H583 0.930 . S
C591 C592 1.355 . S
C591 C593 1.415 . S
C592 C591 1.355 . S
C592 C594 1.419 . S
C593 C588 1.425 . S
C593 C590 1.409 . S
C593 C591 1.415 . S
C594 H584 0.930 1_455 S
C594 C592 1.419 . S
C594 C595 1.362 . S
C595 H585 0.930 1_455 S
C595 C588 1.409 . S
C595 C594 1.362 . S
H596 C602 0.930 . S
H597 C605 0.930 . S
H598 C606 0.930 . S
H599 C607 0.930 . S
H600 C610 0.930 . S
H601 C611 0.930 . S
C602 H596 0.930 . S
C602 C603 1.355 . S
C602 C604 1.415 . S
C603 C602 1.355 . S
C603 C605 1.419 1_566 S
C604 C602 1.415 . S
C604 C609 1.425 1_566 S
C604 C611 1.409 . S
C605 H597 0.930 . S
C605 C603 1.419 1_544 S
C605 C606 1.362 . S
C606 H598 0.930 . S
C606 C605 1.362 . S
C606 C609 1.409 . S
C607 H599 0.930 . S
C607 C608 1.355 1_545 S
C607 C609 1.415 . S
C608 C607 1.355 1_565 S
C608 C610 1.419 1_554 S
C609 C604 1.425 1_544 S
C609 C606 1.409 . S
C609 C607 1.415 . S
C610 H600 0.930 . S
C610 C608 1.419 1_556 S
C610 C611 1.362 . S
C611 H601 0.930 . S
C611 C604 1.409 . S
C611 C610 1.362 . S
H612 C618 0.930 . S
H613 C621 0.930 . S
H614 C622 0.930 . S
H615 C623 0.930 . S
H616 C626 0.930 1_565 S
H617 C627 0.930 1_565 S
C618 H612 0.930 . S
C618 C619 1.355 . S
C618 C620 1.415 . S
C619 C618 1.355 . S
C619 C621 1.419 . S
C620 C618 1.415 . S
C620 C625 1.425 . S
C620 C627 1.409 . S
C621 H613 0.930 . S
C621 C619 1.419 . S
C621 C622 1.362 . S
C622 H614 0.930 . S
C622 C621 1.362 . S
C622 C625 1.409 . S
C623 H615 0.930 . S
C623 C624 1.355 . S
C623 C625 1.415 . S
C624 C623 1.355 . S
C624 C626 1.419 . S
C625 C620 1.425 . S
C625 C622 1.409 . S
C625 C623 1.415 . S
C626 H616 0.930 1_545 S
C626 C624 1.419 . S
C626 C627 1.362 . S
C627 H617 0.930 1_545 S
C627 C620 1.409 . S
C627 C626 1.362 . S
H628 C634 0.930 . S
H629 C637 0.930 . S
H630 C638 0.930 . S
H631 C639 0.930 . S
H632 C642 0.930 . S
H633 C643 0.930 . S
C634 H628 0.930 . S
C634 C635 1.355 . S
C634 C636 1.415 . S
C635 C634 1.355 . S
C635 C637 1.419 . S
C636 C634 1.415 . S
C636 C641 1.425 . S
C636 C643 1.409 . S
C637 H629 0.930 . S
C637 C635 1.419 . S
C637 C638 1.362 . S
C638 H630 0.930 . S
C638 C637 1.362 . S
C638 C641 1.409 . S
C639 H631 0.930 . S
C639 C640 1.355 . S
C639 C641 1.415 . S
C640 C639 1.355 . S
C640 C642 1.419 . S
C641 C636 1.425 . S
C641 C638 1.409 . S
C641 C639 1.415 . S
C642 H632 0.930 . S
C642 C640 1.419 . S
C642 C643 1.362 . S
C643 H633 0.930 . S
C643 C636 1.409 . S
C643 C642 1.362 . S
H644 C650 0.930 . S
H645 C653 0.930 . S
H646 C654 0.930 . S
H647 C655 0.930 . S
H648 C658 0.930 . S
H649 C659 0.930 . S
C650 H644 0.930 . S
C650 C651 1.355 . S
C650 C652 1.415 . S
C651 C650 1.355 . S
C651 C653 1.419 . S
C652 C650 1.415 . S
C652 C657 1.425 . S
C652 C659 1.409 . S
C653 H645 0.930 . S
C653 C651 1.419 . S
C653 C654 1.362 . S
C654 H646 0.930 . S
C654 C653 1.362 . S
C654 C657 1.409 . S
C655 H647 0.930 . S
C655 C656 1.355 . S
C655 C657 1.415 . S
C656 C655 1.355 . S
C656 C658 1.419 . S
C657 C652 1.425 . S
C657 C654 1.409 . S
C657 C655 1.415 . S
C658 H648 0.930 . S
C658 C656 1.419 . S
C658 C659 1.362 . S
C659 H649 0.930 . S
C659 C652 1.409 . S
C659 C658 1.362 . S
H660 C666 0.926 1_554 S
H661 C669 0.930 . S
H662 C670 0.930 . S
H663 C671 0.930 . S
H664 C674 0.930 . S
H665 C675 0.930 . S
C666 H660 0.926 1_556 S
C666 C667 1.357 . S
C666 C668 1.416 . S
C667 C666 1.357 . S
C667 C669 1.419 1_655 S
C668 C666 1.416 . S
C668 C673 1.425 1_655 S
C668 C675 1.409 1_556 S
C669 H661 0.930 . S
C669 C667 1.419 1_455 S
C669 C670 1.362 . S
C670 H662 0.930 . S
C670 C669 1.362 . S
C670 C673 1.409 . S
C671 H663 0.930 . S
C671 C672 1.355 . S
C671 C673 1.415 . S
C672 C671 1.355 . S
C672 C674 1.419 1_456 S
C673 C668 1.425 1_455 S
C673 C670 1.409 . S
C673 C671 1.415 . S
C674 H664 0.930 . S
C674 C672 1.419 1_654 S
C674 C675 1.362 . S
C675 H665 0.930 . S
C675 C668 1.409 1_554 S
C675 C674 1.362 . S
H676 C682 0.930 . S
H677 C685 0.930 . S
H678 C686 0.930 . S
H679 C687 0.930 . S
H680 C690 0.930 . S
H681 C691 0.930 . S
C682 H676 0.930 . S
C682 C683 1.355 . S
C682 C684 1.415 . S
C683 C682 1.355 . S
C683 C685 1.419 . S
C684 C682 1.415 . S
C684 C689 1.425 . S
C684 C691 1.409 . S
C685 H677 0.930 . S
C685 C683 1.419 . S
C685 C686 1.362 . S
C686 H678 0.930 . S
C686 C685 1.362 . S
C686 C689 1.409 . S
C687 H679 0.930 . S
C687 C688 1.355 . S
C687 C689 1.415 . S
C688 C687 1.355 . S
C688 C690 1.419 . S
C689 C684 1.425 . S
C689 C686 1.409 . S
C689 C687 1.415 . S
C690 H680 0.930 . S
C690 C688 1.419 . S
C690 C691 1.362 . S
C691 H681 0.930 . S
C691 C684 1.409 . S
C691 C690 1.362 . S
H692 C698 0.930 . S
H693 C701 0.930 . S
H694 C702 0.930 . S
H695 C703 0.930 . S
H696 C706 0.930 . S
H697 C707 0.930 . S
C698 H692 0.930 . S
C698 C699 1.355 . S
C698 C700 1.415 . S
C699 C698 1.355 . S
C699 C701 1.419 . S
C700 C698 1.415 . S
C700 C705 1.425 . S
C700 C707 1.409 . S
C701 H693 0.930 . S
C701 C699 1.419 . S
C701 C702 1.362 . S
C702 H694 0.930 . S
C702 C701 1.362 . S
C702 C705 1.409 . S
C703 H695 0.930 . S
C703 C704 1.355 . S
C703 C705 1.415 . S
C704 C703 1.355 . S
C704 C706 1.419 . S
C705 C700 1.425 . S
C705 C702 1.409 . S
C705 C703 1.415 . S
C706 H696 0.930 . S
C706 C704 1.419 . S
C706 C707 1.362 . S
C707 H697 0.930 . S
C707 C700 1.409 . S
C707 C706 1.362 . S
H708 C714 0.930 . S
H709 C717 0.930 . S
H710 C718 0.930 . S
H711 C719 0.930 . S
H712 C722 0.930 . S
H713 C723 0.930 . S
C714 H708 0.930 . S
C714 C715 1.355 . S
C714 C716 1.415 . S
C715 C714 1.355 . S
C715 C717 1.419 . S
C716 C714 1.415 . S
C716 C721 1.425 . S
C716 C723 1.409 . S
C717 H709 0.930 . S
C717 C715 1.419 . S
C717 C718 1.362 . S
C718 H710 0.930 . S
C718 C717 1.362 . S
C718 C721 1.409 . S
C719 H711 0.930 . S
C719 C720 1.355 . S
C719 C721 1.415 . S
C720 C719 1.355 . S
C720 C722 1.419 . S
C721 C716 1.425 . S
C721 C718 1.409 . S
C721 C719 1.415 . S
C722 H712 0.930 . S
C722 C720 1.419 . S
C722 C723 1.362 . S
C723 H713 0.930 . S
C723 C716 1.409 . S
C723 C722 1.362 . S
C347 C29 1.535 . S
C352 C259 1.426 . S
C363 C49 1.480 . S
C368 C293 1.375 . S
C384 C305 1.426 . S
C379 C93 1.478 . S
C395 C119 1.421 . S
C400 C339 1.314 . S
C416 C296 1.380 . S
C411 C17 1.460 . S
C432 C276 1.380 . S
C427 C61 1.528 . S
C448 C323 1.323 . S
C443 C81 1.437 . S
C464 C314 1.439 . S
C459 C125 1.528 . S
C475 C23 1.501 . S
C480 C322 1.422 . S
C496 C284 1.372 . S
C491 C87 1.472 . S
C507 C113 1.516 . S
C512 C260 1.478 . S
C523 C55 1.503 . S
C528 C317 1.382 . S
C544 C275 1.554 . S
C539 C157 1.689 1_545 S
C555 C189 1.480 . S
C560 C297 1.534 . S
C571 C221 1.720 . S
C576 C302 1.605 . S
C587 C253 1.503 . S
C592 C335 1.619 . S
C603 C145 1.748 . S
C608 C280 1.594 . S
C624 C272 1.579 . S
C619 C183 1.488 . S
C640 C326 1.626 . S
C635 C209 1.711 . S
C656 C318 1.586 . S
C651 C247 1.551 . S
C667 C151 1.700 . S
C672 C338 1.605 . S
C688 C281 1.580 . S
C683 C215 1.721 . S
C704 C263 1.534 . S
C699 C241 1.577 . S
C715 C177 1.608 . S
C720 C301 1.644 . S
