# Generated by pormake.
# Topology pyr, (3,6)-cn, num edge types: 1
# Building blocks:
#     Node 0, Type 0, BuildingBlock: ESEHIV_clean_linker_0, # of connection points: 3
#     Node 1, Type 0, BuildingBlock: ESEHIV_clean_linker_0, # of connection points: 3
#     Node 2, Type 0, BuildingBlock: ESEHIV_clean_linker_0, # of connection points: 3
#     Node 3, Type 0, BuildingBlock: ESEHIV_clean_linker_0, # of connection points: 3
#     Node 4, Type 0, BuildingBlock: ESEHIV_clean_linker_0, # of connection points: 3
#     Node 5, Type 0, BuildingBlock: ESEHIV_clean_linker_0, # of connection points: 3
#     Node 6, Type 0, BuildingBlock: ESEHIV_clean_linker_0, # of connection points: 3
#     Node 7, Type 0, BuildingBlock: ESEHIV_clean_linker_0, # of connection points: 3
#     Node 8, Type 1, BuildingBlock: PAMTOO_clean_sbu_0, # of connection points: 6
#     Node 9, Type 1, BuildingBlock: PAMTOO_clean_sbu_0, # of connection points: 6
#     Node 10, Type 1, BuildingBlock: PAMTOO_clean_sbu_0, # of connection points: 6
#     Node 11, Type 1, BuildingBlock: PAMTOO_clean_sbu_0, # of connection points: 6
#     Edge 12, Type (0, 1), BuildingBlock: AJUNOK_clean_linker_0, # of connection points: 2
#     Edge 13, Type (0, 1), BuildingBlock: AJUNOK_clean_linker_0, # of connection points: 2
#     Edge 14, Type (0, 1), BuildingBlock: AJUNOK_clean_linker_0, # of connection points: 2
#     Edge 15, Type (0, 1), BuildingBlock: AJUNOK_clean_linker_0, # of connection points: 2
#     Edge 16, Type (0, 1), BuildingBlock: AJUNOK_clean_linker_0, # of connection points: 2
#     Edge 17, Type (0, 1), BuildingBlock: AJUNOK_clean_linker_0, # of connection points: 2
#     Edge 18, Type (0, 1), BuildingBlock: AJUNOK_clean_linker_0, # of connection points: 2
#     Edge 19, Type (0, 1), BuildingBlock: AJUNOK_clean_linker_0, # of connection points: 2
#     Edge 20, Type (0, 1), BuildingBlock: AJUNOK_clean_linker_0, # of connection points: 2
#     Edge 21, Type (0, 1), BuildingBlock: AJUNOK_clean_linker_0, # of connection points: 2
#     Edge 22, Type (0, 1), BuildingBlock: AJUNOK_clean_linker_0, # of connection points: 2
#     Edge 23, Type (0, 1), BuildingBlock: AJUNOK_clean_linker_0, # of connection points: 2
#     Edge 24, Type (0, 1), BuildingBlock: AJUNOK_clean_linker_0, # of connection points: 2
#     Edge 25, Type (0, 1), BuildingBlock: AJUNOK_clean_linker_0, # of connection points: 2
#     Edge 26, Type (0, 1), BuildingBlock: AJUNOK_clean_linker_0, # of connection points: 2
#     Edge 27, Type (0, 1), BuildingBlock: AJUNOK_clean_linker_0, # of connection points: 2
#     Edge 28, Type (0, 1), BuildingBlock: AJUNOK_clean_linker_0, # of connection points: 2
#     Edge 29, Type (0, 1), BuildingBlock: AJUNOK_clean_linker_0, # of connection points: 2
#     Edge 30, Type (0, 1), BuildingBlock: AJUNOK_clean_linker_0, # of connection points: 2
#     Edge 31, Type (0, 1), BuildingBlock: AJUNOK_clean_linker_0, # of connection points: 2
#     Edge 32, Type (0, 1), BuildingBlock: AJUNOK_clean_linker_0, # of connection points: 2
#     Edge 33, Type (0, 1), BuildingBlock: AJUNOK_clean_linker_0, # of connection points: 2
#     Edge 34, Type (0, 1), BuildingBlock: AJUNOK_clean_linker_0, # of connection points: 2
#     Edge 35, Type (0, 1), BuildingBlock: AJUNOK_clean_linker_0, # of connection points: 2
# Relax obj value: 0.211
# Max RMSD: 0.198
# Mean RMSD: 0.084
data_MOF--net-pyr--node1-PAMTOO_clean_sbu_0--node2-ESEHIV_clean_linker_0--edge1-AJUNOK_clean_linker_0
_symmetry_space_group_name_H-M    P1
_symmetry_Int_Tables_number       1
_symmetry_cell_setting            triclinic
loop_
_symmetry_equiv_pos_as_xyz
'x, y, z'
_cell_length_a     25.606921
_cell_length_b     26.968016
_cell_length_c     24.792805
_cell_angle_alpha  89.929806
_cell_angle_beta   90.075299
_cell_angle_gamma 106.18297
loop_
_atom_site_label
_atom_site_type_symbol
_atom_site_fract_x
_atom_site_fract_y
_atom_site_fract_z
_atom_type_partial_charge
H0 H 0.37665 0.3975 0.33291 0.0
H1 H 0.45552 0.27926 0.36461 0.0
H2 H 0.40858 0.30407 0.20398 0.0
C3 C 0.39686 0.3698 0.31817 0.0
C4 C 0.38947 0.35402 0.26419 0.0
C5 C 0.4146 0.33898 0.35564 0.0
C6 C 0.44213 0.30407 0.33654 0.0
C7 C 0.4431 0.29364 0.28126 0.0
C8 C 0.41527 0.31772 0.24523 0.0
H9 H 0.09224 0.83021 0.84258 0.0
H10 H 0.1918 0.72699 0.81829 0.0
H11 H 0.15233 0.81235 0.68571 0.0
C12 C 0.1118 0.80863 0.81658 0.0
C13 C 0.11329 0.81937 0.76123 0.0
C14 C 0.14061 0.77582 0.83842 0.0
C15 C 0.16861 0.75186 0.80263 0.0
C16 C 0.17543 0.76708 0.74835 0.0
C17 C 0.14604 0.79934 0.72722 0.0
H18 H 0.68754 0.33984 1.01653 0.0
H19 H 0.71943 0.46441 0.90177 0.0
H20 H 0.57525 0.3361 0.88668 0.0
C21 C 0.67629 0.35758 0.98074 0.0
C22 C 0.62822 0.33186 0.95349 0.0
C23 C 0.70955 0.40564 0.96345 0.0
C24 C 0.69347 0.42833 0.91706 0.0
C25 C 0.64456 0.40436 0.88923 0.0
C26 C 0.6128 0.3552 0.90726 0.0
H27 H 0.83646 0.75409 0.51011 0.0
H28 H 0.955 0.76181 0.38563 0.0
H29 H 0.82621 0.62111 0.41085 0.0
C30 C 0.85269 0.73547 0.47804 0.0
C31 C 0.82675 0.68373 0.4653 0.0
C32 C 0.89888 0.76405 0.44994 0.0
C33 C 0.91917 0.74002 0.40719 0.0
C34 C 0.89285 0.68829 0.39182 0.0
C35 C 0.84686 0.6606 0.4218 0.0
H36 H 0.54291 0.80518 0.88777 0.0
H37 H 0.67872 0.74383 0.86025 0.0
H38 H 0.6489 0.79179 1.01819 0.0
C39 C 0.57554 0.79073 0.90305 0.0
C40 C 0.59093 0.79935 0.95742 0.0
C41 C 0.6082 0.77289 0.86648 0.0
C42 C 0.65143 0.75591 0.88719 0.0
C43 C 0.66587 0.76194 0.94173 0.0
C44 C 0.63522 0.78322 0.97695 0.0
H45 H 0.86788 0.39808 0.38347 0.0
H46 H 0.95234 0.28172 0.37062 0.0
H47 H 0.91364 0.32984 0.52605 0.0
C48 C 0.89031 0.37412 0.40248 0.0
C49 C 0.88685 0.36697 0.45853 0.0
C50 C 0.90936 0.34023 0.37018 0.0
C51 C 0.93903 0.30953 0.3946 0.0
C52 C 0.94263 0.30715 0.45091 0.0
C53 C 0.91638 0.33609 0.4828 0.0
H54 H 0.33498 0.74748 0.2311 0.0
H55 H 0.31794 0.61836 0.33789 0.0
H56 H 0.45554 0.75405 0.35319 0.0
C57 C 0.34989 0.72964 0.26482 0.0
C58 C 0.39753 0.75734 0.29114 0.0
C59 C 0.32035 0.68012 0.28166 0.0
C60 C 0.34105 0.6563 0.32425 0.0
C61 C 0.3899 0.68241 0.35113 0.0
C62 C 0.41814 0.73309 0.33352 0.0
H63 H 0.07169 0.34257 0.84813 0.0
H64 H 0.19208 0.34879 0.72615 0.0
H65 H 0.21994 0.46723 0.84772 0.0
C66 C 0.11107 0.36148 0.83091 0.0
C67 C 0.14333 0.40844 0.85337 0.0
C68 C 0.12857 0.33974 0.78493 0.0
C69 C 0.17896 0.36534 0.76168 0.0
C70 C 0.2124 0.41175 0.78296 0.0
C71 C 0.19415 0.43266 0.82929 0.0
Dy72 Dy 0.07328 0.06774 0.59473 0.0
Dy73 Dy 0.94688 1.03969 0.63645 0.0
C74 C 0.03725 0.14182 0.67843 0.0
O75 O 0.06419 1.02706 0.67397 0.0
O76 O 0.97905 0.975 0.6623 0.0
O77 O 0.15629 0.08364 0.62144 0.0
O78 O 0.13754 0.07693 0.53593 0.0
O79 O 0.94507 0.99201 0.56155 0.0
O80 O 0.03368 0.98944 0.55927 0.0
O81 O 0.95786 0.11045 0.58789 0.0
O82 O 0.03494 0.11348 0.53877 0.0
O83 O 0.86217 1.03037 0.6185 0.0
O84 O 0.88763 1.01812 0.70007 0.0
C85 C 0.02807 0.98267 0.68147 0.0
O86 O 0.06716 0.13892 0.6363 0.0
O87 O 0.9955 0.10272 0.69258 0.0
C88 C 0.21891 0.13693 0.5628 0.0
C89 C 0.29635 0.2277 0.53043 0.0
C90 C 0.24936 0.23042 0.55808 0.0
C91 C 0.2106 0.18521 0.57383 0.0
C92 C 0.26779 0.1343 0.53954 0.0
C93 C 0.30639 0.17945 0.52352 0.0
C94 C 0.17569 0.08931 0.57258 0.0
C95 C 0.98245 0.97032 0.54513 0.0
C96 C 0.99163 0.12943 0.54855 0.0
C97 C 0.80162 0.9663 0.67028 0.0
C98 C 0.71154 0.88075 0.69028 0.0
C99 C 0.76464 0.87826 0.70166 0.0
C100 C 0.80934 0.9206 0.6915 0.0
C101 C 0.74933 0.96737 0.65458 0.0
C102 C 0.70462 0.92483 0.66422 0.0
C103 C 0.84675 1.0139 0.66699 0.0
H104 H 0.24077 0.26721 0.56379 0.0
H105 H 0.17309 0.18782 0.59221 0.0
H106 H 0.27485 0.09727 0.5312 0.0
H107 H 0.34195 0.17628 0.50168 0.0
H108 H 0.7715 0.84543 0.72272 0.0
H109 H 0.8495 0.91853 0.70307 0.0
H110 H 0.74272 1.00208 0.63734 0.0
H111 H 0.66425 0.9278 0.65495 0.0
Dy112 Dy 0.44868 1.03172 1.09823 0.0
Dy113 Dy 0.57468 0.05575 0.13957 0.0
C114 C 0.48185 0.96094 0.1908 0.0
O115 O 0.46147 0.10096 0.1496 0.0
O116 O 0.53835 0.10069 0.19797 0.0
O117 O 0.36453 1.02402 0.11667 0.0
O118 O 0.38943 1.01553 1.03424 0.0
O119 O 0.56913 0.12814 1.09892 0.0
O120 O 0.49892 0.09243 1.04126 0.0
O121 O 0.56333 1.01138 1.06253 0.0
O122 O 0.47594 0.96394 1.07242 0.0
O123 O 0.65682 0.07008 1.11097 0.0
O124 O 0.64029 0.06394 0.19689 0.0
C125 C 0.49492 0.1169 0.19 0.0
O126 O 0.44526 0.98272 0.17234 0.0
O127 O 0.53347 0.97874 0.17741 0.0
C128 C 0.30444 0.96359 1.06162 0.0
C129 C 0.22784 0.87219 1.02969 0.0
C130 C 0.27405 0.87007 1.05929 0.0
C131 C 0.31231 0.91562 1.07505 0.0
C132 C 0.25609 0.96578 1.03691 0.0
C133 C 0.21793 0.92038 1.02108 0.0
C134 C 0.34874 1.01095 1.06742 0.0
C135 C 0.54035 0.13135 1.05592 0.0
C136 C 0.52505 0.96827 1.05496 0.0
C137 C 0.72114 0.12347 0.16806 0.0
C138 C 0.79787 0.21521 0.19887 0.0
C139 C 0.75282 0.21703 0.16738 0.0
C140 C 0.71441 0.17137 0.15238 0.0
C141 C 0.76841 0.12151 0.19528 0.0
C142 C 0.8067 0.16717 0.21053 0.0
C143 C 0.67751 0.0759 0.15937 0.0
H144 H 0.28275 0.8335 1.06621 0.0
H145 H 0.34958 0.91351 1.09447 0.0
H146 H 0.24957 1.00263 1.02644 0.0
H147 H 0.18344 0.92352 0.99735 0.0
H148 H 0.7452 0.25368 0.15812 0.0
H149 H 0.67819 0.17352 0.13099 0.0
H150 H 0.77426 0.08478 0.2073 0.0
H151 H 0.84077 0.16484 0.23539 0.0
Dy152 Dy 0.51276 0.49419 0.58703 0.0
Dy153 Dy 0.52676 0.59977 0.65478 0.0
C154 C 0.56897 0.50755 0.70565 0.0
O155 O 0.44193 0.47397 0.64381 0.0
O156 O 0.43865 0.5558 0.66398 0.0
O157 O 0.50059 0.41157 0.58324 0.0
O158 O 0.51824 0.45733 0.5106 0.0
O159 O 0.50317 0.61546 0.57049 0.0
O160 O 0.45926 0.53418 0.54155 0.0
O161 O 0.61175 0.60518 0.6268 0.0
O162 O 0.58581 0.55249 0.55394 0.0
O163 O 0.54589 0.68321 0.65479 0.0
O164 O 0.5186 0.64034 0.7279 0.0
C165 C 0.41744 0.50547 0.66642 0.0
O166 O 0.56797 0.4884 0.65664 0.0
O167 O 0.54961 0.54705 0.71503 0.0
C168 C 0.56927 0.39821 0.52554 0.0
C169 C 0.67598 0.38897 0.51489 0.0
C170 C 0.64812 0.37711 0.56401 0.0
C171 C 0.59535 0.38169 0.56933 0.0
C172 C 0.59635 0.40766 0.47569 0.0
C173 C 0.64932 0.40341 0.47052 0.0
C174 C 0.51901 0.41422 0.53398 0.0
C175 C 0.47002 0.58475 0.53647 0.0
C176 C 0.6228 0.58791 0.5798 0.0
C177 C 0.48013 0.7083 0.7072 0.0
C178 C 0.38232 0.73681 0.70422 0.0
C179 C 0.42251 0.75585 0.66521 0.0
C180 C 0.47119 0.74176 0.66674 0.0
C181 C 0.44145 0.69285 0.74851 0.0
C182 C 0.39302 0.70684 0.74687 0.0
C183 C 0.52537 0.68418 0.70276 0.0
H184 H 0.66782 0.36588 0.5988 0.0
H185 H 0.57602 0.37438 0.60849 0.0
H186 H 0.57745 0.42057 0.44131 0.0
H187 H 0.66973 0.41194 0.43196 0.0
H188 H 0.4154 0.77989 0.63255 0.0
H189 H 0.50073 0.75518 0.63494 0.0
H190 H 0.44737 0.66793 0.78087 0.0
H191 H 0.36317 0.69319 0.77838 0.0
Dy192 Dy 0.02004 0.59734 1.08625 0.0
Dy193 Dy 0.01208 0.49358 0.15743 0.0
C194 C 0.9673 0.58652 0.20627 0.0
O195 O 0.08874 0.62049 0.14506 0.0
O196 O 0.09967 0.54039 0.15668 0.0
O197 O 0.03359 0.67975 1.0775 0.0
O198 O 0.01282 0.63002 1.00781 0.0
O199 O 0.0302 0.47506 1.07271 0.0
O200 O 0.07293 0.55582 1.04202 0.0
O201 O 0.92627 0.47773 0.12655 0.0
O202 O 0.94154 0.54169 1.06194 0.0
O203 O 0.99983 0.41106 0.16419 0.0
O204 O 0.03129 0.46059 0.23191 0.0
C205 C 0.11699 0.59046 0.16372 0.0
O206 O 0.96823 0.60563 0.15719 0.0
O207 O 0.98521 0.54597 0.21586 0.0
C208 C 0.96805 0.69479 1.01648 0.0
C209 C 0.87156 0.72241 0.99492 0.0
C210 C 0.89085 0.72295 1.04792 0.0
C211 C 0.93873 0.70952 1.05854 0.0
C212 C 0.94894 0.69464 0.96338 0.0
C213 C 0.90118 0.7084 0.95267 0.0
C214 C 0.01543 0.6752 1.02804 0.0
C215 C 0.06229 0.50523 1.0377 0.0
C216 C 0.91025 0.50003 1.08467 0.0
C217 C 0.07665 0.39959 0.20891 0.0
C218 C 0.17942 0.3805 0.21259 0.0
C219 C 0.16717 0.41118 0.17148 0.0
C220 C 0.1162 0.42037 0.1695 0.0
C221 C 0.08845 0.36841 0.24975 0.0
C222 C 0.13944 0.3587 0.25142 0.0
C223 C 0.02625 0.41574 0.20974 0.0
H224 H 0.86887 0.73376 1.08116 0.0
H225 H 0.95222 0.70987 1.09981 0.0
H226 H 0.97046 0.68298 0.93029 0.0
H227 H 0.88672 0.70696 0.91147 0.0
H228 H 0.19723 0.4284 0.14117 0.0
H229 H 0.10815 0.44494 0.13784 0.0
H230 H 0.05893 0.3528 0.28103 0.0
H231 H 0.1483 0.33551 0.28405 0.0
C232 C 0.41374 0.31426 0.45354 0.0
C233 C 0.38665 0.32803 0.40888 0.0
C234 C 0.38447 0.28593 0.4967 0.0
C235 C 0.32727 0.27151 0.49708 0.0
H236 H 0.45752 0.3214 0.45286 0.0
H237 H 0.40644 0.27184 0.52783 0.0
S238 S 0.23663 0.30319 0.39396 0.0
N239 N 0.2986 0.32863 0.37095 0.0
N240 N 0.2448 0.27756 0.45262 0.0
C241 C 0.30001 0.28993 0.45592 0.0
C242 C 0.32941 0.3178 0.41166 0.0
C243 C 0.2091 0.78378 0.91225 0.0
C244 C 0.15476 0.77938 0.89719 0.0
C245 C 0.23064 0.80734 0.96048 0.0
C246 C 0.19912 0.82824 0.99524 0.0
H247 H 0.23771 0.77508 0.88432 0.0
H248 H 0.27407 0.81509 0.96677 0.0
S249 S 0.05116 0.81195 0.98432 0.0
N250 N 0.06642 0.78479 0.92906 0.0
N251 N 0.10846 0.8323 1.01856 0.0
C252 C 0.14309 0.81698 0.98526 0.0
C253 C 0.12056 0.79172 0.93651 0.0
C254 C 0.6092 0.40575 0.79318 0.0
C255 C 0.62633 0.43154 0.84234 0.0
C256 C 0.59235 0.43085 0.74897 0.0
C257 C 0.59076 0.48275 0.752 0.0
H258 H 0.60924 0.36582 0.7886 0.0
H259 H 0.57937 0.40891 0.71241 0.0
S260 S 0.63109 0.56794 0.87164 0.0
N261 N 0.64043 0.51242 0.891 0.0
N262 N 0.60869 0.55904 0.80892 0.0
C263 C 0.60784 0.50896 0.80097 0.0
C264 C 0.62559 0.48362 0.84567 0.0
C265 C 0.91661 0.6121 0.34736 0.0
C266 C 0.91223 0.66312 0.34408 0.0
C267 C 0.93396 0.58767 0.30303 0.0
C268 C 0.94712 0.61267 0.25271 0.0
H269 H 0.90717 0.59089 0.38488 0.0
H270 H 0.93693 0.54869 0.30836 0.0
S271 S 0.94155 0.74622 0.22198 0.0
N272 N 0.92162 0.73724 0.28539 0.0
N273 N 0.95457 0.69221 0.20315 0.0
C274 C 0.94261 0.66363 0.24891 0.0
C275 C 0.92524 0.68854 0.2941 0.0
C276 C 0.51226 0.24706 0.25625 0.0
C277 C 0.45778 0.24683 0.26404 0.0
C278 C 0.52519 0.20296 0.23641 0.0
C279 C 0.48382 0.15786 0.22371 0.0
H280 H 0.54471 0.28194 0.26362 0.0
H281 H 0.56726 0.20531 0.22773 0.0
S282 S 0.33591 0.13557 0.2465 0.0
N283 N 0.36332 0.19606 0.2649 0.0
N284 N 0.38711 0.11387 0.22697 0.0
C285 C 0.42969 0.15642 0.23521 0.0
C286 C 0.41676 0.20081 0.25548 0.0
C287 C 0.10963 0.9104 0.76048 0.0
C288 C 0.08927 0.85962 0.74142 0.0
C289 C 0.0885 0.94983 0.74189 0.0
C290 C 0.04561 0.93954 0.70443 0.0
H291 H 0.14283 0.91982 0.78925 0.0
H292 H 0.10615 0.98872 0.75663 0.0
S293 S 0.97804 0.81243 0.64262 0.0
N294 N 0.02439 0.80073 0.68332 0.0
N295 N 0.98341 0.87463 0.64895 0.0
C296 C 0.02422 0.88857 0.6858 0.0
C297 C 0.04652 0.84863 0.70406 0.0
C298 C 0.79203 0.40088 1.01802 0.0
C299 C 0.76054 0.43112 0.99493 0.0
C300 C 0.83858 0.42289 1.04945 0.0
C301 C 0.85669 0.47638 1.05831 0.0
H302 H 0.78128 0.35964 1.01108 0.0
H303 H 0.86175 0.39801 1.0651 0.0
S304 S 0.78901 0.57337 1.01005 0.0
N305 N 0.75027 0.51792 0.98677 0.0
N306 N 0.83918 0.55926 1.04285 0.0
C307 C 0.82591 0.50724 1.03586 0.0
C308 C 0.77776 0.48475 1.00488 0.0
C309 C 0.7295 0.62819 0.46848 0.0
C310 C 0.77677 0.65554 0.49609 0.0
C311 C 0.68053 0.60606 0.49608 0.0
C312 C 0.67637 0.61043 0.55259 0.0
H313 H 0.72975 0.62525 0.42492 0.0
H314 H 0.64521 0.5864 0.47249 0.0
S315 S 0.79005 0.67229 0.64477 0.0
N316 N 0.81753 0.68138 0.58405 0.0
N317 N 0.72553 0.64047 0.63549 0.0
C318 C 0.72381 0.63605 0.58092 0.0
C319 C 0.77385 0.65833 0.55285 0.0
C320 C 0.33249 0.40994 0.2308 0.0
C321 C 0.34004 0.3605 0.2369 0.0
C322 C 0.28073 0.41613 0.2201 0.0
C323 C 0.23461 0.37312 0.21638 0.0
H324 H 0.36625 0.44398 0.23729 0.0
H325 H 0.27626 0.45487 0.21777 0.0
S326 S 0.23273 0.23563 0.22616 0.0
N327 N 0.29704 0.26787 0.23557 0.0
N328 N 0.20023 0.27976 0.2159 0.0
C329 C 0.24198 0.32364 0.21986 0.0
C330 C 0.29458 0.31728 0.22989 0.0
C331 C 0.58424 0.23506 0.94611 0.0
C332 C 0.59484 0.28125 0.97616 0.0
C333 C 0.56342 0.18621 0.9711 0.0
C334 C 0.55317 0.18199 1.02705 0.0
H335 H 0.59491 0.23654 0.90377 0.0
H336 H 0.55828 0.15163 0.94713 0.0
S337 S 0.56607 0.29109 0.12182 0.0
N338 N 0.58672 0.31917 1.06344 0.0
N339 N 0.54962 0.22839 1.11009 0.0
C340 C 0.5605 0.22793 1.0565 0.0
C341 C 0.58069 0.27721 1.03117 0.0
C342 C 0.89115 0.85287 0.47211 0.0
C343 C 0.92415 0.81919 0.46636 0.0
C344 C 0.91098 0.90212 0.49542 0.0
C345 C 0.96493 0.92033 0.5143 0.0
H346 H 0.84888 0.84039 0.45983 0.0
H347 H 0.88308 0.92552 0.49995 0.0
S348 S 0.06865 0.84751 0.50779 0.0
N349 N 0.01389 0.80796 0.48049 0.0
N350 N 0.05159 0.90032 0.52393 0.0
C351 C 0.99905 0.88766 0.507 0.0
C352 C 0.97864 0.83732 0.48316 0.0
C353 C 0.22999 0.71191 0.71057 0.0
C354 C 0.22434 0.76133 0.72053 0.0
C355 C 0.28124 0.70494 0.70025 0.0
C356 C 0.3285 0.74684 0.70112 0.0
H357 H 0.19518 0.67829 0.71404 0.0
H358 H 0.28435 0.66624 0.69421 0.0
S359 S 0.33456 0.88438 0.72013 0.0
N360 N 0.26933 0.85339 0.72561 0.0
N361 N 0.3659 0.83974 0.70769 0.0
C362 C 0.32288 0.79675 0.70689 0.0
C363 C 0.27063 0.80407 0.71647 0.0
C364 C 0.60571 0.83827 0.79606 0.0
C365 C 0.61011 0.7885 0.80843 0.0
C366 C 0.63262 0.86569 0.75173 0.0
C367 C 0.66506 0.84455 0.7182 0.0
H368 H 0.58809 0.85959 0.82426 0.0
H369 H 0.63375 0.90604 0.74839 0.0
S370 S 0.67059 0.70877 0.71948 0.0
N371 N 0.63388 0.71345 0.77296 0.0
N372 N 0.68656 0.76617 0.69036 0.0
C373 C 0.66123 0.79182 0.72393 0.0
C374 C 0.63294 0.76343 0.76877 0.0
C375 C 0.91156 0.3072 0.27566 0.0
C376 C 0.8826 0.32328 0.3173 0.0
C377 C 0.88419 0.27573 0.23356 0.0
C378 C 0.82708 0.26046 0.23108 0.0
H379 H 0.95538 0.31549 0.27801 0.0
H380 H 0.90756 0.26038 0.20492 0.0
S381 S 0.73182 0.29566 0.32627 0.0
N382 N 0.7928 0.32357 0.35064 0.0
N383 N 0.74256 0.26708 0.27034 0.0
C384 C 0.79789 0.28035 0.26917 0.0
C385 C 0.82534 0.31124 0.31258 0.0
C386 C 0.40937 0.60504 0.39819 0.0
C387 C 0.40958 0.65757 0.39905 0.0
C388 C 0.42765 0.58133 0.44272 0.0
C389 C 0.4471 0.60897 0.49037 0.0
H390 H 0.39574 0.58212 0.36237 0.0
H391 H 0.42751 0.54126 0.43926 0.0
S392 S 0.4504 0.74578 0.5161 0.0
N393 N 0.42677 0.73488 0.45403 0.0
N394 N 0.46153 0.69133 0.53647 0.0
C395 C 0.4461 0.66112 0.49218 0.0
C396 C 0.42738 0.68507 0.44705 0.0
C397 C 0.12756 0.48608 0.90208 0.0
C398 C 0.12396 0.43281 0.90148 0.0
C399 C 0.10854 0.50943 0.94618 0.0
C400 C 0.08503 0.48068 0.99196 0.0
H401 H 0.14436 0.5099 0.86762 0.0
H402 H 0.11151 0.55023 0.94387 0.0
S403 S 0.07134 0.34088 1.01333 0.0
N404 N 0.0987 0.35301 0.95281 0.0
N405 N 0.0629 0.39601 1.03484 0.0
C406 C 0.08259 0.42758 0.99237 0.0
C407 C 0.10192 0.40395 0.94752 0.0
C408 C 0.61033 0.88315 1.0057 0.0
C409 C 0.57165 0.83817 0.98793 0.0
C410 C 0.59459 0.92484 1.02667 0.0
C411 C 0.53941 0.9234 1.03107 0.0
H412 H 0.65341 0.88708 1.00145 0.0
H413 H 0.62627 0.95857 1.03937 0.0
S414 S 0.42185 0.81354 0.99216 0.0
N415 N 0.47569 0.79384 0.97719 0.0
N416 N 0.44567 0.87219 1.01742 0.0
C417 C 0.50006 0.87812 1.01465 0.0
C418 C 0.51627 0.83561 0.99279 0.0
C419 C 0.91766 0.22457 0.50119 0.0
C420 C 0.95802 0.26305 0.47515 0.0
C421 C 0.92885 0.18072 0.52232 0.0
C422 C 0.98109 0.17334 0.51865 0.0
H423 H 0.87668 0.22803 0.50475 0.0
H424 H 0.896 0.15257 0.54233 0.0
S425 S 0.10079 0.26258 0.45268 0.0
N426 N 0.05172 0.29082 0.4447 0.0
N427 N 0.0736 0.2083 0.48577 0.0
C428 C 0.02176 0.21105 0.49151 0.0
C429 C 1.01003 0.25592 0.46948 0.0
C430 C 0.25431 0.60542 0.23367 0.0
C431 C 0.26658 0.65558 0.25542 0.0
C432 C 0.20604 0.58457 0.20403 0.0
C433 C 0.16831 0.61318 0.19467 0.0
H434 H 0.28283 0.58266 0.23835 0.0
H435 H 0.1987 0.54599 0.18769 0.0
S436 S 0.1784 0.74398 0.24885 0.0
N437 N 0.23443 0.73123 0.26992 0.0
N438 N 0.14514 0.69298 0.21373 0.0
C439 C 0.17949 0.66274 0.2178 0.0
C440 C 0.22811 0.6836 0.24828 0.0
C441 C 0.29747 0.40721 0.73326 0.0
C442 C 0.26589 0.43742 0.75569 0.0
C443 C 0.34547 0.42943 0.7042 0.0
C444 C 0.36514 0.48323 0.69651 0.0
H445 H 0.28522 0.36568 0.73826 0.0
H446 H 0.36754 0.4039 0.688 0.0
S447 S 0.29991 0.58033 0.74915 0.0
N448 N 0.25875 0.52458 0.76835 0.0
N449 N 0.34998 0.5665 0.71616 0.0
C450 C 0.33488 0.51417 0.71985 0.0
C451 C 0.28536 0.49135 0.74885 0.0
C452 C 0.72239 0.72028 0.99954 0.0
C453 C 0.71907 0.75529 0.95858 0.0
C454 C 0.77221 0.71062 1.01203 0.0
C455 C 0.82009 0.73554 0.98376 0.0
H456 H 0.68608 0.69923 1.02089 0.0
H457 H 0.77299 0.68244 1.04295 0.0
S458 S 0.83386 0.83574 0.87811 0.0
N459 N 0.7686 0.81874 0.89365 0.0
N460 N 0.8618 0.80016 0.91671 0.0
C461 C 0.81753 0.7722 0.94437 0.0
C462 C 0.76713 0.78224 0.93195 0.0
C463 C 0.47599 0.82921 0.25416 0.0
C464 C 0.42261 0.81243 0.27445 0.0
C465 C 0.49583 0.87816 0.22936 0.0
C466 C 0.46305 0.91229 0.22371 0.0
H467 H 0.50167 0.80338 0.25505 0.0
H468 H 0.53639 0.88829 0.21241 0.0
S469 S 0.32242 0.88892 0.27654 0.0
N470 N 0.33931 0.83588 0.292 0.0
N471 N 0.37581 0.92675 0.24555 0.0
C472 C 0.41059 0.89678 0.2466 0.0
C473 C 0.39068 0.84731 0.27189 0.0
C474 C 0.07862 0.24404 0.78963 0.0
C475 C 0.09529 0.29037 0.75968 0.0
C476 C 0.05643 0.19582 0.76395 0.0
C477 C 0.05053 0.19234 0.70743 0.0
H478 H 0.08546 0.24472 0.83278 0.0
H479 H 0.04679 0.16096 0.78809 0.0
S480 S 0.07938 0.30266 0.61178 0.0
N481 N 0.09734 0.32969 0.67119 0.0
N482 N 0.05731 0.24001 0.62338 0.0
C483 C 0.06377 0.23869 0.67775 0.0
C484 C 0.08563 0.28738 0.7037 0.0
C485 C 0.82569 0.42332 0.47747 0.0
C486 C 0.83885 0.37657 0.48608 0.0
C487 C 0.77344 0.42774 0.48872 0.0
C488 C 0.73261 0.38574 0.50945 0.0
H489 H 0.85504 0.45573 0.45893 0.0
H490 H 0.76438 0.46375 0.47952 0.0
S491 S 0.74599 0.25564 0.54132 0.0
N492 N 0.80635 0.28785 0.5183 0.0
N493 N 0.70906 0.29693 0.54038 0.0
C494 C 0.74592 0.33987 0.52117 0.0
C495 C 0.79884 0.33513 0.5094 0.0
loop_
_geom_bond_atom_site_label_1
_geom_bond_atom_site_label_2
_geom_bond_distance
_geom_bond_site_symmetry_2
_ccdc_geom_bond_type
H0 C3 0.931 . S
H1 C6 0.928 . S
H2 C8 0.930 . S
C3 H0 0.931 . S
C3 C4 1.413 . S
C3 C5 1.360 . S
C4 C3 1.413 . S
C4 C8 1.429 . S
C5 C3 1.360 . S
C5 C6 1.372 . S
C6 H1 0.928 . S
C6 C5 1.372 . S
C6 C7 1.404 . S
C7 C6 1.404 . S
C7 C8 1.391 . S
C8 H2 0.930 . S
C8 C4 1.429 . S
C8 C7 1.391 . S
H9 C12 0.931 . S
H10 C15 0.928 . S
H11 C17 0.930 . S
C12 H9 0.931 . S
C12 C13 1.413 . S
C12 C14 1.360 . S
C13 C12 1.413 . S
C13 C17 1.429 . S
C14 C12 1.360 . S
C14 C15 1.372 . S
C15 H10 0.928 . S
C15 C14 1.372 . S
C15 C16 1.404 . S
C16 C15 1.404 . S
C16 C17 1.391 . S
C17 H11 0.930 . S
C17 C13 1.429 . S
C17 C16 1.391 . S
H18 C21 0.931 . S
H19 C24 0.928 . S
H20 C26 0.930 . S
C21 H18 0.931 . S
C21 C22 1.413 . S
C21 C23 1.360 . S
C22 C21 1.413 . S
C22 C26 1.429 . S
C23 C21 1.360 . S
C23 C24 1.372 . S
C24 H19 0.928 . S
C24 C23 1.372 . S
C24 C25 1.404 . S
C25 C24 1.404 . S
C25 C26 1.391 . S
C26 H20 0.930 . S
C26 C22 1.429 . S
C26 C25 1.391 . S
H27 C30 0.931 . S
H28 C33 0.928 . S
H29 C35 0.930 . S
C30 H27 0.931 . S
C30 C31 1.413 . S
C30 C32 1.360 . S
C31 C30 1.413 . S
C31 C35 1.429 . S
C32 C30 1.360 . S
C32 C33 1.372 . S
C33 H28 0.928 . S
C33 C32 1.372 . S
C33 C34 1.404 . S
C34 C33 1.404 . S
C34 C35 1.391 . S
C35 H29 0.930 . S
C35 C31 1.429 . S
C35 C34 1.391 . S
H36 C39 0.931 . S
H37 C42 0.928 . S
H38 C44 0.930 . S
C39 H36 0.931 . S
C39 C40 1.413 . S
C39 C41 1.360 . S
C40 C39 1.413 . S
C40 C44 1.429 . S
C41 C39 1.360 . S
C41 C42 1.372 . S
C42 H37 0.928 . S
C42 C41 1.372 . S
C42 C43 1.404 . S
C43 C42 1.404 . S
C43 C44 1.391 . S
C44 H38 0.930 . S
C44 C40 1.429 . S
C44 C43 1.391 . S
H45 C48 0.931 . S
H46 C51 0.928 . S
H47 C53 0.930 . S
C48 H45 0.931 . S
C48 C49 1.413 . S
C48 C50 1.360 . S
C49 C48 1.413 . S
C49 C53 1.429 . S
C50 C48 1.360 . S
C50 C51 1.372 . S
C51 H46 0.928 . S
C51 C50 1.372 . S
C51 C52 1.404 . S
C52 C51 1.404 . S
C52 C53 1.391 . S
C53 H47 0.930 . S
C53 C49 1.429 . S
C53 C52 1.391 . S
H54 C57 0.931 . S
H55 C60 0.928 . S
H56 C62 0.930 . S
C57 H54 0.931 . S
C57 C58 1.413 . S
C57 C59 1.360 . S
C58 C57 1.413 . S
C58 C62 1.429 . S
C59 C57 1.360 . S
C59 C60 1.372 . S
C60 H55 0.928 . S
C60 C59 1.372 . S
C60 C61 1.404 . S
C61 C60 1.404 . S
C61 C62 1.391 . S
C62 H56 0.930 . S
C62 C58 1.429 . S
C62 C61 1.391 . S
H63 C66 0.931 . S
H64 C69 0.928 . S
H65 C71 0.930 . S
C66 H63 0.931 . S
C66 C67 1.413 . S
C66 C68 1.360 . S
C67 C66 1.413 . S
C67 C71 1.429 . S
C68 C66 1.360 . S
C68 C69 1.372 . S
C69 H64 0.928 . S
C69 C68 1.372 . S
C69 C70 1.404 . S
C70 C69 1.404 . S
C70 C71 1.391 . S
C71 H65 0.930 . S
C71 C67 1.429 . S
C71 C70 1.391 . S
Dy72 O75 2.307 1_545 S
Dy72 O77 2.395 . S
Dy72 O78 2.379 . S
Dy72 O80 2.339 1_545 S
Dy72 O82 2.298 . S
Dy72 O86 2.275 . S
Dy72 C94 2.738 . S
Dy73 O76 2.298 . S
Dy73 O79 2.275 . S
Dy73 O81 2.307 1_565 S
Dy73 O83 2.395 . S
Dy73 O84 2.379 . S
Dy73 O87 2.339 1_565 S
Dy73 C103 2.738 . S
C74 O86 1.254 . S
C74 O87 1.257 1_455 S
O75 Dy72 2.307 1_565 S
O75 C85 1.266 . S
O76 Dy73 2.298 . S
O76 C85 1.236 1_655 S
O77 Dy72 2.395 . S
O77 C94 1.255 . S
O78 Dy72 2.379 . S
O78 C94 1.249 . S
O79 Dy73 2.275 . S
O79 C95 1.254 . S
O80 Dy72 2.339 1_565 S
O80 C95 1.257 1_455 S
O81 Dy73 2.307 1_545 S
O81 C96 1.266 . S
O82 Dy72 2.298 . S
O82 C96 1.236 1_455 S
O83 Dy73 2.395 . S
O83 C103 1.255 . S
O84 Dy73 2.379 . S
O84 C103 1.249 . S
C85 O75 1.266 . S
C85 O76 1.236 1_455 S
O86 Dy72 2.275 . S
O86 C74 1.254 . S
O87 Dy73 2.339 1_545 S
O87 C74 1.257 1_655 S
C88 C91 1.344 . S
C88 C92 1.328 . S
C88 C94 1.516 . S
C89 C90 1.304 . S
C89 C93 1.323 . S
C90 C89 1.304 . S
C90 C91 1.371 . S
C90 H104 0.930 . S
C91 C88 1.344 . S
C91 C90 1.371 . S
C91 H105 0.931 . S
C92 C88 1.328 . S
C92 C93 1.433 . S
C92 H106 0.931 . S
C93 C89 1.323 . S
C93 C92 1.433 . S
C93 H107 0.933 . S
C94 Dy72 2.738 . S
C94 O77 1.255 . S
C94 O78 1.249 . S
C94 C88 1.516 . S
C95 O79 1.254 . S
C95 O80 1.257 1_655 S
C96 O81 1.266 . S
C96 O82 1.236 1_655 S
C97 C100 1.344 . S
C97 C101 1.328 . S
C97 C103 1.516 . S
C98 C99 1.304 . S
C98 C102 1.323 . S
C99 C98 1.304 . S
C99 C100 1.371 . S
C99 H108 0.930 . S
C100 C97 1.344 . S
C100 C99 1.371 . S
C100 H109 0.931 . S
C101 C97 1.328 . S
C101 C102 1.433 . S
C101 H110 0.931 . S
C102 C98 1.323 . S
C102 C101 1.433 . S
C102 H111 0.933 . S
C103 Dy73 2.738 . S
C103 O83 1.255 . S
C103 O84 1.249 . S
C103 C97 1.516 . S
H104 C90 0.930 . S
H105 C91 0.931 . S
H106 C92 0.931 . S
H107 C93 0.933 . S
H108 C99 0.930 . S
H109 C100 0.931 . S
H110 C101 0.931 . S
H111 C102 0.933 . S
Dy112 O115 2.307 1_566 S
Dy112 O117 2.395 . S
Dy112 O118 2.379 . S
Dy112 O120 2.339 1_565 S
Dy112 O122 2.298 . S
Dy112 O126 2.275 1_556 S
Dy112 C134 2.738 . S
Dy113 O116 2.298 . S
Dy113 O119 2.275 1_554 S
Dy113 O121 2.307 1_544 S
Dy113 O123 2.395 . S
Dy113 O124 2.379 . S
Dy113 O127 2.339 1_545 S
Dy113 C143 2.738 . S
C114 O126 1.254 . S
C114 O127 1.257 . S
O115 Dy112 2.307 1_544 S
O115 C125 1.266 . S
O116 Dy113 2.298 . S
O116 C125 1.236 . S
O117 Dy112 2.395 . S
O117 C134 1.255 . S
O118 Dy112 2.379 . S
O118 C134 1.249 . S
O119 Dy113 2.275 1_556 S
O119 C135 1.254 . S
O120 Dy112 2.339 1_545 S
O120 C135 1.257 . S
O121 Dy113 2.307 1_566 S
O121 C136 1.266 . S
O122 Dy112 2.298 . S
O122 C136 1.236 . S
O123 Dy113 2.395 . S
O123 C143 1.255 . S
O124 Dy113 2.379 . S
O124 C143 1.249 . S
C125 O115 1.266 . S
C125 O116 1.236 . S
O126 Dy112 2.275 1_554 S
O126 C114 1.254 . S
O127 Dy113 2.339 1_565 S
O127 C114 1.257 . S
C128 C131 1.344 . S
C128 C132 1.328 . S
C128 C134 1.516 . S
C129 C130 1.304 . S
C129 C133 1.323 . S
C130 C129 1.304 . S
C130 C131 1.371 . S
C130 H144 0.930 . S
C131 C128 1.344 . S
C131 C130 1.371 . S
C131 H145 0.931 . S
C132 C128 1.328 . S
C132 C133 1.433 . S
C132 H146 0.931 . S
C133 C129 1.323 . S
C133 C132 1.433 . S
C133 H147 0.933 . S
C134 Dy112 2.738 . S
C134 O117 1.255 . S
C134 O118 1.249 . S
C134 C128 1.516 . S
C135 O119 1.254 . S
C135 O120 1.257 . S
C136 O121 1.266 . S
C136 O122 1.236 . S
C137 C140 1.344 . S
C137 C141 1.328 . S
C137 C143 1.516 . S
C138 C139 1.304 . S
C138 C142 1.323 . S
C139 C138 1.304 . S
C139 C140 1.371 . S
C139 H148 0.930 . S
C140 C137 1.344 . S
C140 C139 1.371 . S
C140 H149 0.931 . S
C141 C137 1.328 . S
C141 C142 1.433 . S
C141 H150 0.931 . S
C142 C138 1.323 . S
C142 C141 1.433 . S
C142 H151 0.933 . S
C143 Dy113 2.738 . S
C143 O123 1.255 . S
C143 O124 1.249 . S
C143 C137 1.516 . S
H144 C130 0.930 . S
H145 C131 0.931 . S
H146 C132 0.931 . S
H147 C133 0.933 . S
H148 C139 0.930 . S
H149 C140 0.931 . S
H150 C141 0.931 . S
H151 C142 0.933 . S
Dy152 O155 2.307 . S
Dy152 O157 2.395 . S
Dy152 O158 2.379 . S
Dy152 O160 2.339 . S
Dy152 O162 2.298 . S
Dy152 O166 2.275 . S
Dy152 C174 2.738 . S
Dy153 O156 2.298 . S
Dy153 O159 2.275 . S
Dy153 O161 2.307 . S
Dy153 O163 2.395 . S
Dy153 O164 2.379 . S
Dy153 O167 2.339 . S
Dy153 C183 2.738 . S
C154 O166 1.254 . S
C154 O167 1.257 . S
O155 Dy152 2.307 . S
O155 C165 1.266 . S
O156 Dy153 2.298 . S
O156 C165 1.236 . S
O157 Dy152 2.395 . S
O157 C174 1.255 . S
O158 Dy152 2.379 . S
O158 C174 1.249 . S
O159 Dy153 2.275 . S
O159 C175 1.254 . S
O160 Dy152 2.339 . S
O160 C175 1.257 . S
O161 Dy153 2.307 . S
O161 C176 1.266 . S
O162 Dy152 2.298 . S
O162 C176 1.236 . S
O163 Dy153 2.395 . S
O163 C183 1.255 . S
O164 Dy153 2.379 . S
O164 C183 1.249 . S
C165 O155 1.266 . S
C165 O156 1.236 . S
O166 Dy152 2.275 . S
O166 C154 1.254 . S
O167 Dy153 2.339 . S
O167 C154 1.257 . S
C168 C171 1.344 . S
C168 C172 1.328 . S
C168 C174 1.516 . S
C169 C170 1.304 . S
C169 C173 1.323 . S
C170 C169 1.304 . S
C170 C171 1.371 . S
C170 H184 0.930 . S
C171 C168 1.344 . S
C171 C170 1.371 . S
C171 H185 0.931 . S
C172 C168 1.328 . S
C172 C173 1.433 . S
C172 H186 0.931 . S
C173 C169 1.323 . S
C173 C172 1.433 . S
C173 H187 0.933 . S
C174 Dy152 2.738 . S
C174 O157 1.255 . S
C174 O158 1.249 . S
C174 C168 1.516 . S
C175 O159 1.254 . S
C175 O160 1.257 . S
C176 O161 1.266 . S
C176 O162 1.236 . S
C177 C180 1.344 . S
C177 C181 1.328 . S
C177 C183 1.516 . S
C178 C179 1.304 . S
C178 C182 1.323 . S
C179 C178 1.304 . S
C179 C180 1.371 . S
C179 H188 0.930 . S
C180 C177 1.344 . S
C180 C179 1.371 . S
C180 H189 0.931 . S
C181 C177 1.328 . S
C181 C182 1.433 . S
C181 H190 0.931 . S
C182 C178 1.323 . S
C182 C181 1.433 . S
C182 H191 0.933 . S
C183 Dy153 2.738 . S
C183 O163 1.255 . S
C183 O164 1.249 . S
C183 C177 1.516 . S
H184 C170 0.930 . S
H185 C171 0.931 . S
H186 C172 0.931 . S
H187 C173 0.933 . S
H188 C179 0.930 . S
H189 C180 0.931 . S
H190 C181 0.931 . S
H191 C182 0.933 . S
Dy192 O195 2.307 1_656 S
Dy192 O197 2.395 . S
Dy192 O198 2.379 . S
Dy192 O200 2.339 1_655 S
Dy192 O202 2.298 . S
Dy192 O206 2.275 1_556 S
Dy192 C214 2.738 . S
Dy193 O196 2.298 . S
Dy193 O199 2.275 1_554 S
Dy193 O201 2.307 1_455 S
Dy193 O203 2.395 . S
Dy193 O204 2.379 . S
Dy193 O207 2.339 1_455 S
Dy193 C223 2.738 . S
C194 O206 1.254 . S
C194 O207 1.257 . S
O195 Dy192 2.307 1_454 S
O195 C205 1.266 . S
O196 Dy193 2.298 . S
O196 C205 1.236 . S
O197 Dy192 2.395 . S
O197 C214 1.255 . S
O198 Dy192 2.379 . S
O198 C214 1.249 . S
O199 Dy193 2.275 1_556 S
O199 C215 1.254 . S
O200 Dy192 2.339 1_455 S
O200 C215 1.257 . S
O201 Dy193 2.307 1_655 S
O201 C216 1.266 1_554 S
O202 Dy192 2.298 . S
O202 C216 1.236 . S
O203 Dy193 2.395 . S
O203 C223 1.255 . S
O204 Dy193 2.379 . S
O204 C223 1.249 . S
C205 O195 1.266 . S
C205 O196 1.236 . S
O206 Dy192 2.275 1_554 S
O206 C194 1.254 . S
O207 Dy193 2.339 1_655 S
O207 C194 1.257 . S
C208 C211 1.344 . S
C208 C212 1.328 . S
C208 C214 1.516 . S
C209 C210 1.304 . S
C209 C213 1.323 . S
C210 C209 1.304 . S
C210 C211 1.371 . S
C210 H224 0.930 . S
C211 C208 1.344 . S
C211 C210 1.371 . S
C211 H225 0.931 . S
C212 C208 1.328 . S
C212 C213 1.433 . S
C212 H226 0.931 . S
C213 C209 1.323 . S
C213 C212 1.433 . S
C213 H227 0.933 . S
C214 Dy192 2.738 . S
C214 O197 1.255 . S
C214 O198 1.249 . S
C214 C208 1.516 . S
C215 O199 1.254 . S
C215 O200 1.257 . S
C216 O201 1.266 1_556 S
C216 O202 1.236 . S
C217 C220 1.344 . S
C217 C221 1.328 . S
C217 C223 1.516 . S
C218 C219 1.304 . S
C218 C222 1.323 . S
C219 C218 1.304 . S
C219 C220 1.371 . S
C219 H228 0.930 . S
C220 C217 1.344 . S
C220 C219 1.371 . S
C220 H229 0.931 . S
C221 C217 1.328 . S
C221 C222 1.433 . S
C221 H230 0.931 . S
C222 C218 1.323 . S
C222 C221 1.433 . S
C222 H231 0.933 . S
C223 Dy193 2.738 . S
C223 O203 1.255 . S
C223 O204 1.249 . S
C223 C217 1.516 . S
H224 C210 0.930 . S
H225 C211 0.931 . S
H226 C212 0.931 . S
H227 C213 0.933 . S
H228 C219 0.930 . S
H229 C220 0.931 . S
H230 C221 0.931 . S
H231 C222 0.933 . S
C232 C233 1.369 . S
C232 C234 1.419 . S
C232 H236 0.930 . S
C233 C232 1.369 . S
C233 C242 1.429 . S
C234 C232 1.419 . S
C234 C235 1.363 . S
C234 H237 0.929 . S
C235 C234 1.363 . S
C235 C241 1.428 . S
H236 C232 0.930 . S
H237 C234 0.929 . S
S238 N239 1.613 . S
S238 N240 1.610 . S
N239 S238 1.613 . S
N239 C242 1.350 . S
N240 S238 1.610 . S
N240 C241 1.351 . S
C241 C235 1.428 . S
C241 N240 1.351 . S
C241 C242 1.434 . S
C242 C233 1.429 . S
C242 N239 1.350 . S
C242 C241 1.434 . S
C243 C244 1.369 . S
C243 C245 1.419 . S
C243 H247 0.930 . S
C244 C243 1.369 . S
C244 C253 1.429 . S
C245 C243 1.419 . S
C245 C246 1.363 . S
C245 H248 0.929 . S
C246 C245 1.363 . S
C246 C252 1.428 . S
H247 C243 0.930 . S
H248 C245 0.929 . S
S249 N250 1.613 . S
S249 N251 1.610 . S
N250 S249 1.613 . S
N250 C253 1.350 . S
N251 S249 1.610 . S
N251 C252 1.351 . S
C252 C246 1.428 . S
C252 N251 1.351 . S
C252 C253 1.434 . S
C253 C244 1.429 . S
C253 N250 1.350 . S
C253 C252 1.434 . S
C254 C255 1.369 . S
C254 C256 1.419 . S
C254 H258 0.930 . S
C255 C254 1.369 . S
C255 C264 1.429 . S
C256 C254 1.419 . S
C256 C257 1.363 . S
C256 H259 0.929 . S
C257 C256 1.363 . S
C257 C263 1.428 . S
H258 C254 0.930 . S
H259 C256 0.929 . S
S260 N261 1.613 . S
S260 N262 1.610 . S
N261 S260 1.613 . S
N261 C264 1.350 . S
N262 S260 1.610 . S
N262 C263 1.351 . S
C263 C257 1.428 . S
C263 N262 1.351 . S
C263 C264 1.434 . S
C264 C255 1.429 . S
C264 N261 1.350 . S
C264 C263 1.434 . S
C265 C266 1.369 . S
C265 C267 1.419 . S
C265 H269 0.930 . S
C266 C265 1.369 . S
C266 C275 1.429 . S
C267 C265 1.419 . S
C267 C268 1.363 . S
C267 H270 0.929 . S
C268 C267 1.363 . S
C268 C274 1.428 . S
H269 C265 0.930 . S
H270 C267 0.929 . S
S271 N272 1.613 . S
S271 N273 1.610 . S
N272 S271 1.613 . S
N272 C275 1.350 . S
N273 S271 1.610 . S
N273 C274 1.351 . S
C274 C268 1.428 . S
C274 N273 1.351 . S
C274 C275 1.434 . S
C275 C266 1.429 . S
C275 N272 1.350 . S
C275 C274 1.434 . S
C276 C277 1.369 . S
C276 C278 1.419 . S
C276 H280 0.930 . S
C277 C276 1.369 . S
C277 C286 1.429 . S
C278 C276 1.419 . S
C278 C279 1.363 . S
C278 H281 0.929 . S
C279 C278 1.363 . S
C279 C285 1.428 . S
H280 C276 0.930 . S
H281 C278 0.929 . S
S282 N283 1.613 . S
S282 N284 1.610 . S
N283 S282 1.613 . S
N283 C286 1.350 . S
N284 S282 1.610 . S
N284 C285 1.351 . S
C285 C279 1.428 . S
C285 N284 1.351 . S
C285 C286 1.434 . S
C286 C277 1.429 . S
C286 N283 1.350 . S
C286 C285 1.434 . S
C287 C288 1.369 . S
C287 C289 1.419 . S
C287 H291 0.930 . S
C288 C287 1.369 . S
C288 C297 1.429 . S
C289 C287 1.419 . S
C289 C290 1.363 . S
C289 H292 0.929 . S
C290 C289 1.363 . S
C290 C296 1.428 . S
H291 C287 0.930 . S
H292 C289 0.929 . S
S293 N294 1.613 . S
S293 N295 1.610 . S
N294 S293 1.613 . S
N294 C297 1.350 1_655 S
N295 S293 1.610 . S
N295 C296 1.351 1_655 S
C296 C290 1.428 . S
C296 N295 1.351 1_455 S
C296 C297 1.434 . S
C297 C288 1.429 . S
C297 N294 1.350 1_455 S
C297 C296 1.434 . S
C298 C299 1.369 . S
C298 C300 1.419 . S
C298 H302 0.930 . S
C299 C298 1.369 . S
C299 C308 1.429 . S
C300 C298 1.419 . S
C300 C301 1.363 . S
C300 H303 0.929 . S
C301 C300 1.363 . S
C301 C307 1.428 . S
H302 C298 0.930 . S
H303 C300 0.929 . S
S304 N305 1.613 . S
S304 N306 1.610 . S
N305 S304 1.613 . S
N305 C308 1.350 . S
N306 S304 1.610 . S
N306 C307 1.351 . S
C307 C301 1.428 . S
C307 N306 1.351 . S
C307 C308 1.434 . S
C308 C299 1.429 . S
C308 N305 1.350 . S
C308 C307 1.434 . S
C309 C310 1.369 . S
C309 C311 1.419 . S
C309 H313 0.930 . S
C310 C309 1.369 . S
C310 C319 1.429 . S
C311 C309 1.419 . S
C311 C312 1.363 . S
C311 H314 0.929 . S
C312 C311 1.363 . S
C312 C318 1.428 . S
H313 C309 0.930 . S
H314 C311 0.929 . S
S315 N316 1.613 . S
S315 N317 1.610 . S
N316 S315 1.613 . S
N316 C319 1.350 . S
N317 S315 1.610 . S
N317 C318 1.351 . S
C318 C312 1.428 . S
C318 N317 1.351 . S
C318 C319 1.434 . S
C319 C310 1.429 . S
C319 N316 1.350 . S
C319 C318 1.434 . S
C320 C321 1.369 . S
C320 C322 1.419 . S
C320 H324 0.930 . S
C321 C320 1.369 . S
C321 C330 1.429 . S
C322 C320 1.419 . S
C322 C323 1.363 . S
C322 H325 0.929 . S
C323 C322 1.363 . S
C323 C329 1.428 . S
H324 C320 0.930 . S
H325 C322 0.929 . S
S326 N327 1.613 . S
S326 N328 1.610 . S
N327 S326 1.613 . S
N327 C330 1.350 . S
N328 S326 1.610 . S
N328 C329 1.351 . S
C329 C323 1.428 . S
C329 N328 1.351 . S
C329 C330 1.434 . S
C330 C321 1.429 . S
C330 N327 1.350 . S
C330 C329 1.434 . S
C331 C332 1.369 . S
C331 C333 1.419 . S
C331 H335 0.930 . S
C332 C331 1.369 . S
C332 C341 1.429 . S
C333 C331 1.419 . S
C333 C334 1.363 . S
C333 H336 0.929 . S
C334 C333 1.363 . S
C334 C340 1.428 . S
H335 C331 0.930 . S
H336 C333 0.929 . S
S337 N338 1.613 . S
S337 N339 1.610 . S
N338 S337 1.613 . S
N338 C341 1.350 . S
N339 S337 1.610 . S
N339 C340 1.351 . S
C340 C334 1.428 . S
C340 N339 1.351 . S
C340 C341 1.434 . S
C341 C332 1.429 . S
C341 N338 1.350 . S
C341 C340 1.434 . S
C342 C343 1.369 . S
C342 C344 1.419 . S
C342 H346 0.930 . S
C343 C342 1.369 . S
C343 C352 1.429 . S
C344 C342 1.419 . S
C344 C345 1.363 . S
C344 H347 0.929 . S
C345 C344 1.363 . S
C345 C351 1.428 . S
H346 C342 0.930 . S
H347 C344 0.929 . S
S348 N349 1.613 1_455 S
S348 N350 1.610 . S
N349 S348 1.613 1_655 S
N349 C352 1.350 . S
N350 S348 1.610 . S
N350 C351 1.351 1_455 S
C351 C345 1.428 . S
C351 N350 1.351 1_655 S
C351 C352 1.434 . S
C352 C343 1.429 . S
C352 N349 1.350 . S
C352 C351 1.434 . S
C353 C354 1.369 . S
C353 C355 1.419 . S
C353 H357 0.930 . S
C354 C353 1.369 . S
C354 C363 1.429 . S
C355 C353 1.419 . S
C355 C356 1.363 . S
C355 H358 0.929 . S
C356 C355 1.363 . S
C356 C362 1.428 . S
H357 C353 0.930 . S
H358 C355 0.929 . S
S359 N360 1.613 . S
S359 N361 1.610 . S
N360 S359 1.613 . S
N360 C363 1.350 . S
N361 S359 1.610 . S
N361 C362 1.351 . S
C362 C356 1.428 . S
C362 N361 1.351 . S
C362 C363 1.434 . S
C363 C354 1.429 . S
C363 N360 1.350 . S
C363 C362 1.434 . S
C364 C365 1.369 . S
C364 C366 1.419 . S
C364 H368 0.930 . S
C365 C364 1.369 . S
C365 C374 1.429 . S
C366 C364 1.419 . S
C366 C367 1.363 . S
C366 H369 0.929 . S
C367 C366 1.363 . S
C367 C373 1.428 . S
H368 C364 0.930 . S
H369 C366 0.929 . S
S370 N371 1.613 . S
S370 N372 1.610 . S
N371 S370 1.613 . S
N371 C374 1.350 . S
N372 S370 1.610 . S
N372 C373 1.351 . S
C373 C367 1.428 . S
C373 N372 1.351 . S
C373 C374 1.434 . S
C374 C365 1.429 . S
C374 N371 1.350 . S
C374 C373 1.434 . S
C375 C376 1.369 . S
C375 C377 1.419 . S
C375 H379 0.930 . S
C376 C375 1.369 . S
C376 C385 1.429 . S
C377 C375 1.419 . S
C377 C378 1.363 . S
C377 H380 0.929 . S
C378 C377 1.363 . S
C378 C384 1.428 . S
H379 C375 0.930 . S
H380 C377 0.929 . S
S381 N382 1.613 . S
S381 N383 1.610 . S
N382 S381 1.613 . S
N382 C385 1.350 . S
N383 S381 1.610 . S
N383 C384 1.351 . S
C384 C378 1.428 . S
C384 N383 1.351 . S
C384 C385 1.434 . S
C385 C376 1.429 . S
C385 N382 1.350 . S
C385 C384 1.434 . S
C386 C387 1.369 . S
C386 C388 1.419 . S
C386 H390 0.930 . S
C387 C386 1.369 . S
C387 C396 1.429 . S
C388 C386 1.419 . S
C388 C389 1.363 . S
C388 H391 0.929 . S
C389 C388 1.363 . S
C389 C395 1.428 . S
H390 C386 0.930 . S
H391 C388 0.929 . S
S392 N393 1.613 . S
S392 N394 1.610 . S
N393 S392 1.613 . S
N393 C396 1.350 . S
N394 S392 1.610 . S
N394 C395 1.351 . S
C395 C389 1.428 . S
C395 N394 1.351 . S
C395 C396 1.434 . S
C396 C387 1.429 . S
C396 N393 1.350 . S
C396 C395 1.434 . S
C397 C398 1.369 . S
C397 C399 1.419 . S
C397 H401 0.930 . S
C398 C397 1.369 . S
C398 C407 1.429 . S
C399 C397 1.419 . S
C399 C400 1.363 . S
C399 H402 0.929 . S
C400 C399 1.363 . S
C400 C406 1.428 . S
H401 C397 0.930 . S
H402 C399 0.929 . S
S403 N404 1.613 . S
S403 N405 1.610 . S
N404 S403 1.613 . S
N404 C407 1.350 . S
N405 S403 1.610 . S
N405 C406 1.351 . S
C406 C400 1.428 . S
C406 N405 1.351 . S
C406 C407 1.434 . S
C407 C398 1.429 . S
C407 N404 1.350 . S
C407 C406 1.434 . S
C408 C409 1.369 . S
C408 C410 1.419 . S
C408 H412 0.930 . S
C409 C408 1.369 . S
C409 C418 1.429 . S
C410 C408 1.419 . S
C410 C411 1.363 . S
C410 H413 0.929 . S
C411 C410 1.363 . S
C411 C417 1.428 . S
H412 C408 0.930 . S
H413 C410 0.929 . S
S414 N415 1.613 . S
S414 N416 1.610 . S
N415 S414 1.613 . S
N415 C418 1.350 . S
N416 S414 1.610 . S
N416 C417 1.351 . S
C417 C411 1.428 . S
C417 N416 1.351 . S
C417 C418 1.434 . S
C418 C409 1.429 . S
C418 N415 1.350 . S
C418 C417 1.434 . S
C419 C420 1.369 . S
C419 C421 1.419 . S
C419 H423 0.930 . S
C420 C419 1.369 . S
C420 C429 1.429 . S
C421 C419 1.419 . S
C421 C422 1.363 . S
C421 H424 0.929 . S
C422 C421 1.363 . S
C422 C428 1.428 . S
H423 C419 0.930 . S
H424 C421 0.929 . S
S425 N426 1.613 . S
S425 N427 1.610 . S
N426 S425 1.613 . S
N426 C429 1.350 1_455 S
N427 S425 1.610 . S
N427 C428 1.351 1_455 S
C428 C422 1.428 . S
C428 N427 1.351 1_655 S
C428 C429 1.434 . S
C429 C420 1.429 . S
C429 N426 1.350 1_655 S
C429 C428 1.434 . S
C430 C431 1.369 . S
C430 C432 1.419 . S
C430 H434 0.930 . S
C431 C430 1.369 . S
C431 C440 1.429 . S
C432 C430 1.419 . S
C432 C433 1.363 . S
C432 H435 0.929 . S
C433 C432 1.363 . S
C433 C439 1.428 . S
H434 C430 0.930 . S
H435 C432 0.929 . S
S436 N437 1.613 . S
S436 N438 1.610 . S
N437 S436 1.613 . S
N437 C440 1.350 . S
N438 S436 1.610 . S
N438 C439 1.351 . S
C439 C433 1.428 . S
C439 N438 1.351 . S
C439 C440 1.434 . S
C440 C431 1.429 . S
C440 N437 1.350 . S
C440 C439 1.434 . S
C441 C442 1.369 . S
C441 C443 1.419 . S
C441 H445 0.930 . S
C442 C441 1.369 . S
C442 C451 1.429 . S
C443 C441 1.419 . S
C443 C444 1.363 . S
C443 H446 0.929 . S
C444 C443 1.363 . S
C444 C450 1.428 . S
H445 C441 0.930 . S
H446 C443 0.929 . S
S447 N448 1.613 . S
S447 N449 1.610 . S
N448 S447 1.613 . S
N448 C451 1.350 . S
N449 S447 1.610 . S
N449 C450 1.351 . S
C450 C444 1.428 . S
C450 N449 1.351 . S
C450 C451 1.434 . S
C451 C442 1.429 . S
C451 N448 1.350 . S
C451 C450 1.434 . S
C452 C453 1.369 . S
C452 C454 1.419 . S
C452 H456 0.930 . S
C453 C452 1.369 . S
C453 C462 1.429 . S
C454 C452 1.419 . S
C454 C455 1.363 . S
C454 H457 0.929 . S
C455 C454 1.363 . S
C455 C461 1.428 . S
H456 C452 0.930 . S
H457 C454 0.929 . S
S458 N459 1.613 . S
S458 N460 1.610 . S
N459 S458 1.613 . S
N459 C462 1.350 . S
N460 S458 1.610 . S
N460 C461 1.351 . S
C461 C455 1.428 . S
C461 N460 1.351 . S
C461 C462 1.434 . S
C462 C453 1.429 . S
C462 N459 1.350 . S
C462 C461 1.434 . S
C463 C464 1.369 . S
C463 C465 1.419 . S
C463 H467 0.930 . S
C464 C463 1.369 . S
C464 C473 1.429 . S
C465 C463 1.419 . S
C465 C466 1.363 . S
C465 H468 0.929 . S
C466 C465 1.363 . S
C466 C472 1.428 . S
H467 C463 0.930 . S
H468 C465 0.929 . S
S469 N470 1.613 . S
S469 N471 1.610 . S
N470 S469 1.613 . S
N470 C473 1.350 . S
N471 S469 1.610 . S
N471 C472 1.351 . S
C472 C466 1.428 . S
C472 N471 1.351 . S
C472 C473 1.434 . S
C473 C464 1.429 . S
C473 N470 1.350 . S
C473 C472 1.434 . S
C474 C475 1.369 . S
C474 C476 1.419 . S
C474 H478 0.930 . S
C475 C474 1.369 . S
C475 C484 1.429 . S
C476 C474 1.419 . S
C476 C477 1.363 . S
C476 H479 0.929 . S
C477 C476 1.363 . S
C477 C483 1.428 . S
H478 C474 0.930 . S
H479 C476 0.929 . S
S480 N481 1.613 . S
S480 N482 1.610 . S
N481 S480 1.613 . S
N481 C484 1.350 . S
N482 S480 1.610 . S
N482 C483 1.351 . S
C483 C477 1.428 . S
C483 N482 1.351 . S
C483 C484 1.434 . S
C484 C475 1.429 . S
C484 N481 1.350 . S
C484 C483 1.434 . S
C485 C486 1.369 . S
C485 C487 1.419 . S
C485 H489 0.930 . S
C486 C485 1.369 . S
C486 C495 1.429 . S
C487 C485 1.419 . S
C487 C488 1.363 . S
C487 H490 0.929 . S
C488 C487 1.363 . S
C488 C494 1.428 . S
H489 C485 0.930 . S
H490 C487 0.929 . S
S491 N492 1.613 . S
S491 N493 1.610 . S
N492 S491 1.613 . S
N492 C495 1.350 . S
N493 S491 1.610 . S
N493 C494 1.351 . S
C494 C488 1.428 . S
C494 N493 1.351 . S
C494 C495 1.434 . S
C495 C486 1.429 . S
C495 N492 1.350 . S
C495 C494 1.434 . S
C233 C5 0.977 . S
C235 C89 1.012 . S
C244 C14 0.974 . S
C246 C129 1.001 . S
C257 C154 2.502 . S
C255 C25 2.561 . S
C266 C34 2.559 . S
C268 C194 2.502 . S
C279 C125 1.547 . S
C277 C7 1.435 . S
C290 C85 1.561 . S
C288 C13 1.455 . S
C301 C216 1.823 . S
C299 C23 1.870 . S
C312 C176 1.825 . S
C310 C31 1.865 . S
C321 C4 1.291 . S
C323 C218 1.339 . S
C334 C135 2.236 . S
C332 C22 2.281 . S
C343 C32 2.294 . S
C345 C95 2.245 . S
C354 C16 1.280 . S
C356 C178 1.329 . S
C367 C98 1.001 . S
C365 C41 0.978 . S
C376 C50 0.969 . S
C378 C138 1.009 . S
C387 C61 2.555 . S
C389 C175 2.500 . S
C398 C67 2.567 . S
C400 C215 2.510 . S
C409 C40 1.455 . S
C411 C136 1.562 . S
C422 C96 1.548 . S
C420 C52 1.429 . S
C433 C205 1.826 . S
C431 C59 1.872 . S
C444 C165 1.822 . S
C442 C70 1.862 . S
C453 C43 1.279 . S
C455 C209 1.334 . S
C466 C114 2.247 . S
C464 C58 2.291 . S
C477 C74 2.235 . S
C475 C68 2.274 . S
C486 C49 1.289 . S
C488 C169 1.337 . S
