# Generated by pormake.
# Topology tsx, (6,3)-cn, num edge types: 1
# Building blocks:
#     Node 0, Type 0, BuildingBlock: MIDCAF_clean_sbu_0, # of connection points: 6
#     Node 1, Type 0, BuildingBlock: MIDCAF_clean_sbu_0, # of connection points: 6
#     Node 2, Type 1, BuildingBlock: ESEHIV_clean_linker_0, # of connection points: 3
#     Node 3, Type 1, BuildingBlock: ESEHIV_clean_linker_0, # of connection points: 3
#     Node 4, Type 1, BuildingBlock: ESEHIV_clean_linker_0, # of connection points: 3
#     Node 5, Type 1, BuildingBlock: ESEHIV_clean_linker_0, # of connection points: 3
#     Edge 6, Type (0, 1), BuildingBlock: TEMPAE_clean_linker_10, # of connection points: 2
#     Edge 7, Type (0, 1), BuildingBlock: TEMPAE_clean_linker_10, # of connection points: 2
#     Edge 8, Type (0, 1), BuildingBlock: TEMPAE_clean_linker_10, # of connection points: 2
#     Edge 9, Type (0, 1), BuildingBlock: TEMPAE_clean_linker_10, # of connection points: 2
#     Edge 10, Type (0, 1), BuildingBlock: TEMPAE_clean_linker_10, # of connection points: 2
#     Edge 11, Type (0, 1), BuildingBlock: TEMPAE_clean_linker_10, # of connection points: 2
#     Edge 12, Type (0, 1), BuildingBlock: TEMPAE_clean_linker_10, # of connection points: 2
#     Edge 13, Type (0, 1), BuildingBlock: TEMPAE_clean_linker_10, # of connection points: 2
#     Edge 14, Type (0, 1), BuildingBlock: TEMPAE_clean_linker_10, # of connection points: 2
#     Edge 15, Type (0, 1), BuildingBlock: TEMPAE_clean_linker_10, # of connection points: 2
#     Edge 16, Type (0, 1), BuildingBlock: TEMPAE_clean_linker_10, # of connection points: 2
#     Edge 17, Type (0, 1), BuildingBlock: TEMPAE_clean_linker_10, # of connection points: 2
# Relax obj value: 0.118
# Max RMSD: 0.182
# Mean RMSD: 0.113
data_MOF--net-tsx--node1-MIDCAF_clean_sbu_0--node2-ESEHIV_clean_linker_0--edge1-TEMPAE_clean_linker_10
_symmetry_space_group_name_H-M    P1
_symmetry_Int_Tables_number       1
_symmetry_cell_setting            triclinic
loop_
_symmetry_equiv_pos_as_xyz
'x, y, z'
_cell_length_a     18.455094
_cell_length_b     19.175879
_cell_length_c     36.438666
_cell_angle_alpha  90.843336
_cell_angle_beta   95.344697
_cell_angle_gamma 90.191403
loop_
_atom_site_label
_atom_site_type_symbol
_atom_site_fract_x
_atom_site_fract_y
_atom_site_fract_z
_atom_type_partial_charge
Zn0 Zn 0.95165 0.00239 0.98785 0.0
Zn1 Zn 0.18558 0.00786 0.04113 0.0
Zn2 Zn 0.06832 0.01062 0.01388 0.0
C3 C 0.17515 0.13457 0.01059 0.0
C4 C 0.17841 0.8933 0.99763 0.0
O5 O 0.00589 0.94289 0.04981 0.0
O6 O 0.92769 0.90825 0.00386 0.0
C7 C 0.96248 0.1349 0.01177 0.0
O8 O 0.10892 0.12001 0.01615 0.0
O9 O 0.22142 0.08609 0.01199 0.0
O10 O 0.20828 0.91038 0.02898 0.0
O11 O 0.12953 0.93357 0.9817 0.0
O12 O 0.91665 0.08636 0.01366 0.0
O13 O 0.02825 0.11915 0.00591 0.0
O14 O 0.07593 0.96392 0.95865 0.0
O15 O 0.97229 0.0093 0.93574 0.0
C16 C 0.03147 0.97949 0.9306 0.0
O17 O 0.05889 0.97865 0.07108 0.0
O18 O 0.16338 0.02614 0.09265 0.0
C19 C 0.95695 0.89925 0.03603 0.0
C20 C 0.10285 -0.00022 0.09859 0.0
Zn21 Zn 0.59817 0.53913 0.57242 0.0
Zn22 Zn 0.40453 0.53677 0.45707 0.0
Zn23 Zn 0.49904 0.53722 0.51653 0.0
C24 C 0.52857 0.47701 0.43503 0.0
C25 C 0.42379 0.67517 0.47987 0.0
O26 O 0.45402 0.4795 0.5619 0.0
O27 O 0.54944 0.47424 0.60336 0.0
C28 C 0.66499 0.48022 0.51586 0.0
O29 O 0.55018 0.49053 0.46906 0.0
O30 O 0.46486 0.49177 0.42211 0.0
O31 O 0.39042 0.63886 0.45445 0.0
O32 O 0.46603 0.64592 0.50519 0.0
O33 O 0.68212 0.50355 0.54805 0.0
O34 O 0.59951 0.48718 0.50065 0.0
O35 O 0.5233 0.64682 0.53306 0.0
O36 O 0.59557 0.63988 0.58472 0.0
C37 C 0.56065 0.67643 0.56063 0.0
O38 O 0.40409 0.47473 0.52944 0.0
O39 O 0.33148 0.47739 0.47752 0.0
C40 C 0.4842 0.45868 0.59315 0.0
C41 C 0.34487 0.45627 0.51007 0.0
H42 H 0.96805 0.15733 0.36139 0.0
H43 H 0.12921 0.99703 0.37786 0.0
H44 H 0.08131 0.12755 0.46906 0.0
C45 C 0.00873 0.13069 0.37938 0.0
C46 C 0.02033 0.15021 0.41685 0.0
C47 C 0.04763 0.07555 0.36502 0.0
C48 C 0.09806 0.03927 0.38865 0.0
C49 C 0.11035 0.05827 0.42601 0.0
C50 C 0.07172 0.11364 0.44008 0.0
H51 H 0.95042 0.93176 0.65993 0.0
H52 H 0.13067 0.07291 0.65585 0.0
H53 H 0.96564 0.05847 0.56442 0.0
C54 C 0.98027 0.96903 0.64496 0.0
C55 C 0.95148 0.9903 0.60985 0.0
C56 C 0.04432 -0.00064 0.66194 0.0
C57 C 0.08146 0.04878 0.64275 0.0
C58 C 0.05357 0.06997 0.60757 0.0
C59 C 0.98788 0.04147 0.5914 0.0
H60 H 0.38738 0.48271 0.85408 0.0
H61 H 0.58318 0.36216 0.85887 0.0
H62 H 0.53043 0.47984 0.95442 0.0
C63 C 0.43531 0.46271 0.86993 0.0
C64 C 0.45267 0.48602 0.90641 0.0
C65 C 0.48232 0.41854 0.85262 0.0
C66 C 0.54631 0.3955 0.87252 0.0
C67 C 0.56404 0.41659 0.90945 0.0
C68 C 0.51719 0.46268 0.92611 0.0
H69 H 0.51486 0.39657 0.16872 0.0
H70 H 0.7077 0.52227 0.18487 0.0
H71 H 0.59372 0.50165 0.07643 0.0
C72 C 0.55507 0.42904 0.15724 0.0
C73 C 0.5477 0.44431 0.1194 0.0
C74 C 0.61324 0.45612 0.18068 0.0
C75 C 0.66444 0.49933 0.16632 0.0
C76 C 0.65735 0.51712 0.1289 0.0
C77 C 0.59877 0.48927 0.10548 0.0
C78 C 0.1866 0.25476 0.03742 0.0
C79 C 0.20364 0.20668 0.01027 0.0
C80 C 0.23508 0.30959 0.0486 0.0
C81 C 0.30139 0.31604 0.03207 0.0
C82 C 0.31235 0.27455 0.00065 0.0
C83 C 0.26351 0.21996 0.99028 0.0
C84 C 0.21993 0.35447 0.0813 0.0
C85 C 0.38072 0.28115 0.98119 0.0
C86 C 0.4448 0.45113 0.06851 0.0
C87 C 0.48675 0.41217 0.09503 0.0
C88 C 0.38449 0.42099 0.04729 0.0
C89 C 0.36554 0.35051 0.05303 0.0
C90 C 0.40906 0.31077 0.07909 0.0
C91 C 0.46894 0.34191 0.0995 0.0
C92 C 0.34021 0.46521 0.01965 0.0
C93 C 0.39228 0.23499 0.08572 0.0
H94 H 0.14023 0.24489 0.05285 0.0
H95 H 0.27629 0.18327 0.9689 0.0
H96 H 0.25176 0.33482 0.10636 0.0
H97 H 0.23692 0.40922 0.07742 0.0
H98 H 0.16133 0.35347 0.08604 0.0
H99 H 0.37405 0.25663 0.95326 0.0
H100 H 0.39637 0.33665 0.97862 0.0
H101 H 0.42611 0.25469 0.99752 0.0
H102 H 0.45795 0.50561 0.06498 0.0
H103 H 0.50203 0.31099 0.11924 0.0
H104 H 0.28961 0.48172 0.03146 0.0
H105 H 0.32399 0.43538 0.99386 0.0
H106 H 0.3704 0.51273 0.0127 0.0
H107 H 0.33686 0.22995 0.0949 0.0
H108 H 0.43163 0.21154 0.10693 0.0
H109 H 0.39336 0.2043 0.05973 0.0
C110 C 0.21407 0.82083 0.94421 0.0
C111 C 0.20074 0.82674 0.98127 0.0
C112 C 0.24891 0.76149 0.93109 0.0
C113 C 0.26993 0.70687 0.95569 0.0
C114 C 0.25181 0.71078 0.9925 0.0
C115 C 0.21785 0.77076 0.00484 0.0
C116 C 0.26723 0.7593 0.89159 0.0
C117 C 0.27151 0.65316 0.0194 0.0
C118 C 0.32979 0.53259 0.91772 0.0
C119 C 0.40587 0.53932 0.92225 0.0
C120 C 0.28467 0.58647 0.92859 0.0
C121 C 0.31644 0.64871 0.94413 0.0
C122 C 0.39326 0.655 0.94964 0.0
C123 C 0.43702 0.60011 0.93876 0.0
C124 C 0.20312 0.57724 0.92293 0.0
C125 C 0.42931 0.72032 0.96641 0.0
H126 H 0.20157 0.86406 0.9261 0.0
H127 H 0.20677 0.77492 0.03351 0.0
H128 H 0.32691 0.76542 0.89091 0.0
H129 H 0.25161 0.7082 0.87848 0.0
H130 H 0.23964 0.80136 0.875 0.0
H131 H 0.2497 0.66244 0.04644 0.0
H132 H 0.25007 0.60255 0.00787 0.0
H133 H 0.33156 0.64847 0.02402 0.0
H134 H 0.30557 0.48533 0.90524 0.0
H135 H 0.49574 0.60586 0.94192 0.0
H136 H 0.17919 0.61777 0.90412 0.0
H137 H 0.17911 0.58408 0.94954 0.0
H138 H 0.18707 0.52508 0.91113 0.0
H139 H 0.4121 0.76603 0.94947 0.0
H140 H 0.48965 0.71714 0.96857 0.0
H141 H 0.41192 0.72977 0.99438 0.0
C142 C 0.92475 0.77442 0.03619 0.0
C143 C 0.93388 0.83777 0.0558 0.0
C144 C 0.88709 0.71853 0.04996 0.0
C145 C 0.85709 0.72649 0.08408 0.0
C146 C 0.87039 0.78877 0.10522 0.0
C147 C 0.90892 0.84391 0.09077 0.0
C148 C 0.8751 0.65286 0.0267 0.0
C149 C 0.8396 0.79912 0.14183 0.0
C150 C 0.68357 0.62371 0.0934 0.0
C151 C 0.70924 0.56806 0.11538 0.0
C152 C 0.73111 0.67595 0.08339 0.0
C153 C 0.8062 0.67236 0.09559 0.0
C154 C 0.83267 0.61568 0.11726 0.0
C155 C 0.7839 0.56417 0.12684 0.0
C156 C 0.70081 0.73535 0.06 0.0
C157 C 0.91241 0.60958 0.13037 0.0
H158 H 0.9442 0.76979 0.00907 0.0
H159 H 0.91475 0.89316 0.10559 0.0
H160 H 0.88732 0.60596 0.04359 0.0
H161 H 0.81712 0.6493 0.0156 0.0
H162 H 0.90925 0.65175 0.00315 0.0
H163 H 0.86308 0.84583 0.15704 0.0
H164 H 0.77975 0.80573 0.13717 0.0
H165 H 0.84988 0.75269 0.15932 0.0
H166 H 0.62587 0.62753 0.08488 0.0
H167 H 0.80418 0.52082 0.14353 0.0
H168 H 0.72711 0.73654 0.03384 0.0
H169 H 0.71313 0.78578 0.07461 0.0
H170 H 0.64098 0.73102 0.05326 0.0
H171 H 0.94514 0.60662 0.10635 0.0
H172 H 0.92407 0.56285 0.14755 0.0
H173 H 0.93078 0.65669 0.14673 0.0
C174 C 0.87786 0.22482 0.03119 0.0
C175 C 0.93348 0.20651 0.00919 0.0
C176 C 0.82635 0.27565 0.01988 0.0
C177 C 0.83033 0.3083 0.98554 0.0
C178 C 0.89252 0.29737 0.96606 0.0
C179 C 0.94375 0.2464 0.97819 0.0
C180 C 0.76239 0.28702 0.04221 0.0
C181 C 0.90016 0.3328 0.92995 0.0
C182 C 0.64954 0.31943 0.92711 0.0
C183 C 0.63172 0.39011 0.93007 0.0
C184 C 0.71409 0.29298 0.94481 0.0
C185 C 0.76269 0.33821 0.96626 0.0
C186 C 0.74475 0.40966 0.96989 0.0
C187 C 0.67939 0.4348 0.9517 0.0
C188 C 0.72995 0.21611 0.94062 0.0
C189 C 0.79495 0.45984 0.99225 0.0
H190 H 0.87017 0.19426 0.05535 0.0
H191 H 0.98663 0.23234 0.96108 0.0
H192 H 0.74687 0.34283 0.04267 0.0
H193 H 0.71485 0.25697 0.02939 0.0
H194 H 0.77428 0.26934 0.07104 0.0
H195 H 0.95702 0.33063 0.92232 0.0
H196 H 0.86433 0.30627 0.90783 0.0
H197 H 0.88302 0.3881 0.93128 0.0
H198 H 0.61244 0.2844 0.91098 0.0
H199 H 0.66633 0.48969 0.95381 0.0
H200 H 0.7351 0.19132 0.96805 0.0
H201 H 0.78242 0.20896 0.92848 0.0
H202 H 0.68674 0.18823 0.92278 0.0
H203 H 0.81569 0.43688 0.01894 0.0
H204 H 0.76766 0.50998 0.99777 0.0
H205 H 0.84271 0.47109 0.97689 0.0
C206 C 0.59264 0.78655 0.59445 0.0
C207 C 0.57726 0.75149 0.56066 0.0
C208 C 0.63941 0.84441 0.59734 0.0
C209 C 0.67243 0.86596 0.56582 0.0
C210 C 0.64697 0.83831 0.53072 0.0
C211 C 0.59881 0.78123 0.52848 0.0
C212 C 0.66204 0.87511 0.63504 0.0
C213 C 0.6787 0.86162 0.49625 0.0
C214 C 0.82203 0.00268 0.5834 0.0
C215 C 0.88201 0.96005 0.59343 0.0
C216 C 0.75334 0.9733 0.57241 0.0
C217 C 0.74528 0.89982 0.57129 0.0
C218 C 0.80714 0.85691 0.57919 0.0
C219 C 0.87452 0.88764 0.59045 0.0
C220 C 0.68927 0.02107 0.56429 0.0
C221 C 0.80169 0.77821 0.57757 0.0
H222 H 0.57462 0.76423 0.61925 0.0
H223 H 0.58617 0.7546 0.50219 0.0
H224 H 0.71505 0.85254 0.64573 0.0
H225 H 0.66911 0.93244 0.63365 0.0
H226 H 0.62154 0.86351 0.65487 0.0
H227 H 0.64147 0.84929 0.47123 0.0
H228 H 0.69034 0.91845 0.49732 0.0
H229 H 0.7308 0.83396 0.49376 0.0
H230 H 0.82804 0.05888 0.58582 0.0
H231 H 0.92133 0.85495 0.59783 0.0
H232 H 0.6623 0.02984 0.58992 0.0
H233 H 0.6484 0.99823 0.54321 0.0
H234 H 0.70692 0.07262 0.55469 0.0
H235 H 0.76835 0.75982 0.59936 0.0
H236 H 0.85586 0.7529 0.58159 0.0
H237 H 0.77446 0.76055 0.55059 0.0
C238 C 0.69866 0.38576 0.47311 0.0
C239 C 0.71973 0.44162 0.4969 0.0
C240 C 0.75079 0.34375 0.45814 0.0
C241 C 0.82565 0.35741 0.46783 0.0
C242 C 0.84719 0.41556 0.49069 0.0
C243 C 0.79381 0.45672 0.50514 0.0
C244 C 0.72576 0.28321 0.43308 0.0
C245 C 0.92606 0.433 0.50187 0.0
C246 C 0.94762 0.19943 0.46568 0.0
C247 C 0.97632 0.20683 0.43165 0.0
C248 C 0.90022 0.24936 0.47831 0.0
C249 C 0.88064 0.30767 0.45621 0.0
C250 C 0.9115 0.3169 0.42254 0.0
C251 C 0.95942 0.26655 0.41076 0.0
C252 C 0.86897 0.23838 0.51465 0.0
C253 C 0.89294 0.37939 0.39878 0.0
H254 H 0.6415 0.37275 0.4676 0.0
H255 H 0.81026 0.49996 0.52361 0.0
H256 H 0.7496 0.28758 0.40635 0.0
H257 H 0.74504 0.23345 0.44564 0.0
H258 H 0.66557 0.2807 0.42764 0.0
H259 H 0.93422 0.49041 0.50381 0.0
H260 H 0.94125 0.41186 0.52968 0.0
H261 H 0.96347 0.41112 0.4826 0.0
H262 H 0.95999 0.1533 0.48189 0.0
H263 H 0.98295 0.27347 0.38489 0.0
H264 H 0.80951 0.22875 0.50971 0.0
H265 H 0.87684 0.28594 0.5323 0.0
H266 H 0.8942 0.19347 0.52986 0.0
H267 H 0.83357 0.38026 0.39039 0.0
H268 H 0.92241 0.37937 0.37355 0.0
H269 H 0.90666 0.42808 0.41481 0.0
C270 C 0.28746 0.39779 0.56111 0.0
C271 C 0.29551 0.40392 0.52356 0.0
C272 C 0.24521 0.34396 0.5739 0.0
C273 C 0.20948 0.29604 0.54825 0.0
C274 C 0.21498 0.30386 0.51012 0.0
C275 C 0.25792 0.35777 0.49823 0.0
C276 C 0.23957 0.3378 0.61481 0.0
C277 C 0.17696 0.25435 0.48196 0.0
C278 C 0.1656 0.11835 0.58443 0.0
C279 C 0.09153 0.12516 0.5891 0.0
C280 C 0.20427 0.17314 0.57025 0.0
C281 C 0.16807 0.2365 0.56135 0.0
C282 C 0.09278 0.24296 0.56527 0.0
C283 C 0.05511 0.18669 0.57876 0.0
C284 C 0.28401 0.16359 0.5653 0.0
C285 C 0.05203 0.3093 0.55565 0.0
H286 H 0.31352 0.43548 0.58033 0.0
H287 H 0.26371 0.36254 0.46903 0.0
H288 H 0.18156 0.33551 0.62049 0.0
H289 H 0.26552 0.28864 0.6248 0.0
H290 H 0.26638 0.38206 0.63081 0.0
H291 H 0.18958 0.26562 0.45342 0.0
H292 H 0.19308 0.19994 0.48844 0.0
H293 H 0.11724 0.2578 0.48307 0.0
H294 H 0.19331 0.07026 0.59221 0.0
H295 H 0.99779 0.19173 0.5826 0.0
H296 H 0.31704 0.20096 0.58347 0.0
H297 H 0.29436 0.17492 0.53646 0.0
H298 H 0.30297 0.10985 0.57179 0.0
H299 H 0.99859 0.31079 0.56734 0.0
H300 H 0.04227 0.31297 0.52525 0.0
H301 H 0.08405 0.35588 0.56587 0.0
C302 C 0.39282 0.78581 0.44846 0.0
C303 C 0.40796 0.75023 0.48148 0.0
C304 C 0.3569 0.84989 0.44784 0.0
C305 C 0.33473 0.87833 0.48109 0.0
C306 C 0.35815 0.84694 0.51507 0.0
C307 C 0.39484 0.7828 0.51489 0.0
C308 C 0.33513 0.88261 0.411 0.0
C309 C 0.33785 0.87674 0.55122 0.0
C310 C 0.23252 0.04549 0.46057 0.0
C311 C 0.16315 0.01826 0.44989 0.0
C312 C 0.28864 0.00175 0.47518 0.0
C313 C 0.27441 0.92962 0.47854 0.0
C314 C 0.20218 0.90404 0.47149 0.0
C315 C 0.14747 0.94876 0.45696 0.0
C316 C 0.36415 0.03159 0.48355 0.0
C317 C 0.184 0.82782 0.47549 0.0
H318 H 0.40437 0.76103 0.4227 0.0
H319 H 0.40706 0.75542 0.54054 0.0
H320 H 0.27594 0.87453 0.40361 0.0
H321 H 0.34556 0.9396 0.41235 0.0
H322 H 0.36493 0.85958 0.38866 0.0
H323 H 0.37745 0.86089 0.57441 0.0
H324 H 0.33501 0.93451 0.55069 0.0
H325 H 0.28345 0.85659 0.55656 0.0
H326 H 0.24425 0.09954 0.45501 0.0
H327 H 0.09336 0.92835 0.44882 0.0
H328 H 0.39489 0.02479 0.459 0.0
H329 H 0.39438 0.00445 0.50687 0.0
H330 H 0.36232 0.08825 0.49021 0.0
H331 H 0.20706 0.79698 0.45336 0.0
H332 H 0.12432 0.81833 0.47351 0.0
H333 H 0.20836 0.80824 0.50233 0.0
C334 C 0.13995 0.99552 0.1657 0.0
C335 C 0.08393 0.99569 0.13697 0.0
C336 C 0.12488 0.00155 0.20252 0.0
C337 C 0.0518 0.00752 0.2109 0.0
C338 C 0.9946 0.00377 0.18215 0.0
C339 C 0.01145 0.99859 0.14535 0.0
C340 C 0.18761 0.00532 0.23229 0.0
C341 C 0.91598 0.00884 0.19005 0.0
C342 C 0.03332 0.98808 0.31292 0.0
C343 C 0.03819 0.05784 0.32509 0.0
C344 C 0.03221 0.97079 0.27528 0.0
C345 C 0.03704 0.02454 0.24941 0.0
C346 C 0.03801 0.09517 0.2614 0.0
C347 C 0.03839 0.11094 0.29909 0.0
C348 C 0.02979 0.89498 0.26347 0.0
C349 C 0.04358 0.15407 0.23472 0.0
H350 H 0.19612 0.99285 0.15932 0.0
H351 H 0.96819 0.00047 0.12317 0.0
H352 H 0.18937 0.05773 0.24568 0.0
H353 H 0.18005 0.96657 0.25391 0.0
H354 H 0.2409 0.99563 0.2213 0.0
H355 H 0.87829 0.99341 0.1657 0.0
H356 H 0.90524 0.97529 0.21352 0.0
H357 H 0.90376 0.06335 0.19792 0.0
H358 H 0.03189 0.94693 0.33293 0.0
H359 H 0.04257 0.1649 0.30838 0.0
H360 H 0.08406 0.87906 0.25563 0.0
H361 H 0.99024 0.8868 0.23891 0.0
H362 H 0.01477 0.86047 0.28581 0.0
H363 H 0.09775 0.15281 0.22381 0.0
H364 H 0.03659 0.20595 0.24787 0.0
H365 H 1.00193 0.1479 0.2109 0.0
C366 C 0.11863 0.96311 0.88227 0.0
C367 C 0.04726 0.96399 0.89239 0.0
C368 C 0.13205 0.95754 0.84496 0.0
C369 C 0.07255 0.95548 0.81741 0.0
C370 C 1.00055 0.95313 0.82776 0.0
C371 C 0.98896 0.95677 0.86508 0.0
C372 C 0.2096 0.95781 0.83507 0.0
C373 C 0.93531 0.95168 0.79938 0.0
C374 C 0.07502 0.04378 0.72587 0.0
C375 C 0.06635 0.98679 0.70136 0.0
C376 C 0.08296 0.034 0.76402 0.0
C377 C 0.08347 0.96542 0.77795 0.0
C378 C 0.08123 0.90756 0.75326 0.0
C379 C 0.07143 0.91892 0.71511 0.0
C380 C 0.08402 0.09725 0.78929 0.0
C381 C 0.08432 0.83376 0.76708 0.0
H382 H 0.16369 0.97051 0.90323 0.0
H383 H 0.93363 0.95686 0.87284 0.0
H384 H 0.21634 0.92093 0.81189 0.0
H385 H 0.22402 0.01069 0.8261 0.0
H386 H 0.24838 0.94363 0.85894 0.0
H387 H 0.88316 0.94659 0.8121 0.0
H388 H 0.93369 0.0005 0.78333 0.0
H389 H 0.93944 0.9076 0.77967 0.0
H390 H 0.07056 0.09628 0.71526 0.0
H391 H 0.06553 0.87484 0.69607 0.0
H392 H 0.12912 0.09368 0.81149 0.0
H393 H 0.03236 0.09955 0.80262 0.0
H394 H 0.09019 0.14664 0.77429 0.0
H395 H 0.12497 0.82921 0.79135 0.0
H396 H 0.09818 0.79615 0.74536 0.0
H397 H 0.03051 0.81889 0.77588 0.0
C398 C 0.45912 0.36301 0.63496 0.0
C399 C 0.44202 0.42945 0.62143 0.0
C400 C 0.44734 0.346 0.6713 0.0
C401 C 0.42096 0.39784 0.69465 0.0
C402 C 0.39461 0.46145 0.67941 0.0
C403 C 0.40518 0.47634 0.64274 0.0
C404 C 0.47162 0.27589 0.6859 0.0
C405 C 0.36491 0.51781 0.70307 0.0
C406 C 0.40099 0.37841 0.79711 0.0
C407 C 0.46864 0.40383 0.81254 0.0
C408 C 0.38562 0.37179 0.75865 0.0
C409 C 0.43827 0.39361 0.7353 0.0
C410 C 0.50738 0.41745 0.75096 0.0
C411 C 0.52188 0.42144 0.78934 0.0
C412 C 0.3122 0.34402 0.74334 0.0
C413 C 0.5651 0.44213 0.72723 0.0
H414 H 0.48791 0.32687 0.61841 0.0
H415 H 0.39259 0.52796 0.63221 0.0
H416 H 0.5271 0.28076 0.70033 0.0
H417 H 0.43478 0.25682 0.70601 0.0
H418 H 0.47331 0.23663 0.66327 0.0
H419 H 0.33742 0.55956 0.68622 0.0
H420 H 0.32567 0.49565 0.72104 0.0
H421 H 0.4103 0.5417 0.72119 0.0
H422 H 0.3598 0.36456 0.81512 0.0
H423 H 0.57384 0.44183 0.80127 0.0
H424 H 0.31519 0.31588 0.71669 0.0
H425 H 0.27394 0.38815 0.73862 0.0
H426 H 0.28923 0.30829 0.76306 0.0
H427 H 0.57905 0.39969 0.70817 0.0
H428 H 0.61576 0.45925 0.74383 0.0
H429 H 0.54411 0.48648 0.71018 0.0
C430 C 0.62612 0.50094 0.39528 0.0
C431 C 0.57882 0.45264 0.40886 0.0
C432 C 0.65049 0.49113 0.36023 0.0
C433 C 0.62767 0.43108 0.33908 0.0
C434 C 0.59037 0.37702 0.35561 0.0
C435 C 0.56456 0.38923 0.3901 0.0
C436 C 0.69155 0.54944 0.34396 0.0
C437 C 0.56951 0.31014 0.33497 0.0
C438 C 0.55777 0.46487 0.24 0.0
C439 C 0.61674 0.44498 0.22088 0.0
C440 C 0.56116 0.46033 0.2784 0.0
C441 C 0.62463 0.43344 0.29819 0.0
C442 C 0.68365 0.41098 0.27886 0.0
C443 C 0.67953 0.41831 0.24035 0.0
C444 C 0.49708 0.48579 0.29781 0.0
C445 C 0.75155 0.3805 0.2986 0.0
H446 H 0.63685 0.55002 0.41 0.0
H447 H 0.52825 0.35173 0.40093 0.0
H448 H 0.73617 0.52844 0.32875 0.0
H449 H 0.65394 0.57819 0.32405 0.0
H450 H 0.7149 0.5869 0.36547 0.0
H451 H 0.55734 0.26796 0.35409 0.0
H452 H 0.52012 0.31897 0.31583 0.0
H453 H 0.61369 0.29269 0.31834 0.0
H454 H 0.50967 0.48623 0.22489 0.0
H455 H 0.72521 0.40297 0.22541 0.0
H456 H 0.51512 0.52647 0.31869 0.0
H457 H 0.47358 0.44209 0.31248 0.0
H458 H 0.4534 0.50799 0.27843 0.0
H459 H 0.78928 0.42338 0.30841 0.0
H460 H 0.78033 0.34623 0.2799 0.0
H461 H 0.73912 0.35003 0.32292 0.0
loop_
_geom_bond_atom_site_label_1
_geom_bond_atom_site_label_2
_geom_bond_distance
_geom_bond_site_symmetry_2
_ccdc_geom_bond_type
Zn0 O6 1.920 1_545 S
Zn0 O12 1.898 . S
Zn0 O15 1.905 1_545 S
Zn1 O9 1.905 . S
Zn1 O10 1.898 1_545 S
Zn1 O18 1.920 1_545 S
Zn2 O5 2.080 1_445 S
Zn2 O8 2.114 . S
Zn2 O11 2.120 1_545 S
Zn2 O13 2.120 1_455 S
Zn2 O14 2.114 1_554 S
Zn2 O17 2.080 . S
C3 O8 1.166 . S
C3 O9 1.182 . S
C4 O10 1.167 . S
C4 O11 1.299 . S
O5 Zn2 2.080 1_665 S
O5 C19 1.305 . S
O6 Zn0 1.920 1_565 S
O6 C19 1.234 1_556 S
C7 O12 1.167 . S
C7 O13 1.299 1_556 S
O8 Zn2 2.114 . S
O8 C3 1.166 . S
O9 Zn1 1.905 . S
O9 C3 1.182 . S
O10 Zn1 1.898 1_565 S
O10 C4 1.167 . S
O11 Zn2 2.120 1_565 S
O11 C4 1.299 . S
O12 Zn0 1.898 . S
O12 C7 1.167 . S
O13 Zn2 2.120 1_655 S
O13 C7 1.299 1_554 S
O14 Zn2 2.114 1_556 S
O14 C16 1.166 1_445 S
O15 Zn0 1.905 1_565 S
O15 C16 1.182 . S
C16 O14 1.166 1_665 S
C16 O15 1.182 . S
O17 Zn2 2.080 . S
O17 C20 1.305 1_545 S
O18 Zn1 1.920 1_565 S
O18 C20 1.234 . S
C19 O5 1.305 . S
C19 O6 1.234 1_554 S
C20 O17 1.305 1_565 S
C20 O18 1.234 . S
Zn21 O27 1.920 . S
Zn21 O33 1.898 . S
Zn21 O36 1.905 . S
Zn22 O30 1.905 . S
Zn22 O31 1.898 . S
Zn22 O39 1.920 . S
Zn23 O26 2.080 . S
Zn23 O29 2.114 . S
Zn23 O32 2.120 . S
Zn23 O34 2.120 . S
Zn23 O35 2.114 . S
Zn23 O38 2.080 . S
C24 O29 1.166 . S
C24 O30 1.182 . S
C25 O31 1.167 . S
C25 O32 1.299 . S
O26 Zn23 2.080 . S
O26 C40 1.305 . S
O27 Zn21 1.920 . S
O27 C40 1.234 . S
C28 O33 1.167 . S
C28 O34 1.299 . S
O29 Zn23 2.114 . S
O29 C24 1.166 . S
O30 Zn22 1.905 . S
O30 C24 1.182 . S
O31 Zn22 1.898 . S
O31 C25 1.167 . S
O32 Zn23 2.120 . S
O32 C25 1.299 . S
O33 Zn21 1.898 . S
O33 C28 1.167 . S
O34 Zn23 2.120 . S
O34 C28 1.299 . S
O35 Zn23 2.114 . S
O35 C37 1.166 . S
O36 Zn21 1.905 . S
O36 C37 1.182 . S
C37 O35 1.166 . S
C37 O36 1.182 . S
O38 Zn23 2.080 . S
O38 C41 1.305 . S
O39 Zn22 1.920 . S
O39 C41 1.234 . S
C40 O26 1.305 . S
C40 O27 1.234 . S
C41 O38 1.305 . S
C41 O39 1.234 . S
H42 C45 0.931 1_655 S
H43 C48 0.928 . S
H44 C50 0.930 . S
C45 H42 0.931 1_455 S
C45 C46 1.413 . S
C45 C47 1.360 . S
C46 C45 1.413 . S
C46 C50 1.429 . S
C47 C45 1.360 . S
C47 C48 1.372 1_545 S
C48 H43 0.928 . S
C48 C47 1.372 1_565 S
C48 C49 1.404 . S
C49 C48 1.404 . S
C49 C50 1.391 1_565 S
C50 H44 0.930 . S
C50 C46 1.429 . S
C50 C49 1.391 1_545 S
H51 C54 0.931 . S
H52 C57 0.928 . S
H53 C59 0.930 . S
C54 H51 0.931 . S
C54 C55 1.413 . S
C54 C56 1.360 1_665 S
C55 C54 1.413 . S
C55 C59 1.429 1_665 S
C56 C54 1.360 1_445 S
C56 C57 1.372 . S
C57 H52 0.928 . S
C57 C56 1.372 . S
C57 C58 1.404 . S
C58 C57 1.404 . S
C58 C59 1.391 . S
C59 H53 0.930 . S
C59 C55 1.429 1_445 S
C59 C58 1.391 . S
H60 C63 0.931 . S
H61 C66 0.928 . S
H62 C68 0.930 . S
C63 H60 0.931 . S
C63 C64 1.413 . S
C63 C65 1.360 . S
C64 C63 1.413 . S
C64 C68 1.429 . S
C65 C63 1.360 . S
C65 C66 1.372 . S
C66 H61 0.928 . S
C66 C65 1.372 . S
C66 C67 1.404 . S
C67 C66 1.404 . S
C67 C68 1.391 . S
C68 H62 0.930 . S
C68 C64 1.429 . S
C68 C67 1.391 . S
H69 C72 0.931 . S
H70 C75 0.928 . S
H71 C77 0.930 . S
C72 H69 0.931 . S
C72 C73 1.413 . S
C72 C74 1.360 . S
C73 C72 1.413 . S
C73 C77 1.429 . S
C74 C72 1.360 . S
C74 C75 1.372 . S
C75 H70 0.928 . S
C75 C74 1.372 . S
C75 C76 1.404 . S
C76 C75 1.404 . S
C76 C77 1.391 . S
C77 H71 0.930 . S
C77 C73 1.429 . S
C77 C76 1.391 . S
C78 C79 1.391 . S
C78 C80 1.394 . S
C78 H94 0.931 . S
C79 C78 1.391 . S
C79 C83 1.376 . S
C80 C78 1.394 . S
C80 C81 1.369 . S
C80 C84 1.531 . S
C81 C80 1.369 . S
C81 C82 1.410 . S
C81 C89 1.503 . S
C82 C81 1.410 . S
C82 C83 1.392 . S
C82 C85 1.511 . S
C83 C79 1.376 . S
C83 C82 1.392 . S
C83 H95 0.929 . S
C84 C80 1.531 . S
C84 H96 0.960 . S
C84 H97 0.962 . S
C84 H98 0.960 . S
C85 C82 1.511 . S
C85 H99 0.961 . S
C85 H100 0.961 . S
C85 H101 0.961 . S
C86 C87 1.370 . S
C86 C88 1.363 . S
C86 H102 0.931 . S
C87 C86 1.370 . S
C87 C91 1.408 . S
C88 C86 1.363 . S
C88 C89 1.370 . S
C88 C92 1.524 . S
C89 C81 1.503 . S
C89 C88 1.370 . S
C89 C90 1.403 . S
C90 C89 1.403 . S
C90 C91 1.404 . S
C90 C93 1.539 . S
C91 C87 1.408 . S
C91 C90 1.404 . S
C91 H103 0.930 . S
C92 C88 1.524 . S
C92 H104 0.956 . S
C92 H105 0.961 . S
C92 H106 0.961 1_554 S
C93 C90 1.539 . S
C93 H107 0.958 . S
C93 H108 0.961 . S
C93 H109 0.960 . S
H94 C78 0.931 . S
H95 C83 0.929 . S
H96 C84 0.960 . S
H97 C84 0.962 . S
H98 C84 0.960 . S
H99 C85 0.961 . S
H100 C85 0.961 . S
H101 C85 0.961 . S
H102 C86 0.931 . S
H103 C91 0.930 . S
H104 C92 0.956 . S
H105 C92 0.961 . S
H106 C92 0.961 1_556 S
H107 C93 0.958 . S
H108 C93 0.961 . S
H109 C93 0.960 . S
C110 C111 1.391 . S
C110 C112 1.394 . S
C110 H126 0.931 . S
C111 C110 1.391 . S
C111 C115 1.376 1_556 S
C112 C110 1.394 . S
C112 C113 1.369 . S
C112 C116 1.531 . S
C113 C112 1.369 . S
C113 C114 1.410 1_556 S
C113 C121 1.503 . S
C114 C113 1.410 1_554 S
C114 C115 1.392 . S
C114 C117 1.511 . S
C115 C111 1.376 1_554 S
C115 C114 1.392 . S
C115 H127 0.929 . S
C116 C112 1.531 . S
C116 H128 0.960 . S
C116 H129 0.962 . S
C116 H130 0.960 . S
C117 C114 1.511 . S
C117 H131 0.961 . S
C117 H132 0.962 1_554 S
C117 H133 0.961 . S
C118 C119 1.370 . S
C118 C120 1.363 . S
C118 H134 0.931 . S
C119 C118 1.370 . S
C119 C123 1.408 . S
C120 C118 1.363 . S
C120 C121 1.370 . S
C120 C124 1.524 . S
C121 C113 1.503 . S
C121 C120 1.370 . S
C121 C122 1.403 . S
C122 C121 1.403 . S
C122 C123 1.404 . S
C122 C125 1.539 1_556 S
C123 C119 1.408 . S
C123 C122 1.404 . S
C123 H135 0.930 . S
C124 C120 1.524 . S
C124 H136 0.956 . S
C124 H137 0.961 . S
C124 H138 0.961 . S
C125 C122 1.539 1_554 S
C125 H139 0.958 . S
C125 H140 0.961 . S
C125 H141 0.960 . S
H126 C110 0.931 . S
H127 C115 0.929 . S
H128 C116 0.960 . S
H129 C116 0.962 . S
H130 C116 0.960 . S
H131 C117 0.961 . S
H132 C117 0.962 1_556 S
H133 C117 0.961 . S
H134 C118 0.931 . S
H135 C123 0.930 . S
H136 C124 0.956 . S
H137 C124 0.961 . S
H138 C124 0.961 . S
H139 C125 0.958 . S
H140 C125 0.961 . S
H141 C125 0.960 . S
C142 C143 1.391 . S
C142 C144 1.394 . S
C142 H158 0.931 . S
C143 C142 1.391 . S
C143 C147 1.376 . S
C144 C142 1.394 . S
C144 C145 1.369 . S
C144 C148 1.531 . S
C145 C144 1.369 . S
C145 C146 1.410 . S
C145 C153 1.503 . S
C146 C145 1.410 . S
C146 C147 1.392 . S
C146 C149 1.511 . S
C147 C143 1.376 . S
C147 C146 1.392 . S
C147 H159 0.929 . S
C148 C144 1.531 . S
C148 H160 0.960 . S
C148 H161 0.962 . S
C148 H162 0.960 . S
C149 C146 1.511 . S
C149 H163 0.961 . S
C149 H164 0.961 . S
C149 H165 0.961 . S
C150 C151 1.370 . S
C150 C152 1.363 . S
C150 H166 0.931 . S
C151 C150 1.370 . S
C151 C155 1.408 . S
C152 C150 1.363 . S
C152 C153 1.370 . S
C152 C156 1.524 . S
C153 C145 1.503 . S
C153 C152 1.370 . S
C153 C154 1.403 . S
C154 C153 1.403 . S
C154 C155 1.404 . S
C154 C157 1.539 . S
C155 C151 1.408 . S
C155 C154 1.404 . S
C155 H167 0.930 . S
C156 C152 1.524 . S
C156 H168 0.956 . S
C156 H169 0.961 . S
C156 H170 0.961 1_554 S
C157 C154 1.539 . S
C157 H171 0.958 . S
C157 H172 0.961 . S
C157 H173 0.960 . S
H158 C142 0.931 . S
H159 C147 0.929 . S
H160 C148 0.960 . S
H161 C148 0.962 . S
H162 C148 0.960 . S
H163 C149 0.961 . S
H164 C149 0.961 . S
H165 C149 0.961 . S
H166 C150 0.931 . S
H167 C155 0.930 . S
H168 C156 0.956 . S
H169 C156 0.961 . S
H170 C156 0.961 1_556 S
H171 C157 0.958 . S
H172 C157 0.961 . S
H173 C157 0.960 . S
C174 C175 1.391 1_554 S
C174 C176 1.392 1_554 S
C174 H190 0.932 . S
C175 C174 1.391 1_556 S
C175 C179 1.376 . S
C176 C174 1.392 1_556 S
C176 C177 1.369 . S
C176 C180 1.531 . S
C177 C176 1.369 . S
C177 C178 1.410 . S
C177 C185 1.503 . S
C178 C177 1.410 . S
C178 C179 1.392 . S
C178 C181 1.511 . S
C179 C175 1.376 . S
C179 C178 1.392 . S
C179 H191 0.929 . S
C180 C176 1.531 . S
C180 H192 0.960 . S
C180 H193 0.962 1_556 S
C180 H194 0.960 . S
C181 C178 1.511 . S
C181 H195 0.961 . S
C181 H196 0.961 . S
C181 H197 0.961 . S
C182 C183 1.370 . S
C182 C184 1.363 . S
C182 H198 0.931 . S
C183 C182 1.370 . S
C183 C187 1.408 . S
C184 C182 1.363 . S
C184 C185 1.370 . S
C184 C188 1.524 1_556 S
C185 C177 1.503 . S
C185 C184 1.370 . S
C185 C186 1.403 . S
C186 C185 1.403 . S
C186 C187 1.404 . S
C186 C189 1.539 . S
C187 C183 1.408 . S
C187 C186 1.404 . S
C187 H199 0.930 . S
C188 C184 1.524 1_554 S
C188 H200 0.956 . S
C188 H201 0.961 . S
C188 H202 0.961 . S
C189 C186 1.539 . S
C189 H203 0.958 . S
C189 H204 0.961 . S
C189 H205 0.960 . S
H190 C174 0.932 . S
H191 C179 0.929 . S
H192 C180 0.960 . S
H193 C180 0.962 1_554 S
H194 C180 0.960 . S
H195 C181 0.961 . S
H196 C181 0.961 . S
H197 C181 0.961 . S
H198 C182 0.931 . S
H199 C187 0.930 . S
H200 C188 0.956 . S
H201 C188 0.961 . S
H202 C188 0.961 . S
H203 C189 0.958 . S
H204 C189 0.961 . S
H205 C189 0.960 . S
C206 C207 1.391 . S
C206 C208 1.394 . S
C206 H222 0.931 . S
C207 C206 1.391 . S
C207 C211 1.376 . S
C208 C206 1.394 . S
C208 C209 1.369 . S
C208 C212 1.531 . S
C209 C208 1.369 . S
C209 C210 1.410 . S
C209 C217 1.503 . S
C210 C209 1.410 . S
C210 C211 1.392 . S
C210 C213 1.511 . S
C211 C207 1.376 . S
C211 C210 1.392 . S
C211 H223 0.929 . S
C212 C208 1.531 . S
C212 H224 0.960 . S
C212 H225 0.962 . S
C212 H226 0.960 . S
C213 C210 1.511 . S
C213 H227 0.961 . S
C213 H228 0.961 . S
C213 H229 0.961 . S
C214 C215 1.370 . S
C214 C216 1.363 . S
C214 H230 0.931 . S
C215 C214 1.370 . S
C215 C219 1.408 . S
C216 C214 1.363 . S
C216 C217 1.370 . S
C216 C220 1.524 . S
C217 C209 1.503 . S
C217 C216 1.370 . S
C217 C218 1.403 . S
C218 C217 1.403 . S
C218 C219 1.404 . S
C218 C221 1.539 . S
C219 C215 1.408 . S
C219 C218 1.404 . S
C219 H231 0.930 . S
C220 C216 1.524 . S
C220 H232 0.956 . S
C220 H233 0.961 . S
C220 H234 0.961 . S
C221 C218 1.539 . S
C221 H235 0.958 . S
C221 H236 0.961 . S
C221 H237 0.960 . S
H222 C206 0.931 . S
H223 C211 0.929 . S
H224 C212 0.960 . S
H225 C212 0.962 . S
H226 C212 0.960 . S
H227 C213 0.961 . S
H228 C213 0.961 . S
H229 C213 0.961 . S
H230 C214 0.931 . S
H231 C219 0.930 . S
H232 C220 0.956 . S
H233 C220 0.961 . S
H234 C220 0.961 . S
H235 C221 0.958 . S
H236 C221 0.961 . S
H237 C221 0.960 . S
C238 C239 1.391 . S
C238 C240 1.394 . S
C238 H254 0.931 . S
C239 C238 1.391 . S
C239 C243 1.376 . S
C240 C238 1.394 . S
C240 C241 1.369 . S
C240 C244 1.531 . S
C241 C240 1.369 . S
C241 C242 1.410 . S
C241 C249 1.503 . S
C242 C241 1.410 . S
C242 C243 1.392 . S
C242 C245 1.511 . S
C243 C239 1.376 . S
C243 C242 1.392 . S
C243 H255 0.929 . S
C244 C240 1.531 . S
C244 H256 0.960 . S
C244 H257 0.962 . S
C244 H258 0.960 . S
C245 C242 1.511 . S
C245 H259 0.961 . S
C245 H260 0.961 . S
C245 H261 0.961 . S
C246 C247 1.370 . S
C246 C248 1.363 . S
C246 H262 0.931 . S
C247 C246 1.370 . S
C247 C251 1.408 . S
C248 C246 1.363 . S
C248 C249 1.370 . S
C248 C252 1.524 . S
C249 C241 1.503 . S
C249 C248 1.370 . S
C249 C250 1.403 . S
C250 C249 1.403 . S
C250 C251 1.404 . S
C250 C253 1.539 . S
C251 C247 1.408 . S
C251 C250 1.404 . S
C251 H263 0.930 1_655 S
C252 C248 1.524 . S
C252 H264 0.956 . S
C252 H265 0.961 . S
C252 H266 0.961 . S
C253 C250 1.539 . S
C253 H267 0.958 . S
C253 H268 0.961 1_655 S
C253 H269 0.960 . S
H254 C238 0.931 . S
H255 C243 0.929 . S
H256 C244 0.960 . S
H257 C244 0.962 . S
H258 C244 0.960 . S
H259 C245 0.961 . S
H260 C245 0.961 . S
H261 C245 0.961 . S
H262 C246 0.931 . S
H263 C251 0.930 1_455 S
H264 C252 0.956 . S
H265 C252 0.961 . S
H266 C252 0.961 . S
H267 C253 0.958 . S
H268 C253 0.961 1_455 S
H269 C253 0.960 . S
C270 C271 1.391 . S
C270 C272 1.394 . S
C270 H286 0.931 . S
C271 C270 1.391 . S
C271 C275 1.376 . S
C272 C270 1.394 . S
C272 C273 1.369 . S
C272 C276 1.531 . S
C273 C272 1.369 . S
C273 C274 1.410 . S
C273 C281 1.503 . S
C274 C273 1.410 . S
C274 C275 1.392 . S
C274 C277 1.511 . S
C275 C271 1.376 . S
C275 C274 1.392 . S
C275 H287 0.929 . S
C276 C272 1.531 . S
C276 H288 0.960 . S
C276 H289 0.962 . S
C276 H290 0.960 . S
C277 C274 1.511 . S
C277 H291 0.961 . S
C277 H292 0.961 . S
C277 H293 0.961 . S
C278 C279 1.370 . S
C278 C280 1.363 . S
C278 H294 0.931 . S
C279 C278 1.370 . S
C279 C283 1.408 . S
C280 C278 1.363 . S
C280 C281 1.370 . S
C280 C284 1.524 . S
C281 C273 1.503 . S
C281 C280 1.370 . S
C281 C282 1.403 . S
C282 C281 1.403 . S
C282 C283 1.404 . S
C282 C285 1.539 . S
C283 C279 1.408 . S
C283 C282 1.404 . S
C283 H295 0.930 . S
C284 C280 1.524 . S
C284 H296 0.956 . S
C284 H297 0.961 . S
C284 H298 0.961 . S
C285 C282 1.539 . S
C285 H299 0.958 . S
C285 H300 0.961 . S
C285 H301 0.960 . S
H286 C270 0.931 . S
H287 C275 0.929 . S
H288 C276 0.960 . S
H289 C276 0.962 . S
H290 C276 0.960 . S
H291 C277 0.961 . S
H292 C277 0.961 . S
H293 C277 0.961 . S
H294 C278 0.931 . S
H295 C283 0.930 . S
H296 C284 0.956 . S
H297 C284 0.961 . S
H298 C284 0.961 . S
H299 C285 0.958 . S
H300 C285 0.961 . S
H301 C285 0.960 . S
C302 C303 1.391 . S
C302 C304 1.394 . S
C302 H318 0.931 . S
C303 C302 1.391 . S
C303 C307 1.376 . S
C304 C302 1.394 . S
C304 C305 1.369 . S
C304 C308 1.531 . S
C305 C304 1.369 . S
C305 C306 1.410 . S
C305 C313 1.503 . S
C306 C305 1.410 . S
C306 C307 1.392 . S
C306 C309 1.511 . S
C307 C303 1.376 . S
C307 C306 1.392 . S
C307 H319 0.929 . S
C308 C304 1.531 . S
C308 H320 0.960 . S
C308 H321 0.962 . S
C308 H322 0.960 . S
C309 C306 1.511 . S
C309 H323 0.961 . S
C309 H324 0.961 . S
C309 H325 0.961 . S
C310 C311 1.370 . S
C310 C312 1.363 . S
C310 H326 0.931 . S
C311 C310 1.370 . S
C311 C315 1.408 . S
C312 C310 1.363 . S
C312 C313 1.370 . S
C312 C316 1.524 . S
C313 C305 1.503 . S
C313 C312 1.370 . S
C313 C314 1.403 . S
C314 C313 1.403 . S
C314 C315 1.404 . S
C314 C317 1.539 . S
C315 C311 1.408 . S
C315 C314 1.404 . S
C315 H327 0.930 . S
C316 C312 1.524 . S
C316 H328 0.956 . S
C316 H329 0.961 . S
C316 H330 0.961 . S
C317 C314 1.539 . S
C317 H331 0.958 . S
C317 H332 0.961 . S
C317 H333 0.960 . S
H318 C302 0.931 . S
H319 C307 0.929 . S
H320 C308 0.960 . S
H321 C308 0.962 . S
H322 C308 0.960 . S
H323 C309 0.961 . S
H324 C309 0.961 . S
H325 C309 0.961 . S
H326 C310 0.931 . S
H327 C315 0.930 . S
H328 C316 0.956 . S
H329 C316 0.961 . S
H330 C316 0.961 . S
H331 C317 0.958 . S
H332 C317 0.961 . S
H333 C317 0.960 . S
C334 C335 1.391 1_545 S
C334 C336 1.394 . S
C334 H350 0.931 . S
C335 C334 1.391 1_565 S
C335 C339 1.376 1_455 S
C336 C334 1.394 . S
C336 C337 1.369 . S
C336 C340 1.531 . S
C337 C336 1.369 . S
C337 C338 1.410 1_445 S
C337 C345 1.503 . S
C338 C337 1.410 1_665 S
C338 C339 1.392 . S
C338 C341 1.511 . S
C339 C335 1.376 1_655 S
C339 C338 1.392 . S
C339 H351 0.929 . S
C340 C336 1.531 . S
C340 H352 0.960 . S
C340 H353 0.962 . S
C340 H354 0.960 . S
C341 C338 1.511 . S
C341 H355 0.961 . S
C341 H356 0.961 . S
C341 H357 0.961 . S
C342 C343 1.370 1_565 S
C342 C344 1.363 . S
C342 H358 0.931 . S
C343 C342 1.370 1_545 S
C343 C347 1.408 . S
C344 C342 1.363 . S
C344 C345 1.370 1_565 S
C344 C348 1.524 . S
C345 C337 1.503 . S
C345 C344 1.370 1_545 S
C345 C346 1.403 . S
C346 C345 1.403 . S
C346 C347 1.404 . S
C346 C349 1.539 1_455 S
C347 C343 1.408 . S
C347 C346 1.404 . S
C347 H359 0.930 . S
C348 C344 1.524 . S
C348 H360 0.956 . S
C348 H361 0.961 . S
C348 H362 0.961 . S
C349 C346 1.539 1_655 S
C349 H363 0.958 1_655 S
C349 H364 0.961 . S
C349 H365 0.960 . S
H350 C334 0.931 . S
H351 C339 0.929 . S
H352 C340 0.960 . S
H353 C340 0.962 . S
H354 C340 0.960 . S
H355 C341 0.961 . S
H356 C341 0.961 . S
H357 C341 0.961 . S
H358 C342 0.931 . S
H359 C347 0.930 . S
H360 C348 0.956 . S
H361 C348 0.961 . S
H362 C348 0.961 . S
H363 C349 0.958 1_455 S
H364 C349 0.961 . S
H365 C349 0.960 . S
C366 C367 1.391 . S
C366 C368 1.394 . S
C366 H382 0.931 . S
C367 C366 1.391 . S
C367 C371 1.376 1_465 S
C368 C366 1.394 . S
C368 C369 1.369 . S
C368 C372 1.531 . S
C369 C368 1.369 . S
C369 C370 1.410 1_465 S
C369 C377 1.503 . S
C370 C369 1.410 1_645 S
C370 C371 1.392 . S
C370 C373 1.511 . S
C371 C367 1.376 1_645 S
C371 C370 1.392 . S
C371 H383 0.929 . S
C372 C368 1.531 . S
C372 H384 0.960 . S
C372 H385 0.962 . S
C372 H386 0.960 . S
C373 C370 1.511 . S
C373 H387 0.961 . S
C373 H388 0.961 . S
C373 H389 0.961 . S
C374 C375 1.370 . S
C374 C376 1.363 . S
C374 H390 0.931 . S
C375 C374 1.370 . S
C375 C379 1.408 1_445 S
C376 C374 1.363 . S
C376 C377 1.370 1_545 S
C376 C380 1.524 . S
C377 C369 1.503 . S
C377 C376 1.370 1_565 S
C377 C378 1.403 1_455 S
C378 C377 1.403 1_655 S
C378 C379 1.404 . S
C378 C381 1.539 . S
C379 C375 1.408 1_665 S
C379 C378 1.404 . S
C379 H391 0.930 . S
C380 C376 1.524 . S
C380 H392 0.956 . S
C380 H393 0.961 . S
C380 H394 0.961 . S
C381 C378 1.539 . S
C381 H395 0.958 . S
C381 H396 0.961 . S
C381 H397 0.960 . S
H382 C366 0.931 . S
H383 C371 0.929 . S
H384 C372 0.960 . S
H385 C372 0.962 . S
H386 C372 0.960 . S
H387 C373 0.961 . S
H388 C373 0.961 . S
H389 C373 0.961 . S
H390 C374 0.931 . S
H391 C379 0.930 . S
H392 C380 0.956 . S
H393 C380 0.961 . S
H394 C380 0.961 . S
H395 C381 0.958 . S
H396 C381 0.961 . S
H397 C381 0.960 . S
C398 C399 1.391 . S
C398 C400 1.394 . S
C398 H414 0.931 . S
C399 C398 1.391 . S
C399 C403 1.376 . S
C400 C398 1.394 . S
C400 C401 1.369 . S
C400 C404 1.531 . S
C401 C400 1.369 . S
C401 C402 1.410 . S
C401 C409 1.503 . S
C402 C401 1.410 . S
C402 C403 1.392 . S
C402 C405 1.511 . S
C403 C399 1.376 . S
C403 C402 1.392 . S
C403 H415 0.929 . S
C404 C400 1.531 . S
C404 H416 0.960 . S
C404 H417 0.962 . S
C404 H418 0.960 . S
C405 C402 1.511 . S
C405 H419 0.961 . S
C405 H420 0.961 . S
C405 H421 0.961 . S
C406 C407 1.370 . S
C406 C408 1.363 . S
C406 H422 0.931 . S
C407 C406 1.370 . S
C407 C411 1.408 . S
C408 C406 1.363 . S
C408 C409 1.370 . S
C408 C412 1.524 . S
C409 C401 1.503 . S
C409 C408 1.370 . S
C409 C410 1.403 . S
C410 C409 1.403 . S
C410 C411 1.404 . S
C410 C413 1.539 . S
C411 C407 1.408 . S
C411 C410 1.404 . S
C411 H423 0.930 . S
C412 C408 1.524 . S
C412 H424 0.956 . S
C412 H425 0.961 . S
C412 H426 0.961 . S
C413 C410 1.539 . S
C413 H427 0.958 . S
C413 H428 0.961 . S
C413 H429 0.960 . S
H414 C398 0.931 . S
H415 C403 0.929 . S
H416 C404 0.960 . S
H417 C404 0.962 . S
H418 C404 0.960 . S
H419 C405 0.961 . S
H420 C405 0.961 . S
H421 C405 0.961 . S
H422 C406 0.931 . S
H423 C411 0.930 . S
H424 C412 0.956 . S
H425 C412 0.961 . S
H426 C412 0.961 . S
H427 C413 0.958 . S
H428 C413 0.961 . S
H429 C413 0.960 . S
C430 C431 1.391 . S
C430 C432 1.394 . S
C430 H446 0.931 . S
C431 C430 1.391 . S
C431 C435 1.376 . S
C432 C430 1.394 . S
C432 C433 1.369 . S
C432 C436 1.531 . S
C433 C432 1.369 . S
C433 C434 1.410 . S
C433 C441 1.503 . S
C434 C433 1.410 . S
C434 C435 1.392 . S
C434 C437 1.511 . S
C435 C431 1.376 . S
C435 C434 1.392 . S
C435 H447 0.929 . S
C436 C432 1.531 . S
C436 H448 0.960 . S
C436 H449 0.962 . S
C436 H450 0.960 . S
C437 C434 1.511 . S
C437 H451 0.961 . S
C437 H452 0.961 . S
C437 H453 0.961 . S
C438 C439 1.370 . S
C438 C440 1.363 . S
C438 H454 0.931 . S
C439 C438 1.370 . S
C439 C443 1.408 . S
C440 C438 1.363 . S
C440 C441 1.370 . S
C440 C444 1.524 . S
C441 C433 1.503 . S
C441 C440 1.370 . S
C441 C442 1.403 . S
C442 C441 1.403 . S
C442 C443 1.404 . S
C442 C445 1.539 . S
C443 C439 1.408 . S
C443 C442 1.404 . S
C443 H455 0.930 . S
C444 C440 1.524 . S
C444 H456 0.956 . S
C444 H457 0.961 . S
C444 H458 0.961 . S
C445 C442 1.539 . S
C445 H459 0.958 . S
C445 H460 0.961 . S
C445 H461 0.960 . S
H446 C430 0.931 . S
H447 C435 0.929 . S
H448 C436 0.960 . S
H449 C436 0.962 . S
H450 C436 0.960 . S
H451 C437 0.961 . S
H452 C437 0.961 . S
H453 C437 0.961 . S
H454 C438 0.931 . S
H455 C443 0.930 . S
H456 C444 0.956 . S
H457 C444 0.961 . S
H458 C444 0.961 . S
H459 C445 0.958 . S
H460 C445 0.961 . S
H461 C445 0.960 . S
C87 C73 1.244 . S
C79 C3 1.061 . S
C111 C4 1.413 1_556 S
C119 C64 1.549 . S
C143 C19 1.507 . S
C151 C76 1.552 . S
C175 C7 1.082 . S
C183 C67 1.241 . S
C207 C37 1.101 . S
C215 C55 1.255 . S
C239 C28 1.448 . S
C247 C46 1.543 1_655 S
C279 C58 1.560 . S
C271 C41 1.450 . S
C311 C49 1.254 . S
C303 C25 1.111 . S
C335 C20 1.311 . S
C343 C47 1.468 . S
C367 C16 1.343 1_455 S
C375 C56 1.512 . S
C407 C65 1.463 . S
C399 C40 1.287 . S
C431 C24 1.358 . S
C439 C74 1.512 . S
