# Generated by pormake.
# Topology ftw, (4,12)-cn, num edge types: 1
# Building blocks:
#     Node 0, Type 0, BuildingBlock: MIFKUJ_clean_linker_1, # of connection points: 4
#     Node 1, Type 0, BuildingBlock: MIFKUJ_clean_linker_1, # of connection points: 4
#     Node 2, Type 0, BuildingBlock: MIFKUJ_clean_linker_1, # of connection points: 4
#     Node 3, Type 1, BuildingBlock: QEWDON_clean_sbu_0, # of connection points: 12
#     Edge 4, Type (0, 1), BuildingBlock: EZIPEK_clean_linker_0, # of connection points: 2
#     Edge 5, Type (0, 1), BuildingBlock: EZIPEK_clean_linker_0, # of connection points: 2
#     Edge 6, Type (0, 1), BuildingBlock: EZIPEK_clean_linker_0, # of connection points: 2
#     Edge 7, Type (0, 1), BuildingBlock: EZIPEK_clean_linker_0, # of connection points: 2
#     Edge 8, Type (0, 1), BuildingBlock: EZIPEK_clean_linker_0, # of connection points: 2
#     Edge 9, Type (0, 1), BuildingBlock: EZIPEK_clean_linker_0, # of connection points: 2
#     Edge 10, Type (0, 1), BuildingBlock: EZIPEK_clean_linker_0, # of connection points: 2
#     Edge 11, Type (0, 1), BuildingBlock: EZIPEK_clean_linker_0, # of connection points: 2
#     Edge 12, Type (0, 1), BuildingBlock: EZIPEK_clean_linker_0, # of connection points: 2
#     Edge 13, Type (0, 1), BuildingBlock: EZIPEK_clean_linker_0, # of connection points: 2
#     Edge 14, Type (0, 1), BuildingBlock: EZIPEK_clean_linker_0, # of connection points: 2
#     Edge 15, Type (0, 1), BuildingBlock: EZIPEK_clean_linker_0, # of connection points: 2
# Relax obj value: 0.072
# Max RMSD: 0.190
# Mean RMSD: 0.143
data_MOF--net-ftw--node1-QEWDON_clean_sbu_0--node2-MIFKUJ_clean_linker_1--edge1-EZIPEK_clean_linker_0
_symmetry_space_group_name_H-M    P1
_symmetry_Int_Tables_number       1
_symmetry_cell_setting            triclinic
loop_
_symmetry_equiv_pos_as_xyz
'x, y, z'
_cell_length_a     21.592955
_cell_length_b     24.063884
_cell_length_c     23.267781
_cell_angle_alpha  89.993443
_cell_angle_beta   90.136503
_cell_angle_gamma 90.114616
loop_
_atom_site_label
_atom_site_type_symbol
_atom_site_fract_x
_atom_site_fract_y
_atom_site_fract_z
_atom_type_partial_charge
H0 H 0.08574 0.59353 0.60823 0.0
H1 H 0.09282 0.66835 0.67949 0.0
H2 H 0.90657 0.7189 0.63829 0.0
H3 H 0.89942 0.64388 0.56637 0.0
H4 H -0.00252 0.51249 0.62588 0.0
H5 H 0.05874 0.63836 0.47408 0.0
H6 H 0.06182 0.71119 0.40002 0.0
H7 H 0.87878 0.66441 0.34371 0.0
H8 H 0.87558 0.59146 0.4175 0.0
H9 H 0.87003 0.42118 0.42605 0.0
H10 H 0.87037 0.34245 0.35895 0.0
H11 H 0.05115 0.29471 0.42003 0.0
H12 H 0.05096 0.37341 0.4875 0.0
H13 H 0.95036 0.50461 0.41782 0.0
H14 H 0.88942 0.37812 0.56819 0.0
H15 H 0.88645 0.30437 0.64136 0.0
H16 H 0.06798 0.35288 0.70037 0.0
H17 H 0.07111 0.42658 0.62752 0.0
C18 C -0.0078 0.61326 0.58161 0.0
C19 C 0.04695 0.62159 0.6133 0.0
C20 C 0.05092 0.66404 0.65416 0.0
C21 C 5e-05 0.69873 0.66447 0.0
C22 C 0.94626 0.69242 0.63093 0.0
C23 C 0.94242 0.65 0.58961 0.0
C24 C 0.98377 0.56069 0.54889 0.0
C25 C -0.01184 0.51062 0.58007 0.0
C26 C 0.96882 0.55881 0.48956 0.0
C27 C 0.96678 0.60928 0.45189 0.0
C28 C 0.01854 0.64456 0.44693 0.0
C29 C 0.02052 0.68591 0.4043 0.0
C30 C 0.97078 0.69296 0.36583 0.0
C31 C 0.91782 0.65961 0.37259 0.0
C32 C 0.91602 0.61804 0.41486 0.0
C33 C 0.96032 0.40319 0.46214 0.0
C34 C 0.90919 0.39311 0.42604 0.0
C35 C 0.90933 0.34826 0.38776 0.0
C36 C 0.96081 0.31293 0.38452 0.0
C37 C 0.0109 0.32142 0.42215 0.0
C38 C 0.01058 0.36612 0.46082 0.0
C39 C 0.96473 0.45633 0.49476 0.0
C40 C 0.95942 0.50648 0.46367 0.0
C41 C 0.97875 0.45842 0.55424 0.0
C42 C 0.98062 0.40804 0.59192 0.0
C43 C 0.92927 0.37215 0.59585 0.0
C44 C 0.92735 0.33027 0.6379 0.0
C45 C 0.97683 0.32331 0.67666 0.0
C46 C 0.02922 0.35756 0.67114 0.0
C47 C 0.03098 0.39956 0.62944 0.0
H48 H 0.37136 0.07162 0.44551 0.0
H49 H 0.30213 0.05864 0.36297 0.0
H50 H 0.38326 0.89814 0.33061 0.0
H51 H 0.45342 0.91135 0.4133 0.0
H52 H 0.37091 0.00245 0.54017 0.0
H53 H 0.51834 0.06124 0.39302 0.0
H54 H 0.58854 0.05773 0.31361 0.0
H55 H 0.68573 0.92231 0.39639 0.0
H56 H 0.61395 0.92549 0.4738 0.0
H57 H 0.60273 0.93178 0.63418 0.0
H58 H 0.66619 0.93726 0.7214 0.0
H59 H 0.57768 0.09136 0.76735 0.0
H60 H 0.51376 0.08613 0.67948 0.0
H61 H 0.60016 0.00181 0.54551 0.0
H62 H 0.46022 0.93772 0.6897 0.0
H63 H 0.39603 0.93979 0.77661 0.0
H64 H 0.28948 0.07454 0.7051 0.0
H65 H 0.35535 0.0746 0.61951 0.0
C66 C 0.41786 0.99267 0.43535 0.0
C67 C 0.37507 0.03401 0.42016 0.0
C68 C 0.3356 0.02661 0.37316 0.0
C69 C 0.33775 0.97754 0.34064 0.0
C70 C 0.38131 0.93647 0.35492 0.0
C71 C 0.42136 0.94412 0.40186 0.0
C72 C 0.45406 -0.0016 0.48941 0.0
C73 C 0.42114 0.00304 0.54134 0.0
C74 C 0.51956 -0.00277 0.49086 0.0
C75 C 0.5583 0.99164 0.43829 0.0
C76 C 0.55251 0.02836 0.39188 0.0
C77 C 0.59291 0.02505 0.34479 0.0
C78 C 0.63902 0.98316 0.34119 0.0
C79 C 0.64687 0.94994 0.39105 0.0
C80 C 0.60639 0.95286 0.43747 0.0
C81 C 0.55334 0.00842 0.65037 0.0
C82 C 0.5968 0.96679 0.66292 0.0
C83 C 0.63291 0.96983 0.71259 0.0
C84 C 0.62657 0.01473 0.75045 0.0
C85 C 0.58309 0.05646 0.7384 0.0
C86 C 0.54659 0.0533 0.68858 0.0
C87 C 0.51712 0.00525 0.59611 0.0
C88 C 0.54992 0.00127 0.54425 0.0
C89 C 0.45158 0.00566 0.59484 0.0
C90 C 0.41346 0.00668 0.64818 0.0
C91 C 0.42391 0.96851 0.69303 0.0
C92 C 0.38692 0.9692 0.74238 0.0
C93 C 0.33784 0.00709 0.74705 0.0
C94 C 0.327 0.04485 0.70217 0.0
C95 C 0.36453 0.04477 0.65334 0.0
H96 H 0.58102 0.61372 0.86637 0.0
H97 H 0.66577 0.6777 0.89134 0.0
H98 H 0.72008 0.56993 0.03058 0.0
H99 H 0.63512 0.50651 1.00668 0.0
H100 H 0.59797 0.44616 0.9249 0.0
H101 H 0.4071 0.61545 0.87229 0.0
H102 H 0.3632 0.70097 0.91134 0.0
H103 H 0.49264 0.69534 0.0525 0.0
H104 H 0.53243 0.6068 0.0171 0.0
H105 H 0.3506 0.46375 1.00535 0.0
H106 H 0.26629 0.39947 0.0278 0.0
H107 H 0.31953 0.29551 0.8854 0.0
H108 H 0.40377 0.36052 0.86182 0.0
H109 H 0.38715 0.52654 0.92613 0.0
H110 H 0.45352 0.36306 0.01253 0.0
H111 H 0.49545 0.27461 0.046 0.0
H112 H 0.62331 0.27356 0.90406 0.0
H113 H 0.57737 0.3591 0.86697 0.0
C114 C 0.6014 0.55569 0.93499 0.0
C115 C 0.6118 0.60337 0.90159 0.0
C116 C 0.66015 0.63957 0.91555 0.0
C117 C 0.6988 0.62809 0.96262 0.0
C118 C 0.69085 0.57891 0.99384 0.0
C119 C 0.64249 0.54286 0.98007 0.0
C120 C 0.54507 0.52146 0.92674 0.0
C121 C 0.5517 0.46363 0.92374 0.0
C122 C 0.48494 0.54469 0.92798 0.0
C123 C 0.47284 0.60406 0.94174 0.0
C124 C 0.42705 0.63301 0.91103 0.0
C125 C 0.40217 0.68192 0.93312 0.0
C126 C 0.42376 0.70341 0.98548 0.0
C127 C 0.47508 0.67885 0.01231 0.0
C128 C 0.49822 0.62849 0.99157 0.0
C129 C 0.38381 0.41666 0.93213 0.0
C130 C 0.34314 0.42812 0.97771 0.0
C131 C 0.29517 0.39152 0.99069 0.0
C132 C 0.28716 0.3431 0.95823 0.0
C133 C 0.32525 0.33302 0.9106 0.0
C134 C 0.37328 0.36982 0.89743 0.0
C135 C 0.44005 0.4512 0.92498 0.0
C136 C 0.43341 0.50912 0.92443 0.0
C137 C 0.50017 0.42796 0.92547 0.0
C138 C 0.51233 0.36819 0.93704 0.0
C139 C 0.48772 0.34231 0.98631 0.0
C140 C 0.51202 0.29194 1.0059 0.0
C141 C 0.56367 0.26887 0.97845 0.0
C142 C 0.58407 0.29146 0.92628 0.0
C143 C 0.55804 0.3404 0.90532 0.0
Zn144 Zn 0.05719 0.0672 0.98992 0.0
Zn145 Zn 0.07262 0.09224 0.12651 0.0
O146 O 0.03737 0.03714 0.07044 0.0
H147 H 0.0251 -0.00041 0.0795 0.0
C148 C 0.95884 0.16395 0.86577 0.0
O149 O -0.00538 0.11991 0.86824 0.0
Zn150 Zn 0.91241 0.89321 0.11004 0.0
Zn151 Zn 0.90644 0.91416 0.97138 0.0
O152 O 0.92439 0.95028 0.04809 0.0
H153 H 0.92123 0.98994 0.05301 0.0
Zn154 Zn 0.88706 0.11669 0.97065 0.0
O155 O 0.93591 0.09757 0.0449 0.0
Zn156 Zn 0.87621 0.09141 0.11222 0.0
H157 H 0.91726 0.10636 0.00826 0.0
Zn158 Zn 0.10642 0.86116 0.97417 0.0
O159 O 0.05823 0.88676 0.04439 0.0
H160 H 0.07659 0.87482 0.00868 0.0
Zn161 Zn 0.11845 0.89337 0.1113 0.0
C162 C 0.03886 0.84231 0.86145 0.0
O163 O 0.02669 0.89573 0.86384 0.0
O164 O 0.09346 0.1459 0.99179 0.0
O165 O 0.1192 0.15255 0.08433 0.0
O166 O 0.87506 0.83454 0.98162 0.0
O167 O 0.87051 0.82495 0.07701 0.0
O168 O 0.79589 0.1318 0.98967 0.0
O169 O 0.79217 0.12005 0.08473 0.0
C170 C 0.14974 0.0032 0.17165 0.0
O171 O 0.19567 0.84054 0.99612 0.0
O172 O 0.20344 0.86408 0.08887 0.0
O173 O 0.84952 0.95637 0.91415 0.0
C174 C 0.12112 0.17047 0.03285 0.0
O175 O 0.11126 0.02427 0.93008 0.0
C176 C 0.84312 0.9752 0.17904 0.0
O177 O 0.91671 0.17047 0.90343 0.0
C178 C 0.86066 0.80691 0.02623 0.0
O179 O 0.06782 0.81923 0.90278 0.0
C180 C 0.95943 0.15219 0.19819 0.0
O181 O 0.13595 0.05424 0.17713 0.0
O182 O 0.12121 0.97433 0.13421 0.0
C183 C 0.7668 0.13336 0.03711 0.0
O184 O 0.85762 0.9246 0.17062 0.0
O185 O 0.86547 0.01145 0.1443 0.0
C186 C 0.02638 0.84546 0.18088 0.0
O187 O 0.90634 0.14102 0.17705 0.0
O188 O 0.00915 0.1328 0.17649 0.0
C189 C 0.22649 0.8442 0.04272 0.0
O190 O 0.08503 0.84778 0.17794 0.0
O191 O -0.00429 0.87265 0.14347 0.0
C192 C 0.8022 0.98207 0.93259 0.0
O193 O 0.79363 0.9871 0.98823 0.0
C194 C 0.16921 0.02338 0.94013 0.0
O195 O 0.18947 0.03945 0.99075 0.0
C196 C -0.01239 0.28568 0.28327 0.0
C197 C 0.96423 0.27031 0.33807 0.0
C198 C 0.93835 0.1772 0.30146 0.0
C199 C 0.96337 0.19203 0.24705 0.0
N200 N 0.01746 0.25787 0.18693 0.0
N201 N 0.92519 0.20042 0.4025 0.0
C202 C -0.00997 0.24546 0.23834 0.0
C203 C 0.94186 0.21568 0.34805 0.0
N204 N 0.00544 0.33951 0.2737 0.0
N205 N 0.91062 0.12646 0.3083 0.0
H206 H 0.92599 0.22792 0.43716 0.0
H207 H 0.91454 0.15989 0.41453 0.0
H208 H 0.91075 0.09582 0.27658 0.0
H209 H 0.88484 0.11529 0.34422 0.0
H210 H 0.01563 0.35565 0.23334 0.0
H211 H 0.00676 0.3696 0.30595 0.0
H212 H 0.04467 0.29295 0.18 0.0
H213 H 0.01593 0.23167 0.15129 0.0
C214 C 0.69078 0.01841 0.24701 0.0
C215 C 0.68429 0.97759 0.29082 0.0
C216 C 0.78723 0.94283 0.26679 0.0
C217 C 0.79626 0.98598 0.22599 0.0
N218 N 0.7624 0.07642 0.19533 0.0
N219 N 0.71014 0.88116 0.30455 0.0
C220 C 0.74969 0.02718 0.22108 0.0
C221 C 0.72794 0.93377 0.29027 0.0
N222 N 0.63955 0.04096 0.22206 0.0
N223 N 0.8359 0.91113 0.28467 0.0
H224 H 0.66399 0.87156 0.31366 0.0
H225 H 0.73937 0.84695 0.30009 0.0
H226 H 0.88128 0.92007 0.27244 0.0
H227 H 0.83155 0.88113 0.31683 0.0
H228 H 0.64195 0.06795 0.18704 0.0
H229 H 0.59557 0.02434 0.22935 0.0
H230 H 0.73068 0.10904 0.19371 0.0
H231 H 0.80762 0.08714 0.18539 0.0
C232 C 0.9742 0.79138 0.3273 0.0
C233 C 0.97567 0.73324 0.3167 0.0
C234 C -0.01099 0.75195 0.21326 0.0
C235 C -0.00293 0.80922 0.22526 0.0
N236 N -0.00174 0.88439 0.29318 0.0
N237 N -0.01014 0.65757 0.24987 0.0
C238 C -0.01065 0.82923 0.28216 0.0
C239 C 0.98368 0.71333 0.25956 0.0
N240 N 0.95693 0.81036 0.38024 0.0
N241 N 0.98658 0.7346 0.15737 0.0
H242 H 0.98713 0.6279 0.28242 0.0
H243 H 0.00266 0.64085 0.21039 0.0
H244 H -0.00945 0.76206 0.12283 0.0
H245 H 0.97476 0.69431 0.14518 0.0
H246 H 0.94894 0.85208 0.38936 0.0
H247 H 0.94543 0.78379 0.41402 0.0
H248 H 0.00163 0.90098 0.3344 0.0
H249 H 0.00402 0.91349 0.2604 0.0
C250 C 0.22816 0.96027 0.31037 0.0
C251 C 0.29084 0.96871 0.29443 0.0
C252 C 0.25914 0.97663 0.19331 0.0
C253 C 0.19646 0.97914 0.21109 0.0
N254 N 0.12006 0.97412 0.28607 0.0
N255 N 0.36734 0.98471 0.22095 0.0
C256 C 0.18054 0.97021 0.26943 0.0
C257 C 0.30693 0.97565 0.2357 0.0
N258 N 0.21447 0.94278 0.36477 0.0
N259 N 0.2727 0.97639 0.13597 0.0
H260 H 0.40348 0.9836 0.25073 0.0
H261 H 0.38145 -0.00363 0.17994 0.0
H262 H 0.23844 0.97813 0.10431 0.0
H263 H 0.31692 0.96959 0.11975 0.0
H264 H 0.17021 0.93105 0.37774 0.0
H265 H 0.24861 0.93493 0.39554 0.0
H266 H 0.10593 0.97474 0.32881 0.0
H267 H 0.084 0.97991 0.25678 0.0
C268 C 0.97897 0.72378 0.76779 0.0
C269 C 0.00262 0.7391 0.71309 0.0
C270 C 0.04765 0.82384 0.75477 0.0
C271 C 0.02253 0.80931 0.80928 0.0
N272 N 0.95203 0.75291 0.86436 0.0
N273 N 0.04779 0.80842 0.65154 0.0
C274 C 0.98452 0.76142 0.81478 0.0
C275 C 0.03315 0.79078 0.70569 0.0
N276 N 0.95311 0.67239 0.77537 0.0
N277 N 0.08817 0.86735 0.75029 0.0
H278 H 0.03845 0.78483 0.61488 0.0
H279 H 0.06406 0.8482 0.64239 0.0
H280 H 0.10038 0.89266 0.78482 0.0
H281 H 0.11361 0.8759 0.71337 0.0
H282 H 0.94186 0.65616 0.81551 0.0
H283 H 0.94668 0.6442 0.74182 0.0
H284 H 0.91835 0.7222 0.86885 0.0
H285 H 0.95433 0.78005 0.89927 0.0
C286 C 0.25547 0.96444 0.81046 0.0
C287 C 0.29785 0.00837 0.79915 0.0
C288 C 0.25286 0.06288 0.87744 0.0
C289 C 0.2137 0.01742 0.89182 0.0
N290 N 0.18461 0.92172 0.87827 0.0
N291 N 0.34703 0.09315 0.83061 0.0
C292 C 0.21708 0.96715 0.86014 0.0
C293 C 0.29969 0.05564 0.83545 0.0
N294 N 0.25013 0.92127 0.77257 0.0
N295 N 0.2431 0.11404 0.90133 0.0
H296 H 0.38278 0.08878 0.80086 0.0
H297 H 0.35422 0.12534 0.85983 0.0
H298 H 0.20713 0.12219 0.92986 0.0
H299 H 0.26635 0.1498 0.88816 0.0
H300 H 0.21652 0.8904 0.77577 0.0
H301 H 0.27655 0.91823 0.73527 0.0
H302 H 0.1904 0.88205 0.86128 0.0
H303 H 0.15519 0.92303 0.91362 0.0
C304 C 0.97457 0.22429 0.71363 0.0
C305 C 0.9726 0.28221 0.72498 0.0
C306 C 0.96931 0.26249 0.82876 0.0
C307 C 0.9648 0.20459 0.81721 0.0
N308 N 0.94962 0.13164 0.74709 0.0
N309 N 0.95599 0.35634 0.79299 0.0
C310 C 0.96396 0.18575 0.75918 0.0
C311 C 0.96656 0.30128 0.7825 0.0
N312 N -0.01185 0.20592 0.65954 0.0
N313 N 0.97871 0.28054 0.88376 0.0
H314 H 0.95293 0.38601 0.76043 0.0
H315 H 0.94444 0.37176 0.83338 0.0
H316 H 0.98233 0.25361 0.91867 0.0
H317 H -0.01102 0.32168 0.89402 0.0
H318 H -0.00303 0.16439 0.65003 0.0
H319 H -0.00384 0.23277 0.62513 0.0
H320 H 0.94179 0.11711 0.70553 0.0
H321 H 0.93918 0.10235 0.77861 0.0
C322 C 0.64855 0.98624 0.85169 0.0
C323 C 0.66636 0.01696 0.80254 0.0
C324 C 0.76711 0.03692 0.84696 0.0
C325 C 0.75305 -0.00136 0.89144 0.0
N326 N 0.6823 0.93196 0.93342 0.0
N327 N 0.7424 0.07113 0.75153 0.0
C328 C 0.69388 0.97262 0.89374 0.0
C329 C 0.72537 0.04284 0.79994 0.0
N330 N 0.5883 0.9698 0.85784 0.0
N331 N 0.81993 0.06814 0.85023 0.0
H332 H 0.71213 0.0781 0.71727 0.0
H333 H 0.7873 0.08512 0.74391 0.0
H334 H 0.85158 0.06438 0.88393 0.0
H335 H 0.8297 0.10097 0.82253 0.0
H336 H 0.57091 0.95226 0.89543 0.0
H337 H 0.55426 0.97858 0.82726 0.0
H338 H 0.6427 0.9072 0.93282 0.0
H339 H 0.71439 0.91931 0.96423 0.0
C340 C 0.26825 0.25352 0.00911 0.0
C341 C 0.24407 0.29979 0.97878 0.0
C342 C 0.13853 0.26626 0.99485 0.0
C343 C 0.16305 0.21679 0.01865 0.0
N344 N 0.25159 0.1595 0.04205 0.0
N345 N 0.1574 0.34824 0.93689 0.0
C346 C 0.22802 0.20943 0.02445 0.0
C347 C 0.17945 0.30577 0.97011 0.0
N348 N 0.3294 0.2524 0.02467 0.0
N349 N 0.07637 0.27627 0.99786 0.0
H350 H 0.18619 0.37819 0.91848 0.0
H351 H 0.11134 0.35127 0.92391 0.0
H352 H 0.04527 0.24823 0.01629 0.0
H353 H 0.05652 0.31429 0.98713 0.0
H354 H 0.34801 0.22286 0.05246 0.0
H355 H 0.36075 0.28373 0.01396 0.0
H356 H 0.29844 0.14956 0.0397 0.0
H357 H 0.22415 0.12605 0.05471 0.0
C358 C 0.34366 0.72932 0.05808 0.0
C359 C 0.38611 0.74634 0.01489 0.0
C360 C 0.33569 0.83741 0.00949 0.0
C361 C 0.28729 0.81648 0.04433 0.0
N362 N 0.24375 0.74329 0.1027 0.0
N363 N 0.42777 0.81724 0.95318 0.0
C364 C 0.29178 0.76333 0.07039 0.0
C365 C 0.38429 0.80113 0.99242 0.0
N366 N 0.35167 0.67986 0.08608 0.0
N367 N 0.33424 0.89181 0.99258 0.0
H368 H 0.46555 0.79229 0.94255 0.0
H369 H 0.42607 0.8543 0.93022 0.0
H370 H 0.29903 0.9188 1.00532 0.0
H371 H 0.3695 0.91136 0.96983 0.0
H372 H 0.32712 0.66862 0.12275 0.0
H373 H 0.38599 0.65131 0.07582 0.0
H374 H 0.23968 0.70204 0.11561 0.0
H375 H 0.20547 0.76701 0.11427 0.0
C376 C 0.64665 0.24669 0.04964 0.0
C377 C 0.60365 0.22754 0.00775 0.0
C378 C 0.65692 0.13779 1.00406 0.0
C379 C 0.70577 0.16087 0.03715 0.0
N380 N 0.74955 0.23848 0.08959 0.0
N381 N 0.56443 0.15463 0.94695 0.0
C382 C 0.7006 0.21503 0.06088 0.0
C383 C 0.60724 0.17254 0.98616 0.0
N384 N 0.63722 0.29605 0.07741 0.0
N385 N 0.65851 0.08269 0.98999 0.0
H386 H 0.52581 0.17832 0.93568 0.0
H387 H 0.56808 0.11755 0.9242 0.0
H388 H 0.69417 0.05663 1.00371 0.0
H389 H 0.62254 0.06183 0.96934 0.0
H390 H 0.66253 0.30834 0.11341 0.0
H391 H 0.60106 0.32305 0.068 0.0
H392 H 0.75199 0.28044 0.10025 0.0
H393 H 0.79029 0.21745 0.09944 0.0
C394 C 0.8063 0.66717 0.97214 0.0
C395 C 0.74203 0.67105 0.98389 0.0
C396 C 0.75669 0.76231 0.02787 0.0
C397 C 0.82131 0.75764 0.01806 0.0
N398 N 0.90964 0.70246 0.99199 0.0
N399 N 0.65785 0.71525 0.03433 0.0
C400 C 0.84681 0.70893 0.99363 0.0
C401 C 0.71782 0.71642 0.01547 0.0
N402 N 0.82808 0.62476 0.93881 0.0
N403 N 0.73192 0.81159 0.04598 0.0
H404 H 0.62756 0.68246 0.02575 0.0
H405 H 0.63969 0.74435 0.06278 0.0
H406 H 0.75854 0.84643 0.0562 0.0
H407 H 0.68451 0.81948 0.04664 0.0
H408 H 0.87327 0.62295 0.92344 0.0
H409 H 0.79965 0.59308 0.92311 0.0
H410 H 0.93132 0.66582 0.97947 0.0
H411 H 0.94019 0.73252 0.00776 0.0
loop_
_geom_bond_atom_site_label_1
_geom_bond_atom_site_label_2
_geom_bond_distance
_geom_bond_site_symmetry_2
_ccdc_geom_bond_type
H0 C19 0.949 . S
H1 C20 0.950 . S
H2 C22 0.950 . S
H3 C23 0.950 . S
H4 C25 0.950 . S
H5 C28 0.950 . S
H6 C29 0.950 . S
H7 C31 0.951 . S
H8 C32 0.949 . S
H9 C34 0.949 . S
H10 C35 0.950 . S
H11 C37 0.950 . S
H12 C38 0.950 . S
H13 C40 0.950 . S
H14 C43 0.950 . S
H15 C44 0.950 . S
H16 C46 0.951 . S
H17 C47 0.949 . S
C18 C19 1.376 . S
C18 C23 1.386 1_455 S
C18 C24 1.483 . S
C19 H0 0.949 . S
C19 C18 1.376 . S
C19 C20 1.397 . S
C20 H1 0.950 . S
C20 C19 1.397 . S
C20 C21 1.391 . S
C21 C20 1.391 . S
C21 C22 1.405 1_455 S
C22 H2 0.950 . S
C22 C21 1.405 1_655 S
C22 C23 1.367 . S
C23 H3 0.950 . S
C23 C18 1.386 1_655 S
C23 C22 1.367 . S
C24 C18 1.483 . S
C24 C25 1.382 . S
C24 C26 1.403 1_455 S
C25 H4 0.950 . S
C25 C24 1.382 . S
C25 C41 1.411 . S
C26 C24 1.403 1_655 S
C26 C27 1.489 . S
C26 C40 1.411 . S
C27 C26 1.489 . S
C27 C28 1.383 1_655 S
C27 C32 1.382 . S
C28 H5 0.950 . S
C28 C27 1.383 1_455 S
C28 C29 1.395 . S
C29 H6 0.950 . S
C29 C28 1.395 . S
C29 C30 1.288 1_455 S
C30 C29 1.288 1_655 S
C30 C31 1.392 . S
C31 H7 0.951 . S
C31 C30 1.392 . S
C31 C32 1.392 . S
C32 H8 0.949 . S
C32 C27 1.382 . S
C32 C31 1.392 . S
C33 C34 1.376 . S
C33 C38 1.386 1_655 S
C33 C39 1.483 . S
C34 H9 0.949 . S
C34 C33 1.376 . S
C34 C35 1.397 . S
C35 H10 0.950 . S
C35 C34 1.397 . S
C35 C36 1.391 . S
C36 C35 1.391 . S
C36 C37 1.405 1_655 S
C37 H11 0.950 . S
C37 C36 1.405 1_455 S
C37 C38 1.367 . S
C38 H12 0.950 . S
C38 C33 1.386 1_455 S
C38 C37 1.367 . S
C39 C33 1.483 . S
C39 C40 1.382 . S
C39 C41 1.403 1_655 S
C40 H13 0.950 . S
C40 C26 1.411 . S
C40 C39 1.382 . S
C41 C25 1.411 . S
C41 C39 1.403 1_455 S
C41 C42 1.489 . S
C42 C41 1.489 . S
C42 C43 1.383 1_455 S
C42 C47 1.382 . S
C43 H14 0.950 . S
C43 C42 1.383 1_655 S
C43 C44 1.395 . S
C44 H15 0.950 . S
C44 C43 1.395 . S
C44 C45 1.288 1_655 S
C45 C44 1.288 1_455 S
C45 C46 1.392 . S
C46 H16 0.951 . S
C46 C45 1.392 . S
C46 C47 1.392 . S
C47 H17 0.949 . S
C47 C42 1.382 . S
C47 C46 1.392 . S
H48 C67 0.949 . S
H49 C68 0.950 . S
H50 C70 0.950 . S
H51 C71 0.950 . S
H52 C73 0.950 . S
H53 C76 0.950 . S
H54 C77 0.950 . S
H55 C79 0.951 . S
H56 C80 0.949 . S
H57 C82 0.949 . S
H58 C83 0.950 . S
H59 C85 0.950 . S
H60 C86 0.950 . S
H61 C88 0.950 . S
H62 C91 0.950 . S
H63 C92 0.950 . S
H64 C94 0.951 . S
H65 C95 0.949 . S
C66 C67 1.376 . S
C66 C71 1.386 1_545 S
C66 C72 1.483 . S
C67 H48 0.949 . S
C67 C66 1.376 . S
C67 C68 1.397 . S
C68 H49 0.950 . S
C68 C67 1.397 . S
C68 C69 1.391 . S
C69 C68 1.391 . S
C69 C70 1.405 1_545 S
C70 H50 0.950 . S
C70 C69 1.405 1_565 S
C70 C71 1.367 . S
C71 H51 0.950 . S
C71 C66 1.386 1_565 S
C71 C70 1.367 . S
C72 C66 1.483 . S
C72 C73 1.382 . S
C72 C74 1.403 1_545 S
C73 H52 0.950 . S
C73 C72 1.382 . S
C73 C89 1.411 . S
C74 C72 1.403 1_565 S
C74 C75 1.489 . S
C74 C88 1.411 . S
C75 C74 1.489 . S
C75 C76 1.383 1_565 S
C75 C80 1.382 . S
C76 H53 0.950 . S
C76 C75 1.383 1_545 S
C76 C77 1.395 . S
C77 H54 0.950 . S
C77 C76 1.395 . S
C77 C78 1.288 1_545 S
C78 C77 1.288 1_565 S
C78 C79 1.392 . S
C79 H55 0.951 . S
C79 C78 1.392 . S
C79 C80 1.392 . S
C80 H56 0.949 . S
C80 C75 1.382 . S
C80 C79 1.392 . S
C81 C82 1.376 . S
C81 C86 1.386 1_565 S
C81 C87 1.483 . S
C82 H57 0.949 . S
C82 C81 1.376 . S
C82 C83 1.397 . S
C83 H58 0.950 . S
C83 C82 1.397 . S
C83 C84 1.391 . S
C84 C83 1.391 . S
C84 C85 1.405 1_565 S
C85 H59 0.950 . S
C85 C84 1.405 1_545 S
C85 C86 1.367 . S
C86 H60 0.950 . S
C86 C81 1.386 1_545 S
C86 C85 1.367 . S
C87 C81 1.483 . S
C87 C88 1.382 . S
C87 C89 1.403 1_565 S
C88 H61 0.950 . S
C88 C74 1.411 . S
C88 C87 1.382 . S
C89 C73 1.411 . S
C89 C87 1.403 1_545 S
C89 C90 1.489 . S
C90 C89 1.489 . S
C90 C91 1.383 1_545 S
C90 C95 1.382 . S
C91 H62 0.950 . S
C91 C90 1.383 1_565 S
C91 C92 1.395 . S
C92 H63 0.950 . S
C92 C91 1.395 . S
C92 C93 1.288 1_565 S
C93 C92 1.288 1_545 S
C93 C94 1.392 . S
C94 H64 0.951 . S
C94 C93 1.392 . S
C94 C95 1.392 . S
C95 H65 0.949 . S
C95 C90 1.382 . S
C95 C94 1.392 . S
H96 C115 0.949 . S
H97 C116 0.950 . S
H98 C118 0.950 . S
H99 C119 0.950 . S
H100 C121 0.950 . S
H101 C124 0.950 . S
H102 C125 0.950 . S
H103 C127 0.951 . S
H104 C128 0.949 . S
H105 C130 0.949 . S
H106 C131 0.950 . S
H107 C133 0.950 . S
H108 C134 0.950 . S
H109 C136 0.950 . S
H110 C139 0.950 . S
H111 C140 0.950 . S
H112 C142 0.951 . S
H113 C143 0.949 . S
C114 C115 1.376 1_554 S
C114 C119 1.386 . S
C114 C120 1.483 . S
C115 H96 0.949 . S
C115 C114 1.376 1_556 S
C115 C116 1.397 . S
C116 H97 0.950 . S
C116 C115 1.397 . S
C116 C117 1.391 1_556 S
C117 C116 1.391 1_554 S
C117 C118 1.405 . S
C118 H98 0.950 . S
C118 C117 1.405 . S
C118 C119 1.367 . S
C119 H99 0.950 . S
C119 C114 1.386 . S
C119 C118 1.367 . S
C120 C114 1.483 . S
C120 C121 1.382 . S
C120 C122 1.403 . S
C121 H100 0.950 . S
C121 C120 1.382 . S
C121 C137 1.411 . S
C122 C120 1.403 . S
C122 C123 1.489 . S
C122 C136 1.411 . S
C123 C122 1.489 . S
C123 C124 1.383 1_554 S
C123 C128 1.382 . S
C124 H101 0.950 . S
C124 C123 1.383 1_556 S
C124 C125 1.395 . S
C125 H102 0.950 . S
C125 C124 1.395 . S
C125 C126 1.288 1_556 S
C126 C125 1.288 1_554 S
C126 C127 1.392 . S
C127 H103 0.951 . S
C127 C126 1.392 . S
C127 C128 1.392 . S
C128 H104 0.949 . S
C128 C123 1.382 . S
C128 C127 1.392 . S
C129 C130 1.376 . S
C129 C134 1.386 1_554 S
C129 C135 1.483 . S
C130 H105 0.949 . S
C130 C129 1.376 . S
C130 C131 1.397 . S
C131 H106 0.950 . S
C131 C130 1.397 . S
C131 C132 1.391 . S
C132 C131 1.391 . S
C132 C133 1.405 1_554 S
C133 H107 0.950 . S
C133 C132 1.405 1_556 S
C133 C134 1.367 . S
C134 H108 0.950 . S
C134 C129 1.386 1_556 S
C134 C133 1.367 . S
C135 C129 1.483 . S
C135 C136 1.382 . S
C135 C137 1.403 . S
C136 H109 0.950 . S
C136 C122 1.411 . S
C136 C135 1.382 . S
C137 C121 1.411 . S
C137 C135 1.403 . S
C137 C138 1.489 . S
C138 C137 1.489 . S
C138 C139 1.383 . S
C138 C143 1.382 1_554 S
C139 H110 0.950 . S
C139 C138 1.383 . S
C139 C140 1.395 . S
C140 H111 0.950 . S
C140 C139 1.395 . S
C140 C141 1.288 . S
C141 C140 1.288 . S
C141 C142 1.392 1_554 S
C142 H112 0.951 . S
C142 C141 1.392 1_556 S
C142 C143 1.392 . S
C143 H113 0.949 . S
C143 C138 1.382 1_556 S
C143 C142 1.392 . S
Zn144 O146 1.933 1_556 S
Zn144 O164 1.985 . S
Zn144 O175 1.955 . S
Zn145 O146 1.911 . S
Zn145 O165 1.970 . S
Zn145 O181 1.945 . S
Zn145 O188 1.981 . S
O146 Zn144 1.933 1_554 S
O146 Zn145 1.911 . S
O146 H147 0.841 . S
H147 O146 0.841 . S
C148 O149 1.246 . S
C148 O177 1.276 1_455 S
O149 C148 1.246 . S
Zn150 O152 1.911 . S
Zn150 O167 1.970 . S
Zn150 O184 1.945 . S
Zn150 O191 1.981 . S
Zn151 O152 1.933 1_556 S
Zn151 O166 1.985 . S
Zn151 O173 1.955 . S
O152 Zn150 1.911 . S
O152 Zn151 1.933 1_554 S
O152 H153 0.841 . S
H153 O152 0.841 . S
Zn154 O155 1.933 1_556 S
Zn154 O168 1.985 . S
Zn154 O177 1.955 . S
O155 Zn154 1.933 1_554 S
O155 Zn156 1.911 . S
O155 H157 0.841 . S
Zn156 O155 1.911 . S
Zn156 O169 1.970 . S
Zn156 O185 1.981 . S
Zn156 O187 1.945 . S
H157 O155 0.841 . S
Zn158 O159 1.933 1_556 S
Zn158 O171 1.985 . S
Zn158 O179 1.955 . S
O159 Zn158 1.933 1_554 S
O159 H160 0.841 . S
O159 Zn161 1.911 . S
H160 O159 0.841 . S
Zn161 O159 1.911 . S
Zn161 O172 1.970 . S
Zn161 O182 1.981 . S
Zn161 O190 1.945 . S
C162 O163 1.246 . S
C162 O179 1.276 1_655 S
O163 C162 1.246 . S
O164 Zn144 1.985 . S
O164 C174 1.245 1_556 S
O165 Zn145 1.970 . S
O165 C174 1.263 . S
O166 Zn151 1.985 . S
O166 C178 1.245 1_556 S
O167 Zn150 1.970 . S
O167 C178 1.263 . S
O168 Zn154 1.985 . S
O168 C183 1.245 1_556 S
O169 Zn156 1.970 . S
O169 C183 1.263 . S
C170 O181 1.270 . S
C170 O182 1.241 1_545 S
O171 Zn158 1.985 . S
O171 C189 1.245 1_556 S
O172 Zn161 1.970 . S
O172 C189 1.263 . S
O173 Zn151 1.955 . S
O173 C192 1.276 1_565 S
C174 O164 1.245 1_554 S
C174 O165 1.263 . S
O175 Zn144 1.955 . S
O175 C194 1.276 1_545 S
C176 O184 1.258 1_545 S
C176 O185 1.247 . S
O177 C148 1.276 1_655 S
O177 Zn154 1.955 . S
C178 O166 1.245 1_554 S
C178 O167 1.263 . S
O179 Zn158 1.955 . S
O179 C162 1.276 1_455 S
C180 O187 1.262 1_455 S
C180 O188 1.245 . S
O181 Zn145 1.945 . S
O181 C170 1.270 . S
O182 Zn161 1.981 . S
O182 C170 1.241 1_565 S
C183 O168 1.245 1_554 S
C183 O169 1.263 . S
O184 Zn150 1.945 . S
O184 C176 1.258 1_565 S
O185 Zn156 1.981 . S
O185 C176 1.247 . S
C186 O190 1.263 . S
C186 O191 1.244 1_455 S
O187 Zn156 1.945 . S
O187 C180 1.262 1_655 S
O188 Zn145 1.981 . S
O188 C180 1.245 . S
C189 O171 1.245 1_554 S
C189 O172 1.263 . S
O190 Zn161 1.945 . S
O190 C186 1.263 . S
O191 Zn150 1.981 . S
O191 C186 1.244 1_655 S
C192 O173 1.276 1_545 S
C192 O193 1.246 . S
O193 C192 1.246 . S
C194 O175 1.276 1_565 S
C194 O195 1.246 . S
O195 C194 1.246 . S
C196 C197 1.363 1_655 S
C196 C202 1.379 . S
C196 N204 1.356 . S
C197 C196 1.363 1_455 S
C197 C203 1.363 . S
C198 C199 1.363 . S
C198 C203 1.379 . S
C198 N205 1.356 . S
C199 C198 1.363 . S
C199 C202 1.363 1_455 S
N200 C202 1.356 . S
N200 H212 0.984 . S
N200 H213 0.985 . S
N201 C203 1.356 . S
N201 H206 0.984 . S
N201 H207 0.985 . S
C202 C196 1.379 . S
C202 C199 1.363 1_655 S
C202 N200 1.356 . S
C203 C197 1.363 . S
C203 C198 1.379 . S
C203 N201 1.356 . S
N204 C196 1.356 . S
N204 H210 0.984 . S
N204 H211 0.984 . S
N205 C198 1.356 . S
N205 H208 0.984 . S
N205 H209 0.985 . S
H206 N201 0.984 . S
H207 N201 0.985 . S
H208 N205 0.984 . S
H209 N205 0.985 . S
H210 N204 0.984 . S
H211 N204 0.984 . S
H212 N200 0.984 . S
H213 N200 0.985 . S
C214 C215 1.363 . S
C214 C220 1.379 . S
C214 N222 1.356 . S
C215 C214 1.363 . S
C215 C221 1.363 1_545 S
C216 C217 1.363 1_565 S
C216 C221 1.379 . S
C216 N223 1.356 . S
C217 C216 1.363 1_545 S
C217 C220 1.363 . S
N218 C220 1.356 . S
N218 H230 0.984 . S
N218 H231 0.985 . S
N219 C221 1.356 . S
N219 H224 0.984 . S
N219 H225 0.985 . S
C220 C214 1.379 . S
C220 C217 1.363 . S
C220 N218 1.356 . S
C221 C215 1.363 1_565 S
C221 C216 1.379 . S
C221 N219 1.356 . S
N222 C214 1.356 . S
N222 H228 0.984 . S
N222 H229 0.984 . S
N223 C216 1.356 . S
N223 H226 0.984 . S
N223 H227 0.985 . S
H224 N219 0.984 . S
H225 N219 0.985 . S
H226 N223 0.984 . S
H227 N223 0.985 . S
H228 N222 0.984 . S
H229 N222 0.984 . S
H230 N218 0.984 . S
H231 N218 0.985 . S
C232 C233 1.363 . S
C232 C238 1.379 . S
C232 N240 1.356 . S
C233 C232 1.363 . S
C233 C239 1.364 . S
C234 C235 1.363 . S
C234 C239 1.379 . S
C234 N241 1.356 . S
C235 C234 1.363 . S
C235 C238 1.363 . S
N236 C238 1.356 . S
N236 H248 0.984 . S
N236 H249 0.985 . S
N237 C239 1.355 1_455 S
N237 H242 0.984 . S
N237 H243 0.985 . S
C238 C232 1.379 . S
C238 C235 1.363 . S
C238 N236 1.356 . S
C239 C233 1.364 . S
C239 C234 1.379 . S
C239 N237 1.355 1_655 S
N240 C232 1.356 . S
N240 H246 0.984 . S
N240 H247 0.984 . S
N241 C234 1.356 . S
N241 H244 0.984 . S
N241 H245 0.983 1_655 S
H242 N237 0.984 . S
H243 N237 0.985 . S
H244 N241 0.984 . S
H245 N241 0.983 1_455 S
H246 N240 0.984 . S
H247 N240 0.984 . S
H248 N236 0.984 . S
H249 N236 0.985 . S
C250 C251 1.363 1_545 S
C250 C256 1.379 . S
C250 N258 1.356 . S
C251 C250 1.363 1_565 S
C251 C257 1.363 . S
C252 C253 1.363 . S
C252 C257 1.379 . S
C252 N259 1.356 . S
C253 C252 1.363 . S
C253 C256 1.363 1_565 S
N254 C256 1.356 . S
N254 H266 0.984 . S
N254 H267 0.985 . S
N255 C257 1.356 . S
N255 H260 0.984 . S
N255 H261 0.985 . S
C256 C250 1.379 . S
C256 C253 1.363 1_545 S
C256 N254 1.356 . S
C257 C251 1.363 . S
C257 C252 1.379 . S
C257 N255 1.356 . S
N258 C250 1.356 . S
N258 H264 0.984 . S
N258 H265 0.984 . S
N259 C252 1.356 . S
N259 H262 0.984 . S
N259 H263 0.985 . S
H260 N255 0.984 . S
H261 N255 0.985 . S
H262 N259 0.984 . S
H263 N259 0.985 . S
H264 N258 0.984 . S
H265 N258 0.984 . S
H266 N254 0.984 . S
H267 N254 0.985 . S
C268 C269 1.363 . S
C268 C274 1.379 . S
C268 N276 1.356 . S
C269 C268 1.363 . S
C269 C275 1.363 1_655 S
C270 C271 1.363 1_455 S
C270 C275 1.379 . S
C270 N277 1.356 . S
C271 C270 1.363 1_655 S
C271 C274 1.363 . S
N272 C274 1.356 . S
N272 H284 0.984 . S
N272 H285 0.985 . S
N273 C275 1.356 . S
N273 H278 0.984 . S
N273 H279 0.985 . S
C274 C268 1.379 . S
C274 C271 1.363 . S
C274 N272 1.356 . S
C275 C269 1.363 1_455 S
C275 C270 1.379 . S
C275 N273 1.356 . S
N276 C268 1.356 . S
N276 H282 0.984 . S
N276 H283 0.984 . S
N277 C270 1.356 . S
N277 H280 0.984 . S
N277 H281 0.985 . S
H278 N273 0.984 . S
H279 N273 0.985 . S
H280 N277 0.984 . S
H281 N277 0.985 . S
H282 N276 0.984 . S
H283 N276 0.984 . S
H284 N272 0.984 . S
H285 N272 0.985 . S
C286 C287 1.363 . S
C286 C292 1.379 . S
C286 N294 1.356 . S
C287 C286 1.363 . S
C287 C293 1.363 1_565 S
C288 C289 1.363 1_545 S
C288 C293 1.379 . S
C288 N295 1.356 . S
C289 C288 1.363 1_565 S
C289 C292 1.363 . S
N290 C292 1.356 . S
N290 H302 0.984 . S
N290 H303 0.985 . S
N291 C293 1.356 . S
N291 H296 0.984 . S
N291 H297 0.985 . S
C292 C286 1.379 . S
C292 C289 1.363 . S
C292 N290 1.356 . S
C293 C287 1.363 1_545 S
C293 C288 1.379 . S
C293 N291 1.356 . S
N294 C286 1.356 . S
N294 H300 0.984 . S
N294 H301 0.984 . S
N295 C288 1.356 . S
N295 H298 0.984 . S
N295 H299 0.985 . S
H296 N291 0.984 . S
H297 N291 0.985 . S
H298 N295 0.984 . S
H299 N295 0.985 . S
H300 N294 0.984 . S
H301 N294 0.984 . S
H302 N290 0.984 . S
H303 N290 0.985 . S
C304 C305 1.363 1_655 S
C304 C310 1.379 1_655 S
C304 N312 1.356 . S
C305 C304 1.363 1_455 S
C305 C311 1.363 . S
C306 C307 1.363 . S
C306 C311 1.379 . S
C306 N313 1.356 . S
C307 C306 1.363 . S
C307 C310 1.363 . S
N308 C310 1.356 . S
N308 H320 0.984 1_455 S
N308 H321 0.985 . S
N309 C311 1.356 . S
N309 H314 0.984 . S
N309 H315 0.985 . S
C310 C304 1.379 1_455 S
C310 C307 1.363 . S
C310 N308 1.356 . S
C311 C305 1.363 . S
C311 C306 1.379 . S
C311 N309 1.356 . S
N312 C304 1.356 . S
N312 H318 0.984 . S
N312 H319 0.984 . S
N313 C306 1.356 . S
N313 H316 0.984 . S
N313 H317 0.985 . S
H314 N309 0.984 . S
H315 N309 0.985 . S
H316 N313 0.984 . S
H317 N313 0.985 . S
H318 N312 0.984 . S
H319 N312 0.984 . S
H320 N308 0.984 1_655 S
H321 N308 0.985 . S
C322 C323 1.363 . S
C322 C328 1.379 . S
C322 N330 1.356 . S
C323 C322 1.363 . S
C323 C329 1.363 . S
C324 C325 1.363 . S
C324 C329 1.379 . S
C324 N331 1.356 . S
C325 C324 1.363 . S
C325 C328 1.363 . S
N326 C328 1.356 . S
N326 H338 0.984 . S
N326 H339 0.985 . S
N327 C329 1.356 . S
N327 H332 0.984 1_545 S
N327 H333 0.985 . S
C328 C322 1.379 . S
C328 C325 1.363 . S
C328 N326 1.356 . S
C329 C323 1.363 . S
C329 C324 1.379 . S
C329 N327 1.356 . S
N330 C322 1.356 . S
N330 H336 0.984 . S
N330 H337 0.984 1_545 S
N331 C324 1.356 . S
N331 H334 0.984 . S
N331 H335 0.985 . S
H332 N327 0.984 1_565 S
H333 N327 0.985 . S
H334 N331 0.984 . S
H335 N331 0.985 . S
H336 N330 0.984 . S
H337 N330 0.984 1_565 S
H338 N326 0.984 . S
H339 N326 0.985 . S
C340 C341 1.363 . S
C340 C346 1.379 . S
C340 N348 1.356 . S
C341 C340 1.363 . S
C341 C347 1.363 1_554 S
C342 C343 1.363 1_556 S
C342 C347 1.379 . S
C342 N349 1.356 . S
C343 C342 1.363 1_554 S
C343 C346 1.363 . S
N344 C346 1.356 . S
N344 H356 0.984 . S
N344 H357 0.985 . S
N345 C347 1.356 . S
N345 H350 0.984 . S
N345 H351 0.985 . S
C346 C340 1.379 . S
C346 C343 1.363 . S
C346 N344 1.356 . S
C347 C341 1.363 1_556 S
C347 C342 1.379 . S
C347 N345 1.356 . S
N348 C340 1.356 . S
N348 H354 0.984 . S
N348 H355 0.984 . S
N349 C342 1.356 . S
N349 H352 0.984 . S
N349 H353 0.985 . S
H350 N345 0.984 . S
H351 N345 0.985 . S
H352 N349 0.984 . S
H353 N349 0.985 . S
H354 N348 0.984 . S
H355 N348 0.984 . S
H356 N344 0.984 . S
H357 N344 0.985 . S
C358 C359 1.363 . S
C358 C364 1.379 . S
C358 N366 1.356 . S
C359 C358 1.363 . S
C359 C365 1.363 1_554 S
C360 C361 1.363 1_556 S
C360 C365 1.379 . S
C360 N367 1.356 . S
C361 C360 1.363 1_554 S
C361 C364 1.363 . S
N362 C364 1.356 . S
N362 H374 0.984 . S
N362 H375 0.985 . S
N363 C365 1.356 . S
N363 H368 0.984 . S
N363 H369 0.985 . S
C364 C358 1.379 . S
C364 C361 1.363 . S
C364 N362 1.356 . S
C365 C359 1.363 1_556 S
C365 C360 1.379 . S
C365 N363 1.356 . S
N366 C358 1.356 . S
N366 H372 0.984 . S
N366 H373 0.984 . S
N367 C360 1.356 . S
N367 H370 0.984 . S
N367 H371 0.985 . S
H368 N363 0.984 . S
H369 N363 0.985 . S
H370 N367 0.984 . S
H371 N367 0.985 . S
H372 N366 0.984 . S
H373 N366 0.984 . S
H374 N362 0.984 . S
H375 N362 0.985 . S
C376 C377 1.363 . S
C376 C382 1.379 . S
C376 N384 1.356 . S
C377 C376 1.363 . S
C377 C383 1.363 1_554 S
C378 C379 1.363 1_556 S
C378 C383 1.379 . S
C378 N385 1.356 . S
C379 C378 1.363 1_554 S
C379 C382 1.363 . S
N380 C382 1.356 . S
N380 H392 0.984 . S
N380 H393 0.985 . S
N381 C383 1.356 . S
N381 H386 0.984 . S
N381 H387 0.985 . S
C382 C376 1.379 . S
C382 C379 1.363 . S
C382 N380 1.356 . S
C383 C377 1.363 1_556 S
C383 C378 1.379 . S
C383 N381 1.356 . S
N384 C376 1.356 . S
N384 H390 0.984 . S
N384 H391 0.984 . S
N385 C378 1.356 . S
N385 H388 0.984 . S
N385 H389 0.985 . S
H386 N381 0.984 . S
H387 N381 0.985 . S
H388 N385 0.984 . S
H389 N385 0.985 . S
H390 N384 0.984 . S
H391 N384 0.984 . S
H392 N380 0.984 . S
H393 N380 0.985 . S
C394 C395 1.363 1_556 S
C394 C400 1.379 . S
C394 N402 1.356 . S
C395 C394 1.363 1_554 S
C395 C401 1.363 . S
C396 C397 1.363 . S
C396 C401 1.379 . S
C396 N403 1.356 . S
C397 C396 1.363 . S
C397 C400 1.363 1_554 S
N398 C400 1.356 . S
N398 H410 0.984 . S
N398 H411 0.985 . S
N399 C401 1.356 . S
N399 H404 0.984 . S
N399 H405 0.985 . S
C400 C394 1.379 . S
C400 C397 1.363 1_556 S
C400 N398 1.356 . S
C401 C395 1.363 . S
C401 C396 1.379 . S
C401 N399 1.356 . S
N402 C394 1.356 . S
N402 H408 0.984 . S
N402 H409 0.984 . S
N403 C396 1.356 . S
N403 H406 0.984 . S
N403 H407 0.985 . S
H404 N399 0.984 . S
H405 N399 0.985 . S
H406 N403 0.984 . S
H407 N403 0.985 . S
H408 N402 0.984 . S
H409 N402 0.984 . S
H410 N398 0.984 . S
H411 N398 0.985 . S
C199 C180 1.921 . S
C197 C36 1.987 1_455 S
C217 C176 1.393 . S
C215 C78 1.486 1_545 S
C235 C186 1.919 1_655 S
C233 C30 1.959 . S
C253 C170 1.392 1_565 S
C251 C69 1.500 1_565 S
C269 C21 2.090 1_655 S
C271 C162 1.995 . S
C289 C194 1.474 . S
C287 C93 1.595 1_565 S
C305 C45 2.060 . S
C307 C148 1.993 . S
C323 C84 1.613 1_545 S
C325 C192 1.476 . S
C341 C132 1.128 . S
C343 C174 1.093 . S
C359 C126 1.094 . S
C361 C189 1.068 . S
C379 C183 1.070 . S
C377 C141 1.094 . S
C397 C178 1.094 . S
C395 C117 1.128 . S
