# Generated by pormake.
# Topology ptr, (4,4)-cn, num edge types: 1
# Building blocks:
#     Node 0, Type 0, BuildingBlock: GALJAG_clean_sbu_0, # of connection points: 4
#     Node 1, Type 0, BuildingBlock: GALJAG_clean_sbu_0, # of connection points: 4
#     Node 2, Type 0, BuildingBlock: GALJAG_clean_sbu_0, # of connection points: 4
#     Node 3, Type 0, BuildingBlock: GALJAG_clean_sbu_0, # of connection points: 4
#     Node 4, Type 0, BuildingBlock: GALJAG_clean_sbu_0, # of connection points: 4
#     Node 5, Type 0, BuildingBlock: GALJAG_clean_sbu_0, # of connection points: 4
#     Node 6, Type 0, BuildingBlock: GALJAG_clean_sbu_0, # of connection points: 4
#     Node 7, Type 0, BuildingBlock: GALJAG_clean_sbu_0, # of connection points: 4
#     Node 8, Type 0, BuildingBlock: GALJAG_clean_sbu_0, # of connection points: 4
#     Node 9, Type 0, BuildingBlock: GALJAG_clean_sbu_0, # of connection points: 4
#     Node 10, Type 0, BuildingBlock: GALJAG_clean_sbu_0, # of connection points: 4
#     Node 11, Type 0, BuildingBlock: GALJAG_clean_sbu_0, # of connection points: 4
#     Node 12, Type 0, BuildingBlock: GALJAG_clean_sbu_0, # of connection points: 4
#     Node 13, Type 0, BuildingBlock: GALJAG_clean_sbu_0, # of connection points: 4
#     Node 14, Type 0, BuildingBlock: GALJAG_clean_sbu_0, # of connection points: 4
#     Node 15, Type 0, BuildingBlock: GALJAG_clean_sbu_0, # of connection points: 4
#     Node 16, Type 0, BuildingBlock: GALJAG_clean_sbu_0, # of connection points: 4
#     Node 17, Type 0, BuildingBlock: GALJAG_clean_sbu_0, # of connection points: 4
#     Node 18, Type 1, BuildingBlock: KUFVIS_clean_linker_0, # of connection points: 4
#     Node 19, Type 1, BuildingBlock: KUFVIS_clean_linker_0, # of connection points: 4
#     Node 20, Type 1, BuildingBlock: KUFVIS_clean_linker_0, # of connection points: 4
#     Node 21, Type 1, BuildingBlock: KUFVIS_clean_linker_0, # of connection points: 4
#     Node 22, Type 1, BuildingBlock: KUFVIS_clean_linker_0, # of connection points: 4
#     Node 23, Type 1, BuildingBlock: KUFVIS_clean_linker_0, # of connection points: 4
#     Node 24, Type 1, BuildingBlock: KUFVIS_clean_linker_0, # of connection points: 4
#     Node 25, Type 1, BuildingBlock: KUFVIS_clean_linker_0, # of connection points: 4
#     Node 26, Type 1, BuildingBlock: KUFVIS_clean_linker_0, # of connection points: 4
#     Node 27, Type 1, BuildingBlock: KUFVIS_clean_linker_0, # of connection points: 4
#     Node 28, Type 1, BuildingBlock: KUFVIS_clean_linker_0, # of connection points: 4
#     Node 29, Type 1, BuildingBlock: KUFVIS_clean_linker_0, # of connection points: 4
#     Node 30, Type 1, BuildingBlock: KUFVIS_clean_linker_0, # of connection points: 4
#     Node 31, Type 1, BuildingBlock: KUFVIS_clean_linker_0, # of connection points: 4
#     Node 32, Type 1, BuildingBlock: KUFVIS_clean_linker_0, # of connection points: 4
#     Node 33, Type 1, BuildingBlock: KUFVIS_clean_linker_0, # of connection points: 4
#     Node 34, Type 1, BuildingBlock: KUFVIS_clean_linker_0, # of connection points: 4
#     Node 35, Type 1, BuildingBlock: KUFVIS_clean_linker_0, # of connection points: 4
#     Edge 36, Type (0, 1), BuildingBlock: XIVTED_clean_linker_0, # of connection points: 2
#     Edge 37, Type (0, 1), BuildingBlock: XIVTED_clean_linker_0, # of connection points: 2
#     Edge 38, Type (0, 1), BuildingBlock: XIVTED_clean_linker_0, # of connection points: 2
#     Edge 39, Type (0, 1), BuildingBlock: XIVTED_clean_linker_0, # of connection points: 2
#     Edge 40, Type (0, 1), BuildingBlock: XIVTED_clean_linker_0, # of connection points: 2
#     Edge 41, Type (0, 1), BuildingBlock: XIVTED_clean_linker_0, # of connection points: 2
#     Edge 42, Type (0, 1), BuildingBlock: XIVTED_clean_linker_0, # of connection points: 2
#     Edge 43, Type (0, 1), BuildingBlock: XIVTED_clean_linker_0, # of connection points: 2
#     Edge 44, Type (0, 1), BuildingBlock: XIVTED_clean_linker_0, # of connection points: 2
#     Edge 45, Type (0, 1), BuildingBlock: XIVTED_clean_linker_0, # of connection points: 2
#     Edge 46, Type (0, 1), BuildingBlock: XIVTED_clean_linker_0, # of connection points: 2
#     Edge 47, Type (0, 1), BuildingBlock: XIVTED_clean_linker_0, # of connection points: 2
#     Edge 48, Type (0, 1), BuildingBlock: XIVTED_clean_linker_0, # of connection points: 2
#     Edge 49, Type (0, 1), BuildingBlock: XIVTED_clean_linker_0, # of connection points: 2
#     Edge 50, Type (0, 1), BuildingBlock: XIVTED_clean_linker_0, # of connection points: 2
#     Edge 51, Type (0, 1), BuildingBlock: XIVTED_clean_linker_0, # of connection points: 2
#     Edge 52, Type (0, 1), BuildingBlock: XIVTED_clean_linker_0, # of connection points: 2
#     Edge 53, Type (0, 1), BuildingBlock: XIVTED_clean_linker_0, # of connection points: 2
#     Edge 54, Type (0, 1), BuildingBlock: XIVTED_clean_linker_0, # of connection points: 2
#     Edge 55, Type (0, 1), BuildingBlock: XIVTED_clean_linker_0, # of connection points: 2
#     Edge 56, Type (0, 1), BuildingBlock: XIVTED_clean_linker_0, # of connection points: 2
#     Edge 57, Type (0, 1), BuildingBlock: XIVTED_clean_linker_0, # of connection points: 2
#     Edge 58, Type (0, 1), BuildingBlock: XIVTED_clean_linker_0, # of connection points: 2
#     Edge 59, Type (0, 1), BuildingBlock: XIVTED_clean_linker_0, # of connection points: 2
#     Edge 60, Type (0, 1), BuildingBlock: XIVTED_clean_linker_0, # of connection points: 2
#     Edge 61, Type (0, 1), BuildingBlock: XIVTED_clean_linker_0, # of connection points: 2
#     Edge 62, Type (0, 1), BuildingBlock: XIVTED_clean_linker_0, # of connection points: 2
#     Edge 63, Type (0, 1), BuildingBlock: XIVTED_clean_linker_0, # of connection points: 2
#     Edge 64, Type (0, 1), BuildingBlock: XIVTED_clean_linker_0, # of connection points: 2
#     Edge 65, Type (0, 1), BuildingBlock: XIVTED_clean_linker_0, # of connection points: 2
#     Edge 66, Type (0, 1), BuildingBlock: XIVTED_clean_linker_0, # of connection points: 2
#     Edge 67, Type (0, 1), BuildingBlock: XIVTED_clean_linker_0, # of connection points: 2
#     Edge 68, Type (0, 1), BuildingBlock: XIVTED_clean_linker_0, # of connection points: 2
#     Edge 69, Type (0, 1), BuildingBlock: XIVTED_clean_linker_0, # of connection points: 2
#     Edge 70, Type (0, 1), BuildingBlock: XIVTED_clean_linker_0, # of connection points: 2
#     Edge 71, Type (0, 1), BuildingBlock: XIVTED_clean_linker_0, # of connection points: 2
#     Edge 72, Type (0, 1), BuildingBlock: XIVTED_clean_linker_0, # of connection points: 2
#     Edge 73, Type (0, 1), BuildingBlock: XIVTED_clean_linker_0, # of connection points: 2
#     Edge 74, Type (0, 1), BuildingBlock: XIVTED_clean_linker_0, # of connection points: 2
#     Edge 75, Type (0, 1), BuildingBlock: XIVTED_clean_linker_0, # of connection points: 2
#     Edge 76, Type (0, 1), BuildingBlock: XIVTED_clean_linker_0, # of connection points: 2
#     Edge 77, Type (0, 1), BuildingBlock: XIVTED_clean_linker_0, # of connection points: 2
#     Edge 78, Type (0, 1), BuildingBlock: XIVTED_clean_linker_0, # of connection points: 2
#     Edge 79, Type (0, 1), BuildingBlock: XIVTED_clean_linker_0, # of connection points: 2
#     Edge 80, Type (0, 1), BuildingBlock: XIVTED_clean_linker_0, # of connection points: 2
#     Edge 81, Type (0, 1), BuildingBlock: XIVTED_clean_linker_0, # of connection points: 2
#     Edge 82, Type (0, 1), BuildingBlock: XIVTED_clean_linker_0, # of connection points: 2
#     Edge 83, Type (0, 1), BuildingBlock: XIVTED_clean_linker_0, # of connection points: 2
#     Edge 84, Type (0, 1), BuildingBlock: XIVTED_clean_linker_0, # of connection points: 2
#     Edge 85, Type (0, 1), BuildingBlock: XIVTED_clean_linker_0, # of connection points: 2
#     Edge 86, Type (0, 1), BuildingBlock: XIVTED_clean_linker_0, # of connection points: 2
#     Edge 87, Type (0, 1), BuildingBlock: XIVTED_clean_linker_0, # of connection points: 2
#     Edge 88, Type (0, 1), BuildingBlock: XIVTED_clean_linker_0, # of connection points: 2
#     Edge 89, Type (0, 1), BuildingBlock: XIVTED_clean_linker_0, # of connection points: 2
#     Edge 90, Type (0, 1), BuildingBlock: XIVTED_clean_linker_0, # of connection points: 2
#     Edge 91, Type (0, 1), BuildingBlock: XIVTED_clean_linker_0, # of connection points: 2
#     Edge 92, Type (0, 1), BuildingBlock: XIVTED_clean_linker_0, # of connection points: 2
#     Edge 93, Type (0, 1), BuildingBlock: XIVTED_clean_linker_0, # of connection points: 2
#     Edge 94, Type (0, 1), BuildingBlock: XIVTED_clean_linker_0, # of connection points: 2
#     Edge 95, Type (0, 1), BuildingBlock: XIVTED_clean_linker_0, # of connection points: 2
#     Edge 96, Type (0, 1), BuildingBlock: XIVTED_clean_linker_0, # of connection points: 2
#     Edge 97, Type (0, 1), BuildingBlock: XIVTED_clean_linker_0, # of connection points: 2
#     Edge 98, Type (0, 1), BuildingBlock: XIVTED_clean_linker_0, # of connection points: 2
#     Edge 99, Type (0, 1), BuildingBlock: XIVTED_clean_linker_0, # of connection points: 2
#     Edge 100, Type (0, 1), BuildingBlock: XIVTED_clean_linker_0, # of connection points: 2
#     Edge 101, Type (0, 1), BuildingBlock: XIVTED_clean_linker_0, # of connection points: 2
#     Edge 102, Type (0, 1), BuildingBlock: XIVTED_clean_linker_0, # of connection points: 2
#     Edge 103, Type (0, 1), BuildingBlock: XIVTED_clean_linker_0, # of connection points: 2
#     Edge 104, Type (0, 1), BuildingBlock: XIVTED_clean_linker_0, # of connection points: 2
#     Edge 105, Type (0, 1), BuildingBlock: XIVTED_clean_linker_0, # of connection points: 2
#     Edge 106, Type (0, 1), BuildingBlock: XIVTED_clean_linker_0, # of connection points: 2
#     Edge 107, Type (0, 1), BuildingBlock: XIVTED_clean_linker_0, # of connection points: 2
# Relax obj value: 0.068
# Max RMSD: 0.101
# Mean RMSD: 0.096
data_MOF--net-ptr--node1-GALJAG_clean_sbu_0--node2-KUFVIS_clean_linker_0--edge1-XIVTED_clean_linker_0
_symmetry_space_group_name_H-M    P1
_symmetry_Int_Tables_number       1
_symmetry_cell_setting            triclinic
loop_
_symmetry_equiv_pos_as_xyz
'x, y, z'
_cell_length_a     77.465669
_cell_length_b     77.615878
_cell_length_c     52.087921
_cell_angle_alpha  89.93152
_cell_angle_beta   90.065663
_cell_angle_gamma 120.26809
loop_
_atom_site_label
_atom_site_type_symbol
_atom_site_fract_x
_atom_site_fract_y
_atom_site_fract_z
_atom_type_partial_charge
In0 In 0.01927 0.37721 0.00538 0.0
O1 O 1.00631 0.38815 0.03678 0.0
O2 O 0.0378 0.40113 0.0351 0.0
C3 C 0.98719 0.34106 0.99425 0.0
C4 C 0.04583 0.36567 0.01727 0.0
C5 C 0.02334 0.40136 0.96535 0.0
O6 O 0.98738 0.35134 0.01312 0.0
O7 O 1.00287 0.34918 0.98083 0.0
O8 O 0.03485 0.39449 0.96876 0.0
O9 O 1.00956 0.39569 0.9817 0.0
C10 C 0.02309 0.40074 0.04597 0.0
O11 O 0.04943 0.37896 0.0007 0.0
O12 O 0.02897 0.35841 0.02802 0.0
In13 In 0.65967 0.64698 0.01453 0.0
O14 O 0.65599 0.63058 0.05273 0.0
O15 O 0.63016 0.62847 0.03569 0.0
C16 C 0.697 0.65534 0.00237 0.0
C17 C 0.66628 0.68383 0.02611 0.0
C18 C 0.63935 0.62549 0.97295 0.0
O19 O 0.68566 0.64083 0.01666 0.0
O20 O 0.68946 0.66543 0.99421 0.0
O21 O 0.63724 0.63946 0.98175 0.0
O22 O 0.65194 0.62269 0.98475 0.0
C23 C 0.63734 0.6234 0.05391 0.0
O24 O 0.65583 0.67404 0.0071 0.0
O25 O 0.67298 0.67491 0.03944 0.0
In26 In 0.38441 0.02066 0.01462 0.0
O27 O 0.37617 0.04484 0.02234 0.0
O28 O 0.39345 0.04804 0.98929 0.0
C29 C 0.40573 0.02182 0.0568 0.0
C30 C 0.40236 0.01484 0.97391 0.0
C31 C 0.34587 0.99065 0.02054 0.0
O32 O 0.40555 0.03699 0.04853 0.0
O33 O 0.39476 1.00611 0.04439 0.0
O34 O 0.35908 0.98812 0.01007 0.0
O35 O 0.35203 1.00825 0.02794 0.0
C36 C 0.38497 0.05509 0.00276 0.0
O37 O 0.38411 0.00995 0.97363 0.0
O38 O 0.41149 0.02292 0.99447 0.0
In39 In 0.02113 0.65326 0.0046 0.0
O40 O 0.03613 0.64349 0.97465 0.0
O41 O 1.00561 0.6344 0.96913 0.0
C42 C 0.05584 0.68676 0.01725 0.0
C43 C 0.99297 0.66398 -0.0003 0.0
C44 C 1.01363 0.62621 0.04192 0.0
O45 O 0.04843 0.68386 -0.00498 0.0
O46 O 0.04584 0.67286 0.03294 0.0
O47 O 1.00815 0.63899 0.04365 0.0
O48 O 0.02296 0.62726 0.02162 0.0
C49 C 0.0206 0.6337 0.96125 0.0
O50 O 0.98918 0.6474 0.00894 0.0
O51 O 1.01095 0.6752 0.99324 0.0
In52 In 0.37659 0.38381 -0.0025 0.0
O53 O 0.37785 0.39703 0.95733 0.0
O54 O 0.40508 0.40588 0.97692 0.0
C55 C 0.33944 0.37877 0.00354 0.0
C56 C 0.37504 0.34837 0.9907 0.0
C57 C 0.39721 0.40147 0.04096 0.0
O58 O 0.35511 0.39392 0.01138 0.0
O59 O 0.34243 0.36629 0.99188 0.0
O60 O 0.39197 0.38369 0.03529 0.0
O61 O 0.39176 0.41002 0.02509 0.0
C62 C 0.39669 0.40771 0.95725 0.0
O63 O 0.36463 0.35083 0.00733 0.0
O64 O 0.38626 0.36374 0.97768 0.0
In65 In 0.65182 1.00664 0.00588 0.0
O66 O 0.64375 0.02197 0.0374 0.0
O67 O 0.63148 0.9907 0.04001 0.0
C68 C 0.68641 0.04061 0.99466 0.0
C69 C 0.65983 0.97648 0.00999 0.0
C70 C 0.62641 1.00331 0.96806 0.0
O71 O 0.68282 0.03293 0.0168 0.0
O72 O 0.67284 0.03104 0.97837 0.0
O73 O 0.63746 0.99571 0.96629 0.0
O74 O 0.62812 0.01234 0.98884 0.0
C75 C 0.63243 1.00609 0.0494 0.0
O76 O 0.64322 0.9738 0.00225 0.0
O77 O 0.67255 0.9944 0.01501 0.0
In78 In 0.6775 0.70535 0.34601 0.0
O79 O 0.66606 0.70783 0.38568 0.0
O80 O 0.68935 0.7342 0.36881 0.0
C81 C 0.64618 0.66902 0.33379 0.0
C82 C 0.70842 0.6996 0.35745 0.0
C83 C 0.67806 0.72658 0.30437 0.0
O84 O 0.64413 0.68161 0.34672 0.0
O85 O 0.66387 0.67481 0.32688 0.0
O86 O 0.69055 0.72086 0.30761 0.0
O87 O 0.66509 0.72124 0.3218 0.0
C88 C 0.67763 0.72642 0.38751 0.0
O89 O 0.71016 0.71304 0.34221 0.0
O90 O 0.69125 0.68932 0.36717 0.0
In91 In 0.32588 0.98302 0.34444 0.0
O92 O 0.31098 0.95437 0.36876 0.0
O93 O 0.31226 0.98021 0.38414 0.0
C94 C 0.36246 0.98697 0.3389 0.0
C95 C 0.33317 0.02067 0.35086 0.0
C96 C 0.30428 0.96509 0.30157 0.0
O97 O 0.34816 0.97173 0.34928 0.0
O98 O 0.35823 0.99988 0.33159 0.0
O99 O 0.29637 0.96663 0.32189 0.0
O100 O 0.32301 0.97324 0.30257 0.0
C101 C 0.30643 0.96198 0.387 0.0
O102 O 0.31886 1.00817 0.33709 0.0
O103 O 0.34339 0.01407 0.36128 0.0
In104 In 0.0517 0.35524 0.34769 0.0
O105 O 0.06296 0.38897 0.34755 0.0
O106 O 0.03452 0.36942 0.33135 0.0
C107 C 0.07181 0.35591 0.39042 0.0
C108 C 0.07352 0.35501 0.30698 0.0
C109 C 0.01493 0.32386 0.35832 0.0
O110 O 0.06786 0.36952 0.38552 0.0
O111 O 0.06503 0.34186 0.37433 0.0
O112 O 0.02667 0.32245 0.34278 0.0
O113 O 0.02188 0.34078 0.36861 0.0
C114 C 0.04757 0.38713 0.3366 0.0
O115 O 0.0556 0.35082 0.30474 0.0
O116 O 0.08023 0.35908 0.32949 0.0
In117 In 0.69244 0.98761 0.33491 0.0
O118 O 0.70825 0.9832 0.30037 0.0
O119 O 0.67767 0.96201 0.30622 0.0
C120 C 0.72583 0.02184 0.34889 0.0
C121 C 0.66238 0.99577 0.32874 0.0
C122 C 0.68899 0.96323 0.3739 0.0
O123 O 0.71871 0.0192 0.32649 0.0
O124 O 0.71601 1.00751 0.36405 0.0
O125 O 0.67987 0.97291 0.37361 0.0
O126 O 0.69999 0.96601 0.35464 0.0
C127 C 0.69314 0.96726 0.29302 0.0
O128 O 0.66002 0.98036 0.33999 0.0
O129 O 0.6799 1.00717 0.32075 0.0
In130 In 0.04939 0.71395 0.33963 0.0
O131 O 0.05072 0.72868 0.30077 0.0
O132 O 0.07773 0.73255 0.31644 0.0
C133 C 1.01333 0.70875 0.35376 0.0
C134 C 0.0446 0.67825 0.32497 0.0
C135 C 0.07181 0.7334 0.38114 0.0
O136 O 0.02576 0.72358 0.3408 0.0
O137 O 0.01916 0.69678 0.35984 0.0
O138 O 0.0639 0.71477 0.37844 0.0
O139 O 0.06785 0.74195 0.36346 0.0
C140 C 0.06942 0.73655 0.29848 0.0
O141 O 0.05896 0.69032 0.33891 0.0
O142 O 0.03286 0.68425 0.31826 0.0
In143 In 0.31801 0.33958 0.34004 0.0
O144 O 0.31881 0.31088 0.33267 0.0
O145 O 0.32261 0.32166 0.37102 0.0
C146 C 0.29676 0.33949 0.29863 0.0
C147 C 0.29405 0.3395 0.37764 0.0
C148 C 0.35677 0.36816 0.332 0.0
O149 O 0.29893 0.3249 0.30422 0.0
O150 O 0.30572 0.35423 0.31342 0.0
O151 O 0.34534 0.37092 0.34646 0.0
O152 O 0.34871 0.35115 0.32179 0.0
C153 C 0.3213 0.30829 0.35602 0.0
O154 O 0.31126 0.35431 0.3736 0.0
O155 O 0.28906 0.32486 0.36285 0.0
In156 In 0.34377 0.04089 0.68591 0.0
O157 O 0.37254 0.05136 0.70874 0.0
O158 O 0.3681 0.03337 0.67589 0.0
C159 C 0.34523 0.06027 0.64183 0.0
C160 C 0.33942 0.06072 0.72574 0.0
C161 C 0.31312 1.00252 0.68144 0.0
O162 O 0.35848 0.05607 0.64768 0.0
O163 O 0.33123 0.05437 0.65783 0.0
O164 O 0.33049 1.00687 0.68808 0.0
O165 O 0.31108 0.01741 0.67772 0.0
C166 C 0.37926 0.0429 0.69458 0.0
O167 O 0.33246 0.04208 0.72636 0.0
O168 O 0.34871 0.06913 0.70544 0.0
In169 In 0.9915 0.31909 0.68033 0.0
O170 O 0.98424 0.34404 0.67474 0.0
O171 O 1.01236 0.35178 0.69104 0.0
C172 C 0.96699 0.29832 0.64122 0.0
C173 C 0.97012 0.29987 0.72273 0.0
C174 C 0.02607 0.31951 0.67019 0.0
O175 O 0.97825 0.31705 0.64046 0.0
O176 O 0.96812 0.29019 0.66162 0.0
O177 O 0.0225 0.32419 0.69194 0.0
O178 O 1.01241 0.31481 0.65385 0.0
C179 C 1.00049 0.35757 0.68409 0.0
O180 O 0.98154 0.29505 0.71167 0.0
O181 O 0.97016 0.31475 0.71308 0.0
In182 In 0.72132 0.69105 0.67866 0.0
O183 O 0.73139 0.72427 0.67997 0.0
O184 O 0.70061 0.70383 0.67345 0.0
C185 C 0.74772 0.69772 0.71673 0.0
C186 C 0.73904 0.69002 0.63422 0.0
C187 C 0.68682 0.65661 0.68915 0.0
O188 O 0.73408 0.70202 0.719 0.0
O189 O 0.74793 0.69011 0.69547 0.0
O190 O 0.6892 0.66634 0.66874 0.0
O191 O 0.70167 0.66422 0.70405 0.0
C192 C 0.71427 0.72182 0.67559 0.0
O193 O 0.73085 0.67535 0.64931 0.0
O194 O 0.73753 0.70476 0.64096 0.0
In195 In 0.35734 0.31996 0.6705 0.0
O196 O 0.37418 0.31639 0.63653 0.0
O197 O 0.34418 0.29365 0.64272 0.0
C198 C 0.39034 0.35437 0.68486 0.0
C199 C 0.32741 0.32799 0.66131 0.0
C200 C 0.35379 0.29611 0.71031 0.0
O201 O 0.38449 0.35088 0.66184 0.0
O202 O 0.37946 0.34076 0.70046 0.0
O203 O 0.34459 0.30572 0.70954 0.0
O204 O 0.36484 0.29873 0.69118 0.0
C205 C 0.35986 0.29971 0.62965 0.0
O206 O 0.32436 0.31195 0.67141 0.0
O207 O 0.34545 0.33997 0.65598 0.0
In208 In 0.71107 0.04534 0.67344 0.0
O209 O 0.7136 0.06094 0.63493 0.0
O210 O 0.73987 0.06297 0.65047 0.0
C211 C 0.67427 0.0385 0.6868 0.0
C212 C 0.70523 1.00912 0.65967 0.0
C213 C 0.73308 0.06548 0.71496 0.0
O214 O 0.6861 0.05321 0.67316 0.0
O215 O 0.68117 0.02766 0.69407 0.0
O216 O 0.72703 0.04724 0.71132 0.0
O217 O 0.72752 0.07335 0.69813 0.0
C218 C 0.73215 0.06782 0.63262 0.0
O219 O 0.71849 0.02023 0.67558 0.0
O220 O 0.69531 0.01646 0.65035 0.0
In221 In 0.98574 0.6757 0.66931 0.0
O222 O 0.97967 0.64365 0.66584 0.0
O223 O 1.00781 0.66559 0.68054 0.0
C224 C 0.95873 0.66837 0.63181 0.0
C225 C 0.96663 0.67597 0.71272 0.0
C226 C 0.01908 0.71053 0.65674 0.0
O227 O 0.97183 0.6633 0.62985 0.0
O228 O 0.95934 0.67705 0.65251 0.0
O229 O 0.01623 0.70313 0.67898 0.0
O230 O 1.00529 0.70035 0.64097 0.0
C231 C 0.99639 0.64752 0.67475 0.0
O232 O 0.97659 0.69128 0.69907 0.0
O233 O 0.9668 0.6607 0.70497 0.0
H234 H 0.24102 0.34415 0.12557 0.0
H235 H 0.20123 0.35892 0.08726 0.0
H236 H 0.19194 0.34098 0.16723 0.0
H237 H 0.17806 0.35987 0.16846 0.0
H238 H 0.12505 0.35161 0.13131 0.0
H239 H 0.16765 0.34439 0.08771 0.0
C240 C 0.22767 0.34537 0.12597 0.0
C241 C 0.21736 0.34242 0.14905 0.0
C242 C 0.22175 0.35106 0.10369 0.0
C243 C 0.20517 0.35383 0.10445 0.0
C244 C 0.19387 0.35003 0.12728 0.0
C245 C 0.20028 0.34431 0.14948 0.0
C246 C 0.17533 0.35164 0.12807 0.0
C247 C 0.16893 0.35612 0.15136 0.0
C248 C 0.15079 0.3561 0.15274 0.0
C249 C 0.13923 0.35198 0.13052 0.0
C250 C 0.1455 0.34826 0.10712 0.0
C251 C 0.16345 0.34802 0.10584 0.0
H252 H 0.68994 0.90636 0.1217 0.0
H253 H 0.67508 0.85179 0.08358 0.0
H254 H 0.69323 0.86095 0.1637 0.0
H255 H 0.67786 0.82927 0.16656 0.0
H256 H 0.68205 0.78264 0.12931 0.0
H257 H 0.68531 0.83003 0.08372 0.0
C258 C 0.68859 0.89175 0.12223 0.0
C259 C 0.69151 0.88447 0.14532 0.0
C260 C 0.68305 0.88015 0.09997 0.0
C261 C 0.68012 0.86072 0.10083 0.0
C262 C 0.68378 0.85318 0.1238 0.0
C263 C 0.68966 0.86556 0.14587 0.0
C264 C 0.68196 0.83285 0.12494 0.0
C265 C 0.67979 0.82316 0.14891 0.0
C266 C 0.6807 0.80559 0.1506 0.0
C267 C 0.68199 0.79658 0.12814 0.0
C268 C 0.68312 0.80508 0.10414 0.0
C269 C 0.68339 0.82329 0.10245 0.0
H270 H 0.24895 0.90922 0.12632 0.0
H271 H 0.20029 0.86364 0.08311 0.0
H272 H 0.20268 0.8587 0.16585 0.0
H273 H 0.16977 0.84392 0.16216 0.0
H274 H 0.12896 0.78832 0.12663 0.0
H275 H 0.18232 0.82954 0.08657 0.0
C276 C 0.23503 0.89504 0.1259 0.0
C277 C 0.22667 0.88492 0.14882 0.0
C278 C 0.22578 0.8873 0.10231 0.0
C279 C 0.2075 0.86918 0.10149 0.0
C280 C 0.1985 0.85868 0.12447 0.0
C281 C 0.20856 0.86671 0.14802 0.0
C282 C 0.17875 0.83949 0.12427 0.0
C283 C 0.16598 0.83397 0.1459 0.0
C284 C 0.14814 0.81552 0.14697 0.0
C285 C 0.14253 0.80279 0.12581 0.0
C286 C 0.15463 0.8079 0.104 0.0
C287 C 0.17275 0.82618 0.10317 0.0
H288 H 0.3548 0.1265 0.89455 0.0
H289 H 0.36948 0.18137 0.93157 0.0
H290 H 0.33782 0.1653 0.85879 0.0
H291 H 0.35306 0.19685 0.85192 0.0
H292 H 0.35575 0.24704 0.8893 0.0
H293 H 0.35794 0.20229 0.93495 0.0
C294 C 0.354 0.14006 0.89482 0.0
C295 C 0.3458 0.14475 0.87395 0.0
C296 C 0.36201 0.15296 0.91575 0.0
C297 C 0.3623 0.17123 0.91573 0.0
C298 C 0.35395 0.17642 0.89491 0.0
C299 C 0.3452 0.16253 0.87452 0.0
C300 C 0.3548 0.19629 0.89371 0.0
C301 C 0.35365 0.20431 0.86968 0.0
C302 C 0.35319 0.22211 0.86808 0.0
C303 C 0.35526 0.23283 0.89047 0.0
C304 C 0.35751 0.22599 0.91433 0.0
C305 C 0.35687 0.20758 0.91614 0.0
H306 H 0.78694 0.12063 0.88852 0.0
H307 H 0.82621 0.17388 0.9299 0.0
H308 H 0.84026 0.16522 0.85202 0.0
H309 H 0.85474 0.19736 0.84968 0.0
H310 H 0.90218 0.24595 0.89012 0.0
H311 H 0.85943 0.19485 0.93259 0.0
C312 C 0.80089 0.13477 0.88936 0.0
C313 C 0.81297 0.14192 0.86759 0.0
C314 C 0.80583 0.14607 0.91185 0.0
C315 C 0.82321 0.16498 0.91272 0.0
C316 C 0.83604 0.1725 0.8911 0.0
C317 C 0.83074 0.16043 0.86878 0.0
C318 C 0.85434 0.19305 0.89118 0.0
C319 C 0.86209 0.20352 0.86779 0.0
C320 C 0.87938 0.22241 0.86737 0.0
C321 C 0.88868 0.23139 0.89041 0.0
C322 C 0.88141 0.22163 0.91382 0.0
C323 C 0.86439 0.20243 0.91432 0.0
H324 H 0.80191 0.69358 0.88832 0.0
H325 H 0.83814 0.67539 0.92883 0.0
H326 H 0.85231 0.6966 0.85036 0.0
H327 H 0.86342 0.67563 0.8485 0.0
H328 H 0.91131 0.67463 0.888 0.0
H329 H 0.87137 0.68685 0.93046 0.0
C330 C 0.81498 0.69189 0.88872 0.0
C331 C 0.82638 0.69543 0.86648 0.0
C332 C 0.81949 0.68519 0.91128 0.0
C333 C 0.83543 0.68142 0.91155 0.0
C334 C 0.84761 0.6854 0.88957 0.0
C335 C 0.843 0.69277 0.86728 0.0
C336 C 0.86493 0.68177 0.88951 0.0
C337 C 0.8714 0.6774 0.86627 0.0
C338 C 0.88817 0.67501 0.86559 0.0
C339 C 0.8982 0.67627 0.88841 0.0
C340 C 0.892 0.68024 0.91171 0.0
C341 C 0.87548 0.68309 0.91235 0.0
H342 H 0.90604 0.67407 0.46065 0.0
H343 H 0.87059 0.6931 0.41972 0.0
H344 H 0.85484 0.67016 0.49732 0.0
H345 H 0.84473 0.69185 0.49995 0.0
H346 H 0.79726 0.69405 0.46117 0.0
H347 H 0.83691 0.68196 0.41772 0.0
C348 C 0.89298 0.67577 0.45998 0.0
C349 C 0.88109 0.67169 0.48182 0.0
C350 C 0.88898 0.68298 0.43749 0.0
C351 C 0.87299 0.68671 0.43689 0.0
C352 C 0.86039 0.68234 0.45858 0.0
C353 C 0.8645 0.67438 0.48071 0.0
C354 C 0.84328 0.68635 0.45874 0.0
C355 C 0.83685 0.69047 0.48222 0.0
C356 C 0.82019 0.69302 0.48323 0.0
C357 C 0.81034 0.69237 0.46051 0.0
C358 C 0.81647 0.68869 0.43696 0.0
C359 C 0.83283 0.68553 0.43597 0.0
H360 H 0.34944 0.23456 0.46551 0.0
H361 H 0.33543 0.18113 0.42482 0.0
H362 H 0.36369 0.19325 0.4998 0.0
H363 H 0.34657 0.16069 0.50306 0.0
H364 H 0.35002 0.11501 0.46159 0.0
H365 H 0.35072 0.163 0.41999 0.0
C366 C 0.34993 0.22084 0.46438 0.0
C367 C 0.35719 0.21504 0.48516 0.0
C368 C 0.34228 0.20877 0.44264 0.0
C369 C 0.34209 0.1906 0.44141 0.0
C370 C 0.34964 0.18445 0.46208 0.0
C371 C 0.35739 0.19711 0.48378 0.0
C372 C 0.34904 0.16479 0.4616 0.0
C373 C 0.34797 0.15482 0.48486 0.0
C374 C 0.34896 0.13726 0.48502 0.0
C375 C 0.34987 0.12892 0.46168 0.0
C376 C 0.35002 0.1379 0.43835 0.0
C377 C 0.34982 0.1559 0.43822 0.0
H378 H 0.91523 0.24329 0.46443 0.0
H379 H 0.8701 0.19499 0.42049 0.0
H380 H 0.86849 0.1933 0.50382 0.0
H381 H 0.83668 0.17526 0.49926 0.0
H382 H 0.79811 0.11943 0.46302 0.0
H383 H 0.85119 0.16212 0.42396 0.0
C384 C 0.90152 0.22893 0.46384 0.0
C385 C 0.8921 0.2196 0.48674 0.0
C386 C 0.89389 0.21992 0.44012 0.0
C387 C 0.87615 0.20129 0.43912 0.0
C388 C 0.86625 0.19134 0.46208 0.0
C389 C 0.87497 0.2006 0.48581 0.0
C390 C 0.84691 0.1716 0.46169 0.0
C391 C 0.83374 0.16549 0.48304 0.0
C392 C 0.81635 0.14664 0.48383 0.0
C393 C 0.81142 0.13411 0.46255 0.0
C394 C 0.82373 0.13987 0.44091 0.0
C395 C 0.84152 0.15843 0.44049 0.0
H396 H 0.03845 0.46748 0.21718 0.0
H397 H 0.02625 0.50751 0.25916 0.0
H398 H 0.03076 0.51073 0.17602 0.0
H399 H 1.01083 0.52222 0.17855 0.0
H400 H 1.01261 0.57247 0.21453 0.0
H401 H 0.03363 0.53913 0.25617 0.0
C402 C 0.03596 0.48004 0.21721 0.0
C403 C 0.03424 0.48801 0.19396 0.0
C404 C 0.03349 0.48734 0.24059 0.0
C405 C 0.02904 0.5028 0.24087 0.0
C406 C 0.02784 0.51166 0.21762 0.0
C407 C 0.03086 0.50415 0.19427 0.0
C408 C 0.02307 0.52827 0.21736 0.0
C409 C 0.01481 0.53186 0.1951 0.0
C410 C 1.01149 0.54801 0.19368 0.0
C411 C 0.01491 0.5598 0.21544 0.0
C412 C 0.02231 0.55627 0.23809 0.0
C413 C 0.02696 0.54094 0.23888 0.0
H414 H 0.45318 0.44759 0.22019 0.0
H415 H 0.50049 0.49353 0.26455 0.0
H416 H 0.49834 0.49944 0.18187 0.0
H417 H 0.53053 0.51596 0.1844 0.0
H418 H 0.57417 0.56771 0.22442 0.0
H419 H 0.52041 0.52638 0.26344 0.0
C420 C 0.46695 0.46189 0.221 0.0
C421 C 0.47531 0.47238 0.19832 0.0
C422 C 0.47569 0.46971 0.24481 0.0
C423 C 0.49355 0.48822 0.246 0.0
C424 C 0.50252 0.49921 0.22326 0.0
C425 C 0.49261 0.49126 0.19959 0.0
C426 C 0.52238 0.51841 0.22379 0.0
C427 C 0.53479 0.52485 0.2017 0.0
C428 C 0.55327 0.5427 0.20169 0.0
C429 C 0.55992 0.55385 0.22423 0.0
C430 C 0.5483 0.54778 0.24647 0.0
C431 C 0.5294 0.53037 0.2462 0.0
H432 H 0.4619 0.01468 0.22749 0.0
H433 H 0.50162 1.00008 0.26624 0.0
H434 H 0.51157 0.01876 0.18646 0.0
H435 H 0.52554 1.00055 0.18445 0.0
H436 H 0.5753 1.00215 0.22217 0.0
H437 H 0.53478 0.01249 0.26626 0.0
C438 C 0.47529 0.01353 0.22717 0.0
C439 C 0.48588 0.01685 0.20427 0.0
C440 C 0.48113 1.0078 0.24947 0.0
C441 C 0.49784 1.00525 0.24899 0.0
C442 C 0.50931 1.00917 0.22631 0.0
C443 C 0.50309 0.01516 0.20409 0.0
C444 C 0.52745 1.00682 0.22552 0.0
C445 C 0.53391 1.00281 0.20198 0.0
C446 C 0.55119 1.00133 0.20072 0.0
C447 C 0.56183 1.00315 0.22313 0.0
C448 C 0.5558 1.00689 0.24668 0.0
C449 C 0.53876 1.00889 0.24796 0.0
H450 H 0.57316 0.01181 0.79467 0.0
H451 H 0.52895 0.01789 0.75292 0.0
H452 H 0.52771 0.01534 0.83628 0.0
H453 H 0.49642 1.0033 0.83282 0.0
H454 H 0.4583 0.02201 0.79927 0.0
H455 H 0.50928 0.03044 0.75707 0.0
C456 C 0.55968 0.01281 0.79471 0.0
C457 C 0.55056 0.01229 0.81798 0.0
C458 C 0.55221 0.0153 0.77146 0.0
C459 C 0.53483 0.01676 0.77127 0.0
C460 C 0.52512 0.01627 0.79461 0.0
C461 C 0.53382 0.01476 0.81791 0.0
C462 C 0.50605 0.01716 0.79507 0.0
C463 C 0.49344 0.01041 0.81697 0.0
C464 C 0.47653 0.01251 0.81889 0.0
C465 C 0.47127 0.02019 0.79801 0.0
C466 C 0.48273 0.02609 0.77562 0.0
C467 C 0.50024 0.0249 0.77419 0.0
H468 H 1.0132 0.57158 0.78878 0.0
H469 H 0.02321 0.52955 0.74824 0.0
H470 H 1.01351 0.52452 0.83075 0.0
H471 H 0.03021 0.50959 0.83093 0.0
H472 H 0.02924 0.4603 0.7934 0.0
H473 H 0.01463 0.49802 0.75014 0.0
C474 C 0.01448 0.55828 0.78904 0.0
C475 C 1.01356 0.54901 0.81235 0.0
C476 C 0.01755 0.55102 0.76604 0.0
C477 C 0.02003 0.53429 0.76624 0.0
C478 C 0.01893 0.52434 0.7896 0.0
C479 C 0.01529 0.53187 0.81252 0.0
C480 C 0.02195 0.50655 0.79038 0.0
C481 C 0.02741 0.50095 0.81361 0.0
C482 C 0.0296 0.48409 0.81497 0.0
C483 C 0.02771 0.47343 0.79256 0.0
C484 C 0.02283 0.47876 0.7692 0.0
C485 C 0.01936 0.49487 0.7682 0.0
H486 H 0.5906 0.56876 0.79808 0.0
H487 H 0.54083 0.53016 0.75025 0.0
H488 H 0.53602 0.52552 0.8333 0.0
H489 H 0.50436 0.5146 0.82567 0.0
H490 H 0.46159 0.46019 0.78924 0.0
H491 H 0.51826 0.49681 0.75329 0.0
C492 C 0.57528 0.55661 0.79624 0.0
C493 C 0.5639 0.54814 0.81827 0.0
C494 C 0.56715 0.55004 0.77179 0.0
C495 C 0.54705 0.53479 0.7693 0.0
C496 C 0.53529 0.52556 0.79143 0.0
C497 C 0.54413 0.53251 0.81586 0.0
C498 C 0.51419 0.50833 0.78952 0.0
C499 C 0.50043 0.50437 0.80973 0.0
C500 C 0.48159 0.48689 0.81007 0.0
C501 C 0.47587 0.47399 0.78905 0.0
C502 C 0.48884 0.47778 0.76844 0.0
C503 C 0.50803 0.49478 0.7687 0.0
H504 H 0.68546 0.78966 0.5605 0.0
H505 H 0.69653 0.84343 0.59736 0.0
H506 H 0.67727 0.83192 0.51775 0.0
H507 H 0.69077 0.86332 0.51388 0.0
H508 H 0.68566 0.90971 0.55033 0.0
H509 H 0.68553 0.86431 0.5969 0.0
C510 C 0.68559 0.80369 0.55955 0.0
C511 C 0.68156 0.80997 0.53634 0.0
C512 C 0.69046 0.81553 0.58153 0.0
C513 C 0.69187 0.83428 0.58029 0.0
C514 C 0.68727 0.84088 0.55723 0.0
C515 C 0.68178 0.82816 0.53551 0.0
C516 C 0.68783 0.86061 0.55563 0.0
C517 C 0.68895 0.8696 0.53145 0.0
C518 C 0.68728 0.88672 0.52942 0.0
C519 C 0.68618 0.89602 0.55173 0.0
C520 C 0.6861 0.88824 0.57591 0.0
C521 C 0.6866 0.87045 0.57796 0.0
H522 H 0.12286 0.78909 0.55246 0.0
H523 H 0.16255 0.84087 0.59601 0.0
H524 H 0.17967 0.83077 0.5206 0.0
H525 H 0.19654 0.86315 0.51872 0.0
H526 H 0.24418 0.90861 0.56299 0.0
H527 H 0.19541 0.85979 0.60192 0.0
C528 C 0.13728 0.80264 0.55432 0.0
C529 C 0.15075 0.80891 0.53392 0.0
C530 C 0.14163 0.81395 0.57672 0.0
C531 C 0.15989 0.83197 0.57892 0.0
C532 C 0.17403 0.83867 0.55863 0.0
C533 C 0.16921 0.82663 0.53632 0.0
C534 C 0.19342 0.85829 0.56011 0.0
C535 C 0.20324 0.86861 0.53735 0.0
C536 C 0.22158 0.8866 0.53825 0.0
C537 C 0.23004 0.89468 0.5621 0.0
C538 C 0.22044 0.88526 0.58491 0.0
C539 C 0.20227 0.86705 0.584 0.0
H540 H 0.12713 0.34944 0.56305 0.0
H541 H 0.16732 0.33394 0.59869 0.0
H542 H 0.17911 0.35926 0.52207 0.0
H543 H 0.19185 0.3401 0.51641 0.0
H544 H 0.24128 0.33877 0.55046 0.0
H545 H 0.2012 0.34701 0.59882 0.0
C546 C 0.14106 0.34928 0.56245 0.0
C547 C 0.15239 0.35483 0.53996 0.0
C548 C 0.14661 0.34214 0.5837 0.0
C549 C 0.16384 0.34047 0.58256 0.0
C550 C 0.17594 0.34648 0.56024 0.0
C551 C 0.1701 0.35406 0.53927 0.0
C552 C 0.19397 0.34403 0.558 0.0
C553 C 0.20025 0.34128 0.53357 0.0
C554 C 0.21731 0.33958 0.53088 0.0
C555 C 0.22801 0.34002 0.55262 0.0
C556 C 0.22217 0.34251 0.57706 0.0
C557 C 0.2052 0.34455 0.57984 0.0
H558 H 0.0568 0.4246 0.07371 0.0
H559 H 1.00731 0.47621 0.1546 0.0
H560 H 0.99495 0.40835 0.06604 0.0
H561 H 0.06105 0.47695 0.17828 0.0
H562 H 1.00503 0.45586 0.11737 0.0
H563 H 0.06074 0.44783 0.10805 0.0
C564 C 0.04404 0.42592 0.07927 0.0
C565 C 0.02548 0.41446 0.06712 0.0
C566 C 0.0174 0.46062 0.13062 0.0
C567 C 0.02996 0.44119 0.10612 0.0
C568 C 0.01883 0.47239 0.15168 0.0
C569 C 0.03437 0.47823 0.16954 0.0
C570 C 0.03175 0.45481 0.12724 0.0
C571 C 0.04875 0.47264 0.16504 0.0
C572 C 0.04631 0.43918 0.09886 0.0
C573 C 1.00947 0.4168 0.07504 0.0
N574 N 0.04708 0.46122 0.14437 0.0
N575 N 1.0121 0.42996 0.09398 0.0
H576 H 0.5967 0.60426 0.0579 0.0
H577 H 0.59353 0.55788 0.196 0.0
H578 H 0.64916 0.61138 0.09668 0.0
H579 H 0.54074 0.546 0.15374 0.0
H580 H 0.61402 0.57589 0.15888 0.0
H581 H 0.5759 0.58183 0.09205 0.0
C582 C 0.60385 0.60109 0.07363 0.0
C583 C 0.62471 0.60979 0.07455 0.0
C584 C 0.59795 0.56917 0.15757 0.0
C585 C 0.60095 0.58405 0.11373 0.0
C586 C 0.58625 0.55887 0.17875 0.0
C587 C 0.56542 0.55057 0.17799 0.0
C588 C 0.58879 0.57135 0.1355 0.0
C589 C 0.55673 0.5521 0.15509 0.0
C590 C 0.59194 0.58821 0.09308 0.0
C591 C 0.63314 0.60507 0.09529 0.0
N592 N 0.56848 0.56251 0.13486 0.0
N593 N 0.62124 0.59259 0.11413 0.0
H594 H 0.42624 0.05189 0.09165 0.0
H595 H 0.47961 0.99785 0.15822 0.0
H596 H 0.41494 0.99343 0.07015 0.0
H597 H 0.47309 0.04357 0.19624 0.0
H598 H 0.4614 1.00024 0.12116 0.0
H599 H 0.44823 0.05268 0.12623 0.0
C600 C 0.42838 0.03924 0.09423 0.0
C601 C 0.41865 0.02251 0.07816 0.0
C602 C 0.46412 0.00988 0.13752 0.0
C603 C 0.444 0.02348 0.11721 0.0
C604 C 0.47469 1.00868 0.15853 0.0
C605 C 0.47779 0.02049 0.18032 0.0
C606 C 0.45678 0.02314 0.1382 0.0
C607 C 0.47087 0.0341 0.17986 0.0
C608 C 0.44092 0.03971 0.11391 0.0
C609 C 0.42201 1.00655 0.08224 0.0
N610 N 0.46064 0.03502 0.15917 0.0
N611 N 0.43445 1.00746 0.10128 0.0
H612 H 0.38617 0.99771 0.92749 0.0
H613 H 0.49122 0.02198 0.86788 0.0
H614 H 0.44142 0.02464 0.97023 0.0
H615 H 0.43583 0.9938 0.82538 0.0
H616 H 0.47263 0.01983 0.90677 0.0
H617 H 0.40354 0.99361 0.89086 0.0
C618 C 0.40194 1.0027 0.92918 0.0
C619 C 0.41241 0.01167 0.95185 0.0
C620 C 0.4645 0.01392 0.889 0.0
C621 C 0.43239 1.007 0.91007 0.0
C622 C 0.4751 0.01498 0.86682 0.0
C623 C 0.4651 1.00825 0.84326 0.0
C624 C 0.44375 1.00615 0.88764 0.0
C625 C 0.4442 0.99952 0.84303 0.0
C626 C 0.41185 1.00032 0.9083 0.0
C627 C 0.4328 0.01776 0.95306 0.0
N628 N 0.43425 0.9989 0.8648 0.0
N629 N 0.44214 0.01542 0.93243 0.0
H630 H 0.05131 0.41505 0.92701 0.0
H631 H 1.00952 0.47972 0.85988 0.0
H632 H 1.00171 0.41972 0.95617 0.0
H633 H 0.05503 0.47023 0.8266 0.0
H634 H 1.00964 0.46156 0.89823 0.0
H635 H 0.05544 0.43823 0.89247 0.0
C636 C 0.04129 0.42096 0.92614 0.0
C637 C 0.02605 0.41534 0.94436 0.0
C638 C 0.01975 0.46362 0.88265 0.0
C639 C 0.03077 0.44199 0.90503 0.0
C640 C 0.01984 0.47418 0.86087 0.0
C641 C 0.03216 0.47635 0.83993 0.0
C642 C 0.0321 0.45519 0.88352 0.0
C643 C 0.04507 0.46865 0.84215 0.0
C644 C 0.04368 0.43423 0.90647 0.0
C645 C 1.01358 0.42355 0.94242 0.0
N646 N 0.04458 0.45827 0.86344 0.0
N647 N 0.01618 0.43641 0.92308 0.0
H648 H 0.64545 0.5988 0.94632 0.0
H649 H 0.54931 0.56148 0.85633 0.0
H650 H 0.60644 0.62336 0.9502 0.0
H651 H 0.59916 0.55377 0.8374 0.0
H652 H 0.56685 0.57927 0.89557 0.0
H653 H 0.62565 0.57768 0.91053 0.0
C654 C 0.6327 0.59974 0.93963 0.0
C655 C 0.62763 0.61293 0.95109 0.0
C656 C 0.57385 0.57352 0.88291 0.0
C657 C 0.60479 0.58865 0.91041 0.0
C658 C 0.56379 0.56323 0.86072 0.0
C659 C 0.57289 0.55626 0.84368 0.0
C660 C 0.59299 0.57658 0.88815 0.0
C661 C 0.59173 0.55906 0.85002 0.0
C662 C 0.62142 0.58769 0.91922 0.0
C663 C 0.61093 0.6135 0.94174 0.0
N664 N 0.60119 0.56904 0.87173 0.0
N665 N 0.60005 0.60148 0.92195 0.0
H666 H 0.04868 0.62434 0.94603 0.0
H667 H 0.98689 0.56107 0.82413 0.0
H668 H 0.98992 0.61393 0.9272 0.0
H669 H 0.03739 0.55876 0.85483 0.0
H670 H 0.98808 0.58112 0.86106 0.0
H671 H 0.0457 0.60171 0.91138 0.0
C672 C 0.03521 0.6174 0.93448 0.0
C673 C 0.01955 0.62107 0.93941 0.0
C674 C 0.99877 0.57604 0.8599 0.0
C675 C 0.01599 0.59509 0.89988 0.0
C676 C 0.99806 0.56459 0.83887 0.0
C677 C 1.01208 0.55829 0.83648 0.0
C678 C 1.01379 0.58151 0.87849 0.0
C679 C 0.02623 0.5632 0.85609 0.0
C680 C 0.03345 0.60436 0.91485 0.0
C681 C 1.00237 0.61155 0.924 0.0
N682 N 0.02688 0.57473 0.87614 0.0
N683 N 1.00107 0.59905 0.90487 0.0
H684 H 0.38307 0.41374 0.91119 0.0
H685 H 0.49352 0.48935 0.86008 0.0
H686 H 0.43683 0.43342 0.95564 0.0
H687 H 0.44062 0.46893 0.81351 0.0
H688 H 0.47236 0.47255 0.89707 0.0
H689 H 0.40327 0.43651 0.8766 0.0
C690 C 0.39909 0.42288 0.91369 0.0
C691 C 0.4083 0.42155 0.93621 0.0
C692 C 0.46534 0.47192 0.87884 0.0
C693 C 0.43147 0.44769 0.89692 0.0
C694 C 0.47744 0.48175 0.85773 0.0
C695 C 0.46887 0.48041 0.83353 0.0
C696 C 0.44448 0.46057 0.87578 0.0
C697 C 0.44789 0.47007 0.8317 0.0
C698 C 0.41061 0.43591 0.894 0.0
C699 C 0.42911 0.43382 0.93853 0.0
N700 N 0.43643 0.46035 0.85244 0.0
N701 N 0.43996 0.44628 0.91913 0.0
H702 H 0.61826 0.98308 0.92255 0.0
H703 H 0.55716 0.03185 0.86426 0.0
H704 H 0.60459 0.02203 0.96594 0.0
H705 H 0.56284 0.98544 0.82664 0.0
H706 H 0.5737 0.02806 0.90222 0.0
H707 H 0.59759 0.98355 0.88734 0.0
C708 C 0.61082 0.99165 0.9247 0.0
C709 C 0.61318 1.00258 0.94713 0.0
C710 C 0.57119 0.01862 0.8857 0.0
C711 C 0.5896 1.00331 0.90691 0.0
C712 C 0.56165 0.02071 0.8641 0.0
C713 C 0.55882 1.00911 0.84214 0.0
C714 C 0.57798 1.00488 0.88527 0.0
C715 C 0.56509 0.995 0.84294 0.0
C716 C 0.59899 0.9919 0.90463 0.0
C717 C 0.60318 0.01341 0.94893 0.0
N718 N 0.57449 0.99339 0.86403 0.0
N719 N 0.59193 0.01361 0.92902 0.0
H720 H 0.62567 0.0354 0.06686 0.0
H721 H 0.56124 0.97352 0.18751 0.0
H722 H 0.6106 0.97465 0.08152 0.0
H723 H 0.56045 0.02514 0.15843 0.0
H724 H 0.58017 0.97402 0.14963 0.0
H725 H 0.60342 0.03286 0.10189 0.0
C726 C 0.61778 0.02158 0.07757 0.0
C727 C 0.62003 1.00524 0.07139 0.0
C728 C 0.57562 0.98507 0.15132 0.0
C729 C 0.59453 1.0022 0.1113 0.0
C730 C 0.56478 0.98474 0.17286 0.0
C731 C 0.55929 0.99928 0.17595 0.0
C732 C 0.58132 1.00029 0.13301 0.0
C733 C 0.56429 0.01358 0.15656 0.0
C734 C 0.60497 0.02009 0.09739 0.0
C735 C 0.60933 0.98763 0.08571 0.0
N736 N 0.57528 0.01389 0.13603 0.0
N737 N 0.59711 0.9866 0.10509 0.0
H738 H 0.02577 0.59877 0.04291 0.0
H739 H 0.98519 0.56142 0.1851 0.0
H740 H 0.99314 0.62002 0.08707 0.0
H741 H 0.02678 0.54894 0.14602 0.0
H742 H 0.98266 0.57776 0.14629 0.0
H743 H 0.0213 0.5757 0.07764 0.0
C744 C 0.01756 0.5985 0.05988 0.0
C745 C 1.00999 0.61147 0.06225 0.0
C746 C 0.99214 0.57122 0.14611 0.0
C747 C 1.00477 0.58505 0.10204 0.0
C748 C 0.99359 0.56188 0.16825 0.0
C749 C 1.00646 0.55407 0.16897 0.0
C750 C 1.00363 0.57274 0.12449 0.0
C751 C 0.01665 0.55471 0.14637 0.0
C752 C 0.015 0.58531 0.07968 0.0
C753 C 0.99936 0.61039 0.08456 0.0
N754 N 0.0152 0.56412 0.12517 0.0
N755 N 0.99716 0.59748 0.10368 0.0
H756 H 0.41178 0.38686 0.07772 0.0
H757 H 0.46605 0.48906 0.15784 0.0
H758 H 0.41034 0.43979 0.05597 0.0
H759 H 0.46296 0.43449 0.18242 0.0
H760 H 0.44785 0.47213 0.11862 0.0
H761 H 0.43232 0.40475 0.11494 0.0
C762 C 0.41575 0.40223 0.08082 0.0
C763 C 0.4093 0.41184 0.06382 0.0
C764 C 0.45123 0.46389 0.13257 0.0
C765 C 0.43286 0.43245 0.10623 0.0
C766 C 0.46173 0.4736 0.15483 0.0
C767 C 0.46585 0.4631 0.17346 0.0
C768 C 0.44494 0.4436 0.1289 0.0
C769 C 0.4598 0.44303 0.16871 0.0
C770 C 0.42751 0.41246 0.10203 0.0
C771 C 0.41496 0.4318 0.06866 0.0
N772 N 0.44961 0.43393 0.14698 0.0
N773 N 0.4264 0.44144 0.08942 0.0
H774 H 0.6546 0.71319 0.43093 0.0
H775 H 0.69756 0.82311 0.4886 0.0
H776 H 0.69915 0.76687 0.39327 0.0
H777 H 0.65849 0.76935 0.53058 0.0
H778 H 0.69543 0.80279 0.45158 0.0
H779 H 0.65357 0.73353 0.46618 0.0
C780 C 0.66418 0.72925 0.43011 0.0
C781 C 0.67705 0.73836 0.40923 0.0
C782 C 0.68721 0.79543 0.46883 0.0
C783 C 0.67584 0.76172 0.44931 0.0
C784 C 0.68827 0.80704 0.48989 0.0
C785 C 0.67828 0.79791 0.51277 0.0
C786 C 0.67604 0.77452 0.47061 0.0
C787 C 0.66665 0.77699 0.51343 0.0
C788 C 0.66356 0.74085 0.45019 0.0
C789 C 0.68908 0.75922 0.40907 0.0
N790 N 0.66594 0.76601 0.49273 0.0
N791 N 0.68818 0.77019 0.42879 0.0
H792 H 0.28922 0.92176 0.3959 0.0
H793 H 0.23832 0.9263 0.52764 0.0
H794 H 0.29524 0.97569 0.4282 0.0
H795 H 0.22918 0.87126 0.49502 0.0
H796 H 0.25876 0.94437 0.49067 0.0
H797 H 0.26727 0.90278 0.43172 0.0
C798 C 0.28602 0.92961 0.4106 0.0
C799 C 0.2941 0.95034 0.40912 0.0
C800 C 0.25225 0.92833 0.49146 0.0
C801 C 0.26892 0.92874 0.44996 0.0
C802 C 0.24058 0.91801 0.51259 0.0
C803 C 0.23218 0.89727 0.51449 0.0
C804 C 0.25568 0.9179 0.472 0.0
C805 C 0.23533 0.88724 0.49424 0.0
C806 C 0.27342 0.91876 0.43096 0.0
C807 C 0.28938 0.95974 0.42859 0.0
N808 N 0.24697 0.89768 0.47391 0.0
N809 N 0.27712 0.94889 0.44816 0.0
H810 H 0.0872 0.33173 0.39923 0.0
H811 H 0.1357 0.37863 0.53476 0.0
H812 H 0.08569 0.38233 0.43081 0.0
H813 H 0.14965 0.33968 0.4919 0.0
H814 H 0.1171 0.38029 0.49763 0.0
H815 H 0.10917 0.33385 0.43415 0.0
C816 C 0.09143 0.34326 0.41361 0.0
C817 C 0.08453 0.35683 0.41218 0.0
C818 C 0.12447 0.37162 0.49625 0.0
C819 C 0.10981 0.35938 0.45227 0.0
C820 C 0.13509 0.37067 0.5174 0.0
C821 C 0.1442 0.35896 0.51643 0.0
C822 C 0.12271 0.36053 0.47411 0.0
C823 C 0.14301 0.34902 0.49343 0.0
C824 C 0.1041 0.34454 0.43346 0.0
C825 C 0.09063 0.37153 0.43125 0.0
N826 N 0.13225 0.34983 0.47333 0.0
N827 N 0.10285 0.37236 0.45063 0.0
H828 H 0.10794 0.35345 0.30847 0.0
H829 H 0.13196 0.3776 0.16013 0.0
H830 H 0.06762 0.35845 0.2559 0.0
H831 H 0.15173 0.34232 0.20128 0.0
H832 H 0.11383 0.37784 0.19825 0.0
H833 H 0.12904 0.35564 0.27202 0.0
C834 C 0.10354 0.35501 0.28925 0.0
C835 C 0.08598 0.3557 0.28512 0.0
C836 C 0.12224 0.37016 0.19896 0.0
C837 C 0.11021 0.35864 0.24364 0.0
C838 C 0.13261 0.36999 0.17723 0.0
C839 C 0.14304 0.35951 0.17725 0.0
C840 C 0.12257 0.36014 0.22116 0.0
C841 C 0.14387 0.35054 0.20032 0.0
C842 C 0.11556 0.35623 0.26854 0.0
C843 C 0.08096 0.35773 0.25989 0.0
N844 N 0.13364 0.35096 0.22136 0.0
N845 N 0.09311 0.3593 0.2401 0.0
H846 H 0.70533 0.74093 0.2654 0.0
H847 H 0.65546 0.79614 0.1922 0.0
H848 H 0.65299 0.74094 0.29359 0.0
H849 H 0.70744 0.79476 0.1656 0.0
H850 H 0.65521 0.77787 0.231 0.0
H851 H 0.70696 0.76207 0.22968 0.0
C852 C 0.69415 0.74535 0.26403 0.0
C853 C 0.67895 0.7391 0.28241 0.0
C854 C 0.66673 0.7817 0.21672 0.0
C855 C 0.68074 0.76342 0.24156 0.0
C856 C 0.66694 0.79222 0.19471 0.0
C857 C 0.68135 0.79674 0.1756 0.0
C858 C 0.6811 0.7758 0.21955 0.0
C859 C 0.69587 0.79127 0.1797 0.0
C860 C 0.6951 0.75749 0.24366 0.0
C861 C 0.66491 0.74538 0.27976 0.0
N862 N 0.6953 0.78102 0.20108 0.0
N863 N 0.66611 0.75717 0.25967 0.0
H864 H 0.31849 0.95859 0.25703 0.0
H865 H 0.2107 0.88935 0.19372 0.0
H866 H 0.26352 0.9445 0.29528 0.0
H867 H 0.26638 0.90129 0.15959 0.0
H868 H 0.22918 0.9084 0.23179 0.0
H869 H 0.2992 0.93746 0.22121 0.0
C870 C 0.30233 0.95113 0.25781 0.0
C871 C 0.29259 0.95335 0.27913 0.0
C872 C 0.23731 0.90672 0.21602 0.0
C873 C 0.2703 0.9289 0.23817 0.0
C874 C 0.22676 0.89572 0.19442 0.0
C875 C 0.23705 0.89391 0.17339 0.0
C876 C 0.25827 0.91593 0.21653 0.0
C877 C 0.25788 0.90259 0.17519 0.0
C878 C 0.29129 0.93896 0.23739 0.0
C879 C 0.27161 0.94324 0.27915 0.0
N880 N 0.26778 0.9133 0.19625 0.0
N881 N 0.26114 0.93143 0.25896 0.0
H882 H 0.66474 0.92931 0.28035 0.0
H883 H 0.71866 0.92401 0.15336 0.0
H884 H 0.72294 0.97711 0.25772 0.0
H885 H 0.67168 0.87185 0.19086 0.0
H886 H 0.72024 0.94422 0.19039 0.0
H887 H 0.66621 0.9086 0.24613 0.0
C888 C 0.67781 0.93548 0.26808 0.0
C889 C 0.69371 0.95498 0.27178 0.0
C890 C 0.70978 0.92832 0.19066 0.0
C891 C 0.69551 0.93133 0.23261 0.0
C892 C 0.70888 0.9168 0.16958 0.0
C893 C 0.69499 0.89626 0.16909 0.0
C894 C 0.69645 0.91927 0.21118 0.0
C895 C 0.68269 0.88761 0.19058 0.0
C896 C 0.6787 0.92359 0.24868 0.0
C897 C 0.71034 0.96215 0.25546 0.0
N898 N 0.68353 0.89921 0.21061 0.0
N899 N 0.71076 0.95037 0.23644 0.0
H900 H 0.1099 0.7582 0.29325 0.0
H901 H 0.10746 0.79725 0.15242 0.0
H902 H 0.05524 0.74572 0.25535 0.0
H903 H 0.16164 0.81662 0.19576 0.0
H904 H 0.08793 0.77975 0.19046 0.0
H905 H 0.12899 0.78048 0.2581 0.0
C906 C 0.1019 0.76014 0.27748 0.0
C907 C 0.08094 0.74998 0.27712 0.0
C908 C 0.10408 0.78806 0.19178 0.0
C909 C 0.10274 0.77557 0.23676 0.0
C910 C 0.11522 0.79807 0.17009 0.0
C911 C 0.1362 0.80829 0.17091 0.0
C912 C 0.11398 0.78808 0.21439 0.0
C913 C 0.14551 0.80901 0.19432 0.0
C914 C 0.11282 0.77296 0.25747 0.0
C915 C 0.07138 0.75319 0.25631 0.0
N916 N 0.13435 0.79881 0.21502 0.0
N917 N 0.08236 0.76562 0.23686 0.0
H918 H 0.28541 0.36677 0.28796 0.0
H919 H 0.23018 0.31576 0.15699 0.0
H920 H 0.2789 0.31124 0.26102 0.0
H921 H 0.22379 0.36156 0.19502 0.0
H922 H 0.24832 0.31388 0.19443 0.0
H923 H 0.2637 0.36565 0.25316 0.0
C924 C 0.27944 0.35436 0.27465 0.0
C925 C 0.28402 0.33911 0.27728 0.0
C926 C 0.24274 0.32417 0.19472 0.0
C927 C 0.25912 0.33771 0.23744 0.0
C928 C 0.2324 0.32524 0.17339 0.0
C929 C 0.22555 0.33888 0.17293 0.0
C930 C 0.2465 0.33704 0.21558 0.0
C931 C 0.22871 0.35075 0.19468 0.0
C932 C 0.26695 0.35366 0.25489 0.0
C933 C 0.27578 0.32333 0.25961 0.0
N934 N 0.23917 0.34973 0.21501 0.0
N935 N 0.26381 0.32309 0.24033 0.0
H936 H 0.26206 0.30681 0.39855 0.0
H937 H 0.23153 0.36777 0.49327 0.0
H938 H 0.29599 0.37101 0.40381 0.0
H939 H 0.22107 0.30909 0.5114 0.0
H940 H 0.24895 0.36766 0.45384 0.0
H941 H 0.24084 0.30605 0.4339 0.0
C942 C 0.26495 0.32075 0.40704 0.0
C943 C 0.28085 0.339 0.3984 0.0
C944 C 0.24261 0.35473 0.46632 0.0
C945 C 0.25651 0.33823 0.43845 0.0
C946 C 0.23255 0.35472 0.48858 0.0
C947 C 0.22487 0.33838 0.50535 0.0
C948 C 0.24464 0.33815 0.46072 0.0
C949 C 0.22678 0.32191 0.49879 0.0
C950 C 0.25288 0.32029 0.4272 0.0
C951 C 0.28396 0.35662 0.41007 0.0
N952 N 0.23647 0.32219 0.47693 0.0
N953 N 0.27184 0.35582 0.42948 0.0
H954 H 0.66426 0.95271 0.41541 0.0
H955 H 0.71094 0.89407 0.48661 0.0
H956 H 0.70997 0.94389 0.38134 0.0
H957 H 0.66078 0.89811 0.51493 0.0
H958 H 0.71025 0.91095 0.44699 0.0
H959 H 0.66241 0.93182 0.45154 0.0
C960 C 0.67388 0.94632 0.41552 0.0
C961 C 0.68735 0.9501 0.39543 0.0
C962 C 0.69932 0.90799 0.46183 0.0
C963 C 0.68538 0.92617 0.4368 0.0
C964 C 0.69965 0.89829 0.48434 0.0
C965 C 0.68608 0.89495 0.50418 0.0
C966 C 0.6853 0.91435 0.45926 0.0
C967 C 0.67179 0.90076 0.50032 0.0
C968 C 0.6728 0.93435 0.43613 0.0
C969 C 0.69941 0.94137 0.3965 0.0
N970 N 0.67188 0.91028 0.47845 0.0
N971 N 0.69823 0.9299 0.41694 0.0
H972 H 0.09344 0.77374 0.38748 0.0
H973 H 0.1337 0.76866 0.52654 0.0
H974 H 0.08141 0.7186 0.42323 0.0
H975 H 0.15215 0.82366 0.48586 0.0
H976 H 0.11642 0.75001 0.48791 0.0
H977 H 0.11616 0.79223 0.42261 0.0
C978 C 0.09556 0.76552 0.40278 0.0
C979 C 0.0854 0.74459 0.40256 0.0
C980 C 0.1245 0.76615 0.48726 0.0
C981 C 0.1115 0.7657 0.44284 0.0
C982 C 0.13442 0.77679 0.50927 0.0
C983 C 0.14425 0.79772 0.5094 0.0
C984 C 0.12421 0.77651 0.46529 0.0
C985 C 0.14482 0.80754 0.48653 0.0
C986 C 0.10864 0.7761 0.42276 0.0
C987 C 0.08886 0.73473 0.42274 0.0
N988 N 0.13467 0.79685 0.4655 0.0
N989 N 0.10153 0.74536 0.44217 0.0
H990 H 0.32175 0.047 0.77283 0.0
H991 H 0.35353 0.1564 0.82364 0.0
H992 H 0.35194 0.1004 0.72679 0.0
H993 H 0.32492 0.10375 0.87127 0.0
H994 H 0.34899 0.13535 0.78652 0.0
H995 H 0.31949 0.0668 0.80794 0.0
C996 C 0.32782 0.06286 0.77008 0.0
C997 C 0.3372 0.0721 0.74696 0.0
C998 C 0.3435 0.12835 0.80503 0.0
C999 C 0.3346 0.09482 0.7869 0.0
C1000 C 0.3459 0.14037 0.82622 0.0
C1001 C 0.33979 0.13187 0.85069 0.0
C1002 C 0.33498 0.10765 0.8083 0.0
C1003 C 0.3302 0.11099 0.85284 0.0
C1004 C 0.3265 0.07415 0.79009 0.0
C1005 C 0.34472 0.09268 0.74437 0.0
N1006 N 0.32828 0.09962 0.832 0.0
N1007 N 0.34334 0.10334 0.7641 0.0
H1008 H 0.96152 0.26319 0.74065 0.0
H1009 H 0.89009 0.26024 0.85271 0.0
H1010 H 0.94729 0.30968 0.75225 0.0
H1011 H 0.8913 0.20796 0.82763 0.0
H1012 H 0.91149 0.27888 0.81647 0.0
H1013 H 0.93707 0.24318 0.77376 0.0
C1014 C 0.95336 0.26923 0.7503 0.0
C1015 C 0.95648 0.28814 0.74381 0.0
C1016 C 0.90687 0.26326 0.81864 0.0
C1017 C 0.92845 0.26533 0.78148 0.0
C1018 C 0.8946 0.25263 0.83923 0.0
C1019 C 0.88893 0.23257 0.84303 0.0
C1020 C 0.91381 0.25386 0.80198 0.0
C1021 C 0.89523 0.22337 0.82517 0.0
C1022 C 0.93929 0.25775 0.76902 0.0
C1023 C 0.94538 0.29519 0.75673 0.0
N1024 N 0.90757 0.23417 0.80557 0.0
N1025 N 0.93192 0.28382 0.77501 0.0
H1026 H 0.75213 0.71585 0.76334 0.0
H1027 H 0.82557 0.68091 0.81825 0.0
H1028 H 0.77568 0.68621 0.71733 0.0
H1029 H 0.81141 0.72055 0.85918 0.0
H1030 H 0.80914 0.68438 0.7802 0.0
H1031 H 0.77474 0.71886 0.79817 0.0
C1032 C 0.76214 0.71008 0.76053 0.0
C1033 C 0.76194 0.70065 0.73751 0.0
C1034 C 0.80983 0.69252 0.79741 0.0
C1035 C 0.78779 0.70396 0.77723 0.0
C1036 C 0.81938 0.69068 0.81911 0.0
C1037 C 0.81967 0.70024 0.8421 0.0
C1038 C 0.80034 0.70387 0.79873 0.0
C1039 C 0.81116 0.71253 0.84207 0.0
C1040 C 0.77509 0.71185 0.78037 0.0
C1041 C 0.77528 0.69351 0.73483 0.0
N1042 N 0.80162 0.71378 0.82086 0.0
N1043 N 0.78753 0.69516 0.75452 0.0
H1044 H 0.75613 0.71921 0.59787 0.0
H1045 H 0.81187 0.66969 0.52603 0.0
H1046 H 0.74986 0.66276 0.62014 0.0
H1047 H 0.80864 0.71985 0.49621 0.0
H1048 H 0.7927 0.66927 0.5637 0.0
H1049 H 0.77806 0.72143 0.56277 0.0
C1050 C 0.75927 0.70721 0.59526 0.0
C1051 C 0.75108 0.69072 0.61184 0.0
C1052 C 0.79634 0.68048 0.54902 0.0
C1053 C 0.77642 0.6933 0.57193 0.0
C1054 C 0.80747 0.68087 0.52769 0.0
C1055 C 0.81176 0.69478 0.50798 0.0
C1056 C 0.78958 0.69418 0.55066 0.0
C1057 C 0.80549 0.70877 0.51091 0.0
C1058 C 0.77185 0.70852 0.57528 0.0
C1059 C 0.75575 0.67567 0.60767 0.0
N1060 N 0.79464 0.70805 0.53176 0.0
N1061 N 0.76817 0.67734 0.58816 0.0
H1062 H 0.37311 0.07365 0.60334 0.0
H1063 H 0.32489 0.1292 0.52732 0.0
H1064 H 0.31985 0.07343 0.62807 0.0
H1065 H 0.37351 0.1229 0.49805 0.0
H1066 H 0.32439 0.11102 0.56609 0.0
H1067 H 0.37479 0.09351 0.56587 0.0
C1068 C 0.36175 0.07775 0.60084 0.0
C1069 C 0.34628 0.07184 0.61876 0.0
C1070 C 0.3352 0.11366 0.55119 0.0
C1071 C 0.34817 0.09466 0.57611 0.0
C1072 C 0.33557 0.12415 0.52917 0.0
C1073 C 0.34917 0.12744 0.50939 0.0
C1074 C 0.3486 0.10652 0.55349 0.0
C1075 C 0.36258 0.12043 0.51269 0.0
C1076 C 0.36272 0.0891 0.57948 0.0
C1077 C 0.33199 0.07761 0.61465 0.0
N1078 N 0.36193 0.11029 0.53426 0.0
N1079 N 0.33329 0.08872 0.59378 0.0
H1080 H 0.95993 0.31234 0.59663 0.0
H1081 H 0.89776 0.20461 0.53192 0.0
H1082 H 0.94472 0.25778 0.63666 0.0
H1083 H 0.90529 0.25865 0.49771 0.0
H1084 H 0.91413 0.22341 0.57096 0.0
H1085 H 0.93956 0.29267 0.56031 0.0
C1086 C 0.95223 0.29621 0.59779 0.0
C1087 C 0.95406 0.28667 0.6196 0.0
C1088 C 0.91207 0.2311 0.55495 0.0
C1089 C 0.9308 0.26403 0.57811 0.0
C1090 C 0.90264 0.22036 0.53273 0.0
C1091 C 0.90038 0.23013 0.51143 0.0
C1092 C 0.91932 0.25175 0.55578 0.0
C1093 C 0.90711 0.2506 0.51347 0.0
C1094 C 0.94057 0.28497 0.57709 0.0
C1095 C 0.94372 0.26573 0.62016 0.0
N1096 N 0.91639 0.26073 0.53514 0.0
N1097 N 0.93263 0.2551 0.59963 0.0
H1098 H 0.38931 0.31132 0.59339 0.0
H1099 H 0.34281 0.20188 0.53329 0.0
H1100 H 0.33461 0.26028 0.61978 0.0
H1101 H 0.38238 0.25523 0.491 0.0
H1102 H 0.34549 0.22254 0.57035 0.0
H1103 H 0.39193 0.29036 0.5601 0.0
C1104 C 0.37788 0.29572 0.59217 0.0
C1105 C 0.36161 0.28755 0.60916 0.0
C1106 C 0.35382 0.22969 0.55308 0.0
C1107 C 0.36474 0.2635 0.57166 0.0
C1108 C 0.3525 0.21791 0.53208 0.0
C1109 C 0.36233 0.22691 0.5091 0.0
C1110 C 0.36521 0.25058 0.5511 0.0
C1111 C 0.37448 0.24777 0.50839 0.0
C1112 C 0.3794 0.28379 0.57326 0.0
C1113 C 0.34728 0.26723 0.60688 0.0
N1114 N 0.37547 0.25893 0.52903 0.0
N1115 N 0.3492 0.2559 0.58852 0.0
H1116 H 0.71884 0.07766 0.58932 0.0
H1117 H 0.82908 0.1482 0.53322 0.0
H1118 H 0.77275 0.08818 0.6275 0.0
H1119 H 0.7755 0.12724 0.48799 0.0
H1120 H 0.80845 0.13077 0.5706 0.0
H1121 H 0.73921 0.09959 0.55425 0.0
C1122 C 0.73495 0.0846 0.59033 0.0
C1123 C 0.74411 0.08099 0.61124 0.0
C1124 C 0.80119 0.13015 0.55256 0.0
C1125 C 0.76749 0.10623 0.57141 0.0
C1126 C 0.81296 0.14027 0.5313 0.0
C1127 C 0.80399 0.13906 0.50744 0.0
C1128 C 0.7803 0.11882 0.54999 0.0
C1129 C 0.78302 0.12836 0.50598 0.0
C1130 C 0.74656 0.09713 0.57035 0.0
C1131 C 0.76506 0.09044 0.61164 0.0
N1132 N 0.77189 0.11856 0.5269 0.0
N1133 N 0.77603 0.10261 0.59204 0.0
H1134 H 0.95334 0.64909 0.58587 0.0
H1135 H 0.88106 0.68539 0.53031 0.0
H1136 H 0.9313 0.68058 0.63089 0.0
H1137 H 0.89583 0.64637 0.48897 0.0
H1138 H 0.89697 0.68139 0.56855 0.0
H1139 H 0.93071 0.64608 0.55105 0.0
C1140 C 0.94365 0.65525 0.58847 0.0
C1141 C 0.94431 0.66524 0.61119 0.0
C1142 C 0.89652 0.67349 0.55121 0.0
C1143 C 0.91844 0.66192 0.57148 0.0
C1144 C 0.88726 0.67563 0.52939 0.0
C1145 C 0.88733 0.66642 0.50625 0.0
C1146 C 0.90605 0.66218 0.54985 0.0
C1147 C 0.89582 0.65412 0.50623 0.0
C1148 C 0.93069 0.65349 0.56864 0.0
C1149 C 0.93136 0.67286 0.61363 0.0
N1150 N 0.90506 0.65258 0.52756 0.0
N1151 N 0.91909 0.6712 0.59394 0.0
H1152 H 0.95862 0.70492 0.72789 0.0
H1153 H 0.89885 0.64735 0.85374 0.0
H1154 H 0.94689 0.64597 0.74765 0.0
H1155 H 0.89675 0.69764 0.82217 0.0
H1156 H 0.91711 0.64687 0.81567 0.0
H1157 H 0.93731 0.70333 0.76354 0.0
C1158 C 0.95164 0.69168 0.73983 0.0
C1159 C 0.95457 0.67558 0.7349 0.0
C1160 C 0.91246 0.65786 0.81691 0.0
C1161 C 0.93012 0.67362 0.7756 0.0
C1162 C 0.90203 0.65812 0.83858 0.0
C1163 C 0.89633 0.67257 0.84104 0.0
C1164 C 0.9175 0.67236 0.79773 0.0
C1165 C 0.90076 0.68617 0.82089 0.0
C1166 C 0.93936 0.69072 0.76004 0.0
C1167 C 0.94505 0.65874 0.75083 0.0
N1168 N 0.9113 0.68589 0.80019 0.0
N1169 N 0.93333 0.65823 0.77055 0.0
H1170 H 0.37298 0.27495 0.71655 0.0
H1171 H 0.32846 0.23663 0.85717 0.0
H1172 H 0.33106 0.28792 0.7537 0.0
H1173 H 0.37258 0.22574 0.8224 0.0
H1174 H 0.32711 0.2529 0.81776 0.0
H1175 H 0.37112 0.25459 0.7535 0.0
C1176 C 0.36333 0.27345 0.73246 0.0
C1177 C 0.35224 0.28323 0.73214 0.0
C1178 C 0.33701 0.24687 0.81862 0.0
C1179 C 0.35001 0.25994 0.77446 0.0
C1180 C 0.33782 0.2376 0.84114 0.0
C1181 C 0.35082 0.23001 0.84315 0.0
C1182 C 0.34935 0.24866 0.79786 0.0
C1183 C 0.36233 0.23135 0.82164 0.0
C1184 C 0.36226 0.26182 0.75354 0.0
C1185 C 0.33993 0.28072 0.7532 0.0
N1186 N 0.36145 0.24067 0.79994 0.0
N1187 N 0.33921 0.26938 0.77354 0.0
H1188 H 0.75132 0.10562 0.72329 0.0
H1189 H 0.79717 0.10188 0.85906 0.0
H1190 H 0.74531 0.05159 0.75538 0.0
H1191 H 0.81113 0.15665 0.82064 0.0
H1192 H 0.77925 0.08322 0.82071 0.0
H1193 H 0.77371 0.12457 0.75855 0.0
C1194 C 0.75468 0.09774 0.73781 0.0
C1195 C 0.74634 0.07698 0.7365 0.0
C1196 C 0.78646 0.09934 0.82051 0.0
C1197 C 0.77205 0.0986 0.77691 0.0
C1198 C 0.79672 0.10999 0.84237 0.0
C1199 C 0.80557 0.13083 0.84306 0.0
C1200 C 0.78481 0.10958 0.79926 0.0
C1201 C 0.80464 0.14061 0.82087 0.0
C1202 C 0.76756 0.10858 0.75786 0.0
C1203 C 0.75134 0.06756 0.75573 0.0
N1204 N 0.79421 0.12988 0.8 0.0
N1205 N 0.76378 0.07843 0.77522 0.0
H1206 H 0.03935 0.33368 0.04622 0.0
H1207 H 0.15458 0.37243 0.06528 0.0
H1208 H 0.08543 0.38355 0.00408 0.0
H1209 H 0.10744 0.31838 0.09885 0.0
H1210 H 0.13001 0.37369 0.03675 0.0
H1211 H 0.06409 0.32515 0.06062 0.0
C1212 C 0.05469 0.34276 0.03987 0.0
C1213 C 0.06042 0.3595 0.02425 0.0
C1214 C 0.1251 0.36123 0.04982 0.0
C1215 C 0.08894 0.34992 0.04078 0.0
C1216 C 0.13917 0.3604 0.06585 0.0
C1217 C 0.13292 0.34532 0.08438 0.0
C1218 C 0.10471 0.34698 0.05269 0.0
C1219 C 0.11277 0.33025 0.08476 0.0
C1220 C 0.06882 0.33784 0.04798 0.0
C1221 C 0.08043 0.37061 0.01632 0.0
N1222 N 0.09932 0.33166 0.06952 0.0
N1223 N 0.09405 0.3658 0.02498 0.0
H1224 H 0.69638 0.71123 0.05605 0.0
H1225 H 0.65383 0.78359 0.06912 0.0
H1226 H 0.64668 0.70309 0.00961 0.0
H1227 H 0.714 0.80017 0.09019 0.0
H1228 H 0.65138 0.75567 0.04397 0.0
H1229 H 0.70331 0.74463 0.06721 0.0
C1230 C 0.68694 0.71652 0.04816 0.0
C1231 C 0.67082 0.70432 0.03209 0.0
C1232 C 0.66535 0.76581 0.05338 0.0
C1233 C 0.67862 0.74262 0.04486 0.0
C1234 C 0.66683 0.78188 0.06742 0.0
C1235 C 0.68418 0.79417 0.08155 0.0
C1236 C 0.68122 0.76192 0.05402 0.0
C1237 C 0.70043 0.79106 0.07937 0.0
C1238 C 0.691 0.73567 0.05435 0.0
C1239 C 0.65921 0.71202 0.02217 0.0
N1240 N 0.69842 0.775 0.06636 0.0
N1241 N 0.66314 0.7306 0.02903 0.0
H1242 H 0.33037 0.95066 0.01202 0.0
H1243 H 0.22894 0.92183 0.08546 0.0
H1244 H 0.31428 0.99311 0.03943 0.0
H1245 H 0.24815 0.87976 0.06892 0.0
H1246 H 0.25594 0.94654 0.05846 0.0
H1247 H 0.29699 0.92347 0.02369 0.0
C1248 C 0.31973 0.95427 0.02021 0.0
C1249 C 0.32519 0.97417 0.02508 0.0
C1250 C 0.25397 0.93175 0.0601 0.0
C1251 C 0.28696 0.94316 0.03836 0.0
C1252 C 0.23837 0.91756 0.07518 0.0
C1253 C 0.23628 0.89874 0.07914 0.0
C1254 C 0.26776 0.92715 0.04923 0.0
C1255 C 0.24916 0.89405 0.066 0.0
C1256 C 0.30068 0.93874 0.02685 0.0
C1257 C 0.31079 0.97798 0.03561 0.0
N1258 N 0.2646 0.90829 0.05196 0.0
N1259 N 0.29242 0.96263 0.04207 0.0
H1260 H 0.36212 0.06965 0.02295 0.0
H1261 H 0.39809 0.1553 0.91641 0.0
H1262 H 0.40725 0.08222 0.96582 0.0
H1263 H 0.34428 0.13458 0.96064 0.0
H1264 H 0.40687 0.13464 0.94266 0.0
H1265 H 0.36008 0.09852 0.00769 0.0
C1266 C 0.37176 0.07862 0.00741 0.0
C1267 C 0.38472 0.07341 -0.00456 0.0
C1268 C 0.3934 0.13499 0.94713 0.0
C1269 C 0.38258 0.10648 0.97807 0.0
C1270 C 0.38857 0.14701 0.93241 0.0
C1271 C 0.3706 0.14678 0.93667 0.0
C1272 C 0.38001 0.12244 0.96604 0.0
C1273 C 0.35843 0.13535 0.9571 0.0
C1274 C 0.37058 0.09507 -0.00128 0.0
C1275 C 0.3969 0.08557 0.97543 0.0
N1276 N 0.3632 0.12339 0.97084 0.0
N1277 N 0.39546 0.10144 0.96731 0.0
H1278 H 0.94811 0.32398 0.01008 0.0
H1279 H 0.91539 0.22381 0.93096 0.0
H1280 H 0.98795 0.31219 0.96559 0.0
H1281 H 0.8747 0.24497 0.9466 0.0
H1282 H 0.94093 0.25113 0.95682 0.0
H1283 H 0.92023 0.29082 -0.00178 0.0
C1284 C 0.95101 0.31435 -0.00197 0.0
C1285 C 0.97029 0.32089 0.9885 0.0
C1286 C 0.92622 0.24946 0.95527 0.0
C1287 C 0.93874 0.28298 0.9755 0.0
C1288 C 0.91157 0.23369 0.94091 0.0
C1289 C 0.89292 0.23208 0.93697 0.0
C1290 C 0.92221 0.26378 0.96562 0.0
C1291 C 0.88884 0.24559 0.94957 0.0
C1292 C 0.93514 0.29548 0.99133 0.0
C1293 C 0.97327 0.30783 0.97306 0.0
N1294 N 0.90349 0.26111 0.96307 0.0
N1295 N 0.95769 0.28954 0.96704 0.0
H1296 H 0.71343 0.63122 0.0053 0.0
H1297 H 0.81429 0.7126 0.93662 0.0
H1298 H 0.72682 0.69022 0.9829 0.0
H1299 H 0.79453 0.64985 0.93563 0.0
H1300 H 0.78644 0.70587 0.96492 0.0
H1301 H 0.74658 0.63899 0.98973 0.0
C1302 C 0.72343 0.64586 -0.00261 0.0
C1303 C 0.71735 0.66005 -0.0049 0.0
C1304 C 0.78837 0.69358 0.95898 0.0
C1305 C 0.75516 0.66906 0.97772 0.0
C1306 C 0.80436 0.69746 0.94307 0.0
C1307 C 0.80658 0.68173 0.93383 0.0
C1308 C 0.77436 0.6738 0.96552 0.0
C1309 C 0.7933 0.66235 0.94252 0.0
C1310 C 0.74229 0.65026 0.98852 0.0
C1311 C 0.73083 0.67878 0.98476 0.0
N1312 N 0.77749 0.65884 0.95761 0.0
N1313 N 0.74906 0.68271 0.97642 0.0
H1314 H 0.99792 0.69936 0.9821 0.0
H1315 H 0.88258 0.65223 0.94892 0.0
H1316 H 0.95245 0.64043 0.00583 0.0
H1317 H 0.92855 0.71069 0.92498 0.0
H1318 H 0.9066 0.65036 0.97789 0.0
H1319 H 0.97181 0.70629 0.96869 0.0
C1320 C 0.98242 0.68795 0.98477 0.0
C1321 C 0.97734 0.66919 -0.00526 0.0
C1322 C 0.91132 0.66384 0.96687 0.0
C1323 C 0.94731 0.67694 0.97921 0.0
C1324 C 0.89754 0.66498 0.95061 0.0
C1325 C 0.90367 0.68169 0.93481 0.0
C1326 C 0.93136 0.67944 0.96695 0.0
C1327 C 0.9233 0.69765 0.9371 0.0
C1328 C 0.9675 0.69192 0.97713 0.0
C1329 C 0.95702 0.65504 -0.002 0.0
N1330 N 0.93653 0.69601 0.95256 0.0
N1331 N 0.94273 0.6591 0.98991 0.0
H1332 H 0.34586 0.31122 0.00655 0.0
H1333 H 0.39352 0.2557 0.9302 0.0
H1334 H 0.40116 0.34121 0.96416 0.0
H1335 H 0.33055 0.22809 0.94593 0.0
H1336 H 0.39927 0.28504 0.95479 0.0
H1337 H 0.34271 0.279 -0.0047 0.0
C1338 C 0.35745 0.31104 -0.00484 0.0
C1339 C 0.3737 0.3289 0.98605 0.0
C1340 C 0.38426 0.27234 0.95352 0.0
C1341 C 0.37033 0.29221 0.97349 0.0
C1342 C 0.38104 0.25549 0.93987 0.0
C1343 C 0.36159 0.23941 0.93645 0.0
C1344 C 0.36789 0.27312 0.96373 0.0
C1345 C 0.34579 0.24009 0.94859 0.0
C1346 C 0.35563 0.29267 0.98875 0.0
C1347 C 0.38829 0.32779 0.97138 0.0
N1348 N 0.34924 0.25679 0.96148 0.0
N1349 N 0.38624 0.30979 0.96552 0.0
H1350 H 0.72318 0.05783 0.01829 0.0
H1351 H 0.77177 0.14732 0.9166 0.0
H1352 H 0.69143 0.06613 0.9559 0.0
H1353 H 0.80613 0.12466 0.9533 0.0
H1354 H 0.74264 0.12427 0.94216 0.0
H1355 H 0.75396 0.08809 0.00438 0.0
C1356 C 0.72265 0.06614 0.00189 0.0
C1357 C 0.70483 0.0594 0.98802 0.0
C1358 C 0.7567 0.12471 0.94518 0.0
C1359 C 0.73962 0.09403 0.97251 0.0
C1360 C 0.77336 0.13805 0.93089 0.0
C1361 C 0.79133 0.13796 0.93314 0.0
C1362 C 0.75801 0.11112 0.96172 0.0
C1363 C 0.79255 0.1253 0.95137 0.0
C1364 C 0.74016 0.08334 0.994 0.0
C1365 C 0.7049 0.07069 0.96694 0.0
N1366 N 0.776 0.11215 0.9648 0.0
N1367 N 0.722 0.08742 0.95985 0.0
H1368 H 0.63264 0.93637 0.01073 0.0
H1369 H 0.71153 0.91043 0.07182 0.0
H1370 H 0.69532 0.97871 0.02156 0.0
H1371 H 0.64783 0.87129 0.07679 0.0
H1372 H 0.70627 0.93215 0.04275 0.0
H1373 H 0.63844 0.90959 0.02512 0.0
C1374 C 0.64768 0.93999 0.01573 0.0
C1375 C 0.6635 0.95983 0.01522 0.0
C1376 C 0.69341 0.91857 0.04964 0.0
C1377 C 0.67022 0.92929 0.0316 0.0
C1378 C 0.69644 0.90606 0.06595 0.0
C1379 C 0.68008 0.88904 0.07647 0.0
C1380 C 0.67385 0.91416 0.04409 0.0
C1381 C 0.66081 0.88419 0.06877 0.0
C1382 C 0.65096 0.9247 0.02398 0.0
C1383 C 0.68266 0.96366 0.02189 0.0
N1384 N 0.65818 0.89687 0.05332 0.0
N1385 N 0.68545 0.94857 0.02996 0.0
H1386 H 0.07392 0.72331 0.99342 0.0
H1387 H 0.15614 0.77388 0.10422 0.0
H1388 H 0.07974 0.69209 0.05838 0.0
H1389 H 0.13648 0.80709 0.05864 0.0
H1390 H 0.13531 0.74425 0.0782 0.0
H1391 H 0.10301 0.75431 0.00895 0.0
C1392 C 0.08149 0.72293 0.01073 0.0
C1393 C 0.07433 0.70518 0.02481 0.0
C1394 C 0.13593 0.75814 0.07341 0.0
C1395 C 0.10763 0.74035 0.04233 0.0
C1396 C 0.14802 0.77508 0.08801 0.0
C1397 C 0.14809 0.7929 0.08333 0.0
C1398 C 0.12371 0.75898 0.05412 0.0
C1399 C 0.13697 0.79364 0.06255 0.0
C1400 C 0.09803 0.7406 0.01956 0.0
C1401 C 0.08465 0.7055 0.0471 0.0
N1402 N 0.12496 0.77681 0.04885 0.0
N1403 N 0.10073 0.72279 0.05518 0.0
H1404 H 0.30374 0.34366 0.00039 0.0
H1405 H 0.24478 0.38658 0.07912 0.0
H1406 H 0.32933 0.40535 0.02239 0.0
H1407 H 0.22746 0.32445 0.07663 0.0
H1408 H 0.27137 0.39387 0.04784 0.0
H1409 H 0.27156 0.33682 0.01802 0.0
C1410 C 0.30249 0.35584 0.00847 0.0
C1411 C 0.31927 0.37505 0.01021 0.0
C1412 C 0.26145 0.37858 0.05369 0.0
C1413 C 0.28256 0.36734 0.03038 0.0
C1414 C 0.24619 0.37442 0.0713 0.0
C1415 C 0.234 0.35491 0.08032 0.0
C1416 C 0.2644 0.36308 0.04509 0.0
C1417 C 0.23659 0.33968 0.07002 0.0
C1418 C 0.28415 0.35191 0.01861 0.0
C1419 C 0.31681 0.39027 0.02091 0.0
N1420 N 0.25162 0.3441 0.05313 0.0
N1421 N 0.29885 0.38606 0.03077 0.0
H1422 H 0.70642 0.66764 0.3822 0.0
H1423 H 0.82308 0.71819 0.40321 0.0
H1424 H 0.74831 0.72348 0.34643 0.0
H1425 H 0.78138 0.65691 0.42199 0.0
H1426 H 0.79698 0.71946 0.37795 0.0
H1427 H 0.73409 0.66262 0.39392 0.0
C1428 C 0.72146 0.67883 0.37673 0.0
C1429 C 0.72509 0.6961 0.36355 0.0
C1430 C 0.79368 0.70553 0.38689 0.0
C1431 C 0.75697 0.69049 0.37699 0.0
C1432 C 0.80868 0.70474 0.40096 0.0
C1433 C 0.80438 0.68733 0.41431 0.0
C1434 C 0.77421 0.68891 0.38671 0.0
C1435 C 0.78531 0.67049 0.4116 0.0
C1436 C 0.73728 0.6759 0.38329 0.0
C1437 C 0.74488 0.71 0.35673 0.0
N1438 N 0.77082 0.6718 0.39851 0.0
N1439 N 0.76011 0.70702 0.36381 0.0
H1440 H 0.368 0.05203 0.36774 0.0
H1441 H 0.319 0.11652 0.40557 0.0
H1442 H 0.30827 0.03609 0.34476 0.0
H1443 H 0.38059 0.13435 0.41927 0.0
H1444 H 0.31613 0.09032 0.37647 0.0
H1445 H 0.37424 0.08486 0.38042 0.0
C1446 C 0.35623 0.05554 0.36516 0.0
C1447 C 0.3375 0.04125 0.35554 0.0
C1448 C 0.33045 0.10034 0.3852 0.0
C1449 C 0.34443 0.07886 0.37037 0.0
C1450 C 0.33213 0.11543 0.40153 0.0
C1451 C 0.35008 0.12757 0.41462 0.0
C1452 C 0.3468 0.09733 0.38232 0.0
C1453 C 0.36655 0.12532 0.40934 0.0
C1454 C 0.35981 0.07435 0.37233 0.0
C1455 C 0.32288 0.04668 0.35228 0.0
N1456 N 0.36443 0.11027 0.39394 0.0
N1457 N 0.32653 0.06497 0.36011 0.0
H1458 H 0.98438 0.32647 0.37972 0.0
H1459 H 0.91769 0.21161 0.41025 0.0
H1460 H 0.99909 0.28359 0.35007 0.0
H1461 H 0.89771 0.25387 0.42004 0.0
H1462 H 0.94565 0.23618 0.38396 0.0
H1463 H 0.9514 0.29928 0.39165 0.0
C1464 C 0.98061 0.31128 0.37563 0.0
C1465 C 0.99456 0.30727 0.36413 0.0
C1466 C 0.9348 0.23986 0.39116 0.0
C1467 C 0.9567 0.27588 0.37793 0.0
C1468 C 0.9187 0.22574 0.40585 0.0
C1469 C 0.90537 0.23074 0.41708 0.0
C1470 C 0.93765 0.25914 0.38815 0.0
C1471 C 0.90762 0.24943 0.41148 0.0
C1472 C 0.9617 0.29572 0.3823 0.0
C1473 C 0.98878 0.2873 0.35902 0.0
N1474 N 0.92365 0.26307 0.39782 0.0
N1475 N 0.97037 0.2723 0.36631 0.0
H1476 H 0.07585 0.42701 0.33666 0.0
H1477 H 1.00279 0.45722 0.26669 0.0
H1478 H 1.01369 0.38609 0.31998 0.0
H1479 H 0.06693 0.49387 0.2659 0.0
H1480 H 1.00558 0.43431 0.29661 0.0
H1481 H 0.07186 0.4545 0.32034 0.0
C1482 C 0.06132 0.42386 0.32987 0.0
C1483 C 0.04514 0.40423 0.32935 0.0
C1484 C 0.01904 0.44763 0.29044 0.0
C1485 C 0.04044 0.43552 0.31088 0.0
C1486 C 0.01741 0.4608 0.27368 0.0
C1487 C 0.03465 0.47748 0.2642 0.0
C1488 C 0.03807 0.45113 0.29754 0.0
C1489 C 0.05331 0.48125 0.27315 0.0
C1490 C 0.05906 0.43953 0.32056 0.0
C1491 C 0.02663 0.40097 0.32044 0.0
N1492 N 0.05457 0.46805 0.28912 0.0
N1493 N 0.02481 0.41642 0.31142 0.0
H1494 H 0.60606 0.65625 0.33417 0.0
H1495 H 0.57705 0.54928 0.27727 0.0
H1496 H 0.64797 0.63651 0.31817 0.0
H1497 H 0.54042 0.57581 0.26575 0.0
H1498 H 0.59927 0.57733 0.30484 0.0
H1499 H 0.57866 0.62356 0.32007 0.0
C1500 C 0.60946 0.64497 0.32796 0.0
C1501 C 0.6293 0.64912 0.32704 0.0
C1502 C 0.58608 0.57679 0.29687 0.0
C1503 C 0.59816 0.61179 0.31143 0.0
C1504 C 0.57327 0.56066 0.28148 0.0
C1505 C 0.55686 0.56025 0.26954 0.0
C1506 C 0.58253 0.5927 0.30013 0.0
C1507 C 0.55282 0.57555 0.27498 0.0
C1508 C 0.59385 0.62638 0.31994 0.0
C1509 C 0.63291 0.63401 0.31889 0.0
N1510 N 0.56576 0.59137 0.28964 0.0
N1511 N 0.6175 0.61605 0.31138 0.0
H1512 H 0.37297 0.95802 0.33673 0.0
H1513 H 0.4808 0.03554 0.28044 0.0
H1514 H 0.39712 0.02148 0.32977 0.0
H1515 H 0.45272 0.97207 0.26933 0.0
H1516 H 0.45398 0.03013 0.30997 0.0
H1517 H 0.4053 0.96255 0.32253 0.0
C1518 C 0.38518 0.97291 0.33267 0.0
C1519 C 0.38235 0.98938 0.33407 0.0
C1520 C 0.45388 0.01731 0.30161 0.0
C1521 C 0.4192 0.99467 0.31808 0.0
C1522 C 0.4693 0.02041 0.28502 0.0
C1523 C 0.46893 1.00421 0.27271 0.0
C1524 C 0.4378 0.99787 0.30556 0.0
C1525 C 0.45355 0.98489 0.27876 0.0
C1526 C 0.40357 0.97548 0.32452 0.0
C1527 C 0.3986 1.00835 0.32861 0.0
N1528 N 0.43836 0.98224 0.29449 0.0
N1529 N 0.41625 0.01045 0.32072 0.0
H1530 H 0.62261 0.97135 0.3394 0.0
H1531 H 0.59099 0.03927 0.2602 0.0
H1532 H 0.66421 0.02877 0.30702 0.0
H1533 H 0.54977 0.97854 0.28199 0.0
H1534 H 0.61675 0.03873 0.2869 0.0
H1535 H 0.59499 0.97649 0.3272 0.0
C1536 C 0.62595 0.98514 0.32999 0.0
C1537 C 0.64573 0.99955 0.32391 0.0
C1538 C 0.60193 0.02567 0.28646 0.0
C1539 C 0.61419 1.00555 0.30997 0.0
C1540 C 0.58717 0.0261 0.27153 0.0
C1541 C 0.56825 1.00901 0.26924 0.0
C1542 C 0.59779 1.00789 0.29885 0.0
C1543 C 0.56413 0.9921 0.28365 0.0
C1544 C 0.61017 0.98807 0.32304 0.0
C1545 C 0.64918 0.01718 0.31183 0.0
N1546 N 0.57889 0.99185 0.29756 0.0
N1547 N 0.63358 0.01961 0.30507 0.0
H1548 H 0.07151 0.66505 0.32674 0.0
H1549 H 0.99404 0.5596 0.26427 0.0
H1550 H 1.01079 0.64669 0.30554 0.0
H1551 H 0.05774 0.58419 0.25995 0.0
H1552 H 0.99941 0.58797 0.29053 0.0
H1553 H 0.06618 0.63265 0.31179 0.0
C1554 C 0.05703 0.65416 0.31913 0.0
C1555 C 0.04161 0.6586 0.31714 0.0
C1556 C 1.01224 0.587 0.28433 0.0
C1557 C 0.03536 0.62156 0.30053 0.0
C1558 C 1.00916 0.5707 0.26965 0.0
C1559 C 0.02548 0.5696 0.26007 0.0
C1560 C 0.03181 0.60244 0.28936 0.0
C1561 C 0.04479 0.58447 0.26722 0.0
C1562 C 0.05403 0.63572 0.31063 0.0
C1563 C 0.02315 0.64397 0.3072 0.0
N1564 N 0.04747 0.60049 0.28119 0.0
N1565 N 0.02056 0.62614 0.29928 0.0
H1566 H 0.38567 0.3634 0.3091 0.0
H1567 H 0.45647 0.4788 0.28157 0.0
H1568 H 0.37524 0.4084 0.34171 0.0
H1569 H 0.46956 0.43334 0.25856 0.0
H1570 H 0.42984 0.45448 0.30967 0.0
H1571 H 0.41886 0.38943 0.29568 0.0
C1572 C 0.39046 0.37879 0.31362 0.0
C1573 C 0.3776 0.38377 0.32626 0.0
C1574 C 0.43891 0.44995 0.29906 0.0
C1575 C 0.41563 0.41381 0.31069 0.0
C1576 C 0.45426 0.46391 0.2833 0.0
C1577 C 0.46517 0.458 0.26786 0.0
C1578 C 0.4344 0.42997 0.29904 0.0
C1579 C 0.46147 0.43844 0.27029 0.0
C1580 C 0.40947 0.39368 0.30603 0.0
C1581 C 0.38466 0.40394 0.33186 0.0
N1582 N 0.4462 0.42505 0.28519 0.0
N1583 N 0.4031 0.41827 0.32368 0.0
H1584 H 0.3113 0.29206 0.40355 0.0
H1585 H 0.35745 0.22358 0.39505 0.0
H1586 H 0.33187 0.28419 0.32998 0.0
H1587 H 0.30862 0.21085 0.44588 0.0
H1588 H 0.34927 0.2453 0.36959 0.0
H1589 H 0.31204 0.26293 0.41973 0.0
C1590 C 0.31599 0.28416 0.39081 0.0
C1591 C 0.32164 0.29055 0.36547 0.0
C1592 C 0.33996 0.23721 0.38582 0.0
C1593 C 0.32263 0.25724 0.38387 0.0
C1594 C 0.34449 0.2247 0.40014 0.0
C1595 C 0.33361 0.21546 0.42244 0.0
C1596 C 0.32479 0.2407 0.39439 0.0
C1597 C 0.31727 0.21771 0.42871 0.0
C1598 C 0.31623 0.26743 0.39996 0.0
C1599 C 0.32743 0.27968 0.34967 0.0
N1600 N 0.31362 0.23044 0.4151 0.0
N1601 N 0.32809 0.26368 0.35926 0.0
H1602 H 0.74394 0.05912 0.3268 0.0
H1603 H 0.8249 0.10566 0.43956 0.0
H1604 H 0.74943 0.02597 0.38967 0.0
H1605 H 0.80681 0.1408 0.39534 0.0
H1606 H 0.80452 0.07703 0.41182 0.0
H1607 H 0.77314 0.0896 0.34343 0.0
C1608 C 0.75144 0.05823 0.34388 0.0
C1609 C 0.74417 0.0401 0.35709 0.0
C1610 C 0.80538 0.09113 0.40772 0.0
C1611 C 0.77756 0.07459 0.37581 0.0
C1612 C 0.81721 0.1075 0.42332 0.0
C1613 C 0.81754 0.12552 0.41953 0.0
C1614 C 0.79363 0.09276 0.38838 0.0
C1615 C 0.80703 0.12714 0.39861 0.0
C1616 C 0.76804 0.07557 0.35333 0.0
C1617 C 0.7544 0.0397 0.37909 0.0
N1618 N 0.7952 0.11082 0.38398 0.0
N1619 N 0.77052 0.05667 0.38776 0.0
H1620 H 1.00003 0.73558 0.35325 0.0
H1621 H 0.89277 0.65579 0.40951 0.0
H1622 H 0.98125 0.67428 0.37081 0.0
H1623 H 0.91715 0.71909 0.41772 0.0
H1624 H 0.92188 0.66219 0.38396 0.0
H1625 H 0.96711 0.7296 0.36721 0.0
C1626 C 0.98894 0.72085 0.35986 0.0
C1627 C 0.99341 0.70543 0.36111 0.0
C1628 C 0.9207 0.67472 0.39082 0.0
C1629 C 0.95577 0.69845 0.37658 0.0
C1630 C 0.90396 0.67106 0.40506 0.0
C1631 C 0.90257 0.68695 0.41552 0.0
C1632 C 0.93627 0.69443 0.38714 0.0
C1633 C 0.91762 0.70648 0.40968 0.0
C1634 C 0.9702 0.71746 0.36779 0.0
C1635 C 0.97851 0.68664 0.36976 0.0
N1636 N 0.93405 0.70971 0.39614 0.0
N1637 N 0.9604 0.68369 0.37714 0.0
H1638 H 0.39336 0.01979 0.67398 0.0
H1639 H 0.48499 0.06202 0.77247 0.0
H1640 H 0.40846 0.06735 0.7281 0.0
H1641 H 0.4625 1.00618 0.73263 0.0
H1642 H 0.46287 0.06923 0.74686 0.0
H1643 H 0.42353 0.01914 0.68691 0.0
C1644 C 0.40315 0.03026 0.68833 0.0
C1645 C 0.39829 0.04348 0.70023 0.0
C1646 C 0.46312 0.05563 0.74317 0.0
C1647 C 0.43284 0.04294 0.71489 0.0
C1648 C 0.47597 0.05168 0.75751 0.0
C1649 C 0.47564 0.03359 0.7544 0.0
C1650 C 0.44966 0.04125 0.72585 0.0
C1651 C 0.46333 0.02041 0.73527 0.0
C1652 C 0.42035 0.02987 0.6957 0.0
C1653 C 0.41151 0.05675 0.71865 0.0
N1654 N 0.45055 0.02434 0.72196 0.0
N1655 N 0.42809 0.05606 0.7255 0.0
H1656 H 0.97452 0.37173 0.6804 0.0
H1657 H 0.05219 0.47542 0.74589 0.0
H1658 H 0.03576 0.3901 0.69858 0.0
H1659 H 0.98883 0.45311 0.74288 0.0
H1660 H 0.04767 0.44814 0.71799 0.0
H1661 H 0.98073 0.40472 0.69355 0.0
C1662 C 0.98935 0.3828 0.68677 0.0
C1663 C 1.00461 0.37811 0.6887 0.0
C1664 C 0.03477 0.4494 0.7229 0.0
C1665 C 1.0118 0.41582 0.70365 0.0
C1666 C 0.0374 0.46509 0.73857 0.0
C1667 C 0.02085 0.46645 0.74655 0.0
C1668 C 0.01541 0.43479 0.71542 0.0
C1669 C 1.00195 0.4526 0.73691 0.0
C1670 C 0.99286 0.4016 0.69431 0.0
C1671 C 0.02353 0.39301 0.69704 0.0
N1672 N 0.99967 0.4371 0.72215 0.0
N1673 N 0.02654 0.41112 0.70437 0.0
H1674 H 0.68252 0.62738 0.72173 0.0
H1675 H 0.56619 0.57589 0.73668 0.0
H1676 H 0.6487 0.64358 0.67148 0.0
H1677 H 0.5995 0.54749 0.7586 0.0
H1678 H 0.59485 0.5999 0.71066 0.0
H1679 H 0.65158 0.59773 0.73485 0.0
C1680 C 0.66854 0.6246 0.71334 0.0
C1681 C 0.66814 0.63798 0.6956 0.0
C1682 C 0.59563 0.58802 0.72052 0.0
C1683 C 0.6325 0.6041 0.71078 0.0
C1684 C 0.57922 0.57422 0.73511 0.0
C1685 C 0.58054 0.5597 0.74963 0.0
C1686 C 0.61347 0.5874 0.721 0.0
C1687 C 0.59792 0.55844 0.74755 0.0
C1688 C 0.65087 0.6076 0.72071 0.0
C1689 C 0.64961 0.63359 0.68522 0.0
N1690 N 0.61381 0.57233 0.73395 0.0
N1691 N 0.63244 0.61717 0.69329 0.0
H1692 H 0.74224 0.76147 0.67099 0.0
H1693 H 0.66262 0.78709 0.61237 0.0
H1694 H 0.67866 0.72043 0.668 0.0
H1695 H 0.72622 0.82456 0.60293 0.0
H1696 H 0.66833 0.76658 0.64307 0.0
H1697 H 0.73663 0.78815 0.65584 0.0
C1698 C 0.72707 0.75815 0.66758 0.0
C1699 C 0.7109 0.73864 0.67042 0.0
C1700 C 0.68109 0.77957 0.63484 0.0
C1701 C 0.7044 0.76906 0.65307 0.0
C1702 C 0.67781 0.79138 0.61757 0.0
C1703 C 0.69399 0.80754 0.6054 0.0
C1704 C 0.7007 0.78379 0.63961 0.0
C1705 C 0.7134 0.81232 0.61223 0.0
C1706 C 0.72389 0.77338 0.65888 0.0
C1707 C 0.69157 0.7352 0.6658 0.0
N1708 N 0.71624 0.80029 0.62863 0.0
N1709 N 0.68888 0.7502 0.65712 0.0
H1710 H 0.31588 0.96873 0.67926 0.0
H1711 H 0.20741 0.90428 0.61633 0.0
H1712 H 0.27388 0.98936 0.67035 0.0
H1713 H 0.25503 0.89149 0.60678 0.0
H1714 H 0.22806 0.93042 0.64744 0.0
H1715 H 0.2904 0.93584 0.66356 0.0
C1716 C 0.30119 0.96624 0.67443 0.0
C1717 C 0.29707 0.98187 0.67578 0.0
C1718 C 0.23378 0.92152 0.63909 0.0
C1719 C 0.26787 0.9443 0.65785 0.0
C1720 C 0.2219 0.90646 0.62163 0.0
C1721 C 0.22956 0.89573 0.60921 0.0
C1722 C 0.25342 0.92583 0.64403 0.0
C1723 C 0.24861 0.8994 0.61618 0.0
C1724 C 0.28668 0.94748 0.66542 0.0
C1725 C 0.27776 0.97779 0.66933 0.0
N1726 N 0.26 0.91431 0.6329 0.0
N1727 N 0.26394 0.95946 0.66042 0.0
H1728 H 0.063 0.34145 0.69278 0.0
H1729 H 0.11472 0.30514 0.59003 0.0
H1730 H 0.03177 0.29852 0.63281 0.0
H1731 H 0.14583 0.36327 0.62501 0.0
H1732 H 0.08557 0.29665 0.61699 0.0
H1733 H 0.09452 0.34413 0.6782 0.0
C1734 C 0.06275 0.33237 0.67685 0.0
C1735 C 0.04485 0.31991 0.66377 0.0
C1736 C 0.09898 0.31106 0.61934 0.0
C1737 C 0.08054 0.3226 0.64742 0.0
C1738 C 0.11567 0.31577 0.60425 0.0
C1739 C 0.13267 0.3348 0.60563 0.0
C1740 C 0.09931 0.32554 0.63581 0.0
C1741 C 0.13304 0.34833 0.62375 0.0
C1742 C 0.08068 0.33393 0.66854 0.0
C1743 C 0.04529 0.30848 0.64322 0.0
N1744 N 0.11647 0.34354 0.63798 0.0
N1745 N 0.06283 0.31012 0.63567 0.0
H1746 H 0.33089 0.36241 0.64223 0.0
H1747 H 0.21448 0.31315 0.61177 0.0
H1748 H 0.2869 0.30291 0.66601 0.0
H1749 H 0.25895 0.37281 0.58985 0.0
H1750 H 0.23961 0.31091 0.6381 0.0
H1751 H 0.304 0.36811 0.62862 0.0
C1752 C 0.31555 0.35058 0.64477 0.0
C1753 C 0.31114 0.33209 0.65503 0.0
C1754 C 0.24377 0.32469 0.62809 0.0
C1755 C 0.28016 0.33846 0.63933 0.0
C1756 C 0.22935 0.32604 0.61337 0.0
C1757 C 0.23468 0.34326 0.59895 0.0
C1758 C 0.26366 0.34062 0.62806 0.0
C1759 C 0.25427 0.35937 0.60099 0.0
C1760 C 0.30016 0.35385 0.63703 0.0
C1761 C 0.29097 0.31736 0.65804 0.0
N1762 N 0.2681 0.35758 0.61497 0.0
N1763 N 0.27623 0.32078 0.64997 0.0
H1764 H 0.72814 0.99214 0.67021 0.0
H1765 H 0.65548 0.89312 0.5914 0.0
H1766 H 0.67315 0.98014 0.63376 0.0
H1767 H 0.71642 0.91057 0.60929 0.0
H1768 H 0.65867 0.92073 0.61754 0.0
H1769 H 0.7215 0.95894 0.65702 0.0
C1770 C 0.71463 0.98248 0.65958 0.0
C1771 C 0.70129 0.98897 0.65278 0.0
C1772 C 0.67123 0.91828 0.61632 0.0
C1773 C 0.69346 0.95099 0.63807 0.0
C1774 C 0.66928 0.90235 0.60173 0.0
C1775 C 0.68567 0.89959 0.5984 0.0
C1776 C 0.68978 0.93168 0.62741 0.0
C1777 C 0.7034 0.91215 0.6117 0.0
C1778 C 0.71084 0.96355 0.65212 0.0
C1779 C 0.68396 0.97584 0.63914 0.0
N1780 N 0.70512 0.92791 0.62533 0.0
N1781 N 0.68058 0.95753 0.6322 0.0
H1782 H 0.02375 0.73406 0.61558 0.0
H1783 H 0.1411 0.7965 0.62253 0.0
H1784 H 0.0555 0.72986 0.68113 0.0
H1785 H 0.10616 0.81274 0.5747 0.0
H1786 H 0.11078 0.77403 0.64695 0.0
H1787 H 0.05414 0.76404 0.6018 0.0
C1788 C 0.03713 0.73954 0.62715 0.0
C1789 C 0.03717 0.7294 0.6494 0.0
C1790 C 0.10986 0.78298 0.63163 0.0
C1791 C 0.07217 0.7637 0.63363 0.0
C1792 C 0.12719 0.79595 0.61793 0.0
C1793 C 0.12603 0.8065 0.59677 0.0
C1794 C 0.09132 0.78036 0.62367 0.0
C1795 C 0.10761 0.80492 0.59105 0.0
C1796 C 0.05447 0.75675 0.61938 0.0
C1797 C 0.05489 0.73725 0.66379 0.0
N1798 N 0.09092 0.79181 0.60409 0.0
N1799 N 0.0718 0.75378 0.65545 0.0
H1800 H 0.97279 0.60704 0.66904 0.0
H1801 H 0.0482 0.58613 0.74878 0.0
H1802 H 0.03176 0.65251 0.69287 0.0
H1803 H 0.98759 0.54105 0.73156 0.0
H1804 H 0.04512 0.60895 0.71916 0.0
H1805 H 0.98032 0.58145 0.68332 0.0
C1806 C 0.98742 0.61163 0.67694 0.0
C1807 C 1.00157 0.63193 0.68011 0.0
C1808 C 0.03264 0.5939 0.72126 0.0
C1809 C 1.01029 0.60275 0.69651 0.0
C1810 C 0.03451 0.58082 0.73789 0.0
C1811 C 0.01818 0.5617 0.7423 0.0
C1812 C 1.01416 0.5879 0.70934 0.0
C1813 C 1.00058 0.55562 0.72833 0.0
C1814 C 0.99171 0.59702 0.68509 0.0
C1815 C 0.02032 0.63703 0.69034 0.0
N1816 N 0.9989 0.5688 0.71277 0.0
N1817 N 0.02405 0.62256 0.69841 0.0
H1818 H 0.41171 0.35992 0.72851 0.0
H1819 H 0.47188 0.47674 0.7221 0.0
H1820 H 0.41018 0.39062 0.66024 0.0
H1821 H 0.48886 0.44305 0.77112 0.0
H1822 H 0.45072 0.44633 0.69713 0.0
H1823 H 0.44061 0.3907 0.74362 0.0
C1824 C 0.41755 0.37317 0.71664 0.0
C1825 C 0.40848 0.37279 0.6932 0.0
C1826 C 0.45958 0.44573 0.71283 0.0
C1827 C 0.44153 0.40821 0.71046 0.0
C1828 C 0.47179 0.4631 0.72686 0.0
C1829 C 0.48222 0.46231 0.7484 0.0
C1830 C 0.45752 0.4275 0.72094 0.0
C1831 C 0.48119 0.44422 0.75439 0.0
C1832 C 0.43415 0.39072 0.72518 0.0
C1833 C 0.41675 0.39034 0.67848 0.0
N1834 N 0.46875 0.42745 0.74104 0.0
N1835 N 0.43265 0.40747 0.68755 0.0
H1836 H 0.64404 1.00391 0.70646 0.0
H1837 H 0.57525 0.04845 0.74259 0.0
H1838 H 0.65796 0.0627 0.68224 0.0
H1839 H 0.55689 0.98626 0.74954 0.0
H1840 H 0.60354 0.05352 0.71587 0.0
H1841 H 0.61079 0.99676 0.71913 0.0
C1842 C 0.64006 0.01532 0.70375 0.0
C1843 C 0.65385 0.034 0.69354 0.0
C1844 C 0.59298 0.03863 0.72256 0.0
C1845 C 0.61568 0.02594 0.70811 0.0
C1846 C 0.57668 0.03571 0.73748 0.0
C1847 C 0.56374 0.0169 0.74809 0.0
C1848 C 0.5964 0.02266 0.71865 0.0
C1849 C 0.56651 1.00095 0.74152 0.0
C1850 C 0.62099 0.01118 0.71083 0.0
C1851 C 0.64779 0.04813 0.6902 0.0
N1852 N 0.58273 1.00426 0.72764 0.0
N1853 N 0.62923 0.04391 0.69778 0.0
loop_
_geom_bond_atom_site_label_1
_geom_bond_atom_site_label_2
_geom_bond_distance
_geom_bond_site_symmetry_2
_ccdc_geom_bond_type
In0 O1 2.294 1_455 S
In0 O2 2.326 . S
In0 O6 2.266 1_455 S
In0 O7 2.326 1_454 S
In0 O8 2.266 1_554 S
In0 O9 2.326 1_454 S
In0 O11 2.294 . S
In0 O12 2.326 . S
O1 In0 2.294 1_655 S
O1 C10 1.240 1_655 S
O2 In0 2.326 . S
O2 C10 1.252 . S
C3 O6 1.252 1_556 S
C3 O7 1.260 . S
C4 O11 1.240 . S
C4 O12 1.252 . S
C5 O8 1.252 . S
C5 O9 1.260 1_455 S
O6 In0 2.266 1_655 S
O6 C3 1.252 1_554 S
O7 In0 2.326 1_656 S
O7 C3 1.260 . S
O8 In0 2.266 1_556 S
O8 C5 1.252 . S
O9 In0 2.326 1_656 S
O9 C5 1.260 1_655 S
C10 O1 1.240 1_455 S
C10 O2 1.252 . S
O11 In0 2.294 . S
O11 C4 1.240 . S
O12 In0 2.326 . S
O12 C4 1.252 . S
In13 O14 2.294 . S
In13 O15 2.326 . S
In13 O19 2.266 . S
In13 O20 2.326 1_554 S
In13 O21 2.266 1_554 S
In13 O22 2.326 1_554 S
In13 O24 2.294 . S
In13 O25 2.326 . S
O14 In13 2.294 . S
O14 C23 1.240 . S
O15 In13 2.326 . S
O15 C23 1.252 . S
C16 O19 1.252 1_556 S
C16 O20 1.260 . S
C17 O24 1.240 . S
C17 O25 1.252 . S
C18 O21 1.252 . S
C18 O22 1.260 . S
O19 In13 2.266 . S
O19 C16 1.252 1_554 S
O20 In13 2.326 1_556 S
O20 C16 1.260 . S
O21 In13 2.266 1_556 S
O21 C18 1.252 . S
O22 In13 2.326 1_556 S
O22 C18 1.260 . S
C23 O14 1.240 . S
C23 O15 1.252 . S
O24 In13 2.294 . S
O24 C17 1.240 . S
O25 In13 2.326 . S
O25 C17 1.252 . S
In26 O27 2.294 . S
In26 O28 2.326 1_554 S
In26 O32 2.266 . S
In26 O33 2.326 1_545 S
In26 O34 2.266 1_545 S
In26 O35 2.326 1_545 S
In26 O37 2.294 1_544 S
In26 O38 2.326 1_554 S
O27 In26 2.294 . S
O27 C36 1.240 1_554 S
O28 In26 2.326 1_556 S
O28 C36 1.252 . S
C29 O32 1.252 . S
C29 O33 1.260 1_545 S
C30 O37 1.240 1_545 S
C30 O38 1.252 . S
C31 O34 1.252 . S
C31 O35 1.260 . S
O32 In26 2.266 . S
O32 C29 1.252 . S
O33 In26 2.326 1_565 S
O33 C29 1.260 1_565 S
O34 In26 2.266 1_565 S
O34 C31 1.252 . S
O35 In26 2.326 1_565 S
O35 C31 1.260 . S
C36 O27 1.240 1_556 S
C36 O28 1.252 . S
O37 In26 2.294 1_566 S
O37 C30 1.240 1_565 S
O38 In26 2.326 1_556 S
O38 C30 1.252 . S
In39 O40 2.294 1_554 S
In39 O41 2.326 1_454 S
In39 O45 2.266 . S
In39 O46 2.326 . S
In39 O47 2.266 1_455 S
In39 O48 2.326 . S
In39 O50 2.294 1_455 S
In39 O51 2.326 1_454 S
O40 In39 2.294 1_556 S
O40 C49 1.240 . S
O41 In39 2.326 1_656 S
O41 C49 1.252 1_655 S
C42 O45 1.252 . S
C42 O46 1.260 . S
C43 O50 1.240 1_556 S
C43 O51 1.252 . S
C44 O47 1.252 1_455 S
C44 O48 1.260 . S
O45 In39 2.266 . S
O45 C42 1.252 . S
O46 In39 2.326 . S
O46 C42 1.260 . S
O47 In39 2.266 1_655 S
O47 C44 1.252 1_655 S
O48 In39 2.326 . S
O48 C44 1.260 . S
C49 O40 1.240 . S
C49 O41 1.252 1_455 S
O50 In39 2.294 1_655 S
O50 C43 1.240 1_554 S
O51 In39 2.326 1_656 S
O51 C43 1.252 . S
In52 O53 2.294 1_554 S
In52 O54 2.326 1_554 S
In52 O58 2.266 . S
In52 O59 2.326 . S
In52 O60 2.266 . S
In52 O61 2.326 . S
In52 O63 2.294 . S
In52 O64 2.326 1_554 S
O53 In52 2.294 1_556 S
O53 C62 1.240 . S
O54 In52 2.326 1_556 S
O54 C62 1.252 . S
C55 O58 1.252 . S
C55 O59 1.260 . S
C56 O63 1.240 1_556 S
C56 O64 1.252 . S
C57 O60 1.252 . S
C57 O61 1.260 . S
O58 In52 2.266 . S
O58 C55 1.252 . S
O59 In52 2.326 . S
O59 C55 1.260 . S
O60 In52 2.266 . S
O60 C57 1.252 . S
O61 In52 2.326 . S
O61 C57 1.260 . S
C62 O53 1.240 . S
C62 O54 1.252 . S
O63 In52 2.294 . S
O63 C56 1.240 1_554 S
O64 In52 2.326 1_556 S
O64 C56 1.252 . S
In65 O66 2.294 . S
In65 O67 2.326 1_545 S
In65 O71 2.266 . S
In65 O72 2.326 1_554 S
In65 O73 2.266 1_544 S
In65 O74 2.326 1_554 S
In65 O76 2.294 1_545 S
In65 O77 2.326 1_545 S
O66 In65 2.294 . S
O66 C75 1.240 . S
O67 In65 2.326 1_565 S
O67 C75 1.252 1_565 S
C68 O71 1.252 1_556 S
C68 O72 1.260 . S
C69 O76 1.240 . S
C69 O77 1.252 . S
C70 O73 1.252 1_545 S
C70 O74 1.260 . S
O71 In65 2.266 . S
O71 C68 1.252 1_554 S
O72 In65 2.326 1_556 S
O72 C68 1.260 . S
O73 In65 2.266 1_566 S
O73 C70 1.252 1_565 S
O74 In65 2.326 1_556 S
O74 C70 1.260 . S
C75 O66 1.240 . S
C75 O67 1.252 1_545 S
O76 In65 2.294 1_565 S
O76 C69 1.240 . S
O77 In65 2.326 1_565 S
O77 C69 1.252 . S
In78 O79 2.294 . S
In78 O80 2.326 . S
In78 O84 2.266 . S
In78 O85 2.326 . S
In78 O86 2.266 . S
In78 O87 2.326 . S
In78 O89 2.294 . S
In78 O90 2.326 . S
O79 In78 2.294 . S
O79 C88 1.240 . S
O80 In78 2.326 . S
O80 C88 1.252 . S
C81 O84 1.252 . S
C81 O85 1.260 . S
C82 O89 1.240 . S
C82 O90 1.252 . S
C83 O86 1.252 . S
C83 O87 1.260 . S
O84 In78 2.266 . S
O84 C81 1.252 . S
O85 In78 2.326 . S
O85 C81 1.260 . S
O86 In78 2.266 . S
O86 C83 1.252 . S
O87 In78 2.326 . S
O87 C83 1.260 . S
C88 O79 1.240 . S
C88 O80 1.252 . S
O89 In78 2.294 . S
O89 C82 1.240 . S
O90 In78 2.326 . S
O90 C82 1.252 . S
In91 O92 2.294 . S
In91 O93 2.326 . S
In91 O97 2.266 . S
In91 O98 2.326 1_565 S
In91 O99 2.266 . S
In91 O100 2.326 . S
In91 O102 2.294 1_565 S
In91 O103 2.326 1_565 S
O92 In91 2.294 . S
O92 C101 1.240 . S
O93 In91 2.326 . S
O93 C101 1.252 . S
C94 O97 1.252 . S
C94 O98 1.265 1_565 S
C95 O102 1.240 . S
C95 O103 1.252 . S
C96 O99 1.252 . S
C96 O100 1.260 . S
O97 In91 2.266 . S
O97 C94 1.252 . S
O98 In91 2.326 1_545 S
O98 C94 1.265 1_545 S
O99 In91 2.266 . S
O99 C96 1.252 . S
O100 In91 2.326 . S
O100 C96 1.260 . S
C101 O92 1.240 . S
C101 O93 1.252 . S
O102 In91 2.294 1_545 S
O102 C95 1.240 . S
O103 In91 2.326 1_545 S
O103 C95 1.252 . S
In104 O105 2.294 . S
In104 O106 2.326 . S
In104 O110 2.266 . S
In104 O111 2.326 . S
In104 O112 2.266 1_455 S
In104 O113 2.345 . S
In104 O115 2.294 . S
In104 O116 2.326 . S
O105 In104 2.294 . S
O105 C114 1.240 . S
O106 In104 2.326 . S
O106 C114 1.252 . S
C107 O110 1.252 . S
C107 O111 1.260 . S
C108 O115 1.240 . S
C108 O116 1.252 . S
C109 O112 1.252 . S
C109 O113 1.260 1_655 S
O110 In104 2.266 . S
O110 C107 1.252 . S
O111 In104 2.326 . S
O111 C107 1.260 . S
O112 In104 2.266 1_655 S
O112 C109 1.252 . S
O113 In104 2.345 . S
O113 C109 1.260 1_455 S
C114 O105 1.240 . S
C114 O106 1.252 . S
O115 In104 2.294 . S
O115 C108 1.240 . S
O116 In104 2.326 . S
O116 C108 1.252 . S
In117 O118 2.294 . S
In117 O119 2.326 . S
In117 O123 2.266 1_565 S
In117 O124 2.326 1_565 S
In117 O125 2.266 . S
In117 O126 2.326 . S
In117 O128 2.294 . S
In117 O129 2.326 . S
O118 In117 2.294 . S
O118 C127 1.240 . S
O119 In117 2.326 . S
O119 C127 1.252 . S
C120 O123 1.252 . S
C120 O124 1.260 . S
C121 O128 1.240 . S
C121 O129 1.252 . S
C122 O125 1.252 . S
C122 O126 1.260 . S
O123 In117 2.266 1_545 S
O123 C120 1.252 . S
O124 In117 2.326 1_545 S
O124 C120 1.260 . S
O125 In117 2.266 . S
O125 C122 1.252 . S
O126 In117 2.326 . S
O126 C122 1.260 . S
C127 O118 1.240 . S
C127 O119 1.252 . S
O128 In117 2.294 . S
O128 C121 1.240 . S
O129 In117 2.326 . S
O129 C121 1.252 . S
In130 O131 2.294 . S
In130 O132 2.326 . S
In130 O136 2.266 1_455 S
In130 O137 2.330 . S
In130 O138 2.266 . S
In130 O139 2.326 . S
In130 O141 2.294 . S
In130 O142 2.326 . S
O131 In130 2.294 . S
O131 C140 1.240 . S
O132 In130 2.326 . S
O132 C140 1.252 . S
C133 O136 1.252 . S
C133 O137 1.253 1_655 S
C134 O141 1.240 . S
C134 O142 1.252 . S
C135 O138 1.252 . S
C135 O139 1.260 . S
O136 In130 2.266 1_655 S
O136 C133 1.252 . S
O137 In130 2.330 . S
O137 C133 1.253 1_455 S
O138 In130 2.266 . S
O138 C135 1.252 . S
O139 In130 2.326 . S
O139 C135 1.260 . S
C140 O131 1.240 . S
C140 O132 1.252 . S
O141 In130 2.294 . S
O141 C134 1.240 . S
O142 In130 2.326 . S
O142 C134 1.252 . S
In143 O144 2.294 . S
In143 O145 2.326 . S
In143 O149 2.266 . S
In143 O150 2.326 . S
In143 O151 2.266 . S
In143 O152 2.326 . S
In143 O154 2.294 . S
In143 O155 2.326 . S
O144 In143 2.294 . S
O144 C153 1.240 . S
O145 In143 2.326 . S
O145 C153 1.252 . S
C146 O149 1.252 . S
C146 O150 1.260 . S
C147 O154 1.240 . S
C147 O155 1.252 . S
C148 O151 1.252 . S
C148 O152 1.260 . S
O149 In143 2.266 . S
O149 C146 1.252 . S
O150 In143 2.326 . S
O150 C146 1.260 . S
O151 In143 2.266 . S
O151 C148 1.252 . S
O152 In143 2.326 . S
O152 C148 1.260 . S
C153 O144 1.240 . S
C153 O145 1.252 . S
O154 In143 2.294 . S
O154 C147 1.240 . S
O155 In143 2.326 . S
O155 C147 1.252 . S
In156 O157 2.294 . S
In156 O158 2.326 . S
In156 O162 2.266 . S
In156 O163 2.326 . S
In156 O164 2.244 1_545 S
In156 O165 2.363 . S
In156 O167 2.294 . S
In156 O168 2.326 . S
O157 In156 2.294 . S
O157 C166 1.240 . S
O158 In156 2.326 . S
O158 C166 1.252 . S
C159 O162 1.252 . S
C159 O163 1.260 . S
C160 O167 1.240 . S
C160 O168 1.252 . S
C161 O164 1.291 . S
C161 O165 1.261 1_565 S
O162 In156 2.266 . S
O162 C159 1.252 . S
O163 In156 2.326 . S
O163 C159 1.260 . S
O164 In156 2.244 1_565 S
O164 C161 1.291 . S
O165 In156 2.363 . S
O165 C161 1.261 1_545 S
C166 O157 1.240 . S
C166 O158 1.252 . S
O167 In156 2.294 . S
O167 C160 1.240 . S
O168 In156 2.326 . S
O168 C160 1.252 . S
In169 O170 2.294 . S
In169 O171 2.326 . S
In169 O175 2.266 . S
In169 O176 2.326 . S
In169 O177 2.266 1_655 S
In169 O178 2.326 1_655 S
In169 O180 2.294 . S
In169 O181 2.326 . S
O170 In169 2.294 . S
O170 C179 1.240 . S
O171 In169 2.326 . S
O171 C179 1.252 . S
C172 O175 1.252 . S
C172 O176 1.260 . S
C173 O180 1.240 . S
C173 O181 1.252 . S
C174 O177 1.252 . S
C174 O178 1.260 . S
O175 In169 2.266 . S
O175 C172 1.252 . S
O176 In169 2.326 . S
O176 C172 1.260 . S
O177 In169 2.266 1_455 S
O177 C174 1.252 . S
O178 In169 2.326 1_455 S
O178 C174 1.260 . S
C179 O170 1.240 . S
C179 O171 1.252 . S
O180 In169 2.294 . S
O180 C173 1.240 . S
O181 In169 2.326 . S
O181 C173 1.252 . S
In182 O183 2.294 . S
In182 O184 2.326 . S
In182 O188 2.266 . S
In182 O189 2.326 . S
In182 O190 2.266 . S
In182 O191 2.326 . S
In182 O193 2.294 . S
In182 O194 2.326 . S
O183 In182 2.294 . S
O183 C192 1.240 . S
O184 In182 2.326 . S
O184 C192 1.252 . S
C185 O188 1.252 . S
C185 O189 1.260 . S
C186 O193 1.240 . S
C186 O194 1.252 . S
C187 O190 1.252 . S
C187 O191 1.260 . S
O188 In182 2.266 . S
O188 C185 1.252 . S
O189 In182 2.326 . S
O189 C185 1.260 . S
O190 In182 2.266 . S
O190 C187 1.252 . S
O191 In182 2.326 . S
O191 C187 1.260 . S
C192 O183 1.240 . S
C192 O184 1.252 . S
O193 In182 2.294 . S
O193 C186 1.240 . S
O194 In182 2.326 . S
O194 C186 1.252 . S
In195 O196 2.294 . S
In195 O197 2.326 . S
In195 O201 2.266 . S
In195 O202 2.326 . S
In195 O203 2.266 . S
In195 O204 2.326 . S
In195 O206 2.294 . S
In195 O207 2.326 . S
O196 In195 2.294 . S
O196 C205 1.240 . S
O197 In195 2.326 . S
O197 C205 1.252 . S
C198 O201 1.252 . S
C198 O202 1.260 . S
C199 O206 1.240 . S
C199 O207 1.252 . S
C200 O203 1.252 . S
C200 O204 1.260 . S
O201 In195 2.266 . S
O201 C198 1.252 . S
O202 In195 2.326 . S
O202 C198 1.260 . S
O203 In195 2.266 . S
O203 C200 1.252 . S
O204 In195 2.326 . S
O204 C200 1.260 . S
C205 O196 1.240 . S
C205 O197 1.252 . S
O206 In195 2.294 . S
O206 C199 1.240 . S
O207 In195 2.326 . S
O207 C199 1.252 . S
In208 O209 2.294 . S
In208 O210 2.326 . S
In208 O214 2.266 . S
In208 O215 2.326 . S
In208 O216 2.266 . S
In208 O217 2.326 . S
In208 O219 2.294 1_545 S
In208 O220 2.349 . S
O209 In208 2.294 . S
O209 C218 1.240 . S
O210 In208 2.326 . S
O210 C218 1.252 . S
C211 O214 1.252 . S
C211 O215 1.260 . S
C212 O219 1.240 . S
C212 O220 1.220 1_565 S
C213 O216 1.252 . S
C213 O217 1.260 . S
O214 In208 2.266 . S
O214 C211 1.252 . S
O215 In208 2.326 . S
O215 C211 1.260 . S
O216 In208 2.266 . S
O216 C213 1.252 . S
O217 In208 2.326 . S
O217 C213 1.260 . S
C218 O209 1.240 . S
C218 O210 1.252 . S
O219 In208 2.294 1_565 S
O219 C212 1.240 . S
O220 In208 2.349 . S
O220 C212 1.220 1_545 S
In221 O222 2.294 . S
In221 O223 2.326 . S
In221 O227 2.266 . S
In221 O228 2.326 . S
In221 O229 2.266 1_655 S
In221 O230 2.326 1_655 S
In221 O232 2.294 . S
In221 O233 2.326 . S
O222 In221 2.294 . S
O222 C231 1.240 . S
O223 In221 2.326 . S
O223 C231 1.252 . S
C224 O227 1.252 . S
C224 O228 1.260 . S
C225 O232 1.240 . S
C225 O233 1.252 . S
C226 O229 1.252 . S
C226 O230 1.260 . S
O227 In221 2.266 . S
O227 C224 1.252 . S
O228 In221 2.326 . S
O228 C224 1.260 . S
O229 In221 2.266 1_455 S
O229 C226 1.252 . S
O230 In221 2.326 1_455 S
O230 C226 1.260 . S
C231 O222 1.240 . S
C231 O223 1.252 . S
O232 In221 2.294 . S
O232 C225 1.240 . S
O233 In221 2.326 . S
O233 C225 1.252 . S
H234 C240 0.930 . S
H235 C243 0.931 . S
H236 C245 0.931 . S
H237 C247 0.930 . S
H238 C249 0.930 . S
H239 C251 0.931 . S
C240 H234 0.930 . S
C240 C241 1.380 . S
C240 C242 1.394 . S
C241 C240 1.380 . S
C241 C245 1.382 . S
C242 C240 1.394 . S
C242 C243 1.400 . S
C243 H235 0.931 . S
C243 C242 1.400 . S
C243 C244 1.375 . S
C244 C243 1.375 . S
C244 C245 1.415 . S
C244 C246 1.501 . S
C245 H236 0.931 . S
C245 C241 1.382 . S
C245 C244 1.415 . S
C246 C244 1.501 . S
C246 C247 1.384 . S
C246 C251 1.408 . S
C247 H237 0.930 . S
C247 C246 1.384 . S
C247 C248 1.389 . S
C248 C247 1.389 . S
C248 C249 1.405 . S
C249 H238 0.930 . S
C249 C248 1.405 . S
C249 C250 1.364 . S
C250 C249 1.364 . S
C250 C251 1.400 . S
C251 H239 0.931 . S
C251 C246 1.408 . S
C251 C250 1.400 . S
H252 C258 0.930 . S
H253 C261 0.931 . S
H254 C263 0.931 . S
H255 C265 0.930 . S
H256 C267 0.930 . S
H257 C269 0.931 . S
C258 H252 0.930 . S
C258 C259 1.380 . S
C258 C260 1.394 . S
C259 C258 1.380 . S
C259 C263 1.382 . S
C260 C258 1.394 . S
C260 C261 1.400 . S
C261 H253 0.931 . S
C261 C260 1.400 . S
C261 C262 1.375 . S
C262 C261 1.375 . S
C262 C263 1.415 . S
C262 C264 1.501 . S
C263 H254 0.931 . S
C263 C259 1.382 . S
C263 C262 1.415 . S
C264 C262 1.501 . S
C264 C265 1.384 . S
C264 C269 1.408 . S
C265 H255 0.930 . S
C265 C264 1.384 . S
C265 C266 1.389 . S
C266 C265 1.389 . S
C266 C267 1.405 . S
C267 H256 0.930 . S
C267 C266 1.405 . S
C267 C268 1.364 . S
C268 C267 1.364 . S
C268 C269 1.400 . S
C269 H257 0.931 . S
C269 C264 1.408 . S
C269 C268 1.400 . S
H270 C276 0.930 . S
H271 C279 0.931 . S
H272 C281 0.931 . S
H273 C283 0.930 . S
H274 C285 0.930 . S
H275 C287 0.931 . S
C276 H270 0.930 . S
C276 C277 1.380 . S
C276 C278 1.394 . S
C277 C276 1.380 . S
C277 C281 1.382 . S
C278 C276 1.394 . S
C278 C279 1.400 . S
C279 H271 0.931 . S
C279 C278 1.400 . S
C279 C280 1.375 . S
C280 C279 1.375 . S
C280 C281 1.415 . S
C280 C282 1.501 . S
C281 H272 0.931 . S
C281 C277 1.382 . S
C281 C280 1.415 . S
C282 C280 1.501 . S
C282 C283 1.384 . S
C282 C287 1.408 . S
C283 H273 0.930 . S
C283 C282 1.384 . S
C283 C284 1.389 . S
C284 C283 1.389 . S
C284 C285 1.405 . S
C285 H274 0.930 . S
C285 C284 1.405 . S
C285 C286 1.364 . S
C286 C285 1.364 . S
C286 C287 1.400 . S
C287 H275 0.931 . S
C287 C282 1.408 . S
C287 C286 1.400 . S
H288 C294 0.930 . S
H289 C297 0.931 . S
H290 C299 0.931 . S
H291 C301 0.930 . S
H292 C303 0.930 . S
H293 C305 0.931 . S
C294 H288 0.930 . S
C294 C295 1.380 . S
C294 C296 1.394 . S
C295 C294 1.380 . S
C295 C299 1.382 . S
C296 C294 1.394 . S
C296 C297 1.400 . S
C297 H289 0.931 . S
C297 C296 1.400 . S
C297 C298 1.375 . S
C298 C297 1.375 . S
C298 C299 1.415 . S
C298 C300 1.501 . S
C299 H290 0.931 . S
C299 C295 1.382 . S
C299 C298 1.415 . S
C300 C298 1.501 . S
C300 C301 1.384 . S
C300 C305 1.408 . S
C301 H291 0.930 . S
C301 C300 1.384 . S
C301 C302 1.389 . S
C302 C301 1.389 . S
C302 C303 1.405 . S
C303 H292 0.930 . S
C303 C302 1.405 . S
C303 C304 1.364 . S
C304 C303 1.364 . S
C304 C305 1.400 . S
C305 H293 0.931 . S
C305 C300 1.408 . S
C305 C304 1.400 . S
H306 C312 0.930 . S
H307 C315 0.931 . S
H308 C317 0.931 . S
H309 C319 0.930 . S
H310 C321 0.930 . S
H311 C323 0.931 . S
C312 H306 0.930 . S
C312 C313 1.380 . S
C312 C314 1.394 . S
C313 C312 1.380 . S
C313 C317 1.382 . S
C314 C312 1.394 . S
C314 C315 1.400 . S
C315 H307 0.931 . S
C315 C314 1.400 . S
C315 C316 1.375 . S
C316 C315 1.375 . S
C316 C317 1.415 . S
C316 C318 1.501 . S
C317 H308 0.931 . S
C317 C313 1.382 . S
C317 C316 1.415 . S
C318 C316 1.501 . S
C318 C319 1.384 . S
C318 C323 1.408 . S
C319 H309 0.930 . S
C319 C318 1.384 . S
C319 C320 1.389 . S
C320 C319 1.389 . S
C320 C321 1.405 . S
C321 H310 0.930 . S
C321 C320 1.405 . S
C321 C322 1.364 . S
C322 C321 1.364 . S
C322 C323 1.400 . S
C323 H311 0.931 . S
C323 C318 1.408 . S
C323 C322 1.400 . S
H324 C330 0.930 . S
H325 C333 0.931 . S
H326 C335 0.931 . S
H327 C337 0.930 . S
H328 C339 0.930 . S
H329 C341 0.931 . S
C330 H324 0.930 . S
C330 C331 1.380 . S
C330 C332 1.394 . S
C331 C330 1.380 . S
C331 C335 1.382 . S
C332 C330 1.394 . S
C332 C333 1.400 . S
C333 H325 0.931 . S
C333 C332 1.400 . S
C333 C334 1.375 . S
C334 C333 1.375 . S
C334 C335 1.415 . S
C334 C336 1.501 . S
C335 H326 0.931 . S
C335 C331 1.382 . S
C335 C334 1.415 . S
C336 C334 1.501 . S
C336 C337 1.384 . S
C336 C341 1.408 . S
C337 H327 0.930 . S
C337 C336 1.384 . S
C337 C338 1.389 . S
C338 C337 1.389 . S
C338 C339 1.405 . S
C339 H328 0.930 . S
C339 C338 1.405 . S
C339 C340 1.364 . S
C340 C339 1.364 . S
C340 C341 1.400 . S
C341 H329 0.931 . S
C341 C336 1.408 . S
C341 C340 1.400 . S
H342 C348 0.930 . S
H343 C351 0.931 . S
H344 C353 0.931 . S
H345 C355 0.930 . S
H346 C357 0.930 . S
H347 C359 0.931 . S
C348 H342 0.930 . S
C348 C349 1.380 . S
C348 C350 1.394 . S
C349 C348 1.380 . S
C349 C353 1.382 . S
C350 C348 1.394 . S
C350 C351 1.400 . S
C351 H343 0.931 . S
C351 C350 1.400 . S
C351 C352 1.375 . S
C352 C351 1.375 . S
C352 C353 1.415 . S
C352 C354 1.501 . S
C353 H344 0.931 . S
C353 C349 1.382 . S
C353 C352 1.415 . S
C354 C352 1.501 . S
C354 C355 1.384 . S
C354 C359 1.408 . S
C355 H345 0.930 . S
C355 C354 1.384 . S
C355 C356 1.389 . S
C356 C355 1.389 . S
C356 C357 1.405 . S
C357 H346 0.930 . S
C357 C356 1.405 . S
C357 C358 1.364 . S
C358 C357 1.364 . S
C358 C359 1.400 . S
C359 H347 0.931 . S
C359 C354 1.408 . S
C359 C358 1.400 . S
H360 C366 0.930 . S
H361 C369 0.931 . S
H362 C371 0.931 . S
H363 C373 0.930 . S
H364 C375 0.930 . S
H365 C377 0.931 . S
C366 H360 0.930 . S
C366 C367 1.380 . S
C366 C368 1.394 . S
C367 C366 1.380 . S
C367 C371 1.382 . S
C368 C366 1.394 . S
C368 C369 1.400 . S
C369 H361 0.931 . S
C369 C368 1.400 . S
C369 C370 1.375 . S
C370 C369 1.375 . S
C370 C371 1.415 . S
C370 C372 1.501 . S
C371 H362 0.931 . S
C371 C367 1.382 . S
C371 C370 1.415 . S
C372 C370 1.501 . S
C372 C373 1.384 . S
C372 C377 1.408 . S
C373 H363 0.930 . S
C373 C372 1.384 . S
C373 C374 1.389 . S
C374 C373 1.389 . S
C374 C375 1.405 . S
C375 H364 0.930 . S
C375 C374 1.405 . S
C375 C376 1.364 . S
C376 C375 1.364 . S
C376 C377 1.400 . S
C377 H365 0.931 . S
C377 C372 1.408 . S
C377 C376 1.400 . S
H378 C384 0.930 . S
H379 C387 0.931 . S
H380 C389 0.931 . S
H381 C391 0.930 . S
H382 C393 0.930 . S
H383 C395 0.931 . S
C384 H378 0.930 . S
C384 C385 1.380 . S
C384 C386 1.394 . S
C385 C384 1.380 . S
C385 C389 1.382 . S
C386 C384 1.394 . S
C386 C387 1.400 . S
C387 H379 0.931 . S
C387 C386 1.400 . S
C387 C388 1.375 . S
C388 C387 1.375 . S
C388 C389 1.415 . S
C388 C390 1.501 . S
C389 H380 0.931 . S
C389 C385 1.382 . S
C389 C388 1.415 . S
C390 C388 1.501 . S
C390 C391 1.384 . S
C390 C395 1.408 . S
C391 H381 0.930 . S
C391 C390 1.384 . S
C391 C392 1.389 . S
C392 C391 1.389 . S
C392 C393 1.405 . S
C393 H382 0.930 . S
C393 C392 1.405 . S
C393 C394 1.364 . S
C394 C393 1.364 . S
C394 C395 1.400 . S
C395 H383 0.931 . S
C395 C390 1.408 . S
C395 C394 1.400 . S
H396 C402 0.930 . S
H397 C405 0.931 . S
H398 C407 0.931 . S
H399 C409 0.930 . S
H400 C411 0.930 . S
H401 C413 0.931 . S
C402 H396 0.930 . S
C402 C403 1.380 . S
C402 C404 1.394 . S
C403 C402 1.380 . S
C403 C407 1.382 . S
C404 C402 1.394 . S
C404 C405 1.400 . S
C405 H397 0.931 . S
C405 C404 1.400 . S
C405 C406 1.375 . S
C406 C405 1.375 . S
C406 C407 1.415 . S
C406 C408 1.501 . S
C407 H398 0.931 . S
C407 C403 1.382 . S
C407 C406 1.415 . S
C408 C406 1.501 . S
C408 C409 1.384 . S
C408 C413 1.408 . S
C409 H399 0.930 . S
C409 C408 1.384 . S
C409 C410 1.389 . S
C410 C409 1.389 . S
C410 C411 1.405 . S
C411 H400 0.930 . S
C411 C410 1.405 . S
C411 C412 1.364 . S
C412 C411 1.364 . S
C412 C413 1.400 . S
C413 H401 0.931 . S
C413 C408 1.408 . S
C413 C412 1.400 . S
H414 C420 0.930 . S
H415 C423 0.931 . S
H416 C425 0.931 . S
H417 C427 0.930 . S
H418 C429 0.930 . S
H419 C431 0.931 . S
C420 H414 0.930 . S
C420 C421 1.380 . S
C420 C422 1.394 . S
C421 C420 1.380 . S
C421 C425 1.382 . S
C422 C420 1.394 . S
C422 C423 1.400 . S
C423 H415 0.931 . S
C423 C422 1.400 . S
C423 C424 1.375 . S
C424 C423 1.375 . S
C424 C425 1.415 . S
C424 C426 1.501 . S
C425 H416 0.931 . S
C425 C421 1.382 . S
C425 C424 1.415 . S
C426 C424 1.501 . S
C426 C427 1.384 . S
C426 C431 1.408 . S
C427 H417 0.930 . S
C427 C426 1.384 . S
C427 C428 1.389 . S
C428 C427 1.389 . S
C428 C429 1.405 . S
C429 H418 0.930 . S
C429 C428 1.405 . S
C429 C430 1.364 . S
C430 C429 1.364 . S
C430 C431 1.400 . S
C431 H419 0.931 . S
C431 C426 1.408 . S
C431 C430 1.400 . S
H432 C438 0.947 . S
H433 C441 0.931 . S
H434 C443 0.931 . S
H435 C445 0.930 . S
H436 C447 0.930 . S
H437 C449 0.920 1_545 S
C438 H432 0.947 . S
C438 C439 1.376 . S
C438 C440 1.382 1_545 S
C439 C438 1.376 . S
C439 C443 1.382 . S
C440 C438 1.382 1_565 S
C440 C441 1.400 . S
C441 H433 0.931 . S
C441 C440 1.400 . S
C441 C442 1.375 . S
C442 C441 1.375 . S
C442 C443 1.415 1_565 S
C442 C444 1.501 . S
C443 H434 0.931 . S
C443 C439 1.382 . S
C443 C442 1.415 1_545 S
C444 C442 1.501 . S
C444 C445 1.384 . S
C444 C449 1.399 . S
C445 H435 0.930 . S
C445 C444 1.384 . S
C445 C446 1.389 . S
C446 C445 1.389 . S
C446 C447 1.405 . S
C447 H436 0.930 . S
C447 C446 1.405 . S
C447 C448 1.374 . S
C448 C447 1.374 . S
C448 C449 1.406 . S
C449 H437 0.920 1_565 S
C449 C444 1.399 . S
C449 C448 1.406 . S
H450 C456 0.930 . S
H451 C459 0.931 . S
H452 C461 0.931 . S
H453 C463 0.930 . S
H454 C465 0.930 . S
H455 C467 0.931 . S
C456 H450 0.930 . S
C456 C457 1.380 . S
C456 C458 1.394 . S
C457 C456 1.380 . S
C457 C461 1.382 . S
C458 C456 1.394 . S
C458 C459 1.400 . S
C459 H451 0.931 . S
C459 C458 1.400 . S
C459 C460 1.375 . S
C460 C459 1.375 . S
C460 C461 1.415 . S
C460 C462 1.501 . S
C461 H452 0.931 . S
C461 C457 1.382 . S
C461 C460 1.415 . S
C462 C460 1.501 . S
C462 C463 1.384 . S
C462 C467 1.408 . S
C463 H453 0.930 . S
C463 C462 1.384 . S
C463 C464 1.389 . S
C464 C463 1.389 . S
C464 C465 1.405 . S
C465 H454 0.930 . S
C465 C464 1.405 . S
C465 C466 1.364 . S
C466 C465 1.364 . S
C466 C467 1.400 . S
C467 H455 0.931 . S
C467 C462 1.408 . S
C467 C466 1.400 . S
H468 C474 0.955 . S
H469 C477 0.931 . S
H470 C479 0.933 1_655 S
H471 C481 0.930 . S
H472 C483 0.930 . S
H473 C485 0.931 . S
C474 H468 0.955 . S
C474 C475 1.377 . S
C474 C476 1.368 1_655 S
C475 C474 1.377 . S
C475 C479 1.361 1_655 S
C476 C474 1.368 1_455 S
C476 C477 1.430 . S
C477 H469 0.931 . S
C477 C476 1.430 . S
C477 C478 1.375 . S
C478 C477 1.375 . S
C478 C479 1.418 . S
C478 C480 1.501 . S
C479 H470 0.933 1_455 S
C479 C475 1.361 1_455 S
C479 C478 1.418 . S
C480 C478 1.501 . S
C480 C481 1.384 . S
C480 C485 1.408 1_455 S
C481 H471 0.930 . S
C481 C480 1.384 . S
C481 C482 1.389 . S
C482 C481 1.389 . S
C482 C483 1.405 . S
C483 H472 0.930 . S
C483 C482 1.405 . S
C483 C484 1.364 1_455 S
C484 C483 1.364 1_655 S
C484 C485 1.400 . S
C485 H473 0.931 . S
C485 C480 1.408 1_655 S
C485 C484 1.400 . S
H486 C492 0.930 . S
H487 C495 0.931 . S
H488 C497 0.931 . S
H489 C499 0.930 . S
H490 C501 0.930 . S
H491 C503 0.931 . S
C492 H486 0.930 . S
C492 C493 1.380 . S
C492 C494 1.394 . S
C493 C492 1.380 . S
C493 C497 1.382 . S
C494 C492 1.394 . S
C494 C495 1.400 . S
C495 H487 0.931 . S
C495 C494 1.400 . S
C495 C496 1.375 . S
C496 C495 1.375 . S
C496 C497 1.415 . S
C496 C498 1.501 . S
C497 H488 0.931 . S
C497 C493 1.382 . S
C497 C496 1.415 . S
C498 C496 1.501 . S
C498 C499 1.384 . S
C498 C503 1.408 . S
C499 H489 0.930 . S
C499 C498 1.384 . S
C499 C500 1.389 . S
C500 C499 1.389 . S
C500 C501 1.405 . S
C501 H490 0.930 . S
C501 C500 1.405 . S
C501 C502 1.364 . S
C502 C501 1.364 . S
C502 C503 1.400 . S
C503 H491 0.931 . S
C503 C498 1.408 . S
C503 C502 1.400 . S
H504 C510 0.930 . S
H505 C513 0.931 . S
H506 C515 0.931 . S
H507 C517 0.930 . S
H508 C519 0.930 . S
H509 C521 0.931 . S
C510 H504 0.930 . S
C510 C511 1.380 . S
C510 C512 1.394 . S
C511 C510 1.380 . S
C511 C515 1.382 . S
C512 C510 1.394 . S
C512 C513 1.400 . S
C513 H505 0.931 . S
C513 C512 1.400 . S
C513 C514 1.375 . S
C514 C513 1.375 . S
C514 C515 1.415 . S
C514 C516 1.501 . S
C515 H506 0.931 . S
C515 C511 1.382 . S
C515 C514 1.415 . S
C516 C514 1.501 . S
C516 C517 1.384 . S
C516 C521 1.408 . S
C517 H507 0.930 . S
C517 C516 1.384 . S
C517 C518 1.389 . S
C518 C517 1.389 . S
C518 C519 1.405 . S
C519 H508 0.930 . S
C519 C518 1.405 . S
C519 C520 1.364 . S
C520 C519 1.364 . S
C520 C521 1.400 . S
C521 H509 0.931 . S
C521 C516 1.408 . S
C521 C520 1.400 . S
H522 C528 0.930 . S
H523 C531 0.931 . S
H524 C533 0.931 . S
H525 C535 0.930 . S
H526 C537 0.930 . S
H527 C539 0.931 . S
C528 H522 0.930 . S
C528 C529 1.380 . S
C528 C530 1.394 . S
C529 C528 1.380 . S
C529 C533 1.382 . S
C530 C528 1.394 . S
C530 C531 1.400 . S
C531 H523 0.931 . S
C531 C530 1.400 . S
C531 C532 1.375 . S
C532 C531 1.375 . S
C532 C533 1.415 . S
C532 C534 1.501 . S
C533 H524 0.931 . S
C533 C529 1.382 . S
C533 C532 1.415 . S
C534 C532 1.501 . S
C534 C535 1.384 . S
C534 C539 1.408 . S
C535 H525 0.930 . S
C535 C534 1.384 . S
C535 C536 1.389 . S
C536 C535 1.389 . S
C536 C537 1.405 . S
C537 H526 0.930 . S
C537 C536 1.405 . S
C537 C538 1.364 . S
C538 C537 1.364 . S
C538 C539 1.400 . S
C539 H527 0.931 . S
C539 C534 1.408 . S
C539 C538 1.400 . S
H540 C546 0.930 . S
H541 C549 0.931 . S
H542 C551 0.931 . S
H543 C553 0.930 . S
H544 C555 0.930 . S
H545 C557 0.931 . S
C546 H540 0.930 . S
C546 C547 1.380 . S
C546 C548 1.394 . S
C547 C546 1.380 . S
C547 C551 1.382 . S
C548 C546 1.394 . S
C548 C549 1.400 . S
C549 H541 0.931 . S
C549 C548 1.400 . S
C549 C550 1.375 . S
C550 C549 1.375 . S
C550 C551 1.415 . S
C550 C552 1.501 . S
C551 H542 0.931 . S
C551 C547 1.382 . S
C551 C550 1.415 . S
C552 C550 1.501 . S
C552 C553 1.384 . S
C552 C557 1.408 . S
C553 H543 0.930 . S
C553 C552 1.384 . S
C553 C554 1.389 . S
C554 C553 1.389 . S
C554 C555 1.405 . S
C555 H544 0.930 . S
C555 C554 1.405 . S
C555 C556 1.364 . S
C556 C555 1.364 . S
C556 C557 1.400 . S
C557 H545 0.931 . S
C557 C552 1.408 . S
C557 C556 1.400 . S
H558 C564 0.930 . S
H559 C568 0.930 . S
H560 C573 0.929 . S
H561 C571 0.929 . S
H562 C566 0.929 . S
H563 C572 0.929 . S
C564 H558 0.930 . S
C564 C565 1.367 . S
C564 C572 1.378 . S
C565 C564 1.367 . S
C565 C573 1.433 1_455 S
C566 H562 0.929 . S
C566 C568 1.378 . S
C566 C570 1.350 1_655 S
C567 C570 1.463 . S
C567 C572 1.350 . S
C567 N575 1.427 1_455 S
C568 H559 0.930 . S
C568 C566 1.378 . S
C568 C569 1.367 1_655 S
C569 C568 1.367 1_455 S
C569 C571 1.433 . S
C570 C566 1.350 1_455 S
C570 C567 1.463 . S
C570 N574 1.427 . S
C571 H561 0.929 . S
C571 C569 1.433 . S
C571 N574 1.384 . S
C572 H563 0.929 . S
C572 C564 1.378 . S
C572 C567 1.350 . S
C573 H560 0.929 . S
C573 C565 1.433 1_655 S
C573 N575 1.384 . S
N574 C570 1.427 . S
N574 C571 1.384 . S
N575 C567 1.427 1_655 S
N575 C573 1.384 . S
H576 C582 0.930 . S
H577 C586 0.930 . S
H578 C591 0.929 . S
H579 C589 0.929 . S
H580 C584 0.929 . S
H581 C590 0.929 . S
C582 H576 0.930 . S
C582 C583 1.367 . S
C582 C590 1.378 . S
C583 C582 1.367 . S
C583 C591 1.433 . S
C584 H580 0.929 . S
C584 C586 1.378 . S
C584 C588 1.350 . S
C585 C588 1.463 . S
C585 C590 1.350 . S
C585 N593 1.427 . S
C586 H577 0.930 . S
C586 C584 1.378 . S
C586 C587 1.367 . S
C587 C586 1.367 . S
C587 C589 1.433 . S
C588 C584 1.350 . S
C588 C585 1.463 . S
C588 N592 1.427 . S
C589 H579 0.929 . S
C589 C587 1.433 . S
C589 N592 1.384 . S
C590 H581 0.929 . S
C590 C582 1.378 . S
C590 C585 1.350 . S
C591 H578 0.929 . S
C591 C583 1.433 . S
C591 N593 1.384 . S
N592 C588 1.427 . S
N592 C589 1.384 . S
N593 C585 1.427 . S
N593 C591 1.384 . S
H594 C600 0.930 . S
H595 C604 0.930 . S
H596 C609 0.929 . S
H597 C607 0.929 . S
H598 C602 0.929 . S
H599 C608 0.929 . S
C600 H594 0.930 . S
C600 C601 1.367 . S
C600 C608 1.378 . S
C601 C600 1.367 . S
C601 C609 1.433 1_545 S
C602 H598 0.929 . S
C602 C604 1.378 . S
C602 C606 1.350 1_565 S
C603 C606 1.463 . S
C603 C608 1.350 . S
C603 N611 1.427 1_545 S
C604 H595 0.930 . S
C604 C602 1.378 . S
C604 C605 1.367 1_565 S
C605 C604 1.367 1_545 S
C605 C607 1.433 . S
C606 C602 1.350 1_545 S
C606 C603 1.463 . S
C606 N610 1.427 . S
C607 H597 0.929 . S
C607 C605 1.433 . S
C607 N610 1.384 . S
C608 H599 0.929 . S
C608 C600 1.378 . S
C608 C603 1.350 . S
C609 H596 0.929 . S
C609 C601 1.433 1_565 S
C609 N611 1.384 . S
N610 C606 1.427 . S
N610 C607 1.384 . S
N611 C603 1.427 1_565 S
N611 C609 1.384 . S
H612 C618 0.930 . S
H613 C622 0.930 . S
H614 C627 0.929 . S
H615 C625 0.929 . S
H616 C620 0.929 . S
H617 C626 0.929 . S
C618 H612 0.930 . S
C618 C619 1.367 1_565 S
C618 C626 1.378 . S
C619 C618 1.367 1_545 S
C619 C627 1.433 . S
C620 H616 0.929 . S
C620 C622 1.378 . S
C620 C624 1.350 . S
C621 C624 1.463 . S
C621 C626 1.350 1_545 S
C621 N629 1.427 . S
C622 H613 0.930 . S
C622 C620 1.378 . S
C622 C623 1.367 . S
C623 C622 1.367 . S
C623 C625 1.433 1_545 S
C624 C620 1.350 . S
C624 C621 1.463 . S
C624 N628 1.427 1_545 S
C625 H615 0.929 . S
C625 C623 1.433 1_565 S
C625 N628 1.384 . S
C626 H617 0.929 . S
C626 C618 1.378 . S
C626 C621 1.350 1_565 S
C627 H614 0.929 . S
C627 C619 1.433 . S
C627 N629 1.384 . S
N628 C624 1.427 1_565 S
N628 C625 1.384 . S
N629 C621 1.427 . S
N629 C627 1.384 . S
H630 C636 0.933 1_655 S
H631 C640 0.930 . S
H632 C645 0.929 . S
H633 C643 0.929 . S
H634 C638 0.929 . S
H635 C644 0.935 1_655 S
C636 H630 0.933 1_455 S
C636 C637 1.367 . S
C636 C644 1.390 . S
C637 C636 1.367 . S
C637 C645 1.433 . S
C638 H634 0.929 . S
C638 C640 1.378 . S
C638 C642 1.350 . S
C639 C642 1.463 . S
C639 C644 1.336 . S
C639 N647 1.427 . S
C640 H631 0.930 . S
C640 C638 1.378 . S
C640 C641 1.367 . S
C641 C640 1.367 . S
C641 C643 1.433 . S
C642 C638 1.350 . S
C642 C639 1.463 . S
C642 N646 1.427 . S
C643 H633 0.929 . S
C643 C641 1.433 . S
C643 N646 1.384 . S
C644 H635 0.935 1_455 S
C644 C636 1.390 . S
C644 C639 1.336 . S
C645 H632 0.929 . S
C645 C637 1.433 . S
C645 N647 1.384 . S
N646 C642 1.427 . S
N646 C643 1.384 . S
N647 C639 1.427 . S
N647 C645 1.384 . S
H648 C654 0.930 . S
H649 C658 0.930 . S
H650 C663 0.929 . S
H651 C661 0.929 . S
H652 C656 0.929 . S
H653 C662 0.929 . S
C654 H648 0.930 . S
C654 C655 1.367 . S
C654 C662 1.378 . S
C655 C654 1.367 . S
C655 C663 1.433 . S
C656 H652 0.929 . S
C656 C658 1.378 . S
C656 C660 1.350 . S
C657 C660 1.463 . S
C657 C662 1.350 . S
C657 N665 1.427 . S
C658 H649 0.930 . S
C658 C656 1.378 . S
C658 C659 1.367 . S
C659 C658 1.367 . S
C659 C661 1.433 . S
C660 C656 1.350 . S
C660 C657 1.463 . S
C660 N664 1.427 . S
C661 H651 0.929 . S
C661 C659 1.433 . S
C661 N664 1.384 . S
C662 H653 0.929 . S
C662 C654 1.378 . S
C662 C657 1.350 . S
C663 H650 0.929 . S
C663 C655 1.433 . S
C663 N665 1.384 . S
N664 C660 1.427 . S
N664 C661 1.384 . S
N665 C657 1.427 . S
N665 C663 1.384 . S
H666 C672 0.930 . S
H667 C676 0.930 . S
H668 C681 0.929 . S
H669 C679 0.929 . S
H670 C674 0.929 . S
H671 C680 0.929 . S
C672 H666 0.930 . S
C672 C673 1.367 . S
C672 C680 1.378 . S
C673 C672 1.367 . S
C673 C681 1.433 1_455 S
C674 H670 0.929 . S
C674 C676 1.378 . S
C674 C678 1.348 . S
C675 C678 1.462 1_455 S
C675 C680 1.350 . S
C675 N683 1.427 1_455 S
C676 H667 0.930 . S
C676 C674 1.378 . S
C676 C677 1.420 . S
C677 C676 1.420 . S
C677 C679 1.398 1_655 S
C678 C674 1.348 . S
C678 C675 1.462 1_655 S
C678 N682 1.430 1_655 S
C679 H669 0.929 . S
C679 C677 1.398 1_455 S
C679 N682 1.384 . S
C680 H671 0.929 . S
C680 C672 1.378 . S
C680 C675 1.350 . S
C681 H668 0.929 . S
C681 C673 1.433 1_655 S
C681 N683 1.384 . S
N682 C678 1.430 1_455 S
N682 C679 1.384 . S
N683 C675 1.427 1_655 S
N683 C681 1.384 . S
H684 C690 0.930 . S
H685 C694 0.930 . S
H686 C699 0.929 . S
H687 C697 0.929 . S
H688 C692 0.929 . S
H689 C698 0.929 . S
C690 H684 0.930 . S
C690 C691 1.367 . S
C690 C698 1.378 . S
C691 C690 1.367 . S
C691 C699 1.433 . S
C692 H688 0.929 . S
C692 C694 1.378 . S
C692 C696 1.350 . S
C693 C696 1.463 . S
C693 C698 1.350 . S
C693 N701 1.427 . S
C694 H685 0.930 . S
C694 C692 1.378 . S
C694 C695 1.367 . S
C695 C694 1.367 . S
C695 C697 1.433 . S
C696 C692 1.350 . S
C696 C693 1.463 . S
C696 N700 1.427 . S
C697 H687 0.929 . S
C697 C695 1.433 . S
C697 N700 1.384 . S
C698 H689 0.929 . S
C698 C690 1.378 . S
C698 C693 1.350 . S
C699 H686 0.929 . S
C699 C691 1.433 . S
C699 N701 1.384 . S
N700 C696 1.427 . S
N700 C697 1.384 . S
N701 C693 1.427 . S
N701 C699 1.384 . S
H702 C708 0.930 . S
H703 C712 0.930 . S
H704 C717 0.929 . S
H705 C715 0.929 . S
H706 C710 0.929 . S
H707 C716 0.929 . S
C708 H702 0.930 . S
C708 C709 1.367 1_565 S
C708 C716 1.378 . S
C709 C708 1.367 1_545 S
C709 C717 1.433 . S
C710 H706 0.929 . S
C710 C712 1.378 . S
C710 C714 1.350 . S
C711 C714 1.463 . S
C711 C716 1.350 1_545 S
C711 N719 1.427 . S
C712 H703 0.930 . S
C712 C710 1.378 . S
C712 C713 1.367 . S
C713 C712 1.367 . S
C713 C715 1.433 1_545 S
C714 C710 1.350 . S
C714 C711 1.463 . S
C714 N718 1.427 1_545 S
C715 H705 0.929 . S
C715 C713 1.433 1_565 S
C715 N718 1.384 . S
C716 H707 0.929 . S
C716 C708 1.378 . S
C716 C711 1.350 1_565 S
C717 H704 0.929 . S
C717 C709 1.433 . S
C717 N719 1.384 . S
N718 C714 1.427 1_565 S
N718 C715 1.384 . S
N719 C711 1.427 . S
N719 C717 1.384 . S
H720 C726 0.930 . S
H721 C730 0.930 . S
H722 C735 0.929 . S
H723 C733 0.929 . S
H724 C728 0.929 . S
H725 C734 0.929 . S
C726 H720 0.930 . S
C726 C727 1.367 . S
C726 C734 1.378 . S
C727 C726 1.367 . S
C727 C735 1.433 1_545 S
C728 H724 0.929 . S
C728 C730 1.378 . S
C728 C732 1.353 1_565 S
C729 C732 1.464 . S
C729 C734 1.350 . S
C729 N737 1.427 1_545 S
C730 H721 0.930 . S
C730 C728 1.378 . S
C730 C731 1.418 . S
C731 C730 1.418 . S
C731 C733 1.399 1_565 S
C732 C728 1.353 1_545 S
C732 C729 1.464 . S
C732 N736 1.423 . S
C733 H723 0.929 . S
C733 C731 1.399 1_545 S
C733 N736 1.384 . S
C734 H725 0.929 . S
C734 C726 1.378 . S
C734 C729 1.350 . S
C735 H722 0.929 . S
C735 C727 1.433 1_565 S
C735 N737 1.384 . S
N736 C732 1.423 . S
N736 C733 1.384 . S
N737 C729 1.427 1_565 S
N737 C735 1.384 . S
H738 C744 0.930 . S
H739 C748 0.925 1_655 S
H740 C753 0.929 . S
H741 C751 0.929 . S
H742 C746 0.935 . S
H743 C752 0.929 . S
C744 H738 0.930 . S
C744 C745 1.367 . S
C744 C752 1.378 . S
C745 C744 1.367 . S
C745 C753 1.433 1_455 S
C746 H742 0.935 . S
C746 C748 1.370 1_655 S
C746 C750 1.346 1_655 S
C747 C750 1.463 . S
C747 C752 1.350 . S
C747 N755 1.427 1_455 S
C748 H739 0.925 1_455 S
C748 C746 1.370 1_455 S
C748 C749 1.377 . S
C749 C748 1.377 . S
C749 C751 1.433 . S
C750 C746 1.346 1_455 S
C750 C747 1.463 . S
C750 N754 1.427 . S
C751 H741 0.929 . S
C751 C749 1.433 . S
C751 N754 1.384 . S
C752 H743 0.929 . S
C752 C744 1.378 . S
C752 C747 1.350 . S
C753 H740 0.929 . S
C753 C745 1.433 1_655 S
C753 N755 1.384 . S
N754 C750 1.427 . S
N754 C751 1.384 . S
N755 C747 1.427 1_655 S
N755 C753 1.384 . S
H756 C762 0.930 . S
H757 C766 0.930 . S
H758 C771 0.929 . S
H759 C769 0.929 . S
H760 C764 0.929 . S
H761 C770 0.929 . S
C762 H756 0.930 . S
C762 C763 1.367 . S
C762 C770 1.378 . S
C763 C762 1.367 . S
C763 C771 1.433 . S
C764 H760 0.929 . S
C764 C766 1.378 . S
C764 C768 1.350 . S
C765 C768 1.463 . S
C765 C770 1.350 . S
C765 N773 1.427 . S
C766 H757 0.930 . S
C766 C764 1.378 . S
C766 C767 1.367 . S
C767 C766 1.367 . S
C767 C769 1.433 . S
C768 C764 1.350 . S
C768 C765 1.463 . S
C768 N772 1.427 . S
C769 H759 0.929 . S
C769 C767 1.433 . S
C769 N772 1.384 . S
C770 H761 0.929 . S
C770 C762 1.378 . S
C770 C765 1.350 . S
C771 H758 0.929 . S
C771 C763 1.433 . S
C771 N773 1.384 . S
N772 C768 1.427 . S
N772 C769 1.384 . S
N773 C765 1.427 . S
N773 C771 1.384 . S
H774 C780 0.930 . S
H775 C784 0.930 . S
H776 C789 0.929 . S
H777 C787 0.929 . S
H778 C782 0.929 . S
H779 C788 0.929 . S
C780 H774 0.930 . S
C780 C781 1.367 . S
C780 C788 1.378 . S
C781 C780 1.367 . S
C781 C789 1.433 . S
C782 H778 0.929 . S
C782 C784 1.378 . S
C782 C786 1.350 . S
C783 C786 1.463 . S
C783 C788 1.350 . S
C783 N791 1.427 . S
C784 H775 0.930 . S
C784 C782 1.378 . S
C784 C785 1.367 . S
C785 C784 1.367 . S
C785 C787 1.433 . S
C786 C782 1.350 . S
C786 C783 1.463 . S
C786 N790 1.427 . S
C787 H777 0.929 . S
C787 C785 1.433 . S
C787 N790 1.384 . S
C788 H779 0.929 . S
C788 C780 1.378 . S
C788 C783 1.350 . S
C789 H776 0.929 . S
C789 C781 1.433 . S
C789 N791 1.384 . S
N790 C786 1.427 . S
N790 C787 1.384 . S
N791 C783 1.427 . S
N791 C789 1.384 . S
H792 C798 0.930 . S
H793 C802 0.930 . S
H794 C807 0.929 . S
H795 C805 0.929 . S
H796 C800 0.929 . S
H797 C806 0.929 . S
C798 H792 0.930 . S
C798 C799 1.367 . S
C798 C806 1.378 . S
C799 C798 1.367 . S
C799 C807 1.433 . S
C800 H796 0.929 . S
C800 C802 1.378 . S
C800 C804 1.350 . S
C801 C804 1.463 . S
C801 C806 1.350 . S
C801 N809 1.427 . S
C802 H793 0.930 . S
C802 C800 1.378 . S
C802 C803 1.367 . S
C803 C802 1.367 . S
C803 C805 1.433 . S
C804 C800 1.350 . S
C804 C801 1.463 . S
C804 N808 1.427 . S
C805 H795 0.929 . S
C805 C803 1.433 . S
C805 N808 1.384 . S
C806 H797 0.929 . S
C806 C798 1.378 . S
C806 C801 1.350 . S
C807 H794 0.929 . S
C807 C799 1.433 . S
C807 N809 1.384 . S
N808 C804 1.427 . S
N808 C805 1.384 . S
N809 C801 1.427 . S
N809 C807 1.384 . S
H810 C816 0.930 . S
H811 C820 0.930 . S
H812 C825 0.929 . S
H813 C823 0.929 . S
H814 C818 0.929 . S
H815 C824 0.929 . S
C816 H810 0.930 . S
C816 C817 1.367 . S
C816 C824 1.378 . S
C817 C816 1.367 . S
C817 C825 1.433 . S
C818 H814 0.929 . S
C818 C820 1.378 . S
C818 C822 1.350 . S
C819 C822 1.463 . S
C819 C824 1.350 . S
C819 N827 1.427 . S
C820 H811 0.930 . S
C820 C818 1.378 . S
C820 C821 1.367 . S
C821 C820 1.367 . S
C821 C823 1.433 . S
C822 C818 1.350 . S
C822 C819 1.463 . S
C822 N826 1.427 . S
C823 H813 0.929 . S
C823 C821 1.433 . S
C823 N826 1.384 . S
C824 H815 0.929 . S
C824 C816 1.378 . S
C824 C819 1.350 . S
C825 H812 0.929 . S
C825 C817 1.433 . S
C825 N827 1.384 . S
N826 C822 1.427 . S
N826 C823 1.384 . S
N827 C819 1.427 . S
N827 C825 1.384 . S
H828 C834 0.930 . S
H829 C838 0.930 . S
H830 C843 0.929 . S
H831 C841 0.929 . S
H832 C836 0.929 . S
H833 C842 0.929 . S
C834 H828 0.930 . S
C834 C835 1.367 . S
C834 C842 1.378 . S
C835 C834 1.367 . S
C835 C843 1.433 . S
C836 H832 0.929 . S
C836 C838 1.378 . S
C836 C840 1.350 . S
C837 C840 1.463 . S
C837 C842 1.350 . S
C837 N845 1.427 . S
C838 H829 0.930 . S
C838 C836 1.378 . S
C838 C839 1.367 . S
C839 C838 1.367 . S
C839 C841 1.433 . S
C840 C836 1.350 . S
C840 C837 1.463 . S
C840 N844 1.427 . S
C841 H831 0.929 . S
C841 C839 1.433 . S
C841 N844 1.384 . S
C842 H833 0.929 . S
C842 C834 1.378 . S
C842 C837 1.350 . S
C843 H830 0.929 . S
C843 C835 1.433 . S
C843 N845 1.384 . S
N844 C840 1.427 . S
N844 C841 1.384 . S
N845 C837 1.427 . S
N845 C843 1.384 . S
H846 C852 0.930 . S
H847 C856 0.930 . S
H848 C861 0.929 . S
H849 C859 0.929 . S
H850 C854 0.929 . S
H851 C860 0.929 . S
C852 H846 0.930 . S
C852 C853 1.367 . S
C852 C860 1.378 . S
C853 C852 1.367 . S
C853 C861 1.433 . S
C854 H850 0.929 . S
C854 C856 1.378 . S
C854 C858 1.350 . S
C855 C858 1.463 . S
C855 C860 1.350 . S
C855 N863 1.427 . S
C856 H847 0.930 . S
C856 C854 1.378 . S
C856 C857 1.367 . S
C857 C856 1.367 . S
C857 C859 1.433 . S
C858 C854 1.350 . S
C858 C855 1.463 . S
C858 N862 1.427 . S
C859 H849 0.929 . S
C859 C857 1.433 . S
C859 N862 1.384 . S
C860 H851 0.929 . S
C860 C852 1.378 . S
C860 C855 1.350 . S
C861 H848 0.929 . S
C861 C853 1.433 . S
C861 N863 1.384 . S
N862 C858 1.427 . S
N862 C859 1.384 . S
N863 C855 1.427 . S
N863 C861 1.384 . S
H864 C870 0.930 . S
H865 C874 0.930 . S
H866 C879 0.929 . S
H867 C877 0.929 . S
H868 C872 0.929 . S
H869 C878 0.929 . S
C870 H864 0.930 . S
C870 C871 1.367 . S
C870 C878 1.378 . S
C871 C870 1.367 . S
C871 C879 1.433 . S
C872 H868 0.929 . S
C872 C874 1.378 . S
C872 C876 1.350 . S
C873 C876 1.463 . S
C873 C878 1.350 . S
C873 N881 1.427 . S
C874 H865 0.930 . S
C874 C872 1.378 . S
C874 C875 1.367 . S
C875 C874 1.367 . S
C875 C877 1.433 . S
C876 C872 1.350 . S
C876 C873 1.463 . S
C876 N880 1.427 . S
C877 H867 0.929 . S
C877 C875 1.433 . S
C877 N880 1.384 . S
C878 H869 0.929 . S
C878 C870 1.378 . S
C878 C873 1.350 . S
C879 H866 0.929 . S
C879 C871 1.433 . S
C879 N881 1.384 . S
N880 C876 1.427 . S
N880 C877 1.384 . S
N881 C873 1.427 . S
N881 C879 1.384 . S
H882 C888 0.930 . S
H883 C892 0.930 . S
H884 C897 0.929 . S
H885 C895 0.929 . S
H886 C890 0.929 . S
H887 C896 0.929 . S
C888 H882 0.930 . S
C888 C889 1.367 . S
C888 C896 1.378 . S
C889 C888 1.367 . S
C889 C897 1.433 . S
C890 H886 0.929 . S
C890 C892 1.378 . S
C890 C894 1.350 . S
C891 C894 1.463 . S
C891 C896 1.350 . S
C891 N899 1.427 . S
C892 H883 0.930 . S
C892 C890 1.378 . S
C892 C893 1.367 . S
C893 C892 1.367 . S
C893 C895 1.433 . S
C894 C890 1.350 . S
C894 C891 1.463 . S
C894 N898 1.427 . S
C895 H885 0.929 . S
C895 C893 1.433 . S
C895 N898 1.384 . S
C896 H887 0.929 . S
C896 C888 1.378 . S
C896 C891 1.350 . S
C897 H884 0.929 . S
C897 C889 1.433 . S
C897 N899 1.384 . S
N898 C894 1.427 . S
N898 C895 1.384 . S
N899 C891 1.427 . S
N899 C897 1.384 . S
H900 C906 0.930 . S
H901 C910 0.930 . S
H902 C915 0.929 . S
H903 C913 0.929 . S
H904 C908 0.929 . S
H905 C914 0.929 . S
C906 H900 0.930 . S
C906 C907 1.367 . S
C906 C914 1.378 . S
C907 C906 1.367 . S
C907 C915 1.433 . S
C908 H904 0.929 . S
C908 C910 1.378 . S
C908 C912 1.350 . S
C909 C912 1.463 . S
C909 C914 1.350 . S
C909 N917 1.427 . S
C910 H901 0.930 . S
C910 C908 1.378 . S
C910 C911 1.367 . S
C911 C910 1.367 . S
C911 C913 1.433 . S
C912 C908 1.350 . S
C912 C909 1.463 . S
C912 N916 1.427 . S
C913 H903 0.929 . S
C913 C911 1.433 . S
C913 N916 1.384 . S
C914 H905 0.929 . S
C914 C906 1.378 . S
C914 C909 1.350 . S
C915 H902 0.929 . S
C915 C907 1.433 . S
C915 N917 1.384 . S
N916 C912 1.427 . S
N916 C913 1.384 . S
N917 C909 1.427 . S
N917 C915 1.384 . S
H918 C924 0.930 . S
H919 C928 0.930 . S
H920 C933 0.929 . S
H921 C931 0.929 . S
H922 C926 0.929 . S
H923 C932 0.929 . S
C924 H918 0.930 . S
C924 C925 1.367 . S
C924 C932 1.378 . S
C925 C924 1.367 . S
C925 C933 1.433 . S
C926 H922 0.929 . S
C926 C928 1.378 . S
C926 C930 1.350 . S
C927 C930 1.463 . S
C927 C932 1.350 . S
C927 N935 1.427 . S
C928 H919 0.930 . S
C928 C926 1.378 . S
C928 C929 1.367 . S
C929 C928 1.367 . S
C929 C931 1.433 . S
C930 C926 1.350 . S
C930 C927 1.463 . S
C930 N934 1.427 . S
C931 H921 0.929 . S
C931 C929 1.433 . S
C931 N934 1.384 . S
C932 H923 0.929 . S
C932 C924 1.378 . S
C932 C927 1.350 . S
C933 H920 0.929 . S
C933 C925 1.433 . S
C933 N935 1.384 . S
N934 C930 1.427 . S
N934 C931 1.384 . S
N935 C927 1.427 . S
N935 C933 1.384 . S
H936 C942 0.930 . S
H937 C946 0.930 . S
H938 C951 0.929 . S
H939 C949 0.929 . S
H940 C944 0.929 . S
H941 C950 0.929 . S
C942 H936 0.930 . S
C942 C943 1.367 . S
C942 C950 1.378 . S
C943 C942 1.367 . S
C943 C951 1.433 . S
C944 H940 0.929 . S
C944 C946 1.378 . S
C944 C948 1.350 . S
C945 C948 1.463 . S
C945 C950 1.350 . S
C945 N953 1.427 . S
C946 H937 0.930 . S
C946 C944 1.378 . S
C946 C947 1.367 . S
C947 C946 1.367 . S
C947 C949 1.433 . S
C948 C944 1.350 . S
C948 C945 1.463 . S
C948 N952 1.427 . S
C949 H939 0.929 . S
C949 C947 1.433 . S
C949 N952 1.384 . S
C950 H941 0.929 . S
C950 C942 1.378 . S
C950 C945 1.350 . S
C951 H938 0.929 . S
C951 C943 1.433 . S
C951 N953 1.384 . S
N952 C948 1.427 . S
N952 C949 1.384 . S
N953 C945 1.427 . S
N953 C951 1.384 . S
H954 C960 0.930 . S
H955 C964 0.930 . S
H956 C969 0.929 . S
H957 C967 0.929 . S
H958 C962 0.929 . S
H959 C968 0.929 . S
C960 H954 0.930 . S
C960 C961 1.367 . S
C960 C968 1.378 . S
C961 C960 1.367 . S
C961 C969 1.433 . S
C962 H958 0.929 . S
C962 C964 1.378 . S
C962 C966 1.350 . S
C963 C966 1.463 . S
C963 C968 1.350 . S
C963 N971 1.427 . S
C964 H955 0.930 . S
C964 C962 1.378 . S
C964 C965 1.367 . S
C965 C964 1.367 . S
C965 C967 1.433 . S
C966 C962 1.350 . S
C966 C963 1.463 . S
C966 N970 1.427 . S
C967 H957 0.929 . S
C967 C965 1.433 . S
C967 N970 1.384 . S
C968 H959 0.929 . S
C968 C960 1.378 . S
C968 C963 1.350 . S
C969 H956 0.929 . S
C969 C961 1.433 . S
C969 N971 1.384 . S
N970 C966 1.427 . S
N970 C967 1.384 . S
N971 C963 1.427 . S
N971 C969 1.384 . S
H972 C978 0.930 . S
H973 C982 0.930 . S
H974 C987 0.929 . S
H975 C985 0.929 . S
H976 C980 0.929 . S
H977 C986 0.929 . S
C978 H972 0.930 . S
C978 C979 1.367 . S
C978 C986 1.378 . S
C979 C978 1.367 . S
C979 C987 1.433 . S
C980 H976 0.929 . S
C980 C982 1.378 . S
C980 C984 1.350 . S
C981 C984 1.463 . S
C981 C986 1.350 . S
C981 N989 1.427 . S
C982 H973 0.930 . S
C982 C980 1.378 . S
C982 C983 1.367 . S
C983 C982 1.367 . S
C983 C985 1.433 . S
C984 C980 1.350 . S
C984 C981 1.463 . S
C984 N988 1.427 . S
C985 H975 0.929 . S
C985 C983 1.433 . S
C985 N988 1.384 . S
C986 H977 0.929 . S
C986 C978 1.378 . S
C986 C981 1.350 . S
C987 H974 0.929 . S
C987 C979 1.433 . S
C987 N989 1.384 . S
N988 C984 1.427 . S
N988 C985 1.384 . S
N989 C981 1.427 . S
N989 C987 1.384 . S
H990 C996 0.930 . S
H991 C1000 0.930 . S
H992 C1005 0.929 . S
H993 C1003 0.929 . S
H994 C998 0.929 . S
H995 C1004 0.929 . S
C996 H990 0.930 . S
C996 C997 1.367 . S
C996 C1004 1.378 . S
C997 C996 1.367 . S
C997 C1005 1.433 . S
C998 H994 0.929 . S
C998 C1000 1.378 . S
C998 C1002 1.350 . S
C999 C1002 1.463 . S
C999 C1004 1.350 . S
C999 N1007 1.427 . S
C1000 H991 0.930 . S
C1000 C998 1.378 . S
C1000 C1001 1.367 . S
C1001 C1000 1.367 . S
C1001 C1003 1.433 . S
C1002 C998 1.350 . S
C1002 C999 1.463 . S
C1002 N1006 1.427 . S
C1003 H993 0.929 . S
C1003 C1001 1.433 . S
C1003 N1006 1.384 . S
C1004 H995 0.929 . S
C1004 C996 1.378 . S
C1004 C999 1.350 . S
C1005 H992 0.929 . S
C1005 C997 1.433 . S
C1005 N1007 1.384 . S
N1006 C1002 1.427 . S
N1006 C1003 1.384 . S
N1007 C999 1.427 . S
N1007 C1005 1.384 . S
H1008 C1014 0.930 . S
H1009 C1018 0.930 . S
H1010 C1023 0.929 . S
H1011 C1021 0.929 . S
H1012 C1016 0.929 . S
H1013 C1022 0.929 . S
C1014 H1008 0.930 . S
C1014 C1015 1.367 . S
C1014 C1022 1.378 . S
C1015 C1014 1.367 . S
C1015 C1023 1.433 . S
C1016 H1012 0.929 . S
C1016 C1018 1.378 . S
C1016 C1020 1.350 . S
C1017 C1020 1.463 . S
C1017 C1022 1.350 . S
C1017 N1025 1.427 . S
C1018 H1009 0.930 . S
C1018 C1016 1.378 . S
C1018 C1019 1.367 . S
C1019 C1018 1.367 . S
C1019 C1021 1.433 . S
C1020 C1016 1.350 . S
C1020 C1017 1.463 . S
C1020 N1024 1.427 . S
C1021 H1011 0.929 . S
C1021 C1019 1.433 . S
C1021 N1024 1.384 . S
C1022 H1013 0.929 . S
C1022 C1014 1.378 . S
C1022 C1017 1.350 . S
C1023 H1010 0.929 . S
C1023 C1015 1.433 . S
C1023 N1025 1.384 . S
N1024 C1020 1.427 . S
N1024 C1021 1.384 . S
N1025 C1017 1.427 . S
N1025 C1023 1.384 . S
H1026 C1032 0.930 . S
H1027 C1036 0.930 . S
H1028 C1041 0.929 . S
H1029 C1039 0.929 . S
H1030 C1034 0.929 . S
H1031 C1040 0.929 . S
C1032 H1026 0.930 . S
C1032 C1033 1.367 . S
C1032 C1040 1.378 . S
C1033 C1032 1.367 . S
C1033 C1041 1.433 . S
C1034 H1030 0.929 . S
C1034 C1036 1.378 . S
C1034 C1038 1.350 . S
C1035 C1038 1.463 . S
C1035 C1040 1.350 . S
C1035 N1043 1.427 . S
C1036 H1027 0.930 . S
C1036 C1034 1.378 . S
C1036 C1037 1.367 . S
C1037 C1036 1.367 . S
C1037 C1039 1.433 . S
C1038 C1034 1.350 . S
C1038 C1035 1.463 . S
C1038 N1042 1.427 . S
C1039 H1029 0.929 . S
C1039 C1037 1.433 . S
C1039 N1042 1.384 . S
C1040 H1031 0.929 . S
C1040 C1032 1.378 . S
C1040 C1035 1.350 . S
C1041 H1028 0.929 . S
C1041 C1033 1.433 . S
C1041 N1043 1.384 . S
N1042 C1038 1.427 . S
N1042 C1039 1.384 . S
N1043 C1035 1.427 . S
N1043 C1041 1.384 . S
H1044 C1050 0.930 . S
H1045 C1054 0.930 . S
H1046 C1059 0.929 . S
H1047 C1057 0.929 . S
H1048 C1052 0.929 . S
H1049 C1058 0.929 . S
C1050 H1044 0.930 . S
C1050 C1051 1.367 . S
C1050 C1058 1.378 . S
C1051 C1050 1.367 . S
C1051 C1059 1.433 . S
C1052 H1048 0.929 . S
C1052 C1054 1.378 . S
C1052 C1056 1.350 . S
C1053 C1056 1.463 . S
C1053 C1058 1.350 . S
C1053 N1061 1.427 . S
C1054 H1045 0.930 . S
C1054 C1052 1.378 . S
C1054 C1055 1.367 . S
C1055 C1054 1.367 . S
C1055 C1057 1.433 . S
C1056 C1052 1.350 . S
C1056 C1053 1.463 . S
C1056 N1060 1.427 . S
C1057 H1047 0.929 . S
C1057 C1055 1.433 . S
C1057 N1060 1.384 . S
C1058 H1049 0.929 . S
C1058 C1050 1.378 . S
C1058 C1053 1.350 . S
C1059 H1046 0.929 . S
C1059 C1051 1.433 . S
C1059 N1061 1.384 . S
N1060 C1056 1.427 . S
N1060 C1057 1.384 . S
N1061 C1053 1.427 . S
N1061 C1059 1.384 . S
H1062 C1068 0.930 . S
H1063 C1072 0.930 . S
H1064 C1077 0.929 . S
H1065 C1075 0.929 . S
H1066 C1070 0.929 . S
H1067 C1076 0.929 . S
C1068 H1062 0.930 . S
C1068 C1069 1.367 . S
C1068 C1076 1.378 . S
C1069 C1068 1.367 . S
C1069 C1077 1.433 . S
C1070 H1066 0.929 . S
C1070 C1072 1.378 . S
C1070 C1074 1.350 . S
C1071 C1074 1.463 . S
C1071 C1076 1.350 . S
C1071 N1079 1.427 . S
C1072 H1063 0.930 . S
C1072 C1070 1.378 . S
C1072 C1073 1.367 . S
C1073 C1072 1.367 . S
C1073 C1075 1.433 . S
C1074 C1070 1.350 . S
C1074 C1071 1.463 . S
C1074 N1078 1.427 . S
C1075 H1065 0.929 . S
C1075 C1073 1.433 . S
C1075 N1078 1.384 . S
C1076 H1067 0.929 . S
C1076 C1068 1.378 . S
C1076 C1071 1.350 . S
C1077 H1064 0.929 . S
C1077 C1069 1.433 . S
C1077 N1079 1.384 . S
N1078 C1074 1.427 . S
N1078 C1075 1.384 . S
N1079 C1071 1.427 . S
N1079 C1077 1.384 . S
H1080 C1086 0.930 . S
H1081 C1090 0.930 . S
H1082 C1095 0.929 . S
H1083 C1093 0.929 . S
H1084 C1088 0.929 . S
H1085 C1094 0.929 . S
C1086 H1080 0.930 . S
C1086 C1087 1.367 . S
C1086 C1094 1.378 . S
C1087 C1086 1.367 . S
C1087 C1095 1.433 . S
C1088 H1084 0.929 . S
C1088 C1090 1.378 . S
C1088 C1092 1.350 . S
C1089 C1092 1.463 . S
C1089 C1094 1.350 . S
C1089 N1097 1.427 . S
C1090 H1081 0.930 . S
C1090 C1088 1.378 . S
C1090 C1091 1.367 . S
C1091 C1090 1.367 . S
C1091 C1093 1.433 . S
C1092 C1088 1.350 . S
C1092 C1089 1.463 . S
C1092 N1096 1.427 . S
C1093 H1083 0.929 . S
C1093 C1091 1.433 . S
C1093 N1096 1.384 . S
C1094 H1085 0.929 . S
C1094 C1086 1.378 . S
C1094 C1089 1.350 . S
C1095 H1082 0.929 . S
C1095 C1087 1.433 . S
C1095 N1097 1.384 . S
N1096 C1092 1.427 . S
N1096 C1093 1.384 . S
N1097 C1089 1.427 . S
N1097 C1095 1.384 . S
H1098 C1104 0.930 . S
H1099 C1108 0.930 . S
H1100 C1113 0.929 . S
H1101 C1111 0.929 . S
H1102 C1106 0.929 . S
H1103 C1112 0.929 . S
C1104 H1098 0.930 . S
C1104 C1105 1.367 . S
C1104 C1112 1.378 . S
C1105 C1104 1.367 . S
C1105 C1113 1.433 . S
C1106 H1102 0.929 . S
C1106 C1108 1.378 . S
C1106 C1110 1.350 . S
C1107 C1110 1.463 . S
C1107 C1112 1.350 . S
C1107 N1115 1.427 . S
C1108 H1099 0.930 . S
C1108 C1106 1.378 . S
C1108 C1109 1.367 . S
C1109 C1108 1.367 . S
C1109 C1111 1.433 . S
C1110 C1106 1.350 . S
C1110 C1107 1.463 . S
C1110 N1114 1.427 . S
C1111 H1101 0.929 . S
C1111 C1109 1.433 . S
C1111 N1114 1.384 . S
C1112 H1103 0.929 . S
C1112 C1104 1.378 . S
C1112 C1107 1.350 . S
C1113 H1100 0.929 . S
C1113 C1105 1.433 . S
C1113 N1115 1.384 . S
N1114 C1110 1.427 . S
N1114 C1111 1.384 . S
N1115 C1107 1.427 . S
N1115 C1113 1.384 . S
H1116 C1122 0.930 . S
H1117 C1126 0.930 . S
H1118 C1131 0.929 . S
H1119 C1129 0.929 . S
H1120 C1124 0.929 . S
H1121 C1130 0.929 . S
C1122 H1116 0.930 . S
C1122 C1123 1.367 . S
C1122 C1130 1.378 . S
C1123 C1122 1.367 . S
C1123 C1131 1.433 . S
C1124 H1120 0.929 . S
C1124 C1126 1.378 . S
C1124 C1128 1.350 . S
C1125 C1128 1.463 . S
C1125 C1130 1.350 . S
C1125 N1133 1.427 . S
C1126 H1117 0.930 . S
C1126 C1124 1.378 . S
C1126 C1127 1.367 . S
C1127 C1126 1.367 . S
C1127 C1129 1.433 . S
C1128 C1124 1.350 . S
C1128 C1125 1.463 . S
C1128 N1132 1.427 . S
C1129 H1119 0.929 . S
C1129 C1127 1.433 . S
C1129 N1132 1.384 . S
C1130 H1121 0.929 . S
C1130 C1122 1.378 . S
C1130 C1125 1.350 . S
C1131 H1118 0.929 . S
C1131 C1123 1.433 . S
C1131 N1133 1.384 . S
N1132 C1128 1.427 . S
N1132 C1129 1.384 . S
N1133 C1125 1.427 . S
N1133 C1131 1.384 . S
H1134 C1140 0.930 . S
H1135 C1144 0.930 . S
H1136 C1149 0.929 . S
H1137 C1147 0.929 . S
H1138 C1142 0.929 . S
H1139 C1148 0.929 . S
C1140 H1134 0.930 . S
C1140 C1141 1.367 . S
C1140 C1148 1.378 . S
C1141 C1140 1.367 . S
C1141 C1149 1.433 . S
C1142 H1138 0.929 . S
C1142 C1144 1.378 . S
C1142 C1146 1.350 . S
C1143 C1146 1.463 . S
C1143 C1148 1.350 . S
C1143 N1151 1.427 . S
C1144 H1135 0.930 . S
C1144 C1142 1.378 . S
C1144 C1145 1.367 . S
C1145 C1144 1.367 . S
C1145 C1147 1.433 . S
C1146 C1142 1.350 . S
C1146 C1143 1.463 . S
C1146 N1150 1.427 . S
C1147 H1137 0.929 . S
C1147 C1145 1.433 . S
C1147 N1150 1.384 . S
C1148 H1139 0.929 . S
C1148 C1140 1.378 . S
C1148 C1143 1.350 . S
C1149 H1136 0.929 . S
C1149 C1141 1.433 . S
C1149 N1151 1.384 . S
N1150 C1146 1.427 . S
N1150 C1147 1.384 . S
N1151 C1143 1.427 . S
N1151 C1149 1.384 . S
H1152 C1158 0.930 . S
H1153 C1162 0.930 . S
H1154 C1167 0.929 . S
H1155 C1165 0.929 . S
H1156 C1160 0.929 . S
H1157 C1166 0.929 . S
C1158 H1152 0.930 . S
C1158 C1159 1.367 . S
C1158 C1166 1.378 . S
C1159 C1158 1.367 . S
C1159 C1167 1.433 . S
C1160 H1156 0.929 . S
C1160 C1162 1.378 . S
C1160 C1164 1.350 . S
C1161 C1164 1.463 . S
C1161 C1166 1.350 . S
C1161 N1169 1.427 . S
C1162 H1153 0.930 . S
C1162 C1160 1.378 . S
C1162 C1163 1.367 . S
C1163 C1162 1.367 . S
C1163 C1165 1.433 . S
C1164 C1160 1.350 . S
C1164 C1161 1.463 . S
C1164 N1168 1.427 . S
C1165 H1155 0.929 . S
C1165 C1163 1.433 . S
C1165 N1168 1.384 . S
C1166 H1157 0.929 . S
C1166 C1158 1.378 . S
C1166 C1161 1.350 . S
C1167 H1154 0.929 . S
C1167 C1159 1.433 . S
C1167 N1169 1.384 . S
N1168 C1164 1.427 . S
N1168 C1165 1.384 . S
N1169 C1161 1.427 . S
N1169 C1167 1.384 . S
H1170 C1176 0.930 . S
H1171 C1180 0.930 . S
H1172 C1185 0.929 . S
H1173 C1183 0.929 . S
H1174 C1178 0.929 . S
H1175 C1184 0.929 . S
C1176 H1170 0.930 . S
C1176 C1177 1.367 . S
C1176 C1184 1.378 . S
C1177 C1176 1.367 . S
C1177 C1185 1.433 . S
C1178 H1174 0.929 . S
C1178 C1180 1.378 . S
C1178 C1182 1.350 . S
C1179 C1182 1.463 . S
C1179 C1184 1.350 . S
C1179 N1187 1.427 . S
C1180 H1171 0.930 . S
C1180 C1178 1.378 . S
C1180 C1181 1.367 . S
C1181 C1180 1.367 . S
C1181 C1183 1.433 . S
C1182 C1178 1.350 . S
C1182 C1179 1.463 . S
C1182 N1186 1.427 . S
C1183 H1173 0.929 . S
C1183 C1181 1.433 . S
C1183 N1186 1.384 . S
C1184 H1175 0.929 . S
C1184 C1176 1.378 . S
C1184 C1179 1.350 . S
C1185 H1172 0.929 . S
C1185 C1177 1.433 . S
C1185 N1187 1.384 . S
N1186 C1182 1.427 . S
N1186 C1183 1.384 . S
N1187 C1179 1.427 . S
N1187 C1185 1.384 . S
H1188 C1194 0.930 . S
H1189 C1198 0.930 . S
H1190 C1203 0.929 . S
H1191 C1201 0.929 . S
H1192 C1196 0.929 . S
H1193 C1202 0.929 . S
C1194 H1188 0.930 . S
C1194 C1195 1.367 . S
C1194 C1202 1.378 . S
C1195 C1194 1.367 . S
C1195 C1203 1.433 . S
C1196 H1192 0.929 . S
C1196 C1198 1.378 . S
C1196 C1200 1.350 . S
C1197 C1200 1.463 . S
C1197 C1202 1.350 . S
C1197 N1205 1.427 . S
C1198 H1189 0.930 . S
C1198 C1196 1.378 . S
C1198 C1199 1.367 . S
C1199 C1198 1.367 . S
C1199 C1201 1.433 . S
C1200 C1196 1.350 . S
C1200 C1197 1.463 . S
C1200 N1204 1.427 . S
C1201 H1191 0.929 . S
C1201 C1199 1.433 . S
C1201 N1204 1.384 . S
C1202 H1193 0.929 . S
C1202 C1194 1.378 . S
C1202 C1197 1.350 . S
C1203 H1190 0.929 . S
C1203 C1195 1.433 . S
C1203 N1205 1.384 . S
N1204 C1200 1.427 . S
N1204 C1201 1.384 . S
N1205 C1197 1.427 . S
N1205 C1203 1.384 . S
H1206 C1212 0.930 . S
H1207 C1216 0.930 . S
H1208 C1221 0.929 . S
H1209 C1219 0.929 . S
H1210 C1214 0.929 . S
H1211 C1220 0.929 . S
C1212 H1206 0.930 . S
C1212 C1213 1.367 . S
C1212 C1220 1.378 . S
C1213 C1212 1.367 . S
C1213 C1221 1.433 . S
C1214 H1210 0.929 . S
C1214 C1216 1.378 . S
C1214 C1218 1.350 . S
C1215 C1218 1.463 . S
C1215 C1220 1.350 . S
C1215 N1223 1.427 . S
C1216 H1207 0.930 . S
C1216 C1214 1.378 . S
C1216 C1217 1.367 . S
C1217 C1216 1.367 . S
C1217 C1219 1.433 . S
C1218 C1214 1.350 . S
C1218 C1215 1.463 . S
C1218 N1222 1.427 . S
C1219 H1209 0.929 . S
C1219 C1217 1.433 . S
C1219 N1222 1.384 . S
C1220 H1211 0.929 . S
C1220 C1212 1.378 . S
C1220 C1215 1.350 . S
C1221 H1208 0.929 . S
C1221 C1213 1.433 . S
C1221 N1223 1.384 . S
N1222 C1218 1.427 . S
N1222 C1219 1.384 . S
N1223 C1215 1.427 . S
N1223 C1221 1.384 . S
H1224 C1230 0.930 . S
H1225 C1234 0.930 . S
H1226 C1239 0.929 . S
H1227 C1237 0.929 . S
H1228 C1232 0.929 . S
H1229 C1238 0.929 . S
C1230 H1224 0.930 . S
C1230 C1231 1.367 . S
C1230 C1238 1.378 . S
C1231 C1230 1.367 . S
C1231 C1239 1.433 . S
C1232 H1228 0.929 . S
C1232 C1234 1.378 . S
C1232 C1236 1.350 . S
C1233 C1236 1.463 . S
C1233 C1238 1.350 . S
C1233 N1241 1.427 . S
C1234 H1225 0.930 . S
C1234 C1232 1.378 . S
C1234 C1235 1.367 . S
C1235 C1234 1.367 . S
C1235 C1237 1.433 . S
C1236 C1232 1.350 . S
C1236 C1233 1.463 . S
C1236 N1240 1.427 . S
C1237 H1227 0.929 . S
C1237 C1235 1.433 . S
C1237 N1240 1.384 . S
C1238 H1229 0.929 . S
C1238 C1230 1.378 . S
C1238 C1233 1.350 . S
C1239 H1226 0.929 . S
C1239 C1231 1.433 . S
C1239 N1241 1.384 . S
N1240 C1236 1.427 . S
N1240 C1237 1.384 . S
N1241 C1233 1.427 . S
N1241 C1239 1.384 . S
H1242 C1248 0.930 . S
H1243 C1252 0.930 . S
H1244 C1257 0.929 . S
H1245 C1255 0.929 . S
H1246 C1250 0.929 . S
H1247 C1256 0.929 . S
C1248 H1242 0.930 . S
C1248 C1249 1.367 . S
C1248 C1256 1.378 . S
C1249 C1248 1.367 . S
C1249 C1257 1.433 . S
C1250 H1246 0.929 . S
C1250 C1252 1.378 . S
C1250 C1254 1.350 . S
C1251 C1254 1.463 . S
C1251 C1256 1.350 . S
C1251 N1259 1.427 . S
C1252 H1243 0.930 . S
C1252 C1250 1.378 . S
C1252 C1253 1.367 . S
C1253 C1252 1.367 . S
C1253 C1255 1.433 . S
C1254 C1250 1.350 . S
C1254 C1251 1.463 . S
C1254 N1258 1.427 . S
C1255 H1245 0.929 . S
C1255 C1253 1.433 . S
C1255 N1258 1.384 . S
C1256 H1247 0.929 . S
C1256 C1248 1.378 . S
C1256 C1251 1.350 . S
C1257 H1244 0.929 . S
C1257 C1249 1.433 . S
C1257 N1259 1.384 . S
N1258 C1254 1.427 . S
N1258 C1255 1.384 . S
N1259 C1251 1.427 . S
N1259 C1257 1.384 . S
H1260 C1266 0.930 1_554 S
H1261 C1270 0.930 . S
H1262 C1275 0.929 . S
H1263 C1273 0.929 . S
H1264 C1268 0.929 . S
H1265 C1274 0.929 . S
C1266 H1260 0.930 1_556 S
C1266 C1267 1.367 . S
C1266 C1274 1.378 . S
C1267 C1266 1.367 . S
C1267 C1275 1.433 . S
C1268 H1264 0.929 . S
C1268 C1270 1.378 . S
C1268 C1272 1.350 . S
C1269 C1272 1.463 . S
C1269 C1274 1.350 . S
C1269 N1277 1.427 . S
C1270 H1261 0.930 . S
C1270 C1268 1.378 . S
C1270 C1271 1.367 . S
C1271 C1270 1.367 . S
C1271 C1273 1.433 . S
C1272 C1268 1.350 . S
C1272 C1269 1.463 . S
C1272 N1276 1.427 . S
C1273 H1263 0.929 . S
C1273 C1271 1.433 . S
C1273 N1276 1.384 . S
C1274 H1265 0.929 . S
C1274 C1266 1.378 . S
C1274 C1269 1.350 . S
C1275 H1262 0.929 . S
C1275 C1267 1.433 . S
C1275 N1277 1.384 . S
N1276 C1272 1.427 . S
N1276 C1273 1.384 . S
N1277 C1269 1.427 . S
N1277 C1275 1.384 . S
H1278 C1284 0.930 . S
H1279 C1288 0.930 . S
H1280 C1293 0.929 . S
H1281 C1291 0.929 . S
H1282 C1286 0.929 . S
H1283 C1292 0.929 . S
C1284 H1278 0.930 . S
C1284 C1285 1.367 . S
C1284 C1292 1.378 . S
C1285 C1284 1.367 . S
C1285 C1293 1.433 . S
C1286 H1282 0.929 . S
C1286 C1288 1.378 . S
C1286 C1290 1.350 . S
C1287 C1290 1.463 . S
C1287 C1292 1.350 . S
C1287 N1295 1.427 . S
C1288 H1279 0.930 . S
C1288 C1286 1.378 . S
C1288 C1289 1.367 . S
C1289 C1288 1.367 . S
C1289 C1291 1.433 . S
C1290 C1286 1.350 . S
C1290 C1287 1.463 . S
C1290 N1294 1.427 . S
C1291 H1281 0.929 . S
C1291 C1289 1.433 . S
C1291 N1294 1.384 . S
C1292 H1283 0.929 . S
C1292 C1284 1.378 . S
C1292 C1287 1.350 . S
C1293 H1280 0.929 . S
C1293 C1285 1.433 . S
C1293 N1295 1.384 . S
N1294 C1290 1.427 . S
N1294 C1291 1.384 . S
N1295 C1287 1.427 . S
N1295 C1293 1.384 . S
H1296 C1302 0.930 . S
H1297 C1306 0.930 . S
H1298 C1311 0.929 . S
H1299 C1309 0.929 . S
H1300 C1304 0.929 . S
H1301 C1310 0.929 . S
C1302 H1296 0.930 . S
C1302 C1303 1.367 . S
C1302 C1310 1.378 . S
C1303 C1302 1.367 . S
C1303 C1311 1.433 . S
C1304 H1300 0.929 . S
C1304 C1306 1.378 . S
C1304 C1308 1.350 . S
C1305 C1308 1.463 . S
C1305 C1310 1.350 . S
C1305 N1313 1.427 . S
C1306 H1297 0.930 . S
C1306 C1304 1.378 . S
C1306 C1307 1.367 . S
C1307 C1306 1.367 . S
C1307 C1309 1.433 . S
C1308 C1304 1.350 . S
C1308 C1305 1.463 . S
C1308 N1312 1.427 . S
C1309 H1299 0.929 . S
C1309 C1307 1.433 . S
C1309 N1312 1.384 . S
C1310 H1301 0.929 . S
C1310 C1302 1.378 . S
C1310 C1305 1.350 . S
C1311 H1298 0.929 . S
C1311 C1303 1.433 . S
C1311 N1313 1.384 . S
N1312 C1308 1.427 . S
N1312 C1309 1.384 . S
N1313 C1305 1.427 . S
N1313 C1311 1.384 . S
H1314 C1320 0.930 . S
H1315 C1324 0.930 . S
H1316 C1329 0.929 1_554 S
H1317 C1327 0.929 . S
H1318 C1322 0.929 . S
H1319 C1328 0.929 . S
C1320 H1314 0.930 . S
C1320 C1321 1.367 . S
C1320 C1328 1.378 . S
C1321 C1320 1.367 . S
C1321 C1329 1.433 . S
C1322 H1318 0.929 . S
C1322 C1324 1.378 . S
C1322 C1326 1.350 . S
C1323 C1326 1.463 . S
C1323 C1328 1.350 . S
C1323 N1331 1.427 . S
C1324 H1315 0.930 . S
C1324 C1322 1.378 . S
C1324 C1325 1.367 . S
C1325 C1324 1.367 . S
C1325 C1327 1.433 . S
C1326 C1322 1.350 . S
C1326 C1323 1.463 . S
C1326 N1330 1.427 . S
C1327 H1317 0.929 . S
C1327 C1325 1.433 . S
C1327 N1330 1.384 . S
C1328 H1319 0.929 . S
C1328 C1320 1.378 . S
C1328 C1323 1.350 . S
C1329 H1316 0.929 1_556 S
C1329 C1321 1.433 . S
C1329 N1331 1.384 . S
N1330 C1326 1.427 . S
N1330 C1327 1.384 . S
N1331 C1323 1.427 . S
N1331 C1329 1.384 . S
H1332 C1338 0.930 1_554 S
H1333 C1342 0.930 . S
H1334 C1347 0.929 . S
H1335 C1345 0.929 . S
H1336 C1340 0.929 . S
H1337 C1346 0.929 . S
C1338 H1332 0.930 1_556 S
C1338 C1339 1.367 . S
C1338 C1346 1.378 . S
C1339 C1338 1.367 . S
C1339 C1347 1.433 . S
C1340 H1336 0.929 . S
C1340 C1342 1.378 . S
C1340 C1344 1.350 . S
C1341 C1344 1.463 . S
C1341 C1346 1.350 . S
C1341 N1349 1.427 . S
C1342 H1333 0.930 . S
C1342 C1340 1.378 . S
C1342 C1343 1.367 . S
C1343 C1342 1.367 . S
C1343 C1345 1.433 . S
C1344 C1340 1.350 . S
C1344 C1341 1.463 . S
C1344 N1348 1.427 . S
C1345 H1335 0.929 . S
C1345 C1343 1.433 . S
C1345 N1348 1.384 . S
C1346 H1337 0.929 . S
C1346 C1338 1.378 . S
C1346 C1341 1.350 . S
C1347 H1334 0.929 . S
C1347 C1339 1.433 . S
C1347 N1349 1.384 . S
N1348 C1344 1.427 . S
N1348 C1345 1.384 . S
N1349 C1341 1.427 . S
N1349 C1347 1.384 . S
H1350 C1356 0.930 1_554 S
H1351 C1360 0.930 . S
H1352 C1365 0.929 . S
H1353 C1363 0.929 . S
H1354 C1358 0.929 . S
H1355 C1364 0.929 . S
C1356 H1350 0.930 1_556 S
C1356 C1357 1.367 . S
C1356 C1364 1.378 . S
C1357 C1356 1.367 . S
C1357 C1365 1.433 . S
C1358 H1354 0.929 . S
C1358 C1360 1.378 . S
C1358 C1362 1.350 . S
C1359 C1362 1.463 . S
C1359 C1364 1.350 . S
C1359 N1367 1.427 . S
C1360 H1351 0.930 . S
C1360 C1358 1.378 . S
C1360 C1361 1.367 . S
C1361 C1360 1.367 . S
C1361 C1363 1.433 . S
C1362 C1358 1.350 . S
C1362 C1359 1.463 . S
C1362 N1366 1.427 . S
C1363 H1353 0.929 . S
C1363 C1361 1.433 . S
C1363 N1366 1.384 . S
C1364 H1355 0.929 . S
C1364 C1356 1.378 . S
C1364 C1359 1.350 . S
C1365 H1352 0.929 . S
C1365 C1357 1.433 . S
C1365 N1367 1.384 . S
N1366 C1362 1.427 . S
N1366 C1363 1.384 . S
N1367 C1359 1.427 . S
N1367 C1365 1.384 . S
H1368 C1374 0.930 . S
H1369 C1378 0.930 . S
H1370 C1383 0.929 . S
H1371 C1381 0.929 . S
H1372 C1376 0.929 . S
H1373 C1382 0.929 . S
C1374 H1368 0.930 . S
C1374 C1375 1.367 . S
C1374 C1382 1.378 . S
C1375 C1374 1.367 . S
C1375 C1383 1.433 . S
C1376 H1372 0.929 . S
C1376 C1378 1.378 . S
C1376 C1380 1.350 . S
C1377 C1380 1.463 . S
C1377 C1382 1.350 . S
C1377 N1385 1.427 . S
C1378 H1369 0.930 . S
C1378 C1376 1.378 . S
C1378 C1379 1.367 . S
C1379 C1378 1.367 . S
C1379 C1381 1.433 . S
C1380 C1376 1.350 . S
C1380 C1377 1.463 . S
C1380 N1384 1.427 . S
C1381 H1371 0.929 . S
C1381 C1379 1.433 . S
C1381 N1384 1.384 . S
C1382 H1373 0.929 . S
C1382 C1374 1.378 . S
C1382 C1377 1.350 . S
C1383 H1370 0.929 . S
C1383 C1375 1.433 . S
C1383 N1385 1.384 . S
N1384 C1380 1.427 . S
N1384 C1381 1.384 . S
N1385 C1377 1.427 . S
N1385 C1383 1.384 . S
H1386 C1392 0.930 . S
H1387 C1396 0.930 . S
H1388 C1401 0.929 . S
H1389 C1399 0.929 . S
H1390 C1394 0.929 . S
H1391 C1400 0.929 . S
C1392 H1386 0.930 . S
C1392 C1393 1.367 . S
C1392 C1400 1.378 . S
C1393 C1392 1.367 . S
C1393 C1401 1.433 . S
C1394 H1390 0.929 . S
C1394 C1396 1.378 . S
C1394 C1398 1.350 . S
C1395 C1398 1.463 . S
C1395 C1400 1.350 . S
C1395 N1403 1.427 . S
C1396 H1387 0.930 . S
C1396 C1394 1.378 . S
C1396 C1397 1.367 . S
C1397 C1396 1.367 . S
C1397 C1399 1.433 . S
C1398 C1394 1.350 . S
C1398 C1395 1.463 . S
C1398 N1402 1.427 . S
C1399 H1389 0.929 . S
C1399 C1397 1.433 . S
C1399 N1402 1.384 . S
C1400 H1391 0.929 . S
C1400 C1392 1.378 . S
C1400 C1395 1.350 . S
C1401 H1388 0.929 . S
C1401 C1393 1.433 . S
C1401 N1403 1.384 . S
N1402 C1398 1.427 . S
N1402 C1399 1.384 . S
N1403 C1395 1.427 . S
N1403 C1401 1.384 . S
H1404 C1410 0.930 . S
H1405 C1414 0.930 . S
H1406 C1419 0.929 . S
H1407 C1417 0.929 . S
H1408 C1412 0.929 . S
H1409 C1418 0.929 . S
C1410 H1404 0.930 . S
C1410 C1411 1.367 . S
C1410 C1418 1.378 . S
C1411 C1410 1.367 . S
C1411 C1419 1.433 . S
C1412 H1408 0.929 . S
C1412 C1414 1.378 . S
C1412 C1416 1.350 . S
C1413 C1416 1.463 . S
C1413 C1418 1.350 . S
C1413 N1421 1.427 . S
C1414 H1405 0.930 . S
C1414 C1412 1.378 . S
C1414 C1415 1.367 . S
C1415 C1414 1.367 . S
C1415 C1417 1.433 . S
C1416 C1412 1.350 . S
C1416 C1413 1.463 . S
C1416 N1420 1.427 . S
C1417 H1407 0.929 . S
C1417 C1415 1.433 . S
C1417 N1420 1.384 . S
C1418 H1409 0.929 . S
C1418 C1410 1.378 . S
C1418 C1413 1.350 . S
C1419 H1406 0.929 . S
C1419 C1411 1.433 . S
C1419 N1421 1.384 . S
N1420 C1416 1.427 . S
N1420 C1417 1.384 . S
N1421 C1413 1.427 . S
N1421 C1419 1.384 . S
H1422 C1428 0.930 . S
H1423 C1432 0.930 . S
H1424 C1437 0.929 . S
H1425 C1435 0.929 . S
H1426 C1430 0.929 . S
H1427 C1436 0.929 . S
C1428 H1422 0.930 . S
C1428 C1429 1.367 . S
C1428 C1436 1.378 . S
C1429 C1428 1.367 . S
C1429 C1437 1.433 . S
C1430 H1426 0.929 . S
C1430 C1432 1.378 . S
C1430 C1434 1.350 . S
C1431 C1434 1.463 . S
C1431 C1436 1.350 . S
C1431 N1439 1.427 . S
C1432 H1423 0.930 . S
C1432 C1430 1.378 . S
C1432 C1433 1.367 . S
C1433 C1432 1.367 . S
C1433 C1435 1.433 . S
C1434 C1430 1.350 . S
C1434 C1431 1.463 . S
C1434 N1438 1.427 . S
C1435 H1425 0.929 . S
C1435 C1433 1.433 . S
C1435 N1438 1.384 . S
C1436 H1427 0.929 . S
C1436 C1428 1.378 . S
C1436 C1431 1.350 . S
C1437 H1424 0.929 . S
C1437 C1429 1.433 . S
C1437 N1439 1.384 . S
N1438 C1434 1.427 . S
N1438 C1435 1.384 . S
N1439 C1431 1.427 . S
N1439 C1437 1.384 . S
H1440 C1446 0.930 . S
H1441 C1450 0.930 . S
H1442 C1455 0.929 . S
H1443 C1453 0.929 . S
H1444 C1448 0.929 . S
H1445 C1454 0.929 . S
C1446 H1440 0.930 . S
C1446 C1447 1.367 . S
C1446 C1454 1.378 . S
C1447 C1446 1.367 . S
C1447 C1455 1.433 . S
C1448 H1444 0.929 . S
C1448 C1450 1.378 . S
C1448 C1452 1.350 . S
C1449 C1452 1.463 . S
C1449 C1454 1.350 . S
C1449 N1457 1.427 . S
C1450 H1441 0.930 . S
C1450 C1448 1.378 . S
C1450 C1451 1.367 . S
C1451 C1450 1.367 . S
C1451 C1453 1.433 . S
C1452 C1448 1.350 . S
C1452 C1449 1.463 . S
C1452 N1456 1.427 . S
C1453 H1443 0.929 . S
C1453 C1451 1.433 . S
C1453 N1456 1.384 . S
C1454 H1445 0.929 . S
C1454 C1446 1.378 . S
C1454 C1449 1.350 . S
C1455 H1442 0.929 . S
C1455 C1447 1.433 . S
C1455 N1457 1.384 . S
N1456 C1452 1.427 . S
N1456 C1453 1.384 . S
N1457 C1449 1.427 . S
N1457 C1455 1.384 . S
H1458 C1464 0.930 . S
H1459 C1468 0.930 . S
H1460 C1473 0.929 . S
H1461 C1471 0.929 . S
H1462 C1466 0.929 . S
H1463 C1472 0.929 . S
C1464 H1458 0.930 . S
C1464 C1465 1.367 . S
C1464 C1472 1.378 . S
C1465 C1464 1.367 . S
C1465 C1473 1.433 . S
C1466 H1462 0.929 . S
C1466 C1468 1.378 . S
C1466 C1470 1.350 . S
C1467 C1470 1.463 . S
C1467 C1472 1.350 . S
C1467 N1475 1.427 . S
C1468 H1459 0.930 . S
C1468 C1466 1.378 . S
C1468 C1469 1.367 . S
C1469 C1468 1.367 . S
C1469 C1471 1.433 . S
C1470 C1466 1.350 . S
C1470 C1467 1.463 . S
C1470 N1474 1.427 . S
C1471 H1461 0.929 . S
C1471 C1469 1.433 . S
C1471 N1474 1.384 . S
C1472 H1463 0.929 . S
C1472 C1464 1.378 . S
C1472 C1467 1.350 . S
C1473 H1460 0.929 . S
C1473 C1465 1.433 . S
C1473 N1475 1.384 . S
N1474 C1470 1.427 . S
N1474 C1471 1.384 . S
N1475 C1467 1.427 . S
N1475 C1473 1.384 . S
H1476 C1482 0.930 . S
H1477 C1486 0.930 1_655 S
H1478 C1491 0.929 1_655 S
H1479 C1489 0.929 . S
H1480 C1484 0.929 1_655 S
H1481 C1490 0.929 . S
C1482 H1476 0.930 . S
C1482 C1483 1.367 . S
C1482 C1490 1.378 . S
C1483 C1482 1.367 . S
C1483 C1491 1.433 . S
C1484 H1480 0.929 1_455 S
C1484 C1486 1.378 . S
C1484 C1488 1.350 . S
C1485 C1488 1.463 . S
C1485 C1490 1.350 . S
C1485 N1493 1.427 . S
C1486 H1477 0.930 1_455 S
C1486 C1484 1.378 . S
C1486 C1487 1.367 . S
C1487 C1486 1.367 . S
C1487 C1489 1.433 . S
C1488 C1484 1.350 . S
C1488 C1485 1.463 . S
C1488 N1492 1.427 . S
C1489 H1479 0.929 . S
C1489 C1487 1.433 . S
C1489 N1492 1.384 . S
C1490 H1481 0.929 . S
C1490 C1482 1.378 . S
C1490 C1485 1.350 . S
C1491 H1478 0.929 1_455 S
C1491 C1483 1.433 . S
C1491 N1493 1.384 . S
N1492 C1488 1.427 . S
N1492 C1489 1.384 . S
N1493 C1485 1.427 . S
N1493 C1491 1.384 . S
H1494 C1500 0.930 . S
H1495 C1504 0.930 . S
H1496 C1509 0.929 . S
H1497 C1507 0.929 . S
H1498 C1502 0.929 . S
H1499 C1508 0.929 . S
C1500 H1494 0.930 . S
C1500 C1501 1.367 . S
C1500 C1508 1.378 . S
C1501 C1500 1.367 . S
C1501 C1509 1.433 . S
C1502 H1498 0.929 . S
C1502 C1504 1.378 . S
C1502 C1506 1.350 . S
C1503 C1506 1.463 . S
C1503 C1508 1.350 . S
C1503 N1511 1.427 . S
C1504 H1495 0.930 . S
C1504 C1502 1.378 . S
C1504 C1505 1.367 . S
C1505 C1504 1.367 . S
C1505 C1507 1.433 . S
C1506 C1502 1.350 . S
C1506 C1503 1.463 . S
C1506 N1510 1.427 . S
C1507 H1497 0.929 . S
C1507 C1505 1.433 . S
C1507 N1510 1.384 . S
C1508 H1499 0.929 . S
C1508 C1500 1.378 . S
C1508 C1503 1.350 . S
C1509 H1496 0.929 . S
C1509 C1501 1.433 . S
C1509 N1511 1.384 . S
N1510 C1506 1.427 . S
N1510 C1507 1.384 . S
N1511 C1503 1.427 . S
N1511 C1509 1.384 . S
H1512 C1518 0.930 . S
H1513 C1522 0.930 . S
H1514 C1527 0.929 . S
H1515 C1525 0.929 . S
H1516 C1520 0.929 . S
H1517 C1526 0.929 . S
C1518 H1512 0.930 . S
C1518 C1519 1.367 . S
C1518 C1526 1.378 . S
C1519 C1518 1.367 . S
C1519 C1527 1.433 1_565 S
C1520 H1516 0.929 . S
C1520 C1522 1.378 . S
C1520 C1524 1.350 1_545 S
C1521 C1524 1.463 . S
C1521 C1526 1.350 . S
C1521 N1529 1.427 1_565 S
C1522 H1513 0.930 . S
C1522 C1520 1.378 . S
C1522 C1523 1.367 1_545 S
C1523 C1522 1.367 1_565 S
C1523 C1525 1.433 . S
C1524 C1520 1.350 1_565 S
C1524 C1521 1.463 . S
C1524 N1528 1.427 . S
C1525 H1515 0.929 . S
C1525 C1523 1.433 . S
C1525 N1528 1.384 . S
C1526 H1517 0.929 . S
C1526 C1518 1.378 . S
C1526 C1521 1.350 . S
C1527 H1514 0.929 . S
C1527 C1519 1.433 1_545 S
C1527 N1529 1.384 . S
N1528 C1524 1.427 . S
N1528 C1525 1.384 . S
N1529 C1521 1.427 1_545 S
N1529 C1527 1.384 . S
H1530 C1536 0.930 . S
H1531 C1540 0.930 . S
H1532 C1545 0.929 . S
H1533 C1543 0.929 . S
H1534 C1538 0.929 . S
H1535 C1544 0.929 . S
C1536 H1530 0.930 . S
C1536 C1537 1.367 . S
C1536 C1544 1.378 . S
C1537 C1536 1.367 . S
C1537 C1545 1.433 1_565 S
C1538 H1534 0.929 . S
C1538 C1540 1.378 . S
C1538 C1542 1.350 1_545 S
C1539 C1542 1.463 . S
C1539 C1544 1.350 . S
C1539 N1547 1.427 1_565 S
C1540 H1531 0.930 . S
C1540 C1538 1.378 . S
C1540 C1541 1.371 . S
C1541 C1540 1.371 . S
C1541 C1543 1.424 1_545 S
C1542 C1538 1.350 1_565 S
C1542 C1539 1.463 . S
C1542 N1546 1.427 . S
C1543 H1533 0.929 . S
C1543 C1541 1.424 1_565 S
C1543 N1546 1.384 . S
C1544 H1535 0.929 . S
C1544 C1536 1.378 . S
C1544 C1539 1.350 . S
C1545 H1532 0.929 . S
C1545 C1537 1.433 1_545 S
C1545 N1547 1.384 . S
N1546 C1542 1.427 . S
N1546 C1543 1.384 . S
N1547 C1539 1.427 1_545 S
N1547 C1545 1.384 . S
H1548 C1554 0.930 . S
H1549 C1558 0.930 1_655 S
H1550 C1563 0.929 . S
H1551 C1561 0.929 . S
H1552 C1556 0.927 . S
H1553 C1562 0.929 . S
C1554 H1548 0.930 . S
C1554 C1555 1.367 . S
C1554 C1562 1.378 . S
C1555 C1554 1.367 . S
C1555 C1563 1.433 . S
C1556 H1552 0.927 . S
C1556 C1558 1.378 . S
C1556 C1560 1.350 . S
C1557 C1560 1.463 . S
C1557 C1562 1.350 . S
C1557 N1565 1.427 . S
C1558 H1549 0.930 1_455 S
C1558 C1556 1.378 . S
C1558 C1559 1.367 . S
C1559 C1558 1.367 . S
C1559 C1561 1.433 . S
C1560 C1556 1.350 . S
C1560 C1557 1.463 . S
C1560 N1564 1.427 . S
C1561 H1551 0.929 . S
C1561 C1559 1.433 . S
C1561 N1564 1.384 . S
C1562 H1553 0.929 . S
C1562 C1554 1.378 . S
C1562 C1557 1.350 . S
C1563 H1550 0.929 . S
C1563 C1555 1.433 . S
C1563 N1565 1.384 . S
N1564 C1560 1.427 . S
N1564 C1561 1.384 . S
N1565 C1557 1.427 . S
N1565 C1563 1.384 . S
H1566 C1572 0.930 . S
H1567 C1576 0.930 . S
H1568 C1581 0.929 . S
H1569 C1579 0.929 . S
H1570 C1574 0.929 . S
H1571 C1580 0.929 . S
C1572 H1566 0.930 . S
C1572 C1573 1.367 . S
C1572 C1580 1.378 . S
C1573 C1572 1.367 . S
C1573 C1581 1.433 . S
C1574 H1570 0.929 . S
C1574 C1576 1.378 . S
C1574 C1578 1.350 . S
C1575 C1578 1.463 . S
C1575 C1580 1.350 . S
C1575 N1583 1.427 . S
C1576 H1567 0.930 . S
C1576 C1574 1.378 . S
C1576 C1577 1.367 . S
C1577 C1576 1.367 . S
C1577 C1579 1.433 . S
C1578 C1574 1.350 . S
C1578 C1575 1.463 . S
C1578 N1582 1.427 . S
C1579 H1569 0.929 . S
C1579 C1577 1.433 . S
C1579 N1582 1.384 . S
C1580 H1571 0.929 . S
C1580 C1572 1.378 . S
C1580 C1575 1.350 . S
C1581 H1568 0.929 . S
C1581 C1573 1.433 . S
C1581 N1583 1.384 . S
N1582 C1578 1.427 . S
N1582 C1579 1.384 . S
N1583 C1575 1.427 . S
N1583 C1581 1.384 . S
H1584 C1590 0.930 . S
H1585 C1594 0.930 . S
H1586 C1599 0.929 . S
H1587 C1597 0.929 . S
H1588 C1592 0.929 . S
H1589 C1598 0.929 . S
C1590 H1584 0.930 . S
C1590 C1591 1.367 . S
C1590 C1598 1.378 . S
C1591 C1590 1.367 . S
C1591 C1599 1.433 . S
C1592 H1588 0.929 . S
C1592 C1594 1.378 . S
C1592 C1596 1.350 . S
C1593 C1596 1.463 . S
C1593 C1598 1.350 . S
C1593 N1601 1.427 . S
C1594 H1585 0.930 . S
C1594 C1592 1.378 . S
C1594 C1595 1.367 . S
C1595 C1594 1.367 . S
C1595 C1597 1.433 . S
C1596 C1592 1.350 . S
C1596 C1593 1.463 . S
C1596 N1600 1.427 . S
C1597 H1587 0.929 . S
C1597 C1595 1.433 . S
C1597 N1600 1.384 . S
C1598 H1589 0.929 . S
C1598 C1590 1.378 . S
C1598 C1593 1.350 . S
C1599 H1586 0.929 . S
C1599 C1591 1.433 . S
C1599 N1601 1.384 . S
N1600 C1596 1.427 . S
N1600 C1597 1.384 . S
N1601 C1593 1.427 . S
N1601 C1599 1.384 . S
H1602 C1608 0.930 . S
H1603 C1612 0.930 . S
H1604 C1617 0.929 . S
H1605 C1615 0.929 . S
H1606 C1610 0.929 . S
H1607 C1616 0.929 . S
C1608 H1602 0.930 . S
C1608 C1609 1.367 . S
C1608 C1616 1.378 . S
C1609 C1608 1.367 . S
C1609 C1617 1.433 . S
C1610 H1606 0.929 . S
C1610 C1612 1.378 . S
C1610 C1614 1.350 . S
C1611 C1614 1.463 . S
C1611 C1616 1.350 . S
C1611 N1619 1.427 . S
C1612 H1603 0.930 . S
C1612 C1610 1.378 . S
C1612 C1613 1.367 . S
C1613 C1612 1.367 . S
C1613 C1615 1.433 . S
C1614 C1610 1.350 . S
C1614 C1611 1.463 . S
C1614 N1618 1.427 . S
C1615 H1605 0.929 . S
C1615 C1613 1.433 . S
C1615 N1618 1.384 . S
C1616 H1607 0.929 . S
C1616 C1608 1.378 . S
C1616 C1611 1.350 . S
C1617 H1604 0.929 . S
C1617 C1609 1.433 . S
C1617 N1619 1.384 . S
N1618 C1614 1.427 . S
N1618 C1615 1.384 . S
N1619 C1611 1.427 . S
N1619 C1617 1.384 . S
H1620 C1626 0.930 . S
H1621 C1630 0.930 . S
H1622 C1635 0.929 . S
H1623 C1633 0.929 . S
H1624 C1628 0.929 . S
H1625 C1634 0.929 . S
C1626 H1620 0.930 . S
C1626 C1627 1.367 . S
C1626 C1634 1.378 . S
C1627 C1626 1.367 . S
C1627 C1635 1.433 . S
C1628 H1624 0.929 . S
C1628 C1630 1.378 . S
C1628 C1632 1.350 . S
C1629 C1632 1.463 . S
C1629 C1634 1.350 . S
C1629 N1637 1.427 . S
C1630 H1621 0.930 . S
C1630 C1628 1.378 . S
C1630 C1631 1.367 . S
C1631 C1630 1.367 . S
C1631 C1633 1.433 . S
C1632 C1628 1.350 . S
C1632 C1629 1.463 . S
C1632 N1636 1.427 . S
C1633 H1623 0.929 . S
C1633 C1631 1.433 . S
C1633 N1636 1.384 . S
C1634 H1625 0.929 . S
C1634 C1626 1.378 . S
C1634 C1629 1.350 . S
C1635 H1622 0.929 . S
C1635 C1627 1.433 . S
C1635 N1637 1.384 . S
N1636 C1632 1.427 . S
N1636 C1633 1.384 . S
N1637 C1629 1.427 . S
N1637 C1635 1.384 . S
H1638 C1644 0.930 1_565 S
H1639 C1648 0.930 . S
H1640 C1653 0.929 . S
H1641 C1651 0.891 1_565 S
H1642 C1646 0.929 . S
H1643 C1652 0.929 1_565 S
C1644 H1638 0.930 1_545 S
C1644 C1645 1.367 . S
C1644 C1652 1.378 . S
C1645 C1644 1.367 . S
C1645 C1653 1.433 . S
C1646 H1642 0.929 . S
C1646 C1648 1.378 . S
C1646 C1650 1.350 . S
C1647 C1650 1.463 . S
C1647 C1652 1.350 . S
C1647 N1655 1.427 . S
C1648 H1639 0.930 . S
C1648 C1646 1.378 . S
C1648 C1649 1.367 . S
C1649 C1648 1.367 . S
C1649 C1651 1.449 . S
C1650 C1646 1.350 . S
C1650 C1647 1.463 . S
C1650 N1654 1.427 . S
C1651 H1641 0.891 1_545 S
C1651 C1649 1.449 . S
C1651 N1654 1.411 . S
C1652 H1643 0.929 1_545 S
C1652 C1644 1.378 . S
C1652 C1647 1.350 . S
C1653 H1640 0.929 . S
C1653 C1645 1.433 . S
C1653 N1655 1.384 . S
N1654 C1650 1.427 . S
N1654 C1651 1.411 . S
N1655 C1647 1.427 . S
N1655 C1653 1.384 . S
H1656 C1662 0.930 . S
H1657 C1666 0.930 . S
H1658 C1671 0.929 . S
H1659 C1669 0.929 . S
H1660 C1664 0.929 . S
H1661 C1670 0.929 . S
C1662 H1656 0.930 . S
C1662 C1663 1.367 . S
C1662 C1670 1.378 . S
C1663 C1662 1.367 . S
C1663 C1671 1.433 1_655 S
C1664 H1660 0.929 . S
C1664 C1666 1.378 . S
C1664 C1668 1.350 1_455 S
C1665 C1668 1.463 . S
C1665 C1670 1.350 . S
C1665 N1673 1.427 1_655 S
C1666 H1657 0.930 . S
C1666 C1664 1.378 . S
C1666 C1667 1.367 1_455 S
C1667 C1666 1.367 1_655 S
C1667 C1669 1.433 . S
C1668 C1664 1.350 1_655 S
C1668 C1665 1.463 . S
C1668 N1672 1.427 . S
C1669 H1659 0.929 . S
C1669 C1667 1.433 . S
C1669 N1672 1.384 . S
C1670 H1661 0.929 . S
C1670 C1662 1.378 . S
C1670 C1665 1.350 . S
C1671 H1658 0.929 . S
C1671 C1663 1.433 1_455 S
C1671 N1673 1.384 . S
N1672 C1668 1.427 . S
N1672 C1669 1.384 . S
N1673 C1665 1.427 1_455 S
N1673 C1671 1.384 . S
H1674 C1680 0.930 . S
H1675 C1684 0.930 . S
H1676 C1689 0.929 . S
H1677 C1687 0.929 . S
H1678 C1682 0.929 . S
H1679 C1688 0.929 . S
C1680 H1674 0.930 . S
C1680 C1681 1.367 . S
C1680 C1688 1.378 . S
C1681 C1680 1.367 . S
C1681 C1689 1.433 . S
C1682 H1678 0.929 . S
C1682 C1684 1.378 . S
C1682 C1686 1.350 . S
C1683 C1686 1.463 . S
C1683 C1688 1.350 . S
C1683 N1691 1.427 . S
C1684 H1675 0.930 . S
C1684 C1682 1.378 . S
C1684 C1685 1.367 . S
C1685 C1684 1.367 . S
C1685 C1687 1.433 . S
C1686 C1682 1.350 . S
C1686 C1683 1.463 . S
C1686 N1690 1.427 . S
C1687 H1677 0.929 . S
C1687 C1685 1.433 . S
C1687 N1690 1.384 . S
C1688 H1679 0.929 . S
C1688 C1680 1.378 . S
C1688 C1683 1.350 . S
C1689 H1676 0.929 . S
C1689 C1681 1.433 . S
C1689 N1691 1.384 . S
N1690 C1686 1.427 . S
N1690 C1687 1.384 . S
N1691 C1683 1.427 . S
N1691 C1689 1.384 . S
H1692 C1698 0.930 . S
H1693 C1702 0.930 . S
H1694 C1707 0.929 . S
H1695 C1705 0.929 . S
H1696 C1700 0.929 . S
H1697 C1706 0.929 . S
C1698 H1692 0.930 . S
C1698 C1699 1.367 . S
C1698 C1706 1.378 . S
C1699 C1698 1.367 . S
C1699 C1707 1.433 . S
C1700 H1696 0.929 . S
C1700 C1702 1.378 . S
C1700 C1704 1.350 . S
C1701 C1704 1.463 . S
C1701 C1706 1.350 . S
C1701 N1709 1.427 . S
C1702 H1693 0.930 . S
C1702 C1700 1.378 . S
C1702 C1703 1.367 . S
C1703 C1702 1.367 . S
C1703 C1705 1.433 . S
C1704 C1700 1.350 . S
C1704 C1701 1.463 . S
C1704 N1708 1.427 . S
C1705 H1695 0.929 . S
C1705 C1703 1.433 . S
C1705 N1708 1.384 . S
C1706 H1697 0.929 . S
C1706 C1698 1.378 . S
C1706 C1701 1.350 . S
C1707 H1694 0.929 . S
C1707 C1699 1.433 . S
C1707 N1709 1.384 . S
N1708 C1704 1.427 . S
N1708 C1705 1.384 . S
N1709 C1701 1.427 . S
N1709 C1707 1.384 . S
H1710 C1716 0.930 . S
H1711 C1720 0.930 . S
H1712 C1725 0.929 . S
H1713 C1723 0.929 . S
H1714 C1718 0.929 . S
H1715 C1724 0.929 . S
C1716 H1710 0.930 . S
C1716 C1717 1.367 . S
C1716 C1724 1.378 . S
C1717 C1716 1.367 . S
C1717 C1725 1.433 . S
C1718 H1714 0.929 . S
C1718 C1720 1.378 . S
C1718 C1722 1.350 . S
C1719 C1722 1.463 . S
C1719 C1724 1.350 . S
C1719 N1727 1.427 . S
C1720 H1711 0.930 . S
C1720 C1718 1.378 . S
C1720 C1721 1.367 . S
C1721 C1720 1.367 . S
C1721 C1723 1.433 . S
C1722 C1718 1.350 . S
C1722 C1719 1.463 . S
C1722 N1726 1.427 . S
C1723 H1713 0.929 . S
C1723 C1721 1.433 . S
C1723 N1726 1.384 . S
C1724 H1715 0.929 . S
C1724 C1716 1.378 . S
C1724 C1719 1.350 . S
C1725 H1712 0.929 . S
C1725 C1717 1.433 . S
C1725 N1727 1.384 . S
N1726 C1722 1.427 . S
N1726 C1723 1.384 . S
N1727 C1719 1.427 . S
N1727 C1725 1.384 . S
H1728 C1734 0.930 . S
H1729 C1738 0.930 . S
H1730 C1743 0.929 . S
H1731 C1741 0.929 . S
H1732 C1736 0.929 . S
H1733 C1742 0.929 . S
C1734 H1728 0.930 . S
C1734 C1735 1.367 . S
C1734 C1742 1.378 . S
C1735 C1734 1.367 . S
C1735 C1743 1.433 . S
C1736 H1732 0.929 . S
C1736 C1738 1.378 . S
C1736 C1740 1.350 . S
C1737 C1740 1.463 . S
C1737 C1742 1.350 . S
C1737 N1745 1.427 . S
C1738 H1729 0.930 . S
C1738 C1736 1.378 . S
C1738 C1739 1.367 . S
C1739 C1738 1.367 . S
C1739 C1741 1.433 . S
C1740 C1736 1.350 . S
C1740 C1737 1.463 . S
C1740 N1744 1.427 . S
C1741 H1731 0.929 . S
C1741 C1739 1.433 . S
C1741 N1744 1.384 . S
C1742 H1733 0.929 . S
C1742 C1734 1.378 . S
C1742 C1737 1.350 . S
C1743 H1730 0.929 . S
C1743 C1735 1.433 . S
C1743 N1745 1.384 . S
N1744 C1740 1.427 . S
N1744 C1741 1.384 . S
N1745 C1737 1.427 . S
N1745 C1743 1.384 . S
H1746 C1752 0.930 . S
H1747 C1756 0.930 . S
H1748 C1761 0.929 . S
H1749 C1759 0.929 . S
H1750 C1754 0.929 . S
H1751 C1760 0.929 . S
C1752 H1746 0.930 . S
C1752 C1753 1.367 . S
C1752 C1760 1.378 . S
C1753 C1752 1.367 . S
C1753 C1761 1.433 . S
C1754 H1750 0.929 . S
C1754 C1756 1.378 . S
C1754 C1758 1.350 . S
C1755 C1758 1.463 . S
C1755 C1760 1.350 . S
C1755 N1763 1.427 . S
C1756 H1747 0.930 . S
C1756 C1754 1.378 . S
C1756 C1757 1.367 . S
C1757 C1756 1.367 . S
C1757 C1759 1.433 . S
C1758 C1754 1.350 . S
C1758 C1755 1.463 . S
C1758 N1762 1.427 . S
C1759 H1749 0.929 . S
C1759 C1757 1.433 . S
C1759 N1762 1.384 . S
C1760 H1751 0.929 . S
C1760 C1752 1.378 . S
C1760 C1755 1.350 . S
C1761 H1748 0.929 . S
C1761 C1753 1.433 . S
C1761 N1763 1.384 . S
N1762 C1758 1.427 . S
N1762 C1759 1.384 . S
N1763 C1755 1.427 . S
N1763 C1761 1.384 . S
H1764 C1770 0.930 . S
H1765 C1774 0.930 . S
H1766 C1779 0.929 . S
H1767 C1777 0.929 . S
H1768 C1772 0.929 . S
H1769 C1778 0.929 . S
C1770 H1764 0.930 . S
C1770 C1771 1.367 . S
C1770 C1778 1.378 . S
C1771 C1770 1.367 . S
C1771 C1779 1.433 . S
C1772 H1768 0.929 . S
C1772 C1774 1.378 . S
C1772 C1776 1.350 . S
C1773 C1776 1.463 . S
C1773 C1778 1.350 . S
C1773 N1781 1.427 . S
C1774 H1765 0.930 . S
C1774 C1772 1.378 . S
C1774 C1775 1.367 . S
C1775 C1774 1.367 . S
C1775 C1777 1.433 . S
C1776 C1772 1.350 . S
C1776 C1773 1.463 . S
C1776 N1780 1.427 . S
C1777 H1767 0.929 . S
C1777 C1775 1.433 . S
C1777 N1780 1.384 . S
C1778 H1769 0.929 . S
C1778 C1770 1.378 . S
C1778 C1773 1.350 . S
C1779 H1766 0.929 . S
C1779 C1771 1.433 . S
C1779 N1781 1.384 . S
N1780 C1776 1.427 . S
N1780 C1777 1.384 . S
N1781 C1773 1.427 . S
N1781 C1779 1.384 . S
H1782 C1788 0.930 . S
H1783 C1792 0.930 . S
H1784 C1797 0.929 . S
H1785 C1795 0.929 . S
H1786 C1790 0.929 . S
H1787 C1796 0.929 . S
C1788 H1782 0.930 . S
C1788 C1789 1.367 . S
C1788 C1796 1.378 . S
C1789 C1788 1.367 . S
C1789 C1797 1.433 . S
C1790 H1786 0.929 . S
C1790 C1792 1.378 . S
C1790 C1794 1.350 . S
C1791 C1794 1.463 . S
C1791 C1796 1.350 . S
C1791 N1799 1.427 . S
C1792 H1783 0.930 . S
C1792 C1790 1.378 . S
C1792 C1793 1.367 . S
C1793 C1792 1.367 . S
C1793 C1795 1.433 . S
C1794 C1790 1.350 . S
C1794 C1791 1.463 . S
C1794 N1798 1.427 . S
C1795 H1785 0.929 . S
C1795 C1793 1.433 . S
C1795 N1798 1.384 . S
C1796 H1787 0.929 . S
C1796 C1788 1.378 . S
C1796 C1791 1.350 . S
C1797 H1784 0.929 . S
C1797 C1789 1.433 . S
C1797 N1799 1.384 . S
N1798 C1794 1.427 . S
N1798 C1795 1.384 . S
N1799 C1791 1.427 . S
N1799 C1797 1.384 . S
H1800 C1806 0.930 . S
H1801 C1810 0.930 . S
H1802 C1815 0.929 . S
H1803 C1813 0.929 . S
H1804 C1808 0.923 . S
H1805 C1814 0.929 . S
C1806 H1800 0.930 . S
C1806 C1807 1.367 . S
C1806 C1814 1.378 . S
C1807 C1806 1.367 . S
C1807 C1815 1.433 . S
C1808 H1804 0.923 . S
C1808 C1810 1.387 . S
C1808 C1812 1.347 1_455 S
C1809 C1812 1.463 . S
C1809 C1814 1.350 . S
C1809 N1817 1.427 . S
C1810 H1801 0.930 . S
C1810 C1808 1.387 . S
C1810 C1811 1.370 1_455 S
C1811 C1810 1.370 1_655 S
C1811 C1813 1.435 . S
C1812 C1808 1.347 1_655 S
C1812 C1809 1.463 . S
C1812 N1816 1.427 . S
C1813 H1803 0.929 . S
C1813 C1811 1.435 . S
C1813 N1816 1.384 . S
C1814 H1805 0.929 . S
C1814 C1806 1.378 . S
C1814 C1809 1.350 . S
C1815 H1802 0.929 . S
C1815 C1807 1.433 . S
C1815 N1817 1.384 . S
N1816 C1812 1.427 . S
N1816 C1813 1.384 . S
N1817 C1809 1.427 . S
N1817 C1815 1.384 . S
H1818 C1824 0.930 . S
H1819 C1828 0.930 . S
H1820 C1833 0.929 . S
H1821 C1831 0.929 . S
H1822 C1826 0.929 . S
H1823 C1832 0.929 . S
C1824 H1818 0.930 . S
C1824 C1825 1.367 . S
C1824 C1832 1.378 . S
C1825 C1824 1.367 . S
C1825 C1833 1.433 . S
C1826 H1822 0.929 . S
C1826 C1828 1.378 . S
C1826 C1830 1.350 . S
C1827 C1830 1.463 . S
C1827 C1832 1.350 . S
C1827 N1835 1.427 . S
C1828 H1819 0.930 . S
C1828 C1826 1.378 . S
C1828 C1829 1.367 . S
C1829 C1828 1.367 . S
C1829 C1831 1.433 . S
C1830 C1826 1.350 . S
C1830 C1827 1.463 . S
C1830 N1834 1.427 . S
C1831 H1821 0.929 . S
C1831 C1829 1.433 . S
C1831 N1834 1.384 . S
C1832 H1823 0.929 . S
C1832 C1824 1.378 . S
C1832 C1827 1.350 . S
C1833 H1820 0.929 . S
C1833 C1825 1.433 . S
C1833 N1835 1.384 . S
N1834 C1830 1.427 . S
N1834 C1831 1.384 . S
N1835 C1827 1.427 . S
N1835 C1833 1.384 . S
H1836 C1842 0.930 1_565 S
H1837 C1846 0.930 . S
H1838 C1851 0.929 . S
H1839 C1849 0.929 . S
H1840 C1844 0.929 . S
H1841 C1850 0.929 1_565 S
C1842 H1836 0.930 1_545 S
C1842 C1843 1.367 . S
C1842 C1850 1.378 . S
C1843 C1842 1.367 . S
C1843 C1851 1.433 . S
C1844 H1840 0.929 . S
C1844 C1846 1.378 . S
C1844 C1848 1.350 . S
C1845 C1848 1.463 . S
C1845 C1850 1.350 . S
C1845 N1853 1.427 . S
C1846 H1837 0.930 . S
C1846 C1844 1.378 . S
C1846 C1847 1.367 . S
C1847 C1846 1.367 . S
C1847 C1849 1.433 1_545 S
C1848 C1844 1.350 . S
C1848 C1845 1.463 . S
C1848 N1852 1.427 1_545 S
C1849 H1839 0.929 . S
C1849 C1847 1.433 1_565 S
C1849 N1852 1.383 . S
C1850 H1841 0.929 1_545 S
C1850 C1842 1.378 . S
C1850 C1845 1.350 . S
C1851 H1838 0.929 . S
C1851 C1843 1.433 . S
C1851 N1853 1.384 . S
N1852 C1848 1.427 1_565 S
N1852 C1849 1.383 . S
N1853 C1845 1.427 . S
N1853 C1851 1.384 . S
C565 C10 1.634 . S
C569 C403 1.614 . S
C583 C23 1.623 . S
C587 C428 1.606 . S
C605 C439 1.608 . S
C601 C29 1.630 . S
C619 C30 1.633 . S
C623 C464 1.617 . S
C637 C5 1.638 . S
C641 C482 1.629 . S
C655 C18 1.628 . S
C659 C493 1.612 . S
C673 C49 1.621 . S
C677 C475 1.594 . S
C695 C500 1.601 . S
C691 C62 1.616 . S
C713 C457 1.603 . S
C709 C70 1.617 . S
C727 C75 1.621 . S
C731 C446 1.587 . S
C749 C410 1.610 . S
C745 C44 1.623 . S
C763 C57 1.620 . S
C767 C421 1.607 . S
C781 C88 1.633 . S
C785 C511 1.612 . S
C799 C101 1.622 . S
C803 C536 1.604 . S
C821 C547 1.608 . S
C817 C107 1.626 . S
C835 C108 1.629 . S
C839 C248 1.610 . S
C853 C83 1.637 . S
C857 C266 1.625 . S
C871 C96 1.629 . S
C875 C277 1.612 . S
C889 C127 1.620 . S
C893 C259 1.600 . S
C907 C140 1.614 . S
C911 C284 1.599 . S
C929 C241 1.602 . S
C925 C146 1.617 . S
C947 C554 1.608 . S
C943 C147 1.622 . S
C965 C518 1.612 . S
C961 C122 1.625 . S
C983 C529 1.599 . S
C979 C135 1.615 . S
C997 C160 1.633 . S
C1001 C295 1.612 . S
C1015 C173 1.623 . S
C1019 C320 1.606 . S
C1033 C185 1.628 . S
C1037 C331 1.608 . S
C1051 C186 1.632 . S
C1055 C356 1.617 . S
C1073 C374 1.619 . S
C1069 C159 1.634 . S
C1091 C385 1.605 . S
C1087 C172 1.626 . S
C1109 C367 1.602 . S
C1105 C205 1.621 . S
C1127 C392 1.598 . S
C1123 C218 1.614 . S
C1141 C224 1.617 . S
C1145 C349 1.603 . S
C1163 C338 1.604 . S
C1159 C225 1.621 . S
C1177 C200 1.625 . S
C1181 C302 1.614 . S
C1199 C313 1.600 . S
C1195 C213 1.616 . S
C1217 C250 1.439 . S
C1213 C4 1.509 . S
C1231 C17 1.500 . S
C1235 C268 1.436 . S
C1253 C278 1.432 . S
C1249 C31 1.507 . S
C1271 C296 1.426 . S
C1267 C36 1.502 . S
C1289 C322 1.431 . S
C1285 C3 1.513 . S
C1307 C332 1.439 . S
C1303 C16 1.505 . S
C1321 C43 1.510 . S
C1325 C340 1.442 . S
C1339 C56 1.504 . S
C1343 C304 1.419 . S
C1357 C68 1.512 . S
C1361 C314 1.434 . S
C1375 C69 1.503 . S
C1379 C260 1.440 . S
C1397 C286 1.430 . S
C1393 C42 1.517 . S
C1411 C55 1.512 . S
C1415 C242 1.440 . S
C1433 C358 1.436 . S
C1429 C82 1.509 . S
C1447 C95 1.499 . S
C1451 C376 1.436 . S
C1465 C109 1.509 . S
C1469 C386 1.448 . S
C1487 C404 1.427 . S
C1483 C114 1.499 . S
C1501 C81 1.513 . S
C1505 C430 1.434 . S
C1519 C94 1.505 . S
C1523 C440 1.440 . S
C1537 C121 1.508 . S
C1541 C448 1.447 1_545 S
C1555 C134 1.502 . S
C1559 C412 1.420 . S
C1577 C422 1.449 . S
C1573 C148 1.510 . S
C1591 C153 1.504 . S
C1595 C368 1.444 . S
C1609 C120 1.518 . S
C1613 C394 1.432 . S
C1631 C350 1.435 . S
C1627 C133 1.509 . S
C1649 C466 1.442 . S
C1645 C166 1.508 . S
C1663 C179 1.498 . S
C1667 C484 1.421 . S
C1681 C187 1.507 . S
C1685 C494 1.447 . S
C1703 C512 1.431 . S
C1699 C192 1.498 . S
C1721 C538 1.433 . S
C1717 C161 1.515 . S
C1735 C174 1.509 . S
C1739 C548 1.434 . S
C1753 C199 1.512 . S
C1757 C556 1.436 . S
C1771 C212 1.501 . S
C1775 C520 1.434 . S
C1793 C530 1.449 . S
C1789 C226 1.511 . S
C1811 C476 1.402 1_655 S
C1807 C231 1.501 . S
C1829 C502 1.447 . S
C1825 C198 1.516 . S
C1843 C211 1.511 . S
C1847 C458 1.446 . S
