# Generated by pormake.
# Topology anh, (6,3)-cn, num edge types: 1
# Building blocks:
#     Node 0, Type 0, BuildingBlock: BETDAH_clean_sbu_0, # of connection points: 6
#     Node 1, Type 0, BuildingBlock: BETDAH_clean_sbu_0, # of connection points: 6
#     Node 2, Type 0, BuildingBlock: BETDAH_clean_sbu_0, # of connection points: 6
#     Node 3, Type 1, BuildingBlock: MIDCAF_clean_linker_0, # of connection points: 3
#     Node 4, Type 1, BuildingBlock: MIDCAF_clean_linker_0, # of connection points: 3
#     Node 5, Type 1, BuildingBlock: MIDCAF_clean_linker_0, # of connection points: 3
#     Node 6, Type 1, BuildingBlock: MIDCAF_clean_linker_0, # of connection points: 3
#     Node 7, Type 1, BuildingBlock: MIDCAF_clean_linker_0, # of connection points: 3
#     Node 8, Type 1, BuildingBlock: MIDCAF_clean_linker_0, # of connection points: 3
#     Edge 9, Type (0, 1), BuildingBlock: TEMPAE_clean_linker_10, # of connection points: 2
#     Edge 10, Type (0, 1), BuildingBlock: TEMPAE_clean_linker_10, # of connection points: 2
#     Edge 11, Type (0, 1), BuildingBlock: TEMPAE_clean_linker_10, # of connection points: 2
#     Edge 12, Type (0, 1), BuildingBlock: TEMPAE_clean_linker_10, # of connection points: 2
#     Edge 13, Type (0, 1), BuildingBlock: TEMPAE_clean_linker_10, # of connection points: 2
#     Edge 14, Type (0, 1), BuildingBlock: TEMPAE_clean_linker_10, # of connection points: 2
#     Edge 15, Type (0, 1), BuildingBlock: TEMPAE_clean_linker_10, # of connection points: 2
#     Edge 16, Type (0, 1), BuildingBlock: TEMPAE_clean_linker_10, # of connection points: 2
#     Edge 17, Type (0, 1), BuildingBlock: TEMPAE_clean_linker_10, # of connection points: 2
#     Edge 18, Type (0, 1), BuildingBlock: TEMPAE_clean_linker_10, # of connection points: 2
#     Edge 19, Type (0, 1), BuildingBlock: TEMPAE_clean_linker_10, # of connection points: 2
#     Edge 20, Type (0, 1), BuildingBlock: TEMPAE_clean_linker_10, # of connection points: 2
#     Edge 21, Type (0, 1), BuildingBlock: TEMPAE_clean_linker_10, # of connection points: 2
#     Edge 22, Type (0, 1), BuildingBlock: TEMPAE_clean_linker_10, # of connection points: 2
#     Edge 23, Type (0, 1), BuildingBlock: TEMPAE_clean_linker_10, # of connection points: 2
#     Edge 24, Type (0, 1), BuildingBlock: TEMPAE_clean_linker_10, # of connection points: 2
#     Edge 25, Type (0, 1), BuildingBlock: TEMPAE_clean_linker_10, # of connection points: 2
#     Edge 26, Type (0, 1), BuildingBlock: TEMPAE_clean_linker_10, # of connection points: 2
# Relax obj value: 0.182
# Max RMSD: 0.211
# Mean RMSD: 0.157
data_MOF--net-anh--node1-BETDAH_clean_sbu_0--node2-MIDCAF_clean_linker_0--edge1-TEMPAE_clean_linker_10
_symmetry_space_group_name_H-M    P1
_symmetry_Int_Tables_number       1
_symmetry_cell_setting            triclinic
loop_
_symmetry_equiv_pos_as_xyz
'x, y, z'
_cell_length_a     37.988886
_cell_length_b     44.131015
_cell_length_c     67.177159
_cell_angle_alpha  92.594139
_cell_angle_beta   89.38463
_cell_angle_gamma 128.67059
loop_
_atom_site_label
_atom_site_type_symbol
_atom_site_fract_x
_atom_site_fract_y
_atom_site_fract_z
_atom_type_partial_charge
Ho0 Ho 0.09296 0.49574 0.15524 0.0
Ho1 Ho 0.04562 0.52758 0.1573 0.0
C2 C 0.15043 0.59049 0.15652 0.0
C3 C 0.15429 0.48951 0.15289 0.0
C4 C 0.2005 0.52235 0.15936 0.0
C5 C 0.23006 0.55179 0.14628 0.0
C6 C 0.27522 0.5803 0.15196 0.0
C7 C 0.29095 0.57586 0.16951 0.0
C8 C 0.26003 0.55551 0.18466 0.0
C9 C 0.2148 0.52668 0.17928 0.0
C10 C 0.06535 0.49772 0.19198 0.0
C11 C 0.98851 0.43415 0.15036 0.0
C12 C 0.9998 0.54461 0.17464 0.0
C13 C 0.95104 0.51746 0.17668 0.0
C14 C 0.9326 0.49513 0.19364 0.0
C15 C 0.88678 0.46411 0.19411 0.0
C16 C 0.85885 0.45545 0.17776 0.0
C17 C 0.8776 0.47747 0.16072 0.0
C18 C 0.92311 0.50835 0.16026 0.0
C19 C 0.05432 0.51932 0.11756 0.0
O20 O 0.15126 0.56091 0.15561 0.0
O21 O 0.11246 0.585 0.1576 0.0
O22 O 0.12517 0.47379 0.16715 0.0
O23 O 0.13895 0.49413 0.13693 0.0
O24 O 0.05815 0.4673 0.18366 0.0
O25 O 0.08497 0.52492 0.17997 0.0
O26 O 0.98813 0.4626 0.15714 0.0
O27 O 1.02632 0.44076 0.14539 0.0
O28 O 1.01441 0.55486 0.15651 0.0
O29 O 1.02113 0.53537 0.1844 0.0
O30 O 1.03463 0.5326 0.12523 0.0
O31 O 0.06857 0.51063 0.13143 0.0
H32 H 0.21934 0.5513 0.13131 0.0
H33 H 0.29877 0.59873 0.14063 0.0
H34 H 0.27162 0.55455 0.19911 0.0
H35 H 0.19207 0.50639 0.19028 0.0
H36 H 0.95368 0.5013 0.20642 0.0
H37 H 0.87273 0.44814 0.20754 0.0
H38 H 0.85671 0.47248 0.14812 0.0
H39 H 0.93634 0.52475 0.14691 0.0
Ho40 Ho 0.58137 0.99994 0.47874 0.0
Ho41 Ho 0.52524 0.02402 0.47421 0.0
C42 C 0.47176 0.93455 0.47383 0.0
C43 C 0.60931 0.96219 0.48821 0.0
C44 C 0.59056 0.92122 0.48442 0.0
C45 C 0.56122 0.89283 0.49801 0.0
C46 C 0.54669 0.85496 0.49521 0.0
C47 C 0.56159 0.84501 0.4789 0.0
C48 C 0.58857 0.87255 0.4647 0.0
C49 C 0.60287 0.9103 0.4674 0.0
C50 C 0.57311 0.01204 0.44067 0.0
C51 C 0.63452 0.08988 0.47941 0.0
C52 C 0.4949 0.06047 0.4656 0.0
C53 C 0.51222 0.10102 0.46888 0.0
C54 C 0.52336 0.12395 0.45246 0.0
C55 C 0.53703 0.16155 0.45521 0.0
C56 C 0.53936 0.17662 0.47444 0.0
C57 C 0.53083 0.15455 0.49092 0.0
C58 C 0.5174 0.11712 0.48819 0.0
C59 C 0.53601 0.01201 0.51199 0.0
O60 O 0.50967 0.94426 0.48147 0.0
O61 O 0.47054 0.96096 0.46626 0.0
O62 O 0.62372 0.98368 0.47273 0.0
O63 O 0.58721 0.96847 0.50042 0.0
O64 O 0.60919 0.01997 0.44842 0.0
O65 O 0.54154 0.99532 0.45301 0.0
O66 O 0.59654 0.08005 0.47175 0.0
O67 O 0.6361 0.06335 0.48659 0.0
O68 O 0.48265 0.03972 0.48128 0.0
O69 O 0.51739 0.05515 0.45319 0.0
O70 O 0.49805 1.0008 0.50459 0.0
O71 O 0.5664 0.02989 0.49938 0.0
H72 H 0.55082 0.90017 0.5112 0.0
H73 H 0.52637 0.83424 0.50649 0.0
H74 H 0.60051 0.86537 0.45206 0.0
H75 H 0.62499 0.93127 0.45652 0.0
H76 H 0.52034 0.11238 0.43744 0.0
H77 H 0.54358 0.17803 0.44227 0.0
H78 H 0.53333 0.16588 0.50594 0.0
H79 H 0.51009 0.10059 0.5012 0.0
Ho80 Ho 0.62564 0.5772 0.82506 0.0
Ho81 Ho 0.56249 0.49051 0.82797 0.0
C82 C 0.51422 0.53086 0.83053 0.0
C83 C 0.65976 0.64572 0.81452 0.0
C84 C 0.64353 0.66866 0.81666 0.0
C85 C 0.609 0.6608 0.80411 0.0
C86 C 0.594 0.68266 0.80635 0.0
C87 C 0.61342 0.71292 0.82107 0.0
C88 C 0.64704 0.72018 0.83393 0.0
C89 C 0.66194 0.69825 0.83176 0.0
C90 C 0.612 0.55302 0.86179 0.0
C91 C 0.67464 0.53801 0.82795 0.0
C92 C 0.52691 0.42046 0.83681 0.0
C93 C 0.5394 0.39504 0.83266 0.0
C94 C 0.55235 0.38378 0.84835 0.0
C95 C 0.56289 0.35881 0.84472 0.0
C96 C 0.56164 0.3449 0.82516 0.0
C97 C 0.55063 0.35799 0.8094 0.0
C98 C 0.53901 0.38211 0.81312 0.0
C99 C 0.57533 0.51504 0.7909 0.0
O100 O 0.55527 0.56332 0.82635 0.0
O101 O 0.50889 0.49858 0.83372 0.0
O102 O 0.67135 0.6393 0.83111 0.0
O103 O 0.63703 0.61509 0.80213 0.0
O104 O 0.65043 0.58417 0.85633 0.0
O105 O 0.58251 0.5386 0.8482 0.0
O106 O 0.63284 0.5054 0.83068 0.0
O107 O 0.68071 0.57015 0.8235 0.0
O108 O 0.5135 0.42865 0.82158 0.0
O109 O 0.55388 0.45064 0.84902 0.0
O110 O 0.53718 0.48484 0.79704 0.0
O111 O 0.60582 0.52915 0.8041 0.0
H112 H 0.59389 0.63811 0.79238 0.0
H113 H 0.56848 0.67695 0.79606 0.0
H114 H 0.6624 0.74336 0.84541 0.0
H115 H 0.68827 0.70475 0.84178 0.0
H116 H 0.55354 0.39376 0.86356 0.0
H117 H 0.57061 0.34975 0.85751 0.0
H118 H 0.55089 0.34993 0.79401 0.0
H119 H 0.52983 0.39066 0.80058 0.0
C120 C 0.41747 0.8882 0.18943 0.0
C121 C 0.42223 0.87275 0.17189 0.0
C122 C 0.46121 0.89714 0.16058 0.0
C123 C 0.49639 0.9355 0.16767 0.0
H124 H 0.61332 0.07107 0.15762 0.0
H125 H 0.67553 0.13454 0.14455 0.0
H126 H 0.73536 0.17591 0.20363 0.0
H127 H 0.67534 0.11416 0.21649 0.0
H128 H 0.60222 0.0836 0.25293 0.0
H129 H 0.59887 0.08514 0.28911 0.0
H130 H 0.52576 0.9608 0.28767 0.0
H131 H 0.52647 0.95923 0.25151 0.0
H132 H 0.44736 0.93622 0.21037 0.0
H133 H 0.38741 0.87041 0.19821 0.0
H134 H 0.46545 0.88592 0.14689 0.0
H135 H 0.52719 0.95304 0.15937 0.0
N136 N 0.56602 0.01821 0.18666 0.0
N137 N 0.59867 0.05148 0.21772 0.0
N138 N 0.5319 0.98791 0.21668 0.0
C139 C 0.60001 0.05109 0.19749 0.0
C140 C 0.56512 0.02017 0.2274 0.0
C141 C 0.53151 0.98646 0.19644 0.0
C142 C 0.63852 0.08737 0.18821 0.0
C143 C 0.63999 0.09367 0.16773 0.0
C144 C 0.67554 0.12995 0.16025 0.0
C145 C 0.70978 0.16047 0.17319 0.0
C146 C 0.70899 0.15342 0.19336 0.0
C147 C 0.67424 0.11762 0.20071 0.0
C148 C 0.5644 0.02128 0.2494 0.0
C149 C 0.58531 0.05663 0.26041 0.0
C150 C 0.58361 0.05748 0.28121 0.0
C151 C 0.56186 0.02308 0.29155 0.0
C152 C 0.5417 0.98782 0.28039 0.0
C153 C 0.54244 0.98688 0.2596 0.0
C154 C 0.49271 0.94976 0.18608 0.0
C155 C 0.452 0.92606 0.19636 0.0
C156 C 0.56182 0.40959 0.53695 0.0
C157 C 0.56784 0.41053 0.51627 0.0
C158 C 0.57225 0.4395 0.50577 0.0
C159 C 0.57233 0.46791 0.51596 0.0
H160 H 0.53915 0.54471 0.51146 0.0
H161 H 0.5311 0.58861 0.49551 0.0
H162 H 0.60295 0.67212 0.54529 0.0
H163 H 0.60856 0.62732 0.56164 0.0
H164 H 0.58531 0.58447 0.60455 0.0
H165 H 0.58633 0.58602 0.64095 0.0
H166 H 0.57285 0.48132 0.63925 0.0
H167 H 0.57186 0.47948 0.60298 0.0
H168 H 0.55783 0.43639 0.5631 0.0
H169 H 0.55716 0.38698 0.54536 0.0
H170 H 0.57685 0.44082 0.4898 0.0
H171 H 0.57681 0.49042 0.50755 0.0
N172 N 0.57131 0.52538 0.53818 0.0
N173 N 0.5776 0.5566 0.56873 0.0
N174 N 0.57334 0.50136 0.56817 0.0
C175 C 0.57482 0.55436 0.5485 0.0
C176 C 0.57675 0.53009 0.57869 0.0
C177 C 0.57075 0.49884 0.54795 0.0
C178 C 0.57386 0.58238 0.53793 0.0
C179 C 0.55333 0.57254 0.51893 0.0
C180 C 0.54892 0.59781 0.50974 0.0
C181 C 0.56565 0.63369 0.51924 0.0
C182 C 0.58826 0.6442 0.53781 0.0
C183 C 0.59184 0.61866 0.54715 0.0
C184 C 0.57842 0.5318 0.60078 0.0
C185 C 0.58269 0.5618 0.61189 0.0
C186 C 0.58341 0.56282 0.63272 0.0
C187 C 0.57948 0.5337 0.64282 0.0
C188 C 0.57539 0.50385 0.63178 0.0
C189 C 0.57504 0.50297 0.61099 0.0
C190 C 0.56796 0.46772 0.5368 0.0
C191 C 0.56201 0.43787 0.54711 0.0
C192 C 0.9677 0.54521 0.87206 0.0
C193 C 0.94896 0.53614 0.85254 0.0
C194 C 0.97056 0.52784 0.83822 0.0
C195 C 1.00727 0.52758 0.84343 0.0
H196 H 0.17379 0.55679 0.83405 0.0
H197 H 0.23707 0.5568 0.82446 0.0
H198 H 0.22128 0.50105 0.87862 0.0
H199 H 0.15883 0.49916 0.88731 0.0
H200 H 0.1545 0.53985 0.9272 0.0
H201 H 0.15241 0.53654 0.96348 0.0
H202 H 1.02312 0.51178 0.96322 0.0
H203 H 1.02512 0.51513 0.92703 0.0
H204 H 1.01453 0.55186 0.89264 0.0
H205 H 0.95544 0.55342 0.88396 0.0
H206 H 0.95879 0.5208 0.82286 0.0
H207 H 1.02139 0.52033 0.83191 0.0
N208 N 0.09238 0.53224 0.8607 0.0
N209 N 0.12133 0.52937 0.89104 0.0
N210 N 0.06133 0.53106 0.89172 0.0
C211 C 0.12322 0.53035 0.87077 0.0
C212 C 0.09099 0.52955 0.90165 0.0
C213 C 0.06078 0.53274 0.8715 0.0
C214 C 0.15941 0.52782 0.86165 0.0
C215 C 0.18309 0.54371 0.8437 0.0
C216 C 0.22036 0.54414 0.83829 0.0
C217 C 0.23585 0.52862 0.8505 0.0
C218 C 0.21147 0.51257 0.86813 0.0
C219 C 0.17481 0.51194 0.87336 0.0
C220 C 0.08996 0.52775 0.92397 0.0
C221 C 0.12555 0.53368 0.93483 0.0
C222 C 0.12449 0.53198 0.95573 0.0
C223 C 0.08753 0.52375 0.96645 0.0
C224 C 0.05193 0.51772 0.95557 0.0
C225 C 0.05324 0.5199 0.93472 0.0
C226 C 1.02444 0.53553 0.8633 0.0
C227 C 1.00342 0.54473 0.87717 0.0
C228 C 0.17723 0.65142 0.44416 0.0
C229 C 0.19033 0.65581 0.4641 0.0
C230 C 0.16399 0.62379 0.47627 0.0
C231 C 0.12594 0.58741 0.46818 0.0
H232 H 0.98973 0.46381 0.47724 0.0
H233 H 0.92907 0.4008 0.49128 0.0
H234 H 0.89223 0.34615 0.43213 0.0
H235 H 0.95111 0.40707 0.41831 0.0
H236 H 0.98384 0.4485 0.38043 0.0
H237 H 0.98585 0.44695 0.34393 0.0
H238 H 0.10947 0.56485 0.3462 0.0
H239 H 0.10811 0.56685 0.3826 0.0
H240 H 0.13152 0.6141 0.42059 0.0
H241 H 0.19674 0.67571 0.43454 0.0
H242 H 0.17354 0.62664 0.49179 0.0
H243 H 0.10697 0.56285 0.47761 0.0
N244 N 0.04476 0.51193 0.4476 0.0
N245 N 1.01312 0.4773 0.41668 0.0
N246 N 0.07665 0.54231 0.41739 0.0
C247 C 1.01232 0.47797 0.43697 0.0
C248 C 0.04504 0.50913 0.40676 0.0
C249 C 0.07713 0.54449 0.43764 0.0
C250 C 0.97601 0.44093 0.44659 0.0
C251 C 0.96869 0.43827 0.46729 0.0
C252 C 0.93385 0.40227 0.47533 0.0
C253 C 0.90629 0.36833 0.46282 0.0
C254 C 0.91333 0.37142 0.44226 0.0
C255 C 0.94736 0.40684 0.43431 0.0
C256 C 0.04579 0.50783 0.38457 0.0
C257 C 1.01154 0.47414 0.37322 0.0
C258 C 1.01258 0.47316 0.35234 0.0
C259 C 0.04777 0.50581 0.3424 0.0
C260 C 0.08195 0.5394 0.3536 0.0
C261 C 0.08103 0.54043 0.37445 0.0
C262 C 0.11388 0.58281 0.44783 0.0
C263 C 0.13965 0.61576 0.4362 0.0
C264 C 0.56842 0.12504 0.76666 0.0
C265 C 0.57206 0.12868 0.78751 0.0
C266 C 0.57034 0.10104 0.798 0.0
C267 C 0.56646 0.07075 0.78764 0.0
H268 H 0.53238 0.95495 0.79132 0.0
H269 H 0.53256 0.90598 0.8068 0.0
H270 H 0.60557 0.90632 0.75679 0.0
H271 H 0.60253 0.95284 0.74096 0.0
H272 H 0.55017 0.95301 0.69867 0.0
H273 H 0.5479 0.95046 0.66239 0.0
H274 H 0.56932 0.05891 0.66374 0.0
H275 H 0.57021 0.06092 0.69996 0.0
H276 H 0.56158 0.09305 0.74022 0.0
H277 H 0.56904 0.14584 0.75833 0.0
H278 H 0.57296 0.10338 0.81413 0.0
H279 H 0.5662 0.05028 0.79608 0.0
N280 N 0.56332 0.01116 0.76503 0.0
N281 N 0.56299 0.9834 0.7343 0.0
N282 N 0.56098 0.03532 0.73508 0.0
C283 C 0.56398 0.98446 0.75454 0.0
C284 C 0.56125 0.00857 0.72443 0.0
C285 C 0.562 0.03686 0.75536 0.0
C286 C 0.56676 0.95715 0.76481 0.0
C287 C 0.54834 0.94436 0.78371 0.0
C288 C 0.54868 0.91645 0.7926 0.0
C289 C 0.56829 0.90145 0.78291 0.0
C290 C 0.58857 0.91589 0.76441 0.0
C291 C 0.58723 0.94292 0.75537 0.0
C292 C 0.56026 0.00714 0.70231 0.0
C293 C 0.5544 0.97635 0.69126 0.0
C294 C 0.55336 0.97497 0.67041 0.0
C295 C 0.55838 0.00444 0.66009 0.0
C296 C 0.56457 0.03535 0.67116 0.0
C297 C 0.56531 0.03661 0.69199 0.0
C298 C 0.56368 0.06746 0.76664 0.0
C299 C 0.56403 0.0947 0.75633 0.0
C300 C 0.67601 0.4996 0.10974 0.0
C301 C 0.67268 0.50228 0.13047 0.0
C302 C 0.6391 0.50316 0.13843 0.0
C303 C 0.60497 0.49513 0.12605 0.0
H304 H 0.46836 0.4139 0.13072 0.0
H305 H 0.4291 0.4308 0.15064 0.0
H306 H 0.36662 0.43092 0.09733 0.0
H307 H 0.40848 0.4166 0.07711 0.0
H308 H 0.46663 0.44547 0.03652 0.0
H309 H 0.47631 0.45606 0.00069 0.0
H310 H 0.60893 0.48747 0.00522 0.0
H311 H 0.59948 0.47651 0.04046 0.0
H312 H 0.64294 0.48634 0.08151 0.0
H313 H 0.70168 0.49872 0.10333 0.0
H314 H 0.63652 0.50567 0.15441 0.0
H315 H 0.57705 0.49246 0.13267 0.0
N316 N 0.52357 0.4483 0.10246 0.0
N317 N 0.48736 0.43473 0.07157 0.0
N318 N 0.56598 0.47152 0.07375 0.0
C319 C 0.48506 0.43096 0.0916 0.0
C320 C 0.52796 0.45461 0.06261 0.0
C321 C 0.56394 0.46875 0.09365 0.0
C322 C 0.4439 0.41689 0.10235 0.0
C323 C 0.44473 0.41583 0.12324 0.0
C324 C 0.42197 0.42529 0.13474 0.0
C325 C 0.39716 0.43437 0.12532 0.0
C326 C 0.38747 0.42573 0.10475 0.0
C327 C 0.41113 0.41718 0.09319 0.0
C328 C 0.53203 0.45969 0.04115 0.0
C329 C 0.49753 0.45418 0.02975 0.0
C330 C 0.50313 0.46048 0.00941 0.0
C331 C 0.543 0.47187 0.00042 0.0
C332 C 0.57754 0.47787 0.01188 0.0
C333 C 0.57212 0.47179 0.03205 0.0
C334 C 0.60487 0.48697 0.10563 0.0
C335 C 0.64212 0.49203 0.09731 0.0
C336 C 0.36137 0.58296 0.17334 0.0
C337 C 0.31765 0.56286 0.16572 0.0
C338 C 0.38378 0.56721 0.17031 0.0
C339 C 0.36117 0.53085 0.15967 0.0
C340 C 0.3165 0.51022 0.15248 0.0
C341 C 0.29559 0.52661 0.15553 0.0
C342 C 0.43154 0.58967 0.17802 0.0
C343 C 0.29073 0.47112 0.14114 0.0
C344 C 0.40547 0.49456 0.12567 0.0
C345 C 0.39231 0.46168 0.13553 0.0
C346 C 0.40137 0.52118 0.13469 0.0
C347 C 0.38398 0.51473 0.15406 0.0
C348 C 0.37507 0.48394 0.16489 0.0
C349 C 0.37899 0.45736 0.15538 0.0
C350 C 0.41 0.55312 0.12249 0.0
C351 C 0.35668 0.47669 0.18566 0.0
H352 H 0.37773 0.6106 0.18152 0.0
H353 H 0.26127 0.51055 0.15003 0.0
H354 H 0.43671 0.57003 0.18454 0.0
H355 H 0.45498 0.6038 0.16547 0.0
H356 H 0.44052 0.61263 0.18944 0.0
H357 H 0.25564 0.45887 0.13714 0.0
H358 H 0.30815 0.47392 0.12716 0.0
H359 H 0.28906 0.44987 0.15019 0.0
H360 H 0.41799 0.49905 0.11063 0.0
H361 H 0.37002 0.4325 0.16317 0.0
H362 H 0.42632 0.58043 0.13173 0.0
H363 H 0.37732 0.54427 0.11673 0.0
H364 H 0.43152 0.55896 0.10953 0.0
H365 H 0.37455 0.50442 0.19471 0.0
H366 H 0.35968 0.45662 0.19336 0.0
H367 H 0.32047 0.46351 0.18484 0.0
C368 C 0.67898 0.15576 0.46567 0.0
C369 C 0.67507 0.1315 0.47987 0.0
C370 C 0.71688 0.19521 0.4655 0.0
C371 C 0.75161 0.21128 0.48015 0.0
C372 C 0.74711 0.18723 0.49499 0.0
C373 C 0.70918 0.14749 0.49451 0.0
C374 C 0.72038 0.21935 0.44918 0.0
C375 C 0.78246 0.20353 0.5113 0.0
C376 C 0.8672 0.29715 0.46319 0.0
C377 C 0.87035 0.32912 0.47047 0.0
C378 C 0.82971 0.25892 0.467 0.0
C379 C 0.79428 0.2521 0.47862 0.0
C380 C 0.79844 0.2843 0.4871 0.0
C381 C 0.83644 0.32249 0.4829 0.0
C382 C 0.82688 0.2257 0.45757 0.0
C383 C 0.76165 0.27852 0.49964 0.0
H384 H 0.65276 0.14362 0.45429 0.0
H385 H 0.70594 0.12905 0.50575 0.0
H386 H 0.72689 0.24603 0.45568 0.0
H387 H 0.74925 0.22864 0.4396 0.0
H388 H 0.68932 0.20317 0.43964 0.0
H389 H 0.77359 0.18134 0.52199 0.0
H390 H 0.81547 0.21531 0.50475 0.0
H391 H 0.7867 0.22799 0.5196 0.0
H392 H 0.89355 0.30206 0.45379 0.0
H393 H 0.83843 0.34697 0.48849 0.0
H394 H 0.79848 0.20907 0.44652 0.0
H395 H 0.82003 0.20539 0.46903 0.0
H396 H 0.85834 0.23585 0.44988 0.0
H397 H 0.73391 0.27129 0.48973 0.0
H398 H 0.77413 0.30518 0.50884 0.0
H399 H 0.74734 0.25408 0.5096 0.0
C400 C 0.63757 0.77953 0.81971 0.0
C401 C 0.60257 0.73975 0.8213 0.0
C402 C 0.62835 0.80502 0.81633 0.0
C403 C 0.58297 0.79042 0.81502 0.0
C404 C 0.54752 0.75075 0.81825 0.0
C405 C 0.55773 0.72564 0.82103 0.0
C406 C 0.66713 0.84695 0.81263 0.0
C407 C 0.4988 0.73441 0.8176 0.0
C408 C 0.57151 0.86961 0.81235 0.0
C409 C 0.56738 0.87055 0.79167 0.0
C410 C 0.57354 0.84186 0.82039 0.0
C411 C 0.57305 0.81545 0.8074 0.0
C412 C 0.56738 0.8154 0.78662 0.0
C413 C 0.56366 0.84233 0.77909 0.0
C414 C 0.57774 0.8417 0.8427 0.0
C415 C 0.56786 0.7884 0.77215 0.0
H416 H 0.67222 0.79032 0.81979 0.0
H417 H 0.5307 0.69485 0.82245 0.0
H418 H 0.66461 0.85335 0.79716 0.0
H419 H 0.66564 0.86658 0.82282 0.0
H420 H 0.70045 0.85383 0.81476 0.0
H421 H 0.47634 0.70549 0.82418 0.0
H422 H 0.49463 0.75445 0.82568 0.0
H423 H 0.4877 0.73111 0.80189 0.0
H424 H 0.57451 0.89119 0.82228 0.0
H425 H 0.55877 0.84172 0.76318 0.0
H426 H 0.61272 0.85408 0.84686 0.0
H427 H 0.555 0.81153 0.84776 0.0
H428 H 0.56964 0.8591 0.85079 0.0
H429 H 0.60181 0.79608 0.77249 0.0
H430 H 0.55976 0.79012 0.75661 0.0
H431 H 0.54334 0.75789 0.7765 0.0
C432 C 0.7823 0.412 0.16353 0.0
C433 C 0.81033 0.43306 0.18028 0.0
C434 C 0.75209 0.418 0.15753 0.0
C435 C 0.74871 0.44325 0.16951 0.0
C436 C 0.7691 0.45657 0.18869 0.0
C437 C 0.7986 0.44967 0.19429 0.0
C438 C 0.73004 0.4028 0.13707 0.0
C439 C 0.76615 0.48368 0.20175 0.0
C440 C 0.74028 0.51016 0.14118 0.0
C441 C 0.69459 0.49227 0.14319 0.0
C442 C 0.75875 0.4948 0.15004 0.0
C443 C 0.73031 0.46068 0.16087 0.0
C444 C 0.68456 0.44327 0.16342 0.0
C445 C 0.66717 0.45943 0.15457 0.0
C446 C 0.80806 0.51414 0.14712 0.0
C447 C 0.65353 0.40644 0.1745 0.0
H448 H 0.79068 0.39795 0.15311 0.0
H449 H 0.81922 0.46459 0.20771 0.0
H450 H 0.69546 0.39377 0.13707 0.0
H451 H 0.75001 0.42622 0.12641 0.0
H452 H 0.72844 0.37781 0.13161 0.0
H453 H 0.77936 0.48751 0.21711 0.0
H454 H 0.78633 0.51262 0.19518 0.0
H455 H 0.73085 0.47283 0.20255 0.0
H456 H 0.76095 0.53518 0.13207 0.0
H457 H 0.63138 0.44488 0.15553 0.0
H458 H 0.81123 0.49455 0.13784 0.0
H459 H 0.82522 0.5198 0.16167 0.0
H460 H 0.82592 0.54206 0.13964 0.0
H461 H 0.64951 0.38217 0.1661 0.0
H462 H 0.61964 0.39843 0.17653 0.0
H463 H 0.66824 0.40958 0.18936 0.0
C464 C 0.39621 0.87696 0.45973 0.0
C465 C 0.43024 0.89349 0.47443 0.0
C466 C 0.35772 0.83756 0.45989 0.0
C467 C 0.35234 0.81443 0.47551 0.0
C468 C 0.38616 0.83138 0.49068 0.0
C469 C 0.42493 0.87046 0.48979 0.0
C470 C 0.32308 0.82051 0.44316 0.0
C471 C 0.38171 0.80812 0.50772 0.0
C472 C 0.23202 0.72128 0.48188 0.0
C473 C 0.23289 0.69381 0.47112 0.0
C474 C 0.27122 0.7604 0.48423 0.0
C475 C 0.31204 0.77225 0.47553 0.0
C476 C 0.31346 0.74397 0.46566 0.0
C477 C 0.27385 0.70522 0.46349 0.0
C478 C 0.26842 0.78944 0.49517 0.0
C479 C 0.35598 0.75495 0.45615 0.0
H480 H 0.40028 0.89456 0.44778 0.0
H481 H 0.45098 0.88317 0.50131 0.0
H482 H 0.31794 0.7949 0.43586 0.0
H483 H 0.29022 0.8103 0.44922 0.0
H484 H 0.33313 0.84181 0.43169 0.0
H485 H 0.40872 0.82647 0.51929 0.0
H486 H 0.3485 0.7935 0.51479 0.0
H487 H 0.38339 0.78508 0.502 0.0
H488 H 0.2002 0.71262 0.48748 0.0
H489 H 0.27433 0.68407 0.45491 0.0
H490 H 0.27284 0.81004 0.48453 0.0
H491 H 0.29598 0.80674 0.50657 0.0
H492 H 0.23559 0.77522 0.50258 0.0
H493 H 0.36199 0.77052 0.44242 0.0
H494 H 0.35362 0.72905 0.45205 0.0
H495 H 0.38567 0.77482 0.46627 0.0
C496 C 0.55194 0.29108 0.80391 0.0
C497 C 0.56966 0.31575 0.82129 0.0
C498 C 0.55777 0.26296 0.80028 0.0
C499 C 0.57941 0.25727 0.81486 0.0
C500 C 0.59731 0.28154 0.83244 0.0
C501 C 0.59348 0.31117 0.83516 0.0
C502 C 0.53986 0.23872 0.78089 0.0
C503 C 0.62009 0.27595 0.84847 0.0
C504 C 0.54357 0.15555 0.80972 0.0
C505 C 0.5779 0.16174 0.79792 0.0
C506 C 0.5451 0.18691 0.81657 0.0
C507 C 0.58206 0.22517 0.8116 0.0
C508 C 0.61845 0.23162 0.801 0.0
C509 C 0.61565 0.19971 0.79408 0.0
C510 C 0.50572 0.17886 0.82789 0.0
C511 C 0.6587 0.27183 0.79553 0.0
H512 H 0.53238 0.29272 0.79312 0.0
H513 H 0.6091 0.33042 0.84831 0.0
H514 H 0.56678 0.23979 0.77341 0.0
H515 H 0.5121 0.20791 0.78391 0.0
H516 H 0.52699 0.24874 0.77043 0.0
H517 H 0.62961 0.29555 0.86186 0.0
H518 H 0.59739 0.24544 0.85306 0.0
H519 H 0.65093 0.28149 0.84257 0.0
H520 H 0.51434 0.12605 0.81258 0.0
H521 H 0.64222 0.20429 0.78498 0.0
H522 H 0.48658 0.18413 0.81832 0.0
H523 H 0.51782 0.19884 0.84131 0.0
H524 H 0.48235 0.14841 0.83258 0.0
H525 H 0.64931 0.28077 0.78277 0.0
H526 H 0.68766 0.2728 0.79114 0.0
H527 H 0.66965 0.29337 0.80809 0.0
C528 C 0.51502 0.77255 0.47951 0.0
C529 C 0.55721 0.80943 0.47906 0.0
C530 C 0.51197 0.73968 0.48258 0.0
C531 C 0.55192 0.74448 0.48617 0.0
C532 C 0.5945 0.78153 0.48486 0.0
C533 C 0.59656 0.81343 0.48102 0.0
C534 C 0.46616 0.70021 0.48287 0.0
C535 C 0.63789 0.78806 0.48893 0.0
C536 C 0.55019 0.681 0.52262 0.0
C537 C 0.55856 0.65972 0.51028 0.0
C538 C 0.54658 0.7078 0.51481 0.0
C539 C 0.54974 0.71251 0.49401 0.0
C540 C 0.55567 0.68965 0.48128 0.0
C541 C 0.56046 0.66375 0.48959 0.0
C542 C 0.54129 0.73226 0.529 0.0
C543 C 0.55717 0.69266 0.45894 0.0
H544 H 0.48464 0.76962 0.4779 0.0
H545 H 0.6291 0.84212 0.48082 0.0
H546 H 0.46653 0.6781 0.47456 0.0
H547 H 0.4572 0.69126 0.49845 0.0
H548 H 0.43949 0.70025 0.47627 0.0
H549 H 0.66819 0.81863 0.48698 0.0
H550 H 0.6384 0.78062 0.50444 0.0
H551 H 0.64018 0.76882 0.47881 0.0
H552 H 0.54703 0.67713 0.53853 0.0
H553 H 0.56679 0.64739 0.47989 0.0
H554 H 0.50962 0.72738 0.52544 0.0
H555 H 0.56959 0.76355 0.5273 0.0
H556 H 0.54059 0.72561 0.54482 0.0
H557 H 0.52317 0.6805 0.45319 0.0
H558 H 0.56752 0.67652 0.45135 0.0
H559 H 0.58071 0.72342 0.45484 0.0
C560 C 0.76057 0.57259 0.83181 0.0
C561 C 0.71533 0.538 0.83029 0.0
C562 C 0.79805 0.57267 0.83485 0.0
C563 C 0.79176 0.5373 0.8361 0.0
C564 C 0.74618 0.50231 0.83432 0.0
C565 C 0.70931 0.5031 0.83169 0.0
C566 C 0.84479 0.61113 0.83693 0.0
C567 C 0.73603 0.4635 0.83536 0.0
C568 C 0.89463 0.53632 0.82831 0.0
C569 C 0.90802 0.53573 0.84787 0.0
C570 C 0.8576 0.5366 0.8243 0.0
C571 C 0.83203 0.53682 0.84001 0.0
C572 C 0.84505 0.53609 0.85968 0.0
C573 C 0.88145 0.53509 0.86324 0.0
C574 C 0.84566 0.53655 0.80298 0.0
C575 C 0.82079 0.53707 0.87732 0.0
H576 H 0.76685 0.60005 0.83097 0.0
H577 H 0.67527 0.47584 0.83068 0.0
H578 H 0.8617 0.61267 0.85076 0.0
H579 H 0.86533 0.61388 0.82421 0.0
H580 H 0.84445 0.63614 0.83734 0.0
H581 H 0.69989 0.43881 0.83212 0.0
H582 H 0.75689 0.46142 0.82459 0.0
H583 H 0.7449 0.46064 0.85046 0.0
H584 H 0.91328 0.53688 0.81586 0.0
H585 H 0.88834 0.53338 0.87851 0.0
H586 H 0.84972 0.56328 0.80061 0.0
H587 H 0.80975 0.51144 0.79974 0.0
H588 H 0.86697 0.535 0.79223 0.0
H589 H 0.82764 0.56551 0.87844 0.0
H590 H 0.83156 0.53297 0.89158 0.0
H591 H 0.78381 0.51423 0.87534 0.0
C592 C 0.23344 0.64054 0.15028 0.0
C593 C 0.19274 0.63124 0.15684 0.0
C594 C 0.27314 0.67943 0.15043 0.0
C595 C 0.27209 0.70962 0.1575 0.0
C596 C 0.23089 0.70032 0.16391 0.0
C597 C 0.19186 0.66141 0.16344 0.0
C598 C 0.31632 0.68811 0.1434 0.0
C599 C 0.22808 0.73146 0.1716 0.0
C600 C 0.37492 0.80384 0.1814 0.0
C601 C 0.38758 0.8305 0.16676 0.0
C602 C 0.33877 0.76419 0.17816 0.0
C603 C 0.31435 0.75065 0.15981 0.0
C604 C 0.32797 0.77715 0.14464 0.0
C605 C 0.36475 0.81685 0.14825 0.0
C606 C 0.32528 0.73711 0.19479 0.0
C607 C 0.30272 0.76375 0.12489 0.0
H608 H 0.23419 0.61752 0.14483 0.0
H609 H 0.16058 0.65462 0.16856 0.0
H610 H 0.33342 0.71201 0.13292 0.0
H611 H 0.33961 0.69789 0.15634 0.0
H612 H 0.31037 0.66229 0.13589 0.0
H613 H 0.19353 0.7193 0.17626 0.0
H614 H 0.25156 0.74805 0.18455 0.0
H615 H 0.23848 0.75233 0.15986 0.0
H616 H 0.39279 0.81429 0.19567 0.0
H617 H 0.3744 0.83742 0.13695 0.0
H618 H 0.32289 0.71179 0.18929 0.0
H619 H 0.29145 0.72575 0.20011 0.0
H620 H 0.34949 0.75172 0.20766 0.0
H621 H 0.30388 0.74145 0.11741 0.0
H622 H 0.31691 0.78802 0.1148 0.0
H623 H 0.2667 0.74991 0.12727 0.0
C624 C 0.58036 0.24692 0.46767 0.0
C625 C 0.54608 0.21338 0.47734 0.0
C626 C 0.58661 0.28172 0.47089 0.0
C627 C 0.55784 0.28266 0.484 0.0
C628 C 0.52224 0.24846 0.49317 0.0
C629 C 0.51685 0.21431 0.48972 0.0
C630 C 0.62453 0.31764 0.46072 0.0
C631 C 0.4903 0.24807 0.50698 0.0
C632 C 0.59541 0.3721 0.51481 0.0
C633 C 0.57024 0.38148 0.50603 0.0
C634 C 0.59387 0.34141 0.50697 0.0
C635 C 0.56676 0.31975 0.48979 0.0
C636 C 0.54355 0.33065 0.48006 0.0
C637 C 0.54566 0.36159 0.48831 0.0
C638 C 0.61894 0.3306 0.51785 0.0
C639 C 0.51521 0.30875 0.46143 0.0
H640 H 0.60282 0.24614 0.45799 0.0
H641 H 0.48953 0.18811 0.49674 0.0
H642 H 0.61155 0.33067 0.45299 0.0
H643 H 0.64997 0.33971 0.47201 0.0
H644 H 0.6415 0.31134 0.44972 0.0
H645 H 0.46397 0.21883 0.51266 0.0
H646 H 0.50937 0.26884 0.51991 0.0
H647 H 0.47341 0.25754 0.49907 0.0
H648 H 0.61536 0.38813 0.52824 0.0
H649 H 0.52643 0.36901 0.48141 0.0
H650 H 0.63994 0.32822 0.50736 0.0
H651 H 0.59439 0.30178 0.52427 0.0
H652 H 0.64103 0.3521 0.53013 0.0
H653 H 0.53735 0.31292 0.44912 0.0
H654 H 0.49613 0.3187 0.45671 0.0
H655 H 0.49093 0.27712 0.46375 0.0
C656 C 0.47315 0.5548 0.84725 0.0
C657 C 0.4739 0.53132 0.83251 0.0
C658 C 0.43551 0.5548 0.84953 0.0
C659 C 0.39693 0.53183 0.8364 0.0
C660 C 0.39818 0.50886 0.82113 0.0
C661 C 0.43559 0.50838 0.81963 0.0
C662 C 0.43678 0.57917 0.8664 0.0
C663 C 0.36013 0.48519 0.80594 0.0
C664 C 0.27977 0.5013 0.85353 0.0
C665 C 0.27659 0.52889 0.84567 0.0
C666 C 0.31771 0.50201 0.85063 0.0
C667 C 0.35506 0.53064 0.83913 0.0
C668 C 0.35178 0.55794 0.83055 0.0
C669 C 0.3135 0.5569 0.83394 0.0
C670 C 0.31789 0.47188 0.86025 0.0
C671 C 0.38933 0.58907 0.81793 0.0
H672 H 0.50189 0.57274 0.85744 0.0
H673 H 0.43518 0.49038 0.80796 0.0
H674 H 0.43343 0.6003 0.86042 0.0
H675 H 0.40777 0.56029 0.87624 0.0
H676 H 0.46846 0.59535 0.87549 0.0
H677 H 0.36444 0.46749 0.79553 0.0
H678 H 0.32741 0.46557 0.81344 0.0
H679 H 0.35841 0.50496 0.79715 0.0
H680 H 0.25212 0.47833 0.86207 0.0
H681 H 0.31316 0.57884 0.82759 0.0
H682 H 0.34765 0.48643 0.87048 0.0
H683 H 0.32082 0.45482 0.84871 0.0
H684 H 0.28693 0.4515 0.86882 0.0
H685 H 0.41824 0.61202 0.82773 0.0
H686 H 0.37864 0.60277 0.80902 0.0
H687 H 0.40137 0.57701 0.80767 0.0
C688 C 0.90709 0.38071 0.1413 0.0
C689 C 0.94681 0.39343 0.15115 0.0
C690 C 0.86712 0.34218 0.1426 0.0
C691 C 0.8664 0.31636 0.15478 0.0
C692 C 0.90649 0.32948 0.16502 0.0
C693 C 0.94637 0.36757 0.16275 0.0
C694 C 0.82549 0.32933 0.13119 0.0
C695 C 0.90699 0.30362 0.17879 0.0
C696 C 0.7565 0.23271 0.17744 0.0
C697 C 0.74627 0.2002 0.1664 0.0
C698 C 0.79457 0.2706 0.17339 0.0
C699 C 0.82336 0.27641 0.15783 0.0
C700 C 0.81223 0.24381 0.14607 0.0
C701 C 0.77368 0.20607 0.15044 0.0
C702 C 0.80509 0.30424 0.18646 0.0
C703 C 0.84184 0.24876 0.12927 0.0
H704 H 0.90745 0.40081 0.13242 0.0
H705 H 0.97697 0.37766 0.17065 0.0
H706 H 0.81012 0.30124 0.12285 0.0
H707 H 0.80009 0.32474 0.14176 0.0
H708 H 0.83297 0.3511 0.12052 0.0
H709 H 0.94027 0.31881 0.18643 0.0
H710 H 0.88097 0.29311 0.19029 0.0
H711 H 0.89858 0.27768 0.17024 0.0
H712 H 0.73519 0.22836 0.1897 0.0
H713 H 0.7661 0.18106 0.14195 0.0
H714 H 0.80981 0.32667 0.1772 0.0
H715 H 0.83714 0.31811 0.19491 0.0
H716 H 0.77807 0.29504 0.19725 0.0
H717 H 0.84553 0.26886 0.11849 0.0
H718 H 0.82812 0.22071 0.12123 0.0
H719 H 0.87608 0.26201 0.13518 0.0
C720 C 0.0552 0.53943 0.08317 0.0
C721 C 0.06288 0.51937 0.09571 0.0
C722 C 0.06237 0.54042 0.06251 0.0
C723 C 0.07681 0.52013 0.05374 0.0
C724 C 0.08508 0.5 0.06633 0.0
C725 C 0.07847 0.50018 0.08716 0.0
C726 C 0.05383 0.56291 0.05 0.0
C727 C 0.10073 0.47813 0.05777 0.0
C728 C 0.04572 0.49228 -0.00186 0.0
C729 C 0.08591 0.52147 0.98882 0.0
C730 C 1.04299 0.49058 0.0191 0.0
C731 C 0.0812 0.51897 0.03136 0.0
C732 C 0.12223 0.54798 0.02205 0.0
C733 C 0.12412 0.54879 0.00101 0.0
C734 C 0.99874 0.45868 0.02816 0.0
C735 C 0.1638 0.57922 0.0343 0.0
H736 H 0.04362 0.55474 0.08957 0.0
H737 H 0.08481 0.48479 0.09668 0.0
H738 H 0.08358 0.58332 0.04083 0.0
H739 H 1.02483 0.54254 0.03961 0.0
H740 H 0.04638 0.57976 0.05921 0.0
H741 H 0.10257 0.46167 0.06917 0.0
H742 H 0.07761 0.45755 0.04545 0.0
H743 H 0.13464 0.49885 0.05139 0.0
H744 H 1.01615 0.47055 0.98899 0.0
H745 H 0.15532 0.57169 0.99411 0.0
H746 H 0.98552 0.47148 0.03686 0.0
H747 H 1.00385 0.44294 0.03864 0.0
H748 H 0.97293 0.43744 0.01671 0.0
H749 H 0.1587 0.59923 0.04162 0.0
H750 H 0.19435 0.59647 0.02506 0.0
H751 H 0.16984 0.56632 0.04625 0.0
C752 C 0.54356 0.02463 0.41174 0.0
C753 C 0.56742 0.01283 0.41906 0.0
C754 C 0.54233 0.02936 0.39127 0.0
C755 C 0.5631 0.01961 0.37775 0.0
C756 C 0.58583 0.00625 0.38507 0.0
C757 C 0.58866 0.00397 0.40567 0.0
C758 C 0.51948 0.04534 0.38421 0.0
C759 C 0.60729 0.99444 0.37114 0.0
C760 C 0.52362 0.99202 0.32361 0.0
C761 C 0.5606 0.02379 0.3138 0.0
C762 C 0.52354 0.99067 0.34443 0.0
C763 C 0.56058 0.02247 0.35589 0.0
C764 C 0.59682 0.05562 0.34627 0.0
C765 C 0.59676 0.05565 0.32536 0.0
C766 C 0.48459 0.95448 0.35409 0.0
C767 C 0.63596 0.09088 0.35805 0.0
H768 H 0.52716 0.03146 0.42201 0.0
H769 H 0.60705 0.9947 0.41132 0.0
H770 H 0.5413 0.06877 0.37375 0.0
H771 H 0.48769 0.02204 0.37603 0.0
H772 H 0.51133 0.05711 0.39678 0.0
H773 H 0.62041 0.9817 0.37911 0.0
H774 H 0.58241 0.97284 0.35954 0.0
H775 H 0.63563 0.02011 0.3634 0.0
H776 H 0.49474 0.96777 0.31501 0.0
H777 H 0.62573 0.08033 0.31812 0.0
H778 H 0.46859 0.96186 0.36499 0.0
H779 H 0.49714 0.94166 0.36242 0.0
H780 H 0.45845 0.93217 0.34305 0.0
H781 H 0.6234 0.10252 0.36829 0.0
H782 H 0.6616 0.11431 0.34832 0.0
H783 H 0.65259 0.0828 0.36739 0.0
C784 C 0.60715 0.51808 0.758 0.0
C785 C 0.58271 0.52531 0.77006 0.0
C786 C 0.60779 0.52141 0.7373 0.0
C787 C 0.58435 0.53317 0.72873 0.0
C788 C 0.56133 0.5422 0.74112 0.0
C789 C 0.56016 0.53748 0.76167 0.0
C790 C 0.63191 0.51078 0.72452 0.0
C791 C 0.53627 0.55512 0.7326 0.0
C792 C 0.61359 0.56802 0.67602 0.0
C793 C 0.57963 0.53428 0.66485 0.0
C794 C 0.61533 0.56822 0.69688 0.0
C795 C 0.58199 0.53403 0.70673 0.0
C796 C 0.54687 0.50021 0.69553 0.0
C797 C 0.54635 0.50067 0.67469 0.0
C798 C 0.65321 0.60477 0.70838 0.0
C799 C 0.51034 0.46329 0.70549 0.0
H800 H 0.62379 0.50794 0.76464 0.0
H801 H 0.54093 0.54262 0.77118 0.0
H802 H 0.60742 0.48584 0.7141 0.0
H803 H 0.65727 0.53546 0.71535 0.0
H804 H 0.64913 0.5028 0.73353 0.0
H805 H 0.5252 0.56578 0.74442 0.0
H806 H 0.55772 0.57856 0.72211 0.0
H807 H 0.50602 0.53036 0.72407 0.0
H808 H 0.63946 0.59394 0.66838 0.0
H809 H 0.5198 0.4747 0.66604 0.0
H810 H 0.67352 0.59909 0.71666 0.0
H811 H 0.63925 0.6138 0.71954 0.0
H812 H 0.67588 0.62918 0.69851 0.0
H813 H 0.5252 0.45111 0.71242 0.0
H814 H 0.48314 0.4409 0.69481 0.0
H815 H 0.49512 0.46941 0.71757 0.0
C816 C 0.5102 0.97339 0.54227 0.0
C817 C 0.54329 0.00746 0.53275 0.0
C818 C 0.51521 0.96969 0.56249 0.0
C819 C 0.55318 1.00156 0.57358 0.0
C820 C 0.58757 0.03546 0.56375 0.0
C821 C 0.58257 0.03769 0.5433 0.0
C822 C 0.4789 0.93232 0.57214 0.0
C823 C 0.62841 0.07017 0.57505 0.0
C824 C 0.5344 0.01404 0.62793 0.0
C825 C 0.55665 0.00287 0.63788 0.0
C826 C 0.53315 0.01366 0.60707 0.0
C827 C 0.55421 1.00137 0.59574 0.0
C828 C 0.57626 0.98953 0.60562 0.0
C829 C 0.57725 0.99046 0.62658 0.0
C830 C 0.50944 0.0267 0.59713 0.0
C831 C 0.59826 0.9754 0.59411 0.0
H832 H 0.48028 0.94969 0.5339 0.0
H833 H 0.60828 0.06392 0.53581 0.0
H834 H 0.49401 0.92346 0.58198 0.0
H835 H 0.45814 0.93676 0.58155 0.0
H836 H 0.45635 0.90827 0.56091 0.0
H837 H 0.65301 0.09362 0.56507 0.0
H838 H 0.61766 0.08206 0.58623 0.0
H839 H 0.6456 0.06134 0.58329 0.0
H840 H 0.51756 0.02287 0.63647 0.0
H841 H 0.59475 0.98196 0.63411 0.0
H842 H 0.48129 0.0026 0.58743 0.0
H843 H 0.53321 0.05114 0.58749 0.0
H844 H 0.49563 0.03625 0.60808 0.0
H845 H 0.57176 0.94666 0.58665 0.0
H846 H 0.61913 0.97232 0.60391 0.0
H847 H 0.61983 0.99551 0.58229 0.0
C848 C 0.56078 0.50168 0.88481 0.0
C849 C 0.6035 0.53626 0.88108 0.0
C850 C 0.55101 0.48602 0.90348 0.0
C851 C 0.58435 0.50647 0.91877 0.0
C852 C 0.62828 0.54037 0.91482 0.0
C853 C 0.63749 0.55486 0.89581 0.0
C854 C 0.50427 0.44905 0.90713 0.0
C855 C 0.66464 0.56237 0.93092 0.0
C856 C 0.54361 0.50268 0.97044 0.0
C857 C 0.54947 0.47789 0.97909 0.0
C858 C 0.55451 0.51186 0.95057 0.0
C859 C 0.57144 0.49566 0.93939 0.0
C860 C 0.57639 0.46988 0.94796 0.0
C861 C 0.56499 0.46108 0.96781 0.0
C862 C 0.54905 0.53961 0.94169 0.0
C863 C 0.59359 0.45161 0.93629 0.0
H864 H 0.53456 0.48731 0.8733 0.0
H865 H 0.67068 0.58138 0.8927 0.0
H866 H 0.50595 0.4293 0.91593 0.0
H867 H 0.48513 0.45617 0.91585 0.0
H868 H 0.48531 0.43336 0.89297 0.0
H869 H 0.69793 0.58633 0.92495 0.0
H870 H 0.6552 0.57492 0.94238 0.0
H871 H 0.66796 0.54239 0.93846 0.0
H872 H 0.53202 0.51585 0.97939 0.0
H873 H 0.56886 0.44149 0.97466 0.0
H874 H 0.5261 0.52544 0.92841 0.0
H875 H 0.58214 0.56552 0.93665 0.0
H876 H 0.53527 0.54946 0.95245 0.0
H877 H 0.56677 0.4286 0.92572 0.0
H878 H 0.60324 0.4382 0.94615 0.0
H879 H 0.62318 0.47333 0.92739 0.0
C880 C 1.024 0.46936 0.22351 0.0
C881 C 0.06034 0.50149 0.21372 0.0
C882 C 1.02046 0.47053 0.24438 0.0
C883 C 0.05497 0.50421 0.25589 0.0
C884 C 0.09167 0.53689 0.24603 0.0
C885 C 0.09352 0.53537 0.22504 0.0
C886 C 0.97999 0.43554 0.25412 0.0
C887 C 0.12999 0.57282 0.25772 0.0
C888 C 1.03177 0.51947 0.30944 0.0
C889 C 0.04906 0.50495 0.32036 0.0
C890 C 1.03333 0.51932 0.28848 0.0
C891 C 0.05322 0.50477 0.27823 0.0
C892 C 0.07099 0.49028 0.28936 0.0
C893 C 0.06839 0.49031 0.31028 0.0
C894 C 1.01342 0.53452 0.27731 0.0
C895 C 0.09264 0.4746 0.2792 0.0
H896 H 0.99827 0.44312 0.21479 0.0
H897 H 0.12203 0.56003 0.21755 0.0
H898 H 0.99092 0.42378 0.26444 0.0
H899 H 0.96261 0.44415 0.26314 0.0
H900 H 0.95545 0.41203 0.24306 0.0
H901 H 0.15502 0.59639 0.2479 0.0
H902 H 0.11692 0.58389 0.26804 0.0
H903 H 0.14745 0.56541 0.26698 0.0
H904 H 1.01689 0.53082 0.31734 0.0
H905 H 0.08179 0.47916 0.31883 0.0
H906 H 0.98674 0.51152 0.26669 0.0
H907 H 1.03978 0.55928 0.26845 0.0
H908 H 0.99864 0.54431 0.28745 0.0
H909 H 0.06661 0.44714 0.27061 0.0
H910 H 0.10932 0.46864 0.29001 0.0
H911 H 0.11802 0.49547 0.26848 0.0
loop_
_geom_bond_atom_site_label_1
_geom_bond_atom_site_label_2
_geom_bond_distance
_geom_bond_site_symmetry_2
_ccdc_geom_bond_type
Ho0 C3 2.811 . S
Ho0 O20 2.322 . S
Ho0 O22 2.378 . S
Ho0 O23 2.524 . S
Ho0 O24 2.381 . S
Ho0 O25 2.669 . S
Ho0 O27 2.346 1_455 S
Ho0 O31 2.305 . S
Ho1 C12 2.811 . S
Ho1 O21 2.346 1_655 S
Ho1 O25 2.305 1_655 S
Ho1 O26 2.322 . S
Ho1 O28 2.378 . S
Ho1 O29 2.524 . S
Ho1 O30 2.375 1_655 S
Ho1 O31 2.669 1_655 S
C2 O20 1.259 . S
C2 O21 1.268 . S
C3 Ho0 2.811 . S
C3 C4 1.488 . S
C3 O22 1.215 . S
C3 O23 1.289 . S
C4 C3 1.488 . S
C4 C5 1.348 . S
C4 C9 1.413 . S
C5 C4 1.348 . S
C5 C6 1.442 . S
C5 H32 0.930 . S
C6 C5 1.442 . S
C6 C7 1.381 . S
C6 H33 0.931 . S
C7 C6 1.381 . S
C7 C8 1.321 . S
C8 C7 1.321 . S
C8 C9 1.403 . S
C8 H34 0.934 . S
C9 C4 1.413 . S
C9 C8 1.403 . S
C9 H35 0.930 . S
C10 O24 1.275 . S
C10 O25 1.256 . S
C11 O26 1.259 . S
C11 O27 1.268 . S
C12 Ho1 2.811 . S
C12 C13 1.488 . S
C12 O28 1.215 . S
C12 O29 1.289 . S
C13 C12 1.488 . S
C13 C14 1.348 . S
C13 C18 1.413 . S
C14 C13 1.348 . S
C14 C15 1.442 . S
C14 H36 0.930 . S
C15 C14 1.442 . S
C15 C16 1.381 . S
C15 H37 0.931 . S
C16 C15 1.381 . S
C16 C17 1.321 . S
C17 C16 1.321 . S
C17 C18 1.403 . S
C17 H38 0.934 . S
C18 C13 1.413 . S
C18 C17 1.403 . S
C18 H39 0.930 . S
C19 O30 1.308 . S
C19 O31 1.256 . S
O20 Ho0 2.322 . S
O20 C2 1.259 . S
O21 Ho1 2.346 1_455 S
O21 C2 1.268 . S
O22 Ho0 2.378 . S
O22 C3 1.215 . S
O23 Ho0 2.524 . S
O23 C3 1.289 . S
O24 Ho0 2.381 . S
O24 C10 1.275 . S
O25 Ho0 2.669 . S
O25 Ho1 2.305 1_455 S
O25 C10 1.256 . S
O26 Ho1 2.322 . S
O26 C11 1.259 . S
O27 Ho0 2.346 1_655 S
O27 C11 1.268 . S
O28 Ho1 2.378 . S
O28 C12 1.215 . S
O29 Ho1 2.524 . S
O29 C12 1.289 . S
O30 Ho1 2.375 1_455 S
O30 C19 1.308 . S
O31 Ho0 2.305 . S
O31 Ho1 2.669 1_455 S
O31 C19 1.256 . S
H32 C5 0.930 . S
H33 C6 0.931 . S
H34 C8 0.934 . S
H35 C9 0.930 . S
H36 C14 0.930 . S
H37 C15 0.931 . S
H38 C17 0.934 . S
H39 C18 0.930 . S
Ho40 C43 2.811 . S
Ho40 O60 2.322 . S
Ho40 O62 2.378 . S
Ho40 O63 2.524 . S
Ho40 O64 2.381 . S
Ho40 O65 2.669 1_565 S
Ho40 O67 2.346 1_565 S
Ho40 O71 2.297 1_565 S
Ho41 C52 2.811 . S
Ho41 O61 2.346 1_545 S
Ho41 O65 2.305 . S
Ho41 O66 2.322 . S
Ho41 O68 2.378 . S
Ho41 O69 2.524 . S
Ho41 O70 2.381 . S
Ho41 O71 2.681 . S
C42 O60 1.259 . S
C42 O61 1.268 . S
C43 Ho40 2.811 . S
C43 C44 1.488 . S
C43 O62 1.215 . S
C43 O63 1.289 . S
C44 C43 1.488 . S
C44 C45 1.348 . S
C44 C49 1.413 . S
C45 C44 1.348 . S
C45 C46 1.442 . S
C45 H72 0.930 . S
C46 C45 1.442 . S
C46 C47 1.381 . S
C46 H73 0.931 . S
C47 C46 1.381 . S
C47 C48 1.321 . S
C48 C47 1.321 . S
C48 C49 1.403 . S
C48 H74 0.934 . S
C49 C44 1.413 . S
C49 C48 1.403 . S
C49 H75 0.930 . S
C50 O64 1.275 1_545 S
C50 O65 1.256 . S
C51 O66 1.259 . S
C51 O67 1.268 . S
C52 Ho41 2.811 . S
C52 C53 1.488 . S
C52 O68 1.215 . S
C52 O69 1.289 . S
C53 C52 1.488 . S
C53 C54 1.348 . S
C53 C58 1.413 . S
C54 C53 1.348 . S
C54 C55 1.442 . S
C54 H76 0.930 . S
C55 C54 1.442 . S
C55 C56 1.381 . S
C55 H77 0.931 . S
C56 C55 1.381 . S
C56 C57 1.321 . S
C57 C56 1.321 . S
C57 C58 1.403 . S
C57 H78 0.934 . S
C58 C53 1.413 . S
C58 C57 1.403 . S
C58 H79 0.930 . S
C59 O70 1.275 . S
C59 O71 1.263 . S
O60 Ho40 2.322 . S
O60 C42 1.259 . S
O61 Ho41 2.346 1_565 S
O61 C42 1.268 . S
O62 Ho40 2.378 . S
O62 C43 1.215 . S
O63 Ho40 2.524 . S
O63 C43 1.289 . S
O64 Ho40 2.381 . S
O64 C50 1.275 1_565 S
O65 Ho40 2.669 1_545 S
O65 Ho41 2.305 . S
O65 C50 1.256 . S
O66 Ho41 2.322 . S
O66 C51 1.259 . S
O67 Ho40 2.346 1_545 S
O67 C51 1.268 . S
O68 Ho41 2.378 . S
O68 C52 1.215 . S
O69 Ho41 2.524 . S
O69 C52 1.289 . S
O70 Ho41 2.381 . S
O70 C59 1.275 . S
O71 Ho40 2.297 1_545 S
O71 Ho41 2.681 . S
O71 C59 1.263 . S
H72 C45 0.930 . S
H73 C46 0.931 . S
H74 C48 0.934 . S
H75 C49 0.930 . S
H76 C54 0.930 . S
H77 C55 0.931 . S
H78 C57 0.934 . S
H79 C58 0.930 . S
Ho80 C83 2.811 . S
Ho80 O100 2.322 . S
Ho80 O102 2.378 . S
Ho80 O103 2.524 . S
Ho80 O104 2.381 . S
Ho80 O105 2.669 . S
Ho80 O107 2.346 . S
Ho80 O111 2.305 . S
Ho81 C92 2.811 . S
Ho81 O101 2.346 . S
Ho81 O105 2.305 . S
Ho81 O106 2.322 . S
Ho81 O108 2.378 . S
Ho81 O109 2.524 . S
Ho81 O110 2.381 . S
Ho81 O111 2.669 . S
C82 O100 1.259 . S
C82 O101 1.268 . S
C83 Ho80 2.811 . S
C83 C84 1.488 . S
C83 O102 1.215 . S
C83 O103 1.289 . S
C84 C83 1.488 . S
C84 C85 1.348 . S
C84 C89 1.413 . S
C85 C84 1.348 . S
C85 C86 1.442 . S
C85 H112 0.930 . S
C86 C85 1.442 . S
C86 C87 1.381 . S
C86 H113 0.931 . S
C87 C86 1.381 . S
C87 C88 1.321 . S
C88 C87 1.321 . S
C88 C89 1.403 . S
C88 H114 0.934 . S
C89 C84 1.413 . S
C89 C88 1.403 . S
C89 H115 0.930 . S
C90 O104 1.275 . S
C90 O105 1.256 . S
C91 O106 1.259 . S
C91 O107 1.268 . S
C92 Ho81 2.811 . S
C92 C93 1.488 . S
C92 O108 1.215 . S
C92 O109 1.289 . S
C93 C92 1.488 . S
C93 C94 1.348 . S
C93 C98 1.413 . S
C94 C93 1.348 . S
C94 C95 1.442 . S
C94 H116 0.930 . S
C95 C94 1.442 . S
C95 C96 1.381 . S
C95 H117 0.931 . S
C96 C95 1.381 . S
C96 C97 1.321 . S
C97 C96 1.321 . S
C97 C98 1.403 . S
C97 H118 0.934 . S
C98 C93 1.413 . S
C98 C97 1.403 . S
C98 H119 0.930 . S
C99 O110 1.275 . S
C99 O111 1.256 . S
O100 Ho80 2.322 . S
O100 C82 1.259 . S
O101 Ho81 2.346 . S
O101 C82 1.268 . S
O102 Ho80 2.378 . S
O102 C83 1.215 . S
O103 Ho80 2.524 . S
O103 C83 1.289 . S
O104 Ho80 2.381 . S
O104 C90 1.275 . S
O105 Ho80 2.669 . S
O105 Ho81 2.305 . S
O105 C90 1.256 . S
O106 Ho81 2.322 . S
O106 C91 1.259 . S
O107 Ho80 2.346 . S
O107 C91 1.268 . S
O108 Ho81 2.378 . S
O108 C92 1.215 . S
O109 Ho81 2.524 . S
O109 C92 1.289 . S
O110 Ho81 2.381 . S
O110 C99 1.275 . S
O111 Ho80 2.305 . S
O111 Ho81 2.669 . S
O111 C99 1.256 . S
H112 C85 0.930 . S
H113 C86 0.931 . S
H114 C88 0.934 . S
H115 C89 0.930 . S
H116 C94 0.930 . S
H117 C95 0.931 . S
H118 C97 0.934 . S
H119 C98 0.930 . S
C120 C121 1.384 . S
C120 H133 0.947 . S
C120 C155 1.382 . S
C121 C120 1.384 . S
C121 C122 1.378 . S
C122 C121 1.378 . S
C122 C123 1.378 . S
C122 H134 0.952 . S
C123 C122 1.378 . S
C123 H135 0.950 . S
C123 C154 1.383 . S
H124 C143 0.947 . S
H125 C144 0.946 . S
H126 C146 0.953 . S
H127 C147 0.945 . S
H128 C149 0.952 . S
H129 C150 0.949 . S
H130 C152 0.950 . S
H131 C153 0.948 . S
H132 C155 0.951 . S
H133 C120 0.947 . S
H134 C122 0.952 . S
H135 C123 0.950 . S
N136 C139 1.382 . S
N136 C141 1.363 1_545 S
N137 C139 1.371 . S
N137 C140 1.372 . S
N138 C140 1.361 1_565 S
N138 C141 1.377 . S
C139 N136 1.382 . S
C139 N137 1.371 . S
C139 C142 1.480 . S
C140 N137 1.372 . S
C140 N138 1.361 1_545 S
C140 C148 1.457 . S
C141 N136 1.363 1_565 S
C141 N138 1.377 . S
C141 C154 1.479 . S
C142 C139 1.480 . S
C142 C143 1.383 . S
C142 C147 1.385 . S
C143 H124 0.947 . S
C143 C142 1.383 . S
C143 C144 1.388 . S
C144 H125 0.946 . S
C144 C143 1.388 . S
C144 C145 1.384 . S
C145 C144 1.384 . S
C145 C146 1.377 . S
C146 H126 0.953 . S
C146 C145 1.377 . S
C146 C147 1.369 . S
C147 H127 0.945 . S
C147 C142 1.385 . S
C147 C146 1.369 . S
C148 C140 1.457 . S
C148 C149 1.372 . S
C148 C153 1.364 1_545 S
C149 H128 0.952 . S
C149 C148 1.372 . S
C149 C150 1.389 . S
C150 H129 0.949 . S
C150 C149 1.389 . S
C150 C151 1.387 . S
C151 C150 1.387 . S
C151 C152 1.372 1_545 S
C152 H130 0.950 . S
C152 C151 1.372 1_565 S
C152 C153 1.379 . S
C153 H131 0.948 . S
C153 C148 1.364 1_565 S
C153 C152 1.379 . S
C154 C123 1.383 . S
C154 C141 1.479 . S
C154 C155 1.398 . S
C155 C120 1.382 . S
C155 H132 0.951 . S
C155 C154 1.398 . S
C156 C157 1.384 . S
C156 H169 0.947 . S
C156 C191 1.382 . S
C157 C156 1.384 . S
C157 C158 1.378 . S
C158 C157 1.378 . S
C158 C159 1.378 . S
C158 H170 0.952 . S
C159 C158 1.378 . S
C159 H171 0.950 . S
C159 C190 1.383 . S
H160 C179 0.947 . S
H161 C180 0.946 . S
H162 C182 0.953 . S
H163 C183 0.945 . S
H164 C185 0.952 . S
H165 C186 0.949 . S
H166 C188 0.950 . S
H167 C189 0.948 . S
H168 C191 0.951 . S
H169 C156 0.947 . S
H170 C158 0.952 . S
H171 C159 0.950 . S
N172 C175 1.382 . S
N172 C177 1.363 . S
N173 C175 1.371 . S
N173 C176 1.372 . S
N174 C176 1.361 . S
N174 C177 1.377 . S
C175 N172 1.382 . S
C175 N173 1.371 . S
C175 C178 1.480 . S
C176 N173 1.372 . S
C176 N174 1.361 . S
C176 C184 1.457 . S
C177 N172 1.363 . S
C177 N174 1.377 . S
C177 C190 1.479 . S
C178 C175 1.480 . S
C178 C179 1.383 . S
C178 C183 1.385 . S
C179 H160 0.947 . S
C179 C178 1.383 . S
C179 C180 1.388 . S
C180 H161 0.946 . S
C180 C179 1.388 . S
C180 C181 1.384 . S
C181 C180 1.384 . S
C181 C182 1.377 . S
C182 H162 0.953 . S
C182 C181 1.377 . S
C182 C183 1.369 . S
C183 H163 0.945 . S
C183 C178 1.385 . S
C183 C182 1.369 . S
C184 C176 1.457 . S
C184 C185 1.372 . S
C184 C189 1.364 . S
C185 H164 0.952 . S
C185 C184 1.372 . S
C185 C186 1.389 . S
C186 H165 0.949 . S
C186 C185 1.389 . S
C186 C187 1.387 . S
C187 C186 1.387 . S
C187 C188 1.372 . S
C188 H166 0.950 . S
C188 C187 1.372 . S
C188 C189 1.379 . S
C189 H167 0.948 . S
C189 C184 1.364 . S
C189 C188 1.379 . S
C190 C159 1.383 . S
C190 C177 1.479 . S
C190 C191 1.398 . S
C191 C156 1.382 . S
C191 H168 0.951 . S
C191 C190 1.398 . S
C192 C193 1.384 . S
C192 H205 0.947 . S
C192 C227 1.382 . S
C193 C192 1.384 . S
C193 C194 1.378 . S
C194 C193 1.378 . S
C194 C195 1.378 . S
C194 H206 0.952 . S
C195 C194 1.378 . S
C195 H207 0.950 1_655 S
C195 C226 1.383 . S
H196 C215 0.947 . S
H197 C216 0.946 . S
H198 C218 0.953 . S
H199 C219 0.945 . S
H200 C221 0.952 . S
H201 C222 0.949 . S
H202 C224 0.950 1_655 S
H203 C225 0.948 1_655 S
H204 C227 0.951 . S
H205 C192 0.947 . S
H206 C194 0.952 . S
H207 C195 0.950 1_455 S
N208 C211 1.382 . S
N208 C213 1.363 . S
N209 C211 1.371 . S
N209 C212 1.372 . S
N210 C212 1.361 . S
N210 C213 1.377 . S
C211 N208 1.382 . S
C211 N209 1.371 . S
C211 C214 1.480 . S
C212 N209 1.372 . S
C212 N210 1.361 . S
C212 C220 1.457 . S
C213 N208 1.363 . S
C213 N210 1.377 . S
C213 C226 1.479 1_455 S
C214 C211 1.480 . S
C214 C215 1.383 . S
C214 C219 1.385 . S
C215 H196 0.947 . S
C215 C214 1.383 . S
C215 C216 1.388 . S
C216 H197 0.946 . S
C216 C215 1.388 . S
C216 C217 1.384 . S
C217 C216 1.384 . S
C217 C218 1.377 . S
C218 H198 0.953 . S
C218 C217 1.377 . S
C218 C219 1.369 . S
C219 H199 0.945 . S
C219 C214 1.385 . S
C219 C218 1.369 . S
C220 C212 1.457 . S
C220 C221 1.372 . S
C220 C225 1.364 . S
C221 H200 0.952 . S
C221 C220 1.372 . S
C221 C222 1.389 . S
C222 H201 0.949 . S
C222 C221 1.389 . S
C222 C223 1.387 . S
C223 C222 1.387 . S
C223 C224 1.372 . S
C224 H202 0.950 1_455 S
C224 C223 1.372 . S
C224 C225 1.379 . S
C225 H203 0.948 1_455 S
C225 C220 1.364 . S
C225 C224 1.379 . S
C226 C195 1.383 . S
C226 C213 1.479 1_655 S
C226 C227 1.398 . S
C227 C192 1.382 . S
C227 H204 0.951 . S
C227 C226 1.398 . S
C228 C229 1.384 . S
C228 H241 0.947 . S
C228 C263 1.382 . S
C229 C228 1.384 . S
C229 C230 1.378 . S
C230 C229 1.378 . S
C230 C231 1.378 . S
C230 H242 0.952 . S
C231 C230 1.378 . S
C231 H243 0.950 . S
C231 C262 1.383 . S
H232 C251 0.947 . S
H233 C252 0.946 . S
H234 C254 0.953 . S
H235 C255 0.945 . S
H236 C257 0.952 . S
H237 C258 0.949 . S
H238 C260 0.950 . S
H239 C261 0.948 . S
H240 C263 0.951 . S
H241 C228 0.947 . S
H242 C230 0.952 . S
H243 C231 0.950 . S
N244 C247 1.382 1_455 S
N244 C249 1.363 . S
N245 C247 1.371 . S
N245 C248 1.372 1_655 S
N246 C248 1.361 . S
N246 C249 1.377 . S
C247 N244 1.382 1_655 S
C247 N245 1.371 . S
C247 C250 1.480 . S
C248 N245 1.372 1_455 S
C248 N246 1.361 . S
C248 C256 1.457 . S
C249 N244 1.363 . S
C249 N246 1.377 . S
C249 C262 1.479 . S
C250 C247 1.480 . S
C250 C251 1.383 . S
C250 C255 1.385 . S
C251 H232 0.947 . S
C251 C250 1.383 . S
C251 C252 1.388 . S
C252 H233 0.946 . S
C252 C251 1.388 . S
C252 C253 1.384 . S
C253 C252 1.384 . S
C253 C254 1.377 . S
C254 H234 0.953 . S
C254 C253 1.377 . S
C254 C255 1.369 . S
C255 H235 0.945 . S
C255 C250 1.385 . S
C255 C254 1.369 . S
C256 C248 1.457 . S
C256 C257 1.372 1_455 S
C256 C261 1.364 . S
C257 H236 0.952 . S
C257 C256 1.372 1_655 S
C257 C258 1.389 . S
C258 H237 0.949 . S
C258 C257 1.389 . S
C258 C259 1.387 1_655 S
C259 C258 1.387 1_455 S
C259 C260 1.372 . S
C260 H238 0.950 . S
C260 C259 1.372 . S
C260 C261 1.379 . S
C261 H239 0.948 . S
C261 C256 1.364 . S
C261 C260 1.379 . S
C262 C231 1.383 . S
C262 C249 1.479 . S
C262 C263 1.398 . S
C263 C228 1.382 . S
C263 H240 0.951 . S
C263 C262 1.398 . S
C264 C265 1.384 . S
C264 H277 0.947 . S
C264 C299 1.382 . S
C265 C264 1.384 . S
C265 C266 1.378 . S
C266 C265 1.378 . S
C266 C267 1.378 . S
C266 H278 0.952 . S
C267 C266 1.378 . S
C267 H279 0.950 . S
C267 C298 1.383 . S
H268 C287 0.947 . S
H269 C288 0.946 . S
H270 C290 0.953 . S
H271 C291 0.945 . S
H272 C293 0.952 . S
H273 C294 0.949 . S
H274 C296 0.950 . S
H275 C297 0.948 . S
H276 C299 0.951 . S
H277 C264 0.947 . S
H278 C266 0.952 . S
H279 C267 0.950 . S
N280 C283 1.382 1_545 S
N280 C285 1.363 . S
N281 C283 1.371 . S
N281 C284 1.372 1_565 S
N282 C284 1.361 . S
N282 C285 1.377 . S
C283 N280 1.382 1_565 S
C283 N281 1.371 . S
C283 C286 1.480 . S
C284 N281 1.372 1_545 S
C284 N282 1.361 . S
C284 C292 1.457 . S
C285 N280 1.363 . S
C285 N282 1.377 . S
C285 C298 1.479 . S
C286 C283 1.480 . S
C286 C287 1.383 . S
C286 C291 1.385 . S
C287 H268 0.947 . S
C287 C286 1.383 . S
C287 C288 1.388 . S
C288 H269 0.946 . S
C288 C287 1.388 . S
C288 C289 1.384 . S
C289 C288 1.384 . S
C289 C290 1.377 . S
C290 H270 0.953 . S
C290 C289 1.377 . S
C290 C291 1.369 . S
C291 H271 0.945 . S
C291 C286 1.385 . S
C291 C290 1.369 . S
C292 C284 1.457 . S
C292 C293 1.372 1_545 S
C292 C297 1.364 . S
C293 H272 0.952 . S
C293 C292 1.372 1_565 S
C293 C294 1.389 . S
C294 H273 0.949 . S
C294 C293 1.389 . S
C294 C295 1.387 . S
C295 C294 1.387 . S
C295 C296 1.372 1_565 S
C296 H274 0.950 . S
C296 C295 1.372 1_545 S
C296 C297 1.379 . S
C297 H275 0.948 . S
C297 C292 1.364 . S
C297 C296 1.379 . S
C298 C267 1.383 . S
C298 C285 1.479 . S
C298 C299 1.398 . S
C299 C264 1.382 . S
C299 H276 0.951 . S
C299 C298 1.398 . S
C300 C301 1.384 . S
C300 H313 0.947 . S
C300 C335 1.382 . S
C301 C300 1.384 . S
C301 C302 1.378 . S
C302 C301 1.378 . S
C302 C303 1.378 . S
C302 H314 0.952 . S
C303 C302 1.378 . S
C303 H315 0.950 . S
C303 C334 1.383 . S
H304 C323 0.947 . S
H305 C324 0.946 . S
H306 C326 0.953 . S
H307 C327 0.945 . S
H308 C329 0.952 . S
H309 C330 0.949 . S
H310 C332 0.950 . S
H311 C333 0.948 . S
H312 C335 0.951 . S
H313 C300 0.947 . S
H314 C302 0.952 . S
H315 C303 0.950 . S
N316 C319 1.382 . S
N316 C321 1.363 . S
N317 C319 1.371 . S
N317 C320 1.372 . S
N318 C320 1.361 . S
N318 C321 1.377 . S
C319 N316 1.382 . S
C319 N317 1.371 . S
C319 C322 1.480 . S
C320 N317 1.372 . S
C320 N318 1.361 . S
C320 C328 1.457 . S
C321 N316 1.363 . S
C321 N318 1.377 . S
C321 C334 1.479 . S
C322 C319 1.480 . S
C322 C323 1.383 . S
C322 C327 1.385 . S
C323 H304 0.947 . S
C323 C322 1.383 . S
C323 C324 1.388 . S
C324 H305 0.946 . S
C324 C323 1.388 . S
C324 C325 1.384 . S
C325 C324 1.384 . S
C325 C326 1.377 . S
C326 H306 0.953 . S
C326 C325 1.377 . S
C326 C327 1.369 . S
C327 H307 0.945 . S
C327 C322 1.385 . S
C327 C326 1.369 . S
C328 C320 1.457 . S
C328 C329 1.372 . S
C328 C333 1.364 . S
C329 H308 0.952 . S
C329 C328 1.372 . S
C329 C330 1.389 . S
C330 H309 0.949 . S
C330 C329 1.389 . S
C330 C331 1.387 . S
C331 C330 1.387 . S
C331 C332 1.372 . S
C332 H310 0.950 . S
C332 C331 1.372 . S
C332 C333 1.379 . S
C333 H311 0.948 . S
C333 C328 1.364 . S
C333 C332 1.379 . S
C334 C303 1.383 . S
C334 C321 1.479 . S
C334 C335 1.398 . S
C335 C300 1.382 . S
C335 H312 0.951 . S
C335 C334 1.398 . S
C336 C337 1.391 . S
C336 C338 1.394 . S
C336 H352 0.931 . S
C337 C336 1.391 . S
C337 C341 1.376 . S
C338 C336 1.394 . S
C338 C339 1.369 . S
C338 C342 1.531 . S
C339 C338 1.369 . S
C339 C340 1.410 . S
C339 C347 1.503 . S
C340 C339 1.410 . S
C340 C341 1.392 . S
C340 C343 1.511 . S
C341 C337 1.376 . S
C341 C340 1.392 . S
C341 H353 0.929 . S
C342 C338 1.531 . S
C342 H354 0.960 . S
C342 H355 0.962 . S
C342 H356 0.960 . S
C343 C340 1.511 . S
C343 H357 0.961 . S
C343 H358 0.961 . S
C343 H359 0.961 . S
C344 C345 1.370 . S
C344 C346 1.363 . S
C344 H360 0.931 . S
C345 C344 1.370 . S
C345 C349 1.408 . S
C346 C344 1.363 . S
C346 C347 1.370 . S
C346 C350 1.524 . S
C347 C339 1.503 . S
C347 C346 1.370 . S
C347 C348 1.403 . S
C348 C347 1.403 . S
C348 C349 1.404 . S
C348 C351 1.539 . S
C349 C345 1.408 . S
C349 C348 1.404 . S
C349 H361 0.930 . S
C350 C346 1.524 . S
C350 H362 0.956 . S
C350 H363 0.961 . S
C350 H364 0.961 . S
C351 C348 1.539 . S
C351 H365 0.958 . S
C351 H366 0.961 . S
C351 H367 0.960 . S
H352 C336 0.931 . S
H353 C341 0.929 . S
H354 C342 0.960 . S
H355 C342 0.962 . S
H356 C342 0.960 . S
H357 C343 0.961 . S
H358 C343 0.961 . S
H359 C343 0.961 . S
H360 C344 0.931 . S
H361 C349 0.930 . S
H362 C350 0.956 . S
H363 C350 0.961 . S
H364 C350 0.961 . S
H365 C351 0.958 . S
H366 C351 0.961 . S
H367 C351 0.960 . S
C368 C369 1.391 . S
C368 C370 1.394 . S
C368 H384 0.931 . S
C369 C368 1.391 . S
C369 C373 1.376 . S
C370 C368 1.394 . S
C370 C371 1.369 . S
C370 C374 1.531 . S
C371 C370 1.369 . S
C371 C372 1.410 . S
C371 C379 1.503 . S
C372 C371 1.410 . S
C372 C373 1.392 . S
C372 C375 1.511 . S
C373 C369 1.376 . S
C373 C372 1.392 . S
C373 H385 0.929 . S
C374 C370 1.531 . S
C374 H386 0.960 . S
C374 H387 0.962 . S
C374 H388 0.960 . S
C375 C372 1.511 . S
C375 H389 0.961 . S
C375 H390 0.961 . S
C375 H391 0.961 . S
C376 C377 1.370 . S
C376 C378 1.363 . S
C376 H392 0.931 . S
C377 C376 1.370 . S
C377 C381 1.408 . S
C378 C376 1.363 . S
C378 C379 1.370 . S
C378 C382 1.524 . S
C379 C371 1.503 . S
C379 C378 1.370 . S
C379 C380 1.403 . S
C380 C379 1.403 . S
C380 C381 1.404 . S
C380 C383 1.539 . S
C381 C377 1.408 . S
C381 C380 1.404 . S
C381 H393 0.930 . S
C382 C378 1.524 . S
C382 H394 0.956 . S
C382 H395 0.961 . S
C382 H396 0.961 . S
C383 C380 1.539 . S
C383 H397 0.958 . S
C383 H398 0.961 . S
C383 H399 0.960 . S
H384 C368 0.931 . S
H385 C373 0.929 . S
H386 C374 0.960 . S
H387 C374 0.962 . S
H388 C374 0.960 . S
H389 C375 0.961 . S
H390 C375 0.961 . S
H391 C375 0.961 . S
H392 C376 0.931 . S
H393 C381 0.930 . S
H394 C382 0.956 . S
H395 C382 0.961 . S
H396 C382 0.961 . S
H397 C383 0.958 . S
H398 C383 0.961 . S
H399 C383 0.960 . S
C400 C401 1.391 . S
C400 C402 1.394 . S
C400 H416 0.931 . S
C401 C400 1.391 . S
C401 C405 1.376 . S
C402 C400 1.394 . S
C402 C403 1.369 . S
C402 C406 1.531 . S
C403 C402 1.369 . S
C403 C404 1.410 . S
C403 C411 1.503 . S
C404 C403 1.410 . S
C404 C405 1.392 . S
C404 C407 1.511 . S
C405 C401 1.376 . S
C405 C404 1.392 . S
C405 H417 0.929 . S
C406 C402 1.531 . S
C406 H418 0.960 . S
C406 H419 0.962 . S
C406 H420 0.960 . S
C407 C404 1.511 . S
C407 H421 0.961 . S
C407 H422 0.961 . S
C407 H423 0.961 . S
C408 C409 1.370 . S
C408 C410 1.363 . S
C408 H424 0.931 . S
C409 C408 1.370 . S
C409 C413 1.408 . S
C410 C408 1.363 . S
C410 C411 1.370 . S
C410 C414 1.524 . S
C411 C403 1.503 . S
C411 C410 1.370 . S
C411 C412 1.403 . S
C412 C411 1.403 . S
C412 C413 1.404 . S
C412 C415 1.539 . S
C413 C409 1.408 . S
C413 C412 1.404 . S
C413 H425 0.930 . S
C414 C410 1.524 . S
C414 H426 0.956 . S
C414 H427 0.961 . S
C414 H428 0.961 . S
C415 C412 1.539 . S
C415 H429 0.958 . S
C415 H430 0.961 . S
C415 H431 0.960 . S
H416 C400 0.931 . S
H417 C405 0.929 . S
H418 C406 0.960 . S
H419 C406 0.962 . S
H420 C406 0.960 . S
H421 C407 0.961 . S
H422 C407 0.961 . S
H423 C407 0.961 . S
H424 C408 0.931 . S
H425 C413 0.930 . S
H426 C414 0.956 . S
H427 C414 0.961 . S
H428 C414 0.961 . S
H429 C415 0.958 . S
H430 C415 0.961 . S
H431 C415 0.960 . S
C432 C433 1.391 . S
C432 C434 1.394 . S
C432 H448 0.931 . S
C433 C432 1.391 . S
C433 C437 1.376 . S
C434 C432 1.394 . S
C434 C435 1.369 . S
C434 C438 1.531 . S
C435 C434 1.369 . S
C435 C436 1.410 . S
C435 C443 1.503 . S
C436 C435 1.410 . S
C436 C437 1.392 . S
C436 C439 1.511 . S
C437 C433 1.376 . S
C437 C436 1.392 . S
C437 H449 0.929 . S
C438 C434 1.531 . S
C438 H450 0.960 . S
C438 H451 0.962 . S
C438 H452 0.960 . S
C439 C436 1.511 . S
C439 H453 0.961 . S
C439 H454 0.961 . S
C439 H455 0.961 . S
C440 C441 1.370 . S
C440 C442 1.363 . S
C440 H456 0.931 . S
C441 C440 1.370 . S
C441 C445 1.408 . S
C442 C440 1.363 . S
C442 C443 1.370 . S
C442 C446 1.524 . S
C443 C435 1.503 . S
C443 C442 1.370 . S
C443 C444 1.403 . S
C444 C443 1.403 . S
C444 C445 1.404 . S
C444 C447 1.539 . S
C445 C441 1.408 . S
C445 C444 1.404 . S
C445 H457 0.930 . S
C446 C442 1.524 . S
C446 H458 0.956 . S
C446 H459 0.961 . S
C446 H460 0.961 . S
C447 C444 1.539 . S
C447 H461 0.958 . S
C447 H462 0.961 . S
C447 H463 0.960 . S
H448 C432 0.931 . S
H449 C437 0.929 . S
H450 C438 0.960 . S
H451 C438 0.962 . S
H452 C438 0.960 . S
H453 C439 0.961 . S
H454 C439 0.961 . S
H455 C439 0.961 . S
H456 C440 0.931 . S
H457 C445 0.930 . S
H458 C446 0.956 . S
H459 C446 0.961 . S
H460 C446 0.961 . S
H461 C447 0.958 . S
H462 C447 0.961 . S
H463 C447 0.960 . S
C464 C465 1.391 . S
C464 C466 1.394 . S
C464 H480 0.931 . S
C465 C464 1.391 . S
C465 C469 1.376 . S
C466 C464 1.394 . S
C466 C467 1.369 . S
C466 C470 1.531 . S
C467 C466 1.369 . S
C467 C468 1.410 . S
C467 C475 1.503 . S
C468 C467 1.410 . S
C468 C469 1.392 . S
C468 C471 1.511 . S
C469 C465 1.376 . S
C469 C468 1.392 . S
C469 H481 0.929 . S
C470 C466 1.531 . S
C470 H482 0.960 . S
C470 H483 0.962 . S
C470 H484 0.960 . S
C471 C468 1.511 . S
C471 H485 0.961 . S
C471 H486 0.961 . S
C471 H487 0.961 . S
C472 C473 1.370 . S
C472 C474 1.363 . S
C472 H488 0.931 . S
C473 C472 1.370 . S
C473 C477 1.408 . S
C474 C472 1.363 . S
C474 C475 1.370 . S
C474 C478 1.524 . S
C475 C467 1.503 . S
C475 C474 1.370 . S
C475 C476 1.403 . S
C476 C475 1.403 . S
C476 C477 1.404 . S
C476 C479 1.539 . S
C477 C473 1.408 . S
C477 C476 1.404 . S
C477 H489 0.930 . S
C478 C474 1.524 . S
C478 H490 0.956 . S
C478 H491 0.961 . S
C478 H492 0.961 . S
C479 C476 1.539 . S
C479 H493 0.958 . S
C479 H494 0.961 . S
C479 H495 0.960 . S
H480 C464 0.931 . S
H481 C469 0.929 . S
H482 C470 0.960 . S
H483 C470 0.962 . S
H484 C470 0.960 . S
H485 C471 0.961 . S
H486 C471 0.961 . S
H487 C471 0.961 . S
H488 C472 0.931 . S
H489 C477 0.930 . S
H490 C478 0.956 . S
H491 C478 0.961 . S
H492 C478 0.961 . S
H493 C479 0.958 . S
H494 C479 0.961 . S
H495 C479 0.960 . S
C496 C497 1.391 . S
C496 C498 1.394 . S
C496 H512 0.931 . S
C497 C496 1.391 . S
C497 C501 1.376 . S
C498 C496 1.394 . S
C498 C499 1.369 . S
C498 C502 1.531 . S
C499 C498 1.369 . S
C499 C500 1.410 . S
C499 C507 1.503 . S
C500 C499 1.410 . S
C500 C501 1.392 . S
C500 C503 1.511 . S
C501 C497 1.376 . S
C501 C500 1.392 . S
C501 H513 0.929 . S
C502 C498 1.531 . S
C502 H514 0.960 . S
C502 H515 0.962 . S
C502 H516 0.960 . S
C503 C500 1.511 . S
C503 H517 0.961 . S
C503 H518 0.961 . S
C503 H519 0.961 . S
C504 C505 1.370 . S
C504 C506 1.363 . S
C504 H520 0.931 . S
C505 C504 1.370 . S
C505 C509 1.408 . S
C506 C504 1.363 . S
C506 C507 1.370 . S
C506 C510 1.524 . S
C507 C499 1.503 . S
C507 C506 1.370 . S
C507 C508 1.403 . S
C508 C507 1.403 . S
C508 C509 1.404 . S
C508 C511 1.539 . S
C509 C505 1.408 . S
C509 C508 1.404 . S
C509 H521 0.930 . S
C510 C506 1.524 . S
C510 H522 0.956 . S
C510 H523 0.961 . S
C510 H524 0.961 . S
C511 C508 1.539 . S
C511 H525 0.958 . S
C511 H526 0.961 . S
C511 H527 0.960 . S
H512 C496 0.931 . S
H513 C501 0.929 . S
H514 C502 0.960 . S
H515 C502 0.962 . S
H516 C502 0.960 . S
H517 C503 0.961 . S
H518 C503 0.961 . S
H519 C503 0.961 . S
H520 C504 0.931 . S
H521 C509 0.930 . S
H522 C510 0.956 . S
H523 C510 0.961 . S
H524 C510 0.961 . S
H525 C511 0.958 . S
H526 C511 0.961 . S
H527 C511 0.960 . S
C528 C529 1.391 . S
C528 C530 1.394 . S
C528 H544 0.931 . S
C529 C528 1.391 . S
C529 C533 1.376 . S
C530 C528 1.394 . S
C530 C531 1.369 . S
C530 C534 1.531 . S
C531 C530 1.369 . S
C531 C532 1.410 . S
C531 C539 1.503 . S
C532 C531 1.410 . S
C532 C533 1.392 . S
C532 C535 1.511 . S
C533 C529 1.376 . S
C533 C532 1.392 . S
C533 H545 0.929 . S
C534 C530 1.531 . S
C534 H546 0.960 . S
C534 H547 0.962 . S
C534 H548 0.960 . S
C535 C532 1.511 . S
C535 H549 0.961 . S
C535 H550 0.961 . S
C535 H551 0.961 . S
C536 C537 1.370 . S
C536 C538 1.363 . S
C536 H552 0.931 . S
C537 C536 1.370 . S
C537 C541 1.408 . S
C538 C536 1.363 . S
C538 C539 1.370 . S
C538 C542 1.524 . S
C539 C531 1.503 . S
C539 C538 1.370 . S
C539 C540 1.403 . S
C540 C539 1.403 . S
C540 C541 1.404 . S
C540 C543 1.539 . S
C541 C537 1.408 . S
C541 C540 1.404 . S
C541 H553 0.930 . S
C542 C538 1.524 . S
C542 H554 0.956 . S
C542 H555 0.961 . S
C542 H556 0.961 . S
C543 C540 1.539 . S
C543 H557 0.958 . S
C543 H558 0.961 . S
C543 H559 0.960 . S
H544 C528 0.931 . S
H545 C533 0.929 . S
H546 C534 0.960 . S
H547 C534 0.962 . S
H548 C534 0.960 . S
H549 C535 0.961 . S
H550 C535 0.961 . S
H551 C535 0.961 . S
H552 C536 0.931 . S
H553 C541 0.930 . S
H554 C542 0.956 . S
H555 C542 0.961 . S
H556 C542 0.961 . S
H557 C543 0.958 . S
H558 C543 0.961 . S
H559 C543 0.960 . S
C560 C561 1.391 . S
C560 C562 1.394 . S
C560 H576 0.931 . S
C561 C560 1.391 . S
C561 C565 1.376 . S
C562 C560 1.394 . S
C562 C563 1.369 . S
C562 C566 1.531 . S
C563 C562 1.369 . S
C563 C564 1.410 . S
C563 C571 1.503 . S
C564 C563 1.410 . S
C564 C565 1.392 . S
C564 C567 1.511 . S
C565 C561 1.376 . S
C565 C564 1.392 . S
C565 H577 0.929 . S
C566 C562 1.531 . S
C566 H578 0.960 . S
C566 H579 0.962 . S
C566 H580 0.960 . S
C567 C564 1.511 . S
C567 H581 0.961 . S
C567 H582 0.961 . S
C567 H583 0.961 . S
C568 C569 1.370 . S
C568 C570 1.363 . S
C568 H584 0.931 . S
C569 C568 1.370 . S
C569 C573 1.408 . S
C570 C568 1.363 . S
C570 C571 1.370 . S
C570 C574 1.524 . S
C571 C563 1.503 . S
C571 C570 1.370 . S
C571 C572 1.403 . S
C572 C571 1.403 . S
C572 C573 1.404 . S
C572 C575 1.539 . S
C573 C569 1.408 . S
C573 C572 1.404 . S
C573 H585 0.930 . S
C574 C570 1.524 . S
C574 H586 0.956 . S
C574 H587 0.961 . S
C574 H588 0.961 . S
C575 C572 1.539 . S
C575 H589 0.958 . S
C575 H590 0.961 . S
C575 H591 0.960 . S
H576 C560 0.931 . S
H577 C565 0.929 . S
H578 C566 0.960 . S
H579 C566 0.962 . S
H580 C566 0.960 . S
H581 C567 0.961 . S
H582 C567 0.961 . S
H583 C567 0.961 . S
H584 C568 0.931 . S
H585 C573 0.930 . S
H586 C574 0.956 . S
H587 C574 0.961 . S
H588 C574 0.961 . S
H589 C575 0.958 . S
H590 C575 0.961 . S
H591 C575 0.960 . S
C592 C593 1.391 . S
C592 C594 1.394 . S
C592 H608 0.931 . S
C593 C592 1.391 . S
C593 C597 1.376 . S
C594 C592 1.394 . S
C594 C595 1.369 . S
C594 C598 1.531 . S
C595 C594 1.369 . S
C595 C596 1.410 . S
C595 C603 1.503 . S
C596 C595 1.410 . S
C596 C597 1.392 . S
C596 C599 1.511 . S
C597 C593 1.376 . S
C597 C596 1.392 . S
C597 H609 0.929 . S
C598 C594 1.531 . S
C598 H610 0.960 . S
C598 H611 0.962 . S
C598 H612 0.960 . S
C599 C596 1.511 . S
C599 H613 0.961 . S
C599 H614 0.961 . S
C599 H615 0.961 . S
C600 C601 1.370 . S
C600 C602 1.363 . S
C600 H616 0.931 . S
C601 C600 1.370 . S
C601 C605 1.408 . S
C602 C600 1.363 . S
C602 C603 1.370 . S
C602 C606 1.524 . S
C603 C595 1.503 . S
C603 C602 1.370 . S
C603 C604 1.403 . S
C604 C603 1.403 . S
C604 C605 1.404 . S
C604 C607 1.539 . S
C605 C601 1.408 . S
C605 C604 1.404 . S
C605 H617 0.930 . S
C606 C602 1.524 . S
C606 H618 0.956 . S
C606 H619 0.961 . S
C606 H620 0.961 . S
C607 C604 1.539 . S
C607 H621 0.958 . S
C607 H622 0.961 . S
C607 H623 0.960 . S
H608 C592 0.931 . S
H609 C597 0.929 . S
H610 C598 0.960 . S
H611 C598 0.962 . S
H612 C598 0.960 . S
H613 C599 0.961 . S
H614 C599 0.961 . S
H615 C599 0.961 . S
H616 C600 0.931 . S
H617 C605 0.930 . S
H618 C606 0.956 . S
H619 C606 0.961 . S
H620 C606 0.961 . S
H621 C607 0.958 . S
H622 C607 0.961 . S
H623 C607 0.960 . S
C624 C625 1.391 . S
C624 C626 1.394 . S
C624 H640 0.931 . S
C625 C624 1.391 . S
C625 C629 1.376 . S
C626 C624 1.394 . S
C626 C627 1.369 . S
C626 C630 1.531 . S
C627 C626 1.369 . S
C627 C628 1.410 . S
C627 C635 1.503 . S
C628 C627 1.410 . S
C628 C629 1.392 . S
C628 C631 1.511 . S
C629 C625 1.376 . S
C629 C628 1.392 . S
C629 H641 0.929 . S
C630 C626 1.531 . S
C630 H642 0.960 . S
C630 H643 0.962 . S
C630 H644 0.960 . S
C631 C628 1.511 . S
C631 H645 0.961 . S
C631 H646 0.961 . S
C631 H647 0.961 . S
C632 C633 1.370 . S
C632 C634 1.363 . S
C632 H648 0.931 . S
C633 C632 1.370 . S
C633 C637 1.408 . S
C634 C632 1.363 . S
C634 C635 1.370 . S
C634 C638 1.524 . S
C635 C627 1.503 . S
C635 C634 1.370 . S
C635 C636 1.403 . S
C636 C635 1.403 . S
C636 C637 1.404 . S
C636 C639 1.539 . S
C637 C633 1.408 . S
C637 C636 1.404 . S
C637 H649 0.930 . S
C638 C634 1.524 . S
C638 H650 0.956 . S
C638 H651 0.961 . S
C638 H652 0.961 . S
C639 C636 1.539 . S
C639 H653 0.958 . S
C639 H654 0.961 . S
C639 H655 0.960 . S
H640 C624 0.931 . S
H641 C629 0.929 . S
H642 C630 0.960 . S
H643 C630 0.962 . S
H644 C630 0.960 . S
H645 C631 0.961 . S
H646 C631 0.961 . S
H647 C631 0.961 . S
H648 C632 0.931 . S
H649 C637 0.930 . S
H650 C638 0.956 . S
H651 C638 0.961 . S
H652 C638 0.961 . S
H653 C639 0.958 . S
H654 C639 0.961 . S
H655 C639 0.960 . S
C656 C657 1.391 . S
C656 C658 1.394 . S
C656 H672 0.931 . S
C657 C656 1.391 . S
C657 C661 1.376 . S
C658 C656 1.394 . S
C658 C659 1.369 . S
C658 C662 1.531 . S
C659 C658 1.369 . S
C659 C660 1.410 . S
C659 C667 1.503 . S
C660 C659 1.410 . S
C660 C661 1.392 . S
C660 C663 1.511 . S
C661 C657 1.376 . S
C661 C660 1.392 . S
C661 H673 0.929 . S
C662 C658 1.531 . S
C662 H674 0.960 . S
C662 H675 0.962 . S
C662 H676 0.960 . S
C663 C660 1.511 . S
C663 H677 0.961 . S
C663 H678 0.961 . S
C663 H679 0.961 . S
C664 C665 1.370 . S
C664 C666 1.363 . S
C664 H680 0.931 . S
C665 C664 1.370 . S
C665 C669 1.408 . S
C666 C664 1.363 . S
C666 C667 1.370 . S
C666 C670 1.524 . S
C667 C659 1.503 . S
C667 C666 1.370 . S
C667 C668 1.403 . S
C668 C667 1.403 . S
C668 C669 1.404 . S
C668 C671 1.539 . S
C669 C665 1.408 . S
C669 C668 1.404 . S
C669 H681 0.930 . S
C670 C666 1.524 . S
C670 H682 0.956 . S
C670 H683 0.961 . S
C670 H684 0.961 . S
C671 C668 1.539 . S
C671 H685 0.958 . S
C671 H686 0.961 . S
C671 H687 0.960 . S
H672 C656 0.931 . S
H673 C661 0.929 . S
H674 C662 0.960 . S
H675 C662 0.962 . S
H676 C662 0.960 . S
H677 C663 0.961 . S
H678 C663 0.961 . S
H679 C663 0.961 . S
H680 C664 0.931 . S
H681 C669 0.930 . S
H682 C670 0.956 . S
H683 C670 0.961 . S
H684 C670 0.961 . S
H685 C671 0.958 . S
H686 C671 0.961 . S
H687 C671 0.960 . S
C688 C689 1.391 . S
C688 C690 1.394 . S
C688 H704 0.931 . S
C689 C688 1.391 . S
C689 C693 1.376 . S
C690 C688 1.394 . S
C690 C691 1.369 . S
C690 C694 1.531 . S
C691 C690 1.369 . S
C691 C692 1.410 . S
C691 C699 1.503 . S
C692 C691 1.410 . S
C692 C693 1.392 . S
C692 C695 1.511 . S
C693 C689 1.376 . S
C693 C692 1.392 . S
C693 H705 0.929 . S
C694 C690 1.531 . S
C694 H706 0.960 . S
C694 H707 0.962 . S
C694 H708 0.960 . S
C695 C692 1.511 . S
C695 H709 0.961 . S
C695 H710 0.961 . S
C695 H711 0.961 . S
C696 C697 1.370 . S
C696 C698 1.363 . S
C696 H712 0.931 . S
C697 C696 1.370 . S
C697 C701 1.408 . S
C698 C696 1.363 . S
C698 C699 1.370 . S
C698 C702 1.524 . S
C699 C691 1.503 . S
C699 C698 1.370 . S
C699 C700 1.403 . S
C700 C699 1.403 . S
C700 C701 1.404 . S
C700 C703 1.539 . S
C701 C697 1.408 . S
C701 C700 1.404 . S
C701 H713 0.930 . S
C702 C698 1.524 . S
C702 H714 0.956 . S
C702 H715 0.961 . S
C702 H716 0.961 . S
C703 C700 1.539 . S
C703 H717 0.958 . S
C703 H718 0.961 . S
C703 H719 0.960 . S
H704 C688 0.931 . S
H705 C693 0.929 . S
H706 C694 0.960 . S
H707 C694 0.962 . S
H708 C694 0.960 . S
H709 C695 0.961 . S
H710 C695 0.961 . S
H711 C695 0.961 . S
H712 C696 0.931 . S
H713 C701 0.930 . S
H714 C702 0.956 . S
H715 C702 0.961 . S
H716 C702 0.961 . S
H717 C703 0.958 . S
H718 C703 0.961 . S
H719 C703 0.960 . S
C720 C721 1.391 . S
C720 C722 1.394 . S
C720 H736 0.931 . S
C721 C720 1.391 . S
C721 C725 1.376 . S
C722 C720 1.394 . S
C722 C723 1.369 . S
C722 C726 1.531 . S
C723 C722 1.369 . S
C723 C724 1.410 . S
C723 C731 1.503 . S
C724 C723 1.410 . S
C724 C725 1.392 . S
C724 C727 1.511 . S
C725 C721 1.376 . S
C725 C724 1.392 . S
C725 H737 0.929 . S
C726 C722 1.531 . S
C726 H738 0.960 . S
C726 H739 0.962 1_455 S
C726 H740 0.960 . S
C727 C724 1.511 . S
C727 H741 0.961 . S
C727 H742 0.961 . S
C727 H743 0.961 . S
C728 C729 1.364 1_554 S
C728 C730 1.363 . S
C728 H744 0.931 1_455 S
C729 C728 1.364 1_556 S
C729 C733 1.403 1_556 S
C730 C728 1.363 . S
C730 C731 1.370 . S
C730 C734 1.524 1_455 S
C731 C723 1.503 . S
C731 C730 1.370 . S
C731 C732 1.403 . S
C732 C731 1.403 . S
C732 C733 1.404 . S
C732 C735 1.539 . S
C733 C729 1.403 1_554 S
C733 C732 1.404 . S
C733 H745 0.930 . S
C734 C730 1.524 1_655 S
C734 H746 0.956 . S
C734 H747 0.961 . S
C734 H748 0.961 . S
C735 C732 1.539 . S
C735 H749 0.958 . S
C735 H750 0.961 . S
C735 H751 0.960 . S
H736 C720 0.931 . S
H737 C725 0.929 . S
H738 C726 0.960 . S
H739 C726 0.962 1_655 S
H740 C726 0.960 . S
H741 C727 0.961 . S
H742 C727 0.961 . S
H743 C727 0.961 . S
H744 C728 0.931 1_655 S
H745 C733 0.930 . S
H746 C734 0.956 . S
H747 C734 0.961 . S
H748 C734 0.961 . S
H749 C735 0.958 . S
H750 C735 0.961 . S
H751 C735 0.960 . S
C752 C753 1.391 . S
C752 C754 1.394 . S
C752 H768 0.931 . S
C753 C752 1.391 . S
C753 C757 1.376 . S
C754 C752 1.394 . S
C754 C755 1.369 . S
C754 C758 1.531 . S
C755 C754 1.369 . S
C755 C756 1.410 . S
C755 C763 1.503 . S
C756 C755 1.410 . S
C756 C757 1.392 . S
C756 C759 1.491 1_545 S
C757 C753 1.376 . S
C757 C756 1.392 . S
C757 H769 0.929 1_545 S
C758 C754 1.531 . S
C758 H770 0.960 . S
C758 H771 0.962 . S
C758 H772 0.960 . S
C759 C756 1.491 1_565 S
C759 H773 0.986 . S
C759 H774 0.964 . S
C759 H775 0.954 1_565 S
C760 C761 1.370 1_565 S
C760 C762 1.363 . S
C760 H776 0.931 . S
C761 C760 1.370 1_545 S
C761 C765 1.408 . S
C762 C760 1.363 . S
C762 C763 1.370 1_565 S
C762 C766 1.524 . S
C763 C755 1.503 . S
C763 C762 1.370 1_545 S
C763 C764 1.403 . S
C764 C763 1.403 . S
C764 C765 1.404 . S
C764 C767 1.539 . S
C765 C761 1.408 . S
C765 C764 1.404 . S
C765 H777 0.930 . S
C766 C762 1.524 . S
C766 H778 0.956 . S
C766 H779 0.961 . S
C766 H780 0.961 . S
C767 C764 1.539 . S
C767 H781 0.958 . S
C767 H782 0.961 . S
C767 H783 0.960 . S
H768 C752 0.931 . S
H769 C757 0.929 1_565 S
H770 C758 0.960 . S
H771 C758 0.962 . S
H772 C758 0.960 . S
H773 C759 0.986 . S
H774 C759 0.964 . S
H775 C759 0.954 1_545 S
H776 C760 0.931 . S
H777 C765 0.930 . S
H778 C766 0.956 . S
H779 C766 0.961 . S
H780 C766 0.961 . S
H781 C767 0.958 . S
H782 C767 0.961 . S
H783 C767 0.960 . S
C784 C785 1.391 . S
C784 C786 1.394 . S
C784 H800 0.931 . S
C785 C784 1.391 . S
C785 C789 1.376 . S
C786 C784 1.394 . S
C786 C787 1.369 . S
C786 C790 1.531 . S
C787 C786 1.369 . S
C787 C788 1.410 . S
C787 C795 1.503 . S
C788 C787 1.410 . S
C788 C789 1.392 . S
C788 C791 1.511 . S
C789 C785 1.376 . S
C789 C788 1.392 . S
C789 H801 0.929 . S
C790 C786 1.531 . S
C790 H802 0.960 . S
C790 H803 0.962 . S
C790 H804 0.960 . S
C791 C788 1.511 . S
C791 H805 0.961 . S
C791 H806 0.961 . S
C791 H807 0.961 . S
C792 C793 1.370 . S
C792 C794 1.363 . S
C792 H808 0.931 . S
C793 C792 1.370 . S
C793 C797 1.408 . S
C794 C792 1.363 . S
C794 C795 1.370 . S
C794 C798 1.524 . S
C795 C787 1.503 . S
C795 C794 1.370 . S
C795 C796 1.403 . S
C796 C795 1.403 . S
C796 C797 1.404 . S
C796 C799 1.539 . S
C797 C793 1.408 . S
C797 C796 1.404 . S
C797 H809 0.930 . S
C798 C794 1.524 . S
C798 H810 0.956 . S
C798 H811 0.961 . S
C798 H812 0.961 . S
C799 C796 1.539 . S
C799 H813 0.958 . S
C799 H814 0.961 . S
C799 H815 0.960 . S
H800 C784 0.931 . S
H801 C789 0.929 . S
H802 C790 0.960 . S
H803 C790 0.962 . S
H804 C790 0.960 . S
H805 C791 0.961 . S
H806 C791 0.961 . S
H807 C791 0.961 . S
H808 C792 0.931 . S
H809 C797 0.930 . S
H810 C798 0.956 . S
H811 C798 0.961 . S
H812 C798 0.961 . S
H813 C799 0.958 . S
H814 C799 0.961 . S
H815 C799 0.960 . S
C816 C817 1.391 1_565 S
C816 C818 1.394 . S
C816 H832 0.931 . S
C817 C816 1.391 1_545 S
C817 C821 1.376 . S
C818 C816 1.394 . S
C818 C819 1.369 . S
C818 C822 1.531 . S
C819 C818 1.369 . S
C819 C820 1.410 1_565 S
C819 C827 1.503 . S
C820 C819 1.410 1_545 S
C820 C821 1.392 . S
C820 C823 1.511 . S
C821 C817 1.376 . S
C821 C820 1.392 . S
C821 H833 0.929 . S
C822 C818 1.531 . S
C822 H834 0.960 . S
C822 H835 0.962 . S
C822 H836 0.960 . S
C823 C820 1.511 . S
C823 H837 0.961 . S
C823 H838 0.961 . S
C823 H839 0.961 . S
C824 C825 1.370 1_545 S
C824 C826 1.363 . S
C824 H840 0.931 . S
C825 C824 1.370 1_565 S
C825 C829 1.408 . S
C826 C824 1.363 . S
C826 C827 1.370 1_545 S
C826 C830 1.524 . S
C827 C819 1.503 . S
C827 C826 1.370 1_565 S
C827 C828 1.403 . S
C828 C827 1.403 . S
C828 C829 1.404 . S
C828 C831 1.539 . S
C829 C825 1.408 . S
C829 C828 1.404 . S
C829 H841 0.930 . S
C830 C826 1.524 . S
C830 H842 0.956 . S
C830 H843 0.961 . S
C830 H844 0.961 . S
C831 C828 1.539 . S
C831 H845 0.958 . S
C831 H846 0.961 . S
C831 H847 0.960 . S
H832 C816 0.931 . S
H833 C821 0.929 . S
H834 C822 0.960 . S
H835 C822 0.962 . S
H836 C822 0.960 . S
H837 C823 0.961 . S
H838 C823 0.961 . S
H839 C823 0.961 . S
H840 C824 0.931 . S
H841 C829 0.930 . S
H842 C830 0.956 . S
H843 C830 0.961 . S
H844 C830 0.961 . S
H845 C831 0.958 . S
H846 C831 0.961 . S
H847 C831 0.960 . S
C848 C849 1.391 . S
C848 C850 1.394 . S
C848 H864 0.931 . S
C849 C848 1.391 . S
C849 C853 1.376 . S
C850 C848 1.394 . S
C850 C851 1.369 . S
C850 C854 1.531 . S
C851 C850 1.369 . S
C851 C852 1.410 . S
C851 C859 1.503 . S
C852 C851 1.410 . S
C852 C853 1.392 . S
C852 C855 1.511 . S
C853 C849 1.376 . S
C853 C852 1.392 . S
C853 H865 0.929 . S
C854 C850 1.531 . S
C854 H866 0.960 . S
C854 H867 0.962 . S
C854 H868 0.960 . S
C855 C852 1.511 . S
C855 H869 0.961 . S
C855 H870 0.961 . S
C855 H871 0.961 . S
C856 C857 1.370 . S
C856 C858 1.363 . S
C856 H872 0.931 . S
C857 C856 1.370 . S
C857 C861 1.408 . S
C858 C856 1.363 . S
C858 C859 1.370 . S
C858 C862 1.524 . S
C859 C851 1.503 . S
C859 C858 1.370 . S
C859 C860 1.403 . S
C860 C859 1.403 . S
C860 C861 1.404 . S
C860 C863 1.539 . S
C861 C857 1.408 . S
C861 C860 1.404 . S
C861 H873 0.930 . S
C862 C858 1.524 . S
C862 H874 0.956 . S
C862 H875 0.961 . S
C862 H876 0.961 . S
C863 C860 1.539 . S
C863 H877 0.958 . S
C863 H878 0.961 . S
C863 H879 0.960 . S
H864 C848 0.931 . S
H865 C853 0.929 . S
H866 C854 0.960 . S
H867 C854 0.962 . S
H868 C854 0.960 . S
H869 C855 0.961 . S
H870 C855 0.961 . S
H871 C855 0.961 . S
H872 C856 0.931 . S
H873 C861 0.930 . S
H874 C862 0.956 . S
H875 C862 0.961 . S
H876 C862 0.961 . S
H877 C863 0.958 . S
H878 C863 0.961 . S
H879 C863 0.960 . S
C880 C881 1.391 1_655 S
C880 C882 1.394 . S
C880 H896 0.931 . S
C881 C880 1.391 1_455 S
C881 C885 1.376 . S
C882 C880 1.394 . S
C882 C883 1.369 1_655 S
C882 C886 1.531 . S
C883 C882 1.369 1_455 S
C883 C884 1.410 . S
C883 C891 1.503 . S
C884 C883 1.410 . S
C884 C885 1.392 . S
C884 C887 1.511 . S
C885 C881 1.376 . S
C885 C884 1.392 . S
C885 H897 0.929 . S
C886 C882 1.531 . S
C886 H898 0.960 . S
C886 H899 0.962 . S
C886 H900 0.960 . S
C887 C884 1.511 . S
C887 H901 0.961 . S
C887 H902 0.961 . S
C887 H903 0.961 . S
C888 C889 1.352 1_655 S
C888 C890 1.363 . S
C888 H904 0.931 . S
C889 C888 1.352 1_455 S
C889 C893 1.430 . S
C890 C888 1.363 . S
C890 C891 1.370 1_655 S
C890 C894 1.524 . S
C891 C883 1.503 . S
C891 C890 1.370 1_455 S
C891 C892 1.403 . S
C892 C891 1.403 . S
C892 C893 1.404 . S
C892 C895 1.539 . S
C893 C889 1.430 . S
C893 C892 1.404 . S
C893 H905 0.930 . S
C894 C890 1.524 . S
C894 H906 0.956 . S
C894 H907 0.961 1_655 S
C894 H908 0.961 . S
C895 C892 1.539 . S
C895 H909 0.958 . S
C895 H910 0.961 . S
C895 H911 0.960 . S
H896 C880 0.931 . S
H897 C885 0.929 . S
H898 C886 0.960 . S
H899 C886 0.962 . S
H900 C886 0.960 . S
H901 C887 0.961 . S
H902 C887 0.961 . S
H903 C887 0.961 . S
H904 C888 0.931 . S
H905 C893 0.930 . S
H906 C894 0.956 . S
H907 C894 0.961 1_455 S
H908 C894 0.961 . S
H909 C895 0.958 . S
H910 C895 0.961 . S
H911 C895 0.960 . S
C337 C7 0.601 . S
C345 C325 0.610 . S
C369 C51 1.924 . S
C377 C253 1.873 . S
C401 C87 1.207 . S
C409 C289 1.218 . S
C433 C16 0.527 . S
C441 C301 0.324 . S
C473 C229 1.995 . S
C465 C42 2.041 . S
C505 C265 1.316 . S
C497 C96 1.307 . S
C529 C47 1.225 . S
C537 C181 1.220 . S
C561 C91 3.116 . S
C569 C193 3.070 . S
C593 C2 2.068 . S
C601 C121 2.048 . S
C633 C157 1.317 . S
C625 C56 1.306 . S
C665 C217 2.954 . S
C657 C82 3.012 . S
C689 C11 1.905 . S
C697 C145 1.871 . S
C729 C223 1.783 . S
C721 C19 1.713 . S
C753 C50 1.335 . S
C761 C151 1.374 . S
C785 C99 1.432 . S
C793 C187 1.508 . S
C825 C295 1.481 . S
C817 C59 1.476 . S
C857 C331 1.101 1_556 S
C849 C90 1.109 . S
C881 C10 1.303 . S
C889 C259 1.357 . S
