# Generated by pormake.
# Topology zzz, (3,6)-cn, num edge types: 1
# Building blocks:
#     Node 0, Type 0, BuildingBlock: BELTOD_clean_linker_0, # of connection points: 3
#     Node 1, Type 0, BuildingBlock: BELTOD_clean_linker_0, # of connection points: 3
#     Node 2, Type 0, BuildingBlock: BELTOD_clean_linker_0, # of connection points: 3
#     Node 3, Type 0, BuildingBlock: BELTOD_clean_linker_0, # of connection points: 3
#     Node 4, Type 0, BuildingBlock: BELTOD_clean_linker_0, # of connection points: 3
#     Node 5, Type 0, BuildingBlock: BELTOD_clean_linker_0, # of connection points: 3
#     Node 6, Type 0, BuildingBlock: BELTOD_clean_linker_0, # of connection points: 3
#     Node 7, Type 0, BuildingBlock: BELTOD_clean_linker_0, # of connection points: 3
#     Node 8, Type 1, BuildingBlock: BETDAH_clean_sbu_0, # of connection points: 6
#     Node 9, Type 1, BuildingBlock: BETDAH_clean_sbu_0, # of connection points: 6
#     Node 10, Type 1, BuildingBlock: BETDAH_clean_sbu_0, # of connection points: 6
#     Node 11, Type 1, BuildingBlock: BETDAH_clean_sbu_0, # of connection points: 6
#     Edge 12, Type (0, 1), BuildingBlock: XIVTED_clean_linker_0, # of connection points: 2
#     Edge 13, Type (0, 1), BuildingBlock: XIVTED_clean_linker_0, # of connection points: 2
#     Edge 14, Type (0, 1), BuildingBlock: XIVTED_clean_linker_0, # of connection points: 2
#     Edge 15, Type (0, 1), BuildingBlock: XIVTED_clean_linker_0, # of connection points: 2
#     Edge 16, Type (0, 1), BuildingBlock: XIVTED_clean_linker_0, # of connection points: 2
#     Edge 17, Type (0, 1), BuildingBlock: XIVTED_clean_linker_0, # of connection points: 2
#     Edge 18, Type (0, 1), BuildingBlock: XIVTED_clean_linker_0, # of connection points: 2
#     Edge 19, Type (0, 1), BuildingBlock: XIVTED_clean_linker_0, # of connection points: 2
#     Edge 20, Type (0, 1), BuildingBlock: XIVTED_clean_linker_0, # of connection points: 2
#     Edge 21, Type (0, 1), BuildingBlock: XIVTED_clean_linker_0, # of connection points: 2
#     Edge 22, Type (0, 1), BuildingBlock: XIVTED_clean_linker_0, # of connection points: 2
#     Edge 23, Type (0, 1), BuildingBlock: XIVTED_clean_linker_0, # of connection points: 2
#     Edge 24, Type (0, 1), BuildingBlock: XIVTED_clean_linker_0, # of connection points: 2
#     Edge 25, Type (0, 1), BuildingBlock: XIVTED_clean_linker_0, # of connection points: 2
#     Edge 26, Type (0, 1), BuildingBlock: XIVTED_clean_linker_0, # of connection points: 2
#     Edge 27, Type (0, 1), BuildingBlock: XIVTED_clean_linker_0, # of connection points: 2
#     Edge 28, Type (0, 1), BuildingBlock: XIVTED_clean_linker_0, # of connection points: 2
#     Edge 29, Type (0, 1), BuildingBlock: XIVTED_clean_linker_0, # of connection points: 2
#     Edge 30, Type (0, 1), BuildingBlock: XIVTED_clean_linker_0, # of connection points: 2
#     Edge 31, Type (0, 1), BuildingBlock: XIVTED_clean_linker_0, # of connection points: 2
#     Edge 32, Type (0, 1), BuildingBlock: XIVTED_clean_linker_0, # of connection points: 2
#     Edge 33, Type (0, 1), BuildingBlock: XIVTED_clean_linker_0, # of connection points: 2
#     Edge 34, Type (0, 1), BuildingBlock: XIVTED_clean_linker_0, # of connection points: 2
#     Edge 35, Type (0, 1), BuildingBlock: XIVTED_clean_linker_0, # of connection points: 2
# Relax obj value: 0.432
# Max RMSD: 0.259
# Mean RMSD: 0.246
data_MOF--net-zzz--node1-BETDAH_clean_sbu_0--node2-BELTOD_clean_linker_0--edge1-XIVTED_clean_linker_0
_symmetry_space_group_name_H-M    P1
_symmetry_Int_Tables_number       1
_symmetry_cell_setting            triclinic
loop_
_symmetry_equiv_pos_as_xyz
'x, y, z'
_cell_length_a     55.622144
_cell_length_b     55.671732
_cell_length_c     16.904637
_cell_angle_alpha  89.866113
_cell_angle_beta   90.032818
_cell_angle_gamma 90.094287
loop_
_atom_site_label
_atom_site_type_symbol
_atom_site_fract_x
_atom_site_fract_y
_atom_site_fract_z
_atom_type_partial_charge
P0 P 0.72255 0.47011 0.4058 0.0
H1 H 0.74028 0.47654 0.56719 0.0
H2 H 0.77885 0.49 0.61705 0.0
H3 H 0.7969 0.51727 0.38473 0.0
H4 H 0.7589 0.50201 0.3342 0.0
H5 H 0.67449 0.4544 0.36721 0.0
H6 H 0.64527 0.46689 0.26839 0.0
H7 H 0.69084 0.52672 0.20428 0.0
H8 H 0.72009 0.51417 0.30467 0.0
H9 H 0.7482 0.42636 0.44841 0.0
H10 H 0.73448 0.46777 0.23731 0.0
O11 O 0.70879 0.45556 0.47948 0.0
H12 H 0.77892 0.40346 0.37804 0.0
H13 H 0.7653 0.44557 0.16758 0.0
C14 C 0.74621 0.48866 0.44701 0.0
C15 C 0.75214 0.4861 0.52729 0.0
C16 C 0.77445 0.49387 0.55598 0.0
C17 C 0.79146 0.50455 0.50507 0.0
C18 C 0.78468 0.50866 0.42575 0.0
C19 C 0.76249 0.5005 0.3969 0.0
C20 C 0.69945 0.48343 0.34433 0.0
C21 C 0.67797 0.47062 0.33363 0.0
C22 C 0.6612 0.47779 0.27681 0.0
C23 C 0.66566 0.49781 0.22817 0.0
C24 C 0.68693 0.5111 0.24037 0.0
C25 C 0.70365 0.50401 0.29818 0.0
C26 C 0.73883 0.44857 0.34792 0.0
C27 C 0.75116 0.42993 0.38616 0.0
C28 C 0.76887 0.41701 0.34606 0.0
C29 C 0.77473 0.42279 0.26733 0.0
C30 C 0.76105 0.44032 0.2277 0.0
C31 C 0.74336 0.45317 0.2678 0.0
P32 P 0.04937 0.71897 0.42353 0.0
H33 H 0.0437 0.73782 0.58354 0.0
H34 H 0.02976 0.77647 0.63042 0.0
H35 H 1.00035 0.79171 0.39883 0.0
H36 H 0.01592 0.75356 0.35113 0.0
H37 H 0.06749 0.67269 0.3775 0.0
H38 H 0.05443 0.64283 0.28199 0.0
H39 H 0.98976 0.6837 0.23857 0.0
H40 H 1.00306 0.71369 0.33528 0.0
H41 H 0.09316 0.74552 0.46036 0.0
H42 H 0.04997 0.73026 0.25457 0.0
O43 O 0.06462 0.70593 0.49705 0.0
H44 H 0.11509 0.77621 0.38583 0.0
H45 H 0.0712 0.76105 0.1807 0.0
C46 C 0.0305 0.74235 0.46398 0.0
C47 C 0.03354 0.74905 0.54332 0.0
C48 C 0.0255 0.77139 0.57026 0.0
C49 C 0.01411 0.78764 0.51844 0.0
C50 C 1.00949 0.78005 0.44035 0.0
C51 C 0.01787 0.75781 0.41323 0.0
C52 C 0.0362 0.69535 0.36439 0.0
C53 C 0.05018 0.67498 0.34906 0.0
C54 C 0.04266 0.65785 0.29422 0.0
C55 C 0.02099 0.66078 0.25247 0.0
C56 C 1.00664 0.68098 0.26923 0.0
C57 C 0.01417 0.69812 0.3249 0.0
C58 C 0.07017 0.73538 0.36275 0.0
C59 C 0.08899 0.74816 0.39836 0.0
C60 C 0.10135 0.76585 0.35589 0.0
C61 C 0.0948 0.77124 0.27744 0.0
C62 C 0.07704 0.75717 0.24049 0.0
C63 C 0.06477 0.73949 0.28293 0.0
P64 P 0.79661 0.0461 0.40851 0.0
H65 H 0.77729 0.03964 0.56773 0.0
H66 H 0.73829 0.02587 0.61296 0.0
H67 H 0.72329 0.99788 0.37963 0.0
H68 H 0.76187 0.01323 0.33368 0.0
H69 H 0.84286 0.06466 0.36299 0.0
H70 H 0.87307 0.05206 0.26803 0.0
H71 H 0.83221 0.98758 0.22092 0.0
H72 H 0.80183 1.00044 0.31709 0.0
H73 H 0.77142 0.09031 0.44884 0.0
H74 H 0.78431 0.04764 0.24066 0.0
O75 O 0.8098 0.06057 0.4833 0.0
H76 H 0.7404 0.11278 0.37797 0.0
H77 H 0.75309 0.0693 0.17052 0.0
C78 C 0.77295 0.02711 0.44745 0.0
C79 C 0.76604 0.0298 0.52675 0.0
C80 C 0.74349 0.02187 0.55274 0.0
C81 C 0.72721 0.01095 0.49998 0.0
C82 C 0.73498 1.00666 0.42188 0.0
C83 C 0.75745 0.01491 0.39574 0.0
C84 C 0.82018 0.03342 0.34808 0.0
C85 C 0.84061 0.04751 0.33373 0.0
C86 C 0.85795 0.04025 0.27922 0.0
C87 C 0.85519 0.01873 0.23681 0.0
C88 C 0.83482 1.00434 0.25217 0.0
C89 C 0.81747 0.01161 0.30752 0.0
C90 C 0.78036 0.06751 0.34976 0.0
C91 C 0.76821 0.08638 0.38701 0.0
C92 C 0.75031 0.09904 0.34663 0.0
C93 C 0.74403 0.0927 0.26877 0.0
C94 C 0.75761 0.07498 0.22992 0.0
C95 C 0.77554 0.06245 0.27021 0.0
P96 P 0.47074 0.78887 0.3919 0.0
H97 H 0.49001 0.77882 0.55029 0.0
H98 H 0.50714 0.74222 0.60597 0.0
H99 H 0.5126 0.71232 0.37085 0.0
H100 H 0.49652 0.74934 0.31576 0.0
H101 H 0.45199 0.835 0.34455 0.0
H102 H 0.46365 0.86426 0.24455 0.0
H103 H 0.52511 0.82063 0.1839 0.0
H104 H 0.51302 0.79109 0.28452 0.0
H105 H 0.43091 0.76117 0.4562 0.0
H106 H 0.46199 0.77516 0.22708 0.0
O107 O 0.45843 0.80328 0.46827 0.0
H108 H 0.40854 0.72728 0.40143 0.0
H109 H 0.44036 0.7411 0.17251 0.0
C110 C 0.49184 0.76687 0.42874 0.0
C111 C 0.49576 0.76478 0.51041 0.0
C112 C 0.50524 0.74359 0.54238 0.0
C113 C 0.5107 0.72392 0.49332 0.0
C114 C 0.50874 0.72698 0.41082 0.0
C115 C 0.49952 0.74828 0.37895 0.0
C116 C 0.48186 0.81109 0.32313 0.0
C117 C 0.46822 0.83189 0.31076 0.0
C118 C 0.47497 0.84867 0.25349 0.0
C119 C 0.49548 0.84498 0.20647 0.0
C120 C 0.50918 0.82402 0.21889 0.0
C121 C 0.5024 0.80719 0.2768 0.0
C122 C 0.44793 0.77083 0.34562 0.0
C123 C 0.43217 0.75756 0.39341 0.0
C124 C 0.41961 0.738 0.3622 0.0
C125 C 0.42291 0.73122 0.28283 0.0
C126 C 0.43713 0.7459 0.23362 0.0
C127 C 0.44959 0.76549 0.26487 0.0
P128 P 0.30465 0.46028 0.01316 0.0
H129 H 0.28597 0.46577 0.85252 0.0
H130 H 0.24683 0.47971 0.80881 0.0
H131 H 0.23559 0.51326 0.03596 0.0
H132 H 0.27475 0.49865 0.07996 0.0
H133 H 0.34416 0.43512 0.08506 0.0
H134 H 0.37509 0.44636 0.17944 0.0
H135 H 0.35073 0.52005 0.16978 0.0
H136 H 0.31911 0.50825 0.07617 0.0
H137 H 0.2679 0.42503 0.97549 0.0
H138 H 0.29553 0.46011 0.18392 0.0
O139 O 0.31579 0.4424 0.94308 0.0
H140 H 0.23041 0.41631 0.04517 0.0
H141 H 0.25844 0.45144 0.25337 0.0
C142 C 0.28363 0.48129 0.96948 0.0
C143 C 0.2757 0.47712 0.89186 0.0
C144 C 0.25302 0.48501 0.86695 0.0
C145 C 0.23765 0.49723 0.91928 0.0
C146 C 0.24665 0.50346 0.99445 0.0
C147 C 0.2694 0.49558 0.01921 0.0
C148 C 0.32942 0.47084 0.07308 0.0
C149 C 0.34572 0.4538 0.10217 0.0
C150 C 0.36355 0.46033 0.15616 0.0
C151 C 0.36565 0.48419 0.18259 0.0
C152 C 0.34956 0.50144 0.15168 0.0
C153 C 0.33153 0.49479 0.09758 0.0
C154 C 0.28456 0.44316 0.07441 0.0
C155 C 0.26648 0.42964 0.03753 0.0
C156 C 0.24494 0.42492 0.07707 0.0
C157 C 0.24135 0.43356 0.15419 0.0
C158 C 0.26068 0.4444 0.19415 0.0
C159 C 0.28208 0.44932 0.15433 0.0
P160 P 0.05774 0.30277 0.02424 0.0
H161 H 0.05211 0.28489 0.86182 0.0
H162 H 0.03986 0.24548 0.81409 0.0
H163 H 0.01093 0.22871 0.04487 0.0
H164 H 0.02461 0.26734 0.09322 0.0
H165 H 0.06945 0.35349 0.04208 0.0
H166 H 0.05763 0.38313 0.1407 0.0
H167 H 1.00347 0.33438 0.22885 0.0
H168 H 0.01498 0.30499 0.12905 0.0
H169 H 0.08681 0.25989 0.00489 0.0
H170 H 0.06913 0.30823 0.1953 0.0
O171 O 0.07548 0.31446 0.95443 0.0
H172 H 0.09504 0.2283 0.10002 0.0
H173 H 0.07838 0.27701 0.29101 0.0
C174 C 0.03892 0.27958 0.98102 0.0
C175 C 0.04227 0.27317 0.90147 0.0
C176 C 0.03531 0.25042 0.87414 0.0
C177 C 0.02479 0.23355 0.9259 0.0
C178 C 0.01944 0.24093 1.00354 0.0
C179 C 0.02662 0.26353 0.03091 0.0
C180 C 0.04306 0.32692 0.07724 0.0
C181 C 0.05437 0.34947 0.08037 0.0
C182 C 0.04767 0.36643 0.1372 0.0
C183 C 0.02981 0.361 0.19322 0.0
C184 C 0.01749 0.33899 0.18701 0.0
C185 C 0.02397 0.32217 0.1293 0.0
C186 C 0.07611 0.28599 0.09258 0.0
C187 C 0.08584 0.26411 0.06733 0.0
C188 C 0.09066 0.24598 0.1222 0.0
C189 C 0.08632 0.24981 0.20318 0.0
C190 C 0.08089 0.27321 0.22875 0.0
C191 C 0.07561 0.29117 0.17372 0.0
P192 P 0.21668 0.06187 0.00902 0.0
H193 H 0.23283 0.05247 0.84776 0.0
H194 H 0.27116 0.03698 0.80238 0.0
H195 H 0.28491 1.00817 0.03558 0.0
H196 H 0.24665 0.02445 0.08114 0.0
H197 H 0.18089 0.08957 0.09058 0.0
H198 H 0.15238 0.0805 0.19603 0.0
H199 H 0.17337 1.00589 0.18892 0.0
H200 H 0.20205 0.01517 0.08214 0.0
H201 H 0.25275 0.09531 0.95042 0.0
H202 H 0.22972 0.06719 0.17604 0.0
O203 O 0.20377 0.07759 0.93641 0.0
H204 H 0.29149 0.10637 0.00832 0.0
H205 H 0.26795 0.07821 0.23376 0.0
C206 C 0.23655 0.03947 0.96785 0.0
C207 C 0.24345 0.04179 0.88835 0.0
C208 C 0.26566 0.03302 0.86243 0.0
C209 C 0.28153 0.02174 0.91563 0.0
C210 C 0.27344 0.01723 0.99326 0.0
C211 C 0.2512 0.02604 0.01907 0.0
C212 C 0.19363 0.05309 0.07862 0.0
C213 C 0.17916 0.07117 0.11086 0.0
C214 C 0.16299 0.066 0.17164 0.0
C215 C 0.1608 0.04253 0.20156 0.0
C216 C 0.17463 0.02414 0.167 0.0
C217 C 0.19107 0.02943 0.10617 0.0
C218 C 0.23824 0.08054 0.05884 0.0
C219 C 0.25548 0.09272 0.01332 0.0
C220 C 0.27772 0.09878 0.04621 0.0
C221 C 0.2829 0.09285 0.12526 0.0
C222 C 0.26452 0.08324 0.17287 0.0
C223 C 0.24244 0.07697 0.13976 0.0
P224 P 0.4557 0.22051 0.0246 0.0
H225 H 0.46742 0.23538 0.86367 0.0
H226 H 0.48555 0.27268 0.81871 0.0
H227 H 0.51336 0.28513 0.05379 0.0
H228 H 0.49461 0.2478 0.09873 0.0
H229 H 0.42586 0.19283 0.13088 0.0
H230 H 0.43433 0.16335 0.23412 0.0
H231 H 0.51035 0.16988 0.18615 0.0
H232 H 0.50159 0.19941 0.08163 0.0
H233 H 0.42436 0.25567 0.95039 0.0
H234 H 0.44893 0.23851 0.18583 0.0
O235 O 0.44095 0.2066 0.95189 0.0
H236 H 0.41369 0.2961 0.99435 0.0
H237 H 0.43783 0.2784 0.23013 0.0
C238 C 0.47977 0.23857 0.98456 0.0
C239 C 0.47849 0.2454 0.90474 0.0
C240 C 0.48877 0.26701 0.8791 0.0
C241 C 0.50049 0.28229 0.93298 0.0
C242 C 0.50402 0.27407 0.01101 0.0
C243 C 0.49374 0.2524 0.0365 0.0
C244 C 0.4631 0.19863 0.09972 0.0
C245 C 0.44437 0.18797 0.14269 0.0
C246 C 0.44926 0.17118 0.20198 0.0
C247 C 0.47304 0.16444 0.21918 0.0
C248 C 0.49183 0.17466 0.17431 0.0
C249 C 0.48688 0.19166 0.11497 0.0
C250 C 0.43714 0.24388 0.06494 0.0
C251 C 0.42617 0.26008 0.01249 0.0
C252 C 0.42033 0.28327 0.03738 0.0
C253 C 0.4251 0.29043 0.11545 0.0
C254 C 0.43367 0.27333 0.16982 0.0
C255 C 0.4399 0.25033 0.14455 0.0
Ho256 Ho 0.02482 1.00435 0.79733 0.0
Ho257 Ho 0.99628 0.01701 0.65192 0.0
C258 C 1.00538 0.96137 0.68068 0.0
C259 C 0.04151 0.98807 0.92958 0.0
C260 C 0.05486 0.96686 0.95688 0.0
C261 C 0.04961 0.94384 0.92792 0.0
C262 C 0.06186 0.92384 0.95727 0.0
C263 C 0.07973 0.92651 0.01565 0.0
C264 C 0.08548 0.94974 0.04232 0.0
C265 C 0.0731 0.96971 0.01331 0.0
C266 C 0.05179 0.015 0.6685 0.0
C267 C 0.01579 0.05897 0.76635 0.0
C268 C 0.98401 0.03703 0.52075 0.0
C269 C 0.99593 0.05748 0.48214 0.0
C270 C 0.02067 0.06114 0.49396 0.0
C271 C 0.03192 0.08172 0.46527 0.0
C272 C 0.01858 0.09928 0.4251 0.0
C273 C 0.99384 0.09549 0.4122 0.0
C274 C 0.98259 0.07468 0.44052 0.0
C275 C 0.96922 1.00627 0.78009 0.0
O276 O 0.01474 0.96742 0.75016 0.0
O277 O 0.9982 0.97766 0.62893 0.0
O278 O 0.05339 1.00285 0.88396 0.0
O279 O 0.01935 0.98457 0.90586 0.0
O280 O 0.05778 0.0206 0.74011 0.0
O281 O 0.03266 1.00295 0.66947 0.0
O282 O 0.01307 0.05221 0.69192 0.0
O283 O 0.01638 0.04276 0.82328 0.0
O284 O 0.97357 0.042 0.588 0.0
O285 O 0.99675 0.01733 0.52419 0.0
O286 O 0.96293 1.00127 0.70794 0.0
O287 O 0.98842 0.01829 0.77956 0.0
H288 H 0.03573 0.94124 0.8838 0.0
H289 H 0.05669 0.90622 0.93614 0.0
H290 H 0.09937 0.95249 0.0863 0.0
H291 H 0.07757 0.98739 0.03567 0.0
H292 H 0.03119 0.0484 0.52764 0.0
H293 H 0.05089 0.0843 0.47725 0.0
H294 H 0.98318 0.10873 0.38095 0.0
H295 H 0.96344 0.0723 0.43174 0.0
Ho296 Ho 0.51135 0.02004 0.79363 0.0
Ho297 Ho 0.49803 0.99432 0.6421 0.0
C298 C 0.55401 1.0025 0.67324 0.0
C299 C 0.52791 0.03423 0.92841 0.0
C300 C 0.5488 0.04799 0.95636 0.0
C301 C 0.57152 0.0452 0.92164 0.0
C302 C 0.59123 0.05804 0.95054 0.0
C303 C 0.58853 0.07406 0.01423 0.0
C304 C 0.56553 0.07734 0.047 0.0
C305 C 0.54587 0.06436 0.01841 0.0
C306 C 0.50054 0.04937 0.67063 0.0
C307 C 0.45657 0.0116 0.76255 0.0
C308 C 0.47924 0.98533 0.50573 0.0
C309 C 0.46176 0.99974 0.46136 0.0
C310 C 0.45644 0.02303 0.48731 0.0
C311 C 0.44017 0.03729 0.44597 0.0
C312 C 0.42848 0.02837 0.37842 0.0
C313 C 0.43392 1.00496 0.35232 0.0
C314 C 0.45053 0.99076 0.39349 0.0
C315 C 0.50835 0.96482 0.76497 0.0
O316 O 0.54813 0.01069 0.74429 0.0
O317 O 0.5376 0.99637 0.6205 0.0
O318 O 0.51218 0.04638 0.8873 0.0
O319 O 0.53217 0.0129 0.89897 0.0
O320 O 0.49555 0.05421 0.74361 0.0
O321 O 0.51234 0.03017 0.66732 0.0
O322 O 0.46301 0.01034 0.68724 0.0
O323 O 0.47301 0.01091 0.81876 0.0
O324 O 0.47128 0.9758 0.57147 0.0
O325 O 0.50017 0.99562 0.51472 0.0
O326 O 0.5125 0.95938 0.69154 0.0
O327 O 0.49697 0.98429 0.76793 0.0
H328 H 0.57414 0.03284 0.87306 0.0
H329 H 0.60872 0.05478 0.92457 0.0
H330 H 0.56273 0.08979 0.09525 0.0
H331 H 0.52837 0.06696 0.04521 0.0
H332 H 0.46491 0.03019 0.53981 0.0
H333 H 0.43678 0.05532 0.46709 0.0
H334 H 0.42497 0.99741 0.30117 0.0
H335 H 0.45443 0.97278 0.3728 0.0
Ho336 Ho 0.49777 0.51058 0.79217 0.0
Ho337 Ho 0.5261 0.49645 0.63332 0.0
C338 C 0.51761 0.55283 0.68064 0.0
C339 C 0.48012 0.51776 0.93107 0.0
C340 C 0.46499 0.53656 0.96558 0.0
C341 C 0.46243 0.55873 0.92703 0.0
C342 C 0.44942 0.57722 0.96241 0.0
C343 C 0.43855 0.57382 0.03681 0.0
C344 C 0.44036 0.55117 0.07362 0.0
C345 C 0.45353 0.5327 0.03828 0.0
C346 C 0.47213 0.50859 0.65638 0.0
C347 C 0.51195 0.45482 0.75678 0.0
C348 C 0.53133 0.48524 0.48692 0.0
C349 C 0.51811 0.46815 0.43666 0.0
C350 C 0.5109 0.44579 0.46708 0.0
C351 C 0.49605 0.43074 0.42292 0.0
C352 C 0.48809 0.43767 0.34733 0.0
C353 C 0.49571 0.45984 0.31612 0.0
C354 C 0.51053 0.47502 0.36071 0.0
C355 C 0.55688 0.50537 0.75553 0.0
O356 O 0.51063 0.54687 0.75314 0.0
O357 O 0.52216 0.53675 0.62461 0.0
O358 O 0.46969 0.50412 0.87809 0.0
O359 O 0.50177 0.52465 0.9101 0.0
O360 O 0.4677 0.52355 0.71324 0.0
O361 O 0.48889 0.49465 0.67657 0.0
O362 O 0.51657 0.46006 0.68177 0.0
O363 O 0.50713 0.47153 0.81031 0.0
O364 O 0.5445 0.47591 0.54374 0.0
O365 O 0.51879 0.50386 0.51011 0.0
O366 O 0.56409 0.49978 0.68468 0.0
O367 O 0.53439 0.50626 0.75348 0.0
H368 H 0.47108 0.56195 0.87054 0.0
H369 H 0.44877 0.59447 0.93282 0.0
H370 H 0.43193 0.54782 0.13034 0.0
H371 H 0.45516 0.51557 0.06838 0.0
H372 H 0.51622 0.44013 0.52587 0.0
H373 H 0.49086 0.41358 0.44801 0.0
H374 H 0.4898 0.46564 0.2581 0.0
H375 H 0.51564 0.49234 0.33663 0.0
Ho376 Ho 1.00724 0.49554 0.79799 0.0
Ho377 Ho 0.02017 0.52545 0.65455 0.0
C378 C 0.96432 0.51544 0.68189 0.0
C379 C 0.99104 0.47809 0.92929 0.0
C380 C 0.97027 0.46384 0.95566 0.0
C381 C 0.94726 0.4677 0.92411 0.0
C382 C 0.92759 0.45478 0.95303 0.0
C383 C 0.93059 0.43762 0.01356 0.0
C384 C 0.95387 0.43318 0.04265 0.0
C385 C 0.97351 0.44624 0.01407 0.0
C386 C 0.01743 0.46965 0.6663 0.0
C387 C 0.062 0.50503 0.76823 0.0
C388 C 0.03941 0.53867 0.52268 0.0
C389 C 0.05776 0.52578 0.47737 0.0
C390 C 0.06324 0.50203 0.49833 0.0
C391 C 0.08097 0.48942 0.45805 0.0
C392 C 0.09376 0.50039 0.39618 0.0
C393 C 0.08802 0.52414 0.37431 0.0
C394 C 0.07011 0.53679 0.41486 0.0
C395 C 1.00934 0.55133 0.78487 0.0
O396 O 0.97025 0.50573 0.75104 0.0
O397 O 0.98073 0.52309 0.63122 0.0
O398 O 1.0065 0.46688 0.88452 0.0
O399 O 0.98671 0.50005 0.90525 0.0
O400 O 0.02229 0.4626 0.73756 0.0
O401 O 1.00596 0.48904 0.66934 0.0
O402 O 0.05524 0.50823 0.69391 0.0
O403 O 0.04575 0.50389 0.82489 0.0
O404 O 0.0465 0.54686 0.59128 0.0
O405 O 0.01873 0.52761 0.52709 0.0
O406 O 1.00481 0.55845 0.71316 0.0
O407 O 0.0212 0.5321 0.78283 0.0
H408 H 0.94438 0.48105 0.8784 0.0
H409 H 0.90991 0.45895 0.92995 0.0
H410 H 0.9569 0.41985 0.08832 0.0
H411 H 0.99121 0.44283 0.03845 0.0
H412 H 0.05386 0.49321 0.54634 0.0
H413 H 0.08466 0.47105 0.47548 0.0
H414 H 0.09774 0.53311 0.32725 0.0
H415 H 0.0661 0.55515 0.3981 0.0
H416 H 0.15736 0.06875 0.33724 0.0
H417 H 0.04774 0.99418 0.52212 0.0
H418 H 0.12814 1.00577 0.22415 0.0
H419 H 0.09097 0.04415 0.65527 0.0
H420 H 0.07426 1.00027 0.40753 0.0
H421 H 0.13053 0.0621 0.44936 0.0
C422 C 0.14521 0.05353 0.3359 0.0
C423 C 0.14493 0.03786 0.27093 0.0
C424 C 0.07796 0.00985 0.46189 0.0
C425 C 0.11406 0.03006 0.39979 0.0
C426 C 0.06282 1.00643 0.52715 0.0
C427 C 0.06727 0.01862 0.5983 0.0
C428 C 0.09753 0.02576 0.46767 0.0
C429 C 0.08697 0.03432 0.60166 0.0
C430 C 0.12997 0.04967 0.40021 0.0
C431 C 0.12904 0.01822 0.27315 0.0
N432 N 0.1013 0.03749 0.53729 0.0
N433 N 0.11412 0.01495 0.33632 0.0
H434 H 0.50495 0.12656 0.22227 0.0
H435 H 0.47273 0.0895 0.66888 0.0
H436 H 0.4523 0.16293 0.36584 0.0
H437 H 0.51857 0.04674 0.51968 0.0
H438 H 0.46613 0.11719 0.55865 0.0
H439 H 0.51167 0.09797 0.33086 0.0
C440 C 0.4949 0.12862 0.27669 0.0
C441 C 0.47796 0.14715 0.28472 0.0
C442 C 0.47764 0.10177 0.54975 0.0
C443 C 0.48548 0.11445 0.40906 0.0
C444 C 0.48144 0.08598 0.61279 0.0
C445 C 0.49629 0.06589 0.60343 0.0
C446 C 0.48891 0.09758 0.47667 0.0
C447 C 0.50703 0.06209 0.52934 0.0
C448 C 0.49863 0.1122 0.33844 0.0
C449 C 0.46529 0.14877 0.3564 0.0
N450 N 0.5032 0.07783 0.46881 0.0
N451 N 0.46934 0.13271 0.41557 0.0
H452 H 0.41144 0.4661 0.20419 0.0
H453 H 0.43641 0.53839 0.60542 0.0
H454 H 0.3611 0.51638 0.30547 0.0
H455 H 0.4754 0.47472 0.53969 0.0
H456 H 0.41205 0.53451 0.48531 0.0
H457 H 0.43848 0.47309 0.31576 0.0
C458 C 0.406 0.47865 0.24961 0.0
C459 C 0.38363 0.49041 0.24534 0.0
C460 C 0.42604 0.52146 0.49679 0.0
C461 C 0.41496 0.49881 0.37308 0.0
C462 C 0.43996 0.52368 0.5653 0.0
C463 C 0.45805 0.50689 0.58218 0.0
C464 C 0.43029 0.50237 0.4444 0.0
C465 C 0.46186 0.48818 0.52821 0.0
C466 C 0.42157 0.48268 0.31325 0.0
C467 C 0.3781 0.50698 0.30533 0.0
N468 N 0.44812 0.48641 0.46173 0.0
N469 N 0.39357 0.51058 0.36667 0.0
H470 H 0.0269 0.34835 0.34908 0.0
H471 H 1.00516 0.48095 0.51373 0.0
H472 H 0.02463 0.41022 0.19525 0.0
H473 H 0.03344 0.42335 0.65688 0.0
H474 H 1.0075 0.45487 0.39716 0.0
H475 H 0.02375 0.37494 0.46358 0.0
C476 C 0.02539 0.36753 0.33934 0.0
C477 C 0.02592 0.37706 0.26239 0.0
C478 C 0.01325 0.44798 0.45405 0.0
C479 C 0.02254 0.40767 0.39354 0.0
C480 C 0.01194 0.46284 0.52055 0.0
C481 C 0.01924 0.45433 0.59502 0.0
C482 C 0.02143 0.42425 0.46238 0.0
C483 C 0.02769 0.43066 0.60058 0.0
C484 C 0.02385 0.38271 0.4048 0.0
C485 C 0.02437 0.40212 0.25353 0.0
N486 N 0.02841 0.41641 0.53532 0.0
N487 N 0.02266 0.41656 0.31828 0.0
H488 H 0.90434 0.02328 0.24127 0.0
H489 H 0.92328 0.98853 0.78534 0.0
H490 H 0.84664 0.9999 0.08889 0.0
H491 H 0.97844 0.01958 0.9326 0.0
H492 H 0.89599 0.9881 0.89927 0.0
H493 H 0.93267 0.01746 0.13278 0.0
C494 C 0.89761 0.01681 0.18507 0.0
C495 C 0.87296 0.01234 0.17418 0.0
C496 C 0.91411 0.99488 0.9068 0.0
C497 C 0.90548 1.00551 0.0492 0.0
C498 C 0.92969 0.99509 0.84182 0.0
C499 C 0.95309 1.00427 0.84946 0.0
C500 C 0.92201 1.00383 0.98007 0.0
C501 C 0.9605 0.01248 0.92401 0.0
C502 C 0.91384 0.01344 0.12309 0.0
C503 C 0.86546 1.00349 0.10033 0.0
N504 N 0.945 0.01216 0.98624 0.0
N505 N 0.8816 1.00056 0.04055 0.0
H506 H 0.51168 0.83626 0.05518 0.0
H507 H 0.49779 0.97341 0.91964 0.0
H508 H 0.49345 0.89417 0.21332 0.0
H509 H 0.52275 0.91767 0.76333 0.0
H510 H 0.49798 0.94469 0.02906 0.0
H511 H 0.51807 0.86568 0.94919 0.0
C512 C 0.50933 0.85516 0.06802 0.0
C513 C 0.50177 0.86267 0.1433 0.0
C514 C 0.50358 0.9387 0.97104 0.0
C515 C 0.50872 0.89646 0.02174 0.0
C516 C 0.50348 0.95512 0.9085 0.0
C517 C 0.51014 0.94786 0.83225 0.0
C518 C 0.51024 0.91472 0.95734 0.0
C519 C 0.5174 0.92397 0.82123 0.0
C520 C 0.51283 0.87195 0.00726 0.0
C521 C 0.49878 0.88744 0.15595 0.0
N522 N 0.51708 0.90818 0.88296 0.0
N523 N 0.50209 0.90335 0.09584 0.0
H524 H 0.6162 0.49757 0.22857 0.0
H525 H 0.60547 0.51097 0.75829 0.0
H526 H 0.67691 0.51044 0.07545 0.0
H527 H 0.54406 0.50501 0.91224 0.0
H528 H 0.63174 0.51257 0.87437 0.0
H529 H 0.58932 0.50218 0.11493 0.0
C530 C 0.62389 0.50153 0.17114 0.0
C531 C 0.64892 0.50348 0.16166 0.0
C532 C 0.6125 0.51117 0.88301 0.0
C533 C 0.61816 0.50873 0.03086 0.0
C534 C 0.5975 0.51024 0.81671 0.0
C535 C 0.57253 0.50806 0.82579 0.0
C536 C 0.60251 0.5096 0.95922 0.0
C537 C 0.56316 0.50709 0.90272 0.0
C538 C 0.6085 0.50422 0.10625 0.0
C539 C 0.65777 0.50896 0.08589 0.0
N540 N 0.57815 0.5077 0.96648 0.0
N541 N 0.64245 0.51115 0.02344 0.0
H542 H 0.02562 0.61164 0.25278 0.0
H543 H 0.99149 0.59703 0.7944 0.0
H544 H 1.00192 0.67046 0.1056 0.0
H545 H 0.02215 0.54049 0.93692 0.0
H546 H 0.99067 0.62305 0.91117 0.0
H547 H 0.01984 0.58428 0.14165 0.0
C548 C 0.01907 0.61881 0.1972 0.0
C549 C 0.01451 0.6435 0.18851 0.0
C550 C 0.99745 0.60491 0.91705 0.0
C551 C 1.00775 0.61212 0.06057 0.0
C552 C 0.99789 0.59005 0.85043 0.0
C553 C 1.00708 0.56665 0.85591 0.0
C554 C 1.0062 0.59628 0.98979 0.0
C555 C 0.01505 0.55847 0.92999 0.0
C556 C 0.01572 0.60314 0.13373 0.0
C557 C 1.00557 0.6516 0.11537 0.0
N558 N 0.01453 0.57329 0.99385 0.0
N559 N 1.00269 0.636 0.05411 0.0
H560 H 0.11047 0.20647 0.21034 0.0
H561 H 1.00182 0.14494 0.44341 0.0
H562 H 0.05099 0.24503 0.31391 0.0
H563 H 0.06231 0.10515 0.35279 0.0
H564 H 0.02164 0.18226 0.40477 0.0
H565 H 0.09586 0.16965 0.27374 0.0
C566 C 0.09466 0.20733 0.24756 0.0
C567 C 0.08188 0.22892 0.25602 0.0
C568 C 0.03067 0.16539 0.39349 0.0
C569 C 0.06497 0.1869 0.32802 0.0
C570 C 0.01922 0.14408 0.4148 0.0
C571 C 0.03032 0.12195 0.40043 0.0
C572 C 0.05334 0.1646 0.35695 0.0
C573 C 0.05315 0.12188 0.36493 0.0
C574 C 0.08631 0.18631 0.28362 0.0
C575 C 0.06167 0.22899 0.30592 0.0
N576 N 0.06385 0.1429 0.34384 0.0
N577 N 0.0537 0.20828 0.339 0.0
H578 H 0.32238 0.0766 0.04603 0.0
H579 H 0.39493 0.05796 0.44553 0.0
H580 H 0.30048 0.10589 0.27087 0.0
H581 H 0.41963 0.03241 0.21869 0.0
H582 H 0.36328 0.08036 0.37921 0.0
H583 H 0.36109 0.06589 0.10352 0.0
C584 C 0.32598 0.08149 0.10689 0.0
C585 C 0.30806 0.092 0.15399 0.0
C586 C 0.37575 0.07006 0.34373 0.0
C587 C 0.35214 0.07908 0.22083 0.0
C588 C 0.39395 0.05731 0.3816 0.0
C589 C 0.40995 0.0431 0.33773 0.0
C590 C 0.37326 0.06847 0.26129 0.0
C591 C 0.40743 0.04271 0.25508 0.0
C592 C 0.34803 0.0751 0.13996 0.0
C593 C 0.31365 0.09749 0.23283 0.0
N594 N 0.3893 0.05503 0.2196 0.0
N595 N 0.33506 0.09064 0.2641 0.0
H596 H 0.4074 0.31169 0.24941 0.0
H597 H 0.49154 0.42542 0.19064 0.0
H598 H 0.44491 0.32747 0.03211 0.0
H599 H 0.4489 0.41261 0.39965 0.0
H600 H 0.46941 0.39352 0.12277 0.0
H601 H 0.41684 0.35209 0.29667 0.0
C602 C 0.41717 0.32388 0.21102 0.0
C603 C 0.42552 0.3162 0.1371 0.0
C604 C 0.46462 0.39792 0.18309 0.0
C605 C 0.43687 0.36224 0.19116 0.0
C606 C 0.4772 0.4162 0.22173 0.0
C607 C 0.47239 0.42128 0.3014 0.0
C608 C 0.4472 0.38461 0.22464 0.0
C609 C 0.45363 0.40878 0.33885 0.0
C610 C 0.4226 0.34693 0.23796 0.0
C611 C 0.43801 0.33271 0.0894 0.0
N612 N 0.44196 0.39081 0.30055 0.0
N613 N 0.44369 0.35481 0.11784 0.0
H614 H 0.22605 0.42526 0.30624 0.0
H615 H 0.10447 0.49845 0.23779 0.0
H616 H 0.20108 0.44855 0.07683 0.0
H617 H 0.12809 0.4723 0.46547 0.0
H618 H 0.13796 0.47718 0.17567 0.0
H619 H 0.18787 0.43822 0.36359 0.0
C620 C 0.21233 0.43265 0.26777 0.0
C621 C 0.21678 0.43591 0.18682 0.0
C622 C 0.13568 0.47593 0.23916 0.0
C623 C 0.17329 0.45119 0.25194 0.0
C624 C 0.1167 0.48824 0.27464 0.0
C625 C 0.11354 0.48721 0.35688 0.0
C626 C 0.1517 0.46266 0.2864 0.0
C627 C 0.1297 0.4734 0.40175 0.0
C628 C 0.19058 0.44012 0.30046 0.0
C629 C 0.19836 0.44548 0.13945 0.0
N630 N 0.14815 0.46181 0.36599 0.0
N631 N 0.17756 0.4531 0.17291 0.0
H632 H 0.10639 0.77876 0.12085 0.0
H633 H 0.09099 0.91959 0.17181 0.0
H634 H 0.10153 0.81523 0.3454 0.0
H635 H 0.09354 0.88422 0.94487 0.0
H636 H 0.10378 0.88247 0.23491 0.0
H637 H 0.11046 0.81773 0.055 0.0
C638 C 0.10664 0.79491 0.15646 0.0
C639 C 0.1032 0.7937 0.23868 0.0
C640 C 0.10187 0.88287 0.17116 0.0
C641 C 0.10777 0.8383 0.16378 0.0
C642 C 0.0947 0.90418 0.13488 0.0
C643 C 0.09081 0.905 0.05285 0.0
C644 C 0.10493 0.86208 0.12538 0.0
C645 C 0.0957 0.88426 0.0085 0.0
C646 C 0.10899 0.81714 0.11884 0.0
C647 C 0.10416 0.81518 0.28198 0.0
N648 N 0.10217 0.86355 0.04545 0.0
N649 N 0.10596 0.83658 0.24389 0.0
H650 H 0.70097 0.0998 0.34302 0.0
H651 H 0.6283 0.09287 0.93922 0.0
H652 H 0.73445 0.10397 0.11294 0.0
H653 H 0.59774 0.08177 0.17127 0.0
H654 H 0.6657 0.10627 1.00134 0.0
H655 H 0.66185 0.10389 0.28073 0.0
C656 C 0.70022 0.10228 0.27952 0.0
C657 C 0.72112 0.10111 0.23308 0.0
C658 C 0.65065 0.10126 0.03854 0.0
C659 C 0.67606 0.10496 0.161 0.0
C660 C 0.62935 0.09346 1.00316 0.0
C661 C 0.60994 0.08576 0.05002 0.0
C662 C 0.65258 0.10133 0.12136 0.0
C663 C 0.61213 0.08755 0.13255 0.0
C664 C 0.67775 0.10434 0.24382 0.0
C665 C 0.71879 0.10415 0.1509 0.0
N666 N 0.63315 0.09484 0.16548 0.0
N667 N 0.69662 0.10549 0.11729 0.0
H668 H 0.42422 0.68881 0.36456 0.0
H669 H 0.41103 0.6103 0.97405 0.0
H670 H 0.40497 0.71834 0.13679 0.0
H671 H 0.44091 0.58482 0.1946 0.0
H672 H 0.39934 0.64757 0.03976 0.0
H673 H 0.42001 0.64858 0.31065 0.0
C674 C 0.41844 0.6869 0.30371 0.0
C675 C 0.41523 0.7071 0.25489 0.0
C676 C 0.40812 0.63364 0.07395 0.0
C677 C 0.4111 0.66084 0.19209 0.0
C678 C 0.41491 0.61239 0.03644 0.0
C679 C 0.42742 0.59452 0.07839 0.0
C680 C 0.41383 0.63704 0.15403 0.0
C681 C 0.43132 0.598 0.15965 0.0
C682 C 0.4163 0.66383 0.27271 0.0
C683 C 0.40811 0.70331 0.17615 0.0
N684 N 0.42485 0.61896 0.19447 0.0
N685 N 0.40664 0.68063 0.14684 0.0
H686 H 0.78293 0.4097 0.11258 0.0
H687 H 0.92323 0.42751 0.17042 0.0
H688 H 0.81834 0.41645 0.3388 0.0
H689 H 0.88911 0.42156 0.94172 0.0
H690 H 0.88608 0.41438 0.23264 0.0
H691 H 0.82223 0.40511 0.04959 0.0
C692 C 0.79891 0.40974 0.1492 0.0
C693 C 0.79731 0.41391 0.23094 0.0
C694 C 0.88677 0.4156 0.16874 0.0
C695 C 0.8423 0.40877 0.15932 0.0
C696 C 0.90811 0.42296 0.13296 0.0
C697 C 0.90926 0.42606 0.05059 0.0
C698 C 0.86627 0.41156 0.12208 0.0
C699 C 0.88888 0.42008 0.00556 0.0
C700 C 0.82134 0.40709 0.11323 0.0
C701 C 0.81859 0.41329 0.27567 0.0
N702 N 0.86811 0.41347 0.04197 0.0
N703 N 0.84019 0.41123 0.23911 0.0
H704 H 0.03205 0.19331 0.01689 0.0
H705 H 0.01167 0.09826 0.66746 0.0
H706 H 0.0119 0.21458 0.78017 0.0
H707 H 0.02305 0.079 0.91213 0.0
H708 H 0.01296 0.14083 0.70481 0.0
H709 H 0.02946 0.15146 0.9774 0.0
C710 C 0.02669 0.18927 0.95679 0.0
C711 C 0.02193 0.20777 0.9022 0.0
C712 C 0.01517 0.12726 0.75023 0.0
C713 C 0.0196 0.1593 0.85562 0.0
C714 C 0.01451 0.10293 0.72894 0.0
C715 C 0.01725 0.08493 0.78673 0.0
C716 C 0.0187 0.13368 0.82983 0.0
C717 C 0.02083 0.09215 0.86543 0.0
C718 C 0.02546 0.16522 0.93401 0.0
C719 C 0.01588 0.20108 0.82439 0.0
N720 N 0.02146 0.11586 0.88449 0.0
N721 N 0.01493 0.17743 0.80344 0.0
H722 H 0.29993 1.00683 0.77181 0.0
H723 H 0.43746 0.01768 0.91026 0.0
H724 H 0.32201 0.02769 0.00678 0.0
H725 H 0.41664 1.0081 0.66632 0.0
H726 H 0.39514 0.01858 0.94756 0.0
H727 H 0.3423 1.00416 0.73346 0.0
C728 C 0.31361 0.01074 0.81555 0.0
C729 C 0.30718 0.01744 0.8929 0.0
C730 C 0.39976 0.0163 0.88582 0.0
C731 C 0.3559 0.01432 0.84913 0.0
C732 C 0.424 0.01579 0.86435 0.0
C733 C 0.43073 0.01283 0.78488 0.0
C734 C 0.38191 0.0137 0.82764 0.0
C735 C 0.41235 0.01048 0.72827 0.0
C736 C 0.33783 0.00918 0.79351 0.0
C737 C 0.32588 0.022 0.94696 0.0
N738 N 0.38881 0.0109 0.75075 0.0
N739 N 0.34926 0.02042 0.92402 0.0
H740 H 0.49449 0.32281 0.02271 0.0
H741 H 0.52142 0.41456 0.66768 0.0
H742 H 0.51789 0.30004 0.79128 0.0
H743 H 0.50275 0.43652 0.90464 0.0
H744 H 0.52108 0.37265 0.71177 0.0
H745 H 0.49895 0.36451 0.98131 0.0
C746 C 0.50104 0.32651 0.9636 0.0
C747 C 0.50592 0.3077 0.91062 0.0
C748 C 0.51713 0.38666 0.75413 0.0
C749 C 0.51049 0.3558 0.86191 0.0
C750 C 0.51727 0.41064 0.72896 0.0
C751 C 0.51204 0.42923 0.78236 0.0
C752 C 0.51165 0.38113 0.83329 0.0
C753 C 0.50685 0.42291 0.86111 0.0
C754 C 0.50334 0.35043 0.93968 0.0
C755 C 0.51371 0.31386 0.83404 0.0
N756 N 0.50673 0.39947 0.88399 0.0
N757 N 0.51564 0.33733 0.81193 0.0
H758 H 0.19819 0.49305 0.0164 0.0
H759 H 0.10106 0.50918 0.66902 0.0
H760 H 0.21749 0.50902 0.77458 0.0
H761 H 0.08247 0.49868 0.91456 0.0
H762 H 0.14369 0.50875 0.70563 0.0
H763 H 0.15585 0.49546 0.97999 0.0
C764 C 0.19362 0.49745 0.95582 0.0
C765 C 0.21169 0.50091 0.89867 0.0
C766 C 0.13028 0.50654 0.75149 0.0
C767 C 0.16277 0.50313 0.85592 0.0
C768 C 0.10589 0.5067 0.73059 0.0
C769 C 0.08803 0.50394 0.78873 0.0
C770 C 0.13697 0.50353 0.83116 0.0
C771 C 0.0955 0.50086 0.86757 0.0
C772 C 0.16932 0.49859 0.93487 0.0
C773 C 0.20434 0.50596 0.82068 0.0
N774 N 0.11931 0.50073 0.88633 0.0
N775 N 0.18054 0.50684 0.80165 0.0
H776 H 1.00141 0.80485 0.6665 0.0
H777 H 0.99816 0.94269 0.53302 0.0
H778 H 0.01645 0.82891 0.42833 0.0
H779 H 0.00994 0.92123 0.7755 0.0
H780 H 0.99792 0.90049 0.49433 0.0
H781 H 0.99794 0.84683 0.70758 0.0
C782 C 1.00393 0.81881 0.6226 0.0
C783 C 1.00934 0.81302 0.54352 0.0
C784 C 1.00049 0.905 0.55605 0.0
C785 C 1.00488 0.86128 0.59046 0.0
C786 C 1.00054 0.92913 0.57838 0.0
C787 C 1.00418 0.93562 0.65776 0.0
C788 C 1.00381 0.88705 0.61345 0.0
C789 C 1.00724 0.91712 0.71359 0.0
C790 C 1.00186 0.84281 0.64628 0.0
C791 C 0.01184 0.83216 0.48952 0.0
N792 N 1.00694 0.89367 0.69042 0.0
N793 N 0.0096 0.8553 0.51397 0.0
H794 H 0.68619 0.01436 0.40905 0.0
H795 H 0.59412 1.00545 0.76859 0.0
H796 H 0.70933 0.99771 0.64698 0.0
H797 H 0.57281 0.99724 0.52458 0.0
H798 H 0.63637 1.00517 0.72693 0.0
H799 H 0.6446 0.01008 0.45133 0.0
C800 C 0.6827 0.0094 0.46991 0.0
C801 C 0.70165 1.00636 0.5242 0.0
C802 C 0.62241 1.00328 0.68267 0.0
C803 C 0.65351 1.00223 0.57376 0.0
C804 C 0.59827 1.00354 0.70636 0.0
C805 C 0.57979 1.00141 0.65008 0.0
C806 C 0.62815 1.00124 0.60198 0.0
C807 C 0.58636 0.99887 0.57024 0.0
C808 C 0.65879 1.00718 0.49418 0.0
C809 C 0.69553 1.00065 0.60293 0.0
N810 N 0.60991 0.99905 0.54862 0.0
N811 N 0.67205 0.99898 0.6254 0.0
H812 H 0.54109 0.68849 0.43766 0.0
H813 H 0.50193 0.59178 0.76574 0.0
H814 H 0.49137 0.70353 0.62732 0.0
H815 H 0.53758 0.57303 0.54764 0.0
H816 H 0.5031 0.63404 0.72599 0.0
H817 H 0.54502 0.64737 0.48727 0.0
C818 C 0.53109 0.68328 0.48989 0.0
C819 C 0.51577 0.69968 0.52788 0.0
C820 C 0.51077 0.62068 0.68704 0.0
C821 C 0.52043 0.65252 0.58554 0.0
C822 C 0.51019 0.59652 0.7098 0.0
C823 C 0.51955 0.57871 0.65982 0.0
C824 C 0.52094 0.62719 0.61397 0.0
C825 C 0.52997 0.58605 0.58793 0.0
C826 C 0.53341 0.65977 0.51831 0.0
C827 C 0.50367 0.69182 0.59636 0.0
N828 N 0.53035 0.60968 0.56716 0.0
N829 N 0.50618 0.66885 0.62262 0.0
H830 H 0.80757 0.51766 0.65447 0.0
H831 H 0.9463 0.52286 0.53335 0.0
H832 H 0.8336 0.50164 0.41961 0.0
H833 H 0.92365 0.50968 0.77379 0.0
H834 H 0.90432 0.52226 0.49152 0.0
H835 H 0.84924 0.52141 0.69949 0.0
C836 C 0.82188 0.51495 0.6121 0.0
C837 C 0.81671 0.50924 0.53271 0.0
C838 C 0.90851 0.51957 0.55348 0.0
C839 C 0.86464 0.5141 0.5842 0.0
C840 C 0.93251 0.52002 0.57764 0.0
C841 C 0.93863 0.51625 0.65737 0.0
C842 C 0.89027 0.51564 0.60937 0.0
C843 C 0.91983 0.51255 0.71169 0.0
C844 C 0.84571 0.5172 0.63805 0.0
C845 C 0.83632 0.50653 0.48084 0.0
N846 N 0.89649 0.51239 0.68675 0.0
N847 N 0.85928 0.509 0.50744 0.0
loop_
_geom_bond_atom_site_label_1
_geom_bond_atom_site_label_2
_geom_bond_distance
_geom_bond_site_symmetry_2
_ccdc_geom_bond_type
P0 O11 1.490 . S
P0 C14 1.812 . S
P0 C20 1.803 . S
P0 C26 1.819 . S
H1 C15 0.941 . S
H2 C16 0.939 . S
H3 C18 0.940 . S
H4 C19 0.940 . S
H5 C21 0.939 . S
H6 C22 0.942 . S
H7 C24 0.940 . S
H8 C25 0.939 . S
H9 C27 0.941 . S
H10 C31 0.939 . S
O11 P0 1.490 . S
H12 C28 0.939 . S
H13 C30 0.940 . S
C14 P0 1.812 . S
C14 C15 1.389 . S
C14 C19 1.391 . S
C15 H1 0.941 . S
C15 C14 1.389 . S
C15 C16 1.397 . S
C16 H2 0.939 . S
C16 C15 1.397 . S
C16 C17 1.378 . S
C17 C16 1.378 . S
C17 C18 1.378 . S
C18 H3 0.940 . S
C18 C17 1.378 . S
C18 C19 1.396 . S
C19 H4 0.940 . S
C19 C14 1.391 . S
C19 C18 1.396 . S
C20 P0 1.803 . S
C20 C21 1.378 . S
C20 C25 1.400 . S
C21 H5 0.939 . S
C21 C20 1.378 . S
C21 C22 1.361 . S
C22 H6 0.942 . S
C22 C21 1.361 . S
C22 C23 1.369 . S
C23 C22 1.369 . S
C23 C24 1.404 . S
C24 H7 0.940 . S
C24 C23 1.404 . S
C24 C25 1.389 . S
C25 H8 0.939 . S
C25 C20 1.400 . S
C25 C24 1.389 . S
C26 P0 1.819 . S
C26 C27 1.391 . S
C26 C31 1.391 . S
C27 H9 0.941 . S
C27 C26 1.391 . S
C27 C28 1.396 . S
C28 H12 0.939 . S
C28 C27 1.396 . S
C28 C29 1.397 . S
C29 C28 1.397 . S
C29 C30 1.385 . S
C30 H13 0.940 . S
C30 C29 1.385 . S
C30 C31 1.388 . S
C31 H10 0.939 . S
C31 C26 1.391 . S
C31 C30 1.388 . S
P32 O43 1.490 . S
P32 C46 1.812 . S
P32 C52 1.803 . S
P32 C58 1.819 . S
H33 C47 0.941 . S
H34 C48 0.939 . S
H35 C50 0.940 . S
H36 C51 0.950 . S
H37 C53 0.939 . S
H38 C54 0.942 . S
H39 C56 0.940 . S
H40 C57 0.959 . S
H41 C59 0.941 . S
H42 C63 0.929 1_655 S
O43 P32 1.490 . S
H44 C60 0.939 . S
H45 C62 0.940 . S
C46 P32 1.812 . S
C46 C47 1.389 . S
C46 C51 1.375 1_455 S
C47 H33 0.941 . S
C47 C46 1.389 . S
C47 C48 1.397 . S
C48 H34 0.939 . S
C48 C47 1.397 . S
C48 C49 1.378 . S
C49 C48 1.378 . S
C49 C50 1.378 1_455 S
C50 H35 0.940 . S
C50 C49 1.378 1_655 S
C50 C51 1.403 . S
C51 H36 0.950 . S
C51 C46 1.375 1_655 S
C51 C50 1.403 . S
C52 P32 1.803 . S
C52 C53 1.378 . S
C52 C57 1.368 1_455 S
C53 H37 0.939 . S
C53 C52 1.378 . S
C53 C54 1.361 . S
C54 H38 0.942 . S
C54 C53 1.361 . S
C54 C55 1.369 . S
C55 C54 1.369 . S
C55 C56 1.404 1_455 S
C56 H39 0.940 . S
C56 C55 1.404 1_655 S
C56 C57 1.402 . S
C57 H40 0.959 . S
C57 C52 1.368 1_655 S
C57 C56 1.402 . S
C58 P32 1.819 . S
C58 C59 1.391 . S
C58 C63 1.391 . S
C59 H41 0.941 . S
C59 C58 1.391 . S
C59 C60 1.396 . S
C60 H44 0.939 . S
C60 C59 1.396 . S
C60 C61 1.397 . S
C61 C60 1.397 . S
C61 C62 1.385 1_455 S
C62 H45 0.940 . S
C62 C61 1.385 1_655 S
C62 C63 1.388 1_655 S
C63 H42 0.929 1_455 S
C63 C58 1.391 . S
C63 C62 1.388 1_455 S
P64 O75 1.490 . S
P64 C78 1.812 . S
P64 C84 1.803 . S
P64 C90 1.819 . S
H65 C79 0.941 . S
H66 C80 0.939 . S
H67 C82 0.940 . S
H68 C83 0.950 . S
H69 C85 0.939 . S
H70 C86 0.942 . S
H71 C88 0.940 . S
H72 C89 0.959 . S
H73 C91 0.941 . S
H74 C95 0.929 1_565 S
O75 P64 1.490 . S
H76 C92 0.939 . S
H77 C94 0.940 . S
C78 P64 1.812 . S
C78 C79 1.389 . S
C78 C83 1.375 1_545 S
C79 H65 0.941 . S
C79 C78 1.389 . S
C79 C80 1.397 . S
C80 H66 0.939 . S
C80 C79 1.397 . S
C80 C81 1.378 . S
C81 C80 1.378 . S
C81 C82 1.378 1_545 S
C82 H67 0.940 . S
C82 C81 1.378 1_565 S
C82 C83 1.403 . S
C83 H68 0.950 . S
C83 C78 1.375 1_565 S
C83 C82 1.403 . S
C84 P64 1.803 . S
C84 C85 1.378 . S
C84 C89 1.368 1_545 S
C85 H69 0.939 . S
C85 C84 1.378 . S
C85 C86 1.361 . S
C86 H70 0.942 . S
C86 C85 1.361 . S
C86 C87 1.369 . S
C87 C86 1.369 . S
C87 C88 1.404 1_545 S
C88 H71 0.940 . S
C88 C87 1.404 1_565 S
C88 C89 1.402 . S
C89 H72 0.959 . S
C89 C84 1.368 1_565 S
C89 C88 1.402 . S
C90 P64 1.819 . S
C90 C91 1.391 . S
C90 C95 1.391 . S
C91 H73 0.941 . S
C91 C90 1.391 . S
C91 C92 1.396 . S
C92 H76 0.939 . S
C92 C91 1.396 . S
C92 C93 1.397 . S
C93 C92 1.397 . S
C93 C94 1.385 1_545 S
C94 H77 0.940 . S
C94 C93 1.385 1_565 S
C94 C95 1.388 1_565 S
C95 H74 0.929 1_545 S
C95 C90 1.391 . S
C95 C94 1.388 1_545 S
P96 O107 1.490 . S
P96 C110 1.812 . S
P96 C116 1.803 . S
P96 C122 1.819 . S
H97 C111 0.941 . S
H98 C112 0.939 . S
H99 C114 0.940 . S
H100 C115 0.940 . S
H101 C117 0.939 . S
H102 C118 0.942 . S
H103 C120 0.940 . S
H104 C121 0.939 . S
H105 C123 0.941 . S
H106 C127 0.939 . S
O107 P96 1.490 . S
H108 C124 0.939 . S
H109 C126 0.940 . S
C110 P96 1.812 . S
C110 C111 1.389 . S
C110 C115 1.391 . S
C111 H97 0.941 . S
C111 C110 1.389 . S
C111 C112 1.397 . S
C112 H98 0.939 . S
C112 C111 1.397 . S
C112 C113 1.378 . S
C113 C112 1.378 . S
C113 C114 1.378 . S
C114 H99 0.940 . S
C114 C113 1.378 . S
C114 C115 1.396 . S
C115 H100 0.940 . S
C115 C110 1.391 . S
C115 C114 1.396 . S
C116 P96 1.803 . S
C116 C117 1.378 . S
C116 C121 1.400 . S
C117 H101 0.939 . S
C117 C116 1.378 . S
C117 C118 1.361 . S
C118 H102 0.942 . S
C118 C117 1.361 . S
C118 C119 1.369 . S
C119 C118 1.369 . S
C119 C120 1.404 . S
C120 H103 0.940 . S
C120 C119 1.404 . S
C120 C121 1.389 . S
C121 H104 0.939 . S
C121 C116 1.400 . S
C121 C120 1.389 . S
C122 P96 1.819 . S
C122 C123 1.391 . S
C122 C127 1.391 . S
C123 H105 0.941 . S
C123 C122 1.391 . S
C123 C124 1.396 . S
C124 H108 0.939 . S
C124 C123 1.396 . S
C124 C125 1.397 . S
C125 C124 1.397 . S
C125 C126 1.385 . S
C126 H109 0.940 . S
C126 C125 1.385 . S
C126 C127 1.388 . S
C127 H106 0.939 . S
C127 C122 1.391 . S
C127 C126 1.388 . S
P128 O139 1.490 . S
P128 C142 1.812 1_554 S
P128 C148 1.803 . S
P128 C154 1.819 . S
H129 C143 0.941 . S
H130 C144 0.939 . S
H131 C146 0.940 . S
H132 C147 0.940 . S
H133 C149 0.939 . S
H134 C150 0.942 . S
H135 C152 0.940 . S
H136 C153 0.939 . S
H137 C155 0.941 . S
H138 C159 0.939 . S
O139 P128 1.490 . S
H140 C156 0.939 . S
H141 C158 0.940 . S
C142 P128 1.812 1_556 S
C142 C143 1.389 . S
C142 C147 1.391 . S
C143 H129 0.941 . S
C143 C142 1.389 . S
C143 C144 1.397 . S
C144 H130 0.939 . S
C144 C143 1.397 . S
C144 C145 1.378 . S
C145 C144 1.378 . S
C145 C146 1.378 . S
C146 H131 0.940 . S
C146 C145 1.378 . S
C146 C147 1.396 . S
C147 H132 0.940 . S
C147 C142 1.391 . S
C147 C146 1.396 . S
C148 P128 1.803 . S
C148 C149 1.378 . S
C148 C153 1.400 . S
C149 H133 0.939 . S
C149 C148 1.378 . S
C149 C150 1.361 . S
C150 H134 0.942 . S
C150 C149 1.361 . S
C150 C151 1.369 . S
C151 C150 1.369 . S
C151 C152 1.404 . S
C152 H135 0.940 . S
C152 C151 1.404 . S
C152 C153 1.389 . S
C153 H136 0.939 . S
C153 C148 1.400 . S
C153 C152 1.389 . S
C154 P128 1.819 . S
C154 C155 1.391 . S
C154 C159 1.391 . S
C155 H137 0.941 . S
C155 C154 1.391 . S
C155 C156 1.396 . S
C156 H140 0.939 . S
C156 C155 1.396 . S
C156 C157 1.397 . S
C157 C156 1.397 . S
C157 C158 1.385 . S
C158 H141 0.940 . S
C158 C157 1.385 . S
C158 C159 1.388 . S
C159 H138 0.939 . S
C159 C154 1.391 . S
C159 C158 1.388 . S
P160 O171 1.490 . S
P160 C174 1.812 1_554 S
P160 C180 1.803 . S
P160 C186 1.819 . S
H161 C175 0.941 . S
H162 C176 0.939 . S
H163 C178 0.940 . S
H164 C179 0.944 . S
H165 C181 0.939 . S
H166 C182 0.942 . S
H167 C184 0.940 . S
H168 C185 0.953 . S
H169 C187 0.941 . S
H170 C191 0.933 1_655 S
O171 P160 1.490 . S
H172 C188 0.939 . S
H173 C190 0.940 . S
C174 P160 1.812 1_556 S
C174 C175 1.389 . S
C174 C179 1.385 1_455 S
C175 H161 0.941 . S
C175 C174 1.389 . S
C175 C176 1.397 . S
C176 H162 0.939 . S
C176 C175 1.397 . S
C176 C177 1.378 . S
C177 C176 1.378 . S
C177 C178 1.378 1_455 S
C178 H163 0.940 . S
C178 C177 1.378 1_655 S
C178 C179 1.399 . S
C179 H164 0.944 . S
C179 C174 1.385 1_655 S
C179 C178 1.399 . S
C180 P160 1.803 . S
C180 C181 1.378 . S
C180 C185 1.379 1_455 S
C181 H165 0.939 . S
C181 C180 1.378 . S
C181 C182 1.361 . S
C182 H166 0.942 . S
C182 C181 1.361 . S
C182 C183 1.369 . S
C183 C182 1.369 . S
C183 C184 1.404 1_455 S
C184 H167 0.940 . S
C184 C183 1.404 1_655 S
C184 C185 1.398 . S
C185 H168 0.953 . S
C185 C180 1.379 1_655 S
C185 C184 1.398 . S
C186 P160 1.819 . S
C186 C187 1.391 . S
C186 C191 1.391 . S
C187 H169 0.941 . S
C187 C186 1.391 . S
C187 C188 1.396 . S
C188 H172 0.939 . S
C188 C187 1.396 . S
C188 C189 1.397 . S
C189 C188 1.397 . S
C189 C190 1.385 1_455 S
C190 H173 0.940 . S
C190 C189 1.385 1_655 S
C190 C191 1.388 1_655 S
C191 H170 0.933 1_455 S
C191 C186 1.391 . S
C191 C190 1.388 1_455 S
P192 O203 1.490 . S
P192 C206 1.812 1_554 S
P192 C212 1.803 . S
P192 C218 1.819 . S
H193 C207 0.941 . S
H194 C208 0.939 . S
H195 C210 0.940 . S
H196 C211 0.944 . S
H197 C213 0.939 . S
H198 C214 0.942 . S
H199 C216 0.940 . S
H200 C217 0.953 . S
H201 C219 0.941 . S
H202 C223 0.933 1_565 S
O203 P192 1.490 . S
H204 C220 0.939 . S
H205 C222 0.940 . S
C206 P192 1.812 1_556 S
C206 C207 1.389 . S
C206 C211 1.385 1_545 S
C207 H193 0.941 . S
C207 C206 1.389 . S
C207 C208 1.397 . S
C208 H194 0.939 . S
C208 C207 1.397 . S
C208 C209 1.378 . S
C209 C208 1.378 . S
C209 C210 1.378 1_545 S
C210 H195 0.940 . S
C210 C209 1.378 1_565 S
C210 C211 1.399 . S
C211 H196 0.944 . S
C211 C206 1.385 1_565 S
C211 C210 1.399 . S
C212 P192 1.803 . S
C212 C213 1.378 . S
C212 C217 1.379 1_545 S
C213 H197 0.939 . S
C213 C212 1.378 . S
C213 C214 1.361 . S
C214 H198 0.942 . S
C214 C213 1.361 . S
C214 C215 1.369 . S
C215 C214 1.369 . S
C215 C216 1.404 1_545 S
C216 H199 0.940 . S
C216 C215 1.404 1_565 S
C216 C217 1.398 . S
C217 H200 0.953 . S
C217 C212 1.379 1_565 S
C217 C216 1.398 . S
C218 P192 1.819 . S
C218 C219 1.391 . S
C218 C223 1.391 . S
C219 H201 0.941 . S
C219 C218 1.391 . S
C219 C220 1.396 . S
C220 H204 0.939 . S
C220 C219 1.396 . S
C220 C221 1.397 . S
C221 C220 1.397 . S
C221 C222 1.385 1_545 S
C222 H205 0.940 . S
C222 C221 1.385 1_565 S
C222 C223 1.388 1_565 S
C223 H202 0.933 1_545 S
C223 C218 1.391 . S
C223 C222 1.388 1_545 S
P224 O235 1.490 . S
P224 C238 1.812 1_554 S
P224 C244 1.803 . S
P224 C250 1.819 . S
H225 C239 0.941 . S
H226 C240 0.939 . S
H227 C242 0.940 . S
H228 C243 0.940 . S
H229 C245 0.939 . S
H230 C246 0.942 . S
H231 C248 0.940 . S
H232 C249 0.939 . S
H233 C251 0.941 . S
H234 C255 0.939 . S
O235 P224 1.490 . S
H236 C252 0.939 . S
H237 C254 0.940 . S
C238 P224 1.812 1_556 S
C238 C239 1.389 . S
C238 C243 1.391 . S
C239 H225 0.941 . S
C239 C238 1.389 . S
C239 C240 1.397 . S
C240 H226 0.939 . S
C240 C239 1.397 . S
C240 C241 1.378 . S
C241 C240 1.378 . S
C241 C242 1.378 . S
C242 H227 0.940 . S
C242 C241 1.378 . S
C242 C243 1.396 . S
C243 H228 0.940 . S
C243 C238 1.391 . S
C243 C242 1.396 . S
C244 P224 1.803 . S
C244 C245 1.378 . S
C244 C249 1.400 . S
C245 H229 0.939 . S
C245 C244 1.378 . S
C245 C246 1.361 . S
C246 H230 0.942 . S
C246 C245 1.361 . S
C246 C247 1.369 . S
C247 C246 1.369 . S
C247 C248 1.404 . S
C248 H231 0.940 . S
C248 C247 1.404 . S
C248 C249 1.389 . S
C249 H232 0.939 . S
C249 C244 1.400 . S
C249 C248 1.389 . S
C250 P224 1.819 . S
C250 C251 1.391 . S
C250 C255 1.391 . S
C251 H233 0.941 . S
C251 C250 1.391 . S
C251 C252 1.396 . S
C252 H236 0.939 . S
C252 C251 1.396 . S
C252 C253 1.397 . S
C253 C252 1.397 . S
C253 C254 1.385 . S
C254 H237 0.940 . S
C254 C253 1.385 . S
C254 C255 1.388 . S
C255 H234 0.939 . S
C255 C250 1.391 . S
C255 C254 1.388 . S
Ho256 C259 2.811 . S
Ho256 O276 2.322 . S
Ho256 O278 2.378 . S
Ho256 O279 2.524 . S
Ho256 O280 2.381 . S
Ho256 O281 2.669 1_565 S
Ho256 O283 2.346 1_565 S
Ho256 O287 2.305 1_455 S
Ho257 C268 2.811 . S
Ho257 O277 2.346 1_545 S
Ho257 O281 2.305 1_655 S
Ho257 O282 2.322 . S
Ho257 O284 2.378 . S
Ho257 O285 2.524 . S
Ho257 O286 2.381 . S
Ho257 O287 2.669 1_545 S
C258 O276 1.259 1_655 S
C258 O277 1.268 . S
C259 Ho256 2.811 . S
C259 C260 1.488 . S
C259 O278 1.215 . S
C259 O279 1.289 . S
C260 C259 1.488 . S
C260 C261 1.348 . S
C260 C265 1.413 . S
C261 C260 1.348 . S
C261 C262 1.442 . S
C261 H288 0.930 1_455 S
C262 C261 1.442 . S
C262 C263 1.381 . S
C262 H289 0.893 1_455 S
C263 C262 1.381 . S
C263 C264 1.321 . S
C264 C263 1.321 . S
C264 C265 1.403 . S
C264 H290 0.934 . S
C265 C260 1.413 . S
C265 C264 1.403 . S
C265 H291 0.930 . S
C266 O280 1.298 . S
C266 O281 1.243 1_565 S
C267 O282 1.259 1_455 S
C267 O283 1.268 . S
C268 Ho257 2.811 . S
C268 C269 1.488 . S
C268 O284 1.215 . S
C268 O285 1.289 . S
C269 C268 1.488 . S
C269 C270 1.348 . S
C269 C274 1.413 . S
C270 C269 1.348 . S
C270 C271 1.442 . S
C270 H292 0.930 1_655 S
C271 C270 1.442 . S
C271 C272 1.381 . S
C271 H293 0.931 1_655 S
C272 C271 1.381 . S
C272 C273 1.321 . S
C273 C272 1.321 . S
C273 C274 1.403 . S
C273 H294 0.934 . S
C274 C269 1.413 . S
C274 C273 1.403 . S
C274 H295 0.930 . S
C275 O286 1.275 . S
C275 O287 1.256 1_545 S
O276 Ho256 2.322 . S
O276 C258 1.259 1_455 S
O277 Ho257 2.346 1_565 S
O277 C258 1.268 . S
O278 Ho256 2.378 . S
O278 C259 1.215 . S
O279 Ho256 2.524 . S
O279 C259 1.289 . S
O280 Ho256 2.381 . S
O280 C266 1.298 . S
O281 Ho256 2.669 1_545 S
O281 Ho257 2.305 1_455 S
O281 C266 1.243 1_545 S
O282 Ho257 2.322 . S
O282 C267 1.259 1_655 S
O283 Ho256 2.346 1_545 S
O283 C267 1.268 . S
O284 Ho257 2.378 . S
O284 C268 1.215 . S
O285 Ho257 2.524 . S
O285 C268 1.289 . S
O286 Ho257 2.381 . S
O286 C275 1.275 . S
O287 Ho256 2.305 1_655 S
O287 Ho257 2.669 1_565 S
O287 C275 1.256 1_565 S
H288 C261 0.930 1_655 S
H289 C262 0.893 1_655 S
H290 C264 0.934 . S
H291 C265 0.930 . S
H292 C270 0.930 1_455 S
H293 C271 0.931 1_455 S
H294 C273 0.934 . S
H295 C274 0.930 . S
Ho296 C299 2.811 . S
Ho296 O316 2.322 . S
Ho296 O318 2.378 . S
Ho296 O319 2.524 . S
Ho296 O320 2.381 . S
Ho296 O321 2.669 . S
Ho296 O323 2.346 . S
Ho296 O327 2.305 1_545 S
Ho297 C308 2.811 . S
Ho297 O317 2.346 . S
Ho297 O321 2.305 1_565 S
Ho297 O322 2.322 . S
Ho297 O324 2.378 . S
Ho297 O325 2.524 . S
Ho297 O326 2.381 . S
Ho297 O327 2.669 . S
C298 O316 1.259 1_565 S
C298 O317 1.268 . S
C299 Ho296 2.811 . S
C299 C300 1.488 . S
C299 O318 1.215 . S
C299 O319 1.289 . S
C300 C299 1.488 . S
C300 C301 1.348 . S
C300 C305 1.413 . S
C301 C300 1.348 . S
C301 C302 1.442 . S
C301 H328 0.930 1_545 S
C302 C301 1.442 . S
C302 C303 1.381 . S
C302 H329 0.931 1_545 S
C303 C302 1.381 . S
C303 C304 1.321 . S
C304 C303 1.321 . S
C304 C305 1.403 . S
C304 H330 0.934 . S
C305 C300 1.413 . S
C305 C304 1.403 . S
C305 H331 0.930 . S
C306 O320 1.275 . S
C306 O321 1.256 . S
C307 O322 1.259 1_545 S
C307 O323 1.268 . S
C308 Ho297 2.811 . S
C308 C309 1.488 . S
C308 O324 1.215 . S
C308 O325 1.289 . S
C309 C308 1.488 . S
C309 C310 1.348 . S
C309 C314 1.413 . S
C310 C309 1.348 . S
C310 C311 1.442 . S
C310 H332 0.930 1_565 S
C311 C310 1.442 . S
C311 C312 1.381 . S
C311 H333 0.931 1_565 S
C312 C311 1.381 . S
C312 C313 1.321 . S
C313 C312 1.321 . S
C313 C314 1.403 . S
C313 H334 0.934 . S
C314 C309 1.413 . S
C314 C313 1.403 . S
C314 H335 0.930 . S
C315 O326 1.275 . S
C315 O327 1.256 . S
O316 Ho296 2.322 . S
O316 C298 1.259 1_545 S
O317 Ho297 2.346 . S
O317 C298 1.268 . S
O318 Ho296 2.378 . S
O318 C299 1.215 . S
O319 Ho296 2.524 . S
O319 C299 1.289 . S
O320 Ho296 2.381 . S
O320 C306 1.275 . S
O321 Ho296 2.669 . S
O321 Ho297 2.305 1_545 S
O321 C306 1.256 . S
O322 Ho297 2.322 . S
O322 C307 1.259 1_565 S
O323 Ho296 2.346 . S
O323 C307 1.268 . S
O324 Ho297 2.378 . S
O324 C308 1.215 . S
O325 Ho297 2.524 . S
O325 C308 1.289 . S
O326 Ho297 2.381 . S
O326 C315 1.275 . S
O327 Ho296 2.305 1_565 S
O327 Ho297 2.669 . S
O327 C315 1.256 . S
H328 C301 0.930 1_565 S
H329 C302 0.931 1_565 S
H330 C304 0.934 . S
H331 C305 0.930 . S
H332 C310 0.930 1_545 S
H333 C311 0.931 1_545 S
H334 C313 0.934 . S
H335 C314 0.930 . S
Ho336 C339 2.811 . S
Ho336 O356 2.322 . S
Ho336 O358 2.378 . S
Ho336 O359 2.524 . S
Ho336 O360 2.381 . S
Ho336 O361 2.669 . S
Ho336 O363 2.346 . S
Ho336 O367 2.305 . S
Ho337 C348 2.811 . S
Ho337 O357 2.346 . S
Ho337 O361 2.305 . S
Ho337 O362 2.322 . S
Ho337 O364 2.378 . S
Ho337 O365 2.524 . S
Ho337 O366 2.381 . S
Ho337 O367 2.669 . S
C338 O356 1.259 . S
C338 O357 1.268 . S
C339 Ho336 2.811 . S
C339 C340 1.488 . S
C339 O358 1.215 . S
C339 O359 1.289 . S
C340 C339 1.488 . S
C340 C341 1.348 . S
C340 C345 1.413 . S
C341 C340 1.348 . S
C341 C342 1.442 . S
C341 H368 0.930 . S
C342 C341 1.442 . S
C342 C343 1.381 . S
C342 H369 0.931 . S
C343 C342 1.381 . S
C343 C344 1.321 . S
C344 C343 1.321 . S
C344 C345 1.403 . S
C344 H370 0.934 . S
C345 C340 1.413 . S
C345 C344 1.403 . S
C345 H371 0.930 . S
C346 O360 1.275 . S
C346 O361 1.256 . S
C347 O362 1.259 . S
C347 O363 1.268 . S
C348 Ho337 2.811 . S
C348 C349 1.488 . S
C348 O364 1.215 . S
C348 O365 1.289 . S
C349 C348 1.488 . S
C349 C350 1.348 . S
C349 C354 1.413 . S
C350 C349 1.348 . S
C350 C351 1.442 . S
C350 H372 0.930 . S
C351 C350 1.442 . S
C351 C352 1.381 . S
C351 H373 0.931 . S
C352 C351 1.381 . S
C352 C353 1.321 . S
C353 C352 1.321 . S
C353 C354 1.403 . S
C353 H374 0.934 . S
C354 C349 1.413 . S
C354 C353 1.403 . S
C354 H375 0.930 . S
C355 O366 1.275 . S
C355 O367 1.256 . S
O356 Ho336 2.322 . S
O356 C338 1.259 . S
O357 Ho337 2.346 . S
O357 C338 1.268 . S
O358 Ho336 2.378 . S
O358 C339 1.215 . S
O359 Ho336 2.524 . S
O359 C339 1.289 . S
O360 Ho336 2.381 . S
O360 C346 1.275 . S
O361 Ho336 2.669 . S
O361 Ho337 2.305 . S
O361 C346 1.256 . S
O362 Ho337 2.322 . S
O362 C347 1.259 . S
O363 Ho336 2.346 . S
O363 C347 1.268 . S
O364 Ho337 2.378 . S
O364 C348 1.215 . S
O365 Ho337 2.524 . S
O365 C348 1.289 . S
O366 Ho337 2.381 . S
O366 C355 1.275 . S
O367 Ho336 2.305 . S
O367 Ho337 2.669 . S
O367 C355 1.256 . S
H368 C341 0.930 . S
H369 C342 0.931 . S
H370 C344 0.934 . S
H371 C345 0.930 . S
H372 C350 0.930 . S
H373 C351 0.931 . S
H374 C353 0.934 . S
H375 C354 0.930 . S
Ho376 C379 2.811 . S
Ho376 O396 2.322 . S
Ho376 O398 2.378 . S
Ho376 O399 2.524 . S
Ho376 O400 2.381 . S
Ho376 O401 2.669 1_655 S
Ho376 O403 2.346 1_655 S
Ho376 O407 2.305 . S
Ho377 C388 2.811 . S
Ho377 O397 2.346 1_455 S
Ho377 O401 2.305 . S
Ho377 O402 2.322 . S
Ho377 O404 2.378 . S
Ho377 O405 2.524 . S
Ho377 O406 2.381 . S
Ho377 O407 2.669 1_455 S
C378 O396 1.259 . S
C378 O397 1.268 . S
C379 Ho376 2.811 . S
C379 C380 1.488 . S
C379 O398 1.215 . S
C379 O399 1.289 . S
C380 C379 1.488 . S
C380 C381 1.348 . S
C380 C385 1.413 . S
C381 C380 1.348 . S
C381 C382 1.442 . S
C381 H408 0.930 . S
C382 C381 1.442 . S
C382 C383 1.381 . S
C382 H409 0.931 . S
C383 C382 1.381 . S
C383 C384 1.321 . S
C384 C383 1.321 . S
C384 C385 1.403 . S
C384 H410 0.934 . S
C385 C380 1.413 . S
C385 C384 1.403 . S
C385 H411 0.930 . S
C386 O400 1.290 . S
C386 O401 1.248 1_655 S
C387 O402 1.259 . S
C387 O403 1.268 . S
C388 Ho377 2.811 . S
C388 C389 1.488 . S
C388 O404 1.215 . S
C388 O405 1.289 . S
C389 C388 1.488 . S
C389 C390 1.348 . S
C389 C394 1.413 . S
C390 C389 1.348 . S
C390 C391 1.442 . S
C390 H412 0.930 . S
C391 C390 1.442 . S
C391 C392 1.381 . S
C391 H413 0.931 . S
C392 C391 1.381 . S
C392 C393 1.321 . S
C393 C392 1.321 . S
C393 C394 1.403 . S
C393 H414 0.934 . S
C394 C389 1.413 . S
C394 C393 1.403 . S
C394 H415 0.930 . S
C395 O406 1.295 . S
C395 O407 1.245 1_455 S
O396 Ho376 2.322 . S
O396 C378 1.259 . S
O397 Ho377 2.346 1_655 S
O397 C378 1.268 . S
O398 Ho376 2.378 . S
O398 C379 1.215 . S
O399 Ho376 2.524 . S
O399 C379 1.289 . S
O400 Ho376 2.381 . S
O400 C386 1.290 . S
O401 Ho376 2.669 1_455 S
O401 Ho377 2.305 . S
O401 C386 1.248 1_455 S
O402 Ho377 2.322 . S
O402 C387 1.259 . S
O403 Ho376 2.346 1_455 S
O403 C387 1.268 . S
O404 Ho377 2.378 . S
O404 C388 1.215 . S
O405 Ho377 2.524 . S
O405 C388 1.289 . S
O406 Ho377 2.381 . S
O406 C395 1.295 . S
O407 Ho376 2.305 . S
O407 Ho377 2.669 1_655 S
O407 C395 1.245 1_655 S
H408 C381 0.930 . S
H409 C382 0.931 . S
H410 C384 0.934 . S
H411 C385 0.930 . S
H412 C390 0.930 . S
H413 C391 0.931 . S
H414 C393 0.934 . S
H415 C394 0.930 . S
H416 C422 0.930 . S
H417 C426 0.930 . S
H418 C431 0.929 . S
H419 C429 0.929 . S
H420 C424 0.929 . S
H421 C430 0.929 . S
C422 H416 0.930 . S
C422 C423 1.387 . S
C422 C430 1.378 . S
C423 C422 1.387 . S
C423 C431 1.414 1_545 S
C424 H420 0.929 . S
C424 C426 1.378 . S
C424 C428 1.336 1_565 S
C425 C428 1.463 . S
C425 C430 1.350 . S
C425 N433 1.427 1_545 S
C426 H417 0.930 . S
C426 C424 1.378 . S
C426 C427 1.367 1_565 S
C427 C426 1.367 1_545 S
C427 C429 1.433 . S
C428 C424 1.336 1_545 S
C428 C425 1.463 . S
C428 N432 1.442 . S
C429 H419 0.929 . S
C429 C427 1.433 . S
C429 N432 1.384 . S
C430 H421 0.929 . S
C430 C422 1.378 . S
C430 C425 1.350 . S
C431 H418 0.929 . S
C431 C423 1.414 1_565 S
C431 N433 1.384 . S
N432 C428 1.442 . S
N432 C429 1.384 . S
N433 C425 1.427 1_565 S
N433 C431 1.384 . S
H434 C440 0.930 . S
H435 C444 0.930 . S
H436 C449 0.929 . S
H437 C447 0.929 . S
H438 C442 0.929 . S
H439 C448 0.929 . S
C440 H434 0.930 . S
C440 C441 1.367 . S
C440 C448 1.378 . S
C441 C440 1.367 . S
C441 C449 1.433 . S
C442 H438 0.929 . S
C442 C444 1.378 . S
C442 C446 1.350 . S
C443 C446 1.463 . S
C443 C448 1.350 . S
C443 N451 1.427 . S
C444 H435 0.930 . S
C444 C442 1.378 . S
C444 C445 1.367 . S
C445 C444 1.367 . S
C445 C447 1.433 . S
C446 C442 1.350 . S
C446 C443 1.463 . S
C446 N450 1.427 . S
C447 H437 0.929 . S
C447 C445 1.433 . S
C447 N450 1.384 . S
C448 H439 0.929 . S
C448 C440 1.378 . S
C448 C443 1.350 . S
C449 H436 0.929 . S
C449 C441 1.433 . S
C449 N451 1.384 . S
N450 C446 1.427 . S
N450 C447 1.384 . S
N451 C443 1.427 . S
N451 C449 1.384 . S
H452 C458 0.930 . S
H453 C462 0.930 . S
H454 C467 0.929 . S
H455 C465 0.929 . S
H456 C460 0.929 . S
H457 C466 0.929 . S
C458 H452 0.930 . S
C458 C459 1.367 . S
C458 C466 1.378 . S
C459 C458 1.367 . S
C459 C467 1.433 . S
C460 H456 0.929 . S
C460 C462 1.378 . S
C460 C464 1.350 . S
C461 C464 1.463 . S
C461 C466 1.350 . S
C461 N469 1.427 . S
C462 H453 0.930 . S
C462 C460 1.378 . S
C462 C463 1.367 . S
C463 C462 1.367 . S
C463 C465 1.433 . S
C464 C460 1.350 . S
C464 C461 1.463 . S
C464 N468 1.427 . S
C465 H455 0.929 . S
C465 C463 1.433 . S
C465 N468 1.384 . S
C466 H457 0.929 . S
C466 C458 1.378 . S
C466 C461 1.350 . S
C467 H454 0.929 . S
C467 C459 1.433 . S
C467 N469 1.384 . S
N468 C464 1.427 . S
N468 C465 1.384 . S
N469 C461 1.427 . S
N469 C467 1.384 . S
H470 C476 0.930 . S
H471 C480 0.930 . S
H472 C485 0.929 . S
H473 C483 0.929 . S
H474 C478 0.929 . S
H475 C484 0.929 . S
C476 H470 0.930 . S
C476 C477 1.365 1_655 S
C476 C484 1.378 . S
C477 C476 1.365 1_455 S
C477 C485 1.435 . S
C478 H474 0.929 . S
C478 C480 1.378 . S
C478 C482 1.350 . S
C479 C482 1.464 . S
C479 C484 1.342 1_455 S
C479 N487 1.436 . S
C480 H471 0.930 . S
C480 C478 1.378 . S
C480 C481 1.367 . S
C481 C480 1.367 . S
C481 C483 1.433 1_455 S
C482 C478 1.350 . S
C482 C479 1.464 . S
C482 N486 1.427 1_455 S
C483 H473 0.929 . S
C483 C481 1.433 1_655 S
C483 N486 1.384 . S
C484 H475 0.929 . S
C484 C476 1.378 . S
C484 C479 1.342 1_655 S
C485 H472 0.929 . S
C485 C477 1.435 . S
C485 N487 1.384 . S
N486 C482 1.427 1_655 S
N486 C483 1.384 . S
N487 C479 1.436 . S
N487 C485 1.384 . S
H488 C494 0.930 . S
H489 C498 0.930 . S
H490 C503 0.929 . S
H491 C501 0.929 . S
H492 C496 0.929 . S
H493 C502 0.929 . S
C494 H488 0.930 . S
C494 C495 1.372 . S
C494 C502 1.378 . S
C495 C494 1.372 . S
C495 C503 1.428 1_565 S
C496 H492 0.929 . S
C496 C498 1.378 . S
C496 C500 1.342 1_546 S
C497 C500 1.462 . S
C497 C502 1.367 . S
C497 N505 1.410 1_565 S
C498 H489 0.930 . S
C498 C496 1.378 . S
C498 C499 1.367 1_545 S
C499 C498 1.367 1_565 S
C499 C501 1.433 . S
C500 C496 1.342 1_564 S
C500 C497 1.462 . S
C500 N504 1.436 . S
C501 H491 0.929 . S
C501 C499 1.433 . S
C501 N504 1.384 1_556 S
C502 H493 0.929 . S
C502 C494 1.378 . S
C502 C497 1.367 . S
C503 H490 0.929 . S
C503 C495 1.428 1_545 S
C503 N505 1.384 . S
N504 C500 1.436 . S
N504 C501 1.384 1_554 S
N505 C497 1.410 1_545 S
N505 C503 1.384 . S
H506 C512 0.930 . S
H507 C516 0.930 . S
H508 C521 0.929 . S
H509 C519 0.929 . S
H510 C514 0.929 . S
H511 C520 0.929 . S
C512 H506 0.930 . S
C512 C513 1.367 . S
C512 C520 1.378 . S
C513 C512 1.367 . S
C513 C521 1.433 . S
C514 H510 0.929 . S
C514 C516 1.378 1_554 S
C514 C518 1.350 . S
C515 C518 1.463 . S
C515 C520 1.350 . S
C515 N523 1.427 . S
C516 H507 0.930 . S
C516 C514 1.378 1_556 S
C516 C517 1.367 . S
C517 C516 1.367 . S
C517 C519 1.433 . S
C518 C514 1.350 . S
C518 C515 1.463 . S
C518 N522 1.427 1_554 S
C519 H509 0.929 . S
C519 C517 1.433 . S
C519 N522 1.384 . S
C520 H511 0.929 . S
C520 C512 1.378 . S
C520 C515 1.350 . S
C521 H508 0.929 . S
C521 C513 1.433 . S
C521 N523 1.384 . S
N522 C518 1.427 1_556 S
N522 C519 1.384 . S
N523 C515 1.427 . S
N523 C521 1.384 . S
H524 C530 0.930 . S
H525 C534 0.930 . S
H526 C539 0.929 . S
H527 C537 0.929 . S
H528 C532 0.929 . S
H529 C538 0.929 . S
C530 H524 0.930 . S
C530 C531 1.367 . S
C530 C538 1.378 . S
C531 C530 1.367 . S
C531 C539 1.433 . S
C532 H528 0.929 . S
C532 C534 1.378 . S
C532 C536 1.350 1_556 S
C533 C536 1.463 . S
C533 C538 1.350 . S
C533 N541 1.427 . S
C534 H525 0.930 . S
C534 C532 1.378 . S
C534 C535 1.367 . S
C535 C534 1.367 . S
C535 C537 1.433 . S
C536 C532 1.350 1_554 S
C536 C533 1.463 . S
C536 N540 1.427 . S
C537 H527 0.929 . S
C537 C535 1.433 . S
C537 N540 1.384 1_556 S
C538 H529 0.929 . S
C538 C530 1.378 . S
C538 C533 1.350 . S
C539 H526 0.929 . S
C539 C531 1.433 . S
C539 N541 1.384 . S
N540 C536 1.427 . S
N540 C537 1.384 1_554 S
N541 C533 1.427 . S
N541 C539 1.384 . S
H542 C548 0.930 . S
H543 C552 0.930 . S
H544 C557 0.929 . S
H545 C555 0.929 . S
H546 C550 0.929 . S
H547 C556 0.929 . S
C548 H542 0.930 . S
C548 C549 1.378 . S
C548 C556 1.378 . S
C549 C548 1.378 . S
C549 C557 1.422 1_655 S
C550 H546 0.929 . S
C550 C552 1.378 . S
C550 C554 1.334 1_456 S
C551 C554 1.464 . S
C551 C556 1.350 . S
C551 N559 1.427 1_655 S
C552 H543 0.930 . S
C552 C550 1.378 . S
C552 C553 1.367 1_455 S
C553 C552 1.367 1_655 S
C553 C555 1.433 . S
C554 C550 1.334 1_654 S
C554 C551 1.464 . S
C554 N558 1.445 . S
C555 H545 0.929 . S
C555 C553 1.433 . S
C555 N558 1.384 1_556 S
C556 H547 0.929 . S
C556 C548 1.378 . S
C556 C551 1.350 . S
C557 H544 0.929 . S
C557 C549 1.422 1_455 S
C557 N559 1.384 . S
N558 C554 1.445 . S
N558 C555 1.384 1_554 S
N559 C551 1.427 1_455 S
N559 C557 1.384 . S
H560 C566 0.930 . S
H561 C570 0.930 . S
H562 C575 0.929 . S
H563 C573 0.929 . S
H564 C568 0.929 . S
H565 C574 0.929 . S
C566 H560 0.930 . S
C566 C567 1.367 . S
C566 C574 1.378 . S
C567 C566 1.367 . S
C567 C575 1.433 1_455 S
C568 H564 0.929 . S
C568 C570 1.378 . S
C568 C572 1.350 . S
C569 C572 1.463 . S
C569 C574 1.350 1_655 S
C569 N577 1.427 . S
C570 H561 0.930 . S
C570 C568 1.378 . S
C570 C571 1.367 . S
C571 C570 1.367 . S
C571 C573 1.433 . S
C572 C568 1.350 . S
C572 C569 1.463 . S
C572 N576 1.427 . S
C573 H563 0.929 . S
C573 C571 1.433 . S
C573 N576 1.384 . S
C574 H565 0.929 . S
C574 C566 1.378 . S
C574 C569 1.350 1_455 S
C575 H562 0.929 . S
C575 C567 1.433 1_655 S
C575 N577 1.384 . S
N576 C572 1.427 . S
N576 C573 1.384 . S
N577 C569 1.427 . S
N577 C575 1.384 . S
H578 C584 0.930 . S
H579 C588 0.930 . S
H580 C593 0.929 . S
H581 C591 0.929 . S
H582 C586 0.929 . S
H583 C592 0.929 . S
C584 H578 0.930 . S
C584 C585 1.367 . S
C584 C592 1.378 1_545 S
C585 C584 1.367 . S
C585 C593 1.433 1_545 S
C586 H582 0.929 . S
C586 C588 1.378 . S
C586 C590 1.350 . S
C587 C590 1.463 . S
C587 C592 1.350 . S
C587 N595 1.427 . S
C588 H579 0.930 . S
C588 C586 1.378 . S
C588 C589 1.367 . S
C589 C588 1.367 . S
C589 C591 1.433 . S
C590 C586 1.350 . S
C590 C587 1.463 . S
C590 N594 1.427 . S
C591 H581 0.929 . S
C591 C589 1.433 . S
C591 N594 1.384 . S
C592 H583 0.929 . S
C592 C584 1.378 1_565 S
C592 C587 1.350 . S
C593 H580 0.929 . S
C593 C585 1.433 1_565 S
C593 N595 1.384 . S
N594 C590 1.427 . S
N594 C591 1.384 . S
N595 C587 1.427 . S
N595 C593 1.384 . S
H596 C602 0.930 . S
H597 C606 0.930 . S
H598 C611 0.929 . S
H599 C609 0.929 . S
H600 C604 0.929 . S
H601 C610 0.929 . S
C602 H596 0.930 . S
C602 C603 1.367 . S
C602 C610 1.378 . S
C603 C602 1.367 . S
C603 C611 1.433 . S
C604 H600 0.929 . S
C604 C606 1.378 . S
C604 C608 1.350 . S
C605 C608 1.463 . S
C605 C610 1.350 . S
C605 N613 1.427 . S
C606 H597 0.930 . S
C606 C604 1.378 . S
C606 C607 1.367 . S
C607 C606 1.367 . S
C607 C609 1.433 . S
C608 C604 1.350 . S
C608 C605 1.463 . S
C608 N612 1.427 . S
C609 H599 0.929 . S
C609 C607 1.433 . S
C609 N612 1.384 . S
C610 H601 0.929 . S
C610 C602 1.378 . S
C610 C605 1.350 . S
C611 H598 0.929 . S
C611 C603 1.433 . S
C611 N613 1.384 . S
N612 C608 1.427 . S
N612 C609 1.384 . S
N613 C605 1.427 . S
N613 C611 1.384 . S
H614 C620 0.930 . S
H615 C624 0.930 . S
H616 C629 0.929 . S
H617 C627 0.929 . S
H618 C622 0.929 . S
H619 C628 0.929 . S
C620 H614 0.930 . S
C620 C621 1.367 . S
C620 C628 1.378 . S
C621 C620 1.367 . S
C621 C629 1.433 . S
C622 H618 0.929 . S
C622 C624 1.378 . S
C622 C626 1.350 . S
C623 C626 1.463 . S
C623 C628 1.350 . S
C623 N631 1.427 . S
C624 H615 0.930 . S
C624 C622 1.378 . S
C624 C625 1.367 . S
C625 C624 1.367 . S
C625 C627 1.433 . S
C626 C622 1.350 . S
C626 C623 1.463 . S
C626 N630 1.427 . S
C627 H617 0.929 . S
C627 C625 1.433 . S
C627 N630 1.384 . S
C628 H619 0.929 . S
C628 C620 1.378 . S
C628 C623 1.350 . S
C629 H616 0.929 . S
C629 C621 1.433 . S
C629 N631 1.384 . S
N630 C626 1.427 . S
N630 C627 1.384 . S
N631 C623 1.427 . S
N631 C629 1.384 . S
H632 C638 0.930 . S
H633 C642 0.930 . S
H634 C647 0.929 . S
H635 C645 0.929 . S
H636 C640 0.929 . S
H637 C646 0.929 . S
C638 H632 0.930 . S
C638 C639 1.367 . S
C638 C646 1.378 . S
C639 C638 1.367 . S
C639 C647 1.433 1_655 S
C640 H636 0.929 . S
C640 C642 1.378 . S
C640 C644 1.350 . S
C641 C644 1.463 . S
C641 C646 1.350 1_455 S
C641 N649 1.427 . S
C642 H633 0.930 . S
C642 C640 1.378 . S
C642 C643 1.367 1_554 S
C643 C642 1.367 1_556 S
C643 C645 1.433 . S
C644 C640 1.350 . S
C644 C641 1.463 . S
C644 N648 1.427 1_554 S
C645 H635 0.929 . S
C645 C643 1.433 . S
C645 N648 1.384 . S
C646 H637 0.929 . S
C646 C638 1.378 . S
C646 C641 1.350 1_655 S
C647 H634 0.929 . S
C647 C639 1.433 1_455 S
C647 N649 1.384 . S
N648 C644 1.427 1_556 S
N648 C645 1.384 . S
N649 C641 1.427 . S
N649 C647 1.384 . S
H650 C656 0.930 . S
H651 C660 0.930 . S
H652 C665 0.929 . S
H653 C663 0.929 . S
H654 C658 0.929 . S
H655 C664 0.929 . S
C656 H650 0.930 . S
C656 C657 1.367 1_545 S
C656 C664 1.378 . S
C657 C656 1.367 1_565 S
C657 C665 1.433 . S
C658 H654 0.929 . S
C658 C660 1.378 . S
C658 C662 1.350 1_556 S
C659 C662 1.463 . S
C659 C664 1.350 . S
C659 N667 1.455 . S
C660 H651 0.930 . S
C660 C658 1.378 . S
C660 C661 1.367 . S
C661 C660 1.367 . S
C661 C663 1.433 1_556 S
C662 C658 1.350 1_554 S
C662 C659 1.463 . S
C662 N666 1.427 . S
C663 H653 0.929 . S
C663 C661 1.433 1_554 S
C663 N666 1.384 . S
C664 H655 0.929 . S
C664 C656 1.378 . S
C664 C659 1.350 . S
C665 H652 0.929 . S
C665 C657 1.433 . S
C665 N667 1.367 1_565 S
N666 C662 1.427 . S
N666 C663 1.384 . S
N667 C659 1.455 . S
N667 C665 1.367 1_545 S
H668 C674 0.930 . S
H669 C678 0.930 . S
H670 C683 0.929 . S
H671 C681 0.929 . S
H672 C676 0.929 . S
H673 C682 0.929 . S
C674 H668 0.930 . S
C674 C675 1.367 . S
C674 C682 1.378 . S
C675 C674 1.367 . S
C675 C683 1.433 . S
C676 H672 0.929 . S
C676 C678 1.378 . S
C676 C680 1.350 1_556 S
C677 C680 1.463 . S
C677 C682 1.350 . S
C677 N685 1.427 . S
C678 H669 0.930 . S
C678 C676 1.378 . S
C678 C679 1.367 . S
C679 C678 1.367 . S
C679 C681 1.433 1_556 S
C680 C676 1.350 1_554 S
C680 C677 1.463 . S
C680 N684 1.427 . S
C681 H671 0.929 . S
C681 C679 1.433 1_554 S
C681 N684 1.384 . S
C682 H673 0.929 . S
C682 C674 1.378 . S
C682 C677 1.350 . S
C683 H670 0.929 . S
C683 C675 1.433 . S
C683 N685 1.384 . S
N684 C680 1.427 . S
N684 C681 1.384 . S
N685 C677 1.427 . S
N685 C683 1.384 . S
H686 C692 0.930 . S
H687 C696 0.930 . S
H688 C701 0.929 . S
H689 C699 0.929 . S
H690 C694 0.929 . S
H691 C700 0.929 . S
C692 H686 0.930 . S
C692 C693 1.367 . S
C692 C700 1.378 . S
C693 C692 1.367 . S
C693 C701 1.433 . S
C694 H690 0.929 . S
C694 C696 1.378 . S
C694 C698 1.350 . S
C695 C698 1.463 . S
C695 C700 1.350 . S
C695 N703 1.427 . S
C696 H687 0.930 . S
C696 C694 1.378 . S
C696 C697 1.367 1_554 S
C697 C696 1.367 1_556 S
C697 C699 1.433 . S
C698 C694 1.350 . S
C698 C695 1.463 . S
C698 N702 1.427 1_554 S
C699 H689 0.929 . S
C699 C697 1.433 . S
C699 N702 1.384 . S
C700 H691 0.929 . S
C700 C692 1.378 . S
C700 C695 1.350 . S
C701 H688 0.929 . S
C701 C693 1.433 . S
C701 N703 1.384 . S
N702 C698 1.427 1_556 S
N702 C699 1.384 . S
N703 C695 1.427 . S
N703 C701 1.384 . S
H704 C710 0.930 . S
H705 C714 0.930 . S
H706 C719 0.929 . S
H707 C717 0.929 1_655 S
H708 C712 0.929 . S
H709 C718 0.929 . S
C710 H704 0.930 . S
C710 C711 1.367 1_655 S
C710 C718 1.378 . S
C711 C710 1.367 1_455 S
C711 C719 1.433 . S
C712 H708 0.929 . S
C712 C714 1.378 . S
C712 C716 1.350 . S
C713 C716 1.463 . S
C713 C718 1.350 1_455 S
C713 N721 1.427 . S
C714 H705 0.930 . S
C714 C712 1.378 . S
C714 C715 1.367 . S
C715 C714 1.367 . S
C715 C717 1.433 . S
C716 C712 1.350 . S
C716 C713 1.463 . S
C716 N720 1.426 1_455 S
C717 H707 0.929 1_455 S
C717 C715 1.433 . S
C717 N720 1.383 1_455 S
C718 H709 0.929 . S
C718 C710 1.378 . S
C718 C713 1.350 1_655 S
C719 H706 0.929 . S
C719 C711 1.433 . S
C719 N721 1.384 . S
N720 C716 1.426 1_655 S
N720 C717 1.383 1_655 S
N721 C713 1.427 . S
N721 C719 1.384 . S
H722 C728 0.930 . S
H723 C732 0.930 . S
H724 C737 0.929 . S
H725 C735 0.923 1_565 S
H726 C730 0.929 . S
H727 C736 0.929 . S
C728 H722 0.930 . S
C728 C729 1.367 1_565 S
C728 C736 1.378 . S
C729 C728 1.367 1_545 S
C729 C737 1.433 . S
C730 H726 0.929 . S
C730 C732 1.378 . S
C730 C734 1.350 . S
C731 C734 1.463 . S
C731 C736 1.350 1_545 S
C731 N739 1.427 . S
C732 H723 0.930 . S
C732 C730 1.378 . S
C732 C733 1.367 . S
C733 C732 1.367 . S
C733 C735 1.441 . S
C734 C730 1.350 . S
C734 C731 1.463 . S
C734 N738 1.427 1_545 S
C735 H725 0.923 1_545 S
C735 C733 1.441 . S
C735 N738 1.383 1_545 S
C736 H727 0.929 . S
C736 C728 1.378 . S
C736 C731 1.350 1_565 S
C737 H724 0.929 . S
C737 C729 1.433 . S
C737 N739 1.384 . S
N738 C734 1.427 1_565 S
N738 C735 1.383 1_565 S
N739 C731 1.427 . S
N739 C737 1.384 . S
H740 C746 0.930 . S
H741 C750 0.930 . S
H742 C755 0.929 . S
H743 C753 0.929 . S
H744 C748 0.929 . S
H745 C754 0.929 . S
C746 H740 0.930 . S
C746 C747 1.367 . S
C746 C754 1.378 . S
C747 C746 1.367 . S
C747 C755 1.433 . S
C748 H744 0.929 . S
C748 C750 1.378 . S
C748 C752 1.350 . S
C749 C752 1.463 . S
C749 C754 1.350 . S
C749 N757 1.427 . S
C750 H741 0.930 . S
C750 C748 1.378 . S
C750 C751 1.367 . S
C751 C750 1.367 . S
C751 C753 1.433 . S
C752 C748 1.350 . S
C752 C749 1.463 . S
C752 N756 1.427 . S
C753 H743 0.929 . S
C753 C751 1.433 . S
C753 N756 1.384 . S
C754 H745 0.929 . S
C754 C746 1.378 . S
C754 C749 1.350 . S
C755 H742 0.929 . S
C755 C747 1.433 . S
C755 N757 1.384 . S
N756 C752 1.427 . S
N756 C753 1.384 . S
N757 C749 1.427 . S
N757 C755 1.384 . S
H758 C764 0.930 . S
H759 C768 0.930 . S
H760 C773 0.929 . S
H761 C771 0.929 . S
H762 C766 0.929 . S
H763 C772 0.929 . S
C764 H758 0.930 . S
C764 C765 1.367 . S
C764 C772 1.378 . S
C765 C764 1.367 . S
C765 C773 1.433 . S
C766 H762 0.929 . S
C766 C768 1.378 . S
C766 C770 1.350 . S
C767 C770 1.463 . S
C767 C772 1.350 . S
C767 N775 1.427 . S
C768 H759 0.930 . S
C768 C766 1.378 . S
C768 C769 1.367 . S
C769 C768 1.367 . S
C769 C771 1.433 . S
C770 C766 1.350 . S
C770 C767 1.463 . S
C770 N774 1.427 . S
C771 H761 0.929 . S
C771 C769 1.433 . S
C771 N774 1.384 . S
C772 H763 0.929 . S
C772 C764 1.378 . S
C772 C767 1.350 . S
C773 H760 0.929 . S
C773 C765 1.433 . S
C773 N775 1.384 . S
N774 C770 1.427 . S
N774 C771 1.384 . S
N775 C767 1.427 . S
N775 C773 1.384 . S
H776 C782 0.930 . S
H777 C786 0.930 . S
H778 C791 0.929 . S
H779 C789 0.929 . S
H780 C784 0.929 . S
H781 C790 0.929 . S
C782 H776 0.930 . S
C782 C783 1.367 1_455 S
C782 C790 1.378 . S
C783 C782 1.367 1_655 S
C783 C791 1.433 . S
C784 H780 0.929 . S
C784 C786 1.378 . S
C784 C788 1.350 . S
C785 C788 1.463 . S
C785 C790 1.350 1_655 S
C785 N793 1.427 . S
C786 H777 0.930 . S
C786 C784 1.378 . S
C786 C787 1.367 . S
C787 C786 1.367 . S
C787 C789 1.433 1_655 S
C788 C784 1.350 . S
C788 C785 1.463 . S
C788 N792 1.427 1_655 S
C789 H779 0.929 . S
C789 C787 1.433 1_455 S
C789 N792 1.384 . S
C790 H781 0.929 . S
C790 C782 1.378 . S
C790 C785 1.350 1_455 S
C791 H778 0.929 . S
C791 C783 1.433 . S
C791 N793 1.384 . S
N792 C788 1.427 1_455 S
N792 C789 1.384 . S
N793 C785 1.427 . S
N793 C791 1.384 . S
H794 C800 0.930 . S
H795 C804 0.951 . S
H796 C809 0.929 . S
H797 C807 0.929 . S
H798 C802 0.929 . S
H799 C808 0.929 . S
C800 H794 0.930 . S
C800 C801 1.367 . S
C800 C808 1.378 . S
C801 C800 1.367 . S
C801 C809 1.433 1_565 S
C802 H798 0.929 . S
C802 C804 1.382 . S
C802 C806 1.350 1_545 S
C803 C806 1.463 . S
C803 C808 1.350 . S
C803 N811 1.427 1_565 S
C804 H795 0.951 . S
C804 C802 1.382 . S
C804 C805 1.344 1_545 S
C805 C804 1.344 1_565 S
C805 C807 1.433 . S
C806 C802 1.350 1_565 S
C806 C803 1.463 . S
C806 N810 1.427 . S
C807 H797 0.929 . S
C807 C805 1.433 . S
C807 N810 1.384 . S
C808 H799 0.929 . S
C808 C800 1.378 . S
C808 C803 1.350 . S
C809 H796 0.929 . S
C809 C801 1.433 1_545 S
C809 N811 1.384 . S
N810 C806 1.427 . S
N810 C807 1.384 . S
N811 C803 1.427 1_545 S
N811 C809 1.384 . S
H812 C818 0.930 . S
H813 C822 0.930 . S
H814 C827 0.929 . S
H815 C825 0.929 . S
H816 C820 0.929 . S
H817 C826 0.929 . S
C818 H812 0.930 . S
C818 C819 1.367 . S
C818 C826 1.378 . S
C819 C818 1.367 . S
C819 C827 1.433 . S
C820 H816 0.929 . S
C820 C822 1.378 . S
C820 C824 1.350 . S
C821 C824 1.463 . S
C821 C826 1.350 . S
C821 N829 1.427 . S
C822 H813 0.930 . S
C822 C820 1.378 . S
C822 C823 1.367 . S
C823 C822 1.367 . S
C823 C825 1.433 . S
C824 C820 1.350 . S
C824 C821 1.463 . S
C824 N828 1.427 . S
C825 H815 0.929 . S
C825 C823 1.433 . S
C825 N828 1.384 . S
C826 H817 0.929 . S
C826 C818 1.378 . S
C826 C821 1.350 . S
C827 H814 0.929 . S
C827 C819 1.433 . S
C827 N829 1.384 . S
N828 C824 1.427 . S
N828 C825 1.384 . S
N829 C821 1.427 . S
N829 C827 1.384 . S
H830 C836 0.930 . S
H831 C840 0.930 . S
H832 C845 0.929 . S
H833 C843 0.929 . S
H834 C838 0.929 . S
H835 C844 0.929 . S
C836 H830 0.930 . S
C836 C837 1.367 . S
C836 C844 1.378 . S
C837 C836 1.367 . S
C837 C845 1.433 . S
C838 H834 0.929 . S
C838 C840 1.378 . S
C838 C842 1.350 . S
C839 C842 1.463 . S
C839 C844 1.350 . S
C839 N847 1.427 . S
C840 H831 0.930 . S
C840 C838 1.378 . S
C840 C841 1.367 . S
C841 C840 1.367 . S
C841 C843 1.433 . S
C842 C838 1.350 . S
C842 C839 1.463 . S
C842 N846 1.427 . S
C843 H833 0.929 . S
C843 C841 1.433 . S
C843 N846 1.384 . S
C844 H835 0.929 . S
C844 C836 1.378 . S
C844 C839 1.350 . S
C845 H832 0.929 . S
C845 C837 1.433 . S
C845 N847 1.384 . S
N846 C842 1.427 . S
N846 C843 1.384 . S
N847 C839 1.427 . S
N847 C845 1.384 . S
C423 C215 2.005 . S
C427 C266 2.169 1_545 S
C445 C306 2.181 . S
C441 C247 2.015 . S
C463 C346 2.180 . S
C459 C151 2.011 . S
C481 C386 2.175 1_455 S
C477 C183 2.007 . S
C499 C275 2.175 1_565 S
C495 C87 2.021 1_565 S
C513 C119 2.017 . S
C517 C315 2.181 . S
C531 C23 2.031 . S
C535 C355 2.181 . S
C549 C55 2.019 1_655 S
C553 C395 2.175 1_655 S
C571 C272 0.497 . S
C567 C189 0.402 . S
C589 C312 0.487 . S
C585 C221 0.408 . S
C607 C352 0.497 . S
C603 C253 0.410 . S
C621 C157 0.423 . S
C625 C392 0.469 . S
C639 C61 0.581 1_655 S
C643 C263 0.493 . S
C661 C303 0.471 . S
C657 C93 0.532 1_565 S
C679 C343 0.479 . S
C675 C125 0.546 . S
C693 C29 0.571 . S
C697 C383 0.491 . S
C711 C177 2.499 . S
C715 C267 2.821 . S
C729 C209 2.500 . S
C733 C307 2.815 . S
C751 C347 2.806 . S
C747 C241 2.486 . S
C769 C387 2.821 . S
C765 C145 2.487 . S
C783 C49 2.537 1_655 S
C787 C258 2.832 . S
C805 C298 2.812 . S
C801 C81 2.515 1_565 S
C823 C338 2.805 . S
C819 C113 2.521 . S
C837 C17 2.535 . S
C841 C378 2.826 . S
