# Generated by pormake.
# Topology anh, (6,3)-cn, num edge types: 1
# Building blocks:
#     Node 0, Type 0, BuildingBlock: HISSIN_clean_sbu_0, # of connection points: 6
#     Node 1, Type 0, BuildingBlock: HISSIN_clean_sbu_0, # of connection points: 6
#     Node 2, Type 0, BuildingBlock: HISSIN_clean_sbu_0, # of connection points: 6
#     Node 3, Type 1, BuildingBlock: QEWDON_clean_linker_0, # of connection points: 3
#     Node 4, Type 1, BuildingBlock: QEWDON_clean_linker_0, # of connection points: 3
#     Node 5, Type 1, BuildingBlock: QEWDON_clean_linker_0, # of connection points: 3
#     Node 6, Type 1, BuildingBlock: QEWDON_clean_linker_0, # of connection points: 3
#     Node 7, Type 1, BuildingBlock: QEWDON_clean_linker_0, # of connection points: 3
#     Node 8, Type 1, BuildingBlock: QEWDON_clean_linker_0, # of connection points: 3
#     Edge 9, Type (0, 1), BuildingBlock: MIFKUJ_clean_linker_0, # of connection points: 2
#     Edge 10, Type (0, 1), BuildingBlock: MIFKUJ_clean_linker_0, # of connection points: 2
#     Edge 11, Type (0, 1), BuildingBlock: MIFKUJ_clean_linker_0, # of connection points: 2
#     Edge 12, Type (0, 1), BuildingBlock: MIFKUJ_clean_linker_0, # of connection points: 2
#     Edge 13, Type (0, 1), BuildingBlock: MIFKUJ_clean_linker_0, # of connection points: 2
#     Edge 14, Type (0, 1), BuildingBlock: MIFKUJ_clean_linker_0, # of connection points: 2
#     Edge 15, Type (0, 1), BuildingBlock: MIFKUJ_clean_linker_0, # of connection points: 2
#     Edge 16, Type (0, 1), BuildingBlock: MIFKUJ_clean_linker_0, # of connection points: 2
#     Edge 17, Type (0, 1), BuildingBlock: MIFKUJ_clean_linker_0, # of connection points: 2
#     Edge 18, Type (0, 1), BuildingBlock: MIFKUJ_clean_linker_0, # of connection points: 2
#     Edge 19, Type (0, 1), BuildingBlock: MIFKUJ_clean_linker_0, # of connection points: 2
#     Edge 20, Type (0, 1), BuildingBlock: MIFKUJ_clean_linker_0, # of connection points: 2
#     Edge 21, Type (0, 1), BuildingBlock: MIFKUJ_clean_linker_0, # of connection points: 2
#     Edge 22, Type (0, 1), BuildingBlock: MIFKUJ_clean_linker_0, # of connection points: 2
#     Edge 23, Type (0, 1), BuildingBlock: MIFKUJ_clean_linker_0, # of connection points: 2
#     Edge 24, Type (0, 1), BuildingBlock: MIFKUJ_clean_linker_0, # of connection points: 2
#     Edge 25, Type (0, 1), BuildingBlock: MIFKUJ_clean_linker_0, # of connection points: 2
#     Edge 26, Type (0, 1), BuildingBlock: MIFKUJ_clean_linker_0, # of connection points: 2
# Relax obj value: 0.159
# Max RMSD: 0.132
# Mean RMSD: 0.121
data_MOF--net-anh--node1-HISSIN_clean_sbu_0--node2-QEWDON_clean_linker_0--edge1-MIFKUJ_clean_linker_0
_symmetry_space_group_name_H-M    P1
_symmetry_Int_Tables_number       1
_symmetry_cell_setting            triclinic
loop_
_symmetry_equiv_pos_as_xyz
'x, y, z'
_cell_length_a     41.586326
_cell_length_b     41.836919
_cell_length_c     63.376651
_cell_angle_alpha  97.088175
_cell_angle_beta   92.486805
_cell_angle_gamma 120.40827
loop_
_atom_site_label
_atom_site_type_symbol
_atom_site_fract_x
_atom_site_fract_y
_atom_site_fract_z
_atom_type_partial_charge
Eu0 Eu 0.09007 0.5529 0.15739 0.0
Eu1 Eu 0.1379 0.64377 0.16675 0.0
C2 C 0.11466 0.59798 0.20567 0.0
C3 C 1.00761 0.45977 0.13726 0.0
C4 C 0.98152 0.42429 0.14171 0.0
C5 C 0.95699 0.46292 0.11896 0.0
C6 C 0.94317 0.40859 0.13527 0.0
C7 C 0.99519 0.47847 0.1253 0.0
C8 C 0.9305 0.42843 0.12451 0.0
C9 C 1.04636 0.48031 0.14796 0.0
O10 O 0.18351 0.62816 0.16953 0.0
O11 O 0.1502 0.56627 0.1533 0.0
C12 C 0.18268 0.5972 0.16098 0.0
O13 O 0.08458 0.5722 0.12661 0.0
O14 O 0.18299 0.69747 0.18456 0.0
O15 O 0.14805 0.69629 0.1577 0.0
O16 O 0.14159 0.62594 0.13256 0.0
C17 C 0.11296 0.5992 0.11936 0.0
O18 O 1.04392 0.56737 0.16097 0.0
O19 O 1.07713 0.6308 0.16056 0.0
O20 O 0.11766 0.62709 0.19817 0.0
O21 O 1.07229 0.49993 0.13631 0.0
O22 O 1.0508 0.49939 0.16687 0.0
O23 O 0.11169 0.56926 0.19276 0.0
C24 C 0.21206 0.74091 0.1614 0.0
C25 C 0.22549 0.72489 0.14606 0.0
C26 C 0.26182 0.80294 0.15745 0.0
C27 C 0.25697 0.74781 0.13643 0.0
C28 C 0.23027 0.77998 0.16701 0.0
C29 C 0.27551 0.78713 0.14202 0.0
C30 C 0.17865 0.7167 0.17114 0.0
C31 C 1.04473 0.5992 0.1602 0.0
H32 H 0.99056 0.40975 0.15118 0.0
H33 H 0.94804 0.47871 0.11058 0.0
H34 H 0.92332 0.38215 0.14 0.0
H35 H 1.01483 0.50614 0.1219 0.0
H36 H 0.21157 0.69463 0.14153 0.0
H37 H 0.27598 0.8331 0.1625 0.0
H38 H 0.26672 0.73478 0.1246 0.0
H39 H 0.22022 0.79269 0.17885 0.0
Eu40 Eu 0.63476 0.07595 0.49282 0.0
Eu41 Eu 0.58937 0.11961 0.49743 0.0
C42 C 0.61582 0.09837 0.53981 0.0
C43 C 0.6588 0.99981 0.49143 0.0
C44 C 0.63788 0.98426 0.50807 0.0
C45 C 0.65708 0.94152 0.47981 0.0
C46 C 0.6266 0.94747 0.51055 0.0
C47 C 0.66861 0.9784 0.47746 0.0
C48 C 0.63562 0.92548 0.49626 0.0
C49 C 0.66749 1.03685 0.48723 0.0
O50 O 0.64737 0.16244 0.48866 0.0
O51 O 0.68239 0.13783 0.49881 0.0
C52 C 0.68055 0.16632 0.49327 0.0
O53 O 0.63071 0.09233 0.46065 0.0
O54 O 0.58715 0.16895 0.51092 0.0
O55 O 0.544 0.12744 0.48585 0.0
O56 O 0.57548 0.08999 0.46352 0.0
C57 C 0.60015 0.08939 0.45174 0.0
O58 O 0.57222 1.02896 0.48903 0.0
O59 O 0.54416 0.06103 0.50255 0.0
O60 O 0.60477 0.11931 0.53188 0.0
O61 O 0.64415 1.03622 0.47255 0.0
O62 O 0.67642 0.06274 0.5039 0.0
O63 O 0.6252 0.07733 0.52764 0.0
C64 C 0.5728 0.19085 0.48206 0.0
C65 C 0.59158 0.18855 0.46453 0.0
C66 C 0.5898 0.25379 0.47725 0.0
C67 C 0.6101 0.21892 0.45376 0.0
C68 C 0.57133 0.22333 0.48808 0.0
C69 C 0.61024 0.25223 0.46036 0.0
C70 C 0.56101 0.16209 0.49587 0.0
C71 C 0.54236 1.02895 0.4956 0.0
H72 H 0.62966 1.00028 0.51888 0.0
H73 H 0.66401 0.92523 0.46832 0.0
H74 H 0.61058 0.93619 0.52357 0.0
H75 H 0.68429 0.98986 0.46435 0.0
H76 H 0.59369 0.16396 0.45986 0.0
H77 H 0.58995 0.27937 0.48294 0.0
H78 H 0.62547 0.21685 0.44081 0.0
H79 H 0.55765 0.22588 0.50181 0.0
Eu80 Eu 0.6101 0.58104 0.8253 0.0
Eu81 Eu 0.6996 0.63016 0.83713 0.0
C82 C 0.64731 0.61167 0.8756 0.0
C83 C 0.5148 0.56555 0.8101 0.0
C84 C 0.52531 0.60084 0.8218 0.0
C85 C 0.46395 0.56531 0.78975 0.0
C86 C 0.50516 0.6182 0.81758 0.0
C87 C 0.48402 0.54787 0.79409 0.0
C88 C 0.47439 0.60076 0.80139 0.0
C89 C 0.53847 0.54935 0.8128 0.0
O90 O 0.68553 0.5681 0.83246 0.0
O91 O 0.62109 0.53356 0.82948 0.0
C92 C 0.65374 0.53518 0.83087 0.0
O93 O 0.6345 0.56692 0.79716 0.0
O94 O 0.75147 0.64228 0.85524 0.0
O95 O 0.75417 0.67077 0.82853 0.0
O96 O 0.68655 0.62463 0.80172 0.0
C97 C 0.66343 0.59253 0.78955 0.0
O98 O 0.6267 0.64212 0.82213 0.0
O99 O 0.68585 0.67713 0.8405 0.0
O100 O 0.68098 0.63051 0.86975 0.0
O101 O 0.56376 0.55792 0.79969 0.0
O102 O 0.552 0.55233 0.83239 0.0
O103 O 0.61703 0.5909 0.86161 0.0
C104 C 0.79252 0.64473 0.8308 0.0
C105 C 0.77721 0.62114 0.81072 0.0
C106 C 0.8368 0.62381 0.83454 0.0
C107 C 0.7911 0.59848 0.80283 0.0
C108 C 0.82301 0.64663 0.84239 0.0
C109 C 0.82016 0.59869 0.81502 0.0
C110 C 0.77208 0.6611 0.84123 0.0
C111 C 0.65592 0.67532 0.83094 0.0
H112 H 0.54948 0.61527 0.83399 0.0
H113 H 0.44072 0.55134 0.77699 0.0
H114 H 0.5136 0.64518 0.82707 0.0
H115 H 0.47607 0.52099 0.78462 0.0
H116 H 0.75311 0.6186 0.80165 0.0
H117 H 0.85968 0.62488 0.84409 0.0
H118 H 0.77769 0.57927 0.78781 0.0
H119 H 0.83481 0.66422 0.85801 0.0
H120 H 0.56461 0.18841 0.24241 0.0
C121 C 0.56002 0.16669 0.22932 0.0
C122 C 0.56131 0.13508 0.23353 0.0
C123 C 0.55383 0.17088 0.20816 0.0
H124 H 0.55449 0.08205 0.21947 0.0
C125 C 0.55563 0.10745 0.2163 0.0
C126 C 0.54891 0.11109 0.19509 0.0
C127 C 0.54856 0.14315 0.19116 0.0
C128 C 0.55319 0.2043 0.20345 0.0
H129 H 0.54336 0.1462 0.17482 0.0
C130 C 0.57586 0.225 0.18872 0.0
C131 C 0.5748 0.25592 0.18302 0.0
C132 C 0.52951 0.21502 0.21298 0.0
H133 H 0.51166 0.19932 0.22437 0.0
C134 C 0.52813 0.24567 0.20742 0.0
H135 H 0.59519 0.2174 0.18216 0.0
C136 C 0.55053 0.266 0.1925 0.0
H137 H 0.54882 0.28951 0.18841 0.0
H138 H 0.50955 0.25363 0.21466 0.0
H139 H 0.60236 0.52515 0.57362 0.0
C140 C 0.61963 0.52572 0.56115 0.0
C141 C 0.65373 0.52761 0.56631 0.0
C142 C 0.6084 0.52606 0.54013 0.0
H143 H 0.70124 0.52777 0.55418 0.0
C144 C 0.67592 0.52823 0.55012 0.0
C145 C 0.66422 0.52714 0.52871 0.0
C146 C 0.63106 0.52765 0.5241 0.0
C147 C 0.57295 0.52486 0.5348 0.0
H148 H 0.62202 0.52797 0.50787 0.0
C149 C 0.57378 0.55543 0.52746 0.0
C150 C 0.54029 0.55485 0.52205 0.0
C151 C 0.53839 0.49336 0.53695 0.0
H152 H 0.53733 0.4695 0.54265 0.0
C153 C 0.50495 0.49227 0.5314 0.0
H154 H 0.60079 0.5801 0.52663 0.0
C155 C 0.50577 0.52274 0.52394 0.0
H156 H 0.47942 0.52105 0.5196 0.0
H157 H 0.47828 0.46774 0.53285 0.0
H158 H 0.16208 0.64701 0.89221 0.0
C159 C 0.13823 0.62227 0.88269 0.0
C160 C 0.11413 0.59129 0.89224 0.0
C161 C 0.13138 0.62186 0.86082 0.0
H162 H 1.06365 0.53619 0.88652 0.0
C163 C 0.08338 0.55965 0.87932 0.0
C164 C 1.07639 0.55898 0.85732 0.0
C165 C 0.10104 0.59013 0.84817 0.0
C166 C 0.15445 0.65546 0.85124 0.0
H167 H 0.09546 0.59083 0.83142 0.0
C168 C 0.18369 0.658 0.84006 0.0
C169 C 0.20513 0.68929 0.83007 0.0
C170 C 0.14637 0.68429 0.85253 0.0
H171 H 0.12355 0.68247 0.86098 0.0
C172 C 0.16751 0.71549 0.84269 0.0
H173 H 0.18996 0.63574 0.83946 0.0
C174 C 0.19679 0.71808 0.83152 0.0
H175 H 0.21263 0.74237 0.82388 0.0
H176 H 0.16111 0.73765 0.84365 0.0
H177 H 0.08259 0.57994 0.44117 0.0
C178 C 0.1095 0.60348 0.44865 0.0
C179 C 0.13483 0.6264 0.4354 0.0
C180 C 0.11779 0.61195 0.47122 0.0
H181 H 0.18877 0.67526 0.43417 0.0
C182 C 0.16949 0.65799 0.44458 0.0
C183 C 0.17979 0.66811 0.46679 0.0
C184 C 0.15371 0.64488 0.48008 0.0
C185 C 0.08809 0.58798 0.48522 0.0
H186 H 0.16206 0.65236 0.49718 0.0
C187 C 1.05726 0.54974 0.47801 0.0
C188 C 1.02977 0.52963 0.49178 0.0
C189 C 0.08953 0.60453 0.50627 0.0
H190 H 0.11062 0.63342 0.51257 0.0
C191 C 1.06314 0.58481 0.51968 0.0
H192 H 1.0546 0.53546 0.46203 0.0
C193 C 1.03384 0.54803 0.51261 0.0
H194 H 1.01379 0.53386 0.52351 0.0
H195 H 1.06519 0.59846 0.53577 0.0
H196 H 0.63808 0.07727 0.776 0.0
C197 C 0.64294 0.1043 0.7834 0.0
C198 C 0.64138 0.12809 0.76998 0.0
C199 C 0.64877 0.11419 0.80596 0.0
H200 H 0.64477 0.1806 0.76835 0.0
C201 C 0.64617 0.16287 0.77901 0.0
C202 C 0.6526 0.17543 0.80121 0.0
C203 C 0.65372 0.15058 0.81467 0.0
C204 C 0.64754 0.08563 0.81995 0.0
H205 H 0.65931 0.16031 0.83175 0.0
C206 C 0.65197 0.05369 0.81266 0.0
C207 C 0.64952 1.0279 0.8267 0.0
C208 C 0.63996 0.08948 0.84126 0.0
H209 H 0.63468 0.11126 0.84774 0.0
C210 C 0.63782 0.06478 0.85479 0.0
H211 H 0.65794 1.04911 0.79652 0.0
C212 C 0.64263 1.03478 0.84773 0.0
H213 H 0.64048 1.01633 0.8589 0.0
H214 H 0.63196 0.06879 0.87107 0.0
H215 H 0.60226 0.60401 0.10926 0.0
C216 C 0.62564 0.60256 0.11613 0.0
C217 C 0.6504 0.59996 0.10241 0.0
C218 C 0.63111 0.60407 0.13844 0.0
H219 H 0.70124 0.5981 0.10068 0.0
C220 C 0.68159 0.59894 0.1111 0.0
C221 C 0.68875 0.60009 0.13307 0.0
C222 C 0.66314 0.60233 0.14667 0.0
C223 C 0.60497 0.60999 0.15292 0.0
H224 H 0.66841 0.60253 0.16354 0.0
C225 C 0.56726 0.60132 0.1458 0.0
C226 C 0.54501 0.60864 0.16027 0.0
C227 C 0.61902 0.62675 0.1745 0.0
H228 H 0.64737 0.63566 0.18083 0.0
C229 C 0.59751 0.63373 0.18849 0.0
H230 H 0.55484 0.58834 0.12944 0.0
C231 C 0.56125 0.62476 0.18157 0.0
H232 H 0.54584 0.63107 0.19306 0.0
H233 H 0.60932 0.64669 0.20497 0.0
H234 H 0.25341 0.64732 0.18354 0.0
H235 H 0.31211 0.64746 0.18166 0.0
H236 H 0.25588 0.54903 0.13251 0.0
H237 H 0.19664 0.5476 0.13543 0.0
H238 H 0.30057 0.53909 0.15235 0.0
H239 H 0.32736 0.65282 0.12665 0.0
H240 H 0.33385 0.71504 0.128 0.0
H241 H 0.41292 0.75787 0.18492 0.0
H242 H 0.40669 0.69589 0.18397 0.0
H243 H 0.51712 0.636 0.13071 0.0
H244 H 0.45602 0.63265 0.12829 0.0
H245 H 0.42215 0.56262 0.17705 0.0
H246 H 0.4823 0.5654 0.1791 0.0
H247 H 0.42273 0.65668 0.15404 0.0
H248 H 0.32828 0.50892 0.17609 0.0
H249 H 0.32195 0.44648 0.1705 0.0
H250 H 0.37691 0.47078 0.11378 0.0
H251 H 0.38313 0.53315 0.11889 0.0
C252 C 0.25336 0.62559 0.1723 0.0
C253 C 0.21951 0.59744 0.15967 0.0
C254 C 0.28755 0.62592 0.171 0.0
C255 C 0.28999 0.59881 0.15649 0.0
C256 C 0.25598 0.57057 0.14394 0.0
C257 C 0.22162 0.56978 0.14557 0.0
C258 C 0.32712 0.59915 0.15466 0.0
C259 C 0.32707 0.56507 0.15275 0.0
C260 C 0.36274 0.63245 0.15474 0.0
C261 C 0.36633 0.66965 0.15533 0.0
C262 C 0.34598 0.67548 0.13951 0.0
C263 C 0.34966 0.71074 0.14019 0.0
C264 C 0.37378 0.74043 0.15655 0.0
C265 C 0.39428 0.73491 0.17225 0.0
C266 C 0.39072 0.69974 0.17163 0.0
C267 C 0.49617 0.6188 0.14038 0.0
C268 C 0.50495 0.60025 0.15474 0.0
C269 C 0.46111 0.61735 0.13926 0.0
C270 C 0.43323 0.59705 0.15234 0.0
C271 C 0.4419 0.57791 0.16631 0.0
C272 C 0.47674 0.57945 0.16745 0.0
C273 C 0.39601 0.59679 0.15211 0.0
C274 C 0.39611 0.63081 0.15364 0.0
C275 C 0.36033 0.56339 0.15128 0.0
C276 C 0.35648 0.52585 0.14801 0.0
C277 C 0.33889 0.50088 0.16239 0.0
C278 C 0.33535 0.46551 0.15931 0.0
C279 C 0.34913 0.45472 0.14184 0.0
C280 C 0.36638 0.47923 0.12736 0.0
C281 C 0.36996 0.51461 0.13035 0.0
H282 H 0.34637 0.42733 0.13949 0.0
H283 H 0.37672 0.76773 0.15708 0.0
H284 H 0.68853 0.22918 0.47782 0.0
H285 H 0.74596 0.28855 0.47552 0.0
H286 H 0.81256 0.2482 0.50284 0.0
H287 H 0.75514 0.18878 0.50518 0.0
H288 H 0.84278 0.31824 0.52041 0.0
H289 H 0.81174 0.26241 0.445 0.0
H290 H 0.7741 0.23421 0.40958 0.0
H291 H 0.75213 0.3243 0.41189 0.0
H292 H 0.7916 0.3542 0.44694 0.0
H293 H 1.02225 0.46369 0.50087 0.0
H294 H 0.96427 0.40286 0.49973 0.0
H295 H 0.90075 0.44544 0.47121 0.0
H296 H 0.95911 0.50603 0.47191 0.0
H297 H 0.86808 0.37535 0.45451 0.0
H298 H 0.90629 0.43569 0.52743 0.0
H299 H 0.94904 0.46729 0.56121 0.0
H300 H 0.9565 0.36928 0.56442 0.0
H301 H 0.91421 0.33728 0.53048 0.0
C302 C 0.71533 0.23266 0.48331 0.0
C303 C 0.71645 0.20334 0.49169 0.0
C304 C 0.74862 0.26698 0.48183 0.0
C305 C 0.78468 0.27374 0.48874 0.0
C306 C 0.78573 0.24456 0.49729 0.0
C307 C 0.75249 0.21013 0.49859 0.0
C308 C 0.82093 0.31109 0.48766 0.0
C309 C 0.84831 0.33019 0.50581 0.0
C310 C 0.82882 0.32855 0.4691 0.0
C311 C 0.80374 0.30998 0.44871 0.0
C312 C 0.79849 0.27593 0.43805 0.0
C313 C 0.77704 0.25978 0.41798 0.0
C314 C 0.75996 0.27693 0.40865 0.0
C315 C 0.76503 0.31081 0.41921 0.0
C316 C 0.78722 0.32756 0.43908 0.0
C317 C 0.99612 0.45973 0.49365 0.0
C318 C 0.99602 0.48984 0.48581 0.0
C319 C 0.96249 0.42488 0.49342 0.0
C320 C 0.92702 0.41881 0.48581 0.0
C321 C 0.92711 0.44852 0.47723 0.0
C322 C 0.96083 0.48336 0.47739 0.0
C323 C 0.89021 0.38221 0.48713 0.0
C324 C 0.86264 0.36339 0.46911 0.0
C325 C 0.88209 0.3652 0.50589 0.0
C326 C 0.90741 0.38425 0.52631 0.0
C327 C 0.91727 0.42098 0.53526 0.0
C328 C 0.94139 0.43895 0.55445 0.0
C329 C 0.95556 0.42034 0.56492 0.0
C330 C 0.94555 0.38368 0.55626 0.0
C331 C 0.9215 0.36561 0.53706 0.0
H332 H 0.97422 0.43429 0.57977 0.0
H333 H 0.74317 0.26418 0.39315 0.0
H334 H 0.70867 0.74978 0.84897 0.0
H335 H 0.70775 0.80727 0.84658 0.0
H336 H 0.60119 0.7422 0.80671 0.0
H337 H 0.60142 0.68444 0.8098 0.0
H338 H 0.59654 0.79361 0.82836 0.0
H339 H 0.75738 0.89891 0.8413 0.0
H340 H 0.81593 0.90047 0.83403 0.0
H341 H 0.75495 0.80764 0.78227 0.0
H342 H 0.69614 0.80583 0.78906 0.0
H343 H 0.70445 1.01665 0.84351 0.0
H344 H 0.70481 0.95808 0.84234 0.0
H345 H 0.60317 0.9001 0.79804 0.0
H346 H 0.60269 0.95902 0.79951 0.0
H347 H 0.71097 0.90939 0.81657 0.0
H348 H 0.5521 0.80467 0.80098 0.0
H349 H 0.49237 0.80192 0.80614 0.0
H350 H 0.5477 0.89159 0.86001 0.0
H351 H 0.60775 0.89474 0.85522 0.0
C352 C 0.68492 0.74742 0.83963 0.0
C353 C 0.65527 0.71154 0.82951 0.0
C354 C 0.68454 0.7809 0.83805 0.0
C355 C 0.65482 0.78055 0.82594 0.0
C356 C 0.62487 0.74455 0.81612 0.0
C357 C 0.62508 0.711 0.81785 0.0
C358 C 0.65473 0.81709 0.82371 0.0
C359 C 0.62166 0.81857 0.82546 0.0
C360 C 0.68708 0.85095 0.82015 0.0
C361 C 0.72232 0.85199 0.81586 0.0
C362 C 0.7565 0.87891 0.82833 0.0
C363 C 0.78972 0.87982 0.8243 0.0
C364 C 0.78913 0.85408 0.80775 0.0
C365 C 0.75534 0.82747 0.79514 0.0
C366 C 0.72206 0.82646 0.79908 0.0
C367 C 0.68264 0.99173 0.83299 0.0
C368 C 0.65412 0.99364 0.82117 0.0
C369 C 0.68265 0.95767 0.83246 0.0
C370 C 0.65369 0.92324 0.82042 0.0
C371 C 0.62575 0.9253 0.80795 0.0
C372 C 0.62585 0.9596 0.80841 0.0
C373 C 0.65291 0.88596 0.82139 0.0
C374 C 0.68587 0.88437 0.81942 0.0
C375 C 0.62033 0.85188 0.82444 0.0
C376 C 0.58447 0.85024 0.82755 0.0
C377 C 0.5515 0.82378 0.81393 0.0
C378 C 0.51761 0.82218 0.81678 0.0
C379 C 0.51627 0.84667 0.83334 0.0
C380 C 0.54881 0.87276 0.84713 0.0
C381 C 0.58281 0.87453 0.84432 0.0
H382 H 0.48997 0.84532 0.83556 0.0
H383 H 0.81488 0.85482 0.80466 0.0
H384 H 0.97101 0.53868 0.15408 0.0
H385 H 0.91205 0.53872 0.15118 0.0
H386 H 0.97445 0.65966 0.15957 0.0
H387 H 1.03356 0.65977 0.16261 0.0
H388 H 0.91595 0.63949 0.18123 0.0
H389 H 0.92808 0.60063 0.10981 0.0
H390 H 0.9374 0.56216 0.08085 0.0
H391 H 0.836 0.46385 0.09069 0.0
H392 H 0.82632 0.50153 0.12006 0.0
H393 H 0.76026 0.66024 0.1475 0.0
H394 H 0.81916 0.66042 0.15291 0.0
H395 H 0.75716 0.5393 0.13952 0.0
H396 H 0.69842 0.53946 0.13346 0.0
H397 H 0.81587 0.55962 0.12075 0.0
H398 H 0.805 0.59981 0.19312 0.0
H399 H 0.79759 0.63947 0.22234 0.0
H400 H 0.89778 0.73684 0.21008 0.0
H401 H 0.90554 0.69783 0.18062 0.0
C402 C 0.97246 0.56545 0.15537 0.0
C403 C 1.00787 0.59925 0.1586 0.0
C404 C 0.93829 0.56543 0.15355 0.0
C405 C 0.93779 0.5992 0.15487 0.0
C406 C 0.97316 0.63299 0.15843 0.0
C407 C 1.00735 0.63301 0.16011 0.0
C408 C 0.90085 0.59932 0.15244 0.0
C409 C 0.89438 0.62225 0.16781 0.0
C410 C 0.87156 0.5766 0.13524 0.0
C411 C 0.87675 0.55385 0.11735 0.0
C412 C 0.90789 0.57073 0.10593 0.0
C413 C 0.91322 0.54906 0.08944 0.0
C414 C 0.88736 0.51052 0.08402 0.0
C415 C 0.85599 0.49365 0.09498 0.0
C416 C 0.85059 0.51515 0.11157 0.0
C417 C 0.75899 0.63357 0.14634 0.0
C418 C 0.72392 0.5998 0.14078 0.0
C419 C 0.79306 0.63361 0.14939 0.0
C420 C 0.79371 0.59981 0.1471 0.0
C421 C 0.75847 0.56603 0.14161 0.0
C422 C 0.72443 0.56605 0.13842 0.0
C423 C 0.8307 0.59962 0.14967 0.0
C424 C 0.83727 0.57673 0.13426 0.0
C425 C 0.86017 0.6225 0.1668 0.0
C426 C 0.85564 0.64596 0.18454 0.0
C427 C 0.82531 0.62972 0.19657 0.0
C428 C 0.82107 0.65208 0.21319 0.0
C429 C 0.84714 0.69066 0.21802 0.0
C430 C 0.87758 0.70696 0.2063 0.0
C431 C 0.88194 0.68474 0.18966 0.0
H432 H 0.8438 0.70793 0.23089 0.0
H433 H 0.89154 0.49374 0.07127 0.0
H434 H 0.52538 0.95648 0.47976 0.0
H435 H 0.46571 0.89687 0.47704 0.0
H436 H 0.41446 0.95589 0.50594 0.0
H437 H 0.47429 1.0157 0.50883 0.0
H438 H 0.38856 0.89197 0.52158 0.0
H439 H 0.39834 0.91968 0.45013 0.0
H440 H 0.42817 0.93508 0.41711 0.0
H441 H 0.43104 0.83317 0.40926 0.0
H442 H 0.40167 0.81739 0.44241 0.0
H443 H 0.19705 0.73439 0.49338 0.0
H444 H 0.25698 0.79483 0.49987 0.0
H445 H 0.30935 0.74306 0.46402 0.0
H446 H 0.2493 0.68345 0.45691 0.0
H447 H 0.33442 0.80487 0.45224 0.0
H448 H 0.32616 0.77705 0.52376 0.0
H449 H 0.29725 0.76139 0.55703 0.0
H450 H 0.29242 0.86224 0.56517 0.0
H451 H 0.32091 0.87828 0.5318 0.0
C452 C 0.50156 0.95705 0.4856 0.0
C453 C 0.50536 0.99169 0.49446 0.0
C454 C 0.46697 0.92255 0.48391 0.0
C455 C 0.43449 0.92101 0.49096 0.0
C456 C 0.43846 0.9555 0.50024 0.0
C457 C 0.47303 0.99007 0.50185 0.0
C458 C 0.39672 0.88384 0.4885 0.0
C459 C 0.37665 0.87324 0.5063 0.0
C460 C 0.3806 0.85819 0.46882 0.0
C461 C 0.39815 0.86755 0.44887 0.0
C462 C 0.40559 0.90069 0.44145 0.0
C463 C 0.42237 0.90947 0.4227 0.0
C464 C 0.43159 0.88517 0.41113 0.0
C465 C 0.42394 0.85199 0.41826 0.0
C466 C 0.4072 0.8431 0.43702 0.0
C467 C 0.22157 0.73562 0.48738 0.0
C468 C 0.21798 0.70335 0.4749 0.0
C469 C 0.25625 0.77057 0.49106 0.0
C470 C 0.28895 0.77456 0.48269 0.0
C471 C 0.28532 0.74185 0.47074 0.0
C472 C 0.25072 0.70724 0.46685 0.0
C473 C 0.32626 0.81245 0.48541 0.0
C474 C 0.34626 0.82336 0.4676 0.0
C475 C 0.34238 0.8382 0.50512 0.0
C476 C 0.32529 0.82865 0.52517 0.0
C477 C 0.31869 0.79575 0.53257 0.0
C478 C 0.30242 0.78683 0.55146 0.0
C479 C 0.29291 0.81075 0.56317 0.0
C480 C 0.29975 0.84371 0.55606 0.0
C481 C 0.31598 0.85274 0.53717 0.0
H482 H 0.28032 0.8038 0.57779 0.0
H483 H 0.44458 0.89201 0.39662 0.0
H484 H 0.59608 0.46104 0.81701 0.0
H485 H 0.59765 0.40276 0.81414 0.0
H486 H 0.71467 0.46645 0.83949 0.0
H487 H 0.71356 0.52509 0.84182 0.0
H488 H 0.67364 0.39787 0.8575 0.0
H489 H 0.58825 0.32837 0.77326 0.0
H490 H 0.57423 0.34817 0.7407 0.0
H491 H 0.67638 0.45534 0.7573 0.0
H492 H 0.69218 0.43544 0.78914 0.0
H493 H 0.62222 0.19968 0.83425 0.0
H494 H 0.62323 0.25962 0.84133 0.0
H495 H 0.69418 0.30009 0.79172 0.0
H496 H 0.69389 0.24131 0.78499 0.0
H497 H 0.64289 0.31798 0.78642 0.0
H498 H 0.72514 0.33433 0.84716 0.0
H499 H 0.7444 0.31897 0.87995 0.0
H500 H 0.65603 0.32322 0.91036 0.0
H501 H 0.63602 0.33825 0.87764 0.0
C502 C 0.62229 0.46295 0.82209 0.0
C503 C 0.65466 0.49865 0.82972 0.0
C504 C 0.62315 0.42917 0.82041 0.0
C505 C 0.65624 0.42919 0.82665 0.0
C506 C 0.68848 0.46475 0.83464 0.0
C507 C 0.68784 0.49868 0.83589 0.0
C508 C 0.6574 0.39261 0.82399 0.0
C509 C 0.66653 0.38037 0.84192 0.0
C510 C 0.64908 0.36925 0.80375 0.0
C511 C 0.64104 0.38059 0.78383 0.0
C512 C 0.60798 0.35597 0.7698 0.0
C513 C 0.59983 0.36716 0.75139 0.0
C514 C 0.62447 0.40296 0.74688 0.0
C515 C 0.6575 0.42749 0.76065 0.0
C516 C 0.66611 0.41623 0.77886 0.0
C517 C 0.63876 0.22156 0.82514 0.0
C518 C 0.65774 0.21453 0.80885 0.0
C519 C 0.63914 0.25619 0.82911 0.0
C520 C 0.65848 0.28538 0.81697 0.0
C521 C 0.67837 0.27869 0.80128 0.0
C522 C 0.67825 0.24452 0.79746 0.0
C523 C 0.65788 0.32235 0.82005 0.0
C524 C 0.64926 0.33497 0.8021 0.0
C525 C 0.66699 0.34617 0.84025 0.0
C526 C 0.67886 0.33704 0.85988 0.0
C527 C 0.70966 0.33174 0.86078 0.0
C528 C 0.72074 0.32315 0.87937 0.0
C529 C 0.70138 0.32002 0.8972 0.0
C530 C 0.67096 0.32559 0.89651 0.0
C531 C 0.65976 0.33418 0.87796 0.0
H532 H 0.71 0.31336 0.91158 0.0
H533 H 0.61797 0.41172 0.73273 0.0
H534 H 0.56688 0.87336 0.50622 0.0
H535 H 0.54393 0.80754 0.50868 0.0
H536 H 0.64902 0.82107 0.49193 0.0
H537 H 0.67278 0.88723 0.49015 0.0
H538 H 0.58356 0.75606 0.46851 0.0
H539 H 0.63515 0.82044 0.54176 0.0
H540 H 0.64051 0.86143 0.57489 0.0
H541 H 0.52352 0.78812 0.57985 0.0
H542 H 0.51737 0.74696 0.54657 0.0
H543 H 0.58927 0.60248 0.49731 0.0
H544 H 0.59785 0.66215 0.49084 0.0
H545 H 0.50194 0.64201 0.52346 0.0
H546 H 0.49522 0.58366 0.53171 0.0
H547 H 0.55469 0.70858 0.53736 0.0
H548 H 0.50263 0.64037 0.46678 0.0
H549 H 0.49469 0.59894 0.43325 0.0
H550 H 0.60695 0.67743 0.42198 0.0
H551 H 0.61577 0.7191 0.45559 0.0
C552 C 0.58537 0.86255 0.50338 0.0
C553 C 0.62176 0.88565 0.49806 0.0
C554 C 0.57206 0.82487 0.50462 0.0
C555 C 0.59483 0.80962 0.50047 0.0
C556 C 0.631 0.8324 0.49504 0.0
C557 C 0.64446 0.87014 0.49397 0.0
C558 C 0.58121 0.76996 0.50202 0.0
C559 C 0.57743 0.74555 0.48355 0.0
C560 C 0.57193 0.75623 0.52149 0.0
C561 C 0.57571 0.78087 0.54155 0.0
C562 C 0.6105 0.81324 0.54982 0.0
C563 C 0.6137 0.83647 0.56864 0.0
C564 C 0.58235 0.82745 0.57943 0.0
C565 C 0.54776 0.79511 0.57146 0.0
C566 C 0.54441 0.77181 0.55262 0.0
C567 C 0.57004 0.61072 0.50322 0.0
C568 C 0.54186 0.58838 0.51532 0.0
C569 C 0.57456 0.64464 0.49914 0.0
C570 C 0.55025 0.65649 0.5064 0.0
C571 C 0.52103 0.63347 0.51765 0.0
C572 C 0.51696 0.59984 0.52215 0.0
C573 C 0.55745 0.69427 0.50384 0.0
C574 C 0.56011 0.71855 0.52215 0.0
C575 C 0.56515 0.7077 0.4841 0.0
C576 C 0.55993 0.68276 0.4638 0.0
C577 C 0.52571 0.64869 0.45723 0.0
C578 C 0.52105 0.62518 0.43819 0.0
C579 C 0.55032 0.63552 0.42551 0.0
C580 C 0.5843 0.66944 0.43182 0.0
C581 C 0.58913 0.69305 0.45085 0.0
H582 H 0.54665 0.61727 0.41078 0.0
H583 H 0.58488 0.84546 0.59401 0.0
H584 H 0.83532 0.57989 0.77522 0.0
H585 H 0.86026 0.53867 0.76556 0.0
H586 H 0.85565 0.51507 0.83017 0.0
H587 H 0.82991 0.55489 0.83953 0.0
H588 H 0.92622 0.5564 0.78308 0.0
H589 H 0.8514 0.4384 0.83587 0.0
H590 H 0.78661 0.39449 0.84215 0.0
H591 H 0.74457 0.40226 0.78112 0.0
H592 H 0.80923 0.44571 0.77418 0.0
H593 H 1.00669 0.52789 0.87024 0.0
H594 H 0.9478 0.49796 0.84705 0.0
H595 H 1.00432 0.49414 0.79217 0.0
H596 H 1.064 0.52419 0.81553 0.0
H597 H 0.89811 0.44216 0.81308 0.0
H598 H 0.98842 0.53734 0.76023 0.0
H599 H 1.05381 0.58824 0.7593 0.0
H600 H 1.06113 0.63195 0.82546 0.0
H601 H 0.99586 0.58128 0.8267 0.0
C602 C 0.83874 0.56501 0.78712 0.0
C603 C 0.83152 0.57112 0.80824 0.0
C604 C 0.85279 0.54138 0.78157 0.0
C605 C 0.85941 0.52334 0.79703 0.0
C606 C 0.84999 0.52782 0.81775 0.0
C607 C 0.83605 0.55131 0.82327 0.0
C608 C 0.88309 0.50655 0.79343 0.0
C609 C 0.91945 0.53037 0.78857 0.0
C610 C 0.8744 0.47267 0.80066 0.0
C611 C 0.83542 0.44529 0.80443 0.0
C612 C 0.82849 0.43036 0.82359 0.0
C613 C 0.79172 0.40564 0.82731 0.0
C614 C 0.76155 0.39555 0.81202 0.0
C615 C 0.76803 0.41009 0.79293 0.0
C616 C 0.80476 0.43479 0.7891 0.0
C617 C 1.00653 0.51897 0.85344 0.0
C618 C 1.04023 0.52944 0.84463 0.0
C619 C 0.97258 0.50161 0.84012 0.0
C620 C 0.97186 0.49472 0.81782 0.0
C621 C 1.00442 0.49975 0.80933 0.0
C622 C 1.03853 0.51723 0.82268 0.0
C623 C 0.94121 0.49355 0.80431 0.0
C624 C 0.90382 0.46652 0.80597 0.0
C625 C 0.94876 0.52475 0.79438 0.0
C626 C 0.98756 0.5556 0.79355 0.0
C627 C 1.00403 0.55793 0.77451 0.0
C628 C 1.04104 0.58666 0.77396 0.0
C629 C 1.06163 0.61328 0.79232 0.0
C630 C 1.04518 0.61134 0.81125 0.0
C631 C 1.00823 0.58265 0.8119 0.0
H632 H 0.09031 0.6354 0.79189 0.0
H633 H 0.73318 0.37653 0.81497 0.0
H634 H 0.33359 0.77588 0.13432 0.0
H635 H 0.39621 0.82268 0.12717 0.0
H636 H 0.35876 0.90103 0.12257 0.0
H637 H 0.29607 0.85408 0.12901 0.0
H638 H 0.41597 0.91401 0.09766 0.0
H639 H 0.38707 0.88968 0.17183 0.0
H640 H 0.36906 0.84768 0.19882 0.0
H641 H 0.46063 0.8302 0.18778 0.0
H642 H 0.4787 0.8716 0.16045 0.0
H643 H 0.49142 0.082 0.16287 0.0
H644 H 0.46472 1.02254 0.13885 0.0
H645 H 0.55421 1.00799 0.1633 0.0
H646 H 0.581 0.06794 0.18781 0.0
H647 H 0.49179 0.95242 0.1686 0.0
H648 H 0.53506 1.00379 0.10749 0.0
H649 H 0.55307 1.04756 0.08159 0.0
H650 H 0.438 1.01641 0.06741 0.0
H651 H 0.41929 0.97292 0.09346 0.0
C652 C 0.33838 0.80259 0.13102 0.0
C653 C 0.31033 0.81179 0.13295 0.0
C654 C 0.37416 0.82928 0.12688 0.0
C655 C 0.38231 0.86557 0.12478 0.0
C656 C 0.35315 0.87326 0.12425 0.0
C657 C 0.31746 0.8466 0.12829 0.0
C658 C 0.42148 0.89769 0.12785 0.0
C659 C 0.43308 0.92247 0.11299 0.0
C660 C 0.4446 0.90779 0.14745 0.0
C661 C 0.43394 0.88328 0.16399 0.0
C662 C 0.40322 0.87671 0.17512 0.0
C663 C 0.39298 0.853 0.19044 0.0
C664 C 0.41362 0.83619 0.19497 0.0
C665 C 0.44459 0.84313 0.18421 0.0
C666 C 0.4548 0.86664 0.16878 0.0
C667 C 0.50633 0.06697 0.16258 0.0
C668 C 0.53805 0.07942 0.17741 0.0
C669 C 0.49114 1.0329 0.14865 0.0
C670 C 0.50753 1.01069 0.14908 0.0
C671 C 0.54108 1.02462 0.16264 0.0
C672 C 0.5562 0.0587 0.17673 0.0
C673 C 0.48503 0.97043 0.13909 0.0
C674 C 0.4764 0.94382 0.15268 0.0
C675 C 0.46491 0.95884 0.11831 0.0
C676 C 0.47575 0.9849 0.10246 0.0
C677 C 0.51357 1.00636 0.09894 0.0
C678 C 0.52392 1.03115 0.08421 0.0
C679 C 0.49669 1.03473 0.07284 0.0
C680 C 0.45905 1.01352 0.07618 0.0
C681 C 0.44854 0.98869 0.09089 0.0
H682 H 0.50476 0.05395 0.06145 0.0
H683 H 0.40566 0.81781 0.20682 0.0
H684 H 0.68295 0.27924 0.4522 0.0
H685 H 0.72743 0.34295 0.44635 0.0
H686 H 0.63808 0.36686 0.44361 0.0
H687 H 0.59342 0.30319 0.44878 0.0
H688 H 0.69453 0.41106 0.4202 0.0
H689 H 0.68962 0.36916 0.49509 0.0
H690 H 0.70538 0.33299 0.51711 0.0
H691 H 0.81617 0.38433 0.49786 0.0
H692 H 0.80068 0.42004 0.47538 0.0
H693 H 0.63168 0.48308 0.48968 0.0
H694 H 0.6596 0.46157 0.46362 0.0
H695 H 0.76847 0.53187 0.50105 0.0
H696 H 0.74024 0.55461 0.52757 0.0
H697 H 0.75392 0.46456 0.49538 0.0
H698 H 0.75978 0.53494 0.44454 0.0
H699 H 0.74602 0.57248 0.42281 0.0
H700 H 0.64231 0.47367 0.39404 0.0
H701 H 0.65494 0.43556 0.41581 0.0
C702 C 0.67249 0.29757 0.4494 0.0
C703 C 0.63483 0.28662 0.45147 0.0
C704 C 0.69803 0.33397 0.44603 0.0
C705 C 0.68635 0.35989 0.4449 0.0
C706 C 0.64791 0.34745 0.44445 0.0
C707 C 0.62241 0.31118 0.44773 0.0
C708 C 0.71337 0.40099 0.44939 0.0
C709 C 0.7085 0.42345 0.43642 0.0
C710 C 0.73465 0.41802 0.46982 0.0
C711 C 0.744 0.39707 0.48359 0.0
C712 C 0.71732 0.37268 0.49562 0.0
C713 C 0.72614 0.35214 0.50807 0.0
C714 C 0.76173 0.35627 0.50883 0.0
C715 C 0.78856 0.38096 0.49715 0.0
C716 C 0.77976 0.40128 0.48452 0.0
C717 C 0.66188 0.4956 0.49208 0.0
C718 C 0.68354 0.52048 0.51094 0.0
C719 C 0.67807 0.48329 0.4769 0.0
C720 C 0.71644 0.49536 0.48007 0.0
C721 C 0.73886 0.5223 0.49813 0.0
C722 C 0.72257 0.53491 0.51341 0.0
C723 C 0.72953 0.47283 0.4673 0.0
C724 C 0.74262 0.45399 0.47861 0.0
C725 C 0.71686 0.45977 0.44513 0.0
C726 C 0.70863 0.48222 0.43174 0.0
C727 C 0.73398 0.52115 0.43362 0.0
C728 C 0.72635 0.54257 0.42129 0.0
C729 C 0.69338 0.52545 0.407 0.0
C730 C 0.66795 0.48686 0.40503 0.0
C731 C 0.67544 0.46528 0.41731 0.0
H732 H 0.68751 0.54209 0.39748 0.0
H733 H 0.76853 0.34036 0.51846 0.0
H734 H 0.50137 0.67567 0.80086 0.0
H735 H 0.46468 0.70607 0.79727 0.0
H736 H 0.36224 0.5978 0.7882 0.0
H737 H 0.39836 0.56738 0.79229 0.0
H738 H 0.3609 0.64609 0.76125 0.0
H739 H 0.39833 0.64954 0.83687 0.0
H740 H 0.44635 0.66952 0.86775 0.0
H741 H 0.49031 0.78519 0.86192 0.0
H742 H 0.44263 0.76577 0.83086 0.0
H743 H 0.20636 0.63309 0.80397 0.0
H744 H 0.26073 0.63417 0.79074 0.0
H745 H 0.32945 0.75272 0.81619 0.0
H746 H 0.27523 0.75119 0.83075 0.0
H747 H 0.36185 0.71988 0.82909 0.0
H748 H 0.31352 0.71767 0.76035 0.0
H749 H 0.26672 0.69968 0.72917 0.0
H750 H 0.24519 0.58683 0.72053 0.0
H751 H 0.29141 0.60391 0.75184 0.0
C752 C 0.47102 0.65834 0.79804 0.0
C753 C 0.45275 0.6191 0.79709 0.0
C754 C 0.45018 0.67573 0.79579 0.0
C755 C 0.41082 0.65413 0.79252 0.0
C756 C 0.39265 0.6149 0.79052 0.0
C757 C 0.41337 0.59754 0.79287 0.0
C758 C 0.38789 0.67195 0.79346 0.0
C759 C 0.36106 0.66245 0.77598 0.0
C760 C 0.38946 0.69474 0.81238 0.0
C761 C 0.41748 0.70622 0.83131 0.0
C762 C 0.41844 0.67921 0.84207 0.0
C763 C 0.44553 0.69042 0.85962 0.0
C764 C 0.47151 0.72859 0.86671 0.0
C765 C 0.47029 0.75563 0.85634 0.0
C766 C 0.44327 0.74454 0.83877 0.0
C767 C 0.23297 0.6595 0.80663 0.0
C768 C 0.23663 0.69188 0.81875 0.0
C769 C 0.264 0.66027 0.79868 0.0
C770 C 0.29926 0.69366 0.80222 0.0
C771 C 0.30252 0.72667 0.81319 0.0
C772 C 0.27145 0.7258 0.82139 0.0
C773 C 0.3331 0.69225 0.79721 0.0
C774 C 0.36218 0.70484 0.81396 0.0
C775 C 0.33381 0.6727 0.7775 0.0
C776 C 0.306 0.66214 0.75851 0.0
C777 C 0.29868 0.68896 0.75188 0.0
C778 C 0.27224 0.67891 0.73417 0.0
C779 C 0.253 0.64214 0.72288 0.0
C780 C 0.26017 0.61533 0.72927 0.0
C781 C 0.28657 0.62521 0.74698 0.0
H782 H 0.23253 0.63442 0.70918 0.0
H783 H 0.49247 0.73722 0.8803 0.0
H784 H 0.87079 0.35734 0.10984 0.0
H785 H 0.80411 0.33539 0.1113 0.0
H786 H 0.83252 0.44881 0.13519 0.0
H787 H 0.89893 0.47089 0.13375 0.0
H788 H 0.79395 0.39941 0.16161 0.0
H789 H 0.77866 0.40558 0.0868 0.0
H790 H 0.78613 0.39362 0.04873 0.0
H791 H 0.72208 0.27461 0.04857 0.0
H792 H 0.7149 0.28602 0.08674 0.0
H793 H 0.6129 0.33263 0.18513 0.0
H794 H 0.66595 0.36973 0.16617 0.0
H795 H 0.6513 0.26782 0.1301 0.0
H796 H 0.5962 0.23071 0.14748 0.0
H797 H 0.68232 0.31987 0.10731 0.0
H798 H 0.70636 0.3098 0.1806 0.0
H799 H 0.7017 0.31643 0.21939 0.0
H800 H 0.75188 0.43577 0.22335 0.0
H801 H 0.75636 0.42973 0.18449 0.0
C802 C 0.86265 0.37764 0.11493 0.0
C803 C 0.89002 0.41575 0.12174 0.0
C804 C 0.82459 0.36517 0.11557 0.0
C805 C 0.81341 0.3906 0.12316 0.0
C806 C 0.84057 0.42887 0.12903 0.0
C807 C 0.87849 0.44142 0.12816 0.0
C808 C 0.77453 0.37654 0.12813 0.0
C809 C 0.76951 0.38287 0.14964 0.0
C810 C 0.74279 0.3538 0.11263 0.0
C811 C 0.74663 0.34673 0.08965 0.0
C812 C 0.76657 0.37693 0.07867 0.0
C813 C 0.77065 0.37023 0.05708 0.0
C814 C 0.75467 0.33337 0.04625 0.0
C815 C 0.73447 0.30315 0.05698 0.0
C816 C 0.73036 0.30973 0.07859 0.0
C817 C 0.61992 0.31809 0.17255 0.0
C818 C 0.60108 0.27859 0.16839 0.0
C819 C 0.65058 0.33938 0.16186 0.0
C820 C 0.66357 0.32152 0.14738 0.0
C821 C 0.64227 0.28229 0.14148 0.0
C822 C 0.61107 0.26106 0.15172 0.0
C823 C 0.70177 0.34264 0.14085 0.0
C824 C 0.70673 0.33734 0.11917 0.0
C825 C 0.73375 0.36553 0.15628 0.0
C826 C 0.73123 0.36926 0.17964 0.0
C827 C 0.71618 0.33741 0.18974 0.0
C828 C 0.71358 0.34106 0.21172 0.0
C829 C 0.72637 0.37648 0.22382 0.0
C830 C 0.74189 0.40834 0.21395 0.0
C831 C 0.74445 0.40483 0.19195 0.0
H832 H 0.72436 0.37926 0.24084 0.0
H833 H 0.75785 0.32821 0.02953 0.0
H834 H 1.07328 0.53923 0.08713 0.0
H835 H 1.07617 0.5388 0.04853 0.0
H836 H 0.15552 0.65823 0.06055 0.0
H837 H 0.15366 0.65882 0.09919 0.0
H838 H 0.08689 0.6257 0.02643 0.0
H839 H 0.19369 0.61574 0.05001 0.0
H840 H 0.22334 0.58702 0.06864 0.0
H841 H 0.15079 0.4809 0.0278 0.0
H842 H 0.12026 0.50888 0.00917 0.0
H843 H 0.13844 0.65272 0.92378 0.0
H844 H 0.14203 0.65481 0.96232 0.0
H845 H 0.10094 0.53586 0.95319 0.0
H846 H 0.10042 0.5341 0.91455 0.0
H847 H 0.14997 0.5678 0.98653 0.0
H848 H 1.04255 0.57341 0.96284 0.0
H849 H 1.00756 0.59727 0.94446 0.0
H850 H 1.07346 0.70477 0.98516 0.0
H851 H 0.10921 0.68169 0.0036 0.0
C852 C 0.09123 0.5654 0.08153 0.0
C853 C 0.1133 0.59905 0.09611 0.0
C854 C 0.09291 0.56507 0.05955 0.0
C855 C 0.11613 0.59846 0.05186 0.0
C856 C 0.1375 0.63224 0.0663 0.0
C857 C 0.13646 0.63247 0.0883 0.0
C858 C 0.11833 0.59806 0.02868 0.0
C859 C 0.10108 0.61355 0.01767 0.0
C860 C 0.13578 0.58102 0.01735 0.0
C861 C 0.15441 0.5643 0.02836 0.0
C862 C 0.18381 0.5862 0.04514 0.0
C863 C 0.20083 0.57007 0.05567 0.0
C864 C 0.18888 0.53213 0.04945 0.0
C865 C 0.15997 0.51027 0.03263 0.0
C866 C 0.14282 0.52625 0.02207 0.0
C867 C 0.13113 0.62711 0.92986 0.0
C868 C 0.11887 0.59313 0.91588 0.0
C869 C 0.13258 0.62826 0.95199 0.0
C870 C 0.12073 0.59529 0.96067 0.0
C871 C 0.10986 0.56162 0.94688 0.0
C872 C 0.10915 0.56058 0.92473 0.0
C873 C 0.11868 0.59576 0.98403 0.0
C874 C 0.13581 0.58012 -0.00485 0.0
C875 C 0.10038 0.61201 -0.00458 0.0
C876 C 1.07879 0.62592 0.98446 0.0
C877 C 1.04974 0.60221 0.96777 0.0
C878 C 1.02976 0.61558 0.95736 0.0
C879 C 1.03834 0.65254 0.9636 0.0
C880 C 1.06687 0.67617 0.98032 0.0
C881 C 0.08699 0.66295 -0.00923 0.0
H882 H 1.02284 0.66284 0.95551 0.0
H883 H 0.20209 0.5197 0.05762 0.0
H884 H 0.63069 0.06646 0.42019 0.0
H885 H 0.62144 0.06588 0.38164 0.0
H886 H 0.54759 0.10897 0.39252 0.0
H887 H 0.55491 0.10743 0.43061 0.0
H888 H 0.52193 0.06021 0.35694 0.0
H889 H 0.64516 0.16491 0.38913 0.0
H890 H 0.70605 0.18739 0.41011 0.0
H891 H 0.73265 0.1269 0.36113 0.0
H892 H 0.67097 0.10256 0.3403 0.0
H893 H 0.53134 0.14953 0.26853 0.0
H894 H 0.5381 0.13739 0.3047 0.0
H895 H 0.60948 0.09502 0.28498 0.0
H896 H 0.6042 0.10862 0.24902 0.0
H897 H 0.63645 0.13708 0.32332 0.0
H898 H 0.51713 1.03492 0.29004 0.0
H899 H 0.45377 1.00447 0.27008 0.0
H900 H 0.41988 0.05618 0.31994 0.0
H901 H 0.48322 0.0874 0.34006 0.0
C902 C 0.61227 0.07548 0.41427 0.0
C903 C 0.59392 0.08744 0.42841 0.0
C904 C 0.607 0.07518 0.39227 0.0
C905 C 0.58442 0.08815 0.38422 0.0
C906 C 0.56518 0.0989 0.39831 0.0
C907 C 0.56963 0.09826 0.42014 0.0
C908 C 0.58242 0.093 0.36146 0.0
C909 C 0.54695 0.07726 0.34964 0.0
C910 C 0.6151 0.11433 0.35169 0.0
C911 C 0.65335 0.13163 0.36328 0.0
C912 C 0.66402 0.15645 0.38282 0.0
C913 C 0.69862 0.16937 0.39473 0.0
C914 C 0.72327 0.1586 0.38695 0.0
C915 C 0.71348 0.13513 0.36715 0.0
C916 C 0.67864 0.12163 0.35533 0.0
C917 C 0.54898 0.13821 0.27197 0.0
C918 C 0.56705 0.12983 0.25585 0.0
C919 C 0.55244 0.13085 0.29258 0.0
C920 C 0.57369 0.1146 0.29742 0.0
C921 C 0.5927 0.10728 0.28156 0.0
C922 C 0.58941 0.11481 0.26098 0.0
C923 C 0.5759 0.10506 0.319 0.0
C924 C 0.6114 0.11988 0.33056 0.0
C925 C 0.54325 0.08264 0.32847 0.0
C926 C 0.50503 0.06375 0.31647 0.0
C927 C 0.49625 1.04002 0.29668 0.0
C928 C 0.46032 1.02259 0.28535 0.0
C929 C 0.43284 1.02845 0.29372 0.0
C930 C 0.4412 0.05169 0.31346 0.0
C931 C 0.47711 0.06923 0.32485 0.0
H932 H 0.40504 1.01493 0.28492 0.0
H933 H 0.74994 0.16832 0.39626 0.0
H934 H 0.62967 0.52546 0.76202 0.0
H935 H 0.64049 0.51436 0.72487 0.0
H936 H 0.72379 0.63209 0.72983 0.0
H937 H 0.71338 0.6434 0.76696 0.0
H938 H 0.67133 0.60644 0.69514 0.0
H939 H 0.75205 0.57224 0.72634 0.0
H940 H 0.77397 0.54065 0.74823 0.0
H941 H 0.69225 0.43346 0.71131 0.0
H942 H 0.66922 0.46431 0.68943 0.0
H943 H 0.71697 0.58407 0.59079 0.0
H944 H 0.73049 0.59421 0.62994 0.0
H945 H 0.63146 0.4867 0.63157 0.0
H946 H 0.6174 0.47692 0.5925 0.0
H947 H 0.7008 0.51116 0.66323 0.0
H948 H 0.61508 0.54915 0.63645 0.0
H949 H 0.59849 0.58336 0.61344 0.0
H950 H 0.6965 0.68758 0.64285 0.0
H951 H 0.71408 0.65378 0.66573 0.0
C952 C 0.65039 0.54894 0.75522 0.0
C953 C 0.67037 0.58537 0.76731 0.0
C954 C 0.65679 0.5425 0.73408 0.0
C955 C 0.68308 0.5724 0.72469 0.0
C956 C 0.70345 0.60866 0.73684 0.0
C957 C 0.69738 0.61505 0.75801 0.0
C958 C 0.68694 0.56638 0.70168 0.0
C959 C 0.67848 0.5861 0.68828 0.0
C960 C 0.69592 0.53957 0.69271 0.0
C961 C 0.70867 0.52062 0.70632 0.0
C962 C 0.73837 0.54189 0.72304 0.0
C963 C 0.75113 0.52412 0.7354 0.0
C964 C 0.73465 0.48511 0.7311 0.0
C965 C 0.70514 0.46372 0.71454 0.0
C966 C 0.69217 0.48133 0.70218 0.0
C967 C 0.69883 0.56218 0.5995 0.0
C968 C 0.66611 0.52986 0.58886 0.0
C969 C 0.70655 0.56795 0.62176 0.0
C970 C 0.68189 0.54118 0.63351 0.0
C971 C 0.6509 0.50747 0.62269 0.0
C972 C 0.64279 0.50203 0.60049 0.0
C973 C 0.68472 0.55085 0.65697 0.0
C974 C 0.69417 0.53176 0.67032 0.0
C975 C 0.67706 0.57852 0.66604 0.0
C976 C 0.66615 0.59891 0.65258 0.0
C977 C 0.63328 0.57931 0.63786 0.0
C978 C 0.62367 0.59863 0.62486 0.0
C979 C 0.64649 0.63762 0.62663 0.0
C980 C 0.67891 0.65737 0.64146 0.0
C981 C 0.68872 0.63815 0.65444 0.0
H982 H 0.639 0.65253 0.61657 0.0
H983 H 0.74461 0.47141 0.74067 0.0
H984 H 0.58326 0.12329 0.56891 0.0
H985 H 0.58643 0.12385 0.60749 0.0
H986 H 0.65622 0.07501 0.60284 0.0
H987 H 0.65191 0.07301 0.564 0.0
H988 H 0.60933 1.04428 0.63004 0.0
H989 H 0.69245 0.17168 0.62172 0.0
H990 H 0.71178 0.23121 0.60861 0.0
H991 H 0.62783 0.24174 0.64057 0.0
H992 H 0.60765 0.182 0.65365 0.0
H993 H 0.67452 0.09841 0.74398 0.0
H994 H 0.66897 0.08857 0.70465 0.0
H995 H 0.58822 0.12424 0.7029 0.0
H996 H 0.5933 0.13365 0.74196 0.0
H997 H 0.64427 0.16186 0.67917 0.0
H998 H 0.56173 1.03275 0.68727 0.0
H999 H 0.54512 0.97409 0.70075 0.0
H1000 H 0.6324 0.96851 0.66981 0.0
H1001 H 0.64988 1.02745 0.65639 0.0
C1002 C 0.59934 0.11268 0.57606 0.0
C1003 C 0.6176 0.09841 0.56332 0.0
C1004 C 0.60127 0.11316 0.5982 0.0
C1005 C 0.62226 0.10023 0.6083 0.0
C1006 C 0.63996 0.0853 0.59555 0.0
C1007 C 0.63756 0.08429 0.57331 0.0
C1008 C 0.62585 0.10254 0.6321 0.0
C1009 C 0.61751 0.07018 0.64077 0.0
C1010 C 0.63614 0.13614 0.64626 0.0
C1011 C 0.64833 0.17218 0.63851 0.0
C1012 C 0.67795 0.18656 0.62584 0.0
C1013 C 0.68907 0.22036 0.61843 0.0
C1014 C 0.67098 0.2402 0.62371 0.0
C1015 C 0.64179 0.22632 0.63647 0.0
C1016 C 0.63052 0.19252 0.6439 0.0
C1017 C 0.65502 0.10339 0.73517 0.0
C1018 C 0.63467 0.11721 0.74614 0.0
C1019 C 0.65194 0.09787 0.71269 0.0
C1020 C 0.6283 0.10586 0.70077 0.0
C1021 C 0.60691 0.11822 0.7117 0.0
C1022 C 0.60989 0.12363 0.73406 0.0
C1023 C 0.62717 0.10353 0.67705 0.0
C1024 C 0.63617 0.136 0.66842 0.0
C1025 C 0.61795 0.07021 0.66301 0.0
C1026 C 0.60737 1.03473 0.67102 0.0
C1027 C 0.57759 1.01919 0.68349 0.0
C1028 C 0.56798 0.98586 0.69109 0.0
C1029 C 0.58776 0.96764 0.68619 0.0
C1030 C 0.61714 0.98268 0.67362 0.0
C1031 C 0.62689 1.01603 0.666 0.0
H1032 H 0.58027 0.94184 0.69208 0.0
H1033 H 0.67963 0.26635 0.61796 0.0
H1034 H 0.70411 0.64708 0.90891 0.0
H1035 H 0.69967 0.64479 0.94691 0.0
H1036 H 0.57887 0.57689 0.93375 0.0
H1037 H 0.58311 0.57823 0.8954 0.0
H1038 H 0.67116 0.66756 0.97633 0.0
H1039 H 0.54517 0.51573 0.96947 0.0
H1040 H 0.51478 0.45548 0.94437 0.0
H1041 H 0.61933 0.48723 0.91941 0.0
H1042 H 0.65041 0.5474 0.94454 0.0
H1043 H 0.62696 0.64041 0.0819 0.0
H1044 H 0.62041 0.64136 0.04352 0.0
H1045 H 0.65619 0.56111 0.03119 0.0
H1046 H 0.66055 0.55824 0.06933 0.0
H1047 H 0.6038 0.54464 0.00128 0.0
H1048 H 0.7168 0.65876 0.03326 0.0
H1049 H 0.75503 0.71854 0.05835 0.0
H1050 H 0.68985 0.76152 0.03296 0.0
H1051 H 0.65091 0.70178 0.0079 0.0
C1052 C 0.67648 0.63177 0.914 0.0
C1053 C 0.64396 0.61262 0.89895 0.0
C1054 C 0.67401 0.6306 0.93585 0.0
C1055 C 0.63899 0.61032 0.94329 0.0
C1056 C 0.6063 0.5922 0.92842 0.0
C1057 C 0.60876 0.59315 0.90647 0.0
C1058 C 0.63717 0.60751 0.96652 0.0
C1059 C 0.65618 0.64066 0.98175 0.0
C1060 C 0.61828 0.57246 0.97375 0.0
C1061 C 0.59995 0.53623 0.9587 0.0
C1062 C 0.56166 0.50979 0.95866 0.0
C1063 C 0.54433 0.47567 0.94442 0.0
C1064 C 0.56508 0.4676 0.93025 0.0
C1065 C 0.60325 0.49358 0.93033 0.0
C1066 C 0.62073 0.52771 0.94455 0.0
C1067 C 0.63274 0.62238 0.07102 0.0
C1068 C 0.64458 0.59944 0.07886 0.0
C1069 C 0.62943 0.62331 0.04904 0.0
C1070 C 0.63846 0.60183 0.03437 0.0
C1071 C 0.64919 0.57811 0.04209 0.0
C1072 C 0.65211 0.57684 0.06401 0.0
C1073 C 0.63784 0.60471 0.01111 0.0
C1074 C 0.61836 0.57158 -0.00413 0.0
C1075 C 0.6573 0.63973 0.00386 0.0
C1076 C 0.68069 0.67567 0.01888 0.0
C1077 C 0.71045 0.68087 0.03314 0.0
C1078 C 0.73228 0.71475 0.04734 0.0
C1079 C 0.72481 0.74377 0.04729 0.0
C1080 C 0.69556 0.73899 0.033 0.0
C1081 C 0.67362 0.70514 0.01879 0.0
H1082 H 0.74174 0.76998 0.05829 0.0
H1083 H 0.5516 0.44118 0.91923 0.0
H1084 H 0.10274 0.54067 0.22746 0.0
H1085 H 0.10303 0.54122 0.26619 0.0
H1086 H 0.12704 0.65542 0.27574 0.0
H1087 H 0.127 0.65522 0.23723 0.0
H1088 H 0.17154 0.64686 0.30397 0.0
H1089 H 1.03939 0.5823 0.27853 0.0
H1090 H 0.98079 0.53289 0.25629 0.0
H1091 H 0.98967 0.44806 0.28332 0.0
H1092 H 1.04864 0.49698 0.30552 0.0
H1093 H 0.13795 0.67487 0.40951 0.0
H1094 H 0.13071 0.6653 0.37039 0.0
H1095 H 0.10429 0.551 0.36838 0.0
H1096 H 0.11084 0.56038 0.4078 0.0
H1097 H 1.0621 0.55561 0.33627 0.0
H1098 H 0.19264 0.61992 0.36284 0.0
H1099 H 0.25093 0.66915 0.38539 0.0
H1100 H 0.24579 0.75391 0.35607 0.0
H1101 H 0.18709 0.70523 0.33358 0.0
C1102 C 0.10809 0.56591 0.2378 0.0
C1103 C 0.11482 0.59789 0.22916 0.0
C1104 C 0.10807 0.56612 0.25995 0.0
C1105 C 0.11478 0.59828 0.27392 0.0
C1106 C 0.12178 0.63027 0.26533 0.0
C1107 C 0.12164 0.63004 0.24324 0.0
C1108 C 0.11512 0.59909 0.29752 0.0
C1109 C 0.14745 0.62712 0.31101 0.0
C1110 C 0.08414 0.57268 0.30677 0.0
C1111 C 1.04864 0.54326 0.2935 0.0
C1112 C 1.02902 0.55309 0.2796 0.0
C1113 C 0.9957 0.52518 0.26703 0.0
C1114 C 0.98157 0.48735 0.26835 0.0
C1115 C 1.00068 0.47737 0.28229 0.0
C1116 C 1.03404 0.50517 0.29488 0.0
C1117 C 0.13022 0.64757 0.40073 0.0
C1118 C 0.12541 0.6185 0.41169 0.0
C1119 C 0.1262 0.64214 0.37836 0.0
C1120 C 0.11788 0.60771 0.36639 0.0
C1121 C 0.11099 0.5779 0.37726 0.0
C1122 C 0.11467 0.58323 0.39975 0.0
C1123 C 0.11828 0.60381 0.3427 0.0
C1124 C 0.08624 0.57519 0.32921 0.0
C1125 C 0.14962 0.62961 0.33339 0.0
C1126 C 0.18529 0.65893 0.34663 0.0
C1127 C 0.20381 0.64908 0.36129 0.0
C1128 C 0.23693 0.67688 0.37406 0.0
C1129 C 0.25201 0.71464 0.37219 0.0
C1130 C 0.23405 0.72465 0.35751 0.0
C1131 C 0.20087 0.69696 0.34473 0.0
H1132 H 0.27765 0.73613 0.38211 0.0
H1133 H 0.95577 0.46578 0.25861 0.0
loop_
_geom_bond_atom_site_label_1
_geom_bond_atom_site_label_2
_geom_bond_distance
_geom_bond_site_symmetry_2
_ccdc_geom_bond_type
Eu0 C9 2.828 . S
Eu0 O11 2.392 1_655 S
Eu0 O13 2.418 . S
Eu0 O18 2.373 . S
Eu0 O21 2.488 . S
Eu0 O22 2.471 . S
Eu0 O23 2.349 1_655 S
Eu1 O10 2.373 . S
Eu1 O14 2.488 . S
Eu1 O15 2.471 . S
Eu1 O16 2.349 . S
Eu1 O19 2.392 1_455 S
Eu1 O20 2.418 . S
Eu1 C30 2.828 . S
C2 O20 1.244 . S
C2 O23 1.265 . S
C3 C4 1.379 . S
C3 C7 1.373 . S
C3 C9 1.505 . S
C4 C3 1.379 . S
C4 C6 1.369 . S
C4 H32 0.930 . S
C5 C7 1.383 . S
C5 C8 1.382 . S
C5 H33 0.930 . S
C6 C4 1.369 . S
C6 C8 1.392 . S
C6 H34 0.930 . S
C7 C3 1.373 . S
C7 C5 1.383 . S
C7 H35 0.931 . S
C8 C5 1.382 . S
C8 C6 1.392 . S
C9 Eu0 2.828 . S
C9 C3 1.505 . S
C9 O21 1.249 . S
C9 O22 1.244 . S
O10 Eu1 2.373 . S
O10 C12 1.258 . S
O11 Eu0 2.392 1_455 S
O11 C12 1.242 . S
C12 O10 1.258 . S
C12 O11 1.242 . S
O13 Eu0 2.418 . S
O13 C17 1.244 1_655 S
O14 Eu1 2.488 . S
O14 C30 1.249 . S
O15 Eu1 2.471 . S
O15 C30 1.244 . S
O16 Eu1 2.349 . S
O16 C17 1.265 . S
C17 O13 1.244 1_455 S
C17 O16 1.265 . S
O18 Eu0 2.373 . S
O18 C31 1.258 . S
O19 Eu1 2.392 1_655 S
O19 C31 1.242 . S
O20 Eu1 2.418 . S
O20 C2 1.244 . S
O21 Eu0 2.488 . S
O21 C9 1.249 . S
O22 Eu0 2.471 . S
O22 C9 1.244 . S
O23 Eu0 2.349 1_455 S
O23 C2 1.265 . S
C24 C25 1.379 . S
C24 C28 1.373 . S
C24 C30 1.505 . S
C25 C24 1.379 . S
C25 C27 1.369 . S
C25 H36 0.930 . S
C26 C28 1.383 . S
C26 C29 1.382 . S
C26 H37 0.930 . S
C27 C25 1.369 . S
C27 C29 1.392 . S
C27 H38 0.930 . S
C28 C24 1.373 . S
C28 C26 1.383 . S
C28 H39 0.931 . S
C29 C26 1.382 . S
C29 C27 1.392 . S
C30 Eu1 2.828 . S
C30 O14 1.249 . S
C30 O15 1.244 . S
C30 C24 1.505 . S
C31 O18 1.258 . S
C31 O19 1.242 . S
H32 C4 0.930 . S
H33 C5 0.930 . S
H34 C6 0.930 . S
H35 C7 0.931 . S
H36 C25 0.930 . S
H37 C26 0.930 . S
H38 C27 0.930 . S
H39 C28 0.931 . S
Eu40 C49 2.828 1_545 S
Eu40 O51 2.392 . S
Eu40 O53 2.418 . S
Eu40 O58 2.373 1_545 S
Eu40 O61 2.488 1_545 S
Eu40 O62 2.471 1_545 S
Eu40 O63 2.349 . S
Eu41 O50 2.373 . S
Eu41 O54 2.488 . S
Eu41 O55 2.471 . S
Eu41 O56 2.349 . S
Eu41 O59 2.392 . S
Eu41 O60 2.418 . S
Eu41 C70 2.828 . S
C42 O60 1.244 . S
C42 O63 1.265 . S
C43 C44 1.379 . S
C43 C47 1.373 . S
C43 C49 1.505 . S
C44 C43 1.379 . S
C44 C46 1.369 . S
C44 H72 0.930 . S
C45 C47 1.383 . S
C45 C48 1.382 . S
C45 H73 0.930 . S
C46 C44 1.369 . S
C46 C48 1.392 . S
C46 H74 0.930 . S
C47 C43 1.373 . S
C47 C45 1.383 . S
C47 H75 0.931 . S
C48 C45 1.382 . S
C48 C46 1.392 . S
C49 Eu40 2.828 1_565 S
C49 C43 1.505 . S
C49 O61 1.249 . S
C49 O62 1.244 . S
O50 Eu41 2.373 . S
O50 C52 1.258 . S
O51 Eu40 2.392 . S
O51 C52 1.242 . S
C52 O50 1.258 . S
C52 O51 1.242 . S
O53 Eu40 2.418 . S
O53 C57 1.244 . S
O54 Eu41 2.488 . S
O54 C70 1.249 . S
O55 Eu41 2.471 . S
O55 C70 1.244 . S
O56 Eu41 2.349 . S
O56 C57 1.265 . S
C57 O53 1.244 . S
C57 O56 1.265 . S
O58 Eu40 2.373 1_565 S
O58 C71 1.258 . S
O59 Eu41 2.392 . S
O59 C71 1.242 1_545 S
O60 Eu41 2.418 . S
O60 C42 1.244 . S
O61 Eu40 2.488 1_565 S
O61 C49 1.249 . S
O62 Eu40 2.471 1_565 S
O62 C49 1.244 . S
O63 Eu40 2.349 . S
O63 C42 1.265 . S
C64 C65 1.379 . S
C64 C68 1.373 . S
C64 C70 1.505 . S
C65 C64 1.379 . S
C65 C67 1.369 . S
C65 H76 0.930 . S
C66 C68 1.383 . S
C66 C69 1.382 . S
C66 H77 0.930 . S
C67 C65 1.369 . S
C67 C69 1.392 . S
C67 H78 0.930 . S
C68 C64 1.373 . S
C68 C66 1.383 . S
C68 H79 0.931 . S
C69 C66 1.382 . S
C69 C67 1.392 . S
C70 Eu41 2.828 . S
C70 O54 1.249 . S
C70 O55 1.244 . S
C70 C64 1.505 . S
C71 O58 1.258 . S
C71 O59 1.242 1_565 S
H72 C44 0.930 . S
H73 C45 0.930 . S
H74 C46 0.930 . S
H75 C47 0.931 . S
H76 C65 0.930 . S
H77 C66 0.930 . S
H78 C67 0.930 . S
H79 C68 0.931 . S
Eu80 C89 2.828 . S
Eu80 O91 2.392 . S
Eu80 O93 2.418 . S
Eu80 O98 2.373 . S
Eu80 O101 2.488 . S
Eu80 O102 2.471 . S
Eu80 O103 2.349 . S
Eu81 O90 2.373 . S
Eu81 O94 2.488 . S
Eu81 O95 2.471 . S
Eu81 O96 2.349 . S
Eu81 O99 2.392 . S
Eu81 O100 2.418 . S
Eu81 C110 2.828 . S
C82 O100 1.244 . S
C82 O103 1.265 . S
C83 C84 1.379 . S
C83 C87 1.373 . S
C83 C89 1.505 . S
C84 C83 1.379 . S
C84 C86 1.369 . S
C84 H112 0.930 . S
C85 C87 1.383 . S
C85 C88 1.382 . S
C85 H113 0.930 . S
C86 C84 1.369 . S
C86 C88 1.392 . S
C86 H114 0.930 . S
C87 C83 1.373 . S
C87 C85 1.383 . S
C87 H115 0.931 . S
C88 C85 1.382 . S
C88 C86 1.392 . S
C89 Eu80 2.828 . S
C89 C83 1.505 . S
C89 O101 1.249 . S
C89 O102 1.244 . S
O90 Eu81 2.373 . S
O90 C92 1.258 . S
O91 Eu80 2.392 . S
O91 C92 1.242 . S
C92 O90 1.258 . S
C92 O91 1.242 . S
O93 Eu80 2.418 . S
O93 C97 1.244 . S
O94 Eu81 2.488 . S
O94 C110 1.249 . S
O95 Eu81 2.471 . S
O95 C110 1.244 . S
O96 Eu81 2.349 . S
O96 C97 1.265 . S
C97 O93 1.244 . S
C97 O96 1.265 . S
O98 Eu80 2.373 . S
O98 C111 1.258 . S
O99 Eu81 2.392 . S
O99 C111 1.242 . S
O100 Eu81 2.418 . S
O100 C82 1.244 . S
O101 Eu80 2.488 . S
O101 C89 1.249 . S
O102 Eu80 2.471 . S
O102 C89 1.244 . S
O103 Eu80 2.349 . S
O103 C82 1.265 . S
C104 C105 1.379 . S
C104 C108 1.373 . S
C104 C110 1.505 . S
C105 C104 1.379 . S
C105 C107 1.369 . S
C105 H116 0.930 . S
C106 C108 1.383 . S
C106 C109 1.382 . S
C106 H117 0.930 . S
C107 C105 1.369 . S
C107 C109 1.392 . S
C107 H118 0.930 . S
C108 C104 1.373 . S
C108 C106 1.383 . S
C108 H119 0.931 . S
C109 C106 1.382 . S
C109 C107 1.392 . S
C110 Eu81 2.828 . S
C110 O94 1.249 . S
C110 O95 1.244 . S
C110 C104 1.505 . S
C111 O98 1.258 . S
C111 O99 1.242 . S
H112 C84 0.930 . S
H113 C85 0.930 . S
H114 C86 0.930 . S
H115 C87 0.931 . S
H116 C105 0.930 . S
H117 C106 0.930 . S
H118 C107 0.930 . S
H119 C108 0.931 . S
H120 C121 0.949 . S
C121 H120 0.949 . S
C121 C122 1.395 . S
C121 C123 1.391 . S
C122 C121 1.395 . S
C122 C125 1.390 . S
C123 C121 1.391 . S
C123 C127 1.387 . S
C123 C128 1.491 . S
H124 C125 0.950 . S
C125 C122 1.390 . S
C125 H124 0.950 . S
C125 C126 1.378 . S
C126 C125 1.378 . S
C126 C127 1.409 . S
C127 C123 1.387 . S
C127 C126 1.409 . S
C127 H129 0.951 . S
C128 C123 1.491 . S
C128 C130 1.382 . S
C128 C132 1.404 . S
H129 C127 0.951 . S
C130 C128 1.382 . S
C130 C131 1.390 . S
C130 H135 0.949 . S
C131 C130 1.390 . S
C131 C136 1.399 . S
C132 C128 1.404 . S
C132 H133 0.950 . S
C132 C134 1.375 . S
H133 C132 0.950 . S
C134 C132 1.375 . S
C134 C136 1.382 . S
C134 H138 0.950 . S
H135 C130 0.949 . S
C136 C131 1.399 . S
C136 C134 1.382 . S
C136 H137 0.952 . S
H137 C136 0.952 . S
H138 C134 0.950 . S
H139 C140 0.949 . S
C140 H139 0.949 . S
C140 C141 1.395 . S
C140 C142 1.391 . S
C141 C140 1.395 . S
C141 C144 1.390 . S
C142 C140 1.391 . S
C142 C146 1.387 . S
C142 C147 1.491 . S
H143 C144 0.950 . S
C144 C141 1.390 . S
C144 H143 0.950 . S
C144 C145 1.378 . S
C145 C144 1.378 . S
C145 C146 1.409 . S
C146 C142 1.387 . S
C146 C145 1.409 . S
C146 H148 0.951 . S
C147 C142 1.491 . S
C147 C149 1.382 . S
C147 C151 1.404 . S
H148 C146 0.951 . S
C149 C147 1.382 . S
C149 C150 1.390 . S
C149 H154 0.949 . S
C150 C149 1.390 . S
C150 C155 1.399 . S
C151 C147 1.404 . S
C151 H152 0.950 . S
C151 C153 1.375 . S
H152 C151 0.950 . S
C153 C151 1.375 . S
C153 C155 1.382 . S
C153 H157 0.950 . S
H154 C149 0.949 . S
C155 C150 1.399 . S
C155 C153 1.382 . S
C155 H156 0.952 . S
H156 C155 0.952 . S
H157 C153 0.950 . S
H158 C159 0.949 . S
C159 H158 0.949 . S
C159 C160 1.395 . S
C159 C161 1.391 . S
C160 C159 1.395 . S
C160 C163 1.390 . S
C161 C159 1.391 . S
C161 C165 1.387 . S
C161 C166 1.491 . S
H162 C163 0.950 . S
C163 C160 1.390 . S
C163 H162 0.950 . S
C163 C164 1.378 . S
C164 C163 1.378 . S
C164 C165 1.409 . S
C165 C161 1.387 . S
C165 C164 1.409 . S
C165 H167 0.951 . S
C166 C161 1.491 . S
C166 C168 1.382 . S
C166 C170 1.404 . S
H167 C165 0.951 . S
C168 C166 1.382 . S
C168 C169 1.390 . S
C168 H173 0.949 . S
C169 C168 1.390 . S
C169 C174 1.399 . S
C170 C166 1.404 . S
C170 H171 0.950 . S
C170 C172 1.375 . S
H171 C170 0.950 . S
C172 C170 1.375 . S
C172 C174 1.382 . S
C172 H176 0.950 . S
H173 C168 0.949 . S
C174 C169 1.399 . S
C174 C172 1.382 . S
C174 H175 0.952 . S
H175 C174 0.952 . S
H176 C172 0.950 . S
H177 C178 0.949 1_655 S
C178 H177 0.949 1_455 S
C178 C179 1.395 . S
C178 C180 1.391 . S
C179 C178 1.395 . S
C179 C182 1.390 . S
C180 C178 1.391 . S
C180 C184 1.387 . S
C180 C185 1.491 1_455 S
H181 C182 0.950 . S
C182 C179 1.390 . S
C182 H181 0.950 . S
C182 C183 1.378 . S
C183 C182 1.378 . S
C183 C184 1.409 . S
C184 C180 1.387 . S
C184 C183 1.409 . S
C184 H186 0.951 . S
C185 C180 1.491 1_655 S
C185 C187 1.382 . S
C185 C189 1.404 . S
H186 C184 0.951 . S
C187 C185 1.382 . S
C187 C188 1.390 . S
C187 H192 0.949 . S
C188 C187 1.390 . S
C188 C193 1.399 . S
C189 C185 1.404 . S
C189 H190 0.950 1_655 S
C189 C191 1.375 . S
H190 C189 0.950 1_455 S
C191 C189 1.375 . S
C191 C193 1.382 . S
C191 H195 0.950 . S
H192 C187 0.949 . S
C193 C188 1.399 . S
C193 C191 1.382 . S
C193 H194 0.952 . S
H194 C193 0.952 . S
H195 C191 0.950 . S
H196 C197 0.949 . S
C197 H196 0.949 . S
C197 C198 1.395 . S
C197 C199 1.391 . S
C198 C197 1.395 . S
C198 C201 1.390 . S
C199 C197 1.391 . S
C199 C203 1.387 . S
C199 C204 1.491 . S
H200 C201 0.950 . S
C201 C198 1.390 . S
C201 H200 0.950 . S
C201 C202 1.378 . S
C202 C201 1.378 . S
C202 C203 1.409 . S
C203 C199 1.387 . S
C203 C202 1.409 . S
C203 H205 0.951 . S
C204 C199 1.491 . S
C204 C206 1.382 1_545 S
C204 C208 1.404 . S
H205 C203 0.951 . S
C206 C204 1.382 1_565 S
C206 C207 1.390 . S
C206 H211 0.949 . S
C207 C206 1.390 . S
C207 C212 1.399 . S
C208 C204 1.404 . S
C208 H209 0.950 . S
C208 C210 1.375 1_545 S
H209 C208 0.950 . S
C210 C208 1.375 1_565 S
C210 C212 1.382 . S
C210 H214 0.950 . S
H211 C206 0.949 . S
C212 C207 1.399 . S
C212 C210 1.382 . S
C212 H213 0.952 . S
H213 C212 0.952 . S
H214 C210 0.950 . S
H215 C216 0.949 . S
C216 H215 0.949 . S
C216 C217 1.395 . S
C216 C218 1.391 . S
C217 C216 1.395 . S
C217 C220 1.390 . S
C218 C216 1.391 . S
C218 C222 1.387 . S
C218 C223 1.491 . S
H219 C220 0.950 . S
C220 C217 1.390 . S
C220 H219 0.950 . S
C220 C221 1.378 . S
C221 C220 1.378 . S
C221 C222 1.409 . S
C222 C218 1.387 . S
C222 C221 1.409 . S
C222 H224 0.951 . S
C223 C218 1.491 . S
C223 C225 1.382 . S
C223 C227 1.404 . S
H224 C222 0.951 . S
C225 C223 1.382 . S
C225 C226 1.390 . S
C225 H230 0.949 . S
C226 C225 1.390 . S
C226 C231 1.399 . S
C227 C223 1.404 . S
C227 H228 0.950 . S
C227 C229 1.375 . S
H228 C227 0.950 . S
C229 C227 1.375 . S
C229 C231 1.382 . S
C229 H233 0.950 . S
H230 C225 0.949 . S
C231 C226 1.399 . S
C231 C229 1.382 . S
C231 H232 0.952 . S
H232 C231 0.952 . S
H233 C229 0.950 . S
H234 C252 0.951 . S
H235 C254 0.951 . S
H236 C256 0.950 . S
H237 C257 0.950 . S
H238 C259 0.950 . S
H239 C262 0.950 . S
H240 C263 0.950 . S
H241 C265 0.950 . S
H242 C266 0.950 . S
H243 C267 0.951 . S
H244 C269 0.951 . S
H245 C271 0.950 . S
H246 C272 0.950 . S
H247 C274 0.950 . S
H248 C277 0.950 . S
H249 C278 0.950 . S
H250 C280 0.950 . S
H251 C281 0.950 . S
C252 H234 0.951 . S
C252 C253 1.366 . S
C252 C254 1.388 . S
C253 C252 1.366 . S
C253 C257 1.385 . S
C254 H235 0.951 . S
C254 C252 1.388 . S
C254 C255 1.366 . S
C255 C254 1.366 . S
C255 C256 1.414 . S
C255 C258 1.499 . S
C256 H236 0.950 . S
C256 C255 1.414 . S
C256 C257 1.374 . S
C257 H237 0.950 . S
C257 C253 1.385 . S
C257 C256 1.374 . S
C258 C255 1.499 . S
C258 C259 1.373 . S
C258 C260 1.389 . S
C259 H238 0.950 . S
C259 C258 1.373 . S
C259 C275 1.377 . S
C260 C258 1.389 . S
C260 C261 1.524 . S
C260 C274 1.377 . S
C261 C260 1.524 . S
C261 C262 1.397 . S
C261 C266 1.363 . S
C262 H239 0.950 . S
C262 C261 1.397 . S
C262 C263 1.334 . S
C263 H240 0.950 . S
C263 C262 1.334 . S
C263 C264 1.287 . S
C264 C263 1.287 . S
C264 C265 1.524 . S
C264 H283 0.913 . S
C265 H241 0.950 . S
C265 C264 1.524 . S
C265 C266 1.415 . S
C266 H242 0.950 . S
C266 C261 1.363 . S
C266 C265 1.415 . S
C267 H243 0.951 . S
C267 C268 1.366 . S
C267 C269 1.388 . S
C268 C267 1.366 . S
C268 C272 1.385 . S
C269 H244 0.951 . S
C269 C267 1.388 . S
C269 C270 1.366 . S
C270 C269 1.366 . S
C270 C271 1.414 . S
C270 C273 1.499 . S
C271 H245 0.950 . S
C271 C270 1.414 . S
C271 C272 1.374 . S
C272 H246 0.950 . S
C272 C268 1.385 . S
C272 C271 1.374 . S
C273 C270 1.499 . S
C273 C274 1.373 . S
C273 C275 1.389 . S
C274 H247 0.950 . S
C274 C260 1.377 . S
C274 C273 1.373 . S
C275 C259 1.377 . S
C275 C273 1.389 . S
C275 C276 1.524 . S
C276 C275 1.524 . S
C276 C277 1.397 . S
C276 C281 1.363 . S
C277 H248 0.950 . S
C277 C276 1.397 . S
C277 C278 1.334 . S
C278 H249 0.950 . S
C278 C277 1.334 . S
C278 C279 1.287 . S
C279 C278 1.287 . S
C279 C280 1.524 . S
C279 H282 0.999 . S
C280 H250 0.950 . S
C280 C279 1.524 . S
C280 C281 1.415 . S
C281 H251 0.950 . S
C281 C276 1.363 . S
C281 C280 1.415 . S
H282 C279 0.999 . S
H283 C264 0.913 . S
H284 C302 0.951 . S
H285 C304 0.951 . S
H286 C306 0.950 . S
H287 C307 0.950 . S
H288 C309 0.950 . S
H289 C312 0.950 . S
H290 C313 0.950 . S
H291 C315 0.950 . S
H292 C316 0.950 . S
H293 C317 0.951 . S
H294 C319 0.951 . S
H295 C321 0.950 . S
H296 C322 0.950 . S
H297 C324 0.950 . S
H298 C327 0.950 . S
H299 C328 0.950 . S
H300 C330 0.950 . S
H301 C331 0.950 . S
C302 H284 0.951 . S
C302 C303 1.366 . S
C302 C304 1.388 . S
C303 C302 1.366 . S
C303 C307 1.385 . S
C304 H285 0.951 . S
C304 C302 1.388 . S
C304 C305 1.366 . S
C305 C304 1.366 . S
C305 C306 1.414 . S
C305 C308 1.499 . S
C306 H286 0.950 . S
C306 C305 1.414 . S
C306 C307 1.374 . S
C307 H287 0.950 . S
C307 C303 1.385 . S
C307 C306 1.374 . S
C308 C305 1.499 . S
C308 C309 1.373 . S
C308 C310 1.389 . S
C309 H288 0.950 . S
C309 C308 1.373 . S
C309 C325 1.377 . S
C310 C308 1.389 . S
C310 C311 1.524 . S
C310 C324 1.377 . S
C311 C310 1.524 . S
C311 C312 1.397 . S
C311 C316 1.363 . S
C312 H289 0.950 . S
C312 C311 1.397 . S
C312 C313 1.334 . S
C313 H290 0.950 . S
C313 C312 1.334 . S
C313 C314 1.287 . S
C314 C313 1.287 . S
C314 C315 1.524 . S
C314 H333 0.913 . S
C315 H291 0.950 . S
C315 C314 1.524 . S
C315 C316 1.415 . S
C316 H292 0.950 . S
C316 C311 1.363 . S
C316 C315 1.415 . S
C317 H293 0.951 . S
C317 C318 1.366 . S
C317 C319 1.388 . S
C318 C317 1.366 . S
C318 C322 1.385 . S
C319 H294 0.951 . S
C319 C317 1.388 . S
C319 C320 1.366 . S
C320 C319 1.366 . S
C320 C321 1.414 . S
C320 C323 1.499 . S
C321 H295 0.950 . S
C321 C320 1.414 . S
C321 C322 1.374 . S
C322 H296 0.950 . S
C322 C318 1.385 . S
C322 C321 1.374 . S
C323 C320 1.499 . S
C323 C324 1.373 . S
C323 C325 1.389 . S
C324 H297 0.950 . S
C324 C310 1.377 . S
C324 C323 1.373 . S
C325 C309 1.377 . S
C325 C323 1.389 . S
C325 C326 1.524 . S
C326 C325 1.524 . S
C326 C327 1.397 . S
C326 C331 1.363 . S
C327 H298 0.950 . S
C327 C326 1.397 . S
C327 C328 1.334 . S
C328 H299 0.950 . S
C328 C327 1.334 . S
C328 C329 1.287 . S
C329 C328 1.287 . S
C329 C330 1.524 . S
C329 H332 0.999 . S
C330 H300 0.950 . S
C330 C329 1.524 . S
C330 C331 1.415 . S
C331 H301 0.950 . S
C331 C326 1.363 . S
C331 C330 1.415 . S
H332 C329 0.999 . S
H333 C314 0.913 . S
H334 C352 0.951 . S
H335 C354 0.951 . S
H336 C356 0.950 . S
H337 C357 0.950 . S
H338 C359 0.950 . S
H339 C362 0.950 . S
H340 C363 0.950 . S
H341 C365 0.950 . S
H342 C366 0.950 . S
H343 C367 0.951 . S
H344 C369 0.951 . S
H345 C371 0.950 . S
H346 C372 0.950 . S
H347 C374 0.950 . S
H348 C377 0.950 . S
H349 C378 0.950 . S
H350 C380 0.950 . S
H351 C381 0.950 . S
C352 H334 0.951 . S
C352 C353 1.366 . S
C352 C354 1.388 . S
C353 C352 1.366 . S
C353 C357 1.385 . S
C354 H335 0.951 . S
C354 C352 1.388 . S
C354 C355 1.366 . S
C355 C354 1.366 . S
C355 C356 1.414 . S
C355 C358 1.499 . S
C356 H336 0.950 . S
C356 C355 1.414 . S
C356 C357 1.374 . S
C357 H337 0.950 . S
C357 C353 1.385 . S
C357 C356 1.374 . S
C358 C355 1.499 . S
C358 C359 1.373 . S
C358 C360 1.389 . S
C359 H338 0.950 . S
C359 C358 1.373 . S
C359 C375 1.377 . S
C360 C358 1.389 . S
C360 C361 1.524 . S
C360 C374 1.377 . S
C361 C360 1.524 . S
C361 C362 1.397 . S
C361 C366 1.363 . S
C362 H339 0.950 . S
C362 C361 1.397 . S
C362 C363 1.334 . S
C363 H340 0.950 . S
C363 C362 1.334 . S
C363 C364 1.287 . S
C364 C363 1.287 . S
C364 C365 1.524 . S
C364 H383 0.913 . S
C365 H341 0.950 . S
C365 C364 1.524 . S
C365 C366 1.415 . S
C366 H342 0.950 . S
C366 C361 1.363 . S
C366 C365 1.415 . S
C367 H343 0.951 . S
C367 C368 1.366 . S
C367 C369 1.388 . S
C368 C367 1.366 . S
C368 C372 1.385 . S
C369 H344 0.951 . S
C369 C367 1.388 . S
C369 C370 1.366 . S
C370 C369 1.366 . S
C370 C371 1.414 . S
C370 C373 1.499 . S
C371 H345 0.950 . S
C371 C370 1.414 . S
C371 C372 1.374 . S
C372 H346 0.950 . S
C372 C368 1.385 . S
C372 C371 1.374 . S
C373 C370 1.499 . S
C373 C374 1.373 . S
C373 C375 1.389 . S
C374 H347 0.950 . S
C374 C360 1.377 . S
C374 C373 1.373 . S
C375 C359 1.377 . S
C375 C373 1.389 . S
C375 C376 1.524 . S
C376 C375 1.524 . S
C376 C377 1.397 . S
C376 C381 1.363 . S
C377 H348 0.950 . S
C377 C376 1.397 . S
C377 C378 1.334 . S
C378 H349 0.950 . S
C378 C377 1.334 . S
C378 C379 1.287 . S
C379 C378 1.287 . S
C379 C380 1.524 . S
C379 H382 0.999 . S
C380 H350 0.950 . S
C380 C379 1.524 . S
C380 C381 1.415 . S
C381 H351 0.950 . S
C381 C376 1.363 . S
C381 C380 1.415 . S
H382 C379 0.999 . S
H383 C364 0.913 . S
H384 C402 0.951 . S
H385 C404 0.951 . S
H386 C406 0.950 . S
H387 C407 0.950 . S
H388 C409 0.950 . S
H389 C412 0.950 . S
H390 C413 0.950 . S
H391 C415 0.950 . S
H392 C416 0.950 . S
H393 C417 0.951 . S
H394 C419 0.951 . S
H395 C421 0.950 . S
H396 C422 0.950 . S
H397 C424 0.950 . S
H398 C427 0.950 . S
H399 C428 0.950 . S
H400 C430 0.950 . S
H401 C431 0.950 . S
C402 H384 0.951 . S
C402 C403 1.366 . S
C402 C404 1.388 . S
C403 C402 1.366 . S
C403 C407 1.385 . S
C404 H385 0.951 . S
C404 C402 1.388 . S
C404 C405 1.366 . S
C405 C404 1.366 . S
C405 C406 1.414 . S
C405 C408 1.499 . S
C406 H386 0.950 . S
C406 C405 1.414 . S
C406 C407 1.374 . S
C407 H387 0.950 . S
C407 C403 1.385 . S
C407 C406 1.374 . S
C408 C405 1.499 . S
C408 C409 1.373 . S
C408 C410 1.389 . S
C409 H388 0.950 . S
C409 C408 1.373 . S
C409 C425 1.377 . S
C410 C408 1.389 . S
C410 C411 1.524 . S
C410 C424 1.377 . S
C411 C410 1.524 . S
C411 C412 1.397 . S
C411 C416 1.363 . S
C412 H389 0.950 . S
C412 C411 1.397 . S
C412 C413 1.334 . S
C413 H390 0.950 . S
C413 C412 1.334 . S
C413 C414 1.287 . S
C414 C413 1.287 . S
C414 C415 1.524 . S
C414 H433 0.913 . S
C415 H391 0.950 . S
C415 C414 1.524 . S
C415 C416 1.415 . S
C416 H392 0.950 . S
C416 C411 1.363 . S
C416 C415 1.415 . S
C417 H393 0.951 . S
C417 C418 1.366 . S
C417 C419 1.388 . S
C418 C417 1.366 . S
C418 C422 1.385 . S
C419 H394 0.951 . S
C419 C417 1.388 . S
C419 C420 1.366 . S
C420 C419 1.366 . S
C420 C421 1.414 . S
C420 C423 1.499 . S
C421 H395 0.950 . S
C421 C420 1.414 . S
C421 C422 1.374 . S
C422 H396 0.950 . S
C422 C418 1.385 . S
C422 C421 1.374 . S
C423 C420 1.499 . S
C423 C424 1.373 . S
C423 C425 1.389 . S
C424 H397 0.950 . S
C424 C410 1.377 . S
C424 C423 1.373 . S
C425 C409 1.377 . S
C425 C423 1.389 . S
C425 C426 1.524 . S
C426 C425 1.524 . S
C426 C427 1.397 . S
C426 C431 1.363 . S
C427 H398 0.950 . S
C427 C426 1.397 . S
C427 C428 1.334 . S
C428 H399 0.950 . S
C428 C427 1.334 . S
C428 C429 1.287 . S
C429 C428 1.287 . S
C429 C430 1.524 . S
C429 H432 0.999 . S
C430 H400 0.950 . S
C430 C429 1.524 . S
C430 C431 1.415 . S
C431 H401 0.950 . S
C431 C426 1.363 . S
C431 C430 1.415 . S
H432 C429 0.999 . S
H433 C414 0.913 . S
H434 C452 0.951 . S
H435 C454 0.951 . S
H436 C456 0.950 . S
H437 C457 0.950 . S
H438 C459 0.950 . S
H439 C462 0.950 . S
H440 C463 0.950 . S
H441 C465 0.950 . S
H442 C466 0.950 . S
H443 C467 0.951 . S
H444 C469 0.951 . S
H445 C471 0.950 . S
H446 C472 0.950 . S
H447 C474 0.950 . S
H448 C477 0.950 . S
H449 C478 0.950 . S
H450 C480 0.950 . S
H451 C481 0.950 . S
C452 H434 0.951 . S
C452 C453 1.366 . S
C452 C454 1.388 . S
C453 C452 1.366 . S
C453 C457 1.385 . S
C454 H435 0.951 . S
C454 C452 1.388 . S
C454 C455 1.366 . S
C455 C454 1.366 . S
C455 C456 1.414 . S
C455 C458 1.499 . S
C456 H436 0.950 . S
C456 C455 1.414 . S
C456 C457 1.374 . S
C457 H437 0.950 . S
C457 C453 1.385 . S
C457 C456 1.374 . S
C458 C455 1.499 . S
C458 C459 1.373 . S
C458 C460 1.389 . S
C459 H438 0.950 . S
C459 C458 1.373 . S
C459 C475 1.377 . S
C460 C458 1.389 . S
C460 C461 1.524 . S
C460 C474 1.377 . S
C461 C460 1.524 . S
C461 C462 1.397 . S
C461 C466 1.363 . S
C462 H439 0.950 . S
C462 C461 1.397 . S
C462 C463 1.334 . S
C463 H440 0.950 . S
C463 C462 1.334 . S
C463 C464 1.287 . S
C464 C463 1.287 . S
C464 C465 1.524 . S
C464 H483 0.913 . S
C465 H441 0.950 . S
C465 C464 1.524 . S
C465 C466 1.415 . S
C466 H442 0.950 . S
C466 C461 1.363 . S
C466 C465 1.415 . S
C467 H443 0.951 . S
C467 C468 1.366 . S
C467 C469 1.388 . S
C468 C467 1.366 . S
C468 C472 1.385 . S
C469 H444 0.951 . S
C469 C467 1.388 . S
C469 C470 1.366 . S
C470 C469 1.366 . S
C470 C471 1.414 . S
C470 C473 1.499 . S
C471 H445 0.950 . S
C471 C470 1.414 . S
C471 C472 1.374 . S
C472 H446 0.950 . S
C472 C468 1.385 . S
C472 C471 1.374 . S
C473 C470 1.499 . S
C473 C474 1.373 . S
C473 C475 1.389 . S
C474 H447 0.950 . S
C474 C460 1.377 . S
C474 C473 1.373 . S
C475 C459 1.377 . S
C475 C473 1.389 . S
C475 C476 1.524 . S
C476 C475 1.524 . S
C476 C477 1.397 . S
C476 C481 1.363 . S
C477 H448 0.950 . S
C477 C476 1.397 . S
C477 C478 1.334 . S
C478 H449 0.950 . S
C478 C477 1.334 . S
C478 C479 1.287 . S
C479 C478 1.287 . S
C479 C480 1.524 . S
C479 H482 0.999 . S
C480 H450 0.950 . S
C480 C479 1.524 . S
C480 C481 1.415 . S
C481 H451 0.950 . S
C481 C476 1.363 . S
C481 C480 1.415 . S
H482 C479 0.999 . S
H483 C464 0.913 . S
H484 C502 0.951 . S
H485 C504 0.951 . S
H486 C506 0.950 . S
H487 C507 0.950 . S
H488 C509 0.950 . S
H489 C512 0.950 . S
H490 C513 0.950 . S
H491 C515 0.950 . S
H492 C516 0.950 . S
H493 C517 0.951 . S
H494 C519 0.951 . S
H495 C521 0.950 . S
H496 C522 0.950 . S
H497 C524 0.950 . S
H498 C527 0.950 . S
H499 C528 0.950 . S
H500 C530 0.950 . S
H501 C531 0.950 . S
C502 H484 0.951 . S
C502 C503 1.366 . S
C502 C504 1.388 . S
C503 C502 1.366 . S
C503 C507 1.385 . S
C504 H485 0.951 . S
C504 C502 1.388 . S
C504 C505 1.366 . S
C505 C504 1.366 . S
C505 C506 1.414 . S
C505 C508 1.499 . S
C506 H486 0.950 . S
C506 C505 1.414 . S
C506 C507 1.374 . S
C507 H487 0.950 . S
C507 C503 1.385 . S
C507 C506 1.374 . S
C508 C505 1.499 . S
C508 C509 1.373 . S
C508 C510 1.389 . S
C509 H488 0.950 . S
C509 C508 1.373 . S
C509 C525 1.377 . S
C510 C508 1.389 . S
C510 C511 1.524 . S
C510 C524 1.377 . S
C511 C510 1.524 . S
C511 C512 1.397 . S
C511 C516 1.363 . S
C512 H489 0.950 . S
C512 C511 1.397 . S
C512 C513 1.334 . S
C513 H490 0.950 . S
C513 C512 1.334 . S
C513 C514 1.287 . S
C514 C513 1.287 . S
C514 C515 1.524 . S
C514 H533 0.913 . S
C515 H491 0.950 . S
C515 C514 1.524 . S
C515 C516 1.415 . S
C516 H492 0.950 . S
C516 C511 1.363 . S
C516 C515 1.415 . S
C517 H493 0.951 . S
C517 C518 1.366 . S
C517 C519 1.388 . S
C518 C517 1.366 . S
C518 C522 1.385 . S
C519 H494 0.951 . S
C519 C517 1.388 . S
C519 C520 1.366 . S
C520 C519 1.366 . S
C520 C521 1.414 . S
C520 C523 1.499 . S
C521 H495 0.950 . S
C521 C520 1.414 . S
C521 C522 1.374 . S
C522 H496 0.950 . S
C522 C518 1.385 . S
C522 C521 1.374 . S
C523 C520 1.499 . S
C523 C524 1.373 . S
C523 C525 1.389 . S
C524 H497 0.950 . S
C524 C510 1.377 . S
C524 C523 1.373 . S
C525 C509 1.377 . S
C525 C523 1.389 . S
C525 C526 1.524 . S
C526 C525 1.524 . S
C526 C527 1.397 . S
C526 C531 1.363 . S
C527 H498 0.950 . S
C527 C526 1.397 . S
C527 C528 1.334 . S
C528 H499 0.950 . S
C528 C527 1.334 . S
C528 C529 1.287 . S
C529 C528 1.287 . S
C529 C530 1.524 . S
C529 H532 0.999 . S
C530 H500 0.950 . S
C530 C529 1.524 . S
C530 C531 1.415 . S
C531 H501 0.950 . S
C531 C526 1.363 . S
C531 C530 1.415 . S
H532 C529 0.999 . S
H533 C514 0.913 . S
H534 C552 0.951 . S
H535 C554 0.951 . S
H536 C556 0.950 . S
H537 C557 0.950 . S
H538 C559 0.950 . S
H539 C562 0.950 . S
H540 C563 0.950 . S
H541 C565 0.950 . S
H542 C566 0.950 . S
H543 C567 0.951 . S
H544 C569 0.951 . S
H545 C571 0.950 . S
H546 C572 0.950 . S
H547 C574 0.950 . S
H548 C577 0.950 . S
H549 C578 0.950 . S
H550 C580 0.950 . S
H551 C581 0.950 . S
C552 H534 0.951 . S
C552 C553 1.366 . S
C552 C554 1.388 . S
C553 C552 1.366 . S
C553 C557 1.385 . S
C554 H535 0.951 . S
C554 C552 1.388 . S
C554 C555 1.366 . S
C555 C554 1.366 . S
C555 C556 1.414 . S
C555 C558 1.499 . S
C556 H536 0.950 . S
C556 C555 1.414 . S
C556 C557 1.374 . S
C557 H537 0.950 . S
C557 C553 1.385 . S
C557 C556 1.374 . S
C558 C555 1.499 . S
C558 C559 1.373 . S
C558 C560 1.389 . S
C559 H538 0.950 . S
C559 C558 1.373 . S
C559 C575 1.377 . S
C560 C558 1.389 . S
C560 C561 1.524 . S
C560 C574 1.377 . S
C561 C560 1.524 . S
C561 C562 1.397 . S
C561 C566 1.363 . S
C562 H539 0.950 . S
C562 C561 1.397 . S
C562 C563 1.334 . S
C563 H540 0.950 . S
C563 C562 1.334 . S
C563 C564 1.287 . S
C564 C563 1.287 . S
C564 C565 1.524 . S
C564 H583 0.913 . S
C565 H541 0.950 . S
C565 C564 1.524 . S
C565 C566 1.415 . S
C566 H542 0.950 . S
C566 C561 1.363 . S
C566 C565 1.415 . S
C567 H543 0.951 . S
C567 C568 1.366 . S
C567 C569 1.388 . S
C568 C567 1.366 . S
C568 C572 1.385 . S
C569 H544 0.951 . S
C569 C567 1.388 . S
C569 C570 1.366 . S
C570 C569 1.366 . S
C570 C571 1.414 . S
C570 C573 1.499 . S
C571 H545 0.950 . S
C571 C570 1.414 . S
C571 C572 1.374 . S
C572 H546 0.950 . S
C572 C568 1.385 . S
C572 C571 1.374 . S
C573 C570 1.499 . S
C573 C574 1.373 . S
C573 C575 1.389 . S
C574 H547 0.950 . S
C574 C560 1.377 . S
C574 C573 1.373 . S
C575 C559 1.377 . S
C575 C573 1.389 . S
C575 C576 1.524 . S
C576 C575 1.524 . S
C576 C577 1.397 . S
C576 C581 1.363 . S
C577 H548 0.950 . S
C577 C576 1.397 . S
C577 C578 1.334 . S
C578 H549 0.950 . S
C578 C577 1.334 . S
C578 C579 1.287 . S
C579 C578 1.287 . S
C579 C580 1.524 . S
C579 H582 0.999 . S
C580 H550 0.950 . S
C580 C579 1.524 . S
C580 C581 1.415 . S
C581 H551 0.950 . S
C581 C576 1.363 . S
C581 C580 1.415 . S
H582 C579 0.999 . S
H583 C564 0.913 . S
H584 C602 0.951 . S
H585 C604 0.951 . S
H586 C606 0.950 . S
H587 C607 0.950 . S
H588 C609 0.950 . S
H589 C612 0.950 . S
H590 C613 0.950 . S
H591 C615 0.950 . S
H592 C616 0.950 . S
H593 C617 0.951 . S
H594 C619 0.951 . S
H595 C621 0.950 . S
H596 C622 0.950 1_455 S
H597 C624 0.950 . S
H598 C627 0.950 . S
H599 C628 0.951 1_455 S
H600 C630 0.950 . S
H601 C631 0.950 . S
C602 H584 0.951 . S
C602 C603 1.366 . S
C602 C604 1.388 . S
C603 C602 1.366 . S
C603 C607 1.385 . S
C604 H585 0.951 . S
C604 C602 1.388 . S
C604 C605 1.366 . S
C605 C604 1.366 . S
C605 C606 1.414 . S
C605 C608 1.499 . S
C606 H586 0.950 . S
C606 C605 1.414 . S
C606 C607 1.374 . S
C607 H587 0.950 . S
C607 C603 1.385 . S
C607 C606 1.374 . S
C608 C605 1.499 . S
C608 C609 1.373 . S
C608 C610 1.389 . S
C609 H588 0.950 . S
C609 C608 1.373 . S
C609 C625 1.377 . S
C610 C608 1.389 . S
C610 C611 1.524 . S
C610 C624 1.377 . S
C611 C610 1.524 . S
C611 C612 1.397 . S
C611 C616 1.363 . S
C612 H589 0.950 . S
C612 C611 1.397 . S
C612 C613 1.334 . S
C613 H590 0.950 . S
C613 C612 1.334 . S
C613 C614 1.287 . S
C614 C613 1.287 . S
C614 C615 1.524 . S
C614 H633 0.913 . S
C615 H591 0.950 . S
C615 C614 1.524 . S
C615 C616 1.415 . S
C616 H592 0.950 . S
C616 C611 1.363 . S
C616 C615 1.415 . S
C617 H593 0.951 . S
C617 C618 1.366 . S
C617 C619 1.388 1_455 S
C618 C617 1.366 . S
C618 C622 1.385 1_455 S
C619 H594 0.951 . S
C619 C617 1.388 1_655 S
C619 C620 1.366 . S
C620 C619 1.366 . S
C620 C621 1.414 . S
C620 C623 1.499 . S
C621 H595 0.950 . S
C621 C620 1.414 . S
C621 C622 1.374 . S
C622 H596 0.950 1_655 S
C622 C618 1.385 1_655 S
C622 C621 1.374 . S
C623 C620 1.499 . S
C623 C624 1.373 . S
C623 C625 1.389 . S
C624 H597 0.950 . S
C624 C610 1.377 . S
C624 C623 1.373 . S
C625 C609 1.377 . S
C625 C623 1.389 . S
C625 C626 1.524 . S
C626 C625 1.524 . S
C626 C627 1.397 . S
C626 C631 1.363 . S
C627 H598 0.950 . S
C627 C626 1.397 . S
C627 C628 1.334 . S
C628 H599 0.951 1_655 S
C628 C627 1.334 . S
C628 C629 1.270 . S
C629 C628 1.270 . S
C629 C630 1.552 . S
C629 H632 0.987 1_655 S
C630 H600 0.950 . S
C630 C629 1.552 . S
C630 C631 1.415 . S
C631 H601 0.950 . S
C631 C626 1.363 . S
C631 C630 1.415 . S
H632 C629 0.987 1_455 S
H633 C614 0.913 . S
H634 C652 0.951 . S
H635 C654 0.951 . S
H636 C656 0.950 . S
H637 C657 0.950 . S
H638 C659 0.950 . S
H639 C662 0.950 . S
H640 C663 0.950 . S
H641 C665 0.950 . S
H642 C666 0.950 . S
H643 C667 0.951 . S
H644 C669 0.951 . S
H645 C671 0.950 . S
H646 C672 0.950 . S
H647 C674 0.950 . S
H648 C677 0.950 . S
H649 C678 0.950 . S
H650 C680 0.950 . S
H651 C681 0.950 . S
C652 H634 0.951 . S
C652 C653 1.366 . S
C652 C654 1.388 . S
C653 C652 1.366 . S
C653 C657 1.385 . S
C654 H635 0.951 . S
C654 C652 1.388 . S
C654 C655 1.366 . S
C655 C654 1.366 . S
C655 C656 1.414 . S
C655 C658 1.499 . S
C656 H636 0.950 . S
C656 C655 1.414 . S
C656 C657 1.374 . S
C657 H637 0.950 . S
C657 C653 1.385 . S
C657 C656 1.374 . S
C658 C655 1.499 . S
C658 C659 1.373 . S
C658 C660 1.389 . S
C659 H638 0.950 . S
C659 C658 1.373 . S
C659 C675 1.377 . S
C660 C658 1.389 . S
C660 C661 1.524 . S
C660 C674 1.377 . S
C661 C660 1.524 . S
C661 C662 1.397 . S
C661 C666 1.363 . S
C662 H639 0.950 . S
C662 C661 1.397 . S
C662 C663 1.334 . S
C663 H640 0.950 . S
C663 C662 1.334 . S
C663 C664 1.287 . S
C664 C663 1.287 . S
C664 C665 1.524 . S
C664 H683 0.913 . S
C665 H641 0.950 . S
C665 C664 1.524 . S
C665 C666 1.415 . S
C666 H642 0.950 . S
C666 C661 1.363 . S
C666 C665 1.415 . S
C667 H643 0.951 . S
C667 C668 1.366 . S
C667 C669 1.388 1_545 S
C668 C667 1.366 . S
C668 C672 1.385 1_545 S
C669 H644 0.951 . S
C669 C667 1.388 1_565 S
C669 C670 1.366 . S
C670 C669 1.366 . S
C670 C671 1.414 . S
C670 C673 1.499 . S
C671 H645 0.950 . S
C671 C670 1.414 . S
C671 C672 1.374 . S
C672 H646 0.950 . S
C672 C668 1.385 1_565 S
C672 C671 1.374 . S
C673 C670 1.499 . S
C673 C674 1.373 . S
C673 C675 1.389 . S
C674 H647 0.950 . S
C674 C660 1.377 . S
C674 C673 1.373 . S
C675 C659 1.377 . S
C675 C673 1.389 . S
C675 C676 1.524 . S
C676 C675 1.524 . S
C676 C677 1.397 . S
C676 C681 1.363 . S
C677 H648 0.950 . S
C677 C676 1.397 . S
C677 C678 1.334 . S
C678 H649 0.950 . S
C678 C677 1.334 . S
C678 C679 1.287 . S
C679 C678 1.287 . S
C679 C680 1.524 . S
C679 H682 0.999 . S
C680 H650 0.950 . S
C680 C679 1.524 . S
C680 C681 1.415 . S
C681 H651 0.950 . S
C681 C676 1.363 . S
C681 C680 1.415 . S
H682 C679 0.999 . S
H683 C664 0.913 . S
H684 C702 0.951 . S
H685 C704 0.951 . S
H686 C706 0.950 . S
H687 C707 0.950 . S
H688 C709 0.950 . S
H689 C712 0.950 . S
H690 C713 0.950 . S
H691 C715 0.950 . S
H692 C716 0.950 . S
H693 C717 0.951 . S
H694 C719 0.951 . S
H695 C721 0.950 . S
H696 C722 0.950 . S
H697 C724 0.950 . S
H698 C727 0.950 . S
H699 C728 0.950 . S
H700 C730 0.950 . S
H701 C731 0.950 . S
C702 H684 0.951 . S
C702 C703 1.366 . S
C702 C704 1.388 . S
C703 C702 1.366 . S
C703 C707 1.385 . S
C704 H685 0.951 . S
C704 C702 1.388 . S
C704 C705 1.366 . S
C705 C704 1.366 . S
C705 C706 1.414 . S
C705 C708 1.499 . S
C706 H686 0.950 . S
C706 C705 1.414 . S
C706 C707 1.374 . S
C707 H687 0.950 . S
C707 C703 1.385 . S
C707 C706 1.374 . S
C708 C705 1.499 . S
C708 C709 1.373 . S
C708 C710 1.389 . S
C709 H688 0.950 . S
C709 C708 1.373 . S
C709 C725 1.377 . S
C710 C708 1.389 . S
C710 C711 1.524 . S
C710 C724 1.377 . S
C711 C710 1.524 . S
C711 C712 1.397 . S
C711 C716 1.363 . S
C712 H689 0.950 . S
C712 C711 1.397 . S
C712 C713 1.334 . S
C713 H690 0.950 . S
C713 C712 1.334 . S
C713 C714 1.287 . S
C714 C713 1.287 . S
C714 C715 1.524 . S
C714 H733 0.913 . S
C715 H691 0.950 . S
C715 C714 1.524 . S
C715 C716 1.415 . S
C716 H692 0.950 . S
C716 C711 1.363 . S
C716 C715 1.415 . S
C717 H693 0.951 . S
C717 C718 1.366 . S
C717 C719 1.388 . S
C718 C717 1.366 . S
C718 C722 1.385 . S
C719 H694 0.951 . S
C719 C717 1.388 . S
C719 C720 1.366 . S
C720 C719 1.366 . S
C720 C721 1.414 . S
C720 C723 1.499 . S
C721 H695 0.950 . S
C721 C720 1.414 . S
C721 C722 1.374 . S
C722 H696 0.950 . S
C722 C718 1.385 . S
C722 C721 1.374 . S
C723 C720 1.499 . S
C723 C724 1.373 . S
C723 C725 1.389 . S
C724 H697 0.950 . S
C724 C710 1.377 . S
C724 C723 1.373 . S
C725 C709 1.377 . S
C725 C723 1.389 . S
C725 C726 1.524 . S
C726 C725 1.524 . S
C726 C727 1.397 . S
C726 C731 1.363 . S
C727 H698 0.950 . S
C727 C726 1.397 . S
C727 C728 1.334 . S
C728 H699 0.950 . S
C728 C727 1.334 . S
C728 C729 1.287 . S
C729 C728 1.287 . S
C729 C730 1.524 . S
C729 H732 0.999 . S
C730 H700 0.950 . S
C730 C729 1.524 . S
C730 C731 1.415 . S
C731 H701 0.950 . S
C731 C726 1.363 . S
C731 C730 1.415 . S
H732 C729 0.999 . S
H733 C714 0.913 . S
H734 C752 0.951 . S
H735 C754 0.951 . S
H736 C756 0.950 . S
H737 C757 0.950 . S
H738 C759 0.950 . S
H739 C762 0.950 . S
H740 C763 0.950 . S
H741 C765 0.950 . S
H742 C766 0.950 . S
H743 C767 0.951 . S
H744 C769 0.951 . S
H745 C771 0.950 . S
H746 C772 0.950 . S
H747 C774 0.950 . S
H748 C777 0.950 . S
H749 C778 0.950 . S
H750 C780 0.950 . S
H751 C781 0.950 . S
C752 H734 0.951 . S
C752 C753 1.366 . S
C752 C754 1.388 . S
C753 C752 1.366 . S
C753 C757 1.385 . S
C754 H735 0.951 . S
C754 C752 1.388 . S
C754 C755 1.366 . S
C755 C754 1.366 . S
C755 C756 1.414 . S
C755 C758 1.499 . S
C756 H736 0.950 . S
C756 C755 1.414 . S
C756 C757 1.374 . S
C757 H737 0.950 . S
C757 C753 1.385 . S
C757 C756 1.374 . S
C758 C755 1.499 . S
C758 C759 1.373 . S
C758 C760 1.389 . S
C759 H738 0.950 . S
C759 C758 1.373 . S
C759 C775 1.377 . S
C760 C758 1.389 . S
C760 C761 1.524 . S
C760 C774 1.377 . S
C761 C760 1.524 . S
C761 C762 1.397 . S
C761 C766 1.363 . S
C762 H739 0.950 . S
C762 C761 1.397 . S
C762 C763 1.334 . S
C763 H740 0.950 . S
C763 C762 1.334 . S
C763 C764 1.287 . S
C764 C763 1.287 . S
C764 C765 1.524 . S
C764 H783 0.913 . S
C765 H741 0.950 . S
C765 C764 1.524 . S
C765 C766 1.415 . S
C766 H742 0.950 . S
C766 C761 1.363 . S
C766 C765 1.415 . S
C767 H743 0.951 . S
C767 C768 1.366 . S
C767 C769 1.388 . S
C768 C767 1.366 . S
C768 C772 1.385 . S
C769 H744 0.951 . S
C769 C767 1.388 . S
C769 C770 1.366 . S
C770 C769 1.366 . S
C770 C771 1.414 . S
C770 C773 1.499 . S
C771 H745 0.950 . S
C771 C770 1.414 . S
C771 C772 1.374 . S
C772 H746 0.950 . S
C772 C768 1.385 . S
C772 C771 1.374 . S
C773 C770 1.499 . S
C773 C774 1.373 . S
C773 C775 1.389 . S
C774 H747 0.950 . S
C774 C760 1.377 . S
C774 C773 1.373 . S
C775 C759 1.377 . S
C775 C773 1.389 . S
C775 C776 1.524 . S
C776 C775 1.524 . S
C776 C777 1.397 . S
C776 C781 1.363 . S
C777 H748 0.950 . S
C777 C776 1.397 . S
C777 C778 1.334 . S
C778 H749 0.950 . S
C778 C777 1.334 . S
C778 C779 1.287 . S
C779 C778 1.287 . S
C779 C780 1.524 . S
C779 H782 0.999 . S
C780 H750 0.950 . S
C780 C779 1.524 . S
C780 C781 1.415 . S
C781 H751 0.950 . S
C781 C776 1.363 . S
C781 C780 1.415 . S
H782 C779 0.999 . S
H783 C764 0.913 . S
H784 C802 0.951 . S
H785 C804 0.951 . S
H786 C806 0.950 . S
H787 C807 0.950 . S
H788 C809 0.950 . S
H789 C812 0.950 . S
H790 C813 0.950 . S
H791 C815 0.950 . S
H792 C816 0.950 . S
H793 C817 0.951 . S
H794 C819 0.951 . S
H795 C821 0.950 . S
H796 C822 0.950 . S
H797 C824 0.950 . S
H798 C827 0.950 . S
H799 C828 0.950 . S
H800 C830 0.950 . S
H801 C831 0.950 . S
C802 H784 0.951 . S
C802 C803 1.366 . S
C802 C804 1.388 . S
C803 C802 1.366 . S
C803 C807 1.385 . S
C804 H785 0.951 . S
C804 C802 1.388 . S
C804 C805 1.366 . S
C805 C804 1.366 . S
C805 C806 1.414 . S
C805 C808 1.499 . S
C806 H786 0.950 . S
C806 C805 1.414 . S
C806 C807 1.374 . S
C807 H787 0.950 . S
C807 C803 1.385 . S
C807 C806 1.374 . S
C808 C805 1.499 . S
C808 C809 1.373 . S
C808 C810 1.389 . S
C809 H788 0.950 . S
C809 C808 1.373 . S
C809 C825 1.377 . S
C810 C808 1.389 . S
C810 C811 1.524 . S
C810 C824 1.377 . S
C811 C810 1.524 . S
C811 C812 1.397 . S
C811 C816 1.363 . S
C812 H789 0.950 . S
C812 C811 1.397 . S
C812 C813 1.334 . S
C813 H790 0.950 . S
C813 C812 1.334 . S
C813 C814 1.287 . S
C814 C813 1.287 . S
C814 C815 1.524 . S
C814 H833 0.913 . S
C815 H791 0.950 . S
C815 C814 1.524 . S
C815 C816 1.415 . S
C816 H792 0.950 . S
C816 C811 1.363 . S
C816 C815 1.415 . S
C817 H793 0.951 . S
C817 C818 1.366 . S
C817 C819 1.388 . S
C818 C817 1.366 . S
C818 C822 1.385 . S
C819 H794 0.951 . S
C819 C817 1.388 . S
C819 C820 1.366 . S
C820 C819 1.366 . S
C820 C821 1.414 . S
C820 C823 1.499 . S
C821 H795 0.950 . S
C821 C820 1.414 . S
C821 C822 1.374 . S
C822 H796 0.950 . S
C822 C818 1.385 . S
C822 C821 1.374 . S
C823 C820 1.499 . S
C823 C824 1.373 . S
C823 C825 1.389 . S
C824 H797 0.950 . S
C824 C810 1.377 . S
C824 C823 1.373 . S
C825 C809 1.377 . S
C825 C823 1.389 . S
C825 C826 1.524 . S
C826 C825 1.524 . S
C826 C827 1.397 . S
C826 C831 1.363 . S
C827 H798 0.950 . S
C827 C826 1.397 . S
C827 C828 1.334 . S
C828 H799 0.950 . S
C828 C827 1.334 . S
C828 C829 1.287 . S
C829 C828 1.287 . S
C829 C830 1.524 . S
C829 H832 0.999 . S
C830 H800 0.950 . S
C830 C829 1.524 . S
C830 C831 1.415 . S
C831 H801 0.950 . S
C831 C826 1.363 . S
C831 C830 1.415 . S
H832 C829 0.999 . S
H833 C814 0.913 . S
H834 C852 0.951 . S
H835 C854 0.951 . S
H836 C856 0.950 . S
H837 C857 0.950 . S
H838 C859 0.950 . S
H839 C862 0.950 . S
H840 C863 0.950 . S
H841 C865 0.950 . S
H842 C866 0.950 . S
H843 C867 0.951 . S
H844 C869 0.951 . S
H845 C871 0.950 1_655 S
H846 C872 0.950 . S
H847 C874 0.950 . S
H848 C877 0.950 . S
H849 C878 0.950 . S
H850 C880 0.950 . S
H851 C881 0.950 . S
C852 H834 0.951 . S
C852 C853 1.366 1_655 S
C852 C854 1.388 . S
C853 C852 1.366 1_455 S
C853 C857 1.385 . S
C854 H835 0.951 . S
C854 C852 1.388 . S
C854 C855 1.366 1_655 S
C855 C854 1.366 1_455 S
C855 C856 1.414 . S
C855 C858 1.499 . S
C856 H836 0.950 . S
C856 C855 1.414 . S
C856 C857 1.374 . S
C857 H837 0.950 . S
C857 C853 1.385 . S
C857 C856 1.374 . S
C858 C855 1.499 . S
C858 C859 1.373 . S
C858 C860 1.389 . S
C859 H838 0.950 . S
C859 C858 1.373 . S
C859 C875 1.377 . S
C860 C858 1.389 . S
C860 C861 1.524 . S
C860 C874 1.377 1_554 S
C861 C860 1.524 . S
C861 C862 1.397 . S
C861 C866 1.363 1_455 S
C862 H839 0.950 . S
C862 C861 1.397 . S
C862 C863 1.334 . S
C863 H840 0.950 . S
C863 C862 1.334 . S
C863 C864 1.287 1_455 S
C864 C863 1.287 1_655 S
C864 C865 1.524 . S
C864 H883 0.913 . S
C865 H841 0.950 . S
C865 C864 1.524 . S
C865 C866 1.415 . S
C866 H842 0.950 . S
C866 C861 1.363 1_655 S
C866 C865 1.415 . S
C867 H843 0.951 . S
C867 C868 1.366 . S
C867 C869 1.388 . S
C868 C867 1.366 . S
C868 C872 1.385 . S
C869 H844 0.951 . S
C869 C867 1.388 . S
C869 C870 1.366 . S
C870 C869 1.366 . S
C870 C871 1.414 . S
C870 C873 1.499 . S
C871 H845 0.950 1_455 S
C871 C870 1.414 . S
C871 C872 1.374 . S
C872 H846 0.950 . S
C872 C868 1.385 . S
C872 C871 1.374 . S
C873 C870 1.499 . S
C873 C874 1.373 . S
C873 C875 1.389 1_556 S
C874 H847 0.950 . S
C874 C860 1.377 1_556 S
C874 C873 1.373 . S
C875 C859 1.377 . S
C875 C873 1.389 1_554 S
C875 C876 1.524 1_554 S
C876 C875 1.524 1_556 S
C876 C877 1.397 . S
C876 C881 1.363 1_556 S
C877 H848 0.950 . S
C877 C876 1.397 . S
C877 C878 1.334 . S
C878 H849 0.950 . S
C878 C877 1.334 . S
C878 C879 1.287 . S
C879 C878 1.287 . S
C879 C880 1.524 . S
C879 H882 0.999 . S
C880 H850 0.950 . S
C880 C879 1.524 . S
C880 C881 1.415 1_556 S
C881 H851 0.950 . S
C881 C876 1.363 1_554 S
C881 C880 1.415 1_554 S
H882 C879 0.999 . S
H883 C864 0.913 . S
H884 C902 0.951 . S
H885 C904 0.951 . S
H886 C906 0.950 . S
H887 C907 0.950 . S
H888 C909 0.950 1_565 S
H889 C912 0.950 . S
H890 C913 0.950 . S
H891 C915 0.950 . S
H892 C916 0.950 . S
H893 C917 0.951 . S
H894 C919 0.951 . S
H895 C921 0.950 . S
H896 C922 0.950 . S
H897 C924 0.950 . S
H898 C927 0.950 . S
H899 C928 0.950 . S
H900 C930 0.950 . S
H901 C931 0.950 . S
C902 H884 0.951 . S
C902 C903 1.366 . S
C902 C904 1.388 . S
C903 C902 1.366 . S
C903 C907 1.385 . S
C904 H885 0.951 . S
C904 C902 1.388 . S
C904 C905 1.366 . S
C905 C904 1.366 . S
C905 C906 1.414 . S
C905 C908 1.499 . S
C906 H886 0.950 . S
C906 C905 1.414 . S
C906 C907 1.374 . S
C907 H887 0.950 . S
C907 C903 1.385 . S
C907 C906 1.374 . S
C908 C905 1.499 . S
C908 C909 1.373 . S
C908 C910 1.389 . S
C909 H888 0.950 1_545 S
C909 C908 1.373 . S
C909 C925 1.377 . S
C910 C908 1.389 . S
C910 C911 1.524 . S
C910 C924 1.377 . S
C911 C910 1.524 . S
C911 C912 1.397 . S
C911 C916 1.363 . S
C912 H889 0.950 . S
C912 C911 1.397 . S
C912 C913 1.334 . S
C913 H890 0.950 . S
C913 C912 1.334 . S
C913 C914 1.287 . S
C914 C913 1.287 . S
C914 C915 1.524 . S
C914 H933 0.913 . S
C915 H891 0.950 . S
C915 C914 1.524 . S
C915 C916 1.415 . S
C916 H892 0.950 . S
C916 C911 1.363 . S
C916 C915 1.415 . S
C917 H893 0.951 . S
C917 C918 1.366 . S
C917 C919 1.388 . S
C918 C917 1.366 . S
C918 C922 1.385 . S
C919 H894 0.951 . S
C919 C917 1.388 . S
C919 C920 1.366 . S
C920 C919 1.366 . S
C920 C921 1.414 . S
C920 C923 1.499 . S
C921 H895 0.950 . S
C921 C920 1.414 . S
C921 C922 1.374 . S
C922 H896 0.950 . S
C922 C918 1.385 . S
C922 C921 1.374 . S
C923 C920 1.499 . S
C923 C924 1.373 . S
C923 C925 1.389 . S
C924 H897 0.950 . S
C924 C910 1.377 . S
C924 C923 1.373 . S
C925 C909 1.377 . S
C925 C923 1.389 . S
C925 C926 1.524 1_545 S
C926 C925 1.524 1_565 S
C926 C927 1.397 . S
C926 C931 1.363 . S
C927 H898 0.950 . S
C927 C926 1.397 . S
C927 C928 1.334 . S
C928 H899 0.950 . S
C928 C927 1.334 . S
C928 C929 1.287 . S
C929 C928 1.287 . S
C929 C930 1.524 . S
C929 H932 0.999 . S
C930 H900 0.950 . S
C930 C929 1.524 . S
C930 C931 1.415 . S
C931 H901 0.950 . S
C931 C926 1.363 . S
C931 C930 1.415 . S
H932 C929 0.999 . S
H933 C914 0.913 . S
H934 C952 0.951 . S
H935 C954 0.951 . S
H936 C956 0.950 . S
H937 C957 0.950 . S
H938 C959 0.950 . S
H939 C962 0.950 . S
H940 C963 0.950 . S
H941 C965 0.950 . S
H942 C966 0.950 . S
H943 C967 0.951 . S
H944 C969 0.951 . S
H945 C971 0.950 . S
H946 C972 0.950 . S
H947 C974 0.950 . S
H948 C977 0.950 . S
H949 C978 0.950 . S
H950 C980 0.950 . S
H951 C981 0.950 . S
C952 H934 0.951 . S
C952 C953 1.366 . S
C952 C954 1.388 . S
C953 C952 1.366 . S
C953 C957 1.385 . S
C954 H935 0.951 . S
C954 C952 1.388 . S
C954 C955 1.366 . S
C955 C954 1.366 . S
C955 C956 1.414 . S
C955 C958 1.499 . S
C956 H936 0.950 . S
C956 C955 1.414 . S
C956 C957 1.374 . S
C957 H937 0.950 . S
C957 C953 1.385 . S
C957 C956 1.374 . S
C958 C955 1.499 . S
C958 C959 1.373 . S
C958 C960 1.389 . S
C959 H938 0.950 . S
C959 C958 1.373 . S
C959 C975 1.377 . S
C960 C958 1.389 . S
C960 C961 1.524 . S
C960 C974 1.377 . S
C961 C960 1.524 . S
C961 C962 1.397 . S
C961 C966 1.363 . S
C962 H939 0.950 . S
C962 C961 1.397 . S
C962 C963 1.334 . S
C963 H940 0.950 . S
C963 C962 1.334 . S
C963 C964 1.287 . S
C964 C963 1.287 . S
C964 C965 1.524 . S
C964 H983 0.913 . S
C965 H941 0.950 . S
C965 C964 1.524 . S
C965 C966 1.415 . S
C966 H942 0.950 . S
C966 C961 1.363 . S
C966 C965 1.415 . S
C967 H943 0.951 . S
C967 C968 1.366 . S
C967 C969 1.388 . S
C968 C967 1.366 . S
C968 C972 1.385 . S
C969 H944 0.951 . S
C969 C967 1.388 . S
C969 C970 1.366 . S
C970 C969 1.366 . S
C970 C971 1.414 . S
C970 C973 1.499 . S
C971 H945 0.950 . S
C971 C970 1.414 . S
C971 C972 1.374 . S
C972 H946 0.950 . S
C972 C968 1.385 . S
C972 C971 1.374 . S
C973 C970 1.499 . S
C973 C974 1.373 . S
C973 C975 1.389 . S
C974 H947 0.950 . S
C974 C960 1.377 . S
C974 C973 1.373 . S
C975 C959 1.377 . S
C975 C973 1.389 . S
C975 C976 1.524 . S
C976 C975 1.524 . S
C976 C977 1.397 . S
C976 C981 1.363 . S
C977 H948 0.950 . S
C977 C976 1.397 . S
C977 C978 1.334 . S
C978 H949 0.950 . S
C978 C977 1.334 . S
C978 C979 1.287 . S
C979 C978 1.287 . S
C979 C980 1.524 . S
C979 H982 0.999 . S
C980 H950 0.950 . S
C980 C979 1.524 . S
C980 C981 1.415 . S
C981 H951 0.950 . S
C981 C976 1.363 . S
C981 C980 1.415 . S
H982 C979 0.999 . S
H983 C964 0.913 . S
H984 C1002 0.951 . S
H985 C1004 0.951 . S
H986 C1006 0.950 . S
H987 C1007 0.950 . S
H988 C1009 0.950 . S
H989 C1012 0.950 . S
H990 C1013 0.950 . S
H991 C1015 0.950 . S
H992 C1016 0.950 . S
H993 C1017 0.951 . S
H994 C1019 0.951 . S
H995 C1021 0.950 . S
H996 C1022 0.950 . S
H997 C1024 0.950 . S
H998 C1027 0.950 . S
H999 C1028 0.950 . S
H1000 C1030 0.950 . S
H1001 C1031 0.950 . S
C1002 H984 0.951 . S
C1002 C1003 1.366 . S
C1002 C1004 1.388 . S
C1003 C1002 1.366 . S
C1003 C1007 1.385 . S
C1004 H985 0.951 . S
C1004 C1002 1.388 . S
C1004 C1005 1.366 . S
C1005 C1004 1.366 . S
C1005 C1006 1.414 . S
C1005 C1008 1.499 . S
C1006 H986 0.950 . S
C1006 C1005 1.414 . S
C1006 C1007 1.374 . S
C1007 H987 0.950 . S
C1007 C1003 1.385 . S
C1007 C1006 1.374 . S
C1008 C1005 1.499 . S
C1008 C1009 1.373 . S
C1008 C1010 1.389 . S
C1009 H988 0.950 . S
C1009 C1008 1.373 . S
C1009 C1025 1.377 . S
C1010 C1008 1.389 . S
C1010 C1011 1.524 . S
C1010 C1024 1.377 . S
C1011 C1010 1.524 . S
C1011 C1012 1.397 . S
C1011 C1016 1.363 . S
C1012 H989 0.950 . S
C1012 C1011 1.397 . S
C1012 C1013 1.334 . S
C1013 H990 0.950 . S
C1013 C1012 1.334 . S
C1013 C1014 1.287 . S
C1014 C1013 1.287 . S
C1014 C1015 1.524 . S
C1014 H1033 0.913 . S
C1015 H991 0.950 . S
C1015 C1014 1.524 . S
C1015 C1016 1.415 . S
C1016 H992 0.950 . S
C1016 C1011 1.363 . S
C1016 C1015 1.415 . S
C1017 H993 0.951 . S
C1017 C1018 1.366 . S
C1017 C1019 1.388 . S
C1018 C1017 1.366 . S
C1018 C1022 1.385 . S
C1019 H994 0.951 . S
C1019 C1017 1.388 . S
C1019 C1020 1.366 . S
C1020 C1019 1.366 . S
C1020 C1021 1.414 . S
C1020 C1023 1.499 . S
C1021 H995 0.950 . S
C1021 C1020 1.414 . S
C1021 C1022 1.374 . S
C1022 H996 0.950 . S
C1022 C1018 1.385 . S
C1022 C1021 1.374 . S
C1023 C1020 1.499 . S
C1023 C1024 1.373 . S
C1023 C1025 1.389 . S
C1024 H997 0.950 . S
C1024 C1010 1.377 . S
C1024 C1023 1.373 . S
C1025 C1009 1.377 . S
C1025 C1023 1.389 . S
C1025 C1026 1.524 . S
C1026 C1025 1.524 . S
C1026 C1027 1.397 . S
C1026 C1031 1.363 . S
C1027 H998 0.950 . S
C1027 C1026 1.397 . S
C1027 C1028 1.334 . S
C1028 H999 0.950 . S
C1028 C1027 1.334 . S
C1028 C1029 1.287 . S
C1029 C1028 1.287 . S
C1029 C1030 1.524 . S
C1029 H1032 0.999 . S
C1030 H1000 0.950 . S
C1030 C1029 1.524 . S
C1030 C1031 1.415 . S
C1031 H1001 0.950 . S
C1031 C1026 1.363 . S
C1031 C1030 1.415 . S
H1032 C1029 0.999 . S
H1033 C1014 0.913 . S
H1034 C1052 0.951 . S
H1035 C1054 0.951 . S
H1036 C1056 0.950 . S
H1037 C1057 0.950 . S
H1038 C1059 0.950 . S
H1039 C1062 0.950 . S
H1040 C1063 0.950 . S
H1041 C1065 0.950 . S
H1042 C1066 0.950 . S
H1043 C1067 0.951 . S
H1044 C1069 0.951 . S
H1045 C1071 0.950 . S
H1046 C1072 0.950 . S
H1047 C1074 0.950 1_554 S
H1048 C1077 0.950 . S
H1049 C1078 0.950 . S
H1050 C1080 0.950 . S
H1051 C1081 0.950 1_556 S
C1052 H1034 0.951 . S
C1052 C1053 1.366 . S
C1052 C1054 1.388 . S
C1053 C1052 1.366 . S
C1053 C1057 1.385 . S
C1054 H1035 0.951 . S
C1054 C1052 1.388 . S
C1054 C1055 1.366 . S
C1055 C1054 1.366 . S
C1055 C1056 1.414 . S
C1055 C1058 1.499 . S
C1056 H1036 0.950 . S
C1056 C1055 1.414 . S
C1056 C1057 1.374 . S
C1057 H1037 0.950 . S
C1057 C1053 1.385 . S
C1057 C1056 1.374 . S
C1058 C1055 1.499 . S
C1058 C1059 1.373 . S
C1058 C1060 1.389 . S
C1059 H1038 0.950 . S
C1059 C1058 1.373 . S
C1059 C1075 1.377 . S
C1060 C1058 1.389 . S
C1060 C1061 1.524 . S
C1060 C1074 1.377 . S
C1061 C1060 1.524 . S
C1061 C1062 1.397 . S
C1061 C1066 1.363 . S
C1062 H1039 0.950 . S
C1062 C1061 1.397 . S
C1062 C1063 1.334 . S
C1063 H1040 0.950 . S
C1063 C1062 1.334 . S
C1063 C1064 1.287 . S
C1064 C1063 1.287 . S
C1064 C1065 1.524 . S
C1064 H1083 0.913 . S
C1065 H1041 0.950 . S
C1065 C1064 1.524 . S
C1065 C1066 1.415 . S
C1066 H1042 0.950 . S
C1066 C1061 1.363 . S
C1066 C1065 1.415 . S
C1067 H1043 0.951 . S
C1067 C1068 1.366 . S
C1067 C1069 1.388 . S
C1068 C1067 1.366 . S
C1068 C1072 1.385 . S
C1069 H1044 0.951 . S
C1069 C1067 1.388 . S
C1069 C1070 1.366 . S
C1070 C1069 1.366 . S
C1070 C1071 1.414 . S
C1070 C1073 1.499 . S
C1071 H1045 0.950 . S
C1071 C1070 1.414 . S
C1071 C1072 1.374 . S
C1072 H1046 0.950 . S
C1072 C1068 1.385 . S
C1072 C1071 1.374 . S
C1073 C1070 1.499 . S
C1073 C1074 1.373 1_554 S
C1073 C1075 1.389 1_554 S
C1074 H1047 0.950 1_556 S
C1074 C1060 1.377 . S
C1074 C1073 1.373 1_556 S
C1075 C1059 1.377 . S
C1075 C1073 1.389 1_556 S
C1075 C1076 1.524 1_556 S
C1076 C1075 1.524 1_554 S
C1076 C1077 1.397 . S
C1076 C1081 1.363 . S
C1077 H1048 0.950 . S
C1077 C1076 1.397 . S
C1077 C1078 1.334 . S
C1078 H1049 0.950 . S
C1078 C1077 1.334 . S
C1078 C1079 1.287 . S
C1079 C1078 1.287 . S
C1079 C1080 1.524 . S
C1079 H1082 0.999 . S
C1080 H1050 0.950 . S
C1080 C1079 1.524 . S
C1080 C1081 1.415 . S
C1081 H1051 0.950 1_554 S
C1081 C1076 1.363 . S
C1081 C1080 1.415 . S
H1082 C1079 0.999 . S
H1083 C1064 0.913 . S
H1084 C1102 0.951 . S
H1085 C1104 0.951 . S
H1086 C1106 0.950 . S
H1087 C1107 0.950 . S
H1088 C1109 0.950 . S
H1089 C1112 0.950 . S
H1090 C1113 0.950 . S
H1091 C1115 0.950 . S
H1092 C1116 0.950 . S
H1093 C1117 0.951 . S
H1094 C1119 0.951 . S
H1095 C1121 0.950 . S
H1096 C1122 0.950 . S
H1097 C1124 0.950 1_655 S
H1098 C1127 0.950 . S
H1099 C1128 0.950 . S
H1100 C1130 0.950 . S
H1101 C1131 0.950 . S
C1102 H1084 0.951 . S
C1102 C1103 1.366 . S
C1102 C1104 1.388 . S
C1103 C1102 1.366 . S
C1103 C1107 1.385 . S
C1104 H1085 0.951 . S
C1104 C1102 1.388 . S
C1104 C1105 1.366 . S
C1105 C1104 1.366 . S
C1105 C1106 1.414 . S
C1105 C1108 1.499 . S
C1106 H1086 0.950 . S
C1106 C1105 1.414 . S
C1106 C1107 1.374 . S
C1107 H1087 0.950 . S
C1107 C1103 1.385 . S
C1107 C1106 1.374 . S
C1108 C1105 1.499 . S
C1108 C1109 1.373 . S
C1108 C1110 1.389 . S
C1109 H1088 0.950 . S
C1109 C1108 1.373 . S
C1109 C1125 1.377 . S
C1110 C1108 1.389 . S
C1110 C1111 1.524 1_455 S
C1110 C1124 1.377 . S
C1111 C1110 1.524 1_655 S
C1111 C1112 1.397 . S
C1111 C1116 1.363 . S
C1112 H1089 0.950 . S
C1112 C1111 1.397 . S
C1112 C1113 1.334 . S
C1113 H1090 0.950 . S
C1113 C1112 1.334 . S
C1113 C1114 1.287 . S
C1114 C1113 1.287 . S
C1114 C1115 1.524 . S
C1114 H1133 0.913 . S
C1115 H1091 0.950 . S
C1115 C1114 1.524 . S
C1115 C1116 1.415 . S
C1116 H1092 0.950 . S
C1116 C1111 1.363 . S
C1116 C1115 1.415 . S
C1117 H1093 0.951 . S
C1117 C1118 1.366 . S
C1117 C1119 1.388 . S
C1118 C1117 1.366 . S
C1118 C1122 1.385 . S
C1119 H1094 0.951 . S
C1119 C1117 1.388 . S
C1119 C1120 1.366 . S
C1120 C1119 1.366 . S
C1120 C1121 1.414 . S
C1120 C1123 1.499 . S
C1121 H1095 0.950 . S
C1121 C1120 1.414 . S
C1121 C1122 1.374 . S
C1122 H1096 0.950 . S
C1122 C1118 1.385 . S
C1122 C1121 1.374 . S
C1123 C1120 1.499 . S
C1123 C1124 1.373 . S
C1123 C1125 1.389 . S
C1124 H1097 0.950 1_455 S
C1124 C1110 1.377 . S
C1124 C1123 1.373 . S
C1125 C1109 1.377 . S
C1125 C1123 1.389 . S
C1125 C1126 1.524 . S
C1126 C1125 1.524 . S
C1126 C1127 1.397 . S
C1126 C1131 1.363 . S
C1127 H1098 0.950 . S
C1127 C1126 1.397 . S
C1127 C1128 1.334 . S
C1128 H1099 0.950 . S
C1128 C1127 1.334 . S
C1128 C1129 1.287 . S
C1129 C1128 1.287 . S
C1129 C1130 1.524 . S
C1129 H1132 0.999 . S
C1130 H1100 0.950 . S
C1130 C1129 1.524 . S
C1130 C1131 1.415 . S
C1131 H1101 0.950 . S
C1131 C1126 1.363 . S
C1131 C1130 1.415 . S
H1132 C1129 0.999 . S
H1133 C1114 0.913 . S
C253 C12 3.071 . S
C268 C226 2.980 . S
C303 C52 3.066 . S
C318 C188 2.978 . S
C353 C111 3.102 . S
C368 C207 3.010 . S
C403 C31 3.008 . S
C418 C221 2.961 . S
C468 C183 2.967 . S
C453 C71 3.015 . S
C518 C202 2.918 . S
C503 C92 2.962 . S
C553 C48 0.581 . S
C568 C150 0.632 . S
C603 C109 0.255 . S
C618 C164 0.211 . S
C653 C29 0.202 . S
C668 C126 0.228 . S
C718 C145 0.256 . S
C703 C69 0.186 . S
C768 C169 0.467 . S
C753 C88 0.325 . S
C803 C8 0.394 . S
C818 C131 0.509 . S
C868 C160 1.383 . S
C853 C17 1.347 . S
C903 C57 1.313 . S
C918 C122 1.345 . S
C953 C97 1.348 . S
C968 C141 1.373 . S
C1018 C198 1.708 . S
C1003 C42 1.701 . S
C1068 C217 1.731 . S
C1053 C82 1.719 . S
C1103 C2 1.737 . S
C1118 C179 1.737 . S
