# Generated by pormake.
# Topology wbl, (4,4)-cn, num edge types: 1
# Building blocks:
#     Node 0, Type 0, BuildingBlock: NAWXER_clean_linker_0, # of connection points: 4
#     Node 1, Type 0, BuildingBlock: NAWXER_clean_linker_0, # of connection points: 4
#     Node 2, Type 0, BuildingBlock: NAWXER_clean_linker_0, # of connection points: 4
#     Node 3, Type 0, BuildingBlock: NAWXER_clean_linker_0, # of connection points: 4
#     Node 4, Type 0, BuildingBlock: NAWXER_clean_linker_0, # of connection points: 4
#     Node 5, Type 0, BuildingBlock: NAWXER_clean_linker_0, # of connection points: 4
#     Node 6, Type 0, BuildingBlock: NAWXER_clean_linker_0, # of connection points: 4
#     Node 7, Type 0, BuildingBlock: NAWXER_clean_linker_0, # of connection points: 4
#     Node 8, Type 1, BuildingBlock: TATPOV_clean_sbu_0, # of connection points: 4
#     Node 9, Type 1, BuildingBlock: TATPOV_clean_sbu_0, # of connection points: 4
#     Node 10, Type 1, BuildingBlock: TATPOV_clean_sbu_0, # of connection points: 4
#     Node 11, Type 1, BuildingBlock: TATPOV_clean_sbu_0, # of connection points: 4
#     Node 12, Type 1, BuildingBlock: TATPOV_clean_sbu_0, # of connection points: 4
#     Node 13, Type 1, BuildingBlock: TATPOV_clean_sbu_0, # of connection points: 4
#     Node 14, Type 1, BuildingBlock: TATPOV_clean_sbu_0, # of connection points: 4
#     Node 15, Type 1, BuildingBlock: TATPOV_clean_sbu_0, # of connection points: 4
#     Edge 16, Type (0, 1), BuildingBlock: EZIPEK_clean_linker_0, # of connection points: 2
#     Edge 17, Type (0, 1), BuildingBlock: EZIPEK_clean_linker_0, # of connection points: 2
#     Edge 18, Type (0, 1), BuildingBlock: EZIPEK_clean_linker_0, # of connection points: 2
#     Edge 19, Type (0, 1), BuildingBlock: EZIPEK_clean_linker_0, # of connection points: 2
#     Edge 20, Type (0, 1), BuildingBlock: EZIPEK_clean_linker_0, # of connection points: 2
#     Edge 21, Type (0, 1), BuildingBlock: EZIPEK_clean_linker_0, # of connection points: 2
#     Edge 22, Type (0, 1), BuildingBlock: EZIPEK_clean_linker_0, # of connection points: 2
#     Edge 23, Type (0, 1), BuildingBlock: EZIPEK_clean_linker_0, # of connection points: 2
#     Edge 24, Type (0, 1), BuildingBlock: EZIPEK_clean_linker_0, # of connection points: 2
#     Edge 25, Type (0, 1), BuildingBlock: EZIPEK_clean_linker_0, # of connection points: 2
#     Edge 26, Type (0, 1), BuildingBlock: EZIPEK_clean_linker_0, # of connection points: 2
#     Edge 27, Type (0, 1), BuildingBlock: EZIPEK_clean_linker_0, # of connection points: 2
#     Edge 28, Type (0, 1), BuildingBlock: EZIPEK_clean_linker_0, # of connection points: 2
#     Edge 29, Type (0, 1), BuildingBlock: EZIPEK_clean_linker_0, # of connection points: 2
#     Edge 30, Type (0, 1), BuildingBlock: EZIPEK_clean_linker_0, # of connection points: 2
#     Edge 31, Type (0, 1), BuildingBlock: EZIPEK_clean_linker_0, # of connection points: 2
#     Edge 32, Type (0, 1), BuildingBlock: EZIPEK_clean_linker_0, # of connection points: 2
#     Edge 33, Type (0, 1), BuildingBlock: EZIPEK_clean_linker_0, # of connection points: 2
#     Edge 34, Type (0, 1), BuildingBlock: EZIPEK_clean_linker_0, # of connection points: 2
#     Edge 35, Type (0, 1), BuildingBlock: EZIPEK_clean_linker_0, # of connection points: 2
#     Edge 36, Type (0, 1), BuildingBlock: EZIPEK_clean_linker_0, # of connection points: 2
#     Edge 37, Type (0, 1), BuildingBlock: EZIPEK_clean_linker_0, # of connection points: 2
#     Edge 38, Type (0, 1), BuildingBlock: EZIPEK_clean_linker_0, # of connection points: 2
#     Edge 39, Type (0, 1), BuildingBlock: EZIPEK_clean_linker_0, # of connection points: 2
#     Edge 40, Type (0, 1), BuildingBlock: EZIPEK_clean_linker_0, # of connection points: 2
#     Edge 41, Type (0, 1), BuildingBlock: EZIPEK_clean_linker_0, # of connection points: 2
#     Edge 42, Type (0, 1), BuildingBlock: EZIPEK_clean_linker_0, # of connection points: 2
#     Edge 43, Type (0, 1), BuildingBlock: EZIPEK_clean_linker_0, # of connection points: 2
#     Edge 44, Type (0, 1), BuildingBlock: EZIPEK_clean_linker_0, # of connection points: 2
#     Edge 45, Type (0, 1), BuildingBlock: EZIPEK_clean_linker_0, # of connection points: 2
#     Edge 46, Type (0, 1), BuildingBlock: EZIPEK_clean_linker_0, # of connection points: 2
#     Edge 47, Type (0, 1), BuildingBlock: EZIPEK_clean_linker_0, # of connection points: 2
# Relax obj value: 0.173
# Max RMSD: 0.172
# Mean RMSD: 0.138
data_MOF--net-wbl--node1-TATPOV_clean_sbu_0--node2-NAWXER_clean_linker_0--edge1-EZIPEK_clean_linker_0
_symmetry_space_group_name_H-M    P1
_symmetry_Int_Tables_number       1
_symmetry_cell_setting            triclinic
loop_
_symmetry_equiv_pos_as_xyz
'x, y, z'
_cell_length_a     34.73238
_cell_length_b     34.748399
_cell_length_c     59.274019
_cell_angle_alpha  91.53402
_cell_angle_beta   91.432042
_cell_angle_gamma 90.090792
loop_
_atom_site_label
_atom_site_type_symbol
_atom_site_fract_x
_atom_site_fract_y
_atom_site_fract_z
_atom_type_partial_charge
C0 C 0.1085 0.95053 0.41087 0.0
C1 C 0.1472 0.94217 0.40674 0.0
C2 C 0.08794 0.97517 0.3968 0.0
C3 C 0.10571 0.9917 0.37835 0.0
C4 C 0.16515 0.95866 0.38838 0.0
C5 C 0.14466 0.98357 0.37441 0.0
C6 C 0.08375 0.01884 0.36414 0.0
C7 C 0.15148 0.96468 0.30144 0.0
C8 C 0.14465 0.92627 0.30696 0.0
C9 C 0.13018 0.99438 0.31145 0.0
C10 C 0.10235 0.98597 0.32736 0.0
C11 C 0.11498 0.91767 0.32162 0.0
C12 C 0.09385 0.94734 0.3317 0.0
C13 C 0.08372 0.01745 0.34029 0.0
C14 C 0.99211 0.16399 0.32165 0.0
C15 C 0.96952 0.14953 0.30339 0.0
C16 C 0.01904 0.14026 0.33229 0.0
C17 C 0.02218 0.10121 0.32558 0.0
C18 C 0.97592 0.11192 0.29507 0.0
C19 C 0.00186 0.08788 0.30616 0.0
C20 C 0.04385 0.07329 0.33948 0.0
C21 C 0.95195 0.12296 0.38401 0.0
C22 C 0.96701 0.14493 0.40237 0.0
C23 C 0.97617 0.09947 0.37121 0.0
C24 C 0.01585 0.09814 0.37643 0.0
C25 C 0.00652 0.14341 0.40772 0.0
C26 C 0.03077 0.11997 0.3949 0.0
C27 C 0.04161 0.0728 0.36329 0.0
H28 H 0.09434 0.93816 0.42506 0.0
H29 H 0.05806 0.98128 0.40031 0.0
H30 H 0.19514 0.9527 0.38512 0.0
H31 H 0.15944 0.99688 0.36075 0.0
H32 H 0.17453 0.97171 0.29027 0.0
H33 H 0.13691 0.02397 0.30775 0.0
H34 H 0.10957 0.88819 0.32615 0.0
H35 H 0.07192 0.94022 0.3436 0.0
H36 H 0.98778 0.19302 0.32821 0.0
H37 H 0.0358 0.15187 0.34655 0.0
H38 H 0.95892 0.10039 0.28087 0.0
H39 H 0.00423 0.05818 0.30033 0.0
H40 H 0.92141 0.12359 0.37984 0.0
H41 H 0.96392 0.08215 0.35735 0.0
H42 H 0.01843 0.15998 0.42199 0.0
H43 H 0.0612 0.11898 0.39934 0.0
N44 N 0.06223 0.04612 0.37468 0.0
N45 N 0.06434 0.0451 0.32885 0.0
C46 C 0.90947 0.46965 0.62845 0.0
C47 C 0.92095 0.44565 0.64604 0.0
C48 C 0.93678 0.49169 0.61755 0.0
C49 C 0.97616 0.48915 0.6236 0.0
C50 C 0.96004 0.44356 0.65239 0.0
C51 C 0.98739 0.46514 0.64128 0.0
C52 C 0.00562 0.51281 0.61255 0.0
C53 C 0.95125 0.43548 0.56066 0.0
C54 C 0.92695 0.45515 0.54569 0.0
C55 C 0.97844 0.45563 0.57405 0.0
C56 C 0.98133 0.49584 0.57287 0.0
C57 C 0.93119 0.49503 0.5435 0.0
C58 C 0.95844 0.51528 0.55699 0.0
C59 C 0.00682 0.51763 0.58895 0.0
C60 C 0.15173 0.61511 0.58061 0.0
C61 C 0.13872 0.63894 0.56327 0.0
C62 C 0.12654 0.58916 0.59028 0.0
C63 C 0.08735 0.58775 0.58355 0.0
C64 C 0.10009 0.63632 0.55578 0.0
C65 C 0.07465 0.61114 0.56588 0.0
C66 C 0.05954 0.56151 0.59422 0.0
C67 C 0.10381 0.63559 0.65387 0.0
C68 C 0.13294 0.61568 0.66558 0.0
C69 C 0.07991 0.61619 0.63805 0.0
C70 C 0.08427 0.5765 0.63413 0.0
C71 C 0.13727 0.57593 0.66156 0.0
C72 C 0.11254 0.55633 0.64626 0.0
C73 C 0.05882 0.55579 0.61775 0.0
H74 H 0.87935 0.4718 0.62347 0.0
H75 H 0.92697 0.51103 0.6046 0.0
H76 H 0.96933 0.42523 0.66598 0.0
H77 H 0.01743 0.46298 0.64647 0.0
H78 H 0.94844 0.40465 0.5624 0.0
H79 H 0.99643 0.43997 0.58583 0.0
H80 H 0.91268 0.51049 0.53191 0.0
H81 H 0.96051 0.54625 0.55571 0.0
H82 H 0.1815 0.61635 0.58649 0.0
H83 H 0.13801 0.57003 0.60284 0.0
H84 H 0.08949 0.65427 0.54231 0.0
H85 H 0.04483 0.61033 0.56006 0.0
H86 H 0.09999 0.66624 0.65679 0.0
H87 H 0.05791 0.63203 0.62896 0.0
H88 H 0.15964 0.56014 0.67036 0.0
H89 H 0.11604 0.52561 0.64347 0.0
N90 N 0.03202 0.53179 0.62598 0.0
N91 N 0.03333 0.54213 0.58071 0.0
C92 C 0.55787 0.38898 0.90339 0.0
C93 C 0.59792 0.39372 0.9026 0.0
C94 C 0.5336 0.40846 0.88841 0.0
C95 C 0.54898 0.43269 0.87229 0.0
C96 C 0.61352 0.41649 0.8859 0.0
C97 C 0.58924 0.436 0.87091 0.0
C98 C 0.5231 0.45913 0.85989 0.0
C99 C 0.60423 0.44566 0.79462 0.0
C100 C 0.60673 0.40545 0.79555 0.0
C101 C 0.57712 0.46564 0.80742 0.0
C102 C 0.55255 0.44572 0.82156 0.0
C103 C 0.58064 0.38528 0.80853 0.0
C104 C 0.55361 0.40526 0.82139 0.0
C105 C 0.52669 0.4675 0.83675 0.0
C106 C 0.45324 0.62322 0.83629 0.0
C107 C 0.42638 0.62111 0.81827 0.0
C108 C 0.47265 0.59019 0.84302 0.0
C109 C 0.46525 0.55457 0.83193 0.0
C110 C 0.42017 0.58596 0.8065 0.0
C111 C 0.43971 0.55282 0.81324 0.0
C112 C 0.48211 0.51908 0.8411 0.0
C113 C 0.38718 0.56018 0.88422 0.0
C114 C 0.40139 0.57734 0.90442 0.0
C115 C 0.41097 0.53645 0.87126 0.0
C116 C 0.44927 0.52978 0.87834 0.0
C117 C 0.43905 0.56942 0.91199 0.0
C118 C 0.46278 0.54555 0.8991 0.0
C119 C 0.47605 0.50855 0.86354 0.0
H120 H 0.54541 0.37165 0.91627 0.0
H121 H 0.50271 0.40583 0.89001 0.0
H122 H 0.64437 0.4207 0.88521 0.0
H123 H 0.60195 0.4554 0.85918 0.0
H124 H 0.62443 0.46162 0.78482 0.0
H125 H 0.5766 0.49679 0.8071 0.0
H126 H 0.58239 0.35424 0.80951 0.0
H127 H 0.53427 0.38918 0.83168 0.0
H128 H 0.4584 0.6502 0.84545 0.0
H129 H 0.49261 0.59217 0.85735 0.0
H130 H 0.39955 0.58405 0.7925 0.0
H131 H 0.43371 0.52562 0.80449 0.0
H132 H 0.35809 0.56597 0.87823 0.0
H133 H 0.39979 0.52406 0.85546 0.0
H134 H 0.45031 0.58246 0.9276 0.0
H135 H 0.49217 0.54071 0.90487 0.0
N136 N 0.49736 0.47958 0.87224 0.0
N137 N 0.50657 0.49776 0.82832 0.0
C138 C 0.46859 0.90181 0.04541 0.0
C139 C 0.43089 0.89816 0.05304 0.0
C140 C 0.49592 0.923 0.05808 0.0
C141 C 0.48609 0.94138 0.07852 0.0
C142 C 0.42053 0.9174 0.07311 0.0
C143 C 0.44772 0.93951 0.08553 0.0
C144 C 0.51628 0.96328 0.09151 0.0
C145 C 0.45912 0.94366 0.16504 0.0
C146 C 0.45421 0.90367 0.16339 0.0
C147 C 0.47977 0.96271 0.14883 0.0
C148 C 0.49555 0.94219 0.13056 0.0
C149 C 0.46918 0.88301 0.14489 0.0
C150 C 0.4899 0.90217 0.12857 0.0
C151 C 0.52102 0.9628 0.11533 0.0
C152 C 0.6252 0.08909 0.14172 0.0
C153 C 0.65871 0.07207 0.15065 0.0
C154 C 0.59841 0.06693 0.12919 0.0
C155 C 0.60454 0.02742 0.12575 0.0
C156 C 0.66526 0.03263 0.14669 0.0
C157 C 0.63793 0.01026 0.13462 0.0
C158 C 0.57552 0.00402 0.11328 0.0
C159 C 0.65892 0.05327 0.06704 0.0
C160 C 0.64199 0.0839 0.05553 0.0
C161 C 0.63577 0.02594 0.07704 0.0
C162 C 0.59544 0.02921 0.07585 0.0
C163 C 0.60176 0.08569 0.05299 0.0
C164 C 0.5786 0.05837 0.06302 0.0
C165 C 0.57087 0.00486 0.08968 0.0
H166 H 0.4771 0.88743 0.02988 0.0
H167 H 0.52507 0.92445 0.05204 0.0
H168 H 0.3915 0.91508 0.07921 0.0
H169 H 0.43865 0.95498 0.10055 0.0
H170 H 0.44785 0.95997 0.17924 0.0
H171 H 0.48405 0.99353 0.15078 0.0
H172 H 0.46574 0.85204 0.14348 0.0
H173 H 0.50246 0.8857 0.11485 0.0
H174 H 0.61978 0.11952 0.14453 0.0
H175 H 0.57268 0.08047 0.12242 0.0
H176 H 0.69113 0.01915 0.1533 0.0
H177 H 0.64293 0.97972 0.13201 0.0
H178 H 0.68994 0.05159 0.06918 0.0
H179 H 0.64932 0.00315 0.08646 0.0
H180 H 0.58832 0.10933 0.04424 0.0
H181 H 0.54757 0.06132 0.06187 0.0
N182 N 0.54141 0.98455 0.07964 0.0
N183 N 0.55044 0.98335 0.12522 0.0
C184 C 0.07516 0.63663 0.88646 0.0
C185 C 0.09998 0.62322 0.86966 0.0
C186 C 0.05579 0.61042 0.89973 0.0
C187 C 0.06148 0.57057 0.89653 0.0
C188 C 0.10607 0.58358 0.86671 0.0
C189 C 0.08688 0.5575 0.87995 0.0
C190 C 0.03894 0.54192 0.9088 0.0
C191 C 0.11233 0.60569 0.95926 0.0
C192 C 0.09124 0.62908 0.97406 0.0
C193 C 0.09389 0.57699 0.94617 0.0
C194 C 0.05395 0.57162 0.94747 0.0
C195 C 0.05162 0.62275 0.97621 0.0
C196 C 0.03306 0.59397 0.963 0.0
C197 C 0.03409 0.54305 0.93243 0.0
C198 C 0.95975 0.38784 0.94481 0.0
C199 C 0.92902 0.39744 0.95875 0.0
C200 C 0.98241 0.41675 0.936 0.0
C201 C 0.97422 0.45574 0.94066 0.0
C202 C 0.92191 0.43625 0.96435 0.0
C203 C 0.9445 0.46526 0.95542 0.0
C204 C 0.99529 0.48638 0.92919 0.0
C205 C 0.92206 0.42612 0.87546 0.0
C206 C 0.94303 0.40828 0.8582 0.0
C207 C 0.94053 0.45083 0.89119 0.0
C208 C 0.98034 0.45751 0.89005 0.0
C209 C 0.98276 0.41466 0.85707 0.0
C210 C 0.0013 0.43924 0.87288 0.0
C211 C -0.00023 0.48568 0.90557 0.0
H212 H 0.07007 0.66719 0.88886 0.0
H213 H 0.03562 0.62125 0.912 0.0
H214 H 0.12512 0.57281 0.8538 0.0
H215 H 0.09155 0.52696 0.87706 0.0
H216 H 0.14302 0.61008 0.95761 0.0
H217 H 0.11073 0.55935 0.93477 0.0
H218 H 0.0351 0.64053 0.9877 0.0
H219 H 0.00229 0.58991 0.96441 0.0
H220 H 0.96576 0.358 0.94048 0.0
H221 H 0.00576 0.40869 0.92507 0.0
H222 H 0.89835 0.44403 0.97519 0.0
H223 H 0.93786 0.49511 0.95933 0.0
H224 H 0.89124 0.42178 0.87631 0.0
H225 H 0.92353 0.46549 0.90384 0.0
H226 H 0.99915 0.40136 0.84366 0.0
H227 H 0.03193 0.44436 0.87157 0.0
N228 N 0.02161 0.51323 0.89636 0.0
N229 N 0.0123 0.51531 0.94178 0.0
C230 C 0.39242 0.54743 0.12086 0.0
C231 C 0.40309 0.57112 0.10328 0.0
C232 C 0.42053 0.53275 0.13555 0.0
C233 C 0.45964 0.54178 0.13289 0.0
C234 C 0.44202 0.58024 0.10063 0.0
C235 C 0.47011 0.56553 0.11526 0.0
C236 C 0.48999 0.52397 0.14712 0.0
C237 C 0.43018 0.60429 0.19486 0.0
C238 C 0.40783 0.58575 0.21068 0.0
C239 C 0.45555 0.58322 0.18153 0.0
C240 C 0.45906 0.54327 0.1839 0.0
C241 C 0.41043 0.54566 0.21267 0.0
C242 C 0.43637 0.52459 0.19956 0.0
C243 C 0.48785 0.52163 0.17081 0.0
C244 C 0.6405 0.44633 0.19393 0.0
C245 C 0.62829 0.41431 0.20577 0.0
C246 C 0.61344 0.47032 0.18364 0.0
C247 C 0.57386 0.46239 0.18494 0.0
C248 C 0.58878 0.40766 0.20821 0.0
C249 C 0.56169 0.43174 0.19797 0.0
C250 C 0.54531 0.48431 0.17158 0.0
C251 C 0.60419 0.40907 0.11898 0.0
C252 C 0.6329 0.4302 0.10848 0.0
C253 C 0.57705 0.42782 0.13227 0.0
C254 C 0.57784 0.46801 0.13492 0.0
C255 C 0.63418 0.47041 0.11158 0.0
C256 C 0.60635 0.48927 0.12442 0.0
C257 C 0.54802 0.48778 0.14803 0.0
H258 H 0.36248 0.53983 0.12294 0.0
H259 H 0.41178 0.51349 0.14854 0.0
H260 H 0.45067 0.59833 0.08703 0.0
H261 H 0.50008 0.57251 0.11273 0.0
H262 H 0.42855 0.63523 0.19319 0.0
H263 H 0.4732 0.59826 0.16978 0.0
H264 H 0.39337 0.53101 0.22487 0.0
H265 H 0.43883 0.49381 0.20165 0.0
H266 H 0.67092 0.45169 0.19182 0.0
H267 H 0.62342 0.49432 0.17406 0.0
H268 H 0.57898 0.38287 0.21718 0.0
H269 H 0.53131 0.42527 0.19926 0.0
H270 H 0.60283 0.37803 0.11685 0.0
H271 H 0.55507 0.41107 0.1402 0.0
H272 H 0.6563 0.48713 0.10377 0.0
H273 H 0.60724 0.52035 0.12634 0.0
N274 N 0.52024 0.50725 0.13664 0.0
N275 N 0.51531 0.50142 0.18219 0.0
C276 C 0.49624 0.88296 0.38495 0.0
C277 C 0.46955 0.89172 0.36773 0.0
C278 C 0.51614 0.91257 0.39665 0.0
C279 C 0.50935 0.95122 0.39131 0.0
C280 C 0.46343 0.93015 0.36202 0.0
C281 C 0.48343 0.95971 0.37362 0.0
C282 C 0.52971 0.98289 0.40374 0.0
C283 C 0.44802 0.93024 0.45051 0.0
C284 C 0.46606 0.91008 0.46798 0.0
C285 C 0.46918 0.95553 0.43771 0.0
C286 C 0.50888 0.96072 0.44199 0.0
C287 C 0.50543 0.91603 0.47281 0.0
C288 C 0.52668 0.94142 0.45996 0.0
C289 C 0.53167 0.98595 0.42753 0.0
C290 C 0.62264 0.135 0.44285 0.0
C291 C 0.64627 0.12315 0.46091 0.0
C292 C 0.59747 0.10887 0.4318 0.0
C293 C 0.59693 0.06998 0.4379 0.0
C294 C 0.64375 0.08506 0.46804 0.0
C295 C 0.61953 0.05868 0.45655 0.0
C296 C 0.57307 0.04068 0.42531 0.0
C297 C 0.64658 0.09447 0.3718 0.0
C298 C 0.6241 0.11442 0.35594 0.0
C299 C 0.62908 0.06989 0.38686 0.0
C300 C 0.58888 0.0651 0.38626 0.0
C301 C 0.58398 0.10955 0.35535 0.0
C302 C 0.56657 0.08484 0.37026 0.0
C303 C 0.5697 0.03837 0.40143 0.0
H304 H 0.50126 0.85336 0.38947 0.0
H305 H 0.53674 0.90532 0.40987 0.0
H306 H 0.4429 0.93723 0.34871 0.0
H307 H 0.47807 0.98927 0.36911 0.0
H308 H 0.41761 0.9261 0.44666 0.0
H309 H 0.45455 0.9708 0.42432 0.0
H310 H 0.5197 0.90072 0.48631 0.0
H311 H 0.55716 0.94523 0.46368 0.0
H312 H 0.62384 0.16439 0.43725 0.0
H313 H 0.57885 0.11909 0.41834 0.0
H314 H 0.66151 0.07546 0.48208 0.0
H315 H 0.61921 0.02912 0.46191 0.0
H316 H 0.67761 0.0977 0.37237 0.0
H317 H 0.64688 0.0544 0.39881 0.0
H318 H 0.56624 0.12458 0.34316 0.0
H319 H 0.53556 0.08127 0.36939 0.0
N320 N 0.54818 0.00956 0.39164 0.0
N321 N 0.55379 0.01432 0.43742 0.0
C322 C 0.20159 0.99757 0.6391 0.0
C323 C 0.1906 0.97892 0.61864 0.0
C324 C 0.17474 0.01949 0.65109 0.0
C325 C 0.13645 0.02231 0.64294 0.0
C326 C 0.15296 0.9831 0.61005 0.0
C327 C 0.12615 0.00467 0.62206 0.0
C328 C 0.10641 0.04276 0.65592 0.0
C329 C 0.14599 0.94406 0.69795 0.0
C330 C 0.16109 0.95489 0.71936 0.0
C331 C 0.12624 0.97069 0.68484 0.0
C332 C 0.12206 0.00892 0.69269 0.0
C333 C 0.15619 0.99278 0.72754 0.0
C334 C 0.13678 0.01964 0.71426 0.0
C335 C 0.10011 0.03698 0.67914 0.0
C336 C 0.94902 0.09146 0.70333 0.0
C337 C 0.94566 0.13175 0.70458 0.0
C338 C 0.98305 0.07437 0.69603 0.0
C339 C 0.01358 0.09731 0.6891 0.0
C340 C 0.97692 0.15467 0.69856 0.0
C341 C 0.01053 0.13755 0.69065 0.0
C342 C 0.04627 0.07924 0.67754 0.0
C343 C 0.0093 0.15636 0.61424 0.0
C344 C 0.97038 0.14531 0.61342 0.0
C345 C 0.03596 0.13618 0.62744 0.0
C346 C 0.02386 0.10499 0.64005 0.0
C347 C 0.9584 0.11384 0.62578 0.0
C348 C 0.98501 0.09362 0.63884 0.0
C349 C 0.0517 0.08393 0.65432 0.0
H350 H 0.23067 0.9947 0.64586 0.0
H351 H 0.18368 0.03365 0.66686 0.0
H352 H 0.14412 0.96889 0.59426 0.0
H353 H 0.09694 0.00658 0.61533 0.0
H354 H 0.14896 0.91474 0.69155 0.0
H355 H 0.11385 0.96122 0.66869 0.0
H356 H 0.16717 0.0014 0.74418 0.0
H357 H 0.13322 0.04878 0.72082 0.0
H358 H 0.92511 0.07333 0.70777 0.0
H359 H 0.98477 0.04327 0.69461 0.0
H360 H 0.97482 0.18577 0.69937 0.0
H361 H 0.03374 0.15565 0.68515 0.0
H362 H 0.01895 0.18046 0.60462 0.0
H363 H 0.06587 0.14512 0.62802 0.0
H364 H 0.92852 0.10478 0.62513 0.0
H365 H 0.97527 0.06892 0.6479 0.0
N366 N 0.08169 0.06585 0.64439 0.0
N367 N 0.0704 0.05576 0.68912 0.0
Zn368 Zn 0.27594 0.75496 0.97345 0.0
Zn369 Zn 0.29657 0.70798 0.00813 0.0
O370 O 0.23828 0.70616 0.00899 0.0
O371 O 0.22038 0.746 0.98268 0.0
O372 O 0.31534 0.67578 0.03359 0.0
O373 O 0.30919 0.79774 0.98817 0.0
O374 O 0.32171 0.75915 0.0163 0.0
C375 C 0.21159 0.72351 0.99828 0.0
C376 C 0.31788 0.68654 0.95963 0.0
O377 O 0.31873 0.68046 0.9807 0.0
O378 O 0.30082 0.71584 0.95193 0.0
C379 C 0.30601 0.64083 0.03596 0.0
O380 O 0.2809 0.62426 0.02187 0.0
C381 C 0.32547 0.7915 0.00709 0.0
Zn382 Zn 0.30387 0.74551 0.30034 0.0
Zn383 Zn 0.33283 0.7888 0.26628 0.0
O384 O 0.27983 0.81281 0.2702 0.0
O385 O 0.25627 0.77963 0.29797 0.0
O386 O 0.3552 0.81511 0.23948 0.0
O387 O 0.31143 0.69607 0.28197 0.0
O388 O 0.33756 0.7323 0.25648 0.0
C389 C 0.25328 0.80664 0.28407 0.0
C390 C 0.36987 0.79257 0.3137 0.0
O391 O 0.36701 0.80395 0.29349 0.0
O392 O 0.34815 0.76612 0.32047 0.0
C393 C 0.38246 0.83956 0.24096 0.0
O394 O 0.39682 0.85019 0.26086 0.0
C395 C 0.32838 0.69933 0.26346 0.0
Zn396 Zn 0.27761 0.78054 0.4825 0.0
Zn397 Zn 0.26413 0.83326 0.51601 0.0
O398 O 0.32246 0.83748 0.51252 0.0
O399 O 0.33501 0.79264 0.48713 0.0
O400 O 0.25141 0.87152 0.54078 0.0
O401 O 0.24859 0.74046 0.50019 0.0
O402 O 0.24213 0.78313 0.52793 0.0
C403 C 0.34689 0.81918 0.5007 0.0
C404 C 0.23125 0.84429 0.4681 0.0
O405 O 0.23465 0.85451 0.48884 0.0
O406 O 0.24722 0.81385 0.46076 0.0
C407 C 0.27014 0.875 0.55941 0.0
O408 O 0.30093 0.85398 0.56307 0.0
C409 C 0.23639 0.74938 0.51961 0.0
Zn410 Zn 0.2869 0.75903 0.74318 0.0
Zn411 Zn 0.23598 0.74411 0.77585 0.0
O412 O 0.22534 0.80112 0.77116 0.0
O413 O 0.26204 0.81198 0.74213 0.0
O414 O 0.20187 0.72928 0.80159 0.0
O415 O 0.3318 0.74631 0.76405 0.0
O416 O 0.28935 0.72968 0.78857 0.0
C417 C 0.23644 0.82307 0.75572 0.0
C418 C 0.23034 0.7036 0.72888 0.0
O419 O 0.21668 0.71242 0.74809 0.0
O420 O 0.26253 0.717 0.72325 0.0
C421 C 0.17862 0.70096 0.80008 0.0
O422 O 0.17389 0.68191 0.7808 0.0
C423 C 0.32441 0.73311 0.78316 0.0
Zn424 Zn 0.79578 0.26905 0.54167 0.0
Zn425 Zn 0.84444 0.24988 0.50752 0.0
O426 O 0.84821 0.3081 0.50761 0.0
O427 O 0.80805 0.32492 0.53405 0.0
O428 O 0.87911 0.23043 0.48328 0.0
O429 O 0.75331 0.23787 0.52523 0.0
O430 O 0.79289 0.22651 0.4974 0.0
C431 C 0.83138 0.33438 0.51899 0.0
C432 C 0.8616 0.22551 0.55626 0.0
O433 O 0.8693 0.2267 0.53542 0.0
O434 O 0.83147 0.24137 0.56371 0.0
C435 C 0.87214 0.23491 0.46239 0.0
O436 O 0.84209 0.25501 0.45584 0.0
C437 C 0.76 0.2227 0.50605 0.0
Zn438 Zn 0.79546 0.26667 0.77663 0.0
Zn439 Zn 0.81793 0.31354 0.74395 0.0
O440 O 0.76214 0.33119 0.74997 0.0
O441 O 0.74221 0.28924 0.77447 0.0
O442 O 0.8383 0.34737 0.7198 0.0
O443 O 0.81193 0.22031 0.75815 0.0
O444 O 0.82893 0.25888 0.7316 0.0
C445 C 0.73603 0.31845 0.7626 0.0
C446 C 0.85458 0.32037 0.79118 0.0
O447 O 0.85272 0.32966 0.77057 0.0
O448 O 0.83324 0.29396 0.79831 0.0
C449 C 0.82347 0.3526 0.70032 0.0
O450 O 0.79044 0.33632 0.69446 0.0
C451 C 0.82553 0.22484 0.73881 0.0
Zn452 Zn 0.78584 0.27854 0.0404 0.0
Zn453 Zn 0.7332 0.29114 0.00698 0.0
O454 O 0.72005 0.23584 0.01454 0.0
O455 O 0.76047 0.22588 0.04313 0.0
O456 O 0.6966 0.30433 0.98141 0.0
O457 O 0.82957 0.28824 0.01935 0.0
O458 O 0.78606 0.30175 0.99356 0.0
C459 C 0.73292 0.21456 0.03014 0.0
C460 C 0.73152 0.33738 0.05185 0.0
O461 O 0.71676 0.32719 0.03272 0.0
O462 O 0.76332 0.32326 0.05848 0.0
C463 C 0.69921 0.3378 0.97344 0.0
O464 O 0.72495 0.36207 0.9821 0.0
C465 C 0.82138 0.29847 0.99948 0.0
Zn466 Zn 0.79793 0.24189 0.21928 0.0
Zn467 Zn 0.74942 0.21978 0.25277 0.0
O468 O 0.72761 0.27295 0.24687 0.0
O469 O 0.7657 0.29123 0.21977 0.0
O470 O 0.7187 0.19571 0.27724 0.0
O471 O 0.84432 0.23174 0.23953 0.0
O472 O 0.80421 0.21574 0.26587 0.0
C473 C 0.73721 0.29735 0.23238 0.0
C474 C 0.75007 0.17789 0.20618 0.0
O475 O 0.73677 0.18416 0.22575 0.0
O476 O 0.77827 0.1973 0.1995 0.0
C477 C 0.69537 0.21172 0.2907 0.0
O478 O 0.68829 0.24873 0.28944 0.0
C479 C 0.83844 0.21954 0.25907 0.0
C480 C 0.20633 0.89132 0.31373 0.0
C481 C 0.17234 0.89584 0.30032 0.0
C482 C 0.19042 0.84056 0.27615 0.0
C483 C 0.22541 0.83772 0.28879 0.0
N484 N 0.27063 0.86506 0.31644 0.0
N485 N 0.13345 0.87857 0.26739 0.0
C486 C 0.23449 0.86447 0.30667 0.0
C487 C 0.16475 0.87153 0.28108 0.0
N488 N 0.21123 0.91193 0.3336 0.0
N489 N 0.18151 0.81323 0.25984 0.0
H490 H 0.11388 0.90058 0.27084 0.0
H491 H 0.12813 0.86442 0.25193 0.0
H492 H 0.20028 0.7909 0.2556 0.0
H493 H 0.15488 0.81124 0.25145 0.0
H494 H 0.23299 0.90634 0.34546 0.0
H495 H 0.19178 0.93269 0.33922 0.0
H496 H 0.28029 0.88657 0.32778 0.0
H497 H 0.29238 0.84607 0.3117 0.0
C498 C 0.15671 0.70711 0.55476 0.0
C499 C 0.16522 0.66724 0.55316 0.0
C500 C 0.22444 0.68232 0.53342 0.0
C501 C 0.21268 0.72134 0.53192 0.0
N502 N 0.16166 0.76821 0.53671 0.0
N503 N 0.20395 0.61623 0.5371 0.0
C504 C 0.17724 0.73315 0.54145 0.0
C505 C 0.19826 0.65459 0.54144 0.0
N506 N 0.12958 0.72036 0.56934 0.0
N507 N 0.26103 0.67187 0.52798 0.0
H508 H 0.1849 0.59501 0.54205 0.0
H509 H 0.2255 0.60584 0.52666 0.0
H510 H 0.28165 0.69159 0.52304 0.0
H511 H 0.2721 0.64451 0.53079 0.0
H512 H 0.12502 0.74958 0.57266 0.0
H513 H 0.11466 0.70234 0.5799 0.0
H514 H 0.13417 0.77634 0.54162 0.0
H515 H 0.17386 0.78733 0.52567 0.0
C516 C 0.41664 0.68014 0.79536 0.0
C517 C 0.40365 0.65559 0.81233 0.0
C518 C 0.34654 0.69596 0.81726 0.0
C519 C 0.35577 0.71539 0.79736 0.0
N520 N 0.40858 0.74114 0.77692 0.0
N521 N 0.35733 0.64039 0.84048 0.0
C522 C 0.39366 0.71213 0.78914 0.0
C523 C 0.36918 0.66395 0.82387 0.0
N524 N 0.45023 0.67212 0.78468 0.0
N525 N 0.31802 0.70997 0.83062 0.0
H526 H 0.37366 0.61728 0.84619 0.0
H527 H 0.33032 0.64224 0.84765 0.0
H528 H 0.30452 0.73618 0.82754 0.0
H529 H 0.31149 0.69884 0.84621 0.0
H530 H 0.45884 0.68613 0.77033 0.0
H531 H 0.4685 0.64974 0.78936 0.0
H532 H 0.43698 0.74187 0.77175 0.0
H533 H 0.39412 0.76715 0.77486 0.0
C534 C 0.36782 0.88558 0.03162 0.0
C535 C 0.40332 0.87196 0.04063 0.0
C536 C 0.39009 0.80806 0.02402 0.0
C537 C 0.35238 0.82011 0.0177 0.0
N538 N 0.30303 0.86904 0.01865 0.0
N539 N 0.44503 0.82 0.0495 0.0
C540 C 0.34054 0.8586 0.02227 0.0
C541 C 0.41341 0.83285 0.03792 0.0
N542 N 0.36072 0.92421 0.03126 0.0
N543 N 0.40441 0.77403 0.01571 0.0
H544 H 0.45323 0.79118 0.05014 0.0
H545 H 0.45323 0.79118 0.05014 0.0
H546 H 0.389 0.75595 0.00442 0.0
H547 H 0.43311 0.76594 0.01784 0.0
H548 H 0.33693 0.93594 0.02292 0.0
H549 H 0.38053 0.94474 0.03744 0.0
H550 H 0.29207 0.89561 0.02386 0.0
H551 H 0.282 0.84995 0.0123 0.0
C552 C 0.13343 0.65264 0.00635 0.0
C553 C 0.11139 0.66084 0.9866 0.0
C554 C 0.14224 0.72392 0.98505 0.0
C555 C 0.17064 0.71107 1.00059 0.0
N556 N 0.18036 0.67605 0.03464 0.0
N557 N 0.09081 0.70581 0.95845 0.0
C558 C 0.16204 0.67942 0.01416 0.0
C559 C 0.11379 0.69747 0.97671 0.0
N560 N 0.12845 0.61839 0.01669 0.0
N561 N 0.14207 0.76151 0.97897 0.0
H562 H 0.06896 0.6874 0.95233 0.0
H563 H 0.09447 0.73008 0.9488 0.0
H564 H 0.16101 0.78163 0.98655 0.0
H565 H 0.12065 0.77352 0.96878 0.0
H566 H 0.1466 0.60856 0.02952 0.0
H567 H 0.10656 0.59909 0.01178 0.0
H568 H 0.1741 0.6548 0.04604 0.0
H569 H 0.19875 0.69756 0.04124 0.0
C570 C 0.39853 0.62025 0.24769 0.0
C571 C 0.38358 0.60925 0.22597 0.0
C572 C 0.32711 0.65046 0.23167 0.0
C573 C 0.34453 0.66499 0.25201 0.0
N574 N 0.39747 0.66613 0.27919 0.0
N575 N 0.33426 0.61297 0.19681 0.0
C576 C 0.38012 0.65009 0.26018 0.0
C577 C 0.34777 0.62382 0.2179 0.0
N578 N 0.43056 0.60241 0.25627 0.0
N579 N 0.29071 0.66198 0.22575 0.0
H580 H 0.34773 0.59206 0.18682 0.0
H581 H 0.31074 0.62562 0.18873 0.0
H582 H 0.27516 0.68153 0.2356 0.0
H583 H 0.27474 0.65026 0.21215 0.0
H584 H 0.44027 0.6058 0.27296 0.0
H585 H 0.44613 0.58185 0.24722 0.0
H586 H 0.42564 0.66029 0.2844 0.0
H587 H 0.38459 0.68734 0.28922 0.0
C588 C 0.42455 0.89436 0.50067 0.0
C589 C 0.44339 0.88208 0.48076 0.0
C590 C 0.41205 0.819 0.48249 0.0
C591 C 0.38733 0.83433 0.49913 0.0
N592 N 0.38529 0.87616 0.53202 0.0
N593 N 0.45742 0.83209 0.45318 0.0
C594 C 0.39826 0.86895 0.51078 0.0
C595 C 0.4384 0.84389 0.47205 0.0
N596 N 0.43031 0.93089 0.50921 0.0
N597 N 0.41184 0.78033 0.47779 0.0
H598 H 0.47798 0.84906 0.44559 0.0
H599 H 0.45136 0.80639 0.44436 0.0
H600 H 0.39586 0.76128 0.48717 0.0
H601 H 0.43101 0.76673 0.46697 0.0
H602 H 0.41393 0.94318 0.52198 0.0
H603 H 0.45026 0.94979 0.50264 0.0
H604 H 0.39402 0.89966 0.54215 0.0
H605 H 0.36982 0.85561 0.54059 0.0
C606 C 0.15734 0.89484 0.74127 0.0
C607 C 0.18003 0.92532 0.73343 0.0
C608 C 0.23814 0.89349 0.74784 0.0
C609 C 0.21617 0.85981 0.7514 0.0
N610 N 0.15447 0.82686 0.74804 0.0
N611 N 0.24262 0.95329 0.72794 0.0
C612 C 0.17552 0.86013 0.7476 0.0
C613 C 0.22063 0.92488 0.73662 0.0
N614 N 0.11832 0.89897 0.74244 0.0
N615 N 0.2756 0.89549 0.75538 0.0
H616 H 0.23085 0.97685 0.71971 0.0
H617 H 0.27255 0.9521 0.72748 0.0
H618 H 0.28885 0.87319 0.76409 0.0
H619 H 0.29212 0.92051 0.75506 0.0
H620 H 0.10071 0.87906 0.75006 0.0
H621 H 0.10417 0.92422 0.73794 0.0
H622 H 0.12562 0.82521 0.74285 0.0
H623 H 0.16622 0.8 0.75132 0.0
C624 C 0.63766 0.36738 0.76402 0.0
C625 C 0.64029 0.38513 0.78588 0.0
C626 C 0.70755 0.36502 0.78987 0.0
C627 C 0.70376 0.34379 0.76912 0.0
N628 N 0.66565 0.32258 0.73673 0.0
N629 N 0.67582 0.39749 0.82087 0.0
C630 C 0.66898 0.34455 0.75614 0.0
C631 C 0.67479 0.3832 0.7991 0.0
N632 N 0.60541 0.3728 0.75081 0.0
N633 N 0.74281 0.36836 0.80059 0.0
H634 H 0.65284 0.41199 0.82822 0.0
H635 H 0.69838 0.39252 0.8323 0.0
H636 H 0.76747 0.35474 0.79472 0.0
H637 H 0.74848 0.38715 0.81425 0.0
H638 H 0.60285 0.36376 0.73396 0.0
H639 H 0.58185 0.38875 0.75634 0.0
H640 H 0.63995 0.31851 0.72757 0.0
H641 H 0.68856 0.30662 0.73034 0.0
C642 C 0.66821 0.15001 0.06324 0.0
C643 C 0.66599 0.11681 0.04882 0.0
C644 C 0.71047 0.14636 0.02274 0.0
C645 C 0.71029 0.18054 0.03635 0.0
N646 N 0.68346 0.21786 0.06713 0.0
N647 N 0.68095 0.08414 0.01379 0.0
C648 C 0.6877 0.18317 0.05597 0.0
C649 C 0.68606 0.11514 0.02824 0.0
N650 N 0.65236 0.14956 0.08415 0.0
N651 N 0.73471 0.14351 0.00496 0.0
H652 H 0.6638 0.06059 0.01755 0.0
H653 H 0.69148 0.08275 0.9975 0.0
H654 H 0.7525 0.16611 1.00041 0.0
H655 H 0.73924 0.11814 0.99569 0.0
H656 H 0.6568 0.17124 0.09641 0.0
H657 H 0.63735 0.12603 0.09008 0.0
H658 H 0.66392 0.22257 0.07994 0.0
H659 H 0.69689 0.24311 0.06231 0.0
C660 C 0.89867 0.15501 0.29687 0.0
C661 C 0.93573 0.17126 0.29471 0.0
C662 C 0.90672 0.22491 0.27445 0.0
C663 C 0.87123 0.20445 0.27275 0.0
N664 N 0.83756 0.14401 0.27796 0.0
N665 N 0.97604 0.22017 0.27926 0.0
C666 C 0.86805 0.16798 0.28294 0.0
C667 C 0.94013 0.20601 0.28302 0.0
N668 N 0.89264 0.12711 0.31222 0.0
N669 N 0.90834 0.26254 0.26846 0.0
H670 H 0.00117 0.20691 0.28507 0.0
H671 H 0.98091 0.24322 0.2688 0.0
H672 H 0.88409 0.27774 0.26305 0.0
H673 H 0.93274 0.2797 0.2712 0.0
H674 H 0.86525 0.11678 0.31566 0.0
H675 H 0.91429 0.11758 0.32324 0.0
H676 H 0.83628 0.11591 0.28363 0.0
H677 H 0.81613 0.14982 0.26594 0.0
C678 C 0.85919 0.43042 0.5433 0.0
C679 C 0.89581 0.43358 0.53339 0.0
C680 C 0.87726 0.38426 0.5049 0.0
C681 C 0.84519 0.3752 0.51808 0.0
N682 N 0.79481 0.40314 0.54016 0.0
N683 N 0.93863 0.41755 0.50322 0.0
C684 C 0.83254 0.40273 0.53427 0.0
C685 C 0.90419 0.41229 0.51336 0.0
N686 N 0.85091 0.45204 0.56216 0.0
N687 N 0.88072 0.36726 0.48402 0.0
H688 H 0.9581 0.43903 0.50856 0.0
H689 H 0.94856 0.39986 0.49017 0.0
H690 H 0.85903 0.34969 0.47685 0.0
H691 H 0.9022 0.37408 0.47286 0.0
H692 H 0.82668 0.44754 0.57176 0.0
H693 H 0.86938 0.47331 0.56892 0.0
H694 H 0.783 0.42415 0.55075 0.0
H695 H 0.77442 0.38519 0.532 0.0
C696 C 0.71476 0.1404 0.47111 0.0
C697 C 0.67511 0.14989 0.47178 0.0
C698 C 0.69168 0.21031 0.49204 0.0
C699 C 0.73053 0.19792 0.49425 0.0
N700 N 0.77614 0.1455 0.49082 0.0
N701 N 0.62508 0.19072 0.48676 0.0
C702 C 0.74136 0.16139 0.48513 0.0
C703 C 0.66327 0.184 0.48333 0.0
N704 N 0.72728 0.112 0.4567 0.0
N705 N 0.68204 0.24752 0.49732 0.0
H706 H 0.60342 0.17169 0.48117 0.0
H707 H 0.61528 0.21326 0.49703 0.0
H708 H 0.70223 0.2682 0.50277 0.0
H709 H 0.65479 0.25881 0.49396 0.0
H710 H 0.7564 0.10661 0.45417 0.0
H711 H 0.70887 0.09679 0.4455 0.0
H712 H 0.78365 0.11745 0.48607 0.0
H713 H 0.79556 0.15829 0.50244 0.0
C714 C 0.89483 0.14436 0.7334 0.0
C715 C 0.90899 0.1501 0.71151 0.0
C716 C 0.85655 0.19573 0.70402 0.0
C717 C 0.84465 0.19191 0.72662 0.0
N718 N 0.83817 0.14574 0.75607 0.0
N719 N 0.89639 0.1714 0.67361 0.0
C720 C 0.8591 0.16077 0.73923 0.0
C721 C 0.88762 0.17277 0.69599 0.0
N722 N 0.91612 0.12494 0.74908 0.0
N723 N 0.83781 0.2209 0.69029 0.0
H724 H 0.91815 0.15392 0.66719 0.0
H725 H 0.88031 0.18491 0.66109 0.0
H726 H 0.81163 0.23343 0.69463 0.0
H727 H 0.84794 0.22921 0.67477 0.0
H728 H 0.90822 0.12343 0.76589 0.0
H729 H 0.94332 0.11368 0.74595 0.0
H730 H 0.84688 0.12147 0.76481 0.0
H731 H 0.80962 0.15356 0.75869 0.0
C732 C 0.91576 0.3442 0.98532 0.0
C733 C 0.90355 0.36667 0.96685 0.0
C734 C 0.84298 0.33021 0.96382 0.0
C735 C 0.85252 0.31284 0.98463 0.0
N736 N 0.90524 0.28653 0.00636 0.0
N737 N 0.85667 0.38041 0.93744 0.0
C738 C 0.89121 0.31472 0.99283 0.0
C739 C 0.8676 0.35919 0.95561 0.0
N740 N 0.95005 0.3521 0.99631 0.0
N741 N 0.81234 0.31659 0.95107 0.0
H742 H 0.87477 0.40038 0.93019 0.0
H743 H 0.82901 0.37983 0.93027 0.0
H744 H 0.7975 0.29171 0.95515 0.0
H745 H 0.80501 0.32622 0.93506 0.0
H746 H 0.95827 0.33973 0.0115 0.0
H747 H 0.96907 0.37323 0.99119 0.0
H748 H 0.93404 0.28466 0.01154 0.0
H749 H 0.88933 0.26186 0.00956 0.0
C750 C 0.66368 0.3531 0.19816 0.0
C751 C 0.65664 0.38493 0.21294 0.0
C752 C 0.70452 0.36083 0.24028 0.0
C753 C 0.70951 0.32777 0.22613 0.0
N754 N 0.68832 0.28831 0.19396 0.0
N755 N 0.66642 0.41778 0.24892 0.0
C756 C 0.68761 0.32279 0.20569 0.0
C757 C 0.67597 0.38846 0.23429 0.0
N758 N 0.64807 0.35218 0.17672 0.0
N759 N 0.72774 0.36616 0.25906 0.0
H760 H 0.64629 0.43887 0.24478 0.0
H761 H 0.67645 0.41995 0.2656 0.0
H762 H 0.74842 0.34608 0.26398 0.0
H763 H 0.7284 0.39137 0.26895 0.0
H764 H 0.65586 0.33209 0.16431 0.0
H765 H 0.62956 0.37333 0.17063 0.0
H766 H 0.66971 0.28144 0.1804 0.0
H767 H 0.70498 0.26496 0.19898 0.0
C768 C 0.1977 0.93305 0.43713 0.0
C769 C 0.16922 0.91688 0.42214 0.0
C770 C 0.17883 0.85374 0.43878 0.0
C771 C 0.20988 0.86913 0.45222 0.0
N772 N 0.25438 0.92149 0.46047 0.0
N773 N 0.13748 0.86074 0.40561 0.0
C774 C 0.22087 0.90829 0.45039 0.0
C775 C 0.16118 0.87685 0.42204 0.0
N776 N 0.20185 0.97212 0.43923 0.0
N777 N 0.16506 0.8177 0.44266 0.0
H778 H 0.12418 0.87676 0.393 0.0
H779 H 0.1338 0.83113 0.40328 0.0
H780 H 0.17654 0.8002 0.45515 0.0
H781 H 0.13997 0.8066 0.43498 0.0
H782 H 0.21923 0.98554 0.45168 0.0
H783 H 0.18532 0.99134 0.42988 0.0
H784 H 0.26575 0.94867 0.45771 0.0
H785 H 0.27296 0.90405 0.46975 0.0
C786 C 0.18224 0.66734 0.67392 0.0
C787 C 0.15938 0.63681 0.68169 0.0
C788 C 0.18908 0.64555 0.71938 0.0
C789 C 0.20711 0.67978 0.71243 0.0
N790 N 0.21237 0.72816 0.68393 0.0
N791 N 0.1354 0.60187 0.71318 0.0
C792 C 0.20152 0.69207 0.6899 0.0
C793 C 0.1612 0.62721 0.70483 0.0
N794 N 0.18632 0.67232 0.65131 0.0
N795 N 0.19951 0.62968 0.73946 0.0
H796 H 0.11357 0.58882 0.70329 0.0
H797 H 0.13329 0.5969 0.73037 0.0
H798 H 0.22127 0.64118 0.75007 0.0
H799 H 0.18959 0.6029 0.74433 0.0
H800 H 0.20556 0.69209 0.64492 0.0
H801 H 0.17372 0.65397 0.639 0.0
H802 H 0.20547 0.73938 0.6682 0.0
H803 H 0.22409 0.74856 0.69534 0.0
C804 C 0.35028 0.59201 0.93259 0.0
C805 C 0.37759 0.60526 0.91721 0.0
C806 C 0.36617 0.67192 0.92966 0.0
C807 C 0.33711 0.65894 0.94412 0.0
N808 N 0.29545 0.60768 0.95556 0.0
N809 N 0.40553 0.65765 0.89731 0.0
C810 C 0.3274 0.61923 0.94451 0.0
C811 C 0.38356 0.64522 0.91451 0.0
N812 N 0.3469 0.55348 0.93624 0.0
N813 N 0.37888 0.70918 0.93131 0.0
H814 H 0.4191 0.63887 0.88602 0.0
H815 H 0.40742 0.68643 0.89297 0.0
H816 H 0.36792 0.72952 0.94267 0.0
H817 H 0.40282 0.71905 0.92292 0.0
H818 H 0.33078 0.54237 0.94914 0.0
H819 H 0.36252 0.53264 0.92739 0.0
H820 H 0.28478 0.57965 0.95459 0.0
H821 H 0.27726 0.62689 0.9639 0.0
C822 C 0.39473 0.88591 0.18394 0.0
C823 C 0.43527 0.88367 0.18197 0.0
C824 C 0.43988 0.84704 0.21668 0.0
C825 C 0.40013 0.85365 0.22021 0.0
N826 N 0.34029 0.88338 0.20867 0.0
N827 N 0.49744 0.8666 0.1978 0.0
C828 C 0.37756 0.87391 0.20414 0.0
C829 C 0.45815 0.86532 0.19866 0.0
N830 N 0.37268 0.89908 0.16636 0.0
N831 N 0.45987 0.82208 0.23003 0.0
H832 H 0.51205 0.87922 0.18472 0.0
H833 H 0.5156 0.85783 0.21092 0.0
H834 H 0.44733 0.80733 0.24308 0.0
H835 H 0.48781 0.81305 0.22678 0.0
H836 H 0.34272 0.89777 0.16579 0.0
H837 H 0.38447 0.90823 0.15139 0.0
H838 H 0.32372 0.90169 0.19878 0.0
H839 H 0.3268 0.87562 0.2234 0.0
C840 C 0.09782 0.66419 0.83535 0.0
C841 C 0.11877 0.65006 0.85424 0.0
C842 C 0.17915 0.67327 0.83891 0.0
C843 C 0.15813 0.68779 0.8201 0.0
N844 N 0.09729 0.70607 0.80325 0.0
N845 N 0.17714 0.64928 0.87696 0.0
C846 C 0.11733 0.68612 0.81926 0.0
C847 C 0.15876 0.65745 0.857 0.0
N848 N 0.05972 0.65508 0.83219 0.0
N849 N 0.21852 0.67222 0.83886 0.0
H850 H 0.16285 0.63754 0.89046 0.0
H851 H 0.20544 0.65738 0.8809 0.0
H852 H 0.23471 0.68303 0.82588 0.0
H853 H 0.23517 0.65794 0.85084 0.0
H854 H 0.04412 0.66052 0.81739 0.0
H855 H 0.04416 0.63967 0.84378 0.0
H856 H 0.06746 0.7091 0.80306 0.0
H857 H 0.11083 0.7228 0.7914 0.0
C858 C 0.37171 0.56867 0.06482 0.0
C859 C 0.37383 0.58539 0.08691 0.0
C860 C 0.32361 0.63151 0.07654 0.0
C861 C 0.32594 0.61867 0.0537 0.0
N862 N 0.35547 0.5778 0.0254 0.0
N863 N 0.35417 0.6344 0.11378 0.0
C864 C 0.35047 0.58763 0.04764 0.0
C865 C 0.35015 0.61708 0.09287 0.0
N866 N 0.38977 0.53447 0.06037 0.0
N867 N 0.2955 0.65695 0.08265 0.0
H868 H 0.37293 0.62434 0.1263 0.0
H869 H 0.34095 0.66028 0.11823 0.0
H870 H 0.27527 0.66759 0.07109 0.0
H871 H 0.2899 0.66464 0.09934 0.0
H872 H 0.38603 0.51886 0.04523 0.0
H873 H 0.40568 0.51986 0.0726 0.0
H874 H 0.37641 0.55853 0.01993 0.0
H875 H 0.34093 0.59114 0.01216 0.0
C876 C 0.46025 0.8433 0.33589 0.0
C877 C 0.44666 0.86098 0.35598 0.0
C878 C 0.38347 0.831 0.34963 0.0
C879 C 0.39717 0.81254 0.32966 0.0
N880 N 0.45072 0.79347 0.30683 0.0
N881 N 0.39946 0.86445 0.38505 0.0
C882 C 0.43631 0.81634 0.32373 0.0
C883 C 0.40964 0.85225 0.3639 0.0
N884 N 0.49553 0.8532 0.32809 0.0
N885 N 0.34506 0.83075 0.35421 0.0
H886 H 0.4177 0.88078 0.3958 0.0
H887 H 0.37446 0.85542 0.39272 0.0
H888 H 0.32436 0.81621 0.34424 0.0
H889 H 0.33304 0.84777 0.36692 0.0
H890 H 0.50516 0.84492 0.31219 0.0
H891 H 0.5144 0.87174 0.33703 0.0
H892 H 0.4798 0.79236 0.30301 0.0
H893 H 0.43412 0.77274 0.29799 0.0
C894 C 0.2176 0.91332 0.61066 0.0
C895 C 0.21754 0.9533 0.60636 0.0
C896 C 0.25723 0.94239 0.57318 0.0
C897 C 0.2562 0.90224 0.577 0.0
N898 N 0.24188 0.84957 0.60118 0.0
N899 N 0.24287 0.00727 0.5869 0.0
C900 C 0.23871 0.88778 0.59647 0.0
C901 C 0.23929 0.96827 0.58867 0.0
N902 N 0.1959 0.89971 0.6277 0.0
N903 N 0.27465 0.95554 0.55441 0.0
H904 H 0.22974 0.02681 0.59793 0.0
H905 H 0.26094 0.02048 0.57569 0.0
H906 H 0.29026 0.93768 0.54357 0.0
H907 H 0.27268 0.98371 0.54901 0.0
H908 H 0.19058 0.87068 0.63015 0.0
H909 H 0.18147 0.91773 0.63902 0.0
H910 H 0.23345 0.8378 0.61624 0.0
H911 H 0.25527 0.82957 0.59058 0.0
C912 C 0.64579 0.34501 0.91667 0.0
C913 C 0.62322 0.37833 0.9208 0.0
C914 C 0.6466 0.38136 0.96019 0.0
C915 C 0.67204 0.35046 0.95548 0.0
N916 N 0.70002 0.30592 0.92865 0.0
N917 N 0.6065 0.4321 0.94526 0.0
C918 C 0.67267 0.33292 0.93357 0.0
C919 C 0.6248 0.39758 0.94224 0.0
N920 N 0.64095 0.32456 0.89678 0.0
N921 N 0.64221 0.39429 0.98198 0.0
H922 H 0.59009 0.44501 0.93259 0.0
H923 H 0.61023 0.44958 0.9597 0.0
H924 H 0.6572 0.38269 0.99566 0.0
H925 H 0.62112 0.41392 0.98678 0.0
H926 H 0.65347 0.2978 0.89367 0.0
H927 H 0.62191 0.33297 0.88394 0.0
H928 H 0.70475 0.29519 0.91239 0.0
H929 H 0.72019 0.29636 0.94056 0.0
C930 C 0.70406 0.12798 0.15414 0.0
C931 C 0.68662 0.09604 0.16419 0.0
C932 C 0.72025 0.11269 0.19984 0.0
C933 C 0.73122 0.14854 0.19099 0.0
N934 N 0.72616 0.19323 0.16025 0.0
N935 N 0.6733 0.06131 0.19798 0.0
C936 C 0.72151 0.15699 0.1682 0.0
C937 C 0.69353 0.08905 0.18742 0.0
N938 N 0.70417 0.13049 0.13119 0.0
N939 N 0.73601 0.10071 0.2198 0.0
H940 H 0.65244 0.04408 0.18976 0.0
H941 H 0.67463 0.058 0.21541 0.0
H942 H 0.75721 0.11636 0.22885 0.0
H943 H 0.73131 0.07332 0.22595 0.0
H944 H 0.71946 0.15162 0.12301 0.0
H945 H 0.69252 0.10905 0.12038 0.0
H946 H 0.71585 0.20122 0.14439 0.0
H947 H 0.73618 0.21648 0.17018 0.0
C948 C 0.91905 0.14955 0.43314 0.0
C949 C 0.94107 0.16812 0.41678 0.0
C950 C 0.91778 0.2311 0.43017 0.0
C951 C 0.89429 0.21228 0.44572 0.0
N952 N 0.86548 0.15372 0.45844 0.0
N953 N 0.95668 0.22533 0.39677 0.0
C954 C 0.89286 0.1715 0.44617 0.0
C955 C 0.93899 0.2086 0.41439 0.0
N956 N 0.92408 0.11115 0.43675 0.0
N957 N 0.92102 0.27033 0.4311 0.0
H958 H 0.97272 0.20968 0.38504 0.0
H959 H 0.953 0.25407 0.39269 0.0
H960 H 0.90564 0.2877 0.44231 0.0
H961 H 0.94092 0.28553 0.42195 0.0
H962 H 0.91218 0.09705 0.45021 0.0
H963 H 0.94271 0.09388 0.42739 0.0
H964 H 0.86036 0.12417 0.45755 0.0
H965 H 0.8452 0.16884 0.46784 0.0
C966 C 0.87188 0.44041 0.67621 0.0
C967 C 0.89213 0.42283 0.65817 0.0
C968 C 0.86131 0.36067 0.66515 0.0
C969 C 0.84392 0.37744 0.6845 0.0
N970 N 0.83182 0.43256 0.70882 0.0
N971 N 0.90723 0.36704 0.63513 0.0
C972 C 0.84878 0.41723 0.69003 0.0
C973 C 0.88682 0.38322 0.6524 0.0
N974 N 0.8746 0.47936 0.67996 0.0
N975 N 0.85361 0.32309 0.65911 0.0
H976 H 0.92453 0.38307 0.62471 0.0
H977 H 0.90861 0.33763 0.63157 0.0
H978 H 0.83678 0.30512 0.66865 0.0
H979 H 0.86201 0.30994 0.64406 0.0
H980 H 0.85772 0.4949 0.69121 0.0
H981 H 0.89239 0.49699 0.67078 0.0
H982 H 0.83776 0.45989 0.71562 0.0
H983 H 0.81238 0.41729 0.71832 0.0
C984 C 0.64257 0.12808 0.31624 0.0
C985 C 0.64249 0.13962 0.33938 0.0
C986 C 0.6792 0.19764 0.33092 0.0
C987 C 0.67586 0.18797 0.30751 0.0
N988 N 0.64712 0.14809 0.27761 0.0
N989 N 0.65461 0.18853 0.36834 0.0
C990 C 0.65551 0.1543 0.30008 0.0
C991 C 0.65902 0.17536 0.34662 0.0
N992 N 0.63142 0.0916 0.30975 0.0
N993 N 0.70311 0.22686 0.33833 0.0
H994 H 0.64007 0.17303 0.38034 0.0
H995 H 0.66241 0.2162 0.37392 0.0
H996 H 0.71914 0.24334 0.3275 0.0
H997 H 0.70987 0.23243 0.35533 0.0
H998 H 0.63483 0.08028 0.29347 0.0
H999 H 0.62214 0.07134 0.32111 0.0
H1000 H 0.62904 0.12607 0.27146 0.0
H1001 H 0.6549 0.16724 0.26525 0.0
C1002 C 0.9278 0.14799 0.57877 0.0
C1003 C 0.94211 0.16592 0.59906 0.0
C1004 C 0.90492 0.22395 0.5909 0.0
C1005 C 0.888 0.20471 0.57166 0.0
N1006 N 0.87684 0.14551 0.55019 0.0
N1007 N 0.9389 0.21777 0.62683 0.0
C1008 C 0.89761 0.16587 0.56639 0.0
C1009 C 0.92904 0.20298 0.60587 0.0
N1010 N 0.94381 0.11443 0.57097 0.0
N1011 N 0.89966 0.26263 0.59431 0.0
H1012 H 0.95669 0.20329 0.63822 0.0
H1013 H 0.92673 0.24273 0.63366 0.0
H1014 H 0.88298 0.27938 0.58351 0.0
H1015 H 0.91478 0.27879 0.60666 0.0
H1016 H 0.93738 0.10231 0.55505 0.0
H1017 H 0.96612 0.10043 0.57952 0.0
H1018 H 0.88007 0.11601 0.54725 0.0
H1019 H 0.85358 0.15714 0.54124 0.0
C1020 C 0.9001 0.40504 0.82386 0.0
C1021 C 0.92257 0.38553 0.84019 0.0
C1022 C 0.90579 0.32367 0.82179 0.0
C1023 C 0.87933 0.34287 0.80735 0.0
N1024 N 0.84604 0.40162 0.79755 0.0
N1025 N 0.94367 0.32628 0.85672 0.0
C1026 C 0.87517 0.38355 0.80904 0.0
C1027 C 0.92466 0.34479 0.83971 0.0
N1028 N 0.90307 0.44412 0.82224 0.0
N1029 N 0.91391 0.28563 0.81787 0.0
H1030 H 0.95814 0.34088 0.87001 0.0
H1031 H 0.94256 0.29659 0.85861 0.0
H1032 H 0.90141 0.2695 0.80451 0.0
H1033 H 0.93572 0.27107 0.82646 0.0
H1034 H 0.89054 0.4593 0.80904 0.0
H1035 H 0.92106 0.46099 0.83284 0.0
H1036 H 0.83912 0.43049 0.80034 0.0
H1037 H 0.82625 0.3873 0.78684 0.0
C1038 C 0.68536 0.38138 0.10423 0.0
C1039 C 0.66156 0.40973 0.09435 0.0
C1040 C 0.69149 0.39673 0.05798 0.0
C1041 C 0.70984 0.36382 0.06697 0.0
N1042 N 0.7163 0.32015 0.09815 0.0
N1043 N 0.63717 0.43985 0.06056 0.0
C1044 C 0.70496 0.35491 0.09003 0.0
C1045 C 0.66337 0.41638 0.07087 0.0
N1046 N 0.68953 0.37986 0.12717 0.0
N1047 N 0.70156 0.40989 0.03742 0.0
H1048 H 0.61521 0.45385 0.06917 0.0
H1049 H 0.63498 0.44234 0.0431 0.0
H1050 H 0.7234 0.39738 0.02796 0.0
H1051 H 0.69129 0.43566 0.03101 0.0
H1052 H 0.70926 0.36178 0.13512 0.0
H1053 H 0.67636 0.39954 0.13812 0.0
H1054 H 0.70978 0.31132 0.11429 0.0
H1055 H 0.72804 0.29825 0.08818 0.0
loop_
_geom_bond_atom_site_label_1
_geom_bond_atom_site_label_2
_geom_bond_distance
_geom_bond_site_symmetry_2
_ccdc_geom_bond_type
C0 C1 1.384 . S
C0 C2 1.384 . S
C0 H28 0.931 . S
C1 C0 1.384 . S
C1 C4 1.382 . S
C2 C0 1.384 . S
C2 C3 1.381 . S
C2 H29 0.930 . S
C3 C2 1.381 . S
C3 C5 1.381 1_565 S
C3 C6 1.487 1_565 S
C4 C1 1.382 . S
C4 C5 1.387 1_565 S
C4 H30 0.930 . S
C5 C3 1.381 1_545 S
C5 C4 1.387 1_545 S
C5 H31 0.931 . S
C6 C3 1.487 1_545 S
C6 C13 1.399 1_545 S
C6 N44 1.343 . S
C7 C8 1.384 . S
C7 C9 1.384 . S
C7 H32 0.931 . S
C8 C7 1.384 . S
C8 C11 1.382 . S
C9 C7 1.384 . S
C9 C10 1.381 . S
C9 H33 0.930 . S
C10 C9 1.381 . S
C10 C12 1.381 . S
C10 C13 1.487 . S
C11 C8 1.382 . S
C11 C12 1.387 . S
C11 H34 0.930 . S
C12 C10 1.381 . S
C12 C11 1.387 . S
C12 H35 0.931 . S
C13 C6 1.399 1_565 S
C13 C10 1.487 . S
C13 N45 1.343 1_565 S
C14 C15 1.384 . S
C14 C16 1.384 1_655 S
C14 H36 0.931 . S
C15 C14 1.384 . S
C15 C18 1.382 . S
C16 C14 1.384 1_455 S
C16 C17 1.381 . S
C16 H37 0.930 . S
C17 C16 1.381 . S
C17 C19 1.381 1_455 S
C17 C20 1.487 . S
C18 C15 1.382 . S
C18 C19 1.387 . S
C18 H38 0.930 . S
C19 C17 1.381 1_655 S
C19 C18 1.387 . S
C19 H39 0.931 1_655 S
C20 C17 1.487 . S
C20 C27 1.399 . S
C20 N45 1.343 . S
C21 C22 1.384 . S
C21 C23 1.384 . S
C21 H40 0.931 . S
C22 C21 1.384 . S
C22 C25 1.382 1_655 S
C23 C21 1.384 . S
C23 C24 1.381 1_655 S
C23 H41 0.930 . S
C24 C23 1.381 1_455 S
C24 C26 1.381 . S
C24 C27 1.487 . S
C25 C22 1.382 1_455 S
C25 C26 1.387 . S
C25 H42 0.930 . S
C26 C24 1.381 . S
C26 C25 1.387 . S
C26 H43 0.931 . S
C27 C20 1.399 . S
C27 C24 1.487 . S
C27 N44 1.343 . S
H28 C0 0.931 . S
H29 C2 0.930 . S
H30 C4 0.930 . S
H31 C5 0.931 . S
H32 C7 0.931 . S
H33 C9 0.930 . S
H34 C11 0.930 . S
H35 C12 0.931 . S
H36 C14 0.931 . S
H37 C16 0.930 . S
H38 C18 0.930 . S
H39 C19 0.931 1_455 S
H40 C21 0.931 . S
H41 C23 0.930 . S
H42 C25 0.930 . S
H43 C26 0.931 . S
N44 C6 1.343 . S
N44 C27 1.343 . S
N45 C13 1.343 1_545 S
N45 C20 1.343 . S
C46 C47 1.384 . S
C46 C48 1.384 . S
C46 H74 0.931 . S
C47 C46 1.384 . S
C47 C50 1.382 . S
C48 C46 1.384 . S
C48 C49 1.381 . S
C48 H75 0.930 . S
C49 C48 1.381 . S
C49 C51 1.381 . S
C49 C52 1.487 . S
C50 C47 1.382 . S
C50 C51 1.387 . S
C50 H76 0.930 . S
C51 C49 1.381 . S
C51 C50 1.387 . S
C51 H77 0.931 1_655 S
C52 C49 1.487 . S
C52 C59 1.399 . S
C52 N90 1.343 1_655 S
C53 C54 1.384 . S
C53 C55 1.384 . S
C53 H78 0.931 . S
C54 C53 1.384 . S
C54 C57 1.382 . S
C55 C53 1.384 . S
C55 C56 1.381 . S
C55 H79 0.930 . S
C56 C55 1.381 . S
C56 C58 1.381 . S
C56 C59 1.487 . S
C57 C54 1.382 . S
C57 C58 1.387 . S
C57 H80 0.930 . S
C58 C56 1.381 . S
C58 C57 1.387 . S
C58 H81 0.931 . S
C59 C52 1.399 . S
C59 C56 1.487 . S
C59 N91 1.343 1_655 S
C60 C61 1.384 . S
C60 C62 1.384 . S
C60 H82 0.931 . S
C61 C60 1.384 . S
C61 C64 1.382 . S
C62 C60 1.384 . S
C62 C63 1.381 . S
C62 H83 0.930 . S
C63 C62 1.381 . S
C63 C65 1.381 . S
C63 C66 1.487 . S
C64 C61 1.382 . S
C64 C65 1.387 . S
C64 H84 0.930 . S
C65 C63 1.381 . S
C65 C64 1.387 . S
C65 H85 0.931 . S
C66 C63 1.487 . S
C66 C73 1.399 . S
C66 N91 1.343 . S
C67 C68 1.384 . S
C67 C69 1.384 . S
C67 H86 0.931 . S
C68 C67 1.384 . S
C68 C71 1.382 . S
C69 C67 1.384 . S
C69 C70 1.381 . S
C69 H87 0.930 . S
C70 C69 1.381 . S
C70 C72 1.381 . S
C70 C73 1.487 . S
C71 C68 1.382 . S
C71 C72 1.387 . S
C71 H88 0.930 . S
C72 C70 1.381 . S
C72 C71 1.387 . S
C72 H89 0.931 . S
C73 C66 1.399 . S
C73 C70 1.487 . S
C73 N90 1.343 . S
H74 C46 0.931 . S
H75 C48 0.930 . S
H76 C50 0.930 . S
H77 C51 0.931 1_455 S
H78 C53 0.931 . S
H79 C55 0.930 . S
H80 C57 0.930 . S
H81 C58 0.931 . S
H82 C60 0.931 . S
H83 C62 0.930 . S
H84 C64 0.930 . S
H85 C65 0.931 . S
H86 C67 0.931 . S
H87 C69 0.930 . S
H88 C71 0.930 . S
H89 C72 0.931 . S
N90 C52 1.343 1_455 S
N90 C73 1.343 . S
N91 C59 1.343 1_455 S
N91 C66 1.343 . S
C92 C93 1.384 . S
C92 C94 1.384 . S
C92 H120 0.931 . S
C93 C92 1.384 . S
C93 C96 1.382 . S
C94 C92 1.384 . S
C94 C95 1.381 . S
C94 H121 0.930 . S
C95 C94 1.381 . S
C95 C97 1.381 . S
C95 C98 1.487 . S
C96 C93 1.382 . S
C96 C97 1.387 . S
C96 H122 0.930 . S
C97 C95 1.381 . S
C97 C96 1.387 . S
C97 H123 0.931 . S
C98 C95 1.487 . S
C98 C105 1.399 . S
C98 N136 1.343 . S
C99 C100 1.384 . S
C99 C101 1.384 . S
C99 H124 0.931 . S
C100 C99 1.384 . S
C100 C103 1.382 . S
C101 C99 1.384 . S
C101 C102 1.381 . S
C101 H125 0.930 . S
C102 C101 1.381 . S
C102 C104 1.381 . S
C102 C105 1.487 . S
C103 C100 1.382 . S
C103 C104 1.387 . S
C103 H126 0.930 . S
C104 C102 1.381 . S
C104 C103 1.387 . S
C104 H127 0.931 . S
C105 C98 1.399 . S
C105 C102 1.487 . S
C105 N137 1.343 . S
C106 C107 1.384 . S
C106 C108 1.384 . S
C106 H128 0.931 . S
C107 C106 1.384 . S
C107 C110 1.382 . S
C108 C106 1.384 . S
C108 C109 1.381 . S
C108 H129 0.930 . S
C109 C108 1.381 . S
C109 C111 1.381 . S
C109 C112 1.487 . S
C110 C107 1.382 . S
C110 C111 1.387 . S
C110 H130 0.930 . S
C111 C109 1.381 . S
C111 C110 1.387 . S
C111 H131 0.931 . S
C112 C109 1.487 . S
C112 C119 1.399 . S
C112 N137 1.343 . S
C113 C114 1.384 . S
C113 C115 1.384 . S
C113 H132 0.931 . S
C114 C113 1.384 . S
C114 C117 1.382 . S
C115 C113 1.384 . S
C115 C116 1.381 . S
C115 H133 0.930 . S
C116 C115 1.381 . S
C116 C118 1.381 . S
C116 C119 1.487 . S
C117 C114 1.382 . S
C117 C118 1.387 . S
C117 H134 0.930 . S
C118 C116 1.381 . S
C118 C117 1.387 . S
C118 H135 0.931 . S
C119 C112 1.399 . S
C119 C116 1.487 . S
C119 N136 1.343 . S
H120 C92 0.931 . S
H121 C94 0.930 . S
H122 C96 0.930 . S
H123 C97 0.931 . S
H124 C99 0.931 . S
H125 C101 0.930 . S
H126 C103 0.930 . S
H127 C104 0.931 . S
H128 C106 0.931 . S
H129 C108 0.930 . S
H130 C110 0.930 . S
H131 C111 0.931 . S
H132 C113 0.931 . S
H133 C115 0.930 . S
H134 C117 0.930 . S
H135 C118 0.931 . S
N136 C98 1.343 . S
N136 C119 1.343 . S
N137 C105 1.343 . S
N137 C112 1.343 . S
C138 C139 1.384 . S
C138 C140 1.384 . S
C138 H166 0.931 . S
C139 C138 1.384 . S
C139 C142 1.382 . S
C140 C138 1.384 . S
C140 C141 1.381 . S
C140 H167 0.930 . S
C141 C140 1.381 . S
C141 C143 1.381 . S
C141 C144 1.487 . S
C142 C139 1.382 . S
C142 C143 1.387 . S
C142 H168 0.930 . S
C143 C141 1.381 . S
C143 C142 1.387 . S
C143 H169 0.931 . S
C144 C141 1.487 . S
C144 C151 1.399 . S
C144 N182 1.343 1_565 S
C145 C146 1.384 . S
C145 C147 1.384 . S
C145 H170 0.931 . S
C146 C145 1.384 . S
C146 C149 1.382 . S
C147 C145 1.384 . S
C147 C148 1.381 . S
C147 H171 0.930 . S
C148 C147 1.381 . S
C148 C150 1.381 . S
C148 C151 1.487 . S
C149 C146 1.382 . S
C149 C150 1.387 . S
C149 H172 0.930 . S
C150 C148 1.381 . S
C150 C149 1.387 . S
C150 H173 0.931 . S
C151 C144 1.399 . S
C151 C148 1.487 . S
C151 N183 1.343 . S
C152 C153 1.384 . S
C152 C154 1.384 . S
C152 H174 0.931 . S
C153 C152 1.384 . S
C153 C156 1.382 . S
C154 C152 1.384 . S
C154 C155 1.381 . S
C154 H175 0.930 . S
C155 C154 1.381 . S
C155 C157 1.381 . S
C155 C158 1.487 . S
C156 C153 1.382 . S
C156 C157 1.387 . S
C156 H176 0.930 . S
C157 C155 1.381 . S
C157 C156 1.387 . S
C157 H177 0.931 . S
C158 C155 1.487 . S
C158 C165 1.399 . S
C158 N183 1.343 1_545 S
C159 C160 1.384 . S
C159 C161 1.384 . S
C159 H178 0.931 . S
C160 C159 1.384 . S
C160 C163 1.382 . S
C161 C159 1.384 . S
C161 C162 1.381 . S
C161 H179 0.930 . S
C162 C161 1.381 . S
C162 C164 1.381 . S
C162 C165 1.487 . S
C163 C160 1.382 . S
C163 C164 1.387 . S
C163 H180 0.930 . S
C164 C162 1.381 . S
C164 C163 1.387 . S
C164 H181 0.931 . S
C165 C158 1.399 . S
C165 C162 1.487 . S
C165 N182 1.343 . S
H166 C138 0.931 . S
H167 C140 0.930 . S
H168 C142 0.930 . S
H169 C143 0.931 . S
H170 C145 0.931 . S
H171 C147 0.930 . S
H172 C149 0.930 . S
H173 C150 0.931 . S
H174 C152 0.931 . S
H175 C154 0.930 . S
H176 C156 0.930 . S
H177 C157 0.931 . S
H178 C159 0.931 . S
H179 C161 0.930 . S
H180 C163 0.930 . S
H181 C164 0.931 . S
N182 C144 1.343 1_545 S
N182 C165 1.343 . S
N183 C151 1.343 . S
N183 C158 1.343 1_565 S
C184 C185 1.384 . S
C184 C186 1.384 . S
C184 H212 0.931 . S
C185 C184 1.384 . S
C185 C188 1.382 . S
C186 C184 1.384 . S
C186 C187 1.381 . S
C186 H213 0.930 . S
C187 C186 1.381 . S
C187 C189 1.381 . S
C187 C190 1.487 . S
C188 C185 1.382 . S
C188 C189 1.387 . S
C188 H214 0.930 . S
C189 C187 1.381 . S
C189 C188 1.387 . S
C189 H215 0.931 . S
C190 C187 1.487 . S
C190 C197 1.399 . S
C190 N228 1.357 . S
C191 C192 1.384 . S
C191 C193 1.384 . S
C191 H216 0.931 . S
C192 C191 1.384 . S
C192 C195 1.382 . S
C193 C191 1.384 . S
C193 C194 1.381 . S
C193 H217 0.930 . S
C194 C193 1.381 . S
C194 C196 1.381 . S
C194 C197 1.487 . S
C195 C192 1.382 . S
C195 C196 1.387 . S
C195 H218 0.930 1_556 S
C196 C194 1.381 . S
C196 C195 1.387 . S
C196 H219 0.931 . S
C197 C190 1.399 . S
C197 C194 1.487 . S
C197 N229 1.333 1_455 S
C198 C199 1.384 . S
C198 C200 1.384 . S
C198 H220 0.931 . S
C199 C198 1.384 . S
C199 C202 1.382 . S
C200 C198 1.384 . S
C200 C201 1.381 . S
C200 H221 0.930 . S
C201 C200 1.381 . S
C201 C203 1.381 . S
C201 C204 1.487 . S
C202 C199 1.382 . S
C202 C203 1.387 . S
C202 H222 0.930 . S
C203 C201 1.381 . S
C203 C202 1.387 . S
C203 H223 0.931 . S
C204 C201 1.487 . S
C204 C211 1.399 . S
C204 N229 1.352 . S
C205 C206 1.384 . S
C205 C207 1.384 . S
C205 H224 0.931 . S
C206 C205 1.384 . S
C206 C209 1.382 . S
C207 C205 1.384 . S
C207 C208 1.381 . S
C207 H225 0.930 . S
C208 C207 1.381 . S
C208 C210 1.381 . S
C208 C211 1.487 . S
C209 C206 1.382 . S
C209 C210 1.387 . S
C209 H226 0.930 . S
C210 C208 1.381 . S
C210 C209 1.387 . S
C210 H227 0.931 . S
C211 C204 1.399 . S
C211 C208 1.487 . S
C211 N228 1.328 1_655 S
H212 C184 0.931 . S
H213 C186 0.930 . S
H214 C188 0.930 . S
H215 C189 0.931 . S
H216 C191 0.931 . S
H217 C193 0.930 . S
H218 C195 0.930 1_554 S
H219 C196 0.931 . S
H220 C198 0.931 . S
H221 C200 0.930 . S
H222 C202 0.930 . S
H223 C203 0.931 . S
H224 C205 0.931 . S
H225 C207 0.930 . S
H226 C209 0.930 . S
H227 C210 0.931 . S
N228 C190 1.357 . S
N228 C211 1.328 1_455 S
N229 C197 1.333 1_655 S
N229 C204 1.352 . S
C230 C231 1.384 . S
C230 C232 1.384 . S
C230 H258 0.931 . S
C231 C230 1.384 . S
C231 C234 1.382 . S
C232 C230 1.384 . S
C232 C233 1.381 . S
C232 H259 0.930 . S
C233 C232 1.381 . S
C233 C235 1.381 . S
C233 C236 1.487 . S
C234 C231 1.382 . S
C234 C235 1.387 . S
C234 H260 0.930 . S
C235 C233 1.381 . S
C235 C234 1.387 . S
C235 H261 0.931 . S
C236 C233 1.487 . S
C236 C243 1.399 . S
C236 N274 1.343 . S
C237 C238 1.384 . S
C237 C239 1.384 . S
C237 H262 0.931 . S
C238 C237 1.384 . S
C238 C241 1.382 . S
C239 C237 1.384 . S
C239 C240 1.381 . S
C239 H263 0.930 . S
C240 C239 1.381 . S
C240 C242 1.381 . S
C240 C243 1.487 . S
C241 C238 1.382 . S
C241 C242 1.387 . S
C241 H264 0.930 . S
C242 C240 1.381 . S
C242 C241 1.387 . S
C242 H265 0.931 . S
C243 C236 1.399 . S
C243 C240 1.487 . S
C243 N275 1.343 . S
C244 C245 1.384 . S
C244 C246 1.384 . S
C244 H266 0.931 . S
C245 C244 1.384 . S
C245 C248 1.382 . S
C246 C244 1.384 . S
C246 C247 1.381 . S
C246 H267 0.930 . S
C247 C246 1.381 . S
C247 C249 1.381 . S
C247 C250 1.487 . S
C248 C245 1.382 . S
C248 C249 1.387 . S
C248 H268 0.930 . S
C249 C247 1.381 . S
C249 C248 1.387 . S
C249 H269 0.931 . S
C250 C247 1.487 . S
C250 C257 1.399 . S
C250 N275 1.343 . S
C251 C252 1.384 . S
C251 C253 1.384 . S
C251 H270 0.931 . S
C252 C251 1.384 . S
C252 C255 1.382 . S
C253 C251 1.384 . S
C253 C254 1.381 . S
C253 H271 0.930 . S
C254 C253 1.381 . S
C254 C256 1.381 . S
C254 C257 1.487 . S
C255 C252 1.382 . S
C255 C256 1.387 . S
C255 H272 0.930 . S
C256 C254 1.381 . S
C256 C255 1.387 . S
C256 H273 0.931 . S
C257 C250 1.399 . S
C257 C254 1.487 . S
C257 N274 1.343 . S
H258 C230 0.931 . S
H259 C232 0.930 . S
H260 C234 0.930 . S
H261 C235 0.931 . S
H262 C237 0.931 . S
H263 C239 0.930 . S
H264 C241 0.930 . S
H265 C242 0.931 . S
H266 C244 0.931 . S
H267 C246 0.930 . S
H268 C248 0.930 . S
H269 C249 0.931 . S
H270 C251 0.931 . S
H271 C253 0.930 . S
H272 C255 0.930 . S
H273 C256 0.931 . S
N274 C236 1.343 . S
N274 C257 1.343 . S
N275 C243 1.343 . S
N275 C250 1.343 . S
C276 C277 1.384 . S
C276 C278 1.384 . S
C276 H304 0.931 . S
C277 C276 1.384 . S
C277 C280 1.382 . S
C278 C276 1.384 . S
C278 C279 1.381 . S
C278 H305 0.930 . S
C279 C278 1.381 . S
C279 C281 1.381 . S
C279 C282 1.487 . S
C280 C277 1.382 . S
C280 C281 1.387 . S
C280 H306 0.930 . S
C281 C279 1.381 . S
C281 C280 1.387 . S
C281 H307 0.959 . S
C282 C279 1.487 . S
C282 C289 1.399 . S
C282 N320 1.332 1_565 S
C283 C284 1.384 . S
C283 C285 1.384 . S
C283 H308 0.931 . S
C284 C283 1.384 . S
C284 C287 1.382 . S
C285 C283 1.384 . S
C285 C286 1.381 . S
C285 H309 0.930 . S
C286 C285 1.381 . S
C286 C288 1.381 . S
C286 C289 1.487 . S
C287 C284 1.382 . S
C287 C288 1.387 . S
C287 H310 0.930 . S
C288 C286 1.381 . S
C288 C287 1.387 . S
C288 H311 0.931 . S
C289 C282 1.399 . S
C289 C286 1.487 . S
C289 N321 1.348 . S
C290 C291 1.384 . S
C290 C292 1.384 . S
C290 H312 0.931 . S
C291 C290 1.384 . S
C291 C294 1.382 . S
C292 C290 1.384 . S
C292 C293 1.381 . S
C292 H313 0.930 . S
C293 C292 1.381 . S
C293 C295 1.381 . S
C293 C296 1.487 . S
C294 C291 1.382 . S
C294 C295 1.387 . S
C294 H314 0.930 . S
C295 C293 1.381 . S
C295 C294 1.387 . S
C295 H315 0.931 . S
C296 C293 1.487 . S
C296 C303 1.399 . S
C296 N321 1.338 1_545 S
C297 C298 1.384 . S
C297 C299 1.384 . S
C297 H316 0.931 . S
C298 C297 1.384 . S
C298 C301 1.382 . S
C299 C297 1.384 . S
C299 C300 1.381 . S
C299 H317 0.930 . S
C300 C299 1.381 . S
C300 C302 1.381 . S
C300 C303 1.487 . S
C301 C298 1.382 . S
C301 C302 1.387 . S
C301 H318 0.930 . S
C302 C300 1.381 . S
C302 C301 1.387 . S
C302 H319 0.931 . S
C303 C296 1.399 . S
C303 C300 1.487 . S
C303 N320 1.353 . S
H304 C276 0.931 . S
H305 C278 0.930 . S
H306 C280 0.930 . S
H307 C281 0.959 . S
H308 C283 0.931 . S
H309 C285 0.930 . S
H310 C287 0.930 . S
H311 C288 0.931 . S
H312 C290 0.931 . S
H313 C292 0.930 . S
H314 C294 0.930 . S
H315 C295 0.931 . S
H316 C297 0.931 . S
H317 C299 0.930 . S
H318 C301 0.930 . S
H319 C302 0.931 . S
N320 C282 1.332 1_545 S
N320 C303 1.353 . S
N321 C289 1.348 . S
N321 C296 1.338 1_565 S
C322 C323 1.384 . S
C322 C324 1.384 . S
C322 H350 0.931 . S
C323 C322 1.384 . S
C323 C326 1.382 . S
C324 C322 1.384 . S
C324 C325 1.383 . S
C324 H351 0.930 1_565 S
C325 C324 1.383 . S
C325 C327 1.386 . S
C325 C328 1.481 1_565 S
C326 C323 1.382 . S
C326 C327 1.387 . S
C326 H352 0.930 . S
C327 C325 1.386 . S
C327 C326 1.387 . S
C327 H353 0.931 . S
C328 C325 1.481 1_545 S
C328 C335 1.399 . S
C328 N366 1.343 . S
C329 C330 1.384 . S
C329 C331 1.384 . S
C329 H354 0.931 . S
C330 C329 1.384 . S
C330 C333 1.382 . S
C331 C329 1.384 . S
C331 C332 1.381 1_565 S
C331 H355 0.930 . S
C332 C331 1.381 1_545 S
C332 C334 1.381 . S
C332 C335 1.487 . S
C333 C330 1.382 . S
C333 C334 1.387 1_565 S
C333 H356 0.930 1_565 S
C334 C332 1.381 . S
C334 C333 1.387 1_545 S
C334 H357 0.931 . S
C335 C328 1.399 . S
C335 C332 1.487 . S
C335 N367 1.343 . S
C336 C337 1.384 . S
C336 C338 1.384 . S
C336 H358 0.931 . S
C337 C336 1.384 . S
C337 C340 1.382 1_655 S
C338 C336 1.384 . S
C338 C339 1.381 1_655 S
C338 H359 0.930 . S
C339 C338 1.381 1_455 S
C339 C341 1.381 . S
C339 C342 1.487 . S
C340 C337 1.382 1_455 S
C340 C341 1.387 . S
C340 H360 0.930 . S
C341 C339 1.381 . S
C341 C340 1.387 . S
C341 H361 0.931 . S
C342 C339 1.487 . S
C342 C349 1.399 . S
C342 N367 1.343 . S
C343 C344 1.374 1_455 S
C343 C345 1.393 . S
C343 H362 0.933 . S
C344 C343 1.374 1_655 S
C344 C347 1.382 . S
C345 C343 1.393 . S
C345 C346 1.381 . S
C345 H363 0.930 . S
C346 C345 1.381 . S
C346 C348 1.381 1_455 S
C346 C349 1.487 . S
C347 C344 1.382 . S
C347 C348 1.387 . S
C347 H364 0.930 . S
C348 C346 1.381 1_655 S
C348 C347 1.387 . S
C348 H365 0.931 . S
C349 C342 1.399 . S
C349 C346 1.487 . S
C349 N366 1.343 . S
H350 C322 0.931 . S
H351 C324 0.930 1_545 S
H352 C326 0.930 . S
H353 C327 0.931 . S
H354 C329 0.931 . S
H355 C331 0.930 . S
H356 C333 0.930 1_545 S
H357 C334 0.931 . S
H358 C336 0.931 . S
H359 C338 0.930 . S
H360 C340 0.930 . S
H361 C341 0.931 . S
H362 C343 0.933 . S
H363 C345 0.930 . S
H364 C347 0.930 . S
H365 C348 0.931 . S
N366 C328 1.343 . S
N366 C349 1.343 . S
N367 C335 1.343 . S
N367 C342 1.343 . S
Zn368 O371 2.031 . S
Zn368 O373 2.049 . S
Zn368 O378 2.067 . S
Zn369 O370 1.962 . S
Zn369 O372 1.986 . S
Zn369 O374 1.996 . S
Zn369 O377 1.943 1_554 S
O370 Zn369 1.962 . S
O370 C375 1.254 . S
O371 Zn368 2.031 . S
O371 C375 1.269 1_556 S
O372 Zn369 1.986 . S
O372 C379 1.262 . S
O373 Zn368 2.049 . S
O373 C381 1.260 1_556 S
O374 Zn369 1.996 . S
O374 C381 1.257 . S
C375 O370 1.254 . S
C375 O371 1.269 1_554 S
C376 O377 1.249 . S
C376 O378 1.270 . S
O377 Zn369 1.943 1_556 S
O377 C376 1.249 . S
O378 Zn368 2.067 . S
O378 C376 1.270 . S
C379 O372 1.262 . S
C379 O380 1.232 . S
O380 C379 1.232 . S
C381 O373 1.260 1_554 S
C381 O374 1.257 . S
Zn382 O385 2.031 . S
Zn382 O387 2.049 . S
Zn382 O392 2.067 . S
Zn383 O384 1.962 . S
Zn383 O386 1.986 . S
Zn383 O388 1.996 . S
Zn383 O391 1.943 . S
O384 Zn383 1.962 . S
O384 C389 1.254 . S
O385 Zn382 2.031 . S
O385 C389 1.269 . S
O386 Zn383 1.986 . S
O386 C393 1.262 . S
O387 Zn382 2.049 . S
O387 C395 1.260 . S
O388 Zn383 1.996 . S
O388 C395 1.257 . S
C389 O384 1.254 . S
C389 O385 1.269 . S
C390 O391 1.249 . S
C390 O392 1.270 . S
O391 Zn383 1.943 . S
O391 C390 1.249 . S
O392 Zn382 2.067 . S
O392 C390 1.270 . S
C393 O386 1.262 . S
C393 O394 1.232 . S
O394 C393 1.232 . S
C395 O387 1.260 . S
C395 O388 1.257 . S
Zn396 O399 2.031 . S
Zn396 O401 2.049 . S
Zn396 O406 2.067 . S
Zn397 O398 1.962 . S
Zn397 O400 1.986 . S
Zn397 O402 1.996 . S
Zn397 O405 1.943 . S
O398 Zn397 1.962 . S
O398 C403 1.254 . S
O399 Zn396 2.031 . S
O399 C403 1.269 . S
O400 Zn397 1.986 . S
O400 C407 1.262 . S
O401 Zn396 2.049 . S
O401 C409 1.260 . S
O402 Zn397 1.996 . S
O402 C409 1.257 . S
C403 O398 1.254 . S
C403 O399 1.269 . S
C404 O405 1.249 . S
C404 O406 1.270 . S
O405 Zn397 1.943 . S
O405 C404 1.249 . S
O406 Zn396 2.067 . S
O406 C404 1.270 . S
C407 O400 1.262 . S
C407 O408 1.232 . S
O408 C407 1.232 . S
C409 O401 1.260 . S
C409 O402 1.257 . S
Zn410 O413 2.031 . S
Zn410 O415 2.049 . S
Zn410 O420 2.067 . S
Zn411 O412 1.962 . S
Zn411 O414 1.986 . S
Zn411 O416 1.996 . S
Zn411 O419 1.943 . S
O412 Zn411 1.962 . S
O412 C417 1.254 . S
O413 Zn410 2.031 . S
O413 C417 1.269 . S
O414 Zn411 1.986 . S
O414 C421 1.262 . S
O415 Zn410 2.049 . S
O415 C423 1.260 . S
O416 Zn411 1.996 . S
O416 C423 1.257 . S
C417 O412 1.254 . S
C417 O413 1.269 . S
C418 O419 1.249 . S
C418 O420 1.270 . S
O419 Zn411 1.943 . S
O419 C418 1.249 . S
O420 Zn410 2.067 . S
O420 C418 1.270 . S
C421 O414 1.262 . S
C421 O422 1.232 . S
O422 C421 1.232 . S
C423 O415 1.260 . S
C423 O416 1.257 . S
Zn424 O427 2.031 . S
Zn424 O429 2.049 . S
Zn424 O434 2.067 . S
Zn425 O426 1.962 . S
Zn425 O428 1.986 . S
Zn425 O430 1.996 . S
Zn425 O433 1.943 . S
O426 Zn425 1.962 . S
O426 C431 1.254 . S
O427 Zn424 2.031 . S
O427 C431 1.269 . S
O428 Zn425 1.986 . S
O428 C435 1.262 . S
O429 Zn424 2.049 . S
O429 C437 1.260 . S
O430 Zn425 1.996 . S
O430 C437 1.257 . S
C431 O426 1.254 . S
C431 O427 1.269 . S
C432 O433 1.249 . S
C432 O434 1.270 . S
O433 Zn425 1.943 . S
O433 C432 1.249 . S
O434 Zn424 2.067 . S
O434 C432 1.270 . S
C435 O428 1.262 . S
C435 O436 1.232 . S
O436 C435 1.232 . S
C437 O429 1.260 . S
C437 O430 1.257 . S
Zn438 O441 2.031 . S
Zn438 O443 2.049 . S
Zn438 O448 2.067 . S
Zn439 O440 1.962 . S
Zn439 O442 1.986 . S
Zn439 O444 1.996 . S
Zn439 O447 1.943 . S
O440 Zn439 1.962 . S
O440 C445 1.254 . S
O441 Zn438 2.031 . S
O441 C445 1.269 . S
O442 Zn439 1.986 . S
O442 C449 1.262 . S
O443 Zn438 2.049 . S
O443 C451 1.260 . S
O444 Zn439 1.996 . S
O444 C451 1.257 . S
C445 O440 1.254 . S
C445 O441 1.269 . S
C446 O447 1.249 . S
C446 O448 1.270 . S
O447 Zn439 1.943 . S
O447 C446 1.249 . S
O448 Zn438 2.067 . S
O448 C446 1.270 . S
C449 O442 1.262 . S
C449 O450 1.232 . S
O450 C449 1.232 . S
C451 O443 1.260 . S
C451 O444 1.257 . S
Zn452 O455 2.031 . S
Zn452 O457 2.049 . S
Zn452 O462 2.067 . S
Zn453 O454 1.962 . S
Zn453 O456 1.986 . S
Zn453 O458 1.996 . S
Zn453 O461 1.943 1_556 S
O454 Zn453 1.962 . S
O454 C459 1.254 1_556 S
O455 Zn452 2.031 . S
O455 C459 1.269 . S
O456 Zn453 1.986 . S
O456 C463 1.262 . S
O457 Zn452 2.049 . S
O457 C465 1.275 . S
O458 Zn453 1.996 . S
O458 C465 1.253 1_556 S
C459 O454 1.254 1_554 S
C459 O455 1.269 . S
C460 O461 1.249 . S
C460 O462 1.270 . S
O461 Zn453 1.943 1_554 S
O461 C460 1.249 . S
O462 Zn452 2.067 . S
O462 C460 1.270 . S
C463 O456 1.262 . S
C463 O464 1.232 . S
O464 C463 1.232 . S
C465 O457 1.275 . S
C465 O458 1.253 1_554 S
Zn466 O469 2.031 . S
Zn466 O471 2.049 . S
Zn466 O476 2.067 . S
Zn467 O468 1.962 . S
Zn467 O470 1.986 . S
Zn467 O472 1.996 . S
Zn467 O475 1.943 . S
O468 Zn467 1.962 . S
O468 C473 1.254 . S
O469 Zn466 2.031 . S
O469 C473 1.269 . S
O470 Zn467 1.986 . S
O470 C477 1.262 . S
O471 Zn466 2.049 . S
O471 C479 1.260 . S
O472 Zn467 1.996 . S
O472 C479 1.257 . S
C473 O468 1.254 . S
C473 O469 1.269 . S
C474 O475 1.249 . S
C474 O476 1.270 . S
O475 Zn467 1.943 . S
O475 C474 1.249 . S
O476 Zn466 2.067 . S
O476 C474 1.270 . S
C477 O470 1.262 . S
C477 O478 1.232 . S
O478 C477 1.232 . S
C479 O471 1.260 . S
C479 O472 1.257 . S
C480 C481 1.363 . S
C480 C486 1.379 . S
C480 N488 1.356 . S
C481 C480 1.363 . S
C481 C487 1.363 . S
C482 C483 1.363 . S
C482 C487 1.379 . S
C482 N489 1.356 . S
C483 C482 1.363 . S
C483 C486 1.363 . S
N484 C486 1.356 . S
N484 H496 0.984 . S
N484 H497 0.985 . S
N485 C487 1.356 . S
N485 H490 0.984 . S
N485 H491 0.985 . S
C486 C480 1.379 . S
C486 C483 1.363 . S
C486 N484 1.356 . S
C487 C481 1.363 . S
C487 C482 1.379 . S
C487 N485 1.356 . S
N488 C480 1.356 . S
N488 H494 0.984 . S
N488 H495 0.984 . S
N489 C482 1.356 . S
N489 H492 0.984 . S
N489 H493 0.985 . S
H490 N485 0.984 . S
H491 N485 0.985 . S
H492 N489 0.984 . S
H493 N489 0.985 . S
H494 N488 0.984 . S
H495 N488 0.984 . S
H496 N484 0.984 . S
H497 N484 0.985 . S
C498 C499 1.363 . S
C498 C504 1.379 . S
C498 N506 1.356 . S
C499 C498 1.363 . S
C499 C505 1.363 . S
C500 C501 1.363 . S
C500 C505 1.379 . S
C500 N507 1.356 . S
C501 C500 1.363 . S
C501 C504 1.363 . S
N502 C504 1.356 . S
N502 H514 0.984 . S
N502 H515 0.985 . S
N503 C505 1.356 . S
N503 H508 0.984 . S
N503 H509 0.985 . S
C504 C498 1.379 . S
C504 C501 1.363 . S
C504 N502 1.356 . S
C505 C499 1.363 . S
C505 C500 1.379 . S
C505 N503 1.356 . S
N506 C498 1.356 . S
N506 H512 0.984 . S
N506 H513 0.984 . S
N507 C500 1.356 . S
N507 H510 0.984 . S
N507 H511 0.985 . S
H508 N503 0.984 . S
H509 N503 0.985 . S
H510 N507 0.984 . S
H511 N507 0.985 . S
H512 N506 0.984 . S
H513 N506 0.984 . S
H514 N502 0.984 . S
H515 N502 0.985 . S
C516 C517 1.363 . S
C516 C522 1.379 . S
C516 N524 1.356 . S
C517 C516 1.363 . S
C517 C523 1.363 . S
C518 C519 1.363 . S
C518 C523 1.379 . S
C518 N525 1.356 . S
C519 C518 1.363 . S
C519 C522 1.363 . S
N520 C522 1.356 . S
N520 H532 0.984 . S
N520 H533 0.985 . S
N521 C523 1.356 . S
N521 H526 0.984 . S
N521 H527 0.985 . S
C522 C516 1.379 . S
C522 C519 1.363 . S
C522 N520 1.356 . S
C523 C517 1.363 . S
C523 C518 1.379 . S
C523 N521 1.356 . S
N524 C516 1.356 . S
N524 H530 0.984 . S
N524 H531 0.984 . S
N525 C518 1.356 . S
N525 H528 0.984 . S
N525 H529 0.985 . S
H526 N521 0.984 . S
H527 N521 0.985 . S
H528 N525 0.984 . S
H529 N525 0.985 . S
H530 N524 0.984 . S
H531 N524 0.984 . S
H532 N520 0.984 . S
H533 N520 0.985 . S
C534 C535 1.363 . S
C534 C540 1.379 . S
C534 N542 1.356 1_554 S
C535 C534 1.363 . S
C535 C541 1.363 . S
C536 C537 1.363 . S
C536 C541 1.379 . S
C536 N543 1.356 . S
C537 C536 1.363 . S
C537 C540 1.363 . S
N538 C540 1.356 1_556 S
N538 H550 0.984 . S
N538 H551 0.985 . S
N539 C541 1.356 . S
N539 H544 0.984 . S
N539 H545 0.985 . S
C540 C534 1.379 . S
C540 C537 1.363 . S
C540 N538 1.356 1_554 S
C541 C535 1.363 . S
C541 C536 1.379 . S
C541 N539 1.356 . S
N542 C534 1.356 1_556 S
N542 H548 0.984 . S
N542 H549 0.987 . S
N543 C536 1.356 . S
N543 H546 0.984 . S
N543 H547 0.985 . S
H544 N539 0.984 . S
H545 N539 0.985 . S
H546 N543 0.984 . S
H547 N543 0.985 . S
H548 N542 0.984 . S
H549 N542 0.987 . S
H550 N538 0.984 . S
H551 N538 0.985 . S
C552 C553 1.363 . S
C552 C558 1.379 . S
C552 N560 1.356 . S
C553 C552 1.363 . S
C553 C559 1.363 1_556 S
C554 C555 1.348 1_554 S
C554 C559 1.379 . S
C554 N561 1.356 . S
C555 C554 1.348 1_556 S
C555 C558 1.378 . S
N556 C558 1.356 . S
N556 H568 0.984 . S
N556 H569 0.985 . S
N557 C559 1.356 . S
N557 H562 0.984 . S
N557 H563 0.985 . S
C558 C552 1.379 . S
C558 C555 1.378 . S
C558 N556 1.356 . S
C559 C553 1.363 1_554 S
C559 C554 1.379 . S
C559 N557 1.356 . S
N560 C552 1.356 . S
N560 H566 0.984 . S
N560 H567 0.984 . S
N561 C554 1.356 . S
N561 H564 0.984 . S
N561 H565 0.985 . S
H562 N557 0.984 . S
H563 N557 0.985 . S
H564 N561 0.984 . S
H565 N561 0.985 . S
H566 N560 0.984 . S
H567 N560 0.984 . S
H568 N556 0.984 . S
H569 N556 0.985 . S
C570 C571 1.363 . S
C570 C576 1.379 . S
C570 N578 1.356 . S
C571 C570 1.363 . S
C571 C577 1.363 . S
C572 C573 1.363 . S
C572 C577 1.379 . S
C572 N579 1.356 . S
C573 C572 1.363 . S
C573 C576 1.363 . S
N574 C576 1.356 . S
N574 H586 0.984 . S
N574 H587 0.985 . S
N575 C577 1.356 . S
N575 H580 0.984 . S
N575 H581 0.985 . S
C576 C570 1.379 . S
C576 C573 1.363 . S
C576 N574 1.356 . S
C577 C571 1.363 . S
C577 C572 1.379 . S
C577 N575 1.356 . S
N578 C570 1.356 . S
N578 H584 0.984 . S
N578 H585 0.984 . S
N579 C572 1.356 . S
N579 H582 0.984 . S
N579 H583 0.985 . S
H580 N575 0.984 . S
H581 N575 0.985 . S
H582 N579 0.984 . S
H583 N579 0.985 . S
H584 N578 0.984 . S
H585 N578 0.984 . S
H586 N574 0.984 . S
H587 N574 0.985 . S
C588 C589 1.363 . S
C588 C594 1.379 . S
C588 N596 1.356 . S
C589 C588 1.363 . S
C589 C595 1.363 . S
C590 C591 1.363 . S
C590 C595 1.379 . S
C590 N597 1.356 . S
C591 C590 1.363 . S
C591 C594 1.363 . S
N592 C594 1.356 . S
N592 H604 0.984 . S
N592 H605 0.985 . S
N593 C595 1.356 . S
N593 H598 0.984 . S
N593 H599 0.985 . S
C594 C588 1.379 . S
C594 C591 1.363 . S
C594 N592 1.356 . S
C595 C589 1.363 . S
C595 C590 1.379 . S
C595 N593 1.356 . S
N596 C588 1.356 . S
N596 H602 0.984 . S
N596 H603 0.984 . S
N597 C590 1.356 . S
N597 H600 0.984 . S
N597 H601 0.985 . S
H598 N593 0.984 . S
H599 N593 0.985 . S
H600 N597 0.984 . S
H601 N597 0.985 . S
H602 N596 0.984 . S
H603 N596 0.984 . S
H604 N592 0.984 . S
H605 N592 0.985 . S
C606 C607 1.363 . S
C606 C612 1.379 . S
C606 N614 1.356 . S
C607 C606 1.363 . S
C607 C613 1.363 . S
C608 C609 1.363 . S
C608 C613 1.379 . S
C608 N615 1.356 . S
C609 C608 1.363 . S
C609 C612 1.363 . S
N610 C612 1.356 . S
N610 H622 0.984 . S
N610 H623 0.985 . S
N611 C613 1.356 . S
N611 H616 0.984 . S
N611 H617 0.985 . S
C612 C606 1.379 . S
C612 C609 1.363 . S
C612 N610 1.356 . S
C613 C607 1.363 . S
C613 C608 1.379 . S
C613 N611 1.356 . S
N614 C606 1.356 . S
N614 H620 0.984 . S
N614 H621 0.984 . S
N615 C608 1.356 . S
N615 H618 0.984 . S
N615 H619 0.985 . S
H616 N611 0.984 . S
H617 N611 0.985 . S
H618 N615 0.984 . S
H619 N615 0.985 . S
H620 N614 0.984 . S
H621 N614 0.984 . S
H622 N610 0.984 . S
H623 N610 0.985 . S
C624 C625 1.363 . S
C624 C630 1.379 . S
C624 N632 1.356 . S
C625 C624 1.363 . S
C625 C631 1.363 . S
C626 C627 1.363 . S
C626 C631 1.379 . S
C626 N633 1.356 . S
C627 C626 1.363 . S
C627 C630 1.363 . S
N628 C630 1.356 . S
N628 H640 0.984 . S
N628 H641 0.985 . S
N629 C631 1.356 . S
N629 H634 0.984 . S
N629 H635 0.985 . S
C630 C624 1.379 . S
C630 C627 1.363 . S
C630 N628 1.356 . S
C631 C625 1.363 . S
C631 C626 1.379 . S
C631 N629 1.356 . S
N632 C624 1.356 . S
N632 H638 0.984 . S
N632 H639 0.984 . S
N633 C626 1.356 . S
N633 H636 0.984 . S
N633 H637 0.985 . S
H634 N629 0.984 . S
H635 N629 0.985 . S
H636 N633 0.984 . S
H637 N633 0.985 . S
H638 N632 0.984 . S
H639 N632 0.984 . S
H640 N628 0.984 . S
H641 N628 0.985 . S
C642 C643 1.363 . S
C642 C648 1.379 . S
C642 N650 1.356 . S
C643 C642 1.363 . S
C643 C649 1.363 . S
C644 C645 1.372 . S
C644 C649 1.381 . S
C644 N651 1.346 1_554 S
C645 C644 1.372 . S
C645 C648 1.363 . S
N646 C648 1.356 . S
N646 H658 0.984 . S
N646 H659 0.985 . S
N647 C649 1.356 1_556 S
N647 H652 0.997 . S
N647 H653 0.985 . S
C648 C642 1.379 . S
C648 C645 1.363 . S
C648 N646 1.356 . S
C649 C643 1.363 . S
C649 C644 1.381 . S
C649 N647 1.356 1_554 S
N650 C642 1.356 . S
N650 H656 0.984 . S
N650 H657 0.984 . S
N651 C644 1.346 1_556 S
N651 H654 0.984 . S
N651 H655 0.985 . S
H652 N647 0.997 . S
H653 N647 0.985 . S
H654 N651 0.984 . S
H655 N651 0.985 . S
H656 N650 0.984 . S
H657 N650 0.984 . S
H658 N646 0.984 . S
H659 N646 0.985 . S
C660 C661 1.363 . S
C660 C666 1.379 . S
C660 N668 1.356 . S
C661 C660 1.363 . S
C661 C667 1.363 . S
C662 C663 1.363 . S
C662 C667 1.379 . S
C662 N669 1.356 . S
C663 C662 1.363 . S
C663 C666 1.363 . S
N664 C666 1.356 . S
N664 H676 0.984 . S
N664 H677 0.985 . S
N665 C667 1.356 . S
N665 H670 0.984 . S
N665 H671 0.985 . S
C666 C660 1.379 . S
C666 C663 1.363 . S
C666 N664 1.356 . S
C667 C661 1.363 . S
C667 C662 1.379 . S
C667 N665 1.356 . S
N668 C660 1.356 . S
N668 H674 0.984 . S
N668 H675 0.984 . S
N669 C662 1.356 . S
N669 H672 0.984 . S
N669 H673 0.985 . S
H670 N665 0.984 . S
H671 N665 0.985 . S
H672 N669 0.984 . S
H673 N669 0.985 . S
H674 N668 0.984 . S
H675 N668 0.984 . S
H676 N664 0.984 . S
H677 N664 0.985 . S
C678 C679 1.363 . S
C678 C684 1.379 . S
C678 N686 1.356 . S
C679 C678 1.363 . S
C679 C685 1.363 . S
C680 C681 1.363 . S
C680 C685 1.379 . S
C680 N687 1.356 . S
C681 C680 1.363 . S
C681 C684 1.363 . S
N682 C684 1.356 . S
N682 H694 0.984 . S
N682 H695 0.985 . S
N683 C685 1.356 . S
N683 H688 0.984 . S
N683 H689 0.985 . S
C684 C678 1.379 . S
C684 C681 1.363 . S
C684 N682 1.356 . S
C685 C679 1.363 . S
C685 C680 1.379 . S
C685 N683 1.356 . S
N686 C678 1.356 . S
N686 H692 0.984 . S
N686 H693 0.984 . S
N687 C680 1.356 . S
N687 H690 0.984 . S
N687 H691 0.985 . S
H688 N683 0.984 . S
H689 N683 0.985 . S
H690 N687 0.984 . S
H691 N687 0.985 . S
H692 N686 0.984 . S
H693 N686 0.984 . S
H694 N682 0.984 . S
H695 N682 0.985 . S
C696 C697 1.363 . S
C696 C702 1.379 . S
C696 N704 1.356 . S
C697 C696 1.363 . S
C697 C703 1.363 . S
C698 C699 1.363 . S
C698 C703 1.379 . S
C698 N705 1.356 . S
C699 C698 1.363 . S
C699 C702 1.363 . S
N700 C702 1.356 . S
N700 H712 0.984 . S
N700 H713 0.985 . S
N701 C703 1.356 . S
N701 H706 0.984 . S
N701 H707 0.985 . S
C702 C696 1.379 . S
C702 C699 1.363 . S
C702 N700 1.356 . S
C703 C697 1.363 . S
C703 C698 1.379 . S
C703 N701 1.356 . S
N704 C696 1.356 . S
N704 H710 0.984 . S
N704 H711 0.984 . S
N705 C698 1.356 . S
N705 H708 0.984 . S
N705 H709 0.985 . S
H706 N701 0.984 . S
H707 N701 0.985 . S
H708 N705 0.984 . S
H709 N705 0.985 . S
H710 N704 0.984 . S
H711 N704 0.984 . S
H712 N700 0.984 . S
H713 N700 0.985 . S
C714 C715 1.363 . S
C714 C720 1.379 . S
C714 N722 1.356 . S
C715 C714 1.363 . S
C715 C721 1.363 . S
C716 C717 1.363 . S
C716 C721 1.379 . S
C716 N723 1.356 . S
C717 C716 1.363 . S
C717 C720 1.363 . S
N718 C720 1.356 . S
N718 H730 0.984 . S
N718 H731 0.985 . S
N719 C721 1.356 . S
N719 H724 0.984 . S
N719 H725 0.985 . S
C720 C714 1.379 . S
C720 C717 1.363 . S
C720 N718 1.356 . S
C721 C715 1.363 . S
C721 C716 1.379 . S
C721 N719 1.356 . S
N722 C714 1.356 . S
N722 H728 0.984 . S
N722 H729 0.984 . S
N723 C716 1.356 . S
N723 H726 0.984 . S
N723 H727 0.985 . S
H724 N719 0.984 . S
H725 N719 0.985 . S
H726 N723 0.984 . S
H727 N723 0.985 . S
H728 N722 0.984 . S
H729 N722 0.984 . S
H730 N718 0.984 . S
H731 N718 0.985 . S
C732 C733 1.363 1_554 S
C732 C738 1.379 . S
C732 N740 1.356 . S
C733 C732 1.363 1_556 S
C733 C739 1.363 . S
C734 C735 1.363 . S
C734 C739 1.379 . S
C734 N741 1.356 . S
C735 C734 1.363 . S
C735 C738 1.363 1_556 S
N736 C738 1.356 . S
N736 H748 0.984 . S
N736 H749 0.985 . S
N737 C739 1.356 . S
N737 H742 0.984 . S
N737 H743 0.985 . S
C738 C732 1.379 . S
C738 C735 1.363 1_554 S
C738 N736 1.356 . S
C739 C733 1.363 . S
C739 C734 1.379 . S
C739 N737 1.356 . S
N740 C732 1.356 . S
N740 H746 0.984 . S
N740 H747 0.984 . S
N741 C734 1.356 . S
N741 H744 0.984 . S
N741 H745 0.985 . S
H742 N737 0.984 . S
H743 N737 0.985 . S
H744 N741 0.984 . S
H745 N741 0.985 . S
H746 N740 0.984 . S
H747 N740 0.984 . S
H748 N736 0.984 . S
H749 N736 0.985 . S
C750 C751 1.363 . S
C750 C756 1.379 . S
C750 N758 1.356 . S
C751 C750 1.363 . S
C751 C757 1.363 . S
C752 C753 1.363 . S
C752 C757 1.379 . S
C752 N759 1.356 . S
C753 C752 1.363 . S
C753 C756 1.363 . S
N754 C756 1.356 . S
N754 H766 0.984 . S
N754 H767 0.985 . S
N755 C757 1.356 . S
N755 H760 0.984 . S
N755 H761 0.985 . S
C756 C750 1.379 . S
C756 C753 1.363 . S
C756 N754 1.356 . S
C757 C751 1.363 . S
C757 C752 1.379 . S
C757 N755 1.356 . S
N758 C750 1.356 . S
N758 H764 0.984 . S
N758 H765 0.984 . S
N759 C752 1.356 . S
N759 H762 0.984 . S
N759 H763 0.985 . S
H760 N755 0.984 . S
H761 N755 0.985 . S
H762 N759 0.984 . S
H763 N759 0.985 . S
H764 N758 0.984 . S
H765 N758 0.984 . S
H766 N754 0.984 . S
H767 N754 0.985 . S
C768 C769 1.363 . S
C768 C774 1.379 . S
C768 N776 1.356 . S
C769 C768 1.363 . S
C769 C775 1.363 . S
C770 C771 1.363 . S
C770 C775 1.379 . S
C770 N777 1.356 . S
C771 C770 1.363 . S
C771 C774 1.363 . S
N772 C774 1.356 . S
N772 H784 0.984 . S
N772 H785 0.985 . S
N773 C775 1.356 . S
N773 H778 0.984 . S
N773 H779 0.985 . S
C774 C768 1.379 . S
C774 C771 1.363 . S
C774 N772 1.356 . S
C775 C769 1.363 . S
C775 C770 1.379 . S
C775 N773 1.356 . S
N776 C768 1.356 . S
N776 H782 0.984 . S
N776 H783 0.984 . S
N777 C770 1.356 . S
N777 H780 0.984 . S
N777 H781 0.985 . S
H778 N773 0.984 . S
H779 N773 0.985 . S
H780 N777 0.984 . S
H781 N777 0.985 . S
H782 N776 0.984 . S
H783 N776 0.984 . S
H784 N772 0.984 . S
H785 N772 0.985 . S
C786 C787 1.363 . S
C786 C792 1.379 . S
C786 N794 1.356 . S
C787 C786 1.363 . S
C787 C793 1.363 . S
C788 C789 1.363 . S
C788 C793 1.379 . S
C788 N795 1.356 . S
C789 C788 1.363 . S
C789 C792 1.363 . S
N790 C792 1.356 . S
N790 H802 0.984 . S
N790 H803 0.985 . S
N791 C793 1.356 . S
N791 H796 0.984 . S
N791 H797 0.985 . S
C792 C786 1.379 . S
C792 C789 1.363 . S
C792 N790 1.356 . S
C793 C787 1.363 . S
C793 C788 1.379 . S
C793 N791 1.356 . S
N794 C786 1.356 . S
N794 H800 0.984 . S
N794 H801 0.984 . S
N795 C788 1.356 . S
N795 H798 0.984 . S
N795 H799 0.985 . S
H796 N791 0.984 . S
H797 N791 0.985 . S
H798 N795 0.984 . S
H799 N795 0.985 . S
H800 N794 0.984 . S
H801 N794 0.984 . S
H802 N790 0.984 . S
H803 N790 0.985 . S
C804 C805 1.363 . S
C804 C810 1.379 . S
C804 N812 1.356 . S
C805 C804 1.363 . S
C805 C811 1.363 . S
C806 C807 1.363 . S
C806 C811 1.379 . S
C806 N813 1.356 . S
C807 C806 1.363 . S
C807 C810 1.363 . S
N808 C810 1.356 . S
N808 H820 0.984 . S
N808 H821 0.985 . S
N809 C811 1.356 . S
N809 H814 0.984 . S
N809 H815 0.985 . S
C810 C804 1.379 . S
C810 C807 1.363 . S
C810 N808 1.356 . S
C811 C805 1.363 . S
C811 C806 1.379 . S
C811 N809 1.356 . S
N812 C804 1.356 . S
N812 H818 0.984 . S
N812 H819 0.984 . S
N813 C806 1.356 . S
N813 H816 0.984 . S
N813 H817 0.985 . S
H814 N809 0.984 . S
H815 N809 0.985 . S
H816 N813 0.984 . S
H817 N813 0.985 . S
H818 N812 0.984 . S
H819 N812 0.984 . S
H820 N808 0.984 . S
H821 N808 0.985 . S
C822 C823 1.363 . S
C822 C828 1.379 . S
C822 N830 1.356 . S
C823 C822 1.363 . S
C823 C829 1.363 . S
C824 C825 1.363 . S
C824 C829 1.379 . S
C824 N831 1.356 . S
C825 C824 1.363 . S
C825 C828 1.363 . S
N826 C828 1.356 . S
N826 H838 0.984 . S
N826 H839 0.985 . S
N827 C829 1.356 . S
N827 H832 0.984 . S
N827 H833 0.985 . S
C828 C822 1.379 . S
C828 C825 1.363 . S
C828 N826 1.356 . S
C829 C823 1.363 . S
C829 C824 1.379 . S
C829 N827 1.356 . S
N830 C822 1.356 . S
N830 H836 0.984 . S
N830 H837 0.984 . S
N831 C824 1.356 . S
N831 H834 0.984 . S
N831 H835 0.985 . S
H832 N827 0.984 . S
H833 N827 0.985 . S
H834 N831 0.984 . S
H835 N831 0.985 . S
H836 N830 0.984 . S
H837 N830 0.984 . S
H838 N826 0.984 . S
H839 N826 0.985 . S
C840 C841 1.363 . S
C840 C846 1.379 . S
C840 N848 1.356 . S
C841 C840 1.363 . S
C841 C847 1.363 . S
C842 C843 1.363 . S
C842 C847 1.379 . S
C842 N849 1.356 . S
C843 C842 1.363 . S
C843 C846 1.363 . S
N844 C846 1.356 . S
N844 H856 0.984 . S
N844 H857 0.985 . S
N845 C847 1.356 . S
N845 H850 0.984 . S
N845 H851 0.985 . S
C846 C840 1.379 . S
C846 C843 1.363 . S
C846 N844 1.356 . S
C847 C841 1.363 . S
C847 C842 1.379 . S
C847 N845 1.356 . S
N848 C840 1.356 . S
N848 H854 0.984 . S
N848 H855 0.984 . S
N849 C842 1.356 . S
N849 H852 0.984 . S
N849 H853 0.985 . S
H850 N845 0.984 . S
H851 N845 0.985 . S
H852 N849 0.984 . S
H853 N849 0.985 . S
H854 N848 0.984 . S
H855 N848 0.984 . S
H856 N844 0.984 . S
H857 N844 0.985 . S
C858 C859 1.363 . S
C858 C864 1.379 . S
C858 N866 1.356 . S
C859 C858 1.363 . S
C859 C865 1.363 . S
C860 C861 1.363 . S
C860 C865 1.379 . S
C860 N867 1.356 . S
C861 C860 1.363 . S
C861 C864 1.363 . S
N862 C864 1.356 . S
N862 H874 0.984 . S
N862 H875 0.985 . S
N863 C865 1.356 . S
N863 H868 0.984 . S
N863 H869 0.985 . S
C864 C858 1.379 . S
C864 C861 1.363 . S
C864 N862 1.356 . S
C865 C859 1.363 . S
C865 C860 1.379 . S
C865 N863 1.356 . S
N866 C858 1.356 . S
N866 H872 0.984 . S
N866 H873 0.984 . S
N867 C860 1.356 . S
N867 H870 0.984 . S
N867 H871 0.985 . S
H868 N863 0.984 . S
H869 N863 0.985 . S
H870 N867 0.984 . S
H871 N867 0.985 . S
H872 N866 0.984 . S
H873 N866 0.984 . S
H874 N862 0.984 . S
H875 N862 0.985 . S
C876 C877 1.363 . S
C876 C882 1.379 . S
C876 N884 1.356 . S
C877 C876 1.363 . S
C877 C883 1.363 . S
C878 C879 1.363 . S
C878 C883 1.379 . S
C878 N885 1.356 . S
C879 C878 1.363 . S
C879 C882 1.363 . S
N880 C882 1.356 . S
N880 H892 0.984 . S
N880 H893 0.985 . S
N881 C883 1.356 . S
N881 H886 0.984 . S
N881 H887 0.985 . S
C882 C876 1.379 . S
C882 C879 1.363 . S
C882 N880 1.356 . S
C883 C877 1.363 . S
C883 C878 1.379 . S
C883 N881 1.356 . S
N884 C876 1.356 . S
N884 H890 0.984 . S
N884 H891 0.984 . S
N885 C878 1.356 . S
N885 H888 0.984 . S
N885 H889 0.985 . S
H886 N881 0.984 . S
H887 N881 0.985 . S
H888 N885 0.984 . S
H889 N885 0.985 . S
H890 N884 0.984 . S
H891 N884 0.984 . S
H892 N880 0.984 . S
H893 N880 0.985 . S
C894 C895 1.363 . S
C894 C900 1.379 . S
C894 N902 1.356 . S
C895 C894 1.363 . S
C895 C901 1.363 . S
C896 C897 1.363 . S
C896 C901 1.379 . S
C896 N903 1.356 . S
C897 C896 1.363 . S
C897 C900 1.363 . S
N898 C900 1.356 . S
N898 H910 0.984 . S
N898 H911 0.985 . S
N899 C901 1.356 . S
N899 H904 0.984 . S
N899 H905 0.985 . S
C900 C894 1.379 . S
C900 C897 1.363 . S
C900 N898 1.356 . S
C901 C895 1.363 . S
C901 C896 1.379 . S
C901 N899 1.356 . S
N902 C894 1.356 . S
N902 H908 0.984 . S
N902 H909 0.984 . S
N903 C896 1.356 . S
N903 H906 0.984 . S
N903 H907 0.985 . S
H904 N899 0.984 . S
H905 N899 0.985 . S
H906 N903 0.984 . S
H907 N903 0.985 . S
H908 N902 0.984 . S
H909 N902 0.984 . S
H910 N898 0.984 . S
H911 N898 0.985 . S
C912 C913 1.363 . S
C912 C918 1.379 . S
C912 N920 1.356 . S
C913 C912 1.363 . S
C913 C919 1.363 . S
C914 C915 1.363 . S
C914 C919 1.379 . S
C914 N921 1.356 . S
C915 C914 1.363 . S
C915 C918 1.363 . S
N916 C918 1.356 . S
N916 H928 0.984 . S
N916 H929 0.985 . S
N917 C919 1.356 . S
N917 H922 0.984 . S
N917 H923 0.985 . S
C918 C912 1.379 . S
C918 C915 1.363 . S
C918 N916 1.356 . S
C919 C913 1.363 . S
C919 C914 1.379 . S
C919 N917 1.356 . S
N920 C912 1.356 . S
N920 H926 0.984 . S
N920 H927 0.984 . S
N921 C914 1.356 . S
N921 H924 0.984 . S
N921 H925 0.985 . S
H922 N917 0.984 . S
H923 N917 0.985 . S
H924 N921 0.984 . S
H925 N921 0.985 . S
H926 N920 0.984 . S
H927 N920 0.984 . S
H928 N916 0.984 . S
H929 N916 0.985 . S
C930 C931 1.363 . S
C930 C936 1.379 . S
C930 N938 1.356 . S
C931 C930 1.363 . S
C931 C937 1.363 . S
C932 C933 1.363 . S
C932 C937 1.379 . S
C932 N939 1.356 . S
C933 C932 1.363 . S
C933 C936 1.363 . S
N934 C936 1.356 . S
N934 H946 0.984 . S
N934 H947 0.985 . S
N935 C937 1.356 . S
N935 H940 0.984 . S
N935 H941 0.985 . S
C936 C930 1.379 . S
C936 C933 1.363 . S
C936 N934 1.356 . S
C937 C931 1.363 . S
C937 C932 1.379 . S
C937 N935 1.356 . S
N938 C930 1.356 . S
N938 H944 0.984 . S
N938 H945 0.984 . S
N939 C932 1.356 . S
N939 H942 0.984 . S
N939 H943 0.985 . S
H940 N935 0.984 . S
H941 N935 0.985 . S
H942 N939 0.984 . S
H943 N939 0.985 . S
H944 N938 0.984 . S
H945 N938 0.984 . S
H946 N934 0.984 . S
H947 N934 0.985 . S
C948 C949 1.363 . S
C948 C954 1.379 . S
C948 N956 1.356 . S
C949 C948 1.363 . S
C949 C955 1.363 . S
C950 C951 1.363 . S
C950 C955 1.379 . S
C950 N957 1.356 . S
C951 C950 1.363 . S
C951 C954 1.363 . S
N952 C954 1.356 . S
N952 H964 0.984 . S
N952 H965 0.985 . S
N953 C955 1.356 1_455 S
N953 H958 0.984 . S
N953 H959 0.985 . S
C954 C948 1.379 . S
C954 C951 1.363 . S
C954 N952 1.356 . S
C955 C949 1.363 . S
C955 C950 1.379 . S
C955 N953 1.356 1_655 S
N956 C948 1.356 . S
N956 H962 0.984 . S
N956 H963 0.984 . S
N957 C950 1.356 . S
N957 H960 0.984 . S
N957 H961 0.985 1_655 S
H958 N953 0.984 . S
H959 N953 0.985 . S
H960 N957 0.984 . S
H961 N957 0.985 1_455 S
H962 N956 0.984 . S
H963 N956 0.984 . S
H964 N952 0.984 . S
H965 N952 0.985 . S
C966 C967 1.363 . S
C966 C972 1.379 . S
C966 N974 1.356 . S
C967 C966 1.363 . S
C967 C973 1.363 . S
C968 C969 1.363 . S
C968 C973 1.379 . S
C968 N975 1.356 . S
C969 C968 1.363 . S
C969 C972 1.363 . S
N970 C972 1.356 . S
N970 H982 0.984 . S
N970 H983 0.985 . S
N971 C973 1.356 . S
N971 H976 0.984 . S
N971 H977 0.985 . S
C972 C966 1.379 . S
C972 C969 1.363 . S
C972 N970 1.356 . S
C973 C967 1.363 . S
C973 C968 1.379 . S
C973 N971 1.356 . S
N974 C966 1.356 . S
N974 H980 0.984 . S
N974 H981 0.984 . S
N975 C968 1.356 . S
N975 H978 0.984 . S
N975 H979 0.985 . S
H976 N971 0.984 . S
H977 N971 0.985 . S
H978 N975 0.984 . S
H979 N975 0.985 . S
H980 N974 0.984 . S
H981 N974 0.984 . S
H982 N970 0.984 . S
H983 N970 0.985 . S
C984 C985 1.363 . S
C984 C990 1.379 . S
C984 N992 1.356 . S
C985 C984 1.363 . S
C985 C991 1.363 . S
C986 C987 1.363 . S
C986 C991 1.379 . S
C986 N993 1.356 . S
C987 C986 1.363 . S
C987 C990 1.363 . S
N988 C990 1.356 . S
N988 H1000 0.984 . S
N988 H1001 0.985 . S
N989 C991 1.356 . S
N989 H994 0.984 . S
N989 H995 0.985 . S
C990 C984 1.379 . S
C990 C987 1.363 . S
C990 N988 1.356 . S
C991 C985 1.363 . S
C991 C986 1.379 . S
C991 N989 1.356 . S
N992 C984 1.356 . S
N992 H998 0.984 . S
N992 H999 0.984 . S
N993 C986 1.356 . S
N993 H996 0.984 . S
N993 H997 0.985 . S
H994 N989 0.984 . S
H995 N989 0.985 . S
H996 N993 0.984 . S
H997 N993 0.985 . S
H998 N992 0.984 . S
H999 N992 0.984 . S
H1000 N988 0.984 . S
H1001 N988 0.985 . S
C1002 C1003 1.363 . S
C1002 C1008 1.379 . S
C1002 N1010 1.356 . S
C1003 C1002 1.363 . S
C1003 C1009 1.363 . S
C1004 C1005 1.363 . S
C1004 C1009 1.379 . S
C1004 N1011 1.356 . S
C1005 C1004 1.363 . S
C1005 C1008 1.363 . S
N1006 C1008 1.356 . S
N1006 H1018 0.984 . S
N1006 H1019 0.985 . S
N1007 C1009 1.356 . S
N1007 H1012 0.984 . S
N1007 H1013 0.985 . S
C1008 C1002 1.379 . S
C1008 C1005 1.363 . S
C1008 N1006 1.356 . S
C1009 C1003 1.363 . S
C1009 C1004 1.379 . S
C1009 N1007 1.356 . S
N1010 C1002 1.356 . S
N1010 H1016 0.984 . S
N1010 H1017 0.984 . S
N1011 C1004 1.356 . S
N1011 H1014 0.984 . S
N1011 H1015 0.985 . S
H1012 N1007 0.984 . S
H1013 N1007 0.985 . S
H1014 N1011 0.984 . S
H1015 N1011 0.985 . S
H1016 N1010 0.984 . S
H1017 N1010 0.984 . S
H1018 N1006 0.984 . S
H1019 N1006 0.985 . S
C1020 C1021 1.363 . S
C1020 C1026 1.379 . S
C1020 N1028 1.356 . S
C1021 C1020 1.363 . S
C1021 C1027 1.363 . S
C1022 C1023 1.363 . S
C1022 C1027 1.379 . S
C1022 N1029 1.356 . S
C1023 C1022 1.363 . S
C1023 C1026 1.363 . S
N1024 C1026 1.356 . S
N1024 H1036 0.984 . S
N1024 H1037 0.985 . S
N1025 C1027 1.356 . S
N1025 H1030 0.984 . S
N1025 H1031 0.985 . S
C1026 C1020 1.379 . S
C1026 C1023 1.363 . S
C1026 N1024 1.356 . S
C1027 C1021 1.363 . S
C1027 C1022 1.379 . S
C1027 N1025 1.356 . S
N1028 C1020 1.356 . S
N1028 H1034 0.984 . S
N1028 H1035 0.984 . S
N1029 C1022 1.356 . S
N1029 H1032 0.984 . S
N1029 H1033 0.985 . S
H1030 N1025 0.984 . S
H1031 N1025 0.985 . S
H1032 N1029 0.984 . S
H1033 N1029 0.985 . S
H1034 N1028 0.984 . S
H1035 N1028 0.984 . S
H1036 N1024 0.984 . S
H1037 N1024 0.985 . S
C1038 C1039 1.363 . S
C1038 C1044 1.379 . S
C1038 N1046 1.356 . S
C1039 C1038 1.363 . S
C1039 C1045 1.363 . S
C1040 C1041 1.363 . S
C1040 C1045 1.379 . S
C1040 N1047 1.356 . S
C1041 C1040 1.363 . S
C1041 C1044 1.363 . S
N1042 C1044 1.356 . S
N1042 H1054 0.984 . S
N1042 H1055 0.985 . S
N1043 C1045 1.356 . S
N1043 H1048 0.984 . S
N1043 H1049 0.985 . S
C1044 C1038 1.379 . S
C1044 C1041 1.363 . S
C1044 N1042 1.356 . S
C1045 C1039 1.363 . S
C1045 C1040 1.379 . S
C1045 N1043 1.356 . S
N1046 C1038 1.356 . S
N1046 H1052 0.984 . S
N1046 H1053 0.984 . S
N1047 C1040 1.356 . S
N1047 H1050 0.984 . S
N1047 H1051 0.985 . S
H1048 N1043 0.984 . S
H1049 N1043 0.985 . S
H1050 N1047 0.984 . S
H1051 N1047 0.985 . S
H1052 N1046 0.984 . S
H1053 N1046 0.984 . S
H1054 N1042 0.984 . S
H1055 N1042 0.985 . S
C483 C389 1.476 . S
C481 C8 1.426 . S
C501 C409 1.514 . S
C499 C61 1.517 . S
C519 C423 1.513 . S
C517 C107 1.520 . S
C535 C139 1.505 . S
C537 C381 1.510 . S
C553 C192 1.510 . S
C555 C375 1.608 1_556 S
C571 C238 1.489 . S
C573 C395 1.497 . S
C591 C403 1.462 . S
C589 C284 1.416 . S
C609 C417 1.550 . S
C607 C330 1.469 . S
C625 C100 1.469 . S
C627 C445 1.549 . S
C645 C459 1.462 . S
C643 C160 1.409 . S
C661 C15 1.485 . S
C663 C479 1.497 . S
C681 C431 1.609 . S
C679 C54 1.511 . S
C697 C291 1.508 . S
C699 C437 1.507 . S
C715 C337 1.520 . S
C717 C451 1.513 . S
C735 C465 1.508 1_556 S
C733 C199 1.520 . S
C751 C245 1.432 . S
C753 C473 1.476 . S
C771 C404 1.774 . S
C769 C1 1.740 . S
C789 C418 1.804 . S
C787 C68 1.740 . S
C805 C114 1.678 . S
C807 C376 1.734 . S
C823 C146 1.544 . S
C825 C393 1.566 . S
C841 C185 1.436 . S
C843 C421 1.446 . S
C861 C379 1.430 . S
C859 C231 1.421 . S
C879 C390 1.622 . S
C877 C277 1.606 . S
C897 C407 1.501 . S
C895 C323 1.488 . S
C915 C463 1.501 . S
C913 C93 1.491 . S
C933 C474 1.622 . S
C931 C153 1.596 . S
C949 C22 1.413 . S
C951 C435 1.430 . S
C969 C449 1.446 . S
C967 C47 1.436 . S
C987 C477 1.565 . S
C985 C298 1.530 . S
C1003 C344 1.678 . S
C1005 C432 1.734 . S
C1023 C446 1.804 . S
C1021 C206 1.740 . S
C1041 C460 1.774 . S
C1039 C252 1.721 . S
