# Generated by pormake.
# Topology apo, (3,6)-cn, num edge types: 1
# Building blocks:
#     Node 0, Type 0, BuildingBlock: BETDIP_clean_linker_0, # of connection points: 3
#     Node 1, Type 0, BuildingBlock: BETDIP_clean_linker_0, # of connection points: 3
#     Node 2, Type 0, BuildingBlock: BETDIP_clean_linker_0, # of connection points: 3
#     Node 3, Type 0, BuildingBlock: BETDIP_clean_linker_0, # of connection points: 3
#     Node 4, Type 0, BuildingBlock: BETDIP_clean_linker_0, # of connection points: 3
#     Node 5, Type 0, BuildingBlock: BETDIP_clean_linker_0, # of connection points: 3
#     Node 6, Type 0, BuildingBlock: BETDIP_clean_linker_0, # of connection points: 3
#     Node 7, Type 0, BuildingBlock: BETDIP_clean_linker_0, # of connection points: 3
#     Node 8, Type 1, BuildingBlock: KUMBUR_clean_sbu_1, # of connection points: 6
#     Node 9, Type 1, BuildingBlock: KUMBUR_clean_sbu_1, # of connection points: 6
#     Node 10, Type 1, BuildingBlock: KUMBUR_clean_sbu_1, # of connection points: 6
#     Node 11, Type 1, BuildingBlock: KUMBUR_clean_sbu_1, # of connection points: 6
#     Edge 12, Type (0, 1), BuildingBlock: UVAHIK_clean_linker_0, # of connection points: 2
#     Edge 13, Type (0, 1), BuildingBlock: UVAHIK_clean_linker_0, # of connection points: 2
#     Edge 14, Type (0, 1), BuildingBlock: UVAHIK_clean_linker_0, # of connection points: 2
#     Edge 15, Type (0, 1), BuildingBlock: UVAHIK_clean_linker_0, # of connection points: 2
#     Edge 16, Type (0, 1), BuildingBlock: UVAHIK_clean_linker_0, # of connection points: 2
#     Edge 17, Type (0, 1), BuildingBlock: UVAHIK_clean_linker_0, # of connection points: 2
#     Edge 18, Type (0, 1), BuildingBlock: UVAHIK_clean_linker_0, # of connection points: 2
#     Edge 19, Type (0, 1), BuildingBlock: UVAHIK_clean_linker_0, # of connection points: 2
#     Edge 20, Type (0, 1), BuildingBlock: UVAHIK_clean_linker_0, # of connection points: 2
#     Edge 21, Type (0, 1), BuildingBlock: UVAHIK_clean_linker_0, # of connection points: 2
#     Edge 22, Type (0, 1), BuildingBlock: UVAHIK_clean_linker_0, # of connection points: 2
#     Edge 23, Type (0, 1), BuildingBlock: UVAHIK_clean_linker_0, # of connection points: 2
#     Edge 24, Type (0, 1), BuildingBlock: UVAHIK_clean_linker_0, # of connection points: 2
#     Edge 25, Type (0, 1), BuildingBlock: UVAHIK_clean_linker_0, # of connection points: 2
#     Edge 26, Type (0, 1), BuildingBlock: UVAHIK_clean_linker_0, # of connection points: 2
#     Edge 27, Type (0, 1), BuildingBlock: UVAHIK_clean_linker_0, # of connection points: 2
#     Edge 28, Type (0, 1), BuildingBlock: UVAHIK_clean_linker_0, # of connection points: 2
#     Edge 29, Type (0, 1), BuildingBlock: UVAHIK_clean_linker_0, # of connection points: 2
#     Edge 30, Type (0, 1), BuildingBlock: UVAHIK_clean_linker_0, # of connection points: 2
#     Edge 31, Type (0, 1), BuildingBlock: UVAHIK_clean_linker_0, # of connection points: 2
#     Edge 32, Type (0, 1), BuildingBlock: UVAHIK_clean_linker_0, # of connection points: 2
#     Edge 33, Type (0, 1), BuildingBlock: UVAHIK_clean_linker_0, # of connection points: 2
#     Edge 34, Type (0, 1), BuildingBlock: UVAHIK_clean_linker_0, # of connection points: 2
#     Edge 35, Type (0, 1), BuildingBlock: UVAHIK_clean_linker_0, # of connection points: 2
# Relax obj value: 0.038
# Max RMSD: 0.187
# Mean RMSD: 0.149
data_MOF--net-apo--node1-KUMBUR_clean_sbu_1--node2-BETDIP_clean_linker_0--edge1-UVAHIK_clean_linker_0
_symmetry_space_group_name_H-M    P1
_symmetry_Int_Tables_number       1
_symmetry_cell_setting            triclinic
loop_
_symmetry_equiv_pos_as_xyz
'x, y, z'
_cell_length_a     35.221471
_cell_length_b     54.764342
_cell_length_c     64.68187
_cell_angle_alpha  89.961154
_cell_angle_beta   89.916997
_cell_angle_gamma 90.336365
loop_
_atom_site_label
_atom_site_type_symbol
_atom_site_fract_x
_atom_site_fract_y
_atom_site_fract_z
_atom_type_partial_charge
H0 H 0.27605 0.35018 0.43973 0.0
H1 H 0.2873 0.38314 0.37952 0.0
H2 H 0.34119 0.41634 0.43192 0.0
H3 H 0.23148 0.36423 0.37411 0.0
C4 C 0.23441 0.34677 0.3819 0.0
C5 C 0.28718 0.36456 0.42989 0.0
C6 C 0.30944 0.3834 0.43844 0.0
C7 C 0.27803 0.3646 0.40877 0.0
C8 C 0.2926 0.38331 0.39599 0.0
C9 C 0.31558 0.4019 0.40426 0.0
C10 C 0.32366 0.4019 0.42548 0.0
N11 N 0.25498 0.34534 0.40078 0.0
H12 H 0.2291 0.15877 0.94177 0.0
H13 H 0.20608 0.1324 0.88051 0.0
H14 H 0.16533 0.09234 0.93331 0.0
H15 H 0.26631 0.14743 0.8754 0.0
C16 C 0.26421 0.165 0.88312 0.0
C17 C 0.2163 0.14528 0.93166 0.0
C18 C 0.19608 0.12542 0.94007 0.0
C19 C 0.22152 0.14726 0.91023 0.0
C20 C 0.20425 0.13001 0.89708 0.0
C21 C 0.18378 0.11005 0.90517 0.0
C22 C 0.1804 0.10781 0.92675 0.0
N23 N 0.24421 0.16669 0.9022 0.0
H24 H 0.77687 0.16593 0.57299 0.0
H25 H 0.79232 0.13071 0.63163 0.0
H26 H 0.85339 0.1052 0.57847 0.0
H27 H 0.73893 0.1479 0.63991 0.0
C28 C 0.73748 0.16497 0.63145 0.0
C29 C 0.79045 0.15199 0.58225 0.0
C30 C 0.8161 0.13564 0.57305 0.0
C31 C 0.78131 0.15026 0.60326 0.0
C32 C 0.79868 0.13213 0.61535 0.0
C33 C 0.82447 0.11559 0.60655 0.0
C34 C 0.83293 0.11748 0.58534 0.0
N35 N 0.75533 0.16738 0.6118 0.0
H36 H 0.73705 0.34445 0.07332 0.0
H37 H 0.72382 0.38178 0.13122 0.0
H38 H 0.66386 0.40697 0.07768 0.0
H39 H 0.77378 0.36223 0.14079 0.0
C40 C 0.7757 0.34544 0.13199 0.0
C41 C 0.72435 0.35898 0.08231 0.0
C42 C 0.69954 0.37562 0.07283 0.0
C43 C 0.73368 0.36108 0.10327 0.0
C44 C 0.71736 0.37997 0.11499 0.0
C45 C 0.6924 0.3968 0.10589 0.0
C46 C 0.68376 0.39449 0.08476 0.0
N47 N 0.75872 0.34356 0.11209 0.0
H48 H 0.71805 0.66368 0.57373 0.0
H49 H 0.71342 0.63189 0.63447 0.0
H50 H 0.64276 0.60298 0.58637 0.0
H51 H 0.77703 0.6453 0.63325 0.0
C52 C 0.77152 0.66381 0.62802 0.0
C53 C 0.70598 0.65034 0.58427 0.0
C54 C 0.67908 0.63313 0.57719 0.0
C55 C 0.71888 0.64986 0.60479 0.0
C56 C 0.70431 0.63217 0.61849 0.0
C57 C 0.67682 0.6153 0.61187 0.0
C58 C 0.66409 0.61605 0.59134 0.0
N59 N 0.74573 0.66769 0.61145 0.0
H60 H 0.78279 0.85163 0.06855 0.0
H61 H 0.80467 0.87652 0.13037 0.0
H62 H 0.84784 0.91752 0.07881 0.0
H63 H 0.80754 0.83197 0.13388 0.0
C64 C 0.78002 0.82894 0.1267 0.0
C65 C 0.79586 0.86479 0.07885 0.0
C66 C 0.81621 0.88488 0.07077 0.0
C67 C 0.79237 0.86136 0.10026 0.0
C68 C 0.8084 0.8786 0.11383 0.0
C69 C 0.82758 0.89921 0.1061 0.0
C70 C 0.83172 0.90206 0.08463 0.0
N71 N 0.77137 0.84096 0.10782 0.0
H72 H 0.23365 0.84175 0.43761 0.0
H73 H 0.22751 0.87917 0.37939 0.0
H74 H 0.15737 0.90232 0.42985 0.0
H75 H 0.28336 0.86222 0.37387 0.0
C76 C 0.28233 0.84459 0.38153 0.0
C77 C 0.22138 0.85599 0.42815 0.0
C78 C 0.19409 0.87187 0.43651 0.0
C79 C 0.23383 0.8585 0.40769 0.0
C80 C 0.21856 0.87714 0.39528 0.0
C81 C 0.19148 0.89335 0.40331 0.0
C82 C 0.17926 0.89044 0.42387 0.0
N83 N 0.26075 0.84146 0.39995 0.0
H84 H 0.29622 0.67149 0.93647 0.0
H85 H 0.29834 0.63574 0.87736 0.0
H86 H 0.35143 0.60201 0.92964 0.0
H87 H 0.29381 0.67313 0.86513 0.0
C88 C 0.27536 0.6826 0.87589 0.0
C89 C 0.30499 0.6563 0.92689 0.0
C90 C 0.32425 0.63644 0.93574 0.0
C91 C 0.29648 0.65662 0.90573 0.0
C92 C 0.30668 0.63649 0.89342 0.0
C93 C 0.3267 0.61674 0.90184 0.0
C94 C 0.33533 0.6169 0.92303 0.0
N95 N 0.27675 0.67701 0.89737 0.0
Tb96 Tb 0.04993 0.12256 0.2392 0.0
C97 C 0.90077 0.07834 0.26701 0.0
N98 N 0.90855 0.10223 0.26336 0.0
C99 C 0.8527 0.10542 0.24241 0.0
C100 C 0.86968 0.06658 0.25757 0.0
C101 C 0.88412 0.11621 0.25208 0.0
C102 C 0.84581 0.08039 0.24487 0.0
C103 C 0.91583 0.04146 0.28576 0.0
C104 C 0.92356 0.06605 0.28081 0.0
C105 C 0.88616 0.02912 0.27557 0.0
C106 C 0.86307 0.04168 0.2615 0.0
Tb107 Tb 0.96141 0.11795 0.27892 0.0
N108 N 0.95145 0.07881 0.29052 0.0
C109 C 0.9371 0.0304 0.3014 0.0
C110 C 0.96952 0.06882 0.30716 0.0
C111 C 0.96352 0.04432 0.31245 0.0
H112 H 0.88958 0.13552 0.25013 0.0
H113 H 0.97884 0.03631 0.32524 0.0
H114 H 0.1124 0.08175 0.2578 0.0
H115 H 0.07003 0.21765 0.2209 0.0
H116 H 0.98843 0.07975 0.31652 0.0
H117 H 0.93214 0.01151 0.30568 0.0
H118 H 0.03878 0.17705 0.21889 0.0
H119 H 0.83392 0.11637 0.23302 0.0
H120 H 0.88005 0.01012 0.27897 0.0
H121 H 0.83963 0.03216 0.25419 0.0
H122 H 0.17033 0.08278 0.27892 0.0
H123 H 0.82155 0.07206 0.23732 0.0
H124 H 0.12696 0.22334 0.24288 0.0
N125 N 0.10641 0.1205 0.25688 0.0
C126 C 0.12431 0.1422 0.26015 0.0
C127 C 0.15731 0.09969 0.27407 0.0
C128 C 0.15841 0.14366 0.27148 0.0
C129 C 0.12383 0.09922 0.26246 0.0
C130 C 0.17427 0.12205 0.27899 0.0
N131 N 0.07717 0.16041 0.23986 0.0
C132 C 0.06364 0.17948 0.22846 0.0
C133 C 0.12832 0.18551 0.25266 0.0
C134 C 0.10965 0.1628 0.25091 0.0
C135 C 0.11347 0.20554 0.24195 0.0
C136 C 0.0813 0.20241 0.22955 0.0
H137 H 0.20044 0.12235 0.28777 0.0
H138 H 0.20217 0.16802 0.28313 0.0
H139 H 0.1757 0.20474 0.26666 0.0
O140 O 0.04207 0.12499 0.20707 0.0
O141 O 0.03451 0.15221 0.26045 0.0
O142 O 0.01465 0.13385 0.29032 0.0
O143 O 0.09443 0.11178 0.21946 0.0
O144 O 0.99613 0.13815 0.22824 0.0
O145 O 0.96145 0.14917 0.25756 0.0
O146 O 0.93025 0.1176 0.30727 0.0
O147 O 0.95807 0.10372 0.24709 0.0
O148 O 0.01698 0.08858 0.23982 0.0
O149 O 0.93429 0.15012 0.28795 0.0
O150 O 0.01688 0.10398 0.28911 0.0
O151 O 0.04615 0.0901 0.25932 0.0
C152 C 0.03426 0.15086 0.28068 0.0
C153 C 0.07465 0.096 0.18732 0.0
C154 C 0.08688 0.08278 0.15187 0.0
C155 C 0.07192 0.05962 0.15691 0.0
C156 C 0.06009 0.07279 0.19207 0.0
C157 C 0.05871 0.05471 0.17689 0.0
C158 C 0.0881 0.1009 0.1673 0.0
C159 C 0.97019 0.15145 0.23775 0.0
C160 C 0.0749 0.11561 0.20278 0.0
C161 C 0.17622 0.16647 0.27425 0.0
C162 C 0.16123 0.18737 0.26481 0.0
C163 C 0.97984 0.08699 0.23886 0.0
C164 C 0.896 0.15418 0.31874 0.0
C165 C 0.87208 0.16331 0.35337 0.0
C166 C 0.84992 0.18212 0.34489 0.0
C167 C 0.87384 0.17318 0.31072 0.0
C168 C 0.89476 0.14908 0.34007 0.0
C169 C 0.85079 0.18694 0.32373 0.0
C170 C 0.03976 0.08885 0.2794 0.0
C171 C 0.92072 0.14027 0.30468 0.0
H172 H 0.06989 0.04537 0.14536 0.0
H173 H 0.0497 0.0687 0.20743 0.0
H174 H 0.04714 0.03687 0.18058 0.0
H175 H 0.09973 0.11882 0.16385 0.0
H176 H 0.83166 0.19306 0.35463 0.0
H177 H 0.87422 0.17735 0.29434 0.0
H178 H 0.91224 0.13466 0.34636 0.0
H179 H 0.83363 0.20146 0.3174 0.0
Tb180 Tb 0.45932 0.38335 0.73815 0.0
C181 C 0.60635 0.4299 0.77165 0.0
N182 N 0.59895 0.4063 0.76672 0.0
C183 C 0.65795 0.4039 0.74831 0.0
C184 C 0.639 0.44196 0.76417 0.0
C185 C 0.62489 0.39282 0.756 0.0
C186 C 0.66473 0.4287 0.75211 0.0
C187 C 0.58907 0.46566 0.79136 0.0
C188 C 0.58184 0.44145 0.78505 0.0
C189 C 0.62029 0.4784 0.78299 0.0
C190 C 0.6453 0.46653 0.76945 0.0
Tb191 Tb 0.54451 0.38978 0.77983 0.0
N192 N 0.55273 0.42822 0.79318 0.0
C193 C 0.56571 0.47589 0.80654 0.0
C194 C 0.53236 0.43732 0.80941 0.0
C195 C 0.5377 0.46147 0.8159 0.0
H196 H 0.61961 0.37367 0.75308 0.0
H197 H 0.52064 0.4688 0.82834 0.0
H198 H 0.39353 0.4221 0.75695 0.0
H199 H 0.44803 0.28784 0.71959 0.0
H200 H 0.51213 0.42594 0.81754 0.0
H201 H 0.5702 0.49446 0.8118 0.0
H202 H 0.47662 0.32928 0.71848 0.0
H203 H 0.67808 0.39336 0.73942 0.0
H204 H 0.62609 0.49711 0.78745 0.0
H205 H 0.66994 0.47629 0.76363 0.0
H206 H 0.33466 0.41894 0.77713 0.0
H207 H 0.69026 0.43726 0.7461 0.0
H208 H 0.3895 0.28041 0.73999 0.0
N209 N 0.40204 0.38356 0.75528 0.0
C210 C 0.38528 0.36133 0.75784 0.0
C211 C 0.34897 0.40253 0.77213 0.0
C212 C 0.35063 0.35869 0.76858 0.0
C213 C 0.38306 0.40419 0.76108 0.0
C214 C 0.33305 0.37964 0.77627 0.0
N215 N 0.43521 0.34466 0.73845 0.0
C216 C 0.45112 0.32607 0.72741 0.0
C217 C 0.38469 0.31806 0.74985 0.0
C218 C 0.40193 0.34129 0.74866 0.0
C219 C 0.40183 0.29857 0.73946 0.0
C220 C 0.43494 0.30268 0.72797 0.0
H221 H 0.30642 0.37842 0.78463 0.0
H222 H 0.30771 0.33296 0.77909 0.0
H223 H 0.3376 0.29734 0.76267 0.0
O224 O 0.46709 0.37935 0.70612 0.0
O225 O 0.47488 0.35436 0.76012 0.0
O226 O 0.49047 0.37401 0.79 0.0
O227 O 0.41535 0.39404 0.71806 0.0
O228 O 0.51523 0.37062 0.728 0.0
O229 O 0.5477 0.35929 0.75784 0.0
O230 O 0.57348 0.38894 0.8088 0.0
O231 O 0.55086 0.40551 0.74857 0.0
O232 O 0.49118 0.4178 0.73869 0.0
O233 O 0.56963 0.35697 0.78884 0.0
O234 O 0.48774 0.40335 0.78815 0.0
O235 O 0.46001 0.41636 0.75765 0.0
C236 C 0.47298 0.35621 0.78029 0.0
C237 C 0.43564 0.4077 0.68523 0.0
C238 C 0.42587 0.41892 0.6491 0.0
C239 C 0.44142 0.44212 0.65325 0.0
C240 C 0.45059 0.43101 0.68915 0.0
C241 C 0.45351 0.44812 0.6732 0.0
C242 C 0.42304 0.40178 0.66526 0.0
C243 C 0.54074 0.35743 0.73783 0.0
C244 C 0.43463 0.38899 0.7015 0.0
C245 C 0.33409 0.33539 0.77069 0.0
C246 C 0.35103 0.31512 0.76127 0.0
C247 C 0.52824 0.42096 0.73918 0.0
C248 C 0.60533 0.35144 0.82036 0.0
C249 C 0.62885 0.34234 0.85506 0.0
C250 C 0.64835 0.32213 0.84695 0.0
C251 C 0.62486 0.33104 0.81274 0.0
C252 C 0.60767 0.35721 0.84154 0.0
C253 C 0.64636 0.31659 0.82596 0.0
C254 C 0.46593 0.41844 0.77773 0.0
C255 C 0.58237 0.36618 0.806 0.0
H256 H 0.44377 0.45571 0.64114 0.0
H257 H 0.46013 0.43586 0.70447 0.0
H258 H 0.46527 0.46605 0.67629 0.0
H259 H 0.41181 0.38366 0.66222 0.0
H260 H 0.66548 0.31065 0.85684 0.0
H261 H 0.62368 0.32631 0.79648 0.0
H262 H 0.59227 0.37274 0.84755 0.0
H263 H 0.6615 0.301 0.81992 0.0
Tb264 Tb 0.0446 0.88709 0.734 0.0
C265 C 0.88805 0.8558 0.76227 0.0
N266 N 0.90102 0.87891 0.75929 0.0
C267 C 0.84593 0.88828 0.73914 0.0
C268 C 0.85429 0.84756 0.75289 0.0
C269 C 0.87985 0.89552 0.74864 0.0
C270 C 0.83334 0.86411 0.74103 0.0
C271 C 0.89648 0.81641 0.77849 0.0
C272 C 0.90896 0.84052 0.77481 0.0
C273 C 0.86368 0.80766 0.76851 0.0
C274 C 0.84257 0.82323 0.75576 0.0
Tb275 Tb 0.95695 0.8889 0.7749 0.0
N276 N 0.94042 0.84974 0.7842 0.0
C277 C 0.91665 0.80211 0.79258 0.0
C278 C 0.95799 0.83657 0.79935 0.0
C279 C 0.94708 0.81241 0.80336 0.0
H280 H 0.88957 0.91419 0.74719 0.0
H281 H 0.96176 0.8019 0.81502 0.0
H282 H 0.10075 0.84146 0.74911 0.0
H283 H 0.08192 0.97857 0.71109 0.0
H284 H 0.98 0.84464 0.80874 0.0
H285 H 0.90804 0.78347 0.79586 0.0
H286 H 0.04112 0.94163 0.71307 0.0
H287 H 0.82958 0.90131 0.73033 0.0
H288 H 0.85388 0.78909 0.77095 0.0
H289 H 0.81696 0.8164 0.74846 0.0
H290 H 0.1627 0.83703 0.76629 0.0
H291 H 0.8072 0.85851 0.73355 0.0
H292 H 0.14436 0.97918 0.72868 0.0
N293 N 0.10317 0.88026 0.74828 0.0
C294 C 0.12634 0.90009 0.74977 0.0
C295 C 0.15253 0.85498 0.76211 0.0
C296 C 0.16302 0.89835 0.75832 0.0
C297 C 0.11683 0.85762 0.75295 0.0
C298 C 0.17548 0.87554 0.76519 0.0
N299 N 0.07947 0.9222 0.73226 0.0
C300 C 0.06816 0.94193 0.72094 0.0
C301 C 0.13873 0.94221 0.74027 0.0
C302 C 0.11445 0.92169 0.74098 0.0
C303 C 0.12652 0.96304 0.72965 0.0
C304 C 0.09126 0.96277 0.71971 0.0
H305 H 0.20344 0.8734 0.7719 0.0
H306 H 0.21481 0.91822 0.76546 0.0
H307 H 0.19352 0.95666 0.74957 0.0
O308 O 0.03214 0.88975 0.70233 0.0
O309 O 0.04009 0.91847 0.75537 0.0
O310 O 0.01328 0.90121 0.78419 0.0
O311 O 0.08285 0.87204 0.71244 0.0
O312 O 0.99304 0.90641 0.72474 0.0
O313 O 0.96255 0.92075 0.75433 0.0
O314 O 0.92943 0.88856 0.80425 0.0
O315 O 0.95059 0.87507 0.74318 0.0
O316 O 0.00642 0.85557 0.7367 0.0
O317 O 0.93326 0.92161 0.78561 0.0
O318 O 0.0105 0.87189 0.78516 0.0
O319 O 0.03727 0.85595 0.75534 0.0
C320 C 0.03216 0.91899 0.77527 0.0
C321 C 0.05499 0.85805 0.68147 0.0
C322 C 0.06021 0.84338 0.64598 0.0
C323 C 0.03841 0.82274 0.65137 0.0
C324 C 0.0339 0.83714 0.68668 0.0
C325 C 0.02555 0.81962 0.67166 0.0
C326 C 0.0684 0.86099 0.66118 0.0
C327 C 0.97156 0.92234 0.73452 0.0
C328 C 0.06182 0.87749 0.69667 0.0
C329 C 0.18665 0.91913 0.75879 0.0
C330 C 0.17457 0.94101 0.74969 0.0
C331 C 0.96932 0.85665 0.73538 0.0
C332 C 0.8996 0.9255 0.81816 0.0
C333 C 0.87724 0.93165 0.85366 0.0
C334 C 0.85772 0.95258 0.84697 0.0
C335 C 0.88027 0.94664 0.81206 0.0
C336 C 0.89789 0.91796 0.839 0.0
C337 C 0.85934 0.95999 0.82637 0.0
C338 C 0.03234 0.85591 0.77558 0.0
C339 C 0.9211 0.91154 0.80258 0.0
H340 H 0.03179 0.80889 0.63996 0.0
H341 H 0.02377 0.83444 0.70228 0.0
H342 H 0.00901 0.8036 0.67575 0.0
H343 H 0.08453 0.87724 0.65712 0.0
H344 H 0.8408 0.9632 0.85764 0.0
H345 H 0.88098 0.95275 0.79612 0.0
H346 H 0.91327 0.90186 0.84383 0.0
H347 H 0.84421 0.97613 0.82146 0.0
Tb348 Tb 0.47028 0.6247 0.23677 0.0
C349 C 0.63574 0.64597 0.26376 0.0
N350 N 0.6186 0.62394 0.26091 0.0
C351 C 0.67278 0.60968 0.24204 0.0
C352 C 0.672 0.6509 0.25546 0.0
C353 C 0.63663 0.60571 0.25041 0.0
C354 C 0.69051 0.63239 0.24452 0.0
C355 C 0.63285 0.68699 0.27764 0.0
C356 C 0.61606 0.66384 0.27445 0.0
C357 C 0.66875 0.69215 0.26913 0.0
C358 C 0.68828 0.67415 0.25807 0.0
Tb359 Tb 0.56009 0.61927 0.27554 0.0
N360 N 0.58118 0.65824 0.28235 0.0
C361 C 0.6136 0.704 0.28981 0.0
C362 C 0.56448 0.67391 0.29603 0.0
C363 C 0.57966 0.69722 0.2994 0.0
H364 H 0.62323 0.58806 0.24866 0.0
H365 H 0.56567 0.70972 0.30986 0.0
H366 H 0.41311 0.6656 0.25781 0.0
H367 H 0.44989 0.52924 0.21737 0.0
H368 H 0.54032 0.66843 0.30514 0.0
H369 H 0.62553 0.72196 0.29265 0.0
H370 H 0.4838 0.56838 0.21751 0.0
H371 H 0.68693 0.59523 0.23368 0.0
H372 H 0.68193 0.70989 0.2713 0.0
H373 H 0.71602 0.67836 0.25169 0.0
H374 H 0.34898 0.66627 0.27324 0.0
H375 H 0.71841 0.63545 0.23789 0.0
H376 H 0.386 0.52595 0.23305 0.0
N377 N 0.41135 0.62765 0.25115 0.0
C378 C 0.39002 0.60687 0.25099 0.0
C379 C 0.3603 0.64939 0.26718 0.0
C380 C 0.35301 0.60647 0.25928 0.0
C381 C 0.39687 0.64889 0.25874 0.0
C382 C 0.33831 0.62807 0.26753 0.0
N383 N 0.44199 0.58693 0.23525 0.0
C384 C 0.45716 0.56715 0.2255 0.0
C385 C 0.38473 0.56388 0.24242 0.0
C386 C 0.4058 0.58584 0.24272 0.0
C387 C 0.40124 0.54318 0.23362 0.0
C388 C 0.43742 0.54492 0.22489 0.0
H389 H 0.30998 0.62853 0.27406 0.0
H390 H 0.30359 0.58386 0.26551 0.0
H391 H 0.33132 0.5466 0.25072 0.0
O392 O 0.46782 0.62037 0.20438 0.0
O393 O 0.46143 0.6065 0.26697 0.0
O394 O 0.51914 0.58932 0.27427 0.0
O395 O 0.43479 0.64783 0.21958 0.0
O396 O 0.52055 0.60489 0.22569 0.0
O397 O 0.55012 0.58848 0.25459 0.0
O398 O 0.56438 0.61818 0.30848 0.0
O399 O 0.56944 0.63567 0.24485 0.0
O400 O 0.51285 0.65414 0.23671 0.0
O401 O 0.59971 0.59564 0.28874 0.0
O402 O 0.50797 0.63775 0.28619 0.0
O403 O 0.48393 0.65563 0.25666 0.0
C404 C 0.48234 0.59052 0.27692 0.0
C405 C 0.40845 0.62992 0.18948 0.0
C406 C 0.38031 0.62301 0.15543 0.0
C407 C 0.34595 0.61637 0.16505 0.0
C408 C 0.37347 0.62387 0.19866 0.0
C409 C 0.34261 0.6169 0.18652 0.0
C410 C 0.41161 0.62968 0.1678 0.0
C411 C 0.54368 0.58913 0.23451 0.0
C412 C 0.44162 0.63682 0.2022 0.0
C413 C 0.33206 0.58457 0.25916 0.0
C414 C 0.34787 0.56334 0.25076 0.0
C415 C 0.54984 0.65205 0.23462 0.0
C416 C 0.61023 0.59081 0.32545 0.0
C417 C 0.62286 0.58832 0.36259 0.0
C418 C 0.64688 0.56835 0.35888 0.0
C419 C 0.63437 0.5708 0.32227 0.0
C420 C 0.60467 0.59964 0.34571 0.0
C421 C 0.65254 0.55972 0.33888 0.0
C422 C 0.48749 0.65459 0.27687 0.0
C423 C 0.59111 0.60193 0.30744 0.0
H424 H 0.32131 0.61139 0.15594 0.0
H425 H 0.36966 0.62482 0.21514 0.0
H426 H 0.31583 0.6122 0.19378 0.0
H427 H 0.43837 0.63463 0.16057 0.0
H428 H 0.66174 0.55954 0.37147 0.0
H429 H 0.6392 0.56359 0.3069 0.0
H430 H 0.58601 0.61499 0.34836 0.0
H431 H 0.67114 0.54436 0.33624 0.0
C432 C 0.17065 0.93683 0.39862 0.0
C433 C 0.17606 0.9134 0.39027 0.0
C434 C 0.15653 0.95576 0.38639 0.0
C435 C 0.14552 0.97541 0.33215 0.0
H436 H 0.06967 0.01887 0.3549 0.0
C437 C 0.06608 0.04666 0.28235 0.0
C438 C 0.05821 0.06933 0.29147 0.0
C439 C 0.08143 0.02771 0.29413 0.0
C440 C 0.09122 0.00712 0.34838 0.0
H441 H 0.17022 0.89149 0.36251 0.0
H442 H 0.14581 0.9246 0.34115 0.0
H443 H 0.09415 0.98564 0.37599 0.0
H444 H 0.06163 0.09039 0.31973 0.0
H445 H 0.08887 0.05748 0.34027 0.0
H446 H 0.14273 0.99698 0.30457 0.0
C447 C 0.15297 0.92836 0.35711 0.0
C448 C 0.1052 0.98803 0.36048 0.0
C449 C 0.16698 0.90939 0.36936 0.0
C450 C 0.06695 0.07295 0.31241 0.0
C451 C 0.08237 0.05406 0.32417 0.0
C452 C 0.13163 0.99457 0.32007 0.0
C453 C 0.14755 0.95177 0.36549 0.0
C454 C 0.13254 0.97196 0.35252 0.0
C455 C 0.0894 0.0311 0.31525 0.0
C456 C 0.10434 0.01069 0.32805 0.0
H457 H 0.17794 0.94067 0.41456 0.0
H458 H 0.15322 0.97367 0.39325 0.0
H459 H 0.16694 0.96354 0.32566 0.0
H460 H 0.05944 0.04337 0.26623 0.0
H461 H 0.08611 0.01021 0.2868 0.0
C462 C 0.35224 0.60058 0.86824 0.0
C463 C 0.33885 0.59613 0.8884 0.0
C464 C 0.36376 0.58133 0.85558 0.0
C465 C 0.35641 0.51401 0.84961 0.0
H466 H 0.44479 0.52301 0.81452 0.0
C467 C 0.43481 0.4345 0.80957 0.0
C468 C 0.44682 0.43818 0.7891 0.0
C469 C 0.41912 0.45367 0.82088 0.0
C470 C 0.41978 0.52032 0.82405 0.0
H471 H 0.32681 0.56775 0.91093 0.0
H472 H 0.34816 0.53427 0.88914 0.0
H473 H 0.42308 0.55659 0.83613 0.0
H474 H 0.45096 0.46441 0.76412 0.0
H475 H 0.42361 0.4981 0.78396 0.0
H476 H 0.35382 0.47748 0.83779 0.0
C477 C 0.34911 0.55264 0.88296 0.0
C478 C 0.40728 0.53957 0.83643 0.0
C479 C 0.33735 0.5719 0.89558 0.0
C480 C 0.4419 0.46115 0.7799 0.0
C481 C 0.42656 0.48043 0.79129 0.0
C482 C 0.36911 0.49469 0.83733 0.0
C483 C 0.36249 0.55711 0.86279 0.0
C484 C 0.37547 0.53666 0.84941 0.0
C485 C 0.41535 0.47694 0.81197 0.0
C486 C 0.40098 0.49764 0.82445 0.0
H487 H 0.35425 0.61902 0.86226 0.0
H488 H 0.37344 0.58547 0.84007 0.0
H489 H 0.33144 0.51122 0.85912 0.0
H490 H 0.43804 0.41685 0.81692 0.0
H491 H 0.41097 0.45047 0.83681 0.0
C492 C 0.62256 0.59347 0.62898 0.0
C493 C 0.66183 0.59654 0.62628 0.0
C494 C 0.6084 0.57535 0.64217 0.0
C495 C 0.6377 0.53195 0.68395 0.0
H496 H 0.54311 0.49981 0.66929 0.0
C497 C 0.58219 0.44129 0.72036 0.0
C498 C 0.54458 0.44182 0.72758 0.0
C499 C 0.59713 0.46087 0.70902 0.0
C500 C 0.56945 0.50875 0.67361 0.0
H501 H 0.71715 0.58308 0.63506 0.0
H502 H 0.69267 0.55074 0.65741 0.0
H503 H 0.56809 0.53225 0.64729 0.0
H504 H 0.49319 0.46342 0.72871 0.0
H505 H 0.51874 0.49707 0.70802 0.0
H506 H 0.63946 0.50747 0.70987 0.0
C507 C 0.6726 0.56276 0.64996 0.0
C508 C 0.58373 0.52749 0.6611 0.0
C509 C 0.68672 0.5812 0.63705 0.0
C510 C 0.52215 0.46231 0.72315 0.0
C511 C 0.53677 0.48162 0.7114 0.0
C512 C 0.62373 0.51287 0.69625 0.0
C513 C 0.63319 0.55951 0.65269 0.0
C514 C 0.618 0.53948 0.66612 0.0
C515 C 0.57438 0.48106 0.70422 0.0
C516 C 0.5894 0.5012 0.69123 0.0
H517 H 0.60281 0.60526 0.62098 0.0
H518 H 0.57796 0.5739 0.64419 0.0
H519 H 0.66376 0.54095 0.68862 0.0
H520 H 0.59978 0.42551 0.72302 0.0
H521 H 0.62611 0.45991 0.70346 0.0
C522 C 0.8657 0.91174 0.13716 0.0
C523 C 0.84257 0.91813 0.12038 0.0
C524 C 0.88016 0.92976 0.15038 0.0
C525 C 0.89578 0.99732 0.15364 0.0
H526 H 0.9116 0.98331 0.21176 0.0
C527 C 0.93027 0.07174 0.21438 0.0
C528 C 0.96275 0.06732 0.22633 0.0
C529 C 0.91491 0.05331 0.20194 0.0
C530 C 0.90742 0.9874 0.19553 0.0
H531 H 0.81541 0.94817 0.10458 0.0
H532 H 0.83912 0.97949 0.12801 0.0
H533 H 0.8855 0.95169 0.1892 0.0
H534 H 0.00434 0.04023 0.23501 0.0
H535 H 0.977 0.00776 0.21349 0.0
H536 H 0.91665 0.03331 0.1603 0.0
C537 C 0.84749 0.96076 0.13066 0.0
C538 C 0.89269 0.96926 0.18253 0.0
C539 C 0.83364 0.9428 0.11725 0.0
C540 C 0.9793 0.04407 0.22588 0.0
C541 C 0.96358 0.0255 0.2137 0.0
C542 C 0.90983 0.01554 0.16672 0.0
C543 C 0.87125 0.95456 0.14734 0.0
C544 C 0.88675 0.97391 0.16135 0.0
C545 C 0.93147 0.03003 0.20146 0.0
C546 C 0.91591 0.01074 0.18776 0.0
H547 H 0.8732 0.89284 0.13981 0.0
H548 H 0.89884 0.9242 0.16278 0.0
H549 H 0.89254 1.00156 0.13739 0.0
H550 H 0.91724 0.0896 0.21431 0.0
H551 H 0.89004 0.05722 0.19271 0.0
C552 C 0.84696 0.07247 0.61184 0.0
C553 C 0.84195 0.09622 0.61958 0.0
C554 C 0.8614 0.05398 0.62447 0.0
C555 C 0.91215 0.04336 0.67428 0.0
H556 H 0.87141 0.97787 0.66784 0.0
C557 C 0.94252 0.96395 0.7315 0.0
C558 C 0.95495 0.94228 0.72211 0.0
C559 C 0.92819 0.98305 0.71946 0.0
C560 C 0.88311 0.99607 0.66975 0.0
H561 H 0.84973 0.11925 0.64657 0.0
H562 H 0.87307 0.08691 0.66877 0.0
H563 H 0.84821 0.01063 0.6458 0.0
H564 H 0.96131 0.92342 0.69281 0.0
H565 H 0.93572 0.95651 0.67196 0.0
H566 H 0.94641 0.02864 0.69863 0.0
C567 C 0.86647 0.08256 0.65285 0.0
C568 C 0.87005 0.01485 0.65703 0.0
C569 C 0.85248 0.10109 0.64016 0.0
C570 C 0.95213 0.93992 0.70053 0.0
C571 C 0.93728 0.9588 0.68857 0.0
C572 C 0.92482 0.02461 0.6872 0.0
C573 C 0.87085 0.05869 0.64524 0.0
C574 C 0.88461 0.03873 0.65898 0.0
C575 C 0.92541 0.9806 0.69788 0.0
C576 C 0.91064 1.00076 0.68494 0.0
H577 H 0.83893 0.06796 0.59614 0.0
H578 H 0.86505 0.03597 0.6179 0.0
H579 H 0.92451 0.06138 0.67607 0.0
H580 H 0.94447 0.96633 0.7481 0.0
H581 H 0.91904 0.99966 0.72701 0.0
C582 C 0.67128 0.4404 0.11036 0.0
C583 C 0.67558 0.41676 0.11856 0.0
C584 C 0.6569 0.4593 0.12257 0.0
C585 C 0.64788 0.47875 0.17643 0.0
H586 H 0.5681 0.52101 0.15633 0.0
C587 C 0.57293 0.5479 0.22982 0.0
C588 C 0.561 0.57015 0.2213 0.0
C589 C 0.5875 0.52952 0.21715 0.0
C590 C 0.59083 0.50967 0.1621 0.0
H591 H 0.6666 0.39442 0.14592 0.0
H592 H 0.64261 0.42756 0.16728 0.0
H593 H 0.59215 0.4885 0.13423 0.0
H594 H 0.55603 0.59091 0.1929 0.0
H595 H 0.58262 0.55927 0.17087 0.0
H596 H 0.64739 0.5001 0.20408 0.0
C597 C 0.6507 0.43143 0.15144 0.0
C598 C 0.60446 0.49097 0.14943 0.0
C599 C 0.66459 0.41248 0.13919 0.0
C600 C 0.56467 0.57385 0.1999 0.0
C601 C 0.57969 0.55561 0.18725 0.0
C602 C 0.63464 0.49764 0.189 0.0
C603 C 0.6469 0.45506 0.1433 0.0
C604 C 0.63292 0.47523 0.15653 0.0
C605 C 0.59096 0.53308 0.19566 0.0
C606 C 0.60575 0.51328 0.18207 0.0
H607 H 0.67986 0.44447 0.09464 0.0
H608 H 0.65449 0.4774 0.11595 0.0
H609 H 0.67022 0.46707 0.18219 0.0
H610 H 0.57015 0.54443 0.24625 0.0
H611 H 0.59524 0.51232 0.22419 0.0
C612 C 0.30801 0.43494 0.37774 0.0
C613 C 0.33161 0.42125 0.39075 0.0
C614 C 0.32314 0.45375 0.36554 0.0
C615 C 0.40994 0.49296 0.36013 0.0
H616 H 0.36741 0.50727 0.30623 0.0
C617 C 0.48535 0.55292 0.29893 0.0
C618 C 0.46377 0.5719 0.29028 0.0
C619 C 0.46819 0.53516 0.31139 0.0
C620 C 0.37934 0.50354 0.32132 0.0
H621 H 0.38953 0.41584 0.40078 0.0
H622 H 0.41633 0.4478 0.37892 0.0
H623 H 0.33993 0.47448 0.32714 0.0
H624 H 0.40742 0.58752 0.28888 0.0
H625 H 0.37711 0.5557 0.30971 0.0
H626 H 0.45029 0.52145 0.35379 0.0
C627 C 0.38593 0.44484 0.37861 0.0
C628 C 0.36353 0.48483 0.3334 0.0
C629 C 0.37068 0.42636 0.39105 0.0
C630 C 0.42466 0.57277 0.29461 0.0
C631 C 0.40732 0.55466 0.30671 0.0
C632 C 0.42612 0.51131 0.3479 0.0
C633 C 0.36236 0.45902 0.36582 0.0
C634 C 0.37869 0.47921 0.35297 0.0
C635 C 0.429 0.53575 0.31527 0.0
C636 C 0.41103 0.51674 0.32838 0.0
H637 H 0.27771 0.43144 0.37736 0.0
H638 H 0.3039 0.46443 0.3562 0.0
H639 H 0.42189 0.48971 0.37529 0.0
H640 H 0.51559 0.55167 0.29609 0.0
H641 H 0.48551 0.52072 0.31778 0.0
C642 C 0.18416 0.08475 0.87257 0.0
C643 C 0.16625 0.09146 0.89119 0.0
C644 C 0.16798 0.06707 0.85966 0.0
C645 C 0.11011 0.01273 0.86033 0.0
H646 H 0.08814 0.02629 0.80276 0.0
C647 C 0.03522 0.94104 0.80919 0.0
C648 C 0.04538 0.93972 0.78819 0.0
C649 C 0.0482 0.96027 0.82156 0.0
C650 C 0.09467 0.02196 0.81869 0.0
H651 H 0.11646 0.08499 0.91039 0.0
H652 H 0.08948 0.05329 0.88831 0.0
H653 H 0.11535 0.05825 0.82451 0.0
H654 H 0.07554 0.9584 0.76368 0.0
H655 H 0.10062 0.99071 0.78529 0.0
H656 H 0.09138 0.97625 0.85457 0.0
C657 C 0.11596 0.06194 0.88378 0.0
C658 C 0.11 0.04039 0.83115 0.0
C659 C 0.13166 0.07998 0.89648 0.0
C660 C 0.06813 0.95838 0.77983 0.0
C661 C 0.08191 0.97728 0.79226 0.0
C662 C 0.09558 0.99413 0.84779 0.0
C663 C 0.13398 0.05535 0.86528 0.0
C664 C 0.1177 0.03593 0.85207 0.0
C665 C 0.07226 0.9785 0.81337 0.0
C666 C 0.08751 0.99847 0.82678 0.0
H667 H 0.21111 0.09277 0.86809 0.0
H668 H 0.18253 0.06209 0.84552 0.0
H669 H 0.11621 0.00883 0.8764 0.0
H670 H 0.01707 0.92726 0.81614 0.0
H671 H 0.03911 0.96083 0.83754 0.0
C672 C 0.17751 0.14215 0.97478 0.0
C673 C 0.19105 0.12271 0.96275 0.0
C674 C 0.16895 0.13866 0.99574 0.0
C675 C 0.14491 0.08897 0.03254 0.0
H676 H 0.16083 0.13888 0.07416 0.0
C677 C 0.12081 0.07026 0.11931 0.0
C678 C 0.10088 0.08806 0.13056 0.0
C679 C 0.13336 0.07503 0.09919 0.0
C680 C 0.15597 0.12484 0.06266 0.0
H681 H 0.2085 0.08485 0.96343 0.0
H682 H 0.19449 0.07887 0.99997 0.0
H683 H 0.18119 0.1464 0.03857 0.0
H684 H 0.07848 0.12487 0.12926 0.0
H685 H 0.10085 0.13324 0.09424 0.0
H686 H 0.11989 0.06739 0.0566 0.0
C687 C 0.18925 0.09661 0.99319 0.0
C688 C 0.16758 0.12915 0.04226 0.0
C689 C 0.19747 0.10005 0.97226 0.0
C690 C 0.09424 0.11086 0.12122 0.0
C691 C 0.10702 0.11567 0.10112 0.0
C692 C 0.13355 0.08463 0.05291 0.0
C693 C 0.17405 0.11569 1.00511 0.0
C694 C 0.16223 0.11124 0.02693 0.0
C695 C 0.1265 0.09775 0.08984 0.0
C696 C 0.13893 0.10249 0.06822 0.0
H697 H 0.17208 0.15977 0.96779 0.0
H698 H 0.15703 0.15372 1.00437 0.0
H699 H 0.13948 0.07496 0.0211 0.0
H700 H 0.12707 0.05268 0.12613 0.0
H701 H 0.14879 0.06097 0.09101 0.0
C702 C 0.31195 0.40589 0.47208 0.0
C703 C 0.31763 0.3842 0.46093 0.0
C704 C 0.32134 0.40725 0.49302 0.0
C705 C 0.38527 0.38145 0.53134 0.0
H706 H 0.31837 0.41229 0.57111 0.0
C707 C 0.37732 0.40141 0.62479 0.0
C708 C 0.41288 0.41259 0.62793 0.0
C709 C 0.36469 0.39604 0.60479 0.0
C710 C 0.33724 0.40348 0.56022 0.0
H711 H 0.33721 0.34686 0.46295 0.0
H712 H 0.35425 0.34936 0.49968 0.0
H713 H 0.29691 0.40609 0.53553 0.0
H714 H 0.46346 0.42634 0.61265 0.0
H715 H 0.44153 0.41675 0.57771 0.0
H716 H 0.42592 0.37935 0.55592 0.0
C717 C 0.34237 0.36524 0.49215 0.0
C718 C 0.32505 0.40007 0.53985 0.0
C719 C 0.33241 0.36376 0.47122 0.0
C720 C 0.4358 0.4179 0.61068 0.0
C721 C 0.4234 0.41223 0.59072 0.0
C722 C 0.39766 0.38517 0.55165 0.0
C723 C 0.33706 0.38706 0.50323 0.0
C724 C 0.34904 0.38919 0.52516 0.0
C725 C 0.38759 0.40141 0.58755 0.0
C726 C 0.37386 0.39637 0.56626 0.0
H727 H 0.30037 0.42186 0.46454 0.0
H728 H 0.31721 0.42435 0.5011 0.0
H729 H 0.40446 0.37318 0.52031 0.0
H730 H 0.35898 0.39723 0.63779 0.0
H731 H 0.33705 0.38759 0.60281 0.0
C732 C 0.68861 0.39389 0.03763 0.0
C733 C 0.69001 0.37321 0.05051 0.0
C734 C 0.68031 0.39152 0.01657 0.0
C735 C 0.6808 0.34596 0.97432 0.0
H736 H 0.61664 0.39251 0.94596 0.0
C737 C 0.62839 0.32807 0.89186 0.0
C738 C 0.63077 0.34743 0.87763 0.0
C739 C 0.63363 0.33218 0.91295 0.0
C740 C 0.63488 0.3795 0.95363 0.0
H741 H 0.68261 0.3339 0.05144 0.0
H742 H 0.66795 0.32975 0.01482 0.0
H743 H 0.62984 0.39774 0.98282 0.0
H744 H 0.63907 0.38651 0.87453 0.0
H745 H 0.64822 0.39375 0.91157 0.0
H746 H 0.68583 0.32768 0.94527 0.0
C747 C 0.67406 0.34778 0.02087 0.0
C748 C 0.64249 0.38249 0.97474 0.0
C749 C 0.68244 0.35015 0.04189 0.0
C750 C 0.63691 0.37123 0.88512 0.0
C751 C 0.64217 0.37537 0.90632 0.0
C752 C 0.67314 0.34295 0.95331 0.0
C753 C 0.67315 0.3684 0.00789 0.0
C754 C 0.66536 0.36565 0.98537 0.0
C755 C 0.64137 0.35578 0.92041 0.0
C756 C 0.64987 0.35955 0.94272 0.0
H757 H 0.69471 0.4119 0.04375 0.0
H758 H 0.68032 0.40775 0.007 0.0
H759 H 0.69923 0.33295 0.98186 0.0
H760 H 0.62281 0.3096 0.88666 0.0
H761 H 0.63188 0.31678 0.92343 0.0
C762 C 0.83074 0.16047 0.54132 0.0
C763 C 0.82509 0.13753 0.5506 0.0
C764 C 0.83796 0.16237 0.52013 0.0
C765 C 0.86945 0.12732 0.47424 0.0
H766 H 0.81885 0.17918 0.44439 0.0
C767 C 0.86864 0.1354 0.38435 0.0
C768 C 0.87156 0.15909 0.37608 0.0
C769 C 0.86502 0.13189 0.40574 0.0
C770 C 0.83359 0.16477 0.45251 0.0
H771 H 0.82283 0.09854 0.54485 0.0
H772 H 0.83534 0.10185 0.50781 0.0
H773 H 0.80855 0.17477 0.48138 0.0
H774 H 0.87543 0.19753 0.38386 0.0
H775 H 0.86932 0.19145 0.42098 0.0
H776 H 0.89433 0.11731 0.44518 0.0
C777 C 0.83465 0.11838 0.51699 0.0
C778 C 0.82768 0.16224 0.47375 0.0
C779 C 0.82746 0.11648 0.53822 0.0
C780 C 0.87233 0.17908 0.3897 0.0
C781 C 0.86878 0.17559 0.41098 0.0
C782 C 0.87536 0.12984 0.45291 0.0
C783 C 0.83964 0.14137 0.50765 0.0
C784 C 0.84572 0.14362 0.48493 0.0
C785 C 0.86432 0.15202 0.41926 0.0
C786 C 0.85771 0.14874 0.44183 0.0
H787 H 0.82982 0.17702 0.55046 0.0
H788 H 0.84242 0.18034 0.51353 0.0
H789 H 0.88404 0.1129 0.48241 0.0
H790 H 0.8678 0.11964 0.37424 0.0
H791 H 0.86147 0.11349 0.41161 0.0
C792 C 0.82226 0.91119 0.03893 0.0
C793 C 0.82196 0.88782 0.04801 0.0
C794 C 0.83006 0.91415 0.01788 0.0
C795 C 0.82905 0.88316 0.96767 0.0
H796 H 0.90181 0.93335 0.95219 0.0
C797 C 0.87212 0.90001 0.88204 0.0
C798 C 0.8759 0.92457 0.87594 0.0
C799 C 0.86835 0.89384 0.90301 0.0
C800 C 0.8811 0.91943 0.95616 0.0
H801 H 0.82904 0.84917 0.04168 0.0
H802 H 0.84157 0.85441 1.00477 0.0
H803 H 0.88791 0.9261 0.98857 0.0
H804 H 0.8804 0.96175 0.8873 0.0
H805 H 0.8725 0.9512 0.92342 0.0
H806 H 0.82126 0.87698 0.93525 0.0
C807 C 0.8359 0.8704 0.0141 0.0
C808 C 0.87323 0.91525 0.97705 0.0
C809 C 0.82853 0.86742 0.03525 0.0
C810 C 0.87686 0.94267 0.89134 0.0
C811 C 0.87289 0.93656 0.91218 0.0
C812 C 0.83659 0.88753 0.9467 0.0
C813 C 0.83729 0.89383 1.00526 0.0
C814 C 0.84679 0.89729 0.98304 0.0
C815 C 0.86828 0.91208 0.91835 0.0
C816 C 0.86235 0.90597 0.94065 0.0
H817 H 0.81644 0.92729 0.04808 0.0
H818 H 0.83024 0.93241 0.01143 0.0
H819 H 0.8084 0.86926 0.97183 0.0
H820 H 0.87109 0.88559 0.87061 0.0
H821 H 0.86536 0.87477 0.90716 0.0
C822 C 0.66128 0.60948 0.5453 0.0
C823 C 0.6677 0.63216 0.55496 0.0
C824 C 0.65051 0.60823 0.52458 0.0
C825 C 0.65617 0.64055 0.47539 0.0
H826 H 0.57689 0.59498 0.45928 0.0
C827 C 0.62106 0.6219 0.38921 0.0
C828 C 0.6176 0.59702 0.38417 0.0
C829 C 0.62107 0.6294 0.40994 0.0
C830 C 0.5992 0.60772 0.46347 0.0
H831 H 0.66791 0.67138 0.55003 0.0
H832 H 0.65007 0.66905 0.5135 0.0
H833 H 0.58972 0.60197 0.49582 0.0
H834 H 0.60907 0.56073 0.3968 0.0
H835 H 0.60963 0.5736 0.43269 0.0
H836 H 0.66681 0.64551 0.44303 0.0
C837 C 0.6532 0.65229 0.52222 0.0
C838 C 0.60648 0.61176 0.48442 0.0
C839 C 0.66357 0.65358 0.54312 0.0
C840 C 0.61224 0.58001 0.40019 0.0
C841 C 0.61216 0.58746 0.42081 0.0
C842 C 0.64909 0.63636 0.45437 0.0
C843 C 0.64631 0.62957 0.51279 0.0
C844 C 0.63565 0.62774 0.49061 0.0
C845 C 0.61731 0.61219 0.42602 0.0
C846 C 0.62116 0.61939 0.44815 0.0
H847 H 0.6652 0.59254 0.55365 0.0
H848 H 0.64622 0.59043 0.51764 0.0
H849 H 0.67895 0.65289 0.4797 0.0
H850 H 0.62536 0.63541 0.37718 0.0
H851 H 0.62466 0.64862 0.41339 0.0
C852 C 0.34765 0.65653 0.96834 0.0
C853 C 0.33286 0.63587 0.95822 0.0
C854 C 0.3567 0.65558 0.98939 0.0
C855 C 0.37582 0.61143 0.03186 0.0
H856 H 0.35348 0.66653 0.06737 0.0
C857 C 0.36752 0.60442 0.12073 0.0
C858 C 0.38256 0.62371 0.13253 0.0
C859 C 0.36608 0.60604 0.09919 0.0
C860 C 0.3604 0.65112 0.0576 0.0
H861 H 0.3149 0.59826 0.96237 0.0
H862 H 0.32996 0.59669 0.99906 0.0
H863 H 0.34091 0.66937 0.03038 0.0
H864 H 0.40869 0.65959 0.13101 0.0
H865 H 0.40613 0.66245 0.09324 0.0
H866 H 0.3943 0.59298 0.05923 0.0
C867 C 0.33563 0.61346 0.99069 0.0
C868 C 0.35321 0.65274 0.03638 0.0
C869 C 0.32683 0.61437 0.96966 0.0
C870 C 0.39717 0.64438 0.12229 0.0
C871 C 0.39537 0.64611 0.10072 0.0
C872 C 0.38275 0.60977 0.05308 0.0
C873 C 0.35093 0.63399 1.00083 0.0
C874 C 0.36041 0.63281 0.02326 0.0
C875 C 0.37935 0.62708 0.08896 0.0
C876 C 0.37474 0.62949 0.06622 0.0
H877 H 0.35297 0.67328 0.95987 0.0
H878 H 0.36882 0.67166 0.99661 0.0
H879 H 0.38253 0.59591 0.02218 0.0
H880 H 0.35627 0.58821 0.12821 0.0
H881 H 0.35332 0.59115 0.0906 0.0
C882 C 0.17228 0.8897 0.47042 0.0
C883 C 0.18097 0.86907 0.45835 0.0
C884 C 0.15935 0.88708 0.49075 0.0
C885 C 0.16089 0.84599 0.53522 0.0
H886 H 0.07028 0.88022 0.55281 0.0
C887 C 0.11248 0.85249 0.62072 0.0
C888 C 0.0742 0.84662 0.62451 0.0
C889 C 0.12579 0.85525 0.60047 0.0
C890 C 0.09558 0.87054 0.54809 0.0
H891 H 0.18251 0.82942 0.45847 0.0
H892 H 0.16121 0.82501 0.49418 0.0
H893 H 0.09336 0.88501 0.5173 0.0
H894 H 0.01972 0.83945 0.61017 0.0
H895 H 0.04289 0.8447 0.57472 0.0
H896 H 0.16331 0.83171 0.56607 0.0
C897 C 0.16443 0.84319 0.48776 0.0
C898 C 0.10891 0.8734 0.52785 0.0
C899 C 0.17682 0.84576 0.46732 0.0
C900 C 0.04941 0.84382 0.60767 0.0
C901 C 0.06258 0.84698 0.58743 0.0
C902 C 0.14792 0.84345 0.55556 0.0
C903 C 0.15537 0.86381 0.49963 0.0
C904 C 0.14158 0.86105 0.52119 0.0
C905 C 0.10095 0.8526 0.58363 0.0
C906 C 0.11503 0.8556 0.56216 0.0
H907 H 0.17585 0.90796 0.46427 0.0
H908 H 0.15299 0.90331 0.49966 0.0
H909 H 0.18627 0.83639 0.53052 0.0
H910 H 0.13221 0.85462 0.63343 0.0
H911 H 0.15545 0.85973 0.59797 0.0
C912 C 0.21627 0.30211 0.38231 0.0
C913 C 0.21526 0.32518 0.37278 0.0
C914 C 0.19811 0.28202 0.37313 0.0
C915 C 0.16179 0.26024 0.32266 0.0
H916 H 0.10056 0.21567 0.3555 0.0
C917 C 0.05588 0.19389 0.28512 0.0
C918 C 0.05395 0.16993 0.29272 0.0
C919 C 0.07682 0.21173 0.29554 0.0
C920 C 0.11796 0.22776 0.34616 0.0
H921 H 0.19447 0.34538 0.34639 0.0
H922 H 0.16269 0.31052 0.33046 0.0
H923 H 0.13542 0.24877 0.37248 0.0
H924 H 0.07123 0.14586 0.31749 0.0
H925 H 0.10795 0.17719 0.33593 0.0
H926 H 0.1442 0.23944 0.29634 0.0
C927 C 0.1778 0.30777 0.34483 0.0
C928 C 0.13794 0.24672 0.35588 0.0
C929 C 0.19578 0.32779 0.35402 0.0
C930 C 0.07224 0.16427 0.31137 0.0
C931 C 0.09325 0.18218 0.32187 0.0
C932 C 0.14189 0.24133 0.31296 0.0
C933 C 0.17883 0.28461 0.35421 0.0
C934 C 0.15961 0.26342 0.3442 0.0
C935 C 0.09616 0.20605 0.31391 0.0
C936 C 0.11923 0.2251 0.32454 0.0
H937 H 0.23112 0.29954 0.39679 0.0
H938 H 0.19965 0.2644 0.38068 0.0
H939 H 0.17887 0.27244 0.31324 0.0
H940 H 0.04136 0.19881 0.27098 0.0
H941 H 0.07776 0.23003 0.28921 0.0
C942 C 0.30431 0.18277 0.85528 0.0
C943 C 0.28424 0.18613 0.8738 0.0
C944 C 0.32322 0.20229 0.84587 0.0
C945 C 0.36393 0.26334 0.85597 0.0
H946 H 0.3614 0.26837 0.79617 0.0
C947 C 0.43223 0.34394 0.81026 0.0
C948 C 0.45216 0.33755 0.79227 0.0
C949 C 0.41054 0.32643 0.82083 0.0
C950 C 0.36263 0.26711 0.81287 0.0
H951 H 0.2682 0.21259 0.8971 0.0
H952 H 0.30118 0.24692 0.88053 0.0
H953 H 0.32504 0.23632 0.81343 0.0
H954 H 0.46685 0.30783 0.77179 0.0
H955 H 0.42905 0.27726 0.79014 0.0
H956 H 0.40177 0.29416 0.85531 0.0
C957 C 0.30254 0.22907 0.87339 0.0
C958 C 0.3418 0.24874 0.82277 0.0
C959 C 0.28353 0.20945 0.88284 0.0
C960 C 0.45109 0.31329 0.7854 0.0
C961 C 0.42939 0.29583 0.79589 0.0
C962 C 0.38476 0.2818 0.84604 0.0
C963 C 0.32246 0.22572 0.85472 0.0
C964 C 0.34264 0.24637 0.84442 0.0
C965 C 0.40854 0.30224 0.81361 0.0
C966 C 0.38478 0.28363 0.82435 0.0
H967 H 0.30542 0.16495 0.84805 0.0
H968 H 0.33883 0.19893 0.83172 0.0
H969 H 0.36547 0.26192 0.87265 0.0
H970 H 0.43259 0.3626 0.81582 0.0
H971 H 0.39465 0.33196 0.83437 0.0
C972 C 0.7077 0.20664 0.62986 0.0
C973 C 0.71665 0.18543 0.64102 0.0
C974 C 0.68783 0.22566 0.63938 0.0
C975 C 0.62818 0.2389 0.68574 0.0
H976 H 0.65229 0.30635 0.67265 0.0
C977 C 0.57972 0.31944 0.73628 0.0
C978 C 0.56173 0.33877 0.72596 0.0
C979 C 0.59812 0.30116 0.72514 0.0
C980 C 0.64512 0.28758 0.67632 0.0
H981 H 0.71251 0.16753 0.67077 0.0
H982 H 0.67925 0.20086 0.68761 0.0
H983 H 0.68545 0.27353 0.65467 0.0
H984 H 0.54978 0.35438 0.69583 0.0
H985 H 0.58276 0.32256 0.67637 0.0
H986 H 0.58877 0.25307 0.70788 0.0
C987 C 0.68633 0.20271 0.67139 0.0
C988 C 0.66396 0.26874 0.66597 0.0
C989 C 0.70569 0.18364 0.6618 0.0
C990 C 0.56326 0.33968 0.70424 0.0
C991 C 0.58224 0.32156 0.6931 0.0
C992 C 0.60982 0.2577 0.69627 0.0
C993 C 0.67689 0.22394 0.6603 0.0
C994 C 0.65593 0.24413 0.67066 0.0
C995 C 0.59945 0.302 0.70345 0.0
C996 C 0.61827 0.2822 0.69175 0.0
H997 H 0.71567 0.20846 0.61376 0.0
H998 H 0.68065 0.24155 0.63026 0.0
H999 H 0.62045 0.22023 0.68943 0.0
H1000 H 0.57901 0.31814 0.75299 0.0
H1001 H 0.61147 0.28637 0.73349 0.0
C1002 C 0.80672 0.32612 0.16228 0.0
C1003 C 0.79646 0.32481 0.14137 0.0
C1004 C 0.82618 0.30697 0.17167 0.0
C1005 C 0.85041 0.2413 0.16532 0.0
H1006 H 0.92367 0.2567 0.20816 0.0
C1007 C 0.95016 0.17004 0.204 0.0
C1008 C 0.95048 0.17057 0.22574 0.0
C1009 C 0.93179 0.18836 0.19278 0.0
C1010 C 0.90318 0.25214 0.19627 0.0
H1011 H 0.79876 0.3025 0.11374 0.0
H1012 H 0.83394 0.26927 0.12993 0.0
H1013 H 0.89192 0.28965 0.18991 0.0
H1014 H 0.93186 0.19082 0.25272 0.0
H1015 H 0.90051 0.22292 0.23311 0.0
H1016 H 0.86266 0.20366 0.17158 0.0
C1017 C 0.82614 0.28486 0.13928 0.0
C1018 C 0.88477 0.27101 0.18586 0.0
C1019 C 0.80617 0.30396 0.12993 0.0
C1020 C 0.93209 0.1898 0.236 0.0
C1021 C 0.91431 0.20828 0.22478 0.0
C1022 C 0.8693 0.22241 0.17557 0.0
C1023 C 0.83645 0.28612 0.16029 0.0
C1024 C 0.85765 0.26588 0.17047 0.0
C1025 C 0.91401 0.20777 0.20308 0.0
C1026 C 0.89544 0.22767 0.19135 0.0
H1027 H 0.7993 0.34193 0.17147 0.0
H1028 H 0.83273 0.30845 0.18797 0.0
H1029 H 0.82943 0.23658 0.15376 0.0
H1030 H 0.96395 0.15542 0.19564 0.0
H1031 H 0.93207 0.18761 0.17604 0.0
C1032 C 0.82083 0.6792 0.65231 0.0
C1033 C 0.79205 0.68428 0.63801 0.0
C1034 C 0.83979 0.69813 0.66255 0.0
C1035 C 0.85831 0.76507 0.66048 0.0
H1036 H 0.88702 0.75542 0.71777 0.0
C1037 C 0.91616 0.84282 0.71263 0.0
C1038 C 0.94859 0.83726 0.72426 0.0
C1039 C 0.89653 0.82442 0.70207 0.0
C1040 C 0.87941 0.7583 0.70174 0.0
H1041 H 0.76032 0.71319 0.62317 0.0
H1042 H 0.79275 0.74631 0.64137 0.0
H1043 H 0.8535 0.72304 0.69936 0.0
H1044 H 0.98594 0.80827 0.73417 0.0
H1045 H 0.95153 0.77599 0.71576 0.0
H1046 H 0.88378 0.80059 0.66312 0.0
C1047 C 0.80136 0.7277 0.6444 0.0
C1048 C 0.86031 0.73972 0.69112 0.0
C1049 C 0.78262 0.70872 0.63402 0.0
C1050 C 0.96104 0.813 0.72523 0.0
C1051 C 0.94122 0.79455 0.71484 0.0
C1052 C 0.8771 0.78376 0.67118 0.0
C1053 C 0.8301 0.72265 0.65889 0.0
C1054 C 0.84973 0.74275 0.67029 0.0
C1055 C 0.90882 0.80008 0.70309 0.0
C1056 C 0.88807 0.7805 0.69187 0.0
H1057 H 0.8287 0.6605 0.65561 0.0
H1058 H 0.86224 0.69348 0.67325 0.0
H1059 H 0.85116 0.76798 0.6444 0.0
H1060 H 0.90617 0.86145 0.71156 0.0
H1061 H 0.87148 0.82918 0.69328 0.0
C1062 C 0.76855 0.79291 0.14942 0.0
C1063 C 0.75413 0.81036 0.13566 0.0
C1064 C 0.74454 0.77541 0.15833 0.0
C1065 C 0.64974 0.7648 0.17646 0.0
H1066 H 0.6705 0.69585 0.1696 0.0
C1067 C 0.55324 0.69102 0.21405 0.0
C1068 C 0.57067 0.66962 0.22125 0.0
C1069 C 0.57367 0.70792 0.20207 0.0
C1070 C 0.66452 0.71499 0.17204 0.0
H1071 H 0.70323 0.8236 0.12067 0.0
H1072 H 0.66084 0.79337 0.13692 0.0
H1073 H 0.71036 0.72599 0.15216 0.0
H1074 H 0.62247 0.64857 0.22031 0.0
H1075 H 0.65885 0.67858 0.20116 0.0
H1076 H 0.60535 0.75418 0.19722 0.0
C1077 C 0.69089 0.79304 0.14044 0.0
C1078 C 0.68724 0.73222 0.16184 0.0
C1079 C 0.71512 0.81021 0.13111 0.0
C1080 C 0.60858 0.66525 0.21573 0.0
C1081 C 0.62924 0.68233 0.20423 0.0
C1082 C 0.62749 0.7476 0.18707 0.0
C1083 C 0.70548 0.77544 0.15405 0.0
C1084 C 0.68015 0.75725 0.16404 0.0
C1085 C 0.61218 0.70399 0.1972 0.0
C1086 C 0.63471 0.7224 0.18514 0.0
H1087 H 0.79851 0.79272 0.15321 0.0
H1088 H 0.75636 0.7621 0.16888 0.0
H1089 H 0.64396 0.78406 0.17851 0.0
H1090 H 0.52389 0.69485 0.21779 0.0
H1091 H 0.5591 0.72403 0.19661 0.0
C1092 C 0.32183 0.82751 0.35319 0.0
C1093 C 0.30397 0.82417 0.37239 0.0
C1094 C 0.34151 0.80837 0.34387 0.0
C1095 C 0.38974 0.75035 0.35432 0.0
H1096 H 0.37348 0.73927 0.29579 0.0
C1097 C 0.45595 0.66872 0.30955 0.0
C1098 C 0.46839 0.67354 0.28931 0.0
C1099 C 0.43578 0.68642 0.32062 0.0
C1100 C 0.37875 0.74227 0.31208 0.0
H1101 H 0.29317 0.79829 0.39714 0.0
H1102 H 0.32789 0.76478 0.38087 0.0
H1103 H 0.33863 0.7714 0.31335 0.0
H1104 H 0.47121 0.70091 0.26513 0.0
H1105 H 0.4369 0.73181 0.28446 0.0
H1106 H 0.4304 0.72142 0.35293 0.0
C1107 C 0.32663 0.78225 0.37304 0.0
C1108 C 0.35867 0.76067 0.32215 0.0
C1109 C 0.30663 0.8014 0.3823 0.0
C1110 C 0.46143 0.69656 0.2806 0.0
C1111 C 0.44155 0.71422 0.29165 0.0
C1112 C 0.41009 0.73198 0.34418 0.0
C1113 C 0.34398 0.78549 0.35363 0.0
C1114 C 0.36422 0.76511 0.34332 0.0
C1115 C 0.42791 0.70928 0.31167 0.0
C1116 C 0.40517 0.72794 0.32287 0.0
H1117 H 0.32029 0.84491 0.34526 0.0
H1118 H 0.35501 0.81154 0.32904 0.0
H1119 H 0.39476 0.75345 0.37062 0.0
H1120 H 0.46092 0.65108 0.3166 0.0
H1121 H 0.42551 0.68195 0.33596 0.0
C1122 C 0.22962 0.71749 0.88018 0.0
C1123 C 0.24911 0.70103 0.86742 0.0
C1124 C 0.20543 0.73496 0.87151 0.0
C1125 C 0.18346 0.76483 0.82102 0.0
H1126 H 0.08995 0.78341 0.8484 0.0
C1127 C 0.0642 0.81545 0.77893 0.0
C1128 C 0.05291 0.83755 0.78798 0.0
C1129 C 0.08698 0.79915 0.78983 0.0
C1130 C 0.11611 0.77845 0.84069 0.0
H1131 H 0.25815 0.68944 0.83584 0.0
H1132 H 0.21509 0.719 0.82078 0.0
H1133 H 0.13254 0.75428 0.86509 0.0
H1134 H 0.05437 0.85917 0.81604 0.0
H1135 H 0.0934 0.83012 0.83541 0.0
H1136 H 0.16624 0.78835 0.79634 0.0
C1137 C 0.21919 0.71922 0.83736 0.0
C1138 C 0.14065 0.76188 0.85026 0.0
C1139 C 0.24367 0.70209 0.84599 0.0
C1140 C 0.06285 0.84232 0.80864 0.0
C1141 C 0.08515 0.82576 0.8197 0.0
C1142 C 0.15869 0.78102 0.81137 0.0
C1143 C 0.19997 0.73609 0.84995 0.0
C1144 C 0.1745 0.75464 0.84043 0.0
C1145 C 0.09815 0.80433 0.8102 0.0
C1146 C 0.12467 0.78781 0.82101 0.0
H1147 H 0.23343 0.71713 0.89679 0.0
H1148 H 0.19151 0.7478 0.8817 0.0
H1149 H 0.20969 0.76033 0.8132 0.0
H1150 H 0.05614 0.81099 0.76322 0.0
H1151 H 0.09617 0.78254 0.78229 0.0
loop_
_geom_bond_atom_site_label_1
_geom_bond_atom_site_label_2
_geom_bond_distance
_geom_bond_site_symmetry_2
_ccdc_geom_bond_type
H0 C5 0.930 . S
H1 C8 0.930 . S
H2 C10 0.930 . S
H3 C4 1.016 . S
C4 H3 1.016 . S
C4 N11 1.286 . S
C5 H0 0.930 . S
C5 C6 1.397 . S
C5 C7 1.361 . S
C6 C5 1.397 . S
C6 C10 1.390 . S
C7 C5 1.361 . S
C7 C8 1.393 . S
C7 N11 1.413 . S
C8 H1 0.930 . S
C8 C7 1.393 . S
C8 C9 1.399 . S
C9 C8 1.399 . S
C9 C10 1.381 . S
C10 H2 0.930 . S
C10 C6 1.390 . S
C10 C9 1.381 . S
N11 C4 1.286 . S
N11 C7 1.413 . S
H12 C17 0.930 . S
H13 C20 0.930 . S
H14 C22 0.930 . S
H15 C16 1.016 . S
C16 H15 1.016 . S
C16 N23 1.286 . S
C17 H12 0.930 . S
C17 C18 1.397 . S
C17 C19 1.361 . S
C18 C17 1.397 . S
C18 C22 1.390 . S
C19 C17 1.361 . S
C19 C20 1.393 . S
C19 N23 1.413 . S
C20 H13 0.930 . S
C20 C19 1.393 . S
C20 C21 1.399 . S
C21 C20 1.399 . S
C21 C22 1.381 . S
C22 H14 0.930 . S
C22 C18 1.390 . S
C22 C21 1.381 . S
N23 C16 1.286 . S
N23 C19 1.413 . S
H24 C29 0.930 . S
H25 C32 0.930 . S
H26 C34 0.930 . S
H27 C28 1.016 . S
C28 H27 1.016 . S
C28 N35 1.286 . S
C29 H24 0.930 . S
C29 C30 1.397 . S
C29 C31 1.361 . S
C30 C29 1.397 . S
C30 C34 1.390 . S
C31 C29 1.361 . S
C31 C32 1.393 . S
C31 N35 1.413 . S
C32 H25 0.930 . S
C32 C31 1.393 . S
C32 C33 1.399 . S
C33 C32 1.399 . S
C33 C34 1.381 . S
C34 H26 0.930 . S
C34 C30 1.390 . S
C34 C33 1.381 . S
N35 C28 1.286 . S
N35 C31 1.413 . S
H36 C41 0.930 . S
H37 C44 0.930 . S
H38 C46 0.930 . S
H39 C40 1.016 . S
C40 H39 1.016 . S
C40 N47 1.286 . S
C41 H36 0.930 . S
C41 C42 1.397 . S
C41 C43 1.361 . S
C42 C41 1.397 . S
C42 C46 1.390 . S
C43 C41 1.361 . S
C43 C44 1.393 . S
C43 N47 1.413 . S
C44 H37 0.930 . S
C44 C43 1.393 . S
C44 C45 1.399 . S
C45 C44 1.399 . S
C45 C46 1.381 . S
C46 H38 0.930 . S
C46 C42 1.390 . S
C46 C45 1.381 . S
N47 C40 1.286 . S
N47 C43 1.413 . S
H48 C53 0.930 . S
H49 C56 0.930 . S
H50 C58 0.930 . S
H51 C52 1.016 . S
C52 H51 1.016 . S
C52 N59 1.286 . S
C53 H48 0.930 . S
C53 C54 1.397 . S
C53 C55 1.361 . S
C54 C53 1.397 . S
C54 C58 1.390 . S
C55 C53 1.361 . S
C55 C56 1.393 . S
C55 N59 1.413 . S
C56 H49 0.930 . S
C56 C55 1.393 . S
C56 C57 1.399 . S
C57 C56 1.399 . S
C57 C58 1.381 . S
C58 H50 0.930 . S
C58 C54 1.390 . S
C58 C57 1.381 . S
N59 C52 1.286 . S
N59 C55 1.413 . S
H60 C65 0.930 . S
H61 C68 0.930 . S
H62 C70 0.930 . S
H63 C64 1.016 . S
C64 H63 1.016 . S
C64 N71 1.286 . S
C65 H60 0.930 . S
C65 C66 1.397 . S
C65 C67 1.361 . S
C66 C65 1.397 . S
C66 C70 1.390 . S
C67 C65 1.361 . S
C67 C68 1.393 . S
C67 N71 1.413 . S
C68 H61 0.930 . S
C68 C67 1.393 . S
C68 C69 1.399 . S
C69 C68 1.399 . S
C69 C70 1.381 . S
C70 H62 0.930 . S
C70 C66 1.390 . S
C70 C69 1.381 . S
N71 C64 1.286 . S
N71 C67 1.413 . S
H72 C77 0.930 . S
H73 C80 0.930 . S
H74 C82 0.930 . S
H75 C76 1.016 . S
C76 H75 1.016 . S
C76 N83 1.286 . S
C77 H72 0.930 . S
C77 C78 1.397 . S
C77 C79 1.361 . S
C78 C77 1.397 . S
C78 C82 1.390 . S
C79 C77 1.361 . S
C79 C80 1.393 . S
C79 N83 1.413 . S
C80 H73 0.930 . S
C80 C79 1.393 . S
C80 C81 1.399 . S
C81 C80 1.399 . S
C81 C82 1.381 . S
C82 H74 0.930 . S
C82 C78 1.390 . S
C82 C81 1.381 . S
N83 C76 1.286 . S
N83 C79 1.413 . S
H84 C89 0.930 . S
H85 C92 0.930 . S
H86 C94 0.930 . S
H87 C88 1.016 . S
C88 H87 1.016 . S
C88 N95 1.286 . S
C89 H84 0.930 . S
C89 C90 1.397 . S
C89 C91 1.361 . S
C90 C89 1.397 . S
C90 C94 1.390 . S
C91 C89 1.361 . S
C91 C92 1.393 . S
C91 N95 1.413 . S
C92 H85 0.930 . S
C92 C91 1.393 . S
C92 C93 1.399 . S
C93 C92 1.399 . S
C93 C94 1.381 . S
C94 H86 0.930 . S
C94 C90 1.390 . S
C94 C93 1.381 . S
N95 C88 1.286 . S
N95 C91 1.413 . S
Tb96 N125 2.617 . S
Tb96 N131 2.572 . S
Tb96 O140 2.465 . S
Tb96 O141 2.387 . S
Tb96 O143 2.428 . S
Tb96 O144 2.322 . S
Tb96 O148 2.349 . S
Tb96 O151 2.393 . S
Tb96 C160 2.802 . S
C97 N98 1.379 . S
C97 C100 1.416 . S
C97 C104 1.424 . S
N98 C97 1.379 . S
N98 C101 1.334 . S
N98 Tb107 2.617 . S
C99 C101 1.390 . S
C99 C102 1.339 . S
C99 H119 0.930 . S
C100 C97 1.416 . S
C100 C102 1.416 . S
C100 C106 1.448 . S
C101 N98 1.334 . S
C101 C99 1.390 . S
C101 H112 0.930 . S
C102 C99 1.339 . S
C102 C100 1.416 . S
C102 H123 0.930 . S
C103 C104 1.413 . S
C103 C105 1.427 . S
C103 C109 1.416 . S
C104 C97 1.424 . S
C104 C103 1.413 . S
C104 N108 1.361 . S
C105 C103 1.427 . S
C105 C106 1.328 . S
C105 H120 0.929 . S
C106 C100 1.448 . S
C106 C105 1.328 . S
C106 H121 0.930 . S
Tb107 N98 2.617 . S
Tb107 N108 2.572 . S
Tb107 O142 2.349 1_655 S
Tb107 O145 2.393 . S
Tb107 O146 2.465 . S
Tb107 O147 2.387 . S
Tb107 O149 2.428 . S
Tb107 O150 2.308 1_655 S
Tb107 C171 2.802 . S
N108 C104 1.361 . S
N108 Tb107 2.572 . S
N108 C110 1.340 . S
C109 C103 1.416 . S
C109 C111 1.332 . S
C109 H117 0.931 . S
C110 N108 1.340 . S
C110 C111 1.407 . S
C110 H116 0.930 . S
C111 C109 1.332 . S
C111 C110 1.407 . S
C111 H113 0.929 . S
H112 C101 0.930 . S
H113 C111 0.929 . S
H114 C129 0.930 . S
H115 C136 0.929 . S
H116 C110 0.930 . S
H117 C109 0.931 . S
H118 C132 0.930 . S
H119 C99 0.930 . S
H120 C105 0.929 . S
H121 C106 0.930 . S
H122 C127 0.930 . S
H123 C102 0.930 . S
H124 C135 0.931 . S
N125 Tb96 2.617 . S
N125 C126 1.379 . S
N125 C129 1.334 . S
C126 N125 1.379 . S
C126 C128 1.416 . S
C126 C134 1.424 . S
C127 H122 0.930 . S
C127 C129 1.390 . S
C127 C130 1.339 . S
C128 C126 1.416 . S
C128 C130 1.416 . S
C128 C161 1.448 . S
C129 H114 0.930 . S
C129 N125 1.334 . S
C129 C127 1.390 . S
C130 C127 1.339 . S
C130 C128 1.416 . S
C130 H137 0.930 . S
N131 Tb96 2.572 . S
N131 C132 1.340 . S
N131 C134 1.361 . S
C132 H118 0.930 . S
C132 N131 1.340 . S
C132 C136 1.407 . S
C133 C134 1.413 . S
C133 C135 1.416 . S
C133 C162 1.427 . S
C134 C126 1.424 . S
C134 N131 1.361 . S
C134 C133 1.413 . S
C135 H124 0.931 . S
C135 C133 1.416 . S
C135 C136 1.332 . S
C136 H115 0.929 . S
C136 C132 1.407 . S
C136 C135 1.332 . S
H137 C130 0.930 . S
H138 C161 0.930 . S
H139 C162 0.929 . S
O140 Tb96 2.465 . S
O140 C160 1.264 . S
O141 Tb96 2.387 . S
O141 C152 1.264 . S
O142 Tb107 2.349 1_455 S
O142 C152 1.243 . S
O143 Tb96 2.428 . S
O143 C160 1.256 . S
O144 Tb96 2.322 . S
O144 C159 1.250 1_455 S
O145 Tb107 2.393 . S
O145 C159 1.248 . S
O146 Tb107 2.465 . S
O146 C171 1.264 . S
O147 Tb107 2.387 . S
O147 C163 1.264 . S
O148 Tb96 2.349 . S
O148 C163 1.243 1_455 S
O149 Tb107 2.428 . S
O149 C171 1.256 . S
O150 Tb107 2.308 1_455 S
O150 C170 1.266 . S
O151 Tb96 2.393 . S
O151 C170 1.248 . S
C152 O141 1.264 . S
C152 O142 1.243 . S
C153 C156 1.399 . S
C153 C158 1.383 . S
C153 C160 1.496 . S
C154 C155 1.399 . S
C154 C158 1.389 . S
C155 C154 1.399 . S
C155 C157 1.380 . S
C155 H172 0.929 . S
C156 C153 1.399 . S
C156 C157 1.392 . S
C156 H173 0.929 . S
C157 C155 1.380 . S
C157 C156 1.392 . S
C157 H174 0.929 . S
C158 C153 1.383 . S
C158 C154 1.389 . S
C158 H175 0.931 . S
C159 O144 1.250 1_655 S
C159 O145 1.248 . S
C160 Tb96 2.802 . S
C160 O140 1.264 . S
C160 O143 1.256 . S
C160 C153 1.496 . S
C161 C128 1.448 . S
C161 H138 0.930 . S
C161 C162 1.328 . S
C162 C133 1.427 . S
C162 H139 0.929 . S
C162 C161 1.328 . S
C163 O147 1.264 . S
C163 O148 1.243 1_655 S
C164 C167 1.399 . S
C164 C168 1.383 . S
C164 C171 1.496 . S
C165 C166 1.399 . S
C165 C168 1.389 . S
C166 C165 1.399 . S
C166 C169 1.380 . S
C166 H176 0.929 . S
C167 C164 1.399 . S
C167 C169 1.392 . S
C167 H177 0.929 . S
C168 C164 1.383 . S
C168 C165 1.389 . S
C168 H178 0.931 . S
C169 C166 1.380 . S
C169 C167 1.392 . S
C169 H179 0.929 . S
C170 O150 1.266 . S
C170 O151 1.248 . S
C171 Tb107 2.802 . S
C171 O146 1.264 . S
C171 O149 1.256 . S
C171 C164 1.496 . S
H172 C155 0.929 . S
H173 C156 0.929 . S
H174 C157 0.929 . S
H175 C158 0.931 . S
H176 C166 0.929 . S
H177 C167 0.929 . S
H178 C168 0.931 . S
H179 C169 0.929 . S
Tb180 N209 2.617 . S
Tb180 N215 2.572 . S
Tb180 O224 2.465 . S
Tb180 O225 2.387 . S
Tb180 O227 2.428 . S
Tb180 O228 2.308 . S
Tb180 O232 2.349 . S
Tb180 O235 2.393 . S
Tb180 C244 2.802 . S
C181 N182 1.379 . S
C181 C184 1.416 . S
C181 C188 1.424 . S
N182 C181 1.379 . S
N182 C185 1.334 . S
N182 Tb191 2.617 . S
C183 C185 1.390 . S
C183 C186 1.339 . S
C183 H203 0.930 . S
C184 C181 1.416 . S
C184 C186 1.416 . S
C184 C190 1.448 . S
C185 N182 1.334 . S
C185 C183 1.390 . S
C185 H196 0.930 . S
C186 C183 1.339 . S
C186 C184 1.416 . S
C186 H207 0.930 . S
C187 C188 1.413 . S
C187 C189 1.427 . S
C187 C193 1.416 . S
C188 C181 1.424 . S
C188 C187 1.413 . S
C188 N192 1.361 . S
C189 C187 1.427 . S
C189 C190 1.328 . S
C189 H204 0.929 . S
C190 C184 1.448 . S
C190 C189 1.328 . S
C190 H205 0.930 . S
Tb191 N182 2.617 . S
Tb191 N192 2.572 . S
Tb191 O226 2.349 . S
Tb191 O229 2.393 . S
Tb191 O230 2.465 . S
Tb191 O231 2.387 . S
Tb191 O233 2.428 . S
Tb191 O234 2.308 . S
Tb191 C255 2.802 . S
N192 C188 1.361 . S
N192 Tb191 2.572 . S
N192 C194 1.340 . S
C193 C187 1.416 . S
C193 C195 1.332 . S
C193 H201 0.931 . S
C194 N192 1.340 . S
C194 C195 1.407 . S
C194 H200 0.930 . S
C195 C193 1.332 . S
C195 C194 1.407 . S
C195 H197 0.929 . S
H196 C185 0.930 . S
H197 C195 0.929 . S
H198 C213 0.930 . S
H199 C220 0.929 . S
H200 C194 0.930 . S
H201 C193 0.931 . S
H202 C216 0.930 . S
H203 C183 0.930 . S
H204 C189 0.929 . S
H205 C190 0.930 . S
H206 C211 0.930 . S
H207 C186 0.930 . S
H208 C219 0.931 . S
N209 Tb180 2.617 . S
N209 C210 1.379 . S
N209 C213 1.334 . S
C210 N209 1.379 . S
C210 C212 1.416 . S
C210 C218 1.424 . S
C211 H206 0.930 . S
C211 C213 1.390 . S
C211 C214 1.339 . S
C212 C210 1.416 . S
C212 C214 1.416 . S
C212 C245 1.448 . S
C213 H198 0.930 . S
C213 N209 1.334 . S
C213 C211 1.390 . S
C214 C211 1.339 . S
C214 C212 1.416 . S
C214 H221 0.930 . S
N215 Tb180 2.572 . S
N215 C216 1.340 . S
N215 C218 1.361 . S
C216 H202 0.930 . S
C216 N215 1.340 . S
C216 C220 1.407 . S
C217 C218 1.413 . S
C217 C219 1.416 . S
C217 C246 1.427 . S
C218 C210 1.424 . S
C218 N215 1.361 . S
C218 C217 1.413 . S
C219 H208 0.931 . S
C219 C217 1.416 . S
C219 C220 1.332 . S
C220 H199 0.929 . S
C220 C216 1.407 . S
C220 C219 1.332 . S
H221 C214 0.930 . S
H222 C245 0.930 . S
H223 C246 0.929 . S
O224 Tb180 2.465 . S
O224 C244 1.264 . S
O225 Tb180 2.387 . S
O225 C236 1.264 . S
O226 Tb191 2.349 . S
O226 C236 1.243 . S
O227 Tb180 2.428 . S
O227 C244 1.256 . S
O228 Tb180 2.308 . S
O228 C243 1.266 . S
O229 Tb191 2.393 . S
O229 C243 1.248 . S
O230 Tb191 2.465 . S
O230 C255 1.264 . S
O231 Tb191 2.387 . S
O231 C247 1.264 . S
O232 Tb180 2.349 . S
O232 C247 1.243 . S
O233 Tb191 2.428 . S
O233 C255 1.256 . S
O234 Tb191 2.308 . S
O234 C254 1.266 . S
O235 Tb180 2.393 . S
O235 C254 1.248 . S
C236 O225 1.264 . S
C236 O226 1.243 . S
C237 C240 1.399 . S
C237 C242 1.383 . S
C237 C244 1.496 . S
C238 C239 1.399 . S
C238 C242 1.389 . S
C239 C238 1.399 . S
C239 C241 1.380 . S
C239 H256 0.929 . S
C240 C237 1.399 . S
C240 C241 1.392 . S
C240 H257 0.929 . S
C241 C239 1.380 . S
C241 C240 1.392 . S
C241 H258 0.929 . S
C242 C237 1.383 . S
C242 C238 1.389 . S
C242 H259 0.931 . S
C243 O228 1.266 . S
C243 O229 1.248 . S
C244 Tb180 2.802 . S
C244 O224 1.264 . S
C244 O227 1.256 . S
C244 C237 1.496 . S
C245 C212 1.448 . S
C245 H222 0.930 . S
C245 C246 1.328 . S
C246 C217 1.427 . S
C246 H223 0.929 . S
C246 C245 1.328 . S
C247 O231 1.264 . S
C247 O232 1.243 . S
C248 C251 1.399 . S
C248 C252 1.383 . S
C248 C255 1.496 . S
C249 C250 1.399 . S
C249 C252 1.389 . S
C250 C249 1.399 . S
C250 C253 1.380 . S
C250 H260 0.929 . S
C251 C248 1.399 . S
C251 C253 1.392 . S
C251 H261 0.929 . S
C252 C248 1.383 . S
C252 C249 1.389 . S
C252 H262 0.931 . S
C253 C250 1.380 . S
C253 C251 1.392 . S
C253 H263 0.929 . S
C254 O234 1.266 . S
C254 O235 1.248 . S
C255 Tb191 2.802 . S
C255 O230 1.264 . S
C255 O233 1.256 . S
C255 C248 1.496 . S
H256 C239 0.929 . S
H257 C240 0.929 . S
H258 C241 0.929 . S
H259 C242 0.931 . S
H260 C250 0.929 . S
H261 C251 0.929 . S
H262 C252 0.931 . S
H263 C253 0.929 . S
Tb264 N293 2.617 . S
Tb264 N299 2.572 . S
Tb264 O308 2.465 . S
Tb264 O309 2.387 . S
Tb264 O311 2.428 . S
Tb264 O312 2.308 . S
Tb264 O316 2.349 . S
Tb264 O319 2.393 . S
Tb264 C328 2.802 . S
C265 N266 1.379 . S
C265 C268 1.416 . S
C265 C272 1.424 . S
N266 C265 1.379 . S
N266 C269 1.334 . S
N266 Tb275 2.617 . S
C267 C269 1.390 . S
C267 C270 1.339 . S
C267 H287 0.930 . S
C268 C265 1.416 . S
C268 C270 1.416 . S
C268 C274 1.448 . S
C269 N266 1.334 . S
C269 C267 1.390 . S
C269 H280 0.930 . S
C270 C267 1.339 . S
C270 C268 1.416 . S
C270 H291 0.930 . S
C271 C272 1.413 . S
C271 C273 1.427 . S
C271 C277 1.416 . S
C272 C265 1.424 . S
C272 C271 1.413 . S
C272 N276 1.361 . S
C273 C271 1.427 . S
C273 C274 1.328 . S
C273 H288 0.929 . S
C274 C268 1.448 . S
C274 C273 1.328 . S
C274 H289 0.930 . S
Tb275 N266 2.617 . S
Tb275 N276 2.572 . S
Tb275 O310 2.349 1_655 S
Tb275 O313 2.393 . S
Tb275 O314 2.465 . S
Tb275 O315 2.387 . S
Tb275 O317 2.428 . S
Tb275 O318 2.308 1_655 S
Tb275 C339 2.802 . S
N276 C272 1.361 . S
N276 Tb275 2.572 . S
N276 C278 1.340 . S
C277 C271 1.416 . S
C277 C279 1.332 . S
C277 H285 0.931 . S
C278 N276 1.340 . S
C278 C279 1.407 . S
C278 H284 0.930 . S
C279 C277 1.332 . S
C279 C278 1.407 . S
C279 H281 0.929 . S
H280 C269 0.930 . S
H281 C279 0.929 . S
H282 C297 0.930 . S
H283 C304 0.929 . S
H284 C278 0.930 . S
H285 C277 0.931 . S
H286 C300 0.930 . S
H287 C267 0.930 . S
H288 C273 0.929 . S
H289 C274 0.930 . S
H290 C295 0.930 . S
H291 C270 0.930 . S
H292 C303 0.931 . S
N293 Tb264 2.617 . S
N293 C294 1.379 . S
N293 C297 1.334 . S
C294 N293 1.379 . S
C294 C296 1.416 . S
C294 C302 1.424 . S
C295 H290 0.930 . S
C295 C297 1.390 . S
C295 C298 1.339 . S
C296 C294 1.416 . S
C296 C298 1.416 . S
C296 C329 1.448 . S
C297 H282 0.930 . S
C297 N293 1.334 . S
C297 C295 1.390 . S
C298 C295 1.339 . S
C298 C296 1.416 . S
C298 H305 0.930 . S
N299 Tb264 2.572 . S
N299 C300 1.340 . S
N299 C302 1.361 . S
C300 H286 0.930 . S
C300 N299 1.340 . S
C300 C304 1.407 . S
C301 C302 1.413 . S
C301 C303 1.416 . S
C301 C330 1.427 . S
C302 C294 1.424 . S
C302 N299 1.361 . S
C302 C301 1.413 . S
C303 H292 0.931 . S
C303 C301 1.416 . S
C303 C304 1.332 . S
C304 H283 0.929 . S
C304 C300 1.407 . S
C304 C303 1.332 . S
H305 C298 0.930 . S
H306 C329 0.930 . S
H307 C330 0.929 . S
O308 Tb264 2.465 . S
O308 C328 1.264 . S
O309 Tb264 2.387 . S
O309 C320 1.264 . S
O310 Tb275 2.349 1_455 S
O310 C320 1.243 . S
O311 Tb264 2.428 . S
O311 C328 1.256 . S
O312 Tb264 2.308 . S
O312 C327 1.266 1_455 S
O313 Tb275 2.393 . S
O313 C327 1.248 . S
O314 Tb275 2.465 . S
O314 C339 1.264 . S
O315 Tb275 2.387 . S
O315 C331 1.264 . S
O316 Tb264 2.349 . S
O316 C331 1.243 1_455 S
O317 Tb275 2.428 . S
O317 C339 1.256 . S
O318 Tb275 2.308 1_455 S
O318 C338 1.266 . S
O319 Tb264 2.393 . S
O319 C338 1.248 . S
C320 O309 1.264 . S
C320 O310 1.243 . S
C321 C324 1.399 . S
C321 C326 1.383 . S
C321 C328 1.496 . S
C322 C323 1.399 . S
C322 C326 1.389 . S
C323 C322 1.399 . S
C323 C325 1.380 . S
C323 H340 0.929 . S
C324 C321 1.399 . S
C324 C325 1.392 . S
C324 H341 0.929 . S
C325 C323 1.380 . S
C325 C324 1.392 . S
C325 H342 0.929 . S
C326 C321 1.383 . S
C326 C322 1.389 . S
C326 H343 0.931 . S
C327 O312 1.266 1_655 S
C327 O313 1.248 . S
C328 Tb264 2.802 . S
C328 O308 1.264 . S
C328 O311 1.256 . S
C328 C321 1.496 . S
C329 C296 1.448 . S
C329 H306 0.930 . S
C329 C330 1.328 . S
C330 C301 1.427 . S
C330 H307 0.929 . S
C330 C329 1.328 . S
C331 O315 1.264 . S
C331 O316 1.243 1_655 S
C332 C335 1.399 . S
C332 C336 1.383 . S
C332 C339 1.496 . S
C333 C334 1.399 . S
C333 C336 1.389 . S
C334 C333 1.399 . S
C334 C337 1.380 . S
C334 H344 0.929 . S
C335 C332 1.399 . S
C335 C337 1.392 . S
C335 H345 0.929 . S
C336 C332 1.383 . S
C336 C333 1.389 . S
C336 H346 0.931 . S
C337 C334 1.380 . S
C337 C335 1.392 . S
C337 H347 0.929 . S
C338 O318 1.266 . S
C338 O319 1.248 . S
C339 Tb275 2.802 . S
C339 O314 1.264 . S
C339 O317 1.256 . S
C339 C332 1.496 . S
H340 C323 0.929 . S
H341 C324 0.929 . S
H342 C325 0.929 . S
H343 C326 0.931 . S
H344 C334 0.929 . S
H345 C335 0.929 . S
H346 C336 0.931 . S
H347 C337 0.929 . S
Tb348 N377 2.617 . S
Tb348 N383 2.572 . S
Tb348 O392 2.465 . S
Tb348 O393 2.387 . S
Tb348 O395 2.428 . S
Tb348 O396 2.308 . S
Tb348 O400 2.349 . S
Tb348 O403 2.393 . S
Tb348 C412 2.802 . S
C349 N350 1.379 . S
C349 C352 1.416 . S
C349 C356 1.424 . S
N350 C349 1.379 . S
N350 C353 1.334 . S
N350 Tb359 2.617 . S
C351 C353 1.390 . S
C351 C354 1.339 . S
C351 H371 0.930 . S
C352 C349 1.416 . S
C352 C354 1.416 . S
C352 C358 1.448 . S
C353 N350 1.334 . S
C353 C351 1.390 . S
C353 H364 0.930 . S
C354 C351 1.339 . S
C354 C352 1.416 . S
C354 H375 0.930 . S
C355 C356 1.413 . S
C355 C357 1.427 . S
C355 C361 1.416 . S
C356 C349 1.424 . S
C356 C355 1.413 . S
C356 N360 1.361 . S
C357 C355 1.427 . S
C357 C358 1.328 . S
C357 H372 0.929 . S
C358 C352 1.448 . S
C358 C357 1.328 . S
C358 H373 0.930 . S
Tb359 N350 2.617 . S
Tb359 N360 2.572 . S
Tb359 O394 2.349 . S
Tb359 O397 2.393 . S
Tb359 O398 2.465 . S
Tb359 O399 2.387 . S
Tb359 O401 2.428 . S
Tb359 O402 2.308 . S
Tb359 C423 2.802 . S
N360 C356 1.361 . S
N360 Tb359 2.572 . S
N360 C362 1.340 . S
C361 C355 1.416 . S
C361 C363 1.332 . S
C361 H369 0.931 . S
C362 N360 1.340 . S
C362 C363 1.407 . S
C362 H368 0.930 . S
C363 C361 1.332 . S
C363 C362 1.407 . S
C363 H365 0.929 . S
H364 C353 0.930 . S
H365 C363 0.929 . S
H366 C381 0.930 . S
H367 C388 0.929 . S
H368 C362 0.930 . S
H369 C361 0.931 . S
H370 C384 0.930 . S
H371 C351 0.930 . S
H372 C357 0.929 . S
H373 C358 0.930 . S
H374 C379 0.930 . S
H375 C354 0.930 . S
H376 C387 0.931 . S
N377 Tb348 2.617 . S
N377 C378 1.379 . S
N377 C381 1.334 . S
C378 N377 1.379 . S
C378 C380 1.416 . S
C378 C386 1.424 . S
C379 H374 0.930 . S
C379 C381 1.390 . S
C379 C382 1.339 . S
C380 C378 1.416 . S
C380 C382 1.416 . S
C380 C413 1.448 . S
C381 H366 0.930 . S
C381 N377 1.334 . S
C381 C379 1.390 . S
C382 C379 1.339 . S
C382 C380 1.416 . S
C382 H389 0.930 . S
N383 Tb348 2.572 . S
N383 C384 1.340 . S
N383 C386 1.361 . S
C384 H370 0.930 . S
C384 N383 1.340 . S
C384 C388 1.407 . S
C385 C386 1.413 . S
C385 C387 1.416 . S
C385 C414 1.427 . S
C386 C378 1.424 . S
C386 N383 1.361 . S
C386 C385 1.413 . S
C387 H376 0.931 . S
C387 C385 1.416 . S
C387 C388 1.332 . S
C388 H367 0.929 . S
C388 C384 1.407 . S
C388 C387 1.332 . S
H389 C382 0.930 . S
H390 C413 0.930 . S
H391 C414 0.929 . S
O392 Tb348 2.465 . S
O392 C412 1.264 . S
O393 Tb348 2.387 . S
O393 C404 1.264 . S
O394 Tb359 2.349 . S
O394 C404 1.243 . S
O395 Tb348 2.428 . S
O395 C412 1.256 . S
O396 Tb348 2.308 . S
O396 C411 1.266 . S
O397 Tb359 2.393 . S
O397 C411 1.248 . S
O398 Tb359 2.465 . S
O398 C423 1.264 . S
O399 Tb359 2.387 . S
O399 C415 1.264 . S
O400 Tb348 2.349 . S
O400 C415 1.243 . S
O401 Tb359 2.428 . S
O401 C423 1.256 . S
O402 Tb359 2.308 . S
O402 C422 1.266 . S
O403 Tb348 2.393 . S
O403 C422 1.248 . S
C404 O393 1.264 . S
C404 O394 1.243 . S
C405 C408 1.399 . S
C405 C410 1.383 . S
C405 C412 1.496 . S
C406 C407 1.399 . S
C406 C410 1.389 . S
C407 C406 1.399 . S
C407 C409 1.380 . S
C407 H424 0.929 . S
C408 C405 1.399 . S
C408 C409 1.392 . S
C408 H425 0.929 . S
C409 C407 1.380 . S
C409 C408 1.392 . S
C409 H426 0.929 . S
C410 C405 1.383 . S
C410 C406 1.389 . S
C410 H427 0.931 . S
C411 O396 1.266 . S
C411 O397 1.248 . S
C412 Tb348 2.802 . S
C412 O392 1.264 . S
C412 O395 1.256 . S
C412 C405 1.496 . S
C413 C380 1.448 . S
C413 H390 0.930 . S
C413 C414 1.328 . S
C414 C385 1.427 . S
C414 H391 0.929 . S
C414 C413 1.328 . S
C415 O399 1.264 . S
C415 O400 1.243 . S
C416 C419 1.399 . S
C416 C420 1.383 . S
C416 C423 1.496 . S
C417 C418 1.399 . S
C417 C420 1.389 . S
C418 C417 1.399 . S
C418 C421 1.380 . S
C418 H428 0.929 . S
C419 C416 1.399 . S
C419 C421 1.392 . S
C419 H429 0.929 . S
C420 C416 1.383 . S
C420 C417 1.389 . S
C420 H430 0.931 . S
C421 C418 1.380 . S
C421 C419 1.392 . S
C421 H431 0.929 . S
C422 O402 1.266 . S
C422 O403 1.248 . S
C423 Tb359 2.802 . S
C423 O398 1.264 . S
C423 O401 1.256 . S
C423 C416 1.496 . S
H424 C407 0.929 . S
H425 C408 0.929 . S
H426 C409 0.929 . S
H427 C410 0.931 . S
H428 C418 0.929 . S
H429 C419 0.929 . S
H430 C420 0.931 . S
H431 C421 0.929 . S
C432 C433 1.349 . S
C432 C434 1.327 . S
C432 H457 0.950 . S
C433 C432 1.349 . S
C433 C449 1.349 . S
C434 C432 1.327 . S
C434 C453 1.429 . S
C434 H458 0.950 . S
C435 C452 1.574 . S
C435 C454 1.368 . S
C435 H459 0.949 . S
H436 C440 0.949 1_545 S
C437 C438 1.349 . S
C437 C439 1.327 . S
C437 H460 0.950 . S
C438 C437 1.349 . S
C438 C450 1.349 . S
C439 C437 1.327 . S
C439 C455 1.429 . S
C439 H461 0.950 . S
C440 H436 0.949 1_565 S
C440 C448 1.574 . S
C440 C456 1.368 . S
H441 C449 0.950 . S
H442 C447 0.950 . S
H443 C448 0.949 . S
H444 C450 0.950 . S
H445 C451 0.950 . S
H446 C452 0.949 . S
C447 H442 0.950 . S
C447 C449 1.327 . S
C447 C453 1.429 . S
C448 C440 1.574 . S
C448 H443 0.949 . S
C448 C454 1.368 . S
C449 C433 1.349 . S
C449 H441 0.950 . S
C449 C447 1.327 . S
C450 C438 1.349 . S
C450 H444 0.950 . S
C450 C451 1.327 . S
C451 H445 0.950 . S
C451 C450 1.327 . S
C451 C455 1.429 . S
C452 C435 1.574 . S
C452 H446 0.949 . S
C452 C456 1.368 . S
C453 C434 1.429 . S
C453 C447 1.429 . S
C453 C454 1.523 . S
C454 C435 1.368 . S
C454 C448 1.368 . S
C454 C453 1.523 . S
C455 C439 1.429 . S
C455 C451 1.429 . S
C455 C456 1.523 1_545 S
C456 C440 1.368 . S
C456 C452 1.368 . S
C456 C455 1.523 1_565 S
H457 C432 0.950 . S
H458 C434 0.950 . S
H459 C435 0.949 . S
H460 C437 0.950 . S
H461 C439 0.950 . S
C462 C463 1.349 . S
C462 C464 1.327 . S
C462 H487 0.950 . S
C463 C462 1.349 . S
C463 C479 1.349 . S
C464 C462 1.327 . S
C464 C483 1.429 . S
C464 H488 0.950 . S
C465 C482 1.574 . S
C465 C484 1.368 . S
C465 H489 0.949 . S
H466 C470 0.949 . S
C467 C468 1.349 . S
C467 C469 1.327 . S
C467 H490 0.950 . S
C468 C467 1.349 . S
C468 C480 1.349 . S
C469 C467 1.327 . S
C469 C485 1.429 . S
C469 H491 0.950 . S
C470 H466 0.949 . S
C470 C478 1.574 . S
C470 C486 1.368 . S
H471 C479 0.950 . S
H472 C477 0.950 . S
H473 C478 0.949 . S
H474 C480 0.950 . S
H475 C481 0.950 . S
H476 C482 0.949 . S
C477 H472 0.950 . S
C477 C479 1.327 . S
C477 C483 1.429 . S
C478 C470 1.574 . S
C478 H473 0.949 . S
C478 C484 1.368 . S
C479 C463 1.349 . S
C479 H471 0.950 . S
C479 C477 1.327 . S
C480 C468 1.349 . S
C480 H474 0.950 . S
C480 C481 1.327 . S
C481 H475 0.950 . S
C481 C480 1.327 . S
C481 C485 1.429 . S
C482 C465 1.574 . S
C482 H476 0.949 . S
C482 C486 1.368 . S
C483 C464 1.429 . S
C483 C477 1.429 . S
C483 C484 1.523 . S
C484 C465 1.368 . S
C484 C478 1.368 . S
C484 C483 1.523 . S
C485 C469 1.429 . S
C485 C481 1.429 . S
C485 C486 1.523 . S
C486 C470 1.368 . S
C486 C482 1.368 . S
C486 C485 1.523 . S
H487 C462 0.950 . S
H488 C464 0.950 . S
H489 C465 0.949 . S
H490 C467 0.950 . S
H491 C469 0.950 . S
C492 C493 1.349 . S
C492 C494 1.327 . S
C492 H517 0.950 . S
C493 C492 1.349 . S
C493 C509 1.349 . S
C494 C492 1.327 . S
C494 C513 1.429 . S
C494 H518 0.950 . S
C495 C512 1.574 . S
C495 C514 1.368 . S
C495 H519 0.949 . S
H496 C500 0.949 . S
C497 C498 1.349 . S
C497 C499 1.327 . S
C497 H520 0.950 . S
C498 C497 1.349 . S
C498 C510 1.349 . S
C499 C497 1.327 . S
C499 C515 1.429 . S
C499 H521 0.950 . S
C500 H496 0.949 . S
C500 C508 1.574 . S
C500 C516 1.368 . S
H501 C509 0.950 . S
H502 C507 0.950 . S
H503 C508 0.949 . S
H504 C510 0.950 . S
H505 C511 0.950 . S
H506 C512 0.949 . S
C507 H502 0.950 . S
C507 C509 1.327 . S
C507 C513 1.429 . S
C508 C500 1.574 . S
C508 H503 0.949 . S
C508 C514 1.368 . S
C509 C493 1.349 . S
C509 H501 0.950 . S
C509 C507 1.327 . S
C510 C498 1.349 . S
C510 H504 0.950 . S
C510 C511 1.327 . S
C511 H505 0.950 . S
C511 C510 1.327 . S
C511 C515 1.429 . S
C512 C495 1.574 . S
C512 H506 0.949 . S
C512 C516 1.368 . S
C513 C494 1.429 . S
C513 C507 1.429 . S
C513 C514 1.523 . S
C514 C495 1.368 . S
C514 C508 1.368 . S
C514 C513 1.523 . S
C515 C499 1.429 . S
C515 C511 1.429 . S
C515 C516 1.523 . S
C516 C500 1.368 . S
C516 C512 1.368 . S
C516 C515 1.523 . S
H517 C492 0.950 . S
H518 C494 0.950 . S
H519 C495 0.949 . S
H520 C497 0.950 . S
H521 C499 0.950 . S
C522 C523 1.349 . S
C522 C524 1.327 . S
C522 H547 0.950 . S
C523 C522 1.349 . S
C523 C539 1.349 . S
C524 C522 1.327 . S
C524 C543 1.429 . S
C524 H548 0.950 . S
C525 C542 1.574 1_565 S
C525 C544 1.368 . S
C525 H549 0.949 . S
H526 C530 0.949 . S
C527 C528 1.349 . S
C527 C529 1.327 . S
C527 H550 0.950 . S
C528 C527 1.349 . S
C528 C540 1.349 . S
C529 C527 1.327 . S
C529 C545 1.429 . S
C529 H551 0.950 . S
C530 H526 0.949 . S
C530 C538 1.574 . S
C530 C546 1.368 . S
H531 C539 0.950 . S
H532 C537 0.950 . S
H533 C538 0.949 . S
H534 C540 0.950 . S
H535 C541 0.950 1_565 S
H536 C542 0.949 . S
C537 H532 0.950 . S
C537 C539 1.327 . S
C537 C543 1.429 . S
C538 C530 1.574 . S
C538 H533 0.949 . S
C538 C544 1.368 . S
C539 C523 1.349 . S
C539 H531 0.950 . S
C539 C537 1.327 . S
C540 C528 1.349 . S
C540 H534 0.950 . S
C540 C541 1.327 . S
C541 H535 0.950 1_545 S
C541 C540 1.327 . S
C541 C545 1.429 . S
C542 C525 1.574 1_545 S
C542 H536 0.949 . S
C542 C546 1.368 1_545 S
C543 C524 1.429 . S
C543 C537 1.429 . S
C543 C544 1.523 . S
C544 C525 1.368 . S
C544 C538 1.368 . S
C544 C543 1.523 . S
C545 C529 1.429 . S
C545 C541 1.429 . S
C545 C546 1.523 1_545 S
C546 C530 1.368 . S
C546 C542 1.368 1_565 S
C546 C545 1.523 1_565 S
H547 C522 0.950 . S
H548 C524 0.950 . S
H549 C525 0.949 . S
H550 C527 0.950 . S
H551 C529 0.950 . S
C552 C553 1.349 . S
C552 C554 1.327 . S
C552 H577 0.950 . S
C553 C552 1.349 . S
C553 C569 1.349 . S
C554 C552 1.327 . S
C554 C573 1.429 . S
C554 H578 0.950 . S
C555 C572 1.574 . S
C555 C574 1.368 . S
C555 H579 0.949 . S
H556 C560 0.949 . S
C557 C558 1.349 . S
C557 C559 1.327 . S
C557 H580 0.950 . S
C558 C557 1.349 . S
C558 C570 1.349 . S
C559 C557 1.327 . S
C559 C575 1.429 . S
C559 H581 0.950 1_565 S
C560 H556 0.949 . S
C560 C568 1.574 1_565 S
C560 C576 1.368 1_565 S
H561 C569 0.950 . S
H562 C567 0.950 . S
H563 C568 0.949 . S
H564 C570 0.950 . S
H565 C571 0.950 . S
H566 C572 0.949 . S
C567 H562 0.950 . S
C567 C569 1.327 . S
C567 C573 1.429 . S
C568 C560 1.574 1_545 S
C568 H563 0.949 . S
C568 C574 1.368 . S
C569 C553 1.349 . S
C569 H561 0.950 . S
C569 C567 1.327 . S
C570 C558 1.349 . S
C570 H564 0.950 . S
C570 C571 1.327 . S
C571 H565 0.950 . S
C571 C570 1.327 . S
C571 C575 1.429 . S
C572 C555 1.574 . S
C572 H566 0.949 . S
C572 C576 1.368 . S
C573 C554 1.429 . S
C573 C567 1.429 . S
C573 C574 1.523 . S
C574 C555 1.368 . S
C574 C568 1.368 . S
C574 C573 1.523 . S
C575 C559 1.429 . S
C575 C571 1.429 . S
C575 C576 1.523 1_565 S
C576 C560 1.368 1_545 S
C576 C572 1.368 . S
C576 C575 1.523 1_545 S
H577 C552 0.950 . S
H578 C554 0.950 . S
H579 C555 0.949 . S
H580 C557 0.950 . S
H581 C559 0.950 1_545 S
C582 C583 1.349 . S
C582 C584 1.327 . S
C582 H607 0.950 . S
C583 C582 1.349 . S
C583 C599 1.349 . S
C584 C582 1.327 . S
C584 C603 1.429 . S
C584 H608 0.950 . S
C585 C602 1.574 . S
C585 C604 1.368 . S
C585 H609 0.949 . S
H586 C590 0.949 . S
C587 C588 1.349 . S
C587 C589 1.327 . S
C587 H610 0.950 . S
C588 C587 1.349 . S
C588 C600 1.349 . S
C589 C587 1.327 . S
C589 C605 1.429 . S
C589 H611 0.950 . S
C590 H586 0.949 . S
C590 C598 1.574 . S
C590 C606 1.368 . S
H591 C599 0.950 . S
H592 C597 0.950 . S
H593 C598 0.949 . S
H594 C600 0.950 . S
H595 C601 0.950 . S
H596 C602 0.949 . S
C597 H592 0.950 . S
C597 C599 1.327 . S
C597 C603 1.429 . S
C598 C590 1.574 . S
C598 H593 0.949 . S
C598 C604 1.368 . S
C599 C583 1.349 . S
C599 H591 0.950 . S
C599 C597 1.327 . S
C600 C588 1.349 . S
C600 H594 0.950 . S
C600 C601 1.327 . S
C601 H595 0.950 . S
C601 C600 1.327 . S
C601 C605 1.429 . S
C602 C585 1.574 . S
C602 H596 0.949 . S
C602 C606 1.368 . S
C603 C584 1.429 . S
C603 C597 1.429 . S
C603 C604 1.523 . S
C604 C585 1.368 . S
C604 C598 1.368 . S
C604 C603 1.523 . S
C605 C589 1.429 . S
C605 C601 1.429 . S
C605 C606 1.523 . S
C606 C590 1.368 . S
C606 C602 1.368 . S
C606 C605 1.523 . S
H607 C582 0.950 . S
H608 C584 0.950 . S
H609 C585 0.949 . S
H610 C587 0.950 . S
H611 C589 0.950 . S
C612 C613 1.349 . S
C612 C614 1.327 . S
C612 H637 0.950 . S
C613 C612 1.349 . S
C613 C629 1.349 . S
C614 C612 1.327 . S
C614 C633 1.429 . S
C614 H638 0.950 . S
C615 C632 1.574 . S
C615 C634 1.368 . S
C615 H639 0.949 . S
H616 C620 0.949 . S
C617 C618 1.349 . S
C617 C619 1.327 . S
C617 H640 0.950 . S
C618 C617 1.349 . S
C618 C630 1.349 . S
C619 C617 1.327 . S
C619 C635 1.429 . S
C619 H641 0.950 . S
C620 H616 0.949 . S
C620 C628 1.574 . S
C620 C636 1.368 . S
H621 C629 0.950 . S
H622 C627 0.950 . S
H623 C628 0.949 . S
H624 C630 0.950 . S
H625 C631 0.950 . S
H626 C632 0.949 . S
C627 H622 0.950 . S
C627 C629 1.327 . S
C627 C633 1.429 . S
C628 C620 1.574 . S
C628 H623 0.949 . S
C628 C634 1.368 . S
C629 C613 1.349 . S
C629 H621 0.950 . S
C629 C627 1.327 . S
C630 C618 1.349 . S
C630 H624 0.950 . S
C630 C631 1.327 . S
C631 H625 0.950 . S
C631 C630 1.327 . S
C631 C635 1.429 . S
C632 C615 1.574 . S
C632 H626 0.949 . S
C632 C636 1.368 . S
C633 C614 1.429 . S
C633 C627 1.429 . S
C633 C634 1.523 . S
C634 C615 1.368 . S
C634 C628 1.368 . S
C634 C633 1.523 . S
C635 C619 1.429 . S
C635 C631 1.429 . S
C635 C636 1.523 . S
C636 C620 1.368 . S
C636 C632 1.368 . S
C636 C635 1.523 . S
H637 C612 0.950 . S
H638 C614 0.950 . S
H639 C615 0.949 . S
H640 C617 0.950 . S
H641 C619 0.950 . S
C642 C643 1.349 . S
C642 C644 1.327 . S
C642 H667 0.950 . S
C643 C642 1.349 . S
C643 C659 1.349 . S
C644 C642 1.327 . S
C644 C663 1.429 . S
C644 H668 0.950 . S
C645 C662 1.574 . S
C645 C664 1.368 . S
C645 H669 0.949 . S
H646 C650 0.949 . S
C647 C648 1.349 . S
C647 C649 1.327 . S
C647 H670 0.950 . S
C648 C647 1.349 . S
C648 C660 1.349 . S
C649 C647 1.327 . S
C649 C665 1.429 . S
C649 H671 0.950 . S
C650 H646 0.949 . S
C650 C658 1.574 . S
C650 C666 1.368 . S
H651 C659 0.950 . S
H652 C657 0.950 . S
H653 C658 0.949 . S
H654 C660 0.950 . S
H655 C661 0.950 . S
H656 C662 0.949 1_565 S
C657 H652 0.950 . S
C657 C659 1.327 . S
C657 C663 1.429 . S
C658 C650 1.574 . S
C658 H653 0.949 . S
C658 C664 1.368 . S
C659 C643 1.349 . S
C659 H651 0.950 . S
C659 C657 1.327 . S
C660 C648 1.349 . S
C660 H654 0.950 . S
C660 C661 1.327 . S
C661 H655 0.950 . S
C661 C660 1.327 . S
C661 C665 1.429 . S
C662 C645 1.574 . S
C662 H656 0.949 1_545 S
C662 C666 1.368 . S
C663 C644 1.429 . S
C663 C657 1.429 . S
C663 C664 1.523 . S
C664 C645 1.368 . S
C664 C658 1.368 . S
C664 C663 1.523 . S
C665 C649 1.429 . S
C665 C661 1.429 . S
C665 C666 1.523 1_565 S
C666 C650 1.368 . S
C666 C662 1.368 . S
C666 C665 1.523 1_545 S
H667 C642 0.950 . S
H668 C644 0.950 . S
H669 C645 0.949 . S
H670 C647 0.950 . S
H671 C649 0.950 . S
C672 C673 1.349 . S
C672 C674 1.327 . S
C672 H697 0.950 . S
C673 C672 1.349 . S
C673 C689 1.349 . S
C674 C672 1.327 . S
C674 C693 1.429 . S
C674 H698 0.950 . S
C675 C692 1.574 . S
C675 C694 1.368 . S
C675 H699 0.949 . S
H676 C680 0.949 . S
C677 C678 1.349 . S
C677 C679 1.327 . S
C677 H700 0.950 . S
C678 C677 1.349 . S
C678 C690 1.349 . S
C679 C677 1.327 . S
C679 C695 1.429 . S
C679 H701 0.950 . S
C680 H676 0.949 . S
C680 C688 1.574 . S
C680 C696 1.368 . S
H681 C689 0.950 . S
H682 C687 0.950 . S
H683 C688 0.949 . S
H684 C690 0.950 . S
H685 C691 0.950 . S
H686 C692 0.949 . S
C687 H682 0.950 . S
C687 C689 1.327 . S
C687 C693 1.429 . S
C688 C680 1.574 . S
C688 H683 0.949 . S
C688 C694 1.368 . S
C689 C673 1.349 . S
C689 H681 0.950 . S
C689 C687 1.327 . S
C690 C678 1.349 . S
C690 H684 0.950 . S
C690 C691 1.327 . S
C691 H685 0.950 . S
C691 C690 1.327 . S
C691 C695 1.429 . S
C692 C675 1.574 . S
C692 H686 0.949 . S
C692 C696 1.368 . S
C693 C674 1.429 . S
C693 C687 1.429 . S
C693 C694 1.523 1_556 S
C694 C675 1.368 . S
C694 C688 1.368 . S
C694 C693 1.523 1_554 S
C695 C679 1.429 . S
C695 C691 1.429 . S
C695 C696 1.523 . S
C696 C680 1.368 . S
C696 C692 1.368 . S
C696 C695 1.523 . S
H697 C672 0.950 . S
H698 C674 0.950 . S
H699 C675 0.949 . S
H700 C677 0.950 . S
H701 C679 0.950 . S
C702 C703 1.349 . S
C702 C704 1.327 . S
C702 H727 0.950 . S
C703 C702 1.349 . S
C703 C719 1.349 . S
C704 C702 1.327 . S
C704 C723 1.429 . S
C704 H728 0.950 . S
C705 C722 1.574 . S
C705 C724 1.368 . S
C705 H729 0.949 . S
H706 C710 0.949 . S
C707 C708 1.349 . S
C707 C709 1.327 . S
C707 H730 0.950 . S
C708 C707 1.349 . S
C708 C720 1.349 . S
C709 C707 1.327 . S
C709 C725 1.429 . S
C709 H731 0.950 . S
C710 H706 0.949 . S
C710 C718 1.574 . S
C710 C726 1.368 . S
H711 C719 0.950 . S
H712 C717 0.950 . S
H713 C718 0.949 . S
H714 C720 0.950 . S
H715 C721 0.950 . S
H716 C722 0.949 . S
C717 H712 0.950 . S
C717 C719 1.327 . S
C717 C723 1.429 . S
C718 C710 1.574 . S
C718 H713 0.949 . S
C718 C724 1.368 . S
C719 C703 1.349 . S
C719 H711 0.950 . S
C719 C717 1.327 . S
C720 C708 1.349 . S
C720 H714 0.950 . S
C720 C721 1.327 . S
C721 H715 0.950 . S
C721 C720 1.327 . S
C721 C725 1.429 . S
C722 C705 1.574 . S
C722 H716 0.949 . S
C722 C726 1.368 . S
C723 C704 1.429 . S
C723 C717 1.429 . S
C723 C724 1.523 . S
C724 C705 1.368 . S
C724 C718 1.368 . S
C724 C723 1.523 . S
C725 C709 1.429 . S
C725 C721 1.429 . S
C725 C726 1.523 . S
C726 C710 1.368 . S
C726 C722 1.368 . S
C726 C725 1.523 . S
H727 C702 0.950 . S
H728 C704 0.950 . S
H729 C705 0.949 . S
H730 C707 0.950 . S
H731 C709 0.950 . S
C732 C733 1.349 . S
C732 C734 1.327 . S
C732 H757 0.950 . S
C733 C732 1.349 . S
C733 C749 1.349 . S
C734 C732 1.327 . S
C734 C753 1.429 . S
C734 H758 0.950 . S
C735 C752 1.574 . S
C735 C754 1.368 . S
C735 H759 0.949 . S
H736 C740 0.949 . S
C737 C738 1.349 . S
C737 C739 1.327 . S
C737 H760 0.950 . S
C738 C737 1.349 . S
C738 C750 1.349 . S
C739 C737 1.327 . S
C739 C755 1.429 . S
C739 H761 0.950 . S
C740 H736 0.949 . S
C740 C748 1.574 . S
C740 C756 1.368 . S
H741 C749 0.950 . S
H742 C747 0.950 . S
H743 C748 0.949 . S
H744 C750 0.950 . S
H745 C751 0.950 . S
H746 C752 0.949 . S
C747 H742 0.950 . S
C747 C749 1.327 . S
C747 C753 1.429 . S
C748 C740 1.574 . S
C748 H743 0.949 . S
C748 C754 1.368 . S
C749 C733 1.349 . S
C749 H741 0.950 . S
C749 C747 1.327 . S
C750 C738 1.349 . S
C750 H744 0.950 . S
C750 C751 1.327 . S
C751 H745 0.950 . S
C751 C750 1.327 . S
C751 C755 1.429 . S
C752 C735 1.574 . S
C752 H746 0.949 . S
C752 C756 1.368 . S
C753 C734 1.429 . S
C753 C747 1.429 . S
C753 C754 1.523 1_554 S
C754 C735 1.368 . S
C754 C748 1.368 . S
C754 C753 1.523 1_556 S
C755 C739 1.429 . S
C755 C751 1.429 . S
C755 C756 1.523 . S
C756 C740 1.368 . S
C756 C752 1.368 . S
C756 C755 1.523 . S
H757 C732 0.950 . S
H758 C734 0.950 . S
H759 C735 0.949 . S
H760 C737 0.950 . S
H761 C739 0.950 . S
C762 C763 1.349 . S
C762 C764 1.327 . S
C762 H787 0.950 . S
C763 C762 1.349 . S
C763 C779 1.349 . S
C764 C762 1.327 . S
C764 C783 1.429 . S
C764 H788 0.950 . S
C765 C782 1.574 . S
C765 C784 1.368 . S
C765 H789 0.949 . S
H766 C770 0.949 . S
C767 C768 1.349 . S
C767 C769 1.327 . S
C767 H790 0.950 . S
C768 C767 1.349 . S
C768 C780 1.349 . S
C769 C767 1.327 . S
C769 C785 1.429 . S
C769 H791 0.950 . S
C770 H766 0.949 . S
C770 C778 1.574 . S
C770 C786 1.368 . S
H771 C779 0.950 . S
H772 C777 0.950 . S
H773 C778 0.949 . S
H774 C780 0.950 . S
H775 C781 0.950 . S
H776 C782 0.949 . S
C777 H772 0.950 . S
C777 C779 1.327 . S
C777 C783 1.429 . S
C778 C770 1.574 . S
C778 H773 0.949 . S
C778 C784 1.368 . S
C779 C763 1.349 . S
C779 H771 0.950 . S
C779 C777 1.327 . S
C780 C768 1.349 . S
C780 H774 0.950 . S
C780 C781 1.327 . S
C781 H775 0.950 . S
C781 C780 1.327 . S
C781 C785 1.429 . S
C782 C765 1.574 . S
C782 H776 0.949 . S
C782 C786 1.368 . S
C783 C764 1.429 . S
C783 C777 1.429 . S
C783 C784 1.523 . S
C784 C765 1.368 . S
C784 C778 1.368 . S
C784 C783 1.523 . S
C785 C769 1.429 . S
C785 C781 1.429 . S
C785 C786 1.523 . S
C786 C770 1.368 . S
C786 C782 1.368 . S
C786 C785 1.523 . S
H787 C762 0.950 . S
H788 C764 0.950 . S
H789 C765 0.949 . S
H790 C767 0.950 . S
H791 C769 0.950 . S
C792 C793 1.349 . S
C792 C794 1.327 . S
C792 H817 0.950 . S
C793 C792 1.349 . S
C793 C809 1.349 . S
C794 C792 1.327 . S
C794 C813 1.429 . S
C794 H818 0.950 . S
C795 C812 1.574 . S
C795 C814 1.368 . S
C795 H819 0.949 . S
H796 C800 0.949 . S
C797 C798 1.349 . S
C797 C799 1.327 . S
C797 H820 0.950 . S
C798 C797 1.349 . S
C798 C810 1.349 . S
C799 C797 1.327 . S
C799 C815 1.429 . S
C799 H821 0.950 . S
C800 H796 0.949 . S
C800 C808 1.574 . S
C800 C816 1.368 . S
H801 C809 0.950 . S
H802 C807 0.950 1_556 S
H803 C808 0.949 . S
H804 C810 0.950 . S
H805 C811 0.950 . S
H806 C812 0.949 . S
C807 H802 0.950 1_554 S
C807 C809 1.327 . S
C807 C813 1.429 . S
C808 C800 1.574 . S
C808 H803 0.949 . S
C808 C814 1.368 . S
C809 C793 1.349 . S
C809 H801 0.950 . S
C809 C807 1.327 . S
C810 C798 1.349 . S
C810 H804 0.950 . S
C810 C811 1.327 . S
C811 H805 0.950 . S
C811 C810 1.327 . S
C811 C815 1.429 . S
C812 C795 1.574 . S
C812 H806 0.949 . S
C812 C816 1.368 . S
C813 C794 1.429 . S
C813 C807 1.429 . S
C813 C814 1.523 1_554 S
C814 C795 1.368 . S
C814 C808 1.368 . S
C814 C813 1.523 1_556 S
C815 C799 1.429 . S
C815 C811 1.429 . S
C815 C816 1.523 . S
C816 C800 1.368 . S
C816 C812 1.368 . S
C816 C815 1.523 . S
H817 C792 0.950 . S
H818 C794 0.950 . S
H819 C795 0.949 . S
H820 C797 0.950 . S
H821 C799 0.950 . S
C822 C823 1.349 . S
C822 C824 1.327 . S
C822 H847 0.950 . S
C823 C822 1.349 . S
C823 C839 1.349 . S
C824 C822 1.327 . S
C824 C843 1.429 . S
C824 H848 0.950 . S
C825 C842 1.574 . S
C825 C844 1.368 . S
C825 H849 0.949 . S
H826 C830 0.949 . S
C827 C828 1.349 . S
C827 C829 1.327 . S
C827 H850 0.950 . S
C828 C827 1.349 . S
C828 C840 1.349 . S
C829 C827 1.327 . S
C829 C845 1.429 . S
C829 H851 0.950 . S
C830 H826 0.949 . S
C830 C838 1.574 . S
C830 C846 1.368 . S
H831 C839 0.950 . S
H832 C837 0.950 . S
H833 C838 0.949 . S
H834 C840 0.950 . S
H835 C841 0.950 . S
H836 C842 0.949 . S
C837 H832 0.950 . S
C837 C839 1.327 . S
C837 C843 1.429 . S
C838 C830 1.574 . S
C838 H833 0.949 . S
C838 C844 1.368 . S
C839 C823 1.349 . S
C839 H831 0.950 . S
C839 C837 1.327 . S
C840 C828 1.349 . S
C840 H834 0.950 . S
C840 C841 1.327 . S
C841 H835 0.950 . S
C841 C840 1.327 . S
C841 C845 1.429 . S
C842 C825 1.574 . S
C842 H836 0.949 . S
C842 C846 1.368 . S
C843 C824 1.429 . S
C843 C837 1.429 . S
C843 C844 1.523 . S
C844 C825 1.368 . S
C844 C838 1.368 . S
C844 C843 1.523 . S
C845 C829 1.429 . S
C845 C841 1.429 . S
C845 C846 1.523 . S
C846 C830 1.368 . S
C846 C842 1.368 . S
C846 C845 1.523 . S
H847 C822 0.950 . S
H848 C824 0.950 . S
H849 C825 0.949 . S
H850 C827 0.950 . S
H851 C829 0.950 . S
C852 C853 1.349 . S
C852 C854 1.327 . S
C852 H877 0.950 . S
C853 C852 1.349 . S
C853 C869 1.349 . S
C854 C852 1.327 . S
C854 C873 1.429 . S
C854 H878 0.950 . S
C855 C872 1.574 . S
C855 C874 1.368 . S
C855 H879 0.949 . S
H856 C860 0.949 . S
C857 C858 1.349 . S
C857 C859 1.327 . S
C857 H880 0.950 . S
C858 C857 1.349 . S
C858 C870 1.349 . S
C859 C857 1.327 . S
C859 C875 1.429 . S
C859 H881 0.950 . S
C860 H856 0.949 . S
C860 C868 1.574 . S
C860 C876 1.368 . S
H861 C869 0.950 . S
H862 C867 0.950 . S
H863 C868 0.949 . S
H864 C870 0.950 . S
H865 C871 0.950 . S
H866 C872 0.949 . S
C867 H862 0.950 . S
C867 C869 1.327 . S
C867 C873 1.429 . S
C868 C860 1.574 . S
C868 H863 0.949 . S
C868 C874 1.368 . S
C869 C853 1.349 . S
C869 H861 0.950 . S
C869 C867 1.327 . S
C870 C858 1.349 . S
C870 H864 0.950 . S
C870 C871 1.327 . S
C871 H865 0.950 . S
C871 C870 1.327 . S
C871 C875 1.429 . S
C872 C855 1.574 . S
C872 H866 0.949 . S
C872 C876 1.368 . S
C873 C854 1.429 . S
C873 C867 1.429 . S
C873 C874 1.523 1_556 S
C874 C855 1.368 . S
C874 C868 1.368 . S
C874 C873 1.523 1_554 S
C875 C859 1.429 . S
C875 C871 1.429 . S
C875 C876 1.523 . S
C876 C860 1.368 . S
C876 C872 1.368 . S
C876 C875 1.523 . S
H877 C852 0.950 . S
H878 C854 0.950 . S
H879 C855 0.949 . S
H880 C857 0.950 . S
H881 C859 0.950 . S
C882 C883 1.349 . S
C882 C884 1.327 . S
C882 H907 0.950 . S
C883 C882 1.349 . S
C883 C899 1.349 . S
C884 C882 1.327 . S
C884 C903 1.429 . S
C884 H908 0.950 . S
C885 C902 1.574 . S
C885 C904 1.368 . S
C885 H909 0.949 . S
H886 C890 0.949 . S
C887 C888 1.349 . S
C887 C889 1.327 . S
C887 H910 0.950 . S
C888 C887 1.349 . S
C888 C900 1.349 . S
C889 C887 1.327 . S
C889 C905 1.429 . S
C889 H911 0.950 . S
C890 H886 0.949 . S
C890 C898 1.574 . S
C890 C906 1.368 . S
H891 C899 0.950 . S
H892 C897 0.950 . S
H893 C898 0.949 . S
H894 C900 0.950 . S
H895 C901 0.950 . S
H896 C902 0.949 . S
C897 H892 0.950 . S
C897 C899 1.327 . S
C897 C903 1.429 . S
C898 C890 1.574 . S
C898 H893 0.949 . S
C898 C904 1.368 . S
C899 C883 1.349 . S
C899 H891 0.950 . S
C899 C897 1.327 . S
C900 C888 1.349 . S
C900 H894 0.950 . S
C900 C901 1.327 . S
C901 H895 0.950 . S
C901 C900 1.327 . S
C901 C905 1.429 . S
C902 C885 1.574 . S
C902 H896 0.949 . S
C902 C906 1.368 . S
C903 C884 1.429 . S
C903 C897 1.429 . S
C903 C904 1.523 . S
C904 C885 1.368 . S
C904 C898 1.368 . S
C904 C903 1.523 . S
C905 C889 1.429 . S
C905 C901 1.429 . S
C905 C906 1.523 . S
C906 C890 1.368 . S
C906 C902 1.368 . S
C906 C905 1.523 . S
H907 C882 0.950 . S
H908 C884 0.950 . S
H909 C885 0.949 . S
H910 C887 0.950 . S
H911 C889 0.950 . S
C912 C913 1.349 . S
C912 C914 1.327 . S
C912 H937 0.950 . S
C913 C912 1.349 . S
C913 C929 1.349 . S
C914 C912 1.327 . S
C914 C933 1.429 . S
C914 H938 0.950 . S
C915 C932 1.574 . S
C915 C934 1.368 . S
C915 H939 0.949 . S
H916 C920 0.949 . S
C917 C918 1.349 . S
C917 C919 1.327 . S
C917 H940 0.950 . S
C918 C917 1.349 . S
C918 C930 1.349 . S
C919 C917 1.327 . S
C919 C935 1.429 . S
C919 H941 0.950 . S
C920 H916 0.949 . S
C920 C928 1.574 . S
C920 C936 1.368 . S
H921 C929 0.950 . S
H922 C927 0.950 . S
H923 C928 0.949 . S
H924 C930 0.950 . S
H925 C931 0.950 . S
H926 C932 0.949 . S
C927 H922 0.950 . S
C927 C929 1.327 . S
C927 C933 1.429 . S
C928 C920 1.574 . S
C928 H923 0.949 . S
C928 C934 1.368 . S
C929 C913 1.349 . S
C929 H921 0.950 . S
C929 C927 1.327 . S
C930 C918 1.349 . S
C930 H924 0.950 . S
C930 C931 1.327 . S
C931 H925 0.950 . S
C931 C930 1.327 . S
C931 C935 1.429 . S
C932 C915 1.574 . S
C932 H926 0.949 . S
C932 C936 1.368 . S
C933 C914 1.429 . S
C933 C927 1.429 . S
C933 C934 1.523 . S
C934 C915 1.368 . S
C934 C928 1.368 . S
C934 C933 1.523 . S
C935 C919 1.429 . S
C935 C931 1.429 . S
C935 C936 1.523 . S
C936 C920 1.368 . S
C936 C932 1.368 . S
C936 C935 1.523 . S
H937 C912 0.950 . S
H938 C914 0.950 . S
H939 C915 0.949 . S
H940 C917 0.950 . S
H941 C919 0.950 . S
C942 C943 1.349 . S
C942 C944 1.327 . S
C942 H967 0.950 . S
C943 C942 1.349 . S
C943 C959 1.349 . S
C944 C942 1.327 . S
C944 C963 1.429 . S
C944 H968 0.950 . S
C945 C962 1.574 . S
C945 C964 1.368 . S
C945 H969 0.949 . S
H946 C950 0.949 . S
C947 C948 1.349 . S
C947 C949 1.327 . S
C947 H970 0.950 . S
C948 C947 1.349 . S
C948 C960 1.349 . S
C949 C947 1.327 . S
C949 C965 1.429 . S
C949 H971 0.950 . S
C950 H946 0.949 . S
C950 C958 1.574 . S
C950 C966 1.368 . S
H951 C959 0.950 . S
H952 C957 0.950 . S
H953 C958 0.949 . S
H954 C960 0.950 . S
H955 C961 0.950 . S
H956 C962 0.949 . S
C957 H952 0.950 . S
C957 C959 1.327 . S
C957 C963 1.429 . S
C958 C950 1.574 . S
C958 H953 0.949 . S
C958 C964 1.368 . S
C959 C943 1.349 . S
C959 H951 0.950 . S
C959 C957 1.327 . S
C960 C948 1.349 . S
C960 H954 0.950 . S
C960 C961 1.327 . S
C961 H955 0.950 . S
C961 C960 1.327 . S
C961 C965 1.429 . S
C962 C945 1.574 . S
C962 H956 0.949 . S
C962 C966 1.368 . S
C963 C944 1.429 . S
C963 C957 1.429 . S
C963 C964 1.523 . S
C964 C945 1.368 . S
C964 C958 1.368 . S
C964 C963 1.523 . S
C965 C949 1.429 . S
C965 C961 1.429 . S
C965 C966 1.523 . S
C966 C950 1.368 . S
C966 C962 1.368 . S
C966 C965 1.523 . S
H967 C942 0.950 . S
H968 C944 0.950 . S
H969 C945 0.949 . S
H970 C947 0.950 . S
H971 C949 0.950 . S
C972 C973 1.349 . S
C972 C974 1.327 . S
C972 H997 0.950 . S
C973 C972 1.349 . S
C973 C989 1.349 . S
C974 C972 1.327 . S
C974 C993 1.429 . S
C974 H998 0.950 . S
C975 C992 1.574 . S
C975 C994 1.368 . S
C975 H999 0.949 . S
H976 C980 0.949 . S
C977 C978 1.349 . S
C977 C979 1.327 . S
C977 H1000 0.950 . S
C978 C977 1.349 . S
C978 C990 1.349 . S
C979 C977 1.327 . S
C979 C995 1.429 . S
C979 H1001 0.950 . S
C980 H976 0.949 . S
C980 C988 1.574 . S
C980 C996 1.368 . S
H981 C989 0.950 . S
H982 C987 0.950 . S
H983 C988 0.949 . S
H984 C990 0.950 . S
H985 C991 0.950 . S
H986 C992 0.949 . S
C987 H982 0.950 . S
C987 C989 1.327 . S
C987 C993 1.429 . S
C988 C980 1.574 . S
C988 H983 0.949 . S
C988 C994 1.368 . S
C989 C973 1.349 . S
C989 H981 0.950 . S
C989 C987 1.327 . S
C990 C978 1.349 . S
C990 H984 0.950 . S
C990 C991 1.327 . S
C991 H985 0.950 . S
C991 C990 1.327 . S
C991 C995 1.429 . S
C992 C975 1.574 . S
C992 H986 0.949 . S
C992 C996 1.368 . S
C993 C974 1.429 . S
C993 C987 1.429 . S
C993 C994 1.523 . S
C994 C975 1.368 . S
C994 C988 1.368 . S
C994 C993 1.523 . S
C995 C979 1.429 . S
C995 C991 1.429 . S
C995 C996 1.523 . S
C996 C980 1.368 . S
C996 C992 1.368 . S
C996 C995 1.523 . S
H997 C972 0.950 . S
H998 C974 0.950 . S
H999 C975 0.949 . S
H1000 C977 0.950 . S
H1001 C979 0.950 . S
C1002 C1003 1.349 . S
C1002 C1004 1.327 . S
C1002 H1027 0.950 . S
C1003 C1002 1.349 . S
C1003 C1019 1.349 . S
C1004 C1002 1.327 . S
C1004 C1023 1.429 . S
C1004 H1028 0.950 . S
C1005 C1022 1.574 . S
C1005 C1024 1.368 . S
C1005 H1029 0.949 . S
H1006 C1010 0.949 . S
C1007 C1008 1.349 . S
C1007 C1009 1.327 . S
C1007 H1030 0.950 . S
C1008 C1007 1.349 . S
C1008 C1020 1.349 . S
C1009 C1007 1.327 . S
C1009 C1025 1.429 . S
C1009 H1031 0.950 . S
C1010 H1006 0.949 . S
C1010 C1018 1.574 . S
C1010 C1026 1.368 . S
H1011 C1019 0.950 . S
H1012 C1017 0.950 . S
H1013 C1018 0.949 . S
H1014 C1020 0.950 . S
H1015 C1021 0.950 . S
H1016 C1022 0.949 . S
C1017 H1012 0.950 . S
C1017 C1019 1.327 . S
C1017 C1023 1.429 . S
C1018 C1010 1.574 . S
C1018 H1013 0.949 . S
C1018 C1024 1.368 . S
C1019 C1003 1.349 . S
C1019 H1011 0.950 . S
C1019 C1017 1.327 . S
C1020 C1008 1.349 . S
C1020 H1014 0.950 . S
C1020 C1021 1.327 . S
C1021 H1015 0.950 . S
C1021 C1020 1.327 . S
C1021 C1025 1.429 . S
C1022 C1005 1.574 . S
C1022 H1016 0.949 . S
C1022 C1026 1.368 . S
C1023 C1004 1.429 . S
C1023 C1017 1.429 . S
C1023 C1024 1.523 . S
C1024 C1005 1.368 . S
C1024 C1018 1.368 . S
C1024 C1023 1.523 . S
C1025 C1009 1.429 . S
C1025 C1021 1.429 . S
C1025 C1026 1.523 . S
C1026 C1010 1.368 . S
C1026 C1022 1.368 . S
C1026 C1025 1.523 . S
H1027 C1002 0.950 . S
H1028 C1004 0.950 . S
H1029 C1005 0.949 . S
H1030 C1007 0.950 . S
H1031 C1009 0.950 . S
C1032 C1033 1.349 . S
C1032 C1034 1.327 . S
C1032 H1057 0.950 . S
C1033 C1032 1.349 . S
C1033 C1049 1.349 . S
C1034 C1032 1.327 . S
C1034 C1053 1.429 . S
C1034 H1058 0.950 . S
C1035 C1052 1.574 . S
C1035 C1054 1.368 . S
C1035 H1059 0.949 . S
H1036 C1040 0.949 . S
C1037 C1038 1.349 . S
C1037 C1039 1.327 . S
C1037 H1060 0.950 . S
C1038 C1037 1.349 . S
C1038 C1050 1.349 . S
C1039 C1037 1.327 . S
C1039 C1055 1.429 . S
C1039 H1061 0.950 . S
C1040 H1036 0.949 . S
C1040 C1048 1.574 . S
C1040 C1056 1.368 . S
H1041 C1049 0.950 . S
H1042 C1047 0.950 . S
H1043 C1048 0.949 . S
H1044 C1050 0.950 . S
H1045 C1051 0.950 . S
H1046 C1052 0.949 . S
C1047 H1042 0.950 . S
C1047 C1049 1.327 . S
C1047 C1053 1.429 . S
C1048 C1040 1.574 . S
C1048 H1043 0.949 . S
C1048 C1054 1.368 . S
C1049 C1033 1.349 . S
C1049 H1041 0.950 . S
C1049 C1047 1.327 . S
C1050 C1038 1.349 . S
C1050 H1044 0.950 . S
C1050 C1051 1.327 . S
C1051 H1045 0.950 . S
C1051 C1050 1.327 . S
C1051 C1055 1.429 . S
C1052 C1035 1.574 . S
C1052 H1046 0.949 . S
C1052 C1056 1.368 . S
C1053 C1034 1.429 . S
C1053 C1047 1.429 . S
C1053 C1054 1.523 . S
C1054 C1035 1.368 . S
C1054 C1048 1.368 . S
C1054 C1053 1.523 . S
C1055 C1039 1.429 . S
C1055 C1051 1.429 . S
C1055 C1056 1.523 . S
C1056 C1040 1.368 . S
C1056 C1052 1.368 . S
C1056 C1055 1.523 . S
H1057 C1032 0.950 . S
H1058 C1034 0.950 . S
H1059 C1035 0.949 . S
H1060 C1037 0.950 . S
H1061 C1039 0.950 . S
C1062 C1063 1.349 . S
C1062 C1064 1.327 . S
C1062 H1087 0.950 . S
C1063 C1062 1.349 . S
C1063 C1079 1.349 . S
C1064 C1062 1.327 . S
C1064 C1083 1.429 . S
C1064 H1088 0.950 . S
C1065 C1082 1.574 . S
C1065 C1084 1.368 . S
C1065 H1089 0.949 . S
H1066 C1070 0.949 . S
C1067 C1068 1.349 . S
C1067 C1069 1.327 . S
C1067 H1090 0.950 . S
C1068 C1067 1.349 . S
C1068 C1080 1.349 . S
C1069 C1067 1.327 . S
C1069 C1085 1.429 . S
C1069 H1091 0.950 . S
C1070 H1066 0.949 . S
C1070 C1078 1.574 . S
C1070 C1086 1.368 . S
H1071 C1079 0.950 . S
H1072 C1077 0.950 . S
H1073 C1078 0.949 . S
H1074 C1080 0.950 . S
H1075 C1081 0.950 . S
H1076 C1082 0.949 . S
C1077 H1072 0.950 . S
C1077 C1079 1.327 . S
C1077 C1083 1.429 . S
C1078 C1070 1.574 . S
C1078 H1073 0.949 . S
C1078 C1084 1.368 . S
C1079 C1063 1.349 . S
C1079 H1071 0.950 . S
C1079 C1077 1.327 . S
C1080 C1068 1.349 . S
C1080 H1074 0.950 . S
C1080 C1081 1.327 . S
C1081 H1075 0.950 . S
C1081 C1080 1.327 . S
C1081 C1085 1.429 . S
C1082 C1065 1.574 . S
C1082 H1076 0.949 . S
C1082 C1086 1.368 . S
C1083 C1064 1.429 . S
C1083 C1077 1.429 . S
C1083 C1084 1.523 . S
C1084 C1065 1.368 . S
C1084 C1078 1.368 . S
C1084 C1083 1.523 . S
C1085 C1069 1.429 . S
C1085 C1081 1.429 . S
C1085 C1086 1.523 . S
C1086 C1070 1.368 . S
C1086 C1082 1.368 . S
C1086 C1085 1.523 . S
H1087 C1062 0.950 . S
H1088 C1064 0.950 . S
H1089 C1065 0.949 . S
H1090 C1067 0.950 . S
H1091 C1069 0.950 . S
C1092 C1093 1.349 . S
C1092 C1094 1.327 . S
C1092 H1117 0.950 . S
C1093 C1092 1.349 . S
C1093 C1109 1.349 . S
C1094 C1092 1.327 . S
C1094 C1113 1.429 . S
C1094 H1118 0.950 . S
C1095 C1112 1.574 . S
C1095 C1114 1.368 . S
C1095 H1119 0.949 . S
H1096 C1100 0.949 . S
C1097 C1098 1.349 . S
C1097 C1099 1.327 . S
C1097 H1120 0.950 . S
C1098 C1097 1.349 . S
C1098 C1110 1.349 . S
C1099 C1097 1.327 . S
C1099 C1115 1.429 . S
C1099 H1121 0.950 . S
C1100 H1096 0.949 . S
C1100 C1108 1.574 . S
C1100 C1116 1.368 . S
H1101 C1109 0.950 . S
H1102 C1107 0.950 . S
H1103 C1108 0.949 . S
H1104 C1110 0.950 . S
H1105 C1111 0.950 . S
H1106 C1112 0.949 . S
C1107 H1102 0.950 . S
C1107 C1109 1.327 . S
C1107 C1113 1.429 . S
C1108 C1100 1.574 . S
C1108 H1103 0.949 . S
C1108 C1114 1.368 . S
C1109 C1093 1.349 . S
C1109 H1101 0.950 . S
C1109 C1107 1.327 . S
C1110 C1098 1.349 . S
C1110 H1104 0.950 . S
C1110 C1111 1.327 . S
C1111 H1105 0.950 . S
C1111 C1110 1.327 . S
C1111 C1115 1.429 . S
C1112 C1095 1.574 . S
C1112 H1106 0.949 . S
C1112 C1116 1.368 . S
C1113 C1094 1.429 . S
C1113 C1107 1.429 . S
C1113 C1114 1.523 . S
C1114 C1095 1.368 . S
C1114 C1108 1.368 . S
C1114 C1113 1.523 . S
C1115 C1099 1.429 . S
C1115 C1111 1.429 . S
C1115 C1116 1.523 . S
C1116 C1100 1.368 . S
C1116 C1112 1.368 . S
C1116 C1115 1.523 . S
H1117 C1092 0.950 . S
H1118 C1094 0.950 . S
H1119 C1095 0.949 . S
H1120 C1097 0.950 . S
H1121 C1099 0.950 . S
C1122 C1123 1.349 . S
C1122 C1124 1.327 . S
C1122 H1147 0.950 . S
C1123 C1122 1.349 . S
C1123 C1139 1.349 . S
C1124 C1122 1.327 . S
C1124 C1143 1.429 . S
C1124 H1148 0.950 . S
C1125 C1142 1.574 . S
C1125 C1144 1.368 . S
C1125 H1149 0.949 . S
H1126 C1130 0.949 . S
C1127 C1128 1.349 . S
C1127 C1129 1.327 . S
C1127 H1150 0.950 . S
C1128 C1127 1.349 . S
C1128 C1140 1.349 . S
C1129 C1127 1.327 . S
C1129 C1145 1.429 . S
C1129 H1151 0.950 . S
C1130 H1126 0.949 . S
C1130 C1138 1.574 . S
C1130 C1146 1.368 . S
H1131 C1139 0.950 . S
H1132 C1137 0.950 . S
H1133 C1138 0.949 . S
H1134 C1140 0.950 . S
H1135 C1141 0.950 . S
H1136 C1142 0.949 . S
C1137 H1132 0.950 . S
C1137 C1139 1.327 . S
C1137 C1143 1.429 . S
C1138 C1130 1.574 . S
C1138 H1133 0.949 . S
C1138 C1144 1.368 . S
C1139 C1123 1.349 . S
C1139 H1131 0.950 . S
C1139 C1137 1.327 . S
C1140 C1128 1.349 . S
C1140 H1134 0.950 . S
C1140 C1141 1.327 . S
C1141 H1135 0.950 . S
C1141 C1140 1.327 . S
C1141 C1145 1.429 . S
C1142 C1125 1.574 . S
C1142 H1136 0.949 . S
C1142 C1146 1.368 . S
C1143 C1124 1.429 . S
C1143 C1137 1.429 . S
C1143 C1144 1.523 . S
C1144 C1125 1.368 . S
C1144 C1138 1.368 . S
C1144 C1143 1.523 . S
C1145 C1129 1.429 . S
C1145 C1141 1.429 . S
C1145 C1146 1.523 . S
C1146 C1130 1.368 . S
C1146 C1142 1.368 . S
C1146 C1145 1.523 . S
H1147 C1122 0.950 . S
H1148 C1124 0.950 . S
H1149 C1125 0.949 . S
H1150 C1127 0.950 . S
H1151 C1129 0.950 . S
C433 C81 1.698 . S
C438 C170 1.678 . S
C468 C254 1.678 . S
C463 C93 1.699 . S
C498 C247 1.688 . S
C493 C57 1.690 . S
C523 C69 1.690 . S
C528 C163 1.688 . S
C558 C327 1.678 . S
C553 C33 1.695 . S
C588 C411 1.678 . S
C583 C45 1.694 . S
C613 C9 1.686 . S
C618 C404 1.688 . S
C643 C21 1.685 . S
C648 C320 1.688 . S
C678 C154 1.472 . S
C673 C18 1.627 . S
C708 C238 1.472 . S
C703 C6 1.627 . S
C738 C249 1.432 . S
C733 C42 1.639 . S
C768 C165 1.432 . S
C763 C30 1.639 . S
C798 C333 1.472 . S
C793 C66 1.634 . S
C823 C54 1.635 . S
C828 C417 1.472 . S
C858 C406 1.431 . S
C853 C90 1.645 . S
C883 C78 1.646 . S
C888 C322 1.432 . S
C918 C152 1.559 . S
C913 C4 1.544 . S
C948 C236 1.559 . S
C943 C16 1.544 . S
C973 C28 1.539 . S
C978 C243 1.528 . S
C1008 C159 1.528 . S
C1003 C40 1.539 . S
C1038 C331 1.559 . S
C1033 C52 1.539 . S
C1063 C64 1.539 . S
C1068 C415 1.559 . S
C1093 C76 1.535 . S
C1098 C422 1.528 . S
C1123 C88 1.535 . S
C1128 C338 1.528 . S
