# Generated by pormake.
# Topology rtl, (3,6)-cn, num edge types: 1
# Building blocks:
#     Node 0, Type 0, BuildingBlock: ESEHIV_clean_linker_0, # of connection points: 3
#     Node 1, Type 0, BuildingBlock: ESEHIV_clean_linker_0, # of connection points: 3
#     Node 2, Type 0, BuildingBlock: ESEHIV_clean_linker_0, # of connection points: 3
#     Node 3, Type 0, BuildingBlock: ESEHIV_clean_linker_0, # of connection points: 3
#     Node 4, Type 1, BuildingBlock: FUNLAD_clean_sbu_0, # of connection points: 6
#     Node 5, Type 1, BuildingBlock: FUNLAD_clean_sbu_0, # of connection points: 6
#     Edge 6, Type (0, 1), BuildingBlock: MIFKUJ_clean_linker_0, # of connection points: 2
#     Edge 7, Type (0, 1), BuildingBlock: MIFKUJ_clean_linker_0, # of connection points: 2
#     Edge 8, Type (0, 1), BuildingBlock: MIFKUJ_clean_linker_0, # of connection points: 2
#     Edge 9, Type (0, 1), BuildingBlock: MIFKUJ_clean_linker_0, # of connection points: 2
#     Edge 10, Type (0, 1), BuildingBlock: MIFKUJ_clean_linker_0, # of connection points: 2
#     Edge 11, Type (0, 1), BuildingBlock: MIFKUJ_clean_linker_0, # of connection points: 2
#     Edge 12, Type (0, 1), BuildingBlock: MIFKUJ_clean_linker_0, # of connection points: 2
#     Edge 13, Type (0, 1), BuildingBlock: MIFKUJ_clean_linker_0, # of connection points: 2
#     Edge 14, Type (0, 1), BuildingBlock: MIFKUJ_clean_linker_0, # of connection points: 2
#     Edge 15, Type (0, 1), BuildingBlock: MIFKUJ_clean_linker_0, # of connection points: 2
#     Edge 16, Type (0, 1), BuildingBlock: MIFKUJ_clean_linker_0, # of connection points: 2
#     Edge 17, Type (0, 1), BuildingBlock: MIFKUJ_clean_linker_0, # of connection points: 2
# Relax obj value: 0.027
# Max RMSD: 0.091
# Mean RMSD: 0.077
data_MOF--net-rtl--node1-FUNLAD_clean_sbu_0--node2-ESEHIV_clean_linker_0--edge1-MIFKUJ_clean_linker_0
_symmetry_space_group_name_H-M    P1
_symmetry_Int_Tables_number       1
_symmetry_cell_setting            triclinic
loop_
_symmetry_equiv_pos_as_xyz
'x, y, z'
_cell_length_a     49.571236
_cell_length_b     40.512189
_cell_length_c     28.680179
_cell_angle_alpha  89.996947
_cell_angle_beta   90.992218
_cell_angle_gamma 90.611869
loop_
_atom_site_label
_atom_site_type_symbol
_atom_site_fract_x
_atom_site_fract_y
_atom_site_fract_z
_atom_type_partial_charge
H0 H 0.07985 0.79496 0.01594 0.0
H1 H 0.14309 0.74268 0.08793 0.0
H2 H 0.13737 0.73991 0.93819 0.0
C3 C 0.09745 0.77934 0.01523 0.0
C4 C 0.10733 0.76908 0.97211 0.0
C5 C 0.11031 0.7704 0.05729 0.0
C6 C 0.13246 0.74906 0.05591 0.0
C7 C 0.14214 0.73762 0.01308 0.0
C8 C 0.1295 0.74783 0.97132 0.0
H9 H 0.57644 0.71199 0.51429 0.0
H10 H 0.63338 0.77307 0.44171 0.0
H11 H 0.63425 0.771 0.59167 0.0
C12 C 0.59244 0.73046 0.51506 0.0
C13 C 0.60375 0.74052 0.55804 0.0
C14 C 0.60306 0.74202 0.47296 0.0
C15 C 0.62476 0.76457 0.47412 0.0
C16 C 0.63618 0.77504 0.51682 0.0
C17 C 0.62547 0.76304 0.55861 0.0
H18 H 0.92152 0.2058 0.00793 0.0
H19 H 0.86392 0.26103 0.08568 0.0
H20 H 0.86072 0.262 0.93571 0.0
C21 C 0.90489 0.22294 0.00875 0.0
C22 C 0.89279 0.23333 0.96668 0.0
C23 C 0.89451 0.2326 0.05186 0.0
C24 C 0.87199 0.25332 0.05256 0.0
C25 C 0.85978 0.26419 0.01083 0.0
C26 C 0.87038 0.25423 0.96802 0.0
H27 H 0.42539 0.29393 0.50641 0.0
H28 H 0.37001 0.23353 0.58368 0.0
H29 H 0.37045 0.22889 0.43359 0.0
C30 C 0.40963 0.27518 0.5074 0.0
C31 C 0.39914 0.26249 0.4654 0.0
C32 C 0.39946 0.2647 0.55035 0.0
C33 C 0.37891 0.24054 0.55083 0.0
C34 C 0.36824 0.22748 0.50886 0.0
C35 C 0.37885 0.23821 0.46623 0.0
C36 C 0.02045 0.95691 0.44693 0.0
N37 N 0.06057 0.03248 0.52018 0.0
C38 C 0.08246 0.01256 0.52326 0.0
C39 C 0.10845 0.02617 0.52497 0.0
C40 C 0.11192 0.0606 0.52333 0.0
C41 C 0.08894 0.08054 0.52069 0.0
C42 C 0.06334 0.06591 0.51918 0.0
Zn43 Zn 0.02287 0.01202 0.51571 0.0
C44 C 0.98869 0.04483 0.44307 0.0
N45 N 0.9442 0.96905 0.50537 0.0
C46 C 0.94123 0.93564 0.50462 0.0
C47 C 0.92242 0.9892 0.50445 0.0
C48 C 0.89635 0.97586 0.50335 0.0
C49 C 0.89266 0.94144 0.50321 0.0
C50 C 0.91553 0.92125 0.50351 0.0
Zn51 Zn 0.98193 0.98944 0.50971 0.0
O52 O 0.03639 0.97782 0.46602 0.0
C53 C 0.01604 0.95629 0.58183 0.0
O54 O 0.99571 0.95646 0.45788 0.0
H55 H 0.92524 0.0157 0.50518 0.0
H56 H 0.07979 0.98604 0.5239 0.0
H57 H 0.95884 0.9201 0.50528 0.0
O58 O 0.03284 0.9784 0.56954 0.0
O59 O 0.99284 0.95512 0.56232 0.0
H60 H 0.04566 0.08127 0.51689 0.0
O61 O 0.96877 0.02269 0.56146 0.0
O62 O 0.00893 0.04579 0.56607 0.0
O63 O 0.97153 0.02383 0.45739 0.0
O64 O 0.01231 0.04533 0.46105 0.0
C65 C 0.9846 0.04432 0.57922 0.0
H66 H 0.12564 0.0099 0.52651 0.0
H67 H 0.09071 0.10721 0.52 0.0
H68 H 0.87929 0.99233 0.50372 0.0
H69 H 0.9136 0.8946 0.5028 0.0
C70 C 0.48447 0.45726 0.94619 0.0
N71 N 0.55903 0.46955 0.0152 0.0
C72 C 0.56071 0.43607 0.0144 0.0
C73 C 0.58581 0.42083 0.01451 0.0
C74 C 0.6095 0.44018 0.01553 0.0
C75 C 0.60717 0.47472 0.01626 0.0
C76 C 0.58161 0.48896 0.01611 0.0
Zn77 Zn 0.52168 0.49047 0.01451 0.0
C78 C 0.51747 0.54512 0.94589 0.0
N79 N 0.44337 0.53345 0.01254 0.0
C80 C 0.42095 0.51381 0.0137 0.0
C81 C 0.44143 0.56691 0.01105 0.0
C82 C 0.4162 0.58186 0.01057 0.0
C83 C 0.39269 0.56224 0.01176 0.0
C84 C 0.39529 0.52776 0.01343 0.0
Zn85 Zn 0.48076 0.51266 0.01333 0.0
O86 O 0.50865 0.45726 0.96162 0.0
C87 C 0.48498 0.45791 0.08166 0.0
O88 O 0.468 0.47814 0.96201 0.0
H89 H 0.4595 0.58207 0.01036 0.0
H90 H 0.54252 0.42108 0.01348 0.0
H91 H 0.42295 0.48727 0.01477 0.0
O92 O 0.50866 0.45646 0.06565 0.0
O93 O 0.46887 0.47977 0.06649 0.0
H94 H 0.57981 0.51554 0.01677 0.0
O95 O 0.494 0.54668 0.06477 0.0
O96 O 0.53408 0.52416 0.06749 0.0
O97 O 0.49332 0.54531 0.96005 0.0
O98 O 0.53405 0.52461 0.96325 0.0
C99 C 0.51779 0.54578 0.08189 0.0
H100 H 0.58662 0.39414 0.01317 0.0
H101 H 0.6249 0.49057 0.01752 0.0
H102 H 0.41513 0.60855 0.00991 0.0
H103 H 0.37768 0.51171 0.01388 0.0
H104 H 0.3233 0.23169 0.45322 0.0
H105 H 0.28157 0.19964 0.45838 0.0
H106 H 0.31558 0.14332 0.57224 0.0
H107 H 0.35792 0.17497 0.56659 0.0
H108 H 0.2854 0.10463 0.5081 0.0
H109 H 0.27517 0.20305 0.59801 0.0
H110 H 0.27711 0.26297 0.61287 0.0
H111 H 0.21951 0.27911 0.50188 0.0
H112 H 0.21754 0.21929 0.48586 0.0
H113 H 0.15584 0.04355 0.57708 0.0
H114 H 0.20094 0.0688 0.57701 0.0
H115 H 0.17493 0.13671 0.46983 0.0
H116 H 0.12993 0.11164 0.4697 0.0
H117 H 0.20234 0.16812 0.53773 0.0
H118 H 0.21436 0.07022 0.44505 0.0
H119 H 0.21282 0.01041 0.42908 0.0
H120 H 0.267 0.99325 0.54478 0.0
H121 H 0.26856 0.05296 0.56183 0.0
C122 C 0.32219 0.21201 0.4787 0.0
C123 C 0.34393 0.20582 0.50949 0.0
C124 C 0.29822 0.19393 0.48188 0.0
C125 C 0.29542 0.16945 0.51607 0.0
C126 C 0.31737 0.16224 0.54574 0.0
C127 C 0.34142 0.18042 0.54265 0.0
C128 C 0.26907 0.15261 0.52187 0.0
C129 C 0.26727 0.11836 0.51533 0.0
C130 C 0.24544 0.17071 0.53067 0.0
C131 C 0.24637 0.20669 0.54049 0.0
C132 C 0.26306 0.21939 0.57654 0.0
C133 C 0.26415 0.25334 0.58521 0.0
C134 C 0.24848 0.27484 0.55828 0.0
C135 C 0.23165 0.26243 0.52269 0.0
C136 C 0.23052 0.2285 0.51383 0.0
C137 C 0.15983 0.06368 0.55324 0.0
C138 C 0.13933 0.07565 0.52344 0.0
C139 C 0.18558 0.07808 0.55326 0.0
C140 C 0.19133 0.10447 0.52317 0.0
C141 C 0.17089 0.11645 0.49346 0.0
C142 C 0.14516 0.10217 0.49353 0.0
C143 C 0.21847 0.12014 0.52296 0.0
C144 C 0.22045 0.15427 0.53078 0.0
C145 C 0.2422 0.10188 0.51532 0.0
C146 C 0.24133 0.06601 0.50503 0.0
C147 C 0.22576 0.05366 0.46732 0.0
C148 C 0.22492 0.01979 0.45803 0.0
C149 C 0.23974 0.99804 0.48598 0.0
C150 C 0.25549 0.01013 0.52321 0.0
C151 C 0.25638 0.04398 0.53268 0.0
H152 H 0.23907 0.97182 0.47873 0.0
H153 H 0.24935 0.30112 0.56504 0.0
H154 H 0.15369 0.68361 0.06673 0.0
H155 H 0.19468 0.65038 0.06624 0.0
H156 H 0.22677 0.71184 0.95706 0.0
H157 H 0.18579 0.74481 0.95706 0.0
H158 H 0.23627 0.64894 0.93941 0.0
H159 H 0.24698 0.72082 0.07237 0.0
H160 H 0.23381 0.74581 0.14689 0.0
H161 H 0.23341 0.65023 0.21162 0.0
H162 H 0.24623 0.6246 0.13726 0.0
H163 H 0.37551 0.61428 0.95876 0.0
H164 H 0.33141 0.64061 0.95918 0.0
H165 H 0.30443 0.57133 0.06311 0.0
H166 H 0.34882 0.54533 0.06377 0.0
H167 H 0.29083 0.63435 0.08447 0.0
H168 H 0.28308 0.56316 0.95153 0.0
H169 H 0.29691 0.53906 0.87682 0.0
H170 H 0.29246 0.63437 0.81181 0.0
H171 H 0.27897 0.65915 0.88632 0.0
C172 C 0.16953 0.68999 0.04269 0.0
C173 C 0.16655 0.71679 0.01194 0.0
C174 C 0.19292 0.67104 0.04245 0.0
C175 C 0.21394 0.67886 0.01198 0.0
C176 C 0.2108 0.70529 0.98078 0.0
C177 C 0.18735 0.72407 0.98075 0.0
C178 C 0.23939 0.65986 0.01283 0.0
C179 C 0.24833 0.64603 0.97104 0.0
C180 C 0.25481 0.65536 0.05433 0.0
C181 C 0.24728 0.67076 0.09913 0.0
C182 C 0.24389 0.7051 0.10241 0.0
C183 C 0.23652 0.71938 0.14462 0.0
C184 C 0.2327 0.69961 0.18393 0.0
C185 C 0.23633 0.66551 0.18112 0.0
C186 C 0.24366 0.6511 0.13896 0.0
C187 C 0.36025 0.60475 0.98191 0.0
C188 C 0.36566 0.57772 0.01124 0.0
C189 C 0.33497 0.61963 0.98179 0.0
C190 C 0.31455 0.60769 0.01081 0.0
C191 C 0.31989 0.58082 0.0403 0.0
C192 C 0.34517 0.56585 0.04037 0.0
C193 C 0.28783 0.62379 0.01096 0.0
C194 C 0.27866 0.63706 0.05293 0.0
C195 C 0.27226 0.62792 0.96958 0.0
C196 C 0.28023 0.61305 0.92463 0.0
C197 C 0.28525 0.57903 0.92139 0.0
C198 C 0.29299 0.56524 0.87906 0.0
C199 C 0.29562 0.58518 0.83962 0.0
C200 C 0.29044 0.61895 0.8424 0.0
C201 C 0.28271 0.63288 0.88466 0.0
H202 H 0.30162 0.57446 0.80688 0.0
H203 H 0.22699 0.71071 0.21658 0.0
H204 H 0.6455 0.83127 0.46644 0.0
H205 H 0.68715 0.86435 0.46471 0.0
H206 H 0.72373 0.79933 0.56628 0.0
H207 H 0.68213 0.7666 0.56861 0.0
H208 H 0.73639 0.86151 0.58571 0.0
H209 H 0.73574 0.79259 0.44815 0.0
H210 H 0.71653 0.77053 0.37447 0.0
H211 H 0.71654 0.86797 0.31556 0.0
H212 H 0.7354 0.89068 0.38917 0.0
H213 H 0.87536 0.88841 0.55391 0.0
H214 H 0.83001 0.86445 0.55579 0.0
H215 H 0.80206 0.93765 0.45752 0.0
H216 H 0.84769 0.96116 0.45422 0.0
H217 H 0.78304 0.87671 0.43539 0.0
H218 H 0.78747 0.94472 0.57183 0.0
H219 H 0.80705 0.966 0.64565 0.0
H220 H 0.80043 0.86959 0.70687 0.0
H221 H 0.78115 0.84761 0.63318 0.0
C222 C 0.66243 0.82418 0.48848 0.0
C223 C 0.66063 0.79638 0.51761 0.0
C224 C 0.68619 0.84303 0.48744 0.0
C225 C 0.70866 0.83404 0.51492 0.0
C226 C 0.70662 0.80677 0.54487 0.0
C227 C 0.68284 0.78813 0.54623 0.0
C228 C 0.73464 0.8523 0.51174 0.0
C229 C 0.7467 0.86461 0.5529 0.0
C230 C 0.74775 0.85706 0.46874 0.0
C231 C 0.73671 0.84337 0.42431 0.0
C232 C 0.73148 0.80933 0.41958 0.0
C233 C 0.72067 0.79671 0.37783 0.0
C234 C 0.71524 0.81785 0.3404 0.0
C235 C 0.7207 0.85164 0.34461 0.0
C236 C 0.73147 0.8644 0.38632 0.0
C237 C 0.85965 0.89922 0.53229 0.0
C238 C 0.86513 0.92671 0.50393 0.0
C239 C 0.83367 0.88572 0.53381 0.0
C240 C 0.8126 0.89959 0.50732 0.0
C241 C 0.81802 0.92673 0.47845 0.0
C242 C 0.84404 0.94025 0.47687 0.0
C243 C 0.78498 0.88541 0.50948 0.0
C244 C 0.77261 0.8739 0.46813 0.0
C245 C 0.77163 0.88126 0.55233 0.0
C246 C 0.78305 0.89447 0.59684 0.0
C247 C 0.79036 0.928 0.60092 0.0
C248 C 0.80138 0.9402 0.64276 0.0
C249 C 0.80503 0.91915 0.6809 0.0
C250 C 0.7976 0.88587 0.6773 0.0
C251 C 0.7866 0.87353 0.63551 0.0
H252 H 0.81357 0.92864 0.71326 0.0
H253 H 0.70686 0.80803 0.30811 0.0
H254 H 0.84854 0.32002 0.96071 0.0
H255 H 0.8069 0.35221 0.96114 0.0
H256 H 0.77366 0.28596 0.06348 0.0
H257 H 0.81509 0.25366 0.06302 0.0
H258 H 0.73854 0.29819 0.98905 0.0
H259 H 0.79511 0.35944 0.09713 0.0
H260 H 0.8361 0.38996 0.12241 0.0
H261 H 0.82311 0.46111 0.01356 0.0
H262 H 0.78222 0.43071 0.98719 0.0
H263 H 0.62537 0.38547 0.06413 0.0
H264 H 0.66881 0.35777 0.06171 0.0
H265 H 0.6981 0.43119 0.96557 0.0
H266 H 0.6545 0.45898 0.96746 0.0
H267 H 0.73582 0.41664 0.03266 0.0
H268 H 0.67906 0.3571 0.92531 0.0
H269 H 0.63821 0.32694 0.89854 0.0
H270 H 0.65185 0.25281 0.00308 0.0
H271 H 0.6926 0.28281 0.03097 0.0
C272 C 0.83233 0.31239 0.98328 0.0
C273 C 0.83505 0.28443 0.01196 0.0
C274 C 0.80866 0.33086 0.98369 0.0
C275 C 0.7873 0.32152 0.01253 0.0
C276 C 0.78996 0.29358 0.04106 0.0
C277 C 0.81368 0.27532 0.041 0.0
C278 C 0.76186 0.34038 0.01232 0.0
C279 C 0.73787 0.32398 0.99911 0.0
C280 C 0.76121 0.37428 0.02405 0.0
C281 C 0.78578 0.39258 0.03985 0.0
C282 C 0.80113 0.38141 0.0783 0.0
C283 C 0.82432 0.39872 0.09289 0.0
C284 C 0.83225 0.4274 0.06952 0.0
C285 C 0.81696 0.43886 0.03158 0.0
C286 C 0.79377 0.42161 0.01681 0.0
C287 C 0.64097 0.39564 0.04221 0.0
C288 C 0.63637 0.42427 0.01564 0.0
C289 C 0.66581 0.37982 0.04097 0.0
C290 C 0.68655 0.39217 0.01296 0.0
C291 C 0.68234 0.42124 0.98738 0.0
C292 C 0.65745 0.43713 0.9886 0.0
C293 C 0.71242 0.37431 0.00999 0.0
C294 C 0.73649 0.39088 0.02244 0.0
C295 C 0.7132 0.34058 0.99726 0.0
C296 C 0.68875 0.32238 0.98051 0.0
C297 C 0.67324 0.33451 0.94285 0.0
C298 C 0.65012 0.31742 0.92743 0.0
C299 C 0.6424 0.28802 0.94917 0.0
C300 C 0.65784 0.27561 0.98632 0.0
C301 C 0.68096 0.29264 0.00192 0.0
H302 H 0.6245 0.27482 0.93717 0.0
H303 H 0.8502 0.44078 0.08089 0.0
H304 H 0.09384 0.83371 0.07132 0.0
H305 H 0.08027 0.8593 0.14354 0.0
H306 H 0.09597 0.76876 0.21791 0.0
H307 H 0.10799 0.74199 0.14457 0.0
H308 H 0.05184 0.79571 0.2496 0.0
H309 H 0.1409 0.83394 0.22408 0.0
H310 H 0.17893 0.85732 0.18019 0.0
H311 H 0.136 0.948 0.1616 0.0
H312 H 0.09753 0.925 0.2048 0.0
H313 H 0.07267 0.93916 0.43475 0.0
H314 H 0.09019 0.90097 0.37714 0.0
H315 H 0.00946 0.88426 0.32263 0.0
H316 H 0.99171 0.92133 0.38167 0.0
H317 H 0.09199 0.90493 0.29001 0.0
H318 H 0.00262 0.81048 0.27096 0.0
H319 H 0.96871 0.78381 0.32085 0.0
H320 H 0.02007 0.79931 0.44113 0.0
H321 H 0.05443 0.82564 0.39191 0.0
C322 C 0.09392 0.81885 0.10271 0.0
C323 C 0.10188 0.78562 0.10191 0.0
C324 C 0.08654 0.83377 0.14424 0.0
C325 C 0.0876 0.81618 0.18634 0.0
C326 C 0.09516 0.78287 0.18585 0.0
C327 C 0.10226 0.76771 0.14398 0.0
C328 C 0.08089 0.83302 0.23054 0.0
C329 C 0.0607 0.81949 0.25868 0.0
C330 C 0.09308 0.86355 0.24323 0.0
C331 C 0.11625 0.87765 0.21748 0.0
C332 C 0.1395 0.8588 0.2104 0.0
C333 C 0.16114 0.87199 0.18566 0.0
C334 C 0.15986 0.90411 0.16806 0.0
C335 C 0.13696 0.92312 0.17525 0.0
C336 C 0.11524 0.91004 0.19992 0.0
C337 C 0.05863 0.92712 0.4107 0.0
C338 C 0.03082 0.93326 0.4126 0.0
C339 C 0.06867 0.90529 0.37778 0.0
C340 C 0.05117 0.88942 0.34571 0.0
C341 C 0.02334 0.89552 0.34764 0.0
C342 C 0.01322 0.91693 0.38116 0.0
C343 C 0.06222 0.86822 0.30845 0.0
C344 C 0.08328 0.88096 0.28148 0.0
C345 C 0.05146 0.83649 0.29793 0.0
C346 C 0.03101 0.82029 0.32773 0.0
C347 C 0.00674 0.80805 0.30801 0.0
C348 C 0.98742 0.79302 0.33619 0.0
C349 C 0.9922 0.78995 0.38414 0.0
C350 C 0.01635 0.80181 0.40401 0.0
C351 C 0.03574 0.81683 0.37598 0.0
H352 H 0.97721 0.77834 0.4059 0.0
H353 H 0.17664 0.91427 0.14891 0.0
H354 H 0.55177 0.72907 0.58516 0.0
H355 H 0.53688 0.69927 0.65466 0.0
H356 H 0.61979 0.6874 0.6991 0.0
H357 H 0.6348 0.71654 0.62946 0.0
H358 H 0.59124 0.62945 0.70021 0.0
H359 H 0.58024 0.74072 0.75479 0.0
H360 H 0.5633 0.79768 0.75111 0.0
H361 H 0.48168 0.76109 0.75083 0.0
H362 H 0.49814 0.70386 0.75385 0.0
H363 H 0.56896 0.56099 0.92162 0.0
H364 H 0.58329 0.5979 0.85925 0.0
H365 H 0.50003 0.6176 0.82381 0.0
H366 H 0.48556 0.58163 0.88736 0.0
H367 H 0.52849 0.67237 0.81813 0.0
H368 H 0.5382 0.56193 0.7621 0.0
H369 H 0.55391 0.50449 0.76456 0.0
H370 H 0.63625 0.53834 0.76377 0.0
H371 H 0.62105 0.59614 0.76243 0.0
C372 C 0.56678 0.72025 0.60993 0.0
C373 C 0.59444 0.72519 0.60195 0.0
C374 C 0.55826 0.70346 0.64971 0.0
C375 C 0.57725 0.69132 0.68209 0.0
C376 C 0.60483 0.69668 0.67457 0.0
C377 C 0.61335 0.71356 0.63498 0.0
C378 C 0.56852 0.67142 0.72251 0.0
C379 C 0.57784 0.63897 0.72642 0.0
C380 C 0.55036 0.68358 0.75573 0.0
C381 C 0.54043 0.71799 0.75409 0.0
C382 C 0.55868 0.74481 0.75355 0.0
C383 C 0.54916 0.77715 0.75167 0.0
C384 C 0.52143 0.783 0.75062 0.0
C385 C 0.50315 0.75652 0.75159 0.0
C386 C 0.51257 0.72413 0.75343 0.0
C387 C 0.5537 0.57327 0.90064 0.0
C388 C 0.52613 0.5682 0.90909 0.0
C389 C 0.56192 0.59429 0.86492 0.0
C390 C 0.54273 0.61003 0.83625 0.0
C391 C 0.51519 0.60565 0.84539 0.0
C392 C 0.50695 0.585 0.8816 0.0
C393 C 0.55138 0.63038 0.79607 0.0
C394 C 0.54196 0.66285 0.79204 0.0
C395 C 0.56926 0.61814 0.76235 0.0
C396 C 0.57848 0.58339 0.76262 0.0
C397 C 0.55966 0.55715 0.76278 0.0
C398 C 0.56848 0.52451 0.76393 0.0
C399 C 0.59605 0.51773 0.76432 0.0
C400 C 0.61489 0.54362 0.76351 0.0
C401 C 0.60619 0.57634 0.76258 0.0
H402 H 0.60281 0.49241 0.76518 0.0
H403 H 0.5141 0.80806 0.74916 0.0
H404 H 0.94783 0.22651 0.07647 0.0
H405 H 0.96672 0.19991 0.14619 0.0
H406 H 0.88633 0.18119 0.19585 0.0
H407 H 0.86736 0.20784 0.12643 0.0
H408 H 0.91931 0.19956 0.26635 0.0
H409 H 0.92113 0.12167 0.1401 0.0
H410 H 0.93249 0.10214 0.06147 0.0
H411 H 0.01692 0.11337 0.09445 0.0
H412 H 0.00603 0.13349 0.17308 0.0
H413 H 0.93803 0.05981 0.41193 0.0
H414 H 0.92538 0.09735 0.34873 0.0
H415 H 0.00932 0.11979 0.3256 0.0
H416 H 0.02224 0.08248 0.38939 0.0
H417 H 0.97846 0.10302 0.2434 0.0
H418 H 0.97509 0.17615 0.3742 0.0
H419 H 0.96194 0.1934 0.45297 0.0
H420 H 0.87834 0.1884 0.41157 0.0
H421 H 0.89097 0.17059 0.33271 0.0
C422 C 0.93421 0.21683 0.10238 0.0
C423 C 0.90611 0.2191 0.09586 0.0
C424 C 0.94501 0.20168 0.14218 0.0
C425 C 0.92792 0.18817 0.17592 0.0
C426 C 0.8999 0.1915 0.17032 0.0
C427 C 0.88908 0.20679 0.13066 0.0
C428 C 0.93906 0.16916 0.21591 0.0
C429 C 0.93211 0.17834 0.26131 0.0
C430 C 0.95615 0.14179 0.20938 0.0
C431 C 0.96276 0.12945 0.16227 0.0
C432 C 0.94211 0.12022 0.13046 0.0
C433 C 0.94846 0.10902 0.08591 0.0
C434 C 0.97541 0.10661 0.07293 0.0
C435 C 0.99605 0.11531 0.10452 0.0
C436 C 0.98981 0.12661 0.14909 0.0
C437 C 0.95383 0.07281 0.39355 0.0
C438 C 0.98114 0.06819 0.40559 0.0
C439 C 0.94655 0.09433 0.35759 0.0
C440 C 0.96643 0.11142 0.33276 0.0
C441 C 0.99372 0.10684 0.34452 0.0
C442 C 0.00103 0.08563 0.38099 0.0
C443 C 0.95851 0.13329 0.29365 0.0
C444 C 0.96599 0.12454 0.24841 0.0
C445 C 0.94167 0.16079 0.30032 0.0
C446 C 0.93399 0.17176 0.34762 0.0
C447 C 0.95389 0.17846 0.38198 0.0
C448 C 0.94654 0.18839 0.42664 0.0
C449 C 0.91932 0.19192 0.4373 0.0
C450 C 0.89942 0.18562 0.40327 0.0
C451 C 0.90667 0.17564 0.35856 0.0
H452 H 0.91367 0.1996 0.4719 0.0
H453 H 0.98029 0.09793 0.03843 0.0
H454 H 0.41019 0.23664 0.63586 0.0
H455 H 0.42522 0.26488 0.70762 0.0
H456 H 0.42438 0.3581 0.63498 0.0
H457 H 0.40897 0.33042 0.56391 0.0
H458 H 0.47048 0.35032 0.68615 0.0
H459 H 0.37432 0.33816 0.70548 0.0
H460 H 0.33156 0.30678 0.71028 0.0
H461 H 0.36309 0.25211 0.82697 0.0
H462 H 0.40622 0.28287 0.8224 0.0
H463 H 0.43542 0.45338 0.90139 0.0
H464 H 0.42178 0.4157 0.83858 0.0
H465 H 0.49954 0.36902 0.84684 0.0
H466 H 0.51356 0.407 0.90909 0.0
H467 H 0.41653 0.34971 0.83031 0.0
H468 H 0.51842 0.3494 0.73732 0.0
H469 H 0.559 0.3846 0.72895 0.0
H470 H 0.5119 0.47097 0.75419 0.0
H471 H 0.47109 0.43632 0.76229 0.0
C472 C 0.41308 0.26317 0.63535 0.0
C473 C 0.40866 0.28124 0.59407 0.0
C474 C 0.42172 0.27922 0.67626 0.0
C475 C 0.42596 0.31354 0.67646 0.0
C476 C 0.4215 0.33155 0.63539 0.0
C477 C 0.41281 0.31563 0.59472 0.0
C478 C 0.43492 0.33116 0.71926 0.0
C479 C 0.45882 0.34993 0.71784 0.0
C480 C 0.41953 0.3309 0.76033 0.0
C481 C 0.39359 0.31253 0.76325 0.0
C482 C 0.37221 0.31925 0.73191 0.0
C483 C 0.3479 0.30162 0.73463 0.0
C484 C 0.34464 0.27739 0.76882 0.0
C485 C 0.36566 0.27083 0.80044 0.0
C486 C 0.39004 0.28836 0.79782 0.0
C487 C 0.4496 0.43502 0.88999 0.0
C488 C 0.47568 0.43342 0.90984 0.0
C489 C 0.44171 0.41338 0.85428 0.0
C490 C 0.45973 0.38978 0.83777 0.0
C491 C 0.48545 0.38735 0.85864 0.0
C492 C 0.49342 0.40909 0.8942 0.0
C493 C 0.45203 0.36902 0.79707 0.0
C494 C 0.42843 0.34962 0.79891 0.0
C495 C 0.46742 0.36913 0.75598 0.0
C496 C 0.49181 0.39024 0.75091 0.0
C497 C 0.51676 0.37592 0.741 0.0
C498 C 0.5398 0.39576 0.73634 0.0
C499 C 0.53808 0.42999 0.74122 0.0
C500 C 0.51329 0.44445 0.75065 0.0
C501 C 0.4902 0.42472 0.75535 0.0
H502 H 0.55595 0.44527 0.73754 0.0
H503 H 0.32579 0.26377 0.77087 0.0
H504 H 0.63314 0.71815 0.40218 0.0
H505 H 0.61712 0.68987 0.33172 0.0
H506 H 0.53471 0.70533 0.37205 0.0
H507 H 0.55077 0.73316 0.44331 0.0
H508 H 0.5409 0.64411 0.34759 0.0
H509 H 0.56376 0.74759 0.27898 0.0
H510 H 0.5923 0.79618 0.26196 0.0
H511 H 0.65066 0.73379 0.19823 0.0
H512 H 0.62264 0.68475 0.21545 0.0
H513 H 0.48566 0.58657 0.13171 0.0
H514 H 0.49931 0.62427 0.19457 0.0
H515 H 0.58235 0.59659 0.17799 0.0
H516 H 0.56889 0.5585 0.11521 0.0
H517 H 0.5737 0.66647 0.18804 0.0
H518 H 0.55091 0.56297 0.26203 0.0
H519 H 0.5213 0.51521 0.27838 0.0
H520 H 0.46103 0.58005 0.33112 0.0
H521 H 0.49015 0.62827 0.31439 0.0
C522 C 0.61161 0.71612 0.39555 0.0
C523 C 0.59317 0.72796 0.42808 0.0
C524 C 0.60246 0.69996 0.35523 0.0
C525 C 0.57469 0.6958 0.34626 0.0
C526 C 0.55623 0.70827 0.37823 0.0
C527 C 0.56539 0.72415 0.41885 0.0
C528 C 0.56505 0.67649 0.30515 0.0
C529 C 0.54769 0.64946 0.3126 0.0
C530 C 0.57433 0.68298 0.25957 0.0
C531 C 0.59118 0.71245 0.24887 0.0
C532 C 0.58277 0.74419 0.26163 0.0
C533 C 0.59884 0.77183 0.2519 0.0
C534 C 0.62331 0.76806 0.22912 0.0
C535 C 0.63171 0.73666 0.21591 0.0
C536 C 0.61572 0.70894 0.22559 0.0
C537 C 0.50686 0.58859 0.14125 0.0
C538 C 0.5262 0.56941 0.11872 0.0
C539 C 0.51458 0.61012 0.17716 0.0
C540 C 0.54178 0.61303 0.19092 0.0
C541 C 0.56125 0.59464 0.16772 0.0
C542 C 0.55351 0.5728 0.13211 0.0
C543 C 0.54975 0.6343 0.23081 0.0
C544 C 0.56679 0.66152 0.22307 0.0
C545 C 0.54001 0.62822 0.27606 0.0
C546 C 0.52258 0.59924 0.28648 0.0
C547 C 0.53125 0.56706 0.27673 0.0
C548 C 0.51457 0.53991 0.28613 0.0
C549 C 0.48927 0.5446 0.30564 0.0
C550 C 0.48062 0.57646 0.31593 0.0
C551 C 0.4972 0.60371 0.30652 0.0
H552 H 0.47639 0.52354 0.3129 0.0
H553 H 0.63573 0.78949 0.22164 0.0
H554 H 0.86207 0.20791 0.89519 0.0
H555 H 0.87767 0.18029 0.82495 0.0
H556 H 0.96027 0.19978 0.86691 0.0
H557 H 0.94477 0.22782 0.9372 0.0
H558 H 0.94983 0.20855 0.76951 0.0
H559 H 0.93577 0.12792 0.89065 0.0
H560 H 0.9095 0.09978 0.95141 0.0
H561 H 0.84945 0.07121 0.84906 0.0
H562 H 0.87519 0.09964 0.78777 0.0
H563 H 0.01455 0.0867 0.63396 0.0
H564 H 0.99855 0.12261 0.69584 0.0
H565 H 0.91674 0.09003 0.66749 0.0
H566 H 0.93267 0.05336 0.60646 0.0
H567 H 0.92634 0.08943 0.75719 0.0
H568 H 0.94041 0.168 0.63508 0.0
H569 H 0.96583 0.19669 0.57372 0.0
H570 H 0.02457 0.22977 0.67563 0.0
H571 H 0.99969 0.20088 0.73753 0.0
C572 C 0.88354 0.20696 0.88898 0.0
C573 C 0.90222 0.21993 0.92174 0.0
C574 C 0.89241 0.191 0.84901 0.0
C575 C 0.92011 0.18776 0.84105 0.0
C576 C 0.93881 0.20203 0.87251 0.0
C577 C 0.92995 0.21781 0.91271 0.0
C578 C 0.92949 0.16749 0.80169 0.0
C579 C 0.94497 0.18243 0.76691 0.0
C580 C 0.92262 0.13361 0.79801 0.0
C581 C 0.90727 0.11619 0.83472 0.0
C582 C 0.91686 0.11586 0.88116 0.0
C583 C 0.90209 0.09982 0.91569 0.0
C584 C 0.87778 0.08378 0.90412 0.0
C585 C 0.86826 0.08367 0.85797 0.0
C586 C 0.88294 0.09973 0.82332 0.0
C587 C 0.99313 0.08731 0.64072 0.0
C588 C 0.97488 0.06715 0.61535 0.0
C589 C 0.98399 0.108 0.67596 0.0
C590 C 0.95639 0.10934 0.686 0.0
C591 C 0.93812 0.08942 0.66039 0.0
C592 C 0.94726 0.06851 0.62546 0.0
C593 C 0.94665 0.13042 0.72445 0.0
C594 C 0.93114 0.11559 0.75936 0.0
C595 C 0.95339 0.16443 0.72798 0.0
C596 C 0.9683 0.18202 0.69088 0.0
C597 C 0.95885 0.18119 0.64436 0.0
C598 C 0.97314 0.19752 0.60949 0.0
C599 C 0.99683 0.21498 0.62076 0.0
C600 C 0.00623 0.21621 0.66695 0.0
C601 C 0.99202 0.19989 0.70195 0.0
H602 H 0.00788 0.2276 0.59371 0.0
H603 H 0.86637 0.07138 0.9309 0.0
H604 H 0.42019 0.23238 0.38885 0.0
H605 H 0.43442 0.25927 0.316 0.0
H606 H 0.40933 0.35337 0.36958 0.0
H607 H 0.39573 0.32687 0.44226 0.0
H608 H 0.39157 0.33672 0.27346 0.0
H609 H 0.47125 0.3395 0.37735 0.0
H610 H 0.50625 0.3126 0.42578 0.0
H611 H 0.53144 0.2566 0.3074 0.0
H612 H 0.4963 0.28287 0.25842 0.0
H613 H 0.44711 0.46709 0.14765 0.0
H614 H 0.43229 0.42784 0.20666 0.0
H615 H 0.48683 0.35516 0.15305 0.0
H616 H 0.50292 0.39528 0.09574 0.0
H617 H 0.4889 0.3515 0.24062 0.0
H618 H 0.41526 0.35219 0.13295 0.0
H619 H 0.38009 0.3759 0.08159 0.0
H620 H 0.34233 0.41936 0.20003 0.0
H621 H 0.37749 0.39632 0.25207 0.0
C622 C 0.41773 0.25876 0.38475 0.0
C623 C 0.40716 0.27773 0.42097 0.0
C624 C 0.42581 0.27402 0.34339 0.0
C625 C 0.42286 0.30822 0.33769 0.0
C626 C 0.41167 0.32694 0.37343 0.0
C627 C 0.4041 0.31187 0.41489 0.0
C628 C 0.4321 0.3252 0.29525 0.0
C629 C 0.41281 0.34006 0.26608 0.0
C630 C 0.45976 0.32837 0.285 0.0
C631 C 0.48095 0.31282 0.31441 0.0
C632 C 0.48409 0.32123 0.36177 0.0
C633 C 0.50398 0.30615 0.38929 0.0
C634 C 0.521 0.28282 0.36972 0.0
C635 C 0.51821 0.27462 0.32254 0.0
C636 C 0.49832 0.2896 0.29489 0.0
C637 C 0.45589 0.44272 0.14849 0.0
C638 C 0.47605 0.43411 0.11714 0.0
C639 C 0.44726 0.42016 0.18195 0.0
C640 C 0.45789 0.38813 0.18361 0.0
C641 C 0.47821 0.37961 0.15239 0.0
C642 C 0.48738 0.40251 0.11967 0.0
C643 C 0.44835 0.36408 0.21897 0.0
C644 C 0.46757 0.34778 0.24698 0.0
C645 C 0.42052 0.35899 0.2275 0.0
C646 C 0.39913 0.37266 0.1964 0.0
C647 C 0.39954 0.36695 0.14803 0.0
C648 C 0.3796 0.38026 0.11879 0.0
C649 C 0.35901 0.39916 0.13753 0.0
C650 C 0.35829 0.40472 0.18557 0.0
C651 C 0.3782 0.39149 0.21496 0.0
H652 H 0.3436 0.40947 0.11482 0.0
H653 H 0.5364 0.27118 0.39107 0.0
H654 H 0.09261 0.8326 0.95543 0.0
H655 H 0.07342 0.85583 0.88415 0.0
H656 H 0.07739 0.76072 0.81719 0.0
H657 H 0.09638 0.73692 0.88922 0.0
H658 H 0.096 0.81087 0.76148 0.0
H659 H 0.01746 0.78757 0.84827 0.0
H660 H 0.98852 0.78658 0.91732 0.0
H661 H 0.98758 0.89254 0.91895 0.0
H662 H 0.01685 0.89419 0.85031 0.0
H663 H 0.98513 0.90566 0.61584 0.0
H664 H 0.99782 0.86538 0.67567 0.0
H665 H 0.07631 0.91169 0.68971 0.0
H666 H 0.06399 0.95171 0.62963 0.0
H667 H 0.01096 0.87434 0.76481 0.0
H668 H 0.12331 0.85498 0.71598 0.0
H669 H 0.15082 0.85328 0.6452 0.0
H670 H 0.08074 0.8262 0.56323 0.0
H671 H 0.05288 0.82724 0.63359 0.0
C672 C 0.08902 0.8164 0.92587 0.0
C673 C 0.09566 0.78277 0.92824 0.0
C674 C 0.07813 0.82978 0.88507 0.0
C675 C 0.0736 0.80988 0.84567 0.0
C676 C 0.08063 0.77642 0.84738 0.0
C677 C 0.09151 0.76291 0.88844 0.0
C678 C 0.06202 0.82469 0.80267 0.0
C679 C 0.0773 0.82452 0.76198 0.0
C680 C 0.03729 0.8418 0.80312 0.0
C681 C 0.01948 0.84098 0.84424 0.0
C682 C 0.01123 0.81067 0.86352 0.0
C683 C 0.99475 0.80999 0.90258 0.0
C684 C 0.98625 0.83948 0.92255 0.0
C685 C 0.99418 0.86971 0.90344 0.0
C686 C 0.01068 0.87053 0.86441 0.0
C687 C 0.00514 0.9072 0.63155 0.0
C688 C 0.02356 0.9319 0.61801 0.0
C689 C 0.01234 0.88416 0.6657 0.0
C690 C 0.03811 0.88528 0.6867 0.0
C691 C 0.05649 0.90997 0.67332 0.0
C692 C 0.04934 0.93298 0.6392 0.0
C693 C 0.0455 0.86169 0.72418 0.0
C694 C 0.02943 0.86026 0.76392 0.0
C695 C 0.06926 0.84266 0.7225 0.0
C696 C 0.08597 0.84142 0.68009 0.0
C697 C 0.11379 0.84846 0.68292 0.0
C698 C 0.12944 0.84766 0.64285 0.0
C699 C 0.11752 0.83971 0.59973 0.0
C700 C 0.08993 0.83245 0.59662 0.0
C701 C 0.0742 0.83319 0.63658 0.0
H702 H 0.12967 0.83914 0.56875 0.0
H703 H 0.97349 0.8389 0.95279 0.0
loop_
_geom_bond_atom_site_label_1
_geom_bond_atom_site_label_2
_geom_bond_distance
_geom_bond_site_symmetry_2
_ccdc_geom_bond_type
H0 C3 0.931 . S
H1 C6 0.928 . S
H2 C8 0.930 . S
C3 H0 0.931 . S
C3 C4 1.413 1_554 S
C3 C5 1.360 . S
C4 C3 1.413 1_556 S
C4 C8 1.429 . S
C5 C3 1.360 . S
C5 C6 1.372 . S
C6 H1 0.928 . S
C6 C5 1.372 . S
C6 C7 1.404 . S
C7 C6 1.404 . S
C7 C8 1.391 1_554 S
C8 H2 0.930 . S
C8 C4 1.429 . S
C8 C7 1.391 1_556 S
H9 C12 0.931 . S
H10 C15 0.928 . S
H11 C17 0.930 . S
C12 H9 0.931 . S
C12 C13 1.413 . S
C12 C14 1.360 . S
C13 C12 1.413 . S
C13 C17 1.429 . S
C14 C12 1.360 . S
C14 C15 1.372 . S
C15 H10 0.928 . S
C15 C14 1.372 . S
C15 C16 1.404 . S
C16 C15 1.404 . S
C16 C17 1.391 . S
C17 H11 0.930 . S
C17 C13 1.429 . S
C17 C16 1.391 . S
H18 C21 0.931 . S
H19 C24 0.928 . S
H20 C26 0.930 . S
C21 H18 0.931 . S
C21 C22 1.413 1_554 S
C21 C23 1.360 . S
C22 C21 1.413 1_556 S
C22 C26 1.429 . S
C23 C21 1.360 . S
C23 C24 1.372 . S
C24 H19 0.928 . S
C24 C23 1.372 . S
C24 C25 1.404 . S
C25 C24 1.404 . S
C25 C26 1.391 1_554 S
C26 H20 0.930 . S
C26 C22 1.429 . S
C26 C25 1.391 1_556 S
H27 C30 0.931 . S
H28 C33 0.928 . S
H29 C35 0.930 . S
C30 H27 0.931 . S
C30 C31 1.413 . S
C30 C32 1.360 . S
C31 C30 1.413 . S
C31 C35 1.429 . S
C32 C30 1.360 . S
C32 C33 1.372 . S
C33 H28 0.928 . S
C33 C32 1.372 . S
C33 C34 1.404 . S
C34 C33 1.404 . S
C34 C35 1.391 . S
C35 H29 0.930 . S
C35 C31 1.429 . S
C35 C34 1.391 . S
C36 O52 1.251 . S
C36 O54 1.254 1_455 S
N37 C38 1.333 . S
N37 C42 1.307 . S
N37 Zn43 2.020 . S
C38 N37 1.333 . S
C38 C39 1.379 . S
C38 H56 0.952 . S
C39 C38 1.379 . S
C39 C40 1.390 . S
C39 H66 0.949 . S
C40 C39 1.390 . S
C40 C41 1.357 . S
C41 C40 1.357 . S
C41 C42 1.370 . S
C41 H67 0.950 . S
C42 N37 1.307 . S
C42 C41 1.370 . S
C42 H60 0.948 . S
Zn43 N37 2.020 . S
Zn43 O52 2.039 1_545 S
Zn43 O58 2.034 1_545 S
Zn43 O62 2.025 . S
Zn43 O64 2.024 . S
C44 O63 1.246 . S
C44 O64 1.249 1_655 S
N45 C46 1.307 . S
N45 C47 1.333 . S
N45 Zn51 2.020 . S
C46 N45 1.307 . S
C46 C50 1.370 . S
C46 H57 0.948 . S
C47 N45 1.333 . S
C47 C48 1.379 . S
C47 H55 0.952 . S
C48 C47 1.379 . S
C48 C49 1.390 . S
C48 H68 0.949 . S
C49 C48 1.390 . S
C49 C50 1.357 . S
C50 C46 1.370 . S
C50 C49 1.357 . S
C50 H69 0.950 . S
Zn51 N45 2.020 . S
Zn51 O54 2.025 . S
Zn51 O59 2.024 . S
Zn51 O61 2.039 1_565 S
Zn51 O63 2.034 1_565 S
O52 C36 1.251 . S
O52 Zn43 2.039 1_565 S
C53 O58 1.246 . S
C53 O59 1.249 1_455 S
O54 C36 1.254 1_655 S
O54 Zn51 2.025 . S
H55 C47 0.952 . S
H56 C38 0.952 . S
H57 C46 0.948 . S
O58 Zn43 2.034 1_565 S
O58 C53 1.246 . S
O59 Zn51 2.024 . S
O59 C53 1.249 1_655 S
H60 C42 0.948 . S
O61 Zn51 2.039 1_545 S
O61 C65 1.251 . S
O62 Zn43 2.025 . S
O62 C65 1.254 1_455 S
O63 C44 1.246 . S
O63 Zn51 2.034 1_545 S
O64 Zn43 2.024 . S
O64 C44 1.249 1_455 S
C65 O61 1.251 . S
C65 O62 1.254 1_655 S
H66 C39 0.949 . S
H67 C41 0.950 . S
H68 C48 0.949 . S
H69 C50 0.950 . S
C70 O86 1.251 . S
C70 O88 1.254 . S
N71 C72 1.333 . S
N71 C76 1.307 . S
N71 Zn77 2.020 . S
C72 N71 1.333 . S
C72 C73 1.379 1_554 S
C72 H90 0.951 1_554 S
C73 C72 1.379 1_556 S
C73 C74 1.390 1_556 S
C73 H100 0.949 . S
C74 C73 1.390 1_554 S
C74 C75 1.357 . S
C75 C74 1.357 . S
C75 C76 1.370 . S
C75 H101 0.950 . S
C76 N71 1.307 . S
C76 C75 1.370 . S
C76 H94 0.948 . S
Zn77 N71 2.020 . S
Zn77 O86 2.039 1_554 S
Zn77 O92 2.034 . S
Zn77 O96 2.025 . S
Zn77 O98 2.024 1_554 S
C78 O97 1.246 . S
C78 O98 1.249 . S
N79 C80 1.307 . S
N79 C81 1.333 . S
N79 Zn85 2.020 . S
C80 N79 1.307 . S
C80 C84 1.370 . S
C80 H91 0.948 1_554 S
C81 N79 1.333 . S
C81 C82 1.379 . S
C81 H89 0.952 . S
C82 C81 1.379 . S
C82 C83 1.390 . S
C82 H102 0.949 . S
C83 C82 1.390 . S
C83 C84 1.357 . S
C84 C80 1.370 . S
C84 C83 1.357 . S
C84 H103 0.950 1_554 S
Zn85 N79 2.020 . S
Zn85 O88 2.025 1_554 S
Zn85 O93 2.024 . S
Zn85 O95 2.039 . S
Zn85 O97 2.034 1_554 S
O86 C70 1.251 . S
O86 Zn77 2.039 1_556 S
C87 O92 1.246 . S
C87 O93 1.249 . S
O88 C70 1.254 . S
O88 Zn85 2.025 1_556 S
H89 C81 0.952 . S
H90 C72 0.951 1_556 S
H91 C80 0.948 1_556 S
O92 Zn77 2.034 . S
O92 C87 1.246 . S
O93 Zn85 2.024 . S
O93 C87 1.249 . S
H94 C76 0.948 . S
O95 Zn85 2.039 . S
O95 C99 1.251 . S
O96 Zn77 2.025 . S
O96 C99 1.254 . S
O97 C78 1.246 . S
O97 Zn85 2.034 1_556 S
O98 Zn77 2.024 1_556 S
O98 C78 1.249 . S
C99 O95 1.251 . S
C99 O96 1.254 . S
H100 C73 0.949 . S
H101 C75 0.950 . S
H102 C82 0.949 . S
H103 C84 0.950 1_556 S
H104 C122 0.951 . S
H105 C124 0.951 . S
H106 C126 0.950 . S
H107 C127 0.950 . S
H108 C129 0.950 . S
H109 C132 0.950 . S
H110 C133 0.950 . S
H111 C135 0.950 . S
H112 C136 0.950 . S
H113 C137 0.951 . S
H114 C139 0.951 . S
H115 C141 0.950 . S
H116 C142 0.950 . S
H117 C144 0.950 . S
H118 C147 0.950 . S
H119 C148 0.950 . S
H120 C150 0.950 . S
H121 C151 0.950 . S
C122 H104 0.951 . S
C122 C123 1.366 . S
C122 C124 1.388 . S
C123 C122 1.366 . S
C123 C127 1.385 . S
C124 H105 0.951 . S
C124 C122 1.388 . S
C124 C125 1.366 . S
C125 C124 1.366 . S
C125 C126 1.414 . S
C125 C128 1.499 . S
C126 H106 0.950 . S
C126 C125 1.414 . S
C126 C127 1.374 . S
C127 H107 0.950 . S
C127 C123 1.385 . S
C127 C126 1.374 . S
C128 C125 1.499 . S
C128 C129 1.373 . S
C128 C130 1.389 . S
C129 H108 0.950 . S
C129 C128 1.373 . S
C129 C145 1.377 . S
C130 C128 1.389 . S
C130 C131 1.524 . S
C130 C144 1.377 . S
C131 C130 1.524 . S
C131 C132 1.397 . S
C131 C136 1.363 . S
C132 H109 0.950 . S
C132 C131 1.397 . S
C132 C133 1.334 . S
C133 H110 0.950 . S
C133 C132 1.334 . S
C133 C134 1.287 . S
C134 C133 1.287 . S
C134 C135 1.524 . S
C134 H153 0.913 . S
C135 H111 0.950 . S
C135 C134 1.524 . S
C135 C136 1.415 . S
C136 H112 0.950 . S
C136 C131 1.363 . S
C136 C135 1.415 . S
C137 H113 0.951 . S
C137 C138 1.366 . S
C137 C139 1.388 . S
C138 C137 1.366 . S
C138 C142 1.385 . S
C139 H114 0.951 . S
C139 C137 1.388 . S
C139 C140 1.366 . S
C140 C139 1.366 . S
C140 C141 1.414 . S
C140 C143 1.499 . S
C141 H115 0.950 . S
C141 C140 1.414 . S
C141 C142 1.374 . S
C142 H116 0.950 . S
C142 C138 1.385 . S
C142 C141 1.374 . S
C143 C140 1.499 . S
C143 C144 1.373 . S
C143 C145 1.389 . S
C144 H117 0.950 . S
C144 C130 1.377 . S
C144 C143 1.373 . S
C145 C129 1.377 . S
C145 C143 1.389 . S
C145 C146 1.524 . S
C146 C145 1.524 . S
C146 C147 1.397 . S
C146 C151 1.363 . S
C147 H118 0.950 . S
C147 C146 1.397 . S
C147 C148 1.334 . S
C148 H119 0.950 . S
C148 C147 1.334 . S
C148 C149 1.287 . S
C149 C148 1.287 . S
C149 C150 1.524 . S
C149 H152 0.999 1_545 S
C150 H120 0.950 . S
C150 C149 1.524 . S
C150 C151 1.415 . S
C151 H121 0.950 . S
C151 C146 1.363 . S
C151 C150 1.415 . S
H152 C149 0.999 1_565 S
H153 C134 0.913 . S
H154 C172 0.951 . S
H155 C174 0.951 . S
H156 C176 0.950 . S
H157 C177 0.950 . S
H158 C179 0.950 . S
H159 C182 0.950 . S
H160 C183 0.950 . S
H161 C185 0.950 . S
H162 C186 0.950 . S
H163 C187 0.951 . S
H164 C189 0.951 . S
H165 C191 0.950 . S
H166 C192 0.950 . S
H167 C194 0.950 . S
H168 C197 0.950 . S
H169 C198 0.950 . S
H170 C200 0.950 . S
H171 C201 0.950 . S
C172 H154 0.951 . S
C172 C173 1.366 . S
C172 C174 1.388 . S
C173 C172 1.366 . S
C173 C177 1.385 1_554 S
C174 H155 0.951 . S
C174 C172 1.388 . S
C174 C175 1.366 . S
C175 C174 1.366 . S
C175 C176 1.414 1_554 S
C175 C178 1.499 . S
C176 H156 0.950 . S
C176 C175 1.414 1_556 S
C176 C177 1.374 . S
C177 H157 0.950 . S
C177 C173 1.385 1_556 S
C177 C176 1.374 . S
C178 C175 1.499 . S
C178 C179 1.373 1_554 S
C178 C180 1.389 . S
C179 H158 0.950 . S
C179 C178 1.373 1_556 S
C179 C195 1.377 . S
C180 C178 1.389 . S
C180 C181 1.524 . S
C180 C194 1.377 . S
C181 C180 1.524 . S
C181 C182 1.397 . S
C181 C186 1.363 . S
C182 H159 0.950 . S
C182 C181 1.397 . S
C182 C183 1.334 . S
C183 H160 0.950 . S
C183 C182 1.334 . S
C183 C184 1.287 . S
C184 C183 1.287 . S
C184 C185 1.524 . S
C184 H203 0.913 . S
C185 H161 0.950 . S
C185 C184 1.524 . S
C185 C186 1.415 . S
C186 H162 0.950 . S
C186 C181 1.363 . S
C186 C185 1.415 . S
C187 H163 0.951 . S
C187 C188 1.366 1_556 S
C187 C189 1.388 . S
C188 C187 1.366 1_554 S
C188 C192 1.385 . S
C189 H164 0.951 . S
C189 C187 1.388 . S
C189 C190 1.366 1_556 S
C190 C189 1.366 1_554 S
C190 C191 1.414 . S
C190 C193 1.499 . S
C191 H165 0.950 . S
C191 C190 1.414 . S
C191 C192 1.374 . S
C192 H166 0.950 . S
C192 C188 1.385 . S
C192 C191 1.374 . S
C193 C190 1.499 . S
C193 C194 1.373 . S
C193 C195 1.389 1_554 S
C194 H167 0.950 . S
C194 C180 1.377 . S
C194 C193 1.373 . S
C195 C179 1.377 . S
C195 C193 1.389 1_556 S
C195 C196 1.524 . S
C196 C195 1.524 . S
C196 C197 1.397 . S
C196 C201 1.363 . S
C197 H168 0.950 . S
C197 C196 1.397 . S
C197 C198 1.334 . S
C198 H169 0.950 . S
C198 C197 1.334 . S
C198 C199 1.287 . S
C199 C198 1.287 . S
C199 C200 1.524 . S
C199 H202 0.999 . S
C200 H170 0.950 . S
C200 C199 1.524 . S
C200 C201 1.415 . S
C201 H171 0.950 . S
C201 C196 1.363 . S
C201 C200 1.415 . S
H202 C199 0.999 . S
H203 C184 0.913 . S
H204 C222 0.951 . S
H205 C224 0.951 . S
H206 C226 0.950 . S
H207 C227 0.950 . S
H208 C229 0.950 . S
H209 C232 0.950 . S
H210 C233 0.950 . S
H211 C235 0.950 . S
H212 C236 0.950 . S
H213 C237 0.951 . S
H214 C239 0.951 . S
H215 C241 0.950 . S
H216 C242 0.950 . S
H217 C244 0.950 . S
H218 C247 0.950 . S
H219 C248 0.950 . S
H220 C250 0.950 . S
H221 C251 0.950 . S
C222 H204 0.951 . S
C222 C223 1.366 . S
C222 C224 1.388 . S
C223 C222 1.366 . S
C223 C227 1.385 . S
C224 H205 0.951 . S
C224 C222 1.388 . S
C224 C225 1.366 . S
C225 C224 1.366 . S
C225 C226 1.414 . S
C225 C228 1.499 . S
C226 H206 0.950 . S
C226 C225 1.414 . S
C226 C227 1.374 . S
C227 H207 0.950 . S
C227 C223 1.385 . S
C227 C226 1.374 . S
C228 C225 1.499 . S
C228 C229 1.373 . S
C228 C230 1.389 . S
C229 H208 0.950 . S
C229 C228 1.373 . S
C229 C245 1.377 . S
C230 C228 1.389 . S
C230 C231 1.524 . S
C230 C244 1.377 . S
C231 C230 1.524 . S
C231 C232 1.397 . S
C231 C236 1.363 . S
C232 H209 0.950 . S
C232 C231 1.397 . S
C232 C233 1.334 . S
C233 H210 0.950 . S
C233 C232 1.334 . S
C233 C234 1.287 . S
C234 C233 1.287 . S
C234 C235 1.524 . S
C234 H253 0.913 . S
C235 H211 0.950 . S
C235 C234 1.524 . S
C235 C236 1.415 . S
C236 H212 0.950 . S
C236 C231 1.363 . S
C236 C235 1.415 . S
C237 H213 0.951 . S
C237 C238 1.366 . S
C237 C239 1.388 . S
C238 C237 1.366 . S
C238 C242 1.385 . S
C239 H214 0.951 . S
C239 C237 1.388 . S
C239 C240 1.366 . S
C240 C239 1.366 . S
C240 C241 1.414 . S
C240 C243 1.499 . S
C241 H215 0.950 . S
C241 C240 1.414 . S
C241 C242 1.374 . S
C242 H216 0.950 . S
C242 C238 1.385 . S
C242 C241 1.374 . S
C243 C240 1.499 . S
C243 C244 1.373 . S
C243 C245 1.389 . S
C244 H217 0.950 . S
C244 C230 1.377 . S
C244 C243 1.373 . S
C245 C229 1.377 . S
C245 C243 1.389 . S
C245 C246 1.524 . S
C246 C245 1.524 . S
C246 C247 1.397 . S
C246 C251 1.363 . S
C247 H218 0.950 . S
C247 C246 1.397 . S
C247 C248 1.334 . S
C248 H219 0.950 . S
C248 C247 1.334 . S
C248 C249 1.287 . S
C249 C248 1.287 . S
C249 C250 1.524 . S
C249 H252 0.999 . S
C250 H220 0.950 . S
C250 C249 1.524 . S
C250 C251 1.415 . S
C251 H221 0.950 . S
C251 C246 1.363 . S
C251 C250 1.415 . S
H252 C249 0.999 . S
H253 C234 0.913 . S
H254 C272 0.951 . S
H255 C274 0.951 . S
H256 C276 0.950 . S
H257 C277 0.950 . S
H258 C279 0.950 . S
H259 C282 0.950 . S
H260 C283 0.950 . S
H261 C285 0.950 . S
H262 C286 0.950 . S
H263 C287 0.951 . S
H264 C289 0.951 . S
H265 C291 0.950 . S
H266 C292 0.950 . S
H267 C294 0.950 . S
H268 C297 0.950 . S
H269 C298 0.950 . S
H270 C300 0.950 . S
H271 C301 0.950 . S
C272 H254 0.951 . S
C272 C273 1.366 . S
C272 C274 1.388 . S
C273 C272 1.366 . S
C273 C277 1.385 . S
C274 H255 0.951 . S
C274 C272 1.388 . S
C274 C275 1.366 . S
C275 C274 1.366 . S
C275 C276 1.414 . S
C275 C278 1.499 . S
C276 H256 0.950 . S
C276 C275 1.414 . S
C276 C277 1.374 . S
C277 H257 0.950 . S
C277 C273 1.385 . S
C277 C276 1.374 . S
C278 C275 1.499 . S
C278 C279 1.373 1_554 S
C278 C280 1.389 . S
C279 H258 0.950 . S
C279 C278 1.373 1_556 S
C279 C295 1.377 . S
C280 C278 1.389 . S
C280 C281 1.524 . S
C280 C294 1.377 . S
C281 C280 1.524 . S
C281 C282 1.397 . S
C281 C286 1.363 . S
C282 H259 0.950 . S
C282 C281 1.397 . S
C282 C283 1.334 . S
C283 H260 0.950 . S
C283 C282 1.334 . S
C283 C284 1.287 . S
C284 C283 1.287 . S
C284 C285 1.524 . S
C284 H303 0.913 . S
C285 H261 0.950 . S
C285 C284 1.524 . S
C285 C286 1.415 . S
C286 H262 0.950 . S
C286 C281 1.363 . S
C286 C285 1.415 . S
C287 H263 0.951 . S
C287 C288 1.366 . S
C287 C289 1.388 . S
C288 C287 1.366 . S
C288 C292 1.385 . S
C289 H264 0.951 . S
C289 C287 1.388 . S
C289 C290 1.366 . S
C290 C289 1.366 . S
C290 C291 1.414 . S
C290 C293 1.499 . S
C291 H265 0.950 . S
C291 C290 1.414 . S
C291 C292 1.374 . S
C292 H266 0.950 . S
C292 C288 1.385 . S
C292 C291 1.374 . S
C293 C290 1.499 . S
C293 C294 1.373 . S
C293 C295 1.389 1_554 S
C294 H267 0.950 . S
C294 C280 1.377 . S
C294 C293 1.373 . S
C295 C279 1.377 . S
C295 C293 1.389 1_556 S
C295 C296 1.524 . S
C296 C295 1.524 . S
C296 C297 1.397 . S
C296 C301 1.363 . S
C297 H268 0.950 . S
C297 C296 1.397 . S
C297 C298 1.334 . S
C298 H269 0.950 . S
C298 C297 1.334 . S
C298 C299 1.287 . S
C299 C298 1.287 . S
C299 C300 1.524 . S
C299 H302 0.999 . S
C300 H270 0.950 . S
C300 C299 1.524 . S
C300 C301 1.415 . S
C301 H271 0.950 . S
C301 C296 1.363 . S
C301 C300 1.415 . S
H302 C299 0.999 . S
H303 C284 0.913 . S
H304 C322 0.951 . S
H305 C324 0.951 . S
H306 C326 0.950 . S
H307 C327 0.950 . S
H308 C329 0.950 . S
H309 C332 0.950 . S
H310 C333 0.950 . S
H311 C335 0.950 . S
H312 C336 0.950 . S
H313 C337 0.951 . S
H314 C339 0.951 . S
H315 C341 0.950 . S
H316 C342 0.950 . S
H317 C344 0.950 . S
H318 C347 0.950 1_655 S
H319 C348 0.950 . S
H320 C350 0.950 . S
H321 C351 0.950 . S
C322 H304 0.951 . S
C322 C323 1.366 . S
C322 C324 1.388 . S
C323 C322 1.366 . S
C323 C327 1.385 . S
C324 H305 0.951 . S
C324 C322 1.388 . S
C324 C325 1.366 . S
C325 C324 1.366 . S
C325 C326 1.414 . S
C325 C328 1.499 . S
C326 H306 0.950 . S
C326 C325 1.414 . S
C326 C327 1.374 . S
C327 H307 0.950 . S
C327 C323 1.385 . S
C327 C326 1.374 . S
C328 C325 1.499 . S
C328 C329 1.373 . S
C328 C330 1.389 . S
C329 H308 0.950 . S
C329 C328 1.373 . S
C329 C345 1.377 . S
C330 C328 1.389 . S
C330 C331 1.524 . S
C330 C344 1.377 . S
C331 C330 1.524 . S
C331 C332 1.397 . S
C331 C336 1.363 . S
C332 H309 0.950 . S
C332 C331 1.397 . S
C332 C333 1.334 . S
C333 H310 0.950 . S
C333 C332 1.334 . S
C333 C334 1.287 . S
C334 C333 1.287 . S
C334 C335 1.524 . S
C334 H353 0.913 . S
C335 H311 0.950 . S
C335 C334 1.524 . S
C335 C336 1.415 . S
C336 H312 0.950 . S
C336 C331 1.363 . S
C336 C335 1.415 . S
C337 H313 0.951 . S
C337 C338 1.366 . S
C337 C339 1.388 . S
C338 C337 1.366 . S
C338 C342 1.385 . S
C339 H314 0.951 . S
C339 C337 1.388 . S
C339 C340 1.366 . S
C340 C339 1.366 . S
C340 C341 1.414 . S
C340 C343 1.499 . S
C341 H315 0.950 . S
C341 C340 1.414 . S
C341 C342 1.374 . S
C342 H316 0.950 . S
C342 C338 1.385 . S
C342 C341 1.374 . S
C343 C340 1.499 . S
C343 C344 1.373 . S
C343 C345 1.389 . S
C344 H317 0.950 . S
C344 C330 1.377 . S
C344 C343 1.373 . S
C345 C329 1.377 . S
C345 C343 1.389 . S
C345 C346 1.524 . S
C346 C345 1.524 . S
C346 C347 1.397 . S
C346 C351 1.363 . S
C347 H318 0.950 1_455 S
C347 C346 1.397 . S
C347 C348 1.334 1_455 S
C348 H319 0.950 . S
C348 C347 1.334 1_655 S
C348 C349 1.287 . S
C349 C348 1.287 . S
C349 C350 1.524 1_655 S
C349 H352 0.999 . S
C350 H320 0.950 . S
C350 C349 1.524 1_455 S
C350 C351 1.415 . S
C351 H321 0.950 . S
C351 C346 1.363 . S
C351 C350 1.415 . S
H352 C349 0.999 . S
H353 C334 0.913 . S
H354 C372 0.951 . S
H355 C374 0.951 . S
H356 C376 0.950 . S
H357 C377 0.950 . S
H358 C379 0.950 . S
H359 C382 0.950 . S
H360 C383 0.950 . S
H361 C385 0.950 . S
H362 C386 0.950 . S
H363 C387 0.951 . S
H364 C389 0.951 . S
H365 C391 0.950 . S
H366 C392 0.950 . S
H367 C394 0.950 . S
H368 C397 0.950 . S
H369 C398 0.950 . S
H370 C400 0.950 . S
H371 C401 0.950 . S
C372 H354 0.951 . S
C372 C373 1.366 . S
C372 C374 1.388 . S
C373 C372 1.366 . S
C373 C377 1.385 . S
C374 H355 0.951 . S
C374 C372 1.388 . S
C374 C375 1.366 . S
C375 C374 1.366 . S
C375 C376 1.414 . S
C375 C378 1.499 . S
C376 H356 0.950 . S
C376 C375 1.414 . S
C376 C377 1.374 . S
C377 H357 0.950 . S
C377 C373 1.385 . S
C377 C376 1.374 . S
C378 C375 1.499 . S
C378 C379 1.373 . S
C378 C380 1.389 . S
C379 H358 0.950 . S
C379 C378 1.373 . S
C379 C395 1.377 . S
C380 C378 1.389 . S
C380 C381 1.524 . S
C380 C394 1.377 . S
C381 C380 1.524 . S
C381 C382 1.397 . S
C381 C386 1.363 . S
C382 H359 0.950 . S
C382 C381 1.397 . S
C382 C383 1.334 . S
C383 H360 0.950 . S
C383 C382 1.334 . S
C383 C384 1.287 . S
C384 C383 1.287 . S
C384 C385 1.524 . S
C384 H403 0.913 . S
C385 H361 0.950 . S
C385 C384 1.524 . S
C385 C386 1.415 . S
C386 H362 0.950 . S
C386 C381 1.363 . S
C386 C385 1.415 . S
C387 H363 0.951 . S
C387 C388 1.366 . S
C387 C389 1.388 . S
C388 C387 1.366 . S
C388 C392 1.385 . S
C389 H364 0.951 . S
C389 C387 1.388 . S
C389 C390 1.366 . S
C390 C389 1.366 . S
C390 C391 1.414 . S
C390 C393 1.499 . S
C391 H365 0.950 . S
C391 C390 1.414 . S
C391 C392 1.374 . S
C392 H366 0.950 . S
C392 C388 1.385 . S
C392 C391 1.374 . S
C393 C390 1.499 . S
C393 C394 1.373 . S
C393 C395 1.389 . S
C394 H367 0.950 . S
C394 C380 1.377 . S
C394 C393 1.373 . S
C395 C379 1.377 . S
C395 C393 1.389 . S
C395 C396 1.524 . S
C396 C395 1.524 . S
C396 C397 1.397 . S
C396 C401 1.363 . S
C397 H368 0.950 . S
C397 C396 1.397 . S
C397 C398 1.334 . S
C398 H369 0.950 . S
C398 C397 1.334 . S
C398 C399 1.287 . S
C399 C398 1.287 . S
C399 C400 1.524 . S
C399 H402 0.999 . S
C400 H370 0.950 . S
C400 C399 1.524 . S
C400 C401 1.415 . S
C401 H371 0.950 . S
C401 C396 1.363 . S
C401 C400 1.415 . S
H402 C399 0.999 . S
H403 C384 0.913 . S
H404 C422 0.951 . S
H405 C424 0.951 . S
H406 C426 0.950 . S
H407 C427 0.950 . S
H408 C429 0.950 . S
H409 C432 0.950 . S
H410 C433 0.950 . S
H411 C435 0.950 . S
H412 C436 0.950 . S
H413 C437 0.951 . S
H414 C439 0.951 . S
H415 C441 0.950 . S
H416 C442 0.950 1_455 S
H417 C444 0.950 . S
H418 C447 0.950 . S
H419 C448 0.950 . S
H420 C450 0.950 . S
H421 C451 0.950 . S
C422 H404 0.951 . S
C422 C423 1.366 . S
C422 C424 1.388 . S
C423 C422 1.366 . S
C423 C427 1.385 . S
C424 H405 0.951 . S
C424 C422 1.388 . S
C424 C425 1.366 . S
C425 C424 1.366 . S
C425 C426 1.414 . S
C425 C428 1.499 . S
C426 H406 0.950 . S
C426 C425 1.414 . S
C426 C427 1.374 . S
C427 H407 0.950 . S
C427 C423 1.385 . S
C427 C426 1.374 . S
C428 C425 1.499 . S
C428 C429 1.373 . S
C428 C430 1.389 . S
C429 H408 0.950 . S
C429 C428 1.373 . S
C429 C445 1.377 . S
C430 C428 1.389 . S
C430 C431 1.524 . S
C430 C444 1.377 . S
C431 C430 1.524 . S
C431 C432 1.397 . S
C431 C436 1.363 . S
C432 H409 0.950 . S
C432 C431 1.397 . S
C432 C433 1.334 . S
C433 H410 0.950 . S
C433 C432 1.334 . S
C433 C434 1.287 . S
C434 C433 1.287 . S
C434 C435 1.524 . S
C434 H453 0.913 . S
C435 H411 0.950 . S
C435 C434 1.524 . S
C435 C436 1.415 . S
C436 H412 0.950 . S
C436 C431 1.363 . S
C436 C435 1.415 . S
C437 H413 0.951 . S
C437 C438 1.366 . S
C437 C439 1.388 . S
C438 C437 1.366 . S
C438 C442 1.385 . S
C439 H414 0.951 . S
C439 C437 1.388 . S
C439 C440 1.366 . S
C440 C439 1.366 . S
C440 C441 1.414 . S
C440 C443 1.499 . S
C441 H415 0.950 . S
C441 C440 1.414 . S
C441 C442 1.374 . S
C442 H416 0.950 1_655 S
C442 C438 1.385 . S
C442 C441 1.374 . S
C443 C440 1.499 . S
C443 C444 1.373 . S
C443 C445 1.389 . S
C444 H417 0.950 . S
C444 C430 1.377 . S
C444 C443 1.373 . S
C445 C429 1.377 . S
C445 C443 1.389 . S
C445 C446 1.524 . S
C446 C445 1.524 . S
C446 C447 1.397 . S
C446 C451 1.363 . S
C447 H418 0.950 . S
C447 C446 1.397 . S
C447 C448 1.334 . S
C448 H419 0.950 . S
C448 C447 1.334 . S
C448 C449 1.287 . S
C449 C448 1.287 . S
C449 C450 1.524 . S
C449 H452 0.999 . S
C450 H420 0.950 . S
C450 C449 1.524 . S
C450 C451 1.415 . S
C451 H421 0.950 . S
C451 C446 1.363 . S
C451 C450 1.415 . S
H452 C449 0.999 . S
H453 C434 0.913 . S
H454 C472 0.951 . S
H455 C474 0.951 . S
H456 C476 0.950 . S
H457 C477 0.950 . S
H458 C479 0.950 . S
H459 C482 0.950 . S
H460 C483 0.950 . S
H461 C485 0.950 . S
H462 C486 0.950 . S
H463 C487 0.951 . S
H464 C489 0.951 . S
H465 C491 0.950 . S
H466 C492 0.950 . S
H467 C494 0.950 . S
H468 C497 0.950 . S
H469 C498 0.950 . S
H470 C500 0.950 . S
H471 C501 0.950 . S
C472 H454 0.951 . S
C472 C473 1.366 . S
C472 C474 1.388 . S
C473 C472 1.366 . S
C473 C477 1.385 . S
C474 H455 0.951 . S
C474 C472 1.388 . S
C474 C475 1.366 . S
C475 C474 1.366 . S
C475 C476 1.414 . S
C475 C478 1.499 . S
C476 H456 0.950 . S
C476 C475 1.414 . S
C476 C477 1.374 . S
C477 H457 0.950 . S
C477 C473 1.385 . S
C477 C476 1.374 . S
C478 C475 1.499 . S
C478 C479 1.373 . S
C478 C480 1.389 . S
C479 H458 0.950 . S
C479 C478 1.373 . S
C479 C495 1.377 . S
C480 C478 1.389 . S
C480 C481 1.524 . S
C480 C494 1.377 . S
C481 C480 1.524 . S
C481 C482 1.397 . S
C481 C486 1.363 . S
C482 H459 0.950 . S
C482 C481 1.397 . S
C482 C483 1.334 . S
C483 H460 0.950 . S
C483 C482 1.334 . S
C483 C484 1.287 . S
C484 C483 1.287 . S
C484 C485 1.524 . S
C484 H503 0.913 . S
C485 H461 0.950 . S
C485 C484 1.524 . S
C485 C486 1.415 . S
C486 H462 0.950 . S
C486 C481 1.363 . S
C486 C485 1.415 . S
C487 H463 0.951 . S
C487 C488 1.366 . S
C487 C489 1.388 . S
C488 C487 1.366 . S
C488 C492 1.385 . S
C489 H464 0.951 . S
C489 C487 1.388 . S
C489 C490 1.366 . S
C490 C489 1.366 . S
C490 C491 1.414 . S
C490 C493 1.499 . S
C491 H465 0.950 . S
C491 C490 1.414 . S
C491 C492 1.374 . S
C492 H466 0.950 . S
C492 C488 1.385 . S
C492 C491 1.374 . S
C493 C490 1.499 . S
C493 C494 1.373 . S
C493 C495 1.389 . S
C494 H467 0.950 . S
C494 C480 1.377 . S
C494 C493 1.373 . S
C495 C479 1.377 . S
C495 C493 1.389 . S
C495 C496 1.524 . S
C496 C495 1.524 . S
C496 C497 1.397 . S
C496 C501 1.363 . S
C497 H468 0.950 . S
C497 C496 1.397 . S
C497 C498 1.334 . S
C498 H469 0.950 . S
C498 C497 1.334 . S
C498 C499 1.287 . S
C499 C498 1.287 . S
C499 C500 1.524 . S
C499 H502 0.999 . S
C500 H470 0.950 . S
C500 C499 1.524 . S
C500 C501 1.415 . S
C501 H471 0.950 . S
C501 C496 1.363 . S
C501 C500 1.415 . S
H502 C499 0.999 . S
H503 C484 0.913 . S
H504 C522 0.951 . S
H505 C524 0.951 . S
H506 C526 0.950 . S
H507 C527 0.950 . S
H508 C529 0.950 . S
H509 C532 0.950 . S
H510 C533 0.950 . S
H511 C535 0.950 . S
H512 C536 0.950 . S
H513 C537 0.951 . S
H514 C539 0.951 . S
H515 C541 0.950 . S
H516 C542 0.950 . S
H517 C544 0.950 . S
H518 C547 0.950 . S
H519 C548 0.950 . S
H520 C550 0.950 . S
H521 C551 0.950 . S
C522 H504 0.951 . S
C522 C523 1.366 . S
C522 C524 1.388 . S
C523 C522 1.366 . S
C523 C527 1.385 . S
C524 H505 0.951 . S
C524 C522 1.388 . S
C524 C525 1.366 . S
C525 C524 1.366 . S
C525 C526 1.414 . S
C525 C528 1.499 . S
C526 H506 0.950 . S
C526 C525 1.414 . S
C526 C527 1.374 . S
C527 H507 0.950 . S
C527 C523 1.385 . S
C527 C526 1.374 . S
C528 C525 1.499 . S
C528 C529 1.373 . S
C528 C530 1.389 . S
C529 H508 0.950 . S
C529 C528 1.373 . S
C529 C545 1.377 . S
C530 C528 1.389 . S
C530 C531 1.524 . S
C530 C544 1.377 . S
C531 C530 1.524 . S
C531 C532 1.397 . S
C531 C536 1.363 . S
C532 H509 0.950 . S
C532 C531 1.397 . S
C532 C533 1.334 . S
C533 H510 0.950 . S
C533 C532 1.334 . S
C533 C534 1.287 . S
C534 C533 1.287 . S
C534 C535 1.524 . S
C534 H553 0.913 . S
C535 H511 0.950 . S
C535 C534 1.524 . S
C535 C536 1.415 . S
C536 H512 0.950 . S
C536 C531 1.363 . S
C536 C535 1.415 . S
C537 H513 0.951 . S
C537 C538 1.366 . S
C537 C539 1.388 . S
C538 C537 1.366 . S
C538 C542 1.385 . S
C539 H514 0.951 . S
C539 C537 1.388 . S
C539 C540 1.366 . S
C540 C539 1.366 . S
C540 C541 1.414 . S
C540 C543 1.499 . S
C541 H515 0.950 . S
C541 C540 1.414 . S
C541 C542 1.374 . S
C542 H516 0.950 . S
C542 C538 1.385 . S
C542 C541 1.374 . S
C543 C540 1.499 . S
C543 C544 1.373 . S
C543 C545 1.389 . S
C544 H517 0.950 . S
C544 C530 1.377 . S
C544 C543 1.373 . S
C545 C529 1.377 . S
C545 C543 1.389 . S
C545 C546 1.524 . S
C546 C545 1.524 . S
C546 C547 1.397 . S
C546 C551 1.363 . S
C547 H518 0.950 . S
C547 C546 1.397 . S
C547 C548 1.334 . S
C548 H519 0.950 . S
C548 C547 1.334 . S
C548 C549 1.287 . S
C549 C548 1.287 . S
C549 C550 1.524 . S
C549 H552 0.999 . S
C550 H520 0.950 . S
C550 C549 1.524 . S
C550 C551 1.415 . S
C551 H521 0.950 . S
C551 C546 1.363 . S
C551 C550 1.415 . S
H552 C549 0.999 . S
H553 C534 0.913 . S
H554 C572 0.951 . S
H555 C574 0.951 . S
H556 C576 0.950 . S
H557 C577 0.950 . S
H558 C579 0.950 . S
H559 C582 0.950 . S
H560 C583 0.950 . S
H561 C585 0.950 . S
H562 C586 0.950 . S
H563 C587 0.951 1_455 S
H564 C589 0.951 . S
H565 C591 0.950 . S
H566 C592 0.950 . S
H567 C594 0.950 . S
H568 C597 0.950 . S
H569 C598 0.950 . S
H570 C600 0.950 . S
H571 C601 0.950 . S
C572 H554 0.951 . S
C572 C573 1.366 . S
C572 C574 1.388 . S
C573 C572 1.366 . S
C573 C577 1.385 . S
C574 H555 0.951 . S
C574 C572 1.388 . S
C574 C575 1.366 . S
C575 C574 1.366 . S
C575 C576 1.414 . S
C575 C578 1.499 . S
C576 H556 0.950 . S
C576 C575 1.414 . S
C576 C577 1.374 . S
C577 H557 0.950 . S
C577 C573 1.385 . S
C577 C576 1.374 . S
C578 C575 1.499 . S
C578 C579 1.373 . S
C578 C580 1.389 . S
C579 H558 0.950 . S
C579 C578 1.373 . S
C579 C595 1.377 . S
C580 C578 1.389 . S
C580 C581 1.524 . S
C580 C594 1.377 . S
C581 C580 1.524 . S
C581 C582 1.397 . S
C581 C586 1.363 . S
C582 H559 0.950 . S
C582 C581 1.397 . S
C582 C583 1.334 . S
C583 H560 0.950 . S
C583 C582 1.334 . S
C583 C584 1.287 . S
C584 C583 1.287 . S
C584 C585 1.524 . S
C584 H603 0.913 . S
C585 H561 0.950 . S
C585 C584 1.524 . S
C585 C586 1.415 . S
C586 H562 0.950 . S
C586 C581 1.363 . S
C586 C585 1.415 . S
C587 H563 0.951 1_655 S
C587 C588 1.366 . S
C587 C589 1.388 . S
C588 C587 1.366 . S
C588 C592 1.385 . S
C589 H564 0.951 . S
C589 C587 1.388 . S
C589 C590 1.366 . S
C590 C589 1.366 . S
C590 C591 1.414 . S
C590 C593 1.499 . S
C591 H565 0.950 . S
C591 C590 1.414 . S
C591 C592 1.374 . S
C592 H566 0.950 . S
C592 C588 1.385 . S
C592 C591 1.374 . S
C593 C590 1.499 . S
C593 C594 1.373 . S
C593 C595 1.389 . S
C594 H567 0.950 . S
C594 C580 1.377 . S
C594 C593 1.373 . S
C595 C579 1.377 . S
C595 C593 1.389 . S
C595 C596 1.524 . S
C596 C595 1.524 . S
C596 C597 1.397 . S
C596 C601 1.363 1_655 S
C597 H568 0.950 . S
C597 C596 1.397 . S
C597 C598 1.334 1_655 S
C598 H569 0.950 . S
C598 C597 1.334 1_455 S
C598 C599 1.287 . S
C599 C598 1.287 . S
C599 C600 1.524 . S
C599 H602 0.999 . S
C600 H570 0.950 . S
C600 C599 1.524 . S
C600 C601 1.415 . S
C601 H571 0.950 . S
C601 C596 1.363 1_455 S
C601 C600 1.415 . S
H602 C599 0.999 . S
H603 C584 0.913 . S
H604 C622 0.951 . S
H605 C624 0.951 . S
H606 C626 0.950 . S
H607 C627 0.950 . S
H608 C629 0.950 . S
H609 C632 0.950 . S
H610 C633 0.950 . S
H611 C635 0.950 . S
H612 C636 0.950 . S
H613 C637 0.951 . S
H614 C639 0.951 . S
H615 C641 0.950 . S
H616 C642 0.950 . S
H617 C644 0.950 . S
H618 C647 0.950 . S
H619 C648 0.950 . S
H620 C650 0.950 . S
H621 C651 0.950 . S
C622 H604 0.951 . S
C622 C623 1.366 . S
C622 C624 1.388 . S
C623 C622 1.366 . S
C623 C627 1.385 . S
C624 H605 0.951 . S
C624 C622 1.388 . S
C624 C625 1.366 . S
C625 C624 1.366 . S
C625 C626 1.414 . S
C625 C628 1.499 . S
C626 H606 0.950 . S
C626 C625 1.414 . S
C626 C627 1.374 . S
C627 H607 0.950 . S
C627 C623 1.385 . S
C627 C626 1.374 . S
C628 C625 1.499 . S
C628 C629 1.373 . S
C628 C630 1.389 . S
C629 H608 0.950 . S
C629 C628 1.373 . S
C629 C645 1.377 . S
C630 C628 1.389 . S
C630 C631 1.524 . S
C630 C644 1.377 . S
C631 C630 1.524 . S
C631 C632 1.397 . S
C631 C636 1.363 . S
C632 H609 0.950 . S
C632 C631 1.397 . S
C632 C633 1.334 . S
C633 H610 0.950 . S
C633 C632 1.334 . S
C633 C634 1.287 . S
C634 C633 1.287 . S
C634 C635 1.524 . S
C634 H653 0.913 . S
C635 H611 0.950 . S
C635 C634 1.524 . S
C635 C636 1.415 . S
C636 H612 0.950 . S
C636 C631 1.363 . S
C636 C635 1.415 . S
C637 H613 0.951 . S
C637 C638 1.366 . S
C637 C639 1.388 . S
C638 C637 1.366 . S
C638 C642 1.385 . S
C639 H614 0.951 . S
C639 C637 1.388 . S
C639 C640 1.366 . S
C640 C639 1.366 . S
C640 C641 1.414 . S
C640 C643 1.499 . S
C641 H615 0.950 . S
C641 C640 1.414 . S
C641 C642 1.374 . S
C642 H616 0.950 . S
C642 C638 1.385 . S
C642 C641 1.374 . S
C643 C640 1.499 . S
C643 C644 1.373 . S
C643 C645 1.389 . S
C644 H617 0.950 . S
C644 C630 1.377 . S
C644 C643 1.373 . S
C645 C629 1.377 . S
C645 C643 1.389 . S
C645 C646 1.524 . S
C646 C645 1.524 . S
C646 C647 1.397 . S
C646 C651 1.363 . S
C647 H618 0.950 . S
C647 C646 1.397 . S
C647 C648 1.334 . S
C648 H619 0.950 . S
C648 C647 1.334 . S
C648 C649 1.287 . S
C649 C648 1.287 . S
C649 C650 1.524 . S
C649 H652 0.999 . S
C650 H620 0.950 . S
C650 C649 1.524 . S
C650 C651 1.415 . S
C651 H621 0.950 . S
C651 C646 1.363 . S
C651 C650 1.415 . S
H652 C649 0.999 . S
H653 C634 0.913 . S
H654 C672 0.951 . S
H655 C674 0.951 . S
H656 C676 0.950 . S
H657 C677 0.950 . S
H658 C679 0.950 . S
H659 C682 0.950 . S
H660 C683 0.950 . S
H661 C685 0.950 1_655 S
H662 C686 0.950 . S
H663 C687 0.951 . S
H664 C689 0.951 . S
H665 C691 0.950 . S
H666 C692 0.950 . S
H667 C694 0.950 . S
H668 C697 0.950 . S
H669 C698 0.950 . S
H670 C700 0.950 . S
H671 C701 0.950 . S
C672 H654 0.951 . S
C672 C673 1.366 . S
C672 C674 1.388 . S
C673 C672 1.366 . S
C673 C677 1.385 . S
C674 H655 0.951 . S
C674 C672 1.388 . S
C674 C675 1.366 . S
C675 C674 1.366 . S
C675 C676 1.414 . S
C675 C678 1.499 . S
C676 H656 0.950 . S
C676 C675 1.414 . S
C676 C677 1.374 . S
C677 H657 0.950 . S
C677 C673 1.385 . S
C677 C676 1.374 . S
C678 C675 1.499 . S
C678 C679 1.373 . S
C678 C680 1.389 . S
C679 H658 0.950 . S
C679 C678 1.373 . S
C679 C695 1.377 . S
C680 C678 1.389 . S
C680 C681 1.524 . S
C680 C694 1.377 . S
C681 C680 1.524 . S
C681 C682 1.397 . S
C681 C686 1.363 . S
C682 H659 0.950 . S
C682 C681 1.397 . S
C682 C683 1.334 1_455 S
C683 H660 0.950 . S
C683 C682 1.334 1_655 S
C683 C684 1.287 . S
C684 C683 1.287 . S
C684 C685 1.524 1_655 S
C684 H703 0.913 . S
C685 H661 0.950 1_455 S
C685 C684 1.524 1_455 S
C685 C686 1.415 . S
C686 H662 0.950 . S
C686 C681 1.363 . S
C686 C685 1.415 . S
C687 H663 0.951 . S
C687 C688 1.366 . S
C687 C689 1.388 . S
C688 C687 1.366 . S
C688 C692 1.385 . S
C689 H664 0.951 . S
C689 C687 1.388 . S
C689 C690 1.366 . S
C690 C689 1.366 . S
C690 C691 1.414 . S
C690 C693 1.499 . S
C691 H665 0.950 . S
C691 C690 1.414 . S
C691 C692 1.374 . S
C692 H666 0.950 . S
C692 C688 1.385 . S
C692 C691 1.374 . S
C693 C690 1.499 . S
C693 C694 1.373 . S
C693 C695 1.389 . S
C694 H667 0.950 . S
C694 C680 1.377 . S
C694 C693 1.373 . S
C695 C679 1.377 . S
C695 C693 1.389 . S
C695 C696 1.524 . S
C696 C695 1.524 . S
C696 C697 1.397 . S
C696 C701 1.363 . S
C697 H668 0.950 . S
C697 C696 1.397 . S
C697 C698 1.334 . S
C698 H669 0.950 . S
C698 C697 1.334 . S
C698 C699 1.287 . S
C699 C698 1.287 . S
C699 C700 1.524 . S
C699 H702 0.999 . S
C700 H670 0.950 . S
C700 C699 1.524 . S
C700 C701 1.415 . S
C701 H671 0.950 . S
C701 C696 1.363 . S
C701 C700 1.415 . S
H702 C699 0.999 . S
H703 C684 0.913 . S
C138 C40 1.543 . S
C123 C34 1.534 . S
C173 C7 1.496 . S
C188 C83 1.503 . S
C223 C16 1.529 . S
C238 C49 1.543 . S
C273 C25 1.495 . S
C288 C74 1.503 . S
C338 C36 1.520 . S
C323 C5 1.503 . S
C388 C78 1.572 . S
C373 C13 1.550 . S
C423 C23 1.503 . S
C438 C44 1.517 . S
C473 C32 1.554 . S
C488 C70 1.570 . S
C538 C99 1.568 . S
C523 C14 1.544 . S
C588 C65 1.517 . S
C573 C22 1.502 . S
C638 C87 1.570 . S
C623 C31 1.551 . S
C673 C4 1.501 . S
C688 C53 1.514 . S
