# Generated by pormake.
# Topology cml, (3,6)-cn, num edge types: 1
# Building blocks:
#     Node 0, Type 0, BuildingBlock: INOVEN_clean_linker_0, # of connection points: 3
#     Node 1, Type 0, BuildingBlock: INOVEN_clean_linker_0, # of connection points: 3
#     Node 2, Type 0, BuildingBlock: INOVEN_clean_linker_0, # of connection points: 3
#     Node 3, Type 0, BuildingBlock: INOVEN_clean_linker_0, # of connection points: 3
#     Node 4, Type 0, BuildingBlock: INOVEN_clean_linker_0, # of connection points: 3
#     Node 5, Type 0, BuildingBlock: INOVEN_clean_linker_0, # of connection points: 3
#     Node 6, Type 0, BuildingBlock: INOVEN_clean_linker_0, # of connection points: 3
#     Node 7, Type 0, BuildingBlock: INOVEN_clean_linker_0, # of connection points: 3
#     Node 8, Type 1, BuildingBlock: OJICUG_clean_sbu_0, # of connection points: 6
#     Node 9, Type 1, BuildingBlock: OJICUG_clean_sbu_0, # of connection points: 6
#     Node 10, Type 1, BuildingBlock: OJICUG_clean_sbu_0, # of connection points: 6
#     Node 11, Type 1, BuildingBlock: OJICUG_clean_sbu_0, # of connection points: 6
#     Edge 12, Type (0, 1), BuildingBlock: XIVTED_clean_linker_0, # of connection points: 2
#     Edge 13, Type (0, 1), BuildingBlock: XIVTED_clean_linker_0, # of connection points: 2
#     Edge 14, Type (0, 1), BuildingBlock: XIVTED_clean_linker_0, # of connection points: 2
#     Edge 15, Type (0, 1), BuildingBlock: XIVTED_clean_linker_0, # of connection points: 2
#     Edge 16, Type (0, 1), BuildingBlock: XIVTED_clean_linker_0, # of connection points: 2
#     Edge 17, Type (0, 1), BuildingBlock: XIVTED_clean_linker_0, # of connection points: 2
#     Edge 18, Type (0, 1), BuildingBlock: XIVTED_clean_linker_0, # of connection points: 2
#     Edge 19, Type (0, 1), BuildingBlock: XIVTED_clean_linker_0, # of connection points: 2
#     Edge 20, Type (0, 1), BuildingBlock: XIVTED_clean_linker_0, # of connection points: 2
#     Edge 21, Type (0, 1), BuildingBlock: XIVTED_clean_linker_0, # of connection points: 2
#     Edge 22, Type (0, 1), BuildingBlock: XIVTED_clean_linker_0, # of connection points: 2
#     Edge 23, Type (0, 1), BuildingBlock: XIVTED_clean_linker_0, # of connection points: 2
#     Edge 24, Type (0, 1), BuildingBlock: XIVTED_clean_linker_0, # of connection points: 2
#     Edge 25, Type (0, 1), BuildingBlock: XIVTED_clean_linker_0, # of connection points: 2
#     Edge 26, Type (0, 1), BuildingBlock: XIVTED_clean_linker_0, # of connection points: 2
#     Edge 27, Type (0, 1), BuildingBlock: XIVTED_clean_linker_0, # of connection points: 2
#     Edge 28, Type (0, 1), BuildingBlock: XIVTED_clean_linker_0, # of connection points: 2
#     Edge 29, Type (0, 1), BuildingBlock: XIVTED_clean_linker_0, # of connection points: 2
#     Edge 30, Type (0, 1), BuildingBlock: XIVTED_clean_linker_0, # of connection points: 2
#     Edge 31, Type (0, 1), BuildingBlock: XIVTED_clean_linker_0, # of connection points: 2
#     Edge 32, Type (0, 1), BuildingBlock: XIVTED_clean_linker_0, # of connection points: 2
#     Edge 33, Type (0, 1), BuildingBlock: XIVTED_clean_linker_0, # of connection points: 2
#     Edge 34, Type (0, 1), BuildingBlock: XIVTED_clean_linker_0, # of connection points: 2
#     Edge 35, Type (0, 1), BuildingBlock: XIVTED_clean_linker_0, # of connection points: 2
# Relax obj value: 0.008
# Max RMSD: 0.050
# Mean RMSD: 0.043
data_MOF--net-cml--node1-OJICUG_clean_sbu_0--node2-INOVEN_clean_linker_0--edge1-XIVTED_clean_linker_0
_symmetry_space_group_name_H-M    P1
_symmetry_Int_Tables_number       1
_symmetry_cell_setting            triclinic
loop_
_symmetry_equiv_pos_as_xyz
'x, y, z'
_cell_length_a     40.23414
_cell_length_b     40.271211
_cell_length_c     36.015843
_cell_angle_alpha  89.32657
_cell_angle_beta   90.928496
_cell_angle_gamma 90.611975
loop_
_atom_site_label
_atom_site_type_symbol
_atom_site_fract_x
_atom_site_fract_y
_atom_site_fract_z
_atom_type_partial_charge
H0 H 0.2596 0.35051 0.05785 0.0
H1 H 0.33234 0.4287 0.05029 0.0
H2 H 0.27469 0.40099 0.95353 0.0
N3 N 0.23832 0.35355 0.98917 0.0
N4 N 0.22956 0.35466 0.95584 0.0
C5 C 0.27188 0.36989 0.04186 0.0
C6 C 0.29694 0.38922 0.05837 0.0
C7 C 0.26316 0.37465 0.00447 0.0
C8 C 0.2803 0.3985 0.98293 0.0
C9 C 0.30581 0.41787 -0.00083 0.0
C10 C 0.31291 0.41384 0.03727 0.0
H11 H 0.75538 0.63771 0.55079 0.0
H12 H 0.69137 0.55231 0.53846 0.0
H13 H 0.76012 0.57802 0.45261 0.0
N14 N 0.78575 0.63228 0.48696 0.0
N15 N 0.79805 0.62909 0.45566 0.0
C16 C 0.74709 0.61629 0.53508 0.0
C17 C 0.72227 0.59518 0.54919 0.0
C18 C 0.76106 0.6101 0.50049 0.0
C19 C 0.74982 0.58273 0.47963 0.0
C20 C 0.72495 0.56154 0.49346 0.0
C21 C 0.71161 0.56777 0.52836 0.0
H22 H 0.74921 0.34393 0.03774 0.0
H23 H 0.6863 0.42899 0.02549 0.0
H24 H 0.74939 0.4012 0.93607 0.0
N25 N 0.77565 0.34736 0.97198 0.0
N26 N 0.78717 0.34941 0.94009 0.0
C27 C 0.7403 0.36493 0.02147 0.0
C28 C 0.71677 0.38628 0.03626 0.0
C29 C 0.7523 0.37018 0.98559 0.0
C30 C 0.74053 0.39717 0.96403 0.0
C31 C 0.71711 0.41892 0.97867 0.0
C32 C 0.70556 0.41328 0.01478 0.0
H33 H 0.26307 0.55686 0.43951 0.0
H34 H 0.32682 0.53508 0.53357 0.0
H35 H 0.26124 0.61822 0.5363 0.0
N36 N 0.23704 0.6107 0.46635 0.0
N37 N 0.22906 0.63802 0.47918 0.0
C38 C 0.27149 0.56187 0.46765 0.0
C39 C 0.29595 0.54203 0.48464 0.0
C40 C 0.25903 0.58937 0.48596 0.0
C41 C 0.27044 0.59669 0.52209 0.0
C42 C 0.29443 0.57676 0.53964 0.0
C43 C 0.30683 0.54931 0.5209 0.0
H44 H 0.77343 0.84056 0.03703 0.0
H45 H 0.83668 0.92693 0.02918 0.0
H46 H 0.7693 0.90311 0.9394 0.0
N47 N 0.74403 0.8475 0.97197 0.0
N48 N 0.73132 0.85153 0.94047 0.0
C49 C 0.78179 0.8625 0.02201 0.0
C50 C 0.80617 0.88336 0.03768 0.0
C51 C 0.76823 0.8696 0.98683 0.0
C52 C 0.77936 0.89772 0.96687 0.0
C53 C 0.80381 0.91874 0.98227 0.0
C54 C 0.81681 0.91154 0.01779 0.0
H55 H 0.2662 0.13327 0.55674 0.0
H56 H 0.1898 0.05873 0.54769 0.0
H57 H 0.24763 0.08551 0.45209 0.0
N58 N 0.28667 0.13054 0.48854 0.0
N59 N 0.29526 0.12956 0.45548 0.0
C60 C 0.25279 0.11488 0.54044 0.0
C61 C 0.22714 0.09631 0.55647 0.0
C62 C 0.26086 0.11047 0.50322 0.0
C63 C 0.2424 0.08782 0.48133 0.0
C64 C 0.21619 0.06935 0.49708 0.0
C65 C 0.2097 0.07299 0.53503 0.0
H66 H 0.25911 0.8513 0.04673 0.0
H67 H 0.1958 0.9362 0.03672 0.0
H68 H 0.25732 0.90928 0.94559 0.0
N69 N 0.28401 0.85497 0.98042 0.0
N70 N 0.29417 0.85636 0.94791 0.0
C71 C 0.25004 0.87253 0.03096 0.0
C72 C 0.22661 0.89357 0.0464 0.0
C73 C 0.26135 0.87804 -0.00515 0.0
C74 C 0.24913 0.90516 0.97378 0.0
C75 C 0.22593 0.92675 -0.01079 0.0
C76 C 0.21506 0.92078 0.02552 0.0
H77 H 0.75837 0.05499 0.44152 0.0
H78 H 0.83389 0.03312 0.52351 0.0
H79 H 0.77933 0.12406 0.52906 0.0
N80 N 0.742 0.11271 0.46714 0.0
N81 N 0.73768 0.14148 0.47826 0.0
C82 C 0.77172 0.06117 0.46694 0.0
C83 C 0.79679 0.04033 0.48062 0.0
C84 C 0.7651 0.09107 0.48444 0.0
C85 C 0.78345 0.10022 0.51641 0.0
C86 C 0.8085 0.07944 0.53063 0.0
C87 C 0.81425 0.04909 0.51312 0.0
Sc88 Sc 0.01819 0.80816 0.29258 0.0
Sc89 Sc 0.01424 0.89551 0.29923 0.0
Sc90 Sc 0.01642 0.84647 0.38006 0.0
O91 O 0.01635 0.84998 0.32388 0.0
C92 C 0.97086 0.78407 0.35728 0.0
C93 C 0.96622 0.85265 0.24688 0.0
C94 C 0.96172 0.90099 0.3645 0.0
C95 C 0.06662 0.85793 0.24947 0.0
C96 C 0.06966 0.79288 0.35925 0.0
C97 C 0.06163 0.91127 0.36789 0.0
O98 O 0.97999 0.78292 0.32371 0.0
O99 O 0.97627 0.87972 0.26105 0.0
O100 O 0.97379 0.8773 0.38375 0.0
O101 O 0.05677 0.82879 0.25815 0.0
O102 O 0.05866 0.81489 0.38067 0.0
O103 O 0.05223 0.91653 0.3346 0.0
O104 O 0.05678 0.78669 0.3275 0.0
O105 O 0.05315 0.88401 0.26152 0.0
O106 O 0.04981 0.88797 0.3879 0.0
O107 O 0.97946 0.82479 0.25453 0.0
O108 O 0.98297 0.80471 0.3803 0.0
O109 O 0.97466 0.9115 0.33449 0.0
Sc110 Sc 0.01104 0.17505 0.7896 0.0
Sc111 Sc 0.013 0.08788 0.79901 0.0
Sc112 Sc 0.0101 0.13702 0.87857 0.0
O113 O 0.01126 0.13342 0.82239 0.0
C114 C 0.05834 0.1973 0.85693 0.0
C115 C 0.06533 0.12937 0.75184 0.0
C116 C 0.06063 0.07741 0.86981 0.0
C117 C 0.96591 0.1264 0.74121 0.0
C118 C 0.95926 0.19353 0.85217 0.0
C119 C 0.96035 0.07608 0.86248 0.0
O120 O 0.0479 0.19986 0.82354 0.0
O121 O 0.0544 0.1024 0.76588 0.0
O122 O 0.05012 0.10214 0.88764 0.0
O123 O 0.9739 0.1555 0.7515 0.0
O124 O 0.97055 0.17268 0.8759 0.0
O125 O 0.97171 0.06964 0.83066 0.0
O126 O 0.97127 0.19721 0.81989 0.0
O127 O 0.97865 0.10044 0.75537 0.0
O128 O 0.9726 0.09863 0.88321 0.0
O129 O 0.05146 0.15728 0.75645 0.0
O130 O 0.04698 0.17589 0.87974 0.0
O131 O 0.04833 0.06893 0.83868 0.0
Sc132 Sc 0.51816 0.30664 0.2953 0.0
Sc133 Sc 0.5169 0.39403 0.30348 0.0
Sc134 Sc 0.51874 0.34376 0.38356 0.0
O135 O 0.51799 0.34808 0.3274 0.0
C136 C 0.47097 0.28327 0.36101 0.0
C137 C 0.46525 0.35288 0.25357 0.0
C138 C 0.46715 0.40199 0.37089 0.0
C139 C 0.56579 0.35585 0.2501 0.0
C140 C 0.57026 0.28882 0.35995 0.0
C141 C 0.56767 0.4057 0.37053 0.0
O142 O 0.48148 0.28101 0.32809 0.0
O143 O 0.47735 0.37971 0.26646 0.0
O144 O 0.47879 0.37784 0.38975 0.0
O145 O 0.55499 0.32699 0.25841 0.0
O146 O 0.5584 0.30917 0.38274 0.0
O147 O 0.55632 0.413 0.3384 0.0
O148 O 0.55833 0.2846 0.32736 0.0
O149 O 0.5543 0.38208 0.26406 0.0
O150 O 0.55589 0.3821 0.39018 0.0
O151 O 0.4776 0.3245 0.26072 0.0
O152 O 0.48217 0.30463 0.38379 0.0
O153 O 0.47908 0.41132 0.33997 0.0
Sc154 Sc 0.50409 0.67366 0.78659 0.0
Sc155 Sc 0.50449 0.58635 0.79657 0.0
Sc156 Sc 0.50749 0.63616 0.87581 0.0
O157 O 0.50529 0.63213 0.81966 0.0
C158 C 0.55575 0.69515 0.85003 0.0
C159 C 0.55326 0.62672 0.74309 0.0
C160 C 0.55727 0.57641 0.86276 0.0
C161 C 0.4527 0.62555 0.74495 0.0
C162 C 0.45665 0.69365 0.85291 0.0
C163 C 0.45747 0.57475 0.86562 0.0
O164 O 0.54383 0.69784 0.81724 0.0
O165 O 0.54231 0.60001 0.75776 0.0
O166 O 0.54726 0.60075 0.88162 0.0
O167 O 0.46394 0.65443 0.75217 0.0
O168 O 0.46836 0.6724 0.87593 0.0
O169 O 0.46657 0.56783 0.83304 0.0
O170 O 0.46719 0.69699 0.81995 0.0
O171 O 0.46535 0.59927 0.75851 0.0
O172 O 0.47049 0.59809 0.88454 0.0
O173 O 0.5414 0.65509 0.75002 0.0
O174 O 0.54477 0.67434 0.87368 0.0
O175 O 0.54365 0.56799 0.83219 0.0
H176 H 0.1967 0.30643 -0.00559 0.0
H177 H 0.08992 0.24716 0.81779 0.0
H178 H 0.20647 0.35189 0.88605 0.0
H179 H 0.08633 0.20067 0.92645 0.0
H180 H 0.13206 0.28609 0.84141 0.0
H181 H 0.15539 0.26813 0.96926 0.0
C182 C 0.19006 0.30837 0.96522 0.0
C183 C 0.20494 0.33236 0.94205 0.0
C184 C 0.12203 0.26731 0.85998 0.0
C185 C 0.15756 0.28835 0.91303 0.0
C186 C 0.09798 0.24506 0.84655 0.0
C187 C 0.08445 0.2206 0.87019 0.0
C188 C 0.13253 0.26509 0.89727 0.0
C189 C 0.09592 0.21908 0.90716 0.0
C190 C 0.16646 0.28641 0.95083 0.0
C191 C 0.1954 0.33368 0.90456 0.0
N192 N 0.11921 0.24103 0.91951 0.0
N193 N 0.17223 0.31192 0.89107 0.0
H194 H 0.826 0.68181 0.49162 0.0
H195 H 0.94004 0.73286 0.31953 0.0
H196 H 0.82591 0.62729 0.38933 0.0
H197 H 0.94249 0.78193 0.42563 0.0
H198 H 0.89746 0.69462 0.34327 0.0
H199 H 0.86805 0.7195 0.46667 0.0
C200 C 0.8349 0.6778 0.46383 0.0
C201 C 0.82262 0.65146 0.44227 0.0
C202 C 0.9074 0.71378 0.36127 0.0
C203 C 0.87073 0.69452 0.41353 0.0
C204 C 0.93167 0.73564 0.34774 0.0
C205 C 0.94497 0.76065 0.3706 0.0
C206 C 0.89633 0.71707 0.39784 0.0
C207 C 0.93313 0.76304 0.40694 0.0
C208 C 0.85893 0.69932 0.44957 0.0
C209 C 0.83497 0.6474 0.40656 0.0
N210 N 0.90954 0.74156 0.41935 0.0
N211 N 0.8584 0.66874 0.39317 0.0
H212 H 0.81173 0.29582 0.97797 0.0
H213 H 0.92995 0.2442 0.81202 0.0
H214 H 0.81555 0.34935 0.87374 0.0
H215 H 0.92572 0.19276 0.91782 0.0
H216 H 0.88662 0.28156 0.8326 0.0
H217 H 0.85217 0.25671 0.95508 0.0
C218 C 0.82111 0.29932 0.95017 0.0
C219 C 0.81045 0.32593 0.92755 0.0
C220 C 0.89513 0.26202 0.85122 0.0
C221 C 0.85682 0.28111 0.90116 0.0
C222 C 0.91985 0.2406 0.83949 0.0
C223 C 0.93172 0.21531 0.86326 0.0
C224 C 0.88214 0.25814 0.88698 0.0
C225 C 0.91757 0.21193 0.89852 0.0
C226 C 0.84421 0.27693 0.93708 0.0
C227 C 0.82334 0.32915 0.89184 0.0
N228 N 0.89366 0.23313 0.9093 0.0
N229 N 0.84595 0.30704 0.87968 0.0
H230 H 0.19959 0.62891 0.41121 0.0
H231 H 0.10953 0.80433 0.41984 0.0
H232 H 0.21105 0.6972 0.50189 0.0
H233 H 0.0929 0.73463 0.33097 0.0
H234 H 0.15086 0.7674 0.44701 0.0
H235 H 0.16371 0.66882 0.37873 0.0
C236 C 0.19448 0.65236 0.42425 0.0
C237 C 0.20796 0.66003 0.45936 0.0
C238 C 0.13833 0.76021 0.42147 0.0
C239 C 0.16733 0.7056 0.4224 0.0
C240 C 0.11471 0.78132 0.40587 0.0
C241 C 0.09739 0.77236 0.37329 0.0
C242 C 0.14466 0.7298 0.40453 0.0
C243 C 0.10552 0.74245 0.35621 0.0
C244 C 0.17411 0.67513 0.40569 0.0
C245 C 0.20082 0.69062 0.47494 0.0
N246 N 0.12841 0.72204 0.37225 0.0
N247 N 0.1809 0.71236 0.45641 0.0
H248 H 0.70035 0.85569 0.87471 0.0
H249 H 0.59213 0.69169 0.91445 0.0
H250 H 0.7077 0.79556 0.97427 0.0
H251 H 0.58238 0.74911 0.81281 0.0
H252 H 0.63588 0.7292 0.9353 0.0
H253 H 0.65812 0.81676 0.85001 0.0
C254 C 0.69301 0.83426 0.8912 0.0
C255 C 0.70727 0.82882 0.92637 0.0
C256 C 0.62428 0.73367 0.90839 0.0
C257 C 0.65952 0.78444 0.8988 0.0
C258 C 0.59919 0.7122 0.89642 0.0
C259 C 0.58333 0.71733 0.86186 0.0
C260 C 0.63371 0.76066 0.8858 0.0
C261 C 0.59387 0.74425 0.83968 0.0
C262 C 0.66906 0.81212 0.87722 0.0
C263 C 0.69725 0.80077 0.94698 0.0
N264 N 0.61836 0.76505 0.85212 0.0
N265 N 0.67396 0.7797 0.93286 0.0
H266 H 0.33132 0.17465 0.49525 0.0
H267 H 0.43818 0.23464 0.32118 0.0
H268 H 0.31779 0.13305 0.38618 0.0
H269 H 0.44407 0.27851 0.43006 0.0
H270 H 0.39538 0.19612 0.34382 0.0
H271 H 0.37426 0.21148 0.47133 0.0
C272 C 0.33747 0.17324 0.46616 0.0
C273 C 0.321 0.15081 0.44243 0.0
C274 C 0.40609 0.21422 0.36265 0.0
C275 C 0.37028 0.19316 0.4148 0.0
C276 C 0.43052 0.23622 0.34979 0.0
C277 C 0.44482 0.25989 0.37375 0.0
C278 C 0.396 0.2159 0.39971 0.0
C279 C 0.43385 0.26076 0.41051 0.0
C280 C 0.36202 0.19436 0.45247 0.0
C281 C 0.33004 0.15008 0.40512 0.0
N282 N 0.41018 0.23909 0.4223 0.0
N283 N 0.35413 0.17103 0.3923 0.0
H284 H 0.31999 0.80349 0.98601 0.0
H285 H 0.42637 0.74413 0.81354 0.0
H286 H 0.31913 0.85412 0.87986 0.0
H287 H 0.42738 0.69554 0.92115 0.0
H288 H 0.3857 0.78335 0.83614 0.0
H289 H 0.35815 0.76282 0.96174 0.0
C290 C 0.32788 0.80605 0.95751 0.0
C291 C 0.31652 0.83228 0.93473 0.0
C292 C 0.39476 0.76403 0.85474 0.0
C293 C 0.36025 0.78561 0.90676 0.0
C294 C 0.41797 0.74154 0.84186 0.0
C295 C 0.43053 0.71647 0.8655 0.0
C296 C 0.38396 0.7615 0.89155 0.0
C297 C 0.41858 0.71444 0.90189 0.0
C298 C 0.34968 0.78276 0.94364 0.0
C299 C 0.3275 0.83426 0.89812 0.0
N300 N 0.39609 0.7367 0.91378 0.0
N301 N 0.34882 0.81125 0.88518 0.0
H302 H 0.72415 0.20291 0.49818 0.0
H303 H 0.59406 0.23129 0.33035 0.0
H304 H 0.70111 0.12931 0.41545 0.0
H305 H 0.6108 0.30046 0.4197 0.0
H306 H 0.63758 0.19589 0.35716 0.0
H307 H 0.68612 0.24137 0.46625 0.0
C308 C 0.71095 0.195 0.47331 0.0
C309 C 0.71539 0.16314 0.4596 0.0
C310 C 0.63178 0.21893 0.37071 0.0
C311 C 0.67228 0.20648 0.42278 0.0
C312 C 0.60708 0.23918 0.35534 0.0
C313 C 0.59851 0.26861 0.37309 0.0
C314 C 0.64799 0.22836 0.40388 0.0
C315 C 0.61622 0.27771 0.40538 0.0
C316 C 0.6894 0.21681 0.45505 0.0
C317 C 0.69813 0.15372 0.4271 0.0
N318 N 0.63997 0.25757 0.41982 0.0
N319 N 0.67722 0.17534 0.40981 0.0
H320 H 0.37283 0.42816 0.00639 0.0
H321 H 0.40656 0.53965 0.83215 0.0
H322 H 0.28802 0.45814 0.93931 0.0
H323 H 0.45092 0.56132 0.93923 0.0
H324 H 0.367 0.50157 0.8629 0.0
H325 H 0.40716 0.46807 0.97308 0.0
C326 C 0.36122 0.44334 0.98493 0.0
C327 C 0.32708 0.44045 0.97654 0.0
C328 C 0.38528 0.51501 0.87944 0.0
C329 C 0.36697 0.4852 0.93719 0.0
C330 C 0.40786 0.5365 0.86205 0.0
C331 C 0.43204 0.55352 0.88326 0.0
C332 C 0.38775 0.50998 0.91794 0.0
C333 C 0.43262 0.54878 0.92188 0.0
C334 C 0.381 0.46591 0.96578 0.0
C335 C 0.31412 0.45966 0.94692 0.0
N336 N 0.41112 0.52705 0.93792 0.0
N337 N 0.33415 0.48133 0.92816 0.0
H338 H 0.70587 0.56441 0.42026 0.0
H339 H 0.60263 0.39483 0.43533 0.0
H340 H 0.71009 0.49788 0.51496 0.0
H341 H 0.59726 0.46134 0.34044 0.0
H342 H 0.64737 0.42891 0.46138 0.0
H343 H 0.67255 0.52312 0.3866 0.0
C344 C 0.70041 0.54079 0.43365 0.0
C345 C 0.71036 0.53465 0.47058 0.0
C346 C 0.63656 0.43596 0.43475 0.0
C347 C 0.67175 0.48769 0.43263 0.0
C348 C 0.61086 0.41657 0.41989 0.0
C349 C 0.59577 0.42546 0.38584 0.0
C350 C 0.64721 0.4646 0.41558 0.0
C351 C 0.6079 0.45368 0.36693 0.0
C352 C 0.68115 0.51736 0.41456 0.0
C353 C 0.70237 0.50379 0.48673 0.0
N354 N 0.63271 0.4724 0.38222 0.0
N355 N 0.6832 0.48161 0.46781 0.0
H356 H 0.69346 0.41637 0.90697 0.0
H357 H 0.59513 0.58638 0.92595 0.0
H358 H 0.70592 0.48288 -0.00071 0.0
H359 H 0.58472 0.5214 0.83178 0.0
H360 H 0.64023 0.55176 0.94999 0.0
H361 H 0.65916 0.458 0.87502 0.0
C362 C 0.68961 0.44004 0.92013 0.0
C363 C 0.70217 0.44605 0.956 0.0
C364 C 0.62822 0.54521 0.92393 0.0
C365 C 0.66242 0.49346 0.92009 0.0
C366 C 0.60235 0.56493 0.91023 0.0
C367 C 0.58574 0.55663 0.87698 0.0
C368 C 0.63751 0.51686 0.90438 0.0
C369 C 0.59652 0.52866 0.8577 0.0
C370 C 0.66978 0.46369 0.90206 0.0
C371 C 0.69618 0.47704 0.97191 0.0
N372 N 0.62151 0.50968 0.87182 0.0
N373 N 0.67641 0.49941 0.95406 0.0
H374 H 0.31742 0.54703 0.41318 0.0
H375 H 0.43272 0.38807 0.43429 0.0
H376 H 0.31558 0.48002 0.50758 0.0
H377 H 0.43488 0.45563 0.34021 0.0
H378 H 0.38547 0.41791 0.45825 0.0
H379 H 0.35483 0.50955 0.38213 0.0
C380 C 0.32426 0.52403 0.42705 0.0
C381 C 0.3136 0.51674 0.46318 0.0
C382 C 0.39618 0.42611 0.43228 0.0
C383 C 0.35716 0.47419 0.42818 0.0
C384 C 0.42329 0.40917 0.41861 0.0
C385 C 0.43812 0.41959 0.38536 0.0
C386 C 0.38381 0.45377 0.41267 0.0
C387 C 0.4245 0.44688 0.36613 0.0
C388 C 0.34592 0.5028 0.40944 0.0
C389 C 0.32368 0.48682 0.47998 0.0
N390 N 0.39824 0.46315 0.3802 0.0
N391 N 0.34521 0.4668 0.4625 0.0
H392 H 0.81759 0.98191 0.00527 0.0
H393 H 0.92857 0.02354 0.82878 0.0
H394 H 0.82364 0.9184 0.91003 0.0
H395 H 0.92696 0.08333 0.92757 0.0
H396 H 0.88383 0.98911 0.85394 0.0
H397 H 0.85062 0.02395 0.97269 0.0
C398 C 0.82553 0.97705 0.97727 0.0
C399 C 0.81828 0.94652 0.96047 0.0
C400 C 0.89313 0.00992 0.86997 0.0
C401 C 0.85626 -0.00572 0.92314 0.0
C402 C 0.91875 0.02957 0.85566 0.0
C403 C 0.93195 0.05614 0.87631 0.0
C404 C 0.88061 0.01682 0.90518 0.0
C405 C 0.91792 0.0629 0.91082 0.0
C406 C 0.84438 0.00101 0.95869 0.0
C407 C 0.82867 0.94163 0.92396 0.0
N408 N 0.89321 0.04321 0.92427 0.0
N409 N 0.84756 0.9651 0.90668 0.0
H410 H 0.14885 0.06211 0.50228 0.0
H411 H 0.11239 0.94507 0.33367 0.0
H412 H 0.23203 0.02834 0.4389 0.0
H413 H 0.06685 0.92928 0.44022 0.0
H414 H 0.15196 0.98442 0.3628 0.0
H415 H 0.11287 0.02295 0.46964 0.0
C416 C 0.1597 0.04632 0.48169 0.0
C417 C 0.19387 0.04783 0.47424 0.0
C418 C 0.13334 0.9721 0.3796 0.0
C419 C 0.1522 0.0039 0.43571 0.0
C420 C 0.11076 0.94989 0.36312 0.0
C421 C 0.08638 0.93402 0.38467 0.0
C422 C 0.13067 0.97902 0.41746 0.0
C423 C 0.08536 0.94088 0.42268 0.0
C424 C 0.13901 0.02417 0.46293 0.0
C425 C 0.20594 0.02786 0.44576 0.0
N426 N 0.10692 0.96323 0.43778 0.0
N427 N 0.18506 0.00655 0.42745 0.0
H428 H 0.21386 -0.0095 0.01022 0.0
H429 H 0.09003 0.02375 0.83861 0.0
H430 H 0.20053 0.9237 0.9183 0.0
H431 H 0.09589 0.08608 0.93537 0.0
H432 H 0.13567 -0.00909 0.86371 0.0
H433 H 0.17702 0.03016 0.97887 0.0
C434 C 0.20358 0.98444 0.98312 0.0
C435 C 0.20993 0.9536 0.96701 0.0
C436 C 0.12709 0.01182 0.87944 0.0
C437 C 0.16754 -0.00128 0.93115 0.0
C438 C 0.10087 0.03062 0.86518 0.0
C439 C 0.08873 0.05765 0.88507 0.0
C440 C 0.14145 0.01993 0.91393 0.0
C441 C 0.10417 0.06535 0.91919 0.0
C442 C 0.18248 0.00703 0.96531 0.0
C443 C 0.19637 0.94719 0.93168 0.0
N444 N 0.12962 0.04648 0.93261 0.0
N445 N 0.17546 0.96938 0.91514 0.0
H446 H 0.80877 0.04111 0.40635 0.0
H447 H 0.92518 0.88348 0.4252 0.0
H448 H 0.81414 0.97765 0.5036 0.0
H449 H 0.9278 0.95354 0.33343 0.0
H450 H 0.87619 0.9109 0.44826 0.0
H451 H 0.84231 0.0016 0.37298 0.0
C452 C 0.81614 0.01834 0.42036 0.0
C453 C 0.80912 0.01282 0.45798 0.0
C454 C 0.88733 0.92013 0.42293 0.0
C455 C 0.84827 0.96807 0.42029 0.0
C456 C 0.91546 0.9046 0.40979 0.0
C457 C 0.93111 0.91664 0.37767 0.0
C458 C 0.87474 0.948 0.40396 0.0
C459 C 0.91691 0.94372 0.3586 0.0
C460 C 0.83562 -0.00402 0.40139 0.0
C461 C 0.81959 0.98308 0.47481 0.0
N462 N 0.88971 0.95871 0.37227 0.0
N463 N 0.83913 0.96203 0.45601 0.0
H464 H 0.30925 0.43128 0.11597 0.0
H465 H 0.43372 0.30357 0.2135 0.0
H466 H 0.31636 0.32865 0.08452 0.0
H467 H 0.42692 0.40745 0.24084 0.0
H468 H 0.38441 0.30942 0.17332 0.0
H469 H 0.34456 0.41979 0.1703 0.0
C470 C 0.31767 0.40614 0.12109 0.0
C471 C 0.31032 0.38095 0.09568 0.0
C472 C 0.39362 0.33081 0.1884 0.0
C473 C 0.35133 0.36772 0.157 0.0
C474 C 0.42185 0.32753 0.21119 0.0
C475 C 0.4349 0.35519 0.23004 0.0
C476 C 0.37839 0.36194 0.18453 0.0
C477 C 0.41821 0.38554 0.22635 0.0
C478 C 0.33794 0.39958 0.15194 0.0
C479 C 0.32154 0.34874 0.10356 0.0
N480 N 0.39104 0.38812 0.20386 0.0
N481 N 0.34208 0.34314 0.13321 0.0
H482 H 0.70879 0.55274 0.60657 0.0
H483 H 0.58149 0.67633 0.7004 0.0
H484 H 0.69581 0.65426 0.57023 0.0
H485 H 0.59019 0.57206 0.72805 0.0
H486 H 0.62812 0.67123 0.65808 0.0
H487 H 0.67125 0.56231 0.6578 0.0
C488 C 0.69835 0.57721 0.6098 0.0
C489 C 0.70506 0.60266 0.58403 0.0
C490 C 0.61986 0.64955 0.67358 0.0
C491 C 0.66169 0.61373 0.64217 0.0
C492 C 0.59318 0.6524 0.69767 0.0
C493 C 0.58159 0.6245 0.71755 0.0
C494 C 0.6351 0.61862 0.66949 0.0
C495 C 0.59792 0.5942 0.71305 0.0
C496 C 0.67686 0.58267 0.63894 0.0
C497 C 0.69126 0.63402 0.5896 0.0
N498 N 0.6237 0.59208 0.68944 0.0
N499 N 0.66981 0.63858 0.61784 0.0
H500 H 0.69466 0.32663 0.0643 0.0
H501 H 0.60038 0.41215 0.23066 0.0
H502 H 0.70407 0.43047 0.09119 0.0
H503 H 0.59275 0.30737 0.20711 0.0
H504 H 0.64257 0.41802 0.18329 0.0
H505 H 0.66238 0.31758 0.12056 0.0
C506 C 0.69048 0.34739 0.08243 0.0
C507 C 0.70173 0.37943 0.07289 0.0
C508 C 0.63183 0.39368 0.1886 0.0
C509 C 0.66435 0.3694 0.13684 0.0
C510 C 0.6076 0.39031 0.21561 0.0
C511 C 0.59264 0.35926 0.22265 0.0
C512 C 0.64113 0.36587 0.1682 0.0
C513 C 0.6034 0.33184 0.20249 0.0
C514 C 0.67183 0.34227 0.11438 0.0
C515 C 0.69533 0.40549 0.09718 0.0
N516 N 0.6268 0.33584 0.17595 0.0
N517 N 0.6768 0.39996 0.12783 0.0
H518 H 0.30705 0.53712 0.60008 0.0
H519 H 0.42442 0.67227 0.69805 0.0
H520 H 0.31689 0.63819 0.56046 0.0
H521 H 0.41473 0.56997 0.73411 0.0
H522 H 0.37921 0.663 0.65281 0.0
H523 H 0.34013 0.5515 0.6551 0.0
C524 C 0.31587 0.56246 0.60329 0.0
C525 C 0.30956 0.58642 0.57564 0.0
C526 C 0.38686 0.64272 0.6709 0.0
C527 C 0.34776 0.60306 0.63815 0.0
C528 C 0.41265 0.64799 0.6967 0.0
C529 C 0.4238 0.62171 0.71945 0.0
C530 C 0.37215 0.61101 0.66801 0.0
C531 C 0.40745 0.59083 0.71669 0.0
C532 C 0.33474 0.5707 0.63464 0.0
C533 C 0.32117 0.61901 0.58125 0.0
N534 N 0.38269 0.58631 0.69128 0.0
N535 N 0.34014 0.62629 0.61167 0.0
H536 H 0.83153 0.8235 0.06032 0.0
H537 H 0.92373 0.90413 0.23563 0.0
H538 H 0.8185 0.9243 0.0961 0.0
H539 H 0.94346 0.80483 0.19824 0.0
H540 H 0.87921 0.90854 0.18969 0.0
H541 H 0.86607 0.81277 0.11579 0.0
C542 C 0.83541 0.84315 0.08026 0.0
C543 C 0.82251 0.87493 0.07356 0.0
C544 C 0.89311 0.88568 0.19154 0.0
C545 C 0.86213 0.86303 0.13653 0.0
C546 C 0.9187 0.88316 0.21775 0.0
C547 C 0.9378 0.85423 0.22042 0.0
C548 C 0.88652 0.85921 0.16746 0.0
C549 C 0.92957 0.8277 0.19692 0.0
C550 C 0.85528 0.83709 0.11172 0.0
C551 C 0.82844 0.8996 0.10002 0.0
N552 N 0.90472 0.83096 0.17109 0.0
N553 N 0.84804 0.8932 0.13017 0.0
H554 H 0.21588 0.05299 0.61375 0.0
H555 H 0.09471 0.17907 0.71022 0.0
H556 H 0.20965 0.15655 0.58305 0.0
H557 H 0.10551 0.07601 0.74245 0.0
H558 H 0.14284 0.17397 0.6701 0.0
H559 H 0.18288 0.06372 0.66855 0.0
C560 C 0.20816 0.07815 0.61915 0.0
C561 C 0.21509 0.10387 0.59385 0.0
C562 C 0.13483 0.15261 0.68628 0.0
C563 C 0.17664 0.11628 0.65571 0.0
C564 C 0.10727 0.15546 0.70907 0.0
C565 C 0.09558 0.12776 0.72918 0.0
C566 C 0.15072 0.12184 0.68359 0.0
C567 C 0.11314 0.09791 0.72695 0.0
C568 C 0.18922 0.0843 0.65028 0.0
C569 C 0.20476 0.13608 0.60202 0.0
N570 N 0.13957 0.09569 0.70432 0.0
N571 N 0.18544 0.1413 0.63193 0.0
H572 H 0.20463 0.8331 0.07203 0.0
H573 H 0.10149 0.9148 0.23339 0.0
H574 H 0.21305 0.93615 0.10267 0.0
H575 H 0.09699 0.81017 0.20841 0.0
H576 H 0.14662 0.92168 0.18973 0.0
H577 H 0.17057 0.82253 0.12656 0.0
C578 C 0.19994 0.85335 0.0907 0.0
C579 C 0.21133 0.88564 0.08261 0.0
C580 C 0.13594 0.89715 0.19393 0.0
C581 C 0.17182 0.8739 0.14451 0.0
C582 C 0.11 0.89321 0.21876 0.0
C583 C 0.09505 0.86192 0.22423 0.0
C584 C 0.14695 0.86968 0.1741 0.0
C585 C 0.10756 0.83481 0.20487 0.0
C586 C 0.18026 0.84736 0.12166 0.0
C587 C 0.20423 0.91101 0.10754 0.0
N588 N 0.13258 0.83938 0.18037 0.0
N589 N 0.18459 0.90468 0.13712 0.0
H590 H 0.79291 0.11324 0.59432 0.0
H591 H 0.96512 0.07667 0.69146 0.0
H592 H 0.87568 0.07174 0.53636 0.0
H593 H 0.91303 0.16575 0.72007 0.0
H594 H 0.92633 0.0683 0.63982 0.0
H595 H 0.83121 0.1283 0.64557 0.0
C596 C 0.81902 0.10743 0.59224 0.0
C597 C 0.83092 0.09043 0.56137 0.0
C598 C 0.92341 0.08973 0.65733 0.0
C599 C 0.87428 0.1071 0.6197 0.0
C600 C 0.94538 0.09444 0.68692 0.0
C601 C 0.94222 0.12195 0.71001 0.0
C602 C 0.89763 0.11232 0.65105 0.0
C603 C 0.91632 0.14432 0.70268 0.0
C604 C 0.84074 0.11602 0.62142 0.0
C605 C 0.86504 0.08363 0.56013 0.0
N606 N 0.89465 0.13886 0.67387 0.0
N607 N 0.88537 0.09159 0.58904 0.0
loop_
_geom_bond_atom_site_label_1
_geom_bond_atom_site_label_2
_geom_bond_distance
_geom_bond_site_symmetry_2
_ccdc_geom_bond_type
H0 C5 0.929 . S
H1 C10 0.931 . S
H2 C8 0.930 . S
N3 N4 1.248 . S
N3 C7 1.450 1_556 S
N4 N3 1.248 . S
C5 H0 0.929 . S
C5 C6 1.373 . S
C5 C7 1.368 . S
C6 C5 1.373 . S
C6 C10 1.397 . S
C7 N3 1.450 1_554 S
C7 C5 1.368 . S
C7 C8 1.373 1_554 S
C8 H2 0.930 . S
C8 C7 1.373 1_556 S
C8 C9 1.371 . S
C9 C8 1.371 . S
C9 C10 1.383 1_556 S
C10 H1 0.931 . S
C10 C6 1.397 . S
C10 C9 1.383 1_554 S
H11 C16 0.929 . S
H12 C21 0.931 . S
H13 C19 0.930 . S
N14 N15 1.234 . S
N14 C18 1.453 . S
N15 N14 1.234 . S
C16 H11 0.929 . S
C16 C17 1.373 . S
C16 C18 1.368 . S
C17 C16 1.373 . S
C17 C21 1.397 . S
C18 N14 1.453 . S
C18 C16 1.368 . S
C18 C19 1.373 . S
C19 H13 0.930 . S
C19 C18 1.373 . S
C19 C20 1.371 . S
C20 C19 1.371 . S
C20 C21 1.383 . S
C21 H12 0.931 . S
C21 C17 1.397 . S
C21 C20 1.383 . S
H22 C27 0.929 . S
H23 C32 0.931 . S
H24 C30 0.930 . S
N25 N26 1.234 1_554 S
N25 C29 1.453 . S
N26 N25 1.234 1_556 S
C27 H22 0.929 . S
C27 C28 1.373 . S
C27 C29 1.368 . S
C28 C27 1.373 . S
C28 C32 1.397 . S
C29 N25 1.453 . S
C29 C27 1.368 . S
C29 C30 1.373 1_554 S
C30 H24 0.930 . S
C30 C29 1.373 1_556 S
C30 C31 1.371 . S
C31 C30 1.371 . S
C31 C32 1.383 1_556 S
C32 H23 0.931 . S
C32 C28 1.397 . S
C32 C31 1.383 1_554 S
H33 C38 0.929 . S
H34 C43 0.931 . S
H35 C41 0.930 . S
N36 N37 1.234 . S
N36 C40 1.453 . S
N37 N36 1.234 . S
C38 H33 0.929 . S
C38 C39 1.373 . S
C38 C40 1.368 . S
C39 C38 1.373 . S
C39 C43 1.397 . S
C40 N36 1.453 . S
C40 C38 1.368 . S
C40 C41 1.373 . S
C41 H35 0.930 . S
C41 C40 1.373 . S
C41 C42 1.371 . S
C42 C41 1.371 . S
C42 C43 1.383 . S
C43 H34 0.931 . S
C43 C39 1.397 . S
C43 C42 1.383 . S
H44 C49 0.929 . S
H45 C54 0.931 . S
H46 C52 0.930 . S
N47 N48 1.248 . S
N47 C51 1.450 1_556 S
N48 N47 1.248 . S
C49 H44 0.929 . S
C49 C50 1.373 . S
C49 C51 1.368 . S
C50 C49 1.373 . S
C50 C54 1.397 . S
C51 N47 1.450 1_554 S
C51 C49 1.368 . S
C51 C52 1.373 1_554 S
C52 H46 0.930 . S
C52 C51 1.373 1_556 S
C52 C53 1.371 . S
C53 C52 1.371 . S
C53 C54 1.383 1_556 S
C54 H45 0.931 . S
C54 C50 1.397 . S
C54 C53 1.383 1_554 S
H55 C60 0.929 . S
H56 C65 0.931 . S
H57 C63 0.930 . S
N58 N59 1.234 . S
N58 C62 1.453 . S
N59 N58 1.234 . S
C60 H55 0.929 . S
C60 C61 1.373 . S
C60 C62 1.368 . S
C61 C60 1.373 . S
C61 C65 1.397 . S
C62 N58 1.453 . S
C62 C60 1.368 . S
C62 C63 1.373 . S
C63 H57 0.930 . S
C63 C62 1.373 . S
C63 C64 1.371 . S
C64 C63 1.371 . S
C64 C65 1.383 . S
C65 H56 0.931 . S
C65 C61 1.397 . S
C65 C64 1.383 . S
H66 C71 0.929 . S
H67 C76 0.931 . S
H68 C74 0.930 . S
N69 N70 1.234 1_554 S
N69 C73 1.453 . S
N70 N69 1.234 1_556 S
C71 H66 0.929 . S
C71 C72 1.373 . S
C71 C73 1.368 . S
C72 C71 1.373 . S
C72 C76 1.397 . S
C73 N69 1.453 . S
C73 C71 1.368 . S
C73 C74 1.373 1_554 S
C74 H68 0.930 . S
C74 C73 1.373 1_556 S
C74 C75 1.371 . S
C75 C74 1.371 . S
C75 C76 1.383 1_556 S
C76 H67 0.931 . S
C76 C72 1.397 . S
C76 C75 1.383 1_554 S
H77 C82 0.929 . S
H78 C87 0.931 . S
H79 C85 0.930 . S
N80 N81 1.234 . S
N80 C84 1.453 . S
N81 N80 1.234 . S
C82 H77 0.929 . S
C82 C83 1.373 . S
C82 C84 1.368 . S
C83 C82 1.373 . S
C83 C87 1.397 . S
C84 N80 1.453 . S
C84 C82 1.368 . S
C84 C85 1.373 . S
C85 H79 0.930 . S
C85 C84 1.373 . S
C85 C86 1.371 . S
C86 C85 1.371 . S
C86 C87 1.383 . S
C87 H78 0.931 . S
C87 C83 1.397 . S
C87 C86 1.383 . S
Sc88 O91 2.025 . S
Sc88 O98 2.105 1_455 S
Sc88 O101 2.105 . S
Sc88 O104 2.105 . S
Sc88 O107 2.105 1_455 S
Sc89 O91 2.025 . S
Sc89 O99 2.105 1_455 S
Sc89 O103 2.105 . S
Sc89 O105 2.105 . S
Sc89 O109 2.105 1_455 S
Sc90 O91 2.025 . S
Sc90 O100 2.105 1_455 S
Sc90 O102 2.105 . S
Sc90 O106 2.105 . S
Sc90 O108 2.105 1_455 S
O91 Sc88 2.025 . S
O91 Sc89 2.025 . S
O91 Sc90 2.025 . S
C92 O98 1.268 . S
C92 O108 1.268 . S
C93 O99 1.268 . S
C93 O107 1.268 . S
C94 O100 1.268 . S
C94 O109 1.268 . S
C95 O101 1.268 . S
C95 O105 1.268 . S
C96 O102 1.268 . S
C96 O104 1.268 . S
C97 O103 1.268 . S
C97 O106 1.268 . S
O98 Sc88 2.105 1_655 S
O98 C92 1.268 . S
O99 Sc89 2.105 1_655 S
O99 C93 1.268 . S
O100 Sc90 2.105 1_655 S
O100 C94 1.268 . S
O101 Sc88 2.105 . S
O101 C95 1.268 . S
O102 Sc90 2.105 . S
O102 C96 1.268 . S
O103 Sc89 2.105 . S
O103 C97 1.268 . S
O104 Sc88 2.105 . S
O104 C96 1.268 . S
O105 Sc89 2.105 . S
O105 C95 1.268 . S
O106 Sc90 2.105 . S
O106 C97 1.268 . S
O107 Sc88 2.105 1_655 S
O107 C93 1.268 . S
O108 Sc90 2.105 1_655 S
O108 C92 1.268 . S
O109 Sc89 2.105 1_655 S
O109 C94 1.268 . S
Sc110 O113 2.025 . S
Sc110 O120 2.105 . S
Sc110 O123 2.105 1_455 S
Sc110 O126 2.105 1_455 S
Sc110 O129 2.105 . S
Sc111 O113 2.025 . S
Sc111 O121 2.105 . S
Sc111 O125 2.105 1_455 S
Sc111 O127 2.105 1_455 S
Sc111 O131 2.105 . S
Sc112 O113 2.025 . S
Sc112 O122 2.105 . S
Sc112 O124 2.105 1_455 S
Sc112 O128 2.105 1_455 S
Sc112 O130 2.105 . S
O113 Sc110 2.025 . S
O113 Sc111 2.025 . S
O113 Sc112 2.025 . S
C114 O120 1.268 . S
C114 O130 1.268 . S
C115 O121 1.268 . S
C115 O129 1.268 . S
C116 O122 1.268 . S
C116 O131 1.268 . S
C117 O123 1.268 . S
C117 O127 1.268 . S
C118 O124 1.268 . S
C118 O126 1.268 . S
C119 O125 1.268 . S
C119 O128 1.268 . S
O120 Sc110 2.105 . S
O120 C114 1.268 . S
O121 Sc111 2.105 . S
O121 C115 1.268 . S
O122 Sc112 2.105 . S
O122 C116 1.268 . S
O123 Sc110 2.105 1_655 S
O123 C117 1.268 . S
O124 Sc112 2.105 1_655 S
O124 C118 1.268 . S
O125 Sc111 2.105 1_655 S
O125 C119 1.268 . S
O126 Sc110 2.105 1_655 S
O126 C118 1.268 . S
O127 Sc111 2.105 1_655 S
O127 C117 1.268 . S
O128 Sc112 2.105 1_655 S
O128 C119 1.268 . S
O129 Sc110 2.105 . S
O129 C115 1.268 . S
O130 Sc112 2.105 . S
O130 C114 1.268 . S
O131 Sc111 2.105 . S
O131 C116 1.268 . S
Sc132 O135 2.025 . S
Sc132 O142 2.105 . S
Sc132 O145 2.105 . S
Sc132 O148 2.105 . S
Sc132 O151 2.105 . S
Sc133 O135 2.025 . S
Sc133 O143 2.105 . S
Sc133 O147 2.105 . S
Sc133 O149 2.105 . S
Sc133 O153 2.105 . S
Sc134 O135 2.025 . S
Sc134 O144 2.105 . S
Sc134 O146 2.105 . S
Sc134 O150 2.105 . S
Sc134 O152 2.105 . S
O135 Sc132 2.025 . S
O135 Sc133 2.025 . S
O135 Sc134 2.025 . S
C136 O142 1.268 . S
C136 O152 1.268 . S
C137 O143 1.268 . S
C137 O151 1.268 . S
C138 O144 1.268 . S
C138 O153 1.268 . S
C139 O145 1.268 . S
C139 O149 1.268 . S
C140 O146 1.268 . S
C140 O148 1.268 . S
C141 O147 1.268 . S
C141 O150 1.268 . S
O142 Sc132 2.105 . S
O142 C136 1.268 . S
O143 Sc133 2.105 . S
O143 C137 1.268 . S
O144 Sc134 2.105 . S
O144 C138 1.268 . S
O145 Sc132 2.105 . S
O145 C139 1.268 . S
O146 Sc134 2.105 . S
O146 C140 1.268 . S
O147 Sc133 2.105 . S
O147 C141 1.268 . S
O148 Sc132 2.105 . S
O148 C140 1.268 . S
O149 Sc133 2.105 . S
O149 C139 1.268 . S
O150 Sc134 2.105 . S
O150 C141 1.268 . S
O151 Sc132 2.105 . S
O151 C137 1.268 . S
O152 Sc134 2.105 . S
O152 C136 1.268 . S
O153 Sc133 2.105 . S
O153 C138 1.268 . S
Sc154 O157 2.025 . S
Sc154 O164 2.105 . S
Sc154 O167 2.105 . S
Sc154 O170 2.105 . S
Sc154 O173 2.105 . S
Sc155 O157 2.025 . S
Sc155 O165 2.105 . S
Sc155 O169 2.105 . S
Sc155 O171 2.105 . S
Sc155 O175 2.105 . S
Sc156 O157 2.025 . S
Sc156 O166 2.105 . S
Sc156 O168 2.105 . S
Sc156 O172 2.105 . S
Sc156 O174 2.105 . S
O157 Sc154 2.025 . S
O157 Sc155 2.025 . S
O157 Sc156 2.025 . S
C158 O164 1.268 . S
C158 O174 1.268 . S
C159 O165 1.268 . S
C159 O173 1.268 . S
C160 O166 1.268 . S
C160 O175 1.268 . S
C161 O167 1.268 . S
C161 O171 1.268 . S
C162 O168 1.268 . S
C162 O170 1.268 . S
C163 O169 1.268 . S
C163 O172 1.268 . S
O164 Sc154 2.105 . S
O164 C158 1.268 . S
O165 Sc155 2.105 . S
O165 C159 1.268 . S
O166 Sc156 2.105 . S
O166 C160 1.268 . S
O167 Sc154 2.105 . S
O167 C161 1.268 . S
O168 Sc156 2.105 . S
O168 C162 1.268 . S
O169 Sc155 2.105 . S
O169 C163 1.268 . S
O170 Sc154 2.105 . S
O170 C162 1.268 . S
O171 Sc155 2.105 . S
O171 C161 1.268 . S
O172 Sc156 2.105 . S
O172 C163 1.268 . S
O173 Sc154 2.105 . S
O173 C159 1.268 . S
O174 Sc156 2.105 . S
O174 C158 1.268 . S
O175 Sc155 2.105 . S
O175 C160 1.268 . S
H176 C182 0.930 . S
H177 C186 0.930 . S
H178 C191 0.929 . S
H179 C189 0.929 . S
H180 C184 0.929 . S
H181 C190 0.929 . S
C182 H176 0.930 . S
C182 C183 1.367 . S
C182 C190 1.378 . S
C183 C182 1.367 . S
C183 C191 1.433 . S
C184 H180 0.929 . S
C184 C186 1.378 . S
C184 C188 1.350 . S
C185 C188 1.463 . S
C185 C190 1.350 . S
C185 N193 1.427 . S
C186 H177 0.930 . S
C186 C184 1.378 . S
C186 C187 1.367 . S
C187 C186 1.367 . S
C187 C189 1.433 . S
C188 C184 1.350 . S
C188 C185 1.463 . S
C188 N192 1.427 . S
C189 H179 0.929 . S
C189 C187 1.433 . S
C189 N192 1.384 . S
C190 H181 0.929 . S
C190 C182 1.378 . S
C190 C185 1.350 . S
C191 H178 0.929 . S
C191 C183 1.433 . S
C191 N193 1.384 . S
N192 C188 1.427 . S
N192 C189 1.384 . S
N193 C185 1.427 . S
N193 C191 1.384 . S
H194 C200 0.930 . S
H195 C204 0.930 . S
H196 C209 0.929 . S
H197 C207 0.929 . S
H198 C202 0.929 . S
H199 C208 0.929 . S
C200 H194 0.930 . S
C200 C201 1.367 . S
C200 C208 1.378 . S
C201 C200 1.367 . S
C201 C209 1.433 . S
C202 H198 0.929 . S
C202 C204 1.378 . S
C202 C206 1.350 . S
C203 C206 1.463 . S
C203 C208 1.350 . S
C203 N211 1.427 . S
C204 H195 0.930 . S
C204 C202 1.378 . S
C204 C205 1.367 . S
C205 C204 1.367 . S
C205 C207 1.433 . S
C206 C202 1.350 . S
C206 C203 1.463 . S
C206 N210 1.427 . S
C207 H197 0.929 . S
C207 C205 1.433 . S
C207 N210 1.384 . S
C208 H199 0.929 . S
C208 C200 1.378 . S
C208 C203 1.350 . S
C209 H196 0.929 . S
C209 C201 1.433 . S
C209 N211 1.384 . S
N210 C206 1.427 . S
N210 C207 1.384 . S
N211 C203 1.427 . S
N211 C209 1.384 . S
H212 C218 0.930 . S
H213 C222 0.930 . S
H214 C227 0.929 . S
H215 C225 0.929 . S
H216 C220 0.929 . S
H217 C226 0.929 . S
C218 H212 0.930 . S
C218 C219 1.367 . S
C218 C226 1.378 . S
C219 C218 1.367 . S
C219 C227 1.433 . S
C220 H216 0.929 . S
C220 C222 1.378 . S
C220 C224 1.350 . S
C221 C224 1.463 . S
C221 C226 1.350 . S
C221 N229 1.427 . S
C222 H213 0.930 . S
C222 C220 1.378 . S
C222 C223 1.367 . S
C223 C222 1.367 . S
C223 C225 1.433 . S
C224 C220 1.350 . S
C224 C221 1.463 . S
C224 N228 1.427 . S
C225 H215 0.929 . S
C225 C223 1.433 . S
C225 N228 1.384 . S
C226 H217 0.929 . S
C226 C218 1.378 . S
C226 C221 1.350 . S
C227 H214 0.929 . S
C227 C219 1.433 . S
C227 N229 1.384 . S
N228 C224 1.427 . S
N228 C225 1.384 . S
N229 C221 1.427 . S
N229 C227 1.384 . S
H230 C236 0.930 . S
H231 C240 0.930 . S
H232 C245 0.929 . S
H233 C243 0.929 . S
H234 C238 0.929 . S
H235 C244 0.929 . S
C236 H230 0.930 . S
C236 C237 1.367 . S
C236 C244 1.378 . S
C237 C236 1.367 . S
C237 C245 1.433 . S
C238 H234 0.929 . S
C238 C240 1.378 . S
C238 C242 1.350 . S
C239 C242 1.463 . S
C239 C244 1.350 . S
C239 N247 1.427 . S
C240 H231 0.930 . S
C240 C238 1.378 . S
C240 C241 1.367 . S
C241 C240 1.367 . S
C241 C243 1.433 . S
C242 C238 1.350 . S
C242 C239 1.463 . S
C242 N246 1.427 . S
C243 H233 0.929 . S
C243 C241 1.433 . S
C243 N246 1.384 . S
C244 H235 0.929 . S
C244 C236 1.378 . S
C244 C239 1.350 . S
C245 H232 0.929 . S
C245 C237 1.433 . S
C245 N247 1.384 . S
N246 C242 1.427 . S
N246 C243 1.384 . S
N247 C239 1.427 . S
N247 C245 1.384 . S
H248 C254 0.930 . S
H249 C258 0.930 . S
H250 C263 0.914 1_554 S
H251 C261 0.929 . S
H252 C256 0.929 . S
H253 C262 0.929 . S
C254 H248 0.930 . S
C254 C255 1.367 . S
C254 C262 1.378 . S
C255 C254 1.367 . S
C255 C263 1.433 . S
C256 H252 0.929 . S
C256 C258 1.378 . S
C256 C260 1.350 . S
C257 C260 1.463 . S
C257 C262 1.350 . S
C257 N265 1.427 . S
C258 H249 0.930 . S
C258 C256 1.378 . S
C258 C259 1.367 . S
C259 C258 1.367 . S
C259 C261 1.433 . S
C260 C256 1.350 . S
C260 C257 1.463 . S
C260 N264 1.427 . S
C261 H251 0.929 . S
C261 C259 1.433 . S
C261 N264 1.384 . S
C262 H253 0.929 . S
C262 C254 1.378 . S
C262 C257 1.350 . S
C263 H250 0.914 1_556 S
C263 C255 1.433 . S
C263 N265 1.384 . S
N264 C260 1.427 . S
N264 C261 1.384 . S
N265 C257 1.427 . S
N265 C263 1.384 . S
H266 C272 0.930 . S
H267 C276 0.930 . S
H268 C281 0.929 . S
H269 C279 0.929 . S
H270 C274 0.929 . S
H271 C280 0.929 . S
C272 H266 0.930 . S
C272 C273 1.367 . S
C272 C280 1.378 . S
C273 C272 1.367 . S
C273 C281 1.433 . S
C274 H270 0.929 . S
C274 C276 1.378 . S
C274 C278 1.350 . S
C275 C278 1.463 . S
C275 C280 1.350 . S
C275 N283 1.427 . S
C276 H267 0.930 . S
C276 C274 1.378 . S
C276 C277 1.367 . S
C277 C276 1.367 . S
C277 C279 1.433 . S
C278 C274 1.350 . S
C278 C275 1.463 . S
C278 N282 1.427 . S
C279 H269 0.929 . S
C279 C277 1.433 . S
C279 N282 1.384 . S
C280 H271 0.929 . S
C280 C272 1.378 . S
C280 C275 1.350 . S
C281 H268 0.929 . S
C281 C273 1.433 . S
C281 N283 1.384 . S
N282 C278 1.427 . S
N282 C279 1.384 . S
N283 C275 1.427 . S
N283 C281 1.384 . S
H284 C290 0.930 . S
H285 C294 0.930 . S
H286 C299 0.929 . S
H287 C297 0.929 . S
H288 C292 0.929 . S
H289 C298 0.929 . S
C290 H284 0.930 . S
C290 C291 1.367 . S
C290 C298 1.378 . S
C291 C290 1.367 . S
C291 C299 1.433 . S
C292 H288 0.929 . S
C292 C294 1.378 . S
C292 C296 1.350 . S
C293 C296 1.463 . S
C293 C298 1.350 . S
C293 N301 1.427 . S
C294 H285 0.930 . S
C294 C292 1.378 . S
C294 C295 1.367 . S
C295 C294 1.367 . S
C295 C297 1.433 . S
C296 C292 1.350 . S
C296 C293 1.463 . S
C296 N300 1.427 . S
C297 H287 0.929 . S
C297 C295 1.433 . S
C297 N300 1.384 . S
C298 H289 0.929 . S
C298 C290 1.378 . S
C298 C293 1.350 . S
C299 H286 0.929 . S
C299 C291 1.433 . S
C299 N301 1.384 . S
N300 C296 1.427 . S
N300 C297 1.384 . S
N301 C293 1.427 . S
N301 C299 1.384 . S
H302 C308 0.930 . S
H303 C312 0.930 . S
H304 C317 0.929 . S
H305 C315 0.929 . S
H306 C310 0.929 . S
H307 C316 0.929 . S
C308 H302 0.930 . S
C308 C309 1.367 . S
C308 C316 1.378 . S
C309 C308 1.367 . S
C309 C317 1.433 . S
C310 H306 0.929 . S
C310 C312 1.378 . S
C310 C314 1.350 . S
C311 C314 1.463 . S
C311 C316 1.350 . S
C311 N319 1.427 . S
C312 H303 0.930 . S
C312 C310 1.378 . S
C312 C313 1.367 . S
C313 C312 1.367 . S
C313 C315 1.433 . S
C314 C310 1.350 . S
C314 C311 1.463 . S
C314 N318 1.427 . S
C315 H305 0.929 . S
C315 C313 1.433 . S
C315 N318 1.384 . S
C316 H307 0.929 . S
C316 C308 1.378 . S
C316 C311 1.350 . S
C317 H304 0.929 . S
C317 C309 1.433 . S
C317 N319 1.384 . S
N318 C314 1.427 . S
N318 C315 1.384 . S
N319 C311 1.427 . S
N319 C317 1.384 . S
H320 C326 0.930 1_554 S
H321 C330 0.930 . S
H322 C335 0.929 . S
H323 C333 0.929 . S
H324 C328 0.929 . S
H325 C334 0.929 . S
C326 H320 0.930 1_556 S
C326 C327 1.367 . S
C326 C334 1.378 . S
C327 C326 1.367 . S
C327 C335 1.433 . S
C328 H324 0.929 . S
C328 C330 1.378 . S
C328 C332 1.350 . S
C329 C332 1.463 . S
C329 C334 1.350 . S
C329 N337 1.427 . S
C330 H321 0.930 . S
C330 C328 1.378 . S
C330 C331 1.367 . S
C331 C330 1.367 . S
C331 C333 1.433 . S
C332 C328 1.350 . S
C332 C329 1.463 . S
C332 N336 1.427 . S
C333 H323 0.929 . S
C333 C331 1.433 . S
C333 N336 1.384 . S
C334 H325 0.929 . S
C334 C326 1.378 . S
C334 C329 1.350 . S
C335 H322 0.929 . S
C335 C327 1.433 . S
C335 N337 1.384 . S
N336 C332 1.427 . S
N336 C333 1.384 . S
N337 C329 1.427 . S
N337 C335 1.384 . S
H338 C344 0.930 . S
H339 C348 0.930 . S
H340 C353 0.929 . S
H341 C351 0.929 . S
H342 C346 0.929 . S
H343 C352 0.929 . S
C344 H338 0.930 . S
C344 C345 1.367 . S
C344 C352 1.378 . S
C345 C344 1.367 . S
C345 C353 1.433 . S
C346 H342 0.929 . S
C346 C348 1.378 . S
C346 C350 1.350 . S
C347 C350 1.463 . S
C347 C352 1.350 . S
C347 N355 1.427 . S
C348 H339 0.930 . S
C348 C346 1.378 . S
C348 C349 1.367 . S
C349 C348 1.367 . S
C349 C351 1.433 . S
C350 C346 1.350 . S
C350 C347 1.463 . S
C350 N354 1.427 . S
C351 H341 0.929 . S
C351 C349 1.433 . S
C351 N354 1.384 . S
C352 H343 0.929 . S
C352 C344 1.378 . S
C352 C347 1.350 . S
C353 H340 0.929 . S
C353 C345 1.433 . S
C353 N355 1.384 . S
N354 C350 1.427 . S
N354 C351 1.384 . S
N355 C347 1.427 . S
N355 C353 1.384 . S
H356 C362 0.930 . S
H357 C366 0.930 . S
H358 C371 0.929 . S
H359 C369 0.929 . S
H360 C364 0.929 . S
H361 C370 0.929 . S
C362 H356 0.930 . S
C362 C363 1.367 . S
C362 C370 1.378 . S
C363 C362 1.367 . S
C363 C371 1.433 . S
C364 H360 0.929 . S
C364 C366 1.378 . S
C364 C368 1.350 . S
C365 C368 1.463 . S
C365 C370 1.350 . S
C365 N373 1.427 . S
C366 H357 0.930 . S
C366 C364 1.378 . S
C366 C367 1.367 . S
C367 C366 1.367 . S
C367 C369 1.433 . S
C368 C364 1.350 . S
C368 C365 1.463 . S
C368 N372 1.427 . S
C369 H359 0.929 . S
C369 C367 1.433 . S
C369 N372 1.384 . S
C370 H361 0.929 . S
C370 C362 1.378 . S
C370 C365 1.350 . S
C371 H358 0.929 . S
C371 C363 1.433 . S
C371 N373 1.384 . S
N372 C368 1.427 . S
N372 C369 1.384 . S
N373 C365 1.427 . S
N373 C371 1.384 . S
H374 C380 0.930 . S
H375 C384 0.930 . S
H376 C389 0.929 . S
H377 C387 0.929 . S
H378 C382 0.929 . S
H379 C388 0.929 . S
C380 H374 0.930 . S
C380 C381 1.367 . S
C380 C388 1.378 . S
C381 C380 1.367 . S
C381 C389 1.433 . S
C382 H378 0.929 . S
C382 C384 1.378 . S
C382 C386 1.350 . S
C383 C386 1.463 . S
C383 C388 1.350 . S
C383 N391 1.427 . S
C384 H375 0.930 . S
C384 C382 1.378 . S
C384 C385 1.367 . S
C385 C384 1.367 . S
C385 C387 1.433 . S
C386 C382 1.350 . S
C386 C383 1.463 . S
C386 N390 1.427 . S
C387 H377 0.929 . S
C387 C385 1.433 . S
C387 N390 1.384 . S
C388 H379 0.929 . S
C388 C380 1.378 . S
C388 C383 1.350 . S
C389 H376 0.929 . S
C389 C381 1.433 . S
C389 N391 1.384 . S
N390 C386 1.427 . S
N390 C387 1.384 . S
N391 C383 1.427 . S
N391 C389 1.384 . S
H392 C398 0.930 1_554 S
H393 C402 0.930 . S
H394 C407 0.929 . S
H395 C405 0.929 . S
H396 C400 0.929 1_565 S
H397 C406 0.929 . S
C398 H392 0.930 1_556 S
C398 C399 1.367 . S
C398 C406 1.378 . S
C399 C398 1.367 . S
C399 C407 1.433 . S
C400 H396 0.929 1_545 S
C400 C402 1.378 . S
C400 C404 1.350 . S
C401 C404 1.463 1_565 S
C401 C406 1.350 . S
C401 N409 1.427 . S
C402 H393 0.930 . S
C402 C400 1.378 . S
C402 C403 1.367 . S
C403 C402 1.367 . S
C403 C405 1.433 . S
C404 C400 1.350 . S
C404 C401 1.463 1_545 S
C404 N408 1.427 . S
C405 H395 0.929 . S
C405 C403 1.433 . S
C405 N408 1.384 . S
C406 H397 0.929 . S
C406 C398 1.378 . S
C406 C401 1.350 . S
C407 H394 0.929 . S
C407 C399 1.433 . S
C407 N409 1.384 . S
N408 C404 1.427 . S
N408 C405 1.384 . S
N409 C401 1.427 . S
N409 C407 1.384 . S
H410 C416 0.930 . S
H411 C420 0.930 . S
H412 C425 0.929 . S
H413 C423 0.929 . S
H414 C418 0.929 . S
H415 C424 0.929 . S
C416 H410 0.930 . S
C416 C417 1.367 . S
C416 C424 1.378 . S
C417 C416 1.367 . S
C417 C425 1.433 . S
C418 H414 0.929 . S
C418 C420 1.378 . S
C418 C422 1.350 . S
C419 C422 1.463 1_545 S
C419 C424 1.350 . S
C419 N427 1.427 . S
C420 H411 0.930 . S
C420 C418 1.378 . S
C420 C421 1.367 . S
C421 C420 1.367 . S
C421 C423 1.433 . S
C422 C418 1.350 . S
C422 C419 1.463 1_565 S
C422 N426 1.427 . S
C423 H413 0.929 . S
C423 C421 1.433 . S
C423 N426 1.384 . S
C424 H415 0.929 . S
C424 C416 1.378 . S
C424 C419 1.350 . S
C425 H412 0.929 . S
C425 C417 1.433 . S
C425 N427 1.384 . S
N426 C422 1.427 . S
N426 C423 1.384 . S
N427 C419 1.427 . S
N427 C425 1.384 . S
H428 C434 0.930 1_554 S
H429 C438 0.930 . S
H430 C443 0.929 . S
H431 C441 0.929 . S
H432 C436 0.929 1_565 S
H433 C442 0.929 1_545 S
C434 H428 0.930 1_556 S
C434 C435 1.367 . S
C434 C442 1.378 . S
C435 C434 1.367 . S
C435 C443 1.433 . S
C436 H432 0.929 1_545 S
C436 C438 1.378 . S
C436 C440 1.350 . S
C437 C440 1.463 1_565 S
C437 C442 1.350 . S
C437 N445 1.427 . S
C438 H429 0.930 . S
C438 C436 1.378 . S
C438 C439 1.367 . S
C439 C438 1.367 . S
C439 C441 1.433 . S
C440 C436 1.350 . S
C440 C437 1.463 1_545 S
C440 N444 1.427 . S
C441 H431 0.929 . S
C441 C439 1.433 . S
C441 N444 1.384 . S
C442 H433 0.929 1_565 S
C442 C434 1.378 . S
C442 C437 1.350 . S
C443 H430 0.929 . S
C443 C435 1.433 . S
C443 N445 1.384 . S
N444 C440 1.427 . S
N444 C441 1.384 . S
N445 C437 1.427 . S
N445 C443 1.384 . S
H446 C452 0.930 . S
H447 C456 0.930 . S
H448 C461 0.929 . S
H449 C459 0.929 . S
H450 C454 0.929 . S
H451 C460 0.929 . S
C452 H446 0.930 . S
C452 C453 1.367 . S
C452 C460 1.378 . S
C453 C452 1.367 . S
C453 C461 1.433 . S
C454 H450 0.929 . S
C454 C456 1.378 . S
C454 C458 1.350 . S
C455 C458 1.463 1_545 S
C455 C460 1.350 . S
C455 N463 1.427 1_545 S
C456 H447 0.930 . S
C456 C454 1.378 . S
C456 C457 1.367 . S
C457 C456 1.367 . S
C457 C459 1.433 . S
C458 C454 1.350 . S
C458 C455 1.463 1_565 S
C458 N462 1.427 . S
C459 H449 0.929 . S
C459 C457 1.433 . S
C459 N462 1.384 . S
C460 H451 0.929 . S
C460 C452 1.378 . S
C460 C455 1.350 . S
C461 H448 0.929 . S
C461 C453 1.433 . S
C461 N463 1.384 1_545 S
N462 C458 1.427 . S
N462 C459 1.384 . S
N463 C455 1.427 1_565 S
N463 C461 1.384 1_565 S
H464 C470 0.930 . S
H465 C474 0.930 . S
H466 C479 0.929 . S
H467 C477 0.929 . S
H468 C472 0.929 . S
H469 C478 0.929 . S
C470 H464 0.930 . S
C470 C471 1.367 . S
C470 C478 1.378 . S
C471 C470 1.367 . S
C471 C479 1.433 . S
C472 H468 0.929 . S
C472 C474 1.378 . S
C472 C476 1.350 . S
C473 C476 1.463 . S
C473 C478 1.350 . S
C473 N481 1.427 . S
C474 H465 0.930 . S
C474 C472 1.378 . S
C474 C475 1.367 . S
C475 C474 1.367 . S
C475 C477 1.433 . S
C476 C472 1.350 . S
C476 C473 1.463 . S
C476 N480 1.427 . S
C477 H467 0.929 . S
C477 C475 1.433 . S
C477 N480 1.384 . S
C478 H469 0.929 . S
C478 C470 1.378 . S
C478 C473 1.350 . S
C479 H466 0.929 . S
C479 C471 1.433 . S
C479 N481 1.384 . S
N480 C476 1.427 . S
N480 C477 1.384 . S
N481 C473 1.427 . S
N481 C479 1.384 . S
H482 C488 0.930 . S
H483 C492 0.930 . S
H484 C497 0.929 . S
H485 C495 0.929 . S
H486 C490 0.929 . S
H487 C496 0.929 . S
C488 H482 0.930 . S
C488 C489 1.367 . S
C488 C496 1.378 . S
C489 C488 1.367 . S
C489 C497 1.433 . S
C490 H486 0.929 . S
C490 C492 1.378 . S
C490 C494 1.350 . S
C491 C494 1.463 . S
C491 C496 1.350 . S
C491 N499 1.427 . S
C492 H483 0.930 . S
C492 C490 1.378 . S
C492 C493 1.367 . S
C493 C492 1.367 . S
C493 C495 1.433 . S
C494 C490 1.350 . S
C494 C491 1.463 . S
C494 N498 1.427 . S
C495 H485 0.929 . S
C495 C493 1.433 . S
C495 N498 1.384 . S
C496 H487 0.929 . S
C496 C488 1.378 . S
C496 C491 1.350 . S
C497 H484 0.929 . S
C497 C489 1.433 . S
C497 N499 1.384 . S
N498 C494 1.427 . S
N498 C495 1.384 . S
N499 C491 1.427 . S
N499 C497 1.384 . S
H500 C506 0.930 . S
H501 C510 0.930 . S
H502 C515 0.929 . S
H503 C513 0.929 . S
H504 C508 0.929 . S
H505 C514 0.929 . S
C506 H500 0.930 . S
C506 C507 1.367 . S
C506 C514 1.378 . S
C507 C506 1.367 . S
C507 C515 1.433 . S
C508 H504 0.929 . S
C508 C510 1.378 . S
C508 C512 1.350 . S
C509 C512 1.463 . S
C509 C514 1.350 . S
C509 N517 1.427 . S
C510 H501 0.930 . S
C510 C508 1.378 . S
C510 C511 1.367 . S
C511 C510 1.367 . S
C511 C513 1.433 . S
C512 C508 1.350 . S
C512 C509 1.463 . S
C512 N516 1.427 . S
C513 H503 0.929 . S
C513 C511 1.433 . S
C513 N516 1.384 . S
C514 H505 0.929 . S
C514 C506 1.378 . S
C514 C509 1.350 . S
C515 H502 0.929 . S
C515 C507 1.433 . S
C515 N517 1.384 . S
N516 C512 1.427 . S
N516 C513 1.384 . S
N517 C509 1.427 . S
N517 C515 1.384 . S
H518 C524 0.930 . S
H519 C528 0.930 . S
H520 C533 0.929 . S
H521 C531 0.929 . S
H522 C526 0.929 . S
H523 C532 0.929 . S
C524 H518 0.930 . S
C524 C525 1.367 . S
C524 C532 1.378 . S
C525 C524 1.367 . S
C525 C533 1.433 . S
C526 H522 0.929 . S
C526 C528 1.378 . S
C526 C530 1.350 . S
C527 C530 1.463 . S
C527 C532 1.350 . S
C527 N535 1.427 . S
C528 H519 0.930 . S
C528 C526 1.378 . S
C528 C529 1.367 . S
C529 C528 1.367 . S
C529 C531 1.433 . S
C530 C526 1.350 . S
C530 C527 1.463 . S
C530 N534 1.427 . S
C531 H521 0.929 . S
C531 C529 1.433 . S
C531 N534 1.384 . S
C532 H523 0.929 . S
C532 C524 1.378 . S
C532 C527 1.350 . S
C533 H520 0.929 . S
C533 C525 1.433 . S
C533 N535 1.384 . S
N534 C530 1.427 . S
N534 C531 1.384 . S
N535 C527 1.427 . S
N535 C533 1.384 . S
H536 C542 0.930 . S
H537 C546 0.930 . S
H538 C551 0.929 . S
H539 C549 0.929 . S
H540 C544 0.929 . S
H541 C550 0.929 . S
C542 H536 0.930 . S
C542 C543 1.367 . S
C542 C550 1.378 . S
C543 C542 1.367 . S
C543 C551 1.433 . S
C544 H540 0.929 . S
C544 C546 1.378 . S
C544 C548 1.350 . S
C545 C548 1.463 . S
C545 C550 1.350 . S
C545 N553 1.427 . S
C546 H537 0.930 . S
C546 C544 1.378 . S
C546 C547 1.367 . S
C547 C546 1.367 . S
C547 C549 1.433 . S
C548 C544 1.350 . S
C548 C545 1.463 . S
C548 N552 1.427 . S
C549 H539 0.929 . S
C549 C547 1.433 . S
C549 N552 1.384 . S
C550 H541 0.929 . S
C550 C542 1.378 . S
C550 C545 1.350 . S
C551 H538 0.929 . S
C551 C543 1.433 . S
C551 N553 1.384 . S
N552 C548 1.427 . S
N552 C549 1.384 . S
N553 C545 1.427 . S
N553 C551 1.384 . S
H554 C560 0.930 . S
H555 C564 0.930 . S
H556 C569 0.929 . S
H557 C567 0.929 . S
H558 C562 0.929 . S
H559 C568 0.929 . S
C560 H554 0.930 . S
C560 C561 1.367 . S
C560 C568 1.378 . S
C561 C560 1.367 . S
C561 C569 1.433 . S
C562 H558 0.929 . S
C562 C564 1.378 . S
C562 C566 1.350 . S
C563 C566 1.463 . S
C563 C568 1.350 . S
C563 N571 1.427 . S
C564 H555 0.930 . S
C564 C562 1.378 . S
C564 C565 1.367 . S
C565 C564 1.367 . S
C565 C567 1.433 . S
C566 C562 1.350 . S
C566 C563 1.463 . S
C566 N570 1.427 . S
C567 H557 0.929 . S
C567 C565 1.433 . S
C567 N570 1.384 . S
C568 H559 0.929 . S
C568 C560 1.378 . S
C568 C563 1.350 . S
C569 H556 0.929 . S
C569 C561 1.433 . S
C569 N571 1.384 . S
N570 C566 1.427 . S
N570 C567 1.384 . S
N571 C563 1.427 . S
N571 C569 1.384 . S
H572 C578 0.930 . S
H573 C582 0.930 . S
H574 C587 0.929 . S
H575 C585 0.929 . S
H576 C580 0.929 . S
H577 C586 0.929 . S
C578 H572 0.930 . S
C578 C579 1.367 . S
C578 C586 1.378 . S
C579 C578 1.367 . S
C579 C587 1.433 . S
C580 H576 0.929 . S
C580 C582 1.378 . S
C580 C584 1.350 . S
C581 C584 1.463 . S
C581 C586 1.350 . S
C581 N589 1.427 . S
C582 H573 0.930 . S
C582 C580 1.378 . S
C582 C583 1.367 . S
C583 C582 1.367 . S
C583 C585 1.433 . S
C584 C580 1.350 . S
C584 C581 1.463 . S
C584 N588 1.427 . S
C585 H575 0.929 . S
C585 C583 1.433 . S
C585 N588 1.384 . S
C586 H577 0.929 . S
C586 C578 1.378 . S
C586 C581 1.350 . S
C587 H574 0.929 . S
C587 C579 1.433 . S
C587 N589 1.384 . S
N588 C584 1.427 . S
N588 C585 1.384 . S
N589 C581 1.427 . S
N589 C587 1.384 . S
H590 C596 0.930 . S
H591 C600 0.930 . S
H592 C605 0.929 . S
H593 C603 0.929 . S
H594 C598 0.929 . S
H595 C604 0.929 . S
C596 H590 0.930 . S
C596 C597 1.367 . S
C596 C604 1.378 . S
C597 C596 1.367 . S
C597 C605 1.433 . S
C598 H594 0.929 . S
C598 C600 1.378 . S
C598 C602 1.350 . S
C599 C602 1.463 . S
C599 C604 1.350 . S
C599 N607 1.427 . S
C600 H591 0.930 . S
C600 C598 1.378 . S
C600 C601 1.367 . S
C601 C600 1.367 . S
C601 C603 1.433 . S
C602 C598 1.350 . S
C602 C599 1.463 . S
C602 N606 1.427 . S
C603 H593 0.929 . S
C603 C601 1.433 . S
C603 N606 1.384 . S
C604 H595 0.929 . S
C604 C596 1.378 . S
C604 C599 1.350 . S
C605 H592 0.929 . S
C605 C597 1.433 . S
C605 N607 1.384 . S
N606 C602 1.427 . S
N606 C603 1.384 . S
N607 C599 1.427 . S
N607 C605 1.384 . S
C183 N4 1.531 . S
C187 C114 1.510 . S
C205 C92 1.521 . S
C201 N15 1.537 . S
C223 C118 1.589 . S
C219 N26 1.605 . S
C241 C96 1.460 . S
C237 N37 1.482 . S
C259 C158 1.514 . S
C255 N48 1.530 . S
C277 C136 1.514 . S
C273 N59 1.534 . S
C291 N70 1.603 . S
C295 C162 1.587 . S
C313 C140 1.459 . S
C309 N81 1.477 . S
C327 C9 1.495 . S
C331 C163 1.525 . S
C349 C141 1.499 . S
C345 C20 1.469 . S
C363 C31 1.558 . S
C367 C160 1.582 . S
C381 C39 1.416 . S
C385 C138 1.418 . S
C403 C119 1.524 . S
C399 C53 1.496 . S
C417 C64 1.468 . S
C421 C97 1.499 . S
C439 C116 1.581 . S
C435 C75 1.554 . S
C457 C94 1.420 . S
C453 C83 1.414 . S
C475 C137 1.481 . S
C471 C6 1.484 . S
C493 C159 1.472 . S
C489 C17 1.472 . S
C507 C28 1.493 . S
C511 C139 1.482 . S
C529 C161 1.471 . S
C525 C42 1.463 . S
C547 C93 1.480 . S
C543 C50 1.482 . S
C561 C61 1.473 . S
C565 C115 1.472 . S
C579 C72 1.495 . S
C583 C95 1.480 . S
C597 C86 1.464 . S
C601 C117 1.470 . S
