# Generated by pormake.
# Topology ptr, (4,4)-cn, num edge types: 1
# Building blocks:
#     Node 0, Type 0, BuildingBlock: CEKHIL_clean_sbu_0, # of connection points: 4
#     Node 1, Type 0, BuildingBlock: CEKHIL_clean_sbu_0, # of connection points: 4
#     Node 2, Type 0, BuildingBlock: CEKHIL_clean_sbu_0, # of connection points: 4
#     Node 3, Type 0, BuildingBlock: CEKHIL_clean_sbu_0, # of connection points: 4
#     Node 4, Type 0, BuildingBlock: CEKHIL_clean_sbu_0, # of connection points: 4
#     Node 5, Type 0, BuildingBlock: CEKHIL_clean_sbu_0, # of connection points: 4
#     Node 6, Type 0, BuildingBlock: CEKHIL_clean_sbu_0, # of connection points: 4
#     Node 7, Type 0, BuildingBlock: CEKHIL_clean_sbu_0, # of connection points: 4
#     Node 8, Type 0, BuildingBlock: CEKHIL_clean_sbu_0, # of connection points: 4
#     Node 9, Type 0, BuildingBlock: CEKHIL_clean_sbu_0, # of connection points: 4
#     Node 10, Type 0, BuildingBlock: CEKHIL_clean_sbu_0, # of connection points: 4
#     Node 11, Type 0, BuildingBlock: CEKHIL_clean_sbu_0, # of connection points: 4
#     Node 12, Type 0, BuildingBlock: CEKHIL_clean_sbu_0, # of connection points: 4
#     Node 13, Type 0, BuildingBlock: CEKHIL_clean_sbu_0, # of connection points: 4
#     Node 14, Type 0, BuildingBlock: CEKHIL_clean_sbu_0, # of connection points: 4
#     Node 15, Type 0, BuildingBlock: CEKHIL_clean_sbu_0, # of connection points: 4
#     Node 16, Type 0, BuildingBlock: CEKHIL_clean_sbu_0, # of connection points: 4
#     Node 17, Type 0, BuildingBlock: CEKHIL_clean_sbu_0, # of connection points: 4
#     Node 18, Type 1, BuildingBlock: GIZVER_clean_linker_0, # of connection points: 4
#     Node 19, Type 1, BuildingBlock: GIZVER_clean_linker_0, # of connection points: 4
#     Node 20, Type 1, BuildingBlock: GIZVER_clean_linker_0, # of connection points: 4
#     Node 21, Type 1, BuildingBlock: GIZVER_clean_linker_0, # of connection points: 4
#     Node 22, Type 1, BuildingBlock: GIZVER_clean_linker_0, # of connection points: 4
#     Node 23, Type 1, BuildingBlock: GIZVER_clean_linker_0, # of connection points: 4
#     Node 24, Type 1, BuildingBlock: GIZVER_clean_linker_0, # of connection points: 4
#     Node 25, Type 1, BuildingBlock: GIZVER_clean_linker_0, # of connection points: 4
#     Node 26, Type 1, BuildingBlock: GIZVER_clean_linker_0, # of connection points: 4
#     Node 27, Type 1, BuildingBlock: GIZVER_clean_linker_0, # of connection points: 4
#     Node 28, Type 1, BuildingBlock: GIZVER_clean_linker_0, # of connection points: 4
#     Node 29, Type 1, BuildingBlock: GIZVER_clean_linker_0, # of connection points: 4
#     Node 30, Type 1, BuildingBlock: GIZVER_clean_linker_0, # of connection points: 4
#     Node 31, Type 1, BuildingBlock: GIZVER_clean_linker_0, # of connection points: 4
#     Node 32, Type 1, BuildingBlock: GIZVER_clean_linker_0, # of connection points: 4
#     Node 33, Type 1, BuildingBlock: GIZVER_clean_linker_0, # of connection points: 4
#     Node 34, Type 1, BuildingBlock: GIZVER_clean_linker_0, # of connection points: 4
#     Node 35, Type 1, BuildingBlock: GIZVER_clean_linker_0, # of connection points: 4
#     Edge 36, Type (0, 1), BuildingBlock: MIFKUJ_clean_linker_0, # of connection points: 2
#     Edge 37, Type (0, 1), BuildingBlock: MIFKUJ_clean_linker_0, # of connection points: 2
#     Edge 38, Type (0, 1), BuildingBlock: MIFKUJ_clean_linker_0, # of connection points: 2
#     Edge 39, Type (0, 1), BuildingBlock: MIFKUJ_clean_linker_0, # of connection points: 2
#     Edge 40, Type (0, 1), BuildingBlock: MIFKUJ_clean_linker_0, # of connection points: 2
#     Edge 41, Type (0, 1), BuildingBlock: MIFKUJ_clean_linker_0, # of connection points: 2
#     Edge 42, Type (0, 1), BuildingBlock: MIFKUJ_clean_linker_0, # of connection points: 2
#     Edge 43, Type (0, 1), BuildingBlock: MIFKUJ_clean_linker_0, # of connection points: 2
#     Edge 44, Type (0, 1), BuildingBlock: MIFKUJ_clean_linker_0, # of connection points: 2
#     Edge 45, Type (0, 1), BuildingBlock: MIFKUJ_clean_linker_0, # of connection points: 2
#     Edge 46, Type (0, 1), BuildingBlock: MIFKUJ_clean_linker_0, # of connection points: 2
#     Edge 47, Type (0, 1), BuildingBlock: MIFKUJ_clean_linker_0, # of connection points: 2
#     Edge 48, Type (0, 1), BuildingBlock: MIFKUJ_clean_linker_0, # of connection points: 2
#     Edge 49, Type (0, 1), BuildingBlock: MIFKUJ_clean_linker_0, # of connection points: 2
#     Edge 50, Type (0, 1), BuildingBlock: MIFKUJ_clean_linker_0, # of connection points: 2
#     Edge 51, Type (0, 1), BuildingBlock: MIFKUJ_clean_linker_0, # of connection points: 2
#     Edge 52, Type (0, 1), BuildingBlock: MIFKUJ_clean_linker_0, # of connection points: 2
#     Edge 53, Type (0, 1), BuildingBlock: MIFKUJ_clean_linker_0, # of connection points: 2
#     Edge 54, Type (0, 1), BuildingBlock: MIFKUJ_clean_linker_0, # of connection points: 2
#     Edge 55, Type (0, 1), BuildingBlock: MIFKUJ_clean_linker_0, # of connection points: 2
#     Edge 56, Type (0, 1), BuildingBlock: MIFKUJ_clean_linker_0, # of connection points: 2
#     Edge 57, Type (0, 1), BuildingBlock: MIFKUJ_clean_linker_0, # of connection points: 2
#     Edge 58, Type (0, 1), BuildingBlock: MIFKUJ_clean_linker_0, # of connection points: 2
#     Edge 59, Type (0, 1), BuildingBlock: MIFKUJ_clean_linker_0, # of connection points: 2
#     Edge 60, Type (0, 1), BuildingBlock: MIFKUJ_clean_linker_0, # of connection points: 2
#     Edge 61, Type (0, 1), BuildingBlock: MIFKUJ_clean_linker_0, # of connection points: 2
#     Edge 62, Type (0, 1), BuildingBlock: MIFKUJ_clean_linker_0, # of connection points: 2
#     Edge 63, Type (0, 1), BuildingBlock: MIFKUJ_clean_linker_0, # of connection points: 2
#     Edge 64, Type (0, 1), BuildingBlock: MIFKUJ_clean_linker_0, # of connection points: 2
#     Edge 65, Type (0, 1), BuildingBlock: MIFKUJ_clean_linker_0, # of connection points: 2
#     Edge 66, Type (0, 1), BuildingBlock: MIFKUJ_clean_linker_0, # of connection points: 2
#     Edge 67, Type (0, 1), BuildingBlock: MIFKUJ_clean_linker_0, # of connection points: 2
#     Edge 68, Type (0, 1), BuildingBlock: MIFKUJ_clean_linker_0, # of connection points: 2
#     Edge 69, Type (0, 1), BuildingBlock: MIFKUJ_clean_linker_0, # of connection points: 2
#     Edge 70, Type (0, 1), BuildingBlock: MIFKUJ_clean_linker_0, # of connection points: 2
#     Edge 71, Type (0, 1), BuildingBlock: MIFKUJ_clean_linker_0, # of connection points: 2
#     Edge 72, Type (0, 1), BuildingBlock: MIFKUJ_clean_linker_0, # of connection points: 2
#     Edge 73, Type (0, 1), BuildingBlock: MIFKUJ_clean_linker_0, # of connection points: 2
#     Edge 74, Type (0, 1), BuildingBlock: MIFKUJ_clean_linker_0, # of connection points: 2
#     Edge 75, Type (0, 1), BuildingBlock: MIFKUJ_clean_linker_0, # of connection points: 2
#     Edge 76, Type (0, 1), BuildingBlock: MIFKUJ_clean_linker_0, # of connection points: 2
#     Edge 77, Type (0, 1), BuildingBlock: MIFKUJ_clean_linker_0, # of connection points: 2
#     Edge 78, Type (0, 1), BuildingBlock: MIFKUJ_clean_linker_0, # of connection points: 2
#     Edge 79, Type (0, 1), BuildingBlock: MIFKUJ_clean_linker_0, # of connection points: 2
#     Edge 80, Type (0, 1), BuildingBlock: MIFKUJ_clean_linker_0, # of connection points: 2
#     Edge 81, Type (0, 1), BuildingBlock: MIFKUJ_clean_linker_0, # of connection points: 2
#     Edge 82, Type (0, 1), BuildingBlock: MIFKUJ_clean_linker_0, # of connection points: 2
#     Edge 83, Type (0, 1), BuildingBlock: MIFKUJ_clean_linker_0, # of connection points: 2
#     Edge 84, Type (0, 1), BuildingBlock: MIFKUJ_clean_linker_0, # of connection points: 2
#     Edge 85, Type (0, 1), BuildingBlock: MIFKUJ_clean_linker_0, # of connection points: 2
#     Edge 86, Type (0, 1), BuildingBlock: MIFKUJ_clean_linker_0, # of connection points: 2
#     Edge 87, Type (0, 1), BuildingBlock: MIFKUJ_clean_linker_0, # of connection points: 2
#     Edge 88, Type (0, 1), BuildingBlock: MIFKUJ_clean_linker_0, # of connection points: 2
#     Edge 89, Type (0, 1), BuildingBlock: MIFKUJ_clean_linker_0, # of connection points: 2
#     Edge 90, Type (0, 1), BuildingBlock: MIFKUJ_clean_linker_0, # of connection points: 2
#     Edge 91, Type (0, 1), BuildingBlock: MIFKUJ_clean_linker_0, # of connection points: 2
#     Edge 92, Type (0, 1), BuildingBlock: MIFKUJ_clean_linker_0, # of connection points: 2
#     Edge 93, Type (0, 1), BuildingBlock: MIFKUJ_clean_linker_0, # of connection points: 2
#     Edge 94, Type (0, 1), BuildingBlock: MIFKUJ_clean_linker_0, # of connection points: 2
#     Edge 95, Type (0, 1), BuildingBlock: MIFKUJ_clean_linker_0, # of connection points: 2
#     Edge 96, Type (0, 1), BuildingBlock: MIFKUJ_clean_linker_0, # of connection points: 2
#     Edge 97, Type (0, 1), BuildingBlock: MIFKUJ_clean_linker_0, # of connection points: 2
#     Edge 98, Type (0, 1), BuildingBlock: MIFKUJ_clean_linker_0, # of connection points: 2
#     Edge 99, Type (0, 1), BuildingBlock: MIFKUJ_clean_linker_0, # of connection points: 2
#     Edge 100, Type (0, 1), BuildingBlock: MIFKUJ_clean_linker_0, # of connection points: 2
#     Edge 101, Type (0, 1), BuildingBlock: MIFKUJ_clean_linker_0, # of connection points: 2
#     Edge 102, Type (0, 1), BuildingBlock: MIFKUJ_clean_linker_0, # of connection points: 2
#     Edge 103, Type (0, 1), BuildingBlock: MIFKUJ_clean_linker_0, # of connection points: 2
#     Edge 104, Type (0, 1), BuildingBlock: MIFKUJ_clean_linker_0, # of connection points: 2
#     Edge 105, Type (0, 1), BuildingBlock: MIFKUJ_clean_linker_0, # of connection points: 2
#     Edge 106, Type (0, 1), BuildingBlock: MIFKUJ_clean_linker_0, # of connection points: 2
#     Edge 107, Type (0, 1), BuildingBlock: MIFKUJ_clean_linker_0, # of connection points: 2
# Relax obj value: 0.048
# Max RMSD: 0.105
# Mean RMSD: 0.077
data_MOF--net-ptr--node1-CEKHIL_clean_sbu_0--node2-GIZVER_clean_linker_0--edge1-MIFKUJ_clean_linker_0
_symmetry_space_group_name_H-M    P1
_symmetry_Int_Tables_number       1
_symmetry_cell_setting            triclinic
loop_
_symmetry_equiv_pos_as_xyz
'x, y, z'
_cell_length_a     103.36154
_cell_length_b     102.27793
_cell_length_c     63.443177
_cell_angle_alpha  91.019443
_cell_angle_beta   89.786424
_cell_angle_gamma 120.86685
loop_
_atom_site_label
_atom_site_type_symbol
_atom_site_fract_x
_atom_site_fract_y
_atom_site_fract_z
_atom_type_partial_charge
Co0 Co 0.00418 0.3544 0.00811 0.0
O1 O 0.01281 0.34631 0.02687 0.0
O2 O 0.02595 0.36537 0.00522 0.0
C3 C 0.98566 0.3315 0.9957 0.0
O4 O 0.99928 0.36572 0.98632 0.0
Co5 Co 0.97117 0.34692 0.01385 0.0
O6 O 0.97471 0.35831 0.98742 0.0
C7 C 0.99535 0.36974 0.04189 0.0
C8 C 0.02585 0.3563 0.01943 0.0
C9 C 0.98782 0.36624 0.97953 0.0
O10 O 0.00548 0.36913 0.03076 0.0
O11 O 0.98117 0.36083 0.0388 0.0
O12 O 0.99909 0.33786 0.98768 0.0
O13 O 0.98416 0.33857 0.01166 0.0
Co14 Co 0.6553 0.65393 0.01237 0.0
O15 O 0.67121 0.66292 0.9919 0.0
O16 O 0.66629 0.64326 0.01158 0.0
C17 C 0.6602 0.67627 0.02717 0.0
O18 O 0.64033 0.64181 0.03553 0.0
Co19 Co 0.62907 0.66059 0.01298 0.0
O20 O 0.62339 0.6492 0.03966 0.0
C21 C 0.62903 0.63891 0.98141 0.0
C22 C 0.67478 0.65302 0.99748 0.0
C23 C 0.629 0.64118 0.04505 0.0
O24 O 0.64055 0.63958 0.99034 0.0
O25 O 0.62378 0.64739 0.98695 0.0
O26 O 0.66801 0.67018 0.03267 0.0
O27 O 0.65061 0.66936 0.0121 0.0
Co28 Co 0.35363 0.00276 0.00915 0.0
O29 O 0.3444 0.00943 0.98894 0.0
O30 O 0.36424 0.0248 0.0087 0.0
C31 C 0.33165 0.98494 0.02386 0.0
O32 O 0.36615 1.0005 0.03201 0.0
Co33 Co 0.34723 0.96959 0.00973 0.0
O34 O 0.35864 0.97589 0.03671 0.0
C35 C 0.36865 0.99136 0.97864 0.0
C36 C 0.35443 0.02327 0.99461 0.0
C37 C 0.36686 0.98994 0.04176 0.0
O38 O 0.36744 0.00228 0.98693 0.0
O39 O 0.36074 0.97751 0.98452 0.0
O40 O 0.33792 0.99918 0.02963 0.0
O41 O 0.33825 0.98211 0.00867 0.0
Co42 Co 0.99886 0.65172 0.01231 0.0
O43 O 0.98973 0.65904 0.99313 0.0
O44 O 0.97707 0.64045 0.01563 0.0
C45 C 0.01709 0.67512 0.0236 0.0
O46 O 0.00451 0.6413 0.03472 0.0
Co47 Co 0.03198 0.65991 0.00595 0.0
O48 O 0.02942 0.65021 0.03362 0.0
C49 C 0.0077 0.63591 0.97919 0.0
C50 C 0.97684 0.64907 0.00094 0.0
C51 C 0.0165 0.64194 0.04188 0.0
O52 O 0.99761 0.63667 0.99024 0.0
O53 O 0.02187 0.645 0.98196 0.0
O54 O 0.00378 0.66861 0.03198 0.0
O55 O 0.01864 0.66784 0.00794 0.0
Co56 Co 0.34936 0.35494 0.00928 0.0
O57 O 0.33295 0.34625 0.02892 0.0
O58 O 0.33849 0.36577 0.00856 0.0
C59 C 0.34457 0.33238 0.99535 0.0
O60 O 0.36507 0.36666 0.98671 0.0
Co61 Co 0.37516 0.34771 0.01163 0.0
O62 O 0.38074 0.35755 0.98372 0.0
C63 C 0.37427 0.36944 0.0422 0.0
C64 C 0.32964 0.35618 0.02258 0.0
C65 C 0.3759 0.36607 0.9775 0.0
O66 O 0.36352 0.3693 0.03181 0.0
O67 O 0.37938 0.36065 0.0378 0.0
O68 O 0.33714 0.33862 0.98876 0.0
O69 O 0.35367 0.33932 0.01091 0.0
Co70 Co 0.65523 0.00261 0.00739 0.0
O71 O 0.66365 0.99563 0.02838 0.0
O72 O 0.64452 0.98053 0.00733 0.0
C73 C 0.67773 0.02042 0.99402 0.0
O74 O 0.64377 0.00541 0.98339 0.0
Co75 Co 0.66213 0.036 0.00748 0.0
O76 O 0.65167 0.03022 0.97985 0.0
C77 C 0.63823 0.01341 0.03526 0.0
C78 C 0.6539 0.98188 0.02202 0.0
C79 C 0.64358 0.01634 0.97386 0.0
O80 O 0.64052 0.00283 0.02836 0.0
O81 O 0.64614 0.02732 0.02967 0.0
O82 O 0.67156 0.00622 0.98816 0.0
O83 O 0.67079 0.02321 0.00876 0.0
Co84 Co 0.6726 0.68748 0.34191 0.0
O85 O 0.68027 0.67887 0.36149 0.0
O86 O 0.69448 0.69892 0.34194 0.0
C87 C 0.65521 0.66496 0.32698 0.0
O88 O 0.66881 0.69934 0.31957 0.0
Co89 Co 0.63912 0.67926 0.34392 0.0
O90 O 0.64412 0.69144 0.31801 0.0
C91 C 0.66124 0.7011 0.37492 0.0
C92 C 0.69368 0.68926 0.35572 0.0
C93 C 0.65759 0.69976 0.31152 0.0
O94 O 0.67213 0.70126 0.36473 0.0
O95 O 0.64732 0.69203 0.37031 0.0
O96 O 0.66917 0.67169 0.32095 0.0
O97 O 0.65252 0.67137 0.3427 0.0
Co98 Co 0.32195 0.98711 0.34822 0.0
O99 O 0.33768 0.99396 0.32741 0.0
O100 O 0.33314 0.97686 0.35168 0.0
C101 C 0.32649 0.01055 0.35757 0.0
O102 O 0.30724 0.97723 0.37244 0.0
Co103 Co 0.29529 0.99291 0.34506 0.0
O104 O 0.2903 0.98475 0.37396 0.0
C105 C 0.29501 0.96814 0.31945 0.0
C106 C 0.34125 0.98475 0.33587 0.0
C107 C 0.2961 0.97739 0.38135 0.0
O108 O 0.30726 0.97054 0.3283 0.0
O109 O 0.28922 0.97644 0.32304 0.0
O110 O 0.33446 0.00535 0.3657 0.0
O111 O 0.31687 0.00196 0.34331 0.0
Co112 Co 0.02085 0.33632 0.3472 0.0
O113 O 0.01349 0.34361 0.32506 0.0
O114 O 0.03183 0.35842 0.34738 0.0
C115 C 0.99773 0.31851 0.35895 0.0
O116 O 0.03115 0.33331 0.37254 0.0
Co117 Co 0.01363 0.30283 0.34839 0.0
O118 O 0.02236 0.30842 0.37717 0.0
C119 C 0.03816 0.32505 0.32094 0.0
C120 C 0.02315 0.35729 0.3318 0.0
C121 C 0.03045 0.32231 0.38309 0.0
O122 O 0.03625 0.33591 0.32773 0.0
O123 O 0.0297 0.31115 0.3263 0.0
O124 O 0.00371 0.3327 0.36483 0.0
O125 O 0.00529 0.31578 0.34517 0.0
Co126 Co 0.66094 0.98083 0.34558 0.0
O127 O 0.65316 0.98954 0.32632 0.0
O128 O 0.63909 0.96955 0.34606 0.0
C129 C 0.67868 0.00344 0.36001 0.0
O130 O 0.66473 0.9688 0.36767 0.0
Co131 Co 0.69438 0.98884 0.34387 0.0
O132 O 0.68941 0.97682 0.36987 0.0
C133 C 0.67191 0.96643 0.3133 0.0
C134 C 0.6398 0.97921 0.33236 0.0
C135 C 0.67586 0.96834 0.37595 0.0
O136 O 0.66107 0.96697 0.32254 0.0
O137 O 0.6858 0.97507 0.31851 0.0
O138 O 0.66485 0.99681 0.3666 0.0
O139 O 0.68104 0.99678 0.34434 0.0
Co140 Co 0.01862 0.68624 0.33924 0.0
O141 O 1.00268 0.67752 0.35974 0.0
O142 O 0.00823 0.69748 0.34032 0.0
C143 C 0.01303 0.6637 0.3241 0.0
O144 O 0.03378 0.69841 0.31633 0.0
Co145 Co 0.04414 0.67861 0.33761 0.0
O146 O 0.05067 0.69102 0.31186 0.0
C147 C 0.04534 0.70087 0.36943 0.0
C148 C 0.99964 0.68788 0.35448 0.0
C149 C 0.04527 0.69931 0.30695 0.0
O150 O 0.03354 0.70014 0.36145 0.0
O151 O 0.05041 0.69237 0.36314 0.0
O152 O 0.00566 0.67029 0.31866 0.0
O153 O 0.0227 0.67037 0.33915 0.0
Co154 Co 0.31954 0.33649 0.33634 0.0
O155 O 0.32846 0.33041 0.35778 0.0
O156 O 0.30894 0.31444 0.33795 0.0
C157 C 0.34172 0.35376 0.32159 0.0
O158 O 0.30742 0.33832 0.31232 0.0
Co159 Co 0.32636 0.36978 0.33416 0.0
O160 O 0.31495 0.3629 0.30729 0.0
C161 C 0.30397 0.3486 0.36478 0.0
C162 C 0.3186 0.31642 0.3526 0.0
C163 C 0.30681 0.34884 0.30225 0.0
O164 O 0.30545 0.33756 0.3576 0.0
O165 O 0.31197 0.36232 0.35843 0.0
O166 O 0.33542 0.33938 0.31668 0.0
O167 O 0.33507 0.35707 0.33616 0.0
Co168 Co 0.3388 0.0219 0.67581 0.0
O169 O 0.34538 0.01277 0.69627 0.0
O170 O 0.36059 0.03305 0.67766 0.0
C171 C 0.32182 0.99966 0.65979 0.0
O172 O 0.3365 0.03444 0.65309 0.0
Co173 Co 0.30563 0.01445 0.67324 0.0
O174 O 0.31209 0.02627 0.6469 0.0
C175 C 0.3262 0.03563 0.70647 0.0
C176 C 0.35907 0.02316 0.69154 0.0
C177 C 0.32603 0.03488 0.64278 0.0
O178 O 0.33749 0.03536 0.69828 0.0
O179 O 0.31262 0.0272 0.69982 0.0
O180 O 0.33599 0.00632 0.65483 0.0
O181 O 0.31859 0.00607 0.67492 0.0
Co182 Co 0.98821 0.32073 0.67298 0.0
O183 O 0.00382 0.32971 0.65202 0.0
O184 O 0.99934 0.31025 0.67183 0.0
C185 C 0.99308 0.34313 0.68772 0.0
O186 O 0.97374 0.30855 0.69645 0.0
Co187 Co 0.96172 0.32688 0.67548 0.0
O188 O 0.95699 0.31594 0.70255 0.0
C189 C 0.96115 0.30499 0.64359 0.0
C190 C 0.00753 0.31988 0.65745 0.0
C191 C 0.96277 0.30791 0.70698 0.0
O192 O 0.97319 0.30617 0.65144 0.0
O193 O 0.95571 0.31317 0.64984 0.0
O194 O 1.00101 0.33711 0.69304 0.0
O195 O 0.98326 0.336 0.67297 0.0
Co196 Co 0.68734 0.66979 0.66959 0.0
O197 O 0.67874 0.67799 0.65091 0.0
O198 O 0.69882 0.69194 0.671 0.0
C199 C 0.66511 0.65211 0.68378 0.0
O200 O 0.69909 0.66536 0.69144 0.0
Co201 Co 0.67866 0.63583 0.66496 0.0
O202 O 0.69048 0.64019 0.69133 0.0
C203 C 0.7009 0.6587 0.63591 0.0
C204 C 0.68908 0.69141 0.65753 0.0
C205 C 0.69904 0.65363 0.69873 0.0
O206 O 0.70075 0.66956 0.64636 0.0
O207 O 0.69202 0.64459 0.63985 0.0
O208 O 0.67197 0.66613 0.69069 0.0
O209 O 0.67118 0.64958 0.66763 0.0
Co210 Co 0.33481 0.31934 0.67815 0.0
O211 O 0.32594 0.32642 0.65816 0.0
O212 O 0.31296 0.30742 0.67991 0.0
C213 C 0.35202 0.34293 0.69015 0.0
O214 O 0.33992 0.30907 0.70133 0.0
Co215 Co 0.36847 0.32875 0.67561 0.0
O216 O 0.36488 0.3185 0.70301 0.0
C217 C 0.34581 0.30367 0.64803 0.0
C218 C 0.31291 0.31621 0.66536 0.0
C219 C 0.35158 0.3098 0.70984 0.0
O220 O 0.33497 0.30461 0.65658 0.0
O221 O 0.35973 0.31289 0.65252 0.0
O222 O 0.33847 0.33591 0.69776 0.0
O223 O 0.35453 0.33597 0.67501 0.0
Co224 Co 0.68569 0.02254 0.68339 0.0
O225 O 0.66836 0.01409 0.70145 0.0
O226 O 0.67479 0.03313 0.67971 0.0
C227 C 0.68208 0.99998 0.67133 0.0
O228 O 0.70242 0.03404 0.66206 0.0
Co229 Co 0.71172 0.01648 0.69148 0.0
O230 O 0.72001 0.02744 0.66472 0.0
C231 C 0.70896 0.03874 0.71832 0.0
C232 C 0.66548 0.02401 0.69377 0.0
C233 C 0.7147 0.03482 0.65591 0.0
O234 O 0.69847 0.03759 0.70621 0.0
O235 O 0.7147 0.03027 0.71629 0.0
O236 O 0.67485 0.0059 0.66289 0.0
O237 O 0.69019 0.00717 0.68768 0.0
Co238 Co 0.98617 0.67031 0.67487 0.0
O239 O 0.99416 0.66315 0.69631 0.0
O240 O 0.97515 0.64824 0.67501 0.0
C241 C 0.00884 0.68784 0.66156 0.0
O242 O 0.97496 0.67321 0.6506 0.0
Co243 Co 0.99367 0.70392 0.6745 0.0
O244 O 0.98243 0.69796 0.64743 0.0
C245 C 0.97071 0.68215 0.70399 0.0
C246 C 0.98421 0.64943 0.69008 0.0
C247 C 0.97452 0.68409 0.64131 0.0
O248 O 0.97165 0.67105 0.69572 0.0
O249 O 0.97936 0.69606 0.69882 0.0
O250 O 1.00254 0.67359 0.65585 0.0
O251 O 1.00191 0.69079 0.67611 0.0
H252 H 0.15151 0.32574 0.17117 0.0
H253 H 0.14378 0.32747 0.10479 0.0
H254 H 0.12845 0.34805 0.15026 0.0
H255 H 0.14952 0.30583 0.14256 0.0
H256 H 0.15315 0.31184 0.11598 0.0
H257 H 0.16977 0.31913 0.17063 0.0
H258 H 0.2146 0.33708 0.14727 0.0
H259 H 0.17872 0.32733 0.10409 0.0
C260 C 0.14774 0.32987 0.15839 0.0
C261 C 0.14032 0.33783 0.16311 0.0
C262 C 0.14955 0.32652 0.13731 0.0
C263 C 0.14334 0.33084 0.12094 0.0
C264 C 0.13543 0.33835 0.1256 0.0
C265 C 0.13461 0.34233 0.1466 0.0
C266 C 0.15563 0.31608 0.13261 0.0
C267 C 0.17237 0.32337 0.13701 0.0
C268 C 0.17761 0.32361 0.15764 0.0
C269 C 0.1929 0.32893 0.16135 0.0
C270 C 0.2029 0.33363 0.14445 0.0
C271 C 0.19786 0.33287 0.12382 0.0
C272 C 0.18268 0.32819 0.12013 0.0
H273 H 0.68779 0.83452 0.17393 0.0
H274 H 0.68456 0.82993 0.10606 0.0
H275 H 0.67128 0.79074 0.14408 0.0
H276 H 0.70122 0.85703 0.15144 0.0
H277 H 0.70049 0.85496 0.12342 0.0
H278 H 0.67843 0.85427 0.17085 0.0
H279 H 0.65629 0.87354 0.13723 0.0
H280 H 0.6841 0.86046 0.10374 0.0
C281 C 0.68444 0.82745 0.15975 0.0
C282 C 0.67898 0.81178 0.16124 0.0
C283 C 0.6862 0.83408 0.1398 0.0
C284 C 0.68261 0.82486 0.12148 0.0
C285 C 0.67707 0.80921 0.12305 0.0
C286 C 0.67506 0.80275 0.14291 0.0
C287 C 0.69345 0.85112 0.13787 0.0
C288 C 0.6819 0.85599 0.13723 0.0
C289 C 0.67548 0.85735 0.15613 0.0
C290 C 0.66622 0.86371 0.15631 0.0
C291 C 0.66277 0.86791 0.13718 0.0
C292 C 0.66914 0.86678 0.11822 0.0
C293 C 0.67871 0.8608 0.11825 0.0
H294 H 0.16496 0.82218 0.17415 0.0
H295 H 0.15482 0.81097 0.10823 0.0
H296 H 0.11916 0.79964 0.15245 0.0
H297 H 0.18245 0.81925 0.1475 0.0
H298 H 0.17976 0.82053 0.12011 0.0
H299 H 0.191 0.84168 0.17156 0.0
H300 H 0.21721 0.88499 0.1419 0.0
H301 H 0.18883 0.84521 0.10419 0.0
C302 C 0.15694 0.81814 0.16122 0.0
C303 C 0.14149 0.81132 0.16559 0.0
C304 C 0.16193 0.8188 0.14032 0.0
C305 C 0.15116 0.81176 0.12398 0.0
C306 C 0.13567 0.8044 0.12839 0.0
C307 C 0.1311 0.80528 0.14895 0.0
C308 C 0.17837 0.82444 0.13599 0.0
C309 C 0.18823 0.84159 0.13783 0.0
C310 C 0.19413 0.84859 0.15762 0.0
C311 C 0.20455 0.86432 0.15932 0.0
C312 C 0.20865 0.87301 0.14102 0.0
C313 C 0.20307 0.86629 0.12118 0.0
C314 C 0.19281 0.85055 0.11959 0.0
H315 H 0.35463 0.19215 0.84676 0.0
H316 H 0.34958 0.19545 0.9138 0.0
H317 H 0.33136 0.21383 0.87058 0.0
H318 H 0.37169 0.19015 0.87344 0.0
H319 H 0.36733 0.18881 0.90082 0.0
H320 H 0.35195 0.16834 0.84842 0.0
H321 H 0.33622 0.12445 0.87441 0.0
H322 H 0.3557 0.16404 0.91533 0.0
C323 C 0.34983 0.195 0.85997 0.0
C324 C 0.34179 0.2024 0.85628 0.0
C325 C 0.35226 0.19195 0.88073 0.0
C326 C 0.34707 0.197 0.89779 0.0
C327 C 0.33949 0.20492 0.89424 0.0
C328 C 0.33653 0.20708 0.87346 0.0
C329 C 0.3622 0.18533 0.8848 0.0
C330 C 0.35381 0.16814 0.88238 0.0
C331 C 0.34955 0.16136 0.86215 0.0
C332 C 0.34288 0.14558 0.85942 0.0
C333 C 0.34055 0.13653 0.87691 0.0
C334 C 0.34529 0.14302 0.89711 0.0
C335 C 0.35178 0.15888 0.89983 0.0
H336 H 0.85824 0.1724 0.84211 0.0
H337 H 0.86576 0.17522 0.90942 0.0
H338 H 0.88859 0.21541 0.87219 0.0
H339 H 0.8522 0.1494 0.86294 0.0
H340 H 0.85412 0.15066 0.89096 0.0
H341 H 0.83177 0.15343 0.84619 0.0
H342 H 0.79055 0.13162 0.88123 0.0
H343 H 0.83201 0.14252 0.9115 0.0
C344 C 0.86336 0.1791 0.85633 0.0
C345 C 0.87332 0.19488 0.85494 0.0
C346 C 0.86028 0.17192 0.87606 0.0
C347 C 0.8676 0.18068 0.89432 0.0
C348 C 0.87803 0.19633 0.89279 0.0
C349 C 0.88045 0.2033 0.87326 0.0
C350 C 0.85055 0.15478 0.8773 0.0
C351 C 0.83398 0.14948 0.87899 0.0
C352 C 0.82594 0.14932 0.861 0.0
C353 C 0.81026 0.14304 0.86175 0.0
C354 C 0.80276 0.13728 0.88081 0.0
C355 C 0.81045 0.13698 0.89872 0.0
C356 C 0.8261 0.14315 0.89784 0.0
H357 H 0.83541 0.64905 0.84254 0.0
H358 H 0.83899 0.64247 0.90879 0.0
H359 H 0.87836 0.66193 0.86964 0.0
H360 H 0.81343 0.62925 0.86431 0.0
H361 H 0.81467 0.63031 0.89227 0.0
H362 H 0.81071 0.6483 0.84409 0.0
H363 H 0.78945 0.66871 0.87848 0.0
H364 H 0.81002 0.64795 0.91199 0.0
C365 C 0.84223 0.65062 0.85635 0.0
C366 C 0.85776 0.6566 0.85411 0.0
C367 C 0.83538 0.64591 0.87622 0.0
C368 C 0.84429 0.64693 0.89374 0.0
C369 C 0.85978 0.65243 0.89136 0.0
C370 C 0.86644 0.65776 0.87167 0.0
C371 C 0.81837 0.63739 0.8779 0.0
C372 C 0.8119 0.64774 0.87803 0.0
C373 C 0.80808 0.65181 0.85891 0.0
C374 C 0.80004 0.65953 0.8589 0.0
C375 C 0.79636 0.66356 0.87828 0.0
C376 C 0.79983 0.65941 0.89745 0.0
C377 C 0.80777 0.65165 0.89726 0.0
H378 H 0.8201 0.66094 0.49863 0.0
H379 H 0.81943 0.66436 0.43105 0.0
H380 H 0.80105 0.68526 0.47054 0.0
H381 H 0.82142 0.64204 0.47279 0.0
H382 H 0.82606 0.64721 0.44597 0.0
H383 H 0.84063 0.6535 0.50084 0.0
H384 H 0.88682 0.67702 0.48142 0.0
H385 H 0.85194 0.66664 0.43598 0.0
C386 C 0.81791 0.66558 0.48479 0.0
C387 C 0.81064 0.67397 0.48701 0.0
C388 C 0.8216 0.66246 0.46466 0.0
C389 C 0.81756 0.66751 0.44667 0.0
C390 C 0.81037 0.67597 0.44883 0.0
C391 C 0.80737 0.67948 0.46899 0.0
C392 C 0.82781 0.65195 0.46233 0.0
C393 C 0.84439 0.65981 0.46795 0.0
C394 C 0.84897 0.65929 0.4887 0.0
C395 C 0.86431 0.66567 0.4935 0.0
C396 C 0.87504 0.6727 0.47773 0.0
C397 C 0.87074 0.67303 0.45695 0.0
C398 C 0.85538 0.66668 0.45211 0.0
H399 H 0.35441 0.16685 0.50306 0.0
H400 H 0.3428 0.16109 0.43688 0.0
H401 H 0.33294 0.12236 0.47374 0.0
H402 H 0.36534 0.18878 0.47942 0.0
H403 H 0.36078 0.18623 0.452 0.0
H404 H 0.34356 0.18421 0.50538 0.0
H405 H 0.32245 0.20851 0.48438 0.0
H406 H 0.34513 0.19522 0.43983 0.0
C407 C 0.34905 0.15948 0.48944 0.0
C408 C 0.34375 0.14381 0.49073 0.0
C409 C 0.3484 0.1658 0.47011 0.0
C410 C 0.34252 0.15626 0.45206 0.0
C411 C 0.33688 0.14057 0.45348 0.0
C412 C 0.33709 0.13447 0.4729 0.0
C413 C 0.35582 0.18287 0.468 0.0
C414 C 0.345 0.18847 0.47201 0.0
C415 C 0.34018 0.18878 0.49268 0.0
C416 C 0.33178 0.19576 0.49722 0.0
C417 C 0.32803 0.20222 0.48074 0.0
C418 C 0.33269 0.20208 0.45999 0.0
C419 C 0.34115 0.19509 0.45569 0.0
H420 H 0.82882 0.14812 0.50495 0.0
H421 H 0.82084 0.14426 0.43788 0.0
H422 H 0.78362 0.12459 0.48081 0.0
H423 H 0.84824 0.15029 0.47821 0.0
H424 H 0.8455 0.15204 0.45093 0.0
H425 H 0.85156 0.17141 0.50412 0.0
H426 H 0.87788 0.21605 0.47856 0.0
H427 H 0.85669 0.17704 0.4368 0.0
C428 C 0.82114 0.14484 0.4917 0.0
C429 C 0.80553 0.13675 0.49532 0.0
C430 C 0.82681 0.14801 0.47098 0.0
C431 C 0.81661 0.14258 0.45386 0.0
C432 C 0.80097 0.13416 0.4573 0.0
C433 C 0.79562 0.13174 0.47805 0.0
C434 C 0.84355 0.15511 0.46706 0.0
C435 C 0.8522 0.17226 0.47005 0.0
C436 C 0.8555 0.1787 0.49054 0.0
C437 C 0.86454 0.19451 0.49363 0.0
C438 C 0.87024 0.20391 0.47612 0.0
C439 C 0.86765 0.19776 0.45561 0.0
C440 C 0.85847 0.18189 0.45259 0.0
H441 H 0.02704 0.52853 0.18125 0.0
H442 H 0.01817 0.52746 0.24787 0.0
H443 H 0.99955 0.54562 0.20502 0.0
H444 H 0.04316 0.52582 0.20755 0.0
H445 H 0.03918 0.52515 0.23502 0.0
H446 H 0.02426 0.50272 0.18404 0.0
H447 H 0.01064 0.46014 0.21356 0.0
H448 H 0.0283 0.50098 0.25146 0.0
C449 C 0.02118 0.53018 0.19427 0.0
C450 C 0.01236 0.53677 0.19061 0.0
C451 C 0.02299 0.52636 0.2149 0.0
C452 C 0.01618 0.52959 0.23188 0.0
C453 C 0.00759 0.53646 0.22838 0.0
C454 C 0.00544 0.53955 0.20769 0.0
C455 C 0.03386 0.52091 0.21922 0.0
C456 C 0.02633 0.50373 0.218 0.0
C457 C 0.02237 0.49622 0.19821 0.0
C458 C 0.01657 0.48047 0.19655 0.0
C459 C 0.01451 0.47219 0.21487 0.0
C460 C 0.01876 0.47946 0.23467 0.0
C461 C 0.02466 0.49526 0.23624 0.0
H462 H 0.52751 0.50294 0.17864 0.0
H463 H 0.53213 0.50698 0.24642 0.0
H464 H 0.55068 0.54707 0.20887 0.0
H465 H 0.52375 0.48112 0.20121 0.0
H466 H 0.52304 0.48248 0.22924 0.0
H467 H 0.50275 0.47916 0.17866 0.0
H468 H 0.45945 0.45838 0.20811 0.0
H469 H 0.49925 0.47468 0.24631 0.0
C470 C 0.53103 0.50988 0.19293 0.0
C471 C 0.53898 0.52582 0.19151 0.0
C472 C 0.528 0.50293 0.2128 0.0
C473 C 0.53363 0.51216 0.23115 0.0
C474 C 0.5417 0.52809 0.22971 0.0
C475 C 0.54392 0.53476 0.20998 0.0
C476 C 0.51999 0.48579 0.21427 0.0
C477 C 0.50308 0.47863 0.21277 0.0
C478 C 0.49607 0.47611 0.19289 0.0
C479 C 0.48036 0.46903 0.19132 0.0
C480 C 0.47166 0.46454 0.20956 0.0
C481 C 0.47831 0.46631 0.22937 0.0
C482 C 0.49407 0.4735 0.23102 0.0
H483 H 0.50083 0.97408 0.17021 0.0
H484 H 0.50216 0.97541 0.23824 0.0
H485 H 0.5425 0.9889 0.20283 0.0
H486 H 0.47783 0.95883 0.19068 0.0
H487 H 0.47853 0.95886 0.2187 0.0
H488 H 0.48267 0.98432 0.17327 0.0
H489 H 0.45471 0.99875 0.20344 0.0
H490 H 0.46631 0.96985 0.23623 0.0
C491 C 0.50717 0.97707 0.18486 0.0
C492 C 0.52261 0.9821 0.18437 0.0
C493 C 0.49966 0.97469 0.2043 0.0
C494 C 0.50793 0.97776 0.22325 0.0
C495 C 0.52348 0.98312 0.22283 0.0
C496 C 0.53065 0.98537 0.20332 0.0
C497 C 0.4826 0.96643 0.20482 0.0
C498 C 0.47636 0.97699 0.2054 0.0
C499 C 0.47691 0.98498 0.18719 0.0
C500 C 0.46919 0.99298 0.18647 0.0
C501 C 0.46108 0.99303 0.20417 0.0
C502 C 0.45958 0.98441 0.22191 0.0
C503 C 0.46768 0.97681 0.22277 0.0
H504 H 0.48972 0.99747 0.8389 0.0
H505 H 0.4837 0.998 0.77172 0.0
H506 H 0.46491 0.01698 0.81398 0.0
H507 H 0.49029 0.97815 0.81164 0.0
H508 H 0.49431 0.98388 0.78493 0.0
H509 H 0.50971 0.98995 0.83915 0.0
H510 H 0.55554 0.01667 0.81879 0.0
H511 H 0.51947 0.00484 0.77479 0.0
C512 C 0.48592 1.00106 0.82549 0.0
C513 C 0.4776 0.00827 0.82884 0.0
C514 C 0.48865 0.99774 0.80485 0.0
C515 C 0.48257 0.00137 0.78759 0.0
C516 C 0.47409 0.0084 0.79096 0.0
C517 C 0.47206 0.01218 0.81147 0.0
C518 C 0.49598 0.98831 0.80146 0.0
C519 C 0.51265 0.99711 0.80666 0.0
C520 C 0.51774 0.9965 0.82701 0.0
C521 C 0.53323 0.0038 0.83141 0.0
C522 C 0.54361 0.01175 0.81553 0.0
C523 C 0.53881 0.01206 0.79503 0.0
C524 C 0.52328 0.00488 0.7907 0.0
H525 H 0.01355 0.50081 0.84266 0.0
H526 H 0.01379 0.49301 0.77546 0.0
H527 H 0.00461 0.45754 0.81882 0.0
H528 H 0.02803 0.52242 0.81594 0.0
H529 H 0.0239 0.51844 0.78857 0.0
H530 H 0.00597 0.51775 0.84093 0.0
H531 H 0.98124 0.53684 0.81521 0.0
H532 H 0.00677 0.52483 0.77407 0.0
C533 C 0.01158 0.49329 0.82929 0.0
C534 C 0.00814 0.47836 0.8329 0.0
C535 C 0.0132 0.49864 0.80846 0.0
C536 C 0.01181 0.48887 0.79144 0.0
C537 C 0.00904 0.47417 0.79524 0.0
C538 C 0.0068 0.46893 0.81588 0.0
C539 C 0.01881 0.5153 0.80452 0.0
C540 C 0.00678 0.51952 0.80698 0.0
C541 C 1.00177 0.52059 0.82724 0.0
C542 C 0.9923 0.52653 0.8302 0.0
C543 C 0.9877 0.5313 0.81269 0.0
C544 C 0.99294 0.53092 0.79242 0.0
C545 C 1.00235 0.52481 0.78959 0.0
H546 H 0.49938 0.48123 0.83727 0.0
H547 H 0.49375 0.48147 0.77002 0.0
H548 H 0.45504 0.46018 0.81022 0.0
H549 H 0.51988 0.48579 0.81205 0.0
H550 H 0.51783 0.48771 0.78458 0.0
H551 H 0.52251 0.50656 0.83774 0.0
H552 H 0.54847 0.55147 0.81282 0.0
H553 H 0.52803 0.51267 0.77056 0.0
C554 C 0.4922 0.47904 0.82366 0.0
C555 C 0.47649 0.4709 0.82611 0.0
C556 C 0.49859 0.48341 0.80347 0.0
C557 C 0.48901 0.47913 0.78574 0.0
C558 C 0.4733 0.47087 0.78816 0.0
C559 C 0.46716 0.46726 0.8084 0.0
C560 C 0.5154 0.49059 0.80054 0.0
C561 C 0.52369 0.50769 0.80374 0.0
C562 C 0.52659 0.51398 0.8243 0.0
C563 C 0.5353 0.5298 0.82758 0.0
C564 C 0.54102 0.53932 0.81017 0.0
C565 C 0.53861 0.53332 0.78957 0.0
C566 C 0.52976 0.51745 0.7864 0.0
H567 H 0.68063 0.85327 0.51358 0.0
H568 H 0.68761 0.86726 0.579 0.0
H569 H 0.66068 0.87779 0.53942 0.0
H570 H 0.70281 0.85642 0.53608 0.0
H571 H 0.70179 0.85722 0.56401 0.0
H572 H 0.6847 0.83251 0.51585 0.0
H573 H 0.6706 0.79139 0.54956 0.0
H574 H 0.6891 0.83392 0.58357 0.0
C575 C 0.67807 0.8581 0.52713 0.0
C576 C 0.66952 0.8651 0.52433 0.0
C577 C 0.68405 0.85817 0.54713 0.0
C578 C 0.682 0.86605 0.56408 0.0
C579 C 0.67396 0.87357 0.5612 0.0
C580 C 0.66698 0.8721 0.54168 0.0
C581 C 0.69479 0.85233 0.5495 0.0
C582 C 0.68688 0.83511 0.54978 0.0
C583 C 0.68271 0.82668 0.53066 0.0
C584 C 0.6767 0.81086 0.53049 0.0
C585 C 0.67461 0.80347 0.54966 0.0
C586 C 0.67915 0.81165 0.56881 0.0
C587 C 0.6852 0.82749 0.56887 0.0
H588 H 0.18986 0.84052 0.51171 0.0
H589 H 0.19734 0.84184 0.57882 0.0
H590 H 0.2159 0.88338 0.54461 0.0
H591 H 0.18668 0.81774 0.53158 0.0
H592 H 0.18679 0.818 0.55969 0.0
H593 H 0.16534 0.81713 0.51173 0.0
H594 H 0.12269 0.79323 0.54328 0.0
H595 H 0.16361 0.80974 0.57863 0.0
C596 C 0.19413 0.84691 0.52638 0.0
C597 C 0.20265 0.8629 0.52606 0.0
C598 C 0.19164 0.83918 0.54555 0.0
C599 C 0.19835 0.84764 0.56423 0.0
C600 C 0.20698 0.86358 0.56383 0.0
C601 C 0.20867 0.87107 0.54492 0.0
C602 C 0.1834 0.82197 0.54568 0.0
C603 C 0.16648 0.81498 0.54538 0.0
C604 C 0.15893 0.81315 0.52614 0.0
C605 C 0.1431 0.8054 0.52523 0.0
C606 C 0.13491 0.79991 0.5439 0.0
C607 C 0.14219 0.80139 0.5631 0.0
C608 C 0.15799 0.80899 0.56388 0.0
H609 H 0.17223 0.31522 0.50917 0.0
H610 H 0.17529 0.31449 0.57692 0.0
H611 H 0.21426 0.32724 0.53851 0.0
H612 H 0.14965 0.29872 0.53169 0.0
H613 H 0.15097 0.30072 0.5596 0.0
H614 H 0.15069 0.31965 0.50953 0.0
H615 H 0.12872 0.34093 0.53917 0.0
H616 H 0.14471 0.31757 0.57692 0.0
C617 C 0.17888 0.3175 0.52339 0.0
C618 C 0.19415 0.32206 0.52178 0.0
C619 C 0.17195 0.31481 0.5433 0.0
C620 C 0.18063 0.31698 0.5616 0.0
C621 C 0.19601 0.32169 0.56006 0.0
C622 C 0.2026 0.32426 0.54005 0.0
C623 C 0.15499 0.30725 0.54478 0.0
C624 C 0.14943 0.31835 0.54357 0.0
C625 C 0.14748 0.32322 0.5238 0.0
C626 C 0.14032 0.33171 0.52232 0.0
C627 C 0.13524 0.3354 0.54068 0.0
C628 C 0.13648 0.33017 0.56041 0.0
C629 C 0.14396 0.32195 0.56182 0.0
H630 H 0.97847 0.37137 0.07376 0.0
H631 H 0.98449 0.39334 0.0962 0.0
H632 H 0.02854 0.41856 0.06812 0.0
H633 H 0.02266 0.39641 0.04564 0.0
H634 H 0.02969 0.42432 0.1102 0.0
H635 H 1.00171 0.42511 0.052 0.0
H636 H 0.98115 0.41483 0.02572 0.0
H637 H 0.94897 0.40519 0.0749 0.0
H638 H 0.96932 0.41518 0.10155 0.0
H639 H 0.03623 0.48935 0.16367 0.0
H640 H 0.03471 0.4738 0.13283 0.0
H641 H 0.9908 0.43815 0.15263 0.0
H642 H 0.9922 0.45368 0.18327 0.0
H643 H 0.99287 0.44179 0.1091 0.0
H644 H 0.02154 0.43697 0.16675 0.0
H645 H 0.04266 0.44744 0.19239 0.0
H646 H 0.07439 0.46593 0.14176 0.0
H647 H 0.05348 0.4557 0.11593 0.0
C648 C 0.98952 0.3815 0.07248 0.0
C649 C 1.00002 0.38219 0.05772 0.0
C650 C 0.99291 0.3941 0.08524 0.0
C651 C 0.0068 0.40771 0.08339 0.0
C652 C 0.01769 0.4082 0.06961 0.0
C653 C 0.01433 0.39551 0.05685 0.0
C654 C 0.00959 0.42143 0.09557 0.0
C655 C 0.02183 0.42836 0.10962 0.0
C656 C 0.99935 0.42674 0.09476 0.0
C657 C 0.98705 0.42082 0.0788 0.0
C658 C 0.99024 0.4207 0.05724 0.0
C659 C 0.97862 0.41494 0.04227 0.0
C660 C 0.96376 0.40934 0.04864 0.0
C661 C 0.96049 0.40953 0.06999 0.0
C662 C 0.97207 0.41526 0.08504 0.0
C663 C 0.02606 0.4784 0.16104 0.0
C664 C 0.01434 0.47268 0.17584 0.0
C665 C 0.02528 0.46948 0.14356 0.0
C666 C 0.01274 0.45476 0.14065 0.0
C667 C 1.00058 0.44948 0.15462 0.0
C668 C 1.0014 0.45833 0.17211 0.0
C669 C 0.01263 0.44425 0.1242 0.0
C670 C 1.0009 0.43794 0.10931 0.0
C671 C 0.02344 0.43967 0.12403 0.0
C672 C 0.03598 0.44577 0.13951 0.0
C673 C 0.03304 0.44339 0.16118 0.0
C674 C 0.04494 0.44924 0.17571 0.0
C675 C 0.05983 0.4574 0.16871 0.0
C676 C 0.06285 0.45965 0.14717 0.0
C677 C 0.05098 0.45382 0.13258 0.0
H678 H 0.06904 0.46192 0.17998 0.0
H679 H 0.95478 0.40488 0.03702 0.0
H680 H 0.60652 0.63811 0.07117 0.0
H681 H 0.59119 0.61721 0.09471 0.0
H682 H 0.61769 0.59674 0.07959 0.0
H683 H 0.63307 0.6176 0.05568 0.0
H684 H 0.58769 0.57597 0.07714 0.0
H685 H 0.6211 0.61311 0.12753 0.0
H686 H 0.63497 0.63816 0.14564 0.0
H687 H 0.59316 0.63469 0.1631 0.0
H688 H 0.57903 0.6097 0.14484 0.0
H689 H 0.55656 0.52262 0.16231 0.0
H690 H 0.57125 0.54085 0.13486 0.0
H691 H 0.54839 0.56543 0.14822 0.0
H692 H 0.534 0.54743 0.17596 0.0
H693 H 0.5778 0.58366 0.15152 0.0
H694 H 0.54437 0.5463 0.10034 0.0
H695 H 0.53089 0.52103 0.08275 0.0
H696 H 0.57307 0.52461 0.06737 0.0
H697 H 0.58681 0.54983 0.08512 0.0
C698 C 0.60926 0.62929 0.073 0.0
C699 C 0.62106 0.62957 0.06148 0.0
C700 C 0.60048 0.61734 0.08653 0.0
C701 C 0.60331 0.60542 0.08898 0.0
C702 C 0.61529 0.60581 0.07791 0.0
C703 C 0.62415 0.61781 0.06438 0.0
C704 C 0.59337 0.59234 0.10252 0.0
C705 C 0.58568 0.5776 0.09351 0.0
C706 C 0.59055 0.5945 0.12375 0.0
C707 C 0.59901 0.60958 0.13465 0.0
C708 C 0.61486 0.61774 0.13507 0.0
C709 C 0.62277 0.63192 0.1454 0.0
C710 C 0.61495 0.63803 0.15548 0.0
C711 C 0.5992 0.62996 0.15527 0.0
C712 C 0.59124 0.61577 0.14495 0.0
C713 C 0.55427 0.53157 0.15876 0.0
C714 C 0.54414 0.53364 0.17114 0.0
C715 C 0.56272 0.54203 0.14314 0.0
C716 C 0.561 0.55459 0.13954 0.0
C717 C 0.54999 0.5559 0.1508 0.0
C718 C 0.54167 0.54556 0.1665 0.0
C719 C 0.5718 0.56729 0.12604 0.0
C720 C 0.57975 0.58199 0.13513 0.0
C721 C 0.57487 0.56504 0.10496 0.0
C722 C 0.56662 0.54989 0.09425 0.0
C723 C 0.55077 0.54164 0.09336 0.0
C724 C 0.54308 0.52734 0.08333 0.0
C725 C 0.55111 0.5212 0.074 0.0
C726 C 0.56686 0.52937 0.07463 0.0
C727 C 0.57461 0.54368 0.08465 0.0
H728 H 0.54514 0.51012 0.06624 0.0
H729 H 0.6211 0.649 0.16348 0.0
H730 H 0.36759 0.97263 0.07355 0.0
H731 H 0.38894 0.97856 0.09659 0.0
H732 H 0.41512 0.02257 0.0682 0.0
H733 H 0.3937 0.01686 0.04534 0.0
H734 H 0.42965 0.00456 0.06986 0.0
H735 H 0.40512 0.02342 0.11458 0.0
H736 H 0.38364 0.02225 0.13339 0.0
H737 H 0.37784 0.98415 0.1686 0.0
H738 H 0.39914 0.98494 0.14976 0.0
H739 H 0.47144 0.0204 0.17995 0.0
H740 H 0.45847 0.02564 0.15215 0.0
H741 H 0.44756 0.98354 0.12043 0.0
H742 H 0.46029 0.97812 0.14838 0.0
H743 H 0.428 0.0058 0.14798 0.0
H744 H 0.44077 0.9868 0.0676 0.0
H745 H 0.46244 0.98836 0.04882 0.0
H746 H 0.49278 0.02834 0.08517 0.0
H747 H 0.47129 0.02716 0.10395 0.0
C748 C 0.3778 0.98367 0.07244 0.0
C749 C 0.37893 0.99429 0.05767 0.0
C750 C 0.38999 0.98703 0.08558 0.0
C751 C 0.40361 1.00097 0.084 0.0
C752 C 0.4047 0.01174 0.0696 0.0
C753 C 0.39241 0.0085 0.0567 0.0
C754 C 0.41679 0.00399 0.09698 0.0
C755 C 0.42938 0.00494 0.08694 0.0
C756 C 0.41647 0.00467 0.11922 0.0
C757 C 0.40366 0.00417 0.13062 0.0
C758 C 0.39918 0.01471 0.1262 0.0
C759 C 0.38705 0.01413 0.1369 0.0
C760 C 0.37936 0.00311 0.15215 0.0
C761 C 0.3838 0.99267 0.15677 0.0
C762 C 0.39591 0.99319 0.1461 0.0
C763 C 0.46678 0.01255 0.16662 0.0
C764 C 0.46673 0.99877 0.16647 0.0
C765 C 0.45931 0.01552 0.15081 0.0
C766 C 0.45189 0.00489 0.13437 0.0
C767 C 0.45327 0.99194 0.13292 0.0
C768 C 0.46066 0.9889 0.14885 0.0
C769 C 0.44079 0.00602 0.12092 0.0
C770 C 0.42846 0.00569 0.13089 0.0
C771 C 0.4414 0.00593 0.09865 0.0
C772 C 0.4544 0.0068 0.08731 0.0
C773 C 0.45206 0.99596 0.07153 0.0
C774 C 0.46431 0.99677 0.06089 0.0
C775 C 0.47898 0.00842 0.06584 0.0
C776 C 0.48142 0.01929 0.08141 0.0
C777 C 0.4692 0.01854 0.09209 0.0
H778 H 0.48845 0.00902 0.05759 0.0
H779 H 0.36998 0.00269 0.16042 0.0
H780 H 0.3902 0.01946 0.96399 0.0
H781 H 0.41155 0.02516 0.94108 0.0
H782 H 0.39569 0.97719 0.93495 0.0
H783 H 0.37445 0.97137 0.95765 0.0
H784 H 0.42557 0.99386 0.9455 0.0
H785 H 0.39174 0.99598 0.89507 0.0
H786 H 0.37585 0.00529 0.88073 0.0
H787 H 0.41422 0.05072 0.87896 0.0
H788 H 0.4303 0.0417 0.89359 0.0
H789 H 0.462 0.98541 0.8563 0.0
H790 H 0.44671 0.98555 0.88558 0.0
H791 H 0.46502 0.03377 0.8779 0.0
H792 H 0.47991 0.03346 0.848 0.0
H793 H 0.4364 0.02046 0.87743 0.0
H794 H 0.47096 0.0179 0.92399 0.0
H795 H 0.48696 0.0086 0.93794 0.0
H796 H 0.44785 0.96441 0.94706 0.0
H797 H 0.43162 0.97337 0.93289 0.0
C798 C 0.39113 0.01011 0.95754 0.0
C799 C 0.3806 0.99495 0.96279 0.0
C800 C 0.40337 0.01339 0.94448 0.0
C801 C 0.40525 0.00159 0.93643 0.0
C802 C 0.39453 0.98648 0.94115 0.0
C803 C 0.38232 0.98318 0.95408 0.0
C804 C 0.41853 0.00483 0.92351 0.0
C805 C 0.42792 0.99959 0.93052 0.0
C806 C 0.42187 0.01277 0.90437 0.0
C807 C 0.41217 0.0182 0.89573 0.0
C808 C 0.39675 0.00798 0.89185 0.0
C809 C 0.38772 0.0132 0.88361 0.0
C810 C 0.394 0.0286 0.87902 0.0
C811 C 0.40935 0.0388 0.88258 0.0
C812 C 0.41843 0.03364 0.89084 0.0
C813 C 0.46321 0.99614 0.86143 0.0
C814 C 0.47217 0.00944 0.85001 0.0
C815 C 0.45443 0.99623 0.87818 0.0
C816 C 0.4547 0.00969 0.88408 0.0
C817 C 0.46456 0.02323 0.87364 0.0
C818 C 0.47316 0.02309 0.85669 0.0
C819 C 0.44336 0.00918 0.8991 0.0
C820 C 0.43429 0.01494 0.89253 0.0
C821 C 0.44035 0.00174 0.91867 0.0
C822 C 0.45008 0.9963 0.92724 0.0
C823 C 0.46578 0.00617 0.92883 0.0
C824 C 0.47489 1.00096 0.9368 0.0
C825 C 0.46843 0.98592 0.94335 0.0
C826 C 0.45284 0.97606 0.94198 0.0
C827 C 0.44368 0.9812 0.93401 0.0
H828 H 0.47551 0.98191 0.94951 0.0
H829 H 0.38699 0.03261 0.87264 0.0
H830 H 0.96659 0.37122 0.96202 0.0
H831 H 0.97069 0.3919 0.93927 0.0
H832 H 0.0183 0.40812 0.93789 0.0
H833 H 0.01436 0.38755 0.96114 0.0
H834 H 0.01359 0.43126 0.94506 0.0
H835 H 0.9957 0.3901 0.8948 0.0
H836 H 0.97851 0.36437 0.88009 0.0
H837 H 0.94244 0.37364 0.87886 0.0
H838 H 0.95937 0.39937 0.89382 0.0
H839 H 0.03065 0.4792 0.85554 0.0
H840 H 0.02754 0.46193 0.88392 0.0
H841 H 0.97984 0.44547 0.88519 0.0
H842 H 0.983 0.46259 0.85646 0.0
H843 H 0.98478 0.42282 0.87885 0.0
H844 H 0.00357 0.46484 0.92802 0.0
H845 H 0.02135 0.49064 0.942 0.0
H846 H 0.05643 0.47996 0.9444 0.0
H847 H 0.03892 0.45416 0.93015 0.0
C848 C 0.97794 0.37903 0.95672 0.0
C849 C 0.99014 0.37765 0.96346 0.0
C850 C 0.98026 0.39088 0.94364 0.0
C851 C 0.9948 0.40154 0.93675 0.0
C852 C 0.00698 0.40005 0.94305 0.0
C853 C 0.00468 0.38819 0.95622 0.0
C854 C 0.99725 0.41445 0.92345 0.0
C855 C 0.00744 0.42943 0.93043 0.0
C856 C 0.98898 0.41209 0.90461 0.0
C857 C 0.97877 0.39661 0.89562 0.0
C858 C 0.98407 0.38661 0.89155 0.0
C859 C 0.97438 0.37203 0.88314 0.0
C860 C 0.95938 0.36736 0.8786 0.0
C861 C 0.95405 0.37727 0.88241 0.0
C862 C 0.9637 0.39185 0.89083 0.0
C863 C 0.01966 0.47241 0.86263 0.0
C864 C 0.0071 0.47238 0.8542 0.0
C865 C 0.01785 0.46247 0.87877 0.0
C866 C 0.00344 0.45237 0.88674 0.0
C867 C 0.99106 0.45316 0.87931 0.0
C868 C 0.99287 0.46306 0.86311 0.0
C869 C 1.00101 0.43968 0.90052 0.0
C870 C 0.99086 0.4247 0.89356 0.0
C871 C 0.0094 0.44208 0.91926 0.0
C872 C 0.01996 0.4576 0.92783 0.0
C873 C 0.01511 0.46803 0.93136 0.0
C874 C 0.02513 0.48265 0.93937 0.0
C875 C 0.04001 0.48695 0.94404 0.0
C876 C 0.0449 0.47662 0.94076 0.0
C877 C 0.03493 0.46199 0.93274 0.0
H878 H 0.04775 0.49827 0.95024 0.0
H879 H 0.9519 0.35607 0.87208 0.0
H880 H 0.62965 0.61276 0.97344 0.0
H881 H 0.61251 0.59131 0.95044 0.0
H882 H 0.59174 0.61638 0.93016 0.0
H883 H 0.60857 0.63766 0.95325 0.0
H884 H 0.57088 0.58849 0.94136 0.0
H885 H 0.61548 0.61072 0.89809 0.0
H886 H 0.64219 0.62008 0.89021 0.0
H887 H 0.63537 0.57579 0.90223 0.0
H888 H 0.60865 0.56621 0.91044 0.0
H889 H 0.53462 0.55398 0.84487 0.0
H890 H 0.5489 0.56921 0.8756 0.0
H891 H 0.5625 0.5367 0.88871 0.0
H892 H 0.54836 0.52152 0.85767 0.0
H893 H 0.58638 0.56506 0.88522 0.0
H894 H 0.54036 0.54218 0.92343 0.0
H895 H 0.5136 0.53331 0.93004 0.0
H896 H 0.5229 0.57923 0.92649 0.0
H897 H 0.54968 0.58837 0.91956 0.0
C898 C 0.62161 0.6138 0.9638 0.0
C899 C 0.62043 0.62689 0.96526 0.0
C900 C 0.61179 0.60152 0.9507 0.0
C901 C 0.60079 0.60222 0.93866 0.0
C902 C 0.60003 0.61552 0.93949 0.0
C903 C 0.60973 0.62771 0.95263 0.0
C904 C 0.58966 0.589 0.92568 0.0
C905 C 0.57426 0.58342 0.92897 0.0
C906 C 0.59406 0.58205 0.91004 0.0
C907 C 0.61012 0.5878 0.90513 0.0
C908 C 0.61971 0.60301 0.89923 0.0
C909 C 0.63484 0.60835 0.89467 0.0
C910 C 0.64049 0.59855 0.89579 0.0
C911 C 0.63099 0.58338 0.90141 0.0
C912 C 0.61585 0.57799 0.90601 0.0
C913 C 0.54029 0.54986 0.8547 0.0
C914 C 0.54043 0.53662 0.84891 0.0
C915 C 0.54842 0.55854 0.87228 0.0
C916 C 0.55678 0.55409 0.88446 0.0
C917 C 0.55611 0.54032 0.87953 0.0
C918 C 0.54792 0.53159 0.86193 0.0
C919 C 0.56758 0.56479 0.90053 0.0
C920 C 0.58295 0.56992 0.89784 0.0
C921 C 0.56315 0.57139 0.91662 0.0
C922 C 0.54704 0.56595 0.92085 0.0
C923 C 0.53668 0.55038 0.92391 0.0
C924 C 0.52151 0.5453 0.92774 0.0
C925 C 0.51655 0.55569 0.92866 0.0
C926 C 0.52676 0.57119 0.92578 0.0
C927 C 0.54195 0.57633 0.92193 0.0
H928 H 0.5048 0.55174 0.93163 0.0
H929 H 0.6522 0.6027 0.89225 0.0
H930 H 0.979 0.61205 0.97053 0.0
H931 H 0.97182 0.59024 0.94667 0.0
H932 H 0.01836 0.60936 0.92897 0.0
H933 H 0.02558 0.63117 0.95223 0.0
H934 H 1.00059 0.59817 0.89533 0.0
H935 H 1.00104 0.58132 0.96661 0.0
H936 H 0.99255 0.57611 0.00354 0.0
H937 H 0.94719 0.54529 0.98259 0.0
H938 H 0.95535 0.55048 0.94553 0.0
H939 H 0.01327 0.54235 0.86059 0.0
H940 H 0.01086 0.55692 0.88958 0.0
H941 H 0.96339 0.53617 0.87631 0.0
H942 H 0.96572 0.52151 0.84704 0.0
H943 H 0.97675 0.5461 0.92436 0.0
H944 H 0.97643 0.56286 0.8529 0.0
H945 H 0.98546 0.56698 0.81618 0.0
H946 H 0.03068 0.59766 0.83792 0.0
H947 H 0.02194 0.59344 0.87481 0.0
C948 C 0.98768 0.6117 0.96136 0.0
C949 C 0.00289 0.62335 0.96343 0.0
C950 C 0.98356 0.59917 0.94784 0.0
C951 C 0.99459 0.59808 0.93626 0.0
C952 C 0.00966 0.60994 0.93776 0.0
C953 C 0.01377 0.62242 0.95116 0.0
C954 C 0.99076 0.58452 0.92288 0.0
C955 C 0.99531 0.58681 0.90173 0.0
C956 C 0.98361 0.56959 0.93104 0.0
C957 C 0.97877 0.56643 0.95331 0.0
C958 C 0.98924 0.57352 0.96989 0.0
C959 C 0.9845 0.57056 0.99083 0.0
C960 C 0.96935 0.56042 0.9954 0.0
C961 C 0.95891 0.55317 0.97903 0.0
C962 C 0.96359 0.55611 0.95806 0.0
C963 C 1.00217 0.54029 0.86447 0.0
C964 C 0.9897 0.53091 0.85147 0.0
C965 C 1.00082 0.54866 0.88101 0.0
C966 C 0.98698 0.54768 0.88486 0.0
C967 C 0.97413 0.537 0.87355 0.0
C968 C 0.9755 0.5287 0.85684 0.0
C969 C 0.98687 0.55997 0.89721 0.0
C970 C 0.98166 0.55744 0.91799 0.0
C971 C 0.99335 0.57471 0.88877 0.0
C972 C 0.99855 0.57774 0.8666 0.0
C973 C 0.98831 0.57041 0.84984 0.0
C974 C 0.99337 0.57276 0.82901 0.0
C975 C 0.00864 0.58255 0.82472 0.0
C976 C 0.01886 0.59006 0.84127 0.0
C977 C 0.01386 0.5877 0.86214 0.0
H978 H 0.01254 0.58434 0.80859 0.0
H979 H 0.96571 0.55814 0.01163 0.0
H980 H 0.39156 0.3625 0.94546 0.0
H981 H 0.40871 0.38183 0.92092 0.0
H982 H 0.39733 0.41376 0.94745 0.0
H983 H 0.37964 0.39422 0.97149 0.0
H984 H 0.4014 0.41777 0.90643 0.0
H985 H 0.4297 0.41338 0.96317 0.0
H986 H 0.43738 0.39949 0.98655 0.0
H987 H 0.45277 0.38499 0.93308 0.0
H988 H 0.44502 0.39863 0.90937 0.0
H989 H 0.46371 0.47977 0.85669 0.0
H990 H 0.44749 0.46399 0.88545 0.0
H991 H 0.45585 0.42817 0.86673 0.0
H992 H 0.47258 0.44424 0.83893 0.0
H993 H 0.45388 0.42821 0.90692 0.0
H994 H 0.42375 0.43042 0.84998 0.0
H995 H 0.41573 0.4437 0.82597 0.0
H996 H 0.40361 0.46179 0.87901 0.0
H997 H 0.41173 0.44876 0.90333 0.0
C998 C 0.39253 0.37357 0.94583 0.0
C999 C 0.38436 0.37689 0.96053 0.0
C1000 C 0.40242 0.38465 0.9319 0.0
C1001 C 0.40469 0.39943 0.93278 0.0
C1002 C 0.39588 0.4025 0.9466 0.0
C1003 C 0.38575 0.39131 0.9603 0.0
C1004 C 0.4167 0.41177 0.91996 0.0
C1005 C 0.41292 0.4202 0.90676 0.0
C1006 C 0.43173 0.41489 0.9202 0.0
C1007 C 0.4367 0.40696 0.9345 0.0
C1008 C 0.43468 0.40718 0.9564 0.0
C1009 C 0.43904 0.39935 0.96971 0.0
C1010 C 0.44554 0.39134 0.9613 0.0
C1011 C 0.44774 0.39119 0.93958 0.0
C1012 C 0.44338 0.39899 0.9262 0.0
C1013 C 0.46242 0.46872 0.8593 0.0
C1014 C 0.46947 0.46322 0.84594 0.0
C1015 C 0.453 0.45962 0.87548 0.0
C1016 C 0.45013 0.4447 0.87799 0.0
C1017 C 0.45784 0.43959 0.86519 0.0
C1018 C 0.46744 0.44878 0.84936 0.0
C1019 C 0.43853 0.43398 0.89296 0.0
C1020 C 0.44239 0.42588 0.90668 0.0
C1021 C 0.42357 0.43111 0.89309 0.0
C1022 C 0.41847 0.43873 0.87845 0.0
C1023 C 0.41943 0.43728 0.85651 0.0
C1024 C 0.41487 0.44476 0.84285 0.0
C1025 C 0.4092 0.45361 0.85096 0.0
C1026 C 0.40802 0.45495 0.87275 0.0
C1027 C 0.41259 0.44751 0.88647 0.0
H1028 H 0.40569 0.45941 0.84037 0.0
H1029 H 0.44888 0.38527 0.97162 0.0
H1030 H 0.63685 0.03591 0.95495 0.0
H1031 H 0.61549 0.02954 0.93209 0.0
H1032 H 0.60272 0.98228 0.93165 0.0
H1033 H 0.62405 0.98844 0.95515 0.0
H1034 H 0.60229 0.99859 0.88923 0.0
H1035 H 0.58259 0.98517 0.95968 0.0
H1036 H 0.58344 0.98982 0.99807 0.0
H1037 H 0.58181 0.03034 0.9878 0.0
H1038 H 0.58123 0.02606 0.94931 0.0
H1039 H 0.53178 0.97797 0.84406 0.0
H1040 H 0.54807 0.9763 0.87062 0.0
H1041 H 0.56507 0.02317 0.88899 0.0
H1042 H 0.54905 0.02493 0.86208 0.0
H1043 H 0.56141 0.00304 0.92361 0.0
H1044 H 0.58365 0.01843 0.85474 0.0
H1045 H 0.58455 0.01584 0.81612 0.0
H1046 H 0.5827 0.97323 0.8231 0.0
H1047 H 0.58149 0.97543 0.86179 0.0
C1048 C 0.62971 0.02416 0.94981 0.0
C1049 C 0.63215 0.01267 0.95709 0.0
C1050 C 0.61747 0.02056 0.93675 0.0
C1051 C 0.6075 0.00545 0.9304 0.0
C1052 C 0.61032 0.99402 0.93648 0.0
C1053 C 0.62251 0.99757 0.94988 0.0
C1054 C 0.59368 0.00177 0.9186 0.0
C1055 C 0.59314 0.99913 0.89678 0.0
C1056 C 0.582 0.00292 0.92847 0.0
C1057 C 0.582 0.00536 0.9516 0.0
C1058 C 0.58254 0.99514 0.9656 0.0
C1059 C 0.58295 0.99769 0.98738 0.0
C1060 C 0.58272 0.01038 0.99537 0.0
C1061 C 0.58201 0.02051 0.98159 0.0
C1062 C 0.58162 0.01802 0.95978 0.0
C1063 C 0.53854 0.98768 0.8544 0.0
C1064 C 0.53909 0.00152 0.85131 0.0
C1065 C 0.5479 0.98677 0.86941 0.0
C1066 C 0.55783 0.99965 0.88163 0.0
C1067 C 0.55743 0.01309 0.87978 0.0
C1068 C 0.54826 0.01408 0.86452 0.0
C1069 C 0.56995 0.99978 0.8942 0.0
C1070 C 0.5703 0.002 0.91612 0.0
C1071 C 0.5815 0.99832 0.8844 0.0
C1072 C 0.58225 0.99698 0.86115 0.0
C1073 C 0.58325 0.00842 0.84804 0.0
C1074 C 0.58386 0.00704 0.82614 0.0
C1075 C 0.58363 0.99435 0.81716 0.0
C1076 C 0.58283 0.98303 0.83008 0.0
C1077 C 0.58218 0.98433 0.85199 0.0
H1078 H 0.58412 0.99332 0.80021 0.0
H1079 H 0.58306 0.01235 0.01224 0.0
H1080 H 0.6235 0.9889 0.06145 0.0
H1081 H 0.6016 0.98238 0.08364 0.0
H1082 H 0.60095 0.02164 0.06121 0.0
H1083 H 0.6231 0.02854 0.03992 0.0
H1084 H 0.59664 0.02035 0.10063 0.0
H1085 H 0.57474 0.98364 0.04443 0.0
H1086 H 0.57199 0.96328 0.02011 0.0
H1087 H 0.56403 0.93408 0.07246 0.0
H1088 H 0.56693 0.95434 0.09714 0.0
H1089 H 0.52684 0.9993 0.1495 0.0
H1090 H 0.54382 0.0032 0.11982 0.0
H1091 H 0.55317 0.97012 0.14561 0.0
H1092 H 0.53629 0.96623 0.17503 0.0
H1093 H 0.55145 0.96839 0.10192 0.0
H1094 H 0.57571 0.00701 0.15758 0.0
H1095 H 0.57803 0.02768 0.1809 0.0
H1096 H 0.58072 0.05369 0.12692 0.0
H1097 H 0.57821 0.03307 0.10328 0.0
C1098 C 0.6187 0.99614 0.06135 0.0
C1099 C 0.62514 0.0093 0.04908 0.0
C1100 C 0.60609 0.99235 0.07389 0.0
C1101 C 0.59944 0.0014 0.07394 0.0
C1102 C 0.60586 0.01449 0.06159 0.0
C1103 C 0.61858 0.01844 0.04942 0.0
C1104 C 0.58609 0.9976 0.08728 0.0
C1105 C 0.58667 0.00904 0.10055 0.0
C1106 C 0.57307 0.98282 0.08746 0.0
C1107 C 0.57117 0.97056 0.07265 0.0
C1108 C 0.57249 0.97291 0.05077 0.0
C1109 C 0.5709 0.96138 0.03692 0.0
C1110 C 0.56787 0.94741 0.04474 0.0
C1111 C 0.56639 0.94491 0.06643 0.0
C1112 C 0.56798 0.95641 0.08036 0.0
C1113 C 0.53224 0.99262 0.14844 0.0
C1114 C 0.5304 0.98256 0.16452 0.0
C1115 C 0.54197 0.99488 0.13161 0.0
C1116 C 0.5499 0.98707 0.13067 0.0
C1117 C 0.5472 0.97627 0.146 0.0
C1118 C 0.5376 0.97409 0.16282 0.0
C1119 C 0.56212 0.99112 0.11514 0.0
C1120 C 0.56136 0.97973 0.10161 0.0
C1121 C 0.57491 0.00599 0.11447 0.0
C1122 C 0.57661 0.01844 0.12868 0.0
C1123 C 0.5767 0.0171 0.1507 0.0
C1124 C 0.57806 0.02881 0.16397 0.0
C1125 C 0.57948 0.04197 0.15539 0.0
C1126 C 0.5796 0.04348 0.13353 0.0
C1127 C 0.57821 0.03179 0.1202 0.0
H1128 H 0.58053 0.05102 0.16569 0.0
H1129 H 0.56665 0.9385 0.03399 0.0
H1130 H 0.0394 0.64114 0.06212 0.0
H1131 H 0.03748 0.62183 0.08595 0.0
H1132 H 0.98902 0.59944 0.08398 0.0
H1133 H 0.99077 0.61881 0.05996 0.0
H1134 H 1.00059 0.60041 0.12448 0.0
H1135 H 0.00592 0.58623 0.05367 0.0
H1136 H 0.01804 0.59056 0.01887 0.0
H1137 H 0.05876 0.59809 0.04807 0.0
H1138 H 0.04704 0.59418 0.0831 0.0
H1139 H 0.98768 0.53265 0.16921 0.0
H1140 H 0.98745 0.54909 0.14185 0.0
H1141 H 0.03597 0.57265 0.13892 0.0
H1142 H 0.03624 0.55619 0.16634 0.0
H1143 H 0.02329 0.57025 0.10004 0.0
H1144 H 0.01946 0.58597 0.17014 0.0
H1145 H 0.0088 0.58312 0.20576 0.0
H1146 H 0.96685 0.57416 0.17908 0.0
H1147 H 0.97714 0.57662 0.14325 0.0
C1148 C 0.02829 0.63224 0.06688 0.0
C1149 C 0.01522 0.63149 0.05887 0.0
C1150 C 0.02724 0.62116 0.08048 0.0
C1151 C 0.01311 0.60902 0.08641 0.0
C1152 C 1.00004 0.60866 0.07948 0.0
C1153 C 1.00107 0.61977 0.06577 0.0
C1154 C 0.01211 0.59645 0.09911 0.0
C1155 C 0.00531 0.59363 0.119 0.0
C1156 C 0.01864 0.58788 0.09217 0.0
C1157 C 0.02563 0.59003 0.07105 0.0
C1158 C 0.0175 0.58892 0.0527 0.0
C1159 C 0.02429 0.59128 0.03293 0.0
C1160 C 0.03915 0.59459 0.03127 0.0
C1161 C 0.04725 0.59553 0.04938 0.0
C1162 C 0.04054 0.59325 0.0692 0.0
C1163 C 0.99826 0.54101 0.16222 0.0
C1164 C 0.01199 0.5432 0.16997 0.0
C1165 C 0.99812 0.55048 0.14673 0.0
C1166 C 0.01171 0.56235 0.13874 0.0
C1167 C 0.02535 0.56363 0.14498 0.0
C1168 C 0.0255 0.55413 0.16052 0.0
C1169 C 0.01176 0.57419 0.12541 0.0
C1170 C 0.01842 0.57692 0.10544 0.0
C1171 C 0.00526 0.5828 0.1324 0.0
C1172 C 0.99902 0.58129 0.15396 0.0
C1173 C 0.00791 0.58323 0.17184 0.0
C1174 C 1.00194 0.58171 0.19208 0.0
C1175 C 0.98714 0.57842 0.19467 0.0
C1176 C 0.97829 0.57667 0.17704 0.0
C1177 C 0.98419 0.57812 0.15676 0.0
H1178 H 0.98254 0.57726 0.21034 0.0
H1179 H 0.04438 0.59641 0.01594 0.0
H1180 H 0.38834 0.36713 0.07678 0.0
H1181 H 0.4047 0.38743 0.1016 0.0
H1182 H 0.39504 0.41853 0.07011 0.0
H1183 H 0.37839 0.39808 0.04522 0.0
H1184 H 0.42596 0.42948 0.07465 0.0
H1185 H 0.38276 0.40943 0.11762 0.0
H1186 H 0.36001 0.39017 0.13594 0.0
H1187 H 0.3868 0.37792 0.17284 0.0
H1188 H 0.40971 0.39692 0.15449 0.0
H1189 H 0.46426 0.47933 0.17098 0.0
H1190 H 0.44542 0.46557 0.14293 0.0
H1191 H 0.45827 0.43158 0.14023 0.0
H1192 H 0.47737 0.44555 0.16764 0.0
H1193 H 0.42396 0.42583 0.1526 0.0
H1194 H 0.46577 0.44227 0.1022 0.0
H1195 H 0.48837 0.46226 0.08437 0.0
H1196 H 0.46321 0.48221 0.06239 0.0
H1197 H 0.44051 0.46246 0.08048 0.0
C1198 C 0.38945 0.37821 0.07538 0.0
C1199 C 0.38211 0.38104 0.05905 0.0
C1200 C 0.39877 0.38978 0.08961 0.0
C1201 C 0.40106 0.40446 0.0877 0.0
C1202 C 0.39338 0.40725 0.07185 0.0
C1203 C 0.38381 0.39555 0.05776 0.0
C1204 C 0.41248 0.417 0.10127 0.0
C1205 C 0.42536 0.42885 0.09171 0.0
C1206 C 0.41174 0.41613 0.12352 0.0
C1207 C 0.39797 0.40454 0.1345 0.0
C1208 C 0.3838 0.40252 0.12947 0.0
C1209 C 0.37087 0.39167 0.1399 0.0
C1210 C 0.37195 0.3828 0.15551 0.0
C1211 C 0.38598 0.38479 0.16073 0.0
C1212 C 0.39895 0.39561 0.15032 0.0
C1213 C 0.46348 0.46931 0.16362 0.0
C1214 C 0.47242 0.46363 0.17097 0.0
C1215 C 0.4527 0.46143 0.1478 0.0
C1216 C 0.45061 0.44767 0.1395 0.0
C1217 C 0.45994 0.44233 0.14625 0.0
C1218 C 0.4709 0.45035 0.16173 0.0
C1219 C 0.43749 0.43782 0.12591 0.0
C1220 C 0.42433 0.42654 0.13555 0.0
C1221 C 0.43794 0.43923 0.10382 0.0
C1222 C 0.45154 0.45108 0.093 0.0
C1223 C 0.46512 0.45105 0.09384 0.0
C1224 C 0.47793 0.4623 0.08362 0.0
C1225 C 0.47725 0.47355 0.07234 0.0
C1226 C 0.46373 0.47353 0.0712 0.0
C1227 C 0.4509 0.46231 0.08144 0.0
H1228 H 0.48717 0.48224 0.06442 0.0
H1229 H 0.36193 0.37441 0.16358 0.0
H1230 H 0.64332 0.69971 0.40743 0.0
H1231 H 0.64731 0.72033 0.43149 0.0
H1232 H 0.69062 0.74993 0.40336 0.0
H1233 H 0.68688 0.72912 0.37956 0.0
H1234 H 0.69222 0.75503 0.44436 0.0
H1235 H 0.65939 0.75189 0.38967 0.0
H1236 H 0.63744 0.73941 0.36568 0.0
H1237 H 0.60756 0.72658 0.41857 0.0
H1238 H 0.62934 0.73879 0.44291 0.0
H1239 H 0.6957 0.81879 0.49677 0.0
H1240 H 0.69418 0.80225 0.46729 0.0
H1241 H 0.65167 0.76619 0.49059 0.0
H1242 H 0.65291 0.78278 0.51966 0.0
H1243 H 0.65147 0.7671 0.44815 0.0
H1244 H 0.68529 0.76671 0.50205 0.0
H1245 H 0.70774 0.77905 0.52539 0.0
H1246 H 0.73614 0.79964 0.47186 0.0
H1247 H 0.71389 0.78741 0.44829 0.0
C1248 C 0.65379 0.71055 0.40653 0.0
C1249 C 0.66473 0.71283 0.39147 0.0
C1250 C 0.65601 0.72236 0.42019 0.0
C1251 C 0.66906 0.73681 0.4188 0.0
C1252 C 0.68039 0.73891 0.40457 0.0
C1253 C 0.67826 0.727 0.39104 0.0
C1254 C 0.67064 0.74972 0.43196 0.0
C1255 C 0.68343 0.75785 0.44489 0.0
C1256 C 0.65917 0.7534 0.43272 0.0
C1257 C 0.64601 0.74617 0.41813 0.0
C1258 C 0.64814 0.74633 0.3962 0.0
C1259 C 0.63573 0.73931 0.38254 0.0
C1260 C 0.62111 0.73219 0.3906 0.0
C1261 C 0.61889 0.7321 0.41235 0.0
C1262 C 0.63126 0.73908 0.42609 0.0
C1263 C 0.68582 0.80749 0.49524 0.0
C1264 C 0.67444 0.80206 0.51057 0.0
C1265 C 0.68507 0.79799 0.47856 0.0
C1266 C 0.67297 0.78288 0.477 0.0
C1267 C 0.66116 0.77777 0.49155 0.0
C1268 C 0.66188 0.78725 0.50817 0.0
C1269 C 0.67282 0.77209 0.46092 0.0
C1270 C 0.66032 0.76439 0.44739 0.0
C1271 C 0.68463 0.76893 0.4594 0.0
C1272 C 0.69795 0.77634 0.47353 0.0
C1273 C 0.69633 0.77399 0.49536 0.0
C1274 C 0.70899 0.78092 0.50859 0.0
C1275 C 0.72332 0.7902 0.50013 0.0
C1276 C 0.72503 0.79249 0.47841 0.0
C1277 C 0.71241 0.78554 0.46511 0.0
H1278 H 0.73311 0.79556 0.5104 0.0
H1279 H 0.61152 0.72676 0.38 0.0
H1280 H 0.27592 0.97773 0.40918 0.0
H1281 H 0.25978 0.95773 0.43375 0.0
H1282 H 0.28186 0.93291 0.41725 0.0
H1283 H 0.29814 0.95287 0.39281 0.0
H1284 H 0.25063 0.91552 0.41315 0.0
H1285 H 0.28731 0.94779 0.46459 0.0
H1286 H 0.30382 0.97127 0.48513 0.0
H1287 H 0.26519 0.97267 0.50701 0.0
H1288 H 0.24844 0.94929 0.48637 0.0
H1289 H 0.21774 0.85906 0.4936 0.0
H1290 H 0.23258 0.87796 0.46697 0.0
H1291 H 0.21416 0.90543 0.48793 0.0
H1292 H 0.19957 0.88668 0.5148 0.0
H1293 H 0.24382 0.92139 0.48942 0.0
H1294 H 0.20701 0.88855 0.43803 0.0
H1295 H 0.19078 0.86461 0.41823 0.0
H1296 H 0.22986 0.86401 0.39648 0.0
H1297 H 0.24633 0.88782 0.41643 0.0
C1298 C 0.27756 0.96817 0.41109 0.0
C1299 C 0.28829 0.96688 0.39894 0.0
C1300 C 0.26833 0.95676 0.42515 0.0
C1301 C 0.26958 0.94381 0.42722 0.0
C1302 C 0.28069 0.94279 0.41582 0.0
C1303 C 0.29006 0.95429 0.40196 0.0
C1304 C 0.25856 0.93085 0.44006 0.0
C1305 C 0.24926 0.91672 0.42991 0.0
C1306 C 0.25655 0.93256 0.46176 0.0
C1307 C 0.26662 0.94688 0.4737 0.0
C1308 C 0.28234 0.95321 0.47355 0.0
C1309 C 0.29174 0.96647 0.48528 0.0
C1310 C 0.28556 0.97348 0.49731 0.0
C1311 C 0.26996 0.96724 0.49764 0.0
C1312 C 0.26051 0.95398 0.48594 0.0
C1313 C 0.21639 0.86882 0.49189 0.0
C1314 C 0.20751 0.87143 0.50617 0.0
C1315 C 0.22494 0.87967 0.47674 0.0
C1316 C 0.22457 0.89319 0.47553 0.0
C1317 C 0.21471 0.89515 0.48867 0.0
C1318 C 0.20628 0.88439 0.50387 0.0
C1319 C 0.2357 0.90603 0.4625 0.0
C1320 C 0.2451 0.92016 0.47264 0.0
C1321 C 0.23779 0.9043 0.4408 0.0
C1322 C 0.2279 0.8899 0.42893 0.0
C1323 C 0.21214 0.88324 0.42921 0.0
C1324 C 0.2029 0.8697 0.41792 0.0
C1325 C 0.20928 0.86277 0.40615 0.0
C1326 C 0.22493 0.86938 0.40563 0.0
C1327 C 0.23422 0.8829 0.41692 0.0
H1328 H 0.20211 0.85231 0.3974 0.0
H1329 H 0.29286 0.98373 0.50643 0.0
H1330 H 0.05267 0.35045 0.39791 0.0
H1331 H 0.07288 0.3557 0.4228 0.0
H1332 H 0.05264 0.30756 0.43331 0.0
H1333 H 0.03227 0.30222 0.40903 0.0
H1334 H 0.0654 0.32374 0.46908 0.0
H1335 H 0.07946 0.32602 0.39511 0.0
H1336 H 0.08204 0.33663 0.35969 0.0
H1337 H 0.11383 0.38133 0.38394 0.0
H1338 H 0.11112 0.37103 0.41965 0.0
H1339 H 0.12199 0.30981 0.49422 0.0
H1340 H 0.10528 0.3119 0.46909 0.0
H1341 H 0.12841 0.36042 0.48045 0.0
H1342 H 0.14502 0.35833 0.50598 0.0
H1343 H 0.11577 0.34794 0.43534 0.0
H1344 H 0.10299 0.3461 0.50872 0.0
H1345 H 0.09966 0.33623 0.54474 0.0
H1346 H 0.06559 0.29186 0.52231 0.0
H1347 H 0.06896 0.3014 0.48603 0.0
C1348 C 0.0523 0.341 0.4059 0.0
C1349 C 0.04095 0.32588 0.40113 0.0
C1350 C 0.06392 0.34402 0.42007 0.0
C1351 C 0.06448 0.33199 0.42952 0.0
C1352 C 0.05252 0.31703 0.4261 0.0
C1353 C 0.04089 0.314 0.41209 0.0
C1354 C 0.07809 0.33464 0.44121 0.0
C1355 C 0.07639 0.32902 0.46168 0.0
C1356 C 0.09254 0.34181 0.43174 0.0
C1357 C 0.09497 0.34779 0.41006 0.0
C1358 C 0.08698 0.33811 0.39288 0.0
C1359 C 0.0884 0.34408 0.37279 0.0
C1360 C 0.09801 0.35966 0.36961 0.0
C1361 C 0.10633 0.36928 0.38647 0.0
C1362 C 0.10485 0.36339 0.40664 0.0
C1363 C 0.12402 0.32101 0.49056 0.0
C1364 C 0.13479 0.33391 0.50197 0.0
C1365 C 0.11438 0.32218 0.47634 0.0
C1366 C 0.11552 0.33628 0.47316 0.0
C1367 C 0.12739 0.34945 0.48269 0.0
C1368 C 0.1369 0.34826 0.49717 0.0
C1369 C 0.10291 0.33673 0.46292 0.0
C1370 C 0.10481 0.34287 0.4428 0.0
C1371 C 0.08866 0.33016 0.47275 0.0
C1372 C 0.08636 0.32443 0.49461 0.0
C1373 C 0.09489 0.3342 0.51143 0.0
C1374 C 0.09299 0.32867 0.5319 0.0
C1375 C 0.08246 0.31341 0.5358 0.0
C1376 C 0.07377 0.30367 0.51925 0.0
C1377 C 0.07567 0.30913 0.49873 0.0
H1378 H 0.08101 0.30914 0.55165 0.0
H1379 H 0.09909 0.36426 0.35403 0.0
H1380 H 0.0481 0.30597 0.30883 0.0
H1381 H 0.06937 0.31141 0.28654 0.0
H1382 H 0.07942 0.35754 0.27932 0.0
H1383 H 0.05789 0.35218 0.30179 0.0
H1384 H 0.07876 0.34348 0.2415 0.0
H1385 H 0.10709 0.35302 0.30765 0.0
H1386 H 0.11165 0.34738 0.34362 0.0
H1387 H 0.1013 0.30286 0.32291 0.0
H1388 H 0.09741 0.30851 0.28658 0.0
H1389 H 0.14286 0.36319 0.18216 0.0
H1390 H 0.12928 0.36376 0.21348 0.0
H1391 H 0.11416 0.31656 0.2244 0.0
H1392 H 0.12763 0.31589 0.19297 0.0
H1393 H 0.1192 0.33351 0.26195 0.0
H1394 H 0.0924 0.32342 0.19675 0.0
H1395 H 0.08903 0.32812 0.15977 0.0
H1396 H 0.09428 0.37124 0.17797 0.0
H1397 H 0.0979 0.36688 0.21502 0.0
C1398 C 0.05478 0.31732 0.3026 0.0
C1399 C 0.05116 0.32862 0.30707 0.0
C1400 C 0.0671 0.32046 0.29002 0.0
C1401 C 0.07617 0.33495 0.28157 0.0
C1402 C 0.07264 0.3463 0.28587 0.0
C1403 C 0.06031 0.3432 0.29865 0.0
C1404 C 0.08856 0.33772 0.26696 0.0
C1405 C 0.08782 0.3417 0.24614 0.0
C1406 C 0.10004 0.33478 0.2727 0.0
C1407 C 0.10181 0.33112 0.29455 0.0
C1408 C 0.10569 0.342 0.31084 0.0
C1409 C 0.10821 0.33883 0.33125 0.0
C1410 C 0.10651 0.32469 0.33564 0.0
C1411 C 0.10254 0.31377 0.31953 0.0
C1412 C 0.10032 0.31701 0.29899 0.0
C1413 C 0.13701 0.35307 0.19161 0.0
C1414 C 0.13615 0.33945 0.185 0.0
C1415 C 0.12924 0.3534 0.20946 0.0
C1416 C 0.12047 0.34012 0.22097 0.0
C1417 C 0.12083 0.32692 0.21567 0.0
C1418 C 0.1286 0.32658 0.19776 0.0
C1419 C 0.10948 0.33945 0.23665 0.0
C1420 C 0.11035 0.33566 0.25749 0.0
C1421 C 0.09795 0.34231 0.23083 0.0
C1422 C 0.0956 0.34491 0.20861 0.0
C1423 C 0.09297 0.33397 0.19282 0.0
C1424 C 0.09101 0.33657 0.17184 0.0
C1425 C 0.09153 0.35001 0.16647 0.0
C1426 C 0.09394 0.36086 0.1821 0.0
C1427 C 0.09594 0.35833 0.20311 0.0
H1428 H 0.08997 0.35195 0.15022 0.0
H1429 H 0.10839 0.32225 0.35149 0.0
H1430 H 0.6842 0.7192 0.29136 0.0
H1431 H 0.68894 0.73954 0.26709 0.0
H1432 H 0.6424 0.72728 0.27178 0.0
H1433 H 0.63747 0.70675 0.2953 0.0
H1434 H 0.65055 0.73321 0.23319 0.0
H1435 H 0.67213 0.75861 0.29939 0.0
H1436 H 0.68863 0.76554 0.33066 0.0
H1437 H 0.72763 0.78481 0.2909 0.0
H1438 H 0.71133 0.7778 0.25936 0.0
H1439 H 0.65582 0.79811 0.18895 0.0
H1440 H 0.65327 0.78066 0.21696 0.0
H1441 H 0.69854 0.79062 0.20501 0.0
H1442 H 0.70113 0.80822 0.17729 0.0
H1443 H 0.6917 0.78642 0.2474 0.0
H1444 H 0.6695 0.76006 0.18147 0.0
H1445 H 0.65273 0.75359 0.1505 0.0
H1446 H 0.61431 0.7362 0.19114 0.0
H1447 H 0.63089 0.74285 0.22233 0.0
C1448 C 0.67494 0.72074 0.28705 0.0
C1449 C 0.66045 0.71131 0.29537 0.0
C1450 C 0.6777 0.73247 0.2733 0.0
C1451 C 0.66609 0.73517 0.26787 0.0
C1452 C 0.65157 0.7255 0.27572 0.0
C1453 C 0.64877 0.71371 0.28923 0.0
C1454 C 0.66891 0.748 0.25406 0.0
C1455 C 0.65944 0.74485 0.23653 0.0
C1456 C 0.68068 0.76322 0.25807 0.0
C1457 C 0.6905 0.76754 0.27701 0.0
C1458 C 0.68422 0.76423 0.29731 0.0
C1459 C 0.69353 0.76819 0.31508 0.0
C1460 C 0.70917 0.77557 0.31277 0.0
C1461 C 0.71551 0.77907 0.29267 0.0
C1462 C 0.70624 0.77511 0.27484 0.0
C1463 C 0.66538 0.79697 0.19293 0.0
C1464 C 0.67875 0.80463 0.18134 0.0
C1465 C 0.66389 0.78691 0.20873 0.0
C1466 C 0.67565 0.78418 0.21288 0.0
C1467 C 0.68935 0.79258 0.20215 0.0
C1468 C 0.69085 0.80267 0.18642 0.0
C1469 C 0.67321 0.77157 0.22683 0.0
C1470 C 0.68279 0.77476 0.24423 0.0
C1471 C 0.66147 0.75638 0.22286 0.0
C1472 C 0.65144 0.75211 0.20417 0.0
C1473 C 0.65748 0.75497 0.18374 0.0
C1474 C 0.64803 0.75127 0.16618 0.0
C1475 C 0.63248 0.74453 0.16885 0.0
C1476 C 0.62636 0.74144 0.1891 0.0
C1477 C 0.63578 0.74518 0.20672 0.0
H1478 H 0.62517 0.74167 0.15523 0.0
H1479 H 0.71636 0.77862 0.32654 0.0
H1480 H 0.26612 0.95576 0.30544 0.0
H1481 H 0.25208 0.93397 0.28183 0.0
H1482 H 0.29051 0.92821 0.27702 0.0
H1483 H 0.30485 0.95024 0.30092 0.0
H1484 H 0.27809 0.9276 0.23847 0.0
H1485 H 0.26104 0.90246 0.30329 0.0
H1486 H 0.25143 0.89846 0.33966 0.0
H1487 H 0.21069 0.89548 0.31794 0.0
H1488 H 0.22014 0.8997 0.28147 0.0
H1489 H 0.21457 0.8526 0.18967 0.0
H1490 H 0.23107 0.8663 0.21981 0.0
H1491 H 0.23036 0.90667 0.2037 0.0
H1492 H 0.21317 0.89294 0.17446 0.0
H1493 H 0.22679 0.88489 0.25495 0.0
H1494 H 0.271 0.93429 0.20318 0.0
H1495 H 0.28261 0.93827 0.16807 0.0
H1496 H 0.27063 0.89141 0.16479 0.0
H1497 H 0.25929 0.88723 0.20008 0.0
C1498 C 0.27167 0.94991 0.29944 0.0
C1499 C 0.28667 0.95482 0.30502 0.0
C1500 C 0.26354 0.93733 0.28608 0.0
C1501 C 0.27017 0.92934 0.27794 0.0
C1502 C 0.28516 0.93417 0.28333 0.0
C1503 C 0.29332 0.94675 0.29693 0.0
C1504 C 0.26155 0.91661 0.26275 0.0
C1505 C 0.26695 0.91814 0.24211 0.0
C1506 C 0.24716 0.90411 0.2677 0.0
C1507 C 0.24134 0.90146 0.28961 0.0
C1508 C 0.25007 0.90105 0.30627 0.0
C1509 C 0.24464 0.89873 0.32691 0.0
C1510 C 0.23047 0.89673 0.33111 0.0
C1511 C 0.22167 0.89702 0.31466 0.0
C1512 C 0.22705 0.89935 0.29399 0.0
C1513 C 0.21752 0.86425 0.19288 0.0
C1514 C 0.2126 0.87168 0.17945 0.0
C1515 C 0.22709 0.87209 0.20997 0.0
C1516 C 0.23212 0.88754 0.21361 0.0
C1517 C 0.22677 0.8948 0.20086 0.0
C1518 C 0.21697 0.88692 0.18413 0.0
C1519 C 0.24309 0.89635 0.23056 0.0
C1520 C 0.23806 0.89414 0.25145 0.0
C1521 C 0.2579 0.90815 0.22589 0.0
C1522 C 0.26415 0.91041 0.20425 0.0
C1523 C 0.27087 0.92483 0.195 0.0
C1524 C 0.27748 0.92715 0.17511 0.0
C1525 C 0.27743 0.91512 0.16425 0.0
C1526 C 0.27068 0.90072 0.17322 0.0
C1527 C 0.26412 0.89836 0.19316 0.0
H1528 H 0.28251 0.91693 0.14882 0.0
H1529 H 0.22629 0.89493 0.34711 0.0
H1530 H 0.69082 0.9576 0.29776 0.0
H1531 H 0.6856 0.93803 0.27153 0.0
H1532 H 0.6401 0.92866 0.26461 0.0
H1533 H 0.64514 0.94825 0.29174 0.0
H1534 H 0.64096 0.90243 0.26496 0.0
H1535 H 0.66574 0.94839 0.2268 0.0
H1536 H 0.68501 0.97508 0.21971 0.0
H1537 H 0.71942 0.9634 0.21929 0.0
H1538 H 0.7004 0.93668 0.22668 0.0
H1539 H 0.6398 0.8624 0.16716 0.0
H1540 H 0.63676 0.87744 0.1951 0.0
H1541 H 0.68145 0.89214 0.21819 0.0
H1542 H 0.68475 0.87755 0.19015 0.0
H1543 H 0.67717 0.91576 0.20617 0.0
H1544 H 0.65167 0.86982 0.24745 0.0
H1545 H 0.63183 0.84321 0.25379 0.0
H1546 H 0.59783 0.85503 0.24625 0.0
H1547 H 0.61747 0.88169 0.23959 0.0
C1548 C 0.67969 0.95154 0.29064 0.0
C1549 C 0.66845 0.95469 0.29669 0.0
C1550 C 0.67674 0.9403 0.27557 0.0
C1551 C 0.66257 0.9321 0.26577 0.0
C1552 C 0.65115 0.93496 0.27191 0.0
C1553 C 0.65407 0.94618 0.2873 0.0
C1554 C 0.66005 0.92063 0.24915 0.0
C1555 C 0.64867 0.90537 0.25184 0.0
C1556 C 0.67013 0.92447 0.23206 0.0
C1557 C 0.68163 0.94052 0.22738 0.0
C1558 C 0.67743 0.95152 0.22531 0.0
C1559 C 0.68831 0.96666 0.22123 0.0
C1560 C 0.70343 0.97094 0.21907 0.0
C1561 C 0.7077 0.96007 0.22095 0.0
C1562 C 0.69687 0.94492 0.22505 0.0
C1563 C 0.64882 0.86852 0.17855 0.0
C1564 C 0.66257 0.86888 0.17631 0.0
C1565 C 0.64704 0.87706 0.19453 0.0
C1566 C 0.65894 0.88598 0.20856 0.0
C1567 C 0.67216 0.88534 0.20743 0.0
C1568 C 0.67396 0.87684 0.19151 0.0
C1569 C 0.65856 0.89751 0.22255 0.0
C1570 C 0.66934 0.91284 0.21916 0.0
C1571 C 0.64781 0.89371 0.23871 0.0
C1572 C 0.63603 0.87771 0.24278 0.0
C1573 C 0.63996 0.86672 0.24695 0.0
C1574 C 0.62875 0.85163 0.25065 0.0
C1575 C 0.61358 0.84742 0.25036 0.0
C1576 C 0.60958 0.8583 0.24644 0.0
C1577 C 0.62075 0.8734 0.24272 0.0
H1578 H 0.60491 0.83573 0.25322 0.0
H1579 H 0.71183 0.98267 0.21593 0.0
H1580 H 0.07088 0.70585 0.28552 0.0
H1581 H 0.08724 0.72861 0.26558 0.0
H1582 H 0.05603 0.74432 0.27457 0.0
H1583 H 0.03946 0.72148 0.29467 0.0
H1584 H 0.06766 0.74905 0.2341 0.0
H1585 H 0.08623 0.75936 0.30453 0.0
H1586 H 0.09457 0.75419 0.3381 0.0
H1587 H 0.13131 0.75406 0.30655 0.0
H1588 H 0.12301 0.75887 0.27268 0.0
H1589 H 0.12117 0.81656 0.186 0.0
H1590 H 0.1051 0.80169 0.21527 0.0
H1591 H 0.13111 0.77978 0.22155 0.0
H1592 H 0.14745 0.79502 0.19295 0.0
H1593 H 0.12068 0.78129 0.25851 0.0
H1594 H 0.09818 0.76491 0.18774 0.0
H1595 H 0.08865 0.76815 0.15376 0.0
H1596 H 0.05931 0.77965 0.18641 0.0
H1597 H 0.0685 0.77631 0.22059 0.0
C1598 C 0.06732 0.714 0.28308 0.0
C1599 C 0.05386 0.71183 0.29191 0.0
C1600 C 0.07678 0.72708 0.27178 0.0
C1601 C 0.07302 0.73832 0.26903 0.0
C1602 C 0.05921 0.73585 0.27672 0.0
C1603 C 0.04973 0.72275 0.28814 0.0
C1604 C 0.08372 0.75269 0.25836 0.0
C1605 C 0.07917 0.75629 0.23966 0.0
C1606 C 0.09876 0.76208 0.26558 0.0
C1607 C 0.10393 0.75938 0.286 0.0
C1608 C 0.09603 0.75812 0.3047 0.0
C1609 C 0.10075 0.75527 0.3238 0.0
C1610 C 0.11346 0.75381 0.32445 0.0
C1611 C 0.12147 0.7552 0.30602 0.0
C1612 C 0.11676 0.75799 0.28686 0.0
C1613 C 0.12382 0.80906 0.1943 0.0
C1614 C 0.13552 0.80691 0.18721 0.0
C1615 C 0.11452 0.8004 0.21081 0.0
C1616 C 0.11655 0.78921 0.22013 0.0
C1617 C 0.1292 0.78824 0.21452 0.0
C1618 C 0.13864 0.79705 0.19825 0.0
C1619 C 0.10477 0.77737 0.23382 0.0
C1620 C 0.1091 0.77424 0.25315 0.0
C1621 C 0.08951 0.76838 0.22718 0.0
C1622 C 0.08414 0.77054 0.20667 0.0
C1623 C 0.08976 0.76822 0.18765 0.0
C1624 C 0.08442 0.77006 0.16837 0.0
C1625 C 0.0735 0.77424 0.16792 0.0
C1626 C 0.0678 0.77647 0.18677 0.0
C1627 C 0.07303 0.77456 0.20609 0.0
H1628 H 0.06941 0.77567 0.15297 0.0
H1629 H 0.1171 0.75161 0.33926 0.0
H1630 H 0.30003 0.36772 0.28139 0.0
H1631 H 0.27801 0.36062 0.25959 0.0
H1632 H 0.26417 0.31322 0.2642 0.0
H1633 H 0.28621 0.32017 0.28661 0.0
H1634 H 0.26163 0.32543 0.22098 0.0
H1635 H 0.24655 0.32096 0.29365 0.0
H1636 H 0.24964 0.32978 0.33071 0.0
H1637 H 0.24824 0.36918 0.31197 0.0
H1638 H 0.24543 0.36073 0.27473 0.0
H1639 H 0.19057 0.30389 0.17882 0.0
H1640 H 0.20724 0.30388 0.20624 0.0
H1641 H 0.22609 0.35212 0.21657 0.0
H1642 H 0.20956 0.35214 0.18895 0.0
H1643 H 0.22414 0.33587 0.25415 0.0
H1644 H 0.24244 0.34287 0.18277 0.0
H1645 H 0.24015 0.33576 0.14505 0.0
H1646 H 0.23646 0.29329 0.16063 0.0
H1647 H 0.23842 0.30004 0.19853 0.0
C1648 C 0.29251 0.35577 0.27759 0.0
C1649 C 0.29489 0.34451 0.28599 0.0
C1650 C 0.27988 0.35175 0.26512 0.0
C1651 C 0.26941 0.33641 0.26052 0.0
C1652 C 0.27214 0.32514 0.26767 0.0
C1653 C 0.28474 0.32914 0.28045 0.0
C1654 C 0.25521 0.33238 0.24943 0.0
C1655 C 0.25324 0.32733 0.22836 0.0
C1656 C 0.24449 0.33527 0.25896 0.0
C1657 C 0.24591 0.34027 0.28137 0.0
C1658 C 0.24703 0.33157 0.29741 0.0
C1659 C 0.24871 0.33649 0.31845 0.0
C1660 C 0.24917 0.35005 0.32369 0.0
C1661 C 0.2479 0.35868 0.30789 0.0
C1662 C 0.24625 0.35383 0.28681 0.0
C1663 C 0.19778 0.31431 0.18768 0.0
C1664 C 0.1987 0.32798 0.1821 0.0
C1665 C 0.20738 0.31433 0.20317 0.0
C1666 C 0.21799 0.32803 0.21326 0.0
C1667 C 0.21794 0.34143 0.20904 0.0
C1668 C 0.20846 0.34144 0.19337 0.0
C1669 C 0.23054 0.3289 0.22571 0.0
C1670 C 0.23231 0.33355 0.24694 0.0
C1671 C 0.24115 0.32579 0.21627 0.0
C1672 C 0.2404 0.32188 0.19349 0.0
C1673 C 0.24103 0.33197 0.17816 0.0
C1674 C 0.2398 0.32801 0.15675 0.0
C1675 C 0.23812 0.31406 0.15044 0.0
C1676 C 0.23773 0.30408 0.16554 0.0
C1677 C 0.2389 0.30796 0.187 0.0
H1678 H 0.23714 0.31101 0.13386 0.0
H1679 H 0.25048 0.35385 0.33999 0.0
H1680 H 0.29312 0.36701 0.37621 0.0
H1681 H 0.2727 0.36162 0.40029 0.0
H1682 H 0.26677 0.31752 0.4126 0.0
H1683 H 0.28707 0.32267 0.38785 0.0
H1684 H 0.24012 0.3153 0.40803 0.0
H1685 H 0.28486 0.34778 0.44832 0.0
H1686 H 0.30973 0.3706 0.45559 0.0
H1687 H 0.29047 0.39897 0.45074 0.0
H1688 H 0.26551 0.37632 0.44317 0.0
H1689 H 0.20126 0.30203 0.50551 0.0
H1690 H 0.21776 0.30581 0.47559 0.0
H1691 H 0.22053 0.34848 0.46277 0.0
H1692 H 0.20399 0.34465 0.49296 0.0
H1693 H 0.24808 0.35164 0.46642 0.0
H1694 H 0.20268 0.3183 0.42828 0.0
H1695 H 0.17796 0.29507 0.422 0.0
H1696 H 0.19855 0.26779 0.42406 0.0
H1697 H 0.22337 0.29084 0.43066 0.0
C1698 C 0.2876 0.35618 0.38412 0.0
C1699 C 0.29189 0.34534 0.38023 0.0
C1700 C 0.27589 0.35313 0.39794 0.0
C1701 C 0.26834 0.33927 0.40857 0.0
C1702 C 0.27247 0.32832 0.40463 0.0
C1703 C 0.28412 0.33131 0.39056 0.0
C1704 C 0.25616 0.3363 0.42374 0.0
C1705 C 0.24191 0.32314 0.42097 0.0
C1706 C 0.25837 0.34673 0.44032 0.0
C1707 C 0.27335 0.36036 0.44499 0.0
C1708 C 0.28595 0.35889 0.44866 0.0
C1709 C 0.30006 0.3718 0.45286 0.0
C1710 C 0.30168 0.38623 0.45357 0.0
C1711 C 0.28919 0.38778 0.45016 0.0
C1712 C 0.27506 0.37491 0.44593 0.0
C1713 C 0.20504 0.31197 0.49586 0.0
C1714 C 0.20129 0.32298 0.50125 0.0
C1715 C 0.21446 0.31414 0.4788 0.0
C1716 C 0.22032 0.32739 0.46684 0.0
C1717 C 0.21608 0.33814 0.47173 0.0
C1718 C 0.20657 0.33592 0.48881 0.0
C1719 C 0.23202 0.33064 0.45073 0.0
C1720 C 0.24624 0.34385 0.45339 0.0
C1721 C 0.22979 0.32019 0.4342 0.0
C1722 C 0.21488 0.3063 0.43013 0.0
C1723 C 0.20193 0.30734 0.42756 0.0
C1724 C 0.1879 0.29421 0.42391 0.0
C1725 C 0.18668 0.27996 0.42267 0.0
C1726 C 0.1995 0.27883 0.42503 0.0
C1727 C 0.21356 0.29193 0.4287 0.0
H1728 H 0.17581 0.26981 0.41985 0.0
H1729 H 0.31261 0.39621 0.45682 0.0
H1730 H 0.64882 0.9477 0.39415 0.0
H1731 H 0.64377 0.92628 0.41656 0.0
H1732 H 0.69078 0.9401 0.41457 0.0
H1733 H 0.69599 0.96148 0.39254 0.0
H1734 H 0.67124 0.90891 0.40517 0.0
H1735 H 0.67747 0.94703 0.45747 0.0
H1736 H 0.67134 0.96513 0.47419 0.0
H1737 H 0.62588 0.92878 0.48423 0.0
H1738 H 0.6317 0.91049 0.4673 0.0
H1739 H 0.68847 0.87753 0.49114 0.0
H1740 H 0.68508 0.8906 0.46181 0.0
H1741 H 0.63913 0.87381 0.48078 0.0
H1742 H 0.64258 0.86084 0.51038 0.0
H1743 H 0.6534 0.90337 0.47894 0.0
H1744 H 0.64768 0.86446 0.43176 0.0
H1745 H 0.65312 0.84591 0.41493 0.0
H1746 H 0.69605 0.88237 0.39445 0.0
H1747 H 0.69097 0.90115 0.41142 0.0
C1748 C 0.65812 0.9463 0.3987 0.0
C1749 C 0.67281 0.95636 0.39148 0.0
C1750 C 0.6552 0.93402 0.41145 0.0
C1751 C 0.66689 0.93154 0.41707 0.0
C1752 C 0.68157 0.94172 0.41026 0.0
C1753 C 0.68453 0.95403 0.39776 0.0
C1754 C 0.66402 0.91834 0.42995 0.0
C1755 C 0.6674 0.90769 0.42134 0.0
C1756 C 0.65846 0.91644 0.45074 0.0
C1757 C 0.65496 0.92744 0.46087 0.0
C1758 C 0.66613 0.94292 0.46305 0.0
C1759 C 0.66272 0.95321 0.47261 0.0
C1760 C 0.64822 0.94812 0.4802 0.0
C1761 C 0.6371 0.93272 0.4783 0.0
C1762 C 0.64045 0.92238 0.46873 0.0
C1763 C 0.67743 0.87602 0.48849 0.0
C1764 C 0.66581 0.86819 0.50309 0.0
C1765 C 0.67551 0.88359 0.47173 0.0
C1766 C 0.66186 0.8833 0.4691 0.0
C1767 C 0.64979 0.8743 0.48254 0.0
C1768 C 0.65173 0.86679 0.49935 0.0
C1769 C 0.66099 0.89403 0.45439 0.0
C1770 C 0.65694 0.90429 0.46264 0.0
C1771 C 0.6658 0.89546 0.4332 0.0
C1772 C 0.66897 0.88422 0.423 0.0
C1773 C 0.65834 0.86853 0.42382 0.0
C1774 C 0.66135 0.85797 0.41422 0.0
C1775 C 0.67494 0.86296 0.40366 0.0
C1776 C 0.68553 0.87852 0.40264 0.0
C1777 C 0.68258 0.88914 0.41222 0.0
H1778 H 0.67724 0.85476 0.39624 0.0
H1779 H 0.6456 0.9561 0.48761 0.0
H1780 H 0.03865 0.72077 0.3897 0.0
H1781 H 0.0546 0.74116 0.41504 0.0
H1782 H 0.08845 0.72853 0.41022 0.0
H1783 H 0.07263 0.7081 0.38566 0.0
H1784 H 0.08469 0.73312 0.44948 0.0
H1785 H 0.09117 0.75995 0.38451 0.0
H1786 H 0.08252 0.76808 0.3539 0.0
H1787 H 0.06444 0.78828 0.3954 0.0
H1788 H 0.07281 0.78012 0.42626 0.0
H1789 H 0.14967 0.79364 0.49076 0.0
H1790 H 0.13261 0.77917 0.4617 0.0
H1791 H 0.10031 0.79058 0.48495 0.0
H1792 H 0.11748 0.80538 0.514 0.0
H1793 H 0.10142 0.78743 0.43809 0.0
H1794 H 0.09558 0.76072 0.50274 0.0
H1795 H 0.10546 0.75358 0.53302 0.0
H1796 H 0.12287 0.73308 0.49082 0.0
H1797 H 0.1134 0.74046 0.46031 0.0
C1798 C 0.04945 0.72229 0.39418 0.0
C1799 C 0.0543 0.71273 0.38565 0.0
C1800 C 0.05859 0.73402 0.40853 0.0
C1801 C 0.0728 0.73648 0.41436 0.0
C1802 C 0.07753 0.72685 0.40602 0.0
C1803 C 0.06841 0.71512 0.39193 0.0
C1804 C 0.08284 0.74886 0.42935 0.0
C1805 C 0.08839 0.74498 0.44682 0.0
C1806 C 0.08744 0.76435 0.42625 0.0
C1807 C 0.08246 0.76928 0.40769 0.0
C1808 C 0.08524 0.76602 0.3871 0.0
C1809 C 0.08042 0.77065 0.36971 0.0
C1810 C 0.0729 0.77864 0.37271 0.0
C1811 C 0.07024 0.78207 0.3931 0.0
C1812 C 0.07503 0.77745 0.41055 0.0
C1813 C 0.13925 0.79368 0.48921 0.0
C1814 C 0.13485 0.80053 0.5048 0.0
C1815 C 0.12947 0.78531 0.47265 0.0
C1816 C 0.11515 0.78366 0.47141 0.0
C1817 C 0.11132 0.79174 0.48567 0.0
C1818 C 0.1211 0.8001 0.5023 0.0
C1819 C 0.10347 0.77159 0.45763 0.0
C1820 C 0.09759 0.77553 0.44063 0.0
C1821 C 0.09858 0.75611 0.461 0.0
C1822 C 0.10392 0.75128 0.47929 0.0
C1823 C 0.10163 0.75481 0.49997 0.0
C1824 C 0.10713 0.75071 0.51715 0.0
C1825 C 0.1148 0.7429 0.51385 0.0
C1826 C 0.11694 0.73915 0.49335 0.0
C1827 C 0.11151 0.74329 0.47611 0.0
H1828 H 0.11906 0.73974 0.52716 0.0
H1829 H 0.06918 0.78222 0.35923 0.0
H1830 H 0.30529 0.03741 0.7308 0.0
H1831 H 0.30928 0.05817 0.75444 0.0
H1832 H 0.35715 0.08091 0.7435 0.0
H1833 H 0.35331 0.06003 0.71976 0.0
H1834 H 0.35022 0.08274 0.78527 0.0
H1835 H 0.33697 0.09223 0.71735 0.0
H1836 H 0.32166 0.08578 0.6849 0.0
H1837 H 0.28336 0.07804 0.72138 0.0
H1838 H 0.29838 0.08422 0.75409 0.0
H1839 H 0.36395 0.15212 0.82943 0.0
H1840 H 0.36181 0.13549 0.79967 0.0
H1841 H 0.31455 0.10589 0.8128 0.0
H1842 H 0.31674 0.12236 0.84282 0.0
H1843 H 0.32294 0.10945 0.76777 0.0
H1844 H 0.33496 0.09696 0.8353 0.0
H1845 H 0.34969 0.10316 0.86826 0.0
H1846 H 0.38982 0.11616 0.83268 0.0
H1847 H 0.37534 0.11032 0.79946 0.0
C1848 C 0.31672 0.04672 0.73353 0.0
C1849 C 0.32897 0.04713 0.72315 0.0
C1850 C 0.31895 0.05862 0.74701 0.0
C1851 C 0.33346 0.07123 0.75031 0.0
C1852 C 0.34585 0.07132 0.74098 0.0
C1853 C 0.34362 0.05936 0.72746 0.0
C1854 C 0.33551 0.08446 0.76297 0.0
C1855 C 0.34449 0.08876 0.78122 0.0
C1856 C 0.3278 0.09214 0.75786 0.0
C1857 C 0.31878 0.08858 0.73819 0.0
C1858 C 0.32525 0.08905 0.71847 0.0
C1859 C 0.31663 0.08546 0.70002 0.0
C1860 C 0.30154 0.08148 0.70108 0.0
C1861 C 0.29505 0.08112 0.72058 0.0
C1862 C 0.30362 0.08469 0.73908 0.0
C1863 C 0.35299 0.14241 0.82539 0.0
C1864 C 0.34049 0.13846 0.83828 0.0
C1865 C 0.3518 0.13289 0.80852 0.0
C1866 C 0.33806 0.11943 0.80426 0.0
C1867 C 0.32523 0.11627 0.81586 0.0
C1868 C 0.32647 0.12565 0.83293 0.0
C1869 C 0.33756 0.10762 0.78999 0.0
C1870 C 0.32883 0.10356 0.77156 0.0
C1871 C 0.34544 0.10011 0.79496 0.0
C1872 C 0.35411 0.1034 0.8149 0.0
C1873 C 0.34695 0.10128 0.83449 0.0
C1874 C 0.35524 0.1047 0.85323 0.0
C1875 C 0.37069 0.11009 0.85256 0.0
C1876 C 0.37786 0.11202 0.83316 0.0
C1877 C 0.36962 0.10866 0.81438 0.0
H1878 H 0.37709 0.11272 0.86707 0.0
H1879 H 0.29488 0.07869 0.68679 0.0
H1880 H 0.96199 0.2809 0.70902 0.0
H1881 H 0.94652 0.25962 0.7323 0.0
H1882 H 0.93107 0.28658 0.76434 0.0
H1883 H 0.94621 0.30782 0.74077 0.0
H1884 H 0.94034 0.26829 0.79086 0.0
H1885 H 0.90899 0.26463 0.73082 0.0
H1886 H 0.90375 0.26305 0.69267 0.0
H1887 H 0.90599 0.22235 0.68731 0.0
H1888 H 0.91149 0.22384 0.72541 0.0
H1889 H 0.87514 0.22154 0.8452 0.0
H1890 H 0.89033 0.23869 0.81722 0.0
H1891 H 0.89746 0.20382 0.79062 0.0
H1892 H 0.88263 0.18668 0.81918 0.0
H1893 H 0.89425 0.22394 0.76006 0.0
H1894 H 0.9212 0.22445 0.82006 0.0
H1895 H 0.92763 0.22546 0.85757 0.0
H1896 H 0.93741 0.27156 0.8625 0.0
H1897 H 0.92978 0.27043 0.82547 0.0
C1898 C 0.95552 0.28241 0.72127 0.0
C1899 C 0.9553 0.29604 0.72307 0.0
C1900 C 0.94663 0.27022 0.73446 0.0
C1901 C 0.93761 0.27154 0.74989 0.0
C1902 C 0.93796 0.28538 0.75247 0.0
C1903 C 0.9466 0.29747 0.73901 0.0
C1904 C 0.9272 0.2583 0.76268 0.0
C1905 C 0.93019 0.25864 0.78426 0.0
C1906 C 0.91435 0.24546 0.7537 0.0
C1907 C 0.91083 0.24445 0.73089 0.0
C1908 C 0.9085 0.25543 0.72147 0.0
C1909 C 0.90546 0.25453 0.69987 0.0
C1910 C 0.90459 0.24264 0.68756 0.0
C1911 C 0.9067 0.23157 0.69685 0.0
C1912 C 0.90977 0.23243 0.71845 0.0
C1913 C 0.87958 0.21736 0.83305 0.0
C1914 C 0.87793 0.20287 0.83455 0.0
C1915 C 0.88827 0.22718 0.81711 0.0
C1916 C 0.89526 0.2226 0.80218 0.0
C1917 C 0.89221 0.20755 0.80213 0.0
C1918 C 0.88365 0.19774 0.81835 0.0
C1919 C 0.90707 0.23418 0.7885 0.0
C1920 C 0.90442 0.23352 0.76674 0.0
C1921 C 0.92042 0.24662 0.79731 0.0
C1922 C 0.92455 0.24721 0.81994 0.0
C1923 C 0.92424 0.23465 0.82925 0.0
C1924 C 0.92808 0.23524 0.85049 0.0
C1925 C 0.93271 0.24849 0.86251 0.0
C1926 C 0.93354 0.26119 0.85328 0.0
C1927 C 0.92932 0.26054 0.83219 0.0
H1928 H 0.93579 0.24898 0.87892 0.0
H1929 H 0.90224 0.24197 0.67083 0.0
H1930 H 0.71643 0.67878 0.72446 0.0
H1931 H 0.73496 0.68173 0.7511 0.0
H1932 H 0.7256 0.63634 0.73621 0.0
H1933 H 0.70687 0.63312 0.71045 0.0
H1934 H 0.72697 0.63971 0.77606 0.0
H1935 H 0.75835 0.67048 0.71918 0.0
H1936 H 0.76786 0.69118 0.69347 0.0
H1937 H 0.781 0.72416 0.74398 0.0
H1938 H 0.77139 0.70363 0.76999 0.0
H1939 H 0.78688 0.63916 0.82593 0.0
H1940 H 0.77153 0.6401 0.79751 0.0
H1941 H 0.78139 0.68438 0.81979 0.0
H1942 H 0.79739 0.68387 0.84763 0.0
H1943 H 0.77984 0.68288 0.77761 0.0
H1944 H 0.74743 0.65141 0.83404 0.0
H1945 H 0.73743 0.63024 0.85922 0.0
H1946 H 0.7266 0.59823 0.80802 0.0
H1947 H 0.73643 0.61915 0.78259 0.0
C1948 C 0.71829 0.66942 0.72697 0.0
C1949 C 0.71007 0.65569 0.71536 0.0
C1950 C 0.72898 0.67116 0.74209 0.0
C1951 C 0.73184 0.65931 0.74557 0.0
C1952 C 0.7236 0.64564 0.73397 0.0
C1953 C 0.71284 0.64382 0.71918 0.0
C1954 C 0.74311 0.66076 0.76149 0.0
C1955 C 0.73857 0.64909 0.77616 0.0
C1956 C 0.75819 0.67316 0.76212 0.0
C1957 C 0.764 0.68551 0.74651 0.0
C1958 C 0.76317 0.68214 0.7248 0.0
C1959 C 0.76859 0.69384 0.71017 0.0
C1960 C 0.77499 0.70897 0.71709 0.0
C1961 C 0.77601 0.71243 0.73865 0.0
C1962 C 0.77059 0.70077 0.75333 0.0
C1963 C 0.78622 0.64933 0.82441 0.0
C1964 C 0.7933 0.66138 0.83924 0.0
C1965 C 0.77722 0.64974 0.80832 0.0
C1966 C 0.77494 0.66212 0.80686 0.0
C1967 C 0.78283 0.67463 0.8207 0.0
C1968 C 0.79193 0.67429 0.83668 0.0
C1969 C 0.76372 0.66164 0.79172 0.0
C1970 C 0.76823 0.67352 0.77739 0.0
C1971 C 0.7486 0.64938 0.79121 0.0
C1972 C 0.74279 0.63683 0.80649 0.0
C1973 C 0.74301 0.63986 0.82822 0.0
C1974 C 0.73736 0.62792 0.84251 0.0
C1975 C 0.7315 0.61294 0.83523 0.0
C1976 C 0.73118 0.60984 0.81364 0.0
C1977 C 0.73673 0.62172 0.79929 0.0
H1978 H 0.72715 0.60373 0.84632 0.0
H1979 H 0.77918 0.71801 0.70574 0.0
H1980 H 0.72373 0.68703 0.62356 0.0
H1981 H 0.74484 0.69254 0.60012 0.0
H1982 H 0.72617 0.64442 0.58898 0.0
H1983 H 0.70514 0.63878 0.61196 0.0
H1984 H 0.75647 0.6598 0.60138 0.0
H1985 H 0.72383 0.66486 0.55166 0.0
H1986 H 0.70905 0.67579 0.53849 0.0
H1987 H 0.74887 0.7203 0.53866 0.0
H1988 H 0.76386 0.70965 0.55211 0.0
H1989 H 0.79253 0.65062 0.51261 0.0
H1990 H 0.77655 0.65095 0.54075 0.0
H1991 H 0.79711 0.69961 0.53477 0.0
H1992 H 0.81279 0.69918 0.50604 0.0
H1993 H 0.76838 0.68746 0.53404 0.0
H1994 H 0.80182 0.68243 0.58001 0.0
H1995 H 0.81691 0.67185 0.59323 0.0
H1996 H 0.77664 0.62837 0.60121 0.0
H1997 H 0.76131 0.63861 0.58776 0.0
C1998 C 0.724 0.67763 0.61587 0.0
C1999 C 0.71273 0.66245 0.6198 0.0
C2000 C 0.73608 0.6808 0.60253 0.0
C2001 C 0.7371 0.66887 0.59299 0.0
C2002 C 0.72566 0.65379 0.59635 0.0
C2003 C 0.71358 0.65061 0.60946 0.0
C2004 C 0.75027 0.67183 0.58002 0.0
C2005 C 0.75908 0.6658 0.5866 0.0
C2006 C 0.75394 0.68009 0.56115 0.0
C2007 C 0.74492 0.68649 0.55316 0.0
C2008 C 0.7294 0.677 0.5491 0.0
C2009 C 0.72099 0.68314 0.54154 0.0
C2010 C 0.728 0.69874 0.53782 0.0
C2011 C 0.74345 0.70823 0.5416 0.0
C2012 C 0.7519 0.70214 0.54918 0.0
C2013 C 0.79401 0.66146 0.51782 0.0
C2014 C 0.80398 0.67489 0.50729 0.0
C2015 C 0.78484 0.66165 0.5339 0.0
C2016 C 0.78566 0.67534 0.54006 0.0
C2017 C 0.79623 0.68891 0.53031 0.0
C2018 C 0.80527 0.68869 0.51403 0.0
C2019 C 0.77453 0.67519 0.55516 0.0
C2020 C 0.76605 0.68172 0.549 0.0
C2021 C 0.77125 0.66749 0.57455 0.0
C2022 C 0.78042 0.66128 0.58274 0.0
C2023 C 0.79619 0.67058 0.58444 0.0
C2024 C 0.80478 0.66465 0.592 0.0
C2025 C 0.79774 0.64944 0.59802 0.0
C2026 C 0.78208 0.64014 0.59654 0.0
C2027 C 0.77343 0.64602 0.58898 0.0
H2028 H 0.80442 0.64487 0.60387 0.0
H2029 H 0.72147 0.70348 0.53195 0.0
H2030 H 0.3095 0.03478 0.60921 0.0
H2031 H 0.31543 0.05586 0.58584 0.0
H2032 H 0.35747 0.084 0.61911 0.0
H2033 H 0.35191 0.0627 0.64177 0.0
H2034 H 0.31808 0.08155 0.59246 0.0
H2035 H 0.38315 0.11188 0.58838 0.0
H2036 H 0.4032 0.10557 0.58939 0.0
H2037 H 0.37201 0.06026 0.56651 0.0
H2038 H 0.35184 0.06636 0.56512 0.0
H2039 H 0.3385 0.14727 0.53266 0.0
H2040 H 0.33916 0.13244 0.56234 0.0
H2041 H 0.35454 0.10958 0.52034 0.0
H2042 H 0.3549 0.12494 0.49145 0.0
H2043 H 0.36657 0.11179 0.55509 0.0
H2044 H 0.31532 0.09528 0.53371 0.0
H2045 H 0.29362 0.09862 0.52766 0.0
H2046 H 0.29431 0.11085 0.59293 0.0
H2047 H 0.31613 0.10774 0.5993 0.0
C2048 C 0.32013 0.04539 0.61128 0.0
C2049 C 0.3303 0.04703 0.6272 0.0
C2050 C 0.32347 0.05749 0.59802 0.0
C2051 C 0.33694 0.07158 0.60059 0.0
C2052 C 0.34715 0.0732 0.61644 0.0
C2053 C 0.34396 0.06098 0.62941 0.0
C2054 C 0.34005 0.08459 0.58694 0.0
C2055 C 0.32871 0.08816 0.58433 0.0
C2056 C 0.35389 0.0933 0.57624 0.0
C2057 C 0.36595 0.08953 0.57692 0.0
C2058 C 0.38059 0.10058 0.58353 0.0
C2059 C 0.39197 0.09704 0.58417 0.0
C2060 C 0.38887 0.0825 0.5781 0.0
C2061 C 0.37439 0.0715 0.5713 0.0
C2062 C 0.36297 0.07498 0.57061 0.0
C2063 C 0.34237 0.13934 0.53 0.0
C2064 C 0.34624 0.13696 0.50963 0.0
C2065 C 0.3426 0.13075 0.54688 0.0
C2066 C 0.34648 0.11952 0.54353 0.0
C2067 C 0.35139 0.11803 0.52347 0.0
C2068 C 0.35141 0.12672 0.50684 0.0
C2069 C 0.34441 0.1084 0.56003 0.0
C2070 C 0.356 0.10528 0.5634 0.0
C2071 C 0.33056 0.09966 0.5707 0.0
C2072 C 0.31744 0.10146 0.56692 0.0
C2073 C 0.31088 0.09877 0.54673 0.0
C2074 C 0.29856 0.10061 0.54325 0.0
C2075 C 0.29262 0.10499 0.55989 0.0
C2076 C 0.29895 0.10749 0.58005 0.0
C2077 C 0.31129 0.10569 0.58361 0.0
H2078 H 0.28308 0.10641 0.55716 0.0
H2079 H 0.39769 0.07978 0.57862 0.0
H2080 H 0.96224 0.27917 0.63515 0.0
H2081 H 0.94468 0.25727 0.61312 0.0
H2082 H 0.92218 0.28111 0.59493 0.0
H2083 H 0.93943 0.30282 0.61708 0.0
H2084 H 0.90225 0.25305 0.60707 0.0
H2085 H 0.9456 0.27614 0.56117 0.0
H2086 H 0.97223 0.2861 0.55199 0.0
H2087 H 0.96684 0.24231 0.56328 0.0
H2088 H 0.94022 0.23214 0.57279 0.0
H2089 H 0.86422 0.21871 0.51152 0.0
H2090 H 0.87912 0.23397 0.54189 0.0
H2091 H 0.89318 0.2016 0.55323 0.0
H2092 H 0.8783 0.18632 0.52267 0.0
H2093 H 0.91696 0.23039 0.54886 0.0
H2094 H 0.87213 0.20652 0.58949 0.0
H2095 H 0.84545 0.19694 0.59778 0.0
H2096 H 0.8534 0.24243 0.59569 0.0
H2097 H 0.88009 0.25227 0.58707 0.0
C2098 C 0.95372 0.27984 0.62616 0.0
C2099 C 0.9522 0.29272 0.62792 0.0
C2100 C 0.94366 0.2673 0.61363 0.0
C2101 C 0.93207 0.26753 0.60246 0.0
C2102 C 0.93093 0.28061 0.6036 0.0
C2103 C 0.94087 0.29306 0.61618 0.0
C2104 C 0.9208 0.2541 0.58997 0.0
C2105 C 0.90545 0.24814 0.59424 0.0
C2106 C 0.925 0.24735 0.57376 0.0
C2107 C 0.94098 0.25344 0.56794 0.0
C2108 C 0.95013 0.26867 0.56186 0.0
C2109 C 0.96521 0.27435 0.55657 0.0
C2110 C 0.97124 0.26486 0.55713 0.0
C2111 C 0.96217 0.24966 0.5629 0.0
C2112 C 0.94708 0.24393 0.56823 0.0
C2113 C 0.87011 0.21462 0.52092 0.0
C2114 C 0.87013 0.20137 0.51481 0.0
C2115 C 0.8786 0.22332 0.53828 0.0
C2116 C 0.88727 0.21892 0.54981 0.0
C2117 C 0.88655 0.20517 0.54454 0.0
C2118 C 0.87795 0.19639 0.52723 0.0
C2119 C 0.89839 0.22964 0.56555 0.0
C2120 C 0.91373 0.23509 0.56192 0.0
C2121 C 0.89417 0.23598 0.58227 0.0
C2122 C 0.87812 0.23013 0.5875 0.0
C2123 C 0.86817 0.21448 0.59064 0.0
C2124 C 0.85305 0.209 0.59542 0.0
C2125 C 0.84773 0.21907 0.59723 0.0
C2126 C 0.85754 0.23464 0.59428 0.0
C2127 C 0.87267 0.24018 0.58948 0.0
H2128 H 0.83601 0.21481 0.60094 0.0
H2129 H 0.98292 0.26928 0.55304 0.0
H2130 H 0.31849 0.28275 0.62976 0.0
H2131 H 0.31311 0.26079 0.6071 0.0
H2132 H 0.35963 0.27298 0.612 0.0
H2133 H 0.36517 0.29495 0.63379 0.0
H2134 H 0.35099 0.26629 0.57328 0.0
H2135 H 0.33006 0.24292 0.64036 0.0
H2136 H 0.31331 0.23665 0.67111 0.0
H2137 H 0.27456 0.21553 0.63026 0.0
H2138 H 0.29106 0.22178 0.59925 0.0
H2139 H 0.35135 0.20529 0.53065 0.0
H2140 H 0.35022 0.21879 0.56199 0.0
H2141 H 0.30546 0.20791 0.54448 0.0
H2142 H 0.30624 0.1938 0.51349 0.0
H2143 H 0.31142 0.21311 0.58902 0.0
H2144 H 0.33317 0.23587 0.52206 0.0
H2145 H 0.35025 0.23996 0.49244 0.0
H2146 H 0.38844 0.26295 0.53411 0.0
H2147 H 0.37152 0.25816 0.56426 0.0
C2148 C 0.32757 0.28079 0.62586 0.0
C2149 C 0.34228 0.29071 0.63351 0.0
C2150 C 0.32446 0.26816 0.61306 0.0
C2151 C 0.33594 0.26513 0.608 0.0
C2152 C 0.35058 0.27507 0.61558 0.0
C2153 C 0.35373 0.2877 0.62807 0.0
C2154 C 0.33308 0.2519 0.59444 0.0
C2155 C 0.34243 0.25467 0.57692 0.0
C2156 C 0.32169 0.23673 0.59883 0.0
C2157 C 0.31179 0.23295 0.61748 0.0
C2158 C 0.31797 0.23703 0.63793 0.0
C2159 C 0.30853 0.23347 0.6554 0.0
C2160 C 0.2929 0.22575 0.65263 0.0
C2161 C 0.28667 0.22153 0.63238 0.0
C2162 C 0.29606 0.22506 0.61486 0.0
C2163 C 0.34094 0.20502 0.53401 0.0
C2164 C 0.32905 0.19886 0.51926 0.0
C2165 C 0.34033 0.21282 0.55193 0.0
C2166 C 0.32794 0.21473 0.55514 0.0
C2167 C 0.31519 0.20671 0.54215 0.0
C2168 C 0.31572 0.19877 0.52434 0.0
C2169 C 0.32966 0.22758 0.56848 0.0
C2170 C 0.32 0.22476 0.58559 0.0
C2171 C 0.34083 0.24277 0.56384 0.0
C2172 C 0.35105 0.2465 0.54548 0.0
C2173 C 0.3452 0.24169 0.52496 0.0
C2174 C 0.35485 0.24407 0.50808 0.0
C2175 C 0.37042 0.25176 0.51137 0.0
C2176 C 0.37637 0.257 0.53158 0.0
C2177 C 0.36675 0.25436 0.5486 0.0
H2178 H 0.37788 0.25366 0.49826 0.0
H2179 H 0.28561 0.22301 0.66618 0.0
H2180 H 0.70839 0.05395 0.63425 0.0
H2181 H 0.72447 0.07336 0.60901 0.0
H2182 H 0.75762 0.05994 0.61445 0.0
H2183 H 0.74173 0.0406 0.63977 0.0
H2184 H 0.7706 0.09066 0.61718 0.0
H2185 H 0.73516 0.05006 0.57123 0.0
H2186 H 0.70994 0.03093 0.55773 0.0
H2187 H 0.70051 0.06632 0.5449 0.0
H2188 H 0.72562 0.08565 0.5586 0.0
H2189 H 0.8138 0.12269 0.52394 0.0
H2190 H 0.79917 0.10805 0.55426 0.0
H2191 H 0.76765 0.12316 0.54437 0.0
H2192 H 0.78225 0.1378 0.51404 0.0
H2193 H 0.7535 0.09289 0.54512 0.0
H2194 H 0.78954 0.13376 0.58869 0.0
H2195 H 0.8148 0.153 0.60189 0.0
H2196 H 0.82318 0.11758 0.61913 0.0
H2197 H 0.79804 0.09812 0.60574 0.0
C2198 C 0.71902 0.055 0.62995 0.0
C2199 C 0.72372 0.04566 0.63909 0.0
C2200 C 0.72822 0.06613 0.6155 0.0
C2201 C 0.74226 0.0681 0.60982 0.0
C2202 C 0.74687 0.05867 0.61868 0.0
C2203 C 0.7377 0.04754 0.63308 0.0
C2204 C 0.75224 0.08009 0.59483 0.0
C2205 C 0.76693 0.09107 0.60134 0.0
C2206 C 0.74731 0.08089 0.57438 0.0
C2207 C 0.7322 0.06928 0.56616 0.0
C2208 C 0.72766 0.05375 0.5657 0.0
C2209 C 0.71339 0.04287 0.55798 0.0
C2210 C 0.70361 0.0474 0.55052 0.0
C2211 C 0.70809 0.06282 0.55072 0.0
C2212 C 0.72234 0.07375 0.55845 0.0
C2213 C 0.80408 0.12335 0.52872 0.0
C2214 C 0.79913 0.13134 0.51658 0.0
C2215 C 0.79566 0.11491 0.54601 0.0
C2216 C 0.78224 0.11442 0.55153 0.0
C2217 C 0.7779 0.12327 0.54032 0.0
C2218 C 0.78628 0.13169 0.52306 0.0
C2219 C 0.77193 0.10345 0.56738 0.0
C2220 C 0.75716 0.09261 0.56102 0.0
C2221 C 0.7768 0.10281 0.58795 0.0
C2222 C 0.79194 0.11448 0.59603 0.0
C2223 C 0.79682 0.13007 0.59512 0.0
C2224 C 0.81111 0.14102 0.60268 0.0
C2225 C 0.8206 0.13652 0.6113 0.0
C2226 C 0.81581 0.12105 0.61243 0.0
C2227 C 0.80154 0.11005 0.60488 0.0
H2228 H 0.83166 0.14501 0.61714 0.0
H2229 H 0.69258 0.03896 0.54454 0.0
H2230 H 0.96578 0.70283 0.62476 0.0
H2231 H 0.94469 0.69598 0.60105 0.0
H2232 H 0.93598 0.65009 0.59575 0.0
H2233 H 0.95703 0.65673 0.62005 0.0
H2234 H 0.93524 0.66679 0.55524 0.0
H2235 H 0.91405 0.65084 0.62439 0.0
H2236 H 0.91296 0.65428 0.66278 0.0
H2237 H 0.90718 0.69239 0.65275 0.0
H2238 H 0.90852 0.68935 0.61427 0.0
H2239 H 0.86533 0.64105 0.50555 0.0
H2240 H 0.8818 0.64078 0.53307 0.0
H2241 H 0.89298 0.68581 0.55372 0.0
H2242 H 0.87668 0.68616 0.52593 0.0
H2243 H 0.89109 0.66632 0.58735 0.0
H2244 H 0.91427 0.68427 0.51989 0.0
H2245 H 0.91631 0.68262 0.48131 0.0
H2246 H 0.91947 0.64263 0.48777 0.0
H2247 H 0.91712 0.64386 0.52641 0.0
C2248 C 0.95959 0.69131 0.61838 0.0
C2249 C 0.96311 0.68031 0.62445 0.0
C2250 C 0.94749 0.68743 0.60485 0.0
C2251 C 0.93874 0.67253 0.59682 0.0
C2252 C 0.94262 0.66166 0.60186 0.0
C2253 C 0.95464 0.66547 0.61574 0.0
C2254 C 0.92511 0.66835 0.58414 0.0
C2255 C 0.92543 0.66631 0.56228 0.0
C2256 C 0.91252 0.66818 0.59333 0.0
C2257 C 0.91153 0.66995 0.61645 0.0
C2258 C 0.91269 0.66004 0.63037 0.0
C2259 C 0.912 0.6619 0.65215 0.0
C2260 C 0.91004 0.67357 0.66021 0.0
C2261 C 0.90872 0.68337 0.64649 0.0
C2262 C 0.90943 0.68157 0.62469 0.0
C2263 C 0.87078 0.65057 0.51662 0.0
C2264 C 0.86961 0.66353 0.51396 0.0
C2265 C 0.88028 0.65048 0.53216 0.0
C2266 C 0.88871 0.66334 0.54526 0.0
C2267 C 0.88652 0.67576 0.54381 0.0
C2268 C 0.87716 0.67593 0.52808 0.0
C2269 C 0.90117 0.66469 0.55843 0.0
C2270 C 0.90073 0.66641 0.58034 0.0
C2271 C 0.91371 0.66471 0.54924 0.0
C2272 C 0.9153 0.66402 0.52603 0.0
C2273 C 0.91524 0.67503 0.51308 0.0
C2274 C 0.91648 0.67419 0.49121 0.0
C2275 C 0.91796 0.66249 0.4821 0.0
C2276 C 0.91827 0.65165 0.49485 0.0
C2277 C 0.91698 0.65241 0.51674 0.0
H2278 H 0.91888 0.66184 0.46516 0.0
H2279 H 0.9095 0.67499 0.67707 0.0
H2280 H 0.96569 0.70267 0.72495 0.0
H2281 H 0.94482 0.69762 0.74789 0.0
H2282 H 0.9269 0.64929 0.74082 0.0
H2283 H 0.94777 0.65422 0.71729 0.0
H2284 H 0.90486 0.65671 0.73712 0.0
H2285 H 0.94482 0.66774 0.78595 0.0
H2286 H 0.97053 0.68274 0.80076 0.0
H2287 H 0.96441 0.72077 0.81175 0.0
H2288 H 0.93873 0.70606 0.79675 0.0
H2289 H 0.85494 0.63556 0.82521 0.0
H2290 H 0.87245 0.63963 0.79656 0.0
H2291 H 0.89499 0.6882 0.80815 0.0
H2292 H 0.87786 0.68396 0.8375 0.0
H2293 H 0.91447 0.68003 0.80884 0.0
H2294 H 0.87456 0.6694 0.76054 0.0
H2295 H 0.84898 0.65489 0.7452 0.0
H2296 H 0.85479 0.61682 0.73269 0.0
H2297 H 0.88034 0.63103 0.74821 0.0
C2298 C 0.95741 0.69093 0.7283 0.0
C2299 C 0.95851 0.67885 0.71928 0.0
C2300 C 0.94546 0.68807 0.74149 0.0
C2301 C 0.93437 0.67309 0.74624 0.0
C2302 C 0.93536 0.66095 0.73736 0.0
C2303 C 0.94736 0.6638 0.72405 0.0
C2304 C 0.92178 0.67027 0.76048 0.0
C2305 C 0.9069 0.66161 0.75294 0.0
C2306 C 0.92449 0.67702 0.78086 0.0
C2307 C 0.93989 0.68583 0.79008 0.0
C2308 C 0.94899 0.67933 0.79141 0.0
C2309 C 0.96355 0.68778 0.79985 0.0
C2310 C 0.96911 0.70271 0.80716 0.0
C2311 C 0.9601 0.70921 0.80608 0.0
C2312 C 0.94553 0.70082 0.79764 0.0
C2313 C 0.86327 0.64712 0.82102 0.0
C2314 C 0.86499 0.65948 0.83325 0.0
C2315 C 0.87331 0.64946 0.80466 0.0
C2316 C 0.88508 0.66425 0.80006 0.0
C2317 C 0.88606 0.67668 0.81139 0.0
C2318 C 0.87619 0.67431 0.82798 0.0
C2319 C 0.89741 0.66662 0.78548 0.0
C2320 C 0.91232 0.67515 0.79301 0.0
C2321 C 0.89468 0.6598 0.76508 0.0
C2322 C 0.87932 0.65124 0.75572 0.0
C2323 C 0.87034 0.65789 0.75467 0.0
C2324 C 0.85585 0.64972 0.74591 0.0
C2325 C 0.85025 0.63493 0.73802 0.0
C2326 C 0.85914 0.62828 0.73882 0.0
C2327 C 0.87363 0.63639 0.74758 0.0
H2328 H 0.83903 0.62862 0.73125 0.0
H2329 H 0.98039 0.70923 0.81368 0.0
H2330 H 0.37303 0.30537 0.72775 0.0
H2331 H 0.3691 0.28478 0.75061 0.0
H2332 H 0.3215 0.26841 0.75252 0.0
H2333 H 0.32525 0.28899 0.72932 0.0
H2334 H 0.33492 0.26799 0.79252 0.0
H2335 H 0.33138 0.25128 0.7207 0.0
H2336 H 0.33982 0.2536 0.68384 0.0
H2337 H 0.37987 0.25452 0.70403 0.0
H2338 H 0.37189 0.25265 0.7411 0.0
H2339 H 0.31671 0.19892 0.83691 0.0
H2340 H 0.31633 0.21456 0.80846 0.0
H2341 H 0.36418 0.23423 0.80012 0.0
H2342 H 0.36461 0.2186 0.82864 0.0
H2343 H 0.3484 0.23149 0.76199 0.0
H2344 H 0.35343 0.25077 0.83332 0.0
H2345 H 0.3456 0.24854 0.87049 0.0
H2346 H 0.30324 0.24298 0.85136 0.0
H2347 H 0.31069 0.24483 0.81401 0.0
C2348 C 0.36172 0.29758 0.73322 0.0
C2349 C 0.34943 0.29881 0.72647 0.0
C2350 C 0.35951 0.28576 0.74625 0.0
C2351 C 0.34499 0.27495 0.75296 0.0
C2352 C 0.33279 0.27661 0.74739 0.0
C2353 C 0.33497 0.28839 0.73413 0.0
C2354 C 0.34261 0.26154 0.76485 0.0
C2355 C 0.3376 0.25985 0.78574 0.0
C2356 C 0.34638 0.25109 0.75606 0.0
C2357 C 0.3511 0.25197 0.73373 0.0
C2358 C 0.34205 0.25211 0.71732 0.0
C2359 C 0.34674 0.25332 0.69638 0.0
C2360 C 0.36035 0.25419 0.6916 0.0
C2361 C 0.36932 0.25385 0.70776 0.0
C2362 C 0.36473 0.25273 0.72875 0.0
C2363 C 0.32704 0.20616 0.82845 0.0
C2364 C 0.34072 0.20768 0.83509 0.0
C2365 C 0.32682 0.21512 0.81228 0.0
C2366 C 0.34028 0.22578 0.80254 0.0
C2367 C 0.35367 0.2261 0.80751 0.0
C2368 C 0.3539 0.21711 0.82373 0.0
C2369 C 0.3408 0.238 0.78966 0.0
C2370 C 0.34553 0.23951 0.76866 0.0
C2371 C 0.33685 0.24835 0.79836 0.0
C2372 C 0.33255 0.24778 0.82085 0.0
C2373 C 0.34241 0.24899 0.83703 0.0
C2374 C 0.33804 0.24778 0.85813 0.0
C2375 C 0.32392 0.24558 0.86328 0.0
C2376 C 0.31416 0.24466 0.84734 0.0
C2377 C 0.31845 0.24578 0.8262 0.0
H2378 H 0.32055 0.24463 0.87963 0.0
H2379 H 0.36395 0.25512 0.67537 0.0
H2380 H 0.72404 0.04034 0.7544 0.0
H2381 H 0.73842 0.06258 0.77761 0.0
H2382 H 0.72446 0.08817 0.74049 0.0
H2383 H 0.70977 0.06584 0.71737 0.0
H2384 H 0.75633 0.10213 0.74625 0.0
H2385 H 0.71148 0.08085 0.78624 0.0
H2386 H 0.68924 0.06101 0.80484 0.0
H2387 H 0.71803 0.05613 0.84857 0.0
H2388 H 0.74046 0.07571 0.82998 0.0
H2389 H 0.78606 0.14664 0.85576 0.0
H2390 H 0.76671 0.13407 0.82837 0.0
H2391 H 0.79392 0.11888 0.79701 0.0
H2392 H 0.81316 0.13123 0.82438 0.0
H2393 H 0.75187 0.10392 0.82397 0.0
H2394 H 0.78447 0.11122 0.74573 0.0
H2395 H 0.80652 0.13142 0.72722 0.0
H2396 H 0.80143 0.16557 0.76004 0.0
H2397 H 0.7792 0.14558 0.77852 0.0
C2398 C 0.7238 0.0506 0.75141 0.0
C2399 C 0.71581 0.05136 0.73405 0.0
C2400 C 0.73198 0.06328 0.76469 0.0
C2401 C 0.73248 0.07698 0.76071 0.0
C2402 C 0.72416 0.07766 0.7438 0.0
C2403 C 0.71573 0.06488 0.73071 0.0
C2404 C 0.74272 0.09082 0.77326 0.0
C2405 C 0.75531 0.10266 0.76323 0.0
C2406 C 0.74115 0.09155 0.79531 0.0
C2407 C 0.72768 0.07968 0.80655 0.0
C2408 C 0.71308 0.07544 0.79967 0.0
C2409 C 0.70044 0.06425 0.81025 0.0
C2410 C 0.70222 0.05729 0.82785 0.0
C2411 C 0.71667 0.06152 0.83492 0.0
C2412 C 0.72935 0.07267 0.82436 0.0
C2413 C 0.78811 0.14102 0.84265 0.0
C2414 C 0.80107 0.1398 0.84233 0.0
C2415 C 0.77704 0.13384 0.82704 0.0
C2416 C 0.77883 0.12549 0.81071 0.0
C2417 C 0.79237 0.12542 0.80932 0.0
C2418 C 0.80342 0.13256 0.82496 0.0
C2419 C 0.76585 0.11498 0.7971 0.0
C2420 C 0.75276 0.10366 0.80695 0.0
C2421 C 0.76694 0.11477 0.77488 0.0
C2422 C 0.78019 0.12688 0.7636 0.0
C2423 C 0.78798 0.12303 0.7489 0.0
C2424 C 0.80053 0.13445 0.73843 0.0
C2425 C 0.80539 0.14977 0.74248 0.0
C2426 C 0.79768 0.1537 0.75696 0.0
C2427 C 0.78512 0.14233 0.76747 0.0
H2428 H 0.81511 0.15859 0.73436 0.0
H2429 H 0.69242 0.04864 0.83603 0.0
H2430 H 0.05315 0.36819 -0.00061 0.0
H2431 H 0.07556 0.36785 0.0117 0.0
H2432 H 0.05218 0.34584 0.06861 0.0
H2433 H 0.02981 0.34579 0.0563 0.0
H2434 H 0.08276 0.3725 0.07376 0.0
H2435 H 0.0537 0.32451 0.03411 0.0
H2436 H 0.04171 0.30942 0.00173 0.0
H2437 H 0.08431 0.33226 0.97 0.0
H2438 H 0.0965 0.34765 0.00215 0.0
H2439 H 0.10645 0.3314 0.12912 0.0
H2440 H 0.09218 0.33783 0.10547 0.0
H2441 H 0.12884 0.35599 0.06119 0.0
H2442 H 0.14362 0.34995 0.08546 0.0
H2443 H 0.09737 0.33688 0.04339 0.0
H2444 H 0.12732 0.3802 0.08662 0.0
H2445 H 0.13911 0.39506 0.11916 0.0
H2446 H 0.09556 0.38267 0.14351 0.0
H2447 H 0.08342 0.36706 0.11166 0.0
C2448 C 0.05286 0.36336 0.01456 0.0
C2449 C 0.03974 0.35701 0.0269 0.0
C2450 C 0.06562 0.36312 0.0215 0.0
C2451 C 0.06549 0.3568 0.04104 0.0
C2452 C 0.0525 0.35077 0.0535 0.0
C2453 C 0.03972 0.35073 0.04642 0.0
C2454 C 0.07871 0.35629 0.04888 0.0
C2455 C 0.08603 0.36477 0.06712 0.0
C2456 C 0.0833 0.34662 0.03968 0.0
C2457 C 0.07596 0.33739 0.02041 0.0
C2458 C 0.06047 0.32644 0.02015 0.0
C2459 C 0.05365 0.3178 0.00187 0.0
C2460 C 0.06223 0.31992 0.98379 0.0
C2461 C 0.07767 0.33066 0.98399 0.0
C2462 C 0.08454 0.33934 0.00224 0.0
C2463 C 0.11157 0.33683 0.11441 0.0
C2464 C 0.12635 0.34056 0.10943 0.0
C2465 C 0.10333 0.3404 0.10084 0.0
C2466 C 0.10955 0.34762 0.08177 0.0
C2467 C 0.12391 0.35051 0.07595 0.0
C2468 C 0.13231 0.34704 0.08976 0.0
C2469 C 0.101 0.35263 0.06885 0.0
C2470 C 0.0945 0.34498 0.04972 0.0
C2471 C 0.09718 0.36315 0.07721 0.0
C2472 C 0.10442 0.37229 0.09673 0.0
C2473 C 0.12021 0.38039 0.09906 0.0
C2474 C 0.12697 0.38894 0.11743 0.0
C2475 C 0.11809 0.38972 0.13347 0.0
C2476 C 0.10243 0.38196 0.13116 0.0
C2477 C 0.0956 0.3732 0.11297 0.0
H2478 H 0.12334 0.3964 0.14765 0.0
H2479 H 0.05693 0.31322 0.96965 0.0
H2480 H 0.63942 0.68479 0.03162 0.0
H2481 H 0.64352 0.70929 0.04428 0.0
H2482 H 0.69058 0.72506 0.05498 0.0
H2483 H 0.6862 0.70007 0.04355 0.0
H2484 H 0.68228 0.73581 0.08436 0.0
H2485 H 0.67673 0.7354 0.01014 0.0
H2486 H 0.66517 0.72565 0.97511 0.0
H2487 H 0.62587 0.72671 0.99449 0.0
H2488 H 0.63711 0.73627 0.02975 0.0
H2489 H 0.69927 0.81135 0.09801 0.0
H2490 H 0.69773 0.79076 0.07569 0.0
H2491 H 0.64966 0.76448 0.08508 0.0
H2492 H 0.65125 0.7849 0.10781 0.0
H2493 H 0.66129 0.76136 0.04261 0.0
H2494 H 0.66892 0.76135 0.11874 0.0
H2495 H 0.68336 0.77407 0.15112 0.0
H2496 H 0.72252 0.77587 0.12472 0.0
H2497 H 0.70851 0.76382 0.09175 0.0
C2498 C 0.6506 0.69344 0.03687 0.0
C2499 C 0.66252 0.69061 0.03653 0.0
C2500 C 0.65299 0.70752 0.04389 0.0
C2501 C 0.66748 0.71927 0.04995 0.0
C2502 C 0.67932 0.71626 0.05024 0.0
C2503 C 0.67682 0.70198 0.04375 0.0
C2504 C 0.67017 0.7346 0.05605 0.0
C2505 C 0.6779 0.74146 0.07497 0.0
C2506 C 0.66452 0.74214 0.04387 0.0
C2507 C 0.65773 0.73644 0.02265 0.0
C2508 C 0.66559 0.73346 0.00698 0.0
C2509 C 0.65909 0.72798 0.98708 0.0
C2510 C 0.64478 0.72553 0.98259 0.0
C2511 C 0.63695 0.7286 0.99799 0.0
C2512 C 0.64338 0.73407 0.01793 0.0
C2513 C 0.68831 0.80147 0.09447 0.0
C2514 C 0.67535 0.79964 0.10443 0.0
C2515 C 0.68745 0.78972 0.08184 0.0
C2516 C 0.6736 0.7761 0.07895 0.0
C2517 C 0.66042 0.77494 0.08708 0.0
C2518 C 0.66132 0.78658 0.1 0.0
C2519 C 0.67313 0.76223 0.07084 0.0
C2520 C 0.6658 0.75568 0.05169 0.0
C2521 C 0.6795 0.7552 0.08249 0.0
C2522 C 0.6877 0.76185 0.10266 0.0
C2523 C 0.68064 0.76458 0.11976 0.0
C2524 C 0.68875 0.77166 0.13823 0.0
C2525 C 0.70383 0.77572 0.14002 0.0
C2526 C 0.71084 0.77273 0.12331 0.0
C2527 C 0.70284 0.76583 0.10469 0.0
H2528 H 0.71007 0.78119 0.15435 0.0
H2529 H 0.63978 0.72128 0.96717 0.0
H2530 H 0.31974 0.9543 0.01992 0.0
H2531 H 0.29572 0.93401 0.03327 0.0
H2532 H 0.28714 0.96754 0.06141 0.0
H2533 H 0.31156 0.98795 0.04872 0.0
H2534 H 0.27833 0.94515 0.08714 0.0
H2535 H 0.2699 0.94786 0.01383 0.0
H2536 H 0.2748 0.94845 0.97569 0.0
H2537 H 0.26886 0.90376 0.97813 0.0
H2538 H 0.26413 0.90299 0.01635 0.0
H2539 H 0.20398 0.89247 0.11101 0.0
H2540 H 0.22327 0.91263 0.08926 0.0
H2541 H 0.23867 0.88243 0.06911 0.0
H2542 H 0.21923 0.86218 0.09065 0.0
H2543 H 0.24271 0.90388 0.03828 0.0
H2544 H 0.252 0.9024 0.11291 0.0
H2545 H 0.24504 0.90172 0.15026 0.0
H2546 H 0.24857 0.94519 0.14471 0.0
H2547 H 0.25502 0.9459 0.10708 0.0
C2548 C 0.31279 0.95736 0.02906 0.0
C2549 C 0.31751 0.97273 0.03318 0.0
C2550 C 0.29897 0.94574 0.03655 0.0
C2551 C 0.28937 0.94919 0.04792 0.0
C2552 C 0.29427 0.96455 0.05257 0.0
C2553 C 0.30823 0.97621 0.04532 0.0
C2554 C 0.27431 0.93677 0.05498 0.0
C2555 C 0.27048 0.9363 0.07634 0.0
C2556 C 0.26402 0.92504 0.04101 0.0
C2557 C 0.26678 0.92543 0.018 0.0
C2558 C 0.26974 0.9382 0.00626 0.0
C2559 C 0.27247 0.93857 0.98462 0.0
C2560 C 0.27218 0.92617 0.9745 0.0
C2561 C 0.2691 0.91336 0.98599 0.0
C2562 C 0.26637 0.91295 0.00764 0.0
C2563 C 0.21102 0.88993 0.10112 0.0
C2564 C 0.21019 0.87582 0.10253 0.0
C2565 C 0.2221 0.90148 0.08885 0.0
C2566 C 0.23264 0.89914 0.07803 0.0
C2567 C 0.2307 0.8845 0.07744 0.0
C2568 C 0.21953 0.87289 0.08963 0.0
C2569 C 0.24688 0.91233 0.0703 0.0
C2570 C 0.25056 0.91287 0.04893 0.0
C2571 C 0.25697 0.92421 0.0842 0.0
C2572 C 0.25382 0.92412 0.10709 0.0
C2573 C 0.25119 0.91178 0.1196 0.0
C2574 C 0.24728 0.91135 0.14079 0.0
C2575 C 0.2463 0.92337 0.14982 0.0
C2576 C 0.24928 0.93586 0.13767 0.0
C2577 C 0.25303 0.93627 0.11639 0.0
H2578 H 0.24332 0.92302 0.16626 0.0
H2579 H 0.2743 0.92647 0.95775 0.0
H2580 H 0.33251 0.02295 0.97049 0.0
H2581 H 0.33156 0.04465 0.95715 0.0
H2582 H 0.37493 0.07539 0.98552 0.0
H2583 H 0.3757 0.05361 -0.00042 0.0
H2584 H 0.35728 0.08646 0.99146 0.0
H2585 H 0.37056 0.06739 0.93143 0.0
H2586 H 0.36876 0.04833 0.90538 0.0
H2587 H 0.32503 0.0391 0.8861 0.0
H2588 H 0.32648 0.05795 0.91225 0.0
H2589 H 0.36839 0.14839 0.92374 0.0
H2590 H 0.37023 0.12934 0.94439 0.0
H2591 H 0.3242 0.09595 0.92826 0.0
H2592 H 0.3222 0.11495 0.90801 0.0
H2593 H 0.34512 0.08757 0.91621 0.0
H2594 H 0.33276 0.10744 0.97767 0.0
H2595 H 0.33619 0.12761 0.0029 0.0
H2596 H 0.3806 0.13686 0.01806 0.0
H2597 H 0.37751 0.11687 0.99268 0.0
C2598 C 0.34189 0.03432 0.97383 0.0
C2599 C 0.35423 0.03655 0.98597 0.0
C2600 C 0.34136 0.04675 0.96612 0.0
C2601 C 0.3533 0.06171 0.96999 0.0
C2602 C 0.3656 0.06398 0.98226 0.0
C2603 C 0.36606 0.05152 0.99021 0.0
C2604 C 0.35279 0.07489 0.96125 0.0
C2605 C 0.35484 0.0868 0.97494 0.0
C2606 C 0.3495 0.07536 0.93971 0.0
C2607 C 0.34858 0.06399 0.92395 0.0
C2608 C 0.36051 0.06121 0.92175 0.0
C2609 C 0.35956 0.05046 0.90695 0.0
C2610 C 0.34677 0.04248 0.89413 0.0
C2611 C 0.33492 0.04527 0.89606 0.0
C2612 C 0.33581 0.056 0.91085 0.0
C2613 C 0.35848 0.13717 0.92531 0.0
C2614 C 0.34518 0.13314 0.91414 0.0
C2615 C 0.35959 0.12626 0.93698 0.0
C2616 C 0.3474 0.11118 0.93765 0.0
C2617 C 0.33377 0.10748 0.92782 0.0
C2618 C 0.33264 0.11836 0.91632 0.0
C2619 C 0.34925 0.09887 0.94649 0.0
C2620 C 0.34757 0.0872 0.93273 0.0
C2621 C 0.35311 0.09878 0.96782 0.0
C2622 C 0.35496 0.11077 0.98311 0.0
C2623 C 0.34331 0.11387 0.98624 0.0
C2624 C 0.34518 0.12524 0.0006 0.0
C2625 C 0.35862 0.13354 0.01203 0.0
C2626 C 0.37021 0.13044 0.00917 0.0
C2627 C 0.36839 0.11908 0.99481 0.0
H2628 H 0.36005 0.14234 0.02314 0.0
H2629 H 0.34606 0.03416 0.88267 0.0
H2630 H 0.959 0.31301 0.01522 0.0
H2631 H 0.93834 0.28819 0.00283 0.0
H2632 H 0.96284 0.29219 0.9458 0.0
H2633 H 0.98371 0.31691 0.95828 0.0
H2634 H 0.93095 0.28268 0.9405 0.0
H2635 H 0.96372 0.271 0.9807 0.0
H2636 H 0.97749 0.27168 0.01275 0.0
H2637 H 0.936 0.2494 0.04719 0.0
H2638 H 0.922 0.24879 0.01538 0.0
H2639 H 0.90839 0.21301 0.8941 0.0
H2640 H 0.92387 0.23408 0.91838 0.0
H2641 H 0.88481 0.22233 0.95631 0.0
H2642 H 0.86899 0.20131 0.93139 0.0
H2643 H 0.92013 0.23513 0.97571 0.0
H2644 H 0.88669 0.24516 0.93638 0.0
H2645 H 0.87226 0.24383 0.90478 0.0
H2646 H 0.91337 0.27007 0.87065 0.0
H2647 H 0.92811 0.27083 0.90177 0.0
C2648 C 0.95996 0.30863 -0.0 0.0
C2649 C 0.97297 0.31687 0.9877 0.0
C2650 C 0.94818 0.29445 0.99299 0.0
C2651 C 0.94912 0.28838 0.97346 0.0
C2652 C 0.96193 0.29673 0.96093 0.0
C2653 C 0.97384 0.3108 0.96808 0.0
C2654 C 0.93686 0.27321 0.96617 0.0
C2655 C 0.92856 0.2723 0.94822 0.0
C2656 C 0.93343 0.25971 0.9767 0.0
C2657 C 0.94185 0.26002 0.99575 0.0
C2658 C 0.95755 0.26638 0.99516 0.0
C2659 C 0.9654 0.26672 0.01327 0.0
C2660 C 0.95763 0.26063 0.03201 0.0
C2661 C 0.942 0.25414 0.03267 0.0
C2662 C 0.93411 0.25379 0.01461 0.0
C2663 C 0.90316 0.21464 0.90794 0.0
C2664 C 0.88749 0.20573 0.91077 0.0
C2665 C 0.91201 0.22665 0.92179 0.0
C2666 C 0.90541 0.22983 0.93888 0.0
C2667 C 0.89004 0.22001 0.9431 0.0
C2668 C 0.88105 0.20801 0.92897 0.0
C2669 C 0.91435 0.24466 0.94999 0.0
C2670 C 0.92221 0.24555 0.96841 0.0
C2671 C 0.91717 0.25818 0.94017 0.0
C2672 C 0.90848 0.25776 0.9213 0.0
C2673 C 0.89267 0.25033 0.922 0.0
C2674 C 0.88444 0.24968 0.90417 0.0
C2675 C 0.89192 0.25669 0.88564 0.0
C2676 C 0.90764 0.26443 0.88494 0.0
C2677 C 0.91593 0.26493 0.90265 0.0
H2678 H 0.88554 0.25624 0.87187 0.0
H2679 H 0.96372 0.2609 0.04601 0.0
H2680 H 0.68331 0.63181 0.00153 0.0
H2681 H 0.70645 0.63345 0.98856 0.0
H2682 H 0.72051 0.67745 0.96249 0.0
H2683 H 0.69722 0.67557 0.97463 0.0
H2684 H 0.72657 0.66255 0.93582 0.0
H2685 H 0.73549 0.67237 0.00994 0.0
H2686 H 0.73033 0.66745 0.04786 0.0
H2687 H 0.73173 0.62634 0.04098 0.0
H2688 H 0.7367 0.63092 0.00294 0.0
H2689 H 0.80025 0.68471 0.91286 0.0
H2690 H 0.78129 0.68469 0.93609 0.0
H2691 H 0.76305 0.63699 0.94785 0.0
H2692 H 0.78203 0.63698 0.92469 0.0
H2693 H 0.75976 0.65392 0.98262 0.0
H2694 H 0.75179 0.64599 0.90695 0.0
H2695 H 0.76011 0.65404 0.87058 0.0
H2696 H 0.75804 0.69446 0.88142 0.0
H2697 H 0.75055 0.6871 0.91829 0.0
C2698 C 0.69132 0.64179 0.99293 0.0
C2699 C 0.68843 0.65355 0.98909 0.0
C2700 C 0.70461 0.64278 0.98567 0.0
C2701 C 0.71541 0.65571 0.97482 0.0
C2702 C 0.71241 0.66736 0.9708 0.0
C2703 C 0.69906 0.66627 0.97777 0.0
C2704 C 0.72975 0.65709 0.96734 0.0
C2705 C 0.73387 0.66084 0.94619 0.0
C2706 C 0.7393 0.6547 0.9807 0.0
C2707 C 0.7363 0.6519 0.00356 0.0
C2708 C 0.73458 0.66222 0.01648 0.0
C2709 C 0.73171 0.6595 0.038 0.0
C2710 C 0.73066 0.64657 0.04681 0.0
C2711 C 0.73252 0.63634 0.03412 0.0
C2712 C 0.73537 0.639 0.01259 0.0
C2713 C 0.79261 0.6744 0.92114 0.0
C2714 C 0.79248 0.6608 0.91679 0.0
C2715 C 0.78177 0.67438 0.93435 0.0
C2716 C 0.77056 0.66075 0.94326 0.0
C2717 C 0.77157 0.64762 0.94105 0.0
C2718 C 0.78246 0.64764 0.92786 0.0
C2719 C 0.7565 0.65952 0.95134 0.0
C2720 C 0.75241 0.65567 0.97241 0.0
C2721 C 0.74707 0.66208 0.93802 0.0
C2722 C 0.75075 0.66606 0.91549 0.0
C2723 C 0.75319 0.65664 0.90165 0.0
C2724 C 0.75776 0.66108 0.88093 0.0
C2725 C 0.7595 0.67469 0.87364 0.0
C2726 C 0.75669 0.68391 0.88708 0.0
C2727 C 0.75236 0.67965 0.90794 0.0
H2728 H 0.76303 0.67809 0.85758 0.0
H2729 H 0.72844 0.64449 0.06347 0.0
H2730 H 0.97206 0.65754 0.96296 0.0
H2731 H 0.94989 0.65783 0.95085 0.0
H2732 H 0.92791 0.63942 0.01008 0.0
H2733 H 0.95003 0.63843 0.02193 0.0
H2734 H 0.90795 0.6271 0.98017 0.0
H2735 H 0.94401 0.67848 0.99809 0.0
H2736 H 0.96882 0.70222 0.99891 0.0
H2737 H 0.96679 0.70585 0.93183 0.0
H2738 H 0.94206 0.68203 0.93055 0.0
H2739 H 0.86308 0.66159 0.93323 0.0
H2740 H 0.88035 0.66083 0.95938 0.0
H2741 H 0.89416 0.63914 0.9131 0.0
H2742 H 0.87704 0.63967 0.88731 0.0
H2743 H 0.91589 0.67384 0.94567 0.0
H2744 H 0.88479 0.61429 0.93397 0.0
H2745 H 0.85924 0.59145 0.93499 0.0
H2746 H 0.85123 0.60654 0.9946 0.0
H2747 H 0.87667 0.62954 0.99372 0.0
C2748 C 0.96248 0.65348 0.97339 0.0
C2749 C 0.96282 0.64807 0.99346 0.0
C2750 C 0.94984 0.65377 0.96652 0.0
C2751 C 0.93736 0.64913 0.97978 0.0
C2752 C 0.93744 0.64323 -0.00038 0.0
C2753 C 0.95006 0.64264 0.00638 0.0
C2754 C 0.92432 0.65039 0.97258 0.0
C2755 C 0.90974 0.63745 0.973 0.0
C2756 C 0.92639 0.66394 0.96353 0.0
C2757 C 0.94118 0.67842 0.96423 0.0
C2758 C 0.94888 0.68431 0.9835 0.0
C2759 C 0.96293 0.69778 0.98405 0.0
C2760 C 0.96938 0.70553 0.96544 0.0
C2761 C 0.96177 0.69984 0.94624 0.0
C2762 C 0.94772 0.68637 0.9456 0.0
C2763 C 0.86965 0.65646 0.92884 0.0
C2764 C 0.86887 0.65087 0.90817 0.0
C2765 C 0.8795 0.65607 0.94371 0.0
C2766 C 0.88845 0.64988 0.93811 0.0
C2767 C 0.88727 0.64386 0.91775 0.0
C2768 C 0.87756 0.64428 0.90299 0.0
C2769 C 0.89994 0.65046 0.95262 0.0
C2770 C 0.91419 0.66372 0.95345 0.0
C2771 C 0.89758 0.6374 0.96313 0.0
C2772 C 0.8825 0.62355 0.96376 0.0
C2773 C 0.87753 0.6127 0.94725 0.0
C2774 C 0.86309 0.59976 0.94779 0.0
C2775 C 0.85361 0.59755 0.96485 0.0
C2776 C 0.85856 0.60827 0.98139 0.0
C2777 C 0.87297 0.62126 0.98087 0.0
H2778 H 0.84244 0.58752 0.96525 0.0
H2779 H 0.98027 0.71595 0.96589 0.0
H2780 H 0.36249 0.32056 0.00189 0.0
H2781 H 0.35972 0.2971 0.98695 0.0
H2782 H 0.32008 0.28864 0.95281 0.0
H2783 H 0.32288 0.31235 0.96759 0.0
H2784 H 0.31728 0.26254 0.97461 0.0
H2785 H 0.34967 0.30082 0.92589 0.0
H2786 H 0.37152 0.32549 0.91575 0.0
H2787 H 0.40159 0.31263 0.94185 0.0
H2788 H 0.37989 0.28798 0.9525 0.0
H2789 H 0.31471 0.20758 0.90064 0.0
H2790 H 0.31396 0.22752 0.92133 0.0
H2791 H 0.3579 0.24177 0.94718 0.0
H2792 H 0.35899 0.22228 0.92577 0.0
H2793 H 0.35783 0.26487 0.9298 0.0
H2794 H 0.32563 0.22634 0.97812 0.0
H2795 H 0.30387 0.2019 0.98916 0.0
H2796 H 0.27357 0.21496 0.96453 0.0
H2797 H 0.29515 0.2394 0.95307 0.0
C2798 C 0.35319 0.31376 0.99116 0.0
C2799 C 0.34294 0.31833 0.98581 0.0
C2800 C 0.35163 0.30035 0.98267 0.0
C2801 C 0.33972 0.29118 0.96878 0.0
C2802 C 0.32932 0.29558 0.96355 0.0
C2803 C 0.331 0.30915 0.97188 0.0
C2804 C 0.33845 0.2772 0.95945 0.0
C2805 C 0.32601 0.26298 0.96456 0.0
C2806 C 0.35006 0.27787 0.94681 0.0
C2807 C 0.36315 0.29261 0.94019 0.0
C2808 C 0.36094 0.3033 0.92963 0.0
C2809 C 0.37329 0.31728 0.92377 0.0
C2810 C 0.38793 0.32064 0.92821 0.0
C2811 C 0.39024 0.31002 0.93846 0.0
C2812 C 0.37792 0.29604 0.9444 0.0
C2813 C 0.32404 0.21471 0.91117 0.0
C2814 C 0.33697 0.21344 0.91141 0.0
C2815 C 0.32357 0.22607 0.92307 0.0
C2816 C 0.33591 0.23621 0.93575 0.0
C2817 C 0.34828 0.23412 0.93741 0.0
C2818 C 0.34881 0.22282 0.92537 0.0
C2819 C 0.33671 0.25002 0.94515 0.0
C2820 C 0.34908 0.2643 0.93992 0.0
C2821 C 0.32503 0.24935 0.95771 0.0
C2822 C 0.31202 0.23465 0.96456 0.0
C2823 C 0.31433 0.22395 0.97489 0.0
C2824 C 0.30202 0.21011 0.98126 0.0
C2825 C 0.28734 0.20687 0.9775 0.0
C2826 C 0.28494 0.21748 0.96741 0.0
C2827 C 0.29721 0.23134 0.96099 0.0
H2828 H 0.27783 0.19615 0.98245 0.0
H2829 H 0.39748 0.33147 0.92366 0.0
H2830 H 0.69928 0.01736 0.97334 0.0
H2831 H 0.72354 0.03778 0.96004 0.0
H2832 H 0.71239 0.07122 0.98043 0.0
H2833 H 0.68836 0.05095 0.99433 0.0
H2834 H 0.72434 0.07283 0.93544 0.0
H2835 H 0.73441 0.06995 0.00978 0.0
H2836 H 0.73471 0.05619 0.04113 0.0
H2837 H 0.7631 0.04318 0.00888 0.0
H2838 H 0.76277 0.05668 0.97721 0.0
H2839 H 0.79048 0.14106 0.92156 0.0
H2840 H 0.76935 0.12143 0.94158 0.0
H2841 H 0.78758 0.09196 0.93468 0.0
H2842 H 0.80887 0.11172 0.91482 0.0
H2843 H 0.7723 0.08725 0.97227 0.0
H2844 H 0.76369 0.08915 0.89931 0.0
H2845 H 0.7637 0.10108 0.86586 0.0
H2846 H 0.73265 0.11308 0.89176 0.0
H2847 H 0.73267 0.10147 0.92553 0.0
C2848 C 0.70198 0.02906 0.97489 0.0
C2849 C 0.69195 0.03258 0.98489 0.0
C2850 C 0.71583 0.04069 0.96736 0.0
C2851 C 0.71972 0.05597 0.96934 0.0
C2852 C 0.70956 0.05948 0.97879 0.0
C2853 C 0.69587 0.0479 0.98675 0.0
C2854 C 0.73447 0.06835 0.96176 0.0
C2855 C 0.73481 0.07614 0.94362 0.0
C2856 C 0.74815 0.07219 0.97199 0.0
C2857 C 0.74842 0.06416 0.99106 0.0
C2858 C 0.74059 0.06402 0.0093 0.0
C2859 C 0.74079 0.0563 0.02715 0.0
C2860 C 0.74888 0.04877 0.02698 0.0
C2861 C 0.75682 0.04899 0.00898 0.0
C2862 C 0.75664 0.05668 0.99109 0.0
C2863 C 0.7903 0.13065 0.92514 0.0
C2864 C 0.80125 0.12786 0.91667 0.0
C2865 C 0.77817 0.11939 0.93638 0.0
C2866 C 0.77671 0.1051 0.93912 0.0
C2867 C 0.78846 0.10288 0.93263 0.0
C2868 C 0.80067 0.11421 0.92144 0.0
C2869 C 0.76215 0.09206 0.94625 0.0
C2870 C 0.76184 0.08403 0.96413 0.0
C2871 C 0.7485 0.08771 0.93543 0.0
C2872 C 0.74831 0.09458 0.91506 0.0
C2873 C 0.75696 0.09444 0.89795 0.0
C2874 C 0.75694 0.10113 0.87891 0.0
C2875 C 0.74821 0.10786 0.87671 0.0
C2876 C 0.73944 0.10788 0.89351 0.0
C2877 C 0.73944 0.10124 0.91261 0.0
H2878 H 0.74822 0.11304 0.86197 0.0
H2879 H 0.74903 0.0428 0.04081 0.0
H2880 H 0.67703 0.98208 0.04267 0.0
H2881 H 0.67853 0.96021 0.05429 0.0
H2882 H 0.63329 0.92977 0.03167 0.0
H2883 H 0.63182 0.95166 0.01938 0.0
H2884 H 0.64253 0.92598 0.07693 0.0
H2885 H 0.65576 0.92915 0.00287 0.0
H2886 H 0.6702 0.94284 0.9715 0.0
H2887 H 0.71155 0.95455 0.00307 0.0
H2888 H 0.69736 0.94112 0.03476 0.0
H2889 H 0.64326 0.86014 0.09797 0.0
H2890 H 0.63979 0.87751 0.07589 0.0
H2891 H 0.68783 0.909 0.07663 0.0
H2892 H 0.69131 0.89136 0.09814 0.0
H2893 H 0.67606 0.91143 0.04053 0.0
H2894 H 0.66585 0.91152 0.11378 0.0
H2895 H 0.65402 0.8999 0.14756 0.0
H2896 H 0.6103 0.88524 0.12141 0.0
H2897 H 0.62186 0.89653 0.08731 0.0
C2898 C 0.66735 0.97075 0.04025 0.0
C2899 C 0.65429 0.96859 0.03013 0.0
C2900 C 0.66826 0.95827 0.04683 0.0
C2901 C 0.65605 0.94341 0.04375 0.0
C2902 C 0.64283 0.94118 0.03414 0.0
C2903 C 0.64202 0.95367 0.02713 0.0
C2904 C 0.65724 0.93027 0.05056 0.0
C2905 C 0.64958 0.92255 0.06874 0.0
C2906 C 0.66697 0.92629 0.04035 0.0
C2907 C 0.6755 0.93425 0.02125 0.0
C2908 C 0.66794 0.93476 0.00319 0.0
C2909 C 0.67608 0.94245 0.98534 0.0
C2910 C 0.69178 0.9496 0.98531 0.0
C2911 C 0.69938 0.94903 0.00312 0.0
C2912 C 0.6913 0.94137 0.02102 0.0
C2913 C 0.6531 0.87046 0.0926 0.0
C2914 C 0.66754 0.87443 0.09968 0.0
C2915 C 0.65112 0.88046 0.08019 0.0
C2916 C 0.66351 0.89476 0.0751 0.0
C2917 C 0.67809 0.89807 0.08043 0.0
C2918 C 0.68009 0.88796 0.09262 0.0
C2919 C 0.66114 0.9069 0.06677 0.0
C2920 C 0.66874 0.9146 0.04852 0.0
C2921 C 0.65169 0.91119 0.07728 0.0
C2922 C 0.64471 0.90473 0.09791 0.0
C2923 C 0.6537 0.90575 0.11519 0.0
C2924 C 0.64705 0.89922 0.1344 0.0
C2925 C 0.63142 0.8918 0.13661 0.0
C2926 C 0.62241 0.89097 0.11965 0.0
C2927 C 0.629 0.89743 0.10037 0.0
H2928 H 0.62629 0.88674 0.15149 0.0
H2929 H 0.69806 0.95554 0.97148 0.0
H2930 H 0.0199 0.68936 0.06154 0.0
H2931 H 0.0407 0.71411 0.07357 0.0
H2932 H 0.06286 0.71975 0.01373 0.0
H2933 H 0.04247 0.69461 0.00216 0.0
H2934 H 0.08284 0.72896 0.04166 0.0
H2935 H 0.04468 0.74031 0.02898 0.0
H2936 H 0.0195 0.73742 0.03022 0.0
H2937 H 0.02313 0.74364 0.0975 0.0
H2938 H 0.04824 0.74634 0.09672 0.0
H2939 H 0.13354 0.80732 0.08532 0.0
H2940 H 0.11417 0.78832 0.06093 0.0
H2941 H 0.09266 0.75807 0.11274 0.0
H2942 H 0.11223 0.77615 0.13656 0.0
H2943 H 0.07367 0.76581 0.0809 0.0
H2944 H 0.10973 0.74746 0.09035 0.0
H2945 H 0.13543 0.75178 0.08714 0.0
H2946 H 0.13588 0.76142 0.02144 0.0
H2947 H 0.11023 0.75735 0.02439 0.0
C2948 C 0.02921 0.69591 0.05098 0.0
C2949 C 0.02958 0.69009 0.03094 0.0
C2950 C 0.04104 0.71013 0.05776 0.0
C2951 C 0.05325 0.71905 0.04438 0.0
C2952 C 0.05359 0.71318 0.02434 0.0
C2953 C 0.04192 0.6988 0.01774 0.0
C2954 C 0.06593 0.73412 0.05175 0.0
C2955 C 0.08077 0.73713 0.04977 0.0
C2956 C 0.06344 0.74502 0.06218 0.0
C2957 C 0.04833 0.74345 0.06279 0.0
C2958 C 0.04007 0.74097 0.04406 0.0
C2959 C 0.02581 0.73937 0.04468 0.0
C2960 C 0.01971 0.74032 0.06393 0.0
C2961 C 0.02787 0.7429 0.0826 0.0
C2962 C 0.04213 0.74449 0.08207 0.0
C2963 C 0.12468 0.7966 0.09142 0.0
C2964 C 0.12416 0.79348 0.11304 0.0
C2965 C 0.11362 0.78584 0.07755 0.0
C2966 C 0.1019 0.77197 0.08522 0.0
C2967 C 0.10146 0.76885 0.10665 0.0
C2968 C 0.11258 0.77931 0.12028 0.0
C2969 C 0.0902 0.76016 0.07126 0.0
C2970 C 0.0756 0.75776 0.07213 0.0
C2971 C 0.09291 0.75002 0.05941 0.0
C2972 C 0.10819 0.75229 0.05764 0.0
C2973 C 0.11538 0.75063 0.07528 0.0
C2974 C 0.12991 0.75301 0.0735 0.0
C2975 C 0.13731 0.75692 0.05411 0.0
C2976 C 0.13015 0.75842 0.03645 0.0
C2977 C 0.11562 0.75608 0.03817 0.0
H2978 H 0.14856 0.75876 0.05276 0.0
H2979 H 0.00866 0.73908 0.06438 0.0
H2980 H 0.30838 0.3355 0.04872 0.0
H2981 H 0.28484 0.33348 0.05975 0.0
H2982 H 0.29586 0.37369 0.02493 0.0
H2983 H 0.31964 0.37579 0.0136 0.0
H2984 H 0.28423 0.37257 0.06686 0.0
H2985 H 0.27084 0.34169 0.00388 0.0
H2986 H 0.27029 0.32213 0.97999 0.0
H2987 H 0.24736 0.28818 0.02699 0.0
H2988 H 0.24797 0.30758 0.05128 0.0
H2989 H 0.2101 0.35554 0.09461 0.0
H2990 H 0.23118 0.36122 0.07075 0.0
H2991 H 0.23054 0.32093 0.09154 0.0
H2992 H 0.20962 0.31529 0.11504 0.0
H2993 H 0.23617 0.32484 0.04987 0.0
H2994 H 0.25398 0.35485 0.11437 0.0
H2995 H 0.25508 0.37328 0.14096 0.0
H2996 H 0.27018 0.40765 0.09381 0.0
H2997 H 0.26895 0.38931 0.06687 0.0
C2998 C 0.3059 0.34399 0.04344 0.0
C2999 C 0.31588 0.35578 0.0302 0.0
C3000 C 0.29238 0.34277 0.0497 0.0
C3001 C 0.28851 0.3533 0.04292 0.0
C3002 C 0.29862 0.36539 0.03023 0.0
C3003 C 0.31217 0.36657 0.02378 0.0
C3004 C 0.2738 0.3514 0.04919 0.0
C3005 C 0.27367 0.36234 0.06269 0.0
C3006 C 0.26007 0.33788 0.04411 0.0
C3007 C 0.25952 0.32612 0.02944 0.0
C3008 C 0.26576 0.33007 0.00917 0.0
C3009 C 0.26543 0.31901 0.99555 0.0
C3010 C 0.25881 0.30392 0.00198 0.0
C3011 C 0.25248 0.29986 0.02203 0.0
C3012 C 0.25279 0.31089 0.03572 0.0
C3013 C 0.21425 0.34773 0.09353 0.0
C3014 C 0.2083 0.33498 0.1065 0.0
C3015 C 0.22631 0.35101 0.08007 0.0
C3016 C 0.23251 0.34155 0.0795 0.0
C3017 C 0.22592 0.32835 0.09161 0.0
C3018 C 0.21399 0.32513 0.10503 0.0
C3019 C 0.24661 0.34585 0.06789 0.0
C3020 C 0.24666 0.33531 0.05349 0.0
C3021 C 0.26029 0.3596 0.07242 0.0
C3022 C 0.26118 0.37068 0.08858 0.0
C3023 C 0.25742 0.36631 0.10966 0.0
C3024 C 0.25808 0.37673 0.12479 0.0
C3025 C 0.26265 0.39162 0.11907 0.0
C3026 C 0.26661 0.39611 0.09821 0.0
C3027 C 0.26593 0.3857 0.083 0.0
H3028 H 0.26316 0.39968 0.1308 0.0
H3029 H 0.25857 0.29537 0.99142 0.0
H3030 H 0.7235 0.7108 0.34958 0.0
H3031 H 0.74564 0.71032 0.36221 0.0
H3032 H 0.71653 0.66736 0.39202 0.0
H3033 H 0.6945 0.66805 0.38009 0.0
H3034 H 0.73856 0.68383 0.41724 0.0
H3035 H 0.73488 0.67054 0.34373 0.0
H3036 H 0.73338 0.67374 0.30555 0.0
H3037 H 0.7765 0.71514 0.30794 0.0
H3038 H 0.77818 0.71229 0.34621 0.0
H3039 H 0.78744 0.65484 0.42459 0.0
H3040 H 0.7699 0.65907 0.40406 0.0
H3041 H 0.79885 0.70757 0.41304 0.0
H3042 H 0.81618 0.70335 0.43423 0.0
H3043 H 0.77846 0.68967 0.36778 0.0
H3044 H 0.77943 0.70269 0.44416 0.0
H3045 H 0.7807 0.69646 0.48122 0.0
H3046 H 0.74148 0.65211 0.47156 0.0
H3047 H 0.74018 0.658 0.4343 0.0
C3048 C 0.72184 0.70131 0.35892 0.0
C3049 C 0.70723 0.68946 0.3638 0.0
C3050 C 0.73451 0.70099 0.36603 0.0
C3051 C 0.7328 0.68869 0.37786 0.0
C3052 C 0.7182 0.67699 0.38297 0.0
C3053 C 0.70558 0.67738 0.37608 0.0
C3054 C 0.74612 0.68788 0.38495 0.0
C3055 C 0.74721 0.68511 0.40632 0.0
C3056 C 0.75756 0.68954 0.37086 0.0
C3057 C 0.75657 0.69129 0.34787 0.0
C3058 C 0.74399 0.68039 0.33614 0.0
C3059 C 0.74311 0.68213 0.31448 0.0
C3060 C 0.75481 0.69466 0.30434 0.0
C3061 C 0.76743 0.70546 0.31583 0.0
C3062 C 0.76836 0.70378 0.3375 0.0
C3063 C 0.7904 0.66642 0.42133 0.0
C3064 C 0.80319 0.67879 0.43077 0.0
C3065 C 0.78035 0.66881 0.40972 0.0
C3066 C 0.7831 0.68362 0.40714 0.0
C3067 C 0.79662 0.69608 0.41478 0.0
C3068 C 0.80652 0.69367 0.42677 0.0
C3069 C 0.77078 0.68582 0.39984 0.0
C3070 C 0.76985 0.68868 0.37856 0.0
C3071 C 0.75938 0.68406 0.41388 0.0
C3072 C 0.75979 0.68073 0.43644 0.0
C3073 C 0.77114 0.69158 0.44992 0.0
C3074 C 0.77186 0.68812 0.47095 0.0
C3075 C 0.7612 0.67389 0.47873 0.0
C3076 C 0.74975 0.66312 0.46551 0.0
C3077 C 0.74901 0.66652 0.44444 0.0
H3078 H 0.76181 0.67122 0.49501 0.0
H3079 H 0.75412 0.69598 0.28756 0.0
H3080 H 0.34305 0.02949 0.39053 0.0
H3081 H 0.34394 0.0529 0.40245 0.0
H3082 H 0.31324 0.04738 0.35249 0.0
H3083 H 0.31235 0.02412 0.3405 0.0
H3084 H 0.33601 0.07699 0.35683 0.0
H3085 H 0.30012 0.03688 0.40073 0.0
H3086 H 0.2914 0.01538 0.42493 0.0
H3087 H 0.32508 0.04464 0.4703 0.0
H3088 H 0.33417 0.06627 0.4462 0.0
H3089 H 0.30988 0.11549 0.44357 0.0
H3090 H 0.30633 0.09415 0.42116 0.0
H3091 H 0.3526 0.12079 0.40102 0.0
H3092 H 0.35593 0.14224 0.42288 0.0
H3093 H 0.3203 0.07995 0.42987 0.0
H3094 H 0.35841 0.1055 0.35664 0.0
H3095 H 0.36568 0.12631 0.33162 0.0
H3096 H 0.32414 0.12509 0.3434 0.0
H3097 H 0.31653 0.10414 0.36827 0.0
C3098 C 0.33656 0.03332 0.38206 0.0
C3099 C 0.32756 0.02492 0.36468 0.0
C3100 C 0.33706 0.04667 0.38888 0.0
C3101 C 0.32858 0.05182 0.37841 0.0
C3102 C 0.31989 0.04364 0.36076 0.0
C3103 C 0.31933 0.03029 0.35402 0.0
C3104 C 0.32822 0.06538 0.3863 0.0
C3105 C 0.3326 0.07769 0.37281 0.0
C3106 C 0.32345 0.06611 0.40696 0.0
C3107 C 0.31792 0.05316 0.42157 0.0
C3108 C 0.30574 0.03871 0.4158 0.0
C3109 C 0.30072 0.0265 0.42951 0.0
C3110 C 0.30771 0.02864 0.44912 0.0
C3111 C 0.3197 0.043 0.45509 0.0
C3112 C 0.32479 0.05524 0.44141 0.0
C3113 C 0.31901 0.11701 0.43346 0.0
C3114 C 0.33311 0.13051 0.43471 0.0
C3115 C 0.31706 0.10476 0.42089 0.0
C3116 C 0.32923 0.10577 0.40953 0.0
C3117 C 0.34297 0.11975 0.40938 0.0
C3118 C 0.34485 0.13206 0.42177 0.0
C3119 C 0.32821 0.09175 0.40048 0.0
C3120 C 0.32365 0.07932 0.41383 0.0
C3121 C 0.33259 0.09085 0.37959 0.0
C3122 C 0.33697 0.10333 0.36446 0.0
C3123 C 0.3508 0.10962 0.35382 0.0
C3124 C 0.35498 0.12145 0.33968 0.0
C3125 C 0.34539 0.12704 0.33597 0.0
C3126 C 0.33158 0.12078 0.34635 0.0
C3127 C 0.32734 0.10895 0.36049 0.0
H3128 H 0.34866 0.13621 0.32503 0.0
H3129 H 0.3038 0.01917 0.45971 0.0
H3130 H 0.97518 0.32096 0.37773 0.0
H3131 H 0.95092 0.30028 0.39025 0.0
H3132 H 0.96389 0.26762 0.37273 0.0
H3133 H 0.9877 0.28815 0.35913 0.0
H3134 H 0.93646 0.2562 0.36232 0.0
H3135 H 0.96409 0.28092 0.42622 0.0
H3136 H 0.97846 0.30251 0.45103 0.0
H3137 H 0.94096 0.3095 0.45544 0.0
H3138 H 0.92644 0.28806 0.43046 0.0
H3139 H 0.88696 0.195 0.42918 0.0
H3140 H 0.907 0.21532 0.40853 0.0
H3141 H 0.88928 0.24448 0.42338 0.0
H3142 H 0.86945 0.22425 0.44445 0.0
H3143 H 0.91783 0.25816 0.43373 0.0
H3144 H 0.88945 0.23121 0.37178 0.0
H3145 H 0.87542 0.20887 0.34805 0.0
H3146 H 0.91477 0.20518 0.34117 0.0
H3147 H 0.92899 0.22738 0.36508 0.0
C3148 C 0.97284 0.30936 0.37664 0.0
C3149 C 0.98336 0.30618 0.36755 0.0
C3150 C 0.95899 0.29753 0.38389 0.0
C3151 C 0.95557 0.28231 0.38279 0.0
C3152 C 0.96616 0.2792 0.37374 0.0
C3153 C 0.97983 0.29097 0.36607 0.0
C3154 C 0.94102 0.2696 0.39093 0.0
C3155 C 0.93248 0.25659 0.37803 0.0
C3156 C 0.93553 0.27014 0.41124 0.0
C3157 C 0.94425 0.283 0.42631 0.0
C3158 C 0.95895 0.28713 0.43238 0.0
C3159 C 0.96712 0.29932 0.44649 0.0
C3160 C 0.96064 0.30739 0.45476 0.0
C3161 C 0.94597 0.30325 0.44899 0.0
C3162 C 0.93777 0.29108 0.43487 0.0
C3163 C 0.887 0.20553 0.42732 0.0
C3164 C 0.87663 0.20804 0.43833 0.0
C3165 C 0.89851 0.21719 0.41557 0.0
C3166 C 0.89971 0.2315 0.41439 0.0
C3167 C 0.88866 0.23359 0.42412 0.0
C3168 C 0.87725 0.222 0.436 0.0
C3169 C 0.91334 0.24473 0.40519 0.0
C3170 C 0.92173 0.25783 0.41793 0.0
C3171 C 0.91876 0.24417 0.38487 0.0
C3172 C 0.91025 0.2309 0.37035 0.0
C3173 C 0.89508 0.22557 0.36532 0.0
C3174 C 0.8871 0.21295 0.35182 0.0
C3175 C 0.89419 0.2056 0.34314 0.0
C3176 C 0.90929 0.21089 0.34791 0.0
C3177 C 0.91732 0.2235 0.36141 0.0
H3178 H 0.88799 0.19582 0.3327 0.0
H3179 H 0.96698 0.31683 0.46568 0.0
H3180 H 0.04639 0.38704 0.33266 0.0
H3181 H 0.0463 0.40924 0.31893 0.0
H3182 H 1.0 0.3802 0.29899 0.0
H3183 H 1.00044 0.35801 0.31141 0.0
H3184 H 0.01273 0.39902 0.2707 0.0
H3185 H 0.01287 0.4054 0.34612 0.0
H3186 H 0.02241 0.4079 0.38245 0.0
H3187 H 0.06415 0.44767 0.36544 0.0
H3188 H 0.05492 0.44531 0.32895 0.0
H3189 H 0.99468 0.45433 0.25109 0.0
H3190 H 0.99558 0.4351 0.27245 0.0
H3191 H 0.04382 0.46408 0.27839 0.0
H3192 H 0.04286 0.48352 0.25746 0.0
H3193 H 0.03091 0.44622 0.31393 0.0
H3194 H 0.02844 0.43983 0.23814 0.0
H3195 H 0.01647 0.43783 0.20381 0.0
H3196 H 0.97678 0.39673 0.22284 0.0
H3197 H 0.98814 0.39893 0.25781 0.0
C3198 C 0.03624 0.38544 0.32523 0.0
C3199 C 0.02343 0.37079 0.32309 0.0
C3200 C 0.03613 0.39816 0.31755 0.0
C3201 C 0.02303 0.39657 0.30826 0.0
C3202 C 0.01028 0.38186 0.30603 0.0
C3203 C 0.01053 0.36913 0.31317 0.0
C3204 C 0.0225 0.41006 0.30057 0.0
C3205 C 0.01653 0.40921 0.28037 0.0
C3206 C 0.02772 0.42362 0.31283 0.0
C3207 C 0.03326 0.42509 0.33477 0.0
C3208 C 0.02412 0.41462 0.35011 0.0
C3209 C 0.02947 0.41602 0.37073 0.0
C3210 C 0.04389 0.42791 0.37623 0.0
C3211 C 0.05299 0.43846 0.36115 0.0
C3212 C 0.0477 0.4371 0.3405 0.0
C3213 C 0.00537 0.45684 0.25774 0.0
C3214 C 0.0187 0.47039 0.25268 0.0
C3215 C 0.00591 0.44582 0.26979 0.0
C3216 C 0.01982 0.44799 0.27657 0.0
C3217 C 0.03297 0.46212 0.27325 0.0
C3218 C 0.03242 0.47326 0.26138 0.0
C3219 C 0.02085 0.43491 0.28444 0.0
C3220 C 0.02705 0.43593 0.30446 0.0
C3221 C 0.01561 0.42138 0.27217 0.0
C3222 C 0.00911 0.41962 0.25071 0.0
C3223 C 0.01713 0.43039 0.23507 0.0
C3224 C 0.01044 0.42924 0.21549 0.0
C3225 C 0.99593 0.41711 0.21106 0.0
C3226 C 0.98803 0.40612 0.22627 0.0
C3227 C 0.99456 0.40736 0.24604 0.0
H3228 H 0.99079 0.41625 0.19586 0.0
H3229 H 0.04802 0.42897 0.3922 0.0
H3230 H 0.65846 0.64341 0.30576 0.0
H3231 H 0.63845 0.61851 0.2927 0.0
H3232 H 0.60502 0.62931 0.31301 0.0
H3233 H 0.62498 0.65379 0.32719 0.0
H3234 H 0.59534 0.6022 0.3227 0.0
H3235 H 0.61571 0.6291 0.25884 0.0
H3236 H 0.63506 0.64431 0.23253 0.0
H3237 H 0.64576 0.60907 0.22556 0.0
H3238 H 0.62658 0.59372 0.25202 0.0
H3239 H 0.53769 0.54994 0.24822 0.0
H3240 H 0.55641 0.57156 0.26979 0.0
H3241 H 0.58436 0.55159 0.27108 0.0
H3242 H 0.56546 0.52976 0.25002 0.0
H3243 H 0.5967 0.58211 0.25154 0.0
H3244 H 0.57312 0.55461 0.31484 0.0
H3245 H 0.55166 0.54008 0.33862 0.0
H3246 H 0.54465 0.57794 0.34334 0.0
H3247 H 0.56595 0.59262 0.31933 0.0
C3248 C 0.64683 0.64049 0.30725 0.0
C3249 C 0.64325 0.65052 0.31741 0.0
C3250 C 0.63538 0.62627 0.29972 0.0
C3251 C 0.62014 0.62202 0.30157 0.0
C3252 C 0.61663 0.63222 0.31144 0.0
C3253 C 0.62806 0.64626 0.31943 0.0
C3254 C 0.60785 0.60686 0.2937 0.0
C3255 C 0.59562 0.59793 0.30703 0.0
C3256 C 0.60817 0.60108 0.27335 0.0
C3257 C 0.61982 0.61034 0.25759 0.0
C3258 C 0.62228 0.62466 0.25183 0.0
C3259 C 0.6332 0.63329 0.23686 0.0
C3260 C 0.64166 0.62768 0.22743 0.0
C3261 C 0.63921 0.61341 0.23291 0.0
C3262 C 0.62831 0.60474 0.24788 0.0
C3263 C 0.5475 0.54986 0.254 0.0
C3264 C 0.5501 0.53816 0.24779 0.0
C3265 C 0.55821 0.56222 0.26616 0.0
C3266 C 0.57176 0.56315 0.27191 0.0
C3267 C 0.57393 0.551 0.26684 0.0
C3268 C 0.56309 0.5385 0.25503 0.0
C3269 C 0.58438 0.57763 0.28052 0.0
C3270 C 0.5966 0.58643 0.26725 0.0
C3271 C 0.58381 0.58346 0.30061 0.0
C3272 C 0.57105 0.57467 0.31513 0.0
C3273 C 0.56692 0.55979 0.32079 0.0
C3274 C 0.5548 0.55154 0.33435 0.0
C3275 C 0.54677 0.55807 0.34245 0.0
C3276 C 0.55087 0.57289 0.33705 0.0
C3277 C 0.56298 0.58119 0.32348 0.0
H3278 H 0.53739 0.55166 0.35294 0.0
H3279 H 0.6501 0.63438 0.21583 0.0
H3280 H 0.35552 0.99432 0.29818 0.0
H3281 H 0.37633 0.99178 0.28452 0.0
H3282 H 0.37692 0.97 0.34173 0.0
H3283 H 0.35576 0.97212 0.35537 0.0
H3284 H 0.40776 0.99996 0.31704 0.0
H3285 H 0.36682 0.94598 0.31656 0.0
H3286 H 0.34047 0.92599 0.30901 0.0
H3287 H 0.34583 0.93948 0.24434 0.0
H3288 H 0.37215 0.9597 0.25163 0.0
H3289 H 0.4613 0.98516 0.2655 0.0
H3290 H 0.4418 0.98245 0.2905 0.0
H3291 H 0.41206 0.97536 0.23833 0.0
H3292 H 0.43094 0.97726 0.21377 0.0
H3293 H 0.39625 0.95735 0.26722 0.0
H3294 H 0.43443 0.01097 0.26515 0.0
H3295 H 0.46005 0.03332 0.26956 0.0
H3296 H 0.45978 0.02335 0.33509 0.0
H3297 H 0.43421 1.00082 0.33099 0.0
C3298 C 0.36007 0.989 0.30789 0.0
C3299 C 0.35397 0.98336 0.32782 0.0
C3300 C 0.37196 0.98758 0.30007 0.0
C3301 C 0.37812 0.98072 0.31215 0.0
C3302 C 0.37228 0.97533 0.33221 0.0
C3303 C 0.36018 0.97649 0.33991 0.0
C3304 C 0.39034 0.97886 0.30323 0.0
C3305 C 0.40535 0.99047 0.30656 0.0
C3306 C 0.38708 0.9667 0.28916 0.0
C3307 C 0.37137 0.95442 0.28469 0.0
C3308 C 0.36232 0.94476 0.30079 0.0
C3309 C 0.34741 0.93338 0.29654 0.0
C3310 C 0.34146 0.93149 0.27622 0.0
C3311 C 0.35044 0.94096 0.26008 0.0
C3312 C 0.36536 0.95237 0.26425 0.0
C3313 C 0.45051 0.98282 0.2595 0.0
C3314 C 0.44779 0.98177 0.23766 0.0
C3315 C 0.43942 0.98139 0.27375 0.0
C3316 C 0.4255 0.97894 0.26632 0.0
C3317 C 0.42266 0.97728 0.24455 0.0
C3318 C 0.43358 0.97856 0.23047 0.0
C3319 C 0.41389 0.9786 0.2807 0.0
C3320 C 0.39887 0.96663 0.27824 0.0
C3321 C 0.41716 0.99062 0.29524 0.0
C3322 C 0.43252 0.00411 0.2977 0.0
C3323 C 0.4399 0.01348 0.28046 0.0
C3324 C 0.45439 0.02619 0.2829 0.0
C3325 C 0.46156 0.02972 0.30257 0.0
C3326 C 0.45423 0.02058 0.31985 0.0
C3327 C 0.43974 0.00784 0.31747 0.0
H3328 H 0.47278 0.03957 0.30444 0.0
H3329 H 0.32991 0.92268 0.27297 0.0
H3330 H 0.63877 1.00053 0.30847 0.0
H3331 H 0.61655 1.00074 0.29613 0.0
H3332 H 0.58776 0.95776 0.32596 0.0
H3333 H 0.61007 0.95749 0.33855 0.0
H3334 H 0.57912 0.95893 0.28438 0.0
H3335 H 0.59121 0.98879 0.3482 0.0
H3336 H 0.60787 0.00922 0.37331 0.0
H3337 H 0.61686 0.04284 0.32685 0.0
H3338 H 0.60043 0.02259 0.30135 0.0
H3339 H 0.5158 0.96222 0.25387 0.0
H3340 H 0.53301 0.96141 0.27955 0.0
H3341 H 0.56838 0.0057 0.25995 0.0
H3342 H 0.55113 0.00671 0.23472 0.0
H3343 H 0.57144 0.00207 0.3011 0.0
H3344 H 0.56382 0.97376 0.23629 0.0
H3345 H 0.54853 0.95449 0.20901 0.0
H3346 H 0.53292 0.91923 0.25488 0.0
H3347 H 0.54793 0.93837 0.28254 0.0
C3348 C 0.62772 0.99109 0.31243 0.0
C3349 C 0.62619 0.97898 0.32451 0.0
C3350 C 0.61502 0.99129 0.30545 0.0
C3351 C 0.6005 0.97937 0.31034 0.0
C3352 C 0.59888 0.96712 0.32212 0.0
C3353 C 0.61163 0.96698 0.32929 0.0
C3354 C 0.58709 0.97965 0.3026 0.0
C3355 C 0.57723 0.96816 0.28844 0.0
C3356 C 0.58486 0.99192 0.30745 0.0
C3357 C 0.59465 0.00415 0.32281 0.0
C3358 C 0.59682 1.00053 0.34328 0.0
C3359 C 0.60621 0.01208 0.3576 0.0
C3360 C 0.61344 0.02732 0.35167 0.0
C3361 C 0.61126 0.03103 0.33142 0.0
C3362 C 0.60189 0.01952 0.31704 0.0
C3363 C 0.52705 0.97203 0.25566 0.0
C3364 C 0.53218 0.98446 0.24215 0.0
C3365 C 0.53694 0.9715 0.27019 0.0
C3366 C 0.55211 0.98333 0.2713 0.0
C3367 C 0.55678 0.99639 0.25929 0.0
C3368 C 0.54692 0.99694 0.24484 0.0
C3369 C 0.56355 0.98141 0.28276 0.0
C3370 C 0.57312 0.99264 0.29746 0.0
C3371 C 0.5657 0.96904 0.27815 0.0
C3372 C 0.55684 0.9575 0.26152 0.0
C3373 C 0.55705 0.96191 0.24058 0.0
C3374 C 0.54844 0.95101 0.22505 0.0
C3375 C 0.53973 0.93565 0.23022 0.0
C3376 C 0.53965 0.93114 0.25092 0.0
C3377 C 0.5482 0.94201 0.26653 0.0
H3378 H 0.53307 0.92722 0.21818 0.0
H3379 H 0.6207 0.03624 0.36277 0.0
H3380 H 0.03032 0.65099 0.32854 0.0
H3381 H 0.02552 0.62652 0.31477 0.0
H3382 H 0.98465 0.61878 0.28494 0.0
H3383 H 0.98969 0.64366 0.29827 0.0
H3384 H 0.00399 0.59905 0.32252 0.0
H3385 H 0.9772 0.59455 0.24068 0.0
H3386 H 0.97777 0.61097 0.21225 0.0
H3387 H 0.0219 0.64629 0.23227 0.0
H3388 H 0.02172 0.62997 0.26054 0.0
H3389 H 0.98078 0.53536 0.23363 0.0
H3390 H 0.97707 0.55356 0.25436 0.0
H3391 H 0.02104 0.57164 0.28261 0.0
H3392 H 0.02491 0.55369 0.26168 0.0
H3393 H 0.99578 0.58375 0.24695 0.0
H3394 H 0.02242 0.58934 0.32944 0.0
H3395 H 0.02341 0.57272 0.35629 0.0
H3396 H 0.98133 0.53526 0.3335 0.0
H3397 H 0.97997 0.55169 0.30672 0.0
C3398 C 0.02037 0.64417 0.31889 0.0
C3399 C 0.0104 0.64927 0.31444 0.0
C3400 C 0.01759 0.63012 0.31111 0.0
C3401 C 0.00473 0.62076 0.2988 0.0
C3402 C 0.99476 0.62586 0.29418 0.0
C3403 C 0.99764 0.64007 0.3018 0.0
C3404 C 1.00185 0.60564 0.29121 0.0
C3405 C 1.00227 0.59575 0.30596 0.0
C3406 C 0.99914 0.60108 0.2697 0.0
C3407 C 0.99931 0.61113 0.25299 0.0
C3408 C 0.98701 0.60584 0.23904 0.0
C3409 C 0.98728 0.61511 0.22292 0.0
C3410 C 0.99982 0.62971 0.22054 0.0
C3411 C 0.01215 0.63502 0.23421 0.0
C3412 C 0.01197 0.62577 0.25031 0.0
C3413 C 0.98943 0.54286 0.24483 0.0
C3414 C 0.00321 0.54323 0.24585 0.0
C3415 C 0.98731 0.55327 0.2566 0.0
C3416 C 0.99882 0.56403 0.26987 0.0
C3417 C 0.01194 0.56335 0.27259 0.0
C3418 C 0.01411 0.553 0.26069 0.0
C3419 C 0.99822 0.57736 0.27818 0.0
C3420 C 0.99718 0.58692 0.26356 0.0
C3421 C 1.00053 0.58169 0.29972 0.0
C3422 C 1.00116 0.57174 0.31596 0.0
C3423 C 0.01333 0.57758 0.33022 0.0
C3424 C 0.01397 0.56819 0.34542 0.0
C3425 C 1.00246 0.55294 0.34656 0.0
C3426 C 0.99027 0.54706 0.33255 0.0
C3427 C 0.98957 0.55641 0.31733 0.0
H3428 H 0.00298 0.54569 0.35833 0.0
H3429 H 1.00001 0.63687 0.20805 0.0
H3430 H 0.36331 0.34984 0.30266 0.0
H3431 H 0.38798 0.36976 0.28972 0.0
H3432 H 0.37699 0.40399 0.3061 0.0
H3433 H 0.35256 0.38425 0.31968 0.0
H3434 H 0.39047 0.40312 0.26083 0.0
H3435 H 0.39731 0.40466 0.33775 0.0
H3436 H 0.3961 0.39232 0.37135 0.0
H3437 H 0.42533 0.37762 0.34639 0.0
H3438 H 0.42651 0.38969 0.31251 0.0
H3439 H 0.45668 0.47098 0.2458 0.0
H3440 H 0.43456 0.4523 0.26528 0.0
H3441 H 0.45401 0.42391 0.27049 0.0
H3442 H 0.47632 0.44279 0.25134 0.0
H3443 H 0.43648 0.42049 0.3044 0.0
H3444 H 0.43189 0.41837 0.23013 0.0
H3445 H 0.43351 0.4281 0.19435 0.0
H3446 H 0.40044 0.44007 0.2103 0.0
H3447 H 0.39883 0.43068 0.24635 0.0
C3448 C 0.36612 0.36161 0.30335 0.0
C3449 C 0.35604 0.36552 0.31219 0.0
C3450 C 0.38021 0.37294 0.29603 0.0
C3451 C 0.38427 0.3883 0.29706 0.0
C3452 C 0.37403 0.39219 0.30523 0.0
C3453 C 0.36011 0.38091 0.31299 0.0
C3454 C 0.39932 0.40039 0.28998 0.0
C3455 C 0.40051 0.40709 0.27044 0.0
C3456 C 0.41246 0.40502 0.30214 0.0
C3457 C 0.41185 0.39791 0.32254 0.0
C3458 C 0.40334 0.39866 0.33936 0.0
C3459 C 0.40269 0.39175 0.35847 0.0
C3460 C 0.41059 0.38415 0.36098 0.0
C3461 C 0.4192 0.38349 0.34441 0.0
C3462 C 0.41987 0.39037 0.32526 0.0
C3463 C 0.45651 0.46108 0.25197 0.0
C3464 C 0.46816 0.4583 0.24714 0.0
C3465 C 0.44382 0.45033 0.26287 0.0
C3466 C 0.44246 0.43652 0.2688 0.0
C3467 C 0.45478 0.43444 0.26594 0.0
C3468 C 0.46757 0.44529 0.25516 0.0
C3469 C 0.42762 0.42366 0.27551 0.0
C3470 C 0.42646 0.41666 0.29481 0.0
C3471 C 0.41454 0.4184 0.26279 0.0
C3472 C 0.41536 0.42397 0.24105 0.0
C3473 C 0.42505 0.42319 0.22608 0.0
C3474 C 0.42595 0.42863 0.20573 0.0
C3475 C 0.4171 0.43473 0.20007 0.0
C3476 C 0.4073 0.43536 0.21473 0.0
C3477 C 0.40639 0.42999 0.23513 0.0
H3478 H 0.41782 0.43894 0.18432 0.0
H3479 H 0.41008 0.37881 0.37578 0.0
H3480 H 0.33811 0.31798 0.38264 0.0
H3481 H 0.33979 0.29713 0.39766 0.0
H3482 H 0.30175 0.26476 0.35983 0.0
H3483 H 0.30015 0.28573 0.34438 0.0
H3484 H 0.32122 0.27426 0.42089 0.0
H3485 H 0.3059 0.23372 0.34857 0.0
H3486 H 0.30727 0.23491 0.30975 0.0
H3487 H 0.3449 0.28077 0.31394 0.0
H3488 H 0.34387 0.27978 0.35275 0.0
H3489 H 0.30683 0.20251 0.45304 0.0
H3490 H 0.30389 0.22059 0.43194 0.0
H3491 H 0.34929 0.23966 0.4092 0.0
H3492 H 0.35251 0.22183 0.43078 0.0
H3493 H 0.3264 0.23632 0.37753 0.0
H3494 H 0.34885 0.26297 0.44482 0.0
H3495 H 0.35104 0.26496 0.4836 0.0
H3496 H 0.30389 0.24951 0.48849 0.0
H3497 H 0.3016 0.24801 0.44963 0.0
C3498 C 0.33005 0.30644 0.37751 0.0
C3499 C 0.31899 0.30353 0.3623 0.0
C3500 C 0.33103 0.2945 0.38614 0.0
C3501 C 0.32099 0.27935 0.37978 0.0
C3502 C 0.30977 0.27636 0.36478 0.0
C3503 C 0.3088 0.28835 0.35607 0.0
C3504 C 0.32226 0.26682 0.38923 0.0
C3505 C 0.32226 0.26596 0.41129 0.0
C3506 C 0.32386 0.25603 0.37687 0.0
C3507 C 0.32468 0.25672 0.35356 0.0
C3508 C 0.31449 0.24404 0.34119 0.0
C3509 C 0.3152 0.24468 0.31919 0.0
C3510 C 0.32613 0.25792 0.30938 0.0
C3511 C 0.3364 0.27054 0.32155 0.0
C3512 C 0.33574 0.26995 0.34355 0.0
C3513 C 0.31615 0.21041 0.44334 0.0
C3514 C 0.32996 0.21081 0.44378 0.0
C3515 C 0.31442 0.22071 0.43126 0.0
C3516 C 0.32641 0.23155 0.41918 0.0
C3517 C 0.33989 0.23135 0.4184 0.0
C3518 C 0.34168 0.22109 0.43065 0.0
C3519 C 0.32521 0.24384 0.40898 0.0
C3520 C 0.32519 0.2446 0.38693 0.0
C3521 C 0.32388 0.25475 0.42123 0.0
C3522 C 0.32504 0.25526 0.44447 0.0
C3523 C 0.33895 0.25994 0.45422 0.0
C3524 C 0.34022 0.26102 0.47618 0.0
C3525 C 0.32757 0.25718 0.48854 0.0
C3526 C 0.31367 0.25243 0.47892 0.0
C3527 C 0.3124 0.25158 0.45692 0.0
H3528 H 0.32857 0.25796 0.50555 0.0
H3529 H 0.32666 0.2584 0.29235 0.0
H3530 H 0.70868 0.01587 0.35343 0.0
H3531 H 0.72934 0.03991 0.36744 0.0
H3532 H 0.69762 0.04781 0.40119 0.0
H3533 H 0.67671 0.02348 0.38731 0.0
H3534 H 0.72076 0.07383 0.37812 0.0
H3535 H 0.71596 0.03734 0.4288 0.0
H3536 H 0.71374 0.0134 0.44041 0.0
H3537 H 0.75681 0.0267 0.41332 0.0
H3538 H 0.75918 0.05064 0.40124 0.0
H3539 H 0.77334 0.13092 0.45026 0.0
H3540 H 0.75275 0.11058 0.4296 0.0
H3541 H 0.78313 0.097 0.40484 0.0
H3542 H 0.80363 0.11696 0.42613 0.0
H3543 H 0.76008 0.07394 0.42287 0.0
H3544 H 0.76552 0.11081 0.37295 0.0
H3545 H 0.76776 0.13462 0.36065 0.0
H3546 H 0.72399 0.12092 0.38547 0.0
H3547 H 0.72157 0.09712 0.3982 0.0
C3548 C 0.70605 0.02265 0.36391 0.0
C3549 C 0.69106 0.01774 0.36937 0.0
C3550 C 0.71788 0.03641 0.37186 0.0
C3551 C 0.715 0.04561 0.38534 0.0
C3552 C 0.70005 0.04085 0.39075 0.0
C3553 C 0.68815 0.02693 0.38296 0.0
C3554 C 0.72775 0.06002 0.39399 0.0
C3555 C 0.72928 0.07392 0.38817 0.0
C3556 C 0.73902 0.06006 0.40658 0.0
C3557 C 0.73768 0.04572 0.41393 0.0
C3558 C 0.7249 0.03511 0.42515 0.0
C3559 C 0.72362 0.02155 0.43185 0.0
C3560 C 0.73511 0.01851 0.42756 0.0
C3561 C 0.74791 0.02906 0.41661 0.0
C3562 C 0.74924 0.04263 0.40985 0.0
C3563 C 0.77572 0.12387 0.43994 0.0
C3564 C 0.79007 0.12544 0.44002 0.0
C3565 C 0.76394 0.11227 0.42804 0.0
C3566 C 0.76634 0.10215 0.41575 0.0
C3567 C 0.78099 0.10461 0.41431 0.0
C3568 C 0.79276 0.11616 0.4263 0.0
C3569 C 0.75332 0.08794 0.40686 0.0
C3570 C 0.75166 0.07398 0.41274 0.0
C3571 C 0.742 0.08791 0.3943 0.0
C3572 C 0.74342 0.10223 0.38671 0.0
C3573 C 0.75642 0.11293 0.37596 0.0
C3574 C 0.75772 0.12641 0.36887 0.0
C3575 C 0.74604 0.1293 0.37232 0.0
C3576 C 0.73303 0.11868 0.38283 0.0
C3577 C 0.73169 0.10518 0.38996 0.0
H3578 H 0.74706 0.13974 0.36682 0.0
H3579 H 0.7341 0.00801 0.43276 0.0
H3580 H 0.98963 0.7073 0.34525 0.0
H3581 H 0.96778 0.70745 0.36011 0.0
H3582 H 0.95835 0.6694 0.39898 0.0
H3583 H 0.98019 0.66929 0.38442 0.0
H3584 H 0.93794 0.68602 0.35952 0.0
H3585 H 0.94434 0.67284 0.44592 0.0
H3586 H 0.96436 0.67724 0.4711 0.0
H3587 H 0.99622 0.71688 0.4373 0.0
H3588 H 0.97632 0.71288 0.41215 0.0
H3589 H 0.87091 0.65734 0.42189 0.0
H3590 H 0.893 0.66285 0.40083 0.0
H3591 H 0.91936 0.70561 0.4346 0.0
H3592 H 0.89736 0.69999 0.45585 0.0
H3593 H 0.93238 0.68948 0.43677 0.0
H3594 H 0.91121 0.70389 0.38118 0.0
H3595 H 0.89142 0.70064 0.35636 0.0
H3596 H 0.88998 0.6613 0.32863 0.0
H3597 H 0.90962 0.66419 0.35347 0.0
C3598 C 0.98295 0.69902 0.35705 0.0
C3599 C 0.9867 0.68833 0.36374 0.0
C3600 C 0.97042 0.69907 0.36544 0.0
C3601 C 0.96149 0.68852 0.38078 0.0
C3602 C 0.96519 0.67779 0.38738 0.0
C3603 C 0.97767 0.67773 0.37901 0.0
C3604 C 0.9483 0.68865 0.38992 0.0
C3605 C 0.93674 0.68685 0.3764 0.0
C3606 C 0.9468 0.68988 0.41193 0.0
C3607 C 0.95885 0.69247 0.42704 0.0
C3608 C 0.95559 0.68253 0.44392 0.0
C3609 C 0.96693 0.68496 0.45819 0.0
C3610 C 0.98156 0.6973 0.45576 0.0
C3611 C 0.98489 0.70729 0.43911 0.0
C3612 C 0.97359 0.70494 0.42483 0.0
C3613 C 0.88127 0.66818 0.42421 0.0
C3614 C 0.88245 0.67826 0.44044 0.0
C3615 C 0.89392 0.6713 0.41224 0.0
C3616 C 0.90788 0.68464 0.41618 0.0
C3617 C 0.90874 0.69522 0.43134 0.0
C3618 C 0.89615 0.69206 0.44337 0.0
C3619 C 0.92191 0.68673 0.4064 0.0
C3620 C 0.93361 0.68882 0.41985 0.0
C3621 C 0.92356 0.6859 0.38435 0.0
C3622 C 0.91182 0.6842 0.3693 0.0
C3623 C 0.9066 0.69448 0.36988 0.0
C3624 C 0.89542 0.69271 0.35579 0.0
C3625 C 0.88943 0.68075 0.34095 0.0
C3626 C 0.89463 0.67056 0.34014 0.0
C3627 C 0.9058 0.67227 0.3542 0.0
H3628 H 0.88077 0.6794 0.33007 0.0
H3629 H 0.99033 0.69915 0.46681 0.0
H3630 H 0.38905 0.0421 0.68274 0.0
H3631 H 0.41049 0.04106 0.69708 0.0
H3632 H 0.38018 0.00308 0.73541 0.0
H3633 H 0.3588 0.00416 0.72139 0.0
H3634 H 0.40435 0.02264 0.75767 0.0
H3635 H 0.39477 0.99791 0.68976 0.0
H3636 H 0.39134 0.99554 0.65116 0.0
H3637 H 0.43634 0.03336 0.64321 0.0
H3638 H 0.43996 0.03609 0.68182 0.0
H3639 H 0.44517 0.98776 0.78218 0.0
H3640 H 0.42747 0.99189 0.762 0.0
H3641 H 0.46401 0.03571 0.74299 0.0
H3642 H 0.48178 0.03168 0.76369 0.0
H3643 H 0.43888 0.0158 0.71037 0.0
H3644 H 0.44829 0.03855 0.78011 0.0
H3645 H 0.45084 0.03861 0.81874 0.0
H3646 H 0.40476 0.00233 0.82324 0.0
H3647 H 0.40204 0.00176 0.78455 0.0
C3648 C 0.38697 0.03359 0.69432 0.0
C3649 C 0.37221 0.02319 0.70089 0.0
C3650 C 0.39923 0.03296 0.70242 0.0
C3651 C 0.39695 0.02188 0.71717 0.0
C3652 C 0.38224 0.01172 0.72406 0.0
C3653 C 0.37001 0.01234 0.71598 0.0
C3654 C 0.40977 0.02069 0.72538 0.0
C3655 C 0.41183 0.02108 0.7473 0.0
C3656 C 0.41973 0.0189 0.71187 0.0
C3657 C 0.41757 0.01733 0.68868 0.0
C3658 C 0.40388 0.00582 0.67979 0.0
C3659 C 0.40191 0.00439 0.65791 0.0
C3660 C 0.4136 0.01433 0.64474 0.0
C3661 C 0.42729 0.02569 0.65344 0.0
C3662 C 0.42931 0.02719 0.67531 0.0
C3663 C 0.44948 0.99802 0.77304 0.0
C3664 C 0.4648 0.00933 0.77415 0.0
C3665 C 0.43937 1.00041 0.76167 0.0
C3666 C 0.44444 0.01413 0.75116 0.0
C3667 C 0.45993 0.02502 0.75095 0.0
C3668 C 0.47006 0.0227 0.76263 0.0
C3669 C 0.43327 0.01762 0.74253 0.0
C3670 C 0.43151 0.01761 0.72064 0.0
C3671 C 0.42345 0.01959 0.75605 0.0
C3672 C 0.42502 0.02 0.77937 0.0
C3673 C 0.43875 0.03045 0.78929 0.0
C3674 C 0.44022 0.0306 0.81121 0.0
C3675 C 0.42798 0.02046 0.82342 0.0
C3676 C 0.41424 0.01016 0.81375 0.0
C3677 C 0.41273 0.00991 0.79182 0.0
H3678 H 0.42912 0.02062 0.84038 0.0
H3679 H 0.41205 0.01319 0.62781 0.0
H3680 H 0.01305 0.36087 0.71883 0.0
H3681 H 0.01637 0.38448 0.73451 0.0
H3682 H 0.98073 0.38067 0.69485 0.0
H3683 H 0.97749 0.35724 0.67896 0.0
H3684 H 0.00403 0.40938 0.69579 0.0
H3685 H 0.97444 0.37156 0.74621 0.0
H3686 H 0.96771 0.35035 0.77025 0.0
H3687 H 0.0081 0.37842 0.80629 0.0
H3688 H 0.0152 0.39973 0.78224 0.0
H3689 H 0.99064 0.46102 0.7607 0.0
H3690 H 0.98888 0.44005 0.7387 0.0
H3691 H 0.02729 0.44401 0.77143 0.0
H3692 H 0.02908 0.46485 0.79313 0.0
H3693 H 1.0016 0.41513 0.77324 0.0
H3694 H 0.03087 0.4531 0.72182 0.0
H3695 H 0.03655 0.47411 0.6979 0.0
H3696 H 0.99521 0.44542 0.66412 0.0
H3697 H 0.98918 0.42429 0.68805 0.0
C3698 C 0.00591 0.36505 0.71351 0.0
C3699 C 0.99498 0.35717 0.69774 0.0
C3700 C 0.00779 0.37852 0.72249 0.0
C3701 C 0.99872 0.38428 0.71595 0.0
C3702 C 0.98787 0.37646 0.70011 0.0
C3703 C 0.98599 0.36302 0.69113 0.0
C3704 C 1.00044 0.39839 0.72572 0.0
C3705 C 0.00332 0.41058 0.71271 0.0
C3706 C 0.99964 0.40001 0.7478 0.0
C3707 C 0.99543 0.38719 0.76227 0.0
C3708 C 0.98196 0.37317 0.75914 0.0
C3709 C 0.97806 0.36113 0.77279 0.0
C3710 C 0.98749 0.36302 0.78976 0.0
C3711 C 1.00082 0.37696 0.79312 0.0
C3712 C 0.00478 0.38903 0.77949 0.0
C3713 C 0.99897 0.45771 0.76259 0.0
C3714 C 0.00997 0.46445 0.77853 0.0
C3715 C 0.99793 0.44572 0.75016 0.0
C3716 C 0.00788 0.44041 0.75362 0.0
C3717 C 0.01945 0.44787 0.76861 0.0
C3718 C 0.02052 0.4598 0.78089 0.0
C3719 C 0.00544 0.42618 0.74336 0.0
C3720 C 1.00232 0.41393 0.75632 0.0
C3721 C 0.00588 0.42449 0.72127 0.0
C3722 C 0.00949 0.43717 0.70688 0.0
C3723 C 0.02291 0.45132 0.70943 0.0
C3724 C 0.02621 0.46324 0.69584 0.0
C3725 C 0.01622 0.46112 0.67954 0.0
C3726 C 0.00293 0.44705 0.67677 0.0
C3727 C 0.99957 0.4351 0.69033 0.0
H3728 H 0.0188 0.47036 0.66903 0.0
H3729 H 0.98444 0.3537 0.80032 0.0
H3730 H 0.64546 0.65508 0.70944 0.0
H3731 H 0.6219 0.6347 0.72412 0.0
H3732 H 0.63016 0.60113 0.69524 0.0
H3733 H 0.65327 0.62147 0.67965 0.0
H3734 H 0.60221 0.59176 0.69076 0.0
H3735 H 0.636 0.61158 0.75018 0.0
H3736 H 0.65388 0.63128 0.77521 0.0
H3737 H 0.62005 0.64159 0.79376 0.0
H3738 H 0.60201 0.62208 0.76864 0.0
H3739 H 0.55569 0.52979 0.75956 0.0
H3740 H 0.57497 0.54978 0.73759 0.0
H3741 H 0.56107 0.58087 0.75939 0.0
H3742 H 0.5417 0.56089 0.78121 0.0
H3743 H 0.59089 0.59174 0.76678 0.0
H3744 H 0.55653 0.56967 0.7083 0.0
H3745 H 0.53908 0.54893 0.68415 0.0
H3746 H 0.57473 0.5415 0.665 0.0
H3747 H 0.59235 0.56207 0.68926 0.0
C3748 C 0.64226 0.64334 0.70631 0.0
C3749 C 0.65123 0.63986 0.6935 0.0
C3750 C 0.62881 0.63168 0.71477 0.0
C3751 C 0.6243 0.6163 0.71111 0.0
C3752 C 0.63332 0.61286 0.69831 0.0
C3753 C 0.64659 0.6245 0.68949 0.0
C3754 C 0.61021 0.60379 0.72054 0.0
C3755 C 0.59984 0.59169 0.70745 0.0
C3756 C 0.60688 0.60376 0.74224 0.0
C3757 C 0.61771 0.61548 0.75737 0.0
C3758 C 0.63241 0.61813 0.75949 0.0
C3759 C 0.64257 0.62924 0.77371 0.0
C3760 C 0.63812 0.63771 0.78602 0.0
C3761 C 0.62348 0.63504 0.78419 0.0
C3762 C 0.61329 0.62395 0.76998 0.0
C3763 C 0.55635 0.54069 0.75903 0.0
C3764 C 0.54725 0.5438 0.77222 0.0
C3765 C 0.56744 0.55215 0.74655 0.0
C3766 C 0.56954 0.56687 0.74698 0.0
C3767 C 0.55972 0.56964 0.75893 0.0
C3768 C 0.54863 0.5582 0.77133 0.0
C3769 C 0.58298 0.57974 0.73702 0.0
C3770 C 0.59324 0.59188 0.75007 0.0
C3771 C 0.58629 0.57966 0.7154 0.0
C3772 C 0.57573 0.56733 0.70074 0.0
C3773 C 0.56062 0.56353 0.69907 0.0
C3774 C 0.55071 0.55182 0.68533 0.0
C3775 C 0.55579 0.54388 0.67308 0.0
C3776 C 0.57081 0.54766 0.67451 0.0
C3777 C 0.58077 0.55935 0.68823 0.0
H3778 H 0.54809 0.53481 0.66246 0.0
H3779 H 0.646 0.64631 0.79702 0.0
H3780 H 0.71157 0.7215 0.66203 0.0
H3781 H 0.71082 0.744 0.65106 0.0
H3782 H 0.66534 0.71483 0.62806 0.0
H3783 H 0.66632 0.6925 0.63803 0.0
H3784 H 0.67917 0.73519 0.60119 0.0
H3785 H 0.6753 0.73681 0.67672 0.0
H3786 H 0.68323 0.73766 0.71358 0.0
H3787 H 0.72438 0.77979 0.7024 0.0
H3788 H 0.71677 0.77909 0.66537 0.0
H3789 H 0.65583 0.78642 0.58635 0.0
H3790 H 0.65814 0.76797 0.60756 0.0
H3791 H 0.70603 0.79918 0.61334 0.0
H3792 H 0.70372 0.81776 0.59225 0.0
H3793 H 0.69252 0.77922 0.6492 0.0
H3794 H 0.69425 0.77732 0.57307 0.0
H3795 H 0.68381 0.77666 0.53798 0.0
H3796 H 0.64444 0.73357 0.55139 0.0
H3797 H 0.65425 0.73434 0.58707 0.0
C3798 C 0.70145 0.71993 0.65456 0.0
C3799 C 0.68903 0.70522 0.65085 0.0
C3800 C 0.70098 0.73281 0.64844 0.0
C3801 C 0.68793 0.73121 0.63894 0.0
C3802 C 0.67556 0.71647 0.63526 0.0
C3803 C 0.67614 0.70366 0.64101 0.0
C3804 C 0.68706 0.7447 0.63236 0.0
C3805 C 0.68194 0.74469 0.61186 0.0
C3806 C 0.69095 0.75737 0.64599 0.0
C3807 C 0.69554 0.75781 0.66823 0.0
C3808 C 0.68609 0.7462 0.68208 0.0
C3809 C 0.69052 0.74666 0.70301 0.0
C3810 C 0.70432 0.75875 0.71031 0.0
C3811 C 0.7137 0.77042 0.69671 0.0
C3812 C 0.70934 0.77 0.67576 0.0
C3813 C 0.66673 0.78962 0.59301 0.0
C3814 C 0.67961 0.80347 0.5876 0.0
C3815 C 0.66805 0.77904 0.60502 0.0
C3816 C 0.68231 0.78207 0.61161 0.0
C3817 C 0.69494 0.7966 0.60836 0.0
C3818 C 0.6936 0.80725 0.59639 0.0
C3819 C 0.6843 0.76937 0.61839 0.0
C3820 C 0.68975 0.76964 0.63869 0.0
C3821 C 0.6805 0.75679 0.6047 0.0
C3822 C 0.67494 0.75596 0.58286 0.0
C3823 C 0.68332 0.76774 0.56862 0.0
C3824 C 0.67752 0.76734 0.5486 0.0
C3825 C 0.66353 0.75504 0.54238 0.0
C3826 C 0.65528 0.7431 0.55622 0.0
C3827 C 0.66093 0.74354 0.57639 0.0
H3828 H 0.65907 0.75477 0.52687 0.0
H3829 H 0.70773 0.75909 0.72652 0.0
H3830 H 0.32551 0.98096 0.63206 0.0
H3831 H 0.30588 0.95611 0.61801 0.0
H3832 H 0.272 0.96126 0.65064 0.0
H3833 H 0.29151 0.98581 0.66503 0.0
H3834 H 0.2671 0.93412 0.65696 0.0
H3835 H 0.27678 0.96497 0.59662 0.0
H3836 H 0.29114 0.98266 0.56816 0.0
H3837 H 0.30428 0.95159 0.54455 0.0
H3838 H 0.29017 0.93379 0.57307 0.0
H3839 H 0.203 0.88247 0.59019 0.0
H3840 H 0.22299 0.90377 0.61089 0.0
H3841 H 0.25348 0.88804 0.59554 0.0
H3842 H 0.23337 0.8665 0.57544 0.0
H3843 H 0.26068 0.91923 0.58121 0.0
H3844 H 0.24838 0.8876 0.64202 0.0
H3845 H 0.23137 0.86998 0.66887 0.0
H3846 H 0.22061 0.9034 0.69 0.0
H3847 H 0.2374 0.92115 0.66304 0.0
C3848 C 0.31386 0.97684 0.63604 0.0
C3849 C 0.31005 0.98531 0.64967 0.0
C3850 C 0.30264 0.96265 0.62798 0.0
C3851 C 0.28743 0.95681 0.63323 0.0
C3852 C 0.28364 0.96546 0.64647 0.0
C3853 C 0.29482 0.97954 0.65462 0.0
C3854 C 0.27545 0.9415 0.62554 0.0
C3855 C 0.26565 0.93095 0.64035 0.0
C3856 C 0.27364 0.93721 0.60392 0.0
C3857 C 0.28259 0.94813 0.58718 0.0
C3858 C 0.2829 0.96199 0.58554 0.0
C3859 C 0.29095 0.97202 0.56934 0.0
C3860 C 0.29866 0.96827 0.55459 0.0
C3861 C 0.29834 0.95449 0.55602 0.0
C3862 C 0.29032 0.94443 0.5722 0.0
C3863 C 0.21374 0.88316 0.59222 0.0
C3864 C 0.21665 0.87277 0.58166 0.0
C3865 C 0.22516 0.89536 0.60384 0.0
C3866 C 0.23968 0.89744 0.60462 0.0
C3867 C 0.24231 0.88653 0.59518 0.0
C3868 C 0.23081 0.87418 0.58393 0.0
C3869 C 0.25247 0.91203 0.6126 0.0
C3870 C 0.26233 0.92244 0.59781 0.0
C3871 C 0.25412 0.91629 0.63413 0.0
C3872 C 0.24403 0.90565 0.65035 0.0
C3873 C 0.24227 0.89114 0.65224 0.0
C3874 C 0.23269 0.88114 0.66751 0.0
C3875 C 0.22488 0.88555 0.68109 0.0
C3876 C 0.22666 0.89999 0.67945 0.0
C3877 C 0.23621 0.91003 0.66419 0.0
H3878 H 0.21748 0.87779 0.69291 0.0
H3879 H 0.30484 0.97602 0.54202 0.0
H3880 H 0.02791 0.34043 0.63004 0.0
H3881 H 0.05083 0.342 0.61672 0.0
H3882 H 0.04056 0.30176 0.65102 0.0
H3883 H 0.01771 0.30034 0.66485 0.0
H3884 H 0.06931 0.32222 0.65564 0.0
H3885 H 0.0359 0.30095 0.59719 0.0
H3886 H 0.01777 0.29823 0.56983 0.0
H3887 H 0.0509 0.34093 0.54363 0.0
H3888 H 0.06916 0.34405 0.57106 0.0
H3889 H 0.11816 0.30745 0.58735 0.0
H3890 H 0.0978 0.30633 0.60859 0.0
H3891 H 0.1126 0.35276 0.59305 0.0
H3892 H 0.13338 0.35424 0.57256 0.0
H3893 H 0.08162 0.3282 0.5795 0.0
H3894 H 0.11486 0.34855 0.63971 0.0
H3895 H 0.13262 0.34918 0.66612 0.0
H3896 H 0.09883 0.30499 0.68742 0.0
H3897 H 0.08093 0.30399 0.6609 0.0
C3898 C 0.03045 0.33184 0.63465 0.0
C3899 C 0.02095 0.32022 0.64844 0.0
C3900 C 0.04356 0.33273 0.62696 0.0
C3901 C 0.04737 0.3219 0.63265 0.0
C3902 C 0.03787 0.31025 0.64639 0.0
C3903 C 0.02477 0.3094 0.6542 0.0
C3904 C 0.06141 0.32298 0.62451 0.0
C3905 C 0.07187 0.32329 0.63894 0.0
C3906 C 0.06489 0.32453 0.60274 0.0
C3907 C 0.05385 0.32283 0.58638 0.0
C3908 C 0.03927 0.30985 0.58575 0.0
C3909 C 0.02898 0.30822 0.5702 0.0
C3910 C 0.03316 0.31943 0.55505 0.0
C3911 C 0.04766 0.33228 0.55541 0.0
C3912 C 0.05799 0.33398 0.57096 0.0
C3913 C 0.11755 0.31767 0.58925 0.0
C3914 C 0.12732 0.3309 0.57806 0.0
C3915 C 0.10581 0.31695 0.60125 0.0
C3916 C 0.10364 0.32941 0.60215 0.0
C3917 C 0.11408 0.34301 0.59245 0.0
C3918 C 0.12594 0.34383 0.58076 0.0
C3919 C 0.08946 0.32761 0.61061 0.0
C3920 C 0.07897 0.32709 0.59617 0.0
C3921 C 0.08586 0.32556 0.63224 0.0
C3922 C 0.09661 0.32612 0.64814 0.0
C3923 C 0.11127 0.33889 0.64986 0.0
C3924 C 0.12135 0.33933 0.66489 0.0
C3925 C 0.11687 0.32711 0.67839 0.0
C3926 C 0.10229 0.31444 0.67693 0.0
C3927 C 0.09217 0.31393 0.66191 0.0
H3928 H 0.12469 0.32748 0.69003 0.0
H3929 H 0.02518 0.31813 0.543 0.0
H3930 H 0.2835 0.29569 0.67603 0.0
H3931 H 0.26079 0.29569 0.66463 0.0
H3932 H 0.28824 0.33528 0.62717 0.0
H3933 H 0.31079 0.33534 0.63833 0.0
H3934 H 0.26742 0.33819 0.65099 0.0
H3935 H 0.26883 0.30066 0.60429 0.0
H3936 H 0.269 0.27703 0.5966 0.0
H3937 H 0.22677 0.25101 0.62851 0.0
H3938 H 0.22646 0.27454 0.63663 0.0
H3939 H 0.22485 0.34373 0.56999 0.0
H3940 H 0.24174 0.34194 0.59481 0.0
H3941 H 0.20485 0.29943 0.6172 0.0
H3942 H 0.18798 0.30085 0.59149 0.0
H3943 H 0.22723 0.29583 0.60822 0.0
H3944 H 0.2235 0.33284 0.64943 0.0
H3945 H 0.22319 0.35638 0.65719 0.0
H3946 H 0.26913 0.38329 0.63699 0.0
H3947 H 0.26967 0.35992 0.62881 0.0
C3948 C 0.28465 0.30434 0.66529 0.0
C3949 C 0.29895 0.31548 0.65804 0.0
C3950 C 0.27168 0.30434 0.65881 0.0
C3951 C 0.27283 0.31552 0.64508 0.0
C3952 C 0.28709 0.32661 0.63787 0.0
C3953 C 0.29997 0.32655 0.64418 0.0
C3954 C 0.2593 0.31576 0.63779 0.0
C3955 C 0.25862 0.32896 0.6416 0.0
C3956 C 0.24754 0.30349 0.62623 0.0
C3957 C 0.24772 0.28937 0.6213 0.0
C3958 C 0.25965 0.28991 0.60982 0.0
C3959 C 0.25976 0.27654 0.60536 0.0
C3960 C 0.24793 0.26253 0.61213 0.0
C3961 C 0.23594 0.26187 0.62332 0.0
C3962 C 0.23579 0.27522 0.62785 0.0
C3963 C 0.22026 0.33414 0.58049 0.0
C3964 C 0.2051 0.32237 0.57864 0.0
C3965 C 0.22992 0.33318 0.59485 0.0
C3966 C 0.22461 0.32058 0.60806 0.0
C3967 C 0.20924 0.30927 0.6072 0.0
C3968 C 0.19955 0.31017 0.59266 0.0
C3969 C 0.23551 0.31852 0.62083 0.0
C3970 C 0.23576 0.30497 0.61804 0.0
C3971 C 0.24683 0.33046 0.63346 0.0
C3972 C 0.24659 0.34459 0.63842 0.0
C3973 C 0.23351 0.34377 0.64651 0.0
C3974 C 0.2333 0.35709 0.65101 0.0
C3975 C 0.24612 0.37132 0.64757 0.0
C3976 C 0.2592 0.37226 0.63966 0.0
C3977 C 0.25948 0.35897 0.63513 0.0
H3978 H 0.24593 0.38162 0.65105 0.0
H3979 H 0.24803 0.25218 0.60865 0.0
H3980 H 0.69099 0.98226 0.69066 0.0
H3981 H 0.68863 0.95855 0.67735 0.0
H3982 H 0.6687 0.9623 0.61981 0.0
H3983 H 0.67046 0.98567 0.63346 0.0
H3984 H 0.65411 0.93432 0.63106 0.0
H3985 H 0.70675 0.97184 0.62429 0.0
H3986 H 0.73194 0.99197 0.63656 0.0
H3987 H 0.73351 0.96088 0.67963 0.0
H3988 H 0.70822 0.94062 0.66779 0.0
H3989 H 0.67819 0.90157 0.55339 0.0
H3990 H 0.67816 0.91991 0.57813 0.0
H3991 H 0.67273 0.89078 0.62983 0.0
H3992 H 0.67193 0.87165 0.60476 0.0
H3993 H 0.69865 0.92812 0.62774 0.0
H3994 H 0.64546 0.88944 0.62877 0.0
H3995 H 0.62148 0.87056 0.61169 0.0
H3996 H 0.6225 0.90567 0.57432 0.0
H3997 H 0.64662 0.92472 0.59095 0.0
C3998 C 0.68612 0.97802 0.67516 0.0
C3999 C 0.68097 0.98584 0.66304 0.0
C4000 C 0.68482 0.96448 0.66754 0.0
C4001 C 0.67866 0.95868 0.64744 0.0
C4002 C 0.67345 0.96649 0.63538 0.0
C4003 C 0.67453 0.97989 0.64314 0.0
C4004 C 0.6777 0.94458 0.63881 0.0
C4005 C 0.66387 0.933 0.63043 0.0
C4006 C 0.69033 0.94263 0.63824 0.0
C4007 C 0.70552 0.95478 0.64536 0.0
C4008 C 0.71242 0.96934 0.6365 0.0
C4009 C 0.72672 0.98076 0.64336 0.0
C4010 C 0.7343 0.97772 0.65892 0.0
C4011 C 0.72761 0.96323 0.66761 0.0
C4012 C 0.7133 0.95177 0.66084 0.0
C4013 C 0.67664 0.89878 0.56995 0.0
C4014 C 0.6746 0.88486 0.577 0.0
C4015 C 0.67681 0.90941 0.58408 0.0
C4016 C 0.67528 0.9066 0.60569 0.0
C4017 C 0.67383 0.89305 0.61311 0.0
C4018 C 0.67342 0.88219 0.59881 0.0
C4019 C 0.67516 0.9181 0.61999 0.0
C4020 C 0.68882 0.92928 0.62913 0.0
C4021 C 0.66249 0.91987 0.62087 0.0
C4022 C 0.6479 0.90848 0.611 0.0
C4023 C 0.64064 0.89311 0.61678 0.0
C4024 C 0.627 0.88238 0.6072 0.0
C4025 C 0.62048 0.88691 0.5919 0.0
C4026 C 0.62757 0.90218 0.58617 0.0
C4027 C 0.64121 0.91295 0.59569 0.0
H4028 H 0.60993 0.87859 0.5845 0.0
H4029 H 0.74538 0.98658 0.6642 0.0
H4030 H 0.03015 0.6846 0.64036 0.0
H4031 H 0.05444 0.70495 0.62701 0.0
H4032 H 0.04387 0.7386 0.64852 0.0
H4033 H 0.01982 0.71842 0.66235 0.0
H4034 H 0.05522 0.74163 0.605 0.0
H4035 H 0.06668 0.73571 0.67681 0.0
H4036 H 0.06738 0.72107 0.70679 0.0
H4037 H 0.09446 0.70811 0.67084 0.0
H4038 H 0.09371 0.72249 0.64051 0.0
H4039 H 0.12349 0.80734 0.58605 0.0
H4040 H 0.10237 0.78903 0.60755 0.0
H4041 H 0.11728 0.75682 0.59971 0.0
H4042 H 0.13875 0.77541 0.57896 0.0
H4043 H 0.10373 0.75279 0.63688 0.0
H4044 H 0.09291 0.75793 0.56551 0.0
H4045 H 0.09282 0.77211 0.53455 0.0
H4046 H 0.06405 0.78452 0.56696 0.0
H4047 H 0.06442 0.7709 0.59845 0.0
C4048 C 0.03299 0.69633 0.64215 0.0
C4049 C 0.0231 0.69993 0.65241 0.0
C4050 C 0.04687 0.70793 0.63461 0.0
C4051 C 0.05095 0.72326 0.63689 0.0
C4052 C 0.04093 0.72684 0.64665 0.0
C4053 C 0.02721 0.71529 0.65456 0.0
C4054 C 0.06569 0.73562 0.62916 0.0
C4055 C 0.06583 0.74423 0.61213 0.0
C4056 C 0.0795 0.73865 0.63809 0.0
C4057 C 0.07999 0.73003 0.65631 0.0
C4058 C 0.07265 0.72961 0.67522 0.0
C4059 C 0.07309 0.72138 0.69229 0.0
C4060 C 0.08092 0.71362 0.6907 0.0
C4061 C 0.08837 0.7141 0.67204 0.0
C4062 C 0.08795 0.7223 0.65491 0.0
C4063 C 0.1226 0.79661 0.58979 0.0
C4064 C 0.13274 0.79277 0.58109 0.0
C4065 C 0.11046 0.78609 0.60184 0.0
C4066 C 0.108 0.77138 0.60476 0.0
C4067 C 0.1189 0.76805 0.59761 0.0
C4068 C 0.1312 0.77869 0.58586 0.0
C4069 C 0.09331 0.75902 0.61285 0.0
C4070 C 0.09314 0.7503 0.6298 0.0
C4071 C 0.07944 0.75568 0.60358 0.0
C4072 C 0.07883 0.76352 0.58443 0.0
C4073 C 0.08664 0.76376 0.56609 0.0
C4074 C 0.08655 0.7717 0.54844 0.0
C4075 C 0.07842 0.77918 0.54876 0.0
C4076 C 0.07036 0.77873 0.56674 0.0
C4077 C 0.07054 0.77094 0.58452 0.0
H4078 H 0.07836 0.78531 0.53507 0.0
H4079 H 0.08125 0.70727 0.70393 0.0
H4080 H 0.96734 0.61959 0.67682 0.0
H4081 H 0.96741 0.59753 0.69125 0.0
H4082 H 1.00024 0.62669 0.73802 0.0
H4083 H 1.00024 0.64874 0.72373 0.0
H4084 H 0.99064 0.59156 0.69543 0.0
H4085 H 0.99227 0.60658 0.78397 0.0
H4086 H 0.98404 0.6203 0.80763 0.0
H4087 H 0.94856 0.61153 0.76426 0.0
H4088 H 0.95642 0.59756 0.74049 0.0
H4089 H 0.0136 0.55197 0.76544 0.0
H4090 H 0.01046 0.56994 0.74417 0.0
H4091 H 0.96349 0.54734 0.76101 0.0
H4092 H 0.9665 0.52924 0.78199 0.0
H4093 H 0.97825 0.57775 0.77043 0.0
H4094 H 0.97311 0.54561 0.71116 0.0
H4095 H 0.98065 0.53132 0.68749 0.0
H4096 H 0.02125 0.57283 0.67198 0.0
H4097 H 0.01404 0.58734 0.6958 0.0
C4098 C 0.97451 0.62129 0.69024 0.0
C4099 C 0.98373 0.63592 0.69918 0.0
C4100 C 0.97461 0.60868 0.69839 0.0
C4101 C 0.98377 0.61043 0.71577 0.0
C4102 C 0.99297 0.62503 0.72472 0.0
C4103 C 0.99296 0.63763 0.71651 0.0
C4104 C 0.98369 0.59703 0.7247 0.0
C4105 C 0.9879 0.58852 0.71182 0.0
C4106 C 0.98002 0.59296 0.74605 0.0
C4107 C 0.97505 0.60117 0.76034 0.0
C4108 C 0.98268 0.60754 0.77951 0.0
C4109 C 0.97808 0.61536 0.79295 0.0
C4110 C 0.96582 0.61684 0.78742 0.0
C4111 C 0.95809 0.61043 0.76848 0.0
C4112 C 0.96263 0.60258 0.75501 0.0
C4113 C 1.00248 0.55047 0.76396 0.0
C4114 C 0.9903 0.53919 0.77545 0.0
C4115 C 1.00072 0.56083 0.75191 0.0
C4116 C 0.98676 0.56006 0.75113 0.0
C4117 C 0.97439 0.54822 0.76151 0.0
C4118 C 0.97611 0.53784 0.77342 0.0
C4119 C 0.98533 0.57235 0.74124 0.0
C4120 C 0.98092 0.58073 0.75401 0.0
C4121 C 0.98877 0.57623 0.71981 0.0
C4122 C 0.99309 0.56754 0.70541 0.0
C4123 C 0.9837 0.55167 0.70284 0.0
C4124 C 0.9879 0.54354 0.68937 0.0
C4125 C 1.00144 0.55116 0.67827 0.0
C4126 C 0.01077 0.56694 0.68059 0.0
C4127 C 0.00663 0.57513 0.69406 0.0
H4128 H 0.00467 0.54484 0.66785 0.0
H4129 H 0.96229 0.62291 0.79782 0.0
H4130 H 0.35944 0.35369 0.7306 0.0
H4131 H 0.38013 0.37871 0.74221 0.0
H4132 H 0.39074 0.39191 0.67719 0.0
H4133 H 0.371 0.36644 0.6658 0.0
H4134 H 0.41478 0.4022 0.69417 0.0
H4135 H 0.37296 0.40609 0.71418 0.0
H4136 H 0.3485 0.39904 0.73018 0.0
H4137 H 0.36644 0.40043 0.79166 0.0
H4138 H 0.39096 0.40727 0.77601 0.0
H4139 H 0.45052 0.47435 0.77316 0.0
H4140 H 0.43013 0.45667 0.7493 0.0
H4141 H 0.45181 0.43028 0.74186 0.0
H4142 H 0.47254 0.44854 0.76422 0.0
H4143 H 0.41061 0.4304 0.7556 0.0
H4144 H 0.44086 0.40687 0.70171 0.0
H4145 H 0.4643 0.41709 0.68123 0.0
H4146 H 0.46766 0.46066 0.67899 0.0
H4147 H 0.44413 0.45067 0.69919 0.0
C4148 C 0.36621 0.36202 0.7189 0.0
C4149 C 0.36372 0.35824 0.69738 0.0
C4150 C 0.37795 0.37639 0.72549 0.0
C4151 C 0.38695 0.38747 0.71063 0.0
C4152 C 0.38412 0.38367 0.68905 0.0
C4153 C 0.37279 0.36913 0.68252 0.0
C4154 C 0.39978 0.40268 0.71751 0.0
C4155 C 0.41378 0.40841 0.70748 0.0
C4156 C 0.39852 0.41126 0.73433 0.0
C4157 C 0.38378 0.40709 0.74388 0.0
C4158 C 0.37166 0.40479 0.73109 0.0
C4159 C 0.35779 0.40084 0.74011 0.0
C4160 C 0.35591 0.39926 0.76192 0.0
C4161 C 0.36791 0.40165 0.77477 0.0
C4162 C 0.38181 0.40558 0.76583 0.0
C4163 C 0.45117 0.46514 0.76555 0.0
C4164 C 0.46317 0.4629 0.7701 0.0
C4165 C 0.43945 0.45492 0.75214 0.0
C4166 C 0.43935 0.44208 0.74355 0.0
C4167 C 0.45171 0.44027 0.74758 0.0
C4168 C 0.4636 0.45071 0.76044 0.0
C4169 C 0.42567 0.42964 0.73264 0.0
C4170 C 0.41152 0.42438 0.74197 0.0
C4171 C 0.42662 0.42197 0.71442 0.0
C4172 C 0.44075 0.42802 0.7021 0.0
C4173 C 0.44654 0.41861 0.69675 0.0
C4174 C 0.45987 0.42437 0.68521 0.0
C4175 C 0.46748 0.43952 0.67885 0.0
C4176 C 0.46178 0.44894 0.68398 0.0
C4177 C 0.44846 0.44324 0.6955 0.0
H4178 H 0.4778 0.44396 0.66993 0.0
H4179 H 0.34516 0.39621 0.76887 0.0
H4180 H 0.65669 0.04402 0.68186 0.0
H4181 H 0.63533 0.04574 0.69548 0.0
H4182 H 0.62321 0.00758 0.73564 0.0
H4183 H 0.64447 0.0059 0.72238 0.0
H4184 H 0.6048 0.02577 0.69559 0.0
H4185 H 0.6113 0.01353 0.78277 0.0
H4186 H 0.63138 0.01743 0.80749 0.0
H4187 H 0.66399 0.05534 0.77157 0.0
H4188 H 0.64406 0.05185 0.74683 0.0
H4189 H 0.5388 0.9972 0.759 0.0
H4190 H 0.56068 0.00349 0.73705 0.0
H4191 H 0.58679 0.04595 0.77156 0.0
H4192 H 0.56498 0.03954 0.79374 0.0
H4193 H 0.60017 0.03031 0.77287 0.0
H4194 H 0.579 0.04486 0.71807 0.0
H4195 H 0.55932 0.04219 0.69352 0.0
H4196 H 0.55706 0.00272 0.66485 0.0
H4197 H 0.57659 0.00502 0.68943 0.0
C4198 C 0.64944 0.03599 0.69356 0.0
C4199 C 0.65234 0.0249 0.70116 0.0
C4200 C 0.63722 0.03696 0.70128 0.0
C4201 C 0.62779 0.02692 0.71678 0.0
C4202 C 0.63047 0.01561 0.72394 0.0
C4203 C 0.64264 0.01465 0.71629 0.0
C4204 C 0.61526 0.02829 0.72587 0.0
C4205 C 0.6038 0.02686 0.71247 0.0
C4206 C 0.61411 0.02999 0.74787 0.0
C4207 C 0.62618 0.03232 0.76282 0.0
C4208 C 0.62274 0.02274 0.78019 0.0
C4209 C 0.6341 0.02488 0.7942 0.0
C4210 C 0.64896 0.03659 0.79106 0.0
C4211 C 0.65248 0.04624 0.77394 0.0
C4212 C 0.64116 0.04417 0.7599 0.0
C4213 C 0.54902 0.00815 0.7613 0.0
C4214 C 0.55023 0.01788 0.77807 0.0
C4215 C 0.56156 0.01173 0.74878 0.0
C4216 C 0.57543 0.02518 0.75269 0.0
C4217 C 0.57624 0.03548 0.76831 0.0
C4218 C 0.56377 0.03186 0.7809 0.0
C4219 C 0.58946 0.02746 0.74266 0.0
C4220 C 0.60121 0.02946 0.75594 0.0
C4221 C 0.59091 0.02646 0.72058 0.0
C4222 C 0.5792 0.02506 0.7057 0.0
C4223 C 0.57423 0.03554 0.70663 0.0
C4224 C 0.56312 0.03411 0.69269 0.0
C4225 C 0.55692 0.02228 0.67766 0.0
C4226 C 0.56187 0.01188 0.67651 0.0
C4227 C 0.57298 0.01326 0.69042 0.0
H4228 H 0.54831 0.02118 0.66688 0.0
H4229 H 0.65775 0.03822 0.80191 0.0
loop_
_geom_bond_atom_site_label_1
_geom_bond_atom_site_label_2
_geom_bond_distance
_geom_bond_site_symmetry_2
_ccdc_geom_bond_type
Co0 O1 2.216 . S
Co0 O2 2.091 . S
Co0 O4 2.004 1_554 S
Co0 O10 2.021 . S
Co0 O12 2.137 1_454 S
Co0 O13 2.244 1_455 S
O1 Co0 2.216 . S
O1 C8 1.247 . S
O2 Co0 2.091 . S
O2 C8 1.261 . S
C3 O12 1.247 . S
C3 O13 1.272 1_556 S
O4 Co0 2.004 1_556 S
O4 C9 1.213 1_455 S
Co5 O6 2.061 1_554 S
Co5 O11 2.052 . S
Co5 O13 2.135 . S
O6 Co5 2.061 1_556 S
O6 C9 1.280 . S
C7 O10 1.238 1_655 S
C7 O11 1.241 . S
C8 O1 1.247 . S
C8 O2 1.261 . S
C9 O4 1.213 1_655 S
C9 O6 1.280 . S
O10 Co0 2.021 . S
O10 C7 1.238 1_455 S
O11 Co5 2.052 . S
O11 C7 1.241 . S
O12 Co0 2.137 1_656 S
O12 C3 1.247 . S
O13 Co0 2.244 1_655 S
O13 C3 1.272 1_554 S
O13 Co5 2.135 . S
Co14 O15 2.216 1_554 S
Co14 O16 2.091 . S
Co14 O18 2.004 . S
Co14 O24 2.021 1_554 S
Co14 O26 2.137 . S
Co14 O27 2.244 . S
O15 Co14 2.216 1_556 S
O15 C22 1.247 . S
O16 Co14 2.091 . S
O16 C22 1.261 1_554 S
C17 O26 1.247 . S
C17 O27 1.272 . S
O18 Co14 2.004 . S
O18 C23 1.259 . S
Co19 O20 2.061 . S
Co19 O25 2.052 1_554 S
Co19 O27 2.135 . S
O20 Co19 2.061 . S
O20 C23 1.235 . S
C21 O24 1.238 . S
C21 O25 1.241 . S
C22 O15 1.247 . S
C22 O16 1.261 1_556 S
C23 O18 1.259 . S
C23 O20 1.235 . S
O24 Co14 2.021 1_556 S
O24 C21 1.238 . S
O25 Co19 2.052 1_556 S
O25 C21 1.241 . S
O26 Co14 2.137 . S
O26 C17 1.247 . S
O27 Co14 2.244 . S
O27 C17 1.272 . S
O27 Co19 2.135 . S
Co28 O29 2.216 1_554 S
Co28 O30 2.091 . S
Co28 O32 2.004 . S
Co28 O38 2.021 1_554 S
Co28 O40 2.137 1_545 S
Co28 O41 2.244 1_545 S
O29 Co28 2.216 1_556 S
O29 C36 1.247 . S
O30 Co28 2.091 . S
O30 C36 1.261 1_554 S
C31 O40 1.247 . S
C31 O41 1.272 . S
O32 Co28 2.004 . S
O32 C37 1.259 . S
Co33 O34 2.061 . S
Co33 O39 2.052 1_554 S
Co33 O41 2.135 . S
O34 Co33 2.061 . S
O34 C37 1.235 1_565 S
C35 O38 1.192 1_565 S
C35 O39 1.287 . S
C36 O29 1.247 . S
C36 O30 1.261 1_556 S
C37 O32 1.259 . S
C37 O34 1.235 1_545 S
O38 Co28 2.021 1_556 S
O38 C35 1.192 1_545 S
O39 Co33 2.052 1_556 S
O39 C35 1.287 . S
O40 Co28 2.137 1_565 S
O40 C31 1.247 . S
O41 Co28 2.244 1_565 S
O41 C31 1.272 . S
O41 Co33 2.135 . S
Co42 O43 2.216 1_554 S
Co42 O44 2.091 . S
Co42 O46 2.004 . S
Co42 O52 2.021 1_554 S
Co42 O54 2.137 1_655 S
Co42 O55 2.244 1_655 S
O43 Co42 2.216 1_556 S
O43 C50 1.247 . S
O44 Co42 2.091 . S
O44 C50 1.261 1_554 S
C45 O54 1.247 . S
C45 O55 1.272 . S
O46 Co42 2.004 . S
O46 C51 1.259 1_655 S
Co47 O48 2.061 . S
Co47 O53 2.052 1_554 S
Co47 O55 2.135 . S
O48 Co47 2.061 . S
O48 C51 1.235 . S
C49 O52 1.238 1_455 S
C49 O53 1.241 . S
C50 O43 1.247 . S
C50 O44 1.261 1_556 S
C51 O46 1.259 1_455 S
C51 O48 1.235 . S
O52 Co42 2.021 1_556 S
O52 C49 1.238 1_655 S
O53 Co47 2.052 1_556 S
O53 C49 1.241 . S
O54 Co42 2.137 1_455 S
O54 C45 1.247 . S
O55 Co42 2.244 1_455 S
O55 C45 1.272 . S
O55 Co47 2.135 . S
Co56 O57 2.216 . S
Co56 O58 2.091 . S
Co56 O60 2.004 1_554 S
Co56 O66 2.021 . S
Co56 O68 2.137 1_554 S
Co56 O69 2.244 . S
O57 Co56 2.216 . S
O57 C64 1.247 . S
O58 Co56 2.091 . S
O58 C64 1.261 . S
C59 O68 1.247 . S
C59 O69 1.272 1_556 S
O60 Co56 2.004 1_556 S
O60 C65 1.259 . S
Co61 O62 2.061 1_554 S
Co61 O67 2.052 . S
Co61 O69 2.135 . S
O62 Co61 2.061 1_556 S
O62 C65 1.235 . S
C63 O66 1.238 . S
C63 O67 1.241 . S
C64 O57 1.247 . S
C64 O58 1.261 . S
C65 O60 1.259 . S
C65 O62 1.235 . S
O66 Co56 2.021 . S
O66 C63 1.238 . S
O67 Co61 2.052 . S
O67 C63 1.241 . S
O68 Co56 2.137 1_556 S
O68 C59 1.247 . S
O69 Co56 2.244 . S
O69 C59 1.272 1_554 S
O69 Co61 2.135 . S
Co70 O71 2.216 . S
Co70 O72 2.091 . S
Co70 O74 2.004 1_554 S
Co70 O80 2.021 . S
Co70 O82 2.137 1_564 S
Co70 O83 2.244 1_565 S
O71 Co70 2.216 . S
O71 C78 1.247 . S
O72 Co70 2.091 . S
O72 C78 1.261 . S
C73 O82 1.247 . S
C73 O83 1.272 1_556 S
O74 Co70 2.004 1_556 S
O74 C79 1.259 1_565 S
Co75 O76 2.061 1_554 S
Co75 O81 2.052 . S
Co75 O83 2.135 . S
O76 Co75 2.061 1_556 S
O76 C79 1.235 . S
C77 O80 1.238 1_545 S
C77 O81 1.241 . S
C78 O71 1.247 . S
C78 O72 1.261 . S
C79 O74 1.259 1_545 S
C79 O76 1.235 . S
O80 Co70 2.021 . S
O80 C77 1.238 1_565 S
O81 Co75 2.052 . S
O81 C77 1.241 . S
O82 Co70 2.137 1_546 S
O82 C73 1.247 . S
O83 Co70 2.244 1_545 S
O83 C73 1.272 1_554 S
O83 Co75 2.135 . S
Co84 O85 2.216 . S
Co84 O86 2.091 . S
Co84 O88 2.004 . S
Co84 O94 2.021 . S
Co84 O96 2.137 . S
Co84 O97 2.244 . S
O85 Co84 2.216 . S
O85 C92 1.247 . S
O86 Co84 2.091 . S
O86 C92 1.261 . S
C87 O96 1.247 . S
C87 O97 1.272 . S
O88 Co84 2.004 . S
O88 C93 1.259 . S
Co89 O90 2.061 . S
Co89 O95 2.052 . S
Co89 O97 2.135 . S
O90 Co89 2.061 . S
O90 C93 1.235 . S
C91 O94 1.238 . S
C91 O95 1.241 . S
C92 O85 1.247 . S
C92 O86 1.261 . S
C93 O88 1.259 . S
C93 O90 1.235 . S
O94 Co84 2.021 . S
O94 C91 1.238 . S
O95 Co89 2.052 . S
O95 C91 1.241 . S
O96 Co84 2.137 . S
O96 C87 1.247 . S
O97 Co84 2.244 . S
O97 C87 1.272 . S
O97 Co89 2.135 . S
Co98 O99 2.216 . S
Co98 O100 2.091 . S
Co98 O102 2.004 . S
Co98 O108 2.021 . S
Co98 O110 2.137 1_565 S
Co98 O111 2.294 . S
O99 Co98 2.216 . S
O99 C106 1.247 . S
O100 Co98 2.091 . S
O100 C106 1.261 . S
C101 O110 1.247 . S
C101 O111 1.261 1_545 S
O102 Co98 2.004 . S
O102 C107 1.259 . S
Co103 O104 2.061 . S
Co103 O109 2.052 . S
Co103 O111 2.141 . S
O104 Co103 2.061 . S
O104 C107 1.235 . S
C105 O108 1.238 . S
C105 O109 1.241 . S
C106 O99 1.247 . S
C106 O100 1.261 . S
C107 O102 1.259 . S
C107 O104 1.235 . S
O108 Co98 2.021 . S
O108 C105 1.238 . S
O109 Co103 2.052 . S
O109 C105 1.241 . S
O110 Co98 2.137 1_545 S
O110 C101 1.247 . S
O111 Co98 2.294 . S
O111 C101 1.261 1_565 S
O111 Co103 2.141 . S
Co112 O113 2.216 . S
Co112 O114 2.091 . S
Co112 O116 2.004 . S
Co112 O122 2.021 . S
Co112 O124 2.130 1_455 S
Co112 O125 2.244 . S
O113 Co112 2.216 . S
O113 C120 1.247 . S
O114 Co112 2.091 . S
O114 C120 1.261 . S
C115 O124 1.245 . S
C115 O125 1.272 1_655 S
O116 Co112 2.004 . S
O116 C121 1.259 . S
Co117 O118 2.061 . S
Co117 O123 2.052 . S
Co117 O125 2.135 . S
O118 Co117 2.061 . S
O118 C121 1.235 . S
C119 O122 1.238 . S
C119 O123 1.241 . S
C120 O113 1.247 . S
C120 O114 1.261 . S
C121 O116 1.259 . S
C121 O118 1.235 . S
O122 Co112 2.021 . S
O122 C119 1.238 . S
O123 Co117 2.052 . S
O123 C119 1.241 . S
O124 Co112 2.130 1_655 S
O124 C115 1.245 . S
O125 Co112 2.244 . S
O125 C115 1.272 1_455 S
O125 Co117 2.135 . S
Co126 O127 2.216 . S
Co126 O128 2.091 . S
Co126 O130 2.004 . S
Co126 O136 2.021 . S
Co126 O138 2.137 1_565 S
Co126 O139 2.247 . S
O127 Co126 2.216 . S
O127 C134 1.247 . S
O128 Co126 2.091 . S
O128 C134 1.261 . S
C129 O138 1.247 . S
C129 O139 1.251 1_545 S
O130 Co126 2.004 . S
O130 C135 1.259 . S
Co131 O132 2.061 . S
Co131 O137 2.052 . S
Co131 O139 2.158 . S
O132 Co131 2.061 . S
O132 C135 1.235 . S
C133 O136 1.238 . S
C133 O137 1.241 . S
C134 O127 1.247 . S
C134 O128 1.261 . S
C135 O130 1.259 . S
C135 O132 1.235 . S
O136 Co126 2.021 . S
O136 C133 1.238 . S
O137 Co131 2.052 . S
O137 C133 1.241 . S
O138 Co126 2.137 1_545 S
O138 C129 1.247 . S
O139 Co126 2.247 . S
O139 C129 1.251 1_565 S
O139 Co131 2.158 . S
Co140 O141 2.216 1_455 S
Co140 O142 2.091 1_455 S
Co140 O144 2.004 . S
Co140 O150 2.021 . S
Co140 O152 2.138 . S
Co140 O153 2.244 . S
O141 Co140 2.216 1_655 S
O141 C148 1.247 . S
O142 Co140 2.091 1_655 S
O142 C148 1.261 . S
C143 O152 1.273 . S
C143 O153 1.272 . S
O144 Co140 2.004 . S
O144 C149 1.259 . S
Co145 O146 2.061 . S
Co145 O151 2.052 . S
Co145 O153 2.135 . S
O146 Co145 2.061 . S
O146 C149 1.235 . S
C147 O150 1.238 . S
C147 O151 1.241 . S
C148 O141 1.247 . S
C148 O142 1.261 . S
C149 O144 1.259 . S
C149 O146 1.235 . S
O150 Co140 2.021 . S
O150 C147 1.238 . S
O151 Co145 2.052 . S
O151 C147 1.241 . S
O152 Co140 2.138 . S
O152 C143 1.273 . S
O153 Co140 2.244 . S
O153 C143 1.272 . S
O153 Co145 2.135 . S
Co154 O155 2.216 . S
Co154 O156 2.091 . S
Co154 O158 2.004 . S
Co154 O164 2.021 . S
Co154 O166 2.137 . S
Co154 O167 2.244 . S
O155 Co154 2.216 . S
O155 C162 1.247 . S
O156 Co154 2.091 . S
O156 C162 1.261 . S
C157 O166 1.247 . S
C157 O167 1.272 . S
O158 Co154 2.004 . S
O158 C163 1.259 . S
Co159 O160 2.061 . S
Co159 O165 2.052 . S
Co159 O167 2.135 . S
O160 Co159 2.061 . S
O160 C163 1.235 . S
C161 O164 1.238 . S
C161 O165 1.241 . S
C162 O155 1.247 . S
C162 O156 1.261 . S
C163 O158 1.259 . S
C163 O160 1.235 . S
O164 Co154 2.021 . S
O164 C161 1.238 . S
O165 Co159 2.052 . S
O165 C161 1.241 . S
O166 Co154 2.137 . S
O166 C157 1.247 . S
O167 Co154 2.244 . S
O167 C157 1.272 . S
O167 Co159 2.135 . S
Co168 O169 2.216 . S
Co168 O170 2.091 . S
Co168 O172 2.004 . S
Co168 O178 2.021 . S
Co168 O180 2.137 1_545 S
Co168 O181 2.244 . S
O169 Co168 2.216 . S
O169 C176 1.247 . S
O170 Co168 2.091 . S
O170 C176 1.261 . S
C171 O180 1.247 . S
C171 O181 1.272 1_565 S
O172 Co168 2.004 . S
O172 C177 1.259 . S
Co173 O174 2.061 . S
Co173 O179 2.052 . S
Co173 O181 2.135 . S
O174 Co173 2.061 . S
O174 C177 1.235 . S
C175 O178 1.238 . S
C175 O179 1.241 . S
C176 O169 1.247 . S
C176 O170 1.261 . S
C177 O172 1.259 . S
C177 O174 1.235 . S
O178 Co168 2.021 . S
O178 C175 1.238 . S
O179 Co173 2.052 . S
O179 C175 1.241 . S
O180 Co168 2.137 1_565 S
O180 C171 1.247 . S
O181 Co168 2.244 . S
O181 C171 1.272 1_545 S
O181 Co173 2.135 . S
Co182 O183 2.216 1_655 S
Co182 O184 2.091 1_655 S
Co182 O186 2.004 . S
Co182 O192 2.021 . S
Co182 O194 2.137 . S
Co182 O195 2.244 . S
O183 Co182 2.216 1_455 S
O183 C190 1.247 . S
O184 Co182 2.091 1_455 S
O184 C190 1.261 . S
C185 O194 1.254 . S
C185 O195 1.272 . S
O186 Co182 2.004 . S
O186 C191 1.259 . S
Co187 O188 2.061 . S
Co187 O193 2.052 . S
Co187 O195 2.135 . S
O188 Co187 2.061 . S
O188 C191 1.235 . S
C189 O192 1.238 . S
C189 O193 1.241 . S
C190 O183 1.247 . S
C190 O184 1.261 . S
C191 O186 1.259 . S
C191 O188 1.235 . S
O192 Co182 2.021 . S
O192 C189 1.238 . S
O193 Co187 2.052 . S
O193 C189 1.241 . S
O194 Co182 2.137 . S
O194 C185 1.254 . S
O195 Co182 2.244 . S
O195 C185 1.272 . S
O195 Co187 2.135 . S
Co196 O197 2.216 . S
Co196 O198 2.091 . S
Co196 O200 2.004 . S
Co196 O206 2.021 . S
Co196 O208 2.137 . S
Co196 O209 2.244 . S
O197 Co196 2.216 . S
O197 C204 1.247 . S
O198 Co196 2.091 . S
O198 C204 1.261 . S
C199 O208 1.247 . S
C199 O209 1.272 . S
O200 Co196 2.004 . S
O200 C205 1.259 . S
Co201 O202 2.061 . S
Co201 O207 2.052 . S
Co201 O209 2.135 . S
O202 Co201 2.061 . S
O202 C205 1.235 . S
C203 O206 1.238 . S
C203 O207 1.241 . S
C204 O197 1.247 . S
C204 O198 1.261 . S
C205 O200 1.259 . S
C205 O202 1.235 . S
O206 Co196 2.021 . S
O206 C203 1.238 . S
O207 Co201 2.052 . S
O207 C203 1.241 . S
O208 Co196 2.137 . S
O208 C199 1.247 . S
O209 Co196 2.244 . S
O209 C199 1.272 . S
O209 Co201 2.135 . S
Co210 O211 2.216 . S
Co210 O212 2.091 . S
Co210 O214 2.004 . S
Co210 O220 2.021 . S
Co210 O222 2.137 . S
Co210 O223 2.244 . S
O211 Co210 2.216 . S
O211 C218 1.247 . S
O212 Co210 2.091 . S
O212 C218 1.261 . S
C213 O222 1.247 . S
C213 O223 1.272 . S
O214 Co210 2.004 . S
O214 C219 1.259 . S
Co215 O216 2.061 . S
Co215 O221 2.052 . S
Co215 O223 2.135 . S
O216 Co215 2.061 . S
O216 C219 1.235 . S
C217 O220 1.238 . S
C217 O221 1.241 . S
C218 O211 1.247 . S
C218 O212 1.261 . S
C219 O214 1.259 . S
C219 O216 1.235 . S
O220 Co210 2.021 . S
O220 C217 1.238 . S
O221 Co215 2.052 . S
O221 C217 1.241 . S
O222 Co210 2.137 . S
O222 C213 1.247 . S
O223 Co210 2.244 . S
O223 C213 1.272 . S
O223 Co215 2.135 . S
Co224 O225 2.216 . S
Co224 O226 2.091 . S
Co224 O228 2.004 . S
Co224 O234 2.021 . S
Co224 O236 2.137 1_545 S
Co224 O237 2.244 . S
O225 Co224 2.216 . S
O225 C232 1.247 . S
O226 Co224 2.091 . S
O226 C232 1.261 . S
C227 O236 1.247 . S
C227 O237 1.272 1_565 S
O228 Co224 2.004 . S
O228 C233 1.259 . S
Co229 O230 2.061 . S
Co229 O235 2.052 . S
Co229 O237 2.135 . S
O230 Co229 2.061 . S
O230 C233 1.235 . S
C231 O234 1.238 . S
C231 O235 1.241 . S
C232 O225 1.247 . S
C232 O226 1.261 . S
C233 O228 1.259 . S
C233 O230 1.235 . S
O234 Co224 2.021 . S
O234 C231 1.238 . S
O235 Co229 2.052 . S
O235 C231 1.241 . S
O236 Co224 2.137 1_565 S
O236 C227 1.247 . S
O237 Co224 2.244 . S
O237 C227 1.272 1_545 S
O237 Co229 2.135 . S
Co238 O239 2.216 . S
Co238 O240 2.091 . S
Co238 O242 2.004 . S
Co238 O248 2.021 . S
Co238 O250 2.115 1_655 S
Co238 O251 2.244 . S
O239 Co238 2.216 . S
O239 C246 1.247 . S
O240 Co238 2.091 . S
O240 C246 1.261 . S
C241 O250 1.240 . S
C241 O251 1.272 1_455 S
O242 Co238 2.004 . S
O242 C247 1.259 . S
Co243 O244 2.061 . S
Co243 O249 2.052 . S
Co243 O251 2.135 . S
O244 Co243 2.061 . S
O244 C247 1.235 . S
C245 O248 1.238 . S
C245 O249 1.241 . S
C246 O239 1.247 . S
C246 O240 1.261 . S
C247 O242 1.259 . S
C247 O244 1.235 . S
O248 Co238 2.021 . S
O248 C245 1.238 . S
O249 Co243 2.052 . S
O249 C245 1.241 . S
O250 Co238 2.115 1_455 S
O250 C241 1.240 . S
O251 Co238 2.244 . S
O251 C241 1.272 1_655 S
O251 Co243 2.135 . S
H252 C260 0.930 . S
H253 C263 0.930 . S
H254 C265 0.930 . S
H255 C266 0.970 . S
H256 C266 0.970 . S
H257 C268 0.930 . S
H258 C270 0.930 . S
H259 C272 0.930 . S
C260 H252 0.930 . S
C260 C261 1.382 . S
C260 C262 1.426 . S
C261 C260 1.382 . S
C261 C265 1.389 . S
C262 C260 1.426 . S
C262 C263 1.375 . S
C262 C266 1.532 . S
C263 H253 0.930 . S
C263 C262 1.375 . S
C263 C264 1.416 . S
C264 C263 1.416 . S
C264 C265 1.371 . S
C265 H254 0.930 . S
C265 C261 1.389 . S
C265 C264 1.371 . S
C266 H255 0.970 . S
C266 H256 0.970 . S
C266 C262 1.532 . S
C266 C267 1.499 . S
C267 C266 1.499 . S
C267 C268 1.370 . S
C267 C272 1.415 . S
C268 H257 0.930 . S
C268 C267 1.370 . S
C268 C269 1.407 . S
C269 C268 1.407 . S
C269 C270 1.365 . S
C270 H258 0.930 . S
C270 C269 1.365 . S
C270 C271 1.393 . S
C271 C270 1.393 . S
C271 C272 1.387 . S
C272 H259 0.930 . S
C272 C267 1.415 . S
C272 C271 1.387 . S
H273 C281 0.930 . S
H274 C284 0.930 . S
H275 C286 0.930 . S
H276 C287 0.970 . S
H277 C287 0.970 . S
H278 C289 0.930 . S
H279 C291 0.930 . S
H280 C293 0.930 . S
C281 H273 0.930 . S
C281 C282 1.382 . S
C281 C283 1.426 . S
C282 C281 1.382 . S
C282 C286 1.389 . S
C283 C281 1.426 . S
C283 C284 1.375 . S
C283 C287 1.532 . S
C284 H274 0.930 . S
C284 C283 1.375 . S
C284 C285 1.416 . S
C285 C284 1.416 . S
C285 C286 1.371 . S
C286 H275 0.930 . S
C286 C282 1.389 . S
C286 C285 1.371 . S
C287 H276 0.970 . S
C287 H277 0.970 . S
C287 C283 1.532 . S
C287 C288 1.499 . S
C288 C287 1.499 . S
C288 C289 1.370 . S
C288 C293 1.415 . S
C289 H278 0.930 . S
C289 C288 1.370 . S
C289 C290 1.407 . S
C290 C289 1.407 . S
C290 C291 1.365 . S
C291 H279 0.930 . S
C291 C290 1.365 . S
C291 C292 1.393 . S
C292 C291 1.393 . S
C292 C293 1.387 . S
C293 H280 0.930 . S
C293 C288 1.415 . S
C293 C292 1.387 . S
H294 C302 0.930 . S
H295 C305 0.930 . S
H296 C307 0.930 . S
H297 C308 0.970 . S
H298 C308 0.970 . S
H299 C310 0.930 . S
H300 C312 0.930 . S
H301 C314 0.930 . S
C302 H294 0.930 . S
C302 C303 1.382 . S
C302 C304 1.426 . S
C303 C302 1.382 . S
C303 C307 1.389 . S
C304 C302 1.426 . S
C304 C305 1.375 . S
C304 C308 1.532 . S
C305 H295 0.930 . S
C305 C304 1.375 . S
C305 C306 1.416 . S
C306 C305 1.416 . S
C306 C307 1.371 . S
C307 H296 0.930 . S
C307 C303 1.389 . S
C307 C306 1.371 . S
C308 H297 0.970 . S
C308 H298 0.970 . S
C308 C304 1.532 . S
C308 C309 1.499 . S
C309 C308 1.499 . S
C309 C310 1.370 . S
C309 C314 1.415 . S
C310 H299 0.930 . S
C310 C309 1.370 . S
C310 C311 1.407 . S
C311 C310 1.407 . S
C311 C312 1.365 . S
C312 H300 0.930 . S
C312 C311 1.365 . S
C312 C313 1.393 . S
C313 C312 1.393 . S
C313 C314 1.387 . S
C314 H301 0.930 . S
C314 C309 1.415 . S
C314 C313 1.387 . S
H315 C323 0.930 . S
H316 C326 0.930 . S
H317 C328 0.930 . S
H318 C329 0.970 . S
H319 C329 0.970 . S
H320 C331 0.930 . S
H321 C333 0.930 . S
H322 C335 0.930 . S
C323 H315 0.930 . S
C323 C324 1.382 . S
C323 C325 1.426 . S
C324 C323 1.382 . S
C324 C328 1.389 . S
C325 C323 1.426 . S
C325 C326 1.375 . S
C325 C329 1.532 . S
C326 H316 0.930 . S
C326 C325 1.375 . S
C326 C327 1.416 . S
C327 C326 1.416 . S
C327 C328 1.371 . S
C328 H317 0.930 . S
C328 C324 1.389 . S
C328 C327 1.371 . S
C329 H318 0.970 . S
C329 H319 0.970 . S
C329 C325 1.532 . S
C329 C330 1.499 . S
C330 C329 1.499 . S
C330 C331 1.370 . S
C330 C335 1.415 . S
C331 H320 0.930 . S
C331 C330 1.370 . S
C331 C332 1.407 . S
C332 C331 1.407 . S
C332 C333 1.365 . S
C333 H321 0.930 . S
C333 C332 1.365 . S
C333 C334 1.393 . S
C334 C333 1.393 . S
C334 C335 1.387 . S
C335 H322 0.930 . S
C335 C330 1.415 . S
C335 C334 1.387 . S
H336 C344 0.930 . S
H337 C347 0.930 . S
H338 C349 0.930 . S
H339 C350 0.970 . S
H340 C350 0.970 . S
H341 C352 0.930 . S
H342 C354 0.930 . S
H343 C356 0.930 . S
C344 H336 0.930 . S
C344 C345 1.382 . S
C344 C346 1.426 . S
C345 C344 1.382 . S
C345 C349 1.389 . S
C346 C344 1.426 . S
C346 C347 1.375 . S
C346 C350 1.532 . S
C347 H337 0.930 . S
C347 C346 1.375 . S
C347 C348 1.416 . S
C348 C347 1.416 . S
C348 C349 1.371 . S
C349 H338 0.930 . S
C349 C345 1.389 . S
C349 C348 1.371 . S
C350 H339 0.970 . S
C350 H340 0.970 . S
C350 C346 1.532 . S
C350 C351 1.499 . S
C351 C350 1.499 . S
C351 C352 1.370 . S
C351 C356 1.415 . S
C352 H341 0.930 . S
C352 C351 1.370 . S
C352 C353 1.407 . S
C353 C352 1.407 . S
C353 C354 1.365 . S
C354 H342 0.930 . S
C354 C353 1.365 . S
C354 C355 1.393 . S
C355 C354 1.393 . S
C355 C356 1.387 . S
C356 H343 0.930 . S
C356 C351 1.415 . S
C356 C355 1.387 . S
H357 C365 0.930 . S
H358 C368 0.930 . S
H359 C370 0.930 . S
H360 C371 0.970 . S
H361 C371 0.970 . S
H362 C373 0.930 . S
H363 C375 0.930 . S
H364 C377 0.930 . S
C365 H357 0.930 . S
C365 C366 1.382 . S
C365 C367 1.426 . S
C366 C365 1.382 . S
C366 C370 1.389 . S
C367 C365 1.426 . S
C367 C368 1.375 . S
C367 C371 1.532 . S
C368 H358 0.930 . S
C368 C367 1.375 . S
C368 C369 1.416 . S
C369 C368 1.416 . S
C369 C370 1.371 . S
C370 H359 0.930 . S
C370 C366 1.389 . S
C370 C369 1.371 . S
C371 H360 0.970 . S
C371 H361 0.970 . S
C371 C367 1.532 . S
C371 C372 1.499 . S
C372 C371 1.499 . S
C372 C373 1.370 . S
C372 C377 1.415 . S
C373 H362 0.930 . S
C373 C372 1.370 . S
C373 C374 1.407 . S
C374 C373 1.407 . S
C374 C375 1.365 . S
C375 H363 0.930 . S
C375 C374 1.365 . S
C375 C376 1.393 . S
C376 C375 1.393 . S
C376 C377 1.387 . S
C377 H364 0.930 . S
C377 C372 1.415 . S
C377 C376 1.387 . S
H378 C386 0.930 . S
H379 C389 0.930 . S
H380 C391 0.930 . S
H381 C392 0.970 . S
H382 C392 0.970 . S
H383 C394 0.930 . S
H384 C396 0.930 . S
H385 C398 0.930 . S
C386 H378 0.930 . S
C386 C387 1.382 . S
C386 C388 1.426 . S
C387 C386 1.382 . S
C387 C391 1.389 . S
C388 C386 1.426 . S
C388 C389 1.375 . S
C388 C392 1.532 . S
C389 H379 0.930 . S
C389 C388 1.375 . S
C389 C390 1.416 . S
C390 C389 1.416 . S
C390 C391 1.371 . S
C391 H380 0.930 . S
C391 C387 1.389 . S
C391 C390 1.371 . S
C392 H381 0.970 . S
C392 H382 0.970 . S
C392 C388 1.532 . S
C392 C393 1.499 . S
C393 C392 1.499 . S
C393 C394 1.370 . S
C393 C398 1.415 . S
C394 H383 0.930 . S
C394 C393 1.370 . S
C394 C395 1.407 . S
C395 C394 1.407 . S
C395 C396 1.365 . S
C396 H384 0.930 . S
C396 C395 1.365 . S
C396 C397 1.393 . S
C397 C396 1.393 . S
C397 C398 1.387 . S
C398 H385 0.930 . S
C398 C393 1.415 . S
C398 C397 1.387 . S
H399 C407 0.930 . S
H400 C410 0.930 . S
H401 C412 0.930 . S
H402 C413 0.970 . S
H403 C413 0.970 . S
H404 C415 0.930 . S
H405 C417 0.930 . S
H406 C419 0.930 . S
C407 H399 0.930 . S
C407 C408 1.382 . S
C407 C409 1.426 . S
C408 C407 1.382 . S
C408 C412 1.389 . S
C409 C407 1.426 . S
C409 C410 1.375 . S
C409 C413 1.532 . S
C410 H400 0.930 . S
C410 C409 1.375 . S
C410 C411 1.416 . S
C411 C410 1.416 . S
C411 C412 1.371 . S
C412 H401 0.930 . S
C412 C408 1.389 . S
C412 C411 1.371 . S
C413 H402 0.970 . S
C413 H403 0.970 . S
C413 C409 1.532 . S
C413 C414 1.499 . S
C414 C413 1.499 . S
C414 C415 1.370 . S
C414 C419 1.415 . S
C415 H404 0.930 . S
C415 C414 1.370 . S
C415 C416 1.407 . S
C416 C415 1.407 . S
C416 C417 1.365 . S
C417 H405 0.930 . S
C417 C416 1.365 . S
C417 C418 1.393 . S
C418 C417 1.393 . S
C418 C419 1.387 . S
C419 H406 0.930 . S
C419 C414 1.415 . S
C419 C418 1.387 . S
H420 C428 0.930 . S
H421 C431 0.930 . S
H422 C433 0.930 . S
H423 C434 0.970 . S
H424 C434 0.970 . S
H425 C436 0.930 . S
H426 C438 0.930 . S
H427 C440 0.930 . S
C428 H420 0.930 . S
C428 C429 1.382 . S
C428 C430 1.426 . S
C429 C428 1.382 . S
C429 C433 1.389 . S
C430 C428 1.426 . S
C430 C431 1.375 . S
C430 C434 1.532 . S
C431 H421 0.930 . S
C431 C430 1.375 . S
C431 C432 1.416 . S
C432 C431 1.416 . S
C432 C433 1.371 . S
C433 H422 0.930 . S
C433 C429 1.389 . S
C433 C432 1.371 . S
C434 H423 0.970 . S
C434 H424 0.970 . S
C434 C430 1.532 . S
C434 C435 1.499 . S
C435 C434 1.499 . S
C435 C436 1.370 . S
C435 C440 1.415 . S
C436 H425 0.930 . S
C436 C435 1.370 . S
C436 C437 1.407 . S
C437 C436 1.407 . S
C437 C438 1.365 . S
C438 H426 0.930 . S
C438 C437 1.365 . S
C438 C439 1.393 . S
C439 C438 1.393 . S
C439 C440 1.387 . S
C440 H427 0.930 . S
C440 C435 1.415 . S
C440 C439 1.387 . S
H441 C449 0.930 . S
H442 C452 0.930 . S
H443 C454 0.930 . S
H444 C455 0.970 . S
H445 C455 0.970 . S
H446 C457 0.930 . S
H447 C459 0.930 . S
H448 C461 0.930 . S
C449 H441 0.930 . S
C449 C450 1.382 . S
C449 C451 1.426 . S
C450 C449 1.382 . S
C450 C454 1.389 1_455 S
C451 C449 1.426 . S
C451 C452 1.375 . S
C451 C455 1.532 . S
C452 H442 0.930 . S
C452 C451 1.375 . S
C452 C453 1.416 . S
C453 C452 1.416 . S
C453 C454 1.371 1_455 S
C454 H443 0.930 . S
C454 C450 1.389 1_655 S
C454 C453 1.371 1_655 S
C455 H444 0.970 . S
C455 H445 0.970 . S
C455 C451 1.532 . S
C455 C456 1.499 . S
C456 C455 1.499 . S
C456 C457 1.370 . S
C456 C461 1.415 . S
C457 H446 0.930 . S
C457 C456 1.370 . S
C457 C458 1.412 . S
C458 C457 1.412 . S
C458 C459 1.373 1_455 S
C459 H447 0.930 . S
C459 C458 1.373 1_655 S
C459 C460 1.393 1_655 S
C460 C459 1.393 1_455 S
C460 C461 1.387 . S
C461 H448 0.930 . S
C461 C456 1.415 . S
C461 C460 1.387 . S
H462 C470 0.930 . S
H463 C473 0.930 . S
H464 C475 0.930 . S
H465 C476 0.970 . S
H466 C476 0.970 . S
H467 C478 0.930 . S
H468 C480 0.930 . S
H469 C482 0.930 . S
C470 H462 0.930 . S
C470 C471 1.382 . S
C470 C472 1.426 . S
C471 C470 1.382 . S
C471 C475 1.389 . S
C472 C470 1.426 . S
C472 C473 1.375 . S
C472 C476 1.532 . S
C473 H463 0.930 . S
C473 C472 1.375 . S
C473 C474 1.416 . S
C474 C473 1.416 . S
C474 C475 1.371 . S
C475 H464 0.930 . S
C475 C471 1.389 . S
C475 C474 1.371 . S
C476 H465 0.970 . S
C476 H466 0.970 . S
C476 C472 1.532 . S
C476 C477 1.499 . S
C477 C476 1.499 . S
C477 C478 1.370 . S
C477 C482 1.415 . S
C478 H467 0.930 . S
C478 C477 1.370 . S
C478 C479 1.407 . S
C479 C478 1.407 . S
C479 C480 1.365 . S
C480 H468 0.930 . S
C480 C479 1.365 . S
C480 C481 1.393 . S
C481 C480 1.393 . S
C481 C482 1.387 . S
C482 H469 0.930 . S
C482 C477 1.415 . S
C482 C481 1.387 . S
H483 C491 0.930 . S
H484 C494 0.930 . S
H485 C496 0.930 . S
H486 C497 0.970 . S
H487 C497 0.970 . S
H488 C499 0.930 . S
H489 C501 0.930 . S
H490 C503 0.930 . S
C491 H483 0.930 . S
C491 C492 1.382 . S
C491 C493 1.426 . S
C492 C491 1.382 . S
C492 C496 1.389 1_565 S
C493 C491 1.426 . S
C493 C494 1.375 . S
C493 C497 1.532 . S
C494 H484 0.930 . S
C494 C493 1.375 . S
C494 C495 1.416 . S
C495 C494 1.416 . S
C495 C496 1.371 1_565 S
C496 H485 0.930 . S
C496 C492 1.389 1_545 S
C496 C495 1.371 1_545 S
C497 H486 0.970 . S
C497 H487 0.970 . S
C497 C493 1.532 . S
C497 C498 1.499 . S
C498 C497 1.499 . S
C498 C499 1.370 . S
C498 C503 1.415 . S
C499 H488 0.930 . S
C499 C498 1.370 . S
C499 C500 1.432 . S
C500 C499 1.432 . S
C500 C501 1.355 1_565 S
C501 H489 0.930 . S
C501 C500 1.355 1_545 S
C501 C502 1.393 1_545 S
C502 C501 1.393 1_565 S
C502 C503 1.387 . S
C503 H490 0.930 . S
C503 C498 1.415 . S
C503 C502 1.387 . S
H504 C512 0.930 . S
H505 C515 0.930 . S
H506 C517 0.930 . S
H507 C518 0.970 . S
H508 C518 0.970 . S
H509 C520 0.930 . S
H510 C522 0.930 . S
H511 C524 0.930 . S
C512 H504 0.930 . S
C512 C513 1.382 . S
C512 C514 1.426 . S
C513 C512 1.382 . S
C513 C517 1.389 1_565 S
C514 C512 1.426 . S
C514 C515 1.375 . S
C514 C518 1.532 . S
C515 H505 0.930 . S
C515 C514 1.375 . S
C515 C516 1.484 . S
C516 C515 1.484 . S
C516 C517 1.347 1_565 S
C517 H506 0.930 . S
C517 C513 1.389 1_545 S
C517 C516 1.347 1_545 S
C518 H507 0.970 . S
C518 H508 0.970 . S
C518 C514 1.532 . S
C518 C519 1.499 . S
C519 C518 1.499 . S
C519 C520 1.370 . S
C519 C524 1.415 . S
C520 H509 0.930 . S
C520 C519 1.370 . S
C520 C521 1.407 . S
C521 C520 1.407 . S
C521 C522 1.365 1_565 S
C522 H510 0.930 . S
C522 C521 1.365 1_545 S
C522 C523 1.393 1_545 S
C523 C522 1.393 1_565 S
C523 C524 1.387 . S
C524 H511 0.930 . S
C524 C519 1.415 . S
C524 C523 1.387 . S
H525 C533 0.930 . S
H526 C536 0.930 . S
H527 C538 0.930 . S
H528 C539 0.970 . S
H529 C539 0.970 . S
H530 C541 0.930 . S
H531 C543 0.930 . S
H532 C545 0.930 . S
C533 H525 0.930 . S
C533 C534 1.382 . S
C533 C535 1.426 . S
C534 C533 1.382 . S
C534 C538 1.389 1_455 S
C535 C533 1.426 . S
C535 C536 1.375 . S
C535 C539 1.532 . S
C536 H526 0.930 . S
C536 C535 1.375 . S
C536 C537 1.416 . S
C537 C536 1.416 . S
C537 C538 1.371 1_455 S
C538 H527 0.930 . S
C538 C534 1.389 1_655 S
C538 C537 1.371 1_655 S
C539 H528 0.970 . S
C539 H529 0.970 . S
C539 C535 1.532 . S
C539 C540 1.499 . S
C540 C539 1.499 . S
C540 C541 1.370 . S
C540 C545 1.415 . S
C541 H530 0.930 . S
C541 C540 1.370 . S
C541 C542 1.407 . S
C542 C541 1.407 . S
C542 C543 1.365 1_455 S
C543 H531 0.930 . S
C543 C542 1.365 1_655 S
C543 C544 1.393 1_655 S
C544 C543 1.393 1_455 S
C544 C545 1.387 . S
C545 H532 0.930 . S
C545 C540 1.415 . S
C545 C544 1.387 . S
H546 C554 0.930 . S
H547 C557 0.930 . S
H548 C559 0.930 . S
H549 C560 0.970 . S
H550 C560 0.970 . S
H551 C562 0.930 . S
H552 C564 0.930 . S
H553 C566 0.930 . S
C554 H546 0.930 . S
C554 C555 1.382 . S
C554 C556 1.426 . S
C555 C554 1.382 . S
C555 C559 1.389 . S
C556 C554 1.426 . S
C556 C557 1.375 . S
C556 C560 1.532 . S
C557 H547 0.930 . S
C557 C556 1.375 . S
C557 C558 1.416 . S
C558 C557 1.416 . S
C558 C559 1.371 . S
C559 H548 0.930 . S
C559 C555 1.389 . S
C559 C558 1.371 . S
C560 H549 0.970 . S
C560 H550 0.970 . S
C560 C556 1.532 . S
C560 C561 1.499 . S
C561 C560 1.499 . S
C561 C562 1.370 . S
C561 C566 1.415 . S
C562 H551 0.930 . S
C562 C561 1.370 . S
C562 C563 1.407 . S
C563 C562 1.407 . S
C563 C564 1.365 . S
C564 H552 0.930 . S
C564 C563 1.365 . S
C564 C565 1.393 . S
C565 C564 1.393 . S
C565 C566 1.387 . S
C566 H553 0.930 . S
C566 C561 1.415 . S
C566 C565 1.387 . S
H567 C575 0.930 . S
H568 C578 0.930 . S
H569 C580 0.930 . S
H570 C581 0.970 . S
H571 C581 0.970 . S
H572 C583 0.930 . S
H573 C585 0.930 . S
H574 C587 0.930 . S
C575 H567 0.930 . S
C575 C576 1.382 . S
C575 C577 1.426 . S
C576 C575 1.382 . S
C576 C580 1.389 . S
C577 C575 1.426 . S
C577 C578 1.375 . S
C577 C581 1.532 . S
C578 H568 0.930 . S
C578 C577 1.375 . S
C578 C579 1.416 . S
C579 C578 1.416 . S
C579 C580 1.371 . S
C580 H569 0.930 . S
C580 C576 1.389 . S
C580 C579 1.371 . S
C581 H570 0.970 . S
C581 H571 0.970 . S
C581 C577 1.532 . S
C581 C582 1.499 . S
C582 C581 1.499 . S
C582 C583 1.370 . S
C582 C587 1.415 . S
C583 H572 0.930 . S
C583 C582 1.370 . S
C583 C584 1.407 . S
C584 C583 1.407 . S
C584 C585 1.365 . S
C585 H573 0.930 . S
C585 C584 1.365 . S
C585 C586 1.393 . S
C586 C585 1.393 . S
C586 C587 1.387 . S
C587 H574 0.930 . S
C587 C582 1.415 . S
C587 C586 1.387 . S
H588 C596 0.930 . S
H589 C599 0.930 . S
H590 C601 0.930 . S
H591 C602 0.970 . S
H592 C602 0.970 . S
H593 C604 0.930 . S
H594 C606 0.930 . S
H595 C608 0.930 . S
C596 H588 0.930 . S
C596 C597 1.382 . S
C596 C598 1.426 . S
C597 C596 1.382 . S
C597 C601 1.389 . S
C598 C596 1.426 . S
C598 C599 1.375 . S
C598 C602 1.532 . S
C599 H589 0.930 . S
C599 C598 1.375 . S
C599 C600 1.416 . S
C600 C599 1.416 . S
C600 C601 1.371 . S
C601 H590 0.930 . S
C601 C597 1.389 . S
C601 C600 1.371 . S
C602 H591 0.970 . S
C602 H592 0.970 . S
C602 C598 1.532 . S
C602 C603 1.499 . S
C603 C602 1.499 . S
C603 C604 1.370 . S
C603 C608 1.415 . S
C604 H593 0.930 . S
C604 C603 1.370 . S
C604 C605 1.407 . S
C605 C604 1.407 . S
C605 C606 1.365 . S
C606 H594 0.930 . S
C606 C605 1.365 . S
C606 C607 1.393 . S
C607 C606 1.393 . S
C607 C608 1.387 . S
C608 H595 0.930 . S
C608 C603 1.415 . S
C608 C607 1.387 . S
H609 C617 0.930 . S
H610 C620 0.930 . S
H611 C622 0.930 . S
H612 C623 0.970 . S
H613 C623 0.970 . S
H614 C625 0.930 . S
H615 C627 0.930 . S
H616 C629 0.930 . S
C617 H609 0.930 . S
C617 C618 1.382 . S
C617 C619 1.426 . S
C618 C617 1.382 . S
C618 C622 1.389 . S
C619 C617 1.426 . S
C619 C620 1.375 . S
C619 C623 1.532 . S
C620 H610 0.930 . S
C620 C619 1.375 . S
C620 C621 1.416 . S
C621 C620 1.416 . S
C621 C622 1.371 . S
C622 H611 0.930 . S
C622 C618 1.389 . S
C622 C621 1.371 . S
C623 H612 0.970 . S
C623 H613 0.970 . S
C623 C619 1.532 . S
C623 C624 1.499 . S
C624 C623 1.499 . S
C624 C625 1.370 . S
C624 C629 1.415 . S
C625 H614 0.930 . S
C625 C624 1.370 . S
C625 C626 1.407 . S
C626 C625 1.407 . S
C626 C627 1.365 . S
C627 H615 0.930 . S
C627 C626 1.365 . S
C627 C628 1.393 . S
C628 C627 1.393 . S
C628 C629 1.387 . S
C629 H616 0.930 . S
C629 C624 1.415 . S
C629 C628 1.387 . S
H630 C648 0.951 . S
H631 C650 0.951 . S
H632 C652 0.950 . S
H633 C653 0.950 . S
H634 C655 0.950 . S
H635 C658 0.950 1_455 S
H636 C659 0.950 . S
H637 C661 0.950 . S
H638 C662 0.950 . S
H639 C663 0.951 . S
H640 C665 0.951 . S
H641 C667 0.950 . S
H642 C668 0.950 . S
H643 C670 0.950 . S
H644 C673 0.950 1_655 S
H645 C674 0.950 . S
H646 C676 0.950 . S
H647 C677 0.950 . S
C648 H630 0.951 . S
C648 C649 1.436 . S
C648 C650 1.388 . S
C649 C648 1.436 . S
C649 C653 1.346 1_655 S
C650 H631 0.951 . S
C650 C648 1.388 . S
C650 C651 1.366 . S
C651 C650 1.366 . S
C651 C652 1.414 1_655 S
C651 C654 1.470 . S
C652 H632 0.950 . S
C652 C651 1.414 1_455 S
C652 C653 1.374 . S
C653 H633 0.950 . S
C653 C649 1.346 1_455 S
C653 C652 1.374 . S
C654 C651 1.470 . S
C654 C655 1.338 1_655 S
C654 C656 1.460 . S
C655 H634 0.950 . S
C655 C654 1.338 1_455 S
C655 C671 1.377 . S
C656 C654 1.460 . S
C656 C657 1.524 . S
C656 C670 1.377 . S
C657 C656 1.524 . S
C657 C658 1.397 . S
C657 C662 1.363 . S
C658 H635 0.950 1_655 S
C658 C657 1.397 . S
C658 C659 1.334 . S
C659 H636 0.950 . S
C659 C658 1.334 . S
C659 C660 1.287 . S
C660 C659 1.287 . S
C660 C661 1.524 . S
C660 H679 0.913 . S
C661 H637 0.950 . S
C661 C660 1.524 . S
C661 C662 1.415 . S
C662 H638 0.950 . S
C662 C657 1.363 . S
C662 C661 1.415 . S
C663 H639 0.951 . S
C663 C664 1.366 1_455 S
C663 C665 1.388 . S
C664 C663 1.366 1_655 S
C664 C668 1.385 . S
C665 H640 0.951 . S
C665 C663 1.388 . S
C665 C666 1.366 1_455 S
C666 C665 1.366 1_655 S
C666 C667 1.414 . S
C666 C669 1.499 . S
C667 H641 0.950 . S
C667 C666 1.414 . S
C667 C668 1.374 . S
C668 H642 0.950 . S
C668 C664 1.385 . S
C668 C667 1.374 . S
C669 C666 1.499 . S
C669 C670 1.373 . S
C669 C671 1.389 1_655 S
C670 H643 0.950 . S
C670 C656 1.377 . S
C670 C669 1.373 . S
C671 C655 1.377 . S
C671 C669 1.389 1_455 S
C671 C672 1.524 . S
C672 C671 1.524 . S
C672 C673 1.397 . S
C672 C677 1.363 . S
C673 H644 0.950 1_455 S
C673 C672 1.397 . S
C673 C674 1.334 . S
C674 H645 0.950 . S
C674 C673 1.334 . S
C674 C675 1.287 . S
C675 C674 1.287 . S
C675 C676 1.524 . S
C675 H678 0.999 . S
C676 H646 0.950 . S
C676 C675 1.524 . S
C676 C677 1.415 . S
C677 H647 0.950 . S
C677 C672 1.363 . S
C677 C676 1.415 . S
H678 C675 0.999 . S
H679 C660 0.913 . S
H680 C698 0.951 . S
H681 C700 0.951 . S
H682 C702 0.950 . S
H683 C703 0.950 . S
H684 C705 0.950 . S
H685 C708 0.950 . S
H686 C709 0.950 . S
H687 C711 0.950 . S
H688 C712 0.950 . S
H689 C713 0.951 . S
H690 C715 0.951 . S
H691 C717 0.950 . S
H692 C718 0.950 . S
H693 C720 0.950 . S
H694 C723 0.950 . S
H695 C724 0.950 . S
H696 C726 0.950 . S
H697 C727 0.950 . S
C698 H680 0.951 . S
C698 C699 1.366 . S
C698 C700 1.388 . S
C699 C698 1.366 . S
C699 C703 1.385 . S
C700 H681 0.951 . S
C700 C698 1.388 . S
C700 C701 1.366 . S
C701 C700 1.366 . S
C701 C702 1.414 . S
C701 C704 1.499 . S
C702 H682 0.950 . S
C702 C701 1.414 . S
C702 C703 1.374 . S
C703 H683 0.950 . S
C703 C699 1.385 . S
C703 C702 1.374 . S
C704 C701 1.499 . S
C704 C705 1.373 . S
C704 C706 1.389 . S
C705 H684 0.950 . S
C705 C704 1.373 . S
C705 C721 1.377 . S
C706 C704 1.389 . S
C706 C707 1.524 . S
C706 C720 1.377 . S
C707 C706 1.524 . S
C707 C708 1.397 . S
C707 C712 1.363 . S
C708 H685 0.950 . S
C708 C707 1.397 . S
C708 C709 1.334 . S
C709 H686 0.950 . S
C709 C708 1.334 . S
C709 C710 1.287 . S
C710 C709 1.287 . S
C710 C711 1.524 . S
C710 H729 0.913 . S
C711 H687 0.950 . S
C711 C710 1.524 . S
C711 C712 1.415 . S
C712 H688 0.950 . S
C712 C707 1.363 . S
C712 C711 1.415 . S
C713 H689 0.951 . S
C713 C714 1.366 . S
C713 C715 1.388 . S
C714 C713 1.366 . S
C714 C718 1.385 . S
C715 H690 0.951 . S
C715 C713 1.388 . S
C715 C716 1.366 . S
C716 C715 1.366 . S
C716 C717 1.414 . S
C716 C719 1.499 . S
C717 H691 0.950 . S
C717 C716 1.414 . S
C717 C718 1.374 . S
C718 H692 0.950 . S
C718 C714 1.385 . S
C718 C717 1.374 . S
C719 C716 1.499 . S
C719 C720 1.373 . S
C719 C721 1.389 . S
C720 H693 0.950 . S
C720 C706 1.377 . S
C720 C719 1.373 . S
C721 C705 1.377 . S
C721 C719 1.389 . S
C721 C722 1.524 . S
C722 C721 1.524 . S
C722 C723 1.397 . S
C722 C727 1.363 . S
C723 H694 0.950 . S
C723 C722 1.397 . S
C723 C724 1.334 . S
C724 H695 0.950 . S
C724 C723 1.334 . S
C724 C725 1.287 . S
C725 C724 1.287 . S
C725 C726 1.524 . S
C725 H728 0.999 . S
C726 H696 0.950 . S
C726 C725 1.524 . S
C726 C727 1.415 . S
C727 H697 0.950 . S
C727 C722 1.363 . S
C727 C726 1.415 . S
H728 C725 0.999 . S
H729 C710 0.913 . S
H730 C748 0.951 . S
H731 C750 0.951 . S
H732 C752 0.950 . S
H733 C753 0.950 . S
H734 C755 0.950 . S
H735 C758 0.950 . S
H736 C759 0.950 . S
H737 C761 0.950 . S
H738 C762 0.950 . S
H739 C763 0.951 . S
H740 C765 0.951 . S
H741 C767 0.950 . S
H742 C768 0.950 . S
H743 C770 0.948 1_565 S
H744 C773 0.950 . S
H745 C774 0.950 . S
H746 C776 0.950 . S
H747 C777 0.950 . S
C748 H730 0.951 . S
C748 C749 1.366 1_565 S
C748 C750 1.388 . S
C749 C748 1.366 1_545 S
C749 C753 1.385 . S
C750 H731 0.951 . S
C750 C748 1.388 . S
C750 C751 1.366 1_565 S
C751 C750 1.366 1_545 S
C751 C752 1.414 . S
C751 C754 1.499 . S
C752 H732 0.950 . S
C752 C751 1.414 . S
C752 C753 1.374 . S
C753 H733 0.950 . S
C753 C749 1.385 . S
C753 C752 1.374 . S
C754 C751 1.499 . S
C754 C755 1.373 . S
C754 C756 1.389 . S
C755 H734 0.950 . S
C755 C754 1.373 . S
C755 C771 1.377 . S
C756 C754 1.389 . S
C756 C757 1.524 . S
C756 C770 1.377 . S
C757 C756 1.524 . S
C757 C758 1.397 . S
C757 C762 1.363 1_545 S
C758 H735 0.950 . S
C758 C757 1.397 . S
C758 C759 1.334 . S
C759 H736 0.950 . S
C759 C758 1.334 . S
C759 C760 1.287 . S
C760 C759 1.287 . S
C760 C761 1.524 1_545 S
C760 H779 0.913 . S
C761 H737 0.950 . S
C761 C760 1.524 1_565 S
C761 C762 1.415 . S
C762 H738 0.950 . S
C762 C757 1.363 1_565 S
C762 C761 1.415 . S
C763 H739 0.951 . S
C763 C764 1.366 . S
C763 C765 1.388 . S
C764 C763 1.366 . S
C764 C768 1.385 1_545 S
C765 H740 0.951 . S
C765 C763 1.388 . S
C765 C766 1.366 . S
C766 C765 1.366 . S
C766 C767 1.414 1_545 S
C766 C769 1.499 . S
C767 H741 0.950 . S
C767 C766 1.414 1_565 S
C767 C768 1.374 . S
C768 H742 0.950 . S
C768 C764 1.385 1_565 S
C768 C767 1.374 . S
C769 C766 1.499 . S
C769 C770 1.373 . S
C769 C771 1.389 . S
C770 H743 0.948 1_545 S
C770 C756 1.377 . S
C770 C769 1.373 . S
C771 C755 1.377 . S
C771 C769 1.389 . S
C771 C772 1.524 . S
C772 C771 1.524 . S
C772 C773 1.397 1_545 S
C772 C777 1.363 . S
C773 H744 0.950 . S
C773 C772 1.397 1_565 S
C773 C774 1.334 . S
C774 H745 0.950 . S
C774 C773 1.334 . S
C774 C775 1.287 1_565 S
C775 C774 1.287 1_545 S
C775 C776 1.524 . S
C775 H778 0.999 . S
C776 H746 0.950 . S
C776 C775 1.524 . S
C776 C777 1.415 . S
C777 H747 0.950 . S
C777 C772 1.363 . S
C777 C776 1.415 . S
H778 C775 0.999 . S
H779 C760 0.913 . S
H780 C798 0.951 . S
H781 C800 0.951 . S
H782 C802 0.950 . S
H783 C803 0.950 . S
H784 C805 0.950 . S
H785 C808 0.950 . S
H786 C809 0.950 . S
H787 C811 0.950 . S
H788 C812 0.950 . S
H789 C813 0.951 . S
H790 C815 0.951 . S
H791 C817 0.950 . S
H792 C818 0.950 . S
H793 C820 0.950 . S
H794 C823 0.950 . S
H795 C824 0.950 . S
H796 C826 0.950 . S
H797 C827 0.950 . S
C798 H780 0.951 . S
C798 C799 1.366 . S
C798 C800 1.388 . S
C799 C798 1.366 . S
C799 C803 1.385 1_545 S
C800 H781 0.951 . S
C800 C798 1.388 . S
C800 C801 1.410 . S
C801 C800 1.410 . S
C801 C802 1.396 1_545 S
C801 C804 1.472 1_545 S
C802 H782 0.950 . S
C802 C801 1.396 1_565 S
C802 C803 1.374 . S
C803 H783 0.950 . S
C803 C799 1.385 1_565 S
C803 C802 1.374 . S
C804 C801 1.472 1_565 S
C804 C805 1.375 . S
C804 C806 1.389 1_565 S
C805 H784 0.950 . S
C805 C804 1.375 . S
C805 C821 1.377 . S
C806 C804 1.389 1_545 S
C806 C807 1.524 . S
C806 C820 1.377 . S
C807 C806 1.524 . S
C807 C808 1.397 . S
C807 C812 1.363 . S
C808 H785 0.950 . S
C808 C807 1.397 . S
C808 C809 1.334 . S
C809 H786 0.950 . S
C809 C808 1.334 . S
C809 C810 1.287 . S
C810 C809 1.287 . S
C810 C811 1.524 . S
C810 H829 0.913 . S
C811 H787 0.950 . S
C811 C810 1.524 . S
C811 C812 1.415 . S
C812 H788 0.950 . S
C812 C807 1.363 . S
C812 C811 1.415 . S
C813 H789 0.951 . S
C813 C814 1.366 . S
C813 C815 1.388 . S
C814 C813 1.366 . S
C814 C818 1.385 1_565 S
C815 H790 0.951 . S
C815 C813 1.388 . S
C815 C816 1.366 . S
C816 C815 1.366 . S
C816 C817 1.414 1_565 S
C816 C819 1.539 . S
C817 H791 0.950 . S
C817 C816 1.414 1_545 S
C817 C818 1.374 . S
C818 H792 0.950 . S
C818 C814 1.385 1_545 S
C818 C817 1.374 . S
C819 C816 1.539 . S
C819 C820 1.282 1_565 S
C819 C821 1.441 . S
C820 H793 0.950 . S
C820 C806 1.377 . S
C820 C819 1.282 1_545 S
C821 C805 1.377 . S
C821 C819 1.441 . S
C821 C822 1.524 . S
C822 C821 1.524 . S
C822 C823 1.397 . S
C822 C827 1.363 . S
C823 H794 0.950 . S
C823 C822 1.397 . S
C823 C824 1.334 . S
C824 H795 0.950 . S
C824 C823 1.334 . S
C824 C825 1.287 . S
C825 C824 1.287 . S
C825 C826 1.524 . S
C825 H828 0.999 . S
C826 H796 0.950 . S
C826 C825 1.524 . S
C826 C827 1.415 . S
C827 H797 0.950 . S
C827 C822 1.363 . S
C827 C826 1.415 . S
H828 C825 0.999 . S
H829 C810 0.913 . S
H830 C848 0.951 . S
H831 C850 0.951 . S
H832 C852 0.950 . S
H833 C853 0.950 . S
H834 C855 0.950 . S
H835 C858 0.950 . S
H836 C859 0.950 . S
H837 C861 0.950 . S
H838 C862 0.950 . S
H839 C863 0.951 . S
H840 C865 0.951 . S
H841 C867 0.950 . S
H842 C868 0.950 . S
H843 C870 0.950 . S
H844 C873 0.950 . S
H845 C874 0.950 . S
H846 C876 0.950 . S
H847 C877 0.950 . S
C848 H830 0.951 . S
C848 C849 1.366 1_655 S
C848 C850 1.388 . S
C849 C848 1.366 1_455 S
C849 C853 1.385 . S
C850 H831 0.951 . S
C850 C848 1.388 . S
C850 C851 1.366 1_655 S
C851 C850 1.366 1_455 S
C851 C852 1.414 . S
C851 C854 1.499 . S
C852 H832 0.950 . S
C852 C851 1.414 . S
C852 C853 1.374 . S
C853 H833 0.950 . S
C853 C849 1.385 . S
C853 C852 1.374 . S
C854 C851 1.499 . S
C854 C855 1.373 . S
C854 C856 1.389 1_455 S
C855 H834 0.950 . S
C855 C854 1.373 . S
C855 C871 1.377 . S
C856 C854 1.389 1_655 S
C856 C857 1.524 . S
C856 C870 1.377 . S
C857 C856 1.524 . S
C857 C858 1.397 . S
C857 C862 1.363 . S
C858 H835 0.950 . S
C858 C857 1.397 . S
C858 C859 1.334 . S
C859 H836 0.950 . S
C859 C858 1.334 . S
C859 C860 1.287 . S
C860 C859 1.287 . S
C860 C861 1.524 . S
C860 H879 0.913 . S
C861 H837 0.950 . S
C861 C860 1.524 . S
C861 C862 1.415 . S
C862 H838 0.950 . S
C862 C857 1.363 . S
C862 C861 1.415 . S
C863 H839 0.951 . S
C863 C864 1.366 . S
C863 C865 1.388 . S
C864 C863 1.366 . S
C864 C868 1.385 1_455 S
C865 H840 0.951 . S
C865 C863 1.388 . S
C865 C866 1.366 . S
C866 C865 1.366 . S
C866 C867 1.414 1_455 S
C866 C869 1.499 . S
C867 H841 0.950 . S
C867 C866 1.414 1_655 S
C867 C868 1.374 . S
C868 H842 0.950 . S
C868 C864 1.385 1_655 S
C868 C867 1.374 . S
C869 C866 1.499 . S
C869 C870 1.373 1_455 S
C869 C871 1.389 . S
C870 H843 0.950 . S
C870 C856 1.377 . S
C870 C869 1.373 1_655 S
C871 C855 1.377 . S
C871 C869 1.389 . S
C871 C872 1.524 . S
C872 C871 1.524 . S
C872 C873 1.397 . S
C872 C877 1.363 . S
C873 H844 0.950 . S
C873 C872 1.397 . S
C873 C874 1.334 . S
C874 H845 0.950 . S
C874 C873 1.334 . S
C874 C875 1.287 . S
C875 C874 1.287 . S
C875 C876 1.524 . S
C875 H878 0.999 . S
C876 H846 0.950 . S
C876 C875 1.524 . S
C876 C877 1.415 . S
C877 H847 0.950 . S
C877 C872 1.363 . S
C877 C876 1.415 . S
H878 C875 0.999 . S
H879 C860 0.913 . S
H880 C898 0.951 . S
H881 C900 0.951 . S
H882 C902 0.950 . S
H883 C903 0.950 . S
H884 C905 0.950 . S
H885 C908 0.950 . S
H886 C909 0.950 . S
H887 C911 0.950 . S
H888 C912 0.950 . S
H889 C913 0.951 . S
H890 C915 0.951 . S
H891 C917 0.950 . S
H892 C918 0.950 . S
H893 C920 0.950 . S
H894 C923 0.950 . S
H895 C924 0.950 . S
H896 C926 0.950 . S
H897 C927 0.950 . S
C898 H880 0.951 . S
C898 C899 1.366 . S
C898 C900 1.388 . S
C899 C898 1.366 . S
C899 C903 1.385 . S
C900 H881 0.951 . S
C900 C898 1.388 . S
C900 C901 1.366 . S
C901 C900 1.366 . S
C901 C902 1.414 . S
C901 C904 1.499 . S
C902 H882 0.950 . S
C902 C901 1.414 . S
C902 C903 1.374 . S
C903 H883 0.950 . S
C903 C899 1.385 . S
C903 C902 1.374 . S
C904 C901 1.499 . S
C904 C905 1.373 . S
C904 C906 1.389 . S
C905 H884 0.950 . S
C905 C904 1.373 . S
C905 C921 1.377 . S
C906 C904 1.389 . S
C906 C907 1.524 . S
C906 C920 1.377 . S
C907 C906 1.524 . S
C907 C908 1.397 . S
C907 C912 1.363 . S
C908 H885 0.950 . S
C908 C907 1.397 . S
C908 C909 1.334 . S
C909 H886 0.950 . S
C909 C908 1.334 . S
C909 C910 1.287 . S
C910 C909 1.287 . S
C910 C911 1.524 . S
C910 H929 0.913 . S
C911 H887 0.950 . S
C911 C910 1.524 . S
C911 C912 1.415 . S
C912 H888 0.950 . S
C912 C907 1.363 . S
C912 C911 1.415 . S
C913 H889 0.951 . S
C913 C914 1.366 . S
C913 C915 1.388 . S
C914 C913 1.366 . S
C914 C918 1.385 . S
C915 H890 0.951 . S
C915 C913 1.388 . S
C915 C916 1.366 . S
C916 C915 1.366 . S
C916 C917 1.414 . S
C916 C919 1.499 . S
C917 H891 0.950 . S
C917 C916 1.414 . S
C917 C918 1.374 . S
C918 H892 0.950 . S
C918 C914 1.385 . S
C918 C917 1.374 . S
C919 C916 1.499 . S
C919 C920 1.373 . S
C919 C921 1.389 . S
C920 H893 0.950 . S
C920 C906 1.377 . S
C920 C919 1.373 . S
C921 C905 1.377 . S
C921 C919 1.389 . S
C921 C922 1.524 . S
C922 C921 1.524 . S
C922 C923 1.397 . S
C922 C927 1.363 . S
C923 H894 0.950 . S
C923 C922 1.397 . S
C923 C924 1.334 . S
C924 H895 0.950 . S
C924 C923 1.334 . S
C924 C925 1.287 . S
C925 C924 1.287 . S
C925 C926 1.524 . S
C925 H928 0.999 . S
C926 H896 0.950 . S
C926 C925 1.524 . S
C926 C927 1.415 . S
C927 H897 0.950 . S
C927 C922 1.363 . S
C927 C926 1.415 . S
H928 C925 0.999 . S
H929 C910 0.913 . S
H930 C948 0.951 . S
H931 C950 0.951 . S
H932 C952 0.950 . S
H933 C953 0.950 . S
H934 C955 0.950 . S
H935 C958 0.950 . S
H936 C959 0.950 . S
H937 C961 0.950 . S
H938 C962 0.950 . S
H939 C963 0.951 . S
H940 C965 0.951 . S
H941 C967 0.950 . S
H942 C968 0.950 . S
H943 C970 0.950 . S
H944 C973 0.950 . S
H945 C974 0.950 . S
H946 C976 0.950 . S
H947 C977 0.950 . S
C948 H930 0.951 . S
C948 C949 1.366 1_655 S
C948 C950 1.388 . S
C949 C948 1.366 1_455 S
C949 C953 1.385 . S
C950 H931 0.951 . S
C950 C948 1.388 . S
C950 C951 1.366 1_655 S
C951 C950 1.366 1_455 S
C951 C952 1.414 . S
C951 C954 1.499 . S
C952 H932 0.950 . S
C952 C951 1.414 . S
C952 C953 1.374 . S
C953 H933 0.950 . S
C953 C949 1.385 . S
C953 C952 1.374 . S
C954 C951 1.499 . S
C954 C955 1.373 . S
C954 C956 1.389 1_455 S
C955 H934 0.950 . S
C955 C954 1.373 . S
C955 C971 1.377 . S
C956 C954 1.389 1_655 S
C956 C957 1.524 . S
C956 C970 1.377 . S
C957 C956 1.524 . S
C957 C958 1.397 . S
C957 C962 1.363 . S
C958 H935 0.950 . S
C958 C957 1.397 . S
C958 C959 1.334 . S
C959 H936 0.950 . S
C959 C958 1.334 . S
C959 C960 1.287 . S
C960 C959 1.287 . S
C960 C961 1.524 . S
C960 H979 0.913 . S
C961 H937 0.950 . S
C961 C960 1.524 . S
C961 C962 1.415 . S
C962 H938 0.950 . S
C962 C957 1.363 . S
C962 C961 1.415 . S
C963 H939 0.951 . S
C963 C964 1.380 . S
C963 C965 1.388 . S
C964 C963 1.380 . S
C964 C968 1.361 1_455 S
C965 H940 0.951 . S
C965 C963 1.388 . S
C965 C966 1.437 . S
C966 C965 1.437 . S
C966 C967 1.373 1_455 S
C966 C969 1.488 . S
C967 H941 0.950 . S
C967 C966 1.373 1_655 S
C967 C968 1.374 . S
C968 H942 0.950 . S
C968 C964 1.361 1_655 S
C968 C967 1.374 . S
C969 C966 1.488 . S
C969 C970 1.346 1_455 S
C969 C971 1.401 . S
C970 H943 0.950 . S
C970 C956 1.377 . S
C970 C969 1.346 1_655 S
C971 C955 1.377 . S
C971 C969 1.401 . S
C971 C972 1.524 . S
C972 C971 1.524 . S
C972 C973 1.397 . S
C972 C977 1.363 . S
C973 H944 0.950 . S
C973 C972 1.397 . S
C973 C974 1.334 . S
C974 H945 0.950 . S
C974 C973 1.334 . S
C974 C975 1.287 . S
C975 C974 1.287 . S
C975 C976 1.524 . S
C975 H978 0.999 . S
C976 H946 0.950 . S
C976 C975 1.524 . S
C976 C977 1.415 . S
C977 H947 0.950 . S
C977 C972 1.363 . S
C977 C976 1.415 . S
H978 C975 0.999 . S
H979 C960 0.913 . S
H980 C998 0.951 . S
H981 C1000 0.951 . S
H982 C1002 0.950 . S
H983 C1003 0.950 . S
H984 C1005 0.950 . S
H985 C1008 0.950 . S
H986 C1009 0.950 . S
H987 C1011 0.950 . S
H988 C1012 0.950 . S
H989 C1013 0.951 . S
H990 C1015 0.951 . S
H991 C1017 0.950 . S
H992 C1018 0.950 . S
H993 C1020 0.950 . S
H994 C1023 0.950 . S
H995 C1024 0.950 . S
H996 C1026 0.950 . S
H997 C1027 0.950 . S
C998 H980 0.951 . S
C998 C999 1.366 . S
C998 C1000 1.388 . S
C999 C998 1.366 . S
C999 C1003 1.385 . S
C1000 H981 0.951 . S
C1000 C998 1.388 . S
C1000 C1001 1.366 . S
C1001 C1000 1.366 . S
C1001 C1002 1.414 . S
C1001 C1004 1.499 . S
C1002 H982 0.950 . S
C1002 C1001 1.414 . S
C1002 C1003 1.374 . S
C1003 H983 0.950 . S
C1003 C999 1.385 . S
C1003 C1002 1.374 . S
C1004 C1001 1.499 . S
C1004 C1005 1.373 . S
C1004 C1006 1.389 . S
C1005 H984 0.950 . S
C1005 C1004 1.373 . S
C1005 C1021 1.377 . S
C1006 C1004 1.389 . S
C1006 C1007 1.524 . S
C1006 C1020 1.377 . S
C1007 C1006 1.524 . S
C1007 C1008 1.397 . S
C1007 C1012 1.363 . S
C1008 H985 0.950 . S
C1008 C1007 1.397 . S
C1008 C1009 1.334 . S
C1009 H986 0.950 . S
C1009 C1008 1.334 . S
C1009 C1010 1.287 . S
C1010 C1009 1.287 . S
C1010 C1011 1.524 . S
C1010 H1029 0.913 . S
C1011 H987 0.950 . S
C1011 C1010 1.524 . S
C1011 C1012 1.415 . S
C1012 H988 0.950 . S
C1012 C1007 1.363 . S
C1012 C1011 1.415 . S
C1013 H989 0.951 . S
C1013 C1014 1.366 . S
C1013 C1015 1.388 . S
C1014 C1013 1.366 . S
C1014 C1018 1.385 . S
C1015 H990 0.951 . S
C1015 C1013 1.388 . S
C1015 C1016 1.366 . S
C1016 C1015 1.366 . S
C1016 C1017 1.414 . S
C1016 C1019 1.499 . S
C1017 H991 0.950 . S
C1017 C1016 1.414 . S
C1017 C1018 1.374 . S
C1018 H992 0.950 . S
C1018 C1014 1.385 . S
C1018 C1017 1.374 . S
C1019 C1016 1.499 . S
C1019 C1020 1.373 . S
C1019 C1021 1.389 . S
C1020 H993 0.950 . S
C1020 C1006 1.377 . S
C1020 C1019 1.373 . S
C1021 C1005 1.377 . S
C1021 C1019 1.389 . S
C1021 C1022 1.524 . S
C1022 C1021 1.524 . S
C1022 C1023 1.397 . S
C1022 C1027 1.363 . S
C1023 H994 0.950 . S
C1023 C1022 1.397 . S
C1023 C1024 1.334 . S
C1024 H995 0.950 . S
C1024 C1023 1.334 . S
C1024 C1025 1.287 . S
C1025 C1024 1.287 . S
C1025 C1026 1.524 . S
C1025 H1028 0.999 . S
C1026 H996 0.950 . S
C1026 C1025 1.524 . S
C1026 C1027 1.415 . S
C1027 H997 0.950 . S
C1027 C1022 1.363 . S
C1027 C1026 1.415 . S
H1028 C1025 0.999 . S
H1029 C1010 0.913 . S
H1030 C1048 0.951 . S
H1031 C1050 0.951 . S
H1032 C1052 0.950 . S
H1033 C1053 0.950 . S
H1034 C1055 0.950 . S
H1035 C1058 0.950 . S
H1036 C1059 0.950 . S
H1037 C1061 0.950 . S
H1038 C1062 0.950 . S
H1039 C1063 0.951 . S
H1040 C1065 0.951 . S
H1041 C1067 0.950 . S
H1042 C1068 0.950 . S
H1043 C1070 0.950 . S
H1044 C1073 0.950 . S
H1045 C1074 0.950 . S
H1046 C1076 0.950 . S
H1047 C1077 0.950 . S
C1048 H1030 0.951 . S
C1048 C1049 1.366 1_545 S
C1048 C1050 1.388 . S
C1049 C1048 1.366 1_565 S
C1049 C1053 1.385 . S
C1050 H1031 0.951 . S
C1050 C1048 1.388 . S
C1050 C1051 1.366 1_545 S
C1051 C1050 1.366 1_565 S
C1051 C1052 1.414 . S
C1051 C1054 1.499 . S
C1052 H1032 0.950 . S
C1052 C1051 1.414 . S
C1052 C1053 1.374 . S
C1053 H1033 0.950 . S
C1053 C1049 1.385 . S
C1053 C1052 1.374 . S
C1054 C1051 1.499 . S
C1054 C1055 1.373 . S
C1054 C1056 1.389 1_565 S
C1055 H1034 0.950 . S
C1055 C1054 1.373 . S
C1055 C1071 1.377 . S
C1056 C1054 1.389 1_545 S
C1056 C1057 1.524 . S
C1056 C1070 1.377 . S
C1057 C1056 1.524 . S
C1057 C1058 1.397 1_545 S
C1057 C1062 1.363 . S
C1058 H1035 0.950 . S
C1058 C1057 1.397 1_565 S
C1058 C1059 1.334 . S
C1059 H1036 0.950 . S
C1059 C1058 1.334 . S
C1059 C1060 1.287 1_565 S
C1060 C1059 1.287 1_545 S
C1060 C1061 1.524 . S
C1060 H1079 0.913 1_556 S
C1061 H1037 0.950 . S
C1061 C1060 1.524 . S
C1061 C1062 1.415 . S
C1062 H1038 0.950 . S
C1062 C1057 1.363 . S
C1062 C1061 1.415 . S
C1063 H1039 0.951 . S
C1063 C1064 1.400 . S
C1063 C1065 1.388 . S
C1064 C1063 1.400 . S
C1064 C1068 1.365 1_565 S
C1065 H1040 0.951 . S
C1065 C1063 1.388 . S
C1065 C1066 1.369 . S
C1066 C1065 1.369 . S
C1066 C1067 1.407 1_565 S
C1066 C1069 1.505 1_565 S
C1067 H1041 0.950 . S
C1067 C1066 1.407 1_545 S
C1067 C1068 1.374 . S
C1068 H1042 0.950 . S
C1068 C1064 1.365 1_545 S
C1068 C1067 1.374 . S
C1069 C1066 1.505 1_545 S
C1069 C1070 1.375 . S
C1069 C1071 1.383 1_545 S
C1070 H1043 0.950 . S
C1070 C1056 1.377 . S
C1070 C1069 1.375 . S
C1071 C1055 1.377 . S
C1071 C1069 1.383 1_565 S
C1071 C1072 1.524 . S
C1072 C1071 1.524 . S
C1072 C1073 1.397 1_565 S
C1072 C1077 1.363 . S
C1073 H1044 0.950 . S
C1073 C1072 1.397 1_545 S
C1073 C1074 1.334 . S
C1074 H1045 0.950 . S
C1074 C1073 1.334 . S
C1074 C1075 1.287 1_545 S
C1075 C1074 1.287 1_565 S
C1075 C1076 1.524 . S
C1075 H1078 0.999 . S
C1076 H1046 0.950 . S
C1076 C1075 1.524 . S
C1076 C1077 1.415 . S
C1077 H1047 0.950 . S
C1077 C1072 1.363 . S
C1077 C1076 1.415 . S
H1078 C1075 0.999 . S
H1079 C1060 0.913 1_554 S
H1080 C1098 0.951 . S
H1081 C1100 0.951 . S
H1082 C1102 0.950 . S
H1083 C1103 0.950 . S
H1084 C1105 0.950 . S
H1085 C1108 0.950 . S
H1086 C1109 0.950 . S
H1087 C1111 0.950 . S
H1088 C1112 0.950 . S
H1089 C1113 0.971 . S
H1090 C1115 0.946 . S
H1091 C1117 0.950 . S
H1092 C1118 0.950 . S
H1093 C1120 0.950 . S
H1094 C1123 0.950 . S
H1095 C1124 0.950 . S
H1096 C1126 0.950 . S
H1097 C1127 0.950 . S
C1098 H1080 0.951 . S
C1098 C1099 1.366 . S
C1098 C1100 1.388 . S
C1099 C1098 1.366 . S
C1099 C1103 1.385 . S
C1100 H1081 0.951 . S
C1100 C1098 1.388 . S
C1100 C1101 1.326 . S
C1101 C1100 1.326 . S
C1101 C1102 1.427 . S
C1101 C1104 1.511 . S
C1102 H1082 0.950 . S
C1102 C1101 1.427 . S
C1102 C1103 1.374 . S
C1103 H1083 0.950 . S
C1103 C1099 1.385 . S
C1103 C1102 1.374 . S
C1104 C1101 1.511 . S
C1104 C1105 1.431 . S
C1104 C1106 1.359 1_545 S
C1105 H1084 0.950 . S
C1105 C1104 1.431 . S
C1105 C1121 1.377 . S
C1106 C1104 1.359 1_565 S
C1106 C1107 1.524 . S
C1106 C1120 1.377 . S
C1107 C1106 1.524 . S
C1107 C1108 1.397 . S
C1107 C1112 1.363 . S
C1108 H1085 0.950 . S
C1108 C1107 1.397 . S
C1108 C1109 1.334 . S
C1109 H1086 0.950 . S
C1109 C1108 1.334 . S
C1109 C1110 1.287 . S
C1110 C1109 1.287 . S
C1110 C1111 1.524 . S
C1110 H1129 0.913 . S
C1111 H1087 0.950 . S
C1111 C1110 1.524 . S
C1111 C1112 1.415 . S
C1112 H1088 0.950 . S
C1112 C1107 1.363 . S
C1112 C1111 1.415 . S
C1113 H1089 0.971 . S
C1113 C1114 1.366 . S
C1113 C1115 1.376 . S
C1114 C1113 1.366 . S
C1114 C1118 1.368 . S
C1115 H1090 0.946 . S
C1115 C1113 1.376 . S
C1115 C1116 1.366 . S
C1116 C1115 1.366 . S
C1116 C1117 1.414 . S
C1116 C1119 1.499 . S
C1117 H1091 0.950 . S
C1117 C1116 1.414 . S
C1117 C1118 1.374 . S
C1118 H1092 0.950 . S
C1118 C1114 1.368 . S
C1118 C1117 1.374 . S
C1119 C1116 1.499 . S
C1119 C1120 1.373 1_545 S
C1119 C1121 1.389 . S
C1120 H1093 0.950 . S
C1120 C1106 1.377 . S
C1120 C1119 1.373 1_565 S
C1121 C1105 1.377 . S
C1121 C1119 1.389 . S
C1121 C1122 1.524 . S
C1122 C1121 1.524 . S
C1122 C1123 1.397 . S
C1122 C1127 1.363 . S
C1123 H1094 0.950 . S
C1123 C1122 1.397 . S
C1123 C1124 1.334 . S
C1124 H1095 0.950 . S
C1124 C1123 1.334 . S
C1124 C1125 1.287 . S
C1125 C1124 1.287 . S
C1125 C1126 1.524 . S
C1125 H1128 0.999 . S
C1126 H1096 0.950 . S
C1126 C1125 1.524 . S
C1126 C1127 1.415 . S
C1127 H1097 0.950 . S
C1127 C1122 1.363 . S
C1127 C1126 1.415 . S
H1128 C1125 0.999 . S
H1129 C1110 0.913 . S
H1130 C1148 0.951 . S
H1131 C1150 0.951 . S
H1132 C1152 0.950 . S
H1133 C1153 0.950 . S
H1134 C1155 0.950 . S
H1135 C1158 0.950 1_655 S
H1136 C1159 0.950 . S
H1137 C1161 0.950 . S
H1138 C1162 0.950 . S
H1139 C1163 0.951 . S
H1140 C1165 0.951 . S
H1141 C1167 0.950 . S
H1142 C1168 0.950 . S
H1143 C1170 0.950 . S
H1144 C1173 0.950 1_455 S
H1145 C1174 0.950 . S
H1146 C1176 0.950 . S
H1147 C1177 0.950 . S
C1148 H1130 0.951 . S
C1148 C1149 1.284 1_455 S
C1148 C1150 1.388 . S
C1149 C1148 1.284 1_655 S
C1149 C1153 1.435 . S
C1150 H1131 0.951 . S
C1150 C1148 1.388 . S
C1150 C1151 1.366 1_455 S
C1151 C1150 1.366 1_655 S
C1151 C1152 1.414 . S
C1151 C1154 1.499 . S
C1152 H1132 0.950 . S
C1152 C1151 1.414 . S
C1152 C1153 1.374 . S
C1153 H1133 0.950 . S
C1153 C1149 1.435 . S
C1153 C1152 1.374 . S
C1154 C1151 1.499 . S
C1154 C1155 1.373 . S
C1154 C1156 1.389 1_655 S
C1155 H1134 0.950 . S
C1155 C1154 1.373 . S
C1155 C1171 1.377 . S
C1156 C1154 1.389 1_455 S
C1156 C1157 1.524 . S
C1156 C1170 1.377 . S
C1157 C1156 1.524 . S
C1157 C1158 1.397 . S
C1157 C1162 1.363 . S
C1158 H1135 0.950 1_455 S
C1158 C1157 1.397 . S
C1158 C1159 1.334 . S
C1159 H1136 0.950 . S
C1159 C1158 1.334 . S
C1159 C1160 1.287 . S
C1160 C1159 1.287 . S
C1160 C1161 1.524 . S
C1160 H1179 0.913 . S
C1161 H1137 0.950 . S
C1161 C1160 1.524 . S
C1161 C1162 1.415 . S
C1162 H1138 0.950 . S
C1162 C1157 1.363 . S
C1162 C1161 1.415 . S
C1163 H1139 0.951 . S
C1163 C1164 1.412 . S
C1163 C1165 1.388 . S
C1164 C1163 1.412 . S
C1164 C1168 1.357 1_655 S
C1165 H1140 0.951 . S
C1165 C1163 1.388 . S
C1165 C1166 1.387 . S
C1166 C1165 1.387 . S
C1166 C1167 1.378 1_655 S
C1166 C1169 1.515 . S
C1167 H1141 0.950 . S
C1167 C1166 1.378 1_455 S
C1167 C1168 1.374 . S
C1168 H1142 0.950 . S
C1168 C1164 1.357 1_455 S
C1168 C1167 1.374 . S
C1169 C1166 1.515 . S
C1169 C1170 1.376 1_655 S
C1169 C1171 1.384 . S
C1170 H1143 0.950 . S
C1170 C1156 1.377 . S
C1170 C1169 1.376 1_455 S
C1171 C1155 1.377 . S
C1171 C1169 1.384 . S
C1171 C1172 1.524 . S
C1172 C1171 1.524 . S
C1172 C1173 1.397 . S
C1172 C1177 1.363 . S
C1173 H1144 0.950 1_655 S
C1173 C1172 1.397 . S
C1173 C1174 1.334 . S
C1174 H1145 0.950 . S
C1174 C1173 1.334 . S
C1174 C1175 1.287 . S
C1175 C1174 1.287 . S
C1175 C1176 1.524 . S
C1175 H1178 0.999 . S
C1176 H1146 0.950 . S
C1176 C1175 1.524 . S
C1176 C1177 1.415 . S
C1177 H1147 0.950 . S
C1177 C1172 1.363 . S
C1177 C1176 1.415 . S
H1178 C1175 0.999 . S
H1179 C1160 0.913 . S
H1180 C1198 0.951 . S
H1181 C1200 0.951 . S
H1182 C1202 0.950 . S
H1183 C1203 0.950 . S
H1184 C1205 0.950 . S
H1185 C1208 0.950 . S
H1186 C1209 0.950 . S
H1187 C1211 0.950 . S
H1188 C1212 0.950 . S
H1189 C1213 0.951 . S
H1190 C1215 0.951 . S
H1191 C1217 0.950 . S
H1192 C1218 0.950 . S
H1193 C1220 0.950 . S
H1194 C1223 0.950 . S
H1195 C1224 0.950 . S
H1196 C1226 0.950 . S
H1197 C1227 0.950 . S
C1198 H1180 0.951 . S
C1198 C1199 1.366 . S
C1198 C1200 1.388 . S
C1199 C1198 1.366 . S
C1199 C1203 1.385 . S
C1200 H1181 0.951 . S
C1200 C1198 1.388 . S
C1200 C1201 1.366 . S
C1201 C1200 1.366 . S
C1201 C1202 1.414 . S
C1201 C1204 1.499 . S
C1202 H1182 0.950 . S
C1202 C1201 1.414 . S
C1202 C1203 1.374 . S
C1203 H1183 0.950 . S
C1203 C1199 1.385 . S
C1203 C1202 1.374 . S
C1204 C1201 1.499 . S
C1204 C1205 1.373 . S
C1204 C1206 1.389 . S
C1205 H1184 0.950 . S
C1205 C1204 1.373 . S
C1205 C1221 1.377 . S
C1206 C1204 1.389 . S
C1206 C1207 1.524 . S
C1206 C1220 1.377 . S
C1207 C1206 1.524 . S
C1207 C1208 1.397 . S
C1207 C1212 1.363 . S
C1208 H1185 0.950 . S
C1208 C1207 1.397 . S
C1208 C1209 1.334 . S
C1209 H1186 0.950 . S
C1209 C1208 1.334 . S
C1209 C1210 1.287 . S
C1210 C1209 1.287 . S
C1210 C1211 1.524 . S
C1210 H1229 0.913 . S
C1211 H1187 0.950 . S
C1211 C1210 1.524 . S
C1211 C1212 1.415 . S
C1212 H1188 0.950 . S
C1212 C1207 1.363 . S
C1212 C1211 1.415 . S
C1213 H1189 0.951 . S
C1213 C1214 1.366 . S
C1213 C1215 1.388 . S
C1214 C1213 1.366 . S
C1214 C1218 1.385 . S
C1215 H1190 0.951 . S
C1215 C1213 1.388 . S
C1215 C1216 1.366 . S
C1216 C1215 1.366 . S
C1216 C1217 1.414 . S
C1216 C1219 1.499 . S
C1217 H1191 0.950 . S
C1217 C1216 1.414 . S
C1217 C1218 1.374 . S
C1218 H1192 0.950 . S
C1218 C1214 1.385 . S
C1218 C1217 1.374 . S
C1219 C1216 1.499 . S
C1219 C1220 1.373 . S
C1219 C1221 1.389 . S
C1220 H1193 0.950 . S
C1220 C1206 1.377 . S
C1220 C1219 1.373 . S
C1221 C1205 1.377 . S
C1221 C1219 1.389 . S
C1221 C1222 1.524 . S
C1222 C1221 1.524 . S
C1222 C1223 1.397 . S
C1222 C1227 1.363 . S
C1223 H1194 0.950 . S
C1223 C1222 1.397 . S
C1223 C1224 1.334 . S
C1224 H1195 0.950 . S
C1224 C1223 1.334 . S
C1224 C1225 1.287 . S
C1225 C1224 1.287 . S
C1225 C1226 1.524 . S
C1225 H1228 0.999 . S
C1226 H1196 0.950 . S
C1226 C1225 1.524 . S
C1226 C1227 1.415 . S
C1227 H1197 0.950 . S
C1227 C1222 1.363 . S
C1227 C1226 1.415 . S
H1228 C1225 0.999 . S
H1229 C1210 0.913 . S
H1230 C1248 0.951 . S
H1231 C1250 0.951 . S
H1232 C1252 0.950 . S
H1233 C1253 0.950 . S
H1234 C1255 0.950 . S
H1235 C1258 0.950 . S
H1236 C1259 0.950 . S
H1237 C1261 0.950 . S
H1238 C1262 0.950 . S
H1239 C1263 0.951 . S
H1240 C1265 0.951 . S
H1241 C1267 0.950 . S
H1242 C1268 0.950 . S
H1243 C1270 0.950 . S
H1244 C1273 0.950 . S
H1245 C1274 0.950 . S
H1246 C1276 0.950 . S
H1247 C1277 0.950 . S
C1248 H1230 0.951 . S
C1248 C1249 1.366 . S
C1248 C1250 1.388 . S
C1249 C1248 1.366 . S
C1249 C1253 1.385 . S
C1250 H1231 0.951 . S
C1250 C1248 1.388 . S
C1250 C1251 1.366 . S
C1251 C1250 1.366 . S
C1251 C1252 1.414 . S
C1251 C1254 1.499 . S
C1252 H1232 0.950 . S
C1252 C1251 1.414 . S
C1252 C1253 1.374 . S
C1253 H1233 0.950 . S
C1253 C1249 1.385 . S
C1253 C1252 1.374 . S
C1254 C1251 1.499 . S
C1254 C1255 1.373 . S
C1254 C1256 1.389 . S
C1255 H1234 0.950 . S
C1255 C1254 1.373 . S
C1255 C1271 1.377 . S
C1256 C1254 1.389 . S
C1256 C1257 1.524 . S
C1256 C1270 1.377 . S
C1257 C1256 1.524 . S
C1257 C1258 1.397 . S
C1257 C1262 1.363 . S
C1258 H1235 0.950 . S
C1258 C1257 1.397 . S
C1258 C1259 1.334 . S
C1259 H1236 0.950 . S
C1259 C1258 1.334 . S
C1259 C1260 1.287 . S
C1260 C1259 1.287 . S
C1260 C1261 1.524 . S
C1260 H1279 0.913 . S
C1261 H1237 0.950 . S
C1261 C1260 1.524 . S
C1261 C1262 1.415 . S
C1262 H1238 0.950 . S
C1262 C1257 1.363 . S
C1262 C1261 1.415 . S
C1263 H1239 0.951 . S
C1263 C1264 1.366 . S
C1263 C1265 1.388 . S
C1264 C1263 1.366 . S
C1264 C1268 1.385 . S
C1265 H1240 0.951 . S
C1265 C1263 1.388 . S
C1265 C1266 1.366 . S
C1266 C1265 1.366 . S
C1266 C1267 1.414 . S
C1266 C1269 1.499 . S
C1267 H1241 0.950 . S
C1267 C1266 1.414 . S
C1267 C1268 1.374 . S
C1268 H1242 0.950 . S
C1268 C1264 1.385 . S
C1268 C1267 1.374 . S
C1269 C1266 1.499 . S
C1269 C1270 1.373 . S
C1269 C1271 1.389 . S
C1270 H1243 0.950 . S
C1270 C1256 1.377 . S
C1270 C1269 1.373 . S
C1271 C1255 1.377 . S
C1271 C1269 1.389 . S
C1271 C1272 1.524 . S
C1272 C1271 1.524 . S
C1272 C1273 1.397 . S
C1272 C1277 1.363 . S
C1273 H1244 0.950 . S
C1273 C1272 1.397 . S
C1273 C1274 1.334 . S
C1274 H1245 0.950 . S
C1274 C1273 1.334 . S
C1274 C1275 1.287 . S
C1275 C1274 1.287 . S
C1275 C1276 1.524 . S
C1275 H1278 0.999 . S
C1276 H1246 0.950 . S
C1276 C1275 1.524 . S
C1276 C1277 1.415 . S
C1277 H1247 0.950 . S
C1277 C1272 1.363 . S
C1277 C1276 1.415 . S
H1278 C1275 0.999 . S
H1279 C1260 0.913 . S
H1280 C1298 0.951 . S
H1281 C1300 0.951 . S
H1282 C1302 0.950 . S
H1283 C1303 0.950 . S
H1284 C1305 0.950 . S
H1285 C1308 0.950 . S
H1286 C1309 0.950 . S
H1287 C1311 0.950 . S
H1288 C1312 0.950 . S
H1289 C1313 0.951 . S
H1290 C1315 0.951 . S
H1291 C1317 0.950 . S
H1292 C1318 0.950 . S
H1293 C1320 0.950 . S
H1294 C1323 0.950 . S
H1295 C1324 0.950 . S
H1296 C1326 0.950 . S
H1297 C1327 0.950 . S
C1298 H1280 0.951 . S
C1298 C1299 1.366 . S
C1298 C1300 1.388 . S
C1299 C1298 1.366 . S
C1299 C1303 1.385 . S
C1300 H1281 0.951 . S
C1300 C1298 1.388 . S
C1300 C1301 1.366 . S
C1301 C1300 1.366 . S
C1301 C1302 1.414 . S
C1301 C1304 1.499 . S
C1302 H1282 0.950 . S
C1302 C1301 1.414 . S
C1302 C1303 1.374 . S
C1303 H1283 0.950 . S
C1303 C1299 1.385 . S
C1303 C1302 1.374 . S
C1304 C1301 1.499 . S
C1304 C1305 1.373 . S
C1304 C1306 1.389 . S
C1305 H1284 0.950 . S
C1305 C1304 1.373 . S
C1305 C1321 1.377 . S
C1306 C1304 1.389 . S
C1306 C1307 1.524 . S
C1306 C1320 1.377 . S
C1307 C1306 1.524 . S
C1307 C1308 1.397 . S
C1307 C1312 1.363 . S
C1308 H1285 0.950 . S
C1308 C1307 1.397 . S
C1308 C1309 1.334 . S
C1309 H1286 0.950 . S
C1309 C1308 1.334 . S
C1309 C1310 1.287 . S
C1310 C1309 1.287 . S
C1310 C1311 1.524 . S
C1310 H1329 0.913 . S
C1311 H1287 0.950 . S
C1311 C1310 1.524 . S
C1311 C1312 1.415 . S
C1312 H1288 0.950 . S
C1312 C1307 1.363 . S
C1312 C1311 1.415 . S
C1313 H1289 0.951 . S
C1313 C1314 1.366 . S
C1313 C1315 1.388 . S
C1314 C1313 1.366 . S
C1314 C1318 1.385 . S
C1315 H1290 0.951 . S
C1315 C1313 1.388 . S
C1315 C1316 1.366 . S
C1316 C1315 1.366 . S
C1316 C1317 1.414 . S
C1316 C1319 1.499 . S
C1317 H1291 0.950 . S
C1317 C1316 1.414 . S
C1317 C1318 1.374 . S
C1318 H1292 0.950 . S
C1318 C1314 1.385 . S
C1318 C1317 1.374 . S
C1319 C1316 1.499 . S
C1319 C1320 1.373 . S
C1319 C1321 1.389 . S
C1320 H1293 0.950 . S
C1320 C1306 1.377 . S
C1320 C1319 1.373 . S
C1321 C1305 1.377 . S
C1321 C1319 1.389 . S
C1321 C1322 1.524 . S
C1322 C1321 1.524 . S
C1322 C1323 1.397 . S
C1322 C1327 1.363 . S
C1323 H1294 0.950 . S
C1323 C1322 1.397 . S
C1323 C1324 1.334 . S
C1324 H1295 0.950 . S
C1324 C1323 1.334 . S
C1324 C1325 1.287 . S
C1325 C1324 1.287 . S
C1325 C1326 1.524 . S
C1325 H1328 0.999 . S
C1326 H1296 0.950 . S
C1326 C1325 1.524 . S
C1326 C1327 1.415 . S
C1327 H1297 0.950 . S
C1327 C1322 1.363 . S
C1327 C1326 1.415 . S
H1328 C1325 0.999 . S
H1329 C1310 0.913 . S
H1330 C1348 0.951 . S
H1331 C1350 0.951 . S
H1332 C1352 0.950 . S
H1333 C1353 0.950 . S
H1334 C1355 0.950 . S
H1335 C1358 0.950 . S
H1336 C1359 0.950 . S
H1337 C1361 0.950 . S
H1338 C1362 0.950 . S
H1339 C1363 0.951 . S
H1340 C1365 0.951 . S
H1341 C1367 0.950 . S
H1342 C1368 0.950 . S
H1343 C1370 0.950 . S
H1344 C1373 0.950 . S
H1345 C1374 0.950 . S
H1346 C1376 0.950 . S
H1347 C1377 0.950 . S
C1348 H1330 0.951 . S
C1348 C1349 1.366 . S
C1348 C1350 1.388 . S
C1349 C1348 1.366 . S
C1349 C1353 1.385 . S
C1350 H1331 0.951 . S
C1350 C1348 1.388 . S
C1350 C1351 1.366 . S
C1351 C1350 1.366 . S
C1351 C1352 1.414 . S
C1351 C1354 1.499 . S
C1352 H1332 0.950 . S
C1352 C1351 1.414 . S
C1352 C1353 1.374 . S
C1353 H1333 0.950 . S
C1353 C1349 1.385 . S
C1353 C1352 1.374 . S
C1354 C1351 1.499 . S
C1354 C1355 1.373 . S
C1354 C1356 1.389 . S
C1355 H1334 0.950 . S
C1355 C1354 1.373 . S
C1355 C1371 1.377 . S
C1356 C1354 1.389 . S
C1356 C1357 1.524 . S
C1356 C1370 1.377 . S
C1357 C1356 1.524 . S
C1357 C1358 1.397 . S
C1357 C1362 1.363 . S
C1358 H1335 0.950 . S
C1358 C1357 1.397 . S
C1358 C1359 1.334 . S
C1359 H1336 0.950 . S
C1359 C1358 1.334 . S
C1359 C1360 1.287 . S
C1360 C1359 1.287 . S
C1360 C1361 1.524 . S
C1360 H1379 0.913 . S
C1361 H1337 0.950 . S
C1361 C1360 1.524 . S
C1361 C1362 1.415 . S
C1362 H1338 0.950 . S
C1362 C1357 1.363 . S
C1362 C1361 1.415 . S
C1363 H1339 0.951 . S
C1363 C1364 1.366 . S
C1363 C1365 1.388 . S
C1364 C1363 1.366 . S
C1364 C1368 1.385 . S
C1365 H1340 0.951 . S
C1365 C1363 1.388 . S
C1365 C1366 1.366 . S
C1366 C1365 1.366 . S
C1366 C1367 1.414 . S
C1366 C1369 1.499 . S
C1367 H1341 0.950 . S
C1367 C1366 1.414 . S
C1367 C1368 1.374 . S
C1368 H1342 0.950 . S
C1368 C1364 1.385 . S
C1368 C1367 1.374 . S
C1369 C1366 1.499 . S
C1369 C1370 1.373 . S
C1369 C1371 1.389 . S
C1370 H1343 0.950 . S
C1370 C1356 1.377 . S
C1370 C1369 1.373 . S
C1371 C1355 1.377 . S
C1371 C1369 1.389 . S
C1371 C1372 1.524 . S
C1372 C1371 1.524 . S
C1372 C1373 1.397 . S
C1372 C1377 1.363 . S
C1373 H1344 0.950 . S
C1373 C1372 1.397 . S
C1373 C1374 1.334 . S
C1374 H1345 0.950 . S
C1374 C1373 1.334 . S
C1374 C1375 1.287 . S
C1375 C1374 1.287 . S
C1375 C1376 1.524 . S
C1375 H1378 0.999 . S
C1376 H1346 0.950 . S
C1376 C1375 1.524 . S
C1376 C1377 1.415 . S
C1377 H1347 0.950 . S
C1377 C1372 1.363 . S
C1377 C1376 1.415 . S
H1378 C1375 0.999 . S
H1379 C1360 0.913 . S
H1380 C1398 0.951 . S
H1381 C1400 0.951 . S
H1382 C1402 0.950 . S
H1383 C1403 0.950 . S
H1384 C1405 0.950 . S
H1385 C1408 0.950 . S
H1386 C1409 0.950 . S
H1387 C1411 0.950 . S
H1388 C1412 0.950 . S
H1389 C1413 0.951 . S
H1390 C1415 0.951 . S
H1391 C1417 0.950 . S
H1392 C1418 0.950 . S
H1393 C1420 0.950 . S
H1394 C1423 0.950 . S
H1395 C1424 0.950 . S
H1396 C1426 0.950 . S
H1397 C1427 0.950 . S
C1398 H1380 0.951 . S
C1398 C1399 1.366 . S
C1398 C1400 1.388 . S
C1399 C1398 1.366 . S
C1399 C1403 1.385 . S
C1400 H1381 0.951 . S
C1400 C1398 1.388 . S
C1400 C1401 1.366 . S
C1401 C1400 1.366 . S
C1401 C1402 1.414 . S
C1401 C1404 1.499 . S
C1402 H1382 0.950 . S
C1402 C1401 1.414 . S
C1402 C1403 1.374 . S
C1403 H1383 0.950 . S
C1403 C1399 1.385 . S
C1403 C1402 1.374 . S
C1404 C1401 1.499 . S
C1404 C1405 1.373 . S
C1404 C1406 1.389 . S
C1405 H1384 0.950 . S
C1405 C1404 1.373 . S
C1405 C1421 1.377 . S
C1406 C1404 1.389 . S
C1406 C1407 1.524 . S
C1406 C1420 1.377 . S
C1407 C1406 1.524 . S
C1407 C1408 1.397 . S
C1407 C1412 1.363 . S
C1408 H1385 0.950 . S
C1408 C1407 1.397 . S
C1408 C1409 1.334 . S
C1409 H1386 0.950 . S
C1409 C1408 1.334 . S
C1409 C1410 1.287 . S
C1410 C1409 1.287 . S
C1410 C1411 1.524 . S
C1410 H1429 0.913 . S
C1411 H1387 0.950 . S
C1411 C1410 1.524 . S
C1411 C1412 1.415 . S
C1412 H1388 0.950 . S
C1412 C1407 1.363 . S
C1412 C1411 1.415 . S
C1413 H1389 0.951 . S
C1413 C1414 1.366 . S
C1413 C1415 1.388 . S
C1414 C1413 1.366 . S
C1414 C1418 1.385 . S
C1415 H1390 0.951 . S
C1415 C1413 1.388 . S
C1415 C1416 1.366 . S
C1416 C1415 1.366 . S
C1416 C1417 1.414 . S
C1416 C1419 1.499 . S
C1417 H1391 0.950 . S
C1417 C1416 1.414 . S
C1417 C1418 1.374 . S
C1418 H1392 0.950 . S
C1418 C1414 1.385 . S
C1418 C1417 1.374 . S
C1419 C1416 1.499 . S
C1419 C1420 1.373 . S
C1419 C1421 1.389 . S
C1420 H1393 0.950 . S
C1420 C1406 1.377 . S
C1420 C1419 1.373 . S
C1421 C1405 1.377 . S
C1421 C1419 1.389 . S
C1421 C1422 1.524 . S
C1422 C1421 1.524 . S
C1422 C1423 1.397 . S
C1422 C1427 1.363 . S
C1423 H1394 0.950 . S
C1423 C1422 1.397 . S
C1423 C1424 1.334 . S
C1424 H1395 0.950 . S
C1424 C1423 1.334 . S
C1424 C1425 1.287 . S
C1425 C1424 1.287 . S
C1425 C1426 1.524 . S
C1425 H1428 0.999 . S
C1426 H1396 0.950 . S
C1426 C1425 1.524 . S
C1426 C1427 1.415 . S
C1427 H1397 0.950 . S
C1427 C1422 1.363 . S
C1427 C1426 1.415 . S
H1428 C1425 0.999 . S
H1429 C1410 0.913 . S
H1430 C1448 0.951 . S
H1431 C1450 0.951 . S
H1432 C1452 0.950 . S
H1433 C1453 0.950 . S
H1434 C1455 0.950 . S
H1435 C1458 0.950 . S
H1436 C1459 0.950 . S
H1437 C1461 0.950 . S
H1438 C1462 0.950 . S
H1439 C1463 0.951 . S
H1440 C1465 0.951 . S
H1441 C1467 0.950 . S
H1442 C1468 0.950 . S
H1443 C1470 0.950 . S
H1444 C1473 0.950 . S
H1445 C1474 0.950 . S
H1446 C1476 0.950 . S
H1447 C1477 0.950 . S
C1448 H1430 0.951 . S
C1448 C1449 1.366 . S
C1448 C1450 1.388 . S
C1449 C1448 1.366 . S
C1449 C1453 1.385 . S
C1450 H1431 0.951 . S
C1450 C1448 1.388 . S
C1450 C1451 1.366 . S
C1451 C1450 1.366 . S
C1451 C1452 1.414 . S
C1451 C1454 1.499 . S
C1452 H1432 0.950 . S
C1452 C1451 1.414 . S
C1452 C1453 1.374 . S
C1453 H1433 0.950 . S
C1453 C1449 1.385 . S
C1453 C1452 1.374 . S
C1454 C1451 1.499 . S
C1454 C1455 1.373 . S
C1454 C1456 1.389 . S
C1455 H1434 0.950 . S
C1455 C1454 1.373 . S
C1455 C1471 1.377 . S
C1456 C1454 1.389 . S
C1456 C1457 1.524 . S
C1456 C1470 1.377 . S
C1457 C1456 1.524 . S
C1457 C1458 1.397 . S
C1457 C1462 1.363 . S
C1458 H1435 0.950 . S
C1458 C1457 1.397 . S
C1458 C1459 1.334 . S
C1459 H1436 0.950 . S
C1459 C1458 1.334 . S
C1459 C1460 1.287 . S
C1460 C1459 1.287 . S
C1460 C1461 1.524 . S
C1460 H1479 0.913 . S
C1461 H1437 0.950 . S
C1461 C1460 1.524 . S
C1461 C1462 1.415 . S
C1462 H1438 0.950 . S
C1462 C1457 1.363 . S
C1462 C1461 1.415 . S
C1463 H1439 0.951 . S
C1463 C1464 1.366 . S
C1463 C1465 1.388 . S
C1464 C1463 1.366 . S
C1464 C1468 1.385 . S
C1465 H1440 0.951 . S
C1465 C1463 1.388 . S
C1465 C1466 1.366 . S
C1466 C1465 1.366 . S
C1466 C1467 1.414 . S
C1466 C1469 1.499 . S
C1467 H1441 0.950 . S
C1467 C1466 1.414 . S
C1467 C1468 1.374 . S
C1468 H1442 0.950 . S
C1468 C1464 1.385 . S
C1468 C1467 1.374 . S
C1469 C1466 1.499 . S
C1469 C1470 1.373 . S
C1469 C1471 1.389 . S
C1470 H1443 0.950 . S
C1470 C1456 1.377 . S
C1470 C1469 1.373 . S
C1471 C1455 1.377 . S
C1471 C1469 1.389 . S
C1471 C1472 1.524 . S
C1472 C1471 1.524 . S
C1472 C1473 1.397 . S
C1472 C1477 1.363 . S
C1473 H1444 0.950 . S
C1473 C1472 1.397 . S
C1473 C1474 1.334 . S
C1474 H1445 0.950 . S
C1474 C1473 1.334 . S
C1474 C1475 1.287 . S
C1475 C1474 1.287 . S
C1475 C1476 1.524 . S
C1475 H1478 0.999 . S
C1476 H1446 0.950 . S
C1476 C1475 1.524 . S
C1476 C1477 1.415 . S
C1477 H1447 0.950 . S
C1477 C1472 1.363 . S
C1477 C1476 1.415 . S
H1478 C1475 0.999 . S
H1479 C1460 0.913 . S
H1480 C1498 0.951 . S
H1481 C1500 0.951 . S
H1482 C1502 0.950 . S
H1483 C1503 0.950 . S
H1484 C1505 0.950 . S
H1485 C1508 0.950 . S
H1486 C1509 0.950 . S
H1487 C1511 0.950 . S
H1488 C1512 0.950 . S
H1489 C1513 0.951 . S
H1490 C1515 0.951 . S
H1491 C1517 0.950 . S
H1492 C1518 0.950 . S
H1493 C1520 0.950 . S
H1494 C1523 0.950 . S
H1495 C1524 0.950 . S
H1496 C1526 0.950 . S
H1497 C1527 0.950 . S
C1498 H1480 0.951 . S
C1498 C1499 1.366 . S
C1498 C1500 1.388 . S
C1499 C1498 1.366 . S
C1499 C1503 1.385 . S
C1500 H1481 0.951 . S
C1500 C1498 1.388 . S
C1500 C1501 1.366 . S
C1501 C1500 1.366 . S
C1501 C1502 1.414 . S
C1501 C1504 1.499 . S
C1502 H1482 0.950 . S
C1502 C1501 1.414 . S
C1502 C1503 1.374 . S
C1503 H1483 0.950 . S
C1503 C1499 1.385 . S
C1503 C1502 1.374 . S
C1504 C1501 1.499 . S
C1504 C1505 1.373 . S
C1504 C1506 1.389 . S
C1505 H1484 0.950 . S
C1505 C1504 1.373 . S
C1505 C1521 1.377 . S
C1506 C1504 1.389 . S
C1506 C1507 1.524 . S
C1506 C1520 1.377 . S
C1507 C1506 1.524 . S
C1507 C1508 1.397 . S
C1507 C1512 1.363 . S
C1508 H1485 0.950 . S
C1508 C1507 1.397 . S
C1508 C1509 1.334 . S
C1509 H1486 0.950 . S
C1509 C1508 1.334 . S
C1509 C1510 1.287 . S
C1510 C1509 1.287 . S
C1510 C1511 1.524 . S
C1510 H1529 0.913 . S
C1511 H1487 0.950 . S
C1511 C1510 1.524 . S
C1511 C1512 1.415 . S
C1512 H1488 0.950 . S
C1512 C1507 1.363 . S
C1512 C1511 1.415 . S
C1513 H1489 0.951 . S
C1513 C1514 1.366 . S
C1513 C1515 1.388 . S
C1514 C1513 1.366 . S
C1514 C1518 1.385 . S
C1515 H1490 0.951 . S
C1515 C1513 1.388 . S
C1515 C1516 1.366 . S
C1516 C1515 1.366 . S
C1516 C1517 1.414 . S
C1516 C1519 1.499 . S
C1517 H1491 0.950 . S
C1517 C1516 1.414 . S
C1517 C1518 1.374 . S
C1518 H1492 0.950 . S
C1518 C1514 1.385 . S
C1518 C1517 1.374 . S
C1519 C1516 1.499 . S
C1519 C1520 1.373 . S
C1519 C1521 1.389 . S
C1520 H1493 0.950 . S
C1520 C1506 1.377 . S
C1520 C1519 1.373 . S
C1521 C1505 1.377 . S
C1521 C1519 1.389 . S
C1521 C1522 1.524 . S
C1522 C1521 1.524 . S
C1522 C1523 1.397 . S
C1522 C1527 1.363 . S
C1523 H1494 0.950 . S
C1523 C1522 1.397 . S
C1523 C1524 1.334 . S
C1524 H1495 0.950 . S
C1524 C1523 1.334 . S
C1524 C1525 1.287 . S
C1525 C1524 1.287 . S
C1525 C1526 1.524 . S
C1525 H1528 0.999 . S
C1526 H1496 0.950 . S
C1526 C1525 1.524 . S
C1526 C1527 1.415 . S
C1527 H1497 0.950 . S
C1527 C1522 1.363 . S
C1527 C1526 1.415 . S
H1528 C1525 0.999 . S
H1529 C1510 0.913 . S
H1530 C1548 0.951 . S
H1531 C1550 0.951 . S
H1532 C1552 0.950 . S
H1533 C1553 0.950 . S
H1534 C1555 0.950 . S
H1535 C1558 0.950 . S
H1536 C1559 0.950 . S
H1537 C1561 0.950 . S
H1538 C1562 0.950 . S
H1539 C1563 0.951 . S
H1540 C1565 0.951 . S
H1541 C1567 0.950 . S
H1542 C1568 0.950 . S
H1543 C1570 0.950 . S
H1544 C1573 0.950 . S
H1545 C1574 0.950 . S
H1546 C1576 0.950 . S
H1547 C1577 0.950 . S
C1548 H1530 0.951 . S
C1548 C1549 1.366 . S
C1548 C1550 1.388 . S
C1549 C1548 1.366 . S
C1549 C1553 1.385 . S
C1550 H1531 0.951 . S
C1550 C1548 1.388 . S
C1550 C1551 1.366 . S
C1551 C1550 1.366 . S
C1551 C1552 1.414 . S
C1551 C1554 1.499 . S
C1552 H1532 0.950 . S
C1552 C1551 1.414 . S
C1552 C1553 1.374 . S
C1553 H1533 0.950 . S
C1553 C1549 1.385 . S
C1553 C1552 1.374 . S
C1554 C1551 1.499 . S
C1554 C1555 1.373 . S
C1554 C1556 1.389 . S
C1555 H1534 0.950 . S
C1555 C1554 1.373 . S
C1555 C1571 1.377 . S
C1556 C1554 1.389 . S
C1556 C1557 1.524 . S
C1556 C1570 1.377 . S
C1557 C1556 1.524 . S
C1557 C1558 1.397 . S
C1557 C1562 1.363 . S
C1558 H1535 0.950 . S
C1558 C1557 1.397 . S
C1558 C1559 1.334 . S
C1559 H1536 0.950 . S
C1559 C1558 1.334 . S
C1559 C1560 1.287 . S
C1560 C1559 1.287 . S
C1560 C1561 1.524 . S
C1560 H1579 0.913 . S
C1561 H1537 0.950 . S
C1561 C1560 1.524 . S
C1561 C1562 1.415 . S
C1562 H1538 0.950 . S
C1562 C1557 1.363 . S
C1562 C1561 1.415 . S
C1563 H1539 0.951 . S
C1563 C1564 1.366 . S
C1563 C1565 1.388 . S
C1564 C1563 1.366 . S
C1564 C1568 1.385 . S
C1565 H1540 0.951 . S
C1565 C1563 1.388 . S
C1565 C1566 1.366 . S
C1566 C1565 1.366 . S
C1566 C1567 1.414 . S
C1566 C1569 1.499 . S
C1567 H1541 0.950 . S
C1567 C1566 1.414 . S
C1567 C1568 1.374 . S
C1568 H1542 0.950 . S
C1568 C1564 1.385 . S
C1568 C1567 1.374 . S
C1569 C1566 1.499 . S
C1569 C1570 1.373 . S
C1569 C1571 1.389 . S
C1570 H1543 0.950 . S
C1570 C1556 1.377 . S
C1570 C1569 1.373 . S
C1571 C1555 1.377 . S
C1571 C1569 1.389 . S
C1571 C1572 1.524 . S
C1572 C1571 1.524 . S
C1572 C1573 1.397 . S
C1572 C1577 1.363 . S
C1573 H1544 0.950 . S
C1573 C1572 1.397 . S
C1573 C1574 1.334 . S
C1574 H1545 0.950 . S
C1574 C1573 1.334 . S
C1574 C1575 1.287 . S
C1575 C1574 1.287 . S
C1575 C1576 1.524 . S
C1575 H1578 0.999 . S
C1576 H1546 0.950 . S
C1576 C1575 1.524 . S
C1576 C1577 1.415 . S
C1577 H1547 0.950 . S
C1577 C1572 1.363 . S
C1577 C1576 1.415 . S
H1578 C1575 0.999 . S
H1579 C1560 0.913 . S
H1580 C1598 0.951 . S
H1581 C1600 0.951 . S
H1582 C1602 0.950 . S
H1583 C1603 0.950 . S
H1584 C1605 0.950 . S
H1585 C1608 0.950 . S
H1586 C1609 0.950 . S
H1587 C1611 0.950 . S
H1588 C1612 0.950 . S
H1589 C1613 0.951 . S
H1590 C1615 0.951 . S
H1591 C1617 0.950 . S
H1592 C1618 0.950 . S
H1593 C1620 0.950 . S
H1594 C1623 0.950 . S
H1595 C1624 0.950 . S
H1596 C1626 0.950 . S
H1597 C1627 0.950 . S
C1598 H1580 0.951 . S
C1598 C1599 1.366 . S
C1598 C1600 1.388 . S
C1599 C1598 1.366 . S
C1599 C1603 1.385 . S
C1600 H1581 0.951 . S
C1600 C1598 1.388 . S
C1600 C1601 1.366 . S
C1601 C1600 1.366 . S
C1601 C1602 1.414 . S
C1601 C1604 1.499 . S
C1602 H1582 0.950 . S
C1602 C1601 1.414 . S
C1602 C1603 1.374 . S
C1603 H1583 0.950 . S
C1603 C1599 1.385 . S
C1603 C1602 1.374 . S
C1604 C1601 1.499 . S
C1604 C1605 1.373 . S
C1604 C1606 1.389 . S
C1605 H1584 0.950 . S
C1605 C1604 1.373 . S
C1605 C1621 1.377 . S
C1606 C1604 1.389 . S
C1606 C1607 1.524 . S
C1606 C1620 1.377 . S
C1607 C1606 1.524 . S
C1607 C1608 1.397 . S
C1607 C1612 1.363 . S
C1608 H1585 0.950 . S
C1608 C1607 1.397 . S
C1608 C1609 1.334 . S
C1609 H1586 0.950 . S
C1609 C1608 1.334 . S
C1609 C1610 1.287 . S
C1610 C1609 1.287 . S
C1610 C1611 1.524 . S
C1610 H1629 0.913 . S
C1611 H1587 0.950 . S
C1611 C1610 1.524 . S
C1611 C1612 1.415 . S
C1612 H1588 0.950 . S
C1612 C1607 1.363 . S
C1612 C1611 1.415 . S
C1613 H1589 0.951 . S
C1613 C1614 1.366 . S
C1613 C1615 1.388 . S
C1614 C1613 1.366 . S
C1614 C1618 1.385 . S
C1615 H1590 0.951 . S
C1615 C1613 1.388 . S
C1615 C1616 1.366 . S
C1616 C1615 1.366 . S
C1616 C1617 1.414 . S
C1616 C1619 1.499 . S
C1617 H1591 0.950 . S
C1617 C1616 1.414 . S
C1617 C1618 1.374 . S
C1618 H1592 0.950 . S
C1618 C1614 1.385 . S
C1618 C1617 1.374 . S
C1619 C1616 1.499 . S
C1619 C1620 1.373 . S
C1619 C1621 1.389 . S
C1620 H1593 0.950 . S
C1620 C1606 1.377 . S
C1620 C1619 1.373 . S
C1621 C1605 1.377 . S
C1621 C1619 1.389 . S
C1621 C1622 1.524 . S
C1622 C1621 1.524 . S
C1622 C1623 1.397 . S
C1622 C1627 1.363 . S
C1623 H1594 0.950 . S
C1623 C1622 1.397 . S
C1623 C1624 1.334 . S
C1624 H1595 0.950 . S
C1624 C1623 1.334 . S
C1624 C1625 1.287 . S
C1625 C1624 1.287 . S
C1625 C1626 1.524 . S
C1625 H1628 0.999 . S
C1626 H1596 0.950 . S
C1626 C1625 1.524 . S
C1626 C1627 1.415 . S
C1627 H1597 0.950 . S
C1627 C1622 1.363 . S
C1627 C1626 1.415 . S
H1628 C1625 0.999 . S
H1629 C1610 0.913 . S
H1630 C1648 0.951 . S
H1631 C1650 0.951 . S
H1632 C1652 0.950 . S
H1633 C1653 0.950 . S
H1634 C1655 0.950 . S
H1635 C1658 0.950 . S
H1636 C1659 0.950 . S
H1637 C1661 0.950 . S
H1638 C1662 0.950 . S
H1639 C1663 0.951 . S
H1640 C1665 0.951 . S
H1641 C1667 0.950 . S
H1642 C1668 0.950 . S
H1643 C1670 0.950 . S
H1644 C1673 0.950 . S
H1645 C1674 0.950 . S
H1646 C1676 0.950 . S
H1647 C1677 0.950 . S
C1648 H1630 0.951 . S
C1648 C1649 1.366 . S
C1648 C1650 1.388 . S
C1649 C1648 1.366 . S
C1649 C1653 1.385 . S
C1650 H1631 0.951 . S
C1650 C1648 1.388 . S
C1650 C1651 1.366 . S
C1651 C1650 1.366 . S
C1651 C1652 1.414 . S
C1651 C1654 1.499 . S
C1652 H1632 0.950 . S
C1652 C1651 1.414 . S
C1652 C1653 1.374 . S
C1653 H1633 0.950 . S
C1653 C1649 1.385 . S
C1653 C1652 1.374 . S
C1654 C1651 1.499 . S
C1654 C1655 1.373 . S
C1654 C1656 1.389 . S
C1655 H1634 0.950 . S
C1655 C1654 1.373 . S
C1655 C1671 1.377 . S
C1656 C1654 1.389 . S
C1656 C1657 1.524 . S
C1656 C1670 1.377 . S
C1657 C1656 1.524 . S
C1657 C1658 1.397 . S
C1657 C1662 1.363 . S
C1658 H1635 0.950 . S
C1658 C1657 1.397 . S
C1658 C1659 1.334 . S
C1659 H1636 0.950 . S
C1659 C1658 1.334 . S
C1659 C1660 1.287 . S
C1660 C1659 1.287 . S
C1660 C1661 1.524 . S
C1660 H1679 0.913 . S
C1661 H1637 0.950 . S
C1661 C1660 1.524 . S
C1661 C1662 1.415 . S
C1662 H1638 0.950 . S
C1662 C1657 1.363 . S
C1662 C1661 1.415 . S
C1663 H1639 0.951 . S
C1663 C1664 1.366 . S
C1663 C1665 1.388 . S
C1664 C1663 1.366 . S
C1664 C1668 1.385 . S
C1665 H1640 0.951 . S
C1665 C1663 1.388 . S
C1665 C1666 1.366 . S
C1666 C1665 1.366 . S
C1666 C1667 1.414 . S
C1666 C1669 1.499 . S
C1667 H1641 0.950 . S
C1667 C1666 1.414 . S
C1667 C1668 1.374 . S
C1668 H1642 0.950 . S
C1668 C1664 1.385 . S
C1668 C1667 1.374 . S
C1669 C1666 1.499 . S
C1669 C1670 1.373 . S
C1669 C1671 1.389 . S
C1670 H1643 0.950 . S
C1670 C1656 1.377 . S
C1670 C1669 1.373 . S
C1671 C1655 1.377 . S
C1671 C1669 1.389 . S
C1671 C1672 1.524 . S
C1672 C1671 1.524 . S
C1672 C1673 1.397 . S
C1672 C1677 1.363 . S
C1673 H1644 0.950 . S
C1673 C1672 1.397 . S
C1673 C1674 1.334 . S
C1674 H1645 0.950 . S
C1674 C1673 1.334 . S
C1674 C1675 1.287 . S
C1675 C1674 1.287 . S
C1675 C1676 1.524 . S
C1675 H1678 0.999 . S
C1676 H1646 0.950 . S
C1676 C1675 1.524 . S
C1676 C1677 1.415 . S
C1677 H1647 0.950 . S
C1677 C1672 1.363 . S
C1677 C1676 1.415 . S
H1678 C1675 0.999 . S
H1679 C1660 0.913 . S
H1680 C1698 0.951 . S
H1681 C1700 0.951 . S
H1682 C1702 0.950 . S
H1683 C1703 0.950 . S
H1684 C1705 0.950 . S
H1685 C1708 0.950 . S
H1686 C1709 0.950 . S
H1687 C1711 0.950 . S
H1688 C1712 0.950 . S
H1689 C1713 0.951 . S
H1690 C1715 0.951 . S
H1691 C1717 0.950 . S
H1692 C1718 0.950 . S
H1693 C1720 0.950 . S
H1694 C1723 0.950 . S
H1695 C1724 0.950 . S
H1696 C1726 0.950 . S
H1697 C1727 0.950 . S
C1698 H1680 0.951 . S
C1698 C1699 1.366 . S
C1698 C1700 1.388 . S
C1699 C1698 1.366 . S
C1699 C1703 1.385 . S
C1700 H1681 0.951 . S
C1700 C1698 1.388 . S
C1700 C1701 1.366 . S
C1701 C1700 1.366 . S
C1701 C1702 1.414 . S
C1701 C1704 1.499 . S
C1702 H1682 0.950 . S
C1702 C1701 1.414 . S
C1702 C1703 1.374 . S
C1703 H1683 0.950 . S
C1703 C1699 1.385 . S
C1703 C1702 1.374 . S
C1704 C1701 1.499 . S
C1704 C1705 1.373 . S
C1704 C1706 1.389 . S
C1705 H1684 0.950 . S
C1705 C1704 1.373 . S
C1705 C1721 1.377 . S
C1706 C1704 1.389 . S
C1706 C1707 1.524 . S
C1706 C1720 1.377 . S
C1707 C1706 1.524 . S
C1707 C1708 1.397 . S
C1707 C1712 1.363 . S
C1708 H1685 0.950 . S
C1708 C1707 1.397 . S
C1708 C1709 1.334 . S
C1709 H1686 0.950 . S
C1709 C1708 1.334 . S
C1709 C1710 1.287 . S
C1710 C1709 1.287 . S
C1710 C1711 1.524 . S
C1710 H1729 0.913 . S
C1711 H1687 0.950 . S
C1711 C1710 1.524 . S
C1711 C1712 1.415 . S
C1712 H1688 0.950 . S
C1712 C1707 1.363 . S
C1712 C1711 1.415 . S
C1713 H1689 0.951 . S
C1713 C1714 1.366 . S
C1713 C1715 1.388 . S
C1714 C1713 1.366 . S
C1714 C1718 1.385 . S
C1715 H1690 0.951 . S
C1715 C1713 1.388 . S
C1715 C1716 1.366 . S
C1716 C1715 1.366 . S
C1716 C1717 1.414 . S
C1716 C1719 1.499 . S
C1717 H1691 0.950 . S
C1717 C1716 1.414 . S
C1717 C1718 1.374 . S
C1718 H1692 0.950 . S
C1718 C1714 1.385 . S
C1718 C1717 1.374 . S
C1719 C1716 1.499 . S
C1719 C1720 1.373 . S
C1719 C1721 1.389 . S
C1720 H1693 0.950 . S
C1720 C1706 1.377 . S
C1720 C1719 1.373 . S
C1721 C1705 1.377 . S
C1721 C1719 1.389 . S
C1721 C1722 1.524 . S
C1722 C1721 1.524 . S
C1722 C1723 1.397 . S
C1722 C1727 1.363 . S
C1723 H1694 0.950 . S
C1723 C1722 1.397 . S
C1723 C1724 1.334 . S
C1724 H1695 0.950 . S
C1724 C1723 1.334 . S
C1724 C1725 1.287 . S
C1725 C1724 1.287 . S
C1725 C1726 1.524 . S
C1725 H1728 0.999 . S
C1726 H1696 0.950 . S
C1726 C1725 1.524 . S
C1726 C1727 1.415 . S
C1727 H1697 0.950 . S
C1727 C1722 1.363 . S
C1727 C1726 1.415 . S
H1728 C1725 0.999 . S
H1729 C1710 0.913 . S
H1730 C1748 0.951 . S
H1731 C1750 0.951 . S
H1732 C1752 0.950 . S
H1733 C1753 0.950 . S
H1734 C1755 0.950 . S
H1735 C1758 0.950 . S
H1736 C1759 0.950 . S
H1737 C1761 0.950 . S
H1738 C1762 0.950 . S
H1739 C1763 0.951 . S
H1740 C1765 0.951 . S
H1741 C1767 0.950 . S
H1742 C1768 0.950 . S
H1743 C1770 0.950 . S
H1744 C1773 0.950 . S
H1745 C1774 0.950 . S
H1746 C1776 0.950 . S
H1747 C1777 0.950 . S
C1748 H1730 0.951 . S
C1748 C1749 1.366 . S
C1748 C1750 1.388 . S
C1749 C1748 1.366 . S
C1749 C1753 1.385 . S
C1750 H1731 0.951 . S
C1750 C1748 1.388 . S
C1750 C1751 1.366 . S
C1751 C1750 1.366 . S
C1751 C1752 1.414 . S
C1751 C1754 1.499 . S
C1752 H1732 0.950 . S
C1752 C1751 1.414 . S
C1752 C1753 1.374 . S
C1753 H1733 0.950 . S
C1753 C1749 1.385 . S
C1753 C1752 1.374 . S
C1754 C1751 1.499 . S
C1754 C1755 1.373 . S
C1754 C1756 1.389 . S
C1755 H1734 0.950 . S
C1755 C1754 1.373 . S
C1755 C1771 1.377 . S
C1756 C1754 1.389 . S
C1756 C1757 1.524 . S
C1756 C1770 1.377 . S
C1757 C1756 1.524 . S
C1757 C1758 1.397 . S
C1757 C1762 1.363 . S
C1758 H1735 0.950 . S
C1758 C1757 1.397 . S
C1758 C1759 1.334 . S
C1759 H1736 0.950 . S
C1759 C1758 1.334 . S
C1759 C1760 1.287 . S
C1760 C1759 1.287 . S
C1760 C1761 1.524 . S
C1760 H1779 0.913 . S
C1761 H1737 0.950 . S
C1761 C1760 1.524 . S
C1761 C1762 1.415 . S
C1762 H1738 0.950 . S
C1762 C1757 1.363 . S
C1762 C1761 1.415 . S
C1763 H1739 0.951 . S
C1763 C1764 1.366 . S
C1763 C1765 1.388 . S
C1764 C1763 1.366 . S
C1764 C1768 1.385 . S
C1765 H1740 0.951 . S
C1765 C1763 1.388 . S
C1765 C1766 1.366 . S
C1766 C1765 1.366 . S
C1766 C1767 1.414 . S
C1766 C1769 1.499 . S
C1767 H1741 0.950 . S
C1767 C1766 1.414 . S
C1767 C1768 1.374 . S
C1768 H1742 0.950 . S
C1768 C1764 1.385 . S
C1768 C1767 1.374 . S
C1769 C1766 1.499 . S
C1769 C1770 1.373 . S
C1769 C1771 1.389 . S
C1770 H1743 0.950 . S
C1770 C1756 1.377 . S
C1770 C1769 1.373 . S
C1771 C1755 1.377 . S
C1771 C1769 1.389 . S
C1771 C1772 1.524 . S
C1772 C1771 1.524 . S
C1772 C1773 1.397 . S
C1772 C1777 1.363 . S
C1773 H1744 0.950 . S
C1773 C1772 1.397 . S
C1773 C1774 1.334 . S
C1774 H1745 0.950 . S
C1774 C1773 1.334 . S
C1774 C1775 1.287 . S
C1775 C1774 1.287 . S
C1775 C1776 1.524 . S
C1775 H1778 0.999 . S
C1776 H1746 0.950 . S
C1776 C1775 1.524 . S
C1776 C1777 1.415 . S
C1777 H1747 0.950 . S
C1777 C1772 1.363 . S
C1777 C1776 1.415 . S
H1778 C1775 0.999 . S
H1779 C1760 0.913 . S
H1780 C1798 0.951 . S
H1781 C1800 0.951 . S
H1782 C1802 0.950 . S
H1783 C1803 0.950 . S
H1784 C1805 0.950 . S
H1785 C1808 0.950 . S
H1786 C1809 0.950 . S
H1787 C1811 0.950 . S
H1788 C1812 0.950 . S
H1789 C1813 0.951 . S
H1790 C1815 0.951 . S
H1791 C1817 0.950 . S
H1792 C1818 0.950 . S
H1793 C1820 0.950 . S
H1794 C1823 0.950 . S
H1795 C1824 0.950 . S
H1796 C1826 0.950 . S
H1797 C1827 0.950 . S
C1798 H1780 0.951 . S
C1798 C1799 1.366 . S
C1798 C1800 1.388 . S
C1799 C1798 1.366 . S
C1799 C1803 1.385 . S
C1800 H1781 0.951 . S
C1800 C1798 1.388 . S
C1800 C1801 1.366 . S
C1801 C1800 1.366 . S
C1801 C1802 1.414 . S
C1801 C1804 1.499 . S
C1802 H1782 0.950 . S
C1802 C1801 1.414 . S
C1802 C1803 1.374 . S
C1803 H1783 0.950 . S
C1803 C1799 1.385 . S
C1803 C1802 1.374 . S
C1804 C1801 1.499 . S
C1804 C1805 1.373 . S
C1804 C1806 1.389 . S
C1805 H1784 0.950 . S
C1805 C1804 1.373 . S
C1805 C1821 1.377 . S
C1806 C1804 1.389 . S
C1806 C1807 1.524 . S
C1806 C1820 1.377 . S
C1807 C1806 1.524 . S
C1807 C1808 1.397 . S
C1807 C1812 1.363 . S
C1808 H1785 0.950 . S
C1808 C1807 1.397 . S
C1808 C1809 1.334 . S
C1809 H1786 0.950 . S
C1809 C1808 1.334 . S
C1809 C1810 1.287 . S
C1810 C1809 1.287 . S
C1810 C1811 1.524 . S
C1810 H1829 0.913 . S
C1811 H1787 0.950 . S
C1811 C1810 1.524 . S
C1811 C1812 1.415 . S
C1812 H1788 0.950 . S
C1812 C1807 1.363 . S
C1812 C1811 1.415 . S
C1813 H1789 0.951 . S
C1813 C1814 1.366 . S
C1813 C1815 1.388 . S
C1814 C1813 1.366 . S
C1814 C1818 1.385 . S
C1815 H1790 0.951 . S
C1815 C1813 1.388 . S
C1815 C1816 1.366 . S
C1816 C1815 1.366 . S
C1816 C1817 1.414 . S
C1816 C1819 1.499 . S
C1817 H1791 0.950 . S
C1817 C1816 1.414 . S
C1817 C1818 1.374 . S
C1818 H1792 0.950 . S
C1818 C1814 1.385 . S
C1818 C1817 1.374 . S
C1819 C1816 1.499 . S
C1819 C1820 1.373 . S
C1819 C1821 1.389 . S
C1820 H1793 0.950 . S
C1820 C1806 1.377 . S
C1820 C1819 1.373 . S
C1821 C1805 1.377 . S
C1821 C1819 1.389 . S
C1821 C1822 1.524 . S
C1822 C1821 1.524 . S
C1822 C1823 1.397 . S
C1822 C1827 1.363 . S
C1823 H1794 0.950 . S
C1823 C1822 1.397 . S
C1823 C1824 1.334 . S
C1824 H1795 0.950 . S
C1824 C1823 1.334 . S
C1824 C1825 1.287 . S
C1825 C1824 1.287 . S
C1825 C1826 1.524 . S
C1825 H1828 0.999 . S
C1826 H1796 0.950 . S
C1826 C1825 1.524 . S
C1826 C1827 1.415 . S
C1827 H1797 0.950 . S
C1827 C1822 1.363 . S
C1827 C1826 1.415 . S
H1828 C1825 0.999 . S
H1829 C1810 0.913 . S
H1830 C1848 0.951 . S
H1831 C1850 0.951 . S
H1832 C1852 0.950 . S
H1833 C1853 0.950 . S
H1834 C1855 0.950 . S
H1835 C1858 0.950 . S
H1836 C1859 0.950 . S
H1837 C1861 0.950 . S
H1838 C1862 0.950 . S
H1839 C1863 0.951 . S
H1840 C1865 0.951 . S
H1841 C1867 0.950 . S
H1842 C1868 0.950 . S
H1843 C1870 0.950 . S
H1844 C1873 0.950 . S
H1845 C1874 0.950 . S
H1846 C1876 0.950 . S
H1847 C1877 0.950 . S
C1848 H1830 0.951 . S
C1848 C1849 1.366 . S
C1848 C1850 1.388 . S
C1849 C1848 1.366 . S
C1849 C1853 1.385 . S
C1850 H1831 0.951 . S
C1850 C1848 1.388 . S
C1850 C1851 1.366 . S
C1851 C1850 1.366 . S
C1851 C1852 1.414 . S
C1851 C1854 1.499 . S
C1852 H1832 0.950 . S
C1852 C1851 1.414 . S
C1852 C1853 1.374 . S
C1853 H1833 0.950 . S
C1853 C1849 1.385 . S
C1853 C1852 1.374 . S
C1854 C1851 1.499 . S
C1854 C1855 1.373 . S
C1854 C1856 1.389 . S
C1855 H1834 0.950 . S
C1855 C1854 1.373 . S
C1855 C1871 1.377 . S
C1856 C1854 1.389 . S
C1856 C1857 1.524 . S
C1856 C1870 1.377 . S
C1857 C1856 1.524 . S
C1857 C1858 1.397 . S
C1857 C1862 1.363 . S
C1858 H1835 0.950 . S
C1858 C1857 1.397 . S
C1858 C1859 1.334 . S
C1859 H1836 0.950 . S
C1859 C1858 1.334 . S
C1859 C1860 1.287 . S
C1860 C1859 1.287 . S
C1860 C1861 1.524 . S
C1860 H1879 0.913 . S
C1861 H1837 0.950 . S
C1861 C1860 1.524 . S
C1861 C1862 1.415 . S
C1862 H1838 0.950 . S
C1862 C1857 1.363 . S
C1862 C1861 1.415 . S
C1863 H1839 0.951 . S
C1863 C1864 1.366 . S
C1863 C1865 1.388 . S
C1864 C1863 1.366 . S
C1864 C1868 1.385 . S
C1865 H1840 0.951 . S
C1865 C1863 1.388 . S
C1865 C1866 1.366 . S
C1866 C1865 1.366 . S
C1866 C1867 1.414 . S
C1866 C1869 1.499 . S
C1867 H1841 0.950 . S
C1867 C1866 1.414 . S
C1867 C1868 1.374 . S
C1868 H1842 0.950 . S
C1868 C1864 1.385 . S
C1868 C1867 1.374 . S
C1869 C1866 1.499 . S
C1869 C1870 1.373 . S
C1869 C1871 1.389 . S
C1870 H1843 0.950 . S
C1870 C1856 1.377 . S
C1870 C1869 1.373 . S
C1871 C1855 1.377 . S
C1871 C1869 1.389 . S
C1871 C1872 1.524 . S
C1872 C1871 1.524 . S
C1872 C1873 1.397 . S
C1872 C1877 1.363 . S
C1873 H1844 0.950 . S
C1873 C1872 1.397 . S
C1873 C1874 1.334 . S
C1874 H1845 0.950 . S
C1874 C1873 1.334 . S
C1874 C1875 1.287 . S
C1875 C1874 1.287 . S
C1875 C1876 1.524 . S
C1875 H1878 0.999 . S
C1876 H1846 0.950 . S
C1876 C1875 1.524 . S
C1876 C1877 1.415 . S
C1877 H1847 0.950 . S
C1877 C1872 1.363 . S
C1877 C1876 1.415 . S
H1878 C1875 0.999 . S
H1879 C1860 0.913 . S
H1880 C1898 0.951 . S
H1881 C1900 0.951 . S
H1882 C1902 0.950 . S
H1883 C1903 0.950 . S
H1884 C1905 0.950 . S
H1885 C1908 0.950 . S
H1886 C1909 0.950 . S
H1887 C1911 0.950 . S
H1888 C1912 0.950 . S
H1889 C1913 0.951 . S
H1890 C1915 0.951 . S
H1891 C1917 0.950 . S
H1892 C1918 0.950 . S
H1893 C1920 0.950 . S
H1894 C1923 0.950 . S
H1895 C1924 0.950 . S
H1896 C1926 0.950 . S
H1897 C1927 0.950 . S
C1898 H1880 0.951 . S
C1898 C1899 1.366 . S
C1898 C1900 1.388 . S
C1899 C1898 1.366 . S
C1899 C1903 1.385 . S
C1900 H1881 0.951 . S
C1900 C1898 1.388 . S
C1900 C1901 1.366 . S
C1901 C1900 1.366 . S
C1901 C1902 1.414 . S
C1901 C1904 1.499 . S
C1902 H1882 0.950 . S
C1902 C1901 1.414 . S
C1902 C1903 1.374 . S
C1903 H1883 0.950 . S
C1903 C1899 1.385 . S
C1903 C1902 1.374 . S
C1904 C1901 1.499 . S
C1904 C1905 1.373 . S
C1904 C1906 1.389 . S
C1905 H1884 0.950 . S
C1905 C1904 1.373 . S
C1905 C1921 1.377 . S
C1906 C1904 1.389 . S
C1906 C1907 1.524 . S
C1906 C1920 1.377 . S
C1907 C1906 1.524 . S
C1907 C1908 1.397 . S
C1907 C1912 1.363 . S
C1908 H1885 0.950 . S
C1908 C1907 1.397 . S
C1908 C1909 1.334 . S
C1909 H1886 0.950 . S
C1909 C1908 1.334 . S
C1909 C1910 1.287 . S
C1910 C1909 1.287 . S
C1910 C1911 1.524 . S
C1910 H1929 0.913 . S
C1911 H1887 0.950 . S
C1911 C1910 1.524 . S
C1911 C1912 1.415 . S
C1912 H1888 0.950 . S
C1912 C1907 1.363 . S
C1912 C1911 1.415 . S
C1913 H1889 0.951 . S
C1913 C1914 1.366 . S
C1913 C1915 1.388 . S
C1914 C1913 1.366 . S
C1914 C1918 1.385 . S
C1915 H1890 0.951 . S
C1915 C1913 1.388 . S
C1915 C1916 1.366 . S
C1916 C1915 1.366 . S
C1916 C1917 1.414 . S
C1916 C1919 1.499 . S
C1917 H1891 0.950 . S
C1917 C1916 1.414 . S
C1917 C1918 1.374 . S
C1918 H1892 0.950 . S
C1918 C1914 1.385 . S
C1918 C1917 1.374 . S
C1919 C1916 1.499 . S
C1919 C1920 1.373 . S
C1919 C1921 1.389 . S
C1920 H1893 0.950 . S
C1920 C1906 1.377 . S
C1920 C1919 1.373 . S
C1921 C1905 1.377 . S
C1921 C1919 1.389 . S
C1921 C1922 1.524 . S
C1922 C1921 1.524 . S
C1922 C1923 1.397 . S
C1922 C1927 1.363 . S
C1923 H1894 0.950 . S
C1923 C1922 1.397 . S
C1923 C1924 1.334 . S
C1924 H1895 0.950 . S
C1924 C1923 1.334 . S
C1924 C1925 1.287 . S
C1925 C1924 1.287 . S
C1925 C1926 1.524 . S
C1925 H1928 0.999 . S
C1926 H1896 0.950 . S
C1926 C1925 1.524 . S
C1926 C1927 1.415 . S
C1927 H1897 0.950 . S
C1927 C1922 1.363 . S
C1927 C1926 1.415 . S
H1928 C1925 0.999 . S
H1929 C1910 0.913 . S
H1930 C1948 0.951 . S
H1931 C1950 0.951 . S
H1932 C1952 0.950 . S
H1933 C1953 0.950 . S
H1934 C1955 0.950 . S
H1935 C1958 0.950 . S
H1936 C1959 0.950 . S
H1937 C1961 0.950 . S
H1938 C1962 0.950 . S
H1939 C1963 0.951 . S
H1940 C1965 0.951 . S
H1941 C1967 0.950 . S
H1942 C1968 0.950 . S
H1943 C1970 0.950 . S
H1944 C1973 0.950 . S
H1945 C1974 0.950 . S
H1946 C1976 0.950 . S
H1947 C1977 0.950 . S
C1948 H1930 0.951 . S
C1948 C1949 1.366 . S
C1948 C1950 1.388 . S
C1949 C1948 1.366 . S
C1949 C1953 1.385 . S
C1950 H1931 0.951 . S
C1950 C1948 1.388 . S
C1950 C1951 1.366 . S
C1951 C1950 1.366 . S
C1951 C1952 1.414 . S
C1951 C1954 1.499 . S
C1952 H1932 0.950 . S
C1952 C1951 1.414 . S
C1952 C1953 1.374 . S
C1953 H1933 0.950 . S
C1953 C1949 1.385 . S
C1953 C1952 1.374 . S
C1954 C1951 1.499 . S
C1954 C1955 1.373 . S
C1954 C1956 1.389 . S
C1955 H1934 0.950 . S
C1955 C1954 1.373 . S
C1955 C1971 1.377 . S
C1956 C1954 1.389 . S
C1956 C1957 1.524 . S
C1956 C1970 1.377 . S
C1957 C1956 1.524 . S
C1957 C1958 1.397 . S
C1957 C1962 1.363 . S
C1958 H1935 0.950 . S
C1958 C1957 1.397 . S
C1958 C1959 1.334 . S
C1959 H1936 0.950 . S
C1959 C1958 1.334 . S
C1959 C1960 1.287 . S
C1960 C1959 1.287 . S
C1960 C1961 1.524 . S
C1960 H1979 0.913 . S
C1961 H1937 0.950 . S
C1961 C1960 1.524 . S
C1961 C1962 1.415 . S
C1962 H1938 0.950 . S
C1962 C1957 1.363 . S
C1962 C1961 1.415 . S
C1963 H1939 0.951 . S
C1963 C1964 1.366 . S
C1963 C1965 1.388 . S
C1964 C1963 1.366 . S
C1964 C1968 1.385 . S
C1965 H1940 0.951 . S
C1965 C1963 1.388 . S
C1965 C1966 1.366 . S
C1966 C1965 1.366 . S
C1966 C1967 1.414 . S
C1966 C1969 1.499 . S
C1967 H1941 0.950 . S
C1967 C1966 1.414 . S
C1967 C1968 1.374 . S
C1968 H1942 0.950 . S
C1968 C1964 1.385 . S
C1968 C1967 1.374 . S
C1969 C1966 1.499 . S
C1969 C1970 1.373 . S
C1969 C1971 1.389 . S
C1970 H1943 0.950 . S
C1970 C1956 1.377 . S
C1970 C1969 1.373 . S
C1971 C1955 1.377 . S
C1971 C1969 1.389 . S
C1971 C1972 1.524 . S
C1972 C1971 1.524 . S
C1972 C1973 1.397 . S
C1972 C1977 1.363 . S
C1973 H1944 0.950 . S
C1973 C1972 1.397 . S
C1973 C1974 1.334 . S
C1974 H1945 0.950 . S
C1974 C1973 1.334 . S
C1974 C1975 1.287 . S
C1975 C1974 1.287 . S
C1975 C1976 1.524 . S
C1975 H1978 0.999 . S
C1976 H1946 0.950 . S
C1976 C1975 1.524 . S
C1976 C1977 1.415 . S
C1977 H1947 0.950 . S
C1977 C1972 1.363 . S
C1977 C1976 1.415 . S
H1978 C1975 0.999 . S
H1979 C1960 0.913 . S
H1980 C1998 0.951 . S
H1981 C2000 0.951 . S
H1982 C2002 0.950 . S
H1983 C2003 0.950 . S
H1984 C2005 0.950 . S
H1985 C2008 0.950 . S
H1986 C2009 0.950 . S
H1987 C2011 0.950 . S
H1988 C2012 0.950 . S
H1989 C2013 0.951 . S
H1990 C2015 0.951 . S
H1991 C2017 0.950 . S
H1992 C2018 0.950 . S
H1993 C2020 0.950 . S
H1994 C2023 0.950 . S
H1995 C2024 0.950 . S
H1996 C2026 0.950 . S
H1997 C2027 0.950 . S
C1998 H1980 0.951 . S
C1998 C1999 1.366 . S
C1998 C2000 1.388 . S
C1999 C1998 1.366 . S
C1999 C2003 1.385 . S
C2000 H1981 0.951 . S
C2000 C1998 1.388 . S
C2000 C2001 1.366 . S
C2001 C2000 1.366 . S
C2001 C2002 1.414 . S
C2001 C2004 1.499 . S
C2002 H1982 0.950 . S
C2002 C2001 1.414 . S
C2002 C2003 1.374 . S
C2003 H1983 0.950 . S
C2003 C1999 1.385 . S
C2003 C2002 1.374 . S
C2004 C2001 1.499 . S
C2004 C2005 1.373 . S
C2004 C2006 1.389 . S
C2005 H1984 0.950 . S
C2005 C2004 1.373 . S
C2005 C2021 1.377 . S
C2006 C2004 1.389 . S
C2006 C2007 1.524 . S
C2006 C2020 1.377 . S
C2007 C2006 1.524 . S
C2007 C2008 1.397 . S
C2007 C2012 1.363 . S
C2008 H1985 0.950 . S
C2008 C2007 1.397 . S
C2008 C2009 1.334 . S
C2009 H1986 0.950 . S
C2009 C2008 1.334 . S
C2009 C2010 1.287 . S
C2010 C2009 1.287 . S
C2010 C2011 1.524 . S
C2010 H2029 0.913 . S
C2011 H1987 0.950 . S
C2011 C2010 1.524 . S
C2011 C2012 1.415 . S
C2012 H1988 0.950 . S
C2012 C2007 1.363 . S
C2012 C2011 1.415 . S
C2013 H1989 0.951 . S
C2013 C2014 1.366 . S
C2013 C2015 1.388 . S
C2014 C2013 1.366 . S
C2014 C2018 1.385 . S
C2015 H1990 0.951 . S
C2015 C2013 1.388 . S
C2015 C2016 1.366 . S
C2016 C2015 1.366 . S
C2016 C2017 1.414 . S
C2016 C2019 1.499 . S
C2017 H1991 0.950 . S
C2017 C2016 1.414 . S
C2017 C2018 1.374 . S
C2018 H1992 0.950 . S
C2018 C2014 1.385 . S
C2018 C2017 1.374 . S
C2019 C2016 1.499 . S
C2019 C2020 1.373 . S
C2019 C2021 1.389 . S
C2020 H1993 0.950 . S
C2020 C2006 1.377 . S
C2020 C2019 1.373 . S
C2021 C2005 1.377 . S
C2021 C2019 1.389 . S
C2021 C2022 1.524 . S
C2022 C2021 1.524 . S
C2022 C2023 1.397 . S
C2022 C2027 1.363 . S
C2023 H1994 0.950 . S
C2023 C2022 1.397 . S
C2023 C2024 1.334 . S
C2024 H1995 0.950 . S
C2024 C2023 1.334 . S
C2024 C2025 1.287 . S
C2025 C2024 1.287 . S
C2025 C2026 1.524 . S
C2025 H2028 0.999 . S
C2026 H1996 0.950 . S
C2026 C2025 1.524 . S
C2026 C2027 1.415 . S
C2027 H1997 0.950 . S
C2027 C2022 1.363 . S
C2027 C2026 1.415 . S
H2028 C2025 0.999 . S
H2029 C2010 0.913 . S
H2030 C2048 0.951 . S
H2031 C2050 0.951 . S
H2032 C2052 0.950 . S
H2033 C2053 0.950 . S
H2034 C2055 0.950 . S
H2035 C2058 0.950 . S
H2036 C2059 0.950 . S
H2037 C2061 0.950 . S
H2038 C2062 0.950 . S
H2039 C2063 0.951 . S
H2040 C2065 0.951 . S
H2041 C2067 0.950 . S
H2042 C2068 0.950 . S
H2043 C2070 0.950 . S
H2044 C2073 0.950 . S
H2045 C2074 0.950 . S
H2046 C2076 0.950 . S
H2047 C2077 0.950 . S
C2048 H2030 0.951 . S
C2048 C2049 1.366 . S
C2048 C2050 1.388 . S
C2049 C2048 1.366 . S
C2049 C2053 1.385 . S
C2050 H2031 0.951 . S
C2050 C2048 1.388 . S
C2050 C2051 1.366 . S
C2051 C2050 1.366 . S
C2051 C2052 1.414 . S
C2051 C2054 1.499 . S
C2052 H2032 0.950 . S
C2052 C2051 1.414 . S
C2052 C2053 1.374 . S
C2053 H2033 0.950 . S
C2053 C2049 1.385 . S
C2053 C2052 1.374 . S
C2054 C2051 1.499 . S
C2054 C2055 1.373 . S
C2054 C2056 1.389 . S
C2055 H2034 0.950 . S
C2055 C2054 1.373 . S
C2055 C2071 1.377 . S
C2056 C2054 1.389 . S
C2056 C2057 1.524 . S
C2056 C2070 1.377 . S
C2057 C2056 1.524 . S
C2057 C2058 1.397 . S
C2057 C2062 1.363 . S
C2058 H2035 0.950 . S
C2058 C2057 1.397 . S
C2058 C2059 1.334 . S
C2059 H2036 0.950 . S
C2059 C2058 1.334 . S
C2059 C2060 1.287 . S
C2060 C2059 1.287 . S
C2060 C2061 1.524 . S
C2060 H2079 0.913 . S
C2061 H2037 0.950 . S
C2061 C2060 1.524 . S
C2061 C2062 1.415 . S
C2062 H2038 0.950 . S
C2062 C2057 1.363 . S
C2062 C2061 1.415 . S
C2063 H2039 0.951 . S
C2063 C2064 1.366 . S
C2063 C2065 1.388 . S
C2064 C2063 1.366 . S
C2064 C2068 1.385 . S
C2065 H2040 0.951 . S
C2065 C2063 1.388 . S
C2065 C2066 1.366 . S
C2066 C2065 1.366 . S
C2066 C2067 1.414 . S
C2066 C2069 1.499 . S
C2067 H2041 0.950 . S
C2067 C2066 1.414 . S
C2067 C2068 1.374 . S
C2068 H2042 0.950 . S
C2068 C2064 1.385 . S
C2068 C2067 1.374 . S
C2069 C2066 1.499 . S
C2069 C2070 1.373 . S
C2069 C2071 1.389 . S
C2070 H2043 0.950 . S
C2070 C2056 1.377 . S
C2070 C2069 1.373 . S
C2071 C2055 1.377 . S
C2071 C2069 1.389 . S
C2071 C2072 1.524 . S
C2072 C2071 1.524 . S
C2072 C2073 1.397 . S
C2072 C2077 1.363 . S
C2073 H2044 0.950 . S
C2073 C2072 1.397 . S
C2073 C2074 1.334 . S
C2074 H2045 0.950 . S
C2074 C2073 1.334 . S
C2074 C2075 1.287 . S
C2075 C2074 1.287 . S
C2075 C2076 1.524 . S
C2075 H2078 0.999 . S
C2076 H2046 0.950 . S
C2076 C2075 1.524 . S
C2076 C2077 1.415 . S
C2077 H2047 0.950 . S
C2077 C2072 1.363 . S
C2077 C2076 1.415 . S
H2078 C2075 0.999 . S
H2079 C2060 0.913 . S
H2080 C2098 0.951 . S
H2081 C2100 0.951 . S
H2082 C2102 0.950 . S
H2083 C2103 0.950 . S
H2084 C2105 0.950 . S
H2085 C2108 0.950 . S
H2086 C2109 0.950 . S
H2087 C2111 0.950 . S
H2088 C2112 0.950 . S
H2089 C2113 0.951 . S
H2090 C2115 0.951 . S
H2091 C2117 0.950 . S
H2092 C2118 0.950 . S
H2093 C2120 0.950 . S
H2094 C2123 0.950 . S
H2095 C2124 0.950 . S
H2096 C2126 0.950 . S
H2097 C2127 0.950 . S
C2098 H2080 0.951 . S
C2098 C2099 1.366 . S
C2098 C2100 1.388 . S
C2099 C2098 1.366 . S
C2099 C2103 1.385 . S
C2100 H2081 0.951 . S
C2100 C2098 1.388 . S
C2100 C2101 1.366 . S
C2101 C2100 1.366 . S
C2101 C2102 1.414 . S
C2101 C2104 1.499 . S
C2102 H2082 0.950 . S
C2102 C2101 1.414 . S
C2102 C2103 1.374 . S
C2103 H2083 0.950 . S
C2103 C2099 1.385 . S
C2103 C2102 1.374 . S
C2104 C2101 1.499 . S
C2104 C2105 1.373 . S
C2104 C2106 1.389 . S
C2105 H2084 0.950 . S
C2105 C2104 1.373 . S
C2105 C2121 1.377 . S
C2106 C2104 1.389 . S
C2106 C2107 1.524 . S
C2106 C2120 1.377 . S
C2107 C2106 1.524 . S
C2107 C2108 1.397 . S
C2107 C2112 1.363 . S
C2108 H2085 0.950 . S
C2108 C2107 1.397 . S
C2108 C2109 1.334 . S
C2109 H2086 0.950 . S
C2109 C2108 1.334 . S
C2109 C2110 1.287 . S
C2110 C2109 1.287 . S
C2110 C2111 1.524 . S
C2110 H2129 0.913 . S
C2111 H2087 0.950 . S
C2111 C2110 1.524 . S
C2111 C2112 1.415 . S
C2112 H2088 0.950 . S
C2112 C2107 1.363 . S
C2112 C2111 1.415 . S
C2113 H2089 0.951 . S
C2113 C2114 1.366 . S
C2113 C2115 1.388 . S
C2114 C2113 1.366 . S
C2114 C2118 1.385 . S
C2115 H2090 0.951 . S
C2115 C2113 1.388 . S
C2115 C2116 1.366 . S
C2116 C2115 1.366 . S
C2116 C2117 1.414 . S
C2116 C2119 1.499 . S
C2117 H2091 0.950 . S
C2117 C2116 1.414 . S
C2117 C2118 1.374 . S
C2118 H2092 0.950 . S
C2118 C2114 1.385 . S
C2118 C2117 1.374 . S
C2119 C2116 1.499 . S
C2119 C2120 1.373 . S
C2119 C2121 1.389 . S
C2120 H2093 0.950 . S
C2120 C2106 1.377 . S
C2120 C2119 1.373 . S
C2121 C2105 1.377 . S
C2121 C2119 1.389 . S
C2121 C2122 1.524 . S
C2122 C2121 1.524 . S
C2122 C2123 1.397 . S
C2122 C2127 1.363 . S
C2123 H2094 0.950 . S
C2123 C2122 1.397 . S
C2123 C2124 1.334 . S
C2124 H2095 0.950 . S
C2124 C2123 1.334 . S
C2124 C2125 1.287 . S
C2125 C2124 1.287 . S
C2125 C2126 1.524 . S
C2125 H2128 0.999 . S
C2126 H2096 0.950 . S
C2126 C2125 1.524 . S
C2126 C2127 1.415 . S
C2127 H2097 0.950 . S
C2127 C2122 1.363 . S
C2127 C2126 1.415 . S
H2128 C2125 0.999 . S
H2129 C2110 0.913 . S
H2130 C2148 0.951 . S
H2131 C2150 0.951 . S
H2132 C2152 0.950 . S
H2133 C2153 0.950 . S
H2134 C2155 0.950 . S
H2135 C2158 0.950 . S
H2136 C2159 0.950 . S
H2137 C2161 0.950 . S
H2138 C2162 0.950 . S
H2139 C2163 0.951 . S
H2140 C2165 0.951 . S
H2141 C2167 0.950 . S
H2142 C2168 0.950 . S
H2143 C2170 0.950 . S
H2144 C2173 0.950 . S
H2145 C2174 0.950 . S
H2146 C2176 0.950 . S
H2147 C2177 0.950 . S
C2148 H2130 0.951 . S
C2148 C2149 1.366 . S
C2148 C2150 1.388 . S
C2149 C2148 1.366 . S
C2149 C2153 1.385 . S
C2150 H2131 0.951 . S
C2150 C2148 1.388 . S
C2150 C2151 1.366 . S
C2151 C2150 1.366 . S
C2151 C2152 1.414 . S
C2151 C2154 1.499 . S
C2152 H2132 0.950 . S
C2152 C2151 1.414 . S
C2152 C2153 1.374 . S
C2153 H2133 0.950 . S
C2153 C2149 1.385 . S
C2153 C2152 1.374 . S
C2154 C2151 1.499 . S
C2154 C2155 1.373 . S
C2154 C2156 1.389 . S
C2155 H2134 0.950 . S
C2155 C2154 1.373 . S
C2155 C2171 1.377 . S
C2156 C2154 1.389 . S
C2156 C2157 1.524 . S
C2156 C2170 1.377 . S
C2157 C2156 1.524 . S
C2157 C2158 1.397 . S
C2157 C2162 1.363 . S
C2158 H2135 0.950 . S
C2158 C2157 1.397 . S
C2158 C2159 1.334 . S
C2159 H2136 0.950 . S
C2159 C2158 1.334 . S
C2159 C2160 1.287 . S
C2160 C2159 1.287 . S
C2160 C2161 1.524 . S
C2160 H2179 0.913 . S
C2161 H2137 0.950 . S
C2161 C2160 1.524 . S
C2161 C2162 1.415 . S
C2162 H2138 0.950 . S
C2162 C2157 1.363 . S
C2162 C2161 1.415 . S
C2163 H2139 0.951 . S
C2163 C2164 1.366 . S
C2163 C2165 1.388 . S
C2164 C2163 1.366 . S
C2164 C2168 1.385 . S
C2165 H2140 0.951 . S
C2165 C2163 1.388 . S
C2165 C2166 1.366 . S
C2166 C2165 1.366 . S
C2166 C2167 1.414 . S
C2166 C2169 1.499 . S
C2167 H2141 0.950 . S
C2167 C2166 1.414 . S
C2167 C2168 1.374 . S
C2168 H2142 0.950 . S
C2168 C2164 1.385 . S
C2168 C2167 1.374 . S
C2169 C2166 1.499 . S
C2169 C2170 1.373 . S
C2169 C2171 1.389 . S
C2170 H2143 0.950 . S
C2170 C2156 1.377 . S
C2170 C2169 1.373 . S
C2171 C2155 1.377 . S
C2171 C2169 1.389 . S
C2171 C2172 1.524 . S
C2172 C2171 1.524 . S
C2172 C2173 1.397 . S
C2172 C2177 1.363 . S
C2173 H2144 0.950 . S
C2173 C2172 1.397 . S
C2173 C2174 1.334 . S
C2174 H2145 0.950 . S
C2174 C2173 1.334 . S
C2174 C2175 1.287 . S
C2175 C2174 1.287 . S
C2175 C2176 1.524 . S
C2175 H2178 0.999 . S
C2176 H2146 0.950 . S
C2176 C2175 1.524 . S
C2176 C2177 1.415 . S
C2177 H2147 0.950 . S
C2177 C2172 1.363 . S
C2177 C2176 1.415 . S
H2178 C2175 0.999 . S
H2179 C2160 0.913 . S
H2180 C2198 0.951 . S
H2181 C2200 0.951 . S
H2182 C2202 0.950 . S
H2183 C2203 0.950 . S
H2184 C2205 0.950 . S
H2185 C2208 0.950 . S
H2186 C2209 0.950 . S
H2187 C2211 0.950 . S
H2188 C2212 0.950 . S
H2189 C2213 0.951 . S
H2190 C2215 0.951 . S
H2191 C2217 0.950 . S
H2192 C2218 0.950 . S
H2193 C2220 0.950 . S
H2194 C2223 0.950 . S
H2195 C2224 0.950 . S
H2196 C2226 0.950 . S
H2197 C2227 0.950 . S
C2198 H2180 0.951 . S
C2198 C2199 1.366 . S
C2198 C2200 1.388 . S
C2199 C2198 1.366 . S
C2199 C2203 1.385 . S
C2200 H2181 0.951 . S
C2200 C2198 1.388 . S
C2200 C2201 1.366 . S
C2201 C2200 1.366 . S
C2201 C2202 1.414 . S
C2201 C2204 1.499 . S
C2202 H2182 0.950 . S
C2202 C2201 1.414 . S
C2202 C2203 1.374 . S
C2203 H2183 0.950 . S
C2203 C2199 1.385 . S
C2203 C2202 1.374 . S
C2204 C2201 1.499 . S
C2204 C2205 1.373 . S
C2204 C2206 1.389 . S
C2205 H2184 0.950 . S
C2205 C2204 1.373 . S
C2205 C2221 1.377 . S
C2206 C2204 1.389 . S
C2206 C2207 1.524 . S
C2206 C2220 1.377 . S
C2207 C2206 1.524 . S
C2207 C2208 1.397 . S
C2207 C2212 1.363 . S
C2208 H2185 0.950 . S
C2208 C2207 1.397 . S
C2208 C2209 1.334 . S
C2209 H2186 0.950 . S
C2209 C2208 1.334 . S
C2209 C2210 1.287 . S
C2210 C2209 1.287 . S
C2210 C2211 1.524 . S
C2210 H2229 0.913 . S
C2211 H2187 0.950 . S
C2211 C2210 1.524 . S
C2211 C2212 1.415 . S
C2212 H2188 0.950 . S
C2212 C2207 1.363 . S
C2212 C2211 1.415 . S
C2213 H2189 0.951 . S
C2213 C2214 1.366 . S
C2213 C2215 1.388 . S
C2214 C2213 1.366 . S
C2214 C2218 1.385 . S
C2215 H2190 0.951 . S
C2215 C2213 1.388 . S
C2215 C2216 1.366 . S
C2216 C2215 1.366 . S
C2216 C2217 1.414 . S
C2216 C2219 1.499 . S
C2217 H2191 0.950 . S
C2217 C2216 1.414 . S
C2217 C2218 1.374 . S
C2218 H2192 0.950 . S
C2218 C2214 1.385 . S
C2218 C2217 1.374 . S
C2219 C2216 1.499 . S
C2219 C2220 1.373 . S
C2219 C2221 1.389 . S
C2220 H2193 0.950 . S
C2220 C2206 1.377 . S
C2220 C2219 1.373 . S
C2221 C2205 1.377 . S
C2221 C2219 1.389 . S
C2221 C2222 1.524 . S
C2222 C2221 1.524 . S
C2222 C2223 1.397 . S
C2222 C2227 1.363 . S
C2223 H2194 0.950 . S
C2223 C2222 1.397 . S
C2223 C2224 1.334 . S
C2224 H2195 0.950 . S
C2224 C2223 1.334 . S
C2224 C2225 1.287 . S
C2225 C2224 1.287 . S
C2225 C2226 1.524 . S
C2225 H2228 0.999 . S
C2226 H2196 0.950 . S
C2226 C2225 1.524 . S
C2226 C2227 1.415 . S
C2227 H2197 0.950 . S
C2227 C2222 1.363 . S
C2227 C2226 1.415 . S
H2228 C2225 0.999 . S
H2229 C2210 0.913 . S
H2230 C2248 0.951 . S
H2231 C2250 0.951 . S
H2232 C2252 0.950 . S
H2233 C2253 0.950 . S
H2234 C2255 0.950 . S
H2235 C2258 0.950 . S
H2236 C2259 0.950 . S
H2237 C2261 0.950 . S
H2238 C2262 0.950 . S
H2239 C2263 0.951 . S
H2240 C2265 0.951 . S
H2241 C2267 0.950 . S
H2242 C2268 0.950 . S
H2243 C2270 0.950 . S
H2244 C2273 0.950 . S
H2245 C2274 0.950 . S
H2246 C2276 0.950 . S
H2247 C2277 0.950 . S
C2248 H2230 0.951 . S
C2248 C2249 1.366 . S
C2248 C2250 1.388 . S
C2249 C2248 1.366 . S
C2249 C2253 1.385 . S
C2250 H2231 0.951 . S
C2250 C2248 1.388 . S
C2250 C2251 1.366 . S
C2251 C2250 1.366 . S
C2251 C2252 1.414 . S
C2251 C2254 1.499 . S
C2252 H2232 0.950 . S
C2252 C2251 1.414 . S
C2252 C2253 1.374 . S
C2253 H2233 0.950 . S
C2253 C2249 1.385 . S
C2253 C2252 1.374 . S
C2254 C2251 1.499 . S
C2254 C2255 1.373 . S
C2254 C2256 1.389 . S
C2255 H2234 0.950 . S
C2255 C2254 1.373 . S
C2255 C2271 1.377 . S
C2256 C2254 1.389 . S
C2256 C2257 1.524 . S
C2256 C2270 1.377 . S
C2257 C2256 1.524 . S
C2257 C2258 1.397 . S
C2257 C2262 1.363 . S
C2258 H2235 0.950 . S
C2258 C2257 1.397 . S
C2258 C2259 1.334 . S
C2259 H2236 0.950 . S
C2259 C2258 1.334 . S
C2259 C2260 1.287 . S
C2260 C2259 1.287 . S
C2260 C2261 1.524 . S
C2260 H2279 0.913 . S
C2261 H2237 0.950 . S
C2261 C2260 1.524 . S
C2261 C2262 1.415 . S
C2262 H2238 0.950 . S
C2262 C2257 1.363 . S
C2262 C2261 1.415 . S
C2263 H2239 0.951 . S
C2263 C2264 1.366 . S
C2263 C2265 1.388 . S
C2264 C2263 1.366 . S
C2264 C2268 1.385 . S
C2265 H2240 0.951 . S
C2265 C2263 1.388 . S
C2265 C2266 1.366 . S
C2266 C2265 1.366 . S
C2266 C2267 1.414 . S
C2266 C2269 1.499 . S
C2267 H2241 0.950 . S
C2267 C2266 1.414 . S
C2267 C2268 1.374 . S
C2268 H2242 0.950 . S
C2268 C2264 1.385 . S
C2268 C2267 1.374 . S
C2269 C2266 1.499 . S
C2269 C2270 1.373 . S
C2269 C2271 1.389 . S
C2270 H2243 0.950 . S
C2270 C2256 1.377 . S
C2270 C2269 1.373 . S
C2271 C2255 1.377 . S
C2271 C2269 1.389 . S
C2271 C2272 1.524 . S
C2272 C2271 1.524 . S
C2272 C2273 1.397 . S
C2272 C2277 1.363 . S
C2273 H2244 0.950 . S
C2273 C2272 1.397 . S
C2273 C2274 1.334 . S
C2274 H2245 0.950 . S
C2274 C2273 1.334 . S
C2274 C2275 1.287 . S
C2275 C2274 1.287 . S
C2275 C2276 1.524 . S
C2275 H2278 0.999 . S
C2276 H2246 0.950 . S
C2276 C2275 1.524 . S
C2276 C2277 1.415 . S
C2277 H2247 0.950 . S
C2277 C2272 1.363 . S
C2277 C2276 1.415 . S
H2278 C2275 0.999 . S
H2279 C2260 0.913 . S
H2280 C2298 0.951 . S
H2281 C2300 0.951 . S
H2282 C2302 0.950 . S
H2283 C2303 0.950 . S
H2284 C2305 0.950 . S
H2285 C2308 0.950 . S
H2286 C2309 0.950 . S
H2287 C2311 0.950 . S
H2288 C2312 0.950 . S
H2289 C2313 0.951 . S
H2290 C2315 0.951 . S
H2291 C2317 0.950 . S
H2292 C2318 0.950 . S
H2293 C2320 0.950 . S
H2294 C2323 0.950 . S
H2295 C2324 0.950 . S
H2296 C2326 0.950 . S
H2297 C2327 0.950 . S
C2298 H2280 0.951 . S
C2298 C2299 1.366 . S
C2298 C2300 1.388 . S
C2299 C2298 1.366 . S
C2299 C2303 1.385 . S
C2300 H2281 0.951 . S
C2300 C2298 1.388 . S
C2300 C2301 1.366 . S
C2301 C2300 1.366 . S
C2301 C2302 1.414 . S
C2301 C2304 1.499 . S
C2302 H2282 0.950 . S
C2302 C2301 1.414 . S
C2302 C2303 1.374 . S
C2303 H2283 0.950 . S
C2303 C2299 1.385 . S
C2303 C2302 1.374 . S
C2304 C2301 1.499 . S
C2304 C2305 1.373 . S
C2304 C2306 1.389 . S
C2305 H2284 0.950 . S
C2305 C2304 1.373 . S
C2305 C2321 1.377 . S
C2306 C2304 1.389 . S
C2306 C2307 1.524 . S
C2306 C2320 1.377 . S
C2307 C2306 1.524 . S
C2307 C2308 1.397 . S
C2307 C2312 1.363 . S
C2308 H2285 0.950 . S
C2308 C2307 1.397 . S
C2308 C2309 1.334 . S
C2309 H2286 0.950 . S
C2309 C2308 1.334 . S
C2309 C2310 1.287 . S
C2310 C2309 1.287 . S
C2310 C2311 1.524 . S
C2310 H2329 0.913 . S
C2311 H2287 0.950 . S
C2311 C2310 1.524 . S
C2311 C2312 1.415 . S
C2312 H2288 0.950 . S
C2312 C2307 1.363 . S
C2312 C2311 1.415 . S
C2313 H2289 0.951 . S
C2313 C2314 1.366 . S
C2313 C2315 1.388 . S
C2314 C2313 1.366 . S
C2314 C2318 1.385 . S
C2315 H2290 0.951 . S
C2315 C2313 1.388 . S
C2315 C2316 1.366 . S
C2316 C2315 1.366 . S
C2316 C2317 1.414 . S
C2316 C2319 1.499 . S
C2317 H2291 0.950 . S
C2317 C2316 1.414 . S
C2317 C2318 1.374 . S
C2318 H2292 0.950 . S
C2318 C2314 1.385 . S
C2318 C2317 1.374 . S
C2319 C2316 1.499 . S
C2319 C2320 1.373 . S
C2319 C2321 1.389 . S
C2320 H2293 0.950 . S
C2320 C2306 1.377 . S
C2320 C2319 1.373 . S
C2321 C2305 1.377 . S
C2321 C2319 1.389 . S
C2321 C2322 1.524 . S
C2322 C2321 1.524 . S
C2322 C2323 1.397 . S
C2322 C2327 1.363 . S
C2323 H2294 0.950 . S
C2323 C2322 1.397 . S
C2323 C2324 1.334 . S
C2324 H2295 0.950 . S
C2324 C2323 1.334 . S
C2324 C2325 1.287 . S
C2325 C2324 1.287 . S
C2325 C2326 1.524 . S
C2325 H2328 0.999 . S
C2326 H2296 0.950 . S
C2326 C2325 1.524 . S
C2326 C2327 1.415 . S
C2327 H2297 0.950 . S
C2327 C2322 1.363 . S
C2327 C2326 1.415 . S
H2328 C2325 0.999 . S
H2329 C2310 0.913 . S
H2330 C2348 0.951 . S
H2331 C2350 0.951 . S
H2332 C2352 0.950 . S
H2333 C2353 0.950 . S
H2334 C2355 0.950 . S
H2335 C2358 0.950 . S
H2336 C2359 0.950 . S
H2337 C2361 0.950 . S
H2338 C2362 0.950 . S
H2339 C2363 0.951 . S
H2340 C2365 0.951 . S
H2341 C2367 0.950 . S
H2342 C2368 0.950 . S
H2343 C2370 0.950 . S
H2344 C2373 0.950 . S
H2345 C2374 0.950 . S
H2346 C2376 0.950 . S
H2347 C2377 0.950 . S
C2348 H2330 0.951 . S
C2348 C2349 1.366 . S
C2348 C2350 1.388 . S
C2349 C2348 1.366 . S
C2349 C2353 1.385 . S
C2350 H2331 0.951 . S
C2350 C2348 1.388 . S
C2350 C2351 1.366 . S
C2351 C2350 1.366 . S
C2351 C2352 1.414 . S
C2351 C2354 1.499 . S
C2352 H2332 0.950 . S
C2352 C2351 1.414 . S
C2352 C2353 1.374 . S
C2353 H2333 0.950 . S
C2353 C2349 1.385 . S
C2353 C2352 1.374 . S
C2354 C2351 1.499 . S
C2354 C2355 1.373 . S
C2354 C2356 1.389 . S
C2355 H2334 0.950 . S
C2355 C2354 1.373 . S
C2355 C2371 1.377 . S
C2356 C2354 1.389 . S
C2356 C2357 1.524 . S
C2356 C2370 1.377 . S
C2357 C2356 1.524 . S
C2357 C2358 1.397 . S
C2357 C2362 1.363 . S
C2358 H2335 0.950 . S
C2358 C2357 1.397 . S
C2358 C2359 1.334 . S
C2359 H2336 0.950 . S
C2359 C2358 1.334 . S
C2359 C2360 1.287 . S
C2360 C2359 1.287 . S
C2360 C2361 1.524 . S
C2360 H2379 0.913 . S
C2361 H2337 0.950 . S
C2361 C2360 1.524 . S
C2361 C2362 1.415 . S
C2362 H2338 0.950 . S
C2362 C2357 1.363 . S
C2362 C2361 1.415 . S
C2363 H2339 0.951 . S
C2363 C2364 1.366 . S
C2363 C2365 1.388 . S
C2364 C2363 1.366 . S
C2364 C2368 1.385 . S
C2365 H2340 0.951 . S
C2365 C2363 1.388 . S
C2365 C2366 1.366 . S
C2366 C2365 1.366 . S
C2366 C2367 1.414 . S
C2366 C2369 1.499 . S
C2367 H2341 0.950 . S
C2367 C2366 1.414 . S
C2367 C2368 1.374 . S
C2368 H2342 0.950 . S
C2368 C2364 1.385 . S
C2368 C2367 1.374 . S
C2369 C2366 1.499 . S
C2369 C2370 1.373 . S
C2369 C2371 1.389 . S
C2370 H2343 0.950 . S
C2370 C2356 1.377 . S
C2370 C2369 1.373 . S
C2371 C2355 1.377 . S
C2371 C2369 1.389 . S
C2371 C2372 1.524 . S
C2372 C2371 1.524 . S
C2372 C2373 1.397 . S
C2372 C2377 1.363 . S
C2373 H2344 0.950 . S
C2373 C2372 1.397 . S
C2373 C2374 1.334 . S
C2374 H2345 0.950 . S
C2374 C2373 1.334 . S
C2374 C2375 1.287 . S
C2375 C2374 1.287 . S
C2375 C2376 1.524 . S
C2375 H2378 0.999 . S
C2376 H2346 0.950 . S
C2376 C2375 1.524 . S
C2376 C2377 1.415 . S
C2377 H2347 0.950 . S
C2377 C2372 1.363 . S
C2377 C2376 1.415 . S
H2378 C2375 0.999 . S
H2379 C2360 0.913 . S
H2380 C2398 0.951 . S
H2381 C2400 0.951 . S
H2382 C2402 0.950 . S
H2383 C2403 0.950 . S
H2384 C2405 0.950 . S
H2385 C2408 0.950 . S
H2386 C2409 0.950 . S
H2387 C2411 0.950 . S
H2388 C2412 0.950 . S
H2389 C2413 0.951 . S
H2390 C2415 0.951 . S
H2391 C2417 0.950 . S
H2392 C2418 0.950 . S
H2393 C2420 0.950 . S
H2394 C2423 0.950 . S
H2395 C2424 0.950 . S
H2396 C2426 0.950 . S
H2397 C2427 0.950 . S
C2398 H2380 0.951 . S
C2398 C2399 1.366 . S
C2398 C2400 1.388 . S
C2399 C2398 1.366 . S
C2399 C2403 1.385 . S
C2400 H2381 0.951 . S
C2400 C2398 1.388 . S
C2400 C2401 1.366 . S
C2401 C2400 1.366 . S
C2401 C2402 1.414 . S
C2401 C2404 1.499 . S
C2402 H2382 0.950 . S
C2402 C2401 1.414 . S
C2402 C2403 1.374 . S
C2403 H2383 0.950 . S
C2403 C2399 1.385 . S
C2403 C2402 1.374 . S
C2404 C2401 1.499 . S
C2404 C2405 1.373 . S
C2404 C2406 1.389 . S
C2405 H2384 0.950 . S
C2405 C2404 1.373 . S
C2405 C2421 1.377 . S
C2406 C2404 1.389 . S
C2406 C2407 1.524 . S
C2406 C2420 1.377 . S
C2407 C2406 1.524 . S
C2407 C2408 1.397 . S
C2407 C2412 1.363 . S
C2408 H2385 0.950 . S
C2408 C2407 1.397 . S
C2408 C2409 1.334 . S
C2409 H2386 0.950 . S
C2409 C2408 1.334 . S
C2409 C2410 1.287 . S
C2410 C2409 1.287 . S
C2410 C2411 1.524 . S
C2410 H2429 0.913 . S
C2411 H2387 0.950 . S
C2411 C2410 1.524 . S
C2411 C2412 1.415 . S
C2412 H2388 0.950 . S
C2412 C2407 1.363 . S
C2412 C2411 1.415 . S
C2413 H2389 0.951 . S
C2413 C2414 1.366 . S
C2413 C2415 1.388 . S
C2414 C2413 1.366 . S
C2414 C2418 1.385 . S
C2415 H2390 0.951 . S
C2415 C2413 1.388 . S
C2415 C2416 1.366 . S
C2416 C2415 1.366 . S
C2416 C2417 1.414 . S
C2416 C2419 1.499 . S
C2417 H2391 0.950 . S
C2417 C2416 1.414 . S
C2417 C2418 1.374 . S
C2418 H2392 0.950 . S
C2418 C2414 1.385 . S
C2418 C2417 1.374 . S
C2419 C2416 1.499 . S
C2419 C2420 1.373 . S
C2419 C2421 1.389 . S
C2420 H2393 0.950 . S
C2420 C2406 1.377 . S
C2420 C2419 1.373 . S
C2421 C2405 1.377 . S
C2421 C2419 1.389 . S
C2421 C2422 1.524 . S
C2422 C2421 1.524 . S
C2422 C2423 1.397 . S
C2422 C2427 1.363 . S
C2423 H2394 0.950 . S
C2423 C2422 1.397 . S
C2423 C2424 1.334 . S
C2424 H2395 0.950 . S
C2424 C2423 1.334 . S
C2424 C2425 1.287 . S
C2425 C2424 1.287 . S
C2425 C2426 1.524 . S
C2425 H2428 0.999 . S
C2426 H2396 0.950 . S
C2426 C2425 1.524 . S
C2426 C2427 1.415 . S
C2427 H2397 0.950 . S
C2427 C2422 1.363 . S
C2427 C2426 1.415 . S
H2428 C2425 0.999 . S
H2429 C2410 0.913 . S
H2430 C2448 0.951 . S
H2431 C2450 0.951 . S
H2432 C2452 0.950 . S
H2433 C2453 0.950 . S
H2434 C2455 0.950 . S
H2435 C2458 0.950 . S
H2436 C2459 0.960 . S
H2437 C2461 0.950 . S
H2438 C2462 0.950 . S
H2439 C2463 0.951 . S
H2440 C2465 0.951 . S
H2441 C2467 0.950 . S
H2442 C2468 0.950 . S
H2443 C2470 0.950 . S
H2444 C2473 0.950 . S
H2445 C2474 0.950 . S
H2446 C2476 0.950 . S
H2447 C2477 0.950 . S
C2448 H2430 0.951 . S
C2448 C2449 1.366 . S
C2448 C2450 1.388 . S
C2449 C2448 1.366 . S
C2449 C2453 1.385 . S
C2450 H2431 0.951 . S
C2450 C2448 1.388 . S
C2450 C2451 1.366 . S
C2451 C2450 1.366 . S
C2451 C2452 1.414 . S
C2451 C2454 1.499 . S
C2452 H2432 0.950 . S
C2452 C2451 1.414 . S
C2452 C2453 1.374 . S
C2453 H2433 0.950 . S
C2453 C2449 1.385 . S
C2453 C2452 1.374 . S
C2454 C2451 1.499 . S
C2454 C2455 1.373 . S
C2454 C2456 1.389 . S
C2455 H2434 0.950 . S
C2455 C2454 1.373 . S
C2455 C2471 1.377 . S
C2456 C2454 1.389 . S
C2456 C2457 1.524 . S
C2456 C2470 1.377 . S
C2457 C2456 1.524 . S
C2457 C2458 1.397 . S
C2457 C2462 1.363 . S
C2458 H2435 0.950 . S
C2458 C2457 1.397 . S
C2458 C2459 1.308 1_554 S
C2459 H2436 0.960 . S
C2459 C2458 1.308 1_556 S
C2459 C2460 1.303 . S
C2460 C2459 1.303 . S
C2460 C2461 1.524 . S
C2460 H2479 0.913 . S
C2461 H2437 0.950 . S
C2461 C2460 1.524 . S
C2461 C2462 1.415 1_556 S
C2462 H2438 0.950 . S
C2462 C2457 1.363 . S
C2462 C2461 1.415 1_554 S
C2463 H2439 0.951 . S
C2463 C2464 1.366 . S
C2463 C2465 1.388 . S
C2464 C2463 1.366 . S
C2464 C2468 1.385 . S
C2465 H2440 0.951 . S
C2465 C2463 1.388 . S
C2465 C2466 1.366 . S
C2466 C2465 1.366 . S
C2466 C2467 1.414 . S
C2466 C2469 1.499 . S
C2467 H2441 0.950 . S
C2467 C2466 1.414 . S
C2467 C2468 1.374 . S
C2468 H2442 0.950 . S
C2468 C2464 1.385 . S
C2468 C2467 1.374 . S
C2469 C2466 1.499 . S
C2469 C2470 1.373 . S
C2469 C2471 1.389 . S
C2470 H2443 0.950 . S
C2470 C2456 1.377 . S
C2470 C2469 1.373 . S
C2471 C2455 1.377 . S
C2471 C2469 1.389 . S
C2471 C2472 1.524 . S
C2472 C2471 1.524 . S
C2472 C2473 1.397 . S
C2472 C2477 1.363 . S
C2473 H2444 0.950 . S
C2473 C2472 1.397 . S
C2473 C2474 1.334 . S
C2474 H2445 0.950 . S
C2474 C2473 1.334 . S
C2474 C2475 1.287 . S
C2475 C2474 1.287 . S
C2475 C2476 1.524 . S
C2475 H2478 0.999 . S
C2476 H2446 0.950 . S
C2476 C2475 1.524 . S
C2476 C2477 1.415 . S
C2477 H2447 0.950 . S
C2477 C2472 1.363 . S
C2477 C2476 1.415 . S
H2478 C2475 0.999 . S
H2479 C2460 0.913 . S
H2480 C2498 0.951 . S
H2481 C2500 0.951 . S
H2482 C2502 0.950 . S
H2483 C2503 0.950 . S
H2484 C2505 0.950 . S
H2485 C2508 0.950 . S
H2486 C2509 0.950 . S
H2487 C2511 0.950 . S
H2488 C2512 0.950 . S
H2489 C2513 0.951 . S
H2490 C2515 0.951 . S
H2491 C2517 0.950 . S
H2492 C2518 0.950 . S
H2493 C2520 0.950 . S
H2494 C2523 0.950 . S
H2495 C2524 0.950 . S
H2496 C2526 0.950 . S
H2497 C2527 0.950 . S
C2498 H2480 0.951 . S
C2498 C2499 1.366 . S
C2498 C2500 1.388 . S
C2499 C2498 1.366 . S
C2499 C2503 1.385 . S
C2500 H2481 0.951 . S
C2500 C2498 1.388 . S
C2500 C2501 1.366 . S
C2501 C2500 1.366 . S
C2501 C2502 1.414 . S
C2501 C2504 1.499 . S
C2502 H2482 0.950 . S
C2502 C2501 1.414 . S
C2502 C2503 1.374 . S
C2503 H2483 0.950 . S
C2503 C2499 1.385 . S
C2503 C2502 1.374 . S
C2504 C2501 1.499 . S
C2504 C2505 1.373 . S
C2504 C2506 1.389 . S
C2505 H2484 0.950 . S
C2505 C2504 1.373 . S
C2505 C2521 1.377 . S
C2506 C2504 1.389 . S
C2506 C2507 1.524 . S
C2506 C2520 1.377 . S
C2507 C2506 1.524 . S
C2507 C2508 1.397 . S
C2507 C2512 1.363 . S
C2508 H2485 0.950 . S
C2508 C2507 1.397 . S
C2508 C2509 1.334 1_554 S
C2509 H2486 0.950 . S
C2509 C2508 1.334 1_556 S
C2509 C2510 1.287 . S
C2510 C2509 1.287 . S
C2510 C2511 1.524 1_556 S
C2510 H2529 0.913 . S
C2511 H2487 0.950 . S
C2511 C2510 1.524 1_554 S
C2511 C2512 1.415 . S
C2512 H2488 0.950 . S
C2512 C2507 1.363 . S
C2512 C2511 1.415 . S
C2513 H2489 0.951 . S
C2513 C2514 1.366 . S
C2513 C2515 1.388 . S
C2514 C2513 1.366 . S
C2514 C2518 1.385 . S
C2515 H2490 0.951 . S
C2515 C2513 1.388 . S
C2515 C2516 1.366 . S
C2516 C2515 1.366 . S
C2516 C2517 1.414 . S
C2516 C2519 1.499 . S
C2517 H2491 0.950 . S
C2517 C2516 1.414 . S
C2517 C2518 1.374 . S
C2518 H2492 0.950 . S
C2518 C2514 1.385 . S
C2518 C2517 1.374 . S
C2519 C2516 1.499 . S
C2519 C2520 1.373 . S
C2519 C2521 1.389 . S
C2520 H2493 0.950 . S
C2520 C2506 1.377 . S
C2520 C2519 1.373 . S
C2521 C2505 1.377 . S
C2521 C2519 1.389 . S
C2521 C2522 1.524 . S
C2522 C2521 1.524 . S
C2522 C2523 1.397 . S
C2522 C2527 1.363 . S
C2523 H2494 0.950 . S
C2523 C2522 1.397 . S
C2523 C2524 1.334 . S
C2524 H2495 0.950 . S
C2524 C2523 1.334 . S
C2524 C2525 1.287 . S
C2525 C2524 1.287 . S
C2525 C2526 1.524 . S
C2525 H2528 0.999 . S
C2526 H2496 0.950 . S
C2526 C2525 1.524 . S
C2526 C2527 1.415 . S
C2527 H2497 0.950 . S
C2527 C2522 1.363 . S
C2527 C2526 1.415 . S
H2528 C2525 0.999 . S
H2529 C2510 0.913 . S
H2530 C2548 0.951 . S
H2531 C2550 0.951 . S
H2532 C2552 0.950 . S
H2533 C2553 0.950 . S
H2534 C2555 0.950 . S
H2535 C2558 0.950 . S
H2536 C2559 0.950 1_556 S
H2537 C2561 0.950 . S
H2538 C2562 0.950 . S
H2539 C2563 0.951 . S
H2540 C2565 0.951 . S
H2541 C2567 0.950 . S
H2542 C2568 0.950 . S
H2543 C2570 0.950 . S
H2544 C2573 0.950 . S
H2545 C2574 0.950 . S
H2546 C2576 0.950 . S
H2547 C2577 0.950 . S
C2548 H2530 0.951 . S
C2548 C2549 1.366 . S
C2548 C2550 1.388 . S
C2549 C2548 1.366 . S
C2549 C2553 1.385 . S
C2550 H2531 0.951 . S
C2550 C2548 1.388 . S
C2550 C2551 1.366 . S
C2551 C2550 1.366 . S
C2551 C2552 1.414 . S
C2551 C2554 1.499 . S
C2552 H2532 0.950 . S
C2552 C2551 1.414 . S
C2552 C2553 1.374 . S
C2553 H2533 0.950 . S
C2553 C2549 1.385 . S
C2553 C2552 1.374 . S
C2554 C2551 1.499 . S
C2554 C2555 1.373 . S
C2554 C2556 1.389 . S
C2555 H2534 0.950 . S
C2555 C2554 1.373 . S
C2555 C2571 1.377 . S
C2556 C2554 1.389 . S
C2556 C2557 1.524 . S
C2556 C2570 1.377 . S
C2557 C2556 1.524 . S
C2557 C2558 1.397 . S
C2557 C2562 1.363 . S
C2558 H2535 0.950 . S
C2558 C2557 1.397 . S
C2558 C2559 1.334 . S
C2559 H2536 0.950 1_554 S
C2559 C2558 1.334 . S
C2559 C2560 1.287 . S
C2560 C2559 1.287 . S
C2560 C2561 1.524 . S
C2560 H2579 0.913 1_554 S
C2561 H2537 0.950 . S
C2561 C2560 1.524 . S
C2561 C2562 1.415 . S
C2562 H2538 0.950 . S
C2562 C2557 1.363 . S
C2562 C2561 1.415 . S
C2563 H2539 0.951 . S
C2563 C2564 1.366 . S
C2563 C2565 1.388 . S
C2564 C2563 1.366 . S
C2564 C2568 1.385 . S
C2565 H2540 0.951 . S
C2565 C2563 1.388 . S
C2565 C2566 1.366 . S
C2566 C2565 1.366 . S
C2566 C2567 1.414 . S
C2566 C2569 1.499 . S
C2567 H2541 0.950 . S
C2567 C2566 1.414 . S
C2567 C2568 1.374 . S
C2568 H2542 0.950 . S
C2568 C2564 1.385 . S
C2568 C2567 1.374 . S
C2569 C2566 1.499 . S
C2569 C2570 1.373 . S
C2569 C2571 1.389 . S
C2570 H2543 0.950 . S
C2570 C2556 1.377 . S
C2570 C2569 1.373 . S
C2571 C2555 1.377 . S
C2571 C2569 1.389 . S
C2571 C2572 1.524 . S
C2572 C2571 1.524 . S
C2572 C2573 1.397 . S
C2572 C2577 1.363 . S
C2573 H2544 0.950 . S
C2573 C2572 1.397 . S
C2573 C2574 1.334 . S
C2574 H2545 0.950 . S
C2574 C2573 1.334 . S
C2574 C2575 1.287 . S
C2575 C2574 1.287 . S
C2575 C2576 1.524 . S
C2575 H2578 0.999 . S
C2576 H2546 0.950 . S
C2576 C2575 1.524 . S
C2576 C2577 1.415 . S
C2577 H2547 0.950 . S
C2577 C2572 1.363 . S
C2577 C2576 1.415 . S
H2578 C2575 0.999 . S
H2579 C2560 0.913 1_556 S
H2580 C2598 0.951 . S
H2581 C2600 0.951 . S
H2582 C2602 0.950 . S
H2583 C2603 0.950 . S
H2584 C2605 0.950 . S
H2585 C2608 0.950 . S
H2586 C2609 0.950 . S
H2587 C2611 0.950 . S
H2588 C2612 0.950 . S
H2589 C2613 0.951 . S
H2590 C2615 0.951 . S
H2591 C2617 0.950 . S
H2592 C2618 0.950 . S
H2593 C2620 0.950 . S
H2594 C2623 0.950 . S
H2595 C2624 0.950 . S
H2596 C2626 0.950 . S
H2597 C2627 0.950 . S
C2598 H2580 0.951 . S
C2598 C2599 1.366 . S
C2598 C2600 1.388 . S
C2599 C2598 1.366 . S
C2599 C2603 1.385 . S
C2600 H2581 0.951 . S
C2600 C2598 1.388 . S
C2600 C2601 1.366 . S
C2601 C2600 1.366 . S
C2601 C2602 1.414 . S
C2601 C2604 1.499 . S
C2602 H2582 0.950 . S
C2602 C2601 1.414 . S
C2602 C2603 1.374 . S
C2603 H2583 0.950 . S
C2603 C2599 1.385 . S
C2603 C2602 1.374 . S
C2604 C2601 1.499 . S
C2604 C2605 1.373 . S
C2604 C2606 1.389 . S
C2605 H2584 0.950 . S
C2605 C2604 1.373 . S
C2605 C2621 1.377 . S
C2606 C2604 1.389 . S
C2606 C2607 1.524 . S
C2606 C2620 1.377 . S
C2607 C2606 1.524 . S
C2607 C2608 1.397 . S
C2607 C2612 1.363 . S
C2608 H2585 0.950 . S
C2608 C2607 1.397 . S
C2608 C2609 1.334 . S
C2609 H2586 0.950 . S
C2609 C2608 1.334 . S
C2609 C2610 1.287 . S
C2610 C2609 1.287 . S
C2610 C2611 1.524 . S
C2610 H2629 0.913 . S
C2611 H2587 0.950 . S
C2611 C2610 1.524 . S
C2611 C2612 1.415 . S
C2612 H2588 0.950 . S
C2612 C2607 1.363 . S
C2612 C2611 1.415 . S
C2613 H2589 0.951 . S
C2613 C2614 1.366 . S
C2613 C2615 1.388 . S
C2614 C2613 1.366 . S
C2614 C2618 1.385 . S
C2615 H2590 0.951 . S
C2615 C2613 1.388 . S
C2615 C2616 1.366 . S
C2616 C2615 1.366 . S
C2616 C2617 1.414 . S
C2616 C2619 1.499 . S
C2617 H2591 0.950 . S
C2617 C2616 1.414 . S
C2617 C2618 1.374 . S
C2618 H2592 0.950 . S
C2618 C2614 1.385 . S
C2618 C2617 1.374 . S
C2619 C2616 1.499 . S
C2619 C2620 1.373 . S
C2619 C2621 1.389 . S
C2620 H2593 0.950 . S
C2620 C2606 1.377 . S
C2620 C2619 1.373 . S
C2621 C2605 1.377 . S
C2621 C2619 1.389 . S
C2621 C2622 1.524 . S
C2622 C2621 1.524 . S
C2622 C2623 1.397 . S
C2622 C2627 1.363 . S
C2623 H2594 0.950 . S
C2623 C2622 1.397 . S
C2623 C2624 1.334 . S
C2624 H2595 0.950 . S
C2624 C2623 1.334 . S
C2624 C2625 1.287 . S
C2625 C2624 1.287 . S
C2625 C2626 1.524 . S
C2625 H2628 0.999 . S
C2626 H2596 0.950 . S
C2626 C2625 1.524 . S
C2626 C2627 1.415 . S
C2627 H2597 0.950 . S
C2627 C2622 1.363 . S
C2627 C2626 1.415 . S
H2628 C2625 0.999 . S
H2629 C2610 0.913 . S
H2630 C2648 0.951 1_554 S
H2631 C2650 0.951 . S
H2632 C2652 0.950 . S
H2633 C2653 0.950 . S
H2634 C2655 0.950 . S
H2635 C2658 0.950 1_556 S
H2636 C2659 0.950 . S
H2637 C2661 0.950 . S
H2638 C2662 0.950 . S
H2639 C2663 0.951 . S
H2640 C2665 0.951 . S
H2641 C2667 0.950 . S
H2642 C2668 0.950 . S
H2643 C2670 0.950 . S
H2644 C2673 0.950 . S
H2645 C2674 0.950 . S
H2646 C2676 0.950 . S
H2647 C2677 0.950 . S
C2648 H2630 0.951 1_556 S
C2648 C2649 1.366 . S
C2648 C2650 1.388 . S
C2649 C2648 1.366 . S
C2649 C2653 1.385 . S
C2650 H2631 0.951 . S
C2650 C2648 1.388 . S
C2650 C2651 1.366 . S
C2651 C2650 1.366 . S
C2651 C2652 1.414 . S
C2651 C2654 1.499 . S
C2652 H2632 0.950 . S
C2652 C2651 1.414 . S
C2652 C2653 1.374 . S
C2653 H2633 0.950 . S
C2653 C2649 1.385 . S
C2653 C2652 1.374 . S
C2654 C2651 1.499 . S
C2654 C2655 1.373 . S
C2654 C2656 1.389 . S
C2655 H2634 0.950 . S
C2655 C2654 1.373 . S
C2655 C2671 1.377 . S
C2656 C2654 1.389 . S
C2656 C2657 1.524 . S
C2656 C2670 1.377 . S
C2657 C2656 1.524 . S
C2657 C2658 1.397 1_556 S
C2657 C2662 1.363 1_556 S
C2658 H2635 0.950 1_554 S
C2658 C2657 1.397 1_554 S
C2658 C2659 1.334 . S
C2659 H2636 0.950 . S
C2659 C2658 1.334 . S
C2659 C2660 1.287 . S
C2660 C2659 1.287 . S
C2660 C2661 1.524 . S
C2660 H2679 0.913 . S
C2661 H2637 0.950 . S
C2661 C2660 1.524 . S
C2661 C2662 1.415 . S
C2662 H2638 0.950 . S
C2662 C2657 1.363 1_554 S
C2662 C2661 1.415 . S
C2663 H2639 0.951 . S
C2663 C2664 1.366 . S
C2663 C2665 1.388 . S
C2664 C2663 1.366 . S
C2664 C2668 1.385 . S
C2665 H2640 0.951 . S
C2665 C2663 1.388 . S
C2665 C2666 1.366 . S
C2666 C2665 1.366 . S
C2666 C2667 1.414 . S
C2666 C2669 1.499 . S
C2667 H2641 0.950 . S
C2667 C2666 1.414 . S
C2667 C2668 1.374 . S
C2668 H2642 0.950 . S
C2668 C2664 1.385 . S
C2668 C2667 1.374 . S
C2669 C2666 1.499 . S
C2669 C2670 1.373 . S
C2669 C2671 1.389 . S
C2670 H2643 0.950 . S
C2670 C2656 1.377 . S
C2670 C2669 1.373 . S
C2671 C2655 1.377 . S
C2671 C2669 1.389 . S
C2671 C2672 1.524 . S
C2672 C2671 1.524 . S
C2672 C2673 1.397 . S
C2672 C2677 1.363 . S
C2673 H2644 0.950 . S
C2673 C2672 1.397 . S
C2673 C2674 1.334 . S
C2674 H2645 0.950 . S
C2674 C2673 1.334 . S
C2674 C2675 1.287 . S
C2675 C2674 1.287 . S
C2675 C2676 1.524 . S
C2675 H2678 0.999 . S
C2676 H2646 0.950 . S
C2676 C2675 1.524 . S
C2676 C2677 1.415 . S
C2677 H2647 0.950 . S
C2677 C2672 1.363 . S
C2677 C2676 1.415 . S
H2678 C2675 0.999 . S
H2679 C2660 0.913 . S
H2680 C2698 0.951 . S
H2681 C2700 0.951 . S
H2682 C2702 0.950 . S
H2683 C2703 0.950 . S
H2684 C2705 0.950 . S
H2685 C2708 0.937 1_556 S
H2686 C2709 0.950 . S
H2687 C2711 0.950 . S
H2688 C2712 0.950 1_556 S
H2689 C2713 0.951 . S
H2690 C2715 0.951 . S
H2691 C2717 0.950 . S
H2692 C2718 0.950 . S
H2693 C2720 0.950 . S
H2694 C2723 0.950 . S
H2695 C2724 0.950 . S
H2696 C2726 0.950 . S
H2697 C2727 0.950 . S
C2698 H2680 0.951 . S
C2698 C2699 1.366 . S
C2698 C2700 1.388 . S
C2699 C2698 1.366 . S
C2699 C2703 1.385 . S
C2700 H2681 0.951 . S
C2700 C2698 1.388 . S
C2700 C2701 1.366 . S
C2701 C2700 1.366 . S
C2701 C2702 1.414 . S
C2701 C2704 1.499 . S
C2702 H2682 0.950 . S
C2702 C2701 1.414 . S
C2702 C2703 1.374 . S
C2703 H2683 0.950 . S
C2703 C2699 1.385 . S
C2703 C2702 1.374 . S
C2704 C2701 1.499 . S
C2704 C2705 1.373 . S
C2704 C2706 1.389 . S
C2705 H2684 0.950 . S
C2705 C2704 1.373 . S
C2705 C2721 1.377 . S
C2706 C2704 1.389 . S
C2706 C2707 1.524 . S
C2706 C2720 1.377 . S
C2707 C2706 1.524 . S
C2707 C2708 1.397 1_556 S
C2707 C2712 1.363 1_556 S
C2708 H2685 0.937 1_554 S
C2708 C2707 1.397 1_554 S
C2708 C2709 1.334 . S
C2709 H2686 0.950 . S
C2709 C2708 1.334 . S
C2709 C2710 1.287 . S
C2710 C2709 1.287 . S
C2710 C2711 1.524 . S
C2710 H2729 0.913 . S
C2711 H2687 0.950 . S
C2711 C2710 1.524 . S
C2711 C2712 1.415 . S
C2712 H2688 0.950 1_554 S
C2712 C2707 1.363 1_554 S
C2712 C2711 1.415 . S
C2713 H2689 0.951 . S
C2713 C2714 1.366 . S
C2713 C2715 1.388 . S
C2714 C2713 1.366 . S
C2714 C2718 1.385 . S
C2715 H2690 0.951 . S
C2715 C2713 1.388 . S
C2715 C2716 1.366 . S
C2716 C2715 1.366 . S
C2716 C2717 1.414 . S
C2716 C2719 1.499 . S
C2717 H2691 0.950 . S
C2717 C2716 1.414 . S
C2717 C2718 1.374 . S
C2718 H2692 0.950 . S
C2718 C2714 1.385 . S
C2718 C2717 1.374 . S
C2719 C2716 1.499 . S
C2719 C2720 1.373 . S
C2719 C2721 1.389 . S
C2720 H2693 0.950 . S
C2720 C2706 1.377 . S
C2720 C2719 1.373 . S
C2721 C2705 1.377 . S
C2721 C2719 1.389 . S
C2721 C2722 1.524 . S
C2722 C2721 1.524 . S
C2722 C2723 1.397 . S
C2722 C2727 1.363 . S
C2723 H2694 0.950 . S
C2723 C2722 1.397 . S
C2723 C2724 1.334 . S
C2724 H2695 0.950 . S
C2724 C2723 1.334 . S
C2724 C2725 1.287 . S
C2725 C2724 1.287 . S
C2725 C2726 1.524 . S
C2725 H2728 0.999 . S
C2726 H2696 0.950 . S
C2726 C2725 1.524 . S
C2726 C2727 1.415 . S
C2727 H2697 0.950 . S
C2727 C2722 1.363 . S
C2727 C2726 1.415 . S
H2728 C2725 0.999 . S
H2729 C2710 0.913 . S
H2730 C2748 0.951 . S
H2731 C2750 0.951 . S
H2732 C2752 0.950 . S
H2733 C2753 0.950 1_554 S
H2734 C2755 0.950 . S
H2735 C2758 0.950 . S
H2736 C2759 0.950 . S
H2737 C2761 0.950 . S
H2738 C2762 0.950 . S
H2739 C2763 0.951 . S
H2740 C2765 0.951 . S
H2741 C2767 0.950 . S
H2742 C2768 0.950 . S
H2743 C2770 0.950 . S
H2744 C2773 0.950 . S
H2745 C2774 0.950 . S
H2746 C2776 0.950 1_554 S
H2747 C2777 0.950 . S
C2748 H2730 0.951 . S
C2748 C2749 1.366 . S
C2748 C2750 1.388 . S
C2749 C2748 1.366 . S
C2749 C2753 1.385 . S
C2750 H2731 0.951 . S
C2750 C2748 1.388 . S
C2750 C2751 1.366 . S
C2751 C2750 1.366 . S
C2751 C2752 1.414 . S
C2751 C2754 1.499 . S
C2752 H2732 0.950 . S
C2752 C2751 1.414 . S
C2752 C2753 1.374 . S
C2753 H2733 0.950 1_556 S
C2753 C2749 1.385 . S
C2753 C2752 1.374 . S
C2754 C2751 1.499 . S
C2754 C2755 1.373 . S
C2754 C2756 1.389 . S
C2755 H2734 0.950 . S
C2755 C2754 1.373 . S
C2755 C2771 1.377 . S
C2756 C2754 1.389 . S
C2756 C2757 1.524 . S
C2756 C2770 1.377 . S
C2757 C2756 1.524 . S
C2757 C2758 1.397 . S
C2757 C2762 1.363 . S
C2758 H2735 0.950 . S
C2758 C2757 1.397 . S
C2758 C2759 1.334 . S
C2759 H2736 0.950 . S
C2759 C2758 1.334 . S
C2759 C2760 1.287 . S
C2760 C2759 1.287 . S
C2760 C2761 1.524 . S
C2760 H2779 0.913 . S
C2761 H2737 0.950 . S
C2761 C2760 1.524 . S
C2761 C2762 1.415 . S
C2762 H2738 0.950 . S
C2762 C2757 1.363 . S
C2762 C2761 1.415 . S
C2763 H2739 0.951 . S
C2763 C2764 1.366 . S
C2763 C2765 1.388 . S
C2764 C2763 1.366 . S
C2764 C2768 1.385 . S
C2765 H2740 0.951 . S
C2765 C2763 1.388 . S
C2765 C2766 1.366 . S
C2766 C2765 1.366 . S
C2766 C2767 1.414 . S
C2766 C2769 1.499 . S
C2767 H2741 0.950 . S
C2767 C2766 1.414 . S
C2767 C2768 1.374 . S
C2768 H2742 0.950 . S
C2768 C2764 1.385 . S
C2768 C2767 1.374 . S
C2769 C2766 1.499 . S
C2769 C2770 1.373 . S
C2769 C2771 1.389 . S
C2770 H2743 0.950 . S
C2770 C2756 1.377 . S
C2770 C2769 1.373 . S
C2771 C2755 1.377 . S
C2771 C2769 1.389 . S
C2771 C2772 1.524 . S
C2772 C2771 1.524 . S
C2772 C2773 1.397 . S
C2772 C2777 1.363 . S
C2773 H2744 0.950 . S
C2773 C2772 1.397 . S
C2773 C2774 1.334 . S
C2774 H2745 0.950 . S
C2774 C2773 1.334 . S
C2774 C2775 1.287 . S
C2775 C2774 1.287 . S
C2775 C2776 1.524 . S
C2775 H2778 0.999 . S
C2776 H2746 0.950 1_556 S
C2776 C2775 1.524 . S
C2776 C2777 1.415 . S
C2777 H2747 0.950 . S
C2777 C2772 1.363 . S
C2777 C2776 1.415 . S
H2778 C2775 0.999 . S
H2779 C2760 0.913 . S
H2780 C2798 0.951 . S
H2781 C2800 0.951 . S
H2782 C2802 0.950 . S
H2783 C2803 0.950 . S
H2784 C2805 0.950 . S
H2785 C2808 0.950 . S
H2786 C2809 0.950 . S
H2787 C2811 0.950 . S
H2788 C2812 0.950 . S
H2789 C2813 0.951 . S
H2790 C2815 0.951 . S
H2791 C2817 0.950 . S
H2792 C2818 0.950 . S
H2793 C2820 0.950 . S
H2794 C2823 0.950 . S
H2795 C2824 0.950 . S
H2796 C2826 0.950 . S
H2797 C2827 0.950 . S
C2798 H2780 0.951 . S
C2798 C2799 1.366 . S
C2798 C2800 1.388 . S
C2799 C2798 1.366 . S
C2799 C2803 1.385 . S
C2800 H2781 0.951 . S
C2800 C2798 1.388 . S
C2800 C2801 1.366 . S
C2801 C2800 1.366 . S
C2801 C2802 1.414 . S
C2801 C2804 1.499 . S
C2802 H2782 0.950 . S
C2802 C2801 1.414 . S
C2802 C2803 1.374 . S
C2803 H2783 0.950 . S
C2803 C2799 1.385 . S
C2803 C2802 1.374 . S
C2804 C2801 1.499 . S
C2804 C2805 1.373 . S
C2804 C2806 1.389 . S
C2805 H2784 0.950 . S
C2805 C2804 1.373 . S
C2805 C2821 1.377 . S
C2806 C2804 1.389 . S
C2806 C2807 1.524 . S
C2806 C2820 1.377 . S
C2807 C2806 1.524 . S
C2807 C2808 1.397 . S
C2807 C2812 1.363 . S
C2808 H2785 0.950 . S
C2808 C2807 1.397 . S
C2808 C2809 1.334 . S
C2809 H2786 0.950 . S
C2809 C2808 1.334 . S
C2809 C2810 1.287 . S
C2810 C2809 1.287 . S
C2810 C2811 1.524 . S
C2810 H2829 0.913 . S
C2811 H2787 0.950 . S
C2811 C2810 1.524 . S
C2811 C2812 1.415 . S
C2812 H2788 0.950 . S
C2812 C2807 1.363 . S
C2812 C2811 1.415 . S
C2813 H2789 0.951 . S
C2813 C2814 1.366 . S
C2813 C2815 1.388 . S
C2814 C2813 1.366 . S
C2814 C2818 1.385 . S
C2815 H2790 0.951 . S
C2815 C2813 1.388 . S
C2815 C2816 1.366 . S
C2816 C2815 1.366 . S
C2816 C2817 1.414 . S
C2816 C2819 1.499 . S
C2817 H2791 0.950 . S
C2817 C2816 1.414 . S
C2817 C2818 1.374 . S
C2818 H2792 0.950 . S
C2818 C2814 1.385 . S
C2818 C2817 1.374 . S
C2819 C2816 1.499 . S
C2819 C2820 1.373 . S
C2819 C2821 1.389 . S
C2820 H2793 0.950 . S
C2820 C2806 1.377 . S
C2820 C2819 1.373 . S
C2821 C2805 1.377 . S
C2821 C2819 1.389 . S
C2821 C2822 1.524 . S
C2822 C2821 1.524 . S
C2822 C2823 1.397 . S
C2822 C2827 1.363 . S
C2823 H2794 0.950 . S
C2823 C2822 1.397 . S
C2823 C2824 1.334 . S
C2824 H2795 0.950 . S
C2824 C2823 1.334 . S
C2824 C2825 1.302 . S
C2825 C2824 1.302 . S
C2825 C2826 1.535 . S
C2825 H2828 0.974 1_556 S
C2826 H2796 0.950 . S
C2826 C2825 1.535 . S
C2826 C2827 1.415 . S
C2827 H2797 0.950 . S
C2827 C2822 1.363 . S
C2827 C2826 1.415 . S
H2828 C2825 0.974 1_554 S
H2829 C2810 0.913 . S
H2830 C2848 0.951 . S
H2831 C2850 0.951 . S
H2832 C2852 0.950 . S
H2833 C2853 0.950 . S
H2834 C2855 0.950 . S
H2835 C2858 0.950 . S
H2836 C2859 0.950 . S
H2837 C2861 0.950 . S
H2838 C2862 0.950 . S
H2839 C2863 0.951 . S
H2840 C2865 0.951 . S
H2841 C2867 0.950 . S
H2842 C2868 0.950 . S
H2843 C2870 0.950 . S
H2844 C2873 0.950 . S
H2845 C2874 0.950 . S
H2846 C2876 0.950 . S
H2847 C2877 0.950 . S
C2848 H2830 0.951 . S
C2848 C2849 1.366 . S
C2848 C2850 1.388 . S
C2849 C2848 1.366 . S
C2849 C2853 1.385 . S
C2850 H2831 0.951 . S
C2850 C2848 1.388 . S
C2850 C2851 1.366 . S
C2851 C2850 1.366 . S
C2851 C2852 1.414 . S
C2851 C2854 1.499 . S
C2852 H2832 0.950 . S
C2852 C2851 1.414 . S
C2852 C2853 1.374 . S
C2853 H2833 0.950 . S
C2853 C2849 1.385 . S
C2853 C2852 1.374 . S
C2854 C2851 1.499 . S
C2854 C2855 1.373 . S
C2854 C2856 1.389 . S
C2855 H2834 0.950 . S
C2855 C2854 1.373 . S
C2855 C2871 1.377 . S
C2856 C2854 1.389 . S
C2856 C2857 1.524 . S
C2856 C2870 1.377 . S
C2857 C2856 1.524 . S
C2857 C2858 1.397 1_556 S
C2857 C2862 1.363 . S
C2858 H2835 0.950 . S
C2858 C2857 1.397 1_554 S
C2858 C2859 1.334 . S
C2859 H2836 0.950 . S
C2859 C2858 1.334 . S
C2859 C2860 1.287 . S
C2860 C2859 1.287 . S
C2860 C2861 1.524 1_554 S
C2860 H2879 0.913 . S
C2861 H2837 0.950 . S
C2861 C2860 1.524 1_556 S
C2861 C2862 1.415 . S
C2862 H2838 0.950 . S
C2862 C2857 1.363 . S
C2862 C2861 1.415 . S
C2863 H2839 0.951 . S
C2863 C2864 1.366 . S
C2863 C2865 1.388 . S
C2864 C2863 1.366 . S
C2864 C2868 1.385 . S
C2865 H2840 0.951 . S
C2865 C2863 1.388 . S
C2865 C2866 1.366 . S
C2866 C2865 1.366 . S
C2866 C2867 1.414 . S
C2866 C2869 1.499 . S
C2867 H2841 0.950 . S
C2867 C2866 1.414 . S
C2867 C2868 1.374 . S
C2868 H2842 0.950 . S
C2868 C2864 1.385 . S
C2868 C2867 1.374 . S
C2869 C2866 1.499 . S
C2869 C2870 1.373 . S
C2869 C2871 1.389 . S
C2870 H2843 0.950 . S
C2870 C2856 1.377 . S
C2870 C2869 1.373 . S
C2871 C2855 1.377 . S
C2871 C2869 1.389 . S
C2871 C2872 1.524 . S
C2872 C2871 1.524 . S
C2872 C2873 1.397 . S
C2872 C2877 1.363 . S
C2873 H2844 0.950 . S
C2873 C2872 1.397 . S
C2873 C2874 1.334 . S
C2874 H2845 0.950 . S
C2874 C2873 1.334 . S
C2874 C2875 1.287 . S
C2875 C2874 1.287 . S
C2875 C2876 1.524 . S
C2875 H2878 0.999 . S
C2876 H2846 0.950 . S
C2876 C2875 1.524 . S
C2876 C2877 1.415 . S
C2877 H2847 0.950 . S
C2877 C2872 1.363 . S
C2877 C2876 1.415 . S
H2878 C2875 0.999 . S
H2879 C2860 0.913 . S
H2880 C2898 0.951 . S
H2881 C2900 0.951 . S
H2882 C2902 0.950 . S
H2883 C2903 0.950 . S
H2884 C2905 0.950 . S
H2885 C2908 0.950 . S
H2886 C2909 0.950 . S
H2887 C2911 0.950 . S
H2888 C2912 0.950 . S
H2889 C2913 0.951 . S
H2890 C2915 0.951 . S
H2891 C2917 0.950 . S
H2892 C2918 0.950 . S
H2893 C2920 0.950 . S
H2894 C2923 0.950 . S
H2895 C2924 0.950 . S
H2896 C2926 0.950 . S
H2897 C2927 0.950 . S
C2898 H2880 0.951 . S
C2898 C2899 1.366 . S
C2898 C2900 1.388 . S
C2899 C2898 1.366 . S
C2899 C2903 1.385 . S
C2900 H2881 0.951 . S
C2900 C2898 1.388 . S
C2900 C2901 1.366 . S
C2901 C2900 1.366 . S
C2901 C2902 1.414 . S
C2901 C2904 1.499 . S
C2902 H2882 0.950 . S
C2902 C2901 1.414 . S
C2902 C2903 1.374 . S
C2903 H2883 0.950 . S
C2903 C2899 1.385 . S
C2903 C2902 1.374 . S
C2904 C2901 1.499 . S
C2904 C2905 1.373 . S
C2904 C2906 1.389 . S
C2905 H2884 0.950 . S
C2905 C2904 1.373 . S
C2905 C2921 1.377 . S
C2906 C2904 1.389 . S
C2906 C2907 1.524 . S
C2906 C2920 1.377 . S
C2907 C2906 1.524 . S
C2907 C2908 1.397 . S
C2907 C2912 1.363 . S
C2908 H2885 0.950 . S
C2908 C2907 1.397 . S
C2908 C2909 1.334 1_554 S
C2909 H2886 0.950 . S
C2909 C2908 1.334 1_556 S
C2909 C2910 1.287 . S
C2910 C2909 1.287 . S
C2910 C2911 1.524 1_556 S
C2910 H2929 0.913 . S
C2911 H2887 0.950 . S
C2911 C2910 1.524 1_554 S
C2911 C2912 1.415 . S
C2912 H2888 0.950 . S
C2912 C2907 1.363 . S
C2912 C2911 1.415 . S
C2913 H2889 0.951 . S
C2913 C2914 1.366 . S
C2913 C2915 1.388 . S
C2914 C2913 1.366 . S
C2914 C2918 1.385 . S
C2915 H2890 0.951 . S
C2915 C2913 1.388 . S
C2915 C2916 1.366 . S
C2916 C2915 1.366 . S
C2916 C2917 1.414 . S
C2916 C2919 1.499 . S
C2917 H2891 0.950 . S
C2917 C2916 1.414 . S
C2917 C2918 1.374 . S
C2918 H2892 0.950 . S
C2918 C2914 1.385 . S
C2918 C2917 1.374 . S
C2919 C2916 1.499 . S
C2919 C2920 1.373 . S
C2919 C2921 1.389 . S
C2920 H2893 0.950 . S
C2920 C2906 1.377 . S
C2920 C2919 1.373 . S
C2921 C2905 1.377 . S
C2921 C2919 1.389 . S
C2921 C2922 1.524 . S
C2922 C2921 1.524 . S
C2922 C2923 1.397 . S
C2922 C2927 1.363 . S
C2923 H2894 0.950 . S
C2923 C2922 1.397 . S
C2923 C2924 1.334 . S
C2924 H2895 0.950 . S
C2924 C2923 1.334 . S
C2924 C2925 1.287 . S
C2925 C2924 1.287 . S
C2925 C2926 1.524 . S
C2925 H2928 0.999 . S
C2926 H2896 0.950 . S
C2926 C2925 1.524 . S
C2926 C2927 1.415 . S
C2927 H2897 0.950 . S
C2927 C2922 1.363 . S
C2927 C2926 1.415 . S
H2928 C2925 0.999 . S
H2929 C2910 0.913 . S
H2930 C2948 0.951 . S
H2931 C2950 0.951 . S
H2932 C2952 0.950 . S
H2933 C2953 0.950 . S
H2934 C2955 0.950 . S
H2935 C2958 0.950 . S
H2936 C2959 0.950 . S
H2937 C2961 0.950 . S
H2938 C2962 0.950 . S
H2939 C2963 0.951 . S
H2940 C2965 0.951 . S
H2941 C2967 0.950 . S
H2942 C2968 0.950 . S
H2943 C2970 0.950 . S
H2944 C2973 0.950 . S
H2945 C2974 0.950 . S
H2946 C2976 0.950 . S
H2947 C2977 0.950 . S
C2948 H2930 0.951 . S
C2948 C2949 1.366 . S
C2948 C2950 1.388 . S
C2949 C2948 1.366 . S
C2949 C2953 1.385 . S
C2950 H2931 0.951 . S
C2950 C2948 1.388 . S
C2950 C2951 1.366 . S
C2951 C2950 1.366 . S
C2951 C2952 1.414 . S
C2951 C2954 1.499 . S
C2952 H2932 0.950 . S
C2952 C2951 1.414 . S
C2952 C2953 1.374 . S
C2953 H2933 0.950 . S
C2953 C2949 1.385 . S
C2953 C2952 1.374 . S
C2954 C2951 1.499 . S
C2954 C2955 1.373 . S
C2954 C2956 1.389 . S
C2955 H2934 0.950 . S
C2955 C2954 1.373 . S
C2955 C2971 1.377 . S
C2956 C2954 1.389 . S
C2956 C2957 1.524 . S
C2956 C2970 1.377 . S
C2957 C2956 1.524 . S
C2957 C2958 1.397 . S
C2957 C2962 1.363 . S
C2958 H2935 0.950 . S
C2958 C2957 1.397 . S
C2958 C2959 1.334 . S
C2959 H2936 0.950 . S
C2959 C2958 1.334 . S
C2959 C2960 1.287 . S
C2960 C2959 1.287 . S
C2960 C2961 1.524 . S
C2960 H2979 0.913 . S
C2961 H2937 0.950 . S
C2961 C2960 1.524 . S
C2961 C2962 1.415 . S
C2962 H2938 0.950 . S
C2962 C2957 1.363 . S
C2962 C2961 1.415 . S
C2963 H2939 0.951 . S
C2963 C2964 1.366 . S
C2963 C2965 1.388 . S
C2964 C2963 1.366 . S
C2964 C2968 1.385 . S
C2965 H2940 0.951 . S
C2965 C2963 1.388 . S
C2965 C2966 1.366 . S
C2966 C2965 1.366 . S
C2966 C2967 1.414 . S
C2966 C2969 1.499 . S
C2967 H2941 0.950 . S
C2967 C2966 1.414 . S
C2967 C2968 1.374 . S
C2968 H2942 0.950 . S
C2968 C2964 1.385 . S
C2968 C2967 1.374 . S
C2969 C2966 1.499 . S
C2969 C2970 1.373 . S
C2969 C2971 1.389 . S
C2970 H2943 0.950 . S
C2970 C2956 1.377 . S
C2970 C2969 1.373 . S
C2971 C2955 1.377 . S
C2971 C2969 1.389 . S
C2971 C2972 1.524 . S
C2972 C2971 1.524 . S
C2972 C2973 1.397 . S
C2972 C2977 1.363 . S
C2973 H2944 0.950 . S
C2973 C2972 1.397 . S
C2973 C2974 1.334 . S
C2974 H2945 0.950 . S
C2974 C2973 1.334 . S
C2974 C2975 1.287 . S
C2975 C2974 1.287 . S
C2975 C2976 1.524 . S
C2975 H2978 0.999 . S
C2976 H2946 0.950 . S
C2976 C2975 1.524 . S
C2976 C2977 1.415 . S
C2977 H2947 0.950 . S
C2977 C2972 1.363 . S
C2977 C2976 1.415 . S
H2978 C2975 0.999 . S
H2979 C2960 0.913 . S
H2980 C2998 0.951 . S
H2981 C3000 0.951 . S
H2982 C3002 0.950 . S
H2983 C3003 0.950 . S
H2984 C3005 0.950 . S
H2985 C3008 0.950 . S
H2986 C3009 0.950 . S
H2987 C3011 0.950 . S
H2988 C3012 0.950 . S
H2989 C3013 0.951 . S
H2990 C3015 0.951 . S
H2991 C3017 0.950 . S
H2992 C3018 0.950 . S
H2993 C3020 0.950 . S
H2994 C3023 0.950 . S
H2995 C3024 0.950 . S
H2996 C3026 0.950 . S
H2997 C3027 0.950 . S
C2998 H2980 0.951 . S
C2998 C2999 1.366 . S
C2998 C3000 1.388 . S
C2999 C2998 1.366 . S
C2999 C3003 1.385 . S
C3000 H2981 0.951 . S
C3000 C2998 1.388 . S
C3000 C3001 1.366 . S
C3001 C3000 1.366 . S
C3001 C3002 1.414 . S
C3001 C3004 1.499 . S
C3002 H2982 0.950 . S
C3002 C3001 1.414 . S
C3002 C3003 1.374 . S
C3003 H2983 0.950 . S
C3003 C2999 1.385 . S
C3003 C3002 1.374 . S
C3004 C3001 1.499 . S
C3004 C3005 1.373 . S
C3004 C3006 1.389 . S
C3005 H2984 0.950 . S
C3005 C3004 1.373 . S
C3005 C3021 1.377 . S
C3006 C3004 1.389 . S
C3006 C3007 1.524 . S
C3006 C3020 1.377 . S
C3007 C3006 1.524 . S
C3007 C3008 1.397 . S
C3007 C3012 1.363 . S
C3008 H2985 0.950 . S
C3008 C3007 1.397 . S
C3008 C3009 1.334 . S
C3009 H2986 0.950 . S
C3009 C3008 1.334 . S
C3009 C3010 1.287 . S
C3010 C3009 1.287 . S
C3010 C3011 1.524 . S
C3010 H3029 0.913 . S
C3011 H2987 0.950 . S
C3011 C3010 1.524 . S
C3011 C3012 1.415 . S
C3012 H2988 0.950 . S
C3012 C3007 1.363 . S
C3012 C3011 1.415 . S
C3013 H2989 0.951 . S
C3013 C3014 1.366 . S
C3013 C3015 1.388 . S
C3014 C3013 1.366 . S
C3014 C3018 1.385 . S
C3015 H2990 0.951 . S
C3015 C3013 1.388 . S
C3015 C3016 1.366 . S
C3016 C3015 1.366 . S
C3016 C3017 1.414 . S
C3016 C3019 1.499 . S
C3017 H2991 0.950 . S
C3017 C3016 1.414 . S
C3017 C3018 1.374 . S
C3018 H2992 0.950 . S
C3018 C3014 1.385 . S
C3018 C3017 1.374 . S
C3019 C3016 1.499 . S
C3019 C3020 1.373 . S
C3019 C3021 1.389 . S
C3020 H2993 0.950 . S
C3020 C3006 1.377 . S
C3020 C3019 1.373 . S
C3021 C3005 1.377 . S
C3021 C3019 1.389 . S
C3021 C3022 1.524 . S
C3022 C3021 1.524 . S
C3022 C3023 1.397 . S
C3022 C3027 1.363 . S
C3023 H2994 0.950 . S
C3023 C3022 1.397 . S
C3023 C3024 1.334 . S
C3024 H2995 0.950 . S
C3024 C3023 1.334 . S
C3024 C3025 1.287 . S
C3025 C3024 1.287 . S
C3025 C3026 1.524 . S
C3025 H3028 0.999 . S
C3026 H2996 0.950 . S
C3026 C3025 1.524 . S
C3026 C3027 1.415 . S
C3027 H2997 0.950 . S
C3027 C3022 1.363 . S
C3027 C3026 1.415 . S
H3028 C3025 0.999 . S
H3029 C3010 0.913 . S
H3030 C3048 0.951 . S
H3031 C3050 0.951 . S
H3032 C3052 0.950 . S
H3033 C3053 0.950 . S
H3034 C3055 0.950 . S
H3035 C3058 0.950 . S
H3036 C3059 0.950 . S
H3037 C3061 0.950 . S
H3038 C3062 0.950 . S
H3039 C3063 0.951 . S
H3040 C3065 0.951 . S
H3041 C3067 0.950 . S
H3042 C3068 0.950 . S
H3043 C3070 0.950 . S
H3044 C3073 0.950 . S
H3045 C3074 0.950 . S
H3046 C3076 0.950 . S
H3047 C3077 0.950 . S
C3048 H3030 0.951 . S
C3048 C3049 1.366 . S
C3048 C3050 1.388 . S
C3049 C3048 1.366 . S
C3049 C3053 1.385 . S
C3050 H3031 0.951 . S
C3050 C3048 1.388 . S
C3050 C3051 1.366 . S
C3051 C3050 1.366 . S
C3051 C3052 1.414 . S
C3051 C3054 1.499 . S
C3052 H3032 0.950 . S
C3052 C3051 1.414 . S
C3052 C3053 1.374 . S
C3053 H3033 0.950 . S
C3053 C3049 1.385 . S
C3053 C3052 1.374 . S
C3054 C3051 1.499 . S
C3054 C3055 1.373 . S
C3054 C3056 1.389 . S
C3055 H3034 0.950 . S
C3055 C3054 1.373 . S
C3055 C3071 1.377 . S
C3056 C3054 1.389 . S
C3056 C3057 1.524 . S
C3056 C3070 1.377 . S
C3057 C3056 1.524 . S
C3057 C3058 1.397 . S
C3057 C3062 1.363 . S
C3058 H3035 0.950 . S
C3058 C3057 1.397 . S
C3058 C3059 1.334 . S
C3059 H3036 0.950 . S
C3059 C3058 1.334 . S
C3059 C3060 1.287 . S
C3060 C3059 1.287 . S
C3060 C3061 1.524 . S
C3060 H3079 0.913 . S
C3061 H3037 0.950 . S
C3061 C3060 1.524 . S
C3061 C3062 1.415 . S
C3062 H3038 0.950 . S
C3062 C3057 1.363 . S
C3062 C3061 1.415 . S
C3063 H3039 0.951 . S
C3063 C3064 1.366 . S
C3063 C3065 1.388 . S
C3064 C3063 1.366 . S
C3064 C3068 1.385 . S
C3065 H3040 0.951 . S
C3065 C3063 1.388 . S
C3065 C3066 1.366 . S
C3066 C3065 1.366 . S
C3066 C3067 1.414 . S
C3066 C3069 1.499 . S
C3067 H3041 0.950 . S
C3067 C3066 1.414 . S
C3067 C3068 1.374 . S
C3068 H3042 0.950 . S
C3068 C3064 1.385 . S
C3068 C3067 1.374 . S
C3069 C3066 1.499 . S
C3069 C3070 1.373 . S
C3069 C3071 1.389 . S
C3070 H3043 0.950 . S
C3070 C3056 1.377 . S
C3070 C3069 1.373 . S
C3071 C3055 1.377 . S
C3071 C3069 1.389 . S
C3071 C3072 1.524 . S
C3072 C3071 1.524 . S
C3072 C3073 1.397 . S
C3072 C3077 1.363 . S
C3073 H3044 0.950 . S
C3073 C3072 1.397 . S
C3073 C3074 1.334 . S
C3074 H3045 0.950 . S
C3074 C3073 1.334 . S
C3074 C3075 1.287 . S
C3075 C3074 1.287 . S
C3075 C3076 1.524 . S
C3075 H3078 0.999 . S
C3076 H3046 0.950 . S
C3076 C3075 1.524 . S
C3076 C3077 1.415 . S
C3077 H3047 0.950 . S
C3077 C3072 1.363 . S
C3077 C3076 1.415 . S
H3078 C3075 0.999 . S
H3079 C3060 0.913 . S
H3080 C3098 0.951 . S
H3081 C3100 0.951 . S
H3082 C3102 0.950 . S
H3083 C3103 0.950 . S
H3084 C3105 0.950 . S
H3085 C3108 0.950 . S
H3086 C3109 0.950 . S
H3087 C3111 0.950 . S
H3088 C3112 0.950 . S
H3089 C3113 0.951 . S
H3090 C3115 0.951 . S
H3091 C3117 0.950 . S
H3092 C3118 0.950 . S
H3093 C3120 0.950 . S
H3094 C3123 0.950 . S
H3095 C3124 0.950 . S
H3096 C3126 0.950 . S
H3097 C3127 0.950 . S
C3098 H3080 0.951 . S
C3098 C3099 1.366 . S
C3098 C3100 1.388 . S
C3099 C3098 1.366 . S
C3099 C3103 1.385 . S
C3100 H3081 0.951 . S
C3100 C3098 1.388 . S
C3100 C3101 1.366 . S
C3101 C3100 1.366 . S
C3101 C3102 1.414 . S
C3101 C3104 1.499 . S
C3102 H3082 0.950 . S
C3102 C3101 1.414 . S
C3102 C3103 1.374 . S
C3103 H3083 0.950 . S
C3103 C3099 1.385 . S
C3103 C3102 1.374 . S
C3104 C3101 1.499 . S
C3104 C3105 1.373 . S
C3104 C3106 1.389 . S
C3105 H3084 0.950 . S
C3105 C3104 1.373 . S
C3105 C3121 1.377 . S
C3106 C3104 1.389 . S
C3106 C3107 1.524 . S
C3106 C3120 1.377 . S
C3107 C3106 1.524 . S
C3107 C3108 1.397 . S
C3107 C3112 1.363 . S
C3108 H3085 0.950 . S
C3108 C3107 1.397 . S
C3108 C3109 1.334 . S
C3109 H3086 0.950 . S
C3109 C3108 1.334 . S
C3109 C3110 1.287 . S
C3110 C3109 1.287 . S
C3110 C3111 1.524 . S
C3110 H3129 0.913 . S
C3111 H3087 0.950 . S
C3111 C3110 1.524 . S
C3111 C3112 1.415 . S
C3112 H3088 0.950 . S
C3112 C3107 1.363 . S
C3112 C3111 1.415 . S
C3113 H3089 0.951 . S
C3113 C3114 1.366 . S
C3113 C3115 1.388 . S
C3114 C3113 1.366 . S
C3114 C3118 1.385 . S
C3115 H3090 0.951 . S
C3115 C3113 1.388 . S
C3115 C3116 1.366 . S
C3116 C3115 1.366 . S
C3116 C3117 1.414 . S
C3116 C3119 1.499 . S
C3117 H3091 0.950 . S
C3117 C3116 1.414 . S
C3117 C3118 1.374 . S
C3118 H3092 0.950 . S
C3118 C3114 1.385 . S
C3118 C3117 1.374 . S
C3119 C3116 1.499 . S
C3119 C3120 1.373 . S
C3119 C3121 1.389 . S
C3120 H3093 0.950 . S
C3120 C3106 1.377 . S
C3120 C3119 1.373 . S
C3121 C3105 1.377 . S
C3121 C3119 1.389 . S
C3121 C3122 1.524 . S
C3122 C3121 1.524 . S
C3122 C3123 1.397 . S
C3122 C3127 1.363 . S
C3123 H3094 0.950 . S
C3123 C3122 1.397 . S
C3123 C3124 1.334 . S
C3124 H3095 0.950 . S
C3124 C3123 1.334 . S
C3124 C3125 1.287 . S
C3125 C3124 1.287 . S
C3125 C3126 1.524 . S
C3125 H3128 0.999 . S
C3126 H3096 0.950 . S
C3126 C3125 1.524 . S
C3126 C3127 1.415 . S
C3127 H3097 0.950 . S
C3127 C3122 1.363 . S
C3127 C3126 1.415 . S
H3128 C3125 0.999 . S
H3129 C3110 0.913 . S
H3130 C3148 0.951 . S
H3131 C3150 0.951 . S
H3132 C3152 0.950 . S
H3133 C3153 0.950 . S
H3134 C3155 0.950 . S
H3135 C3158 0.950 . S
H3136 C3159 0.950 . S
H3137 C3161 0.950 . S
H3138 C3162 0.950 . S
H3139 C3163 0.951 . S
H3140 C3165 0.951 . S
H3141 C3167 0.950 . S
H3142 C3168 0.950 . S
H3143 C3170 0.950 . S
H3144 C3173 0.950 . S
H3145 C3174 0.950 . S
H3146 C3176 0.950 . S
H3147 C3177 0.950 . S
C3148 H3130 0.951 . S
C3148 C3149 1.366 . S
C3148 C3150 1.388 . S
C3149 C3148 1.366 . S
C3149 C3153 1.385 . S
C3150 H3131 0.951 . S
C3150 C3148 1.388 . S
C3150 C3151 1.366 . S
C3151 C3150 1.366 . S
C3151 C3152 1.414 . S
C3151 C3154 1.499 . S
C3152 H3132 0.950 . S
C3152 C3151 1.414 . S
C3152 C3153 1.374 . S
C3153 H3133 0.950 . S
C3153 C3149 1.385 . S
C3153 C3152 1.374 . S
C3154 C3151 1.499 . S
C3154 C3155 1.373 . S
C3154 C3156 1.389 . S
C3155 H3134 0.950 . S
C3155 C3154 1.373 . S
C3155 C3171 1.377 . S
C3156 C3154 1.389 . S
C3156 C3157 1.524 . S
C3156 C3170 1.377 . S
C3157 C3156 1.524 . S
C3157 C3158 1.397 . S
C3157 C3162 1.363 . S
C3158 H3135 0.950 . S
C3158 C3157 1.397 . S
C3158 C3159 1.334 . S
C3159 H3136 0.950 . S
C3159 C3158 1.334 . S
C3159 C3160 1.287 . S
C3160 C3159 1.287 . S
C3160 C3161 1.524 . S
C3160 H3179 0.913 . S
C3161 H3137 0.950 . S
C3161 C3160 1.524 . S
C3161 C3162 1.415 . S
C3162 H3138 0.950 . S
C3162 C3157 1.363 . S
C3162 C3161 1.415 . S
C3163 H3139 0.951 . S
C3163 C3164 1.366 . S
C3163 C3165 1.388 . S
C3164 C3163 1.366 . S
C3164 C3168 1.385 . S
C3165 H3140 0.951 . S
C3165 C3163 1.388 . S
C3165 C3166 1.366 . S
C3166 C3165 1.366 . S
C3166 C3167 1.414 . S
C3166 C3169 1.499 . S
C3167 H3141 0.950 . S
C3167 C3166 1.414 . S
C3167 C3168 1.374 . S
C3168 H3142 0.950 . S
C3168 C3164 1.385 . S
C3168 C3167 1.374 . S
C3169 C3166 1.499 . S
C3169 C3170 1.373 . S
C3169 C3171 1.389 . S
C3170 H3143 0.950 . S
C3170 C3156 1.377 . S
C3170 C3169 1.373 . S
C3171 C3155 1.377 . S
C3171 C3169 1.389 . S
C3171 C3172 1.524 . S
C3172 C3171 1.524 . S
C3172 C3173 1.397 . S
C3172 C3177 1.363 . S
C3173 H3144 0.950 . S
C3173 C3172 1.397 . S
C3173 C3174 1.334 . S
C3174 H3145 0.950 . S
C3174 C3173 1.334 . S
C3174 C3175 1.287 . S
C3175 C3174 1.287 . S
C3175 C3176 1.524 . S
C3175 H3178 0.999 . S
C3176 H3146 0.950 . S
C3176 C3175 1.524 . S
C3176 C3177 1.415 . S
C3177 H3147 0.950 . S
C3177 C3172 1.363 . S
C3177 C3176 1.415 . S
H3178 C3175 0.999 . S
H3179 C3160 0.913 . S
H3180 C3198 0.951 . S
H3181 C3200 0.951 . S
H3182 C3202 0.950 1_655 S
H3183 C3203 0.950 1_655 S
H3184 C3205 0.950 . S
H3185 C3208 0.950 . S
H3186 C3209 0.950 . S
H3187 C3211 0.950 . S
H3188 C3212 0.950 . S
H3189 C3213 0.951 . S
H3190 C3215 0.951 . S
H3191 C3217 0.950 . S
H3192 C3218 0.950 . S
H3193 C3220 0.950 . S
H3194 C3223 0.950 . S
H3195 C3224 0.950 . S
H3196 C3226 0.950 . S
H3197 C3227 0.950 . S
C3198 H3180 0.951 . S
C3198 C3199 1.366 . S
C3198 C3200 1.388 . S
C3199 C3198 1.366 . S
C3199 C3203 1.385 . S
C3200 H3181 0.951 . S
C3200 C3198 1.388 . S
C3200 C3201 1.366 . S
C3201 C3200 1.366 . S
C3201 C3202 1.414 . S
C3201 C3204 1.499 . S
C3202 H3182 0.950 1_455 S
C3202 C3201 1.414 . S
C3202 C3203 1.374 . S
C3203 H3183 0.950 1_455 S
C3203 C3199 1.385 . S
C3203 C3202 1.374 . S
C3204 C3201 1.499 . S
C3204 C3205 1.373 1_455 S
C3204 C3206 1.389 . S
C3205 H3184 0.950 . S
C3205 C3204 1.373 1_655 S
C3205 C3221 1.377 . S
C3206 C3204 1.389 . S
C3206 C3207 1.524 . S
C3206 C3220 1.377 . S
C3207 C3206 1.524 . S
C3207 C3208 1.397 . S
C3207 C3212 1.363 . S
C3208 H3185 0.950 . S
C3208 C3207 1.397 . S
C3208 C3209 1.334 . S
C3209 H3186 0.950 . S
C3209 C3208 1.334 . S
C3209 C3210 1.287 . S
C3210 C3209 1.287 . S
C3210 C3211 1.524 . S
C3210 H3229 0.913 . S
C3211 H3187 0.950 . S
C3211 C3210 1.524 . S
C3211 C3212 1.415 . S
C3212 H3188 0.950 . S
C3212 C3207 1.363 . S
C3212 C3211 1.415 . S
C3213 H3189 0.951 . S
C3213 C3214 1.366 1_655 S
C3213 C3215 1.388 . S
C3214 C3213 1.366 1_455 S
C3214 C3218 1.385 . S
C3215 H3190 0.951 . S
C3215 C3213 1.388 . S
C3215 C3216 1.366 1_655 S
C3216 C3215 1.366 1_455 S
C3216 C3217 1.414 . S
C3216 C3219 1.499 . S
C3217 H3191 0.950 . S
C3217 C3216 1.414 . S
C3217 C3218 1.374 . S
C3218 H3192 0.950 . S
C3218 C3214 1.385 . S
C3218 C3217 1.374 . S
C3219 C3216 1.499 . S
C3219 C3220 1.373 . S
C3219 C3221 1.389 1_455 S
C3220 H3193 0.950 . S
C3220 C3206 1.377 . S
C3220 C3219 1.373 . S
C3221 C3205 1.377 . S
C3221 C3219 1.389 1_655 S
C3221 C3222 1.524 . S
C3222 C3221 1.524 . S
C3222 C3223 1.397 . S
C3222 C3227 1.363 . S
C3223 H3194 0.950 . S
C3223 C3222 1.397 . S
C3223 C3224 1.334 . S
C3224 H3195 0.950 . S
C3224 C3223 1.334 . S
C3224 C3225 1.287 . S
C3225 C3224 1.287 . S
C3225 C3226 1.524 . S
C3225 H3228 0.999 . S
C3226 H3196 0.950 . S
C3226 C3225 1.524 . S
C3226 C3227 1.415 . S
C3227 H3197 0.950 . S
C3227 C3222 1.363 . S
C3227 C3226 1.415 . S
H3228 C3225 0.999 . S
H3229 C3210 0.913 . S
H3230 C3248 0.951 . S
H3231 C3250 0.951 . S
H3232 C3252 0.950 . S
H3233 C3253 0.950 . S
H3234 C3255 0.950 . S
H3235 C3258 0.950 . S
H3236 C3259 0.950 . S
H3237 C3261 0.950 . S
H3238 C3262 0.950 . S
H3239 C3263 0.951 . S
H3240 C3265 0.951 . S
H3241 C3267 0.950 . S
H3242 C3268 0.950 . S
H3243 C3270 0.950 . S
H3244 C3273 0.950 . S
H3245 C3274 0.950 . S
H3246 C3276 0.950 . S
H3247 C3277 0.950 . S
C3248 H3230 0.951 . S
C3248 C3249 1.366 . S
C3248 C3250 1.388 . S
C3249 C3248 1.366 . S
C3249 C3253 1.385 . S
C3250 H3231 0.951 . S
C3250 C3248 1.388 . S
C3250 C3251 1.366 . S
C3251 C3250 1.366 . S
C3251 C3252 1.414 . S
C3251 C3254 1.499 . S
C3252 H3232 0.950 . S
C3252 C3251 1.414 . S
C3252 C3253 1.374 . S
C3253 H3233 0.950 . S
C3253 C3249 1.385 . S
C3253 C3252 1.374 . S
C3254 C3251 1.499 . S
C3254 C3255 1.373 . S
C3254 C3256 1.389 . S
C3255 H3234 0.950 . S
C3255 C3254 1.373 . S
C3255 C3271 1.377 . S
C3256 C3254 1.389 . S
C3256 C3257 1.524 . S
C3256 C3270 1.377 . S
C3257 C3256 1.524 . S
C3257 C3258 1.397 . S
C3257 C3262 1.363 . S
C3258 H3235 0.950 . S
C3258 C3257 1.397 . S
C3258 C3259 1.334 . S
C3259 H3236 0.950 . S
C3259 C3258 1.334 . S
C3259 C3260 1.287 . S
C3260 C3259 1.287 . S
C3260 C3261 1.524 . S
C3260 H3279 0.913 . S
C3261 H3237 0.950 . S
C3261 C3260 1.524 . S
C3261 C3262 1.415 . S
C3262 H3238 0.950 . S
C3262 C3257 1.363 . S
C3262 C3261 1.415 . S
C3263 H3239 0.951 . S
C3263 C3264 1.366 . S
C3263 C3265 1.388 . S
C3264 C3263 1.366 . S
C3264 C3268 1.385 . S
C3265 H3240 0.951 . S
C3265 C3263 1.388 . S
C3265 C3266 1.366 . S
C3266 C3265 1.366 . S
C3266 C3267 1.414 . S
C3266 C3269 1.499 . S
C3267 H3241 0.950 . S
C3267 C3266 1.414 . S
C3267 C3268 1.374 . S
C3268 H3242 0.950 . S
C3268 C3264 1.385 . S
C3268 C3267 1.374 . S
C3269 C3266 1.499 . S
C3269 C3270 1.373 . S
C3269 C3271 1.389 . S
C3270 H3243 0.950 . S
C3270 C3256 1.377 . S
C3270 C3269 1.373 . S
C3271 C3255 1.377 . S
C3271 C3269 1.389 . S
C3271 C3272 1.524 . S
C3272 C3271 1.524 . S
C3272 C3273 1.397 . S
C3272 C3277 1.363 . S
C3273 H3244 0.950 . S
C3273 C3272 1.397 . S
C3273 C3274 1.334 . S
C3274 H3245 0.950 . S
C3274 C3273 1.334 . S
C3274 C3275 1.287 . S
C3275 C3274 1.287 . S
C3275 C3276 1.524 . S
C3275 H3278 0.999 . S
C3276 H3246 0.950 . S
C3276 C3275 1.524 . S
C3276 C3277 1.415 . S
C3277 H3247 0.950 . S
C3277 C3272 1.363 . S
C3277 C3276 1.415 . S
H3278 C3275 0.999 . S
H3279 C3260 0.913 . S
H3280 C3298 0.951 . S
H3281 C3300 0.951 . S
H3282 C3302 0.950 . S
H3283 C3303 0.950 . S
H3284 C3305 0.950 . S
H3285 C3308 0.950 . S
H3286 C3309 0.950 . S
H3287 C3311 0.950 . S
H3288 C3312 0.950 . S
H3289 C3313 0.951 . S
H3290 C3315 0.951 . S
H3291 C3317 0.950 . S
H3292 C3318 0.950 . S
H3293 C3320 0.950 . S
H3294 C3323 0.950 . S
H3295 C3324 0.950 . S
H3296 C3326 0.950 . S
H3297 C3327 0.950 . S
C3298 H3280 0.951 . S
C3298 C3299 1.366 . S
C3298 C3300 1.388 . S
C3299 C3298 1.366 . S
C3299 C3303 1.385 . S
C3300 H3281 0.951 . S
C3300 C3298 1.388 . S
C3300 C3301 1.366 . S
C3301 C3300 1.366 . S
C3301 C3302 1.414 . S
C3301 C3304 1.499 . S
C3302 H3282 0.950 . S
C3302 C3301 1.414 . S
C3302 C3303 1.374 . S
C3303 H3283 0.950 . S
C3303 C3299 1.385 . S
C3303 C3302 1.374 . S
C3304 C3301 1.499 . S
C3304 C3305 1.373 1_565 S
C3304 C3306 1.389 . S
C3305 H3284 0.950 . S
C3305 C3304 1.373 1_545 S
C3305 C3321 1.377 . S
C3306 C3304 1.389 . S
C3306 C3307 1.524 . S
C3306 C3320 1.377 . S
C3307 C3306 1.524 . S
C3307 C3308 1.397 . S
C3307 C3312 1.363 . S
C3308 H3285 0.950 . S
C3308 C3307 1.397 . S
C3308 C3309 1.334 . S
C3309 H3286 0.950 . S
C3309 C3308 1.334 . S
C3309 C3310 1.287 . S
C3310 C3309 1.287 . S
C3310 C3311 1.524 . S
C3310 H3329 0.913 . S
C3311 H3287 0.950 . S
C3311 C3310 1.524 . S
C3311 C3312 1.415 . S
C3312 H3288 0.950 . S
C3312 C3307 1.363 . S
C3312 C3311 1.415 . S
C3313 H3289 0.951 . S
C3313 C3314 1.366 . S
C3313 C3315 1.388 . S
C3314 C3313 1.366 . S
C3314 C3318 1.385 . S
C3315 H3290 0.951 . S
C3315 C3313 1.388 . S
C3315 C3316 1.366 . S
C3316 C3315 1.366 . S
C3316 C3317 1.414 . S
C3316 C3319 1.499 . S
C3317 H3291 0.950 . S
C3317 C3316 1.414 . S
C3317 C3318 1.374 . S
C3318 H3292 0.950 . S
C3318 C3314 1.385 . S
C3318 C3317 1.374 . S
C3319 C3316 1.499 . S
C3319 C3320 1.373 . S
C3319 C3321 1.389 1_565 S
C3320 H3293 0.950 . S
C3320 C3306 1.377 . S
C3320 C3319 1.373 . S
C3321 C3305 1.377 . S
C3321 C3319 1.389 1_545 S
C3321 C3322 1.524 . S
C3322 C3321 1.524 . S
C3322 C3323 1.397 . S
C3322 C3327 1.363 . S
C3323 H3294 0.950 . S
C3323 C3322 1.397 . S
C3323 C3324 1.334 . S
C3324 H3295 0.950 . S
C3324 C3323 1.334 . S
C3324 C3325 1.287 . S
C3325 C3324 1.287 . S
C3325 C3326 1.524 . S
C3325 H3328 0.999 . S
C3326 H3296 0.950 . S
C3326 C3325 1.524 . S
C3326 C3327 1.415 . S
C3327 H3297 0.950 . S
C3327 C3322 1.363 . S
C3327 C3326 1.415 . S
H3328 C3325 0.999 . S
H3329 C3310 0.913 . S
H3330 C3348 0.951 1_545 S
H3331 C3350 0.950 1_545 S
H3332 C3352 0.950 . S
H3333 C3353 0.950 . S
H3334 C3355 0.950 . S
H3335 C3358 0.950 . S
H3336 C3359 0.950 . S
H3337 C3361 0.950 . S
H3338 C3362 0.950 . S
H3339 C3363 0.951 . S
H3340 C3365 0.951 . S
H3341 C3367 0.950 . S
H3342 C3368 0.950 . S
H3343 C3370 0.950 . S
H3344 C3373 0.950 . S
H3345 C3374 0.950 . S
H3346 C3376 0.950 . S
H3347 C3377 0.950 . S
C3348 H3330 0.951 1_565 S
C3348 C3349 1.366 . S
C3348 C3350 1.388 . S
C3349 C3348 1.366 . S
C3349 C3353 1.385 . S
C3350 H3331 0.950 1_565 S
C3350 C3348 1.388 . S
C3350 C3351 1.366 . S
C3351 C3350 1.366 . S
C3351 C3352 1.414 . S
C3351 C3354 1.499 . S
C3352 H3332 0.950 . S
C3352 C3351 1.414 . S
C3352 C3353 1.374 . S
C3353 H3333 0.950 . S
C3353 C3349 1.385 . S
C3353 C3352 1.374 . S
C3354 C3351 1.499 . S
C3354 C3355 1.373 . S
C3354 C3356 1.389 1_565 S
C3355 H3334 0.950 . S
C3355 C3354 1.373 . S
C3355 C3371 1.377 . S
C3356 C3354 1.389 1_545 S
C3356 C3357 1.524 . S
C3356 C3370 1.377 . S
C3357 C3356 1.524 . S
C3357 C3358 1.397 . S
C3357 C3362 1.363 . S
C3358 H3335 0.950 . S
C3358 C3357 1.397 . S
C3358 C3359 1.334 . S
C3359 H3336 0.950 . S
C3359 C3358 1.334 . S
C3359 C3360 1.287 . S
C3360 C3359 1.287 . S
C3360 C3361 1.524 . S
C3360 H3379 0.913 . S
C3361 H3337 0.950 . S
C3361 C3360 1.524 . S
C3361 C3362 1.415 . S
C3362 H3338 0.950 . S
C3362 C3357 1.363 . S
C3362 C3361 1.415 . S
C3363 H3339 0.951 . S
C3363 C3364 1.366 . S
C3363 C3365 1.388 . S
C3364 C3363 1.366 . S
C3364 C3368 1.385 1_565 S
C3365 H3340 0.951 . S
C3365 C3363 1.388 . S
C3365 C3366 1.366 . S
C3366 C3365 1.366 . S
C3366 C3367 1.414 1_565 S
C3366 C3369 1.499 . S
C3367 H3341 0.950 . S
C3367 C3366 1.414 1_545 S
C3367 C3368 1.374 . S
C3368 H3342 0.950 . S
C3368 C3364 1.385 1_545 S
C3368 C3367 1.374 . S
C3369 C3366 1.499 . S
C3369 C3370 1.373 1_565 S
C3369 C3371 1.389 . S
C3370 H3343 0.950 . S
C3370 C3356 1.377 . S
C3370 C3369 1.373 1_545 S
C3371 C3355 1.377 . S
C3371 C3369 1.389 . S
C3371 C3372 1.524 . S
C3372 C3371 1.524 . S
C3372 C3373 1.397 . S
C3372 C3377 1.363 . S
C3373 H3344 0.950 . S
C3373 C3372 1.397 . S
C3373 C3374 1.334 . S
C3374 H3345 0.950 . S
C3374 C3373 1.334 . S
C3374 C3375 1.287 . S
C3375 C3374 1.287 . S
C3375 C3376 1.524 . S
C3375 H3378 0.999 . S
C3376 H3346 0.950 . S
C3376 C3375 1.524 . S
C3376 C3377 1.415 . S
C3377 H3347 0.950 . S
C3377 C3372 1.363 . S
C3377 C3376 1.415 . S
H3378 C3375 0.999 . S
H3379 C3360 0.913 . S
H3380 C3398 0.951 . S
H3381 C3400 0.951 . S
H3382 C3402 0.950 . S
H3383 C3403 0.945 1_655 S
H3384 C3405 0.950 . S
H3385 C3408 0.950 . S
H3386 C3409 0.950 . S
H3387 C3411 0.950 . S
H3388 C3412 0.950 . S
H3389 C3413 0.951 . S
H3390 C3415 0.951 . S
H3391 C3417 0.950 . S
H3392 C3418 0.950 . S
H3393 C3420 0.957 . S
H3394 C3423 0.950 . S
H3395 C3424 0.950 . S
H3396 C3426 0.950 . S
H3397 C3427 0.950 1_655 S
C3398 H3380 0.951 . S
C3398 C3399 1.366 . S
C3398 C3400 1.388 . S
C3399 C3398 1.366 . S
C3399 C3403 1.386 . S
C3400 H3381 0.951 . S
C3400 C3398 1.388 . S
C3400 C3401 1.366 . S
C3401 C3400 1.366 . S
C3401 C3402 1.414 1_455 S
C3401 C3404 1.499 . S
C3402 H3382 0.950 . S
C3402 C3401 1.414 1_655 S
C3402 C3403 1.377 1_655 S
C3403 H3383 0.945 1_455 S
C3403 C3399 1.386 . S
C3403 C3402 1.377 1_455 S
C3404 C3401 1.499 . S
C3404 C3405 1.373 . S
C3404 C3406 1.389 . S
C3405 H3384 0.950 . S
C3405 C3404 1.373 . S
C3405 C3421 1.377 . S
C3406 C3404 1.389 . S
C3406 C3407 1.524 1_455 S
C3406 C3420 1.377 . S
C3407 C3406 1.524 1_655 S
C3407 C3408 1.397 . S
C3407 C3412 1.363 1_655 S
C3408 H3385 0.950 . S
C3408 C3407 1.397 . S
C3408 C3409 1.334 . S
C3409 H3386 0.950 . S
C3409 C3408 1.334 . S
C3409 C3410 1.287 . S
C3410 C3409 1.287 . S
C3410 C3411 1.524 1_655 S
C3410 H3429 0.913 . S
C3411 H3387 0.950 . S
C3411 C3410 1.524 1_455 S
C3411 C3412 1.415 . S
C3412 H3388 0.950 . S
C3412 C3407 1.363 1_455 S
C3412 C3411 1.415 . S
C3413 H3389 0.951 . S
C3413 C3414 1.337 1_655 S
C3413 C3415 1.388 . S
C3414 C3413 1.337 1_455 S
C3414 C3418 1.394 . S
C3415 H3390 0.951 . S
C3415 C3413 1.388 . S
C3415 C3416 1.366 1_655 S
C3416 C3415 1.366 1_455 S
C3416 C3417 1.414 . S
C3416 C3419 1.499 . S
C3417 H3391 0.950 . S
C3417 C3416 1.414 . S
C3417 C3418 1.374 . S
C3418 H3392 0.950 . S
C3418 C3414 1.394 . S
C3418 C3417 1.374 . S
C3419 C3416 1.499 . S
C3419 C3420 1.373 . S
C3419 C3421 1.389 . S
C3420 H3393 0.957 . S
C3420 C3406 1.377 . S
C3420 C3419 1.373 . S
C3421 C3405 1.377 . S
C3421 C3419 1.389 . S
C3421 C3422 1.524 . S
C3422 C3421 1.524 . S
C3422 C3423 1.397 . S
C3422 C3427 1.363 . S
C3423 H3394 0.950 . S
C3423 C3422 1.397 . S
C3423 C3424 1.334 . S
C3424 H3395 0.950 . S
C3424 C3423 1.334 . S
C3424 C3425 1.287 . S
C3425 C3424 1.287 . S
C3425 C3426 1.524 . S
C3425 H3428 0.999 . S
C3426 H3396 0.950 . S
C3426 C3425 1.524 . S
C3426 C3427 1.415 . S
C3427 H3397 0.950 1_455 S
C3427 C3422 1.363 . S
C3427 C3426 1.415 . S
H3428 C3425 0.999 . S
H3429 C3410 0.913 . S
H3430 C3448 0.951 . S
H3431 C3450 0.951 . S
H3432 C3452 0.950 . S
H3433 C3453 0.950 . S
H3434 C3455 0.950 . S
H3435 C3458 0.950 . S
H3436 C3459 0.950 . S
H3437 C3461 0.950 . S
H3438 C3462 0.950 . S
H3439 C3463 0.951 . S
H3440 C3465 0.951 . S
H3441 C3467 0.950 . S
H3442 C3468 0.950 . S
H3443 C3470 0.950 . S
H3444 C3473 0.950 . S
H3445 C3474 0.950 . S
H3446 C3476 0.950 . S
H3447 C3477 0.950 . S
C3448 H3430 0.951 . S
C3448 C3449 1.366 . S
C3448 C3450 1.388 . S
C3449 C3448 1.366 . S
C3449 C3453 1.385 . S
C3450 H3431 0.951 . S
C3450 C3448 1.388 . S
C3450 C3451 1.366 . S
C3451 C3450 1.366 . S
C3451 C3452 1.414 . S
C3451 C3454 1.499 . S
C3452 H3432 0.950 . S
C3452 C3451 1.414 . S
C3452 C3453 1.374 . S
C3453 H3433 0.950 . S
C3453 C3449 1.385 . S
C3453 C3452 1.374 . S
C3454 C3451 1.499 . S
C3454 C3455 1.373 . S
C3454 C3456 1.389 . S
C3455 H3434 0.950 . S
C3455 C3454 1.373 . S
C3455 C3471 1.377 . S
C3456 C3454 1.389 . S
C3456 C3457 1.524 . S
C3456 C3470 1.377 . S
C3457 C3456 1.524 . S
C3457 C3458 1.397 . S
C3457 C3462 1.363 . S
C3458 H3435 0.950 . S
C3458 C3457 1.397 . S
C3458 C3459 1.334 . S
C3459 H3436 0.950 . S
C3459 C3458 1.334 . S
C3459 C3460 1.287 . S
C3460 C3459 1.287 . S
C3460 C3461 1.524 . S
C3460 H3479 0.913 . S
C3461 H3437 0.950 . S
C3461 C3460 1.524 . S
C3461 C3462 1.415 . S
C3462 H3438 0.950 . S
C3462 C3457 1.363 . S
C3462 C3461 1.415 . S
C3463 H3439 0.951 . S
C3463 C3464 1.366 . S
C3463 C3465 1.388 . S
C3464 C3463 1.366 . S
C3464 C3468 1.385 . S
C3465 H3440 0.951 . S
C3465 C3463 1.388 . S
C3465 C3466 1.366 . S
C3466 C3465 1.366 . S
C3466 C3467 1.414 . S
C3466 C3469 1.499 . S
C3467 H3441 0.950 . S
C3467 C3466 1.414 . S
C3467 C3468 1.374 . S
C3468 H3442 0.950 . S
C3468 C3464 1.385 . S
C3468 C3467 1.374 . S
C3469 C3466 1.499 . S
C3469 C3470 1.373 . S
C3469 C3471 1.389 . S
C3470 H3443 0.950 . S
C3470 C3456 1.377 . S
C3470 C3469 1.373 . S
C3471 C3455 1.377 . S
C3471 C3469 1.389 . S
C3471 C3472 1.524 . S
C3472 C3471 1.524 . S
C3472 C3473 1.397 . S
C3472 C3477 1.363 . S
C3473 H3444 0.950 . S
C3473 C3472 1.397 . S
C3473 C3474 1.334 . S
C3474 H3445 0.950 . S
C3474 C3473 1.334 . S
C3474 C3475 1.287 . S
C3475 C3474 1.287 . S
C3475 C3476 1.524 . S
C3475 H3478 0.999 . S
C3476 H3446 0.950 . S
C3476 C3475 1.524 . S
C3476 C3477 1.415 . S
C3477 H3447 0.950 . S
C3477 C3472 1.363 . S
C3477 C3476 1.415 . S
H3478 C3475 0.999 . S
H3479 C3460 0.913 . S
H3480 C3498 0.951 . S
H3481 C3500 0.951 . S
H3482 C3502 0.950 . S
H3483 C3503 0.950 . S
H3484 C3505 0.950 . S
H3485 C3508 0.950 . S
H3486 C3509 0.950 . S
H3487 C3511 0.950 . S
H3488 C3512 0.950 . S
H3489 C3513 0.951 . S
H3490 C3515 0.951 . S
H3491 C3517 0.950 . S
H3492 C3518 0.950 . S
H3493 C3520 0.950 . S
H3494 C3523 0.950 . S
H3495 C3524 0.950 . S
H3496 C3526 0.950 . S
H3497 C3527 0.950 . S
C3498 H3480 0.951 . S
C3498 C3499 1.366 . S
C3498 C3500 1.388 . S
C3499 C3498 1.366 . S
C3499 C3503 1.385 . S
C3500 H3481 0.951 . S
C3500 C3498 1.388 . S
C3500 C3501 1.366 . S
C3501 C3500 1.366 . S
C3501 C3502 1.414 . S
C3501 C3504 1.499 . S
C3502 H3482 0.950 . S
C3502 C3501 1.414 . S
C3502 C3503 1.374 . S
C3503 H3483 0.950 . S
C3503 C3499 1.385 . S
C3503 C3502 1.374 . S
C3504 C3501 1.499 . S
C3504 C3505 1.373 . S
C3504 C3506 1.389 . S
C3505 H3484 0.950 . S
C3505 C3504 1.373 . S
C3505 C3521 1.377 . S
C3506 C3504 1.389 . S
C3506 C3507 1.524 . S
C3506 C3520 1.377 . S
C3507 C3506 1.524 . S
C3507 C3508 1.397 . S
C3507 C3512 1.363 . S
C3508 H3485 0.950 . S
C3508 C3507 1.397 . S
C3508 C3509 1.334 . S
C3509 H3486 0.950 . S
C3509 C3508 1.334 . S
C3509 C3510 1.287 . S
C3510 C3509 1.287 . S
C3510 C3511 1.524 . S
C3510 H3529 0.913 . S
C3511 H3487 0.950 . S
C3511 C3510 1.524 . S
C3511 C3512 1.415 . S
C3512 H3488 0.950 . S
C3512 C3507 1.363 . S
C3512 C3511 1.415 . S
C3513 H3489 0.951 . S
C3513 C3514 1.366 . S
C3513 C3515 1.388 . S
C3514 C3513 1.366 . S
C3514 C3518 1.385 . S
C3515 H3490 0.951 . S
C3515 C3513 1.388 . S
C3515 C3516 1.366 . S
C3516 C3515 1.366 . S
C3516 C3517 1.414 . S
C3516 C3519 1.499 . S
C3517 H3491 0.950 . S
C3517 C3516 1.414 . S
C3517 C3518 1.374 . S
C3518 H3492 0.950 . S
C3518 C3514 1.385 . S
C3518 C3517 1.374 . S
C3519 C3516 1.499 . S
C3519 C3520 1.373 . S
C3519 C3521 1.389 . S
C3520 H3493 0.950 . S
C3520 C3506 1.377 . S
C3520 C3519 1.373 . S
C3521 C3505 1.377 . S
C3521 C3519 1.389 . S
C3521 C3522 1.524 . S
C3522 C3521 1.524 . S
C3522 C3523 1.397 . S
C3522 C3527 1.363 . S
C3523 H3494 0.950 . S
C3523 C3522 1.397 . S
C3523 C3524 1.334 . S
C3524 H3495 0.950 . S
C3524 C3523 1.334 . S
C3524 C3525 1.287 . S
C3525 C3524 1.287 . S
C3525 C3526 1.524 . S
C3525 H3528 0.999 . S
C3526 H3496 0.950 . S
C3526 C3525 1.524 . S
C3526 C3527 1.415 . S
C3527 H3497 0.950 . S
C3527 C3522 1.363 . S
C3527 C3526 1.415 . S
H3528 C3525 0.999 . S
H3529 C3510 0.913 . S
H3530 C3548 0.951 . S
H3531 C3550 0.951 . S
H3532 C3552 0.950 . S
H3533 C3553 0.950 . S
H3534 C3555 0.950 . S
H3535 C3558 0.950 . S
H3536 C3559 0.950 . S
H3537 C3561 0.950 . S
H3538 C3562 0.950 . S
H3539 C3563 0.951 . S
H3540 C3565 0.951 . S
H3541 C3567 0.950 . S
H3542 C3568 0.950 . S
H3543 C3570 0.950 . S
H3544 C3573 0.950 . S
H3545 C3574 0.950 . S
H3546 C3576 0.950 . S
H3547 C3577 0.950 . S
C3548 H3530 0.951 . S
C3548 C3549 1.366 . S
C3548 C3550 1.388 . S
C3549 C3548 1.366 . S
C3549 C3553 1.385 . S
C3550 H3531 0.951 . S
C3550 C3548 1.388 . S
C3550 C3551 1.366 . S
C3551 C3550 1.366 . S
C3551 C3552 1.414 . S
C3551 C3554 1.499 . S
C3552 H3532 0.950 . S
C3552 C3551 1.414 . S
C3552 C3553 1.374 . S
C3553 H3533 0.950 . S
C3553 C3549 1.385 . S
C3553 C3552 1.374 . S
C3554 C3551 1.499 . S
C3554 C3555 1.373 . S
C3554 C3556 1.389 . S
C3555 H3534 0.950 . S
C3555 C3554 1.373 . S
C3555 C3571 1.377 . S
C3556 C3554 1.389 . S
C3556 C3557 1.524 . S
C3556 C3570 1.377 . S
C3557 C3556 1.524 . S
C3557 C3558 1.397 . S
C3557 C3562 1.363 . S
C3558 H3535 0.950 . S
C3558 C3557 1.397 . S
C3558 C3559 1.334 . S
C3559 H3536 0.950 . S
C3559 C3558 1.334 . S
C3559 C3560 1.287 . S
C3560 C3559 1.287 . S
C3560 C3561 1.524 . S
C3560 H3579 0.913 . S
C3561 H3537 0.950 . S
C3561 C3560 1.524 . S
C3561 C3562 1.415 . S
C3562 H3538 0.950 . S
C3562 C3557 1.363 . S
C3562 C3561 1.415 . S
C3563 H3539 0.951 . S
C3563 C3564 1.366 . S
C3563 C3565 1.388 . S
C3564 C3563 1.366 . S
C3564 C3568 1.385 . S
C3565 H3540 0.951 . S
C3565 C3563 1.388 . S
C3565 C3566 1.366 . S
C3566 C3565 1.366 . S
C3566 C3567 1.414 . S
C3566 C3569 1.499 . S
C3567 H3541 0.950 . S
C3567 C3566 1.414 . S
C3567 C3568 1.374 . S
C3568 H3542 0.950 . S
C3568 C3564 1.385 . S
C3568 C3567 1.374 . S
C3569 C3566 1.499 . S
C3569 C3570 1.373 . S
C3569 C3571 1.389 . S
C3570 H3543 0.950 . S
C3570 C3556 1.377 . S
C3570 C3569 1.373 . S
C3571 C3555 1.377 . S
C3571 C3569 1.389 . S
C3571 C3572 1.524 . S
C3572 C3571 1.524 . S
C3572 C3573 1.397 . S
C3572 C3577 1.363 . S
C3573 H3544 0.950 . S
C3573 C3572 1.397 . S
C3573 C3574 1.334 . S
C3574 H3545 0.950 . S
C3574 C3573 1.334 . S
C3574 C3575 1.287 . S
C3575 C3574 1.287 . S
C3575 C3576 1.524 . S
C3575 H3578 0.999 . S
C3576 H3546 0.950 . S
C3576 C3575 1.524 . S
C3576 C3577 1.415 . S
C3577 H3547 0.950 . S
C3577 C3572 1.363 . S
C3577 C3576 1.415 . S
H3578 C3575 0.999 . S
H3579 C3560 0.913 . S
H3580 C3598 0.951 . S
H3581 C3600 0.951 . S
H3582 C3602 0.950 . S
H3583 C3603 0.950 . S
H3584 C3605 0.950 . S
H3585 C3608 0.950 . S
H3586 C3609 0.950 . S
H3587 C3611 0.950 . S
H3588 C3612 0.950 . S
H3589 C3613 0.951 . S
H3590 C3615 0.951 . S
H3591 C3617 0.950 . S
H3592 C3618 0.950 . S
H3593 C3620 0.950 . S
H3594 C3623 0.950 . S
H3595 C3624 0.950 . S
H3596 C3626 0.950 . S
H3597 C3627 0.950 . S
C3598 H3580 0.951 . S
C3598 C3599 1.366 . S
C3598 C3600 1.388 . S
C3599 C3598 1.366 . S
C3599 C3603 1.385 . S
C3600 H3581 0.951 . S
C3600 C3598 1.388 . S
C3600 C3601 1.366 . S
C3601 C3600 1.366 . S
C3601 C3602 1.414 . S
C3601 C3604 1.499 . S
C3602 H3582 0.950 . S
C3602 C3601 1.414 . S
C3602 C3603 1.374 . S
C3603 H3583 0.950 . S
C3603 C3599 1.385 . S
C3603 C3602 1.374 . S
C3604 C3601 1.499 . S
C3604 C3605 1.373 . S
C3604 C3606 1.389 . S
C3605 H3584 0.950 . S
C3605 C3604 1.373 . S
C3605 C3621 1.377 . S
C3606 C3604 1.389 . S
C3606 C3607 1.524 . S
C3606 C3620 1.377 . S
C3607 C3606 1.524 . S
C3607 C3608 1.397 . S
C3607 C3612 1.363 . S
C3608 H3585 0.950 . S
C3608 C3607 1.397 . S
C3608 C3609 1.334 . S
C3609 H3586 0.950 . S
C3609 C3608 1.334 . S
C3609 C3610 1.287 . S
C3610 C3609 1.287 . S
C3610 C3611 1.524 . S
C3610 H3629 0.913 . S
C3611 H3587 0.950 . S
C3611 C3610 1.524 . S
C3611 C3612 1.415 . S
C3612 H3588 0.950 . S
C3612 C3607 1.363 . S
C3612 C3611 1.415 . S
C3613 H3589 0.951 . S
C3613 C3614 1.366 . S
C3613 C3615 1.388 . S
C3614 C3613 1.366 . S
C3614 C3618 1.385 . S
C3615 H3590 0.951 . S
C3615 C3613 1.388 . S
C3615 C3616 1.366 . S
C3616 C3615 1.366 . S
C3616 C3617 1.414 . S
C3616 C3619 1.499 . S
C3617 H3591 0.950 . S
C3617 C3616 1.414 . S
C3617 C3618 1.374 . S
C3618 H3592 0.950 . S
C3618 C3614 1.385 . S
C3618 C3617 1.374 . S
C3619 C3616 1.499 . S
C3619 C3620 1.373 . S
C3619 C3621 1.389 . S
C3620 H3593 0.950 . S
C3620 C3606 1.377 . S
C3620 C3619 1.373 . S
C3621 C3605 1.377 . S
C3621 C3619 1.389 . S
C3621 C3622 1.524 . S
C3622 C3621 1.524 . S
C3622 C3623 1.397 . S
C3622 C3627 1.363 . S
C3623 H3594 0.950 . S
C3623 C3622 1.397 . S
C3623 C3624 1.334 . S
C3624 H3595 0.950 . S
C3624 C3623 1.334 . S
C3624 C3625 1.287 . S
C3625 C3624 1.287 . S
C3625 C3626 1.524 . S
C3625 H3628 0.999 . S
C3626 H3596 0.950 . S
C3626 C3625 1.524 . S
C3626 C3627 1.415 . S
C3627 H3597 0.950 . S
C3627 C3622 1.363 . S
C3627 C3626 1.415 . S
H3628 C3625 0.999 . S
H3629 C3610 0.913 . S
H3630 C3648 0.951 . S
H3631 C3650 0.951 . S
H3632 C3652 0.950 . S
H3633 C3653 0.950 . S
H3634 C3655 0.950 . S
H3635 C3658 0.950 . S
H3636 C3659 0.950 . S
H3637 C3661 0.950 . S
H3638 C3662 0.950 . S
H3639 C3663 0.951 . S
H3640 C3665 0.951 . S
H3641 C3667 0.950 . S
H3642 C3668 0.950 . S
H3643 C3670 0.950 . S
H3644 C3673 0.950 . S
H3645 C3674 0.950 . S
H3646 C3676 0.950 . S
H3647 C3677 0.950 . S
C3648 H3630 0.951 . S
C3648 C3649 1.366 . S
C3648 C3650 1.388 . S
C3649 C3648 1.366 . S
C3649 C3653 1.385 . S
C3650 H3631 0.951 . S
C3650 C3648 1.388 . S
C3650 C3651 1.366 . S
C3651 C3650 1.366 . S
C3651 C3652 1.414 . S
C3651 C3654 1.499 . S
C3652 H3632 0.950 . S
C3652 C3651 1.414 . S
C3652 C3653 1.374 . S
C3653 H3633 0.950 . S
C3653 C3649 1.385 . S
C3653 C3652 1.374 . S
C3654 C3651 1.499 . S
C3654 C3655 1.373 . S
C3654 C3656 1.389 1_545 S
C3655 H3634 0.950 . S
C3655 C3654 1.373 . S
C3655 C3671 1.377 . S
C3656 C3654 1.389 1_565 S
C3656 C3657 1.524 . S
C3656 C3670 1.377 . S
C3657 C3656 1.524 . S
C3657 C3658 1.397 . S
C3657 C3662 1.363 . S
C3658 H3635 0.950 . S
C3658 C3657 1.397 . S
C3658 C3659 1.334 . S
C3659 H3636 0.950 . S
C3659 C3658 1.334 . S
C3659 C3660 1.287 . S
C3660 C3659 1.287 . S
C3660 C3661 1.524 . S
C3660 H3679 0.913 . S
C3661 H3637 0.950 . S
C3661 C3660 1.524 . S
C3661 C3662 1.415 . S
C3662 H3638 0.950 . S
C3662 C3657 1.363 . S
C3662 C3661 1.415 . S
C3663 H3639 0.951 . S
C3663 C3664 1.366 . S
C3663 C3665 1.388 . S
C3664 C3663 1.366 . S
C3664 C3668 1.385 . S
C3665 H3640 0.951 . S
C3665 C3663 1.388 . S
C3665 C3666 1.366 . S
C3666 C3665 1.366 . S
C3666 C3667 1.414 . S
C3666 C3669 1.499 . S
C3667 H3641 0.950 . S
C3667 C3666 1.414 . S
C3667 C3668 1.374 . S
C3668 H3642 0.950 . S
C3668 C3664 1.385 . S
C3668 C3667 1.374 . S
C3669 C3666 1.499 . S
C3669 C3670 1.373 1_545 S
C3669 C3671 1.389 . S
C3670 H3643 0.950 . S
C3670 C3656 1.377 . S
C3670 C3669 1.373 1_565 S
C3671 C3655 1.377 . S
C3671 C3669 1.389 . S
C3671 C3672 1.524 . S
C3672 C3671 1.524 . S
C3672 C3673 1.397 . S
C3672 C3677 1.363 . S
C3673 H3644 0.950 . S
C3673 C3672 1.397 . S
C3673 C3674 1.334 . S
C3674 H3645 0.950 . S
C3674 C3673 1.334 . S
C3674 C3675 1.287 . S
C3675 C3674 1.287 . S
C3675 C3676 1.524 . S
C3675 H3678 0.999 . S
C3676 H3646 0.950 . S
C3676 C3675 1.524 . S
C3676 C3677 1.415 . S
C3677 H3647 0.950 . S
C3677 C3672 1.363 . S
C3677 C3676 1.415 . S
H3678 C3675 0.999 . S
H3679 C3660 0.913 . S
H3680 C3698 0.951 . S
H3681 C3700 0.951 . S
H3682 C3702 0.950 . S
H3683 C3703 0.950 . S
H3684 C3705 0.950 . S
H3685 C3708 0.950 . S
H3686 C3709 0.950 . S
H3687 C3711 0.950 . S
H3688 C3712 0.950 . S
H3689 C3713 0.951 . S
H3690 C3715 0.951 . S
H3691 C3717 0.950 . S
H3692 C3718 0.950 1_455 S
H3693 C3720 0.950 . S
H3694 C3723 0.950 . S
H3695 C3724 0.950 . S
H3696 C3726 0.950 . S
H3697 C3727 0.950 . S
C3698 H3680 0.951 . S
C3698 C3699 1.366 . S
C3698 C3700 1.388 . S
C3699 C3698 1.366 . S
C3699 C3703 1.385 . S
C3700 H3681 0.951 . S
C3700 C3698 1.388 . S
C3700 C3701 1.366 . S
C3701 C3700 1.366 . S
C3701 C3702 1.414 . S
C3701 C3704 1.499 . S
C3702 H3682 0.950 . S
C3702 C3701 1.414 . S
C3702 C3703 1.374 . S
C3703 H3683 0.950 . S
C3703 C3699 1.385 . S
C3703 C3702 1.374 . S
C3704 C3701 1.499 . S
C3704 C3705 1.373 1_655 S
C3704 C3706 1.389 . S
C3705 H3684 0.950 . S
C3705 C3704 1.373 1_455 S
C3705 C3721 1.377 . S
C3706 C3704 1.389 . S
C3706 C3707 1.524 . S
C3706 C3720 1.377 . S
C3707 C3706 1.524 . S
C3707 C3708 1.397 . S
C3707 C3712 1.363 . S
C3708 H3685 0.950 . S
C3708 C3707 1.397 . S
C3708 C3709 1.334 . S
C3709 H3686 0.950 . S
C3709 C3708 1.334 . S
C3709 C3710 1.287 . S
C3710 C3709 1.287 . S
C3710 C3711 1.524 . S
C3710 H3729 0.913 . S
C3711 H3687 0.950 . S
C3711 C3710 1.524 . S
C3711 C3712 1.415 . S
C3712 H3688 0.950 . S
C3712 C3707 1.363 . S
C3712 C3711 1.415 . S
C3713 H3689 0.951 . S
C3713 C3714 1.366 . S
C3713 C3715 1.388 . S
C3714 C3713 1.366 . S
C3714 C3718 1.385 . S
C3715 H3690 0.951 . S
C3715 C3713 1.388 . S
C3715 C3716 1.366 . S
C3716 C3715 1.366 . S
C3716 C3717 1.414 . S
C3716 C3719 1.499 . S
C3717 H3691 0.950 . S
C3717 C3716 1.414 . S
C3717 C3718 1.374 . S
C3718 H3692 0.950 1_655 S
C3718 C3714 1.385 . S
C3718 C3717 1.374 . S
C3719 C3716 1.499 . S
C3719 C3720 1.373 . S
C3719 C3721 1.389 1_655 S
C3720 H3693 0.950 . S
C3720 C3706 1.377 . S
C3720 C3719 1.373 . S
C3721 C3705 1.377 . S
C3721 C3719 1.389 1_455 S
C3721 C3722 1.524 . S
C3722 C3721 1.524 . S
C3722 C3723 1.397 . S
C3722 C3727 1.363 . S
C3723 H3694 0.950 . S
C3723 C3722 1.397 . S
C3723 C3724 1.334 . S
C3724 H3695 0.950 . S
C3724 C3723 1.334 . S
C3724 C3725 1.287 . S
C3725 C3724 1.287 . S
C3725 C3726 1.524 . S
C3725 H3728 0.999 . S
C3726 H3696 0.950 . S
C3726 C3725 1.524 . S
C3726 C3727 1.415 . S
C3727 H3697 0.950 . S
C3727 C3722 1.363 . S
C3727 C3726 1.415 . S
H3728 C3725 0.999 . S
H3729 C3710 0.913 . S
H3730 C3748 0.951 . S
H3731 C3750 0.951 . S
H3732 C3752 0.950 . S
H3733 C3753 0.950 . S
H3734 C3755 0.950 . S
H3735 C3758 0.950 . S
H3736 C3759 0.950 . S
H3737 C3761 0.950 . S
H3738 C3762 0.950 . S
H3739 C3763 0.951 . S
H3740 C3765 0.951 . S
H3741 C3767 0.950 . S
H3742 C3768 0.950 . S
H3743 C3770 0.950 . S
H3744 C3773 0.950 . S
H3745 C3774 0.950 . S
H3746 C3776 0.950 . S
H3747 C3777 0.950 . S
C3748 H3730 0.951 . S
C3748 C3749 1.366 . S
C3748 C3750 1.388 . S
C3749 C3748 1.366 . S
C3749 C3753 1.385 . S
C3750 H3731 0.951 . S
C3750 C3748 1.388 . S
C3750 C3751 1.366 . S
C3751 C3750 1.366 . S
C3751 C3752 1.414 . S
C3751 C3754 1.499 . S
C3752 H3732 0.950 . S
C3752 C3751 1.414 . S
C3752 C3753 1.374 . S
C3753 H3733 0.950 . S
C3753 C3749 1.385 . S
C3753 C3752 1.374 . S
C3754 C3751 1.499 . S
C3754 C3755 1.373 . S
C3754 C3756 1.389 . S
C3755 H3734 0.950 . S
C3755 C3754 1.373 . S
C3755 C3771 1.377 . S
C3756 C3754 1.389 . S
C3756 C3757 1.524 . S
C3756 C3770 1.377 . S
C3757 C3756 1.524 . S
C3757 C3758 1.397 . S
C3757 C3762 1.363 . S
C3758 H3735 0.950 . S
C3758 C3757 1.397 . S
C3758 C3759 1.334 . S
C3759 H3736 0.950 . S
C3759 C3758 1.334 . S
C3759 C3760 1.287 . S
C3760 C3759 1.287 . S
C3760 C3761 1.524 . S
C3760 H3779 0.913 . S
C3761 H3737 0.950 . S
C3761 C3760 1.524 . S
C3761 C3762 1.415 . S
C3762 H3738 0.950 . S
C3762 C3757 1.363 . S
C3762 C3761 1.415 . S
C3763 H3739 0.951 . S
C3763 C3764 1.366 . S
C3763 C3765 1.388 . S
C3764 C3763 1.366 . S
C3764 C3768 1.385 . S
C3765 H3740 0.951 . S
C3765 C3763 1.388 . S
C3765 C3766 1.366 . S
C3766 C3765 1.366 . S
C3766 C3767 1.414 . S
C3766 C3769 1.499 . S
C3767 H3741 0.950 . S
C3767 C3766 1.414 . S
C3767 C3768 1.374 . S
C3768 H3742 0.950 . S
C3768 C3764 1.385 . S
C3768 C3767 1.374 . S
C3769 C3766 1.499 . S
C3769 C3770 1.373 . S
C3769 C3771 1.389 . S
C3770 H3743 0.950 . S
C3770 C3756 1.377 . S
C3770 C3769 1.373 . S
C3771 C3755 1.377 . S
C3771 C3769 1.389 . S
C3771 C3772 1.524 . S
C3772 C3771 1.524 . S
C3772 C3773 1.397 . S
C3772 C3777 1.363 . S
C3773 H3744 0.950 . S
C3773 C3772 1.397 . S
C3773 C3774 1.334 . S
C3774 H3745 0.950 . S
C3774 C3773 1.334 . S
C3774 C3775 1.287 . S
C3775 C3774 1.287 . S
C3775 C3776 1.524 . S
C3775 H3778 0.999 . S
C3776 H3746 0.950 . S
C3776 C3775 1.524 . S
C3776 C3777 1.415 . S
C3777 H3747 0.950 . S
C3777 C3772 1.363 . S
C3777 C3776 1.415 . S
H3778 C3775 0.999 . S
H3779 C3760 0.913 . S
H3780 C3798 0.951 . S
H3781 C3800 0.951 . S
H3782 C3802 0.950 . S
H3783 C3803 0.950 . S
H3784 C3805 0.950 . S
H3785 C3808 0.950 . S
H3786 C3809 0.950 . S
H3787 C3811 0.950 . S
H3788 C3812 0.950 . S
H3789 C3813 0.951 . S
H3790 C3815 0.951 . S
H3791 C3817 0.950 . S
H3792 C3818 0.950 . S
H3793 C3820 0.950 . S
H3794 C3823 0.950 . S
H3795 C3824 0.950 . S
H3796 C3826 0.950 . S
H3797 C3827 0.950 . S
C3798 H3780 0.951 . S
C3798 C3799 1.366 . S
C3798 C3800 1.388 . S
C3799 C3798 1.366 . S
C3799 C3803 1.385 . S
C3800 H3781 0.951 . S
C3800 C3798 1.388 . S
C3800 C3801 1.366 . S
C3801 C3800 1.366 . S
C3801 C3802 1.414 . S
C3801 C3804 1.499 . S
C3802 H3782 0.950 . S
C3802 C3801 1.414 . S
C3802 C3803 1.374 . S
C3803 H3783 0.950 . S
C3803 C3799 1.385 . S
C3803 C3802 1.374 . S
C3804 C3801 1.499 . S
C3804 C3805 1.373 . S
C3804 C3806 1.389 . S
C3805 H3784 0.950 . S
C3805 C3804 1.373 . S
C3805 C3821 1.377 . S
C3806 C3804 1.389 . S
C3806 C3807 1.524 . S
C3806 C3820 1.377 . S
C3807 C3806 1.524 . S
C3807 C3808 1.397 . S
C3807 C3812 1.363 . S
C3808 H3785 0.950 . S
C3808 C3807 1.397 . S
C3808 C3809 1.334 . S
C3809 H3786 0.950 . S
C3809 C3808 1.334 . S
C3809 C3810 1.287 . S
C3810 C3809 1.287 . S
C3810 C3811 1.524 . S
C3810 H3829 0.913 . S
C3811 H3787 0.950 . S
C3811 C3810 1.524 . S
C3811 C3812 1.415 . S
C3812 H3788 0.950 . S
C3812 C3807 1.363 . S
C3812 C3811 1.415 . S
C3813 H3789 0.951 . S
C3813 C3814 1.366 . S
C3813 C3815 1.388 . S
C3814 C3813 1.366 . S
C3814 C3818 1.385 . S
C3815 H3790 0.951 . S
C3815 C3813 1.388 . S
C3815 C3816 1.366 . S
C3816 C3815 1.366 . S
C3816 C3817 1.414 . S
C3816 C3819 1.499 . S
C3817 H3791 0.950 . S
C3817 C3816 1.414 . S
C3817 C3818 1.374 . S
C3818 H3792 0.950 . S
C3818 C3814 1.385 . S
C3818 C3817 1.374 . S
C3819 C3816 1.499 . S
C3819 C3820 1.373 . S
C3819 C3821 1.389 . S
C3820 H3793 0.950 . S
C3820 C3806 1.377 . S
C3820 C3819 1.373 . S
C3821 C3805 1.377 . S
C3821 C3819 1.389 . S
C3821 C3822 1.524 . S
C3822 C3821 1.524 . S
C3822 C3823 1.397 . S
C3822 C3827 1.363 . S
C3823 H3794 0.950 . S
C3823 C3822 1.397 . S
C3823 C3824 1.334 . S
C3824 H3795 0.950 . S
C3824 C3823 1.334 . S
C3824 C3825 1.287 . S
C3825 C3824 1.287 . S
C3825 C3826 1.524 . S
C3825 H3828 0.999 . S
C3826 H3796 0.950 . S
C3826 C3825 1.524 . S
C3826 C3827 1.415 . S
C3827 H3797 0.950 . S
C3827 C3822 1.363 . S
C3827 C3826 1.415 . S
H3828 C3825 0.999 . S
H3829 C3810 0.913 . S
H3830 C3848 0.951 . S
H3831 C3850 0.951 . S
H3832 C3852 0.950 . S
H3833 C3853 0.950 . S
H3834 C3855 0.950 . S
H3835 C3858 0.950 . S
H3836 C3859 0.950 . S
H3837 C3861 0.950 . S
H3838 C3862 0.950 . S
H3839 C3863 0.951 . S
H3840 C3865 0.951 . S
H3841 C3867 0.950 . S
H3842 C3868 0.950 . S
H3843 C3870 0.950 . S
H3844 C3873 0.950 . S
H3845 C3874 0.950 . S
H3846 C3876 0.950 . S
H3847 C3877 0.950 . S
C3848 H3830 0.951 . S
C3848 C3849 1.366 . S
C3848 C3850 1.388 . S
C3849 C3848 1.366 . S
C3849 C3853 1.385 . S
C3850 H3831 0.951 . S
C3850 C3848 1.388 . S
C3850 C3851 1.366 . S
C3851 C3850 1.366 . S
C3851 C3852 1.414 . S
C3851 C3854 1.499 . S
C3852 H3832 0.950 . S
C3852 C3851 1.414 . S
C3852 C3853 1.374 . S
C3853 H3833 0.950 . S
C3853 C3849 1.385 . S
C3853 C3852 1.374 . S
C3854 C3851 1.499 . S
C3854 C3855 1.373 . S
C3854 C3856 1.389 . S
C3855 H3834 0.950 . S
C3855 C3854 1.373 . S
C3855 C3871 1.377 . S
C3856 C3854 1.389 . S
C3856 C3857 1.524 . S
C3856 C3870 1.377 . S
C3857 C3856 1.524 . S
C3857 C3858 1.397 . S
C3857 C3862 1.363 . S
C3858 H3835 0.950 . S
C3858 C3857 1.397 . S
C3858 C3859 1.334 . S
C3859 H3836 0.950 . S
C3859 C3858 1.334 . S
C3859 C3860 1.287 . S
C3860 C3859 1.287 . S
C3860 C3861 1.524 . S
C3860 H3879 0.913 . S
C3861 H3837 0.950 . S
C3861 C3860 1.524 . S
C3861 C3862 1.415 . S
C3862 H3838 0.950 . S
C3862 C3857 1.363 . S
C3862 C3861 1.415 . S
C3863 H3839 0.951 . S
C3863 C3864 1.366 . S
C3863 C3865 1.388 . S
C3864 C3863 1.366 . S
C3864 C3868 1.385 . S
C3865 H3840 0.951 . S
C3865 C3863 1.388 . S
C3865 C3866 1.366 . S
C3866 C3865 1.366 . S
C3866 C3867 1.414 . S
C3866 C3869 1.499 . S
C3867 H3841 0.950 . S
C3867 C3866 1.414 . S
C3867 C3868 1.374 . S
C3868 H3842 0.950 . S
C3868 C3864 1.385 . S
C3868 C3867 1.374 . S
C3869 C3866 1.499 . S
C3869 C3870 1.373 . S
C3869 C3871 1.389 . S
C3870 H3843 0.950 . S
C3870 C3856 1.377 . S
C3870 C3869 1.373 . S
C3871 C3855 1.377 . S
C3871 C3869 1.389 . S
C3871 C3872 1.524 . S
C3872 C3871 1.524 . S
C3872 C3873 1.397 . S
C3872 C3877 1.363 . S
C3873 H3844 0.950 . S
C3873 C3872 1.397 . S
C3873 C3874 1.334 . S
C3874 H3845 0.950 . S
C3874 C3873 1.334 . S
C3874 C3875 1.287 . S
C3875 C3874 1.287 . S
C3875 C3876 1.524 . S
C3875 H3878 0.999 . S
C3876 H3846 0.950 . S
C3876 C3875 1.524 . S
C3876 C3877 1.415 . S
C3877 H3847 0.950 . S
C3877 C3872 1.363 . S
C3877 C3876 1.415 . S
H3878 C3875 0.999 . S
H3879 C3860 0.913 . S
H3880 C3898 0.951 . S
H3881 C3900 0.951 . S
H3882 C3902 0.950 . S
H3883 C3903 0.950 . S
H3884 C3905 0.950 . S
H3885 C3908 0.950 . S
H3886 C3909 0.950 . S
H3887 C3911 0.950 . S
H3888 C3912 0.950 . S
H3889 C3913 0.951 . S
H3890 C3915 0.951 . S
H3891 C3917 0.950 . S
H3892 C3918 0.950 . S
H3893 C3920 0.950 . S
H3894 C3923 0.950 . S
H3895 C3924 0.950 . S
H3896 C3926 0.950 . S
H3897 C3927 0.950 . S
C3898 H3880 0.951 . S
C3898 C3899 1.366 . S
C3898 C3900 1.388 . S
C3899 C3898 1.366 . S
C3899 C3903 1.385 . S
C3900 H3881 0.951 . S
C3900 C3898 1.388 . S
C3900 C3901 1.366 . S
C3901 C3900 1.366 . S
C3901 C3902 1.414 . S
C3901 C3904 1.499 . S
C3902 H3882 0.950 . S
C3902 C3901 1.414 . S
C3902 C3903 1.374 . S
C3903 H3883 0.950 . S
C3903 C3899 1.385 . S
C3903 C3902 1.374 . S
C3904 C3901 1.499 . S
C3904 C3905 1.373 . S
C3904 C3906 1.389 . S
C3905 H3884 0.950 . S
C3905 C3904 1.373 . S
C3905 C3921 1.377 . S
C3906 C3904 1.389 . S
C3906 C3907 1.524 . S
C3906 C3920 1.377 . S
C3907 C3906 1.524 . S
C3907 C3908 1.397 . S
C3907 C3912 1.363 . S
C3908 H3885 0.950 . S
C3908 C3907 1.397 . S
C3908 C3909 1.334 . S
C3909 H3886 0.950 . S
C3909 C3908 1.334 . S
C3909 C3910 1.287 . S
C3910 C3909 1.287 . S
C3910 C3911 1.524 . S
C3910 H3929 0.913 . S
C3911 H3887 0.950 . S
C3911 C3910 1.524 . S
C3911 C3912 1.415 . S
C3912 H3888 0.950 . S
C3912 C3907 1.363 . S
C3912 C3911 1.415 . S
C3913 H3889 0.951 . S
C3913 C3914 1.366 . S
C3913 C3915 1.388 . S
C3914 C3913 1.366 . S
C3914 C3918 1.385 . S
C3915 H3890 0.951 . S
C3915 C3913 1.388 . S
C3915 C3916 1.366 . S
C3916 C3915 1.366 . S
C3916 C3917 1.414 . S
C3916 C3919 1.499 . S
C3917 H3891 0.950 . S
C3917 C3916 1.414 . S
C3917 C3918 1.374 . S
C3918 H3892 0.950 . S
C3918 C3914 1.385 . S
C3918 C3917 1.374 . S
C3919 C3916 1.499 . S
C3919 C3920 1.373 . S
C3919 C3921 1.389 . S
C3920 H3893 0.950 . S
C3920 C3906 1.377 . S
C3920 C3919 1.373 . S
C3921 C3905 1.377 . S
C3921 C3919 1.389 . S
C3921 C3922 1.524 . S
C3922 C3921 1.524 . S
C3922 C3923 1.397 . S
C3922 C3927 1.363 . S
C3923 H3894 0.950 . S
C3923 C3922 1.397 . S
C3923 C3924 1.334 . S
C3924 H3895 0.950 . S
C3924 C3923 1.334 . S
C3924 C3925 1.287 . S
C3925 C3924 1.287 . S
C3925 C3926 1.524 . S
C3925 H3928 0.999 . S
C3926 H3896 0.950 . S
C3926 C3925 1.524 . S
C3926 C3927 1.415 . S
C3927 H3897 0.950 . S
C3927 C3922 1.363 . S
C3927 C3926 1.415 . S
H3928 C3925 0.999 . S
H3929 C3910 0.913 . S
H3930 C3948 0.951 . S
H3931 C3950 0.951 . S
H3932 C3952 0.950 . S
H3933 C3953 0.950 . S
H3934 C3955 0.950 . S
H3935 C3958 0.950 . S
H3936 C3959 0.950 . S
H3937 C3961 0.950 . S
H3938 C3962 0.950 . S
H3939 C3963 0.951 . S
H3940 C3965 0.951 . S
H3941 C3967 0.950 . S
H3942 C3968 0.950 . S
H3943 C3970 0.950 . S
H3944 C3973 0.950 . S
H3945 C3974 0.950 . S
H3946 C3976 0.950 . S
H3947 C3977 0.950 . S
C3948 H3930 0.951 . S
C3948 C3949 1.366 . S
C3948 C3950 1.388 . S
C3949 C3948 1.366 . S
C3949 C3953 1.385 . S
C3950 H3931 0.951 . S
C3950 C3948 1.388 . S
C3950 C3951 1.366 . S
C3951 C3950 1.366 . S
C3951 C3952 1.414 . S
C3951 C3954 1.499 . S
C3952 H3932 0.950 . S
C3952 C3951 1.414 . S
C3952 C3953 1.374 . S
C3953 H3933 0.950 . S
C3953 C3949 1.385 . S
C3953 C3952 1.374 . S
C3954 C3951 1.499 . S
C3954 C3955 1.373 . S
C3954 C3956 1.389 . S
C3955 H3934 0.950 . S
C3955 C3954 1.373 . S
C3955 C3971 1.377 . S
C3956 C3954 1.389 . S
C3956 C3957 1.524 . S
C3956 C3970 1.377 . S
C3957 C3956 1.524 . S
C3957 C3958 1.397 . S
C3957 C3962 1.363 . S
C3958 H3935 0.950 . S
C3958 C3957 1.397 . S
C3958 C3959 1.334 . S
C3959 H3936 0.950 . S
C3959 C3958 1.334 . S
C3959 C3960 1.287 . S
C3960 C3959 1.287 . S
C3960 C3961 1.524 . S
C3960 H3979 0.913 . S
C3961 H3937 0.950 . S
C3961 C3960 1.524 . S
C3961 C3962 1.415 . S
C3962 H3938 0.950 . S
C3962 C3957 1.363 . S
C3962 C3961 1.415 . S
C3963 H3939 0.951 . S
C3963 C3964 1.366 . S
C3963 C3965 1.388 . S
C3964 C3963 1.366 . S
C3964 C3968 1.385 . S
C3965 H3940 0.951 . S
C3965 C3963 1.388 . S
C3965 C3966 1.366 . S
C3966 C3965 1.366 . S
C3966 C3967 1.414 . S
C3966 C3969 1.499 . S
C3967 H3941 0.950 . S
C3967 C3966 1.414 . S
C3967 C3968 1.374 . S
C3968 H3942 0.950 . S
C3968 C3964 1.385 . S
C3968 C3967 1.374 . S
C3969 C3966 1.499 . S
C3969 C3970 1.373 . S
C3969 C3971 1.389 . S
C3970 H3943 0.950 . S
C3970 C3956 1.377 . S
C3970 C3969 1.373 . S
C3971 C3955 1.377 . S
C3971 C3969 1.389 . S
C3971 C3972 1.524 . S
C3972 C3971 1.524 . S
C3972 C3973 1.397 . S
C3972 C3977 1.363 . S
C3973 H3944 0.950 . S
C3973 C3972 1.397 . S
C3973 C3974 1.334 . S
C3974 H3945 0.950 . S
C3974 C3973 1.334 . S
C3974 C3975 1.287 . S
C3975 C3974 1.287 . S
C3975 C3976 1.524 . S
C3975 H3978 0.999 . S
C3976 H3946 0.950 . S
C3976 C3975 1.524 . S
C3976 C3977 1.415 . S
C3977 H3947 0.950 . S
C3977 C3972 1.363 . S
C3977 C3976 1.415 . S
H3978 C3975 0.999 . S
H3979 C3960 0.913 . S
H3980 C3998 0.951 . S
H3981 C4000 0.951 . S
H3982 C4002 0.950 . S
H3983 C4003 0.950 . S
H3984 C4005 0.950 . S
H3985 C4008 0.950 . S
H3986 C4009 0.950 . S
H3987 C4011 0.950 . S
H3988 C4012 0.950 . S
H3989 C4013 0.951 . S
H3990 C4015 0.951 . S
H3991 C4017 0.950 . S
H3992 C4018 0.950 . S
H3993 C4020 0.950 . S
H3994 C4023 0.950 . S
H3995 C4024 0.950 . S
H3996 C4026 0.950 . S
H3997 C4027 0.950 . S
C3998 H3980 0.951 . S
C3998 C3999 1.366 . S
C3998 C4000 1.388 . S
C3999 C3998 1.366 . S
C3999 C4003 1.385 . S
C4000 H3981 0.951 . S
C4000 C3998 1.388 . S
C4000 C4001 1.366 . S
C4001 C4000 1.366 . S
C4001 C4002 1.414 . S
C4001 C4004 1.499 . S
C4002 H3982 0.950 . S
C4002 C4001 1.414 . S
C4002 C4003 1.374 . S
C4003 H3983 0.950 . S
C4003 C3999 1.385 . S
C4003 C4002 1.374 . S
C4004 C4001 1.499 . S
C4004 C4005 1.373 . S
C4004 C4006 1.389 . S
C4005 H3984 0.950 . S
C4005 C4004 1.373 . S
C4005 C4021 1.377 . S
C4006 C4004 1.389 . S
C4006 C4007 1.524 . S
C4006 C4020 1.377 . S
C4007 C4006 1.524 . S
C4007 C4008 1.397 . S
C4007 C4012 1.363 . S
C4008 H3985 0.950 . S
C4008 C4007 1.397 . S
C4008 C4009 1.334 . S
C4009 H3986 0.950 . S
C4009 C4008 1.334 . S
C4009 C4010 1.287 . S
C4010 C4009 1.287 . S
C4010 C4011 1.524 . S
C4010 H4029 0.913 . S
C4011 H3987 0.950 . S
C4011 C4010 1.524 . S
C4011 C4012 1.415 . S
C4012 H3988 0.950 . S
C4012 C4007 1.363 . S
C4012 C4011 1.415 . S
C4013 H3989 0.951 . S
C4013 C4014 1.366 . S
C4013 C4015 1.388 . S
C4014 C4013 1.366 . S
C4014 C4018 1.385 . S
C4015 H3990 0.951 . S
C4015 C4013 1.388 . S
C4015 C4016 1.366 . S
C4016 C4015 1.366 . S
C4016 C4017 1.414 . S
C4016 C4019 1.499 . S
C4017 H3991 0.950 . S
C4017 C4016 1.414 . S
C4017 C4018 1.374 . S
C4018 H3992 0.950 . S
C4018 C4014 1.385 . S
C4018 C4017 1.374 . S
C4019 C4016 1.499 . S
C4019 C4020 1.373 . S
C4019 C4021 1.389 . S
C4020 H3993 0.950 . S
C4020 C4006 1.377 . S
C4020 C4019 1.373 . S
C4021 C4005 1.377 . S
C4021 C4019 1.389 . S
C4021 C4022 1.524 . S
C4022 C4021 1.524 . S
C4022 C4023 1.397 . S
C4022 C4027 1.363 . S
C4023 H3994 0.950 . S
C4023 C4022 1.397 . S
C4023 C4024 1.334 . S
C4024 H3995 0.950 . S
C4024 C4023 1.334 . S
C4024 C4025 1.287 . S
C4025 C4024 1.287 . S
C4025 C4026 1.524 . S
C4025 H4028 0.999 . S
C4026 H3996 0.950 . S
C4026 C4025 1.524 . S
C4026 C4027 1.415 . S
C4027 H3997 0.950 . S
C4027 C4022 1.363 . S
C4027 C4026 1.415 . S
H4028 C4025 0.999 . S
H4029 C4010 0.913 . S
H4030 C4048 0.951 . S
H4031 C4050 0.951 . S
H4032 C4052 0.950 . S
H4033 C4053 0.950 . S
H4034 C4055 0.950 . S
H4035 C4058 0.950 . S
H4036 C4059 0.950 . S
H4037 C4061 0.950 . S
H4038 C4062 0.950 . S
H4039 C4063 0.951 . S
H4040 C4065 0.951 . S
H4041 C4067 0.950 . S
H4042 C4068 0.950 . S
H4043 C4070 0.950 . S
H4044 C4073 0.950 . S
H4045 C4074 0.950 . S
H4046 C4076 0.950 . S
H4047 C4077 0.950 . S
C4048 H4030 0.951 . S
C4048 C4049 1.366 . S
C4048 C4050 1.388 . S
C4049 C4048 1.366 . S
C4049 C4053 1.385 . S
C4050 H4031 0.951 . S
C4050 C4048 1.388 . S
C4050 C4051 1.366 . S
C4051 C4050 1.366 . S
C4051 C4052 1.414 . S
C4051 C4054 1.499 . S
C4052 H4032 0.950 . S
C4052 C4051 1.414 . S
C4052 C4053 1.374 . S
C4053 H4033 0.950 . S
C4053 C4049 1.385 . S
C4053 C4052 1.374 . S
C4054 C4051 1.499 . S
C4054 C4055 1.373 . S
C4054 C4056 1.389 . S
C4055 H4034 0.950 . S
C4055 C4054 1.373 . S
C4055 C4071 1.377 . S
C4056 C4054 1.389 . S
C4056 C4057 1.524 . S
C4056 C4070 1.377 . S
C4057 C4056 1.524 . S
C4057 C4058 1.397 . S
C4057 C4062 1.363 . S
C4058 H4035 0.950 . S
C4058 C4057 1.397 . S
C4058 C4059 1.334 . S
C4059 H4036 0.950 . S
C4059 C4058 1.334 . S
C4059 C4060 1.287 . S
C4060 C4059 1.287 . S
C4060 C4061 1.524 . S
C4060 H4079 0.913 . S
C4061 H4037 0.950 . S
C4061 C4060 1.524 . S
C4061 C4062 1.415 . S
C4062 H4038 0.950 . S
C4062 C4057 1.363 . S
C4062 C4061 1.415 . S
C4063 H4039 0.951 . S
C4063 C4064 1.366 . S
C4063 C4065 1.388 . S
C4064 C4063 1.366 . S
C4064 C4068 1.385 . S
C4065 H4040 0.951 . S
C4065 C4063 1.388 . S
C4065 C4066 1.366 . S
C4066 C4065 1.366 . S
C4066 C4067 1.414 . S
C4066 C4069 1.499 . S
C4067 H4041 0.950 . S
C4067 C4066 1.414 . S
C4067 C4068 1.374 . S
C4068 H4042 0.950 . S
C4068 C4064 1.385 . S
C4068 C4067 1.374 . S
C4069 C4066 1.499 . S
C4069 C4070 1.373 . S
C4069 C4071 1.389 . S
C4070 H4043 0.950 . S
C4070 C4056 1.377 . S
C4070 C4069 1.373 . S
C4071 C4055 1.377 . S
C4071 C4069 1.389 . S
C4071 C4072 1.524 . S
C4072 C4071 1.524 . S
C4072 C4073 1.397 . S
C4072 C4077 1.363 . S
C4073 H4044 0.950 . S
C4073 C4072 1.397 . S
C4073 C4074 1.334 . S
C4074 H4045 0.950 . S
C4074 C4073 1.334 . S
C4074 C4075 1.287 . S
C4075 C4074 1.287 . S
C4075 C4076 1.524 . S
C4075 H4078 0.999 . S
C4076 H4046 0.950 . S
C4076 C4075 1.524 . S
C4076 C4077 1.415 . S
C4077 H4047 0.950 . S
C4077 C4072 1.363 . S
C4077 C4076 1.415 . S
H4078 C4075 0.999 . S
H4079 C4060 0.913 . S
H4080 C4098 0.951 . S
H4081 C4100 0.951 . S
H4082 C4102 1.010 . S
H4083 C4103 0.922 1_455 S
H4084 C4105 0.950 . S
H4085 C4108 0.950 . S
H4086 C4109 0.950 . S
H4087 C4111 0.950 . S
H4088 C4112 0.950 . S
H4089 C4113 0.951 . S
H4090 C4115 0.951 . S
H4091 C4117 0.950 . S
H4092 C4118 0.950 . S
H4093 C4120 0.950 . S
H4094 C4123 0.950 . S
H4095 C4124 0.950 . S
H4096 C4126 0.950 . S
H4097 C4127 0.950 . S
C4098 H4080 0.951 . S
C4098 C4099 1.366 . S
C4098 C4100 1.388 . S
C4099 C4098 1.366 . S
C4099 C4103 1.458 . S
C4100 H4081 0.951 . S
C4100 C4098 1.388 . S
C4100 C4101 1.366 . S
C4101 C4100 1.366 . S
C4101 C4102 1.391 1_655 S
C4101 C4104 1.499 . S
C4102 H4082 1.010 . S
C4102 C4101 1.391 1_455 S
C4102 C4103 1.302 1_455 S
C4103 H4083 0.922 1_655 S
C4103 C4099 1.458 . S
C4103 C4102 1.302 1_655 S
C4104 C4101 1.499 . S
C4104 C4105 1.373 . S
C4104 C4106 1.389 . S
C4105 H4084 0.950 . S
C4105 C4104 1.373 . S
C4105 C4121 1.377 . S
C4106 C4104 1.389 . S
C4106 C4107 1.524 . S
C4106 C4120 1.377 . S
C4107 C4106 1.524 . S
C4107 C4108 1.397 1_655 S
C4107 C4112 1.363 . S
C4108 H4085 0.950 . S
C4108 C4107 1.397 1_455 S
C4108 C4109 1.334 . S
C4109 H4086 0.950 . S
C4109 C4108 1.334 . S
C4109 C4110 1.287 1_455 S
C4110 C4109 1.287 1_655 S
C4110 C4111 1.524 . S
C4110 H4129 0.913 . S
C4111 H4087 0.950 . S
C4111 C4110 1.524 . S
C4111 C4112 1.415 . S
C4112 H4088 0.950 . S
C4112 C4107 1.363 . S
C4112 C4111 1.415 . S
C4113 H4089 0.951 . S
C4113 C4114 1.366 1_455 S
C4113 C4115 1.388 . S
C4114 C4113 1.366 1_655 S
C4114 C4118 1.385 . S
C4115 H4090 0.951 . S
C4115 C4113 1.388 . S
C4115 C4116 1.366 1_455 S
C4116 C4115 1.366 1_655 S
C4116 C4117 1.414 . S
C4116 C4119 1.499 . S
C4117 H4091 0.950 . S
C4117 C4116 1.414 . S
C4117 C4118 1.374 . S
C4118 H4092 0.950 . S
C4118 C4114 1.385 . S
C4118 C4117 1.374 . S
C4119 C4116 1.499 . S
C4119 C4120 1.373 . S
C4119 C4121 1.389 . S
C4120 H4093 0.950 . S
C4120 C4106 1.377 . S
C4120 C4119 1.373 . S
C4121 C4105 1.377 . S
C4121 C4119 1.389 . S
C4121 C4122 1.524 . S
C4122 C4121 1.524 . S
C4122 C4123 1.397 . S
C4122 C4127 1.363 1_655 S
C4123 H4094 0.950 . S
C4123 C4122 1.397 . S
C4123 C4124 1.334 . S
C4124 H4095 0.950 . S
C4124 C4123 1.334 . S
C4124 C4125 1.287 . S
C4125 C4124 1.287 . S
C4125 C4126 1.524 1_655 S
C4125 H4128 0.999 . S
C4126 H4096 0.950 . S
C4126 C4125 1.524 1_455 S
C4126 C4127 1.415 . S
C4127 H4097 0.950 . S
C4127 C4122 1.363 1_455 S
C4127 C4126 1.415 . S
H4128 C4125 0.999 . S
H4129 C4110 0.913 . S
H4130 C4148 0.951 . S
H4131 C4150 0.951 . S
H4132 C4152 0.950 . S
H4133 C4153 0.950 . S
H4134 C4155 0.950 . S
H4135 C4158 0.950 . S
H4136 C4159 0.950 . S
H4137 C4161 0.950 . S
H4138 C4162 0.950 . S
H4139 C4163 0.951 . S
H4140 C4165 0.951 . S
H4141 C4167 0.950 . S
H4142 C4168 0.950 . S
H4143 C4170 0.950 . S
H4144 C4173 0.950 . S
H4145 C4174 0.950 . S
H4146 C4176 0.950 . S
H4147 C4177 0.950 . S
C4148 H4130 0.951 . S
C4148 C4149 1.366 . S
C4148 C4150 1.388 . S
C4149 C4148 1.366 . S
C4149 C4153 1.385 . S
C4150 H4131 0.951 . S
C4150 C4148 1.388 . S
C4150 C4151 1.366 . S
C4151 C4150 1.366 . S
C4151 C4152 1.414 . S
C4151 C4154 1.499 . S
C4152 H4132 0.950 . S
C4152 C4151 1.414 . S
C4152 C4153 1.374 . S
C4153 H4133 0.950 . S
C4153 C4149 1.385 . S
C4153 C4152 1.374 . S
C4154 C4151 1.499 . S
C4154 C4155 1.373 . S
C4154 C4156 1.389 . S
C4155 H4134 0.950 . S
C4155 C4154 1.373 . S
C4155 C4171 1.377 . S
C4156 C4154 1.389 . S
C4156 C4157 1.524 . S
C4156 C4170 1.377 . S
C4157 C4156 1.524 . S
C4157 C4158 1.397 . S
C4157 C4162 1.363 . S
C4158 H4135 0.950 . S
C4158 C4157 1.397 . S
C4158 C4159 1.334 . S
C4159 H4136 0.950 . S
C4159 C4158 1.334 . S
C4159 C4160 1.287 . S
C4160 C4159 1.287 . S
C4160 C4161 1.524 . S
C4160 H4179 0.913 . S
C4161 H4137 0.950 . S
C4161 C4160 1.524 . S
C4161 C4162 1.415 . S
C4162 H4138 0.950 . S
C4162 C4157 1.363 . S
C4162 C4161 1.415 . S
C4163 H4139 0.951 . S
C4163 C4164 1.366 . S
C4163 C4165 1.388 . S
C4164 C4163 1.366 . S
C4164 C4168 1.385 . S
C4165 H4140 0.951 . S
C4165 C4163 1.388 . S
C4165 C4166 1.366 . S
C4166 C4165 1.366 . S
C4166 C4167 1.414 . S
C4166 C4169 1.499 . S
C4167 H4141 0.950 . S
C4167 C4166 1.414 . S
C4167 C4168 1.374 . S
C4168 H4142 0.950 . S
C4168 C4164 1.385 . S
C4168 C4167 1.374 . S
C4169 C4166 1.499 . S
C4169 C4170 1.373 . S
C4169 C4171 1.389 . S
C4170 H4143 0.950 . S
C4170 C4156 1.377 . S
C4170 C4169 1.373 . S
C4171 C4155 1.377 . S
C4171 C4169 1.389 . S
C4171 C4172 1.524 . S
C4172 C4171 1.524 . S
C4172 C4173 1.397 . S
C4172 C4177 1.363 . S
C4173 H4144 0.950 . S
C4173 C4172 1.397 . S
C4173 C4174 1.334 . S
C4174 H4145 0.950 . S
C4174 C4173 1.334 . S
C4174 C4175 1.287 . S
C4175 C4174 1.287 . S
C4175 C4176 1.524 . S
C4175 H4178 0.999 . S
C4176 H4146 0.950 . S
C4176 C4175 1.524 . S
C4176 C4177 1.415 . S
C4177 H4147 0.950 . S
C4177 C4172 1.363 . S
C4177 C4176 1.415 . S
H4178 C4175 0.999 . S
H4179 C4160 0.913 . S
H4180 C4198 0.951 . S
H4181 C4200 0.951 . S
H4182 C4202 0.950 . S
H4183 C4203 0.950 . S
H4184 C4205 0.950 . S
H4185 C4208 0.952 . S
H4186 C4209 0.916 1_565 S
H4187 C4211 0.950 . S
H4188 C4212 0.950 . S
H4189 C4213 0.951 . S
H4190 C4215 0.951 . S
H4191 C4217 0.950 . S
H4192 C4218 0.950 . S
H4193 C4220 0.950 . S
H4194 C4223 0.950 . S
H4195 C4224 0.950 . S
H4196 C4226 0.950 . S
H4197 C4227 0.950 . S
C4198 H4180 0.951 . S
C4198 C4199 1.366 . S
C4198 C4200 1.388 . S
C4199 C4198 1.366 . S
C4199 C4203 1.385 1_545 S
C4200 H4181 0.951 . S
C4200 C4198 1.388 . S
C4200 C4201 1.366 . S
C4201 C4200 1.366 . S
C4201 C4202 1.414 1_545 S
C4201 C4204 1.499 . S
C4202 H4182 0.950 . S
C4202 C4201 1.414 1_565 S
C4202 C4203 1.374 . S
C4203 H4183 0.950 . S
C4203 C4199 1.385 1_565 S
C4203 C4202 1.374 . S
C4204 C4201 1.499 . S
C4204 C4205 1.373 . S
C4204 C4206 1.389 . S
C4205 H4184 0.950 . S
C4205 C4204 1.373 . S
C4205 C4221 1.377 . S
C4206 C4204 1.389 . S
C4206 C4207 1.524 . S
C4206 C4220 1.377 . S
C4207 C4206 1.524 . S
C4207 C4208 1.393 1_545 S
C4207 C4212 1.363 . S
C4208 H4185 0.952 . S
C4208 C4207 1.393 1_565 S
C4208 C4209 1.349 1_565 S
C4209 H4186 0.916 1_545 S
C4209 C4208 1.349 1_545 S
C4209 C4210 1.309 . S
C4210 C4209 1.309 . S
C4210 C4211 1.524 . S
C4210 H4229 0.913 . S
C4211 H4187 0.950 . S
C4211 C4210 1.524 . S
C4211 C4212 1.415 . S
C4212 H4188 0.950 . S
C4212 C4207 1.363 . S
C4212 C4211 1.415 . S
C4213 H4189 0.951 . S
C4213 C4214 1.308 1_565 S
C4213 C4215 1.388 . S
C4214 C4213 1.308 1_545 S
C4214 C4218 1.416 . S
C4215 H4190 0.951 . S
C4215 C4213 1.388 . S
C4215 C4216 1.366 1_565 S
C4216 C4215 1.366 1_545 S
C4216 C4217 1.414 . S
C4216 C4219 1.499 . S
C4217 H4191 0.950 . S
C4217 C4216 1.414 . S
C4217 C4218 1.374 . S
C4218 H4192 0.950 . S
C4218 C4214 1.416 . S
C4218 C4217 1.374 . S
C4219 C4216 1.499 . S
C4219 C4220 1.373 . S
C4219 C4221 1.389 . S
C4220 H4193 0.950 . S
C4220 C4206 1.377 . S
C4220 C4219 1.373 . S
C4221 C4205 1.377 . S
C4221 C4219 1.389 . S
C4221 C4222 1.524 . S
C4222 C4221 1.524 . S
C4222 C4223 1.397 . S
C4222 C4227 1.363 1_545 S
C4223 H4194 0.950 . S
C4223 C4222 1.397 . S
C4223 C4224 1.334 . S
C4224 H4195 0.950 . S
C4224 C4223 1.334 . S
C4224 C4225 1.287 . S
C4225 C4224 1.287 . S
C4225 C4226 1.524 1_545 S
C4225 H4228 1.000 1_545 S
C4226 H4196 0.950 . S
C4226 C4225 1.524 1_565 S
C4226 C4227 1.415 . S
C4227 H4197 0.950 . S
C4227 C4222 1.363 1_565 S
C4227 C4226 1.415 . S
H4228 C4225 1.000 1_565 S
H4229 C4210 0.913 . S
C649 C7 1.500 . S
C664 C458 1.500 1_655 S
C699 C23 1.577 . S
C714 C471 1.556 . S
C764 C500 1.476 1_545 S
C749 C37 1.535 . S
C799 C35 1.522 1_545 S
C814 C513 1.503 . S
C849 C9 1.557 1_455 S
C864 C534 1.526 . S
C899 C21 1.546 . S
C914 C563 1.509 . S
C949 C49 1.508 . S
C964 C542 1.493 . S
C1014 C555 1.510 . S
C999 C65 1.561 . S
C1064 C521 1.504 . S
C1049 C79 1.542 1_565 S
C1099 C77 1.493 . S
C1114 C492 1.478 1_545 S
C1164 C450 1.489 1_655 S
C1149 C51 1.564 1_655 S
C1199 C63 1.531 . S
C1214 C479 1.531 . S
C1249 C91 1.600 . S
C1264 C584 1.562 . S
C1299 C107 1.617 . S
C1314 C597 1.595 . S
C1364 C626 1.545 . S
C1349 C121 1.624 . S
C1399 C119 1.574 . S
C1414 C261 1.586 . S
C1449 C93 1.629 . S
C1464 C282 1.609 . S
C1499 C105 1.573 . S
C1514 C311 1.532 . S
C1549 C133 1.538 . S
C1564 C290 1.537 . S
C1599 C149 1.585 . S
C1614 C303 1.534 . S
C1664 C269 1.575 . S
C1649 C163 1.604 . S
C1714 C618 1.570 . S
C1699 C161 1.600 . S
C1764 C576 1.539 . S
C1749 C135 1.601 . S
C1814 C605 1.583 . S
C1799 C147 1.577 . S
C1849 C175 1.556 . S
C1864 C332 1.517 . S
C1899 C191 1.598 . S
C1914 C345 1.579 . S
C1949 C205 1.620 . S
C1964 C374 1.544 . S
C1999 C203 1.614 . S
C2014 C387 1.630 . S
C2064 C408 1.604 . S
C2049 C177 1.627 . S
C2114 C437 1.558 . S
C2099 C189 1.592 . S
C2164 C416 1.594 . S
C2149 C217 1.591 . S
C2214 C429 1.550 . S
C2199 C233 1.605 . S
C2249 C247 1.601 . S
C2264 C395 1.570 . S
C2314 C366 1.520 . S
C2299 C245 1.552 . S
C2349 C219 1.608 . S
C2364 C324 1.551 . S
C2414 C353 1.562 . S
C2399 C231 1.562 . S
C2464 C264 1.431 . S
C2449 C8 1.536 . S
C2499 C17 1.468 . S
C2514 C285 1.363 . S
C2564 C313 1.418 . S
C2549 C31 1.525 . S
C2614 C334 1.421 . S
C2599 C36 1.532 . S
C2664 C348 1.400 . S
C2649 C3 1.506 . S
C2714 C376 1.362 . S
C2699 C22 1.472 . S
C2749 C50 1.557 . S
C2764 C369 1.406 . S
C2799 C59 1.481 . S
C2814 C327 1.327 . S
C2849 C73 1.519 . S
C2864 C355 1.440 . S
C2899 C78 1.566 . S
C2914 C292 1.490 . S
C2964 C306 1.361 . S
C2949 C45 1.513 . S
C2999 C64 1.491 . S
C3014 C271 1.412 . S
C3064 C390 1.423 . S
C3049 C92 1.529 . S
C3099 C101 1.564 . S
C3114 C411 1.450 . S
C3149 C115 1.582 . S
C3164 C439 1.466 . S
C3214 C460 1.373 . S
C3199 C120 1.459 . S
C3249 C87 1.518 . S
C3264 C474 1.405 . S
C3299 C106 1.437 . S
C3314 C502 1.354 . S
C3349 C134 1.467 . S
C3364 C495 1.343 . S
C3399 C143 1.459 . S
C3414 C453 1.361 . S
C3464 C481 1.459 . S
C3449 C157 1.544 . S
C3499 C162 1.538 . S
C3514 C418 1.456 . S
C3549 C129 1.591 . S
C3564 C432 1.424 . S
C3614 C397 1.487 . S
C3599 C148 1.572 . S
C3664 C516 1.311 1_545 S
C3649 C176 1.466 . S
C3699 C185 1.453 . S
C3714 C537 1.335 1_655 S
C3749 C199 1.528 . S
C3764 C565 1.419 . S
C3814 C586 1.402 . S
C3799 C204 1.512 . S
C3864 C600 1.458 . S
C3849 C171 1.577 . S
C3899 C190 1.558 . S
C3914 C628 1.442 . S
C3949 C218 1.550 . S
C3964 C621 1.391 . S
C3999 C227 1.576 . S
C4014 C579 1.413 . S
C4064 C607 1.495 . S
C4049 C241 1.585 . S
C4114 C544 1.377 1_655 S
C4099 C246 1.456 . S
C4164 C558 1.378 . S
C4149 C213 1.535 . S
C4199 C232 1.448 . S
C4214 C523 1.382 1_545 S
