# Generated by pormake.
# Topology nom, (4,4)-cn, num edge types: 1
# Building blocks:
#     Node 0, Type 0, BuildingBlock: AZAVOO_clean_linker_0, # of connection points: 4
#     Node 1, Type 0, BuildingBlock: AZAVOO_clean_linker_0, # of connection points: 4
#     Node 2, Type 0, BuildingBlock: AZAVOO_clean_linker_0, # of connection points: 4
#     Node 3, Type 0, BuildingBlock: AZAVOO_clean_linker_0, # of connection points: 4
#     Node 4, Type 0, BuildingBlock: AZAVOO_clean_linker_0, # of connection points: 4
#     Node 5, Type 0, BuildingBlock: AZAVOO_clean_linker_0, # of connection points: 4
#     Node 6, Type 1, BuildingBlock: KUFVIS_clean_sbu_0, # of connection points: 4
#     Node 7, Type 1, BuildingBlock: KUFVIS_clean_sbu_0, # of connection points: 4
#     Node 8, Type 1, BuildingBlock: KUFVIS_clean_sbu_0, # of connection points: 4
#     Node 9, Type 1, BuildingBlock: KUFVIS_clean_sbu_0, # of connection points: 4
#     Node 10, Type 1, BuildingBlock: KUFVIS_clean_sbu_0, # of connection points: 4
#     Node 11, Type 1, BuildingBlock: KUFVIS_clean_sbu_0, # of connection points: 4
#     Edge 12, Type (0, 1), BuildingBlock: KIFKEQ_clean_linker_1, # of connection points: 2
#     Edge 13, Type (0, 1), BuildingBlock: KIFKEQ_clean_linker_1, # of connection points: 2
#     Edge 14, Type (0, 1), BuildingBlock: KIFKEQ_clean_linker_1, # of connection points: 2
#     Edge 15, Type (0, 1), BuildingBlock: KIFKEQ_clean_linker_1, # of connection points: 2
#     Edge 16, Type (0, 1), BuildingBlock: KIFKEQ_clean_linker_1, # of connection points: 2
#     Edge 17, Type (0, 1), BuildingBlock: KIFKEQ_clean_linker_1, # of connection points: 2
#     Edge 18, Type (0, 1), BuildingBlock: KIFKEQ_clean_linker_1, # of connection points: 2
#     Edge 19, Type (0, 1), BuildingBlock: KIFKEQ_clean_linker_1, # of connection points: 2
#     Edge 20, Type (0, 1), BuildingBlock: KIFKEQ_clean_linker_1, # of connection points: 2
#     Edge 21, Type (0, 1), BuildingBlock: KIFKEQ_clean_linker_1, # of connection points: 2
#     Edge 22, Type (0, 1), BuildingBlock: KIFKEQ_clean_linker_1, # of connection points: 2
#     Edge 23, Type (0, 1), BuildingBlock: KIFKEQ_clean_linker_1, # of connection points: 2
#     Edge 24, Type (0, 1), BuildingBlock: KIFKEQ_clean_linker_1, # of connection points: 2
#     Edge 25, Type (0, 1), BuildingBlock: KIFKEQ_clean_linker_1, # of connection points: 2
#     Edge 26, Type (0, 1), BuildingBlock: KIFKEQ_clean_linker_1, # of connection points: 2
#     Edge 27, Type (0, 1), BuildingBlock: KIFKEQ_clean_linker_1, # of connection points: 2
#     Edge 28, Type (0, 1), BuildingBlock: KIFKEQ_clean_linker_1, # of connection points: 2
#     Edge 29, Type (0, 1), BuildingBlock: KIFKEQ_clean_linker_1, # of connection points: 2
#     Edge 30, Type (0, 1), BuildingBlock: KIFKEQ_clean_linker_1, # of connection points: 2
#     Edge 31, Type (0, 1), BuildingBlock: KIFKEQ_clean_linker_1, # of connection points: 2
#     Edge 32, Type (0, 1), BuildingBlock: KIFKEQ_clean_linker_1, # of connection points: 2
#     Edge 33, Type (0, 1), BuildingBlock: KIFKEQ_clean_linker_1, # of connection points: 2
#     Edge 34, Type (0, 1), BuildingBlock: KIFKEQ_clean_linker_1, # of connection points: 2
#     Edge 35, Type (0, 1), BuildingBlock: KIFKEQ_clean_linker_1, # of connection points: 2
# Relax obj value: 0.143
# Max RMSD: 0.225
# Mean RMSD: 0.145
data_MOF--net-nom--node1-KUFVIS_clean_sbu_0--node2-AZAVOO_clean_linker_0--edge1-KIFKEQ_clean_linker_1
_symmetry_space_group_name_H-M    P1
_symmetry_Int_Tables_number       1
_symmetry_cell_setting            triclinic
loop_
_symmetry_equiv_pos_as_xyz
'x, y, z'
_cell_length_a     48.396059
_cell_length_b     50.557894
_cell_length_c     60.84443
_cell_angle_alpha  90.714306
_cell_angle_beta   90.642218
_cell_angle_gamma 121.40868
loop_
_atom_site_label
_atom_site_type_symbol
_atom_site_fract_x
_atom_site_fract_y
_atom_site_fract_z
_atom_type_partial_charge
H0 H 0.08385 0.48849 0.1758 0.0
H1 H 0.21037 0.63469 0.4115 0.0
H2 H 0.0046 0.45008 0.28109 0.0
H3 H 0.97102 0.42781 0.24776 0.0
H4 H 0.94832 0.49985 0.24946 0.0
H5 H 0.98247 0.52236 0.28269 0.0
H6 H 0.07817 0.48693 0.2718 0.0
H7 H 0.08455 0.48222 0.23235 0.0
H8 H 0.05036 0.54443 0.21942 0.0
H9 H 0.04453 0.54924 0.25892 0.0
H10 H 0.12932 0.52188 0.3045 0.0
H11 H 0.18391 0.55415 0.28987 0.0
H12 H 0.1627 0.62548 0.27555 0.0
H13 H 0.10819 0.59258 0.28925 0.0
H14 H 0.09857 0.50857 0.35574 0.0
H15 H 0.14057 0.53224 0.38463 0.0
H16 H 0.15972 0.6228 0.36694 0.0
H17 H 0.11741 0.59874 0.33821 0.0
H18 H 0.02853 0.47972 0.3672 0.0
H19 H 0.04253 0.48918 0.40646 0.0
H20 H 0.06952 0.58461 0.39949 0.0
H21 H 0.05513 0.57482 0.36038 0.0
H22 H 0.96379 0.45138 0.32542 0.0
H23 H 0.90967 0.43889 0.33661 0.0
H24 H 0.94674 0.5365 0.34778 0.0
H25 H -6e-05 0.54865 0.33596 0.0
O26 O 0.08168 0.4911 0.19134 0.0
O27 O 0.06375 0.52301 0.18558 0.0
O28 O 0.18313 0.57767 0.40839 0.0
O29 O 0.19441 0.62485 0.39971 0.0
C30 C 0.02342 0.50573 0.29998 0.0
C31 C 0.05534 0.51981 0.29202 0.0
C32 C 0.08204 0.53608 0.30658 0.0
C33 C 0.07703 0.53707 0.32921 0.0
C34 C 0.04524 0.52431 0.33708 0.0
C35 C 0.01836 0.50937 0.32237 0.0
C36 C 0.99598 0.48783 0.28425 0.0
C37 C 0.99152 0.46045 0.27467 0.0
C38 C 0.97266 0.44798 0.25555 0.0
C39 C 0.95756 0.46243 0.2459 0.0
C40 C 0.9597 0.48827 0.25661 0.0
C41 C 0.97896 0.50101 0.27565 0.0
C42 C 0.0608 0.51833 0.26817 0.0
C43 C 0.07237 0.49973 0.26042 0.0
C44 C 0.07585 0.49698 0.23788 0.0
C45 C 0.06782 0.51284 0.22272 0.0
C46 C 0.05667 0.53184 0.23063 0.0
C47 C 0.05331 0.53463 0.25317 0.0
C48 C 0.11499 0.55498 0.29782 0.0
C49 C 0.1366 0.54441 0.29802 0.0
C50 C 0.16774 0.56294 0.28977 0.0
C51 C 0.1777 0.59239 0.28138 0.0
C52 C 0.15573 0.6027 0.28134 0.0
C53 C 0.12465 0.58409 0.28936 0.0
C54 C 0.10509 0.55197 0.34487 0.0
C55 C 0.11217 0.53355 0.35796 0.0
C56 C 0.13606 0.54712 0.3745 0.0
C57 C 0.15339 0.57942 0.37818 0.0
C58 C 0.14679 0.59787 0.36458 0.0
C59 C 0.12282 0.58423 0.34806 0.0
C60 C 0.04103 0.52663 0.36097 0.0
C61 C 0.03585 0.5022 0.37439 0.0
C62 C 0.04424 0.50777 0.39674 0.0
C63 C 0.05775 0.5378 0.40589 0.0
C64 C 0.05909 0.56123 0.39293 0.0
C65 C 0.05076 0.55566 0.37058 0.0
C66 C 0.98579 0.50091 0.32995 0.0
C67 C 0.96007 0.46996 0.33029 0.0
C68 C 0.92928 0.46289 0.33678 0.0
C69 C 0.92383 0.48673 0.34292 0.0
C70 C 0.94989 0.51761 0.34277 0.0
C71 C 0.98044 0.5246 0.33627 0.0
C72 C 0.07094 0.50939 0.19876 0.0
C73 C 0.17788 0.5938 0.39632 0.0
H74 H 0.548 0.07209 0.34651 0.0
H75 H 0.51283 0.18148 0.57948 0.0
H76 H 0.53096 0.00292 0.45491 0.0
H77 H 0.52761 0.97267 0.42219 0.0
H78 H 0.4236 0.92941 0.42058 0.0
H79 H 0.4272 0.96038 0.45319 0.0
H80 H 0.55203 0.06613 0.44236 0.0
H81 H 0.56025 0.07338 0.40275 0.0
H82 H 0.45683 0.02953 0.3922 0.0
H83 H 0.44903 0.02271 0.43187 0.0
H84 H 0.56435 0.1085 0.47396 0.0
H85 H 0.58545 0.16109 0.46042 0.0
H86 H 0.48761 0.14074 0.45105 0.0
H87 H 0.46672 0.08799 0.46416 0.0
H88 H 0.54896 0.08627 0.52802 0.0
H89 H 0.56248 0.12694 0.55576 0.0
H90 H 0.47655 0.12774 0.53672 0.0
H91 H 0.46312 0.08677 0.50924 0.0
H92 H 0.51874 0.01707 0.53804 0.0
H93 H 0.52362 0.0287 0.57756 0.0
H94 H 0.4414 0.04023 0.57303 0.0
H95 H 0.43652 0.02831 0.53355 0.0
H96 H 0.50064 0.9653 0.50008 0.0
H97 H 0.4729 0.91232 0.51387 0.0
H98 H 0.38493 0.91416 0.51984 0.0
H99 H 0.41318 0.96723 0.50675 0.0
O100 O 0.54425 0.06939 0.36213 0.0
O101 O 0.49092 0.04679 0.35761 0.0
O102 O 0.55219 0.16441 0.57755 0.0
O103 O 0.50842 0.16588 0.56833 0.0
C104 C 0.48281 0.00827 0.47188 0.0
C105 C 0.49486 0.03845 0.46384 0.0
C106 C 0.50135 0.06297 0.4784 0.0
C107 C 0.49589 0.05744 0.501 0.0
C108 C 0.48234 0.02699 0.50896 0.0
C109 C 0.47541 0.00224 0.49435 0.0
C110 C 0.47933 0.98382 0.45638 0.0
C111 C 0.50736 0.98622 0.4479 0.0
C112 C 0.50546 0.96921 0.42913 0.0
C113 C 0.4754 0.94909 0.41877 0.0
C114 C 0.44704 0.94476 0.42833 0.0
C115 C 0.44902 0.96222 0.44699 0.0
C116 C 0.49999 0.04413 0.43994 0.0
C117 C 0.53125 0.05846 0.43147 0.0
C118 C 0.53584 0.0624 0.40884 0.0
C119 C 0.50919 0.05202 0.3943 0.0
C120 C 0.47787 0.03781 0.40293 0.0
C121 C 0.47335 0.03394 0.42556 0.0
C122 C 0.51407 0.09457 0.46998 0.0
C123 C 0.54754 0.11539 0.46881 0.0
C124 C 0.5595 0.14527 0.46103 0.0
C125 C 0.53812 0.15489 0.45469 0.0
C126 C 0.50458 0.13392 0.45594 0.0
C127 C 0.49264 0.10389 0.46336 0.0
C128 C 0.50517 0.08374 0.51659 0.0
C129 C 0.53325 0.09546 0.52976 0.0
C130 C 0.54087 0.11863 0.54561 0.0
C131 C 0.52058 0.1306 0.54846 0.0
C132 C 0.49271 0.11908 0.53494 0.0
C133 C 0.48507 0.09582 0.51915 0.0
C134 C 0.4775 0.02218 0.53294 0.0
C135 C 0.50078 0.02053 0.54578 0.0
C136 C 0.5036 0.02729 0.56835 0.0
C137 C 0.48323 0.0359 0.57823 0.0
C138 C 0.45762 0.034 0.56574 0.0
C139 C 0.45465 0.02697 0.54326 0.0
C140 C 0.4589 0.97005 0.50243 0.0
C141 C 0.47539 0.95416 0.50441 0.0
C142 C 0.45942 0.92385 0.51221 0.0
C143 C 0.42662 0.90887 0.51807 0.0
C144 C 0.4103 0.92504 0.51594 0.0
C145 C 0.42632 0.95532 0.50829 0.0
C146 C 0.51409 0.05586 0.37024 0.0
C147 C 0.52816 0.15467 0.56564 0.0
H148 H 0.60068 0.52002 0.78269 0.0
H149 H 0.56863 0.40539 0.5413 0.0
H150 H 0.57271 0.58042 0.68252 0.0
H151 H 0.56421 0.59924 0.71726 0.0
H152 H 0.46085 0.53615 0.70908 0.0
H153 H 0.46994 0.51643 0.67468 0.0
H154 H 0.59979 0.53483 0.68752 0.0
H155 H 0.60999 0.53303 0.7268 0.0
H156 H 0.50683 0.48231 0.7376 0.0
H157 H 0.49697 0.48379 0.69826 0.0
H158 H 0.60623 0.4973 0.6446 0.0
H159 H 0.61913 0.45849 0.65561 0.0
H160 H 0.52559 0.40604 0.68598 0.0
H161 H 0.51211 0.4434 0.6733 0.0
H162 H 0.59796 0.52841 0.60217 0.0
H163 H 0.613 0.50611 0.5721 0.0
H164 H 0.53142 0.41527 0.5863 0.0
H165 H 0.5164 0.43798 0.61619 0.0
H166 H 0.56597 0.56727 0.59696 0.0
H167 H 0.57543 0.5669 0.5576 0.0
H168 H 0.49917 0.47034 0.55303 0.0
H169 H 0.48912 0.47142 0.59203 0.0
H170 H 0.53483 0.59037 0.6406 0.0
H171 H 0.49971 0.60973 0.62901 0.0
H172 H 0.42766 0.5177 0.60559 0.0
H173 H 0.46215 0.4985 0.61759 0.0
O174 O 0.59609 0.52018 0.76718 0.0
O175 O 0.54285 0.49446 0.77187 0.0
O176 O 0.6048 0.462 0.54658 0.0
O177 O 0.56366 0.41466 0.55345 0.0
C178 C 0.52844 0.52955 0.65939 0.0
C179 C 0.5417 0.51168 0.66629 0.0
C180 C 0.54912 0.49558 0.65064 0.0
C181 C 0.54539 0.49909 0.62806 0.0
C182 C 0.53098 0.51597 0.62122 0.0
C183 C 0.52138 0.5303 0.6369 0.0
C184 C 0.52197 0.54691 0.67624 0.0
C185 C 0.54816 0.57139 0.6879 0.0
C186 C 0.5432 0.58212 0.70779 0.0
C187 C 0.51186 0.5688 0.71619 0.0
C188 C 0.48536 0.54636 0.70331 0.0
C189 C 0.4904 0.5354 0.68349 0.0
C190 C 0.54767 0.50966 0.69008 0.0
C191 C 0.57944 0.5232 0.69839 0.0
C192 C 0.58519 0.52221 0.72084 0.0
C193 C 0.55922 0.50764 0.73536 0.0
C194 C 0.52738 0.4938 0.7269 0.0
C195 C 0.52168 0.4947 0.70444 0.0
C196 C 0.55816 0.47312 0.65805 0.0
C197 C 0.58847 0.47721 0.65343 0.0
C198 C 0.59591 0.45514 0.65997 0.0
C199 C 0.57336 0.42887 0.67161 0.0
C200 C 0.54332 0.42541 0.67659 0.0
C201 C 0.53569 0.44704 0.66963 0.0
C202 C 0.55611 0.4848 0.61133 0.0
C203 C 0.58353 0.50366 0.59887 0.0
C204 C 0.59201 0.49088 0.58167 0.0
C205 C 0.5733 0.45891 0.57672 0.0
C206 C 0.54629 0.43997 0.58964 0.0
C207 C 0.53776 0.45283 0.6068 0.0
C208 C 0.52737 0.51918 0.59735 0.0
C209 C 0.55017 0.54657 0.58718 0.0
C210 C 0.55581 0.54617 0.56476 0.0
C211 C 0.5388 0.51831 0.55236 0.0
C212 C 0.51279 0.49218 0.56203 0.0
C213 C 0.50698 0.49271 0.58439 0.0
C214 C 0.50116 0.54302 0.62981 0.0
C215 C 0.5114 0.57443 0.63304 0.0
C216 C 0.49139 0.58544 0.62643 0.0
C217 C 0.46114 0.56526 0.61619 0.0
C218 C 0.45108 0.5339 0.61306 0.0
C219 C 0.47076 0.5229 0.61991 0.0
C220 C 0.56542 0.50695 0.75924 0.0
C221 C 0.58167 0.44541 0.55802 0.0
H222 H 0.05377 0.49294 0.96221 0.0
H223 H 0.20375 0.53411 0.72464 0.0
H224 H 0.9868 0.48847 0.85068 0.0
H225 H 0.95587 0.47204 0.88444 0.0
H226 H 0.94953 0.3837 0.87888 0.0
H227 H 0.97957 0.40009 0.84468 0.0
H228 H 0.05675 0.51853 0.8685 0.0
H229 H 0.05854 0.51709 0.90868 0.0
H230 H 0.04326 0.42491 0.90426 0.0
H231 H 0.04148 0.42671 0.86411 0.0
H232 H 0.12193 0.54521 0.83125 0.0
H233 H 0.17756 0.56221 0.84289 0.0
H234 H 0.14939 0.46672 0.85175 0.0
H235 H 0.09406 0.44997 0.83983 0.0
H236 H 0.098 0.54584 0.78717 0.0
H237 H 0.14266 0.56907 0.76136 0.0
H238 H 0.14485 0.48463 0.7605 0.0
H239 H 0.10004 0.46166 0.78623 0.0
H240 H 0.03133 0.51871 0.77267 0.0
H241 H 0.04994 0.53592 0.73538 0.0
H242 H 0.05508 0.45417 0.72371 0.0
H243 H 0.03667 0.4373 0.76099 0.0
H244 H 0.95881 0.4703 0.80878 0.0
H245 H 0.90221 0.43475 0.79707 0.0
H246 H 0.92789 0.37018 0.77197 0.0
H247 H 0.9839 0.40532 0.7842 0.0
O248 O 0.05401 0.49343 0.94633 0.0
O249 O 0.04722 0.44651 0.94316 0.0
O250 O 0.18393 0.56836 0.7359 0.0
O251 O 0.18653 0.52572 0.7352 0.0
C252 C 0.01296 0.45923 0.83011 0.0
C253 C 0.04452 0.47253 0.8393 0.0
C254 C 0.07148 0.48577 0.8256 0.0
C255 C 0.0672 0.48734 0.80284 0.0
C256 C 0.03567 0.47402 0.79353 0.0
C257 C 0.00838 0.45911 0.80711 0.0
C258 C 0.98532 0.44544 0.84525 0.0
C259 C 0.97739 0.46505 0.85622 0.0
C260 C 0.96026 0.45581 0.87573 0.0
C261 C 0.95101 0.42687 0.88468 0.0
C262 C 0.95627 0.40612 0.87246 0.0
C263 C 0.97324 0.41534 0.85282 0.0
C264 C 0.04913 0.47279 0.86348 0.0
C265 C 0.05427 0.49826 0.87627 0.0
C266 C 0.05509 0.49728 0.8992 0.0
C267 C 0.05089 0.47082 0.90969 0.0
C268 C 0.04653 0.44563 0.89672 0.0
C269 C 0.04568 0.44664 0.8738 0.0
C270 C 0.10411 0.49643 0.83481 0.0
C271 C 0.1278 0.52807 0.83592 0.0
C272 C 0.15946 0.53767 0.84244 0.0
C273 C 0.16769 0.51572 0.84813 0.0
C274 C 0.14359 0.4841 0.84765 0.0
C275 C 0.11206 0.47452 0.84091 0.0
C276 C 0.0958 0.50209 0.78845 0.0
C277 C 0.10832 0.5325 0.78146 0.0
C278 C 0.13376 0.54566 0.7667 0.0
C279 C 0.14721 0.52863 0.75876 0.0
C280 C 0.135 0.49834 0.76622 0.0
C281 C 0.10951 0.4852 0.78097 0.0
C282 C 0.03252 0.47669 0.76952 0.0
C283 C 0.03478 0.50371 0.76166 0.0
C284 C 0.04595 0.51377 0.74049 0.0
C285 C 0.05454 0.49668 0.72681 0.0
C286 C 0.04856 0.46779 0.73384 0.0
C287 C 0.03769 0.45791 0.75508 0.0
C288 C 0.9754 0.44035 0.79731 0.0
C289 C 0.95219 0.44864 0.80049 0.0
C290 C 0.91996 0.42838 0.79374 0.0
C291 C 0.91056 0.39952 0.78382 0.0
C292 C 0.93427 0.392 0.77989 0.0
C293 C 0.96634 0.4122 0.78662 0.0
C294 C 0.05064 0.46942 0.93405 0.0
C295 C 0.17367 0.54222 0.74263 0.0
H296 H 0.40254 0.95642 0.84868 0.0
H297 H 0.45652 0.83692 0.06865 0.0
H298 H 0.46801 0.04522 0.95128 0.0
H299 H 0.48796 0.08025 0.9202 0.0
H300 H 0.57955 0.08475 0.92562 0.0
H301 H 0.55975 0.05086 0.95702 0.0
H302 H 0.41855 0.96498 0.94446 0.0
H303 H 0.40223 0.95772 0.90556 0.0
H304 H 0.50175 0.99442 0.8875 0.0
H305 H 0.5176 0.00097 0.92636 0.0
H306 H 0.41373 0.9052 0.97853 0.0
H307 H 0.40464 0.85541 0.96465 0.0
H308 H 0.4966 0.90402 0.93197 0.0
H309 H 0.50672 0.95259 0.94758 0.0
H310 H 0.42425 0.93819 0.02418 0.0
H311 H 0.41014 0.8961 0.04968 0.0
H312 H 0.4928 0.89192 0.02843 0.0
H313 H 0.50677 0.93424 0.00316 0.0
H314 H 0.46067 0.00083 0.04063 0.0
H315 H 0.46326 0.98842 0.07917 0.0
H316 H 0.54831 0.98427 0.06578 0.0
H317 H 0.54491 0.99554 0.0272 0.0
H318 H 0.50268 0.07401 0.00074 0.0
H319 H 0.54747 0.12686 0.00983 0.0
H320 H 0.61291 0.09299 0.01453 0.0
H321 H 0.56865 0.04101 0.00462 0.0
O322 O 0.40948 0.95937 0.86395 0.0
O323 O 0.46109 0.97888 0.85556 0.0
O324 O 0.41919 0.85648 0.06889 0.0
O325 O 0.46117 0.85315 0.0584 0.0
C326 C 0.49816 0.01875 0.97127 0.0
C327 C 0.47886 0.98856 0.96198 0.0
C328 C 0.46988 0.96247 0.97499 0.0
C329 C 0.47639 0.96639 0.99783 0.0
C330 C 0.4949 0.99651 0.0073 0.0
C331 C 0.50705 0.02269 0.99385 0.0
C332 C 0.51245 0.04557 0.95641 0.0
C333 C 0.49276 0.05473 0.94618 0.0
C334 C 0.50409 0.07438 0.92823 0.0
C335 C 0.5352 0.08492 0.92006 0.0
C336 C 0.55562 0.07745 0.93148 0.0
C337 C 0.54438 0.05808 0.94954 0.0
C338 C 0.46931 0.98399 0.93826 0.0
C339 C 0.43677 0.97142 0.93206 0.0
C340 C 0.42754 0.96734 0.90984 0.0
C341 C 0.45072 0.97567 0.89341 0.0
C342 C 0.4833 0.98794 0.89971 0.0
C343 C 0.49246 0.9919 0.92192 0.0
C344 C 0.46088 0.93256 0.96405 0.0
C345 C 0.43174 0.90493 0.96829 0.0
C346 C 0.42651 0.87657 0.9602 0.0
C347 C 0.45017 0.87565 0.9475 0.0
C348 C 0.47827 0.90367 0.94222 0.0
C349 C 0.48383 0.93165 0.95076 0.0
C350 C 0.46642 0.9391 0.01182 0.0
C351 C 0.43908 0.92794 0.02495 0.0
C352 C 0.43115 0.90398 0.03952 0.0
C353 C 0.4504 0.89069 0.04114 0.0
C354 C 0.47748 0.90164 0.02762 0.0
C355 C 0.48544 0.92568 0.0131 0.0
C356 C 0.50291 0.99963 0.03118 0.0
C357 C 0.48066 0.99858 0.04623 0.0
C358 C 0.48196 0.99117 0.06813 0.0
C359 C 0.50594 0.98533 0.07534 0.0
C360 C 0.52984 0.98904 0.06068 0.0
C361 C 0.52814 0.99581 0.03869 0.0
C362 C 0.53235 0.05362 0.00246 0.0
C363 C 0.52663 0.07806 0.00412 0.0
C364 C 0.55218 0.10814 0.00928 0.0
C365 C 0.58375 0.1141 0.01269 0.0
C366 C 0.58899 0.08926 0.01166 0.0
C367 C 0.5636 0.0594 0.00644 0.0
C368 C 0.44088 0.97145 0.86983 0.0
C369 C 0.44252 0.86574 0.05698 0.0
H370 H 0.56832 0.50544 0.01056 0.0
H371 H 0.7008 0.51132 0.24524 0.0
H372 H 0.52653 0.54294 0.11436 0.0
H373 H 0.50912 0.55871 0.08213 0.0
H374 H 0.58774 0.6534 0.09345 0.0
H375 H 0.60613 0.63669 0.1251 0.0
H376 H 0.55968 0.5047 0.1064 0.0
H377 H 0.55714 0.49563 0.06663 0.0
H378 H 0.62694 0.59301 0.05791 0.0
H379 H 0.62962 0.60167 0.09772 0.0
H380 H 0.58843 0.48608 0.14833 0.0
H381 H 0.61448 0.45889 0.13482 0.0
H382 H 0.68665 0.54268 0.10332 0.0
H383 H 0.662 0.57013 0.11858 0.0
H384 H 0.57449 0.49989 0.19069 0.0
H385 H 0.59596 0.47979 0.21804 0.0
H386 H 0.69323 0.55372 0.2039 0.0
H387 H 0.67136 0.57357 0.17657 0.0
H388 H 0.54387 0.5358 0.20023 0.0
H389 H 0.5467 0.52496 0.23904 0.0
H390 H 0.64783 0.59714 0.24183 0.0
H391 H 0.6448 0.60771 0.20308 0.0
H392 H 0.52303 0.57469 0.15977 0.0
H393 H 0.50819 0.61231 0.17099 0.0
H394 H 0.60737 0.67656 0.19173 0.0
H395 H 0.6221 0.63929 0.17973 0.0
O396 O 0.57003 0.50946 0.02626 0.0
O397 O 0.6059 0.55974 0.02268 0.0
O398 O 0.64117 0.4813 0.24117 0.0
O399 O 0.69173 0.51835 0.23415 0.0
C400 C 0.58252 0.57703 0.13745 0.0
C401 C 0.59531 0.55943 0.12904 0.0
C402 C 0.6085 0.5471 0.14352 0.0
C403 C 0.6081 0.55164 0.16638 0.0
C404 C 0.59572 0.56959 0.17476 0.0
C405 C 0.58357 0.58291 0.16031 0.0
C406 C 0.56771 0.58861 0.12188 0.0
C407 C 0.53951 0.56722 0.11016 0.0
C408 C 0.52955 0.57639 0.09175 0.0
C409 C 0.54725 0.60734 0.08495 0.0
C410 C 0.57399 0.62926 0.09791 0.0
C411 C 0.58426 0.6199 0.11619 0.0
C412 C 0.59475 0.55384 0.10492 0.0
C413 C 0.57457 0.52398 0.09587 0.0
C414 C 0.57309 0.5189 0.07315 0.0
C415 C 0.59176 0.54362 0.05907 0.0
C416 C 0.6122 0.57347 0.06826 0.0
C417 C 0.61374 0.5785 0.09099 0.0
C418 C 0.62354 0.53016 0.13465 0.0
C419 C 0.61014 0.49859 0.13877 0.0
C420 C 0.62483 0.48299 0.13073 0.0
C421 C 0.65282 0.49853 0.11797 0.0
C422 C 0.66562 0.53005 0.11348 0.0
C423 C 0.65135 0.54575 0.12196 0.0
C424 C 0.62139 0.53821 0.18175 0.0
C425 C 0.60043 0.5116 0.19347 0.0
C426 C 0.61276 0.50022 0.20909 0.0
C427 C 0.64632 0.5153 0.21328 0.0
C428 C 0.66727 0.54162 0.20114 0.0
C429 C 0.65489 0.55295 0.18547 0.0
C430 C 0.59417 0.57241 0.19889 0.0
C431 C 0.56615 0.55035 0.20955 0.0
C432 C 0.56791 0.54393 0.2316 0.0
C433 C 0.59762 0.55984 0.24325 0.0
C434 C 0.6246 0.5846 0.23326 0.0
C435 C 0.62289 0.59081 0.21116 0.0
C436 C 0.57364 0.60427 0.16892 0.0
C437 C 0.54146 0.59685 0.16684 0.0
C438 C 0.53303 0.61832 0.17336 0.0
C439 C 0.55664 0.64756 0.18215 0.0
C440 C 0.5887 0.6545 0.18469 0.0
C441 C 0.5971 0.63309 0.1781 0.0
C442 C 0.58977 0.53822 0.03491 0.0
C443 C 0.65945 0.50384 0.23036 0.0
Mn444 Mn 0.64556 0.42878 0.40642 0.0
Mn445 Mn 0.69421 0.5049 0.41947 0.0
C446 C 0.62721 0.45266 0.4294 0.0
C447 C 0.6288 0.37732 0.41324 0.0
C448 C 0.65662 0.4814 0.37633 0.0
O449 O 0.68982 0.43816 0.39679 0.0
O450 O 0.72038 0.48811 0.40778 0.0
C451 C 0.72998 0.49827 0.45664 0.0
N452 N 0.71126 0.50891 0.44861 0.0
C453 C 0.7125 0.53221 0.48361 0.0
C454 C 0.73197 0.52167 0.49224 0.0
C455 C 0.74065 0.50453 0.47871 0.0
C456 C 0.70251 0.52516 0.46153 0.0
H457 H 0.73671 0.48509 0.44628 0.0
C458 C 0.71709 0.46335 0.39917 0.0
O459 O 0.62474 0.38569 0.39395 0.0
O460 O 0.64314 0.3989 0.42827 0.0
N461 N 0.67279 0.52475 0.43106 0.0
C462 C 0.65337 0.53269 0.42033 0.0
C463 C 0.64216 0.54958 0.43164 0.0
C464 C 0.65147 0.55856 0.45373 0.0
C465 C 0.67206 0.55072 0.46427 0.0
C466 C 0.68247 0.53388 0.45216 0.0
H467 H 0.64632 0.52606 0.40331 0.0
O468 O 0.60691 0.42665 0.41945 0.0
O469 O 0.65782 0.46346 0.42625 0.0
O470 O 0.64259 0.45247 0.38024 0.0
O471 O 0.6769 0.50272 0.38959 0.0
C472 C 0.68243 0.5587 0.48638 0.0
C473 C 0.70244 0.54926 0.4961 0.0
H474 H 0.74027 0.52647 0.50924 0.0
H475 H 0.75556 0.49621 0.48526 0.0
H476 H 0.62639 0.55565 0.42335 0.0
H477 H 0.64263 0.57142 0.46243 0.0
H478 H 0.6749 0.57184 0.49613 0.0
H479 H 0.70989 0.55518 0.51319 0.0
Mn480 Mn 0.24616 0.63274 0.56584 0.0
Mn481 Mn 0.21107 0.55685 0.55215 0.0
C482 C 0.20303 0.60987 0.54089 0.0
C483 C 0.28638 0.68432 0.55986 0.0
C484 C 0.19912 0.58001 0.5952 0.0
O485 O 0.27946 0.62226 0.57655 0.0
O486 O 0.25555 0.57293 0.56396 0.0
C487 C 0.25294 0.56209 0.51529 0.0
N488 N 0.22293 0.5523 0.52314 0.0
C489 C 0.19772 0.52845 0.48827 0.0
C490 C 0.22833 0.53814 0.47982 0.0
C491 C 0.25607 0.55514 0.49337 0.0
C492 C 0.19612 0.53621 0.51019 0.0
H493 H 0.27429 0.57507 0.52568 0.0
C494 C 0.27926 0.59714 0.5733 0.0
O495 O 0.27234 0.6757 0.57872 0.0
O496 O 0.27755 0.6629 0.5448 0.0
N497 N 0.16797 0.53822 0.54028 0.0
C498 C 0.1404 0.53186 0.55064 0.0
C499 C 0.11057 0.51567 0.53918 0.0
C500 C 0.10933 0.50579 0.51732 0.0
C501 C 0.13796 0.51223 0.50711 0.0
C502 C 0.16698 0.52853 0.51932 0.0
H503 H 0.14115 0.53916 0.5675 0.0
O504 O 0.21056 0.63553 0.55108 0.0
O505 O 0.22122 0.59868 0.54536 0.0
O506 O 0.21628 0.60897 0.59137 0.0
O507 O 0.19671 0.55904 0.58197 0.0
C508 C 0.13887 0.50334 0.48523 0.0
C509 C 0.16875 0.51164 0.47576 0.0
H510 H 0.23085 0.5328 0.46294 0.0
H511 H 0.27979 0.56279 0.48695 0.0
H512 H 0.08858 0.51076 0.54719 0.0
H513 H 0.08629 0.49339 0.5085 0.0
H514 H 0.11677 0.49054 0.47542 0.0
H515 H 0.16918 0.50517 0.45878 0.0
Mn516 Mn 0.60966 0.2168 0.7338 0.0
Mn517 Mn 0.63774 0.16864 0.72754 0.0
C518 C 0.58127 0.1727 0.7119 0.0
C519 C 0.60931 0.26076 0.72359 0.0
C520 C 0.60494 0.17216 0.7688 0.0
O521 O 0.65649 0.24278 0.74473 0.0
O522 O 0.67424 0.21065 0.73631 0.0
C523 C 0.67892 0.19699 0.68892 0.0
N524 N 0.6538 0.17191 0.69852 0.0
C525 C 0.64297 0.14051 0.66579 0.0
C526 C 0.66886 0.16595 0.6556 0.0
C527 C 0.68687 0.19432 0.66721 0.0
C528 C 0.63628 0.14452 0.68749 0.0
H529 H 0.69272 0.21889 0.69774 0.0
C530 C 0.679 0.2368 0.74325 0.0
O531 O 0.60086 0.24945 0.74309 0.0
O532 O 0.61839 0.24677 0.7101 0.0
N533 N 0.60484 0.12735 0.71876 0.0
C534 C 0.57981 0.10546 0.73063 0.0
C535 C 0.55903 0.07588 0.72123 0.0
C536 C 0.56428 0.06909 0.69977 0.0
C537 C 0.59039 0.0919 0.68795 0.0
C538 C 0.61048 0.12086 0.69826 0.0
H539 H 0.57562 0.11054 0.74712 0.0
O540 O 0.56692 0.18641 0.7196 0.0
O541 O 0.61184 0.18559 0.71695 0.0
O542 O 0.5974 0.19114 0.76151 0.0
O543 O 0.62103 0.16312 0.75783 0.0
C544 C 0.59699 0.08719 0.66624 0.0
C545 C 0.6232 0.1115 0.65515 0.0
H546 H 0.67496 0.16403 0.63882 0.0
H547 H 0.70678 0.2141 0.65942 0.0
H548 H 0.53893 0.05841 0.73045 0.0
H549 H 0.54801 0.04636 0.69249 0.0
H550 H 0.58183 0.06507 0.65782 0.0
H551 H 0.62777 0.10771 0.63836 0.0
Mn552 Mn 0.46305 0.64493 0.90356 0.0
Mn553 Mn 0.44329 0.5725 0.91514 0.0
C554 C 0.49025 0.63696 0.93146 0.0
C555 C 0.45296 0.68465 0.90796 0.0
C556 C 0.47881 0.60633 0.8741 0.0
O557 O 0.41915 0.61766 0.88876 0.0
O558 O 0.40431 0.57083 0.90236 0.0
C559 C 0.39642 0.55795 0.95062 0.0
N560 N 0.4247 0.56138 0.94359 0.0
C561 C 0.43606 0.54846 0.97914 0.0
C562 C 0.40697 0.54462 0.98673 0.0
C563 C 0.3871 0.54945 0.97242 0.0
C564 C 0.44405 0.55689 0.95724 0.0
H565 H 0.38115 0.56178 0.93969 0.0
C566 C 0.3983 0.58906 0.89166 0.0
O567 O 0.46719 0.68259 0.89062 0.0
O568 O 0.44476 0.66372 0.92277 0.0
N569 N 0.47924 0.57177 0.92792 0.0
C570 C 0.50738 0.5782 0.91842 0.0
C571 C 0.53035 0.57528 0.93072 0.0
C572 C 0.52412 0.56572 0.95262 0.0
C573 C 0.49494 0.55913 0.96202 0.0
C574 C 0.47286 0.56224 0.94891 0.0
H575 H 0.51232 0.58555 0.9016 0.0
O576 O 0.50327 0.66397 0.92252 0.0
O577 O 0.46208 0.61597 0.9236 0.0
O578 O 0.48383 0.63277 0.87991 0.0
O579 O 0.46285 0.58206 0.8856 0.0
C580 C 0.48716 0.55017 0.98401 0.0
C581 C 0.45773 0.54482 0.99256 0.0
H582 H 0.39979 0.53824 0.00357 0.0
H583 H 0.36469 0.5467 0.97819 0.0
H584 H 0.55284 0.58047 0.92335 0.0
H585 H 0.54201 0.56374 0.9621 0.0
H586 H 0.50382 0.54772 0.99458 0.0
H587 H 0.45219 0.53828 0.00955 0.0
Mn588 Mn 0.81592 0.38622 0.06753 0.0
Mn589 Mn 0.84749 0.34228 0.07924 0.0
C590 C 0.85526 0.40205 0.09471 0.0
C591 C 0.77683 0.39905 0.0724 0.0
C592 C 0.86322 0.38062 0.03815 0.0
O593 O 0.78317 0.34419 0.05392 0.0
O594 O 0.80368 0.31552 0.0656 0.0
C595 C 0.80268 0.30309 0.11373 0.0
N596 N 0.8333 0.32402 0.10735 0.0
C597 C 0.85509 0.32551 0.14341 0.0
C598 C 0.82382 0.30382 0.15032 0.0
C599 C 0.79751 0.29259 0.13542 0.0
C600 C 0.85881 0.3349 0.12154 0.0
H601 H 0.78236 0.29457 0.10237 0.0
C602 C 0.78169 0.31836 0.05591 0.0
O603 O 0.79337 0.40582 0.05451 0.0
O604 O 0.78248 0.38416 0.08726 0.0
N605 N 0.88962 0.36589 0.09285 0.0
C606 C 0.91788 0.38814 0.08397 0.0
C607 C 0.94641 0.40245 0.09693 0.0
C608 C 0.94559 0.39377 0.11887 0.0
C609 C 0.91624 0.37073 0.12762 0.0
C610 C 0.88865 0.35703 0.11384 0.0
H611 H 0.91861 0.39504 0.06716 0.0
O612 O 0.85036 0.42218 0.08526 0.0
O613 O 0.83716 0.37354 0.08776 0.0
O614 O 0.84764 0.39367 0.0433 0.0
O615 O 0.86406 0.36039 0.05004 0.0
C616 C 0.91314 0.36132 0.14961 0.0
C617 C 0.88259 0.33872 0.1575 0.0
H618 H 0.81968 0.29587 0.16709 0.0
H619 H 0.77327 0.27598 0.14067 0.0
H620 H 0.96895 0.42028 0.09008 0.0
H621 H 0.96757 0.40513 0.1289 0.0
H622 H 0.93402 0.37163 0.16069 0.0
H623 H 0.88044 0.33198 0.17452 0.0
Mn624 Mn 0.44573 0.81606 0.24238 0.0
Mn625 Mn 0.5243 0.86666 0.25492 0.0
C626 C 0.45935 0.8522 0.27031 0.0
C627 C 0.39932 0.76762 0.24634 0.0
C628 C 0.48981 0.87201 0.21474 0.0
O629 O 0.46898 0.79698 0.22779 0.0
O630 O 0.52021 0.8293 0.24006 0.0
C631 C 0.53515 0.83045 0.28806 0.0
N632 N 0.5352 0.85651 0.28256 0.0
C633 C 0.55225 0.87798 0.3192 0.0
C634 C 0.55259 0.85146 0.3252 0.0
C635 C 0.54398 0.8276 0.30956 0.0
C636 C 0.5435 0.87965 0.29748 0.0
H637 H 0.52831 0.81194 0.27614 0.0
C638 C 0.49854 0.80463 0.22978 0.0
O639 O 0.40372 0.78369 0.22882 0.0
O640 O 0.42207 0.77954 0.26136 0.0
N641 N 0.53119 0.90336 0.26972 0.0
C642 C 0.52806 0.92669 0.2616 0.0
C643 C 0.53501 0.95205 0.27534 0.0
C644 C 0.54516 0.95319 0.29723 0.0
C645 C 0.54843 0.92903 0.30517 0.0
C646 C 0.54152 0.90452 0.29065 0.0
H647 H 0.52012 0.92589 0.24483 0.0
O648 O 0.43091 0.83906 0.26086 0.0
O649 O 0.47868 0.84352 0.26315 0.0
O650 O 0.46175 0.84935 0.21915 0.0
O651 O 0.51514 0.8796 0.22639 0.0
C652 C 0.55769 0.92803 0.32703 0.0
C653 C 0.55959 0.90252 0.33404 0.0
H654 H 0.55914 0.84906 0.34182 0.0
H655 H 0.54401 0.80698 0.31411 0.0
H656 H 0.53237 0.97058 0.2691 0.0
H657 H 0.55012 0.97261 0.30785 0.0
H658 H 0.56299 0.94656 0.33866 0.0
H659 H 0.56634 0.90182 0.35097 0.0
H660 H 0.19682 0.63132 0.24645 0.0
H661 H 0.23445 0.60025 0.29822 0.0
H662 H 0.25149 0.67047 0.23683 0.0
H663 H 0.28938 0.63783 0.2874 0.0
H664 H 0.37705 0.73733 0.28473 0.0
H665 H 0.32462 0.69141 0.29122 0.0
H666 H 0.30107 0.68375 0.22172 0.0
H667 H 0.35309 0.73086 0.21552 0.0
C668 C 0.21679 0.63256 0.25562 0.0
C669 C 0.21114 0.613 0.27342 0.0
C670 C 0.24828 0.65475 0.24984 0.0
C671 C 0.27504 0.65763 0.26145 0.0
C672 C 0.2694 0.63677 0.27838 0.0
C673 C 0.23783 0.61485 0.28439 0.0
C674 C 0.36078 0.72565 0.27081 0.0
C675 C 0.36897 0.73784 0.24966 0.0
C676 C 0.33073 0.6991 0.27449 0.0
C677 C 0.30836 0.6838 0.25702 0.0
C678 C 0.31733 0.69525 0.23566 0.0
C679 C 0.34721 0.72215 0.23205 0.0
H680 H 0.52098 0.19539 0.46924 0.0
H681 H 0.58394 0.18675 0.42389 0.0
H682 H 0.54312 0.24906 0.45832 0.0
H683 H 0.60601 0.24053 0.41283 0.0
H684 H 0.6073 0.32785 0.38453 0.0
H685 H 0.58514 0.27337 0.39374 0.0
H686 H 0.59973 0.29856 0.46278 0.0
H687 H 0.62213 0.35275 0.4537 0.0
C688 C 0.53935 0.20493 0.4568 0.0
C689 C 0.55081 0.18701 0.44742 0.0
C690 C 0.55214 0.23564 0.45066 0.0
C691 C 0.5763 0.24889 0.43478 0.0
C692 C 0.58729 0.23078 0.42503 0.0
C693 C 0.57485 0.20018 0.43144 0.0
C694 C 0.60589 0.32171 0.40165 0.0
C695 C 0.61643 0.34454 0.41839 0.0
C696 C 0.59333 0.29062 0.4069 0.0
C697 C 0.59058 0.28182 0.42897 0.0
C698 C 0.60128 0.30469 0.44564 0.0
C699 C 0.61427 0.33572 0.44042 0.0
H700 H 0.44309 0.60066 0.63925 0.0
H701 H 0.4303 0.55437 0.57655 0.0
H702 H 0.40114 0.61178 0.6287 0.0
H703 H 0.389 0.56577 0.56589 0.0
H704 H 0.28738 0.54797 0.56834 0.0
H705 H 0.334 0.54468 0.57821 0.0
H706 H 0.38377 0.63913 0.6031 0.0
H707 H 0.33637 0.64248 0.59344 0.0
C708 C 0.4318 0.59348 0.62305 0.0
C709 C 0.43953 0.57623 0.60884 0.0
C710 C 0.40783 0.59984 0.61701 0.0
C711 C 0.39131 0.58913 0.59662 0.0
C712 C 0.40065 0.57364 0.58194 0.0
C713 C 0.42436 0.56718 0.588 0.0
C714 C 0.30812 0.56817 0.57593 0.0
C715 C 0.308 0.59556 0.58001 0.0
C716 C 0.33506 0.56632 0.58143 0.0
C717 C 0.36281 0.59178 0.59116 0.0
C718 C 0.36272 0.6191 0.59564 0.0
C719 C 0.33559 0.62102 0.59005 0.0
H720 H 0.87763 0.3377 0.79177 0.0
H721 H 0.86529 0.40939 0.76439 0.0
H722 H 0.8215 0.29925 0.78251 0.0
H723 H 0.80882 0.37067 0.75492 0.0
H724 H 0.70047 0.29502 0.76062 0.0
H725 H 0.75596 0.33498 0.77096 0.0
H726 H 0.7891 0.27448 0.74972 0.0
H727 H 0.73396 0.23449 0.73983 0.0
C728 C 0.86296 0.34519 0.78357 0.0
C729 C 0.876 0.37652 0.77855 0.0
C730 C 0.83077 0.32314 0.77827 0.0
C731 C 0.81075 0.33182 0.76776 0.0
C732 C 0.82354 0.36327 0.76316 0.0
C733 C 0.85586 0.38543 0.76853 0.0
C734 C 0.71958 0.29021 0.7582 0.0
C735 C 0.71261 0.26138 0.74952 0.0
C736 C 0.75142 0.31321 0.76401 0.0
C737 C 0.77693 0.30785 0.76129 0.0
C738 C 0.76995 0.27917 0.75242 0.0
C739 C 0.73825 0.25624 0.74665 0.0
H740 H 0.39523 0.82092 0.93405 0.0
H741 H 0.49807 0.86253 0.94649 0.0
H742 H 0.39163 0.7724 0.92269 0.0
H743 H 0.49447 0.81506 0.93407 0.0
H744 H 0.48075 0.73893 0.88607 0.0
H745 H 0.47615 0.78394 0.89421 0.0
H746 H 0.40775 0.73341 0.94492 0.0
H747 H 0.41267 0.68839 0.93712 0.0
C748 C 0.41698 0.81981 0.93435 0.0
C749 C 0.44704 0.84584 0.94082 0.0
C750 C 0.4149 0.79219 0.92773 0.0
C751 C 0.44291 0.79047 0.92718 0.0
C752 C 0.47271 0.81619 0.93391 0.0
C753 C 0.47472 0.84342 0.94088 0.0
C754 C 0.46438 0.73725 0.89873 0.0
C755 C 0.44737 0.71038 0.91116 0.0
C756 C 0.46175 0.76293 0.90334 0.0
C757 C 0.44163 0.7619 0.92016 0.0
C758 C 0.42322 0.73451 0.93178 0.0
C759 C 0.42626 0.70896 0.92742 0.0
H760 H 0.62468 0.43764 0.10402 0.0
H761 H 0.71786 0.52228 0.11342 0.0
H762 H 0.65193 0.41099 0.09157 0.0
H763 H 0.74446 0.49592 0.09972 0.0
H764 H 0.77418 0.44475 0.05121 0.0
H765 H 0.74179 0.46734 0.06086 0.0
H766 H 0.69648 0.40071 0.11216 0.0
H767 H 0.7294 0.37839 0.1029 0.0
C768 C 0.65085 0.45061 0.10348 0.0
C769 C 0.66899 0.48223 0.10973 0.0
C770 C 0.66634 0.43535 0.09619 0.0
C771 C 0.70013 0.45158 0.09456 0.0
C772 C 0.71828 0.48311 0.10054 0.0
C773 C 0.70294 0.4982 0.10826 0.0
C774 C 0.75698 0.43462 0.06433 0.0
C775 C 0.7544 0.40996 0.07641 0.0
C776 C 0.7386 0.44761 0.06987 0.0
C777 C 0.71687 0.43573 0.08725 0.0
C778 C 0.71304 0.4101 0.09862 0.0
C779 C 0.73191 0.39747 0.09338 0.0
H780 H 0.43252 0.86023 0.50396 0.0
H781 H 0.38108 0.88366 0.55023 0.0
H782 H 0.4023 0.80674 0.5158 0.0
H783 H 0.34946 0.82984 0.56106 0.0
H784 H 0.31264 0.73445 0.58837 0.0
H785 H 0.34955 0.78888 0.57978 0.0
H786 H 0.34941 0.76283 0.51182 0.0
H787 H 0.31364 0.70866 0.52058 0.0
C788 C 0.41492 0.85408 0.51676 0.0
C789 C 0.40917 0.87637 0.52601 0.0
C790 C 0.39723 0.82323 0.52335 0.0
C791 C 0.37314 0.81375 0.53928 0.0
C792 C 0.36797 0.83621 0.54891 0.0
C793 C 0.38581 0.86709 0.54243 0.0
C794 C 0.32078 0.7404 0.57166 0.0
C795 C 0.31017 0.71723 0.55517 0.0
C796 C 0.34179 0.77163 0.56667 0.0
C797 C 0.35249 0.78041 0.54506 0.0
C798 C 0.34221 0.75705 0.52871 0.0
C799 C 0.32145 0.7259 0.53372 0.0
H800 H 0.53149 0.366 0.67366 0.0
H801 H 0.63207 0.43725 0.6851 0.0
H802 H 0.54254 0.32732 0.6873 0.0
H803 H 0.64316 0.39773 0.69743 0.0
H804 H 0.64003 0.29945 0.68955 0.0
H805 H 0.63367 0.34196 0.67695 0.0
H806 H 0.56663 0.32403 0.72898 0.0
H807 H 0.57354 0.2822 0.742 0.0
C808 C 0.55591 0.37356 0.67913 0.0
C809 C 0.58076 0.405 0.67854 0.0
C810 C 0.5622 0.35128 0.68676 0.0
C811 C 0.59359 0.35974 0.69347 0.0
C812 C 0.61876 0.39079 0.69226 0.0
C813 C 0.61237 0.4133 0.68506 0.0
C814 C 0.62421 0.30484 0.69842 0.0
C815 C 0.60721 0.28754 0.71672 0.0
C816 C 0.62071 0.32915 0.69126 0.0
C817 C 0.59962 0.33599 0.70202 0.0
C818 C 0.58297 0.31901 0.72045 0.0
C819 C 0.58701 0.29521 0.7279 0.0
H820 H 0.18975 0.49718 0.88253 0.0
H821 H 0.22176 0.55623 0.82612 0.0
H822 H 0.24579 0.51371 0.89173 0.0
H823 H 0.2777 0.57229 0.83495 0.0
H824 H 0.374 0.62188 0.87315 0.0
H825 H 0.31845 0.60322 0.8621 0.0
H826 H 0.29116 0.51022 0.8797 0.0
H827 H 0.34684 0.52907 0.89148 0.0
C828 C 0.20881 0.51351 0.87202 0.0
C829 C 0.20156 0.52566 0.85375 0.0
C830 C 0.24085 0.52284 0.87719 0.0
C831 C 0.26621 0.54434 0.86408 0.0
C832 C 0.25879 0.55612 0.84561 0.0
C833 C 0.22681 0.54697 0.84055 0.0
C834 C 0.35629 0.59738 0.87453 0.0
C835 C 0.36492 0.57699 0.88328 0.0
C836 C 0.3244 0.58665 0.86807 0.0
C837 C 0.30035 0.55524 0.87004 0.0
C838 C 0.30906 0.53466 0.8783 0.0
C839 C 0.34101 0.54543 0.8849 0.0
H840 H 0.58689 0.15979 0.03937 0.0
H841 H 0.64343 0.14074 0.99463 0.0
H842 H 0.63452 0.21094 0.04785 0.0
H843 H 0.69085 0.19147 0.00328 0.0
H844 H 0.7739 0.26135 0.04945 0.0
H845 H 0.72522 0.21364 0.0373 0.0
H846 H 0.67443 0.26255 0.03091 0.0
H847 H 0.72328 0.31061 0.04323 0.0
C848 C 0.60933 0.16667 0.03115 0.0
C849 C 0.61158 0.14607 0.01663 0.0
C850 C 0.63654 0.19591 0.03598 0.0
C851 C 0.66643 0.20496 0.02641 0.0
C852 C 0.66827 0.18484 0.01122 0.0
C853 C 0.64114 0.15578 0.00634 0.0
C854 C 0.75247 0.26208 0.04536 0.0
C855 C 0.75252 0.28983 0.04731 0.0
C856 C 0.72462 0.23475 0.03827 0.0
C857 C 0.6961 0.23444 0.03312 0.0
C858 C 0.69608 0.26215 0.03491 0.0
C859 C 0.7241 0.28966 0.04181 0.0
H860 H 0.59166 0.71007 0.1753 0.0
H861 H 0.50225 0.6381 0.20281 0.0
H862 H 0.57802 0.74859 0.18564 0.0
H863 H 0.48852 0.67663 0.213 0.0
H864 H 0.45952 0.74881 0.20847 0.0
H865 H 0.47368 0.71148 0.19612 0.0
H866 H 0.57225 0.7731 0.21897 0.0
H867 H 0.55833 0.81076 0.23112 0.0
C868 C 0.56921 0.70248 0.18371 0.0
C869 C 0.5481 0.67097 0.1883 0.0
C870 C 0.56138 0.72457 0.1896 0.0
C871 C 0.53219 0.71569 0.20014 0.0
C872 C 0.51098 0.68418 0.2046 0.0
C873 C 0.51885 0.66208 0.19877 0.0
C874 C 0.48431 0.7546 0.21073 0.0
C875 C 0.50776 0.78288 0.22085 0.0
C876 C 0.49234 0.73304 0.20378 0.0
C877 C 0.52403 0.73921 0.20669 0.0
C878 C 0.54768 0.76775 0.21632 0.0
C879 C 0.53964 0.78931 0.22335 0.0
H880 H 0.8798 0.43991 0.36894 0.0
H881 H 0.89405 0.51801 0.33154 0.0
H882 H 0.82843 0.43205 0.38212 0.0
H883 H 0.84328 0.51044 0.34493 0.0
H884 H 0.77789 0.51438 0.39641 0.0
H885 H 0.82602 0.5174 0.38203 0.0
H886 H 0.77201 0.41864 0.36911 0.0
H887 H 0.72336 0.41536 0.38365 0.0
C888 C 0.87179 0.45511 0.36331 0.0
C889 C 0.89126 0.47988 0.34946 0.0
C890 C 0.84244 0.45064 0.37088 0.0
C891 C 0.83213 0.47093 0.3648 0.0
C892 C 0.85096 0.49485 0.35027 0.0
C893 C 0.88008 0.49921 0.34264 0.0
C894 C 0.7761 0.49319 0.3906 0.0
C895 C 0.74659 0.46463 0.39111 0.0
C896 C 0.80372 0.495 0.38222 0.0
C897 C 0.80269 0.46831 0.37425 0.0
C898 C 0.77349 0.43957 0.37519 0.0
C899 C 0.74564 0.43776 0.38343 0.0
H900 H 0.10019 0.52154 0.41966 0.0
H901 H 0.05691 0.57386 0.4398 0.0
H902 H 0.1345 0.53923 0.45236 0.0
H903 H 0.09169 0.59193 0.47288 0.0
H904 H 0.14043 0.59568 0.53963 0.0
H905 H 0.10324 0.57716 0.50767 0.0
H906 H 0.17977 0.58451 0.46719 0.0
H907 H 0.21605 0.60176 0.49927 0.0
C908 C 0.09747 0.53628 0.4314 0.0
C909 C 0.07551 0.54596 0.42731 0.0
C910 C 0.11746 0.54674 0.45011 0.0
C911 C 0.11587 0.56693 0.46541 0.0
C912 C 0.09331 0.57608 0.46161 0.0
C913 C 0.07347 0.56585 0.44264 0.0
C914 C 0.14898 0.59308 0.52384 0.0
C915 C 0.18052 0.59895 0.52189 0.0
C916 C 0.12788 0.58274 0.50553 0.0
C917 C 0.13832 0.57889 0.48487 0.0
C918 C 0.17053 0.58629 0.48291 0.0
C919 C 0.19137 0.59622 0.50123 0.0
H920 H 0.49916 0.01828 0.61662 0.0
H921 H 0.48931 0.09097 0.58835 0.0
H922 H 0.52105 0.0495 0.65081 0.0
H923 H 0.51183 0.12213 0.62205 0.0
H924 H 0.52414 0.11717 0.71241 0.0
H925 H 0.49732 0.08055 0.68115 0.0
H926 H 0.57574 0.14195 0.63944 0.0
H927 H 0.60278 0.17791 0.67065 0.0
C928 C 0.50123 0.04064 0.61785 0.0
C929 C 0.49233 0.05213 0.59993 0.0
C930 C 0.51368 0.05839 0.63731 0.0
C931 C 0.51807 0.08807 0.63885 0.0
C932 C 0.50853 0.09923 0.62117 0.0
C933 C 0.4955 0.08132 0.60198 0.0
C934 C 0.53569 0.12244 0.69659 0.0
C935 C 0.56579 0.14973 0.6939 0.0
C936 C 0.52047 0.10162 0.67884 0.0
C937 C 0.53469 0.10856 0.65809 0.0
C938 C 0.56449 0.13616 0.65537 0.0
C939 C 0.57995 0.15655 0.67316 0.0
H940 H 0.54392 0.62485 0.73845 0.0
H941 H 0.47047 0.52836 0.74632 0.0
H942 H 0.54045 0.6348 0.77726 0.0
H943 H 0.46534 0.53873 0.78462 0.0
H944 H 0.48238 0.55773 0.85713 0.0
H945 H 0.49258 0.5499 0.81916 0.0
H946 H 0.50654 0.63897 0.80272 0.0
H947 H 0.49774 0.64731 0.84066 0.0
C948 C 0.52681 0.60582 0.74839 0.0
C949 C 0.5074 0.57583 0.7392 0.0
C950 C 0.52461 0.61158 0.77063 0.0
C951 C 0.50272 0.58754 0.78416 0.0
C952 C 0.48291 0.5577 0.77484 0.0
C953 C 0.48535 0.55188 0.75269 0.0
C954 C 0.48811 0.57581 0.84546 0.0
C955 C 0.48907 0.60305 0.85193 0.0
C956 C 0.49366 0.57122 0.82364 0.0
C957 C 0.49991 0.5936 0.80776 0.0
C958 C 0.50213 0.62135 0.81448 0.0
C959 C 0.49697 0.62609 0.8363 0.0
H960 H 0.90279 0.37147 0.90088 0.0
H961 H 0.97309 0.46609 0.92043 0.0
H962 H 0.88431 0.36037 0.9388 0.0
H963 H 0.95417 0.45512 0.95802 0.0
H964 H 0.88058 0.43155 0.01358 0.0
H965 H 0.9029 0.44223 0.97686 0.0
H966 H 0.90485 0.35784 0.97707 0.0
H967 H 0.88241 0.34698 0.014 0.0
C968 C 0.91431 0.38986 0.91323 0.0
C969 C 0.93901 0.4198 0.90752 0.0
C970 C 0.90381 0.38348 0.93493 0.0
C971 C 0.9177 0.40694 0.95132 0.0
C972 C 0.94266 0.43672 0.94567 0.0
C973 C 0.9533 0.44303 0.92408 0.0
C974 C 0.88599 0.41535 0.00592 0.0
C975 C 0.87964 0.38837 0.01673 0.0
C976 C 0.8989 0.42156 0.9849 0.0
C977 C 0.90548 0.4008 0.97408 0.0
C978 C 0.89971 0.37408 0.98497 0.0
C979 C 0.88714 0.36803 0.00617 0.0
H980 H 0.55262 0.00493 0.10774 0.0
H981 H 0.45429 0.93355 0.09113 0.0
H982 H 0.54913 0.9796 0.14248 0.0
H983 H 0.45104 0.90727 0.12506 0.0
H984 H 0.44279 0.87838 0.19509 0.0
H985 H 0.44713 0.9082 0.16295 0.0
H986 H 0.54792 0.93662 0.15754 0.0
H987 H 0.54384 0.90796 0.19052 0.0
C988 C 0.53026 0.98384 0.11163 0.0
C989 C 0.50357 0.97141 0.09701 0.0
C990 C 0.52829 0.96911 0.1314 0.0
C991 C 0.49976 0.94129 0.13674 0.0
C992 C 0.47314 0.929 0.12193 0.0
C993 C 0.47496 0.94399 0.10241 0.0
C994 C 0.46591 0.89104 0.18706 0.0
C995 C 0.49292 0.89061 0.19527 0.0
C996 C 0.46839 0.90807 0.1685 0.0
C997 C 0.49781 0.9247 0.15736 0.0
C998 C 0.52496 0.92453 0.16578 0.0
C999 C 0.5226 0.9079 0.18462 0.0
H1000 H 0.57875 0.5002 0.25145 0.0
H1001 H 0.62762 0.59173 0.28143 0.0
H1002 H 0.59275 0.48046 0.28317 0.0
H1003 H 0.64049 0.5718 0.31384 0.0
H1004 H 0.69178 0.53651 0.35572 0.0
H1005 H 0.67556 0.5547 0.3242 0.0
H1006 H 0.58389 0.46765 0.32051 0.0
H1007 H 0.60084 0.449 0.35153 0.0
C1008 C 0.59175 0.51592 0.26515 0.0
C1009 C 0.60203 0.54748 0.26405 0.0
C1010 C 0.5998 0.5046 0.28337 0.0
C1011 C 0.61797 0.52452 0.30108 0.0
C1012 C 0.62712 0.5559 0.3003 0.0
C1013 C 0.61949 0.56732 0.28188 0.0
C1014 C 0.66826 0.52115 0.34806 0.0
C1015 C 0.64763 0.49128 0.35608 0.0
C1016 C 0.65878 0.53171 0.33011 0.0
C1017 C 0.62821 0.51284 0.31992 0.0
C1018 C 0.60775 0.48274 0.32776 0.0
C1019 C 0.61745 0.472 0.34556 0.0
H1020 H 0.50939 0.97835 0.38256 0.0
H1021 H 0.4381 0.88811 0.40609 0.0
H1022 H 0.50676 0.95551 0.34627 0.0
H1023 H 0.43567 0.86519 0.36978 0.0
H1024 H 0.45546 0.90295 0.27942 0.0
H1025 H 0.46047 0.92703 0.31576 0.0
H1026 H 0.47703 0.85924 0.34548 0.0
H1027 H 0.47258 0.83567 0.30917 0.0
C1028 C 0.49338 0.95358 0.37997 0.0
C1029 C 0.47407 0.93487 0.39708 0.0
C1030 C 0.49172 0.94062 0.35923 0.0
C1031 C 0.47104 0.90866 0.35532 0.0
C1032 C 0.45195 0.88989 0.37248 0.0
C1033 C 0.45321 0.90294 0.39314 0.0
C1034 C 0.4606 0.89361 0.29376 0.0
C1035 C 0.46461 0.86818 0.29162 0.0
C1036 C 0.46345 0.90728 0.31445 0.0
C1037 C 0.46917 0.89495 0.33334 0.0
C1038 C 0.47253 0.8691 0.33117 0.0
C1039 C 0.47031 0.85585 0.31046 0.0
H1040 H 0.60209 0.54167 0.54287 0.0
H1041 H 0.50546 0.48522 0.515 0.0
H1042 H 0.62374 0.52831 0.51192 0.0
H1043 H 0.52721 0.47079 0.48421 0.0
H1044 H 0.58114 0.46732 0.42385 0.0
H1045 H 0.55998 0.487 0.45188 0.0
H1046 H 0.62335 0.48281 0.50057 0.0
H1047 H 0.64488 0.46413 0.47234 0.0
C1048 C 0.58549 0.52706 0.52984 0.0
C1049 C 0.55198 0.5146 0.53141 0.0
C1050 C 0.59793 0.51898 0.51221 0.0
C1051 C 0.57723 0.49818 0.4957 0.0
C1052 C 0.54388 0.48699 0.4966 0.0
C1053 C 0.53137 0.49511 0.5143 0.0
C1054 C 0.59062 0.471 0.44056 0.0
C1055 C 0.61537 0.46547 0.44595 0.0
C1056 C 0.57842 0.48203 0.45661 0.0
C1057 C 0.59027 0.4869 0.47842 0.0
C1058 C 0.61431 0.48018 0.48383 0.0
C1059 C 0.62666 0.46948 0.46774 0.0
H1060 H 0.04608 0.46951 0.68609 0.0
H1061 H 0.10689 0.55498 0.7226 0.0
H1062 H 0.08104 0.49093 0.65444 0.0
H1063 H 0.14239 0.57618 0.69128 0.0
H1064 H 0.18422 0.61369 0.62329 0.0
H1065 H 0.14792 0.59458 0.65446 0.0
H1066 H 0.1337 0.50356 0.64397 0.0
H1067 H 0.169 0.52229 0.61264 0.0
C1068 C 0.06685 0.49293 0.68728 0.0
C1069 C 0.07362 0.5106 0.70676 0.0
C1070 C 0.08706 0.50517 0.66923 0.0
C1071 C 0.11478 0.53525 0.67033 0.0
C1072 C 0.12108 0.55314 0.68969 0.0
C1073 C 0.10069 0.54099 0.70766 0.0
C1074 C 0.17351 0.58966 0.62775 0.0
C1075 C 0.17947 0.56954 0.61535 0.0
C1076 C 0.1527 0.57869 0.64564 0.0
C1077 C 0.1375 0.54739 0.65161 0.0
C1078 C 0.14424 0.52758 0.63955 0.0
C1079 C 0.1648 0.53845 0.62165 0.0
H1080 H 0.49739 0.0739 0.88317 0.0
H1081 H 0.59582 0.1315 0.90796 0.0
H1082 H 0.51439 0.09658 0.84711 0.0
H1083 H 0.61286 0.15303 0.87145 0.0
H1084 H 0.63073 0.1476 0.79614 0.0
H1085 H 0.61411 0.12879 0.83339 0.0
H1086 H 0.53912 0.15065 0.82924 0.0
H1087 H 0.55586 0.16983 0.79214 0.0
C1088 C 0.52253 0.09178 0.88112 0.0
C1089 C 0.54519 0.10089 0.89862 0.0
C1090 C 0.53226 0.10456 0.86036 0.0
C1091 C 0.56494 0.12636 0.85651 0.0
C1092 C 0.58756 0.13594 0.87397 0.0
C1093 C 0.57777 0.12354 0.89485 0.0
C1094 C 0.61069 0.14838 0.80316 0.0
C1095 C 0.59462 0.16021 0.79119 0.0
C1096 C 0.60136 0.13783 0.82452 0.0
C1097 C 0.57543 0.1384 0.83415 0.0
C1098 C 0.55914 0.14991 0.82214 0.0
C1099 C 0.56881 0.16096 0.80095 0.0
H1100 H 0.48734 0.58522 0.06589 0.0
H1101 H 0.58936 0.64818 0.05498 0.0
H1102 H 0.475 0.59313 0.02889 0.0
H1103 H 0.57675 0.65854 0.01856 0.0
H1104 H 0.54713 0.64297 0.94559 0.0
H1105 H 0.56149 0.63778 0.98334 0.0
H1106 H 0.4706 0.62519 0.00529 0.0
H1107 H 0.4557 0.62776 0.96754 0.0
C1108 C 0.50717 0.60109 0.05569 0.0
C1109 C 0.53938 0.6158 0.06346 0.0
C1110 C 0.50004 0.60604 0.03445 0.0
C1111 C 0.52486 0.62646 0.02048 0.0
C1112 C 0.557 0.64217 0.02858 0.0
C1113 C 0.5642 0.63671 0.04972 0.0
C1114 C 0.53036 0.63883 0.95863 0.0
C1115 C 0.50004 0.63477 0.95385 0.0
C1116 C 0.53862 0.63624 0.98029 0.0
C1117 C 0.51709 0.63072 0.99753 0.0
C1118 C 0.48743 0.62837 0.99254 0.0
C1119 C 0.4789 0.63005 0.97093 0.0
H1120 H 0.98301 0.45218 0.20949 0.0
H1121 H 0.89805 0.45061 0.23241 0.0
H1122 H 0.95874 0.43695 0.17251 0.0
H1123 H 0.8738 0.43546 0.19537 0.0
H1124 H 0.91699 0.4481 0.1054 0.0
H1125 H 0.94222 0.46213 0.14236 0.0
H1126 H 0.85381 0.38821 0.16955 0.0
H1127 H 0.82895 0.37425 0.13274 0.0
C1128 C 0.95901 0.44828 0.20662 0.0
C1129 C 0.94221 0.45229 0.22379 0.0
C1130 C 0.94532 0.43989 0.18546 0.0
C1131 C 0.91447 0.43508 0.18114 0.0
C1132 C 0.89755 0.43884 0.19834 0.0
C1133 C 0.91142 0.44762 0.21945 0.0
C1134 C 0.90327 0.43479 0.11933 0.0
C1135 C 0.87151 0.40966 0.11636 0.0
C1136 C 0.91759 0.44271 0.14038 0.0
C1137 C 0.8999 0.42619 0.15875 0.0
C1138 C 0.8679 0.4014 0.15569 0.0
C1139 C 0.85383 0.39324 0.13468 0.0
loop_
_geom_bond_atom_site_label_1
_geom_bond_atom_site_label_2
_geom_bond_distance
_geom_bond_site_symmetry_2
_ccdc_geom_bond_type
H0 O26 0.856 . S
H1 O29 0.854 . S
H2 C37 0.930 1_455 S
H3 C38 0.930 . S
H4 C40 0.930 . S
H5 C41 0.930 . S
H6 C43 0.931 . S
H7 C44 0.930 . S
H8 C46 0.930 . S
H9 C47 0.929 . S
H10 C49 0.930 . S
H11 C50 0.931 . S
H12 C52 0.930 . S
H13 C53 0.929 . S
H14 C55 0.931 . S
H15 C56 0.930 . S
H16 C58 0.930 . S
H17 C59 0.932 . S
H18 C61 0.930 . S
H19 C62 0.929 . S
H20 C64 0.931 . S
H21 C65 0.930 . S
H22 C67 0.929 . S
H23 C68 0.931 . S
H24 C70 0.930 . S
H25 C71 0.928 1_455 S
O26 H0 0.856 . S
O26 C72 1.300 . S
O27 C72 1.209 . S
O28 C73 1.199 . S
O29 H1 0.854 . S
O29 C73 1.297 . S
C30 C31 1.404 . S
C30 C35 1.397 . S
C30 C36 1.492 . S
C31 C30 1.404 . S
C31 C32 1.396 . S
C31 C42 1.492 . S
C32 C31 1.396 . S
C32 C33 1.397 . S
C32 C48 1.509 . S
C33 C32 1.397 . S
C33 C34 1.412 . S
C33 C54 1.485 . S
C34 C33 1.412 . S
C34 C35 1.388 . S
C34 C60 1.490 . S
C35 C30 1.397 . S
C35 C34 1.388 . S
C35 C66 1.519 1_455 S
C36 C30 1.492 . S
C36 C37 1.363 1_455 S
C36 C41 1.390 1_455 S
C37 H2 0.930 1_655 S
C37 C36 1.363 1_655 S
C37 C38 1.372 . S
C38 H3 0.930 . S
C38 C37 1.372 . S
C38 C39 1.383 . S
C39 C38 1.383 . S
C39 C40 1.395 . S
C40 H4 0.930 . S
C40 C39 1.395 . S
C40 C41 1.362 . S
C41 H5 0.930 . S
C41 C36 1.390 1_655 S
C41 C40 1.362 . S
C42 C31 1.492 . S
C42 C43 1.377 . S
C42 C47 1.397 . S
C43 H6 0.931 . S
C43 C42 1.377 . S
C43 C44 1.376 . S
C44 H7 0.930 . S
C44 C43 1.376 . S
C44 C45 1.376 . S
C45 C44 1.376 . S
C45 C46 1.378 . S
C45 C72 1.486 . S
C46 H8 0.930 . S
C46 C45 1.378 . S
C46 C47 1.376 . S
C47 H9 0.929 . S
C47 C42 1.397 . S
C47 C46 1.376 . S
C48 C32 1.509 . S
C48 C49 1.391 . S
C48 C53 1.386 . S
C49 H10 0.930 . S
C49 C48 1.391 . S
C49 C50 1.375 . S
C50 H11 0.931 . S
C50 C49 1.375 . S
C50 C51 1.375 . S
C51 C50 1.375 . S
C51 C52 1.361 . S
C52 H12 0.930 . S
C52 C51 1.361 . S
C52 C53 1.399 . S
C53 H13 0.929 . S
C53 C48 1.386 . S
C53 C52 1.399 . S
C54 C33 1.485 . S
C54 C55 1.394 . S
C54 C59 1.360 . S
C55 H14 0.931 . S
C55 C54 1.394 . S
C55 C56 1.372 . S
C56 H15 0.930 . S
C56 C55 1.372 . S
C56 C57 1.397 . S
C57 C56 1.397 . S
C57 C58 1.390 . S
C57 C73 1.476 . S
C58 H16 0.930 . S
C58 C57 1.390 . S
C58 C59 1.366 . S
C59 H17 0.932 . S
C59 C54 1.360 . S
C59 C58 1.366 . S
C60 C34 1.490 . S
C60 C61 1.380 . S
C60 C65 1.386 . S
C61 H18 0.930 . S
C61 C60 1.380 . S
C61 C62 1.381 . S
C62 H19 0.929 . S
C62 C61 1.381 . S
C62 C63 1.371 . S
C63 C62 1.371 . S
C63 C64 1.380 . S
C64 H20 0.931 . S
C64 C63 1.380 . S
C64 C65 1.387 . S
C65 H21 0.930 . S
C65 C60 1.386 . S
C65 C64 1.387 . S
C66 C35 1.519 1_655 S
C66 C67 1.377 . S
C66 C71 1.361 . S
C67 H22 0.929 . S
C67 C66 1.377 . S
C67 C68 1.386 . S
C68 H23 0.931 . S
C68 C67 1.386 . S
C68 C69 1.363 . S
C69 C68 1.363 . S
C69 C70 1.385 . S
C70 H24 0.930 . S
C70 C69 1.385 . S
C70 C71 1.396 . S
C71 H25 0.928 1_655 S
C71 C66 1.361 . S
C71 C70 1.396 . S
C72 O26 1.300 . S
C72 O27 1.209 . S
C72 C45 1.486 . S
C73 O28 1.199 . S
C73 O29 1.297 . S
C73 C57 1.476 . S
H74 O100 0.856 . S
H75 O103 0.854 . S
H76 C111 0.930 . S
H77 C112 0.930 . S
H78 C114 0.930 . S
H79 C115 0.930 . S
H80 C117 0.931 . S
H81 C118 0.930 . S
H82 C120 0.930 . S
H83 C121 0.929 . S
H84 C123 0.930 . S
H85 C124 0.931 . S
H86 C126 0.930 . S
H87 C127 0.929 . S
H88 C129 0.931 . S
H89 C130 0.930 . S
H90 C132 0.930 . S
H91 C133 0.932 . S
H92 C135 0.930 . S
H93 C136 0.929 . S
H94 C138 0.931 . S
H95 C139 0.930 . S
H96 C141 0.929 . S
H97 C142 0.931 . S
H98 C144 0.930 . S
H99 C145 0.912 1_545 S
O100 H74 0.856 . S
O100 C146 1.300 . S
O101 C146 1.209 . S
O102 C147 1.199 . S
O103 H75 0.854 . S
O103 C147 1.297 . S
C104 C105 1.404 . S
C104 C109 1.397 . S
C104 C110 1.492 . S
C105 C104 1.404 . S
C105 C106 1.396 . S
C105 C116 1.492 . S
C106 C105 1.396 . S
C106 C107 1.397 . S
C106 C122 1.509 . S
C107 C106 1.397 . S
C107 C108 1.412 . S
C107 C128 1.485 . S
C108 C107 1.412 . S
C108 C109 1.388 . S
C108 C134 1.490 . S
C109 C104 1.397 . S
C109 C108 1.388 . S
C109 C140 1.506 1_545 S
C110 C104 1.492 . S
C110 C111 1.363 . S
C110 C115 1.390 1_545 S
C111 H76 0.930 . S
C111 C110 1.363 . S
C111 C112 1.372 1_545 S
C112 H77 0.930 . S
C112 C111 1.372 1_565 S
C112 C113 1.383 . S
C113 C112 1.383 . S
C113 C114 1.395 . S
C114 H78 0.930 . S
C114 C113 1.395 . S
C114 C115 1.362 . S
C115 H79 0.930 . S
C115 C110 1.390 1_565 S
C115 C114 1.362 . S
C116 C105 1.492 . S
C116 C117 1.377 . S
C116 C121 1.397 . S
C117 H80 0.931 . S
C117 C116 1.377 . S
C117 C118 1.376 . S
C118 H81 0.930 . S
C118 C117 1.376 . S
C118 C119 1.376 . S
C119 C118 1.376 . S
C119 C120 1.378 . S
C119 C146 1.486 . S
C120 H82 0.930 . S
C120 C119 1.378 . S
C120 C121 1.376 . S
C121 H83 0.929 . S
C121 C116 1.397 . S
C121 C120 1.376 . S
C122 C106 1.509 . S
C122 C123 1.391 . S
C122 C127 1.386 . S
C123 H84 0.930 . S
C123 C122 1.391 . S
C123 C124 1.375 . S
C124 H85 0.931 . S
C124 C123 1.375 . S
C124 C125 1.375 . S
C125 C124 1.375 . S
C125 C126 1.361 . S
C126 H86 0.930 . S
C126 C125 1.361 . S
C126 C127 1.399 . S
C127 H87 0.929 . S
C127 C122 1.386 . S
C127 C126 1.399 . S
C128 C107 1.485 . S
C128 C129 1.394 . S
C128 C133 1.360 . S
C129 H88 0.931 . S
C129 C128 1.394 . S
C129 C130 1.372 . S
C130 H89 0.930 . S
C130 C129 1.372 . S
C130 C131 1.397 . S
C131 C130 1.397 . S
C131 C132 1.390 . S
C131 C147 1.476 . S
C132 H90 0.930 . S
C132 C131 1.390 . S
C132 C133 1.366 . S
C133 H91 0.932 . S
C133 C128 1.360 . S
C133 C132 1.366 . S
C134 C108 1.490 . S
C134 C135 1.380 . S
C134 C139 1.386 . S
C135 H92 0.930 . S
C135 C134 1.380 . S
C135 C136 1.381 . S
C136 H93 0.929 . S
C136 C135 1.381 . S
C136 C137 1.371 . S
C137 C136 1.371 . S
C137 C138 1.380 . S
C138 H94 0.931 . S
C138 C137 1.380 . S
C138 C139 1.387 . S
C139 H95 0.930 . S
C139 C134 1.386 . S
C139 C138 1.387 . S
C140 C109 1.506 1_565 S
C140 C141 1.391 . S
C140 C145 1.360 . S
C141 H96 0.929 . S
C141 C140 1.391 . S
C141 C142 1.386 . S
C142 H97 0.931 . S
C142 C141 1.386 . S
C142 C143 1.363 . S
C143 C142 1.363 . S
C143 C144 1.385 . S
C144 H98 0.930 . S
C144 C143 1.385 . S
C144 C145 1.396 . S
C145 H99 0.912 1_565 S
C145 C140 1.360 . S
C145 C144 1.396 . S
C146 O100 1.300 . S
C146 O101 1.209 . S
C146 C119 1.486 . S
C147 O102 1.199 . S
C147 O103 1.297 . S
C147 C131 1.476 . S
H148 O174 0.856 . S
H149 O177 0.854 . S
H150 C185 0.930 . S
H151 C186 0.930 . S
H152 C188 0.930 . S
H153 C189 0.930 . S
H154 C191 0.931 . S
H155 C192 0.930 . S
H156 C194 0.930 . S
H157 C195 0.929 . S
H158 C197 0.930 . S
H159 C198 0.931 . S
H160 C200 0.930 . S
H161 C201 0.929 . S
H162 C203 0.931 . S
H163 C204 0.930 . S
H164 C206 0.930 . S
H165 C207 0.932 . S
H166 C209 0.930 . S
H167 C210 0.929 . S
H168 C212 0.931 . S
H169 C213 0.930 . S
H170 C215 0.929 . S
H171 C216 0.931 . S
H172 C218 0.930 . S
H173 C219 0.929 . S
O174 H148 0.856 . S
O174 C220 1.300 . S
O175 C220 1.209 . S
O176 C221 1.199 . S
O177 H149 0.854 . S
O177 C221 1.297 . S
C178 C179 1.404 . S
C178 C183 1.397 . S
C178 C184 1.492 . S
C179 C178 1.404 . S
C179 C180 1.396 . S
C179 C190 1.492 . S
C180 C179 1.396 . S
C180 C181 1.397 . S
C180 C196 1.509 . S
C181 C180 1.397 . S
C181 C182 1.412 . S
C181 C202 1.485 . S
C182 C181 1.412 . S
C182 C183 1.388 . S
C182 C208 1.490 . S
C183 C178 1.397 . S
C183 C182 1.388 . S
C183 C214 1.519 . S
C184 C178 1.492 . S
C184 C185 1.363 . S
C184 C189 1.390 . S
C185 H150 0.930 . S
C185 C184 1.363 . S
C185 C186 1.372 . S
C186 H151 0.930 . S
C186 C185 1.372 . S
C186 C187 1.383 . S
C187 C186 1.383 . S
C187 C188 1.395 . S
C188 H152 0.930 . S
C188 C187 1.395 . S
C188 C189 1.362 . S
C189 H153 0.930 . S
C189 C184 1.390 . S
C189 C188 1.362 . S
C190 C179 1.492 . S
C190 C191 1.377 . S
C190 C195 1.397 . S
C191 H154 0.931 . S
C191 C190 1.377 . S
C191 C192 1.376 . S
C192 H155 0.930 . S
C192 C191 1.376 . S
C192 C193 1.376 . S
C193 C192 1.376 . S
C193 C194 1.378 . S
C193 C220 1.486 . S
C194 H156 0.930 . S
C194 C193 1.378 . S
C194 C195 1.376 . S
C195 H157 0.929 . S
C195 C190 1.397 . S
C195 C194 1.376 . S
C196 C180 1.509 . S
C196 C197 1.391 . S
C196 C201 1.386 . S
C197 H158 0.930 . S
C197 C196 1.391 . S
C197 C198 1.375 . S
C198 H159 0.931 . S
C198 C197 1.375 . S
C198 C199 1.375 . S
C199 C198 1.375 . S
C199 C200 1.361 . S
C200 H160 0.930 . S
C200 C199 1.361 . S
C200 C201 1.399 . S
C201 H161 0.929 . S
C201 C196 1.386 . S
C201 C200 1.399 . S
C202 C181 1.485 . S
C202 C203 1.394 . S
C202 C207 1.360 . S
C203 H162 0.931 . S
C203 C202 1.394 . S
C203 C204 1.372 . S
C204 H163 0.930 . S
C204 C203 1.372 . S
C204 C205 1.397 . S
C205 C204 1.397 . S
C205 C206 1.390 . S
C205 C221 1.476 . S
C206 H164 0.930 . S
C206 C205 1.390 . S
C206 C207 1.366 . S
C207 H165 0.932 . S
C207 C202 1.360 . S
C207 C206 1.366 . S
C208 C182 1.490 . S
C208 C209 1.380 . S
C208 C213 1.386 . S
C209 H166 0.930 . S
C209 C208 1.380 . S
C209 C210 1.381 . S
C210 H167 0.929 . S
C210 C209 1.381 . S
C210 C211 1.371 . S
C211 C210 1.371 . S
C211 C212 1.380 . S
C212 H168 0.931 . S
C212 C211 1.380 . S
C212 C213 1.387 . S
C213 H169 0.930 . S
C213 C208 1.386 . S
C213 C212 1.387 . S
C214 C183 1.519 . S
C214 C215 1.377 . S
C214 C219 1.361 . S
C215 H170 0.929 . S
C215 C214 1.377 . S
C215 C216 1.386 . S
C216 H171 0.931 . S
C216 C215 1.386 . S
C216 C217 1.363 . S
C217 C216 1.363 . S
C217 C218 1.385 . S
C218 H172 0.930 . S
C218 C217 1.385 . S
C218 C219 1.396 . S
C219 H173 0.929 . S
C219 C214 1.361 . S
C219 C218 1.396 . S
C220 O174 1.300 . S
C220 O175 1.209 . S
C220 C193 1.486 . S
C221 O176 1.199 . S
C221 O177 1.297 . S
C221 C205 1.476 . S
H222 O248 0.856 . S
H223 O251 0.854 . S
H224 C259 0.930 1_455 S
H225 C260 0.930 . S
H226 C262 0.930 . S
H227 C263 0.930 . S
H228 C265 0.931 . S
H229 C266 0.930 . S
H230 C268 0.930 . S
H231 C269 0.929 . S
H232 C271 0.930 . S
H233 C272 0.931 . S
H234 C274 0.930 . S
H235 C275 0.929 . S
H236 C277 0.931 . S
H237 C278 0.930 . S
H238 C280 0.930 . S
H239 C281 0.932 . S
H240 C283 0.930 . S
H241 C284 0.929 . S
H242 C286 0.931 . S
H243 C287 0.930 . S
H244 C289 0.929 . S
H245 C290 0.931 . S
H246 C292 0.930 . S
H247 C293 0.959 . S
O248 H222 0.856 . S
O248 C294 1.300 . S
O249 C294 1.209 . S
O250 C295 1.199 . S
O251 H223 0.854 . S
O251 C295 1.297 . S
C252 C253 1.404 . S
C252 C257 1.397 . S
C252 C258 1.492 . S
C253 C252 1.404 . S
C253 C254 1.396 . S
C253 C264 1.492 . S
C254 C253 1.396 . S
C254 C255 1.397 . S
C254 C270 1.509 . S
C255 C254 1.397 . S
C255 C256 1.412 . S
C255 C276 1.485 . S
C256 C255 1.412 . S
C256 C257 1.388 . S
C256 C282 1.490 . S
C257 C252 1.397 . S
C257 C256 1.388 . S
C257 C288 1.519 1_455 S
C258 C252 1.492 . S
C258 C259 1.363 1_455 S
C258 C263 1.390 1_455 S
C259 H224 0.930 1_655 S
C259 C258 1.363 1_655 S
C259 C260 1.372 . S
C260 H225 0.930 . S
C260 C259 1.372 . S
C260 C261 1.383 . S
C261 C260 1.383 . S
C261 C262 1.395 . S
C262 H226 0.930 . S
C262 C261 1.395 . S
C262 C263 1.362 . S
C263 H227 0.930 . S
C263 C258 1.390 1_655 S
C263 C262 1.362 . S
C264 C253 1.492 . S
C264 C265 1.377 . S
C264 C269 1.397 . S
C265 H228 0.931 . S
C265 C264 1.377 . S
C265 C266 1.376 . S
C266 H229 0.930 . S
C266 C265 1.376 . S
C266 C267 1.376 . S
C267 C266 1.376 . S
C267 C268 1.378 . S
C267 C294 1.486 . S
C268 H230 0.930 . S
C268 C267 1.378 . S
C268 C269 1.376 . S
C269 H231 0.929 . S
C269 C264 1.397 . S
C269 C268 1.376 . S
C270 C254 1.509 . S
C270 C271 1.391 . S
C270 C275 1.386 . S
C271 H232 0.930 . S
C271 C270 1.391 . S
C271 C272 1.375 . S
C272 H233 0.931 . S
C272 C271 1.375 . S
C272 C273 1.375 . S
C273 C272 1.375 . S
C273 C274 1.361 . S
C274 H234 0.930 . S
C274 C273 1.361 . S
C274 C275 1.399 . S
C275 H235 0.929 . S
C275 C270 1.386 . S
C275 C274 1.399 . S
C276 C255 1.485 . S
C276 C277 1.394 . S
C276 C281 1.360 . S
C277 H236 0.931 . S
C277 C276 1.394 . S
C277 C278 1.372 . S
C278 H237 0.930 . S
C278 C277 1.372 . S
C278 C279 1.397 . S
C279 C278 1.397 . S
C279 C280 1.390 . S
C279 C295 1.476 . S
C280 H238 0.930 . S
C280 C279 1.390 . S
C280 C281 1.366 . S
C281 H239 0.932 . S
C281 C276 1.360 . S
C281 C280 1.366 . S
C282 C256 1.490 . S
C282 C283 1.380 . S
C282 C287 1.386 . S
C283 H240 0.930 . S
C283 C282 1.380 . S
C283 C284 1.381 . S
C284 H241 0.929 . S
C284 C283 1.381 . S
C284 C285 1.371 . S
C285 C284 1.371 . S
C285 C286 1.380 . S
C286 H242 0.931 . S
C286 C285 1.380 . S
C286 C287 1.387 . S
C287 H243 0.930 . S
C287 C282 1.386 . S
C287 C286 1.387 . S
C288 C257 1.519 1_655 S
C288 C289 1.377 . S
C288 C293 1.361 . S
C289 H244 0.929 . S
C289 C288 1.377 . S
C289 C290 1.386 . S
C290 H245 0.931 . S
C290 C289 1.386 . S
C290 C291 1.363 . S
C291 C290 1.363 . S
C291 C292 1.385 . S
C292 H246 0.930 . S
C292 C291 1.385 . S
C292 C293 1.396 . S
C293 H247 0.959 . S
C293 C288 1.361 . S
C293 C292 1.396 . S
C294 O248 1.300 . S
C294 O249 1.209 . S
C294 C267 1.486 . S
C295 O250 1.199 . S
C295 O251 1.297 . S
C295 C279 1.476 . S
H296 O322 0.856 . S
H297 O325 0.854 . S
H298 C333 0.930 . S
H299 C334 0.930 . S
H300 C336 0.930 . S
H301 C337 0.930 . S
H302 C339 0.931 . S
H303 C340 0.930 . S
H304 C342 0.930 . S
H305 C343 0.929 . S
H306 C345 0.930 . S
H307 C346 0.931 . S
H308 C348 0.930 . S
H309 C349 0.929 . S
H310 C351 0.931 . S
H311 C352 0.930 . S
H312 C354 0.930 . S
H313 C355 0.932 . S
H314 C357 0.930 . S
H315 C358 0.929 1_545 S
H316 C360 0.931 . S
H317 C361 0.930 . S
H318 C363 0.923 1_556 S
H319 C364 0.931 . S
H320 C366 0.930 . S
H321 C367 0.929 . S
O322 H296 0.856 . S
O322 C368 1.300 . S
O323 C368 1.209 . S
O324 C369 1.199 . S
O325 H297 0.854 . S
O325 C369 1.297 . S
C326 C327 1.404 1_545 S
C326 C331 1.397 . S
C326 C332 1.492 . S
C327 C326 1.404 1_565 S
C327 C328 1.396 . S
C327 C338 1.492 . S
C328 C327 1.396 . S
C328 C329 1.397 . S
C328 C344 1.509 . S
C329 C328 1.397 . S
C329 C330 1.412 1_556 S
C329 C350 1.485 1_556 S
C330 C329 1.412 1_554 S
C330 C331 1.388 1_564 S
C330 C356 1.490 . S
C331 C326 1.397 . S
C331 C330 1.388 1_546 S
C331 C362 1.519 1_556 S
C332 C326 1.492 . S
C332 C333 1.363 . S
C332 C337 1.390 . S
C333 H298 0.930 . S
C333 C332 1.363 . S
C333 C334 1.372 . S
C334 H299 0.930 . S
C334 C333 1.372 . S
C334 C335 1.383 . S
C335 C334 1.383 . S
C335 C336 1.395 . S
C336 H300 0.930 . S
C336 C335 1.395 . S
C336 C337 1.362 . S
C337 H301 0.930 . S
C337 C332 1.390 . S
C337 C336 1.362 . S
C338 C327 1.492 . S
C338 C339 1.377 . S
C338 C343 1.397 . S
C339 H302 0.931 . S
C339 C338 1.377 . S
C339 C340 1.376 . S
C340 H303 0.930 . S
C340 C339 1.376 . S
C340 C341 1.376 . S
C341 C340 1.376 . S
C341 C342 1.378 . S
C341 C368 1.486 . S
C342 H304 0.930 . S
C342 C341 1.378 . S
C342 C343 1.376 . S
C343 H305 0.929 . S
C343 C338 1.397 . S
C343 C342 1.376 . S
C344 C328 1.509 . S
C344 C345 1.391 . S
C344 C349 1.386 . S
C345 H306 0.930 . S
C345 C344 1.391 . S
C345 C346 1.375 . S
C346 H307 0.931 . S
C346 C345 1.375 . S
C346 C347 1.375 . S
C347 C346 1.375 . S
C347 C348 1.361 . S
C348 H308 0.930 . S
C348 C347 1.361 . S
C348 C349 1.399 . S
C349 H309 0.929 . S
C349 C344 1.386 . S
C349 C348 1.399 . S
C350 C329 1.485 1_554 S
C350 C351 1.394 . S
C350 C355 1.360 . S
C351 H310 0.931 . S
C351 C350 1.394 . S
C351 C352 1.372 . S
C352 H311 0.930 . S
C352 C351 1.372 . S
C352 C353 1.397 . S
C353 C352 1.397 . S
C353 C354 1.390 . S
C353 C369 1.476 . S
C354 H312 0.930 . S
C354 C353 1.390 . S
C354 C355 1.366 . S
C355 H313 0.932 . S
C355 C350 1.360 . S
C355 C354 1.366 . S
C356 C330 1.490 . S
C356 C357 1.380 . S
C356 C361 1.386 . S
C357 H314 0.930 . S
C357 C356 1.380 . S
C357 C358 1.381 . S
C358 H315 0.929 1_565 S
C358 C357 1.381 . S
C358 C359 1.371 . S
C359 C358 1.371 . S
C359 C360 1.380 . S
C360 H316 0.931 . S
C360 C359 1.380 . S
C360 C361 1.387 . S
C361 H317 0.930 . S
C361 C356 1.386 . S
C361 C360 1.387 . S
C362 C331 1.519 1_554 S
C362 C363 1.378 . S
C362 C367 1.361 . S
C363 H318 0.923 1_554 S
C363 C362 1.378 . S
C363 C364 1.392 . S
C364 H319 0.931 . S
C364 C363 1.392 . S
C364 C365 1.363 . S
C365 C364 1.363 . S
C365 C366 1.385 . S
C366 H320 0.930 . S
C366 C365 1.385 . S
C366 C367 1.396 . S
C367 H321 0.929 . S
C367 C362 1.361 . S
C367 C366 1.396 . S
C368 O322 1.300 . S
C368 O323 1.209 . S
C368 C341 1.486 . S
C369 O324 1.199 . S
C369 O325 1.297 . S
C369 C353 1.476 . S
H370 O396 0.850 1_556 S
H371 O399 0.854 . S
H372 C407 0.930 . S
H373 C408 0.930 . S
H374 C410 0.930 . S
H375 C411 0.930 . S
H376 C413 0.931 . S
H377 C414 0.930 . S
H378 C416 0.930 . S
H379 C417 0.929 . S
H380 C419 0.930 . S
H381 C420 0.931 . S
H382 C422 0.930 . S
H383 C423 0.929 . S
H384 C425 0.931 . S
H385 C426 0.930 . S
H386 C428 0.930 . S
H387 C429 0.932 . S
H388 C431 0.930 . S
H389 C432 0.929 . S
H390 C434 0.931 . S
H391 C435 0.930 . S
H392 C437 0.929 . S
H393 C438 0.931 . S
H394 C440 0.930 . S
H395 C441 0.929 . S
O396 H370 0.850 1_554 S
O396 C442 1.300 . S
O397 C442 1.209 . S
O398 C443 1.199 . S
O399 H371 0.854 . S
O399 C443 1.297 . S
C400 C401 1.404 . S
C400 C405 1.397 . S
C400 C406 1.492 . S
C401 C400 1.404 . S
C401 C402 1.396 . S
C401 C412 1.492 . S
C402 C401 1.396 . S
C402 C403 1.397 . S
C402 C418 1.509 . S
C403 C402 1.397 . S
C403 C404 1.412 . S
C403 C424 1.485 . S
C404 C403 1.412 . S
C404 C405 1.388 . S
C404 C430 1.490 . S
C405 C400 1.397 . S
C405 C404 1.388 . S
C405 C436 1.519 . S
C406 C400 1.492 . S
C406 C407 1.363 . S
C406 C411 1.390 . S
C407 H372 0.930 . S
C407 C406 1.363 . S
C407 C408 1.372 . S
C408 H373 0.930 . S
C408 C407 1.372 . S
C408 C409 1.383 . S
C409 C408 1.383 . S
C409 C410 1.395 . S
C410 H374 0.930 . S
C410 C409 1.395 . S
C410 C411 1.362 . S
C411 H375 0.930 . S
C411 C406 1.390 . S
C411 C410 1.362 . S
C412 C401 1.492 . S
C412 C413 1.377 . S
C412 C417 1.397 . S
C413 H376 0.931 . S
C413 C412 1.377 . S
C413 C414 1.376 . S
C414 H377 0.930 . S
C414 C413 1.376 . S
C414 C415 1.376 . S
C415 C414 1.376 . S
C415 C416 1.378 . S
C415 C442 1.486 . S
C416 H378 0.930 . S
C416 C415 1.378 . S
C416 C417 1.376 . S
C417 H379 0.929 . S
C417 C412 1.397 . S
C417 C416 1.376 . S
C418 C402 1.509 . S
C418 C419 1.391 . S
C418 C423 1.386 . S
C419 H380 0.930 . S
C419 C418 1.391 . S
C419 C420 1.375 . S
C420 H381 0.931 . S
C420 C419 1.375 . S
C420 C421 1.375 . S
C421 C420 1.375 . S
C421 C422 1.361 . S
C422 H382 0.930 . S
C422 C421 1.361 . S
C422 C423 1.399 . S
C423 H383 0.929 . S
C423 C418 1.386 . S
C423 C422 1.399 . S
C424 C403 1.485 . S
C424 C425 1.394 . S
C424 C429 1.360 . S
C425 H384 0.931 . S
C425 C424 1.394 . S
C425 C426 1.372 . S
C426 H385 0.930 . S
C426 C425 1.372 . S
C426 C427 1.397 . S
C427 C426 1.397 . S
C427 C428 1.390 . S
C427 C443 1.476 . S
C428 H386 0.930 . S
C428 C427 1.390 . S
C428 C429 1.366 . S
C429 H387 0.932 . S
C429 C424 1.360 . S
C429 C428 1.366 . S
C430 C404 1.490 . S
C430 C431 1.380 . S
C430 C435 1.386 . S
C431 H388 0.930 . S
C431 C430 1.380 . S
C431 C432 1.381 . S
C432 H389 0.929 . S
C432 C431 1.381 . S
C432 C433 1.371 . S
C433 C432 1.371 . S
C433 C434 1.380 . S
C434 H390 0.931 . S
C434 C433 1.380 . S
C434 C435 1.387 . S
C435 H391 0.930 . S
C435 C430 1.386 . S
C435 C434 1.387 . S
C436 C405 1.519 . S
C436 C437 1.377 . S
C436 C441 1.361 . S
C437 H392 0.929 . S
C437 C436 1.377 . S
C437 C438 1.386 . S
C438 H393 0.931 . S
C438 C437 1.386 . S
C438 C439 1.363 . S
C439 C438 1.363 . S
C439 C440 1.385 . S
C440 H394 0.930 . S
C440 C439 1.385 . S
C440 C441 1.396 . S
C441 H395 0.929 . S
C441 C436 1.361 . S
C441 C440 1.396 . S
C442 O396 1.300 . S
C442 O397 1.209 . S
C442 C415 1.486 . S
C443 O398 1.199 . S
C443 O399 1.297 . S
C443 C427 1.476 . S
Mn444 O449 2.095 . S
Mn444 O459 2.162 . S
Mn444 O460 2.297 . S
Mn444 O468 2.385 . S
Mn444 O469 2.209 . S
Mn444 O470 2.094 . S
Mn445 O450 2.121 . S
Mn445 N452 2.257 . S
Mn445 N461 2.282 . S
Mn445 O469 2.215 . S
Mn445 O471 2.117 . S
C446 O468 1.234 . S
C446 O469 1.283 . S
C447 O459 1.281 . S
C447 O460 1.236 . S
C448 O470 1.240 . S
C448 O471 1.264 . S
O449 Mn444 2.095 . S
O449 C458 1.250 . S
O450 Mn445 2.121 . S
O450 C458 1.258 . S
C451 N452 1.326 . S
C451 C455 1.460 . S
C451 H457 0.929 . S
N452 Mn445 2.257 . S
N452 C451 1.326 . S
N452 C456 1.362 . S
C453 C454 1.258 . S
C453 C456 1.431 . S
C453 C473 1.449 . S
C454 C453 1.258 . S
C454 C455 1.477 . S
C454 H474 0.931 . S
C455 C451 1.460 . S
C455 C454 1.477 . S
C455 H475 0.930 . S
C456 N452 1.362 . S
C456 C453 1.431 . S
C456 C466 1.476 . S
H457 C451 0.929 . S
C458 O449 1.250 . S
C458 O450 1.258 . S
O459 Mn444 2.162 . S
O459 C447 1.281 . S
O460 Mn444 2.297 . S
O460 C447 1.236 . S
N461 Mn445 2.282 . S
N461 C462 1.328 . S
N461 C466 1.318 . S
C462 N461 1.328 . S
C462 C463 1.457 . S
C462 H467 0.929 . S
C463 C462 1.457 . S
C463 C464 1.291 . S
C463 H476 0.931 . S
C464 C463 1.291 . S
C464 C465 1.373 . S
C464 H477 0.929 . S
C465 C464 1.373 . S
C465 C466 1.396 . S
C465 C472 1.403 . S
C466 C456 1.476 . S
C466 N461 1.318 . S
C466 C465 1.396 . S
H467 C462 0.929 . S
O468 Mn444 2.385 . S
O468 C446 1.234 . S
O469 Mn444 2.209 . S
O469 Mn445 2.215 . S
O469 C446 1.283 . S
O470 Mn444 2.094 . S
O470 C448 1.240 . S
O471 Mn445 2.117 . S
O471 C448 1.264 . S
C472 C465 1.403 . S
C472 C473 1.399 . S
C472 H478 0.929 . S
C473 C453 1.449 . S
C473 C472 1.399 . S
C473 H479 0.930 . S
H474 C454 0.931 . S
H475 C455 0.930 . S
H476 C463 0.931 . S
H477 C464 0.929 . S
H478 C472 0.929 . S
H479 C473 0.930 . S
Mn480 O485 2.095 . S
Mn480 O495 2.162 . S
Mn480 O496 2.297 . S
Mn480 O504 2.385 . S
Mn480 O505 2.209 . S
Mn480 O506 2.094 . S
Mn481 O486 2.121 . S
Mn481 N488 2.257 . S
Mn481 N497 2.282 . S
Mn481 O505 2.215 . S
Mn481 O507 2.117 . S
C482 O504 1.234 . S
C482 O505 1.283 . S
C483 O495 1.281 . S
C483 O496 1.236 . S
C484 O506 1.240 . S
C484 O507 1.264 . S
O485 Mn480 2.095 . S
O485 C494 1.250 . S
O486 Mn481 2.121 . S
O486 C494 1.258 . S
C487 N488 1.326 . S
C487 C491 1.460 . S
C487 H493 0.929 . S
N488 Mn481 2.257 . S
N488 C487 1.326 . S
N488 C492 1.362 . S
C489 C490 1.258 . S
C489 C492 1.431 . S
C489 C509 1.449 . S
C490 C489 1.258 . S
C490 C491 1.477 . S
C490 H510 0.931 . S
C491 C487 1.460 . S
C491 C490 1.477 . S
C491 H511 0.930 . S
C492 N488 1.362 . S
C492 C489 1.431 . S
C492 C502 1.476 . S
H493 C487 0.929 . S
C494 O485 1.250 . S
C494 O486 1.258 . S
O495 Mn480 2.162 . S
O495 C483 1.281 . S
O496 Mn480 2.297 . S
O496 C483 1.236 . S
N497 Mn481 2.282 . S
N497 C498 1.328 . S
N497 C502 1.318 . S
C498 N497 1.328 . S
C498 C499 1.457 . S
C498 H503 0.929 . S
C499 C498 1.457 . S
C499 C500 1.291 . S
C499 H512 0.931 . S
C500 C499 1.291 . S
C500 C501 1.373 . S
C500 H513 0.929 . S
C501 C500 1.373 . S
C501 C502 1.396 . S
C501 C508 1.403 . S
C502 C492 1.476 . S
C502 N497 1.318 . S
C502 C501 1.396 . S
H503 C498 0.929 . S
O504 Mn480 2.385 . S
O504 C482 1.234 . S
O505 Mn480 2.209 . S
O505 Mn481 2.215 . S
O505 C482 1.283 . S
O506 Mn480 2.094 . S
O506 C484 1.240 . S
O507 Mn481 2.117 . S
O507 C484 1.264 . S
C508 C501 1.403 . S
C508 C509 1.399 . S
C508 H514 0.929 . S
C509 C489 1.449 . S
C509 C508 1.399 . S
C509 H515 0.930 . S
H510 C490 0.931 . S
H511 C491 0.930 . S
H512 C499 0.931 . S
H513 C500 0.929 . S
H514 C508 0.929 . S
H515 C509 0.930 . S
Mn516 O521 2.095 . S
Mn516 O531 2.162 . S
Mn516 O532 2.297 . S
Mn516 O540 2.385 . S
Mn516 O541 2.209 . S
Mn516 O542 2.094 . S
Mn517 O522 2.121 . S
Mn517 N524 2.257 . S
Mn517 N533 2.282 . S
Mn517 O541 2.215 . S
Mn517 O543 2.117 . S
C518 O540 1.234 . S
C518 O541 1.283 . S
C519 O531 1.281 . S
C519 O532 1.236 . S
C520 O542 1.240 . S
C520 O543 1.264 . S
O521 Mn516 2.095 . S
O521 C530 1.250 . S
O522 Mn517 2.121 . S
O522 C530 1.258 . S
C523 N524 1.326 . S
C523 C527 1.460 . S
C523 H529 0.929 . S
N524 Mn517 2.257 . S
N524 C523 1.326 . S
N524 C528 1.362 . S
C525 C526 1.258 . S
C525 C528 1.431 . S
C525 C545 1.449 . S
C526 C525 1.258 . S
C526 C527 1.477 . S
C526 H546 0.931 . S
C527 C523 1.460 . S
C527 C526 1.477 . S
C527 H547 0.930 . S
C528 N524 1.362 . S
C528 C525 1.431 . S
C528 C538 1.476 . S
H529 C523 0.929 . S
C530 O521 1.250 . S
C530 O522 1.258 . S
O531 Mn516 2.162 . S
O531 C519 1.281 . S
O532 Mn516 2.297 . S
O532 C519 1.236 . S
N533 Mn517 2.282 . S
N533 C534 1.328 . S
N533 C538 1.318 . S
C534 N533 1.328 . S
C534 C535 1.457 . S
C534 H539 0.929 . S
C535 C534 1.457 . S
C535 C536 1.291 . S
C535 H548 0.931 . S
C536 C535 1.291 . S
C536 C537 1.373 . S
C536 H549 0.929 . S
C537 C536 1.373 . S
C537 C538 1.396 . S
C537 C544 1.403 . S
C538 C528 1.476 . S
C538 N533 1.318 . S
C538 C537 1.396 . S
H539 C534 0.929 . S
O540 Mn516 2.385 . S
O540 C518 1.234 . S
O541 Mn516 2.209 . S
O541 Mn517 2.215 . S
O541 C518 1.283 . S
O542 Mn516 2.094 . S
O542 C520 1.240 . S
O543 Mn517 2.117 . S
O543 C520 1.264 . S
C544 C537 1.403 . S
C544 C545 1.399 . S
C544 H550 0.929 . S
C545 C525 1.449 . S
C545 C544 1.399 . S
C545 H551 0.930 . S
H546 C526 0.931 . S
H547 C527 0.930 . S
H548 C535 0.931 . S
H549 C536 0.929 . S
H550 C544 0.929 . S
H551 C545 0.930 . S
Mn552 O557 2.095 . S
Mn552 O567 2.162 . S
Mn552 O568 2.297 . S
Mn552 O576 2.385 . S
Mn552 O577 2.209 . S
Mn552 O578 2.094 . S
Mn553 O558 2.121 . S
Mn553 N560 2.257 . S
Mn553 N569 2.282 . S
Mn553 O577 2.215 . S
Mn553 O579 2.117 . S
C554 O576 1.234 . S
C554 O577 1.283 . S
C555 O567 1.281 . S
C555 O568 1.236 . S
C556 O578 1.240 . S
C556 O579 1.264 . S
O557 Mn552 2.095 . S
O557 C566 1.250 . S
O558 Mn553 2.121 . S
O558 C566 1.258 . S
C559 N560 1.326 . S
C559 C563 1.460 . S
C559 H565 0.929 . S
N560 Mn553 2.257 . S
N560 C559 1.326 . S
N560 C564 1.362 . S
C561 C562 1.258 . S
C561 C564 1.431 . S
C561 C581 1.449 . S
C562 C561 1.258 . S
C562 C563 1.477 . S
C562 H582 0.931 . S
C563 C559 1.460 . S
C563 C562 1.477 . S
C563 H583 0.930 . S
C564 N560 1.362 . S
C564 C561 1.431 . S
C564 C574 1.476 . S
H565 C559 0.929 . S
C566 O557 1.250 . S
C566 O558 1.258 . S
O567 Mn552 2.162 . S
O567 C555 1.281 . S
O568 Mn552 2.297 . S
O568 C555 1.236 . S
N569 Mn553 2.282 . S
N569 C570 1.328 . S
N569 C574 1.318 . S
C570 N569 1.328 . S
C570 C571 1.457 . S
C570 H575 0.929 . S
C571 C570 1.457 . S
C571 C572 1.291 . S
C571 H584 0.931 . S
C572 C571 1.291 . S
C572 C573 1.373 . S
C572 H585 0.929 . S
C573 C572 1.373 . S
C573 C574 1.396 . S
C573 C580 1.403 . S
C574 C564 1.476 . S
C574 N569 1.318 . S
C574 C573 1.396 . S
H575 C570 0.929 . S
O576 Mn552 2.385 . S
O576 C554 1.234 . S
O577 Mn552 2.209 . S
O577 Mn553 2.215 . S
O577 C554 1.283 . S
O578 Mn552 2.094 . S
O578 C556 1.240 . S
O579 Mn553 2.117 . S
O579 C556 1.264 . S
C580 C573 1.403 . S
C580 C581 1.399 . S
C580 H586 0.929 . S
C581 C561 1.449 . S
C581 C580 1.399 . S
C581 H587 0.930 . S
H582 C562 0.931 . S
H583 C563 0.930 . S
H584 C571 0.931 . S
H585 C572 0.929 . S
H586 C580 0.929 . S
H587 C581 0.930 . S
Mn588 O593 2.095 . S
Mn588 O603 2.162 . S
Mn588 O604 2.297 . S
Mn588 O612 2.385 . S
Mn588 O613 2.209 . S
Mn588 O614 2.094 . S
Mn589 O594 2.121 . S
Mn589 N596 2.257 . S
Mn589 N605 2.282 . S
Mn589 O613 2.215 . S
Mn589 O615 2.117 . S
C590 O612 1.234 . S
C590 O613 1.283 . S
C591 O603 1.281 . S
C591 O604 1.236 . S
C592 O614 1.240 . S
C592 O615 1.264 . S
O593 Mn588 2.095 . S
O593 C602 1.250 . S
O594 Mn589 2.121 . S
O594 C602 1.258 . S
C595 N596 1.326 . S
C595 C599 1.460 . S
C595 H601 0.929 . S
N596 Mn589 2.257 . S
N596 C595 1.326 . S
N596 C600 1.362 . S
C597 C598 1.258 . S
C597 C600 1.431 . S
C597 C617 1.449 . S
C598 C597 1.258 . S
C598 C599 1.477 . S
C598 H618 0.931 . S
C599 C595 1.460 . S
C599 C598 1.477 . S
C599 H619 0.930 . S
C600 N596 1.362 . S
C600 C597 1.431 . S
C600 C610 1.476 . S
H601 C595 0.929 . S
C602 O593 1.250 . S
C602 O594 1.258 . S
O603 Mn588 2.162 . S
O603 C591 1.281 . S
O604 Mn588 2.297 . S
O604 C591 1.236 . S
N605 Mn589 2.282 . S
N605 C606 1.328 . S
N605 C610 1.318 . S
C606 N605 1.328 . S
C606 C607 1.457 . S
C606 H611 0.929 . S
C607 C606 1.457 . S
C607 C608 1.291 . S
C607 H620 0.931 . S
C608 C607 1.291 . S
C608 C609 1.373 . S
C608 H621 0.929 . S
C609 C608 1.373 . S
C609 C610 1.396 . S
C609 C616 1.403 . S
C610 C600 1.476 . S
C610 N605 1.318 . S
C610 C609 1.396 . S
H611 C606 0.929 . S
O612 Mn588 2.385 . S
O612 C590 1.234 . S
O613 Mn588 2.209 . S
O613 Mn589 2.215 . S
O613 C590 1.283 . S
O614 Mn588 2.094 . S
O614 C592 1.240 . S
O615 Mn589 2.117 . S
O615 C592 1.264 . S
C616 C609 1.403 . S
C616 C617 1.399 . S
C616 H622 0.929 . S
C617 C597 1.449 . S
C617 C616 1.399 . S
C617 H623 0.930 . S
H618 C598 0.931 . S
H619 C599 0.930 . S
H620 C607 0.931 . S
H621 C608 0.929 . S
H622 C616 0.929 . S
H623 C617 0.930 . S
Mn624 O629 2.095 . S
Mn624 O639 2.162 . S
Mn624 O640 2.297 . S
Mn624 O648 2.385 . S
Mn624 O649 2.209 . S
Mn624 O650 2.094 . S
Mn625 O630 2.121 . S
Mn625 N632 2.257 . S
Mn625 N641 2.282 . S
Mn625 O649 2.215 . S
Mn625 O651 2.117 . S
C626 O648 1.234 . S
C626 O649 1.283 . S
C627 O639 1.281 . S
C627 O640 1.236 . S
C628 O650 1.240 . S
C628 O651 1.264 . S
O629 Mn624 2.095 . S
O629 C638 1.250 . S
O630 Mn625 2.121 . S
O630 C638 1.258 . S
C631 N632 1.326 . S
C631 C635 1.460 . S
C631 H637 0.929 . S
N632 Mn625 2.257 . S
N632 C631 1.326 . S
N632 C636 1.362 . S
C633 C634 1.258 . S
C633 C636 1.431 . S
C633 C653 1.449 . S
C634 C633 1.258 . S
C634 C635 1.477 . S
C634 H654 0.931 . S
C635 C631 1.460 . S
C635 C634 1.477 . S
C635 H655 0.930 . S
C636 N632 1.362 . S
C636 C633 1.431 . S
C636 C646 1.476 . S
H637 C631 0.929 . S
C638 O629 1.250 . S
C638 O630 1.258 . S
O639 Mn624 2.162 . S
O639 C627 1.281 . S
O640 Mn624 2.297 . S
O640 C627 1.236 . S
N641 Mn625 2.282 . S
N641 C642 1.328 . S
N641 C646 1.318 . S
C642 N641 1.328 . S
C642 C643 1.457 . S
C642 H647 0.929 . S
C643 C642 1.457 . S
C643 C644 1.291 . S
C643 H656 0.931 . S
C644 C643 1.291 . S
C644 C645 1.373 . S
C644 H657 0.958 . S
C645 C644 1.373 . S
C645 C646 1.396 . S
C645 C652 1.403 . S
C646 C636 1.476 . S
C646 N641 1.318 . S
C646 C645 1.396 . S
H647 C642 0.929 . S
O648 Mn624 2.385 . S
O648 C626 1.234 . S
O649 Mn624 2.209 . S
O649 Mn625 2.215 . S
O649 C626 1.283 . S
O650 Mn624 2.094 . S
O650 C628 1.240 . S
O651 Mn625 2.117 . S
O651 C628 1.264 . S
C652 C645 1.403 . S
C652 C653 1.399 . S
C652 H658 0.929 . S
C653 C633 1.449 . S
C653 C652 1.399 . S
C653 H659 0.930 . S
H654 C634 0.931 . S
H655 C635 0.930 . S
H656 C643 0.931 . S
H657 C644 0.958 . S
H658 C652 0.929 . S
H659 C653 0.930 . S
H660 C668 0.950 . S
H661 C673 0.950 . S
H662 C670 0.950 . S
H663 C672 0.950 . S
H664 C674 0.950 . S
H665 C676 0.950 . S
H666 C678 0.950 . S
H667 C679 0.950 . S
C668 H660 0.950 . S
C668 C669 1.386 . S
C668 C670 1.391 . S
C669 C668 1.386 . S
C669 C673 1.393 . S
C670 H662 0.950 . S
C670 C668 1.391 . S
C670 C671 1.400 . S
C671 C670 1.400 . S
C671 C672 1.398 . S
C671 C677 1.491 . S
C672 H663 0.950 . S
C672 C671 1.398 . S
C672 C673 1.391 . S
C673 H661 0.950 . S
C673 C669 1.393 . S
C673 C672 1.391 . S
C674 H664 0.950 . S
C674 C675 1.386 . S
C674 C676 1.391 . S
C675 C674 1.386 . S
C675 C679 1.393 . S
C676 H665 0.950 . S
C676 C674 1.391 . S
C676 C677 1.400 . S
C677 C671 1.491 . S
C677 C676 1.400 . S
C677 C678 1.398 . S
C678 H666 0.950 . S
C678 C677 1.398 . S
C678 C679 1.391 . S
C679 H667 0.950 . S
C679 C675 1.393 . S
C679 C678 1.391 . S
H680 C688 0.950 . S
H681 C693 0.950 . S
H682 C690 0.950 . S
H683 C692 0.950 . S
H684 C694 0.950 . S
H685 C696 0.950 . S
H686 C698 0.950 . S
H687 C699 0.950 . S
C688 H680 0.950 . S
C688 C689 1.386 . S
C688 C690 1.391 . S
C689 C688 1.386 . S
C689 C693 1.393 . S
C690 H682 0.950 . S
C690 C688 1.391 . S
C690 C691 1.400 . S
C691 C690 1.400 . S
C691 C692 1.398 . S
C691 C697 1.491 . S
C692 H683 0.950 . S
C692 C691 1.398 . S
C692 C693 1.391 . S
C693 H681 0.950 . S
C693 C689 1.393 . S
C693 C692 1.391 . S
C694 H684 0.950 . S
C694 C695 1.386 . S
C694 C696 1.391 . S
C695 C694 1.386 . S
C695 C699 1.393 . S
C696 H685 0.950 . S
C696 C694 1.391 . S
C696 C697 1.400 . S
C697 C691 1.491 . S
C697 C696 1.400 . S
C697 C698 1.398 . S
C698 H686 0.950 . S
C698 C697 1.398 . S
C698 C699 1.391 . S
C699 H687 0.950 . S
C699 C695 1.393 . S
C699 C698 1.391 . S
H700 C708 0.950 . S
H701 C713 0.950 . S
H702 C710 0.950 . S
H703 C712 0.950 . S
H704 C714 0.950 . S
H705 C716 0.950 . S
H706 C718 0.950 . S
H707 C719 0.950 . S
C708 H700 0.950 . S
C708 C709 1.386 . S
C708 C710 1.391 . S
C709 C708 1.386 . S
C709 C713 1.393 . S
C710 H702 0.950 . S
C710 C708 1.391 . S
C710 C711 1.400 . S
C711 C710 1.400 . S
C711 C712 1.398 . S
C711 C717 1.491 . S
C712 H703 0.950 . S
C712 C711 1.398 . S
C712 C713 1.391 . S
C713 H701 0.950 . S
C713 C709 1.393 . S
C713 C712 1.391 . S
C714 H704 0.950 . S
C714 C715 1.386 . S
C714 C716 1.391 . S
C715 C714 1.386 . S
C715 C719 1.393 . S
C716 H705 0.950 . S
C716 C714 1.391 . S
C716 C717 1.400 . S
C717 C711 1.491 . S
C717 C716 1.400 . S
C717 C718 1.398 . S
C718 H706 0.950 . S
C718 C717 1.398 . S
C718 C719 1.391 . S
C719 H707 0.950 . S
C719 C715 1.393 . S
C719 C718 1.391 . S
H720 C728 0.950 . S
H721 C733 0.950 . S
H722 C730 0.950 . S
H723 C732 0.950 . S
H724 C734 0.950 . S
H725 C736 0.950 . S
H726 C738 0.950 . S
H727 C739 0.950 . S
C728 H720 0.950 . S
C728 C729 1.386 . S
C728 C730 1.391 . S
C729 C728 1.386 . S
C729 C733 1.393 . S
C730 H722 0.950 . S
C730 C728 1.391 . S
C730 C731 1.400 . S
C731 C730 1.400 . S
C731 C732 1.398 . S
C731 C737 1.491 . S
C732 H723 0.950 . S
C732 C731 1.398 . S
C732 C733 1.391 . S
C733 H721 0.950 . S
C733 C729 1.393 . S
C733 C732 1.391 . S
C734 H724 0.950 . S
C734 C735 1.386 . S
C734 C736 1.391 . S
C735 C734 1.386 . S
C735 C739 1.393 . S
C736 H725 0.950 . S
C736 C734 1.391 . S
C736 C737 1.400 . S
C737 C731 1.491 . S
C737 C736 1.400 . S
C737 C738 1.398 . S
C738 H726 0.950 . S
C738 C737 1.398 . S
C738 C739 1.391 . S
C739 H727 0.950 . S
C739 C735 1.393 . S
C739 C738 1.391 . S
H740 C748 0.950 . S
H741 C753 0.950 . S
H742 C750 0.950 . S
H743 C752 0.950 . S
H744 C754 0.950 . S
H745 C756 0.950 . S
H746 C758 0.950 . S
H747 C759 0.950 . S
C748 H740 0.950 . S
C748 C749 1.386 . S
C748 C750 1.391 . S
C749 C748 1.386 . S
C749 C753 1.393 . S
C750 H742 0.950 . S
C750 C748 1.391 . S
C750 C751 1.400 . S
C751 C750 1.400 . S
C751 C752 1.398 . S
C751 C757 1.491 . S
C752 H743 0.950 . S
C752 C751 1.398 . S
C752 C753 1.391 . S
C753 H741 0.950 . S
C753 C749 1.393 . S
C753 C752 1.391 . S
C754 H744 0.950 . S
C754 C755 1.386 . S
C754 C756 1.391 . S
C755 C754 1.386 . S
C755 C759 1.393 . S
C756 H745 0.950 . S
C756 C754 1.391 . S
C756 C757 1.400 . S
C757 C751 1.491 . S
C757 C756 1.400 . S
C757 C758 1.398 . S
C758 H746 0.950 . S
C758 C757 1.398 . S
C758 C759 1.391 . S
C759 H747 0.950 . S
C759 C755 1.393 . S
C759 C758 1.391 . S
H760 C768 0.950 . S
H761 C773 0.950 . S
H762 C770 0.950 . S
H763 C772 0.950 . S
H764 C774 0.950 . S
H765 C776 0.950 . S
H766 C778 0.950 . S
H767 C779 0.950 . S
C768 H760 0.950 . S
C768 C769 1.386 . S
C768 C770 1.391 . S
C769 C768 1.386 . S
C769 C773 1.393 . S
C770 H762 0.950 . S
C770 C768 1.391 . S
C770 C771 1.400 . S
C771 C770 1.400 . S
C771 C772 1.398 . S
C771 C777 1.491 . S
C772 H763 0.950 . S
C772 C771 1.398 . S
C772 C773 1.391 . S
C773 H761 0.950 . S
C773 C769 1.393 . S
C773 C772 1.391 . S
C774 H764 0.950 . S
C774 C775 1.386 . S
C774 C776 1.391 . S
C775 C774 1.386 . S
C775 C779 1.393 . S
C776 H765 0.950 . S
C776 C774 1.391 . S
C776 C777 1.400 . S
C777 C771 1.491 . S
C777 C776 1.400 . S
C777 C778 1.398 . S
C778 H766 0.950 . S
C778 C777 1.398 . S
C778 C779 1.391 . S
C779 H767 0.950 . S
C779 C775 1.393 . S
C779 C778 1.391 . S
H780 C788 0.950 . S
H781 C793 0.950 . S
H782 C790 0.950 . S
H783 C792 0.950 . S
H784 C794 0.950 . S
H785 C796 0.950 . S
H786 C798 0.950 . S
H787 C799 0.950 . S
C788 H780 0.950 . S
C788 C789 1.386 . S
C788 C790 1.391 . S
C789 C788 1.386 . S
C789 C793 1.393 . S
C790 H782 0.950 . S
C790 C788 1.391 . S
C790 C791 1.400 . S
C791 C790 1.400 . S
C791 C792 1.398 . S
C791 C797 1.491 . S
C792 H783 0.950 . S
C792 C791 1.398 . S
C792 C793 1.391 . S
C793 H781 0.950 . S
C793 C789 1.393 . S
C793 C792 1.391 . S
C794 H784 0.950 . S
C794 C795 1.386 . S
C794 C796 1.391 . S
C795 C794 1.386 . S
C795 C799 1.393 . S
C796 H785 0.950 . S
C796 C794 1.391 . S
C796 C797 1.400 . S
C797 C791 1.491 . S
C797 C796 1.400 . S
C797 C798 1.398 . S
C798 H786 0.950 . S
C798 C797 1.398 . S
C798 C799 1.391 . S
C799 H787 0.950 . S
C799 C795 1.393 . S
C799 C798 1.391 . S
H800 C808 0.950 . S
H801 C813 0.950 . S
H802 C810 0.950 . S
H803 C812 0.950 . S
H804 C814 0.950 . S
H805 C816 0.950 . S
H806 C818 0.950 . S
H807 C819 0.950 . S
C808 H800 0.950 . S
C808 C809 1.386 . S
C808 C810 1.391 . S
C809 C808 1.386 . S
C809 C813 1.393 . S
C810 H802 0.950 . S
C810 C808 1.391 . S
C810 C811 1.400 . S
C811 C810 1.400 . S
C811 C812 1.398 . S
C811 C817 1.491 . S
C812 H803 0.950 . S
C812 C811 1.398 . S
C812 C813 1.391 . S
C813 H801 0.950 . S
C813 C809 1.393 . S
C813 C812 1.391 . S
C814 H804 0.950 . S
C814 C815 1.386 . S
C814 C816 1.391 . S
C815 C814 1.386 . S
C815 C819 1.393 . S
C816 H805 0.950 . S
C816 C814 1.391 . S
C816 C817 1.400 . S
C817 C811 1.491 . S
C817 C816 1.400 . S
C817 C818 1.398 . S
C818 H806 0.950 . S
C818 C817 1.398 . S
C818 C819 1.391 . S
C819 H807 0.950 . S
C819 C815 1.393 . S
C819 C818 1.391 . S
H820 C828 0.950 . S
H821 C833 0.950 . S
H822 C830 0.950 . S
H823 C832 0.950 . S
H824 C834 0.950 . S
H825 C836 0.950 . S
H826 C838 0.950 . S
H827 C839 0.950 . S
C828 H820 0.950 . S
C828 C829 1.386 . S
C828 C830 1.391 . S
C829 C828 1.386 . S
C829 C833 1.393 . S
C830 H822 0.950 . S
C830 C828 1.391 . S
C830 C831 1.400 . S
C831 C830 1.400 . S
C831 C832 1.398 . S
C831 C837 1.491 . S
C832 H823 0.950 . S
C832 C831 1.398 . S
C832 C833 1.391 . S
C833 H821 0.950 . S
C833 C829 1.393 . S
C833 C832 1.391 . S
C834 H824 0.950 . S
C834 C835 1.386 . S
C834 C836 1.391 . S
C835 C834 1.386 . S
C835 C839 1.393 . S
C836 H825 0.950 . S
C836 C834 1.391 . S
C836 C837 1.400 . S
C837 C831 1.491 . S
C837 C836 1.400 . S
C837 C838 1.398 . S
C838 H826 0.950 . S
C838 C837 1.398 . S
C838 C839 1.391 . S
C839 H827 0.950 . S
C839 C835 1.393 . S
C839 C838 1.391 . S
H840 C848 0.950 . S
H841 C853 0.950 . S
H842 C850 0.950 . S
H843 C852 0.950 . S
H844 C854 0.950 . S
H845 C856 0.950 . S
H846 C858 0.950 . S
H847 C859 0.950 . S
C848 H840 0.950 . S
C848 C849 1.386 . S
C848 C850 1.391 . S
C849 C848 1.386 . S
C849 C853 1.393 . S
C850 H842 0.950 . S
C850 C848 1.391 . S
C850 C851 1.400 . S
C851 C850 1.400 . S
C851 C852 1.398 . S
C851 C857 1.491 . S
C852 H843 0.950 . S
C852 C851 1.398 . S
C852 C853 1.391 . S
C853 H841 0.950 . S
C853 C849 1.393 . S
C853 C852 1.391 . S
C854 H844 0.950 . S
C854 C855 1.386 . S
C854 C856 1.391 . S
C855 C854 1.386 . S
C855 C859 1.393 . S
C856 H845 0.950 . S
C856 C854 1.391 . S
C856 C857 1.400 . S
C857 C851 1.491 . S
C857 C856 1.400 . S
C857 C858 1.398 . S
C858 H846 0.950 . S
C858 C857 1.398 . S
C858 C859 1.391 . S
C859 H847 0.950 . S
C859 C855 1.393 . S
C859 C858 1.391 . S
H860 C868 0.950 . S
H861 C873 0.950 . S
H862 C870 0.950 . S
H863 C872 0.950 . S
H864 C874 0.950 . S
H865 C876 0.950 . S
H866 C878 0.950 . S
H867 C879 0.950 . S
C868 H860 0.950 . S
C868 C869 1.386 . S
C868 C870 1.391 . S
C869 C868 1.386 . S
C869 C873 1.393 . S
C870 H862 0.950 . S
C870 C868 1.391 . S
C870 C871 1.400 . S
C871 C870 1.400 . S
C871 C872 1.398 . S
C871 C877 1.491 . S
C872 H863 0.950 . S
C872 C871 1.398 . S
C872 C873 1.391 . S
C873 H861 0.950 . S
C873 C869 1.393 . S
C873 C872 1.391 . S
C874 H864 0.950 . S
C874 C875 1.386 . S
C874 C876 1.391 . S
C875 C874 1.386 . S
C875 C879 1.393 . S
C876 H865 0.950 . S
C876 C874 1.391 . S
C876 C877 1.400 . S
C877 C871 1.491 . S
C877 C876 1.400 . S
C877 C878 1.398 . S
C878 H866 0.950 . S
C878 C877 1.398 . S
C878 C879 1.391 . S
C879 H867 0.950 . S
C879 C875 1.393 . S
C879 C878 1.391 . S
H880 C888 0.950 . S
H881 C893 0.950 . S
H882 C890 0.950 . S
H883 C892 0.950 . S
H884 C894 0.950 . S
H885 C896 0.950 . S
H886 C898 0.950 . S
H887 C899 0.950 . S
C888 H880 0.950 . S
C888 C889 1.386 . S
C888 C890 1.391 . S
C889 C888 1.386 . S
C889 C893 1.393 . S
C890 H882 0.950 . S
C890 C888 1.391 . S
C890 C891 1.400 . S
C891 C890 1.400 . S
C891 C892 1.398 . S
C891 C897 1.491 . S
C892 H883 0.950 . S
C892 C891 1.398 . S
C892 C893 1.391 . S
C893 H881 0.950 . S
C893 C889 1.393 . S
C893 C892 1.391 . S
C894 H884 0.950 . S
C894 C895 1.386 . S
C894 C896 1.391 . S
C895 C894 1.386 . S
C895 C899 1.393 . S
C896 H885 0.950 . S
C896 C894 1.391 . S
C896 C897 1.400 . S
C897 C891 1.491 . S
C897 C896 1.400 . S
C897 C898 1.398 . S
C898 H886 0.950 . S
C898 C897 1.398 . S
C898 C899 1.391 . S
C899 H887 0.950 . S
C899 C895 1.393 . S
C899 C898 1.391 . S
H900 C908 0.950 . S
H901 C913 0.950 . S
H902 C910 0.950 . S
H903 C912 0.950 . S
H904 C914 0.950 . S
H905 C916 0.950 . S
H906 C918 0.950 . S
H907 C919 0.950 . S
C908 H900 0.950 . S
C908 C909 1.386 . S
C908 C910 1.391 . S
C909 C908 1.386 . S
C909 C913 1.393 . S
C910 H902 0.950 . S
C910 C908 1.391 . S
C910 C911 1.400 . S
C911 C910 1.400 . S
C911 C912 1.398 . S
C911 C917 1.491 . S
C912 H903 0.950 . S
C912 C911 1.398 . S
C912 C913 1.391 . S
C913 H901 0.950 . S
C913 C909 1.393 . S
C913 C912 1.391 . S
C914 H904 0.950 . S
C914 C915 1.386 . S
C914 C916 1.391 . S
C915 C914 1.386 . S
C915 C919 1.393 . S
C916 H905 0.950 . S
C916 C914 1.391 . S
C916 C917 1.400 . S
C917 C911 1.491 . S
C917 C916 1.400 . S
C917 C918 1.398 . S
C918 H906 0.950 . S
C918 C917 1.398 . S
C918 C919 1.391 . S
C919 H907 0.950 . S
C919 C915 1.393 . S
C919 C918 1.391 . S
H920 C928 0.950 . S
H921 C933 0.950 . S
H922 C930 0.950 . S
H923 C932 0.950 . S
H924 C934 0.950 . S
H925 C936 0.950 . S
H926 C938 0.950 . S
H927 C939 0.950 . S
C928 H920 0.950 . S
C928 C929 1.386 . S
C928 C930 1.391 . S
C929 C928 1.386 . S
C929 C933 1.393 . S
C930 H922 0.950 . S
C930 C928 1.391 . S
C930 C931 1.400 . S
C931 C930 1.400 . S
C931 C932 1.398 . S
C931 C937 1.491 . S
C932 H923 0.950 . S
C932 C931 1.398 . S
C932 C933 1.391 . S
C933 H921 0.950 . S
C933 C929 1.393 . S
C933 C932 1.391 . S
C934 H924 0.950 . S
C934 C935 1.386 . S
C934 C936 1.391 . S
C935 C934 1.386 . S
C935 C939 1.393 . S
C936 H925 0.950 . S
C936 C934 1.391 . S
C936 C937 1.400 . S
C937 C931 1.491 . S
C937 C936 1.400 . S
C937 C938 1.398 . S
C938 H926 0.950 . S
C938 C937 1.398 . S
C938 C939 1.391 . S
C939 H927 0.950 . S
C939 C935 1.393 . S
C939 C938 1.391 . S
H940 C948 0.950 . S
H941 C953 0.950 . S
H942 C950 0.950 . S
H943 C952 0.950 . S
H944 C954 0.950 . S
H945 C956 0.950 . S
H946 C958 0.950 . S
H947 C959 0.950 . S
C948 H940 0.950 . S
C948 C949 1.386 . S
C948 C950 1.391 . S
C949 C948 1.386 . S
C949 C953 1.393 . S
C950 H942 0.950 . S
C950 C948 1.391 . S
C950 C951 1.400 . S
C951 C950 1.400 . S
C951 C952 1.398 . S
C951 C957 1.491 . S
C952 H943 0.950 . S
C952 C951 1.398 . S
C952 C953 1.391 . S
C953 H941 0.950 . S
C953 C949 1.393 . S
C953 C952 1.391 . S
C954 H944 0.950 . S
C954 C955 1.386 . S
C954 C956 1.391 . S
C955 C954 1.386 . S
C955 C959 1.393 . S
C956 H945 0.950 . S
C956 C954 1.391 . S
C956 C957 1.400 . S
C957 C951 1.491 . S
C957 C956 1.400 . S
C957 C958 1.398 . S
C958 H946 0.950 . S
C958 C957 1.398 . S
C958 C959 1.391 . S
C959 H947 0.950 . S
C959 C955 1.393 . S
C959 C958 1.391 . S
H960 C968 0.950 . S
H961 C973 0.950 . S
H962 C970 0.950 . S
H963 C972 0.950 . S
H964 C974 0.950 . S
H965 C976 0.950 . S
H966 C978 0.950 . S
H967 C979 0.950 . S
C968 H960 0.950 . S
C968 C969 1.386 . S
C968 C970 1.391 . S
C969 C968 1.386 . S
C969 C973 1.393 . S
C970 H962 0.950 . S
C970 C968 1.391 . S
C970 C971 1.400 . S
C971 C970 1.400 . S
C971 C972 1.398 . S
C971 C977 1.491 . S
C972 H963 0.950 . S
C972 C971 1.398 . S
C972 C973 1.391 . S
C973 H961 0.950 . S
C973 C969 1.393 . S
C973 C972 1.391 . S
C974 H964 0.950 . S
C974 C975 1.386 . S
C974 C976 1.391 1_554 S
C975 C974 1.386 . S
C975 C979 1.393 1_554 S
C976 H965 0.950 . S
C976 C974 1.391 1_556 S
C976 C977 1.400 . S
C977 C971 1.491 . S
C977 C976 1.400 . S
C977 C978 1.398 . S
C978 H966 0.950 . S
C978 C977 1.398 . S
C978 C979 1.391 . S
C979 H967 0.950 . S
C979 C975 1.393 1_556 S
C979 C978 1.391 . S
H980 C988 0.950 1_545 S
H981 C993 0.950 . S
H982 C990 0.950 . S
H983 C992 0.950 . S
H984 C994 0.950 . S
H985 C996 0.950 . S
H986 C998 0.950 . S
H987 C999 0.950 . S
C988 H980 0.950 1_565 S
C988 C989 1.386 . S
C988 C990 1.391 . S
C989 C988 1.386 . S
C989 C993 1.393 . S
C990 H982 0.950 . S
C990 C988 1.391 . S
C990 C991 1.400 . S
C991 C990 1.400 . S
C991 C992 1.398 . S
C991 C997 1.491 . S
C992 H983 0.950 . S
C992 C991 1.398 . S
C992 C993 1.391 . S
C993 H981 0.950 . S
C993 C989 1.393 . S
C993 C992 1.391 . S
C994 H984 0.950 . S
C994 C995 1.386 . S
C994 C996 1.391 . S
C995 C994 1.386 . S
C995 C999 1.393 . S
C996 H985 0.950 . S
C996 C994 1.391 . S
C996 C997 1.400 . S
C997 C991 1.491 . S
C997 C996 1.400 . S
C997 C998 1.398 . S
C998 H986 0.950 . S
C998 C997 1.398 . S
C998 C999 1.391 . S
C999 H987 0.950 . S
C999 C995 1.393 . S
C999 C998 1.391 . S
H1000 C1008 0.950 . S
H1001 C1013 0.950 . S
H1002 C1010 0.950 . S
H1003 C1012 0.950 . S
H1004 C1014 0.950 . S
H1005 C1016 0.950 . S
H1006 C1018 0.950 . S
H1007 C1019 0.950 . S
C1008 H1000 0.950 . S
C1008 C1009 1.386 . S
C1008 C1010 1.391 . S
C1009 C1008 1.386 . S
C1009 C1013 1.393 . S
C1010 H1002 0.950 . S
C1010 C1008 1.391 . S
C1010 C1011 1.400 . S
C1011 C1010 1.400 . S
C1011 C1012 1.398 . S
C1011 C1017 1.491 . S
C1012 H1003 0.950 . S
C1012 C1011 1.398 . S
C1012 C1013 1.391 . S
C1013 H1001 0.950 . S
C1013 C1009 1.393 . S
C1013 C1012 1.391 . S
C1014 H1004 0.950 . S
C1014 C1015 1.386 . S
C1014 C1016 1.391 . S
C1015 C1014 1.386 . S
C1015 C1019 1.393 . S
C1016 H1005 0.950 . S
C1016 C1014 1.391 . S
C1016 C1017 1.400 . S
C1017 C1011 1.491 . S
C1017 C1016 1.400 . S
C1017 C1018 1.398 . S
C1018 H1006 0.950 . S
C1018 C1017 1.398 . S
C1018 C1019 1.391 . S
C1019 H1007 0.950 . S
C1019 C1015 1.393 . S
C1019 C1018 1.391 . S
H1020 C1028 0.950 . S
H1021 C1033 0.950 . S
H1022 C1030 0.950 . S
H1023 C1032 0.950 . S
H1024 C1034 0.950 . S
H1025 C1036 0.950 . S
H1026 C1038 0.950 . S
H1027 C1039 0.950 . S
C1028 H1020 0.950 . S
C1028 C1029 1.386 . S
C1028 C1030 1.391 . S
C1029 C1028 1.386 . S
C1029 C1033 1.393 . S
C1030 H1022 0.950 . S
C1030 C1028 1.391 . S
C1030 C1031 1.400 . S
C1031 C1030 1.400 . S
C1031 C1032 1.398 . S
C1031 C1037 1.491 . S
C1032 H1023 0.950 . S
C1032 C1031 1.398 . S
C1032 C1033 1.391 . S
C1033 H1021 0.950 . S
C1033 C1029 1.393 . S
C1033 C1032 1.391 . S
C1034 H1024 0.950 . S
C1034 C1035 1.386 . S
C1034 C1036 1.391 . S
C1035 C1034 1.386 . S
C1035 C1039 1.393 . S
C1036 H1025 0.950 . S
C1036 C1034 1.391 . S
C1036 C1037 1.400 . S
C1037 C1031 1.491 . S
C1037 C1036 1.400 . S
C1037 C1038 1.398 . S
C1038 H1026 0.950 . S
C1038 C1037 1.398 . S
C1038 C1039 1.391 . S
C1039 H1027 0.950 . S
C1039 C1035 1.393 . S
C1039 C1038 1.391 . S
H1040 C1048 0.950 . S
H1041 C1053 0.950 . S
H1042 C1050 0.950 . S
H1043 C1052 0.950 . S
H1044 C1054 0.950 . S
H1045 C1056 0.950 . S
H1046 C1058 0.950 . S
H1047 C1059 0.950 . S
C1048 H1040 0.950 . S
C1048 C1049 1.386 . S
C1048 C1050 1.391 . S
C1049 C1048 1.386 . S
C1049 C1053 1.393 . S
C1050 H1042 0.950 . S
C1050 C1048 1.391 . S
C1050 C1051 1.400 . S
C1051 C1050 1.400 . S
C1051 C1052 1.398 . S
C1051 C1057 1.491 . S
C1052 H1043 0.950 . S
C1052 C1051 1.398 . S
C1052 C1053 1.391 . S
C1053 H1041 0.950 . S
C1053 C1049 1.393 . S
C1053 C1052 1.391 . S
C1054 H1044 0.950 . S
C1054 C1055 1.386 . S
C1054 C1056 1.391 . S
C1055 C1054 1.386 . S
C1055 C1059 1.393 . S
C1056 H1045 0.950 . S
C1056 C1054 1.391 . S
C1056 C1057 1.400 . S
C1057 C1051 1.491 . S
C1057 C1056 1.400 . S
C1057 C1058 1.398 . S
C1058 H1046 0.950 . S
C1058 C1057 1.398 . S
C1058 C1059 1.391 . S
C1059 H1047 0.950 . S
C1059 C1055 1.393 . S
C1059 C1058 1.391 . S
H1060 C1068 0.950 . S
H1061 C1073 0.950 . S
H1062 C1070 0.950 . S
H1063 C1072 0.950 . S
H1064 C1074 0.950 . S
H1065 C1076 0.950 . S
H1066 C1078 0.950 . S
H1067 C1079 0.950 . S
C1068 H1060 0.950 . S
C1068 C1069 1.386 . S
C1068 C1070 1.391 . S
C1069 C1068 1.386 . S
C1069 C1073 1.393 . S
C1070 H1062 0.950 . S
C1070 C1068 1.391 . S
C1070 C1071 1.400 . S
C1071 C1070 1.400 . S
C1071 C1072 1.398 . S
C1071 C1077 1.491 . S
C1072 H1063 0.950 . S
C1072 C1071 1.398 . S
C1072 C1073 1.391 . S
C1073 H1061 0.950 . S
C1073 C1069 1.393 . S
C1073 C1072 1.391 . S
C1074 H1064 0.950 . S
C1074 C1075 1.386 . S
C1074 C1076 1.391 . S
C1075 C1074 1.386 . S
C1075 C1079 1.393 . S
C1076 H1065 0.950 . S
C1076 C1074 1.391 . S
C1076 C1077 1.400 . S
C1077 C1071 1.491 . S
C1077 C1076 1.400 . S
C1077 C1078 1.398 . S
C1078 H1066 0.950 . S
C1078 C1077 1.398 . S
C1078 C1079 1.391 . S
C1079 H1067 0.950 . S
C1079 C1075 1.393 . S
C1079 C1078 1.391 . S
H1080 C1088 0.950 . S
H1081 C1093 0.950 . S
H1082 C1090 0.950 . S
H1083 C1092 0.950 . S
H1084 C1094 0.950 . S
H1085 C1096 0.950 . S
H1086 C1098 0.950 . S
H1087 C1099 0.950 . S
C1088 H1080 0.950 . S
C1088 C1089 1.386 . S
C1088 C1090 1.391 . S
C1089 C1088 1.386 . S
C1089 C1093 1.393 . S
C1090 H1082 0.950 . S
C1090 C1088 1.391 . S
C1090 C1091 1.400 . S
C1091 C1090 1.400 . S
C1091 C1092 1.398 . S
C1091 C1097 1.491 . S
C1092 H1083 0.950 . S
C1092 C1091 1.398 . S
C1092 C1093 1.391 . S
C1093 H1081 0.950 . S
C1093 C1089 1.393 . S
C1093 C1092 1.391 . S
C1094 H1084 0.950 . S
C1094 C1095 1.386 . S
C1094 C1096 1.391 . S
C1095 C1094 1.386 . S
C1095 C1099 1.393 . S
C1096 H1085 0.950 . S
C1096 C1094 1.391 . S
C1096 C1097 1.400 . S
C1097 C1091 1.491 . S
C1097 C1096 1.400 . S
C1097 C1098 1.398 . S
C1098 H1086 0.950 . S
C1098 C1097 1.398 . S
C1098 C1099 1.391 . S
C1099 H1087 0.950 . S
C1099 C1095 1.393 . S
C1099 C1098 1.391 . S
H1100 C1108 0.950 . S
H1101 C1113 0.950 . S
H1102 C1110 0.950 . S
H1103 C1112 0.950 . S
H1104 C1114 0.950 . S
H1105 C1116 0.950 . S
H1106 C1118 0.950 . S
H1107 C1119 0.950 . S
C1108 H1100 0.950 . S
C1108 C1109 1.386 . S
C1108 C1110 1.391 . S
C1109 C1108 1.386 . S
C1109 C1113 1.393 . S
C1110 H1102 0.950 . S
C1110 C1108 1.391 . S
C1110 C1111 1.400 . S
C1111 C1110 1.400 . S
C1111 C1112 1.398 . S
C1111 C1117 1.491 1_554 S
C1112 H1103 0.950 . S
C1112 C1111 1.398 . S
C1112 C1113 1.391 . S
C1113 H1101 0.950 . S
C1113 C1109 1.393 . S
C1113 C1112 1.391 . S
C1114 H1104 0.950 . S
C1114 C1115 1.386 . S
C1114 C1116 1.391 . S
C1115 C1114 1.386 . S
C1115 C1119 1.393 . S
C1116 H1105 0.950 . S
C1116 C1114 1.391 . S
C1116 C1117 1.400 . S
C1117 C1111 1.491 1_556 S
C1117 C1116 1.400 . S
C1117 C1118 1.398 . S
C1118 H1106 0.950 . S
C1118 C1117 1.398 . S
C1118 C1119 1.391 . S
C1119 H1107 0.950 . S
C1119 C1115 1.393 . S
C1119 C1118 1.391 . S
H1120 C1128 0.950 . S
H1121 C1133 0.950 . S
H1122 C1130 0.950 . S
H1123 C1132 0.950 . S
H1124 C1134 0.950 . S
H1125 C1136 0.950 . S
H1126 C1138 0.950 . S
H1127 C1139 0.950 . S
C1128 H1120 0.950 . S
C1128 C1129 1.386 . S
C1128 C1130 1.391 . S
C1129 C1128 1.386 . S
C1129 C1133 1.393 . S
C1130 H1122 0.950 . S
C1130 C1128 1.391 . S
C1130 C1131 1.400 . S
C1131 C1130 1.400 . S
C1131 C1132 1.398 . S
C1131 C1137 1.491 . S
C1132 H1123 0.950 . S
C1132 C1131 1.398 . S
C1132 C1133 1.391 . S
C1133 H1121 0.950 . S
C1133 C1129 1.393 . S
C1133 C1132 1.391 . S
C1134 H1124 0.950 . S
C1134 C1135 1.386 . S
C1134 C1136 1.391 . S
C1135 C1134 1.386 . S
C1135 C1139 1.393 . S
C1136 H1125 0.950 . S
C1136 C1134 1.391 . S
C1136 C1137 1.400 . S
C1137 C1131 1.491 . S
C1137 C1136 1.400 . S
C1137 C1138 1.398 . S
C1138 H1126 0.950 . S
C1138 C1137 1.398 . S
C1138 C1139 1.391 . S
C1139 H1127 0.950 . S
C1139 C1135 1.393 . S
C1139 C1138 1.391 . S
C675 C627 1.351 . S
C669 C51 1.326 . S
C689 C125 1.459 . S
C695 C447 1.459 . S
C709 C217 2.624 . S
C715 C494 2.620 . S
C729 C291 1.515 . S
C735 C530 1.501 . S
C755 C555 0.878 . S
C749 C347 0.873 . S
C769 C421 0.899 . S
C775 C591 0.898 . S
C789 C143 2.326 . S
C795 C483 2.324 . S
C809 C199 1.490 . S
C815 C519 1.502 . S
C829 C273 0.488 . S
C835 C566 0.538 . S
C855 C602 1.666 . S
C849 C365 1.655 . S
C875 C638 1.823 . S
C869 C439 1.844 . S
C895 C458 2.509 . S
C889 C69 2.460 . S
C909 C63 1.397 . S
C915 C482 1.516 . S
C929 C137 1.509 . S
C935 C518 1.587 . S
C955 C556 1.403 . S
C949 C187 1.337 . S
C969 C261 1.466 . S
C975 C592 1.511 . S
C995 C628 1.550 . S
C989 C359 1.432 . S
C1015 C448 1.155 . S
C1009 C433 1.076 . S
C1035 C626 1.596 . S
C1029 C113 1.608 . S
C1049 C211 1.280 . S
C1055 C446 1.373 . S
C1075 C484 1.565 . S
C1069 C285 1.494 . S
C1089 C335 1.391 . S
C1095 C520 1.462 . S
C1109 C409 1.368 . S
C1115 C554 1.400 . S
C1129 C39 1.659 . S
C1135 C590 1.685 . S
