# Generated by pormake.
# Topology rtl, (3,6)-cn, num edge types: 1
# Building blocks:
#     Node 0, Type 0, BuildingBlock: KAKCAD_clean_linker_0, # of connection points: 3
#     Node 1, Type 0, BuildingBlock: KAKCAD_clean_linker_0, # of connection points: 3
#     Node 2, Type 0, BuildingBlock: KAKCAD_clean_linker_0, # of connection points: 3
#     Node 3, Type 0, BuildingBlock: KAKCAD_clean_linker_0, # of connection points: 3
#     Node 4, Type 1, BuildingBlock: LEVNOQ01_clean_sbu_1, # of connection points: 6
#     Node 5, Type 1, BuildingBlock: LEVNOQ01_clean_sbu_1, # of connection points: 6
#     Edge 6, Type (0, 1), BuildingBlock: UVAHIK_clean_linker_0, # of connection points: 2
#     Edge 7, Type (0, 1), BuildingBlock: UVAHIK_clean_linker_0, # of connection points: 2
#     Edge 8, Type (0, 1), BuildingBlock: UVAHIK_clean_linker_0, # of connection points: 2
#     Edge 9, Type (0, 1), BuildingBlock: UVAHIK_clean_linker_0, # of connection points: 2
#     Edge 10, Type (0, 1), BuildingBlock: UVAHIK_clean_linker_0, # of connection points: 2
#     Edge 11, Type (0, 1), BuildingBlock: UVAHIK_clean_linker_0, # of connection points: 2
#     Edge 12, Type (0, 1), BuildingBlock: UVAHIK_clean_linker_0, # of connection points: 2
#     Edge 13, Type (0, 1), BuildingBlock: UVAHIK_clean_linker_0, # of connection points: 2
#     Edge 14, Type (0, 1), BuildingBlock: UVAHIK_clean_linker_0, # of connection points: 2
#     Edge 15, Type (0, 1), BuildingBlock: UVAHIK_clean_linker_0, # of connection points: 2
#     Edge 16, Type (0, 1), BuildingBlock: UVAHIK_clean_linker_0, # of connection points: 2
#     Edge 17, Type (0, 1), BuildingBlock: UVAHIK_clean_linker_0, # of connection points: 2
# Relax obj value: 0.026
# Max RMSD: 0.060
# Mean RMSD: 0.046
data_MOF--net-rtl--node1-LEVNOQ01_clean_sbu_1--node2-KAKCAD_clean_linker_0--edge1-UVAHIK_clean_linker_0
_symmetry_space_group_name_H-M    P1
_symmetry_Int_Tables_number       1
_symmetry_cell_setting            triclinic
loop_
_symmetry_equiv_pos_as_xyz
'x, y, z'
_cell_length_a     46.442936
_cell_length_b     52.741141
_cell_length_c     36.9658
_cell_angle_alpha  89.911011
_cell_angle_beta   97.81634
_cell_angle_gamma 90.041696
loop_
_atom_site_label
_atom_site_type_symbol
_atom_site_fract_x
_atom_site_fract_y
_atom_site_fract_z
_atom_type_partial_charge
C0 C 0.21579 0.88534 0.95589 0.0
C1 C 0.21323 0.91084 0.9449 0.0
C2 C 0.22908 0.87893 0.9909 0.0
C3 C 0.23995 0.89789 0.0158 0.0
C4 C 0.23716 0.92341 0.00496 0.0
C5 C 0.22405 0.92981 0.96983 0.0
C6 C 0.25407 0.89094 0.05297 0.0
C7 C 0.27384 0.87067 0.05772 0.0
C8 C 0.28628 0.863 0.09278 0.0
C9 C 0.2789 0.87603 0.12331 0.0
C10 C 0.25904 0.89627 0.11918 0.0
C11 C 0.24699 0.90381 0.08385 0.0
C12 C 0.24948 0.90832 0.15188 0.0
C13 C 0.24287 0.89319 0.18096 0.0
C14 C 0.24632 0.93477 0.15409 0.0
C15 C 0.23689 0.94581 0.18486 0.0
C16 C 0.23032 0.93062 0.21399 0.0
C17 C 0.30558 0.84044 0.09765 0.0
C18 C 0.29828 0.81835 0.07723 0.0
C19 C 0.33072 0.8404 0.12359 0.0
C20 C 0.3479 0.8186 0.12939 0.0
C21 C 0.34016 0.79634 0.10953 0.0
C22 C 0.31535 0.79659 0.08309 0.0
C23 C 0.23339 0.90417 0.21155 0.0
H24 H 0.20786 0.87029 0.93723 0.0
H25 H 0.23061 0.8591 0.99861 0.0
H26 H 0.24545 0.93841 0.02351 0.0
H27 H 0.22214 0.94965 0.96226 0.0
H28 H 0.27967 0.86089 0.03399 0.0
H29 H 0.23102 0.91891 0.08045 0.0
H30 H 0.28807 0.86996 0.15047 0.0
H31 H 0.24444 0.87273 0.17977 0.0
H32 H 0.25143 0.94693 0.13219 0.0
H33 H 0.235 0.96625 0.18597 0.0
H34 H 0.27891 0.81766 0.05728 0.0
H35 H 0.33706 0.85721 0.13951 0.0
H36 H 0.22785 0.89181 0.23298 0.0
H37 H 0.30905 0.77987 0.06694 0.0
H38 H 0.36683 0.81898 0.15002 0.0
C39 C 0.71005 0.62926 0.70186 0.0
C40 C 0.70257 0.60352 0.70359 0.0
C41 C 0.72265 0.63862 0.67236 0.0
C42 C 0.72794 0.62247 0.64381 0.0
C43 C 0.72118 0.59656 0.64597 0.0
C44 C 0.70875 0.58714 0.67571 0.0
C45 C 0.73935 0.63296 0.61128 0.0
C46 C 0.76182 0.65098 0.61546 0.0
C47 C 0.77141 0.66234 0.5849 0.0
C48 C 0.75873 0.65502 0.54978 0.0
C49 C 0.73575 0.6374 0.54486 0.0
C50 C 0.72638 0.62635 0.57596 0.0
C51 C 0.72041 0.63176 0.50751 0.0
C52 C 0.71702 0.65073 0.48035 0.0
C53 C 0.70828 0.60765 0.49888 0.0
C54 C 0.69281 0.60285 0.46438 0.0
C55 C 0.68975 0.62184 0.43755 0.0
C56 C 0.79301 0.68327 0.58952 0.0
C57 C 0.79036 0.70284 0.61465 0.0
C58 C 0.81517 0.68478 0.56726 0.0
C59 C 0.83359 0.70582 0.56915 0.0
C60 C 0.8302 0.72591 0.59323 0.0
C61 C 0.80874 0.72393 0.61648 0.0
C62 C 0.70218 0.64571 0.44565 0.0
H63 H 0.70572 0.64228 0.72311 0.0
H64 H 0.72736 0.65871 0.67134 0.0
H65 H 0.72525 0.58364 0.62448 0.0
H66 H 0.70301 0.56724 0.67623 0.0
H67 H 0.7718 0.65628 0.64261 0.0
H68 H 0.70799 0.61352 0.57291 0.0
H69 H 0.76626 0.66375 0.52624 0.0
H70 H 0.72523 0.66973 0.48596 0.0
H71 H 0.71079 0.59238 0.51866 0.0
H72 H 0.6835 0.58423 0.4585 0.0
H73 H 0.77326 0.7024 0.63186 0.0
H74 H 0.81802 0.66981 0.54802 0.0
H75 H 0.6998 0.66068 0.42536 0.0
H76 H 0.80531 0.73917 0.63503 0.0
H77 H 0.85029 0.70652 0.55137 0.0
C78 C 0.77453 0.1194 0.12981 0.0
C79 C 0.80447 0.11405 0.13518 0.0
C80 C 0.76068 0.12678 0.09537 0.0
C81 C 0.77652 0.12901 0.06567 0.0
C82 C 0.80659 0.12429 0.07141 0.0
C83 C 0.82035 0.11686 0.10568 0.0
C84 C 0.7619 0.13594 0.02865 0.0
C85 C 0.74087 0.15527 0.02396 0.0
C86 C 0.72813 0.16272 0.98877 0.0
C87 C 0.73629 0.15012 0.9582 0.0
C88 C 0.75766 0.13119 0.96243 0.0
C89 C 0.77006 0.124 0.99764 0.0
C90 C 0.76926 0.12082 0.93012 0.0
C91 C 0.75066 0.11126 0.90002 0.0
C92 C 0.7993 0.12164 0.92872 0.0
C93 C 0.81052 0.11363 0.89754 0.0
C94 C 0.79201 0.1043 0.86732 0.0
C95 C 0.7082 0.18496 0.98383 0.0
C96 C 0.68795 0.18954 0.0081 0.0
C97 C 0.71017 0.20243 0.95547 0.0
C98 C 0.69265 0.22402 0.95171 0.0
C99 C 0.67291 0.22897 0.97648 0.0
C100 C 0.67057 0.21131 0.00453 0.0
C101 C 0.76202 0.10276 0.86895 0.0
H102 H 0.76168 0.11724 0.15197 0.0
H103 H 0.73747 0.13015 0.0918 0.0
H104 H 0.8196 0.12645 0.04941 0.0
H105 H 0.84356 0.1134 0.10912 0.0
H106 H 0.73556 0.16539 0.04766 0.0
H107 H 0.78632 0.10914 0.00078 0.0
H108 H 0.72688 0.15569 0.93091 0.0
H109 H 0.72742 0.11045 0.90054 0.0
H110 H 0.81406 0.12915 0.9514 0.0
H111 H 0.83375 0.11484 0.89696 0.0
H112 H 0.68563 0.17639 0.03004 0.0
H113 H 0.7258 0.19983 0.93657 0.0
H114 H 0.74738 0.09565 0.84589 0.0
H115 H 0.65583 0.21459 0.02435 0.0
H116 H 0.69477 0.23694 0.92943 0.0
C117 C 0.24811 0.42851 0.37235 0.0
C118 C 0.2784 0.42997 0.37276 0.0
C119 C 0.23638 0.41814 0.40204 0.0
C120 C 0.25471 0.40916 0.43277 0.0
C121 C 0.28494 0.41053 0.43308 0.0
C122 C 0.29662 0.42072 0.40344 0.0
C123 C 0.24261 0.39795 0.46432 0.0
C124 C 0.2201 0.37996 0.45883 0.0
C125 C 0.21032 0.36766 0.48868 0.0
C126 C 0.22255 0.37429 0.52432 0.0
C127 C 0.24508 0.39214 0.53015 0.0
C128 C 0.25496 0.4039 0.50012 0.0
C129 C 0.25979 0.39712 0.5675 0.0
C130 C 0.24386 0.40461 0.59528 0.0
C131 C 0.28993 0.39382 0.57563 0.0
C132 C 0.30394 0.39765 0.61107 0.0
C133 C 0.28819 0.40537 0.63912 0.0
C134 C 0.18965 0.3461 0.48254 0.0
C135 C 0.1652 0.34728 0.45557 0.0
C136 C 0.19531 0.32352 0.50245 0.0
C137 C 0.17737 0.30243 0.49507 0.0
C138 C 0.15328 0.30337 0.46764 0.0
C139 C 0.14707 0.32614 0.44833 0.0
C140 C 0.25794 0.40896 0.63063 0.0
H141 H 0.23346 0.43566 0.3493 0.0
H142 H 0.21298 0.41743 0.40116 0.0
H143 H 0.29963 0.40327 0.45603 0.0
H144 H 0.32003 0.42094 0.40437 0.0
H145 H 0.21146 0.37441 0.43126 0.0
H146 H 0.27243 0.41766 0.5047 0.0
H147 H 0.21532 0.36485 0.54756 0.0
H148 H 0.22058 0.40739 0.58951 0.0
H149 H 0.3026 0.38772 0.55468 0.0
H150 H 0.32708 0.3941 0.61649 0.0
H151 H 0.16023 0.36448 0.43993 0.0
H152 H 0.21415 0.32187 0.52308 0.0
H153 H 0.24508 0.4154 0.65114 0.0
H154 H 0.12866 0.32739 0.42702 0.0
H155 H 0.18246 0.28527 0.51078 0.0
O156 O 0.00282 0.04893 0.62166 0.0
Mg157 Mg 0.03993 0.05333 0.59494 0.0
O158 O 0.97785 0.02402 0.58024 0.0
Mg159 Mg 0.01133 0.01458 0.54 0.0
O160 O 0.02915 0.05566 0.54001 0.0
O161 O 0.04934 0.08772 0.57415 0.0
O162 O 0.0489 0.01007 0.50092 0.0
O163 O 0.97782 0.02913 0.49225 0.0
Mg164 Mg 0.01084 0.97982 0.49908 0.0
O165 O 0.98827 0.97315 0.54165 0.0
O166 O 0.05496 0.96936 0.50523 0.0
O167 O 0.99305 0.00253 0.45374 0.0
O168 O 0.98773 0.94785 0.49267 0.0
C169 C 0.06825 0.00537 0.60766 0.0
C170 C 0.97997 0.03658 0.61005 0.0
C171 C 0.03953 0.07855 0.54253 0.0
C172 C 0.0644 0.99061 0.49684 0.0
C173 C 0.97768 0.02149 0.45961 0.0
C174 C 0.97968 0.95252 0.52394 0.0
O175 O 0.07458 0.02866 0.60948 0.0
O176 O 0.04505 0.99782 0.58803 0.0
O177 O 0.55693 0.51021 0.10813 0.0
Mg178 Mg 0.52629 0.48167 0.09458 0.0
O179 O 0.52167 0.53495 0.08304 0.0
Mg180 Mg 0.49096 0.51158 0.03856 0.0
O181 O 0.51764 0.47352 0.03991 0.0
O182 O 0.54357 0.44844 0.08169 0.0
O183 O 0.45979 0.4892 0.994 0.0
O184 O 0.51924 0.5259 0.99476 0.0
Mg185 Mg 0.45258 0.54612 0.98211 0.0
O186 O 0.46383 0.54839 0.03695 0.0
O187 O 0.42564 0.51492 0.96733 0.0
O188 O 0.4905 0.55066 0.95689 0.0
O189 O 0.43502 0.57673 0.00499 0.0
C190 C 0.46579 0.48678 0.11192 0.0
C191 C 0.54596 0.53201 0.10338 0.0
C192 C 0.53318 0.45322 0.04822 0.0
C193 C 0.43601 0.49289 0.97288 0.0
C194 C 0.51507 0.54042 0.96678 0.0
C195 C 0.44855 0.56904 0.03584 0.0
O196 O 0.49084 0.4789 0.12485 0.0
O197 O 0.46164 0.49789 0.08101 0.0
C198 C 0.1047 0.28168 0.45472 0.0
C199 C 0.1352 0.28038 0.45907 0.0
C200 C 0.08798 0.25954 0.44971 0.0
C201 C 0.09178 0.19063 0.42825 0.0
H202 H 0.03526 0.18386 0.49569 0.0
C203 C 0.06749 0.09787 0.4976 0.0
C204 C 0.04073 0.09467 0.51051 0.0
C205 C 0.07263 0.11938 0.47733 0.0
C206 C 0.05032 0.18548 0.47586 0.0
H207 H 0.17202 0.25511 0.45936 0.0
H208 H 0.14305 0.2166 0.45122 0.0
H209 H 0.05666 0.22501 0.4869 0.0
H210 H 0.99762 0.11005 0.5105 0.0
H211 H 0.0062 0.1475 0.4742 0.0
H212 H 0.08643 0.15074 0.41865 0.0
C213 C 0.13191 0.23462 0.45145 0.0
C214 C 0.06268 0.20917 0.4709 0.0
C215 C 0.14856 0.25667 0.45664 0.0
C216 C 0.01827 0.11202 0.50021 0.0
C217 C 0.02336 0.13358 0.47989 0.0
C218 C 0.07938 0.16691 0.43318 0.0
C219 C 0.10145 0.23571 0.44862 0.0
C220 C 0.08436 0.21183 0.44811 0.0
C221 C 0.05111 0.13818 0.46997 0.0
C222 C 0.0593 0.16387 0.4581 0.0
H223 H 0.09381 0.2997 0.45652 0.0
H224 H 0.06454 0.26101 0.44739 0.0
H225 H 0.10804 0.19218 0.40994 0.0
H226 H 0.08527 0.08492 0.50597 0.0
H227 H 0.09433 0.12233 0.4705 0.0
C228 C 0.38796 0.77322 0.1213 0.0
C229 C 0.3574 0.77271 0.11669 0.0
C230 C 0.40391 0.75065 0.12617 0.0
C231 C 0.39713 0.68198 0.14783 0.0
H232 H 0.45643 0.67329 0.08458 0.0
C233 C 0.41907 0.58964 0.0778 0.0
C234 C 0.44665 0.58472 0.06812 0.0
C235 C 0.41435 0.61109 0.09819 0.0
C236 C 0.44054 0.67549 0.10325 0.0
H237 H 0.31971 0.74827 0.11527 0.0
H238 H 0.34731 0.70907 0.1229 0.0
H239 H 0.4359 0.71512 0.09154 0.0
H240 H 0.49147 0.59702 0.07406 0.0
H241 H 0.4833 0.63487 0.10986 0.0
H242 H 0.4006 0.64199 0.15775 0.0
C243 C 0.35909 0.72681 0.12314 0.0
C244 C 0.42867 0.69953 0.10715 0.0
C245 C 0.34321 0.74928 0.11819 0.0
C246 C 0.4701 0.60029 0.08182 0.0
C247 C 0.46533 0.62206 0.10188 0.0
C248 C 0.40894 0.65794 0.14384 0.0
C249 C 0.38962 0.72715 0.12678 0.0
C250 C 0.40601 0.70285 0.12833 0.0
C251 C 0.43708 0.62831 0.10867 0.0
C252 C 0.42996 0.65425 0.12038 0.0
H253 H 0.39952 0.79098 0.12014 0.0
H254 H 0.4274 0.75158 0.12908 0.0
H255 H 0.38016 0.68402 0.16503 0.0
H256 H 0.40061 0.57807 0.06691 0.0
H257 H 0.39229 0.6154 0.10259 0.0
C258 C 0.85826 0.76255 0.62466 0.0
C259 C 0.8477 0.74948 0.59238 0.0
C260 C 0.87396 0.78515 0.62325 0.0
C261 C 0.91649 0.82066 0.56255 0.0
H262 H 0.89838 0.88044 0.61626 0.0
C263 C 0.94363 0.91783 0.51437 0.0
C264 C 0.96124 0.93344 0.53895 0.0
C265 C 0.93002 0.89666 0.52669 0.0
C266 C 0.90392 0.86377 0.60159 0.0
H267 H 0.84466 0.75039 0.5333 0.0
H268 H 0.87202 0.78942 0.53087 0.0
H269 H 0.87501 0.83974 0.62685 0.0
H270 H 0.97674 0.94023 0.59608 0.0
H271 H 0.95251 0.90262 0.61796 0.0
H272 H 0.9445 0.84463 0.53637 0.0
C273 C 0.86875 0.78201 0.55736 0.0
C274 C 0.89061 0.84052 0.60761 0.0
C275 C 0.85309 0.75956 0.55875 0.0
C276 C 0.96326 0.92847 0.5766 0.0
C277 C 0.94952 0.90701 0.58906 0.0
C278 C 0.92958 0.84374 0.55648 0.0
C279 C 0.87948 0.79504 0.58954 0.0
C280 C 0.89614 0.81892 0.58727 0.0
C281 C 0.9337 0.89046 0.56392 0.0
C282 C 0.92278 0.86567 0.57508 0.0
H283 H 0.85462 0.75519 0.65103 0.0
H284 H 0.8821 0.79469 0.64851 0.0
H285 H 0.92179 0.80425 0.54715 0.0
H286 H 0.94123 0.92143 0.48524 0.0
H287 H 0.9174 0.88453 0.50685 0.0
C288 C 0.6269 0.25327 0.98159 0.0
C289 C 0.65571 0.25289 0.97377 0.0
C290 C 0.61129 0.27601 0.98032 0.0
C291 C 0.62301 0.34531 0.98601 0.0
H292 H 0.53976 0.34802 0.95596 0.0
C293 C 0.5614 0.43758 0.0005 0.0
C294 C 0.53825 0.43436 0.02073 0.0
C295 C 0.57302 0.41661 0.98435 0.0
C296 C 0.56304 0.34757 0.96427 0.0
H297 H 0.69052 0.27632 0.95829 0.0
H298 H 0.66305 0.31559 0.95481 0.0
H299 H 0.56606 0.30856 0.94919 0.0
H300 H 0.50783 0.4075 0.03836 0.0
H301 H 0.5276 0.37098 0.00976 0.0
H302 H 0.61998 0.38405 0.00187 0.0
C303 C 0.65262 0.29841 0.9625 0.0
C304 C 0.57809 0.32493 0.96062 0.0
C305 C 0.66828 0.27575 0.96402 0.0
C306 C 0.52534 0.41042 0.02217 0.0
C307 C 0.53675 0.38951 0.00587 0.0
C308 C 0.60802 0.36792 0.98946 0.0
C309 C 0.62405 0.29892 0.97106 0.0
C310 C 0.6082 0.3234 0.97207 0.0
C311 C 0.56161 0.39216 0.98831 0.0
C312 C 0.57778 0.36922 0.97925 0.0
H313 H 0.61638 0.236 0.98876 0.0
H314 H 0.58945 0.2757 0.98751 0.0
H315 H 0.64608 0.34479 0.99572 0.0
H316 H 0.57201 0.45585 -0.00028 0.0
H317 H 0.59199 0.41928 0.97065 0.0
C318 C 0.19939 0.96202 0.24274 0.0
C319 C 0.21957 0.94197 0.24652 0.0
C320 C 0.18725 0.97092 0.27299 0.0
C321 C 0.16896 0.94785 0.36 0.0
H322 H 0.15543 0.01846 0.38141 0.0
C323 C 0.1108 0.9727 0.48151 0.0
C324 C 0.08934 0.99154 0.47597 0.0
C325 C 0.13107 0.96995 0.45715 0.0
C326 C 0.15883 -0.00135 0.37566 0.0
H327 H 0.24425 0.91681 0.28564 0.0
H328 H 0.22267 0.93199 0.33806 0.0
H329 H 0.18231 0.00752 0.33101 0.0
H330 H 0.07318 0.02324 0.44181 0.0
H331 H 0.10793 0.01795 0.39837 0.0
H332 H 0.14465 0.93865 0.4031 0.0
C333 C 0.21598 0.94059 0.31162 0.0
C334 C 0.17429 0.99242 0.34685 0.0
C335 C 0.22824 0.93183 0.28153 0.0
C336 C 0.08965 0.00864 0.44685 0.0
C337 C 0.10962 0.00558 0.42196 0.0
C338 C 0.1533 0.95402 0.38839 0.0
C339 C 0.19491 0.95985 0.30757 0.0
C340 C 0.17949 0.96693 0.33876 0.0
C341 C 0.12993 0.98558 0.42608 0.0
C342 C 0.14798 0.97949 0.39672 0.0
H343 H 0.19204 0.97014 0.21617 0.0
H344 H 0.1709 0.98567 0.26899 0.0
H345 H 0.17209 0.92803 0.35398 0.0
H346 H 0.11122 0.95942 0.50396 0.0
H347 H 0.14696 0.95489 0.462 0.0
C348 C 0.6625 0.6082 0.74167 0.0
C349 C 0.68641 0.59433 0.73299 0.0
C350 C 0.64629 0.59941 0.76818 0.0
C351 C 0.64747 0.56022 0.84931 0.0
H352 H 0.56378 0.56119 0.82258 0.0
C353 C 0.563 0.52929 0.94573 0.0
C354 C 0.53855 0.5452 0.94423 0.0
C355 C 0.58329 0.53284 0.92125 0.0
C356 C 0.5871 0.56093 0.83059 0.0
H357 H 0.71252 0.56062 0.74576 0.0
H358 H 0.68406 0.54528 0.79285 0.0
H359 H 0.59513 0.57171 0.77711 0.0
H360 H 0.5173 0.57824 0.91755 0.0
H361 H 0.55252 0.58454 0.87578 0.0
H362 H 0.63919 0.55015 0.90331 0.0
C363 C 0.67797 0.56293 0.77885 0.0
C364 C 0.60502 0.56688 0.8045 0.0
C365 C 0.69408 0.5716 0.75185 0.0
C366 C 0.53556 0.56533 0.91907 0.0
C367 C 0.55571 0.56889 0.89493 0.0
C368 C 0.62941 0.55437 0.87567 0.0
C369 C 0.65369 0.57663 0.78684 0.0
C370 C 0.63532 0.56725 0.81379 0.0
C371 C 0.57937 0.55233 0.895 0.0
C372 C 0.59901 0.55539 0.86675 0.0
H373 H 0.65589 0.62563 0.72735 0.0
H374 H 0.62783 0.61047 0.77406 0.0
H375 H 0.67081 0.56037 0.8571 0.0
H376 H 0.56591 0.51363 0.96487 0.0
H377 H 0.6014 0.51984 0.922 0.0
C378 C 0.81368 0.11628 0.20385 0.0
C379 C 0.81917 0.10496 0.17104 0.0
C380 C 0.82833 0.10796 0.23739 0.0
C381 C 0.86907 0.05311 0.28048 0.0
H382 H 0.90431 0.10191 0.35154 0.0
C383 C 0.95949 0.02426 0.39308 0.0
C384 C 0.95881 0.03336 0.42867 0.0
C385 C 0.9406 0.03388 0.3638 0.0
C386 C 0.89424 0.08807 0.33221 0.0
H387 H 0.84368 0.07561 0.14781 0.0
H388 H 0.86936 0.06135 0.20599 0.0
H389 H 0.87386 0.11675 0.2963 0.0
H390 H 0.93823 0.06032 0.46121 0.0
H391 H 0.90496 0.07725 0.40962 0.0
H392 H 0.88967 0.02447 0.31586 0.0
C393 C 0.8537 0.07657 0.20595 0.0
C394 C 0.8768 0.09655 0.3006 0.0
C395 C 0.83922 0.08493 0.17254 0.0
C396 C 0.93925 0.05289 0.43412 0.0
C397 C 0.92026 0.06261 0.40461 0.0
C398 C 0.88641 0.04467 0.31195 0.0
C399 C 0.8485 0.088 0.23877 0.0
C400 C 0.86457 0.07916 0.27403 0.0
C401 C 0.92046 0.05287 0.36923 0.0
C402 C 0.89975 0.06205 0.33777 0.0
H403 H 0.79846 0.13186 0.20353 0.0
H404 H 0.82374 0.11703 0.26224 0.0
H405 H 0.85942 0.03921 0.26095 0.0
H406 H 0.97442 0.00938 0.38775 0.0
H407 H 0.94179 0.02639 0.33678 0.0
C408 C 0.28915 0.40423 0.70753 0.0
C409 C 0.30325 0.40954 0.67695 0.0
C410 C 0.30318 0.40846 0.74291 0.0
C411 C 0.37361 0.41241 0.79846 0.0
H412 H 0.33805 0.46044 0.85802 0.0
C413 C 0.43772 0.46162 0.92338 0.0
C414 C 0.42242 0.4725 0.94959 0.0
C415 C 0.4228 0.44855 0.89368 0.0
C416 C 0.34808 0.4464 0.84246 0.0
H417 H 0.34342 0.42373 0.66023 0.0
H418 H 0.36814 0.42994 0.72203 0.0
H419 H 0.31257 0.44811 0.79896 0.0
H420 H 0.38032 0.47654 0.96764 0.0
H421 H 0.35449 0.45185 0.91774 0.0
H422 H 0.4089 0.41016 0.84195 0.0
C423 C 0.34617 0.42253 0.71829 0.0
C424 C 0.33347 0.43957 0.80836 0.0
C425 C 0.33197 0.41884 0.68289 0.0
C426 C 0.3925 0.46817 0.94768 0.0
C427 C 0.3777 0.45443 0.91865 0.0
C428 C 0.38799 0.41877 0.83299 0.0
C429 C 0.33182 0.41754 0.74854 0.0
C430 C 0.34635 0.42292 0.78582 0.0
C431 C 0.39235 0.44567 0.89011 0.0
C432 C 0.3757 0.43628 0.85525 0.0
H433 H 0.26732 0.39657 0.70429 0.0
H434 H 0.29175 0.40443 0.76594 0.0
H435 H 0.38382 0.39935 0.78153 0.0
H436 H 0.46077 0.46519 0.92405 0.0
H437 H 0.43499 0.4424 0.87234 0.0
C438 C 0.64367 0.61077 0.39777 0.0
C439 C 0.67326 0.61695 0.40121 0.0
C440 C 0.62786 0.60676 0.36329 0.0
C441 C 0.63241 0.61463 0.26306 0.0
H442 H 0.57073 0.56454 0.25413 0.0
C443 C 0.58902 0.55384 0.13665 0.0
C444 C 0.55871 0.55246 0.12747 0.0
C445 C 0.60125 0.56802 0.16674 0.0
C446 C 0.5876 0.57888 0.25635 0.0
H447 H 0.70982 0.62354 0.37194 0.0
H448 H 0.68292 0.61502 0.31187 0.0
H449 H 0.59601 0.57496 0.3142 0.0
H450 H 0.51741 0.56586 0.14102 0.0
H451 H 0.53889 0.59004 0.19467 0.0
H452 H 0.62513 0.61675 0.20447 0.0
C453 C 0.67133 0.61427 0.33534 0.0
C454 C 0.60211 0.58498 0.29083 0.0
C455 C 0.68693 0.61889 0.36977 0.0
C456 C 0.54086 0.56691 0.1473 0.0
C457 C 0.55308 0.58056 0.17805 0.0
C458 C 0.61833 0.60801 0.22847 0.0
C459 C 0.64149 0.60823 0.33151 0.0
C460 C 0.62495 0.60279 0.29476 0.0
C461 C 0.5833 0.58051 0.18861 0.0
C462 C 0.59593 0.59 0.22489 0.0
H463 H 0.63268 0.60948 0.42175 0.0
H464 H 0.60487 0.60274 0.36169 0.0
H465 H 0.64933 0.62887 0.26479 0.0
H466 H 0.60317 0.54269 0.12189 0.0
H467 H 0.62459 0.5676 0.17455 0.0
C468 C 0.80069 0.07235 0.81973 0.0
C469 C 0.80435 0.09696 0.83405 0.0
C470 C 0.81572 0.06472 0.79118 0.0
C471 C 0.88253 0.08173 0.75319 0.0
H472 H 0.85552 0.03334 0.67716 0.0
C473 C 0.96335 0.03735 0.67082 0.0
C474 C 0.95618 0.03689 0.63272 0.0
C475 C 0.94212 0.04182 0.69319 0.0
C476 C 0.86325 0.04699 0.69811 0.0
H477 H 0.82452 0.13347 0.82825 0.0
H478 H 0.84986 0.12061 0.77779 0.0
H479 H 0.82209 0.04851 0.71841 0.0
H480 H 0.92093 0.03912 0.58804 0.0
H481 H 0.88344 0.04774 0.62745 0.0
H482 H 0.92329 0.08083 0.73289 0.0
C483 C 0.83636 0.10681 0.78924 0.0
C484 C 0.84421 0.05551 0.72192 0.0
C485 C 0.82174 0.11426 0.81799 0.0
C486 C 0.92694 0.0394 0.61739 0.0
C487 C 0.90556 0.04431 0.63994 0.0
C488 C 0.90136 0.07335 0.72953 0.0
C489 C 0.83439 0.0817 0.77631 0.0
C490 C 0.85371 0.07297 0.74982 0.0
C491 C 0.9132 0.04647 0.67803 0.0
C492 C 0.89216 0.05564 0.702 0.0
H493 H 0.78737 0.05869 0.8318 0.0
H494 H 0.8138 0.04522 0.78203 0.0
H495 H 0.89087 0.0948 0.77467 0.0
H496 H 0.98568 0.03501 0.68337 0.0
H497 H 0.94861 0.04253 0.72245 0.0
C498 C 0.31666 0.45549 0.34749 0.0
C499 C 0.29126 0.44074 0.34135 0.0
C500 C 0.33034 0.46387 0.31836 0.0
C501 C 0.33682 0.44844 0.22231 0.0
H502 H 0.38335 0.50979 0.2304 0.0
C503 C 0.41255 0.48306 0.11713 0.0
C504 C 0.44163 0.4839 0.13379 0.0
C505 C 0.38999 0.48008 0.1384 0.0
C506 C 0.37019 0.49274 0.22765 0.0
H507 H 0.25969 0.42411 0.29942 0.0
H508 H 0.28305 0.43955 0.24834 0.0
H509 H 0.34994 0.50157 0.27459 0.0
H510 H 0.46986 0.48289 0.1856 0.0
H511 H 0.43045 0.4785 0.22259 0.0
H512 H 0.35741 0.43983 0.17517 0.0
C513 C 0.29277 0.44412 0.27586 0.0
C514 C 0.35125 0.48788 0.25308 0.0
C515 C 0.27916 0.43552 0.30515 0.0
C516 C 0.44769 0.48214 0.17199 0.0
C517 C 0.42519 0.47979 0.19317 0.0
C518 C 0.35544 0.45357 0.19645 0.0
C519 C 0.31882 0.45805 0.28213 0.0
C520 C 0.33512 0.4652 0.25158 0.0
C521 C 0.39621 0.47863 0.17659 0.0
C522 C 0.37292 0.47535 0.19968 0.0
H523 H 0.3263 0.46029 0.37497 0.0
H524 H 0.35056 0.47421 0.32447 0.0
H525 H 0.325 0.43069 0.22038 0.0
H526 H 0.40731 0.48432 0.08772 0.0
H527 H 0.36773 0.47916 0.12515 0.0
C528 C 0.17366 0.90574 0.89182 0.0
C529 C 0.19948 0.91763 0.9075 0.0
C530 C 0.16054 0.91247 0.8568 0.0
C531 C 0.15845 0.96485 0.7898 0.0
H532 H 0.12106 0.9152 0.72157 0.0
C533 C 0.11512 0.99463 0.64503 0.0
C534 C 0.08613 0.98805 0.63286 0.0
C535 C 0.13047 0.98261 0.67523 0.0
C536 C 0.13132 0.92925 0.74042 0.0
H537 H 0.23228 0.94525 0.89829 0.0
H538 H 0.20969 0.95678 0.83716 0.0
H539 H 0.14472 0.90144 0.78164 0.0
H540 H 0.05117 0.96227 0.64083 0.0
H541 H 0.07814 0.94114 0.69413 0.0
H542 H 0.14511 0.99263 0.74892 0.0
C543 C 0.19913 0.94269 0.85217 0.0
C544 C 0.1448 0.92142 0.77486 0.0
C545 C 0.21212 0.93608 0.88721 0.0
C546 C 0.07355 0.96765 0.64957 0.0
C547 C 0.08896 0.95563 0.68013 0.0
C548 C 0.14518 0.9726 0.75548 0.0
C549 C 0.17302 0.93116 0.83662 0.0
C550 C 0.15861 0.93915 0.79992 0.0
C551 C 0.11713 0.96382 0.69418 0.0
C552 C 0.13157 0.95492 0.7303 0.0
H553 H 0.16326 0.89161 0.90694 0.0
H554 H 0.14026 0.90345 0.84591 0.0
H555 H 0.16819 0.97913 0.80865 0.0
H556 H 0.12547 0.01008 0.63235 0.0
H557 H 0.1524 0.98887 0.68478 0.0
loop_
_geom_bond_atom_site_label_1
_geom_bond_atom_site_label_2
_geom_bond_distance
_geom_bond_site_symmetry_2
_ccdc_geom_bond_type
C0 C1 1.386 . S
C0 C2 1.397 . S
C0 H24 0.931 . S
C1 C0 1.386 . S
C1 C5 1.397 . S
C2 C0 1.397 . S
C2 C3 1.384 1_556 S
C2 H25 0.930 . S
C3 C2 1.384 1_554 S
C3 C4 1.377 . S
C3 C6 1.481 . S
C4 C3 1.377 . S
C4 C5 1.389 1_554 S
C4 H26 0.929 . S
C5 C1 1.397 . S
C5 C4 1.389 1_556 S
C5 H27 0.931 . S
C6 C3 1.481 . S
C6 C7 1.387 . S
C6 C11 1.390 . S
C7 C6 1.387 . S
C7 C8 1.401 . S
C7 H28 0.930 . S
C8 C7 1.401 . S
C8 C9 1.376 . S
C8 C17 1.511 . S
C9 C8 1.376 . S
C9 C10 1.392 . S
C9 H30 0.931 . S
C10 C9 1.392 . S
C10 C11 1.361 . S
C10 C12 1.500 . S
C11 C6 1.390 . S
C11 C10 1.361 . S
C11 H29 0.931 . S
C12 C10 1.500 . S
C12 C13 1.371 . S
C12 C14 1.365 . S
C13 C12 1.371 . S
C13 C23 1.386 . S
C13 H31 0.931 . S
C14 C12 1.365 . S
C14 C15 1.409 . S
C14 H32 0.929 . S
C15 C14 1.409 . S
C15 C16 1.380 . S
C15 H33 0.930 . S
C16 C15 1.380 . S
C16 C23 1.357 . S
C17 C8 1.511 . S
C17 C18 1.341 . S
C17 C19 1.371 . S
C18 C17 1.341 . S
C18 C22 1.394 . S
C18 H34 0.930 . S
C19 C17 1.371 . S
C19 C20 1.392 . S
C19 H35 0.931 . S
C20 C19 1.392 . S
C20 C21 1.331 . S
C20 H38 0.932 . S
C21 C20 1.331 . S
C21 C22 1.336 . S
C22 C18 1.394 . S
C22 C21 1.336 . S
C22 H37 0.929 . S
C23 C13 1.386 . S
C23 C16 1.357 . S
C23 H36 0.928 . S
H24 C0 0.931 . S
H25 C2 0.930 . S
H26 C4 0.929 . S
H27 C5 0.931 . S
H28 C7 0.930 . S
H29 C11 0.931 . S
H30 C9 0.931 . S
H31 C13 0.931 . S
H32 C14 0.929 . S
H33 C15 0.930 . S
H34 C18 0.930 . S
H35 C19 0.931 . S
H36 C23 0.928 . S
H37 C22 0.929 . S
H38 C20 0.932 . S
C39 C40 1.386 . S
C39 C41 1.397 . S
C39 H63 0.931 . S
C40 C39 1.386 . S
C40 C44 1.397 . S
C41 C39 1.397 . S
C41 C42 1.384 . S
C41 H64 0.930 . S
C42 C41 1.384 . S
C42 C43 1.377 . S
C42 C45 1.481 . S
C43 C42 1.377 . S
C43 C44 1.389 . S
C43 H65 0.929 . S
C44 C40 1.397 . S
C44 C43 1.389 . S
C44 H66 0.931 . S
C45 C42 1.481 . S
C45 C46 1.387 . S
C45 C50 1.390 . S
C46 C45 1.387 . S
C46 C47 1.401 . S
C46 H67 0.930 . S
C47 C46 1.401 . S
C47 C48 1.376 . S
C47 C56 1.511 . S
C48 C47 1.376 . S
C48 C49 1.392 . S
C48 H69 0.931 . S
C49 C48 1.392 . S
C49 C50 1.361 . S
C49 C51 1.500 . S
C50 C45 1.390 . S
C50 C49 1.361 . S
C50 H68 0.931 . S
C51 C49 1.500 . S
C51 C52 1.371 . S
C51 C53 1.365 . S
C52 C51 1.371 . S
C52 C62 1.386 . S
C52 H70 0.931 . S
C53 C51 1.365 . S
C53 C54 1.409 . S
C53 H71 0.929 . S
C54 C53 1.409 . S
C54 C55 1.380 . S
C54 H72 0.930 . S
C55 C54 1.380 . S
C55 C62 1.357 . S
C56 C47 1.511 . S
C56 C57 1.341 . S
C56 C58 1.371 . S
C57 C56 1.341 . S
C57 C61 1.394 . S
C57 H73 0.930 . S
C58 C56 1.371 . S
C58 C59 1.392 . S
C58 H74 0.931 . S
C59 C58 1.392 . S
C59 C60 1.331 . S
C59 H77 0.932 . S
C60 C59 1.331 . S
C60 C61 1.336 . S
C61 C57 1.394 . S
C61 C60 1.336 . S
C61 H76 0.929 . S
C62 C52 1.386 . S
C62 C55 1.357 . S
C62 H75 0.928 . S
H63 C39 0.931 . S
H64 C41 0.930 . S
H65 C43 0.929 . S
H66 C44 0.931 . S
H67 C46 0.930 . S
H68 C50 0.931 . S
H69 C48 0.931 . S
H70 C52 0.931 . S
H71 C53 0.929 . S
H72 C54 0.930 . S
H73 C57 0.930 . S
H74 C58 0.931 . S
H75 C62 0.928 . S
H76 C61 0.929 . S
H77 C59 0.932 . S
C78 C79 1.386 . S
C78 C80 1.397 . S
C78 H102 0.931 . S
C79 C78 1.386 . S
C79 C83 1.397 . S
C80 C78 1.397 . S
C80 C81 1.384 . S
C80 H103 0.930 . S
C81 C80 1.384 . S
C81 C82 1.377 . S
C81 C84 1.481 . S
C82 C81 1.377 . S
C82 C83 1.389 . S
C82 H104 0.929 . S
C83 C79 1.397 . S
C83 C82 1.389 . S
C83 H105 0.931 . S
C84 C81 1.481 . S
C84 C85 1.387 . S
C84 C89 1.390 . S
C85 C84 1.387 . S
C85 C86 1.401 1_554 S
C85 H106 0.930 . S
C86 C85 1.401 1_556 S
C86 C87 1.376 . S
C86 C95 1.511 . S
C87 C86 1.376 . S
C87 C88 1.392 . S
C87 H108 0.931 . S
C88 C87 1.392 . S
C88 C89 1.361 1_556 S
C88 C90 1.500 . S
C89 C84 1.390 . S
C89 C88 1.361 1_554 S
C89 H107 0.931 . S
C90 C88 1.500 . S
C90 C91 1.371 . S
C90 C92 1.365 . S
C91 C90 1.371 . S
C91 C101 1.386 . S
C91 H109 0.931 . S
C92 C90 1.365 . S
C92 C93 1.409 . S
C92 H110 0.929 . S
C93 C92 1.409 . S
C93 C94 1.380 . S
C93 H111 0.930 . S
C94 C93 1.380 . S
C94 C101 1.357 . S
C95 C86 1.511 . S
C95 C96 1.341 1_556 S
C95 C97 1.371 . S
C96 C95 1.341 1_554 S
C96 C100 1.394 . S
C96 H112 0.930 . S
C97 C95 1.371 . S
C97 C98 1.392 . S
C97 H113 0.931 . S
C98 C97 1.392 . S
C98 C99 1.331 . S
C98 H116 0.932 . S
C99 C98 1.331 . S
C99 C100 1.336 1_556 S
C100 C96 1.394 . S
C100 C99 1.336 1_554 S
C100 H115 0.929 . S
C101 C91 1.386 . S
C101 C94 1.357 . S
C101 H114 0.928 . S
H102 C78 0.931 . S
H103 C80 0.930 . S
H104 C82 0.929 . S
H105 C83 0.931 . S
H106 C85 0.930 . S
H107 C89 0.931 . S
H108 C87 0.931 . S
H109 C91 0.931 . S
H110 C92 0.929 . S
H111 C93 0.930 . S
H112 C96 0.930 . S
H113 C97 0.931 . S
H114 C101 0.928 . S
H115 C100 0.929 . S
H116 C98 0.932 . S
C117 C118 1.386 . S
C117 C119 1.397 . S
C117 H141 0.931 . S
C118 C117 1.386 . S
C118 C122 1.397 . S
C119 C117 1.397 . S
C119 C120 1.384 . S
C119 H142 0.930 . S
C120 C119 1.384 . S
C120 C121 1.377 . S
C120 C123 1.481 . S
C121 C120 1.377 . S
C121 C122 1.389 . S
C121 H143 0.929 . S
C122 C118 1.397 . S
C122 C121 1.389 . S
C122 H144 0.931 . S
C123 C120 1.481 . S
C123 C124 1.387 . S
C123 C128 1.390 . S
C124 C123 1.387 . S
C124 C125 1.401 . S
C124 H145 0.930 . S
C125 C124 1.401 . S
C125 C126 1.376 . S
C125 C134 1.511 . S
C126 C125 1.376 . S
C126 C127 1.392 . S
C126 H147 0.931 . S
C127 C126 1.392 . S
C127 C128 1.361 . S
C127 C129 1.500 . S
C128 C123 1.390 . S
C128 C127 1.361 . S
C128 H146 0.931 . S
C129 C127 1.500 . S
C129 C130 1.371 . S
C129 C131 1.365 . S
C130 C129 1.371 . S
C130 C140 1.386 . S
C130 H148 0.931 . S
C131 C129 1.365 . S
C131 C132 1.409 . S
C131 H149 0.929 . S
C132 C131 1.409 . S
C132 C133 1.380 . S
C132 H150 0.930 . S
C133 C132 1.380 . S
C133 C140 1.357 . S
C134 C125 1.511 . S
C134 C135 1.341 . S
C134 C136 1.371 . S
C135 C134 1.341 . S
C135 C139 1.394 . S
C135 H151 0.930 . S
C136 C134 1.371 . S
C136 C137 1.392 . S
C136 H152 0.931 . S
C137 C136 1.392 . S
C137 C138 1.331 . S
C137 H155 0.932 . S
C138 C137 1.331 . S
C138 C139 1.336 . S
C139 C135 1.394 . S
C139 C138 1.336 . S
C139 H154 0.929 . S
C140 C130 1.386 . S
C140 C133 1.357 . S
C140 H153 0.928 . S
H141 C117 0.931 . S
H142 C119 0.930 . S
H143 C121 0.929 . S
H144 C122 0.931 . S
H145 C124 0.930 . S
H146 C128 0.931 . S
H147 C126 0.931 . S
H148 C130 0.931 . S
H149 C131 0.929 . S
H150 C132 0.930 . S
H151 C135 0.930 . S
H152 C136 0.931 . S
H153 C140 0.928 . S
H154 C139 0.929 . S
H155 C137 0.932 . S
O156 Mg157 1.990 1_655 S
O156 C170 1.253 . S
Mg157 O156 1.990 1_455 S
Mg157 O160 2.180 . S
Mg157 O161 2.117 . S
Mg157 O175 2.030 . S
O158 Mg159 2.072 1_655 S
O158 C170 1.260 . S
Mg159 O158 2.072 1_455 S
Mg159 O160 2.099 . S
Mg159 O162 2.079 1_545 S
Mg159 O163 2.072 1_455 S
Mg159 O165 2.099 1_445 S
Mg159 O176 2.079 1_545 S
O160 Mg157 2.180 . S
O160 Mg159 2.099 . S
O160 C171 1.279 . S
O161 Mg157 2.117 . S
O161 C171 1.250 . S
O162 Mg159 2.079 1_565 S
O162 C172 1.264 . S
O163 Mg159 2.072 1_655 S
O163 C173 1.260 . S
Mg164 O165 2.180 . S
Mg164 O166 2.030 1_655 S
Mg164 O167 1.990 1_565 S
Mg164 O168 2.117 . S
O165 Mg159 2.099 1_665 S
O165 Mg164 2.180 . S
O165 C174 1.279 . S
O166 Mg164 2.030 1_455 S
O166 C172 1.248 . S
O167 Mg164 1.990 1_545 S
O167 C173 1.253 . S
O168 Mg164 2.117 . S
O168 C174 1.250 . S
C169 O175 1.227 1_565 S
C169 O176 1.269 . S
C170 O156 1.253 . S
C170 O158 1.260 . S
C171 O160 1.279 . S
C171 O161 1.250 . S
C172 O162 1.264 . S
C172 O166 1.248 . S
C173 O163 1.260 . S
C173 O167 1.253 . S
C174 O165 1.279 . S
C174 O168 1.250 . S
O175 Mg157 2.030 . S
O175 C169 1.227 1_545 S
O176 Mg159 2.079 1_565 S
O176 C169 1.269 . S
O177 Mg178 1.990 . S
O177 C191 1.253 . S
Mg178 O177 1.990 . S
Mg178 O181 2.180 . S
Mg178 O182 2.117 . S
Mg178 O196 2.030 . S
O179 Mg180 2.072 . S
O179 C191 1.260 . S
Mg180 O179 2.072 . S
Mg180 O181 2.099 . S
Mg180 O183 2.079 1_554 S
Mg180 O184 2.072 . S
Mg180 O186 2.099 . S
Mg180 O197 2.079 . S
O181 Mg178 2.180 . S
O181 Mg180 2.099 . S
O181 C192 1.279 . S
O182 Mg178 2.117 . S
O182 C192 1.250 . S
O183 Mg180 2.079 1_556 S
O183 C193 1.264 . S
O184 Mg180 2.072 . S
O184 C194 1.260 1_554 S
Mg185 O186 2.180 1_556 S
Mg185 O187 2.030 . S
Mg185 O188 1.990 . S
Mg185 O189 2.117 1_556 S
O186 Mg180 2.099 . S
O186 Mg185 2.180 1_554 S
O186 C195 1.279 . S
O187 Mg185 2.030 . S
O187 C193 1.248 . S
O188 Mg185 1.990 . S
O188 C194 1.253 . S
O189 Mg185 2.117 1_554 S
O189 C195 1.250 . S
C190 O196 1.248 . S
C190 O197 1.264 . S
C191 O177 1.253 . S
C191 O179 1.260 . S
C192 O181 1.279 . S
C192 O182 1.250 . S
C193 O183 1.264 . S
C193 O187 1.248 . S
C194 O184 1.260 1_556 S
C194 O188 1.253 . S
C195 O186 1.279 . S
C195 O189 1.250 . S
O196 Mg178 2.030 . S
O196 C190 1.248 . S
O197 Mg180 2.079 . S
O197 C190 1.264 . S
C198 C199 1.349 . S
C198 C200 1.327 . S
C198 H223 0.950 . S
C199 C198 1.349 . S
C199 C215 1.349 . S
C200 C198 1.327 . S
C200 C219 1.429 . S
C200 H224 0.950 . S
C201 C218 1.574 . S
C201 C220 1.368 . S
C201 H225 0.949 . S
H202 C206 0.949 . S
C203 C204 1.349 . S
C203 C205 1.327 . S
C203 H226 0.950 . S
C204 C203 1.349 . S
C204 C216 1.349 . S
C205 C203 1.327 . S
C205 C221 1.429 . S
C205 H227 0.950 . S
C206 H202 0.949 . S
C206 C214 1.574 . S
C206 C222 1.368 . S
H207 C215 0.950 . S
H208 C213 0.950 . S
H209 C214 0.949 . S
H210 C216 0.950 . S
H211 C217 0.950 . S
H212 C218 0.949 . S
C213 H208 0.950 . S
C213 C215 1.327 . S
C213 C219 1.429 . S
C214 C206 1.574 . S
C214 H209 0.949 . S
C214 C220 1.368 . S
C215 C199 1.349 . S
C215 H207 0.950 . S
C215 C213 1.327 . S
C216 C204 1.349 . S
C216 H210 0.950 . S
C216 C217 1.327 . S
C217 H211 0.950 . S
C217 C216 1.327 . S
C217 C221 1.429 . S
C218 C201 1.574 . S
C218 H212 0.949 . S
C218 C222 1.368 . S
C219 C200 1.429 . S
C219 C213 1.429 . S
C219 C220 1.523 . S
C220 C201 1.368 . S
C220 C214 1.368 . S
C220 C219 1.523 . S
C221 C205 1.429 . S
C221 C217 1.429 . S
C221 C222 1.523 . S
C222 C206 1.368 . S
C222 C218 1.368 . S
C222 C221 1.523 . S
H223 C198 0.950 . S
H224 C200 0.950 . S
H225 C201 0.949 . S
H226 C203 0.950 . S
H227 C205 0.950 . S
C228 C229 1.349 . S
C228 C230 1.327 . S
C228 H253 0.950 . S
C229 C228 1.349 . S
C229 C245 1.349 . S
C230 C228 1.327 . S
C230 C249 1.429 . S
C230 H254 0.950 . S
C231 C248 1.574 . S
C231 C250 1.368 . S
C231 H255 0.949 . S
H232 C236 0.949 . S
C233 C234 1.349 . S
C233 C235 1.327 . S
C233 H256 0.950 . S
C234 C233 1.349 . S
C234 C246 1.349 . S
C235 C233 1.327 . S
C235 C251 1.429 . S
C235 H257 0.950 . S
C236 H232 0.949 . S
C236 C244 1.574 . S
C236 C252 1.368 . S
H237 C245 0.950 . S
H238 C243 0.950 . S
H239 C244 0.949 . S
H240 C246 0.950 . S
H241 C247 0.950 . S
H242 C248 0.949 . S
C243 H238 0.950 . S
C243 C245 1.327 . S
C243 C249 1.429 . S
C244 C236 1.574 . S
C244 H239 0.949 . S
C244 C250 1.368 . S
C245 C229 1.349 . S
C245 H237 0.950 . S
C245 C243 1.327 . S
C246 C234 1.349 . S
C246 H240 0.950 . S
C246 C247 1.327 . S
C247 H241 0.950 . S
C247 C246 1.327 . S
C247 C251 1.429 . S
C248 C231 1.574 . S
C248 H242 0.949 . S
C248 C252 1.368 . S
C249 C230 1.429 . S
C249 C243 1.429 . S
C249 C250 1.523 . S
C250 C231 1.368 . S
C250 C244 1.368 . S
C250 C249 1.523 . S
C251 C235 1.429 . S
C251 C247 1.429 . S
C251 C252 1.523 . S
C252 C236 1.368 . S
C252 C248 1.368 . S
C252 C251 1.523 . S
H253 C228 0.950 . S
H254 C230 0.950 . S
H255 C231 0.949 . S
H256 C233 0.950 . S
H257 C235 0.950 . S
C258 C259 1.349 . S
C258 C260 1.327 . S
C258 H283 0.950 . S
C259 C258 1.349 . S
C259 C275 1.349 . S
C260 C258 1.327 . S
C260 C279 1.429 . S
C260 H284 0.950 . S
C261 C278 1.574 . S
C261 C280 1.368 . S
C261 H285 0.949 . S
H262 C266 0.949 . S
C263 C264 1.349 . S
C263 C265 1.327 . S
C263 H286 0.950 . S
C264 C263 1.349 . S
C264 C276 1.349 . S
C265 C263 1.327 . S
C265 C281 1.429 . S
C265 H287 0.950 . S
C266 H262 0.949 . S
C266 C274 1.574 . S
C266 C282 1.368 . S
H267 C275 0.950 . S
H268 C273 0.950 . S
H269 C274 0.949 . S
H270 C276 0.950 . S
H271 C277 0.950 . S
H272 C278 0.949 . S
C273 H268 0.950 . S
C273 C275 1.327 . S
C273 C279 1.429 . S
C274 C266 1.574 . S
C274 H269 0.949 . S
C274 C280 1.368 . S
C275 C259 1.349 . S
C275 H267 0.950 . S
C275 C273 1.327 . S
C276 C264 1.349 . S
C276 H270 0.950 . S
C276 C277 1.327 . S
C277 H271 0.950 . S
C277 C276 1.327 . S
C277 C281 1.429 . S
C278 C261 1.574 . S
C278 H272 0.949 . S
C278 C282 1.368 . S
C279 C260 1.429 . S
C279 C273 1.429 . S
C279 C280 1.523 . S
C280 C261 1.368 . S
C280 C274 1.368 . S
C280 C279 1.523 . S
C281 C265 1.429 . S
C281 C277 1.429 . S
C281 C282 1.523 . S
C282 C266 1.368 . S
C282 C278 1.368 . S
C282 C281 1.523 . S
H283 C258 0.950 . S
H284 C260 0.950 . S
H285 C261 0.949 . S
H286 C263 0.950 . S
H287 C265 0.950 . S
C288 C289 1.349 . S
C288 C290 1.327 . S
C288 H313 0.950 . S
C289 C288 1.349 . S
C289 C305 1.349 1_556 S
C290 C288 1.327 . S
C290 C309 1.429 1_556 S
C290 H314 0.950 . S
C291 C308 1.574 . S
C291 C310 1.368 . S
C291 H315 0.949 . S
H292 C296 0.949 . S
C293 C294 1.349 . S
C293 C295 1.327 . S
C293 H316 0.950 . S
C294 C293 1.349 . S
C294 C306 1.349 1_554 S
C295 C293 1.327 . S
C295 C311 1.429 . S
C295 H317 0.950 . S
C296 H292 0.949 . S
C296 C304 1.574 . S
C296 C312 1.368 1_556 S
H297 C305 0.950 . S
H298 C303 0.950 . S
H299 C304 0.949 . S
H300 C306 0.950 . S
H301 C307 0.950 . S
H302 C308 0.949 . S
C303 H298 0.950 . S
C303 C305 1.327 . S
C303 C309 1.429 . S
C304 C296 1.574 . S
C304 H299 0.949 . S
C304 C310 1.368 1_556 S
C305 C289 1.349 1_554 S
C305 H297 0.950 . S
C305 C303 1.327 . S
C306 C294 1.349 1_556 S
C306 H300 0.950 . S
C306 C307 1.327 . S
C307 H301 0.950 . S
C307 C306 1.327 . S
C307 C311 1.429 1_556 S
C308 C291 1.574 . S
C308 H302 0.949 . S
C308 C312 1.368 . S
C309 C290 1.429 1_554 S
C309 C303 1.429 . S
C309 C310 1.523 . S
C310 C291 1.368 . S
C310 C304 1.368 1_554 S
C310 C309 1.523 . S
C311 C295 1.429 . S
C311 C307 1.429 1_554 S
C311 C312 1.523 . S
C312 C296 1.368 1_554 S
C312 C308 1.368 . S
C312 C311 1.523 . S
H313 C288 0.950 . S
H314 C290 0.950 . S
H315 C291 0.949 . S
H316 C293 0.950 . S
H317 C295 0.950 . S
C318 C319 1.349 . S
C318 C320 1.327 . S
C318 H343 0.950 . S
C319 C318 1.349 . S
C319 C335 1.349 . S
C320 C318 1.327 . S
C320 C339 1.429 . S
C320 H344 0.950 . S
C321 C338 1.574 . S
C321 C340 1.368 . S
C321 H345 0.949 . S
H322 C326 0.949 . S
C323 C324 1.349 . S
C323 C325 1.327 . S
C323 H346 0.950 . S
C324 C323 1.349 . S
C324 C336 1.365 . S
C325 C323 1.327 . S
C325 C341 1.429 . S
C325 H347 0.950 . S
C326 H322 0.949 . S
C326 C334 1.574 . S
C326 C342 1.368 . S
H327 C335 0.950 . S
H328 C333 0.950 . S
H329 C334 0.949 . S
H330 C336 0.927 1_545 S
H331 C337 0.950 1_545 S
H332 C338 0.949 . S
C333 H328 0.950 . S
C333 C335 1.327 . S
C333 C339 1.429 . S
C334 C326 1.574 . S
C334 H329 0.949 . S
C334 C340 1.368 . S
C335 C319 1.349 . S
C335 H327 0.950 . S
C335 C333 1.327 . S
C336 C324 1.365 . S
C336 H330 0.927 1_565 S
C336 C337 1.334 . S
C337 H331 0.950 1_565 S
C337 C336 1.334 . S
C337 C341 1.429 . S
C338 C321 1.574 . S
C338 H332 0.949 . S
C338 C342 1.368 . S
C339 C320 1.429 . S
C339 C333 1.429 . S
C339 C340 1.523 . S
C340 C321 1.368 . S
C340 C334 1.368 . S
C340 C339 1.523 . S
C341 C325 1.429 . S
C341 C337 1.429 . S
C341 C342 1.523 . S
C342 C326 1.368 . S
C342 C338 1.368 . S
C342 C341 1.523 . S
H343 C318 0.950 . S
H344 C320 0.950 . S
H345 C321 0.949 . S
H346 C323 0.950 . S
H347 C325 0.950 . S
C348 C349 1.349 . S
C348 C350 1.327 . S
C348 H373 0.950 . S
C349 C348 1.349 . S
C349 C365 1.349 . S
C350 C348 1.327 . S
C350 C369 1.429 . S
C350 H374 0.950 . S
C351 C368 1.574 . S
C351 C370 1.368 . S
C351 H375 0.949 . S
H352 C356 0.949 . S
C353 C354 1.349 . S
C353 C355 1.327 . S
C353 H376 0.950 . S
C354 C353 1.349 . S
C354 C366 1.349 . S
C355 C353 1.327 . S
C355 C371 1.429 . S
C355 H377 0.950 . S
C356 H352 0.949 . S
C356 C364 1.574 . S
C356 C372 1.368 . S
H357 C365 0.950 . S
H358 C363 0.950 . S
H359 C364 0.949 . S
H360 C366 0.950 . S
H361 C367 0.950 . S
H362 C368 0.949 . S
C363 H358 0.950 . S
C363 C365 1.327 . S
C363 C369 1.429 . S
C364 C356 1.574 . S
C364 H359 0.949 . S
C364 C370 1.368 . S
C365 C349 1.349 . S
C365 H357 0.950 . S
C365 C363 1.327 . S
C366 C354 1.349 . S
C366 H360 0.950 . S
C366 C367 1.327 . S
C367 H361 0.950 . S
C367 C366 1.327 . S
C367 C371 1.429 . S
C368 C351 1.574 . S
C368 H362 0.949 . S
C368 C372 1.368 . S
C369 C350 1.429 . S
C369 C363 1.429 . S
C369 C370 1.523 . S
C370 C351 1.368 . S
C370 C364 1.368 . S
C370 C369 1.523 . S
C371 C355 1.429 . S
C371 C367 1.429 . S
C371 C372 1.523 . S
C372 C356 1.368 . S
C372 C368 1.368 . S
C372 C371 1.523 . S
H373 C348 0.950 . S
H374 C350 0.950 . S
H375 C351 0.949 . S
H376 C353 0.950 . S
H377 C355 0.950 . S
C378 C379 1.349 . S
C378 C380 1.327 . S
C378 H403 0.950 . S
C379 C378 1.349 . S
C379 C395 1.349 . S
C380 C378 1.327 . S
C380 C399 1.429 . S
C380 H404 0.950 . S
C381 C398 1.574 . S
C381 C400 1.368 . S
C381 H405 0.949 . S
H382 C386 0.949 . S
C383 C384 1.349 . S
C383 C385 1.327 . S
C383 H406 0.950 . S
C384 C383 1.349 . S
C384 C396 1.349 . S
C385 C383 1.327 . S
C385 C401 1.429 . S
C385 H407 0.950 . S
C386 H382 0.949 . S
C386 C394 1.574 . S
C386 C402 1.368 . S
H387 C395 0.950 . S
H388 C393 0.950 . S
H389 C394 0.949 . S
H390 C396 0.950 . S
H391 C397 0.950 . S
H392 C398 0.949 . S
C393 H388 0.950 . S
C393 C395 1.327 . S
C393 C399 1.429 . S
C394 C386 1.574 . S
C394 H389 0.949 . S
C394 C400 1.368 . S
C395 C379 1.349 . S
C395 H387 0.950 . S
C395 C393 1.327 . S
C396 C384 1.349 . S
C396 H390 0.950 . S
C396 C397 1.327 . S
C397 H391 0.950 . S
C397 C396 1.327 . S
C397 C401 1.429 . S
C398 C381 1.574 . S
C398 H392 0.949 . S
C398 C402 1.368 . S
C399 C380 1.429 . S
C399 C393 1.429 . S
C399 C400 1.523 . S
C400 C381 1.368 . S
C400 C394 1.368 . S
C400 C399 1.523 . S
C401 C385 1.429 . S
C401 C397 1.429 . S
C401 C402 1.523 . S
C402 C386 1.368 . S
C402 C398 1.368 . S
C402 C401 1.523 . S
H403 C378 0.950 . S
H404 C380 0.950 . S
H405 C381 0.949 . S
H406 C383 0.950 . S
H407 C385 0.950 . S
C408 C409 1.349 . S
C408 C410 1.327 . S
C408 H433 0.950 . S
C409 C408 1.349 . S
C409 C425 1.349 . S
C410 C408 1.327 . S
C410 C429 1.429 . S
C410 H434 0.950 . S
C411 C428 1.574 . S
C411 C430 1.368 . S
C411 H435 0.949 . S
H412 C416 0.949 . S
C413 C414 1.349 . S
C413 C415 1.327 . S
C413 H436 0.950 . S
C414 C413 1.349 . S
C414 C426 1.349 . S
C415 C413 1.327 . S
C415 C431 1.429 . S
C415 H437 0.950 . S
C416 H412 0.949 . S
C416 C424 1.574 . S
C416 C432 1.368 . S
H417 C425 0.950 . S
H418 C423 0.950 . S
H419 C424 0.949 . S
H420 C426 0.950 . S
H421 C427 0.950 . S
H422 C428 0.949 . S
C423 H418 0.950 . S
C423 C425 1.327 . S
C423 C429 1.429 . S
C424 C416 1.574 . S
C424 H419 0.949 . S
C424 C430 1.368 . S
C425 C409 1.349 . S
C425 H417 0.950 . S
C425 C423 1.327 . S
C426 C414 1.349 . S
C426 H420 0.950 . S
C426 C427 1.327 . S
C427 H421 0.950 . S
C427 C426 1.327 . S
C427 C431 1.429 . S
C428 C411 1.574 . S
C428 H422 0.949 . S
C428 C432 1.368 . S
C429 C410 1.429 . S
C429 C423 1.429 . S
C429 C430 1.523 . S
C430 C411 1.368 . S
C430 C424 1.368 . S
C430 C429 1.523 . S
C431 C415 1.429 . S
C431 C427 1.429 . S
C431 C432 1.523 . S
C432 C416 1.368 . S
C432 C428 1.368 . S
C432 C431 1.523 . S
H433 C408 0.950 . S
H434 C410 0.950 . S
H435 C411 0.949 . S
H436 C413 0.950 . S
H437 C415 0.950 . S
C438 C439 1.349 . S
C438 C440 1.327 . S
C438 H463 0.950 . S
C439 C438 1.349 . S
C439 C455 1.349 . S
C440 C438 1.327 . S
C440 C459 1.429 . S
C440 H464 0.950 . S
C441 C458 1.574 . S
C441 C460 1.368 . S
C441 H465 0.949 . S
H442 C446 0.949 . S
C443 C444 1.349 . S
C443 C445 1.327 . S
C443 H466 0.950 . S
C444 C443 1.349 . S
C444 C456 1.349 . S
C445 C443 1.327 . S
C445 C461 1.429 . S
C445 H467 0.950 . S
C446 H442 0.949 . S
C446 C454 1.574 . S
C446 C462 1.368 . S
H447 C455 0.950 . S
H448 C453 0.950 . S
H449 C454 0.949 . S
H450 C456 0.950 . S
H451 C457 0.950 . S
H452 C458 0.949 . S
C453 H448 0.950 . S
C453 C455 1.327 . S
C453 C459 1.429 . S
C454 C446 1.574 . S
C454 H449 0.949 . S
C454 C460 1.368 . S
C455 C439 1.349 . S
C455 H447 0.950 . S
C455 C453 1.327 . S
C456 C444 1.349 . S
C456 H450 0.950 . S
C456 C457 1.327 . S
C457 H451 0.950 . S
C457 C456 1.327 . S
C457 C461 1.429 . S
C458 C441 1.574 . S
C458 H452 0.949 . S
C458 C462 1.368 . S
C459 C440 1.429 . S
C459 C453 1.429 . S
C459 C460 1.523 . S
C460 C441 1.368 . S
C460 C454 1.368 . S
C460 C459 1.523 . S
C461 C445 1.429 . S
C461 C457 1.429 . S
C461 C462 1.523 . S
C462 C446 1.368 . S
C462 C458 1.368 . S
C462 C461 1.523 . S
H463 C438 0.950 . S
H464 C440 0.950 . S
H465 C441 0.949 . S
H466 C443 0.950 . S
H467 C445 0.950 . S
C468 C469 1.349 . S
C468 C470 1.327 . S
C468 H493 0.950 . S
C469 C468 1.349 . S
C469 C485 1.349 . S
C470 C468 1.327 . S
C470 C489 1.429 . S
C470 H494 0.950 . S
C471 C488 1.574 . S
C471 C490 1.368 . S
C471 H495 0.949 . S
H472 C476 0.949 . S
C473 C474 1.349 . S
C473 C475 1.327 . S
C473 H496 0.950 . S
C474 C473 1.349 . S
C474 C486 1.349 . S
C475 C473 1.327 . S
C475 C491 1.429 . S
C475 H497 0.950 . S
C476 H472 0.949 . S
C476 C484 1.574 . S
C476 C492 1.368 . S
H477 C485 0.950 . S
H478 C483 0.950 . S
H479 C484 0.949 . S
H480 C486 0.950 . S
H481 C487 0.950 . S
H482 C488 0.949 . S
C483 H478 0.950 . S
C483 C485 1.327 . S
C483 C489 1.429 . S
C484 C476 1.574 . S
C484 H479 0.949 . S
C484 C490 1.368 . S
C485 C469 1.349 . S
C485 H477 0.950 . S
C485 C483 1.327 . S
C486 C474 1.349 . S
C486 H480 0.950 . S
C486 C487 1.327 . S
C487 H481 0.950 . S
C487 C486 1.327 . S
C487 C491 1.429 . S
C488 C471 1.574 . S
C488 H482 0.949 . S
C488 C492 1.368 . S
C489 C470 1.429 . S
C489 C483 1.429 . S
C489 C490 1.523 . S
C490 C471 1.368 . S
C490 C484 1.368 . S
C490 C489 1.523 . S
C491 C475 1.429 . S
C491 C487 1.429 . S
C491 C492 1.523 . S
C492 C476 1.368 . S
C492 C488 1.368 . S
C492 C491 1.523 . S
H493 C468 0.950 . S
H494 C470 0.950 . S
H495 C471 0.949 . S
H496 C473 0.950 . S
H497 C475 0.950 . S
C498 C499 1.349 . S
C498 C500 1.327 . S
C498 H523 0.950 . S
C499 C498 1.349 . S
C499 C515 1.349 . S
C500 C498 1.327 . S
C500 C519 1.429 . S
C500 H524 0.950 . S
C501 C518 1.574 . S
C501 C520 1.368 . S
C501 H525 0.949 . S
H502 C506 0.949 . S
C503 C504 1.349 . S
C503 C505 1.327 . S
C503 H526 0.950 . S
C504 C503 1.349 . S
C504 C516 1.349 . S
C505 C503 1.327 . S
C505 C521 1.429 . S
C505 H527 0.950 . S
C506 H502 0.949 . S
C506 C514 1.574 . S
C506 C522 1.368 . S
H507 C515 0.950 . S
H508 C513 0.950 . S
H509 C514 0.949 . S
H510 C516 0.950 . S
H511 C517 0.950 . S
H512 C518 0.949 . S
C513 H508 0.950 . S
C513 C515 1.327 . S
C513 C519 1.429 . S
C514 C506 1.574 . S
C514 H509 0.949 . S
C514 C520 1.368 . S
C515 C499 1.349 . S
C515 H507 0.950 . S
C515 C513 1.327 . S
C516 C504 1.349 . S
C516 H510 0.950 . S
C516 C517 1.327 . S
C517 H511 0.950 . S
C517 C516 1.327 . S
C517 C521 1.429 . S
C518 C501 1.574 . S
C518 H512 0.949 . S
C518 C522 1.368 . S
C519 C500 1.429 . S
C519 C513 1.429 . S
C519 C520 1.523 . S
C520 C501 1.368 . S
C520 C514 1.368 . S
C520 C519 1.523 . S
C521 C505 1.429 . S
C521 C517 1.429 . S
C521 C522 1.523 . S
C522 C506 1.368 . S
C522 C518 1.368 . S
C522 C521 1.523 . S
H523 C498 0.950 . S
H524 C500 0.950 . S
H525 C501 0.949 . S
H526 C503 0.950 . S
H527 C505 0.950 . S
C528 C529 1.349 . S
C528 C530 1.327 . S
C528 H553 0.950 . S
C529 C528 1.349 . S
C529 C545 1.349 . S
C530 C528 1.327 . S
C530 C549 1.429 . S
C530 H554 0.950 . S
C531 C548 1.574 . S
C531 C550 1.368 . S
C531 H555 0.949 . S
H532 C536 0.949 . S
C533 C534 1.359 . S
C533 C535 1.330 . S
C533 H556 0.937 1_565 S
C534 C533 1.359 . S
C534 C546 1.349 . S
C535 C533 1.330 . S
C535 C551 1.429 . S
C535 H557 0.950 1_565 S
C536 H532 0.949 . S
C536 C544 1.574 . S
C536 C552 1.368 . S
H537 C545 0.950 . S
H538 C543 0.950 . S
H539 C544 0.949 . S
H540 C546 0.950 . S
H541 C547 0.950 . S
H542 C548 0.949 . S
C543 H538 0.950 . S
C543 C545 1.327 . S
C543 C549 1.429 . S
C544 C536 1.574 . S
C544 H539 0.949 . S
C544 C550 1.368 . S
C545 C529 1.349 . S
C545 H537 0.950 . S
C545 C543 1.327 . S
C546 C534 1.349 . S
C546 H540 0.950 . S
C546 C547 1.327 . S
C547 H541 0.950 . S
C547 C546 1.327 . S
C547 C551 1.429 . S
C548 C531 1.574 . S
C548 H542 0.949 . S
C548 C552 1.368 . S
C549 C530 1.429 . S
C549 C543 1.429 . S
C549 C550 1.523 . S
C550 C531 1.368 . S
C550 C544 1.368 . S
C550 C549 1.523 . S
C551 C535 1.429 . S
C551 C547 1.429 . S
C551 C552 1.523 . S
C552 C536 1.368 . S
C552 C548 1.368 . S
C552 C551 1.523 . S
H553 C528 0.950 . S
H554 C530 0.950 . S
H555 C531 0.949 . S
H556 C533 0.937 1_545 S
H557 C535 0.950 1_545 S
C204 C171 1.319 . S
C199 C138 1.498 . S
C229 C21 1.490 . S
C234 C195 1.318 . S
C259 C60 1.666 . S
C264 C174 1.466 . S
C289 C99 1.676 . S
C294 C192 1.465 . S
C324 C172 1.590 . S
C319 C16 1.603 . S
C354 C194 1.561 . S
C349 C40 1.600 . S
C379 C79 1.579 . S
C384 C173 1.511 . S
C409 C133 1.586 . S
C414 C193 1.527 . S
C444 C191 1.512 . S
C439 C55 1.579 . S
C474 C170 1.561 . S
C469 C94 1.600 . S
C504 C190 1.591 . S
C499 C118 1.605 . S
C529 C1 1.586 . S
C534 C169 1.538 . S
