# Generated by pormake.
# Topology pyr, (3,6)-cn, num edge types: 1
# Building blocks:
#     Node 0, Type 0, BuildingBlock: CUQRIR_clean_linker_1, # of connection points: 3
#     Node 1, Type 0, BuildingBlock: CUQRIR_clean_linker_1, # of connection points: 3
#     Node 2, Type 0, BuildingBlock: CUQRIR_clean_linker_1, # of connection points: 3
#     Node 3, Type 0, BuildingBlock: CUQRIR_clean_linker_1, # of connection points: 3
#     Node 4, Type 0, BuildingBlock: CUQRIR_clean_linker_1, # of connection points: 3
#     Node 5, Type 0, BuildingBlock: CUQRIR_clean_linker_1, # of connection points: 3
#     Node 6, Type 0, BuildingBlock: CUQRIR_clean_linker_1, # of connection points: 3
#     Node 7, Type 0, BuildingBlock: CUQRIR_clean_linker_1, # of connection points: 3
#     Node 8, Type 1, BuildingBlock: GEDQOX_clean_sbu_0, # of connection points: 6
#     Node 9, Type 1, BuildingBlock: GEDQOX_clean_sbu_0, # of connection points: 6
#     Node 10, Type 1, BuildingBlock: GEDQOX_clean_sbu_0, # of connection points: 6
#     Node 11, Type 1, BuildingBlock: GEDQOX_clean_sbu_0, # of connection points: 6
#     Edge 12, Type (0, 1), BuildingBlock: UVAHIK_clean_linker_0, # of connection points: 2
#     Edge 13, Type (0, 1), BuildingBlock: UVAHIK_clean_linker_0, # of connection points: 2
#     Edge 14, Type (0, 1), BuildingBlock: UVAHIK_clean_linker_0, # of connection points: 2
#     Edge 15, Type (0, 1), BuildingBlock: UVAHIK_clean_linker_0, # of connection points: 2
#     Edge 16, Type (0, 1), BuildingBlock: UVAHIK_clean_linker_0, # of connection points: 2
#     Edge 17, Type (0, 1), BuildingBlock: UVAHIK_clean_linker_0, # of connection points: 2
#     Edge 18, Type (0, 1), BuildingBlock: UVAHIK_clean_linker_0, # of connection points: 2
#     Edge 19, Type (0, 1), BuildingBlock: UVAHIK_clean_linker_0, # of connection points: 2
#     Edge 20, Type (0, 1), BuildingBlock: UVAHIK_clean_linker_0, # of connection points: 2
#     Edge 21, Type (0, 1), BuildingBlock: UVAHIK_clean_linker_0, # of connection points: 2
#     Edge 22, Type (0, 1), BuildingBlock: UVAHIK_clean_linker_0, # of connection points: 2
#     Edge 23, Type (0, 1), BuildingBlock: UVAHIK_clean_linker_0, # of connection points: 2
#     Edge 24, Type (0, 1), BuildingBlock: UVAHIK_clean_linker_0, # of connection points: 2
#     Edge 25, Type (0, 1), BuildingBlock: UVAHIK_clean_linker_0, # of connection points: 2
#     Edge 26, Type (0, 1), BuildingBlock: UVAHIK_clean_linker_0, # of connection points: 2
#     Edge 27, Type (0, 1), BuildingBlock: UVAHIK_clean_linker_0, # of connection points: 2
#     Edge 28, Type (0, 1), BuildingBlock: UVAHIK_clean_linker_0, # of connection points: 2
#     Edge 29, Type (0, 1), BuildingBlock: UVAHIK_clean_linker_0, # of connection points: 2
#     Edge 30, Type (0, 1), BuildingBlock: UVAHIK_clean_linker_0, # of connection points: 2
#     Edge 31, Type (0, 1), BuildingBlock: UVAHIK_clean_linker_0, # of connection points: 2
#     Edge 32, Type (0, 1), BuildingBlock: UVAHIK_clean_linker_0, # of connection points: 2
#     Edge 33, Type (0, 1), BuildingBlock: UVAHIK_clean_linker_0, # of connection points: 2
#     Edge 34, Type (0, 1), BuildingBlock: UVAHIK_clean_linker_0, # of connection points: 2
#     Edge 35, Type (0, 1), BuildingBlock: UVAHIK_clean_linker_0, # of connection points: 2
# Relax obj value: 0.150
# Max RMSD: 0.233
# Mean RMSD: 0.161
data_MOF--net-pyr--node1-GEDQOX_clean_sbu_0--node2-CUQRIR_clean_linker_1--edge1-UVAHIK_clean_linker_0
_symmetry_space_group_name_H-M    P1
_symmetry_Int_Tables_number       1
_symmetry_cell_setting            triclinic
loop_
_symmetry_equiv_pos_as_xyz
'x, y, z'
_cell_length_a     47.898727
_cell_length_b     47.998523
_cell_length_c     41.712234
_cell_angle_alpha  85.536941
_cell_angle_beta   93.056239
_cell_angle_gamma 90.549153
loop_
_atom_site_label
_atom_site_type_symbol
_atom_site_fract_x
_atom_site_fract_y
_atom_site_fract_z
_atom_type_partial_charge
C0 C 0.20884 0.21106 0.17673 0.0
N1 N 0.22634 0.18864 0.18237 0.0
N2 N 0.21672 0.2288 0.15177 0.0
C3 C 0.18331 0.21515 0.19538 0.0
C4 C 0.24003 0.21618 0.14232 0.0
N5 N 0.24644 0.19189 0.16095 0.0
C6 C 0.25637 0.2276 0.11435 0.0
H7 H 0.16712 0.19962 0.18879 0.0
H8 H 0.17434 0.23631 0.19029 0.0
H9 H 0.18857 0.21144 0.22159 0.0
H10 H 0.27348 0.24116 0.12331 0.0
H11 H 0.24301 0.24047 0.09655 0.0
H12 H 0.26564 0.21043 0.10216 0.0
C13 C 0.3856 0.76415 0.74894 0.0
N14 N 0.38106 0.7861 0.76641 0.0
N15 N 0.41277 0.75635 0.7524 0.0
C16 C 0.36418 0.75233 0.72582 0.0
C17 C 0.42464 0.77468 0.77228 0.0
N18 N 0.40536 0.79286 0.78054 0.0
C19 C 0.45484 0.77463 0.78406 0.0
H20 H 0.35296 0.73484 0.73862 0.0
H21 H 0.37423 0.74427 0.70508 0.0
H22 H 0.34861 0.76834 0.71656 0.0
H23 H 0.46659 0.78954 0.76808 0.0
H24 H 0.46404 0.75354 0.78372 0.0
H25 H 0.45709 0.78157 0.80883 0.0
C26 C 0.69254 0.43371 0.88914 0.0
N27 N 0.7147 0.42688 0.90972 0.0
N28 N 0.69988 0.45339 0.86598 0.0
C29 C 0.66482 0.41853 0.8889 0.0
C30 C 0.72736 0.45799 0.87305 0.0
N31 N 0.73639 0.44171 0.89939 0.0
C32 C 0.74546 0.47831 0.85414 0.0
H33 H 0.66583 0.3982 0.90345 0.0
H34 H 0.65752 0.41475 0.86391 0.0
H35 H 0.6491 0.43179 0.89892 0.0
H36 H 0.73262 0.49482 0.84051 0.0
H37 H 0.75697 0.46694 0.83685 0.0
H38 H 0.76109 0.48807 0.87047 0.0
C39 C 0.80942 0.80572 0.30905 0.0
N40 N 0.83471 0.81574 0.30042 0.0
N41 N 0.80032 0.81923 0.33387 0.0
C42 C 0.79558 0.78019 0.29629 0.0
C43 C 0.82111 0.83763 0.34006 0.0
N44 N 0.84201 0.83541 0.31995 0.0
C45 C 0.82167 0.85682 0.36693 0.0
H46 H 0.78115 0.76991 0.31351 0.0
H47 H 0.81142 0.76476 0.29086 0.0
H48 H 0.78344 0.78658 0.27356 0.0
H49 H 0.83376 0.84688 0.38814 0.0
H50 H 0.80018 0.86102 0.37397 0.0
H51 H 0.83218 0.87683 0.35953 0.0
C52 C 0.8546 0.86511 0.8872 0.0
N53 N 0.87654 0.86097 0.86827 0.0
N54 N 0.83994 0.88877 0.87709 0.0
C55 C 0.84704 0.84558 0.91541 0.0
C56 C 0.85409 0.89887 0.851 0.0
N57 N 0.87615 0.8822 0.84528 0.0
C58 C 0.84754 0.92638 0.83244 0.0
H59 H 0.82421 0.84589 0.91862 0.0
H60 H 0.85802 0.85252 0.93753 0.0
H61 H 0.85351 0.82385 0.91253 0.0
H62 H 0.83744 0.94084 0.84774 0.0
H63 H 0.83295 0.92272 0.81161 0.0
H64 H 0.8668 0.93643 0.82324 0.0
C65 C 0.73317 0.28433 0.29635 0.0
N66 N 0.74061 0.26232 0.28027 0.0
N67 N 0.70518 0.28838 0.2929 0.0
C68 C 0.75266 0.29977 0.31841 0.0
C69 C 0.69585 0.26795 0.27444 0.0
N70 N 0.71731 0.25209 0.26691 0.0
C71 C 0.66571 0.2631 0.26428 0.0
H72 H 0.76878 0.28554 0.33044 0.0
H73 H 0.74121 0.30944 0.33708 0.0
H74 H 0.76343 0.31656 0.30391 0.0
H75 H 0.65335 0.2825 0.26457 0.0
H76 H 0.65686 0.2468 0.28123 0.0
H77 H 0.66392 0.25547 0.23981 0.0
C78 C 0.36376 0.62639 0.16111 0.0
N79 N 0.39141 0.63093 0.16705 0.0
N80 N 0.35542 0.63785 0.13161 0.0
C81 C 0.34495 0.60992 0.1834 0.0
C82 C 0.37887 0.64943 0.1196 0.0
N83 N 0.4009 0.64504 0.14109 0.0
C84 C 0.37954 0.6674 0.08843 0.0
H85 H 0.32783 0.59974 0.16952 0.0
H86 H 0.33537 0.62433 0.19918 0.0
H87 H 0.35688 0.59374 0.19874 0.0
H88 H 0.35836 0.67482 0.07994 0.0
H89 H 0.38788 0.65495 0.0698 0.0
H90 H 0.3935 0.68573 0.09124 0.0
C91 C 0.24991 0.2234 0.78897 0.0
N92 N 0.2538 0.22344 0.75709 0.0
N93 N 0.26198 0.24625 0.80122 0.0
C94 C 0.23209 0.2025 0.80738 0.0
C95 C 0.27331 0.26012 0.77545 0.0
N96 N 0.2683 0.24629 0.74872 0.0
C97 C 0.28597 0.28899 0.77568 0.0
H98 H 0.20979 0.20621 0.79978 0.0
H99 H 0.23507 0.20415 0.83372 0.0
H100 H 0.23728 0.18101 0.80173 0.0
H101 H 0.30486 0.28836 0.79228 0.0
H102 H 0.27085 0.30345 0.78483 0.0
H103 H 0.29201 0.29737 0.7515 0.0
Nd104 Nd 0.08361 0.99774 0.51579 0.0
Nd105 Nd 0.04859 0.04657 0.51597 0.0
C106 C 0.10574 0.94731 0.52021 0.0
C107 C 0.11894 0.93091 0.54799 0.0
C108 C 0.12353 0.90225 0.54705 0.0
C109 C 0.13792 0.88733 0.57289 0.0
C110 C 0.14815 0.90097 0.59992 0.0
C111 C 0.14258 0.9296 0.601 0.0
C112 C 0.12796 0.94434 0.57541 0.0
C113 C 0.10817 0.03875 0.55022 0.0
C114 C 0.03756 0.99889 0.57359 0.0
C115 C 1.0266 0.09711 0.51272 0.0
C116 C 1.01254 0.11451 0.4863 0.0
C117 C 1.00827 0.143 0.48914 0.0
C118 C 0.99283 0.15894 0.46499 0.0
C119 C 0.98122 0.14652 0.43775 0.0
C120 C 0.98646 0.11808 0.43466 0.0
C121 C 1.0021 0.10229 0.45861 0.0
C122 C 1.02452 1.00605 0.48017 0.0
C123 C 0.09462 0.04526 0.45814 0.0
O124 O 0.07889 0.9515 0.52122 0.0
O125 O 0.11937 0.96994 0.51087 0.0
O126 O 0.12147 0.02367 0.5318 0.0
O127 O 0.08297 0.03129 0.55142 0.0
O128 O 0.05256 0.98326 0.55607 0.0
O129 O 0.03591 0.02609 0.56557 0.0
O130 O 0.05328 0.09282 0.5103 0.0
O131 O 1.01309 0.07439 0.52197 0.0
O132 O 1.01084 0.02117 0.49822 0.0
O133 O 0.04978 1.01335 0.48002 0.0
O134 O 0.07953 0.06094 0.47555 0.0
O135 O 0.09631 0.01805 0.46617 0.0
H136 H 0.11645 0.89154 0.52616 0.0
H137 H 0.14135 0.8652 0.57148 0.0
H138 H 0.15042 0.94098 0.62104 0.0
H139 H 0.12441 0.9665 0.5766 0.0
H140 H 1.01639 0.15277 0.51029 0.0
H141 H 0.98966 0.18088 0.46791 0.0
H142 H 0.97759 0.10764 0.41436 0.0
H143 H 1.0053 0.08027 0.45599 0.0
Nd144 Nd 0.54084 1.01183 0.0554 0.0
Nd145 Nd 0.543 0.05019 1.00604 0.0
C146 C 0.53766 0.96715 0.09674 0.0
C147 C 0.54176 0.93684 0.09925 0.0
C148 C 0.56054 0.9241 0.08028 0.0
C149 C 0.56386 0.89505 0.08342 0.0
C150 C 0.54837 0.87842 0.10549 0.0
C151 C 0.52956 0.89149 0.12426 0.0
C152 C 0.52638 0.9204 0.12122 0.0
C153 C 0.50029 0.05286 0.0632 0.0
C154 C 0.51015 0.99661 0.98866 0.0
C155 C 0.54386 0.0979 0.96951 0.0
C156 C 0.56004 0.12395 0.97231 0.0
C157 C 0.56525 0.13479 1.0024 0.0
C158 C 0.58239 0.15822 1.00534 0.0
C159 C 0.59456 0.17148 0.97822 0.0
C160 C 0.58896 0.1608 0.94801 0.0
C161 C 0.57192 0.1372 0.94513 0.0
C162 C 0.58343 1.00986 0.99693 0.0
C163 C 0.58133 0.0609 0.07117 0.0
O164 O 0.55992 0.98279 0.09411 0.0
O165 O 0.51657 0.97671 0.07825 0.0
O166 O 0.5187 0.04324 0.08494 0.0
O167 O 0.50487 0.04216 0.0369 0.0
O168 O 0.52588 0.98631 1.01342 0.0
O169 O 0.50942 0.02373 0.98196 0.0
O170 O 0.52554 0.0921 0.99114 0.0
O171 O 0.55817 0.07606 0.96382 0.0
O172 O 0.56538 0.02039 0.97512 0.0
O173 O 0.57892 0.01962 0.02394 0.0
O174 O 0.56867 0.07257 0.04492 0.0
O175 O 0.57621 0.0348 0.08012 0.0
H176 H 0.57254 0.93657 0.06308 0.0
H177 H 0.57854 0.88564 0.06866 0.0
H178 H 0.51672 0.87935 0.14086 0.0
H179 H 0.51168 0.92993 0.13588 0.0
H180 H 0.55643 0.12494 0.02383 0.0
H181 H 0.58652 0.1656 0.02903 0.0
H182 H 0.59761 0.17077 0.92653 0.0
H183 H 0.56822 0.12913 0.92172 0.0
Nd184 Nd 0.51074 0.50204 0.51001 0.0
Nd185 Nd 0.56892 0.52632 0.52097 0.0
C186 C 0.46385 0.47871 0.48833 0.0
C187 C 0.43951 0.46495 0.50257 0.0
C188 C 0.41827 0.45413 0.48267 0.0
C189 C 0.39676 0.43797 0.49613 0.0
C190 C 0.39632 0.4323 0.52972 0.0
C191 C 0.41729 0.44404 0.54954 0.0
C192 C 0.43866 0.46025 0.53607 0.0
C193 C 0.53701 0.48492 0.56815 0.0
C194 C 0.51475 0.55593 0.55083 0.0
C195 C 0.61636 0.54836 0.54225 0.0
C196 C 0.62652 0.57732 0.54037 0.0
C197 C 0.65508 0.58285 0.53766 0.0
C198 C 0.66434 0.61005 0.52951 0.0
C199 C 0.6451 0.63212 0.52387 0.0
C200 C 0.61665 0.62667 0.52852 0.0
C201 C 0.60742 0.59948 0.5365 0.0
C202 C 0.54241 0.54493 0.46334 0.0
C203 C 0.56431 0.47406 0.48124 0.0
O204 O 0.46656 0.5056 0.49097 0.0
O205 O 0.48736 0.46525 0.49424 0.0
O206 O 0.51032 0.48921 0.56447 0.0
O207 O 0.54825 0.48757 0.54157 0.0
O208 O 0.4973 0.54026 0.53439 0.0
O209 O 0.54216 0.5531 0.55078 0.0
O210 O 0.61325 0.53756 0.51447 0.0
O211 O 0.59539 0.54265 0.56063 0.0
O212 O 0.56907 0.54061 0.4669 0.0
O213 O 0.53114 0.54143 0.48986 0.0
O214 O 0.57899 0.48333 0.5058 0.0
O215 O 0.53886 0.48363 0.47365 0.0
H216 H 0.41872 0.45754 0.45672 0.0
H217 H 0.38075 0.42956 0.48022 0.0
H218 H 0.4179 0.43978 0.57544 0.0
H219 H 0.45508 0.4683 0.55175 0.0
H220 H 0.67004 0.56592 0.54015 0.0
H221 H 0.68634 0.61344 0.52572 0.0
H222 H 0.60137 0.64326 0.52476 0.0
H223 H 0.58521 0.59557 0.53811 0.0
Nd224 Nd 1.03088 0.54664 0.03795 0.0
Nd225 Nd 0.06633 0.54629 0.97471 0.0
C226 C 0.99772 0.54191 0.08637 0.0
C227 C 0.98653 0.56279 0.10637 0.0
C228 C 0.95758 0.56482 0.10907 0.0
C229 C 0.94649 0.5866 0.12474 0.0
C230 C 0.96422 0.60672 0.13811 0.0
C231 C 0.99328 0.60404 0.13629 0.0
C232 C 1.00431 0.58242 0.12045 0.0
C233 C 0.07797 0.57942 0.03678 0.0
C234 C 1.0217 0.59861 0.98048 0.0
C235 C 0.10759 0.54693 0.93551 0.0
C236 C 0.12289 0.52242 0.92715 0.0
C237 C 0.15066 0.52457 0.91822 0.0
C238 C 0.16595 0.50035 0.91457 0.0
C239 C 0.15363 0.47375 0.92008 0.0
C240 C 0.12571 0.47192 0.92884 0.0
C241 C 0.11053 0.49596 0.93222 0.0
C242 C 1.01686 0.51646 0.96764 0.0
C243 C 0.07336 0.49192 0.02973 0.0
O244 O 0.98825 0.54357 0.0562 0.0
O245 O 1.02471 0.5373 0.08982 0.0
O246 O 0.05567 0.58607 0.05074 0.0
O247 O 0.07518 0.55566 0.02623 0.0
O248 O 1.01038 0.58324 1.00457 0.0
O249 O 0.04511 0.59049 0.96792 0.0
O250 O 0.11121 0.55227 0.96569 0.0
O251 O 0.08129 0.54825 0.92515 0.0
O252 O 0.03488 0.51921 0.94546 0.0
O253 O 1.02601 0.52909 0.99113 0.0
O254 O 0.08226 0.50517 1.00294 0.0
O255 O 0.05307 0.50261 0.04582 0.0
H256 H 0.94347 0.55006 0.09815 0.0
H257 H 0.924 0.58819 0.12539 0.0
H258 H 1.00756 0.61884 0.14683 0.0
H259 H 1.02675 0.58154 0.11862 0.0
H260 H 0.16066 0.54484 0.91476 0.0
H261 H 0.18736 0.50243 0.90758 0.0
H262 H 0.11574 0.45185 0.93404 0.0
H263 H 0.08929 0.49379 0.93983 0.0
C264 C 0.198 0.1484 0.20351 0.0
C265 C 0.22162 0.16591 0.20714 0.0
C266 C 0.18607 0.13372 0.23024 0.0
C267 C 0.19743 0.10825 0.31781 0.0
H268 H 0.11671 0.11245 0.31904 0.0
C269 C 0.13189 0.04464 0.41616 0.0
C270 C 0.10967 0.05838 0.42927 0.0
C271 C 0.14632 0.05709 0.38979 0.0
C272 C 0.13927 0.111 0.31934 0.0
H273 H 0.25124 0.18085 0.24279 0.0
H274 H 0.23168 0.15398 0.28923 0.0
H275 H 0.14077 0.13358 0.27276 0.0
H276 H 0.08544 0.09648 0.42363 0.0
H277 H 0.10977 0.11762 0.37739 0.0
H278 H 0.19579 0.08525 0.36426 0.0
C279 C 0.22218 0.15167 0.26544 0.0
C280 C 0.15319 0.12303 0.29242 0.0
C281 C 0.23381 0.16683 0.23861 0.0
C282 C 0.10232 0.08501 0.41456 0.0
C283 C 0.11632 0.09719 0.38774 0.0
C284 C 0.18341 0.09564 0.34446 0.0
C285 C 0.19741 0.13557 0.26197 0.0
C286 C 0.18261 0.12206 0.29103 0.0
C287 C 0.13878 0.0836 0.37481 0.0
C288 C 0.15399 0.09686 0.34594 0.0
H289 H 0.18738 0.1478 0.17999 0.0
H290 H 0.16732 0.12147 0.22605 0.0
H291 H 0.21998 0.1068 0.31802 0.0
H292 H 0.13846 0.02423 0.42657 0.0
H293 H 0.16321 0.04563 0.38076 0.0
C294 C 0.42019 0.84104 0.78854 0.0
C295 C 0.4101 0.8152 0.80109 0.0
C296 C 0.4274 0.86197 0.80904 0.0
C297 C 0.45462 0.87002 0.89024 0.0
H298 H 0.43079 0.94716 0.87586 0.0
C299 C 0.48885 0.95008 0.97992 0.0
C300 C 0.49499 0.97742 0.96778 0.0
C301 C 0.47587 0.93118 0.96007 0.0
C302 C 0.43797 0.92581 0.88002 0.0
H303 H 0.39943 0.79043 0.84413 0.0
H304 H 0.41266 0.82687 0.88052 0.0
H305 H 0.41269 0.91265 0.8398 0.0
H306 H 0.49211 1.00659 0.92546 0.0
H307 H 0.47049 0.97326 0.89026 0.0
H308 H 0.48086 0.88294 0.92931 0.0
C309 C 0.41462 0.83116 0.85485 0.0
C310 C 0.42744 0.90605 0.85946 0.0
C311 C 0.40696 0.81047 0.83424 0.0
C312 C 0.48747 0.98566 0.93548 0.0
C313 C 0.47493 0.96655 0.91537 0.0
C314 C 0.46552 0.88977 0.91041 0.0
C315 C 0.42519 0.857 0.84246 0.0
C316 C 0.43561 0.87797 0.86449 0.0
C317 C 0.46922 0.93892 0.92733 0.0
C318 C 0.45729 0.91795 0.90572 0.0
H319 H 0.42305 0.84469 0.76297 0.0
H320 H 0.43577 0.88158 0.79894 0.0
H321 H 0.46163 0.84858 0.89428 0.0
H322 H 0.4941 0.94325 1.00487 0.0
H323 H 0.47114 0.91042 0.9705 0.0
C324 C 0.69538 0.4555 0.80689 0.0
C325 C 0.68436 0.46102 0.8362 0.0
C326 C 0.67923 0.4597 0.77816 0.0
C327 C 0.61456 0.49299 0.74086 0.0
H328 H 0.62106 0.43619 0.68043 0.0
C329 C 0.53962 0.48453 0.62813 0.0
C330 C 0.55276 0.48119 0.5994 0.0
C331 C 0.55507 0.48243 0.65759 0.0
C332 C 0.61916 0.45229 0.69699 0.0
H333 H 0.64831 0.47577 0.85872 0.0
H334 H 0.61946 0.48249 0.80844 0.0
H335 H 0.64941 0.43287 0.73074 0.0
H336 H 0.59213 0.47294 0.5787 0.0
H337 H 0.61905 0.4689 0.63018 0.0
H338 H 0.58386 0.51208 0.70701 0.0
C339 C 0.64078 0.47544 0.80751 0.0
C340 C 0.63549 0.4505 0.72575 0.0
C341 C 0.65713 0.47148 0.83627 0.0
C342 C 0.58148 0.47543 0.60057 0.0
C343 C 0.59685 0.47306 0.62999 0.0
C344 C 0.59802 0.49465 0.71213 0.0
C345 C 0.65151 0.46908 0.77818 0.0
C346 C 0.63363 0.47098 0.74789 0.0
C347 C 0.58383 0.47666 0.65877 0.0
C348 C 0.60039 0.47444 0.68982 0.0
H349 H 0.71615 0.44694 0.80636 0.0
H350 H 0.68834 0.45509 0.75597 0.0
H351 H 0.61279 0.50923 0.75725 0.0
H352 H 0.5175 0.48914 0.62779 0.0
H353 H 0.54452 0.4851 0.67948 0.0
C354 C 0.84415 0.80065 0.24717 0.0
C355 C 0.85278 0.80295 0.27948 0.0
C356 C 0.8586 0.78341 0.22833 0.0
C357 C 0.92365 0.74286 0.22439 0.0
H358 H 0.87479 0.69142 0.18055 0.0
C359 C 0.96451 0.65773 0.14787 0.0
C360 C 0.95248 0.63097 0.15287 0.0
C361 C 0.95335 0.68063 0.16136 0.0
C362 C 0.88869 0.70561 0.19271 0.0
H363 H 0.88341 0.78986 0.31744 0.0
H364 H 0.90914 0.76008 0.28452 0.0
H365 H 0.85467 0.72974 0.2065 0.0
H366 H 0.91945 0.60736 0.17637 0.0
H367 H 0.89978 0.64745 0.19958 0.0
H368 H 0.95765 0.71817 0.21123 0.0
C369 C 0.89148 0.77183 0.27348 0.0
C370 C 0.87721 0.72778 0.2072 0.0
C371 C 0.87691 0.78897 0.2923 0.0
C372 C 0.92898 0.62772 0.17164 0.0
C373 C 0.91772 0.65067 0.18495 0.0
C374 C 0.93517 0.72077 0.20966 0.0
C375 C 0.88193 0.76817 0.2416 0.0
C376 C 0.89453 0.74644 0.22356 0.0
C377 C 0.92978 0.67736 0.17993 0.0
C378 C 0.91776 0.70168 0.19409 0.0
H379 H 0.82542 0.81118 0.23706 0.0
H380 H 0.85094 0.78123 0.20374 0.0
H381 H 0.9375 0.75699 0.23672 0.0
H382 H 0.98228 0.66112 0.13303 0.0
H383 H 0.96287 0.70102 0.15677 0.0
C384 C 0.29819 0.1875 0.15594 0.0
C385 C 0.27153 0.17468 0.15791 0.0
C386 C 0.32167 0.17338 0.14588 0.0
C387 C 0.35333 0.10316 0.13601 0.0
H388 H 0.39939 0.14405 0.07451 0.0
C389 C 0.46501 0.0637 0.10452 0.0
C390 C 0.47288 0.06599 0.07217 0.0
C391 C 0.44 0.0756 0.11401 0.0
C392 C 0.38688 0.13209 0.0916 0.0
H393 H 0.24999 0.13551 0.15191 0.0
H394 H 0.29129 0.11025 0.13614 0.0
H395 H 0.3581 0.16616 0.0937 0.0
H396 H 0.45948 0.0837 0.02463 0.0
H397 H 0.41652 0.10538 0.04125 0.0
H398 H 0.38265 0.06939 0.13465 0.0
C399 C 0.2938 0.13179 0.14178 0.0
C400 C 0.36302 0.14497 0.10292 0.0
C401 C 0.26995 0.14625 0.15122 0.0
C402 C 0.4545 0.08116 0.04971 0.0
C403 C 0.42971 0.09379 0.0594 0.0
C404 C 0.37762 0.09052 0.12532 0.0
C405 C 0.32009 0.1453 0.13797 0.0
C406 C 0.34558 0.13087 0.12541 0.0
C407 C 0.42174 0.09116 0.09183 0.0
C408 C 0.39504 0.10463 0.10277 0.0
H409 H 0.30068 0.20915 0.16114 0.0
H410 H 0.34125 0.18471 0.14412 0.0
H411 H 0.34091 0.09131 0.15329 0.0
H412 H 0.47822 0.05236 0.12287 0.0
H413 H 0.43528 0.07304 0.13916 0.0
C414 C 0.35301 0.82806 0.75134 0.0
C415 C 0.35529 0.80107 0.76659 0.0
C416 C 0.32669 0.83976 0.74353 0.0
C417 C 0.25807 0.81463 0.71903 0.0
H418 H 0.23817 0.89305 0.71308 0.0
C419 C 0.18597 0.86651 0.61805 0.0
C420 C 0.16626 0.88613 0.62579 0.0
C421 C 0.20505 0.85476 0.6416 0.0
C422 C 0.24323 0.87101 0.71501 0.0
H423 H 0.33263 0.76589 0.78796 0.0
H424 H 0.28636 0.78631 0.77456 0.0
H425 H 0.27948 0.87695 0.74626 0.0
H426 H 0.15035 0.90753 0.66501 0.0
H427 H 0.18443 0.88757 0.70589 0.0
H428 H 0.22264 0.80888 0.68666 0.0
C429 C 0.30479 0.79841 0.76843 0.0
C430 C 0.26692 0.86186 0.73381 0.0
C431 C 0.33112 0.78682 0.7763 0.0
C432 C 0.16558 0.89295 0.65799 0.0
C433 C 0.18498 0.88146 0.68147 0.0
C434 C 0.23462 0.82382 0.70001 0.0
C435 C 0.30229 0.82447 0.75069 0.0
C436 C 0.27492 0.83367 0.73542 0.0
C437 C 0.20511 0.86254 0.67337 0.0
C438 C 0.22737 0.85219 0.69719 0.0
H439 H 0.37143 0.83905 0.74307 0.0
H440 H 0.32545 0.85974 0.72957 0.0
H441 H 0.26387 0.79285 0.71943 0.0
H442 H 0.18755 0.86109 0.5935 0.0
H443 H 0.22061 0.84048 0.63461 0.0
C444 C 0.77302 0.44765 0.94187 0.0
C445 C 0.76483 0.43864 0.91165 0.0
C446 C 0.80145 0.4497 0.95113 0.0
C447 C 0.86759 0.46198 0.91225 0.0
H448 H 0.90143 0.44997 0.99868 0.0
C449 C 0.98332 0.48691 0.93758 0.0
C450 C 0.9899 0.50162 0.96477 0.0
C451 C 0.95707 0.47448 0.93335 0.0
C452 C 0.89221 0.45354 0.97446 0.0
H453 H 0.77888 0.42234 0.86854 0.0
H454 H 0.82861 0.42526 0.88474 0.0
H455 H 0.85289 0.43554 0.98777 0.0
H456 H 0.97478 0.51402 1.00942 0.0
H457 H 0.92851 0.49293 1.00181 0.0
H458 H 0.90627 0.48067 0.89894 0.0
C459 C 0.81337 0.4315 0.90104 0.0
C460 C 0.86446 0.44524 0.96822 0.0
C461 C 0.78506 0.42966 0.8918 0.0
C462 C 0.97014 0.50288 0.98824 0.0
C463 C 0.94374 0.4906 0.98394 0.0
C464 C 0.89516 0.4703 0.91847 0.0
C465 C 0.82193 0.4426 0.93023 0.0
C466 C 0.85184 0.4495 0.93703 0.0
C467 C 0.93672 0.47672 0.95611 0.0
C468 C 0.9078 0.46633 0.94964 0.0
H469 H 0.7575 0.45467 0.95734 0.0
H470 H 0.80735 0.45842 0.97371 0.0
H471 H 0.85832 0.46622 0.88813 0.0
H472 H 0.99832 0.48538 0.91926 0.0
H473 H 0.95256 0.46346 0.91196 0.0
C474 C 0.75112 0.80819 0.34435 0.0
C475 C 0.77921 0.80964 0.35534 0.0
C476 C 0.73121 0.79593 0.36449 0.0
C477 C 0.71995 0.77045 0.44953 0.0
H478 H 0.6742 0.71386 0.41051 0.0
C479 C 0.68011 0.67138 0.51953 0.0
C480 C 0.65429 0.65981 0.50971 0.0
C481 C 0.69048 0.69534 0.5029 0.0
C482 C 0.68632 0.72997 0.42175 0.0
H483 H 0.80877 0.79994 0.39554 0.0
H484 H 0.77428 0.77866 0.43081 0.0
H485 H 0.70102 0.7464 0.3766 0.0
H486 H 0.61854 0.66512 0.47558 0.0
H487 H 0.63638 0.70718 0.44711 0.0
H488 H 0.7061 0.7531 0.49487 0.0
C489 C 0.76727 0.7874 0.40705 0.0
C490 C 0.7017 0.74867 0.40226 0.0
C491 C 0.78706 0.79952 0.38693 0.0
C492 C 0.63839 0.6736 0.48401 0.0
C493 C 0.64874 0.69754 0.46742 0.0
C494 C 0.70458 0.7517 0.46905 0.0
C495 C 0.73921 0.78498 0.3959 0.0
C496 C 0.71931 0.76858 0.41601 0.0
C497 C 0.67524 0.70821 0.4761 0.0
C498 C 0.68821 0.73077 0.45542 0.0
H499 H 0.74484 0.81583 0.31995 0.0
H500 H 0.70972 0.79448 0.35529 0.0
H501 H 0.73301 0.78588 0.46076 0.0
H502 H 0.6927 0.66143 0.53945 0.0
H503 H 0.71108 0.70292 0.51006 0.0
C504 C 0.18934 0.25782 0.10815 0.0
C505 C 0.20336 0.25518 0.13883 0.0
C506 C 0.17544 0.28288 0.09637 0.0
C507 C 0.14756 0.35148 0.12326 0.0
H508 H 0.14045 0.37225 0.03168 0.0
C509 C 0.07986 0.44904 0.07086 0.0
C510 C 0.08734 0.46428 0.04218 0.0
C511 C 0.09352 0.42376 0.08243 0.0
C512 C 0.14226 0.3672 0.05744 0.0
H513 H 0.21345 0.27747 0.18095 0.0
H514 H 0.18988 0.32095 0.1607 0.0
H515 H 0.16515 0.32975 0.05151 0.0
H516 H 0.11589 0.46369 1.00361 0.0
H517 H 0.13947 0.42058 0.02353 0.0
H518 H 0.12522 0.38925 0.12923 0.0
C519 C 0.18909 0.30365 0.14553 0.0
C520 C 0.15634 0.34219 0.06897 0.0
C521 C 0.20298 0.2786 0.15724 0.0
C522 C 0.10907 0.45293 0.02563 0.0
C523 C 0.12269 0.42771 0.03715 0.0
C524 C 0.13345 0.37647 0.11172 0.0
C525 C 0.17482 0.30649 0.11478 0.0
C526 C 0.15945 0.33362 0.10223 0.0
C527 C 0.11537 0.4124 0.06592 0.0
C528 C 0.13043 0.38509 0.07847 0.0
H529 H 0.18877 0.24024 0.09337 0.0
H530 H 0.16462 0.28339 0.07289 0.0
H531 H 0.1488 0.34607 0.14896 0.0
H532 H 0.06335 0.45666 0.08457 0.0
H533 H 0.08655 0.41296 0.10434 0.0
C534 C 0.72756 0.37801 0.92294 0.0
C535 C 0.71611 0.4027 0.93219 0.0
C536 C 0.721 0.35234 0.93897 0.0
C537 C 0.66057 0.32302 0.97913 0.0
H538 H 0.70275 0.25419 0.98349 0.0
C539 C 0.6061 0.21694 1.00207 0.0
C540 C 0.6128 0.19646 0.98142 0.0
C541 C 0.62254 0.24098 1.00411 0.0
C542 C 0.69071 0.27326 0.98238 0.0
H543 H 0.69141 0.42083 0.96688 0.0
H544 H 0.68057 0.37604 0.99595 0.0
H545 H 0.72698 0.29905 0.97515 0.0
H546 H 0.64286 0.1847 0.94785 0.0
H547 H 0.67097 0.2271 0.95054 0.0
H548 H 0.62421 0.2975 0.98489 0.0
C549 C 0.69408 0.37625 0.97593 0.0
C550 C 0.7046 0.29893 0.97772 0.0
C551 C 0.7005 0.40187 0.95968 0.0
C552 C 0.63681 0.20027 0.96356 0.0
C553 C 0.6532 0.22439 0.96551 0.0
C554 C 0.64675 0.29746 0.98377 0.0
C555 C 0.70289 0.35109 0.96455 0.0
C556 C 0.68956 0.3241 0.97527 0.0
C557 C 0.64601 0.24523 0.98544 0.0
C558 C 0.66151 0.27224 0.98467 0.0
H559 H 0.73933 0.3784 0.90145 0.0
H560 H 0.72804 0.33343 0.92941 0.0
H561 H 0.64816 0.34188 0.97666 0.0
H562 H 0.58767 0.21481 0.01603 0.0
H563 H 0.61659 0.25647 0.01998 0.0
C564 C 0.88637 0.84039 0.35078 0.0
C565 C 0.86909 0.84811 0.32348 0.0
C566 C 0.90983 0.85641 0.35847 0.0
C567 C 0.92987 0.92923 0.35126 0.0
H568 H 0.99663 0.90158 0.39972 0.0
C569 C 1.02691 0.97318 0.43667 0.0
C570 C 1.01093 0.98829 0.45659 0.0
C571 C 1.01375 0.95675 0.41397 0.0
C572 C 0.97836 0.90972 0.38579 0.0
H573 H 0.86308 0.8772 0.28166 0.0
H574 H 0.90443 0.90574 0.295 0.0
H575 H 0.96804 0.86983 0.36847 0.0
H576 H 0.96885 0.99812 0.46858 0.0
H577 H 0.94593 0.96954 0.42911 0.0
H578 H 0.93957 0.96882 0.36952 0.0
C579 C 0.89988 0.88726 0.31049 0.0
C580 C 0.96193 0.89153 0.36805 0.0
C581 C 0.87645 0.87098 0.3027 0.0
C582 C 0.98167 0.98675 0.45347 0.0
C583 C 0.96856 0.97058 0.43067 0.0
C584 C 0.94622 0.94736 0.36906 0.0
C585 C 0.91623 0.88067 0.3391 0.0
C586 C 0.93697 0.90087 0.35156 0.0
C587 C 0.98442 0.95545 0.41064 0.0
C588 C 0.97004 0.93753 0.38745 0.0
H589 H 0.88068 0.82285 0.36711 0.0
H590 H 0.92168 0.85092 0.38088 0.0
H591 H 0.91068 0.93708 0.33906 0.0
H592 H 0.04954 0.97403 0.43867 0.0
H593 H 1.02646 0.94527 0.39886 0.0
C594 C 0.41421 0.70818 0.73622 0.0
C595 C 0.42598 0.73504 0.73619 0.0
C596 C 0.42475 0.68843 0.71725 0.0
C597 C 0.46723 0.68404 0.64585 0.0
H598 H 0.46426 0.60452 0.67057 0.0
C599 C 0.52054 0.59994 0.57861 0.0
C600 C 0.50369 0.57715 0.57046 0.0
C601 C 0.51087 0.61939 0.59852 0.0
C602 C 0.465 0.62668 0.66334 0.0
H603 H 0.45859 0.76213 0.71749 0.0
H604 H 0.47827 0.72721 0.68576 0.0
H605 H 0.44988 0.63765 0.70794 0.0
H606 H 0.46352 0.55681 0.5767 0.0
H607 H 0.44681 0.59068 0.61228 0.0
H608 H 0.48326 0.67283 0.60163 0.0
C609 C 0.46024 0.72156 0.6995 0.0
C610 C 0.45671 0.6457 0.68466 0.0
C611 C 0.44934 0.74145 0.71808 0.0
C612 C 0.47687 0.57427 0.58245 0.0
C613 C 0.4674 0.59348 0.60292 0.0
C614 C 0.47597 0.66503 0.62481 0.0
C615 C 0.44766 0.69499 0.69821 0.0
C616 C 0.45757 0.67466 0.67614 0.0
C617 C 0.48437 0.61615 0.61116 0.0
C618 C 0.47477 0.6362 0.6333 0.0
H619 H 0.39627 0.70282 0.75023 0.0
H620 H 0.41424 0.66839 0.71671 0.0
H621 H 0.46762 0.70607 0.63804 0.0
H622 H 0.54128 0.60274 0.56966 0.0
H623 H 0.52437 0.63663 0.60467 0.0
C624 C 0.883 0.89197 0.78641 0.0
C625 C 0.89459 0.88708 0.81818 0.0
C626 C 0.89924 0.90246 0.76075 0.0
C627 C 0.97323 0.91503 0.73405 0.0
H628 H 0.93725 0.96871 0.6713 0.0
C629 C 1.02685 0.95765 0.61449 0.0
C630 C 1.02233 0.9857 0.60242 0.0
C631 C 1.01239 0.94538 0.64098 0.0
C632 C 0.94793 0.9539 0.68851 0.0
H633 H 0.93333 0.889 0.84692 0.0
H634 H 0.96198 0.90644 0.80214 0.0
H635 H 0.91124 0.94783 0.71586 0.0
H636 H 0.99833 0.02243 0.60993 0.0
H637 H 0.97321 1.00125 0.65531 0.0
H638 H 1.00998 0.92122 0.70653 0.0
C639 C 0.94003 0.90221 0.797 0.0
C640 C 0.93272 0.9415 0.71423 0.0
C641 C 0.92359 0.8919 0.8229 0.0
C642 C 1.00266 1.00086 0.6181 0.0
C643 C 0.98795 0.9885 0.6443 0.0
C644 C 0.98838 0.92718 0.70801 0.0
C645 C 0.92807 0.90844 0.76541 0.0
C646 C 0.94492 0.92174 0.73771 0.0
C647 C 0.9924 0.96042 0.65645 0.0
C648 C 0.97613 0.94702 0.6846 0.0
H649 H 0.86085 0.88857 0.78161 0.0
H650 H 0.88894 0.90614 0.73708 0.0
H651 H 0.98371 0.89995 0.75112 0.0
H652 H 0.04168 0.94501 0.60342 0.0
H653 H 1.01656 0.92374 0.64893 0.0
C654 C 0.70511 0.20279 0.26345 0.0
C655 C 0.71485 0.22796 0.2488 0.0
C656 C 0.69667 0.18102 0.24481 0.0
C657 C 0.69268 0.15818 0.16076 0.0
H658 H 0.62447 0.12246 0.18956 0.0
C659 C 0.61151 0.10306 0.07851 0.0
C660 C 0.60086 0.07729 0.09094 0.0
C661 C 0.62928 0.11891 0.09771 0.0
C662 C 0.6437 0.13198 0.18139 0.0
H663 H 0.72405 0.2505 0.20383 0.0
H664 H 0.70832 0.21293 0.17064 0.0
H665 H 0.64953 0.15413 0.22354 0.0
H666 H 0.60095 0.0476 0.13292 0.0
H667 H 0.63162 0.07551 0.16654 0.0
H668 H 0.68563 0.13682 0.11768 0.0
C669 C 0.70811 0.20931 0.19656 0.0
C670 C 0.65825 0.15004 0.20097 0.0
C671 C 0.71711 0.23086 0.21541 0.0
C672 C 0.60875 0.06742 0.12269 0.0
C673 C 0.62623 0.08339 0.14197 0.0
C674 C 0.67783 0.14035 0.14092 0.0
C675 C 0.6969 0.18443 0.21099 0.0
C676 C 0.68288 0.16353 0.1909 0.0
C677 C 0.63646 0.10938 0.12976 0.0
C678 C 0.65313 0.12723 0.15104 0.0
H679 H 0.70283 0.20055 0.28922 0.0
H680 H 0.68883 0.16197 0.25687 0.0
H681 H 0.71172 0.16789 0.15236 0.0
H682 H 0.60605 0.11103 0.05402 0.0
H683 H 0.63673 0.13898 0.0878 0.0
C684 C 0.43301 0.60876 0.19527 0.0
C685 C 0.40762 0.6229 0.19629 0.0
C686 C 0.4485 0.60067 0.22377 0.0
C687 C 0.44031 0.58251 0.30909 0.0
H688 H 0.5194 0.59932 0.32017 0.0
C689 C 0.49979 0.56325 0.43212 0.0
C690 C 0.52751 0.55403 0.43264 0.0
C691 C 0.48563 0.57182 0.40296 0.0
C692 C 0.49743 0.59405 0.31732 0.0
H693 H 0.37902 0.64086 0.22731 0.0
H694 H 0.40557 0.6259 0.27732 0.0
H695 H 0.49407 0.61369 0.26931 0.0
H696 H 0.56215 0.54603 0.40339 0.0
H697 H 0.53719 0.56008 0.35228 0.0
H698 H 0.44353 0.56228 0.35655 0.0
C699 C 0.41338 0.62087 0.25458 0.0
C700 C 0.48295 0.6024 0.28824 0.0
C701 C 0.39817 0.62928 0.22611 0.0
C702 C 0.54082 0.5533 0.40358 0.0
C703 C 0.52655 0.56152 0.37435 0.0
C704 C 0.45481 0.57383 0.33797 0.0
C705 C 0.4386 0.60636 0.25368 0.0
C706 C 0.45423 0.59689 0.28401 0.0
C707 C 0.49878 0.57093 0.37367 0.0
C708 C 0.48352 0.57968 0.34258 0.0
H709 H 0.44059 0.60368 0.17245 0.0
H710 H 0.46787 0.58943 0.2225 0.0
H711 H 0.41821 0.57769 0.3062 0.0
H712 H 0.48912 0.56409 0.45429 0.0
H713 H 0.46446 0.57941 0.40347 0.0
C714 C 0.22719 0.26456 0.83496 0.0
C715 C 0.25518 0.25878 0.82998 0.0
C716 C 0.22053 0.28275 0.85781 0.0
C717 C 0.24957 0.34538 0.88874 0.0
H718 H 0.17972 0.34406 0.93172 0.0
C719 C 0.19763 0.44516 0.92888 0.0
C720 C 0.16956 0.44774 0.9173 0.0
C721 C 0.21186 0.41995 0.92762 0.0
C722 C 0.19945 0.34466 0.9201 0.0
H723 H 0.29808 0.2655 0.84635 0.0
H724 H 0.28654 0.29796 0.88634 0.0
H725 H 0.19865 0.30056 0.91549 0.0
H726 H 0.13483 0.42616 0.89428 0.0
H727 H 0.15941 0.38239 0.89252 0.0
H728 H 0.24951 0.38973 0.89177 0.0
C729 C 0.26976 0.28837 0.87257 0.0
C730 C 0.21029 0.3198 0.91089 0.0
C731 C 0.27637 0.26984 0.84986 0.0
C732 C 0.1562 0.42473 0.90411 0.0
C733 C 0.17026 0.39959 0.90319 0.0
C734 C 0.23875 0.37027 0.89806 0.0
C735 C 0.2418 0.29581 0.87587 0.0
C736 C 0.23471 0.32012 0.89367 0.0
C737 C 0.19814 0.39685 0.91509 0.0
C738 C 0.21289 0.37026 0.91237 0.0
H739 H 0.21056 0.25676 0.81941 0.0
H740 H 0.19881 0.28835 0.85933 0.0
H741 H 0.26834 0.34637 0.87529 0.0
H742 H 0.20842 0.46241 0.9395 0.0
H743 H 0.23342 0.41838 0.9368 0.0
C744 C 0.81309 0.90413 0.92342 0.0
C745 C 0.8147 0.90027 0.8903 0.0
C746 C 0.7889 0.91549 0.93588 0.0
C747 C 0.72054 0.9545 0.90969 0.0
H748 H 0.7018 0.93622 0.99805 0.0
C749 C 0.61295 0.98956 0.95527 0.0
C750 C 0.61025 0.99597 0.98749 0.0
C751 C 0.63766 0.97796 0.94478 0.0
C752 C 0.7066 0.94197 0.97335 0.0
H753 H 0.79082 0.9053 0.84482 0.0
H754 H 0.74915 0.92455 0.866 0.0
H755 H 0.74359 0.91643 0.97773 0.0
H756 H 0.63278 0.9942 0.03394 0.0
H757 H 0.67584 0.974 0.01588 0.0
H758 H 0.68367 0.97999 0.90522 0.0
C759 C 0.76673 0.91946 0.88271 0.0
C760 C 0.73101 0.93045 0.96146 0.0
C761 C 0.7909 0.90817 0.8703 0.0
C762 C 0.63359 0.98969 1.00898 0.0
C763 C 0.65851 0.9779 0.99844 0.0
C764 C 0.69619 0.96592 0.92152 0.0
C765 C 0.76497 0.9236 0.91588 0.0
C766 C 0.73865 0.93626 0.92918 0.0
C767 C 0.66133 0.97197 0.96588 0.0
C768 C 0.68834 0.9599 0.95363 0.0
H769 H 0.83084 0.89876 0.9398 0.0
H770 H 0.78932 0.91837 0.96137 0.0
H771 H 0.72528 0.96053 0.88504 0.0
H772 H 0.59574 0.99369 0.93768 0.0
H773 H 0.63794 0.97342 0.91979 0.0
C774 C 0.77105 0.22234 0.2972 0.0
C775 C 0.76766 0.24939 0.28239 0.0
C776 C 0.79778 0.21172 0.30515 0.0
C777 C 0.86622 0.23721 0.33023 0.0
H778 H 0.8878 0.15967 0.32871 0.0
C779 C 0.94287 0.18144 0.42403 0.0
C780 C 0.96208 0.16244 0.41381 0.0
C781 C 0.92291 0.19425 0.40225 0.0
C782 C 0.88229 0.18149 0.3289 0.0
H783 H 0.78906 0.28617 0.26281 0.0
H784 H 0.83613 0.26777 0.27698 0.0
H785 H 0.84547 0.17661 0.29826 0.0
H786 H 0.9762 0.14327 0.37211 0.0
H787 H 0.94073 0.16514 0.33428 0.0
H788 H 0.90239 0.24182 0.36189 0.0
C789 C 0.81814 0.25472 0.28237 0.0
C790 C 0.85799 0.19112 0.31166 0.0
C791 C 0.79137 0.26519 0.27415 0.0
C792 C 0.96139 0.15734 0.38098 0.0
C793 C 0.94119 0.16993 0.35926 0.0
C794 C 0.89034 0.22752 0.3477 0.0
C795 C 0.82158 0.22817 0.29879 0.0
C796 C 0.84939 0.21892 0.31273 0.0
C797 C 0.9215 0.18819 0.3698 0.0
C798 C 0.89826 0.19942 0.34781 0.0
H799 H 0.75309 0.21016 0.30465 0.0
H800 H 0.79973 0.19138 0.31824 0.0
H801 H 0.85999 0.25867 0.33179 0.0
H802 H 0.94236 0.18555 0.44915 0.0
H803 H 0.90774 0.20794 0.41116 0.0
C804 C 0.30749 0.6552 0.13221 0.0
C805 C 0.32744 0.63985 0.11783 0.0
C806 C 0.27986 0.65613 0.11974 0.0
C807 C 0.23414 0.63775 0.04888 0.0
H808 H 0.17734 0.63023 0.11193 0.0
C809 C 0.10724 0.61927 0.05492 0.0
C810 C 0.10511 0.59377 0.04055 0.0
C811 C 0.13347 0.63142 0.06102 0.0
C812 C 0.19291 0.6329 0.09402 0.0
H813 H 0.33509 0.61389 0.07935 0.0
H814 H 0.28653 0.61425 0.05803 0.0
H815 H 0.22567 0.63892 0.12952 0.0
H816 H 0.12861 0.56086 0.02177 0.0
H817 H 0.17404 0.58267 0.03087 0.0
H818 H 0.20134 0.62958 1.01379 0.0
C819 C 0.29206 0.62637 0.07828 0.0
C820 C 0.22065 0.63793 0.10402 0.0
C821 C 0.31977 0.62586 0.09052 0.0
C822 C 0.12947 0.58101 0.03169 0.0
C823 C 0.15552 0.5934 0.03711 0.0
C824 C 0.20647 0.63224 0.03898 0.0
C825 C 0.27166 0.64129 0.09295 0.0
C826 C 0.24175 0.6397 0.08169 0.0
C827 C 0.1578 0.61845 0.05228 0.0
C828 C 0.18579 0.62914 0.0616 0.0
H829 H 0.31337 0.6663 0.1532 0.0
H830 H 0.26491 0.66825 0.1313 0.0
H831 H 0.24968 0.63969 0.0309 0.0
H832 H 0.08876 0.62942 0.06219 0.0
H833 H 0.13483 0.65068 0.07295 0.0
C834 C 0.25447 0.27536 0.69967 0.0
C835 C 0.27353 0.25693 0.71651 0.0
C836 C 0.26196 0.29082 0.67168 0.0
C837 C 0.3192 0.30201 0.61397 0.0
H838 H 0.29605 0.37924 0.61333 0.0
C839 C 0.36757 0.3882 0.52965 0.0
C840 C 0.37526 0.41285 0.54413 0.0
C841 C 0.35012 0.36845 0.54501 0.0
C842 C 0.30278 0.35778 0.61316 0.0
H843 H 0.31498 0.23968 0.7178 0.0
H844 H 0.32885 0.26735 0.6695 0.0
H845 H 0.27548 0.34423 0.64999 0.0
H846 H 0.36932 0.43673 0.58527 0.0
H847 H 0.33988 0.40202 0.61254 0.0
H848 H 0.3481 0.31611 0.57881 0.0
C849 C 0.30765 0.26921 0.67683 0.0
C850 C 0.2906 0.33751 0.63387 0.0
C851 C 0.29986 0.25336 0.7045 0.0
C852 C 0.36417 0.41779 0.57367 0.0
C853 C 0.34692 0.398 0.5891 0.0
C854 C 0.33164 0.3224 0.5935 0.0
C855 C 0.28909 0.28885 0.66066 0.0
C856 C 0.29912 0.30943 0.63516 0.0
C857 C 0.34006 0.37284 0.57526 0.0
C858 C 0.32412 0.35067 0.59349 0.0
H859 H 0.23439 0.27901 0.70928 0.0
H860 H 0.24694 0.30533 0.65963 0.0
H861 H 0.32594 0.28055 0.61387 0.0
H862 H 0.37589 0.3836 0.50703 0.0
H863 H 0.34495 0.34951 0.53343 0.0
C864 C 0.88593 0.81059 0.86171 0.0
C865 C 0.89509 0.83658 0.87207 0.0
C866 C 0.90036 0.78546 0.87169 0.0
C867 C 0.9686 0.75589 0.9109 0.0
H868 H 0.92423 0.68906 0.92828 0.0
C869 C 1.0205 0.64507 0.94501 0.0
C870 C 1.00765 0.62599 0.96732 0.0
C871 C 1.00748 0.67056 0.93309 0.0
C872 C 0.93718 0.70741 0.9238 0.0
H873 H 0.92687 0.85586 0.90174 0.0
H874 H 0.95259 0.81258 0.91832 0.0
H875 H 0.90139 0.73269 0.90815 0.0
H876 H 0.97025 0.61988 0.9941 0.0
H877 H 0.94773 0.66361 0.9734 0.0
H878 H 1.0044 0.73057 0.92674 0.0
C879 C 0.93431 0.81143 0.90205 0.0
C880 C 0.92393 0.73269 0.91173 0.0
C881 C 0.91965 0.83653 0.89231 0.0
C882 C 0.98111 0.63361 0.97701 0.0
C883 C 0.96796 0.65892 0.96483 0.0
C884 C 0.9819 0.73049 0.92261 0.0
C885 C 0.9247 0.78513 0.89256 0.0
C886 C 0.93926 0.75765 0.90505 0.0
C887 C 0.98081 0.67812 0.9426 0.0
C888 C 0.96653 0.70559 0.92951 0.0
H889 H 0.86672 0.80956 0.84694 0.0
H890 H 0.8921 0.76611 0.86326 0.0
H891 H 0.98154 0.77419 0.90607 0.0
H892 H 0.04084 0.64039 0.93671 0.0
H893 H 1.0183 0.68419 0.91589 0.0
C894 C 0.43816 0.67526 0.16229 0.0
C895 C 0.4281 0.65779 0.1388 0.0
C896 C 0.46258 0.69083 0.15789 0.0
C897 C 0.4961 0.72753 0.09295 0.0
H898 H 0.55109 0.7463 0.15952 0.0
C899 C 0.55123 0.83272 0.08023 0.0
C900 C 0.55027 0.84744 0.10799 0.0
C901 C 0.54754 0.80372 0.08212 0.0
C902 C 0.53593 0.74133 0.1406 0.0
H903 H 0.43623 0.64136 0.09344 0.0
H904 H 0.47866 0.66953 0.08497 0.0
H905 H 0.52238 0.70426 0.16765 0.0
H906 H 0.54809 0.84291 0.15993 0.0
H907 H 0.54009 0.79298 0.16307 0.0
H908 H 0.50738 0.76559 0.06709 0.0
C909 C 0.4678 0.67092 0.10692 0.0
C910 C 0.51967 0.71715 0.14522 0.0
C911 C 0.44358 0.65499 0.11162 0.0
C912 C 0.5481 0.83228 0.13795 0.0
C913 C 0.54401 0.80343 0.13979 0.0
C914 C 0.51197 0.75191 0.08855 0.0
C915 C 0.47709 0.68952 0.12964 0.0
C916 C 0.49886 0.71069 0.12195 0.0
C917 C 0.54244 0.7889 0.11172 0.0
C918 C 0.5312 0.75981 0.11296 0.0
H919 H 0.42628 0.67804 0.18316 0.0
H920 H 0.469 0.70536 0.17553 0.0
H921 H 0.48002 0.72317 0.07473 0.0
H922 H 0.55303 0.84372 0.05675 0.0
H923 H 0.54721 0.79315 0.0601 0.0
C924 C 0.24844 0.17752 0.73519 0.0
C925 C 0.24013 0.20538 0.73525 0.0
C926 C 0.23401 0.15947 0.71533 0.0
C927 C 0.20954 0.12909 0.65941 0.0
H928 H 0.12944 0.13756 0.64375 0.0
C929 C 0.14914 0.06826 0.56453 0.0
C930 C 0.12213 0.05865 0.57099 0.0
C931 C 0.16306 0.08648 0.58448 0.0
C932 C 0.15174 0.13464 0.64814 0.0
H933 H 0.2101 0.23629 0.71584 0.0
H934 H 0.18584 0.20556 0.67953 0.0
H935 H 0.15466 0.16775 0.67954 0.0
H936 H 0.08824 0.06055 0.6031 0.0
H937 H 0.11292 0.09164 0.63883 0.0
H938 H 0.20646 0.09513 0.62926 0.0
C939 C 0.20309 0.19724 0.69508 0.0
C940 C 0.16633 0.15231 0.6683 0.0
C941 C 0.21729 0.21507 0.7153 0.0
C942 C 0.10908 0.06776 0.59759 0.0
C943 C 0.12319 0.08569 0.61791 0.0
C944 C 0.19491 0.11119 0.63962 0.0
C945 C 0.2111 0.1691 0.69499 0.0
C946 C 0.19547 0.14991 0.67402 0.0
C947 C 0.15045 0.09517 0.61169 0.0
C948 C 0.16584 0.11386 0.63348 0.0
H949 H 0.26583 0.16973 0.7509 0.0
H950 H 0.24049 0.13785 0.71642 0.0
H951 H 0.23199 0.12677 0.66291 0.0
H952 H 0.15953 0.06176 0.54392 0.0
H953 H 0.18369 0.09384 0.57839 0.0
C954 C 0.69282 0.33572 0.30571 0.0
C955 C 0.68874 0.30675 0.30969 0.0
C956 C 0.67753 0.35348 0.32307 0.0
C957 C 0.64065 0.35403 0.39763 0.0
H958 H 0.60854 0.42313 0.35821 0.0
C959 C 0.60249 0.44117 0.47156 0.0
C960 C 0.57686 0.45382 0.46144 0.0
C961 C 0.6148 0.42253 0.45258 0.0
C962 C 0.61722 0.40379 0.36945 0.0
H963 H 0.66594 0.2733 0.3345 0.0
H964 H 0.63892 0.30428 0.36489 0.0
H965 H 0.63227 0.39181 0.32508 0.0
H966 H 0.54397 0.45683 0.42351 0.0
H967 H 0.56562 0.42423 0.39024 0.0
H968 H 0.62571 0.36598 0.44199 0.0
C969 C 0.65391 0.31335 0.34848 0.0
C970 C 0.631 0.38603 0.35059 0.0
C971 C 0.6691 0.29568 0.331 0.0
C972 C 0.56372 0.44737 0.43198 0.0
C973 C 0.57616 0.42887 0.41285 0.0
C974 C 0.62706 0.37186 0.41651 0.0
C975 C 0.6581 0.34242 0.34485 0.0
C976 C 0.64291 0.36102 0.36453 0.0
C977 C 0.60184 0.4163 0.42297 0.0
C978 C 0.61533 0.39696 0.40265 0.0
H979 H 0.70801 0.34446 0.28936 0.0
H980 H 0.68138 0.37577 0.32006 0.0
H981 H 0.64985 0.33501 0.40908 0.0
H982 H 0.61315 0.4457 0.49414 0.0
H983 H 0.63475 0.41337 0.46081 0.0
loop_
_geom_bond_atom_site_label_1
_geom_bond_atom_site_label_2
_geom_bond_distance
_geom_bond_site_symmetry_2
_ccdc_geom_bond_type
C0 N1 1.317 . S
C0 N2 1.348 . S
C0 C3 1.485 . S
N1 C0 1.317 . S
N1 N5 1.370 . S
N2 C0 1.348 . S
N2 C4 1.346 . S
C3 C0 1.485 . S
C3 H7 0.960 . S
C3 H8 0.961 . S
C3 H9 0.960 . S
C4 N2 1.346 . S
C4 N5 1.307 . S
C4 C6 1.486 . S
N5 N1 1.370 . S
N5 C4 1.307 . S
C6 C4 1.486 . S
C6 H10 0.960 . S
C6 H11 0.960 . S
C6 H12 0.959 . S
H7 C3 0.960 . S
H8 C3 0.961 . S
H9 C3 0.960 . S
H10 C6 0.960 . S
H11 C6 0.960 . S
H12 C6 0.959 . S
C13 N14 1.317 . S
C13 N15 1.348 . S
C13 C16 1.485 . S
N14 C13 1.317 . S
N14 N18 1.370 . S
N15 C13 1.348 . S
N15 C17 1.346 . S
C16 C13 1.485 . S
C16 H20 0.960 . S
C16 H21 0.961 . S
C16 H22 0.960 . S
C17 N15 1.346 . S
C17 N18 1.307 . S
C17 C19 1.486 . S
N18 N14 1.370 . S
N18 C17 1.307 . S
C19 C17 1.486 . S
C19 H23 0.960 . S
C19 H24 0.960 . S
C19 H25 0.959 . S
H20 C16 0.960 . S
H21 C16 0.961 . S
H22 C16 0.960 . S
H23 C19 0.960 . S
H24 C19 0.960 . S
H25 C19 0.959 . S
C26 N27 1.317 . S
C26 N28 1.348 . S
C26 C29 1.485 . S
N27 C26 1.317 . S
N27 N31 1.370 . S
N28 C26 1.348 . S
N28 C30 1.346 . S
C29 C26 1.485 . S
C29 H33 0.960 . S
C29 H34 0.961 . S
C29 H35 0.960 . S
C30 N28 1.346 . S
C30 N31 1.307 . S
C30 C32 1.486 . S
N31 N27 1.370 . S
N31 C30 1.307 . S
C32 C30 1.486 . S
C32 H36 0.960 . S
C32 H37 0.960 . S
C32 H38 0.959 . S
H33 C29 0.960 . S
H34 C29 0.961 . S
H35 C29 0.960 . S
H36 C32 0.960 . S
H37 C32 0.960 . S
H38 C32 0.959 . S
C39 N40 1.317 . S
C39 N41 1.348 . S
C39 C42 1.485 . S
N40 C39 1.317 . S
N40 N44 1.370 . S
N41 C39 1.348 . S
N41 C43 1.346 . S
C42 C39 1.485 . S
C42 H46 0.960 . S
C42 H47 0.961 . S
C42 H48 0.960 . S
C43 N41 1.346 . S
C43 N44 1.307 . S
C43 C45 1.486 . S
N44 N40 1.370 . S
N44 C43 1.307 . S
C45 C43 1.486 . S
C45 H49 0.960 . S
C45 H50 0.960 . S
C45 H51 0.959 . S
H46 C42 0.960 . S
H47 C42 0.961 . S
H48 C42 0.960 . S
H49 C45 0.960 . S
H50 C45 0.960 . S
H51 C45 0.959 . S
C52 N53 1.317 . S
C52 N54 1.348 . S
C52 C55 1.485 . S
N53 C52 1.317 . S
N53 N57 1.370 . S
N54 C52 1.348 . S
N54 C56 1.346 . S
C55 C52 1.485 . S
C55 H59 0.960 . S
C55 H60 0.961 . S
C55 H61 0.960 . S
C56 N54 1.346 . S
C56 N57 1.307 . S
C56 C58 1.486 . S
N57 N53 1.370 . S
N57 C56 1.307 . S
C58 C56 1.486 . S
C58 H62 0.960 . S
C58 H63 0.960 . S
C58 H64 0.959 . S
H59 C55 0.960 . S
H60 C55 0.961 . S
H61 C55 0.960 . S
H62 C58 0.960 . S
H63 C58 0.960 . S
H64 C58 0.959 . S
C65 N66 1.317 . S
C65 N67 1.348 . S
C65 C68 1.485 . S
N66 C65 1.317 . S
N66 N70 1.370 . S
N67 C65 1.348 . S
N67 C69 1.346 . S
C68 C65 1.485 . S
C68 H72 0.960 . S
C68 H73 0.961 . S
C68 H74 0.960 . S
C69 N67 1.346 . S
C69 N70 1.307 . S
C69 C71 1.486 . S
N70 N66 1.370 . S
N70 C69 1.307 . S
C71 C69 1.486 . S
C71 H75 0.960 . S
C71 H76 0.960 . S
C71 H77 0.959 . S
H72 C68 0.960 . S
H73 C68 0.961 . S
H74 C68 0.960 . S
H75 C71 0.960 . S
H76 C71 0.960 . S
H77 C71 0.959 . S
C78 N79 1.317 . S
C78 N80 1.348 . S
C78 C81 1.485 . S
N79 C78 1.317 . S
N79 N83 1.370 . S
N80 C78 1.348 . S
N80 C82 1.346 . S
C81 C78 1.485 . S
C81 H85 0.960 . S
C81 H86 0.961 . S
C81 H87 0.960 . S
C82 N80 1.346 . S
C82 N83 1.307 . S
C82 C84 1.486 . S
N83 N79 1.370 . S
N83 C82 1.307 . S
C84 C82 1.486 . S
C84 H88 0.960 . S
C84 H89 0.960 . S
C84 H90 0.959 . S
H85 C81 0.960 . S
H86 C81 0.961 . S
H87 C81 0.960 . S
H88 C84 0.960 . S
H89 C84 0.960 . S
H90 C84 0.959 . S
C91 N92 1.317 . S
C91 N93 1.348 . S
C91 C94 1.485 . S
N92 C91 1.317 . S
N92 N96 1.370 . S
N93 C91 1.348 . S
N93 C95 1.346 . S
C94 C91 1.485 . S
C94 H98 0.960 . S
C94 H99 0.961 . S
C94 H100 0.960 . S
C95 N93 1.346 . S
C95 N96 1.307 . S
C95 C97 1.486 . S
N96 N92 1.370 . S
N96 C95 1.307 . S
C97 C95 1.486 . S
C97 H101 0.960 . S
C97 H102 0.960 . S
C97 H103 0.959 . S
H98 C94 0.960 . S
H99 C94 0.961 . S
H100 C94 0.960 . S
H101 C97 0.960 . S
H102 C97 0.960 . S
H103 C97 0.959 . S
Nd104 C106 2.836 . S
Nd104 O124 2.500 . S
Nd104 O125 2.492 . S
Nd104 O126 2.487 1_565 S
Nd104 O127 2.682 1_565 S
Nd104 O128 2.410 . S
Nd104 O133 2.414 . S
Nd104 O135 2.424 1_565 S
Nd105 C115 2.836 1_455 S
Nd105 O127 2.414 . S
Nd105 O129 2.424 1_545 S
Nd105 O130 2.500 . S
Nd105 O131 2.492 1_455 S
Nd105 O132 2.487 1_445 S
Nd105 O133 2.682 1_545 S
Nd105 O134 2.410 . S
C106 Nd104 2.836 . S
C106 C107 1.498 . S
C106 O124 1.258 . S
C106 O125 1.239 . S
C107 C106 1.498 . S
C107 C108 1.366 . S
C107 C112 1.407 . S
C108 C107 1.366 . S
C108 C109 1.392 . S
C108 H136 0.930 . S
C109 C108 1.392 . S
C109 C110 1.398 . S
C109 H137 0.929 . S
C110 C109 1.398 . S
C110 C111 1.352 . S
C111 C110 1.352 . S
C111 C112 1.384 . S
C111 H138 0.930 . S
C112 C107 1.407 . S
C112 C111 1.384 . S
C112 H139 0.929 . S
C113 O126 1.241 . S
C113 O127 1.273 . S
C114 O128 1.251 . S
C114 O129 1.268 . S
C115 Nd105 2.836 1_655 S
C115 C116 1.498 . S
C115 O130 1.258 1_655 S
C115 O131 1.239 . S
C116 C115 1.498 . S
C116 C117 1.366 . S
C116 C121 1.407 . S
C117 C116 1.366 . S
C117 C118 1.392 . S
C117 H140 0.930 1_655 S
C118 C117 1.392 . S
C118 C119 1.398 . S
C118 H141 0.929 . S
C119 C118 1.398 . S
C119 C120 1.352 . S
C120 C119 1.352 . S
C120 C121 1.384 . S
C120 H142 0.930 . S
C121 C116 1.407 . S
C121 C120 1.384 . S
C121 H143 0.929 . S
C122 O132 1.241 1_455 S
C122 O133 1.273 . S
C123 O134 1.251 . S
C123 O135 1.268 . S
O124 Nd104 2.500 . S
O124 C106 1.258 . S
O125 Nd104 2.492 . S
O125 C106 1.239 . S
O126 Nd104 2.487 1_545 S
O126 C113 1.241 . S
O127 Nd104 2.682 1_545 S
O127 Nd105 2.414 . S
O127 C113 1.273 . S
O128 Nd104 2.410 . S
O128 C114 1.251 . S
O129 Nd105 2.424 1_565 S
O129 C114 1.268 . S
O130 Nd105 2.500 . S
O130 C115 1.258 1_455 S
O131 Nd105 2.492 1_655 S
O131 C115 1.239 . S
O132 Nd105 2.487 1_665 S
O132 C122 1.241 1_655 S
O133 Nd104 2.414 . S
O133 Nd105 2.682 1_565 S
O133 C122 1.273 . S
O134 Nd105 2.410 . S
O134 C123 1.251 . S
O135 Nd104 2.424 1_545 S
O135 C123 1.268 . S
H136 C108 0.930 . S
H137 C109 0.929 . S
H138 C111 0.930 . S
H139 C112 0.929 . S
H140 C117 0.930 1_455 S
H141 C118 0.929 . S
H142 C120 0.930 . S
H143 C121 0.929 . S
Nd144 C146 2.836 . S
Nd144 O164 2.500 . S
Nd144 O165 2.492 . S
Nd144 O166 2.487 1_565 S
Nd144 O167 2.682 1_565 S
Nd144 O168 2.410 . S
Nd144 O173 2.414 . S
Nd144 O175 2.424 1_565 S
Nd145 C155 2.836 1_554 S
Nd145 O167 2.414 . S
Nd145 O169 2.424 1_544 S
Nd145 O170 2.500 . S
Nd145 O171 2.492 1_554 S
Nd145 O172 2.487 . S
Nd145 O173 2.682 1_545 S
Nd145 O174 2.410 . S
C146 Nd144 2.836 . S
C146 C147 1.498 . S
C146 O164 1.258 . S
C146 O165 1.239 . S
C147 C146 1.498 . S
C147 C148 1.366 . S
C147 C152 1.407 . S
C148 C147 1.366 . S
C148 C149 1.392 . S
C148 H176 0.930 . S
C149 C148 1.392 . S
C149 C150 1.398 . S
C149 H177 0.929 . S
C150 C149 1.398 . S
C150 C151 1.352 . S
C151 C150 1.352 . S
C151 C152 1.384 . S
C151 H178 0.930 . S
C152 C147 1.407 . S
C152 C151 1.384 . S
C152 H179 0.929 . S
C153 O166 1.241 . S
C153 O167 1.273 . S
C154 O168 1.251 . S
C154 O169 1.268 1_554 S
C155 Nd145 2.836 1_556 S
C155 C156 1.498 . S
C155 O170 1.258 1_556 S
C155 O171 1.239 . S
C156 C155 1.498 . S
C156 C157 1.376 . S
C156 C161 1.407 . S
C157 C156 1.376 . S
C157 C158 1.397 . S
C157 H180 0.915 1_556 S
C158 C157 1.397 . S
C158 C159 1.398 . S
C158 H181 0.929 1_556 S
C159 C158 1.398 . S
C159 C160 1.352 . S
C160 C159 1.352 . S
C160 C161 1.384 . S
C160 H182 0.930 . S
C161 C156 1.407 . S
C161 C160 1.384 . S
C161 H183 0.929 . S
C162 O172 1.241 1_565 S
C162 O173 1.273 . S
C163 O174 1.251 . S
C163 O175 1.268 . S
O164 Nd144 2.500 . S
O164 C146 1.258 . S
O165 Nd144 2.492 . S
O165 C146 1.239 . S
O166 Nd144 2.487 1_545 S
O166 C153 1.241 . S
O167 Nd144 2.682 1_545 S
O167 Nd145 2.414 . S
O167 C153 1.273 . S
O168 Nd144 2.410 . S
O168 C154 1.251 . S
O169 Nd145 2.424 1_566 S
O169 C154 1.268 1_556 S
O170 Nd145 2.500 . S
O170 C155 1.258 1_554 S
O171 Nd145 2.492 1_556 S
O171 C155 1.239 . S
O172 Nd145 2.487 . S
O172 C162 1.241 1_545 S
O173 Nd144 2.414 . S
O173 Nd145 2.682 1_565 S
O173 C162 1.273 . S
O174 Nd145 2.410 . S
O174 C163 1.251 . S
O175 Nd144 2.424 1_545 S
O175 C163 1.268 . S
H176 C148 0.930 . S
H177 C149 0.929 . S
H178 C151 0.930 . S
H179 C152 0.929 . S
H180 C157 0.915 1_554 S
H181 C158 0.929 1_554 S
H182 C160 0.930 . S
H183 C161 0.929 . S
Nd184 C186 2.836 . S
Nd184 O204 2.500 . S
Nd184 O205 2.492 . S
Nd184 O206 2.487 . S
Nd184 O207 2.682 . S
Nd184 O208 2.410 . S
Nd184 O213 2.414 . S
Nd184 O215 2.424 . S
Nd185 C195 2.836 . S
Nd185 O207 2.414 . S
Nd185 O209 2.424 . S
Nd185 O210 2.500 . S
Nd185 O211 2.492 . S
Nd185 O212 2.487 . S
Nd185 O213 2.682 . S
Nd185 O214 2.410 . S
C186 Nd184 2.836 . S
C186 C187 1.498 . S
C186 O204 1.258 . S
C186 O205 1.239 . S
C187 C186 1.498 . S
C187 C188 1.366 . S
C187 C192 1.407 . S
C188 C187 1.366 . S
C188 C189 1.392 . S
C188 H216 0.930 . S
C189 C188 1.392 . S
C189 C190 1.398 . S
C189 H217 0.929 . S
C190 C189 1.398 . S
C190 C191 1.352 . S
C191 C190 1.352 . S
C191 C192 1.384 . S
C191 H218 0.930 . S
C192 C187 1.407 . S
C192 C191 1.384 . S
C192 H219 0.929 . S
C193 O206 1.241 . S
C193 O207 1.273 . S
C194 O208 1.251 . S
C194 O209 1.268 . S
C195 Nd185 2.836 . S
C195 C196 1.498 . S
C195 O210 1.258 . S
C195 O211 1.239 . S
C196 C195 1.498 . S
C196 C197 1.366 . S
C196 C201 1.407 . S
C197 C196 1.366 . S
C197 C198 1.392 . S
C197 H220 0.930 . S
C198 C197 1.392 . S
C198 C199 1.398 . S
C198 H221 0.929 . S
C199 C198 1.398 . S
C199 C200 1.352 . S
C200 C199 1.352 . S
C200 C201 1.384 . S
C200 H222 0.930 . S
C201 C196 1.407 . S
C201 C200 1.384 . S
C201 H223 0.929 . S
C202 O212 1.241 . S
C202 O213 1.273 . S
C203 O214 1.251 . S
C203 O215 1.268 . S
O204 Nd184 2.500 . S
O204 C186 1.258 . S
O205 Nd184 2.492 . S
O205 C186 1.239 . S
O206 Nd184 2.487 . S
O206 C193 1.241 . S
O207 Nd184 2.682 . S
O207 Nd185 2.414 . S
O207 C193 1.273 . S
O208 Nd184 2.410 . S
O208 C194 1.251 . S
O209 Nd185 2.424 . S
O209 C194 1.268 . S
O210 Nd185 2.500 . S
O210 C195 1.258 . S
O211 Nd185 2.492 . S
O211 C195 1.239 . S
O212 Nd185 2.487 . S
O212 C202 1.241 . S
O213 Nd184 2.414 . S
O213 Nd185 2.682 . S
O213 C202 1.273 . S
O214 Nd185 2.410 . S
O214 C203 1.251 . S
O215 Nd184 2.424 . S
O215 C203 1.268 . S
H216 C188 0.930 . S
H217 C189 0.929 . S
H218 C191 0.930 . S
H219 C192 0.929 . S
H220 C197 0.930 . S
H221 C198 0.929 . S
H222 C200 0.930 . S
H223 C201 0.929 . S
Nd224 C226 2.839 . S
Nd224 O244 2.503 . S
Nd224 O245 2.493 . S
Nd224 O246 2.484 1_655 S
Nd224 O247 2.679 1_655 S
Nd224 O248 2.410 . S
Nd224 O253 2.415 1_554 S
Nd224 O255 2.422 1_655 S
Nd225 C235 2.836 . S
Nd225 O247 2.414 1_556 S
Nd225 O249 2.424 1_455 S
Nd225 O250 2.500 . S
Nd225 O251 2.492 . S
Nd225 O252 2.487 1_455 S
Nd225 O253 2.682 1_455 S
Nd225 O254 2.410 . S
C226 Nd224 2.839 . S
C226 C227 1.498 . S
C226 O244 1.258 . S
C226 O245 1.239 . S
C227 C226 1.498 . S
C227 C228 1.366 . S
C227 C232 1.407 . S
C228 C227 1.366 . S
C228 C229 1.392 . S
C228 H256 0.930 . S
C229 C228 1.392 . S
C229 C230 1.398 . S
C229 H257 0.929 . S
C230 C229 1.398 . S
C230 C231 1.352 . S
C231 C230 1.352 . S
C231 C232 1.384 . S
C231 H258 0.930 . S
C232 C227 1.407 . S
C232 C231 1.384 . S
C232 H259 0.929 . S
C233 O246 1.241 . S
C233 O247 1.273 . S
C234 O248 1.251 1_556 S
C234 O249 1.268 . S
C235 Nd225 2.836 . S
C235 C236 1.498 . S
C235 O250 1.258 . S
C235 O251 1.239 . S
C236 C235 1.498 . S
C236 C237 1.366 . S
C236 C241 1.407 . S
C237 C236 1.366 . S
C237 C238 1.392 . S
C237 H260 0.930 . S
C238 C237 1.392 . S
C238 C239 1.398 . S
C238 H261 0.929 . S
C239 C238 1.398 . S
C239 C240 1.352 . S
C240 C239 1.352 . S
C240 C241 1.384 . S
C240 H262 0.930 . S
C241 C236 1.407 . S
C241 C240 1.384 . S
C241 H263 0.929 . S
C242 O252 1.241 . S
C242 O253 1.273 . S
C243 O254 1.251 1_554 S
C243 O255 1.268 . S
O244 Nd224 2.503 . S
O244 C226 1.258 . S
O245 Nd224 2.493 . S
O245 C226 1.239 . S
O246 Nd224 2.484 1_455 S
O246 C233 1.241 . S
O247 Nd224 2.679 1_455 S
O247 Nd225 2.414 1_554 S
O247 C233 1.273 . S
O248 Nd224 2.410 . S
O248 C234 1.251 1_554 S
O249 Nd225 2.424 1_655 S
O249 C234 1.268 . S
O250 Nd225 2.500 . S
O250 C235 1.258 . S
O251 Nd225 2.492 . S
O251 C235 1.239 . S
O252 Nd225 2.487 1_655 S
O252 C242 1.241 . S
O253 Nd224 2.415 1_556 S
O253 Nd225 2.682 1_655 S
O253 C242 1.273 . S
O254 Nd225 2.410 . S
O254 C243 1.251 1_556 S
O255 Nd224 2.422 1_455 S
O255 C243 1.268 . S
H256 C228 0.930 . S
H257 C229 0.929 . S
H258 C231 0.930 . S
H259 C232 0.929 . S
H260 C237 0.930 . S
H261 C238 0.929 . S
H262 C240 0.930 . S
H263 C241 0.929 . S
C264 C265 1.349 . S
C264 C266 1.327 . S
C264 H289 0.950 . S
C265 C264 1.349 . S
C265 C281 1.349 . S
C266 C264 1.327 . S
C266 C285 1.429 . S
C266 H290 0.950 . S
C267 C284 1.574 . S
C267 C286 1.368 . S
C267 H291 0.949 . S
H268 C272 0.949 . S
C269 C270 1.349 . S
C269 C271 1.327 . S
C269 H292 0.950 . S
C270 C269 1.349 . S
C270 C282 1.349 . S
C271 C269 1.327 . S
C271 C287 1.429 . S
C271 H293 0.950 . S
C272 H268 0.949 . S
C272 C280 1.574 . S
C272 C288 1.368 . S
H273 C281 0.950 . S
H274 C279 0.950 . S
H275 C280 0.949 . S
H276 C282 0.950 . S
H277 C283 0.950 . S
H278 C284 0.949 . S
C279 H274 0.950 . S
C279 C281 1.327 . S
C279 C285 1.429 . S
C280 C272 1.574 . S
C280 H275 0.949 . S
C280 C286 1.368 . S
C281 C265 1.349 . S
C281 H273 0.950 . S
C281 C279 1.327 . S
C282 C270 1.349 . S
C282 H276 0.950 . S
C282 C283 1.327 . S
C283 H277 0.950 . S
C283 C282 1.327 . S
C283 C287 1.429 . S
C284 C267 1.574 . S
C284 H278 0.949 . S
C284 C288 1.368 . S
C285 C266 1.429 . S
C285 C279 1.429 . S
C285 C286 1.523 . S
C286 C267 1.368 . S
C286 C280 1.368 . S
C286 C285 1.523 . S
C287 C271 1.429 . S
C287 C283 1.429 . S
C287 C288 1.523 . S
C288 C272 1.368 . S
C288 C284 1.368 . S
C288 C287 1.523 . S
H289 C264 0.950 . S
H290 C266 0.950 . S
H291 C267 0.949 . S
H292 C269 0.950 . S
H293 C271 0.950 . S
C294 C295 1.349 . S
C294 C296 1.327 . S
C294 H319 0.950 . S
C295 C294 1.349 . S
C295 C311 1.349 . S
C296 C294 1.327 . S
C296 C315 1.429 . S
C296 H320 0.950 . S
C297 C314 1.574 . S
C297 C316 1.368 . S
C297 H321 0.949 . S
H298 C302 0.949 . S
C299 C300 1.349 . S
C299 C301 1.327 . S
C299 H322 0.950 . S
C300 C299 1.349 . S
C300 C312 1.349 . S
C301 C299 1.327 . S
C301 C317 1.429 . S
C301 H323 0.950 . S
C302 H298 0.949 . S
C302 C310 1.574 . S
C302 C318 1.368 . S
H303 C311 0.950 . S
H304 C309 0.950 . S
H305 C310 0.949 . S
H306 C312 0.950 . S
H307 C313 0.950 . S
H308 C314 0.949 . S
C309 H304 0.950 . S
C309 C311 1.327 . S
C309 C315 1.429 . S
C310 C302 1.574 . S
C310 H305 0.949 . S
C310 C316 1.368 . S
C311 C295 1.349 . S
C311 H303 0.950 . S
C311 C309 1.327 . S
C312 C300 1.349 . S
C312 H306 0.950 . S
C312 C313 1.327 . S
C313 H307 0.950 . S
C313 C312 1.327 . S
C313 C317 1.429 . S
C314 C297 1.574 . S
C314 H308 0.949 . S
C314 C318 1.368 . S
C315 C296 1.429 . S
C315 C309 1.429 . S
C315 C316 1.523 . S
C316 C297 1.368 . S
C316 C310 1.368 . S
C316 C315 1.523 . S
C317 C301 1.429 . S
C317 C313 1.429 . S
C317 C318 1.523 . S
C318 C302 1.368 . S
C318 C314 1.368 . S
C318 C317 1.523 . S
H319 C294 0.950 . S
H320 C296 0.950 . S
H321 C297 0.949 . S
H322 C299 0.950 . S
H323 C301 0.950 . S
C324 C325 1.349 . S
C324 C326 1.327 . S
C324 H349 0.950 . S
C325 C324 1.349 . S
C325 C341 1.349 . S
C326 C324 1.327 . S
C326 C345 1.429 . S
C326 H350 0.950 . S
C327 C344 1.574 . S
C327 C346 1.368 . S
C327 H351 0.949 . S
H328 C332 0.949 . S
C329 C330 1.349 . S
C329 C331 1.327 . S
C329 H352 0.950 . S
C330 C329 1.349 . S
C330 C342 1.349 . S
C331 C329 1.327 . S
C331 C347 1.429 . S
C331 H353 0.950 . S
C332 H328 0.949 . S
C332 C340 1.574 . S
C332 C348 1.368 . S
H333 C341 0.950 . S
H334 C339 0.950 . S
H335 C340 0.949 . S
H336 C342 0.950 . S
H337 C343 0.950 . S
H338 C344 0.949 . S
C339 H334 0.950 . S
C339 C341 1.327 . S
C339 C345 1.429 . S
C340 C332 1.574 . S
C340 H335 0.949 . S
C340 C346 1.368 . S
C341 C325 1.349 . S
C341 H333 0.950 . S
C341 C339 1.327 . S
C342 C330 1.349 . S
C342 H336 0.950 . S
C342 C343 1.327 . S
C343 H337 0.950 . S
C343 C342 1.327 . S
C343 C347 1.429 . S
C344 C327 1.574 . S
C344 H338 0.949 . S
C344 C348 1.368 . S
C345 C326 1.429 . S
C345 C339 1.429 . S
C345 C346 1.523 . S
C346 C327 1.368 . S
C346 C340 1.368 . S
C346 C345 1.523 . S
C347 C331 1.429 . S
C347 C343 1.429 . S
C347 C348 1.523 . S
C348 C332 1.368 . S
C348 C344 1.368 . S
C348 C347 1.523 . S
H349 C324 0.950 . S
H350 C326 0.950 . S
H351 C327 0.949 . S
H352 C329 0.950 . S
H353 C331 0.950 . S
C354 C355 1.349 . S
C354 C356 1.327 . S
C354 H379 0.950 . S
C355 C354 1.349 . S
C355 C371 1.349 . S
C356 C354 1.327 . S
C356 C375 1.429 . S
C356 H380 0.950 . S
C357 C374 1.574 . S
C357 C376 1.368 . S
C357 H381 0.949 . S
H358 C362 0.949 . S
C359 C360 1.349 . S
C359 C361 1.327 . S
C359 H382 0.950 . S
C360 C359 1.349 . S
C360 C372 1.349 . S
C361 C359 1.327 . S
C361 C377 1.429 . S
C361 H383 0.950 . S
C362 H358 0.949 . S
C362 C370 1.574 . S
C362 C378 1.368 . S
H363 C371 0.950 . S
H364 C369 0.950 . S
H365 C370 0.949 . S
H366 C372 0.950 . S
H367 C373 0.950 . S
H368 C374 0.949 . S
C369 H364 0.950 . S
C369 C371 1.327 . S
C369 C375 1.429 . S
C370 C362 1.574 . S
C370 H365 0.949 . S
C370 C376 1.368 . S
C371 C355 1.349 . S
C371 H363 0.950 . S
C371 C369 1.327 . S
C372 C360 1.349 . S
C372 H366 0.950 . S
C372 C373 1.327 . S
C373 H367 0.950 . S
C373 C372 1.327 . S
C373 C377 1.429 . S
C374 C357 1.574 . S
C374 H368 0.949 . S
C374 C378 1.368 . S
C375 C356 1.429 . S
C375 C369 1.429 . S
C375 C376 1.523 . S
C376 C357 1.368 . S
C376 C370 1.368 . S
C376 C375 1.523 . S
C377 C361 1.429 . S
C377 C373 1.429 . S
C377 C378 1.523 . S
C378 C362 1.368 . S
C378 C374 1.368 . S
C378 C377 1.523 . S
H379 C354 0.950 . S
H380 C356 0.950 . S
H381 C357 0.949 . S
H382 C359 0.950 . S
H383 C361 0.950 . S
C384 C385 1.349 . S
C384 C386 1.327 . S
C384 H409 0.950 . S
C385 C384 1.349 . S
C385 C401 1.349 . S
C386 C384 1.327 . S
C386 C405 1.429 . S
C386 H410 0.950 . S
C387 C404 1.574 . S
C387 C406 1.368 . S
C387 H411 0.949 . S
H388 C392 0.949 . S
C389 C390 1.349 . S
C389 C391 1.327 . S
C389 H412 0.950 . S
C390 C389 1.349 . S
C390 C402 1.349 . S
C391 C389 1.327 . S
C391 C407 1.429 . S
C391 H413 0.950 . S
C392 H388 0.949 . S
C392 C400 1.574 . S
C392 C408 1.368 . S
H393 C401 0.950 . S
H394 C399 0.950 . S
H395 C400 0.949 . S
H396 C402 0.950 . S
H397 C403 0.950 . S
H398 C404 0.949 . S
C399 H394 0.950 . S
C399 C401 1.327 . S
C399 C405 1.429 . S
C400 C392 1.574 . S
C400 H395 0.949 . S
C400 C406 1.368 . S
C401 C385 1.349 . S
C401 H393 0.950 . S
C401 C399 1.327 . S
C402 C390 1.349 . S
C402 H396 0.950 . S
C402 C403 1.327 . S
C403 H397 0.950 . S
C403 C402 1.327 . S
C403 C407 1.429 . S
C404 C387 1.574 . S
C404 H398 0.949 . S
C404 C408 1.368 . S
C405 C386 1.429 . S
C405 C399 1.429 . S
C405 C406 1.523 . S
C406 C387 1.368 . S
C406 C400 1.368 . S
C406 C405 1.523 . S
C407 C391 1.429 . S
C407 C403 1.429 . S
C407 C408 1.523 . S
C408 C392 1.368 . S
C408 C404 1.368 . S
C408 C407 1.523 . S
H409 C384 0.950 . S
H410 C386 0.950 . S
H411 C387 0.949 . S
H412 C389 0.950 . S
H413 C391 0.950 . S
C414 C415 1.349 . S
C414 C416 1.327 . S
C414 H439 0.950 . S
C415 C414 1.349 . S
C415 C431 1.349 . S
C416 C414 1.327 . S
C416 C435 1.429 . S
C416 H440 0.950 . S
C417 C434 1.574 . S
C417 C436 1.368 . S
C417 H441 0.949 . S
H418 C422 0.949 . S
C419 C420 1.349 . S
C419 C421 1.327 . S
C419 H442 0.950 . S
C420 C419 1.349 . S
C420 C432 1.349 . S
C421 C419 1.327 . S
C421 C437 1.429 . S
C421 H443 0.950 . S
C422 H418 0.949 . S
C422 C430 1.574 . S
C422 C438 1.368 . S
H423 C431 0.950 . S
H424 C429 0.950 . S
H425 C430 0.949 . S
H426 C432 0.950 . S
H427 C433 0.950 . S
H428 C434 0.949 . S
C429 H424 0.950 . S
C429 C431 1.327 . S
C429 C435 1.429 . S
C430 C422 1.574 . S
C430 H425 0.949 . S
C430 C436 1.368 . S
C431 C415 1.349 . S
C431 H423 0.950 . S
C431 C429 1.327 . S
C432 C420 1.349 . S
C432 H426 0.950 . S
C432 C433 1.327 . S
C433 H427 0.950 . S
C433 C432 1.327 . S
C433 C437 1.429 . S
C434 C417 1.574 . S
C434 H428 0.949 . S
C434 C438 1.368 . S
C435 C416 1.429 . S
C435 C429 1.429 . S
C435 C436 1.523 . S
C436 C417 1.368 . S
C436 C430 1.368 . S
C436 C435 1.523 . S
C437 C421 1.429 . S
C437 C433 1.429 . S
C437 C438 1.523 . S
C438 C422 1.368 . S
C438 C434 1.368 . S
C438 C437 1.523 . S
H439 C414 0.950 . S
H440 C416 0.950 . S
H441 C417 0.949 . S
H442 C419 0.950 . S
H443 C421 0.950 . S
C444 C445 1.349 . S
C444 C446 1.327 . S
C444 H469 0.950 . S
C445 C444 1.349 . S
C445 C461 1.349 . S
C446 C444 1.327 . S
C446 C465 1.429 . S
C446 H470 0.950 . S
C447 C464 1.574 . S
C447 C466 1.368 . S
C447 H471 0.949 . S
H448 C452 0.949 . S
C449 C450 1.349 . S
C449 C451 1.327 . S
C449 H472 0.950 . S
C450 C449 1.349 . S
C450 C462 1.349 . S
C451 C449 1.327 . S
C451 C467 1.429 . S
C451 H473 0.950 . S
C452 H448 0.949 . S
C452 C460 1.574 . S
C452 C468 1.368 . S
H453 C461 0.950 . S
H454 C459 0.950 . S
H455 C460 0.949 . S
H456 C462 0.950 1_554 S
H457 C463 0.950 . S
H458 C464 0.949 . S
C459 H454 0.950 . S
C459 C461 1.327 . S
C459 C465 1.429 . S
C460 C452 1.574 . S
C460 H455 0.949 . S
C460 C466 1.368 . S
C461 C445 1.349 . S
C461 H453 0.950 . S
C461 C459 1.327 . S
C462 C450 1.349 . S
C462 H456 0.950 1_556 S
C462 C463 1.327 . S
C463 H457 0.950 . S
C463 C462 1.327 . S
C463 C467 1.429 . S
C464 C447 1.574 . S
C464 H458 0.949 . S
C464 C468 1.368 . S
C465 C446 1.429 . S
C465 C459 1.429 . S
C465 C466 1.523 . S
C466 C447 1.368 . S
C466 C460 1.368 . S
C466 C465 1.523 . S
C467 C451 1.429 . S
C467 C463 1.429 . S
C467 C468 1.523 . S
C468 C452 1.368 . S
C468 C464 1.368 . S
C468 C467 1.523 . S
H469 C444 0.950 . S
H470 C446 0.950 . S
H471 C447 0.949 . S
H472 C449 0.950 . S
H473 C451 0.950 . S
C474 C475 1.349 . S
C474 C476 1.327 . S
C474 H499 0.950 . S
C475 C474 1.349 . S
C475 C491 1.349 . S
C476 C474 1.327 . S
C476 C495 1.429 . S
C476 H500 0.950 . S
C477 C494 1.574 . S
C477 C496 1.368 . S
C477 H501 0.949 . S
H478 C482 0.949 . S
C479 C480 1.349 . S
C479 C481 1.327 . S
C479 H502 0.950 . S
C480 C479 1.349 . S
C480 C492 1.349 . S
C481 C479 1.327 . S
C481 C497 1.429 . S
C481 H503 0.950 . S
C482 H478 0.949 . S
C482 C490 1.574 . S
C482 C498 1.368 . S
H483 C491 0.950 . S
H484 C489 0.950 . S
H485 C490 0.949 . S
H486 C492 0.950 . S
H487 C493 0.950 . S
H488 C494 0.949 . S
C489 H484 0.950 . S
C489 C491 1.327 . S
C489 C495 1.429 . S
C490 C482 1.574 . S
C490 H485 0.949 . S
C490 C496 1.368 . S
C491 C475 1.349 . S
C491 H483 0.950 . S
C491 C489 1.327 . S
C492 C480 1.349 . S
C492 H486 0.950 . S
C492 C493 1.327 . S
C493 H487 0.950 . S
C493 C492 1.327 . S
C493 C497 1.429 . S
C494 C477 1.574 . S
C494 H488 0.949 . S
C494 C498 1.368 . S
C495 C476 1.429 . S
C495 C489 1.429 . S
C495 C496 1.523 . S
C496 C477 1.368 . S
C496 C490 1.368 . S
C496 C495 1.523 . S
C497 C481 1.429 . S
C497 C493 1.429 . S
C497 C498 1.523 . S
C498 C482 1.368 . S
C498 C494 1.368 . S
C498 C497 1.523 . S
H499 C474 0.950 . S
H500 C476 0.950 . S
H501 C477 0.949 . S
H502 C479 0.950 . S
H503 C481 0.950 . S
C504 C505 1.349 . S
C504 C506 1.327 . S
C504 H529 0.950 . S
C505 C504 1.349 . S
C505 C521 1.349 . S
C506 C504 1.327 . S
C506 C525 1.429 . S
C506 H530 0.950 . S
C507 C524 1.574 . S
C507 C526 1.368 . S
C507 H531 0.949 . S
H508 C512 0.949 . S
C509 C510 1.349 . S
C509 C511 1.327 . S
C509 H532 0.950 . S
C510 C509 1.349 . S
C510 C522 1.349 . S
C511 C509 1.327 . S
C511 C527 1.429 . S
C511 H533 0.950 . S
C512 H508 0.949 . S
C512 C520 1.574 . S
C512 C528 1.368 . S
H513 C521 0.950 . S
H514 C519 0.950 . S
H515 C520 0.949 . S
H516 C522 0.950 1_556 S
H517 C523 0.950 1_556 S
H518 C524 0.949 . S
C519 H514 0.950 . S
C519 C521 1.327 . S
C519 C525 1.429 . S
C520 C512 1.574 . S
C520 H515 0.949 . S
C520 C526 1.368 . S
C521 C505 1.349 . S
C521 H513 0.950 . S
C521 C519 1.327 . S
C522 C510 1.349 . S
C522 H516 0.950 1_554 S
C522 C523 1.327 . S
C523 H517 0.950 1_554 S
C523 C522 1.327 . S
C523 C527 1.429 . S
C524 C507 1.574 . S
C524 H518 0.949 . S
C524 C528 1.368 . S
C525 C506 1.429 . S
C525 C519 1.429 . S
C525 C526 1.523 . S
C526 C507 1.368 . S
C526 C520 1.368 . S
C526 C525 1.523 . S
C527 C511 1.429 . S
C527 C523 1.429 . S
C527 C528 1.523 . S
C528 C512 1.368 . S
C528 C524 1.368 . S
C528 C527 1.523 . S
H529 C504 0.950 . S
H530 C506 0.950 . S
H531 C507 0.949 . S
H532 C509 0.950 . S
H533 C511 0.950 . S
C534 C535 1.349 . S
C534 C536 1.327 . S
C534 H559 0.950 . S
C535 C534 1.349 . S
C535 C551 1.349 . S
C536 C534 1.327 . S
C536 C555 1.429 . S
C536 H560 0.950 . S
C537 C554 1.574 . S
C537 C556 1.368 . S
C537 H561 0.949 . S
H538 C542 0.949 . S
C539 C540 1.349 . S
C539 C541 1.327 . S
C539 H562 0.950 . S
C540 C539 1.349 . S
C540 C552 1.349 . S
C541 C539 1.327 . S
C541 C557 1.429 . S
C541 H563 0.950 . S
C542 H538 0.949 . S
C542 C550 1.574 . S
C542 C558 1.368 . S
H543 C551 0.950 . S
H544 C549 0.950 . S
H545 C550 0.949 . S
H546 C552 0.950 . S
H547 C553 0.950 . S
H548 C554 0.949 . S
C549 H544 0.950 . S
C549 C551 1.327 . S
C549 C555 1.429 . S
C550 C542 1.574 . S
C550 H545 0.949 . S
C550 C556 1.368 . S
C551 C535 1.349 . S
C551 H543 0.950 . S
C551 C549 1.327 . S
C552 C540 1.349 . S
C552 H546 0.950 . S
C552 C553 1.327 . S
C553 H547 0.950 . S
C553 C552 1.327 . S
C553 C557 1.429 . S
C554 C537 1.574 . S
C554 H548 0.949 . S
C554 C558 1.368 . S
C555 C536 1.429 . S
C555 C549 1.429 . S
C555 C556 1.523 . S
C556 C537 1.368 . S
C556 C550 1.368 . S
C556 C555 1.523 . S
C557 C541 1.429 . S
C557 C553 1.429 . S
C557 C558 1.523 . S
C558 C542 1.368 . S
C558 C554 1.368 . S
C558 C557 1.523 . S
H559 C534 0.950 . S
H560 C536 0.950 . S
H561 C537 0.949 . S
H562 C539 0.950 . S
H563 C541 0.950 . S
C564 C565 1.349 . S
C564 C566 1.327 . S
C564 H589 0.950 . S
C565 C564 1.349 . S
C565 C581 1.349 . S
C566 C564 1.327 . S
C566 C585 1.429 . S
C566 H590 0.950 . S
C567 C584 1.574 . S
C567 C586 1.368 . S
C567 H591 0.949 . S
H568 C572 0.949 . S
C569 C570 1.349 1_655 S
C569 C571 1.327 . S
C569 H592 0.950 . S
C570 C569 1.349 1_455 S
C570 C582 1.349 . S
C571 C569 1.327 . S
C571 C587 1.429 . S
C571 H593 0.950 . S
C572 H568 0.949 . S
C572 C580 1.574 . S
C572 C588 1.368 . S
H573 C581 0.950 . S
H574 C579 0.950 . S
H575 C580 0.949 . S
H576 C582 0.950 . S
H577 C583 0.950 . S
H578 C584 0.949 . S
C579 H574 0.950 . S
C579 C581 1.327 . S
C579 C585 1.429 . S
C580 C572 1.574 . S
C580 H575 0.949 . S
C580 C586 1.368 . S
C581 C565 1.349 . S
C581 H573 0.950 . S
C581 C579 1.327 . S
C582 C570 1.349 . S
C582 H576 0.950 . S
C582 C583 1.327 . S
C583 H577 0.950 . S
C583 C582 1.327 . S
C583 C587 1.429 1_455 S
C584 C567 1.574 . S
C584 H578 0.949 . S
C584 C588 1.368 . S
C585 C566 1.429 . S
C585 C579 1.429 . S
C585 C586 1.523 . S
C586 C567 1.368 . S
C586 C580 1.368 . S
C586 C585 1.523 . S
C587 C571 1.429 . S
C587 C583 1.429 1_655 S
C587 C588 1.523 . S
C588 C572 1.368 . S
C588 C584 1.368 . S
C588 C587 1.523 . S
H589 C564 0.950 . S
H590 C566 0.950 . S
H591 C567 0.949 . S
H592 C569 0.950 . S
H593 C571 0.950 . S
C594 C595 1.349 . S
C594 C596 1.327 . S
C594 H619 0.950 . S
C595 C594 1.349 . S
C595 C611 1.349 . S
C596 C594 1.327 . S
C596 C615 1.429 . S
C596 H620 0.950 . S
C597 C614 1.574 . S
C597 C616 1.368 . S
C597 H621 0.949 . S
H598 C602 0.949 . S
C599 C600 1.349 . S
C599 C601 1.327 . S
C599 H622 0.950 . S
C600 C599 1.349 . S
C600 C612 1.349 . S
C601 C599 1.327 . S
C601 C617 1.429 . S
C601 H623 0.950 . S
C602 H598 0.949 . S
C602 C610 1.574 . S
C602 C618 1.368 . S
H603 C611 0.950 . S
H604 C609 0.950 . S
H605 C610 0.949 . S
H606 C612 0.950 . S
H607 C613 0.950 . S
H608 C614 0.949 . S
C609 H604 0.950 . S
C609 C611 1.327 . S
C609 C615 1.429 . S
C610 C602 1.574 . S
C610 H605 0.949 . S
C610 C616 1.368 . S
C611 C595 1.349 . S
C611 H603 0.950 . S
C611 C609 1.327 . S
C612 C600 1.349 . S
C612 H606 0.950 . S
C612 C613 1.327 . S
C613 H607 0.950 . S
C613 C612 1.327 . S
C613 C617 1.429 . S
C614 C597 1.574 . S
C614 H608 0.949 . S
C614 C618 1.368 . S
C615 C596 1.429 . S
C615 C609 1.429 . S
C615 C616 1.523 . S
C616 C597 1.368 . S
C616 C610 1.368 . S
C616 C615 1.523 . S
C617 C601 1.429 . S
C617 C613 1.429 . S
C617 C618 1.523 . S
C618 C602 1.368 . S
C618 C614 1.368 . S
C618 C617 1.523 . S
H619 C594 0.950 . S
H620 C596 0.950 . S
H621 C597 0.949 . S
H622 C599 0.950 . S
H623 C601 0.950 . S
C624 C625 1.349 . S
C624 C626 1.327 . S
C624 H649 0.950 . S
C625 C624 1.349 . S
C625 C641 1.349 . S
C626 C624 1.327 . S
C626 C645 1.429 . S
C626 H650 0.950 . S
C627 C644 1.574 . S
C627 C646 1.368 . S
C627 H651 0.949 . S
H628 C632 0.949 . S
C629 C630 1.349 . S
C629 C631 1.327 . S
C629 H652 0.950 . S
C630 C629 1.349 . S
C630 C642 1.349 1_455 S
C631 C629 1.327 . S
C631 C647 1.429 1_455 S
C631 H653 0.950 . S
C632 H628 0.949 . S
C632 C640 1.574 . S
C632 C648 1.368 . S
H633 C641 0.950 . S
H634 C639 0.950 . S
H635 C640 0.949 . S
H636 C642 0.950 . S
H637 C643 0.950 . S
H638 C644 0.928 1_455 S
C639 H634 0.950 . S
C639 C641 1.327 . S
C639 C645 1.429 . S
C640 C632 1.574 . S
C640 H635 0.949 . S
C640 C646 1.368 . S
C641 C625 1.349 . S
C641 H633 0.950 . S
C641 C639 1.327 . S
C642 C630 1.349 1_655 S
C642 H636 0.950 . S
C642 C643 1.327 . S
C643 H637 0.950 . S
C643 C642 1.327 . S
C643 C647 1.429 . S
C644 C627 1.574 . S
C644 H638 0.928 1_655 S
C644 C648 1.368 . S
C645 C626 1.429 . S
C645 C639 1.429 . S
C645 C646 1.523 . S
C646 C627 1.368 . S
C646 C640 1.368 . S
C646 C645 1.523 . S
C647 C631 1.429 1_655 S
C647 C643 1.429 . S
C647 C648 1.523 . S
C648 C632 1.368 . S
C648 C644 1.368 . S
C648 C647 1.523 . S
H649 C624 0.950 . S
H650 C626 0.950 . S
H651 C627 0.949 . S
H652 C629 0.950 . S
H653 C631 0.950 . S
C654 C655 1.349 . S
C654 C656 1.327 . S
C654 H679 0.950 . S
C655 C654 1.349 . S
C655 C671 1.349 . S
C656 C654 1.327 . S
C656 C675 1.429 . S
C656 H680 0.950 . S
C657 C674 1.574 . S
C657 C676 1.368 . S
C657 H681 0.949 . S
H658 C662 0.949 . S
C659 C660 1.349 . S
C659 C661 1.327 . S
C659 H682 0.950 . S
C660 C659 1.349 . S
C660 C672 1.349 . S
C661 C659 1.327 . S
C661 C677 1.429 . S
C661 H683 0.950 . S
C662 H658 0.949 . S
C662 C670 1.574 . S
C662 C678 1.368 . S
H663 C671 0.950 . S
H664 C669 0.950 . S
H665 C670 0.949 . S
H666 C672 0.950 . S
H667 C673 0.950 . S
H668 C674 0.949 . S
C669 H664 0.950 . S
C669 C671 1.327 . S
C669 C675 1.429 . S
C670 C662 1.574 . S
C670 H665 0.949 . S
C670 C676 1.368 . S
C671 C655 1.349 . S
C671 H663 0.950 . S
C671 C669 1.327 . S
C672 C660 1.349 . S
C672 H666 0.950 . S
C672 C673 1.327 . S
C673 H667 0.950 . S
C673 C672 1.327 . S
C673 C677 1.429 . S
C674 C657 1.574 . S
C674 H668 0.949 . S
C674 C678 1.368 . S
C675 C656 1.429 . S
C675 C669 1.429 . S
C675 C676 1.523 . S
C676 C657 1.368 . S
C676 C670 1.368 . S
C676 C675 1.523 . S
C677 C661 1.429 . S
C677 C673 1.429 . S
C677 C678 1.523 . S
C678 C662 1.368 . S
C678 C674 1.368 . S
C678 C677 1.523 . S
H679 C654 0.950 . S
H680 C656 0.950 . S
H681 C657 0.949 . S
H682 C659 0.950 . S
H683 C661 0.950 . S
C684 C685 1.349 . S
C684 C686 1.327 . S
C684 H709 0.950 . S
C685 C684 1.349 . S
C685 C701 1.349 . S
C686 C684 1.327 . S
C686 C705 1.429 . S
C686 H710 0.950 . S
C687 C704 1.574 . S
C687 C706 1.368 . S
C687 H711 0.949 . S
H688 C692 0.949 . S
C689 C690 1.349 . S
C689 C691 1.327 . S
C689 H712 0.950 . S
C690 C689 1.349 . S
C690 C702 1.349 . S
C691 C689 1.327 . S
C691 C707 1.429 . S
C691 H713 0.950 . S
C692 H688 0.949 . S
C692 C700 1.574 . S
C692 C708 1.368 . S
H693 C701 0.950 . S
H694 C699 0.950 . S
H695 C700 0.949 . S
H696 C702 0.950 . S
H697 C703 0.950 . S
H698 C704 0.949 . S
C699 H694 0.950 . S
C699 C701 1.327 . S
C699 C705 1.429 . S
C700 C692 1.574 . S
C700 H695 0.949 . S
C700 C706 1.368 . S
C701 C685 1.349 . S
C701 H693 0.950 . S
C701 C699 1.327 . S
C702 C690 1.349 . S
C702 H696 0.950 . S
C702 C703 1.327 . S
C703 H697 0.950 . S
C703 C702 1.327 . S
C703 C707 1.429 . S
C704 C687 1.574 . S
C704 H698 0.949 . S
C704 C708 1.368 . S
C705 C686 1.429 . S
C705 C699 1.429 . S
C705 C706 1.523 . S
C706 C687 1.368 . S
C706 C700 1.368 . S
C706 C705 1.523 . S
C707 C691 1.429 . S
C707 C703 1.429 . S
C707 C708 1.523 . S
C708 C692 1.368 . S
C708 C704 1.368 . S
C708 C707 1.523 . S
H709 C684 0.950 . S
H710 C686 0.950 . S
H711 C687 0.949 . S
H712 C689 0.950 . S
H713 C691 0.950 . S
C714 C715 1.349 . S
C714 C716 1.327 . S
C714 H739 0.950 . S
C715 C714 1.349 . S
C715 C731 1.349 . S
C716 C714 1.327 . S
C716 C735 1.429 . S
C716 H740 0.950 . S
C717 C734 1.574 . S
C717 C736 1.368 . S
C717 H741 0.949 . S
H718 C722 0.949 . S
C719 C720 1.349 . S
C719 C721 1.327 . S
C719 H742 0.950 . S
C720 C719 1.349 . S
C720 C732 1.349 . S
C721 C719 1.327 . S
C721 C737 1.429 . S
C721 H743 0.950 . S
C722 H718 0.949 . S
C722 C730 1.574 . S
C722 C738 1.368 . S
H723 C731 0.950 . S
H724 C729 0.950 . S
H725 C730 0.949 . S
H726 C732 0.950 . S
H727 C733 0.950 . S
H728 C734 0.949 . S
C729 H724 0.950 . S
C729 C731 1.327 . S
C729 C735 1.429 . S
C730 C722 1.574 . S
C730 H725 0.949 . S
C730 C736 1.368 . S
C731 C715 1.349 . S
C731 H723 0.950 . S
C731 C729 1.327 . S
C732 C720 1.349 . S
C732 H726 0.950 . S
C732 C733 1.327 . S
C733 H727 0.950 . S
C733 C732 1.327 . S
C733 C737 1.429 . S
C734 C717 1.574 . S
C734 H728 0.949 . S
C734 C738 1.368 . S
C735 C716 1.429 . S
C735 C729 1.429 . S
C735 C736 1.523 . S
C736 C717 1.368 . S
C736 C730 1.368 . S
C736 C735 1.523 . S
C737 C721 1.429 . S
C737 C733 1.429 . S
C737 C738 1.523 . S
C738 C722 1.368 . S
C738 C734 1.368 . S
C738 C737 1.523 . S
H739 C714 0.950 . S
H740 C716 0.950 . S
H741 C717 0.949 . S
H742 C719 0.950 . S
H743 C721 0.950 . S
C744 C745 1.349 . S
C744 C746 1.327 . S
C744 H769 0.950 . S
C745 C744 1.349 . S
C745 C761 1.349 . S
C746 C744 1.327 . S
C746 C765 1.429 . S
C746 H770 0.950 . S
C747 C764 1.574 . S
C747 C766 1.368 . S
C747 H771 0.949 . S
H748 C752 0.949 . S
C749 C750 1.349 1_556 S
C749 C751 1.327 . S
C749 H772 0.950 . S
C750 C749 1.349 1_554 S
C750 C762 1.349 . S
C751 C749 1.327 . S
C751 C767 1.429 . S
C751 H773 0.950 . S
C752 H748 0.949 . S
C752 C760 1.574 1_554 S
C752 C768 1.368 1_554 S
H753 C761 0.950 . S
H754 C759 0.950 . S
H755 C760 0.949 1_554 S
H756 C762 0.950 . S
H757 C763 0.950 . S
H758 C764 0.949 . S
C759 H754 0.950 . S
C759 C761 1.327 . S
C759 C765 1.429 . S
C760 C752 1.574 1_556 S
C760 H755 0.949 1_556 S
C760 C766 1.368 . S
C761 C745 1.349 . S
C761 H753 0.950 . S
C761 C759 1.327 . S
C762 C750 1.349 . S
C762 H756 0.950 . S
C762 C763 1.327 . S
C763 H757 0.950 . S
C763 C762 1.327 . S
C763 C767 1.429 1_554 S
C764 C747 1.574 . S
C764 H758 0.949 . S
C764 C768 1.368 . S
C765 C746 1.429 . S
C765 C759 1.429 . S
C765 C766 1.523 . S
C766 C747 1.368 . S
C766 C760 1.368 . S
C766 C765 1.523 . S
C767 C751 1.429 . S
C767 C763 1.429 1_556 S
C767 C768 1.523 . S
C768 C752 1.368 1_556 S
C768 C764 1.368 . S
C768 C767 1.523 . S
H769 C744 0.950 . S
H770 C746 0.950 . S
H771 C747 0.949 . S
H772 C749 0.950 . S
H773 C751 0.950 . S
C774 C775 1.349 . S
C774 C776 1.327 . S
C774 H799 0.950 . S
C775 C774 1.349 . S
C775 C791 1.349 . S
C776 C774 1.327 . S
C776 C795 1.429 . S
C776 H800 0.950 . S
C777 C794 1.574 . S
C777 C796 1.368 . S
C777 H801 0.949 . S
H778 C782 0.949 . S
C779 C780 1.349 . S
C779 C781 1.327 . S
C779 H802 0.950 . S
C780 C779 1.349 . S
C780 C792 1.349 . S
C781 C779 1.327 . S
C781 C797 1.429 . S
C781 H803 0.950 . S
C782 H778 0.949 . S
C782 C790 1.574 . S
C782 C798 1.368 . S
H783 C791 0.950 . S
H784 C789 0.950 . S
H785 C790 0.949 . S
H786 C792 0.950 . S
H787 C793 0.950 . S
H788 C794 0.949 . S
C789 H784 0.950 . S
C789 C791 1.327 . S
C789 C795 1.429 . S
C790 C782 1.574 . S
C790 H785 0.949 . S
C790 C796 1.368 . S
C791 C775 1.349 . S
C791 H783 0.950 . S
C791 C789 1.327 . S
C792 C780 1.349 . S
C792 H786 0.950 . S
C792 C793 1.327 . S
C793 H787 0.950 . S
C793 C792 1.327 . S
C793 C797 1.429 . S
C794 C777 1.574 . S
C794 H788 0.949 . S
C794 C798 1.368 . S
C795 C776 1.429 . S
C795 C789 1.429 . S
C795 C796 1.523 . S
C796 C777 1.368 . S
C796 C790 1.368 . S
C796 C795 1.523 . S
C797 C781 1.429 . S
C797 C793 1.429 . S
C797 C798 1.523 . S
C798 C782 1.368 . S
C798 C794 1.368 . S
C798 C797 1.523 . S
H799 C774 0.950 . S
H800 C776 0.950 . S
H801 C777 0.949 . S
H802 C779 0.950 . S
H803 C781 0.950 . S
C804 C805 1.349 . S
C804 C806 1.327 . S
C804 H829 0.950 . S
C805 C804 1.349 . S
C805 C821 1.349 . S
C806 C804 1.327 . S
C806 C825 1.429 . S
C806 H830 0.950 . S
C807 C824 1.574 . S
C807 C826 1.368 . S
C807 H831 0.949 . S
H808 C812 0.949 . S
C809 C810 1.349 . S
C809 C811 1.327 . S
C809 H832 0.950 1_554 S
C810 C809 1.349 . S
C810 C822 1.349 . S
C811 C809 1.327 . S
C811 C827 1.429 . S
C811 H833 0.950 . S
C812 H808 0.949 . S
C812 C820 1.574 . S
C812 C828 1.368 . S
H813 C821 0.950 . S
H814 C819 0.950 . S
H815 C820 0.949 . S
H816 C822 0.950 . S
H817 C823 0.950 . S
H818 C824 0.949 . S
C819 H814 0.950 . S
C819 C821 1.327 . S
C819 C825 1.429 . S
C820 C812 1.574 . S
C820 H815 0.949 . S
C820 C826 1.368 . S
C821 C805 1.349 . S
C821 H813 0.950 . S
C821 C819 1.327 . S
C822 C810 1.349 . S
C822 H816 0.950 . S
C822 C823 1.327 . S
C823 H817 0.950 . S
C823 C822 1.327 . S
C823 C827 1.429 . S
C824 C807 1.574 . S
C824 H818 0.949 . S
C824 C828 1.368 . S
C825 C806 1.429 . S
C825 C819 1.429 . S
C825 C826 1.523 . S
C826 C807 1.368 . S
C826 C820 1.368 . S
C826 C825 1.523 . S
C827 C811 1.429 . S
C827 C823 1.429 . S
C827 C828 1.523 . S
C828 C812 1.368 . S
C828 C824 1.368 . S
C828 C827 1.523 . S
H829 C804 0.950 . S
H830 C806 0.950 . S
H831 C807 0.949 . S
H832 C809 0.950 1_556 S
H833 C811 0.950 . S
C834 C835 1.349 . S
C834 C836 1.327 . S
C834 H859 0.950 . S
C835 C834 1.349 . S
C835 C851 1.349 . S
C836 C834 1.327 . S
C836 C855 1.429 . S
C836 H860 0.950 . S
C837 C854 1.574 . S
C837 C856 1.368 . S
C837 H861 0.949 . S
H838 C842 0.949 . S
C839 C840 1.349 . S
C839 C841 1.327 . S
C839 H862 0.950 . S
C840 C839 1.349 . S
C840 C852 1.349 . S
C841 C839 1.327 . S
C841 C857 1.429 . S
C841 H863 0.950 . S
C842 H838 0.949 . S
C842 C850 1.574 . S
C842 C858 1.368 . S
H843 C851 0.950 . S
H844 C849 0.950 . S
H845 C850 0.949 . S
H846 C852 0.950 . S
H847 C853 0.950 . S
H848 C854 0.949 . S
C849 H844 0.950 . S
C849 C851 1.327 . S
C849 C855 1.429 . S
C850 C842 1.574 . S
C850 H845 0.949 . S
C850 C856 1.368 . S
C851 C835 1.349 . S
C851 H843 0.950 . S
C851 C849 1.327 . S
C852 C840 1.349 . S
C852 H846 0.950 . S
C852 C853 1.327 . S
C853 H847 0.950 . S
C853 C852 1.327 . S
C853 C857 1.429 . S
C854 C837 1.574 . S
C854 H848 0.949 . S
C854 C858 1.368 . S
C855 C836 1.429 . S
C855 C849 1.429 . S
C855 C856 1.523 . S
C856 C837 1.368 . S
C856 C850 1.368 . S
C856 C855 1.523 . S
C857 C841 1.429 . S
C857 C853 1.429 . S
C857 C858 1.523 . S
C858 C842 1.368 . S
C858 C854 1.368 . S
C858 C857 1.523 . S
H859 C834 0.950 . S
H860 C836 0.950 . S
H861 C837 0.949 . S
H862 C839 0.950 . S
H863 C841 0.950 . S
C864 C865 1.349 . S
C864 C866 1.327 . S
C864 H889 0.950 . S
C865 C864 1.349 . S
C865 C881 1.349 . S
C866 C864 1.327 . S
C866 C885 1.429 . S
C866 H890 0.950 . S
C867 C884 1.574 . S
C867 C886 1.368 . S
C867 H891 0.949 . S
H868 C872 0.949 . S
C869 C870 1.349 . S
C869 C871 1.327 . S
C869 H892 0.950 . S
C870 C869 1.349 . S
C870 C882 1.349 . S
C871 C869 1.327 . S
C871 C887 1.429 . S
C871 H893 0.950 . S
C872 H868 0.949 . S
C872 C880 1.574 . S
C872 C888 1.368 . S
H873 C881 0.950 . S
H874 C879 0.950 . S
H875 C880 0.949 . S
H876 C882 0.950 1_554 S
H877 C883 0.950 . S
H878 C884 0.949 . S
C879 H874 0.950 . S
C879 C881 1.327 . S
C879 C885 1.429 . S
C880 C872 1.574 . S
C880 H875 0.949 . S
C880 C886 1.368 . S
C881 C865 1.349 . S
C881 H873 0.950 . S
C881 C879 1.327 . S
C882 C870 1.349 . S
C882 H876 0.950 1_556 S
C882 C883 1.327 . S
C883 H877 0.950 . S
C883 C882 1.327 . S
C883 C887 1.429 . S
C884 C867 1.574 . S
C884 H878 0.949 . S
C884 C888 1.368 . S
C885 C866 1.429 . S
C885 C879 1.429 . S
C885 C886 1.523 . S
C886 C867 1.368 . S
C886 C880 1.368 . S
C886 C885 1.523 . S
C887 C871 1.429 . S
C887 C883 1.429 . S
C887 C888 1.523 . S
C888 C872 1.368 . S
C888 C884 1.368 . S
C888 C887 1.523 . S
H889 C864 0.950 . S
H890 C866 0.950 . S
H891 C867 0.949 . S
H892 C869 0.950 . S
H893 C871 0.950 . S
C894 C895 1.349 . S
C894 C896 1.327 . S
C894 H919 0.950 . S
C895 C894 1.349 . S
C895 C911 1.349 . S
C896 C894 1.327 . S
C896 C915 1.429 . S
C896 H920 0.950 . S
C897 C914 1.574 . S
C897 C916 1.368 . S
C897 H921 0.949 . S
H898 C902 0.949 . S
C899 C900 1.349 . S
C899 C901 1.327 . S
C899 H922 0.950 . S
C900 C899 1.349 . S
C900 C912 1.349 . S
C901 C899 1.327 . S
C901 C917 1.429 . S
C901 H923 0.950 . S
C902 H898 0.949 . S
C902 C910 1.574 . S
C902 C918 1.368 . S
H903 C911 0.950 . S
H904 C909 0.950 . S
H905 C910 0.949 . S
H906 C912 0.950 . S
H907 C913 0.950 . S
H908 C914 0.949 . S
C909 H904 0.950 . S
C909 C911 1.327 . S
C909 C915 1.429 . S
C910 C902 1.574 . S
C910 H905 0.949 . S
C910 C916 1.368 . S
C911 C895 1.349 . S
C911 H903 0.950 . S
C911 C909 1.327 . S
C912 C900 1.349 . S
C912 H906 0.950 . S
C912 C913 1.327 . S
C913 H907 0.950 . S
C913 C912 1.327 . S
C913 C917 1.429 . S
C914 C897 1.574 . S
C914 H908 0.949 . S
C914 C918 1.368 . S
C915 C896 1.429 . S
C915 C909 1.429 . S
C915 C916 1.523 . S
C916 C897 1.368 . S
C916 C910 1.368 . S
C916 C915 1.523 . S
C917 C901 1.429 . S
C917 C913 1.429 . S
C917 C918 1.523 . S
C918 C902 1.368 . S
C918 C914 1.368 . S
C918 C917 1.523 . S
H919 C894 0.950 . S
H920 C896 0.950 . S
H921 C897 0.949 . S
H922 C899 0.950 . S
H923 C901 0.950 . S
C924 C925 1.349 . S
C924 C926 1.327 . S
C924 H949 0.950 . S
C925 C924 1.349 . S
C925 C941 1.349 . S
C926 C924 1.327 . S
C926 C945 1.429 . S
C926 H950 0.950 . S
C927 C944 1.574 . S
C927 C946 1.368 . S
C927 H951 0.949 . S
H928 C932 0.949 . S
C929 C930 1.349 . S
C929 C931 1.327 . S
C929 H952 0.950 . S
C930 C929 1.349 . S
C930 C942 1.349 . S
C931 C929 1.327 . S
C931 C947 1.429 . S
C931 H953 0.950 . S
C932 H928 0.949 . S
C932 C940 1.574 . S
C932 C948 1.368 . S
H933 C941 0.950 . S
H934 C939 0.950 . S
H935 C940 0.949 . S
H936 C942 0.950 . S
H937 C943 0.950 . S
H938 C944 0.949 . S
C939 H934 0.950 . S
C939 C941 1.327 . S
C939 C945 1.429 . S
C940 C932 1.574 . S
C940 H935 0.949 . S
C940 C946 1.368 . S
C941 C925 1.349 . S
C941 H933 0.950 . S
C941 C939 1.327 . S
C942 C930 1.349 . S
C942 H936 0.950 . S
C942 C943 1.327 . S
C943 H937 0.950 . S
C943 C942 1.327 . S
C943 C947 1.429 . S
C944 C927 1.574 . S
C944 H938 0.949 . S
C944 C948 1.368 . S
C945 C926 1.429 . S
C945 C939 1.429 . S
C945 C946 1.523 . S
C946 C927 1.368 . S
C946 C940 1.368 . S
C946 C945 1.523 . S
C947 C931 1.429 . S
C947 C943 1.429 . S
C947 C948 1.523 . S
C948 C932 1.368 . S
C948 C944 1.368 . S
C948 C947 1.523 . S
H949 C924 0.950 . S
H950 C926 0.950 . S
H951 C927 0.949 . S
H952 C929 0.950 . S
H953 C931 0.950 . S
C954 C955 1.349 . S
C954 C956 1.327 . S
C954 H979 0.950 . S
C955 C954 1.349 . S
C955 C971 1.349 . S
C956 C954 1.327 . S
C956 C975 1.429 . S
C956 H980 0.950 . S
C957 C974 1.574 . S
C957 C976 1.368 . S
C957 H981 0.949 . S
H958 C962 0.949 . S
C959 C960 1.349 . S
C959 C961 1.327 . S
C959 H982 0.950 . S
C960 C959 1.349 . S
C960 C972 1.349 . S
C961 C959 1.327 . S
C961 C977 1.429 . S
C961 H983 0.950 . S
C962 H958 0.949 . S
C962 C970 1.574 . S
C962 C978 1.368 . S
H963 C971 0.950 . S
H964 C969 0.950 . S
H965 C970 0.949 . S
H966 C972 0.950 . S
H967 C973 0.950 . S
H968 C974 0.949 . S
C969 H964 0.950 . S
C969 C971 1.327 . S
C969 C975 1.429 . S
C970 C962 1.574 . S
C970 H965 0.949 . S
C970 C976 1.368 . S
C971 C955 1.349 . S
C971 H963 0.950 . S
C971 C969 1.327 . S
C972 C960 1.349 . S
C972 H966 0.950 . S
C972 C973 1.327 . S
C973 H967 0.950 . S
C973 C972 1.327 . S
C973 C977 1.429 . S
C974 C957 1.574 . S
C974 H968 0.949 . S
C974 C978 1.368 . S
C975 C956 1.429 . S
C975 C969 1.429 . S
C975 C976 1.523 . S
C976 C957 1.368 . S
C976 C970 1.368 . S
C976 C975 1.523 . S
C977 C961 1.429 . S
C977 C973 1.429 . S
C977 C978 1.523 . S
C978 C962 1.368 . S
C978 C974 1.368 . S
C978 C977 1.523 . S
H979 C954 0.950 . S
H980 C956 0.950 . S
H981 C957 0.949 . S
H982 C959 0.950 . S
H983 C961 0.950 . S
C265 N1 2.720 . S
C270 C123 2.759 . S
C295 N18 2.555 . S
C300 C154 2.597 1_556 S
C330 C193 0.662 . S
C325 N28 0.644 . S
C355 N40 0.586 . S
C360 C230 0.554 . S
C390 C153 3.280 . S
C385 N5 3.338 . S
C420 C110 1.441 . S
C415 N14 1.415 . S
C450 C242 1.296 . S
C445 N31 1.342 . S
C480 C199 0.469 . S
C475 N41 0.465 . S
C505 N2 2.190 . S
C510 C243 2.205 . S
C540 C159 1.478 . S
C535 N27 1.460 . S
C565 N44 0.803 . S
C570 C122 0.794 . S
C595 N15 2.129 . S
C600 C194 2.139 . S
C630 C114 3.359 . S
C625 N57 3.385 . S
C655 N70 1.914 . S
C660 C163 1.957 . S
C685 N79 1.128 . S
C690 C202 1.097 . S
C715 N93 0.192 . S
C720 C239 0.199 . S
C745 N54 2.922 . S
C750 C162 2.799 . S
C780 C119 1.931 . S
C775 N66 1.964 . S
C810 C233 0.598 . S
C805 N80 0.570 . S
C840 C190 0.964 . S
C835 N96 0.948 . S
C865 N53 2.219 . S
C870 C234 2.231 . S
C900 C150 1.310 . S
C895 N83 1.313 . S
C930 C113 0.727 . S
C925 N92 0.726 . S
C955 N67 2.260 . S
C960 C203 2.277 . S
