# Generated by pormake.
# Topology pts, (4,4)-cn, num edge types: 1
# Building blocks:
#     Node 0, Type 0, BuildingBlock: MUDLON_clean_linker_0, # of connection points: 4
#     Node 1, Type 0, BuildingBlock: MUDLON_clean_linker_0, # of connection points: 4
#     Node 2, Type 1, BuildingBlock: UXUYUI_clean_sbu_0, # of connection points: 4
#     Node 3, Type 1, BuildingBlock: UXUYUI_clean_sbu_0, # of connection points: 4
#     Edge 4, Type (0, 1), BuildingBlock: MIFKUJ_clean_linker_0, # of connection points: 2
#     Edge 5, Type (0, 1), BuildingBlock: MIFKUJ_clean_linker_0, # of connection points: 2
#     Edge 6, Type (0, 1), BuildingBlock: MIFKUJ_clean_linker_0, # of connection points: 2
#     Edge 7, Type (0, 1), BuildingBlock: MIFKUJ_clean_linker_0, # of connection points: 2
#     Edge 8, Type (0, 1), BuildingBlock: MIFKUJ_clean_linker_0, # of connection points: 2
#     Edge 9, Type (0, 1), BuildingBlock: MIFKUJ_clean_linker_0, # of connection points: 2
#     Edge 10, Type (0, 1), BuildingBlock: MIFKUJ_clean_linker_0, # of connection points: 2
#     Edge 11, Type (0, 1), BuildingBlock: MIFKUJ_clean_linker_0, # of connection points: 2
# Relax obj value: 0.011
# Max RMSD: 0.056
# Mean RMSD: 0.052
data_MOF--net-pts--node1-UXUYUI_clean_sbu_0--node2-MUDLON_clean_linker_0--edge1-MIFKUJ_clean_linker_0
_symmetry_space_group_name_H-M    P1
_symmetry_Int_Tables_number       1
_symmetry_cell_setting            triclinic
loop_
_symmetry_equiv_pos_as_xyz
'x, y, z'
_cell_length_a     48.079846
_cell_length_b     48.087424
_cell_length_c     61.618301
_cell_angle_alpha  90.011138
_cell_angle_beta   90.036407
_cell_angle_gamma 89.933094
loop_
_atom_site_label
_atom_site_type_symbol
_atom_site_fract_x
_atom_site_fract_y
_atom_site_fract_z
_atom_type_partial_charge
H0 H 0.62949 0.02335 0.01802 0.0
N1 N 0.60151 0.97634 0.0054 0.0
H2 H 0.66172 0.02726 0.04826 0.0
H3 H 0.61033 0.93914 0.03662 0.0
H4 H 0.64201 0.94317 0.06764 0.0
H5 H 0.6302 0.93782 0.98423 0.0
H6 H 0.66138 0.94451 0.95328 0.0
H7 H 0.60808 0.02463 0.98246 0.0
H8 H 0.63946 0.03163 0.95156 0.0
H9 H 0.57856 0.02257 0.02528 0.0
H10 H 0.55985 0.95211 0.98452 0.0
H11 H 0.52994 0.03584 0.02523 0.0
H12 H 0.51124 0.96644 0.98297 0.0
H13 H 0.37134 0.0756 0.0221 0.0
H14 H 0.33913 0.07231 0.0528 0.0
H15 H 0.36409 0.98701 0.06288 0.0
H16 H 0.3961 0.9904 0.03245 0.0
H17 H 0.37152 0.98653 0.99747 0.0
H18 H 0.3379 0.97835 0.96852 0.0
H19 H 0.35907 0.05733 0.93974 0.0
H20 H 0.39238 0.0659 0.96927 0.0
H21 H 0.44468 0.06792 0.0065 0.0
H22 H 0.49378 0.05493 0.00571 0.0
H23 H 0.47023 0.96819 0.00213 0.0
N24 N 0.40077 0.0348 0.00437 0.0
H25 H 0.42153 0.9817 0.00115 0.0
C26 C 0.61758 0.98075 0.02492 0.0
C27 C 0.63184 0.0058 0.02882 0.0
C28 C 0.65018 0.0081 0.04631 0.0
C29 C 0.65466 0.98546 0.06035 0.0
C30 C 0.63943 0.96086 0.05695 0.0
C31 C 0.62113 0.95857 0.03938 0.0
C32 C 0.617 0.98063 0.98567 0.0
C33 C 0.63179 0.95821 0.97689 0.0
C34 C 0.6495 0.96209 0.95921 0.0
C35 C 0.65293 0.98863 0.95005 0.0
C36 C 0.63742 0.01101 0.95844 0.0
C37 C 0.61945 0.00703 0.97602 0.0
C38 C 0.57298 0.98588 0.00514 0.0
C39 C 0.56413 0.00996 0.01616 0.0
C40 C 0.53609 0.01779 0.01589 0.0
C41 C 0.5163 0.00222 0.00417 0.0
C42 C 0.52549 0.97863 0.99267 0.0
C43 C 0.55339 0.97051 0.99334 0.0
C44 C 0.38615 0.03338 0.02481 0.0
C45 C 0.37037 0.05645 0.03132 0.0
C46 C 0.352 0.05452 0.04884 0.0
C47 C 0.34893 0.0293 0.0601 0.0
C48 C 0.3658 0.00661 0.05432 0.0
C49 C 0.38432 0.00863 0.03692 0.0
C50 C 0.38426 0.02717 0.98573 0.0
C51 C 0.36931 0.00203 0.9849 0.0
C52 C 0.35003 0.99733 0.96833 0.0
C53 C 0.34579 0.01732 0.95206 0.0
C54 C 0.36205 0.04156 0.95208 0.0
C55 C 0.381 0.04648 0.96888 0.0
C56 C 0.42942 0.02591 0.0042 0.0
C57 C 0.45027 0.04613 0.00548 0.0
C58 C 0.47835 0.03857 0.00523 0.0
C59 C 0.48627 0.0104 0.00403 0.0
C60 C 0.46518 0.99012 0.00274 0.0
C61 C 0.43711 0.99779 0.00253 0.0
H62 H 0.98454 0.63125 0.51956 0.0
N63 N 0.032 0.60378 0.50744 0.0
H64 H 0.98014 0.66401 0.54953 0.0
H65 H 0.06843 0.61219 0.53925 0.0
H66 H 0.06402 0.64459 0.56978 0.0
H67 H 0.07076 0.63536 0.48945 0.0
H68 H 0.06475 0.66928 0.46019 0.0
H69 H 0.98537 0.60985 0.48231 0.0
H70 H 0.97908 0.64391 0.45304 0.0
H71 H 0.9844 0.58067 0.52493 0.0
H72 H 0.05777 0.56245 0.4873 0.0
H73 H 0.97144 0.53196 0.52415 0.0
H74 H 0.04394 0.51375 0.48506 0.0
H75 H 0.93341 0.37543 0.52065 0.0
H76 H 0.93525 0.34117 0.55006 0.0
H77 H 0.02252 0.35869 0.55909 0.0
H78 H 0.02065 0.39253 0.52967 0.0
H79 H 0.02477 0.37899 0.49056 0.0
H80 H 0.03086 0.34603 0.46076 0.0
H81 H 0.94459 0.35661 0.44304 0.0
H82 H 0.93873 0.38988 0.47286 0.0
H83 H 0.94182 0.44628 0.5037 0.0
H84 H 0.95422 0.49553 0.50359 0.0
H85 H 0.04135 0.47291 0.50466 0.0
N86 N 0.97561 0.40276 0.50321 0.0
H87 H 0.02865 0.42415 0.50308 0.0
C88 C 0.02696 0.61927 0.52713 0.0
C89 C 1.00181 0.6336 0.53066 0.0
C90 C 0.99928 0.6523 0.5479 0.0
C91 C 0.02183 0.65714 0.56195 0.0
C92 C 0.04642 0.64167 0.55905 0.0
C93 C 0.0489 0.62296 0.54179 0.0
C94 C 0.02863 0.62014 0.48801 0.0
C95 C 0.05088 0.63675 0.48123 0.0
C96 C 0.04733 0.65623 0.46469 0.0
C97 C 0.02136 0.65944 0.45452 0.0
C98 C 0.99936 0.64178 0.46053 0.0
C99 C 0.00291 0.62234 0.47724 0.0
C100 C 0.0225 0.57531 0.50644 0.0
C101 C 0.99771 0.56632 0.51633 0.0
C102 C 0.99009 0.53824 0.51565 0.0
C103 C 0.00667 0.51858 0.50466 0.0
C104 C 0.03095 0.52793 0.4942 0.0
C105 C 0.0388 0.55587 0.49525 0.0
C106 C 0.97669 0.38677 0.52298 0.0
C107 C 0.95275 0.37233 0.52934 0.0
C108 C 0.9539 0.35265 0.54598 0.0
C109 C 0.97908 0.34719 0.55675 0.0
C110 C 0.00279 0.36266 0.55117 0.0
C111 C 1.0017 0.38212 0.5343 0.0
C112 C 0.98124 0.38711 0.48379 0.0
C113 C 0.0074 0.37499 0.47987 0.0
C114 C 0.01085 0.35604 0.46285 0.0
C115 C 0.98815 0.34864 0.44968 0.0
C116 C 0.96238 0.36176 0.45305 0.0
C117 C 0.95904 0.38087 0.46992 0.0
C118 C 0.98414 0.43147 0.50374 0.0
C119 C 0.96357 0.4521 0.50389 0.0
C120 C 0.97077 0.48026 0.504 0.0
C121 C 0.99888 0.48848 0.50426 0.0
C122 C 0.01949 0.46761 0.50414 0.0
C123 C 0.01223 0.43945 0.50361 0.0
Li124 Li 0.00321 0.02724 0.26883 0.0
Li125 Li 1.00177 0.97618 0.26962 0.0
Li126 Li 0.02833 0.00262 0.24098 0.0
Li127 Li 0.97721 1.00077 0.2399 0.0
C128 C 0.04915 0.0127 0.28963 0.0
N129 N 0.07707 0.03742 0.32376 0.0
C130 C 0.04849 1.00067 0.31026 0.0
C131 C 0.0643 0.03713 0.2863 0.0
C132 C 0.06269 0.01351 0.32732 0.0
C133 C 0.07818 0.04937 0.30378 0.0
C134 C 0.94789 0.99281 0.28325 0.0
C135 C 0.90747 0.96329 0.28595 0.0
N136 N 0.90286 0.97288 0.3064 0.0
C137 C 0.94246 0.00268 0.30417 0.0
C138 C 0.93002 0.97321 0.27397 0.0
C139 C 0.91972 0.99222 0.31566 0.0
C140 C 0.00392 0.08523 0.27683 0.0
N141 N 0.00274 0.05988 0.28654 0.0
C142 C 1.00163 0.08105 0.32164 0.0
C143 C 1.00157 0.05739 0.3085 0.0
C144 C 0.00301 0.10753 0.31207 0.0
C145 C 0.00422 0.10945 0.28935 0.0
H146 H 0.00457 0.08668 0.25934 0.0
H147 H 1.00088 0.037 0.31584 0.0
C148 C 0.01202 0.91968 0.27964 0.0
N149 N 1.00146 0.94383 0.28767 0.0
C150 C 0.01171 0.89548 0.29218 0.0
C151 C 0.99076 0.92168 0.32139 0.0
C152 C 0.99121 0.94529 0.3082 0.0
C153 C 1.00095 0.8963 0.31335 0.0
H154 H 0.02072 0.9192 0.26348 0.0
H155 H 0.98371 0.96487 0.31447 0.0
C156 C 0.01281 0.04805 0.21983 0.0
N157 N 0.03618 0.07539 0.18488 0.0
C158 C 1.00089 0.04568 0.19922 0.0
C159 C 0.03642 0.06459 0.22271 0.0
C160 C 0.01305 0.05962 0.18175 0.0
C161 C 0.04799 0.07815 0.20483 0.0
C162 C 0.99458 0.94704 0.22603 0.0
C163 C 0.00578 0.94107 0.20562 0.0
C164 C 0.97395 0.92978 0.23459 0.0
C165 C 0.99566 0.91836 0.19389 0.0
C166 C 0.96439 0.90725 0.22239 0.0
N167 N 0.97531 0.90208 0.20244 0.0
C168 C 0.08634 0.00524 0.23343 0.0
C169 C 0.05909 1.00157 0.20151 0.0
C170 C 0.11068 0.00684 0.22113 0.0
N171 N 0.0612 0.00293 0.22349 0.0
C172 C 0.0829 0.00289 0.18858 0.0
C173 C 0.10913 0.00575 0.19839 0.0
H174 H 0.08754 0.00593 0.25092 0.0
H175 H 0.03886 0.99989 0.19398 0.0
C176 C 0.92171 0.01399 0.2298 0.0
N177 N 0.94462 1.00067 0.22208 0.0
C178 C 0.89693 0.01388 0.21794 0.0
C179 C 0.92002 0.98714 0.19005 0.0
C180 C 0.94433 0.98777 0.20245 0.0
C181 C 0.89579 1.00013 0.19784 0.0
H182 H 0.92259 0.02442 0.24533 0.0
H183 H 0.963 0.97814 0.19629 0.0
O184 O 0.03505 1.00062 0.27279 0.0
O185 O 0.97012 0.00286 0.27178 0.0
O186 O 1.00142 0.03423 0.23708 0.0
O187 O 0.00421 0.96933 0.23767 0.0
H188 H 0.03709 0.98167 0.31311 0.0
H189 H 0.06509 0.0467 0.27045 0.0
H190 H 0.06224 0.00449 0.3434 0.0
H191 H 0.08978 0.0684 0.30147 0.0
H192 H 0.89355 0.94808 0.27895 0.0
H193 H 0.95573 0.01813 0.31154 0.0
H194 H 0.93321 0.96602 0.25757 0.0
H195 H 0.91545 0.99953 0.33192 0.0
H196 H 1.00099 0.07864 0.33911 0.0
H197 H 0.00494 0.12947 0.28132 0.0
H198 H 0.02024 0.87645 0.28552 0.0
H199 H 0.98232 0.92321 0.33764 0.0
H200 H 0.98257 0.03309 0.1967 0.0
H201 H 0.04587 0.06672 0.23854 0.0
H202 H 0.00413 0.05785 0.16568 0.0
H203 H 0.06639 0.09083 0.20679 0.0
H204 H 0.02204 0.95387 0.19883 0.0
H205 H 0.96572 0.93341 0.25062 0.0
H206 H 0.00401 0.91365 0.17801 0.0
H207 H 0.94839 0.89379 0.22883 0.0
H208 H 0.13052 0.00866 0.22933 0.0
H209 H 0.08077 0.00225 0.17109 0.0
H210 H 0.87875 0.02403 0.22465 0.0
H211 H 0.92028 0.97685 0.17442 0.0
Li212 Li 0.97423 0.00437 0.771 0.0
Li213 Li 0.02376 0.00385 0.77113 0.0
Li214 Li 1.00029 0.03026 0.74227 0.0
Li215 Li 1.00066 0.97804 0.74361 0.0
C216 C 0.00929 0.04918 0.79229 0.0
N217 N 0.03248 0.07247 0.82907 0.0
C218 C 0.99916 0.0421 0.81282 0.0
C219 C 0.03114 0.06816 0.79046 0.0
C220 C 0.01115 0.05413 0.83122 0.0
C221 C 0.04264 0.07967 0.80925 0.0
C222 C 0.00933 0.95652 0.79163 0.0
C223 C 0.04487 0.92585 0.80551 0.0
N224 N 0.03212 0.92596 0.82521 0.0
C225 C 0.99652 0.95625 0.81199 0.0
C226 C 0.03363 0.9411 0.78831 0.0
C227 C 0.00838 0.94069 0.82876 0.0
C228 C 0.92781 0.98034 0.79183 0.0
N229 N 0.94049 0.00484 0.78714 0.0
C230 C 0.90403 0.03031 0.80447 0.0
C231 C 0.92913 0.02958 0.79307 0.0
C232 C 0.8905 0.0053 0.80975 0.0
C233 C 0.90273 0.98007 0.80323 0.0
H234 H 0.93722 0.96099 0.78668 0.0
H235 H 0.93951 0.04877 0.78881 0.0
C236 C 0.08108 0.01152 0.77899 0.0
N237 N 0.0567 0.00507 0.78894 0.0
C238 C 0.10579 0.0129 0.7909 0.0
C239 C 0.07994 1.00085 0.82312 0.0
C240 C 0.0557 1.00027 0.81067 0.0
C241 C 0.10556 0.00725 0.81331 0.0
H242 H 0.08132 0.01585 0.76178 0.0
H243 H 0.03611 0.99594 0.81845 0.0
C244 C 0.94104 0.99947 0.73715 0.0
N245 N 0.88425 0.99087 0.7368 0.0
C246 C 0.93041 0.97251 0.73558 0.0
C247 C 0.92281 0.02207 0.7385 0.0
C248 C 0.90162 0.9686 0.73541 0.0
C249 C 0.89416 0.01728 0.73832 0.0
C250 C 0.04673 0.99357 0.723 0.0
C251 C 0.04338 0.0045 0.70214 0.0
C252 C 0.06449 0.97093 0.72628 0.0
C253 C 0.05763 0.99231 0.68482 0.0
C254 C 0.07832 0.9593 0.70853 0.0
N255 N 0.07462 0.97012 0.68834 0.0
C256 C 0.02217 0.08011 0.72483 0.0
C257 C 0.97909 0.06586 0.70983 0.0
C258 C 0.02241 0.10375 0.71162 0.0
N259 N 1.00057 0.06195 0.72385 0.0
C260 C 0.97846 0.08918 0.69635 0.0
C261 C 1.00027 0.10861 0.69719 0.0
H262 H 0.03926 0.07617 0.73581 0.0
H263 H 0.96239 0.05087 0.70914 0.0
C264 C 0.00273 0.92013 0.73576 0.0
N265 N 1.00084 0.94538 0.72597 0.0
C266 C 0.00353 0.89586 0.72335 0.0
C267 C 0.99967 0.92394 0.69096 0.0
C268 C 0.99881 0.94768 0.70404 0.0
C269 C 0.00225 0.89755 0.7006 0.0
H270 H 0.00347 0.91877 0.75323 0.0
H271 H 0.99672 0.96799 0.69669 0.0
O272 O 0.99817 0.03721 0.77411 0.0
O273 O 0.99792 0.97149 0.77497 0.0
O274 O 0.96914 0.00364 0.73807 0.0
O275 O 0.03264 0.00491 0.74011 0.0
H276 H 0.98255 0.02713 0.81457 0.0
H277 H 0.03936 0.07371 0.77472 0.0
H278 H 0.00363 0.04872 0.84721 0.0
H279 H 0.05967 0.09426 0.80809 0.0
H280 H 0.06374 0.91395 0.8032 0.0
H281 H 0.97781 0.96817 0.81491 0.0
H282 H 0.04381 0.94108 0.77267 0.0
H283 H 0.99877 0.9404 0.84463 0.0
H284 H 0.89517 0.05025 0.80884 0.0
H285 H 0.89324 0.96029 0.80714 0.0
H286 H 0.12476 0.01863 0.7826 0.0
H287 H 0.0785 0.99597 0.84023 0.0
H288 H 0.94423 0.95477 0.73473 0.0
H289 H 0.9307 0.04304 0.74008 0.0
H290 H 0.89309 0.94784 0.73429 0.0
H291 H 0.8798 0.03455 0.73952 0.0
H292 H 0.02971 0.02202 0.69932 0.0
H293 H 0.06746 0.96238 0.74235 0.0
H294 H 0.05511 1.00043 0.66857 0.0
H295 H 0.092 0.94166 0.7108 0.0
H296 H 0.03989 0.11789 0.71255 0.0
H297 H 0.96085 0.09216 0.68564 0.0
H298 H 0.00486 0.87598 0.73153 0.0
H299 H 0.99877 0.92629 0.6735 0.0
H300 H 0.31183 0.98678 0.06335 0.0
H301 H 0.27246 0.98279 0.08825 0.0
H302 H 0.2954 0.06045 0.1183 0.0
H303 H 0.33503 0.06458 0.09337 0.0
H304 H 0.2798 0.01693 0.14821 0.0
H305 H 0.24579 0.06272 0.0839 0.0
H306 H 0.23852 0.06785 0.04449 0.0
H307 H 0.19351 0.9908 0.04303 0.0
H308 H 0.20089 0.98499 0.0824 0.0
H309 H 0.15242 0.04201 0.20322 0.0
H310 H 0.1943 0.04566 0.18092 0.0
H311 H 0.16561 0.97761 0.14113 0.0
H312 H 0.12344 0.97422 0.16319 0.0
H313 H 0.18496 0.01696 0.11635 0.0
H314 H 0.21844 0.96986 0.17956 0.0
H315 H 0.22639 0.96239 0.21867 0.0
H316 H 0.27281 0.03849 0.22218 0.0
H317 H 0.2648 0.04662 0.18313 0.0
C318 C 0.30879 0.00279 0.0755 0.0
C319 C 0.32652 0.02599 0.07644 0.0
C320 C 0.28619 1.00057 0.0896 0.0
C321 C 0.28095 0.02143 0.10498 0.0
C322 C 0.29912 0.04416 0.10651 0.0
C323 C 0.32161 0.04656 0.09222 0.0
C324 C 0.25581 0.01994 0.11882 0.0
C325 C 0.25902 0.01732 0.14134 0.0
C326 C 0.2288 0.01971 0.10971 0.0
C327 C 0.22413 0.02329 0.08606 0.0
C328 C 0.23454 0.04675 0.07514 0.0
C329 C 0.23037 0.04981 0.05282 0.0
C330 C 0.21563 0.02963 0.04125 0.0
C331 C 0.20496 0.00639 0.052 0.0
C332 C 0.20911 0.00322 0.07433 0.0
C333 C 0.15517 0.02768 0.18982 0.0
C334 C 0.1347 0.00777 0.18499 0.0
C335 C 0.17914 0.02976 0.1771 0.0
C336 C 0.18334 0.01166 0.15951 0.0
C337 C 0.16285 0.99182 0.15461 0.0
C338 C 0.13875 0.98992 0.1672 0.0
C339 C 0.20879 0.01377 0.1459 0.0
C340 C 0.20568 0.01656 0.12334 0.0
C341 C 0.23588 0.01383 0.15499 0.0
C342 C 0.24077 0.00899 0.17847 0.0
C343 C 0.23015 0.98512 0.18871 0.0
C344 C 0.2347 0.98075 0.21086 0.0
C345 C 0.25003 0.99999 0.22291 0.0
C346 C 0.26091 0.02362 0.21283 0.0
C347 C 0.25639 0.02811 0.19069 0.0
H348 H 0.25354 0.99656 0.24006 0.0
H349 H 0.21242 0.03203 0.02396 0.0
H350 H 0.00272 0.34749 0.59723 0.0
H351 H 0.0067 0.30839 0.6226 0.0
H352 H 0.96497 0.2552 0.5765 0.0
H353 H 0.96019 0.29435 0.55155 0.0
H354 H 0.94579 0.24484 0.61452 0.0
H355 H 0.03801 0.25477 0.58518 0.0
H356 H 0.08141 0.27959 0.57633 0.0
H357 H 0.09561 0.29539 0.64403 0.0
H358 H 0.0521 0.27095 0.65325 0.0
H359 H 0.98373 0.11259 0.65475 0.0
H360 H 0.98071 0.15441 0.63237 0.0
H361 H 0.01283 0.20353 0.68529 0.0
H362 H 0.01561 0.16181 0.70794 0.0
H363 H 0.03674 0.21735 0.64602 0.0
H364 H 0.94462 0.2045 0.67472 0.0
H365 H 0.90189 0.17802 0.68251 0.0
H366 H 0.88831 0.16599 0.61427 0.0
H367 H 0.93119 0.19208 0.60608 0.0
C368 C 0.99439 0.32743 0.59261 0.0
C369 C 0.98106 0.32395 0.57249 0.0
C370 C 0.99677 0.30507 0.60704 0.0
C371 C 0.98648 0.27867 0.60137 0.0
C372 C 0.973 0.27532 0.58131 0.0
C373 C 0.97024 0.29772 0.56707 0.0
C374 C 0.98952 0.25445 0.61623 0.0
C375 C 0.96577 0.23871 0.62118 0.0
C376 C 0.01544 0.24669 0.6254 0.0
C377 C 0.04166 0.26129 0.61988 0.0
C378 C 0.05029 0.26371 0.59816 0.0
C379 C 0.07493 0.27768 0.59308 0.0
C380 C 0.09122 0.28913 0.6096 0.0
C381 C 0.08295 0.28656 0.63124 0.0
C382 C 0.05832 0.27263 0.63641 0.0
C383 C 0.98998 0.1323 0.66171 0.0
C384 C 0.99969 0.13385 0.68322 0.0
C385 C 0.98832 0.15617 0.64886 0.0
C386 C 0.99621 0.18213 0.65726 0.0
C387 C 0.00663 0.1837 0.6785 0.0
C388 C 0.00828 0.15981 0.69139 0.0
C389 C 0.99312 0.20766 0.64394 0.0
C390 C 0.0168 0.22363 0.63936 0.0
C391 C 0.96721 0.21549 0.63491 0.0
C392 C 0.94124 0.20006 0.6398 0.0
C393 C 0.93262 0.19606 0.66139 0.0
C394 C 0.90836 0.18114 0.66587 0.0
C395 C 0.89243 0.17028 0.6489 0.0
C396 C 0.90068 0.17439 0.6274 0.0
C397 C 0.92495 0.18927 0.62283 0.0
H398 H 0.87366 0.15872 0.65241 0.0
H399 H 0.11028 0.29994 0.60564 0.0
H400 H 0.69163 0.94497 0.07237 0.0
H401 H 0.72962 0.94849 0.09847 0.0
H402 H 0.70601 0.03308 0.11273 0.0
H403 H 0.66752 0.02961 0.08685 0.0
H404 H 0.76137 0.02836 0.1047 0.0
H405 H 0.69456 0.98281 0.1496 0.0
H406 H 0.65991 0.94718 0.15932 0.0
H407 H 0.72218 0.88349 0.15389 0.0
H408 H 0.75715 0.9187 0.14383 0.0
H409 H 0.85788 0.04203 0.19161 0.0
H410 H 0.81467 0.04029 0.1707 0.0
H411 H 0.83132 0.95478 0.15396 0.0
H412 H 0.87409 0.95608 0.1754 0.0
H413 H 0.77757 0.96198 0.16504 0.0
H414 H 0.84339 0.00687 0.11788 0.0
H415 H 0.87817 0.04219 0.10771 0.0
H416 H 0.81767 0.10685 0.11704 0.0
H417 H 0.78262 0.07192 0.12757 0.0
C418 C 0.69406 0.96415 0.08139 0.0
C419 C 0.67643 0.987 0.07751 0.0
C420 C 0.7159 0.96615 0.09626 0.0
C421 C 0.72056 0.991 0.10765 0.0
C422 C 0.70281 0.01373 0.10408 0.0
C423 C 0.68088 0.01172 0.08923 0.0
C424 C 0.74478 0.99356 0.12246 0.0
C425 C 0.76466 0.01417 0.11815 0.0
C426 C 0.74938 0.97463 0.13968 0.0
C427 C 0.72843 0.95338 0.14578 0.0
C428 C 0.70082 0.96118 0.15031 0.0
C429 C 0.68113 0.94106 0.15591 0.0
C430 C 0.68882 0.91308 0.15718 0.0
C431 C 0.71624 0.90517 0.15289 0.0
C432 C 0.73602 0.9252 0.14726 0.0
C433 C 0.85222 0.02277 0.18366 0.0
C434 C 0.86952 0.99922 0.18511 0.0
C435 C 0.82763 0.02188 0.17156 0.0
C436 C 0.81991 0.99749 0.16058 0.0
C437 C 0.8369 0.97384 0.16225 0.0
C438 C 0.86149 0.97471 0.17434 0.0
C439 C 0.79426 0.99662 0.14716 0.0
C440 C 0.77414 0.97631 0.15171 0.0
C441 C 0.78946 0.01579 0.13012 0.0
C442 C 0.81048 0.03681 0.12375 0.0
C443 C 0.83757 0.02864 0.11794 0.0
C444 C 0.85732 0.04858 0.11208 0.0
C445 C 0.85016 0.07675 0.11179 0.0
C446 C 0.8232 0.08502 0.11731 0.0
C447 C 0.80338 0.06517 0.12321 0.0
H448 H 0.86547 0.09216 0.10724 0.0
H449 H 0.67354 0.89754 0.16152 0.0
H450 H 0.06215 0.69498 0.57203 0.0
H451 H 0.05909 0.73411 0.59714 0.0
H452 H 0.97496 0.71092 0.61324 0.0
H453 H 0.97816 0.6711 0.58859 0.0
H454 H 0.02554 0.77815 0.59547 0.0
H455 H 0.9619 0.73079 0.66591 0.0
H456 H 0.95459 0.68534 0.68359 0.0
H457 H 0.03582 0.65873 0.66335 0.0
H458 H 0.04375 0.70413 0.64581 0.0
H459 H 0.97289 0.88528 0.6636 0.0
H460 H 0.97629 0.84346 0.64115 0.0
H461 H 0.03807 0.80986 0.68464 0.0
H462 H 0.03516 0.85173 0.70698 0.0
H463 H 0.99989 0.77073 0.67324 0.0
H464 H 0.05781 0.83802 0.63756 0.0
H465 H 0.06851 0.88323 0.62066 0.0
H466 H 0.00542 0.86921 0.57254 0.0
H467 H 0.99407 0.82406 0.58937 0.0
C468 C 0.04318 0.69781 0.58124 0.0
C469 C 0.02044 0.67978 0.57838 0.0
C470 C 0.04136 0.7204 0.59541 0.0
C471 C 0.01684 0.72542 0.60711 0.0
C472 C 0.99419 0.7073 0.60453 0.0
C473 C 0.99598 0.68466 0.59033 0.0
C474 C 0.0148 0.75017 0.62145 0.0
C475 C 0.01989 0.7765 0.61246 0.0
C476 C 0.00769 0.74803 0.64367 0.0
C477 C 0.00328 0.72076 0.65436 0.0
C478 C 0.97823 0.71527 0.6653 0.0
C479 C 0.97398 0.68951 0.67528 0.0
C480 C 0.99469 0.66913 0.67452 0.0
C481 C 0.01975 0.67449 0.66385 0.0
C482 C 0.02411 0.70022 0.65386 0.0
C483 C 0.98737 0.86911 0.66831 0.0
C484 C 0.00382 0.87194 0.68708 0.0
C485 C 0.98919 0.84516 0.65551 0.0
C486 C 0.00755 0.82362 0.66117 0.0
C487 C 0.02366 0.82617 0.68004 0.0
C488 C 0.02191 0.85011 0.69282 0.0
C489 C 0.01042 0.79866 0.64718 0.0
C490 C 0.00542 0.77233 0.65621 0.0
C491 C 0.01803 0.80073 0.62507 0.0
C492 C 0.02491 0.8278 0.61485 0.0
C493 C 0.04608 0.84468 0.62348 0.0
C494 C 0.05228 0.87028 0.6139 0.0
C495 C 0.0376 0.87912 0.59557 0.0
C496 C 0.01674 0.86235 0.58676 0.0
C497 C 0.01043 0.83675 0.5963 0.0
H498 H 0.04244 0.89894 0.58817 0.0
H499 H 0.99135 0.6492 0.68225 0.0
H500 H 0.29159 0.00719 0.961 0.0
H501 H 0.25285 0.00391 0.93556 0.0
H502 H 0.30944 0.01608 0.882 0.0
H503 H 0.34817 0.02081 0.90775 0.0
H504 H 0.26611 0.04455 0.8744 0.0
H505 H 0.27888 0.95038 0.89499 0.0
H506 H 0.28512 0.91035 0.91952 0.0
H507 H 0.20467 0.92537 0.9474 0.0
H508 H 0.19808 0.96574 0.92324 0.0
H509 H 0.15869 0.9932 0.80047 0.0
H510 H 0.2013 0.99437 0.8221 0.0
H511 H 0.15463 0.0222 0.87766 0.0
H512 H 0.11219 0.02301 0.85598 0.0
H513 H 0.19483 0.9705 0.88103 0.0
H514 H 0.1864 0.06836 0.86015 0.0
H515 H 0.18171 0.10577 0.83303 0.0
H516 H 0.25709 0.07884 0.80209 0.0
H517 H 0.26196 0.04097 0.82887 0.0
C518 C 0.29575 0.00889 0.94378 0.0
C519 C 0.32283 0.01396 0.93627 0.0
C520 C 0.27363 0.00688 0.92921 0.0
C521 C 0.2782 0.00908 0.90674 0.0
C522 C 0.30534 0.01418 0.89922 0.0
C523 C 0.32745 0.01679 0.91388 0.0
C524 C 0.25442 0.00704 0.89132 0.0
C525 C 0.25086 0.02804 0.87568 0.0
C526 C 0.23429 0.98558 0.89286 0.0
C527 C 0.23808 0.96123 0.9074 0.0
C528 C 0.26259 0.94527 0.90645 0.0
C529 C 0.26618 0.9225 0.92028 0.0
C530 C 0.24533 0.91536 0.93504 0.0
C531 C 0.22081 0.93094 0.93596 0.0
C532 C 0.21712 0.95375 0.92218 0.0
C533 C 0.15741 1.00013 0.81715 0.0
C534 C 0.13174 0.00798 0.82637 0.0
C535 C 0.18182 1.00051 0.82952 0.0
C536 C 0.18097 0.00827 0.85142 0.0
C537 C 0.15556 0.01596 0.86077 0.0
C538 C 0.13127 0.01617 0.84834 0.0
C539 C 0.20655 0.0082 0.86471 0.0
C540 C 0.21038 0.98676 0.8798 0.0
C541 C 0.22721 0.02881 0.86232 0.0
C542 C 0.22434 0.05163 0.84633 0.0
C543 C 0.2018 0.07023 0.84742 0.0
C544 C 0.19915 0.09156 0.83215 0.0
C545 C 0.21904 0.09462 0.8158 0.0
C546 C 0.24166 0.07641 0.81474 0.0
C547 C 0.24439 0.05502 0.82996 0.0
H548 H 0.21696 0.11116 0.80399 0.0
H549 H 0.24815 0.89773 0.94573 0.0
H550 H 0.95306 0.30481 0.44458 0.0
H551 H 0.95821 0.26505 0.42018 0.0
H552 H 0.0341 0.3 0.39486 0.0
H553 H 0.0291 0.34001 0.41941 0.0
H554 H 0.99566 0.27805 0.3625 0.0
H555 H 0.04173 0.25102 0.42837 0.0
H556 H 0.04582 0.24449 0.46793 0.0
H557 H 0.97639 0.18841 0.46697 0.0
H558 H 0.97161 0.19496 0.42743 0.0
H559 H 0.03591 0.15363 0.30798 0.0
H560 H 0.03553 0.19559 0.33046 0.0
H561 H 0.96933 0.16099 0.36922 0.0
H562 H 0.96994 0.11887 0.34701 0.0
H563 H 0.00635 0.18399 0.39459 0.0
H564 H 0.95783 0.2121 0.33009 0.0
H565 H 0.9513 0.21911 0.29077 0.0
H566 H 0.02225 0.27322 0.28914 0.0
H567 H 0.02943 0.26623 0.32842 0.0
C568 C 0.97066 0.30423 0.43362 0.0
C569 C 0.99065 0.32554 0.43383 0.0
C570 C 0.97366 0.28144 0.4198 0.0
C571 C 0.99661 0.27956 0.40585 0.0
C572 C 0.01626 0.30112 0.40555 0.0
C573 C 0.01345 0.32383 0.41961 0.0
C574 C 1.00023 0.25462 0.39203 0.0
C575 C 0.99848 0.2575 0.36943 0.0
C576 C 0.00322 0.22783 0.4012 0.0
C577 C 0.00616 0.22369 0.42496 0.0
C578 C 0.02718 0.23748 0.43662 0.0
C579 C 0.02965 0.23374 0.45903 0.0
C580 C 0.01133 0.2161 0.46996 0.0
C581 C 0.99055 0.2021 0.45848 0.0
C582 C 0.98796 0.2058 0.43606 0.0
C583 C 0.02117 0.15507 0.32122 0.0
C584 C 0.00291 0.13299 0.32571 0.0
C585 C 0.02096 0.17906 0.33405 0.0
C586 C 0.00216 0.18163 0.35139 0.0
C587 C 0.98406 0.1595 0.35597 0.0
C588 C 0.98445 0.13542 0.34328 0.0
C589 C 1.00142 0.20722 0.36492 0.0
C590 C 0.00372 0.2045 0.38754 0.0
C591 C 0.99865 0.23412 0.35575 0.0
C592 C 0.99435 0.23839 0.33214 0.0
C593 C 0.97218 0.22531 0.32131 0.0
C594 C 0.96833 0.22931 0.29904 0.0
C595 C 0.9864 0.24653 0.28745 0.0
C596 C 0.0083 0.25985 0.29813 0.0
C597 C 0.01226 0.25589 0.3204 0.0
H598 H 0.98338 0.24961 0.27021 0.0
H599 H 0.01328 0.21322 0.48732 0.0
H600 H 0.69161 0.02999 0.94742 0.0
H601 H 0.72921 0.03462 0.92101 0.0
H602 H 0.69951 0.9618 0.88729 0.0
H603 H 0.66211 0.95683 0.91393 0.0
H604 H 0.75306 0.9579 0.8933 0.0
H605 H 0.69285 0.0289 0.86591 0.0
H606 H 0.66319 0.07071 0.8676 0.0
H607 H 0.73315 0.1195 0.88816 0.0
H608 H 0.76317 0.07789 0.88689 0.0
H609 H 0.84479 0.97212 0.80381 0.0
H610 H 0.80222 0.97095 0.82546 0.0
H611 H 0.83327 0.03788 0.86523 0.0
H612 H 0.87613 0.0389 0.84392 0.0
H613 H 0.77786 0.04477 0.85448 0.0
H614 H 0.83711 0.97291 0.88342 0.0
H615 H 0.86662 0.93102 0.8814 0.0
H616 H 0.7975 0.88372 0.85727 0.0
H617 H 0.76766 0.92546 0.85885 0.0
C618 C 0.69278 0.01529 0.93413 0.0
C619 C 0.67391 0.99306 0.93273 0.0
C620 C 0.71429 0.01796 0.91902 0.0
C621 C 0.71709 0.9987 0.90201 0.0
C622 C 0.69782 0.97688 0.90028 0.0
C623 C 0.67647 0.97406 0.9155 0.0
C624 C 0.74108 1.00031 0.88684 0.0
C625 C 0.75813 0.97677 0.88451 0.0
C626 C 0.74818 0.02512 0.87576 0.0
C627 C 0.7302 0.05021 0.87648 0.0
C628 C 0.70187 0.0485 0.87095 0.0
C629 C 0.685 0.07217 0.87181 0.0
C630 C 0.69626 0.09773 0.87803 0.0
C631 C 0.72445 0.09968 0.88336 0.0
C632 C 0.7414 0.07607 0.88255 0.0
C633 C 0.84267 0.98649 0.81724 0.0
C634 C 0.864 0.00546 0.82222 0.0
C635 C 0.81826 0.98587 0.82953 0.0
C636 C 0.81471 0.00416 0.84707 0.0
C637 C 0.83558 0.02363 0.85173 0.0
C638 C 0.86003 0.02422 0.83948 0.0
C639 C 0.78963 0.00239 0.86101 0.0
C640 C 0.77252 0.02588 0.86315 0.0
C641 C 0.78237 0.97752 0.87188 0.0
C642 C 0.80024 0.95237 0.87104 0.0
C643 C 0.82826 0.95363 0.87752 0.0
C644 C 0.84504 0.9299 0.87648 0.0
C645 C 0.83397 0.90474 0.86915 0.0
C646 C 0.80606 0.90324 0.86291 0.0
C647 C 0.7892 0.92691 0.86389 0.0
H648 H 0.84699 0.8864 0.86836 0.0
H649 H 0.68317 0.11604 0.87868 0.0
H650 H 0.03735 0.71338 0.45885 0.0
H651 H 0.03017 0.75166 0.43343 0.0
H652 H 0.9878 0.69622 0.38946 0.0
H653 H 0.99511 0.65753 0.41494 0.0
H654 H 0.02781 0.73087 0.36922 0.0
H655 H 0.94986 0.73963 0.41699 0.0
H656 H 0.92624 0.74248 0.45243 0.0
H657 H 0.97192 0.81659 0.46781 0.0
H658 H 0.99613 0.81396 0.43258 0.0
H659 H 0.98505 0.84371 0.30188 0.0
H660 H 0.98513 0.80191 0.32454 0.0
H661 H 0.01696 0.84981 0.37832 0.0
H662 H 0.0164 0.89169 0.35585 0.0
H663 H 0.97795 0.81639 0.39209 0.0
H664 H 0.05886 0.80599 0.34678 0.0
H665 H 0.08448 0.80328 0.31218 0.0
H666 H 0.03554 0.73279 0.29299 0.0
H667 H 0.00937 0.73531 0.32738 0.0
C668 C 0.02668 0.70925 0.4437 0.0
C669 C 0.01691 0.68243 0.43882 0.0
C670 C 0.0224 0.73119 0.42928 0.0
C671 C 0.00828 0.7268 0.40966 0.0
C672 C 0.99869 0.70001 0.40457 0.0
C673 C 0.00275 0.67801 0.41914 0.0
C674 C 0.00389 0.75036 0.39452 0.0
C675 C 0.01646 0.7494 0.37401 0.0
C676 C 0.98962 0.77471 0.40104 0.0
C677 C 0.97497 0.77647 0.4222 0.0
C678 C 0.95503 0.75642 0.42799 0.0
C679 C 0.94151 0.75802 0.44803 0.0
C680 C 0.94762 0.77967 0.46238 0.0
C681 C 0.96722 0.79982 0.45669 0.0
C682 C 0.98082 0.7983 0.43667 0.0
C683 C 0.99217 0.84526 0.31851 0.0
C684 C 1.00079 0.87095 0.32708 0.0
C685 C 0.99224 0.82136 0.33145 0.0
C686 C 1.00139 0.8226 0.35309 0.0
C687 C 0.00975 0.84832 0.3617 0.0
C688 C 0.0094 0.87225 0.34886 0.0
C689 C 0.00233 0.79721 0.36684 0.0
C690 C 0.98908 0.79781 0.38714 0.0
C691 C 0.0162 0.77262 0.36019 0.0
C692 C 0.03195 0.77104 0.33954 0.0
C693 C 0.05342 0.79005 0.33511 0.0
C694 C 0.06807 0.78853 0.31555 0.0
C695 C 0.06159 0.76793 0.30037 0.0
C696 C 0.0405 0.74877 0.30475 0.0
C697 C 0.02577 0.75022 0.32427 0.0
H698 H 0.07295 0.76678 0.28524 0.0
H699 H 0.93712 0.78087 0.47789 0.0
loop_
_geom_bond_atom_site_label_1
_geom_bond_atom_site_label_2
_geom_bond_distance
_geom_bond_site_symmetry_2
_ccdc_geom_bond_type
H0 C27 0.929 . S
N1 C26 1.433 . S
N1 C32 1.435 1_554 S
N1 C38 1.426 . S
H2 C28 0.930 . S
H3 C31 0.931 . S
H4 C30 0.929 . S
H5 C33 0.930 . S
H6 C34 0.932 . S
H7 C37 0.929 . S
H8 C36 0.931 . S
H9 C39 0.929 . S
H10 C43 0.932 1_565 S
H11 C40 0.931 . S
H12 C42 0.929 1_565 S
H13 C45 0.929 . S
H14 C46 0.930 . S
H15 C48 0.929 . S
H16 C49 0.931 . S
H17 C51 0.930 . S
H18 C52 0.932 . S
H19 C54 0.931 . S
H20 C55 0.929 . S
H21 C57 0.929 . S
H22 C58 0.931 . S
H23 C60 0.929 1_565 S
N24 C44 1.433 . S
N24 C50 1.435 1_554 S
N24 C56 1.426 . S
H25 C61 0.932 1_565 S
C26 N1 1.433 . S
C26 C27 1.363 . S
C26 C31 1.370 1_545 S
C27 H0 0.929 . S
C27 C26 1.363 . S
C27 C28 1.385 . S
C28 H2 0.930 . S
C28 C27 1.385 . S
C28 C29 1.357 . S
C29 C28 1.357 . S
C29 C30 1.406 1_545 S
C30 H4 0.929 . S
C30 C29 1.406 1_565 S
C30 C31 1.391 . S
C31 H3 0.931 . S
C31 C26 1.370 1_565 S
C31 C30 1.391 . S
C32 N1 1.435 1_556 S
C32 C33 1.358 1_545 S
C32 C37 1.371 . S
C33 H5 0.930 . S
C33 C32 1.358 1_565 S
C33 C34 1.405 . S
C34 H6 0.932 . S
C34 C33 1.405 . S
C34 C35 1.383 1_565 S
C35 C34 1.383 1_545 S
C35 C36 1.393 . S
C36 H8 0.931 . S
C36 C35 1.393 . S
C36 C37 1.382 . S
C37 H7 0.929 . S
C37 C32 1.371 . S
C37 C36 1.382 . S
C38 N1 1.426 . S
C38 C39 1.375 . S
C38 C43 1.375 1_554 S
C39 H9 0.929 . S
C39 C38 1.375 . S
C39 C40 1.376 . S
C40 H11 0.931 . S
C40 C39 1.376 . S
C40 C41 1.396 1_554 S
C41 C40 1.396 1_556 S
C41 C42 1.348 . S
C41 C59 1.472 . S
C42 H12 0.929 1_545 S
C42 C41 1.348 . S
C42 C43 1.443 . S
C43 H10 0.932 1_545 S
C43 C38 1.375 1_556 S
C43 C42 1.443 . S
C44 N24 1.433 . S
C44 C45 1.363 . S
C44 C49 1.370 1_545 S
C45 H13 0.929 . S
C45 C44 1.363 . S
C45 C46 1.385 . S
C46 H14 0.930 . S
C46 C45 1.385 . S
C46 C47 1.357 . S
C47 C46 1.357 . S
C47 C48 1.406 1_545 S
C48 H15 0.929 . S
C48 C47 1.406 1_565 S
C48 C49 1.391 . S
C49 H16 0.931 . S
C49 C44 1.370 1_565 S
C49 C48 1.391 . S
C50 N24 1.435 1_556 S
C50 C51 1.358 1_545 S
C50 C55 1.371 . S
C51 H17 0.930 . S
C51 C50 1.358 1_565 S
C51 C52 1.405 . S
C52 H18 0.932 . S
C52 C51 1.405 . S
C52 C53 1.383 1_565 S
C53 C52 1.383 1_545 S
C53 C54 1.393 . S
C54 H19 0.931 . S
C54 C53 1.393 . S
C54 C55 1.382 . S
C55 H20 0.929 . S
C55 C50 1.371 . S
C55 C54 1.382 . S
C56 N24 1.426 . S
C56 C57 1.375 . S
C56 C61 1.375 1_554 S
C57 H21 0.929 . S
C57 C56 1.375 . S
C57 C58 1.376 . S
C58 H22 0.931 . S
C58 C57 1.376 . S
C58 C59 1.396 1_554 S
C59 C41 1.472 . S
C59 C58 1.396 1_556 S
C59 C60 1.348 . S
C60 H23 0.929 1_545 S
C60 C59 1.348 . S
C60 C61 1.443 . S
C61 H25 0.932 1_545 S
C61 C56 1.375 1_556 S
C61 C60 1.443 . S
H62 C89 0.929 . S
N63 C88 1.433 . S
N63 C94 1.435 . S
N63 C100 1.423 . S
H64 C90 0.930 . S
H65 C93 0.931 . S
H66 C92 0.929 . S
H67 C95 0.930 . S
H68 C96 0.932 . S
H69 C99 0.929 . S
H70 C98 0.931 . S
H71 C101 0.929 . S
H72 C105 0.932 1_455 S
H73 C102 0.931 . S
H74 C104 0.929 1_455 S
H75 C107 0.929 . S
H76 C108 0.930 . S
H77 C110 0.929 . S
H78 C111 0.931 . S
H79 C113 0.930 . S
H80 C114 0.932 . S
H81 C116 0.931 . S
H82 C117 0.929 . S
H83 C119 0.929 . S
H84 C120 0.931 . S
H85 C122 0.929 1_455 S
N86 C106 1.433 . S
N86 C112 1.435 . S
N86 C118 1.423 . S
H87 C123 0.932 1_455 S
C88 N63 1.433 . S
C88 C89 1.363 . S
C88 C93 1.370 1_655 S
C89 H62 0.929 . S
C89 C88 1.363 . S
C89 C90 1.385 . S
C90 H64 0.930 . S
C90 C89 1.385 . S
C90 C91 1.357 . S
C91 C90 1.357 . S
C91 C92 1.406 1_655 S
C92 H66 0.929 . S
C92 C91 1.406 1_455 S
C92 C93 1.391 . S
C93 H65 0.931 . S
C93 C88 1.370 1_455 S
C93 C92 1.391 . S
C94 N63 1.435 . S
C94 C95 1.358 1_655 S
C94 C99 1.371 . S
C95 H67 0.930 . S
C95 C94 1.358 1_455 S
C95 C96 1.405 . S
C96 H68 0.932 . S
C96 C95 1.405 . S
C96 C97 1.383 1_455 S
C97 C96 1.383 1_655 S
C97 C98 1.393 . S
C98 H70 0.931 . S
C98 C97 1.393 . S
C98 C99 1.382 . S
C99 H69 0.929 . S
C99 C94 1.371 . S
C99 C98 1.382 . S
C100 N63 1.423 . S
C100 C101 1.362 . S
C100 C105 1.388 . S
C101 H71 0.929 . S
C101 C100 1.362 . S
C101 C102 1.376 . S
C102 H73 0.931 . S
C102 C101 1.376 . S
C102 C103 1.396 . S
C103 C102 1.396 . S
C103 C104 1.348 . S
C103 C121 1.472 . S
C104 H74 0.929 1_655 S
C104 C103 1.348 . S
C104 C105 1.443 . S
C105 H72 0.932 1_655 S
C105 C100 1.388 . S
C105 C104 1.443 . S
C106 N86 1.433 . S
C106 C107 1.363 . S
C106 C111 1.370 1_655 S
C107 H75 0.929 . S
C107 C106 1.363 . S
C107 C108 1.385 . S
C108 H76 0.930 . S
C108 C107 1.385 . S
C108 C109 1.357 . S
C109 C108 1.357 . S
C109 C110 1.406 1_655 S
C110 H77 0.929 . S
C110 C109 1.406 1_455 S
C110 C111 1.391 . S
C111 H78 0.931 . S
C111 C106 1.370 1_455 S
C111 C110 1.391 . S
C112 N86 1.435 . S
C112 C113 1.358 1_655 S
C112 C117 1.371 . S
C113 H79 0.930 . S
C113 C112 1.358 1_455 S
C113 C114 1.405 . S
C114 H80 0.932 . S
C114 C113 1.405 . S
C114 C115 1.383 1_455 S
C115 C114 1.383 1_655 S
C115 C116 1.393 . S
C116 H81 0.931 . S
C116 C115 1.393 . S
C116 C117 1.382 . S
C117 H82 0.929 . S
C117 C112 1.371 . S
C117 C116 1.382 . S
C118 N86 1.423 . S
C118 C119 1.362 . S
C118 C123 1.388 . S
C119 H83 0.929 . S
C119 C118 1.362 . S
C119 C120 1.376 . S
C120 H84 0.931 . S
C120 C119 1.376 . S
C120 C121 1.396 . S
C121 C103 1.472 . S
C121 C120 1.396 . S
C121 C122 1.348 . S
C122 H85 0.929 1_655 S
C122 C121 1.348 . S
C122 C123 1.443 . S
C123 H87 0.932 1_655 S
C123 C118 1.388 . S
C123 C122 1.443 . S
Li124 N141 1.990 . S
Li124 O184 1.956 1_545 S
Li124 O185 1.970 1_455 S
Li124 O186 1.961 1_455 S
Li125 N149 1.990 . S
Li125 O184 1.970 1_655 S
Li125 O185 1.956 1_565 S
Li125 O187 1.961 1_655 S
Li126 N171 1.990 . S
Li126 O184 1.961 1_545 S
Li126 O186 1.956 1_455 S
Li126 O187 1.970 1_545 S
Li127 N177 1.990 . S
Li127 O185 1.961 1_565 S
Li127 O186 1.970 1_565 S
Li127 O187 1.956 1_655 S
C128 C130 1.348 1_545 S
C128 C131 1.356 . S
C128 O184 1.325 1_545 S
N129 C132 1.314 1_545 S
N129 C133 1.279 . S
C130 C128 1.348 1_565 S
C130 C132 1.353 . S
C130 H188 0.929 . S
C131 C128 1.356 . S
C131 C133 1.358 . S
C131 H189 0.930 . S
C132 N129 1.314 1_565 S
C132 C130 1.353 . S
C132 H190 0.930 . S
C133 N129 1.279 . S
C133 C131 1.358 . S
C133 H191 0.930 . S
C134 C137 1.348 . S
C134 C138 1.356 1_545 S
C134 O185 1.325 . S
C135 N136 1.279 . S
C135 C138 1.358 . S
C135 H192 0.930 . S
N136 C135 1.279 . S
N136 C139 1.314 1_565 S
C137 C134 1.348 . S
C137 C139 1.353 . S
C137 H193 0.929 . S
C138 C134 1.356 1_565 S
C138 C135 1.358 . S
C138 H194 0.930 . S
C139 N136 1.314 1_545 S
C139 C137 1.353 . S
C139 H195 0.930 . S
C140 N141 1.314 1_655 S
C140 C145 1.353 . S
C140 H146 0.930 . S
N141 Li124 1.990 . S
N141 C140 1.314 1_455 S
N141 C143 1.279 . S
C142 C143 1.358 . S
C142 C144 1.356 . S
C142 H196 0.930 . S
C143 N141 1.279 . S
C143 C142 1.358 . S
C143 H147 0.930 . S
C144 C142 1.356 . S
C144 C145 1.348 1_455 S
C145 C140 1.353 . S
C145 C144 1.348 1_655 S
C145 H197 0.929 . S
H146 C140 0.930 . S
H147 C143 0.930 . S
C148 N149 1.314 1_455 S
C148 C150 1.353 . S
C148 H154 0.930 . S
N149 Li125 1.990 . S
N149 C148 1.314 1_655 S
N149 C152 1.279 . S
C150 C148 1.353 . S
C150 C153 1.348 . S
C150 H198 0.929 . S
C151 C152 1.358 . S
C151 C153 1.356 1_655 S
C151 H199 0.930 . S
C152 N149 1.279 . S
C152 C151 1.358 . S
C152 H155 0.930 . S
C153 C150 1.348 . S
C153 C151 1.356 1_455 S
H154 C148 0.930 . S
H155 C152 0.930 . S
C156 C158 1.348 1_455 S
C156 C159 1.356 . S
C156 O186 1.325 1_455 S
N157 C160 1.314 1_455 S
N157 C161 1.279 . S
C158 C156 1.348 1_655 S
C158 C160 1.353 . S
C158 H200 0.929 . S
C159 C156 1.356 . S
C159 C161 1.358 . S
C159 H201 0.930 . S
C160 N157 1.314 1_655 S
C160 C158 1.353 . S
C160 H202 0.930 . S
C161 N157 1.279 . S
C161 C159 1.358 . S
C161 H203 0.930 . S
C162 C163 1.348 . S
C162 C164 1.356 1_455 S
C162 O187 1.325 . S
C163 C162 1.348 . S
C163 C165 1.353 . S
C163 H204 0.929 . S
C164 C162 1.356 1_655 S
C164 C166 1.358 . S
C164 H205 0.930 . S
C165 C163 1.353 . S
C165 N167 1.314 1_455 S
C165 H206 0.930 . S
C166 C164 1.358 . S
C166 N167 1.279 . S
C166 H207 0.930 . S
N167 C165 1.314 1_655 S
N167 C166 1.279 . S
C168 C170 1.353 . S
C168 N171 1.314 1_565 S
C168 H174 0.930 . S
C169 N171 1.279 . S
C169 C172 1.358 . S
C169 H175 0.930 . S
C170 C168 1.353 . S
C170 C173 1.348 1_565 S
C170 H208 0.929 . S
N171 Li126 1.990 . S
N171 C168 1.314 1_545 S
N171 C169 1.279 . S
C172 C169 1.358 . S
C172 C173 1.356 . S
C172 H209 0.930 . S
C173 C170 1.348 1_545 S
C173 C172 1.356 . S
H174 C168 0.930 . S
H175 C169 0.930 . S
C176 N177 1.314 1_545 S
C176 C178 1.353 . S
C176 H182 0.930 . S
N177 Li127 1.990 . S
N177 C176 1.314 1_565 S
N177 C180 1.279 . S
C178 C176 1.353 . S
C178 C181 1.348 . S
C178 H210 0.929 . S
C179 C180 1.358 . S
C179 C181 1.356 1_565 S
C179 H211 0.930 . S
C180 N177 1.279 . S
C180 C179 1.358 . S
C180 H183 0.930 . S
C181 C178 1.348 . S
C181 C179 1.356 1_545 S
H182 C176 0.930 . S
H183 C180 0.930 . S
O184 Li124 1.956 1_565 S
O184 Li125 1.970 1_455 S
O184 Li126 1.961 1_565 S
O184 C128 1.325 1_565 S
O185 Li124 1.970 1_655 S
O185 Li125 1.956 1_545 S
O185 Li127 1.961 1_545 S
O185 C134 1.325 . S
O186 Li124 1.961 1_655 S
O186 Li126 1.956 1_655 S
O186 Li127 1.970 1_545 S
O186 C156 1.325 1_655 S
O187 Li125 1.961 1_455 S
O187 Li126 1.970 1_565 S
O187 Li127 1.956 1_455 S
O187 C162 1.325 . S
H188 C130 0.929 . S
H189 C131 0.930 . S
H190 C132 0.930 . S
H191 C133 0.930 . S
H192 C135 0.930 . S
H193 C137 0.929 . S
H194 C138 0.930 . S
H195 C139 0.930 . S
H196 C142 0.930 . S
H197 C145 0.929 . S
H198 C150 0.929 . S
H199 C151 0.930 . S
H200 C158 0.929 . S
H201 C159 0.930 . S
H202 C160 0.930 . S
H203 C161 0.930 . S
H204 C163 0.929 . S
H205 C164 0.930 . S
H206 C165 0.930 . S
H207 C166 0.930 . S
H208 C170 0.929 . S
H209 C172 0.930 . S
H210 C178 0.929 . S
H211 C179 0.930 . S
Li212 N229 1.990 . S
Li212 O272 1.956 1_655 S
Li212 O273 1.970 1_545 S
Li212 O274 1.961 1_545 S
Li213 N237 1.990 . S
Li213 O272 1.970 1_565 S
Li213 O273 1.956 1_455 S
Li213 O275 1.961 1_565 S
Li214 N259 1.990 . S
Li214 O272 1.961 1_655 S
Li214 O274 1.956 1_545 S
Li214 O275 1.970 1_655 S
Li215 N265 1.990 . S
Li215 O273 1.961 1_455 S
Li215 O274 1.970 1_455 S
Li215 O275 1.956 1_565 S
C216 C218 1.348 . S
C216 C219 1.356 1_455 S
C216 O272 1.325 . S
N217 C220 1.314 1_655 S
N217 C221 1.279 . S
C218 C216 1.348 . S
C218 C220 1.353 . S
C218 H276 0.929 . S
C219 C216 1.356 1_655 S
C219 C221 1.358 . S
C219 H277 0.930 . S
C220 N217 1.314 1_455 S
C220 C218 1.353 . S
C220 H278 0.930 . S
C221 N217 1.279 . S
C221 C219 1.358 . S
C221 H279 0.930 . S
C222 C225 1.348 1_455 S
C222 C226 1.356 . S
C222 O273 1.325 1_455 S
C223 N224 1.279 . S
C223 C226 1.358 . S
C223 H280 0.930 . S
N224 C223 1.279 . S
N224 C227 1.314 1_455 S
C225 C222 1.348 1_655 S
C225 C227 1.353 . S
C225 H281 0.929 . S
C226 C222 1.356 . S
C226 C223 1.358 . S
C226 H282 0.930 . S
C227 N224 1.314 1_655 S
C227 C225 1.353 . S
C227 H283 0.930 . S
C228 N229 1.314 1_565 S
C228 C233 1.353 . S
C228 H234 0.930 . S
N229 Li212 1.990 . S
N229 C228 1.314 1_545 S
N229 C231 1.279 . S
C230 C231 1.358 . S
C230 C232 1.356 . S
C230 H284 0.930 . S
C231 N229 1.279 . S
C231 C230 1.358 . S
C231 H235 0.930 . S
C232 C230 1.356 . S
C232 C233 1.348 1_545 S
C233 C228 1.353 . S
C233 C232 1.348 1_565 S
C233 H285 0.929 . S
H234 C228 0.930 . S
H235 C231 0.930 . S
C236 N237 1.314 1_545 S
C236 C238 1.353 . S
C236 H242 0.930 . S
N237 Li213 1.990 . S
N237 C236 1.314 1_565 S
N237 C240 1.279 . S
C238 C236 1.353 . S
C238 C241 1.348 . S
C238 H286 0.929 . S
C239 C240 1.358 . S
C239 C241 1.356 1_565 S
C239 H287 0.930 . S
C240 N237 1.279 . S
C240 C239 1.358 . S
C240 H243 0.930 . S
C241 C238 1.348 . S
C241 C239 1.356 1_545 S
H242 C236 0.930 . S
H243 C240 0.930 . S
C244 C246 1.348 1_545 S
C244 C247 1.356 . S
C244 O274 1.325 1_545 S
N245 C248 1.314 1_545 S
N245 C249 1.279 . S
C246 C244 1.348 1_565 S
C246 C248 1.353 . S
C246 H288 0.929 . S
C247 C244 1.356 . S
C247 C249 1.358 . S
C247 H289 0.930 . S
C248 N245 1.314 1_565 S
C248 C246 1.353 . S
C248 H290 0.930 . S
C249 N245 1.279 . S
C249 C247 1.358 . S
C249 H291 0.930 . S
C250 C251 1.348 . S
C250 C252 1.356 1_545 S
C250 O275 1.325 . S
C251 C250 1.348 . S
C251 C253 1.353 . S
C251 H292 0.929 . S
C252 C250 1.356 1_565 S
C252 C254 1.358 . S
C252 H293 0.930 . S
C253 C251 1.353 . S
C253 N255 1.314 1_545 S
C253 H294 0.930 . S
C254 C252 1.358 . S
C254 N255 1.279 . S
C254 H295 0.930 . S
N255 C253 1.314 1_565 S
N255 C254 1.279 . S
C256 C258 1.353 . S
C256 N259 1.314 1_455 S
C256 H262 0.930 . S
C257 N259 1.279 . S
C257 C260 1.358 . S
C257 H263 0.930 . S
C258 C256 1.353 . S
C258 C261 1.348 . S
C258 H296 0.929 . S
N259 Li214 1.990 . S
N259 C256 1.314 1_655 S
N259 C257 1.279 . S
C260 C257 1.358 . S
C260 C261 1.356 1_655 S
C260 H297 0.930 . S
C261 C258 1.348 . S
C261 C260 1.356 1_455 S
H262 C256 0.930 . S
H263 C257 0.930 . S
C264 N265 1.314 1_655 S
C264 C266 1.353 . S
C264 H270 0.930 . S
N265 Li215 1.990 . S
N265 C264 1.314 1_455 S
N265 C268 1.279 . S
C266 C264 1.353 . S
C266 C269 1.348 1_655 S
C266 H298 0.929 . S
C267 C268 1.358 . S
C267 C269 1.356 . S
C267 H299 0.930 . S
C268 N265 1.279 . S
C268 C267 1.358 . S
C268 H271 0.930 . S
C269 C266 1.348 1_455 S
C269 C267 1.356 . S
H270 C264 0.930 . S
H271 C268 0.930 . S
O272 Li212 1.956 1_455 S
O272 Li213 1.970 1_545 S
O272 Li214 1.961 1_455 S
O272 C216 1.325 . S
O273 Li212 1.970 1_565 S
O273 Li213 1.956 1_655 S
O273 Li215 1.961 1_655 S
O273 C222 1.325 1_655 S
O274 Li212 1.961 1_565 S
O274 Li214 1.956 1_565 S
O274 Li215 1.970 1_655 S
O274 C244 1.325 1_565 S
O275 Li213 1.961 1_545 S
O275 Li214 1.970 1_455 S
O275 Li215 1.956 1_545 S
O275 C250 1.325 . S
H276 C218 0.929 . S
H277 C219 0.930 . S
H278 C220 0.930 . S
H279 C221 0.930 . S
H280 C223 0.930 . S
H281 C225 0.929 . S
H282 C226 0.930 . S
H283 C227 0.930 . S
H284 C230 0.930 . S
H285 C233 0.929 . S
H286 C238 0.929 . S
H287 C239 0.930 . S
H288 C246 0.929 . S
H289 C247 0.930 . S
H290 C248 0.930 . S
H291 C249 0.930 . S
H292 C251 0.929 . S
H293 C252 0.930 . S
H294 C253 0.930 . S
H295 C254 0.930 . S
H296 C258 0.929 . S
H297 C260 0.930 . S
H298 C266 0.929 . S
H299 C267 0.930 . S
H300 C318 0.951 . S
H301 C320 0.951 . S
H302 C322 0.950 . S
H303 C323 0.950 . S
H304 C325 0.950 . S
H305 C328 0.950 . S
H306 C329 0.950 . S
H307 C331 0.950 . S
H308 C332 0.950 . S
H309 C333 0.951 . S
H310 C335 0.951 . S
H311 C337 0.950 . S
H312 C338 0.950 . S
H313 C340 0.950 . S
H314 C343 0.950 . S
H315 C344 0.950 . S
H316 C346 0.950 . S
H317 C347 0.950 . S
C318 H300 0.951 . S
C318 C319 1.367 1_565 S
C318 C320 1.388 . S
C319 C318 1.367 1_545 S
C319 C323 1.383 . S
C320 H301 0.951 . S
C320 C318 1.388 . S
C320 C321 1.366 1_565 S
C321 C320 1.366 1_545 S
C321 C322 1.414 . S
C321 C324 1.499 . S
C322 H302 0.950 . S
C322 C321 1.414 . S
C322 C323 1.374 . S
C323 H303 0.950 . S
C323 C319 1.383 . S
C323 C322 1.374 . S
C324 C321 1.499 . S
C324 C325 1.373 1_545 S
C324 C326 1.389 . S
C325 H304 0.950 . S
C325 C324 1.373 1_565 S
C325 C341 1.377 . S
C326 C324 1.389 . S
C326 C327 1.524 . S
C326 C340 1.377 . S
C327 C326 1.524 . S
C327 C328 1.397 . S
C327 C332 1.363 . S
C328 H305 0.950 . S
C328 C327 1.397 . S
C328 C329 1.334 . S
C329 H306 0.950 . S
C329 C328 1.334 . S
C329 C330 1.287 . S
C330 C329 1.287 . S
C330 C331 1.524 . S
C330 H349 0.913 . S
C331 H307 0.950 . S
C331 C330 1.524 . S
C331 C332 1.415 . S
C332 H308 0.950 . S
C332 C327 1.363 . S
C332 C331 1.415 . S
C333 H309 0.951 . S
C333 C334 1.360 1_545 S
C333 C335 1.388 . S
C334 C333 1.360 1_565 S
C334 C338 1.390 . S
C335 H310 0.951 . S
C335 C333 1.388 . S
C335 C336 1.366 1_545 S
C336 C335 1.366 1_565 S
C336 C337 1.414 . S
C336 C339 1.499 . S
C337 H311 0.950 . S
C337 C336 1.414 . S
C337 C338 1.374 . S
C338 H312 0.950 . S
C338 C334 1.390 . S
C338 C337 1.374 . S
C339 C336 1.499 . S
C339 C340 1.373 1_565 S
C339 C341 1.389 . S
C340 H313 0.950 . S
C340 C326 1.377 . S
C340 C339 1.373 1_545 S
C341 C325 1.377 . S
C341 C339 1.389 . S
C341 C342 1.524 . S
C342 C341 1.524 . S
C342 C343 1.397 . S
C342 C347 1.363 . S
C343 H314 0.950 . S
C343 C342 1.397 . S
C343 C344 1.334 . S
C344 H315 0.950 . S
C344 C343 1.334 . S
C344 C345 1.287 . S
C345 C344 1.287 . S
C345 C346 1.524 . S
C345 H348 0.999 . S
C346 H316 0.950 . S
C346 C345 1.524 . S
C346 C347 1.415 . S
C347 H317 0.950 . S
C347 C342 1.363 . S
C347 C346 1.415 . S
H348 C345 0.999 . S
H349 C330 0.913 . S
H350 C368 0.951 . S
H351 C370 0.951 . S
H352 C372 0.950 . S
H353 C373 0.950 . S
H354 C375 0.950 . S
H355 C378 0.950 . S
H356 C379 0.950 . S
H357 C381 0.950 . S
H358 C382 0.950 . S
H359 C383 0.951 . S
H360 C385 0.951 . S
H361 C387 0.950 . S
H362 C388 0.950 . S
H363 C390 0.950 . S
H364 C393 0.950 . S
H365 C394 0.950 . S
H366 C396 0.950 . S
H367 C397 0.950 . S
C368 H350 0.951 . S
C368 C369 1.366 . S
C368 C370 1.388 . S
C369 C368 1.366 . S
C369 C373 1.385 1_455 S
C370 H351 0.951 . S
C370 C368 1.388 . S
C370 C371 1.366 . S
C371 C370 1.366 . S
C371 C372 1.414 1_455 S
C371 C374 1.499 . S
C372 H352 0.950 . S
C372 C371 1.414 1_655 S
C372 C373 1.374 . S
C373 H353 0.950 . S
C373 C369 1.385 1_655 S
C373 C372 1.374 . S
C374 C371 1.499 . S
C374 C375 1.373 1_455 S
C374 C376 1.389 . S
C375 H354 0.950 . S
C375 C374 1.373 1_655 S
C375 C391 1.377 . S
C376 C374 1.389 . S
C376 C377 1.524 . S
C376 C390 1.377 . S
C377 C376 1.524 . S
C377 C378 1.397 . S
C377 C382 1.363 . S
C378 H355 0.950 . S
C378 C377 1.397 . S
C378 C379 1.334 . S
C379 H356 0.950 . S
C379 C378 1.334 . S
C379 C380 1.287 . S
C380 C379 1.287 . S
C380 C381 1.524 . S
C380 H399 0.913 . S
C381 H357 0.950 . S
C381 C380 1.524 . S
C381 C382 1.415 . S
C382 H358 0.950 . S
C382 C377 1.363 . S
C382 C381 1.415 . S
C383 H359 0.951 . S
C383 C384 1.362 1_655 S
C383 C385 1.388 . S
C384 C383 1.362 1_455 S
C384 C388 1.388 . S
C385 H360 0.951 . S
C385 C383 1.388 . S
C385 C386 1.370 . S
C386 C385 1.370 . S
C386 C387 1.409 1_655 S
C386 C389 1.499 . S
C387 H361 0.950 . S
C387 C386 1.409 1_455 S
C387 C388 1.374 . S
C388 H362 0.950 . S
C388 C384 1.388 . S
C388 C387 1.374 . S
C389 C386 1.499 . S
C389 C390 1.342 1_655 S
C389 C391 1.419 . S
C390 H363 0.950 . S
C390 C376 1.377 . S
C390 C389 1.342 1_455 S
C391 C375 1.377 . S
C391 C389 1.419 . S
C391 C392 1.524 . S
C392 C391 1.524 . S
C392 C393 1.397 . S
C392 C397 1.363 . S
C393 H364 0.950 . S
C393 C392 1.397 . S
C393 C394 1.334 . S
C394 H365 0.950 . S
C394 C393 1.334 . S
C394 C395 1.287 . S
C395 C394 1.287 . S
C395 C396 1.524 . S
C395 H398 0.999 . S
C396 H366 0.950 . S
C396 C395 1.524 . S
C396 C397 1.415 . S
C397 H367 0.950 . S
C397 C392 1.363 . S
C397 C396 1.415 . S
H398 C395 0.999 . S
H399 C380 0.913 . S
H400 C418 0.951 . S
H401 C420 0.951 . S
H402 C422 0.950 . S
H403 C423 0.950 . S
H404 C425 0.950 . S
H405 C428 0.950 . S
H406 C429 0.950 . S
H407 C431 0.950 . S
H408 C432 0.950 . S
H409 C433 0.951 . S
H410 C435 0.951 . S
H411 C437 0.950 . S
H412 C438 0.950 . S
H413 C440 0.950 . S
H414 C443 0.950 . S
H415 C444 0.950 . S
H416 C446 0.950 . S
H417 C447 0.950 . S
C418 H400 0.951 . S
C418 C419 1.364 1_565 S
C418 C420 1.388 . S
C419 C418 1.364 1_545 S
C419 C423 1.386 . S
C420 H401 0.951 . S
C420 C418 1.388 . S
C420 C421 1.334 1_565 S
C421 C420 1.334 1_545 S
C421 C422 1.445 . S
C421 C424 1.500 . S
C422 H402 0.950 . S
C422 C421 1.445 . S
C422 C423 1.374 . S
C423 H403 0.950 . S
C423 C419 1.386 . S
C423 C422 1.374 . S
C424 C421 1.500 . S
C424 C425 1.373 . S
C424 C426 1.389 1_545 S
C425 H404 0.950 . S
C425 C424 1.373 . S
C425 C441 1.377 . S
C426 C424 1.389 1_565 S
C426 C427 1.524 . S
C426 C440 1.377 . S
C427 C426 1.524 . S
C427 C428 1.397 1_565 S
C427 C432 1.363 . S
C428 H405 0.950 . S
C428 C427 1.397 1_545 S
C428 C429 1.334 . S
C429 H406 0.950 . S
C429 C428 1.334 . S
C429 C430 1.287 1_545 S
C430 C429 1.287 1_565 S
C430 C431 1.524 . S
C430 H449 0.913 . S
C431 H407 0.950 . S
C431 C430 1.524 . S
C431 C432 1.415 . S
C432 H408 0.950 . S
C432 C427 1.363 . S
C432 C431 1.415 . S
C433 H409 0.951 . S
C433 C434 1.388 . S
C433 C435 1.388 . S
C434 C433 1.388 . S
C434 C438 1.362 1_545 S
C435 H410 0.951 . S
C435 C433 1.388 . S
C435 C436 1.366 1_545 S
C436 C435 1.366 1_565 S
C436 C437 1.413 . S
C436 C439 1.498 . S
C437 H411 0.950 . S
C437 C436 1.413 . S
C437 C438 1.374 . S
C438 H412 0.950 . S
C438 C434 1.362 1_565 S
C438 C437 1.374 . S
C439 C436 1.498 . S
C439 C440 1.385 . S
C439 C441 1.378 1_565 S
C440 H413 0.950 . S
C440 C426 1.377 . S
C440 C439 1.385 . S
C441 C425 1.377 . S
C441 C439 1.378 1_545 S
C441 C442 1.524 . S
C442 C441 1.524 . S
C442 C443 1.397 1_545 S
C442 C447 1.363 . S
C443 H414 0.950 . S
C443 C442 1.397 1_565 S
C443 C444 1.334 . S
C444 H415 0.950 . S
C444 C443 1.334 . S
C444 C445 1.287 1_565 S
C445 C444 1.287 1_545 S
C445 C446 1.524 . S
C445 H448 0.999 . S
C446 H416 0.950 . S
C446 C445 1.524 . S
C446 C447 1.415 . S
C447 H417 0.950 . S
C447 C442 1.363 . S
C447 C446 1.415 . S
H448 C445 0.999 . S
H449 C430 0.913 . S
H450 C468 0.951 . S
H451 C470 0.951 . S
H452 C472 0.950 . S
H453 C473 0.950 . S
H454 C475 0.950 . S
H455 C478 0.950 . S
H456 C479 0.950 . S
H457 C481 0.950 . S
H458 C482 0.950 1_455 S
H459 C483 0.951 . S
H460 C485 0.951 . S
H461 C487 0.950 . S
H462 C488 0.950 . S
H463 C490 0.950 . S
H464 C493 0.950 . S
H465 C494 0.950 . S
H466 C496 0.961 . S
H467 C497 0.926 1_655 S
C468 H450 0.951 . S
C468 C469 1.365 . S
C468 C470 1.388 . S
C469 C468 1.365 . S
C469 C473 1.385 1_455 S
C470 H451 0.951 . S
C470 C468 1.388 . S
C470 C471 1.366 1_455 S
C471 C470 1.366 1_655 S
C471 C472 1.414 . S
C471 C474 1.499 . S
C472 H452 0.950 . S
C472 C471 1.414 . S
C472 C473 1.374 . S
C473 H453 0.950 . S
C473 C469 1.385 1_655 S
C473 C472 1.374 . S
C474 C471 1.499 . S
C474 C475 1.373 1_655 S
C474 C476 1.389 . S
C475 H454 0.950 . S
C475 C474 1.373 1_455 S
C475 C491 1.377 . S
C476 C474 1.389 . S
C476 C477 1.524 . S
C476 C490 1.377 . S
C477 C476 1.524 . S
C477 C478 1.397 . S
C477 C482 1.363 . S
C478 H455 0.950 . S
C478 C477 1.397 . S
C478 C479 1.334 . S
C479 H456 0.950 . S
C479 C478 1.334 . S
C479 C480 1.287 . S
C480 C479 1.287 . S
C480 C481 1.524 . S
C480 H499 0.913 . S
C481 H457 0.950 . S
C481 C480 1.524 . S
C481 C482 1.415 . S
C482 H458 0.950 1_655 S
C482 C477 1.363 . S
C482 C481 1.415 . S
C483 H459 0.951 . S
C483 C484 1.376 . S
C483 C485 1.388 . S
C484 C483 1.376 . S
C484 C488 1.374 1_655 S
C485 H460 0.951 . S
C485 C483 1.388 . S
C485 C486 1.346 1_655 S
C486 C485 1.346 1_455 S
C486 C487 1.433 . S
C486 C489 1.500 . S
C487 H461 0.950 . S
C487 C486 1.433 . S
C487 C488 1.374 . S
C488 H462 0.950 . S
C488 C484 1.374 1_455 S
C488 C487 1.374 . S
C489 C486 1.500 . S
C489 C490 1.373 1_455 S
C489 C491 1.389 . S
C490 H463 0.950 . S
C490 C476 1.377 . S
C490 C489 1.373 1_655 S
C491 C475 1.377 . S
C491 C489 1.389 . S
C491 C492 1.524 . S
C492 C491 1.524 . S
C492 C493 1.397 . S
C492 C497 1.378 . S
C493 H464 0.950 . S
C493 C492 1.397 . S
C493 C494 1.334 . S
C494 H465 0.950 . S
C494 C493 1.334 . S
C494 C495 1.287 . S
C495 C494 1.287 . S
C495 C496 1.524 . S
C495 H498 0.999 . S
C496 H466 0.961 . S
C496 C495 1.524 . S
C496 C497 1.424 . S
C497 H467 0.926 1_455 S
C497 C492 1.378 . S
C497 C496 1.424 . S
H498 C495 0.999 . S
H499 C480 0.913 . S
H500 C518 0.951 . S
H501 C520 0.951 . S
H502 C522 0.950 . S
H503 C523 0.950 . S
H504 C525 0.950 . S
H505 C528 0.950 . S
H506 C529 0.950 . S
H507 C531 0.950 . S
H508 C532 0.950 . S
H509 C533 0.951 . S
H510 C535 0.951 . S
H511 C537 0.950 . S
H512 C538 0.950 . S
H513 C540 0.950 . S
H514 C543 0.950 . S
H515 C544 0.950 . S
H516 C546 0.950 . S
H517 C547 0.950 . S
C518 H500 0.951 . S
C518 C519 1.366 . S
C518 C520 1.388 . S
C519 C518 1.366 . S
C519 C523 1.384 1_545 S
C520 H501 0.951 . S
C520 C518 1.388 . S
C520 C521 1.366 1_545 S
C521 C520 1.366 1_565 S
C521 C522 1.414 . S
C521 C524 1.499 . S
C522 H502 0.950 . S
C522 C521 1.414 . S
C522 C523 1.374 . S
C523 H503 0.950 . S
C523 C519 1.384 1_565 S
C523 C522 1.374 . S
C524 C521 1.499 . S
C524 C525 1.373 1_565 S
C524 C526 1.389 . S
C525 H504 0.950 . S
C525 C524 1.373 1_545 S
C525 C541 1.377 . S
C526 C524 1.389 . S
C526 C527 1.524 . S
C526 C540 1.377 . S
C527 C526 1.524 . S
C527 C528 1.397 . S
C527 C532 1.363 . S
C528 H505 0.950 . S
C528 C527 1.397 . S
C528 C529 1.334 . S
C529 H506 0.950 . S
C529 C528 1.334 . S
C529 C530 1.287 . S
C530 C529 1.287 . S
C530 C531 1.524 . S
C530 H549 0.913 . S
C531 H507 0.950 . S
C531 C530 1.524 . S
C531 C532 1.415 . S
C532 H508 0.950 . S
C532 C527 1.363 . S
C532 C531 1.415 . S
C533 H509 0.951 . S
C533 C534 1.364 1_565 S
C533 C535 1.388 . S
C534 C533 1.364 1_545 S
C534 C538 1.388 . S
C535 H510 0.951 . S
C535 C533 1.388 . S
C535 C536 1.366 1_565 S
C536 C535 1.366 1_545 S
C536 C537 1.414 . S
C536 C539 1.499 . S
C537 H511 0.950 . S
C537 C536 1.414 . S
C537 C538 1.374 . S
C538 H512 0.950 . S
C538 C534 1.388 . S
C538 C537 1.374 . S
C539 C536 1.499 . S
C539 C540 1.373 1_545 S
C539 C541 1.389 . S
C540 H513 0.950 . S
C540 C526 1.377 . S
C540 C539 1.373 1_565 S
C541 C525 1.377 . S
C541 C539 1.389 . S
C541 C542 1.524 . S
C542 C541 1.524 . S
C542 C543 1.397 . S
C542 C547 1.363 . S
C543 H514 0.950 . S
C543 C542 1.397 . S
C543 C544 1.334 . S
C544 H515 0.950 . S
C544 C543 1.334 . S
C544 C545 1.287 . S
C545 C544 1.287 . S
C545 C546 1.524 . S
C545 H548 0.999 . S
C546 H516 0.950 . S
C546 C545 1.524 . S
C546 C547 1.415 . S
C547 H517 0.950 . S
C547 C542 1.363 . S
C547 C546 1.415 . S
H548 C545 0.999 . S
H549 C530 0.913 . S
H550 C568 0.951 . S
H551 C570 0.951 . S
H552 C572 0.950 . S
H553 C573 0.950 . S
H554 C575 0.950 . S
H555 C578 0.950 . S
H556 C579 0.950 . S
H557 C581 0.950 . S
H558 C582 0.950 . S
H559 C583 0.951 . S
H560 C585 0.951 . S
H561 C587 0.950 . S
H562 C588 0.950 . S
H563 C590 0.950 . S
H564 C593 0.950 . S
H565 C594 0.950 . S
H566 C596 0.950 . S
H567 C597 0.950 . S
C568 H550 0.951 . S
C568 C569 1.367 1_655 S
C568 C570 1.388 . S
C569 C568 1.367 1_455 S
C569 C573 1.383 . S
C570 H551 0.951 . S
C570 C568 1.388 . S
C570 C571 1.366 1_655 S
C571 C570 1.366 1_455 S
C571 C572 1.414 . S
C571 C574 1.499 . S
C572 H552 0.950 . S
C572 C571 1.414 . S
C572 C573 1.374 . S
C573 H553 0.950 . S
C573 C569 1.383 . S
C573 C572 1.374 . S
C574 C571 1.499 . S
C574 C575 1.373 1_455 S
C574 C576 1.389 . S
C575 H554 0.950 . S
C575 C574 1.373 1_655 S
C575 C591 1.377 . S
C576 C574 1.389 . S
C576 C577 1.524 . S
C576 C590 1.377 . S
C577 C576 1.524 . S
C577 C578 1.397 . S
C577 C582 1.363 . S
C578 H555 0.950 . S
C578 C577 1.397 . S
C578 C579 1.334 . S
C579 H556 0.950 . S
C579 C578 1.334 . S
C579 C580 1.287 . S
C580 C579 1.287 . S
C580 C581 1.524 . S
C580 H599 0.913 . S
C581 H557 0.950 . S
C581 C580 1.524 . S
C581 C582 1.415 . S
C582 H558 0.950 . S
C582 C577 1.363 . S
C582 C581 1.415 . S
C583 H559 0.951 . S
C583 C584 1.360 1_455 S
C583 C585 1.388 . S
C584 C583 1.360 1_655 S
C584 C588 1.391 . S
C585 H560 0.951 . S
C585 C583 1.388 . S
C585 C586 1.366 1_455 S
C586 C585 1.366 1_655 S
C586 C587 1.414 . S
C586 C589 1.499 . S
C587 H561 0.950 . S
C587 C586 1.414 . S
C587 C588 1.374 . S
C588 H562 0.950 . S
C588 C584 1.391 . S
C588 C587 1.374 . S
C589 C586 1.499 . S
C589 C590 1.373 1_655 S
C589 C591 1.389 . S
C590 H563 0.950 . S
C590 C576 1.377 . S
C590 C589 1.373 1_455 S
C591 C575 1.377 . S
C591 C589 1.389 . S
C591 C592 1.524 . S
C592 C591 1.524 . S
C592 C593 1.397 . S
C592 C597 1.363 . S
C593 H564 0.950 . S
C593 C592 1.397 . S
C593 C594 1.334 . S
C594 H565 0.950 . S
C594 C593 1.334 . S
C594 C595 1.287 . S
C595 C594 1.287 . S
C595 C596 1.524 . S
C595 H598 0.999 . S
C596 H566 0.950 . S
C596 C595 1.524 . S
C596 C597 1.415 . S
C597 H567 0.950 . S
C597 C592 1.363 . S
C597 C596 1.415 . S
H598 C595 0.999 . S
H599 C580 0.913 . S
H600 C618 0.951 . S
H601 C620 0.951 . S
H602 C622 0.950 . S
H603 C623 0.950 . S
H604 C625 0.950 . S
H605 C628 0.950 . S
H606 C629 0.950 . S
H607 C631 0.950 . S
H608 C632 0.950 . S
H609 C633 0.951 . S
H610 C635 0.951 . S
H611 C637 0.950 . S
H612 C638 0.950 . S
H613 C640 0.950 . S
H614 C643 0.950 . S
H615 C644 0.950 . S
H616 C646 0.950 . S
H617 C647 0.950 . S
C618 H600 0.951 . S
C618 C619 1.364 . S
C618 C620 1.388 . S
C619 C618 1.364 . S
C619 C623 1.387 1_545 S
C620 H601 0.951 . S
C620 C618 1.388 . S
C620 C621 1.390 . S
C621 C620 1.390 . S
C621 C622 1.389 1_545 S
C621 C624 1.498 . S
C622 H602 0.950 . S
C622 C621 1.389 1_565 S
C622 C623 1.374 . S
C623 H603 0.950 . S
C623 C619 1.387 1_565 S
C623 C622 1.374 . S
C624 C621 1.498 . S
C624 C625 1.359 1_545 S
C624 C626 1.403 . S
C625 H604 0.950 . S
C625 C624 1.359 1_565 S
C625 C641 1.377 . S
C626 C624 1.403 . S
C626 C627 1.524 . S
C626 C640 1.377 . S
C627 C626 1.524 . S
C627 C628 1.397 . S
C627 C632 1.363 . S
C628 H605 0.950 . S
C628 C627 1.397 . S
C628 C629 1.334 . S
C629 H606 0.950 . S
C629 C628 1.334 . S
C629 C630 1.287 . S
C630 C629 1.287 . S
C630 C631 1.524 . S
C630 H649 0.913 . S
C631 H607 0.950 . S
C631 C630 1.524 . S
C631 C632 1.415 . S
C632 H608 0.950 . S
C632 C627 1.363 . S
C632 C631 1.415 . S
C633 H609 0.951 . S
C633 C634 1.376 . S
C633 C635 1.388 . S
C634 C633 1.376 . S
C634 C638 1.375 1_565 S
C635 H610 0.951 . S
C635 C633 1.388 . S
C635 C636 1.366 . S
C636 C635 1.366 . S
C636 C637 1.414 1_565 S
C636 C639 1.500 . S
C637 H611 0.950 . S
C637 C636 1.414 1_545 S
C637 C638 1.374 . S
C638 H612 0.950 . S
C638 C634 1.375 1_545 S
C638 C637 1.374 . S
C639 C636 1.500 . S
C639 C640 1.341 1_565 S
C639 C641 1.421 . S
C640 H613 0.950 . S
C640 C626 1.377 . S
C640 C639 1.341 1_545 S
C641 C625 1.377 . S
C641 C639 1.421 . S
C641 C642 1.524 . S
C642 C641 1.524 . S
C642 C643 1.397 . S
C642 C647 1.363 . S
C643 H614 0.950 . S
C643 C642 1.397 . S
C643 C644 1.334 . S
C644 H615 0.950 . S
C644 C643 1.334 . S
C644 C645 1.287 . S
C645 C644 1.287 . S
C645 C646 1.524 . S
C645 H648 0.999 . S
C646 H616 0.950 . S
C646 C645 1.524 . S
C646 C647 1.415 . S
C647 H617 0.950 . S
C647 C642 1.363 . S
C647 C646 1.415 . S
H648 C645 0.999 . S
H649 C630 0.913 . S
H650 C668 0.951 . S
H651 C670 0.951 . S
H652 C672 0.950 . S
H653 C673 0.950 . S
H654 C675 0.950 . S
H655 C678 0.950 . S
H656 C679 0.950 . S
H657 C681 0.950 . S
H658 C682 0.950 . S
H659 C683 0.951 . S
H660 C685 0.951 . S
H661 C687 0.950 . S
H662 C688 0.950 . S
H663 C690 0.950 . S
H664 C693 0.950 . S
H665 C694 0.950 . S
H666 C696 0.950 . S
H667 C697 0.950 . S
C668 H650 0.951 . S
C668 C669 1.367 . S
C668 C670 1.388 . S
C669 C668 1.367 . S
C669 C673 1.383 1_455 S
C670 H651 0.951 . S
C670 C668 1.388 . S
C670 C671 1.366 1_455 S
C671 C670 1.366 1_655 S
C671 C672 1.414 . S
C671 C674 1.499 . S
C672 H652 0.950 . S
C672 C671 1.414 . S
C672 C673 1.374 . S
C673 H653 0.950 . S
C673 C669 1.383 1_655 S
C673 C672 1.374 . S
C674 C671 1.499 . S
C674 C675 1.373 1_655 S
C674 C676 1.389 . S
C675 H654 0.950 . S
C675 C674 1.373 1_455 S
C675 C691 1.377 . S
C676 C674 1.389 . S
C676 C677 1.524 . S
C676 C690 1.377 . S
C677 C676 1.524 . S
C677 C678 1.397 . S
C677 C682 1.363 . S
C678 H655 0.950 . S
C678 C677 1.397 . S
C678 C679 1.334 . S
C679 H656 0.950 . S
C679 C678 1.334 . S
C679 C680 1.287 . S
C680 C679 1.287 . S
C680 C681 1.524 . S
C680 H699 0.913 . S
C681 H657 0.950 . S
C681 C680 1.524 . S
C681 C682 1.415 . S
C682 H658 0.950 . S
C682 C677 1.363 . S
C682 C681 1.415 . S
C683 H659 0.951 . S
C683 C684 1.356 1_655 S
C683 C685 1.388 . S
C684 C683 1.356 1_455 S
C684 C688 1.395 . S
C685 H660 0.951 . S
C685 C683 1.388 . S
C685 C686 1.366 1_655 S
C686 C685 1.366 1_455 S
C686 C687 1.414 . S
C686 C689 1.499 . S
C687 H661 0.950 . S
C687 C686 1.414 . S
C687 C688 1.374 . S
C688 H662 0.950 . S
C688 C684 1.395 . S
C688 C687 1.374 . S
C689 C686 1.499 . S
C689 C690 1.373 1_455 S
C689 C691 1.389 . S
C690 H663 0.950 . S
C690 C676 1.377 . S
C690 C689 1.373 1_655 S
C691 C675 1.377 . S
C691 C689 1.389 . S
C691 C692 1.524 . S
C692 C691 1.524 . S
C692 C693 1.397 . S
C692 C697 1.363 . S
C693 H664 0.950 . S
C693 C692 1.397 . S
C693 C694 1.334 . S
C694 H665 0.950 . S
C694 C693 1.334 . S
C694 C695 1.287 . S
C695 C694 1.287 . S
C695 C696 1.524 . S
C695 H698 0.999 . S
C696 H666 0.950 . S
C696 C695 1.524 . S
C696 C697 1.415 . S
C697 H667 0.950 . S
C697 C692 1.363 . S
C697 C696 1.415 . S
H698 C695 0.999 . S
H699 C680 0.913 . S
C334 C173 1.780 1_565 S
C319 C47 1.656 . S
C384 C261 1.779 . S
C369 C109 1.655 1_455 S
C434 C181 1.780 . S
C419 C29 1.662 . S
C484 C269 1.779 1_655 S
C469 C91 1.661 1_455 S
C534 C241 1.368 . S
C519 C53 1.346 . S
C584 C144 1.368 1_655 S
C569 C115 1.345 1_455 S
C634 C232 1.368 1_565 S
C619 C35 1.352 . S
C669 C97 1.349 1_455 S
C684 C153 1.371 . S
