# Generated by pormake.
# Topology zzz, (3,6)-cn, num edge types: 1
# Building blocks:
#     Node 0, Type 0, BuildingBlock: MIDCAF_clean_linker_0, # of connection points: 3
#     Node 1, Type 0, BuildingBlock: MIDCAF_clean_linker_0, # of connection points: 3
#     Node 2, Type 0, BuildingBlock: MIDCAF_clean_linker_0, # of connection points: 3
#     Node 3, Type 0, BuildingBlock: MIDCAF_clean_linker_0, # of connection points: 3
#     Node 4, Type 0, BuildingBlock: MIDCAF_clean_linker_0, # of connection points: 3
#     Node 5, Type 0, BuildingBlock: MIDCAF_clean_linker_0, # of connection points: 3
#     Node 6, Type 0, BuildingBlock: MIDCAF_clean_linker_0, # of connection points: 3
#     Node 7, Type 0, BuildingBlock: MIDCAF_clean_linker_0, # of connection points: 3
#     Node 8, Type 1, BuildingBlock: INOVEN_clean_sbu_0, # of connection points: 6
#     Node 9, Type 1, BuildingBlock: INOVEN_clean_sbu_0, # of connection points: 6
#     Node 10, Type 1, BuildingBlock: INOVEN_clean_sbu_0, # of connection points: 6
#     Node 11, Type 1, BuildingBlock: INOVEN_clean_sbu_0, # of connection points: 6
#     Edge 12, Type (0, 1), BuildingBlock: UVAHIK_clean_linker_0, # of connection points: 2
#     Edge 13, Type (0, 1), BuildingBlock: UVAHIK_clean_linker_0, # of connection points: 2
#     Edge 14, Type (0, 1), BuildingBlock: UVAHIK_clean_linker_0, # of connection points: 2
#     Edge 15, Type (0, 1), BuildingBlock: UVAHIK_clean_linker_0, # of connection points: 2
#     Edge 16, Type (0, 1), BuildingBlock: UVAHIK_clean_linker_0, # of connection points: 2
#     Edge 17, Type (0, 1), BuildingBlock: UVAHIK_clean_linker_0, # of connection points: 2
#     Edge 18, Type (0, 1), BuildingBlock: UVAHIK_clean_linker_0, # of connection points: 2
#     Edge 19, Type (0, 1), BuildingBlock: UVAHIK_clean_linker_0, # of connection points: 2
#     Edge 20, Type (0, 1), BuildingBlock: UVAHIK_clean_linker_0, # of connection points: 2
#     Edge 21, Type (0, 1), BuildingBlock: UVAHIK_clean_linker_0, # of connection points: 2
#     Edge 22, Type (0, 1), BuildingBlock: UVAHIK_clean_linker_0, # of connection points: 2
#     Edge 23, Type (0, 1), BuildingBlock: UVAHIK_clean_linker_0, # of connection points: 2
#     Edge 24, Type (0, 1), BuildingBlock: UVAHIK_clean_linker_0, # of connection points: 2
#     Edge 25, Type (0, 1), BuildingBlock: UVAHIK_clean_linker_0, # of connection points: 2
#     Edge 26, Type (0, 1), BuildingBlock: UVAHIK_clean_linker_0, # of connection points: 2
#     Edge 27, Type (0, 1), BuildingBlock: UVAHIK_clean_linker_0, # of connection points: 2
#     Edge 28, Type (0, 1), BuildingBlock: UVAHIK_clean_linker_0, # of connection points: 2
#     Edge 29, Type (0, 1), BuildingBlock: UVAHIK_clean_linker_0, # of connection points: 2
#     Edge 30, Type (0, 1), BuildingBlock: UVAHIK_clean_linker_0, # of connection points: 2
#     Edge 31, Type (0, 1), BuildingBlock: UVAHIK_clean_linker_0, # of connection points: 2
#     Edge 32, Type (0, 1), BuildingBlock: UVAHIK_clean_linker_0, # of connection points: 2
#     Edge 33, Type (0, 1), BuildingBlock: UVAHIK_clean_linker_0, # of connection points: 2
#     Edge 34, Type (0, 1), BuildingBlock: UVAHIK_clean_linker_0, # of connection points: 2
#     Edge 35, Type (0, 1), BuildingBlock: UVAHIK_clean_linker_0, # of connection points: 2
# Relax obj value: 0.402
# Max RMSD: 0.274
# Mean RMSD: 0.250
data_MOF--net-zzz--node1-INOVEN_clean_sbu_0--node2-MIDCAF_clean_linker_0--edge1-UVAHIK_clean_linker_0
_symmetry_space_group_name_H-M    P1
_symmetry_Int_Tables_number       1
_symmetry_cell_setting            triclinic
loop_
_symmetry_equiv_pos_as_xyz
'x, y, z'
_cell_length_a     73.788342
_cell_length_b     73.88519
_cell_length_c     22.589449
_cell_angle_alpha  89.9644
_cell_angle_beta   89.957563
_cell_angle_gamma 90.56395
loop_
_atom_site_label
_atom_site_type_symbol
_atom_site_fract_x
_atom_site_fract_y
_atom_site_fract_z
_atom_type_partial_charge
C0 C 0.77944 0.56052 0.40252 0.0
C1 C 0.78263 0.54266 0.42096 0.0
C2 C 0.77027 0.529 0.40332 0.0
C3 C 0.75577 0.53298 0.36524 0.0
H4 H 0.68298 0.5512 0.28245 0.0
H5 H 0.65405 0.54221 0.2368 0.0
H6 H 0.68329 0.51571 0.09607 0.0
H7 H 0.71185 0.5246 0.14191 0.0
H8 H 0.7271 0.57307 0.08523 0.0
H9 H 0.74524 0.58386 1.00205 0.0
H10 H 0.78768 0.60023 0.12299 0.0
H11 H 0.76952 0.58992 0.20582 0.0
H12 H 0.76371 0.57822 0.34875 0.0
H13 H 0.78867 0.57141 0.41441 0.0
H14 H 0.77217 0.51513 0.4173 0.0
H15 H 0.74713 0.52205 0.34971 0.0
N16 N 0.72576 0.54516 0.28219 0.0
N17 N 0.72298 0.56005 0.19039 0.0
N18 N 0.74773 0.56643 0.25121 0.0
C19 C 0.71634 0.54824 0.23116 0.0
C20 C 0.7386 0.56931 0.20016 0.0
C21 C 0.74155 0.55448 0.2924 0.0
C22 C 0.69955 0.53833 0.21604 0.0
C23 C 0.68309 0.54278 0.2432 0.0
C24 C 0.66658 0.53786 0.21653 0.0
C25 C 0.66631 0.52836 0.1624 0.0
C26 C 0.68289 0.5228 0.13798 0.0
C27 C 0.6993 0.52785 0.16428 0.0
C28 C 0.74712 0.58007 0.15212 0.0
C29 C 0.74006 0.57948 0.09428 0.0
C30 C 0.75046 0.58565 0.04649 0.0
C31 C 0.76807 0.59252 0.05569 0.0
C32 C 0.77417 0.59504 0.11409 0.0
C33 C 0.7638 0.58891 0.16179 0.0
C34 C 0.75348 0.55066 0.3437 0.0
C35 C 0.76511 0.56444 0.36446 0.0
C36 C 0.99665 0.78399 0.39708 0.0
C37 C 0.98317 0.79723 0.40373 0.0
C38 C 0.96609 0.79407 0.37832 0.0
C39 C 0.96293 0.77886 0.34323 0.0
H40 H 0.01446 0.71721 0.21384 0.0
H41 H 0.0249 0.68936 0.16644 0.0
H42 H 0.97209 0.66505 0.19406 0.0
H43 H 0.96189 0.69279 0.24132 0.0
H44 H 0.95957 0.73097 0.07996 0.0
H45 H 0.9527 0.74576 0.9863 0.0
H46 H 0.93884 0.79456 0.08096 0.0
H47 H 0.9451 0.77974 0.17388 0.0
H48 H 1.00439 0.75922 0.35389 0.0
H49 H 0.00995 0.78607 0.41628 0.0
H50 H 0.95532 0.8038 0.38363 0.0
H51 H 0.94981 0.77737 0.32215 0.0
N52 N 0.98212 0.73633 0.28363 0.0
N53 N 0.96925 0.7306 0.18985 0.0
N54 N 0.96413 0.75817 0.23657 0.0
C55 C 0.97925 0.72499 0.23664 0.0
C56 C 0.96171 0.7472 0.18924 0.0
C57 C 0.97413 0.75296 0.28396 0.0
C58 C 0.98749 0.70699 0.23201 0.0
C59 C 1.00547 0.70554 0.21254 0.0
C60 C 0.01131 0.68969 0.18453 0.0
C61 C 0.99925 0.67504 0.17558 0.0
C62 C 0.98181 0.67595 0.2005 0.0
C63 C 0.97596 0.69182 0.22797 0.0
C64 C 0.95338 0.75434 0.13443 0.0
C65 C 0.95453 0.74469 0.08088 0.0
C66 C 0.95066 0.75318 0.02706 0.0
C67 C 0.94557 0.77147 0.02581 0.0
C68 C 0.94263 0.78044 0.07986 0.0
C69 C 0.94644 0.77196 0.13349 0.0
C70 C 0.97674 0.7663 0.33245 0.0
C71 C 0.99345 0.76861 0.3616 0.0
C72 C 0.72034 0.96616 0.40189 0.0
C73 C 0.72022 0.98326 0.42907 0.0
C74 C 0.73481 0.99527 0.41816 0.0
C75 C 0.74875 0.99054 0.37879 0.0
H76 H 0.81574 0.94729 0.24985 0.0
H77 H 0.84536 0.95218 0.20402 0.0
H78 H 0.83348 0.00897 0.18388 0.0
H79 H 0.8039 1.00397 0.23088 0.0
H80 H 0.7778 0.95489 0.09017 0.0
H81 H 0.76185 0.95073 0.99668 0.0
H82 H 0.71119 0.94559 0.0917 0.0
H83 H 0.72704 0.94928 0.18467 0.0
H84 H 0.73319 0.94863 0.33982 0.0
H85 H 0.70927 0.95664 0.40861 0.0
H86 H 0.73516 0.00851 0.43872 0.0
H87 H 0.75937 1.00033 0.36902 0.0
N88 N 0.77809 0.97474 0.29749 0.0
N89 N 0.78042 0.96321 0.20057 0.0
N90 N 0.75258 0.96228 0.24934 0.0
C91 C 0.78829 0.97093 0.24867 0.0
C92 C 0.76257 0.95893 0.2003 0.0
C93 C 0.76013 0.97006 0.29802 0.0
C94 C 0.80772 0.9753 0.24454 0.0
C95 C 0.81989 0.96096 0.23839 0.0
C96 C 0.83672 0.96373 0.21136 0.0
C97 C 0.84161 0.98089 0.18921 0.0
C98 C 0.83015 0.99561 0.20068 0.0
C99 C 0.81327 0.9928 0.22799 0.0
C100 C 0.75365 0.95281 0.14499 0.0
C101 C 0.76331 0.95243 0.09124 0.0
C102 C 0.75418 0.9501 0.03754 0.0
C103 C 0.73523 0.94806 0.03654 0.0
C104 C 0.72582 0.94696 0.09063 0.0
C105 C 0.73492 0.94927 0.14419 0.0
C106 C 0.74812 0.97387 0.34898 0.0
C107 C 0.73403 0.96159 0.36218 0.0
C108 C 0.46473 0.73742 0.08311 0.0
C109 C 0.454 0.74632 0.04126 0.0
C110 C 0.45033 0.76477 0.04825 0.0
C111 C 0.45792 0.77436 0.09576 0.0
H112 H 0.46654 0.82622 0.17335 0.0
H113 H 0.47232 0.85664 0.13812 0.0
H114 H 0.5261 0.85528 0.21366 0.0
H115 H 0.52026 0.82422 0.24835 0.0
H116 H 0.52877 0.76202 0.28563 0.0
H117 H 0.53678 0.73588 0.34678 0.0
H118 H 0.48393 0.73745 0.429 0.0
H119 H 0.47624 0.76361 0.36846 0.0
H120 H 0.48055 0.73963 0.16179 0.0
H121 H 0.46763 0.72314 0.07836 0.0
H122 H 0.44205 0.7718 0.01623 0.0
H123 H 0.45526 0.7887 0.09964 0.0
N124 N 0.48058 0.79378 0.18097 0.0
N125 N 0.49776 0.79396 0.26883 0.0
N126 N 0.48534 0.76676 0.23181 0.0
C127 C 0.4903 0.80306 0.22226 0.0
C128 C 0.49497 0.77572 0.2738 0.0
C129 C 0.47816 0.77566 0.18515 0.0
C130 C 0.493 0.82276 0.21318 0.0
C131 C 0.47949 0.8325 0.18357 0.0
C132 C 0.48278 0.85008 0.16371 0.0
C133 C 0.49973 0.85849 0.1727 0.0
C134 C 0.51295 0.84914 0.20544 0.0
C135 C 0.50957 0.83144 0.22585 0.0
C136 C 0.50205 0.76499 0.32339 0.0
C137 C 0.51928 0.75726 0.31892 0.0
C138 C 0.52371 0.74211 0.35323 0.0
C139 C 0.51091 0.73436 0.39232 0.0
C140 C 0.4942 0.74309 0.39994 0.0
C141 C 0.48979 0.75817 0.36551 0.0
C142 C 0.46898 0.7655 0.13727 0.0
C143 C 0.47203 0.74687 0.13091 0.0
C144 C 0.21945 0.51709 0.98424 0.0
C145 C 0.21961 0.50611 0.9335 0.0
C146 C 0.23458 0.49474 0.9241 0.0
C147 C 0.24873 0.49396 0.96572 0.0
H148 H 0.31403 0.5179 0.05136 0.0
H149 H 0.34649 0.52008 0.07441 0.0
H150 H 0.34149 0.47247 0.18489 0.0
H151 H 0.30961 0.47023 0.16064 0.0
H152 H 0.28205 0.50392 0.27569 0.0
H153 H 0.26886 0.50631 0.37476 0.0
H154 H 0.21586 0.49486 0.30223 0.0
H155 H 0.22888 0.49262 0.20345 0.0
H156 H 0.23233 0.52418 0.06581 0.0
H157 H 0.20809 0.52584 0.99336 0.0
H158 H 0.23514 0.48618 0.88527 0.0
H159 H 0.25973 0.4846 0.95866 0.0
N160 N 0.27872 0.49873 0.06007 0.0
N161 N 0.2821 0.49546 0.1632 0.0
N162 N 0.25348 0.50079 0.12356 0.0
C163 C 0.28951 0.49579 0.10824 0.0
C164 C 0.26416 0.49793 0.1713 0.0
C165 C 0.26052 0.50116 0.06797 0.0
C166 C 0.30937 0.49389 0.10422 0.0
C167 C 0.32017 0.50748 0.07825 0.0
C168 C 0.33868 0.50886 0.09232 0.0
C169 C 0.34666 0.49664 0.13242 0.0
C170 C 0.33606 0.48208 0.15352 0.0
C171 C 0.31768 0.48077 0.13969 0.0
C172 C 0.25647 0.49817 0.2317 0.0
C173 C 0.26761 0.5017 0.28101 0.0
C174 C 0.26011 0.50311 0.33766 0.0
C175 C 0.24141 0.50064 0.34608 0.0
C176 C 0.23038 0.49655 0.29708 0.0
C177 C 0.23781 0.49544 0.24044 0.0
C178 C 0.24793 0.50425 0.01792 0.0
C179 C 0.23334 0.51608 0.02598 0.0
C180 C 0.05086 0.23995 0.90804 0.0
C181 C 0.03242 0.23621 0.89773 0.0
C182 C 0.01946 0.2482 0.92108 0.0
C183 C 0.02484 0.26283 0.95706 0.0
H184 H 0.07022 0.33225 0.1026 0.0
H185 H 0.06172 0.35963 0.15535 0.0
H186 H 1.00529 0.34441 0.14066 0.0
H187 H 0.01393 0.31682 0.08689 0.0
H188 H 0.07034 0.2899 0.225 0.0
H189 H 0.07762 0.27058 0.30895 0.0
H190 H 0.08874 0.22651 0.18912 0.0
H191 H 0.08182 0.24577 0.10549 0.0
H192 H 0.07043 0.25612 0.95412 0.0
H193 H 0.06126 0.231 0.89165 0.0
H194 H 1.00514 0.24586 0.91349 0.0
H195 H 0.01457 0.27113 0.97757 0.0
N196 N 0.0427 0.29422 0.02979 0.0
N197 N 0.05979 0.29594 0.1178 0.0
N198 N 0.06025 0.26959 0.06137 0.0
C199 C 0.04859 0.30383 0.07794 0.0
C200 C 0.06559 0.2788 0.11013 0.0
C201 C 0.04897 0.27708 0.02097 0.0
C202 C 0.04273 0.32246 0.09076 0.0
C203 C 0.05596 0.33509 0.10861 0.0
C204 C 0.0511 0.35068 0.13925 0.0
C205 C 0.03288 0.35396 0.15319 0.0
C206 C 0.01944 0.34222 0.13045 0.0
C207 C 0.02435 0.32651 0.0994 0.0
C208 C 0.07495 0.26919 0.15859 0.0
C209 C 0.07494 0.27628 0.21639 0.0
C210 C 0.07906 0.2652 0.26461 0.0
C211 C 0.08336 0.24692 0.2558 0.0
C212 C 0.0855 0.24053 0.19762 0.0
C213 C 0.08133 0.25156 0.1495 0.0
C214 C 0.04322 0.26558 0.97064 0.0
C215 C 0.05616 0.25437 0.94409 0.0
C216 C 0.27935 1.00312 0.93979 0.0
C217 C 0.28471 0.02138 0.93551 0.0
C218 C 0.27427 0.03454 0.96462 0.0
C219 C 0.25946 0.02939 1.00008 0.0
H220 H 0.18524 0.00696 0.06398 0.0
H221 H 0.15583 0.01435 0.10853 0.0
H222 H 0.1834 0.03597 0.26195 0.0
H223 H 0.21254 0.02832 0.21775 0.0
H224 H 0.22532 0.97306 0.24482 0.0
H225 H 0.24072 0.95491 0.31923 0.0
H226 H 0.28743 0.95134 0.20418 0.0
H227 H 0.27191 0.96862 0.12965 0.0
H228 H 0.26176 0.98371 0.98116 0.0
H229 H 0.28715 0.99263 0.91847 0.0
H230 H 0.278 0.04872 0.9618 0.0
H231 H 0.25231 0.03967 0.02478 0.0
N232 N 0.22752 0.01369 0.07085 0.0
N233 N 0.22418 0.99483 0.15443 0.0
N234 N 0.24901 0.99128 0.09161 0.0
C235 C 0.21792 0.00839 0.11963 0.0
C236 C 0.23969 0.98613 0.14056 0.0
C237 C 0.24314 1.00496 0.05666 0.0
C238 C 0.20103 0.01729 0.13734 0.0
C239 C 0.18492 0.01392 0.10616 0.0
C240 C 0.16815 0.01799 0.13189 0.0
C241 C 0.16731 0.02568 0.18883 0.0
C242 C 0.18357 0.03026 0.21779 0.0
C243 C 0.20026 0.02591 0.19256 0.0
C244 C 0.2475 0.97264 0.18163 0.0
C245 C 0.23873 0.96804 0.23495 0.0
C246 C 0.24759 0.95768 0.27778 0.0
C247 C 0.26544 0.95181 0.26831 0.0
C248 C 0.27363 0.95535 0.21317 0.0
C249 C 0.26475 0.96553 0.17034 0.0
C250 C 0.25507 0.011 0.00775 0.0
C251 C 0.26481 0.998 0.97581 0.0
C252 C 0.58015 0.28446 0.15909 0.0
C253 C 0.5838 0.27718 0.21539 0.0
C254 C 0.57823 0.25928 0.22739 0.0
C255 C 0.56763 0.24966 0.18661 0.0
H256 H 0.51224 0.22836 0.20161 0.0
H257 H 0.49907 0.20274 0.25415 0.0
H258 H 0.4957 0.17277 0.0903 0.0
H259 H 0.50894 0.19888 0.03716 0.0
H260 H 0.54961 0.26576 0.92806 0.0
H261 H 0.54291 0.29136 0.8641 0.0
H262 H 0.4874 0.29049 0.92485 0.0
H263 H 0.49413 0.26444 0.98827 0.0
H264 H 0.56634 0.28135 0.07682 0.0
H265 H 0.58403 0.29821 0.14799 0.0
H266 H 0.5812 0.25303 0.26962 0.0
H267 H 0.56261 0.23635 0.1988 0.0
N268 N 0.53767 0.23583 0.11723 0.0
N269 N 0.51769 0.23827 0.0364 0.0
N270 N 0.54313 0.25755 0.04436 0.0
C271 C 0.5227 0.22995 0.08774 0.0
C272 C 0.52813 0.25207 0.01434 0.0
C273 C 0.54803 0.24955 0.09576 0.0
C274 C 0.51157 0.21556 0.11543 0.0
C275 C 0.50828 0.21646 0.17653 0.0
C276 C 0.50065 0.20179 0.20658 0.0
C277 C 0.49633 0.18569 0.17645 0.0
C278 C 0.49894 0.18499 0.11468 0.0
C279 C 0.50635 0.19993 0.08423 0.0
C280 C 0.52242 0.2632 0.96336 0.0
C281 C 0.53582 0.27062 0.92616 0.0
C282 C 0.53201 0.28541 0.88997 0.0
C283 C 0.51475 0.29328 0.8906 0.0
C284 C 0.50085 0.28476 0.92343 0.0
C285 C 0.50466 0.26978 0.95953 0.0
C286 C 0.56256 0.25768 0.13269 0.0
C287 C 0.56978 0.27478 0.11813 0.0
Gd288 Gd 0.01129 0.00791 0.73877 0.0
Gd289 Gd 0.98968 0.02036 0.62273 0.0
C290 C 0.99779 0.97855 0.63797 0.0
C291 C 0.01556 0.99147 0.83751 0.0
C292 C 0.00931 0.97292 0.85092 0.0
C293 C 0.02181 0.95987 0.86906 0.0
C294 C 0.9917 0.96737 0.83491 0.0
C295 C 0.99973 0.9359 0.84956 0.0
C296 C 0.98696 0.94907 0.83437 0.0
C297 C 0.01706 0.9415 0.86847 0.0
C298 C 0.03417 0.01398 0.64611 0.0
C299 C 0.0085 0.05016 0.71601 0.0
C300 C 0.98062 0.03869 0.5311 0.0
C301 C 0.98924 0.05558 0.51087 0.0
C302 C 0.9797 0.06827 0.47727 0.0
C303 C 0.00679 0.05982 0.53066 0.0
C304 C 1.00513 0.08945 0.48519 0.0
C305 C 0.01466 0.07654 0.51796 0.0
C306 C 0.98766 0.08511 0.46413 0.0
C307 C 0.96966 0.00866 0.71517 0.0
O308 O 1.00134 0.98201 0.69451 0.0
O309 O 0.99492 0.99154 0.59873 0.0
O310 O 0.0284 0.99245 0.79754 0.0
O311 O 1.00291 1.0036 0.8297 0.0
O312 O 0.03976 0.0099 0.69903 0.0
O313 O 0.01723 0.015 0.64798 0.0
O314 O 1.00124 0.04613 0.66371 0.0
O315 O 0.01286 0.03768 0.75559 0.0
O316 O 0.97205 0.04 0.58173 0.0
O317 O 0.99081 0.02427 0.52784 0.0
O318 O 0.96473 0.00636 0.66035 0.0
O319 O 0.98403 0.01794 0.71741 0.0
H320 H 0.03554 0.96381 0.88062 0.0
H321 H 0.98179 0.97705 0.81998 0.0
H322 H 0.97338 0.94522 0.82078 0.0
H323 H 0.02723 0.93165 0.88022 0.0
H324 H 0.96604 0.06531 0.46234 0.0
H325 H 0.01434 0.05035 0.55729 0.0
H326 H 0.02824 0.07936 0.53391 0.0
H327 H 0.98002 0.09487 0.43882 0.0
Gd328 Gd 0.5104 0.03431 0.728 0.0
Gd329 Gd 0.49634 0.01179 0.61678 0.0
C330 C 0.53883 0.01512 0.63554 0.0
C331 C 0.53041 0.04428 0.81472 0.0
C332 C 0.54774 0.03591 0.83106 0.0
C333 C 0.56328 0.04667 0.83973 0.0
C334 C 0.54954 0.01705 0.82678 0.0
C335 C 0.58223 0.01985 0.83525 0.0
C336 C 0.56655 0.00912 0.82898 0.0
C337 C 0.58041 0.0387 0.8419 0.0
C338 C 0.49946 0.05349 0.63338 0.0
C339 C 0.46802 0.02653 0.71861 0.0
C340 C 0.47983 1.00372 0.5204 0.0
C341 C 0.4621 0.99464 0.51087 0.0
C342 C 0.46127 0.97637 0.49365 0.0
C343 C 0.44587 1.00367 0.52366 0.0
C344 C 0.42848 0.97608 0.50595 0.0
C345 C 0.42929 0.9945 0.52123 0.0
C346 C 0.44463 0.96717 0.49127 0.0
C347 C 0.50022 0.99003 0.71351 0.0
O348 O 0.53523 0.02064 0.69009 0.0
O349 O 0.52597 0.01272 0.59544 0.0
O350 O 0.53071 0.05265 0.76357 0.0
O351 O 0.51583 0.03419 0.82224 0.0
O352 O 0.49737 0.05887 0.68775 0.0
O353 O 0.50819 0.0389 0.63184 0.0
O354 O 0.47082 0.02095 0.66347 0.0
O355 O 0.4814 0.03086 0.75524 0.0
O356 O 0.49274 0.9936 0.54241 0.0
O357 O 0.47931 0.01995 0.54412 0.0
O358 O 0.49509 0.98406 0.66211 0.0
O359 O 0.50295 0.00671 0.70858 0.0
H360 H 0.56224 0.06127 0.84208 0.0
H361 H 0.53792 0.00842 0.81818 0.0
H362 H 0.56742 0.99463 0.82257 0.0
H363 H 0.59224 0.04732 0.84757 0.0
H364 H 0.47355 0.96906 0.4835 0.0
H365 H 0.44593 0.01776 0.5368 0.0
H366 H 0.41707 1.0019 0.53132 0.0
H367 H 0.44445 0.95297 0.47935 0.0
Gd368 Gd 0.49601 0.51905 0.69531 0.0
Gd369 Gd 0.52071 0.50788 0.58705 0.0
C370 C 0.51033 0.5493 0.6004 0.0
C371 C 0.48587 0.53297 0.7937 0.0
C372 C 0.4754 0.5494 0.80599 0.0
C373 C 0.45971 0.55339 0.77334 0.0
C374 C 0.48252 0.56239 0.84497 0.0
C375 C 0.4594 0.5837 0.81466 0.0
C376 C 0.47462 0.57942 0.84913 0.0
C377 C 0.45168 0.57038 0.77803 0.0
C378 C 0.47597 0.51693 0.59401 0.0
C379 C 0.50404 0.47661 0.67653 0.0
C380 C 0.53495 0.4925 0.49598 0.0
C381 C 0.54453 0.47537 0.48873 0.0
C382 C 0.54799 0.4686 0.43207 0.0
C383 C 0.54986 0.46545 0.53864 0.0
C384 C 0.56174 0.44179 0.47516 0.0
C385 C 0.55841 0.44881 0.53194 0.0
C386 C 0.55654 0.45193 0.42527 0.0
C387 C 0.538 0.51709 0.68855 0.0
O388 O 0.50586 0.54564 0.65609 0.0
O389 O 0.51393 0.53636 0.5617 0.0
O390 O 0.47709 0.51947 0.76848 0.0
O391 O 0.50198 0.53602 0.77078 0.0
O392 O 0.46914 0.52072 0.64542 0.0
O393 O 0.49259 0.51441 0.60101 0.0
O394 O 0.513 0.4807 0.62719 0.0
O395 O 0.49717 0.48912 0.71182 0.0
O396 O 0.54342 0.50479 0.52754 0.0
O397 O 0.51773 0.49097 0.50935 0.0
O398 O 0.54438 0.52048 0.6361 0.0
O399 O 0.52347 0.50812 0.68437 0.0
H400 H 0.45406 0.5437 0.7423 0.0
H401 H 0.49467 0.55963 0.8702 0.0
H402 H 0.48069 0.58944 0.8782 0.0
H403 H 0.44001 0.5734 0.75084 0.0
H404 H 0.54386 0.47607 0.39314 0.0
H405 H 0.54729 0.47053 0.58281 0.0
H406 H 0.56238 0.44143 0.57121 0.0
H407 H 0.55863 0.44677 0.38095 0.0
Gd408 Gd 0.9959 0.50356 0.71634 0.0
Gd409 Gd 0.00929 0.52409 0.60037 0.0
C410 C 0.96695 0.5224 0.62342 0.0
C411 C 0.97736 0.49602 0.80936 0.0
C412 C 0.96132 0.50589 0.82946 0.0
C413 C 0.94722 0.49705 0.8598 0.0
C414 C 0.9591 0.52391 0.81128 0.0
C415 C 0.9286 0.52397 0.85086 0.0
C416 C 0.94294 0.53285 0.82185 0.0
C417 C 0.93096 0.50609 0.87086 0.0
C418 C 1.0045 0.48268 0.62299 0.0
C419 C 0.03845 0.50938 0.69942 0.0
C420 C 0.02626 0.5295 0.5034 0.0
C421 C 0.04529 0.5354 0.49945 0.0
C422 C 0.0525 0.54668 0.54392 0.0
C423 C 0.0571 0.52623 0.4616 0.0
C424 C 0.08293 0.53727 0.51867 0.0
C425 C 0.0758 0.5272 0.47102 0.0
C426 C 0.07116 0.54765 0.55332 0.0
C427 C 0.00806 0.54714 0.69483 0.0
O428 O 0.97085 0.51696 0.67796 0.0
O429 O 0.97953 0.52452 0.58215 0.0
O430 O 0.97512 0.48731 0.75938 0.0
O431 O 0.99267 0.50517 0.81146 0.0
O432 O 0.00709 0.47782 0.67771 0.0
O433 O 0.99654 0.49769 0.62088 0.0
O434 O 0.03499 0.51421 0.64404 0.0
O435 O 0.02545 0.50616 0.73865 0.0
O436 O 0.01475 0.54134 0.52459 0.0
O437 O 0.0243 0.51331 0.52657 0.0
O438 O 0.01257 0.55221 0.64178 0.0
O439 O 1.00427 0.53059 0.69257 0.0
H440 H 0.94859 0.48306 0.87331 0.0
H441 H 0.96967 0.53095 0.78697 0.0
H442 H 0.94159 0.54669 0.80673 0.0
H443 H 0.92005 0.49895 0.89323 0.0
H444 H 0.04369 0.55362 0.57457 0.0
H445 H 0.05182 0.51726 0.42768 0.0
H446 H 0.08462 0.51933 0.44285 0.0
H447 H 0.07622 0.55544 0.59051 0.0
C448 C 0.14569 0.04188 0.25633 0.0
C449 C 0.14988 0.02667 0.22168 0.0
C450 C 0.13085 0.04148 0.29499 0.0
C451 C 0.1064 0.00922 0.38627 0.0
H452 H 0.07141 0.04733 0.41106 0.0
C453 C 0.06494 0.01565 0.60085 0.0
C454 C 0.04607 0.0169 0.59418 0.0
C455 C 0.07641 0.01742 0.55193 0.0
C456 C 0.08107 0.03657 0.40434 0.0
H457 H 0.14139 0.99938 0.19885 0.0
H458 H 0.1156 0.99865 0.26668 0.0
H459 H 0.09305 0.04957 0.32844 0.0
H460 H 0.02448 0.02073 0.53101 0.0
H461 H 0.0446 0.02464 0.44541 0.0
H462 H 0.0949 0.99648 0.46296 0.0
C463 C 0.12375 0.01089 0.26368 0.0
C464 C 0.09345 0.03788 0.35736 0.0
C465 C 0.13842 0.01138 0.22447 0.0
C466 C 0.03893 0.02017 0.53764 0.0
C467 C 0.05044 0.0223 0.48869 0.0
C468 C 0.0943 0.00808 0.4337 0.0
C469 C 0.12009 0.02576 0.30039 0.0
C470 C 0.10626 0.02421 0.34797 0.0
C471 C 0.06929 0.0207 0.49534 0.0
C472 C 0.08158 0.02178 0.44342 0.0
H473 H 0.15427 0.05385 0.25498 0.0
H474 H 0.12837 0.0531 0.32295 0.0
H475 H 0.11624 0.99857 0.38051 0.0
H476 H 0.07085 0.01306 0.64386 0.0
H477 H 0.0909 0.01622 0.55833 0.0
C478 C 0.4995 0.15277 0.20224 0.0
C479 C 0.49085 0.16942 0.21122 0.0
C480 C 0.49712 0.13854 0.24268 0.0
C481 C 0.48724 0.13258 0.40041 0.0
H482 H 0.48532 0.08134 0.36395 0.0
C483 C 0.48432 0.08004 0.58736 0.0
C484 C 0.49505 0.06459 0.58102 0.0
C485 C 0.48131 0.0915 0.53921 0.0
C486 C 0.486 0.0956 0.37488 0.0
H487 H 0.47165 0.18363 0.26653 0.0
H488 H 0.46742 0.15884 0.33669 0.0
H489 H 0.48412 0.10355 0.28363 0.0
H490 H 0.51055 0.04861 0.51897 0.0
H491 H 0.50576 0.0689 0.43505 0.0
H492 H 0.48975 0.12487 0.49102 0.0
C493 C 0.47637 0.15689 0.29927 0.0
C494 C 0.48525 0.10831 0.32883 0.0
C495 C 0.47874 0.17107 0.25897 0.0
C496 C 0.50222 0.06047 0.52507 0.0
C497 C 0.49937 0.07205 0.47691 0.0
C498 C 0.48811 0.11994 0.44621 0.0
C499 C 0.48604 0.14071 0.29285 0.0
C500 C 0.48588 0.12697 0.34113 0.0
C501 C 0.48916 0.08793 0.48364 0.0
C502 C 0.48754 0.10126 0.43423 0.0
H503 H 0.50902 0.15112 0.16618 0.0
H504 H 0.50481 0.12628 0.23655 0.0
H505 H 0.48819 0.14683 0.41143 0.0
H506 H 0.47845 0.08342 0.62985 0.0
H507 H 0.473 0.10333 0.54585 0.0
C508 C 0.37005 0.518 0.17497 0.0
C509 C 0.36487 0.50026 0.15927 0.0
C510 C 0.38511 0.52115 0.21129 0.0
C511 C 0.42481 0.49894 0.28488 0.0
H512 H 0.41481 0.53411 0.40755 0.0
C513 C 0.47386 0.51302 0.48331 0.0
C514 C 0.46544 0.51542 0.53851 0.0
C515 C 0.46344 0.51211 0.43133 0.0
C516 C 0.41783 0.52417 0.37383 0.0
H517 H 0.37272 0.47209 0.16505 0.0
H518 H 0.39845 0.47748 0.23002 0.0
H519 H 0.39406 0.53083 0.32513 0.0
H520 H 0.43961 0.51853 0.58282 0.0
H521 H 0.42154 0.51664 0.49324 0.0
H522 H 0.44817 0.4917 0.3359 0.0
C523 C 0.39098 0.48904 0.21406 0.0
C524 C 0.40604 0.52249 0.32577 0.0
C525 C 0.37602 0.4859 0.17721 0.0
C526 C 0.4465 0.51677 0.54088 0.0
C527 C 0.43614 0.51582 0.48932 0.0
C528 C 0.43661 0.50059 0.33333 0.0
C529 C 0.39533 0.50664 0.23347 0.0
C530 C 0.40915 0.50965 0.281 0.0
C531 C 0.44443 0.51365 0.43371 0.0
C532 C 0.43304 0.51296 0.37909 0.0
H533 H 0.36184 0.52944 0.16241 0.0
H534 H 0.3883 0.53495 0.2239 0.0
H535 H 0.42783 0.48907 0.25097 0.0
H536 H 0.48846 0.51209 0.48023 0.0
H537 H 0.47029 0.51054 0.38926 0.0
C538 C 0.01464 0.38067 0.18893 0.0
C539 C 0.02847 0.36801 0.19795 0.0
C540 C 0.01089 0.39374 0.23231 0.0
C541 C 0.01485 0.40177 0.39213 0.0
H542 H 0.01394 0.45298 0.35517 0.0
C543 C 0.01752 0.45486 0.57767 0.0
C544 C 0.00741 0.47072 0.57141 0.0
C545 C 0.01946 0.44291 0.53015 0.0
C546 C 0.01386 0.43873 0.36627 0.0
H547 H 0.0488 0.35877 0.26001 0.0
H548 H 0.04213 0.38126 0.33538 0.0
H549 H 0.01739 0.43088 0.2754 0.0
H550 H 0.9916 0.48671 0.51026 0.0
H551 H 0.99453 0.46563 0.42756 0.0
H552 H 0.01109 0.40932 0.48248 0.0
C553 C 0.0343 0.38128 0.29481 0.0
C554 C 0.01586 0.42608 0.32046 0.0
C555 C 0.03822 0.36849 0.25138 0.0
C556 C 0.99952 0.47458 0.51629 0.0
C557 C 1.00128 0.46251 0.4688 0.0
C558 C 0.01265 0.41433 0.4377 0.0
C559 C 0.02062 0.39406 0.2859 0.0
C560 C 0.01671 0.40749 0.33312 0.0
C561 C 0.01111 0.44638 0.47527 0.0
C562 C 0.01248 0.43303 0.4257 0.0
H563 H 0.0069 0.38057 0.1482 0.0
H564 H 1.00021 0.40341 0.22444 0.0
H565 H 0.01519 0.3875 0.40313 0.0
H566 H 0.0239 0.45162 0.6195 0.0
H567 H 0.02754 0.43092 0.53661 0.0
C568 C 0.86897 0.99766 0.14859 0.0
C569 C 0.85698 0.98275 0.14679 0.0
C570 C 0.88239 0.99986 0.10502 0.0
C571 C 0.89129 0.98859 0.95019 0.0
H572 H 0.94169 0.99932 0.98472 0.0
C573 C 0.94438 0.99128 0.76312 0.0
C574 C 0.95819 1.00439 0.76703 0.0
C575 C 0.93297 0.98785 0.81148 0.0
C576 C 0.92763 0.99658 0.97412 0.0
H577 H 0.84967 0.95854 0.09755 0.0
H578 H 0.87291 0.96243 0.022 0.0
H579 H 0.92007 0.99555 0.06595 0.0
H580 H 0.97102 0.02418 0.8244 0.0
H581 H 0.95083 0.01872 0.90801 0.0
H582 H 0.89846 0.99014 0.85875 0.0
C583 C 0.87204 0.97234 0.05718 0.0
C584 C 0.91527 0.99437 0.0208 0.0
C585 C 0.85885 0.97002 0.10093 0.0
C586 C 0.96056 0.01386 0.82037 0.0
C587 C 0.94901 0.01064 0.86846 0.0
C588 C 0.90354 0.99104 0.9036 0.0
C589 C 0.88382 0.98737 0.05829 0.0
C590 C 0.897 0.99022 0.00927 0.0
C591 C 0.93491 0.99771 0.86458 0.0
C592 C 0.92193 0.99496 0.91477 0.0
H593 H 0.86785 0.00769 0.18331 0.0
H594 H 0.89125 0.01162 0.10679 0.0
H595 H 0.87722 0.98568 0.93992 0.0
H596 H 0.94238 0.98367 0.72263 0.0
H597 H 0.9226 0.97748 0.80706 0.0
C598 C 0.52045 0.87873 0.11299 0.0
C599 C 0.50384 0.87602 0.14242 0.0
C600 C 0.52298 0.89353 0.07499 0.0
C601 C 0.51894 0.91575 0.96338 0.0
H602 H 0.49419 0.96149 0.98034 0.0
C603 C 0.50224 0.95979 0.76158 0.0
C604 C 0.50281 0.97871 0.76678 0.0
C605 C 0.50447 0.94878 0.81127 0.0
C606 C 0.50142 0.94891 0.97506 0.0
H607 H 0.47749 0.88776 0.15899 0.0
H608 H 0.48161 0.91306 0.09153 0.0
H609 H 0.4954 0.94065 0.06386 0.0
H610 H 0.50558 1.00095 0.82826 0.0
H611 H 0.51012 0.98177 0.91532 0.0
H612 H 0.52518 0.92407 0.87499 0.0
C613 C 0.4928 0.9039 0.09784 0.0
C614 C 0.50193 0.93683 0.02285 0.0
C615 C 0.49034 0.8892 0.13616 0.0
C616 C 0.5055 0.98642 0.82286 0.0
C617 C 0.50786 0.9754 0.87279 0.0
C618 C 0.51855 0.92786 0.91586 0.0
C619 C 0.50893 0.90595 0.06514 0.0
C620 C 0.51034 0.91988 0.01726 0.0
C621 C 0.50739 0.95639 0.86761 0.0
C622 C 0.5094 0.94442 0.92047 0.0
H623 H 0.53116 0.86887 0.11652 0.0
H624 H 0.53576 0.89487 0.05174 0.0
H625 H 0.5254 0.90281 0.95682 0.0
H626 H 0.49999 0.95345 0.71894 0.0
H627 H 0.50357 0.93425 0.80552 0.0
C628 C 0.63714 0.54061 0.12191 0.0
C629 C 0.64926 0.52613 0.1275 0.0
C630 C 0.62271 0.53971 0.08175 0.0
C631 C 0.59581 0.50846 0.98566 0.0
H632 H 0.59001 0.55125 0.88828 0.0
C633 C 0.54225 0.51221 0.79768 0.0
C634 C 0.54842 0.51964 0.74396 0.0
C635 C 0.55285 0.51358 0.84902 0.0
C636 C 0.59145 0.53918 0.91499 0.0
H637 H 0.65494 0.49888 0.0977 0.0
H638 H 0.62993 0.49737 0.0273 0.0
H639 H 0.61126 0.55186 0.97071 0.0
H640 H 0.57025 0.53471 0.7021 0.0
H641 H 0.58872 0.53711 0.79127 0.0
H642 H 0.57641 0.49561 0.9285 0.0
C643 C 0.63153 0.50944 0.05406 0.0
C644 C 0.6035 0.53959 0.96279 0.0
C645 C 0.64598 0.51035 0.09414 0.0
C646 C 0.56514 0.52886 0.74289 0.0
C647 C 0.57568 0.53032 0.79414 0.0
C648 C 0.5837 0.50807 0.93789 0.0
C649 C 0.61999 0.52429 0.04619 0.0
C650 C 0.60603 0.52417 0.99834 0.0
C651 C 0.56978 0.52254 0.84777 0.0
C652 C 0.58157 0.52335 0.90139 0.0
H653 H 0.6393 0.55304 0.14638 0.0
H654 H 0.61392 0.5513 0.07756 0.0
H655 H 0.59728 0.49639 0.01238 0.0
H656 H 0.52938 0.50504 0.79983 0.0
H657 H 0.54779 0.50762 0.88968 0.0
C658 C 0.99802 0.64227 0.14344 0.0
C659 C 1.00363 0.66027 0.13303 0.0
C660 C 0.99971 0.62908 0.09917 0.0
C661 C 1.00068 0.6256 0.93735 0.0
H662 H 0.01761 0.57668 0.96199 0.0
C663 C 0.01178 0.57763 0.74056 0.0
C664 C 0.00771 0.55915 0.74733 0.0
C665 C 0.01164 0.58929 0.78927 0.0
C666 C 0.01259 0.5902 0.95445 0.0
H667 H 0.01587 0.67828 0.06813 0.0
H668 H 0.01891 0.65534 0.99157 0.0
H669 H 0.0173 0.59801 0.04482 0.0
H670 H 1.00088 0.53832 0.81083 0.0
H671 H 0.99983 0.5587 0.89595 0.0
H672 H 0.99552 0.61792 0.8478 0.0
C673 C 0.01315 0.65144 0.03386 0.0
C674 C 0.0125 0.60244 1.00195 0.0
C675 C 0.01162 0.66455 0.07814 0.0
C676 C 1.00371 0.55252 0.80412 0.0
C677 C 1.00337 0.56422 0.85302 0.0
C678 C 1.00059 0.61337 0.89019 0.0
C679 C 0.00684 0.63365 0.0433 0.0
C680 C 0.00674 0.62035 0.99371 0.0
C681 C 0.00727 0.58282 0.84622 0.0
C682 C 0.00674 0.59554 0.89772 0.0
H683 H 0.99189 0.6385 0.18529 0.0
H684 H 0.99471 0.6155 0.1078 0.0
H685 H 0.99577 0.63918 0.92981 0.0
H686 H 0.01516 0.58314 0.69744 0.0
H687 H 0.01517 0.60338 0.78217 0.0
C688 C 0.09322 0.21851 0.30707 0.0
C689 C 0.08194 0.23371 0.3051 0.0
C690 C 0.08849 0.20356 0.34191 0.0
C691 C 0.05491 0.18596 0.45223 0.0
H692 H 0.05543 0.14357 0.35108 0.0
C693 C 0.02324 0.11648 0.51771 0.0
C694 C 0.01373 0.10723 0.47284 0.0
C695 C 0.03299 0.13228 0.50487 0.0
C696 C 0.05513 0.1553 0.37979 0.0
H697 H 0.05786 0.24584 0.34274 0.0
H698 H 0.04967 0.21994 0.40305 0.0
H699 H 0.07198 0.17063 0.32125 0.0
H700 H 0.00638 0.10759 0.38004 0.0
H701 H 0.02317 0.1354 0.35767 0.0
H702 H 0.03728 0.17072 0.50939 0.0
C703 C 0.06221 0.21949 0.37816 0.0
C704 C 0.0649 0.17073 0.36327 0.0
C705 C 0.06695 0.23443 0.34349 0.0
C706 C 0.01355 0.11447 0.41544 0.0
C707 C 0.02334 0.13024 0.40255 0.0
C708 C 0.04512 0.17046 0.46883 0.0
C709 C 0.07238 0.20355 0.37524 0.0
C710 C 0.0646 0.18638 0.3986 0.0
C711 C 0.03345 0.13911 0.44687 0.0
C712 C 0.04479 0.15514 0.43198 0.0
H713 H 0.10503 0.2177 0.27871 0.0
H714 H 0.09683 0.1916 0.33988 0.0
H715 H 0.05449 0.19777 0.48054 0.0
H716 H 0.02339 0.1113 0.56261 0.0
H717 H 0.04062 0.13882 0.53992 0.0
C718 C 0.29068 0.93231 0.30596 0.0
C719 C 0.27656 0.94445 0.31761 0.0
C720 C 0.30443 0.92967 0.34739 0.0
C721 C 0.32574 0.95725 0.46331 0.0
H722 H 0.36121 0.91892 0.45885 0.0
C723 C 0.39754 0.96994 0.54795 0.0
C724 C 0.41073 0.96644 0.50456 0.0
C725 C 0.38009 0.96265 0.54285 0.0
C726 C 0.35134 0.92966 0.46097 0.0
H727 H 0.26446 0.96118 0.38584 0.0
H728 H 0.28772 0.95563 0.45914 0.0
H729 H 0.33062 0.91322 0.4213 0.0
H730 H 0.41624 0.95163 0.42376 0.0
H731 H 0.38577 0.93888 0.41491 0.0
H732 H 0.34654 0.97382 0.50117 0.0
C733 C 0.28872 0.9489 0.41671 0.0
C734 C 0.33384 0.92644 0.43933 0.0
C735 C 0.27517 0.95186 0.37478 0.0
C736 C 0.40643 0.95452 0.45807 0.0
C737 C 0.38898 0.94716 0.45311 0.0
C738 C 0.34309 0.96036 0.48555 0.0
C739 C 0.30416 0.93881 0.402 0.0
C740 C 0.32105 0.94046 0.43783 0.0
C741 C 0.37549 0.95161 0.49445 0.0
C742 C 0.35629 0.94685 0.48242 0.0
H743 H 0.29185 0.92586 0.26311 0.0
H744 H 0.31597 0.92168 0.33424 0.0
H745 H 0.31651 0.96854 0.46223 0.0
H746 H 0.40057 0.97871 0.58514 0.0
H747 H 0.37002 0.96612 0.57573 0.0
C748 C 0.58281 0.28808 0.32044 0.0
C749 C 0.59052 0.28927 0.26353 0.0
C750 C 0.5851 0.30214 0.36104 0.0
C751 C 0.60709 0.34751 0.38487 0.0
H752 H 0.55915 0.35946 0.44243 0.0
C753 C 0.58242 0.4203 0.4225 0.0
C754 C 0.56982 0.4236 0.46784 0.0
C755 C 0.58863 0.4028 0.412 0.0
C756 C 0.57275 0.35623 0.42804 0.0
H757 H 0.6088 0.30506 0.20817 0.0
H758 H 0.61198 0.32997 0.27759 0.0
H759 H 0.56439 0.32994 0.40019 0.0
H760 H 0.55447 0.41118 0.53937 0.0
H761 H 0.56555 0.38071 0.52164 0.0
H762 H 0.61503 0.37442 0.41016 0.0
C763 C 0.60424 0.31816 0.29115 0.0
C764 C 0.5758 0.33919 0.40384 0.0
C765 C 0.60219 0.30394 0.25086 0.0
C766 C 0.56425 0.40914 0.50427 0.0
C767 C 0.57048 0.39165 0.49382 0.0
C768 C 0.60399 0.36466 0.40895 0.0
C769 C 0.59487 0.31785 0.34541 0.0
C770 C 0.59287 0.33475 0.38052 0.0
C771 C 0.58238 0.3882 0.44663 0.0
C772 C 0.58665 0.36934 0.42939 0.0
H773 H 0.57375 0.27704 0.33223 0.0
H774 H 0.57815 0.30122 0.40321 0.0
H775 H 0.62045 0.34446 0.36805 0.0
H776 H 0.58719 0.43121 0.39427 0.0
H777 H 0.59767 0.40059 0.37497 0.0
C778 C 0.21956 0.49179 0.42555 0.0
C779 C 0.23292 0.50378 0.40443 0.0
C780 C 0.20841 0.49676 0.47253 0.0
C781 C 0.18778 0.5381 0.51719 0.0
H782 H 0.15955 0.50519 0.61505 0.0
C783 C 0.11256 0.55074 0.55296 0.0
C784 C 0.10224 0.53557 0.53549 0.0
C785 C 0.13094 0.54895 0.56665 0.0
C786 C 0.16739 0.51466 0.58853 0.0
H787 H 0.24643 0.52954 0.41947 0.0
H788 H 0.2268 0.53834 0.50165 0.0
H789 H 0.19046 0.49727 0.58687 0.0
H790 H 0.10264 0.50645 0.52369 0.0
H791 H 0.13464 0.5034 0.5453 0.0
H792 H 0.16433 0.55469 0.51402 0.0
C793 C 0.22492 0.52512 0.48175 0.0
C794 C 0.18509 0.51015 0.57262 0.0
C795 C 0.23617 0.52006 0.43489 0.0
C796 C 0.11038 0.51848 0.53522 0.0
C797 C 0.12866 0.51668 0.54904 0.0
C798 C 0.17009 0.54254 0.53279 0.0
C799 C 0.21033 0.51391 0.49895 0.0
C800 C 0.19498 0.52127 0.53351 0.0
C801 C 0.13929 0.53194 0.56342 0.0
C802 C 0.15931 0.53027 0.56516 0.0
H803 H 0.21696 0.47905 0.40319 0.0
H804 H 0.19725 0.48783 0.48428 0.0
H805 H 0.19499 0.54698 0.48692 0.0
H806 H 0.10659 0.56407 0.5541 0.0
H807 H 0.13876 0.56094 0.5779 0.0
C808 C 0.96107 0.7797 0.93078 0.0
C809 C 0.9465 0.78217 0.97009 0.0
C810 C 0.96557 0.79306 0.88944 0.0
C811 C 0.95286 0.83929 0.83523 0.0
H812 H 1.00379 0.8492 0.86443 0.0
C813 C 0.98501 0.90997 0.79555 0.0
C814 C 0.99503 0.91641 0.84431 0.0
C815 C 0.97995 0.89173 0.79182 0.0
C816 C 0.98958 0.8466 0.85545 0.0
H817 H 0.92354 0.79919 0.99019 0.0
H818 H 0.93181 0.82282 0.92038 0.0
H819 H 0.99141 0.81947 0.88637 0.0
H820 H 0.00785 0.90874 0.92676 0.0
H821 H 0.99899 0.87701 0.92054 0.0
H822 H 0.95091 0.86703 0.80879 0.0
C823 C 0.93981 0.81062 0.92102 0.0
C824 C 0.98248 0.82942 0.86716 0.0
C825 C 0.93517 0.79714 0.96177 0.0
C826 C 1.0003 0.90416 0.88839 0.0
C827 C 0.99527 0.88596 0.88464 0.0
C828 C 0.95999 0.85655 0.82372 0.0
C829 C 0.95576 0.80926 0.88716 0.0
C830 C 0.96386 0.82577 0.85975 0.0
C831 C 0.98489 0.87957 0.83666 0.0
C832 C 0.97824 0.86057 0.83636 0.0
H833 H 0.97008 0.76831 0.93547 0.0
H834 H 0.97762 0.79135 0.86272 0.0
H835 H 0.93854 0.83685 0.82806 0.0
H836 H 0.98104 0.91904 0.76028 0.0
H837 H 0.97211 0.88716 0.75406 0.0
C838 C 0.72965 0.9634 0.93945 0.0
C839 C 0.7249 0.94982 0.98045 0.0
C840 C 0.71742 0.96861 0.8956 0.0
C841 C 0.67092 0.95917 0.83506 0.0
H842 H 0.66616 0.01114 0.85237 0.0
C843 C 0.60316 0.99438 0.85898 0.0
C844 C 0.60033 0.01131 0.83235 0.0
C845 C 0.61993 0.98599 0.85497 0.0
C846 C 0.66746 0.99669 0.84565 0.0
H847 H 0.70472 0.92937 1.00235 0.0
H848 H 0.68316 0.93886 0.92785 0.0
H849 H 0.69418 0.99675 0.88121 0.0
H850 H 0.61288 0.0325 0.77931 0.0
H851 H 0.64252 0.018 0.77406 0.0
H852 H 0.6435 0.95916 0.80386 0.0
C853 C 0.69629 0.94551 0.92894 0.0
C854 C 0.68359 0.98838 0.86199 0.0
C855 C 0.70858 0.94019 0.97235 0.0
C856 C 0.61472 0.01963 0.80133 0.0
C857 C 0.6316 0.01126 0.79771 0.0
C858 C 0.65471 0.96749 0.81921 0.0
C859 C 0.70015 0.96047 0.89228 0.0
C860 C 0.68521 0.96942 0.85963 0.0
C861 C 0.63436 0.99437 0.82467 0.0
C862 C 0.65257 0.98621 0.82702 0.0
H863 H 0.74213 0.97109 0.94419 0.0
H864 H 0.72101 0.97988 0.86708 0.0
H865 H 0.67187 0.9446 0.83137 0.0
H866 H 0.59248 0.98772 0.88395 0.0
H867 H 0.62179 0.97318 0.87744 0.0
C868 C 0.42911 0.73104 0.98507 0.0
C869 C 0.44741 0.73613 0.98961 0.0
C870 C 0.42376 0.71789 0.94386 0.0
C871 C 0.44064 0.68924 0.81945 0.0
H872 H 0.41869 0.65007 0.90951 0.0
C873 C 0.46454 0.61695 0.80659 0.0
C874 C 0.45243 0.60238 0.81415 0.0
C875 C 0.45839 0.63469 0.80891 0.0
C876 C 0.42436 0.66091 0.8828 0.0
H877 H 0.47421 0.7329 0.95268 0.0
H878 H 0.46504 0.71011 0.88083 0.0
H879 H 0.41714 0.68083 0.94681 0.0
H880 H 0.4243 0.59479 0.8275 0.0
H881 H 0.41348 0.62607 0.83288 0.0
H882 H 0.44908 0.669 0.75782 0.0
C883 C 0.45469 0.71618 0.90816 0.0
C884 C 0.42344 0.67861 0.90414 0.0
C885 C 0.46001 0.72914 0.94954 0.0
C886 C 0.43389 0.60584 0.82182 0.0
C887 C 0.42773 0.62368 0.82486 0.0
C888 C 0.4416 0.67154 0.7982 0.0
C889 C 0.43666 0.70982 0.9066 0.0
C890 C 0.4325 0.69278 0.87447 0.0
C891 C 0.43999 0.63827 0.81925 0.0
C892 C 0.43438 0.6571 0.83149 0.0
H893 H 0.41923 0.73628 0.01596 0.0
H894 H 0.40977 0.71331 0.94342 0.0
H895 H 0.44744 0.69996 0.79506 0.0
H896 H 0.47886 0.61461 0.79966 0.0
H897 H 0.46823 0.64561 0.80537 0.0
C898 C 0.7822 0.57899 0.96594 0.0
C899 C 0.78132 0.59345 0.00628 0.0
C900 C 0.79768 0.57645 0.93162 0.0
C901 C 0.84564 0.58379 0.95368 0.0
H902 H 0.84949 0.55662 0.80746 0.0
C903 C 0.90272 0.53346 0.91491 0.0
C904 C 0.91126 0.53349 0.85943 0.0
C905 C 0.88708 0.54355 0.92395 0.0
C906 C 0.84869 0.5644 0.84799 0.0
H907 H 0.79484 0.618 0.03586 0.0
H908 H 0.82194 0.61356 0.97563 0.0
H909 H 0.82121 0.57201 0.83126 0.0
H910 H 0.90977 0.5434 0.76915 0.0
H911 H 0.88236 0.56106 0.78503 0.0
H912 H 0.87289 0.57583 0.97125 0.0
C913 C 0.81082 0.60395 0.97175 0.0
C914 C 0.8325 0.57316 0.86168 0.0
C915 C 0.7953 0.60651 0.00615 0.0
C916 C 0.90356 0.54335 0.81263 0.0
C917 C 0.88784 0.55335 0.82156 0.0
C918 C 0.86175 0.57503 0.94009 0.0
C919 C 0.81258 0.5883 0.93691 0.0
C920 C 0.83063 0.58249 0.91556 0.0
C921 C 0.8796 0.55377 0.87757 0.0
C922 C 0.86325 0.56477 0.88808 0.0
H923 H 0.77177 0.56858 0.96504 0.0
H924 H 0.79858 0.56421 0.90546 0.0
H925 H 0.84464 0.59065 0.9959 0.0
H926 H 0.90841 0.52601 0.9517 0.0
H927 H 0.88081 0.54335 0.96732 0.0
C928 C 0.03743 0.21169 0.8219 0.0
C929 C 0.02701 0.21884 0.8684 0.0
C930 C 0.0343 0.19408 0.80113 0.0
C931 C 0.01425 0.15038 0.85087 0.0
H932 H 0.02286 0.13609 0.68827 0.0
C933 C 0.01912 0.07499 0.78465 0.0
C934 C 0.01132 0.06964 0.73058 0.0
C935 C 0.02091 0.09337 0.79914 0.0
C936 C 0.02024 0.13982 0.73381 0.0
H937 H 1.00439 0.2132 0.92721 0.0
H938 H 0.99848 0.18284 0.88957 0.0
H939 H 0.02447 0.16798 0.71526 0.0
H940 H 0.9995 0.07966 0.64896 0.0
H941 H 1.00238 0.11147 0.67448 0.0
H942 H 0.00956 0.12232 0.8692 0.0
C943 C 0.00945 0.19067 0.87016 0.0
C944 C 0.02137 0.15815 0.74946 0.0
C945 C 0.01265 0.20826 0.89114 0.0
C946 C 1.00564 0.08318 0.69099 0.0
C947 C 0.00737 0.10153 0.70553 0.0
C948 C 0.01304 0.13208 0.83518 0.0
C949 C 0.02055 0.18314 0.826 0.0
C950 C 0.01848 0.1637 0.80831 0.0
C951 C 0.01488 0.10691 0.76006 0.0
C952 C 0.01612 0.1265 0.77651 0.0
H953 H 0.04844 0.21951 0.80265 0.0
H954 H 0.0432 0.18882 0.76728 0.0
H955 H 0.0122 0.15401 0.89679 0.0
H956 H 0.02375 0.06499 0.81613 0.0
H957 H 0.02709 0.09694 0.84104 0.0
C958 C 0.30726 0.01791 0.85272 0.0
C959 C 0.30221 0.02616 0.90628 0.0
C960 C 0.32477 0.02029 0.8299 0.0
C961 C 0.37118 0.02973 0.87998 0.0
H962 H 0.38163 0.03549 0.71282 0.0
C963 C 0.44482 0.03651 0.79327 0.0
C964 C 0.44897 0.02793 0.73948 0.0
C965 C 0.42682 0.03779 0.81255 0.0
C966 C 0.37898 0.03367 0.7596 0.0
H967 H 0.31147 0.04383 0.97683 0.0
H968 H 0.34198 0.04808 0.93679 0.0
H969 H 0.35026 0.03553 0.74701 0.0
H970 H 0.43735 0.01383 0.664 0.0
H971 H 0.4062 0.01563 0.69819 0.0
H972 H 0.39978 0.02733 0.89269 0.0
C973 C 0.33241 0.03969 0.91264 0.0
C974 C 0.36097 0.03377 0.77918 0.0
C975 C 0.31486 0.03744 0.93519 0.0
C976 C 0.43469 0.02065 0.70551 0.0
C977 C 0.41674 0.0218 0.72497 0.0
C978 C 0.38918 0.02948 0.8604 0.0
C979 C 0.33769 0.03084 0.86037 0.0
C980 C 0.35685 0.03172 0.83958 0.0
C981 C 0.41252 0.03039 0.77876 0.0
C982 C 0.39335 0.03133 0.79987 0.0
H983 H 0.29781 0.00921 0.82926 0.0
H984 H 0.32841 0.01321 0.78969 0.0
H985 H 0.36847 0.02782 0.92671 0.0
H986 H 0.45545 0.04238 0.82041 0.0
H987 H 0.42413 0.04475 0.85374 0.0
C988 C 0.49642 0.31575 0.83146 0.0
C989 C 0.51213 0.31147 0.8636 0.0
C990 C 0.49404 0.33326 0.80866 0.0
C991 C 0.50853 0.38044 0.83437 0.0
H992 H 0.49376 0.38932 0.67232 0.0
C993 C 0.49475 0.45256 0.74947 0.0
C994 C 0.50264 0.45731 0.69484 0.0
C995 C 0.49424 0.43453 0.76829 0.0
C996 C 0.49791 0.38703 0.71767 0.0
H997 H 0.53745 0.32236 0.89786 0.0
H998 H 0.53334 0.35261 0.85819 0.0
H999 H 0.49606 0.35813 0.70859 0.0
H1000 H 0.51579 0.44658 0.6165 0.0
H1001 H 0.51489 0.41511 0.64955 0.0
H1002 H 0.51068 0.40918 0.84355 0.0
C1003 C 0.52288 0.3425 0.85034 0.0
C1004 C 0.49906 0.3692 0.73854 0.0
C1005 C 0.52533 0.32507 0.87247 0.0
C1006 C 0.50961 0.44346 0.65886 0.0
C1007 C 0.50901 0.42538 0.67762 0.0
C1008 C 0.50722 0.3982 0.81376 0.0
C1009 C 0.50718 0.34687 0.81851 0.0
C1010 C 0.50464 0.36571 0.79692 0.0
C1011 C 0.50152 0.42074 0.73292 0.0
C1012 C 0.50207 0.40174 0.75502 0.0
H1013 H 0.48601 0.30558 0.82392 0.0
H1014 H 0.48176 0.33627 0.78447 0.0
H1015 H 0.51269 0.37821 0.87975 0.0
H1016 H 0.48917 0.4628 0.77831 0.0
H1017 H 0.48818 0.43138 0.81081 0.0
C1018 C 0.19569 0.48906 0.87609 0.0
C1019 C 0.20342 0.50566 0.89388 0.0
C1020 C 0.17894 0.48853 0.84683 0.0
C1021 C 0.14519 0.51669 0.76678 0.0
H1022 H 0.11053 0.48184 0.82944 0.0
C1023 C 0.0718 0.5105 0.67595 0.0
C1024 C 0.05779 0.50775 0.7175 0.0
C1025 C 0.09002 0.50942 0.69284 0.0
C1026 C 0.11998 0.49173 0.81159 0.0
H1027 H 0.20011 0.53476 0.89144 0.0
H1028 H 0.17097 0.53386 0.84058 0.0
H1029 H 0.14176 0.48157 0.86419 0.0
H1030 H 0.05215 0.50165 0.80963 0.0
H1031 H 0.08386 0.49993 0.83917 0.0
H1032 H 0.12328 0.52717 0.71534 0.0
C1033 C 0.1778 0.52122 0.84924 0.0
C1034 C 0.138 0.49141 0.83095 0.0
C1035 C 0.19446 0.52174 0.87882 0.0
C1036 C 0.06252 0.50377 0.77633 0.0
C1037 C 0.08076 0.50268 0.79321 0.0
C1038 C 0.12717 0.51697 0.74722 0.0
C1039 C 0.16957 0.50459 0.83422 0.0
C1040 C 0.1508 0.50404 0.80945 0.0
C1041 C 0.09478 0.50554 0.75173 0.0
C1042 C 0.11423 0.50466 0.77007 0.0
H1043 H 0.20215 0.47641 0.88731 0.0
H1044 H 0.17312 0.4755 0.83521 0.0
H1045 H 0.15472 0.52649 0.74878 0.0
H1046 H 0.06876 0.5135 0.63011 0.0
H1047 H 0.10039 0.51147 0.65953 0.0
C1048 C 0.98211 0.83103 0.4019 0.0
C1049 C 0.98707 0.81512 0.43169 0.0
C1050 C 0.985 0.848 0.4275 0.0
C1051 C 0.99023 0.87147 0.5694 0.0
H1052 H 0.00814 0.9106 0.47023 0.0
C1053 C 1.0013 0.9451 0.65702 0.0
C1054 C 0.997 0.95933 0.61809 0.0
C1055 C 1.00119 0.92708 0.6374 0.0
C1056 C 1.00291 0.89992 0.4985 0.0
H1057 H 0.9992 0.80459 0.51172 0.0
H1058 H 1.00414 0.83452 0.55728 0.0
H1059 H 0.00651 0.88 0.43087 0.0
H1060 H 0.98875 0.96556 0.52828 0.0
H1061 H 0.98816 0.93434 0.49466 0.0
H1062 H 0.9862 0.89153 0.63666 0.0
C1063 C 0.99795 0.83372 0.51388 0.0
C1064 C 1.00208 0.88232 0.47593 0.0
C1065 C 0.99525 0.81662 0.48773 0.0
C1066 C 0.99228 0.95503 0.55947 0.0
C1067 C 0.99209 0.93706 0.54 0.0
C1068 C 0.99096 0.88917 0.59199 0.0
C1069 C 0.99287 0.84961 0.48389 0.0
C1070 C 0.99543 0.86792 0.51064 0.0
C1071 C 0.99673 0.92282 0.5784 0.0
C1072 C 0.997 0.90371 0.55639 0.0
H1073 H 0.97595 0.83036 0.35842 0.0
H1074 H 0.98075 0.8599 0.4034 0.0
H1075 H 0.98494 0.86069 0.59718 0.0
H1076 H 1.00501 0.94785 0.70255 0.0
H1077 H 1.00497 0.91654 0.66821 0.0
C1078 C 0.69599 0.00578 0.45348 0.0
C1079 C 0.70399 0.98886 0.46368 0.0
C1080 C 0.67912 0.00989 0.47828 0.0
C1081 C 0.64517 0.99557 0.59158 0.0
H1082 H 0.61085 0.01645 0.48165 0.0
C1083 C 0.5721 0.01562 0.65985 0.0
C1084 C 0.55808 0.01195 0.61916 0.0
C1085 C 0.59027 0.01324 0.64409 0.0
C1086 C 0.62022 0.01051 0.51286 0.0
H1087 H 0.70105 0.96351 0.51124 0.0
H1088 H 0.67163 0.97064 0.55424 0.0
H1089 H 0.64216 0.01217 0.4511 0.0
H1090 H 0.55234 1.00271 0.52996 0.0
H1091 H 0.58399 0.99846 0.50262 0.0
H1092 H 0.62305 0.99358 0.65294 0.0
C1093 C 0.67836 0.98074 0.52703 0.0
C1094 C 0.63826 0.00829 0.4956 0.0
C1095 C 0.69519 0.97659 0.50202 0.0
C1096 C 0.56274 0.00572 0.56242 0.0
C1097 C 0.58092 1.00339 0.5466 0.0
C1098 C 0.6271 0.99789 0.60898 0.0
C1099 C 0.66987 0.99724 0.51415 0.0
C1100 C 0.65096 1.00066 0.5345 0.0
C1101 C 0.59494 0.00723 0.5871 0.0
C1102 C 0.61433 1.0052 0.56956 0.0
H1103 H 0.70232 0.0155 0.42388 0.0
H1104 H 0.67311 0.02284 0.46817 0.0
H1105 H 0.65461 0.98977 0.62282 0.0
H1106 H 0.5691 0.02061 0.70376 0.0
H1107 H 0.60069 0.01653 0.67617 0.0
C1108 C 0.50771 0.712 0.47654 0.0
C1109 C 0.5139 0.71614 0.41911 0.0
C1110 C 0.50853 0.69426 0.49844 0.0
C1111 C 0.50983 0.64702 0.44539 0.0
H1112 H 0.5224 0.63557 0.60763 0.0
C1113 C 0.51758 0.57309 0.52406 0.0
C1114 C 0.51125 0.56853 0.58093 0.0
C1115 C 0.51844 0.59118 0.50569 0.0
C1116 C 0.51864 0.63853 0.56235 0.0
H1117 H 0.52617 0.70477 0.34029 0.0
H1118 H 0.5279 0.67407 0.37879 0.0
H1119 H 0.52341 0.667 0.57405 0.0
H1120 H 0.50078 0.57957 0.66301 0.0
H1121 H 0.502 0.61102 0.63062 0.0
H1122 H 0.50482 0.6187 0.43362 0.0
C1123 C 0.52223 0.68449 0.40674 0.0
C1124 C 0.51926 0.65657 0.54308 0.0
C1125 C 0.52148 0.7022 0.38498 0.0
C1126 C 0.50582 0.58255 0.61897 0.0
C1127 C 0.50662 0.60065 0.6005 0.0
C1128 C 0.50914 0.62903 0.46466 0.0
C1129 C 0.51545 0.68021 0.4633 0.0
C1130 C 0.51494 0.66104 0.48426 0.0
C1131 C 0.51292 0.60522 0.54354 0.0
C1132 C 0.51359 0.6245 0.52335 0.0
H1133 H 0.5019 0.72241 0.50421 0.0
H1134 H 0.50313 0.69145 0.54212 0.0
H1135 H 0.50604 0.64998 0.40012 0.0
H1136 H 0.52198 0.56269 0.49364 0.0
H1137 H 0.52365 0.59415 0.46189 0.0
C1138 C 0.80708 0.5505 0.49515 0.0
C1139 C 0.79974 0.53834 0.45336 0.0
C1140 C 0.82442 0.5479 0.51868 0.0
C1141 C 0.86755 0.525 0.48251 0.0
H1142 H 0.88119 0.5399 0.64099 0.0
C1143 C 0.94271 0.53115 0.55074 0.0
C1144 C 0.94759 0.52537 0.60781 0.0
C1145 C 0.92445 0.53277 0.53487 0.0
C1146 C 0.87763 0.53552 0.59673 0.0
H1147 H 0.80478 0.51336 0.406 0.0
H1148 H 0.83465 0.50848 0.44852 0.0
H1149 H 0.84951 0.54113 0.61073 0.0
H1150 H 0.9369 0.51715 0.69339 0.0
H1151 H 0.90517 0.51976 0.66554 0.0
H1152 H 0.89553 0.51898 0.4688 0.0
C1153 C 0.82717 0.52032 0.46203 0.0
C1154 C 0.85943 0.53641 0.57911 0.0
C1155 C 0.80986 0.52297 0.43828 0.0
C1156 C 0.93371 0.52167 0.64902 0.0
C1157 C 0.91544 0.52324 0.63309 0.0
C1158 C 0.8857 0.52405 0.50015 0.0
C1159 C 0.83491 0.533 0.50137 0.0
C1160 C 0.85414 0.53125 0.5216 0.0
C1161 C 0.91053 0.52859 0.5755 0.0
C1162 C 0.89105 0.52942 0.55734 0.0
H1163 H 0.79961 0.56236 0.50857 0.0
H1164 H 0.82986 0.55801 0.54861 0.0
H1165 H 0.86414 0.52114 0.43762 0.0
H1166 H 0.95298 0.53424 0.51789 0.0
H1167 H 0.92126 0.53731 0.49054 0.0
loop_
_geom_bond_atom_site_label_1
_geom_bond_atom_site_label_2
_geom_bond_distance
_geom_bond_site_symmetry_2
_ccdc_geom_bond_type
C0 C1 1.384 . S
C0 H13 0.947 . S
C0 C35 1.382 . S
C1 C0 1.384 . S
C1 C2 1.378 . S
C2 C1 1.378 . S
C2 C3 1.378 . S
C2 H14 0.952 . S
C3 C2 1.378 . S
C3 H15 0.950 . S
C3 C34 1.383 . S
H4 C23 0.947 . S
H5 C24 0.946 . S
H6 C26 0.953 . S
H7 C27 0.945 . S
H8 C29 0.952 . S
H9 C30 0.949 . S
H10 C32 0.950 . S
H11 C33 0.948 . S
H12 C35 0.951 . S
H13 C0 0.947 . S
H14 C2 0.952 . S
H15 C3 0.950 . S
N16 C19 1.382 . S
N16 C21 1.363 . S
N17 C19 1.371 . S
N17 C20 1.372 . S
N18 C20 1.361 . S
N18 C21 1.377 . S
C19 N16 1.382 . S
C19 N17 1.371 . S
C19 C22 1.480 . S
C20 N17 1.372 . S
C20 N18 1.361 . S
C20 C28 1.457 . S
C21 N16 1.363 . S
C21 N18 1.377 . S
C21 C34 1.479 . S
C22 C19 1.480 . S
C22 C23 1.383 . S
C22 C27 1.385 . S
C23 H4 0.947 . S
C23 C22 1.383 . S
C23 C24 1.388 . S
C24 H5 0.946 . S
C24 C23 1.388 . S
C24 C25 1.384 . S
C25 C24 1.384 . S
C25 C26 1.377 . S
C26 H6 0.953 . S
C26 C25 1.377 . S
C26 C27 1.369 . S
C27 H7 0.945 . S
C27 C22 1.385 . S
C27 C26 1.369 . S
C28 C20 1.457 . S
C28 C29 1.372 . S
C28 C33 1.364 . S
C29 H8 0.952 . S
C29 C28 1.372 . S
C29 C30 1.389 . S
C30 H9 0.949 . S
C30 C29 1.389 . S
C30 C31 1.387 . S
C31 C30 1.387 . S
C31 C32 1.372 . S
C32 H10 0.950 . S
C32 C31 1.372 . S
C32 C33 1.379 . S
C33 H11 0.948 . S
C33 C28 1.364 . S
C33 C32 1.379 . S
C34 C3 1.383 . S
C34 C21 1.479 . S
C34 C35 1.398 . S
C35 C0 1.382 . S
C35 H12 0.951 . S
C35 C34 1.398 . S
C36 C37 1.381 1_655 S
C36 H49 0.948 . S
C36 C71 1.382 1_655 S
C37 C36 1.381 1_455 S
C37 C38 1.388 . S
C38 C37 1.388 . S
C38 C39 1.378 . S
C38 H50 0.952 . S
C39 C38 1.378 . S
C39 H51 0.950 . S
C39 C70 1.383 . S
H40 C59 0.947 . S
H41 C60 0.952 . S
H42 C62 0.953 . S
H43 C63 0.945 . S
H44 C65 0.950 1_655 S
H45 C66 0.956 . S
H46 C68 0.950 . S
H47 C69 0.948 . S
H48 C71 0.952 1_655 S
H49 C36 0.948 . S
H50 C38 0.952 . S
H51 C39 0.950 . S
N52 C55 1.382 . S
N52 C57 1.363 . S
N53 C55 1.371 . S
N53 C56 1.372 . S
N54 C56 1.361 . S
N54 C57 1.377 . S
C55 N52 1.382 . S
C55 N53 1.371 . S
C55 C58 1.480 . S
C56 N53 1.372 . S
C56 N54 1.361 . S
C56 C64 1.457 . S
C57 N52 1.363 . S
C57 N54 1.377 . S
C57 C70 1.479 . S
C58 C55 1.480 . S
C58 C59 1.383 . S
C58 C63 1.385 . S
C59 H40 0.947 . S
C59 C58 1.383 . S
C59 C60 1.386 1_455 S
C60 H41 0.952 . S
C60 C59 1.386 1_655 S
C60 C61 1.381 1_655 S
C61 C60 1.381 1_455 S
C61 C62 1.377 . S
C62 H42 0.953 . S
C62 C61 1.377 . S
C62 C63 1.369 . S
C63 H43 0.945 . S
C63 C58 1.385 . S
C63 C62 1.369 . S
C64 C56 1.457 . S
C64 C65 1.375 . S
C64 C69 1.364 . S
C65 H44 0.950 1_455 S
C65 C64 1.375 . S
C65 C66 1.386 1_455 S
C66 H45 0.956 . S
C66 C65 1.386 1_655 S
C66 C67 1.383 1_655 S
C67 C66 1.383 1_455 S
C67 C68 1.372 . S
C68 H46 0.950 . S
C68 C67 1.372 . S
C68 C69 1.379 . S
C69 H47 0.948 . S
C69 C64 1.364 . S
C69 C68 1.379 . S
C70 C39 1.383 . S
C70 C57 1.479 . S
C70 C71 1.397 . S
C71 C36 1.382 1_455 S
C71 H48 0.952 1_455 S
C71 C70 1.397 . S
C72 C73 1.384 . S
C72 H85 0.947 . S
C72 C107 1.382 . S
C73 C72 1.384 . S
C73 C74 1.378 . S
C74 C73 1.378 . S
C74 C75 1.378 . S
C74 H86 0.952 . S
C75 C74 1.378 . S
C75 H87 0.950 . S
C75 C106 1.383 . S
H76 C95 0.947 . S
H77 C96 0.946 . S
H78 C98 0.953 . S
H79 C99 0.945 . S
H80 C101 0.952 . S
H81 C102 0.949 . S
H82 C104 0.950 . S
H83 C105 0.948 . S
H84 C107 0.951 . S
H85 C72 0.947 . S
H86 C74 0.952 . S
H87 C75 0.950 . S
N88 C91 1.382 . S
N88 C93 1.363 . S
N89 C91 1.371 . S
N89 C92 1.372 . S
N90 C92 1.361 . S
N90 C93 1.377 . S
C91 N88 1.382 . S
C91 N89 1.371 . S
C91 C94 1.480 . S
C92 N89 1.372 . S
C92 N90 1.361 . S
C92 C100 1.457 . S
C93 N88 1.363 . S
C93 N90 1.377 . S
C93 C106 1.479 . S
C94 C91 1.480 . S
C94 C95 1.383 . S
C94 C99 1.385 . S
C95 H76 0.947 . S
C95 C94 1.383 . S
C95 C96 1.388 . S
C96 H77 0.946 . S
C96 C95 1.388 . S
C96 C97 1.384 . S
C97 C96 1.384 . S
C97 C98 1.377 . S
C98 H78 0.953 . S
C98 C97 1.377 . S
C98 C99 1.369 . S
C99 H79 0.945 . S
C99 C94 1.385 . S
C99 C98 1.369 . S
C100 C92 1.457 . S
C100 C101 1.372 . S
C100 C105 1.364 . S
C101 H80 0.952 . S
C101 C100 1.372 . S
C101 C102 1.389 . S
C102 H81 0.949 . S
C102 C101 1.389 . S
C102 C103 1.387 . S
C103 C102 1.387 . S
C103 C104 1.372 . S
C104 H82 0.950 . S
C104 C103 1.372 . S
C104 C105 1.379 . S
C105 H83 0.948 . S
C105 C100 1.364 . S
C105 C104 1.379 . S
C106 C75 1.383 . S
C106 C93 1.479 . S
C106 C107 1.398 . S
C107 C72 1.382 . S
C107 H84 0.951 . S
C107 C106 1.398 . S
C108 C109 1.384 . S
C108 H121 0.947 . S
C108 C143 1.382 . S
C109 C108 1.384 . S
C109 C110 1.378 . S
C110 C109 1.378 . S
C110 C111 1.378 . S
C110 H122 0.952 . S
C111 C110 1.378 . S
C111 H123 0.950 . S
C111 C142 1.383 . S
H112 C131 0.947 . S
H113 C132 0.946 . S
H114 C134 0.953 . S
H115 C135 0.945 . S
H116 C137 0.952 . S
H117 C138 0.949 . S
H118 C140 0.950 . S
H119 C141 0.948 . S
H120 C143 0.951 . S
H121 C108 0.947 . S
H122 C110 0.952 . S
H123 C111 0.950 . S
N124 C127 1.382 . S
N124 C129 1.363 . S
N125 C127 1.371 . S
N125 C128 1.372 . S
N126 C128 1.361 . S
N126 C129 1.377 . S
C127 N124 1.382 . S
C127 N125 1.371 . S
C127 C130 1.480 . S
C128 N125 1.372 . S
C128 N126 1.361 . S
C128 C136 1.457 . S
C129 N124 1.363 . S
C129 N126 1.377 . S
C129 C142 1.479 . S
C130 C127 1.480 . S
C130 C131 1.383 . S
C130 C135 1.385 . S
C131 H112 0.947 . S
C131 C130 1.383 . S
C131 C132 1.388 . S
C132 H113 0.946 . S
C132 C131 1.388 . S
C132 C133 1.384 . S
C133 C132 1.384 . S
C133 C134 1.377 . S
C134 H114 0.953 . S
C134 C133 1.377 . S
C134 C135 1.369 . S
C135 H115 0.945 . S
C135 C130 1.385 . S
C135 C134 1.369 . S
C136 C128 1.457 . S
C136 C137 1.372 . S
C136 C141 1.364 . S
C137 H116 0.952 . S
C137 C136 1.372 . S
C137 C138 1.389 . S
C138 H117 0.949 . S
C138 C137 1.389 . S
C138 C139 1.387 . S
C139 C138 1.387 . S
C139 C140 1.372 . S
C140 H118 0.950 . S
C140 C139 1.372 . S
C140 C141 1.379 . S
C141 H119 0.948 . S
C141 C136 1.364 . S
C141 C140 1.379 . S
C142 C111 1.383 . S
C142 C129 1.479 . S
C142 C143 1.398 . S
C143 C108 1.382 . S
C143 H120 0.951 . S
C143 C142 1.398 . S
C144 C145 1.384 . S
C144 H157 0.947 . S
C144 C179 1.382 . S
C145 C144 1.384 . S
C145 C146 1.378 . S
C146 C145 1.378 . S
C146 C147 1.378 . S
C146 H158 0.952 . S
C147 C146 1.378 . S
C147 H159 0.950 . S
C147 C178 1.383 . S
H148 C167 0.947 1_556 S
H149 C168 0.946 . S
H150 C170 0.953 . S
H151 C171 0.945 . S
H152 C173 0.952 . S
H153 C174 0.949 . S
H154 C176 0.950 . S
H155 C177 0.948 . S
H156 C179 0.951 . S
H157 C144 0.947 . S
H158 C146 0.952 . S
H159 C147 0.950 . S
N160 C163 1.382 1_556 S
N160 C165 1.363 . S
N161 C163 1.371 . S
N161 C164 1.372 . S
N162 C164 1.361 . S
N162 C165 1.377 1_554 S
C163 N160 1.382 1_554 S
C163 N161 1.371 . S
C163 C166 1.480 . S
C164 N161 1.372 . S
C164 N162 1.361 . S
C164 C172 1.457 . S
C165 N160 1.363 . S
C165 N162 1.377 1_556 S
C165 C178 1.479 . S
C166 C163 1.480 . S
C166 C167 1.383 . S
C166 C171 1.385 . S
C167 H148 0.947 1_554 S
C167 C166 1.383 . S
C167 C168 1.388 . S
C168 H149 0.946 . S
C168 C167 1.388 . S
C168 C169 1.384 . S
C169 C168 1.384 . S
C169 C170 1.377 . S
C170 H150 0.953 . S
C170 C169 1.377 . S
C170 C171 1.369 . S
C171 H151 0.945 . S
C171 C166 1.385 . S
C171 C170 1.369 . S
C172 C164 1.457 . S
C172 C173 1.372 . S
C172 C177 1.364 . S
C173 H152 0.952 . S
C173 C172 1.372 . S
C173 C174 1.389 . S
C174 H153 0.949 . S
C174 C173 1.389 . S
C174 C175 1.387 . S
C175 C174 1.387 . S
C175 C176 1.372 . S
C176 H154 0.950 . S
C176 C175 1.372 . S
C176 C177 1.379 . S
C177 H155 0.948 . S
C177 C172 1.364 . S
C177 C176 1.379 . S
C178 C147 1.383 . S
C178 C165 1.479 . S
C178 C179 1.398 . S
C179 C144 1.382 . S
C179 H156 0.951 . S
C179 C178 1.398 . S
C180 C181 1.384 . S
C180 H193 0.948 1_455 S
C180 C215 1.382 . S
C181 C180 1.384 . S
C181 C182 1.378 . S
C182 C181 1.378 . S
C182 C183 1.378 . S
C182 H194 0.952 . S
C183 C182 1.378 . S
C183 H195 0.950 . S
C183 C214 1.383 . S
H184 C203 0.947 1_556 S
H185 C204 0.948 . S
H186 C206 0.953 . S
H187 C207 0.945 . S
H188 C209 0.947 1_655 S
H189 C210 0.954 . S
H190 C212 0.950 . S
H191 C213 0.948 . S
H192 C215 0.950 1_655 S
H193 C180 0.948 1_655 S
H194 C182 0.952 . S
H195 C183 0.950 . S
N196 C199 1.382 1_556 S
N196 C201 1.363 . S
N197 C199 1.371 . S
N197 C200 1.372 . S
N198 C200 1.361 . S
N198 C201 1.377 1_554 S
C199 N196 1.382 1_554 S
C199 N197 1.371 . S
C199 C202 1.480 . S
C200 N197 1.372 . S
C200 N198 1.361 . S
C200 C208 1.457 . S
C201 N196 1.363 . S
C201 N198 1.377 1_556 S
C201 C214 1.479 . S
C202 C199 1.480 . S
C202 C203 1.383 . S
C202 C207 1.385 . S
C203 H184 0.947 1_554 S
C203 C202 1.383 . S
C203 C204 1.387 1_455 S
C204 H185 0.948 . S
C204 C203 1.387 1_655 S
C204 C205 1.383 1_655 S
C205 C204 1.383 1_455 S
C205 C206 1.377 . S
C206 H186 0.953 . S
C206 C205 1.377 . S
C206 C207 1.369 . S
C207 H187 0.945 . S
C207 C202 1.385 . S
C207 C206 1.369 . S
C208 C200 1.457 . S
C208 C209 1.379 . S
C208 C213 1.364 . S
C209 H188 0.947 1_455 S
C209 C208 1.379 . S
C209 C210 1.387 1_455 S
C210 H189 0.954 . S
C210 C209 1.387 1_655 S
C210 C211 1.384 1_655 S
C211 C210 1.384 1_455 S
C211 C212 1.372 . S
C212 H190 0.950 . S
C212 C211 1.372 . S
C212 C213 1.379 . S
C213 H191 0.948 . S
C213 C208 1.364 . S
C213 C212 1.379 . S
C214 C183 1.383 . S
C214 C201 1.479 . S
C214 C215 1.399 . S
C215 C180 1.382 . S
C215 H192 0.950 1_455 S
C215 C214 1.399 . S
C216 C217 1.384 . S
C216 H229 0.947 . S
C216 C251 1.382 . S
C217 C216 1.384 . S
C217 C218 1.378 . S
C218 C217 1.378 . S
C218 C219 1.378 . S
C218 H230 0.952 . S
C219 C218 1.378 . S
C219 H231 0.950 . S
C219 C250 1.383 . S
H220 C239 0.947 1_556 S
H221 C240 0.946 . S
H222 C242 0.953 . S
H223 C243 0.945 . S
H224 C245 0.952 . S
H225 C246 0.949 . S
H226 C248 0.950 . S
H227 C249 0.948 . S
H228 C251 0.951 . S
H229 C216 0.947 . S
H230 C218 0.952 . S
H231 C219 0.950 . S
N232 C235 1.382 1_556 S
N232 C237 1.363 . S
N233 C235 1.371 . S
N233 C236 1.372 . S
N234 C236 1.361 . S
N234 C237 1.377 1_554 S
C235 N232 1.382 1_554 S
C235 N233 1.371 . S
C235 C238 1.480 . S
C236 N233 1.372 . S
C236 N234 1.361 . S
C236 C244 1.457 . S
C237 N232 1.363 . S
C237 N234 1.377 1_556 S
C237 C250 1.479 . S
C238 C235 1.480 . S
C238 C239 1.383 . S
C238 C243 1.385 . S
C239 H220 0.947 1_554 S
C239 C238 1.383 . S
C239 C240 1.388 . S
C240 H221 0.946 . S
C240 C239 1.388 . S
C240 C241 1.384 . S
C241 C240 1.384 . S
C241 C242 1.377 . S
C242 H222 0.953 . S
C242 C241 1.377 . S
C242 C243 1.369 . S
C243 H223 0.945 . S
C243 C238 1.385 . S
C243 C242 1.369 . S
C244 C236 1.457 . S
C244 C245 1.372 . S
C244 C249 1.364 . S
C245 H224 0.952 . S
C245 C244 1.372 . S
C245 C246 1.389 . S
C246 H225 0.949 . S
C246 C245 1.389 . S
C246 C247 1.387 . S
C247 C246 1.387 . S
C247 C248 1.372 . S
C248 H226 0.950 . S
C248 C247 1.372 . S
C248 C249 1.379 . S
C249 H227 0.948 . S
C249 C244 1.364 . S
C249 C248 1.379 . S
C250 C219 1.383 . S
C250 C237 1.479 . S
C250 C251 1.398 . S
C251 C216 1.382 . S
C251 H228 0.951 . S
C251 C250 1.398 . S
C252 C253 1.384 . S
C252 H265 0.947 . S
C252 C287 1.382 . S
C253 C252 1.384 . S
C253 C254 1.378 . S
C254 C253 1.378 . S
C254 C255 1.378 . S
C254 H266 0.952 . S
C255 C254 1.378 . S
C255 H267 0.950 . S
C255 C286 1.383 . S
H256 C275 0.947 . S
H257 C276 0.946 . S
H258 C278 0.953 1_556 S
H259 C279 0.945 1_556 S
H260 C281 0.952 . S
H261 C282 0.949 . S
H262 C284 0.950 . S
H263 C285 0.948 . S
H264 C287 0.951 . S
H265 C252 0.947 . S
H266 C254 0.952 . S
H267 C255 0.950 . S
N268 C271 1.382 . S
N268 C273 1.363 . S
N269 C271 1.371 1_556 S
N269 C272 1.372 . S
N270 C272 1.361 1_554 S
N270 C273 1.377 . S
C271 N268 1.382 . S
C271 N269 1.371 1_554 S
C271 C274 1.480 . S
C272 N269 1.372 . S
C272 N270 1.361 1_556 S
C272 C280 1.457 . S
C273 N268 1.363 . S
C273 N270 1.377 . S
C273 C286 1.479 . S
C274 C271 1.480 . S
C274 C275 1.383 . S
C274 C279 1.385 . S
C275 H256 0.947 . S
C275 C274 1.383 . S
C275 C276 1.388 . S
C276 H257 0.946 . S
C276 C275 1.388 . S
C276 C277 1.384 . S
C277 C276 1.384 . S
C277 C278 1.377 . S
C278 H258 0.953 1_554 S
C278 C277 1.377 . S
C278 C279 1.369 . S
C279 H259 0.945 1_554 S
C279 C274 1.385 . S
C279 C278 1.369 . S
C280 C272 1.457 . S
C280 C281 1.372 . S
C280 C285 1.364 . S
C281 H260 0.952 . S
C281 C280 1.372 . S
C281 C282 1.389 . S
C282 H261 0.949 . S
C282 C281 1.389 . S
C282 C283 1.387 . S
C283 C282 1.387 . S
C283 C284 1.372 . S
C284 H262 0.950 . S
C284 C283 1.372 . S
C284 C285 1.379 . S
C285 H263 0.948 . S
C285 C280 1.364 . S
C285 C284 1.379 . S
C286 C255 1.383 . S
C286 C273 1.479 . S
C286 C287 1.398 . S
C287 C252 1.382 . S
C287 H264 0.951 . S
C287 C286 1.398 . S
Gd288 C291 2.818 . S
Gd288 O308 2.377 . S
Gd288 O310 2.448 . S
Gd288 O311 2.506 . S
Gd288 O312 2.435 . S
Gd288 O313 2.717 1_565 S
Gd288 O315 2.395 1_565 S
Gd288 O319 2.327 1_465 S
Gd289 C300 2.818 . S
Gd289 O309 2.395 1_545 S
Gd289 O313 2.327 1_655 S
Gd289 O314 2.377 . S
Gd289 O316 2.448 . S
Gd289 O317 2.506 . S
Gd289 O318 2.435 . S
Gd289 O319 2.717 . S
C290 O308 1.240 1_655 S
C290 O309 1.240 . S
C291 Gd288 2.818 . S
C291 C292 1.510 . S
C291 O310 1.249 . S
C291 O311 1.252 . S
C292 C291 1.510 . S
C292 C293 1.404 . S
C292 C294 1.352 . S
C293 C292 1.404 . S
C293 C297 1.389 . S
C293 H320 0.930 . S
C294 C292 1.352 . S
C294 C296 1.374 . S
C294 H321 0.931 1_455 S
C295 C296 1.359 . S
C295 C297 1.364 . S
C296 C294 1.374 . S
C296 C295 1.359 . S
C296 H322 0.931 1_455 S
C297 C293 1.389 . S
C297 C295 1.364 . S
C297 H323 0.931 . S
C298 O312 1.256 1_545 S
C298 O313 1.257 . S
C299 O314 1.240 1_455 S
C299 O315 1.240 . S
C300 Gd289 2.818 . S
C300 C301 1.510 . S
C300 O316 1.249 . S
C300 O317 1.252 . S
C301 C300 1.510 . S
C301 C302 1.404 . S
C301 C303 1.352 . S
C302 C301 1.404 . S
C302 C306 1.389 . S
C302 H324 0.930 . S
C303 C301 1.352 . S
C303 C305 1.374 . S
C303 H325 0.931 1_655 S
C304 C305 1.359 . S
C304 C306 1.364 . S
C305 C303 1.374 . S
C305 C304 1.359 . S
C305 H326 0.931 1_655 S
C306 C302 1.389 . S
C306 C304 1.364 . S
C306 H327 0.931 . S
C307 O318 1.256 . S
C307 O319 1.257 . S
O308 Gd288 2.377 . S
O308 C290 1.240 1_455 S
O309 Gd289 2.395 1_565 S
O309 C290 1.240 . S
O310 Gd288 2.448 . S
O310 C291 1.249 . S
O311 Gd288 2.506 . S
O311 C291 1.252 . S
O312 Gd288 2.435 . S
O312 C298 1.256 1_565 S
O313 Gd288 2.717 1_545 S
O313 Gd289 2.327 1_455 S
O313 C298 1.257 . S
O314 Gd289 2.377 . S
O314 C299 1.240 1_655 S
O315 Gd288 2.395 1_545 S
O315 C299 1.240 . S
O316 Gd289 2.448 . S
O316 C300 1.249 . S
O317 Gd289 2.506 . S
O317 C300 1.252 . S
O318 Gd289 2.435 . S
O318 C307 1.256 . S
O319 Gd288 2.327 1_645 S
O319 Gd289 2.717 . S
O319 C307 1.257 . S
H320 C293 0.930 . S
H321 C294 0.931 1_655 S
H322 C296 0.931 1_655 S
H323 C297 0.931 . S
H324 C302 0.930 . S
H325 C303 0.931 1_455 S
H326 C305 0.931 1_455 S
H327 C306 0.931 . S
Gd328 C331 2.818 . S
Gd328 O348 2.377 . S
Gd328 O350 2.448 . S
Gd328 O351 2.506 . S
Gd328 O352 2.435 . S
Gd328 O353 2.717 . S
Gd328 O355 2.395 . S
Gd328 O359 2.327 1_545 S
Gd329 C340 2.818 . S
Gd329 O349 2.395 . S
Gd329 O353 2.327 1_565 S
Gd329 O354 2.377 1_565 S
Gd329 O356 2.448 . S
Gd329 O357 2.506 1_565 S
Gd329 O358 2.435 . S
Gd329 O359 2.717 . S
C330 O348 1.240 1_565 S
C330 O349 1.240 . S
C331 Gd328 2.818 . S
C331 C332 1.510 . S
C331 O350 1.249 . S
C331 O351 1.252 . S
C332 C331 1.510 . S
C332 C333 1.404 . S
C332 C334 1.352 . S
C333 C332 1.404 . S
C333 C337 1.389 . S
C333 H360 0.930 . S
C334 C332 1.352 . S
C334 C336 1.374 . S
C334 H361 0.931 1_545 S
C335 C336 1.359 . S
C335 C337 1.364 . S
C336 C334 1.374 . S
C336 C335 1.359 . S
C336 H362 0.931 1_545 S
C337 C333 1.389 . S
C337 C335 1.364 . S
C337 H363 0.931 . S
C338 O352 1.256 . S
C338 O353 1.257 . S
C339 O354 1.240 . S
C339 O355 1.240 . S
C340 Gd329 2.818 . S
C340 C341 1.510 . S
C340 O356 1.249 . S
C340 O357 1.252 1_565 S
C341 C340 1.510 . S
C341 C342 1.404 . S
C341 C343 1.352 1_565 S
C342 C341 1.404 . S
C342 C346 1.389 . S
C342 H364 0.930 . S
C343 C341 1.352 1_545 S
C343 C345 1.374 . S
C343 H365 0.931 . S
C344 C345 1.359 1_565 S
C344 C346 1.364 . S
C345 C343 1.374 . S
C345 C344 1.359 1_545 S
C345 H366 0.931 . S
C346 C342 1.389 . S
C346 C344 1.364 . S
C346 H367 0.931 . S
C347 O358 1.256 . S
C347 O359 1.257 . S
O348 Gd328 2.377 . S
O348 C330 1.240 1_545 S
O349 Gd329 2.395 . S
O349 C330 1.240 . S
O350 Gd328 2.448 . S
O350 C331 1.249 . S
O351 Gd328 2.506 . S
O351 C331 1.252 . S
O352 Gd328 2.435 . S
O352 C338 1.256 . S
O353 Gd328 2.717 . S
O353 Gd329 2.327 1_545 S
O353 C338 1.257 . S
O354 Gd329 2.377 1_545 S
O354 C339 1.240 . S
O355 Gd328 2.395 . S
O355 C339 1.240 . S
O356 Gd329 2.448 . S
O356 C340 1.249 . S
O357 Gd329 2.506 1_545 S
O357 C340 1.252 1_545 S
O358 Gd329 2.435 . S
O358 C347 1.256 . S
O359 Gd328 2.327 1_565 S
O359 Gd329 2.717 . S
O359 C347 1.257 . S
H360 C333 0.930 . S
H361 C334 0.931 1_565 S
H362 C336 0.931 1_565 S
H363 C337 0.931 . S
H364 C342 0.930 . S
H365 C343 0.931 . S
H366 C345 0.931 . S
H367 C346 0.931 . S
Gd368 C371 2.818 . S
Gd368 O388 2.377 . S
Gd368 O390 2.448 . S
Gd368 O391 2.506 . S
Gd368 O392 2.435 . S
Gd368 O393 2.717 . S
Gd368 O395 2.395 . S
Gd368 O399 2.327 . S
Gd369 C380 2.818 . S
Gd369 O389 2.395 . S
Gd369 O393 2.327 . S
Gd369 O394 2.377 . S
Gd369 O396 2.448 . S
Gd369 O397 2.506 . S
Gd369 O398 2.435 . S
Gd369 O399 2.717 . S
C370 O388 1.240 . S
C370 O389 1.240 . S
C371 Gd368 2.818 . S
C371 C372 1.510 . S
C371 O390 1.249 . S
C371 O391 1.252 . S
C372 C371 1.510 . S
C372 C373 1.404 . S
C372 C374 1.352 . S
C373 C372 1.404 . S
C373 C377 1.389 . S
C373 H400 0.930 . S
C374 C372 1.352 . S
C374 C376 1.374 . S
C374 H401 0.931 . S
C375 C376 1.359 . S
C375 C377 1.364 . S
C376 C374 1.374 . S
C376 C375 1.359 . S
C376 H402 0.931 . S
C377 C373 1.389 . S
C377 C375 1.364 . S
C377 H403 0.931 . S
C378 O392 1.256 . S
C378 O393 1.257 . S
C379 O394 1.240 . S
C379 O395 1.240 . S
C380 Gd369 2.818 . S
C380 C381 1.510 . S
C380 O396 1.249 . S
C380 O397 1.252 . S
C381 C380 1.510 . S
C381 C382 1.404 . S
C381 C383 1.352 . S
C382 C381 1.404 . S
C382 C386 1.389 . S
C382 H404 0.930 . S
C383 C381 1.352 . S
C383 C385 1.374 . S
C383 H405 0.931 . S
C384 C385 1.359 . S
C384 C386 1.364 . S
C385 C383 1.374 . S
C385 C384 1.359 . S
C385 H406 0.931 . S
C386 C382 1.389 . S
C386 C384 1.364 . S
C386 H407 0.931 . S
C387 O398 1.256 . S
C387 O399 1.257 . S
O388 Gd368 2.377 . S
O388 C370 1.240 . S
O389 Gd369 2.395 . S
O389 C370 1.240 . S
O390 Gd368 2.448 . S
O390 C371 1.249 . S
O391 Gd368 2.506 . S
O391 C371 1.252 . S
O392 Gd368 2.435 . S
O392 C378 1.256 . S
O393 Gd368 2.717 . S
O393 Gd369 2.327 . S
O393 C378 1.257 . S
O394 Gd369 2.377 . S
O394 C379 1.240 . S
O395 Gd368 2.395 . S
O395 C379 1.240 . S
O396 Gd369 2.448 . S
O396 C380 1.249 . S
O397 Gd369 2.506 . S
O397 C380 1.252 . S
O398 Gd369 2.435 . S
O398 C387 1.256 . S
O399 Gd368 2.327 . S
O399 Gd369 2.717 . S
O399 C387 1.257 . S
H400 C373 0.930 . S
H401 C374 0.931 . S
H402 C376 0.931 . S
H403 C377 0.931 . S
H404 C382 0.930 . S
H405 C383 0.931 . S
H406 C385 0.931 . S
H407 C386 0.931 . S
Gd408 C411 2.818 . S
Gd408 O428 2.377 . S
Gd408 O430 2.448 . S
Gd408 O431 2.506 . S
Gd408 O432 2.435 . S
Gd408 O433 2.717 1_655 S
Gd408 O435 2.395 1_655 S
Gd408 O439 2.327 . S
Gd409 C420 2.818 . S
Gd409 O429 2.395 1_455 S
Gd409 O433 2.327 . S
Gd409 O434 2.377 . S
Gd409 O436 2.448 . S
Gd409 O437 2.506 . S
Gd409 O438 2.435 . S
Gd409 O439 2.717 1_455 S
C410 O428 1.240 . S
C410 O429 1.240 . S
C411 Gd408 2.818 . S
C411 C412 1.510 . S
C411 O430 1.249 . S
C411 O431 1.252 . S
C412 C411 1.510 . S
C412 C413 1.404 . S
C412 C414 1.352 . S
C413 C412 1.404 . S
C413 C417 1.389 . S
C413 H440 0.930 . S
C414 C412 1.352 . S
C414 C416 1.374 . S
C414 H441 0.931 . S
C415 C416 1.359 . S
C415 C417 1.364 . S
C416 C414 1.374 . S
C416 C415 1.359 . S
C416 H442 0.931 . S
C417 C413 1.389 . S
C417 C415 1.364 . S
C417 H443 0.931 . S
C418 O432 1.256 . S
C418 O433 1.257 1_655 S
C419 O434 1.240 . S
C419 O435 1.240 . S
C420 Gd409 2.818 . S
C420 C421 1.510 . S
C420 O436 1.249 . S
C420 O437 1.252 . S
C421 C420 1.510 . S
C421 C422 1.404 . S
C421 C423 1.352 . S
C422 C421 1.404 . S
C422 C426 1.389 . S
C422 H444 0.930 . S
C423 C421 1.352 . S
C423 C425 1.374 . S
C423 H445 0.931 . S
C424 C425 1.359 . S
C424 C426 1.364 . S
C425 C423 1.374 . S
C425 C424 1.359 . S
C425 H446 0.931 . S
C426 C422 1.389 . S
C426 C424 1.364 . S
C426 H447 0.931 . S
C427 O438 1.256 . S
C427 O439 1.257 1_455 S
O428 Gd408 2.377 . S
O428 C410 1.240 . S
O429 Gd409 2.395 1_655 S
O429 C410 1.240 . S
O430 Gd408 2.448 . S
O430 C411 1.249 . S
O431 Gd408 2.506 . S
O431 C411 1.252 . S
O432 Gd408 2.435 . S
O432 C418 1.256 . S
O433 Gd408 2.717 1_455 S
O433 Gd409 2.327 . S
O433 C418 1.257 1_455 S
O434 Gd409 2.377 . S
O434 C419 1.240 . S
O435 Gd408 2.395 1_455 S
O435 C419 1.240 . S
O436 Gd409 2.448 . S
O436 C420 1.249 . S
O437 Gd409 2.506 . S
O437 C420 1.252 . S
O438 Gd409 2.435 . S
O438 C427 1.256 . S
O439 Gd408 2.327 . S
O439 Gd409 2.717 1_655 S
O439 C427 1.257 1_655 S
H440 C413 0.930 . S
H441 C414 0.931 . S
H442 C416 0.931 . S
H443 C417 0.931 . S
H444 C422 0.930 . S
H445 C423 0.931 . S
H446 C425 0.931 . S
H447 C426 0.931 . S
C448 C449 1.349 . S
C448 C450 1.327 . S
C448 H473 0.950 . S
C449 C448 1.349 . S
C449 C465 1.349 . S
C450 C448 1.327 . S
C450 C469 1.429 . S
C450 H474 0.950 . S
C451 C468 1.574 . S
C451 C470 1.368 . S
C451 H475 0.949 1_545 S
H452 C456 0.949 . S
C453 C454 1.310 1_565 S
C453 C455 1.325 1_565 S
C453 H476 0.993 . S
C454 C453 1.310 1_545 S
C454 C466 1.349 . S
C455 C453 1.325 1_545 S
C455 C471 1.441 . S
C455 H477 0.938 1_545 S
C456 H452 0.949 . S
C456 C464 1.574 . S
C456 C472 1.368 . S
H457 C465 0.950 . S
H458 C463 0.950 1_565 S
H459 C464 0.949 . S
H460 C466 0.950 . S
H461 C467 0.950 . S
H462 C468 0.949 1_565 S
C463 H458 0.950 1_545 S
C463 C465 1.327 . S
C463 C469 1.429 . S
C464 C456 1.574 . S
C464 H459 0.949 . S
C464 C470 1.368 . S
C465 C449 1.349 . S
C465 H457 0.950 . S
C465 C463 1.327 . S
C466 C454 1.349 . S
C466 H460 0.950 . S
C466 C467 1.327 . S
C467 H461 0.950 . S
C467 C466 1.327 . S
C467 C471 1.429 . S
C468 C451 1.574 . S
C468 H462 0.949 1_545 S
C468 C472 1.368 . S
C469 C450 1.429 . S
C469 C463 1.429 . S
C469 C470 1.523 . S
C470 C451 1.368 . S
C470 C464 1.368 . S
C470 C469 1.523 . S
C471 C455 1.441 . S
C471 C467 1.429 . S
C471 C472 1.523 . S
C472 C456 1.368 . S
C472 C468 1.368 . S
C472 C471 1.523 . S
H473 C448 0.950 . S
H474 C450 0.950 . S
H475 C451 0.949 1_565 S
H476 C453 0.993 . S
H477 C455 0.938 1_565 S
C478 C479 1.349 . S
C478 C480 1.327 . S
C478 H503 0.950 . S
C479 C478 1.349 . S
C479 C495 1.349 . S
C480 C478 1.327 . S
C480 C499 1.429 . S
C480 H504 0.950 . S
C481 C498 1.574 . S
C481 C500 1.368 . S
C481 H505 0.949 . S
H482 C486 0.949 . S
C483 C484 1.349 . S
C483 C485 1.327 . S
C483 H506 0.950 . S
C484 C483 1.349 . S
C484 C496 1.349 . S
C485 C483 1.327 . S
C485 C501 1.429 . S
C485 H507 0.950 . S
C486 H482 0.949 . S
C486 C494 1.574 . S
C486 C502 1.368 . S
H487 C495 0.950 . S
H488 C493 0.950 . S
H489 C494 0.949 . S
H490 C496 0.950 . S
H491 C497 0.950 . S
H492 C498 0.949 . S
C493 H488 0.950 . S
C493 C495 1.327 . S
C493 C499 1.429 . S
C494 C486 1.574 . S
C494 H489 0.949 . S
C494 C500 1.368 . S
C495 C479 1.349 . S
C495 H487 0.950 . S
C495 C493 1.327 . S
C496 C484 1.349 . S
C496 H490 0.950 . S
C496 C497 1.327 . S
C497 H491 0.950 . S
C497 C496 1.327 . S
C497 C501 1.429 . S
C498 C481 1.574 . S
C498 H492 0.949 . S
C498 C502 1.368 . S
C499 C480 1.429 . S
C499 C493 1.429 . S
C499 C500 1.523 . S
C500 C481 1.368 . S
C500 C494 1.368 . S
C500 C499 1.523 . S
C501 C485 1.429 . S
C501 C497 1.429 . S
C501 C502 1.523 . S
C502 C486 1.368 . S
C502 C498 1.368 . S
C502 C501 1.523 . S
H503 C478 0.950 . S
H504 C480 0.950 . S
H505 C481 0.949 . S
H506 C483 0.950 . S
H507 C485 0.950 . S
C508 C509 1.349 . S
C508 C510 1.327 . S
C508 H533 0.950 . S
C509 C508 1.349 . S
C509 C525 1.349 . S
C510 C508 1.327 . S
C510 C529 1.429 . S
C510 H534 0.950 . S
C511 C528 1.574 . S
C511 C530 1.368 . S
C511 H535 0.949 . S
H512 C516 0.949 . S
C513 C514 1.349 . S
C513 C515 1.327 . S
C513 H536 0.950 . S
C514 C513 1.349 . S
C514 C526 1.349 . S
C515 C513 1.327 . S
C515 C531 1.429 . S
C515 H537 0.950 . S
C516 H512 0.949 . S
C516 C524 1.574 . S
C516 C532 1.368 . S
H517 C525 0.950 . S
H518 C523 0.950 . S
H519 C524 0.949 . S
H520 C526 0.950 . S
H521 C527 0.950 . S
H522 C528 0.949 . S
C523 H518 0.950 . S
C523 C525 1.327 . S
C523 C529 1.429 . S
C524 C516 1.574 . S
C524 H519 0.949 . S
C524 C530 1.368 . S
C525 C509 1.349 . S
C525 H517 0.950 . S
C525 C523 1.327 . S
C526 C514 1.349 . S
C526 H520 0.950 . S
C526 C527 1.327 . S
C527 H521 0.950 . S
C527 C526 1.327 . S
C527 C531 1.429 . S
C528 C511 1.574 . S
C528 H522 0.949 . S
C528 C532 1.368 . S
C529 C510 1.429 . S
C529 C523 1.429 . S
C529 C530 1.523 . S
C530 C511 1.368 . S
C530 C524 1.368 . S
C530 C529 1.523 . S
C531 C515 1.429 . S
C531 C527 1.429 . S
C531 C532 1.523 . S
C532 C516 1.368 . S
C532 C528 1.368 . S
C532 C531 1.523 . S
H533 C508 0.950 . S
H534 C510 0.950 . S
H535 C511 0.949 . S
H536 C513 0.950 . S
H537 C515 0.950 . S
C538 C539 1.348 1_655 S
C538 C540 1.327 . S
C538 H563 0.950 . S
C539 C538 1.348 1_455 S
C539 C555 1.350 . S
C540 C538 1.327 . S
C540 C559 1.424 1_655 S
C540 H564 0.950 . S
C541 C558 1.574 . S
C541 C560 1.375 . S
C541 H565 0.949 . S
H542 C546 0.949 . S
C543 C544 1.364 . S
C543 C545 1.327 . S
C543 H566 0.950 . S
C544 C543 1.364 . S
C544 C556 1.334 1_455 S
C545 C543 1.327 . S
C545 C561 1.440 . S
C545 H567 0.950 . S
C546 H542 0.949 . S
C546 C554 1.574 . S
C546 C562 1.358 1_655 S
H547 C555 0.950 . S
H548 C553 0.950 . S
H549 C554 0.949 . S
H550 C556 0.950 . S
H551 C557 0.950 . S
H552 C558 0.949 . S
C553 H548 0.950 . S
C553 C555 1.327 . S
C553 C559 1.433 . S
C554 C546 1.574 . S
C554 H549 0.949 . S
C554 C560 1.362 1_655 S
C555 C539 1.350 . S
C555 H547 0.950 . S
C555 C553 1.327 . S
C556 C544 1.334 1_655 S
C556 H550 0.950 . S
C556 C557 1.327 . S
C557 H551 0.950 . S
C557 C556 1.327 . S
C557 C561 1.418 1_655 S
C558 C541 1.574 . S
C558 H552 0.949 . S
C558 C562 1.379 . S
C559 C540 1.424 1_455 S
C559 C553 1.433 . S
C559 C560 1.523 . S
C560 C541 1.375 . S
C560 C554 1.362 1_455 S
C560 C559 1.523 . S
C561 C545 1.440 . S
C561 C557 1.418 1_455 S
C561 C562 1.523 . S
C562 C546 1.358 1_455 S
C562 C558 1.379 . S
C562 C561 1.523 . S
H563 C538 0.950 . S
H564 C540 0.950 . S
H565 C541 0.949 . S
H566 C543 0.950 . S
H567 C545 0.950 . S
C568 C569 1.349 1_545 S
C568 C570 1.327 . S
C568 H593 0.950 . S
C569 C568 1.349 1_565 S
C569 C585 1.349 . S
C570 C568 1.327 . S
C570 C589 1.429 1_545 S
C570 H594 0.950 . S
C571 C588 1.574 . S
C571 C590 1.368 1_556 S
C571 H595 0.949 . S
H572 C576 0.949 . S
C573 C574 1.349 1_565 S
C573 C575 1.327 . S
C573 H596 0.950 . S
C574 C573 1.349 1_545 S
C574 C586 1.349 . S
C575 C573 1.327 . S
C575 C591 1.429 . S
C575 H597 0.950 . S
C576 H572 0.949 . S
C576 C584 1.574 1_556 S
C576 C592 1.368 1_545 S
H577 C585 0.950 . S
H578 C583 0.950 . S
H579 C584 0.949 . S
H580 C586 0.950 . S
H581 C587 0.950 . S
H582 C588 0.949 . S
C583 H578 0.950 . S
C583 C585 1.327 . S
C583 C589 1.429 . S
C584 C576 1.574 1_554 S
C584 H579 0.949 . S
C584 C590 1.368 1_545 S
C585 C569 1.349 . S
C585 H577 0.950 . S
C585 C583 1.327 . S
C586 C574 1.349 . S
C586 H580 0.950 . S
C586 C587 1.327 . S
C587 H581 0.950 . S
C587 C586 1.327 . S
C587 C591 1.429 1_545 S
C588 C571 1.574 . S
C588 H582 0.949 . S
C588 C592 1.368 . S
C589 C570 1.429 1_565 S
C589 C583 1.429 . S
C589 C590 1.523 . S
C590 C571 1.368 1_554 S
C590 C584 1.368 1_565 S
C590 C589 1.523 . S
C591 C575 1.429 . S
C591 C587 1.429 1_565 S
C591 C592 1.523 . S
C592 C576 1.368 1_565 S
C592 C588 1.368 . S
C592 C591 1.523 . S
H593 C568 0.950 . S
H594 C570 0.950 . S
H595 C571 0.949 . S
H596 C573 0.950 . S
H597 C575 0.950 . S
C598 C599 1.349 . S
C598 C600 1.327 . S
C598 H623 0.950 . S
C599 C598 1.349 . S
C599 C615 1.349 . S
C600 C598 1.327 . S
C600 C619 1.429 . S
C600 H624 0.950 . S
C601 C618 1.574 . S
C601 C620 1.368 1_556 S
C601 H625 0.949 . S
H602 C606 0.949 . S
C603 C604 1.349 . S
C603 C605 1.327 . S
C603 H626 0.950 . S
C604 C603 1.349 . S
C604 C616 1.349 . S
C605 C603 1.327 . S
C605 C621 1.429 . S
C605 H627 0.950 . S
C606 H602 0.949 . S
C606 C614 1.574 1_556 S
C606 C622 1.368 . S
H607 C615 0.950 . S
H608 C613 0.950 . S
H609 C614 0.949 . S
H610 C616 0.950 . S
H611 C617 0.950 . S
H612 C618 0.949 . S
C613 H608 0.950 . S
C613 C615 1.327 . S
C613 C619 1.429 . S
C614 C606 1.574 1_554 S
C614 H609 0.949 . S
C614 C620 1.368 . S
C615 C599 1.349 . S
C615 H607 0.950 . S
C615 C613 1.327 . S
C616 C604 1.349 . S
C616 H610 0.950 . S
C616 C617 1.327 . S
C617 H611 0.950 . S
C617 C616 1.327 . S
C617 C621 1.429 . S
C618 C601 1.574 . S
C618 H612 0.949 . S
C618 C622 1.368 . S
C619 C600 1.429 . S
C619 C613 1.429 . S
C619 C620 1.523 . S
C620 C601 1.368 1_554 S
C620 C614 1.368 . S
C620 C619 1.523 . S
C621 C605 1.429 . S
C621 C617 1.429 . S
C621 C622 1.523 . S
C622 C606 1.368 . S
C622 C618 1.368 . S
C622 C621 1.523 . S
H623 C598 0.950 . S
H624 C600 0.950 . S
H625 C601 0.949 . S
H626 C603 0.950 . S
H627 C605 0.950 . S
C628 C629 1.349 . S
C628 C630 1.327 . S
C628 H653 0.950 . S
C629 C628 1.349 . S
C629 C645 1.349 . S
C630 C628 1.327 . S
C630 C649 1.429 . S
C630 H654 0.950 . S
C631 C648 1.574 1_554 S
C631 C650 1.368 . S
C631 H655 0.949 . S
H632 C636 0.949 . S
C633 C634 1.349 . S
C633 C635 1.327 . S
C633 H656 0.950 . S
C634 C633 1.349 . S
C634 C646 1.349 . S
C635 C633 1.327 . S
C635 C651 1.429 . S
C635 H657 0.950 . S
C636 H632 0.949 . S
C636 C644 1.574 . S
C636 C652 1.368 . S
H637 C645 0.950 . S
H638 C643 0.950 . S
H639 C644 0.949 . S
H640 C646 0.950 . S
H641 C647 0.950 . S
H642 C648 0.949 . S
C643 H638 0.950 . S
C643 C645 1.327 . S
C643 C649 1.429 . S
C644 C636 1.574 . S
C644 H639 0.949 . S
C644 C650 1.368 1_556 S
C645 C629 1.349 . S
C645 H637 0.950 . S
C645 C643 1.327 . S
C646 C634 1.349 . S
C646 H640 0.950 . S
C646 C647 1.327 . S
C647 H641 0.950 . S
C647 C646 1.327 . S
C647 C651 1.429 . S
C648 C631 1.574 1_556 S
C648 H642 0.949 . S
C648 C652 1.368 . S
C649 C630 1.429 . S
C649 C643 1.429 . S
C649 C650 1.523 . S
C650 C631 1.368 . S
C650 C644 1.368 1_554 S
C650 C649 1.523 . S
C651 C635 1.429 . S
C651 C647 1.429 . S
C651 C652 1.523 . S
C652 C636 1.368 . S
C652 C648 1.368 . S
C652 C651 1.523 . S
H653 C628 0.950 . S
H654 C630 0.950 . S
H655 C631 0.949 . S
H656 C633 0.950 . S
H657 C635 0.950 . S
C658 C659 1.350 . S
C658 C660 1.327 . S
C658 H683 0.950 . S
C659 C658 1.350 . S
C659 C675 1.348 1_655 S
C660 C658 1.327 . S
C660 C679 1.431 . S
C660 H684 0.950 . S
C661 C678 1.574 . S
C661 C680 1.365 1_456 S
C661 H685 0.949 . S
H662 C666 0.949 . S
C663 C664 1.341 1_455 S
C663 C665 1.327 . S
C663 H686 0.950 . S
C664 C663 1.341 1_655 S
C664 C676 1.357 . S
C665 C663 1.327 . S
C665 C681 1.423 1_455 S
C665 H687 0.950 . S
C666 H662 0.949 . S
C666 C674 1.574 1_556 S
C666 C682 1.374 . S
H667 C675 0.950 . S
H668 C673 0.950 . S
H669 C674 0.949 . S
H670 C676 0.950 . S
H671 C677 0.950 . S
H672 C678 0.949 . S
C673 H668 0.950 . S
C673 C675 1.327 . S
C673 C679 1.426 1_455 S
C674 C666 1.574 1_554 S
C674 H669 0.949 . S
C674 C680 1.372 . S
C675 C659 1.348 1_455 S
C675 H667 0.950 . S
C675 C673 1.327 . S
C676 C664 1.357 . S
C676 H670 0.950 . S
C676 C677 1.327 . S
C677 H671 0.950 . S
C677 C676 1.327 . S
C677 C681 1.434 . S
C678 C661 1.574 . S
C678 H672 0.949 . S
C678 C682 1.363 1_455 S
C679 C660 1.431 . S
C679 C673 1.426 1_655 S
C679 C680 1.523 . S
C680 C661 1.365 1_654 S
C680 C674 1.372 . S
C680 C679 1.523 . S
C681 C665 1.423 1_655 S
C681 C677 1.434 . S
C681 C682 1.523 . S
C682 C666 1.374 . S
C682 C678 1.363 1_655 S
C682 C681 1.523 . S
H683 C658 0.950 . S
H684 C660 0.950 . S
H685 C661 0.949 . S
H686 C663 0.950 . S
H687 C665 0.950 . S
C688 C689 1.349 . S
C688 C690 1.327 . S
C688 H713 0.950 . S
C689 C688 1.349 . S
C689 C705 1.349 1_455 S
C690 C688 1.327 . S
C690 C709 1.429 1_455 S
C690 H714 0.950 . S
C691 C708 1.574 . S
C691 C710 1.368 . S
C691 H715 0.949 . S
H692 C696 0.937 1_455 S
C693 C694 1.349 . S
C693 C695 1.327 . S
C693 H716 0.950 . S
C694 C693 1.349 . S
C694 C706 1.349 . S
C695 C693 1.327 . S
C695 C711 1.429 . S
C695 H717 0.950 . S
C696 H692 0.937 1_655 S
C696 C704 1.579 . S
C696 C712 1.368 . S
H697 C705 0.950 . S
H698 C703 0.950 . S
H699 C704 0.932 1_455 S
H700 C706 0.950 . S
H701 C707 0.950 . S
H702 C708 0.949 . S
C703 H698 0.950 . S
C703 C705 1.327 . S
C703 C709 1.429 . S
C704 C696 1.579 . S
C704 H699 0.932 1_655 S
C704 C710 1.382 . S
C705 C689 1.349 1_655 S
C705 H697 0.950 . S
C705 C703 1.327 . S
C706 C694 1.349 . S
C706 H700 0.950 . S
C706 C707 1.327 . S
C707 H701 0.950 . S
C707 C706 1.327 . S
C707 C711 1.429 . S
C708 C691 1.574 . S
C708 H702 0.949 . S
C708 C712 1.368 . S
C709 C690 1.429 1_655 S
C709 C703 1.429 . S
C709 C710 1.523 . S
C710 C691 1.368 . S
C710 C704 1.382 . S
C710 C709 1.523 . S
C711 C695 1.429 . S
C711 C707 1.429 . S
C711 C712 1.523 . S
C712 C696 1.368 . S
C712 C708 1.368 . S
C712 C711 1.523 . S
H713 C688 0.950 . S
H714 C690 0.950 . S
H715 C691 0.949 . S
H716 C693 0.950 . S
H717 C695 0.950 . S
C718 C719 1.349 . S
C718 C720 1.327 . S
C718 H743 0.950 . S
C719 C718 1.349 . S
C719 C735 1.349 . S
C720 C718 1.327 . S
C720 C739 1.429 . S
C720 H744 0.950 1_545 S
C721 C738 1.574 . S
C721 C740 1.368 . S
C721 H745 0.949 . S
H722 C726 0.949 . S
C723 C724 1.349 1_545 S
C723 C725 1.327 . S
C723 H746 0.950 . S
C724 C723 1.349 1_565 S
C724 C736 1.349 . S
C725 C723 1.327 . S
C725 C741 1.429 1_545 S
C725 H747 0.950 . S
C726 H722 0.949 . S
C726 C734 1.574 . S
C726 C742 1.368 1_565 S
H727 C735 0.950 . S
H728 C733 0.950 . S
H729 C734 0.949 . S
H730 C736 0.950 . S
H731 C737 0.950 . S
H732 C738 0.949 . S
C733 H728 0.950 . S
C733 C735 1.327 . S
C733 C739 1.429 . S
C734 C726 1.574 . S
C734 H729 0.949 . S
C734 C740 1.368 1_565 S
C735 C719 1.349 . S
C735 H727 0.950 . S
C735 C733 1.327 . S
C736 C724 1.349 . S
C736 H730 0.950 . S
C736 C737 1.327 . S
C737 H731 0.950 . S
C737 C736 1.327 . S
C737 C741 1.429 . S
C738 C721 1.574 . S
C738 H732 0.949 . S
C738 C742 1.368 . S
C739 C720 1.429 . S
C739 C733 1.429 . S
C739 C740 1.523 . S
C740 C721 1.368 . S
C740 C734 1.368 1_545 S
C740 C739 1.523 . S
C741 C725 1.429 1_565 S
C741 C737 1.429 . S
C741 C742 1.523 1_565 S
C742 C726 1.368 1_545 S
C742 C738 1.368 . S
C742 C741 1.523 1_545 S
H743 C718 0.950 . S
H744 C720 0.950 1_565 S
H745 C721 0.949 . S
H746 C723 0.950 . S
H747 C725 0.950 . S
C748 C749 1.349 . S
C748 C750 1.327 . S
C748 H773 0.950 . S
C749 C748 1.349 . S
C749 C765 1.349 . S
C750 C748 1.327 . S
C750 C769 1.429 . S
C750 H774 0.950 . S
C751 C768 1.574 . S
C751 C770 1.368 . S
C751 H775 0.949 . S
H752 C756 0.949 . S
C753 C754 1.349 . S
C753 C755 1.327 . S
C753 H776 0.950 . S
C754 C753 1.349 . S
C754 C766 1.349 . S
C755 C753 1.327 . S
C755 C771 1.429 . S
C755 H777 0.950 . S
C756 H752 0.949 . S
C756 C764 1.574 . S
C756 C772 1.368 . S
H757 C765 0.950 . S
H758 C763 0.950 . S
H759 C764 0.949 . S
H760 C766 0.950 . S
H761 C767 0.950 . S
H762 C768 0.949 . S
C763 H758 0.950 . S
C763 C765 1.327 . S
C763 C769 1.429 . S
C764 C756 1.574 . S
C764 H759 0.949 . S
C764 C770 1.368 . S
C765 C749 1.349 . S
C765 H757 0.950 . S
C765 C763 1.327 . S
C766 C754 1.349 . S
C766 H760 0.950 . S
C766 C767 1.327 . S
C767 H761 0.950 . S
C767 C766 1.327 . S
C767 C771 1.429 . S
C768 C751 1.574 . S
C768 H762 0.949 . S
C768 C772 1.368 . S
C769 C750 1.429 . S
C769 C763 1.429 . S
C769 C770 1.523 . S
C770 C751 1.368 . S
C770 C764 1.368 . S
C770 C769 1.523 . S
C771 C755 1.429 . S
C771 C767 1.429 . S
C771 C772 1.523 . S
C772 C756 1.368 . S
C772 C768 1.368 . S
C772 C771 1.523 . S
H773 C748 0.950 . S
H774 C750 0.950 . S
H775 C751 0.949 . S
H776 C753 0.950 . S
H777 C755 0.950 . S
C778 C779 1.349 . S
C778 C780 1.327 . S
C778 H803 0.950 . S
C779 C778 1.349 . S
C779 C795 1.349 . S
C780 C778 1.327 . S
C780 C799 1.429 . S
C780 H804 0.950 . S
C781 C798 1.574 . S
C781 C800 1.368 . S
C781 H805 0.949 . S
H782 C786 0.949 . S
C783 C784 1.349 . S
C783 C785 1.327 . S
C783 H806 0.950 . S
C784 C783 1.349 . S
C784 C796 1.349 . S
C785 C783 1.327 . S
C785 C801 1.429 . S
C785 H807 0.950 . S
C786 H782 0.949 . S
C786 C794 1.574 . S
C786 C802 1.368 . S
H787 C795 0.950 . S
H788 C793 0.950 . S
H789 C794 0.949 . S
H790 C796 0.950 . S
H791 C797 0.950 . S
H792 C798 0.949 . S
C793 H788 0.950 . S
C793 C795 1.327 . S
C793 C799 1.429 . S
C794 C786 1.574 . S
C794 H789 0.949 . S
C794 C800 1.368 . S
C795 C779 1.349 . S
C795 H787 0.950 . S
C795 C793 1.327 . S
C796 C784 1.349 . S
C796 H790 0.950 . S
C796 C797 1.327 . S
C797 H791 0.950 . S
C797 C796 1.327 . S
C797 C801 1.429 . S
C798 C781 1.574 . S
C798 H792 0.949 . S
C798 C802 1.368 . S
C799 C780 1.429 . S
C799 C793 1.429 . S
C799 C800 1.523 . S
C800 C781 1.368 . S
C800 C794 1.368 . S
C800 C799 1.523 . S
C801 C785 1.429 . S
C801 C797 1.429 . S
C801 C802 1.523 . S
C802 C786 1.368 . S
C802 C798 1.368 . S
C802 C801 1.523 . S
H803 C778 0.950 . S
H804 C780 0.950 . S
H805 C781 0.949 . S
H806 C783 0.950 . S
H807 C785 0.950 . S
C808 C809 1.349 1_455 S
C808 C810 1.327 . S
C808 H833 0.950 . S
C809 C808 1.349 1_655 S
C809 C825 1.349 . S
C810 C808 1.327 . S
C810 C829 1.429 . S
C810 H834 0.950 . S
C811 C828 1.574 1_655 S
C811 C830 1.368 1_656 S
C811 H835 0.949 . S
H812 C816 0.949 . S
C813 C814 1.349 . S
C813 C815 1.327 . S
C813 H836 0.950 . S
C814 C813 1.349 . S
C814 C826 1.349 . S
C815 C813 1.327 . S
C815 C831 1.429 . S
C815 H837 0.899 1_455 S
C816 H812 0.949 . S
C816 C824 1.574 1_556 S
C816 C832 1.368 . S
H817 C825 0.950 . S
H818 C823 0.950 1_556 S
H819 C824 0.949 . S
H820 C826 0.950 . S
H821 C827 0.950 . S
H822 C828 0.949 1_655 S
C823 H818 0.950 1_554 S
C823 C825 1.327 . S
C823 C829 1.429 1_655 S
C824 C816 1.574 1_554 S
C824 H819 0.949 . S
C824 C830 1.368 . S
C825 C809 1.349 . S
C825 H817 0.950 . S
C825 C823 1.327 . S
C826 C814 1.349 . S
C826 H820 0.950 . S
C826 C827 1.327 . S
C827 H821 0.950 . S
C827 C826 1.327 . S
C827 C831 1.429 . S
C828 C811 1.574 1_455 S
C828 H822 0.949 1_455 S
C828 C832 1.368 . S
C829 C810 1.429 . S
C829 C823 1.429 1_455 S
C829 C830 1.523 . S
C830 C811 1.368 1_454 S
C830 C824 1.368 . S
C830 C829 1.523 . S
C831 C815 1.429 . S
C831 C827 1.429 . S
C831 C832 1.523 . S
C832 C816 1.368 . S
C832 C828 1.368 . S
C832 C831 1.523 . S
H833 C808 0.950 . S
H834 C810 0.950 . S
H835 C811 0.949 . S
H836 C813 0.950 . S
H837 C815 0.899 1_655 S
C838 C839 1.349 1_545 S
C838 C840 1.327 . S
C838 H863 0.950 . S
C839 C838 1.349 1_565 S
C839 C855 1.349 . S
C840 C838 1.327 . S
C840 C859 1.429 1_545 S
C840 H864 0.950 . S
C841 C858 1.574 . S
C841 C860 1.368 1_566 S
C841 H865 0.949 . S
H842 C846 0.949 . S
C843 C844 1.349 . S
C843 C845 1.327 . S
C843 H866 0.950 . S
C844 C843 1.349 . S
C844 C856 1.349 . S
C845 C843 1.327 . S
C845 C861 1.429 . S
C845 H867 0.950 1_545 S
C846 H842 0.949 . S
C846 C854 1.574 . S
C846 C862 1.368 . S
H847 C855 0.950 . S
H848 C853 0.950 . S
H849 C854 0.949 1_554 S
H850 C856 0.950 . S
H851 C857 0.950 . S
H852 C858 0.949 . S
C853 H848 0.950 . S
C853 C855 1.327 . S
C853 C859 1.429 . S
C854 C846 1.574 . S
C854 H849 0.949 1_556 S
C854 C860 1.368 1_556 S
C855 C839 1.349 . S
C855 H847 0.950 . S
C855 C853 1.327 . S
C856 C844 1.349 . S
C856 H850 0.950 . S
C856 C857 1.327 . S
C857 H851 0.950 . S
C857 C856 1.327 . S
C857 C861 1.429 . S
C858 C841 1.574 . S
C858 H852 0.949 . S
C858 C862 1.368 1_565 S
C859 C840 1.429 1_565 S
C859 C853 1.429 . S
C859 C860 1.523 1_565 S
C860 C841 1.368 1_544 S
C860 C854 1.368 1_554 S
C860 C859 1.523 1_545 S
C861 C845 1.429 . S
C861 C857 1.429 . S
C861 C862 1.523 . S
C862 C846 1.368 . S
C862 C858 1.368 1_545 S
C862 C861 1.523 . S
H863 C838 0.950 . S
H864 C840 0.950 . S
H865 C841 0.949 . S
H866 C843 0.950 . S
H867 C845 0.950 1_565 S
C868 C869 1.349 . S
C868 C870 1.327 . S
C868 H893 0.950 . S
C869 C868 1.349 . S
C869 C885 1.349 . S
C870 C868 1.327 . S
C870 C889 1.429 . S
C870 H894 0.950 . S
C871 C888 1.574 . S
C871 C890 1.368 1_556 S
C871 H895 0.949 . S
H872 C876 0.949 . S
C873 C874 1.349 . S
C873 C875 1.327 . S
C873 H896 0.950 . S
C874 C873 1.349 . S
C874 C886 1.349 . S
C875 C873 1.327 . S
C875 C891 1.429 . S
C875 H897 0.950 . S
C876 H872 0.949 . S
C876 C884 1.574 . S
C876 C892 1.368 1_554 S
H877 C885 0.950 . S
H878 C883 0.950 1_556 S
H879 C884 0.949 . S
H880 C886 0.950 . S
H881 C887 0.950 . S
H882 C888 0.949 . S
C883 H878 0.950 1_554 S
C883 C885 1.327 . S
C883 C889 1.429 . S
C884 C876 1.574 . S
C884 H879 0.949 . S
C884 C890 1.368 . S
C885 C869 1.349 . S
C885 H877 0.950 . S
C885 C883 1.327 . S
C886 C874 1.349 . S
C886 H880 0.950 . S
C886 C887 1.327 . S
C887 H881 0.950 . S
C887 C886 1.327 . S
C887 C891 1.429 . S
C888 C871 1.574 . S
C888 H882 0.949 . S
C888 C892 1.368 . S
C889 C870 1.429 . S
C889 C883 1.429 . S
C889 C890 1.523 . S
C890 C871 1.368 1_554 S
C890 C884 1.368 . S
C890 C889 1.523 . S
C891 C875 1.429 . S
C891 C887 1.429 . S
C891 C892 1.523 . S
C892 C876 1.368 1_556 S
C892 C888 1.368 . S
C892 C891 1.523 . S
H893 C868 0.950 . S
H894 C870 0.950 . S
H895 C871 0.949 . S
H896 C873 0.950 . S
H897 C875 0.950 . S
C898 C899 1.349 . S
C898 C900 1.327 . S
C898 H923 0.950 . S
C899 C898 1.349 . S
C899 C915 1.349 . S
C900 C898 1.327 . S
C900 C919 1.429 . S
C900 H924 0.950 1_554 S
C901 C918 1.574 1_554 S
C901 C920 1.376 . S
C901 H925 0.949 . S
H902 C906 0.949 . S
C903 C904 1.349 . S
C903 C905 1.327 . S
C903 H926 0.950 . S
C904 C903 1.349 . S
C904 C916 1.349 . S
C905 C903 1.327 . S
C905 C921 1.429 . S
C905 H927 0.950 . S
C906 H902 0.949 . S
C906 C914 1.574 . S
C906 C922 1.368 . S
H907 C915 0.950 . S
H908 C913 0.950 . S
H909 C914 0.949 . S
H910 C916 0.950 . S
H911 C917 0.950 . S
H912 C918 0.949 1_554 S
C913 H908 0.950 . S
C913 C915 1.327 . S
C913 C919 1.429 . S
C914 C906 1.574 . S
C914 H909 0.949 . S
C914 C920 1.354 1_556 S
C915 C899 1.349 . S
C915 H907 0.950 . S
C915 C913 1.327 . S
C916 C904 1.349 . S
C916 H910 0.950 . S
C916 C917 1.327 . S
C917 H911 0.950 . S
C917 C916 1.327 . S
C917 C921 1.429 . S
C918 C901 1.574 1_556 S
C918 H912 0.949 1_556 S
C918 C922 1.368 . S
C919 C900 1.429 . S
C919 C913 1.429 . S
C919 C920 1.532 . S
C920 C901 1.376 . S
C920 C914 1.354 1_554 S
C920 C919 1.532 . S
C921 C905 1.429 . S
C921 C917 1.429 . S
C921 C922 1.523 . S
C922 C906 1.368 . S
C922 C918 1.368 . S
C922 C921 1.523 . S
H923 C898 0.950 . S
H924 C900 0.950 1_556 S
H925 C901 0.949 . S
H926 C903 0.950 . S
H927 C905 0.950 . S
C928 C929 1.349 . S
C928 C930 1.327 . S
C928 H953 0.950 . S
C929 C928 1.349 . S
C929 C945 1.349 1_455 S
C930 C928 1.327 . S
C930 C949 1.429 . S
C930 H954 0.950 . S
C931 C948 1.574 . S
C931 C950 1.368 1_655 S
C931 H955 0.949 . S
H932 C936 0.949 . S
C933 C934 1.349 1_655 S
C933 C935 1.327 . S
C933 H956 0.950 . S
C934 C933 1.349 1_455 S
C934 C946 1.349 . S
C935 C933 1.327 . S
C935 C951 1.429 1_655 S
C935 H957 0.950 . S
C936 H932 0.949 . S
C936 C944 1.574 . S
C936 C952 1.368 . S
H937 C945 0.950 . S
H938 C943 0.950 . S
H939 C944 0.949 . S
H940 C946 0.950 . S
H941 C947 0.950 . S
H942 C948 0.949 . S
C943 H938 0.950 . S
C943 C945 1.327 . S
C943 C949 1.429 1_655 S
C944 C936 1.574 . S
C944 H939 0.949 . S
C944 C950 1.368 . S
C945 C929 1.349 1_655 S
C945 H937 0.950 . S
C945 C943 1.327 . S
C946 C934 1.349 . S
C946 H940 0.950 . S
C946 C947 1.327 . S
C947 H941 0.950 . S
C947 C946 1.327 . S
C947 C951 1.429 . S
C948 C931 1.574 . S
C948 H942 0.949 . S
C948 C952 1.368 1_655 S
C949 C930 1.429 . S
C949 C943 1.429 1_455 S
C949 C950 1.523 . S
C950 C931 1.368 1_455 S
C950 C944 1.368 . S
C950 C949 1.523 . S
C951 C935 1.429 1_455 S
C951 C947 1.429 . S
C951 C952 1.523 . S
C952 C936 1.368 . S
C952 C948 1.368 1_455 S
C952 C951 1.523 . S
H953 C928 0.950 . S
H954 C930 0.950 . S
H955 C931 0.949 . S
H956 C933 0.950 . S
H957 C935 0.950 . S
C958 C959 1.349 . S
C958 C960 1.327 . S
C958 H983 0.950 . S
C959 C958 1.349 . S
C959 C975 1.349 . S
C960 C958 1.327 . S
C960 C979 1.429 . S
C960 H984 0.950 . S
C961 C978 1.574 . S
C961 C980 1.368 . S
C961 H985 0.949 . S
H962 C966 0.949 . S
C963 C964 1.349 . S
C963 C965 1.327 . S
C963 H986 0.950 . S
C964 C963 1.349 . S
C964 C976 1.349 . S
C965 C963 1.327 . S
C965 C981 1.429 . S
C965 H987 0.950 . S
C966 H962 0.949 . S
C966 C974 1.574 . S
C966 C982 1.368 . S
H967 C975 0.950 . S
H968 C973 0.950 . S
H969 C974 0.949 . S
H970 C976 0.987 . S
H971 C977 0.950 . S
H972 C978 0.949 . S
C973 H968 0.950 . S
C973 C975 1.327 . S
C973 C979 1.429 . S
C974 C966 1.574 . S
C974 H969 0.949 . S
C974 C980 1.368 . S
C975 C959 1.349 . S
C975 H967 0.950 . S
C975 C973 1.327 . S
C976 C964 1.349 . S
C976 H970 0.987 . S
C976 C977 1.327 . S
C977 H971 0.950 . S
C977 C976 1.327 . S
C977 C981 1.429 . S
C978 C961 1.574 . S
C978 H972 0.949 . S
C978 C982 1.368 . S
C979 C960 1.429 . S
C979 C973 1.429 . S
C979 C980 1.523 . S
C980 C961 1.368 . S
C980 C974 1.368 . S
C980 C979 1.523 . S
C981 C965 1.429 . S
C981 C977 1.429 . S
C981 C982 1.523 . S
C982 C966 1.368 . S
C982 C978 1.368 . S
C982 C981 1.523 . S
H983 C958 0.950 . S
H984 C960 0.950 . S
H985 C961 0.949 . S
H986 C963 0.950 . S
H987 C965 0.950 . S
C988 C989 1.349 . S
C988 C990 1.327 . S
C988 H1013 0.950 . S
C989 C988 1.349 . S
C989 C1005 1.349 . S
C990 C988 1.327 . S
C990 C1009 1.429 . S
C990 H1014 0.950 . S
C991 C1008 1.574 . S
C991 C1010 1.368 . S
C991 H1015 0.949 . S
H992 C996 0.949 . S
C993 C994 1.349 . S
C993 C995 1.327 . S
C993 H1016 0.950 . S
C994 C993 1.349 . S
C994 C1006 1.349 . S
C995 C993 1.327 . S
C995 C1011 1.429 . S
C995 H1017 0.950 . S
C996 H992 0.949 . S
C996 C1004 1.574 . S
C996 C1012 1.368 . S
H997 C1005 0.950 . S
H998 C1003 0.950 . S
H999 C1004 0.949 . S
H1000 C1006 0.950 . S
H1001 C1007 0.950 . S
H1002 C1008 0.949 . S
C1003 H998 0.950 . S
C1003 C1005 1.327 . S
C1003 C1009 1.429 . S
C1004 C996 1.574 . S
C1004 H999 0.949 . S
C1004 C1010 1.368 . S
C1005 C989 1.349 . S
C1005 H997 0.950 . S
C1005 C1003 1.327 . S
C1006 C994 1.349 . S
C1006 H1000 0.950 . S
C1006 C1007 1.327 . S
C1007 H1001 0.950 . S
C1007 C1006 1.327 . S
C1007 C1011 1.429 . S
C1008 C991 1.574 . S
C1008 H1002 0.949 . S
C1008 C1012 1.368 . S
C1009 C990 1.429 . S
C1009 C1003 1.429 . S
C1009 C1010 1.523 . S
C1010 C991 1.368 . S
C1010 C1004 1.368 . S
C1010 C1009 1.523 . S
C1011 C995 1.429 . S
C1011 C1007 1.429 . S
C1011 C1012 1.523 . S
C1012 C996 1.368 . S
C1012 C1008 1.368 . S
C1012 C1011 1.523 . S
H1013 C988 0.950 . S
H1014 C990 0.950 . S
H1015 C991 0.949 . S
H1016 C993 0.950 . S
H1017 C995 0.950 . S
C1018 C1019 1.349 . S
C1018 C1020 1.327 . S
C1018 H1043 0.950 . S
C1019 C1018 1.349 . S
C1019 C1035 1.349 . S
C1020 C1018 1.327 . S
C1020 C1039 1.429 . S
C1020 H1044 0.950 . S
C1021 C1038 1.574 . S
C1021 C1040 1.368 . S
C1021 H1045 0.949 . S
H1022 C1026 0.949 . S
C1023 C1024 1.349 . S
C1023 C1025 1.327 . S
C1023 H1046 0.950 . S
C1024 C1023 1.349 . S
C1024 C1036 1.349 . S
C1025 C1023 1.327 . S
C1025 C1041 1.429 . S
C1025 H1047 0.950 . S
C1026 H1022 0.949 . S
C1026 C1034 1.574 . S
C1026 C1042 1.368 . S
H1027 C1035 0.950 . S
H1028 C1033 0.950 . S
H1029 C1034 0.949 . S
H1030 C1036 0.950 . S
H1031 C1037 0.950 . S
H1032 C1038 0.949 . S
C1033 H1028 0.950 . S
C1033 C1035 1.327 . S
C1033 C1039 1.429 . S
C1034 C1026 1.574 . S
C1034 H1029 0.949 . S
C1034 C1040 1.368 . S
C1035 C1019 1.349 . S
C1035 H1027 0.950 . S
C1035 C1033 1.327 . S
C1036 C1024 1.349 . S
C1036 H1030 0.950 . S
C1036 C1037 1.327 . S
C1037 H1031 0.950 . S
C1037 C1036 1.327 . S
C1037 C1041 1.429 . S
C1038 C1021 1.574 . S
C1038 H1032 0.949 . S
C1038 C1042 1.368 . S
C1039 C1020 1.429 . S
C1039 C1033 1.429 . S
C1039 C1040 1.523 . S
C1040 C1021 1.368 . S
C1040 C1034 1.368 . S
C1040 C1039 1.523 . S
C1041 C1025 1.429 . S
C1041 C1037 1.429 . S
C1041 C1042 1.523 . S
C1042 C1026 1.368 . S
C1042 C1038 1.368 . S
C1042 C1041 1.523 . S
H1043 C1018 0.950 . S
H1044 C1020 0.950 . S
H1045 C1021 0.949 . S
H1046 C1023 0.950 . S
H1047 C1025 0.950 . S
C1048 C1049 1.349 . S
C1048 C1050 1.327 . S
C1048 H1073 0.950 . S
C1049 C1048 1.349 . S
C1049 C1065 1.349 1_655 S
C1050 C1048 1.327 . S
C1050 C1069 1.429 . S
C1050 H1074 0.950 . S
C1051 C1068 1.574 . S
C1051 C1070 1.368 1_455 S
C1051 H1075 0.949 . S
H1052 C1056 0.949 . S
C1053 C1054 1.349 1_455 S
C1053 C1055 1.327 . S
C1053 H1076 0.950 . S
C1054 C1053 1.349 1_655 S
C1054 C1066 1.349 . S
C1055 C1053 1.327 . S
C1055 C1071 1.429 1_455 S
C1055 H1077 0.950 . S
C1056 H1052 0.949 . S
C1056 C1064 1.574 . S
C1056 C1072 1.368 . S
H1057 C1065 0.950 . S
H1058 C1063 0.950 . S
H1059 C1064 0.949 . S
H1060 C1066 0.950 . S
H1061 C1067 0.950 . S
H1062 C1068 0.949 . S
C1063 H1058 0.950 . S
C1063 C1065 1.327 . S
C1063 C1069 1.429 1_455 S
C1064 C1056 1.574 . S
C1064 H1059 0.949 . S
C1064 C1070 1.368 . S
C1065 C1049 1.349 1_455 S
C1065 H1057 0.950 . S
C1065 C1063 1.327 . S
C1066 C1054 1.349 . S
C1066 H1060 0.950 . S
C1066 C1067 1.327 . S
C1067 H1061 0.950 . S
C1067 C1066 1.327 . S
C1067 C1071 1.429 . S
C1068 C1051 1.574 . S
C1068 H1062 0.949 . S
C1068 C1072 1.368 1_455 S
C1069 C1050 1.429 . S
C1069 C1063 1.429 1_655 S
C1069 C1070 1.523 . S
C1070 C1051 1.368 1_655 S
C1070 C1064 1.368 . S
C1070 C1069 1.523 . S
C1071 C1055 1.429 1_655 S
C1071 C1067 1.429 . S
C1071 C1072 1.523 . S
C1072 C1056 1.368 . S
C1072 C1068 1.368 1_655 S
C1072 C1071 1.523 . S
H1073 C1048 0.950 . S
H1074 C1050 0.950 . S
H1075 C1051 0.949 . S
H1076 C1053 0.950 . S
H1077 C1055 0.950 . S
C1078 C1079 1.349 . S
C1078 C1080 1.330 . S
C1078 H1103 0.950 1_565 S
C1079 C1078 1.349 . S
C1079 C1095 1.349 . S
C1080 C1078 1.330 . S
C1080 C1099 1.449 . S
C1080 H1104 0.927 1_565 S
C1081 C1098 1.574 . S
C1081 C1100 1.368 . S
C1081 H1105 0.949 . S
H1082 C1086 0.949 . S
C1083 C1084 1.349 . S
C1083 C1085 1.327 . S
C1083 H1106 0.950 . S
C1084 C1083 1.349 . S
C1084 C1096 1.349 1_565 S
C1085 C1083 1.327 . S
C1085 C1101 1.429 . S
C1085 H1107 0.950 . S
C1086 H1082 0.949 . S
C1086 C1094 1.574 . S
C1086 C1102 1.368 1_545 S
H1087 C1095 0.950 . S
H1088 C1093 0.950 . S
H1089 C1094 0.949 . S
H1090 C1096 0.950 . S
H1091 C1097 0.950 . S
H1092 C1098 0.949 . S
C1093 H1088 0.950 . S
C1093 C1095 1.327 . S
C1093 C1099 1.429 . S
C1094 C1086 1.574 . S
C1094 H1089 0.949 . S
C1094 C1100 1.368 1_545 S
C1095 C1079 1.349 . S
C1095 H1087 0.950 . S
C1095 C1093 1.327 . S
C1096 C1084 1.349 1_545 S
C1096 H1090 0.950 . S
C1096 C1097 1.327 . S
C1097 H1091 0.950 . S
C1097 C1096 1.327 . S
C1097 C1101 1.429 1_545 S
C1098 C1081 1.574 . S
C1098 H1092 0.949 . S
C1098 C1102 1.368 . S
C1099 C1080 1.449 . S
C1099 C1093 1.429 . S
C1099 C1100 1.523 . S
C1100 C1081 1.368 . S
C1100 C1094 1.368 1_565 S
C1100 C1099 1.523 . S
C1101 C1085 1.429 . S
C1101 C1097 1.429 1_565 S
C1101 C1102 1.523 . S
C1102 C1086 1.368 1_565 S
C1102 C1098 1.368 . S
C1102 C1101 1.523 . S
H1103 C1078 0.950 1_545 S
H1104 C1080 0.927 1_545 S
H1105 C1081 0.949 . S
H1106 C1083 0.950 . S
H1107 C1085 0.950 . S
C1108 C1109 1.349 . S
C1108 C1110 1.327 . S
C1108 H1133 0.950 . S
C1109 C1108 1.349 . S
C1109 C1125 1.349 . S
C1110 C1108 1.327 . S
C1110 C1129 1.429 . S
C1110 H1134 0.950 . S
C1111 C1128 1.574 . S
C1111 C1130 1.368 . S
C1111 H1135 0.949 . S
H1112 C1116 0.949 . S
C1113 C1114 1.349 . S
C1113 C1115 1.327 . S
C1113 H1136 0.950 . S
C1114 C1113 1.349 . S
C1114 C1126 1.349 . S
C1115 C1113 1.327 . S
C1115 C1131 1.429 . S
C1115 H1137 0.950 . S
C1116 H1112 0.949 . S
C1116 C1124 1.574 . S
C1116 C1132 1.368 . S
H1117 C1125 0.950 . S
H1118 C1123 0.950 . S
H1119 C1124 0.949 . S
H1120 C1126 0.950 . S
H1121 C1127 0.950 . S
H1122 C1128 0.949 . S
C1123 H1118 0.950 . S
C1123 C1125 1.327 . S
C1123 C1129 1.429 . S
C1124 C1116 1.574 . S
C1124 H1119 0.949 . S
C1124 C1130 1.368 . S
C1125 C1109 1.349 . S
C1125 H1117 0.950 . S
C1125 C1123 1.327 . S
C1126 C1114 1.349 . S
C1126 H1120 0.950 . S
C1126 C1127 1.327 . S
C1127 H1121 0.950 . S
C1127 C1126 1.327 . S
C1127 C1131 1.429 . S
C1128 C1111 1.574 . S
C1128 H1122 0.949 . S
C1128 C1132 1.368 . S
C1129 C1110 1.429 . S
C1129 C1123 1.429 . S
C1129 C1130 1.523 . S
C1130 C1111 1.368 . S
C1130 C1124 1.368 . S
C1130 C1129 1.523 . S
C1131 C1115 1.429 . S
C1131 C1127 1.429 . S
C1131 C1132 1.523 . S
C1132 C1116 1.368 . S
C1132 C1128 1.368 . S
C1132 C1131 1.523 . S
H1133 C1108 0.950 . S
H1134 C1110 0.950 . S
H1135 C1111 0.949 . S
H1136 C1113 0.950 . S
H1137 C1115 0.950 . S
C1138 C1139 1.349 . S
C1138 C1140 1.327 . S
C1138 H1163 0.950 . S
C1139 C1138 1.349 . S
C1139 C1155 1.349 . S
C1140 C1138 1.327 . S
C1140 C1159 1.429 . S
C1140 H1164 0.950 . S
C1141 C1158 1.574 . S
C1141 C1160 1.368 . S
C1141 H1165 0.949 . S
H1142 C1146 0.949 . S
C1143 C1144 1.349 . S
C1143 C1145 1.327 . S
C1143 H1166 0.950 . S
C1144 C1143 1.349 . S
C1144 C1156 1.349 . S
C1145 C1143 1.327 . S
C1145 C1161 1.429 . S
C1145 H1167 0.950 . S
C1146 H1142 0.949 . S
C1146 C1154 1.574 . S
C1146 C1162 1.368 . S
H1147 C1155 0.950 . S
H1148 C1153 0.950 . S
H1149 C1154 0.949 . S
H1150 C1156 0.950 . S
H1151 C1157 0.950 . S
H1152 C1158 0.949 . S
C1153 H1148 0.950 . S
C1153 C1155 1.327 . S
C1153 C1159 1.429 . S
C1154 C1146 1.574 . S
C1154 H1149 0.949 . S
C1154 C1160 1.368 . S
C1155 C1139 1.349 . S
C1155 H1147 0.950 . S
C1155 C1153 1.327 . S
C1156 C1144 1.349 . S
C1156 H1150 0.950 . S
C1156 C1157 1.327 . S
C1157 H1151 0.950 . S
C1157 C1156 1.327 . S
C1157 C1161 1.429 . S
C1158 C1141 1.574 . S
C1158 H1152 0.949 . S
C1158 C1162 1.368 . S
C1159 C1140 1.429 . S
C1159 C1153 1.429 . S
C1159 C1160 1.523 . S
C1160 C1141 1.368 . S
C1160 C1154 1.368 . S
C1160 C1159 1.523 . S
C1161 C1145 1.429 . S
C1161 C1157 1.429 . S
C1161 C1162 1.523 . S
C1162 C1146 1.368 . S
C1162 C1158 1.368 . S
C1162 C1161 1.523 . S
H1163 C1138 0.950 . S
H1164 C1140 0.950 . S
H1165 C1141 0.949 . S
H1166 C1143 0.950 . S
H1167 C1145 0.950 . S
C449 C241 1.877 . S
C454 C298 2.018 . S
C484 C338 2.021 . S
C479 C277 1.922 . S
C514 C378 2.022 . S
C509 C169 1.878 . S
C544 C418 2.012 1_455 S
C539 C205 1.868 . S
C574 C307 2.022 . S
C569 C97 1.870 . S
C599 C133 1.919 . S
C604 C347 2.020 . S
C629 C25 1.867 . S
C634 C387 2.023 . S
C659 C61 1.867 1_655 S
C664 C427 2.012 1_655 S
C694 C304 0.303 . S
C689 C211 0.272 . S
C724 C344 0.327 . S
C719 C247 0.293 . S
C754 C384 0.297 . S
C749 C253 0.275 . S
C779 C175 0.290 . S
C784 C424 0.326 . S
C809 C67 0.352 1_655 S
C814 C295 0.290 . S
C844 C335 0.327 . S
C839 C103 0.391 . S
C874 C375 0.297 . S
C869 C109 0.201 . S
C899 C31 0.390 . S
C904 C415 0.332 . S
C929 C181 2.541 . S
C934 C299 2.829 . S
C959 C217 2.531 . S
C964 C339 2.814 . S
C994 C379 2.818 . S
C989 C283 2.469 . S
C1024 C419 2.828 . S
C1019 C145 2.540 . S
C1049 C37 2.543 1_655 S
C1054 C290 2.829 . S
C1084 C330 2.813 . S
C1079 C73 2.527 . S
C1114 C370 2.817 . S
C1109 C139 2.459 . S
C1139 C1 2.543 . S
C1144 C410 2.836 . S
