# Generated by pormake.
# Topology nom, (4,4)-cn, num edge types: 1
# Building blocks:
#     Node 0, Type 0, BuildingBlock: NAHDIM_clean_linker_0, # of connection points: 4
#     Node 1, Type 0, BuildingBlock: NAHDIM_clean_linker_0, # of connection points: 4
#     Node 2, Type 0, BuildingBlock: NAHDIM_clean_linker_0, # of connection points: 4
#     Node 3, Type 0, BuildingBlock: NAHDIM_clean_linker_0, # of connection points: 4
#     Node 4, Type 0, BuildingBlock: NAHDIM_clean_linker_0, # of connection points: 4
#     Node 5, Type 0, BuildingBlock: NAHDIM_clean_linker_0, # of connection points: 4
#     Node 6, Type 1, BuildingBlock: KUFVIS_clean_sbu_0, # of connection points: 4
#     Node 7, Type 1, BuildingBlock: KUFVIS_clean_sbu_0, # of connection points: 4
#     Node 8, Type 1, BuildingBlock: KUFVIS_clean_sbu_0, # of connection points: 4
#     Node 9, Type 1, BuildingBlock: KUFVIS_clean_sbu_0, # of connection points: 4
#     Node 10, Type 1, BuildingBlock: KUFVIS_clean_sbu_0, # of connection points: 4
#     Node 11, Type 1, BuildingBlock: KUFVIS_clean_sbu_0, # of connection points: 4
#     Edge 12, Type (0, 1), BuildingBlock: TEMPAE_clean_linker_10, # of connection points: 2
#     Edge 13, Type (0, 1), BuildingBlock: TEMPAE_clean_linker_10, # of connection points: 2
#     Edge 14, Type (0, 1), BuildingBlock: TEMPAE_clean_linker_10, # of connection points: 2
#     Edge 15, Type (0, 1), BuildingBlock: TEMPAE_clean_linker_10, # of connection points: 2
#     Edge 16, Type (0, 1), BuildingBlock: TEMPAE_clean_linker_10, # of connection points: 2
#     Edge 17, Type (0, 1), BuildingBlock: TEMPAE_clean_linker_10, # of connection points: 2
#     Edge 18, Type (0, 1), BuildingBlock: TEMPAE_clean_linker_10, # of connection points: 2
#     Edge 19, Type (0, 1), BuildingBlock: TEMPAE_clean_linker_10, # of connection points: 2
#     Edge 20, Type (0, 1), BuildingBlock: TEMPAE_clean_linker_10, # of connection points: 2
#     Edge 21, Type (0, 1), BuildingBlock: TEMPAE_clean_linker_10, # of connection points: 2
#     Edge 22, Type (0, 1), BuildingBlock: TEMPAE_clean_linker_10, # of connection points: 2
#     Edge 23, Type (0, 1), BuildingBlock: TEMPAE_clean_linker_10, # of connection points: 2
#     Edge 24, Type (0, 1), BuildingBlock: TEMPAE_clean_linker_10, # of connection points: 2
#     Edge 25, Type (0, 1), BuildingBlock: TEMPAE_clean_linker_10, # of connection points: 2
#     Edge 26, Type (0, 1), BuildingBlock: TEMPAE_clean_linker_10, # of connection points: 2
#     Edge 27, Type (0, 1), BuildingBlock: TEMPAE_clean_linker_10, # of connection points: 2
#     Edge 28, Type (0, 1), BuildingBlock: TEMPAE_clean_linker_10, # of connection points: 2
#     Edge 29, Type (0, 1), BuildingBlock: TEMPAE_clean_linker_10, # of connection points: 2
#     Edge 30, Type (0, 1), BuildingBlock: TEMPAE_clean_linker_10, # of connection points: 2
#     Edge 31, Type (0, 1), BuildingBlock: TEMPAE_clean_linker_10, # of connection points: 2
#     Edge 32, Type (0, 1), BuildingBlock: TEMPAE_clean_linker_10, # of connection points: 2
#     Edge 33, Type (0, 1), BuildingBlock: TEMPAE_clean_linker_10, # of connection points: 2
#     Edge 34, Type (0, 1), BuildingBlock: TEMPAE_clean_linker_10, # of connection points: 2
#     Edge 35, Type (0, 1), BuildingBlock: TEMPAE_clean_linker_10, # of connection points: 2
# Relax obj value: 0.043
# Max RMSD: 0.131
# Mean RMSD: 0.094
data_MOF--net-nom--node1-KUFVIS_clean_sbu_0--node2-NAHDIM_clean_linker_0--edge1-TEMPAE_clean_linker_10
_symmetry_space_group_name_H-M    P1
_symmetry_Int_Tables_number       1
_symmetry_cell_setting            triclinic
loop_
_symmetry_equiv_pos_as_xyz
'x, y, z'
_cell_length_a     57.905696
_cell_length_b     58.618049
_cell_length_c     70.859051
_cell_angle_alpha  90.760078
_cell_angle_beta   90.80908
_cell_angle_gamma 119.99931
loop_
_atom_site_label
_atom_site_type_symbol
_atom_site_fract_x
_atom_site_fract_y
_atom_site_fract_z
_atom_type_partial_charge
C0 C 0.16317 0.60484 0.24466 0.0
C1 C 0.17567 0.61455 0.26448 0.0
C2 C 0.13477 0.60425 0.28121 0.0
C3 C 0.12458 0.57697 0.28256 0.0
C4 C 0.09804 0.56018 0.28754 0.0
C5 C 0.08129 0.57082 0.29111 0.0
C6 C 0.09176 0.59836 0.29047 0.0
C7 C 0.11851 0.61476 0.28575 0.0
C8 C 0.08765 0.53093 0.2885 0.0
C9 C 0.07444 0.61036 0.29418 0.0
C10 C 0.91147 0.47694 0.18859 0.0
C11 C 0.92547 0.49195 0.20615 0.0
C12 C 0.96264 0.49952 0.22703 0.0
C13 C 0.96072 0.51735 0.23946 0.0
C14 C 0.97592 0.52582 0.25632 0.0
C15 C 0.99261 0.51546 0.26122 0.0
C16 C 0.9944 0.49732 0.24879 0.0
C17 C 0.97968 0.48994 0.2317 0.0
C18 C 0.97427 0.54606 0.26876 0.0
C19 C 0.01187 0.48575 0.25349 0.0
C20 C 0.88024 0.43639 0.35396 0.0
C21 C 0.88762 0.46256 0.35008 0.0
C22 C 0.91461 0.48223 0.34994 0.0
C23 C 0.93454 0.47542 0.35341 0.0
C24 C 0.92705 0.44925 0.35811 0.0
C25 C 0.8999 0.43015 0.35859 0.0
C26 C 0.92183 0.51015 0.34568 0.0
C27 C 0.94769 0.4413 0.36209 0.0
C28 C 0.11881 0.61268 0.41509 0.0
C29 C 0.10356 0.58688 0.42579 0.0
C30 C 0.05807 0.56526 0.4136 0.0
C31 C 0.04197 0.57461 0.40621 0.0
C32 C 0.02404 0.56129 0.3911 0.0
C33 C 0.02197 0.53785 0.38354 0.0
C34 C 0.03681 0.5273 0.39192 0.0
C35 C 0.05475 0.54115 0.4069 0.0
C36 C 0.00815 0.57282 0.38268 0.0
C37 C 0.03443 0.5019 0.38459 0.0
C38 C 0.05239 0.55287 0.29389 0.0
C39 C 0.03607 0.54241 0.27773 0.0
C40 C 0.00886 0.52437 0.27901 0.0
C41 C 0.99752 0.51616 0.29693 0.0
C42 C 0.97055 0.49692 0.29875 0.0
C43 C 0.95934 0.48972 0.31645 0.0
C44 C 0.9746 0.50168 0.33302 0.0
C45 C 0.96314 0.49521 0.35107 0.0
C46 C 0.97897 0.50735 0.36724 0.0
C47 C 0.00614 0.52567 0.36591 0.0
C48 C 0.01797 0.5323 0.348 0.0
C49 C 0.04534 0.55045 0.34618 0.0
C50 C 0.05677 0.55692 0.32849 0.0
C51 C 0.04118 0.54593 0.31195 0.0
C52 C 0.0136 0.5275 0.31345 0.0
C53 C 0.00205 0.52047 0.33151 0.0
C54 C 0.8193 0.38698 0.33264 0.0
C55 C 0.83466 0.41494 0.34109 0.0
O56 O 0.15982 0.621 0.27525 0.0
O57 O 0.077 0.58008 0.42688 0.0
O58 O 0.85442 0.41669 0.35331 0.0
O59 O 0.94855 0.49126 0.21043 0.0
H60 H 0.17786 0.59888 0.27153 0.0
H61 H 0.14349 0.58659 0.24546 0.0
H62 H 0.16034 0.62011 0.23758 0.0
H63 H 0.17616 0.60025 0.23591 0.0
H64 H 0.13705 0.56855 0.27953 0.0
H65 H 0.12662 0.63584 0.28487 0.0
H66 H 0.07291 0.52061 0.2768 0.0
H67 H 0.10382 0.52605 0.28737 0.0
H68 H 0.07725 0.52327 0.30198 0.0
H69 H 0.08562 0.63216 0.29315 0.0
H70 H 0.05743 0.60215 0.28385 0.0
H71 H 0.06602 0.60516 0.30848 0.0
H72 H 0.92806 0.51209 0.20718 0.0
H73 H 0.9122 0.49217 0.17873 0.0
H74 H 0.9263 0.4737 0.18057 0.0
H75 H 0.87556 0.44588 0.19822 0.0
H76 H 0.94781 0.52516 0.23597 0.0
H77 H 0.98106 0.47624 0.22199 0.0
H78 H 0.96255 0.53637 0.2814 0.0
H79 H 0.99448 0.56156 0.27369 0.0
H80 H 0.96444 0.55564 0.26135 0.0
H81 H 0.00752 0.4687 0.24406 0.0
H82 H 0.03309 0.50106 0.25193 0.0
H83 H 0.0092 0.47928 0.26836 0.0
H84 H 0.84373 0.42841 0.32904 0.0
H85 H 0.87233 0.46762 0.34715 0.0
H86 H 0.89391 0.40996 0.36188 0.0
H87 H 0.93002 0.51501 0.33129 0.0
H88 H 0.9043 0.51304 0.34633 0.0
H89 H 0.93749 0.5242 0.3558 0.0
H90 H 0.93857 0.41982 0.36442 0.0
H91 H 0.96151 0.44669 0.35011 0.0
H92 H 0.95973 0.45213 0.37485 0.0
H93 H 0.10576 0.57192 0.41738 0.0
H94 H 0.14051 0.61955 0.41522 0.0
H95 H 0.11158 0.60937 0.40015 0.0
H96 H 0.11541 0.62823 0.42131 0.0
H97 H 0.04438 0.59301 0.41176 0.0
H98 H 0.06639 0.53331 0.41323 0.0
H99 H 0.01393 0.5781 0.3678 0.0
H100 H 0.98657 0.55792 0.38255 0.0
H101 H 0.01133 0.59069 0.39059 0.0
H102 H 0.04533 0.49502 0.39377 0.0
H103 H 0.01311 0.48628 0.38352 0.0
H104 H 0.04263 0.50483 0.37019 0.0
H105 H 0.04471 0.54847 0.26393 0.0
H106 H 0.9578 0.48722 0.28649 0.0
H107 H 0.93847 0.47482 0.31693 0.0
H108 H 0.97007 0.50238 0.38104 0.0
H109 H 0.05829 0.55986 0.35839 0.0
H110 H 0.07792 0.57094 0.32794 0.0
H111 H 0.80981 0.37235 0.34392 0.0
H112 H 0.80359 0.3851 0.32249 0.0
H113 H 0.83316 0.38243 0.32495 0.0
C114 C 0.43366 0.86474 0.56636 0.0
C115 C 0.42487 0.85205 0.54654 0.0
C116 C 0.43543 0.89217 0.5293 0.0
C117 C 0.46319 0.90276 0.52861 0.0
C118 C 0.47996 0.92904 0.52359 0.0
C119 C 0.46878 0.94508 0.51939 0.0
C120 C 0.44078 0.93422 0.51953 0.0
C121 C 0.42446 0.90774 0.52421 0.0
C122 C 0.5097 0.93986 0.52322 0.0
C123 C 0.42813 0.95077 0.51536 0.0
C124 C 0.50552 0.0494 0.62287 0.0
C125 C 0.52581 0.0754 0.614 0.0
C126 C 0.53499 0.05956 0.58425 0.0
C127 C 0.5108 0.05319 0.57494 0.0
C128 C 0.50402 0.0402 0.55726 0.0
C129 C 0.52162 0.03321 0.54875 0.0
C130 C 0.5462 0.04004 0.55783 0.0
C131 C 0.55264 0.05334 0.57543 0.0
C132 C 0.47769 0.03337 0.54787 0.0
C133 C 0.56535 0.03279 0.54912 0.0
C134 C 0.58817 0.14591 0.45568 0.0
C135 C 0.56082 0.13622 0.45808 0.0
C136 C 0.54284 0.109 0.4583 0.0
C137 C 0.5525 0.09124 0.4561 0.0
C138 C 0.57982 0.10099 0.45259 0.0
C139 C 0.59729 0.12829 0.45225 0.0
C140 C 0.51367 0.09921 0.46142 0.0
C141 C 0.59069 0.08256 0.44985 0.0
C142 C 0.42006 0.90264 0.39749 0.0
C143 C 0.44491 0.9209 0.38634 0.0
C144 C 0.46328 0.9657 0.39828 0.0
C145 C 0.45238 0.97947 0.4071 0.0
C146 C 0.46656 0.99814 0.42154 0.0
C147 C 0.49239 0.0033 0.42697 0.0
C148 C 0.50431 0.99093 0.41703 0.0
C149 C 0.4896 0.97224 0.40272 0.0
C150 C 0.45351 0.01141 0.43163 0.0
C151 C 0.53211 0.99662 0.4221 0.0
C152 C 0.48648 0.97367 0.51639 0.0
C153 C 0.49731 0.98999 0.53242 0.0
C154 C 0.5133 0.01724 0.53096 0.0
C155 C 0.51922 0.02872 0.51299 0.0
C156 C 0.53562 0.05603 0.511 0.0
C157 C 0.54098 0.06715 0.49324 0.0
C158 C 0.52968 0.05144 0.47679 0.0
C159 C 0.53446 0.06262 0.45868 0.0
C160 C 0.52224 0.04654 0.44269 0.0
C161 C 0.50562 0.01935 0.44427 0.0
C162 C 0.50129 0.00768 0.46218 0.0
C163 C 0.48533 0.98025 0.46417 0.0
C164 C 0.48087 0.969 0.48187 0.0
C165 C 0.49174 0.98477 0.49828 0.0
C166 C 0.50815 0.01242 0.49659 0.0
C167 C 0.51311 0.02385 0.4785 0.0
C168 C 0.63049 0.20137 0.48236 0.0
C169 C 0.60569 0.19001 0.46938 0.0
O170 O 0.41859 0.86733 0.53512 0.0
O171 O 0.44781 0.94582 0.38589 0.0
O172 O 0.60626 0.17205 0.45674 0.0
O173 O 0.5419 0.07125 0.60174 0.0
H174 H 0.4412 0.85003 0.54015 0.0
H175 H 0.45207 0.88426 0.56573 0.0
H176 H 0.41775 0.86745 0.57276 0.0
H177 H 0.43803 0.85216 0.57564 0.0
H178 H 0.47194 0.89078 0.53212 0.0
H179 H 0.40302 0.8993 0.52462 0.0
H180 H 0.51947 0.95417 0.53516 0.0
H181 H 0.51498 0.92413 0.52441 0.0
H182 H 0.51786 0.95055 0.50994 0.0
H183 H 0.4062 0.93978 0.51727 0.0
H184 H 0.43707 0.96859 0.52475 0.0
H185 H 0.43208 0.95751 0.50059 0.0
H186 H 0.51501 0.08369 0.60618 0.0
H187 H 0.49304 0.05286 0.63298 0.0
H188 H 0.49206 0.03514 0.61183 0.0
H189 H 0.51586 0.04044 0.63044 0.0
H190 H 0.49686 0.05793 0.58136 0.0
H191 H 0.5713 0.05841 0.58263 0.0
H192 H 0.46452 0.01164 0.54727 0.0
H193 H 0.46728 0.04215 0.5555 0.0
H194 H 0.48088 0.04034 0.53313 0.0
H195 H 0.58385 0.03982 0.55786 0.0
H196 H 0.55551 0.01105 0.54728 0.0
H197 H 0.57083 0.04138 0.53489 0.0
H198 H 0.58829 0.18017 0.47879 0.0
H199 H 0.55352 0.14989 0.45987 0.0
H200 H 0.61838 0.13602 0.45003 0.0
H201 H 0.50802 0.08961 0.47531 0.0
H202 H 0.50894 0.11539 0.46116 0.0
H203 H 0.5013 0.08417 0.45041 0.0
H204 H 0.6124 0.09327 0.44708 0.0
H205 H 0.58715 0.07061 0.46264 0.0
H206 H 0.58 0.06872 0.43781 0.0
H207 H 0.46188 0.92116 0.39414 0.0
H208 H 0.41577 0.88195 0.39636 0.0
H209 H 0.42356 0.90882 0.41263 0.0
H210 H 0.40242 0.90374 0.39242 0.0
H211 H 0.43221 0.97461 0.40326 0.0
H212 H 0.4985 0.96244 0.39523 0.0
H213 H 0.44999 0.005 0.4465 0.0
H214 H 0.46695 0.03311 0.43188 0.0
H215 H 0.43414 0.00668 0.42486 0.0
H216 H 0.53936 0.98703 0.41204 0.0
H217 H 0.54614 0.01821 0.42235 0.0
H218 H 0.53232 0.98942 0.43648 0.0
H219 H 0.49267 0.98139 0.5463 0.0
H220 H 0.54457 0.0691 0.52317 0.0
H221 H 0.55386 0.08829 0.49259 0.0
H222 H 0.52567 0.05528 0.42888 0.0
H223 H 0.4761 0.96711 0.45207 0.0
H224 H 0.46851 0.9478 0.48254 0.0
H225 H 0.63062 0.2161 0.49247 0.0
H226 H 0.63037 0.1853 0.49057 0.0
H227 H 0.64901 0.21091 0.47408 0.0
C228 C 0.58315 0.43591 0.72706 0.0
C229 C 0.58413 0.4256 0.70722 0.0
C230 C 0.55418 0.43759 0.69073 0.0
C231 C 0.57265 0.46454 0.68878 0.0
C232 C 0.5642 0.48219 0.68337 0.0
C233 C 0.53672 0.47283 0.68006 0.0
C234 C 0.51814 0.44563 0.68158 0.0
C235 C 0.52723 0.42832 0.68663 0.0
C236 C 0.58462 0.51098 0.68152 0.0
C237 C 0.48865 0.43496 0.67834 0.0
C238 C 0.5296 0.6238 0.75126 0.0
C239 C 0.51694 0.59726 0.76121 0.0
C240 C 0.50437 0.56382 0.73566 0.0
C241 C 0.48264 0.54233 0.72668 0.0
C242 C 0.48622 0.52819 0.71204 0.0
C243 C 0.5123 0.5364 0.70582 0.0
C244 C 0.53451 0.55774 0.71516 0.0
C245 C 0.53035 0.57105 0.73018 0.0
C246 C 0.46205 0.50487 0.70296 0.0
C247 C 0.56261 0.56685 0.70903 0.0
C248 C 0.46223 0.59672 0.61053 0.0
C249 C 0.4447 0.57084 0.616 0.0
C250 C 0.45304 0.55212 0.6166 0.0
C251 C 0.47958 0.55962 0.61193 0.0
C252 C 0.49681 0.58534 0.60548 0.0
C253 C 0.48772 0.60347 0.60462 0.0
C254 C 0.43374 0.52457 0.62278 0.0
C255 C 0.52513 0.59396 0.60022 0.0
C256 C 0.52339 0.41714 0.56022 0.0
C257 C 0.5342 0.44234 0.54876 0.0
C258 C 0.51065 0.46492 0.55801 0.0
C259 C 0.48548 0.45622 0.56545 0.0
C260 C 0.48167 0.47121 0.57937 0.0
C261 C 0.50355 0.49562 0.5856 0.0
C262 C 0.52855 0.50544 0.57698 0.0
C263 C 0.53184 0.48993 0.56325 0.0
C264 C 0.45466 0.46042 0.58808 0.0
C265 C 0.55206 0.53178 0.58287 0.0
C266 C 0.52735 0.49174 0.67608 0.0
C267 C 0.52438 0.50517 0.69146 0.0
C268 C 0.51609 0.52359 0.68889 0.0
C269 C 0.51063 0.52894 0.67047 0.0
C270 C 0.50305 0.54796 0.66735 0.0
C271 C 0.49655 0.55227 0.6493 0.0
C272 C 0.49744 0.53777 0.63363 0.0
C273 C 0.48991 0.54133 0.61529 0.0
C274 C 0.49189 0.52724 0.59993 0.0
C275 C 0.50114 0.50951 0.60242 0.0
C276 C 0.50818 0.50525 0.62071 0.0
C277 C 0.5172 0.48726 0.62373 0.0
C278 C 0.52382 0.48303 0.6418 0.0
C279 C 0.5214 0.49639 0.65758 0.0
C280 C 0.51278 0.51491 0.65481 0.0
C281 C 0.50617 0.51934 0.63636 0.0
C282 C 0.45414 0.64671 0.6323 0.0
C283 C 0.43977 0.61828 0.62467 0.0
O284 O 0.56136 0.42001 0.69677 0.0
O285 O 0.51423 0.44859 0.54625 0.0
O286 O 0.45529 0.61566 0.61103 0.0
O287 O 0.49911 0.57714 0.74916 0.0
H288 H 0.60209 0.44068 0.69995 0.0
H289 H 0.58259 0.45452 0.72623 0.0
H290 H 0.56512 0.42116 0.73443 0.0
H291 H 0.60118 0.44008 0.73556 0.0
H292 H 0.59366 0.47202 0.69155 0.0
H293 H 0.51314 0.4075 0.68802 0.0
H294 H 0.58217 0.52251 0.69307 0.0
H295 H 0.60538 0.51463 0.68226 0.0
H296 H 0.5815 0.51839 0.66792 0.0
H297 H 0.47668 0.41355 0.6811 0.0
H298 H 0.48175 0.44566 0.68763 0.0
H299 H 0.48479 0.43823 0.66351 0.0
H300 H 0.53298 0.59327 0.76592 0.0
H301 H 0.54309 0.63994 0.76126 0.0
H302 H 0.54156 0.62379 0.73919 0.0
H303 H 0.51405 0.62797 0.74579 0.0
H304 H 0.4627 0.53673 0.73114 0.0
H305 H 0.54745 0.58733 0.73722 0.0
H306 H 0.46579 0.48825 0.70056 0.0
H307 H 0.44408 0.49799 0.7117 0.0
H308 H 0.45775 0.51054 0.68902 0.0
H309 H 0.57753 0.58524 0.71657 0.0
H310 H 0.56762 0.55123 0.71184 0.0
H311 H 0.56419 0.5703 0.69361 0.0
H312 H 0.43754 0.60565 0.63693 0.0
H313 H 0.42458 0.56532 0.61991 0.0
H314 H 0.50091 0.6234 0.60011 0.0
H315 H 0.43929 0.52189 0.6373 0.0
H316 H 0.41287 0.52062 0.6228 0.0
H317 H 0.43474 0.50979 0.61338 0.0
H318 H 0.53628 0.61493 0.59608 0.0
H319 H 0.53585 0.59123 0.61231 0.0
H320 H 0.52507 0.58151 0.58826 0.0
H321 H 0.55123 0.45785 0.55733 0.0
H322 H 0.53852 0.41083 0.56152 0.0
H323 H 0.5187 0.42097 0.57467 0.0
H324 H 0.50472 0.401 0.55361 0.0
H325 H 0.46915 0.43706 0.56101 0.0
H326 H 0.55107 0.49711 0.55687 0.0
H327 H 0.45615 0.45687 0.60329 0.0
H328 H 0.4479 0.47507 0.58711 0.0
H329 H 0.4394 0.44167 0.58111 0.0
H330 H 0.56917 0.53793 0.57336 0.0
H331 H 0.54617 0.54713 0.58302 0.0
H332 H 0.55867 0.53062 0.59743 0.0
H333 H 0.52849 0.50116 0.70565 0.0
H334 H 0.50189 0.55968 0.67884 0.0
H335 H 0.4907 0.56705 0.64783 0.0
H336 H 0.48625 0.53014 0.58589 0.0
H337 H 0.51915 0.47613 0.61217 0.0
H338 H 0.53061 0.46895 0.64327 0.0
H339 H 0.44216 0.64928 0.64336 0.0
H340 H 0.47375 0.65156 0.63868 0.0
H341 H 0.4576 0.66069 0.62078 0.0
C342 C 0.16719 0.59866 0.89241 0.0
C343 C 0.17565 0.59407 0.87281 0.0
C344 C 0.13159 0.55936 0.86059 0.0
C345 C 0.12064 0.57577 0.85775 0.0
C346 C 0.09343 0.56504 0.85328 0.0
C347 C 0.07685 0.53738 0.85147 0.0
C348 C 0.08797 0.52087 0.8536 0.0
C349 C 0.11527 0.53213 0.85805 0.0
C350 C 0.08222 0.58323 0.85094 0.0
C351 C 0.07087 0.49132 0.85156 0.0
C352 C 0.95867 0.53043 0.94974 0.0
C353 C 0.95396 0.50262 0.94585 0.0
C354 C 0.95906 0.49894 0.9124 0.0
C355 C 0.96449 0.47965 0.90571 0.0
C356 C 0.9795 0.48372 0.88943 0.0
C357 C 0.98924 0.5077 0.87977 0.0
C358 C 0.9838 0.52729 0.88662 0.0
C359 C 0.96837 0.52248 0.90274 0.0
C360 C 0.98474 0.46235 0.88243 0.0
C361 C 0.99403 0.55316 0.87678 0.0
C362 C 0.87422 0.4719 0.78616 0.0
C363 C 0.8811 0.4525 0.78961 0.0
C364 C 0.90785 0.45868 0.78946 0.0
C365 C 0.9281 0.48496 0.78632 0.0
C366 C 0.92102 0.50419 0.78192 0.0
C367 C 0.89405 0.49724 0.7816 0.0
C368 C 0.91453 0.43735 0.79329 0.0
C369 C 0.94199 0.53233 0.7783 0.0
C370 C 0.09308 0.50167 0.72215 0.0
C371 C 0.09011 0.52491 0.71557 0.0
C372 C 0.04692 0.51395 0.72695 0.0
C373 C 0.02941 0.48879 0.73343 0.0
C374 C 0.0134 0.48541 0.74901 0.0
C375 C 0.01454 0.50776 0.75788 0.0
C376 C 0.03125 0.53315 0.75064 0.0
C377 C 0.04756 0.53597 0.73534 0.0
C378 C 0.99581 0.45807 0.75629 0.0
C379 C 0.03227 0.55731 0.75928 0.0
C380 C 0.04768 0.52583 0.84831 0.0
C381 C 0.03201 0.52144 0.86416 0.0
C382 C 0.00464 0.51203 0.8623 0.0
C383 C 0.99248 0.5071 0.84412 0.0
C384 C 0.96517 0.49844 0.84172 0.0
C385 C 0.95348 0.49414 0.82379 0.0
C386 C 0.96846 0.49756 0.80752 0.0
C387 C 0.95663 0.49286 0.78922 0.0
C388 C 0.97211 0.49638 0.77337 0.0
C389 C 0.99928 0.50466 0.77527 0.0
C390 C 0.01149 0.50966 0.79346 0.0
C391 C 0.03881 0.51817 0.79591 0.0
C392 C 0.05076 0.52366 0.81383 0.0
C393 C 0.03574 0.52023 0.83004 0.0
C394 C 0.00807 0.51107 0.82794 0.0
C395 C 0.99599 0.50604 0.80963 0.0
C396 C 0.81589 0.46437 0.80826 0.0
C397 C 0.8306 0.45081 0.80052 0.0
O398 O 0.1574 0.56875 0.86632 0.0
O399 O 0.06336 0.51682 0.71267 0.0
O400 O 0.84875 0.46691 0.78737 0.0
O401 O 0.94371 0.49423 0.92769 0.0
H402 H 0.17608 0.60878 0.86287 0.0
H403 H 0.14572 0.59257 0.8924 0.0
H404 H 0.17063 0.58707 0.90324 0.0
H405 H 0.1783 0.61991 0.89647 0.0
H406 H 0.13301 0.59692 0.85935 0.0
H407 H 0.12389 0.51962 0.86007 0.0
H408 H 0.06783 0.5797 0.86227 0.0
H409 H 0.098 0.60433 0.85159 0.0
H410 H 0.0712 0.57899 0.83721 0.0
H411 H 0.0826 0.48119 0.85344 0.0
H412 H 0.05494 0.48397 0.86217 0.0
H413 H 0.06098 0.48596 0.83738 0.0
H414 H 0.9734 0.5031 0.94742 0.0
H415 H 0.96525 0.53664 0.96466 0.0
H416 H 0.97463 0.54478 0.94065 0.0
H417 H 0.9401 0.5311 0.94691 0.0
H418 H 0.9568 0.46137 0.91322 0.0
H419 H 0.9634 0.53699 0.90777 0.0
H420 H 0.97746 0.45682 0.86757 0.0
H421 H 0.00654 0.46983 0.88268 0.0
H422 H 0.97489 0.44444 0.89111 0.0
H423 H 0.99004 0.56719 0.88481 0.0
H424 H 0.01585 0.5624 0.87474 0.0
H425 H 0.9843 0.54958 0.86259 0.0
H426 H 0.84134 0.44827 0.81277 0.0
H427 H 0.86561 0.4326 0.79253 0.0
H428 H 0.8884 0.51191 0.77864 0.0
H429 H 0.92296 0.44003 0.80784 0.0
H430 H 0.89666 0.41736 0.79196 0.0
H431 H 0.92982 0.43862 0.78339 0.0
H432 H 0.93323 0.54515 0.77586 0.0
H433 H 0.95626 0.54051 0.7905 0.0
H434 H 0.95347 0.53293 0.76571 0.0
H435 H 0.09877 0.54076 0.72674 0.0
H436 H 0.11448 0.5078 0.72427 0.0
H437 H 0.08311 0.49454 0.73583 0.0
H438 H 0.08392 0.48518 0.71156 0.0
H439 H 0.02898 0.47192 0.72661 0.0
H440 H 0.06097 0.55532 0.72996 0.0
H441 H 0.00047 0.45749 0.77148 0.0
H442 H 0.9746 0.4529 0.75506 0.0
H443 H 0.99829 0.44294 0.74842 0.0
H444 H 0.04309 0.57484 0.75034 0.0
H445 H 0.01176 0.5537 0.76147 0.0
H446 H 0.04258 0.56178 0.77329 0.0
H447 H 0.04129 0.52565 0.87815 0.0
H448 H 0.95253 0.49515 0.85368 0.0
H449 H 0.93248 0.48793 0.82289 0.0
H450 H 0.96291 0.49272 0.75938 0.0
H451 H 0.05136 0.52092 0.78399 0.0
H452 H 0.07191 0.53046 0.81483 0.0
H453 H 0.80142 0.45197 0.81901 0.0
H454 H 0.83042 0.48357 0.81506 0.0
H455 H 0.80503 0.46804 0.79672 0.0
C456 C 0.43352 0.86387 0.91634 0.0
C457 C 0.43319 0.85591 0.93694 0.0
C458 C 0.46539 0.8997 0.95038 0.0
C459 C 0.44834 0.91033 0.95036 0.0
C460 C 0.45845 0.93735 0.95383 0.0
C461 C 0.48612 0.95408 0.95733 0.0
C462 C 0.50323 0.94334 0.95773 0.0
C463 C 0.49254 0.91621 0.95445 0.0
C464 C 0.43961 0.94813 0.9536 0.0
C465 C 0.53286 0.96059 0.96135 0.0
C466 C 0.57879 0.10902 0.85332 0.0
C467 C 0.57137 0.08889 0.86814 0.0
C468 C 0.54201 0.07082 0.89492 0.0
C469 C 0.55705 0.06099 0.90377 0.0
C470 C 0.5483 0.04645 0.92029 0.0
C471 C 0.5236 0.04089 0.92789 0.0
C472 C 0.50803 0.05013 0.91878 0.0
C473 C 0.5177 0.06537 0.90257 0.0
C474 C 0.56554 0.03701 0.9296 0.0
C475 C 0.48125 0.04392 0.92616 0.0
C476 C 0.56094 0.15773 0.02 0.0
C477 C 0.57919 0.14901 0.01691 0.0
C478 C 0.57096 0.12206 0.01729 0.0
C479 C 0.54379 0.10352 0.02032 0.0
C480 C 0.52571 0.11244 0.02434 0.0
C481 C 0.53468 0.13955 0.02442 0.0
C482 C 0.5911 0.11338 0.01389 0.0
C483 C 0.49669 0.09331 0.02786 0.0
C484 C 0.52132 0.93922 0.08387 0.0
C485 C 0.49908 0.94305 0.09206 0.0
C486 C 0.51094 0.98605 0.08095 0.0
C487 C 0.53621 0.00263 0.07388 0.0
C488 C 0.53939 0.01836 0.05829 0.0
C489 C 0.51676 0.01795 0.05004 0.0
C490 C 0.49134 0.0023 0.05795 0.0
C491 C 0.48868 0.98619 0.07322 0.0
C492 C 0.5668 0.03483 0.05032 0.0
C493 C 0.46694 0.00209 0.04998 0.0
C494 C 0.49722 0.98288 0.96008 0.0
C495 C 0.50334 0.99823 0.94399 0.0
C496 C 0.51443 0.02555 0.94545 0.0
C497 C 0.51879 0.03795 0.96345 0.0
C498 C 0.52918 0.06527 0.96544 0.0
C499 C 0.53347 0.07728 0.9832 0.0
C500 C 0.52859 0.06262 -0.00029 0.0
C501 C 0.53384 0.07484 0.01786 0.0
C502 C 0.52937 0.05976 0.03395 0.0
C503 C 0.51955 0.0326 0.03247 0.0
C504 C 0.51359 0.01995 0.01446 0.0
C505 C 0.50331 0.9926 0.01244 0.0
C506 C 0.49741 0.98034 0.99468 0.0
C507 C 0.50235 0.99504 0.97821 0.0
C508 C 0.51298 0.02265 0.97989 0.0
C509 C 0.51829 0.03507 0.99804 0.0
C510 C 0.57239 0.21564 0.99681 0.0
C511 C 0.58507 0.20064 0.00547 0.0
O512 O 0.45668 0.87386 0.94636 0.0
O513 O 0.50818 0.96965 0.09509 0.0
O514 O 0.56796 0.18345 0.01865 0.0
O515 O 0.55032 0.08557 0.87914 0.0
H516 H 0.41591 0.85517 0.94417 0.0
H517 H 0.43473 0.88333 0.9156 0.0
H518 H 0.45095 0.86507 0.90904 0.0
H519 H 0.41495 0.84927 0.90867 0.0
H520 H 0.42719 0.89773 0.94758 0.0
H521 H 0.50549 0.90781 0.95457 0.0
H522 H 0.44455 0.96195 0.94178 0.0
H523 H 0.41842 0.93234 0.95191 0.0
H524 H 0.44206 0.95941 0.96692 0.0
H525 H 0.54361 0.94937 0.96033 0.0
H526 H 0.54128 0.9767 0.95104 0.0
H527 H 0.53658 0.96984 0.97567 0.0
H528 H 0.56921 0.06972 0.86324 0.0
H529 H 0.57401 0.0976 0.83955 0.0
H530 H 0.56178 0.11311 0.85198 0.0
H531 H 0.61764 0.13812 0.86139 0.0
H532 H 0.57582 0.0648 0.89802 0.0
H533 H 0.50612 0.07287 0.89564 0.0
H534 H 0.5682 0.04217 0.94492 0.0
H535 H 0.55554 0.01523 0.92813 0.0
H536 H 0.58553 0.04558 0.92324 0.0
H537 H 0.47033 0.05004 0.91634 0.0
H538 H 0.4688 0.02245 0.92853 0.0
H539 H 0.48405 0.05427 0.93996 0.0
H540 H 0.58768 0.18939 0.99367 0.0
H541 H 0.59979 0.16323 0.01413 0.0
H542 H 0.52092 0.14661 0.02711 0.0
H543 H 0.58797 0.10466 0.99944 0.0
H544 H 0.61191 0.13009 0.01522 0.0
H545 H 0.5885 0.09802 0.02402 0.0
H546 H 0.485 0.10341 0.03006 0.0
H547 H 0.48773 0.07921 0.01571 0.0
H548 H 0.49501 0.08172 0.04055 0.0
H549 H 0.48192 0.93473 0.08176 0.0
H550 H 0.51439 0.91792 0.08175 0.0
H551 H 0.52715 0.94866 0.06993 0.0
H552 H 0.53914 0.94815 0.09351 0.0
H553 H 0.55328 0.00246 0.0802 0.0
H554 H 0.46926 0.97351 0.07906 0.0
H555 H 0.56643 0.02985 0.0351 0.0
H556 H 0.57284 0.056 0.0515 0.0
H557 H 0.58208 0.03185 0.05776 0.0
H558 H 0.44968 0.99227 0.05945 0.0
H559 H 0.47127 0.02254 0.04759 0.0
H560 H 0.46124 0.99142 0.03613 0.0
H561 H 0.50007 0.98885 0.93014 0.0
H562 H 0.53389 0.0777 0.95329 0.0
H563 H 0.54106 0.09831 0.98377 0.0
H564 H 0.53378 0.06931 0.0478 0.0
H565 H 0.49954 0.98029 0.02456 0.0
H566 H 0.48927 0.95922 0.99402 0.0
H567 H 0.5855 0.22929 0.98594 0.0
H568 H 0.55292 0.20151 0.98994 0.0
H569 H 0.56893 0.22717 0.00786 0.0
C570 C 0.60033 0.46088 0.08369 0.0
C571 C 0.60605 0.45414 0.10346 0.0
C572 C 0.59693 0.4846 0.12165 0.0
C573 C 0.56897 0.46908 0.12139 0.0
C574 C 0.55312 0.48008 0.12617 0.0
C575 C 0.56544 0.50722 0.13103 0.0
C576 C 0.59359 0.52268 0.13196 0.0
C577 C 0.60897 0.51102 0.1275 0.0
C578 C 0.52316 0.46281 0.12549 0.0
C579 C 0.60737 0.55166 0.13713 0.0
C580 C 0.43673 0.54007 0.0515 0.0
C581 C 0.46225 0.54506 0.04164 0.0
C582 C 0.49364 0.55455 0.06829 0.0
C583 C 0.51612 0.57431 0.07796 0.0
C584 C 0.52618 0.56886 0.09437 0.0
C585 C 0.51321 0.54297 0.10131 0.0
C586 C 0.49064 0.52277 0.09151 0.0
C587 C 0.4812 0.52869 0.07505 0.0
C588 C 0.55043 0.59079 0.10443 0.0
C589 C 0.47635 0.49491 0.09852 0.0
C590 C 0.43144 0.57633 0.19183 0.0
C591 C 0.45867 0.59454 0.1901 0.0
C592 C 0.47765 0.58633 0.19095 0.0
C593 C 0.46905 0.55925 0.19305 0.0
C594 C 0.44168 0.54111 0.1957 0.0
C595 C 0.42327 0.55004 0.19539 0.0
C596 C 0.50677 0.60649 0.18901 0.0
C597 C 0.43173 0.51213 0.19817 0.0
C598 C 0.58057 0.48546 0.24786 0.0
C599 C 0.55825 0.47682 0.26219 0.0
C600 C 0.54117 0.50527 0.25239 0.0
C601 C 0.55308 0.53223 0.24916 0.0
C602 C 0.54384 0.54159 0.23442 0.0
C603 C 0.52174 0.52345 0.22308 0.0
C604 C 0.50833 0.49634 0.22731 0.0
C605 C 0.51834 0.48749 0.24186 0.0
C606 C 0.55842 0.57063 0.23039 0.0
C607 C 0.48405 0.4766 0.21597 0.0
C608 C 0.54879 0.51964 0.13384 0.0
C609 C 0.54 0.52686 0.11773 0.0
C610 C 0.52282 0.53703 0.11905 0.0
C611 C 0.51413 0.54027 0.13691 0.0
C612 C 0.49617 0.54968 0.13865 0.0
C613 C 0.48753 0.55256 0.15625 0.0
C614 C 0.49673 0.54646 0.17286 0.0
C615 C 0.48821 0.54956 0.19087 0.0
C616 C 0.49714 0.5425 0.20702 0.0
C617 C 0.51433 0.53229 0.20567 0.0
C618 C 0.52346 0.52954 0.18782 0.0
C619 C 0.54099 0.51956 0.186 0.0
C620 C 0.54929 0.51626 0.16836 0.0
C621 C 0.5407 0.52314 0.15187 0.0
C622 C 0.52328 0.5335 0.15338 0.0
C623 C 0.5146 0.53665 0.17138 0.0
C624 C 0.38543 0.58798 0.16657 0.0
C625 C 0.41277 0.60062 0.17654 0.0
O626 O 0.6129 0.47506 0.11602 0.0
O627 O 0.55257 0.49691 0.26536 0.0
O628 O 0.41257 0.58345 0.1899 0.0
O629 O 0.48458 0.56137 0.05275 0.0
H630 H 0.58806 0.43627 0.10844 0.0
H631 H 0.58313 0.46428 0.08392 0.0
H632 H 0.61802 0.47896 0.07864 0.0
H633 H 0.59528 0.44437 0.07352 0.0
H634 H 0.55931 0.44844 0.11734 0.0
H635 H 0.63056 0.52277 0.12785 0.0
H636 H 0.51495 0.46796 0.11308 0.0
H637 H 0.5168 0.44154 0.12431 0.0
H638 H 0.51438 0.46619 0.13833 0.0
H639 H 0.62945 0.56102 0.13704 0.0
H640 H 0.60107 0.56196 0.12704 0.0
H641 H 0.60137 0.55441 0.15141 0.0
H642 H 0.46138 0.52589 0.03903 0.0
H643 H 0.41896 0.52756 0.0423 0.0
H644 H 0.43432 0.52969 0.06492 0.0
H645 H 0.43732 0.55896 0.05477 0.0
H646 H 0.52569 0.59415 0.07265 0.0
H647 H 0.46394 0.51297 0.06775 0.0
H648 H 0.56589 0.58502 0.10634 0.0
H649 H 0.55913 0.60952 0.09665 0.0
H650 H 0.54491 0.59423 0.1187 0.0
H651 H 0.45792 0.48187 0.09009 0.0
H652 H 0.48986 0.48664 0.0978 0.0
H653 H 0.47096 0.49479 0.11352 0.0
H654 H 0.42754 0.60383 0.16547 0.0
H655 H 0.46504 0.61511 0.18797 0.0
H656 H 0.40221 0.53628 0.19704 0.0
H657 H 0.51313 0.60494 0.17457 0.0
H658 H 0.51065 0.6269 0.19133 0.0
H659 H 0.51921 0.60279 0.1992 0.0
H660 H 0.40963 0.50036 0.1987 0.0
H661 H 0.43847 0.50439 0.18638 0.0
H662 H 0.44024 0.50933 0.21148 0.0
H663 H 0.54019 0.45896 0.25646 0.0
H664 H 0.58548 0.46962 0.24541 0.0
H665 H 0.57409 0.48958 0.23412 0.0
H666 H 0.5988 0.5036 0.25304 0.0
H667 H 0.57048 0.54579 0.2576 0.0
H668 H 0.50841 0.4667 0.24486 0.0
H669 H 0.56681 0.57377 0.21604 0.0
H670 H 0.54427 0.5782 0.23061 0.0
H671 H 0.57492 0.58224 0.24078 0.0
H672 H 0.47373 0.45704 0.22268 0.0
H673 H 0.46975 0.48386 0.21423 0.0
H674 H 0.49016 0.47406 0.20167 0.0
H675 H 0.54618 0.52401 0.10393 0.0
H676 H 0.48846 0.5548 0.12641 0.0
H677 H 0.47349 0.55964 0.15663 0.0
H678 H 0.49024 0.54453 0.22076 0.0
H679 H 0.54843 0.51406 0.1982 0.0
H680 H 0.56258 0.50829 0.16781 0.0
H681 H 0.38515 0.60121 0.15558 0.0
H682 H 0.38102 0.5691 0.15959 0.0
H683 H 0.36954 0.58388 0.17684 0.0
Mn684 Mn 0.62566 0.39673 0.41001 0.0
Mn685 Mn 0.66225 0.46272 0.41491 0.0
C686 C 0.61189 0.41829 0.43026 0.0
C687 C 0.61954 0.35589 0.41851 0.0
C688 C 0.62567 0.43439 0.38114 0.0
O689 O 0.66078 0.40607 0.39796 0.0
O690 O 0.68567 0.4492 0.40573 0.0
C691 C 0.69844 0.46684 0.44634 0.0
N692 N 0.67982 0.47224 0.43913 0.0
C693 C 0.68138 0.49611 0.46746 0.0
C694 C 0.7007 0.49095 0.47515 0.0
C695 C 0.7092 0.47617 0.46456 0.0
C696 C 0.67136 0.48627 0.44924 0.0
H697 H 0.70498 0.45545 0.43825 0.0
C698 C 0.68294 0.4277 0.39867 0.0
O699 O 0.61046 0.3589 0.40241 0.0
O700 O 0.63198 0.37652 0.42954 0.0
N701 N 0.64211 0.47828 0.42388 0.0
C702 C 0.62218 0.48014 0.41488 0.0
C703 C 0.61089 0.49367 0.42379 0.0
C704 C 0.6204 0.50538 0.44175 0.0
C705 C 0.64104 0.50333 0.45068 0.0
C706 C 0.65151 0.48961 0.44111 0.0
H707 H 0.61486 0.47129 0.40104 0.0
O708 O 0.59531 0.3944 0.42438 0.0
O709 O 0.6363 0.42836 0.42466 0.0
O710 O 0.61514 0.41109 0.38739 0.0
O711 O 0.64434 0.45474 0.38972 0.0
C712 C 0.65147 0.51417 0.46877 0.0
C713 C 0.67146 0.51037 0.47722 0.0
H714 H 0.70901 0.49807 0.48921 0.0
H715 H 0.72401 0.472 0.47043 0.0
H716 H 0.59493 0.4951 0.41683 0.0
H717 H 0.61162 0.51577 0.44858 0.0
H718 H 0.64414 0.52533 0.47635 0.0
H719 H 0.67895 0.51839 0.49128 0.0
Mn720 Mn 0.23462 0.62626 0.57037 0.0
Mn721 Mn 0.2085 0.56152 0.56068 0.0
C722 C 0.19979 0.60565 0.54872 0.0
C723 C 0.26789 0.66942 0.56527 0.0
C724 C 0.19729 0.58314 0.59645 0.0
O725 O 0.26209 0.61788 0.58118 0.0
O726 O 0.24564 0.57601 0.57083 0.0
C727 C 0.24305 0.56437 0.52935 0.0
N728 N 0.21827 0.55632 0.53604 0.0
C729 C 0.19756 0.53482 0.50639 0.0
C730 C 0.22284 0.54273 0.49921 0.0
C731 C 0.24569 0.55767 0.51072 0.0
C732 C 0.19618 0.54219 0.52503 0.0
H733 H 0.26065 0.57582 0.53816 0.0
C734 C 0.26388 0.5972 0.57897 0.0
O735 O 0.25521 0.66282 0.58105 0.0
O736 O 0.261 0.65101 0.55245 0.0
N737 N 0.17283 0.54512 0.55053 0.0
C738 C 0.15009 0.54059 0.55918 0.0
C739 C 0.12551 0.52661 0.54936 0.0
C740 C 0.12452 0.51715 0.53088 0.0
C741 C 0.14818 0.52198 0.52231 0.0
C742 C 0.1721 0.53612 0.53275 0.0
H743 H 0.15068 0.54762 0.57343 0.0
O744 O 0.20536 0.62804 0.55655 0.0
O745 O 0.21533 0.59648 0.55344 0.0
O746 O 0.20971 0.60732 0.59201 0.0
O747 O 0.19672 0.56473 0.58621 0.0
C748 C 0.149 0.51346 0.50378 0.0
C749 C 0.17368 0.5201 0.49575 0.0
H750 H 0.22496 0.5376 0.48485 0.0
H751 H 0.26528 0.56395 0.50525 0.0
H752 H 0.10734 0.52303 0.55605 0.0
H753 H 0.10551 0.50632 0.52338 0.0
H754 H 0.13077 0.50191 0.49554 0.0
H755 H 0.17408 0.51389 0.48135 0.0
Mn756 Mn 0.62426 0.24092 0.74068 0.0
Mn757 Mn 0.66816 0.21967 0.73557 0.0
C758 C 0.61332 0.20522 0.72097 0.0
C759 C 0.61089 0.27102 0.73261 0.0
C760 C 0.63412 0.20948 0.77007 0.0
O761 O 0.65902 0.27064 0.75186 0.0
O762 O 0.688 0.25756 0.74343 0.0
C763 C 0.69781 0.25092 0.70286 0.0
N764 N 0.68287 0.22711 0.71096 0.0
C765 C 0.68618 0.20425 0.68361 0.0
C766 C 0.70173 0.22853 0.67499 0.0
C767 C 0.70747 0.25196 0.68463 0.0
C768 C 0.67699 0.20445 0.70174 0.0
H769 H 0.70231 0.26896 0.71025 0.0
C770 C 0.68269 0.27464 0.75043 0.0
O771 O 0.60523 0.25961 0.74883 0.0
O772 O 0.62394 0.26461 0.72099 0.0
N773 N 0.65175 0.18337 0.72785 0.0
C774 C 0.63527 0.16154 0.73771 0.0
C775 C 0.62711 0.13645 0.72986 0.0
C776 C 0.63623 0.13407 0.71209 0.0
C777 C 0.65323 0.15682 0.70223 0.0
C778 C 0.66067 0.18128 0.71075 0.0
H779 H 0.62842 0.16322 0.75146 0.0
O780 O 0.59487 0.20974 0.72702 0.0
O781 O 0.63771 0.22241 0.72603 0.0
O782 O 0.61966 0.21848 0.76366 0.0
O783 O 0.65373 0.21052 0.76129 0.0
C784 C 0.66301 0.15618 0.68426 0.0
C785 C 0.67926 0.17986 0.67487 0.0
H786 H 0.70923 0.22941 0.66094 0.0
H787 H 0.71937 0.27077 0.67805 0.0
H788 H 0.61393 0.11899 0.73753 0.0
H789 H 0.63 0.11468 0.70614 0.0
H790 H 0.65805 0.13758 0.67748 0.0
H791 H 0.68625 0.17908 0.66091 0.0
Mn792 Mn 0.40954 0.63674 0.90483 0.0
Mn793 Mn 0.37668 0.57024 0.9049 0.0
C794 C 0.42403 0.61537 0.9249 0.0
C795 C 0.41385 0.67695 0.91406 0.0
C796 C 0.41524 0.60259 0.8746 0.0
O797 O 0.37438 0.62648 0.89117 0.0
O798 O 0.35272 0.58262 0.89498 0.0
C799 C 0.33649 0.5614 0.93359 0.0
N800 N 0.35612 0.55725 0.92707 0.0
C801 C 0.34871 0.52632 0.95145 0.0
C802 C 0.32816 0.52998 0.95831 0.0
C803 C 0.32221 0.54781 0.94945 0.0
C804 C 0.36252 0.54075 0.9358 0.0
H805 H 0.3318 0.57497 0.92674 0.0
C806 C 0.35351 0.6038 0.88972 0.0
O807 O 0.4234 0.67401 0.89836 0.0
O808 O 0.40194 0.65648 0.92466 0.0
N809 N 0.39683 0.55494 0.91435 0.0
C810 C 0.41841 0.55512 0.90677 0.0
C811 C 0.42744 0.53884 0.91427 0.0
C812 C 0.41392 0.52225 0.92924 0.0
C813 C 0.39196 0.52265 0.93696 0.0
C814 C 0.38396 0.53935 0.92896 0.0
H815 H 0.42842 0.56729 0.89493 0.0
O816 O 0.43987 0.63972 0.92047 0.0
O817 O 0.39981 0.6044 0.9179 0.0
O818 O 0.42232 0.62501 0.8821 0.0
O819 O 0.39748 0.58099 0.88151 0.0
C820 C 0.37756 0.50701 0.9522 0.0
C821 C 0.35616 0.50908 0.95958 0.0
H822 H 0.31699 0.51939 0.97046 0.0
H823 H 0.30653 0.5509 0.95475 0.0
H824 H 0.4445 0.53875 0.90832 0.0
H825 H 0.42066 0.50937 0.93474 0.0
H826 H 0.38289 0.49348 0.95846 0.0
H827 H 0.34564 0.49739 0.97155 0.0
Mn828 Mn 0.78697 0.4025 0.07649 0.0
Mn829 Mn 0.81252 0.36226 0.08107 0.0
C830 C 0.81916 0.41158 0.09944 0.0
C831 C 0.7537 0.41258 0.0827 0.0
C832 C 0.82821 0.40246 0.05021 0.0
O833 O 0.76069 0.36955 0.06165 0.0
O834 O 0.77703 0.34267 0.06787 0.0
C835 C 0.77338 0.32418 0.10739 0.0
N836 N 0.79908 0.34194 0.10325 0.0
C837 C 0.81517 0.33456 0.13272 0.0
C838 C 0.7889 0.31605 0.13724 0.0
C839 C 0.76791 0.31092 0.12454 0.0
C840 C 0.81939 0.34723 0.11545 0.0
H841 H 0.75717 0.3202 0.09769 0.0
C842 C 0.75928 0.34715 0.06068 0.0
O843 O 0.76818 0.42113 0.06782 0.0
O844 O 0.75856 0.39813 0.09399 0.0
N845 N 0.84653 0.3785 0.09392 0.0
C846 C 0.87051 0.39803 0.08796 0.0
C847 C 0.89348 0.4061 0.09933 0.0
C848 C 0.89161 0.39381 0.11657 0.0
C849 C 0.86675 0.37361 0.12233 0.0
C850 C 0.84454 0.36646 0.11045 0.0
H851 H 0.87211 0.40745 0.07467 0.0
O852 O 0.81461 0.42997 0.09376 0.0
O853 O 0.80423 0.38828 0.09182 0.0
O854 O 0.8143 0.41238 0.0559 0.0
O855 O 0.82818 0.38291 0.05805 0.0
C856 C 0.86309 0.36041 0.13945 0.0
C857 C 0.8373 0.3411 0.14474 0.0
H858 H 0.78461 0.30579 0.15046 0.0
H859 H 0.74757 0.29676 0.12797 0.0
H860 H 0.91259 0.42174 0.0948 0.0
H861 H 0.90937 0.40011 0.12531 0.0
H862 H 0.87998 0.36502 0.1487 0.0
H863 H 0.83471 0.33146 0.15812 0.0
Mn864 Mn 0.4042 0.80062 0.23797 0.0
Mn865 Mn 0.4699 0.82571 0.24663 0.0
C866 C 0.42594 0.83438 0.25997 0.0
C867 C 0.36051 0.76814 0.24346 0.0
C868 C 0.44734 0.83799 0.21176 0.0
O869 O 0.412 0.77345 0.2263 0.0
O870 O 0.45471 0.78933 0.2358 0.0
C871 C 0.46737 0.79039 0.277 0.0
N872 N 0.47556 0.81514 0.27084 0.0
C873 C 0.49781 0.83449 0.30059 0.0
C874 C 0.48977 0.80922 0.30722 0.0
C875 C 0.47439 0.78708 0.2954 0.0
C876 C 0.49013 0.83656 0.28216 0.0
H877 H 0.45556 0.77332 0.26796 0.0
C878 C 0.43295 0.77155 0.22783 0.0
O879 O 0.36689 0.78088 0.22777 0.0
O880 O 0.37948 0.77438 0.25592 0.0
N881 N 0.48692 0.86062 0.25741 0.0
C882 C 0.49145 0.88343 0.24934 0.0
C883 C 0.50578 0.90734 0.25957 0.0
C884 C 0.51558 0.9076 0.27786 0.0
C885 C 0.51078 0.88389 0.28582 0.0
C886 C 0.49627 0.86066 0.27501 0.0
H887 H 0.48412 0.88337 0.23524 0.0
O888 O 0.40321 0.82942 0.25256 0.0
O889 O 0.43481 0.81895 0.25457 0.0
O890 O 0.42298 0.82564 0.21647 0.0
O891 O 0.4662 0.83825 0.22154 0.0
C892 C 0.51966 0.88237 0.30412 0.0
C893 C 0.51294 0.85768 0.31159 0.0
H894 H 0.49513 0.80659 0.3214 0.0
H895 H 0.46799 0.7675 0.30045 0.0
H896 H 0.50933 0.92555 0.25335 0.0
H897 H 0.52663 0.92609 0.2857 0.0
H898 H 0.53152 0.90008 0.31263 0.0
H899 H 0.5194 0.85674 0.32583 0.0
C900 C 0.2071 0.66402 0.26264 0.0
C901 C 0.20325 0.63839 0.26275 0.0
C902 C 0.23248 0.6859 0.25999 0.0
C903 C 0.25436 0.68201 0.25679 0.0
C904 C 0.25053 0.65619 0.2566 0.0
C905 C 0.22505 0.63472 0.25963 0.0
C906 C 0.23586 0.71317 0.26048 0.0
C907 C 0.27328 0.65121 0.2529 0.0
C908 C 0.3146 0.73506 0.23186 0.0
C909 C 0.333 0.74692 0.24691 0.0
C910 C 0.28885 0.71396 0.23488 0.0
C911 C 0.28124 0.70489 0.25344 0.0
C912 C 0.29956 0.71724 0.26873 0.0
C913 C 0.32532 0.73796 0.26526 0.0
C914 C 0.26999 0.70101 0.21818 0.0
C915 C 0.29202 0.7084 0.28875 0.0
H916 H 0.19024 0.66698 0.26456 0.0
H917 H 0.22199 0.6149 0.25927 0.0
H918 H 0.25142 0.72578 0.27117 0.0
H919 H 0.24268 0.72249 0.24661 0.0
H920 H 0.21706 0.71291 0.26388 0.0
H921 H 0.26693 0.62992 0.25313 0.0
H922 H 0.28182 0.65895 0.23894 0.0
H923 H 0.28944 0.66181 0.26367 0.0
H924 H 0.32053 0.74185 0.21764 0.0
H925 H 0.33945 0.7472 0.27695 0.0
H926 H 0.25134 0.7016 0.22023 0.0
H927 H 0.2644 0.67996 0.21699 0.0
H928 H 0.27886 0.71065 0.20469 0.0
H929 H 0.27375 0.70895 0.29245 0.0
H930 H 0.30816 0.72088 0.29915 0.0
H931 H 0.28744 0.68772 0.29002 0.0
C932 C 0.62358 0.22587 0.44515 0.0
C933 C 0.60467 0.21177 0.45882 0.0
C934 C 0.62476 0.24802 0.43685 0.0
C935 C 0.60646 0.2561 0.44227 0.0
C936 C 0.58649 0.24116 0.45537 0.0
C937 C 0.58595 0.21926 0.46358 0.0
C938 C 0.64645 0.26352 0.42302 0.0
C939 C 0.56648 0.24902 0.46139 0.0
C940 C 0.62898 0.32885 0.44074 0.0
C941 C 0.6162 0.33024 0.42421 0.0
C942 C 0.62611 0.30487 0.44663 0.0
C943 C 0.60989 0.28161 0.43578 0.0
C944 C 0.59695 0.28283 0.41904 0.0
C945 C 0.60034 0.30721 0.41339 0.0
C946 C 0.64041 0.30444 0.46451 0.0
C947 C 0.57937 0.25838 0.40721 0.0
H948 H 0.63804 0.22006 0.44144 0.0
H949 H 0.57128 0.20838 0.47412 0.0
H950 H 0.63788 0.26709 0.41006 0.0
H951 H 0.66084 0.28306 0.42941 0.0
H952 H 0.65751 0.25331 0.419 0.0
H953 H 0.55057 0.23382 0.4701 0.0
H954 H 0.5768 0.26776 0.46975 0.0
H955 H 0.55705 0.25249 0.44884 0.0
H956 H 0.64136 0.34658 0.44914 0.0
H957 H 0.59039 0.30818 0.40061 0.0
H958 H 0.6536 0.29625 0.46143 0.0
H959 H 0.62571 0.29144 0.47489 0.0
H960 H 0.65268 0.32437 0.47111 0.0
H961 H 0.59094 0.24895 0.40262 0.0
H962 H 0.57089 0.26268 0.3945 0.0
H963 H 0.56273 0.24386 0.41577 0.0
C964 C 0.41022 0.6206 0.59894 0.0
C965 C 0.41261 0.61118 0.61652 0.0
C966 C 0.38551 0.61659 0.59224 0.0
C967 C 0.36271 0.60303 0.60347 0.0
C968 C 0.36488 0.59289 0.62101 0.0
C969 C 0.38984 0.59718 0.62736 0.0
C970 C 0.384 0.62771 0.57346 0.0
C971 C 0.34104 0.57836 0.63341 0.0
C972 C 0.30765 0.61961 0.59678 0.0
C973 C 0.28874 0.59812 0.58571 0.0
C974 C 0.33165 0.62128 0.60275 0.0
C975 C 0.33703 0.60106 0.59748 0.0
C976 C 0.31803 0.57922 0.58642 0.0
C977 C 0.29407 0.57797 0.58071 0.0
C978 C 0.35135 0.64483 0.61463 0.0
C979 C 0.32314 0.55734 0.58047 0.0
H980 H 0.42787 0.63173 0.59066 0.0
H981 H 0.3917 0.59015 0.64105 0.0
H982 H 0.36788 0.6122 0.56438 0.0
H983 H 0.37906 0.64354 0.57569 0.0
H984 H 0.40307 0.63602 0.56583 0.0
H985 H 0.34565 0.57009 0.64598 0.0
H986 H 0.33416 0.59198 0.6383 0.0
H987 H 0.32426 0.56206 0.62528 0.0
H988 H 0.30375 0.63526 0.60079 0.0
H989 H 0.2797 0.56134 0.57208 0.0
H990 H 0.37053 0.65565 0.60723 0.0
H991 H 0.35555 0.63822 0.6282 0.0
H992 H 0.34399 0.6587 0.61773 0.0
H993 H 0.34136 0.56543 0.57191 0.0
H994 H 0.30621 0.54156 0.57205 0.0
H995 H 0.32676 0.54847 0.59309 0.0
C996 C 0.79947 0.42241 0.77379 0.0
C997 C 0.81088 0.42426 0.79174 0.0
C998 C 0.77944 0.39807 0.7663 0.0
C999 C 0.77044 0.37513 0.77711 0.0
C1000 C 0.78215 0.37684 0.79513 0.0
C1001 C 0.80217 0.40141 0.80225 0.0
C1002 C 0.76743 0.39701 0.74702 0.0
C1003 C 0.77301 0.35284 0.80712 0.0
C1004 C 0.70034 0.3181 0.76751 0.0
C1005 C 0.70519 0.30045 0.75709 0.0
C1006 C 0.7214 0.34248 0.77404 0.0
C1007 C 0.74798 0.34952 0.76996 0.0
C1008 C 0.75305 0.33196 0.75931 0.0
C1009 C 0.73162 0.30761 0.75306 0.0
C1010 C 0.7152 0.36063 0.78546 0.0
C1011 C 0.78114 0.33889 0.75458 0.0
H1012 H 0.80588 0.44013 0.76577 0.0
H1013 H 0.81071 0.40288 0.81623 0.0
H1014 H 0.76849 0.38211 0.73784 0.0
H1015 H 0.74604 0.39088 0.74832 0.0
H1016 H 0.77767 0.41634 0.74 0.0
H1017 H 0.78495 0.35732 0.82046 0.0
H1018 H 0.75176 0.34477 0.81067 0.0
H1019 H 0.77444 0.33719 0.79915 0.0
H1020 H 0.68004 0.3128 0.77075 0.0
H1021 H 0.73561 0.29423 0.74491 0.0
H1022 H 0.7233 0.3799 0.77849 0.0
H1023 H 0.72498 0.36446 0.79963 0.0
H1024 H 0.69343 0.35232 0.78726 0.0
H1025 H 0.79098 0.35762 0.74683 0.0
H1026 H 0.78168 0.3233 0.74584 0.0
H1027 H 0.79302 0.34201 0.76776 0.0
C1028 C 0.45215 0.82499 0.9383 0.0
C1029 C 0.42992 0.82857 0.93724 0.0
C1030 C 0.44918 0.79978 0.93658 0.0
C1031 C 0.42351 0.7777 0.93307 0.0
C1032 C 0.40097 0.78109 0.93226 0.0
C1033 C 0.40445 0.80646 0.93446 0.0
C1034 C 0.47367 0.79693 0.93778 0.0
C1035 C 0.37334 0.75813 0.92811 0.0
C1036 C 0.42134 0.72101 0.90518 0.0
C1037 C 0.41598 0.70245 0.91918 0.0
C1038 C 0.42342 0.74537 0.90951 0.0
C1039 C 0.4206 0.75156 0.92841 0.0
C1040 C 0.4153 0.73296 0.94266 0.0
C1041 C 0.41276 0.70844 0.93783 0.0
C1042 C 0.4286 0.76446 0.89383 0.0
C1043 C 0.41266 0.7391 0.963 0.0
H1044 H 0.47198 0.84195 0.94007 0.0
H1045 H 0.38731 0.80921 0.93331 0.0
H1046 H 0.47038 0.78093 0.94748 0.0
H1047 H 0.47768 0.79146 0.92366 0.0
H1048 H 0.49163 0.81543 0.94277 0.0
H1049 H 0.35771 0.76375 0.9293 0.0
H1050 H 0.37238 0.75035 0.91358 0.0
H1051 H 0.36877 0.74189 0.93791 0.0
H1052 H 0.42362 0.71638 0.8907 0.0
H1053 H 0.40871 0.69415 0.9487 0.0
H1054 H 0.44783 0.78289 0.89658 0.0
H1055 H 0.41274 0.76981 0.89332 0.0
H1056 H 0.42935 0.75622 0.87979 0.0
H1057 H 0.43127 0.75689 0.96802 0.0
H1058 H 0.40863 0.72255 0.9724 0.0
H1059 H 0.39625 0.74357 0.96426 0.0
C1060 C 0.6551 0.46722 0.10613 0.0
C1061 C 0.62841 0.44785 0.1024 0.0
C1062 C 0.67581 0.4616 0.10393 0.0
C1063 C 0.66979 0.43631 0.09724 0.0
C1064 C 0.64297 0.41675 0.09332 0.0
C1065 C 0.62262 0.42274 0.09604 0.0
C1066 C 0.70416 0.48284 0.10848 0.0
C1067 C 0.63581 0.38973 0.08579 0.0
C1068 C 0.72432 0.43026 0.07258 0.0
C1069 C 0.73246 0.41888 0.08654 0.0
C1070 C 0.70392 0.43601 0.07589 0.0
C1071 C 0.69163 0.43056 0.09367 0.0
C1072 C 0.69997 0.41933 0.10789 0.0
C1073 C 0.72019 0.41345 0.10411 0.0
C1074 C 0.69532 0.44766 0.06028 0.0
C1075 C 0.68755 0.41355 0.1271 0.0
H1076 H 0.65987 0.48686 0.11064 0.0
H1077 H 0.60208 0.40792 0.09279 0.0
H1078 H 0.71363 0.47546 0.11855 0.0
H1079 H 0.716 0.48823 0.09546 0.0
H1080 H 0.70531 0.50089 0.11469 0.0
H1081 H 0.61394 0.37662 0.08374 0.0
H1082 H 0.64548 0.3915 0.07205 0.0
H1083 H 0.64339 0.38026 0.09562 0.0
H1084 H 0.73367 0.43441 0.05895 0.0
H1085 H 0.7265 0.40476 0.11498 0.0
H1086 H 0.69794 0.46695 0.06501 0.0
H1087 H 0.67382 0.43454 0.05681 0.0
H1088 H 0.70681 0.45058 0.04723 0.0
H1089 H 0.68965 0.43182 0.13364 0.0
H1090 H 0.69677 0.40544 0.13677 0.0
H1091 H 0.66589 0.39918 0.12565 0.0
C1092 C 0.37474 0.82067 0.54703 0.0
C1093 C 0.40078 0.82473 0.5481 0.0
C1094 C 0.35254 0.79554 0.54938 0.0
C1095 C 0.35647 0.77414 0.55347 0.0
C1096 C 0.38267 0.77819 0.5549 0.0
C1097 C 0.40449 0.80342 0.55214 0.0
C1098 C 0.32488 0.79192 0.54756 0.0
C1099 C 0.38767 0.75595 0.55959 0.0
C1100 C 0.30092 0.71473 0.5773 0.0
C1101 C 0.28984 0.69652 0.56218 0.0
C1102 C 0.32259 0.74012 0.57466 0.0
C1103 C 0.33317 0.74752 0.55642 0.0
C1104 C 0.32173 0.72937 0.54104 0.0
C1105 C 0.30031 0.70402 0.54413 0.0
C1106 C 0.33447 0.75885 0.59145 0.0
C1107 C 0.33225 0.73667 0.52135 0.0
H1108 H 0.37169 0.83715 0.54441 0.0
H1109 H 0.4246 0.80664 0.5534 0.0
H1110 H 0.313 0.77647 0.53668 0.0
H1111 H 0.31443 0.78516 0.5611 0.0
H1112 H 0.32522 0.81038 0.54366 0.0
H1113 H 0.40927 0.76242 0.56031 0.0
H1114 H 0.37885 0.74761 0.57338 0.0
H1115 H 0.37783 0.73985 0.54881 0.0
H1116 H 0.29298 0.70899 0.5913 0.0
H1117 H 0.29175 0.69005 0.53237 0.0
H1118 H 0.33385 0.77716 0.58886 0.0
H1119 H 0.35573 0.76456 0.59352 0.0
H1120 H 0.32381 0.75011 0.60467 0.0
H1121 H 0.33178 0.75455 0.51699 0.0
H1122 H 0.32057 0.72057 0.51081 0.0
H1123 H 0.35336 0.74145 0.52112 0.0
C1124 C 0.61176 0.40397 0.71267 0.0
C1125 C 0.5866 0.40113 0.70891 0.0
C1126 C 0.61471 0.38201 0.71595 0.0
C1127 C 0.59193 0.35648 0.71529 0.0
C1128 C 0.56649 0.35337 0.71124 0.0
C1129 C 0.56405 0.37576 0.7084 0.0
C1130 C 0.64212 0.3862 0.72057 0.0
C1131 C 0.5418 0.32643 0.71016 0.0
C1132 C 0.60568 0.29988 0.70931 0.0
C1133 C 0.60406 0.29148 0.72793 0.0
C1134 C 0.60087 0.32043 0.70487 0.0
C1135 C 0.59477 0.33317 0.71946 0.0
C1136 C 0.59265 0.32445 0.73823 0.0
C1137 C 0.5971 0.30355 0.74221 0.0
C1138 C 0.60285 0.32887 0.68464 0.0
C1139 C 0.58657 0.33778 0.75422 0.0
H1140 H 0.62913 0.42357 0.71344 0.0
H1141 H 0.54445 0.37337 0.70593 0.0
H1142 H 0.6423 0.37852 0.73477 0.0
H1143 H 0.64727 0.37508 0.71031 0.0
H1144 H 0.65781 0.40731 0.72038 0.0
H1145 H 0.52378 0.32726 0.70568 0.0
H1146 H 0.54466 0.31347 0.70006 0.0
H1147 H 0.53821 0.31716 0.72417 0.0
H1148 H 0.6109 0.2905 0.6982 0.0
H1149 H 0.59594 0.2972 0.75664 0.0
H1150 H 0.61979 0.34924 0.68335 0.0
H1151 H 0.58447 0.32903 0.6802 0.0
H1152 H 0.60584 0.31573 0.67478 0.0
H1153 H 0.60265 0.35868 0.75568 0.0
H1154 H 0.58477 0.32808 0.76792 0.0
H1155 H 0.56771 0.33771 0.75114 0.0
C1156 C 0.21069 0.58545 0.8587 0.0
C1157 C 0.20362 0.59749 0.87304 0.0
C1158 C 0.23585 0.58735 0.85875 0.0
C1159 C 0.25457 0.60181 0.87342 0.0
C1160 C 0.24835 0.61542 0.88722 0.0
C1161 C 0.22323 0.61352 0.88667 0.0
C1162 C 0.2421 0.57323 0.84344 0.0
C1163 C 0.26784 0.63115 0.90309 0.0
C1164 C 0.30387 0.58113 0.88954 0.0
C1165 C 0.32813 0.60198 0.88344 0.0
C1166 C 0.27975 0.58057 0.88596 0.0
C1167 C 0.2797 0.6009 0.87544 0.0
C1168 C 0.30388 0.62116 0.86822 0.0
C1169 C 0.32793 0.62173 0.87259 0.0
C1170 C 0.25451 0.55892 0.89428 0.0
C1171 C 0.3045 0.64269 0.8564 0.0
H1172 H 0.1963 0.57407 0.84755 0.0
H1173 H 0.21902 0.62421 0.89732 0.0
H1174 H 0.26179 0.58669 0.83737 0.0
H1175 H 0.24329 0.55651 0.84955 0.0
H1176 H 0.22672 0.56543 0.8319 0.0
H1177 H 0.26038 0.64143 0.9123 0.0
H1178 H 0.27169 0.61784 0.91191 0.0
H1179 H 0.2872 0.64604 0.89733 0.0
H1180 H 0.30378 0.56577 0.89792 0.0
H1181 H 0.34659 0.63776 0.86768 0.0
H1182 H 0.23906 0.54852 0.88303 0.0
H1183 H 0.24646 0.5676 0.90445 0.0
H1184 H 0.25787 0.54425 0.90175 0.0
H1185 H 0.28834 0.63423 0.84543 0.0
H1186 H 0.32392 0.65437 0.8494 0.0
H1187 H 0.30111 0.65623 0.86548 0.0
C1188 C 0.61372 0.23056 0.0326 0.0
C1189 C 0.61192 0.21984 0.01445 0.0
C1190 C 0.63829 0.25028 0.04022 0.0
C1191 C 0.6615 0.25983 0.02931 0.0
C1192 C 0.65985 0.24887 0.01108 0.0
C1193 C 0.63505 0.22903 0.00387 0.0
C1194 C 0.63929 0.26142 0.05975 0.0
C1195 C 0.6841 0.25867 0.99896 0.0
C1196 C 0.7173 0.32939 0.04096 0.0
C1197 C 0.73511 0.32481 0.05165 0.0
C1198 C 0.69352 0.30841 0.03334 0.0
C1199 C 0.68724 0.28217 0.03661 0.0
C1200 C 0.70525 0.27736 0.04714 0.0
C1201 C 0.72904 0.29873 0.05445 0.0
C1202 C 0.67493 0.31435 0.02201 0.0
C1203 C 0.69912 0.24964 0.05103 0.0
H1204 H 0.5958 0.22387 0.04068 0.0
H1205 H 0.6336 0.22109 0.98972 0.0
H1206 H 0.65469 0.2605 0.06866 0.0
H1207 H 0.64499 0.28247 0.05886 0.0
H1208 H 0.61982 0.2507 0.06685 0.0
H1209 H 0.6797 0.24718 0.98549 0.0
H1210 H 0.69172 0.27966 0.99564 0.0
H1211 H 0.70029 0.2576 0.00672 0.0
H1212 H 0.72183 0.34944 0.03863 0.0
H1213 H 0.74256 0.29493 0.06278 0.0
H1214 H 0.65554 0.3063 0.02914 0.0
H1215 H 0.67087 0.30462 0.00786 0.0
H1216 H 0.68319 0.33582 0.02019 0.0
H1217 H 0.68061 0.23934 0.05923 0.0
H1218 H 0.71552 0.24923 0.05906 0.0
H1219 H 0.69552 0.23837 0.03756 0.0
C1220 C 0.43407 0.65006 0.17578 0.0
C1221 C 0.41923 0.62672 0.18564 0.0
C1222 C 0.43794 0.67419 0.18292 0.0
C1223 C 0.42656 0.67496 0.20029 0.0
C1224 C 0.41203 0.65155 0.21052 0.0
C1225 C 0.40835 0.62766 0.203 0.0
C1226 C 0.45341 0.6987 0.17153 0.0
C1227 C 0.39965 0.6516 0.22913 0.0
C1228 C 0.45165 0.74117 0.22544 0.0
C1229 C 0.43176 0.74718 0.22044 0.0
C1230 C 0.45021 0.71771 0.21903 0.0
C1231 C 0.42852 0.69995 0.20721 0.0
C1232 C 0.40854 0.706 0.20196 0.0
C1233 C 0.41034 0.72945 0.20869 0.0
C1234 C 0.47177 0.71181 0.22504 0.0
C1235 C 0.3852 0.68765 0.18924 0.0
H1236 H 0.44213 0.6493 0.16222 0.0
H1237 H 0.39646 0.60957 0.21049 0.0
H1238 H 0.44003 0.70613 0.16691 0.0
H1239 H 0.46967 0.7145 0.18035 0.0
H1240 H 0.46224 0.69504 0.15884 0.0
H1241 H 0.39061 0.63213 0.23595 0.0
H1242 H 0.41488 0.66668 0.23895 0.0
H1243 H 0.3839 0.65686 0.22686 0.0
H1244 H 0.46819 0.75462 0.23461 0.0
H1245 H 0.39492 0.73392 0.20468 0.0
H1246 H 0.48145 0.70923 0.21243 0.0
H1247 H 0.46285 0.69304 0.23274 0.0
H1248 H 0.48732 0.72767 0.23428 0.0
H1249 H 0.39249 0.68443 0.17562 0.0
H1250 H 0.37153 0.6954 0.18629 0.0
H1251 H 0.37367 0.66816 0.19585 0.0
C1252 C 0.8084 0.41357 0.36986 0.0
C1253 C 0.81572 0.42139 0.35124 0.0
C1254 C 0.78847 0.41671 0.3785 0.0
C1255 C 0.77516 0.4274 0.36813 0.0
C1256 C 0.78289 0.43588 0.34949 0.0
C1257 C 0.80306 0.43274 0.34127 0.0
C1258 C 0.78089 0.40757 0.39845 0.0
C1259 C 0.76902 0.44714 0.33791 0.0
C1260 C 0.70382 0.40571 0.38088 0.0
C1261 C 0.70671 0.42781 0.39097 0.0
C1262 C 0.72594 0.40539 0.37342 0.0
C1263 C 0.7517 0.42764 0.37617 0.0
C1264 C 0.75486 0.44996 0.38641 0.0
C1265 C 0.73232 0.44983 0.39364 0.0
C1266 C 0.72171 0.38124 0.36248 0.0
C1267 C 0.78206 0.47396 0.38972 0.0
H1268 H 0.81778 0.40434 0.37751 0.0
H1269 H 0.80839 0.4384 0.32678 0.0
H1270 H 0.78055 0.42322 0.40721 0.0
H1271 H 0.76051 0.39013 0.39839 0.0
H1272 H 0.79486 0.40214 0.40519 0.0
H1273 H 0.77872 0.45461 0.32418 0.0
H1274 H 0.74795 0.4317 0.33509 0.0
H1275 H 0.7688 0.46348 0.34583 0.0
H1276 H 0.68416 0.38861 0.37867 0.0
H1277 H 0.73483 0.46695 0.40149 0.0
H1278 H 0.73327 0.37303 0.36927 0.0
H1279 H 0.72912 0.38667 0.34795 0.0
H1280 H 0.70038 0.36559 0.36158 0.0
H1281 H 0.7954 0.46836 0.39718 0.0
H1282 H 0.78119 0.48959 0.39819 0.0
H1283 H 0.79121 0.48222 0.376 0.0
C1284 C 0.10806 0.56356 0.45383 0.0
C1285 C 0.11466 0.58756 0.44548 0.0
C1286 C 0.11861 0.56278 0.47159 0.0
C1287 C 0.13658 0.58664 0.48119 0.0
C1288 C 0.1424 0.61096 0.47327 0.0
C1289 C 0.13106 0.61114 0.45569 0.0
C1290 C 0.11125 0.5363 0.47943 0.0
C1291 C 0.16136 0.6369 0.4831 0.0
C1292 C 0.15621 0.59317 0.53312 0.0
C1293 C 0.18153 0.59576 0.5322 0.0
C1294 C 0.14038 0.58819 0.5167 0.0
C1295 C 0.15057 0.58664 0.49898 0.0
C1296 C 0.17567 0.58804 0.49816 0.0
C1297 C 0.19098 0.59287 0.51479 0.0
C1298 C 0.11324 0.58566 0.51821 0.0
C1299 C 0.18695 0.58582 0.47961 0.0
H1300 H 0.09491 0.54526 0.44623 0.0
H1301 H 0.13573 0.62989 0.44986 0.0
H1302 H 0.12515 0.53017 0.47383 0.0
H1303 H 0.11252 0.5368 0.49506 0.0
H1304 H 0.09073 0.52112 0.47481 0.0
H1305 H 0.16331 0.65407 0.4753 0.0
H1306 H 0.15442 0.63749 0.49752 0.0
H1307 H 0.18141 0.63891 0.48461 0.0
H1308 H 0.14909 0.59566 0.54663 0.0
H1309 H 0.21089 0.59557 0.51408 0.0
H1310 H 0.09809 0.56778 0.51032 0.0
H1311 H 0.11348 0.60291 0.51174 0.0
H1312 H 0.10706 0.58451 0.5331 0.0
H1313 H 0.17237 0.56749 0.4719 0.0
H1314 H 0.20594 0.58564 0.48154 0.0
H1315 H 0.19066 0.60266 0.47066 0.0
C1316 C 0.56351 0.09324 0.63849 0.0
C1317 C 0.54282 0.09504 0.62939 0.0
C1318 C 0.57807 0.11026 0.65369 0.0
C1319 C 0.57185 0.12958 0.65989 0.0
C1320 C 0.55105 0.13152 0.65068 0.0
C1321 C 0.53671 0.11414 0.63564 0.0
C1322 C 0.60022 0.10759 0.66284 0.0
C1323 C 0.54359 0.1517 0.65692 0.0
C1324 C 0.58542 0.15905 0.7094 0.0
C1325 C 0.60641 0.18455 0.70646 0.0
C1326 C 0.57535 0.14018 0.69462 0.0
C1327 C 0.58612 0.14732 0.67641 0.0
C1328 C 0.60827 0.17272 0.67366 0.0
C1329 C 0.61795 0.19119 0.68871 0.0
C1330 C 0.55226 0.11305 0.69825 0.0
C1331 C 0.62074 0.18083 0.65459 0.0
H1332 H 0.56807 0.07827 0.63383 0.0
H1333 H 0.52044 0.11529 0.62885 0.0
H1334 H 0.59776 0.08778 0.66008 0.0
H1335 H 0.6194 0.12242 0.65683 0.0
H1336 H 0.60132 0.11117 0.6783 0.0
H1337 H 0.52739 0.15107 0.64794 0.0
H1338 H 0.53692 0.14822 0.67173 0.0
H1339 H 0.56125 0.17179 0.65647 0.0
H1340 H 0.57642 0.15411 0.72315 0.0
H1341 H 0.63379 0.21118 0.68639 0.0
H1342 H 0.5565 0.09777 0.69268 0.0
H1343 H 0.5341 0.11037 0.69074 0.0
H1344 H 0.54802 0.10979 0.71353 0.0
H1345 H 0.62545 0.16594 0.64889 0.0
H1346 H 0.63933 0.20033 0.65523 0.0
H1347 H 0.60639 0.18181 0.64456 0.0
C1348 C 0.511 0.59777 0.79653 0.0
C1349 C 0.50183 0.59812 0.77819 0.0
C1350 C 0.49678 0.59812 0.81231 0.0
C1351 C 0.473 0.59907 0.80962 0.0
C1352 C 0.46376 0.59962 0.79114 0.0
C1353 C 0.47826 0.59908 0.77565 0.0
C1354 C 0.50718 0.59746 0.83184 0.0
C1355 C 0.43858 0.60081 0.78772 0.0
C1356 C 0.42339 0.57732 0.84923 0.0
C1357 C 0.42928 0.60158 0.85753 0.0
C1358 C 0.43747 0.5762 0.83362 0.0
C1359 C 0.45792 0.59988 0.82615 0.0
C1360 C 0.46385 0.6244 0.83433 0.0
C1361 C 0.44946 0.62497 0.84989 0.0
C1362 C 0.43058 0.54968 0.8252 0.0
C1363 C 0.48553 0.65007 0.82671 0.0
H1364 H 0.52924 0.59708 0.79853 0.0
H1365 H 0.47114 0.59934 0.76147 0.0
H1366 H 0.51123 0.61535 0.84009 0.0
H1367 H 0.49189 0.5802 0.83945 0.0
H1368 H 0.52579 0.59638 0.83149 0.0
H1369 H 0.43411 0.60107 0.77245 0.0
H1370 H 0.4214 0.58357 0.79404 0.0
H1371 H 0.44047 0.61875 0.79469 0.0
H1372 H 0.40793 0.55913 0.85503 0.0
H1373 H 0.45426 0.64383 0.85617 0.0
H1374 H 0.44835 0.54718 0.82583 0.0
H1375 H 0.42469 0.5485 0.8101 0.0
H1376 H 0.41407 0.53311 0.83263 0.0
H1377 H 0.50492 0.65056 0.8274 0.0
H1378 H 0.48761 0.66749 0.83466 0.0
H1379 H 0.48118 0.65171 0.81165 0.0
C1380 C 0.90728 0.46972 0.95656 0.0
C1381 C 0.93493 0.48389 0.96017 0.0
C1382 C 0.88959 0.45424 0.9705 0.0
C1383 C 0.89969 0.45359 0.98867 0.0
C1384 C 0.92756 0.46764 0.99236 0.0
C1385 C 0.94482 0.48251 0.97804 0.0
C1386 C 0.86002 0.43928 0.96595 0.0
C1387 C 0.93909 0.46791 0.01167 0.0
C1388 C 0.85396 0.44119 0.0298 0.0
C1389 C 0.84608 0.41505 0.03419 0.0
C1390 C 0.87147 0.45391 0.0151 0.0
C1391 C 0.88103 0.44006 0.00425 0.0
C1392 C 0.87294 0.41357 0.00842 0.0
C1393 C 0.85576 0.40145 0.02348 0.0
C1394 C 0.87998 0.48233 0.01134 0.0
C1395 C 0.88239 0.39806 0.99693 0.0
H1396 H 0.89937 0.47106 0.94293 0.0
H1397 H 0.96613 0.49381 0.98097 0.0
H1398 H 0.8512 0.41848 0.97024 0.0
H1399 H 0.85001 0.44808 0.97404 0.0
H1400 H 0.8556 0.4396 0.95068 0.0
H1401 H 0.96124 0.47858 0.01193 0.0
H1402 H 0.93238 0.47758 0.02206 0.0
H1403 H 0.93175 0.44749 0.01636 0.0
H1404 H 0.84683 0.45196 0.03812 0.0
H1405 H 0.84969 0.38122 0.02675 0.0
H1406 H 0.87407 0.48416 0.99673 0.0
H1407 H 0.90202 0.49463 0.01256 0.0
H1408 H 0.87105 0.49041 0.02128 0.0
H1409 H 0.87687 0.39768 0.98182 0.0
H1410 H 0.87375 0.37745 0.00168 0.0
H1411 H 0.90445 0.40774 0.99793 0.0
C1412 C 0.47153 0.90106 0.10953 0.0
C1413 C 0.48977 0.92821 0.1103 0.0
C1414 C 0.4641 0.88617 0.12596 0.0
C1415 C 0.47498 0.89879 0.14365 0.0
C1416 C 0.49318 0.92625 0.14459 0.0
C1417 C 0.5007 0.94057 0.12788 0.0
C1418 C 0.44509 0.85683 0.12433 0.0
C1419 C 0.50493 0.94046 0.16323 0.0
C1420 C 0.43836 0.86344 0.18757 0.0
C1421 C 0.45425 0.85328 0.19424 0.0
C1422 C 0.44506 0.87857 0.17125 0.0
C1423 C 0.46783 0.88312 0.16113 0.0
C1424 C 0.48375 0.87263 0.16767 0.0
C1425 C 0.47695 0.8581 0.18428 0.0
C1426 C 0.42792 0.8899 0.16493 0.0
C1427 C 0.50786 0.87658 0.15705 0.0
H1428 H 0.4635 0.89139 0.09593 0.0
H1429 H 0.51528 0.96141 0.12859 0.0
H1430 H 0.45491 0.84611 0.12989 0.0
H1431 H 0.42732 0.85133 0.13299 0.0
H1432 H 0.43832 0.85007 0.10952 0.0
H1433 H 0.5176 0.96209 0.16165 0.0
H1434 H 0.48875 0.93663 0.17312 0.0
H1435 H 0.51723 0.93291 0.16979 0.0
H1436 H 0.42095 0.86001 0.19533 0.0
H1437 H 0.4892 0.85016 0.18933 0.0
H1438 H 0.41951 0.8823 0.15056 0.0
H1439 H 0.44027 0.91166 0.16417 0.0
H1440 H 0.41121 0.88501 0.1746 0.0
H1441 H 0.50191 0.86885 0.14234 0.0
H1442 H 0.51776 0.86658 0.16377 0.0
H1443 H 0.52258 0.89791 0.15627 0.0
C1444 C 0.57936 0.48829 0.29519 0.0
C1445 C 0.56668 0.46964 0.28045 0.0
C1446 C 0.5882 0.48181 0.31172 0.0
C1447 C 0.5851 0.45637 0.31329 0.0
C1448 C 0.57275 0.43762 0.29835 0.0
C1449 C 0.56358 0.44445 0.28215 0.0
C1450 C 0.60099 0.50222 0.32747 0.0
C1451 C 0.56967 0.41052 0.29932 0.0
C1452 C 0.63189 0.45054 0.34838 0.0
C1453 C 0.61499 0.43849 0.36344 0.0
C1454 C 0.62219 0.45571 0.33169 0.0
C1455 C 0.59523 0.44957 0.33044 0.0
C1456 C 0.57814 0.43749 0.34575 0.0
C1457 C 0.58817 0.43168 0.362 0.0
C1458 C 0.64079 0.46787 0.31546 0.0
C1459 C 0.54953 0.43139 0.34516 0.0
H1460 H 0.58246 0.50801 0.29381 0.0
H1461 H 0.55432 0.43022 0.2706 0.0
H1462 H 0.59053 0.49417 0.34086 0.0
H1463 H 0.62203 0.50727 0.32975 0.0
H1464 H 0.60065 0.5206 0.32444 0.0
H1465 H 0.55971 0.39828 0.28644 0.0
H1466 H 0.58956 0.41226 0.30115 0.0
H1467 H 0.55783 0.40011 0.31174 0.0
H1468 H 0.65266 0.45574 0.34964 0.0
H1469 H 0.57532 0.42268 0.37387 0.0
H1470 H 0.64369 0.48771 0.31275 0.0
H1471 H 0.63194 0.45571 0.30239 0.0
H1472 H 0.66062 0.46979 0.31825 0.0
H1473 H 0.54891 0.44983 0.34321 0.0
H1474 H 0.53891 0.42199 0.35826 0.0
H1475 H 0.53863 0.41808 0.33295 0.0
C1476 C 0.46895 0.91786 0.35802 0.0
C1477 C 0.44461 0.91119 0.36634 0.0
C1478 C 0.46982 0.9088 0.33978 0.0
C1479 C 0.44571 0.89229 0.32967 0.0
C1480 C 0.4211 0.88651 0.33761 0.0
C1481 C 0.42087 0.89647 0.35567 0.0
C1482 C 0.49662 0.91614 0.33189 0.0
C1483 C 0.39489 0.86907 0.32727 0.0
C1484 C 0.43935 0.8766 0.27714 0.0
C1485 C 0.43616 0.85132 0.27701 0.0
C1486 C 0.44461 0.89117 0.29412 0.0
C1487 C 0.4457 0.87968 0.31132 0.0
C1488 C 0.44372 0.8546 0.31107 0.0
C1489 C 0.43874 0.84062 0.29389 0.0
C1490 C 0.44789 0.91835 0.29376 0.0
C1491 C 0.44535 0.8419 0.32904 0.0
H1492 H 0.48742 0.92993 0.36595 0.0
H1493 H 0.40196 0.89205 0.36152 0.0
H1494 H 0.50199 0.90127 0.33628 0.0
H1495 H 0.49647 0.91674 0.31625 0.0
H1496 H 0.51237 0.93563 0.33757 0.0
H1497 H 0.37753 0.86686 0.33524 0.0
H1498 H 0.39476 0.87729 0.31328 0.0
H1499 H 0.39238 0.84922 0.32474 0.0
H1500 H 0.43713 0.8847 0.26402 0.0
H1501 H 0.43561 0.82077 0.29377 0.0
H1502 H 0.46587 0.93244 0.30219 0.0
H1503 H 0.43041 0.91803 0.30027 0.0
H1504 H 0.44972 0.92567 0.27917 0.0
H1505 H 0.46393 0.85545 0.33711 0.0
H1506 H 0.44506 0.82305 0.32628 0.0
H1507 H 0.42829 0.83797 0.33806 0.0
C1508 C 0.56174 0.46474 0.52067 0.0
C1509 C 0.5452 0.44103 0.52969 0.0
C1510 C 0.57338 0.46507 0.50338 0.0
C1511 C 0.56874 0.44107 0.49501 0.0
C1512 C 0.5513 0.41695 0.50365 0.0
C1513 C 0.53941 0.41717 0.5207 0.0
C1514 C 0.59139 0.49127 0.49466 0.0
C1515 C 0.54572 0.39086 0.49513 0.0
C1516 C 0.58042 0.43067 0.44399 0.0
C1517 C 0.60402 0.42972 0.44568 0.0
C1518 C 0.56981 0.43662 0.45973 0.0
C1519 C 0.58267 0.44076 0.47762 0.0
C1520 C 0.6073 0.44118 0.47913 0.0
C1521 C 0.61757 0.43539 0.46313 0.0
C1522 C 0.54415 0.43716 0.45743 0.0
C1523 C 0.62194 0.44611 0.49785 0.0
H1524 H 0.5659 0.48321 0.52734 0.0
H1525 H 0.52611 0.39856 0.52706 0.0
H1526 H 0.61208 0.49861 0.49996 0.0
H1527 H 0.59109 0.48969 0.47904 0.0
H1528 H 0.58565 0.5061 0.49873 0.0
H1529 H 0.53152 0.37385 0.50352 0.0
H1530 H 0.53735 0.38839 0.48058 0.0
H1531 H 0.56462 0.39043 0.49416 0.0
H1532 H 0.56991 0.426 0.43045 0.0
H1533 H 0.6355 0.43399 0.46444 0.0
H1534 H 0.54602 0.45502 0.46453 0.0
H1535 H 0.52777 0.41976 0.46423 0.0
H1536 H 0.53853 0.43692 0.44234 0.0
H1537 H 0.62469 0.4645 0.50464 0.0
H1538 H 0.64182 0.44784 0.49635 0.0
H1539 H 0.60993 0.42969 0.50743 0.0
C1540 C 0.13317 0.55283 0.6989 0.0
C1541 C 0.10549 0.53576 0.69764 0.0
C1542 C 0.14852 0.56147 0.68264 0.0
C1543 C 0.13585 0.55305 0.66464 0.0
C1544 C 0.10786 0.53618 0.66323 0.0
C1545 C 0.09306 0.52738 0.67974 0.0
C1546 C 0.17839 0.579 0.68474 0.0
C1547 C 0.09359 0.52708 0.64427 0.0
C1548 C 0.1732 0.59203 0.62201 0.0
C1549 C 0.18216 0.57583 0.61414 0.0
C1550 C 0.15796 0.58481 0.63838 0.0
C1551 C 0.15201 0.56107 0.6473 0.0
C1552 C 0.16137 0.54485 0.63961 0.0
C1553 C 0.17609 0.55229 0.62302 0.0
C1554 C 0.14791 0.60236 0.64598 0.0
C1555 C 0.15587 0.51964 0.64892 0.0
H1556 H 0.14287 0.55893 0.71271 0.0
H1557 H 0.07179 0.51375 0.6786 0.0
H1558 H 0.18849 0.56893 0.6785 0.0
H1559 H 0.185 0.59746 0.67694 0.0
H1560 H 0.18509 0.58418 0.69974 0.0
H1561 H 0.07158 0.51545 0.64558 0.0
H1562 H 0.09864 0.5443 0.63535 0.0
H1563 H 0.10026 0.51471 0.63679 0.0
H1564 H 0.1776 0.61013 0.61512 0.0
H1565 H 0.18309 0.53976 0.61708 0.0
H1566 H 0.15545 0.60887 0.66067 0.0
H1567 H 0.12581 0.59118 0.64638 0.0
H1568 H 0.15415 0.62008 0.63731 0.0
H1569 H 0.16342 0.52385 0.66377 0.0
H1570 H 0.1653 0.5097 0.64148 0.0
H1571 H 0.13406 0.50583 0.64924 0.0
C1572 C 0.61647 0.10498 0.85644 0.0
C1573 C 0.59646 0.10743 0.87581 0.0
C1574 C 0.62017 0.12512 0.8365 0.0
C1575 C 0.60977 0.14948 0.83766 0.0
C1576 C 0.59705 0.15599 0.85899 0.0
C1577 C 0.5925 0.13678 0.87971 0.0
C1578 C 0.63141 0.12115 0.81877 0.0
C1579 C 0.59093 0.17783 0.85968 0.0
C1580 C 0.64726 0.20163 0.80181 0.0
C1581 C 0.62725 0.19598 0.78821 0.0
C1582 C 0.64136 0.18756 0.8186 0.0
C1583 C 0.61514 0.16666 0.82138 0.0
C1584 C 0.59475 0.1612 0.80783 0.0
C1585 C 0.60098 0.17625 0.79147 0.0
C1586 C 0.66327 0.19491 0.83326 0.0
C1587 C 0.56673 0.1387 0.81019 0.0
H1588 H 0.62033 0.08876 0.85532 0.0
H1589 H 0.5832 0.13914 0.89214 0.0
H1590 H 0.62028 0.12248 0.80636 0.0
H1591 H 0.65253 0.13693 0.8178 0.0
H1592 H 0.63048 0.10178 0.81873 0.0
H1593 H 0.58784 0.18207 0.87445 0.0
H1594 H 0.60744 0.19569 0.8534 0.0
H1595 H 0.57256 0.17204 0.85112 0.0
H1596 H 0.66752 0.21709 0.7993 0.0
H1597 H 0.58559 0.17179 0.78081 0.0
H1598 H 0.66854 0.17917 0.83391 0.0
H1599 H 0.65629 0.19674 0.84742 0.0
H1600 H 0.68154 0.21375 0.8301 0.0
H1601 H 0.56687 0.11982 0.81008 0.0
H1602 H 0.55288 0.13776 0.79879 0.0
H1603 H 0.55904 0.14066 0.824 0.0
C1604 C 0.45808 0.54257 0.00612 0.0
C1605 C 0.46399 0.55765 0.02283 0.0
C1606 C 0.45558 0.55247 0.98881 0.0
C1607 C 0.45833 0.57785 0.98825 0.0
C1608 C 0.46634 0.59395 0.00485 0.0
C1609 C 0.46897 0.58362 0.02199 0.0
C1610 C 0.44819 0.53472 0.97157 0.0
C1611 C 0.4707 0.62158 0.00474 0.0
C1612 C 0.45822 0.60801 0.94101 0.0
C1613 C 0.43212 0.60362 0.94002 0.0
C1614 C 0.4671 0.59949 0.95652 0.0
C1615 C 0.44933 0.58615 0.97123 0.0
C1616 C 0.42286 0.58148 0.97012 0.0
C1617 C 0.41482 0.59087 0.95475 0.0
C1618 C 0.49557 0.60523 0.95737 0.0
C1619 C 0.40314 0.56694 0.98535 0.0
H1620 H 0.45439 0.52254 0.00665 0.0
H1621 H 0.47378 0.59543 0.03488 0.0
H1622 H 0.45341 0.54575 0.95828 0.0
H1623 H 0.45822 0.52278 0.97204 0.0
H1624 H 0.42643 0.52084 0.97152 0.0
H1625 H 0.48085 0.63285 0.01793 0.0
H1626 H 0.48282 0.63242 0.99252 0.0
H1627 H 0.4512 0.62075 0.00328 0.0
H1628 H 0.4718 0.61849 0.92979 0.0
H1629 H 0.39515 0.58879 0.95447 0.0
H1630 H 0.49597 0.58655 0.95834 0.0
H1631 H 0.50585 0.61724 0.97025 0.0
H1632 H 0.50691 0.61594 0.94483 0.0
H1633 H 0.40132 0.54735 0.98727 0.0
H1634 H 0.38306 0.56411 0.98202 0.0
H1635 H 0.41033 0.57798 0.99899 0.0
C1636 C 0.87791 0.4793 0.20437 0.0
C1637 C 0.90291 0.4717 0.21468 0.0
C1638 C 0.8658 0.46551 0.18105 0.0
C1639 C 0.87377 0.44194 0.17082 0.0
C1640 C 0.89232 0.42974 0.18383 0.0
C1641 C 0.90524 0.44228 0.2073 0.0
C1642 C 0.84885 0.47349 0.17019 0.0
C1643 C 0.89767 0.40971 0.17506 0.0
C1644 C 0.82372 0.40096 0.13251 0.0
C1645 C 0.83539 0.41621 0.11668 0.0
C1646 C 0.83704 0.40803 0.15015 0.0
C1647 C 0.86245 0.43095 0.1519 0.0
C1648 C 0.87492 0.44549 0.1357 0.0
C1649 C 0.861 0.43821 0.11829 0.0
C1650 C 0.82315 0.39197 0.16709 0.0
C1651 C 0.90246 0.46937 0.13689 0.0
H1652 H 0.8752 0.49503 0.21 0.0
H1653 H 0.91818 0.43678 0.21464 0.0
H1654 H 0.85927 0.48353 0.15721 0.0
H1655 H 0.8299 0.45565 0.16574 0.0
H1656 H 0.84469 0.48688 0.17884 0.0
H1657 H 0.91601 0.41123 0.18143 0.0
H1658 H 0.88067 0.38982 0.17775 0.0
H1659 H 0.89971 0.41248 0.1596 0.0
H1660 H 0.80361 0.38428 0.13129 0.0
H1661 H 0.86985 0.45007 0.106 0.0
H1662 H 0.81857 0.40398 0.17695 0.0
H1663 H 0.83645 0.3865 0.17475 0.0
H1664 H 0.80428 0.37367 0.16312 0.0
H1665 H 0.90152 0.48585 0.144 0.0
H1666 H 0.91101 0.47583 0.12272 0.0
H1667 H 0.91603 0.46507 0.1454 0.0
loop_
_geom_bond_atom_site_label_1
_geom_bond_atom_site_label_2
_geom_bond_distance
_geom_bond_site_symmetry_2
_ccdc_geom_bond_type
C0 C1 1.560 . S
C0 H61 0.959 . S
C0 H62 0.959 . S
C0 H63 0.960 . S
C1 C0 1.560 . S
C1 O56 1.426 . S
C1 H60 0.980 . S
C2 C3 1.407 . S
C2 C7 1.418 . S
C2 O56 1.334 . S
C3 C2 1.407 . S
C3 C4 1.360 . S
C3 H64 0.929 . S
C4 C3 1.360 . S
C4 C5 1.401 . S
C4 C8 1.527 . S
C5 C4 1.401 . S
C5 C6 1.405 . S
C5 C38 1.587 . S
C6 C5 1.405 . S
C6 C7 1.332 . S
C6 C9 1.496 . S
C7 C2 1.418 . S
C7 C6 1.332 . S
C7 H65 0.929 . S
C8 C4 1.527 . S
C8 H66 0.959 . S
C8 H67 0.961 . S
C8 H68 0.961 . S
C9 C6 1.496 . S
C9 H69 0.960 . S
C9 H70 0.960 . S
C9 H71 0.961 . S
C10 C11 1.517 . S
C10 H73 0.961 . S
C10 H74 0.960 . S
C10 H75 0.959 . S
C11 C10 1.517 . S
C11 O59 1.468 . S
C11 H72 0.980 . S
C12 C13 1.349 . S
C12 C17 1.367 . S
C12 O59 1.408 . S
C13 C12 1.349 . S
C13 C14 1.407 . S
C13 H76 0.930 . S
C14 C13 1.407 . S
C14 C15 1.449 . S
C14 C18 1.535 . S
C15 C14 1.449 . S
C15 C16 1.384 . S
C15 C40 1.553 1_655 S
C16 C15 1.384 . S
C16 C17 1.364 . S
C16 C19 1.450 . S
C17 C12 1.367 . S
C17 C16 1.364 . S
C17 H77 0.931 . S
C18 C14 1.535 . S
C18 H78 0.959 1_655 S
C18 H79 0.962 . S
C18 H80 0.959 . S
C19 C16 1.450 . S
C19 H81 0.960 . S
C19 H82 0.960 1_655 S
C19 H83 0.960 . S
C20 C21 1.309 . S
C20 C25 1.304 . S
C20 O58 1.435 . S
C21 C20 1.309 . S
C21 C22 1.476 . S
C21 H85 0.930 . S
C22 C21 1.476 . S
C22 C23 1.400 . S
C22 C26 1.567 . S
C23 C22 1.400 . S
C23 C24 1.373 . S
C23 C45 1.432 . S
C24 C23 1.373 . S
C24 C25 1.339 . S
C24 C27 1.530 . S
C25 C20 1.304 . S
C25 C24 1.339 . S
C25 H86 0.930 . S
C26 C22 1.567 . S
C26 H87 0.961 . S
C26 H88 0.960 . S
C26 H89 0.958 . S
C27 C24 1.530 . S
C27 H90 0.961 . S
C27 H91 0.960 . S
C27 H92 0.960 . S
C28 C29 1.530 . S
C28 H94 0.961 . S
C28 H95 0.961 . S
C28 H96 0.959 . S
C29 C28 1.530 . S
C29 O57 1.412 . S
C29 H93 0.980 . S
C30 C31 1.288 . S
C30 C35 1.377 . S
C30 O57 1.393 . S
C31 C30 1.288 . S
C31 C32 1.369 . S
C31 H97 0.932 . S
C32 C31 1.369 . S
C32 C33 1.398 . S
C32 C36 1.527 . S
C33 C32 1.398 . S
C33 C34 1.380 . S
C33 C47 1.497 . S
C34 C33 1.380 . S
C34 C35 1.383 . S
C34 C37 1.603 . S
C35 C30 1.377 . S
C35 C34 1.383 . S
C35 H98 0.929 . S
C36 C32 1.527 . S
C36 H99 0.961 . S
C36 H100 0.959 1_455 S
C36 H101 0.959 . S
C37 C34 1.603 . S
C37 H102 0.960 . S
C37 H103 0.962 . S
C37 H104 0.961 . S
C38 C5 1.587 . S
C38 C39 1.360 . S
C38 C51 1.412 . S
C39 C38 1.360 . S
C39 C40 1.365 . S
C39 H105 0.929 . S
C40 C15 1.553 1_455 S
C40 C39 1.365 . S
C40 C41 1.404 1_455 S
C41 C40 1.404 1_655 S
C41 C42 1.397 . S
C41 C52 1.450 1_655 S
C42 C41 1.397 . S
C42 C43 1.322 . S
C42 H106 0.930 . S
C43 C42 1.322 . S
C43 C44 1.459 . S
C43 H107 0.929 . S
C44 C43 1.459 . S
C44 C45 1.445 . S
C44 C53 1.395 1_655 S
C45 C23 1.432 . S
C45 C44 1.445 . S
C45 C46 1.370 . S
C46 C45 1.370 . S
C46 C47 1.438 1_655 S
C46 H108 0.930 . S
C47 C33 1.497 . S
C47 C46 1.438 1_455 S
C47 C48 1.360 . S
C48 C47 1.360 . S
C48 C49 1.401 . S
C48 C53 1.446 . S
C49 C48 1.401 . S
C49 C50 1.347 . S
C49 H109 0.929 . S
C50 C49 1.347 . S
C50 C51 1.455 . S
C50 H110 0.930 . S
C51 C38 1.412 . S
C51 C50 1.455 . S
C51 C52 1.331 . S
C52 C41 1.450 1_455 S
C52 C51 1.331 . S
C52 C53 1.497 . S
C53 C44 1.395 1_455 S
C53 C48 1.446 . S
C53 C52 1.497 . S
C54 C55 1.582 . S
C54 H111 0.962 . S
C54 H112 0.959 . S
C54 H113 0.958 . S
C55 C54 1.582 . S
C55 O58 1.458 . S
C55 H84 0.980 . S
O56 C1 1.426 . S
O56 C2 1.334 . S
O57 C29 1.412 . S
O57 C30 1.393 . S
O58 C20 1.435 . S
O58 C55 1.458 . S
O59 C11 1.468 . S
O59 C12 1.408 . S
H60 C1 0.980 . S
H61 C0 0.959 . S
H62 C0 0.959 . S
H63 C0 0.960 . S
H64 C3 0.929 . S
H65 C7 0.929 . S
H66 C8 0.959 . S
H67 C8 0.961 . S
H68 C8 0.961 . S
H69 C9 0.960 . S
H70 C9 0.960 . S
H71 C9 0.961 . S
H72 C11 0.980 . S
H73 C10 0.961 . S
H74 C10 0.960 . S
H75 C10 0.959 . S
H76 C13 0.930 . S
H77 C17 0.931 . S
H78 C18 0.959 1_455 S
H79 C18 0.962 . S
H80 C18 0.959 . S
H81 C19 0.960 . S
H82 C19 0.960 1_455 S
H83 C19 0.960 . S
H84 C55 0.980 . S
H85 C21 0.930 . S
H86 C25 0.930 . S
H87 C26 0.961 . S
H88 C26 0.960 . S
H89 C26 0.958 . S
H90 C27 0.961 . S
H91 C27 0.960 . S
H92 C27 0.960 . S
H93 C29 0.980 . S
H94 C28 0.961 . S
H95 C28 0.961 . S
H96 C28 0.959 . S
H97 C31 0.932 . S
H98 C35 0.929 . S
H99 C36 0.961 . S
H100 C36 0.959 1_655 S
H101 C36 0.959 . S
H102 C37 0.960 . S
H103 C37 0.962 . S
H104 C37 0.961 . S
H105 C39 0.929 . S
H106 C42 0.930 . S
H107 C43 0.929 . S
H108 C46 0.930 . S
H109 C49 0.929 . S
H110 C50 0.930 . S
H111 C54 0.962 . S
H112 C54 0.959 . S
H113 C54 0.958 . S
C114 C115 1.560 . S
C114 H175 0.959 . S
C114 H176 0.959 . S
C114 H177 0.960 . S
C115 C114 1.560 . S
C115 O170 1.426 . S
C115 H174 0.980 . S
C116 C117 1.407 . S
C116 C121 1.418 . S
C116 O170 1.334 . S
C117 C116 1.407 . S
C117 C118 1.360 . S
C117 H178 0.929 . S
C118 C117 1.360 . S
C118 C119 1.401 . S
C118 C122 1.527 . S
C119 C118 1.401 . S
C119 C120 1.405 . S
C119 C152 1.587 . S
C120 C119 1.405 . S
C120 C121 1.332 . S
C120 C123 1.496 . S
C121 C116 1.418 . S
C121 C120 1.332 . S
C121 H179 0.929 . S
C122 C118 1.527 . S
C122 H180 0.959 . S
C122 H181 0.961 . S
C122 H182 0.961 . S
C123 C120 1.496 . S
C123 H183 0.960 . S
C123 H184 0.960 . S
C123 H185 0.961 . S
C124 C125 1.517 . S
C124 H187 0.961 . S
C124 H188 0.960 . S
C124 H189 0.959 . S
C125 C124 1.517 . S
C125 O173 1.468 . S
C125 H186 0.980 . S
C126 C127 1.349 . S
C126 C131 1.367 . S
C126 O173 1.408 . S
C127 C126 1.349 . S
C127 C128 1.407 . S
C127 H190 0.930 . S
C128 C127 1.407 . S
C128 C129 1.449 . S
C128 C132 1.535 . S
C129 C128 1.449 . S
C129 C130 1.384 . S
C129 C154 1.553 . S
C130 C129 1.384 . S
C130 C131 1.364 . S
C130 C133 1.450 . S
C131 C126 1.367 . S
C131 C130 1.364 . S
C131 H191 0.931 . S
C132 C128 1.535 . S
C132 H192 0.959 . S
C132 H193 0.961 . S
C132 H194 0.959 . S
C133 C130 1.450 . S
C133 H195 0.960 . S
C133 H196 0.960 . S
C133 H197 0.960 . S
C134 C135 1.309 . S
C134 C139 1.304 . S
C134 O172 1.435 . S
C135 C134 1.309 . S
C135 C136 1.476 . S
C135 H199 0.930 . S
C136 C135 1.476 . S
C136 C137 1.400 . S
C136 C140 1.567 . S
C137 C136 1.400 . S
C137 C138 1.373 . S
C137 C159 1.432 . S
C138 C137 1.373 . S
C138 C139 1.339 . S
C138 C141 1.530 . S
C139 C134 1.304 . S
C139 C138 1.339 . S
C139 H200 0.930 . S
C140 C136 1.567 . S
C140 H201 0.961 . S
C140 H202 0.960 . S
C140 H203 0.958 . S
C141 C138 1.530 . S
C141 H204 0.961 . S
C141 H205 0.960 . S
C141 H206 0.960 . S
C142 C143 1.530 . S
C142 H208 0.961 . S
C142 H209 0.961 . S
C142 H210 0.959 . S
C143 C142 1.530 . S
C143 O171 1.412 . S
C143 H207 0.980 . S
C144 C145 1.288 . S
C144 C149 1.377 . S
C144 O171 1.393 . S
C145 C144 1.288 . S
C145 C146 1.369 . S
C145 H211 0.932 . S
C146 C145 1.369 . S
C146 C147 1.398 . S
C146 C150 1.527 1_565 S
C147 C146 1.398 . S
C147 C148 1.380 . S
C147 C161 1.497 1_565 S
C148 C147 1.380 . S
C148 C149 1.383 . S
C148 C151 1.603 . S
C149 C144 1.377 . S
C149 C148 1.383 . S
C149 H212 0.929 . S
C150 C146 1.527 1_545 S
C150 H213 0.961 . S
C150 H214 0.959 . S
C150 H215 0.959 . S
C151 C148 1.603 . S
C151 H216 0.960 . S
C151 H217 0.962 1_565 S
C151 H218 0.961 . S
C152 C119 1.587 . S
C152 C153 1.360 . S
C152 C165 1.412 . S
C153 C152 1.360 . S
C153 C154 1.365 1_565 S
C153 H219 0.929 . S
C154 C129 1.553 . S
C154 C153 1.365 1_545 S
C154 C155 1.404 . S
C155 C154 1.404 . S
C155 C156 1.395 . S
C155 C166 1.451 . S
C156 C155 1.395 . S
C156 C157 1.322 . S
C156 H220 0.930 . S
C157 C156 1.322 . S
C157 C158 1.459 . S
C157 H221 0.929 . S
C158 C157 1.459 . S
C158 C159 1.445 . S
C158 C167 1.395 . S
C159 C137 1.432 . S
C159 C158 1.445 . S
C159 C160 1.370 . S
C160 C159 1.370 . S
C160 C161 1.438 . S
C160 H222 0.930 . S
C161 C147 1.497 1_545 S
C161 C160 1.438 . S
C161 C162 1.360 . S
C162 C161 1.360 . S
C162 C163 1.401 1_545 S
C162 C167 1.446 . S
C163 C162 1.401 1_565 S
C163 C164 1.347 . S
C163 H223 0.929 . S
C164 C163 1.347 . S
C164 C165 1.455 . S
C164 H224 0.930 . S
C165 C152 1.412 . S
C165 C164 1.455 . S
C165 C166 1.331 1_565 S
C166 C155 1.451 . S
C166 C165 1.331 1_545 S
C166 C167 1.497 . S
C167 C158 1.395 . S
C167 C162 1.446 . S
C167 C166 1.497 . S
C168 C169 1.582 . S
C168 H225 0.962 . S
C168 H226 0.959 . S
C168 H227 0.958 . S
C169 C168 1.582 . S
C169 O172 1.458 . S
C169 H198 0.980 . S
O170 C115 1.426 . S
O170 C116 1.334 . S
O171 C143 1.412 . S
O171 C144 1.393 . S
O172 C134 1.435 . S
O172 C169 1.458 . S
O173 C125 1.468 . S
O173 C126 1.408 . S
H174 C115 0.980 . S
H175 C114 0.959 . S
H176 C114 0.959 . S
H177 C114 0.960 . S
H178 C117 0.929 . S
H179 C121 0.929 . S
H180 C122 0.959 . S
H181 C122 0.961 . S
H182 C122 0.961 . S
H183 C123 0.960 . S
H184 C123 0.960 . S
H185 C123 0.961 . S
H186 C125 0.980 . S
H187 C124 0.961 . S
H188 C124 0.960 . S
H189 C124 0.959 . S
H190 C127 0.930 . S
H191 C131 0.931 . S
H192 C132 0.959 . S
H193 C132 0.961 . S
H194 C132 0.959 . S
H195 C133 0.960 . S
H196 C133 0.960 . S
H197 C133 0.960 . S
H198 C169 0.980 . S
H199 C135 0.930 . S
H200 C139 0.930 . S
H201 C140 0.961 . S
H202 C140 0.960 . S
H203 C140 0.958 . S
H204 C141 0.961 . S
H205 C141 0.960 . S
H206 C141 0.960 . S
H207 C143 0.980 . S
H208 C142 0.961 . S
H209 C142 0.961 . S
H210 C142 0.959 . S
H211 C145 0.932 . S
H212 C149 0.929 . S
H213 C150 0.961 . S
H214 C150 0.959 . S
H215 C150 0.959 . S
H216 C151 0.960 . S
H217 C151 0.962 1_545 S
H218 C151 0.961 . S
H219 C153 0.929 . S
H220 C156 0.930 . S
H221 C157 0.929 . S
H222 C160 0.930 . S
H223 C163 0.929 . S
H224 C164 0.930 . S
H225 C168 0.962 . S
H226 C168 0.959 . S
H227 C168 0.958 . S
C228 C229 1.560 . S
C228 H289 0.959 . S
C228 H290 0.959 . S
C228 H291 0.960 . S
C229 C228 1.560 . S
C229 O284 1.426 . S
C229 H288 0.980 . S
C230 C231 1.407 . S
C230 C235 1.418 . S
C230 O284 1.334 . S
C231 C230 1.407 . S
C231 C232 1.360 . S
C231 H292 0.929 . S
C232 C231 1.360 . S
C232 C233 1.401 . S
C232 C236 1.527 . S
C233 C232 1.401 . S
C233 C234 1.405 . S
C233 C266 1.587 . S
C234 C233 1.405 . S
C234 C235 1.332 . S
C234 C237 1.496 . S
C235 C230 1.418 . S
C235 C234 1.332 . S
C235 H293 0.929 . S
C236 C232 1.527 . S
C236 H294 0.959 . S
C236 H295 0.961 . S
C236 H296 0.961 . S
C237 C234 1.496 . S
C237 H297 0.960 . S
C237 H298 0.960 . S
C237 H299 0.961 . S
C238 C239 1.517 . S
C238 H301 0.961 . S
C238 H302 0.960 . S
C238 H303 0.959 . S
C239 C238 1.517 . S
C239 O287 1.468 . S
C239 H300 0.980 . S
C240 C241 1.349 . S
C240 C245 1.367 . S
C240 O287 1.408 . S
C241 C240 1.349 . S
C241 C242 1.407 . S
C241 H304 0.930 . S
C242 C241 1.407 . S
C242 C243 1.449 . S
C242 C246 1.535 . S
C243 C242 1.449 . S
C243 C244 1.384 . S
C243 C268 1.553 . S
C244 C243 1.384 . S
C244 C245 1.364 . S
C244 C247 1.450 . S
C245 C240 1.367 . S
C245 C244 1.364 . S
C245 H305 0.931 . S
C246 C242 1.535 . S
C246 H306 0.959 . S
C246 H307 0.961 . S
C246 H308 0.959 . S
C247 C244 1.450 . S
C247 H309 0.960 . S
C247 H310 0.960 . S
C247 H311 0.960 . S
C248 C249 1.309 . S
C248 C253 1.304 . S
C248 O286 1.435 . S
C249 C248 1.309 . S
C249 C250 1.476 . S
C249 H313 0.930 . S
C250 C249 1.476 . S
C250 C251 1.400 . S
C250 C254 1.567 . S
C251 C250 1.400 . S
C251 C252 1.373 . S
C251 C273 1.432 . S
C252 C251 1.373 . S
C252 C253 1.339 . S
C252 C255 1.530 . S
C253 C248 1.304 . S
C253 C252 1.339 . S
C253 H314 0.930 . S
C254 C250 1.567 . S
C254 H315 0.961 . S
C254 H316 0.960 . S
C254 H317 0.958 . S
C255 C252 1.530 . S
C255 H318 0.961 . S
C255 H319 0.960 . S
C255 H320 0.960 . S
C256 C257 1.530 . S
C256 H322 0.961 . S
C256 H323 0.961 . S
C256 H324 0.959 . S
C257 C256 1.530 . S
C257 O285 1.412 . S
C257 H321 0.980 . S
C258 C259 1.288 . S
C258 C263 1.377 . S
C258 O285 1.393 . S
C259 C258 1.288 . S
C259 C260 1.369 . S
C259 H325 0.932 . S
C260 C259 1.369 . S
C260 C261 1.398 . S
C260 C264 1.527 . S
C261 C260 1.398 . S
C261 C262 1.380 . S
C261 C275 1.497 . S
C262 C261 1.380 . S
C262 C263 1.383 . S
C262 C265 1.603 . S
C263 C258 1.377 . S
C263 C262 1.383 . S
C263 H326 0.929 . S
C264 C260 1.527 . S
C264 H327 0.961 . S
C264 H328 0.959 . S
C264 H329 0.959 . S
C265 C262 1.603 . S
C265 H330 0.960 . S
C265 H331 0.962 . S
C265 H332 0.961 . S
C266 C233 1.587 . S
C266 C267 1.360 . S
C266 C279 1.412 . S
C267 C266 1.360 . S
C267 C268 1.365 . S
C267 H333 0.929 . S
C268 C243 1.553 . S
C268 C267 1.365 . S
C268 C269 1.404 . S
C269 C268 1.404 . S
C269 C270 1.395 . S
C269 C280 1.451 . S
C270 C269 1.395 . S
C270 C271 1.322 . S
C270 H334 0.930 . S
C271 C270 1.322 . S
C271 C272 1.459 . S
C271 H335 0.929 . S
C272 C271 1.459 . S
C272 C273 1.445 . S
C272 C281 1.395 . S
C273 C251 1.432 . S
C273 C272 1.445 . S
C273 C274 1.370 . S
C274 C273 1.370 . S
C274 C275 1.438 . S
C274 H336 0.930 . S
C275 C261 1.497 . S
C275 C274 1.438 . S
C275 C276 1.360 . S
C276 C275 1.360 . S
C276 C277 1.401 . S
C276 C281 1.446 . S
C277 C276 1.401 . S
C277 C278 1.347 . S
C277 H337 0.929 . S
C278 C277 1.347 . S
C278 C279 1.455 . S
C278 H338 0.930 . S
C279 C266 1.412 . S
C279 C278 1.455 . S
C279 C280 1.331 . S
C280 C269 1.451 . S
C280 C279 1.331 . S
C280 C281 1.497 . S
C281 C272 1.395 . S
C281 C276 1.446 . S
C281 C280 1.497 . S
C282 C283 1.582 . S
C282 H339 0.962 . S
C282 H340 0.959 . S
C282 H341 0.958 . S
C283 C282 1.582 . S
C283 O286 1.458 . S
C283 H312 0.980 . S
O284 C229 1.426 . S
O284 C230 1.334 . S
O285 C257 1.412 . S
O285 C258 1.393 . S
O286 C248 1.435 . S
O286 C283 1.458 . S
O287 C239 1.468 . S
O287 C240 1.408 . S
H288 C229 0.980 . S
H289 C228 0.959 . S
H290 C228 0.959 . S
H291 C228 0.960 . S
H292 C231 0.929 . S
H293 C235 0.929 . S
H294 C236 0.959 . S
H295 C236 0.961 . S
H296 C236 0.961 . S
H297 C237 0.960 . S
H298 C237 0.960 . S
H299 C237 0.961 . S
H300 C239 0.980 . S
H301 C238 0.961 . S
H302 C238 0.960 . S
H303 C238 0.959 . S
H304 C241 0.930 . S
H305 C245 0.931 . S
H306 C246 0.959 . S
H307 C246 0.961 . S
H308 C246 0.959 . S
H309 C247 0.960 . S
H310 C247 0.960 . S
H311 C247 0.960 . S
H312 C283 0.980 . S
H313 C249 0.930 . S
H314 C253 0.930 . S
H315 C254 0.961 . S
H316 C254 0.960 . S
H317 C254 0.958 . S
H318 C255 0.961 . S
H319 C255 0.960 . S
H320 C255 0.960 . S
H321 C257 0.980 . S
H322 C256 0.961 . S
H323 C256 0.961 . S
H324 C256 0.959 . S
H325 C259 0.932 . S
H326 C263 0.929 . S
H327 C264 0.961 . S
H328 C264 0.959 . S
H329 C264 0.959 . S
H330 C265 0.960 . S
H331 C265 0.962 . S
H332 C265 0.961 . S
H333 C267 0.929 . S
H334 C270 0.930 . S
H335 C271 0.929 . S
H336 C274 0.930 . S
H337 C277 0.929 . S
H338 C278 0.930 . S
H339 C282 0.962 . S
H340 C282 0.959 . S
H341 C282 0.958 . S
C342 C343 1.560 . S
C342 H403 0.959 . S
C342 H404 0.959 . S
C342 H405 0.960 . S
C343 C342 1.560 . S
C343 O398 1.426 . S
C343 H402 0.980 . S
C344 C345 1.407 . S
C344 C349 1.418 . S
C344 O398 1.334 . S
C345 C344 1.407 . S
C345 C346 1.360 . S
C345 H406 0.929 . S
C346 C345 1.360 . S
C346 C347 1.401 . S
C346 C350 1.527 . S
C347 C346 1.401 . S
C347 C348 1.405 . S
C347 C380 1.587 . S
C348 C347 1.405 . S
C348 C349 1.332 . S
C348 C351 1.496 . S
C349 C344 1.418 . S
C349 C348 1.332 . S
C349 H407 0.929 . S
C350 C346 1.527 . S
C350 H408 0.959 . S
C350 H409 0.961 . S
C350 H410 0.961 . S
C351 C348 1.496 . S
C351 H411 0.960 . S
C351 H412 0.960 . S
C351 H413 0.961 . S
C352 C353 1.517 . S
C352 H415 0.961 . S
C352 H416 0.960 . S
C352 H417 0.959 . S
C353 C352 1.517 . S
C353 O401 1.468 . S
C353 H414 0.980 . S
C354 C355 1.349 . S
C354 C359 1.367 . S
C354 O401 1.408 . S
C355 C354 1.349 . S
C355 C356 1.407 . S
C355 H418 0.930 . S
C356 C355 1.407 . S
C356 C357 1.449 . S
C356 C360 1.535 1_655 S
C357 C356 1.449 . S
C357 C358 1.385 . S
C357 C382 1.553 1_655 S
C358 C357 1.385 . S
C358 C359 1.364 . S
C358 C361 1.447 . S
C359 C354 1.367 . S
C359 C358 1.364 . S
C359 H419 0.931 . S
C360 C356 1.535 1_455 S
C360 H420 0.959 . S
C360 H421 0.961 . S
C360 H422 0.959 1_455 S
C361 C358 1.447 . S
C361 H423 0.980 . S
C361 H424 0.931 1_655 S
C361 H425 0.974 . S
C362 C363 1.309 . S
C362 C367 1.304 . S
C362 O400 1.435 . S
C363 C362 1.309 . S
C363 C364 1.476 . S
C363 H427 0.930 . S
C364 C363 1.476 . S
C364 C365 1.400 . S
C364 C368 1.567 . S
C365 C364 1.400 . S
C365 C366 1.373 . S
C365 C387 1.432 . S
C366 C365 1.373 . S
C366 C367 1.339 . S
C366 C369 1.530 . S
C367 C362 1.304 . S
C367 C366 1.339 . S
C367 H428 0.930 . S
C368 C364 1.567 . S
C368 H429 0.961 . S
C368 H430 0.960 . S
C368 H431 0.958 . S
C369 C366 1.530 . S
C369 H432 0.961 . S
C369 H433 0.960 . S
C369 H434 0.960 . S
C370 C371 1.530 . S
C370 H436 0.961 . S
C370 H437 0.961 . S
C370 H438 0.959 . S
C371 C370 1.530 . S
C371 O399 1.412 . S
C371 H435 0.980 . S
C372 C373 1.288 . S
C372 C377 1.377 . S
C372 O399 1.393 . S
C373 C372 1.288 . S
C373 C374 1.369 . S
C373 H439 0.932 . S
C374 C373 1.369 . S
C374 C375 1.398 . S
C374 C378 1.527 . S
C375 C374 1.398 . S
C375 C376 1.380 . S
C375 C389 1.497 . S
C376 C375 1.380 . S
C376 C377 1.383 . S
C376 C379 1.603 . S
C377 C372 1.377 . S
C377 C376 1.383 . S
C377 H440 0.929 . S
C378 C374 1.527 . S
C378 H441 0.961 . S
C378 H442 0.959 . S
C378 H443 0.959 . S
C379 C376 1.603 . S
C379 H444 0.960 . S
C379 H445 0.962 . S
C379 H446 0.961 . S
C380 C347 1.587 . S
C380 C381 1.360 . S
C380 C393 1.412 . S
C381 C380 1.360 . S
C381 C382 1.365 . S
C381 H447 0.929 . S
C382 C357 1.553 1_455 S
C382 C381 1.365 . S
C382 C383 1.404 . S
C383 C382 1.404 . S
C383 C384 1.395 1_455 S
C383 C394 1.451 . S
C384 C383 1.395 1_655 S
C384 C385 1.322 . S
C384 H448 0.930 . S
C385 C384 1.322 . S
C385 C386 1.459 . S
C385 H449 0.929 . S
C386 C385 1.459 . S
C386 C387 1.445 . S
C386 C395 1.395 1_655 S
C387 C365 1.432 . S
C387 C386 1.445 . S
C387 C388 1.370 . S
C388 C387 1.370 . S
C388 C389 1.438 1_655 S
C388 H450 0.930 . S
C389 C375 1.497 . S
C389 C388 1.438 1_455 S
C389 C390 1.360 . S
C390 C389 1.360 . S
C390 C391 1.401 . S
C390 C395 1.446 . S
C391 C390 1.401 . S
C391 C392 1.347 . S
C391 H451 0.929 . S
C392 C391 1.347 . S
C392 C393 1.455 . S
C392 H452 0.930 . S
C393 C380 1.412 . S
C393 C392 1.455 . S
C393 C394 1.331 . S
C394 C383 1.451 . S
C394 C393 1.331 . S
C394 C395 1.497 . S
C395 C386 1.395 1_455 S
C395 C390 1.446 . S
C395 C394 1.497 . S
C396 C397 1.582 . S
C396 H453 0.962 . S
C396 H454 0.959 . S
C396 H455 0.958 . S
C397 C396 1.582 . S
C397 O400 1.458 . S
C397 H426 0.980 . S
O398 C343 1.426 . S
O398 C344 1.334 . S
O399 C371 1.412 . S
O399 C372 1.393 . S
O400 C362 1.435 . S
O400 C397 1.458 . S
O401 C353 1.468 . S
O401 C354 1.408 . S
H402 C343 0.980 . S
H403 C342 0.959 . S
H404 C342 0.959 . S
H405 C342 0.960 . S
H406 C345 0.929 . S
H407 C349 0.929 . S
H408 C350 0.959 . S
H409 C350 0.961 . S
H410 C350 0.961 . S
H411 C351 0.960 . S
H412 C351 0.960 . S
H413 C351 0.961 . S
H414 C353 0.980 . S
H415 C352 0.961 . S
H416 C352 0.960 . S
H417 C352 0.959 . S
H418 C355 0.930 . S
H419 C359 0.931 . S
H420 C360 0.959 . S
H421 C360 0.961 . S
H422 C360 0.959 1_655 S
H423 C361 0.980 . S
H424 C361 0.931 1_455 S
H425 C361 0.974 . S
H426 C397 0.980 . S
H427 C363 0.930 . S
H428 C367 0.930 . S
H429 C368 0.961 . S
H430 C368 0.960 . S
H431 C368 0.958 . S
H432 C369 0.961 . S
H433 C369 0.960 . S
H434 C369 0.960 . S
H435 C371 0.980 . S
H436 C370 0.961 . S
H437 C370 0.961 . S
H438 C370 0.959 . S
H439 C373 0.932 . S
H440 C377 0.929 . S
H441 C378 0.961 . S
H442 C378 0.959 . S
H443 C378 0.959 . S
H444 C379 0.960 . S
H445 C379 0.962 . S
H446 C379 0.961 . S
H447 C381 0.929 . S
H448 C384 0.930 . S
H449 C385 0.929 . S
H450 C388 0.930 . S
H451 C391 0.929 . S
H452 C392 0.930 . S
H453 C396 0.962 . S
H454 C396 0.959 . S
H455 C396 0.958 . S
C456 C457 1.560 . S
C456 H517 0.959 . S
C456 H518 0.959 . S
C456 H519 0.960 . S
C457 C456 1.560 . S
C457 O512 1.426 . S
C457 H516 0.980 . S
C458 C459 1.407 . S
C458 C463 1.418 . S
C458 O512 1.334 . S
C459 C458 1.407 . S
C459 C460 1.360 . S
C459 H520 0.929 . S
C460 C459 1.360 . S
C460 C461 1.401 . S
C460 C464 1.527 . S
C461 C460 1.401 . S
C461 C462 1.405 . S
C461 C494 1.587 . S
C462 C461 1.405 . S
C462 C463 1.332 . S
C462 C465 1.496 . S
C463 C458 1.418 . S
C463 C462 1.332 . S
C463 H521 0.929 . S
C464 C460 1.527 . S
C464 H522 0.959 . S
C464 H523 0.961 . S
C464 H524 0.961 . S
C465 C462 1.496 . S
C465 H525 0.960 . S
C465 H526 0.960 . S
C465 H527 0.961 . S
C466 C467 1.517 . S
C466 H529 0.961 . S
C466 H530 0.960 . S
C466 H531 0.959 . S
C467 C466 1.517 . S
C467 O515 1.468 . S
C467 H528 0.980 . S
C468 C469 1.349 . S
C468 C473 1.367 . S
C468 O515 1.408 . S
C469 C468 1.349 . S
C469 C470 1.407 . S
C469 H532 0.930 . S
C470 C469 1.407 . S
C470 C471 1.449 . S
C470 C474 1.535 . S
C471 C470 1.449 . S
C471 C472 1.384 . S
C471 C496 1.553 . S
C472 C471 1.384 . S
C472 C473 1.364 . S
C472 C475 1.450 . S
C473 C468 1.367 . S
C473 C472 1.364 . S
C473 H533 0.931 . S
C474 C470 1.535 . S
C474 H534 0.959 . S
C474 H535 0.961 . S
C474 H536 0.959 . S
C475 C472 1.450 . S
C475 H537 0.960 . S
C475 H538 0.960 . S
C475 H539 0.960 . S
C476 C477 1.309 . S
C476 C481 1.304 . S
C476 O514 1.435 . S
C477 C476 1.309 . S
C477 C478 1.476 . S
C477 H541 0.930 . S
C478 C477 1.476 . S
C478 C479 1.400 . S
C478 C482 1.567 . S
C479 C478 1.400 . S
C479 C480 1.373 . S
C479 C501 1.432 . S
C480 C479 1.373 . S
C480 C481 1.339 . S
C480 C483 1.530 . S
C481 C476 1.304 . S
C481 C480 1.339 . S
C481 H542 0.930 . S
C482 C478 1.567 . S
C482 H543 0.961 . S
C482 H544 0.960 . S
C482 H545 0.958 . S
C483 C480 1.530 . S
C483 H546 0.961 . S
C483 H547 0.960 . S
C483 H548 0.960 . S
C484 C485 1.530 . S
C484 H550 0.961 . S
C484 H551 0.961 . S
C484 H552 0.959 . S
C485 C484 1.530 . S
C485 O513 1.412 . S
C485 H549 0.980 . S
C486 C487 1.288 . S
C486 C491 1.377 . S
C486 O513 1.393 . S
C487 C486 1.288 . S
C487 C488 1.369 1_565 S
C487 H553 0.932 . S
C488 C487 1.369 1_545 S
C488 C489 1.398 . S
C488 C492 1.527 . S
C489 C488 1.398 . S
C489 C490 1.380 1_545 S
C489 C503 1.497 . S
C490 C489 1.380 1_565 S
C490 C491 1.383 . S
C490 C493 1.603 . S
C491 C486 1.377 . S
C491 C490 1.383 . S
C491 H554 0.929 . S
C492 C488 1.527 . S
C492 H555 0.961 . S
C492 H556 0.959 . S
C492 H557 0.959 . S
C493 C490 1.603 . S
C493 H558 0.960 . S
C493 H559 0.962 1_565 S
C493 H560 0.961 . S
C494 C461 1.587 . S
C494 C495 1.360 . S
C494 C507 1.412 . S
C495 C494 1.360 . S
C495 C496 1.365 1_565 S
C495 H561 0.929 . S
C496 C471 1.553 . S
C496 C495 1.365 1_545 S
C496 C497 1.404 . S
C497 C496 1.404 . S
C497 C498 1.395 . S
C497 C508 1.451 . S
C498 C497 1.395 . S
C498 C499 1.322 . S
C498 H562 0.930 . S
C499 C498 1.322 . S
C499 C500 1.492 . S
C499 H563 0.929 . S
C500 C499 1.492 . S
C500 C501 1.408 1_556 S
C500 C509 1.400 . S
C501 C479 1.432 . S
C501 C500 1.408 1_554 S
C501 C502 1.370 . S
C502 C501 1.370 . S
C502 C503 1.438 . S
C502 H564 0.930 . S
C503 C489 1.497 . S
C503 C502 1.438 . S
C503 C504 1.360 . S
C504 C503 1.360 . S
C504 C505 1.401 1_545 S
C504 C509 1.446 1_554 S
C505 C504 1.401 1_565 S
C505 C506 1.347 1_554 S
C505 H565 0.929 . S
C506 C505 1.347 1_556 S
C506 C507 1.455 . S
C506 H566 0.930 . S
C507 C494 1.412 . S
C507 C506 1.455 . S
C507 C508 1.331 1_565 S
C508 C497 1.451 . S
C508 C507 1.331 1_545 S
C508 C509 1.497 . S
C509 C500 1.400 . S
C509 C504 1.446 1_556 S
C509 C508 1.497 . S
C510 C511 1.582 . S
C510 H567 0.962 . S
C510 H568 0.959 . S
C510 H569 0.958 . S
C511 C510 1.582 . S
C511 O514 1.458 . S
C511 H540 0.980 . S
O512 C457 1.426 . S
O512 C458 1.334 . S
O513 C485 1.412 . S
O513 C486 1.393 . S
O514 C476 1.435 . S
O514 C511 1.458 . S
O515 C467 1.468 . S
O515 C468 1.408 . S
H516 C457 0.980 . S
H517 C456 0.959 . S
H518 C456 0.959 . S
H519 C456 0.960 . S
H520 C459 0.929 . S
H521 C463 0.929 . S
H522 C464 0.959 . S
H523 C464 0.961 . S
H524 C464 0.961 . S
H525 C465 0.960 . S
H526 C465 0.960 . S
H527 C465 0.961 . S
H528 C467 0.980 . S
H529 C466 0.961 . S
H530 C466 0.960 . S
H531 C466 0.959 . S
H532 C469 0.930 . S
H533 C473 0.931 . S
H534 C474 0.959 . S
H535 C474 0.961 . S
H536 C474 0.959 . S
H537 C475 0.960 . S
H538 C475 0.960 . S
H539 C475 0.960 . S
H540 C511 0.980 . S
H541 C477 0.930 . S
H542 C481 0.930 . S
H543 C482 0.961 . S
H544 C482 0.960 . S
H545 C482 0.958 . S
H546 C483 0.961 . S
H547 C483 0.960 . S
H548 C483 0.960 . S
H549 C485 0.980 . S
H550 C484 0.961 . S
H551 C484 0.961 . S
H552 C484 0.959 . S
H553 C487 0.932 . S
H554 C491 0.929 . S
H555 C492 0.961 . S
H556 C492 0.959 . S
H557 C492 0.959 . S
H558 C493 0.960 . S
H559 C493 0.962 1_545 S
H560 C493 0.961 . S
H561 C495 0.929 . S
H562 C498 0.930 . S
H563 C499 0.929 . S
H564 C502 0.930 . S
H565 C505 0.929 . S
H566 C506 0.930 . S
H567 C510 0.962 . S
H568 C510 0.959 . S
H569 C510 0.958 . S
C570 C571 1.560 . S
C570 H631 0.959 . S
C570 H632 0.959 . S
C570 H633 0.960 . S
C571 C570 1.560 . S
C571 O626 1.426 . S
C571 H630 0.980 . S
C572 C573 1.407 . S
C572 C577 1.418 . S
C572 O626 1.334 . S
C573 C572 1.407 . S
C573 C574 1.360 . S
C573 H634 0.929 . S
C574 C573 1.360 . S
C574 C575 1.401 . S
C574 C578 1.527 . S
C575 C574 1.401 . S
C575 C576 1.405 . S
C575 C608 1.587 . S
C576 C575 1.405 . S
C576 C577 1.332 . S
C576 C579 1.496 . S
C577 C572 1.418 . S
C577 C576 1.332 . S
C577 H635 0.929 . S
C578 C574 1.527 . S
C578 H636 0.959 . S
C578 H637 0.961 . S
C578 H638 0.961 . S
C579 C576 1.496 . S
C579 H639 0.960 . S
C579 H640 0.960 . S
C579 H641 0.961 . S
C580 C581 1.517 . S
C580 H643 0.961 . S
C580 H644 0.960 . S
C580 H645 0.959 . S
C581 C580 1.517 . S
C581 O629 1.468 . S
C581 H642 0.980 . S
C582 C583 1.349 . S
C582 C587 1.367 . S
C582 O629 1.408 . S
C583 C582 1.349 . S
C583 C584 1.407 . S
C583 H646 0.930 . S
C584 C583 1.407 . S
C584 C585 1.449 . S
C584 C588 1.535 . S
C585 C584 1.449 . S
C585 C586 1.384 . S
C585 C610 1.553 . S
C586 C585 1.384 . S
C586 C587 1.364 . S
C586 C589 1.450 . S
C587 C582 1.367 . S
C587 C586 1.364 . S
C587 H647 0.931 . S
C588 C584 1.535 . S
C588 H648 0.959 . S
C588 H649 0.961 . S
C588 H650 0.959 . S
C589 C586 1.450 . S
C589 H651 0.960 . S
C589 H652 0.960 . S
C589 H653 0.960 . S
C590 C591 1.309 . S
C590 C595 1.304 . S
C590 O628 1.435 . S
C591 C590 1.309 . S
C591 C592 1.476 . S
C591 H655 0.930 . S
C592 C591 1.476 . S
C592 C593 1.400 . S
C592 C596 1.567 . S
C593 C592 1.400 . S
C593 C594 1.373 . S
C593 C615 1.432 . S
C594 C593 1.373 . S
C594 C595 1.339 . S
C594 C597 1.530 . S
C595 C590 1.304 . S
C595 C594 1.339 . S
C595 H656 0.930 . S
C596 C592 1.567 . S
C596 H657 0.961 . S
C596 H658 0.960 . S
C596 H659 0.958 . S
C597 C594 1.530 . S
C597 H660 0.961 . S
C597 H661 0.960 . S
C597 H662 0.960 . S
C598 C599 1.530 . S
C598 H664 0.961 . S
C598 H665 0.961 . S
C598 H666 0.959 . S
C599 C598 1.530 . S
C599 O627 1.412 . S
C599 H663 0.980 . S
C600 C601 1.288 . S
C600 C605 1.377 . S
C600 O627 1.393 . S
C601 C600 1.288 . S
C601 C602 1.369 . S
C601 H667 0.932 . S
C602 C601 1.369 . S
C602 C603 1.398 . S
C602 C606 1.527 . S
C603 C602 1.398 . S
C603 C604 1.380 . S
C603 C617 1.497 . S
C604 C603 1.380 . S
C604 C605 1.383 . S
C604 C607 1.603 . S
C605 C600 1.377 . S
C605 C604 1.383 . S
C605 H668 0.929 . S
C606 C602 1.527 . S
C606 H669 0.961 . S
C606 H670 0.959 . S
C606 H671 0.959 . S
C607 C604 1.603 . S
C607 H672 0.960 . S
C607 H673 0.962 . S
C607 H674 0.961 . S
C608 C575 1.587 . S
C608 C609 1.360 . S
C608 C621 1.412 . S
C609 C608 1.360 . S
C609 C610 1.365 . S
C609 H675 0.929 . S
C610 C585 1.553 . S
C610 C609 1.365 . S
C610 C611 1.404 . S
C611 C610 1.404 . S
C611 C612 1.395 . S
C611 C622 1.451 . S
C612 C611 1.395 . S
C612 C613 1.322 . S
C612 H676 0.930 . S
C613 C612 1.322 . S
C613 C614 1.459 . S
C613 H677 0.929 . S
C614 C613 1.459 . S
C614 C615 1.445 . S
C614 C623 1.395 . S
C615 C593 1.432 . S
C615 C614 1.445 . S
C615 C616 1.370 . S
C616 C615 1.370 . S
C616 C617 1.438 . S
C616 H678 0.930 . S
C617 C603 1.497 . S
C617 C616 1.438 . S
C617 C618 1.360 . S
C618 C617 1.360 . S
C618 C619 1.401 . S
C618 C623 1.446 . S
C619 C618 1.401 . S
C619 C620 1.347 . S
C619 H679 0.929 . S
C620 C619 1.347 . S
C620 C621 1.455 . S
C620 H680 0.930 . S
C621 C608 1.412 . S
C621 C620 1.455 . S
C621 C622 1.331 . S
C622 C611 1.451 . S
C622 C621 1.331 . S
C622 C623 1.497 . S
C623 C614 1.395 . S
C623 C618 1.446 . S
C623 C622 1.497 . S
C624 C625 1.582 . S
C624 H681 0.962 . S
C624 H682 0.959 . S
C624 H683 0.958 . S
C625 C624 1.582 . S
C625 O628 1.458 . S
C625 H654 0.980 . S
O626 C571 1.426 . S
O626 C572 1.334 . S
O627 C599 1.412 . S
O627 C600 1.393 . S
O628 C590 1.435 . S
O628 C625 1.458 . S
O629 C581 1.468 . S
O629 C582 1.408 . S
H630 C571 0.980 . S
H631 C570 0.959 . S
H632 C570 0.959 . S
H633 C570 0.960 . S
H634 C573 0.929 . S
H635 C577 0.929 . S
H636 C578 0.959 . S
H637 C578 0.961 . S
H638 C578 0.961 . S
H639 C579 0.960 . S
H640 C579 0.960 . S
H641 C579 0.961 . S
H642 C581 0.980 . S
H643 C580 0.961 . S
H644 C580 0.960 . S
H645 C580 0.959 . S
H646 C583 0.930 . S
H647 C587 0.931 . S
H648 C588 0.959 . S
H649 C588 0.961 . S
H650 C588 0.959 . S
H651 C589 0.960 . S
H652 C589 0.960 . S
H653 C589 0.960 . S
H654 C625 0.980 . S
H655 C591 0.930 . S
H656 C595 0.930 . S
H657 C596 0.961 . S
H658 C596 0.960 . S
H659 C596 0.958 . S
H660 C597 0.961 . S
H661 C597 0.960 . S
H662 C597 0.960 . S
H663 C599 0.980 . S
H664 C598 0.961 . S
H665 C598 0.961 . S
H666 C598 0.959 . S
H667 C601 0.932 . S
H668 C605 0.929 . S
H669 C606 0.961 . S
H670 C606 0.959 . S
H671 C606 0.959 . S
H672 C607 0.960 . S
H673 C607 0.962 . S
H674 C607 0.961 . S
H675 C609 0.929 . S
H676 C612 0.930 . S
H677 C613 0.929 . S
H678 C616 0.930 . S
H679 C619 0.929 . S
H680 C620 0.930 . S
H681 C624 0.962 . S
H682 C624 0.959 . S
H683 C624 0.958 . S
Mn684 O689 2.095 . S
Mn684 O699 2.162 . S
Mn684 O700 2.297 . S
Mn684 O708 2.385 . S
Mn684 O709 2.209 . S
Mn684 O710 2.094 . S
Mn685 O690 2.121 . S
Mn685 N692 2.257 . S
Mn685 N701 2.282 . S
Mn685 O709 2.215 . S
Mn685 O711 2.117 . S
C686 O708 1.234 . S
C686 O709 1.283 . S
C687 O699 1.281 . S
C687 O700 1.236 . S
C688 O710 1.240 . S
C688 O711 1.264 . S
O689 Mn684 2.095 . S
O689 C698 1.250 . S
O690 Mn685 2.121 . S
O690 C698 1.258 . S
C691 N692 1.326 . S
C691 C695 1.460 . S
C691 H697 0.929 . S
N692 Mn685 2.257 . S
N692 C691 1.326 . S
N692 C696 1.362 . S
C693 C694 1.258 . S
C693 C696 1.431 . S
C693 C713 1.449 . S
C694 C693 1.258 . S
C694 C695 1.477 . S
C694 H714 0.931 . S
C695 C691 1.460 . S
C695 C694 1.477 . S
C695 H715 0.930 . S
C696 N692 1.362 . S
C696 C693 1.431 . S
C696 C706 1.476 . S
H697 C691 0.929 . S
C698 O689 1.250 . S
C698 O690 1.258 . S
O699 Mn684 2.162 . S
O699 C687 1.281 . S
O700 Mn684 2.297 . S
O700 C687 1.236 . S
N701 Mn685 2.282 . S
N701 C702 1.328 . S
N701 C706 1.318 . S
C702 N701 1.328 . S
C702 C703 1.457 . S
C702 H707 0.929 . S
C703 C702 1.457 . S
C703 C704 1.291 . S
C703 H716 0.931 . S
C704 C703 1.291 . S
C704 C705 1.373 . S
C704 H717 0.929 . S
C705 C704 1.373 . S
C705 C706 1.396 . S
C705 C712 1.403 . S
C706 C696 1.476 . S
C706 N701 1.318 . S
C706 C705 1.396 . S
H707 C702 0.929 . S
O708 Mn684 2.385 . S
O708 C686 1.234 . S
O709 Mn684 2.209 . S
O709 Mn685 2.215 . S
O709 C686 1.283 . S
O710 Mn684 2.094 . S
O710 C688 1.240 . S
O711 Mn685 2.117 . S
O711 C688 1.264 . S
C712 C705 1.403 . S
C712 C713 1.399 . S
C712 H718 0.929 . S
C713 C693 1.449 . S
C713 C712 1.399 . S
C713 H719 0.930 . S
H714 C694 0.931 . S
H715 C695 0.930 . S
H716 C703 0.931 . S
H717 C704 0.929 . S
H718 C712 0.929 . S
H719 C713 0.930 . S
Mn720 O725 2.095 . S
Mn720 O735 2.162 . S
Mn720 O736 2.297 . S
Mn720 O744 2.385 . S
Mn720 O745 2.209 . S
Mn720 O746 2.094 . S
Mn721 O726 2.121 . S
Mn721 N728 2.257 . S
Mn721 N737 2.282 . S
Mn721 O745 2.215 . S
Mn721 O747 2.117 . S
C722 O744 1.234 . S
C722 O745 1.283 . S
C723 O735 1.281 . S
C723 O736 1.236 . S
C724 O746 1.240 . S
C724 O747 1.264 . S
O725 Mn720 2.095 . S
O725 C734 1.250 . S
O726 Mn721 2.121 . S
O726 C734 1.258 . S
C727 N728 1.326 . S
C727 C731 1.460 . S
C727 H733 0.929 . S
N728 Mn721 2.257 . S
N728 C727 1.326 . S
N728 C732 1.362 . S
C729 C730 1.258 . S
C729 C732 1.431 . S
C729 C749 1.449 . S
C730 C729 1.258 . S
C730 C731 1.477 . S
C730 H750 0.931 . S
C731 C727 1.460 . S
C731 C730 1.477 . S
C731 H751 0.930 . S
C732 N728 1.362 . S
C732 C729 1.431 . S
C732 C742 1.476 . S
H733 C727 0.929 . S
C734 O725 1.250 . S
C734 O726 1.258 . S
O735 Mn720 2.162 . S
O735 C723 1.281 . S
O736 Mn720 2.297 . S
O736 C723 1.236 . S
N737 Mn721 2.282 . S
N737 C738 1.328 . S
N737 C742 1.318 . S
C738 N737 1.328 . S
C738 C739 1.457 . S
C738 H743 0.929 . S
C739 C738 1.457 . S
C739 C740 1.291 . S
C739 H752 0.931 . S
C740 C739 1.291 . S
C740 C741 1.373 . S
C740 H753 0.929 . S
C741 C740 1.373 . S
C741 C742 1.396 . S
C741 C748 1.403 . S
C742 C732 1.476 . S
C742 N737 1.318 . S
C742 C741 1.396 . S
H743 C738 0.929 . S
O744 Mn720 2.385 . S
O744 C722 1.234 . S
O745 Mn720 2.209 . S
O745 Mn721 2.215 . S
O745 C722 1.283 . S
O746 Mn720 2.094 . S
O746 C724 1.240 . S
O747 Mn721 2.117 . S
O747 C724 1.264 . S
C748 C741 1.403 . S
C748 C749 1.399 . S
C748 H754 0.929 . S
C749 C729 1.449 . S
C749 C748 1.399 . S
C749 H755 0.930 . S
H750 C730 0.931 . S
H751 C731 0.930 . S
H752 C739 0.931 . S
H753 C740 0.929 . S
H754 C748 0.929 . S
H755 C749 0.930 . S
Mn756 O761 2.095 . S
Mn756 O771 2.162 . S
Mn756 O772 2.297 . S
Mn756 O780 2.385 . S
Mn756 O781 2.209 . S
Mn756 O782 2.094 . S
Mn757 O762 2.121 . S
Mn757 N764 2.257 . S
Mn757 N773 2.282 . S
Mn757 O781 2.215 . S
Mn757 O783 2.117 . S
C758 O780 1.234 . S
C758 O781 1.283 . S
C759 O771 1.281 . S
C759 O772 1.236 . S
C760 O782 1.240 . S
C760 O783 1.264 . S
O761 Mn756 2.095 . S
O761 C770 1.250 . S
O762 Mn757 2.121 . S
O762 C770 1.258 . S
C763 N764 1.326 . S
C763 C767 1.460 . S
C763 H769 0.929 . S
N764 Mn757 2.257 . S
N764 C763 1.326 . S
N764 C768 1.362 . S
C765 C766 1.258 . S
C765 C768 1.431 . S
C765 C785 1.449 . S
C766 C765 1.258 . S
C766 C767 1.477 . S
C766 H786 0.931 . S
C767 C763 1.460 . S
C767 C766 1.477 . S
C767 H787 0.930 . S
C768 N764 1.362 . S
C768 C765 1.431 . S
C768 C778 1.476 . S
H769 C763 0.929 . S
C770 O761 1.250 . S
C770 O762 1.258 . S
O771 Mn756 2.162 . S
O771 C759 1.281 . S
O772 Mn756 2.297 . S
O772 C759 1.236 . S
N773 Mn757 2.282 . S
N773 C774 1.328 . S
N773 C778 1.318 . S
C774 N773 1.328 . S
C774 C775 1.457 . S
C774 H779 0.929 . S
C775 C774 1.457 . S
C775 C776 1.291 . S
C775 H788 0.931 . S
C776 C775 1.291 . S
C776 C777 1.373 . S
C776 H789 0.929 . S
C777 C776 1.373 . S
C777 C778 1.396 . S
C777 C784 1.403 . S
C778 C768 1.476 . S
C778 N773 1.318 . S
C778 C777 1.396 . S
H779 C774 0.929 . S
O780 Mn756 2.385 . S
O780 C758 1.234 . S
O781 Mn756 2.209 . S
O781 Mn757 2.215 . S
O781 C758 1.283 . S
O782 Mn756 2.094 . S
O782 C760 1.240 . S
O783 Mn757 2.117 . S
O783 C760 1.264 . S
C784 C777 1.403 . S
C784 C785 1.399 . S
C784 H790 0.929 . S
C785 C765 1.449 . S
C785 C784 1.399 . S
C785 H791 0.930 . S
H786 C766 0.931 . S
H787 C767 0.930 . S
H788 C775 0.931 . S
H789 C776 0.929 . S
H790 C784 0.929 . S
H791 C785 0.930 . S
Mn792 O797 2.095 . S
Mn792 O807 2.162 . S
Mn792 O808 2.297 . S
Mn792 O816 2.385 . S
Mn792 O817 2.209 . S
Mn792 O818 2.094 . S
Mn793 O798 2.121 . S
Mn793 N800 2.257 . S
Mn793 N809 2.282 . S
Mn793 O817 2.215 . S
Mn793 O819 2.117 . S
C794 O816 1.234 . S
C794 O817 1.283 . S
C795 O807 1.281 . S
C795 O808 1.236 . S
C796 O818 1.240 . S
C796 O819 1.264 . S
O797 Mn792 2.095 . S
O797 C806 1.250 . S
O798 Mn793 2.121 . S
O798 C806 1.258 . S
C799 N800 1.326 . S
C799 C803 1.460 . S
C799 H805 0.929 . S
N800 Mn793 2.257 . S
N800 C799 1.326 . S
N800 C804 1.362 . S
C801 C802 1.258 . S
C801 C804 1.431 . S
C801 C821 1.449 . S
C802 C801 1.258 . S
C802 C803 1.477 . S
C802 H822 0.931 . S
C803 C799 1.460 . S
C803 C802 1.477 . S
C803 H823 0.930 . S
C804 N800 1.362 . S
C804 C801 1.431 . S
C804 C814 1.476 . S
H805 C799 0.929 . S
C806 O797 1.250 . S
C806 O798 1.258 . S
O807 Mn792 2.162 . S
O807 C795 1.281 . S
O808 Mn792 2.297 . S
O808 C795 1.236 . S
N809 Mn793 2.282 . S
N809 C810 1.328 . S
N809 C814 1.318 . S
C810 N809 1.328 . S
C810 C811 1.457 . S
C810 H815 0.929 . S
C811 C810 1.457 . S
C811 C812 1.291 . S
C811 H824 0.931 . S
C812 C811 1.291 . S
C812 C813 1.373 . S
C812 H825 0.929 . S
C813 C812 1.373 . S
C813 C814 1.396 . S
C813 C820 1.403 . S
C814 C804 1.476 . S
C814 N809 1.318 . S
C814 C813 1.396 . S
H815 C810 0.929 . S
O816 Mn792 2.385 . S
O816 C794 1.234 . S
O817 Mn792 2.209 . S
O817 Mn793 2.215 . S
O817 C794 1.283 . S
O818 Mn792 2.094 . S
O818 C796 1.240 . S
O819 Mn793 2.117 . S
O819 C796 1.264 . S
C820 C813 1.403 . S
C820 C821 1.399 . S
C820 H826 0.929 . S
C821 C801 1.449 . S
C821 C820 1.399 . S
C821 H827 0.930 . S
H822 C802 0.931 . S
H823 C803 0.930 . S
H824 C811 0.931 . S
H825 C812 0.929 . S
H826 C820 0.929 . S
H827 C821 0.930 . S
Mn828 O833 2.095 . S
Mn828 O843 2.162 . S
Mn828 O844 2.297 . S
Mn828 O852 2.385 . S
Mn828 O853 2.209 . S
Mn828 O854 2.094 . S
Mn829 O834 2.121 . S
Mn829 N836 2.257 . S
Mn829 N845 2.282 . S
Mn829 O853 2.215 . S
Mn829 O855 2.117 . S
C830 O852 1.234 . S
C830 O853 1.283 . S
C831 O843 1.281 . S
C831 O844 1.236 . S
C832 O854 1.240 . S
C832 O855 1.264 . S
O833 Mn828 2.095 . S
O833 C842 1.250 . S
O834 Mn829 2.121 . S
O834 C842 1.258 . S
C835 N836 1.326 . S
C835 C839 1.460 . S
C835 H841 0.929 . S
N836 Mn829 2.257 . S
N836 C835 1.326 . S
N836 C840 1.362 . S
C837 C838 1.258 . S
C837 C840 1.431 . S
C837 C857 1.449 . S
C838 C837 1.258 . S
C838 C839 1.477 . S
C838 H858 0.931 . S
C839 C835 1.460 . S
C839 C838 1.477 . S
C839 H859 0.930 . S
C840 N836 1.362 . S
C840 C837 1.431 . S
C840 C850 1.476 . S
H841 C835 0.929 . S
C842 O833 1.250 . S
C842 O834 1.258 . S
O843 Mn828 2.162 . S
O843 C831 1.281 . S
O844 Mn828 2.297 . S
O844 C831 1.236 . S
N845 Mn829 2.282 . S
N845 C846 1.328 . S
N845 C850 1.318 . S
C846 N845 1.328 . S
C846 C847 1.457 . S
C846 H851 0.929 . S
C847 C846 1.457 . S
C847 C848 1.291 . S
C847 H860 0.931 . S
C848 C847 1.291 . S
C848 C849 1.373 . S
C848 H861 0.929 . S
C849 C848 1.373 . S
C849 C850 1.396 . S
C849 C856 1.403 . S
C850 C840 1.476 . S
C850 N845 1.318 . S
C850 C849 1.396 . S
H851 C846 0.929 . S
O852 Mn828 2.385 . S
O852 C830 1.234 . S
O853 Mn828 2.209 . S
O853 Mn829 2.215 . S
O853 C830 1.283 . S
O854 Mn828 2.094 . S
O854 C832 1.240 . S
O855 Mn829 2.117 . S
O855 C832 1.264 . S
C856 C849 1.403 . S
C856 C857 1.399 . S
C856 H862 0.929 . S
C857 C837 1.449 . S
C857 C856 1.399 . S
C857 H863 0.930 . S
H858 C838 0.931 . S
H859 C839 0.930 . S
H860 C847 0.931 . S
H861 C848 0.929 . S
H862 C856 0.929 . S
H863 C857 0.930 . S
Mn864 O869 2.095 . S
Mn864 O879 2.162 . S
Mn864 O880 2.297 . S
Mn864 O888 2.385 . S
Mn864 O889 2.209 . S
Mn864 O890 2.094 . S
Mn865 O870 2.121 . S
Mn865 N872 2.257 . S
Mn865 N881 2.282 . S
Mn865 O889 2.215 . S
Mn865 O891 2.117 . S
C866 O888 1.234 . S
C866 O889 1.283 . S
C867 O879 1.281 . S
C867 O880 1.236 . S
C868 O890 1.240 . S
C868 O891 1.264 . S
O869 Mn864 2.095 . S
O869 C878 1.250 . S
O870 Mn865 2.121 . S
O870 C878 1.258 . S
C871 N872 1.326 . S
C871 C875 1.460 . S
C871 H877 0.929 . S
N872 Mn865 2.257 . S
N872 C871 1.326 . S
N872 C876 1.362 . S
C873 C874 1.258 . S
C873 C876 1.431 . S
C873 C893 1.449 . S
C874 C873 1.258 . S
C874 C875 1.477 . S
C874 H894 0.931 . S
C875 C871 1.460 . S
C875 C874 1.477 . S
C875 H895 0.930 . S
C876 N872 1.362 . S
C876 C873 1.431 . S
C876 C886 1.476 . S
H877 C871 0.929 . S
C878 O869 1.250 . S
C878 O870 1.258 . S
O879 Mn864 2.162 . S
O879 C867 1.281 . S
O880 Mn864 2.297 . S
O880 C867 1.236 . S
N881 Mn865 2.282 . S
N881 C882 1.328 . S
N881 C886 1.318 . S
C882 N881 1.328 . S
C882 C883 1.457 . S
C882 H887 0.929 . S
C883 C882 1.457 . S
C883 C884 1.291 . S
C883 H896 0.931 . S
C884 C883 1.291 . S
C884 C885 1.373 . S
C884 H897 0.929 . S
C885 C884 1.373 . S
C885 C886 1.396 . S
C885 C892 1.403 . S
C886 C876 1.476 . S
C886 N881 1.318 . S
C886 C885 1.396 . S
H887 C882 0.929 . S
O888 Mn864 2.385 . S
O888 C866 1.234 . S
O889 Mn864 2.209 . S
O889 Mn865 2.215 . S
O889 C866 1.283 . S
O890 Mn864 2.094 . S
O890 C868 1.240 . S
O891 Mn865 2.117 . S
O891 C868 1.264 . S
C892 C885 1.403 . S
C892 C893 1.399 . S
C892 H898 0.929 . S
C893 C873 1.449 . S
C893 C892 1.399 . S
C893 H899 0.930 . S
H894 C874 0.931 . S
H895 C875 0.930 . S
H896 C883 0.931 . S
H897 C884 0.929 . S
H898 C892 0.929 . S
H899 C893 0.930 . S
C900 C901 1.391 . S
C900 C902 1.394 . S
C900 H916 0.931 . S
C901 C900 1.391 . S
C901 C905 1.376 . S
C902 C900 1.394 . S
C902 C903 1.369 . S
C902 C906 1.531 . S
C903 C902 1.369 . S
C903 C904 1.410 . S
C903 C911 1.503 . S
C904 C903 1.410 . S
C904 C905 1.392 . S
C904 C907 1.511 . S
C905 C901 1.376 . S
C905 C904 1.392 . S
C905 H917 0.929 . S
C906 C902 1.531 . S
C906 H918 0.960 . S
C906 H919 0.962 . S
C906 H920 0.960 . S
C907 C904 1.511 . S
C907 H921 0.961 . S
C907 H922 0.961 . S
C907 H923 0.961 . S
C908 C909 1.370 . S
C908 C910 1.363 . S
C908 H924 0.931 . S
C909 C908 1.370 . S
C909 C913 1.408 . S
C910 C908 1.363 . S
C910 C911 1.370 . S
C910 C914 1.524 . S
C911 C903 1.503 . S
C911 C910 1.370 . S
C911 C912 1.403 . S
C912 C911 1.403 . S
C912 C913 1.404 . S
C912 C915 1.539 . S
C913 C909 1.408 . S
C913 C912 1.404 . S
C913 H925 0.930 . S
C914 C910 1.524 . S
C914 H926 0.956 . S
C914 H927 0.961 . S
C914 H928 0.961 . S
C915 C912 1.539 . S
C915 H929 0.958 . S
C915 H930 0.961 . S
C915 H931 0.960 . S
H916 C900 0.931 . S
H917 C905 0.929 . S
H918 C906 0.960 . S
H919 C906 0.962 . S
H920 C906 0.960 . S
H921 C907 0.961 . S
H922 C907 0.961 . S
H923 C907 0.961 . S
H924 C908 0.931 . S
H925 C913 0.930 . S
H926 C914 0.956 . S
H927 C914 0.961 . S
H928 C914 0.961 . S
H929 C915 0.958 . S
H930 C915 0.961 . S
H931 C915 0.960 . S
C932 C933 1.391 . S
C932 C934 1.394 . S
C932 H948 0.931 . S
C933 C932 1.391 . S
C933 C937 1.376 . S
C934 C932 1.394 . S
C934 C935 1.369 . S
C934 C938 1.531 . S
C935 C934 1.369 . S
C935 C936 1.410 . S
C935 C943 1.503 . S
C936 C935 1.410 . S
C936 C937 1.392 . S
C936 C939 1.511 . S
C937 C933 1.376 . S
C937 C936 1.392 . S
C937 H949 0.929 . S
C938 C934 1.531 . S
C938 H950 0.960 . S
C938 H951 0.962 . S
C938 H952 0.960 . S
C939 C936 1.511 . S
C939 H953 0.961 . S
C939 H954 0.961 . S
C939 H955 0.961 . S
C940 C941 1.370 . S
C940 C942 1.363 . S
C940 H956 0.931 . S
C941 C940 1.370 . S
C941 C945 1.408 . S
C942 C940 1.363 . S
C942 C943 1.370 . S
C942 C946 1.524 . S
C943 C935 1.503 . S
C943 C942 1.370 . S
C943 C944 1.403 . S
C944 C943 1.403 . S
C944 C945 1.404 . S
C944 C947 1.539 . S
C945 C941 1.408 . S
C945 C944 1.404 . S
C945 H957 0.930 . S
C946 C942 1.524 . S
C946 H958 0.956 . S
C946 H959 0.961 . S
C946 H960 0.961 . S
C947 C944 1.539 . S
C947 H961 0.958 . S
C947 H962 0.961 . S
C947 H963 0.960 . S
H948 C932 0.931 . S
H949 C937 0.929 . S
H950 C938 0.960 . S
H951 C938 0.962 . S
H952 C938 0.960 . S
H953 C939 0.961 . S
H954 C939 0.961 . S
H955 C939 0.961 . S
H956 C940 0.931 . S
H957 C945 0.930 . S
H958 C946 0.956 . S
H959 C946 0.961 . S
H960 C946 0.961 . S
H961 C947 0.958 . S
H962 C947 0.961 . S
H963 C947 0.960 . S
C964 C965 1.391 . S
C964 C966 1.394 . S
C964 H980 0.931 . S
C965 C964 1.391 . S
C965 C969 1.376 . S
C966 C964 1.394 . S
C966 C967 1.369 . S
C966 C970 1.531 . S
C967 C966 1.369 . S
C967 C968 1.410 . S
C967 C975 1.503 . S
C968 C967 1.410 . S
C968 C969 1.392 . S
C968 C971 1.511 . S
C969 C965 1.376 . S
C969 C968 1.392 . S
C969 H981 0.929 . S
C970 C966 1.531 . S
C970 H982 0.960 . S
C970 H983 0.962 . S
C970 H984 0.960 . S
C971 C968 1.511 . S
C971 H985 0.961 . S
C971 H986 0.961 . S
C971 H987 0.961 . S
C972 C973 1.370 . S
C972 C974 1.363 . S
C972 H988 0.931 . S
C973 C972 1.370 . S
C973 C977 1.408 . S
C974 C972 1.363 . S
C974 C975 1.370 . S
C974 C978 1.524 . S
C975 C967 1.503 . S
C975 C974 1.370 . S
C975 C976 1.403 . S
C976 C975 1.403 . S
C976 C977 1.404 . S
C976 C979 1.539 . S
C977 C973 1.408 . S
C977 C976 1.404 . S
C977 H989 0.930 . S
C978 C974 1.524 . S
C978 H990 0.956 . S
C978 H991 0.961 . S
C978 H992 0.961 . S
C979 C976 1.539 . S
C979 H993 0.958 . S
C979 H994 0.961 . S
C979 H995 0.960 . S
H980 C964 0.931 . S
H981 C969 0.929 . S
H982 C970 0.960 . S
H983 C970 0.962 . S
H984 C970 0.960 . S
H985 C971 0.961 . S
H986 C971 0.961 . S
H987 C971 0.961 . S
H988 C972 0.931 . S
H989 C977 0.930 . S
H990 C978 0.956 . S
H991 C978 0.961 . S
H992 C978 0.961 . S
H993 C979 0.958 . S
H994 C979 0.961 . S
H995 C979 0.960 . S
C996 C997 1.391 . S
C996 C998 1.394 . S
C996 H1012 0.931 . S
C997 C996 1.391 . S
C997 C1001 1.376 . S
C998 C996 1.394 . S
C998 C999 1.369 . S
C998 C1002 1.531 . S
C999 C998 1.369 . S
C999 C1000 1.410 . S
C999 C1007 1.503 . S
C1000 C999 1.410 . S
C1000 C1001 1.392 . S
C1000 C1003 1.511 . S
C1001 C997 1.376 . S
C1001 C1000 1.392 . S
C1001 H1013 0.929 . S
C1002 C998 1.531 . S
C1002 H1014 0.960 . S
C1002 H1015 0.962 . S
C1002 H1016 0.960 . S
C1003 C1000 1.511 . S
C1003 H1017 0.961 . S
C1003 H1018 0.961 . S
C1003 H1019 0.961 . S
C1004 C1005 1.370 . S
C1004 C1006 1.363 . S
C1004 H1020 0.931 . S
C1005 C1004 1.370 . S
C1005 C1009 1.408 . S
C1006 C1004 1.363 . S
C1006 C1007 1.370 . S
C1006 C1010 1.524 . S
C1007 C999 1.503 . S
C1007 C1006 1.370 . S
C1007 C1008 1.403 . S
C1008 C1007 1.403 . S
C1008 C1009 1.404 . S
C1008 C1011 1.539 . S
C1009 C1005 1.408 . S
C1009 C1008 1.404 . S
C1009 H1021 0.930 . S
C1010 C1006 1.524 . S
C1010 H1022 0.956 . S
C1010 H1023 0.961 . S
C1010 H1024 0.961 . S
C1011 C1008 1.539 . S
C1011 H1025 0.958 . S
C1011 H1026 0.961 . S
C1011 H1027 0.960 . S
H1012 C996 0.931 . S
H1013 C1001 0.929 . S
H1014 C1002 0.960 . S
H1015 C1002 0.962 . S
H1016 C1002 0.960 . S
H1017 C1003 0.961 . S
H1018 C1003 0.961 . S
H1019 C1003 0.961 . S
H1020 C1004 0.931 . S
H1021 C1009 0.930 . S
H1022 C1010 0.956 . S
H1023 C1010 0.961 . S
H1024 C1010 0.961 . S
H1025 C1011 0.958 . S
H1026 C1011 0.961 . S
H1027 C1011 0.960 . S
C1028 C1029 1.391 . S
C1028 C1030 1.394 . S
C1028 H1044 0.931 . S
C1029 C1028 1.391 . S
C1029 C1033 1.376 . S
C1030 C1028 1.394 . S
C1030 C1031 1.369 . S
C1030 C1034 1.531 . S
C1031 C1030 1.369 . S
C1031 C1032 1.410 . S
C1031 C1039 1.503 . S
C1032 C1031 1.410 . S
C1032 C1033 1.392 . S
C1032 C1035 1.511 . S
C1033 C1029 1.376 . S
C1033 C1032 1.392 . S
C1033 H1045 0.929 . S
C1034 C1030 1.531 . S
C1034 H1046 0.960 . S
C1034 H1047 0.962 . S
C1034 H1048 0.960 . S
C1035 C1032 1.511 . S
C1035 H1049 0.961 . S
C1035 H1050 0.961 . S
C1035 H1051 0.961 . S
C1036 C1037 1.370 . S
C1036 C1038 1.363 . S
C1036 H1052 0.931 . S
C1037 C1036 1.370 . S
C1037 C1041 1.408 . S
C1038 C1036 1.363 . S
C1038 C1039 1.370 . S
C1038 C1042 1.524 . S
C1039 C1031 1.503 . S
C1039 C1038 1.370 . S
C1039 C1040 1.403 . S
C1040 C1039 1.403 . S
C1040 C1041 1.404 . S
C1040 C1043 1.539 . S
C1041 C1037 1.408 . S
C1041 C1040 1.404 . S
C1041 H1053 0.930 . S
C1042 C1038 1.524 . S
C1042 H1054 0.956 . S
C1042 H1055 0.961 . S
C1042 H1056 0.961 . S
C1043 C1040 1.539 . S
C1043 H1057 0.958 . S
C1043 H1058 0.961 . S
C1043 H1059 0.960 . S
H1044 C1028 0.931 . S
H1045 C1033 0.929 . S
H1046 C1034 0.960 . S
H1047 C1034 0.962 . S
H1048 C1034 0.960 . S
H1049 C1035 0.961 . S
H1050 C1035 0.961 . S
H1051 C1035 0.961 . S
H1052 C1036 0.931 . S
H1053 C1041 0.930 . S
H1054 C1042 0.956 . S
H1055 C1042 0.961 . S
H1056 C1042 0.961 . S
H1057 C1043 0.958 . S
H1058 C1043 0.961 . S
H1059 C1043 0.960 . S
C1060 C1061 1.391 . S
C1060 C1062 1.394 . S
C1060 H1076 0.931 . S
C1061 C1060 1.391 . S
C1061 C1065 1.376 . S
C1062 C1060 1.394 . S
C1062 C1063 1.369 . S
C1062 C1066 1.531 . S
C1063 C1062 1.369 . S
C1063 C1064 1.410 . S
C1063 C1071 1.503 . S
C1064 C1063 1.410 . S
C1064 C1065 1.392 . S
C1064 C1067 1.511 . S
C1065 C1061 1.376 . S
C1065 C1064 1.392 . S
C1065 H1077 0.929 . S
C1066 C1062 1.531 . S
C1066 H1078 0.960 . S
C1066 H1079 0.962 . S
C1066 H1080 0.960 . S
C1067 C1064 1.511 . S
C1067 H1081 0.961 . S
C1067 H1082 0.961 . S
C1067 H1083 0.961 . S
C1068 C1069 1.370 . S
C1068 C1070 1.363 . S
C1068 H1084 0.931 . S
C1069 C1068 1.370 . S
C1069 C1073 1.408 . S
C1070 C1068 1.363 . S
C1070 C1071 1.370 . S
C1070 C1074 1.524 . S
C1071 C1063 1.503 . S
C1071 C1070 1.370 . S
C1071 C1072 1.403 . S
C1072 C1071 1.403 . S
C1072 C1073 1.404 . S
C1072 C1075 1.539 . S
C1073 C1069 1.408 . S
C1073 C1072 1.404 . S
C1073 H1085 0.930 . S
C1074 C1070 1.524 . S
C1074 H1086 0.956 . S
C1074 H1087 0.961 . S
C1074 H1088 0.961 . S
C1075 C1072 1.539 . S
C1075 H1089 0.958 . S
C1075 H1090 0.961 . S
C1075 H1091 0.960 . S
H1076 C1060 0.931 . S
H1077 C1065 0.929 . S
H1078 C1066 0.960 . S
H1079 C1066 0.962 . S
H1080 C1066 0.960 . S
H1081 C1067 0.961 . S
H1082 C1067 0.961 . S
H1083 C1067 0.961 . S
H1084 C1068 0.931 . S
H1085 C1073 0.930 . S
H1086 C1074 0.956 . S
H1087 C1074 0.961 . S
H1088 C1074 0.961 . S
H1089 C1075 0.958 . S
H1090 C1075 0.961 . S
H1091 C1075 0.960 . S
C1092 C1093 1.391 . S
C1092 C1094 1.394 . S
C1092 H1108 0.931 . S
C1093 C1092 1.391 . S
C1093 C1097 1.376 . S
C1094 C1092 1.394 . S
C1094 C1095 1.369 . S
C1094 C1098 1.531 . S
C1095 C1094 1.369 . S
C1095 C1096 1.410 . S
C1095 C1103 1.503 . S
C1096 C1095 1.410 . S
C1096 C1097 1.392 . S
C1096 C1099 1.511 . S
C1097 C1093 1.376 . S
C1097 C1096 1.392 . S
C1097 H1109 0.929 . S
C1098 C1094 1.531 . S
C1098 H1110 0.960 . S
C1098 H1111 0.962 . S
C1098 H1112 0.960 . S
C1099 C1096 1.511 . S
C1099 H1113 0.961 . S
C1099 H1114 0.961 . S
C1099 H1115 0.961 . S
C1100 C1101 1.370 . S
C1100 C1102 1.363 . S
C1100 H1116 0.931 . S
C1101 C1100 1.370 . S
C1101 C1105 1.408 . S
C1102 C1100 1.363 . S
C1102 C1103 1.370 . S
C1102 C1106 1.524 . S
C1103 C1095 1.503 . S
C1103 C1102 1.370 . S
C1103 C1104 1.403 . S
C1104 C1103 1.403 . S
C1104 C1105 1.404 . S
C1104 C1107 1.539 . S
C1105 C1101 1.408 . S
C1105 C1104 1.404 . S
C1105 H1117 0.930 . S
C1106 C1102 1.524 . S
C1106 H1118 0.956 . S
C1106 H1119 0.961 . S
C1106 H1120 0.961 . S
C1107 C1104 1.539 . S
C1107 H1121 0.958 . S
C1107 H1122 0.961 . S
C1107 H1123 0.960 . S
H1108 C1092 0.931 . S
H1109 C1097 0.929 . S
H1110 C1098 0.960 . S
H1111 C1098 0.962 . S
H1112 C1098 0.960 . S
H1113 C1099 0.961 . S
H1114 C1099 0.961 . S
H1115 C1099 0.961 . S
H1116 C1100 0.931 . S
H1117 C1105 0.930 . S
H1118 C1106 0.956 . S
H1119 C1106 0.961 . S
H1120 C1106 0.961 . S
H1121 C1107 0.958 . S
H1122 C1107 0.961 . S
H1123 C1107 0.960 . S
C1124 C1125 1.391 . S
C1124 C1126 1.394 . S
C1124 H1140 0.931 . S
C1125 C1124 1.391 . S
C1125 C1129 1.376 . S
C1126 C1124 1.394 . S
C1126 C1127 1.369 . S
C1126 C1130 1.531 . S
C1127 C1126 1.369 . S
C1127 C1128 1.410 . S
C1127 C1135 1.503 . S
C1128 C1127 1.410 . S
C1128 C1129 1.392 . S
C1128 C1131 1.511 . S
C1129 C1125 1.376 . S
C1129 C1128 1.392 . S
C1129 H1141 0.929 . S
C1130 C1126 1.531 . S
C1130 H1142 0.960 . S
C1130 H1143 0.962 . S
C1130 H1144 0.960 . S
C1131 C1128 1.511 . S
C1131 H1145 0.961 . S
C1131 H1146 0.961 . S
C1131 H1147 0.961 . S
C1132 C1133 1.370 . S
C1132 C1134 1.363 . S
C1132 H1148 0.931 . S
C1133 C1132 1.370 . S
C1133 C1137 1.408 . S
C1134 C1132 1.363 . S
C1134 C1135 1.370 . S
C1134 C1138 1.524 . S
C1135 C1127 1.503 . S
C1135 C1134 1.370 . S
C1135 C1136 1.403 . S
C1136 C1135 1.403 . S
C1136 C1137 1.404 . S
C1136 C1139 1.539 . S
C1137 C1133 1.408 . S
C1137 C1136 1.404 . S
C1137 H1149 0.930 . S
C1138 C1134 1.524 . S
C1138 H1150 0.956 . S
C1138 H1151 0.961 . S
C1138 H1152 0.961 . S
C1139 C1136 1.539 . S
C1139 H1153 0.958 . S
C1139 H1154 0.961 . S
C1139 H1155 0.960 . S
H1140 C1124 0.931 . S
H1141 C1129 0.929 . S
H1142 C1130 0.960 . S
H1143 C1130 0.962 . S
H1144 C1130 0.960 . S
H1145 C1131 0.961 . S
H1146 C1131 0.961 . S
H1147 C1131 0.961 . S
H1148 C1132 0.931 . S
H1149 C1137 0.930 . S
H1150 C1138 0.956 . S
H1151 C1138 0.961 . S
H1152 C1138 0.961 . S
H1153 C1139 0.958 . S
H1154 C1139 0.961 . S
H1155 C1139 0.960 . S
C1156 C1157 1.391 . S
C1156 C1158 1.394 . S
C1156 H1172 0.931 . S
C1157 C1156 1.391 . S
C1157 C1161 1.376 . S
C1158 C1156 1.394 . S
C1158 C1159 1.369 . S
C1158 C1162 1.531 . S
C1159 C1158 1.369 . S
C1159 C1160 1.410 . S
C1159 C1167 1.503 . S
C1160 C1159 1.410 . S
C1160 C1161 1.392 . S
C1160 C1163 1.511 . S
C1161 C1157 1.376 . S
C1161 C1160 1.392 . S
C1161 H1173 0.929 . S
C1162 C1158 1.531 . S
C1162 H1174 0.960 . S
C1162 H1175 0.962 . S
C1162 H1176 0.960 . S
C1163 C1160 1.511 . S
C1163 H1177 0.961 . S
C1163 H1178 0.961 . S
C1163 H1179 0.961 . S
C1164 C1165 1.370 . S
C1164 C1166 1.363 . S
C1164 H1180 0.931 . S
C1165 C1164 1.370 . S
C1165 C1169 1.408 . S
C1166 C1164 1.363 . S
C1166 C1167 1.370 . S
C1166 C1170 1.524 . S
C1167 C1159 1.503 . S
C1167 C1166 1.370 . S
C1167 C1168 1.403 . S
C1168 C1167 1.403 . S
C1168 C1169 1.404 . S
C1168 C1171 1.539 . S
C1169 C1165 1.408 . S
C1169 C1168 1.404 . S
C1169 H1181 0.930 . S
C1170 C1166 1.524 . S
C1170 H1182 0.956 . S
C1170 H1183 0.961 . S
C1170 H1184 0.961 . S
C1171 C1168 1.539 . S
C1171 H1185 0.958 . S
C1171 H1186 0.961 . S
C1171 H1187 0.960 . S
H1172 C1156 0.931 . S
H1173 C1161 0.929 . S
H1174 C1162 0.960 . S
H1175 C1162 0.962 . S
H1176 C1162 0.960 . S
H1177 C1163 0.961 . S
H1178 C1163 0.961 . S
H1179 C1163 0.961 . S
H1180 C1164 0.931 . S
H1181 C1169 0.930 . S
H1182 C1170 0.956 . S
H1183 C1170 0.961 . S
H1184 C1170 0.961 . S
H1185 C1171 0.958 . S
H1186 C1171 0.961 . S
H1187 C1171 0.960 . S
C1188 C1189 1.391 . S
C1188 C1190 1.394 . S
C1188 H1204 0.931 . S
C1189 C1188 1.391 . S
C1189 C1193 1.376 . S
C1190 C1188 1.394 . S
C1190 C1191 1.369 . S
C1190 C1194 1.531 . S
C1191 C1190 1.369 . S
C1191 C1192 1.410 . S
C1191 C1199 1.503 . S
C1192 C1191 1.410 . S
C1192 C1193 1.392 . S
C1192 C1195 1.511 . S
C1193 C1189 1.376 . S
C1193 C1192 1.392 . S
C1193 H1205 0.929 . S
C1194 C1190 1.531 . S
C1194 H1206 0.960 . S
C1194 H1207 0.962 . S
C1194 H1208 0.960 . S
C1195 C1192 1.511 . S
C1195 H1209 0.961 . S
C1195 H1210 0.961 . S
C1195 H1211 0.961 . S
C1196 C1197 1.370 . S
C1196 C1198 1.363 . S
C1196 H1212 0.931 . S
C1197 C1196 1.370 . S
C1197 C1201 1.408 . S
C1198 C1196 1.363 . S
C1198 C1199 1.370 . S
C1198 C1202 1.524 . S
C1199 C1191 1.503 . S
C1199 C1198 1.370 . S
C1199 C1200 1.403 . S
C1200 C1199 1.403 . S
C1200 C1201 1.404 . S
C1200 C1203 1.539 . S
C1201 C1197 1.408 . S
C1201 C1200 1.404 . S
C1201 H1213 0.930 . S
C1202 C1198 1.524 . S
C1202 H1214 0.956 . S
C1202 H1215 0.961 . S
C1202 H1216 0.961 . S
C1203 C1200 1.539 . S
C1203 H1217 0.958 . S
C1203 H1218 0.961 . S
C1203 H1219 0.960 . S
H1204 C1188 0.931 . S
H1205 C1193 0.929 . S
H1206 C1194 0.960 . S
H1207 C1194 0.962 . S
H1208 C1194 0.960 . S
H1209 C1195 0.961 . S
H1210 C1195 0.961 . S
H1211 C1195 0.961 . S
H1212 C1196 0.931 . S
H1213 C1201 0.930 . S
H1214 C1202 0.956 . S
H1215 C1202 0.961 . S
H1216 C1202 0.961 . S
H1217 C1203 0.958 . S
H1218 C1203 0.961 . S
H1219 C1203 0.960 . S
C1220 C1221 1.391 . S
C1220 C1222 1.394 . S
C1220 H1236 0.931 . S
C1221 C1220 1.391 . S
C1221 C1225 1.376 . S
C1222 C1220 1.394 . S
C1222 C1223 1.369 . S
C1222 C1226 1.531 . S
C1223 C1222 1.369 . S
C1223 C1224 1.410 . S
C1223 C1231 1.503 . S
C1224 C1223 1.410 . S
C1224 C1225 1.392 . S
C1224 C1227 1.511 . S
C1225 C1221 1.376 . S
C1225 C1224 1.392 . S
C1225 H1237 0.929 . S
C1226 C1222 1.531 . S
C1226 H1238 0.960 . S
C1226 H1239 0.962 . S
C1226 H1240 0.960 . S
C1227 C1224 1.511 . S
C1227 H1241 0.961 . S
C1227 H1242 0.961 . S
C1227 H1243 0.961 . S
C1228 C1229 1.370 . S
C1228 C1230 1.363 . S
C1228 H1244 0.931 . S
C1229 C1228 1.370 . S
C1229 C1233 1.408 . S
C1230 C1228 1.363 . S
C1230 C1231 1.370 . S
C1230 C1234 1.524 . S
C1231 C1223 1.503 . S
C1231 C1230 1.370 . S
C1231 C1232 1.403 . S
C1232 C1231 1.403 . S
C1232 C1233 1.404 . S
C1232 C1235 1.539 . S
C1233 C1229 1.408 . S
C1233 C1232 1.404 . S
C1233 H1245 0.930 . S
C1234 C1230 1.524 . S
C1234 H1246 0.956 . S
C1234 H1247 0.961 . S
C1234 H1248 0.961 . S
C1235 C1232 1.539 . S
C1235 H1249 0.958 . S
C1235 H1250 0.961 . S
C1235 H1251 0.960 . S
H1236 C1220 0.931 . S
H1237 C1225 0.929 . S
H1238 C1226 0.960 . S
H1239 C1226 0.962 . S
H1240 C1226 0.960 . S
H1241 C1227 0.961 . S
H1242 C1227 0.961 . S
H1243 C1227 0.961 . S
H1244 C1228 0.931 . S
H1245 C1233 0.930 . S
H1246 C1234 0.956 . S
H1247 C1234 0.961 . S
H1248 C1234 0.961 . S
H1249 C1235 0.958 . S
H1250 C1235 0.961 . S
H1251 C1235 0.960 . S
C1252 C1253 1.391 . S
C1252 C1254 1.394 . S
C1252 H1268 0.931 . S
C1253 C1252 1.391 . S
C1253 C1257 1.376 . S
C1254 C1252 1.394 . S
C1254 C1255 1.369 . S
C1254 C1258 1.531 . S
C1255 C1254 1.369 . S
C1255 C1256 1.410 . S
C1255 C1263 1.503 . S
C1256 C1255 1.410 . S
C1256 C1257 1.392 . S
C1256 C1259 1.511 . S
C1257 C1253 1.376 . S
C1257 C1256 1.392 . S
C1257 H1269 0.929 . S
C1258 C1254 1.531 . S
C1258 H1270 0.960 . S
C1258 H1271 0.962 . S
C1258 H1272 0.960 . S
C1259 C1256 1.511 . S
C1259 H1273 0.961 . S
C1259 H1274 0.961 . S
C1259 H1275 0.961 . S
C1260 C1261 1.370 . S
C1260 C1262 1.363 . S
C1260 H1276 0.931 . S
C1261 C1260 1.370 . S
C1261 C1265 1.408 . S
C1262 C1260 1.363 . S
C1262 C1263 1.370 . S
C1262 C1266 1.524 . S
C1263 C1255 1.503 . S
C1263 C1262 1.370 . S
C1263 C1264 1.403 . S
C1264 C1263 1.403 . S
C1264 C1265 1.404 . S
C1264 C1267 1.539 . S
C1265 C1261 1.408 . S
C1265 C1264 1.404 . S
C1265 H1277 0.930 . S
C1266 C1262 1.524 . S
C1266 H1278 0.956 . S
C1266 H1279 0.961 . S
C1266 H1280 0.961 . S
C1267 C1264 1.539 . S
C1267 H1281 0.958 . S
C1267 H1282 0.961 . S
C1267 H1283 0.960 . S
H1268 C1252 0.931 . S
H1269 C1257 0.929 . S
H1270 C1258 0.960 . S
H1271 C1258 0.962 . S
H1272 C1258 0.960 . S
H1273 C1259 0.961 . S
H1274 C1259 0.961 . S
H1275 C1259 0.961 . S
H1276 C1260 0.931 . S
H1277 C1265 0.930 . S
H1278 C1266 0.956 . S
H1279 C1266 0.961 . S
H1280 C1266 0.961 . S
H1281 C1267 0.958 . S
H1282 C1267 0.961 . S
H1283 C1267 0.960 . S
C1284 C1285 1.391 . S
C1284 C1286 1.394 . S
C1284 H1300 0.931 . S
C1285 C1284 1.391 . S
C1285 C1289 1.376 . S
C1286 C1284 1.394 . S
C1286 C1287 1.369 . S
C1286 C1290 1.531 . S
C1287 C1286 1.369 . S
C1287 C1288 1.410 . S
C1287 C1295 1.503 . S
C1288 C1287 1.410 . S
C1288 C1289 1.392 . S
C1288 C1291 1.511 . S
C1289 C1285 1.376 . S
C1289 C1288 1.392 . S
C1289 H1301 0.929 . S
C1290 C1286 1.531 . S
C1290 H1302 0.960 . S
C1290 H1303 0.962 . S
C1290 H1304 0.960 . S
C1291 C1288 1.511 . S
C1291 H1305 0.961 . S
C1291 H1306 0.961 . S
C1291 H1307 0.961 . S
C1292 C1293 1.370 . S
C1292 C1294 1.363 . S
C1292 H1308 0.931 . S
C1293 C1292 1.370 . S
C1293 C1297 1.408 . S
C1294 C1292 1.363 . S
C1294 C1295 1.370 . S
C1294 C1298 1.524 . S
C1295 C1287 1.503 . S
C1295 C1294 1.370 . S
C1295 C1296 1.403 . S
C1296 C1295 1.403 . S
C1296 C1297 1.404 . S
C1296 C1299 1.539 . S
C1297 C1293 1.408 . S
C1297 C1296 1.404 . S
C1297 H1309 0.930 . S
C1298 C1294 1.524 . S
C1298 H1310 0.956 . S
C1298 H1311 0.961 . S
C1298 H1312 0.961 . S
C1299 C1296 1.539 . S
C1299 H1313 0.958 . S
C1299 H1314 0.961 . S
C1299 H1315 0.960 . S
H1300 C1284 0.931 . S
H1301 C1289 0.929 . S
H1302 C1290 0.960 . S
H1303 C1290 0.962 . S
H1304 C1290 0.960 . S
H1305 C1291 0.961 . S
H1306 C1291 0.961 . S
H1307 C1291 0.961 . S
H1308 C1292 0.931 . S
H1309 C1297 0.930 . S
H1310 C1298 0.956 . S
H1311 C1298 0.961 . S
H1312 C1298 0.961 . S
H1313 C1299 0.958 . S
H1314 C1299 0.961 . S
H1315 C1299 0.960 . S
C1316 C1317 1.391 . S
C1316 C1318 1.394 . S
C1316 H1332 0.931 . S
C1317 C1316 1.391 . S
C1317 C1321 1.376 . S
C1318 C1316 1.394 . S
C1318 C1319 1.369 . S
C1318 C1322 1.531 . S
C1319 C1318 1.369 . S
C1319 C1320 1.410 . S
C1319 C1327 1.503 . S
C1320 C1319 1.410 . S
C1320 C1321 1.392 . S
C1320 C1323 1.511 . S
C1321 C1317 1.376 . S
C1321 C1320 1.392 . S
C1321 H1333 0.929 . S
C1322 C1318 1.531 . S
C1322 H1334 0.960 . S
C1322 H1335 0.962 . S
C1322 H1336 0.960 . S
C1323 C1320 1.511 . S
C1323 H1337 0.961 . S
C1323 H1338 0.961 . S
C1323 H1339 0.961 . S
C1324 C1325 1.370 . S
C1324 C1326 1.363 . S
C1324 H1340 0.931 . S
C1325 C1324 1.370 . S
C1325 C1329 1.408 . S
C1326 C1324 1.363 . S
C1326 C1327 1.370 . S
C1326 C1330 1.524 . S
C1327 C1319 1.503 . S
C1327 C1326 1.370 . S
C1327 C1328 1.403 . S
C1328 C1327 1.403 . S
C1328 C1329 1.404 . S
C1328 C1331 1.539 . S
C1329 C1325 1.408 . S
C1329 C1328 1.404 . S
C1329 H1341 0.930 . S
C1330 C1326 1.524 . S
C1330 H1342 0.956 . S
C1330 H1343 0.961 . S
C1330 H1344 0.961 . S
C1331 C1328 1.539 . S
C1331 H1345 0.958 . S
C1331 H1346 0.961 . S
C1331 H1347 0.960 . S
H1332 C1316 0.931 . S
H1333 C1321 0.929 . S
H1334 C1322 0.960 . S
H1335 C1322 0.962 . S
H1336 C1322 0.960 . S
H1337 C1323 0.961 . S
H1338 C1323 0.961 . S
H1339 C1323 0.961 . S
H1340 C1324 0.931 . S
H1341 C1329 0.930 . S
H1342 C1330 0.956 . S
H1343 C1330 0.961 . S
H1344 C1330 0.961 . S
H1345 C1331 0.958 . S
H1346 C1331 0.961 . S
H1347 C1331 0.960 . S
C1348 C1349 1.391 . S
C1348 C1350 1.394 . S
C1348 H1364 0.931 . S
C1349 C1348 1.391 . S
C1349 C1353 1.376 . S
C1350 C1348 1.394 . S
C1350 C1351 1.369 . S
C1350 C1354 1.531 . S
C1351 C1350 1.369 . S
C1351 C1352 1.410 . S
C1351 C1359 1.503 . S
C1352 C1351 1.410 . S
C1352 C1353 1.392 . S
C1352 C1355 1.511 . S
C1353 C1349 1.376 . S
C1353 C1352 1.392 . S
C1353 H1365 0.929 . S
C1354 C1350 1.531 . S
C1354 H1366 0.960 . S
C1354 H1367 0.962 . S
C1354 H1368 0.960 . S
C1355 C1352 1.511 . S
C1355 H1369 0.961 . S
C1355 H1370 0.961 . S
C1355 H1371 0.961 . S
C1356 C1357 1.370 . S
C1356 C1358 1.363 . S
C1356 H1372 0.931 . S
C1357 C1356 1.370 . S
C1357 C1361 1.408 . S
C1358 C1356 1.363 . S
C1358 C1359 1.370 . S
C1358 C1362 1.524 . S
C1359 C1351 1.503 . S
C1359 C1358 1.370 . S
C1359 C1360 1.403 . S
C1360 C1359 1.403 . S
C1360 C1361 1.404 . S
C1360 C1363 1.539 . S
C1361 C1357 1.408 . S
C1361 C1360 1.404 . S
C1361 H1373 0.930 . S
C1362 C1358 1.524 . S
C1362 H1374 0.956 . S
C1362 H1375 0.961 . S
C1362 H1376 0.961 . S
C1363 C1360 1.539 . S
C1363 H1377 0.958 . S
C1363 H1378 0.961 . S
C1363 H1379 0.960 . S
H1364 C1348 0.931 . S
H1365 C1353 0.929 . S
H1366 C1354 0.960 . S
H1367 C1354 0.962 . S
H1368 C1354 0.960 . S
H1369 C1355 0.961 . S
H1370 C1355 0.961 . S
H1371 C1355 0.961 . S
H1372 C1356 0.931 . S
H1373 C1361 0.930 . S
H1374 C1362 0.956 . S
H1375 C1362 0.961 . S
H1376 C1362 0.961 . S
H1377 C1363 0.958 . S
H1378 C1363 0.961 . S
H1379 C1363 0.960 . S
C1380 C1381 1.391 . S
C1380 C1382 1.394 . S
C1380 H1396 0.931 . S
C1381 C1380 1.391 . S
C1381 C1385 1.376 . S
C1382 C1380 1.394 . S
C1382 C1383 1.369 . S
C1382 C1386 1.531 . S
C1383 C1382 1.369 . S
C1383 C1384 1.410 . S
C1383 C1391 1.503 . S
C1384 C1383 1.410 . S
C1384 C1385 1.392 . S
C1384 C1387 1.511 . S
C1385 C1381 1.376 . S
C1385 C1384 1.392 . S
C1385 H1397 0.929 . S
C1386 C1382 1.531 . S
C1386 H1398 0.960 . S
C1386 H1399 0.962 . S
C1386 H1400 0.960 . S
C1387 C1384 1.511 . S
C1387 H1401 0.961 . S
C1387 H1402 0.961 1_556 S
C1387 H1403 0.961 . S
C1388 C1389 1.370 . S
C1388 C1390 1.363 1_554 S
C1388 H1404 0.931 . S
C1389 C1388 1.370 . S
C1389 C1393 1.408 . S
C1390 C1388 1.363 1_556 S
C1390 C1391 1.370 . S
C1390 C1394 1.524 . S
C1391 C1383 1.503 . S
C1391 C1390 1.370 . S
C1391 C1392 1.383 1_556 S
C1392 C1391 1.383 1_554 S
C1392 C1393 1.440 . S
C1392 C1395 1.526 1_554 S
C1393 C1389 1.408 . S
C1393 C1392 1.440 . S
C1393 H1405 0.930 . S
C1394 C1390 1.524 . S
C1394 H1406 0.956 . S
C1394 H1407 0.961 . S
C1394 H1408 0.961 . S
C1395 C1392 1.526 1_556 S
C1395 H1409 0.958 . S
C1395 H1410 0.961 1_556 S
C1395 H1411 0.960 . S
H1396 C1380 0.931 . S
H1397 C1385 0.929 . S
H1398 C1386 0.960 . S
H1399 C1386 0.962 . S
H1400 C1386 0.960 . S
H1401 C1387 0.961 . S
H1402 C1387 0.961 1_554 S
H1403 C1387 0.961 . S
H1404 C1388 0.931 . S
H1405 C1393 0.930 . S
H1406 C1394 0.956 . S
H1407 C1394 0.961 . S
H1408 C1394 0.961 . S
H1409 C1395 0.958 . S
H1410 C1395 0.961 1_554 S
H1411 C1395 0.960 . S
C1412 C1413 1.391 . S
C1412 C1414 1.394 . S
C1412 H1428 0.931 . S
C1413 C1412 1.391 . S
C1413 C1417 1.376 . S
C1414 C1412 1.394 . S
C1414 C1415 1.369 . S
C1414 C1418 1.531 . S
C1415 C1414 1.369 . S
C1415 C1416 1.410 . S
C1415 C1423 1.503 . S
C1416 C1415 1.410 . S
C1416 C1417 1.392 . S
C1416 C1419 1.511 . S
C1417 C1413 1.376 . S
C1417 C1416 1.392 . S
C1417 H1429 0.929 . S
C1418 C1414 1.531 . S
C1418 H1430 0.960 . S
C1418 H1431 0.962 . S
C1418 H1432 0.960 . S
C1419 C1416 1.511 . S
C1419 H1433 0.961 . S
C1419 H1434 0.961 . S
C1419 H1435 0.961 . S
C1420 C1421 1.370 . S
C1420 C1422 1.363 . S
C1420 H1436 0.931 . S
C1421 C1420 1.370 . S
C1421 C1425 1.408 . S
C1422 C1420 1.363 . S
C1422 C1423 1.370 . S
C1422 C1426 1.524 . S
C1423 C1415 1.503 . S
C1423 C1422 1.370 . S
C1423 C1424 1.403 . S
C1424 C1423 1.403 . S
C1424 C1425 1.404 . S
C1424 C1427 1.539 . S
C1425 C1421 1.408 . S
C1425 C1424 1.404 . S
C1425 H1437 0.930 . S
C1426 C1422 1.524 . S
C1426 H1438 0.956 . S
C1426 H1439 0.961 . S
C1426 H1440 0.961 . S
C1427 C1424 1.539 . S
C1427 H1441 0.958 . S
C1427 H1442 0.961 . S
C1427 H1443 0.960 . S
H1428 C1412 0.931 . S
H1429 C1417 0.929 . S
H1430 C1418 0.960 . S
H1431 C1418 0.962 . S
H1432 C1418 0.960 . S
H1433 C1419 0.961 . S
H1434 C1419 0.961 . S
H1435 C1419 0.961 . S
H1436 C1420 0.931 . S
H1437 C1425 0.930 . S
H1438 C1426 0.956 . S
H1439 C1426 0.961 . S
H1440 C1426 0.961 . S
H1441 C1427 0.958 . S
H1442 C1427 0.961 . S
H1443 C1427 0.960 . S
C1444 C1445 1.391 . S
C1444 C1446 1.394 . S
C1444 H1460 0.931 . S
C1445 C1444 1.391 . S
C1445 C1449 1.376 . S
C1446 C1444 1.394 . S
C1446 C1447 1.369 . S
C1446 C1450 1.531 . S
C1447 C1446 1.369 . S
C1447 C1448 1.410 . S
C1447 C1455 1.503 . S
C1448 C1447 1.410 . S
C1448 C1449 1.392 . S
C1448 C1451 1.511 . S
C1449 C1445 1.376 . S
C1449 C1448 1.392 . S
C1449 H1461 0.929 . S
C1450 C1446 1.531 . S
C1450 H1462 0.960 . S
C1450 H1463 0.962 . S
C1450 H1464 0.960 . S
C1451 C1448 1.511 . S
C1451 H1465 0.961 . S
C1451 H1466 0.961 . S
C1451 H1467 0.961 . S
C1452 C1453 1.370 . S
C1452 C1454 1.363 . S
C1452 H1468 0.931 . S
C1453 C1452 1.370 . S
C1453 C1457 1.408 . S
C1454 C1452 1.363 . S
C1454 C1455 1.370 . S
C1454 C1458 1.524 . S
C1455 C1447 1.503 . S
C1455 C1454 1.370 . S
C1455 C1456 1.403 . S
C1456 C1455 1.403 . S
C1456 C1457 1.404 . S
C1456 C1459 1.539 . S
C1457 C1453 1.408 . S
C1457 C1456 1.404 . S
C1457 H1469 0.930 . S
C1458 C1454 1.524 . S
C1458 H1470 0.956 . S
C1458 H1471 0.961 . S
C1458 H1472 0.961 . S
C1459 C1456 1.539 . S
C1459 H1473 0.958 . S
C1459 H1474 0.961 . S
C1459 H1475 0.960 . S
H1460 C1444 0.931 . S
H1461 C1449 0.929 . S
H1462 C1450 0.960 . S
H1463 C1450 0.962 . S
H1464 C1450 0.960 . S
H1465 C1451 0.961 . S
H1466 C1451 0.961 . S
H1467 C1451 0.961 . S
H1468 C1452 0.931 . S
H1469 C1457 0.930 . S
H1470 C1458 0.956 . S
H1471 C1458 0.961 . S
H1472 C1458 0.961 . S
H1473 C1459 0.958 . S
H1474 C1459 0.961 . S
H1475 C1459 0.960 . S
C1476 C1477 1.391 . S
C1476 C1478 1.394 . S
C1476 H1492 0.931 . S
C1477 C1476 1.391 . S
C1477 C1481 1.376 . S
C1478 C1476 1.394 . S
C1478 C1479 1.369 . S
C1478 C1482 1.531 . S
C1479 C1478 1.369 . S
C1479 C1480 1.410 . S
C1479 C1487 1.503 . S
C1480 C1479 1.410 . S
C1480 C1481 1.392 . S
C1480 C1483 1.511 . S
C1481 C1477 1.376 . S
C1481 C1480 1.392 . S
C1481 H1493 0.929 . S
C1482 C1478 1.531 . S
C1482 H1494 0.960 . S
C1482 H1495 0.962 . S
C1482 H1496 0.960 . S
C1483 C1480 1.511 . S
C1483 H1497 0.961 . S
C1483 H1498 0.961 . S
C1483 H1499 0.961 . S
C1484 C1485 1.370 . S
C1484 C1486 1.363 . S
C1484 H1500 0.931 . S
C1485 C1484 1.370 . S
C1485 C1489 1.408 . S
C1486 C1484 1.363 . S
C1486 C1487 1.370 . S
C1486 C1490 1.524 . S
C1487 C1479 1.503 . S
C1487 C1486 1.370 . S
C1487 C1488 1.403 . S
C1488 C1487 1.403 . S
C1488 C1489 1.404 . S
C1488 C1491 1.539 . S
C1489 C1485 1.408 . S
C1489 C1488 1.404 . S
C1489 H1501 0.930 . S
C1490 C1486 1.524 . S
C1490 H1502 0.956 . S
C1490 H1503 0.961 . S
C1490 H1504 0.961 . S
C1491 C1488 1.539 . S
C1491 H1505 0.958 . S
C1491 H1506 0.961 . S
C1491 H1507 0.960 . S
H1492 C1476 0.931 . S
H1493 C1481 0.929 . S
H1494 C1482 0.960 . S
H1495 C1482 0.962 . S
H1496 C1482 0.960 . S
H1497 C1483 0.961 . S
H1498 C1483 0.961 . S
H1499 C1483 0.961 . S
H1500 C1484 0.931 . S
H1501 C1489 0.930 . S
H1502 C1490 0.956 . S
H1503 C1490 0.961 . S
H1504 C1490 0.961 . S
H1505 C1491 0.958 . S
H1506 C1491 0.961 . S
H1507 C1491 0.960 . S
C1508 C1509 1.391 . S
C1508 C1510 1.394 . S
C1508 H1524 0.931 . S
C1509 C1508 1.391 . S
C1509 C1513 1.376 . S
C1510 C1508 1.394 . S
C1510 C1511 1.369 . S
C1510 C1514 1.531 . S
C1511 C1510 1.369 . S
C1511 C1512 1.410 . S
C1511 C1519 1.503 . S
C1512 C1511 1.410 . S
C1512 C1513 1.392 . S
C1512 C1515 1.511 . S
C1513 C1509 1.376 . S
C1513 C1512 1.392 . S
C1513 H1525 0.929 . S
C1514 C1510 1.531 . S
C1514 H1526 0.960 . S
C1514 H1527 0.962 . S
C1514 H1528 0.960 . S
C1515 C1512 1.511 . S
C1515 H1529 0.961 . S
C1515 H1530 0.961 . S
C1515 H1531 0.961 . S
C1516 C1517 1.370 . S
C1516 C1518 1.363 . S
C1516 H1532 0.931 . S
C1517 C1516 1.370 . S
C1517 C1521 1.408 . S
C1518 C1516 1.363 . S
C1518 C1519 1.370 . S
C1518 C1522 1.524 . S
C1519 C1511 1.503 . S
C1519 C1518 1.370 . S
C1519 C1520 1.403 . S
C1520 C1519 1.403 . S
C1520 C1521 1.404 . S
C1520 C1523 1.539 . S
C1521 C1517 1.408 . S
C1521 C1520 1.404 . S
C1521 H1533 0.930 . S
C1522 C1518 1.524 . S
C1522 H1534 0.956 . S
C1522 H1535 0.961 . S
C1522 H1536 0.961 . S
C1523 C1520 1.539 . S
C1523 H1537 0.958 . S
C1523 H1538 0.961 . S
C1523 H1539 0.960 . S
H1524 C1508 0.931 . S
H1525 C1513 0.929 . S
H1526 C1514 0.960 . S
H1527 C1514 0.962 . S
H1528 C1514 0.960 . S
H1529 C1515 0.961 . S
H1530 C1515 0.961 . S
H1531 C1515 0.961 . S
H1532 C1516 0.931 . S
H1533 C1521 0.930 . S
H1534 C1522 0.956 . S
H1535 C1522 0.961 . S
H1536 C1522 0.961 . S
H1537 C1523 0.958 . S
H1538 C1523 0.961 . S
H1539 C1523 0.960 . S
C1540 C1541 1.391 . S
C1540 C1542 1.394 . S
C1540 H1556 0.931 . S
C1541 C1540 1.391 . S
C1541 C1545 1.376 . S
C1542 C1540 1.394 . S
C1542 C1543 1.369 . S
C1542 C1546 1.531 . S
C1543 C1542 1.369 . S
C1543 C1544 1.410 . S
C1543 C1551 1.503 . S
C1544 C1543 1.410 . S
C1544 C1545 1.392 . S
C1544 C1547 1.511 . S
C1545 C1541 1.376 . S
C1545 C1544 1.392 . S
C1545 H1557 0.929 . S
C1546 C1542 1.531 . S
C1546 H1558 0.960 . S
C1546 H1559 0.962 . S
C1546 H1560 0.960 . S
C1547 C1544 1.511 . S
C1547 H1561 0.961 . S
C1547 H1562 0.961 . S
C1547 H1563 0.961 . S
C1548 C1549 1.370 . S
C1548 C1550 1.363 . S
C1548 H1564 0.931 . S
C1549 C1548 1.370 . S
C1549 C1553 1.408 . S
C1550 C1548 1.363 . S
C1550 C1551 1.370 . S
C1550 C1554 1.524 . S
C1551 C1543 1.503 . S
C1551 C1550 1.370 . S
C1551 C1552 1.403 . S
C1552 C1551 1.403 . S
C1552 C1553 1.404 . S
C1552 C1555 1.539 . S
C1553 C1549 1.408 . S
C1553 C1552 1.404 . S
C1553 H1565 0.930 . S
C1554 C1550 1.524 . S
C1554 H1566 0.956 . S
C1554 H1567 0.961 . S
C1554 H1568 0.961 . S
C1555 C1552 1.539 . S
C1555 H1569 0.958 . S
C1555 H1570 0.961 . S
C1555 H1571 0.960 . S
H1556 C1540 0.931 . S
H1557 C1545 0.929 . S
H1558 C1546 0.960 . S
H1559 C1546 0.962 . S
H1560 C1546 0.960 . S
H1561 C1547 0.961 . S
H1562 C1547 0.961 . S
H1563 C1547 0.961 . S
H1564 C1548 0.931 . S
H1565 C1553 0.930 . S
H1566 C1554 0.956 . S
H1567 C1554 0.961 . S
H1568 C1554 0.961 . S
H1569 C1555 0.958 . S
H1570 C1555 0.961 . S
H1571 C1555 0.960 . S
C1572 C1573 1.391 . S
C1572 C1574 1.394 . S
C1572 H1588 0.931 . S
C1573 C1572 1.391 . S
C1573 C1577 1.376 . S
C1574 C1572 1.394 . S
C1574 C1575 1.369 . S
C1574 C1578 1.531 . S
C1575 C1574 1.369 . S
C1575 C1576 1.410 . S
C1575 C1583 1.503 . S
C1576 C1575 1.410 . S
C1576 C1577 1.392 . S
C1576 C1579 1.511 . S
C1577 C1573 1.376 . S
C1577 C1576 1.392 . S
C1577 H1589 0.929 . S
C1578 C1574 1.531 . S
C1578 H1590 0.960 . S
C1578 H1591 0.962 . S
C1578 H1592 0.960 . S
C1579 C1576 1.511 . S
C1579 H1593 0.961 . S
C1579 H1594 0.961 . S
C1579 H1595 0.961 . S
C1580 C1581 1.370 . S
C1580 C1582 1.363 . S
C1580 H1596 0.931 . S
C1581 C1580 1.370 . S
C1581 C1585 1.408 . S
C1582 C1580 1.363 . S
C1582 C1583 1.370 . S
C1582 C1586 1.524 . S
C1583 C1575 1.503 . S
C1583 C1582 1.370 . S
C1583 C1584 1.403 . S
C1584 C1583 1.403 . S
C1584 C1585 1.404 . S
C1584 C1587 1.539 . S
C1585 C1581 1.408 . S
C1585 C1584 1.404 . S
C1585 H1597 0.930 . S
C1586 C1582 1.524 . S
C1586 H1598 0.956 . S
C1586 H1599 0.961 . S
C1586 H1600 0.961 . S
C1587 C1584 1.539 . S
C1587 H1601 0.958 . S
C1587 H1602 0.961 . S
C1587 H1603 0.960 . S
H1588 C1572 0.931 . S
H1589 C1577 0.929 . S
H1590 C1578 0.960 . S
H1591 C1578 0.962 . S
H1592 C1578 0.960 . S
H1593 C1579 0.961 . S
H1594 C1579 0.961 . S
H1595 C1579 0.961 . S
H1596 C1580 0.931 . S
H1597 C1585 0.930 . S
H1598 C1586 0.956 . S
H1599 C1586 0.961 . S
H1600 C1586 0.961 . S
H1601 C1587 0.958 . S
H1602 C1587 0.961 . S
H1603 C1587 0.960 . S
C1604 C1605 1.391 . S
C1604 C1606 1.394 . S
C1604 H1620 0.931 . S
C1605 C1604 1.391 . S
C1605 C1609 1.376 . S
C1606 C1604 1.394 . S
C1606 C1607 1.369 . S
C1606 C1610 1.531 1_554 S
C1607 C1606 1.369 . S
C1607 C1608 1.410 . S
C1607 C1615 1.503 1_554 S
C1608 C1607 1.410 . S
C1608 C1609 1.392 . S
C1608 C1611 1.511 . S
C1609 C1605 1.376 . S
C1609 C1608 1.392 . S
C1609 H1621 0.929 . S
C1610 C1606 1.531 1_556 S
C1610 H1622 0.960 . S
C1610 H1623 0.962 . S
C1610 H1624 0.960 . S
C1611 C1608 1.511 . S
C1611 H1625 0.961 . S
C1611 H1626 0.961 . S
C1611 H1627 0.961 . S
C1612 C1613 1.370 . S
C1612 C1614 1.363 . S
C1612 H1628 0.931 . S
C1613 C1612 1.370 . S
C1613 C1617 1.408 . S
C1614 C1612 1.363 . S
C1614 C1615 1.370 . S
C1614 C1618 1.524 . S
C1615 C1607 1.503 1_556 S
C1615 C1614 1.370 . S
C1615 C1616 1.403 . S
C1616 C1615 1.403 . S
C1616 C1617 1.404 . S
C1616 C1619 1.539 . S
C1617 C1613 1.408 . S
C1617 C1616 1.404 . S
C1617 H1629 0.930 . S
C1618 C1614 1.524 . S
C1618 H1630 0.956 . S
C1618 H1631 0.961 1_556 S
C1618 H1632 0.961 . S
C1619 C1616 1.539 . S
C1619 H1633 0.958 . S
C1619 H1634 0.961 . S
C1619 H1635 0.960 . S
H1620 C1604 0.931 . S
H1621 C1609 0.929 . S
H1622 C1610 0.960 . S
H1623 C1610 0.962 . S
H1624 C1610 0.960 . S
H1625 C1611 0.961 . S
H1626 C1611 0.961 . S
H1627 C1611 0.961 . S
H1628 C1612 0.931 . S
H1629 C1617 0.930 . S
H1630 C1618 0.956 . S
H1631 C1618 0.961 1_554 S
H1632 C1618 0.961 . S
H1633 C1619 0.958 . S
H1634 C1619 0.961 . S
H1635 C1619 0.960 . S
C1636 C1637 1.391 . S
C1636 C1638 1.394 . S
C1636 H1652 0.931 . S
C1637 C1636 1.391 . S
C1637 C1641 1.376 . S
C1638 C1636 1.394 . S
C1638 C1639 1.369 . S
C1638 C1642 1.531 . S
C1639 C1638 1.369 . S
C1639 C1640 1.410 . S
C1639 C1647 1.503 . S
C1640 C1639 1.410 . S
C1640 C1641 1.392 . S
C1640 C1643 1.511 . S
C1641 C1637 1.376 . S
C1641 C1640 1.392 . S
C1641 H1653 0.929 . S
C1642 C1638 1.531 . S
C1642 H1654 0.960 . S
C1642 H1655 0.962 . S
C1642 H1656 0.960 . S
C1643 C1640 1.511 . S
C1643 H1657 0.961 . S
C1643 H1658 0.961 . S
C1643 H1659 0.961 . S
C1644 C1645 1.370 . S
C1644 C1646 1.363 . S
C1644 H1660 0.931 . S
C1645 C1644 1.370 . S
C1645 C1649 1.408 . S
C1646 C1644 1.363 . S
C1646 C1647 1.370 . S
C1646 C1650 1.524 . S
C1647 C1639 1.503 . S
C1647 C1646 1.370 . S
C1647 C1648 1.403 . S
C1648 C1647 1.403 . S
C1648 C1649 1.404 . S
C1648 C1651 1.539 . S
C1649 C1645 1.408 . S
C1649 C1648 1.404 . S
C1649 H1661 0.930 . S
C1650 C1646 1.524 . S
C1650 H1662 0.956 . S
C1650 H1663 0.961 . S
C1650 H1664 0.961 . S
C1651 C1648 1.539 . S
C1651 H1665 0.958 . S
C1651 H1666 0.961 . S
C1651 H1667 0.960 . S
H1652 C1636 0.931 . S
H1653 C1641 0.929 . S
H1654 C1642 0.960 . S
H1655 C1642 0.962 . S
H1656 C1642 0.960 . S
H1657 C1643 0.961 . S
H1658 C1643 0.961 . S
H1659 C1643 0.961 . S
H1660 C1644 0.931 . S
H1661 C1649 0.930 . S
H1662 C1650 0.956 . S
H1663 C1650 0.961 . S
H1664 C1650 0.961 . S
H1665 C1651 0.958 . S
H1666 C1651 0.961 . S
H1667 C1651 0.960 . S
C909 C867 1.679 . S
C901 C1 1.294 . S
C933 C169 1.589 . S
C941 C687 1.837 . S
C965 C283 1.540 . S
C973 C734 1.817 . S
C997 C397 1.349 . S
C1005 C770 1.582 . S
C1037 C795 1.509 . S
C1029 C457 1.192 . S
C1061 C571 1.202 . S
C1069 C831 1.514 . S
C1093 C115 1.339 . S
C1101 C723 1.699 . S
C1125 C229 1.058 . S
C1133 C759 1.541 . S
C1157 C343 1.183 . S
C1165 C806 1.467 . S
C1197 C842 1.665 . S
C1189 C511 1.424 . S
C1229 C878 1.788 . S
C1221 C625 1.438 . S
C1261 C698 1.848 . S
C1253 C55 1.584 . S
C1285 C29 1.198 . S
C1293 C722 1.424 . S
C1317 C125 1.043 . S
C1325 C758 1.517 . S
C1357 C796 1.481 . S
C1349 C239 0.851 . S
C1381 C353 0.974 . S
C1389 C832 1.459 . S
C1421 C868 1.364 . S
C1413 C485 1.009 . S
C1453 C688 1.415 . S
C1445 C599 1.186 . S
C1485 C866 1.410 . S
C1477 C143 1.055 . S
C1509 C257 1.184 . S
C1517 C686 1.416 . S
C1549 C724 1.360 . S
C1541 C371 1.067 . S
C1573 C467 0.823 . S
C1581 C760 1.470 . S
C1605 C581 0.837 . S
C1613 C794 1.492 . S
C1637 C11 0.885 . S
C1645 C830 1.526 . S
