# Generated by pormake.
# Topology pyr, (3,6)-cn, num edge types: 1
# Building blocks:
#     Node 0, Type 0, BuildingBlock: CUQRIR_clean_linker_1, # of connection points: 3
#     Node 1, Type 0, BuildingBlock: CUQRIR_clean_linker_1, # of connection points: 3
#     Node 2, Type 0, BuildingBlock: CUQRIR_clean_linker_1, # of connection points: 3
#     Node 3, Type 0, BuildingBlock: CUQRIR_clean_linker_1, # of connection points: 3
#     Node 4, Type 0, BuildingBlock: CUQRIR_clean_linker_1, # of connection points: 3
#     Node 5, Type 0, BuildingBlock: CUQRIR_clean_linker_1, # of connection points: 3
#     Node 6, Type 0, BuildingBlock: CUQRIR_clean_linker_1, # of connection points: 3
#     Node 7, Type 0, BuildingBlock: CUQRIR_clean_linker_1, # of connection points: 3
#     Node 8, Type 1, BuildingBlock: BETFEN_clean_sbu_0, # of connection points: 6
#     Node 9, Type 1, BuildingBlock: BETFEN_clean_sbu_0, # of connection points: 6
#     Node 10, Type 1, BuildingBlock: BETFEN_clean_sbu_0, # of connection points: 6
#     Node 11, Type 1, BuildingBlock: BETFEN_clean_sbu_0, # of connection points: 6
#     Edge 12, Type (0, 1), BuildingBlock: CIFDUS_clean_linker_0, # of connection points: 2
#     Edge 13, Type (0, 1), BuildingBlock: CIFDUS_clean_linker_0, # of connection points: 2
#     Edge 14, Type (0, 1), BuildingBlock: CIFDUS_clean_linker_0, # of connection points: 2
#     Edge 15, Type (0, 1), BuildingBlock: CIFDUS_clean_linker_0, # of connection points: 2
#     Edge 16, Type (0, 1), BuildingBlock: CIFDUS_clean_linker_0, # of connection points: 2
#     Edge 17, Type (0, 1), BuildingBlock: CIFDUS_clean_linker_0, # of connection points: 2
#     Edge 18, Type (0, 1), BuildingBlock: CIFDUS_clean_linker_0, # of connection points: 2
#     Edge 19, Type (0, 1), BuildingBlock: CIFDUS_clean_linker_0, # of connection points: 2
#     Edge 20, Type (0, 1), BuildingBlock: CIFDUS_clean_linker_0, # of connection points: 2
#     Edge 21, Type (0, 1), BuildingBlock: CIFDUS_clean_linker_0, # of connection points: 2
#     Edge 22, Type (0, 1), BuildingBlock: CIFDUS_clean_linker_0, # of connection points: 2
#     Edge 23, Type (0, 1), BuildingBlock: CIFDUS_clean_linker_0, # of connection points: 2
#     Edge 24, Type (0, 1), BuildingBlock: CIFDUS_clean_linker_0, # of connection points: 2
#     Edge 25, Type (0, 1), BuildingBlock: CIFDUS_clean_linker_0, # of connection points: 2
#     Edge 26, Type (0, 1), BuildingBlock: CIFDUS_clean_linker_0, # of connection points: 2
#     Edge 27, Type (0, 1), BuildingBlock: CIFDUS_clean_linker_0, # of connection points: 2
#     Edge 28, Type (0, 1), BuildingBlock: CIFDUS_clean_linker_0, # of connection points: 2
#     Edge 29, Type (0, 1), BuildingBlock: CIFDUS_clean_linker_0, # of connection points: 2
#     Edge 30, Type (0, 1), BuildingBlock: CIFDUS_clean_linker_0, # of connection points: 2
#     Edge 31, Type (0, 1), BuildingBlock: CIFDUS_clean_linker_0, # of connection points: 2
#     Edge 32, Type (0, 1), BuildingBlock: CIFDUS_clean_linker_0, # of connection points: 2
#     Edge 33, Type (0, 1), BuildingBlock: CIFDUS_clean_linker_0, # of connection points: 2
#     Edge 34, Type (0, 1), BuildingBlock: CIFDUS_clean_linker_0, # of connection points: 2
#     Edge 35, Type (0, 1), BuildingBlock: CIFDUS_clean_linker_0, # of connection points: 2
# Relax obj value: 0.242
# Max RMSD: 0.348
# Mean RMSD: 0.172
data_MOF--net-pyr--node1-BETFEN_clean_sbu_0--node2-CUQRIR_clean_linker_1--edge1-CIFDUS_clean_linker_0
_symmetry_space_group_name_H-M    P1
_symmetry_Int_Tables_number       1
_symmetry_cell_setting            triclinic
loop_
_symmetry_equiv_pos_as_xyz
'x, y, z'
_cell_length_a     29.955375
_cell_length_b     33.057397
_cell_length_c     28.809579
_cell_angle_alpha  90.088361
_cell_angle_beta   100.98855
_cell_angle_gamma 116.81054
loop_
_atom_site_label
_atom_site_type_symbol
_atom_site_fract_x
_atom_site_fract_y
_atom_site_fract_z
_atom_type_partial_charge
C0 C 0.46505 0.45824 0.32484 0.0
N1 N 0.48796 0.43115 0.33332 0.0
N2 N 0.48979 0.49151 0.29831 0.0
C3 C 0.41436 0.44855 0.33682 0.0
C4 C 0.52816 0.48343 0.2902 0.0
N5 N 0.52759 0.44699 0.31212 0.0
C6 C 0.56407 0.50966 0.25895 0.0
H7 H 0.38886 0.41138 0.33409 0.0
H8 H 0.39382 0.46398 0.31318 0.0
H9 H 0.42149 0.46293 0.37387 0.0
H10 H 0.57251 0.546 0.2622 0.0
H11 H 0.54542 0.49566 0.2214 0.0
H12 H 0.60022 0.50689 0.26827 0.0
C13 C 0.29718 0.90545 0.71043 0.0
N14 N 0.28973 0.92937 0.74373 0.0
N15 N 0.32129 0.88203 0.73117 0.0
C16 C 0.28183 0.90527 0.65758 0.0
C17 C 0.3284 0.89246 0.77825 0.0
N18 N 0.30847 0.9208 0.7861 0.0
C19 C 0.36185 0.88083 0.81622 0.0
H20 H 0.27696 0.87375 0.63875 0.0
H21 H 0.31238 0.93489 0.64553 0.0
H22 H 0.24566 0.90798 0.6481 0.0
H23 H 0.37931 0.86192 0.8013 0.0
H24 H 0.33853 0.85956 0.84078 0.0
H25 H 0.39288 0.91246 0.83729 0.0
C26 C 0.59671 0.34817 0.86713 0.0
N27 N 0.62564 0.34366 0.90777 0.0
N28 N 0.62201 0.38917 0.85045 0.0
C29 C 0.54379 0.3129 0.8436 0.0
C30 C 0.66726 0.40941 0.88207 0.0
N31 N 0.66965 0.38213 0.91649 0.0
C32 C 0.70894 0.45662 0.87986 0.0
H33 H 0.53703 0.3145 0.80458 0.0
H34 H 0.51541 0.3199 0.8571 0.0
H35 H 0.53789 0.27822 0.85151 0.0
H36 H 0.70339 0.48144 0.90099 0.0
H37 H 0.7075 0.46576 0.84275 0.0
H38 H 0.74731 0.45951 0.89509 0.0
C39 C 0.87047 0.67276 0.36846 0.0
N40 N 0.90701 0.70872 0.35156 0.0
N41 N 0.84327 0.68629 0.39186 0.0
C42 C 0.86127 0.62422 0.36181 0.0
C43 C 0.86342 0.73142 0.38752 0.0
N44 N 0.90251 0.74567 0.36423 0.0
C45 C 0.8443 0.76224 0.40571 0.0
H46 H 0.85226 0.61316 0.32332 0.0
H47 H 0.82992 0.60052 0.37816 0.0
H48 H 0.89647 0.62194 0.37853 0.0
H49 H 0.80275 0.74329 0.40517 0.0
H50 H 0.85107 0.79126 0.38393 0.0
H51 H 0.86516 0.77614 0.44285 0.0
C52 C 0.59403 0.70244 0.79124 0.0
N53 N 0.62836 0.6889 0.78246 0.0
N54 N 0.59554 0.73737 0.76602 0.0
C55 C 0.56195 0.68497 0.82788 0.0
C56 C 0.62898 0.74171 0.73833 0.0
N57 N 0.65026 0.7135 0.74922 0.0
C58 C 0.64949 0.78117 0.70881 0.0
H59 H 0.52408 0.68391 0.81474 0.0
H60 H 0.58073 0.70873 0.86085 0.0
H61 H 0.55651 0.65045 0.83602 0.0
H62 H 0.6887 0.80633 0.72719 0.0
H63 H 0.62454 0.79814 0.70281 0.0
H64 H 0.65183 0.76918 0.67385 0.0
C65 C 0.82019 0.26396 0.49386 0.0
N66 N 0.83047 0.23819 0.46499 0.0
N67 N 0.79349 0.28323 0.46786 0.0
C68 C 0.83326 0.26823 0.54718 0.0
C69 C 0.78856 0.26868 0.42238 0.0
N70 N 0.81054 0.24104 0.42055 0.0
C71 C 0.75674 0.27705 0.37991 0.0
H72 H 0.80113 0.24094 0.56003 0.0
H73 H 0.8387 0.30153 0.56198 0.0
H74 H 0.86848 0.26464 0.56027 0.0
H75 H 0.74829 0.30529 0.38835 0.0
H76 H 0.7202 0.24551 0.36766 0.0
H77 H 0.77721 0.28584 0.3503 0.0
C78 C 0.4043 0.71015 0.29736 0.0
N79 N 0.45262 0.74283 0.31645 0.0
N80 N 0.37434 0.72822 0.27582 0.0
C81 C 0.38521 0.66016 0.30263 0.0
C82 C 0.40561 0.77351 0.28327 0.0
N83 N 0.45405 0.78296 0.30604 0.0
C84 C 0.39064 0.80855 0.26181 0.0
H85 H 0.40467 0.64737 0.28194 0.0
H86 H 0.34312 0.64068 0.28995 0.0
H87 H 0.39491 0.65429 0.34026 0.0
H88 H 0.35893 0.80811 0.27661 0.0
H89 H 0.37699 0.80008 0.22275 0.0
H90 H 0.42243 0.84371 0.26963 0.0
C91 C 0.14808 0.38886 0.78906 0.0
N92 N 0.1732 0.38975 0.75379 0.0
N93 N 0.16577 0.43115 0.81176 0.0
C94 C 0.10528 0.3467 0.80094 0.0
C95 C 0.20293 0.45791 0.78881 0.0
N96 N 0.20731 0.43321 0.75328 0.0
C97 C 0.23748 0.50777 0.80378 0.0
H98 H 0.07729 0.35514 0.81327 0.0
H99 H 0.12157 0.33229 0.83024 0.0
H100 H 0.0853 0.32034 0.77016 0.0
H101 H 0.24164 0.5157 0.84228 0.0
H102 H 0.22035 0.52789 0.7839 0.0
H103 H 0.27595 0.51824 0.79624 0.0
Pr104 Pr 1.03371 0.05682 0.58228 0.0
Pr105 Pr 0.09434 0.08779 0.51908 0.0
C106 C 0.96924 1.00756 0.6372 0.0
C107 C 0.94915 0.96154 0.65249 0.0
C108 C 0.92844 0.95331 0.69306 0.0
C109 C 0.90089 0.90876 0.70357 0.0
C110 C 0.89346 0.87157 0.67351 0.0
C111 C 0.91738 0.88015 0.63457 0.0
C112 C 0.94523 0.92491 0.62421 0.0
C113 C 0.08756 0.15317 0.60163 0.0
C114 C 0.14459 0.0581 0.61427 0.0
C115 C 0.15987 0.11849 0.46003 0.0
C116 C 0.21136 0.15064 0.4556 0.0
C117 C 0.24996 0.17502 0.49557 0.0
C118 C 0.29717 0.20911 0.48969 0.0
C119 C 0.30592 0.21925 0.4438 0.0
C120 C 0.26772 0.19289 0.40408 0.0
C121 C 0.22085 0.15883 0.41002 0.0
C122 C 1.02222 0.995 0.4899 0.0
C123 C 0.99589 0.10445 0.49833 0.0
O124 O 0.9546 1.00985 0.59199 0.0
O125 O 1.01733 0.03574 0.6547 0.0
O126 O 0.10762 0.12824 0.59213 0.0
O127 O 1.03927 0.12852 0.59983 0.0
O128 O 0.15612 0.08413 0.57958 0.0
O129 O 0.09762 0.03925 0.62109 0.0
O130 O 0.15527 0.08485 0.48556 0.0
O131 O 0.12937 0.13564 0.46559 0.0
O132 O 0.048 1.01156 0.53144 0.0
O133 O 1.02822 1.02778 0.4634 0.0
O134 O 0.97804 0.06728 0.52001 0.0
O135 O 0.04487 0.12526 0.49858 0.0
H136 H 0.93108 0.9812 0.71515 0.0
H137 H 0.88233 0.90352 0.73339 0.0
H138 H 0.9126 0.85229 0.61098 0.0
H139 H 0.9614 0.93079 0.59279 0.0
H140 H 0.243 0.16874 0.53105 0.0
H141 H 0.32607 0.22867 0.52092 0.0
H142 H 0.27273 0.20031 0.36828 0.0
H143 H 0.19118 0.14012 0.37889 0.0
Pr144 Pr 0.53286 0.06736 0.13469 0.0
Pr145 Pr 0.5902 0.05053 0.08208 0.0
C146 C 0.49509 0.08969 0.20234 0.0
C147 C 0.50655 0.13512 0.22266 0.0
C148 C 0.55687 0.16674 0.24512 0.0
C149 C 0.56949 0.21253 0.25473 0.0
C150 C 0.5322 0.22729 0.24136 0.0
C151 C 0.48141 0.19531 0.22177 0.0
C152 C 0.46861 0.14954 0.21281 0.0
C153 C 0.56795 0.13621 0.07222 0.0
C154 C 0.65588 0.10634 0.17872 0.0
C155 C 0.62802 0.03551 1.01005 0.0
C156 C 0.60637 1.0032 0.96739 0.0
C157 C 0.56242 0.9614 0.96516 0.0
C158 C 0.54536 0.9289 0.92629 0.0
C159 C 0.57205 0.93808 0.88935 0.0
C160 C 0.61302 0.98163 0.88979 0.0
C161 C 0.63021 1.01392 0.92871 0.0
C162 C 0.55994 0.98491 0.14847 0.0
C163 C 0.46663 1.01043 1.03908 0.0
O164 O 0.53173 0.0779 0.21208 0.0
O165 O 0.47126 0.07916 0.15779 0.0
O166 O 0.59517 0.12092 0.09757 0.0
O167 O 0.52156 0.11587 0.07849 0.0
O168 O 0.66028 0.10589 0.13445 0.0
O169 O 0.61023 0.08597 0.18875 0.0
O170 O 0.61117 0.06552 1.01049 0.0
O171 O 0.63187 1.01857 0.05066 0.0
O172 O 0.53027 0.99719 0.12164 0.0
O173 O 0.60594 1.00625 0.14098 0.0
O174 O 0.46275 1.01007 0.08352 0.0
O175 O 0.51208 1.03078 1.02893 0.0
H176 H 0.58709 0.15672 0.25308 0.0
H177 H 0.60879 0.23672 0.27021 0.0
H178 H 0.45189 0.20603 0.21201 0.0
H179 H 0.42964 0.12588 0.19562 0.0
H180 H 0.54287 0.95312 0.99445 0.0
H181 H 0.51396 0.8955 0.92693 0.0
H182 H 0.63399 0.98949 0.86151 0.0
H183 H 0.66346 0.04646 0.92953 0.0
Pr184 Pr 0.54733 0.6092 0.6037 0.0
Pr185 Pr 0.51867 0.51473 0.55053 0.0
C186 C 0.55744 0.69288 0.62215 0.0
C187 C 0.52403 0.71097 0.63422 0.0
C188 C 0.49401 0.69172 0.66784 0.0
C189 C 0.46118 0.70827 0.67784 0.0
C190 C 0.45756 0.74428 0.65432 0.0
C191 C 0.48739 0.76308 0.62026 0.0
C192 C 0.52046 0.74664 0.61046 0.0
C193 C 0.57368 0.55596 0.66982 0.0
C194 C 0.43478 0.52206 0.60966 0.0
C195 C 0.50044 0.42881 0.52879 0.0
C196 C 0.52692 0.40574 0.51147 0.0
C197 C 0.57111 0.43021 0.49356 0.0
C198 C 0.60036 0.40922 0.48419 0.0
C199 C 0.58573 0.36344 0.49248 0.0
C200 C 0.54039 0.33879 0.50886 0.0
C201 C 0.51151 0.35987 0.51858 0.0
C202 C 0.51241 0.58087 0.49103 0.0
C203 C 0.63339 0.59734 0.55173 0.0
O204 O 0.5447 0.67327 0.579 0.0
O205 O 0.5724 0.67109 0.65416 0.0
O206 O 0.55502 0.54585 0.62588 0.0
O207 O 0.58072 0.59683 0.68077 0.0
O208 O 0.44702 0.49615 0.58487 0.0
O209 O 0.46378 0.56682 0.61805 0.0
O210 O 0.52203 0.45036 0.57128 0.0
O211 O 0.48346 0.45132 0.49917 0.0
O212 O 0.49758 0.57336 0.53017 0.0
O213 O 0.52669 0.55089 0.48024 0.0
O214 O 0.61909 0.62568 0.56938 0.0
O215 O 0.6052 0.55272 0.54791 0.0
H216 H 0.49584 0.66388 0.68646 0.0
H217 H 0.43948 0.6934 0.70479 0.0
H218 H 0.48481 0.79015 0.60069 0.0
H219 H 0.54289 0.76148 0.58396 0.0
H220 H 0.58384 0.46586 0.48832 0.0
H221 H 0.63473 0.42892 0.47101 0.0
H222 H 0.52832 0.30366 0.5161 0.0
H223 H 0.47796 0.34071 0.53315 0.0
Pr224 Pr 1.00639 0.5861 0.0477 0.0
Pr225 Pr 0.05149 0.53943 0.11621 0.0
C226 C 0.95235 0.60005 0.96934 0.0
C227 C 0.90301 0.59696 0.94609 0.0
C228 C 0.89739 0.60843 0.89943 0.0
C229 C 0.85045 0.604 0.8749 0.0
C230 C 0.80825 0.58808 0.89671 0.0
C231 C 0.81374 0.57601 0.9435 0.0
C232 C 0.86094 0.58012 0.96803 0.0
C233 C 0.10809 0.64077 0.09262 0.0
C234 C 0.99857 0.60212 0.15771 0.0
C235 C 0.11065 0.52173 0.18703 0.0
C236 C 0.16003 0.52168 0.19048 0.0
C237 C 0.18165 0.52746 0.1503 0.0
C238 C 0.22944 0.52883 0.15367 0.0
C239 C 0.25653 0.52493 0.19744 0.0
C240 C 0.23469 0.51935 0.23767 0.0
C241 C 0.18679 0.51779 0.23417 0.0
C242 C 0.94965 0.48374 0.07206 0.0
C243 C 0.0668 0.53068 1.0067 0.0
O244 O 0.95304 0.56126 0.97613 0.0
O245 O 0.98114 0.63219 1.0041 0.0
O246 O 0.08921 0.60004 0.07552 0.0
O247 O 0.07469 0.6562 0.08352 0.0
O248 O 1.02865 0.58192 0.16691 0.0
O249 O 0.97851 0.60389 0.11304 0.0
O250 O 0.11218 0.56175 0.18399 0.0
O251 O 0.07175 0.48967 0.15743 0.0
O252 O 0.96746 0.52472 0.08844 0.0
O253 O 0.98405 0.46949 0.08038 0.0
O254 O 1.03643 0.55035 0.99716 0.0
O255 O 0.08283 0.52555 0.05129 0.0
H256 H 0.92946 0.62094 0.88192 0.0
H257 H 0.84768 0.61446 0.83928 0.0
H258 H 0.78174 0.56369 0.96104 0.0
H259 H 0.86468 0.57032 1.00388 0.0
H260 H 0.16173 0.53122 0.11639 0.0
H261 H 0.2455 0.53358 0.12226 0.0
H262 H 0.25432 0.51555 0.27175 0.0
H263 H 0.17071 0.5136 0.26554 0.0
H264 H 0.46068 0.41794 0.41614 0.0
H265 H 0.46191 0.3473 0.29174 0.0
H266 H 0.41567 0.2742 0.32159 0.0
H267 H 0.36352 0.2305 0.37743 0.0
H268 H 0.34635 0.30261 0.49236 0.0
H269 H 0.40615 0.37436 0.47051 0.0
C270 C 0.45155 0.38638 0.39649 0.0
C271 C 0.46653 0.38809 0.35313 0.0
C272 C 0.42062 0.34464 0.41166 0.0
C273 C 0.45336 0.34715 0.3265 0.0
C274 C 0.42587 0.30524 0.34313 0.0
C275 C 0.37416 0.26195 0.39849 0.0
C276 C 0.35082 0.26108 0.43676 0.0
C277 C 0.40799 0.30361 0.38502 0.0
C278 C 0.36469 0.30205 0.46357 0.0
C279 C 0.39907 0.34337 0.45102 0.0
H280 H 0.2868 0.8922 0.86985 0.0
H281 H 0.36584 1.01126 0.80061 0.0
H282 H 0.41834 0.05324 0.87721 0.0
H283 H 0.45385 0.04989 0.96019 0.0
H284 H 0.37877 0.9299 1.03013 0.0
H285 H 0.31262 0.89388 0.95715 0.0
C286 C 0.3142 0.92788 0.87214 0.0
C287 C 0.32308 0.9487 0.83003 0.0
C288 C 0.34595 0.95086 0.91612 0.0
C289 C 0.3583 0.99488 0.83275 0.0
C290 C 0.38891 1.01851 0.87642 0.0
C291 C 0.42233 1.01619 0.95963 0.0
C292 C 0.42137 0.99199 0.99974 0.0
C293 C 0.38508 0.99592 0.91776 0.0
C294 C 0.38015 0.94884 0.99933 0.0
C295 C 0.34257 0.92831 0.95764 0.0
H296 H 0.59454 0.45566 0.85418 0.0
H297 H 0.61537 0.36985 0.75744 0.0
H298 H 0.60062 0.41242 0.69115 0.0
H299 H 0.5872 0.47834 0.6618 0.0
H300 H 0.56289 0.56113 0.76 0.0
H301 H 0.57364 0.51625 0.82403 0.0
C302 C 0.59465 0.44579 0.81831 0.0
C303 C 0.60516 0.40925 0.81046 0.0
C304 C 0.58635 0.47059 0.78063 0.0
C305 C 0.60635 0.39728 0.76406 0.0
C306 C 0.59837 0.42194 0.7263 0.0
C307 C 0.5837 0.48613 0.69707 0.0
C308 C 0.57576 0.52415 0.7062 0.0
C309 C 0.58907 0.45926 0.73419 0.0
C310 C 0.57073 0.53322 0.75213 0.0
C311 C 0.57642 0.50723 0.78888 0.0
H312 H 0.9717 0.6707 0.3546 0.0
H313 H 0.89369 0.73087 0.26114 0.0
H314 H 0.91462 0.70407 0.19259 0.0
H315 H 0.94924 0.6572 0.15764 0.0
H316 H 1.02507 0.59566 0.2528 0.0
H317 H 1.00984 0.62778 0.32072 0.0
C318 C 0.95981 0.67853 0.31932 0.0
C319 C 0.93111 0.70327 0.31365 0.0
C320 C 0.97063 0.66149 0.27961 0.0
C321 C 0.91659 0.71298 0.26724 0.0
C322 C 0.92789 0.69682 0.22773 0.0
C323 C 0.96251 0.65073 0.19318 0.0
C324 C 0.98811 0.62313 0.1991 0.0
C325 C 0.95383 0.66993 0.23313 0.0
C326 C 1.00513 0.61613 0.24612 0.0
C327 C 0.99652 0.63478 0.28545 0.0
H328 H 0.53036 0.41392 0.22931 0.0
H329 H 0.58318 0.4228 0.38023 0.0
H330 H 0.59899 0.35695 0.37071 0.0
H331 H 0.57813 0.28736 0.32062 0.0
H332 H 0.51659 0.27573 0.17042 0.0
H333 H 0.52423 0.35227 0.17777 0.0
C334 C 0.54803 0.40288 0.25963 0.0
C335 C 0.55542 0.4225 0.30533 0.0
C336 C 0.5538 0.36359 0.2539 0.0
C337 C 0.57731 0.40771 0.34481 0.0
C338 C 0.58552 0.36976 0.33934 0.0
C339 C 0.56776 0.30229 0.28949 0.0
C340 C 0.54594 0.27609 0.24526 0.0
C341 C 0.57076 0.34576 0.29431 0.0
C342 C 0.53256 0.29533 0.20494 0.0
C343 C 0.53708 0.33903 0.20909 0.0
H344 H 0.31659 1.00098 0.69247 0.0
H345 H 0.20753 0.92125 0.77494 0.0
H346 H 0.1544 0.95871 0.74604 0.0
H347 H 0.13385 1.00613 0.68868 0.0
H348 H 0.2422 0.08379 0.60368 0.0
H349 H 0.30085 0.05528 0.64201 0.0
C350 C 0.2815 0.99249 0.70444 0.0
C351 C 0.2651 0.95806 0.7349 0.0
C352 C 0.25086 1.01329 0.68667 0.0
C353 C 0.2204 0.94767 0.75132 0.0
C354 C 0.18999 0.96876 0.73447 0.0
C355 C 0.1706 1.01738 0.67899 0.0
C356 C 0.18319 0.04652 0.64277 0.0
C357 C 0.20393 1.00037 0.70075 0.0
C358 C 0.23126 0.0611 0.63111 0.0
C359 C 0.26484 0.04475 0.65295 0.0
H360 H 0.74505 0.35886 0.92565 0.0
H361 H 0.69115 0.43908 0.99294 0.0
H362 H 0.77426 0.47856 0.04885 0.0
H363 H 0.86492 0.49454 0.07336 0.0
H364 H 0.91675 0.41063 1.00833 0.0
H365 H 0.83176 0.36754 0.9572 0.0
C366 C 0.75089 0.38331 0.95418 0.0
C367 C 0.71184 0.3951 0.95654 0.0
C368 C 0.79869 0.4057 0.98585 0.0
C369 C 0.72044 0.42867 0.99179 0.0
C370 C 0.76807 0.45157 1.02316 0.0
C371 C 0.85729 0.46648 0.04833 0.0
C372 C 0.89701 0.45596 0.04424 0.0
C373 C 0.80794 0.44114 1.01974 0.0
C374 C 0.88672 0.41934 1.01203 0.0
C375 C 0.83816 0.39471 0.98277 0.0
H376 H 0.84152 0.70544 0.48236 0.0
H377 H 0.75344 0.61067 0.35793 0.0
H378 H 0.68245 0.57182 0.39848 0.0
H379 H 0.643 0.5682 0.4676 0.0
H380 H 0.72706 0.66931 0.58779 0.0
H381 H 0.80145 0.70308 0.55065 0.0
C382 C 0.80678 0.6762 0.46422 0.0
C383 C 0.80321 0.66056 0.41732 0.0
C384 C 0.76514 0.65564 0.48695 0.0
C385 C 0.75783 0.62265 0.39432 0.0
C386 C 0.71699 0.60081 0.41737 0.0
C387 C 0.6779 0.5973 0.48589 0.0
C388 C 0.67969 0.61612 0.53068 0.0
C389 C 0.71991 0.61736 0.46347 0.0
C390 C 0.72472 0.65439 0.55338 0.0
C391 C 0.76726 0.67356 0.53213 0.0
H392 H 0.43831 0.47787 0.20866 0.0
H393 H 0.4917 0.56395 0.33895 0.0
H394 H 0.42543 0.5882 0.31575 0.0
H395 H 0.34086 0.56946 0.26684 0.0
H396 H 0.28426 0.4806 0.13713 0.0
H397 H 0.36253 0.47199 0.15097 0.0
C398 C 0.43703 0.50407 0.23025 0.0
C399 C 0.46979 0.51996 0.27526 0.0
C400 C 0.3969 0.51559 0.21732 0.0
C401 C 0.46756 0.55291 0.30384 0.0
C402 C 0.42884 0.56564 0.29089 0.0
C403 C 0.34653 0.54957 0.24088 0.0
C404 C 0.30689 0.52557 0.20138 0.0
C405 C 0.39148 0.54493 0.24909 0.0
C406 C 0.31428 0.49941 0.16794 0.0
C407 C 0.35898 0.49442 0.17587 0.0
H408 H 0.67447 0.29396 0.9432 0.0
H409 H 0.54007 0.3107 0.94334 0.0
H410 H 0.5098 0.24787 0.993 0.0
H411 H 0.52097 0.18739 1.03642 0.0
H412 H 0.65846 0.17412 1.04178 0.0
H413 H 0.6886 0.23665 0.99136 0.0
C414 C 0.6392 0.28464 0.95491 0.0
C415 C 0.60962 0.30735 0.93914 0.0
C416 C 0.62251 0.24884 0.98468 0.0
C417 C 0.56322 0.29355 0.95402 0.0
C418 C 0.54602 0.25768 0.98276 0.0
C419 C 0.55764 0.19823 1.02672 0.0
C420 C 0.58726 0.17571 1.04295 0.0
C421 C 0.57515 0.23485 0.99819 0.0
C422 C 0.63482 0.19067 1.03005 0.0
C423 C 0.65205 0.22648 1.00104 0.0
H424 H 0.96894 0.78741 0.44572 0.0
H425 H 0.91686 0.8114 0.30405 0.0
H426 H 0.95065 0.8926 0.33006 0.0
H427 H 0.98427 0.95495 0.39642 0.0
H428 H 1.0269 0.92649 0.5396 0.0
H429 H 1.00632 0.84945 0.51044 0.0
C430 C 0.96745 0.81096 0.42005 0.0
C431 C 0.94154 0.79309 0.37249 0.0
C432 C 0.98303 0.85676 0.43635 0.0
C433 C 0.93798 0.824 0.34027 0.0
C434 C 0.95606 0.87036 0.35565 0.0
C435 C 0.98907 0.93191 0.42127 0.0
C436 C 1.00694 0.94701 0.47054 0.0
C437 C 0.97665 0.8868 0.4041 0.0
C438 C 1.01298 0.91627 0.50178 0.0
C439 C 1.00155 0.87206 0.485 0.0
H440 H 0.29609 0.79394 0.7182 0.0
H441 H 0.40617 0.92833 0.69816 0.0
H442 H 0.45879 0.89743 0.67157 0.0
H443 H 0.47555 0.83274 0.65956 0.0
H444 H 0.36285 0.69705 0.67549 0.0
H445 H 0.30939 0.72778 0.69915 0.0
C446 C 0.33114 0.81594 0.70702 0.0
C447 C 0.34757 0.86293 0.70945 0.0
C448 C 0.36089 0.79785 0.692 0.0
C449 C 0.3931 0.8919 0.69572 0.0
C450 C 0.42311 0.87429 0.68099 0.0
C451 C 0.43882 0.80966 0.66716 0.0
C452 C 0.42356 0.76264 0.66599 0.0
C453 C 0.4077 0.82737 0.67966 0.0
C454 C 0.3762 0.7335 0.67703 0.0
C455 C 0.34532 0.75096 0.69018 0.0
H456 H 0.67999 0.71013 0.66777 0.0
H457 H 0.73511 0.74613 0.81866 0.0
H458 H 0.82252 0.78872 0.80809 0.0
H459 H 0.87814 0.83176 0.75533 0.0
H460 H 0.81958 0.80769 0.6037 0.0
H461 H 0.73975 0.74499 0.61455 0.0
C462 C 0.71163 0.72613 0.69818 0.0
C463 C 0.70135 0.72504 0.74381 0.0
C464 C 0.76126 0.75392 0.69141 0.0
C465 C 0.74225 0.74574 0.78328 0.0
C466 C 0.79218 0.77086 0.77714 0.0
C467 C 0.84839 0.81191 0.72463 0.0
C468 C 0.85429 0.82515 0.67898 0.0
C469 C 0.80148 0.77764 0.73126 0.0
C470 C 0.81607 0.79843 0.63935 0.0
C471 C 0.77007 0.7627 0.64554 0.0
H472 H 0.83108 0.25215 0.33331 0.0
H473 H 0.75065 0.15241 0.42252 0.0
H474 H 0.70045 0.09695 0.35331 0.0
H475 H 0.66769 0.08326 0.26753 0.0
H476 H 0.74342 0.184 0.17663 0.0
H477 H 0.80747 0.23292 0.24597 0.0
C478 C 0.80354 0.21777 0.33724 0.0
C479 C 0.79375 0.20613 0.38232 0.0
C480 C 0.77333 0.18688 0.297 0.0
C481 C 0.75863 0.16163 0.38787 0.0
C482 C 0.72956 0.13026 0.34834 0.0
C483 C 0.69893 0.11553 0.26292 0.0
C484 C 0.70058 0.13071 0.2176 0.0
C485 C 0.73468 0.14345 0.30271 0.0
C486 C 0.7415 0.17197 0.21151 0.0
C487 C 0.77784 0.19996 0.25109 0.0
H488 H 0.51634 0.70477 0.32172 0.0
H489 H 0.44595 0.75577 0.40664 0.0
H490 H 0.45797 0.71035 0.47058 0.0
H491 H 0.4763 0.64585 0.49694 0.0
H492 H 0.55425 0.60117 0.41382 0.0
H493 H 0.55153 0.65364 0.35557 0.0
C494 C 0.50629 0.70797 0.35527 0.0
C495 C 0.48098 0.73458 0.35927 0.0
C496 C 0.51276 0.68103 0.39184 0.0
C497 C 0.46677 0.73681 0.4028 0.0
C498 C 0.4725 0.70977 0.43903 0.0
C499 C 0.49351 0.64811 0.46659 0.0
C500 C 0.51406 0.61797 0.45954 0.0
C501 C 0.49342 0.68003 0.43318 0.0
C502 C 0.53667 0.62247 0.41994 0.0
C503 C 0.53555 0.65295 0.38647 0.0
H504 H 0.12854 0.4925 0.81535 0.0
H505 H 0.16651 0.40033 0.899 0.0
H506 H 0.14122 0.42308 0.96691 0.0
H507 H 0.10779 0.46975 1.00345 0.0
H508 H 0.06534 0.55861 0.91725 0.0
H509 H 0.09258 0.53706 0.85078 0.0
C510 C 0.13128 0.47743 0.84847 0.0
C511 C 0.14962 0.44457 0.85173 0.0
C512 C 0.11573 0.4903 0.88747 0.0
C513 C 0.15239 0.42532 0.8951 0.0
C514 C 0.138 0.43855 0.93413 0.0
C515 C 0.10453 0.48453 0.9702 0.0
C516 C 0.08436 0.51624 0.96622 0.0
C517 C 0.11953 0.47109 0.93097 0.0
C518 C 0.08036 0.53427 0.92213 0.0
C519 C 0.09611 0.52191 0.88373 0.0
H520 H 0.51637 0.75646 0.76608 0.0
H521 H 0.67848 0.80572 0.81783 0.0
H522 H 0.68565 0.87464 0.85598 0.0
H523 H 0.64627 0.91899 0.87757 0.0
H524 H 0.48356 0.87087 0.83253 0.0
H525 H 0.47571 0.80349 0.78782 0.0
C526 C 0.55297 0.78267 0.78528 0.0
C527 C 0.59707 0.77693 0.78839 0.0
C528 C 0.55663 0.82216 0.80799 0.0
C529 C 0.64441 0.81026 0.81449 0.0
C530 C 0.6485 0.84947 0.83626 0.0
C531 C 0.60918 0.8943 0.85709 0.0
C532 C 0.56576 0.90005 0.85747 0.0
C533 C 0.60497 0.85565 0.83335 0.0
C534 C 0.51759 0.86709 0.83223 0.0
C535 C 0.51314 0.82861 0.80701 0.0
H536 H 0.90449 0.23724 0.42739 0.0
H537 H 0.8112 0.175 0.52868 0.0
H538 H 0.85148 0.12484 0.54546 0.0
H539 H 0.91465 0.09971 0.53179 0.0
H540 H 1.00863 0.16351 0.43088 0.0
H541 H 0.96583 0.21114 0.41231 0.0
C542 C 0.89336 0.21277 0.45329 0.0
C543 C 0.85603 0.21047 0.47764 0.0
C544 C 0.91615 0.18383 0.46208 0.0
C545 C 0.84114 0.17838 0.51073 0.0
C546 C 0.86365 0.14932 0.51976 0.0
C547 C 0.925 0.12341 0.50507 0.0
C548 C 0.96438 0.12776 0.48231 0.0
C549 C 0.90125 0.15174 0.49562 0.0
C550 C 0.97821 0.15935 0.44859 0.0
C551 C 0.95401 0.1868 0.43821 0.0
H552 H 0.28955 0.73918 0.27039 0.0
H553 H 0.35183 0.66555 0.20364 0.0
H554 H 0.27375 0.63044 0.14149 0.0
H555 H 0.18928 0.62353 0.104 0.0
H556 H 0.13201 0.70509 0.16486 0.0
H557 H 0.20747 0.73599 0.23026 0.0
C558 C 0.28632 0.71611 0.24179 0.0
C559 C 0.32646 0.70515 0.24152 0.0
C560 C 0.24258 0.69812 0.2047 0.0
C561 C 0.32108 0.67395 0.20502 0.0
C562 C 0.27672 0.65428 0.16922 0.0
C563 C 0.19369 0.6484 0.13141 0.0
C564 C 0.15556 0.66237 0.12957 0.0
C565 C 0.23754 0.66662 0.16831 0.0
C566 C 0.16135 0.69439 0.16526 0.0
C567 C 0.20422 0.71174 0.20283 0.0
H568 H 0.27228 0.40315 0.7305 0.0
H569 H 0.22191 0.50545 0.7025 0.0
H570 H 0.28826 0.54349 0.65698 0.0
H571 H 0.36386 0.54955 0.62717 0.0
H572 H 0.40646 0.44141 0.64744 0.0
H573 H 0.33986 0.4036 0.69234 0.0
C574 C 0.27456 0.43281 0.71322 0.0
C575 C 0.24195 0.45135 0.72053 0.0
C576 C 0.31205 0.45387 0.68561 0.0
C577 C 0.24691 0.49076 0.69846 0.0
C578 C 0.2849 0.51254 0.67219 0.0
C579 C 0.35823 0.51752 0.64106 0.0
C580 C 0.39058 0.49859 0.63376 0.0
C581 C 0.31837 0.49487 0.66601 0.0
C582 C 0.38219 0.4568 0.65197 0.0
C583 C 0.34407 0.4351 0.67797 0.0
H584 H 0.6539 0.62761 0.75222 0.0
H585 H 0.6546 0.69717 0.87879 0.0
H586 H 0.70229 0.6635 0.92736 0.0
H587 H 0.75536 0.62427 0.93211 0.0
H588 H 0.75657 0.55597 0.80506 0.0
H589 H 0.69507 0.57769 0.75832 0.0
C590 C 0.66255 0.63363 0.79051 0.0
C591 C 0.64864 0.66314 0.8118 0.0
C592 C 0.69096 0.61484 0.81804 0.0
C593 C 0.66237 0.67272 0.86153 0.0
C594 C 0.6905 0.65405 0.88933 0.0
C595 C 0.74073 0.61276 0.89452 0.0
C596 C 0.76104 0.58937 0.87181 0.0
C597 C 0.7063 0.62616 0.86779 0.0
C598 C 0.74205 0.5748 0.82303 0.0
C599 C 0.70717 0.58738 0.79632 0.0
H600 H 0.47323 0.78714 0.2188 0.0
H601 H 0.52344 0.86429 0.35512 0.0
H602 H 0.56426 0.93534 0.31819 0.0
H603 H 0.57391 0.97632 0.24457 0.0
H604 H 0.50917 0.8976 0.10783 0.0
H605 H 0.48424 0.82695 0.14653 0.0
C606 C 0.49527 0.81943 0.24069 0.0
C607 C 0.49604 0.81999 0.29008 0.0
C608 C 0.51364 0.86024 0.21838 0.0
C609 C 0.52322 0.86242 0.31755 0.0
C610 C 0.54531 0.90321 0.29603 0.0
C611 C 0.55423 0.94361 0.22337 0.0
C612 C 0.54281 0.94228 0.17317 0.0
C613 C 0.53865 0.90272 0.24616 0.0
C614 C 0.51766 0.89964 0.1463 0.0
C615 C 0.50385 0.85921 0.16852 0.0
H616 H 0.2136 0.33068 0.75017 0.0
H617 H 0.09537 0.36219 0.67782 0.0
H618 H 0.05921 0.29274 0.62309 0.0
H619 H 0.05777 0.22004 0.59889 0.0
H620 H 0.18007 0.19115 0.66614 0.0
H621 H 0.21868 0.26242 0.71862 0.0
C622 C 0.18092 0.32301 0.72146 0.0
C623 C 0.15769 0.35222 0.71762 0.0
C624 C 0.16088 0.28313 0.68927 0.0
C625 C 0.11435 0.34083 0.68106 0.0
C626 C 0.09353 0.30091 0.64994 0.0
C627 C 0.0934 0.22971 0.6245 0.0
C628 C 0.11581 0.19991 0.62843 0.0
C629 C 0.11595 0.27137 0.65406 0.0
C630 C 0.16205 0.21328 0.66188 0.0
C631 C 0.18398 0.25405 0.69222 0.0
H632 H 0.69186 0.24323 0.45315 0.0
H633 H 0.82757 0.36571 0.51518 0.0
H634 H 0.77481 0.40202 0.52933 0.0
H635 H 0.68979 0.39971 0.51926 0.0
H636 H 0.5548 0.27807 0.4514 0.0
H637 H 0.60736 0.24063 0.44345 0.0
C638 C 0.70954 0.27765 0.47039 0.0
C639 C 0.76317 0.30191 0.48348 0.0
C640 C 0.67912 0.29853 0.47642 0.0
C641 C 0.78624 0.34649 0.5055 0.0
C642 C 0.75611 0.36725 0.51297 0.0
C643 C 0.67196 0.36515 0.50237 0.0
C644 C 0.61838 0.34171 0.48597 0.0
C645 C 0.70252 0.34388 0.49762 0.0
C646 C 0.59582 0.2967 0.46478 0.0
C647 C 0.62584 0.27528 0.46017 0.0
loop_
_geom_bond_atom_site_label_1
_geom_bond_atom_site_label_2
_geom_bond_distance
_geom_bond_site_symmetry_2
_ccdc_geom_bond_type
C0 N1 1.317 . S
C0 N2 1.348 . S
C0 C3 1.485 . S
N1 C0 1.317 . S
N1 N5 1.370 . S
N2 C0 1.348 . S
N2 C4 1.346 . S
C3 C0 1.485 . S
C3 H7 0.960 . S
C3 H8 0.961 . S
C3 H9 0.960 . S
C4 N2 1.346 . S
C4 N5 1.307 . S
C4 C6 1.486 . S
N5 N1 1.370 . S
N5 C4 1.307 . S
C6 C4 1.486 . S
C6 H10 0.960 . S
C6 H11 0.960 . S
C6 H12 0.959 . S
H7 C3 0.960 . S
H8 C3 0.961 . S
H9 C3 0.960 . S
H10 C6 0.960 . S
H11 C6 0.960 . S
H12 C6 0.959 . S
C13 N14 1.317 . S
C13 N15 1.348 . S
C13 C16 1.485 . S
N14 C13 1.317 . S
N14 N18 1.370 . S
N15 C13 1.348 . S
N15 C17 1.346 . S
C16 C13 1.485 . S
C16 H20 0.960 . S
C16 H21 0.961 . S
C16 H22 0.960 . S
C17 N15 1.346 . S
C17 N18 1.307 . S
C17 C19 1.486 . S
N18 N14 1.370 . S
N18 C17 1.307 . S
C19 C17 1.486 . S
C19 H23 0.960 . S
C19 H24 0.960 . S
C19 H25 0.959 . S
H20 C16 0.960 . S
H21 C16 0.961 . S
H22 C16 0.960 . S
H23 C19 0.960 . S
H24 C19 0.960 . S
H25 C19 0.959 . S
C26 N27 1.317 . S
C26 N28 1.348 . S
C26 C29 1.485 . S
N27 C26 1.317 . S
N27 N31 1.370 . S
N28 C26 1.348 . S
N28 C30 1.346 . S
C29 C26 1.485 . S
C29 H33 0.960 . S
C29 H34 0.961 . S
C29 H35 0.960 . S
C30 N28 1.346 . S
C30 N31 1.307 . S
C30 C32 1.486 . S
N31 N27 1.370 . S
N31 C30 1.307 . S
C32 C30 1.486 . S
C32 H36 0.960 . S
C32 H37 0.960 . S
C32 H38 0.959 . S
H33 C29 0.960 . S
H34 C29 0.961 . S
H35 C29 0.960 . S
H36 C32 0.960 . S
H37 C32 0.960 . S
H38 C32 0.959 . S
C39 N40 1.317 . S
C39 N41 1.348 . S
C39 C42 1.485 . S
N40 C39 1.317 . S
N40 N44 1.370 . S
N41 C39 1.348 . S
N41 C43 1.346 . S
C42 C39 1.485 . S
C42 H46 0.960 . S
C42 H47 0.961 . S
C42 H48 0.960 . S
C43 N41 1.346 . S
C43 N44 1.307 . S
C43 C45 1.486 . S
N44 N40 1.370 . S
N44 C43 1.307 . S
C45 C43 1.486 . S
C45 H49 0.960 . S
C45 H50 0.960 . S
C45 H51 0.959 . S
H46 C42 0.960 . S
H47 C42 0.961 . S
H48 C42 0.960 . S
H49 C45 0.960 . S
H50 C45 0.960 . S
H51 C45 0.959 . S
C52 N53 1.317 . S
C52 N54 1.348 . S
C52 C55 1.485 . S
N53 C52 1.317 . S
N53 N57 1.370 . S
N54 C52 1.348 . S
N54 C56 1.346 . S
C55 C52 1.485 . S
C55 H59 0.960 . S
C55 H60 0.961 . S
C55 H61 0.960 . S
C56 N54 1.346 . S
C56 N57 1.307 . S
C56 C58 1.486 . S
N57 N53 1.370 . S
N57 C56 1.307 . S
C58 C56 1.486 . S
C58 H62 0.960 . S
C58 H63 0.960 . S
C58 H64 0.959 . S
H59 C55 0.960 . S
H60 C55 0.961 . S
H61 C55 0.960 . S
H62 C58 0.960 . S
H63 C58 0.960 . S
H64 C58 0.959 . S
C65 N66 1.317 . S
C65 N67 1.348 . S
C65 C68 1.485 . S
N66 C65 1.317 . S
N66 N70 1.370 . S
N67 C65 1.348 . S
N67 C69 1.346 . S
C68 C65 1.485 . S
C68 H72 0.960 . S
C68 H73 0.961 . S
C68 H74 0.960 . S
C69 N67 1.346 . S
C69 N70 1.307 . S
C69 C71 1.486 . S
N70 N66 1.370 . S
N70 C69 1.307 . S
C71 C69 1.486 . S
C71 H75 0.960 . S
C71 H76 0.960 . S
C71 H77 0.959 . S
H72 C68 0.960 . S
H73 C68 0.961 . S
H74 C68 0.960 . S
H75 C71 0.960 . S
H76 C71 0.960 . S
H77 C71 0.959 . S
C78 N79 1.317 . S
C78 N80 1.348 . S
C78 C81 1.485 . S
N79 C78 1.317 . S
N79 N83 1.370 . S
N80 C78 1.348 . S
N80 C82 1.346 . S
C81 C78 1.485 . S
C81 H85 0.960 . S
C81 H86 0.961 . S
C81 H87 0.960 . S
C82 N80 1.346 . S
C82 N83 1.307 . S
C82 C84 1.486 . S
N83 N79 1.370 . S
N83 C82 1.307 . S
C84 C82 1.486 . S
C84 H88 0.960 . S
C84 H89 0.960 . S
C84 H90 0.959 . S
H85 C81 0.960 . S
H86 C81 0.961 . S
H87 C81 0.960 . S
H88 C84 0.960 . S
H89 C84 0.960 . S
H90 C84 0.959 . S
C91 N92 1.317 . S
C91 N93 1.348 . S
C91 C94 1.485 . S
N92 C91 1.317 . S
N92 N96 1.370 . S
N93 C91 1.348 . S
N93 C95 1.346 . S
C94 C91 1.485 . S
C94 H98 0.960 . S
C94 H99 0.961 . S
C94 H100 0.960 . S
C95 N93 1.346 . S
C95 N96 1.307 . S
C95 C97 1.486 . S
N96 N92 1.370 . S
N96 C95 1.307 . S
C97 C95 1.486 . S
C97 H101 0.960 . S
C97 H102 0.960 . S
C97 H103 0.959 . S
H98 C94 0.960 . S
H99 C94 0.961 . S
H100 C94 0.960 . S
H101 C97 0.960 . S
H102 C97 0.960 . S
H103 C97 0.959 . S
Pr104 C106 2.880 1_545 S
Pr104 O124 2.562 1_545 S
Pr104 O125 2.490 1_545 S
Pr104 O126 2.695 1_655 S
Pr104 O127 2.512 1_655 S
Pr104 O129 2.437 1_645 S
Pr104 O132 2.436 1_645 S
Pr104 O134 2.438 . S
Pr105 C115 2.880 . S
Pr105 O126 2.436 . S
Pr105 O128 2.436 . S
Pr105 O130 2.562 . S
Pr105 O131 2.490 . S
Pr105 O132 2.695 1_545 S
Pr105 O133 2.512 1_545 S
Pr105 O135 2.437 . S
C106 Pr104 2.880 1_565 S
C106 C107 1.491 . S
C106 O124 1.254 . S
C106 O125 1.225 . S
C107 C106 1.491 . S
C107 C108 1.392 . S
C107 C112 1.356 . S
C108 C107 1.392 . S
C108 C109 1.368 . S
C108 H136 0.929 . S
C109 C108 1.368 . S
C109 C110 1.386 . S
C109 H137 0.929 . S
C110 C109 1.386 . S
C110 C111 1.373 . S
C111 C110 1.373 . S
C111 C112 1.409 . S
C111 H138 0.931 . S
C112 C107 1.356 . S
C112 C111 1.409 . S
C112 H139 0.930 . S
C113 O126 1.270 . S
C113 O127 1.248 . S
C114 O128 1.267 1_565 S
C114 O129 1.278 . S
C115 Pr105 2.880 . S
C115 C116 1.491 . S
C115 O130 1.254 . S
C115 O131 1.225 . S
C116 C115 1.491 . S
C116 C117 1.392 . S
C116 C121 1.356 . S
C117 C116 1.392 . S
C117 C118 1.368 . S
C117 H140 0.929 . S
C118 C117 1.368 . S
C118 C119 1.386 . S
C118 H141 0.929 . S
C119 C118 1.386 . S
C119 C120 1.373 . S
C120 C119 1.373 . S
C120 C121 1.409 . S
C120 H142 0.931 . S
C121 C116 1.356 . S
C121 C120 1.409 . S
C121 H143 0.930 . S
C122 O132 1.270 . S
C122 O133 1.248 . S
C123 O134 1.267 1_455 S
C123 O135 1.278 . S
O124 Pr104 2.562 1_565 S
O124 C106 1.254 . S
O125 Pr104 2.490 1_565 S
O125 C106 1.225 . S
O126 Pr104 2.695 1_455 S
O126 Pr105 2.436 . S
O126 C113 1.270 . S
O127 Pr104 2.512 1_455 S
O127 C113 1.248 . S
O128 Pr105 2.436 . S
O128 C114 1.267 1_545 S
O129 Pr104 2.437 1_465 S
O129 C114 1.278 . S
O130 Pr105 2.562 . S
O130 C115 1.254 . S
O131 Pr105 2.490 . S
O131 C115 1.225 . S
O132 Pr104 2.436 1_465 S
O132 Pr105 2.695 1_565 S
O132 C122 1.270 . S
O133 Pr105 2.512 1_565 S
O133 C122 1.248 . S
O134 Pr104 2.438 . S
O134 C123 1.267 1_655 S
O135 Pr105 2.437 . S
O135 C123 1.278 . S
H136 C108 0.929 . S
H137 C109 0.929 . S
H138 C111 0.931 . S
H139 C112 0.930 . S
H140 C117 0.929 . S
H141 C118 0.929 . S
H142 C120 0.931 . S
H143 C121 0.930 . S
Pr144 C146 2.880 . S
Pr144 O164 2.562 . S
Pr144 O165 2.490 . S
Pr144 O166 2.695 . S
Pr144 O167 2.512 . S
Pr144 O169 2.437 . S
Pr144 O172 2.436 . S
Pr144 O174 2.438 1_545 S
Pr145 C155 2.880 1_545 S
Pr145 O166 2.436 . S
Pr145 O168 2.438 . S
Pr145 O170 2.562 1_544 S
Pr145 O171 2.490 1_545 S
Pr145 O172 2.695 . S
Pr145 O173 2.512 1_545 S
Pr145 O175 2.437 1_545 S
C146 Pr144 2.880 . S
C146 C147 1.491 . S
C146 O164 1.254 . S
C146 O165 1.225 . S
C147 C146 1.491 . S
C147 C148 1.392 . S
C147 C152 1.356 . S
C148 C147 1.392 . S
C148 C149 1.368 . S
C148 H176 0.929 . S
C149 C148 1.368 . S
C149 C150 1.386 . S
C149 H177 0.929 . S
C150 C149 1.386 . S
C150 C151 1.373 . S
C151 C150 1.373 . S
C151 C152 1.409 . S
C151 H178 0.931 . S
C152 C147 1.356 . S
C152 C151 1.409 . S
C152 H179 0.930 . S
C153 O166 1.270 . S
C153 O167 1.248 . S
C154 O168 1.267 . S
C154 O169 1.278 . S
C155 Pr145 2.880 1_565 S
C155 C156 1.491 1_554 S
C155 O170 1.254 1_554 S
C155 O171 1.225 . S
C156 C155 1.491 1_556 S
C156 C157 1.392 . S
C156 C161 1.356 . S
C157 C156 1.392 . S
C157 C158 1.368 . S
C157 H180 0.929 1_556 S
C158 C157 1.368 . S
C158 C159 1.386 . S
C158 H181 0.929 . S
C159 C158 1.386 . S
C159 C160 1.373 . S
C160 C159 1.373 . S
C160 C161 1.409 . S
C160 H182 0.931 . S
C161 C156 1.356 . S
C161 C160 1.409 . S
C161 H183 0.930 . S
C162 O172 1.270 1_565 S
C162 O173 1.248 . S
C163 O174 1.267 1_556 S
C163 O175 1.278 1_556 S
O164 Pr144 2.562 . S
O164 C146 1.254 . S
O165 Pr144 2.490 . S
O165 C146 1.225 . S
O166 Pr144 2.695 . S
O166 Pr145 2.436 . S
O166 C153 1.270 . S
O167 Pr144 2.512 . S
O167 C153 1.248 . S
O168 Pr145 2.438 . S
O168 C154 1.267 . S
O169 Pr144 2.437 . S
O169 C154 1.278 . S
O170 Pr145 2.562 1_566 S
O170 C155 1.254 1_556 S
O171 Pr145 2.490 1_565 S
O171 C155 1.225 . S
O172 Pr144 2.436 . S
O172 Pr145 2.695 . S
O172 C162 1.270 1_545 S
O173 Pr145 2.512 1_565 S
O173 C162 1.248 . S
O174 Pr144 2.438 1_565 S
O174 C163 1.267 1_554 S
O175 Pr145 2.437 1_565 S
O175 C163 1.278 1_554 S
H176 C148 0.929 . S
H177 C149 0.929 . S
H178 C151 0.931 . S
H179 C152 0.930 . S
H180 C157 0.929 1_554 S
H181 C158 0.929 . S
H182 C160 0.931 . S
H183 C161 0.930 . S
Pr184 C186 2.880 . S
Pr184 O204 2.562 . S
Pr184 O205 2.490 . S
Pr184 O206 2.695 . S
Pr184 O207 2.512 . S
Pr184 O209 2.437 . S
Pr184 O212 2.436 . S
Pr184 O214 2.438 . S
Pr185 C195 2.880 . S
Pr185 O206 2.436 . S
Pr185 O208 2.438 . S
Pr185 O210 2.562 . S
Pr185 O211 2.490 . S
Pr185 O212 2.695 . S
Pr185 O213 2.512 . S
Pr185 O215 2.437 . S
C186 Pr184 2.880 . S
C186 C187 1.491 . S
C186 O204 1.254 . S
C186 O205 1.225 . S
C187 C186 1.491 . S
C187 C188 1.392 . S
C187 C192 1.356 . S
C188 C187 1.392 . S
C188 C189 1.368 . S
C188 H216 0.929 . S
C189 C188 1.368 . S
C189 C190 1.386 . S
C189 H217 0.929 . S
C190 C189 1.386 . S
C190 C191 1.373 . S
C191 C190 1.373 . S
C191 C192 1.409 . S
C191 H218 0.931 . S
C192 C187 1.356 . S
C192 C191 1.409 . S
C192 H219 0.930 . S
C193 O206 1.270 . S
C193 O207 1.248 . S
C194 O208 1.267 . S
C194 O209 1.278 . S
C195 Pr185 2.880 . S
C195 C196 1.491 . S
C195 O210 1.254 . S
C195 O211 1.225 . S
C196 C195 1.491 . S
C196 C197 1.392 . S
C196 C201 1.356 . S
C197 C196 1.392 . S
C197 C198 1.368 . S
C197 H220 0.929 . S
C198 C197 1.368 . S
C198 C199 1.386 . S
C198 H221 0.929 . S
C199 C198 1.386 . S
C199 C200 1.373 . S
C200 C199 1.373 . S
C200 C201 1.409 . S
C200 H222 0.931 . S
C201 C196 1.356 . S
C201 C200 1.409 . S
C201 H223 0.930 . S
C202 O212 1.270 . S
C202 O213 1.248 . S
C203 O214 1.267 . S
C203 O215 1.278 . S
O204 Pr184 2.562 . S
O204 C186 1.254 . S
O205 Pr184 2.490 . S
O205 C186 1.225 . S
O206 Pr184 2.695 . S
O206 Pr185 2.436 . S
O206 C193 1.270 . S
O207 Pr184 2.512 . S
O207 C193 1.248 . S
O208 Pr185 2.438 . S
O208 C194 1.267 . S
O209 Pr184 2.437 . S
O209 C194 1.278 . S
O210 Pr185 2.562 . S
O210 C195 1.254 . S
O211 Pr185 2.490 . S
O211 C195 1.225 . S
O212 Pr184 2.436 . S
O212 Pr185 2.695 . S
O212 C202 1.270 . S
O213 Pr185 2.512 . S
O213 C202 1.248 . S
O214 Pr184 2.438 . S
O214 C203 1.267 . S
O215 Pr185 2.437 . S
O215 C203 1.278 . S
H216 C188 0.929 . S
H217 C189 0.929 . S
H218 C191 0.931 . S
H219 C192 0.930 . S
H220 C197 0.929 . S
H221 C198 0.929 . S
H222 C200 0.931 . S
H223 C201 0.930 . S
Pr224 C226 2.880 1_455 S
Pr224 O244 2.562 1_455 S
Pr224 O245 2.490 1_455 S
Pr224 O246 2.695 1_556 S
Pr224 O247 2.512 1_556 S
Pr224 O249 2.437 1_456 S
Pr224 O252 2.436 1_455 S
Pr224 O254 2.438 . S
Pr225 C235 2.880 . S
Pr225 O246 2.436 . S
Pr225 O248 2.438 1_455 S
Pr225 O250 2.562 . S
Pr225 O251 2.490 . S
Pr225 O252 2.695 1_454 S
Pr225 O253 2.512 1_454 S
Pr225 O255 2.437 1_554 S
C226 Pr224 2.880 1_655 S
C226 C227 1.491 . S
C226 O244 1.254 . S
C226 O245 1.225 . S
C227 C226 1.491 . S
C227 C228 1.392 . S
C227 C232 1.356 . S
C228 C227 1.392 . S
C228 C229 1.368 . S
C228 H256 0.929 . S
C229 C228 1.368 . S
C229 C230 1.386 . S
C229 H257 0.929 . S
C230 C229 1.386 . S
C230 C231 1.373 . S
C231 C230 1.373 . S
C231 C232 1.409 . S
C231 H258 0.931 . S
C232 C227 1.356 . S
C232 C231 1.409 . S
C232 H259 0.930 . S
C233 O246 1.270 . S
C233 O247 1.248 . S
C234 O248 1.267 . S
C234 O249 1.278 . S
C235 Pr225 2.880 . S
C235 C236 1.491 . S
C235 O250 1.254 . S
C235 O251 1.225 . S
C236 C235 1.491 . S
C236 C237 1.392 . S
C236 C241 1.356 . S
C237 C236 1.392 . S
C237 C238 1.368 . S
C237 H260 0.929 . S
C238 C237 1.368 . S
C238 C239 1.386 . S
C238 H261 0.929 . S
C239 C238 1.386 . S
C239 C240 1.373 . S
C240 C239 1.373 . S
C240 C241 1.409 . S
C240 H262 0.931 . S
C241 C236 1.356 . S
C241 C240 1.409 . S
C241 H263 0.930 . S
C242 O252 1.270 . S
C242 O253 1.248 . S
C243 O254 1.267 . S
C243 O255 1.278 . S
O244 Pr224 2.562 1_655 S
O244 C226 1.254 . S
O245 Pr224 2.490 1_655 S
O245 C226 1.225 . S
O246 Pr224 2.695 1_554 S
O246 Pr225 2.436 . S
O246 C233 1.270 . S
O247 Pr224 2.512 1_554 S
O247 C233 1.248 . S
O248 Pr225 2.438 1_655 S
O248 C234 1.267 . S
O249 Pr224 2.437 1_654 S
O249 C234 1.278 . S
O250 Pr225 2.562 . S
O250 C235 1.254 . S
O251 Pr225 2.490 . S
O251 C235 1.225 . S
O252 Pr224 2.436 1_655 S
O252 Pr225 2.695 1_656 S
O252 C242 1.270 . S
O253 Pr225 2.512 1_656 S
O253 C242 1.248 . S
O254 Pr224 2.438 . S
O254 C243 1.267 . S
O255 Pr225 2.437 1_556 S
O255 C243 1.278 . S
H256 C228 0.929 . S
H257 C229 0.929 . S
H258 C231 0.931 . S
H259 C232 0.930 . S
H260 C237 0.929 . S
H261 C238 0.929 . S
H262 C240 0.931 . S
H263 C241 0.930 . S
H264 C270 0.930 . S
H265 C273 0.930 . S
H266 C274 0.930 . S
H267 C275 0.930 . S
H268 C278 0.930 . S
H269 C279 0.930 . S
C270 H264 0.930 . S
C270 C271 1.355 . S
C270 C272 1.415 . S
C271 C270 1.355 . S
C271 C273 1.419 . S
C272 C270 1.415 . S
C272 C277 1.425 . S
C272 C279 1.409 . S
C273 H265 0.930 . S
C273 C271 1.419 . S
C273 C274 1.362 . S
C274 H266 0.930 . S
C274 C273 1.362 . S
C274 C277 1.409 . S
C275 H267 0.930 . S
C275 C276 1.355 . S
C275 C277 1.415 . S
C276 C275 1.355 . S
C276 C278 1.419 . S
C277 C272 1.425 . S
C277 C274 1.409 . S
C277 C275 1.415 . S
C278 H268 0.930 . S
C278 C276 1.419 . S
C278 C279 1.362 . S
C279 H269 0.930 . S
C279 C272 1.409 . S
C279 C278 1.362 . S
H280 C286 0.930 . S
H281 C289 0.930 . S
H282 C290 0.930 . S
H283 C291 0.930 . S
H284 C294 0.945 . S
H285 C295 0.930 . S
C286 H280 0.930 . S
C286 C287 1.355 . S
C286 C288 1.415 . S
C287 C286 1.355 . S
C287 C289 1.419 . S
C288 C286 1.415 . S
C288 C293 1.425 . S
C288 C295 1.409 . S
C289 H281 0.930 . S
C289 C287 1.419 . S
C289 C290 1.362 . S
C290 H282 0.930 . S
C290 C289 1.362 . S
C290 C293 1.409 . S
C291 H283 0.930 . S
C291 C292 1.355 . S
C291 C293 1.415 . S
C292 C291 1.355 . S
C292 C294 1.419 . S
C293 C288 1.425 . S
C293 C290 1.409 . S
C293 C291 1.415 . S
C294 H284 0.945 . S
C294 C292 1.419 . S
C294 C295 1.362 . S
C295 H285 0.930 . S
C295 C288 1.409 . S
C295 C294 1.362 . S
H296 C302 0.930 . S
H297 C305 0.930 . S
H298 C306 0.930 . S
H299 C307 0.930 . S
H300 C310 0.930 . S
H301 C311 0.930 . S
C302 H296 0.930 . S
C302 C303 1.355 . S
C302 C304 1.415 . S
C303 C302 1.355 . S
C303 C305 1.419 . S
C304 C302 1.415 . S
C304 C309 1.425 . S
C304 C311 1.409 . S
C305 H297 0.930 . S
C305 C303 1.419 . S
C305 C306 1.362 . S
C306 H298 0.930 . S
C306 C305 1.362 . S
C306 C309 1.409 . S
C307 H299 0.930 . S
C307 C308 1.355 . S
C307 C309 1.415 . S
C308 C307 1.355 . S
C308 C310 1.419 . S
C309 C304 1.425 . S
C309 C306 1.409 . S
C309 C307 1.415 . S
C310 H300 0.930 . S
C310 C308 1.419 . S
C310 C311 1.362 . S
C311 H301 0.930 . S
C311 C304 1.409 . S
C311 C310 1.362 . S
H312 C318 0.930 . S
H313 C321 0.930 . S
H314 C322 0.930 . S
H315 C323 0.930 . S
H316 C326 0.930 . S
H317 C327 0.930 . S
C318 H312 0.930 . S
C318 C319 1.355 . S
C318 C320 1.415 . S
C319 C318 1.355 . S
C319 C321 1.419 . S
C320 C318 1.415 . S
C320 C325 1.425 . S
C320 C327 1.409 . S
C321 H313 0.930 . S
C321 C319 1.419 . S
C321 C322 1.362 . S
C322 H314 0.930 . S
C322 C321 1.362 . S
C322 C325 1.409 . S
C323 H315 0.930 . S
C323 C324 1.355 . S
C323 C325 1.415 . S
C324 C323 1.355 . S
C324 C326 1.419 . S
C325 C320 1.425 . S
C325 C322 1.409 . S
C325 C323 1.415 . S
C326 H316 0.930 . S
C326 C324 1.419 . S
C326 C327 1.362 . S
C327 H317 0.930 . S
C327 C320 1.409 . S
C327 C326 1.362 . S
H328 C334 0.930 . S
H329 C337 0.930 . S
H330 C338 0.930 . S
H331 C339 0.930 . S
H332 C342 0.930 . S
H333 C343 0.930 . S
C334 H328 0.930 . S
C334 C335 1.355 . S
C334 C336 1.415 . S
C335 C334 1.355 . S
C335 C337 1.419 . S
C336 C334 1.415 . S
C336 C341 1.425 . S
C336 C343 1.409 . S
C337 H329 0.930 . S
C337 C335 1.419 . S
C337 C338 1.362 . S
C338 H330 0.930 . S
C338 C337 1.362 . S
C338 C341 1.409 . S
C339 H331 0.930 . S
C339 C340 1.355 . S
C339 C341 1.415 . S
C340 C339 1.355 . S
C340 C342 1.419 . S
C341 C336 1.425 . S
C341 C338 1.409 . S
C341 C339 1.415 . S
C342 H332 0.930 . S
C342 C340 1.419 . S
C342 C343 1.362 . S
C343 H333 0.930 . S
C343 C336 1.409 . S
C343 C342 1.362 . S
H344 C350 0.930 . S
H345 C353 0.930 . S
H346 C354 0.930 . S
H347 C355 0.930 . S
H348 C358 0.930 . S
H349 C359 0.930 . S
C350 H344 0.930 . S
C350 C351 1.355 . S
C350 C352 1.415 . S
C351 C350 1.355 . S
C351 C353 1.419 . S
C352 C350 1.415 . S
C352 C357 1.425 . S
C352 C359 1.409 . S
C353 H345 0.930 . S
C353 C351 1.419 . S
C353 C354 1.362 . S
C354 H346 0.930 . S
C354 C353 1.362 . S
C354 C357 1.409 . S
C355 H347 0.930 . S
C355 C356 1.355 . S
C355 C357 1.415 . S
C356 C355 1.355 . S
C356 C358 1.419 . S
C357 C352 1.425 . S
C357 C354 1.409 . S
C357 C355 1.415 . S
C358 H348 0.930 . S
C358 C356 1.419 . S
C358 C359 1.362 . S
C359 H349 0.930 . S
C359 C352 1.409 . S
C359 C358 1.362 . S
H360 C366 0.930 . S
H361 C369 0.930 . S
H362 C370 0.930 . S
H363 C371 0.930 . S
H364 C374 0.930 . S
H365 C375 0.930 . S
C366 H360 0.930 . S
C366 C367 1.355 . S
C366 C368 1.415 . S
C367 C366 1.355 . S
C367 C369 1.419 . S
C368 C366 1.415 . S
C368 C373 1.425 . S
C368 C375 1.409 . S
C369 H361 0.930 . S
C369 C367 1.419 . S
C369 C370 1.362 . S
C370 H362 0.930 . S
C370 C369 1.362 . S
C370 C373 1.409 . S
C371 H363 0.930 . S
C371 C372 1.355 . S
C371 C373 1.415 . S
C372 C371 1.355 . S
C372 C374 1.419 . S
C373 C368 1.425 . S
C373 C370 1.409 . S
C373 C371 1.415 . S
C374 H364 0.930 . S
C374 C372 1.419 . S
C374 C375 1.362 . S
C375 H365 0.930 . S
C375 C368 1.409 . S
C375 C374 1.362 . S
H376 C382 0.930 . S
H377 C385 0.930 . S
H378 C386 0.930 . S
H379 C387 0.930 . S
H380 C390 0.930 . S
H381 C391 0.930 . S
C382 H376 0.930 . S
C382 C383 1.355 . S
C382 C384 1.415 . S
C383 C382 1.355 . S
C383 C385 1.419 . S
C384 C382 1.415 . S
C384 C389 1.425 . S
C384 C391 1.409 . S
C385 H377 0.930 . S
C385 C383 1.419 . S
C385 C386 1.362 . S
C386 H378 0.930 . S
C386 C385 1.362 . S
C386 C389 1.409 . S
C387 H379 0.930 . S
C387 C388 1.355 . S
C387 C389 1.415 . S
C388 C387 1.355 . S
C388 C390 1.419 . S
C389 C384 1.425 . S
C389 C386 1.409 . S
C389 C387 1.415 . S
C390 H380 0.930 . S
C390 C388 1.419 . S
C390 C391 1.362 . S
C391 H381 0.930 . S
C391 C384 1.409 . S
C391 C390 1.362 . S
H392 C398 0.930 . S
H393 C401 0.930 . S
H394 C402 0.930 . S
H395 C403 0.930 . S
H396 C406 0.930 . S
H397 C407 0.930 . S
C398 H392 0.930 . S
C398 C399 1.355 . S
C398 C400 1.415 . S
C399 C398 1.355 . S
C399 C401 1.419 . S
C400 C398 1.415 . S
C400 C405 1.425 . S
C400 C407 1.409 . S
C401 H393 0.930 . S
C401 C399 1.419 . S
C401 C402 1.362 . S
C402 H394 0.930 . S
C402 C401 1.362 . S
C402 C405 1.409 . S
C403 H395 0.930 . S
C403 C404 1.355 . S
C403 C405 1.415 . S
C404 C403 1.355 . S
C404 C406 1.419 . S
C405 C400 1.425 . S
C405 C402 1.409 . S
C405 C403 1.415 . S
C406 H396 0.930 . S
C406 C404 1.419 . S
C406 C407 1.362 . S
C407 H397 0.930 . S
C407 C400 1.409 . S
C407 C406 1.362 . S
H408 C414 0.930 . S
H409 C417 0.930 . S
H410 C418 0.930 . S
H411 C419 0.930 . S
H412 C422 0.930 . S
H413 C423 0.930 . S
C414 H408 0.930 . S
C414 C415 1.355 . S
C414 C416 1.415 . S
C415 C414 1.355 . S
C415 C417 1.419 . S
C416 C414 1.415 . S
C416 C421 1.425 . S
C416 C423 1.409 . S
C417 H409 0.930 . S
C417 C415 1.419 . S
C417 C418 1.362 . S
C418 H410 0.930 . S
C418 C417 1.362 . S
C418 C421 1.409 . S
C419 H411 0.930 . S
C419 C420 1.355 . S
C419 C421 1.415 . S
C420 C419 1.355 . S
C420 C422 1.419 . S
C421 C416 1.425 . S
C421 C418 1.409 . S
C421 C419 1.415 . S
C422 H412 0.930 . S
C422 C420 1.419 . S
C422 C423 1.362 . S
C423 H413 0.930 . S
C423 C416 1.409 . S
C423 C422 1.362 . S
H424 C430 0.930 . S
H425 C433 0.930 . S
H426 C434 0.930 . S
H427 C435 0.930 . S
H428 C438 0.941 . S
H429 C439 0.930 1_455 S
C430 H424 0.930 . S
C430 C431 1.355 . S
C430 C432 1.415 . S
C431 C430 1.355 . S
C431 C433 1.419 . S
C432 C430 1.415 . S
C432 C437 1.425 . S
C432 C439 1.409 . S
C433 H425 0.930 . S
C433 C431 1.419 . S
C433 C434 1.362 . S
C434 H426 0.930 . S
C434 C433 1.362 . S
C434 C437 1.409 . S
C435 H427 0.930 . S
C435 C436 1.355 . S
C435 C437 1.415 . S
C436 C435 1.355 . S
C436 C438 1.405 1_655 S
C437 C432 1.425 . S
C437 C434 1.409 . S
C437 C435 1.415 . S
C438 H428 0.941 . S
C438 C436 1.405 1_455 S
C438 C439 1.366 1_455 S
C439 H429 0.930 1_655 S
C439 C432 1.409 . S
C439 C438 1.366 1_655 S
H440 C446 0.930 . S
H441 C449 0.930 . S
H442 C450 0.930 . S
H443 C451 0.930 . S
H444 C454 0.930 . S
H445 C455 0.930 . S
C446 H440 0.930 . S
C446 C447 1.355 . S
C446 C448 1.415 . S
C447 C446 1.355 . S
C447 C449 1.419 . S
C448 C446 1.415 . S
C448 C453 1.425 . S
C448 C455 1.409 . S
C449 H441 0.930 . S
C449 C447 1.419 . S
C449 C450 1.362 . S
C450 H442 0.930 . S
C450 C449 1.362 . S
C450 C453 1.409 . S
C451 H443 0.930 . S
C451 C452 1.355 . S
C451 C453 1.415 . S
C452 C451 1.355 . S
C452 C454 1.419 . S
C453 C448 1.425 . S
C453 C450 1.409 . S
C453 C451 1.415 . S
C454 H444 0.930 . S
C454 C452 1.419 . S
C454 C455 1.362 . S
C455 H445 0.930 . S
C455 C448 1.409 . S
C455 C454 1.362 . S
H456 C462 0.930 . S
H457 C465 0.930 . S
H458 C466 0.930 . S
H459 C467 0.930 . S
H460 C470 0.930 . S
H461 C471 0.930 . S
C462 H456 0.930 . S
C462 C463 1.355 . S
C462 C464 1.415 . S
C463 C462 1.355 . S
C463 C465 1.419 . S
C464 C462 1.415 . S
C464 C469 1.425 . S
C464 C471 1.409 . S
C465 H457 0.930 . S
C465 C463 1.419 . S
C465 C466 1.362 . S
C466 H458 0.930 . S
C466 C465 1.362 . S
C466 C469 1.409 . S
C467 H459 0.930 . S
C467 C468 1.355 . S
C467 C469 1.415 . S
C468 C467 1.355 . S
C468 C470 1.419 . S
C469 C464 1.425 . S
C469 C466 1.409 . S
C469 C467 1.415 . S
C470 H460 0.930 . S
C470 C468 1.419 . S
C470 C471 1.362 . S
C471 H461 0.930 . S
C471 C464 1.409 . S
C471 C470 1.362 . S
H472 C478 0.930 . S
H473 C481 0.930 . S
H474 C482 0.930 . S
H475 C483 0.930 . S
H476 C486 0.930 . S
H477 C487 0.930 . S
C478 H472 0.930 . S
C478 C479 1.355 . S
C478 C480 1.415 . S
C479 C478 1.355 . S
C479 C481 1.419 . S
C480 C478 1.415 . S
C480 C485 1.425 . S
C480 C487 1.409 . S
C481 H473 0.930 . S
C481 C479 1.419 . S
C481 C482 1.362 . S
C482 H474 0.930 . S
C482 C481 1.362 . S
C482 C485 1.409 . S
C483 H475 0.930 . S
C483 C484 1.355 . S
C483 C485 1.415 . S
C484 C483 1.355 . S
C484 C486 1.419 . S
C485 C480 1.425 . S
C485 C482 1.409 . S
C485 C483 1.415 . S
C486 H476 0.930 . S
C486 C484 1.419 . S
C486 C487 1.362 . S
C487 H477 0.930 . S
C487 C480 1.409 . S
C487 C486 1.362 . S
H488 C494 0.930 . S
H489 C497 0.930 . S
H490 C498 0.930 . S
H491 C499 0.930 . S
H492 C502 0.930 . S
H493 C503 0.930 . S
C494 H488 0.930 . S
C494 C495 1.355 . S
C494 C496 1.415 . S
C495 C494 1.355 . S
C495 C497 1.419 . S
C496 C494 1.415 . S
C496 C501 1.425 . S
C496 C503 1.409 . S
C497 H489 0.930 . S
C497 C495 1.419 . S
C497 C498 1.362 . S
C498 H490 0.930 . S
C498 C497 1.362 . S
C498 C501 1.409 . S
C499 H491 0.930 . S
C499 C500 1.355 . S
C499 C501 1.415 . S
C500 C499 1.355 . S
C500 C502 1.419 . S
C501 C496 1.425 . S
C501 C498 1.409 . S
C501 C499 1.415 . S
C502 H492 0.930 . S
C502 C500 1.419 . S
C502 C503 1.362 . S
C503 H493 0.930 . S
C503 C496 1.409 . S
C503 C502 1.362 . S
H504 C510 0.930 . S
H505 C513 0.930 . S
H506 C514 0.930 . S
H507 C515 0.930 . S
H508 C518 0.930 . S
H509 C519 0.930 . S
C510 H504 0.930 . S
C510 C511 1.355 . S
C510 C512 1.415 . S
C511 C510 1.355 . S
C511 C513 1.419 . S
C512 C510 1.415 . S
C512 C517 1.425 . S
C512 C519 1.409 . S
C513 H505 0.930 . S
C513 C511 1.419 . S
C513 C514 1.362 . S
C514 H506 0.930 . S
C514 C513 1.362 . S
C514 C517 1.409 . S
C515 H507 0.930 . S
C515 C516 1.355 . S
C515 C517 1.415 . S
C516 C515 1.355 . S
C516 C518 1.419 . S
C517 C512 1.425 . S
C517 C514 1.409 . S
C517 C515 1.415 . S
C518 H508 0.930 . S
C518 C516 1.419 . S
C518 C519 1.362 . S
C519 H509 0.930 . S
C519 C512 1.409 . S
C519 C518 1.362 . S
H520 C526 0.930 . S
H521 C529 0.930 . S
H522 C530 0.930 . S
H523 C531 0.930 . S
H524 C534 0.930 . S
H525 C535 0.930 . S
C526 H520 0.930 . S
C526 C527 1.355 . S
C526 C528 1.415 . S
C527 C526 1.355 . S
C527 C529 1.419 . S
C528 C526 1.415 . S
C528 C533 1.425 . S
C528 C535 1.409 . S
C529 H521 0.930 . S
C529 C527 1.419 . S
C529 C530 1.362 . S
C530 H522 0.930 . S
C530 C529 1.362 . S
C530 C533 1.409 . S
C531 H523 0.930 . S
C531 C532 1.355 . S
C531 C533 1.415 . S
C532 C531 1.355 . S
C532 C534 1.419 . S
C533 C528 1.425 . S
C533 C530 1.409 . S
C533 C531 1.415 . S
C534 H524 0.930 . S
C534 C532 1.419 . S
C534 C535 1.362 . S
C535 H525 0.930 . S
C535 C528 1.409 . S
C535 C534 1.362 . S
H536 C542 0.930 . S
H537 C545 0.930 . S
H538 C546 0.930 . S
H539 C547 0.930 . S
H540 C550 0.930 . S
H541 C551 0.930 1_455 S
C542 H536 0.930 . S
C542 C543 1.355 . S
C542 C544 1.415 . S
C543 C542 1.355 . S
C543 C545 1.419 . S
C544 C542 1.415 . S
C544 C549 1.425 . S
C544 C551 1.409 . S
C545 H537 0.930 . S
C545 C543 1.419 . S
C545 C546 1.362 . S
C546 H538 0.930 . S
C546 C545 1.362 . S
C546 C549 1.409 . S
C547 H539 0.930 . S
C547 C548 1.355 . S
C547 C549 1.415 . S
C548 C547 1.355 . S
C548 C550 1.419 1_655 S
C549 C544 1.425 . S
C549 C546 1.409 . S
C549 C547 1.415 . S
C550 H540 0.930 . S
C550 C548 1.419 1_455 S
C550 C551 1.362 1_455 S
C551 H541 0.930 1_655 S
C551 C544 1.409 . S
C551 C550 1.362 1_655 S
H552 C558 0.930 . S
H553 C561 0.930 . S
H554 C562 0.930 . S
H555 C563 0.930 . S
H556 C566 0.930 . S
H557 C567 0.930 . S
C558 H552 0.930 . S
C558 C559 1.355 . S
C558 C560 1.415 . S
C559 C558 1.355 . S
C559 C561 1.419 . S
C560 C558 1.415 . S
C560 C565 1.425 . S
C560 C567 1.409 . S
C561 H553 0.930 . S
C561 C559 1.419 . S
C561 C562 1.362 . S
C562 H554 0.930 . S
C562 C561 1.362 . S
C562 C565 1.409 . S
C563 H555 0.930 . S
C563 C564 1.355 . S
C563 C565 1.415 . S
C564 C563 1.355 . S
C564 C566 1.419 . S
C565 C560 1.425 . S
C565 C562 1.409 . S
C565 C563 1.415 . S
C566 H556 0.930 . S
C566 C564 1.419 . S
C566 C567 1.362 . S
C567 H557 0.930 . S
C567 C560 1.409 . S
C567 C566 1.362 . S
H568 C574 0.930 . S
H569 C577 0.930 . S
H570 C578 0.930 . S
H571 C579 0.930 . S
H572 C582 0.930 . S
H573 C583 0.930 . S
C574 H568 0.930 . S
C574 C575 1.355 . S
C574 C576 1.415 . S
C575 C574 1.355 . S
C575 C577 1.419 . S
C576 C574 1.415 . S
C576 C581 1.425 . S
C576 C583 1.409 . S
C577 H569 0.930 . S
C577 C575 1.419 . S
C577 C578 1.362 . S
C578 H570 0.930 . S
C578 C577 1.362 . S
C578 C581 1.409 . S
C579 H571 0.930 . S
C579 C580 1.355 . S
C579 C581 1.415 . S
C580 C579 1.355 . S
C580 C582 1.419 . S
C581 C576 1.425 . S
C581 C578 1.409 . S
C581 C579 1.415 . S
C582 H572 0.930 . S
C582 C580 1.419 . S
C582 C583 1.362 . S
C583 H573 0.930 . S
C583 C576 1.409 . S
C583 C582 1.362 . S
H584 C590 0.930 . S
H585 C593 0.930 . S
H586 C594 0.930 . S
H587 C595 0.930 . S
H588 C598 0.930 . S
H589 C599 0.930 . S
C590 H584 0.930 . S
C590 C591 1.355 . S
C590 C592 1.415 . S
C591 C590 1.355 . S
C591 C593 1.419 . S
C592 C590 1.415 . S
C592 C597 1.425 . S
C592 C599 1.409 . S
C593 H585 0.930 . S
C593 C591 1.419 . S
C593 C594 1.362 . S
C594 H586 0.930 . S
C594 C593 1.362 . S
C594 C597 1.409 . S
C595 H587 0.930 . S
C595 C596 1.355 . S
C595 C597 1.415 . S
C596 C595 1.355 . S
C596 C598 1.419 . S
C597 C592 1.425 . S
C597 C594 1.409 . S
C597 C595 1.415 . S
C598 H588 0.930 . S
C598 C596 1.419 . S
C598 C599 1.362 . S
C599 H589 0.930 . S
C599 C592 1.409 . S
C599 C598 1.362 . S
H600 C606 0.930 . S
H601 C609 0.930 . S
H602 C610 0.930 . S
H603 C611 0.930 . S
H604 C614 0.930 . S
H605 C615 0.930 . S
C606 H600 0.930 . S
C606 C607 1.355 . S
C606 C608 1.415 . S
C607 C606 1.355 . S
C607 C609 1.419 . S
C608 C606 1.415 . S
C608 C613 1.425 . S
C608 C615 1.409 . S
C609 H601 0.930 . S
C609 C607 1.419 . S
C609 C610 1.362 . S
C610 H602 0.930 . S
C610 C609 1.362 . S
C610 C613 1.409 . S
C611 H603 0.930 . S
C611 C612 1.355 . S
C611 C613 1.415 . S
C612 C611 1.355 . S
C612 C614 1.419 . S
C613 C608 1.425 . S
C613 C610 1.409 . S
C613 C611 1.415 . S
C614 H604 0.930 . S
C614 C612 1.419 . S
C614 C615 1.362 . S
C615 H605 0.930 . S
C615 C608 1.409 . S
C615 C614 1.362 . S
H616 C622 0.930 . S
H617 C625 0.930 . S
H618 C626 0.930 . S
H619 C627 0.930 . S
H620 C630 0.930 . S
H621 C631 0.930 . S
C622 H616 0.930 . S
C622 C623 1.355 . S
C622 C624 1.415 . S
C623 C622 1.355 . S
C623 C625 1.419 . S
C624 C622 1.415 . S
C624 C629 1.425 . S
C624 C631 1.409 . S
C625 H617 0.930 . S
C625 C623 1.419 . S
C625 C626 1.362 . S
C626 H618 0.930 . S
C626 C625 1.362 . S
C626 C629 1.409 . S
C627 H619 0.930 . S
C627 C628 1.355 . S
C627 C629 1.415 . S
C628 C627 1.355 . S
C628 C630 1.419 . S
C629 C624 1.425 . S
C629 C626 1.409 . S
C629 C627 1.415 . S
C630 H620 0.930 . S
C630 C628 1.419 . S
C630 C631 1.362 . S
C631 H621 0.930 . S
C631 C624 1.409 . S
C631 C630 1.362 . S
H632 C638 0.930 . S
H633 C641 0.930 . S
H634 C642 0.930 . S
H635 C643 0.930 . S
H636 C646 0.930 . S
H637 C647 0.930 . S
C638 H632 0.930 . S
C638 C639 1.355 . S
C638 C640 1.415 . S
C639 C638 1.355 . S
C639 C641 1.419 . S
C640 C638 1.415 . S
C640 C645 1.425 . S
C640 C647 1.409 . S
C641 H633 0.930 . S
C641 C639 1.419 . S
C641 C642 1.362 . S
C642 H634 0.930 . S
C642 C641 1.362 . S
C642 C645 1.409 . S
C643 H635 0.930 . S
C643 C644 1.355 . S
C643 C645 1.415 . S
C644 C643 1.355 . S
C644 C646 1.419 . S
C645 C640 1.425 . S
C645 C642 1.409 . S
C645 C643 1.415 . S
C646 H636 0.930 . S
C646 C644 1.419 . S
C646 C647 1.362 . S
C647 H637 0.930 . S
C647 C640 1.409 . S
C647 C646 1.362 . S
C271 N1 0.856 . S
C276 C119 0.912 . S
C287 N18 1.493 . S
C292 C163 1.526 . S
C308 C193 1.885 . S
C303 N28 1.891 . S
C319 N40 2.855 . S
C324 C234 2.833 . S
C340 C150 1.193 . S
C335 N5 1.196 . S
C356 C114 2.213 . S
C351 N14 2.174 . S
C372 C242 1.246 . S
C367 N31 1.239 . S
C388 C203 2.050 . S
C383 N41 2.064 . S
C399 N2 1.073 . S
C404 C239 1.070 . S
C420 C153 2.230 1_556 S
C415 N27 2.254 . S
C431 N44 1.933 . S
C436 C122 1.988 1_655 S
C447 N15 1.707 . S
C452 C190 1.718 . S
C468 C110 1.443 . S
C463 N57 1.461 . S
C479 N70 1.182 . S
C484 C154 1.249 . S
C495 N79 2.156 . S
C500 C202 2.258 . S
C511 N93 2.679 . S
C516 C243 2.632 . S
C527 N54 0.769 . S
C532 C159 0.773 . S
C548 C123 2.736 1_655 S
C543 N66 2.739 . S
C564 C233 0.819 . S
C559 N80 0.791 . S
C580 C194 2.099 . S
C575 N96 2.188 . S
C591 N53 1.125 . S
C596 C230 1.205 . S
C612 C162 1.689 . S
C607 N83 1.652 . S
C628 C113 2.133 . S
C623 N92 2.211 . S
C639 N67 2.201 . S
C644 C199 2.167 . S
