# Generated by pormake.
# Topology pyr, (3,6)-cn, num edge types: 1
# Building blocks:
#     Node 0, Type 0, BuildingBlock: CUQRIR_clean_linker_1, # of connection points: 3
#     Node 1, Type 0, BuildingBlock: CUQRIR_clean_linker_1, # of connection points: 3
#     Node 2, Type 0, BuildingBlock: CUQRIR_clean_linker_1, # of connection points: 3
#     Node 3, Type 0, BuildingBlock: CUQRIR_clean_linker_1, # of connection points: 3
#     Node 4, Type 0, BuildingBlock: CUQRIR_clean_linker_1, # of connection points: 3
#     Node 5, Type 0, BuildingBlock: CUQRIR_clean_linker_1, # of connection points: 3
#     Node 6, Type 0, BuildingBlock: CUQRIR_clean_linker_1, # of connection points: 3
#     Node 7, Type 0, BuildingBlock: CUQRIR_clean_linker_1, # of connection points: 3
#     Node 8, Type 1, BuildingBlock: PAMTOO_clean_sbu_0, # of connection points: 6
#     Node 9, Type 1, BuildingBlock: PAMTOO_clean_sbu_0, # of connection points: 6
#     Node 10, Type 1, BuildingBlock: PAMTOO_clean_sbu_0, # of connection points: 6
#     Node 11, Type 1, BuildingBlock: PAMTOO_clean_sbu_0, # of connection points: 6
#     Edge 12, Type (0, 1), BuildingBlock: AJUNOK_clean_linker_0, # of connection points: 2
#     Edge 13, Type (0, 1), BuildingBlock: AJUNOK_clean_linker_0, # of connection points: 2
#     Edge 14, Type (0, 1), BuildingBlock: AJUNOK_clean_linker_0, # of connection points: 2
#     Edge 15, Type (0, 1), BuildingBlock: AJUNOK_clean_linker_0, # of connection points: 2
#     Edge 16, Type (0, 1), BuildingBlock: AJUNOK_clean_linker_0, # of connection points: 2
#     Edge 17, Type (0, 1), BuildingBlock: AJUNOK_clean_linker_0, # of connection points: 2
#     Edge 18, Type (0, 1), BuildingBlock: AJUNOK_clean_linker_0, # of connection points: 2
#     Edge 19, Type (0, 1), BuildingBlock: AJUNOK_clean_linker_0, # of connection points: 2
#     Edge 20, Type (0, 1), BuildingBlock: AJUNOK_clean_linker_0, # of connection points: 2
#     Edge 21, Type (0, 1), BuildingBlock: AJUNOK_clean_linker_0, # of connection points: 2
#     Edge 22, Type (0, 1), BuildingBlock: AJUNOK_clean_linker_0, # of connection points: 2
#     Edge 23, Type (0, 1), BuildingBlock: AJUNOK_clean_linker_0, # of connection points: 2
#     Edge 24, Type (0, 1), BuildingBlock: AJUNOK_clean_linker_0, # of connection points: 2
#     Edge 25, Type (0, 1), BuildingBlock: AJUNOK_clean_linker_0, # of connection points: 2
#     Edge 26, Type (0, 1), BuildingBlock: AJUNOK_clean_linker_0, # of connection points: 2
#     Edge 27, Type (0, 1), BuildingBlock: AJUNOK_clean_linker_0, # of connection points: 2
#     Edge 28, Type (0, 1), BuildingBlock: AJUNOK_clean_linker_0, # of connection points: 2
#     Edge 29, Type (0, 1), BuildingBlock: AJUNOK_clean_linker_0, # of connection points: 2
#     Edge 30, Type (0, 1), BuildingBlock: AJUNOK_clean_linker_0, # of connection points: 2
#     Edge 31, Type (0, 1), BuildingBlock: AJUNOK_clean_linker_0, # of connection points: 2
#     Edge 32, Type (0, 1), BuildingBlock: AJUNOK_clean_linker_0, # of connection points: 2
#     Edge 33, Type (0, 1), BuildingBlock: AJUNOK_clean_linker_0, # of connection points: 2
#     Edge 34, Type (0, 1), BuildingBlock: AJUNOK_clean_linker_0, # of connection points: 2
#     Edge 35, Type (0, 1), BuildingBlock: AJUNOK_clean_linker_0, # of connection points: 2
# Relax obj value: 0.286
# Max RMSD: 0.294
# Mean RMSD: 0.175
data_MOF--net-pyr--node1-PAMTOO_clean_sbu_0--node2-CUQRIR_clean_linker_1--edge1-AJUNOK_clean_linker_0
_symmetry_space_group_name_H-M    P1
_symmetry_Int_Tables_number       1
_symmetry_cell_setting            triclinic
loop_
_symmetry_equiv_pos_as_xyz
'x, y, z'
_cell_length_a     24.601669
_cell_length_b     25.690753
_cell_length_c     24.632907
_cell_angle_alpha  89.256733
_cell_angle_beta   90.550632
_cell_angle_gamma 110.65325
loop_
_atom_site_label
_atom_site_type_symbol
_atom_site_fract_x
_atom_site_fract_y
_atom_site_fract_z
_atom_type_partial_charge
C0 C 0.44967 0.46356 0.29642 0.0
N1 N 0.47408 0.42805 0.31835 0.0
N2 N 0.43104 0.44995 0.24485 0.0
C3 C 0.43813 0.50884 0.32722 0.0
C4 C 0.45308 0.40997 0.23339 0.0
N5 N 0.47968 0.39718 0.27724 0.0
C6 C 0.4394 0.37662 0.18208 0.0
H7 H 0.39072 0.49862 0.33235 0.0
H8 H 0.45415 0.5479 0.30297 0.0
H9 H 0.46009 0.51559 0.36746 0.0
H10 H 0.42955 0.4011 0.14842 0.0
H11 H 0.40087 0.33845 0.18886 0.0
H12 H 0.47635 0.36378 0.17081 0.0
C13 C 0.12389 0.81329 0.76645 0.0
N14 N 0.1108 0.8546 0.79026 0.0
N15 N 0.14162 0.78325 0.80347 0.0
C16 C 0.12393 0.80409 0.70619 0.0
C17 C 0.13217 0.80407 0.85127 0.0
N18 N 0.11587 0.84882 0.84361 0.0
C19 C 0.15106 0.78775 0.90529 0.0
H20 H 0.09958 0.82657 0.68362 0.0
H21 H 0.10386 0.75896 0.69783 0.0
H22 H 0.1693 0.8178 0.69132 0.0
H23 H 0.19142 0.82089 0.91916 0.0
H24 H 0.15908 0.74797 0.90233 0.0
H25 H 0.11698 0.78304 0.93607 0.0
C26 C 0.61466 0.41985 0.90919 0.0
N27 N 0.64509 0.41375 0.95391 0.0
N28 N 0.64255 0.46871 0.88269 0.0
C29 C 0.55481 0.38065 0.89461 0.0
C30 C 0.69098 0.49235 0.91346 0.0
N31 N 0.69258 0.45959 0.95705 0.0
C32 C 0.73895 0.5458 0.89844 0.0
H33 H 0.55862 0.34618 0.87012 0.0
H34 H 0.53052 0.40215 0.87057 0.0
H35 H 0.52987 0.36236 0.93177 0.0
H36 H 0.73097 0.58103 0.9181 0.0
H37 H 0.7403 0.55287 0.85386 0.0
H38 H 0.78175 0.54522 0.91239 0.0
C39 C 0.87092 0.71898 0.42357 0.0
N40 N 0.9189 0.75623 0.39927 0.0
N41 N 0.83664 0.74452 0.4453 0.0
C42 C 0.8568 0.65696 0.42463 0.0
C43 C 0.86448 0.79854 0.43228 0.0
N44 N 0.9162 0.80704 0.40754 0.0
C45 C 0.84218 0.84459 0.44538 0.0
H46 H 0.84098 0.63999 0.38391 0.0
H47 H 0.82322 0.63589 0.45518 0.0
H48 H 0.8963 0.64728 0.43434 0.0
H49 H 0.86456 0.86677 0.48215 0.0
H50 H 0.79463 0.82826 0.45248 0.0
H51 H 0.8519 0.87523 0.41141 0.0
C52 C 0.62013 0.84188 1.02222 0.0
N53 N 0.65321 0.82738 0.98606 0.0
N54 N 0.5843 0.86411 0.99669 0.0
C55 C 0.62754 0.84121 1.08286 0.0
C56 C 0.59543 0.86029 0.94343 0.0
N57 N 0.63787 0.8389 0.93684 0.0
C58 C 0.57382 0.8885 0.89866 0.0
H59 H 0.58432 0.82815 0.10255 0.0
H60 H 0.65263 0.88387 0.09694 0.0
H61 H 0.65047 0.81275 0.09547 0.0
H62 H 0.60549 0.93126 0.89237 0.0
H63 H 0.53119 0.89121 0.90943 0.0
H64 H 0.56977 0.86545 0.86013 0.0
C65 C 0.92513 0.38739 0.53114 0.0
N66 N 0.9529 0.36476 0.49629 0.0
N67 N 0.89546 0.41525 0.50402 0.0
C68 C 0.92407 0.38019 0.59164 0.0
C69 C 0.9073 0.40975 0.45135 0.0
N70 N 0.94092 0.37817 0.44639 0.0
C71 C 0.87513 0.42438 0.40452 0.0
H72 H 0.96574 0.37735 0.60601 0.0
H73 H 0.88799 0.3416 0.60327 0.0
H74 H 0.91672 0.41572 0.6114 0.0
H75 H 0.90397 0.43846 0.36886 0.0
H76 H 0.85857 0.45777 0.41542 0.0
H77 H 0.83778 0.38688 0.39285 0.0
C78 C 0.34249 0.74398 0.34008 0.0
N79 N 0.39659 0.77753 0.35574 0.0
N80 N 0.33415 0.74832 0.28607 0.0
C81 C 0.2976 0.70724 0.37847 0.0
C82 C 0.38497 0.78582 0.26919 0.0
N83 N 0.42215 0.80632 0.31134 0.0
C84 C 0.39734 0.80577 0.21117 0.0
H85 H 0.30726 0.66888 0.38711 0.0
H86 H 0.25312 0.69569 0.36132 0.0
H87 H 0.29924 0.72882 0.41747 0.0
H88 H 0.3872 0.84427 0.20524 0.0
H89 H 0.37078 0.7739 0.18234 0.0
H90 H 0.4439 0.81556 0.20178 0.0
C91 C 0.11485 0.41043 0.82365 0.0
N92 N 0.14758 0.4042 0.7811 0.0
N93 N 0.13707 0.46244 0.84518 0.0
C94 C 0.06233 0.36521 0.84614 0.0
C95 C 0.18537 0.4873 0.81489 0.0
N96 N 0.1923 0.4523 0.77652 0.0
C97 C 0.22753 0.54544 0.82421 0.0
H98 H 1.02264 0.37278 0.83248 0.0
H99 H 0.06289 0.36588 0.89109 0.0
H100 H 0.06007 0.32342 0.83286 0.0
H101 H 0.20669 0.57202 0.84389 0.0
H102 H 0.24714 0.56516 0.78531 0.0
H103 H 0.26292 0.54334 0.85139 0.0
Dy104 Dy 0.12366 0.12196 0.56559 0.0
Dy105 Dy 0.99244 0.08185 0.61122 0.0
C106 C 0.08991 0.19757 0.65534 0.0
O107 O 0.11012 1.04787 0.61966 0.0
O108 O 0.03861 1.05199 0.67561 0.0
O109 O 0.21233 0.13044 0.58277 0.0
O110 O 0.18637 0.14405 0.50074 0.0
O111 O 1.00212 1.00802 0.56845 0.0
O112 O 0.06832 1.05741 0.50614 0.0
O113 O 0.9962 0.13287 0.53654 0.0
O114 O 0.09091 0.18988 0.53953 0.0
O115 O 0.90255 1.03143 0.59562 0.0
O116 O 0.92604 0.08421 0.66626 0.0
C117 C 0.0812 1.03437 0.66528 0.0
O118 O 0.1314 0.18263 0.63422 0.0
O119 O 0.03455 0.16769 0.64692 0.0
C120 C 0.28372 0.19121 0.52614 0.0
C121 C 0.37983 0.28408 0.49599 0.0
C122 C 0.34039 0.28916 0.53478 0.0
C123 C 0.2922 0.24295 0.54947 0.0
C124 C 0.32619 0.18485 0.49218 0.0
C125 C 0.3741 0.23103 0.47718 0.0
C126 C 0.2291 0.14453 0.53295 0.0
C127 C 1.02834 1.01028 0.52169 0.0
C128 C 0.03628 0.18184 0.52818 0.0
C129 C 0.85127 0.9979 0.67644 0.0
C130 C 0.78523 0.92094 0.75352 0.0
C131 C 0.84606 0.93993 0.75608 0.0
C132 C 0.87892 0.97785 0.71748 0.0
C133 C 0.79064 0.97602 0.67157 0.0
C134 C 0.75768 0.93747 0.7099 0.0
C135 C 0.88525 1.04447 0.64162 0.0
H136 H 0.3438 0.32976 0.54953 0.0
H137 H 0.25987 0.24828 0.5762 0.0
H138 H 0.32029 0.14489 0.47429 0.0
H139 H 0.40309 0.22601 0.4465 0.0
H140 H 0.86797 0.92794 0.78973 0.0
H141 H 0.92576 0.99397 0.72147 0.0
H142 H 0.76874 0.99086 0.63988 0.0
H143 H 0.71072 0.92381 0.7078 0.0
Dy144 Dy 0.46227 0.1086 0.14436 0.0
Dy145 Dy 0.60034 0.13939 0.17453 0.0
C146 C 0.50223 1.02959 0.22884 0.0
O147 O 0.48046 0.17531 0.20482 0.0
O148 O 0.57457 0.19213 0.23439 0.0
O149 O 0.37086 0.08714 0.16317 0.0
O150 O 0.4021 0.1103 1.08121 0.0
O151 O 0.59752 0.21872 0.13956 0.0
O152 O 0.51892 0.17538 1.08582 0.0
O153 O 0.5762 0.09523 0.09539 0.0
O154 O 0.48383 1.03865 0.11088 0.0
O155 O 0.68534 0.16221 0.13855 0.0
O156 O 0.67231 0.13645 0.22328 0.0
C157 C 0.52493 0.20115 0.23613 0.0
O158 O 0.45967 1.04554 0.21071 0.0
O159 O 0.55676 1.05711 0.21624 0.0
C160 C 0.30456 1.05338 0.08992 0.0
C161 C 0.21639 0.98614 1.02191 0.0
C162 C 0.25873 0.96631 1.0432 0.0
C163 C 0.30278 0.99985 1.07701 0.0
C164 C 0.25963 1.07134 1.07226 0.0
C165 C 0.21576 1.03792 1.03821 0.0
C166 C 0.35709 0.09433 0.11308 0.0
C167 C 0.56463 0.21975 0.0979 0.0
C168 C 0.53448 1.04704 0.08941 0.0
C169 C 0.7658 0.19469 0.19783 0.0
C170 C 0.86488 0.26315 0.252 0.0
C171 C 0.82153 0.28407 0.23582 0.0
C172 C 0.77175 0.24971 0.20914 0.0
C173 C 0.81223 0.17624 0.20771 0.0
C174 C 0.86174 0.21039 0.23477 0.0
C175 C 0.70941 0.15369 0.18355 0.0
H176 H 0.2604 0.9268 1.03008 0.0
H177 H 0.33752 0.98567 0.08983 0.0
H178 H 0.26082 0.11285 1.08152 0.0
H179 H 0.18416 1.05425 1.02126 0.0
H180 H 0.82282 0.32436 0.2497 0.0
H181 H 0.73612 0.26443 0.20157 0.0
H182 H 0.80809 0.13378 0.19889 0.0
H183 H 0.89427 0.19333 0.24776 0.0
Dy184 Dy 0.50459 0.55197 0.57238 0.0
Dy185 Dy 0.52052 0.65789 0.64688 0.0
C186 C 0.56428 0.56398 0.69285 0.0
O187 O 0.41292 0.53521 0.60008 0.0
O188 O 0.44186 0.58718 0.67656 0.0
O189 O 0.48596 0.46342 0.56479 0.0
O190 O 0.51588 0.51778 0.49527 0.0
O191 O 0.46462 0.66673 0.5771 0.0
O192 O 0.49312 0.61733 0.51466 0.0
O193 O 0.6001 0.68645 0.59378 0.0
O194 O 0.59957 0.60009 0.57158 0.0
O195 O 0.53251 0.74475 0.65713 0.0
O196 O 0.51647 0.68944 0.72685 0.0
C197 C 0.402 0.5481 0.64927 0.0
O198 O 0.52954 0.53104 0.65661 0.0
O199 O 0.57686 0.61804 0.68959 0.0
C200 C 0.56515 0.45549 0.5158 0.0
C201 C 0.67372 0.44037 0.52302 0.0
C202 C 0.62802 0.41106 0.55797 0.0
C203 C 0.57433 0.41841 0.55431 0.0
C204 C 0.6106 0.48382 0.48007 0.0
C205 C 0.66419 0.47644 0.48374 0.0
C206 C 0.51207 0.47047 0.51797 0.0
C207 C 0.47201 0.65651 0.52613 0.0
C208 C 0.6248 0.65424 0.57132 0.0
C209 C 0.4644 0.74921 0.72185 0.0
C210 C 0.35639 0.75315 0.75338 0.0
C211 C 0.36531 0.74091 0.69962 0.0
C212 C 0.41868 0.7386 0.68409 0.0
C213 C 0.45622 0.76291 0.77526 0.0
C214 C 0.40259 0.76506 0.7909 0.0
C215 C 0.51636 0.73689 0.7078 0.0
H216 H 0.63416 0.38333 0.58895 0.0
H217 H 0.54049 0.39613 0.58267 0.0
H218 H 0.60529 0.51271 0.44989 0.0
H219 H 0.69829 0.49901 0.45573 0.0
H220 H 0.33107 0.7332 0.6695 0.0
H221 H 0.42361 0.72711 0.64282 0.0
H222 H 0.49064 0.77018 0.80517 0.0
H223 H 0.39682 0.77497 0.83257 0.0
Dy224 Dy 1.01903 0.65628 1.08449 0.0
Dy225 Dy 1.0137 0.54654 0.1568 0.0
C226 C 0.97806 0.64906 0.20908 0.0
O227 O 0.09645 0.6832 0.14023 0.0
O228 O 0.10633 0.5991 0.14398 0.0
O229 O 0.04262 0.74532 1.07482 0.0
O230 O 1.00513 0.69113 1.00753 0.0
O231 O 0.03421 0.52592 1.07231 0.0
O232 O 0.06481 0.61241 1.03207 0.0
O233 O 0.92094 0.52051 0.12713 0.0
O234 O 0.92927 0.59488 1.06976 0.0
O235 O 0.99939 0.45902 0.16941 0.0
O236 O 0.04163 0.51812 0.23159 0.0
C237 C 0.12647 0.65212 0.15474 0.0
O238 O 0.97165 0.66579 0.15941 0.0
O239 O 0.99734 0.60729 0.2169 0.0
C240 C 0.97184 0.76508 1.02072 0.0
C241 C 0.87117 0.79291 1.01025 0.0
C242 C 0.89889 0.7964 1.06084 0.0
C243 C 0.94873 0.78258 1.06609 0.0
C244 C 0.94566 0.76413 0.96967 0.0
C245 C 0.89556 0.77765 0.96451 0.0
C246 C 1.01773 0.74081 1.02728 0.0
C247 C 0.0583 0.55911 1.03126 0.0
C248 C 0.89932 0.54547 0.09004 0.0
C249 C 0.08484 0.45303 0.20975 0.0
C250 C 0.19589 0.44287 0.20945 0.0
C251 C 0.17435 0.46101 0.16268 0.0
C252 C 0.1196 0.46623 0.16295 0.0
C253 C 0.1049 0.43225 0.25563 0.0
C254 C 0.15971 0.42683 0.25538 0.0
C255 C 0.03244 0.46865 0.21258 0.0
H256 H 0.88063 0.80757 0.09678 0.0
H257 H 0.96764 0.78348 0.10609 0.0
H258 H 0.96262 0.75073 0.93415 0.0
H259 H 0.87516 0.77512 0.92497 0.0
H260 H 0.20045 0.47263 0.12632 0.0
H261 H 0.10557 0.4831 0.12727 0.0
H262 H 0.07944 0.42255 0.29243 0.0
H263 H 0.17506 0.41289 0.29219 0.0
C264 C 0.40378 0.39662 0.39291 0.0
C265 C 0.45985 0.40537 0.3728 0.0
C266 C 0.38173 0.36265 0.43767 0.0
C267 C 0.4132 0.33296 0.46281 0.0
H268 H 0.37383 0.41162 0.37117 0.0
H269 H 0.33693 0.35484 0.44856 0.0
S270 S 0.56378 0.34418 0.43064 0.0
N271 N 0.54974 0.38776 0.38762 0.0
N272 N 0.50464 0.31675 0.46769 0.0
C273 C 0.47035 0.34301 0.44563 0.0
C274 C 0.49443 0.38081 0.40166 0.0
C275 C 0.1017 0.88706 0.93138 0.0
C276 C 0.13176 0.89365 0.88192 0.0
C277 C 0.12745 0.91946 0.97674 0.0
C278 C 0.18363 0.95952 0.97328 0.0
H279 H 0.06029 0.85363 0.93608 0.0
H280 H 0.10492 0.91094 1.01523 0.0
S281 S 0.27891 0.99494 0.85291 0.0
N282 N 0.21979 0.94441 0.83265 0.0
N283 N 0.26667 1.00687 0.91647 0.0
C284 C 0.21213 0.96914 0.92325 0.0
C285 C 0.18647 0.93592 0.87776 0.0
C286 C 0.62074 0.54572 0.83542 0.0
C287 C 0.62392 0.49199 0.83461 0.0
C288 C 0.6027 0.56895 0.78938 0.0
C289 C 0.58631 0.53932 0.74039 0.0
H290 H 0.63165 0.56978 0.87229 0.0
H291 H 0.60046 0.61014 0.7927 0.0
S292 S 0.59133 0.39869 0.71561 0.0
N293 N 0.61289 0.41142 0.77935 0.0
N294 N 0.57742 0.45379 0.69378 0.0
C295 C 0.59007 0.48576 0.73894 0.0
C296 C 0.60916 0.46248 0.78565 0.0
C297 C 0.97558 0.70357 0.35568 0.0
C298 C 0.94348 0.73959 0.35102 0.0
C299 C 0.98628 0.67469 0.31038 0.0
C300 C 0.96569 0.68018 0.25748 0.0
H301 H 0.99074 0.69595 0.39534 0.0
H302 H 1.0106 0.64731 0.31716 0.0
S303 S 0.87997 0.77019 0.22261 0.0
N304 N 0.89179 0.77917 0.28852 0.0
N305 N 0.91228 0.72679 0.20407 0.0
C306 C 0.93503 0.71756 0.25213 0.0
C307 C 0.924 0.74664 0.29836 0.0
C308 C 0.45075 0.29562 0.28654 0.0
C309 C 0.49468 0.34787 0.28163 0.0
C310 C 0.46285 0.24688 0.27909 0.0
C311 C 0.51931 0.24872 0.26606 0.0
H312 H 0.40624 0.29278 0.29259 0.0
H313 H 0.4267 0.20765 0.2789 0.0
S314 S 0.65165 0.37558 0.263 0.0
N315 N 0.59799 0.39904 0.27276 0.0
N316 N 0.62125 0.30715 0.25945 0.0
C317 C 0.56469 0.3006 0.26758 0.0
C318 C 0.55212 0.35037 0.27456 0.0
C319 C 0.05794 0.91866 0.77073 0.0
C320 C 0.10653 0.90312 0.763 0.0
C321 C 0.05081 0.96267 0.74051 0.0
C322 C 0.09235 0.99272 0.70181 0.0
H323 H 1.02442 0.89533 0.79891 0.0
H324 H 1.01163 0.97188 0.74632 0.0
S325 S 0.23212 0.97357 0.67345 0.0
N326 N 0.19986 0.92483 0.7187 0.0
N327 N 0.18714 1.00743 0.6625 0.0
C328 C 0.14283 0.97942 0.69635 0.0
C329 C 0.14977 0.93466 0.72676 0.0
C330 C 0.75297 0.52672 1.02438 0.0
C331 C 0.73706 0.47429 0.99948 0.0
C332 C 0.80358 0.54789 1.05639 0.0
C333 C 0.83987 0.51695 1.06659 0.0
H334 H 0.72752 0.55288 1.01659 0.0
H335 H 0.81559 0.58985 1.07164 0.0
S336 S 0.81522 0.37517 1.01535 0.0
N337 N 0.76038 0.39067 0.98978 0.0
N338 N 0.85384 0.42916 1.05212 0.0
C339 C 0.82224 0.46274 1.04534 0.0
C340 C 0.77122 0.44166 1.01146 0.0
C341 C 0.73576 0.67852 0.4582 0.0
C342 C 0.7849 0.72115 0.47831 0.0
C343 C 0.68467 0.65698 0.48906 0.0
C344 C 0.68003 0.6783 0.54063 0.0
H345 H 0.73677 0.66209 0.41811 0.0
H346 H 0.64794 0.62406 0.47185 0.0
S347 S 0.79737 0.78756 0.61316 0.0
N348 N 0.82699 0.78103 0.5549 0.0
N349 N 0.72975 0.74318 0.61111 0.0
C350 C 0.72877 0.72084 0.56127 0.0
C351 C 0.78144 0.74156 0.53058 0.0
C352 C 0.32539 0.39951 0.24248 0.0
C353 C 0.37352 0.44678 0.22815 0.0
C354 C 0.26833 0.39796 0.23463 0.0
C355 C 0.25692 0.4436 0.21193 0.0
H356 H 0.33219 0.36425 0.26198 0.0
H357 H 0.23284 0.36109 0.24744 0.0
S358 S 0.36839 0.57728 0.16741 0.0
N359 N 0.4066 0.54 0.19032 0.0
N360 N 0.29943 0.53742 0.17422 0.0
C361 C 0.30491 0.49064 0.19594 0.0
C362 C 0.36314 0.49224 0.20458 0.0
C363 C 0.6142 0.31178 0.97123 0.0
C364 C 0.62766 0.36624 0.99106 0.0
C365 C 0.59233 0.26457 1.0055 0.0
C366 C 0.5837 0.26985 1.06127 0.0
H367 H 0.62052 0.30574 0.92867 0.0
H368 H 0.58317 0.2237 0.9884 0.0
S369 S 0.60715 0.4026 0.13227 0.0
N370 N 0.62665 0.42205 1.06913 0.0
N371 N 0.5879 0.3341 0.13401 0.0
C372 C 0.59682 0.32405 1.0815 0.0
C373 C 0.61821 0.37197 1.04637 0.0
C374 C 0.97476 0.90825 0.40231 0.0
C375 C 0.96445 0.85548 0.42672 0.0
C376 C 0.9992 0.95853 0.4318 0.0
C377 C 1.01301 0.95834 0.48761 0.0
H378 H 0.95882 0.91034 0.36152 0.0
H379 H 1.00307 0.99745 0.41178 0.0
S380 S 1.00102 0.83253 0.56954 0.0
N381 N 0.97654 0.8078 0.50898 0.0
N382 N 1.0199 0.90079 0.5643 0.0
C383 C 1.00686 0.90637 0.51132 0.0
C384 C 0.98383 0.85564 0.48093 0.0
C385 C 0.24766 0.81159 0.8085 0.0
C386 C 0.19372 0.7713 0.79453 0.0
C387 C 0.29976 0.80439 0.79647 0.0
C388 C 0.30006 0.75682 0.76939 0.0
H389 H 0.24949 0.84981 0.82771 0.0
H390 H 0.34014 0.83729 0.80678 0.0
S391 S 0.17047 0.63841 0.7251 0.0
N392 N 0.14339 0.68216 0.75289 0.0
N393 N 0.24183 0.66761 0.73049 0.0
C394 C 0.2464 0.71566 0.75579 0.0
C395 C 0.19309 0.72319 0.7682 0.0
C396 C 0.72336 0.90622 0.89391 0.0
C397 C 0.67774 0.85471 0.8923 0.0
C398 C 0.75969 0.92582 0.8494 0.0
C399 C 0.75124 0.89461 0.80167 0.0
H400 H 0.72967 0.93217 0.92935 0.0
H401 H 0.79312 0.96674 0.85149 0.0
S402 S 0.64251 0.75406 0.78006 0.0
N403 N 0.62893 0.77054 0.84186 0.0
N404 N 0.69734 0.8078 0.75686 0.0
C405 C 0.70722 0.84198 0.80027 0.0
C406 C 0.67037 0.82183 0.84606 0.0
C407 C 0.96155 0.36655 0.35054 0.0
C408 C 0.93567 0.34335 0.40005 0.0
C409 C 0.94223 0.33848 0.30151 0.0
C410 C 0.89787 0.28598 0.30148 0.0
H411 H 0.99291 0.40853 0.34949 0.0
H412 H 0.95918 0.35921 0.2635 0.0
S413 S 0.81717 0.20761 0.42031 0.0
N414 N 0.86341 0.26566 0.44554 0.0
N415 N 0.83057 0.211 0.35463 0.0
C416 C 0.87504 0.2608 0.35112 0.0
C417 C 0.89318 0.28995 0.40028 0.0
C418 C 0.41474 0.76151 0.4533 0.0
C419 C 0.42682 0.75758 0.39799 0.0
C420 C 0.42995 0.72946 0.49398 0.0
C421 C 0.45752 0.69112 0.48152 0.0
H422 H 0.39086 0.78782 0.46491 0.0
H423 H 0.41843 0.73384 0.53554 0.0
S424 S 0.50179 0.66743 0.34272 0.0
N425 N 0.47023 0.71393 0.33327 0.0
N426 N 0.49912 0.65432 0.40867 0.0
C427 C 0.4717 0.68841 0.42636 0.0
C428 C 0.45645 0.72137 0.38512 0.0
C429 C 0.11671 0.46598 0.94442 0.0
C430 C 0.11586 0.48586 0.89089 0.0
C431 C 0.09793 0.48947 0.98912 0.0
C432 C 0.07878 0.53512 0.98285 0.0
H433 H 0.13251 0.43217 0.95187 0.0
H434 H 0.0993 0.4721 1.02913 0.0
S435 S 0.06535 0.60105 0.8508 0.0
N436 N 0.09112 0.55212 0.83412 0.0
N437 N 0.05866 0.59768 0.91752 0.0
C438 C 0.07781 0.5553 0.9294 0.0
C439 C 0.09558 0.53046 0.88381 0.0
C440 C 0.516 0.90197 1.03977 0.0
C441 C 0.57084 0.90974 1.01832 0.0
C442 C 0.50378 0.94707 1.0612 0.0
C443 C 0.54614 1.0012 1.06164 0.0
H444 H 0.48286 0.86088 1.04035 0.0
H445 H 0.46125 0.93918 1.07845 0.0
S446 S 0.69662 1.04155 1.00883 0.0
N447 N 0.66743 0.97408 0.99809 0.0
N448 N 0.64521 1.05903 1.03744 0.0
C449 C 0.601 1.00902 1.03934 0.0
C450 C 0.61317 0.96321 1.01797 0.0
C451 C 0.9454 0.27396 0.53733 0.0
C452 C 0.97757 0.32226 0.50825 0.0
C453 C 0.9644 0.22869 0.54206 0.0
C454 C 1.01715 0.23012 0.51904 0.0
H455 H 0.90366 0.26985 0.55424 0.0
H456 H 0.93754 0.19236 0.56457 0.0
S457 S 0.119 0.3482 0.44111 0.0
N458 N 0.06509 0.36944 0.45684 0.0
N459 N 0.10244 0.28517 0.46784 0.0
C460 C 0.0508 0.2789 0.49138 0.0
C461 C 1.03058 0.32464 0.48543 0.0
C462 C 0.25869 0.7573 0.22323 0.0
C463 C 0.28209 0.72358 0.25398 0.0
C464 C 0.20917 0.73396 0.19041 0.0
C465 C 0.18088 0.67592 0.18732 0.0
H466 H 0.27875 0.80214 0.22486 0.0
H467 H 0.19283 0.76169 0.16757 0.0
S468 S 0.22245 0.57037 0.26478 0.0
N469 N 0.27296 0.63008 0.28077 0.0
N470 N 0.17824 0.5857 0.22185 0.0
C471 C 0.20347 0.64193 0.21899 0.0
C472 C 0.25434 0.66587 0.25168 0.0
C473 C 0.2985 0.48049 0.76524 0.0
C474 C 0.24282 0.46485 0.74158 0.0
C475 C 0.34911 0.50563 0.73455 0.0
C476 C 0.3468 0.51535 0.67825 0.0
H477 H 0.30273 0.47569 0.80864 0.0
H478 H 0.39058 0.51869 0.75554 0.0
S479 S 0.21177 0.47748 0.59546 0.0
N480 N 0.1883 0.45819 0.65783 0.0
N481 N 0.28351 0.50328 0.59938 0.0
C482 C 0.29149 0.49657 0.65326 0.0
C483 C 0.23957 0.47183 0.68502 0.0
C484 C 0.7135 0.76958 0.97663 0.0
C485 C 0.70626 0.81737 0.99712 0.0
C486 C 0.76703 0.76191 0.98107 0.0
C487 C 0.81519 0.80217 1.0058 0.0
H488 H 0.67759 0.73841 0.95639 0.0
H489 H 0.77076 0.72423 0.9651 0.0
S490 S 0.81991 0.9374 1.06057 0.0
N491 N 0.7523 0.9073 1.03926 0.0
N492 N 0.85292 0.89288 1.04828 0.0
C493 C 0.80855 0.85048 1.02591 0.0
C494 C 0.75409 0.85819 1.0213 0.0
C495 C 0.4207 0.90157 0.31692 0.0
C496 C 0.45298 0.86616 0.31029 0.0
C497 C 0.43762 0.95489 0.29228 0.0
C498 C 0.48848 0.97603 0.26089 0.0
H499 H 0.37873 0.88541 0.33649 0.0
H500 H 0.40927 0.97872 0.29596 0.0
S501 S 0.59141 0.90219 0.23551 0.0
N502 N 0.54018 0.85799 0.27326 0.0
N503 N 0.57344 0.95811 0.22854 0.0
C504 C 0.52369 0.94287 0.25792 0.0
C505 C 0.50588 0.88835 0.28249 0.0
C506 C 0.17575 0.32867 0.73868 0.0
C507 C 0.135 0.3552 0.74646 0.0
C508 C 0.16148 0.27842 0.70897 0.0
C509 C 0.10548 0.25175 0.68634 0.0
H510 H 0.21854 0.34612 0.75678 0.0
H511 H 0.19436 0.25973 0.70472 0.0
S512 S 0.98471 0.30692 0.6912 0.0
N513 N 0.0381 0.35333 0.72457 0.0
N514 N 1.01037 0.25882 0.67202 0.0
C515 C 0.06507 0.27893 0.69292 0.0
C516 C 0.08003 0.33044 0.72193 0.0
C517 C 0.83756 0.47401 0.52317 0.0
C518 C 0.84214 0.42114 0.52126 0.0
C519 C 0.78298 0.47994 0.52588 0.0
C520 C 0.73113 0.43312 0.52658 0.0
H521 H 0.87623 0.51082 0.51951 0.0
H522 H 0.78124 0.5215 0.52571 0.0
S523 S 0.72071 0.28562 0.52201 0.0
N524 N 0.79115 0.32144 0.52088 0.0
N525 N 0.68862 0.33211 0.52568 0.0
C526 C 0.73558 0.38001 0.52669 0.0
C527 C 0.79106 0.37416 0.5241 0.0
loop_
_geom_bond_atom_site_label_1
_geom_bond_atom_site_label_2
_geom_bond_distance
_geom_bond_site_symmetry_2
_ccdc_geom_bond_type
C0 N1 1.317 . S
C0 N2 1.348 . S
C0 C3 1.485 . S
N1 C0 1.317 . S
N1 N5 1.370 . S
N2 C0 1.348 . S
N2 C4 1.346 . S
C3 C0 1.485 . S
C3 H7 0.960 . S
C3 H8 0.961 . S
C3 H9 0.960 . S
C4 N2 1.346 . S
C4 N5 1.307 . S
C4 C6 1.486 . S
N5 N1 1.370 . S
N5 C4 1.307 . S
C6 C4 1.486 . S
C6 H10 0.960 . S
C6 H11 0.960 . S
C6 H12 0.959 . S
H7 C3 0.960 . S
H8 C3 0.961 . S
H9 C3 0.960 . S
H10 C6 0.960 . S
H11 C6 0.960 . S
H12 C6 0.959 . S
C13 N14 1.317 . S
C13 N15 1.348 . S
C13 C16 1.485 . S
N14 C13 1.317 . S
N14 N18 1.370 . S
N15 C13 1.348 . S
N15 C17 1.346 . S
C16 C13 1.485 . S
C16 H20 0.960 . S
C16 H21 0.961 . S
C16 H22 0.960 . S
C17 N15 1.346 . S
C17 N18 1.307 . S
C17 C19 1.486 . S
N18 N14 1.370 . S
N18 C17 1.307 . S
C19 C17 1.486 . S
C19 H23 0.960 . S
C19 H24 0.960 . S
C19 H25 0.959 . S
H20 C16 0.960 . S
H21 C16 0.961 . S
H22 C16 0.960 . S
H23 C19 0.960 . S
H24 C19 0.960 . S
H25 C19 0.959 . S
C26 N27 1.317 . S
C26 N28 1.348 . S
C26 C29 1.485 . S
N27 C26 1.317 . S
N27 N31 1.370 . S
N28 C26 1.348 . S
N28 C30 1.346 . S
C29 C26 1.485 . S
C29 H33 0.960 . S
C29 H34 0.961 . S
C29 H35 0.960 . S
C30 N28 1.346 . S
C30 N31 1.307 . S
C30 C32 1.486 . S
N31 N27 1.370 . S
N31 C30 1.307 . S
C32 C30 1.486 . S
C32 H36 0.960 . S
C32 H37 0.960 . S
C32 H38 0.959 . S
H33 C29 0.960 . S
H34 C29 0.961 . S
H35 C29 0.960 . S
H36 C32 0.960 . S
H37 C32 0.960 . S
H38 C32 0.959 . S
C39 N40 1.317 . S
C39 N41 1.348 . S
C39 C42 1.485 . S
N40 C39 1.317 . S
N40 N44 1.370 . S
N41 C39 1.348 . S
N41 C43 1.346 . S
C42 C39 1.485 . S
C42 H46 0.960 . S
C42 H47 0.961 . S
C42 H48 0.960 . S
C43 N41 1.346 . S
C43 N44 1.307 . S
C43 C45 1.486 . S
N44 N40 1.370 . S
N44 C43 1.307 . S
C45 C43 1.486 . S
C45 H49 0.960 . S
C45 H50 0.960 . S
C45 H51 0.959 . S
H46 C42 0.960 . S
H47 C42 0.961 . S
H48 C42 0.960 . S
H49 C45 0.960 . S
H50 C45 0.960 . S
H51 C45 0.959 . S
C52 N53 1.317 . S
C52 N54 1.348 . S
C52 C55 1.485 . S
N53 C52 1.317 . S
N53 N57 1.370 . S
N54 C52 1.348 . S
N54 C56 1.346 . S
C55 C52 1.485 . S
C55 H59 0.960 . S
C55 H60 0.961 . S
C55 H61 0.960 . S
C56 N54 1.346 . S
C56 N57 1.307 . S
C56 C58 1.486 . S
N57 N53 1.370 . S
N57 C56 1.307 . S
C58 C56 1.486 . S
C58 H62 0.960 . S
C58 H63 0.960 . S
C58 H64 0.959 . S
H59 C55 0.960 . S
H60 C55 0.961 . S
H61 C55 0.960 . S
H62 C58 0.960 . S
H63 C58 0.960 . S
H64 C58 0.959 . S
C65 N66 1.317 . S
C65 N67 1.348 . S
C65 C68 1.485 . S
N66 C65 1.317 . S
N66 N70 1.370 . S
N67 C65 1.348 . S
N67 C69 1.346 . S
C68 C65 1.485 . S
C68 H72 0.960 . S
C68 H73 0.961 . S
C68 H74 0.960 1_655 S
C69 N67 1.346 . S
C69 N70 1.307 . S
C69 C71 1.486 . S
N70 N66 1.370 . S
N70 C69 1.307 . S
C71 C69 1.486 . S
C71 H75 0.960 . S
C71 H76 0.960 . S
C71 H77 0.959 . S
H72 C68 0.960 . S
H73 C68 0.961 . S
H74 C68 0.960 1_455 S
H75 C71 0.960 . S
H76 C71 0.960 . S
H77 C71 0.959 . S
C78 N79 1.317 . S
C78 N80 1.348 . S
C78 C81 1.485 . S
N79 C78 1.317 . S
N79 N83 1.370 . S
N80 C78 1.348 . S
N80 C82 1.346 . S
C81 C78 1.485 . S
C81 H85 0.960 . S
C81 H86 0.961 . S
C81 H87 0.960 . S
C82 N80 1.346 . S
C82 N83 1.307 . S
C82 C84 1.486 . S
N83 N79 1.370 . S
N83 C82 1.307 . S
C84 C82 1.486 . S
C84 H88 0.960 . S
C84 H89 0.960 . S
C84 H90 0.959 . S
H85 C81 0.960 . S
H86 C81 0.961 . S
H87 C81 0.960 . S
H88 C84 0.960 . S
H89 C84 0.960 . S
H90 C84 0.959 . S
C91 N92 1.317 . S
C91 N93 1.348 . S
C91 C94 1.485 . S
N92 C91 1.317 . S
N92 N96 1.370 . S
N93 C91 1.348 . S
N93 C95 1.346 . S
C94 C91 1.485 . S
C94 H98 0.960 . S
C94 H99 0.961 . S
C94 H100 0.960 . S
C95 N93 1.346 . S
C95 N96 1.307 . S
C95 C97 1.486 . S
N96 N92 1.370 . S
N96 C95 1.307 . S
C97 C95 1.486 . S
C97 H101 0.960 . S
C97 H102 0.960 . S
C97 H103 0.959 . S
H98 C94 0.960 . S
H99 C94 0.961 . S
H100 C94 0.960 . S
H101 C97 0.960 . S
H102 C97 0.960 . S
H103 C97 0.959 . S
Dy104 O107 2.307 1_545 S
Dy104 O109 2.395 . S
Dy104 O110 2.379 . S
Dy104 O112 2.339 1_545 S
Dy104 O114 2.298 . S
Dy104 O118 2.275 . S
Dy104 C126 2.738 . S
Dy105 O108 2.298 1_645 S
Dy105 O111 2.275 1_545 S
Dy105 O113 2.307 . S
Dy105 O115 2.395 1_545 S
Dy105 O116 2.379 1_545 S
Dy105 O119 2.339 1_655 S
Dy105 C135 2.738 1_545 S
C106 O118 1.254 . S
C106 O119 1.257 . S
O107 Dy104 2.307 1_565 S
O107 C117 1.266 . S
O108 Dy105 2.298 1_465 S
O108 C117 1.236 . S
O109 Dy104 2.395 . S
O109 C126 1.255 . S
O110 Dy104 2.379 . S
O110 C126 1.249 . S
O111 Dy105 2.275 1_565 S
O111 C127 1.254 1_655 S
O112 Dy104 2.339 1_565 S
O112 C127 1.257 . S
O113 Dy105 2.307 . S
O113 C128 1.266 1_655 S
O114 Dy104 2.298 . S
O114 C128 1.236 . S
O115 Dy105 2.395 1_565 S
O115 C135 1.255 . S
O116 Dy105 2.379 1_565 S
O116 C135 1.249 . S
C117 O107 1.266 . S
C117 O108 1.236 . S
O118 Dy104 2.275 . S
O118 C106 1.254 . S
O119 Dy105 2.339 1_455 S
O119 C106 1.257 . S
C120 C123 1.344 . S
C120 C124 1.328 . S
C120 C126 1.516 . S
C121 C122 1.304 . S
C121 C125 1.323 . S
C122 C121 1.304 . S
C122 C123 1.371 . S
C122 H136 0.930 . S
C123 C120 1.344 . S
C123 C122 1.371 . S
C123 H137 0.931 . S
C124 C120 1.328 . S
C124 C125 1.433 . S
C124 H138 0.931 . S
C125 C121 1.323 . S
C125 C124 1.433 . S
C125 H139 0.933 . S
C126 Dy104 2.738 . S
C126 O109 1.255 . S
C126 O110 1.249 . S
C126 C120 1.516 . S
C127 O111 1.254 1_455 S
C127 O112 1.257 . S
C128 O113 1.266 1_455 S
C128 O114 1.236 . S
C129 C132 1.344 . S
C129 C133 1.328 . S
C129 C135 1.516 . S
C130 C131 1.304 . S
C130 C134 1.323 . S
C131 C130 1.304 . S
C131 C132 1.371 . S
C131 H140 0.930 . S
C132 C129 1.344 . S
C132 C131 1.371 . S
C132 H141 0.931 . S
C133 C129 1.328 . S
C133 C134 1.433 . S
C133 H142 0.931 . S
C134 C130 1.323 . S
C134 C133 1.433 . S
C134 H143 0.933 . S
C135 Dy105 2.738 1_565 S
C135 O115 1.255 . S
C135 O116 1.249 . S
C135 C129 1.516 . S
H136 C122 0.930 . S
H137 C123 0.931 . S
H138 C124 0.931 . S
H139 C125 0.933 . S
H140 C131 0.930 . S
H141 C132 0.931 . S
H142 C133 0.931 . S
H143 C134 0.933 . S
Dy144 O147 2.307 . S
Dy144 O149 2.395 1_545 S
Dy144 O150 2.379 1_554 S
Dy144 O152 2.339 1_554 S
Dy144 O154 2.298 1_544 S
Dy144 O158 2.275 1_545 S
Dy144 C166 2.738 1_544 S
Dy145 O148 2.298 . S
Dy145 O151 2.275 . S
Dy145 O153 2.307 1_545 S
Dy145 O155 2.395 . S
Dy145 O156 2.379 . S
Dy145 O159 2.339 1_545 S
Dy145 C175 2.738 . S
C146 O158 1.254 . S
C146 O159 1.257 . S
O147 Dy144 2.307 . S
O147 C157 1.266 . S
O148 Dy145 2.298 . S
O148 C157 1.236 . S
O149 Dy144 2.395 1_565 S
O149 C166 1.255 1_554 S
O150 Dy144 2.379 1_556 S
O150 C166 1.249 1_545 S
O151 Dy145 2.275 . S
O151 C167 1.254 . S
O152 Dy144 2.339 1_556 S
O152 C167 1.257 1_556 S
O153 Dy145 2.307 1_565 S
O153 C168 1.266 . S
O154 Dy144 2.298 1_566 S
O154 C168 1.236 1_556 S
O155 Dy145 2.395 . S
O155 C175 1.255 . S
O156 Dy145 2.379 . S
O156 C175 1.249 . S
C157 O147 1.266 . S
C157 O148 1.236 . S
O158 Dy144 2.275 1_565 S
O158 C146 1.254 . S
O159 Dy145 2.339 1_565 S
O159 C146 1.257 . S
C160 C163 1.344 . S
C160 C164 1.328 . S
C160 C166 1.516 . S
C161 C162 1.304 . S
C161 C165 1.323 . S
C162 C161 1.304 . S
C162 C163 1.371 . S
C162 H176 0.930 . S
C163 C160 1.344 . S
C163 C162 1.371 . S
C163 H177 0.931 . S
C164 C160 1.328 . S
C164 C165 1.433 . S
C164 H178 0.931 . S
C165 C161 1.323 . S
C165 C164 1.433 . S
C165 H179 0.933 . S
C166 Dy144 2.738 1_566 S
C166 O149 1.255 1_556 S
C166 O150 1.249 1_565 S
C166 C160 1.516 . S
C167 O151 1.254 . S
C167 O152 1.257 1_554 S
C168 O153 1.266 . S
C168 O154 1.236 1_554 S
C169 C172 1.344 . S
C169 C173 1.328 . S
C169 C175 1.516 . S
C170 C171 1.304 . S
C170 C174 1.323 . S
C171 C170 1.304 . S
C171 C172 1.371 . S
C171 H180 0.930 . S
C172 C169 1.344 . S
C172 C171 1.371 . S
C172 H181 0.931 . S
C173 C169 1.328 . S
C173 C174 1.433 . S
C173 H182 0.931 . S
C174 C170 1.323 . S
C174 C173 1.433 . S
C174 H183 0.933 . S
C175 Dy145 2.738 . S
C175 O155 1.255 . S
C175 O156 1.249 . S
C175 C169 1.516 . S
H176 C162 0.930 . S
H177 C163 0.931 . S
H178 C164 0.931 . S
H179 C165 0.933 . S
H180 C171 0.930 . S
H181 C172 0.931 . S
H182 C173 0.931 . S
H183 C174 0.933 . S
Dy184 O187 2.307 . S
Dy184 O189 2.395 . S
Dy184 O190 2.379 . S
Dy184 O192 2.339 . S
Dy184 O194 2.298 . S
Dy184 O198 2.275 . S
Dy184 C206 2.738 . S
Dy185 O188 2.298 . S
Dy185 O191 2.275 . S
Dy185 O193 2.307 . S
Dy185 O195 2.395 . S
Dy185 O196 2.379 . S
Dy185 O199 2.339 . S
Dy185 C215 2.738 . S
C186 O198 1.254 . S
C186 O199 1.257 . S
O187 Dy184 2.307 . S
O187 C197 1.266 . S
O188 Dy185 2.298 . S
O188 C197 1.236 . S
O189 Dy184 2.395 . S
O189 C206 1.255 . S
O190 Dy184 2.379 . S
O190 C206 1.249 . S
O191 Dy185 2.275 . S
O191 C207 1.254 . S
O192 Dy184 2.339 . S
O192 C207 1.257 . S
O193 Dy185 2.307 . S
O193 C208 1.266 . S
O194 Dy184 2.298 . S
O194 C208 1.236 . S
O195 Dy185 2.395 . S
O195 C215 1.255 . S
O196 Dy185 2.379 . S
O196 C215 1.249 . S
C197 O187 1.266 . S
C197 O188 1.236 . S
O198 Dy184 2.275 . S
O198 C186 1.254 . S
O199 Dy185 2.339 . S
O199 C186 1.257 . S
C200 C203 1.344 . S
C200 C204 1.328 . S
C200 C206 1.516 . S
C201 C202 1.304 . S
C201 C205 1.323 . S
C202 C201 1.304 . S
C202 C203 1.371 . S
C202 H216 0.930 . S
C203 C200 1.344 . S
C203 C202 1.371 . S
C203 H217 0.931 . S
C204 C200 1.328 . S
C204 C205 1.433 . S
C204 H218 0.931 . S
C205 C201 1.323 . S
C205 C204 1.433 . S
C205 H219 0.933 . S
C206 Dy184 2.738 . S
C206 O189 1.255 . S
C206 O190 1.249 . S
C206 C200 1.516 . S
C207 O191 1.254 . S
C207 O192 1.257 . S
C208 O193 1.266 . S
C208 O194 1.236 . S
C209 C212 1.344 . S
C209 C213 1.328 . S
C209 C215 1.516 . S
C210 C211 1.304 . S
C210 C214 1.323 . S
C211 C210 1.304 . S
C211 C212 1.371 . S
C211 H220 0.930 . S
C212 C209 1.344 . S
C212 C211 1.371 . S
C212 H221 0.931 . S
C213 C209 1.328 . S
C213 C214 1.433 . S
C213 H222 0.931 . S
C214 C210 1.323 . S
C214 C213 1.433 . S
C214 H223 0.933 . S
C215 Dy185 2.738 . S
C215 O195 1.255 . S
C215 O196 1.249 . S
C215 C209 1.516 . S
H216 C202 0.930 . S
H217 C203 0.931 . S
H218 C204 0.931 . S
H219 C205 0.933 . S
H220 C211 0.930 . S
H221 C212 0.931 . S
H222 C213 0.931 . S
H223 C214 0.933 . S
Dy224 O227 2.307 1_556 S
Dy224 O229 2.395 1_455 S
Dy224 O230 2.379 1_455 S
Dy224 O232 2.339 . S
Dy224 O234 2.298 1_455 S
Dy224 O238 2.275 1_456 S
Dy224 C246 2.738 1_455 S
Dy225 O228 2.298 . S
Dy225 O231 2.275 1_554 S
Dy225 O233 2.307 1_455 S
Dy225 O235 2.395 . S
Dy225 O236 2.379 . S
Dy225 O239 2.339 1_455 S
Dy225 C255 2.738 . S
C226 O238 1.254 . S
C226 O239 1.257 . S
O227 Dy224 2.307 1_554 S
O227 C237 1.266 . S
O228 Dy225 2.298 . S
O228 C237 1.236 . S
O229 Dy224 2.395 1_655 S
O229 C246 1.255 . S
O230 Dy224 2.379 1_655 S
O230 C246 1.249 . S
O231 Dy225 2.275 1_556 S
O231 C247 1.254 . S
O232 Dy224 2.339 . S
O232 C247 1.257 . S
O233 Dy225 2.307 1_655 S
O233 C248 1.266 1_554 S
O234 Dy224 2.298 1_655 S
O234 C248 1.236 . S
O235 Dy225 2.395 . S
O235 C255 1.255 . S
O236 Dy225 2.379 . S
O236 C255 1.249 . S
C237 O227 1.266 . S
C237 O228 1.236 . S
O238 Dy224 2.275 1_654 S
O238 C226 1.254 . S
O239 Dy225 2.339 1_655 S
O239 C226 1.257 . S
C240 C243 1.344 . S
C240 C244 1.328 . S
C240 C246 1.516 . S
C241 C242 1.304 . S
C241 C245 1.323 . S
C242 C241 1.304 . S
C242 C243 1.371 . S
C242 H256 0.930 . S
C243 C240 1.344 . S
C243 C242 1.371 . S
C243 H257 0.931 . S
C244 C240 1.328 . S
C244 C245 1.433 . S
C244 H258 0.931 . S
C245 C241 1.323 . S
C245 C244 1.433 . S
C245 H259 0.933 . S
C246 Dy224 2.738 1_655 S
C246 O229 1.255 . S
C246 O230 1.249 . S
C246 C240 1.516 . S
C247 O231 1.254 . S
C247 O232 1.257 . S
C248 O233 1.266 1_556 S
C248 O234 1.236 . S
C249 C252 1.344 . S
C249 C253 1.328 . S
C249 C255 1.516 . S
C250 C251 1.304 . S
C250 C254 1.323 . S
C251 C250 1.304 . S
C251 C252 1.371 . S
C251 H260 0.930 . S
C252 C249 1.344 . S
C252 C251 1.371 . S
C252 H261 0.931 . S
C253 C249 1.328 . S
C253 C254 1.433 . S
C253 H262 0.931 . S
C254 C250 1.323 . S
C254 C253 1.433 . S
C254 H263 0.933 . S
C255 Dy225 2.738 . S
C255 O235 1.255 . S
C255 O236 1.249 . S
C255 C249 1.516 . S
H256 C242 0.930 . S
H257 C243 0.931 . S
H258 C244 0.931 . S
H259 C245 0.933 . S
H260 C251 0.930 . S
H261 C252 0.931 . S
H262 C253 0.931 . S
H263 C254 0.933 . S
C264 C265 1.369 . S
C264 C266 1.419 . S
C264 H268 0.930 . S
C265 C264 1.369 . S
C265 C274 1.429 . S
C266 C264 1.419 . S
C266 C267 1.363 . S
C266 H269 0.929 . S
C267 C266 1.363 . S
C267 C273 1.428 . S
H268 C264 0.930 . S
H269 C266 0.929 . S
S270 N271 1.613 . S
S270 N272 1.610 . S
N271 S270 1.613 . S
N271 C274 1.350 . S
N272 S270 1.610 . S
N272 C273 1.351 . S
C273 C267 1.428 . S
C273 N272 1.351 . S
C273 C274 1.434 . S
C274 C265 1.429 . S
C274 N271 1.350 . S
C274 C273 1.434 . S
C275 C276 1.369 . S
C275 C277 1.419 . S
C275 H279 0.930 . S
C276 C275 1.369 . S
C276 C285 1.429 . S
C277 C275 1.419 . S
C277 C278 1.363 . S
C277 H280 0.929 . S
C278 C277 1.363 . S
C278 C284 1.428 . S
H279 C275 0.930 . S
H280 C277 0.929 . S
S281 N282 1.613 . S
S281 N283 1.610 . S
N282 S281 1.613 . S
N282 C285 1.350 . S
N283 S281 1.610 . S
N283 C284 1.351 . S
C284 C278 1.428 . S
C284 N283 1.351 . S
C284 C285 1.434 . S
C285 C276 1.429 . S
C285 N282 1.350 . S
C285 C284 1.434 . S
C286 C287 1.369 . S
C286 C288 1.419 . S
C286 H290 0.930 . S
C287 C286 1.369 . S
C287 C296 1.429 . S
C288 C286 1.419 . S
C288 C289 1.363 . S
C288 H291 0.929 . S
C289 C288 1.363 . S
C289 C295 1.428 . S
H290 C286 0.930 . S
H291 C288 0.929 . S
S292 N293 1.613 . S
S292 N294 1.610 . S
N293 S292 1.613 . S
N293 C296 1.350 . S
N294 S292 1.610 . S
N294 C295 1.351 . S
C295 C289 1.428 . S
C295 N294 1.351 . S
C295 C296 1.434 . S
C296 C287 1.429 . S
C296 N293 1.350 . S
C296 C295 1.434 . S
C297 C298 1.369 . S
C297 C299 1.419 . S
C297 H301 0.930 . S
C298 C297 1.369 . S
C298 C307 1.429 . S
C299 C297 1.419 . S
C299 C300 1.363 . S
C299 H302 0.929 . S
C300 C299 1.363 . S
C300 C306 1.428 . S
H301 C297 0.930 . S
H302 C299 0.929 . S
S303 N304 1.613 . S
S303 N305 1.610 . S
N304 S303 1.613 . S
N304 C307 1.350 . S
N305 S303 1.610 . S
N305 C306 1.351 . S
C306 C300 1.428 . S
C306 N305 1.351 . S
C306 C307 1.434 . S
C307 C298 1.429 . S
C307 N304 1.350 . S
C307 C306 1.434 . S
C308 C309 1.369 . S
C308 C310 1.419 . S
C308 H312 0.930 . S
C309 C308 1.369 . S
C309 C318 1.429 . S
C310 C308 1.419 . S
C310 C311 1.363 . S
C310 H313 0.929 . S
C311 C310 1.363 . S
C311 C317 1.428 . S
H312 C308 0.930 . S
H313 C310 0.929 . S
S314 N315 1.613 . S
S314 N316 1.610 . S
N315 S314 1.613 . S
N315 C318 1.350 . S
N316 S314 1.610 . S
N316 C317 1.351 . S
C317 C311 1.428 . S
C317 N316 1.351 . S
C317 C318 1.434 . S
C318 C309 1.429 . S
C318 N315 1.350 . S
C318 C317 1.434 . S
C319 C320 1.369 . S
C319 C321 1.419 . S
C319 H323 0.930 . S
C320 C319 1.369 . S
C320 C329 1.429 . S
C321 C319 1.419 . S
C321 C322 1.363 . S
C321 H324 0.929 . S
C322 C321 1.363 . S
C322 C328 1.428 . S
H323 C319 0.930 . S
H324 C321 0.929 . S
S325 N326 1.613 . S
S325 N327 1.610 . S
N326 S325 1.613 . S
N326 C329 1.350 . S
N327 S325 1.610 . S
N327 C328 1.351 . S
C328 C322 1.428 . S
C328 N327 1.351 . S
C328 C329 1.434 . S
C329 C320 1.429 . S
C329 N326 1.350 . S
C329 C328 1.434 . S
C330 C331 1.369 . S
C330 C332 1.419 . S
C330 H334 0.930 . S
C331 C330 1.369 . S
C331 C340 1.429 . S
C332 C330 1.419 . S
C332 C333 1.363 . S
C332 H335 0.929 1_556 S
C333 C332 1.363 . S
C333 C339 1.428 . S
H334 C330 0.930 . S
H335 C332 0.929 1_554 S
S336 N337 1.613 . S
S336 N338 1.610 . S
N337 S336 1.613 . S
N337 C340 1.350 . S
N338 S336 1.610 . S
N338 C339 1.351 . S
C339 C333 1.428 . S
C339 N338 1.351 . S
C339 C340 1.434 . S
C340 C331 1.429 . S
C340 N337 1.350 . S
C340 C339 1.434 . S
C341 C342 1.369 . S
C341 C343 1.419 . S
C341 H345 0.930 . S
C342 C341 1.369 . S
C342 C351 1.429 . S
C343 C341 1.419 . S
C343 C344 1.363 . S
C343 H346 0.929 . S
C344 C343 1.363 . S
C344 C350 1.428 . S
H345 C341 0.930 . S
H346 C343 0.929 . S
S347 N348 1.613 . S
S347 N349 1.610 . S
N348 S347 1.613 . S
N348 C351 1.350 . S
N349 S347 1.610 . S
N349 C350 1.351 . S
C350 C344 1.428 . S
C350 N349 1.351 . S
C350 C351 1.434 . S
C351 C342 1.429 . S
C351 N348 1.350 . S
C351 C350 1.434 . S
C352 C353 1.369 . S
C352 C354 1.419 . S
C352 H356 0.930 . S
C353 C352 1.369 . S
C353 C362 1.429 . S
C354 C352 1.419 . S
C354 C355 1.363 . S
C354 H357 0.929 . S
C355 C354 1.363 . S
C355 C361 1.428 . S
H356 C352 0.930 . S
H357 C354 0.929 . S
S358 N359 1.613 . S
S358 N360 1.610 . S
N359 S358 1.613 . S
N359 C362 1.350 . S
N360 S358 1.610 . S
N360 C361 1.351 . S
C361 C355 1.428 . S
C361 N360 1.351 . S
C361 C362 1.434 . S
C362 C353 1.429 . S
C362 N359 1.350 . S
C362 C361 1.434 . S
C363 C364 1.369 . S
C363 C365 1.419 . S
C363 H367 0.930 . S
C364 C363 1.369 . S
C364 C373 1.429 . S
C365 C363 1.419 . S
C365 C366 1.363 . S
C365 H368 0.929 . S
C366 C365 1.363 . S
C366 C372 1.428 . S
H367 C363 0.930 . S
H368 C365 0.929 . S
S369 N370 1.613 1_554 S
S369 N371 1.610 . S
N370 S369 1.613 1_556 S
N370 C373 1.350 . S
N371 S369 1.610 . S
N371 C372 1.351 1_554 S
C372 C366 1.428 . S
C372 N371 1.351 1_556 S
C372 C373 1.434 . S
C373 C364 1.429 . S
C373 N370 1.350 . S
C373 C372 1.434 . S
C374 C375 1.369 . S
C374 C376 1.419 . S
C374 H378 0.930 . S
C375 C374 1.369 . S
C375 C384 1.429 . S
C376 C374 1.419 . S
C376 C377 1.363 . S
C376 H379 0.929 . S
C377 C376 1.363 . S
C377 C383 1.428 . S
H378 C374 0.930 . S
H379 C376 0.929 . S
S380 N381 1.613 . S
S380 N382 1.610 . S
N381 S380 1.613 . S
N381 C384 1.350 . S
N382 S380 1.610 . S
N382 C383 1.351 . S
C383 C377 1.428 . S
C383 N382 1.351 . S
C383 C384 1.434 . S
C384 C375 1.429 . S
C384 N381 1.350 . S
C384 C383 1.434 . S
C385 C386 1.369 . S
C385 C387 1.419 . S
C385 H389 0.930 . S
C386 C385 1.369 . S
C386 C395 1.429 . S
C387 C385 1.419 . S
C387 C388 1.363 . S
C387 H390 0.929 . S
C388 C387 1.363 . S
C388 C394 1.428 . S
H389 C385 0.930 . S
H390 C387 0.929 . S
S391 N392 1.613 . S
S391 N393 1.610 . S
N392 S391 1.613 . S
N392 C395 1.350 . S
N393 S391 1.610 . S
N393 C394 1.351 . S
C394 C388 1.428 . S
C394 N393 1.351 . S
C394 C395 1.434 . S
C395 C386 1.429 . S
C395 N392 1.350 . S
C395 C394 1.434 . S
C396 C397 1.369 . S
C396 C398 1.419 . S
C396 H400 0.930 . S
C397 C396 1.369 . S
C397 C406 1.429 . S
C398 C396 1.419 . S
C398 C399 1.363 . S
C398 H401 0.929 . S
C399 C398 1.363 . S
C399 C405 1.428 . S
H400 C396 0.930 . S
H401 C398 0.929 . S
S402 N403 1.613 . S
S402 N404 1.610 . S
N403 S402 1.613 . S
N403 C406 1.350 . S
N404 S402 1.610 . S
N404 C405 1.351 . S
C405 C399 1.428 . S
C405 N404 1.351 . S
C405 C406 1.434 . S
C406 C397 1.429 . S
C406 N403 1.350 . S
C406 C405 1.434 . S
C407 C408 1.369 . S
C407 C409 1.419 . S
C407 H411 0.930 . S
C408 C407 1.369 . S
C408 C417 1.429 . S
C409 C407 1.419 . S
C409 C410 1.363 . S
C409 H412 0.929 . S
C410 C409 1.363 . S
C410 C416 1.428 . S
H411 C407 0.930 . S
H412 C409 0.929 . S
S413 N414 1.613 . S
S413 N415 1.610 . S
N414 S413 1.613 . S
N414 C417 1.350 . S
N415 S413 1.610 . S
N415 C416 1.351 . S
C416 C410 1.428 . S
C416 N415 1.351 . S
C416 C417 1.434 . S
C417 C408 1.429 . S
C417 N414 1.350 . S
C417 C416 1.434 . S
C418 C419 1.369 . S
C418 C420 1.419 . S
C418 H422 0.930 . S
C419 C418 1.369 . S
C419 C428 1.429 . S
C420 C418 1.419 . S
C420 C421 1.363 . S
C420 H423 0.929 . S
C421 C420 1.363 . S
C421 C427 1.428 . S
H422 C418 0.930 . S
H423 C420 0.929 . S
S424 N425 1.613 . S
S424 N426 1.610 . S
N425 S424 1.613 . S
N425 C428 1.350 . S
N426 S424 1.610 . S
N426 C427 1.351 . S
C427 C421 1.428 . S
C427 N426 1.351 . S
C427 C428 1.434 . S
C428 C419 1.429 . S
C428 N425 1.350 . S
C428 C427 1.434 . S
C429 C430 1.369 . S
C429 C431 1.419 . S
C429 H433 0.930 . S
C430 C429 1.369 . S
C430 C439 1.429 . S
C431 C429 1.419 . S
C431 C432 1.363 . S
C431 H434 0.929 . S
C432 C431 1.363 . S
C432 C438 1.428 . S
H433 C429 0.930 . S
H434 C431 0.929 . S
S435 N436 1.613 . S
S435 N437 1.610 . S
N436 S435 1.613 . S
N436 C439 1.350 . S
N437 S435 1.610 . S
N437 C438 1.351 . S
C438 C432 1.428 . S
C438 N437 1.351 . S
C438 C439 1.434 . S
C439 C430 1.429 . S
C439 N436 1.350 . S
C439 C438 1.434 . S
C440 C441 1.369 . S
C440 C442 1.419 . S
C440 H444 0.930 . S
C441 C440 1.369 . S
C441 C450 1.429 . S
C442 C440 1.419 . S
C442 C443 1.363 . S
C442 H445 0.929 1_556 S
C443 C442 1.363 . S
C443 C449 1.428 . S
H444 C440 0.930 . S
H445 C442 0.929 1_554 S
S446 N447 1.613 . S
S446 N448 1.610 . S
N447 S446 1.613 . S
N447 C450 1.350 . S
N448 S446 1.610 . S
N448 C449 1.351 . S
C449 C443 1.428 . S
C449 N448 1.351 . S
C449 C450 1.434 . S
C450 C441 1.429 . S
C450 N447 1.350 . S
C450 C449 1.434 . S
C451 C452 1.369 . S
C451 C453 1.419 . S
C451 H455 0.930 . S
C452 C451 1.369 . S
C452 C461 1.429 1_655 S
C453 C451 1.419 . S
C453 C454 1.363 . S
C453 H456 0.929 . S
C454 C453 1.363 . S
C454 C460 1.428 1_655 S
H455 C451 0.930 . S
H456 C453 0.929 . S
S457 N458 1.613 . S
S457 N459 1.610 . S
N458 S457 1.613 . S
N458 C461 1.350 . S
N459 S457 1.610 . S
N459 C460 1.351 . S
C460 C454 1.428 1_455 S
C460 N459 1.351 . S
C460 C461 1.434 . S
C461 C452 1.429 1_455 S
C461 N458 1.350 . S
C461 C460 1.434 . S
C462 C463 1.369 . S
C462 C464 1.419 . S
C462 H466 0.930 . S
C463 C462 1.369 . S
C463 C472 1.429 . S
C464 C462 1.419 . S
C464 C465 1.363 . S
C464 H467 0.929 . S
C465 C464 1.363 . S
C465 C471 1.428 . S
H466 C462 0.930 . S
H467 C464 0.929 . S
S468 N469 1.613 . S
S468 N470 1.610 . S
N469 S468 1.613 . S
N469 C472 1.350 . S
N470 S468 1.610 . S
N470 C471 1.351 . S
C471 C465 1.428 . S
C471 N470 1.351 . S
C471 C472 1.434 . S
C472 C463 1.429 . S
C472 N469 1.350 . S
C472 C471 1.434 . S
C473 C474 1.369 . S
C473 C475 1.419 . S
C473 H477 0.930 . S
C474 C473 1.369 . S
C474 C483 1.429 . S
C475 C473 1.419 . S
C475 C476 1.363 . S
C475 H478 0.929 . S
C476 C475 1.363 . S
C476 C482 1.428 . S
H477 C473 0.930 . S
H478 C475 0.929 . S
S479 N480 1.613 . S
S479 N481 1.610 . S
N480 S479 1.613 . S
N480 C483 1.350 . S
N481 S479 1.610 . S
N481 C482 1.351 . S
C482 C476 1.428 . S
C482 N481 1.351 . S
C482 C483 1.434 . S
C483 C474 1.429 . S
C483 N480 1.350 . S
C483 C482 1.434 . S
C484 C485 1.369 . S
C484 C486 1.419 . S
C484 H488 0.930 . S
C485 C484 1.369 . S
C485 C494 1.429 . S
C486 C484 1.419 . S
C486 C487 1.363 . S
C486 H489 0.929 . S
C487 C486 1.363 . S
C487 C493 1.428 . S
H488 C484 0.930 . S
H489 C486 0.929 . S
S490 N491 1.613 . S
S490 N492 1.610 . S
N491 S490 1.613 . S
N491 C494 1.350 . S
N492 S490 1.610 . S
N492 C493 1.351 . S
C493 C487 1.428 . S
C493 N492 1.351 . S
C493 C494 1.434 . S
C494 C485 1.429 . S
C494 N491 1.350 . S
C494 C493 1.434 . S
C495 C496 1.369 . S
C495 C497 1.419 . S
C495 H499 0.930 . S
C496 C495 1.369 . S
C496 C505 1.429 . S
C497 C495 1.419 . S
C497 C498 1.363 . S
C497 H500 0.929 . S
C498 C497 1.363 . S
C498 C504 1.428 . S
H499 C495 0.930 . S
H500 C497 0.929 . S
S501 N502 1.613 . S
S501 N503 1.610 . S
N502 S501 1.613 . S
N502 C505 1.350 . S
N503 S501 1.610 . S
N503 C504 1.351 . S
C504 C498 1.428 . S
C504 N503 1.351 . S
C504 C505 1.434 . S
C505 C496 1.429 . S
C505 N502 1.350 . S
C505 C504 1.434 . S
C506 C507 1.369 . S
C506 C508 1.419 . S
C506 H510 0.930 . S
C507 C506 1.369 . S
C507 C516 1.429 . S
C508 C506 1.419 . S
C508 C509 1.363 . S
C508 H511 0.929 . S
C509 C508 1.363 . S
C509 C515 1.428 . S
H510 C506 0.930 . S
H511 C508 0.929 . S
S512 N513 1.613 1_655 S
S512 N514 1.610 1_655 S
N513 S512 1.613 1_455 S
N513 C516 1.350 . S
N514 S512 1.610 1_455 S
N514 C515 1.351 . S
C515 C509 1.428 . S
C515 N514 1.351 . S
C515 C516 1.434 . S
C516 C507 1.429 . S
C516 N513 1.350 . S
C516 C515 1.434 . S
C517 C518 1.369 . S
C517 C519 1.419 . S
C517 H521 0.930 . S
C518 C517 1.369 . S
C518 C527 1.429 . S
C519 C517 1.419 . S
C519 C520 1.363 . S
C519 H522 0.929 . S
C520 C519 1.363 . S
C520 C526 1.428 . S
H521 C517 0.930 . S
H522 C519 0.929 . S
S523 N524 1.613 . S
S523 N525 1.610 . S
N524 S523 1.613 . S
N524 C527 1.350 . S
N525 S523 1.610 . S
N525 C526 1.351 . S
C526 C520 1.428 . S
C526 N525 1.351 . S
C526 C527 1.434 . S
C527 C518 1.429 . S
C527 N524 1.350 . S
C527 C526 1.434 . S
C265 N1 0.936 . S
C267 C121 0.956 . S
C276 N18 1.041 . S
C278 C161 1.102 . S
C289 C186 2.152 . S
C287 N28 2.210 . S
C298 N40 2.726 . S
C300 C226 2.739 . S
C311 C157 1.820 . S
C309 N5 1.757 . S
C322 C117 1.464 . S
C320 N14 1.335 . S
C333 C248 1.880 . S
C331 N31 1.893 . S
C344 C208 1.643 . S
C342 N41 1.670 . S
C353 N2 1.222 . S
C355 C250 1.252 . S
C366 C167 2.401 1_556 S
C364 N27 2.441 . S
C375 N44 2.383 . S
C377 C127 2.443 1_655 S
C386 N15 1.137 . S
C388 C210 1.187 . S
C399 C130 1.424 . S
C397 N57 1.433 . S
C408 N70 0.911 . S
C410 C170 1.008 . S
C419 N79 2.367 . S
C421 C207 2.415 . S
C430 N93 2.528 . S
C432 C247 2.496 . S
C441 N54 1.504 . S
C443 C168 1.643 1_556 S
C454 C128 2.006 1_655 S
C452 N66 1.969 . S
C465 C237 1.512 . S
C463 N80 1.582 . S
C476 C197 1.812 . S
C474 N96 1.863 . S
C485 N53 1.492 . S
C487 C241 1.473 . S
C498 C146 2.042 . S
C496 N83 1.989 . S
C509 C106 2.456 . S
C507 N92 2.534 . S
C518 N67 1.422 . S
C520 C201 1.460 . S
