# Generated by pormake.
# Topology csq, (4,8)-cn, num edge types: 1
# Building blocks:
#     Node 0, Type 0, BuildingBlock: AZAVOO_clean_linker_0, # of connection points: 4
#     Node 1, Type 0, BuildingBlock: AZAVOO_clean_linker_0, # of connection points: 4
#     Node 2, Type 0, BuildingBlock: AZAVOO_clean_linker_0, # of connection points: 4
#     Node 3, Type 0, BuildingBlock: AZAVOO_clean_linker_0, # of connection points: 4
#     Node 4, Type 0, BuildingBlock: AZAVOO_clean_linker_0, # of connection points: 4
#     Node 5, Type 0, BuildingBlock: AZAVOO_clean_linker_0, # of connection points: 4
#     Node 6, Type 1, BuildingBlock: TAGTUT_clean_sbu_1, # of connection points: 8
#     Node 7, Type 1, BuildingBlock: TAGTUT_clean_sbu_1, # of connection points: 8
#     Node 8, Type 1, BuildingBlock: TAGTUT_clean_sbu_1, # of connection points: 8
#     Edge 9, Type (0, 1), BuildingBlock: CIFDUS_clean_linker_0, # of connection points: 2
#     Edge 10, Type (0, 1), BuildingBlock: CIFDUS_clean_linker_0, # of connection points: 2
#     Edge 11, Type (0, 1), BuildingBlock: CIFDUS_clean_linker_0, # of connection points: 2
#     Edge 12, Type (0, 1), BuildingBlock: CIFDUS_clean_linker_0, # of connection points: 2
#     Edge 13, Type (0, 1), BuildingBlock: CIFDUS_clean_linker_0, # of connection points: 2
#     Edge 14, Type (0, 1), BuildingBlock: CIFDUS_clean_linker_0, # of connection points: 2
#     Edge 15, Type (0, 1), BuildingBlock: CIFDUS_clean_linker_0, # of connection points: 2
#     Edge 16, Type (0, 1), BuildingBlock: CIFDUS_clean_linker_0, # of connection points: 2
#     Edge 17, Type (0, 1), BuildingBlock: CIFDUS_clean_linker_0, # of connection points: 2
#     Edge 18, Type (0, 1), BuildingBlock: CIFDUS_clean_linker_0, # of connection points: 2
#     Edge 19, Type (0, 1), BuildingBlock: CIFDUS_clean_linker_0, # of connection points: 2
#     Edge 20, Type (0, 1), BuildingBlock: CIFDUS_clean_linker_0, # of connection points: 2
#     Edge 21, Type (0, 1), BuildingBlock: CIFDUS_clean_linker_0, # of connection points: 2
#     Edge 22, Type (0, 1), BuildingBlock: CIFDUS_clean_linker_0, # of connection points: 2
#     Edge 23, Type (0, 1), BuildingBlock: CIFDUS_clean_linker_0, # of connection points: 2
#     Edge 24, Type (0, 1), BuildingBlock: CIFDUS_clean_linker_0, # of connection points: 2
#     Edge 25, Type (0, 1), BuildingBlock: CIFDUS_clean_linker_0, # of connection points: 2
#     Edge 26, Type (0, 1), BuildingBlock: CIFDUS_clean_linker_0, # of connection points: 2
#     Edge 27, Type (0, 1), BuildingBlock: CIFDUS_clean_linker_0, # of connection points: 2
#     Edge 28, Type (0, 1), BuildingBlock: CIFDUS_clean_linker_0, # of connection points: 2
#     Edge 29, Type (0, 1), BuildingBlock: CIFDUS_clean_linker_0, # of connection points: 2
#     Edge 30, Type (0, 1), BuildingBlock: CIFDUS_clean_linker_0, # of connection points: 2
#     Edge 31, Type (0, 1), BuildingBlock: CIFDUS_clean_linker_0, # of connection points: 2
#     Edge 32, Type (0, 1), BuildingBlock: CIFDUS_clean_linker_0, # of connection points: 2
# Relax obj value: 0.137
# Max RMSD: 0.238
# Mean RMSD: 0.200
data_MOF--net-csq--node1-TAGTUT_clean_sbu_1--node2-AZAVOO_clean_linker_0--edge1-CIFDUS_clean_linker_0
_symmetry_space_group_name_H-M    P1
_symmetry_Int_Tables_number       1
_symmetry_cell_setting            triclinic
loop_
_symmetry_equiv_pos_as_xyz
'x, y, z'
_cell_length_a     51.492657
_cell_length_b     50.760777
_cell_length_c     21.317432
_cell_angle_alpha  92.488389
_cell_angle_beta   91.987845
_cell_angle_gamma 119.7831
loop_
_atom_site_label
_atom_site_type_symbol
_atom_site_fract_x
_atom_site_fract_y
_atom_site_fract_z
_atom_type_partial_charge
H0 H 0.1441 0.41911 0.48386 0.0
H1 H 0.45723 0.53123 0.25208 0.0
H2 H 0.18435 0.44622 0.1563 0.0
H3 H 0.14189 0.44569 0.20629 0.0
H4 H 0.19707 0.54137 0.26158 0.0
H5 H 0.23918 0.54187 0.21079 0.0
H6 H 0.21368 0.42944 0.2657 0.0
H7 H 0.18108 0.41588 0.35376 0.0
H8 H 0.21989 0.5113 0.4124 0.0
H9 H 0.25205 0.5245 0.32383 0.0
H10 H 0.28955 0.43938 0.26324 0.0
H11 H 0.31535 0.43561 0.35738 0.0
H12 H 0.3221 0.51858 0.43918 0.0
H13 H 0.29975 0.52392 0.34167 0.0
H14 H 0.31376 0.45046 0.14396 0.0
H15 H 0.36325 0.45506 0.1588 0.0
H16 H 0.39825 0.54562 0.24712 0.0
H17 H 0.34874 0.54081 0.2313 0.0
H18 H 0.28478 0.45322 0.04015 0.0
H19 H 0.3205 0.46057 0.96085 0.0
H20 H 0.36477 0.55777 0.00386 0.0
H21 H 0.3287 0.55006 0.08332 0.0
H22 H 0.24068 0.45896 0.01288 0.0
H23 H 0.22095 0.46521 0.91324 0.0
H24 H 0.22321 0.54593 0.99594 0.0
H25 H 0.24722 0.54176 0.09183 0.0
O26 O 0.1576 0.42491 0.4502 0.0
O27 O 0.17838 0.47426 0.47843 0.0
O28 O 0.41862 0.48248 0.19793 0.0
O29 O 0.43752 0.52893 0.24463 0.0
C30 C 0.24248 0.49186 0.17611 0.0
C31 C 0.2534 0.4859 0.23238 0.0
C32 C 0.28093 0.4864 0.23497 0.0
C33 C 0.29743 0.49203 0.18081 0.0
C34 C 0.2858 0.49598 0.12305 0.0
C35 C 0.25821 0.49609 0.1205 0.0
C36 C 0.21485 0.49415 0.17915 0.0
C37 C 0.18677 0.46743 0.17596 0.0
C38 C 0.16271 0.46706 0.20552 0.0
C39 C 0.16651 0.49335 0.23908 0.0
C40 C 0.19372 0.5207 0.23688 0.0
C41 C 0.21757 0.52115 0.20661 0.0
C42 C 0.23519 0.47791 0.28847 0.0
C43 C 0.21522 0.44734 0.29793 0.0
C44 C 0.19658 0.43968 0.34812 0.0
C45 C 0.19776 0.46252 0.38994 0.0
C46 C 0.21832 0.49315 0.38097 0.0
C47 C 0.2368 0.50076 0.33057 0.0
C48 C 0.29305 0.48205 0.29537 0.0
C49 C 0.29667 0.4567 0.30162 0.0
C50 C 0.31095 0.45434 0.35619 0.0
C51 C 0.32116 0.47695 0.40627 0.0
C52 C 0.31532 0.50112 0.40129 0.0
C53 C 0.30209 0.50401 0.34584 0.0
C54 C 0.32779 0.49541 0.18601 0.0
C55 C 0.33226 0.47142 0.16562 0.0
C56 C 0.36049 0.47404 0.17458 0.0
C57 C 0.38469 0.50067 0.20445 0.0
C58 C 0.38011 0.52477 0.22418 0.0
C59 C 0.3519 0.52215 0.21499 0.0
C60 C 0.3037 0.50112 0.06675 0.0
C61 C 0.30153 0.47617 0.03091 0.0
C62 C 0.32206 0.48044 0.98562 0.0
C63 C 0.34555 0.50978 0.97577 0.0
C64 C 0.34705 0.53486 0.01035 0.0
C65 C 0.32629 0.53055 0.05534 0.0
C66 C 0.24562 0.49994 0.05996 0.0
C67 C 0.23782 0.47854 0.00873 0.0
C68 C 0.2258 0.48187 0.95181 0.0
C69 C 0.21989 0.50597 0.94545 0.0
C70 C 0.22782 0.52738 0.99736 0.0
C71 C 0.24102 0.52468 0.05333 0.0
C72 C 0.17742 0.45438 0.44227 0.0
C73 C 0.41457 0.50334 0.21537 0.0
H74 H 0.87309 0.36561 0.47977 0.0
H75 H 0.65997 0.0389 0.14026 0.0
H76 H 0.82631 0.31484 0.13639 0.0
H77 H 0.86279 0.36462 0.18553 0.0
H78 H 0.92273 0.33006 0.22847 0.0
H79 H 0.88736 0.28174 0.17379 0.0
H80 H 0.79918 0.28719 0.26077 0.0
H81 H 0.82362 0.32254 0.35361 0.0
H82 H 0.88604 0.28938 0.3745 0.0
H83 H 0.86145 0.25428 0.28145 0.0
H84 H 0.73766 0.20967 0.24024 0.0
H85 H 0.71422 0.18668 0.33533 0.0
H86 H 0.7928 0.18131 0.39351 0.0
H87 H 0.81485 0.20198 0.29497 0.0
H88 H 0.72018 0.18785 0.10825 0.0
H89 H 0.67626 0.13671 0.10039 0.0
H90 H 0.73182 0.10044 0.16593 0.0
H91 H 0.77566 0.15167 0.17257 0.0
H92 H 0.75851 0.2359 0.01518 0.0
H93 H 0.71684 0.20375 0.93849 0.0
H94 H 0.74014 0.13317 0.94569 0.0
H95 H 0.78178 0.16537 0.02328 0.0
H96 H 0.81793 0.29285 0.02451 0.0
H97 H 0.85568 0.32292 0.95133 0.0
H98 H 0.88841 0.25939 0.95328 0.0
H99 H 0.85109 0.22985 0.02769 0.0
O100 O 0.8629 0.35049 0.44494 0.0
O101 O 0.89482 0.3331 0.45274 0.0
O102 O 0.64947 0.07912 0.10865 0.0
O103 O 0.67693 0.05938 0.14323 0.0
C104 C 0.82862 0.26302 0.14745 0.0
C105 C 0.81615 0.24983 0.20366 0.0
C106 C 0.79129 0.22026 0.20135 0.0
C107 C 0.77803 0.20422 0.14258 0.0
C108 C 0.7902 0.21767 0.08598 0.0
C109 C 0.81608 0.24674 0.08874 0.0
C110 C 0.85414 0.29466 0.15211 0.0
C111 C 0.84816 0.31875 0.15288 0.0
C112 C 0.86884 0.34703 0.18249 0.0
C113 C 0.89531 0.35124 0.21376 0.0
C114 C 0.90277 0.32811 0.20533 0.0
C115 C 0.88248 0.30019 0.17387 0.0
C116 C 0.82844 0.26808 0.26478 0.0
C117 C 0.81779 0.28724 0.28621 0.0
C118 C 0.83191 0.30752 0.33899 0.0
C119 C 0.85688 0.30889 0.37133 0.0
C120 C 0.8669 0.28895 0.35068 0.0
C121 C 0.85277 0.26871 0.29785 0.0
C122 C 0.77776 0.20718 0.26051 0.0
C123 C 0.74968 0.20333 0.27342 0.0
C124 C 0.73662 0.19074 0.32861 0.0
C125 C 0.75171 0.18237 0.37288 0.0
C126 C 0.78036 0.18717 0.36043 0.0
C127 C 0.79311 0.19916 0.30437 0.0
C128 C 0.75112 0.17338 0.14041 0.0
C129 C 0.72282 0.16881 0.12067 0.0
C130 C 0.69777 0.13959 0.11637 0.0
C131 C 0.70055 0.11446 0.13235 0.0
C132 C 0.7289 0.11926 0.15311 0.0
C133 C 0.75396 0.14849 0.1571 0.0
C134 C 0.77309 0.20294 0.02505 0.0
C135 C 0.75554 0.21409 0.99814 0.0
C136 C 0.7316 0.19563 0.95483 0.0
C137 C 0.72521 0.16596 0.93695 0.0
C138 C 0.74477 0.15603 0.95864 0.0
C139 C 0.76858 0.17442 0.00266 0.0
C140 C 0.83205 0.25941 0.0317 0.0
C141 C 0.83277 0.28506 0.00792 0.0
C142 C 0.8544 0.30225 0.96661 0.0
C143 C 0.87519 0.29366 0.94777 0.0
C144 C 0.87263 0.26645 0.96724 0.0
C145 C 0.85126 0.2495 0.00931 0.0
C146 C 0.8727 0.33144 0.42557 0.0
C147 C 0.67405 0.08332 0.12731 0.0
H148 H 0.49221 0.79144 0.65594 0.0
H149 H 0.42601 0.54687 0.12186 0.0
H150 H 0.54516 0.80937 0.99156 0.0
H151 H 0.55377 0.85057 0.92597 0.0
H152 H 0.46596 0.83705 0.96308 0.0
H153 H 0.45692 0.79416 0.02498 0.0
H154 H 0.52572 0.76384 0.89884 0.0
H155 H 0.51991 0.77668 0.79206 0.0
H156 H 0.42738 0.74945 0.82028 0.0
H157 H 0.43348 0.73652 0.927 0.0
H158 H 0.53707 0.73409 0.97768 0.0
H159 H 0.55586 0.70241 0.93435 0.0
H160 H 0.46477 0.62851 0.89547 0.0
H161 H 0.44612 0.66056 0.94212 0.0
H162 H 0.52267 0.69362 0.09388 0.0
H163 H 0.51324 0.6429 0.11685 0.0
H164 H 0.41779 0.60963 0.10181 0.0
H165 H 0.42761 0.66064 0.07998 0.0
H166 H 0.54483 0.7514 0.16822 0.0
H167 H 0.55392 0.7219 0.24329 0.0
H168 H 0.46004 0.67541 0.28116 0.0
H169 H 0.45112 0.70485 0.20428 0.0
H170 H 0.55592 0.80102 0.12496 0.0
H171 H 0.58064 0.8511 0.18218 0.0
H172 H 0.49399 0.83945 0.22266 0.0
H173 H 0.46949 0.78939 0.16455 0.0
O174 O 0.49372 0.78519 0.69752 0.0
O175 O 0.44611 0.77029 0.71393 0.0
O176 O 0.47945 0.58656 0.13523 0.0
O177 O 0.43035 0.56752 0.11746 0.0
C178 C 0.49219 0.76832 0.03359 0.0
C179 C 0.48406 0.74433 0.98743 0.0
C180 C 0.48128 0.7168 0.00501 0.0
C181 C 0.48133 0.71123 0.06909 0.0
C182 C 0.49012 0.73532 0.11575 0.0
C183 C 0.49666 0.76431 0.09743 0.0
C184 C 0.50034 0.7987 0.01229 0.0
C185 C 0.52818 0.81597 0.98694 0.0
C186 C 0.53304 0.83963 0.94945 0.0
C187 C 0.51031 0.84688 0.93785 0.0
C188 C 0.48361 0.8315 0.96922 0.0
C189 C 0.47853 0.80733 0.00558 0.0
C190 C 0.47985 0.74873 0.92025 0.0
C191 C 0.50402 0.75996 0.8814 0.0
C192 C 0.50071 0.76758 0.82059 0.0
C193 C 0.47318 0.76413 0.79762 0.0
C194 C 0.44887 0.75234 0.83643 0.0
C195 C 0.45223 0.74474 0.89723 0.0
C196 C 0.49024 0.69981 0.96162 0.0
C197 C 0.5211 0.71144 0.95753 0.0
C198 C 0.53182 0.69315 0.93322 0.0
C199 C 0.51186 0.66285 0.91169 0.0
C200 C 0.48074 0.65165 0.91271 0.0
C201 C 0.46997 0.67002 0.93791 0.0
C202 C 0.47581 0.68084 0.0862 0.0
C203 C 0.49977 0.67545 0.09656 0.0
C204 C 0.49431 0.64644 0.10934 0.0
C205 C 0.46474 0.62222 0.11113 0.0
C206 C 0.44082 0.62778 0.10082 0.0
C207 C 0.44634 0.65687 0.08849 0.0
C208 C 0.49731 0.73032 0.18053 0.0
C209 C 0.52656 0.73633 0.19561 0.0
C210 C 0.53163 0.71898 0.23821 0.0
C211 C 0.50751 0.69551 0.26689 0.0
C212 C 0.47896 0.69265 0.25842 0.0
C213 C 0.47391 0.71 0.21561 0.0
C214 C 0.51099 0.79135 0.14223 0.0
C215 C 0.54235 0.80894 0.14788 0.0
C216 C 0.5564 0.83762 0.17998 0.0
C217 C 0.53925 0.84929 0.20644 0.0
C218 C 0.50777 0.83123 0.20189 0.0
C219 C 0.49375 0.80247 0.16984 0.0
C220 C 0.47005 0.77329 0.73387 0.0
C221 C 0.45876 0.59111 0.12231 0.0
H222 H 0.66969 0.44547 0.42635 0.0
H223 H 0.97015 0.54815 0.11281 0.0
H224 H 0.6964 0.4622 0.09663 0.0
H225 H 0.65775 0.46351 0.15739 0.0
H226 H 0.70968 0.56166 0.17591 0.0
H227 H 0.74852 0.56002 0.11563 0.0
H228 H 0.73242 0.45039 0.19945 0.0
H229 H 0.70333 0.43916 0.29298 0.0
H230 H 0.73533 0.53516 0.33051 0.0
H231 H 0.76375 0.54598 0.23632 0.0
H232 H 0.80715 0.46243 0.18193 0.0
H233 H 0.82624 0.45648 0.28266 0.0
H234 H 0.82509 0.53635 0.36075 0.0
H235 H 0.812 0.54496 0.25719 0.0
H236 H 0.8223 0.46896 0.04461 0.0
H237 H 0.8717 0.47334 0.0398 0.0
H238 H 0.91178 0.56117 0.14347 0.0
H239 H 0.86228 0.55668 0.14708 0.0
H240 H 0.7812 0.47064 0.9423 0.0
H241 H 0.81362 0.47134 0.86 0.0
H242 H 0.87849 0.56438 0.92135 0.0
H243 H 0.8462 0.56321 0.00394 0.0
H244 H 0.71657 0.4728 0.97343 0.0
H245 H 0.69175 0.48219 0.88451 0.0
H246 H 0.76575 0.57443 0.88644 0.0
H247 H 0.79013 0.56494 0.97654 0.0
O248 O 0.68178 0.45042 0.39029 0.0
O249 O 0.6985 0.5 0.40666 0.0
O250 O 0.92866 0.50065 0.0605 0.0
O251 O 0.95033 0.54569 0.11454 0.0
C252 C 0.75352 0.5095 0.09653 0.0
C253 C 0.76639 0.50538 0.15217 0.0
C254 C 0.79438 0.50671 0.15212 0.0
C255 C 0.80904 0.5107 0.0956 0.0
C256 C 0.79579 0.5137 0.03889 0.0
C257 C 0.76816 0.51353 0.03964 0.0
C258 C 0.72546 0.51099 0.10177 0.0
C259 C 0.69866 0.48406 0.11051 0.0
C260 C 0.6767 0.48488 0.14622 0.0
C261 C 0.68103 0.51268 0.1733 0.0
C262 C 0.70602 0.53983 0.15716 0.0
C263 C 0.72795 0.53898 0.1213 0.0
C264 C 0.74999 0.49894 0.2109 0.0
C265 C 0.73312 0.46893 0.22804 0.0
C266 C 0.71651 0.4626 0.2814 0.0
C267 C 0.71674 0.48625 0.31885 0.0
C268 C 0.73433 0.51638 0.30229 0.0
C269 C 0.75064 0.52263 0.24861 0.0
C270 C 0.80802 0.50403 0.21223 0.0
C271 C 0.812 0.47907 0.22067 0.0
C272 C 0.82209 0.47527 0.27938 0.0
C273 C 0.82707 0.4956 0.3319 0.0
C274 C 0.82253 0.52039 0.32257 0.0
C275 C 0.81438 0.52517 0.26308 0.0
C276 C 0.83876 0.51255 0.09597 0.0
C277 C 0.84178 0.48911 0.06625 0.0
C278 C 0.87002 0.49167 0.06362 0.0
C279 C 0.89572 0.51767 0.09111 0.0
C280 C 0.89248 0.54088 0.12174 0.0
C281 C 0.86424 0.53834 0.12411 0.0
C282 C 0.81133 0.51683 0.97942 0.0
C283 C 0.80197 0.49148 0.9366 0.0
C284 C 0.8206 0.49191 0.88961 0.0
C285 C 0.84897 0.51775 0.88459 0.0
C286 C 0.85711 0.54388 0.92456 0.0
C287 C 0.83852 0.5434 0.97141 0.0
C288 C 0.75492 0.51828 0.98167 0.0
C289 C 0.72757 0.49489 0.95406 0.0
C290 C 0.71364 0.50021 0.90279 0.0
C291 C 0.72685 0.52907 0.87839 0.0
C292 C 0.755 0.55203 0.90442 0.0
C293 C 0.76893 0.54665 0.95571 0.0
C294 C 0.69855 0.47944 0.37464 0.0
C295 C 0.92582 0.5207 0.0877 0.0
H296 H 0.24536 0.87254 0.48284 0.0
H297 H 0.08561 0.60354 0.97872 0.0
H298 H 0.28158 0.86734 0.15877 0.0
H299 H 0.3229 0.9069 0.22788 0.0
H300 H 0.36228 0.84933 0.24156 0.0
H301 H 0.32094 0.80995 0.1722 0.0
H302 H 0.2183 0.82519 0.21939 0.0
H303 H 0.22362 0.84788 0.3261 0.0
H304 H 0.2852 0.81705 0.3811 0.0
H305 H 0.2793 0.79407 0.27446 0.0
H306 H 0.16396 0.76395 0.15624 0.0
H307 H 0.12075 0.72394 0.20594 0.0
H308 H 0.17809 0.69339 0.28835 0.0
H309 H 0.22102 0.73338 0.23938 0.0
H310 H 0.17237 0.75458 0.01286 0.0
H311 H 0.12647 0.70959 0.96842 0.0
H312 H 0.15119 0.6521 0.06822 0.0
H313 H 0.19692 0.69731 0.1125 0.0
H314 H 0.2304 0.78643 0.93759 0.0
H315 H 0.20143 0.75006 0.84922 0.0
H316 H 0.21114 0.68066 0.94068 0.0
H317 H 0.24236 0.71792 0.02485 0.0
H318 H 0.28628 0.85023 0.019 0.0
H319 H 0.32092 0.87059 0.93513 0.0
H320 H 0.33602 0.79416 0.94004 0.0
H321 H 0.3023 0.77473 0.0254 0.0
O322 O 0.24336 0.86315 0.44114 0.0
O323 O 0.27514 0.84708 0.46685 0.0
O324 O 0.08995 0.65235 0.95179 0.0
O325 O 0.10313 0.62173 0.99717 0.0
C326 C 0.27006 0.80942 0.13402 0.0
C327 C 0.24595 0.79541 0.17384 0.0
C328 C 0.21927 0.76901 0.1516 0.0
C329 C 0.21651 0.75654 0.08992 0.0
C330 C 0.2409 0.76973 0.05106 0.0
C331 C 0.26756 0.79652 0.07233 0.0
C332 C 0.29846 0.83595 0.1602 0.0
C333 C 0.29969 0.86376 0.17497 0.0
C334 C 0.32309 0.88614 0.21484 0.0
C335 C 0.34542 0.88086 0.24086 0.0
C336 C 0.34504 0.85369 0.22295 0.0
C337 C 0.32181 0.83147 0.18253 0.0
C338 C 0.2486 0.80824 0.23919 0.0
C339 C 0.23281 0.82325 0.25469 0.0
C340 C 0.23595 0.83625 0.31561 0.0
C341 C 0.25494 0.83439 0.36209 0.0
C342 C 0.27047 0.81898 0.34641 0.0
C343 C 0.2672 0.8059 0.28554 0.0
C344 C 0.19555 0.75154 0.19455 0.0
C345 C 0.16731 0.7493 0.18696 0.0
C346 C 0.14271 0.72639 0.21478 0.0
C347 C 0.14619 0.7054 0.24971 0.0
C348 C 0.17489 0.7091 0.26076 0.0
C349 C 0.19943 0.73213 0.23366 0.0
C350 C 0.18791 0.72916 0.0658 0.0
C351 C 0.16769 0.73225 0.02535 0.0
C352 C 0.14154 0.70652 1e-05 0.0
C353 C 0.13527 0.67722 0.01444 0.0
C354 C 0.1554 0.6743 0.05589 0.0
C355 C 0.18146 0.70006 0.08149 0.0
C356 C 0.23751 0.75439 0.98828 0.0
C357 C 0.22788 0.76391 0.93628 0.0
C358 C 0.21076 0.74283 0.88653 0.0
C359 C 0.20234 0.71192 0.88974 0.0
C360 C 0.21662 0.70402 0.93664 0.0
C361 C 0.23462 0.7254 0.98511 0.0
C362 C 0.29191 0.81112 0.02862 0.0
C363 C 0.2976 0.83828 0.00282 0.0
C364 C 0.31698 0.84956 0.95408 0.0
C365 C 0.33097 0.83379 0.93002 0.0
C366 C 0.32582 0.80701 0.95746 0.0
C367 C 0.30659 0.79587 0.00637 0.0
C368 C 0.25849 0.84853 0.42655 0.0
C369 C 0.10804 0.64978 0.98589 0.0
H370 H 0.44879 0.20166 0.75581 0.0
H371 H 0.43398 0.04577 0.37393 0.0
H372 H 0.50723 0.27351 0.08592 0.0
H373 H 0.50977 0.31342 0.02141 0.0
H374 H 0.41909 0.28811 0.06279 0.0
H375 H 0.41688 0.24831 0.12787 0.0
H376 H 0.49147 0.21555 0.01958 0.0
H377 H 0.4822 0.2122 0.90531 0.0
H378 H 0.38967 0.18618 0.93022 0.0
H379 H 0.39932 0.18953 0.04451 0.0
H380 H 0.48699 0.16713 0.07749 0.0
H381 H 0.4764 0.11779 0.03137 0.0
H382 H 0.38377 0.07861 0.07688 0.0
H383 H 0.39472 0.12874 0.12279 0.0
H384 H 0.50268 0.17009 0.21369 0.0
H385 H 0.50347 0.12799 0.26391 0.0
H386 H 0.41136 0.0932 0.30932 0.0
H387 H 0.41082 0.13528 0.25833 0.0
H388 H 0.52102 0.22912 0.29081 0.0
H389 H 0.53217 0.20694 0.38015 0.0
H390 H 0.43953 0.16567 0.42607 0.0
H391 H 0.42892 0.18819 0.33785 0.0
H392 H 0.50761 0.29397 0.20961 0.0
H393 H 0.50507 0.33687 0.25703 0.0
H394 H 0.42788 0.27459 0.35491 0.0
H395 H 0.42795 0.23212 0.29895 0.0
O396 O 0.45196 0.20286 0.80106 0.0
O397 O 0.40467 0.18981 0.81638 0.0
O398 O 0.47992 0.07872 0.32073 0.0
O399 O 0.43409 0.06234 0.35296 0.0
C400 C 0.45967 0.23202 0.1451 0.0
C401 C 0.45186 0.20488 0.10908 0.0
C402 C 0.4495 0.17972 0.13885 0.0
C403 C 0.45673 0.18189 0.20363 0.0
C404 C 0.46478 0.20896 0.24024 0.0
C405 C 0.46518 0.23377 0.21138 0.0
C406 C 0.46199 0.25826 0.11208 0.0
C407 C 0.48814 0.27699 0.08199 0.0
C408 C 0.48956 0.29979 0.04531 0.0
C409 C 0.46464 0.30392 0.03709 0.0
C410 C 0.4386 0.28537 0.06809 0.0
C411 C 0.43734 0.2628 0.10552 0.0
C412 C 0.44603 0.2027 0.03997 0.0
C413 C 0.46922 0.20906 0.00013 0.0
C414 C 0.46386 0.20716 0.93496 0.0
C415 C 0.43518 0.1989 0.9086 0.0
C416 C 0.412 0.19259 0.94896 0.0
C417 C 0.41741 0.19446 0.01416 0.0
C418 C 0.4415 0.15131 0.10225 0.0
C419 C 0.46433 0.14802 0.07643 0.0
C420 C 0.45835 0.11974 0.05157 0.0
C421 C 0.42944 0.09432 0.05248 0.0
C422 C 0.40627 0.09786 0.07659 0.0
C423 C 0.41236 0.12633 0.10183 0.0
C424 C 0.45677 0.15578 0.23286 0.0
C425 C 0.48268 0.15326 0.2343 0.0
C426 C 0.48305 0.12921 0.26299 0.0
C427 C 0.45749 0.10728 0.29084 0.0
C428 C 0.43145 0.10974 0.28857 0.0
C429 C 0.43105 0.1337 0.25945 0.0
C430 C 0.47414 0.21043 0.30765 0.0
C431 C 0.50361 0.21694 0.32263 0.0
C432 C 0.50977 0.20356 0.37286 0.0
C433 C 0.48657 0.18371 0.40927 0.0
C434 C 0.45805 0.18082 0.39937 0.0
C435 C 0.45195 0.19417 0.34919 0.0
C436 C 0.46782 0.25987 0.2503 0.0
C437 C 0.48997 0.2897 0.24078 0.0
C438 C 0.48865 0.31429 0.26884 0.0
C439 C 0.46601 0.30955 0.30978 0.0
C440 C 0.44502 0.27947 0.3221 0.0
C441 C 0.44555 0.25496 0.29164 0.0
C442 C 0.42957 0.19689 0.83932 0.0
C443 C 0.45795 0.08197 0.32229 0.0
C444 C 0.00748 0.42821 0.78287 0.0
C445 C 0.09248 0.48057 0.69849 0.0
C446 C 0.06425 0.57006 0.70244 0.0
Mg447 Mg 0.02672 0.44361 0.647 0.0
O448 O 0.02031 0.47571 0.67224 0.0
Mg449 Mg 0.04387 0.50233 0.74912 0.0
Mg450 Mg 0.0245 0.50679 0.61404 0.0
O451 O 0.0286 0.53832 0.55725 0.0
Mg452 Mg 0.01938 0.5673 0.59188 0.0
Mg453 Mg 0.00088 0.51045 0.48604 0.0
C454 C 0.99134 0.44586 0.522 0.0
C455 C 0.06065 0.50437 0.49163 0.0
O456 O 0.0215 0.45687 0.80013 0.0
O457 O 0.00608 0.41815 0.72586 0.0
O458 O 0.0844 0.49663 0.73108 0.0
O459 O 0.07415 0.459 0.65924 0.0
O460 O 0.0039 0.43344 0.55284 0.0
O461 O 0.9907 0.4695 0.54405 0.0
C462 C 0.98596 0.51133 0.73088 0.0
O463 O 0.9877 0.51039 0.67096 0.0
O464 O 0.00448 0.50865 0.76755 0.0
O465 O 0.01613 0.55543 0.43548 0.0
O466 O 0.02924 0.59324 0.51078 0.0
O467 O 0.96041 0.51243 0.52189 0.0
C468 C 0.02618 0.58364 0.45292 0.0
O469 O 0.97217 0.54688 0.60209 0.0
O470 O 0.05082 0.58222 0.67396 0.0
C471 C 0.9528 0.52531 0.56444 0.0
O472 O 0.05946 0.54334 0.6854 0.0
O473 O 0.06019 0.50368 0.55215 0.0
O474 O 0.04119 0.50742 0.45848 0.0
C475 C 0.47231 0.00745 0.82256 0.0
C476 C 0.43979 0.93749 0.68762 0.0
C477 C 0.5513 0.96312 0.66833 0.0
Mg478 Mg 0.46897 0.00545 0.67568 0.0
O479 O 0.508 0.01277 0.69287 0.0
Mg480 Mg 0.51183 0.98278 0.74567 0.0
Mg481 Mg 0.52775 0.00829 0.61758 0.0
O482 O 0.54716 0.00304 0.54417 0.0
Mg483 Mg 0.58416 0.00434 0.55778 0.0
Mg484 Mg 0.54519 0.03348 0.49044 0.0
C485 C 0.5039 0.05386 0.57299 0.0
C486 C 0.47759 0.97795 0.49961 0.0
O487 O 0.4911 0.99778 0.82339 0.0
O488 O 0.46214 0.0128 0.77177 0.0
O489 O 0.46417 0.94432 0.71885 0.0
O490 O 0.43738 0.9573 0.65684 0.0
O491 O 0.48109 0.04008 0.60652 0.0
O492 O 0.5254 0.04769 0.57394 0.0
C493 C 0.5786 0.04082 0.73427 0.0
O494 O 0.57249 0.03991 0.67505 0.0
O495 O 0.55938 0.02239 0.77039 0.0
O496 O 0.56183 0.01192 0.41286 0.0
O497 O 0.58485 0.99008 0.46292 0.0
O498 O 0.59383 0.07035 0.52069 0.0
C499 C 0.57483 0.99576 0.41244 0.0
O500 O 0.61824 0.05099 0.57226 0.0
O501 O 0.57423 0.97393 0.63491 0.0
C502 C 0.61728 0.07351 0.55058 0.0
O503 O 0.53076 0.97014 0.66145 0.0
O504 O 0.48294 0.97639 0.55834 0.0
O505 O 0.49759 0.99727 0.46632 0.0
C506 C 0.55496 0.58862 0.44461 0.0
C507 C 0.59819 0.53477 0.46601 0.0
C508 C 0.49269 0.44793 0.53683 0.0
Mg509 Mg 0.58368 0.57338 0.55901 0.0
O510 O 0.54361 0.54227 0.55842 0.0
Mg511 Mg 0.5252 0.5152 0.47977 0.0
Mg512 Mg 0.53042 0.51175 0.62333 0.0
O513 O 0.51679 0.48081 0.68749 0.0
Mg514 Mg 0.47634 0.44957 0.68052 0.0
Mg515 Mg 0.53049 0.50972 0.76427 0.0
C516 C 0.56975 0.57592 0.7051 0.0
C517 C 0.5885 0.51578 0.69497 0.0
O518 O 0.53672 0.56002 0.43103 0.0
O519 O 0.57439 0.59842 0.49161 0.0
O520 O 0.57001 0.51987 0.45139 0.0
O521 O 0.60914 0.55539 0.5115 0.0
O522 O 0.58708 0.58779 0.65979 0.0
O523 O 0.54624 0.54937 0.69834 0.0
C524 C 0.47082 0.50896 0.56161 0.0
O525 O 0.48454 0.50852 0.61217 0.0
O526 O 0.48171 0.51124 0.508 0.0
O527 O 0.51482 0.46619 0.82084 0.0
O528 O 0.47972 0.42587 0.75975 0.0
O529 O 0.48361 0.50572 0.77508 0.0
C530 C 0.49629 0.43741 0.81104 0.0
O531 O 0.44904 0.46891 0.70827 0.0
O532 O 0.4756 0.43438 0.58139 0.0
C533 C 0.45662 0.4904 0.75084 0.0
O534 O 0.51465 0.47525 0.54458 0.0
O535 O 0.57649 0.51516 0.64063 0.0
O536 O 0.57546 0.51383 0.74619 0.0
H537 H 0.17298 0.512 0.36322 0.0
H538 H 0.10729 0.47069 0.20627 0.0
H539 H 0.06857 0.46893 0.27225 0.0
H540 H 0.05402 0.48109 0.37245 0.0
H541 H 0.11849 0.52048 0.53192 0.0
H542 H 0.15716 0.52052 0.46732 0.0
C543 C 0.15017 0.50263 0.34363 0.0
C544 C 0.14302 0.49184 0.27972 0.0
C545 C 0.12793 0.50122 0.38227 0.0
C546 C 0.11331 0.47924 0.25513 0.0
C547 C 0.09122 0.47825 0.29283 0.0
C548 C 0.07651 0.48958 0.39338 0.0
C549 C 0.0835 0.50119 0.45674 0.0
C550 C 0.09837 0.48944 0.35617 0.0
C551 C 0.11256 0.51149 0.48331 0.0
C552 C 0.13467 0.51168 0.44624 0.0
H553 H 0.71306 0.19131 0.44333 0.0
H554 H 0.75499 0.13594 0.42696 0.0
H555 H 0.72097 0.10144 0.49929 0.0
H556 H 0.67247 0.08051 0.54496 0.0
H557 H 0.62505 0.13062 0.54447 0.0
H558 H 0.66786 0.17355 0.50171 0.0
C559 C 0.71491 0.1718 0.45583 0.0
C560 C 0.73608 0.16589 0.42805 0.0
C561 C 0.6939 0.15079 0.49408 0.0
C562 C 0.73898 0.14122 0.44715 0.0
C563 C 0.71924 0.12117 0.48817 0.0
C564 C 0.67192 0.10125 0.53764 0.0
C565 C 0.64556 0.10231 0.54679 0.0
C566 C 0.6956 0.12479 0.50884 0.0
C567 C 0.64508 0.12925 0.53706 0.0
C568 C 0.66943 0.15366 0.51212 0.0
H569 H 0.55532 0.70335 0.34181 0.0
H570 H 0.46891 0.63397 0.25939 0.0
H571 H 0.4765 0.59464 0.30354 0.0
H572 H 0.50764 0.57979 0.36636 0.0
H573 H 0.59474 0.64939 0.44546 0.0
H574 H 0.58724 0.68847 0.40004 0.0
C575 C 0.53817 0.67964 0.33322 0.0
C576 C 0.51144 0.67185 0.29795 0.0
C577 C 0.54295 0.657 0.35749 0.0
C578 C 0.4894 0.64088 0.28782 0.0
C579 C 0.49387 0.61825 0.31235 0.0
C580 C 0.52518 0.60345 0.37288 0.0
C581 C 0.55171 0.61153 0.40943 0.0
C582 C 0.5206 0.62602 0.34723 0.0
C583 C 0.57404 0.64241 0.41776 0.0
C584 C 0.56974 0.66487 0.39203 0.0
H585 H 0.85871 0.54003 0.42787 0.0
H586 H 0.8229 0.44379 0.38054 0.0
H587 H 0.85547 0.44259 0.46397 0.0
H588 H 0.90224 0.47198 0.53117 0.0
H589 H 0.93482 0.56691 0.5816 0.0
H590 H 0.89304 0.56453 0.51946 0.0
C591 C 0.85663 0.51825 0.43634 0.0
C592 C 0.83953 0.49252 0.394 0.0
C593 C 0.87464 0.51733 0.48586 0.0
C594 C 0.83742 0.4647 0.4086 0.0
C595 C 0.85569 0.46375 0.45732 0.0
C596 C 0.89929 0.49172 0.5309 0.0
C597 C 0.92202 0.51984 0.55843 0.0
C598 C 0.87579 0.49044 0.49335 0.0
C599 C 0.91778 0.54511 0.55971 0.0
C600 C 0.89416 0.54389 0.52325 0.0
H601 H 0.36286 0.87013 0.35434 0.0
H602 H 0.37952 0.94191 0.23254 0.0
H603 H 0.41961 0.97892 0.30689 0.0
H604 H 0.45235 0.99 0.40119 0.0
H605 H 0.43713 0.91898 0.52386 0.0
H606 H 0.39343 0.88245 0.45508 0.0
C607 C 0.37536 0.8939 0.34425 0.0
C608 C 0.36865 0.9033 0.28767 0.0
C609 C 0.3984 0.91505 0.38728 0.0
C610 C 0.38439 0.9342 0.27566 0.0
C611 C 0.4073 0.95531 0.31805 0.0
C612 C 0.43931 0.96655 0.41327 0.0
C613 C 0.44817 0.95697 0.46678 0.0
C614 C 0.41481 0.94586 0.37326 0.0
C615 C 0.43074 0.92679 0.48275 0.0
C616 C 0.40597 0.90592 0.44316 0.0
H617 H 0.51254 0.36714 0.34171 0.0
H618 H 0.41625 0.31158 0.34744 0.0
H619 H 0.41539 0.35112 0.41421 0.0
H620 H 0.44296 0.39888 0.48114 0.0
H621 H 0.53813 0.45605 0.465 0.0
H622 H 0.53792 0.419 0.3884 0.0
C623 C 0.49108 0.36373 0.35535 0.0
C624 C 0.4647 0.33563 0.34113 0.0
C625 C 0.49044 0.38702 0.39156 0.0
C626 C 0.43728 0.3322 0.36015 0.0
C627 C 0.43661 0.35501 0.39771 0.0
C628 C 0.46345 0.40347 0.45959 0.0
C629 C 0.49055 0.42974 0.47943 0.0
C630 C 0.46323 0.38206 0.4155 0.0
C631 C 0.51694 0.43588 0.45055 0.0
C632 C 0.51693 0.41456 0.40722 0.0
H633 H 0.56103 0.89771 0.90515 0.0
H634 H 0.46597 0.84205 0.85552 0.0
H635 H 0.47054 0.87319 0.76898 0.0
H636 H 0.50122 0.91586 0.70599 0.0
H637 H 0.59688 0.96813 0.74681 0.0
H638 H 0.59242 0.93831 0.83747 0.0
C639 C 0.54127 0.89226 0.87542 0.0
C640 C 0.51312 0.86769 0.88802 0.0
C641 C 0.54415 0.90963 0.82386 0.0
C642 C 0.4878 0.86134 0.84888 0.0
C643 C 0.49038 0.879 0.79869 0.0
C644 C 0.52108 0.92063 0.73474 0.0
C645 C 0.54931 0.94407 0.72012 0.0
C646 C 0.51839 0.90312 0.7857 0.0
C647 C 0.57495 0.94995 0.75707 0.0
C648 C 0.57236 0.93308 0.80904 0.0
H649 H 0.69309 0.49456 0.77339 0.0
H650 H 0.7206 0.57919 0.8815 0.0
H651 H 0.68312 0.58567 0.82245 0.0
H652 H 0.63638 0.56227 0.75611 0.0
H653 H 0.60662 0.47671 0.65119 0.0
H654 H 0.65122 0.47561 0.69212 0.0
C655 C 0.69121 0.51469 0.78303 0.0
C656 C 0.70926 0.53609 0.83242 0.0
C657 C 0.66901 0.51791 0.74989 0.0
C658 C 0.70707 0.56239 0.8437 0.0
C659 C 0.68543 0.566 0.81032 0.0
C660 C 0.64036 0.544 0.74058 0.0
C661 C 0.61857 0.51957 0.70121 0.0
C662 C 0.66543 0.54322 0.76557 0.0
C663 C 0.62345 0.49582 0.6812 0.0
C664 C 0.64871 0.49506 0.70518 0.0
H665 H 0.18974 0.6548 0.84471 0.0
H666 H 0.15176 0.71398 0.85736 0.0
H667 H 0.10479 0.6739 0.80834 0.0
H668 H 0.07451 0.62282 0.76026 0.0
H669 H 0.11094 0.56256 0.74586 0.0
H670 H 0.15775 0.60168 0.8014 0.0
C671 C 0.1712 0.65895 0.83701 0.0
C672 C 0.17482 0.68782 0.85382 0.0
C673 C 0.14362 0.63535 0.81012 0.0
C674 C 0.15037 0.69258 0.84299 0.0
C675 C 0.12313 0.66942 0.81596 0.0
C676 C 0.09252 0.61801 0.76983 0.0
C677 C 0.08936 0.58997 0.74832 0.0
C678 C 0.11955 0.64082 0.79932 0.0
C679 C 0.11276 0.58397 0.76205 0.0
C680 C 0.13968 0.60649 0.793 0.0
H681 H 0.46186 0.06673 0.07253 0.0
H682 H 0.38471 0.05717 0.96542 0.0
H683 H 0.38762 0.02177 0.88873 0.0
H684 H 0.42014 0.00598 0.83911 0.0
H685 H 0.50115 0.02109 0.93952 0.0
H686 H 0.48883 0.04183 0.03215 0.0
C687 C 0.44518 0.05605 0.03332 0.0
C688 C 0.42378 0.06511 0.02296 0.0
C689 C 0.44832 0.03756 0.98742 0.0
C690 C 0.4016 0.0507 0.9736 0.0
C691 C 0.40355 0.03084 0.92935 0.0
C692 C 0.43485 0.01338 0.88168 0.0
C693 C 0.46207 0.01331 0.8821 0.0
C694 C 0.42816 0.02613 0.93348 0.0
C695 C 0.48039 0.02168 0.93796 0.0
C696 C 0.47338 0.03354 0.99075 0.0
H697 H 0.33999 0.48118 0.85989 0.0
H698 H 0.40596 0.54704 0.99852 0.0
H699 H 0.44617 0.54907 0.93809 0.0
H700 H 0.46247 0.52845 0.85141 0.0
H701 H 0.39687 0.46259 0.71235 0.0
H702 H 0.35682 0.46436 0.76709 0.0
C703 C 0.36318 0.49614 0.87663 0.0
C704 C 0.36983 0.51371 0.93417 0.0
C705 C 0.38633 0.4971 0.84164 0.0
C706 C 0.40007 0.53337 0.95446 0.0
C707 C 0.42315 0.53443 0.92 0.0
C708 C 0.43954 0.51496 0.83224 0.0
C709 C 0.43288 0.49525 0.77802 0.0
C710 C 0.41654 0.51591 0.86426 0.0
C711 C 0.40282 0.47782 0.7542 0.0
C712 C 0.37981 0.47875 0.78562 0.0
H713 H 0.91367 0.35331 0.97735 0.0
H714 H 0.89472 0.27992 0.84052 0.0
H715 H 0.93679 0.31473 0.78108 0.0
H716 H 0.97636 0.36651 0.76462 0.0
H717 H 0.99499 0.44015 0.90124 0.0
H718 H 0.95602 0.4045 0.96514 0.0
C719 C 0.91876 0.34505 0.93434 0.0
C720 C 0.90092 0.31435 0.91243 0.0
C721 C 0.94299 0.3651 0.90088 0.0
C722 C 0.90809 0.30357 0.85777 0.0
C723 C 0.9321 0.32343 0.82396 0.0
C724 C 0.97225 0.3748 0.80879 0.0
C725 C 0.98842 0.4061 0.8276 0.0
C726 C 0.94941 0.35432 0.84465 0.0
C727 C 0.98292 0.41624 0.88541 0.0
C728 C 0.96044 0.39591 0.92178 0.0
H729 H 0.9082 0.53994 0.91305 0.0
H730 H 0.8398 0.49187 0.7631 0.0
H731 H 0.87629 0.48721 0.69927 0.0
H732 H 0.92775 0.49459 0.68881 0.0
H733 H 0.99453 0.54235 0.84221 0.0
H734 H 0.95883 0.5497 0.90089 0.0
C735 C 0.90128 0.52898 0.8659 0.0
C736 C 0.87125 0.51649 0.84298 0.0
C737 C 0.92222 0.52616 0.82989 0.0
C738 C 0.8627 0.50159 0.78226 0.0
C739 C 0.88362 0.49897 0.74563 0.0
C740 C 0.93449 0.50696 0.73462 0.0
C741 C 0.96381 0.51767 0.7611 0.0
C742 C 0.91347 0.51085 0.76925 0.0
C743 C 0.97208 0.53348 0.82086 0.0
C744 C 0.95167 0.53778 0.85464 0.0
H745 H 0.3242 0.85983 0.82522 0.0
H746 H 0.38381 0.83427 0.91659 0.0
H747 H 0.41957 0.85746 0.83667 0.0
H748 H 0.43728 0.89159 0.75179 0.0
H749 H 0.38068 0.92223 0.66658 0.0
H750 H 0.34003 0.88955 0.73116 0.0
C751 C 0.34498 0.85928 0.82758 0.0
C752 C 0.35138 0.84563 0.87762 0.0
C753 C 0.36595 0.87341 0.78214 0.0
C754 C 0.37811 0.84444 0.87878 0.0
C755 C 0.3987 0.85783 0.8331 0.0
C756 C 0.41579 0.8905 0.74587 0.0
C757 C 0.41241 0.90991 0.70525 0.0
C758 C 0.39327 0.87318 0.78585 0.0
C759 C 0.38414 0.90776 0.69761 0.0
C760 C 0.361 0.88941 0.7354 0.0
H761 H 0.50854 0.36297 0.02998 0.0
H762 H 0.4223 0.29473 0.94528 0.0
H763 H 0.42426 0.33 0.86865 0.0
H764 H 0.45113 0.37963 0.8235 0.0
H765 H 0.53689 0.44855 0.90939 0.0
H766 H 0.53448 0.41368 0.98753 0.0
C767 C 0.49019 0.3559 0.99476 0.0
C768 C 0.46532 0.32626 0.99331 0.0
C769 C 0.49142 0.37638 0.95089 0.0
C770 C 0.44154 0.3175 0.94784 0.0
C771 C 0.44274 0.3376 0.90375 0.0
C772 C 0.46932 0.38707 0.8593 0.0
C773 C 0.49426 0.41665 0.86015 0.0
C774 C 0.46766 0.367 0.90449 0.0
C775 C 0.51741 0.42596 0.90751 0.0
C776 C 0.51609 0.40599 0.95219 0.0
H777 H 0.18041 0.45917 0.86072 0.0
H778 H 0.22306 0.55691 0.89572 0.0
H779 H 0.18979 0.55841 0.81415 0.0
H780 H 0.14383 0.53095 0.74406 0.0
H781 H 0.10444 0.4342 0.70331 0.0
H782 H 0.14283 0.43388 0.77314 0.0
C783 C 0.18349 0.48112 0.8497 0.0
C784 C 0.20378 0.50772 0.88708 0.0
C785 C 0.165 0.4821 0.80093 0.0
C786 C 0.20677 0.53569 0.87072 0.0
C787 C 0.18798 0.53672 0.82317 0.0
C788 C 0.14435 0.51001 0.74873 0.0
C789 C 0.1211 0.48258 0.71935 0.0
C790 C 0.16625 0.5099 0.7897 0.0
C791 C 0.12211 0.45564 0.72526 0.0
C792 C 0.14382 0.45537 0.76602 0.0
H793 H 0.71403 0.13249 0.82521 0.0
H794 H 0.67077 0.15028 0.97759 0.0
H795 H 0.62156 0.11289 0.9289 0.0
H796 H 0.59074 0.07472 0.84359 0.0
H797 H 0.63322 0.05795 0.68863 0.0
H798 H 0.68269 0.09543 0.73674 0.0
C799 C 0.69374 0.12817 0.84728 0.0
C800 C 0.69585 0.1441 0.90456 0.0
C801 C 0.66544 0.10694 0.8184 0.0
C802 C 0.66954 0.13845 0.93306 0.0
C803 C 0.64145 0.11702 0.90542 0.0
C804 C 0.61088 0.07938 0.82042 0.0
C805 C 0.60844 0.06392 0.76238 0.0
C806 C 0.63912 0.10109 0.84821 0.0
C807 C 0.63459 0.07015 0.73255 0.0
C808 C 0.66287 0.09135 0.76042 0.0
H809 H 0.56058 0.67885 0.84381 0.0
H810 H 0.49058 0.60279 0.9314 0.0
H811 H 0.50808 0.56958 0.88726 0.0
H812 H 0.53707 0.56082 0.80867 0.0
H813 H 0.60735 0.63742 0.7228 0.0
H814 H 0.59674 0.67197 0.78457 0.0
C815 C 0.54939 0.65513 0.85439 0.0
C816 C 0.52372 0.64312 0.88922 0.0
C817 C 0.5595 0.63622 0.8291 0.0
C818 C 0.5096 0.61231 0.9024 0.0
C819 C 0.51968 0.59336 0.8776 0.0
C820 C 0.55067 0.58512 0.80469 0.0
C821 C 0.57207 0.59634 0.75916 0.0
C822 C 0.54376 0.60483 0.83861 0.0
C823 C 0.5902 0.628 0.75633 0.0
C824 C 0.58391 0.64782 0.79107 0.0
H825 H 0.5187 0.15463 0.38941 0.0
H826 H 0.46319 0.1657 0.52337 0.0
H827 H 0.4635 0.1263 0.58423 0.0
H828 H 0.4775 0.08736 0.59726 0.0
H829 H 0.5349 0.07726 0.46743 0.0
H830 H 0.5362 0.11804 0.40747 0.0
C831 C 0.5072 0.14898 0.43265 0.0
C832 C 0.4907 0.1631 0.4513 0.0
C833 C 0.50757 0.12628 0.46781 0.0
C834 C 0.47565 0.15498 0.50715 0.0
C835 C 0.47584 0.13244 0.5421 0.0
C836 C 0.49025 0.09393 0.55567 0.0
C837 C 0.50569 0.07888 0.5363 0.0
C838 C 0.49124 0.11758 0.52224 0.0
C839 C 0.52265 0.08827 0.48319 0.0
C840 C 0.52341 0.11162 0.44896 0.0
H841 H 0.36848 0.52696 0.46687 0.0
H842 H 0.32051 0.42875 0.46311 0.0
H843 H 0.36201 0.43034 0.52538 0.0
H844 H 0.41586 0.45949 0.56053 0.0
H845 H 0.46286 0.55724 0.56158 0.0
H846 H 0.417 0.55608 0.52356 0.0
C847 C 0.36622 0.5058 0.48161 0.0
C848 C 0.34164 0.47772 0.45833 0.0
C849 C 0.39011 0.50686 0.51711 0.0
C850 C 0.33964 0.4507 0.47818 0.0
C851 C 0.36331 0.45157 0.51415 0.0
C852 C 0.4155 0.48046 0.55506 0.0
C853 C 0.44229 0.5084 0.56355 0.0
C854 C 0.38931 0.47947 0.53087 0.0
C855 C 0.44217 0.53558 0.55563 0.0
C856 C 0.4161 0.53486 0.53321 0.0
H857 H 0.95515 0.38007 0.25167 0.0
H858 H 0.87277 0.37904 0.29041 0.0
H859 H 0.8971 0.41258 0.38404 0.0
H860 H 0.93922 0.43574 0.46441 0.0
H861 H 0.01835 0.42944 0.43435 0.0
H862 H 0.99774 0.40475 0.32939 0.0
C863 C 0.94238 0.38706 0.28042 0.0
C864 C 0.91197 0.37653 0.26345 0.0
C865 C 0.95584 0.40467 0.337 0.0
C866 C 0.89632 0.38693 0.30078 0.0
C867 C 0.91009 0.40584 0.35536 0.0
C868 C 0.952 0.42929 0.43429 0.0
C869 C 0.98003 0.43406 0.45675 0.0
C870 C 0.93944 0.41386 0.37522 0.0
C871 C 0.9965 0.42557 0.41792 0.0
C872 C 0.98476 0.41153 0.358 0.0
H873 H 0.52369 0.89308 0.19708 0.0
H874 H 0.58848 0.87468 0.28888 0.0
H875 H 0.61014 0.92316 0.35097 0.0
H876 H 0.60577 0.9665 0.39008 0.0
H877 H 0.53842 0.98319 0.30518 0.0
H878 H 0.52343 0.94034 0.22797 0.0
C879 C 0.54262 0.89979 0.23055 0.0
C880 C 0.55412 0.88008 0.23922 0.0
C881 C 0.55461 0.92746 0.26705 0.0
C882 C 0.57918 0.88939 0.2814 0.0
C883 C 0.59153 0.91708 0.31706 0.0
C884 C 0.58825 0.96124 0.3538 0.0
C885 C 0.5728 0.97761 0.35435 0.0
C886 C 0.57879 0.93576 0.31172 0.0
C887 C 0.55062 0.9709 0.30617 0.0
C888 C 0.54173 0.9461 0.2625 0.0
H889 H 0.69796 0.54736 0.28476 0.0
H890 H 0.61987 0.47818 0.1746 0.0
H891 H 0.58801 0.47671 0.25828 0.0
H892 H 0.58205 0.49612 0.36081 0.0
H893 H 0.65993 0.56571 0.47123 0.0
H894 H 0.69218 0.56528 0.39002 0.0
C895 C 0.67395 0.53208 0.27881 0.0
C896 C 0.66139 0.51303 0.22299 0.0
C897 C 0.65575 0.53112 0.32755 0.0
C898 C 0.63023 0.49305 0.21685 0.0
C899 C 0.61198 0.49218 0.26479 0.0
C900 C 0.60611 0.51102 0.36776 0.0
C901 C 0.6184 0.53106 0.42237 0.0
C902 C 0.62448 0.51115 0.32026 0.0
C903 C 0.64972 0.55002 0.43003 0.0
C904 C 0.66819 0.54998 0.38325 0.0
H905 H 0.10373 0.70429 0.32324 0.0
H906 H 0.13031 0.64642 0.22476 0.0
H907 H 0.09075 0.60181 0.27051 0.0
H908 H 0.05351 0.58064 0.34926 0.0
H909 H 0.02985 0.63911 0.4552 0.0
H910 H 0.06263 0.68192 0.3948 0.0
C911 C 0.10039 0.68179 0.31115 0.0
C912 C 0.11996 0.67849 0.27166 0.0
C913 C 0.07814 0.6564 0.339 0.0
C914 C 0.11566 0.64936 0.25606 0.0
C915 C 0.09305 0.62391 0.28199 0.0
C916 C 0.05482 0.60251 0.35775 0.0
C917 C 0.03941 0.6068 0.40659 0.0
C918 C 0.07478 0.6273 0.32504 0.0
C919 C 0.04164 0.63537 0.41784 0.0
C920 C 0.06052 0.65988 0.38366 0.0
loop_
_geom_bond_atom_site_label_1
_geom_bond_atom_site_label_2
_geom_bond_distance
_geom_bond_site_symmetry_2
_ccdc_geom_bond_type
H0 O26 0.856 . S
H1 O29 0.854 . S
H2 C37 0.930 . S
H3 C38 0.930 . S
H4 C40 0.930 . S
H5 C41 0.930 . S
H6 C43 0.931 . S
H7 C44 0.930 . S
H8 C46 0.930 . S
H9 C47 0.929 . S
H10 C49 0.930 . S
H11 C50 0.931 . S
H12 C52 0.930 . S
H13 C53 0.929 . S
H14 C55 0.931 . S
H15 C56 0.930 . S
H16 C58 0.930 . S
H17 C59 0.932 . S
H18 C61 0.930 . S
H19 C62 0.929 . S
H20 C64 0.931 . S
H21 C65 0.930 . S
H22 C67 0.929 . S
H23 C68 0.931 . S
H24 C70 0.930 . S
H25 C71 0.929 . S
O26 H0 0.856 . S
O26 C72 1.300 . S
O27 C72 1.209 . S
O28 C73 1.199 . S
O29 H1 0.854 . S
O29 C73 1.297 . S
C30 C31 1.404 . S
C30 C35 1.397 . S
C30 C36 1.492 . S
C31 C30 1.404 . S
C31 C32 1.396 . S
C31 C42 1.492 . S
C32 C31 1.396 . S
C32 C33 1.397 . S
C32 C48 1.509 . S
C33 C32 1.397 . S
C33 C34 1.412 . S
C33 C54 1.485 . S
C34 C33 1.412 . S
C34 C35 1.388 . S
C34 C60 1.490 . S
C35 C30 1.397 . S
C35 C34 1.388 . S
C35 C66 1.519 . S
C36 C30 1.492 . S
C36 C37 1.363 . S
C36 C41 1.390 . S
C37 H2 0.930 . S
C37 C36 1.363 . S
C37 C38 1.372 . S
C38 H3 0.930 . S
C38 C37 1.372 . S
C38 C39 1.383 . S
C39 C38 1.383 . S
C39 C40 1.395 . S
C40 H4 0.930 . S
C40 C39 1.395 . S
C40 C41 1.362 . S
C41 H5 0.930 . S
C41 C36 1.390 . S
C41 C40 1.362 . S
C42 C31 1.492 . S
C42 C43 1.377 . S
C42 C47 1.397 . S
C43 H6 0.931 . S
C43 C42 1.377 . S
C43 C44 1.376 . S
C44 H7 0.930 . S
C44 C43 1.376 . S
C44 C45 1.376 . S
C45 C44 1.376 . S
C45 C46 1.378 . S
C45 C72 1.486 . S
C46 H8 0.930 . S
C46 C45 1.378 . S
C46 C47 1.376 . S
C47 H9 0.929 . S
C47 C42 1.397 . S
C47 C46 1.376 . S
C48 C32 1.509 . S
C48 C49 1.391 . S
C48 C53 1.386 . S
C49 H10 0.930 . S
C49 C48 1.391 . S
C49 C50 1.375 . S
C50 H11 0.931 . S
C50 C49 1.375 . S
C50 C51 1.375 . S
C51 C50 1.375 . S
C51 C52 1.361 . S
C52 H12 0.930 . S
C52 C51 1.361 . S
C52 C53 1.399 . S
C53 H13 0.929 . S
C53 C48 1.386 . S
C53 C52 1.399 . S
C54 C33 1.485 . S
C54 C55 1.394 . S
C54 C59 1.360 . S
C55 H14 0.931 . S
C55 C54 1.394 . S
C55 C56 1.372 . S
C56 H15 0.930 . S
C56 C55 1.372 . S
C56 C57 1.397 . S
C57 C56 1.397 . S
C57 C58 1.390 . S
C57 C73 1.476 . S
C58 H16 0.930 . S
C58 C57 1.390 . S
C58 C59 1.366 . S
C59 H17 0.932 . S
C59 C54 1.360 . S
C59 C58 1.366 . S
C60 C34 1.490 . S
C60 C61 1.380 . S
C60 C65 1.386 . S
C61 H18 0.930 . S
C61 C60 1.380 . S
C61 C62 1.381 1_554 S
C62 H19 0.929 . S
C62 C61 1.381 1_556 S
C62 C63 1.371 . S
C63 C62 1.371 . S
C63 C64 1.380 . S
C64 H20 0.931 . S
C64 C63 1.380 . S
C64 C65 1.387 1_556 S
C65 H21 0.930 . S
C65 C60 1.386 . S
C65 C64 1.387 1_554 S
C66 C35 1.519 . S
C66 C67 1.377 . S
C66 C71 1.361 . S
C67 H22 0.929 . S
C67 C66 1.377 . S
C67 C68 1.386 . S
C68 H23 0.931 . S
C68 C67 1.386 . S
C68 C69 1.363 . S
C69 C68 1.363 . S
C69 C70 1.385 . S
C70 H24 0.930 . S
C70 C69 1.385 . S
C70 C71 1.396 . S
C71 H25 0.929 . S
C71 C66 1.361 . S
C71 C70 1.396 . S
C72 O26 1.300 . S
C72 O27 1.209 . S
C72 C45 1.486 . S
C73 O28 1.199 . S
C73 O29 1.297 . S
C73 C57 1.476 . S
H74 O100 0.856 . S
H75 O103 0.854 . S
H76 C111 0.930 . S
H77 C112 0.930 . S
H78 C114 0.930 . S
H79 C115 0.930 . S
H80 C117 0.931 . S
H81 C118 0.930 . S
H82 C120 0.930 . S
H83 C121 0.929 . S
H84 C123 0.930 . S
H85 C124 0.931 . S
H86 C126 0.930 . S
H87 C127 0.929 . S
H88 C129 0.931 . S
H89 C130 0.930 . S
H90 C132 0.930 . S
H91 C133 0.932 . S
H92 C135 0.930 . S
H93 C136 0.929 . S
H94 C138 0.931 . S
H95 C139 0.930 . S
H96 C141 0.929 . S
H97 C142 0.931 . S
H98 C144 0.930 1_556 S
H99 C145 0.929 . S
O100 H74 0.856 . S
O100 C146 1.300 . S
O101 C146 1.209 . S
O102 C147 1.199 . S
O103 H75 0.854 . S
O103 C147 1.297 . S
C104 C105 1.404 . S
C104 C109 1.397 . S
C104 C110 1.492 . S
C105 C104 1.404 . S
C105 C106 1.396 . S
C105 C116 1.492 . S
C106 C105 1.396 . S
C106 C107 1.397 . S
C106 C122 1.509 . S
C107 C106 1.397 . S
C107 C108 1.412 . S
C107 C128 1.485 . S
C108 C107 1.412 . S
C108 C109 1.388 . S
C108 C134 1.490 . S
C109 C104 1.397 . S
C109 C108 1.388 . S
C109 C140 1.519 . S
C110 C104 1.492 . S
C110 C111 1.363 . S
C110 C115 1.390 . S
C111 H76 0.930 . S
C111 C110 1.363 . S
C111 C112 1.372 . S
C112 H77 0.930 . S
C112 C111 1.372 . S
C112 C113 1.383 . S
C113 C112 1.383 . S
C113 C114 1.395 . S
C114 H78 0.930 . S
C114 C113 1.395 . S
C114 C115 1.362 . S
C115 H79 0.930 . S
C115 C110 1.390 . S
C115 C114 1.362 . S
C116 C105 1.492 . S
C116 C117 1.377 . S
C116 C121 1.397 . S
C117 H80 0.931 . S
C117 C116 1.377 . S
C117 C118 1.376 . S
C118 H81 0.930 . S
C118 C117 1.376 . S
C118 C119 1.376 . S
C119 C118 1.376 . S
C119 C120 1.378 . S
C119 C146 1.486 . S
C120 H82 0.930 . S
C120 C119 1.378 . S
C120 C121 1.376 . S
C121 H83 0.929 . S
C121 C116 1.397 . S
C121 C120 1.376 . S
C122 C106 1.509 . S
C122 C123 1.391 . S
C122 C127 1.386 . S
C123 H84 0.930 . S
C123 C122 1.391 . S
C123 C124 1.375 . S
C124 H85 0.931 . S
C124 C123 1.375 . S
C124 C125 1.375 . S
C125 C124 1.375 . S
C125 C126 1.361 . S
C126 H86 0.930 . S
C126 C125 1.361 . S
C126 C127 1.399 . S
C127 H87 0.929 . S
C127 C122 1.386 . S
C127 C126 1.399 . S
C128 C107 1.485 . S
C128 C129 1.394 . S
C128 C133 1.360 . S
C129 H88 0.931 . S
C129 C128 1.394 . S
C129 C130 1.372 . S
C130 H89 0.930 . S
C130 C129 1.372 . S
C130 C131 1.397 . S
C131 C130 1.397 . S
C131 C132 1.390 . S
C131 C147 1.476 . S
C132 H90 0.930 . S
C132 C131 1.390 . S
C132 C133 1.366 . S
C133 H91 0.932 . S
C133 C128 1.360 . S
C133 C132 1.366 . S
C134 C108 1.490 . S
C134 C135 1.380 . S
C134 C139 1.386 . S
C135 H92 0.930 . S
C135 C134 1.380 . S
C135 C136 1.381 1_554 S
C136 H93 0.929 . S
C136 C135 1.381 1_556 S
C136 C137 1.371 . S
C137 C136 1.371 . S
C137 C138 1.380 . S
C138 H94 0.931 . S
C138 C137 1.380 . S
C138 C139 1.387 1_556 S
C139 H95 0.930 . S
C139 C134 1.386 . S
C139 C138 1.387 1_554 S
C140 C109 1.519 . S
C140 C141 1.377 . S
C140 C145 1.361 . S
C141 H96 0.929 . S
C141 C140 1.377 . S
C141 C142 1.386 . S
C142 H97 0.931 . S
C142 C141 1.386 . S
C142 C143 1.355 1_554 S
C143 C142 1.355 1_556 S
C143 C144 1.382 1_556 S
C144 H98 0.930 1_554 S
C144 C143 1.382 1_554 S
C144 C145 1.396 . S
C145 H99 0.929 . S
C145 C140 1.361 . S
C145 C144 1.396 . S
C146 O100 1.300 . S
C146 O101 1.209 . S
C146 C119 1.486 . S
C147 O102 1.199 . S
C147 O103 1.297 . S
C147 C131 1.476 . S
H148 O174 0.856 . S
H149 O177 0.854 . S
H150 C185 0.930 . S
H151 C186 0.930 . S
H152 C188 0.930 . S
H153 C189 0.930 . S
H154 C191 0.931 . S
H155 C192 0.930 . S
H156 C194 0.930 . S
H157 C195 0.929 . S
H158 C197 0.930 . S
H159 C198 0.931 . S
H160 C200 0.930 . S
H161 C201 0.929 . S
H162 C203 0.931 . S
H163 C204 0.930 . S
H164 C206 0.930 1_556 S
H165 C207 0.932 . S
H166 C209 0.930 . S
H167 C210 0.929 . S
H168 C212 0.931 . S
H169 C213 0.930 . S
H170 C215 0.929 . S
H171 C216 0.931 . S
H172 C218 0.930 . S
H173 C219 0.929 . S
O174 H148 0.856 . S
O174 C220 1.300 . S
O175 C220 1.209 . S
O176 C221 1.199 . S
O177 H149 0.854 . S
O177 C221 1.297 . S
C178 C179 1.404 . S
C178 C183 1.397 1_556 S
C178 C184 1.492 . S
C179 C178 1.404 . S
C179 C180 1.396 . S
C179 C190 1.492 . S
C180 C179 1.396 . S
C180 C181 1.397 . S
C180 C196 1.509 . S
C181 C180 1.397 . S
C181 C182 1.412 1_556 S
C181 C202 1.485 1_556 S
C182 C181 1.412 1_554 S
C182 C183 1.388 . S
C182 C208 1.490 . S
C183 C178 1.397 1_554 S
C183 C182 1.388 . S
C183 C214 1.519 . S
C184 C178 1.492 . S
C184 C185 1.363 . S
C184 C189 1.390 . S
C185 H150 0.930 . S
C185 C184 1.363 . S
C185 C186 1.372 . S
C186 H151 0.930 . S
C186 C185 1.372 . S
C186 C187 1.383 . S
C187 C186 1.383 . S
C187 C188 1.395 . S
C188 H152 0.930 . S
C188 C187 1.395 . S
C188 C189 1.362 . S
C189 H153 0.930 . S
C189 C184 1.390 . S
C189 C188 1.362 . S
C190 C179 1.492 . S
C190 C191 1.377 . S
C190 C195 1.397 . S
C191 H154 0.931 . S
C191 C190 1.377 . S
C191 C192 1.376 . S
C192 H155 0.930 . S
C192 C191 1.376 . S
C192 C193 1.376 . S
C193 C192 1.376 . S
C193 C194 1.378 . S
C193 C220 1.486 . S
C194 H156 0.930 . S
C194 C193 1.378 . S
C194 C195 1.376 . S
C195 H157 0.929 . S
C195 C190 1.397 . S
C195 C194 1.376 . S
C196 C180 1.509 . S
C196 C197 1.391 . S
C196 C201 1.386 . S
C197 H158 0.930 . S
C197 C196 1.391 . S
C197 C198 1.375 . S
C198 H159 0.931 . S
C198 C197 1.375 . S
C198 C199 1.375 . S
C199 C198 1.375 . S
C199 C200 1.361 . S
C200 H160 0.930 . S
C200 C199 1.361 . S
C200 C201 1.399 . S
C201 H161 0.929 . S
C201 C196 1.386 . S
C201 C200 1.399 . S
C202 C181 1.485 1_554 S
C202 C203 1.394 . S
C202 C207 1.360 1_554 S
C203 H162 0.931 . S
C203 C202 1.394 . S
C203 C204 1.372 . S
C204 H163 0.930 . S
C204 C203 1.372 . S
C204 C205 1.397 . S
C205 C204 1.397 . S
C205 C206 1.390 . S
C205 C221 1.476 . S
C206 H164 0.930 1_554 S
C206 C205 1.390 . S
C206 C207 1.366 1_554 S
C207 H165 0.932 . S
C207 C202 1.360 1_556 S
C207 C206 1.366 1_556 S
C208 C182 1.490 . S
C208 C209 1.380 . S
C208 C213 1.386 . S
C209 H166 0.930 . S
C209 C208 1.380 . S
C209 C210 1.381 . S
C210 H167 0.929 . S
C210 C209 1.381 . S
C210 C211 1.371 . S
C211 C210 1.371 . S
C211 C212 1.380 . S
C212 H168 0.931 . S
C212 C211 1.380 . S
C212 C213 1.387 . S
C213 H169 0.930 . S
C213 C208 1.386 . S
C213 C212 1.387 . S
C214 C183 1.519 . S
C214 C215 1.377 . S
C214 C219 1.361 . S
C215 H170 0.929 . S
C215 C214 1.377 . S
C215 C216 1.386 . S
C216 H171 0.931 . S
C216 C215 1.386 . S
C216 C217 1.363 . S
C217 C216 1.363 . S
C217 C218 1.385 . S
C218 H172 0.930 . S
C218 C217 1.385 . S
C218 C219 1.396 . S
C219 H173 0.929 . S
C219 C214 1.361 . S
C219 C218 1.396 . S
C220 O174 1.300 . S
C220 O175 1.209 . S
C220 C193 1.486 . S
C221 O176 1.199 . S
C221 O177 1.297 . S
C221 C205 1.476 . S
H222 O248 0.856 . S
H223 O251 0.854 . S
H224 C259 0.930 . S
H225 C260 0.930 . S
H226 C262 0.930 . S
H227 C263 0.930 . S
H228 C265 0.931 . S
H229 C266 0.930 . S
H230 C268 0.930 . S
H231 C269 0.929 . S
H232 C271 0.930 . S
H233 C272 0.931 . S
H234 C274 0.930 . S
H235 C275 0.929 . S
H236 C277 0.931 . S
H237 C278 0.930 . S
H238 C280 0.930 . S
H239 C281 0.932 . S
H240 C283 0.930 . S
H241 C284 0.929 . S
H242 C286 0.931 . S
H243 C287 0.930 . S
H244 C289 0.929 1_554 S
H245 C290 0.931 . S
H246 C292 0.930 . S
H247 C293 0.929 . S
O248 H222 0.856 . S
O248 C294 1.300 . S
O249 C294 1.209 . S
O250 C295 1.199 1_556 S
O251 H223 0.854 . S
O251 C295 1.297 . S
C252 C253 1.404 . S
C252 C257 1.397 . S
C252 C258 1.492 . S
C253 C252 1.404 . S
C253 C254 1.396 . S
C253 C264 1.492 . S
C254 C253 1.396 . S
C254 C255 1.397 . S
C254 C270 1.509 . S
C255 C254 1.397 . S
C255 C256 1.412 . S
C255 C276 1.485 . S
C256 C255 1.412 . S
C256 C257 1.388 . S
C256 C282 1.490 1_554 S
C257 C252 1.397 . S
C257 C256 1.388 . S
C257 C288 1.519 . S
C258 C252 1.492 . S
C258 C259 1.363 . S
C258 C263 1.390 . S
C259 H224 0.930 . S
C259 C258 1.363 . S
C259 C260 1.372 . S
C260 H225 0.930 . S
C260 C259 1.372 . S
C260 C261 1.383 . S
C261 C260 1.383 . S
C261 C262 1.395 . S
C262 H226 0.930 . S
C262 C261 1.395 . S
C262 C263 1.362 . S
C263 H227 0.930 . S
C263 C258 1.390 . S
C263 C262 1.362 . S
C264 C253 1.492 . S
C264 C265 1.377 . S
C264 C269 1.397 . S
C265 H228 0.931 . S
C265 C264 1.377 . S
C265 C266 1.376 . S
C266 H229 0.930 . S
C266 C265 1.376 . S
C266 C267 1.376 . S
C267 C266 1.376 . S
C267 C268 1.378 . S
C267 C294 1.486 . S
C268 H230 0.930 . S
C268 C267 1.378 . S
C268 C269 1.376 . S
C269 H231 0.929 . S
C269 C264 1.397 . S
C269 C268 1.376 . S
C270 C254 1.509 . S
C270 C271 1.391 . S
C270 C275 1.386 . S
C271 H232 0.930 . S
C271 C270 1.391 . S
C271 C272 1.375 . S
C272 H233 0.931 . S
C272 C271 1.375 . S
C272 C273 1.375 . S
C273 C272 1.375 . S
C273 C274 1.361 . S
C274 H234 0.930 . S
C274 C273 1.361 . S
C274 C275 1.399 . S
C275 H235 0.929 . S
C275 C270 1.386 . S
C275 C274 1.399 . S
C276 C255 1.485 . S
C276 C277 1.394 . S
C276 C281 1.360 . S
C277 H236 0.931 . S
C277 C276 1.394 . S
C277 C278 1.372 . S
C278 H237 0.930 . S
C278 C277 1.372 . S
C278 C279 1.397 . S
C279 C278 1.397 . S
C279 C280 1.390 . S
C279 C295 1.476 . S
C280 H238 0.930 . S
C280 C279 1.390 . S
C280 C281 1.366 . S
C281 H239 0.932 . S
C281 C276 1.360 . S
C281 C280 1.366 . S
C282 C256 1.490 1_556 S
C282 C283 1.380 . S
C282 C287 1.386 . S
C283 H240 0.930 . S
C283 C282 1.380 . S
C283 C284 1.381 . S
C284 H241 0.929 . S
C284 C283 1.381 . S
C284 C285 1.371 . S
C285 C284 1.371 . S
C285 C286 1.380 . S
C286 H242 0.931 . S
C286 C285 1.380 . S
C286 C287 1.387 . S
C287 H243 0.930 . S
C287 C282 1.386 . S
C287 C286 1.387 . S
C288 C257 1.519 . S
C288 C289 1.377 1_554 S
C288 C293 1.361 1_554 S
C289 H244 0.929 1_556 S
C289 C288 1.377 1_556 S
C289 C290 1.386 . S
C290 H245 0.931 . S
C290 C289 1.386 . S
C290 C291 1.363 . S
C291 C290 1.363 . S
C291 C292 1.385 . S
C292 H246 0.930 . S
C292 C291 1.385 . S
C292 C293 1.396 . S
C293 H247 0.929 . S
C293 C288 1.361 1_556 S
C293 C292 1.396 . S
C294 O248 1.300 . S
C294 O249 1.209 . S
C294 C267 1.486 . S
C295 O250 1.199 1_554 S
C295 O251 1.297 . S
C295 C279 1.476 . S
H296 O322 0.856 . S
H297 O325 0.854 . S
H298 C333 0.930 . S
H299 C334 0.930 . S
H300 C336 0.930 . S
H301 C337 0.930 . S
H302 C339 0.931 . S
H303 C340 0.930 . S
H304 C342 0.930 . S
H305 C343 0.929 . S
H306 C345 0.930 . S
H307 C346 0.931 . S
H308 C348 0.930 . S
H309 C349 0.929 . S
H310 C351 0.931 . S
H311 C352 0.930 . S
H312 C354 0.930 . S
H313 C355 0.932 . S
H314 C357 0.930 . S
H315 C358 0.929 . S
H316 C360 0.931 . S
H317 C361 0.930 . S
H318 C363 0.929 . S
H319 C364 0.931 . S
H320 C366 0.930 . S
H321 C367 0.929 . S
O322 H296 0.856 . S
O322 C368 1.300 . S
O323 C368 1.209 . S
O324 C369 1.195 1_556 S
O325 H297 0.854 . S
O325 C369 1.297 . S
C326 C327 1.404 . S
C326 C331 1.397 . S
C326 C332 1.492 . S
C327 C326 1.404 . S
C327 C328 1.396 . S
C327 C338 1.492 . S
C328 C327 1.396 . S
C328 C329 1.397 . S
C328 C344 1.509 . S
C329 C328 1.397 . S
C329 C330 1.412 . S
C329 C350 1.485 . S
C330 C329 1.412 . S
C330 C331 1.388 . S
C330 C356 1.483 1_554 S
C331 C326 1.397 . S
C331 C330 1.388 . S
C331 C362 1.519 . S
C332 C326 1.492 . S
C332 C333 1.363 . S
C332 C337 1.390 . S
C333 H298 0.930 . S
C333 C332 1.363 . S
C333 C334 1.372 . S
C334 H299 0.930 . S
C334 C333 1.372 . S
C334 C335 1.383 . S
C335 C334 1.383 . S
C335 C336 1.395 . S
C336 H300 0.930 . S
C336 C335 1.395 . S
C336 C337 1.362 . S
C337 H301 0.930 . S
C337 C332 1.390 . S
C337 C336 1.362 . S
C338 C327 1.492 . S
C338 C339 1.377 . S
C338 C343 1.397 . S
C339 H302 0.931 . S
C339 C338 1.377 . S
C339 C340 1.376 . S
C340 H303 0.930 . S
C340 C339 1.376 . S
C340 C341 1.376 . S
C341 C340 1.376 . S
C341 C342 1.378 . S
C341 C368 1.486 . S
C342 H304 0.930 . S
C342 C341 1.378 . S
C342 C343 1.376 . S
C343 H305 0.929 . S
C343 C338 1.397 . S
C343 C342 1.376 . S
C344 C328 1.509 . S
C344 C345 1.391 . S
C344 C349 1.386 . S
C345 H306 0.930 . S
C345 C344 1.391 . S
C345 C346 1.375 . S
C346 H307 0.931 . S
C346 C345 1.375 . S
C346 C347 1.375 . S
C347 C346 1.375 . S
C347 C348 1.361 . S
C348 H308 0.930 . S
C348 C347 1.361 . S
C348 C349 1.399 . S
C349 H309 0.929 . S
C349 C344 1.386 . S
C349 C348 1.399 . S
C350 C329 1.485 . S
C350 C351 1.394 . S
C350 C355 1.360 . S
C351 H310 0.931 . S
C351 C350 1.394 . S
C351 C352 1.372 . S
C352 H311 0.930 . S
C352 C351 1.372 . S
C352 C353 1.397 . S
C353 C352 1.397 . S
C353 C354 1.390 . S
C353 C369 1.476 . S
C354 H312 0.930 . S
C354 C353 1.390 . S
C354 C355 1.366 . S
C355 H313 0.932 . S
C355 C350 1.360 . S
C355 C354 1.366 . S
C356 C330 1.483 1_556 S
C356 C357 1.385 . S
C356 C361 1.390 . S
C357 H314 0.930 . S
C357 C356 1.385 . S
C357 C358 1.381 . S
C358 H315 0.929 . S
C358 C357 1.381 . S
C358 C359 1.371 . S
C359 C358 1.371 . S
C359 C360 1.380 . S
C360 H316 0.931 . S
C360 C359 1.380 . S
C360 C361 1.387 . S
C361 H317 0.930 . S
C361 C356 1.390 . S
C361 C360 1.387 . S
C362 C331 1.519 . S
C362 C363 1.377 . S
C362 C367 1.361 . S
C363 H318 0.929 . S
C363 C362 1.377 . S
C363 C364 1.386 1_554 S
C364 H319 0.931 . S
C364 C363 1.386 1_556 S
C364 C365 1.363 . S
C365 C364 1.363 . S
C365 C366 1.385 . S
C366 H320 0.930 . S
C366 C365 1.385 . S
C366 C367 1.396 1_556 S
C367 H321 0.929 . S
C367 C362 1.361 . S
C367 C366 1.396 1_554 S
C368 O322 1.300 . S
C368 O323 1.209 . S
C368 C341 1.486 . S
C369 O324 1.195 1_554 S
C369 O325 1.297 . S
C369 C353 1.476 . S
H370 O396 0.856 . S
H371 O399 0.854 . S
H372 C407 0.930 . S
H373 C408 0.930 . S
H374 C410 0.930 . S
H375 C411 0.930 . S
H376 C413 0.931 . S
H377 C414 0.930 . S
H378 C416 0.930 . S
H379 C417 0.929 . S
H380 C419 0.930 . S
H381 C420 0.931 . S
H382 C422 0.930 . S
H383 C423 0.929 . S
H384 C425 0.931 . S
H385 C426 0.930 . S
H386 C428 0.930 . S
H387 C429 0.932 . S
H388 C431 0.930 . S
H389 C432 0.929 . S
H390 C434 0.931 . S
H391 C435 0.930 . S
H392 C437 0.929 . S
H393 C438 0.931 . S
H394 C440 0.930 . S
H395 C441 0.929 . S
O396 H370 0.856 . S
O396 C442 1.300 . S
O397 C442 1.209 . S
O398 C443 1.199 . S
O399 H371 0.854 . S
O399 C443 1.297 . S
C400 C401 1.404 . S
C400 C405 1.397 . S
C400 C406 1.492 . S
C401 C400 1.404 . S
C401 C402 1.396 . S
C401 C412 1.492 . S
C402 C401 1.396 . S
C402 C403 1.397 . S
C402 C418 1.509 . S
C403 C402 1.397 . S
C403 C404 1.412 . S
C403 C424 1.485 . S
C404 C403 1.412 . S
C404 C405 1.388 . S
C404 C430 1.490 . S
C405 C400 1.397 . S
C405 C404 1.388 . S
C405 C436 1.519 . S
C406 C400 1.492 . S
C406 C407 1.363 . S
C406 C411 1.390 . S
C407 H372 0.930 . S
C407 C406 1.363 . S
C407 C408 1.372 . S
C408 H373 0.930 . S
C408 C407 1.372 . S
C408 C409 1.383 . S
C409 C408 1.383 . S
C409 C410 1.395 . S
C410 H374 0.930 . S
C410 C409 1.395 . S
C410 C411 1.362 . S
C411 H375 0.930 . S
C411 C406 1.390 . S
C411 C410 1.362 . S
C412 C401 1.492 . S
C412 C413 1.377 . S
C412 C417 1.397 . S
C413 H376 0.931 . S
C413 C412 1.377 . S
C413 C414 1.376 1_554 S
C414 H377 0.930 . S
C414 C413 1.376 1_556 S
C414 C415 1.376 . S
C415 C414 1.376 . S
C415 C416 1.378 . S
C415 C442 1.486 . S
C416 H378 0.930 . S
C416 C415 1.378 . S
C416 C417 1.376 1_556 S
C417 H379 0.929 . S
C417 C412 1.397 . S
C417 C416 1.376 1_554 S
C418 C402 1.509 . S
C418 C419 1.391 . S
C418 C423 1.386 . S
C419 H380 0.930 . S
C419 C418 1.391 . S
C419 C420 1.375 . S
C420 H381 0.931 . S
C420 C419 1.375 . S
C420 C421 1.375 1_554 S
C421 C420 1.375 1_556 S
C421 C422 1.361 . S
C422 H382 0.930 . S
C422 C421 1.361 . S
C422 C423 1.399 1_556 S
C423 H383 0.929 . S
C423 C418 1.386 . S
C423 C422 1.399 1_554 S
C424 C403 1.485 . S
C424 C425 1.394 . S
C424 C429 1.360 . S
C425 H384 0.931 . S
C425 C424 1.394 . S
C425 C426 1.372 . S
C426 H385 0.930 . S
C426 C425 1.372 . S
C426 C427 1.397 . S
C427 C426 1.397 . S
C427 C428 1.390 . S
C427 C443 1.476 . S
C428 H386 0.930 . S
C428 C427 1.390 . S
C428 C429 1.366 . S
C429 H387 0.932 . S
C429 C424 1.360 . S
C429 C428 1.366 . S
C430 C404 1.490 . S
C430 C431 1.380 . S
C430 C435 1.386 . S
C431 H388 0.930 . S
C431 C430 1.380 . S
C431 C432 1.381 . S
C432 H389 0.929 . S
C432 C431 1.381 . S
C432 C433 1.371 . S
C433 C432 1.371 . S
C433 C434 1.380 . S
C434 H390 0.931 . S
C434 C433 1.380 . S
C434 C435 1.387 . S
C435 H391 0.930 . S
C435 C430 1.386 . S
C435 C434 1.387 . S
C436 C405 1.519 . S
C436 C437 1.377 . S
C436 C441 1.361 . S
C437 H392 0.929 . S
C437 C436 1.377 . S
C437 C438 1.386 . S
C438 H393 0.931 . S
C438 C437 1.386 . S
C438 C439 1.363 . S
C439 C438 1.363 . S
C439 C440 1.385 . S
C440 H394 0.930 . S
C440 C439 1.385 . S
C440 C441 1.396 . S
C441 H395 0.929 . S
C441 C436 1.361 . S
C441 C440 1.396 . S
C442 O396 1.300 . S
C442 O397 1.209 . S
C442 C415 1.486 . S
C443 O398 1.199 . S
C443 O399 1.297 . S
C443 C427 1.476 . S
C444 O456 1.241 . S
C444 O457 1.280 . S
C445 O458 1.277 . S
C445 O459 1.245 . S
C446 O470 1.247 . S
C446 O472 1.289 . S
Mg447 O448 1.926 . S
Mg447 O457 1.984 1_455 S
Mg447 O459 1.988 . S
Mg447 O460 2.061 1_455 S
O448 Mg447 1.926 . S
O448 Mg449 1.986 . S
O448 Mg450 1.917 . S
Mg449 O448 1.986 . S
Mg449 O456 2.042 1_455 S
Mg449 O458 2.041 . S
Mg449 O464 2.038 1_455 S
Mg449 O472 2.238 . S
Mg450 O448 1.917 . S
Mg450 O451 1.917 . S
Mg450 O461 2.106 1_455 S
Mg450 O463 2.079 1_455 S
Mg450 O472 2.106 . S
Mg450 O473 2.079 . S
O451 Mg450 1.917 . S
O451 Mg452 1.926 . S
O451 Mg453 1.986 . S
Mg452 O451 1.926 . S
Mg452 O466 1.984 . S
Mg452 O469 1.988 1_455 S
Mg452 O470 2.061 . S
Mg453 O451 1.986 . S
Mg453 O461 2.238 1_455 S
Mg453 O465 2.042 . S
Mg453 O467 2.041 1_455 S
Mg453 O474 2.038 . S
C454 O460 1.247 . S
C454 O461 1.289 . S
C455 O473 1.245 . S
C455 O474 1.274 . S
O456 C444 1.241 . S
O456 Mg449 2.042 1_655 S
O457 C444 1.280 . S
O457 Mg447 1.984 1_655 S
O458 C445 1.277 . S
O458 Mg449 2.041 . S
O459 C445 1.245 . S
O459 Mg447 1.988 . S
O460 Mg447 2.061 1_655 S
O460 C454 1.247 . S
O461 Mg450 2.106 1_655 S
O461 Mg453 2.238 1_655 S
O461 C454 1.289 . S
C462 O463 1.245 . S
C462 O464 1.274 . S
O463 Mg450 2.079 1_655 S
O463 C462 1.245 . S
O464 Mg449 2.038 1_655 S
O464 C462 1.274 . S
O465 Mg453 2.042 . S
O465 C468 1.241 . S
O466 Mg452 1.984 . S
O466 C468 1.280 . S
O467 Mg453 2.041 1_655 S
O467 C471 1.277 . S
C468 O465 1.241 . S
C468 O466 1.280 . S
O469 Mg452 1.988 1_655 S
O469 C471 1.245 . S
O470 C446 1.247 . S
O470 Mg452 2.061 . S
C471 O467 1.277 . S
C471 O469 1.245 . S
O472 C446 1.289 . S
O472 Mg449 2.238 . S
O472 Mg450 2.106 . S
O473 Mg450 2.079 . S
O473 C455 1.245 . S
O474 Mg453 2.038 . S
O474 C455 1.274 . S
C475 O487 1.241 . S
C475 O488 1.280 . S
C476 O489 1.277 . S
C476 O490 1.245 . S
C477 O501 1.247 . S
C477 O503 1.289 . S
Mg478 O479 1.926 . S
Mg478 O488 1.984 . S
Mg478 O490 1.988 1_545 S
Mg478 O491 2.061 . S
O479 Mg478 1.926 . S
O479 Mg480 1.986 . S
O479 Mg481 1.917 . S
Mg480 O479 1.986 . S
Mg480 O487 2.042 . S
Mg480 O489 2.041 1_545 S
Mg480 O495 2.038 . S
Mg480 O503 2.238 1_545 S
Mg481 O479 1.917 . S
Mg481 O482 1.917 1_545 S
Mg481 O492 2.106 . S
Mg481 O494 2.079 . S
Mg481 O503 2.106 1_545 S
Mg481 O504 2.079 1_545 S
O482 Mg481 1.917 1_565 S
O482 Mg483 1.926 . S
O482 Mg484 1.986 1_565 S
Mg483 O482 1.926 . S
Mg483 O497 1.984 . S
Mg483 O500 1.988 1_565 S
Mg483 O501 2.061 . S
Mg484 O482 1.986 1_545 S
Mg484 O492 2.238 . S
Mg484 O496 2.042 1_545 S
Mg484 O498 2.041 . S
Mg484 O505 2.038 1_545 S
C485 O491 1.247 . S
C485 O492 1.289 . S
C486 O504 1.245 . S
C486 O505 1.274 . S
O487 C475 1.241 . S
O487 Mg480 2.042 . S
O488 C475 1.280 . S
O488 Mg478 1.984 . S
O489 C476 1.277 . S
O489 Mg480 2.041 1_565 S
O490 C476 1.245 . S
O490 Mg478 1.988 1_565 S
O491 Mg478 2.061 . S
O491 C485 1.247 . S
O492 Mg481 2.106 . S
O492 Mg484 2.238 . S
O492 C485 1.289 . S
C493 O494 1.245 . S
C493 O495 1.274 . S
O494 Mg481 2.079 . S
O494 C493 1.245 . S
O495 Mg480 2.038 . S
O495 C493 1.274 . S
O496 Mg484 2.042 1_565 S
O496 C499 1.241 . S
O497 Mg483 1.984 . S
O497 C499 1.280 . S
O498 Mg484 2.041 . S
O498 C502 1.277 . S
C499 O496 1.241 . S
C499 O497 1.280 . S
O500 Mg483 1.988 1_545 S
O500 C502 1.245 . S
O501 C477 1.247 . S
O501 Mg483 2.061 . S
C502 O498 1.277 . S
C502 O500 1.245 . S
O503 C477 1.289 . S
O503 Mg480 2.238 1_565 S
O503 Mg481 2.106 1_565 S
O504 Mg481 2.079 1_565 S
O504 C486 1.245 . S
O505 Mg484 2.038 1_565 S
O505 C486 1.274 . S
C506 O518 1.241 . S
C506 O519 1.280 . S
C507 O520 1.277 . S
C507 O521 1.245 . S
C508 O532 1.247 . S
C508 O534 1.289 . S
Mg509 O510 1.926 . S
Mg509 O519 1.984 . S
Mg509 O521 1.988 . S
Mg509 O522 2.061 . S
O510 Mg509 1.926 . S
O510 Mg511 1.986 . S
O510 Mg512 1.917 . S
Mg511 O510 1.986 . S
Mg511 O518 2.042 . S
Mg511 O520 2.041 . S
Mg511 O526 2.038 . S
Mg511 O534 2.238 . S
Mg512 O510 1.917 . S
Mg512 O513 1.917 . S
Mg512 O523 2.106 . S
Mg512 O525 2.079 . S
Mg512 O534 2.106 . S
Mg512 O535 2.079 . S
O513 Mg512 1.917 . S
O513 Mg514 1.926 . S
O513 Mg515 1.986 . S
Mg514 O513 1.926 . S
Mg514 O528 1.984 . S
Mg514 O531 1.988 . S
Mg514 O532 2.061 . S
Mg515 O513 1.986 . S
Mg515 O523 2.238 . S
Mg515 O527 2.042 . S
Mg515 O529 2.041 . S
Mg515 O536 2.038 . S
C516 O522 1.247 . S
C516 O523 1.289 . S
C517 O535 1.245 . S
C517 O536 1.274 . S
O518 C506 1.241 . S
O518 Mg511 2.042 . S
O519 C506 1.280 . S
O519 Mg509 1.984 . S
O520 C507 1.277 . S
O520 Mg511 2.041 . S
O521 C507 1.245 . S
O521 Mg509 1.988 . S
O522 Mg509 2.061 . S
O522 C516 1.247 . S
O523 Mg512 2.106 . S
O523 Mg515 2.238 . S
O523 C516 1.289 . S
C524 O525 1.245 . S
C524 O526 1.274 . S
O525 Mg512 2.079 . S
O525 C524 1.245 . S
O526 Mg511 2.038 . S
O526 C524 1.274 . S
O527 Mg515 2.042 . S
O527 C530 1.241 . S
O528 Mg514 1.984 . S
O528 C530 1.280 . S
O529 Mg515 2.041 . S
O529 C533 1.277 . S
C530 O527 1.241 . S
C530 O528 1.280 . S
O531 Mg514 1.988 . S
O531 C533 1.245 . S
O532 C508 1.247 . S
O532 Mg514 2.061 . S
C533 O529 1.277 . S
C533 O531 1.245 . S
O534 C508 1.289 . S
O534 Mg511 2.238 . S
O534 Mg512 2.106 . S
O535 Mg512 2.079 . S
O535 C517 1.245 . S
O536 Mg515 2.038 . S
O536 C517 1.274 . S
H537 C543 0.930 . S
H538 C546 0.930 . S
H539 C547 0.930 . S
H540 C548 0.930 . S
H541 C551 0.930 . S
H542 C552 0.930 . S
C543 H537 0.930 . S
C543 C544 1.355 . S
C543 C545 1.415 . S
C544 C543 1.355 . S
C544 C546 1.419 . S
C545 C543 1.415 . S
C545 C550 1.425 . S
C545 C552 1.409 . S
C546 H538 0.930 . S
C546 C544 1.419 . S
C546 C547 1.362 . S
C547 H539 0.930 . S
C547 C546 1.362 . S
C547 C550 1.409 . S
C548 H540 0.930 . S
C548 C549 1.355 . S
C548 C550 1.415 . S
C549 C548 1.355 . S
C549 C551 1.419 . S
C550 C545 1.425 . S
C550 C547 1.409 . S
C550 C548 1.415 . S
C551 H541 0.930 . S
C551 C549 1.419 . S
C551 C552 1.362 . S
C552 H542 0.930 . S
C552 C545 1.409 . S
C552 C551 1.362 . S
H553 C559 0.930 . S
H554 C562 0.930 . S
H555 C563 0.930 . S
H556 C564 0.930 . S
H557 C567 0.930 . S
H558 C568 0.930 . S
C559 H553 0.930 . S
C559 C560 1.355 . S
C559 C561 1.415 . S
C560 C559 1.355 . S
C560 C562 1.419 . S
C561 C559 1.415 . S
C561 C566 1.425 . S
C561 C568 1.409 . S
C562 H554 0.930 . S
C562 C560 1.419 . S
C562 C563 1.362 . S
C563 H555 0.930 . S
C563 C562 1.362 . S
C563 C566 1.409 . S
C564 H556 0.930 . S
C564 C565 1.355 . S
C564 C566 1.415 . S
C565 C564 1.355 . S
C565 C567 1.419 . S
C566 C561 1.425 . S
C566 C563 1.409 . S
C566 C564 1.415 . S
C567 H557 0.930 . S
C567 C565 1.419 . S
C567 C568 1.362 . S
C568 H558 0.930 . S
C568 C561 1.409 . S
C568 C567 1.362 . S
H569 C575 0.930 . S
H570 C578 0.930 . S
H571 C579 0.930 . S
H572 C580 0.930 . S
H573 C583 0.930 . S
H574 C584 0.930 . S
C575 H569 0.930 . S
C575 C576 1.355 . S
C575 C577 1.415 . S
C576 C575 1.355 . S
C576 C578 1.419 . S
C577 C575 1.415 . S
C577 C582 1.425 . S
C577 C584 1.409 . S
C578 H570 0.930 . S
C578 C576 1.419 . S
C578 C579 1.362 . S
C579 H571 0.930 . S
C579 C578 1.362 . S
C579 C582 1.409 . S
C580 H572 0.930 . S
C580 C581 1.355 . S
C580 C582 1.415 . S
C581 C580 1.355 . S
C581 C583 1.419 . S
C582 C577 1.425 . S
C582 C579 1.409 . S
C582 C580 1.415 . S
C583 H573 0.930 . S
C583 C581 1.419 . S
C583 C584 1.362 . S
C584 H574 0.930 . S
C584 C577 1.409 . S
C584 C583 1.362 . S
H585 C591 0.930 . S
H586 C594 0.930 . S
H587 C595 0.930 . S
H588 C596 0.930 . S
H589 C599 0.930 . S
H590 C600 0.930 . S
C591 H585 0.930 . S
C591 C592 1.355 . S
C591 C593 1.415 . S
C592 C591 1.355 . S
C592 C594 1.419 . S
C593 C591 1.415 . S
C593 C598 1.425 . S
C593 C600 1.409 . S
C594 H586 0.930 . S
C594 C592 1.419 . S
C594 C595 1.362 . S
C595 H587 0.930 . S
C595 C594 1.362 . S
C595 C598 1.409 . S
C596 H588 0.930 . S
C596 C597 1.355 . S
C596 C598 1.415 . S
C597 C596 1.355 . S
C597 C599 1.419 . S
C598 C593 1.425 . S
C598 C595 1.409 . S
C598 C596 1.415 . S
C599 H589 0.930 . S
C599 C597 1.419 . S
C599 C600 1.362 . S
C600 H590 0.930 . S
C600 C593 1.409 . S
C600 C599 1.362 . S
H601 C607 0.930 . S
H602 C610 0.930 . S
H603 C611 0.930 . S
H604 C612 0.930 . S
H605 C615 0.930 . S
H606 C616 0.930 . S
C607 H601 0.930 . S
C607 C608 1.355 . S
C607 C609 1.415 . S
C608 C607 1.355 . S
C608 C610 1.419 . S
C609 C607 1.415 . S
C609 C614 1.425 . S
C609 C616 1.409 . S
C610 H602 0.930 . S
C610 C608 1.419 . S
C610 C611 1.362 . S
C611 H603 0.930 . S
C611 C610 1.362 . S
C611 C614 1.409 . S
C612 H604 0.930 . S
C612 C613 1.355 . S
C612 C614 1.415 . S
C613 C612 1.355 . S
C613 C615 1.419 . S
C614 C609 1.425 . S
C614 C611 1.409 . S
C614 C612 1.415 . S
C615 H605 0.930 . S
C615 C613 1.419 . S
C615 C616 1.362 . S
C616 H606 0.930 . S
C616 C609 1.409 . S
C616 C615 1.362 . S
H617 C623 0.930 . S
H618 C626 0.930 . S
H619 C627 0.930 . S
H620 C628 0.930 . S
H621 C631 0.930 . S
H622 C632 0.930 . S
C623 H617 0.930 . S
C623 C624 1.355 . S
C623 C625 1.415 . S
C624 C623 1.355 . S
C624 C626 1.419 . S
C625 C623 1.415 . S
C625 C630 1.425 . S
C625 C632 1.409 . S
C626 H618 0.930 . S
C626 C624 1.419 . S
C626 C627 1.362 . S
C627 H619 0.930 . S
C627 C626 1.362 . S
C627 C630 1.409 . S
C628 H620 0.930 . S
C628 C629 1.355 . S
C628 C630 1.415 . S
C629 C628 1.355 . S
C629 C631 1.419 . S
C630 C625 1.425 . S
C630 C627 1.409 . S
C630 C628 1.415 . S
C631 H621 0.930 . S
C631 C629 1.419 . S
C631 C632 1.362 . S
C632 H622 0.930 . S
C632 C625 1.409 . S
C632 C631 1.362 . S
H633 C639 0.930 . S
H634 C642 0.930 . S
H635 C643 0.930 . S
H636 C644 0.930 . S
H637 C647 0.930 . S
H638 C648 0.930 . S
C639 H633 0.930 . S
C639 C640 1.355 . S
C639 C641 1.415 . S
C640 C639 1.355 . S
C640 C642 1.419 . S
C641 C639 1.415 . S
C641 C646 1.425 . S
C641 C648 1.409 . S
C642 H634 0.930 . S
C642 C640 1.419 . S
C642 C643 1.362 . S
C643 H635 0.930 . S
C643 C642 1.362 . S
C643 C646 1.409 . S
C644 H636 0.930 . S
C644 C645 1.355 . S
C644 C646 1.415 . S
C645 C644 1.355 . S
C645 C647 1.419 . S
C646 C641 1.425 . S
C646 C643 1.409 . S
C646 C644 1.415 . S
C647 H637 0.930 . S
C647 C645 1.419 . S
C647 C648 1.362 . S
C648 H638 0.930 . S
C648 C641 1.409 . S
C648 C647 1.362 . S
H649 C655 0.930 . S
H650 C658 0.930 . S
H651 C659 0.930 . S
H652 C660 0.930 . S
H653 C663 0.930 . S
H654 C664 0.930 . S
C655 H649 0.930 . S
C655 C656 1.355 . S
C655 C657 1.415 . S
C656 C655 1.355 . S
C656 C658 1.419 . S
C657 C655 1.415 . S
C657 C662 1.425 . S
C657 C664 1.409 . S
C658 H650 0.930 . S
C658 C656 1.419 . S
C658 C659 1.362 . S
C659 H651 0.930 . S
C659 C658 1.362 . S
C659 C662 1.409 . S
C660 H652 0.930 . S
C660 C661 1.355 . S
C660 C662 1.415 . S
C661 C660 1.355 . S
C661 C663 1.419 . S
C662 C657 1.425 . S
C662 C659 1.409 . S
C662 C660 1.415 . S
C663 H653 0.930 . S
C663 C661 1.419 . S
C663 C664 1.362 . S
C664 H654 0.930 . S
C664 C657 1.409 . S
C664 C663 1.362 . S
H665 C671 0.930 . S
H666 C674 0.930 . S
H667 C675 0.930 . S
H668 C676 0.930 . S
H669 C679 0.930 . S
H670 C680 0.930 . S
C671 H665 0.930 . S
C671 C672 1.355 . S
C671 C673 1.415 . S
C672 C671 1.355 . S
C672 C674 1.419 . S
C673 C671 1.415 . S
C673 C678 1.425 . S
C673 C680 1.409 . S
C674 H666 0.930 . S
C674 C672 1.419 . S
C674 C675 1.362 . S
C675 H667 0.930 . S
C675 C674 1.362 . S
C675 C678 1.409 . S
C676 H668 0.930 . S
C676 C677 1.355 . S
C676 C678 1.415 . S
C677 C676 1.355 . S
C677 C679 1.419 . S
C678 C673 1.425 . S
C678 C675 1.409 . S
C678 C676 1.415 . S
C679 H669 0.930 . S
C679 C677 1.419 . S
C679 C680 1.362 . S
C680 H670 0.930 . S
C680 C673 1.409 . S
C680 C679 1.362 . S
H681 C687 0.930 . S
H682 C690 0.930 1_554 S
H683 C691 0.930 . S
H684 C692 0.930 . S
H685 C695 0.930 . S
H686 C696 0.930 . S
C687 H681 0.930 . S
C687 C688 1.355 . S
C687 C689 1.415 . S
C688 C687 1.355 . S
C688 C690 1.419 . S
C689 C687 1.415 . S
C689 C694 1.425 . S
C689 C696 1.409 . S
C690 H682 0.930 1_556 S
C690 C688 1.419 . S
C690 C691 1.362 . S
C691 H683 0.930 . S
C691 C690 1.362 . S
C691 C694 1.409 . S
C692 H684 0.930 . S
C692 C693 1.355 . S
C692 C694 1.415 . S
C693 C692 1.355 . S
C693 C695 1.419 . S
C694 C689 1.425 . S
C694 C691 1.409 . S
C694 C692 1.415 . S
C695 H685 0.930 . S
C695 C693 1.419 . S
C695 C696 1.362 . S
C696 H686 0.930 . S
C696 C689 1.409 . S
C696 C695 1.362 . S
H697 C703 0.930 . S
H698 C706 0.930 . S
H699 C707 0.930 . S
H700 C708 0.930 . S
H701 C711 0.930 . S
H702 C712 0.930 . S
C703 H697 0.930 . S
C703 C704 1.355 . S
C703 C705 1.415 . S
C704 C703 1.355 . S
C704 C706 1.419 . S
C705 C703 1.415 . S
C705 C710 1.425 . S
C705 C712 1.409 . S
C706 H698 0.930 . S
C706 C704 1.419 . S
C706 C707 1.362 . S
C707 H699 0.930 . S
C707 C706 1.362 . S
C707 C710 1.409 . S
C708 H700 0.930 . S
C708 C709 1.355 . S
C708 C710 1.415 . S
C709 C708 1.355 . S
C709 C711 1.419 . S
C710 C705 1.425 . S
C710 C707 1.409 . S
C710 C708 1.415 . S
C711 H701 0.930 . S
C711 C709 1.419 . S
C711 C712 1.362 . S
C712 H702 0.930 . S
C712 C705 1.409 . S
C712 C711 1.362 . S
H713 C719 0.930 . S
H714 C722 0.930 . S
H715 C723 0.930 . S
H716 C724 0.930 . S
H717 C727 0.930 . S
H718 C728 0.930 . S
C719 H713 0.930 . S
C719 C720 1.355 . S
C719 C721 1.415 . S
C720 C719 1.355 . S
C720 C722 1.419 . S
C721 C719 1.415 . S
C721 C726 1.425 . S
C721 C728 1.409 . S
C722 H714 0.930 . S
C722 C720 1.419 . S
C722 C723 1.362 . S
C723 H715 0.930 . S
C723 C722 1.362 . S
C723 C726 1.409 . S
C724 H716 0.930 . S
C724 C725 1.355 . S
C724 C726 1.415 . S
C725 C724 1.355 . S
C725 C727 1.419 . S
C726 C721 1.425 . S
C726 C723 1.409 . S
C726 C724 1.415 . S
C727 H717 0.930 . S
C727 C725 1.419 . S
C727 C728 1.362 . S
C728 H718 0.930 . S
C728 C721 1.409 . S
C728 C727 1.362 . S
H729 C735 0.930 . S
H730 C738 0.930 . S
H731 C739 0.930 . S
H732 C740 0.930 . S
H733 C743 0.930 . S
H734 C744 0.930 . S
C735 H729 0.930 . S
C735 C736 1.355 . S
C735 C737 1.415 . S
C736 C735 1.355 . S
C736 C738 1.419 . S
C737 C735 1.415 . S
C737 C742 1.425 . S
C737 C744 1.409 . S
C738 H730 0.930 . S
C738 C736 1.419 . S
C738 C739 1.362 . S
C739 H731 0.930 . S
C739 C738 1.362 . S
C739 C742 1.409 . S
C740 H732 0.930 . S
C740 C741 1.355 . S
C740 C742 1.415 . S
C741 C740 1.355 . S
C741 C743 1.419 . S
C742 C737 1.425 . S
C742 C739 1.409 . S
C742 C740 1.415 . S
C743 H733 0.930 . S
C743 C741 1.419 . S
C743 C744 1.362 . S
C744 H734 0.930 . S
C744 C737 1.409 . S
C744 C743 1.362 . S
H745 C751 0.930 . S
H746 C754 0.930 . S
H747 C755 0.930 . S
H748 C756 0.930 . S
H749 C759 0.930 . S
H750 C760 0.930 . S
C751 H745 0.930 . S
C751 C752 1.355 . S
C751 C753 1.415 . S
C752 C751 1.355 . S
C752 C754 1.419 . S
C753 C751 1.415 . S
C753 C758 1.425 . S
C753 C760 1.409 . S
C754 H746 0.930 . S
C754 C752 1.419 . S
C754 C755 1.362 . S
C755 H747 0.930 . S
C755 C754 1.362 . S
C755 C758 1.409 . S
C756 H748 0.930 . S
C756 C757 1.355 . S
C756 C758 1.415 . S
C757 C756 1.355 . S
C757 C759 1.419 . S
C758 C753 1.425 . S
C758 C755 1.409 . S
C758 C756 1.415 . S
C759 H749 0.930 . S
C759 C757 1.419 . S
C759 C760 1.362 . S
C760 H750 0.930 . S
C760 C753 1.409 . S
C760 C759 1.362 . S
H761 C767 0.930 . S
H762 C770 0.930 . S
H763 C771 0.930 . S
H764 C772 0.930 . S
H765 C775 0.930 . S
H766 C776 0.930 1_554 S
C767 H761 0.930 . S
C767 C768 1.355 . S
C767 C769 1.415 1_554 S
C768 C767 1.355 . S
C768 C770 1.419 . S
C769 C767 1.415 1_556 S
C769 C774 1.425 . S
C769 C776 1.409 . S
C770 H762 0.930 . S
C770 C768 1.419 . S
C770 C771 1.362 1_554 S
C771 H763 0.930 . S
C771 C770 1.362 1_556 S
C771 C774 1.409 . S
C772 H764 0.930 . S
C772 C773 1.355 . S
C772 C774 1.415 . S
C773 C772 1.355 . S
C773 C775 1.419 . S
C774 C769 1.425 . S
C774 C771 1.409 . S
C774 C772 1.415 . S
C775 H765 0.930 . S
C775 C773 1.419 . S
C775 C776 1.362 . S
C776 H766 0.930 1_556 S
C776 C769 1.409 . S
C776 C775 1.362 . S
H777 C783 0.930 . S
H778 C786 0.930 . S
H779 C787 0.930 . S
H780 C788 0.930 . S
H781 C791 0.930 . S
H782 C792 0.930 . S
C783 H777 0.930 . S
C783 C784 1.355 . S
C783 C785 1.415 . S
C784 C783 1.355 . S
C784 C786 1.419 . S
C785 C783 1.415 . S
C785 C790 1.425 . S
C785 C792 1.409 . S
C786 H778 0.930 . S
C786 C784 1.419 . S
C786 C787 1.362 . S
C787 H779 0.930 . S
C787 C786 1.362 . S
C787 C790 1.409 . S
C788 H780 0.930 . S
C788 C789 1.355 . S
C788 C790 1.415 . S
C789 C788 1.355 . S
C789 C791 1.419 . S
C790 C785 1.425 . S
C790 C787 1.409 . S
C790 C788 1.415 . S
C791 H781 0.930 . S
C791 C789 1.419 . S
C791 C792 1.362 . S
C792 H782 0.930 . S
C792 C785 1.409 . S
C792 C791 1.362 . S
H793 C799 0.930 . S
H794 C802 0.930 . S
H795 C803 0.930 . S
H796 C804 0.930 . S
H797 C807 0.930 . S
H798 C808 0.930 . S
C799 H793 0.930 . S
C799 C800 1.355 . S
C799 C801 1.415 . S
C800 C799 1.355 . S
C800 C802 1.419 . S
C801 C799 1.415 . S
C801 C806 1.425 . S
C801 C808 1.409 . S
C802 H794 0.930 . S
C802 C800 1.419 . S
C802 C803 1.362 . S
C803 H795 0.930 . S
C803 C802 1.362 . S
C803 C806 1.409 . S
C804 H796 0.930 . S
C804 C805 1.355 . S
C804 C806 1.415 . S
C805 C804 1.355 . S
C805 C807 1.419 . S
C806 C801 1.425 . S
C806 C803 1.409 . S
C806 C804 1.415 . S
C807 H797 0.930 . S
C807 C805 1.419 . S
C807 C808 1.362 . S
C808 H798 0.930 . S
C808 C801 1.409 . S
C808 C807 1.362 . S
H809 C815 0.930 . S
H810 C818 0.930 . S
H811 C819 0.930 . S
H812 C820 0.930 . S
H813 C823 0.930 . S
H814 C824 0.930 . S
C815 H809 0.930 . S
C815 C816 1.355 . S
C815 C817 1.415 . S
C816 C815 1.355 . S
C816 C818 1.419 . S
C817 C815 1.415 . S
C817 C822 1.425 . S
C817 C824 1.409 . S
C818 H810 0.930 . S
C818 C816 1.419 . S
C818 C819 1.362 . S
C819 H811 0.930 . S
C819 C818 1.362 . S
C819 C822 1.409 . S
C820 H812 0.930 . S
C820 C821 1.355 . S
C820 C822 1.415 . S
C821 C820 1.355 . S
C821 C823 1.419 . S
C822 C817 1.425 . S
C822 C819 1.409 . S
C822 C820 1.415 . S
C823 H813 0.930 . S
C823 C821 1.419 . S
C823 C824 1.362 . S
C824 H814 0.930 . S
C824 C817 1.409 . S
C824 C823 1.362 . S
H825 C831 0.930 . S
H826 C834 0.930 . S
H827 C835 0.930 . S
H828 C836 0.930 . S
H829 C839 0.930 . S
H830 C840 0.930 . S
C831 H825 0.930 . S
C831 C832 1.355 . S
C831 C833 1.415 . S
C832 C831 1.355 . S
C832 C834 1.419 . S
C833 C831 1.415 . S
C833 C838 1.425 . S
C833 C840 1.409 . S
C834 H826 0.930 . S
C834 C832 1.419 . S
C834 C835 1.362 . S
C835 H827 0.930 . S
C835 C834 1.362 . S
C835 C838 1.409 . S
C836 H828 0.930 . S
C836 C837 1.355 . S
C836 C838 1.415 . S
C837 C836 1.355 . S
C837 C839 1.419 . S
C838 C833 1.425 . S
C838 C835 1.409 . S
C838 C836 1.415 . S
C839 H829 0.930 . S
C839 C837 1.419 . S
C839 C840 1.362 . S
C840 H830 0.930 . S
C840 C833 1.409 . S
C840 C839 1.362 . S
H841 C847 0.930 . S
H842 C850 0.930 . S
H843 C851 0.930 . S
H844 C852 0.930 . S
H845 C855 0.930 . S
H846 C856 0.930 . S
C847 H841 0.930 . S
C847 C848 1.355 . S
C847 C849 1.415 . S
C848 C847 1.355 . S
C848 C850 1.419 . S
C849 C847 1.415 . S
C849 C854 1.425 . S
C849 C856 1.409 . S
C850 H842 0.930 . S
C850 C848 1.419 . S
C850 C851 1.362 . S
C851 H843 0.930 . S
C851 C850 1.362 . S
C851 C854 1.409 . S
C852 H844 0.930 . S
C852 C853 1.355 . S
C852 C854 1.415 . S
C853 C852 1.355 . S
C853 C855 1.419 . S
C854 C849 1.425 . S
C854 C851 1.409 . S
C854 C852 1.415 . S
C855 H845 0.930 . S
C855 C853 1.419 . S
C855 C856 1.362 . S
C856 H846 0.930 . S
C856 C849 1.409 . S
C856 C855 1.362 . S
H857 C863 0.930 . S
H858 C866 0.930 . S
H859 C867 0.930 . S
H860 C868 0.930 . S
H861 C871 0.930 . S
H862 C872 0.930 . S
C863 H857 0.930 . S
C863 C864 1.355 . S
C863 C865 1.415 . S
C864 C863 1.355 . S
C864 C866 1.419 . S
C865 C863 1.415 . S
C865 C870 1.425 . S
C865 C872 1.409 . S
C866 H858 0.930 . S
C866 C864 1.419 . S
C866 C867 1.362 . S
C867 H859 0.930 . S
C867 C866 1.362 . S
C867 C870 1.409 . S
C868 H860 0.930 . S
C868 C869 1.355 . S
C868 C870 1.415 . S
C869 C868 1.355 . S
C869 C871 1.419 . S
C870 C865 1.425 . S
C870 C867 1.409 . S
C870 C868 1.415 . S
C871 H861 0.930 . S
C871 C869 1.419 . S
C871 C872 1.362 . S
C872 H862 0.930 . S
C872 C865 1.409 . S
C872 C871 1.362 . S
H873 C879 0.930 . S
H874 C882 0.930 . S
H875 C883 0.930 . S
H876 C884 0.930 . S
H877 C887 0.930 . S
H878 C888 0.930 . S
C879 H873 0.930 . S
C879 C880 1.355 . S
C879 C881 1.415 . S
C880 C879 1.355 . S
C880 C882 1.419 . S
C881 C879 1.415 . S
C881 C886 1.425 . S
C881 C888 1.409 . S
C882 H874 0.930 . S
C882 C880 1.419 . S
C882 C883 1.362 . S
C883 H875 0.930 . S
C883 C882 1.362 . S
C883 C886 1.409 . S
C884 H876 0.930 . S
C884 C885 1.355 . S
C884 C886 1.415 . S
C885 C884 1.355 . S
C885 C887 1.419 . S
C886 C881 1.425 . S
C886 C883 1.409 . S
C886 C884 1.415 . S
C887 H877 0.930 . S
C887 C885 1.419 . S
C887 C888 1.362 . S
C888 H878 0.930 . S
C888 C881 1.409 . S
C888 C887 1.362 . S
H889 C895 0.930 . S
H890 C898 0.930 . S
H891 C899 0.930 . S
H892 C900 0.930 . S
H893 C903 0.930 . S
H894 C904 0.930 . S
C895 H889 0.930 . S
C895 C896 1.355 . S
C895 C897 1.415 . S
C896 C895 1.355 . S
C896 C898 1.419 . S
C897 C895 1.415 . S
C897 C902 1.425 . S
C897 C904 1.409 . S
C898 H890 0.930 . S
C898 C896 1.419 . S
C898 C899 1.362 . S
C899 H891 0.930 . S
C899 C898 1.362 . S
C899 C902 1.409 . S
C900 H892 0.930 . S
C900 C901 1.355 . S
C900 C902 1.415 . S
C901 C900 1.355 . S
C901 C903 1.419 . S
C902 C897 1.425 . S
C902 C899 1.409 . S
C902 C900 1.415 . S
C903 H893 0.930 . S
C903 C901 1.419 . S
C903 C904 1.362 . S
C904 H894 0.930 . S
C904 C897 1.409 . S
C904 C903 1.362 . S
H905 C911 0.930 . S
H906 C914 0.930 . S
H907 C915 0.930 . S
H908 C916 0.930 . S
H909 C919 0.930 . S
H910 C920 0.930 . S
C911 H905 0.930 . S
C911 C912 1.355 . S
C911 C913 1.415 . S
C912 C911 1.355 . S
C912 C914 1.419 . S
C913 C911 1.415 . S
C913 C918 1.425 . S
C913 C920 1.409 . S
C914 H906 0.930 . S
C914 C912 1.419 . S
C914 C915 1.362 . S
C915 H907 0.930 . S
C915 C914 1.362 . S
C915 C918 1.409 . S
C916 H908 0.930 . S
C916 C917 1.355 . S
C916 C918 1.415 . S
C917 C916 1.355 . S
C917 C919 1.419 . S
C918 C913 1.425 . S
C918 C915 1.409 . S
C918 C916 1.415 . S
C919 H909 0.930 . S
C919 C917 1.419 . S
C919 C920 1.362 . S
C920 H910 0.930 . S
C920 C913 1.409 . S
C920 C919 1.362 . S
C544 C39 1.981 . S
C549 C455 1.927 . S
C560 C125 0.998 . S
C565 C502 0.980 . S
C581 C506 2.113 . S
C576 C211 1.987 . S
C597 C471 0.823 . S
C592 C273 0.810 . S
C608 C335 2.058 . S
C613 C486 2.036 . S
C629 C508 1.449 . S
C624 C439 1.473 . S
C645 C477 1.461 . S
C640 C187 1.487 . S
C656 C291 1.887 . S
C661 C517 1.836 . S
C677 C446 1.865 . S
C672 C359 1.745 . S
C688 C421 0.803 . S
C693 C475 0.838 . S
C704 C63 2.103 . S
C709 C533 2.234 . S
C725 C444 1.907 . S
C720 C143 1.947 . S
C741 C462 2.268 . S
C736 C285 2.160 . S
C757 C476 1.919 . S
C752 C365 1.950 . S
C773 C530 1.985 . S
C768 C409 1.926 . S
C789 C445 1.801 . S
C784 C69 1.880 1_556 S
C805 C493 2.083 . S
C800 C137 1.967 . S
C816 C199 0.405 . S
C821 C516 0.351 . S
C837 C485 1.905 . S
C832 C433 1.719 . S
C853 C524 0.636 . S
C848 C51 0.624 . S
C869 C454 1.510 . S
C864 C113 1.497 . S
C885 C499 1.760 . S
C880 C217 1.796 . S
C896 C261 2.088 . S
C901 C507 2.078 . S
C912 C347 0.680 . S
C917 C468 0.753 . S
