# Generated by pormake.
# Topology apo, (3,6)-cn, num edge types: 1
# Building blocks:
#     Node 0, Type 0, BuildingBlock: PAMTOO_clean_linker_0, # of connection points: 3
#     Node 1, Type 0, BuildingBlock: PAMTOO_clean_linker_0, # of connection points: 3
#     Node 2, Type 0, BuildingBlock: PAMTOO_clean_linker_0, # of connection points: 3
#     Node 3, Type 0, BuildingBlock: PAMTOO_clean_linker_0, # of connection points: 3
#     Node 4, Type 0, BuildingBlock: PAMTOO_clean_linker_0, # of connection points: 3
#     Node 5, Type 0, BuildingBlock: PAMTOO_clean_linker_0, # of connection points: 3
#     Node 6, Type 0, BuildingBlock: PAMTOO_clean_linker_0, # of connection points: 3
#     Node 7, Type 0, BuildingBlock: PAMTOO_clean_linker_0, # of connection points: 3
#     Node 8, Type 1, BuildingBlock: KUMBOL_clean_sbu_1, # of connection points: 6
#     Node 9, Type 1, BuildingBlock: KUMBOL_clean_sbu_1, # of connection points: 6
#     Node 10, Type 1, BuildingBlock: KUMBOL_clean_sbu_1, # of connection points: 6
#     Node 11, Type 1, BuildingBlock: KUMBOL_clean_sbu_1, # of connection points: 6
#     Edge 12, Type (0, 1), BuildingBlock: AJUNOK_clean_linker_0, # of connection points: 2
#     Edge 13, Type (0, 1), BuildingBlock: AJUNOK_clean_linker_0, # of connection points: 2
#     Edge 14, Type (0, 1), BuildingBlock: AJUNOK_clean_linker_0, # of connection points: 2
#     Edge 15, Type (0, 1), BuildingBlock: AJUNOK_clean_linker_0, # of connection points: 2
#     Edge 16, Type (0, 1), BuildingBlock: AJUNOK_clean_linker_0, # of connection points: 2
#     Edge 17, Type (0, 1), BuildingBlock: AJUNOK_clean_linker_0, # of connection points: 2
#     Edge 18, Type (0, 1), BuildingBlock: AJUNOK_clean_linker_0, # of connection points: 2
#     Edge 19, Type (0, 1), BuildingBlock: AJUNOK_clean_linker_0, # of connection points: 2
#     Edge 20, Type (0, 1), BuildingBlock: AJUNOK_clean_linker_0, # of connection points: 2
#     Edge 21, Type (0, 1), BuildingBlock: AJUNOK_clean_linker_0, # of connection points: 2
#     Edge 22, Type (0, 1), BuildingBlock: AJUNOK_clean_linker_0, # of connection points: 2
#     Edge 23, Type (0, 1), BuildingBlock: AJUNOK_clean_linker_0, # of connection points: 2
#     Edge 24, Type (0, 1), BuildingBlock: AJUNOK_clean_linker_0, # of connection points: 2
#     Edge 25, Type (0, 1), BuildingBlock: AJUNOK_clean_linker_0, # of connection points: 2
#     Edge 26, Type (0, 1), BuildingBlock: AJUNOK_clean_linker_0, # of connection points: 2
#     Edge 27, Type (0, 1), BuildingBlock: AJUNOK_clean_linker_0, # of connection points: 2
#     Edge 28, Type (0, 1), BuildingBlock: AJUNOK_clean_linker_0, # of connection points: 2
#     Edge 29, Type (0, 1), BuildingBlock: AJUNOK_clean_linker_0, # of connection points: 2
#     Edge 30, Type (0, 1), BuildingBlock: AJUNOK_clean_linker_0, # of connection points: 2
#     Edge 31, Type (0, 1), BuildingBlock: AJUNOK_clean_linker_0, # of connection points: 2
#     Edge 32, Type (0, 1), BuildingBlock: AJUNOK_clean_linker_0, # of connection points: 2
#     Edge 33, Type (0, 1), BuildingBlock: AJUNOK_clean_linker_0, # of connection points: 2
#     Edge 34, Type (0, 1), BuildingBlock: AJUNOK_clean_linker_0, # of connection points: 2
#     Edge 35, Type (0, 1), BuildingBlock: AJUNOK_clean_linker_0, # of connection points: 2
# Relax obj value: 0.039
# Max RMSD: 0.245
# Mean RMSD: 0.173
data_MOF--net-apo--node1-KUMBOL_clean_sbu_1--node2-PAMTOO_clean_linker_0--edge1-AJUNOK_clean_linker_0
_symmetry_space_group_name_H-M    P1
_symmetry_Int_Tables_number       1
_symmetry_cell_setting            triclinic
loop_
_symmetry_equiv_pos_as_xyz
'x, y, z'
_cell_length_a     20.60521
_cell_length_b     30.899557
_cell_length_c     39.05759
_cell_angle_alpha  89.773781
_cell_angle_beta   89.889915
_cell_angle_gamma 90.450854
loop_
_atom_site_label
_atom_site_type_symbol
_atom_site_fract_x
_atom_site_fract_y
_atom_site_fract_z
_atom_type_partial_charge
H0 H 0.36808 0.47122 0.4445 0.0
H1 H 0.30248 0.39992 0.35643 0.0
H2 H 0.24238 0.35988 0.45696 0.0
H3 H 0.25005 0.28787 0.41683 0.0
C4 C 0.25164 0.30163 0.3905 0.0
O5 O 0.23178 0.34421 0.39141 0.0
H6 H 0.30268 0.3004 0.38109 0.0
C7 C 0.34123 0.4442 0.43374 0.0
C8 C 0.30605 0.41601 0.45547 0.0
C9 C 0.34009 0.4386 0.39802 0.0
C10 C 0.30435 0.40415 0.38395 0.0
C11 C 0.26884 0.37605 0.40523 0.0
C12 C 0.26974 0.38204 0.44081 0.0
H13 H 0.12763 0.06676 0.92389 0.0
H14 H 0.23819 0.18281 0.94436 0.0
H15 H 0.22865 0.13208 0.84208 0.0
H16 H 0.35958 0.16354 0.87019 0.0
C17 C 0.34178 0.19454 0.88106 0.0
O18 O 0.27474 0.19474 0.88041 0.0
H19 H 0.35875 0.19688 0.908 0.0
C20 C 0.15841 0.09324 0.91515 0.0
C21 C 0.17544 0.09583 0.88048 0.0
C22 C 0.18126 0.12404 0.93864 0.0
C23 C 0.22112 0.15819 0.92679 0.0
C24 C 0.23839 0.16101 0.89199 0.0
C25 C 0.21581 0.12962 0.86894 0.0
H26 H 0.8955 0.07541 0.61512 0.0
H27 H 0.78869 0.13427 0.69748 0.0
H28 H 0.78879 0.19288 0.59814 0.0
H29 H 0.79843 0.25302 0.65715 0.0
C30 C 0.77061 0.23351 0.67624 0.0
O31 O 0.74434 0.19748 0.66071 0.0
H32 H 0.80527 0.22363 0.69663 0.0
C33 C 0.86452 0.10089 0.6246 0.0
C34 C 0.84568 0.13446 0.60236 0.0
C35 C 0.84445 0.10026 0.65912 0.0
C36 C 0.80305 0.1329 0.67082 0.0
C37 C 0.78239 0.16561 0.64867 0.0
C38 C 0.80351 0.16642 0.6146 0.0
H39 H 0.63126 0.43562 0.11551 0.0
H40 H 0.75234 0.3235 0.10487 0.0
H41 H 0.74771 0.39109 0.20024 0.0
H42 H 0.87523 0.36119 0.17774 0.0
C43 C 0.86066 0.32915 0.16719 0.0
O44 O 0.79409 0.32452 0.16802 0.0
H45 H 0.87797 0.32789 0.14021 0.0
C46 C 0.66587 0.41316 0.12631 0.0
C47 C 0.68566 0.41761 0.1607 0.0
C48 C 0.69058 0.37982 0.1057 0.0
C49 C 0.73422 0.35013 0.12002 0.0
C50 C 0.75394 0.35412 0.15412 0.0
C51 C 0.73044 0.38797 0.17418 0.0
H52 H 0.64433 0.55772 0.61405 0.0
H53 H 0.74964 0.67605 0.59353 0.0
H54 H 0.74302 0.62386 0.69569 0.0
H55 H 0.73086 0.71438 0.69329 0.0
C56 C 0.76219 0.72342 0.67112 0.0
O57 O 0.78847 0.68671 0.65683 0.0
H58 H 0.73171 0.7399 0.65159 0.0
C59 C 0.67408 0.58458 0.62282 0.0
C60 C 0.69108 0.58703 0.65748 0.0
C61 C 0.69481 0.61641 0.59943 0.0
C62 C 0.73349 0.65097 0.61112 0.0
C63 C 0.75087 0.65359 0.64578 0.0
C64 C 0.72957 0.62165 0.66894 0.0
H65 H 0.89188 0.9614 0.11243 0.0
H66 H 0.80607 0.89204 0.19695 0.0
H67 H 0.78157 0.84445 0.09446 0.0
H68 H 0.66532 0.83304 0.13616 0.0
C69 C 0.68696 0.8324 0.16221 0.0
O70 O 0.75378 0.83077 0.15934 0.0
H71 H 0.67319 0.86258 0.17582 0.0
C72 C 0.86311 0.93433 0.12189 0.0
C73 C 0.83779 0.90374 0.09881 0.0
C74 C 0.85172 0.93042 0.15717 0.0
C75 C 0.81457 0.89554 0.16969 0.0
C76 C 0.78893 0.86471 0.14703 0.0
C77 C 0.80069 0.86879 0.11168 0.0
H78 H 0.12915 0.93841 0.42972 0.0
H79 H 0.23902 0.82149 0.44151 0.0
H80 H 0.25128 0.8931 0.3476 0.0
H81 H 0.22754 0.79871 0.3423 0.0
C82 C 0.26034 0.78766 0.36317 0.0
O83 O 0.28695 0.82293 0.37966 0.0
H84 H 0.23041 0.76828 0.38144 0.0
C85 C 0.16375 0.91549 0.41962 0.0
C86 C 0.1891 0.92111 0.38632 0.0
C87 C 0.18255 0.88016 0.44 0.0
C88 C 0.22541 0.84956 0.42651 0.0
C89 C 0.24899 0.85398 0.3931 0.0
C90 C 0.23168 0.88987 0.37326 0.0
H91 H 0.38297 0.57702 0.93335 0.0
H92 H 0.31061 0.64233 0.84312 0.0
H93 H 0.30145 0.704 0.94057 0.0
H94 H 0.18264 0.71216 0.90502 0.0
C95 C 0.19893 0.70825 0.87804 0.0
O96 O 0.26578 0.70808 0.87667 0.0
H97 H 0.17923 0.67672 0.86877 0.0
C98 C 0.36088 0.60457 0.92086 0.0
C99 C 0.34541 0.64071 0.94084 0.0
C100 C 0.34905 0.60407 0.88527 0.0
C101 C 0.31868 0.64028 0.87041 0.0
C102 C 0.29945 0.67521 0.89068 0.0
C103 C 0.31403 0.67584 0.92557 0.0
C104 C 0.81855 0.09452 0.28887 0.0
C105 C 0.81281 0.01596 0.29143 0.0
C106 C 0.84819 0.05491 0.29508 0.0
C107 C 0.74738 0.01732 0.28151 0.0
C108 C 0.7528 0.09595 0.27902 0.0
C109 C 0.71747 0.05717 0.27536 0.0
N110 N 0.85422 0.13156 0.29198 0.0
C111 C 0.82665 0.17104 0.28686 0.0
C112 C 0.72455 0.13634 0.27303 0.0
C113 C 0.76157 0.17402 0.27713 0.0
Gd114 Gd 0.1044 0.12448 0.23713 0.0
Gd115 Gd 0.96263 0.12254 0.30817 0.0
N116 N 0.91229 0.05447 0.30349 0.0
C117 C 0.84445 0.97677 0.29763 0.0
C118 C 0.94253 0.01655 0.31105 0.0
C119 C 0.90943 0.97712 0.30776 0.0
H120 H 0.99191 0.01658 0.31979 0.0
H121 H 0.93395 0.94703 0.31323 0.0
H122 H 0.08198 0.23161 0.22843 0.0
H123 H 0.8544 0.20032 0.29084 0.0
H124 H 0.14585 0.29896 0.23402 0.0
H125 H 0.81901 0.94614 0.29499 0.0
H126 H 0.71949 0.98771 0.27848 0.0
H127 H 0.208 0.04277 0.25012 0.0
H128 H 0.67415 0.13879 0.26545 0.0
H129 H 0.73991 0.2054 0.27296 0.0
H130 H 0.36048 0.25029 0.26113 0.0
H131 H 0.66694 0.05765 0.26773 0.0
H132 H 0.39544 0.09751 0.27047 0.0
H133 H 0.3238 0.0334 0.26422 0.0
N134 N 0.21368 0.11155 0.24956 0.0
C135 C 0.25238 0.14722 0.25228 0.0
C136 C 0.23855 0.07102 0.25343 0.0
C137 C 0.34456 0.10186 0.26451 0.0
C138 C 0.30424 0.06557 0.26109 0.0
C139 C 0.31888 0.14331 0.26001 0.0
H140 H 0.40868 0.17838 0.26914 0.0
N141 N 0.16037 0.19065 0.24146 0.0
C142 C 0.22518 0.1879 0.24773 0.0
C143 C 0.23458 0.26588 0.24623 0.0
C144 C 0.26382 0.22553 0.25082 0.0
C145 C 0.13224 0.22974 0.23547 0.0
C146 C 0.16862 0.26795 0.23824 0.0
O147 O 0.94425 0.09157 0.25581 0.0
O148 O 0.04241 0.06451 0.2386 0.0
O149 O 0.08754 0.14599 0.18493 0.0
O150 O 0.15962 0.09713 0.19511 0.0
O151 O 0.05967 0.09239 0.32019 0.0
O152 O 0.09866 0.06402 0.26977 0.0
O153 O 0.12607 0.1568 0.2879 0.0
O154 O 0.02938 0.18117 0.31046 0.0
O155 O 0.96798 0.09854 0.36032 0.0
O156 O 0.90526 0.15224 0.34848 0.0
O157 O 0.00824 0.15782 0.22724 0.0
O158 O 0.96992 0.18464 0.27828 0.0
C159 C 0.97882 0.06316 0.23875 0.0
C160 C 0.09439 0.06397 0.30342 0.0
C161 C 0.10689 0.09501 0.14154 0.0
C162 C 0.10518 0.08609 0.0794 0.0
C163 C 0.04466 0.03639 0.11631 0.0
C164 C 0.06604 0.05881 0.14516 0.0
C165 C 0.06403 0.04985 0.08363 0.0
C166 C 0.12613 0.10871 0.10867 0.0
C167 C 0.12908 0.11914 0.17175 0.0
C168 C 0.33006 0.22173 0.25857 0.0
C169 C 0.35751 0.18076 0.26314 0.0
H170 H 0.26257 0.29557 0.24847 0.0
C171 C 0.09315 0.18255 0.30813 0.0
C172 C 0.97742 0.1875 0.24491 0.0
C173 C 0.95344 0.15037 0.40328 0.0
C174 C 0.95137 0.16107 0.4652 0.0
C175 C 0.02949 0.20027 0.42977 0.0
C176 C 0.00555 0.17959 0.40072 0.0
C177 C 1.00251 0.19125 0.46182 0.0
C178 C 0.9263 0.14114 0.43558 0.0
C179 C 0.92954 0.128 0.37255 0.0
H180 H 0.01314 0.00841 0.11929 0.0
H181 H 0.0508 0.04801 0.17025 0.0
H182 H 0.04739 0.03162 0.06166 0.0
H183 H 0.15672 0.13722 0.10593 0.0
H184 H 0.06935 0.22315 0.42746 0.0
H185 H 0.02792 0.18606 0.37627 0.0
H186 H 0.02163 0.20791 0.48402 0.0
H187 H 0.88689 0.11783 0.43775 0.0
C188 C 0.72449 0.42475 0.77585 0.0
C189 C 0.73934 0.50253 0.77558 0.0
C190 C 0.70258 0.46538 0.78416 0.0
C191 C 0.79665 0.49808 0.7564 0.0
C192 C 0.78441 0.41979 0.7589 0.0
C193 C 0.81919 0.4567 0.74807 0.0
N194 N 0.69002 0.39003 0.78722 0.0
C195 C 0.71681 0.34981 0.78655 0.0
C196 C 0.80886 0.37799 0.75485 0.0
C197 C 0.77572 0.34293 0.76958 0.0
Gd198 Gd 0.4409 0.39336 0.73886 0.0
Gd199 Gd 0.58649 0.40368 0.81042 0.0
N200 N 0.64683 0.46831 0.80245 0.0
C201 C 0.71838 0.54276 0.78748 0.0
C202 C 0.62894 0.50694 0.81642 0.0
C203 C 0.66366 0.54484 0.80862 0.0
H204 H 0.58615 0.50861 0.83223 0.0
H205 H 0.64798 0.57561 0.8187 0.0
H206 H 0.4982 0.31781 0.68389 0.0
H207 H 0.69224 0.32293 0.79885 0.0
H208 H 0.48676 0.23937 0.67459 0.0
H209 H 0.74513 0.57214 0.78139 0.0
H210 H 0.825 0.52627 0.74896 0.0
H211 H 0.30807 0.42411 0.78012 0.0
H212 H 0.85469 0.37268 0.74195 0.0
H213 H 0.79567 0.3107 0.76808 0.0
H214 H 0.30786 0.19785 0.74679 0.0
H215 H 0.86475 0.45359 0.73444 0.0
H216 H 0.19306 0.31163 0.80345 0.0
H217 H 0.21019 0.39094 0.80661 0.0
N218 N 0.34511 0.36445 0.76256 0.0
C219 C 0.33469 0.32135 0.75877 0.0
C220 C 0.30022 0.3897 0.77841 0.0
C221 C 0.23553 0.32616 0.79156 0.0
C222 C 0.24501 0.37094 0.79339 0.0
C223 C 0.28031 0.30079 0.77378 0.0
H224 H 0.23109 0.23934 0.78189 0.0
N225 N 0.42776 0.31981 0.72369 0.0
C226 C 0.3781 0.29814 0.73922 0.0
C227 C 0.4093 0.23186 0.71131 0.0
C228 C 0.36802 0.25348 0.73387 0.0
C229 C 0.46399 0.2997 0.69924 0.0
C230 C 0.45658 0.25531 0.69334 0.0
O231 O 0.56335 0.4572 0.77279 0.0
O232 O 0.53704 0.42314 0.72288 0.0
O233 O 0.39623 0.38894 0.68791 0.0
O234 O 0.39195 0.44898 0.71722 0.0
O235 O 0.48949 0.43309 0.82378 0.0
O236 O 0.43431 0.45198 0.77389 0.0
O237 O 0.42832 0.3703 0.79384 0.0
O238 O 0.52693 0.342 0.80827 0.0
O239 O 0.56485 0.41806 0.86349 0.0
O240 O 0.65122 0.38286 0.8514 0.0
O241 O 0.54099 0.36867 0.72528 0.0
O242 O 0.58185 0.34381 0.77661 0.0
C243 C 0.56776 0.45388 0.73953 0.0
C244 C 0.44918 0.45803 0.80652 0.0
C245 C 0.34017 0.45027 0.6613 0.0
C246 C 0.30562 0.45603 0.60141 0.0
C247 C 0.26975 0.5088 0.64328 0.0
C248 C 0.30434 0.48753 0.66886 0.0
C249 C 0.27038 0.49328 0.60983 0.0
C250 C 0.34094 0.43463 0.62732 0.0
C251 C 0.37724 0.42894 0.68901 0.0
C252 C 0.31583 0.23226 0.7502 0.0
C253 C 0.272 0.2559 0.7701 0.0
H254 H 0.40325 0.19756 0.70648 0.0
C255 C 0.46321 0.34016 0.80857 0.0
C256 C 0.57903 0.34275 0.74287 0.0
C257 C 0.59958 0.36766 0.90432 0.0
C258 C 0.60447 0.35097 0.96548 0.0
C259 C 0.54212 0.30496 0.92704 0.0
C260 C 0.55981 0.33119 0.89932 0.0
C261 C 0.56398 0.31485 0.95996 0.0
C262 C 0.62212 0.37735 0.93741 0.0
C263 C 0.61418 0.39729 0.87568 0.0
H264 H 0.24248 0.53756 0.6494 0.0
H265 H 0.30294 0.50031 0.69464 0.0
H266 H 0.24376 0.51072 0.59034 0.0
H267 H 0.36869 0.40607 0.62106 0.0
H268 H 0.51107 0.27702 0.92302 0.0
H269 H 0.54183 0.32331 0.8741 0.0
H270 H 0.54975 0.29404 0.98111 0.0
H271 H 0.65207 0.40588 0.94141 0.0
C272 C 0.83005 0.81579 0.7862 0.0
C273 C 0.87163 0.74655 0.80476 0.0
C274 C 0.87848 0.79189 0.80163 0.0
C275 C 0.81811 0.72555 0.78976 0.0
C276 C 0.77445 0.79515 0.77273 0.0
C277 C 0.76958 0.74982 0.77378 0.0
N278 N 0.83641 0.85948 0.78527 0.0
C279 C 0.78726 0.88475 0.77353 0.0
C280 C 0.72506 0.82081 0.75904 0.0
C281 C 0.73119 0.86587 0.75983 0.0
Gd282 Gd 0.0778 0.8941 0.73184 0.0
Gd283 Gd 0.93296 0.88909 0.80682 0.0
N284 N 0.92928 0.8133 0.81617 0.0
C285 C 0.91698 0.72397 0.82436 0.0
C286 C 0.96774 0.79207 0.83911 0.0
C287 C 0.96405 0.74704 0.8425 0.0
H288 H 1.00078 0.80974 0.85538 0.0
H289 H 0.99659 0.73029 0.85968 0.0
H290 H 0.12178 0.9975 0.7184 0.0
H291 H 0.79189 0.91943 0.77451 0.0
H292 H 0.21716 0.045 0.72897 0.0
H293 H 0.9136 0.68915 0.82736 0.0
H294 H 0.81272 0.69069 0.79138 0.0
H295 H 0.1348 0.79352 0.72831 0.0
H296 H 0.68167 0.8062 0.74836 0.0
H297 H 0.69278 0.88604 0.74993 0.0
H298 H 0.38008 0.94749 0.77045 0.0
H299 H 0.72778 0.73331 0.76305 0.0
H300 H 0.33169 0.79554 0.76388 0.0
H301 H 0.23546 0.75451 0.7437 0.0
N302 N 0.1733 0.85515 0.74138 0.0
C303 C 0.22648 0.87841 0.75054 0.0
C304 C 0.17666 0.81142 0.73736 0.0
C305 C 0.28761 0.81264 0.75747 0.0
C306 C 0.23348 0.78937 0.74595 0.0
C307 C 0.2851 0.85786 0.75906 0.0
H308 H 0.38512 0.86799 0.77446 0.0
N309 N 0.16757 0.94108 0.73762 0.0
C310 C 0.22361 0.92298 0.74844 0.0
C311 C 0.27618 0.99312 0.74842 0.0
C312 C 0.27934 0.94849 0.75456 0.0
C313 C 0.1658 0.98392 0.72872 0.0
C314 C 0.2195 0.01078 0.7348 0.0
O315 O 0.91673 0.8764 0.75015 0.0
O316 O 0.007 0.83862 0.73558 0.0
O317 O 0.02927 0.90587 0.6835 0.0
O318 O 0.12816 0.88302 0.6837 0.0
O319 O 0.03613 0.86973 0.81933 0.0
O320 O 0.05979 0.83931 0.76824 0.0
O321 O 0.08679 0.94501 0.77274 0.0
O322 O 0.01146 0.93833 0.81776 0.0
O323 O 0.89971 0.87589 0.85886 0.0
O324 O 0.87075 0.93445 0.83366 0.0
O325 O 0.00597 0.9487 0.73171 0.0
O326 O 0.91969 0.94652 0.77132 0.0
C327 C 0.94438 0.84489 0.7332 0.0
C328 C 0.07283 0.84449 0.80067 0.0
C329 C 0.06335 0.86432 0.63624 0.0
C330 C 0.07464 0.84784 0.57551 0.0
C331 C 0.00742 0.80214 0.61222 0.0
C332 C 0.02286 0.82798 0.64036 0.0
C333 C 0.03282 0.81209 0.57988 0.0
C334 C 0.08944 0.87398 0.60386 0.0
C335 C 0.07821 0.89305 0.66509 0.0
C336 C 0.33692 0.92842 0.76516 0.0
C337 C 0.33978 0.88315 0.76743 0.0
H338 H 0.31787 0.01391 0.75288 0.0
C339 C 0.06168 0.95664 0.80226 0.0
C340 C 0.95202 0.96409 0.74527 0.0
C341 C 0.89115 0.93772 0.89351 0.0
C342 C 0.89532 0.94439 0.95602 0.0
C343 C 0.94861 0.99808 0.91963 0.0
C344 C 0.92835 0.9758 0.89056 0.0
C345 C 0.93231 0.98257 0.95211 0.0
C346 C 0.87466 0.92206 0.92642 0.0
C347 C 0.87241 0.91323 0.86248 0.0
H348 H 0.97579 0.77428 0.61549 0.0
H349 H 0.00313 0.81973 0.66521 0.0
H350 H 0.0207 0.7915 0.5584 0.0
H351 H 0.12068 0.90212 0.60065 0.0
H352 H 0.97731 0.02741 0.91696 0.0
H353 H 0.94215 0.98815 0.86574 0.0
H354 H 0.9484 1.00065 0.97428 0.0
H355 H 0.84717 0.89217 0.92895 0.0
C356 C 0.73469 0.65926 0.28345 0.0
C357 C 0.73396 0.73777 0.28722 0.0
C358 C 0.70186 0.69749 0.29048 0.0
C359 C 0.79938 0.73914 0.27708 0.0
C360 C 0.80029 0.6606 0.27316 0.0
C361 C 0.83244 0.7007 0.27011 0.0
N362 N 0.70206 0.62091 0.28592 0.0
C363 C 0.73235 0.58274 0.27929 0.0
C364 C 0.83154 0.62158 0.26597 0.0
C365 C 0.79744 0.58251 0.26912 0.0
Gd366 Gd 0.44914 0.61671 0.23516 0.0
Gd367 Gd 0.59392 0.62527 0.3038 0.0
N368 N 0.63784 0.69531 0.29912 0.0
C369 C 0.6991 0.77553 0.29387 0.0
C370 C 0.60431 0.73187 0.30687 0.0
C371 C 0.63413 0.77252 0.30393 0.0
H372 H 0.55476 0.72995 0.31549 0.0
H373 H 0.60709 0.80152 0.30961 0.0
H374 H 0.48068 0.51038 0.22864 0.0
H375 H 0.7068 0.55232 0.28242 0.0
H376 H 0.42538 0.44078 0.23999 0.0
H377 H 0.72196 0.8071 0.29152 0.0
H378 H 0.82478 0.76981 0.27439 0.0
H379 H 0.33798 0.69376 0.24623 0.0
H380 H 0.88195 0.62127 0.25802 0.0
H381 H 0.82137 0.55218 0.26388 0.0
H382 H 0.21006 0.48136 0.27369 0.0
H383 H 0.88284 0.70234 0.26221 0.0
H384 H 0.15982 0.63257 0.27692 0.0
H385 H 0.22343 0.69913 0.26459 0.0
N386 N 0.33963 0.6252 0.24964 0.0
C387 C 0.3052 0.58817 0.25544 0.0
C388 C 0.31091 0.66466 0.25228 0.0
C389 C 0.21014 0.63007 0.26911 0.0
C390 C 0.24592 0.66773 0.26227 0.0
C391 C 0.23955 0.58963 0.26556 0.0
H392 H 0.15522 0.55133 0.28004 0.0
N393 N 0.40021 0.54844 0.24317 0.0
C394 C 0.33613 0.54862 0.2518 0.0
C395 C 0.33513 0.47049 0.2544 0.0
C396 C 0.3022 0.50964 0.25825 0.0
C397 C 0.43155 0.51041 0.23774 0.0
C398 C 0.39989 0.47089 0.24374 0.0
O399 O 0.60924 0.65625 0.25112 0.0
O400 O 0.50799 0.6785 0.23438 0.0
O401 O 0.4603 0.59312 0.1833 0.0
O402 O 0.39108 0.64358 0.19393 0.0
O403 O 0.49707 0.65598 0.3169 0.0
O404 O 0.45337 0.67824 0.26546 0.0
O405 O 0.43199 0.58778 0.28807 0.0
O406 O 0.53172 0.56481 0.30662 0.0
O407 O 0.58646 0.64518 0.35688 0.0
O408 O 0.65827 0.59813 0.34216 0.0
O409 O 0.54779 0.58826 0.22356 0.0
O410 O 0.58883 0.56267 0.2744 0.0
C411 C 0.57149 0.68289 0.23412 0.0
C412 C 0.45609 0.67955 0.29906 0.0
C413 C 0.44428 0.64554 0.14061 0.0
C414 C 0.44135 0.66124 0.07947 0.0
C415 C 0.52099 0.69681 0.11577 0.0
C416 C 0.49661 0.67443 0.14413 0.0
C417 C 0.49375 0.69016 0.08353 0.0
C418 C 0.41653 0.63906 0.10824 0.0
C419 C 0.42004 0.62111 0.17038 0.0
C420 C 0.23686 0.51098 0.26848 0.0
C421 C 0.20561 0.55084 0.27209 0.0
H422 H 0.31082 0.43983 0.25919 0.0
C423 C 0.46809 0.5637 0.3081 0.0
C424 C 0.58149 0.55988 0.24102 0.0
C425 C 0.61347 0.59229 0.3976 0.0
C426 C 0.61511 0.58166 0.45952 0.0
C427 C 0.55789 0.53051 0.42296 0.0
C428 C 0.5763 0.55439 0.39411 0.0
C429 C 0.57706 0.54401 0.4555 0.0
C430 C 0.63276 0.6059 0.43032 0.0
C431 C 0.63079 0.61844 0.3674 0.0
H432 H 0.56139 0.71909 0.11877 0.0
H433 H 0.51899 0.6793 0.16869 0.0
H434 H 0.51349 0.70765 0.06174 0.0
H435 H 0.37681 0.61616 0.10532 0.0
H436 H 0.52893 0.50137 0.42009 0.0
H437 H 0.56168 0.54335 0.36911 0.0
H438 H 0.56292 0.52467 0.47752 0.0
H439 H 0.66079 0.63552 0.43303 0.0
C440 C 0.15215 0.95264 0.33025 0.0
C441 C 0.16974 0.95874 0.36478 0.0
C442 C 0.13067 0.98725 0.30994 0.0
C443 C 0.12527 0.02911 0.32354 0.0
H444 H 0.1531 0.92063 0.31908 0.0
H445 H 0.11564 0.98077 0.2839 0.0
S446 S 0.17312 0.06357 0.41088 0.0
N447 N 0.1867 0.01099 0.4104 0.0
N448 N 0.14458 0.07563 0.37259 0.0
C449 C 0.14504 0.03602 0.35754 0.0
C450 C 0.16758 1.00096 0.37807 0.0
C451 C 0.42931 0.5453 0.87352 0.0
C452 C 0.37205 0.56684 0.86404 0.0
C453 C 0.45208 0.50979 0.85526 0.0
C454 C 0.42117 0.49527 0.82532 0.0
H455 H 0.45774 0.55592 0.89523 0.0
H456 H 0.49523 0.49409 0.86472 0.0
S457 S 0.26933 0.53954 0.78872 0.0
N458 N 0.28244 0.56884 0.8233 0.0
N459 N 0.33047 0.50551 0.78651 0.0
C460 C 0.36479 0.51694 0.81475 0.0
C461 C 0.33926 0.55192 0.83453 0.0
C462 C 0.62102 0.56407 0.7067 0.0
C463 C 0.66657 0.55345 0.68132 0.0
C464 C 0.58985 0.53155 0.72599 0.0
C465 C 0.60309 0.48761 0.72022 0.0
H466 H 0.6077 0.59751 0.71075 0.0
H467 H 0.55387 0.54074 0.74482 0.0
S468 S 0.72726 0.44396 0.66141 0.0
N469 N 0.72926 0.49671 0.65448 0.0
N470 N 0.67088 0.43568 0.69089 0.0
C471 C 0.6511 0.47688 0.69633 0.0
C472 C 0.6829 0.50985 0.67684 0.0
C473 C 0.84931 0.99991 0.18996 0.0
C474 C 0.88199 0.96196 0.18073 0.0
C475 C 0.8804 0.03217 0.20939 0.0
C476 C 0.94529 0.02755 0.2201 0.0
H477 H 0.79999 1.00511 0.1814 0.0
H478 H 0.85393 0.06136 0.21526 0.0
S479 S 0.04993 0.93233 0.20395 0.0
N480 N 0.98098 0.9205 0.18451 0.0
N481 N 0.03941 0.98031 0.22146 0.0
C482 C 0.97748 0.98887 0.21179 0.0
C483 C 0.94585 0.9563 0.19196 0.0
C484 C 0.93677 0.05678 0.68187 0.0
C485 C 0.8706 0.0673 0.68326 0.0
C486 C 0.96286 0.02497 0.70322 0.0
C487 C 0.92421 1.00227 0.72723 0.0
H488 H 0.96889 0.07309 0.66392 0.0
H489 H 0.0138 0.01764 0.7002 0.0
S490 S 0.74858 0.01996 0.74296 0.0
N491 N 0.76702 0.05365 0.71146 0.0
N492 N 0.81684 0.9953 0.75277 0.0
C493 C 0.85856 0.0141 0.73016 0.0
C494 C 0.83159 0.04615 0.70791 0.0
C495 C 0.65602 0.49565 0.16853 0.0
C496 C 0.66039 0.45356 0.18225 0.0
C497 C 0.63162 0.52996 0.18797 0.0
C498 C 0.61159 0.52377 0.22209 0.0
H499 H 0.67171 0.50224 0.14253 0.0
H500 H 0.62848 0.56165 0.17614 0.0
S501 S 0.60922 0.41978 0.26971 0.0
N502 N 0.63917 0.40741 0.23178 0.0
N503 N 0.59587 0.47237 0.26859 0.0
C504 C 0.61622 0.48211 0.23634 0.0
C505 C 0.63993 0.44692 0.21636 0.0
C506 C 0.43367 0.46211 0.36104 0.0
C507 C 0.37237 0.47058 0.37522 0.0
C508 C 0.4646 0.49241 0.33942 0.0
C509 C 0.43506 0.53206 0.33112 0.0
H510 H 0.45787 0.43197 0.36682 0.0
H511 H 0.51177 0.48459 0.32896 0.0
S512 S 0.27384 0.56882 0.36149 0.0
N513 N 0.28277 0.52068 0.37932 0.0
N514 N 0.34041 0.57765 0.33883 0.0
C515 C 0.37332 0.54049 0.34498 0.0
C516 C 0.34216 0.50978 0.36705 0.0
C517 C 0.18604 0.02775 0.8466 0.0
C518 C 0.14863 0.06338 0.85666 0.0
C519 C 0.15805 0.99355 0.828 0.0
C520 C 0.09189 0.99407 0.81926 0.0
H521 H 0.23647 0.02565 0.85418 0.0
H522 H 0.18763 0.96594 0.82146 0.0
S523 S 0.97627 0.08288 0.8354 0.0
N524 N 0.04412 0.09888 0.85414 0.0
N525 N 0.99219 0.03538 0.81815 0.0
C526 C 0.05518 0.0306 0.82755 0.0
C527 C 0.08342 0.06511 0.8466 0.0
C528 C 0.09739 0.11202 0.98424 0.0
C529 C 0.16275 0.1196 0.97534 0.0
C530 C 0.07917 0.10244 1.01804 0.0
C531 C 0.12555 0.09996 0.04437 0.0
H532 H 0.06007 0.11272 0.96474 0.0
H533 H 0.02834 0.09637 0.02351 0.0
S534 S 0.30317 0.11694 0.03451 0.0
N535 N 0.27393 0.12436 0.9956 0.0
N536 N 0.23986 0.10609 0.05917 0.0
C537 C 0.19092 0.10856 0.036 0.0
C538 C 0.20946 0.11845 1.0015 0.0
C539 C 0.36392 0.42944 0.51132 0.0
C540 C 0.30544 0.42307 0.49327 0.0
C541 C 0.36403 0.4379 0.54673 0.0
C542 C 0.30561 0.44083 0.56526 0.0
H543 H 0.40993 0.42822 0.49791 0.0
H544 H 0.40996 0.44374 0.55941 0.0
S545 S 0.13963 0.42572 0.53048 0.0
N546 N 0.18771 0.41958 0.49702 0.0
N547 N 0.18808 0.43512 0.56329 0.0
C548 C 0.24704 0.43356 0.5477 0.0
C549 C 0.2469 0.42475 0.51181 0.0
C550 C 0.60322 0.37166 0.06149 0.0
C551 C 0.66959 0.37511 0.06949 0.0
C552 C 0.58255 0.36435 0.02774 0.0
C553 C 0.62744 0.36096 1.00067 0.0
H554 H 0.56708 0.3735 0.08161 0.0
H555 H 0.53102 0.36116 0.02279 0.0
S556 S 0.80647 0.36957 1.00789 0.0
N557 N 0.77997 0.37593 0.04749 0.0
N558 N 0.74111 0.36253 0.98407 0.0
C559 C 0.69381 0.36545 1.00821 0.0
C560 C 0.71488 0.37236 0.04261 0.0
C561 C 0.83215 0.14709 0.53908 0.0
C562 C 0.87289 0.13782 0.56706 0.0
C563 C 0.85752 0.15321 0.50598 0.0
C564 C 0.92464 0.1507 0.49969 0.0
H565 H 0.78028 0.15002 0.54286 0.0
H566 H 0.82458 0.16123 0.48536 0.0
S567 S 0.05192 0.12551 0.56366 0.0
N568 N 0.98376 0.12564 0.58593 0.0
N569 N 0.03095 0.13604 0.52373 0.0
C570 C 0.96566 0.14031 0.52722 0.0
C571 C 0.93994 0.13411 0.56085 0.0
C572 C 0.91538 0.91759 0.05046 0.0
C573 C 0.85158 0.9087 0.0615 0.0
C574 C 0.92921 0.9272 1.0161 0.0
C575 C 0.87986 0.92844 0.99123 0.0
H576 H 0.95493 0.91793 0.06871 0.0
H577 H 0.97897 0.93463 1.00906 0.0
S578 S 0.70486 0.90671 1.00659 0.0
N579 N 0.73867 0.90068 0.04461 0.0
N580 N 0.76468 0.91889 0.97995 0.0
C581 C 0.81615 0.91808 1.00162 0.0
C582 C 0.80202 0.90821 0.03674 0.0
C583 C 0.60972 0.60481 0.55482 0.0
C584 C 0.6752 0.61277 0.56299 0.0
C585 C 0.59053 0.59615 0.52114 0.0
C586 C 0.63607 0.59512 0.49429 0.0
H587 H 0.57312 0.60446 0.57478 0.0
H588 H 0.5397 0.58955 0.51616 0.0
S589 S 0.81346 0.61403 0.50211 0.0
N590 N 0.78553 0.61965 0.5415 0.0
N591 N 0.74952 0.60328 0.47807 0.0
C592 C 0.70146 0.60428 0.50192 0.0
C593 C 0.72101 0.61315 0.53629 0.0
C594 C 0.43282 0.63656 0.98469 0.0
C595 C 0.367 0.64312 0.97693 0.0
C596 C 0.45615 0.64193 1.01805 0.0
C597 C 0.41437 0.65355 0.04492 0.0
H598 H 0.46693 0.6284 0.96462 0.0
H599 H 0.5074 0.63725 0.02283 0.0
S600 S 0.23738 0.67246 0.03836 0.0
N601 N 0.25992 0.66036 0.99894 0.0
N602 N 0.30387 0.67034 0.06186 0.0
C603 C 0.34815 0.65907 0.03774 0.0
C604 C 0.32446 0.654 1.00365 0.0
C605 C 0.08842 0.87143 0.48016 0.0
C606 C 0.1559 0.87417 0.475 0.0
C607 C 0.06242 0.86294 0.51277 0.0
C608 C 0.103 0.85766 0.5414 0.0
H609 H 0.0556 0.87487 0.4587 0.0
H610 H 0.01021 0.86056 0.51566 0.0
S611 S 0.28282 0.8632 0.54155 0.0
N612 N 0.26265 0.87183 0.5012 0.0
N613 N 0.21381 0.8563 0.56253 0.0
C614 C 0.17046 0.86116 0.53665 0.0
C615 C 0.1969 0.86925 0.50343 0.0
C616 C 0.23574 0.23676 0.35284 0.0
C617 C 0.20878 0.27385 0.36773 0.0
C618 C 0.19787 0.20778 0.33381 0.0
C619 C 0.13107 0.21454 0.32859 0.0
H620 H 0.28671 0.22965 0.35637 0.0
H621 H 0.22136 0.1794 0.32356 0.0
S622 S 0.03568 0.30611 0.36303 0.0
N623 N 0.11001 0.31484 0.37732 0.0
N624 N 0.03938 0.26149 0.34002 0.0
C625 C 0.10317 0.25155 0.34334 0.0
C626 C 0.14173 0.2808 0.36335 0.0
C627 C 0.42359 0.22647 0.83945 0.0
C628 C 0.36963 0.23253 0.86107 0.0
C629 C 0.45362 0.26151 0.82259 0.0
C630 C 0.43058 0.30387 0.82657 0.0
H631 H 0.44325 0.19441 0.83582 0.0
H632 H 0.49491 0.25537 0.80614 0.0
S633 S 0.29429 0.33782 0.88206 0.0
N634 N 0.2969 0.28472 0.88688 0.0
N635 N 0.35284 0.35041 0.85476 0.0
C636 C 0.37718 0.31055 0.84823 0.0
C637 C 0.34698 0.27496 0.86567 0.0
C638 C 0.69585 0.25098 0.72533 0.0
C639 C 0.7173 0.25992 0.69186 0.0
C640 C 0.64876 0.27672 0.74103 0.0
C641 C 0.62227 0.31275 0.72406 0.0
H642 H 0.71659 0.22441 0.73967 0.0
H643 H 0.63419 0.26887 0.767 0.0
S644 S 0.65258 0.34349 0.63324 0.0
N645 N 0.70129 0.30225 0.6402 0.0
N646 N 0.6142 0.35162 0.66977 0.0
C647 C 0.6399 0.31985 0.68956 0.0
C648 C 0.68719 0.29322 0.67349 0.0
C649 C 0.90873 0.25451 0.17181 0.0
C650 C 0.89098 0.29329 0.18783 0.0
C651 C 0.9365 0.22056 0.1905 0.0
C652 C 0.94677 0.22385 0.22606 0.0
H653 H 0.90132 0.25047 0.14455 0.0
H654 H 0.94962 0.19142 0.17689 0.0
S655 S 0.90689 0.31868 0.28011 0.0
N656 N 0.88376 0.33289 0.24123 0.0
N657 N 0.93671 0.26947 0.27647 0.0
C658 C 0.92837 0.26241 0.24244 0.0
C659 C 0.90008 0.29694 0.22333 0.0
C660 C 0.80416 0.79879 0.68223 0.0
C661 C 0.81461 0.75387 0.6838 0.0
C662 C 0.8476 0.82811 0.69734 0.0
C663 C 0.90318 0.81362 0.71454 0.0
H664 H 0.76094 0.81134 0.67011 0.0
H665 H 0.83681 0.86235 0.69623 0.0
S666 S 0.95263 0.69954 0.72673 0.0
N667 N 0.88429 0.69637 0.70482 0.0
N668 N 0.96704 0.75169 0.73216 0.0
C669 C 0.91529 0.76897 0.71564 0.0
C670 C 0.87048 0.73901 0.70076 0.0
C671 C 0.6953 0.75689 0.18969 0.0
C672 C 0.65868 0.79392 0.18162 0.0
C673 C 0.66693 0.72123 0.20674 0.0
C674 C 0.60089 0.72104 0.21623 0.0
H675 H 0.74608 0.75518 0.18273 0.0
H676 H 0.69692 0.69342 0.21216 0.0
S677 S 0.48409 0.80993 0.20043 0.0
N678 N 0.55307 0.82784 0.1839 0.0
N679 N 0.49994 0.76149 0.21608 0.0
C680 C 0.56391 0.75783 0.20812 0.0
C681 C 0.59274 0.79396 0.1908 0.0
C682 C 0.33873 0.77088 0.31569 0.0
C683 C 0.31354 0.76053 0.34817 0.0
C684 C 0.38635 0.74521 0.30045 0.0
C685 C 0.41074 0.70838 0.31722 0.0
H686 H 0.32057 0.79861 0.30173 0.0
H687 H 0.40354 0.75399 0.27511 0.0
S688 S 0.36455 0.66973 0.40406 0.0
N689 N 0.31941 0.71297 0.39774 0.0
N690 N 0.40875 0.66438 0.36904 0.0
C691 C 0.388 0.69882 0.3504 0.0
C692 C 0.33942 0.72499 0.3659 0.0
C693 C 0.14406 0.73621 0.82492 0.0
C694 C 0.17296 0.74481 0.85673 0.0
C695 C 0.11418 0.76914 0.80617 0.0
C696 C 0.11283 0.81192 0.8184 0.0
H697 H 0.14243 0.70351 0.81504 0.0
H698 H 0.08926 0.76051 0.78275 0.0
S699 S 0.18812 0.85191 0.89843 0.0
N700 N 0.20314 0.79945 0.89843 0.0
N701 N 0.14723 0.86168 0.86292 0.0
C702 C 0.14442 0.82131 0.84933 0.0
C703 C 0.1747 0.78769 0.86849 0.0
loop_
_geom_bond_atom_site_label_1
_geom_bond_atom_site_label_2
_geom_bond_distance
_geom_bond_site_symmetry_2
_ccdc_geom_bond_type
H0 C7 0.929 . S
H1 C10 0.930 . S
H2 C12 0.929 . S
H3 C4 0.969 . S
C4 H3 0.969 . S
C4 O5 1.550 . S
C4 H6 0.973 . S
O5 C4 1.550 . S
O5 C11 1.412 . S
H6 C4 0.973 . S
C7 H0 0.929 . S
C7 C8 1.400 . S
C7 C9 1.364 . S
C8 C7 1.400 . S
C8 C12 1.377 . S
C9 C7 1.364 . S
C9 C10 1.374 . S
C10 H1 0.930 . S
C10 C9 1.374 . S
C10 C11 1.383 . S
C11 O5 1.412 . S
C11 C10 1.383 . S
C11 C12 1.394 . S
C12 H2 0.929 . S
C12 C8 1.377 . S
C12 C11 1.394 . S
H13 C20 0.929 . S
H14 C23 0.930 . S
H15 C25 0.929 . S
H16 C17 0.969 . S
C17 H16 0.969 . S
C17 O18 1.550 . S
C17 H19 0.973 . S
O18 C17 1.550 . S
O18 C24 1.412 . S
H19 C17 0.973 . S
C20 H13 0.929 . S
C20 C21 1.400 . S
C20 C22 1.364 . S
C21 C20 1.400 . S
C21 C25 1.377 . S
C22 C20 1.364 . S
C22 C23 1.374 . S
C23 H14 0.930 . S
C23 C22 1.374 . S
C23 C24 1.383 . S
C24 O18 1.412 . S
C24 C23 1.383 . S
C24 C25 1.394 . S
C25 H15 0.929 . S
C25 C21 1.377 . S
C25 C24 1.394 . S
H26 C33 0.929 . S
H27 C36 0.930 . S
H28 C38 0.929 . S
H29 C30 0.969 . S
C30 H29 0.969 . S
C30 O31 1.550 . S
C30 H32 0.973 . S
O31 C30 1.550 . S
O31 C37 1.412 . S
H32 C30 0.973 . S
C33 H26 0.929 . S
C33 C34 1.400 . S
C33 C35 1.364 . S
C34 C33 1.400 . S
C34 C38 1.377 . S
C35 C33 1.364 . S
C35 C36 1.374 . S
C36 H27 0.930 . S
C36 C35 1.374 . S
C36 C37 1.383 . S
C37 O31 1.412 . S
C37 C36 1.383 . S
C37 C38 1.394 . S
C38 H28 0.929 . S
C38 C34 1.377 . S
C38 C37 1.394 . S
H39 C46 0.929 . S
H40 C49 0.930 . S
H41 C51 0.929 . S
H42 C43 0.969 . S
C43 H42 0.969 . S
C43 O44 1.550 . S
C43 H45 0.973 . S
O44 C43 1.550 . S
O44 C50 1.412 . S
H45 C43 0.973 . S
C46 H39 0.929 . S
C46 C47 1.400 . S
C46 C48 1.364 . S
C47 C46 1.400 . S
C47 C51 1.377 . S
C48 C46 1.364 . S
C48 C49 1.374 . S
C49 H40 0.930 . S
C49 C48 1.374 . S
C49 C50 1.383 . S
C50 O44 1.412 . S
C50 C49 1.383 . S
C50 C51 1.394 . S
C51 H41 0.929 . S
C51 C47 1.377 . S
C51 C50 1.394 . S
H52 C59 0.929 . S
H53 C62 0.930 . S
H54 C64 0.929 . S
H55 C56 0.969 . S
C56 H55 0.969 . S
C56 O57 1.550 . S
C56 H58 0.973 . S
O57 C56 1.550 . S
O57 C63 1.412 . S
H58 C56 0.973 . S
C59 H52 0.929 . S
C59 C60 1.400 . S
C59 C61 1.364 . S
C60 C59 1.400 . S
C60 C64 1.377 . S
C61 C59 1.364 . S
C61 C62 1.374 . S
C62 H53 0.930 . S
C62 C61 1.374 . S
C62 C63 1.383 . S
C63 O57 1.412 . S
C63 C62 1.383 . S
C63 C64 1.394 . S
C64 H54 0.929 . S
C64 C60 1.377 . S
C64 C63 1.394 . S
H65 C72 0.929 . S
H66 C75 0.930 . S
H67 C77 0.929 . S
H68 C69 0.969 . S
C69 H68 0.969 . S
C69 O70 1.550 . S
C69 H71 0.973 . S
O70 C69 1.550 . S
O70 C76 1.412 . S
H71 C69 0.973 . S
C72 H65 0.929 . S
C72 C73 1.400 . S
C72 C74 1.364 . S
C73 C72 1.400 . S
C73 C77 1.377 . S
C74 C72 1.364 . S
C74 C75 1.374 . S
C75 H66 0.930 . S
C75 C74 1.374 . S
C75 C76 1.383 . S
C76 O70 1.412 . S
C76 C75 1.383 . S
C76 C77 1.394 . S
C77 H67 0.929 . S
C77 C73 1.377 . S
C77 C76 1.394 . S
H78 C85 0.929 . S
H79 C88 0.930 . S
H80 C90 0.929 . S
H81 C82 0.969 . S
C82 H81 0.969 . S
C82 O83 1.550 . S
C82 H84 0.973 . S
O83 C82 1.550 . S
O83 C89 1.412 . S
H84 C82 0.973 . S
C85 H78 0.929 . S
C85 C86 1.400 . S
C85 C87 1.364 . S
C86 C85 1.400 . S
C86 C90 1.377 . S
C87 C85 1.364 . S
C87 C88 1.374 . S
C88 H79 0.930 . S
C88 C87 1.374 . S
C88 C89 1.383 . S
C89 O83 1.412 . S
C89 C88 1.383 . S
C89 C90 1.394 . S
C90 H80 0.929 . S
C90 C86 1.377 . S
C90 C89 1.394 . S
H91 C98 0.929 . S
H92 C101 0.930 . S
H93 C103 0.929 . S
H94 C95 0.969 . S
C95 H94 0.969 . S
C95 O96 1.550 . S
C95 H97 0.973 . S
O96 C95 1.550 . S
O96 C102 1.412 . S
H97 C95 0.973 . S
C98 H91 0.929 . S
C98 C99 1.400 . S
C98 C100 1.364 . S
C99 C98 1.400 . S
C99 C103 1.377 . S
C100 C98 1.364 . S
C100 C101 1.374 . S
C101 H92 0.930 . S
C101 C100 1.374 . S
C101 C102 1.383 . S
C102 O96 1.412 . S
C102 C101 1.383 . S
C102 C103 1.394 . S
C103 H93 0.929 . S
C103 C99 1.377 . S
C103 C102 1.394 . S
C104 C106 1.422 . S
C104 C108 1.415 . S
C104 N110 1.369 . S
C105 C106 1.421 1_565 S
C105 C107 1.417 . S
C105 C117 1.422 . S
C106 C104 1.422 . S
C106 C105 1.421 1_545 S
C106 N116 1.359 . S
C107 C105 1.417 . S
C107 C109 1.329 1_565 S
C107 H126 0.930 . S
C108 C104 1.415 . S
C108 C109 1.437 . S
C108 C112 1.413 . S
C109 C107 1.329 1_545 S
C109 C108 1.437 . S
C109 H131 0.929 . S
N110 C104 1.369 . S
N110 C111 1.338 . S
N110 Gd115 2.622 . S
C111 N110 1.338 . S
C111 C113 1.378 . S
C111 H123 0.929 . S
C112 C108 1.413 . S
C112 C113 1.348 . S
C112 H128 0.931 . S
C113 C111 1.378 . S
C113 C112 1.348 . S
C113 H129 0.930 . S
Gd114 N134 2.622 . S
Gd114 N141 2.570 . S
Gd114 O148 2.353 . S
Gd114 O149 2.468 . S
Gd114 O150 2.427 . S
Gd114 O152 2.388 . S
Gd114 O153 2.386 . S
Gd114 O157 2.307 . S
Gd114 C167 2.805 . S
Gd115 N110 2.622 . S
Gd115 N116 2.570 . S
Gd115 O147 2.386 . S
Gd115 O151 2.307 1_655 S
Gd115 O154 2.353 1_655 S
Gd115 O155 2.468 . S
Gd115 O156 2.427 . S
Gd115 O158 2.388 . S
Gd115 C179 2.805 . S
N116 C106 1.359 . S
N116 Gd115 2.570 . S
N116 C118 1.343 1_545 S
C117 C105 1.422 . S
C117 C119 1.321 . S
C117 H125 0.931 . S
C118 N116 1.343 1_565 S
C118 C119 1.390 . S
C118 H120 0.931 . S
C119 C117 1.321 . S
C119 C118 1.390 . S
C119 H121 0.930 . S
H120 C118 0.931 . S
H121 C119 0.930 . S
H122 C145 0.931 . S
H123 C111 0.929 . S
H124 C146 0.930 . S
H125 C117 0.931 . S
H126 C107 0.930 . S
H127 C136 0.929 . S
H128 C112 0.931 . S
H129 C113 0.930 . S
H130 C168 0.930 . S
H131 C109 0.929 . S
H132 C137 0.931 . S
H133 C138 0.930 . S
N134 Gd114 2.622 . S
N134 C135 1.369 . S
N134 C136 1.338 . S
C135 N134 1.369 . S
C135 C139 1.415 . S
C135 C142 1.422 . S
C136 H127 0.929 . S
C136 N134 1.338 . S
C136 C138 1.378 . S
C137 H132 0.931 . S
C137 C138 1.348 . S
C137 C139 1.413 . S
C138 H133 0.930 . S
C138 C136 1.378 . S
C138 C137 1.348 . S
C139 C135 1.415 . S
C139 C137 1.413 . S
C139 C169 1.437 . S
H140 C169 0.929 . S
N141 Gd114 2.570 . S
N141 C142 1.359 . S
N141 C145 1.343 . S
C142 C135 1.422 . S
C142 N141 1.359 . S
C142 C144 1.421 . S
C143 C144 1.422 . S
C143 C146 1.321 . S
C143 H170 0.931 . S
C144 C142 1.421 . S
C144 C143 1.422 . S
C144 C168 1.417 . S
C145 H122 0.931 . S
C145 N141 1.343 . S
C145 C146 1.390 . S
C146 H124 0.930 . S
C146 C143 1.321 . S
C146 C145 1.390 . S
O147 Gd115 2.386 . S
O147 C159 1.265 . S
O148 Gd114 2.353 . S
O148 C159 1.242 1_455 S
O149 Gd114 2.468 . S
O149 C167 1.263 . S
O150 Gd114 2.427 . S
O150 C167 1.252 . S
O151 Gd115 2.307 1_455 S
O151 C160 1.261 . S
O152 Gd114 2.388 . S
O152 C160 1.252 . S
O153 Gd114 2.386 . S
O153 C171 1.265 . S
O154 Gd115 2.353 1_455 S
O154 C171 1.242 . S
O155 Gd115 2.468 . S
O155 C179 1.263 . S
O156 Gd115 2.427 . S
O156 C179 1.252 . S
O157 Gd114 2.307 . S
O157 C172 1.261 1_455 S
O158 Gd115 2.388 . S
O158 C172 1.252 . S
C159 O147 1.265 . S
C159 O148 1.242 1_655 S
C160 O151 1.261 . S
C160 O152 1.252 . S
C161 C164 1.394 . S
C161 C166 1.370 . S
C161 C167 1.500 . S
C162 C165 1.383 . S
C162 C166 1.395 . S
C163 C164 1.396 . S
C163 C165 1.365 . S
C163 H180 0.929 . S
C164 C161 1.394 . S
C164 C163 1.396 . S
C164 H181 0.930 . S
C165 C162 1.383 . S
C165 C163 1.365 . S
C165 H182 0.931 . S
C166 C161 1.370 . S
C166 C162 1.395 . S
C166 H183 0.930 . S
C167 Gd114 2.805 . S
C167 O149 1.263 . S
C167 O150 1.252 . S
C167 C161 1.500 . S
C168 H130 0.930 . S
C168 C144 1.417 . S
C168 C169 1.329 . S
C169 C139 1.437 . S
C169 H140 0.929 . S
C169 C168 1.329 . S
H170 C143 0.931 . S
C171 O153 1.265 . S
C171 O154 1.242 . S
C172 O157 1.261 1_655 S
C172 O158 1.252 . S
C173 C176 1.394 . S
C173 C178 1.370 . S
C173 C179 1.500 . S
C174 C177 1.383 . S
C174 C178 1.395 . S
C175 C176 1.396 . S
C175 C177 1.365 . S
C175 H184 0.929 . S
C176 C173 1.394 . S
C176 C175 1.396 . S
C176 H185 0.930 . S
C177 C174 1.383 . S
C177 C175 1.365 . S
C177 H186 0.931 . S
C178 C173 1.370 . S
C178 C174 1.395 . S
C178 H187 0.930 . S
C179 Gd115 2.805 . S
C179 O155 1.263 . S
C179 O156 1.252 . S
C179 C173 1.500 . S
H180 C163 0.929 . S
H181 C164 0.930 . S
H182 C165 0.931 . S
H183 C166 0.930 . S
H184 C175 0.929 . S
H185 C176 0.930 . S
H186 C177 0.931 . S
H187 C178 0.930 . S
C188 C190 1.422 . S
C188 C192 1.415 . S
C188 N194 1.369 . S
C189 C190 1.421 . S
C189 C191 1.417 . S
C189 C201 1.422 . S
C190 C188 1.422 . S
C190 C189 1.421 . S
C190 N200 1.359 . S
C191 C189 1.417 . S
C191 C193 1.329 . S
C191 H210 0.930 . S
C192 C188 1.415 . S
C192 C193 1.437 . S
C192 C196 1.413 . S
C193 C191 1.329 . S
C193 C192 1.437 . S
C193 H215 0.929 . S
N194 C188 1.369 . S
N194 C195 1.338 . S
N194 Gd199 2.622 . S
C195 N194 1.338 . S
C195 C197 1.378 . S
C195 H207 0.929 . S
C196 C192 1.413 . S
C196 C197 1.348 . S
C196 H212 0.931 . S
C197 C195 1.378 . S
C197 C196 1.348 . S
C197 H213 0.930 . S
Gd198 N218 2.622 . S
Gd198 N225 2.570 . S
Gd198 O232 2.353 . S
Gd198 O233 2.468 . S
Gd198 O234 2.427 . S
Gd198 O236 2.388 . S
Gd198 O237 2.386 . S
Gd198 O241 2.307 . S
Gd198 C251 2.805 . S
Gd199 N194 2.622 . S
Gd199 N200 2.570 . S
Gd199 O231 2.386 . S
Gd199 O235 2.307 . S
Gd199 O238 2.353 . S
Gd199 O239 2.468 . S
Gd199 O240 2.427 . S
Gd199 O242 2.388 . S
Gd199 C263 2.805 . S
N200 C190 1.359 . S
N200 Gd199 2.570 . S
N200 C202 1.343 . S
C201 C189 1.422 . S
C201 C203 1.321 . S
C201 H209 0.931 . S
C202 N200 1.343 . S
C202 C203 1.390 . S
C202 H204 0.931 . S
C203 C201 1.321 . S
C203 C202 1.390 . S
C203 H205 0.930 . S
H204 C202 0.931 . S
H205 C203 0.930 . S
H206 C229 0.931 . S
H207 C195 0.929 . S
H208 C230 0.930 . S
H209 C201 0.931 . S
H210 C191 0.930 . S
H211 C220 0.929 . S
H212 C196 0.931 . S
H213 C197 0.930 . S
H214 C252 0.930 . S
H215 C193 0.929 . S
H216 C221 0.931 . S
H217 C222 0.930 . S
N218 Gd198 2.622 . S
N218 C219 1.369 . S
N218 C220 1.338 . S
C219 N218 1.369 . S
C219 C223 1.415 . S
C219 C226 1.422 . S
C220 H211 0.929 . S
C220 N218 1.338 . S
C220 C222 1.378 . S
C221 H216 0.931 . S
C221 C222 1.348 . S
C221 C223 1.413 . S
C222 H217 0.930 . S
C222 C220 1.378 . S
C222 C221 1.348 . S
C223 C219 1.415 . S
C223 C221 1.413 . S
C223 C253 1.437 . S
H224 C253 0.929 . S
N225 Gd198 2.570 . S
N225 C226 1.359 . S
N225 C229 1.343 . S
C226 C219 1.422 . S
C226 N225 1.359 . S
C226 C228 1.421 . S
C227 C228 1.422 . S
C227 C230 1.321 . S
C227 H254 0.931 . S
C228 C226 1.421 . S
C228 C227 1.422 . S
C228 C252 1.417 . S
C229 H206 0.931 . S
C229 N225 1.343 . S
C229 C230 1.390 . S
C230 H208 0.930 . S
C230 C227 1.321 . S
C230 C229 1.390 . S
O231 Gd199 2.386 . S
O231 C243 1.265 . S
O232 Gd198 2.353 . S
O232 C243 1.242 . S
O233 Gd198 2.468 . S
O233 C251 1.263 . S
O234 Gd198 2.427 . S
O234 C251 1.252 . S
O235 Gd199 2.307 . S
O235 C244 1.261 . S
O236 Gd198 2.388 . S
O236 C244 1.252 . S
O237 Gd198 2.386 . S
O237 C255 1.265 . S
O238 Gd199 2.353 . S
O238 C255 1.242 . S
O239 Gd199 2.468 . S
O239 C263 1.263 . S
O240 Gd199 2.427 . S
O240 C263 1.252 . S
O241 Gd198 2.307 . S
O241 C256 1.261 . S
O242 Gd199 2.388 . S
O242 C256 1.252 . S
C243 O231 1.265 . S
C243 O232 1.242 . S
C244 O235 1.261 . S
C244 O236 1.252 . S
C245 C248 1.394 . S
C245 C250 1.370 . S
C245 C251 1.500 . S
C246 C249 1.383 . S
C246 C250 1.395 . S
C247 C248 1.396 . S
C247 C249 1.365 . S
C247 H264 0.929 . S
C248 C245 1.394 . S
C248 C247 1.396 . S
C248 H265 0.930 . S
C249 C246 1.383 . S
C249 C247 1.365 . S
C249 H266 0.931 . S
C250 C245 1.370 . S
C250 C246 1.395 . S
C250 H267 0.930 . S
C251 Gd198 2.805 . S
C251 O233 1.263 . S
C251 O234 1.252 . S
C251 C245 1.500 . S
C252 H214 0.930 . S
C252 C228 1.417 . S
C252 C253 1.329 . S
C253 C223 1.437 . S
C253 H224 0.929 . S
C253 C252 1.329 . S
H254 C227 0.931 . S
C255 O237 1.265 . S
C255 O238 1.242 . S
C256 O241 1.261 . S
C256 O242 1.252 . S
C257 C260 1.394 . S
C257 C262 1.370 . S
C257 C263 1.500 . S
C258 C261 1.383 . S
C258 C262 1.395 . S
C259 C260 1.396 . S
C259 C261 1.365 . S
C259 H268 0.929 . S
C260 C257 1.394 . S
C260 C259 1.396 . S
C260 H269 0.930 . S
C261 C258 1.383 . S
C261 C259 1.365 . S
C261 H270 0.931 . S
C262 C257 1.370 . S
C262 C258 1.395 . S
C262 H271 0.930 . S
C263 Gd199 2.805 . S
C263 O239 1.263 . S
C263 O240 1.252 . S
C263 C257 1.500 . S
H264 C247 0.929 . S
H265 C248 0.930 . S
H266 C249 0.931 . S
H267 C250 0.930 . S
H268 C259 0.929 . S
H269 C260 0.930 . S
H270 C261 0.931 . S
H271 C262 0.930 . S
C272 C274 1.422 . S
C272 C276 1.415 . S
C272 N278 1.369 . S
C273 C274 1.421 . S
C273 C275 1.417 . S
C273 C285 1.422 . S
C274 C272 1.422 . S
C274 C273 1.421 . S
C274 N284 1.359 . S
C275 C273 1.417 . S
C275 C277 1.329 . S
C275 H294 0.930 . S
C276 C272 1.415 . S
C276 C277 1.437 . S
C276 C280 1.413 . S
C277 C275 1.329 . S
C277 C276 1.437 . S
C277 H299 0.929 . S
N278 C272 1.369 . S
N278 C279 1.338 . S
N278 Gd283 2.622 . S
C279 N278 1.338 . S
C279 C281 1.378 . S
C279 H291 0.929 . S
C280 C276 1.413 . S
C280 C281 1.348 . S
C280 H296 0.931 . S
C281 C279 1.378 . S
C281 C280 1.348 . S
C281 H297 0.930 . S
Gd282 N302 2.622 . S
Gd282 N309 2.570 . S
Gd282 O316 2.353 . S
Gd282 O317 2.468 . S
Gd282 O318 2.427 . S
Gd282 O320 2.388 . S
Gd282 O321 2.386 . S
Gd282 O325 2.307 . S
Gd282 C335 2.805 . S
Gd283 N278 2.622 . S
Gd283 N284 2.570 . S
Gd283 O315 2.386 . S
Gd283 O319 2.307 1_655 S
Gd283 O322 2.353 1_655 S
Gd283 O323 2.468 . S
Gd283 O324 2.427 . S
Gd283 O326 2.388 . S
Gd283 C347 2.805 . S
N284 C274 1.359 . S
N284 Gd283 2.570 . S
N284 C286 1.343 . S
C285 C273 1.422 . S
C285 C287 1.321 . S
C285 H293 0.931 . S
C286 N284 1.343 . S
C286 C287 1.390 . S
C286 H288 0.931 . S
C287 C285 1.321 . S
C287 C286 1.390 . S
C287 H289 0.930 . S
H288 C286 0.931 . S
H289 C287 0.930 . S
H290 C313 0.931 . S
H291 C279 0.929 . S
H292 C314 0.930 . S
H293 C285 0.931 . S
H294 C275 0.930 . S
H295 C304 0.929 . S
H296 C280 0.931 . S
H297 C281 0.930 . S
H298 C336 0.930 . S
H299 C277 0.929 . S
H300 C305 0.931 . S
H301 C306 0.930 . S
N302 Gd282 2.622 . S
N302 C303 1.369 . S
N302 C304 1.338 . S
C303 N302 1.369 . S
C303 C307 1.415 . S
C303 C310 1.422 . S
C304 H295 0.929 . S
C304 N302 1.338 . S
C304 C306 1.378 . S
C305 H300 0.931 . S
C305 C306 1.348 . S
C305 C307 1.413 . S
C306 H301 0.930 . S
C306 C304 1.378 . S
C306 C305 1.348 . S
C307 C303 1.415 . S
C307 C305 1.413 . S
C307 C337 1.437 . S
H308 C337 0.929 . S
N309 Gd282 2.570 . S
N309 C310 1.359 . S
N309 C313 1.343 1_565 S
C310 C303 1.422 . S
C310 N309 1.359 . S
C310 C312 1.421 1_565 S
C311 C312 1.422 . S
C311 C314 1.321 . S
C311 H338 0.931 . S
C312 C310 1.421 1_545 S
C312 C311 1.422 . S
C312 C336 1.417 . S
C313 H290 0.931 . S
C313 N309 1.343 1_545 S
C313 C314 1.390 . S
C314 H292 0.930 . S
C314 C311 1.321 . S
C314 C313 1.390 . S
O315 Gd283 2.386 . S
O315 C327 1.265 . S
O316 Gd282 2.353 . S
O316 C327 1.242 1_455 S
O317 Gd282 2.468 . S
O317 C335 1.263 . S
O318 Gd282 2.427 . S
O318 C335 1.252 . S
O319 Gd283 2.307 1_455 S
O319 C328 1.261 . S
O320 Gd282 2.388 . S
O320 C328 1.252 . S
O321 Gd282 2.386 . S
O321 C339 1.265 . S
O322 Gd283 2.353 1_455 S
O322 C339 1.242 . S
O323 Gd283 2.468 . S
O323 C347 1.263 . S
O324 Gd283 2.427 . S
O324 C347 1.252 . S
O325 Gd282 2.307 . S
O325 C340 1.261 1_455 S
O326 Gd283 2.388 . S
O326 C340 1.252 . S
C327 O315 1.265 . S
C327 O316 1.242 1_655 S
C328 O319 1.261 . S
C328 O320 1.252 . S
C329 C332 1.394 . S
C329 C334 1.370 . S
C329 C335 1.500 . S
C330 C333 1.383 . S
C330 C334 1.395 . S
C331 C332 1.396 . S
C331 C333 1.365 . S
C331 H348 0.929 . S
C332 C329 1.394 . S
C332 C331 1.396 . S
C332 H349 0.930 . S
C333 C330 1.383 . S
C333 C331 1.365 . S
C333 H350 0.931 . S
C334 C329 1.370 . S
C334 C330 1.395 . S
C334 H351 0.930 . S
C335 Gd282 2.805 . S
C335 O317 1.263 . S
C335 O318 1.252 . S
C335 C329 1.500 . S
C336 H298 0.930 . S
C336 C312 1.417 . S
C336 C337 1.329 1_545 S
C337 C307 1.437 . S
C337 H308 0.929 . S
C337 C336 1.329 1_565 S
H338 C311 0.931 . S
C339 O321 1.265 . S
C339 O322 1.242 . S
C340 O325 1.261 1_655 S
C340 O326 1.252 . S
C341 C344 1.394 . S
C341 C346 1.370 . S
C341 C347 1.500 . S
C342 C345 1.383 . S
C342 C346 1.395 . S
C343 C344 1.396 . S
C343 C345 1.365 . S
C343 H352 0.929 . S
C344 C341 1.394 . S
C344 C343 1.396 . S
C344 H353 0.930 . S
C345 C342 1.383 . S
C345 C343 1.365 . S
C345 H354 0.931 . S
C346 C341 1.370 . S
C346 C342 1.395 . S
C346 H355 0.930 . S
C347 Gd283 2.805 . S
C347 O323 1.263 . S
C347 O324 1.252 . S
C347 C341 1.500 . S
H348 C331 0.929 . S
H349 C332 0.930 . S
H350 C333 0.931 . S
H351 C334 0.930 . S
H352 C343 0.929 . S
H353 C344 0.930 . S
H354 C345 0.931 . S
H355 C346 0.930 . S
C356 C358 1.422 . S
C356 C360 1.415 . S
C356 N362 1.369 . S
C357 C358 1.421 . S
C357 C359 1.417 . S
C357 C369 1.422 . S
C358 C356 1.422 . S
C358 C357 1.421 . S
C358 N368 1.359 . S
C359 C357 1.417 . S
C359 C361 1.329 . S
C359 H378 0.930 . S
C360 C356 1.415 . S
C360 C361 1.437 . S
C360 C364 1.413 . S
C361 C359 1.329 . S
C361 C360 1.437 . S
C361 H383 0.929 . S
N362 C356 1.369 . S
N362 C363 1.338 . S
N362 Gd367 2.622 . S
C363 N362 1.338 . S
C363 C365 1.378 . S
C363 H375 0.929 . S
C364 C360 1.413 . S
C364 C365 1.348 . S
C364 H380 0.931 . S
C365 C363 1.378 . S
C365 C364 1.348 . S
C365 H381 0.930 . S
Gd366 N386 2.622 . S
Gd366 N393 2.570 . S
Gd366 O400 2.353 . S
Gd366 O401 2.468 . S
Gd366 O402 2.427 . S
Gd366 O404 2.388 . S
Gd366 O405 2.386 . S
Gd366 O409 2.307 . S
Gd366 C419 2.805 . S
Gd367 N362 2.622 . S
Gd367 N368 2.570 . S
Gd367 O399 2.386 . S
Gd367 O403 2.307 . S
Gd367 O406 2.353 . S
Gd367 O407 2.468 . S
Gd367 O408 2.427 . S
Gd367 O410 2.388 . S
Gd367 C431 2.805 . S
N368 C358 1.359 . S
N368 Gd367 2.570 . S
N368 C370 1.343 . S
C369 C357 1.422 . S
C369 C371 1.321 . S
C369 H377 0.931 . S
C370 N368 1.343 . S
C370 C371 1.390 . S
C370 H372 0.931 . S
C371 C369 1.321 . S
C371 C370 1.390 . S
C371 H373 0.930 . S
H372 C370 0.931 . S
H373 C371 0.930 . S
H374 C397 0.931 . S
H375 C363 0.929 . S
H376 C398 0.930 . S
H377 C369 0.931 . S
H378 C359 0.930 . S
H379 C388 0.929 . S
H380 C364 0.931 . S
H381 C365 0.930 . S
H382 C420 0.930 . S
H383 C361 0.929 . S
H384 C389 0.931 . S
H385 C390 0.930 . S
N386 Gd366 2.622 . S
N386 C387 1.369 . S
N386 C388 1.338 . S
C387 N386 1.369 . S
C387 C391 1.415 . S
C387 C394 1.422 . S
C388 H379 0.929 . S
C388 N386 1.338 . S
C388 C390 1.378 . S
C389 H384 0.931 . S
C389 C390 1.348 . S
C389 C391 1.413 . S
C390 H385 0.930 . S
C390 C388 1.378 . S
C390 C389 1.348 . S
C391 C387 1.415 . S
C391 C389 1.413 . S
C391 C421 1.437 . S
H392 C421 0.929 . S
N393 Gd366 2.570 . S
N393 C394 1.359 . S
N393 C397 1.343 . S
C394 C387 1.422 . S
C394 N393 1.359 . S
C394 C396 1.421 . S
C395 C396 1.422 . S
C395 C398 1.321 . S
C395 H422 0.931 . S
C396 C394 1.421 . S
C396 C395 1.422 . S
C396 C420 1.417 . S
C397 H374 0.931 . S
C397 N393 1.343 . S
C397 C398 1.390 . S
C398 H376 0.930 . S
C398 C395 1.321 . S
C398 C397 1.390 . S
O399 Gd367 2.386 . S
O399 C411 1.265 . S
O400 Gd366 2.353 . S
O400 C411 1.242 . S
O401 Gd366 2.468 . S
O401 C419 1.263 . S
O402 Gd366 2.427 . S
O402 C419 1.252 . S
O403 Gd367 2.307 . S
O403 C412 1.261 . S
O404 Gd366 2.388 . S
O404 C412 1.252 . S
O405 Gd366 2.386 . S
O405 C423 1.265 . S
O406 Gd367 2.353 . S
O406 C423 1.242 . S
O407 Gd367 2.468 . S
O407 C431 1.263 . S
O408 Gd367 2.427 . S
O408 C431 1.252 . S
O409 Gd366 2.307 . S
O409 C424 1.261 . S
O410 Gd367 2.388 . S
O410 C424 1.252 . S
C411 O399 1.265 . S
C411 O400 1.242 . S
C412 O403 1.261 . S
C412 O404 1.252 . S
C413 C416 1.394 . S
C413 C418 1.370 . S
C413 C419 1.500 . S
C414 C417 1.383 . S
C414 C418 1.395 . S
C415 C416 1.396 . S
C415 C417 1.365 . S
C415 H432 0.929 . S
C416 C413 1.394 . S
C416 C415 1.396 . S
C416 H433 0.930 . S
C417 C414 1.383 . S
C417 C415 1.365 . S
C417 H434 0.931 . S
C418 C413 1.370 . S
C418 C414 1.395 . S
C418 H435 0.930 . S
C419 Gd366 2.805 . S
C419 O401 1.263 . S
C419 O402 1.252 . S
C419 C413 1.500 . S
C420 H382 0.930 . S
C420 C396 1.417 . S
C420 C421 1.329 . S
C421 C391 1.437 . S
C421 H392 0.929 . S
C421 C420 1.329 . S
H422 C395 0.931 . S
C423 O405 1.265 . S
C423 O406 1.242 . S
C424 O409 1.261 . S
C424 O410 1.252 . S
C425 C428 1.394 . S
C425 C430 1.370 . S
C425 C431 1.500 . S
C426 C429 1.383 . S
C426 C430 1.395 . S
C427 C428 1.396 . S
C427 C429 1.365 . S
C427 H436 0.929 . S
C428 C425 1.394 . S
C428 C427 1.396 . S
C428 H437 0.930 . S
C429 C426 1.383 . S
C429 C427 1.365 . S
C429 H438 0.931 . S
C430 C425 1.370 . S
C430 C426 1.395 . S
C430 H439 0.930 . S
C431 Gd367 2.805 . S
C431 O407 1.263 . S
C431 O408 1.252 . S
C431 C425 1.500 . S
H432 C415 0.929 . S
H433 C416 0.930 . S
H434 C417 0.931 . S
H435 C418 0.930 . S
H436 C427 0.929 . S
H437 C428 0.930 . S
H438 C429 0.931 . S
H439 C430 0.930 . S
C440 C441 1.369 . S
C440 C442 1.419 . S
C440 H444 0.930 . S
C441 C440 1.369 . S
C441 C450 1.429 . S
C442 C440 1.419 . S
C442 C443 1.363 1_565 S
C442 H445 0.929 . S
C443 C442 1.363 1_545 S
C443 C449 1.428 . S
H444 C440 0.930 . S
H445 C442 0.929 . S
S446 N447 1.613 1_545 S
S446 N448 1.610 . S
N447 S446 1.613 1_565 S
N447 C450 1.350 . S
N448 S446 1.610 . S
N448 C449 1.351 . S
C449 C443 1.428 . S
C449 N448 1.351 . S
C449 C450 1.434 1_545 S
C450 C441 1.429 . S
C450 N447 1.350 . S
C450 C449 1.434 1_565 S
C451 C452 1.369 . S
C451 C453 1.419 . S
C451 H455 0.930 . S
C452 C451 1.369 . S
C452 C461 1.429 . S
C453 C451 1.419 . S
C453 C454 1.363 . S
C453 H456 0.929 . S
C454 C453 1.363 . S
C454 C460 1.428 . S
H455 C451 0.930 . S
H456 C453 0.929 . S
S457 N458 1.613 . S
S457 N459 1.610 . S
N458 S457 1.613 . S
N458 C461 1.350 . S
N459 S457 1.610 . S
N459 C460 1.351 . S
C460 C454 1.428 . S
C460 N459 1.351 . S
C460 C461 1.434 . S
C461 C452 1.429 . S
C461 N458 1.350 . S
C461 C460 1.434 . S
C462 C463 1.369 . S
C462 C464 1.419 . S
C462 H466 0.930 . S
C463 C462 1.369 . S
C463 C472 1.429 . S
C464 C462 1.419 . S
C464 C465 1.363 . S
C464 H467 0.929 . S
C465 C464 1.363 . S
C465 C471 1.428 . S
H466 C462 0.930 . S
H467 C464 0.929 . S
S468 N469 1.613 . S
S468 N470 1.610 . S
N469 S468 1.613 . S
N469 C472 1.350 . S
N470 S468 1.610 . S
N470 C471 1.351 . S
C471 C465 1.428 . S
C471 N470 1.351 . S
C471 C472 1.434 . S
C472 C463 1.429 . S
C472 N469 1.350 . S
C472 C471 1.434 . S
C473 C474 1.369 . S
C473 C475 1.419 1_565 S
C473 H477 0.930 . S
C474 C473 1.369 . S
C474 C483 1.429 . S
C475 C473 1.419 1_545 S
C475 C476 1.363 . S
C475 H478 0.929 . S
C476 C475 1.363 . S
C476 C482 1.428 1_545 S
H477 C473 0.930 . S
H478 C475 0.929 . S
S479 N480 1.613 1_455 S
S479 N481 1.610 . S
N480 S479 1.613 1_655 S
N480 C483 1.350 . S
N481 S479 1.610 . S
N481 C482 1.351 1_455 S
C482 C476 1.428 1_565 S
C482 N481 1.351 1_655 S
C482 C483 1.434 . S
C483 C474 1.429 . S
C483 N480 1.350 . S
C483 C482 1.434 . S
C484 C485 1.369 . S
C484 C486 1.419 . S
C484 H488 0.930 . S
C485 C484 1.369 . S
C485 C494 1.429 . S
C486 C484 1.419 . S
C486 C487 1.363 1_545 S
C486 H489 0.929 . S
C487 C486 1.363 1_565 S
C487 C493 1.428 1_565 S
H488 C484 0.930 . S
H489 C486 0.929 . S
S490 N491 1.613 . S
S490 N492 1.613 . S
N491 S490 1.613 . S
N491 C494 1.350 . S
N492 S490 1.613 . S
N492 C493 1.352 . S
C493 C487 1.428 1_545 S
C493 N492 1.352 . S
C493 C494 1.434 . S
C494 C485 1.429 . S
C494 N491 1.350 . S
C494 C493 1.434 . S
C495 C496 1.369 . S
C495 C497 1.419 . S
C495 H499 0.930 . S
C496 C495 1.369 . S
C496 C505 1.429 . S
C497 C495 1.419 . S
C497 C498 1.363 . S
C497 H500 0.929 . S
C498 C497 1.363 . S
C498 C504 1.428 . S
H499 C495 0.930 . S
H500 C497 0.929 . S
S501 N502 1.613 . S
S501 N503 1.610 . S
N502 S501 1.613 . S
N502 C505 1.350 . S
N503 S501 1.610 . S
N503 C504 1.351 . S
C504 C498 1.428 . S
C504 N503 1.351 . S
C504 C505 1.434 . S
C505 C496 1.429 . S
C505 N502 1.350 . S
C505 C504 1.434 . S
C506 C507 1.369 . S
C506 C508 1.419 . S
C506 H510 0.930 . S
C507 C506 1.369 . S
C507 C516 1.429 . S
C508 C506 1.419 . S
C508 C509 1.363 . S
C508 H511 0.929 . S
C509 C508 1.363 . S
C509 C515 1.428 . S
H510 C506 0.930 . S
H511 C508 0.929 . S
S512 N513 1.613 . S
S512 N514 1.610 . S
N513 S512 1.613 . S
N513 C516 1.350 . S
N514 S512 1.610 . S
N514 C515 1.351 . S
C515 C509 1.428 . S
C515 N514 1.351 . S
C515 C516 1.434 . S
C516 C507 1.429 . S
C516 N513 1.350 . S
C516 C515 1.434 . S
C517 C518 1.369 . S
C517 C519 1.419 1_545 S
C517 H521 0.930 1_545 S
C518 C517 1.369 . S
C518 C527 1.429 . S
C519 C517 1.419 1_565 S
C519 C520 1.363 . S
C519 H522 0.929 . S
C520 C519 1.363 . S
C520 C526 1.428 1_565 S
H521 C517 0.930 1_565 S
H522 C519 0.929 . S
S523 N524 1.613 . S
S523 N525 1.610 . S
N524 S523 1.613 . S
N524 C527 1.350 . S
N525 S523 1.610 . S
N525 C526 1.351 . S
C526 C520 1.428 1_545 S
C526 N525 1.351 . S
C526 C527 1.434 . S
C527 C518 1.429 . S
C527 N524 1.350 . S
C527 C526 1.434 . S
C528 C529 1.369 . S
C528 C530 1.419 . S
C528 H532 0.930 . S
C529 C528 1.369 . S
C529 C538 1.429 . S
C530 C528 1.419 . S
C530 C531 1.363 1_556 S
C530 H533 0.929 1_556 S
C531 C530 1.363 1_554 S
C531 C537 1.428 . S
H532 C528 0.930 . S
H533 C530 0.929 1_554 S
S534 N535 1.613 1_554 S
S534 N536 1.610 . S
N535 S534 1.613 1_556 S
N535 C538 1.350 . S
N536 S534 1.610 . S
N536 C537 1.351 . S
C537 C531 1.428 . S
C537 N536 1.351 . S
C537 C538 1.434 1_554 S
C538 C529 1.429 . S
C538 N535 1.350 . S
C538 C537 1.434 1_556 S
C539 C540 1.369 . S
C539 C541 1.419 . S
C539 H543 0.930 . S
C540 C539 1.369 . S
C540 C549 1.429 . S
C541 C539 1.419 . S
C541 C542 1.363 . S
C541 H544 0.929 . S
C542 C541 1.363 . S
C542 C548 1.428 . S
H543 C539 0.930 . S
H544 C541 0.929 . S
S545 N546 1.613 . S
S545 N547 1.610 . S
N546 S545 1.613 . S
N546 C549 1.350 . S
N547 S545 1.610 . S
N547 C548 1.351 . S
C548 C542 1.428 . S
C548 N547 1.351 . S
C548 C549 1.434 . S
C549 C540 1.429 . S
C549 N546 1.350 . S
C549 C548 1.434 . S
C550 C551 1.369 . S
C550 C552 1.419 . S
C550 H554 0.930 . S
C551 C550 1.369 . S
C551 C560 1.429 . S
C552 C550 1.419 . S
C552 C553 1.363 1_554 S
C552 H555 0.929 . S
C553 C552 1.363 1_556 S
C553 C559 1.428 . S
H554 C550 0.930 . S
H555 C552 0.929 . S
S556 N557 1.613 1_556 S
S556 N558 1.610 . S
N557 S556 1.613 1_554 S
N557 C560 1.350 . S
N558 S556 1.610 . S
N558 C559 1.351 . S
C559 C553 1.428 . S
C559 N558 1.351 . S
C559 C560 1.434 1_556 S
C560 C551 1.429 . S
C560 N557 1.350 . S
C560 C559 1.434 1_554 S
C561 C562 1.369 . S
C561 C563 1.419 . S
C561 H565 0.930 . S
C562 C561 1.369 . S
C562 C571 1.429 . S
C563 C561 1.419 . S
C563 C564 1.363 . S
C563 H566 0.929 . S
C564 C563 1.363 . S
C564 C570 1.428 . S
H565 C561 0.930 . S
H566 C563 0.929 . S
S567 N568 1.622 . S
S567 N569 1.613 . S
N568 S567 1.622 . S
N568 C571 1.350 . S
N569 S567 1.613 . S
N569 C570 1.351 . S
C570 C564 1.428 . S
C570 N569 1.351 . S
C570 C571 1.434 . S
C571 C562 1.429 . S
C571 N568 1.350 . S
C571 C570 1.434 . S
C572 C573 1.369 . S
C572 C574 1.419 1_554 S
C572 H576 0.930 . S
C573 C572 1.369 . S
C573 C582 1.429 . S
C574 C572 1.419 1_556 S
C574 C575 1.363 . S
C574 H577 0.929 . S
C575 C574 1.363 . S
C575 C581 1.428 . S
H576 C572 0.930 . S
H577 C574 0.929 . S
S578 N579 1.613 1_556 S
S578 N580 1.610 . S
N579 S578 1.613 1_554 S
N579 C582 1.350 . S
N580 S578 1.610 . S
N580 C581 1.351 . S
C581 C575 1.428 . S
C581 N580 1.351 . S
C581 C582 1.434 1_556 S
C582 C573 1.429 . S
C582 N579 1.350 . S
C582 C581 1.434 1_554 S
C583 C584 1.369 . S
C583 C585 1.419 . S
C583 H587 0.930 . S
C584 C583 1.369 . S
C584 C593 1.429 . S
C585 C583 1.419 . S
C585 C586 1.363 . S
C585 H588 0.929 . S
C586 C585 1.363 . S
C586 C592 1.428 . S
H587 C583 0.930 . S
H588 C585 0.929 . S
S589 N590 1.613 . S
S589 N591 1.610 . S
N590 S589 1.613 . S
N590 C593 1.350 . S
N591 S589 1.610 . S
N591 C592 1.351 . S
C592 C586 1.428 . S
C592 N591 1.351 . S
C592 C593 1.434 . S
C593 C584 1.429 . S
C593 N590 1.350 . S
C593 C592 1.434 . S
C594 C595 1.369 . S
C594 C596 1.419 1_556 S
C594 H598 0.930 . S
C595 C594 1.369 . S
C595 C604 1.429 . S
C596 C594 1.419 1_554 S
C596 C597 1.363 . S
C596 H599 0.929 . S
C597 C596 1.363 . S
C597 C603 1.428 . S
H598 C594 0.930 . S
H599 C596 0.929 . S
S600 N601 1.613 1_554 S
S600 N602 1.610 . S
N601 S600 1.613 1_556 S
N601 C604 1.350 . S
N602 S600 1.610 . S
N602 C603 1.351 . S
C603 C597 1.428 . S
C603 N602 1.351 . S
C603 C604 1.434 1_554 S
C604 C595 1.429 . S
C604 N601 1.350 . S
C604 C603 1.434 1_556 S
C605 C606 1.369 . S
C605 C607 1.419 . S
C605 H609 0.930 . S
C606 C605 1.369 . S
C606 C615 1.429 . S
C607 C605 1.419 . S
C607 C608 1.363 . S
C607 H610 0.929 . S
C608 C607 1.363 . S
C608 C614 1.428 . S
H609 C605 0.930 . S
H610 C607 0.929 . S
S611 N612 1.613 . S
S611 N613 1.610 . S
N612 S611 1.613 . S
N612 C615 1.350 . S
N613 S611 1.610 . S
N613 C614 1.351 . S
C614 C608 1.428 . S
C614 N613 1.351 . S
C614 C615 1.434 . S
C615 C606 1.429 . S
C615 N612 1.350 . S
C615 C614 1.434 . S
C616 C617 1.369 . S
C616 C618 1.419 . S
C616 H620 0.930 . S
C617 C616 1.369 . S
C617 C626 1.429 . S
C618 C616 1.419 . S
C618 C619 1.363 . S
C618 H621 0.929 . S
C619 C618 1.363 . S
C619 C625 1.428 . S
H620 C616 0.930 . S
H621 C618 0.929 . S
S622 N623 1.613 1_655 S
S622 N624 1.610 1_655 S
N623 S622 1.613 1_455 S
N623 C626 1.350 . S
N624 S622 1.610 1_455 S
N624 C625 1.351 . S
C625 C619 1.428 . S
C625 N624 1.351 . S
C625 C626 1.434 . S
C626 C617 1.429 . S
C626 N623 1.350 . S
C626 C625 1.434 . S
C627 C628 1.369 . S
C627 C629 1.419 . S
C627 H631 0.930 . S
C628 C627 1.369 . S
C628 C637 1.429 . S
C629 C627 1.419 . S
C629 C630 1.363 . S
C629 H632 0.929 . S
C630 C629 1.363 . S
C630 C636 1.428 . S
H631 C627 0.930 . S
H632 C629 0.929 . S
S633 N634 1.613 . S
S633 N635 1.610 . S
N634 S633 1.613 . S
N634 C637 1.350 . S
N635 S633 1.610 . S
N635 C636 1.351 . S
C636 C630 1.428 . S
C636 N635 1.351 . S
C636 C637 1.434 . S
C637 C628 1.429 . S
C637 N634 1.350 . S
C637 C636 1.434 . S
C638 C639 1.369 . S
C638 C640 1.419 . S
C638 H642 0.930 . S
C639 C638 1.369 . S
C639 C648 1.429 . S
C640 C638 1.419 . S
C640 C641 1.363 . S
C640 H643 0.929 . S
C641 C640 1.363 . S
C641 C647 1.428 . S
H642 C638 0.930 . S
H643 C640 0.929 . S
S644 N645 1.613 . S
S644 N646 1.610 . S
N645 S644 1.613 . S
N645 C648 1.350 . S
N646 S644 1.610 . S
N646 C647 1.351 . S
C647 C641 1.428 . S
C647 N646 1.351 . S
C647 C648 1.434 . S
C648 C639 1.429 . S
C648 N645 1.350 . S
C648 C647 1.434 . S
C649 C650 1.369 . S
C649 C651 1.419 . S
C649 H653 0.930 . S
C650 C649 1.369 . S
C650 C659 1.429 . S
C651 C649 1.419 . S
C651 C652 1.363 . S
C651 H654 0.929 . S
C652 C651 1.363 . S
C652 C658 1.428 . S
H653 C649 0.930 . S
H654 C651 0.929 . S
S655 N656 1.613 . S
S655 N657 1.610 . S
N656 S655 1.613 . S
N656 C659 1.350 . S
N657 S655 1.610 . S
N657 C658 1.351 . S
C658 C652 1.428 . S
C658 N657 1.351 . S
C658 C659 1.434 . S
C659 C650 1.429 . S
C659 N656 1.350 . S
C659 C658 1.434 . S
C660 C661 1.369 . S
C660 C662 1.419 . S
C660 H664 0.930 . S
C661 C660 1.369 . S
C661 C670 1.429 . S
C662 C660 1.419 . S
C662 C663 1.363 . S
C662 H665 0.929 . S
C663 C662 1.363 . S
C663 C669 1.428 . S
H664 C660 0.930 . S
H665 C662 0.929 . S
S666 N667 1.613 . S
S666 N668 1.610 . S
N667 S666 1.613 . S
N667 C670 1.350 . S
N668 S666 1.610 . S
N668 C669 1.351 . S
C669 C663 1.428 . S
C669 N668 1.351 . S
C669 C670 1.434 . S
C670 C661 1.429 . S
C670 N667 1.350 . S
C670 C669 1.434 . S
C671 C672 1.369 . S
C671 C673 1.419 . S
C671 H675 0.930 . S
C672 C671 1.369 . S
C672 C681 1.429 . S
C673 C671 1.419 . S
C673 C674 1.363 . S
C673 H676 0.929 . S
C674 C673 1.363 . S
C674 C680 1.428 . S
H675 C671 0.930 . S
H676 C673 0.929 . S
S677 N678 1.613 . S
S677 N679 1.610 . S
N678 S677 1.613 . S
N678 C681 1.350 . S
N679 S677 1.610 . S
N679 C680 1.351 . S
C680 C674 1.428 . S
C680 N679 1.351 . S
C680 C681 1.434 . S
C681 C672 1.429 . S
C681 N678 1.350 . S
C681 C680 1.434 . S
C682 C683 1.369 . S
C682 C684 1.419 . S
C682 H686 0.930 . S
C683 C682 1.369 . S
C683 C692 1.429 . S
C684 C682 1.419 . S
C684 C685 1.363 . S
C684 H687 0.929 . S
C685 C684 1.363 . S
C685 C691 1.428 . S
H686 C682 0.930 . S
H687 C684 0.929 . S
S688 N689 1.613 . S
S688 N690 1.610 . S
N689 S688 1.613 . S
N689 C692 1.350 . S
N690 S688 1.610 . S
N690 C691 1.351 . S
C691 C685 1.428 . S
C691 N690 1.351 . S
C691 C692 1.434 . S
C692 C683 1.429 . S
C692 N689 1.350 . S
C692 C691 1.434 . S
C693 C694 1.369 . S
C693 C695 1.419 . S
C693 H697 0.930 . S
C694 C693 1.369 . S
C694 C703 1.429 . S
C695 C693 1.419 . S
C695 C696 1.363 . S
C695 H698 0.929 . S
C696 C695 1.363 . S
C696 C702 1.428 . S
H697 C693 0.930 . S
H698 C695 0.929 . S
S699 N700 1.613 . S
S699 N701 1.610 . S
N700 S699 1.613 . S
N700 C703 1.350 . S
N701 S699 1.610 . S
N701 C702 1.351 . S
C702 C696 1.428 . S
C702 N701 1.351 . S
C702 C703 1.434 . S
C703 C694 1.429 . S
C703 N700 1.350 . S
C703 C702 1.434 . S
C441 C86 1.629 . S
C443 C160 1.628 . S
C454 C244 1.668 . S
C452 C100 1.686 . S
C465 C243 1.621 . S
C463 C60 1.627 . S
C474 C74 1.679 . S
C476 C159 1.681 . S
C487 C340 1.667 . S
C485 C35 1.685 . S
C498 C424 1.626 . S
C496 C47 1.631 . S
C507 C9 1.680 . S
C509 C423 1.679 . S
C518 C21 1.630 . S
C520 C339 1.624 . S
C531 C162 1.428 . S
C529 C22 1.588 . S
C542 C246 1.407 . S
C540 C8 1.581 . S
C553 C258 1.352 . S
C551 C48 1.583 . S
C564 C174 1.365 . S
C562 C34 1.579 . S
C575 C342 1.415 . S
C573 C73 1.583 . S
C584 C61 1.585 . S
C586 C426 1.428 . S
C597 C414 1.353 . S
C595 C99 1.584 . S
C606 C87 1.584 . S
C608 C330 1.347 . S
C619 C171 1.576 . S
C617 C4 1.490 . S
C630 C255 1.497 . S
C628 C17 1.486 . S
C639 C30 1.490 . S
C641 C256 1.548 . S
C652 C172 1.465 . S
C650 C43 1.474 . S
C663 C327 1.498 . S
C661 C56 1.451 . S
C672 C69 1.520 . S
C674 C411 1.576 . S
C683 C82 1.440 . S
C685 C412 1.467 . S
C694 C95 1.516 . S
C696 C328 1.546 . S
