# Generated by pormake.
# Topology pyr, (3,6)-cn, num edge types: 1
# Building blocks:
#     Node 0, Type 0, BuildingBlock: CUQRIR_clean_linker_1, # of connection points: 3
#     Node 1, Type 0, BuildingBlock: CUQRIR_clean_linker_1, # of connection points: 3
#     Node 2, Type 0, BuildingBlock: CUQRIR_clean_linker_1, # of connection points: 3
#     Node 3, Type 0, BuildingBlock: CUQRIR_clean_linker_1, # of connection points: 3
#     Node 4, Type 0, BuildingBlock: CUQRIR_clean_linker_1, # of connection points: 3
#     Node 5, Type 0, BuildingBlock: CUQRIR_clean_linker_1, # of connection points: 3
#     Node 6, Type 0, BuildingBlock: CUQRIR_clean_linker_1, # of connection points: 3
#     Node 7, Type 0, BuildingBlock: CUQRIR_clean_linker_1, # of connection points: 3
#     Node 8, Type 1, BuildingBlock: VOLQOD_clean_sbu_1, # of connection points: 6
#     Node 9, Type 1, BuildingBlock: VOLQOD_clean_sbu_1, # of connection points: 6
#     Node 10, Type 1, BuildingBlock: VOLQOD_clean_sbu_1, # of connection points: 6
#     Node 11, Type 1, BuildingBlock: VOLQOD_clean_sbu_1, # of connection points: 6
#     Edge 12, Type (0, 1), BuildingBlock: XUDNAN_clean_linker_2, # of connection points: 2
#     Edge 13, Type (0, 1), BuildingBlock: XUDNAN_clean_linker_2, # of connection points: 2
#     Edge 14, Type (0, 1), BuildingBlock: XUDNAN_clean_linker_2, # of connection points: 2
#     Edge 15, Type (0, 1), BuildingBlock: XUDNAN_clean_linker_2, # of connection points: 2
#     Edge 16, Type (0, 1), BuildingBlock: XUDNAN_clean_linker_2, # of connection points: 2
#     Edge 17, Type (0, 1), BuildingBlock: XUDNAN_clean_linker_2, # of connection points: 2
#     Edge 18, Type (0, 1), BuildingBlock: XUDNAN_clean_linker_2, # of connection points: 2
#     Edge 19, Type (0, 1), BuildingBlock: XUDNAN_clean_linker_2, # of connection points: 2
#     Edge 20, Type (0, 1), BuildingBlock: XUDNAN_clean_linker_2, # of connection points: 2
#     Edge 21, Type (0, 1), BuildingBlock: XUDNAN_clean_linker_2, # of connection points: 2
#     Edge 22, Type (0, 1), BuildingBlock: XUDNAN_clean_linker_2, # of connection points: 2
#     Edge 23, Type (0, 1), BuildingBlock: XUDNAN_clean_linker_2, # of connection points: 2
#     Edge 24, Type (0, 1), BuildingBlock: XUDNAN_clean_linker_2, # of connection points: 2
#     Edge 25, Type (0, 1), BuildingBlock: XUDNAN_clean_linker_2, # of connection points: 2
#     Edge 26, Type (0, 1), BuildingBlock: XUDNAN_clean_linker_2, # of connection points: 2
#     Edge 27, Type (0, 1), BuildingBlock: XUDNAN_clean_linker_2, # of connection points: 2
#     Edge 28, Type (0, 1), BuildingBlock: XUDNAN_clean_linker_2, # of connection points: 2
#     Edge 29, Type (0, 1), BuildingBlock: XUDNAN_clean_linker_2, # of connection points: 2
#     Edge 30, Type (0, 1), BuildingBlock: XUDNAN_clean_linker_2, # of connection points: 2
#     Edge 31, Type (0, 1), BuildingBlock: XUDNAN_clean_linker_2, # of connection points: 2
#     Edge 32, Type (0, 1), BuildingBlock: XUDNAN_clean_linker_2, # of connection points: 2
#     Edge 33, Type (0, 1), BuildingBlock: XUDNAN_clean_linker_2, # of connection points: 2
#     Edge 34, Type (0, 1), BuildingBlock: XUDNAN_clean_linker_2, # of connection points: 2
#     Edge 35, Type (0, 1), BuildingBlock: XUDNAN_clean_linker_2, # of connection points: 2
# Relax obj value: 0.118
# Max RMSD: 0.210
# Mean RMSD: 0.164
data_MOF--net-pry--node1-VOLQOD_clean_sbu_1--node2-CUQRIR_clean_linker_1--edge1-XUDNAN_clean_linker_2
_symmetry_space_group_name_H-M    P1
_symmetry_Int_Tables_number       1
_symmetry_cell_setting            triclinic
loop_
_symmetry_equiv_pos_as_xyz
'x, y, z'
_cell_length_a     34.632075
_cell_length_b     34.535355
_cell_length_c     34.110527
_cell_angle_alpha  88.2791
_cell_angle_beta   91.970694
_cell_angle_gamma 93.964612
loop_
_atom_site_label
_atom_site_type_symbol
_atom_site_fract_x
_atom_site_fract_y
_atom_site_fract_z
_atom_type_partial_charge
C0 C 0.13573 0.18177 0.16436 0.0
N1 N 0.16204 0.15473 0.16716 0.0
N2 N 0.14034 0.20376 0.13118 0.0
C3 C 0.10564 0.18677 0.19437 0.0
C4 C 0.17098 0.18939 0.11414 0.0
N5 N 0.18409 0.15921 0.13599 0.0
C6 C 0.18605 0.20288 0.0749 0.0
H7 H 0.07958 0.16741 0.18732 0.0
H8 H 0.09725 0.2172 0.19429 0.0
H9 H 0.11637 0.17865 0.22428 0.0
H10 H 0.20923 0.22631 0.07937 0.0
H11 H 0.16271 0.21472 0.05597 0.0
H12 H 0.19846 0.17878 0.05984 0.0
C13 C 0.38337 0.86983 0.64948 0.0
N14 N 0.37798 0.89768 0.67531 0.0
N15 N 0.41299 0.84847 0.66175 0.0
C16 C 0.35934 0.86327 0.61223 0.0
C17 C 0.42513 0.86407 0.69644 0.0
N18 N 0.40377 0.89421 0.70481 0.0
C19 C 0.45977 0.85185 0.72028 0.0
H20 H 0.3588 0.83255 0.60352 0.0
H21 H 0.37204 0.88204 0.58835 0.0
H22 H 0.32912 0.87097 0.61549 0.0
H23 H 0.48089 0.8394 0.70132 0.0
H24 H 0.45011 0.8292 0.74224 0.0
H25 H 0.47424 0.87678 0.73605 0.0
C26 C 0.57815 0.3744 0.90186 0.0
N27 N 0.60557 0.37458 0.93124 0.0
N28 N 0.58542 0.40432 0.87599 0.0
C29 C 0.54653 0.34256 0.89599 0.0
C30 C 0.61797 0.42309 0.89092 0.0
N31 N 0.63065 0.40469 0.92407 0.0
C32 C 0.63872 0.45789 0.87136 0.0
H33 H 0.5593 0.31396 0.89583 0.0
H34 H 0.52917 0.34691 0.86851 0.0
H35 H 0.52637 0.34203 0.92055 0.0
H36 H 0.61773 0.478 0.85878 0.0
H37 H 0.6557 0.44808 0.84696 0.0
H38 H 0.65844 0.47413 0.89233 0.0
C39 C 0.86576 0.61475 0.38674 0.0
N40 N 0.89708 0.63683 0.37403 0.0
N41 N 0.85183 0.62972 0.41922 0.0
C42 C 0.85042 0.5769 0.36948 0.0
C43 C 0.87586 0.66149 0.42618 0.0
N44 N 0.90378 0.66549 0.39918 0.0
C45 C 0.86907 0.69122 0.45625 0.0
H46 H 0.82732 0.58244 0.3471 0.0
H47 H 0.83766 0.55711 0.39256 0.0
H48 H 0.87374 0.56247 0.3553 0.0
H49 H 0.88505 0.6839 0.48394 0.0
H50 H 0.83788 0.69147 0.46253 0.0
H51 H 0.87953 0.72081 0.44615 0.0
C52 C 0.86466 0.89234 0.90406 0.0
N53 N 0.89268 0.88376 0.87969 0.0
N54 N 0.84963 0.92616 0.89269 0.0
C55 C 0.84844 0.86497 0.93562 0.0
C56 C 0.8693 0.93767 0.86035 0.0
N57 N 0.89521 0.91163 0.85196 0.0
C58 C 0.86306 0.9749 0.83772 0.0
H59 H 0.84367 0.83518 0.92428 0.0
H60 H 0.82085 0.87405 0.94671 0.0
H61 H 0.8698 0.86391 0.96056 0.0
H62 H 0.8899 0.9863 0.82327 0.0
H63 H 0.85362 0.99705 0.85759 0.0
H64 H 0.83972 0.9696 0.81503 0.0
C65 C 0.70502 0.18361 0.4314 0.0
N66 N 0.70937 0.14929 0.41432 0.0
N67 N 0.66929 0.1959 0.42291 0.0
C68 C 0.73669 0.20658 0.45354 0.0
C69 C 0.65224 0.16814 0.39981 0.0
N70 N 0.67648 0.13987 0.39454 0.0
C71 C 0.61393 0.17133 0.37809 0.0
H72 H 0.74136 0.19252 0.48282 0.0
H73 H 0.7293 0.23686 0.45783 0.0
H74 H 0.7642 0.20668 0.43776 0.0
H75 H 0.61877 0.18847 0.35045 0.0
H76 H 0.59366 0.18648 0.39577 0.0
H77 H 0.60055 0.14227 0.37058 0.0
C78 C 0.36958 0.60463 0.11267 0.0
N79 N 0.39824 0.6209 0.13603 0.0
N80 N 0.36658 0.6246 0.07804 0.0
C81 C 0.34091 0.57232 0.12563 0.0
C82 C 0.39627 0.6522 0.08038 0.0
N83 N 0.41511 0.65062 0.11588 0.0
C84 C 0.4026 0.68466 0.05017 0.0
H85 H 0.35177 0.55636 0.15201 0.0
H86 H 0.33513 0.5514 0.10177 0.0
H87 H 0.31313 0.58459 0.13217 0.0
H88 H 0.39834 0.71297 0.06339 0.0
H89 H 0.38277 0.68065 0.02416 0.0
H90 H 0.43271 0.68546 0.04003 0.0
C91 C 0.08415 0.39028 0.65055 0.0
N92 N 0.10713 0.37431 0.62493 0.0
N93 N 0.09763 0.42682 0.65924 0.0
C94 C 0.05066 0.36883 0.67068 0.0
C95 C 0.12876 0.43322 0.63625 0.0
N96 N 0.13467 0.4014 0.61541 0.0
C97 C 0.15687 0.46849 0.63895 0.0
H98 H 0.0394 0.34308 0.65407 0.0
H99 H 0.02688 0.38835 0.67365 0.0
H100 H 0.0602 0.35939 0.70064 0.0
H101 H 0.14812 0.48916 0.66072 0.0
H102 H 0.15812 0.48397 0.61004 0.0
H103 H 0.18633 0.45944 0.64687 0.0
O104 O 0.0406 0.08256 0.55739 0.0
Zn105 Zn 0.0167 0.03067 0.53932 0.0
O106 O 0.05363 0.00623 0.50742 0.0
Zn107 Zn 0.02941 0.99567 0.45687 0.0
Zn108 Zn 0.09956 0.04178 0.4992 0.0
Zn109 Zn 0.06854 0.95716 0.53229 0.0
O110 O 0.02205 0.93911 0.4485 0.0
O111 O 0.05483 0.91058 0.49709 0.0
O112 O 0.96696 0.04108 0.50827 0.0
O113 O 0.97835 0.01925 0.44954 0.0
O114 O 0.06332 0.01503 0.41394 0.0
O115 O 0.11399 0.04727 0.44196 0.0
O116 O 0.145 0.02161 0.52996 0.0
O117 O 0.00353 0.99702 0.5873 0.0
O118 O 0.12523 0.96161 0.54922 0.0
O119 O 0.04084 0.94748 0.58282 0.0
C120 C 0.06866 0.10515 0.54528 0.0
C121 C 0.03481 0.90884 0.46494 0.0
C122 C 0.09583 0.03417 0.41153 0.0
C123 C 0.9567 0.03562 0.47247 0.0
C124 C 0.15127 0.98956 0.54773 0.0
C125 C 0.0161 0.96527 0.60081 0.0
O126 O 0.09193 0.09465 0.52016 0.0
O127 O 0.52654 0.10495 0.02395 0.0
Zn128 Zn 0.49435 0.05375 0.02925 0.0
O129 O 0.5234 0.01519 0.05886 0.0
Zn130 Zn 0.5237 0.9686 0.02835 0.0
Zn131 Zn 0.57675 0.03538 0.06918 0.0
Zn132 Zn 0.49913 0.00143 0.10842 0.0
O133 O 0.51137 0.91989 0.06104 0.0
O134 O 0.49074 0.94387 0.11554 0.0
O135 O 0.47744 0.03363 0.97498 0.0
O136 O 0.48738 0.9708 0.98121 0.0
O137 O 0.57594 0.96486 0.00644 0.0
O138 O 0.61494 0.00706 0.03932 0.0
O139 O 0.59034 0.03463 0.12706 0.0
O140 O 0.44564 0.06365 0.05741 0.0
O141 O 0.53406 0.01758 0.15444 0.0
O142 O 0.44729 0.02448 0.11046 0.0
C143 C 0.56164 0.11475 0.03379 0.0
C144 C 0.49797 0.91509 0.09528 0.0
C145 C 0.60946 0.98087 0.01386 0.0
C146 C 0.47411 0.99929 0.96172 0.0
C147 C 0.56998 0.02829 0.15728 0.0
C148 C 0.43053 0.04923 0.0886 0.0
O149 O 0.58354 0.09083 0.05066 0.0
O150 O 0.52122 0.50519 0.59826 0.0
Zn151 Zn 0.51798 0.53808 0.54885 0.0
O152 O 0.4888 0.51029 0.50695 0.0
Zn153 Zn 0.51905 0.51344 0.45963 0.0
Zn154 Zn 0.47911 0.45596 0.52291 0.0
Zn155 Zn 0.43958 0.53339 0.49632 0.0
O156 O 0.48946 0.53545 0.41322 0.0
O157 O 0.43315 0.54616 0.43871 0.0
O158 O 0.57269 0.55354 0.53245 0.0
O159 O 0.56913 0.54521 0.4681 0.0
O160 O 0.5355 0.46085 0.44644 0.0
O161 O 0.50712 0.42021 0.48988 0.0
O162 O 0.42199 0.44079 0.52362 0.0
O163 O 0.49319 0.58701 0.56122 0.0
O164 O 0.39408 0.49628 0.51222 0.0
O165 O 0.43922 0.58468 0.5237 0.0
C166 C 0.51364 0.46902 0.60459 0.0
C167 C 0.45519 0.54658 0.40953 0.0
C168 C 0.52916 0.42671 0.46095 0.0
C169 C 0.58786 0.55659 0.49888 0.0
C170 C 0.39182 0.45996 0.52081 0.0
C171 C 0.46227 0.6017 0.54866 0.0
O172 O 0.4989 0.4471 0.57793 0.0
O173 O 0.96404 0.54091 0.10417 0.0
Zn174 Zn 0.96542 0.50914 0.05526 0.0
O175 O 0.99412 0.53806 0.01413 0.0
Zn176 Zn 0.96314 0.53882 0.96458 0.0
Zn177 Zn 0.00902 0.59078 0.03121 0.0
Zn178 Zn 0.04095 0.51258 0.00578 0.0
O179 O 0.99027 0.51568 0.91917 0.0
O180 O 0.04405 0.49899 0.95023 0.0
O181 O 0.91081 0.49574 0.0364 0.0
O182 O 0.91048 0.51034 0.97237 0.0
O183 O 0.95479 0.59443 0.94825 0.0
O184 O 0.98359 0.62986 0.99568 0.0
O185 O 0.06663 0.60345 0.0283 0.0
O186 O 0.98922 0.45803 0.06945 0.0
O187 O 0.08846 0.54641 0.01616 0.0
O188 O 0.04418 0.4638 0.03753 0.0
C189 C 0.97748 0.57505 0.11264 0.0
C190 C 0.0233 0.50152 0.91899 0.0
C191 C 0.96413 0.62724 0.96334 0.0
C192 C 0.89353 0.49632 0.00284 0.0
C193 C 0.09451 0.58226 0.02299 0.0
C194 C 0.02124 0.44497 0.06055 0.0
O195 O 0.99541 0.59725 0.08779 0.0
H196 H 0.19445 0.15982 0.23965 0.0
H197 H 0.12471 0.08482 0.16228 0.0
H198 H 0.11237 0.03774 0.2169 0.0
H199 H 0.22952 0.08214 0.31323 0.0
H200 H 0.22261 0.11283 0.35388 0.0
H201 H 0.23681 0.13414 0.30718 0.0
H202 H 0.17779 0.17629 0.30643 0.0
H203 H 0.16301 0.15483 0.35262 0.0
H204 H 0.12984 0.15298 0.31069 0.0
H205 H 0.09721 0.00598 0.27944 0.0
H206 H 0.07665 0.99234 0.34684 0.0
H207 H 0.15105 0.09051 0.38724 0.0
C208 C 0.17865 0.13225 0.23422 0.0
C209 C 0.1626 0.12428 0.19658 0.0
C210 C 0.13918 0.08981 0.19051 0.0
C211 C 0.13185 0.0632 0.22142 0.0
C212 C 0.14718 0.07221 0.25858 0.0
C213 C 0.16997 0.10602 0.26531 0.0
C214 C 0.17596 0.11258 0.30897 0.0
C215 C 0.21878 0.11027 0.32156 0.0
C216 C 0.16072 0.15145 0.32032 0.0
C217 C 0.1514 0.07829 0.32553 0.0
C218 C 0.13606 0.0549 0.29585 0.0
C219 C 0.10959 0.02359 0.30304 0.0
C220 C 0.09784 0.01631 0.34144 0.0
C221 C 0.11221 0.04044 0.37227 0.0
C222 C 0.14008 0.07126 0.36433 0.0
H223 H 0.4055 0.86818 0.78037 0.0
H224 H 0.41369 0.97286 0.70737 0.0
H225 H 0.42494 0.01232 0.76639 0.0
H226 H 0.36241 0.90802 0.86628 0.0
H227 H 0.39152 0.88083 0.90055 0.0
H228 H 0.37815 0.86161 0.85308 0.0
H229 H 0.45051 0.85502 0.83932 0.0
H230 H 0.46408 0.87416 0.88669 0.0
H231 H 0.48423 0.89701 0.84306 0.0
H232 H 0.43991 0.03997 0.83374 0.0
H233 H 0.46157 0.05295 0.90225 0.0
H234 H 0.44887 0.92942 0.93044 0.0
C235 C 0.40911 0.89947 0.77699 0.0
C236 C 0.40765 0.91758 0.73935 0.0
C237 C 0.41304 0.95851 0.7359 0.0
C238 C 0.41988 0.98111 0.76933 0.0
C239 C 0.42169 0.96228 0.80603 0.0
C240 C 0.4167 0.9223 0.80997 0.0
C241 C 0.42376 0.9088 0.85211 0.0
C242 C 0.38675 0.88863 0.86899 0.0
C243 C 0.45766 0.88219 0.85548 0.0
C244 C 0.43411 0.94735 0.8712 0.0
C245 C 0.43212 0.97794 0.84433 0.0
C246 C 0.44135 0.01623 0.85506 0.0
C247 C 0.45354 0.02334 0.8941 0.0
C248 C 0.45698 0.99226 0.92181 0.0
C249 C 0.44656 0.95388 0.91007 0.0
H250 H 0.55287 0.46394 0.83667 0.0
H251 H 0.59143 0.34849 0.82396 0.0
H252 H 0.57285 0.35096 0.75337 0.0
H253 H 0.47286 0.45896 0.76432 0.0
H254 H 0.48315 0.5079 0.74582 0.0
H255 H 0.49519 0.49535 0.79621 0.0
H256 H 0.56646 0.52065 0.78598 0.0
H257 H 0.55465 0.53325 0.73559 0.0
H258 H 0.59285 0.50147 0.74713 0.0
H259 H 0.55109 0.36606 0.6849 0.0
H260 H 0.53305 0.39512 0.62045 0.0
H261 H 0.51536 0.50378 0.67582 0.0
C262 C 0.5571 0.43925 0.81888 0.0
C263 C 0.57274 0.4057 0.8355 0.0
C264 C 0.57846 0.37395 0.81159 0.0
C265 C 0.56816 0.37518 0.77163 0.0
C266 C 0.55301 0.40877 0.75597 0.0
C267 C 0.54794 0.44046 0.77863 0.0
C268 C 0.53424 0.47417 0.75373 0.0
C269 C 0.49396 0.4847 0.76574 0.0
C270 C 0.56382 0.50946 0.75573 0.0
C271 C 0.53258 0.45646 0.71359 0.0
C272 C 0.54286 0.41848 0.71574 0.0
C273 C 0.54307 0.3958 0.68272 0.0
C274 C 0.53273 0.4125 0.64634 0.0
C275 C 0.52308 0.45166 0.64331 0.0
C276 C 0.52298 0.47386 0.67738 0.0
H277 H 0.86408 0.62372 0.30219 0.0
H278 H 0.97491 0.63961 0.36439 0.0
H279 H 0.00832 0.63006 0.30253 0.0
H280 H 0.89047 0.54432 0.2468 0.0
H281 H 0.86193 0.5574 0.20384 0.0
H282 H 0.84753 0.57023 0.25171 0.0
H283 H 0.84782 0.64247 0.22875 0.0
H284 H 0.86237 0.6299 0.18081 0.0
H285 H 0.89097 0.666 0.20829 0.0
H286 H 0.02899 0.61836 0.23292 0.0
H287 H 0.03533 0.59895 0.16408 0.0
H288 H 0.91055 0.58164 0.151 0.0
C289 C 0.89537 0.62482 0.3029 0.0
C290 C 0.91697 0.63233 0.33805 0.0
C291 C 0.9579 0.6344 0.33762 0.0
C292 C 0.97702 0.62887 0.30269 0.0
C293 C 0.9547 0.62067 0.26868 0.0
C294 C 0.91472 0.61815 0.26876 0.0
C295 C 0.8972 0.60603 0.22936 0.0
C296 C 0.87286 0.56718 0.23317 0.0
C297 C 0.87318 0.63801 0.21071 0.0
C298 C 0.93354 0.60178 0.20698 0.0
C299 C 0.96645 0.61123 0.22982 0.0
C300 C 0.00342 0.61064 0.21494 0.0
C301 C 0.00677 0.59971 0.17591 0.0
C302 C 0.97343 0.58861 0.15271 0.0
C303 C 0.93643 0.58969 0.16843 0.0
H304 H 0.2579 0.18616 0.12184 0.0
H305 H 0.18252 0.08108 0.12925 0.0
H306 H 0.23825 0.04161 0.122 0.0
H307 H 0.31454 0.15053 0.0437 0.0
H308 H 0.35918 0.17533 0.06084 0.0
H309 H 0.31359 0.19522 0.06954 0.0
H310 H 0.3307 0.19585 0.14407 0.0
H311 H 0.37617 0.17562 0.13565 0.0
H312 H 0.34281 0.15147 0.16931 0.0
H313 H 0.30272 0.01366 0.1183 0.0
H314 H 0.37018 0.99867 0.10679 0.0
H315 H 0.40265 0.12152 0.09106 0.0
C316 C 0.25328 0.15484 0.12175 0.0
C317 C 0.21621 0.13648 0.12812 0.0
C318 C 0.21096 0.09556 0.12704 0.0
C319 C 0.24241 0.07295 0.12228 0.0
C320 C 0.27877 0.09183 0.11721 0.0
C321 C 0.28425 0.13185 0.11574 0.0
C322 C 0.32594 0.14476 0.10719 0.0
C323 C 0.32845 0.16782 0.06798 0.0
C324 C 0.34502 0.16831 0.14109 0.0
C325 C 0.34305 0.10569 0.10464 0.0
C326 C 0.31542 0.0756 0.11124 0.0
C327 C 0.32453 0.0369 0.1125 0.0
C328 C 0.36284 0.02868 0.10618 0.0
C329 C 0.39122 0.05894 0.09782 0.0
C330 C 0.38122 0.09792 0.09701 0.0
H331 H 0.30262 0.88796 0.69045 0.0
H332 H 0.3903 0.96779 0.64084 0.0
H333 H 0.33971 0.00663 0.60993 0.0
H334 H 0.24996 0.88034 0.60716 0.0
H335 H 0.20243 0.87559 0.62744 0.0
H336 H 0.2436 0.86138 0.65652 0.0
H337 H 0.22838 0.90802 0.71113 0.0
H338 H 0.18633 0.92166 0.68274 0.0
H339 H 0.22237 0.95843 0.69888 0.0
H340 H 0.28102 0.02913 0.57457 0.0
H341 H 0.21859 0.03483 0.53849 0.0
H342 H 0.1689 0.93589 0.60551 0.0
C343 C 0.31072 0.91519 0.67536 0.0
C344 C 0.3501 0.92636 0.66974 0.0
C345 C 0.36026 0.96028 0.64722 0.0
C346 C 0.33166 0.9821 0.62913 0.0
C347 C 0.29299 0.96905 0.63325 0.0
C348 C 0.28239 0.93646 0.65605 0.0
C349 C 0.23971 0.92445 0.64992 0.0
C350 C 0.23361 0.883 0.63433 0.0
C351 C 0.21791 0.92839 0.68793 0.0
C352 C 0.22837 0.95439 0.61908 0.0
C353 C 0.25929 0.98034 0.61052 0.0
C354 C 0.25642 0.00937 0.58149 0.0
C355 C 0.22089 0.01221 0.56097 0.0
C356 C 0.18888 0.98571 0.56901 0.0
C357 C 0.19284 0.9565 0.59854 0.0
H358 H 0.70104 0.41229 0.892 0.0
H359 H 0.64268 0.41468 0.00194 0.0
H360 H 0.7053 0.4346 0.03589 0.0
H361 H 0.7937 0.38024 0.93049 0.0
H362 H 0.82119 0.4114 0.89673 0.0
H363 H 0.77298 0.39257 0.88291 0.0
H364 H 0.753 0.46266 0.86831 0.0
H365 H 0.80102 0.48174 0.88228 0.0
H366 H 0.75967 0.49812 0.90609 0.0
H367 H 0.7738 0.45837 0.05617 0.0
H368 H 0.84187 0.48467 0.06166 0.0
H369 H 0.85342 0.47133 0.93656 0.0
C370 C 0.70158 0.41701 0.92324 0.0
C371 C 0.66727 0.41272 0.94449 0.0
C372 C 0.6689 0.41807 0.98542 0.0
C373 C 0.7042 0.42939 0.00474 0.0
C374 C 0.73734 0.43506 0.9825 0.0
C375 C 0.73625 0.42897 0.94263 0.0
C376 C 0.77504 0.43963 0.92475 0.0
C377 C 0.79171 0.40382 0.90773 0.0
C378 C 0.77198 0.47249 0.89353 0.0
C379 C 0.79819 0.45335 0.96067 0.0
C380 C 0.77614 0.44994 0.99381 0.0
C381 C 0.79132 0.46102 0.03044 0.0
C382 C 0.83 0.47594 0.03323 0.0
C383 C 0.8529 0.4802 0.99949 0.0
C384 C 0.83661 0.46869 0.96281 0.0
H385 H 0.78078 0.61731 0.38497 0.0
H386 H 0.84324 0.61667 0.49705 0.0
H387 H 0.78157 0.60066 0.53084 0.0
H388 H 0.69604 0.65913 0.41633 0.0
H389 H 0.66307 0.62949 0.3859 0.0
H390 H 0.71198 0.64116 0.37095 0.0
H391 H 0.72264 0.56792 0.36587 0.0
H392 H 0.67362 0.55606 0.38031 0.0
H393 H 0.71327 0.53574 0.40756 0.0
H394 H 0.71253 0.58574 0.55185 0.0
H395 H 0.64259 0.56808 0.5584 0.0
H396 H 0.62638 0.57655 0.43169 0.0
C397 C 0.78142 0.61314 0.41655 0.0
C398 C 0.81649 0.61797 0.4386 0.0
C399 C 0.8164 0.61314 0.47992 0.0
C400 C 0.78163 0.60412 0.4992 0.0
C401 C 0.74736 0.59989 0.47658 0.0
C402 C 0.74709 0.60387 0.43612 0.0
C403 C 0.70661 0.59718 0.41848 0.0
C404 C 0.69368 0.63393 0.39663 0.0
C405 C 0.70388 0.56214 0.39147 0.0
C406 C 0.68408 0.58867 0.45531 0.0
C407 C 0.70797 0.59071 0.48857 0.0
C408 C 0.69355 0.58397 0.526 0.0
C409 C 0.65376 0.57414 0.52943 0.0
C410 C 0.62897 0.57085 0.49558 0.0
C411 C 0.64449 0.57872 0.45817 0.0
H412 H 0.16415 0.27745 0.10982 0.0
H413 H 0.06265 0.19798 0.12113 0.0
H414 H 0.02037 0.25187 0.10658 0.0
H415 H 0.12764 0.35846 0.15249 0.0
H416 H 0.14933 0.39409 0.11875 0.0
H417 H 0.17172 0.34918 0.12886 0.0
H418 H 0.16937 0.33454 0.05469 0.0
H419 H 0.14767 0.37981 0.04428 0.0
H420 H 0.12389 0.33501 0.02738 0.0
H421 H 0.9895 0.31544 0.09631 0.0
H422 H 0.97193 0.38258 0.08054 0.0
H423 H 0.09371 0.41955 0.07151 0.0
C424 C 0.13305 0.27146 0.10836 0.0
C425 C 0.11642 0.23394 0.11706 0.0
C426 C 0.07566 0.22687 0.11517 0.0
C427 C 0.05154 0.25719 0.10694 0.0
C428 C 0.06876 0.29425 0.09991 0.0
C429 C 0.10857 0.30135 0.09959 0.0
C430 C 0.11965 0.34372 0.09049 0.0
C431 C 0.14349 0.36245 0.1247 0.0
C432 C 0.14142 0.34855 0.05191 0.0
C433 C 0.0799 0.35937 0.0863 0.0
C434 C 0.05093 0.33049 0.09229 0.0
C435 C 0.0119 0.33827 0.09112 0.0
C436 C 0.0022 0.37647 0.08251 0.0
C437 C 0.03144 0.40609 0.07469 0.0
C438 C 0.07073 0.39737 0.07711 0.0
H439 H 0.55522 0.34006 0.98221 0.0
H440 H 0.66947 0.33373 0.93634 0.0
H441 H 0.67445 0.26928 0.96847 0.0
H442 H 0.56558 0.27626 0.07329 0.0
H443 H 0.51774 0.2533 0.0652 0.0
H444 H 0.52801 0.3033 0.04999 0.0
H445 H 0.50339 0.28678 0.97953 0.0
H446 H 0.49381 0.23668 0.99408 0.0
H447 H 0.52522 0.24938 0.95393 0.0
H448 H 0.66315 0.20203 0.99637 0.0
H449 H 0.63579 0.13633 0.01477 0.0
H450 H 0.52446 0.18237 0.03235 0.0
C451 C 0.58165 0.32543 0.98001 0.0
C452 C 0.61219 0.34201 0.9574 0.0
C453 C 0.64631 0.32212 0.95468 0.0
C454 C 0.64919 0.28531 0.97254 0.0
C455 C 0.61739 0.26857 0.99238 0.0
C456 C 0.58415 0.28797 0.99611 0.0
C457 C 0.55157 0.26121 0.01219 0.0
C458 C 0.54006 0.2743 0.05258 0.0
C459 C 0.51645 0.25835 0.98319 0.0
C460 C 0.57122 0.22341 0.01558 0.0
C461 C 0.60954 0.22859 0.00524 0.0
C462 C 0.63332 0.1977 0.00491 0.0
C463 C 0.61751 0.16052 0.01527 0.0
C464 C 0.57802 0.15441 0.0247 0.0
C465 C 0.5547 0.18631 0.02504 0.0
H466 H 0.95404 0.68896 0.45689 0.0
H467 H 0.91683 0.71486 0.33722 0.0
H468 H 0.95791 0.7764 0.33801 0.0
H469 H 0.94345 0.77912 0.48934 0.0
H470 H 0.98384 0.78128 0.52416 0.0
H471 H 0.96068 0.73507 0.51114 0.0
H472 H 0.02626 0.71185 0.49021 0.0
H473 H 0.04989 0.75797 0.50358 0.0
H474 H 0.05436 0.74038 0.45484 0.0
H475 H 0.99259 0.83895 0.3554 0.0
H476 H 0.01739 0.89881 0.38756 0.0
H477 H 0.02947 0.83481 0.49826 0.0
C478 C 0.95583 0.70711 0.43051 0.0
C479 C 0.93301 0.69714 0.39675 0.0
C480 C 0.93496 0.72168 0.36292 0.0
C481 C 0.95808 0.75668 0.36326 0.0
C482 C 0.97886 0.76661 0.39773 0.0
C483 C 0.97808 0.74245 0.43076 0.0
C484 C 0.99792 0.76236 0.46582 0.0
C485 C 0.96979 0.76459 0.49958 0.0
C486 C 0.03427 0.74192 0.4794 0.0
C487 C 0.00851 0.80215 0.44785 0.0
C488 C 0.99799 0.8036 0.40833 0.0
C489 C 0.00159 0.83797 0.38609 0.0
C490 C 0.01549 0.8719 0.40476 0.0
C491 C 0.02542 0.87146 0.44546 0.0
C492 C 0.0228 0.83587 0.46701 0.0
H493 H 0.42352 0.7752 0.6893 0.0
H494 H 0.43662 0.8521 0.58734 0.0
H495 H 0.45106 0.79673 0.54728 0.0
H496 H 0.50336 0.71319 0.66424 0.0
H497 H 0.47816 0.66967 0.68347 0.0
H498 H 0.47131 0.71589 0.70447 0.0
H499 H 0.39728 0.70432 0.69199 0.0
H500 H 0.40391 0.65849 0.67025 0.0
H501 H 0.37858 0.69497 0.64295 0.0
H502 H 0.45436 0.7325 0.51672 0.0
H503 H 0.45927 0.66399 0.49936 0.0
H504 H 0.45153 0.62876 0.62201 0.0
C505 C 0.43055 0.78033 0.65883 0.0
C506 C 0.4284 0.81759 0.64102 0.0
C507 C 0.4375 0.8235 0.60108 0.0
C508 C 0.44574 0.79231 0.57822 0.0
C509 C 0.44587 0.75557 0.59611 0.0
C510 C 0.43973 0.74951 0.63573 0.0
C511 C 0.4416 0.70693 0.64743 0.0
C512 C 0.47564 0.70108 0.67663 0.0
C513 C 0.40304 0.69021 0.66414 0.0
C514 C 0.44856 0.68997 0.60798 0.0
C515 C 0.45044 0.71857 0.57874 0.0
C516 C 0.45379 0.70991 0.53942 0.0
C517 C 0.45617 0.67103 0.52978 0.0
C518 C 0.45588 0.64154 0.5594 0.0
C519 C 0.45209 0.65105 0.59898 0.0
H520 H 0.87211 0.92666 0.77658 0.0
H521 H 0.97093 0.89684 0.84982 0.0
H522 H 0.0118 0.90088 0.79134 0.0
H523 H 0.89633 0.88207 0.6864 0.0
H524 H 0.88057 0.92181 0.65579 0.0
H525 H 0.85817 0.91046 0.70203 0.0
H526 H 0.87468 0.98112 0.72382 0.0
H527 H 0.89701 0.99272 0.67768 0.0
H528 H 0.92416 0.00103 0.72305 0.0
H529 H 0.04194 0.91087 0.7248 0.0
H530 H 0.06081 0.93199 0.65776 0.0
H531 H 0.94392 0.96461 0.63109 0.0
C532 C 0.90241 0.92131 0.78041 0.0
C533 C 0.91855 0.91181 0.81773 0.0
C534 C 0.95804 0.90381 0.82134 0.0
C535 C 0.98138 0.90616 0.78836 0.0
C536 C 0.96477 0.91701 0.75218 0.0
C537 C 0.92625 0.92488 0.74819 0.0
C538 C 0.91618 0.9398 0.7072 0.0
C539 C 0.88603 0.91186 0.68665 0.0
C540 C 0.9022 0.98112 0.708 0.0
C541 C 0.95521 0.93962 0.68872 0.0
C542 C 0.98264 0.92543 0.71481 0.0
C543 C 0.02073 0.92208 0.7042 0.0
C544 C 0.03113 0.93403 0.66611 0.0
C545 C 0.0038 0.95004 0.63955 0.0
C546 C 0.96537 0.95269 0.651 0.0
H547 H 0.69037 0.14897 0.31826 0.0
H548 H 0.64366 0.06772 0.40585 0.0
H549 H 0.61598 0.02483 0.35326 0.0
H550 H 0.61427 0.14496 0.25513 0.0
H551 H 0.64031 0.1478 0.21016 0.0
H552 H 0.6626 0.16792 0.25403 0.0
H553 H 0.72087 0.12544 0.24864 0.0
H554 H 0.69933 0.10577 0.20399 0.0
H555 H 0.7124 0.07365 0.24417 0.0
H556 H 0.5828 0.99902 0.29145 0.0
H557 H 0.55359 0.98734 0.22519 0.0
H558 H 0.62658 0.08329 0.17778 0.0
C559 C 0.67629 0.12097 0.32609 0.0
C560 C 0.67023 0.11055 0.36571 0.0
C561 C 0.6496 0.07511 0.37548 0.0
C562 C 0.63366 0.05091 0.34585 0.0
C563 C 0.63926 0.06258 0.30678 0.0
C564 C 0.661 0.09635 0.29691 0.0
C565 C 0.66008 0.10424 0.25304 0.0
C566 C 0.64331 0.14354 0.24251 0.0
C567 C 0.70058 0.10213 0.23648 0.0
C568 C 0.63298 0.07065 0.23977 0.0
C569 C 0.62121 0.04691 0.27114 0.0
C570 C 0.59271 0.01668 0.26655 0.0
C571 C 0.57608 0.01046 0.22895 0.0
C572 C 0.58833 0.03409 0.19648 0.0
C573 C 0.61745 0.0642 0.20199 0.0
H574 H 0.4609 0.59904 0.17895 0.0
H575 H 0.34239 0.62968 0.18703 0.0
H576 H 0.34498 0.6158 0.25847 0.0
H577 H 0.45453 0.5195 0.24773 0.0
H578 H 0.50244 0.52869 0.26923 0.0
H579 H 0.49239 0.54345 0.21904 0.0
H580 H 0.51681 0.61417 0.23438 0.0
H581 H 0.52714 0.59958 0.28461 0.0
H582 H 0.49592 0.63844 0.27378 0.0
H583 H 0.35886 0.59596 0.32735 0.0
H584 H 0.38361 0.57207 0.39139 0.0
H585 H 0.49372 0.55344 0.33993 0.0
C586 C 0.43586 0.60312 0.19611 0.0
C587 C 0.40132 0.61496 0.17791 0.0
C588 C 0.3688 0.62 0.20078 0.0
C589 C 0.37012 0.61243 0.24122 0.0
C590 C 0.40425 0.59993 0.25834 0.0
C591 C 0.43664 0.59542 0.23673 0.0
C592 C 0.4691 0.58025 0.26254 0.0
C593 C 0.48025 0.54062 0.24881 0.0
C594 C 0.50433 0.60988 0.26391 0.0
C595 C 0.4496 0.5765 0.30175 0.0
C596 C 0.4123 0.58826 0.29856 0.0
C597 C 0.38812 0.58686 0.33038 0.0
C598 C 0.40246 0.57314 0.36664 0.0
C599 C 0.44063 0.56085 0.37081 0.0
C600 C 0.46444 0.56265 0.33779 0.0
H601 H 0.03542 0.45903 0.6889 0.0
H602 H 0.15207 0.42666 0.71663 0.0
H603 H 0.14568 0.44468 0.78531 0.0
H604 H 0.03678 0.54132 0.75664 0.0
H605 H 0.98735 0.53039 0.77042 0.0
H606 H 0.00216 0.51868 0.72229 0.0
H607 H 0.97698 0.44712 0.73452 0.0
H608 H 0.96249 0.45847 0.78283 0.0
H609 H 0.99492 0.42058 0.77687 0.0
H610 H 0.12596 0.46029 0.85048 0.0
H611 H 0.09531 0.47698 0.9106 0.0
H612 H 0.98971 0.49973 0.84357 0.0
C613 C 0.05971 0.45669 0.70946 0.0
C614 C 0.09461 0.44241 0.69757 0.0
C615 C 0.12562 0.43863 0.72518 0.0
C616 C 0.12212 0.44848 0.76419 0.0
C617 C 0.08724 0.46184 0.77524 0.0
C618 C 0.05658 0.46632 0.74888 0.0
C619 C 0.02179 0.47962 0.76949 0.0
C620 C 0.01142 0.5199 0.75377 0.0
C621 C 0.98699 0.44966 0.7657 0.0
C622 C 0.03772 0.48133 0.81152 0.0
C623 C 0.07554 0.4709 0.81381 0.0
C624 C 0.09648 0.46891 0.84914 0.0
C625 C 0.07858 0.47833 0.88324 0.0
C626 C 0.03998 0.48983 0.88202 0.0
C627 C 0.01923 0.49119 0.84553 0.0
H628 H 0.82983 0.95909 0.95944 0.0
H629 H 0.78535 0.91653 0.84758 0.0
H630 H 0.71857 0.92745 0.86615 0.0
H631 H 0.75491 0.91677 0.01681 0.0
H632 H 0.75274 0.9569 0.04909 0.0
H633 H 0.79738 0.94879 0.02606 0.0
H634 H 0.80046 0.01877 0.99623 0.0
H635 H 0.75607 0.02733 0.01961 0.0
H636 H 0.75975 0.03491 0.96732 0.0
H637 H 0.6574 0.9364 0.89896 0.0
H638 H 0.60415 0.94992 0.94139 0.0
H639 H 0.68766 0.98986 0.03182 0.0
C640 C 0.80589 0.95308 0.93878 0.0
C641 C 0.81212 0.9375 0.90202 0.0
C642 C 0.7806 0.92907 0.87559 0.0
C643 C 0.74281 0.93496 0.88598 0.0
C644 C 0.73732 0.94962 0.9228 0.0
C645 C 0.76792 0.95921 0.94861 0.0
C646 C 0.75369 0.97372 0.98668 0.0
C647 C 0.76538 0.94747 0.02172 0.0
C648 C 0.76836 0.01621 0.9928 0.0
C649 C 0.71034 0.97002 0.97843 0.0
C650 C 0.70166 0.95583 0.94149 0.0
C651 C 0.66374 0.94804 0.92775 0.0
C652 C 0.63372 0.95554 0.95221 0.0
C653 C 0.64181 0.97104 0.98983 0.0
C654 C 0.68067 0.97833 0.00306 0.0
H655 H 0.74808 0.12204 0.47834 0.0
H656 H 0.75077 0.13266 0.35171 0.0
H657 H 0.81202 0.10017 0.3528 0.0
H658 H 0.84869 0.14673 0.49382 0.0
H659 H 0.85439 0.11433 0.53573 0.0
H660 H 0.8083 0.13398 0.52472 0.0
H661 H 0.77523 0.0644 0.52297 0.0
H662 H 0.82123 0.04451 0.53407 0.0
H663 H 0.79311 0.02951 0.49104 0.0
H664 H 0.874 0.06899 0.36779 0.0
H665 H 0.93444 0.04422 0.39533 0.0
H666 H 0.89497 0.05857 0.51321 0.0
C667 C 0.7615 0.11702 0.45092 0.0
C668 C 0.7441 0.12857 0.41479 0.0
C669 C 0.7626 0.12232 0.37946 0.0
C670 C 0.79769 0.10435 0.37989 0.0
C671 C 0.8142 0.09341 0.41602 0.0
C672 C 0.79691 0.09974 0.45095 0.0
C673 C 0.82217 0.08783 0.48586 0.0
C674 C 0.83409 0.1228 0.51154 0.0
C675 C 0.80171 0.05458 0.5099 0.0
C676 C 0.85652 0.07411 0.46507 0.0
C677 C 0.85103 0.07716 0.4248 0.0
C678 C 0.87863 0.06641 0.39927 0.0
C679 C 0.91289 0.05231 0.41527 0.0
C680 C 0.91957 0.04947 0.45648 0.0
C681 C 0.89083 0.0605 0.48162 0.0
H682 H 0.32228 0.57224 0.03568 0.0
H683 H 0.32675 0.68848 0.08036 0.0
H684 H 0.25853 0.69417 0.06006 0.0
H685 H 0.24607 0.58534 0.95413 0.0
H686 H 0.22331 0.5378 0.96459 0.0
H687 H 0.2749 0.5467 0.97221 0.0
H688 H 0.2689 0.52167 0.04426 0.0
H689 H 0.21739 0.51327 0.03719 0.0
H690 H 0.2368 0.54408 0.07588 0.0
H691 H 0.18818 0.68338 0.04692 0.0
H692 H 0.1203 0.65679 0.04094 0.0
H693 H 0.15998 0.54575 0.00884 0.0
C694 C 0.30907 0.59928 0.03965 0.0
C695 C 0.32987 0.63027 0.0585 0.0
C696 C 0.31162 0.66498 0.06457 0.0
C697 C 0.27281 0.66837 0.05338 0.0
C698 C 0.25249 0.63663 0.0365 0.0
C699 C 0.26997 0.60276 0.02942 0.0
C700 C 0.24033 0.57093 0.01683 0.0
C701 C 0.24652 0.55954 0.97441 0.0
C702 C 0.2409 0.53542 0.04524 0.0
C703 C 0.2035 0.59169 0.01978 0.0
C704 C 0.21119 0.62979 0.03032 0.0
C705 C 0.18172 0.65381 0.03785 0.0
C706 C 0.14328 0.6384 0.03462 0.0
C707 C 0.13481 0.59923 0.02446 0.0
C708 C 0.16543 0.57589 0.01646 0.0
H709 H 0.1649 0.44514 0.55565 0.0
H710 H 0.18565 0.34678 0.63322 0.0
H711 H 0.25136 0.3449 0.6081 0.0
H712 H 0.22996 0.42376 0.47421 0.0
H713 H 0.24675 0.47414 0.46866 0.0
H714 H 0.19826 0.46124 0.48441 0.0
H715 H 0.21184 0.5027 0.546 0.0
H716 H 0.26041 0.51538 0.53086 0.0
H717 H 0.25234 0.49295 0.57855 0.0
H718 H 0.31732 0.35912 0.58163 0.0
H719 H 0.37925 0.38995 0.55932 0.0
H720 H 0.31864 0.48482 0.50532 0.0
C721 C 0.18303 0.42256 0.56637 0.0
C722 C 0.16981 0.39541 0.59552 0.0
C723 C 0.19446 0.36674 0.60966 0.0
C724 C 0.23205 0.36577 0.59582 0.0
C725 C 0.24482 0.39413 0.56836 0.0
C726 C 0.22108 0.42215 0.55389 0.0
C727 C 0.24354 0.45303 0.52967 0.0
C728 C 0.22874 0.45303 0.48668 0.0
C729 C 0.24194 0.49338 0.54734 0.0
C730 C 0.28388 0.43866 0.53376 0.0
C731 C 0.28374 0.40409 0.5553 0.0
C732 C 0.31771 0.38594 0.56437 0.0
C733 C 0.35281 0.40377 0.55155 0.0
C734 C 0.35391 0.43988 0.53054 0.0
C735 C 0.3188 0.4572 0.5212 0.0
H736 H 0.9375 0.85375 0.93694 0.0
H737 H 0.88321 0.83049 0.82333 0.0
H738 H 0.90019 0.76189 0.82987 0.0
H739 H 0.01628 0.78495 0.93208 0.0
H740 H 0.01254 0.77173 0.9834 0.0
H741 H 0.0021 0.81985 0.96615 0.0
H742 H 0.93465 0.81051 0.99701 0.0
H743 H 0.94441 0.76215 0.01364 0.0
H744 H 0.90209 0.76994 0.98293 0.0
H745 H 0.9148 0.69436 0.85351 0.0
H746 H 0.93049 0.63409 0.88956 0.0
H747 H 0.97434 0.70203 0.98865 0.0
C748 C 0.93054 0.83433 0.913 0.0
C749 C 0.90971 0.84702 0.87942 0.0
C750 C 0.89998 0.82111 0.84881 0.0
C751 C 0.90926 0.7822 0.85248 0.0
C752 C 0.92839 0.77005 0.88689 0.0
C753 C 0.93946 0.79554 0.91636 0.0
C754 C 0.9567 0.77474 0.95176 0.0
C755 C 0.99945 0.78864 0.95874 0.0
C756 C 0.93304 0.77963 0.98848 0.0
C757 C 0.95262 0.73336 0.93814 0.0
C758 C 0.93647 0.73122 0.90058 0.0
C759 C 0.92804 0.69576 0.88268 0.0
C760 C 0.93682 0.66165 0.90353 0.0
C761 C 0.95376 0.66324 0.94195 0.0
C762 C 0.96168 0.69972 0.95927 0.0
H763 H 0.48153 0.68604 0.09008 0.0
H764 H 0.39319 0.69277 0.17561 0.0
H765 H 0.41758 0.75892 0.19062 0.0
H766 H 0.55753 0.76258 0.13226 0.0
H767 H 0.56661 0.78196 0.08354 0.0
H768 H 0.55419 0.73076 0.09117 0.0
H769 H 0.49779 0.73528 0.03986 0.0
H770 H 0.5091 0.78644 0.03275 0.0
H771 H 0.4612 0.7689 0.04689 0.0
H772 H 0.4391 0.82764 0.18512 0.0
H773 H 0.45543 0.89374 0.15922 0.0
H774 H 0.52326 0.84688 0.06933 0.0
C775 C 0.46887 0.70101 0.11337 0.0
C776 C 0.43649 0.68368 0.13277 0.0
C777 C 0.41937 0.70437 0.16203 0.0
C778 C 0.43277 0.74243 0.17032 0.0
C779 C 0.4627 0.75987 0.14836 0.0
C780 C 0.48068 0.73984 0.1204 0.0
C781 C 0.50539 0.76737 0.09456 0.0
C782 C 0.54849 0.76024 0.10077 0.0
C783 C 0.49256 0.76431 0.05097 0.0
C784 C 0.49644 0.80599 0.11075 0.0
C785 C 0.47296 0.80086 0.14268 0.0
C786 C 0.45818 0.83207 0.16069 0.0
C787 C 0.46742 0.86953 0.14556 0.0
C788 C 0.49052 0.87547 0.11215 0.0
C789 C 0.50561 0.84324 0.09494 0.0
H790 H 0.10363 0.33662 0.55565 0.0
H791 H 0.11417 0.3196 0.68174 0.0
H792 H 0.10673 0.24861 0.67455 0.0
H793 H 0.0337 0.26066 0.53632 0.0
H794 H 0.05429 0.24491 0.49217 0.0
H795 H 0.06268 0.29461 0.50652 0.0
H796 H 0.1368 0.28893 0.50523 0.0
H797 H 0.12866 0.2393 0.49034 0.0
H798 H 0.15843 0.2506 0.53343 0.0
H799 H 0.08901 0.18126 0.65494 0.0
H800 H 0.07334 0.11863 0.62289 0.0
H801 H 0.08138 0.17666 0.50867 0.0
C802 C 0.10499 0.31769 0.58146 0.0
C803 C 0.10822 0.33322 0.61933 0.0
C804 C 0.11044 0.30794 0.65265 0.0
C805 C 0.10647 0.26772 0.64882 0.0
C806 C 0.1015 0.25316 0.61131 0.0
C807 C 0.10185 0.27713 0.57807 0.0
C808 C 0.09611 0.2534 0.54131 0.0
C809 C 0.05951 0.26404 0.5177 0.0
C810 C 0.13215 0.25835 0.51609 0.0
C811 C 0.09119 0.21266 0.5593 0.0
C812 C 0.09408 0.21341 0.59978 0.0
C813 C 0.08754 0.18006 0.62326 0.0
C814 C 0.07837 0.14476 0.60489 0.0
C815 C 0.07657 0.14303 0.56354 0.0
C816 C 0.08322 0.17734 0.54041 0.0
H817 H 0.61285 0.21645 0.46895 0.0
H818 H 0.69501 0.26002 0.38291 0.0
H819 H 0.66652 0.32408 0.38149 0.0
H820 H 0.5322 0.2639 0.42873 0.0
H821 H 0.51294 0.27458 0.47532 0.0
H822 H 0.54102 0.23299 0.47117 0.0
H823 H 0.58835 0.25809 0.52672 0.0
H824 H 0.56003 0.2994 0.53154 0.0
H825 H 0.61108 0.30655 0.52274 0.0
H826 H 0.62697 0.38162 0.38719 0.0
H827 H 0.58342 0.43162 0.40412 0.0
H828 H 0.52671 0.35044 0.48717 0.0
C829 C 0.62514 0.23995 0.45057 0.0
C830 C 0.6563 0.23411 0.42647 0.0
C831 C 0.67151 0.26473 0.40197 0.0
C832 C 0.65533 0.30085 0.4008 0.0
C833 C 0.62398 0.30559 0.42436 0.0
C834 C 0.60933 0.27617 0.44917 0.0
C835 C 0.57531 0.28877 0.47119 0.0
C836 C 0.53817 0.26356 0.46098 0.0
C837 C 0.58424 0.28818 0.51569 0.0
C838 C 0.57308 0.32984 0.45487 0.0
C839 C 0.60123 0.33884 0.42769 0.0
C840 C 0.60492 0.37501 0.40856 0.0
C841 C 0.57986 0.40316 0.41826 0.0
C842 C 0.55157 0.39507 0.44702 0.0
C843 C 0.54786 0.3576 0.46498 0.0
loop_
_geom_bond_atom_site_label_1
_geom_bond_atom_site_label_2
_geom_bond_distance
_geom_bond_site_symmetry_2
_ccdc_geom_bond_type
C0 N1 1.317 . S
C0 N2 1.348 . S
C0 C3 1.485 . S
N1 C0 1.317 . S
N1 N5 1.370 . S
N2 C0 1.348 . S
N2 C4 1.346 . S
C3 C0 1.485 . S
C3 H7 0.960 . S
C3 H8 0.961 . S
C3 H9 0.960 . S
C4 N2 1.346 . S
C4 N5 1.307 . S
C4 C6 1.486 . S
N5 N1 1.370 . S
N5 C4 1.307 . S
C6 C4 1.486 . S
C6 H10 0.960 . S
C6 H11 0.960 . S
C6 H12 0.959 . S
H7 C3 0.960 . S
H8 C3 0.961 . S
H9 C3 0.960 . S
H10 C6 0.960 . S
H11 C6 0.960 . S
H12 C6 0.959 . S
C13 N14 1.317 . S
C13 N15 1.348 . S
C13 C16 1.485 . S
N14 C13 1.317 . S
N14 N18 1.370 . S
N15 C13 1.348 . S
N15 C17 1.346 . S
C16 C13 1.485 . S
C16 H20 0.960 . S
C16 H21 0.961 . S
C16 H22 0.960 . S
C17 N15 1.346 . S
C17 N18 1.307 . S
C17 C19 1.486 . S
N18 N14 1.370 . S
N18 C17 1.307 . S
C19 C17 1.486 . S
C19 H23 0.960 . S
C19 H24 0.960 . S
C19 H25 0.959 . S
H20 C16 0.960 . S
H21 C16 0.961 . S
H22 C16 0.960 . S
H23 C19 0.960 . S
H24 C19 0.960 . S
H25 C19 0.959 . S
C26 N27 1.317 . S
C26 N28 1.348 . S
C26 C29 1.485 . S
N27 C26 1.317 . S
N27 N31 1.370 . S
N28 C26 1.348 . S
N28 C30 1.346 . S
C29 C26 1.485 . S
C29 H33 0.960 . S
C29 H34 0.961 . S
C29 H35 0.960 . S
C30 N28 1.346 . S
C30 N31 1.307 . S
C30 C32 1.486 . S
N31 N27 1.370 . S
N31 C30 1.307 . S
C32 C30 1.486 . S
C32 H36 0.960 . S
C32 H37 0.960 . S
C32 H38 0.959 . S
H33 C29 0.960 . S
H34 C29 0.961 . S
H35 C29 0.960 . S
H36 C32 0.960 . S
H37 C32 0.960 . S
H38 C32 0.959 . S
C39 N40 1.317 . S
C39 N41 1.348 . S
C39 C42 1.485 . S
N40 C39 1.317 . S
N40 N44 1.370 . S
N41 C39 1.348 . S
N41 C43 1.346 . S
C42 C39 1.485 . S
C42 H46 0.960 . S
C42 H47 0.961 . S
C42 H48 0.960 . S
C43 N41 1.346 . S
C43 N44 1.307 . S
C43 C45 1.486 . S
N44 N40 1.370 . S
N44 C43 1.307 . S
C45 C43 1.486 . S
C45 H49 0.960 . S
C45 H50 0.960 . S
C45 H51 0.959 . S
H46 C42 0.960 . S
H47 C42 0.961 . S
H48 C42 0.960 . S
H49 C45 0.960 . S
H50 C45 0.960 . S
H51 C45 0.959 . S
C52 N53 1.317 . S
C52 N54 1.348 . S
C52 C55 1.485 . S
N53 C52 1.317 . S
N53 N57 1.370 . S
N54 C52 1.348 . S
N54 C56 1.346 . S
C55 C52 1.485 . S
C55 H59 0.960 . S
C55 H60 0.961 1_556 S
C55 H61 0.960 1_556 S
C56 N54 1.346 . S
C56 N57 1.307 . S
C56 C58 1.486 1_565 S
N57 N53 1.370 . S
N57 C56 1.307 . S
C58 C56 1.486 1_545 S
C58 H62 0.960 . S
C58 H63 0.960 . S
C58 H64 0.959 . S
H59 C55 0.960 . S
H60 C55 0.961 1_554 S
H61 C55 0.960 1_554 S
H62 C58 0.960 . S
H63 C58 0.960 . S
H64 C58 0.959 . S
C65 N66 1.317 . S
C65 N67 1.348 . S
C65 C68 1.485 . S
N66 C65 1.317 . S
N66 N70 1.370 . S
N67 C65 1.348 . S
N67 C69 1.346 . S
C68 C65 1.485 . S
C68 H72 0.960 . S
C68 H73 0.961 . S
C68 H74 0.960 . S
C69 N67 1.346 . S
C69 N70 1.307 . S
C69 C71 1.486 . S
N70 N66 1.370 . S
N70 C69 1.307 . S
C71 C69 1.486 . S
C71 H75 0.960 . S
C71 H76 0.960 . S
C71 H77 0.959 . S
H72 C68 0.960 . S
H73 C68 0.961 . S
H74 C68 0.960 . S
H75 C71 0.960 . S
H76 C71 0.960 . S
H77 C71 0.959 . S
C78 N79 1.317 . S
C78 N80 1.348 . S
C78 C81 1.485 . S
N79 C78 1.317 . S
N79 N83 1.370 . S
N80 C78 1.348 . S
N80 C82 1.346 . S
C81 C78 1.485 . S
C81 H85 0.960 . S
C81 H86 0.961 . S
C81 H87 0.960 . S
C82 N80 1.346 . S
C82 N83 1.307 . S
C82 C84 1.486 . S
N83 N79 1.370 . S
N83 C82 1.307 . S
C84 C82 1.486 . S
C84 H88 0.960 . S
C84 H89 0.960 . S
C84 H90 0.959 . S
H85 C81 0.960 . S
H86 C81 0.961 . S
H87 C81 0.960 . S
H88 C84 0.960 . S
H89 C84 0.960 . S
H90 C84 0.959 . S
C91 N92 1.317 . S
C91 N93 1.348 . S
C91 C94 1.485 . S
N92 C91 1.317 . S
N92 N96 1.370 . S
N93 C91 1.348 . S
N93 C95 1.346 . S
C94 C91 1.485 . S
C94 H98 0.960 . S
C94 H99 0.961 . S
C94 H100 0.960 . S
C95 N93 1.346 . S
C95 N96 1.307 . S
C95 C97 1.486 . S
N96 N92 1.370 . S
N96 C95 1.307 . S
C97 C95 1.486 . S
C97 H101 0.960 . S
C97 H102 0.960 . S
C97 H103 0.959 . S
H98 C94 0.960 . S
H99 C94 0.961 . S
H100 C94 0.960 . S
H101 C97 0.960 . S
H102 C97 0.960 . S
H103 C97 0.959 . S
O104 Zn105 1.953 . S
O104 C120 1.225 . S
Zn105 O104 1.953 . S
Zn105 O106 1.949 . S
Zn105 O112 1.919 1_455 S
Zn105 O117 1.924 . S
O106 Zn105 1.949 . S
O106 Zn107 1.923 1_545 S
O106 Zn108 1.950 . S
O106 Zn109 1.945 1_545 S
Zn107 O106 1.923 1_565 S
Zn107 O110 1.933 . S
Zn107 O113 1.941 1_465 S
Zn107 O114 1.965 1_565 S
Zn108 O106 1.950 . S
Zn108 O115 1.938 . S
Zn108 O116 1.906 . S
Zn108 O126 1.953 . S
Zn109 O106 1.945 1_565 S
Zn109 O111 1.932 . S
Zn109 O118 1.977 . S
Zn109 O119 1.910 . S
O110 Zn107 1.933 . S
O110 C121 1.226 . S
O111 Zn109 1.932 . S
O111 C121 1.307 . S
O112 Zn105 1.919 1_655 S
O112 C123 1.253 . S
O113 Zn107 1.941 1_645 S
O113 C123 1.283 . S
O114 Zn107 1.965 1_545 S
O114 C122 1.303 . S
O115 Zn108 1.938 . S
O115 C122 1.247 . S
O116 Zn108 1.906 . S
O116 C124 1.304 1_545 S
O117 Zn105 1.924 . S
O117 C125 1.311 1_545 S
O118 Zn109 1.977 . S
O118 C124 1.272 . S
O119 Zn109 1.910 . S
O119 C125 1.231 . S
C120 O104 1.225 . S
C120 O126 1.298 . S
C121 O110 1.226 . S
C121 O111 1.307 . S
C122 O114 1.303 . S
C122 O115 1.247 . S
C123 O112 1.253 . S
C123 O113 1.283 . S
C124 O116 1.304 1_565 S
C124 O118 1.272 . S
C125 O117 1.311 1_565 S
C125 O119 1.231 . S
O126 Zn108 1.953 . S
O126 C120 1.298 . S
O127 Zn128 1.954 1_556 S
O127 C143 1.226 1_556 S
Zn128 O127 1.954 1_554 S
Zn128 O129 1.949 . S
Zn128 O135 1.919 1_554 S
Zn128 O140 1.924 . S
O129 Zn128 1.949 . S
O129 Zn130 1.923 1_545 S
O129 Zn131 1.950 . S
O129 Zn132 1.945 . S
Zn130 O129 1.923 1_565 S
Zn130 O133 1.933 . S
Zn130 O136 1.941 1_554 S
Zn130 O137 1.965 . S
Zn131 O129 1.950 . S
Zn131 O138 1.938 . S
Zn131 O139 1.906 . S
Zn131 O149 1.953 . S
Zn132 O129 1.945 . S
Zn132 O134 1.932 1_545 S
Zn132 O141 1.977 . S
Zn132 O142 1.910 . S
O133 Zn130 1.933 . S
O133 C144 1.226 . S
O134 Zn132 1.932 1_565 S
O134 C144 1.307 . S
O135 Zn128 1.919 1_556 S
O135 C146 1.253 1_545 S
O136 Zn130 1.941 1_556 S
O136 C146 1.283 . S
O137 Zn130 1.965 . S
O137 C145 1.303 1_565 S
O138 Zn131 1.938 . S
O138 C145 1.247 . S
O139 Zn131 1.906 . S
O139 C147 1.304 . S
O140 Zn128 1.924 . S
O140 C148 1.311 . S
O141 Zn132 1.977 . S
O141 C147 1.272 . S
O142 Zn132 1.910 . S
O142 C148 1.231 . S
C143 O127 1.226 1_554 S
C143 O149 1.298 . S
C144 O133 1.226 . S
C144 O134 1.307 . S
C145 O137 1.303 1_545 S
C145 O138 1.247 . S
C146 O135 1.253 1_565 S
C146 O136 1.283 . S
C147 O139 1.304 . S
C147 O141 1.272 . S
C148 O140 1.311 . S
C148 O142 1.231 . S
O149 Zn131 1.953 . S
O149 C143 1.298 . S
O150 Zn151 1.953 . S
O150 C166 1.225 . S
Zn151 O150 1.953 . S
Zn151 O152 1.949 . S
Zn151 O158 1.919 . S
Zn151 O163 1.924 . S
O152 Zn151 1.949 . S
O152 Zn153 1.923 . S
O152 Zn154 1.950 . S
O152 Zn155 1.945 . S
Zn153 O152 1.923 . S
Zn153 O156 1.933 . S
Zn153 O159 1.941 . S
Zn153 O160 1.965 . S
Zn154 O152 1.950 . S
Zn154 O161 1.938 . S
Zn154 O162 1.906 . S
Zn154 O172 1.953 . S
Zn155 O152 1.945 . S
Zn155 O157 1.932 . S
Zn155 O164 1.977 . S
Zn155 O165 1.910 . S
O156 Zn153 1.933 . S
O156 C167 1.226 . S
O157 Zn155 1.932 . S
O157 C167 1.307 . S
O158 Zn151 1.919 . S
O158 C169 1.253 . S
O159 Zn153 1.941 . S
O159 C169 1.283 . S
O160 Zn153 1.965 . S
O160 C168 1.303 . S
O161 Zn154 1.938 . S
O161 C168 1.247 . S
O162 Zn154 1.906 . S
O162 C170 1.304 . S
O163 Zn151 1.924 . S
O163 C171 1.311 . S
O164 Zn155 1.977 . S
O164 C170 1.272 . S
O165 Zn155 1.910 . S
O165 C171 1.231 . S
C166 O150 1.225 . S
C166 O172 1.298 . S
C167 O156 1.226 . S
C167 O157 1.307 . S
C168 O160 1.303 . S
C168 O161 1.247 . S
C169 O158 1.253 . S
C169 O159 1.283 . S
C170 O162 1.304 . S
C170 O164 1.272 . S
C171 O163 1.311 . S
C171 O165 1.231 . S
O172 Zn154 1.953 . S
O172 C166 1.298 . S
O173 Zn174 1.953 . S
O173 C189 1.225 . S
Zn174 O173 1.953 . S
Zn174 O175 1.949 1_655 S
Zn174 O181 1.935 . S
Zn174 O186 1.924 . S
O175 Zn174 1.949 1_455 S
O175 Zn176 1.923 1_454 S
O175 Zn177 1.950 . S
O175 Zn178 1.945 1_554 S
Zn176 O175 1.923 1_656 S
Zn176 O179 1.933 1_655 S
Zn176 O182 1.941 . S
Zn176 O183 1.965 . S
Zn177 O175 1.950 . S
Zn177 O184 1.938 . S
Zn177 O185 1.906 . S
Zn177 O195 1.953 . S
Zn178 O175 1.945 1_556 S
Zn178 O180 1.932 . S
Zn178 O187 1.977 1_556 S
Zn178 O188 1.910 1_556 S
O179 Zn176 1.933 1_455 S
O179 C190 1.226 . S
O180 Zn178 1.932 . S
O180 C190 1.307 . S
O181 Zn174 1.935 . S
O181 C192 1.226 1_554 S
O182 Zn176 1.941 . S
O182 C192 1.283 . S
O183 Zn176 1.965 . S
O183 C191 1.303 . S
O184 Zn177 1.938 . S
O184 C191 1.247 1_454 S
O185 Zn177 1.906 . S
O185 C193 1.304 . S
O186 Zn174 1.924 . S
O186 C194 1.311 1_655 S
O187 Zn178 1.977 1_554 S
O187 C193 1.272 . S
O188 Zn178 1.910 1_554 S
O188 C194 1.231 . S
C189 O173 1.225 . S
C189 O195 1.298 1_655 S
C190 O179 1.226 . S
C190 O180 1.307 . S
C191 O183 1.303 . S
C191 O184 1.247 1_656 S
C192 O181 1.226 1_556 S
C192 O182 1.283 . S
C193 O185 1.304 . S
C193 O187 1.272 . S
C194 O186 1.311 1_455 S
C194 O188 1.231 . S
O195 Zn177 1.953 . S
O195 C189 1.298 1_455 S
H196 C208 0.930 . S
H197 C210 0.930 . S
H198 C211 0.930 . S
H199 C215 0.959 . S
H200 C215 0.959 . S
H201 C215 0.961 . S
H202 C216 0.960 . S
H203 C216 0.961 . S
H204 C216 0.959 . S
H205 C219 0.929 . S
H206 C220 0.931 . S
H207 C222 0.930 . S
C208 H196 0.930 . S
C208 C209 1.399 . S
C208 C213 1.399 . S
C209 C208 1.399 . S
C209 C210 1.376 . S
C210 H197 0.930 . S
C210 C209 1.376 . S
C210 C211 1.388 . S
C211 H198 0.930 . S
C211 C210 1.388 . S
C211 C212 1.390 . S
C212 C211 1.390 . S
C212 C213 1.394 . S
C212 C218 1.465 . S
C213 C208 1.399 . S
C213 C212 1.394 . S
C213 C214 1.516 . S
C214 C213 1.516 . S
C214 C215 1.502 . S
C214 C216 1.561 . S
C214 C217 1.526 . S
C215 H199 0.959 . S
C215 H200 0.959 . S
C215 H201 0.961 . S
C215 C214 1.502 . S
C216 H202 0.960 . S
C216 H203 0.961 . S
C216 H204 0.959 . S
C216 C214 1.561 . S
C217 C214 1.526 . S
C217 C218 1.396 . S
C217 C222 1.390 . S
C218 C212 1.465 . S
C218 C217 1.396 . S
C218 C219 1.399 . S
C219 H205 0.929 . S
C219 C218 1.399 . S
C219 C220 1.385 . S
C220 H206 0.931 . S
C220 C219 1.385 . S
C220 C221 1.389 . S
C221 C220 1.389 . S
C221 C222 1.387 . S
C222 H207 0.930 . S
C222 C217 1.390 . S
C222 C221 1.387 . S
H223 C235 0.930 . S
H224 C237 0.930 . S
H225 C238 0.930 . S
H226 C242 0.959 . S
H227 C242 0.959 . S
H228 C242 0.961 . S
H229 C243 0.960 . S
H230 C243 0.961 . S
H231 C243 0.959 . S
H232 C246 0.925 1_545 S
H233 C247 0.931 1_545 S
H234 C249 0.930 . S
C235 H223 0.930 . S
C235 C236 1.399 . S
C235 C240 1.399 . S
C236 C235 1.399 . S
C236 C237 1.376 . S
C237 H224 0.930 . S
C237 C236 1.376 . S
C237 C238 1.388 . S
C238 H225 0.930 . S
C238 C237 1.388 . S
C238 C239 1.390 . S
C239 C238 1.390 . S
C239 C240 1.394 . S
C239 C245 1.465 . S
C240 C235 1.399 . S
C240 C239 1.394 . S
C240 C241 1.516 . S
C241 C240 1.516 . S
C241 C242 1.502 . S
C241 C243 1.561 . S
C241 C244 1.526 . S
C242 H226 0.959 . S
C242 H227 0.959 . S
C242 H228 0.961 . S
C242 C241 1.502 . S
C243 H229 0.960 . S
C243 H230 0.961 . S
C243 H231 0.959 . S
C243 C241 1.561 . S
C244 C241 1.526 . S
C244 C245 1.396 . S
C244 C249 1.390 . S
C245 C239 1.465 . S
C245 C244 1.396 . S
C245 C246 1.399 . S
C246 H232 0.925 1_565 S
C246 C245 1.399 . S
C246 C247 1.385 . S
C247 H233 0.931 1_565 S
C247 C246 1.385 . S
C247 C248 1.389 . S
C248 C247 1.389 . S
C248 C249 1.387 . S
C249 H234 0.930 . S
C249 C244 1.390 . S
C249 C248 1.387 . S
H250 C262 0.930 . S
H251 C264 0.930 . S
H252 C265 0.930 . S
H253 C269 0.959 . S
H254 C269 0.959 . S
H255 C269 0.961 . S
H256 C270 0.960 . S
H257 C270 0.961 . S
H258 C270 0.959 . S
H259 C273 0.929 . S
H260 C274 0.931 . S
H261 C276 0.930 . S
C262 H250 0.930 . S
C262 C263 1.399 . S
C262 C267 1.399 . S
C263 C262 1.399 . S
C263 C264 1.376 . S
C264 H251 0.930 . S
C264 C263 1.376 . S
C264 C265 1.388 . S
C265 H252 0.930 . S
C265 C264 1.388 . S
C265 C266 1.390 . S
C266 C265 1.390 . S
C266 C267 1.394 . S
C266 C272 1.465 . S
C267 C262 1.399 . S
C267 C266 1.394 . S
C267 C268 1.516 . S
C268 C267 1.516 . S
C268 C269 1.502 . S
C268 C270 1.561 . S
C268 C271 1.526 . S
C269 H253 0.959 . S
C269 H254 0.959 . S
C269 H255 0.961 . S
C269 C268 1.502 . S
C270 H256 0.960 . S
C270 H257 0.961 . S
C270 H258 0.959 . S
C270 C268 1.561 . S
C271 C268 1.526 . S
C271 C272 1.396 . S
C271 C276 1.390 . S
C272 C266 1.465 . S
C272 C271 1.396 . S
C272 C273 1.399 . S
C273 H259 0.929 . S
C273 C272 1.399 . S
C273 C274 1.385 . S
C274 H260 0.931 . S
C274 C273 1.385 . S
C274 C275 1.389 . S
C275 C274 1.389 . S
C275 C276 1.387 . S
C276 H261 0.930 . S
C276 C271 1.390 . S
C276 C275 1.387 . S
H277 C289 0.930 . S
H278 C291 0.930 . S
H279 C292 0.930 . S
H280 C296 0.959 . S
H281 C296 0.959 . S
H282 C296 0.961 . S
H283 C297 0.960 . S
H284 C297 0.961 . S
H285 C297 0.959 . S
H286 C300 0.929 . S
H287 C301 0.931 . S
H288 C303 0.930 . S
C289 H277 0.930 . S
C289 C290 1.399 . S
C289 C294 1.399 . S
C290 C289 1.399 . S
C290 C291 1.376 . S
C291 H278 0.930 . S
C291 C290 1.376 . S
C291 C292 1.388 . S
C292 H279 0.930 . S
C292 C291 1.388 . S
C292 C293 1.390 . S
C293 C292 1.390 . S
C293 C294 1.394 . S
C293 C299 1.465 . S
C294 C289 1.399 . S
C294 C293 1.394 . S
C294 C295 1.516 . S
C295 C294 1.516 . S
C295 C296 1.502 . S
C295 C297 1.561 . S
C295 C298 1.526 . S
C296 H280 0.959 . S
C296 H281 0.959 . S
C296 H282 0.961 . S
C296 C295 1.502 . S
C297 H283 0.960 . S
C297 H284 0.961 . S
C297 H285 0.959 . S
C297 C295 1.561 . S
C298 C295 1.526 . S
C298 C299 1.396 . S
C298 C303 1.390 . S
C299 C293 1.465 . S
C299 C298 1.396 . S
C299 C300 1.399 . S
C300 H286 0.929 . S
C300 C299 1.399 . S
C300 C301 1.385 . S
C301 H287 0.931 . S
C301 C300 1.385 . S
C301 C302 1.389 . S
C302 C301 1.389 . S
C302 C303 1.387 . S
C303 H288 0.930 . S
C303 C298 1.390 . S
C303 C302 1.387 . S
H304 C316 0.930 . S
H305 C318 0.930 . S
H306 C319 0.930 . S
H307 C323 0.959 . S
H308 C323 0.959 . S
H309 C323 0.961 . S
H310 C324 0.960 . S
H311 C324 0.961 . S
H312 C324 0.959 . S
H313 C327 0.929 . S
H314 C328 0.931 . S
H315 C330 0.930 . S
C316 H304 0.930 . S
C316 C317 1.399 . S
C316 C321 1.399 . S
C317 C316 1.399 . S
C317 C318 1.376 . S
C318 H305 0.930 . S
C318 C317 1.376 . S
C318 C319 1.388 . S
C319 H306 0.930 . S
C319 C318 1.388 . S
C319 C320 1.390 . S
C320 C319 1.390 . S
C320 C321 1.394 . S
C320 C326 1.465 . S
C321 C316 1.399 . S
C321 C320 1.394 . S
C321 C322 1.516 . S
C322 C321 1.516 . S
C322 C323 1.502 . S
C322 C324 1.561 . S
C322 C325 1.526 . S
C323 H307 0.959 . S
C323 H308 0.959 . S
C323 H309 0.961 . S
C323 C322 1.502 . S
C324 H310 0.960 . S
C324 H311 0.961 . S
C324 H312 0.959 . S
C324 C322 1.561 . S
C325 C322 1.526 . S
C325 C326 1.396 . S
C325 C330 1.390 . S
C326 C320 1.465 . S
C326 C325 1.396 . S
C326 C327 1.399 . S
C327 H313 0.929 . S
C327 C326 1.399 . S
C327 C328 1.385 . S
C328 H314 0.931 . S
C328 C327 1.385 . S
C328 C329 1.389 . S
C329 C328 1.389 . S
C329 C330 1.387 . S
C330 H315 0.930 . S
C330 C325 1.390 . S
C330 C329 1.387 . S
H331 C343 0.930 . S
H332 C345 0.930 . S
H333 C346 0.930 . S
H334 C350 0.959 . S
H335 C350 0.959 . S
H336 C350 0.961 . S
H337 C351 0.960 . S
H338 C351 0.961 . S
H339 C351 0.959 . S
H340 C354 0.929 . S
H341 C355 0.931 . S
H342 C357 0.930 . S
C343 H331 0.930 . S
C343 C344 1.399 . S
C343 C348 1.399 . S
C344 C343 1.399 . S
C344 C345 1.376 . S
C345 H332 0.930 . S
C345 C344 1.376 . S
C345 C346 1.388 . S
C346 H333 0.930 . S
C346 C345 1.388 . S
C346 C347 1.390 . S
C347 C346 1.390 . S
C347 C348 1.394 . S
C347 C353 1.465 . S
C348 C343 1.399 . S
C348 C347 1.394 . S
C348 C349 1.516 . S
C349 C348 1.516 . S
C349 C350 1.502 . S
C349 C351 1.561 . S
C349 C352 1.526 . S
C350 H334 0.959 . S
C350 H335 0.959 . S
C350 H336 0.961 . S
C350 C349 1.502 . S
C351 H337 0.960 . S
C351 H338 0.961 . S
C351 H339 0.959 . S
C351 C349 1.561 . S
C352 C349 1.526 . S
C352 C353 1.396 . S
C352 C357 1.390 . S
C353 C347 1.465 . S
C353 C352 1.396 . S
C353 C354 1.399 . S
C354 H340 0.929 . S
C354 C353 1.399 . S
C354 C355 1.385 . S
C355 H341 0.931 . S
C355 C354 1.385 . S
C355 C356 1.389 . S
C356 C355 1.389 . S
C356 C357 1.387 . S
C357 H342 0.930 . S
C357 C352 1.390 . S
C357 C356 1.387 . S
H358 C370 0.930 . S
H359 C372 0.930 . S
H360 C373 0.930 . S
H361 C377 0.959 . S
H362 C377 0.959 . S
H363 C377 0.961 . S
H364 C378 0.960 . S
H365 C378 0.961 . S
H366 C378 0.959 . S
H367 C381 0.929 . S
H368 C382 0.931 . S
H369 C384 0.930 . S
C370 H358 0.930 . S
C370 C371 1.399 . S
C370 C375 1.399 . S
C371 C370 1.399 . S
C371 C372 1.376 . S
C372 H359 0.930 . S
C372 C371 1.376 . S
C372 C373 1.388 . S
C373 H360 0.930 . S
C373 C372 1.388 . S
C373 C374 1.390 . S
C374 C373 1.390 . S
C374 C375 1.394 . S
C374 C380 1.465 . S
C375 C370 1.399 . S
C375 C374 1.394 . S
C375 C376 1.516 . S
C376 C375 1.516 . S
C376 C377 1.502 . S
C376 C378 1.561 . S
C376 C379 1.526 . S
C377 H361 0.959 . S
C377 H362 0.959 . S
C377 H363 0.961 . S
C377 C376 1.502 . S
C378 H364 0.960 . S
C378 H365 0.961 . S
C378 H366 0.959 . S
C378 C376 1.561 . S
C379 C376 1.526 . S
C379 C380 1.396 . S
C379 C384 1.390 . S
C380 C374 1.465 . S
C380 C379 1.396 . S
C380 C381 1.399 . S
C381 H367 0.929 . S
C381 C380 1.399 . S
C381 C382 1.385 . S
C382 H368 0.931 . S
C382 C381 1.385 . S
C382 C383 1.389 . S
C383 C382 1.389 . S
C383 C384 1.387 . S
C384 H369 0.930 . S
C384 C379 1.390 . S
C384 C383 1.387 . S
H385 C397 0.930 . S
H386 C399 0.930 . S
H387 C400 0.930 . S
H388 C404 0.959 . S
H389 C404 0.959 . S
H390 C404 0.961 . S
H391 C405 0.960 . S
H392 C405 0.961 . S
H393 C405 0.959 . S
H394 C408 0.929 . S
H395 C409 0.931 . S
H396 C411 0.930 . S
C397 H385 0.930 . S
C397 C398 1.399 . S
C397 C402 1.399 . S
C398 C397 1.399 . S
C398 C399 1.376 . S
C399 H386 0.930 . S
C399 C398 1.376 . S
C399 C400 1.388 . S
C400 H387 0.930 . S
C400 C399 1.388 . S
C400 C401 1.390 . S
C401 C400 1.390 . S
C401 C402 1.394 . S
C401 C407 1.465 . S
C402 C397 1.399 . S
C402 C401 1.394 . S
C402 C403 1.516 . S
C403 C402 1.516 . S
C403 C404 1.502 . S
C403 C405 1.561 . S
C403 C406 1.526 . S
C404 H388 0.959 . S
C404 H389 0.959 . S
C404 H390 0.961 . S
C404 C403 1.502 . S
C405 H391 0.960 . S
C405 H392 0.961 . S
C405 H393 0.959 . S
C405 C403 1.561 . S
C406 C403 1.526 . S
C406 C407 1.396 . S
C406 C411 1.390 . S
C407 C401 1.465 . S
C407 C406 1.396 . S
C407 C408 1.399 . S
C408 H394 0.929 . S
C408 C407 1.399 . S
C408 C409 1.385 . S
C409 H395 0.931 . S
C409 C408 1.385 . S
C409 C410 1.389 . S
C410 C409 1.389 . S
C410 C411 1.387 . S
C411 H396 0.930 . S
C411 C406 1.390 . S
C411 C410 1.387 . S
H412 C424 0.930 . S
H413 C426 0.930 . S
H414 C427 0.930 . S
H415 C431 0.959 . S
H416 C431 0.959 . S
H417 C431 0.961 . S
H418 C432 0.960 . S
H419 C432 0.961 1_556 S
H420 C432 0.959 . S
H421 C435 0.929 . S
H422 C436 0.934 . S
H423 C438 0.930 . S
C424 H412 0.930 . S
C424 C425 1.399 . S
C424 C429 1.399 . S
C425 C424 1.399 . S
C425 C426 1.376 . S
C426 H413 0.930 . S
C426 C425 1.376 . S
C426 C427 1.388 . S
C427 H414 0.930 . S
C427 C426 1.388 . S
C427 C428 1.390 . S
C428 C427 1.390 . S
C428 C429 1.394 . S
C428 C434 1.465 . S
C429 C424 1.399 . S
C429 C428 1.394 . S
C429 C430 1.516 . S
C430 C429 1.516 . S
C430 C431 1.502 . S
C430 C432 1.561 . S
C430 C433 1.526 . S
C431 H415 0.959 . S
C431 H416 0.959 . S
C431 H417 0.961 . S
C431 C430 1.502 . S
C432 H418 0.960 . S
C432 H419 0.961 1_554 S
C432 H420 0.959 . S
C432 C430 1.561 . S
C433 C430 1.526 . S
C433 C434 1.396 . S
C433 C438 1.390 . S
C434 C428 1.465 . S
C434 C433 1.396 . S
C434 C435 1.399 . S
C435 H421 0.929 . S
C435 C434 1.399 . S
C435 C436 1.385 . S
C436 H422 0.934 . S
C436 C435 1.385 . S
C436 C437 1.389 . S
C437 C436 1.389 . S
C437 C438 1.387 . S
C438 H423 0.930 . S
C438 C433 1.390 . S
C438 C437 1.387 . S
H439 C451 0.930 . S
H440 C453 0.930 . S
H441 C454 0.930 . S
H442 C458 0.959 . S
H443 C458 0.959 . S
H444 C458 0.961 . S
H445 C459 0.960 . S
H446 C459 0.961 . S
H447 C459 0.959 . S
H448 C462 0.929 . S
H449 C463 0.931 . S
H450 C465 0.930 . S
C451 H439 0.930 . S
C451 C452 1.399 . S
C451 C456 1.399 . S
C452 C451 1.399 . S
C452 C453 1.376 . S
C453 H440 0.930 . S
C453 C452 1.376 . S
C453 C454 1.388 . S
C454 H441 0.930 . S
C454 C453 1.388 . S
C454 C455 1.390 . S
C455 C454 1.390 . S
C455 C456 1.394 . S
C455 C461 1.465 . S
C456 C451 1.399 . S
C456 C455 1.394 . S
C456 C457 1.516 1_556 S
C457 C456 1.516 1_554 S
C457 C458 1.502 . S
C457 C459 1.561 . S
C457 C460 1.526 1_554 S
C458 H442 0.959 . S
C458 H443 0.959 . S
C458 H444 0.961 . S
C458 C457 1.502 . S
C459 H445 0.960 . S
C459 H446 0.961 . S
C459 H447 0.959 . S
C459 C457 1.561 . S
C460 C457 1.526 1_556 S
C460 C461 1.396 . S
C460 C465 1.390 1_556 S
C461 C455 1.465 . S
C461 C460 1.396 . S
C461 C462 1.399 . S
C462 H448 0.929 . S
C462 C461 1.399 . S
C462 C463 1.385 . S
C463 H449 0.931 . S
C463 C462 1.385 . S
C463 C464 1.389 . S
C464 C463 1.389 . S
C464 C465 1.387 1_556 S
C465 H450 0.930 . S
C465 C460 1.390 1_554 S
C465 C464 1.387 1_554 S
H466 C478 0.930 . S
H467 C480 0.930 . S
H468 C481 0.930 . S
H469 C485 0.959 . S
H470 C485 0.959 . S
H471 C485 0.961 . S
H472 C486 0.960 . S
H473 C486 0.961 . S
H474 C486 0.959 1_455 S
H475 C489 0.929 . S
H476 C490 0.931 . S
H477 C492 0.930 . S
C478 H466 0.930 . S
C478 C479 1.399 . S
C478 C483 1.399 . S
C479 C478 1.399 . S
C479 C480 1.376 . S
C480 H467 0.930 . S
C480 C479 1.376 . S
C480 C481 1.388 . S
C481 H468 0.930 . S
C481 C480 1.388 . S
C481 C482 1.390 . S
C482 C481 1.390 . S
C482 C483 1.394 . S
C482 C488 1.465 . S
C483 C478 1.399 . S
C483 C482 1.394 . S
C483 C484 1.516 . S
C484 C483 1.516 . S
C484 C485 1.502 . S
C484 C486 1.561 . S
C484 C487 1.526 . S
C485 H469 0.959 . S
C485 H470 0.959 . S
C485 H471 0.961 . S
C485 C484 1.502 . S
C486 H472 0.960 . S
C486 H473 0.961 . S
C486 H474 0.959 1_655 S
C486 C484 1.561 . S
C487 C484 1.526 . S
C487 C488 1.396 . S
C487 C492 1.390 . S
C488 C482 1.465 . S
C488 C487 1.396 . S
C488 C489 1.399 . S
C489 H475 0.929 . S
C489 C488 1.399 . S
C489 C490 1.385 1_655 S
C490 H476 0.931 . S
C490 C489 1.385 1_455 S
C490 C491 1.393 . S
C491 C490 1.393 . S
C491 C492 1.378 1_455 S
C492 H477 0.930 . S
C492 C487 1.390 . S
C492 C491 1.378 1_655 S
H493 C505 0.930 . S
H494 C507 0.930 . S
H495 C508 0.930 . S
H496 C512 0.959 . S
H497 C512 0.959 . S
H498 C512 0.961 . S
H499 C513 0.960 . S
H500 C513 0.961 . S
H501 C513 0.959 . S
H502 C516 0.929 . S
H503 C517 0.931 . S
H504 C519 0.930 . S
C505 H493 0.930 . S
C505 C506 1.399 . S
C505 C510 1.399 . S
C506 C505 1.399 . S
C506 C507 1.376 . S
C507 H494 0.930 . S
C507 C506 1.376 . S
C507 C508 1.388 . S
C508 H495 0.930 . S
C508 C507 1.388 . S
C508 C509 1.390 . S
C509 C508 1.390 . S
C509 C510 1.394 . S
C509 C515 1.465 . S
C510 C505 1.399 . S
C510 C509 1.394 . S
C510 C511 1.516 . S
C511 C510 1.516 . S
C511 C512 1.502 . S
C511 C513 1.561 . S
C511 C514 1.526 . S
C512 H496 0.959 . S
C512 H497 0.959 . S
C512 H498 0.961 . S
C512 C511 1.502 . S
C513 H499 0.960 . S
C513 H500 0.961 . S
C513 H501 0.959 . S
C513 C511 1.561 . S
C514 C511 1.526 . S
C514 C515 1.396 . S
C514 C519 1.390 . S
C515 C509 1.465 . S
C515 C514 1.396 . S
C515 C516 1.399 . S
C516 H502 0.929 . S
C516 C515 1.399 . S
C516 C517 1.385 . S
C517 H503 0.931 . S
C517 C516 1.385 . S
C517 C518 1.389 . S
C518 C517 1.389 . S
C518 C519 1.387 . S
C519 H504 0.930 . S
C519 C514 1.390 . S
C519 C518 1.387 . S
H520 C532 0.930 . S
H521 C534 0.930 . S
H522 C535 0.930 . S
H523 C539 0.959 . S
H524 C539 0.959 . S
H525 C539 0.961 . S
H526 C540 0.960 . S
H527 C540 0.961 . S
H528 C540 0.959 . S
H529 C543 0.929 . S
H530 C544 0.931 . S
H531 C546 0.930 . S
C532 H520 0.930 . S
C532 C533 1.399 . S
C532 C537 1.399 . S
C533 C532 1.399 . S
C533 C534 1.376 1_565 S
C534 H521 0.930 . S
C534 C533 1.376 1_545 S
C534 C535 1.388 . S
C535 H522 0.930 . S
C535 C534 1.388 . S
C535 C536 1.390 1_545 S
C536 C535 1.390 1_565 S
C536 C537 1.394 . S
C536 C542 1.465 . S
C537 C532 1.399 . S
C537 C536 1.394 . S
C537 C538 1.533 . S
C538 C537 1.533 . S
C538 C539 1.474 1_655 S
C538 C540 1.575 . S
C538 C541 1.528 . S
C539 H523 0.959 . S
C539 H524 0.959 . S
C539 H525 0.961 . S
C539 C538 1.474 1_455 S
C540 H526 0.960 . S
C540 H527 0.961 . S
C540 H528 0.959 . S
C540 C538 1.575 . S
C541 C538 1.528 . S
C541 C542 1.396 . S
C541 C546 1.390 1_655 S
C542 C536 1.465 . S
C542 C541 1.396 . S
C542 C543 1.399 1_565 S
C543 H529 0.929 . S
C543 C542 1.399 1_545 S
C543 C544 1.385 . S
C544 H530 0.931 . S
C544 C543 1.385 . S
C544 C545 1.389 1_645 S
C545 C544 1.389 1_465 S
C545 C546 1.387 . S
C546 H531 0.930 . S
C546 C541 1.390 1_455 S
C546 C545 1.387 . S
H547 C559 0.930 . S
H548 C561 0.930 . S
H549 C562 0.930 1_565 S
H550 C566 0.959 . S
H551 C566 0.959 . S
H552 C566 0.961 . S
H553 C567 0.960 . S
H554 C567 0.961 . S
H555 C567 0.959 . S
H556 C570 0.929 . S
H557 C571 0.931 . S
H558 C573 0.930 . S
C559 H547 0.930 . S
C559 C560 1.399 . S
C559 C564 1.399 . S
C560 C559 1.399 . S
C560 C561 1.376 . S
C561 H548 0.930 . S
C561 C560 1.376 . S
C561 C562 1.388 . S
C562 H549 0.930 1_545 S
C562 C561 1.388 . S
C562 C563 1.390 . S
C563 C562 1.390 . S
C563 C564 1.394 . S
C563 C569 1.465 . S
C564 C559 1.399 . S
C564 C563 1.394 . S
C564 C565 1.516 . S
C565 C564 1.516 . S
C565 C566 1.502 . S
C565 C567 1.561 . S
C565 C568 1.526 . S
C566 H550 0.959 . S
C566 H551 0.959 . S
C566 H552 0.961 . S
C566 C565 1.502 . S
C567 H553 0.960 . S
C567 H554 0.961 . S
C567 H555 0.959 . S
C567 C565 1.561 . S
C568 C565 1.526 . S
C568 C569 1.396 . S
C568 C573 1.390 . S
C569 C563 1.465 . S
C569 C568 1.396 . S
C569 C570 1.399 1_545 S
C570 H556 0.929 . S
C570 C569 1.399 1_565 S
C570 C571 1.385 . S
C571 H557 0.931 . S
C571 C570 1.385 . S
C571 C572 1.389 1_565 S
C572 C571 1.389 1_545 S
C572 C573 1.387 . S
C573 H558 0.930 . S
C573 C568 1.390 . S
C573 C572 1.387 . S
H574 C586 0.930 . S
H575 C588 0.930 . S
H576 C589 0.930 . S
H577 C593 0.959 . S
H578 C593 0.959 . S
H579 C593 0.961 . S
H580 C594 0.960 . S
H581 C594 0.961 . S
H582 C594 0.959 . S
H583 C597 0.929 . S
H584 C598 0.931 . S
H585 C600 0.930 . S
C586 H574 0.930 . S
C586 C587 1.399 . S
C586 C591 1.399 . S
C587 C586 1.399 . S
C587 C588 1.376 . S
C588 H575 0.930 . S
C588 C587 1.376 . S
C588 C589 1.388 . S
C589 H576 0.930 . S
C589 C588 1.388 . S
C589 C590 1.390 . S
C590 C589 1.390 . S
C590 C591 1.394 . S
C590 C596 1.465 . S
C591 C586 1.399 . S
C591 C590 1.394 . S
C591 C592 1.516 . S
C592 C591 1.516 . S
C592 C593 1.502 . S
C592 C594 1.561 . S
C592 C595 1.526 . S
C593 H577 0.959 . S
C593 H578 0.959 . S
C593 H579 0.961 . S
C593 C592 1.502 . S
C594 H580 0.960 . S
C594 H581 0.961 . S
C594 H582 0.959 . S
C594 C592 1.561 . S
C595 C592 1.526 . S
C595 C596 1.396 . S
C595 C600 1.390 . S
C596 C590 1.465 . S
C596 C595 1.396 . S
C596 C597 1.399 . S
C597 H583 0.929 . S
C597 C596 1.399 . S
C597 C598 1.385 . S
C598 H584 0.931 . S
C598 C597 1.385 . S
C598 C599 1.389 . S
C599 C598 1.389 . S
C599 C600 1.387 . S
C600 H585 0.930 . S
C600 C595 1.390 . S
C600 C599 1.387 . S
H601 C613 0.930 . S
H602 C615 0.930 . S
H603 C616 0.930 . S
H604 C620 0.959 . S
H605 C620 0.959 . S
H606 C620 0.961 . S
H607 C621 0.960 . S
H608 C621 0.961 . S
H609 C621 0.959 1_655 S
H610 C624 0.929 . S
H611 C625 0.931 . S
H612 C627 0.930 . S
C613 H601 0.930 . S
C613 C614 1.399 . S
C613 C618 1.399 . S
C614 C613 1.399 . S
C614 C615 1.376 . S
C615 H602 0.930 . S
C615 C614 1.376 . S
C615 C616 1.388 . S
C616 H603 0.930 . S
C616 C615 1.388 . S
C616 C617 1.390 . S
C617 C616 1.390 . S
C617 C618 1.394 . S
C617 C623 1.465 . S
C618 C613 1.399 . S
C618 C617 1.394 . S
C618 C619 1.516 . S
C619 C618 1.516 . S
C619 C620 1.502 . S
C619 C621 1.561 . S
C619 C622 1.526 . S
C620 H604 0.959 . S
C620 H605 0.959 . S
C620 H606 0.961 . S
C620 C619 1.502 . S
C621 H607 0.960 . S
C621 H608 0.961 . S
C621 H609 0.959 1_455 S
C621 C619 1.561 . S
C622 C619 1.526 . S
C622 C623 1.396 . S
C622 C627 1.390 . S
C623 C617 1.465 . S
C623 C622 1.396 . S
C623 C624 1.399 . S
C624 H610 0.929 . S
C624 C623 1.399 . S
C624 C625 1.385 . S
C625 H611 0.931 . S
C625 C624 1.385 . S
C625 C626 1.389 . S
C626 C625 1.389 . S
C626 C627 1.387 . S
C627 H612 0.930 . S
C627 C622 1.390 . S
C627 C626 1.387 . S
H628 C640 0.930 1_554 S
H629 C642 0.931 . S
H630 C643 0.930 . S
H631 C647 0.959 . S
H632 C647 0.959 . S
H633 C647 0.961 . S
H634 C648 0.960 . S
H635 C648 0.961 . S
H636 C648 0.959 . S
H637 C651 0.929 . S
H638 C652 0.931 . S
H639 C654 0.933 . S
C640 H628 0.930 1_556 S
C640 C641 1.399 . S
C640 C645 1.399 . S
C641 C640 1.399 . S
C641 C642 1.376 . S
C642 H629 0.931 . S
C642 C641 1.376 . S
C642 C643 1.388 1_565 S
C643 H630 0.930 . S
C643 C642 1.388 1_545 S
C643 C644 1.390 . S
C644 C643 1.390 . S
C644 C645 1.392 1_545 S
C644 C650 1.466 . S
C645 C640 1.399 . S
C645 C644 1.392 1_565 S
C645 C646 1.516 1_556 S
C646 C645 1.516 1_554 S
C646 C647 1.502 . S
C646 C648 1.561 1_565 S
C646 C649 1.526 . S
C647 H631 0.959 . S
C647 H632 0.959 . S
C647 H633 0.961 . S
C647 C646 1.502 . S
C648 H634 0.960 . S
C648 H635 0.961 . S
C648 H636 0.959 . S
C648 C646 1.561 1_545 S
C649 C646 1.526 . S
C649 C650 1.396 1_564 S
C649 C654 1.392 . S
C650 C644 1.466 . S
C650 C649 1.396 1_546 S
C650 C651 1.399 . S
C651 H637 0.929 . S
C651 C650 1.399 . S
C651 C652 1.385 . S
C652 H638 0.931 . S
C652 C651 1.385 . S
C652 C653 1.389 1_556 S
C653 C652 1.389 1_554 S
C653 C654 1.381 1_545 S
C654 H639 0.933 . S
C654 C649 1.392 . S
C654 C653 1.381 1_565 S
H655 C667 0.930 . S
H656 C669 0.930 . S
H657 C670 0.930 . S
H658 C674 0.959 . S
H659 C674 0.959 . S
H660 C674 0.961 . S
H661 C675 0.960 . S
H662 C675 0.961 . S
H663 C675 0.959 1_565 S
H664 C678 0.929 . S
H665 C679 0.931 . S
H666 C681 0.930 . S
C667 H655 0.930 . S
C667 C668 1.399 . S
C667 C672 1.399 . S
C668 C667 1.399 . S
C668 C669 1.376 . S
C669 H656 0.930 . S
C669 C668 1.376 . S
C669 C670 1.388 . S
C670 H657 0.930 . S
C670 C669 1.388 . S
C670 C671 1.390 . S
C671 C670 1.390 . S
C671 C672 1.394 . S
C671 C677 1.465 . S
C672 C667 1.399 . S
C672 C671 1.394 . S
C672 C673 1.516 . S
C673 C672 1.516 . S
C673 C674 1.502 . S
C673 C675 1.561 . S
C673 C676 1.526 . S
C674 H658 0.959 . S
C674 H659 0.959 . S
C674 H660 0.961 . S
C674 C673 1.502 . S
C675 H661 0.960 . S
C675 H662 0.961 . S
C675 H663 0.959 1_545 S
C675 C673 1.561 . S
C676 C673 1.526 . S
C676 C677 1.396 . S
C676 C681 1.390 . S
C677 C671 1.465 . S
C677 C676 1.396 . S
C677 C678 1.399 . S
C678 H664 0.929 . S
C678 C677 1.399 . S
C678 C679 1.385 . S
C679 H665 0.931 . S
C679 C678 1.385 . S
C679 C680 1.389 . S
C680 C679 1.389 . S
C680 C681 1.387 . S
C681 H666 0.930 . S
C681 C676 1.390 . S
C681 C680 1.387 . S
H682 C694 0.930 . S
H683 C696 0.930 . S
H684 C697 0.930 . S
H685 C701 0.959 . S
H686 C701 0.959 . S
H687 C701 0.961 . S
H688 C702 0.960 . S
H689 C702 0.961 . S
H690 C702 0.959 1_554 S
H691 C705 0.929 . S
H692 C706 0.931 . S
H693 C708 0.930 . S
C694 H682 0.930 . S
C694 C695 1.399 . S
C694 C699 1.399 . S
C695 C694 1.399 . S
C695 C696 1.376 . S
C696 H683 0.930 . S
C696 C695 1.376 . S
C696 C697 1.388 . S
C697 H684 0.930 . S
C697 C696 1.388 . S
C697 C698 1.390 . S
C698 C697 1.390 . S
C698 C699 1.394 . S
C698 C704 1.465 . S
C699 C694 1.399 . S
C699 C698 1.394 . S
C699 C700 1.541 . S
C700 C699 1.541 . S
C700 C701 1.481 1_554 S
C700 C702 1.548 1_554 S
C700 C703 1.538 . S
C701 H685 0.959 . S
C701 H686 0.959 . S
C701 H687 0.961 . S
C701 C700 1.481 1_556 S
C702 H688 0.960 . S
C702 H689 0.961 . S
C702 H690 0.959 1_556 S
C702 C700 1.548 1_556 S
C703 C700 1.538 . S
C703 C704 1.396 . S
C703 C708 1.390 1_554 S
C704 C698 1.465 . S
C704 C703 1.396 . S
C704 C705 1.399 . S
C705 H691 0.929 . S
C705 C704 1.399 . S
C705 C706 1.385 . S
C706 H692 0.931 . S
C706 C705 1.385 . S
C706 C707 1.389 . S
C707 C706 1.389 . S
C707 C708 1.387 1_554 S
C708 H693 0.930 . S
C708 C703 1.390 1_556 S
C708 C707 1.387 1_556 S
H709 C721 0.930 . S
H710 C723 0.930 . S
H711 C724 0.930 . S
H712 C728 0.959 . S
H713 C728 0.959 . S
H714 C728 0.961 . S
H715 C729 0.960 . S
H716 C729 0.961 . S
H717 C729 0.959 . S
H718 C732 0.929 . S
H719 C733 0.931 . S
H720 C735 0.930 . S
C721 H709 0.930 . S
C721 C722 1.399 . S
C721 C726 1.399 . S
C722 C721 1.399 . S
C722 C723 1.376 . S
C723 H710 0.930 . S
C723 C722 1.376 . S
C723 C724 1.388 . S
C724 H711 0.930 . S
C724 C723 1.388 . S
C724 C725 1.390 . S
C725 C724 1.390 . S
C725 C726 1.394 . S
C725 C731 1.465 . S
C726 C721 1.399 . S
C726 C725 1.394 . S
C726 C727 1.516 . S
C727 C726 1.516 . S
C727 C728 1.502 . S
C727 C729 1.561 . S
C727 C730 1.526 . S
C728 H712 0.959 . S
C728 H713 0.959 . S
C728 H714 0.961 . S
C728 C727 1.502 . S
C729 H715 0.960 . S
C729 H716 0.961 . S
C729 H717 0.959 . S
C729 C727 1.561 . S
C730 C727 1.526 . S
C730 C731 1.396 . S
C730 C735 1.390 . S
C731 C725 1.465 . S
C731 C730 1.396 . S
C731 C732 1.399 . S
C732 H718 0.929 . S
C732 C731 1.399 . S
C732 C733 1.385 . S
C733 H719 0.931 . S
C733 C732 1.385 . S
C733 C734 1.389 . S
C734 C733 1.389 . S
C734 C735 1.387 . S
C735 H720 0.930 . S
C735 C730 1.390 . S
C735 C734 1.387 . S
H736 C748 0.930 . S
H737 C750 0.930 . S
H738 C751 0.930 . S
H739 C755 0.959 . S
H740 C755 0.959 . S
H741 C755 0.961 . S
H742 C756 0.960 . S
H743 C756 0.961 . S
H744 C756 0.959 . S
H745 C759 0.929 . S
H746 C760 0.931 . S
H747 C762 0.958 . S
C748 H736 0.930 . S
C748 C749 1.399 . S
C748 C753 1.399 . S
C749 C748 1.399 . S
C749 C750 1.376 . S
C750 H737 0.930 . S
C750 C749 1.376 . S
C750 C751 1.388 . S
C751 H738 0.930 . S
C751 C750 1.388 . S
C751 C752 1.390 . S
C752 C751 1.390 . S
C752 C753 1.394 . S
C752 C758 1.465 . S
C753 C748 1.399 . S
C753 C752 1.394 . S
C753 C754 1.516 1_556 S
C754 C753 1.516 1_554 S
C754 C755 1.502 1_655 S
C754 C756 1.561 . S
C754 C757 1.526 1_554 S
C755 H739 0.959 . S
C755 H740 0.959 . S
C755 H741 0.961 . S
C755 C754 1.502 1_455 S
C756 H742 0.960 . S
C756 H743 0.961 . S
C756 H744 0.959 . S
C756 C754 1.561 . S
C757 C754 1.526 1_556 S
C757 C758 1.396 . S
C757 C762 1.380 1_556 S
C758 C752 1.465 . S
C758 C757 1.396 . S
C758 C759 1.399 . S
C759 H745 0.929 . S
C759 C758 1.399 . S
C759 C760 1.385 . S
C760 H746 0.931 . S
C760 C759 1.385 . S
C760 C761 1.389 . S
C761 C760 1.389 . S
C761 C762 1.368 1_556 S
C762 H747 0.958 . S
C762 C757 1.380 1_554 S
C762 C761 1.368 1_554 S
H763 C775 0.930 . S
H764 C777 0.930 . S
H765 C778 0.930 . S
H766 C782 0.959 . S
H767 C782 0.959 . S
H768 C782 0.961 . S
H769 C783 0.960 . S
H770 C783 0.961 . S
H771 C783 0.959 . S
H772 C786 0.929 . S
H773 C787 0.931 . S
H774 C789 0.930 . S
C775 H763 0.930 . S
C775 C776 1.399 . S
C775 C780 1.399 . S
C776 C775 1.399 . S
C776 C777 1.376 . S
C777 H764 0.930 . S
C777 C776 1.376 . S
C777 C778 1.388 . S
C778 H765 0.930 . S
C778 C777 1.388 . S
C778 C779 1.390 . S
C779 C778 1.390 . S
C779 C780 1.394 . S
C779 C785 1.465 . S
C780 C775 1.399 . S
C780 C779 1.394 . S
C780 C781 1.516 . S
C781 C780 1.516 . S
C781 C782 1.502 . S
C781 C783 1.561 . S
C781 C784 1.526 . S
C782 H766 0.959 . S
C782 H767 0.959 . S
C782 H768 0.961 . S
C782 C781 1.502 . S
C783 H769 0.960 . S
C783 H770 0.961 . S
C783 H771 0.959 . S
C783 C781 1.561 . S
C784 C781 1.526 . S
C784 C785 1.396 . S
C784 C789 1.390 . S
C785 C779 1.465 . S
C785 C784 1.396 . S
C785 C786 1.399 . S
C786 H772 0.929 . S
C786 C785 1.399 . S
C786 C787 1.385 . S
C787 H773 0.931 . S
C787 C786 1.385 . S
C787 C788 1.389 . S
C788 C787 1.389 . S
C788 C789 1.387 . S
C789 H774 0.930 . S
C789 C784 1.390 . S
C789 C788 1.387 . S
H790 C802 0.930 . S
H791 C804 0.930 . S
H792 C805 0.930 . S
H793 C809 0.959 . S
H794 C809 0.959 . S
H795 C809 0.961 . S
H796 C810 0.960 . S
H797 C810 0.961 . S
H798 C810 0.959 . S
H799 C813 0.929 . S
H800 C814 0.931 . S
H801 C816 0.930 . S
C802 H790 0.930 . S
C802 C803 1.399 . S
C802 C807 1.399 . S
C803 C802 1.399 . S
C803 C804 1.376 . S
C804 H791 0.930 . S
C804 C803 1.376 . S
C804 C805 1.388 . S
C805 H792 0.930 . S
C805 C804 1.388 . S
C805 C806 1.390 . S
C806 C805 1.390 . S
C806 C807 1.394 . S
C806 C812 1.465 . S
C807 C802 1.399 . S
C807 C806 1.394 . S
C807 C808 1.516 . S
C808 C807 1.516 . S
C808 C809 1.502 . S
C808 C810 1.561 . S
C808 C811 1.526 . S
C809 H793 0.959 . S
C809 H794 0.959 . S
C809 H795 0.961 . S
C809 C808 1.502 . S
C810 H796 0.960 . S
C810 H797 0.961 . S
C810 H798 0.959 . S
C810 C808 1.561 . S
C811 C808 1.526 . S
C811 C812 1.396 . S
C811 C816 1.390 . S
C812 C806 1.465 . S
C812 C811 1.396 . S
C812 C813 1.399 . S
C813 H799 0.929 . S
C813 C812 1.399 . S
C813 C814 1.385 . S
C814 H800 0.931 . S
C814 C813 1.385 . S
C814 C815 1.389 . S
C815 C814 1.389 . S
C815 C816 1.387 . S
C816 H801 0.930 . S
C816 C811 1.390 . S
C816 C815 1.387 . S
H817 C829 0.930 . S
H818 C831 0.930 . S
H819 C832 0.930 . S
H820 C836 0.959 . S
H821 C836 0.959 . S
H822 C836 0.961 . S
H823 C837 0.960 . S
H824 C837 0.961 . S
H825 C837 0.959 . S
H826 C840 0.929 . S
H827 C841 0.931 . S
H828 C843 0.930 . S
C829 H817 0.930 . S
C829 C830 1.399 . S
C829 C834 1.399 . S
C830 C829 1.399 . S
C830 C831 1.376 . S
C831 H818 0.930 . S
C831 C830 1.376 . S
C831 C832 1.388 . S
C832 H819 0.930 . S
C832 C831 1.388 . S
C832 C833 1.390 . S
C833 C832 1.390 . S
C833 C834 1.394 . S
C833 C839 1.465 . S
C834 C829 1.399 . S
C834 C833 1.394 . S
C834 C835 1.516 . S
C835 C834 1.516 . S
C835 C836 1.502 . S
C835 C837 1.561 . S
C835 C838 1.526 . S
C836 H820 0.959 . S
C836 H821 0.959 . S
C836 H822 0.961 . S
C836 C835 1.502 . S
C837 H823 0.960 . S
C837 H824 0.961 . S
C837 H825 0.959 . S
C837 C835 1.561 . S
C838 C835 1.526 . S
C838 C839 1.396 . S
C838 C843 1.390 . S
C839 C833 1.465 . S
C839 C838 1.396 . S
C839 C840 1.399 . S
C840 H826 0.929 . S
C840 C839 1.399 . S
C840 C841 1.385 . S
C841 H827 0.931 . S
C841 C840 1.385 . S
C841 C842 1.389 . S
C842 C841 1.389 . S
C842 C843 1.387 . S
C843 H828 0.930 . S
C843 C838 1.390 . S
C843 C842 1.387 . S
C209 N1 1.538 . S
C221 C122 1.516 . S
C236 N18 1.879 . S
C248 C146 1.840 . S
C275 C166 1.013 . S
C263 N28 0.978 . S
C290 N40 1.567 . S
C302 C189 1.595 . S
C329 C148 1.949 . S
C317 N5 1.979 . S
C356 C124 1.714 . S
C344 N14 1.684 . S
C383 C192 1.489 . S
C371 N31 1.488 . S
C410 C169 1.200 . S
C398 N41 1.255 . S
C425 N2 1.360 . S
C437 C194 1.372 . S
C464 C143 1.670 1_556 S
C452 N27 1.628 . S
C479 N44 1.704 . S
C491 C121 1.719 . S
C506 N15 1.266 . S
C518 C171 1.216 . S
C545 C125 1.843 . S
C533 N57 1.817 . S
C560 N70 1.370 . S
C572 C147 1.392 . S
C587 N79 1.578 . S
C599 C167 1.618 . S
C614 N93 1.490 . S
C626 C190 1.517 . S
C641 N54 1.426 . S
C653 C145 1.442 . S
C680 C123 1.953 . S
C668 N66 1.928 . S
C707 C193 0.942 . S
C695 N80 1.000 . S
C734 C170 1.479 . S
C722 N96 1.492 . S
C749 N53 1.722 . S
C761 C191 1.728 . S
C788 C144 1.496 . S
C776 N83 1.415 . S
C815 C120 1.676 . S
C803 N92 1.583 . S
C830 N67 1.579 . S
C842 C168 1.617 . S
