# Generated by pormake.
# Topology pyr, (3,6)-cn, num edge types: 1
# Building blocks:
#     Node 0, Type 0, BuildingBlock: VETTIZ_charged_linker_0, # of connection points: 3
#     Node 1, Type 0, BuildingBlock: VETTIZ_charged_linker_0, # of connection points: 3
#     Node 2, Type 0, BuildingBlock: VETTIZ_charged_linker_0, # of connection points: 3
#     Node 3, Type 0, BuildingBlock: VETTIZ_charged_linker_0, # of connection points: 3
#     Node 4, Type 0, BuildingBlock: VETTIZ_charged_linker_0, # of connection points: 3
#     Node 5, Type 0, BuildingBlock: VETTIZ_charged_linker_0, # of connection points: 3
#     Node 6, Type 0, BuildingBlock: VETTIZ_charged_linker_0, # of connection points: 3
#     Node 7, Type 0, BuildingBlock: VETTIZ_charged_linker_0, # of connection points: 3
#     Node 8, Type 1, BuildingBlock: BETFEN_clean_sbu_0, # of connection points: 6
#     Node 9, Type 1, BuildingBlock: BETFEN_clean_sbu_0, # of connection points: 6
#     Node 10, Type 1, BuildingBlock: BETFEN_clean_sbu_0, # of connection points: 6
#     Node 11, Type 1, BuildingBlock: BETFEN_clean_sbu_0, # of connection points: 6
#     Edge 12, Type (0, 1), BuildingBlock: OJICUG_clean_linker_0, # of connection points: 2
#     Edge 13, Type (0, 1), BuildingBlock: OJICUG_clean_linker_0, # of connection points: 2
#     Edge 14, Type (0, 1), BuildingBlock: OJICUG_clean_linker_0, # of connection points: 2
#     Edge 15, Type (0, 1), BuildingBlock: OJICUG_clean_linker_0, # of connection points: 2
#     Edge 16, Type (0, 1), BuildingBlock: OJICUG_clean_linker_0, # of connection points: 2
#     Edge 17, Type (0, 1), BuildingBlock: OJICUG_clean_linker_0, # of connection points: 2
#     Edge 18, Type (0, 1), BuildingBlock: OJICUG_clean_linker_0, # of connection points: 2
#     Edge 19, Type (0, 1), BuildingBlock: OJICUG_clean_linker_0, # of connection points: 2
#     Edge 20, Type (0, 1), BuildingBlock: OJICUG_clean_linker_0, # of connection points: 2
#     Edge 21, Type (0, 1), BuildingBlock: OJICUG_clean_linker_0, # of connection points: 2
#     Edge 22, Type (0, 1), BuildingBlock: OJICUG_clean_linker_0, # of connection points: 2
#     Edge 23, Type (0, 1), BuildingBlock: OJICUG_clean_linker_0, # of connection points: 2
#     Edge 24, Type (0, 1), BuildingBlock: OJICUG_clean_linker_0, # of connection points: 2
#     Edge 25, Type (0, 1), BuildingBlock: OJICUG_clean_linker_0, # of connection points: 2
#     Edge 26, Type (0, 1), BuildingBlock: OJICUG_clean_linker_0, # of connection points: 2
#     Edge 27, Type (0, 1), BuildingBlock: OJICUG_clean_linker_0, # of connection points: 2
#     Edge 28, Type (0, 1), BuildingBlock: OJICUG_clean_linker_0, # of connection points: 2
#     Edge 29, Type (0, 1), BuildingBlock: OJICUG_clean_linker_0, # of connection points: 2
#     Edge 30, Type (0, 1), BuildingBlock: OJICUG_clean_linker_0, # of connection points: 2
#     Edge 31, Type (0, 1), BuildingBlock: OJICUG_clean_linker_0, # of connection points: 2
#     Edge 32, Type (0, 1), BuildingBlock: OJICUG_clean_linker_0, # of connection points: 2
#     Edge 33, Type (0, 1), BuildingBlock: OJICUG_clean_linker_0, # of connection points: 2
#     Edge 34, Type (0, 1), BuildingBlock: OJICUG_clean_linker_0, # of connection points: 2
#     Edge 35, Type (0, 1), BuildingBlock: OJICUG_clean_linker_0, # of connection points: 2
# Relax obj value: 0.172
# Max RMSD: 0.259
# Mean RMSD: 0.126
data_MOF--net-pyr--node1-BETFEN_clean_sbu_0--node2-VETTIZ_charged_linker_0--edge1-OJICUG_clean_linker_0
_symmetry_space_group_name_H-M    P1
_symmetry_Int_Tables_number       1
_symmetry_cell_setting            triclinic
loop_
_symmetry_equiv_pos_as_xyz
'x, y, z'
_cell_length_a     35.013102
_cell_length_b     38.378208
_cell_length_c     34.470378
_cell_angle_alpha  90.583174
_cell_angle_beta   97.525549
_cell_angle_gamma 109.16866
loop_
_atom_site_label
_atom_site_type_symbol
_atom_site_fract_x
_atom_site_fract_y
_atom_site_fract_z
_atom_type_partial_charge
C0 C 0.40539 0.29794 0.46705 0.0
C1 C 0.37409 0.30303 0.48587 0.0
C2 C 0.36506 0.33607 0.48051 0.0
C3 C 0.40827 0.35156 0.42957 0.0
C4 C 0.42107 0.32176 0.4381 0.0
C5 C 0.44609 0.31472 0.40844 0.0
H6 H 0.47204 0.31658 0.22235 0.0
C7 C 0.42171 0.36547 0.39212 0.0
C8 C 0.44518 0.34491 0.38016 0.0
H9 H 0.51851 0.26016 0.31544 0.0
H10 H 0.50654 0.30021 0.36359 0.0
H11 H 0.51305 0.39842 0.26598 0.0
H12 H 0.39261 0.31798 0.25689 0.0
H13 H 0.38961 0.36159 0.2442 0.0
H14 H 0.41619 0.34034 0.21633 0.0
H15 H 0.47441 0.39718 0.22586 0.0
H16 H 0.47999 0.42364 0.27121 0.0
C17 C 0.48976 0.31955 0.42911 0.0
C18 C 0.42324 0.27551 0.38885 0.0
C19 C 0.34329 0.438 0.31425 0.0
C20 C 0.34038 0.44674 0.2747 0.0
C21 C 0.36966 0.44284 0.25215 0.0
C22 C 0.39887 0.42707 0.2677 0.0
C23 C 0.39822 0.41449 0.30584 0.0
C24 C 0.37234 0.42191 0.32918 0.0
C25 C 0.37687 0.4076 0.36941 0.0
C26 C 0.40817 0.3885 0.36553 0.0
C27 C 0.41997 0.39215 0.32794 0.0
C28 C 0.39475 0.4413 0.39922 0.0
C29 C 0.33466 0.38037 0.37684 0.0
C30 C 0.47951 0.31273 0.25314 0.0
C31 C 0.49449 0.28404 0.26494 0.0
C32 C 0.50617 0.28142 0.30529 0.0
C33 C 0.49842 0.304 0.33328 0.0
C34 C 0.47741 0.32822 0.32086 0.0
C35 C 0.4711 0.33444 0.28161 0.0
C36 C 0.45065 0.36317 0.27439 0.0
C37 C 0.4434 0.37114 0.31572 0.0
C38 C 0.45777 0.3493 0.34243 0.0
C39 C 0.4808 0.39737 0.2583 0.0
C40 C 0.41015 0.34512 0.24643 0.0
H41 H 0.37304 0.38428 0.44871 0.0
H42 H 0.41443 0.27375 0.4718 0.0
H43 H 0.39092 0.27241 0.37775 0.0
H44 H 0.43665 0.26903 0.36379 0.0
H45 H 0.42327 0.25393 0.41007 0.0
H46 H 0.49452 0.32979 0.46015 0.0
H47 H 0.49594 0.29295 0.42941 0.0
H48 H 0.51351 0.34002 0.4149 0.0
H49 H 0.32169 0.44148 0.3325 0.0
H50 H 0.36826 0.44969 0.2217 0.0
H51 H 0.4193 0.42328 0.24874 0.0
H52 H 0.41941 0.46337 0.38774 0.0
H53 H 0.37085 0.45312 0.4049 0.0
H54 H 0.40913 0.43461 0.42735 0.0
H55 H 0.31125 0.37419 0.35031 0.0
H56 H 0.33618 0.35296 0.38495 0.0
H57 H 0.32212 0.39167 0.4001 0.0
H58 H 0.34165 0.34145 0.49478 0.0
C59 C 0.38263 0.36066 0.45296 0.0
C60 C 0.21595 0.90683 0.64186 0.0
C61 C 0.19516 0.92434 0.66328 0.0
C62 C 0.20008 0.92394 0.70439 0.0
C63 C 0.24619 0.88912 0.70261 0.0
C64 C 0.24085 0.88886 0.66214 0.0
C65 C 0.26351 0.86677 0.64448 0.0
H66 H 0.38205 0.75769 0.67445 0.0
C67 C 0.27305 0.86758 0.71491 0.0
C68 C 0.28268 0.85356 0.68108 0.0
H69 H 0.33999 0.79357 0.56365 0.0
H70 H 0.30484 0.82759 0.59701 0.0
H71 H 0.41194 0.83094 0.71479 0.0
H72 H 0.29891 0.74322 0.71583 0.0
H73 H 0.31718 0.76122 0.76453 0.0
H74 H 0.34798 0.7426 0.73813 0.0
H75 H 0.40713 0.7962 0.74983 0.0
H76 H 0.39748 0.83854 0.75998 0.0
C77 C 0.29612 0.89322 0.62241 0.0
C78 C 0.23202 0.83433 0.61835 0.0
C79 C 0.33306 0.87373 0.85742 0.0
C80 C 0.3628 0.85999 0.87631 0.0
C81 C 0.37205 0.83189 0.85691 0.0
C82 C 0.35525 0.82058 0.81788 0.0
C83 C 0.32916 0.83769 0.79806 0.0
C84 C 0.31684 0.86239 0.8183 0.0
C85 C 0.28885 0.87769 0.79236 0.0
C86 C 0.28954 0.86057 0.75263 0.0
C87 C 0.31328 0.83738 0.75622 0.0
C88 C 0.30811 0.92039 0.79434 0.0
C89 C 0.24588 0.86328 0.80548 0.0
C90 C 0.36459 0.77233 0.65732 0.0
C91 C 0.36286 0.77252 0.61653 0.0
C92 C 0.34126 0.79295 0.59519 0.0
C93 C 0.32099 0.81256 0.6146 0.0
C94 C 0.32314 0.81212 0.65571 0.0
C95 C 0.34511 0.79246 0.67621 0.0
C96 C 0.34761 0.79741 0.71973 0.0
C97 C 0.32231 0.82237 0.72226 0.0
C98 C 0.30762 0.83073 0.68479 0.0
C99 C 0.39323 0.81652 0.73726 0.0
C100 C 0.32714 0.75917 0.73572 0.0
H101 H 0.22821 0.90734 0.75546 0.0
H102 H 0.21205 0.90636 0.61014 0.0
H103 H 0.20469 0.82152 0.63307 0.0
H104 H 0.24387 0.8118 0.61249 0.0
H105 H 0.22161 0.84401 0.58992 0.0
H106 H 0.30969 0.92082 0.63834 0.0
H107 H 0.28256 0.89729 0.59254 0.0
H108 H 0.32224 0.88361 0.62015 0.0
H109 H 0.32524 0.8953 0.87153 0.0
H110 H 0.39414 0.82023 0.8712 0.0
H111 H 0.36488 0.80033 0.80411 0.0
H112 H 0.34133 0.92873 0.79227 0.0
H113 H 0.30458 0.93269 0.82239 0.0
H114 H 0.29498 0.93339 0.77015 0.0
H115 H 0.24202 0.83862 0.82326 0.0
H116 H 0.22117 0.85388 0.7802 0.0
H117 H 0.24027 0.88471 0.82361 0.0
H118 H 0.18425 0.93734 0.72126 0.0
C119 C 0.2255 0.90648 0.72415 0.0
C120 C 0.60599 0.21765 0.90381 0.0
C121 C 0.56409 0.19801 0.89692 0.0
C122 C 0.53953 0.21148 0.86903 0.0
C123 C 0.5986 0.2657 0.86062 0.0
C124 C 0.62185 0.25143 0.8873 0.0
C125 C 0.66346 0.27789 0.90072 0.0
H126 H 0.80259 0.44668 0.91097 0.0
C127 C 0.62548 0.30353 0.85194 0.0
C128 C 0.66298 0.31027 0.87658 0.0
H129 H 0.8047 0.35253 0.97794 0.0
H130 H 0.74263 0.31501 0.93953 0.0
H131 H 0.70389 0.43355 0.90527 0.0
H132 H 0.7793 0.40504 0.83124 0.0
H133 H 0.73533 0.40319 0.79898 0.0
H134 H 0.76675 0.44639 0.82486 0.0
H135 H 0.74259 0.46531 0.88142 0.0
H136 H 0.69124 0.44511 0.8569 0.0
C137 C 0.66653 0.2871 0.94547 0.0
C138 C 0.69497 0.26043 0.88942 0.0
C139 C 0.58513 0.38486 0.74557 0.0
C140 C 0.60726 0.42036 0.73382 0.0
C141 C 0.64748 0.43797 0.75234 0.0
C142 C 0.66524 0.42183 0.7824 0.0
C143 C 0.64292 0.38735 0.79477 0.0
C144 C 0.60374 0.36877 0.77632 0.0
C145 C 0.5856 0.33209 0.79486 0.0
C146 C 0.62118 0.33139 0.82565 0.0
C147 C 0.65414 0.36473 0.8257 0.0
C148 C 0.54882 0.33367 0.81408 0.0
C149 C 0.574 0.30021 0.76341 0.0
C150 C 0.78917 0.41801 0.91739 0.0
C151 C 0.80781 0.40272 0.94828 0.0
C152 C 0.79017 0.36519 0.9552 0.0
C153 C 0.75395 0.34339 0.93274 0.0
C154 C 0.73434 0.35928 0.90336 0.0
C155 C 0.7523 0.39573 0.89543 0.0
C156 C 0.72765 0.40698 0.86171 0.0
C157 C 0.6906 0.3718 0.8527 0.0
C158 C 0.69496 0.34437 0.87738 0.0
C159 C 0.71571 0.43959 0.87678 0.0
C160 C 0.75345 0.41608 0.82742 0.0
H161 H 0.5367 0.25443 0.83017 0.0
H162 H 0.62639 0.20818 0.92403 0.0
H163 H 0.68373 0.2442 0.86082 0.0
H164 H 0.7244 0.28127 0.88519 0.0
H165 H 0.70076 0.24143 0.91176 0.0
H166 H 0.63594 0.2813 0.95494 0.0
H167 H 0.68225 0.27059 0.96336 0.0
H168 H 0.68213 0.31678 0.95393 0.0
H169 H 0.55402 0.37069 0.73208 0.0
H170 H 0.66527 0.46494 0.74383 0.0
H171 H 0.69565 0.43738 0.79532 0.0
H172 H 0.55709 0.35979 0.83243 0.0
H173 H 0.52269 0.33252 0.79142 0.0
H174 H 0.53858 0.31091 0.83362 0.0
H175 H 0.6007 0.30161 0.74844 0.0
H176 H 0.56394 0.27295 0.77616 0.0
H177 H 0.54887 0.30176 0.74093 0.0
H178 H 0.50701 0.1969 0.8626 0.0
C179 C 0.55669 0.24506 0.85055 0.0
C180 C 0.95358 0.81421 0.38923 0.0
C181 C 0.94096 0.8317 0.41936 0.0
C182 C 0.9074 0.81047 0.43697 0.0
C183 C 0.89914 0.75637 0.3954 0.0
C184 C 0.93198 0.77645 0.3776 0.0
C185 C 0.93948 0.7527 0.34569 0.0
H186 H 0.89098 0.58123 0.25167 0.0
C187 C 0.88335 0.718 0.3779 0.0
C188 C 0.90666 0.71506 0.34865 0.0
H189 H 0.98017 0.68342 0.22623 0.0
H190 H 0.96261 0.716 0.27794 0.0
H191 H 0.90687 0.59511 0.34993 0.0
H192 H 0.81905 0.61938 0.26303 0.0
H193 H 0.79543 0.59543 0.30173 0.0
H194 H 0.81837 0.57286 0.27032 0.0
H195 H 0.86766 0.55912 0.31963 0.0
H196 H 0.85708 0.57878 0.36291 0.0
C197 C 0.98303 0.75095 0.35607 0.0
C198 C 0.93231 0.76944 0.30592 0.0
C199 C 0.76418 0.6295 0.43327 0.0
C200 C 0.74238 0.59145 0.42831 0.0
C201 C 0.75333 0.57062 0.40013 0.0
C202 C 0.78554 0.58749 0.37817 0.0
C203 C 0.8073 0.62572 0.38428 0.0
C204 C 0.7962 0.64558 0.41183 0.0
C205 C 0.82259 0.68523 0.41669 0.0
C206 C 0.85121 0.68679 0.38694 0.0
C207 C 0.84251 0.65209 0.36744 0.0
C208 C 0.84543 0.6924 0.45943 0.0
C209 C 0.79488 0.70904 0.4055 0.0
C210 C 0.90683 0.61059 0.25736 0.0
C211 C 0.93727 0.62957 0.23457 0.0
C212 C 0.95655 0.66799 0.24287 0.0
C213 C 0.94635 0.68695 0.27308 0.0
C214 C 0.91587 0.66773 0.29537 0.0
C215 C 0.89625 0.63017 0.28702 0.0
C216 C 0.86314 0.61461 0.31249 0.0
C217 C 0.86622 0.6487 0.33756 0.0
C218 C 0.89776 0.68001 0.32779 0.0
C219 C 0.87392 0.58513 0.33755 0.0
C220 C 0.82166 0.59951 0.28567 0.0
H221 H 0.86138 0.75975 0.44015 0.0
H222 H 0.97916 0.82959 0.37484 0.0
H223 H 0.90594 0.77969 0.30471 0.0
H224 H 0.92439 0.74903 0.28087 0.0
H225 H 0.95956 0.79311 0.3013 0.0
H226 H 0.98859 0.74485 0.38737 0.0
H227 H 1.00632 0.77774 0.35143 0.0
H228 H 0.98819 0.72893 0.3389 0.0
H229 H 0.75654 0.64706 0.45353 0.0
H230 H 0.73747 0.54118 0.39541 0.0
H231 H 0.79253 0.57014 0.3575 0.0
H232 H 0.84897 0.66671 0.47165 0.0
H233 H 0.82869 0.70304 0.47925 0.0
H234 H 0.87713 0.7117 0.46153 0.0
H235 H 0.76929 0.69462 0.38203 0.0
H236 H 0.81104 0.73539 0.39309 0.0
H237 H 0.78126 0.71496 0.43108 0.0
H238 H 0.89735 0.82231 0.46072 0.0
C239 C 0.88659 0.77349 0.42518 0.0
C240 C 0.68185 0.59895 0.84189 0.0
C241 C 0.70869 0.58238 0.82904 0.0
C242 C 0.70856 0.57752 0.7884 0.0
C243 C 0.66523 0.61519 0.77562 0.0
C244 C 0.66066 0.61544 0.81477 0.0
C245 C 0.63604 0.63922 0.8242 0.0
H246 H 0.58878 0.79049 0.78471 0.0
C247 C 0.64756 0.6419 0.75666 0.0
C248 C 0.62912 0.65521 0.78466 0.0
H249 H 0.56599 0.72426 0.88543 0.0
H250 H 0.58129 0.67558 0.85253 0.0
H251 H 0.54221 0.72259 0.72036 0.0
H252 H 0.66754 0.7762 0.76946 0.0
H253 H 0.66534 0.77147 0.71846 0.0
H254 H 0.63758 0.79752 0.73803 0.0
H255 H 0.57324 0.76355 0.70056 0.0
H256 H 0.57053 0.71805 0.68326 0.0
C257 C 0.59549 0.61413 0.8368 0.0
C258 C 0.66285 0.66934 0.85594 0.0
C259 C 0.70231 0.70015 0.63508 0.0
C260 C 0.70285 0.7339 0.61895 0.0
C261 C 0.67271 0.74893 0.62698 0.0
C262 C 0.64689 0.73372 0.65465 0.0
C263 C 0.6521 0.70406 0.67554 0.0
C264 C 0.67761 0.68632 0.66411 0.0
C265 C 0.68059 0.65622 0.69085 0.0
C266 C 0.65335 0.6596 0.72076 0.0
C267 C 0.63785 0.68854 0.71214 0.0
C268 C 0.66328 0.61865 0.66692 0.0
C269 C 0.726 0.66626 0.70934 0.0
C270 C 0.58615 0.76526 0.79954 0.0
C271 C 0.57764 0.76201 0.83842 0.0
C272 C 0.57411 0.72829 0.85615 0.0
C273 C 0.58294 0.7 0.83707 0.0
C274 C 0.59604 0.70563 0.80016 0.0
C275 C 0.59493 0.7367 0.78095 0.0
C276 C 0.6085 0.7373 0.74125 0.0
C277 C 0.61909 0.70188 0.74041 0.0
C278 C 0.61316 0.68425 0.7757 0.0
C279 C 0.572 0.73554 0.70956 0.0
C280 C 0.64657 0.7724 0.74136 0.0
H281 H 0.68905 0.59066 0.73112 0.0
H282 H 0.68016 0.60174 0.87286 0.0
H283 H 0.69369 0.68284 0.84747 0.0
H284 H 0.65044 0.69164 0.86062 0.0
H285 H 0.66677 0.65717 0.88467 0.0
H286 H 0.58809 0.58476 0.82654 0.0
H287 H 0.59698 0.61494 0.8692 0.0
H288 H 0.56897 0.62188 0.82371 0.0
H289 H 0.72361 0.68677 0.62823 0.0
H290 H 0.67142 0.77451 0.61494 0.0
H291 H 0.62636 0.7477 0.6612 0.0
H292 H 0.64199 0.61979 0.64039 0.0
H293 H 0.68805 0.61027 0.65691 0.0
H294 H 0.64502 0.59643 0.68387 0.0
H295 H 0.73843 0.69569 0.72054 0.0
H296 H 0.73099 0.65012 0.73442 0.0
H297 H 0.74498 0.6623 0.68738 0.0
H298 H 0.72836 0.56433 0.77751 0.0
C299 C 0.68633 0.59339 0.76154 0.0
C300 C 0.83575 0.142 0.45435 0.0
C301 C 0.85589 0.12369 0.43303 0.0
C302 C 0.85038 0.1234 0.39187 0.0
C303 C 0.80522 0.15922 0.39346 0.0
C304 C 0.81096 0.16002 0.43393 0.0
C305 C 0.78879 0.18265 0.45146 0.0
H306 H 0.66482 0.28695 0.4211 0.0
C307 C 0.77844 0.18083 0.38101 0.0
C308 C 0.76917 0.19535 0.41474 0.0
H309 H 0.71361 0.25683 0.53221 0.0
H310 H 0.74991 0.22398 0.49882 0.0
H311 H 0.63875 0.21253 0.38085 0.0
H312 H 0.7485 0.30441 0.37917 0.0
H313 H 0.73132 0.28561 0.33069 0.0
H314 H 0.69888 0.30298 0.35622 0.0
H315 H 0.64075 0.24858 0.34777 0.0
H316 H 0.65265 0.20809 0.33459 0.0
C317 C 0.75654 0.15679 0.47432 0.0
C318 C 0.82075 0.21543 0.47677 0.0
C319 C 0.71961 0.1743 0.23807 0.0
C320 C 0.6898 0.18765 0.21866 0.0
C321 C 0.67939 0.21512 0.23797 0.0
C322 C 0.69525 0.22623 0.27726 0.0
C323 C 0.72164 0.20958 0.29745 0.0
C324 C 0.73489 0.18543 0.27739 0.0
C325 C 0.76274 0.17029 0.30365 0.0
C326 C 0.76158 0.18735 0.34324 0.0
C327 C 0.73732 0.21008 0.33941 0.0
C328 C 0.74352 0.12755 0.30159 0.0
C329 C 0.80588 0.18488 0.29096 0.0
C330 C 0.68373 0.27355 0.43813 0.0
C331 C 0.68681 0.27433 0.479 0.0
C332 C 0.71112 0.2564 0.50054 0.0
C333 C 0.73199 0.23742 0.4811 0.0
C334 C 0.72812 0.23637 0.43985 0.0
C335 C 0.70433 0.25443 0.41922 0.0
C336 C 0.70169 0.24915 0.37569 0.0
C337 C 0.72821 0.22522 0.37329 0.0
C338 C 0.74385 0.21785 0.41085 0.0
C339 C 0.65626 0.22878 0.35853 0.0
C340 C 0.72078 0.28746 0.35925 0.0
H341 H 0.82211 0.1396 0.34066 0.0
H342 H 0.84009 0.14307 0.48609 0.0
H343 H 0.84843 0.227 0.46221 0.0
H344 H 0.80964 0.23876 0.4811 0.0
H345 H 0.83049 0.20651 0.50588 0.0
H346 H 0.7419 0.12928 0.45837 0.0
H347 H 0.77075 0.15237 0.50378 0.0
H348 H 0.73115 0.16709 0.47768 0.0
H349 H 0.72823 0.15313 0.22416 0.0
H350 H 0.65714 0.22645 0.22335 0.0
H351 H 0.6847 0.24591 0.29092 0.0
H352 H 0.71002 0.11913 0.30218 0.0
H353 H 0.74838 0.1152 0.27416 0.0
H354 H 0.75544 0.11459 0.32658 0.0
H355 H 0.81021 0.21027 0.27431 0.0
H356 H 0.83048 0.19326 0.31639 0.0
H357 H 0.81127 0.16397 0.27186 0.0
H358 H 0.8656 0.10937 0.37502 0.0
C359 C 0.82518 0.14102 0.372 0.0
C360 C 0.47246 0.6707 0.35529 0.0
C361 C 0.44934 0.63584 0.36771 0.0
C362 C 0.40886 0.61897 0.34937 0.0
C363 C 0.41658 0.66713 0.30345 0.0
C364 C 0.45522 0.68601 0.3229 0.0
C365 C 0.47388 0.72239 0.30404 0.0
H366 H 0.45713 0.82352 0.14163 0.0
C367 C 0.40901 0.68633 0.26794 0.0
C368 C 0.44264 0.71896 0.26732 0.0
H369 H 0.5433 0.86423 0.24664 0.0
H370 H 0.51768 0.8035 0.27436 0.0
H371 H 0.38227 0.78845 0.18465 0.0
H372 H 0.46493 0.74699 0.1336 0.0
H373 H 0.41986 0.70872 0.12962 0.0
H374 H 0.41986 0.75003 0.10477 0.0
H375 H 0.38525 0.78585 0.13314 0.0
H376 H 0.35248 0.74833 0.15613 0.0
C377 C 0.47563 0.7541 0.33277 0.0
C378 C 0.51614 0.72504 0.29361 0.0
C379 C 0.27791 0.63004 0.17168 0.0
C380 C 0.26632 0.63817 0.13291 0.0
C381 C 0.29614 0.66283 0.11337 0.0
C382 C 0.33498 0.68199 0.13303 0.0
C383 C 0.34464 0.67643 0.17272 0.0
C384 C 0.31755 0.6491 0.19068 0.0
C385 C 0.3362 0.64357 0.23115 0.0
C386 C 0.37739 0.6747 0.23543 0.0
C387 C 0.38112 0.69441 0.20155 0.0
C388 C 0.30922 0.64958 0.26099 0.0
C389 C 0.3406 0.60452 0.23079 0.0
C390 C 0.47036 0.81988 0.17089 0.0
C391 C 0.50127 0.84918 0.19224 0.0
C392 C 0.51877 0.84233 0.22963 0.0
C393 C 0.50357 0.80729 0.24588 0.0
C394 C 0.47048 0.77897 0.22461 0.0
C395 C 0.45511 0.78599 0.18752 0.0
C396 C 0.41907 0.75488 0.16875 0.0
C397 C 0.41342 0.72816 0.2011 0.0
C398 C 0.44392 0.74135 0.23393 0.0
C399 C 0.38275 0.76982 0.1599 0.0
C400 C 0.43121 0.73936 0.13216 0.0
H401 H 0.36177 0.61953 0.30486 0.0
H402 H 0.50339 0.68474 0.36932 0.0
H403 H 0.51395 0.70014 0.2755 0.0
H404 H 0.52878 0.74943 0.27664 0.0
H405 H 0.53817 0.72708 0.32054 0.0
H406 H 0.44593 0.74838 0.34403 0.0
H407 H 0.49972 0.75731 0.35828 0.0
H408 H 0.48154 0.78071 0.31886 0.0
H409 H 0.25646 0.61035 0.1874 0.0
H410 H 0.28926 0.66812 0.0829 0.0
H411 H 0.35545 0.70142 0.11683 0.0
H412 H 0.30035 0.67443 0.2544 0.0
H413 H 0.28076 0.62547 0.25985 0.0
H414 H 0.32515 0.65457 0.29142 0.0
H415 H 0.3363 0.59207 0.20056 0.0
H416 H 0.37157 0.60529 0.24377 0.0
H417 H 0.31769 0.58494 0.24665 0.0
H418 H 0.39002 0.59289 0.35893 0.0
C419 C 0.39251 0.63429 0.31761 0.0
C420 C 0.10547 0.24279 0.71645 0.0
C421 C 0.11775 0.22489 0.68644 0.0
C422 C 0.1513 0.24569 0.66856 0.0
C423 C 0.16003 0.30029 0.70948 0.0
C424 C 0.1273 0.28057 0.72763 0.0
C425 C 0.12013 0.30468 0.75935 0.0
H426 H 0.16951 0.47688 0.85152 0.0
C427 C 0.17596 0.33884 0.72645 0.0
C428 C 0.15292 0.34216 0.7558 0.0
H429 H 0.08089 0.37502 0.8786 0.0
H430 H 0.09782 0.34194 0.82691 0.0
H431 H 0.15218 0.46194 0.75342 0.0
H432 H 0.24128 0.43884 0.83978 0.0
H433 H 0.26428 0.46231 0.80054 0.0
H434 H 0.24168 0.48521 0.83196 0.0
H435 H 0.19183 0.4983 0.78284 0.0
H436 H 0.20157 0.47797 0.73951 0.0
C437 C 0.07657 0.30646 0.74916 0.0
C438 C 0.12763 0.28835 0.79932 0.0
C439 C 0.29402 0.42674 0.66907 0.0
C440 C 0.3156 0.46485 0.67341 0.0
C441 C 0.3048 0.48597 0.70141 0.0
C442 C 0.27298 0.46931 0.72384 0.0
C443 C 0.25145 0.43101 0.71837 0.0
C444 C 0.26236 0.41085 0.69097 0.0
C445 C 0.23616 0.37113 0.68681 0.0
C446 C 0.20786 0.36991 0.7168 0.0
C447 C 0.21661 0.40483 0.73581 0.0
C448 C 0.2129 0.36328 0.64425 0.0
C449 C 0.26413 0.3476 0.69821 0.0
C450 C 0.15366 0.44748 0.8462 0.0
C451 C 0.12359 0.42873 0.86944 0.0
C452 C 0.10426 0.39026 0.8616 0.0
C453 C 0.11409 0.37103 0.83141 0.0
C454 C 0.14424 0.39001 0.80868 0.0
C455 C 0.16387 0.42764 0.81655 0.0
C456 C 0.19655 0.44293 0.79057 0.0
C457 C 0.19326 0.40858 0.76585 0.0
C458 C 0.16196 0.37742 0.77621 0.0
C459 C 0.18528 0.47205 0.76526 0.0
C460 C 0.2383 0.4584 0.81691 0.0
H461 H 0.1975 0.29619 0.66473 0.0
H462 H 0.07993 0.22772 0.73105 0.0
H463 H 0.15364 0.27762 0.80034 0.0
H464 H 0.13631 0.30914 0.8241 0.0
H465 H 0.10027 0.2651 0.80456 0.0
H466 H 0.07074 0.31218 0.71776 0.0
H467 H 0.05331 0.2798 0.75424 0.0
H468 H 0.07162 0.32874 0.7661 0.0
H469 H 0.30158 0.40898 0.64896 0.0
H470 H 0.32049 0.51546 0.70563 0.0
H471 H 0.2661 0.48687 0.74435 0.0
H472 H 0.20902 0.38871 0.63167 0.0
H473 H 0.22953 0.35247 0.62445 0.0
H474 H 0.1813 0.34385 0.64258 0.0
H475 H 0.28986 0.36238 0.7214 0.0
H476 H 0.24823 0.32141 0.71106 0.0
H477 H 0.27756 0.34141 0.67262 0.0
H478 H 0.16111 0.23347 0.64492 0.0
C479 C 0.17235 0.28273 0.6799 0.0
Pr480 Pr 0.99568 1.00676 0.57396 0.0
Pr481 Pr 0.05973 0.05008 0.53249 0.0
C482 C 0.94299 0.95463 0.6111 0.0
C483 C 0.91023 0.91878 0.60424 0.0
C484 C 0.90151 0.89663 0.63601 0.0
C485 C 0.8699 0.86285 0.63113 0.0
C486 C 0.84632 0.85039 0.59423 0.0
C487 C 0.85548 0.87252 0.56213 0.0
C488 C 0.88743 0.90648 0.56707 0.0
C489 C 0.03546 0.07784 0.61084 0.0
C490 C 0.08655 0.99758 0.59177 0.0
C491 C 0.11522 0.10495 0.50132 0.0
C492 C 0.15674 0.13203 0.51156 0.0
C493 C 0.19151 0.12099 0.51672 0.0
C494 C 0.23063 0.14742 0.52216 0.0
C495 C 0.23573 0.18534 0.52261 0.0
C496 C 0.20091 0.19626 0.5195 0.0
C497 C 0.16185 0.16987 0.51388 0.0
C498 C 1.02109 0.97887 0.49581 0.0
C499 C 0.96639 0.05417 0.50896 0.0
O500 O 0.93518 0.98332 0.59686 0.0
O501 O 0.97977 0.9549 0.60789 0.0
O502 O 0.05323 0.05743 0.59754 0.0
O503 O 0.9964 0.06138 0.60616 0.0
O504 O 0.10089 0.03103 0.57958 0.0
O505 O 0.04695 0.9798 0.58677 0.0
O506 O 0.11148 0.0701 0.49636 0.0
O507 O 0.08646 0.11007 0.51888 0.0
O508 O 1.00258 0.99876 0.50906 0.0
O509 O 0.06013 0.99608 0.50004 0.0
O510 O 0.95306 1.02245 0.5252 0.0
O511 O 1.00582 0.0722 0.5116 0.0
H512 H 0.91881 0.90575 0.66488 0.0
H513 H 0.86315 0.84699 0.65669 0.0
H514 H 0.83792 0.86363 0.53336 0.0
H515 H 0.89406 0.92326 0.54211 0.0
H516 H 0.18861 0.09201 0.51537 0.0
H517 H 0.25691 0.13819 0.52474 0.0
H518 H 0.20374 0.22521 0.51913 0.0
H519 H 0.13557 0.17913 0.50991 0.0
Pr520 Pr 0.49398 0.03008 0.05943 0.0
Pr521 Pr 0.56306 1.01804 1.03252 0.0
C522 C 0.44555 0.04932 0.10357 0.0
C523 C 0.45137 0.0843 0.12594 0.0
C524 C 0.44382 0.1142 0.1071 0.0
C525 C 0.45304 0.14823 0.12759 0.0
C526 C 0.46999 0.15313 0.16737 0.0
C527 C 0.47689 0.12308 0.18637 0.0
C528 C 0.46752 0.08902 0.16595 0.0
C529 C 0.51624 0.0709 0.99359 0.0
C530 C 0.58743 0.08545 0.09535 0.0
C531 C 0.61141 1.00012 0.98716 0.0
C532 C 0.60725 0.96482 0.96687 0.0
C533 C 0.59084 0.93122 0.98434 0.0
C534 C 0.58393 0.89764 0.96384 0.0
C535 C 0.59268 0.89698 0.92526 0.0
C536 C 0.60884 0.93063 0.90773 0.0
C537 C 0.61615 0.96427 0.92843 0.0
C538 C 0.54266 0.97818 0.0991 0.0
C539 C 0.46892 0.96194 0.99794 0.0
O540 O 0.46948 0.03085 0.1168 0.0
O541 O 0.44061 0.04982 0.06532 0.0
O542 O 0.54063 0.06794 1.02286 0.0
O543 O 0.47896 0.05121 0.99704 0.0
O544 O 0.6008 0.07443 0.06524 0.0
O545 O 0.54979 0.0688 0.10219 0.0
O546 O 0.5843 1.01526 0.97365 0.0
O547 O 0.61842 1.00175 1.02548 0.0
O548 O 0.51721 0.98073 0.07044 0.0
O549 O 0.57978 0.99646 0.09369 0.0
O550 O 0.45563 0.97385 1.0275 0.0
O551 O 0.50672 0.9779 0.99109 0.0
H552 H 0.43145 0.1116 0.07631 0.0
H553 H 0.44749 0.17089 0.11209 0.0
H554 H 0.48914 0.12575 0.2172 0.0
H555 H 0.47353 0.06652 0.1814 0.0
H556 H 0.58276 0.93087 1.01366 0.0
H557 H 0.57106 0.87214 0.97791 0.0
H558 H 0.61618 0.93092 0.87814 0.0
H559 H 0.62825 0.98987 0.91425 0.0
Pr560 Pr 0.54664 0.57049 0.57205 0.0
Pr561 Pr 0.51053 0.48534 0.529 0.0
C562 C 0.55873 0.64282 0.58353 0.0
C563 C 0.52964 0.66308 0.57838 0.0
C564 C 0.54208 0.70098 0.58839 0.0
C565 C 0.51313 0.71907 0.58672 0.0
C566 C 0.47139 0.69941 0.57481 0.0
C567 C 0.45954 0.66175 0.56307 0.0
C568 C 0.48833 0.64371 0.56521 0.0
C569 C 0.5687 0.51908 0.62026 0.0
C570 C 0.45281 0.51324 0.58456 0.0
C571 C 0.4984 0.41312 0.51719 0.0
C572 C 0.5267 0.39209 0.51606 0.0
C573 C 0.55919 0.40377 0.49399 0.0
C574 C 0.5867 0.38453 0.49391 0.0
C575 C 0.58267 0.35335 0.51617 0.0
C576 C 0.55025 0.34177 0.53846 0.0
C577 C 0.52255 0.36107 0.53847 0.0
C578 C 0.48851 0.53681 0.48081 0.0
C579 C 0.60419 0.54245 0.51603 0.0
O580 O 0.56505 0.62861 0.55123 0.0
O581 O 0.55361 0.61995 0.61186 0.0
O582 O 0.54944 0.51356 0.58591 0.0
O583 O 0.57943 0.55417 0.63023 0.0
O584 O 0.45781 0.48565 0.56462 0.0
O585 O 0.4797 0.54727 0.58852 0.0
O586 O 0.49833 0.428 0.55153 0.0
O587 O 0.49674 0.4349 0.48842 0.0
O588 O 0.50798 0.54243 0.51507 0.0
O589 O 0.4774 0.50163 0.471 0.0
O590 O 0.59946 0.56987 0.53659 0.0
O591 O 0.57703 0.50853 0.51148 0.0
H592 H 0.57386 0.71628 0.59856 0.0
H593 H 0.5232 0.74798 0.59646 0.0
H594 H 0.42777 0.64592 0.55332 0.0
H595 H 0.47817 0.61435 0.5575 0.0
H596 H 0.56343 0.42781 0.47669 0.0
H597 H 0.61078 0.39376 0.47578 0.0
H598 H 0.54645 0.31795 0.55603 0.0
H599 H 0.49791 0.35182 0.55598 0.0
Pr600 Pr 1.01887 0.55477 1.02072 0.0
Pr601 Pr 0.04205 0.50383 0.08274 0.0
C602 C 0.9789 0.58725 0.96858 0.0
C603 C 0.93668 0.5853 0.95462 0.0
C604 C 0.92952 0.61502 0.93549 0.0
C605 C 0.88994 0.61246 0.91923 0.0
C606 C 0.8569 0.57991 0.92141 0.0
C607 C 0.86402 0.55032 0.94114 0.0
C608 C 0.9036 0.55323 0.95807 0.0
C609 C 0.09957 0.5817 0.05598 0.0
C610 C 0.99394 0.55834 0.11206 0.0
C611 C 0.07912 0.46944 0.13553 0.0
C612 C 0.11991 0.46901 0.15277 0.0
C613 C 0.12814 0.43565 0.15236 0.0
C614 C 0.16511 0.43378 0.17146 0.0
C615 C 0.19475 0.46535 0.19112 0.0
C616 C 0.18708 0.49903 0.1906 0.0
C617 C 0.1498 0.50075 0.17202 0.0
C618 C 0.96218 0.47644 1.04338 0.0
C619 C 0.06796 0.50076 0.99184 0.0
O620 O 0.98832 0.55817 0.95986 0.0
O621 O 0.99453 0.60153 1.00407 0.0
O622 O 0.06971 0.56524 0.07321 0.0
O623 O 0.08782 0.58972 1.0209 0.0
O624 O 1.01827 0.53926 0.12361 0.0
O625 O 0.98541 0.56364 0.07433 0.0
O626 O 0.06946 0.49838 0.14428 0.0
O627 O 0.06547 0.45641 0.09929 0.0
O628 O 0.9936 0.49308 1.0287 0.0
O629 O 0.97158 0.47007 0.07971 0.0
O630 O 0.04363 0.51986 0.98012 0.0
O631 O 0.0762 0.49522 1.02959 0.0
H632 H 0.95467 0.63996 0.93248 0.0
H633 H 0.88531 0.63558 0.90391 0.0
H634 H 0.83905 0.52508 0.94352 0.0
H635 H 0.90852 0.53033 0.97337 0.0
H636 H 0.10553 0.41076 0.13804 0.0
H637 H 0.1704 0.40751 0.17121 0.0
H638 H 0.20925 0.52368 0.20582 0.0
H639 H 0.14412 0.52677 0.17356 0.0
C640 C 0.32283 0.27667 0.53233 0.0
C641 C 0.3452 0.2712 0.50309 0.0
H642 H 0.27062 0.25358 0.56188 0.0
C643 C 0.33465 0.23543 0.48533 0.0
H644 H 0.33046 0.30353 0.54727 0.0
C645 C 0.30087 0.20687 0.49411 0.0
C646 C 0.2764 0.21326 0.52062 0.0
H647 H 0.3503 0.22989 0.46214 0.0
H648 H 0.29212 0.18055 0.4777 0.0
C649 C 0.2886 0.24804 0.5408 0.0
C650 C 0.373 0.89401 0.94159 0.0
C651 C 0.3892 0.87983 0.91231 0.0
H652 H 0.38566 0.93122 0.99204 0.0
C653 C 0.43182 0.88971 0.91441 0.0
H654 H 0.34027 0.88661 0.94089 0.0
C655 C 0.45763 0.91517 0.94342 0.0
C656 C 0.44144 0.93132 0.97102 0.0
H657 H 0.44539 0.87972 0.89211 0.0
H658 H 0.49031 0.92329 0.94317 0.0
C659 C 0.39895 0.9195 0.97083 0.0
C660 C 0.57773 0.43004 0.6647 0.0
C661 C 0.58965 0.44171 0.70469 0.0
H662 H 0.56232 0.44539 0.60608 0.0
C663 C 0.59177 0.47764 0.71614 0.0
H664 H 0.57662 0.4028 0.65481 0.0
C665 C 0.58418 0.50185 0.68855 0.0
C666 C 0.57382 0.49102 0.64841 0.0
H667 H 0.60109 0.48764 0.74658 0.0
H668 H 0.58731 0.52957 0.69879 0.0
C669 C 0.5698 0.4545 0.63677 0.0
C670 C 0.9594 0.57761 0.20922 0.0
C671 C 0.94934 0.6099 0.20242 0.0
H672 H 0.98177 0.53656 0.18681 0.0
C673 C 0.95258 0.62414 0.16494 0.0
H674 H 0.95756 0.56587 0.23764 0.0
C675 C 0.96562 0.60683 0.13539 0.0
C676 C 0.97692 0.5752 0.14257 0.0
H677 H 0.945 0.64884 0.15843 0.0
H678 H 0.96794 0.61892 0.10717 0.0
C679 C 0.97347 0.56085 0.17999 0.0
C680 C 0.45714 0.24004 0.20775 0.0
C681 C 0.49186 0.2538 0.23632 0.0
H682 H 0.42285 0.19743 0.16413 0.0
C683 C 0.52097 0.23561 0.23998 0.0
H684 H 0.43358 0.25277 0.20462 0.0
C685 C 0.51457 0.20351 0.21679 0.0
C686 C 0.47895 0.18899 0.18944 0.0
H687 H 0.54826 0.24569 0.26137 0.0
H688 H 0.5372 0.18974 0.22067 0.0
C689 C 0.45081 0.2081 0.18459 0.0
C690 C 0.12651 0.93112 0.65019 0.0
C691 C 0.16729 0.94223 0.64335 0.0
H692 H 0.06893 0.93987 0.63897 0.0
C693 C 0.18159 0.97159 0.61925 0.0
H694 H 0.11495 0.9085 0.66873 0.0
C695 C 0.15552 0.99012 0.60284 0.0
C696 C 0.11464 0.97896 0.60971 0.0
H697 H 0.21308 0.98068 0.61388 0.0
H698 H 0.16723 1.01288 0.58453 0.0
C699 C 0.1003 0.94908 0.63322 0.0
C700 C 0.87985 0.44571 0.95568 0.0
C701 C 0.84613 0.42485 0.97297 0.0
H702 H 0.94332 0.47793 0.96458 0.0
C703 C 0.85025 0.42261 1.01394 0.0
H704 H 0.87755 0.44762 0.92417 0.0
C705 C 0.8878 0.44004 1.03713 0.0
C706 C 0.92183 0.45982 1.01967 0.0
H707 H 0.82452 0.40683 1.02797 0.0
H708 H 0.89035 0.43748 0.06856 0.0
C709 C 0.91748 0.46279 0.97881 0.0
C710 C 0.7108 0.58994 0.49065 0.0
C711 C 0.70855 0.57482 0.45253 0.0
H712 H 0.68 0.59209 0.53999 0.0
C713 C 0.67264 0.54583 0.43737 0.0
H714 H 0.73823 0.61121 0.5044 0.0
C715 C 0.63943 0.53389 0.45879 0.0
C716 C 0.64102 0.55103 0.49561 0.0
H717 H 0.66939 0.53338 0.40827 0.0
H718 H 0.61176 0.51249 0.44565 0.0
C719 C 0.67742 0.57871 0.51148 0.0
C720 C 0.26478 0.43019 0.26067 0.0
C721 C 0.30363 0.45425 0.25561 0.0
H722 H 0.20015 0.41482 0.24406 0.0
C723 C 0.30659 0.48305 0.23006 0.0
H724 H 0.26158 0.40744 0.27976 0.0
C725 C 0.2712 0.48739 0.20968 0.0
C726 C 0.23245 0.46246 0.21388 0.0
H727 H 0.33619 0.50194 0.22565 0.0
H728 H 0.27414 0.50955 0.18985 0.0
C729 C 0.22964 0.43412 0.23989 0.0
C730 C 0.51665 0.13273 0.90676 0.0
C731 C 0.54777 0.1657 0.92168 0.0
H732 H 0.48202 0.07667 0.91782 0.0
C733 C 0.56608 0.16718 0.96099 0.0
H734 H 0.50166 0.13043 0.87685 0.0
C735 C 0.55614 0.13632 0.98356 0.0
C736 C 0.52621 0.10311 0.96841 0.0
H737 H 0.58885 0.19234 0.97451 0.0
H738 H 0.57171 0.13868 1.01328 0.0
C739 C 0.5057 0.10184 0.93009 0.0
C740 C 0.93905 0.89293 0.44533 0.0
C741 C 0.96206 0.87133 0.43413 0.0
H742 H 0.93924 0.94303 0.47381 0.0
C743 C 1.00491 0.88673 0.44132 0.0
H744 H 0.90599 0.88249 0.43973 0.0
C745 C 1.02401 0.92188 0.46067 0.0
C746 C 1.00078 0.94254 0.47335 0.0
H747 H 1.02369 0.871 0.43351 0.0
H748 H 0.05705 0.93248 0.46661 0.0
C749 C 0.95808 0.92781 0.46488 0.0
C750 C 0.41862 0.77125 0.57866 0.0
C751 C 0.38536 0.75227 0.59767 0.0
H752 H 0.47226 0.76926 0.55619 0.0
C753 C 0.3781 0.71492 0.60489 0.0
H754 H 0.42497 0.80023 0.57325 0.0
C755 C 0.40501 0.69737 0.59553 0.0
C756 C 0.43993 0.71685 0.57883 0.0
H757 H 0.35275 0.69989 0.61982 0.0
H758 H 0.39971 0.66916 0.60364 0.0
C759 C 0.44586 0.75369 0.56942 0.0
C760 C 0.77853 0.75684 0.61803 0.0
C761 C 0.73952 0.7574 0.60228 0.0
H762 H 0.8429 0.78518 0.62663 0.0
C763 C 0.73713 0.78529 0.57673 0.0
H764 H 0.78227 0.73621 0.63793 0.0
C765 C 0.77241 0.81433 0.57129 0.0
C766 C 0.81075 0.81568 0.59084 0.0
H767 H 0.70784 0.78615 0.56303 0.0
H768 H 0.7692 0.83703 0.55429 0.0
C769 C 0.81363 0.78544 0.6121 0.0
C770 C 0.68178 0.15411 0.1534 0.0
C771 C 0.66448 0.16788 0.1821 0.0
H772 H 0.67083 0.11706 0.10301 0.0
C773 C 0.62176 0.15754 0.17893 0.0
H774 H 0.71462 0.16189 0.1549 0.0
C775 C 0.59691 0.13199 0.14953 0.0
C776 C 0.61416 0.11619 0.12256 0.0
H777 H 0.60731 0.16718 0.20071 0.0
H778 H 0.56411 0.12353 0.14899 0.0
C779 C 0.65676 0.12851 0.12373 0.0
C780 C 0.48151 0.62646 0.4361 0.0
C781 C 0.4664 0.61398 0.39668 0.0
H782 H 0.50067 0.61196 0.49404 0.0
C783 C 0.46191 0.57736 0.38549 0.0
H784 H 0.48504 0.65442 0.44577 0.0
C785 C 0.46995 0.55327 0.41292 0.0
C786 C 0.48307 0.5648 0.45266 0.0
H787 H 0.45066 0.56685 0.35538 0.0
H788 H 0.46526 0.52518 0.40287 0.0
C789 C 0.48997 0.60205 0.46384 0.0
C790 C 0.10897 0.43468 0.93918 0.0
C791 C 0.11194 0.44868 0.90159 0.0
H792 H 0.09401 0.44027 0.99703 0.0
C793 C 0.10196 0.481 0.89467 0.0
H794 H 0.11652 0.40998 0.94578 0.0
C795 C 0.08819 0.49799 0.9239 0.0
C796 C 0.08495 0.48384 0.96142 0.0
H797 H 0.10359 0.49254 0.86614 0.0
H798 H 0.07989 0.52226 0.91699 0.0
C799 C 0.09621 0.45221 0.96873 0.0
C800 C 0.56213 0.82153 0.84388 0.0
C801 C 0.57716 0.79483 0.86162 0.0
H802 H 0.55525 0.87475 0.85009 0.0
C803 C 0.59536 0.80142 0.90111 0.0
H804 H 0.54735 0.81722 0.81376 0.0
C805 C 0.59941 0.83413 0.92193 0.0
C806 C 0.5858 0.8613 0.90372 0.0
H807 H 0.60814 0.78202 0.91563 0.0
H808 H 0.61464 0.83877 0.95191 0.0
C809 C 0.56663 0.85449 0.86464 0.0
C810 C 0.87074 0.07891 0.48007 0.0
C811 C 0.88392 0.10596 0.45313 0.0
H812 H 0.88643 0.04045 0.51833 0.0
C813 C 0.9239 0.1153 0.44421 0.0
H814 H 0.83989 0.07116 0.48712 0.0
C815 C 0.95048 0.09813 0.46214 0.0
C816 C 0.93737 0.07083 0.48885 0.0
H817 H 0.9347 0.13616 0.42356 0.0
H818 H 0.98129 0.10619 0.45494 0.0
C819 C 0.89718 0.06117 0.49753 0.0
C820 C 0.20738 0.64445 0.08699 0.0
C821 C 0.2233 0.62295 0.11315 0.0
H822 H 0.15606 0.64783 1.04788 0.0
C823 C 0.19757 0.58753 0.12032 0.0
H824 H 0.22557 0.6723 0.08152 0.0
C825 C 0.15704 0.57421 0.1019 0.0
C826 C 0.14188 0.5957 0.07555 0.0
H827 H 0.20877 0.56992 0.13968 0.0
H828 H 0.13773 0.54679 0.1074 0.0
C829 C 0.16737 0.6307 0.0679 0.0
C830 C 0.38492 0.51055 0.66347 0.0
C831 C 0.34909 0.48128 0.6488 0.0
H832 H 0.44553 0.54397 0.65455 0.0
C833 C 0.34663 0.46571 0.61084 0.0
H834 H 0.38834 0.52332 0.69243 0.0
C835 C 0.37978 0.47682 0.58972 0.0
C836 C 0.41612 0.5048 0.60513 0.0
H837 H 0.31923 0.44418 0.59747 0.0
H838 H 0.3771 0.46311 0.56137 0.0
C839 C 0.41788 0.52236 0.64175 0.0
C840 C 0.75638 0.54756 0.85302 0.0
C841 C 0.74218 0.57749 0.85734 0.0
H842 H 0.80393 0.52466 0.8705 0.0
C843 C 0.76391 0.60603 0.88587 0.0
H844 H 0.74025 0.52513 0.83139 0.0
C845 C 0.80017 0.60584 0.90788 0.0
C846 C 0.8155 0.57701 0.90215 0.0
H847 H 0.7543 0.62981 0.88961 0.0
H848 H 0.81704 0.62896 0.92849 0.0
C849 C 0.79265 0.54722 0.87547 0.0
C850 C 0.55411 0.90706 0.17265 0.0
C851 C 0.51312 0.88612 0.17446 0.0
H852 H 0.59571 0.95268 0.14747 0.0
C853 C 0.48241 0.89843 0.15462 0.0
H854 H 0.5785 0.89842 0.18738 0.0
C855 C 0.49212 0.92898 0.13136 0.0
C856 C 0.5329 0.94859 0.12761 0.0
H857 H 0.45047 0.88347 0.1559 0.0
H858 H 0.46754 0.93661 0.1154 0.0
C859 C 0.56389 0.93802 0.14952 0.0
C860 C 0.05325 0.17044 0.6649 0.0
C861 C 0.09614 0.18529 0.67199 0.0
H862 H 1.00058 0.12511 0.63983 0.0
C863 C 0.11865 0.16317 0.66097 0.0
H864 H 0.03486 0.18659 0.67259 0.0
C865 C 0.09909 0.12827 0.64162 0.0
C866 C 0.05635 0.1141 0.63318 0.0
H867 H 0.15171 0.17322 0.66652 0.0
H868 H 0.11752 0.1126 0.63278 0.0
C869 C 0.03363 0.13529 0.64575 0.0
C870 C 0.67875 0.33166 0.50482 0.0
C871 C 0.66323 0.29322 0.49795 0.0
H872 H 0.66552 0.3809 0.51714 0.0
C873 C 0.62229 0.27414 0.50155 0.0
H874 H 0.71015 0.34683 0.50154 0.0
C875 C 0.59649 0.29352 0.50981 0.0
C876 C 0.61129 0.33233 0.51432 0.0
H877 H 0.60968 0.24449 0.49552 0.0
H878 H 0.56444 0.27831 0.51012 0.0
C879 C 0.65306 0.35106 0.5132 0.0
loop_
_geom_bond_atom_site_label_1
_geom_bond_atom_site_label_2
_geom_bond_distance
_geom_bond_site_symmetry_2
_ccdc_geom_bond_type
C0 C1 1.391 . S
C0 C4 1.391 . S
C0 H42 0.948 . S
C1 C0 1.391 . S
C1 C2 1.391 . S
C2 C1 1.391 . S
C2 H58 0.947 . S
C2 C59 1.392 . S
C3 C4 1.391 . S
C3 C7 1.397 . S
C3 C59 1.419 . S
C4 C0 1.391 . S
C4 C3 1.391 . S
C4 C5 1.399 . S
C5 C4 1.399 . S
C5 C8 1.396 . S
C5 C17 1.453 . S
C5 C18 1.684 . S
H6 C30 0.948 . S
C7 C3 1.397 . S
C7 C8 1.394 . S
C7 C26 1.723 . S
C8 C5 1.396 . S
C8 C7 1.394 . S
C8 C38 1.723 . S
H9 C32 0.947 . S
H10 C33 0.948 . S
H11 C39 0.982 . S
H12 C40 0.979 . S
H13 C40 0.980 . S
H14 C40 0.983 . S
H15 C39 0.979 . S
H16 C39 0.977 . S
C17 C5 1.453 . S
C17 H46 0.982 . S
C17 H47 0.979 . S
C17 H48 0.977 . S
C18 C5 1.684 . S
C18 H43 0.979 . S
C18 H44 0.980 . S
C18 H45 0.983 . S
C19 C20 1.391 . S
C19 C24 1.391 . S
C19 H49 0.948 . S
C20 C19 1.391 . S
C20 C21 1.391 . S
C21 C20 1.391 . S
C21 C22 1.392 . S
C21 H50 0.947 . S
C22 C21 1.392 . S
C22 C23 1.419 . S
C22 H51 0.948 . S
C23 C22 1.419 . S
C23 C24 1.391 . S
C23 C27 1.397 . S
C24 C19 1.391 . S
C24 C23 1.391 . S
C24 C25 1.399 . S
C25 C24 1.399 . S
C25 C26 1.396 . S
C25 C28 1.453 . S
C25 C29 1.684 . S
C26 C7 1.723 . S
C26 C25 1.396 . S
C26 C27 1.394 . S
C27 C23 1.397 . S
C27 C26 1.394 . S
C27 C37 1.723 . S
C28 C25 1.453 . S
C28 H52 0.982 . S
C28 H53 0.979 . S
C28 H54 0.977 . S
C29 C25 1.684 . S
C29 H55 0.979 . S
C29 H56 0.980 . S
C29 H57 0.983 . S
C30 H6 0.948 . S
C30 C31 1.391 . S
C30 C35 1.391 . S
C31 C30 1.391 . S
C31 C32 1.391 . S
C32 H9 0.947 . S
C32 C31 1.391 . S
C32 C33 1.392 . S
C33 H10 0.948 . S
C33 C32 1.392 . S
C33 C34 1.419 . S
C34 C33 1.419 . S
C34 C35 1.391 . S
C34 C38 1.397 . S
C35 C30 1.391 . S
C35 C34 1.391 . S
C35 C36 1.399 . S
C36 C35 1.399 . S
C36 C37 1.396 . S
C36 C39 1.453 . S
C36 C40 1.684 . S
C37 C27 1.723 . S
C37 C36 1.396 . S
C37 C38 1.394 . S
C38 C8 1.723 . S
C38 C34 1.397 . S
C38 C37 1.394 . S
C39 H11 0.982 . S
C39 H15 0.979 . S
C39 H16 0.977 . S
C39 C36 1.453 . S
C40 H12 0.979 . S
C40 H13 0.980 . S
C40 H14 0.983 . S
C40 C36 1.684 . S
H41 C59 0.948 . S
H42 C0 0.948 . S
H43 C18 0.979 . S
H44 C18 0.980 . S
H45 C18 0.983 . S
H46 C17 0.982 . S
H47 C17 0.979 . S
H48 C17 0.977 . S
H49 C19 0.948 . S
H50 C21 0.947 . S
H51 C22 0.948 . S
H52 C28 0.982 . S
H53 C28 0.979 . S
H54 C28 0.977 . S
H55 C29 0.979 . S
H56 C29 0.980 . S
H57 C29 0.983 . S
H58 C2 0.947 . S
C59 C2 1.392 . S
C59 C3 1.419 . S
C59 H41 0.948 . S
C60 C61 1.391 . S
C60 C64 1.391 . S
C60 H102 0.948 . S
C61 C60 1.391 . S
C61 C62 1.391 . S
C62 C61 1.391 . S
C62 H118 0.947 . S
C62 C119 1.392 . S
C63 C64 1.391 . S
C63 C67 1.397 . S
C63 C119 1.419 . S
C64 C60 1.391 . S
C64 C63 1.391 . S
C64 C65 1.399 . S
C65 C64 1.399 . S
C65 C68 1.396 . S
C65 C77 1.453 . S
C65 C78 1.684 . S
H66 C90 0.948 . S
C67 C63 1.397 . S
C67 C68 1.394 . S
C67 C86 1.723 . S
C68 C65 1.396 . S
C68 C67 1.394 . S
C68 C98 1.723 . S
H69 C92 0.947 . S
H70 C93 0.948 . S
H71 C99 0.982 . S
H72 C100 0.979 . S
H73 C100 0.980 . S
H74 C100 0.983 . S
H75 C99 0.979 . S
H76 C99 0.977 . S
C77 C65 1.453 . S
C77 H106 0.982 . S
C77 H107 0.979 . S
C77 H108 0.977 . S
C78 C65 1.684 . S
C78 H103 0.979 . S
C78 H104 0.980 . S
C78 H105 0.983 . S
C79 C80 1.391 . S
C79 C84 1.391 . S
C79 H109 0.948 . S
C80 C79 1.391 . S
C80 C81 1.391 . S
C81 C80 1.391 . S
C81 C82 1.392 . S
C81 H110 0.947 . S
C82 C81 1.392 . S
C82 C83 1.419 . S
C82 H111 0.948 . S
C83 C82 1.419 . S
C83 C84 1.391 . S
C83 C87 1.397 . S
C84 C79 1.391 . S
C84 C83 1.391 . S
C84 C85 1.399 . S
C85 C84 1.399 . S
C85 C86 1.396 . S
C85 C88 1.453 . S
C85 C89 1.684 . S
C86 C67 1.723 . S
C86 C85 1.396 . S
C86 C87 1.394 . S
C87 C83 1.397 . S
C87 C86 1.394 . S
C87 C97 1.723 . S
C88 C85 1.453 . S
C88 H112 0.982 . S
C88 H113 0.979 . S
C88 H114 0.977 . S
C89 C85 1.684 . S
C89 H115 0.979 . S
C89 H116 0.980 . S
C89 H117 0.983 . S
C90 H66 0.948 . S
C90 C91 1.391 . S
C90 C95 1.391 . S
C91 C90 1.391 . S
C91 C92 1.391 . S
C92 H69 0.947 . S
C92 C91 1.391 . S
C92 C93 1.392 . S
C93 H70 0.948 . S
C93 C92 1.392 . S
C93 C94 1.419 . S
C94 C93 1.419 . S
C94 C95 1.391 . S
C94 C98 1.397 . S
C95 C90 1.391 . S
C95 C94 1.391 . S
C95 C96 1.399 . S
C96 C95 1.399 . S
C96 C97 1.396 . S
C96 C99 1.453 . S
C96 C100 1.684 . S
C97 C87 1.723 . S
C97 C96 1.396 . S
C97 C98 1.394 . S
C98 C68 1.723 . S
C98 C94 1.397 . S
C98 C97 1.394 . S
C99 H71 0.982 . S
C99 H75 0.979 . S
C99 H76 0.977 . S
C99 C96 1.453 . S
C100 H72 0.979 . S
C100 H73 0.980 . S
C100 H74 0.983 . S
C100 C96 1.684 . S
H101 C119 0.948 . S
H102 C60 0.948 . S
H103 C78 0.979 . S
H104 C78 0.980 . S
H105 C78 0.983 . S
H106 C77 0.982 . S
H107 C77 0.979 . S
H108 C77 0.977 . S
H109 C79 0.948 . S
H110 C81 0.947 . S
H111 C82 0.948 . S
H112 C88 0.982 . S
H113 C88 0.979 . S
H114 C88 0.977 . S
H115 C89 0.979 . S
H116 C89 0.980 . S
H117 C89 0.983 . S
H118 C62 0.947 . S
C119 C62 1.392 . S
C119 C63 1.419 . S
C119 H101 0.948 . S
C120 C121 1.391 . S
C120 C124 1.391 . S
C120 H162 0.948 . S
C121 C120 1.391 . S
C121 C122 1.391 . S
C122 C121 1.391 . S
C122 H178 0.947 . S
C122 C179 1.392 . S
C123 C124 1.391 . S
C123 C127 1.397 . S
C123 C179 1.419 . S
C124 C120 1.391 . S
C124 C123 1.391 . S
C124 C125 1.399 . S
C125 C124 1.399 . S
C125 C128 1.396 . S
C125 C137 1.453 . S
C125 C138 1.684 . S
H126 C150 0.948 . S
C127 C123 1.397 . S
C127 C128 1.394 . S
C127 C146 1.723 . S
C128 C125 1.396 . S
C128 C127 1.394 . S
C128 C158 1.723 . S
H129 C152 0.947 . S
H130 C153 0.948 . S
H131 C159 0.982 . S
H132 C160 0.979 . S
H133 C160 0.980 . S
H134 C160 0.983 . S
H135 C159 0.979 . S
H136 C159 0.977 . S
C137 C125 1.453 . S
C137 H166 0.982 . S
C137 H167 0.979 . S
C137 H168 0.977 . S
C138 C125 1.684 . S
C138 H163 0.979 . S
C138 H164 0.980 . S
C138 H165 0.983 . S
C139 C140 1.391 . S
C139 C144 1.391 . S
C139 H169 0.948 . S
C140 C139 1.391 . S
C140 C141 1.391 . S
C141 C140 1.391 . S
C141 C142 1.392 . S
C141 H170 0.947 . S
C142 C141 1.392 . S
C142 C143 1.419 . S
C142 H171 0.948 . S
C143 C142 1.419 . S
C143 C144 1.391 . S
C143 C147 1.397 . S
C144 C139 1.391 . S
C144 C143 1.391 . S
C144 C145 1.399 . S
C145 C144 1.399 . S
C145 C146 1.396 . S
C145 C148 1.453 . S
C145 C149 1.684 . S
C146 C127 1.723 . S
C146 C145 1.396 . S
C146 C147 1.394 . S
C147 C143 1.397 . S
C147 C146 1.394 . S
C147 C157 1.723 . S
C148 C145 1.453 . S
C148 H172 0.982 . S
C148 H173 0.979 . S
C148 H174 0.977 . S
C149 C145 1.684 . S
C149 H175 0.979 . S
C149 H176 0.980 . S
C149 H177 0.983 . S
C150 H126 0.948 . S
C150 C151 1.391 . S
C150 C155 1.391 . S
C151 C150 1.391 . S
C151 C152 1.391 . S
C152 H129 0.947 . S
C152 C151 1.391 . S
C152 C153 1.392 . S
C153 H130 0.948 . S
C153 C152 1.392 . S
C153 C154 1.419 . S
C154 C153 1.419 . S
C154 C155 1.391 . S
C154 C158 1.397 . S
C155 C150 1.391 . S
C155 C154 1.391 . S
C155 C156 1.399 . S
C156 C155 1.399 . S
C156 C157 1.396 . S
C156 C159 1.453 . S
C156 C160 1.684 . S
C157 C147 1.723 . S
C157 C156 1.396 . S
C157 C158 1.394 . S
C158 C128 1.723 . S
C158 C154 1.397 . S
C158 C157 1.394 . S
C159 H131 0.982 . S
C159 H135 0.979 . S
C159 H136 0.977 . S
C159 C156 1.453 . S
C160 H132 0.979 . S
C160 H133 0.980 . S
C160 H134 0.983 . S
C160 C156 1.684 . S
H161 C179 0.948 . S
H162 C120 0.948 . S
H163 C138 0.979 . S
H164 C138 0.980 . S
H165 C138 0.983 . S
H166 C137 0.982 . S
H167 C137 0.979 . S
H168 C137 0.977 . S
H169 C139 0.948 . S
H170 C141 0.947 . S
H171 C142 0.948 . S
H172 C148 0.982 . S
H173 C148 0.979 . S
H174 C148 0.977 . S
H175 C149 0.979 . S
H176 C149 0.980 . S
H177 C149 0.983 . S
H178 C122 0.947 . S
C179 C122 1.392 . S
C179 C123 1.419 . S
C179 H161 0.948 . S
C180 C181 1.391 . S
C180 C184 1.391 . S
C180 H222 0.948 . S
C181 C180 1.391 . S
C181 C182 1.391 . S
C182 C181 1.391 . S
C182 H238 0.947 . S
C182 C239 1.392 . S
C183 C184 1.391 . S
C183 C187 1.397 . S
C183 C239 1.419 . S
C184 C180 1.391 . S
C184 C183 1.391 . S
C184 C185 1.399 . S
C185 C184 1.399 . S
C185 C188 1.396 . S
C185 C197 1.453 . S
C185 C198 1.684 . S
H186 C210 0.948 . S
C187 C183 1.397 . S
C187 C188 1.394 . S
C187 C206 1.723 . S
C188 C185 1.396 . S
C188 C187 1.394 . S
C188 C218 1.723 . S
H189 C212 0.947 . S
H190 C213 0.948 . S
H191 C219 0.982 . S
H192 C220 0.979 . S
H193 C220 0.980 . S
H194 C220 0.983 . S
H195 C219 0.979 . S
H196 C219 0.977 . S
C197 C185 1.453 . S
C197 H226 0.982 . S
C197 H227 0.979 . S
C197 H228 0.977 . S
C198 C185 1.684 . S
C198 H223 0.979 . S
C198 H224 0.980 . S
C198 H225 0.983 . S
C199 C200 1.391 . S
C199 C204 1.391 . S
C199 H229 0.948 . S
C200 C199 1.391 . S
C200 C201 1.391 . S
C201 C200 1.391 . S
C201 C202 1.392 . S
C201 H230 0.947 . S
C202 C201 1.392 . S
C202 C203 1.419 . S
C202 H231 0.948 . S
C203 C202 1.419 . S
C203 C204 1.391 . S
C203 C207 1.397 . S
C204 C199 1.391 . S
C204 C203 1.391 . S
C204 C205 1.399 . S
C205 C204 1.399 . S
C205 C206 1.396 . S
C205 C208 1.453 . S
C205 C209 1.684 . S
C206 C187 1.723 . S
C206 C205 1.396 . S
C206 C207 1.394 . S
C207 C203 1.397 . S
C207 C206 1.394 . S
C207 C217 1.723 . S
C208 C205 1.453 . S
C208 H232 0.982 . S
C208 H233 0.979 . S
C208 H234 0.977 . S
C209 C205 1.684 . S
C209 H235 0.979 . S
C209 H236 0.980 . S
C209 H237 0.983 . S
C210 H186 0.948 . S
C210 C211 1.391 . S
C210 C215 1.391 . S
C211 C210 1.391 . S
C211 C212 1.391 . S
C212 H189 0.947 . S
C212 C211 1.391 . S
C212 C213 1.392 . S
C213 H190 0.948 . S
C213 C212 1.392 . S
C213 C214 1.419 . S
C214 C213 1.419 . S
C214 C215 1.391 . S
C214 C218 1.397 . S
C215 C210 1.391 . S
C215 C214 1.391 . S
C215 C216 1.399 . S
C216 C215 1.399 . S
C216 C217 1.396 . S
C216 C219 1.453 . S
C216 C220 1.684 . S
C217 C207 1.723 . S
C217 C216 1.396 . S
C217 C218 1.394 . S
C218 C188 1.723 . S
C218 C214 1.397 . S
C218 C217 1.394 . S
C219 H191 0.982 . S
C219 H195 0.979 . S
C219 H196 0.977 . S
C219 C216 1.453 . S
C220 H192 0.979 . S
C220 H193 0.980 . S
C220 H194 0.983 . S
C220 C216 1.684 . S
H221 C239 0.948 . S
H222 C180 0.948 . S
H223 C198 0.979 . S
H224 C198 0.980 . S
H225 C198 0.983 . S
H226 C197 0.982 . S
H227 C197 0.979 . S
H228 C197 0.977 . S
H229 C199 0.948 . S
H230 C201 0.947 . S
H231 C202 0.948 . S
H232 C208 0.982 . S
H233 C208 0.979 . S
H234 C208 0.977 . S
H235 C209 0.979 . S
H236 C209 0.980 . S
H237 C209 0.983 . S
H238 C182 0.947 . S
C239 C182 1.392 . S
C239 C183 1.419 . S
C239 H221 0.948 . S
C240 C241 1.391 . S
C240 C244 1.391 . S
C240 H282 0.948 . S
C241 C240 1.391 . S
C241 C242 1.391 . S
C242 C241 1.391 . S
C242 H298 0.947 . S
C242 C299 1.392 . S
C243 C244 1.391 . S
C243 C247 1.397 . S
C243 C299 1.419 . S
C244 C240 1.391 . S
C244 C243 1.391 . S
C244 C245 1.399 . S
C245 C244 1.399 . S
C245 C248 1.396 . S
C245 C257 1.453 . S
C245 C258 1.684 . S
H246 C270 0.948 . S
C247 C243 1.397 . S
C247 C248 1.394 . S
C247 C266 1.723 . S
C248 C245 1.396 . S
C248 C247 1.394 . S
C248 C278 1.723 . S
H249 C272 0.947 . S
H250 C273 0.948 . S
H251 C279 0.982 . S
H252 C280 0.979 . S
H253 C280 0.980 . S
H254 C280 0.983 . S
H255 C279 0.979 . S
H256 C279 0.977 . S
C257 C245 1.453 . S
C257 H286 0.982 . S
C257 H287 0.979 . S
C257 H288 0.977 . S
C258 C245 1.684 . S
C258 H283 0.979 . S
C258 H284 0.980 . S
C258 H285 0.983 . S
C259 C260 1.391 . S
C259 C264 1.391 . S
C259 H289 0.948 . S
C260 C259 1.391 . S
C260 C261 1.391 . S
C261 C260 1.391 . S
C261 C262 1.392 . S
C261 H290 0.947 . S
C262 C261 1.392 . S
C262 C263 1.419 . S
C262 H291 0.948 . S
C263 C262 1.419 . S
C263 C264 1.391 . S
C263 C267 1.397 . S
C264 C259 1.391 . S
C264 C263 1.391 . S
C264 C265 1.399 . S
C265 C264 1.399 . S
C265 C266 1.396 . S
C265 C268 1.453 . S
C265 C269 1.684 . S
C266 C247 1.723 . S
C266 C265 1.396 . S
C266 C267 1.394 . S
C267 C263 1.397 . S
C267 C266 1.394 . S
C267 C277 1.723 . S
C268 C265 1.453 . S
C268 H292 0.982 . S
C268 H293 0.979 . S
C268 H294 0.977 . S
C269 C265 1.684 . S
C269 H295 0.979 . S
C269 H296 0.980 . S
C269 H297 0.983 . S
C270 H246 0.948 . S
C270 C271 1.391 . S
C270 C275 1.391 . S
C271 C270 1.391 . S
C271 C272 1.391 . S
C272 H249 0.947 . S
C272 C271 1.391 . S
C272 C273 1.392 . S
C273 H250 0.948 . S
C273 C272 1.392 . S
C273 C274 1.419 . S
C274 C273 1.419 . S
C274 C275 1.391 . S
C274 C278 1.397 . S
C275 C270 1.391 . S
C275 C274 1.391 . S
C275 C276 1.399 . S
C276 C275 1.399 . S
C276 C277 1.396 . S
C276 C279 1.453 . S
C276 C280 1.684 . S
C277 C267 1.723 . S
C277 C276 1.396 . S
C277 C278 1.394 . S
C278 C248 1.723 . S
C278 C274 1.397 . S
C278 C277 1.394 . S
C279 H251 0.982 . S
C279 H255 0.979 . S
C279 H256 0.977 . S
C279 C276 1.453 . S
C280 H252 0.979 . S
C280 H253 0.980 . S
C280 H254 0.983 . S
C280 C276 1.684 . S
H281 C299 0.948 . S
H282 C240 0.948 . S
H283 C258 0.979 . S
H284 C258 0.980 . S
H285 C258 0.983 . S
H286 C257 0.982 . S
H287 C257 0.979 . S
H288 C257 0.977 . S
H289 C259 0.948 . S
H290 C261 0.947 . S
H291 C262 0.948 . S
H292 C268 0.982 . S
H293 C268 0.979 . S
H294 C268 0.977 . S
H295 C269 0.979 . S
H296 C269 0.980 . S
H297 C269 0.983 . S
H298 C242 0.947 . S
C299 C242 1.392 . S
C299 C243 1.419 . S
C299 H281 0.948 . S
C300 C301 1.391 . S
C300 C304 1.391 . S
C300 H342 0.948 . S
C301 C300 1.391 . S
C301 C302 1.391 . S
C302 C301 1.391 . S
C302 H358 0.947 . S
C302 C359 1.392 . S
C303 C304 1.391 . S
C303 C307 1.397 . S
C303 C359 1.419 . S
C304 C300 1.391 . S
C304 C303 1.391 . S
C304 C305 1.399 . S
C305 C304 1.399 . S
C305 C308 1.396 . S
C305 C317 1.453 . S
C305 C318 1.684 . S
H306 C330 0.948 . S
C307 C303 1.397 . S
C307 C308 1.394 . S
C307 C326 1.723 . S
C308 C305 1.396 . S
C308 C307 1.394 . S
C308 C338 1.723 . S
H309 C332 0.947 . S
H310 C333 0.948 . S
H311 C339 0.982 . S
H312 C340 0.979 . S
H313 C340 0.980 . S
H314 C340 0.983 . S
H315 C339 0.979 . S
H316 C339 0.977 . S
C317 C305 1.453 . S
C317 H346 0.982 . S
C317 H347 0.979 . S
C317 H348 0.977 . S
C318 C305 1.684 . S
C318 H343 0.979 . S
C318 H344 0.980 . S
C318 H345 0.983 . S
C319 C320 1.391 . S
C319 C324 1.391 . S
C319 H349 0.948 . S
C320 C319 1.391 . S
C320 C321 1.391 . S
C321 C320 1.391 . S
C321 C322 1.392 . S
C321 H350 0.947 . S
C322 C321 1.392 . S
C322 C323 1.419 . S
C322 H351 0.948 . S
C323 C322 1.419 . S
C323 C324 1.391 . S
C323 C327 1.397 . S
C324 C319 1.391 . S
C324 C323 1.391 . S
C324 C325 1.399 . S
C325 C324 1.399 . S
C325 C326 1.396 . S
C325 C328 1.453 . S
C325 C329 1.684 . S
C326 C307 1.723 . S
C326 C325 1.396 . S
C326 C327 1.394 . S
C327 C323 1.397 . S
C327 C326 1.394 . S
C327 C337 1.723 . S
C328 C325 1.453 . S
C328 H352 0.982 . S
C328 H353 0.979 . S
C328 H354 0.977 . S
C329 C325 1.684 . S
C329 H355 0.979 . S
C329 H356 0.980 . S
C329 H357 0.983 . S
C330 H306 0.948 . S
C330 C331 1.391 . S
C330 C335 1.391 . S
C331 C330 1.391 . S
C331 C332 1.391 . S
C332 H309 0.947 . S
C332 C331 1.391 . S
C332 C333 1.392 . S
C333 H310 0.948 . S
C333 C332 1.392 . S
C333 C334 1.419 . S
C334 C333 1.419 . S
C334 C335 1.391 . S
C334 C338 1.397 . S
C335 C330 1.391 . S
C335 C334 1.391 . S
C335 C336 1.399 . S
C336 C335 1.399 . S
C336 C337 1.396 . S
C336 C339 1.453 . S
C336 C340 1.684 . S
C337 C327 1.723 . S
C337 C336 1.396 . S
C337 C338 1.394 . S
C338 C308 1.723 . S
C338 C334 1.397 . S
C338 C337 1.394 . S
C339 H311 0.982 . S
C339 H315 0.979 . S
C339 H316 0.977 . S
C339 C336 1.453 . S
C340 H312 0.979 . S
C340 H313 0.980 . S
C340 H314 0.983 . S
C340 C336 1.684 . S
H341 C359 0.948 . S
H342 C300 0.948 . S
H343 C318 0.979 . S
H344 C318 0.980 . S
H345 C318 0.983 . S
H346 C317 0.982 . S
H347 C317 0.979 . S
H348 C317 0.977 . S
H349 C319 0.948 . S
H350 C321 0.947 . S
H351 C322 0.948 . S
H352 C328 0.982 . S
H353 C328 0.979 . S
H354 C328 0.977 . S
H355 C329 0.979 . S
H356 C329 0.980 . S
H357 C329 0.983 . S
H358 C302 0.947 . S
C359 C302 1.392 . S
C359 C303 1.419 . S
C359 H341 0.948 . S
C360 C361 1.391 . S
C360 C364 1.391 . S
C360 H402 0.948 . S
C361 C360 1.391 . S
C361 C362 1.391 . S
C362 C361 1.391 . S
C362 H418 0.947 . S
C362 C419 1.392 . S
C363 C364 1.391 . S
C363 C367 1.397 . S
C363 C419 1.419 . S
C364 C360 1.391 . S
C364 C363 1.391 . S
C364 C365 1.399 . S
C365 C364 1.399 . S
C365 C368 1.396 . S
C365 C377 1.453 . S
C365 C378 1.684 . S
H366 C390 0.948 . S
C367 C363 1.397 . S
C367 C368 1.394 . S
C367 C386 1.723 . S
C368 C365 1.396 . S
C368 C367 1.394 . S
C368 C398 1.723 . S
H369 C392 0.947 . S
H370 C393 0.948 . S
H371 C399 0.982 . S
H372 C400 0.979 . S
H373 C400 0.980 . S
H374 C400 0.983 . S
H375 C399 0.979 . S
H376 C399 0.977 . S
C377 C365 1.453 . S
C377 H406 0.982 . S
C377 H407 0.979 . S
C377 H408 0.977 . S
C378 C365 1.684 . S
C378 H403 0.979 . S
C378 H404 0.980 . S
C378 H405 0.983 . S
C379 C380 1.391 . S
C379 C384 1.391 . S
C379 H409 0.948 . S
C380 C379 1.391 . S
C380 C381 1.391 . S
C381 C380 1.391 . S
C381 C382 1.392 . S
C381 H410 0.947 . S
C382 C381 1.392 . S
C382 C383 1.419 . S
C382 H411 0.948 . S
C383 C382 1.419 . S
C383 C384 1.391 . S
C383 C387 1.397 . S
C384 C379 1.391 . S
C384 C383 1.391 . S
C384 C385 1.399 . S
C385 C384 1.399 . S
C385 C386 1.396 . S
C385 C388 1.453 . S
C385 C389 1.684 . S
C386 C367 1.723 . S
C386 C385 1.396 . S
C386 C387 1.394 . S
C387 C383 1.397 . S
C387 C386 1.394 . S
C387 C397 1.723 . S
C388 C385 1.453 . S
C388 H412 0.982 . S
C388 H413 0.979 . S
C388 H414 0.977 . S
C389 C385 1.684 . S
C389 H415 0.979 . S
C389 H416 0.980 . S
C389 H417 0.983 . S
C390 H366 0.948 . S
C390 C391 1.391 . S
C390 C395 1.391 . S
C391 C390 1.391 . S
C391 C392 1.391 . S
C392 H369 0.947 . S
C392 C391 1.391 . S
C392 C393 1.392 . S
C393 H370 0.948 . S
C393 C392 1.392 . S
C393 C394 1.419 . S
C394 C393 1.419 . S
C394 C395 1.391 . S
C394 C398 1.397 . S
C395 C390 1.391 . S
C395 C394 1.391 . S
C395 C396 1.399 . S
C396 C395 1.399 . S
C396 C397 1.396 . S
C396 C399 1.453 . S
C396 C400 1.684 . S
C397 C387 1.723 . S
C397 C396 1.396 . S
C397 C398 1.394 . S
C398 C368 1.723 . S
C398 C394 1.397 . S
C398 C397 1.394 . S
C399 H371 0.982 . S
C399 H375 0.979 . S
C399 H376 0.977 . S
C399 C396 1.453 . S
C400 H372 0.979 . S
C400 H373 0.980 . S
C400 H374 0.983 . S
C400 C396 1.684 . S
H401 C419 0.948 . S
H402 C360 0.948 . S
H403 C378 0.979 . S
H404 C378 0.980 . S
H405 C378 0.983 . S
H406 C377 0.982 . S
H407 C377 0.979 . S
H408 C377 0.977 . S
H409 C379 0.948 . S
H410 C381 0.947 . S
H411 C382 0.948 . S
H412 C388 0.982 . S
H413 C388 0.979 . S
H414 C388 0.977 . S
H415 C389 0.979 . S
H416 C389 0.980 . S
H417 C389 0.983 . S
H418 C362 0.947 . S
C419 C362 1.392 . S
C419 C363 1.419 . S
C419 H401 0.948 . S
C420 C421 1.391 . S
C420 C424 1.391 . S
C420 H462 0.948 . S
C421 C420 1.391 . S
C421 C422 1.391 . S
C422 C421 1.391 . S
C422 H478 0.947 . S
C422 C479 1.392 . S
C423 C424 1.391 . S
C423 C427 1.397 . S
C423 C479 1.419 . S
C424 C420 1.391 . S
C424 C423 1.391 . S
C424 C425 1.399 . S
C425 C424 1.399 . S
C425 C428 1.396 . S
C425 C437 1.453 . S
C425 C438 1.684 . S
H426 C450 0.948 . S
C427 C423 1.397 . S
C427 C428 1.394 . S
C427 C446 1.723 . S
C428 C425 1.396 . S
C428 C427 1.394 . S
C428 C458 1.723 . S
H429 C452 0.947 . S
H430 C453 0.948 . S
H431 C459 0.982 . S
H432 C460 0.979 . S
H433 C460 0.980 . S
H434 C460 0.983 . S
H435 C459 0.979 . S
H436 C459 0.977 . S
C437 C425 1.453 . S
C437 H466 0.982 . S
C437 H467 0.979 . S
C437 H468 0.977 . S
C438 C425 1.684 . S
C438 H463 0.979 . S
C438 H464 0.980 . S
C438 H465 0.983 . S
C439 C440 1.391 . S
C439 C444 1.391 . S
C439 H469 0.948 . S
C440 C439 1.391 . S
C440 C441 1.391 . S
C441 C440 1.391 . S
C441 C442 1.392 . S
C441 H470 0.947 . S
C442 C441 1.392 . S
C442 C443 1.419 . S
C442 H471 0.948 . S
C443 C442 1.419 . S
C443 C444 1.391 . S
C443 C447 1.397 . S
C444 C439 1.391 . S
C444 C443 1.391 . S
C444 C445 1.399 . S
C445 C444 1.399 . S
C445 C446 1.396 . S
C445 C448 1.453 . S
C445 C449 1.684 . S
C446 C427 1.723 . S
C446 C445 1.396 . S
C446 C447 1.394 . S
C447 C443 1.397 . S
C447 C446 1.394 . S
C447 C457 1.723 . S
C448 C445 1.453 . S
C448 H472 0.982 . S
C448 H473 0.979 . S
C448 H474 0.977 . S
C449 C445 1.684 . S
C449 H475 0.979 . S
C449 H476 0.980 . S
C449 H477 0.983 . S
C450 H426 0.948 . S
C450 C451 1.391 . S
C450 C455 1.391 . S
C451 C450 1.391 . S
C451 C452 1.391 . S
C452 H429 0.947 . S
C452 C451 1.391 . S
C452 C453 1.392 . S
C453 H430 0.948 . S
C453 C452 1.392 . S
C453 C454 1.419 . S
C454 C453 1.419 . S
C454 C455 1.391 . S
C454 C458 1.397 . S
C455 C450 1.391 . S
C455 C454 1.391 . S
C455 C456 1.399 . S
C456 C455 1.399 . S
C456 C457 1.396 . S
C456 C459 1.453 . S
C456 C460 1.684 . S
C457 C447 1.723 . S
C457 C456 1.396 . S
C457 C458 1.394 . S
C458 C428 1.723 . S
C458 C454 1.397 . S
C458 C457 1.394 . S
C459 H431 0.982 . S
C459 H435 0.979 . S
C459 H436 0.977 . S
C459 C456 1.453 . S
C460 H432 0.979 . S
C460 H433 0.980 . S
C460 H434 0.983 . S
C460 C456 1.684 . S
H461 C479 0.948 . S
H462 C420 0.948 . S
H463 C438 0.979 . S
H464 C438 0.980 . S
H465 C438 0.983 . S
H466 C437 0.982 . S
H467 C437 0.979 . S
H468 C437 0.977 . S
H469 C439 0.948 . S
H470 C441 0.947 . S
H471 C442 0.948 . S
H472 C448 0.982 . S
H473 C448 0.979 . S
H474 C448 0.977 . S
H475 C449 0.979 . S
H476 C449 0.980 . S
H477 C449 0.983 . S
H478 C422 0.947 . S
C479 C422 1.392 . S
C479 C423 1.419 . S
C479 H461 0.948 . S
Pr480 C482 2.880 . S
Pr480 O500 2.562 . S
Pr480 O501 2.490 . S
Pr480 O502 2.695 1_665 S
Pr480 O503 2.513 1_565 S
Pr480 O505 2.437 1_655 S
Pr480 O508 2.436 . S
Pr480 O510 2.438 1_565 S
Pr481 C491 2.880 . S
Pr481 O502 2.436 . S
Pr481 O504 2.438 1_545 S
Pr481 O506 2.562 . S
Pr481 O507 2.490 . S
Pr481 O508 2.695 1_445 S
Pr481 O509 2.518 1_545 S
Pr481 O511 2.437 1_455 S
C482 Pr480 2.880 . S
C482 C483 1.491 . S
C482 O500 1.254 . S
C482 O501 1.225 . S
C483 C482 1.491 . S
C483 C484 1.392 . S
C483 C488 1.356 . S
C484 C483 1.392 . S
C484 C485 1.368 . S
C484 H512 0.929 . S
C485 C484 1.368 . S
C485 C486 1.386 . S
C485 H513 0.929 . S
C486 C485 1.386 . S
C486 C487 1.373 . S
C487 C486 1.373 . S
C487 C488 1.409 . S
C487 H514 0.931 . S
C488 C483 1.356 . S
C488 C487 1.409 . S
C488 H515 0.930 . S
C489 O502 1.270 . S
C489 O503 1.246 1_455 S
C490 O504 1.267 . S
C490 O505 1.278 . S
C491 Pr481 2.880 . S
C491 C492 1.491 . S
C491 O506 1.254 . S
C491 O507 1.225 . S
C492 C491 1.491 . S
C492 C493 1.392 . S
C492 C497 1.356 . S
C493 C492 1.392 . S
C493 C494 1.368 . S
C493 H516 0.929 . S
C494 C493 1.368 . S
C494 C495 1.386 . S
C494 H517 0.929 . S
C495 C494 1.386 . S
C495 C496 1.373 . S
C496 C495 1.373 . S
C496 C497 1.409 . S
C496 H518 0.931 . S
C497 C492 1.356 . S
C497 C496 1.409 . S
C497 H519 0.930 . S
C498 O508 1.270 . S
C498 O509 1.226 1_655 S
C499 O510 1.267 . S
C499 O511 1.278 . S
O500 Pr480 2.562 . S
O500 C482 1.254 . S
O501 Pr480 2.490 . S
O501 C482 1.225 . S
O502 Pr480 2.695 1_445 S
O502 Pr481 2.436 . S
O502 C489 1.270 . S
O503 Pr480 2.513 1_545 S
O503 C489 1.246 1_655 S
O504 Pr481 2.438 1_565 S
O504 C490 1.267 . S
O505 Pr480 2.437 1_455 S
O505 C490 1.278 . S
O506 Pr481 2.562 . S
O506 C491 1.254 . S
O507 Pr481 2.490 . S
O507 C491 1.225 . S
O508 Pr480 2.436 . S
O508 Pr481 2.695 1_665 S
O508 C498 1.270 . S
O509 Pr481 2.518 1_565 S
O509 C498 1.226 1_455 S
O510 Pr480 2.438 1_545 S
O510 C499 1.267 . S
O511 Pr481 2.437 1_655 S
O511 C499 1.278 . S
H512 C484 0.929 . S
H513 C485 0.929 . S
H514 C487 0.931 . S
H515 C488 0.930 . S
H516 C493 0.929 . S
H517 C494 0.929 . S
H518 C496 0.931 . S
H519 C497 0.930 . S
Pr520 C522 2.880 . S
Pr520 O540 2.562 . S
Pr520 O541 2.490 . S
Pr520 O542 2.695 1_554 S
Pr520 O543 2.512 1_554 S
Pr520 O545 2.437 . S
Pr520 O548 2.436 1_545 S
Pr520 O550 2.438 1_544 S
Pr521 C531 2.901 . S
Pr521 O542 2.447 1_565 S
Pr521 O544 2.418 1_566 S
Pr521 O546 2.590 . S
Pr521 O547 2.501 . S
Pr521 O548 2.677 1_556 S
Pr521 O549 2.492 1_556 S
Pr521 O551 2.448 . S
C522 Pr520 2.880 . S
C522 C523 1.491 . S
C522 O540 1.254 . S
C522 O541 1.225 . S
C523 C522 1.491 . S
C523 C524 1.392 . S
C523 C528 1.356 . S
C524 C523 1.392 . S
C524 C525 1.368 . S
C524 H552 0.929 . S
C525 C524 1.368 . S
C525 C526 1.386 . S
C525 H553 0.929 . S
C526 C525 1.386 . S
C526 C527 1.373 . S
C527 C526 1.373 . S
C527 C528 1.409 . S
C527 H554 0.931 . S
C528 C523 1.356 . S
C528 C527 1.409 . S
C528 H555 0.930 . S
C529 O542 1.270 . S
C529 O543 1.248 . S
C530 O544 1.267 . S
C530 O545 1.278 . S
C531 Pr521 2.901 . S
C531 C532 1.491 . S
C531 O546 1.254 . S
C531 O547 1.225 . S
C532 C531 1.491 . S
C532 C533 1.392 . S
C532 C537 1.356 . S
C533 C532 1.392 . S
C533 C534 1.368 . S
C533 H556 0.929 . S
C534 C533 1.368 . S
C534 C535 1.386 . S
C534 H557 0.929 . S
C535 C534 1.386 . S
C535 C536 1.373 . S
C536 C535 1.373 . S
C536 C537 1.409 . S
C536 H558 0.931 . S
C537 C532 1.356 . S
C537 C536 1.409 . S
C537 H559 0.930 . S
C538 O548 1.270 . S
C538 O549 1.248 . S
C539 O550 1.267 . S
C539 O551 1.278 . S
O540 Pr520 2.562 . S
O540 C522 1.254 . S
O541 Pr520 2.490 . S
O541 C522 1.225 . S
O542 Pr520 2.695 1_556 S
O542 Pr521 2.447 1_545 S
O542 C529 1.270 . S
O543 Pr520 2.512 1_556 S
O543 C529 1.248 . S
O544 Pr521 2.418 1_544 S
O544 C530 1.267 . S
O545 Pr520 2.437 . S
O545 C530 1.278 . S
O546 Pr521 2.590 . S
O546 C531 1.254 . S
O547 Pr521 2.501 . S
O547 C531 1.225 . S
O548 Pr520 2.436 1_565 S
O548 Pr521 2.677 1_554 S
O548 C538 1.270 . S
O549 Pr521 2.492 1_554 S
O549 C538 1.248 . S
O550 Pr520 2.438 1_566 S
O550 C539 1.267 . S
O551 Pr521 2.448 . S
O551 C539 1.278 . S
H552 C524 0.929 . S
H553 C525 0.929 . S
H554 C527 0.931 . S
H555 C528 0.930 . S
H556 C533 0.929 . S
H557 C534 0.929 . S
H558 C536 0.931 . S
H559 C537 0.930 . S
Pr560 C562 2.880 . S
Pr560 O580 2.562 . S
Pr560 O581 2.490 . S
Pr560 O582 2.695 . S
Pr560 O583 2.512 . S
Pr560 O585 2.437 . S
Pr560 O588 2.436 . S
Pr560 O590 2.438 . S
Pr561 C571 2.880 . S
Pr561 O582 2.436 . S
Pr561 O584 2.438 . S
Pr561 O586 2.562 . S
Pr561 O587 2.490 . S
Pr561 O588 2.695 . S
Pr561 O589 2.512 . S
Pr561 O591 2.437 . S
C562 Pr560 2.880 . S
C562 C563 1.491 . S
C562 O580 1.254 . S
C562 O581 1.225 . S
C563 C562 1.491 . S
C563 C564 1.392 . S
C563 C568 1.356 . S
C564 C563 1.392 . S
C564 C565 1.368 . S
C564 H592 0.929 . S
C565 C564 1.368 . S
C565 C566 1.386 . S
C565 H593 0.929 . S
C566 C565 1.386 . S
C566 C567 1.373 . S
C567 C566 1.373 . S
C567 C568 1.409 . S
C567 H594 0.931 . S
C568 C563 1.356 . S
C568 C567 1.409 . S
C568 H595 0.930 . S
C569 O582 1.270 . S
C569 O583 1.248 . S
C570 O584 1.267 . S
C570 O585 1.278 . S
C571 Pr561 2.880 . S
C571 C572 1.491 . S
C571 O586 1.254 . S
C571 O587 1.225 . S
C572 C571 1.491 . S
C572 C573 1.392 . S
C572 C577 1.356 . S
C573 C572 1.392 . S
C573 C574 1.368 . S
C573 H596 0.929 . S
C574 C573 1.368 . S
C574 C575 1.386 . S
C574 H597 0.929 . S
C575 C574 1.386 . S
C575 C576 1.373 . S
C576 C575 1.373 . S
C576 C577 1.409 . S
C576 H598 0.931 . S
C577 C572 1.356 . S
C577 C576 1.409 . S
C577 H599 0.930 . S
C578 O588 1.270 . S
C578 O589 1.248 . S
C579 O590 1.267 . S
C579 O591 1.278 . S
O580 Pr560 2.562 . S
O580 C562 1.254 . S
O581 Pr560 2.490 . S
O581 C562 1.225 . S
O582 Pr560 2.695 . S
O582 Pr561 2.436 . S
O582 C569 1.270 . S
O583 Pr560 2.512 . S
O583 C569 1.248 . S
O584 Pr561 2.438 . S
O584 C570 1.267 . S
O585 Pr560 2.437 . S
O585 C570 1.278 . S
O586 Pr561 2.562 . S
O586 C571 1.254 . S
O587 Pr561 2.490 . S
O587 C571 1.225 . S
O588 Pr560 2.436 . S
O588 Pr561 2.695 . S
O588 C578 1.270 . S
O589 Pr561 2.512 . S
O589 C578 1.248 . S
O590 Pr560 2.438 . S
O590 C579 1.267 . S
O591 Pr561 2.437 . S
O591 C579 1.278 . S
H592 C564 0.929 . S
H593 C565 0.929 . S
H594 C567 0.931 . S
H595 C568 0.930 . S
H596 C573 0.929 . S
H597 C574 0.929 . S
H598 C576 0.931 . S
H599 C577 0.930 . S
Pr600 C602 2.880 . S
Pr600 O620 2.562 . S
Pr600 O621 2.490 . S
Pr600 O622 2.695 1_656 S
Pr600 O623 2.512 1_656 S
Pr600 O625 2.437 1_556 S
Pr600 O628 2.436 . S
Pr600 O630 2.438 1_655 S
Pr601 C611 2.880 . S
Pr601 O622 2.436 . S
Pr601 O624 2.438 1_455 S
Pr601 O626 2.562 . S
Pr601 O627 2.490 . S
Pr601 O628 2.695 1_454 S
Pr601 O629 2.512 1_454 S
Pr601 O631 2.437 1_554 S
C602 Pr600 2.880 . S
C602 C603 1.491 . S
C602 O620 1.254 . S
C602 O621 1.225 . S
C603 C602 1.491 . S
C603 C604 1.392 . S
C603 C608 1.356 . S
C604 C603 1.392 . S
C604 C605 1.368 . S
C604 H632 0.929 . S
C605 C604 1.368 . S
C605 C606 1.386 . S
C605 H633 0.929 . S
C606 C605 1.386 . S
C606 C607 1.373 . S
C607 C606 1.373 . S
C607 C608 1.409 . S
C607 H634 0.931 . S
C608 C603 1.356 . S
C608 C607 1.409 . S
C608 H635 0.930 . S
C609 O622 1.270 . S
C609 O623 1.248 . S
C610 O624 1.267 . S
C610 O625 1.278 . S
C611 Pr601 2.880 . S
C611 C612 1.491 . S
C611 O626 1.254 . S
C611 O627 1.225 . S
C612 C611 1.491 . S
C612 C613 1.392 . S
C612 C617 1.356 . S
C613 C612 1.392 . S
C613 C614 1.368 . S
C613 H636 0.929 . S
C614 C613 1.368 . S
C614 C615 1.386 . S
C614 H637 0.929 . S
C615 C614 1.386 . S
C615 C616 1.373 . S
C616 C615 1.373 . S
C616 C617 1.409 . S
C616 H638 0.931 . S
C617 C612 1.356 . S
C617 C616 1.409 . S
C617 H639 0.930 . S
C618 O628 1.270 . S
C618 O629 1.248 . S
C619 O630 1.267 . S
C619 O631 1.278 . S
O620 Pr600 2.562 . S
O620 C602 1.254 . S
O621 Pr600 2.490 . S
O621 C602 1.225 . S
O622 Pr600 2.695 1_454 S
O622 Pr601 2.436 . S
O622 C609 1.270 . S
O623 Pr600 2.512 1_454 S
O623 C609 1.248 . S
O624 Pr601 2.438 1_655 S
O624 C610 1.267 . S
O625 Pr600 2.437 1_554 S
O625 C610 1.278 . S
O626 Pr601 2.562 . S
O626 C611 1.254 . S
O627 Pr601 2.490 . S
O627 C611 1.225 . S
O628 Pr600 2.436 . S
O628 Pr601 2.695 1_656 S
O628 C618 1.270 . S
O629 Pr601 2.512 1_656 S
O629 C618 1.248 . S
O630 Pr600 2.438 1_455 S
O630 C619 1.267 . S
O631 Pr601 2.437 1_556 S
O631 C619 1.278 . S
H632 C604 0.929 . S
H633 C605 0.929 . S
H634 C607 0.931 . S
H635 C608 0.930 . S
H636 C613 0.929 . S
H637 C614 0.929 . S
H638 C616 0.931 . S
H639 C617 0.930 . S
C640 C641 1.387 . S
C640 H644 0.950 . S
C640 C649 1.390 . S
C641 C640 1.387 . S
C641 C643 1.387 . S
H642 C649 0.950 . S
C643 C641 1.387 . S
C643 C645 1.390 . S
C643 H647 0.950 . S
H644 C640 0.950 . S
C645 C643 1.390 . S
C645 C646 1.387 . S
C645 H648 0.950 . S
C646 C645 1.387 . S
C646 C649 1.387 . S
H647 C643 0.950 . S
H648 C645 0.950 . S
C649 C640 1.390 . S
C649 H642 0.950 . S
C649 C646 1.387 . S
C650 C651 1.387 . S
C650 H654 0.950 . S
C650 C659 1.390 . S
C651 C650 1.387 . S
C651 C653 1.387 . S
H652 C659 0.950 . S
C653 C651 1.387 . S
C653 C655 1.390 . S
C653 H657 0.950 . S
H654 C650 0.950 . S
C655 C653 1.390 . S
C655 C656 1.387 . S
C655 H658 0.950 . S
C656 C655 1.387 . S
C656 C659 1.387 . S
H657 C653 0.950 . S
H658 C655 0.950 . S
C659 C650 1.390 . S
C659 H652 0.950 . S
C659 C656 1.387 . S
C660 C661 1.387 . S
C660 H664 0.950 . S
C660 C669 1.390 . S
C661 C660 1.387 . S
C661 C663 1.387 . S
H662 C669 0.950 . S
C663 C661 1.387 . S
C663 C665 1.390 . S
C663 H667 0.950 . S
H664 C660 0.950 . S
C665 C663 1.390 . S
C665 C666 1.387 . S
C665 H668 0.950 . S
C666 C665 1.387 . S
C666 C669 1.387 . S
H667 C663 0.950 . S
H668 C665 0.950 . S
C669 C660 1.390 . S
C669 H662 0.950 . S
C669 C666 1.387 . S
C670 C671 1.387 . S
C670 H674 0.950 . S
C670 C679 1.390 . S
C671 C670 1.387 . S
C671 C673 1.387 . S
H672 C679 0.950 . S
C673 C671 1.387 . S
C673 C675 1.390 . S
C673 H677 0.950 . S
H674 C670 0.950 . S
C675 C673 1.390 . S
C675 C676 1.387 . S
C675 H678 0.950 . S
C676 C675 1.387 . S
C676 C679 1.387 . S
H677 C673 0.950 . S
H678 C675 0.950 . S
C679 C670 1.390 . S
C679 H672 0.950 . S
C679 C676 1.387 . S
C680 C681 1.387 . S
C680 H684 0.950 . S
C680 C689 1.390 . S
C681 C680 1.387 . S
C681 C683 1.387 . S
H682 C689 0.950 . S
C683 C681 1.387 . S
C683 C685 1.390 . S
C683 H687 0.950 . S
H684 C680 0.950 . S
C685 C683 1.390 . S
C685 C686 1.387 . S
C685 H688 0.950 . S
C686 C685 1.387 . S
C686 C689 1.387 . S
H687 C683 0.950 . S
H688 C685 0.950 . S
C689 C680 1.390 . S
C689 H682 0.950 . S
C689 C686 1.387 . S
C690 C691 1.387 . S
C690 H694 0.950 . S
C690 C699 1.390 . S
C691 C690 1.387 . S
C691 C693 1.387 . S
H692 C699 0.950 . S
C693 C691 1.387 . S
C693 C695 1.390 . S
C693 H697 0.950 . S
H694 C690 0.950 . S
C695 C693 1.390 . S
C695 C696 1.387 . S
C695 H698 0.950 . S
C696 C695 1.387 . S
C696 C699 1.387 . S
H697 C693 0.950 . S
H698 C695 0.950 . S
C699 C690 1.390 . S
C699 H692 0.950 . S
C699 C696 1.387 . S
C700 C701 1.387 . S
C700 H704 0.950 . S
C700 C709 1.390 . S
C701 C700 1.387 . S
C701 C703 1.387 . S
H702 C709 0.950 . S
C703 C701 1.387 . S
C703 C705 1.390 . S
C703 H707 0.950 . S
H704 C700 0.950 . S
C705 C703 1.390 . S
C705 C706 1.387 . S
C705 H708 0.950 . S
C706 C705 1.387 . S
C706 C709 1.387 . S
H707 C703 0.950 . S
H708 C705 0.950 . S
C709 C700 1.390 . S
C709 H702 0.950 . S
C709 C706 1.387 . S
C710 C711 1.387 . S
C710 H714 0.950 . S
C710 C719 1.390 . S
C711 C710 1.387 . S
C711 C713 1.387 . S
H712 C719 0.950 . S
C713 C711 1.387 . S
C713 C715 1.390 . S
C713 H717 0.950 . S
H714 C710 0.950 . S
C715 C713 1.390 . S
C715 C716 1.387 . S
C715 H718 0.950 . S
C716 C715 1.387 . S
C716 C719 1.387 . S
H717 C713 0.950 . S
H718 C715 0.950 . S
C719 C710 1.390 . S
C719 H712 0.950 . S
C719 C716 1.387 . S
C720 C721 1.387 . S
C720 H724 0.950 . S
C720 C729 1.390 . S
C721 C720 1.387 . S
C721 C723 1.387 . S
H722 C729 0.950 . S
C723 C721 1.387 . S
C723 C725 1.390 . S
C723 H727 0.950 . S
H724 C720 0.950 . S
C725 C723 1.390 . S
C725 C726 1.387 . S
C725 H728 0.950 . S
C726 C725 1.387 . S
C726 C729 1.387 . S
H727 C723 0.950 . S
H728 C725 0.950 . S
C729 C720 1.390 . S
C729 H722 0.950 . S
C729 C726 1.387 . S
C730 C731 1.387 . S
C730 H734 0.950 . S
C730 C739 1.390 . S
C731 C730 1.387 . S
C731 C733 1.387 . S
H732 C739 0.950 . S
C733 C731 1.387 . S
C733 C735 1.390 . S
C733 H737 0.950 . S
H734 C730 0.950 . S
C735 C733 1.390 . S
C735 C736 1.387 . S
C735 H738 0.950 . S
C736 C735 1.387 . S
C736 C739 1.387 . S
H737 C733 0.950 . S
H738 C735 0.950 . S
C739 C730 1.390 . S
C739 H732 0.950 . S
C739 C736 1.387 . S
C740 C741 1.387 . S
C740 H744 0.950 . S
C740 C749 1.390 . S
C741 C740 1.387 . S
C741 C743 1.387 . S
H742 C749 0.950 . S
C743 C741 1.387 . S
C743 C745 1.390 . S
C743 H747 0.950 . S
H744 C740 0.950 . S
C745 C743 1.390 . S
C745 C746 1.387 . S
C745 H748 0.950 . S
C746 C745 1.387 . S
C746 C749 1.387 . S
H747 C743 0.950 . S
H748 C745 0.950 . S
C749 C740 1.390 . S
C749 H742 0.950 . S
C749 C746 1.387 . S
C750 C751 1.387 . S
C750 H754 0.950 . S
C750 C759 1.390 . S
C751 C750 1.387 . S
C751 C753 1.387 . S
H752 C759 0.950 . S
C753 C751 1.387 . S
C753 C755 1.390 . S
C753 H757 0.950 . S
H754 C750 0.950 . S
C755 C753 1.390 . S
C755 C756 1.387 . S
C755 H758 0.950 . S
C756 C755 1.387 . S
C756 C759 1.387 . S
H757 C753 0.950 . S
H758 C755 0.950 . S
C759 C750 1.390 . S
C759 H752 0.950 . S
C759 C756 1.387 . S
C760 C761 1.387 . S
C760 H764 0.950 . S
C760 C769 1.390 . S
C761 C760 1.387 . S
C761 C763 1.387 . S
H762 C769 0.950 . S
C763 C761 1.387 . S
C763 C765 1.390 . S
C763 H767 0.950 . S
H764 C760 0.950 . S
C765 C763 1.390 . S
C765 C766 1.387 . S
C765 H768 0.950 . S
C766 C765 1.387 . S
C766 C769 1.387 . S
H767 C763 0.950 . S
H768 C765 0.950 . S
C769 C760 1.390 . S
C769 H762 0.950 . S
C769 C766 1.387 . S
C770 C771 1.387 . S
C770 H774 0.950 . S
C770 C779 1.390 . S
C771 C770 1.387 . S
C771 C773 1.387 . S
H772 C779 0.950 . S
C773 C771 1.387 . S
C773 C775 1.390 . S
C773 H777 0.950 . S
H774 C770 0.950 . S
C775 C773 1.390 . S
C775 C776 1.387 . S
C775 H778 0.950 . S
C776 C775 1.387 . S
C776 C779 1.387 . S
H777 C773 0.950 . S
H778 C775 0.950 . S
C779 C770 1.390 . S
C779 H772 0.950 . S
C779 C776 1.387 . S
C780 C781 1.387 . S
C780 H784 0.950 . S
C780 C789 1.390 . S
C781 C780 1.387 . S
C781 C783 1.387 . S
H782 C789 0.950 . S
C783 C781 1.387 . S
C783 C785 1.390 . S
C783 H787 0.950 . S
H784 C780 0.950 . S
C785 C783 1.390 . S
C785 C786 1.387 . S
C785 H788 0.950 . S
C786 C785 1.387 . S
C786 C789 1.387 . S
H787 C783 0.950 . S
H788 C785 0.950 . S
C789 C780 1.390 . S
C789 H782 0.950 . S
C789 C786 1.387 . S
C790 C791 1.387 . S
C790 H794 0.950 . S
C790 C799 1.390 . S
C791 C790 1.387 . S
C791 C793 1.387 . S
H792 C799 0.950 . S
C793 C791 1.387 . S
C793 C795 1.390 . S
C793 H797 0.950 . S
H794 C790 0.950 . S
C795 C793 1.390 . S
C795 C796 1.387 . S
C795 H798 0.950 . S
C796 C795 1.387 . S
C796 C799 1.387 . S
H797 C793 0.950 . S
H798 C795 0.950 . S
C799 C790 1.390 . S
C799 H792 0.950 . S
C799 C796 1.387 . S
C800 C801 1.387 . S
C800 H804 0.950 . S
C800 C809 1.390 . S
C801 C800 1.387 . S
C801 C803 1.387 . S
H802 C809 0.950 . S
C803 C801 1.387 . S
C803 C805 1.390 . S
C803 H807 0.950 . S
H804 C800 0.950 . S
C805 C803 1.390 . S
C805 C806 1.387 . S
C805 H808 0.950 . S
C806 C805 1.387 . S
C806 C809 1.387 . S
H807 C803 0.950 . S
H808 C805 0.950 . S
C809 C800 1.390 . S
C809 H802 0.950 . S
C809 C806 1.387 . S
C810 C811 1.387 . S
C810 H814 0.950 . S
C810 C819 1.390 . S
C811 C810 1.387 . S
C811 C813 1.387 . S
H812 C819 0.950 . S
C813 C811 1.387 . S
C813 C815 1.390 . S
C813 H817 0.950 . S
H814 C810 0.950 . S
C815 C813 1.390 . S
C815 C816 1.387 . S
C815 H818 0.950 . S
C816 C815 1.387 . S
C816 C819 1.387 . S
H817 C813 0.950 . S
H818 C815 0.950 . S
C819 C810 1.390 . S
C819 H812 0.950 . S
C819 C816 1.387 . S
C820 C821 1.387 . S
C820 H824 0.950 . S
C820 C829 1.390 . S
C821 C820 1.387 . S
C821 C823 1.387 . S
H822 C829 0.950 . S
C823 C821 1.387 . S
C823 C825 1.390 . S
C823 H827 0.950 . S
H824 C820 0.950 . S
C825 C823 1.390 . S
C825 C826 1.387 . S
C825 H828 0.950 . S
C826 C825 1.387 . S
C826 C829 1.387 . S
H827 C823 0.950 . S
H828 C825 0.950 . S
C829 C820 1.390 . S
C829 H822 0.950 . S
C829 C826 1.387 . S
C830 C831 1.387 . S
C830 H834 0.950 . S
C830 C839 1.390 . S
C831 C830 1.387 . S
C831 C833 1.387 . S
H832 C839 0.950 . S
C833 C831 1.387 . S
C833 C835 1.390 . S
C833 H837 0.950 . S
H834 C830 0.950 . S
C835 C833 1.390 . S
C835 C836 1.387 . S
C835 H838 0.950 . S
C836 C835 1.387 . S
C836 C839 1.387 . S
H837 C833 0.950 . S
H838 C835 0.950 . S
C839 C830 1.390 . S
C839 H832 0.950 . S
C839 C836 1.387 . S
C840 C841 1.387 . S
C840 H844 0.950 . S
C840 C849 1.390 . S
C841 C840 1.387 . S
C841 C843 1.387 . S
H842 C849 0.950 . S
C843 C841 1.387 . S
C843 C845 1.390 . S
C843 H847 0.950 . S
H844 C840 0.950 . S
C845 C843 1.390 . S
C845 C846 1.387 . S
C845 H848 0.950 . S
C846 C845 1.387 . S
C846 C849 1.387 . S
H847 C843 0.950 . S
H848 C845 0.950 . S
C849 C840 1.390 . S
C849 H842 0.950 . S
C849 C846 1.387 . S
C850 C851 1.387 . S
C850 H854 0.950 . S
C850 C859 1.390 . S
C851 C850 1.387 . S
C851 C853 1.387 . S
H852 C859 0.950 . S
C853 C851 1.387 . S
C853 C855 1.390 . S
C853 H857 0.950 . S
H854 C850 0.950 . S
C855 C853 1.390 . S
C855 C856 1.387 . S
C855 H858 0.950 . S
C856 C855 1.387 . S
C856 C859 1.387 . S
H857 C853 0.950 . S
H858 C855 0.950 . S
C859 C850 1.390 . S
C859 H852 0.950 . S
C859 C856 1.387 . S
C860 C861 1.387 . S
C860 H864 0.950 . S
C860 C869 1.390 . S
C861 C860 1.387 . S
C861 C863 1.387 . S
H862 C869 0.950 . S
C863 C861 1.387 . S
C863 C865 1.390 . S
C863 H867 0.950 . S
H864 C860 0.950 . S
C865 C863 1.390 . S
C865 C866 1.387 . S
C865 H868 0.950 . S
C866 C865 1.387 . S
C866 C869 1.387 . S
H867 C863 0.950 . S
H868 C865 0.950 . S
C869 C860 1.390 . S
C869 H862 0.950 . S
C869 C866 1.387 . S
C870 C871 1.387 . S
C870 H874 0.950 . S
C870 C879 1.390 . S
C871 C870 1.387 . S
C871 C873 1.387 . S
H872 C879 0.950 . S
C873 C871 1.387 . S
C873 C875 1.390 . S
C873 H877 0.950 . S
H874 C870 0.950 . S
C875 C873 1.390 . S
C875 C876 1.387 . S
C875 H878 0.950 . S
C876 C875 1.387 . S
C876 C879 1.387 . S
H877 C873 0.950 . S
H878 C875 0.950 . S
C879 C870 1.390 . S
C879 H872 0.950 . S
C879 C876 1.387 . S
C641 C1 1.246 . S
C646 C495 1.452 . S
C651 C80 1.728 . S
C656 C539 1.694 . S
C666 C569 2.395 . S
C661 C140 2.251 . S
C671 C211 2.756 . S
C676 C610 2.756 . S
C686 C526 1.051 . S
C681 C31 0.920 . S
C696 C490 2.522 . S
C691 C61 2.403 . S
C706 C618 1.262 . S
C701 C151 1.216 . S
C716 C579 2.426 . S
C711 C200 2.575 . S
C721 C20 1.507 . S
C726 C615 1.678 . S
C736 C529 2.160 . S
C731 C121 2.231 . S
C741 C181 2.025 . S
C746 C498 2.040 . S
C751 C91 2.165 . S
C756 C566 2.091 . S
C766 C486 1.452 . S
C761 C260 1.340 . S
C771 C320 1.725 . S
C776 C530 1.691 . S
C781 C361 2.197 . S
C786 C578 2.396 . S
C791 C451 2.756 . S
C796 C619 2.756 . S
C801 C271 0.973 . S
C806 C535 1.051 . S
C816 C499 2.521 . S
C811 C301 2.403 . S
C826 C609 1.262 . S
C821 C380 1.167 . S
C836 C570 2.426 . S
C831 C440 2.574 . S
C841 C241 1.480 . S
C846 C606 1.680 . S
C856 C538 2.159 . S
C851 C391 2.185 . S
C866 C489 2.040 . S
C861 C421 2.025 . S
C871 C331 2.166 . S
C876 C575 2.090 . S
