# Generated by pormake.
# Topology cml, (3,6)-cn, num edge types: 1
# Building blocks:
#     Node 0, Type 0, BuildingBlock: PAMTOO_clean_linker_0, # of connection points: 3
#     Node 1, Type 0, BuildingBlock: PAMTOO_clean_linker_0, # of connection points: 3
#     Node 2, Type 0, BuildingBlock: PAMTOO_clean_linker_0, # of connection points: 3
#     Node 3, Type 0, BuildingBlock: PAMTOO_clean_linker_0, # of connection points: 3
#     Node 4, Type 0, BuildingBlock: PAMTOO_clean_linker_0, # of connection points: 3
#     Node 5, Type 0, BuildingBlock: PAMTOO_clean_linker_0, # of connection points: 3
#     Node 6, Type 0, BuildingBlock: PAMTOO_clean_linker_0, # of connection points: 3
#     Node 7, Type 0, BuildingBlock: PAMTOO_clean_linker_0, # of connection points: 3
#     Node 8, Type 1, BuildingBlock: OJICUG_clean_sbu_0, # of connection points: 6
#     Node 9, Type 1, BuildingBlock: OJICUG_clean_sbu_0, # of connection points: 6
#     Node 10, Type 1, BuildingBlock: OJICUG_clean_sbu_0, # of connection points: 6
#     Node 11, Type 1, BuildingBlock: OJICUG_clean_sbu_0, # of connection points: 6
#     Edge 12, Type (0, 1), BuildingBlock: EZIPEK_clean_linker_0, # of connection points: 2
#     Edge 13, Type (0, 1), BuildingBlock: EZIPEK_clean_linker_0, # of connection points: 2
#     Edge 14, Type (0, 1), BuildingBlock: EZIPEK_clean_linker_0, # of connection points: 2
#     Edge 15, Type (0, 1), BuildingBlock: EZIPEK_clean_linker_0, # of connection points: 2
#     Edge 16, Type (0, 1), BuildingBlock: EZIPEK_clean_linker_0, # of connection points: 2
#     Edge 17, Type (0, 1), BuildingBlock: EZIPEK_clean_linker_0, # of connection points: 2
#     Edge 18, Type (0, 1), BuildingBlock: EZIPEK_clean_linker_0, # of connection points: 2
#     Edge 19, Type (0, 1), BuildingBlock: EZIPEK_clean_linker_0, # of connection points: 2
#     Edge 20, Type (0, 1), BuildingBlock: EZIPEK_clean_linker_0, # of connection points: 2
#     Edge 21, Type (0, 1), BuildingBlock: EZIPEK_clean_linker_0, # of connection points: 2
#     Edge 22, Type (0, 1), BuildingBlock: EZIPEK_clean_linker_0, # of connection points: 2
#     Edge 23, Type (0, 1), BuildingBlock: EZIPEK_clean_linker_0, # of connection points: 2
#     Edge 24, Type (0, 1), BuildingBlock: EZIPEK_clean_linker_0, # of connection points: 2
#     Edge 25, Type (0, 1), BuildingBlock: EZIPEK_clean_linker_0, # of connection points: 2
#     Edge 26, Type (0, 1), BuildingBlock: EZIPEK_clean_linker_0, # of connection points: 2
#     Edge 27, Type (0, 1), BuildingBlock: EZIPEK_clean_linker_0, # of connection points: 2
#     Edge 28, Type (0, 1), BuildingBlock: EZIPEK_clean_linker_0, # of connection points: 2
#     Edge 29, Type (0, 1), BuildingBlock: EZIPEK_clean_linker_0, # of connection points: 2
#     Edge 30, Type (0, 1), BuildingBlock: EZIPEK_clean_linker_0, # of connection points: 2
#     Edge 31, Type (0, 1), BuildingBlock: EZIPEK_clean_linker_0, # of connection points: 2
#     Edge 32, Type (0, 1), BuildingBlock: EZIPEK_clean_linker_0, # of connection points: 2
#     Edge 33, Type (0, 1), BuildingBlock: EZIPEK_clean_linker_0, # of connection points: 2
#     Edge 34, Type (0, 1), BuildingBlock: EZIPEK_clean_linker_0, # of connection points: 2
#     Edge 35, Type (0, 1), BuildingBlock: EZIPEK_clean_linker_0, # of connection points: 2
# Relax obj value: 0.007
# Max RMSD: 0.050
# Mean RMSD: 0.043
data_MOF--net-cml--node1-OJICUG_clean_sbu_0--node2-PAMTOO_clean_linker_0--edge1-EZIPEK_clean_linker_0
_symmetry_space_group_name_H-M    P1
_symmetry_Int_Tables_number       1
_symmetry_cell_setting            triclinic
loop_
_symmetry_equiv_pos_as_xyz
'x, y, z'
_cell_length_a     30.115465
_cell_length_b     29.502325
_cell_length_c     25.703443
_cell_angle_alpha  89.95484
_cell_angle_beta   88.317881
_cell_angle_gamma 89.949828
loop_
_atom_site_label
_atom_site_type_symbol
_atom_site_fract_x
_atom_site_fract_y
_atom_site_fract_z
_atom_type_partial_charge
H0 H 0.36718 0.43669 0.03603 0.0
H1 H 0.25221 0.42884 0.94179 0.0
H2 H 0.26176 0.34318 0.0766 0.0
H3 H 0.24258 0.29981 0.96746 0.0
C4 C 0.21878 0.32648 0.95563 0.0
O5 O 0.21629 0.36038 0.99267 0.0
H6 H 0.23345 0.33987 0.91849 0.0
C7 C 0.33503 0.42184 0.02858 0.0
C8 C 0.31723 0.38876 0.06254 0.0
C9 C 0.3112 0.43745 0.98632 0.0
C10 C 0.27014 0.41794 0.97553 0.0
C11 C 0.25328 0.38262 0.00685 0.0
C12 C 0.27595 0.36915 0.05138 0.0
H13 H 0.63761 0.54345 0.54192 0.0
H14 H 0.73266 0.64997 0.56669 0.0
H15 H 0.73273 0.57831 0.42286 0.0
H16 H 0.82364 0.60215 0.47759 0.0
C17 C 0.81315 0.63757 0.48588 0.0
O18 O 0.76894 0.64369 0.47569 0.0
H19 H 0.81873 0.64176 0.52817 0.0
C20 C 0.66747 0.56198 0.5314 0.0
C21 C 0.68396 0.55627 0.48052 0.0
C22 C 0.68722 0.5922 0.56664 0.0
C23 C 0.72024 0.62145 0.54552 0.0
C24 C 0.73724 0.61552 0.49459 0.0
C25 C 0.71999 0.58211 0.46249 0.0
H26 H 0.62703 0.44489 0.05199 0.0
H27 H 0.74072 0.35831 0.06398 0.0
H28 H 0.72337 0.43733 0.92527 0.0
H29 H 0.74755 0.3349 0.91647 0.0
C30 C 0.77082 0.33449 0.9492 0.0
O31 O 0.77364 0.37708 0.97099 0.0
H32 H 0.75554 0.31019 0.97762 0.0
C33 C 0.65853 0.43257 0.03598 0.0
C34 C 0.67313 0.44639 0.98629 0.0
C35 C 0.68233 0.4003 0.06348 0.0
C36 C 0.72269 0.38386 0.04294 0.0
C37 C 0.73747 0.39714 0.99301 0.0
C38 C 0.7126 0.42825 0.9645 0.0
H39 H 0.37456 0.57719 0.54374 0.0
H40 H 0.26941 0.5733 0.43387 0.0
H41 H 0.27199 0.67857 0.54935 0.0
H42 H 0.18091 0.627 0.51176 0.0
C43 C 0.18947 0.63597 0.47076 0.0
O44 O 0.23313 0.64957 0.46539 0.0
H45 H 0.18458 0.60381 0.44921 0.0
C46 C 0.34408 0.59096 0.52869 0.0
C47 C 0.32483 0.62911 0.55246 0.0
C48 C 0.32416 0.56995 0.48639 0.0
C49 C 0.28505 0.58867 0.46693 0.0
C50 C 0.26693 0.6284 0.48877 0.0
C51 C 0.28624 0.6481 0.53227 0.0
H52 H 0.87132 0.93209 0.02954 0.0
H53 H 0.7589 0.9235 0.93122 0.0
H54 H 0.76404 0.84047 0.06864 0.0
H55 H 0.74626 0.79448 0.96328 0.0
C56 C 0.72285 0.82065 0.94927 0.0
O57 O 0.72063 0.85677 0.98339 0.0
H58 H 0.73776 0.83161 0.91121 0.0
C59 C 0.83932 0.91733 0.02116 0.0
C60 C 0.82041 0.88489 0.0551 0.0
C61 C 0.8167 0.93258 0.97781 0.0
C62 C 0.77593 0.91295 0.96575 0.0
C63 C 0.75784 0.87852 -0.00244 0.0
C64 C 0.7792 0.86571 0.04317 0.0
H65 H 0.12431 0.06302 0.52803 0.0
H66 H 0.23249 0.15419 0.55617 0.0
H67 H 0.2322 0.07484 0.41591 0.0
H68 H 0.32391 0.09745 0.4693 0.0
C69 C 0.31422 0.13285 0.47865 0.0
O70 O 0.27121 0.14114 0.4648 0.0
H71 H 0.31728 0.13496 0.52157 0.0
C72 C 0.15596 0.07793 0.51622 0.0
C73 C 0.17671 0.06402 0.46962 0.0
C74 C 0.17613 0.10976 0.54845 0.0
C75 C 0.21662 0.12926 0.53206 0.0
C76 C 0.23609 0.11752 0.48372 0.0
C77 C 0.21684 0.08404 0.45306 0.0
H78 H 0.1234 0.93242 0.04364 0.0
H79 H 0.2398 0.85022 0.05825 0.0
H80 H 0.23316 0.94716 0.93354 0.0
H81 H 0.25546 0.84342 0.90946 0.0
C82 C 0.27714 0.83924 0.94335 0.0
O83 O 0.27844 0.87903 0.97151 0.0
H84 H 0.26084 0.81205 0.96711 0.0
C85 C 0.15653 0.92306 0.02977 0.0
C86 C 0.17565 0.94484 0.98612 0.0
C87 C 0.17997 0.89 0.05648 0.0
C88 C 0.22226 0.8769 0.03845 0.0
C89 C 0.24071 0.89642 0.99302 0.0
C90 C 0.21818 0.93146 0.9679 0.0
H91 H 0.87781 0.07607 0.54062 0.0
H92 H 0.77367 0.07686 0.42933 0.0
H93 H 0.77514 0.17721 0.55051 0.0
H94 H 0.6845 0.12702 0.50882 0.0
C95 C 0.69347 0.13761 0.46842 0.0
O96 O 0.73703 0.1518 0.46454 0.0
H97 H 0.6892 0.10625 0.44518 0.0
C98 C 0.84755 0.09059 0.52585 0.0
C99 C 0.82813 0.12778 0.55138 0.0
C100 C 0.82787 0.07123 0.48237 0.0
C101 C 0.78908 0.09093 0.46328 0.0
C102 C 0.77077 0.12975 0.48703 0.0
C103 C 0.78963 0.14754 0.53188 0.0
Sc104 Sc -0.00083 0.78848 0.29355 0.0
Sc105 Sc -0.00124 0.90541 0.29651 0.0
Sc106 Sc 0.00011 0.84621 0.41147 0.0
O107 O 0.00032 0.84651 0.33403 0.0
C108 C 0.93455 0.76454 0.38485 0.0
C109 C 0.93421 0.85249 0.22994 0.0
C110 C 0.93577 0.92647 0.3951 0.0
C111 C 0.06372 0.84439 0.22523 0.0
C112 C 0.06349 0.76586 0.38783 0.0
C113 C 0.06509 0.92931 0.38033 0.0
O114 O 0.94039 0.7671 0.33572 0.0
O115 O 0.93842 0.8848 0.26182 0.0
O116 O 0.94117 0.88777 0.41561 0.0
O117 O 0.05789 0.8078 0.25049 0.0
O118 O 0.05794 0.80383 0.41051 0.0
O119 O 0.05786 0.92782 0.33197 0.0
O120 O 0.04067 0.75349 0.34918 0.0
O121 O 0.0398 0.87962 0.23236 0.0
O122 O 0.04345 0.90559 0.41412 0.0
O123 O 0.95843 0.81702 0.23202 0.0
O124 O 0.95745 0.78706 0.41682 0.0
O125 O 0.95928 0.93961 0.3561 0.0
Sc126 Sc 0.00076 0.2118 0.79494 0.0
Sc127 Sc 0.99561 0.09445 0.79912 0.0
Sc128 Sc 0.98932 0.15517 0.9133 0.0
O129 O 0.99419 0.15396 0.83578 0.0
C130 C 0.06125 0.23254 0.88829 0.0
C131 C 0.06575 0.14449 0.73207 0.0
C132 C 0.05385 0.07375 0.89766 0.0
C133 C 0.93791 0.15802 0.72506 0.0
C134 C 0.92916 0.23633 0.88484 0.0
C135 C 0.92473 0.07229 0.88343 0.0
O136 O 0.05758 0.23099 0.83907 0.0
O137 O 0.05821 0.11234 0.76368 0.0
O138 O 0.04644 0.11203 0.91865 0.0
O139 O 0.94496 0.19484 0.74903 0.0
O140 O 0.93286 0.1992 0.90959 0.0
O141 O 0.93409 0.07371 0.835 0.0
O142 O 0.95615 0.2484 0.8482 0.0
O143 O 0.95805 0.12102 0.73473 0.0
O144 O 0.94459 0.09666 0.91663 0.0
O145 O 0.04407 0.18155 0.73491 0.0
O146 O 0.03415 0.21264 0.91979 0.0
O147 O 0.03229 0.06002 0.85887 0.0
Sc148 Sc 0.50134 0.29197 0.29627 0.0
Sc149 Sc 0.49834 0.40891 0.30282 0.0
Sc150 Sc 0.50114 0.34691 0.4162 0.0
O151 O 0.50101 0.3491 0.33867 0.0
C152 C 0.43718 0.26441 0.38697 0.0
C153 C 0.43482 0.35591 0.23432 0.0
C154 C 0.43501 0.42661 0.402 0.0
C155 C 0.5652 0.35138 0.23057 0.0
C156 C 0.56595 0.26802 0.38984 0.0
C157 C 0.56537 0.431 0.38728 0.0
O158 O 0.44334 0.26773 0.3379 0.0
O159 O 0.43872 0.38794 0.26667 0.0
O160 O 0.44182 0.38803 0.42224 0.0
O161 O 0.55966 0.31391 0.25412 0.0
O162 O 0.55936 0.30506 0.41411 0.0
O163 O 0.55673 0.43191 0.33928 0.0
O164 O 0.54377 0.25647 0.3504 0.0
O165 O 0.54035 0.3858 0.23837 0.0
O166 O 0.54451 0.40606 0.4205 0.0
O167 O 0.45962 0.3208 0.23569 0.0
O168 O 0.459 0.28731 0.41964 0.0
O169 O 0.45775 0.44075 0.36288 0.0
Sc170 Sc 0.50509 0.70812 0.79276 0.0
Sc171 Sc 0.48799 0.59142 0.7986 0.0
Sc172 Sc 0.48748 0.65348 0.9124 0.0
O173 O 0.49321 0.65118 0.8344 0.0
C174 C 0.56387 0.7265 0.8882 0.0
C175 C 0.56564 0.63475 0.73293 0.0
C176 C 0.54681 0.56814 0.89655 0.0
C177 C 0.43693 0.65903 0.72278 0.0
C178 C 0.43295 0.73801 0.88049 0.0
C179 C 0.41791 0.57464 0.88532 0.0
O180 O 0.56122 0.72432 0.839 0.0
O181 O 0.55002 0.60196 0.75939 0.0
O182 O 0.5408 0.60583 0.91968 0.0
O183 O 0.45003 0.69554 0.74351 0.0
O184 O 0.4343 0.70125 0.90643 0.0
O185 O 0.42579 0.57635 0.83672 0.0
O186 O 0.46074 0.74768 0.84364 0.0
O187 O 0.45074 0.61992 0.7357 0.0
O188 O 0.43972 0.59789 0.91764 0.0
O189 O 0.54999 0.67484 0.73642 0.0
O190 O 0.53536 0.70823 0.91923 0.0
O191 O 0.52528 0.55614 0.85694 0.0
C192 C 0.16121 0.26444 0.96849 0.0
C193 C 0.17306 0.30673 0.94608 0.0
C194 C 0.10443 0.30527 0.8965 0.0
C195 C 0.0985 0.25893 0.91012 0.0
N196 N 0.12572 0.19249 0.9544 0.0
N197 N 0.15384 0.37016 0.89171 0.0
C198 C 0.12779 0.23807 0.94534 0.0
C199 C 0.14382 0.32817 0.9112 0.0
N200 N 0.18124 0.24976 0.01242 0.0
N201 N 0.0716 0.32787 0.87152 0.0
H202 H 0.17972 0.38992 0.90535 0.0
H203 H 0.13742 0.38482 0.86083 0.0
H204 H 0.04176 0.3126 0.86175 0.0
H205 H 0.07192 0.3627 0.86496 0.0
H206 H 0.17116 0.22075 0.03267 0.0
H207 H 0.2039 0.26959 0.03224 0.0
H208 H 0.14921 0.1751 0.97574 0.0
H209 H 0.10357 0.17128 0.93598 0.0
C210 C 0.86541 0.65864 0.41024 0.0
C211 C 0.8403 0.67214 0.45514 0.0
C212 C 0.86821 0.74969 0.44338 0.0
C213 C 0.90024 0.73337 0.40638 0.0
N214 N 0.93372 0.66963 0.36063 0.0
N215 N 0.81633 0.73198 0.51407 0.0
C216 C 0.89995 0.68716 0.3911 0.0
C217 C 0.84112 0.7182 0.47155 0.0
N218 N 0.85548 0.61953 0.38466 0.0
N219 N 0.86231 0.79532 0.44988 0.0
H220 H 0.79303 0.71146 0.53339 0.0
H221 H 0.82039 0.76339 0.53178 0.0
H222 H 0.88019 0.81936 0.42814 0.0
H223 H 0.83659 0.80935 0.47255 0.0
H224 H 0.87094 0.61035 0.3494 0.0
H225 H 0.82796 0.59958 0.3946 0.0
H226 H 0.93685 0.63506 0.35298 0.0
H227 H 0.96106 0.68855 0.34757 0.0
C228 C 0.84601 0.30038 0.97067 0.0
C229 C 0.81669 0.31745 0.9329 0.0
C230 C 0.86307 0.28461 0.86317 0.0
C231 C 0.8925 0.26742 0.90062 0.0
N232 N 0.91962 0.2718 0.98787 0.0
N233 N 0.8091 0.34252 0.84417 0.0
C234 C 0.88632 0.27923 0.95384 0.0
C235 C 0.82905 0.31509 0.87938 0.0
N236 N 0.83514 0.30357 0.02251 0.0
N237 N 0.86559 0.26995 0.81278 0.0
H238 H 0.78643 0.36772 0.85525 0.0
H239 H 0.81947 0.34428 0.80517 0.0
H240 H 0.88843 0.24582 0.79947 0.0
H241 H 0.8419 0.27825 0.78557 0.0
H242 H 0.85216 0.28633 0.05117 0.0
H243 H 0.80789 0.32184 0.03692 0.0
H244 H 0.9187 0.28363 0.02605 0.0
H245 H 0.95033 0.25812 0.97639 0.0
C246 C 0.13303 0.69988 0.48318 0.0
C247 C 0.15966 0.67268 0.44909 0.0
C248 C 0.12948 0.71398 0.37478 0.0
C249 C 0.09694 0.73405 0.40859 0.0
N250 N 0.06251 0.73783 0.49477 0.0
N251 N 0.18286 0.65355 0.36073 0.0
C252 C 0.09725 0.72477 0.46279 0.0
C253 C 0.15776 0.67961 0.3943 0.0
N254 N 0.14273 0.7037 0.53458 0.0
N255 N 0.13508 0.72938 0.32483 0.0
H256 H 0.20672 0.63051 0.37272 0.0
H257 H 0.1783 0.65312 0.32071 0.0
H258 H 0.11647 0.75588 0.30978 0.0
H259 H 0.16125 0.71929 0.30008 0.0
H260 H 0.12595 0.72602 0.55972 0.0
H261 H 0.17114 0.68974 0.55039 0.0
H262 H 0.05968 0.72802 0.53371 0.0
H263 H 0.03418 0.75382 0.48129 0.0
C264 C 0.66402 0.76046 0.96729 0.0
C265 C 0.67684 0.80103 0.94138 0.0
C266 C 0.60762 0.79875 0.8932 0.0
C267 C 0.6007 0.75336 0.91007 0.0
N268 N 0.62507 0.68933 0.96086 0.0
N269 N 0.65863 0.86184 0.88272 0.0
C270 C 0.6293 0.73386 0.94701 0.0
C271 C 0.64775 0.82131 0.9055 0.0
N272 N 0.68416 0.74791 0.01201 0.0
N273 N 0.57496 0.82092 0.86743 0.0
H274 H 0.68517 0.8817 0.89435 0.0
H275 H 0.64221 0.8751 0.85102 0.0
H276 H 0.54442 0.80607 0.85973 0.0
H277 H 0.57611 0.85531 0.85843 0.0
H278 H 0.67351 0.72053 0.03475 0.0
H279 H 0.70765 0.76818 0.02985 0.0
H280 H 0.64833 0.67234 0.98294 0.0
H281 H 0.60069 0.66813 0.94656 0.0
C282 C 0.37086 0.15605 0.40793 0.0
C283 C 0.34391 0.16795 0.4521 0.0
C284 C 0.37075 0.24633 0.44417 0.0
C285 C 0.40381 0.23172 0.40751 0.0
N286 N 0.44042 0.1698 0.36178 0.0
N287 N 0.31808 0.22579 0.51286 0.0
C288 C 0.40529 0.1858 0.39123 0.0
C289 C 0.34382 0.21354 0.47046 0.0
N290 N 0.36266 0.11755 0.38031 0.0
N291 N 0.36354 0.29163 0.45196 0.0
H292 H 0.29483 0.20451 0.531 0.0
H293 H 0.32149 0.25671 0.53188 0.0
H294 H 0.38127 0.31668 0.43167 0.0
H295 H 0.33692 0.30443 0.4742 0.0
H296 H 0.37956 0.10974 0.34548 0.0
H297 H 0.33526 0.09676 0.38784 0.0
H298 H 0.44475 0.13547 0.35345 0.0
H299 H 0.46758 0.18974 0.35046 0.0
C300 C 0.33716 0.82243 0.87471 0.0
C301 C 0.32364 0.82339 0.92796 0.0
C302 C 0.39173 0.78266 0.94909 0.0
C303 C 0.3983 0.77162 0.89571 0.0
N304 N 0.37316 0.77778 0.80724 0.0
N305 N 0.33945 0.80513 0.01735 0.0
C306 C 0.37034 0.7911 0.85811 0.0
C307 C 0.35163 0.80418 0.96576 0.0
N308 N 0.31893 0.85175 0.84019 0.0
N309 N 0.42436 0.77379 0.98356 0.0
H310 H 0.31173 0.82261 0.03185 0.0
H311 H 0.35571 0.78649 0.04551 0.0
H312 H 0.45501 0.75994 0.97216 0.0
H313 H 0.423 0.78482 0.02207 0.0
H314 H 0.33013 0.85434 0.80153 0.0
H315 H 0.29706 0.87749 0.85189 0.0
H316 H 0.35032 0.78793 0.77984 0.0
H317 H 0.39524 0.75312 0.79343 0.0
C318 C 0.63601 0.20023 0.48306 0.0
C319 C 0.66346 0.17476 0.44808 0.0
C320 C 0.63322 0.21812 0.37534 0.0
C321 C 0.59994 0.2363 0.4096 0.0
N322 N 0.56468 0.2364 0.49547 0.0
N323 N 0.688 0.15934 0.35922 0.0
C324 C 0.59994 0.22515 0.46336 0.0
C325 C 0.66202 0.18366 0.39364 0.0
N326 N 0.64514 0.20237 0.53475 0.0
N327 N 0.63896 0.23539 0.32623 0.0
H328 H 0.71218 0.13634 0.37051 0.0
H329 H 0.68391 0.16028 0.31913 0.0
H330 H 0.61993 0.26201 0.31217 0.0
H331 H 0.66557 0.22673 0.30138 0.0
H332 H 0.62772 0.22345 0.56071 0.0
H333 H 0.67366 0.18834 0.55024 0.0
H334 H 0.5617 0.22519 0.53389 0.0
H335 H 0.53617 0.25232 0.48236 0.0
C336 C 0.36081 0.46128 0.91209 0.0
C337 C 0.33099 0.47368 0.95311 0.0
C338 C 0.35065 0.55369 0.94043 0.0
C339 C 0.38561 0.54041 0.90546 0.0
N340 N 0.42781 0.48 0.86309 0.0
N341 N 0.29783 0.53091 0.00863 0.0
C342 C 0.39136 0.49386 0.89192 0.0
C343 C 0.32568 0.51978 0.96768 0.0
N344 N 0.36027 0.41809 0.89286 0.0
N345 N 0.34067 0.59862 0.94651 0.0
H346 H 0.27758 0.50716 0.02784 0.0
H347 H 0.29654 0.56305 0.02533 0.0
H348 H 0.35777 0.62417 0.92625 0.0
H349 H 0.313 0.61032 0.96772 0.0
H350 H 0.37788 0.40828 0.85924 0.0
H351 H 0.33888 0.3931 0.90761 0.0
H352 H 0.43629 0.44607 0.85771 0.0
H353 H 0.45231 0.50185 0.84867 0.0
C354 C 0.66924 0.47787 0.44796 0.0
C355 C 0.66004 0.52498 0.44615 0.0
C356 C 0.58956 0.51044 0.40441 0.0
C357 C 0.59883 0.46326 0.40574 0.0
N358 N 0.65085 0.40233 0.41792 0.0
N359 N 0.61752 0.58707 0.41265 0.0
C360 C 0.63981 0.447 0.42418 0.0
C361 C 0.62225 0.54153 0.4207 0.0
N362 N 0.70524 0.4627 0.4741 0.0
N363 N 0.54854 0.52542 0.39056 0.0
H364 H 0.64064 0.61079 0.42494 0.0
H365 H 0.59305 0.60105 0.38976 0.0
H366 H 0.52336 0.5038 0.3789 0.0
H367 H 0.53803 0.55888 0.39464 0.0
H368 H 0.71092 0.4287 0.48248 0.0
H369 H 0.72857 0.48463 0.48964 0.0
H370 H 0.68201 0.38917 0.42588 0.0
H371 H 0.62991 0.3789 0.4007 0.0
C372 C 0.60065 0.46031 0.94461 0.0
C373 C 0.6437 0.47622 0.9561 0.0
C374 C 0.62534 0.55022 0.91942 0.0
C375 C 0.58033 0.53643 0.91644 0.0
N376 N 0.52356 0.48048 0.9351 0.0
N377 N 0.69577 0.53821 0.96034 0.0
C378 C 0.5675 0.49191 0.93113 0.0
C379 C 0.65592 0.52167 0.94486 0.0
N380 N 0.5916 0.41493 0.94626 0.0
N381 N 0.63924 0.5897 0.89639 0.0
H382 H 0.71915 0.51838 0.979 0.0
H383 H 0.70409 0.57245 0.95829 0.0
H384 H 0.61808 0.61077 0.87589 0.0
H385 H 0.67251 0.59924 0.89324 0.0
H386 H 0.5619 0.40117 0.93378 0.0
H387 H 0.61555 0.39069 0.95492 0.0
H388 H 0.51233 0.4497 0.95041 0.0
H389 H 0.49809 0.50354 0.92845 0.0
C390 C 0.35704 0.52648 0.40924 0.0
C391 C 0.34539 0.52868 0.46307 0.0
C392 C 0.39109 0.46162 0.47842 0.0
C393 C 0.39975 0.4573 0.42388 0.0
N394 N 0.37431 0.47587 0.33792 0.0
N395 N 0.33836 0.48789 0.54444 0.0
C396 C 0.3772 0.48649 0.38939 0.0
C397 C 0.35792 0.49257 0.49614 0.0
N398 N 0.35192 0.56306 0.3774 0.0
N399 N 0.41622 0.43945 0.5138 0.0
H400 H 0.31269 0.50904 0.55785 0.0
H401 H 0.3442 0.46003 0.5683 0.0
H402 H 0.44371 0.41959 0.50386 0.0
H403 H 0.41287 0.44534 0.55372 0.0
H404 H 0.36369 0.56338 0.33883 0.0
H405 H 0.34083 0.59456 0.39066 0.0
H406 H 0.35563 0.495 0.31233 0.0
H407 H 0.38555 0.44503 0.32271 0.0
C408 C 0.82895 0.0151 0.95788 0.0
C409 C 0.83733 0.96896 0.94545 0.0
C410 C 0.90201 0.99057 0.89147 0.0
C411 C 0.89303 0.03706 0.90241 0.0
N412 N 0.8427 0.0941 0.93629 0.0
N413 N 0.87421 0.91347 0.89103 0.0
C414 C 0.8548 0.04952 0.93268 0.0
C415 C 0.87123 0.95705 0.90882 0.0
N416 N 0.7974 0.02585 -0.00484 0.0
N417 N 0.94141 0.97796 0.86789 0.0
H418 H 0.85232 0.88804 0.90358 0.0
H419 H 0.89541 0.90362 0.86034 0.0
H420 H 0.96597 0.00088 0.85613 0.0
H421 H 0.95175 0.94437 0.86444 0.0
H422 H 0.79338 0.05826 0.0106 0.0
H423 H 0.77671 0.00162 0.01283 0.0
H424 H 0.8129 0.10501 0.95363 0.0
H425 H 0.86068 0.12002 0.91778 0.0
C426 C 0.16262 0.98256 0.44804 0.0
C427 C 0.15453 0.02914 0.43832 0.0
C428 C 0.08846 0.0102 0.38997 0.0
C429 C 0.09706 0.9634 0.39839 0.0
N430 N 0.14692 0.90447 0.42527 0.0
N431 N 0.11682 0.08707 0.39063 0.0
C432 C 0.13563 0.94936 0.42437 0.0
C433 C 0.11983 0.04279 0.40588 0.0
N434 N 0.19505 0.97025 0.48139 0.0
N435 N 0.04903 0.02375 0.36988 0.0
H436 H 0.13912 0.11187 0.40227 0.0
H437 H 0.09499 0.09834 0.36272 0.0
H438 H 0.02445 0.00124 0.35875 0.0
H439 H 0.03882 0.05745 0.36852 0.0
H440 H 0.19908 0.93734 0.49512 0.0
H441 H 0.21662 0.99362 0.49765 0.0
H442 H 0.17688 0.89251 0.43914 0.0
H443 H 0.12792 0.87937 0.408 0.0
C444 C 0.13931 0.97926 0.90749 0.0
C445 C 0.15008 0.98157 0.96079 0.0
C446 C 0.09558 0.04211 0.97382 0.0
C447 C 0.08848 0.04356 0.91937 0.0
N448 N 0.11731 0.02308 0.8334 0.0
N449 N 0.14914 0.02637 0.03949 0.0
C450 C 0.11456 0.01512 0.88573 0.0
C451 C 0.13193 0.01693 0.99214 0.0
N452 N 0.15036 0.9422 0.87806 0.0
N453 N 0.06622 0.06151 0.0087 0.0
H454 H 0.17695 0.00959 0.05333 0.0
H455 H 0.13881 0.05413 0.06185 0.0
H456 H 0.03606 0.07564 -0.00175 0.0
H457 H 0.06905 0.0579 0.04883 0.0
H458 H 0.13942 0.9379 0.84026 0.0
H459 H 0.16613 0.91375 0.8929 0.0
H460 H 0.13855 0.00486 0.80837 0.0
H461 H 0.10321 0.05143 0.81623 0.0
C462 C 0.86006 0.99306 0.48998 0.0
C463 C 0.84866 0.03024 0.45792 0.0
C464 C 0.88053 0.98925 0.38331 0.0
C465 C 0.90184 0.95853 0.41723 0.0
N466 N 0.91753 0.93892 0.50692 0.0
N467 N 0.85682 0.06668 0.37356 0.0
C468 C 0.89288 0.96199 0.4718 0.0
C469 C 0.86096 0.02918 0.40422 0.0
N470 N 0.83982 0.98748 0.53778 0.0
N471 N 0.87802 0.98008 0.33142 0.0
H472 H 0.84593 0.09795 0.38774 0.0
H473 H 0.86909 0.06782 0.33521 0.0
H474 H 0.88861 0.94937 0.31526 0.0
H475 H 0.86017 0.0004 0.30619 0.0
H476 H 0.84493 0.9589 0.56076 0.0
H477 H 0.81433 0.00872 0.55148 0.0
H478 H 0.91377 0.94399 0.54696 0.0
H479 H 0.94526 0.91945 0.49685 0.0
C480 C 0.35546 0.33277 0.12286 0.0
C481 C 0.3419 0.37764 0.11064 0.0
C482 C 0.39359 0.40693 0.17339 0.0
C483 C 0.40269 0.36232 0.19147 0.0
N484 N 0.38029 0.28335 0.1913 0.0
N485 N 0.33686 0.45541 0.13976 0.0
C486 C 0.38005 0.32521 0.16868 0.0
C487 C 0.35697 0.41396 0.14143 0.0
N488 N 0.34705 0.29767 0.09004 0.0
N489 N 0.42158 0.44226 0.18269 0.0
H490 H 0.30851 0.46133 0.11834 0.0
H491 H 0.3455 0.48193 0.16433 0.0
H492 H 0.4527 0.43809 0.19874 0.0
H493 H 0.41678 0.47447 0.16705 0.0
H494 H 0.35998 0.26526 0.09542 0.0
H495 H 0.33119 0.30186 0.05487 0.0
H496 H 0.36136 0.25648 0.17778 0.0
H497 H 0.39463 0.27698 0.22697 0.0
C498 C 0.67654 0.63324 0.65534 0.0
C499 C 0.66817 0.59619 0.62187 0.0
C500 C 0.59804 0.58179 0.6667 0.0
C501 C 0.60149 0.62335 0.69427 0.0
N502 N 0.64742 0.68652 0.7198 0.0
N503 N 0.64147 0.51984 0.63208 0.0
C504 C 0.6418 0.64868 0.69016 0.0
C505 C 0.63544 0.56523 0.63915 0.0
N506 N 0.71924 0.64724 0.66113 0.0
N507 N 0.55858 0.55928 0.6636 0.0
H508 H 0.67092 0.50701 0.61532 0.0
H509 H 0.61939 0.4958 0.64761 0.0
H510 H 0.52848 0.57252 0.6778 0.0
H511 H 0.55528 0.53019 0.64094 0.0
H512 H 0.72865 0.6718 0.68768 0.0
H513 H 0.74588 0.62887 0.64492 0.0
H514 H 0.67353 0.70918 0.71355 0.0
H515 H 0.62521 0.69622 0.74957 0.0
C516 C 0.62932 0.34434 0.10203 0.0
C517 C 0.66071 0.37932 0.10977 0.0
C518 C 0.63768 0.38446 0.20148 0.0
C519 C 0.60139 0.35553 0.19124 0.0
N520 N 0.561 0.30843 0.13231 0.0
N521 N 0.69615 0.43283 0.16563 0.0
C522 C 0.59718 0.33482 0.14193 0.0
C523 C 0.66578 0.39901 0.15943 0.0
N524 N 0.63005 0.32074 0.05624 0.0
N525 N 0.64523 0.39751 0.25148 0.0
H526 H 0.71842 0.44277 0.13591 0.0
H527 H 0.698 0.45239 0.19918 0.0
H528 H 0.62538 0.38667 0.28304 0.0
H529 H 0.67314 0.41559 0.26235 0.0
H530 H 0.61088 0.29202 0.05 0.0
H531 H 0.65277 0.32747 0.0258 0.0
H532 H 0.5531 0.29704 0.0954 0.0
H533 H 0.53702 0.30012 0.16081 0.0
C534 C 0.33347 0.63312 0.64895 0.0
C535 C 0.34655 0.64834 0.59846 0.0
C536 C 0.41623 0.67796 0.63143 0.0
C537 C 0.40377 0.66146 0.68163 0.0
N538 N 0.34669 0.63489 0.74167 0.0
N539 N 0.39354 0.69513 0.54364 0.0
C540 C 0.36097 0.64285 0.69151 0.0
C541 C 0.38566 0.67437 0.59055 0.0
N542 N 0.29603 0.60735 0.65562 0.0
N543 N 0.45818 0.69433 0.62205 0.0
H544 H 0.37156 0.69271 0.51311 0.0
H545 H 0.41941 0.71789 0.53653 0.0
H546 H 0.48143 0.6978 0.65106 0.0
H547 H 0.47104 0.70183 0.58502 0.0
H548 H 0.28761 0.59041 0.69005 0.0
H549 H 0.2743 0.60101 0.62561 0.0
H550 H 0.31439 0.62515 0.75198 0.0
H551 H 0.36614 0.64206 0.77359 0.0
C552 C 0.85643 0.82916 0.11736 0.0
C553 C 0.84374 0.87406 0.1041 0.0
C554 C 0.89444 0.90348 0.16772 0.0
C555 C 0.90267 0.85896 0.18663 0.0
N556 N 0.87917 0.78031 0.18733 0.0
N557 N 0.83892 0.9522 0.13193 0.0
C558 C 0.87996 0.82187 0.16395 0.0
C559 C 0.85852 0.91056 0.13477 0.0
N560 N 0.84824 0.79378 0.08485 0.0
N561 N 0.92268 0.93859 0.17709 0.0
H562 H 0.8111 0.95817 0.10961 0.0
H563 H 0.84736 0.97889 0.15635 0.0
H564 H 0.95351 0.93427 0.19378 0.0
H565 H 0.91847 0.97069 0.16089 0.0
H566 H 0.86062 0.76128 0.09115 0.0
H567 H 0.83319 0.79773 0.04915 0.0
H568 H 0.86016 0.75352 0.17375 0.0
H569 H 0.89267 0.77426 0.22354 0.0
C570 C 0.14348 0.16566 0.61479 0.0
C571 C 0.15454 0.12058 0.59982 0.0
C572 C 0.10493 0.09181 0.6682 0.0
C573 C 0.09811 0.13649 0.68798 0.0
N574 N 0.1249 0.21403 0.688 0.0
N575 N 0.15869 0.04221 0.62675 0.0
C576 C 0.12177 0.173 0.66389 0.0
C577 C 0.14 0.08421 0.63184 0.0
N578 N 0.15109 0.20121 0.58171 0.0
N579 N 0.076 0.05728 0.67955 0.0
H580 H 0.18579 0.03586 0.60153 0.0
H581 H 0.15032 0.01554 0.65186 0.0
H582 H 0.04523 0.06204 0.6983 0.0
H583 H 0.07945 0.02521 0.66283 0.0
H584 H 0.13986 0.23393 0.59004 0.0
H585 H 0.16413 0.19733 0.544 0.0
H586 H 0.14445 0.24032 0.67277 0.0
H587 H 0.11306 0.21971 0.72595 0.0
C588 C 0.16459 0.88895 0.15248 0.0
C589 C 0.1587 0.86904 0.10302 0.0
C590 C 0.09494 0.82566 0.13661 0.0
C591 C 0.09983 0.84689 0.18556 0.0
N592 N 0.14515 0.88822 0.2448 0.0
N593 N 0.12699 0.81058 0.05055 0.0
C594 C 0.13677 0.87509 0.19503 0.0
C595 C 0.12682 0.83447 0.0961 0.0
N596 N 0.19524 0.92264 0.15801 0.0
N597 N 0.0585 0.7994 0.12799 0.0
H598 H 0.14995 0.81674 0.02017 0.0
H599 H 0.10719 0.78227 0.04455 0.0
H600 H 0.03485 0.79159 0.15707 0.0
H601 H 0.05022 0.7874 0.09147 0.0
H602 H 0.19744 0.94243 0.19134 0.0
H603 H 0.21728 0.93241 0.128 0.0
H604 H 0.17363 0.90563 0.25509 0.0
H605 H 0.12542 0.87797 0.27674 0.0
C606 C 0.886 0.17465 0.59328 0.0
C607 C 0.84926 0.14493 0.59884 0.0
C608 C 0.86469 0.13425 0.69112 0.0
C609 C 0.90529 0.1579 0.68325 0.0
N610 N 0.95625 0.19957 0.62709 0.0
N611 N 0.803 0.09559 0.65183 0.0
C612 C 0.91611 0.17855 0.63462 0.0
C613 C 0.838 0.12498 0.64769 0.0
N614 N 0.89209 0.19877 0.54821 0.0
N615 N 0.85154 0.12125 0.74027 0.0
H616 H 0.78163 0.08961 0.62136 0.0
H617 H 0.79635 0.07548 0.68442 0.0
H618 H 0.87039 0.1278 0.77286 0.0
H619 H 0.82044 0.10759 0.74953 0.0
H620 H 0.9158 0.22417 0.54319 0.0
H621 H 0.87064 0.19612 0.5172 0.0
H622 H 0.96841 0.21059 0.59093 0.0
H623 H 0.979 0.20351 0.65656 0.0
loop_
_geom_bond_atom_site_label_1
_geom_bond_atom_site_label_2
_geom_bond_distance
_geom_bond_site_symmetry_2
_ccdc_geom_bond_type
H0 C7 0.929 . S
H1 C10 0.930 . S
H2 C12 0.929 . S
H3 C4 0.969 . S
C4 H3 0.969 . S
C4 O5 1.550 1_556 S
C4 H6 0.973 . S
O5 C4 1.550 1_554 S
O5 C11 1.412 . S
H6 C4 0.973 . S
C7 H0 0.929 . S
C7 C8 1.400 . S
C7 C9 1.364 1_554 S
C8 C7 1.400 . S
C8 C12 1.377 . S
C9 C7 1.364 1_556 S
C9 C10 1.374 . S
C10 H1 0.930 . S
C10 C9 1.374 . S
C10 C11 1.383 1_556 S
C11 O5 1.412 . S
C11 C10 1.383 1_554 S
C11 C12 1.394 . S
C12 H2 0.929 . S
C12 C8 1.377 . S
C12 C11 1.394 . S
H13 C20 0.929 . S
H14 C23 0.930 . S
H15 C25 0.929 . S
H16 C17 0.969 . S
C17 H16 0.969 . S
C17 O18 1.550 . S
C17 H19 0.973 . S
O18 C17 1.550 . S
O18 C24 1.412 . S
H19 C17 0.973 . S
C20 H13 0.929 . S
C20 C21 1.400 . S
C20 C22 1.364 . S
C21 C20 1.400 . S
C21 C25 1.377 . S
C22 C20 1.364 . S
C22 C23 1.374 . S
C23 H14 0.930 . S
C23 C22 1.374 . S
C23 C24 1.383 . S
C24 O18 1.412 . S
C24 C23 1.383 . S
C24 C25 1.394 . S
C25 H15 0.929 . S
C25 C21 1.377 . S
C25 C24 1.394 . S
H26 C33 0.929 . S
H27 C36 0.930 . S
H28 C38 0.929 . S
H29 C30 0.969 . S
C30 H29 0.969 . S
C30 O31 1.550 . S
C30 H32 0.973 1_556 S
O31 C30 1.550 . S
O31 C37 1.412 . S
H32 C30 0.973 1_554 S
C33 H26 0.929 . S
C33 C34 1.400 1_554 S
C33 C35 1.364 . S
C34 C33 1.400 1_556 S
C34 C38 1.377 . S
C35 C33 1.364 . S
C35 C36 1.374 . S
C36 H27 0.930 . S
C36 C35 1.374 . S
C36 C37 1.383 1_554 S
C37 O31 1.412 . S
C37 C36 1.383 1_556 S
C37 C38 1.394 . S
C38 H28 0.929 . S
C38 C34 1.377 . S
C38 C37 1.394 . S
H39 C46 0.929 . S
H40 C49 0.930 . S
H41 C51 0.929 . S
H42 C43 0.969 . S
C43 H42 0.969 . S
C43 O44 1.550 . S
C43 H45 0.973 . S
O44 C43 1.550 . S
O44 C50 1.412 . S
H45 C43 0.973 . S
C46 H39 0.929 . S
C46 C47 1.400 . S
C46 C48 1.364 . S
C47 C46 1.400 . S
C47 C51 1.377 . S
C48 C46 1.364 . S
C48 C49 1.374 . S
C49 H40 0.930 . S
C49 C48 1.374 . S
C49 C50 1.383 . S
C50 O44 1.412 . S
C50 C49 1.383 . S
C50 C51 1.394 . S
C51 H41 0.929 . S
C51 C47 1.377 . S
C51 C50 1.394 . S
H52 C59 0.929 . S
H53 C62 0.930 . S
H54 C64 0.929 . S
H55 C56 0.969 . S
C56 H55 0.969 . S
C56 O57 1.550 1_556 S
C56 H58 0.973 . S
O57 C56 1.550 1_554 S
O57 C63 1.412 . S
H58 C56 0.973 . S
C59 H52 0.929 . S
C59 C60 1.400 . S
C59 C61 1.364 1_554 S
C60 C59 1.400 . S
C60 C64 1.377 . S
C61 C59 1.364 1_556 S
C61 C62 1.374 . S
C62 H53 0.930 . S
C62 C61 1.374 . S
C62 C63 1.383 1_556 S
C63 O57 1.412 . S
C63 C62 1.383 1_554 S
C63 C64 1.394 . S
C64 H54 0.929 . S
C64 C60 1.377 . S
C64 C63 1.394 . S
H65 C72 0.929 . S
H66 C75 0.930 . S
H67 C77 0.929 . S
H68 C69 0.969 . S
C69 H68 0.969 . S
C69 O70 1.550 . S
C69 H71 0.973 . S
O70 C69 1.550 . S
O70 C76 1.412 . S
H71 C69 0.973 . S
C72 H65 0.929 . S
C72 C73 1.400 . S
C72 C74 1.364 . S
C73 C72 1.400 . S
C73 C77 1.377 . S
C74 C72 1.364 . S
C74 C75 1.374 . S
C75 H66 0.930 . S
C75 C74 1.374 . S
C75 C76 1.383 . S
C76 O70 1.412 . S
C76 C75 1.383 . S
C76 C77 1.394 . S
C77 H67 0.929 . S
C77 C73 1.377 . S
C77 C76 1.394 . S
H78 C85 0.929 . S
H79 C88 0.930 . S
H80 C90 0.929 . S
H81 C82 0.969 . S
C82 H81 0.969 . S
C82 O83 1.550 . S
C82 H84 0.973 1_556 S
O83 C82 1.550 . S
O83 C89 1.412 . S
H84 C82 0.973 1_554 S
C85 H78 0.929 . S
C85 C86 1.400 1_554 S
C85 C87 1.364 . S
C86 C85 1.400 1_556 S
C86 C90 1.377 . S
C87 C85 1.364 . S
C87 C88 1.374 . S
C88 H79 0.930 . S
C88 C87 1.374 . S
C88 C89 1.383 1_554 S
C89 O83 1.412 . S
C89 C88 1.383 1_556 S
C89 C90 1.394 . S
C90 H80 0.929 . S
C90 C86 1.377 . S
C90 C89 1.394 . S
H91 C98 0.929 . S
H92 C101 0.930 . S
H93 C103 0.929 . S
H94 C95 0.969 . S
C95 H94 0.969 . S
C95 O96 1.550 . S
C95 H97 0.973 . S
O96 C95 1.550 . S
O96 C102 1.412 . S
H97 C95 0.973 . S
C98 H91 0.929 . S
C98 C99 1.400 . S
C98 C100 1.364 . S
C99 C98 1.400 . S
C99 C103 1.377 . S
C100 C98 1.364 . S
C100 C101 1.374 . S
C101 H92 0.930 . S
C101 C100 1.374 . S
C101 C102 1.383 . S
C102 O96 1.412 . S
C102 C101 1.383 . S
C102 C103 1.394 . S
C103 H93 0.929 . S
C103 C99 1.377 . S
C103 C102 1.394 . S
Sc104 O107 2.025 . S
Sc104 O114 2.105 1_455 S
Sc104 O117 2.105 . S
Sc104 O120 2.105 . S
Sc104 O123 2.105 1_455 S
Sc105 O107 2.025 . S
Sc105 O115 2.105 1_455 S
Sc105 O119 2.105 . S
Sc105 O121 2.105 . S
Sc105 O125 2.105 1_455 S
Sc106 O107 2.025 . S
Sc106 O116 2.106 1_455 S
Sc106 O118 2.104 . S
Sc106 O122 2.104 . S
Sc106 O124 2.106 1_455 S
O107 Sc104 2.025 . S
O107 Sc105 2.025 . S
O107 Sc106 2.025 . S
C108 O114 1.268 . S
C108 O124 1.268 . S
C109 O115 1.268 . S
C109 O123 1.268 . S
C110 O116 1.268 . S
C110 O125 1.268 . S
C111 O117 1.268 . S
C111 O121 1.268 . S
C112 O118 1.268 . S
C112 O120 1.268 . S
C113 O119 1.268 . S
C113 O122 1.268 . S
O114 Sc104 2.105 1_655 S
O114 C108 1.268 . S
O115 Sc105 2.105 1_655 S
O115 C109 1.268 . S
O116 Sc106 2.106 1_655 S
O116 C110 1.268 . S
O117 Sc104 2.105 . S
O117 C111 1.268 . S
O118 Sc106 2.104 . S
O118 C112 1.268 . S
O119 Sc105 2.105 . S
O119 C113 1.268 . S
O120 Sc104 2.105 . S
O120 C112 1.268 . S
O121 Sc105 2.105 . S
O121 C111 1.268 . S
O122 Sc106 2.104 . S
O122 C113 1.268 . S
O123 Sc104 2.105 1_655 S
O123 C109 1.268 . S
O124 Sc106 2.106 1_655 S
O124 C108 1.268 . S
O125 Sc105 2.105 1_655 S
O125 C110 1.268 . S
Sc126 O129 2.025 . S
Sc126 O136 2.105 . S
Sc126 O139 2.105 1_455 S
Sc126 O142 2.105 1_455 S
Sc126 O145 2.105 . S
Sc127 O129 2.025 . S
Sc127 O137 2.105 . S
Sc127 O141 2.105 1_455 S
Sc127 O143 2.105 1_455 S
Sc127 O147 2.105 . S
Sc128 O129 2.025 . S
Sc128 O138 2.104 . S
Sc128 O140 2.106 1_455 S
Sc128 O144 2.106 1_455 S
Sc128 O146 2.104 . S
O129 Sc126 2.025 . S
O129 Sc127 2.025 . S
O129 Sc128 2.025 . S
C130 O136 1.268 . S
C130 O146 1.268 . S
C131 O137 1.268 . S
C131 O145 1.268 . S
C132 O138 1.268 . S
C132 O147 1.268 . S
C133 O139 1.268 . S
C133 O143 1.268 . S
C134 O140 1.268 . S
C134 O142 1.268 . S
C135 O141 1.268 . S
C135 O144 1.268 . S
O136 Sc126 2.105 . S
O136 C130 1.268 . S
O137 Sc127 2.105 . S
O137 C131 1.268 . S
O138 Sc128 2.104 . S
O138 C132 1.268 . S
O139 Sc126 2.105 1_655 S
O139 C133 1.268 . S
O140 Sc128 2.106 1_655 S
O140 C134 1.268 . S
O141 Sc127 2.105 1_655 S
O141 C135 1.268 . S
O142 Sc126 2.105 1_655 S
O142 C134 1.268 . S
O143 Sc127 2.105 1_655 S
O143 C133 1.268 . S
O144 Sc128 2.106 1_655 S
O144 C135 1.268 . S
O145 Sc126 2.105 . S
O145 C131 1.268 . S
O146 Sc128 2.104 . S
O146 C130 1.268 . S
O147 Sc127 2.105 . S
O147 C132 1.268 . S
Sc148 O151 2.025 . S
Sc148 O158 2.105 . S
Sc148 O161 2.105 . S
Sc148 O164 2.105 . S
Sc148 O167 2.105 . S
Sc149 O151 2.025 . S
Sc149 O159 2.105 . S
Sc149 O163 2.105 . S
Sc149 O165 2.105 . S
Sc149 O169 2.105 . S
Sc150 O151 2.025 . S
Sc150 O160 2.105 . S
Sc150 O162 2.105 . S
Sc150 O166 2.105 . S
Sc150 O168 2.105 . S
O151 Sc148 2.025 . S
O151 Sc149 2.025 . S
O151 Sc150 2.025 . S
C152 O158 1.268 . S
C152 O168 1.268 . S
C153 O159 1.268 . S
C153 O167 1.268 . S
C154 O160 1.268 . S
C154 O169 1.268 . S
C155 O161 1.268 . S
C155 O165 1.268 . S
C156 O162 1.268 . S
C156 O164 1.268 . S
C157 O163 1.268 . S
C157 O166 1.268 . S
O158 Sc148 2.105 . S
O158 C152 1.268 . S
O159 Sc149 2.105 . S
O159 C153 1.268 . S
O160 Sc150 2.105 . S
O160 C154 1.268 . S
O161 Sc148 2.105 . S
O161 C155 1.268 . S
O162 Sc150 2.105 . S
O162 C156 1.268 . S
O163 Sc149 2.105 . S
O163 C157 1.268 . S
O164 Sc148 2.105 . S
O164 C156 1.268 . S
O165 Sc149 2.105 . S
O165 C155 1.268 . S
O166 Sc150 2.105 . S
O166 C157 1.268 . S
O167 Sc148 2.105 . S
O167 C153 1.268 . S
O168 Sc150 2.105 . S
O168 C152 1.268 . S
O169 Sc149 2.105 . S
O169 C154 1.268 . S
Sc170 O173 2.025 . S
Sc170 O180 2.105 . S
Sc170 O183 2.105 . S
Sc170 O186 2.105 . S
Sc170 O189 2.105 . S
Sc171 O173 2.025 . S
Sc171 O181 2.105 . S
Sc171 O185 2.105 . S
Sc171 O187 2.105 . S
Sc171 O191 2.105 . S
Sc172 O173 2.025 . S
Sc172 O182 2.105 . S
Sc172 O184 2.105 . S
Sc172 O188 2.105 . S
Sc172 O190 2.105 . S
O173 Sc170 2.025 . S
O173 Sc171 2.025 . S
O173 Sc172 2.025 . S
C174 O180 1.268 . S
C174 O190 1.268 . S
C175 O181 1.268 . S
C175 O189 1.268 . S
C176 O182 1.268 . S
C176 O191 1.268 . S
C177 O183 1.268 . S
C177 O187 1.268 . S
C178 O184 1.268 . S
C178 O186 1.268 . S
C179 O185 1.268 . S
C179 O188 1.268 . S
O180 Sc170 2.105 . S
O180 C174 1.268 . S
O181 Sc171 2.105 . S
O181 C175 1.268 . S
O182 Sc172 2.105 . S
O182 C176 1.268 . S
O183 Sc170 2.105 . S
O183 C177 1.268 . S
O184 Sc172 2.105 . S
O184 C178 1.268 . S
O185 Sc171 2.105 . S
O185 C179 1.268 . S
O186 Sc170 2.105 . S
O186 C178 1.268 . S
O187 Sc171 2.105 . S
O187 C177 1.268 . S
O188 Sc172 2.105 . S
O188 C179 1.268 . S
O189 Sc170 2.105 . S
O189 C175 1.268 . S
O190 Sc172 2.105 . S
O190 C174 1.268 . S
O191 Sc171 2.105 . S
O191 C176 1.268 . S
C192 C193 1.363 . S
C192 C198 1.379 . S
C192 N200 1.356 1_556 S
C193 C192 1.363 . S
C193 C199 1.363 . S
C194 C195 1.363 . S
C194 C199 1.379 . S
C194 N201 1.356 . S
C195 C194 1.363 . S
C195 C198 1.363 . S
N196 C198 1.356 . S
N196 H208 0.984 1_556 S
N196 H209 0.985 . S
N197 C199 1.356 . S
N197 H202 0.984 . S
N197 H203 0.985 . S
C198 C192 1.379 . S
C198 C195 1.363 . S
C198 N196 1.356 . S
C199 C193 1.363 . S
C199 C194 1.379 . S
C199 N197 1.356 . S
N200 C192 1.356 1_554 S
N200 H206 0.984 . S
N200 H207 0.984 . S
N201 C194 1.356 . S
N201 H204 0.984 . S
N201 H205 0.985 . S
H202 N197 0.984 . S
H203 N197 0.985 . S
H204 N201 0.984 . S
H205 N201 0.985 . S
H206 N200 0.984 . S
H207 N200 0.984 . S
H208 N196 0.984 1_554 S
H209 N196 0.985 . S
C210 C211 1.363 . S
C210 C216 1.379 . S
C210 N218 1.356 . S
C211 C210 1.363 . S
C211 C217 1.363 . S
C212 C213 1.363 . S
C212 C217 1.379 . S
C212 N219 1.356 . S
C213 C212 1.363 . S
C213 C216 1.363 . S
N214 C216 1.356 . S
N214 H226 0.984 . S
N214 H227 0.985 . S
N215 C217 1.356 . S
N215 H220 0.984 . S
N215 H221 0.985 . S
C216 C210 1.379 . S
C216 C213 1.363 . S
C216 N214 1.356 . S
C217 C211 1.363 . S
C217 C212 1.379 . S
C217 N215 1.356 . S
N218 C210 1.356 . S
N218 H224 0.984 . S
N218 H225 0.984 . S
N219 C212 1.356 . S
N219 H222 0.984 . S
N219 H223 0.985 . S
H220 N215 0.984 . S
H221 N215 0.985 . S
H222 N219 0.984 . S
H223 N219 0.985 . S
H224 N218 0.984 . S
H225 N218 0.984 . S
H226 N214 0.984 . S
H227 N214 0.985 . S
C228 C229 1.363 . S
C228 C234 1.379 . S
C228 N236 1.356 1_556 S
C229 C228 1.363 . S
C229 C235 1.363 . S
C230 C231 1.363 . S
C230 C235 1.379 . S
C230 N237 1.356 . S
C231 C230 1.363 . S
C231 C234 1.363 . S
N232 C234 1.356 . S
N232 H244 0.984 1_556 S
N232 H245 0.985 . S
N233 C235 1.356 . S
N233 H238 0.984 . S
N233 H239 0.985 . S
C234 C228 1.379 . S
C234 C231 1.363 . S
C234 N232 1.356 . S
C235 C229 1.363 . S
C235 C230 1.379 . S
C235 N233 1.356 . S
N236 C228 1.356 1_554 S
N236 H242 0.984 . S
N236 H243 0.984 . S
N237 C230 1.356 . S
N237 H240 0.984 . S
N237 H241 0.985 . S
H238 N233 0.984 . S
H239 N233 0.985 . S
H240 N237 0.984 . S
H241 N237 0.985 . S
H242 N236 0.984 . S
H243 N236 0.984 . S
H244 N232 0.984 1_554 S
H245 N232 0.985 . S
C246 C247 1.363 . S
C246 C252 1.379 . S
C246 N254 1.356 . S
C247 C246 1.363 . S
C247 C253 1.363 . S
C248 C249 1.363 . S
C248 C253 1.379 . S
C248 N255 1.356 . S
C249 C248 1.363 . S
C249 C252 1.363 . S
N250 C252 1.356 . S
N250 H262 0.984 . S
N250 H263 0.985 . S
N251 C253 1.356 . S
N251 H256 0.984 . S
N251 H257 0.985 . S
C252 C246 1.379 . S
C252 C249 1.363 . S
C252 N250 1.356 . S
C253 C247 1.363 . S
C253 C248 1.379 . S
C253 N251 1.356 . S
N254 C246 1.356 . S
N254 H260 0.984 . S
N254 H261 0.984 . S
N255 C248 1.356 . S
N255 H258 0.984 . S
N255 H259 0.985 . S
H256 N251 0.984 . S
H257 N251 0.985 . S
H258 N255 0.984 . S
H259 N255 0.985 . S
H260 N254 0.984 . S
H261 N254 0.984 . S
H262 N250 0.984 . S
H263 N250 0.985 . S
C264 C265 1.363 . S
C264 C270 1.379 . S
C264 N272 1.356 1_556 S
C265 C264 1.363 . S
C265 C271 1.363 . S
C266 C267 1.363 . S
C266 C271 1.379 . S
C266 N273 1.356 . S
C267 C266 1.363 . S
C267 C270 1.363 . S
N268 C270 1.356 . S
N268 H280 0.984 1_556 S
N268 H281 0.985 . S
N269 C271 1.356 . S
N269 H274 0.984 . S
N269 H275 0.985 . S
C270 C264 1.379 . S
C270 C267 1.363 . S
C270 N268 1.356 . S
C271 C265 1.363 . S
C271 C266 1.379 . S
C271 N269 1.356 . S
N272 C264 1.356 1_554 S
N272 H278 0.984 . S
N272 H279 0.984 . S
N273 C266 1.356 . S
N273 H276 0.984 . S
N273 H277 0.985 . S
H274 N269 0.984 . S
H275 N269 0.985 . S
H276 N273 0.984 . S
H277 N273 0.985 . S
H278 N272 0.984 . S
H279 N272 0.984 . S
H280 N268 0.984 1_554 S
H281 N268 0.985 . S
C282 C283 1.363 . S
C282 C288 1.379 . S
C282 N290 1.356 . S
C283 C282 1.363 . S
C283 C289 1.363 . S
C284 C285 1.363 . S
C284 C289 1.379 . S
C284 N291 1.356 . S
C285 C284 1.363 . S
C285 C288 1.363 . S
N286 C288 1.356 . S
N286 H298 0.984 . S
N286 H299 0.985 . S
N287 C289 1.356 . S
N287 H292 0.984 . S
N287 H293 0.985 . S
C288 C282 1.379 . S
C288 C285 1.363 . S
C288 N286 1.356 . S
C289 C283 1.363 . S
C289 C284 1.379 . S
C289 N287 1.356 . S
N290 C282 1.356 . S
N290 H296 0.984 . S
N290 H297 0.984 . S
N291 C284 1.356 . S
N291 H294 0.984 . S
N291 H295 0.985 . S
H292 N287 0.984 . S
H293 N287 0.985 . S
H294 N291 0.984 . S
H295 N291 0.985 . S
H296 N290 0.984 . S
H297 N290 0.984 . S
H298 N286 0.984 . S
H299 N286 0.985 . S
C300 C301 1.363 . S
C300 C306 1.379 . S
C300 N308 1.356 . S
C301 C300 1.363 . S
C301 C307 1.363 . S
C302 C303 1.363 . S
C302 C307 1.379 . S
C302 N309 1.356 . S
C303 C302 1.363 . S
C303 C306 1.363 . S
N304 C306 1.356 . S
N304 H316 0.984 . S
N304 H317 0.985 . S
N305 C307 1.356 1_554 S
N305 H310 0.984 . S
N305 H311 0.985 . S
C306 C300 1.379 . S
C306 C303 1.363 . S
C306 N304 1.356 . S
C307 C301 1.363 . S
C307 C302 1.379 . S
C307 N305 1.356 1_556 S
N308 C300 1.356 . S
N308 H314 0.984 . S
N308 H315 0.984 . S
N309 C302 1.356 . S
N309 H312 0.984 . S
N309 H313 0.985 1_556 S
H310 N305 0.984 . S
H311 N305 0.985 . S
H312 N309 0.984 . S
H313 N309 0.985 1_554 S
H314 N308 0.984 . S
H315 N308 0.984 . S
H316 N304 0.984 . S
H317 N304 0.985 . S
C318 C319 1.363 . S
C318 C324 1.379 . S
C318 N326 1.356 . S
C319 C318 1.363 . S
C319 C325 1.363 . S
C320 C321 1.363 . S
C320 C325 1.379 . S
C320 N327 1.356 . S
C321 C320 1.363 . S
C321 C324 1.363 . S
N322 C324 1.356 . S
N322 H334 0.984 . S
N322 H335 0.985 . S
N323 C325 1.356 . S
N323 H328 0.984 . S
N323 H329 0.985 . S
C324 C318 1.379 . S
C324 C321 1.363 . S
C324 N322 1.356 . S
C325 C319 1.363 . S
C325 C320 1.379 . S
C325 N323 1.356 . S
N326 C318 1.356 . S
N326 H332 0.984 . S
N326 H333 0.984 . S
N327 C320 1.356 . S
N327 H330 0.984 . S
N327 H331 0.985 . S
H328 N323 0.984 . S
H329 N323 0.985 . S
H330 N327 0.984 . S
H331 N327 0.985 . S
H332 N326 0.984 . S
H333 N326 0.984 . S
H334 N322 0.984 . S
H335 N322 0.985 . S
C336 C337 1.363 . S
C336 C342 1.379 . S
C336 N344 1.356 . S
C337 C336 1.363 . S
C337 C343 1.363 . S
C338 C339 1.363 . S
C338 C343 1.379 . S
C338 N345 1.356 . S
C339 C338 1.363 . S
C339 C342 1.363 . S
N340 C342 1.356 . S
N340 H352 0.984 . S
N340 H353 0.985 . S
N341 C343 1.356 1_554 S
N341 H346 0.984 . S
N341 H347 0.985 . S
C342 C336 1.379 . S
C342 C339 1.363 . S
C342 N340 1.356 . S
C343 C337 1.363 . S
C343 C338 1.379 . S
C343 N341 1.356 1_556 S
N344 C336 1.356 . S
N344 H350 0.984 . S
N344 H351 0.984 . S
N345 C338 1.356 . S
N345 H348 0.984 . S
N345 H349 0.985 . S
H346 N341 0.984 . S
H347 N341 0.985 . S
H348 N345 0.984 . S
H349 N345 0.985 . S
H350 N344 0.984 . S
H351 N344 0.984 . S
H352 N340 0.984 . S
H353 N340 0.985 . S
C354 C355 1.363 . S
C354 C360 1.379 . S
C354 N362 1.356 . S
C355 C354 1.363 . S
C355 C361 1.363 . S
C356 C357 1.363 . S
C356 C361 1.379 . S
C356 N363 1.356 . S
C357 C356 1.363 . S
C357 C360 1.363 . S
N358 C360 1.356 . S
N358 H370 0.984 . S
N358 H371 0.985 . S
N359 C361 1.356 . S
N359 H364 0.984 . S
N359 H365 0.985 . S
C360 C354 1.379 . S
C360 C357 1.363 . S
C360 N358 1.356 . S
C361 C355 1.363 . S
C361 C356 1.379 . S
C361 N359 1.356 . S
N362 C354 1.356 . S
N362 H368 0.984 . S
N362 H369 0.984 . S
N363 C356 1.356 . S
N363 H366 0.984 . S
N363 H367 0.985 . S
H364 N359 0.984 . S
H365 N359 0.985 . S
H366 N363 0.984 . S
H367 N363 0.985 . S
H368 N362 0.984 . S
H369 N362 0.984 . S
H370 N358 0.984 . S
H371 N358 0.985 . S
C372 C373 1.363 . S
C372 C378 1.379 . S
C372 N380 1.356 1_556 S
C373 C372 1.363 . S
C373 C379 1.363 . S
C374 C375 1.363 . S
C374 C379 1.379 . S
C374 N381 1.356 . S
C375 C374 1.363 . S
C375 C378 1.363 . S
N376 C378 1.356 . S
N376 H388 0.984 . S
N376 H389 0.985 . S
N377 C379 1.356 . S
N377 H382 0.984 . S
N377 H383 0.985 . S
C378 C372 1.379 . S
C378 C375 1.363 . S
C378 N376 1.356 . S
C379 C373 1.363 . S
C379 C374 1.379 . S
C379 N377 1.356 . S
N380 C372 1.356 1_554 S
N380 H386 0.984 . S
N380 H387 0.984 . S
N381 C374 1.356 . S
N381 H384 0.984 . S
N381 H385 0.985 . S
H382 N377 0.984 . S
H383 N377 0.985 . S
H384 N381 0.984 . S
H385 N381 0.985 . S
H386 N380 0.984 . S
H387 N380 0.984 . S
H388 N376 0.984 . S
H389 N376 0.985 . S
C390 C391 1.363 . S
C390 C396 1.379 . S
C390 N398 1.356 . S
C391 C390 1.363 . S
C391 C397 1.363 . S
C392 C393 1.363 . S
C392 C397 1.379 . S
C392 N399 1.356 . S
C393 C392 1.363 . S
C393 C396 1.363 . S
N394 C396 1.356 . S
N394 H406 0.984 . S
N394 H407 0.985 . S
N395 C397 1.356 . S
N395 H400 0.984 . S
N395 H401 0.985 . S
C396 C390 1.379 . S
C396 C393 1.363 . S
C396 N394 1.356 . S
C397 C391 1.363 . S
C397 C392 1.379 . S
C397 N395 1.356 . S
N398 C390 1.356 . S
N398 H404 0.984 . S
N398 H405 0.984 . S
N399 C392 1.356 . S
N399 H402 0.984 . S
N399 H403 0.985 . S
H400 N395 0.984 . S
H401 N395 0.985 . S
H402 N399 0.984 . S
H403 N399 0.985 . S
H404 N398 0.984 . S
H405 N398 0.984 . S
H406 N394 0.984 . S
H407 N394 0.985 . S
C408 C409 1.363 1_545 S
C408 C414 1.379 . S
C408 N416 1.356 . S
C409 C408 1.363 1_565 S
C409 C415 1.363 . S
C410 C411 1.363 1_565 S
C410 C415 1.379 . S
C410 N417 1.356 . S
C411 C410 1.363 1_545 S
C411 C414 1.363 . S
N412 C414 1.356 . S
N412 H424 0.984 . S
N412 H425 0.985 . S
N413 C415 1.356 . S
N413 H418 0.984 . S
N413 H419 0.985 . S
C414 C408 1.379 . S
C414 C411 1.363 . S
C414 N412 1.356 . S
C415 C409 1.363 . S
C415 C410 1.379 . S
C415 N413 1.356 . S
N416 C408 1.356 . S
N416 H422 0.984 . S
N416 H423 0.984 1_545 S
N417 C410 1.356 . S
N417 H420 0.984 1_565 S
N417 H421 0.985 . S
H418 N413 0.984 . S
H419 N413 0.985 . S
H420 N417 0.984 1_545 S
H421 N417 0.985 . S
H422 N416 0.984 . S
H423 N416 0.984 1_565 S
H424 N412 0.984 . S
H425 N412 0.985 . S
C426 C427 1.363 1_565 S
C426 C432 1.379 . S
C426 N434 1.356 . S
C427 C426 1.363 1_545 S
C427 C433 1.363 . S
C428 C429 1.363 1_545 S
C428 C433 1.379 . S
C428 N435 1.356 . S
C429 C428 1.363 1_565 S
C429 C432 1.363 . S
N430 C432 1.356 . S
N430 H442 0.984 . S
N430 H443 0.985 . S
N431 C433 1.356 . S
N431 H436 0.984 . S
N431 H437 0.985 . S
C432 C426 1.379 . S
C432 C429 1.363 . S
C432 N430 1.356 . S
C433 C427 1.363 . S
C433 C428 1.379 . S
C433 N431 1.356 . S
N434 C426 1.356 . S
N434 H440 0.984 . S
N434 H441 0.984 . S
N435 C428 1.356 . S
N435 H438 0.984 1_545 S
N435 H439 0.985 . S
H436 N431 0.984 . S
H437 N431 0.985 . S
H438 N435 0.984 1_565 S
H439 N435 0.985 . S
H440 N434 0.984 . S
H441 N434 0.984 . S
H442 N430 0.984 . S
H443 N430 0.985 . S
C444 C445 1.363 . S
C444 C450 1.379 1_565 S
C444 N452 1.356 . S
C445 C444 1.363 . S
C445 C451 1.365 . S
C446 C447 1.363 . S
C446 C451 1.377 1_545 S
C446 N453 1.356 . S
C447 C446 1.363 . S
C447 C450 1.363 . S
N448 C450 1.356 . S
N448 H460 0.984 . S
N448 H461 0.985 . S
N449 C451 1.357 1_554 S
N449 H454 0.984 . S
N449 H455 0.985 1_565 S
C450 C444 1.379 1_545 S
C450 C447 1.363 . S
C450 N448 1.356 . S
C451 C445 1.365 . S
C451 C446 1.377 1_565 S
C451 N449 1.357 1_556 S
N452 C444 1.356 . S
N452 H458 0.984 . S
N452 H459 0.984 . S
N453 C446 1.356 . S
N453 H456 0.984 . S
N453 H457 0.985 1_556 S
H454 N449 0.984 . S
H455 N449 0.985 1_545 S
H456 N453 0.984 . S
H457 N453 0.985 1_554 S
H458 N452 0.984 . S
H459 N452 0.984 . S
H460 N448 0.984 . S
H461 N448 0.985 . S
C462 C463 1.363 . S
C462 C468 1.379 1_545 S
C462 N470 1.356 . S
C463 C462 1.363 . S
C463 C469 1.363 . S
C464 C465 1.363 . S
C464 C469 1.379 1_565 S
C464 N471 1.356 . S
C465 C464 1.363 . S
C465 C468 1.363 . S
N466 C468 1.356 . S
N466 H478 0.984 . S
N466 H479 0.985 . S
N467 C469 1.356 . S
N467 H472 0.984 . S
N467 H473 0.985 . S
C468 C462 1.379 1_565 S
C468 C465 1.363 . S
C468 N466 1.356 . S
C469 C463 1.363 . S
C469 C464 1.379 1_545 S
C469 N467 1.356 . S
N470 C462 1.356 . S
N470 H476 0.984 . S
N470 H477 0.984 . S
N471 C464 1.356 . S
N471 H474 0.984 . S
N471 H475 0.985 . S
H472 N467 0.984 . S
H473 N467 0.985 . S
H474 N471 0.984 . S
H475 N471 0.985 . S
H476 N470 0.984 . S
H477 N470 0.984 . S
H478 N466 0.984 . S
H479 N466 0.985 . S
C480 C481 1.363 . S
C480 C486 1.379 . S
C480 N488 1.356 . S
C481 C480 1.363 . S
C481 C487 1.363 . S
C482 C483 1.363 . S
C482 C487 1.379 . S
C482 N489 1.356 . S
C483 C482 1.363 . S
C483 C486 1.363 . S
N484 C486 1.356 . S
N484 H496 0.984 . S
N484 H497 0.985 . S
N485 C487 1.356 . S
N485 H490 0.984 . S
N485 H491 0.985 . S
C486 C480 1.379 . S
C486 C483 1.363 . S
C486 N484 1.356 . S
C487 C481 1.363 . S
C487 C482 1.379 . S
C487 N485 1.356 . S
N488 C480 1.356 . S
N488 H494 0.984 . S
N488 H495 0.984 . S
N489 C482 1.356 . S
N489 H492 0.984 . S
N489 H493 0.985 . S
H490 N485 0.984 . S
H491 N485 0.985 . S
H492 N489 0.984 . S
H493 N489 0.985 . S
H494 N488 0.984 . S
H495 N488 0.984 . S
H496 N484 0.984 . S
H497 N484 0.985 . S
C498 C499 1.363 . S
C498 C504 1.379 . S
C498 N506 1.356 . S
C499 C498 1.363 . S
C499 C505 1.363 . S
C500 C501 1.363 . S
C500 C505 1.379 . S
C500 N507 1.356 . S
C501 C500 1.363 . S
C501 C504 1.363 . S
N502 C504 1.356 . S
N502 H514 0.984 . S
N502 H515 0.985 . S
N503 C505 1.356 . S
N503 H508 0.984 . S
N503 H509 0.985 . S
C504 C498 1.379 . S
C504 C501 1.363 . S
C504 N502 1.356 . S
C505 C499 1.363 . S
C505 C500 1.379 . S
C505 N503 1.356 . S
N506 C498 1.356 . S
N506 H512 0.984 . S
N506 H513 0.984 . S
N507 C500 1.356 . S
N507 H510 0.984 . S
N507 H511 0.985 . S
H508 N503 0.984 . S
H509 N503 0.985 . S
H510 N507 0.984 . S
H511 N507 0.985 . S
H512 N506 0.984 . S
H513 N506 0.984 . S
H514 N502 0.984 . S
H515 N502 0.985 . S
C516 C517 1.363 . S
C516 C522 1.379 . S
C516 N524 1.356 . S
C517 C516 1.363 . S
C517 C523 1.363 . S
C518 C519 1.363 . S
C518 C523 1.379 . S
C518 N525 1.356 . S
C519 C518 1.363 . S
C519 C522 1.363 . S
N520 C522 1.356 . S
N520 H532 0.984 . S
N520 H533 0.985 . S
N521 C523 1.356 . S
N521 H526 0.984 . S
N521 H527 0.985 . S
C522 C516 1.379 . S
C522 C519 1.363 . S
C522 N520 1.356 . S
C523 C517 1.363 . S
C523 C518 1.379 . S
C523 N521 1.356 . S
N524 C516 1.356 . S
N524 H530 0.984 . S
N524 H531 0.984 . S
N525 C518 1.356 . S
N525 H528 0.984 . S
N525 H529 0.985 . S
H526 N521 0.984 . S
H527 N521 0.985 . S
H528 N525 0.984 . S
H529 N525 0.985 . S
H530 N524 0.984 . S
H531 N524 0.984 . S
H532 N520 0.984 . S
H533 N520 0.985 . S
C534 C535 1.363 . S
C534 C540 1.379 . S
C534 N542 1.356 . S
C535 C534 1.363 . S
C535 C541 1.363 . S
C536 C537 1.363 . S
C536 C541 1.379 . S
C536 N543 1.356 . S
C537 C536 1.363 . S
C537 C540 1.363 . S
N538 C540 1.356 . S
N538 H550 0.984 . S
N538 H551 0.985 . S
N539 C541 1.356 . S
N539 H544 0.984 . S
N539 H545 0.985 . S
C540 C534 1.379 . S
C540 C537 1.363 . S
C540 N538 1.356 . S
C541 C535 1.363 . S
C541 C536 1.379 . S
C541 N539 1.356 . S
N542 C534 1.356 . S
N542 H548 0.984 . S
N542 H549 0.984 . S
N543 C536 1.356 . S
N543 H546 0.984 . S
N543 H547 0.985 . S
H544 N539 0.984 . S
H545 N539 0.985 . S
H546 N543 0.984 . S
H547 N543 0.985 . S
H548 N542 0.984 . S
H549 N542 0.984 . S
H550 N538 0.984 . S
H551 N538 0.985 . S
C552 C553 1.363 . S
C552 C558 1.379 . S
C552 N560 1.356 . S
C553 C552 1.363 . S
C553 C559 1.363 . S
C554 C555 1.363 . S
C554 C559 1.379 . S
C554 N561 1.356 . S
C555 C554 1.363 . S
C555 C558 1.363 . S
N556 C558 1.356 . S
N556 H568 0.984 . S
N556 H569 0.985 . S
N557 C559 1.356 . S
N557 H562 0.984 . S
N557 H563 0.985 . S
C558 C552 1.379 . S
C558 C555 1.363 . S
C558 N556 1.356 . S
C559 C553 1.363 . S
C559 C554 1.379 . S
C559 N557 1.356 . S
N560 C552 1.356 . S
N560 H566 0.984 . S
N560 H567 0.984 . S
N561 C554 1.356 . S
N561 H564 0.984 . S
N561 H565 0.985 . S
H562 N557 0.984 . S
H563 N557 0.985 . S
H564 N561 0.984 . S
H565 N561 0.985 . S
H566 N560 0.984 . S
H567 N560 0.984 . S
H568 N556 0.984 . S
H569 N556 0.985 . S
C570 C571 1.363 . S
C570 C576 1.379 . S
C570 N578 1.356 . S
C571 C570 1.363 . S
C571 C577 1.363 . S
C572 C573 1.363 . S
C572 C577 1.379 . S
C572 N579 1.356 . S
C573 C572 1.363 . S
C573 C576 1.363 . S
N574 C576 1.356 . S
N574 H586 0.984 . S
N574 H587 0.985 . S
N575 C577 1.356 . S
N575 H580 0.984 . S
N575 H581 0.985 . S
C576 C570 1.379 . S
C576 C573 1.363 . S
C576 N574 1.356 . S
C577 C571 1.363 . S
C577 C572 1.379 . S
C577 N575 1.356 . S
N578 C570 1.356 . S
N578 H584 0.984 . S
N578 H585 0.984 . S
N579 C572 1.356 . S
N579 H582 0.984 . S
N579 H583 0.985 . S
H580 N575 0.984 . S
H581 N575 0.985 . S
H582 N579 0.984 . S
H583 N579 0.985 . S
H584 N578 0.984 . S
H585 N578 0.984 . S
H586 N574 0.984 . S
H587 N574 0.985 . S
C588 C589 1.363 . S
C588 C594 1.379 . S
C588 N596 1.356 . S
C589 C588 1.363 . S
C589 C595 1.363 . S
C590 C591 1.363 . S
C590 C595 1.379 . S
C590 N597 1.356 . S
C591 C590 1.363 . S
C591 C594 1.363 . S
N592 C594 1.356 . S
N592 H604 0.984 . S
N592 H605 0.985 . S
N593 C595 1.356 . S
N593 H598 0.984 . S
N593 H599 0.985 . S
C594 C588 1.379 . S
C594 C591 1.363 . S
C594 N592 1.356 . S
C595 C589 1.363 . S
C595 C590 1.379 . S
C595 N593 1.356 . S
N596 C588 1.356 . S
N596 H602 0.984 . S
N596 H603 0.984 . S
N597 C590 1.356 . S
N597 H600 0.984 . S
N597 H601 0.985 . S
H598 N593 0.984 . S
H599 N593 0.985 . S
H600 N597 0.984 . S
H601 N597 0.985 . S
H602 N596 0.984 . S
H603 N596 0.984 . S
H604 N592 0.984 . S
H605 N592 0.985 . S
C606 C607 1.363 . S
C606 C612 1.379 . S
C606 N614 1.356 . S
C607 C606 1.363 . S
C607 C613 1.363 . S
C608 C609 1.363 . S
C608 C613 1.379 . S
C608 N615 1.356 . S
C609 C608 1.363 . S
C609 C612 1.363 . S
N610 C612 1.356 . S
N610 H622 0.984 . S
N610 H623 0.985 . S
N611 C613 1.356 . S
N611 H616 0.984 . S
N611 H617 0.985 . S
C612 C606 1.379 . S
C612 C609 1.363 . S
C612 N610 1.356 . S
C613 C607 1.363 . S
C613 C608 1.379 . S
C613 N611 1.356 . S
N614 C606 1.356 . S
N614 H620 0.984 . S
N614 H621 0.984 . S
N615 C608 1.356 . S
N615 H618 0.984 . S
N615 H619 0.985 . S
H616 N611 0.984 . S
H617 N611 0.985 . S
H618 N615 0.984 . S
H619 N615 0.985 . S
H620 N614 0.984 . S
H621 N614 0.984 . S
H622 N610 0.984 . S
H623 N610 0.985 . S
C193 C4 1.516 . S
C195 C130 1.568 . S
C213 C108 1.460 . S
C211 C17 1.469 . S
C231 C134 1.460 . S
C229 C30 1.414 . S
C249 C112 1.568 . S
C247 C43 1.570 . S
C267 C174 1.568 . S
C265 C56 1.516 . S
C285 C152 1.460 . S
C283 C69 1.469 . S
C301 C82 1.414 . S
C303 C178 1.460 . S
C321 C156 1.568 . S
C319 C95 1.570 . S
C337 C9 1.536 . S
C339 C179 1.563 . S
C357 C157 1.451 . S
C355 C21 1.450 . S
C373 C34 1.444 . S
C375 C176 1.451 . S
C391 C48 1.538 . S
C393 C154 1.563 . S
C411 C135 1.563 . S
C409 C61 1.536 . S
C427 C73 1.450 . S
C429 C113 1.451 . S
C447 C132 1.451 . S
C445 C86 1.444 . S
C465 C110 1.563 . S
C463 C100 1.538 . S
C483 C153 1.501 . S
C481 C8 1.495 . S
C501 C175 1.505 . S
C499 C22 1.488 . S
C517 C35 1.486 . S
C519 C155 1.505 . S
C537 C177 1.501 . S
C535 C47 1.501 . S
C555 C109 1.501 . S
C553 C60 1.496 . S
C571 C74 1.488 . S
C573 C131 1.505 . S
C589 C87 1.486 . S
C591 C111 1.505 . S
C607 C99 1.501 . S
C609 C133 1.501 . S
