# Generated by pormake.
# Topology llj, (12,3)-cn, num edge types: 1
# Building blocks:
#     Node 0, Type 0, BuildingBlock: QEWDON_clean_sbu_0, # of connection points: 12
#     Node 1, Type 0, BuildingBlock: QEWDON_clean_sbu_0, # of connection points: 12
#     Node 2, Type 1, BuildingBlock: BELTOD_clean_linker_0, # of connection points: 3
#     Node 3, Type 1, BuildingBlock: BELTOD_clean_linker_0, # of connection points: 3
#     Node 4, Type 1, BuildingBlock: BELTOD_clean_linker_0, # of connection points: 3
#     Node 5, Type 1, BuildingBlock: BELTOD_clean_linker_0, # of connection points: 3
#     Node 6, Type 1, BuildingBlock: BELTOD_clean_linker_0, # of connection points: 3
#     Node 7, Type 1, BuildingBlock: BELTOD_clean_linker_0, # of connection points: 3
#     Node 8, Type 1, BuildingBlock: BELTOD_clean_linker_0, # of connection points: 3
#     Node 9, Type 1, BuildingBlock: BELTOD_clean_linker_0, # of connection points: 3
#     Edge 10, Type (0, 1), None
#     Edge 11, Type (0, 1), None
#     Edge 12, Type (0, 1), None
#     Edge 13, Type (0, 1), None
#     Edge 14, Type (0, 1), None
#     Edge 15, Type (0, 1), None
#     Edge 16, Type (0, 1), None
#     Edge 17, Type (0, 1), None
#     Edge 18, Type (0, 1), None
#     Edge 19, Type (0, 1), None
#     Edge 20, Type (0, 1), None
#     Edge 21, Type (0, 1), None
#     Edge 22, Type (0, 1), None
#     Edge 23, Type (0, 1), None
#     Edge 24, Type (0, 1), None
#     Edge 25, Type (0, 1), None
#     Edge 26, Type (0, 1), None
#     Edge 27, Type (0, 1), None
#     Edge 28, Type (0, 1), None
#     Edge 29, Type (0, 1), None
#     Edge 30, Type (0, 1), None
#     Edge 31, Type (0, 1), None
#     Edge 32, Type (0, 1), None
#     Edge 33, Type (0, 1), None
# Relax obj value: 0.009
# Max RMSD: 0.057
# Mean RMSD: 0.052
data_MOF--net-llj--node1-QEWDON_clean_sbu_0--node2-BELTOD_clean_linker_0--edge1-none
_symmetry_space_group_name_H-M    P1
_symmetry_Int_Tables_number       1
_symmetry_cell_setting            triclinic
loop_
_symmetry_equiv_pos_as_xyz
'x, y, z'
_cell_length_a     24.366072
_cell_length_b     24.260812
_cell_length_c     16.291086
_cell_angle_alpha  90.215205
_cell_angle_beta   90.925023
_cell_angle_gamma 90.321568
loop_
_atom_site_label
_atom_site_type_symbol
_atom_site_fract_x
_atom_site_fract_y
_atom_site_fract_z
_atom_type_partial_charge
Zn0 Zn 0.90954 0.08953 0.90634 0.0
Zn1 Zn 0.91307 0.10391 0.09825 0.0
O2 O 0.96162 0.08923 0.00267 0.0
H3 H -0.00328 0.10584 -0.00896 0.0
C4 C 0.83911 0.99034 0.79679 0.0
O5 O 0.80611 0.00026 0.85805 0.0
Zn6 Zn 0.08437 0.88768 0.09575 0.0
Zn7 Zn 0.07696 0.87771 0.90176 0.0
O8 O 0.03272 0.8954 0.00077 0.0
H9 H -0.00149 0.91518 -0.00111 0.0
Zn10 Zn 0.87676 0.90931 0.91265 0.0
O11 O 0.8983 0.9565 0.00872 0.0
Zn12 Zn 0.88731 0.90903 0.10654 0.0
H13 H 0.9257 0.9852 0.00435 0.0
Zn14 Zn 0.0912 0.06975 0.88164 0.0
O15 O 0.07523 0.03044 -0.01161 0.0
H16 H 0.04681 0.00284 -0.007 0.0
Zn17 Zn 0.09702 0.08259 0.07853 0.0
C18 C 0.16617 0.01855 0.77287 0.0
O19 O 0.19902 0.04517 0.82426 0.0
O20 O 0.85162 0.14966 0.92442 0.0
O21 O 0.85566 0.15871 0.06065 0.0
O22 O 0.14078 0.82561 0.93062 0.0
O23 O 0.14812 0.83747 0.06629 0.0
O24 O 0.82205 0.84835 0.94268 0.0
O25 O 0.83486 0.84449 0.07861 0.0
C26 C 0.00842 0.1278 0.19441 0.0
O27 O 0.14014 0.13846 0.89976 0.0
O28 O 0.14284 0.14488 0.03596 0.0
O29 O 0.03175 0.86457 0.79518 0.0
C30 C 0.83622 0.17285 -0.00941 0.0
O31 O 0.95474 0.09154 0.79994 0.0
C32 C -0.0094 0.85835 0.19338 0.0
O33 O 0.8727 0.95064 0.80243 0.0
C34 C 0.16409 0.81535 -0.00049 0.0
O35 O 0.11474 0.02079 0.78372 0.0
C36 C 0.86212 0.0089 0.1939 0.0
O37 O 0.95686 0.13388 0.19644 0.0
O38 O 0.02806 0.10937 0.12839 0.0
C39 C 0.81165 0.82709 0.01228 0.0
O40 O 0.04237 0.85428 0.18785 0.0
O41 O 0.96452 0.8844 0.13757 0.0
C42 C 0.13937 -0.00722 0.17333 0.0
O43 O 0.85656 0.95682 0.19715 0.0
O44 O 0.88223 0.02959 0.12932 0.0
C45 C 0.15717 0.16192 0.96555 0.0
O46 O 0.1415 0.0444 0.16346 0.0
O47 O 0.10951 0.96474 0.12369 0.0
C48 C 0.9878 0.83659 0.80149 0.0
O49 O 0.97403 0.81765 0.87381 0.0
C50 C 0.98718 0.13221 0.7911 0.0
O51 O 0.98743 0.17196 0.84611 0.0
Zn52 Zn 0.40953 0.58953 0.40635 0.0
Zn53 Zn 0.41307 0.60391 0.59826 0.0
O54 O 0.46162 0.58923 0.50267 0.0
H55 H 0.49672 0.60584 0.49104 0.0
C56 C 0.33911 0.49034 0.29679 0.0
O57 O 0.30611 0.50026 0.35805 0.0
Zn58 Zn 0.58437 0.38768 0.59575 0.0
Zn59 Zn 0.57697 0.37771 0.40176 0.0
O60 O 0.53272 0.3954 0.50077 0.0
H61 H 0.49851 0.41517 0.49889 0.0
Zn62 Zn 0.37676 0.40931 0.41266 0.0
O63 O 0.3983 0.4565 0.50872 0.0
Zn64 Zn 0.38731 0.40903 0.60654 0.0
H65 H 0.4257 0.4852 0.50435 0.0
Zn66 Zn 0.59119 0.56975 0.38165 0.0
O67 O 0.57523 0.53044 0.4884 0.0
H68 H 0.54681 0.50284 0.49301 0.0
Zn69 Zn 0.59701 0.58259 0.57854 0.0
C70 C 0.66617 0.51853 0.27289 0.0
O71 O 0.69901 0.54514 0.32428 0.0
O72 O 0.35161 0.64966 0.42443 0.0
O73 O 0.35566 0.65871 0.56065 0.0
O74 O 0.64078 0.32562 0.43062 0.0
O75 O 0.64812 0.33747 0.56629 0.0
O76 O 0.32206 0.34835 0.44269 0.0
O77 O 0.33486 0.34449 0.57862 0.0
C78 C 0.50841 0.6278 0.69441 0.0
O79 O 0.64014 0.63845 0.39976 0.0
O80 O 0.64284 0.64488 0.53596 0.0
O81 O 0.53175 0.36457 0.29518 0.0
C82 C 0.33621 0.67285 0.49059 0.0
O83 O 0.45473 0.59154 0.29994 0.0
C84 C 0.4906 0.35835 0.69338 0.0
O85 O 0.3727 0.45064 0.30244 0.0
C86 C 0.66409 0.31535 0.49951 0.0
O87 O 0.61473 0.52079 0.28373 0.0
C88 C 0.36212 0.5089 0.69391 0.0
O89 O 0.45686 0.63388 0.69645 0.0
O90 O 0.52805 0.60937 0.62839 0.0
C91 C 0.31165 0.32709 0.51228 0.0
O92 O 0.54237 0.35428 0.68785 0.0
O93 O 0.46452 0.3844 0.63757 0.0
C94 C 0.63937 0.49278 0.67334 0.0
O95 O 0.35656 0.45682 0.69715 0.0
O96 O 0.38223 0.52959 0.62932 0.0
C97 C 0.65717 0.66192 0.46556 0.0
O98 O 0.6415 0.5444 0.66347 0.0
O99 O 0.60951 0.46474 0.62369 0.0
C100 C 0.4878 0.3366 0.30149 0.0
O101 O 0.47403 0.31766 0.37381 0.0
C102 C 0.48718 0.63221 0.2911 0.0
O103 O 0.48742 0.67196 0.34611 0.0
P104 P 0.3844 0.24983 0.98664 0.0
H105 H 0.37452 0.21598 0.15648 0.0
H106 H 0.41679 0.25018 0.28388 0.0
H107 H 0.48662 0.38728 0.15207 0.0
H108 H 0.44245 0.35415 0.02554 0.0
H109 H 0.31885 0.21244 0.84772 0.0
H110 H 0.2254 0.1778 0.83709 0.0
H111 H 0.19698 0.2303 0.0868 0.0
H112 H 0.29012 0.26733 0.09552 0.0
H113 H 0.49592 0.25493 0.93117 0.0
H114 H 0.33923 0.32099 0.85506 0.0
O115 O 0.40991 0.18615 -0.01134 0.0
H116 H 0.53892 0.29808 0.81409 0.0
H117 H 0.38131 0.36093 0.73422 0.0
C118 C 0.4055 0.28225 0.08152 0.0
C119 C 0.39765 0.25423 0.15547 0.0
C120 C 0.42203 0.2737 0.22814 0.0
C121 C 0.45578 0.32081 0.22745 0.0
C122 C 0.46143 0.35037 0.15402 0.0
C123 C 0.43605 0.33145 0.08165 0.0
C124 C 0.31162 0.24199 0.97259 0.0
C125 C 0.29176 0.21884 0.89892 0.0
C126 C 0.2381 0.19906 0.8929 0.0
C127 C 0.20415 0.20032 0.96174 0.0
C128 C 0.22244 0.22832 0.03296 0.0
C129 C 0.27593 0.24915 0.03827 0.0
C130 C 0.41441 0.28387 0.90079 0.0
C131 C 0.47073 0.27844 0.88869 0.0
C132 C 0.49514 0.30315 0.82153 0.0
C133 C 0.46344 0.33329 0.76453 0.0
C134 C 0.40692 0.33885 0.77719 0.0
C135 C 0.38271 0.31527 0.84591 0.0
P136 P 0.76298 0.40718 0.97301 0.0
H137 H 0.81217 0.46454 0.11345 0.0
H138 H 0.77368 0.50975 0.23266 0.0
H139 H 0.61071 0.45968 0.15279 0.0
H140 H 0.65001 0.41464 0.03212 0.0
H141 H 0.78003 0.32525 0.84595 0.0
H142 H 0.80874 0.22981 0.85219 0.0
H143 H 0.79231 0.23273 0.11627 0.0
H144 H 0.76178 0.32825 0.10888 0.0
H145 H 0.76426 0.5107 0.88789 0.0
H146 H 0.67805 0.35549 0.86479 0.0
O147 O 0.82715 0.43071 0.96476 0.0
H148 H 0.71666 0.54459 0.76665 0.0
H149 H 0.63171 0.38856 0.74007 0.0
C150 C 0.73384 0.43683 0.06358 0.0
C151 C 0.76817 0.46313 0.12145 0.0
C152 C 0.74603 0.48898 0.18983 0.0
C153 C 0.68906 0.48869 0.20198 0.0
C154 C 0.65475 0.46092 0.14489 0.0
C155 C 0.67708 0.43513 0.07606 0.0
C156 C 0.7678 0.33356 0.97674 0.0
C157 C 0.78003 0.30464 0.9048 0.0
C158 C 0.79675 0.24992 0.90857 0.0
C159 C 0.80347 0.22377 0.98489 0.0
C160 C 0.78764 0.25173 0.05651 0.0
C161 C 0.77011 0.3064 0.05241 0.0
C162 C 0.72559 0.43035 0.88416 0.0
C163 C 0.73539 0.48369 0.85603 0.0
C164 C 0.70811 0.50286 0.78638 0.0
C165 C 0.67029 0.46901 0.74323 0.0
C166 C 0.66045 0.41541 0.77165 0.0
C167 C 0.68719 0.3965 0.84277 0.0
P168 P 0.64753 0.6366 0.00833 0.0
H169 H 0.67587 0.63797 0.83488 0.0
H170 H 0.62026 0.63975 0.70813 0.0
H171 H 0.47282 0.63568 0.85132 0.0
H172 H 0.52759 0.63986 0.97652 0.0
H173 H 0.73955 0.66442 0.1186 0.0
H174 H 0.80589 0.74127 0.12141 0.0
H175 H 0.72359 0.81261 0.91073 0.0
H176 H 0.65654 0.73822 0.91075 0.0
H177 H 0.57858 0.55019 0.0747 0.0
H178 H 0.61716 0.71994 0.13125 0.0
O179 O 0.68478 0.57911 0.00776 0.0
H180 H 0.51223 0.54845 0.18556 0.0
H181 H 0.55177 0.71828 0.24324 0.0
C182 C 0.60618 0.63777 0.91545 0.0
C183 C 0.63153 0.63767 0.83878 0.0
C184 C 0.59982 0.63786 0.76645 0.0
C185 C 0.54234 0.63534 0.76967 0.0
C186 C 0.51709 0.63697 0.84658 0.0
C187 C 0.54867 0.63867 0.91871 0.0
C188 C 0.69399 0.69469 0.01313 0.0
C189 C 0.73577 0.69688 0.07341 0.0
C190 C 0.77351 0.74072 0.07506 0.0
C191 C 0.77042 0.7823 0.01532 0.0
C192 C 0.72764 0.78055 0.95652 0.0
C193 C 0.6893 0.73768 0.95627 0.0
C194 C 0.60361 0.63474 0.09599 0.0
C195 C 0.57336 0.58679 0.11196 0.0
C196 C 0.53489 0.58613 0.17457 0.0
C197 C 0.52654 0.63332 0.22299 0.0
C198 C 0.55732 0.68121 0.20715 0.0
C199 C 0.59513 0.68208 0.14353 0.0
P200 P 0.34819 0.64652 0.00585 0.0
H201 H 0.35148 0.67611 0.83292 0.0
H202 H 0.35232 0.62143 0.70678 0.0
H203 H 0.34656 0.47209 0.84951 0.0
H204 H 0.33899 0.5263 0.97373 0.0
H205 H 0.32473 0.74127 0.11022 0.0
H206 H 0.25059 0.80954 0.10875 0.0
H207 H 0.17715 0.72799 0.89755 0.0
H208 H 0.24892 0.65893 0.90187 0.0
H209 H 0.4247 0.56597 0.07085 0.0
H210 H 0.26548 0.6289 0.1339 0.0
O211 O 0.40751 0.68118 0.00942 0.0
H212 H 0.41975 0.50003 0.1836 0.0
H213 H 0.26195 0.56566 0.24999 0.0
C214 C 0.3468 0.60556 0.91327 0.0
C215 C 0.34999 0.63157 0.83686 0.0
C216 C 0.35129 0.60028 0.76479 0.0
C217 C 0.35252 0.54252 0.76816 0.0
C218 C 0.34696 0.51662 0.84463 0.0
C219 C 0.34342 0.54786 0.91635 0.0
C220 C 0.29315 0.69578 0.00505 0.0
C221 C 0.29256 0.73823 0.06373 0.0
C222 C 0.25029 0.77708 0.06288 0.0
C223 C 0.20874 0.77453 0.00213 0.0
C224 C 0.20928 0.73162 0.94405 0.0
C225 C 0.25057 0.69208 0.94637 0.0
C226 C 0.34572 0.60255 0.09437 0.0
C227 C 0.38907 0.56612 0.1098 0.0
C228 C 0.38597 0.5282 0.17376 0.0
C229 C 0.3405 0.52781 0.2257 0.0
C230 C 0.29755 0.56512 0.21104 0.0
C231 C 0.29977 0.60166 0.14505 0.0
P232 P 0.8844 0.74982 0.48663 0.0
H233 H 0.87451 0.71598 0.65647 0.0
H234 H 0.91679 0.75017 0.78388 0.0
H235 H 0.98662 0.88727 0.65207 0.0
H236 H 0.94244 0.85415 0.52554 0.0
H237 H 0.81884 0.71243 0.34771 0.0
H238 H 0.7254 0.67779 0.33709 0.0
H239 H 0.69697 0.73029 0.5868 0.0
H240 H 0.79012 0.76733 0.59552 0.0
H241 H -0.00408 0.75493 0.43117 0.0
H242 H 0.83923 0.82099 0.35506 0.0
O243 O 0.90991 0.68615 0.48865 0.0
H244 H 0.03892 0.79808 0.31409 0.0
H245 H 0.88131 0.86093 0.23421 0.0
C246 C 0.9055 0.78225 0.58152 0.0
C247 C 0.89765 0.75423 0.65547 0.0
C248 C 0.92202 0.7737 0.72814 0.0
C249 C 0.95578 0.82081 0.72744 0.0
C250 C 0.96143 0.85036 0.65402 0.0
C251 C 0.93605 0.83145 0.58165 0.0
C252 C 0.81161 0.74199 0.47259 0.0
C253 C 0.79176 0.71884 0.39892 0.0
C254 C 0.7381 0.69905 0.3929 0.0
C255 C 0.70415 0.70031 0.46174 0.0
C256 C 0.72244 0.72831 0.53296 0.0
C257 C 0.77593 0.74914 0.53826 0.0
C258 C 0.91441 0.78386 0.40079 0.0
C259 C 0.97073 0.77844 0.38869 0.0
C260 C -0.00486 0.80315 0.32153 0.0
C261 C 0.96344 0.83329 0.26452 0.0
C262 C 0.90692 0.83885 0.27719 0.0
C263 C 0.88271 0.81527 0.34591 0.0
P264 P 0.26298 0.90718 0.473 0.0
H265 H 0.31217 0.96457 0.61342 0.0
H266 H 0.27368 0.00979 0.73263 0.0
H267 H 0.11072 0.95967 0.65279 0.0
H268 H 0.15002 0.91463 0.53213 0.0
H269 H 0.28002 0.82524 0.34595 0.0
H270 H 0.30873 0.72981 0.3522 0.0
H271 H 0.29231 0.73273 0.61628 0.0
H272 H 0.26178 0.82826 0.60888 0.0
H273 H 0.26427 0.01069 0.38787 0.0
H274 H 0.17804 0.8555 0.3648 0.0
O275 O 0.32716 0.93071 0.46475 0.0
H276 H 0.21668 0.04458 0.26663 0.0
H277 H 0.1317 0.88857 0.24008 0.0
C278 C 0.23385 0.93684 0.56357 0.0
C279 C 0.26817 0.96316 0.62143 0.0
C280 C 0.24603 0.989 0.68981 0.0
C281 C 0.18907 0.98871 0.70196 0.0
C282 C 0.15476 0.96092 0.64488 0.0
C283 C 0.17709 0.93513 0.57606 0.0
C284 C 0.2678 0.83356 0.47674 0.0
C285 C 0.28002 0.80464 0.4048 0.0
C286 C 0.29674 0.74992 0.40857 0.0
C287 C 0.30347 0.72378 0.48489 0.0
C288 C 0.28765 0.75173 0.55651 0.0
C289 C 0.27011 0.8064 0.55241 0.0
C290 C 0.2256 0.93035 0.38415 0.0
C291 C 0.2354 0.98369 0.35601 0.0
C292 C 0.20812 0.00286 0.28636 0.0
C293 C 0.17029 0.96901 0.24323 0.0
C294 C 0.16045 0.91542 0.27165 0.0
C295 C 0.18719 0.8965 0.34277 0.0
P296 P 0.14754 0.1366 0.50833 0.0
H297 H 0.17587 0.13797 0.33488 0.0
H298 H 0.12026 0.13974 0.20813 0.0
H299 H 0.97282 0.13568 0.35131 0.0
H300 H 0.02759 0.13986 0.47652 0.0
H301 H 0.23955 0.16442 0.61859 0.0
H302 H 0.3059 0.24127 0.62141 0.0
H303 H 0.22359 0.31261 0.41073 0.0
H304 H 0.15655 0.23822 0.41074 0.0
H305 H 0.07859 0.05019 0.5747 0.0
H306 H 0.11717 0.21994 0.63125 0.0
O307 O 0.18479 0.07911 0.50776 0.0
H308 H 0.01223 0.04844 0.68556 0.0
H309 H 0.05178 0.21828 0.74324 0.0
C310 C 0.10618 0.13777 0.41545 0.0
C311 C 0.13154 0.13767 0.33878 0.0
C312 C 0.09983 0.13786 0.26644 0.0
C313 C 0.04234 0.13534 0.26967 0.0
C314 C 0.01709 0.13697 0.34658 0.0
C315 C 0.04867 0.13867 0.4187 0.0
C316 C 0.19399 0.19469 0.51313 0.0
C317 C 0.23577 0.19688 0.57341 0.0
C318 C 0.27351 0.24072 0.57506 0.0
C319 C 0.27043 0.28229 0.51532 0.0
C320 C 0.22764 0.28055 0.45651 0.0
C321 C 0.1893 0.23768 0.45627 0.0
C322 C 0.10361 0.13473 0.59599 0.0
C323 C 0.07336 0.08679 0.61196 0.0
C324 C 0.03489 0.08613 0.67456 0.0
C325 C 0.02654 0.13331 0.72299 0.0
C326 C 0.05733 0.18121 0.70714 0.0
C327 C 0.09513 0.18208 0.64353 0.0
P328 P 0.84819 0.14652 0.50584 0.0
H329 H 0.85148 0.17611 0.33292 0.0
H330 H 0.85232 0.12143 0.20678 0.0
H331 H 0.84656 0.97209 0.34951 0.0
H332 H 0.83899 0.0263 0.47373 0.0
H333 H 0.82473 0.24127 0.61022 0.0
H334 H 0.75059 0.30954 0.60875 0.0
H335 H 0.67715 0.228 0.39755 0.0
H336 H 0.74893 0.15893 0.40186 0.0
H337 H 0.9247 0.06597 0.57085 0.0
H338 H 0.76548 0.1289 0.6339 0.0
O339 O 0.90751 0.18118 0.50942 0.0
H340 H 0.91975 3e-05 0.6836 0.0
H341 H 0.76195 0.06566 0.74999 0.0
C342 C 0.8468 0.10556 0.41326 0.0
C343 C 0.84999 0.13157 0.33686 0.0
C344 C 0.85129 0.10028 0.26478 0.0
C345 C 0.85252 0.04252 0.26816 0.0
C346 C 0.84696 0.01662 0.34463 0.0
C347 C 0.84342 0.04786 0.41635 0.0
C348 C 0.79315 0.19578 0.50505 0.0
C349 C 0.79256 0.23823 0.56373 0.0
C350 C 0.75029 0.27708 0.56288 0.0
C351 C 0.70874 0.27453 0.50213 0.0
C352 C 0.70928 0.23162 0.44405 0.0
C353 C 0.75057 0.19209 0.44636 0.0
C354 C 0.84572 0.10255 0.59437 0.0
C355 C 0.88907 0.06612 0.6098 0.0
C356 C 0.88597 0.0282 0.67376 0.0
C357 C 0.8405 0.02781 0.72569 0.0
C358 C 0.79755 0.06512 0.71104 0.0
C359 C 0.79977 0.10166 0.64505 0.0
loop_
_geom_bond_atom_site_label_1
_geom_bond_atom_site_label_2
_geom_bond_distance
_geom_bond_site_symmetry_2
_ccdc_geom_bond_type
Zn0 O2 1.933 1_556 S
Zn0 O20 1.985 . S
Zn0 O31 1.955 . S
Zn1 O2 1.911 . S
Zn1 O21 1.970 . S
Zn1 O37 1.945 . S
Zn1 O44 1.981 . S
O2 Zn0 1.933 1_554 S
O2 Zn1 1.911 . S
O2 H3 0.842 1_655 S
H3 O2 0.842 1_455 S
C4 O5 1.246 . S
C4 O33 1.276 1_545 S
O5 C4 1.246 . S
Zn6 O8 1.911 . S
Zn6 O23 1.970 . S
Zn6 O40 1.945 . S
Zn6 O47 1.981 . S
Zn7 O8 1.933 1_556 S
Zn7 O22 1.985 . S
Zn7 O29 1.955 . S
O8 Zn6 1.911 . S
O8 Zn7 1.933 1_554 S
O8 H9 0.841 1_455 S
H9 O8 0.841 1_655 S
Zn10 O11 1.933 1_556 S
Zn10 O24 1.985 . S
Zn10 O33 1.955 . S
O11 Zn10 1.933 1_554 S
O11 Zn12 1.911 . S
O11 H13 0.841 1_565 S
Zn12 O11 1.911 . S
Zn12 O25 1.970 . S
Zn12 O41 1.981 . S
Zn12 O43 1.945 . S
H13 O11 0.841 1_545 S
Zn14 O15 1.933 1_556 S
Zn14 O27 1.985 . S
Zn14 O35 1.955 . S
O15 Zn14 1.933 1_554 S
O15 H16 0.841 1_545 S
O15 Zn17 1.911 . S
H16 O15 0.841 1_565 S
Zn17 O15 1.911 . S
Zn17 O28 1.970 . S
Zn17 O38 1.981 . S
Zn17 O46 1.945 . S
C18 O19 1.246 . S
C18 O35 1.276 1_565 S
O19 C18 1.246 . S
O20 Zn0 1.985 . S
O20 C30 1.245 1_556 S
O21 Zn1 1.970 . S
O21 C30 1.263 . S
O22 Zn7 1.985 . S
O22 C34 1.245 1_556 S
O23 Zn6 1.970 . S
O23 C34 1.263 . S
O24 Zn10 1.985 . S
O24 C39 1.245 1_556 S
O25 Zn12 1.970 . S
O25 C39 1.263 . S
C26 O37 1.262 1_455 S
C26 O38 1.245 . S
O27 Zn14 1.985 . S
O27 C45 1.245 1_556 S
O28 Zn17 1.970 . S
O28 C45 1.263 . S
O29 Zn7 1.955 . S
O29 C48 1.276 1_455 S
C30 O20 1.245 1_554 S
C30 O21 1.263 . S
O31 Zn0 1.955 . S
O31 C50 1.276 1_655 S
C32 O40 1.262 1_655 S
C32 O41 1.245 . S
O33 C4 1.276 1_565 S
O33 Zn10 1.955 . S
C34 O22 1.245 1_554 S
C34 O23 1.263 . S
O35 Zn14 1.955 . S
O35 C18 1.276 1_545 S
C36 O43 1.262 1_545 S
C36 O44 1.245 . S
O37 Zn1 1.945 . S
O37 C26 1.262 1_655 S
O38 Zn17 1.981 . S
O38 C26 1.245 . S
C39 O24 1.245 1_554 S
C39 O25 1.263 . S
O40 Zn6 1.945 . S
O40 C32 1.262 1_455 S
O41 Zn12 1.981 . S
O41 C32 1.245 . S
C42 O46 1.262 1_565 S
C42 O47 1.245 . S
O43 Zn12 1.945 . S
O43 C36 1.262 1_565 S
O44 Zn1 1.981 . S
O44 C36 1.245 . S
C45 O27 1.245 1_554 S
C45 O28 1.263 . S
O46 Zn17 1.945 . S
O46 C42 1.262 1_545 S
O47 Zn6 1.981 . S
O47 C42 1.245 . S
C48 O29 1.276 1_655 S
C48 O49 1.246 . S
O49 C48 1.246 . S
C50 O31 1.276 1_455 S
C50 O51 1.246 . S
O51 C50 1.246 . S
Zn52 O54 1.933 . S
Zn52 O72 1.985 . S
Zn52 O83 1.955 . S
Zn53 O54 1.911 . S
Zn53 O73 1.970 . S
Zn53 O89 1.945 . S
Zn53 O96 1.981 . S
O54 Zn52 1.933 . S
O54 Zn53 1.911 . S
O54 H55 0.841 . S
H55 O54 0.841 . S
C56 O57 1.246 . S
C56 O85 1.276 . S
O57 C56 1.246 . S
Zn58 O60 1.911 . S
Zn58 O75 1.970 . S
Zn58 O92 1.945 . S
Zn58 O99 1.981 . S
Zn59 O60 1.933 . S
Zn59 O74 1.985 . S
Zn59 O81 1.955 . S
O60 Zn58 1.911 . S
O60 Zn59 1.933 . S
O60 H61 0.841 . S
H61 O60 0.841 . S
Zn62 O63 1.933 . S
Zn62 O76 1.985 . S
Zn62 O85 1.955 . S
O63 Zn62 1.933 . S
O63 Zn64 1.911 . S
O63 H65 0.841 . S
Zn64 O63 1.911 . S
Zn64 O77 1.970 . S
Zn64 O93 1.981 . S
Zn64 O95 1.945 . S
H65 O63 0.841 . S
Zn66 O67 1.933 . S
Zn66 O79 1.985 . S
Zn66 O87 1.955 . S
O67 Zn66 1.933 . S
O67 H68 0.841 . S
O67 Zn69 1.911 . S
H68 O67 0.841 . S
Zn69 O67 1.911 . S
Zn69 O80 1.970 . S
Zn69 O90 1.981 . S
Zn69 O98 1.945 . S
C70 O71 1.246 . S
C70 O87 1.276 . S
O71 C70 1.246 . S
O72 Zn52 1.985 . S
O72 C82 1.245 . S
O73 Zn53 1.970 . S
O73 C82 1.263 . S
O74 Zn59 1.985 . S
O74 C86 1.245 . S
O75 Zn58 1.970 . S
O75 C86 1.263 . S
O76 Zn62 1.985 . S
O76 C91 1.245 . S
O77 Zn64 1.970 . S
O77 C91 1.263 . S
C78 O89 1.262 . S
C78 O90 1.245 . S
O79 Zn66 1.985 . S
O79 C97 1.245 . S
O80 Zn69 1.970 . S
O80 C97 1.263 . S
O81 Zn59 1.955 . S
O81 C100 1.276 . S
C82 O72 1.245 . S
C82 O73 1.263 . S
O83 Zn52 1.955 . S
O83 C102 1.276 . S
C84 O92 1.262 . S
C84 O93 1.245 . S
O85 C56 1.276 . S
O85 Zn62 1.955 . S
C86 O74 1.245 . S
C86 O75 1.263 . S
O87 Zn66 1.955 . S
O87 C70 1.276 . S
C88 O95 1.262 . S
C88 O96 1.245 . S
O89 Zn53 1.945 . S
O89 C78 1.262 . S
O90 Zn69 1.981 . S
O90 C78 1.245 . S
C91 O76 1.245 . S
C91 O77 1.263 . S
O92 Zn58 1.945 . S
O92 C84 1.262 . S
O93 Zn64 1.981 . S
O93 C84 1.245 . S
C94 O98 1.262 . S
C94 O99 1.245 . S
O95 Zn64 1.945 . S
O95 C88 1.262 . S
O96 Zn53 1.981 . S
O96 C88 1.245 . S
C97 O79 1.245 . S
C97 O80 1.263 . S
O98 Zn69 1.945 . S
O98 C94 1.262 . S
O99 Zn58 1.981 . S
O99 C94 1.245 . S
C100 O81 1.276 . S
C100 O101 1.246 . S
O101 C100 1.246 . S
C102 O83 1.276 . S
C102 O103 1.246 . S
O103 C102 1.246 . S
P104 O115 1.490 . S
P104 C118 1.812 . S
P104 C124 1.803 . S
P104 C130 1.819 1_554 S
H105 C119 0.941 . S
H106 C120 0.939 . S
H107 C122 0.940 . S
H108 C123 0.940 . S
H109 C125 0.939 . S
H110 C126 0.942 . S
H111 C128 0.940 . S
H112 C129 0.939 . S
H113 C131 0.941 . S
H114 C135 0.939 . S
O115 P104 1.490 . S
H116 C132 0.939 . S
H117 C134 0.940 . S
C118 P104 1.812 . S
C118 C119 1.389 . S
C118 C123 1.391 . S
C119 H105 0.941 . S
C119 C118 1.389 . S
C119 C120 1.397 . S
C120 H106 0.939 . S
C120 C119 1.397 . S
C120 C121 1.378 . S
C121 C120 1.378 . S
C121 C122 1.378 . S
C122 H107 0.940 . S
C122 C121 1.378 . S
C122 C123 1.396 . S
C123 H108 0.940 . S
C123 C118 1.391 . S
C123 C122 1.396 . S
C124 P104 1.803 . S
C124 C125 1.378 1_554 S
C124 C129 1.400 . S
C125 H109 0.939 . S
C125 C124 1.378 1_556 S
C125 C126 1.361 . S
C126 H110 0.942 . S
C126 C125 1.361 . S
C126 C127 1.369 1_556 S
C127 C126 1.369 1_554 S
C127 C128 1.404 . S
C128 H111 0.940 . S
C128 C127 1.404 . S
C128 C129 1.389 . S
C129 H112 0.939 . S
C129 C124 1.400 . S
C129 C128 1.389 . S
C130 P104 1.819 1_556 S
C130 C131 1.391 . S
C130 C135 1.391 . S
C131 H113 0.941 . S
C131 C130 1.391 . S
C131 C132 1.396 . S
C132 H116 0.939 . S
C132 C131 1.396 . S
C132 C133 1.397 . S
C133 C132 1.397 . S
C133 C134 1.385 . S
C134 H117 0.940 . S
C134 C133 1.385 . S
C134 C135 1.388 . S
C135 H114 0.939 . S
C135 C130 1.391 . S
C135 C134 1.388 . S
P136 O147 1.490 . S
P136 C150 1.812 . S
P136 C156 1.803 . S
P136 C162 1.819 1_554 S
H137 C151 0.941 . S
H138 C152 0.939 . S
H139 C154 0.940 . S
H140 C155 0.940 . S
H141 C157 0.939 . S
H142 C158 0.942 . S
H143 C160 0.940 . S
H144 C161 0.939 . S
H145 C163 0.941 . S
H146 C167 0.939 . S
O147 P136 1.490 . S
H148 C164 0.939 . S
H149 C166 0.940 . S
C150 P136 1.812 . S
C150 C151 1.389 . S
C150 C155 1.391 . S
C151 H137 0.941 . S
C151 C150 1.389 . S
C151 C152 1.397 . S
C152 H138 0.939 . S
C152 C151 1.397 . S
C152 C153 1.378 . S
C153 C152 1.378 . S
C153 C154 1.378 . S
C154 H139 0.940 . S
C154 C153 1.378 . S
C154 C155 1.396 . S
C155 H140 0.940 . S
C155 C150 1.391 . S
C155 C154 1.396 . S
C156 P136 1.803 . S
C156 C157 1.378 1_554 S
C156 C161 1.400 . S
C157 H141 0.939 . S
C157 C156 1.378 1_556 S
C157 C158 1.361 . S
C158 H142 0.942 . S
C158 C157 1.361 . S
C158 C159 1.369 1_556 S
C159 C158 1.369 1_554 S
C159 C160 1.404 . S
C160 H143 0.940 . S
C160 C159 1.404 . S
C160 C161 1.389 . S
C161 H144 0.939 . S
C161 C156 1.400 . S
C161 C160 1.389 . S
C162 P136 1.819 1_556 S
C162 C163 1.391 . S
C162 C167 1.391 . S
C163 H145 0.941 . S
C163 C162 1.391 . S
C163 C164 1.396 . S
C164 H148 0.939 . S
C164 C163 1.396 . S
C164 C165 1.397 . S
C165 C164 1.397 . S
C165 C166 1.385 . S
C166 H149 0.940 . S
C166 C165 1.385 . S
C166 C167 1.388 . S
C167 H146 0.939 . S
C167 C162 1.391 . S
C167 C166 1.388 . S
P168 O179 1.489 1_554 S
P168 C182 1.801 1_554 S
P168 C188 1.803 1_554 S
P168 C194 1.830 . S
H169 C183 0.941 . S
H170 C184 0.939 . S
H171 C186 0.940 . S
H172 C187 0.940 . S
H173 C189 0.939 . S
H174 C190 0.942 . S
H175 C192 0.940 . S
H176 C193 0.939 . S
H177 C195 0.941 . S
H178 C199 0.939 . S
O179 P168 1.489 1_556 S
H180 C196 0.939 . S
H181 C198 0.940 . S
C182 P168 1.801 1_556 S
C182 C183 1.389 . S
C182 C187 1.391 . S
C183 H169 0.941 . S
C183 C182 1.389 . S
C183 C184 1.397 . S
C184 H170 0.939 . S
C184 C183 1.397 . S
C184 C185 1.378 . S
C185 C184 1.378 . S
C185 C186 1.378 . S
C186 H171 0.940 . S
C186 C185 1.378 . S
C186 C187 1.396 . S
C187 H172 0.940 . S
C187 C182 1.391 . S
C187 C186 1.396 . S
C188 P168 1.803 1_556 S
C188 C189 1.374 1_556 S
C188 C193 1.404 . S
C189 H173 0.939 . S
C189 C188 1.374 1_554 S
C189 C190 1.361 . S
C190 H174 0.942 . S
C190 C189 1.361 . S
C190 C191 1.369 . S
C191 C190 1.369 . S
C191 C192 1.404 1_554 S
C192 H175 0.940 . S
C192 C191 1.404 1_556 S
C192 C193 1.389 . S
C193 H176 0.939 . S
C193 C188 1.404 . S
C193 C192 1.389 . S
C194 P168 1.830 . S
C194 C195 1.391 . S
C194 C199 1.391 . S
C195 H177 0.941 . S
C195 C194 1.391 . S
C195 C196 1.396 . S
C196 H180 0.939 . S
C196 C195 1.396 . S
C196 C197 1.397 . S
C197 C196 1.397 . S
C197 C198 1.385 . S
C198 H181 0.940 . S
C198 C197 1.385 . S
C198 C199 1.388 . S
C199 H178 0.939 . S
C199 C194 1.391 . S
C199 C198 1.388 . S
P200 O211 1.489 1_554 S
P200 C214 1.804 1_554 S
P200 C220 1.803 1_554 S
P200 C226 1.826 . S
H201 C215 0.941 . S
H202 C216 0.939 . S
H203 C218 0.940 . S
H204 C219 0.940 . S
H205 C221 0.939 . S
H206 C222 0.942 . S
H207 C224 0.940 . S
H208 C225 0.939 . S
H209 C227 0.941 . S
H210 C231 0.939 . S
O211 P200 1.489 1_556 S
H212 C228 0.939 . S
H213 C230 0.940 . S
C214 P200 1.804 1_556 S
C214 C215 1.389 . S
C214 C219 1.391 . S
C215 H201 0.941 . S
C215 C214 1.389 . S
C215 C216 1.397 . S
C216 H202 0.939 . S
C216 C215 1.397 . S
C216 C217 1.378 . S
C217 C216 1.378 . S
C217 C218 1.378 . S
C218 H203 0.940 . S
C218 C217 1.378 . S
C218 C219 1.396 . S
C219 H204 0.940 . S
C219 C214 1.391 . S
C219 C218 1.396 . S
C220 P200 1.803 1_556 S
C220 C221 1.377 1_556 S
C220 C225 1.401 . S
C221 H205 0.939 . S
C221 C220 1.377 1_554 S
C221 C222 1.361 . S
C222 H206 0.942 . S
C222 C221 1.361 . S
C222 C223 1.369 . S
C223 C222 1.369 . S
C223 C224 1.404 1_554 S
C224 H207 0.940 . S
C224 C223 1.404 1_556 S
C224 C225 1.389 . S
C225 H208 0.939 . S
C225 C220 1.401 . S
C225 C224 1.389 . S
C226 P200 1.826 . S
C226 C227 1.391 . S
C226 C231 1.391 . S
C227 H209 0.941 . S
C227 C226 1.391 . S
C227 C228 1.396 . S
C228 H212 0.939 . S
C228 C227 1.396 . S
C228 C229 1.397 . S
C229 C228 1.397 . S
C229 C230 1.385 . S
C230 H213 0.940 . S
C230 C229 1.385 . S
C230 C231 1.388 . S
C231 H210 0.939 . S
C231 C226 1.391 . S
C231 C230 1.388 . S
P232 O243 1.490 . S
P232 C246 1.812 . S
P232 C252 1.803 . S
P232 C258 1.819 . S
H233 C247 0.941 . S
H234 C248 0.939 1_455 S
H235 C250 0.940 . S
H236 C251 0.940 . S
H237 C253 0.939 . S
H238 C254 0.942 . S
H239 C256 0.940 . S
H240 C257 0.939 . S
H241 C259 0.941 . S
H242 C263 0.939 . S
O243 P232 1.490 . S
H244 C260 0.939 . S
H245 C262 0.940 . S
C246 P232 1.812 . S
C246 C247 1.389 . S
C246 C251 1.391 . S
C247 H233 0.941 . S
C247 C246 1.389 . S
C247 C248 1.397 . S
C248 H234 0.939 1_655 S
C248 C247 1.397 . S
C248 C249 1.378 . S
C249 C248 1.378 . S
C249 C250 1.378 . S
C250 H235 0.940 . S
C250 C249 1.378 . S
C250 C251 1.396 . S
C251 H236 0.940 . S
C251 C246 1.391 . S
C251 C250 1.396 . S
C252 P232 1.803 . S
C252 C253 1.378 . S
C252 C257 1.400 . S
C253 H237 0.939 . S
C253 C252 1.378 . S
C253 C254 1.361 . S
C254 H238 0.942 . S
C254 C253 1.361 . S
C254 C255 1.369 . S
C255 C254 1.369 . S
C255 C256 1.404 . S
C256 H239 0.940 . S
C256 C255 1.404 . S
C256 C257 1.389 . S
C257 H240 0.939 . S
C257 C252 1.400 . S
C257 C256 1.389 . S
C258 P232 1.819 . S
C258 C259 1.391 1_655 S
C258 C263 1.391 . S
C259 H241 0.941 . S
C259 C258 1.391 1_455 S
C259 C260 1.396 . S
C260 H244 0.939 . S
C260 C259 1.396 . S
C260 C261 1.397 1_455 S
C261 C260 1.397 1_655 S
C261 C262 1.385 . S
C262 H245 0.940 . S
C262 C261 1.385 . S
C262 C263 1.388 . S
C263 H242 0.939 . S
C263 C258 1.391 . S
C263 C262 1.388 . S
P264 O275 1.490 . S
P264 C278 1.812 . S
P264 C284 1.803 . S
P264 C290 1.819 . S
H265 C279 0.941 . S
H266 C280 0.939 1_545 S
H267 C282 0.940 . S
H268 C283 0.940 . S
H269 C285 0.939 . S
H270 C286 0.942 . S
H271 C288 0.940 . S
H272 C289 0.939 . S
H273 C291 0.941 . S
H274 C295 0.939 . S
O275 P264 1.490 . S
H276 C292 0.939 . S
H277 C294 0.940 . S
C278 P264 1.812 . S
C278 C279 1.389 . S
C278 C283 1.391 . S
C279 H265 0.941 . S
C279 C278 1.389 . S
C279 C280 1.397 . S
C280 H266 0.939 1_565 S
C280 C279 1.397 . S
C280 C281 1.378 . S
C281 C280 1.378 . S
C281 C282 1.378 . S
C282 H267 0.940 . S
C282 C281 1.378 . S
C282 C283 1.396 . S
C283 H268 0.940 . S
C283 C278 1.391 . S
C283 C282 1.396 . S
C284 P264 1.803 . S
C284 C285 1.378 . S
C284 C289 1.400 . S
C285 H269 0.939 . S
C285 C284 1.378 . S
C285 C286 1.361 . S
C286 H270 0.942 . S
C286 C285 1.361 . S
C286 C287 1.369 . S
C287 C286 1.369 . S
C287 C288 1.404 . S
C288 H271 0.940 . S
C288 C287 1.404 . S
C288 C289 1.389 . S
C289 H272 0.939 . S
C289 C284 1.400 . S
C289 C288 1.389 . S
C290 P264 1.819 . S
C290 C291 1.391 1_565 S
C290 C295 1.391 . S
C291 H273 0.941 . S
C291 C290 1.391 1_545 S
C291 C292 1.396 . S
C292 H276 0.939 . S
C292 C291 1.396 . S
C292 C293 1.397 1_545 S
C293 C292 1.397 1_565 S
C293 C294 1.385 . S
C294 H277 0.940 . S
C294 C293 1.385 . S
C294 C295 1.388 . S
C295 H274 0.939 . S
C295 C290 1.391 . S
C295 C294 1.388 . S
P296 O307 1.490 . S
P296 C310 1.812 . S
P296 C316 1.803 . S
P296 C322 1.819 . S
H297 C311 0.941 . S
H298 C312 0.939 . S
H299 C314 0.940 1_655 S
H300 C315 0.940 . S
H301 C317 0.939 . S
H302 C318 0.942 . S
H303 C320 0.940 . S
H304 C321 0.939 . S
H305 C323 0.941 . S
H306 C327 0.939 . S
O307 P296 1.490 . S
H308 C324 0.939 . S
H309 C326 0.940 . S
C310 P296 1.812 . S
C310 C311 1.389 . S
C310 C315 1.391 . S
C311 H297 0.941 . S
C311 C310 1.389 . S
C311 C312 1.397 . S
C312 H298 0.939 . S
C312 C311 1.397 . S
C312 C313 1.378 . S
C313 C312 1.378 . S
C313 C314 1.378 . S
C314 H299 0.940 1_455 S
C314 C313 1.378 . S
C314 C315 1.396 . S
C315 H300 0.940 . S
C315 C310 1.391 . S
C315 C314 1.396 . S
C316 P296 1.803 . S
C316 C317 1.378 . S
C316 C321 1.400 . S
C317 H301 0.939 . S
C317 C316 1.378 . S
C317 C318 1.361 . S
C318 H302 0.942 . S
C318 C317 1.361 . S
C318 C319 1.369 . S
C319 C318 1.369 . S
C319 C320 1.404 . S
C320 H303 0.940 . S
C320 C319 1.404 . S
C320 C321 1.389 . S
C321 H304 0.939 . S
C321 C316 1.400 . S
C321 C320 1.389 . S
C322 P296 1.819 . S
C322 C323 1.391 . S
C322 C327 1.391 . S
C323 H305 0.941 . S
C323 C322 1.391 . S
C323 C324 1.396 . S
C324 H308 0.939 . S
C324 C323 1.396 . S
C324 C325 1.397 . S
C325 C324 1.397 . S
C325 C326 1.385 . S
C326 H309 0.940 . S
C326 C325 1.385 . S
C326 C327 1.388 . S
C327 H306 0.939 . S
C327 C322 1.391 . S
C327 C326 1.388 . S
P328 O339 1.490 . S
P328 C342 1.812 . S
P328 C348 1.803 . S
P328 C354 1.819 . S
H329 C343 0.941 . S
H330 C344 0.939 . S
H331 C346 0.940 1_565 S
H332 C347 0.940 . S
H333 C349 0.939 . S
H334 C350 0.942 . S
H335 C352 0.940 . S
H336 C353 0.939 . S
H337 C355 0.941 . S
H338 C359 0.939 . S
O339 P328 1.490 . S
H340 C356 0.939 . S
H341 C358 0.940 . S
C342 P328 1.812 . S
C342 C343 1.389 . S
C342 C347 1.391 . S
C343 H329 0.941 . S
C343 C342 1.389 . S
C343 C344 1.397 . S
C344 H330 0.939 . S
C344 C343 1.397 . S
C344 C345 1.378 . S
C345 C344 1.378 . S
C345 C346 1.378 . S
C346 H331 0.940 1_545 S
C346 C345 1.378 . S
C346 C347 1.396 . S
C347 H332 0.940 . S
C347 C342 1.391 . S
C347 C346 1.396 . S
C348 P328 1.803 . S
C348 C349 1.378 . S
C348 C353 1.400 . S
C349 H333 0.939 . S
C349 C348 1.378 . S
C349 C350 1.361 . S
C350 H334 0.942 . S
C350 C349 1.361 . S
C350 C351 1.369 . S
C351 C350 1.369 . S
C351 C352 1.404 . S
C352 H335 0.940 . S
C352 C351 1.404 . S
C352 C353 1.389 . S
C353 H336 0.939 . S
C353 C348 1.400 . S
C353 C352 1.389 . S
C354 P328 1.819 . S
C354 C355 1.391 . S
C354 C359 1.391 . S
C355 H337 0.941 . S
C355 C354 1.391 . S
C355 C356 1.396 . S
C356 H340 0.939 . S
C356 C355 1.396 . S
C356 C357 1.397 . S
C357 C356 1.397 . S
C357 C358 1.385 . S
C358 H341 0.940 . S
C358 C357 1.385 . S
C358 C359 1.388 . S
C359 H338 0.939 . S
C359 C354 1.391 . S
C359 C358 1.388 . S
C45 C127 1.859 . S
C30 C159 1.859 . S
C39 C191 1.552 . S
C223 C34 1.552 . S
C97 C255 1.859 . S
C287 C82 1.859 . S
C319 C91 1.553 . S
C351 C86 1.552 . S
C313 C26 1.370 . S
C345 C36 1.369 . S
C261 C32 1.648 . S
C293 C42 1.658 . S
C18 C281 1.793 . S
C325 C50 1.495 . S
C4 C357 1.499 . S
C48 C249 1.805 . S
C185 C78 1.370 . S
C88 C217 1.369 . S
C133 C84 1.648 . S
C165 C94 1.658 . S
C153 C70 1.793 . S
C197 C102 1.495 . S
C56 C229 1.499 . S
C100 C121 1.805 . S
