# Generated by pormake.
# Topology ctn, (3,4)-cn, num edge types: 1
# Building blocks:
#     Node 0, Type 0, BuildingBlock: VETTIZ_charged_linker_0, # of connection points: 3
#     Node 1, Type 0, BuildingBlock: VETTIZ_charged_linker_0, # of connection points: 3
#     Node 2, Type 0, BuildingBlock: VETTIZ_charged_linker_0, # of connection points: 3
#     Node 3, Type 0, BuildingBlock: VETTIZ_charged_linker_0, # of connection points: 3
#     Node 4, Type 0, BuildingBlock: VETTIZ_charged_linker_0, # of connection points: 3
#     Node 5, Type 0, BuildingBlock: VETTIZ_charged_linker_0, # of connection points: 3
#     Node 6, Type 0, BuildingBlock: VETTIZ_charged_linker_0, # of connection points: 3
#     Node 7, Type 0, BuildingBlock: VETTIZ_charged_linker_0, # of connection points: 3
#     Node 8, Type 0, BuildingBlock: VETTIZ_charged_linker_0, # of connection points: 3
#     Node 9, Type 0, BuildingBlock: VETTIZ_charged_linker_0, # of connection points: 3
#     Node 10, Type 0, BuildingBlock: VETTIZ_charged_linker_0, # of connection points: 3
#     Node 11, Type 0, BuildingBlock: VETTIZ_charged_linker_0, # of connection points: 3
#     Node 12, Type 0, BuildingBlock: VETTIZ_charged_linker_0, # of connection points: 3
#     Node 13, Type 0, BuildingBlock: VETTIZ_charged_linker_0, # of connection points: 3
#     Node 14, Type 0, BuildingBlock: VETTIZ_charged_linker_0, # of connection points: 3
#     Node 15, Type 0, BuildingBlock: VETTIZ_charged_linker_0, # of connection points: 3
#     Node 16, Type 1, BuildingBlock: QUQFOY_clean_sbu_1, # of connection points: 4
#     Node 17, Type 1, BuildingBlock: QUQFOY_clean_sbu_1, # of connection points: 4
#     Node 18, Type 1, BuildingBlock: QUQFOY_clean_sbu_1, # of connection points: 4
#     Node 19, Type 1, BuildingBlock: QUQFOY_clean_sbu_1, # of connection points: 4
#     Node 20, Type 1, BuildingBlock: QUQFOY_clean_sbu_1, # of connection points: 4
#     Node 21, Type 1, BuildingBlock: QUQFOY_clean_sbu_1, # of connection points: 4
#     Node 22, Type 1, BuildingBlock: QUQFOY_clean_sbu_1, # of connection points: 4
#     Node 23, Type 1, BuildingBlock: QUQFOY_clean_sbu_1, # of connection points: 4
#     Node 24, Type 1, BuildingBlock: QUQFOY_clean_sbu_1, # of connection points: 4
#     Node 25, Type 1, BuildingBlock: QUQFOY_clean_sbu_1, # of connection points: 4
#     Node 26, Type 1, BuildingBlock: QUQFOY_clean_sbu_1, # of connection points: 4
#     Node 27, Type 1, BuildingBlock: QUQFOY_clean_sbu_1, # of connection points: 4
#     Edge 28, Type (0, 1), BuildingBlock: MIFKUJ_clean_linker_0, # of connection points: 2
#     Edge 29, Type (0, 1), BuildingBlock: MIFKUJ_clean_linker_0, # of connection points: 2
#     Edge 30, Type (0, 1), BuildingBlock: MIFKUJ_clean_linker_0, # of connection points: 2
#     Edge 31, Type (0, 1), BuildingBlock: MIFKUJ_clean_linker_0, # of connection points: 2
#     Edge 32, Type (0, 1), BuildingBlock: MIFKUJ_clean_linker_0, # of connection points: 2
#     Edge 33, Type (0, 1), BuildingBlock: MIFKUJ_clean_linker_0, # of connection points: 2
#     Edge 34, Type (0, 1), BuildingBlock: MIFKUJ_clean_linker_0, # of connection points: 2
#     Edge 35, Type (0, 1), BuildingBlock: MIFKUJ_clean_linker_0, # of connection points: 2
#     Edge 36, Type (0, 1), BuildingBlock: MIFKUJ_clean_linker_0, # of connection points: 2
#     Edge 37, Type (0, 1), BuildingBlock: MIFKUJ_clean_linker_0, # of connection points: 2
#     Edge 38, Type (0, 1), BuildingBlock: MIFKUJ_clean_linker_0, # of connection points: 2
#     Edge 39, Type (0, 1), BuildingBlock: MIFKUJ_clean_linker_0, # of connection points: 2
#     Edge 40, Type (0, 1), BuildingBlock: MIFKUJ_clean_linker_0, # of connection points: 2
#     Edge 41, Type (0, 1), BuildingBlock: MIFKUJ_clean_linker_0, # of connection points: 2
#     Edge 42, Type (0, 1), BuildingBlock: MIFKUJ_clean_linker_0, # of connection points: 2
#     Edge 43, Type (0, 1), BuildingBlock: MIFKUJ_clean_linker_0, # of connection points: 2
#     Edge 44, Type (0, 1), BuildingBlock: MIFKUJ_clean_linker_0, # of connection points: 2
#     Edge 45, Type (0, 1), BuildingBlock: MIFKUJ_clean_linker_0, # of connection points: 2
#     Edge 46, Type (0, 1), BuildingBlock: MIFKUJ_clean_linker_0, # of connection points: 2
#     Edge 47, Type (0, 1), BuildingBlock: MIFKUJ_clean_linker_0, # of connection points: 2
#     Edge 48, Type (0, 1), BuildingBlock: MIFKUJ_clean_linker_0, # of connection points: 2
#     Edge 49, Type (0, 1), BuildingBlock: MIFKUJ_clean_linker_0, # of connection points: 2
#     Edge 50, Type (0, 1), BuildingBlock: MIFKUJ_clean_linker_0, # of connection points: 2
#     Edge 51, Type (0, 1), BuildingBlock: MIFKUJ_clean_linker_0, # of connection points: 2
#     Edge 52, Type (0, 1), BuildingBlock: MIFKUJ_clean_linker_0, # of connection points: 2
#     Edge 53, Type (0, 1), BuildingBlock: MIFKUJ_clean_linker_0, # of connection points: 2
#     Edge 54, Type (0, 1), BuildingBlock: MIFKUJ_clean_linker_0, # of connection points: 2
#     Edge 55, Type (0, 1), BuildingBlock: MIFKUJ_clean_linker_0, # of connection points: 2
#     Edge 56, Type (0, 1), BuildingBlock: MIFKUJ_clean_linker_0, # of connection points: 2
#     Edge 57, Type (0, 1), BuildingBlock: MIFKUJ_clean_linker_0, # of connection points: 2
#     Edge 58, Type (0, 1), BuildingBlock: MIFKUJ_clean_linker_0, # of connection points: 2
#     Edge 59, Type (0, 1), BuildingBlock: MIFKUJ_clean_linker_0, # of connection points: 2
#     Edge 60, Type (0, 1), BuildingBlock: MIFKUJ_clean_linker_0, # of connection points: 2
#     Edge 61, Type (0, 1), BuildingBlock: MIFKUJ_clean_linker_0, # of connection points: 2
#     Edge 62, Type (0, 1), BuildingBlock: MIFKUJ_clean_linker_0, # of connection points: 2
#     Edge 63, Type (0, 1), BuildingBlock: MIFKUJ_clean_linker_0, # of connection points: 2
#     Edge 64, Type (0, 1), BuildingBlock: MIFKUJ_clean_linker_0, # of connection points: 2
#     Edge 65, Type (0, 1), BuildingBlock: MIFKUJ_clean_linker_0, # of connection points: 2
#     Edge 66, Type (0, 1), BuildingBlock: MIFKUJ_clean_linker_0, # of connection points: 2
#     Edge 67, Type (0, 1), BuildingBlock: MIFKUJ_clean_linker_0, # of connection points: 2
#     Edge 68, Type (0, 1), BuildingBlock: MIFKUJ_clean_linker_0, # of connection points: 2
#     Edge 69, Type (0, 1), BuildingBlock: MIFKUJ_clean_linker_0, # of connection points: 2
#     Edge 70, Type (0, 1), BuildingBlock: MIFKUJ_clean_linker_0, # of connection points: 2
#     Edge 71, Type (0, 1), BuildingBlock: MIFKUJ_clean_linker_0, # of connection points: 2
#     Edge 72, Type (0, 1), BuildingBlock: MIFKUJ_clean_linker_0, # of connection points: 2
#     Edge 73, Type (0, 1), BuildingBlock: MIFKUJ_clean_linker_0, # of connection points: 2
#     Edge 74, Type (0, 1), BuildingBlock: MIFKUJ_clean_linker_0, # of connection points: 2
#     Edge 75, Type (0, 1), BuildingBlock: MIFKUJ_clean_linker_0, # of connection points: 2
# Relax obj value: 0.036
# Max RMSD: 0.141
# Mean RMSD: 0.065
data_MOF--net-ctn--node1-QUQFOY_clean_sbu_1--node2-VETTIZ_charged_linker_0--edge1-MIFKUJ_clean_linker_0
_symmetry_space_group_name_H-M    P1
_symmetry_Int_Tables_number       1
_symmetry_cell_setting            triclinic
loop_
_symmetry_equiv_pos_as_xyz
'x, y, z'
_cell_length_a     83.327162
_cell_length_b     83.248092
_cell_length_c     83.462755
_cell_angle_alpha  92.66297
_cell_angle_beta   90.051947
_cell_angle_gamma 94.319874
loop_
_atom_site_label
_atom_site_type_symbol
_atom_site_fract_x
_atom_site_fract_y
_atom_site_fract_z
_atom_type_partial_charge
C0 C 0.08224 0.15094 0.04954 0.0
C1 C 0.06949 0.16093 0.04805 0.0
C2 C 0.05887 0.16279 0.06103 0.0
C3 C 0.07271 0.14371 0.07595 0.0
C4 C 0.08359 0.14243 0.06354 0.0
C5 C 0.09574 0.13044 0.06671 0.0
H6 H 0.11802 0.06954 0.11063 0.0
C7 C 0.07661 0.13233 0.08819 0.0
C8 C 0.09021 0.12461 0.08294 0.0
H9 H 0.13989 0.0872 0.06728 0.0
H10 H 0.12242 0.10912 0.06785 0.0
H11 H 0.11601 0.10442 0.12855 0.0
H12 H 0.08204 0.0734 0.10049 0.0
H13 H 0.07192 0.08063 0.11748 0.0
H14 H 0.08883 0.06881 0.12007 0.0
H15 H 0.10514 0.08737 0.13686 0.0
H16 H 0.09708 0.10694 0.13712 0.0
C17 C 0.11265 0.13953 0.06768 0.0
C18 C 0.09389 0.11683 0.05337 0.0
C19 C 0.03801 0.12201 0.13441 0.0
C20 C 0.03755 0.11087 0.14661 0.0
C21 C 0.05083 0.10161 0.14862 0.0
C22 C 0.06393 0.10274 0.13813 0.0
C23 C 0.06373 0.11312 0.12536 0.0
C24 C 0.05117 0.12291 0.12394 0.0
C25 C 0.05306 0.13321 0.10962 0.0
C26 C 0.06865 0.12774 0.10251 0.0
C27 C 0.0747 0.11582 0.11168 0.0
C28 C 0.05484 0.15113 0.1157 0.0
C29 C 0.03846 0.12875 0.09831 0.0
C30 C 0.11907 0.07818 0.1013 0.0
C31 C 0.13019 0.07654 0.0888 0.0
C32 C 0.13144 0.08822 0.07707 0.0
C33 C 0.12118 0.10084 0.07733 0.0
C34 C 0.10947 0.10176 0.0894 0.0
C35 C 0.10891 0.09083 0.10139 0.0
C36 C 0.09584 0.0937 0.11334 0.0
C37 C 0.08838 0.10792 0.10635 0.0
C38 C 0.09626 0.11247 0.0922 0.0
C39 C 0.1038 0.09824 0.12989 0.0
C40 C 0.08402 0.07837 0.11301 0.0
H41 H 0.05183 0.15608 0.08429 0.0
H42 H 0.09057 0.14923 0.03976 0.0
H43 H 0.08096 0.11365 0.05053 0.0
H44 H 0.09863 0.10548 0.05681 0.0
H45 H 0.09991 0.12067 0.04215 0.0
H46 H 0.112 0.152 0.07292 0.0
H47 H 0.11812 0.14046 0.05559 0.0
H48 H 0.12095 0.13387 0.07566 0.0
H49 H 0.02798 0.12926 0.13252 0.0
H50 H 0.05092 0.09318 0.15812 0.0
H51 H 0.07348 0.0951 0.1401 0.0
H52 H 0.06098 0.15252 0.12758 0.0
H53 H 0.04291 0.15614 0.11707 0.0
H54 H 0.06247 0.15877 0.1078 0.0
H55 H 0.03517 0.11553 0.09797 0.0
H56 H 0.04085 0.13156 0.08572 0.0
H57 H 0.02775 0.13492 0.10245 0.0
H58 H 0.04913 0.17065 0.06028 0.0
C59 C 0.06047 0.15433 0.07497 0.0
C60 C 0.2518 0.68642 0.24583 0.0
C61 C 0.2381 0.68261 0.2361 0.0
C62 C 0.23404 0.69376 0.22478 0.0
C63 C 0.25719 0.71173 0.23282 0.0
C64 C 0.2612 0.70082 0.24385 0.0
C65 C 0.27668 0.706 0.25249 0.0
H66 H 0.34082 0.75999 0.26388 0.0
C67 C 0.26975 0.72528 0.23351 0.0
C68 C 0.28128 0.72189 0.24489 0.0
H69 H 0.33094 0.7142 0.28584 0.0
H70 H 0.30597 0.70989 0.27139 0.0
H71 H 0.30383 0.77108 0.2655 0.0
H72 H 0.33081 0.74699 0.22886 0.0
H73 H 0.3189 0.76015 0.2192 0.0
H74 H 0.33406 0.76826 0.23345 0.0
H75 H 0.32036 0.78098 0.25513 0.0
H76 H 0.30019 0.77971 0.24712 0.0
C77 C 0.27291 0.70843 0.27058 0.0
C78 C 0.28893 0.69323 0.24852 0.0
C79 C 0.26512 0.77278 0.19814 0.0
C80 C 0.27528 0.78669 0.19542 0.0
C81 C 0.28974 0.78934 0.20432 0.0
C82 C 0.294 0.7784 0.21557 0.0
C83 C 0.28382 0.76449 0.21792 0.0
C84 C 0.26967 0.76185 0.20924 0.0
C85 C 0.26067 0.74607 0.21277 0.0
C86 C 0.27164 0.73979 0.22518 0.0
C87 C 0.28516 0.75065 0.2282 0.0
C88 C 0.24413 0.74969 0.21993 0.0
C89 C 0.25969 0.73522 0.19712 0.0
C90 C 0.33334 0.74898 0.2655 0.0
C91 C 0.33792 0.73749 0.27616 0.0
C92 C 0.32765 0.72343 0.278 0.0
C93 C 0.31317 0.72085 0.26945 0.0
C94 C 0.30886 0.73236 0.25877 0.0
C95 C 0.31885 0.74614 0.25693 0.0
C96 C 0.3124 0.75684 0.24476 0.0
C97 C 0.29692 0.74714 0.23961 0.0
C98 C 0.29494 0.73285 0.24791 0.0
C99 C 0.30907 0.77309 0.25344 0.0
C100 C 0.32464 0.75831 0.23084 0.0
H101 H 0.23972 0.7162 0.21432 0.0
H102 H 0.25526 0.67837 0.25482 0.0
H103 H 0.28641 0.68703 0.23659 0.0
H104 H 0.30142 0.69859 0.2476 0.0
H105 H 0.28848 0.68383 0.25756 0.0
H106 H 0.26137 0.7142 0.2723 0.0
H107 H 0.27175 0.69671 0.27647 0.0
H108 H 0.28201 0.71658 0.2771 0.0
H109 H 0.25384 0.77034 0.19172 0.0
H110 H 0.29803 0.79971 0.20234 0.0
H111 H 0.30519 0.78109 0.22185 0.0
H112 H 0.24546 0.76012 0.22879 0.0
H113 H 0.23571 0.75275 0.21041 0.0
H114 H 0.23845 0.73961 0.22655 0.0
H115 H 0.27006 0.73816 0.18911 0.0
H116 H 0.26035 0.7223 0.19936 0.0
H117 H 0.24852 0.73678 0.19027 0.0
H118 H 0.22377 0.69113 0.21688 0.0
C119 C 0.24343 0.70829 0.22317 0.0
C120 C 0.93371 0.40423 0.04372 0.0
C121 C 0.92522 0.40214 0.02918 0.0
C122 C 0.91203 0.41135 0.02665 0.0
C123 C 0.91704 0.42563 0.05243 0.0
C124 C 0.92938 0.41589 0.05515 0.0
C125 C 0.93757 0.41982 0.071 0.0
H126 H 0.9502 0.46981 0.1363 0.0
C127 C 0.91657 0.4374 0.06626 0.0
C128 C 0.92842 0.43385 0.07724 0.0
H129 H 0.97445 0.42727 0.12239 0.0
H130 H 0.95634 0.4217 0.10002 0.0
H131 H 0.91298 0.45375 0.1281 0.0
H132 H 0.94805 0.48242 0.10167 0.0
H133 H 0.92919 0.48962 0.09809 0.0
H134 H 0.93714 0.49074 0.11822 0.0
H135 H 0.91792 0.47476 0.13302 0.0
H136 H 0.90278 0.46816 0.11817 0.0
C137 C 0.93478 0.40497 0.0815 0.0
C138 C 0.95551 0.42499 0.0677 0.0
C139 C 0.88155 0.48463 0.06383 0.0
C140 C 0.88 0.49843 0.07395 0.0
C141 C 0.88807 0.49967 0.08888 0.0
C142 C 0.89796 0.48772 0.09336 0.0
C143 C 0.89999 0.47442 0.08276 0.0
C144 C 0.8916 0.47288 0.06841 0.0
C145 C 0.89536 0.45804 0.05856 0.0
C146 C 0.90762 0.4511 0.06922 0.0
C147 C 0.91035 0.4608 0.08337 0.0
C148 C 0.87976 0.44676 0.05667 0.0
C149 C 0.90278 0.46351 0.04251 0.0
C150 C 0.95134 0.45917 0.12853 0.0
C151 C 0.96376 0.44898 0.13096 0.0
C152 C 0.96505 0.43533 0.12059 0.0
C153 C 0.95452 0.43214 0.10761 0.0
C154 C 0.9427 0.44285 0.10477 0.0
C155 C 0.94101 0.45592 0.1153 0.0
C156 C 0.92797 0.46614 0.11001 0.0
C157 C 0.92222 0.45705 0.09458 0.0
C158 C 0.93102 0.44353 0.09157 0.0
C159 C 0.9147 0.46586 0.12298 0.0
C160 C 0.93584 0.48318 0.1069 0.0
H161 H 0.89797 0.43006 0.03552 0.0
H162 H 0.94373 0.39707 0.04605 0.0
H163 H 0.95675 0.43199 0.05667 0.0
H164 H 0.96122 0.43309 0.07724 0.0
H165 H 0.96266 0.41431 0.06593 0.0
H166 H 0.92323 0.39793 0.07836 0.0
H167 H 0.94456 0.3967 0.07987 0.0
H168 H 0.93365 0.40837 0.0944 0.0
H169 H 0.8753 0.48311 0.05242 0.0
H170 H 0.88722 0.51019 0.09688 0.0
H171 H 0.90399 0.48953 0.10473 0.0
H172 H 0.8721 0.44768 0.06754 0.0
H173 H 0.87252 0.44991 0.04626 0.0
H174 H 0.88217 0.43389 0.05539 0.0
H175 H 0.91138 0.47429 0.04458 0.0
H176 H 0.90981 0.45437 0.0364 0.0
H177 H 0.8933 0.46677 0.03415 0.0
H178 H 0.90529 0.40981 0.01551 0.0
C179 C 0.90789 0.42313 0.03822 0.0
C180 C 0.67336 0.81786 0.25941 0.0
C181 C 0.664 0.8031 0.25956 0.0
C182 C 0.66701 0.79078 0.24803 0.0
C183 C 0.68838 0.80799 0.23653 0.0
C184 C 0.68543 0.82 0.2479 0.0
C185 C 0.69661 0.83487 0.24636 0.0
H186 H 0.75905 0.87385 0.20909 0.0
C187 C 0.7019 0.81409 0.22645 0.0
C188 C 0.7068 0.82981 0.23222 0.0
H189 H 0.73141 0.89093 0.24941 0.0
H190 H 0.71488 0.86595 0.24849 0.0
H191 H 0.72832 0.85704 0.18881 0.0
H192 H 0.76185 0.83839 0.2212 0.0
H193 H 0.75825 0.82387 0.20542 0.0
H194 H 0.76735 0.84358 0.2012 0.0
H195 H 0.749 0.85487 0.18371 0.0
H196 H 0.73379 0.83847 0.18047 0.0
C197 C 0.68636 0.84899 0.24244 0.0
C198 C 0.70666 0.8376 0.26204 0.0
C199 C 0.72146 0.77896 0.1801 0.0
C200 C 0.73397 0.78119 0.16894 0.0
C201 C 0.74385 0.79573 0.1698 0.0
C202 C 0.7412 0.8079 0.18147 0.0
C203 C 0.72858 0.80553 0.19248 0.0
C204 C 0.71904 0.79119 0.19175 0.0
C205 C 0.70648 0.79061 0.20469 0.0
C206 C 0.70989 0.80706 0.21314 0.0
C207 C 0.72281 0.81578 0.20589 0.0
C208 C 0.68969 0.7889 0.19656 0.0
C209 C 0.70978 0.77672 0.2157 0.0
C210 C 0.74948 0.87216 0.21775 0.0
C211 C 0.74651 0.88444 0.2293 0.0
C212 C 0.73381 0.88179 0.24024 0.0
C213 C 0.72428 0.8672 0.23976 0.0
C214 C 0.72742 0.85503 0.22822 0.0
C215 C 0.73979 0.85762 0.21742 0.0
C216 C 0.74126 0.84329 0.20597 0.0
C217 C 0.7278 0.83167 0.21178 0.0
C218 C 0.71978 0.83863 0.22482 0.0
C219 C 0.73805 0.84859 0.18878 0.0
C220 C 0.75806 0.83692 0.20839 0.0
H221 H 0.68076 0.78334 0.22802 0.0
H222 H 0.67154 0.82749 0.26825 0.0
H223 H 0.70922 0.82591 0.26707 0.0
H224 H 0.71864 0.84385 0.2602 0.0
H225 H 0.70014 0.84449 0.27135 0.0
H226 H 0.67586 0.84466 0.23474 0.0
H227 H 0.68164 0.85477 0.25355 0.0
H228 H 0.693 0.85828 0.23548 0.0
H229 H 0.71382 0.76783 0.17989 0.0
H230 H 0.75348 0.79779 0.16126 0.0
H231 H 0.74907 0.81871 0.18143 0.0
H232 H 0.68952 0.79656 0.18598 0.0
H233 H 0.68647 0.77623 0.1923 0.0
H234 H 0.68005 0.79298 0.20446 0.0
H235 H 0.72289 0.77515 0.21652 0.0
H236 H 0.70603 0.77908 0.22824 0.0
H237 H 0.70373 0.76509 0.21105 0.0
H238 H 0.65987 0.77934 0.24782 0.0
C239 C 0.6791 0.79315 0.23651 0.0
C240 C 0.06356 0.91874 0.47179 0.0
C241 C 0.04893 0.90919 0.47223 0.0
C242 C 0.03738 0.9106 0.46011 0.0
C243 C 0.05455 0.93166 0.44825 0.0
C244 C 0.06609 0.92981 0.45979 0.0
C245 C 0.0806 0.94148 0.45833 0.0
H246 H 0.11538 0.00812 0.42603 0.0
C247 C 0.06051 0.94509 0.4383 0.0
C248 C 0.07583 0.95078 0.4441 0.0
H249 H 0.13364 0.98071 0.4639 0.0
H250 H 0.11131 0.96074 0.46018 0.0
H251 H 0.07947 0.00547 0.43708 0.0
H252 H 0.10472 0.97735 0.40231 0.0
H253 H 0.08531 0.97845 0.39445 0.0
H254 H 0.09815 0.99674 0.39807 0.0
H255 H 0.08603 0.01289 0.41814 0.0
H256 H 0.06676 0.00193 0.42033 0.0
C257 C 0.0821 0.95227 0.47401 0.0
C258 C 0.09538 0.93172 0.45457 0.0
C259 C 0.02411 0.96624 0.39628 0.0
C260 C 0.02603 0.97954 0.38646 0.0
C261 C 0.04097 0.98863 0.38628 0.0
C262 C 0.05364 0.98494 0.39611 0.0
C263 C 0.05134 0.97213 0.40642 0.0
C264 C 0.03689 0.9628 0.40619 0.0
C265 C 0.03669 0.94977 0.41815 0.0
C266 C 0.05334 0.95294 0.42563 0.0
C267 C 0.06176 0.96615 0.41877 0.0
C268 C 0.02314 0.9527 0.4304 0.0
C269 C 0.03474 0.93321 0.40884 0.0
C270 C 0.11457 0.99777 0.43347 0.0
C271 C 0.12618 0.99607 0.44537 0.0
C272 C 0.12489 0.98227 0.4546 0.0
C273 C 0.11183 0.97075 0.45252 0.0
C274 C 0.09985 0.97308 0.44116 0.0
C275 C 0.10158 0.98618 0.43158 0.0
C276 C 0.08771 0.9867 0.42014 0.0
C277 C 0.07719 0.97194 0.42471 0.0
C278 C 0.08428 0.96413 0.43713 0.0
C279 C 0.07953 0.00257 0.42393 0.0
C280 C 0.0942 0.98484 0.4028 0.0
H281 H 0.03081 0.92238 0.43933 0.0
H282 H 0.07262 0.91815 0.48101 0.0
H283 H 0.09184 0.92047 0.44729 0.0
H284 H 0.10449 0.93832 0.44724 0.0
H285 H 0.10112 0.92818 0.46576 0.0
H286 H 0.07002 0.95505 0.47854 0.0
H287 H 0.08822 0.94617 0.48359 0.0
H288 H 0.08852 0.96416 0.47241 0.0
H289 H 0.01273 0.95907 0.39668 0.0
H290 H 0.0428 0.99875 0.37859 0.0
H291 H 0.06463 0.99247 0.39554 0.0
H292 H 0.02258 0.96583 0.43333 0.0
H293 H 0.01121 0.94799 0.42551 0.0
H294 H 0.02503 0.94735 0.44202 0.0
H295 H 0.04138 0.93359 0.39729 0.0
H296 H 0.03986 0.92351 0.41534 0.0
H297 H 0.02189 0.92968 0.40604 0.0
H298 H 0.0261 0.90322 0.46002 0.0
C299 C 0.04014 0.92172 0.44809 0.0
C300 C 0.25325 0.71299 0.8081 0.0
C301 C 0.25239 0.70143 0.79528 0.0
C302 C 0.23973 0.70129 0.78407 0.0
C303 C 0.22907 0.7241 0.79849 0.0
C304 C 0.2414 0.72402 0.80959 0.0
C305 C 0.23988 0.73632 0.82316 0.0
H306 H 0.19662 0.79227 0.86058 0.0
C307 C 0.2186 0.73693 0.80371 0.0
C308 C 0.22479 0.744 0.81825 0.0
H309 H 0.2416 0.77481 0.87584 0.0
H310 H 0.24233 0.75803 0.85171 0.0
H311 H 0.17981 0.75859 0.84469 0.0
H312 H 0.20857 0.79839 0.82595 0.0
H313 H 0.19607 0.79066 0.81004 0.0
H314 H 0.18722 0.79889 0.82809 0.0
H315 H 0.17356 0.77873 0.84384 0.0
H316 H 0.17065 0.76451 0.82703 0.0
C317 C 0.23749 0.7272 0.83887 0.0
C318 C 0.25493 0.74845 0.82312 0.0
C319 C 0.17143 0.74951 0.76882 0.0
C320 C 0.16032 0.7614 0.77015 0.0
C321 C 0.16083 0.77203 0.78381 0.0
C322 C 0.17222 0.77085 0.79598 0.0
C323 C 0.18335 0.75901 0.79443 0.0
C324 C 0.18291 0.74865 0.78098 0.0
C325 C 0.19609 0.73723 0.78114 0.0
C326 C 0.20465 0.74265 0.79677 0.0
C327 C 0.19698 0.75526 0.80459 0.0
C328 C 0.18819 0.71981 0.78166 0.0
C329 C 0.20696 0.74028 0.76639 0.0
C330 C 0.20672 0.78496 0.85875 0.0
C331 C 0.21888 0.78472 0.87048 0.0
C332 C 0.23175 0.77492 0.86739 0.0
C333 C 0.23225 0.76524 0.85324 0.0
C334 C 0.21984 0.76537 0.84188 0.0
C335 C 0.20753 0.77537 0.84457 0.0
C336 C 0.19593 0.77467 0.83068 0.0
C337 C 0.2029 0.76201 0.81958 0.0
C338 C 0.21683 0.75653 0.82627 0.0
C339 C 0.17902 0.76891 0.83678 0.0
C340 C 0.19683 0.79149 0.8233 0.0
H341 H 0.21878 0.71194 0.77663 0.0
H342 H 0.26269 0.71313 0.81706 0.0
H343 H 0.25901 0.75057 0.81065 0.0
H344 H 0.25257 0.76052 0.82824 0.0
H345 H 0.26511 0.74388 0.8297 0.0
H346 H 0.23015 0.71558 0.83664 0.0
H347 H 0.24922 0.72441 0.84398 0.0
H348 H 0.23079 0.73381 0.84811 0.0
H349 H 0.17141 0.74129 0.75837 0.0
H350 H 0.15229 0.78119 0.78514 0.0
H351 H 0.17192 0.77921 0.80612 0.0
H352 H 0.17663 0.71954 0.78834 0.0
H353 H 0.18556 0.71453 0.76938 0.0
H354 H 0.19562 0.71173 0.78812 0.0
H355 H 0.20903 0.75343 0.76458 0.0
H356 H 0.21907 0.73597 0.7677 0.0
H357 H 0.20129 0.73453 0.7553 0.0
H358 H 0.23887 0.69242 0.77413 0.0
C359 C 0.22812 0.71262 0.78555 0.0
C360 C 0.88779 0.55902 0.4715 0.0
C361 C 0.88375 0.54341 0.46487 0.0
C362 C 0.89238 0.53775 0.45151 0.0
C363 C 0.90944 0.56266 0.45228 0.0
C364 C 0.90059 0.56841 0.46501 0.0
C365 C 0.90668 0.58512 0.47086 0.0
H366 H 0.96588 0.64503 0.47154 0.0
C367 C 0.92246 0.57508 0.44896 0.0
C368 C 0.9208 0.58836 0.45967 0.0
H369 H 0.92282 0.64197 0.50037 0.0
H370 H 0.91298 0.61773 0.48531 0.0
H371 H 0.94789 0.6367 0.43858 0.0
H372 H 0.97228 0.60704 0.47006 0.0
H373 H 0.97884 0.60336 0.45022 0.0
H374 H 0.98195 0.62329 0.45934 0.0
H375 H 0.96922 0.6353 0.43745 0.0
H376 H 0.95532 0.62136 0.42617 0.0
C377 C 0.89325 0.59667 0.46835 0.0
C378 C 0.91215 0.58425 0.48853 0.0
C379 C 0.96574 0.56257 0.40837 0.0
C380 C 0.97935 0.57168 0.40292 0.0
C381 C 0.98253 0.58773 0.40879 0.0
C382 C 0.97253 0.5945 0.42033 0.0
C383 C 0.95918 0.58513 0.426 0.0
C384 C 0.95574 0.56959 0.41974 0.0
C385 C 0.94056 0.56178 0.42659 0.0
C386 C 0.93564 0.57511 0.4382 0.0
C387 C 0.94678 0.58862 0.438 0.0
C388 C 0.92817 0.55812 0.41278 0.0
C389 C 0.94503 0.54674 0.43538 0.0
C390 C 0.95432 0.6391 0.47452 0.0
C391 C 0.94518 0.64518 0.48723 0.0
C392 C 0.93004 0.63744 0.4906 0.0
C393 C 0.92442 0.62331 0.48195 0.0
C394 C 0.93407 0.61687 0.46982 0.0
C395 C 0.94848 0.62505 0.4659 0.0
C396 C 0.95673 0.61681 0.45214 0.0
C397 C 0.94523 0.60197 0.44894 0.0
C398 C 0.93213 0.60195 0.45951 0.0
C399 C 0.95748 0.62808 0.43783 0.0
C400 C 0.97338 0.61241 0.45811 0.0
H401 H 0.91145 0.54222 0.43517 0.0
H402 H 0.88119 0.56379 0.4816 0.0
H403 H 0.91892 0.57339 0.49006 0.0
H404 H 0.92041 0.59455 0.49271 0.0
H405 H 0.90163 0.58346 0.4967 0.0
H406 H 0.8853 0.59236 0.45806 0.0
H407 H 0.88554 0.59767 0.47914 0.0
H408 H 0.89809 0.60887 0.46523 0.0
H409 H 0.9629 0.55029 0.4038 0.0
H410 H 0.99298 0.59492 0.40471 0.0
H411 H 0.97569 0.60669 0.42453 0.0
H412 H 0.93008 0.56688 0.40316 0.0
H413 H 0.92914 0.54586 0.40721 0.0
H414 H 0.91564 0.55934 0.41673 0.0
H415 H 0.95638 0.54945 0.44236 0.0
H416 H 0.93597 0.54267 0.44422 0.0
H417 H 0.94691 0.53654 0.4267 0.0
H418 H 0.8895 0.52574 0.44624 0.0
C419 C 0.90518 0.5473 0.44517 0.0
C420 C 0.78928 0.77263 0.83718 0.0
C421 C 0.77644 0.77201 0.84811 0.0
C422 C 0.7632 0.78117 0.84535 0.0
C423 C 0.77586 0.7914 0.82134 0.0
C424 C 0.78869 0.78226 0.82393 0.0
C425 C 0.8013 0.78404 0.81115 0.0
H426 H 0.82741 0.81703 0.74252 0.0
C427 C 0.77912 0.80019 0.80654 0.0
C428 C 0.79396 0.79583 0.80048 0.0
H429 H 0.85097 0.7841 0.77175 0.0
H430 H 0.82881 0.78347 0.79006 0.0
H431 H 0.81678 0.83936 0.77239 0.0
H432 H 0.79108 0.80022 0.74531 0.0
H433 H 0.77805 0.81574 0.74843 0.0
H434 H 0.79627 0.81949 0.73713 0.0
H435 H 0.80937 0.84162 0.75249 0.0
H436 H 0.79697 0.84462 0.76992 0.0
C437 C 0.81716 0.79137 0.81918 0.0
C438 C 0.80252 0.76731 0.80244 0.0
C439 C 0.74045 0.84025 0.78878 0.0
C440 C 0.74059 0.85074 0.77603 0.0
C441 C 0.75299 0.85019 0.76457 0.0
C442 C 0.76526 0.83969 0.76602 0.0
C443 C 0.7652 0.82963 0.7791 0.0
C444 C 0.75282 0.8299 0.7901 0.0
C445 C 0.7547 0.81844 0.80325 0.0
C446 C 0.77043 0.81149 0.79854 0.0
C447 C 0.77653 0.81808 0.78438 0.0
C448 C 0.75613 0.82839 0.81942 0.0
C449 C 0.74034 0.80546 0.80225 0.0
C450 C 0.82783 0.80974 0.7529 0.0
C451 C 0.84096 0.80044 0.7555 0.0
C452 C 0.8409 0.79108 0.76917 0.0
C453 C 0.82804 0.79083 0.77992 0.0
C454 C 0.81503 0.80012 0.77714 0.0
C455 C 0.81508 0.80944 0.76386 0.0
C456 C 0.8004 0.81891 0.7632 0.0
C457 C 0.79148 0.81352 0.77813 0.0
C458 C 0.80013 0.8025 0.78619 0.0
C459 C 0.80604 0.8371 0.76444 0.0
C460 C 0.79091 0.81347 0.74768 0.0
H461 H 0.75246 0.79752 0.83066 0.0
H462 H 0.79974 0.76593 0.83897 0.0
H463 H 0.79051 0.76053 0.8015 0.0
H464 H 0.80669 0.76811 0.78993 0.0
H465 H 0.81061 0.75988 0.80904 0.0
H466 H 0.81466 0.79974 0.82951 0.0
H467 H 0.82431 0.78181 0.82377 0.0
H468 H 0.82474 0.79882 0.81109 0.0
H469 H 0.73097 0.84016 0.79764 0.0
H470 H 0.75346 0.8582 0.7547 0.0
H471 H 0.77445 0.83997 0.75702 0.0
H472 H 0.76354 0.83992 0.81803 0.0
H473 H 0.7441 0.8314 0.82385 0.0
H474 H 0.76225 0.82225 0.82886 0.0
H475 H 0.7363 0.80288 0.78961 0.0
H476 H 0.74347 0.79369 0.80644 0.0
H477 H 0.72988 0.80949 0.80918 0.0
H478 H 0.75301 0.78074 0.8534 0.0
C479 C 0.76285 0.79084 0.83206 0.0
C480 C 0.28267 0.26375 0.33322 0.0
C481 C 0.26998 0.26335 0.34432 0.0
C482 C 0.25738 0.27351 0.34235 0.0
C483 C 0.27069 0.28477 0.31912 0.0
C484 C 0.28279 0.2745 0.32081 0.0
C485 C 0.29574 0.27682 0.30844 0.0
H486 H 0.32905 0.32035 0.24909 0.0
C487 C 0.275 0.29514 0.30562 0.0
C488 C 0.28967 0.29053 0.29934 0.0
H489 H 0.34548 0.27725 0.26887 0.0
H490 H 0.32252 0.27546 0.28622 0.0
H491 H 0.31726 0.33682 0.28139 0.0
H492 H 0.29177 0.30562 0.24578 0.0
H493 H 0.27921 0.3209 0.25148 0.0
H494 H 0.29834 0.32618 0.24228 0.0
H495 H 0.31194 0.34365 0.26215 0.0
H496 H 0.29828 0.34422 0.27889 0.0
C497 C 0.31181 0.2819 0.31731 0.0
C498 C 0.29593 0.26105 0.29779 0.0
C499 C 0.23941 0.33956 0.29164 0.0
C500 C 0.24129 0.35212 0.28097 0.0
C501 C 0.25502 0.35335 0.27116 0.0
C502 C 0.26674 0.34219 0.27193 0.0
C503 C 0.26482 0.32978 0.28277 0.0
C504 C 0.25137 0.32866 0.29246 0.0
C505 C 0.25185 0.31528 0.30394 0.0
C506 C 0.26759 0.30829 0.29923 0.0
C507 C 0.27509 0.3168 0.28679 0.0
C508 C 0.25243 0.32291 0.32126 0.0
C509 C 0.23721 0.30307 0.30039 0.0
C510 C 0.32768 0.31042 0.25703 0.0
C511 C 0.33937 0.29909 0.25771 0.0
C512 C 0.33699 0.28643 0.26835 0.0
C513 C 0.32353 0.28531 0.27835 0.0
C514 C 0.31216 0.29687 0.27773 0.0
C515 C 0.31416 0.30898 0.26699 0.0
C516 C 0.30043 0.31975 0.26752 0.0
C517 C 0.28997 0.31217 0.28047 0.0
C518 C 0.29704 0.29893 0.28654 0.0
C519 C 0.30722 0.33708 0.27263 0.0
C520 C 0.29197 0.31821 0.25092 0.0
H521 H 0.24777 0.29167 0.32901 0.0
H522 H 0.29262 0.25624 0.33445 0.0
H523 H 0.28393 0.25421 0.29746 0.0
H524 H 0.29861 0.26337 0.28509 0.0
H525 H 0.30474 0.25297 0.30235 0.0
H526 H 0.30987 0.29076 0.32739 0.0
H527 H 0.317 0.27132 0.3224 0.0
H528 H 0.32093 0.28797 0.30965 0.0
H529 H 0.2291 0.33856 0.29953 0.0
H530 H 0.25666 0.36296 0.26286 0.0
H531 H 0.27694 0.34379 0.26417 0.0
H532 H 0.25886 0.33514 0.32168 0.0
H533 H 0.24012 0.32419 0.32602 0.0
H534 H 0.2592 0.31606 0.32965 0.0
H535 H 0.2352 0.30117 0.28724 0.0
H536 H 0.23888 0.29099 0.30475 0.0
H537 H 0.22606 0.30749 0.30572 0.0
H538 H 0.24732 0.27327 0.35057 0.0
C539 C 0.25764 0.28417 0.3298 0.0
C540 C 0.43492 0.90504 0.54193 0.0
C541 C 0.42697 0.90398 0.52707 0.0
C542 C 0.41431 0.91391 0.52457 0.0
C543 C 0.41895 0.92687 0.55102 0.0
C544 C 0.43072 0.91645 0.55367 0.0
C545 C 0.43866 0.91954 0.56977 0.0
H546 H 0.45284 0.96797 0.63584 0.0
C547 C 0.41858 0.93819 0.56522 0.0
C548 C 0.42998 0.9338 0.57628 0.0
H549 H 0.47509 0.92435 0.62147 0.0
H550 H 0.45676 0.91975 0.59916 0.0
H551 H 0.4153 0.95325 0.62799 0.0
H552 H 0.45073 0.98117 0.60126 0.0
H553 H 0.43213 0.98938 0.5988 0.0
H554 H 0.44082 0.98936 0.61854 0.0
H555 H 0.42033 0.97428 0.63269 0.0
H556 H 0.40519 0.96756 0.61786 0.0
C557 C 0.43497 0.90443 0.57973 0.0
C558 C 0.45683 0.92405 0.56697 0.0
C559 C 0.38507 0.98666 0.56401 0.0
C560 C 0.38359 1.00009 0.57464 0.0
C561 C 0.39143 0.00059 0.58967 0.0
C562 C 0.40102 0.98825 0.59377 0.0
C563 C 0.40295 0.9753 0.5827 0.0
C564 C 0.39478 0.97449 0.56824 0.0
C565 C 0.39831 0.95989 0.55792 0.0
C566 C 0.41011 0.95216 0.56849 0.0
C567 C 0.41288 0.96132 0.58296 0.0
C568 C 0.38247 0.9491 0.55537 0.0
C569 C 0.40622 0.96578 0.54223 0.0
C570 C 0.45351 0.95731 0.628 0.0
C571 C 0.46549 0.94658 0.63024 0.0
C572 C 0.46609 0.93287 0.6198 0.0
C573 C 0.45543 0.93024 0.60685 0.0
C574 C 0.44417 0.94156 0.60413 0.0
C575 C 0.44302 0.95459 0.61482 0.0
C576 C 0.43038 0.96539 0.60977 0.0
C577 C 0.42439 0.9568 0.59417 0.0
C578 C 0.43267 0.94297 0.59091 0.0
C579 C 0.4171 0.96529 0.62274 0.0
C580 C 0.4388 0.98228 0.60701 0.0
H581 H 0.40077 0.93287 0.53379 0.0
H582 H 0.4445 0.89734 0.54427 0.0
H583 H 0.45864 0.9313 0.55615 0.0
H584 H 0.46262 0.9317 0.57679 0.0
H585 H 0.46353 0.91308 0.56509 0.0
H586 H 0.42318 0.89805 0.57625 0.0
H587 H 0.44432 0.89569 0.57791 0.0
H588 H 0.43383 0.90746 0.5927 0.0
H589 H 0.37898 0.98573 0.5525 0.0
H590 H 0.39061 0.0108 0.59807 0.0
H591 H 0.40689 0.98948 0.60525 0.0
H592 H 0.37474 0.94965 0.56622 0.0
H593 H 0.37544 0.95303 0.54514 0.0
H594 H 0.38452 0.9362 0.5534 0.0
H595 H 0.41484 0.97646 0.5448 0.0
H596 H 0.41338 0.95677 0.5361 0.0
H597 H 0.39701 0.96936 0.53373 0.0
H598 H 0.40797 0.9132 0.51319 0.0
C599 C 0.41025 0.92537 0.53649 0.0
C600 C 0.17321 0.31914 0.76057 0.0
C601 C 0.16358 0.30454 0.76078 0.0
C602 C 0.16621 0.29219 0.74915 0.0
C603 C 0.18777 0.30903 0.73748 0.0
C604 C 0.18519 0.32109 0.74892 0.0
C605 C 0.19665 0.33574 0.74731 0.0
H606 H 0.26051 0.37272 0.71039 0.0
C607 C 0.20132 0.31486 0.72729 0.0
C608 C 0.2066 0.33049 0.73305 0.0
H609 H 0.23255 0.39128 0.74982 0.0
H610 H 0.21538 0.36671 0.74897 0.0
H611 H 0.22931 0.35751 0.68968 0.0
H612 H 0.26162 0.33724 0.72216 0.0
H613 H 0.25773 0.32298 0.70619 0.0
H614 H 0.26749 0.34248 0.70227 0.0
H615 H 0.24973 0.35414 0.68451 0.0
H616 H 0.23364 0.33856 0.68137 0.0
C617 C 0.18671 0.35013 0.74354 0.0
C618 C 0.20687 0.33822 0.76289 0.0
C619 C 0.21983 0.27929 0.68074 0.0
C620 C 0.23236 0.28127 0.66955 0.0
C621 C 0.24258 0.29557 0.67045 0.0
C622 C 0.24027 0.30777 0.68217 0.0
C623 C 0.22764 0.30567 0.69321 0.0
C624 C 0.21774 0.29156 0.69245 0.0
C625 C 0.20524 0.29125 0.70546 0.0
C626 C 0.20907 0.30763 0.71394 0.0
C627 C 0.22217 0.31604 0.70667 0.0
C628 C 0.18842 0.28996 0.69741 0.0
C629 C 0.20824 0.27723 0.71641 0.0
C630 C 0.25059 0.37157 0.71874 0.0
C631 C 0.24803 0.38396 0.7303 0.0
C632 C 0.23503 0.38183 0.74101 0.0
C633 C 0.22498 0.36756 0.74044 0.0
C634 C 0.22786 0.35521 0.72901 0.0
C635 C 0.24038 0.35738 0.7183 0.0
C636 C 0.24143 0.343 0.70683 0.0
C637 C 0.22758 0.33181 0.71256 0.0
C638 C 0.21974 0.33901 0.7256 0.0
C639 C 0.2385 0.34847 0.68964 0.0
C640 C 0.25793 0.33603 0.70931 0.0
H641 H 0.17957 0.28455 0.72894 0.0
H642 H 0.17166 0.32879 0.76946 0.0
H643 H 0.20967 0.32642 0.76752 0.0
H644 H 0.21871 0.34473 0.76109 0.0
H645 H 0.20033 0.34473 0.77246 0.0
H646 H 0.17584 0.34603 0.73626 0.0
H647 H 0.18257 0.35627 0.75472 0.0
H648 H 0.19338 0.35909 0.7362 0.0
H649 H 0.21192 0.26834 0.6805 0.0
H650 H 0.25224 0.29742 0.6619 0.0
H651 H 0.24841 0.31839 0.68216 0.0
H652 H 0.18838 0.29771 0.6869 0.0
H653 H 0.18491 0.27737 0.69308 0.0
H654 H 0.17891 0.2942 0.70539 0.0
H655 H 0.22129 0.27526 0.71708 0.0
H656 H 0.20471 0.27969 0.72899 0.0
H657 H 0.20184 0.26575 0.71181 0.0
H658 H 0.15885 0.28089 0.74895 0.0
C659 C 0.17821 0.29437 0.73749 0.0
C660 C 0.74989 0.18538 0.74821 0.0
C661 C 0.73546 0.18261 0.73943 0.0
C662 C 0.73128 0.19417 0.72864 0.0
C663 C 0.75584 0.21066 0.7353 0.0
C664 C 0.75983 0.19938 0.74596 0.0
C665 C 0.77573 0.20385 0.7541 0.0
H666 H 0.84309 0.25413 0.76186 0.0
C667 C 0.76904 0.22359 0.73549 0.0
C668 C 0.78073 0.21963 0.74647 0.0
H669 H 0.83035 0.21104 0.78755 0.0
H670 H 0.8051 0.20729 0.77337 0.0
H671 H 0.80832 0.26815 0.76556 0.0
H672 H 0.83009 0.24068 0.72763 0.0
H673 H 0.81948 0.25531 0.71858 0.0
H674 H 0.83588 0.26161 0.73212 0.0
H675 H 0.82355 0.27693 0.75278 0.0
H676 H 0.80249 0.27594 0.74745 0.0
C677 C 0.7727 0.20627 0.77235 0.0
C678 C 0.78722 0.19057 0.74954 0.0
C679 C 0.76652 0.27074 0.69908 0.0
C680 C 0.77738 0.28404 0.69615 0.0
C681 C 0.79201 0.28604 0.70475 0.0
C682 C 0.79585 0.27494 0.71599 0.0
C683 C 0.78499 0.26161 0.71865 0.0
C684 C 0.7706 0.25968 0.71029 0.0
C685 C 0.76073 0.24455 0.71446 0.0
C686 C 0.77152 0.23785 0.72681 0.0
C687 C 0.7857 0.24791 0.7292 0.0
C688 C 0.7447 0.24946 0.72189 0.0
C689 C 0.75874 0.23337 0.6991 0.0
C690 C 0.83482 0.24396 0.76457 0.0
C691 C 0.83886 0.2328 0.7758 0.0
C692 C 0.82774 0.21965 0.77876 0.0
C693 C 0.81299 0.21755 0.77058 0.0
C694 C 0.80921 0.22873 0.75931 0.0
C695 C 0.81998 0.24174 0.75658 0.0
C696 C 0.81378 0.25257 0.74443 0.0
C697 C 0.79756 0.24384 0.74023 0.0
C698 C 0.79501 0.22985 0.74891 0.0
C699 C 0.81201 0.26935 0.75284 0.0
C700 C 0.82539 0.25273 0.72992 0.0
H701 H 0.73753 0.2165 0.71816 0.0
H702 H 0.75359 0.17664 0.75642 0.0
H703 H 0.7853 0.18611 0.73686 0.0
H704 H 0.80005 0.19491 0.75026 0.0
H705 H 0.78513 0.18008 0.75723 0.0
H706 H 0.76079 0.21111 0.77467 0.0
H707 H 0.77284 0.19471 0.77845 0.0
H708 H 0.78147 0.21526 0.77828 0.0
H709 H 0.75527 0.26877 0.69251 0.0
H710 H 0.80049 0.29628 0.70283 0.0
H711 H 0.80719 0.27715 0.72209 0.0
H712 H 0.74674 0.26055 0.72981 0.0
H713 H 0.73599 0.25201 0.71241 0.0
H714 H 0.73902 0.24028 0.72963 0.0
H715 H 0.76966 0.23456 0.69147 0.0
H716 H 0.7573 0.22045 0.70168 0.0
H717 H 0.74835 0.23641 0.69178 0.0
H718 H 0.72015 0.1924 0.72185 0.0
C719 C 0.74136 0.20818 0.72655 0.0
C720 C 0.58387 0.65074 0.54902 0.0
C721 C 0.57291 0.66274 0.54834 0.0
C722 C 0.56263 0.6653 0.56147 0.0
C723 C 0.57358 0.64352 0.57515 0.0
C724 C 0.58409 0.64139 0.56256 0.0
C725 C 0.59493 0.6281 0.56527 0.0
H726 H 0.61457 0.56642 0.60973 0.0
C727 C 0.57637 0.63141 0.58705 0.0
C728 C 0.58904 0.62249 0.58146 0.0
H729 H 0.63573 0.58189 0.56516 0.0
H730 H 0.61896 0.60421 0.56536 0.0
H731 H 0.61384 0.60147 0.62669 0.0
H732 H 0.57792 0.57169 0.59967 0.0
H733 H 0.56874 0.57964 0.61694 0.0
H734 H 0.58498 0.56684 0.61907 0.0
H735 H 0.60263 0.58478 0.63532 0.0
H736 H 0.59524 0.60466 0.6357 0.0
C737 C 0.61254 0.63556 0.56612 0.0
C738 C 0.59163 0.61489 0.55173 0.0
C739 C 0.53808 0.62439 0.63399 0.0
C740 C 0.53724 0.61379 0.64663 0.0
C741 C 0.54959 0.60332 0.64839 0.0
C742 C 0.56221 0.60293 0.63733 0.0
C743 C 0.56251 0.61309 0.62434 0.0
C744 C 0.55083 0.62392 0.62309 0.0
C745 C 0.55345 0.63422 0.60886 0.0
C746 C 0.56829 0.62739 0.60146 0.0
C747 C 0.57341 0.61488 0.61047 0.0
C748 C 0.55684 0.65201 0.61505 0.0
C749 C 0.53853 0.63117 0.59773 0.0
C750 C 0.61557 0.5746 0.6 0.0
C751 C 0.6265 0.57232 0.58741 0.0
C752 C 0.62757 0.58344 0.57512 0.0
C753 C 0.6177 0.59634 0.57516 0.0
C754 C 0.6065 0.59816 0.58756 0.0
C755 C 0.60574 0.58754 0.59983 0.0
C756 C 0.59309 0.59133 0.61198 0.0
C757 C 0.5863 0.6059 0.6049 0.0
C758 C 0.59413 0.60975 0.59053 0.0
C759 C 0.6015 0.59569 0.62835 0.0
C760 C 0.5805 0.57665 0.6121 0.0
H761 H 0.5546 0.65815 0.58431 0.0
H762 H 0.59206 0.64864 0.5392 0.0
H763 H 0.57854 0.61318 0.5489 0.0
H764 H 0.595 0.6029 0.55501 0.0
H765 H 0.59802 0.61823 0.54056 0.0
H766 H 0.61316 0.6481 0.57143 0.0
H767 H 0.61799 0.63601 0.55399 0.0
H768 H 0.62024 0.62905 0.57399 0.0
H769 H 0.52889 0.63276 0.63252 0.0
H770 H 0.54917 0.59501 0.65802 0.0
H771 H 0.57107 0.59447 0.63914 0.0
H772 H 0.56211 0.65284 0.62734 0.0
H773 H 0.54562 0.65843 0.61553 0.0
H774 H 0.56585 0.65874 0.60769 0.0
H775 H 0.53473 0.61806 0.59656 0.0
H776 H 0.54078 0.6349 0.58539 0.0
H777 H 0.52821 0.6375 0.60264 0.0
H778 H 0.55399 0.67438 0.56119 0.0
C779 C 0.56291 0.65578 0.57485 0.0
C780 C 0.56367 0.41899 0.97228 0.0
C781 C 0.54843 0.41068 0.97365 0.0
C782 C 0.53639 0.41329 0.96234 0.0
C783 C 0.55438 0.43309 0.94963 0.0
C784 C 0.56628 0.43023 0.96044 0.0
C785 C 0.58116 0.44135 0.95874 0.0
H786 H 0.61709 0.50798 0.92743 0.0
C787 C 0.56064 0.44638 0.93966 0.0
C788 C 0.57629 0.4513 0.94502 0.0
H789 H 0.63413 0.48008 0.96549 0.0
H790 H 0.61167 0.46033 0.9612 0.0
H791 H 0.58073 0.50564 0.93766 0.0
H792 H 0.60605 0.47708 0.90321 0.0
H793 H 0.58665 0.47827 0.89534 0.0
H794 H 0.59969 0.49648 0.89869 0.0
H795 H 0.58868 0.51321 0.91926 0.0
H796 H 0.56896 0.50296 0.9201 0.0
C797 C 0.58383 0.45163 0.97468 0.0
C798 C 0.59524 0.43101 0.95397 0.0
C799 C 0.52484 0.468 0.89754 0.0
C800 C 0.52726 0.48058 0.88691 0.0
C801 C 0.5425 0.48913 0.88636 0.0
C802 C 0.55498 0.48551 0.89652 0.0
C803 C 0.55222 0.47329 0.90744 0.0
C804 C 0.53747 0.46453 0.9076 0.0
C805 C 0.53685 0.45181 0.91988 0.0
C806 C 0.55363 0.45446 0.92709 0.0
C807 C 0.56249 0.46721 0.91989 0.0
C808 C 0.52362 0.45562 0.93225 0.0
C809 C 0.53413 0.4351 0.91097 0.0
C810 C 0.61609 0.49744 0.93461 0.0
C811 C 0.62724 0.49562 0.94692 0.0
C812 C 0.62553 0.48183 0.95611 0.0
C813 C 0.61247 0.4704 0.95361 0.0
C814 C 0.60084 0.47291 0.94197 0.0
C815 C 0.60295 0.48602 0.93242 0.0
C816 C 0.58916 0.48686 0.92091 0.0
C817 C 0.57818 0.47243 0.92557 0.0
C818 C 0.58509 0.46437 0.93793 0.0
C819 C 0.58144 0.50301 0.9245 0.0
C820 C 0.59562 0.48469 0.9036 0.0
H821 H 0.52958 0.42598 0.94226 0.0
H822 H 0.57332 0.41719 0.98055 0.0
H823 H 0.59117 0.42116 0.94509 0.0
H824 H 0.60519 0.43796 0.94806 0.0
H825 H 0.60006 0.42535 0.96458 0.0
H826 H 0.57237 0.45267 0.98137 0.0
H827 H 0.59234 0.44622 0.98274 0.0
H828 H 0.58821 0.46426 0.97278 0.0
H829 H 0.51334 0.46106 0.8981 0.0
H830 H 0.54465 0.49895 0.87839 0.0
H831 H 0.56621 0.49261 0.89569 0.0
H832 H 0.52275 0.46886 0.93402 0.0
H833 H 0.51163 0.45021 0.92818 0.0
H834 H 0.52615 0.45154 0.94433 0.0
H835 H 0.54122 0.43474 0.89969 0.0
H836 H 0.53819 0.42521 0.91795 0.0
H837 H 0.52125 0.43238 0.90773 0.0
H838 H 0.52446 0.40727 0.96312 0.0
C839 C 0.53932 0.42434 0.95029 0.0
C840 C 0.75161 0.21122 0.30982 0.0
C841 C 0.75213 0.20139 0.29569 0.0
C842 C 0.74103 0.20338 0.28328 0.0
C843 C 0.7293 0.22464 0.29915 0.0
C844 C 0.74019 0.22269 0.31128 0.0
C845 C 0.73815 0.23409 0.32551 0.0
H846 H 0.6996 0.29487 0.36094 0.0
C847 C 0.71917 0.23774 0.30445 0.0
C848 C 0.72435 0.24334 0.31987 0.0
H849 H 0.73785 0.26908 0.3803 0.0
H850 H 0.73869 0.25279 0.35582 0.0
H851 H 0.6796 0.26263 0.34491 0.0
H852 H 0.71392 0.2982 0.32624 0.0
H853 H 0.69959 0.29314 0.31106 0.0
H854 H 0.69337 0.30228 0.32987 0.0
H855 H 0.67528 0.28318 0.34247 0.0
H856 H 0.67239 0.26816 0.3263 0.0
C857 C 0.73341 0.22395 0.34014 0.0
C858 C 0.75391 0.2451 0.32774 0.0
C859 C 0.6744 0.25372 0.26832 0.0
C860 C 0.66357 0.26586 0.26973 0.0
C861 C 0.66435 0.27645 0.28342 0.0
C862 C 0.67553 0.2748 0.29568 0.0
C863 C 0.68615 0.26247 0.29422 0.0
C864 C 0.68563 0.25233 0.2806 0.0
C865 C 0.69835 0.24042 0.28079 0.0
C866 C 0.70631 0.24483 0.29693 0.0
C867 C 0.69901 0.25765 0.3048 0.0
C868 C 0.68983 0.22322 0.28025 0.0
C869 C 0.70999 0.24376 0.26665 0.0
C870 C 0.70805 0.28562 0.35997 0.0
C871 C 0.71873 0.28337 0.37261 0.0
C872 C 0.72968 0.2713 0.3707 0.0
C873 C 0.73007 0.26174 0.35648 0.0
C874 C 0.71937 0.26415 0.34396 0.0
C875 C 0.70856 0.27589 0.34583 0.0
C876 C 0.69799 0.27659 0.33128 0.0
C877 C 0.70422 0.2633 0.32042 0.0
C878 C 0.71676 0.25611 0.32791 0.0
C879 C 0.68034 0.27255 0.33639 0.0
C880 C 0.70121 0.29342 0.32421 0.0
H881 H 0.72148 0.21577 0.27512 0.0
H882 H 0.76007 0.21016 0.31951 0.0
H883 H 0.75911 0.24828 0.31592 0.0
H884 H 0.75209 0.25678 0.33401 0.0
H885 H 0.76311 0.23897 0.33433 0.0
H886 H 0.72625 0.21258 0.33634 0.0
H887 H 0.74424 0.22058 0.34659 0.0
H888 H 0.72556 0.23014 0.34869 0.0
H889 H 0.67425 0.24557 0.2578 0.0
H890 H 0.65607 0.28586 0.28477 0.0
H891 H 0.67542 0.28315 0.30585 0.0
H892 H 0.67898 0.22279 0.28802 0.0
H893 H 0.68587 0.21938 0.26785 0.0
H894 H 0.69742 0.21413 0.28483 0.0
H895 H 0.71109 0.2568 0.2641 0.0
H896 H 0.72243 0.24086 0.26923 0.0
H897 H 0.70568 0.23697 0.2555 0.0
H898 H 0.74103 0.19584 0.27235 0.0
C899 C 0.72963 0.21491 0.28495 0.0
C900 C 0.38705 0.05745 0.96833 0.0
C901 C 0.38229 0.04286 0.95996 0.0
C902 C 0.39001 0.03885 0.94546 0.0
C903 C 0.40803 0.06304 0.94879 0.0
C904 C 0.39985 0.06734 0.96254 0.0
C905 C 0.40672 0.08299 0.97034 0.0
H906 H 0.46814 0.14039 0.97735 0.0
C907 C 0.4216 0.07526 0.94684 0.0
C908 C 0.42078 0.08707 0.95934 0.0
H909 H 0.42475 0.13603 0.00563 0.0
H910 H 0.41428 0.11358 0.98837 0.0
H911 H 0.44992 0.13551 0.94344 0.0
H912 H 0.47303 0.10294 0.97283 0.0
H913 H 0.47872 0.09874 0.95291 0.0
H914 H 0.48389 0.11845 0.96209 0.0
H915 H 0.47138 0.13493 0.944 0.0
H916 H 0.45902 0.12203 0.93015 0.0
C917 C 0.39383 0.09546 0.96975 0.0
C918 C 0.41233 0.07959 0.98748 0.0
C919 C 0.4642 0.06584 0.90452 0.0
C920 C 0.47914 0.07406 0.90137 0.0
C921 C 0.48368 0.08864 0.90999 0.0
C922 C 0.47373 0.09473 0.92192 0.0
C923 C 0.45914 0.08607 0.92544 0.0
C924 C 0.45446 0.072 0.91666 0.0
C925 C 0.43874 0.06425 0.92241 0.0
C926 C 0.43478 0.07601 0.93604 0.0
C927 C 0.44685 0.08869 0.93779 0.0
C928 C 0.42631 0.06384 0.90856 0.0
C929 C 0.44195 0.04744 0.92844 0.0
C930 C 0.45639 0.13455 0.97978 0.0
C931 C 0.44731 0.13977 0.99292 0.0
C932 C 0.43193 0.13216 0.99555 0.0
C933 C 0.42592 0.11909 0.98558 0.0
C934 C 0.43541 0.11356 0.97286 0.0
C935 C 0.45014 0.12157 0.96984 0.0
C936 C 0.45821 0.11443 0.95537 0.0
C937 C 0.44603 0.1006 0.95043 0.0
C938 C 0.43287 0.09998 0.9609 0.0
C939 C 0.45988 0.12734 0.94254 0.0
C940 C 0.47437 0.10838 0.96092 0.0
H941 H 0.40849 0.04503 0.92889 0.0
H942 H 0.38108 0.06098 0.97933 0.0
H943 H 0.41881 0.06838 0.98734 0.0
H944 H 0.42085 0.08914 0.9928 0.0
H945 H 0.40189 0.07797 0.99568 0.0
H946 H 0.38523 0.09254 0.95964 0.0
H947 H 0.38671 0.09581 0.98099 0.0
H948 H 0.39915 0.10775 0.96756 0.0
H949 H 0.46048 0.05455 0.89814 0.0
H950 H 0.49505 0.09525 0.90758 0.0
H951 H 0.47796 0.10578 0.92817 0.0
H952 H 0.4283 0.07468 0.9013 0.0
H953 H 0.42724 0.05304 0.90038 0.0
H954 H 0.4138 0.06412 0.91289 0.0
H955 H 0.45368 0.04793 0.93488 0.0
H956 H 0.433 0.04293 0.93719 0.0
H957 H 0.44237 0.03839 0.91828 0.0
H958 H 0.38647 0.02766 0.93879 0.0
C959 C 0.40285 0.04888 0.93982 0.0
O960 O 0.24159 0.88573 0.02207 0.0
Cd961 Cd 0.25029 0.9015 0.04056 0.0
Cd962 Cd 0.22787 0.91931 0.02886 0.0
O963 O 0.22019 0.89839 0.01621 0.0
O964 O 0.26349 0.88846 0.0541 0.0
O965 O 0.24114 0.89871 0.0627 0.0
C966 C 0.25311 0.89018 0.06537 0.0
C967 C 0.20995 0.93569 0.04182 0.0
C968 C 0.22864 0.88639 0.01412 0.0
C969 C 0.26213 0.93147 0.02488 0.0
O970 O 0.24776 0.9319 0.01998 0.0
O971 O 0.26565 0.92104 0.0347 0.0
O972 O 0.21042 0.93401 0.0264 0.0
O973 O 0.21918 0.92735 0.05005 0.0
O974 O 0.14297 0.52807 0.27173 0.0
Cd975 Cd 0.12894 0.50868 0.28017 0.0
Cd976 Cd 0.10826 0.51738 0.25767 0.0
O977 O 0.12727 0.53296 0.25153 0.0
O978 O 0.14425 0.49574 0.29131 0.0
O979 O 0.13032 0.48657 0.26973 0.0
C980 C 0.14085 0.4843 0.28062 0.0
C981 C 0.09215 0.50401 0.23768 0.0
C982 C 0.14019 0.53604 0.25952 0.0
C983 C 0.09797 0.52008 0.29218 0.0
O984 O 0.09555 0.5235 0.27776 0.0
O985 O 0.11043 0.51313 0.29592 0.0
O986 O 0.09242 0.51939 0.24027 0.0
O987 O 0.10165 0.49612 0.24606 0.0
O988 O 0.76221 0.67166 0.99193 0.0
Cd989 Cd 0.75518 0.65665 0.01019 0.0
Cd990 Cd 0.77753 0.63924 0.99627 0.0
O991 O 0.78348 0.65942 0.98366 0.0
O992 O 0.74194 0.66997 0.02465 0.0
O993 O 0.76515 0.66135 0.03209 0.0
C994 C 0.7529 0.6695 0.03548 0.0
C995 C 0.79629 0.62566 0.00999 0.0
C996 C 0.77449 0.67104 0.98293 0.0
C997 C 0.74375 0.62511 0.99404 0.0
O998 O 0.75777 0.62501 0.98815 0.0
O999 O 0.74045 0.636 0.00444 0.0
O1000 O 0.79566 0.62507 0.99452 0.0
O1001 O 0.78673 0.63476 0.01773 0.0
O1002 O 0.90069 0.03117 0.2742 0.0
Cd1003 Cd 0.88715 0.04067 0.25669 0.0
Cd1004 Cd 0.87165 0.05022 0.28215 0.0
O1005 O 0.89239 0.04632 0.29439 0.0
O1006 O 0.90095 0.0393 0.23735 0.0
O1007 O 0.89455 0.06248 0.24867 0.0
C1008 C 0.90241 0.05484 0.23779 0.0
C1009 C 0.85999 0.07478 0.28431 0.0
C1010 C 0.90194 0.03632 0.28875 0.0
C1011 C 0.8553 0.02408 0.26112 0.0
O1012 O 0.85658 0.03015 0.27535 0.0
O1013 O 0.86544 0.02842 0.25052 0.0
O1014 O 0.85874 0.06475 0.29566 0.0
O1015 O 0.86838 0.07104 0.27183 0.0
O1016 O 0.26141 0.17025 0.49223 0.0
Cd1017 Cd 0.25347 0.15631 0.51079 0.0
Cd1018 Cd 0.27703 0.13773 0.49982 0.0
O1019 O 0.28158 0.15613 0.48429 0.0
O1020 O 0.24017 0.17029 0.52448 0.0
O1021 O 0.26289 0.16125 0.53285 0.0
C1022 C 0.25075 0.16973 0.53568 0.0
C1023 C 0.29749 0.12626 0.51334 0.0
C1024 C 0.27319 0.16814 0.4829 0.0
C1025 C 0.243 0.12304 0.49792 0.0
O1026 O 0.25768 0.12164 0.49451 0.0
O1027 O 0.23866 0.13585 0.50497 0.0
O1028 O 0.29567 0.1242 0.49803 0.0
O1029 O 0.28819 0.13571 0.52097 0.0
O1030 O 0.40351 0.53548 0.77527 0.0
Cd1031 Cd 0.38891 0.54262 0.75729 0.0
Cd1032 Cd 0.3708 0.54949 0.78302 0.0
O1033 O 0.3903 0.54418 0.79645 0.0
O1034 O 0.40325 0.5423 0.7383 0.0
O1035 O 0.39437 0.56474 0.74895 0.0
C1036 C 0.40325 0.55777 0.73846 0.0
C1037 C 0.35864 0.5736 0.78694 0.0
C1038 C 0.40238 0.53774 0.79039 0.0
C1039 C 0.3573 0.52356 0.75954 0.0
O1040 O 0.35639 0.53029 0.77345 0.0
O1041 O 0.36889 0.52764 0.75034 0.0
O1042 O 0.3562 0.56205 0.79664 0.0
O1043 O 0.36859 0.5717 0.77524 0.0
O1044 O 0.745 0.38582 0.5237 0.0
Cd1045 Cd 0.75227 0.40081 0.54334 0.0
Cd1046 Cd 0.72997 0.4177 0.53071 0.0
O1047 O 0.72244 0.39667 0.51811 0.0
O1048 O 0.76514 0.38724 0.55662 0.0
O1049 O 0.74239 0.39678 0.56496 0.0
C1050 C 0.7544 0.3883 0.56763 0.0
C1051 C 0.71239 0.43476 0.54296 0.0
C1052 C 0.73194 0.38556 0.51575 0.0
C1053 C 0.76433 0.43065 0.52861 0.0
O1054 O 0.75039 0.43003 0.52239 0.0
O1055 O 0.76746 0.42096 0.53927 0.0
O1056 O 0.71384 0.43361 0.52759 0.0
O1057 O 0.72018 0.42539 0.55152 0.0
O1058 O 0.64212 0.02666 0.77524 0.0
Cd1059 Cd 0.6279 0.0066 0.7814 0.0
Cd1060 Cd 0.60928 0.01439 0.75734 0.0
O1061 O 0.62912 0.02991 0.75275 0.0
O1062 O 0.6416 0.9916 0.79194 0.0
O1063 O 0.62963 0.98599 0.76838 0.0
C1064 C 0.6389 0.98177 0.77964 0.0
C1065 C 0.59479 0.00093 0.73624 0.0
C1066 C 0.64076 0.03393 0.76232 0.0
C1067 C 0.59596 0.01681 0.79091 0.0
O1068 O 0.59457 0.02009 0.77629 0.0
O1069 O 0.60833 0.01038 0.79571 0.0
O1070 O 0.59501 0.01634 0.73858 0.0
O1071 O 0.60356 0.99309 0.74544 0.0
O1072 O 0.98875 0.27642 0.91578 0.0
Cd1073 Cd 0.99822 0.25863 0.90145 0.0
Cd1074 Cd 0.00893 0.28377 0.88556 0.0
O1075 O 0.00326 0.29692 0.90607 0.0
O1076 O 0.99749 0.23954 0.91498 0.0
O1077 O 0.02024 0.25192 0.90683 0.0
C1078 C 0.013 0.24083 0.91511 0.0
C1079 C 0.03398 0.28747 0.87334 0.0
C1080 C 0.99333 0.29134 0.91634 0.0
C1081 C 0.98284 0.26154 0.87007 0.0
O1082 O 0.99 0.27559 0.87061 0.0
O1083 O 0.9858 0.25161 0.8806 0.0
O1084 O 0.02343 0.29797 0.87246 0.0
O1085 O 0.03049 0.27501 0.88171 0.0
O1086 O 0.48816 0.77686 0.41455 0.0
Cd1087 Cd 0.49764 0.75833 0.40147 0.0
Cd1088 Cd 0.50925 0.78209 0.38392 0.0
O1089 O 0.50284 0.79647 0.40345 0.0
O1090 O 0.49747 0.74013 0.41608 0.0
O1091 O 0.51989 0.75245 0.407 0.0
C1092 C 0.51299 0.74175 0.41597 0.0
C1093 C 0.53445 0.78615 0.37202 0.0
C1094 C 0.4928 0.79171 0.414 0.0
C1095 C 0.48301 0.75899 0.36942 0.0
O1096 O 0.491 0.77255 0.36865 0.0
O1097 O 0.48493 0.75023 0.38124 0.0
O1098 O 0.52348 0.79608 0.37036 0.0
O1099 O 0.53129 0.77408 0.381 0.0
O1100 O 0.98844 0.77959 0.65624 0.0
Cd1101 Cd 0.00825 0.77404 0.64273 0.0
Cd1102 Cd 0.99725 0.79763 0.62445 0.0
O1103 O 0.98321 0.80169 0.64428 0.0
O1104 O 0.02108 0.76117 0.65682 0.0
O1105 O 0.02997 0.78506 0.64852 0.0
C1106 C 0.0323 0.77271 0.65682 0.0
C1107 C 0.00799 0.81926 0.61008 0.0
C1108 C 0.98045 0.79195 0.6554 0.0
C1109 C 0.99611 0.76373 0.61003 0.0
O1110 O 0.99104 0.77771 0.60961 0.0
O1111 O 0.00448 0.76001 0.62184 0.0
O1112 O 0.99275 0.81544 0.61047 0.0
O1113 O 0.01726 0.81129 0.61865 0.0
O1114 O 0.48757 0.28168 0.15987 0.0
Cd1115 Cd 0.50708 0.27413 0.1469 0.0
Cd1116 Cd 0.49471 0.29514 0.12516 0.0
O1117 O 0.47992 0.30027 0.14404 0.0
O1118 O 0.51992 0.26299 0.1625 0.0
O1119 O 0.52907 0.28535 0.15116 0.0
C1120 C 0.53136 0.2741 0.1609 0.0
C1121 C 0.50282 0.31527 0.1077 0.0
C1122 C 0.47838 0.29273 0.15691 0.0
C1123 C 0.49506 0.25964 0.11538 0.0
O1124 O 0.4902 0.27339 0.11294 0.0
O1125 O 0.50307 0.25738 0.12792 0.0
O1126 O 0.48813 0.30938 0.1083 0.0
O1127 O 0.51296 0.31043 0.11779 0.0
H1128 H 0.20699 0.81455 0.87555 0.0
H1129 H 0.20583 0.83046 0.90065 0.0
H1130 H 0.22926 0.79408 0.92514 0.0
H1131 H 0.22909 0.77737 0.90043 0.0
H1132 H 0.208 0.8045 0.9438 0.0
H1133 H 0.24947 0.83087 0.9126 0.0
H1134 H 0.2615 0.84379 0.88899 0.0
H1135 H 0.22782 0.88034 0.89299 0.0
H1136 H 0.21546 0.86752 0.91652 0.0
H1137 H 0.24103 0.85707 0.00871 0.0
H1138 H 0.23655 0.83858 0.98517 0.0
H1139 H 0.20263 0.86961 0.96639 0.0
H1140 H 0.20684 0.88805 0.98992 0.0
H1141 H 0.22822 0.86214 0.94524 0.0
H1142 H 0.18837 0.83529 0.97853 0.0
H1143 H 0.17867 0.82224 0.00299 0.0
H1144 H 0.21263 0.78628 0.99592 0.0
H1145 H 0.22271 0.79926 0.97153 0.0
C1146 C 0.21163 0.80972 0.88629 0.0
C1147 C 0.21824 0.79463 0.8858 0.0
C1148 C 0.21119 0.819 0.90064 0.0
C1149 C 0.2178 0.81368 0.91477 0.0
C1150 C 0.22417 0.79854 0.9144 0.0
C1151 C 0.22429 0.78908 0.90014 0.0
C1152 C 0.21822 0.82392 0.92989 0.0
C1153 C 0.2126 0.81705 0.94411 0.0
C1154 C 0.22402 0.84039 0.93035 0.0
C1155 C 0.23143 0.84813 0.91622 0.0
C1156 C 0.24456 0.8416 0.90838 0.0
C1157 C 0.25145 0.84891 0.89502 0.0
C1158 C 0.2454 0.86285 0.88947 0.0
C1159 C 0.23248 0.86953 0.89729 0.0
C1160 C 0.22553 0.86225 0.91064 0.0
C1161 C 0.2324 0.85981 0.99972 0.0
C1162 C 0.22434 0.87406 0.00116 0.0
C1163 C 0.22984 0.84923 0.9863 0.0
C1164 C 0.21929 0.85279 0.97407 0.0
C1165 C 0.21082 0.86669 0.97572 0.0
C1166 C 0.21321 0.87716 0.98922 0.0
C1167 C 0.21803 0.84268 0.95899 0.0
C1168 C 0.22355 0.84959 0.94483 0.0
C1169 C 0.2125 0.82621 0.95867 0.0
C1170 C 0.20639 0.81834 0.97328 0.0
C1171 C 0.19387 0.82468 0.98227 0.0
C1172 C 0.18828 0.81728 0.9961 0.0
C1173 C 0.19506 0.80346 0.00103 0.0
C1174 C 0.20741 0.79699 0.9921 0.0
C1175 C 0.21305 0.80436 0.97826 0.0
H1176 H 0.19071 0.79775 0.01175 0.0
H1177 H 0.25075 0.86849 0.87913 0.0
H1178 H 0.99407 0.54387 0.40566 0.0
H1179 H 0.01387 0.53266 0.38732 0.0
H1180 H 0.00921 0.57185 0.35602 0.0
H1181 H 0.98969 0.58328 0.37448 0.0
H1182 H 0.00838 0.53841 0.34089 0.0
H1183 H 0.03914 0.57608 0.37767 0.0
H1184 H 0.04779 0.58667 0.40464 0.0
H1185 H 0.06541 0.541 0.41463 0.0
H1186 H 0.05663 0.53007 0.38778 0.0
H1187 H 0.07421 0.54046 0.28954 0.0
H1188 H 0.05365 0.54654 0.30907 0.0
H1189 H 0.07338 0.51461 0.34194 0.0
H1190 H 0.09447 0.5088 0.32249 0.0
H1191 H 0.06575 0.5409 0.35757 0.0
H1192 H 0.03815 0.5035 0.32071 0.0
H1193 H 0.02885 0.49137 0.2945 0.0
H1194 H 0.00453 0.53369 0.28531 0.0
H1195 H 0.01387 0.54619 0.31138 0.0
C1196 C 0.99721 0.54997 0.39478 0.0
C1197 C 0.99046 0.56442 0.39142 0.0
C1198 C 0.00849 0.54361 0.38439 0.0
C1199 C 0.01295 0.55148 0.3704 0.0
C1200 C 0.00586 0.56563 0.36678 0.0
C1201 C 0.99481 0.57216 0.37731 0.0
C1202 C 0.02545 0.54531 0.35977 0.0
C1203 C 0.02096 0.53903 0.34442 0.0
C1204 C 0.04169 0.5456 0.36473 0.0
C1205 C 0.04705 0.5522 0.38081 0.0
C1206 C 0.04471 0.56825 0.38568 0.0
C1207 C 0.04967 0.57433 0.40093 0.0
C1208 C 0.0571 0.5645 0.41137 0.0
C1209 C 0.05963 0.54859 0.40655 0.0
C1210 C 0.05467 0.54245 0.39132 0.0
C1211 C 0.07422 0.5347 0.30091 0.0
C1212 C 0.08592 0.52405 0.30443 0.0
C1213 C 0.06236 0.53812 0.31204 0.0
C1214 C 0.06172 0.53073 0.32682 0.0
C1215 C 0.07358 0.52035 0.33055 0.0
C1216 C 0.08562 0.51705 0.31944 0.0
C1217 C 0.04882 0.53426 0.3384 0.0
C1218 C 0.05318 0.54003 0.35399 0.0
C1219 C 0.0324 0.53324 0.33373 0.0
C1220 C 0.02681 0.52583 0.31798 0.0
C1221 C 0.03093 0.51028 0.31305 0.0
C1222 C 0.02563 0.50333 0.29823 0.0
C1223 C 0.01611 0.51176 0.28825 0.0
C1224 C 0.0119 0.52717 0.29306 0.0
C1225 C 0.01717 0.53419 0.30787 0.0
H1226 H 0.01196 0.50632 0.27682 0.0
H1227 H 0.06093 0.56923 0.42317 0.0
H1228 H 0.76609 0.77902 0.87866 0.0
H1229 H 0.76705 0.76246 0.90197 0.0
H1230 H 0.78955 0.72601 0.87336 0.0
H1231 H 0.7878 0.74207 0.84979 0.0
H1232 H 0.76775 0.71224 0.8914 0.0
H1233 H 0.8112 0.75232 0.90054 0.0
H1234 H 0.82452 0.77978 0.90325 0.0
H1235 H 0.79394 0.791 0.94297 0.0
H1236 H 0.78027 0.76366 0.94035 0.0
H1237 H 0.79374 0.66897 0.95655 0.0
H1238 H 0.79566 0.6871 0.93428 0.0
H1239 H 0.76373 0.71831 0.95884 0.0
H1240 H 0.76155 0.70014 0.98112 0.0
H1241 H 0.79125 0.73463 0.94313 0.0
H1242 H 0.74753 0.69379 0.9326 0.0
H1243 H 0.73556 0.6658 0.92969 0.0
H1244 H 0.76886 0.65555 0.89201 0.0
H1245 H 0.7812 0.68344 0.89487 0.0
C1246 C 0.77106 0.76739 0.87726 0.0
C1247 C 0.77692 0.76192 0.86233 0.0
C1248 C 0.7718 0.75803 0.89067 0.0
C1249 C 0.77864 0.7431 0.8895 0.0
C1250 C 0.78432 0.73752 0.87459 0.0
C1251 C 0.78345 0.74681 0.86115 0.0
C1252 C 0.77961 0.73317 0.90375 0.0
C1253 C 0.77311 0.7171 0.90261 0.0
C1254 C 0.7864 0.73954 0.9185 0.0
C1255 C 0.79461 0.75598 0.92014 0.0
C1256 C 0.80723 0.76068 0.90977 0.0
C1257 C 0.81485 0.77622 0.91131 0.0
C1258 C 0.81005 0.78714 0.92325 0.0
C1259 C 0.79763 0.78253 0.93371 0.0
C1260 C 0.78995 0.76701 0.93221 0.0
C1261 C 0.78733 0.67982 0.95735 0.0
C1262 C 0.7774 0.68306 0.97055 0.0
C1263 C 0.78841 0.69012 0.9446 0.0
C1264 C 0.77972 0.70393 0.9449 0.0
C1265 C 0.7705 0.70768 0.95842 0.0
C1266 C 0.76924 0.69727 0.97109 0.0
C1267 C 0.7794 0.71383 0.93067 0.0
C1268 C 0.78598 0.72984 0.93184 0.0
C1269 C 0.77288 0.70737 0.91588 0.0
C1270 C 0.7654 0.69064 0.91407 0.0
C1271 C 0.7524 0.68552 0.92379 0.0
C1272 C 0.74553 0.66969 0.92213 0.0
C1273 C 0.75148 0.65889 0.9107 0.0
C1274 C 0.76429 0.66392 0.90088 0.0
C1275 C 0.77121 0.67974 0.90251 0.0
H1276 H 0.74614 0.64663 0.90943 0.0
H1277 H 0.81597 0.79917 0.92442 0.0
H1278 H 0.00536 0.9606 0.36674 0.0
H1279 H 0.98331 0.96937 0.35048 0.0
H1280 H 0.99396 0.01836 0.36869 0.0
H1281 H 0.0159 0.0097 0.38491 0.0
H1282 H 0.96089 0.00827 0.36853 0.0
H1283 H 0.00691 0.00814 0.33299 0.0
H1284 H 0.02916 0.99558 0.31898 0.0
H1285 H 0.99548 0.96024 0.29597 0.0
H1286 H 0.97304 0.97247 0.31004 0.0
H1287 H 0.91732 0.05178 0.31466 0.0
H1288 H 0.93791 0.04151 0.33152 0.0
H1289 H 0.93394 0.99633 0.30367 0.0
H1290 H 0.91418 0.00698 0.28621 0.0
H1291 H 0.96319 0.00321 0.30915 0.0
H1292 H 0.91703 0.00252 0.34336 0.0
H1293 H 0.89413 0.01362 0.35764 0.0
H1294 H 0.9265 0.04812 0.38353 0.0
H1295 H 0.94958 0.03736 0.36926 0.0
C1296 C 0.00289 0.97321 0.36732 0.0
C1297 C 0.01239 0.98451 0.37696 0.0
C1298 C 0.99038 0.9782 0.35801 0.0
C1299 C 0.98711 0.99452 0.35834 0.0
C1300 C 0.99632 0.00572 0.36826 0.0
C1301 C 0.0089 0.00078 0.37741 0.0
C1302 C 0.97431 1.0001 0.34812 0.0
C1303 C 0.9614 0.0073 0.35554 0.0
C1304 C 0.97483 0.99839 0.33121 0.0
C1305 C 0.98832 0.99111 0.3227 0.0
C1306 C 0.00426 0.99761 0.32505 0.0
C1307 C 0.01691 0.99057 0.31708 0.0
C1308 C 0.01374 0.97709 0.30663 0.0
C1309 C 0.99792 0.97066 0.30409 0.0
C1310 C 0.98523 0.97765 0.31205 0.0
C1311 C 0.92088 0.03967 0.31218 0.0
C1312 C 0.91418 0.03017 0.29916 0.0
C1313 C 0.93255 0.03374 0.32189 0.0
C1314 C 0.9373 0.01798 0.31912 0.0
C1315 C 0.93054 0.00851 0.30609 0.0
C1316 C 0.91922 0.0146 0.29613 0.0
C1317 C 0.94956 0.01146 0.3295 0.0
C1318 C 0.96248 0.0041 0.32213 0.0
C1319 C 0.94887 0.01277 0.34648 0.0
C1320 C 0.93502 0.01922 0.35513 0.0
C1321 C 0.91925 0.01254 0.35203 0.0
C1322 C 0.90624 0.01876 0.36013 0.0
C1323 C 0.90885 0.03159 0.37146 0.0
C1324 C 0.92449 0.0382 0.37474 0.0
C1325 C 0.93754 0.03203 0.36666 0.0
H1326 H 0.89876 0.03639 0.37772 0.0
H1327 H 0.02355 0.97166 0.30047 0.0
H1328 H 0.20947 0.26489 0.65039 0.0
H1329 H 0.21341 0.24443 0.62909 0.0
H1330 H 0.26445 0.24834 0.63894 0.0
H1331 H 0.26058 0.26908 0.66006 0.0
H1332 H 0.25972 0.24766 0.60805 0.0
H1333 H 0.23905 0.2155 0.65039 0.0
H1334 H 0.22017 0.20718 0.67172 0.0
H1335 H 0.18206 0.19853 0.63702 0.0
H1336 H 0.20067 0.20702 0.6155 0.0
H1337 H 0.27387 0.17768 0.55865 0.0
H1338 H 0.27151 0.19515 0.58291 0.0
H1339 H 0.22173 0.20036 0.57153 0.0
H1340 H 0.22401 0.18311 0.54727 0.0
H1341 H 0.22722 0.19516 0.60423 0.0
H1342 H 0.24791 0.22918 0.56245 0.0
H1343 H 0.26702 0.23741 0.54128 0.0
H1344 H 0.30567 0.24206 0.57564 0.0
H1345 H 0.28681 0.23362 0.59698 0.0
C1346 C 0.22151 0.26127 0.6481 0.0
C1347 C 0.23471 0.26855 0.65691 0.0
C1348 C 0.22375 0.24955 0.63595 0.0
C1349 C 0.2392 0.24464 0.63255 0.0
C1350 C 0.25241 0.25191 0.64134 0.0
C1351 C 0.2502 0.26377 0.65338 0.0
C1352 C 0.24163 0.23229 0.6195 0.0
C1353 C 0.25282 0.23606 0.60741 0.0
C1354 C 0.23244 0.21724 0.61846 0.0
C1355 C 0.22123 0.21202 0.63135 0.0
C1356 C 0.22662 0.21193 0.64732 0.0
C1357 C 0.21597 0.20717 0.65945 0.0
C1358 C 0.19992 0.20236 0.65573 0.0
C1359 C 0.19449 0.20227 0.63988 0.0
C1360 C 0.20509 0.20703 0.62771 0.0
C1361 C 0.26239 0.18242 0.56142 0.0
C1362 C 0.24915 0.1791 0.55102 0.0
C1363 C 0.26107 0.19242 0.57523 0.0
C1364 C 0.24647 0.19911 0.57893 0.0
C1365 C 0.2331 0.19531 0.56889 0.0
C1366 C 0.23445 0.1855 0.555 0.0
C1367 C 0.24522 0.21062 0.59287 0.0
C1368 C 0.23424 0.20669 0.60506 0.0
C1369 C 0.25465 0.22548 0.59407 0.0
C1370 C 0.26599 0.23058 0.58127 0.0
C1371 C 0.26051 0.23181 0.56546 0.0
C1372 C 0.27129 0.23654 0.55343 0.0
C1373 C 0.28756 0.2402 0.5571 0.0
C1374 C 0.29307 0.23918 0.57281 0.0
C1375 C 0.28234 0.23443 0.58488 0.0
H1376 H 0.29588 0.24387 0.54777 0.0
H1377 H 0.19169 0.19868 0.66514 0.0
H1378 H 0.50562 0.6118 0.63798 0.0
H1379 H 0.48224 0.60705 0.65518 0.0
H1380 H 0.5134 0.60895 0.69669 0.0
H1381 H 0.5369 0.6132 0.67936 0.0
H1382 H 0.49405 0.58414 0.69787 0.0
H1383 H 0.48659 0.63895 0.68959 0.0
H1384 H 0.4844 0.66343 0.67444 0.0
H1385 H 0.44281 0.64108 0.64957 0.0
H1386 H 0.44488 0.61637 0.6644 0.0
H1387 H 0.41232 0.59021 0.74056 0.0
H1388 H 0.43443 0.6042 0.72603 0.0
H1389 H 0.44134 0.5603 0.69824 0.0
H1390 H 0.41956 0.54627 0.71273 0.0
H1391 H 0.44248 0.61001 0.69448 0.0
H1392 H 0.48069 0.55455 0.69739 0.0
H1393 H 0.48362 0.53183 0.71485 0.0
H1394 H 0.46557 0.55928 0.75483 0.0
H1395 H 0.46278 0.58225 0.73768 0.0
C1396 C 0.50745 0.61152 0.65081 0.0
C1397 C 0.52306 0.61284 0.65735 0.0
C1398 C 0.49406 0.60887 0.66067 0.0
C1399 C 0.49599 0.6078 0.6773 0.0
C1400 C 0.51158 0.60969 0.6839 0.0
C1401 C 0.52499 0.61211 0.67402 0.0
C1402 C 0.48191 0.60319 0.68752 0.0
C1403 C 0.48285 0.58993 0.69718 0.0
C1404 C 0.46733 0.6109 0.68696 0.0
C1405 C 0.46596 0.62576 0.67805 0.0
C1406 C 0.47704 0.63921 0.68081 0.0
C1407 C 0.47581 0.65313 0.67229 0.0
C1408 C 0.46349 0.6538 0.66103 0.0
C1409 C 0.45235 0.64055 0.6583 0.0
C1410 C 0.45353 0.62659 0.66678 0.0
C1411 C 0.41835 0.58365 0.73112 0.0
C1412 C 0.41435 0.56709 0.72793 0.0
C1413 C 0.43097 0.59165 0.72284 0.0
C1414 C 0.43972 0.58319 0.7113 0.0
C1415 C 0.43493 0.56698 0.70732 0.0
C1416 C 0.42245 0.55898 0.7156 0.0
C1417 C 0.45461 0.59072 0.70423 0.0
C1418 C 0.45379 0.60444 0.69522 0.0
C1419 C 0.46948 0.58375 0.70572 0.0
C1420 C 0.4714 0.57008 0.7162 0.0
C1421 C 0.47743 0.55577 0.70992 0.0
C1422 C 0.47905 0.54285 0.71976 0.0
C1423 C 0.47474 0.5441 0.73592 0.0
C1424 C 0.46886 0.55831 0.7423 0.0
C1425 C 0.46724 0.57128 0.73251 0.0
H1426 H 0.47599 0.53407 0.74352 0.0
H1427 H 0.46255 0.66459 0.65444 0.0
H1428 H 0.74913 0.29805 0.69152 0.0
H1429 H 0.74347 0.31753 0.67151 0.0
H1430 H 0.79168 0.31539 0.65308 0.0
H1431 H 0.79744 0.29619 0.67318 0.0
H1432 H 0.78438 0.34545 0.65565 0.0
H1433 H 0.75795 0.29555 0.63396 0.0
H1434 H 0.7391 0.27126 0.63431 0.0
H1435 H 0.69943 0.30092 0.64099 0.0
H1436 H 0.71808 0.32539 0.64089 0.0
H1437 H 0.77982 0.37249 0.57741 0.0
H1438 H 0.78184 0.3569 0.60122 0.0
H1439 H 0.73421 0.36853 0.61555 0.0
H1440 H 0.73204 0.38422 0.59155 0.0
H1441 H 0.73877 0.33603 0.61728 0.0
H1442 H 0.76581 0.38614 0.63576 0.0
H1443 H 0.7852 0.40992 0.63446 0.0
H1444 H 0.8244 0.37924 0.63292 0.0
H1445 H 0.80523 0.35524 0.63398 0.0
C1446 C 0.75846 0.3017 0.68313 0.0
C1447 C 0.77373 0.29564 0.68392 0.0
C1448 C 0.75522 0.31281 0.6717 0.0
C1449 C 0.76711 0.31785 0.66069 0.0
C1450 C 0.78234 0.31177 0.66149 0.0
C1451 C 0.78563 0.3008 0.67298 0.0
C1452 C 0.76386 0.32949 0.64834 0.0
C1453 C 0.77447 0.34331 0.64719 0.0
C1454 C 0.75065 0.32699 0.63759 0.0
C1455 C 0.73943 0.31229 0.6376 0.0
C1456 C 0.74522 0.29689 0.63563 0.0
C1457 C 0.73457 0.28309 0.63576 0.0
C1458 C 0.71809 0.28454 0.63772 0.0
C1459 C 0.71221 0.29981 0.6395 0.0
C1460 C 0.72281 0.31364 0.6394 0.0
C1461 C 0.76979 0.37186 0.58565 0.0
C1462 C 0.75577 0.37962 0.58259 0.0
C1463 C 0.771 0.36298 0.59931 0.0
C1464 C 0.75824 0.36169 0.61024 0.0
C1465 C 0.74421 0.36944 0.60728 0.0
C1466 C 0.74302 0.37844 0.59361 0.0
C1467 C 0.75952 0.35172 0.62439 0.0
C1468 C 0.74854 0.33826 0.62589 0.0
C1469 C 0.77248 0.35446 0.63539 0.0
C1470 C 0.78406 0.36888 0.63484 0.0
C1471 C 0.77856 0.38445 0.63503 0.0
C1472 C 0.78951 0.39797 0.63436 0.0
C1473 C 0.80602 0.39609 0.63358 0.0
C1474 C 0.81161 0.38068 0.63352 0.0
C1475 C 0.8007 0.36711 0.63418 0.0
H1476 H 0.81448 0.40657 0.63306 0.0
H1477 H 0.70986 0.27385 0.63782 0.0
H1478 H 0.4977 0.94711 0.62575 0.0
H1479 H 0.51904 0.9536 0.64549 0.0
H1480 H 0.48345 0.9605 0.68225 0.0
H1481 H 0.46196 0.95457 0.6622 0.0
H1482 H 0.50556 0.98307 0.68578 0.0
H1483 H 0.50644 0.92651 0.68009 0.0
H1484 H 0.50671 0.89974 0.66621 0.0
H1485 H 0.55266 0.91345 0.64567 0.0
H1486 H 0.55257 0.9404 0.65924 0.0
H1487 H 0.58231 0.96956 0.73563 0.0
H1488 H 0.55968 0.95764 0.71918 0.0
H1489 H 0.55925 0.0016 0.6938 0.0
H1490 H 0.58138 0.01371 0.71052 0.0
H1491 H 0.55288 0.95051 0.68902 0.0
H1492 H 0.52197 0.01105 0.68686 0.0
H1493 H 0.51999 0.0359 0.7038 0.0
H1494 H 0.53076 0.01053 0.74566 0.0
H1495 H 0.53255 0.98548 0.72902 0.0
C1496 C 0.49444 0.94987 0.63808 0.0
C1497 C 0.47821 0.95021 0.64252 0.0
C1498 C 0.50664 0.95349 0.64939 0.0
C1499 C 0.50289 0.95717 0.66547 0.0
C1500 C 0.48665 0.9576 0.66993 0.0
C1501 C 0.4744 0.95422 0.65852 0.0
C1502 C 0.51603 0.96136 0.67733 0.0
C1503 C 0.51584 0.97587 0.68654 0.0
C1504 C 0.52926 0.95176 0.67876 0.0
C1505 C 0.52945 0.93552 0.67062 0.0
C1506 C 0.51656 0.92386 0.67253 0.0
C1507 C 0.51669 0.90864 0.66473 0.0
C1508 C 0.52968 0.90491 0.65504 0.0
C1509 C 0.5426 0.91637 0.65317 0.0
C1510 C 0.54253 0.93161 0.66094 0.0
C1511 C 0.57755 0.97655 0.72634 0.0
C1512 C 0.58346 0.99261 0.72445 0.0
C1513 C 0.5646 0.96975 0.71699 0.0
C1514 C 0.55749 0.97889 0.70556 0.0
C1515 C 0.56422 0.99449 0.70287 0.0
C1516 C 0.57696 0.00136 0.71234 0.0
C1517 C 0.54264 0.9725 0.69687 0.0
C1518 C 0.54251 0.95759 0.68833 0.0
C1519 C 0.52882 0.98142 0.69652 0.0
C1520 C 0.52752 0.99641 0.70665 0.0
C1521 C 0.52383 0.01075 0.69969 0.0
C1522 C 0.52276 0.02488 0.70924 0.0
C1523 C 0.52529 0.0248 0.72579 0.0
C1524 C 0.52884 0.01058 0.73283 0.0
C1525 C 0.52991 0.99642 0.72334 0.0
H1526 H 0.52447 0.03576 0.73315 0.0
H1527 H 0.52976 0.89312 0.649 0.0
H1528 H 0.85853 0.20936 0.7837 0.0
H1529 H 0.8841 0.21282 0.7983 0.0
H1530 H 0.88063 0.26428 0.80159 0.0
H1531 H 0.85483 0.26095 0.78745 0.0
H1532 H 0.91111 0.25518 0.79199 0.0
H1533 H 0.87172 0.24343 0.83322 0.0
H1534 H 0.84952 0.22723 0.84568 0.0
H1535 H 0.87885 0.18705 0.84704 0.0
H1536 H 0.90116 0.20296 0.83437 0.0
H1537 H 0.96699 0.28208 0.85242 0.0
H1538 H 0.94397 0.27556 0.83471 0.0
H1539 H 0.94679 0.22491 0.84232 0.0
H1540 H 0.96946 0.23148 0.86076 0.0
H1541 H 0.91742 0.23146 0.84486 0.0
H1542 H 0.95754 0.24304 0.80549 0.0
H1543 H 0.97996 0.25856 0.79262 0.0
H1544 H 0.95007 0.29771 0.78675 0.0
H1545 H 0.92753 0.28253 0.79978 0.0
C1546 C 0.86309 0.22141 0.78769 0.0
C1547 C 0.85456 0.23487 0.78444 0.0
C1548 C 0.87775 0.22336 0.79594 0.0
C1549 C 0.88419 0.23879 0.80105 0.0
C1550 C 0.87587 0.25227 0.79766 0.0
C1551 C 0.86116 0.25033 0.78951 0.0
C1552 C 0.89953 0.24093 0.81013 0.0
C1553 C 0.91251 0.25012 0.80361 0.0
C1554 C 0.90144 0.23386 0.82503 0.0
C1555 C 0.88804 0.22432 0.83269 0.0
C1556 C 0.87339 0.2311 0.83605 0.0
C1557 C 0.86079 0.22198 0.84317 0.0
C1558 C 0.86275 0.20611 0.8471 0.0
C1559 C 0.87733 0.19934 0.84396 0.0
C1560 C 0.88996 0.2084 0.83682 0.0
C1561 C 0.96287 0.26953 0.85016 0.0
C1562 C 0.97006 0.25729 0.85797 0.0
C1563 C 0.94973 0.2658 0.83994 0.0
C1564 C 0.94375 0.24971 0.83693 0.0
C1565 C 0.95118 0.23741 0.84442 0.0
C1566 C 0.96416 0.24117 0.85491 0.0
C1567 C 0.92913 0.24589 0.82682 0.0
C1568 C 0.91622 0.23638 0.83315 0.0
C1569 C 0.92736 0.25253 0.81165 0.0
C1570 C 0.94087 0.26168 0.80372 0.0
C1571 C 0.95577 0.255 0.80155 0.0
C1572 C 0.9685 0.26373 0.79421 0.0
C1573 C 0.96645 0.27912 0.7889 0.0
C1574 C 0.95165 0.2858 0.79088 0.0
C1575 C 0.93888 0.27712 0.79822 0.0
H1576 H 0.97632 0.28586 0.78323 0.0
H1577 H 0.85299 0.19907 0.85262 0.0
H1578 H 0.40909 0.88155 0.50811 0.0
H1579 H 0.41919 0.86265 0.48764 0.0
H1580 H 0.4676 0.88337 0.49636 0.0
H1581 H 0.45763 0.90211 0.51677 0.0
H1582 H 0.45946 0.87824 0.46341 0.0
H1583 H 0.45659 0.84993 0.51304 0.0
H1584 H 0.44258 0.83894 0.53662 0.0
H1585 H 0.40966 0.80987 0.50572 0.0
H1586 H 0.42334 0.82088 0.48195 0.0
H1587 H 0.5069 0.82028 0.42647 0.0
H1588 H 0.49494 0.83959 0.44504 0.0
H1589 H 0.45045 0.80934 0.44424 0.0
H1590 H 0.46277 0.78958 0.42662 0.0
H1591 H 0.45502 0.81962 0.47251 0.0
H1592 H 0.45724 0.84634 0.42284 0.0
H1593 H 0.46985 0.8574 0.39859 0.0
H1594 H 0.50168 0.88947 0.42785 0.0
H1595 H 0.48939 0.87845 0.45228 0.0
C1596 C 0.42185 0.88211 0.50551 0.0
C1597 C 0.43261 0.89315 0.51406 0.0
C1598 C 0.42759 0.87132 0.49391 0.0
C1599 C 0.44414 0.8716 0.49059 0.0
C1600 C 0.4548 0.88297 0.49876 0.0
C1601 C 0.44911 0.89358 0.51046 0.0
C1602 C 0.45056 0.85975 0.47899 0.0
C1603 C 0.4586 0.86541 0.46538 0.0
C1604 C 0.44903 0.84303 0.48144 0.0
C1605 C 0.44087 0.83637 0.49573 0.0
C1606 C 0.44627 0.8413 0.51128 0.0
C1607 C 0.43841 0.83505 0.52468 0.0
C1608 C 0.42521 0.82375 0.52267 0.0
C1609 C 0.41987 0.81864 0.50726 0.0
C1610 C 0.42768 0.82488 0.49382 0.0
C1611 C 0.49459 0.81779 0.43032 0.0
C1612 C 0.48575 0.80348 0.42514 0.0
C1613 C 0.48769 0.82888 0.44082 0.0
C1614 C 0.47163 0.82614 0.44582 0.0
C1615 C 0.46285 0.81178 0.44061 0.0
C1616 C 0.46988 0.8005 0.43052 0.0
C1617 C 0.46402 0.83801 0.45672 0.0
C1618 C 0.45578 0.83239 0.4703 0.0
C1619 C 0.46512 0.85476 0.45407 0.0
C1620 C 0.47248 0.86147 0.43939 0.0
C1621 C 0.46699 0.85568 0.4241 0.0
C1622 C 0.47408 0.86195 0.41032 0.0
C1623 C 0.48658 0.8741 0.41167 0.0
C1624 C 0.492 0.88004 0.42682 0.0
C1625 C 0.48497 0.8738 0.44063 0.0
H1626 H 0.49205 0.87894 0.40099 0.0
H1627 H 0.41914 0.81892 0.53306 0.0
H1628 H 0.15657 0.27802 0.77843 0.0
H1629 H 0.13598 0.27449 0.79912 0.0
H1630 H 0.12141 0.32226 0.79174 0.0
H1631 H 0.14206 0.3259 0.77116 0.0
H1632 H 0.12318 0.31747 0.82278 0.0
H1633 H 0.09943 0.28796 0.77668 0.0
H1634 H 0.09818 0.26765 0.75415 0.0
H1635 H 0.10188 0.22998 0.78711 0.0
H1636 H 0.10337 0.25011 0.80983 0.0
H1637 H 0.04512 0.31318 0.85635 0.0
H1638 H 0.0688 0.31534 0.83922 0.0
H1639 H 0.0809 0.26816 0.85218 0.0
H1640 H 0.05704 0.26582 0.86933 0.0
H1641 H 0.08176 0.27137 0.81989 0.0
H1642 H 0.10328 0.30143 0.86629 0.0
H1643 H 0.10382 0.32216 0.8884 0.0
H1644 H 0.10356 0.35932 0.85443 0.0
H1645 H 0.10279 0.3388 0.8321 0.0
C1646 C 0.14888 0.28771 0.78113 0.0
C1647 C 0.15091 0.30222 0.77314 0.0
C1648 C 0.13713 0.28569 0.79297 0.0
C1649 C 0.12703 0.29805 0.79689 0.0
C1650 C 0.12909 0.31257 0.78896 0.0
C1651 C 0.1409 0.31464 0.77721 0.0
C1652 C 0.11433 0.29594 0.80926 0.0
C1653 C 0.11403 0.30747 0.82206 0.0
C1654 C 0.10263 0.28267 0.80857 0.0
C1655 C 0.10169 0.27055 0.79494 0.0
C1656 C 0.10011 0.27536 0.77911 0.0
C1657 C 0.09934 0.26388 0.76631 0.0
C1658 C 0.1 0.24754 0.76919 0.0
C1659 C 0.1014 0.24264 0.78489 0.0
C1660 C 0.10219 0.25408 0.79774 0.0
C1661 C 0.0529 0.30331 0.85573 0.0
C1662 C 0.04919 0.28931 0.86421 0.0
C1663 C 0.06648 0.30461 0.84596 0.0
C1664 C 0.07669 0.29196 0.84451 0.0
C1665 C 0.07319 0.27807 0.85316 0.0
C1666 C 0.0596 0.27678 0.863 0.0
C1667 C 0.09051 0.29301 0.83329 0.0
C1668 C 0.09101 0.28128 0.82069 0.0
C1669 C 0.10232 0.30616 0.83411 0.0
C1670 C 0.10285 0.31855 0.84752 0.0
C1671 C 0.10321 0.31401 0.86353 0.0
C1672 C 0.10358 0.32573 0.87611 0.0
C1673 C 0.10369 0.34204 0.87283 0.0
C1674 C 0.10346 0.34668 0.85696 0.0
C1675 C 0.10308 0.33501 0.84433 0.0
H1676 H 0.10397 0.35109 0.88258 0.0
H1677 H 0.0994 0.23867 0.75927 0.0
H1678 H 0.57136 0.65123 0.51718 0.0
H1679 H 0.56557 0.66603 0.49349 0.0
H1680 H 0.56546 0.71008 0.52287 0.0
H1681 H 0.57093 0.69522 0.54664 0.0
H1682 H 0.53992 0.70701 0.50564 0.0
H1683 H 0.59537 0.70348 0.49439 0.0
H1684 H 0.62081 0.69047 0.49064 0.0
H1685 H 0.6 0.66107 0.4512 0.0
H1686 H 0.57435 0.67373 0.45485 0.0
H1687 H 0.54508 0.74646 0.42364 0.0
H1688 H 0.5592 0.7338 0.44497 0.0
H1689 H 0.51621 0.70352 0.45418 0.0
H1690 H 0.50201 0.71622 0.43318 0.0
H1691 H 0.56627 0.70326 0.45243 0.0
H1692 H 0.51033 0.70291 0.49385 0.0
H1693 H 0.48644 0.71834 0.49823 0.0
H1694 H 0.51154 0.76001 0.47893 0.0
H1695 H 0.53564 0.74492 0.47466 0.0
C1696 C 0.57044 0.66413 0.51851 0.0
C1697 C 0.5715 0.67207 0.53376 0.0
C1698 C 0.56717 0.6726 0.50495 0.0
C1699 C 0.56515 0.68922 0.50634 0.0
C1700 C 0.56689 0.69727 0.52149 0.0
C1701 C 0.56999 0.68877 0.53506 0.0
C1702 C 0.55972 0.69785 0.49235 0.0
C1703 C 0.54578 0.70624 0.49406 0.0
C1704 C 0.56747 0.69712 0.47725 0.0
C1705 C 0.58288 0.68948 0.47498 0.0
C1706 C 0.59617 0.69415 0.48499 0.0
C1707 C 0.61064 0.68686 0.48287 0.0
C1708 C 0.61201 0.67493 0.47071 0.0
C1709 C 0.59892 0.6703 0.46062 0.0
C1710 C 0.58442 0.67755 0.4627 0.0
C1711 C 0.53874 0.73691 0.43003 0.0
C1712 C 0.52237 0.73249 0.42688 0.0
C1713 C 0.54683 0.72968 0.44219 0.0
C1714 C 0.53866 0.71795 0.45135 0.0
C1715 C 0.52266 0.71277 0.44746 0.0
C1716 C 0.51456 0.72003 0.43542 0.0
C1717 C 0.5463 0.71193 0.46574 0.0
C1718 C 0.56056 0.70407 0.46409 0.0
C1719 C 0.53911 0.71347 0.48104 0.0
C1720 C 0.52474 0.72273 0.48381 0.0
C1721 C 0.51077 0.71539 0.49061 0.0
C1722 C 0.49719 0.72407 0.49307 0.0
C1723 C 0.49746 0.74013 0.48882 0.0
C1724 C 0.51133 0.74756 0.48216 0.0
C1725 C 0.52495 0.73894 0.47971 0.0
H1726 H 0.48692 0.74682 0.49071 0.0
H1727 H 0.62322 0.6693 0.46909 0.0
H1728 H 0.85824 0.77506 0.74574 0.0
H1729 H 0.8823 0.77565 0.7291 0.0
H1730 H 0.87894 0.82634 0.72253 0.0
H1731 H 0.85513 0.82607 0.73973 0.0
H1732 H 0.88551 0.80702 0.69371 0.0
H1733 H 0.90508 0.81781 0.74766 0.0
H1734 H 0.90708 0.81268 0.77643 0.0
H1735 H 0.92485 0.76649 0.76478 0.0
H1736 H 0.92272 0.77124 0.73592 0.0
H1737 H 0.96299 0.81843 0.65927 0.0
H1738 H 0.93972 0.82162 0.67659 0.0
H1739 H 0.94415 0.77419 0.69411 0.0
H1740 H 0.96768 0.77109 0.67719 0.0
H1741 H 0.93711 0.79394 0.71789 0.0
H1742 H 0.91628 0.78145 0.66477 0.0
H1743 H 0.9134 0.78489 0.63574 0.0
H1744 H 0.89717 0.83213 0.64527 0.0
H1745 H 0.90017 0.82906 0.67436 0.0
C1746 C 0.86265 0.7864 0.74091 0.0
C1747 C 0.85483 0.80057 0.74428 0.0
C1748 C 0.87635 0.78667 0.73131 0.0
C1749 C 0.88245 0.80107 0.72475 0.0
C1750 C 0.87438 0.81512 0.72752 0.0
C1751 C 0.86074 0.81491 0.73729 0.0
C1752 C 0.8975 0.80143 0.71537 0.0
C1753 C 0.89688 0.80444 0.69901 0.0
C1754 C 0.91218 0.79765 0.72227 0.0
C1755 C 0.9136 0.79482 0.73962 0.0
C1756 C 0.90929 0.8065 0.75123 0.0
C1757 C 0.91047 0.80367 0.76755 0.0
C1758 C 0.91605 0.78925 0.77243 0.0
C1759 C 0.92051 0.77765 0.76098 0.0
C1760 C 0.91933 0.78041 0.74464 0.0
C1761 C 0.9591 0.80873 0.6669 0.0
C1762 C 0.96715 0.79446 0.66677 0.0
C1763 C 0.94573 0.81054 0.67674 0.0
C1764 C 0.94 0.79803 0.68643 0.0
C1765 C 0.94832 0.78399 0.6867 0.0
C1766 C 0.96178 0.78223 0.67699 0.0
C1767 C 0.92516 0.79937 0.6961 0.0
C1768 C 0.92581 0.79666 0.71255 0.0
C1769 C 0.91046 0.80322 0.68921 0.0
C1770 C 0.90863 0.8051 0.67173 0.0
C1771 C 0.91223 0.79263 0.66067 0.0
C1772 C 0.91055 0.7945 0.6442 0.0
C1773 C 0.90515 0.80874 0.63866 0.0
C1774 C 0.90138 0.82112 0.64958 0.0
C1775 C 0.90306 0.81932 0.66605 0.0
H1776 H 0.90386 0.81017 0.62591 0.0
H1777 H 0.91696 0.78709 0.78507 0.0
H1778 H 0.02068 0.90489 0.48867 0.0
H1779 H 0.01573 0.89001 0.51292 0.0
H1780 H 0.06441 0.87568 0.51168 0.0
H1781 H 0.06929 0.89005 0.48703 0.0
H1782 H 0.04366 0.85124 0.52022 0.0
H1783 H 0.05466 0.90683 0.53641 0.0
H1784 H 0.05145 0.93602 0.53617 0.0
H1785 H 0.0023 0.92806 0.55109 0.0
H1786 H 0.00514 0.89878 0.55118 0.0
H1787 H 0.03914 0.82464 0.59992 0.0
H1788 H 0.04854 0.84115 0.57771 0.0
H1789 H 0.0008 0.85698 0.57226 0.0
H1790 H 0.99139 0.84069 0.5944 0.0
H1791 H 0.02392 0.88136 0.56806 0.0
H1792 H 0.01263 0.82555 0.54986 0.0
H1793 H 0.01595 0.79638 0.55011 0.0
H1794 H 0.06607 0.80491 0.53893 0.0
H1795 H 0.06311 0.83419 0.53895 0.0
C1796 C 0.03024 0.89829 0.49334 0.0
C1797 C 0.04542 0.89875 0.48596 0.0
C1798 C 0.02745 0.88995 0.50732 0.0
C1799 C 0.03981 0.88203 0.5143 0.0
C1800 C 0.05475 0.88184 0.50658 0.0
C1801 C 0.05754 0.89014 0.49256 0.0
C1802 C 0.03724 0.87432 0.52985 0.0
C1803 C 0.0396 0.85788 0.53075 0.0
C1804 C 0.0318 0.88297 0.54356 0.0
C1805 C 0.03008 0.90059 0.54368 0.0
C1806 C 0.04313 0.91129 0.53953 0.0
C1807 C 0.04138 0.92786 0.53944 0.0
C1808 C 0.02667 0.93389 0.54358 0.0
C1809 C 0.01369 0.92337 0.54787 0.0
C1810 C 0.01536 0.90679 0.54796 0.0
C1811 C 0.03075 0.83193 0.59422 0.0
C1812 C 0.0145 0.83127 0.59881 0.0
C1813 C 0.03611 0.84126 0.58147 0.0
C1814 C 0.02529 0.85007 0.57318 0.0
C1815 C 0.00933 0.85023 0.57845 0.0
C1816 C 0.00397 0.84087 0.59109 0.0
C1817 C 0.03012 0.85824 0.55834 0.0
C1818 C 0.02817 0.87477 0.55757 0.0
C1819 C 0.03597 0.84969 0.54477 0.0
C1820 C 0.0377 0.83207 0.5446 0.0
C1821 C 0.02439 0.82122 0.54758 0.0
C1822 C 0.02619 0.80466 0.54765 0.0
C1823 C 0.04122 0.7988 0.54456 0.0
C1824 C 0.05445 0.80948 0.54135 0.0
C1825 C 0.05272 0.82605 0.54133 0.0
H1826 H 0.04261 0.78599 0.54463 0.0
H1827 H 0.02534 0.94672 0.5435 0.0
H1828 H 0.14014 0.73754 0.75601 0.0
H1829 H 0.1198 0.74014 0.73532 0.0
H1830 H 0.13345 0.79116 0.73433 0.0
H1831 H 0.15337 0.78864 0.75546 0.0
H1832 H 0.10266 0.78706 0.73373 0.0
H1833 H 0.14409 0.76266 0.70387 0.0
H1834 H 0.16379 0.74262 0.69766 0.0
H1835 H 0.12558 0.70505 0.69345 0.0
H1836 H 0.10566 0.72484 0.69985 0.0
H1837 H 0.05634 0.79653 0.6632 0.0
H1838 H 0.07975 0.79533 0.68082 0.0
H1839 H 0.06492 0.74587 0.69003 0.0
H1840 H 0.04162 0.74694 0.67248 0.0
H1841 H 0.09756 0.75051 0.68503 0.0
H1842 H 0.0566 0.77532 0.71665 0.0
H1843 H 0.03721 0.79574 0.72261 0.0
H1844 H 0.07553 0.83325 0.72274 0.0
H1845 H 0.09512 0.81305 0.71657 0.0
C1846 C 0.13883 0.74927 0.75128 0.0
C1847 C 0.14831 0.76288 0.7573 0.0
C1848 C 0.12727 0.75075 0.73941 0.0
C1849 C 0.12524 0.76581 0.73302 0.0
C1850 C 0.13476 0.77941 0.73903 0.0
C1851 C 0.14613 0.77797 0.7511 0.0
C1852 C 0.11286 0.76748 0.72045 0.0
C1853 C 0.10177 0.77924 0.72295 0.0
C1854 C 0.11146 0.75714 0.70645 0.0
C1855 C 0.1234 0.74522 0.70247 0.0
C1856 C 0.1399 0.75011 0.70172 0.0
C1857 C 0.1511 0.7388 0.69815 0.0
C1858 C 0.14594 0.72257 0.69519 0.0
C1859 C 0.12956 0.71763 0.69575 0.0
C1860 C 0.1183 0.72889 0.69933 0.0
C1861 C 0.05815 0.78537 0.66887 0.0
C1862 C 0.04707 0.77186 0.66652 0.0
C1863 C 0.07149 0.78471 0.67897 0.0
C1864 C 0.07398 0.77055 0.68684 0.0
C1865 C 0.06323 0.75691 0.68408 0.0
C1866 C 0.04987 0.75758 0.67409 0.0
C1867 C 0.08742 0.76998 0.69843 0.0
C1868 C 0.09865 0.75842 0.69575 0.0
C1869 C 0.08905 0.78058 0.71218 0.0
C1870 C 0.07729 0.7927 0.71598 0.0
C1871 C 0.06087 0.78793 0.71783 0.0
C1872 C 0.04985 0.79946 0.72126 0.0
C1873 C 0.05513 0.81579 0.723 0.0
C1874 C 0.07145 0.82061 0.72136 0.0
C1875 C 0.08252 0.80913 0.7179 0.0
H1876 H 0.04658 0.82469 0.72567 0.0
H1877 H 0.15464 0.71382 0.69244 0.0
H1878 H 0.97415 0.64781 0.50232 0.0
H1879 H 0.98432 0.6689 0.52202 0.0
H1880 H 0.94162 0.69415 0.51561 0.0
H1881 H 0.93119 0.67285 0.49611 0.0
H1882 H 0.97505 0.71348 0.51684 0.0
H1883 H 0.93913 0.67538 0.54486 0.0
H1884 H 0.92966 0.64795 0.5523 0.0
H1885 H 0.97611 0.6414 0.57225 0.0
H1886 H 0.98593 0.66871 0.56467 0.0
H1887 H 0.97542 0.7665 0.58511 0.0
H1888 H 0.96868 0.74689 0.5631 0.0
H1889 H 0.00132 0.71466 0.58219 0.0
H1890 H 0.00782 0.73409 0.60456 0.0
H1891 H 0.97449 0.69849 0.57373 0.0
H1892 H 0.01059 0.73602 0.54831 0.0
H1893 H 0.02211 0.76249 0.54011 0.0
H1894 H 0.9786 0.76952 0.51463 0.0
H1895 H 0.96671 0.74314 0.52285 0.0
C1896 C 0.96707 0.658 0.50494 0.0
C1897 C 0.95191 0.65877 0.49777 0.0
C1898 C 0.97286 0.66997 0.51618 0.0
C1899 C 0.96368 0.68299 0.5202 0.0
C1900 C 0.94885 0.68417 0.51256 0.0
C1901 C 0.9429 0.67202 0.50154 0.0
C1902 C 0.9691 0.69476 0.5332 0.0
C1903 C 0.97478 0.71035 0.52931 0.0
C1904 C 0.96924 0.69034 0.54934 0.0
C1905 C 0.96331 0.674 0.55403 0.0
C1906 C 0.94737 0.66802 0.55069 0.0
C1907 C 0.94193 0.65252 0.55496 0.0
C1908 C 0.95229 0.64292 0.5627 0.0
C1909 C 0.96811 0.64883 0.56623 0.0
C1910 C 0.97361 0.66433 0.56196 0.0
C1911 C 0.98123 0.75524 0.58463 0.0
C1912 C 0.99219 0.75185 0.59661 0.0
C1913 C 0.97742 0.7441 0.57196 0.0
C1914 C 0.98468 0.72942 0.57084 0.0
C1915 C 0.99561 0.72596 0.58279 0.0
C1916 C 0.99933 0.73706 0.59558 0.0
C1917 C 0.98035 0.71747 0.5575 0.0
C1918 C 0.97487 0.70175 0.56129 0.0
C1919 C 0.98066 0.72172 0.54125 0.0
C1920 C 0.9877 0.73765 0.53633 0.0
C1921 C 0.00341 0.74326 0.54108 0.0
C1922 C 0.01002 0.75825 0.5364 0.0
C1923 C 0.00108 0.7677 0.52688 0.0
C1924 C 0.98551 0.76218 0.52201 0.0
C1925 C 0.97883 0.74721 0.52666 0.0
H1926 H 0.00623 0.77929 0.52324 0.0
H1927 H 0.94806 0.63091 0.566 0.0
H1928 H 0.73693 0.91499 0.23423 0.0
H1929 H 0.75394 0.94015 0.2377 0.0
H1930 H 0.79624 0.91391 0.23025 0.0
H1931 H 0.77929 0.88871 0.2268 0.0
H1932 H 0.77545 0.94908 0.25992 0.0
H1933 H 0.82559 0.93774 0.21295 0.0
H1934 H 0.82815 0.92445 0.18612 0.0
H1935 H 0.77824 0.92977 0.17655 0.0
H1936 H 0.77543 0.94329 0.2032 0.0
H1937 H 0.84412 1.00021 0.28013 0.0
H1938 H 0.82468 0.97758 0.27314 0.0
H1939 H 0.81806 0.99653 0.22647 0.0
H1940 H 0.83854 0.01852 0.23307 0.0
H1941 H 0.81852 0.96684 0.22226 0.0
H1942 H 0.78938 0.99878 0.25967 0.0
H1943 H 0.78476 0.01401 0.2851 0.0
H1944 H 0.78839 0.97113 0.31112 0.0
H1945 H 0.79323 0.95568 0.28588 0.0
C1946 C 0.74986 0.91458 0.23332 0.0
C1947 C 0.75677 0.89984 0.23029 0.0
C1948 C 0.75956 0.92897 0.23526 0.0
C1949 C 0.77636 0.92894 0.23416 0.0
C1950 C 0.78329 0.91428 0.23089 0.0
C1951 C 0.77359 0.89988 0.2289 0.0
C1952 C 0.78667 0.94411 0.23717 0.0
C1953 C 0.78482 0.95302 0.25165 0.0
C1954 C 0.79866 0.94945 0.22624 0.0
C1955 C 0.80028 0.94138 0.21015 0.0
C1956 C 0.81518 0.93612 0.2051 0.0
C1957 C 0.81667 0.92854 0.18992 0.0
C1958 C 0.80335 0.92622 0.17966 0.0
C1959 C 0.78853 0.93151 0.18453 0.0
C1960 C 0.78697 0.93911 0.19968 0.0
C1961 C 0.83841 0.99958 0.26842 0.0
C1962 C 0.84269 0.01114 0.25717 0.0
C1963 C 0.8272 0.98669 0.26445 0.0
C1964 C 0.81953 0.98547 0.24939 0.0
C1965 C 0.82375 0.99715 0.23818 0.0
C1966 C 0.83538 0.00976 0.24196 0.0
C1967 C 0.80751 0.97176 0.24517 0.0
C1968 C 0.80907 0.96304 0.23049 0.0
C1969 C 0.7949 0.96688 0.25571 0.0
C1970 C 0.79176 0.9761 0.27089 0.0
C1971 C 0.78926 0.99262 0.27083 0.0
C1972 C 0.7866 0.00129 0.28521 0.0
C1973 C 0.78631 0.99355 0.29972 0.0
C1974 C 0.78862 0.97711 0.29988 0.0
C1975 C 0.7913 0.96839 0.28553 0.0
H1976 H 0.78426 0.00029 0.31084 0.0
H1977 H 0.80453 0.92035 0.16792 0.0
H1978 H 0.77013 0.19402 0.26925 0.0
H1979 H 0.79004 0.17392 0.26655 0.0
H1980 H 0.78137 0.16105 0.31543 0.0
H1981 H 0.76144 0.18108 0.31821 0.0
H1982 H 0.81297 0.16376 0.30928 0.0
H1983 H 0.76563 0.13737 0.28385 0.0
H1984 H 0.74293 0.13453 0.2647 0.0
H1985 H 0.77598 0.13708 0.2253 0.0
H1986 H 0.79889 0.14015 0.24424 0.0
H1987 H 0.84339 0.08666 0.30982 0.0
H1988 H 0.82716 0.10988 0.31084 0.0
H1989 H 0.84042 0.1198 0.26215 0.0
H1990 H 0.85668 0.09643 0.26097 0.0
H1991 H 0.80809 0.11995 0.26679 0.0
H1992 H 0.85563 0.14424 0.29272 0.0
H1993 H 0.87801 0.14661 0.31223 0.0
H1994 H 0.84432 0.14755 0.3511 0.0
H1995 H 0.82171 0.14495 0.33182 0.0
C1996 C 0.77236 0.1868 0.27938 0.0
C1997 C 0.76417 0.18912 0.29393 0.0
C1998 C 0.78377 0.17535 0.27783 0.0
C1999 C 0.78711 0.16589 0.29075 0.0
C2000 C 0.77904 0.16826 0.30532 0.0
C2001 C 0.76767 0.17973 0.30689 0.0
C2002 C 0.79896 0.15345 0.28913 0.0
C2003 C 0.81182 0.15409 0.30008 0.0
C2004 C 0.79771 0.14107 0.27687 0.0
C2005 C 0.78396 0.13917 0.26547 0.0
C2006 C 0.76805 0.13746 0.27111 0.0
C2007 C 0.75515 0.13578 0.26029 0.0
C2008 C 0.75801 0.13568 0.2438 0.0
C2009 C 0.77379 0.1372 0.23808 0.0
C2010 C 0.78673 0.13889 0.24885 0.0
C2011 C 0.84302 0.09386 0.29936 0.0
C2012 C 0.85133 0.08969 0.2853 0.0
C2013 C 0.83377 0.10718 0.3 0.0
C2014 C 0.83266 0.11665 0.28661 0.0
C2015 C 0.84113 0.11267 0.27262 0.0
C2016 C 0.85047 0.09936 0.272 0.0
C2017 C 0.822 0.13017 0.28705 0.0
C2018 C 0.80934 0.12971 0.27589 0.0
C2019 C 0.8234 0.14267 0.29917 0.0
C2020 C 0.83697 0.14427 0.31081 0.0
C2021 C 0.85298 0.14482 0.30542 0.0
C2022 C 0.86571 0.14623 0.31644 0.0
C2023 C 0.86259 0.14719 0.33289 0.0
C2024 C 0.84672 0.14679 0.33835 0.0
C2025 C 0.83394 0.14537 0.32738 0.0
H2026 H 0.87246 0.14829 0.3414 0.0
H2027 H 0.74801 0.13438 0.23544 0.0
H2028 H 0.35601 0.02728 0.94487 0.0
H2029 H 0.33564 0.00845 0.95654 0.0
H2030 H 0.36057 0.01396 0.00201 0.0
H2031 H 0.38087 0.03281 0.99046 0.0
H2032 H 0.35153 0.98137 0.99162 0.0
H2033 H 0.32867 0.03271 0.99886 0.0
H2034 H 0.31951 0.05833 0.9899 0.0
H2035 H 0.28554 0.03226 0.95776 0.0
H2036 H 0.29467 0.00648 0.96636 0.0
H2037 H 0.29115 0.94161 0.03873 0.0
H2038 H 0.31177 0.9609 0.02838 0.0
H2039 H 0.28247 0.96575 0.98644 0.0
H2040 H 0.26156 0.9472 0.99711 0.0
H2041 H 0.29429 0.99363 0.99559 0.0
H2042 H 0.31695 0.94252 0.98689 0.0
H2043 H 0.32621 0.91645 0.99445 0.0
H2044 H 0.36048 0.94102 0.02729 0.0
H2045 H 0.35128 0.96724 0.02008 0.0
C2046 C 0.35711 0.02442 0.95733 0.0
C2047 C 0.36991 0.03153 0.96681 0.0
C2048 C 0.34549 0.01375 0.96399 0.0
C2049 C 0.34662 0.00992 0.98013 0.0
C2050 C 0.35951 0.01681 0.98953 0.0
C2051 C 0.371 0.02763 0.98296 0.0
C2052 C 0.33433 0.99871 0.98727 0.0
C2053 C 0.33903 0.98408 0.99268 0.0
C2054 C 0.31802 0.00218 0.98827 0.0
C2055 C 0.31247 0.01767 0.98314 0.0
C2056 C 0.31935 0.03244 0.98978 0.0
C2057 C 0.31414 0.04699 0.98479 0.0
C2058 C 0.30199 0.04692 0.97324 0.0
C2059 C 0.29498 0.0323 0.96669 0.0
C2060 C 0.30015 0.01771 0.97162 0.0
C2061 C 0.28915 0.94681 0.0273 0.0
C2062 C 0.27477 0.94291 0.01872 0.0
C2063 C 0.30097 0.95776 0.02135 0.0
C2064 C 0.29881 0.96461 0.00648 0.0
C2065 C 0.28443 0.96068 0.99794 0.0
C2066 C 0.27249 0.95004 0.00404 0.0
C2067 C 0.31137 0.97604 0.99984 0.0
C2068 C 0.30675 0.99081 0.99454 0.0
C2069 C 0.32773 0.97257 0.99873 0.0
C2070 C 0.33331 0.95682 0.00306 0.0
C2071 C 0.32638 0.94235 0.99581 0.0
C2072 C 0.33163 0.92755 1.00002 0.0
C2073 C 0.3439 0.92707 0.01138 0.0
C2074 C 0.35097 0.9414 0.01852 0.0
C2075 C 0.34574 0.95624 0.01436 0.0
H2076 H 0.34795 0.9156 0.01462 0.0
H2077 H 0.29797 0.0582 0.96939 0.0
H2078 H 0.24689 0.38465 0.28455 0.0
H2079 H 0.22709 0.40501 0.28443 0.0
H2080 H 0.18903 0.36755 0.2759 0.0
H2081 H 0.2088 0.34704 0.27645 0.0
H2082 H 0.19251 0.39901 0.25477 0.0
H2083 H 0.18616 0.37885 0.30827 0.0
H2084 H 0.19663 0.37098 0.33417 0.0
H2085 H 0.21877 0.41883 0.34307 0.0
H2086 H 0.20865 0.4269 0.31706 0.0
H2087 H 0.13218 0.45511 0.26518 0.0
H2088 H 0.14665 0.43054 0.26528 0.0
H2089 H 0.1834 0.45548 0.29564 0.0
H2090 H 0.16864 0.47965 0.29619 0.0
H2091 H 0.17803 0.4274 0.3057 0.0
H2092 H 0.18741 0.44791 0.25326 0.0
H2093 H 0.1799 0.45712 0.2268 0.0
H2094 H 0.15535 0.41085 0.2151 0.0
H2095 H 0.16255 0.40143 0.24159 0.0
C2096 C 0.23431 0.38079 0.28259 0.0
C2097 C 0.22932 0.36433 0.2805 0.0
C2098 C 0.22304 0.39238 0.28255 0.0
C2099 C 0.20667 0.38771 0.28015 0.0
C2100 C 0.20165 0.37132 0.27776 0.0
C2101 C 0.21289 0.35967 0.27814 0.0
C2102 C 0.19488 0.40011 0.28046 0.0
C2103 C 0.18902 0.40505 0.26588 0.0
C2104 C 0.19082 0.40821 0.29495 0.0
C2105 C 0.19678 0.40342 0.31065 0.0
C2106 C 0.1934 0.38764 0.31567 0.0
C2107 C 0.19924 0.38316 0.33039 0.0
C2108 C 0.2084 0.39439 0.34024 0.0
C2109 C 0.21169 0.41014 0.33541 0.0
C2110 C 0.20589 0.41468 0.3207 0.0
C2111 C 0.14332 0.45528 0.27191 0.0
C2112 C 0.14929 0.46929 0.28067 0.0
C2113 C 0.15163 0.44127 0.2719 0.0
C2114 C 0.16627 0.44117 0.28029 0.0
C2115 C 0.17212 0.45517 0.28911 0.0
C2116 C 0.16368 0.46902 0.28939 0.0
C2117 C 0.17568 0.42665 0.27992 0.0
C2118 C 0.1812 0.42129 0.29452 0.0
C2119 C 0.17969 0.4184 0.26538 0.0
C2120 C 0.17534 0.42404 0.24947 0.0
C2121 C 0.1803 0.43975 0.24509 0.0
C2122 C 0.17612 0.445 0.23008 0.0
C2123 C 0.16711 0.4346 0.2193 0.0
C2124 C 0.1623 0.4189 0.22348 0.0
C2125 C 0.16643 0.4136 0.23849 0.0
H2126 H 0.16389 0.43868 0.20768 0.0
H2127 H 0.21291 0.39089 0.35163 0.0
H2128 H 0.15815 0.99334 0.45139 0.0
H2129 H 0.17843 0.01498 0.45962 0.0
H2130 H 0.14299 0.04989 0.45615 0.0
H2131 H 0.12275 0.02838 0.44783 0.0
H2132 H 0.17103 0.06147 0.44462 0.0
H2133 H 0.15289 0.03582 0.49223 0.0
H2134 H 0.14685 0.01302 0.50964 0.0
H2135 H 0.19664 0.00296 0.50917 0.0
H2136 H 0.20294 0.02557 0.49155 0.0
H2137 H 0.21049 0.12447 0.49452 0.0
H2138 H 0.19088 0.1027 0.48497 0.0
H2139 H 0.22858 0.06999 0.48112 0.0
H2140 H 0.24829 0.09168 0.49044 0.0
H2141 H 0.19968 0.05746 0.49629 0.0
H2142 H 0.21737 0.08409 0.44866 0.0
H2143 H 0.22273 0.10763 0.43205 0.0
H2144 H 0.17269 0.11667 0.43361 0.0
H2145 H 0.16707 0.09332 0.45046 0.0
C2146 C 0.15473 0.00564 0.45233 0.0
C2147 C 0.13887 0.00917 0.44903 0.0
C2148 C 0.1663 0.01798 0.45703 0.0
C2149 C 0.16214 0.03401 0.45873 0.0
C2150 C 0.14645 0.03761 0.45491 0.0
C2151 C 0.13492 0.02531 0.45011 0.0
C2152 C 0.17395 0.04697 0.46501 0.0
C2153 C 0.17716 0.06066 0.45599 0.0
C2154 C 0.18208 0.04584 0.47978 0.0
C2155 C 0.17835 0.03228 0.49044 0.0
C2156 C 0.16253 0.02867 0.49574 0.0
C2157 C 0.15906 0.01579 0.50566 0.0
C2158 C 0.17134 0.00652 0.51047 0.0
C2159 C 0.18713 0.01014 0.50541 0.0
C2160 C 0.19066 0.02298 0.49546 0.0
C2161 C 0.21458 0.11262 0.49175 0.0
C2162 C 0.23092 0.10978 0.49316 0.0
C2163 C 0.20339 0.10024 0.48625 0.0
C2164 C 0.20836 0.08483 0.48227 0.0
C2165 C 0.22456 0.08184 0.48412 0.0
C2166 C 0.23579 0.09425 0.48939 0.0
C2167 C 0.19672 0.07185 0.47588 0.0
C2168 C 0.19354 0.0582 0.4849 0.0
C2169 C 0.18851 0.0731 0.46121 0.0
C2170 C 0.19183 0.08706 0.45097 0.0
C2171 C 0.20753 0.09118 0.44558 0.0
C2172 C 0.21061 0.10447 0.4361 0.0
C2173 C 0.19807 0.11367 0.43182 0.0
C2174 C 0.1824 0.10955 0.43696 0.0
C2175 C 0.17926 0.09629 0.44647 0.0
H2176 H 0.20048 0.12395 0.42448 0.0
H2177 H 0.16864 0.99656 0.51816 0.0
H2178 H 0.7274 0.16783 0.7672 0.0
H2179 H 0.71181 0.14207 0.77008 0.0
H2180 H 0.70448 0.13746 0.71886 0.0
H2181 H 0.72016 0.16321 0.71585 0.0
H2182 H 0.677 0.12924 0.73532 0.0
H2183 H 0.73246 0.11665 0.7364 0.0
H2184 H 0.76054 0.11972 0.74609 0.0
H2185 H 0.74482 0.10781 0.79336 0.0
H2186 H 0.71661 0.1049 0.784 0.0
H2187 H 0.64636 0.04776 0.73357 0.0
H2188 H 0.6633 0.07227 0.72859 0.0
H2189 H 0.67686 0.07671 0.77862 0.0
H2190 H 0.66052 0.05185 0.78351 0.0
H2191 H 0.7017 0.08482 0.76164 0.0
H2192 H 0.6467 0.0988 0.76186 0.0
H2193 H 0.61825 0.09654 0.75331 0.0
H2194 H 0.63247 0.10666 0.70515 0.0
H2195 H 0.66103 0.10878 0.71339 0.0
C2196 C 0.72252 0.16131 0.75653 0.0
C2197 C 0.72511 0.1675 0.74128 0.0
C2198 C 0.7136 0.1466 0.75821 0.0
C2199 C 0.70721 0.13774 0.74466 0.0
C2200 C 0.70935 0.1441 0.72946 0.0
C2201 C 0.71825 0.15884 0.72778 0.0
C2202 C 0.69841 0.12177 0.74635 0.0
C2203 C 0.68246 0.11944 0.74086 0.0
C2204 C 0.70543 0.10913 0.75393 0.0
C2205 C 0.72241 0.11069 0.75952 0.0
C2206 C 0.73498 0.11479 0.74888 0.0
C2207 C 0.75092 0.11649 0.75432 0.0
C2208 C 0.75446 0.114 0.77034 0.0
C2209 C 0.74206 0.10975 0.78095 0.0
C2210 C 0.7261 0.10806 0.77559 0.0
C2211 C 0.65308 0.05388 0.74347 0.0
C2212 C 0.65203 0.04793 0.75895 0.0
C2213 C 0.66268 0.06795 0.74063 0.0
C2214 C 0.67107 0.07657 0.75331 0.0
C2215 C 0.67047 0.07032 0.76866 0.0
C2216 C 0.66111 0.0561 0.77144 0.0
C2217 C 0.68018 0.09228 0.75073 0.0
C2218 C 0.69622 0.09458 0.75604 0.0
C2219 C 0.67317 0.10496 0.74316 0.0
C2220 C 0.656 0.10379 0.73821 0.0
C2221 C 0.64376 0.10044 0.74943 0.0
C2222 C 0.62762 0.0992 0.74464 0.0
C2223 C 0.62356 0.10141 0.72869 0.0
C2224 C 0.63563 0.10492 0.7175 0.0
C2225 C 0.6518 0.10616 0.72222 0.0
H2226 H 0.61105 0.10044 0.725 0.0
H2227 H 0.76681 0.11532 0.77452 0.0
H2228 H 0.36366 0.0183 0.59296 0.0
H2229 H 0.35009 0.04178 0.585 0.0
H2230 H 0.36949 0.03641 0.53731 0.0
H2231 H 0.38355 0.01338 0.54532 0.0
H2232 H 0.37266 0.0671 0.54774 0.0
H2233 H 0.33008 0.02464 0.5457 0.0
H2234 H 0.31242 0.00253 0.5563 0.0
H2235 H 0.2953 0.0351 0.59269 0.0
H2236 H 0.31303 0.05737 0.58243 0.0
H2237 H 0.32083 0.10866 0.50022 0.0
H2238 H 0.33669 0.08969 0.51349 0.0
H2239 H 0.31547 0.10281 0.55891 0.0
H2240 H 0.2994 0.12187 0.54563 0.0
H2241 H 0.31365 0.07015 0.55279 0.0
H2242 H 0.35467 0.11339 0.55233 0.0
H2243 H 0.37188 0.13513 0.54054 0.0
H2244 H 0.39161 0.10069 0.50767 0.0
H2245 H 0.37435 0.07876 0.51911 0.0
C2246 C 0.3651 0.02217 0.5808 0.0
C2247 C 0.37465 0.0139 0.56976 0.0
C2248 C 0.35723 0.03551 0.57623 0.0
C2249 C 0.35868 0.04079 0.56052 0.0
C2250 C 0.36819 0.03255 0.5495 0.0
C2251 C 0.37607 0.01926 0.55405 0.0
C2252 C 0.35046 0.05498 0.55549 0.0
C2253 C 0.35974 0.06771 0.54874 0.0
C2254 C 0.33366 0.056 0.5572 0.0
C2255 C 0.32303 0.04262 0.56342 0.0
C2256 C 0.32266 0.02705 0.55605 0.0
C2257 C 0.31261 0.0145 0.56198 0.0
C2258 C 0.30278 0.0174 0.57519 0.0
C2259 C 0.30294 0.03287 0.58248 0.0
C2260 C 0.31299 0.04546 0.57661 0.0
C2261 C 0.31973 0.10775 0.51308 0.0
C2262 C 0.30884 0.11676 0.52187 0.0
C2263 C 0.32885 0.09692 0.52067 0.0
C2264 C 0.32732 0.09488 0.5372 0.0
C2265 C 0.31684 0.10423 0.54613 0.0
C2266 C 0.30775 0.11517 0.53855 0.0
C2267 C 0.33582 0.08213 0.54479 0.0
C2268 C 0.3266 0.06966 0.55202 0.0
C2269 C 0.35266 0.08128 0.54339 0.0
C2270 C 0.36312 0.09444 0.53652 0.0
C2271 C 0.36259 0.11046 0.54251 0.0
C2272 C 0.37237 0.12282 0.5359 0.0
C2273 C 0.38281 0.1193 0.52335 0.0
C2274 C 0.38351 0.1034 0.5174 0.0
C2275 C 0.37375 0.091 0.52396 0.0
H2276 H 0.39037 0.12889 0.51825 0.0
H2277 H 0.295 0.00767 0.57976 0.0
H2278 H 0.65803 0.57098 0.57855 0.0
H2279 H 0.67282 0.54691 0.57405 0.0
H2280 H 0.63176 0.51721 0.58984 0.0
H2281 H 0.61678 0.54121 0.59418 0.0
H2282 H 0.66179 0.50729 0.60057 0.0
H2283 H 0.63629 0.52104 0.55134 0.0
H2284 H 0.63027 0.5396 0.53032 0.0
H2285 H 0.68058 0.54654 0.51932 0.0
H2286 H 0.68692 0.5282 0.54044 0.0
H2287 H 0.68728 0.43328 0.56426 0.0
H2288 H 0.67238 0.45602 0.57449 0.0
H2289 H 0.7048 0.48884 0.54913 0.0
H2290 H 0.71868 0.46612 0.53807 0.0
H2291 H 0.67734 0.49655 0.54396 0.0
H2292 H 0.70401 0.48422 0.59274 0.0
H2293 H 0.71144 0.46706 0.61446 0.0
H2294 H 0.66167 0.45875 0.62711 0.0
H2295 H 0.65393 0.47571 0.60533 0.0
C2296 C 0.65216 0.55934 0.58114 0.0
C2297 C 0.63615 0.558 0.58653 0.0
C2298 C 0.66066 0.54562 0.57865 0.0
C2299 C 0.6533 0.53028 0.58144 0.0
C2300 C 0.63765 0.52895 0.58765 0.0
C2301 C 0.62912 0.54269 0.59013 0.0
C2302 C 0.66143 0.51561 0.57656 0.0
C2303 C 0.66511 0.5048 0.58819 0.0
C2304 C 0.66594 0.51256 0.56045 0.0
C2305 C 0.66208 0.52335 0.54755 0.0
C2306 C 0.64608 0.5266 0.5445 0.0
C2307 C 0.64261 0.53707 0.53256 0.0
C2308 C 0.65504 0.54427 0.52351 0.0
C2309 C 0.67096 0.54097 0.52634 0.0
C2310 C 0.6745 0.53053 0.53828 0.0
C2311 C 0.69114 0.44541 0.561 0.0
C2312 C 0.70396 0.44807 0.55034 0.0
C2313 C 0.68275 0.45841 0.56692 0.0
C2314 C 0.6875 0.47427 0.56271 0.0
C2315 C 0.70073 0.47679 0.55247 0.0
C2316 C 0.70871 0.46383 0.54618 0.0
C2317 C 0.67834 0.48826 0.56805 0.0
C2318 C 0.67422 0.49894 0.55642 0.0
C2319 C 0.67374 0.49128 0.5842 0.0
C2320 C 0.67838 0.48109 0.5973 0.0
C2321 C 0.69465 0.47864 0.60008 0.0
C2322 C 0.69891 0.46897 0.61242 0.0
C2323 C 0.68703 0.46178 0.62213 0.0
C2324 C 0.67086 0.4643 0.61956 0.0
C2325 C 0.66652 0.47395 0.60723 0.0
H2326 H 0.69036 0.4543 0.63168 0.0
H2327 H 0.65233 0.55238 0.51428 0.0
H2328 H 0.69253 0.29358 0.38903 0.0
H2329 H 0.69244 0.30982 0.41426 0.0
H2330 H 0.74429 0.31199 0.41583 0.0
H2331 H 0.74453 0.29607 0.39054 0.0
H2332 H 0.73048 0.30407 0.44468 0.0
H2333 H 0.7253 0.34389 0.40472 0.0
H2334 H 0.71233 0.35543 0.38177 0.0
H2335 H 0.66856 0.35797 0.40857 0.0
H2336 H 0.68121 0.34624 0.43161 0.0
H2337 H 0.75334 0.36685 0.50082 0.0
H2338 H 0.74863 0.34823 0.47768 0.0
H2339 H 0.69823 0.35702 0.47814 0.0
H2340 H 0.70308 0.37641 0.50093 0.0
H2341 H 0.70809 0.35763 0.44921 0.0
H2342 H 0.7132 0.32013 0.48999 0.0
H2343 H 0.72542 0.30827 0.51316 0.0
H2344 H 0.76781 0.30036 0.48558 0.0
H2345 H 0.75594 0.31237 0.4623 0.0
C2346 C 0.70392 0.29768 0.39464 0.0
C2347 C 0.71854 0.29349 0.38777 0.0
C2348 C 0.70384 0.30689 0.40909 0.0
C2349 C 0.71836 0.31212 0.41689 0.0
C2350 C 0.73295 0.30798 0.41006 0.0
C2351 C 0.73305 0.29883 0.39562 0.0
C2352 C 0.71849 0.32184 0.43223 0.0
C2353 C 0.72569 0.31584 0.44569 0.0
C2354 C 0.71171 0.33691 0.43365 0.0
C2355 C 0.70414 0.34402 0.41981 0.0
C2356 C 0.71287 0.34678 0.40567 0.0
C2357 C 0.70558 0.35338 0.39265 0.0
C2358 C 0.68962 0.35738 0.39369 0.0
C2359 C 0.68092 0.35484 0.40777 0.0
C2360 C 0.68814 0.34822 0.42081 0.0
C2361 C 0.7412 0.36468 0.49615 0.0
C2362 C 0.72856 0.37306 0.50275 0.0
C2363 C 0.73849 0.35393 0.48293 0.0
C2364 C 0.723 0.35094 0.47628 0.0
C2365 C 0.71028 0.35908 0.48305 0.0
C2366 C 0.71305 0.37011 0.49611 0.0
C2367 C 0.72038 0.34003 0.46173 0.0
C2368 C 0.7127 0.34578 0.44838 0.0
C2369 C 0.72656 0.32462 0.46047 0.0
C2370 C 0.7337 0.31725 0.47442 0.0
C2371 C 0.72516 0.31595 0.48889 0.0
C2372 C 0.73203 0.30919 0.50204 0.0
C2373 C 0.74739 0.30359 0.50085 0.0
C2374 C 0.75591 0.3047 0.48649 0.0
C2375 C 0.74911 0.31146 0.4733 0.0
H2376 H 0.75269 0.29836 0.51105 0.0
H2377 H 0.684 0.36249 0.3836 0.0
H2378 H 0.51075 0.06993 0.90604 0.0
H2379 H 0.52969 0.05898 0.88692 0.0
H2380 H 0.49194 0.05176 0.85127 0.0
H2381 H 0.47278 0.06234 0.87066 0.0
H2382 H 0.50965 0.02695 0.85007 0.0
H2383 H 0.52072 0.08386 0.85032 0.0
H2384 H 0.52657 0.11144 0.86198 0.0
H2385 H 0.57075 0.09766 0.8819 0.0
H2386 H 0.56505 0.06992 0.87055 0.0
H2387 H 0.56501 0.02275 0.78404 0.0
H2388 H 0.54428 0.03087 0.80285 0.0
H2389 H 0.57735 0.02855 0.84229 0.0
H2390 H 0.59813 0.02017 0.82359 0.0
H2391 H 0.56154 0.05828 0.84052 0.0
H2392 H 0.54921 0.00057 0.83909 0.0
H2393 H 0.54269 0.97384 0.82571 0.0
H2394 H 0.49998 0.99067 0.80548 0.0
H2395 H 0.50636 0.01758 0.81857 0.0
C2396 C 0.50653 0.06607 0.8941 0.0
C2397 C 0.49039 0.06715 0.88972 0.0
C2398 C 0.51734 0.05983 0.88318 0.0
C2399 C 0.51232 0.05487 0.86755 0.0
C2400 C 0.49609 0.05558 0.86325 0.0
C2401 C 0.48518 0.06163 0.87429 0.0
C2402 C 0.52412 0.04906 0.85574 0.0
C2403 C 0.52089 0.03391 0.84782 0.0
C2404 C 0.53886 0.05808 0.85289 0.0
C2405 C 0.54238 0.07477 0.8597 0.0
C2406 C 0.53162 0.08668 0.85729 0.0
C2407 C 0.53492 0.10234 0.86382 0.0
C2408 C 0.54901 0.10629 0.87271 0.0
C2409 C 0.55984 0.09458 0.87503 0.0
C2410 C 0.55659 0.07888 0.86854 0.0
C2411 C 0.56784 0.02386 0.79673 0.0
C2412 C 0.58321 0.02088 0.80235 0.0
C2413 C 0.55598 0.02843 0.80744 0.0
C2414 C 0.55933 0.03025 0.8239 0.0
C2415 C 0.57459 0.02716 0.82959 0.0
C2416 C 0.5864 0.02234 0.81892 0.0
C2417 C 0.54714 0.03614 0.83511 0.0
C2418 C 0.55029 0.05136 0.84283 0.0
C2419 C 0.53223 0.02734 0.8375 0.0
C2420 C 0.52836 0.01114 0.82967 0.0
C2421 C 0.5385 0.99862 0.83166 0.0
C2422 C 0.53481 0.98342 0.82416 0.0
C2423 C 0.52095 0.98057 0.81471 0.0
C2424 C 0.51072 0.9929 0.81279 0.0
C2425 C 0.51436 0.00812 0.82026 0.0
H2426 H 0.51812 0.9688 0.80892 0.0
H2427 H 0.55154 0.11843 0.87776 0.0
H2428 H 0.26197 0.2709 0.37539 0.0
H2429 H 0.26406 0.25445 0.39866 0.0
H2430 H 0.28162 0.2162 0.36843 0.0
H2431 H 0.27899 0.23237 0.34495 0.0
H2432 H 0.26059 0.20424 0.38967 0.0
H2433 H 0.30744 0.2408 0.39164 0.0
H2434 H 0.32301 0.26717 0.39146 0.0
H2435 H 0.29907 0.28284 0.43429 0.0
H2436 H 0.28316 0.25663 0.4346 0.0
H2437 H 0.28918 0.16201 0.45496 0.0
H2438 H 0.29047 0.17828 0.43122 0.0
H2439 H 0.26493 0.21472 0.45656 0.0
H2440 H 0.26336 0.19845 0.48027 0.0
H2441 H 0.29176 0.22683 0.43732 0.0
H2442 H 0.24388 0.19007 0.4338 0.0
H2443 H 0.22917 0.16323 0.43377 0.0
H2444 H 0.25665 0.14741 0.39331 0.0
H2445 H 0.2717 0.1741 0.39326 0.0
C2446 C 0.26602 0.25888 0.37363 0.0
C2447 C 0.27036 0.25297 0.35831 0.0
C2448 C 0.2674 0.24957 0.38698 0.0
C2449 C 0.27327 0.23421 0.38533 0.0
C2450 C 0.27717 0.22807 0.37 0.0
C2451 C 0.27576 0.23737 0.35662 0.0
C2452 C 0.2754 0.22463 0.39963 0.0
C2453 C 0.26762 0.2091 0.39997 0.0
C2454 C 0.28444 0.23102 0.41316 0.0
C2455 C 0.294 0.2468 0.41305 0.0
C2456 C 0.30539 0.24991 0.40095 0.0
C2457 C 0.3143 0.26482 0.40083 0.0
C2458 C 0.312 0.27669 0.41283 0.0
C2459 C 0.30082 0.27364 0.42499 0.0
C2460 C 0.29186 0.25876 0.42515 0.0
C2461 C 0.28409 0.17361 0.45558 0.0
C2462 C 0.27608 0.17892 0.46945 0.0
C2463 C 0.28478 0.18284 0.44199 0.0
C2464 C 0.27767 0.1976 0.44214 0.0
C2465 C 0.27047 0.20334 0.45624 0.0
C2466 C 0.26955 0.19402 0.46974 0.0
C2467 C 0.27683 0.2066 0.42734 0.0
C2468 C 0.28485 0.22199 0.42693 0.0
C2469 C 0.26815 0.20003 0.41369 0.0
C2470 C 0.25905 0.18402 0.41365 0.0
C2471 C 0.24689 0.18082 0.42499 0.0
C2472 C 0.23847 0.16564 0.42498 0.0
C2473 C 0.242 0.1536 0.41358 0.0
C2474 C 0.25394 0.15673 0.40215 0.0
C2475 C 0.26242 0.17189 0.40213 0.0
H2476 H 0.23547 0.14186 0.41359 0.0
H2477 H 0.31891 0.28822 0.41273 0.0
H2478 H 0.52819 0.48831 0.8554 0.0
H2479 H 0.50652 0.49795 0.8395 0.0
H2480 H 0.47438 0.49325 0.87978 0.0
H2481 H 0.496 0.48359 0.89576 0.0
H2482 H 0.45937 0.48274 0.8524 0.0
H2483 H 0.49175 0.52984 0.87082 0.0
H2484 H 0.51681 0.54719 0.87524 0.0
H2485 H 0.52384 0.5488 0.82436 0.0
H2486 H 0.49892 0.53125 0.81963 0.0
H2487 H 0.40089 0.53272 0.82258 0.0
H2488 H 0.42183 0.52286 0.83942 0.0
H2489 H 0.45362 0.52124 0.79874 0.0
H2490 H 0.43278 0.53091 0.7818 0.0
H2491 H 0.46829 0.53545 0.82711 0.0
H2492 H 0.43589 0.48764 0.80911 0.0
H2493 H 0.41058 0.47057 0.80514 0.0
H2494 H 0.40327 0.47099 0.85607 0.0
H2495 H 0.42843 0.48828 0.86034 0.0
C2496 C 0.51651 0.48935 0.86087 0.0
C2497 C 0.51383 0.4853 0.87686 0.0
C2498 C 0.50414 0.49485 0.85178 0.0
C2499 C 0.48891 0.49657 0.85855 0.0
C2500 C 0.48604 0.49204 0.87434 0.0
C2501 C 0.4984 0.48647 0.88343 0.0
C2502 C 0.47607 0.50339 0.84924 0.0
C2503 C 0.46125 0.49437 0.84707 0.0
C2504 C 0.4786 0.51847 0.84209 0.0
C2505 C 0.49355 0.5291 0.84488 0.0
C2506 C 0.4987 0.53379 0.86057 0.0
C2507 C 0.51287 0.54367 0.86313 0.0
C2508 C 0.52193 0.54906 0.85009 0.0
C2509 C 0.51682 0.5446 0.83446 0.0
C2510 C 0.50267 0.53469 0.83183 0.0
C2511 C 0.41237 0.53034 0.81725 0.0
C2512 C 0.41516 0.53252 0.80085 0.0
C2513 C 0.42428 0.52467 0.82686 0.0
C2514 C 0.4392 0.52124 0.82027 0.0
C2515 C 0.44216 0.5238 0.80402 0.0
C2516 C 0.43022 0.52926 0.79436 0.0
C2517 C 0.45169 0.51476 0.83022 0.0
C2518 C 0.46643 0.52386 0.83251 0.0
C2519 C 0.44905 0.49982 0.83756 0.0
C2520 C 0.43394 0.48941 0.83503 0.0
C2521 C 0.4288 0.48422 0.81946 0.0
C2522 C 0.4145 0.47448 0.81715 0.0
C2523 C 0.4053 0.46974 0.83034 0.0
C2524 C 0.4104 0.4747 0.84586 0.0
C2525 C 0.42468 0.48446 0.84823 0.0
H2526 H 0.39423 0.46219 0.82853 0.0
H2527 H 0.5329 0.55672 0.8521 0.0
H2528 H 0.76253 0.76962 0.15954 0.0
H2529 H 0.76689 0.74901 0.13845 0.0
H2530 H 0.71585 0.74374 0.12864 0.0
H2531 H 0.71142 0.76409 0.14993 0.0
H2532 H 0.72709 0.71529 0.12802 0.0
H2533 H 0.7431 0.76555 0.10461 0.0
H2534 H 0.75819 0.79203 0.10274 0.0
H2535 H 0.80276 0.76926 0.10211 0.0
H2536 H 0.78792 0.74264 0.10419 0.0
H2537 H 0.72631 0.68239 0.048 0.0
H2538 H 0.72447 0.69936 0.07249 0.0
H2539 H 0.77467 0.69475 0.0824 0.0
H2540 H 0.7766 0.67757 0.05786 0.0
H2541 H 0.7657 0.72687 0.08407 0.0
H2542 H 0.74817 0.67588 0.10503 0.0
H2543 H 0.73192 0.64992 0.10561 0.0
H2544 H 0.68871 0.67486 0.10934 0.0
H2545 H 0.7047 0.70098 0.10856 0.0
C2546 C 0.75226 0.76409 0.15284 0.0
C2547 C 0.73664 0.76851 0.15633 0.0
C2548 C 0.75476 0.75233 0.14078 0.0
C2549 C 0.74173 0.74496 0.13178 0.0
C2550 C 0.7261 0.74921 0.13542 0.0
C2551 C 0.72358 0.76084 0.14759 0.0
C2552 C 0.74433 0.73292 0.11848 0.0
C2553 C 0.73543 0.7179 0.11834 0.0
C2554 C 0.75546 0.73615 0.106 0.0
C2555 C 0.76441 0.75213 0.10474 0.0
C2556 C 0.75612 0.7662 0.1042 0.0
C2557 C 0.76463 0.78123 0.10308 0.0
C2558 C 0.78142 0.78233 0.10236 0.0
C2559 C 0.78975 0.76839 0.10271 0.0
C2560 C 0.7813 0.75333 0.10385 0.0
C2561 C 0.73693 0.68483 0.05546 0.0
C2562 C 0.75161 0.67865 0.051 0.0
C2563 C 0.73584 0.69449 0.06948 0.0
C2564 C 0.74941 0.69824 0.07928 0.0
C2565 C 0.76405 0.69195 0.07499 0.0
C2566 C 0.76512 0.6821 0.06102 0.0
C2567 C 0.74835 0.70937 0.09358 0.0
C2568 C 0.75751 0.72423 0.09386 0.0
C2569 C 0.73729 0.70609 0.10606 0.0
C2570 C 0.72764 0.69039 0.10661 0.0
C2571 C 0.7352 0.67583 0.10585 0.0
C2572 C 0.72603 0.66108 0.10624 0.0
C2573 C 0.70929 0.66074 0.10748 0.0
C2574 C 0.70168 0.67514 0.10837 0.0
C2575 C 0.71079 0.68993 0.10797 0.0
H2576 H 0.70221 0.64931 0.10778 0.0
H2577 H 0.78799 0.79398 0.10149 0.0
H2578 H 0.01853 0.133 0.16091 0.0
H2579 H 0.99336 0.1274 0.17567 0.0
H2580 H 0.99808 0.07633 0.16851 0.0
H2581 H 0.02297 0.08179 0.15372 0.0
H2582 H 0.96769 0.08526 0.16087 0.0
H2583 H 0.00721 0.09484 0.20395 0.0
H2584 H 0.02824 0.11126 0.21944 0.0
H2585 H 0.99532 0.14773 0.22927 0.0
H2586 H 0.97415 0.1316 0.21364 0.0
H2587 H 0.92163 0.04145 0.21538 0.0
H2588 H 0.94207 0.05501 0.19902 0.0
H2589 H 0.92935 0.10119 0.21866 0.0
H2590 H 0.90898 0.08753 0.23558 0.0
H2591 H 0.96096 0.10013 0.21859 0.0
H2592 H 0.92016 0.0889 0.17918 0.0
H2593 H 0.89891 0.07279 0.16371 0.0
H2594 H 0.93345 0.04046 0.14639 0.0
H2595 H 0.95488 0.05623 0.16194 0.0
C2596 C 0.01418 0.1206 0.16253 0.0
C2597 C 0.02278 0.10783 0.15626 0.0
C2598 C 0.99986 0.11742 0.17099 0.0
C2599 C 0.9939 0.10145 0.17318 0.0
C2600 C 0.00248 0.08874 0.16694 0.0
C2601 C 0.01678 0.09188 0.15863 0.0
C2602 C 0.97861 0.0977 0.18177 0.0
C2603 C 0.9662 0.08846 0.1735 0.0
C2604 C 0.97646 0.10246 0.19806 0.0
C2605 C 0.98918 0.11212 0.20746 0.0
C2606 C 0.00451 0.10643 0.20929 0.0
C2607 C 0.01644 0.11567 0.21812 0.0
C2608 C 0.01314 0.13056 0.22529 0.0
C2609 C 0.99788 0.13621 0.22368 0.0
C2610 C 0.98591 0.12703 0.21484 0.0
C2611 C 0.92299 0.0545 0.21612 0.0
C2612 C 0.91363 0.06341 0.22676 0.0
C2613 C 0.93466 0.06227 0.20666 0.0
C2614 C 0.9371 0.07916 0.20739 0.0
C2615 C 0.92762 0.08815 0.21784 0.0
C2616 C 0.91595 0.08034 0.22744 0.0
C2617 C 0.95021 0.08712 0.19784 0.0
C2618 C 0.96223 0.09719 0.20588 0.0
C2619 C 0.95196 0.08323 0.18126 0.0
C2620 C 0.93912 0.07373 0.1718 0.0
C2621 C 0.92321 0.0783 0.17215 0.0
C2622 C 0.91113 0.06923 0.16336 0.0
C2623 C 0.91482 0.0556 0.15409 0.0
C2624 C 0.93061 0.05103 0.15357 0.0
C2625 C 0.94274 0.06005 0.16235 0.0
H2626 H 0.90545 0.0486 0.14729 0.0
H2627 H 0.02239 0.13769 0.23213 0.0
H2628 H 0.28134 0.8197 0.1959 0.0
H2629 H 0.27605 0.83785 0.17476 0.0
H2630 H 0.25352 0.7979 0.14609 0.0
H2631 H 0.25995 0.77949 0.16653 0.0
H2632 H 0.27132 0.81438 0.12794 0.0
H2633 H 0.23178 0.82814 0.16624 0.0
H2634 H 0.22112 0.83624 0.19271 0.0
H2635 H 0.25035 0.88097 0.19255 0.0
H2636 H 0.26135 0.87305 0.16616 0.0
H2637 H 0.22969 0.88299 0.0875 0.0
H2638 H 0.23175 0.86612 0.11063 0.0
H2639 H 0.28215 0.86219 0.1007 0.0
H2640 H 0.28002 0.87845 0.07733 0.0
H2641 H 0.24762 0.86684 0.13779 0.0
H2642 H 0.29304 0.82546 0.10729 0.0
H2643 H 0.3001 0.81553 0.08008 0.0
H2644 H 0.25246 0.82259 0.06348 0.0
H2645 H 0.24506 0.83235 0.09063 0.0
C2646 C 0.27541 0.81471 0.18504 0.0
C2647 C 0.27112 0.79804 0.183 0.0
C2648 C 0.27214 0.82519 0.17303 0.0
C2649 C 0.26416 0.81933 0.15887 0.0
C2650 C 0.25965 0.80276 0.15691 0.0
C2651 C 0.26317 0.79224 0.16876 0.0
C2652 C 0.26124 0.83028 0.14573 0.0
C2653 C 0.26609 0.82582 0.13015 0.0
C2654 C 0.25411 0.84509 0.14843 0.0
C2655 C 0.24749 0.84993 0.16428 0.0
C2656 C 0.23602 0.83966 0.1719 0.0
C2657 C 0.2299 0.84422 0.18688 0.0
C2658 C 0.23508 0.85909 0.19433 0.0
C2659 C 0.24636 0.86945 0.18678 0.0
C2660 C 0.25253 0.86493 0.1718 0.0
C2661 C 0.24124 0.87864 0.09037 0.0
C2662 C 0.25464 0.88185 0.0805 0.0
C2663 C 0.2424 0.86902 0.10359 0.0
C2664 C 0.25702 0.86257 0.1072 0.0
C2665 C 0.27064 0.86665 0.09791 0.0
C2666 C 0.26942 0.87601 0.08459 0.0
C2667 C 0.25796 0.85101 0.12016 0.0
C2668 C 0.25278 0.85536 0.13566 0.0
C2669 C 0.26426 0.8358 0.1173 0.0
C2670 C 0.26856 0.82978 0.10096 0.0
C2671 C 0.28406 0.82483 0.09785 0.0
C2672 C 0.28812 0.81924 0.08243 0.0
C2673 C 0.27675 0.81848 0.07005 0.0
C2674 C 0.26128 0.82325 0.07307 0.0
C2675 C 0.25715 0.82882 0.08846 0.0
H2676 H 0.27992 0.81416 0.05812 0.0
H2677 H 0.23033 0.86261 0.20593 0.0
H2678 H 0.99599 0.45212 0.12671 0.0
H2679 H 0.01688 0.45874 0.14693 0.0
H2680 H 0.98052 0.46123 0.18362 0.0
H2681 H 0.95946 0.45527 0.1631 0.0
H2682 H 0.00155 0.48437 0.18915 0.0
H2683 H 0.00532 0.42863 0.17932 0.0
H2684 H 0.00691 0.40299 0.16359 0.0
H2685 H 0.05234 0.42039 0.14425 0.0
H2686 H 0.05092 0.44623 0.15968 0.0
H2687 H 0.08074 0.47224 0.23628 0.0
H2688 H 0.0579 0.46006 0.22022 0.0
H2689 H 0.05419 0.50512 0.19741 0.0
H2690 H 0.07654 0.5174 0.21368 0.0
H2691 H 0.05075 0.45429 0.18985 0.0
H2692 H 0.01582 0.51286 0.1924 0.0
H2693 H 0.01276 0.53626 0.21108 0.0
H2694 H 0.02675 0.50896 0.2505 0.0
H2695 H 0.02951 0.48529 0.23215 0.0
C2696 C 0.99248 0.45401 0.13912 0.0
C2697 C 0.97618 0.45306 0.14343 0.0
C2698 C 0.00442 0.45768 0.15069 0.0
C2699 C 0.00033 0.46007 0.1669 0.0
C2700 C 0.98399 0.45932 0.17121 0.0
C2701 C 0.97198 0.45593 0.15954 0.0
C2702 C 0.01321 0.46399 0.1791 0.0
C2703 C 0.01224 0.47772 0.18936 0.0
C2704 C 0.02696 0.45499 0.17985 0.0
C2705 C 0.02796 0.43942 0.1706 0.0
C2706 C 0.01561 0.42703 0.17164 0.0
C2707 C 0.01648 0.41245 0.16279 0.0
C2708 C 0.02971 0.41007 0.15291 0.0
C2709 C 0.0421 0.42225 0.15191 0.0
C2710 C 0.04128 0.43686 0.16072 0.0
C2711 C 0.07517 0.47944 0.22767 0.0
C2712 C 0.08029 0.4958 0.22634 0.0
C2713 C 0.06211 0.4725 0.21854 0.0
C2714 C 0.05408 0.4818 0.20793 0.0
C2715 C 0.0599 0.49783 0.20586 0.0
C2716 C 0.07276 0.50481 0.21509 0.0
C2717 C 0.03935 0.47507 0.19925 0.0
C2718 C 0.03996 0.46081 0.18973 0.0
C2719 C 0.02501 0.48321 0.19965 0.0
C2720 C 0.023 0.49732 0.21084 0.0
C2721 C 0.01812 0.5118 0.20507 0.0
C2722 C 0.01644 0.52512 0.21561 0.0
C2723 C 0.01957 0.5241 0.23197 0.0
C2724 C 0.02432 0.50974 0.23783 0.0
C2725 C 0.02595 0.49637 0.22736 0.0
H2726 H 0.0183 0.53443 0.2401 0.0
H2727 H 0.03036 0.39878 0.14607 0.0
H2728 H 0.36704 0.75071 0.26575 0.0
H2729 H 0.3925 0.754 0.28046 0.0
H2730 H 0.36958 0.73215 0.32127 0.0
H2731 H 0.3439 0.72977 0.30706 0.0
H2732 H 0.38847 0.75637 0.3313 0.0
H2733 H 0.39416 0.71131 0.29456 0.0
H2734 H 0.39404 0.69658 0.26823 0.0
H2735 H 0.43137 0.73019 0.2518 0.0
H2736 H 0.43157 0.74526 0.27797 0.0
H2737 H 0.45783 0.73637 0.37216 0.0
H2738 H 0.43424 0.73189 0.35465 0.0
H2739 H 0.45524 0.76651 0.32241 0.0
H2740 H 0.47884 0.77132 0.34001 0.0
H2741 H 0.43815 0.73608 0.30764 0.0
H2742 H 0.43149 0.78091 0.34571 0.0
H2743 H 0.43169 0.79378 0.37293 0.0
H2744 H 0.3957 0.75788 0.38769 0.0
H2745 H 0.39549 0.74464 0.3606 0.0
C2746 C 0.36734 0.74683 0.27795 0.0
C2747 C 0.3534 0.73988 0.28517 0.0
C2748 C 0.38198 0.74851 0.28626 0.0
C2749 C 0.38305 0.74303 0.30187 0.0
C2750 C 0.3691 0.73637 0.3092 0.0
C2751 C 0.35444 0.73487 0.30098 0.0
C2752 C 0.39864 0.74435 0.31067 0.0
C2753 C 0.39925 0.75175 0.32614 0.0
C2754 C 0.41283 0.73855 0.30392 0.0
C2755 C 0.41276 0.72951 0.28817 0.0
C2756 C 0.40226 0.71564 0.28529 0.0
C2757 C 0.40219 0.70722 0.2704 0.0
C2758 C 0.41266 0.71247 0.25833 0.0
C2759 C 0.42325 0.72615 0.26115 0.0
C2760 C 0.42335 0.73463 0.27601 0.0
C2761 C 0.45761 0.7428 0.36119 0.0
C2762 C 0.47015 0.7543 0.35753 0.0
C2763 C 0.44411 0.74024 0.35123 0.0
C2764 C 0.44301 0.74897 0.33736 0.0
C2765 C 0.45592 0.75968 0.33309 0.0
C2766 C 0.46935 0.76244 0.34318 0.0
C2767 C 0.4278 0.74796 0.32814 0.0
C2768 C 0.4273 0.74068 0.31267 0.0
C2769 C 0.41364 0.75362 0.33495 0.0
C2770 C 0.4136 0.76169 0.35118 0.0
C2771 C 0.42373 0.77568 0.3548 0.0
C2772 C 0.42382 0.78305 0.37019 0.0
C2773 C 0.41375 0.77662 0.38204 0.0
C2774 C 0.40352 0.76283 0.3785 0.0
C2775 C 0.4034 0.75539 0.36313 0.0
H2776 H 0.41384 0.78235 0.39396 0.0
H2777 H 0.41259 0.70593 0.24682 0.0
H2778 H 0.95518 0.40219 0.0167 0.0
H2779 H 0.96528 0.38305 0.99669 0.0
H2780 H 0.9183 0.35754 0.9934 0.0
H2781 H 0.90801 0.37695 0.01332 0.0
H2782 H 0.94638 0.3381 0.99848 0.0
H2783 H 0.92748 0.37752 0.96389 0.0
H2784 H 0.92523 0.40509 0.95498 0.0
H2785 H 0.97636 0.41069 0.948 0.0
H2786 H 0.97895 0.38323 0.95711 0.0
H2787 H 0.96553 0.28594 0.93303 0.0
H2788 H 0.95299 0.30454 0.9517 0.0
H2789 H 0.99287 0.34 0.94596 0.0
H2790 H 0.00511 0.32165 0.92662 0.0
H2791 H 0.96682 0.35426 0.94532 0.0
H2792 H 0.98709 0.31687 0.98063 0.0
H2793 H 0.99124 0.29024 0.99103 0.0
H2794 H 0.9404 0.28169 0.99848 0.0
H2795 H 0.93591 0.30819 0.98792 0.0
C2796 C 0.947 0.39254 0.01162 0.0
C2797 C 0.93085 0.39097 0.01649 0.0
C2798 C 0.95276 0.38167 1.00021 0.0
C2799 C 0.94251 0.36894 0.99361 0.0
C2800 C 0.92634 0.36733 0.9984 0.0
C2801 C 0.92048 0.37841 0.00966 0.0
C2802 C 0.94896 0.35719 0.98196 0.0
C2803 C 0.9506 0.34147 0.98671 0.0
C2804 C 0.95497 0.36189 0.96693 0.0
C2805 C 0.95342 0.37836 0.96131 0.0
C2806 C 0.93826 0.38467 0.96058 0.0
C2807 C 0.93692 0.40027 0.95547 0.0
C2808 C 0.95065 0.40965 0.95096 0.0
C2809 C 0.96574 0.40342 0.95151 0.0
C2810 C 0.96715 0.38783 0.95663 0.0
C2811 C 0.9717 0.29765 0.93584 0.0
C2812 C 0.98634 0.30231 0.92841 0.0
C2813 C 0.96454 0.30827 0.94658 0.0
C2814 C 0.97208 0.32362 0.95047 0.0
C2815 C 0.9868 0.32824 0.94316 0.0
C2816 C 0.99382 0.31772 0.93216 0.0
C2817 C 0.9644 0.33501 0.96178 0.0
C2818 C 0.96255 0.35073 0.95701 0.0
C2819 C 0.95849 0.33039 0.97695 0.0
C2820 C 0.96115 0.31445 0.98333 0.0
C2821 C 0.97678 0.30926 0.98437 0.0
C2822 C 0.9792 0.2942 0.99031 0.0
C2823 C 0.96609 0.28426 0.99537 0.0
C2824 C 0.95054 0.28939 0.99453 0.0
C2825 C 0.94805 0.30444 0.98859 0.0
H2826 H 0.96799 0.2726 0.99997 0.0
H2827 H 0.94958 0.42173 0.94701 0.0
H2828 H 0.64189 0.82402 0.26942 0.0
H2829 H 0.62149 0.8204 0.2902 0.0
H2830 H 0.63686 0.77308 0.29824 0.0
H2831 H 0.65725 0.77659 0.27732 0.0
H2832 H 0.6049 0.77249 0.29784 0.0
H2833 H 0.64734 0.80537 0.32436 0.0
H2834 H 0.66751 0.8285 0.32791 0.0
H2835 H 0.62996 0.86113 0.32856 0.0
H2836 H 0.60957 0.8382 0.32477 0.0
H2837 H 0.55801 0.76496 0.36879 0.0
H2838 H 0.58175 0.76722 0.35149 0.0
H2839 H 0.5689 0.8138 0.33743 0.0
H2840 H 0.54528 0.81169 0.3547 0.0
H2841 H 0.60122 0.81346 0.34255 0.0
H2842 H 0.55926 0.78085 0.31376 0.0
H2843 H 0.53898 0.75786 0.30982 0.0
H2844 H 0.57583 0.72481 0.31341 0.0
H2845 H 0.59632 0.74763 0.3176 0.0
C2846 C 0.64098 0.81287 0.27568 0.0
C2847 C 0.65124 0.80062 0.2718 0.0
C2848 C 0.62933 0.81083 0.28757 0.0
C2849 C 0.62783 0.79658 0.296 0.0
C2850 C 0.63784 0.78419 0.29194 0.0
C2851 C 0.64944 0.78619 0.27995 0.0
C2852 C 0.61568 0.79461 0.30891 0.0
C2853 C 0.60429 0.7813 0.30778 0.0
C2854 C 0.6147 0.80624 0.32174 0.0
C2855 C 0.62693 0.82006 0.32416 0.0
C2856 C 0.64338 0.81748 0.32515 0.0
C2857 C 0.65486 0.83056 0.32722 0.0
C2858 C 0.65002 0.84628 0.32843 0.0
C2859 C 0.63369 0.84895 0.32761 0.0
C2860 C 0.62217 0.83591 0.32552 0.0
C2861 C 0.56037 0.77577 0.36218 0.0
C2862 C 0.54971 0.7881 0.36303 0.0
C2863 C 0.57389 0.77701 0.35225 0.0
C2864 C 0.57697 0.79059 0.34303 0.0
C2865 C 0.56674 0.80321 0.34442 0.0
C2866 C 0.55321 0.80195 0.35426 0.0
C2867 C 0.59039 0.79145 0.33136 0.0
C2868 C 0.60199 0.80457 0.33271 0.0
C2869 C 0.59158 0.77965 0.31874 0.0
C2870 C 0.57929 0.76593 0.31619 0.0
C2871 C 0.56302 0.76868 0.31385 0.0
C2872 C 0.55149 0.75568 0.31154 0.0
C2873 C 0.55611 0.73988 0.31142 0.0
C2874 C 0.57227 0.73705 0.31355 0.0
C2875 C 0.58385 0.75001 0.31588 0.0
H2876 H 0.54716 0.72983 0.30962 0.0
H2877 H 0.65892 0.85639 0.33002 0.0
H2878 H 0.09136 0.17727 0.02892 0.0
H2879 H 0.086 0.18973 0.00352 0.0
H2880 H 0.03566 0.17407 0.00725 0.0
H2881 H 0.04093 0.16157 0.03241 0.0
H2882 H 0.04787 0.16813 0.97687 0.0
H2883 H 0.04836 0.21209 0.01743 0.0
H2884 H 0.06078 0.23002 0.0391 0.0
H2885 H 0.0989 0.24552 0.00747 0.0
H2886 H 0.0868 0.22751 0.98566 0.0
H2887 H 0.00074 0.21624 0.9329 0.0
H2888 H 0.01479 0.20144 0.95231 0.0
H2889 H 0.05968 0.22731 0.94041 0.0
H2890 H 0.04555 0.24251 0.921 0.0
H2891 H 0.05585 0.22736 0.97204 0.0
H2892 H 0.05294 0.18689 0.93014 0.0
H2893 H 0.04059 0.16913 0.90832 0.0
H2894 H 0.0078 0.14682 0.94176 0.0
H2895 H 0.01979 0.1646 0.96376 0.0
C2896 C 0.07918 0.17646 0.02425 0.0
C2897 C 0.06653 0.16858 0.03271 0.0
C2898 C 0.07613 0.18361 0.0098 0.0
C2899 C 0.06042 0.18286 0.00355 0.0
C2900 C 0.04787 0.17478 0.01186 0.0
C2901 C 0.05087 0.16778 0.02631 0.0
C2902 C 0.05676 0.19067 0.9885 0.0
C2903 C 0.04957 0.18108 0.97579 0.0
C2904 C 0.05955 0.20749 0.98689 0.0
C2905 C 0.0668 0.2183 0.99999 0.0
C2906 C 0.05947 0.21921 0.01514 0.0
C2907 C 0.06643 0.22941 0.02744 0.0
C2908 C 0.08065 0.23886 0.02468 0.0
C2909 C 0.08791 0.23817 0.0096 0.0
C2910 C 0.081 0.22797 0.99727 0.0
C2911 C 0.01364 0.21866 0.9342 0.0
C2912 C 0.02202 0.23058 0.9254 0.0
C2913 C 0.02169 0.21009 0.94527 0.0
C2914 C 0.03834 0.21311 0.94771 0.0
C2915 C 0.04684 0.22474 0.93868 0.0
C2916 C 0.03876 0.23336 0.92755 0.0
C2917 C 0.04642 0.20488 0.96056 0.0
C2918 C 0.05446 0.21437 0.97288 0.0
C2919 C 0.04449 0.18794 0.96178 0.0
C2920 C 0.03723 0.17716 0.9486 0.0
C2921 C 0.04303 0.17827 0.93283 0.0
C2922 C 0.0361 0.16819 0.92043 0.0
C2923 C 0.02341 0.15687 0.92365 0.0
C2924 C 0.01764 0.15559 0.93929 0.0
C2925 C 0.02452 0.16566 0.95173 0.0
H2926 H 0.01806 0.14908 0.91403 0.0
H2927 H 0.08602 0.24675 0.03421 0.0
H2928 H 0.34198 0.30914 0.22681 0.0
H2929 H 0.36594 0.31085 0.21004 0.0
H2930 H 0.39357 0.29264 0.24805 0.0
H2931 H 0.37003 0.29209 0.26532 0.0
H2932 H 0.41104 0.31492 0.23477 0.0
H2933 H 0.37821 0.26844 0.21456 0.0
H2934 H 0.35363 0.25343 0.20371 0.0
H2935 H 0.3549 0.28324 0.16303 0.0
H2936 H 0.37939 0.29856 0.17375 0.0
H2937 H 0.47388 0.2828 0.18752 0.0
H2938 H 0.45066 0.28663 0.20485 0.0
H2939 H 0.4294 0.3137 0.16861 0.0
H2940 H 0.45259 0.31009 0.15125 0.0
H2941 H 0.40877 0.28843 0.18025 0.0
H2942 H 0.44347 0.33352 0.20058 0.0
H2943 H 0.46873 0.34691 0.2117 0.0
H2944 H 0.4646 0.3175 0.25263 0.0
H2945 H 0.43943 0.30377 0.24165 0.0
C2946 C 0.3532 0.30576 0.23174 0.0
C2947 C 0.35397 0.30034 0.24742 0.0
C2948 C 0.36687 0.30653 0.22203 0.0
C2949 C 0.38151 0.30155 0.22764 0.0
C2950 C 0.3824 0.29646 0.24339 0.0
C2951 C 0.36883 0.29594 0.25319 0.0
C2952 C 0.39588 0.30144 0.21713 0.0
C2953 C 0.41055 0.30898 0.22292 0.0
C2954 C 0.39525 0.29395 0.20152 0.0
C2955 C 0.38053 0.28475 0.19505 0.0
C2956 C 0.37318 0.27187 0.20336 0.0
C2957 C 0.35928 0.26329 0.19722 0.0
C2958 C 0.35268 0.26741 0.18271 0.0
C2959 C 0.36 0.28008 0.17428 0.0
C2960 C 0.3739 0.28871 0.18038 0.0
C2961 C 0.46435 0.28972 0.1833 0.0
C2962 C 0.46507 0.29612 0.16799 0.0
C2963 C 0.45113 0.29193 0.19323 0.0
C2964 C 0.43837 0.30046 0.18799 0.0
C2965 C 0.43916 0.30708 0.17285 0.0
C2966 C 0.45245 0.30505 0.16299 0.0
C2967 C 0.42383 0.30178 0.19798 0.0
C2968 C 0.40917 0.29445 0.19207 0.0
C2969 C 0.42454 0.30922 0.21355 0.0
C2970 C 0.43964 0.31751 0.22022 0.0
C2971 C 0.44802 0.32981 0.21189 0.0
C2972 C 0.46231 0.33748 0.21818 0.0
C2973 C 0.46829 0.33303 0.23284 0.0
C2974 C 0.45997 0.32093 0.24127 0.0
C2975 C 0.44568 0.31321 0.23502 0.0
H2976 H 0.47935 0.33899 0.23769 0.0
H2977 H 0.34192 0.26076 0.17797 0.0
H2978 H 0.55975 0.41514 0.00455 0.0
H2979 H 0.55329 0.39854 0.02729 0.0
H2980 H 0.5217 0.36659 0.99734 0.0
H2981 H 0.52876 0.38259 0.97415 0.0
H2982 H 0.50839 0.37981 0.02775 0.0
H2983 H 0.55358 0.35238 0.00685 0.0
H2984 H 0.58155 0.35104 0.99756 0.0
H2985 H 0.59908 0.37002 0.04354 0.0
H2986 H 0.57119 0.3717 0.05304 0.0
H2987 H 0.48778 0.31791 0.07933 0.0
H2988 H 0.49652 0.33429 0.05716 0.0
H2989 H 0.53786 0.35394 0.08479 0.0
H2990 H 0.52956 0.33666 0.10684 0.0
H2991 H 0.54694 0.34824 0.05601 0.0
H2992 H 0.5033 0.37588 0.07774 0.0
H2993 H 0.4759 0.37917 0.08789 0.0
H2994 H 0.45602 0.36279 0.04199 0.0
H2995 H 0.48329 0.35919 0.03162 0.0
C2996 C 0.55175 0.40436 0.00259 0.0
C2997 C 0.54485 0.4002 0.98739 0.0
C2998 C 0.54798 0.39497 0.01568 0.0
C2999 C 0.53707 0.38137 0.01393 0.0
C3000 C 0.53015 0.3771 0.99887 0.0
C3001 C 0.53412 0.38633 0.98567 0.0
C3002 C 0.5324 0.37202 0.02803 0.0
C3003 C 0.5167 0.3727 0.03384 0.0
C3004 C 0.54353 0.36339 0.03627 0.0
C3005 C 0.5603 0.36232 0.0306 0.0
C3006 C 0.5634 0.35641 0.01493 0.0
C3007 C 0.57924 0.35556 0.00964 0.0
C3008 C 0.59208 0.36049 0.01993 0.0
C3009 C 0.58912 0.36623 0.03557 0.0
C3010 C 0.5733 0.36712 0.04091 0.0
C3011 C 0.49866 0.32583 0.08078 0.0
C3012 C 0.5079 0.32616 0.09489 0.0
C3013 C 0.50362 0.33527 0.06809 0.0
C3014 C 0.51764 0.34571 0.0694 0.0
C3015 C 0.52694 0.34607 0.08351 0.0
C3016 C 0.52217 0.33627 0.09613 0.0
C3017 C 0.52273 0.35579 0.05578 0.0
C3018 C 0.53855 0.35535 0.05004 0.0
C3019 C 0.51178 0.36495 0.04776 0.0
C3020 C 0.49534 0.36715 0.05394 0.0
C3021 C 0.49308 0.37288 0.06984 0.0
C3022 C 0.47757 0.37481 0.07563 0.0
C3023 C 0.46423 0.37116 0.0656 0.0
C3024 C 0.46637 0.3656 0.04975 0.0
C3025 C 0.48185 0.36363 0.0439 0.0
H3026 H 0.45223 0.37266 0.07011 0.0
H3027 H 0.60434 0.35981 0.01581 0.0
H3028 H 0.65646 0.29305 0.25494 0.0
H3029 H 0.63573 0.29555 0.23459 0.0
H3030 H 0.62196 0.24461 0.23623 0.0
H3031 H 0.64309 0.24201 0.25612 0.0
H3032 H 0.62146 0.25247 0.20683 0.0
H3033 H 0.60034 0.27498 0.25576 0.0
H3034 H 0.60029 0.29314 0.27997 0.0
H3035 H 0.60338 0.33429 0.25064 0.0
H3036 H 0.60367 0.31637 0.22626 0.0
H3037 H 0.54129 0.24954 0.17793 0.0
H3038 H 0.56552 0.2494 0.19435 0.0
H3039 H 0.57976 0.29806 0.18176 0.0
H3040 H 0.55545 0.29829 0.16514 0.0
H3041 H 0.58125 0.29309 0.21497 0.0
H3042 H 0.59962 0.26886 0.16567 0.0
H3043 H 0.59812 0.24953 0.14233 0.0
H3044 H 0.59835 0.21008 0.17366 0.0
H3045 H 0.59962 0.22917 0.19722 0.0
C3046 C 0.649 0.28241 0.25091 0.0
C3047 C 0.65131 0.26735 0.25712 0.0
C3048 C 0.63712 0.28385 0.23933 0.0
C3049 C 0.62705 0.27032 0.23405 0.0
C3050 C 0.62955 0.25522 0.24009 0.0
C3051 C 0.64161 0.25374 0.25145 0.0
C3052 C 0.61382 0.27185 0.22235 0.0
C3053 C 0.6126 0.26127 0.20872 0.0
C3054 C 0.6024 0.28355 0.22457 0.0
C3055 C 0.60221 0.29434 0.2392 0.0
C3056 C 0.60113 0.2879 0.25449 0.0
C3057 C 0.60104 0.29815 0.26823 0.0
C3058 C 0.60188 0.31486 0.26684 0.0
C3059 C 0.60277 0.32135 0.2517 0.0
C3060 C 0.60288 0.31115 0.23791 0.0
C3061 C 0.5496 0.2602 0.17855 0.0
C3062 C 0.54645 0.27393 0.17023 0.0
C3063 C 0.56348 0.26006 0.1879 0.0
C3064 C 0.57448 0.27367 0.18917 0.0
C3065 C 0.57142 0.28742 0.18087 0.0
C3066 C 0.55758 0.28751 0.17136 0.0
C3067 C 0.58884 0.2736 0.19966 0.0
C3068 C 0.59024 0.28443 0.21305 0.0
C3069 C 0.60025 0.26196 0.19737 0.0
C3070 C 0.5996 0.25045 0.18322 0.0
C3071 C 0.59923 0.25606 0.16759 0.0
C3072 C 0.59844 0.24515 0.15432 0.0
C3073 C 0.59811 0.22859 0.15651 0.0
C3074 C 0.5986 0.22291 0.17198 0.0
C3075 C 0.59938 0.23377 0.1853 0.0
H3076 H 0.5975 0.22016 0.14622 0.0
H3077 H 0.60181 0.32277 0.2775 0.0
H3078 H 0.47652 0.14151 0.00771 0.0
H3079 H 0.48708 0.16177 0.0281 0.0
H3080 H 0.44403 0.18704 0.02414 0.0
H3081 H 0.43331 0.16669 0.0039 0.0
H3082 H 0.47478 0.20697 0.02463 0.0
H3083 H 0.44514 0.16478 0.0533 0.0
H3084 H 0.43907 0.13656 0.06041 0.0
H3085 H 0.48753 0.13455 0.07733 0.0
H3086 H 0.49395 0.16272 0.07007 0.0
H3087 H 0.47167 0.25795 0.09261 0.0
H3088 H 0.46616 0.23714 0.07151 0.0
H3089 H 0.50475 0.2108 0.08899 0.0
H3090 H 0.51003 0.23151 0.11066 0.0
H3091 H 0.4799 0.19071 0.08078 0.0
H3092 H 0.50942 0.23313 0.05511 0.0
H3093 H 0.51668 0.26104 0.04761 0.0
H3094 H 0.47086 0.26247 0.02435 0.0
H3095 H 0.46322 0.23465 0.03191 0.0
C3096 C 0.46942 0.15151 0.01108 0.0
C3097 C 0.45411 0.15259 0.00432 0.0
C3098 C 0.47542 0.16299 0.02272 0.0
C3099 C 0.46628 0.1758 0.0276 0.0
C3100 C 0.45123 0.17721 0.02048 0.0
C3101 C 0.4451 0.16559 0.00903 0.0
C3102 C 0.4721 0.18741 0.04059 0.0
C3103 C 0.47581 0.20351 0.03694 0.0
C3104 C 0.47397 0.18264 0.05648 0.0
C3105 C 0.47008 0.16578 0.06097 0.0
C3106 C 0.45454 0.15827 0.0584 0.0
C3107 C 0.45103 0.1423 0.06248 0.0
C3108 C 0.46292 0.13375 0.06927 0.0
C3109 C 0.47834 0.14118 0.07204 0.0
C3110 C 0.48192 0.15715 0.06795 0.0
C3111 C 0.479 0.24773 0.09201 0.0
C3112 C 0.49139 0.24643 0.1032 0.0
C3113 C 0.47589 0.23588 0.07987 0.0
C3114 C 0.48532 0.22263 0.0784 0.0
C3115 C 0.49742 0.22101 0.08982 0.0
C3116 C 0.50041 0.23282 0.10218 0.0
C3117 C 0.48228 0.2105 0.06496 0.0
C3118 C 0.4791 0.19425 0.06847 0.0
C3119 C 0.48113 0.2151 0.04888 0.0
C3120 C 0.4857 0.23182 0.04418 0.0
C3121 C 0.50084 0.23943 0.04848 0.0
C3122 C 0.50503 0.25523 0.04421 0.0
C3123 C 0.49422 0.26353 0.03554 0.0
C3124 C 0.47922 0.25603 0.03108 0.0
C3125 C 0.47496 0.24023 0.03534 0.0
H3126 H 0.49749 0.27577 0.03225 0.0
H3127 H 0.46018 0.12138 0.07243 0.0
H3128 H 0.26151 0.40126 0.70578 0.0
H3129 H 0.27943 0.42599 0.70801 0.0
H3130 H 0.27696 0.42537 0.75959 0.0
H3131 H 0.25939 0.40057 0.75751 0.0
H3132 H 0.27243 0.45529 0.74827 0.0
H3133 H 0.30948 0.41332 0.74005 0.0
H3134 H 0.32038 0.39031 0.72515 0.0
H3135 H 0.32924 0.41934 0.68441 0.0
H3136 H 0.31818 0.44246 0.69901 0.0
H3137 H 0.33645 0.50656 0.77861 0.0
H3138 H 0.31724 0.48412 0.77082 0.0
H3139 H 0.33102 0.48838 0.72127 0.0
H3140 H 0.35091 0.51058 0.72915 0.0
H3141 H 0.32838 0.45816 0.72773 0.0
H3142 H 0.29414 0.50093 0.73622 0.0
H3143 H 0.28307 0.52422 0.75045 0.0
H3144 H 0.26815 0.49452 0.78926 0.0
H3145 H 0.27933 0.47109 0.77537 0.0
C3146 C 0.26491 0.4063 0.71759 0.0
C3147 C 0.25896 0.39895 0.73147 0.0
C3148 C 0.2751 0.42046 0.71884 0.0
C3149 C 0.27953 0.42749 0.73397 0.0
C3150 C 0.27359 0.4202 0.7478 0.0
C3151 C 0.26349 0.40605 0.74658 0.0
C3152 C 0.29034 0.44245 0.73556 0.0
C3153 C 0.28471 0.45592 0.74387 0.0
C3154 C 0.30612 0.44343 0.72928 0.0
C3155 C 0.31283 0.42955 0.72055 0.0
C3156 C 0.31363 0.41475 0.72787 0.0
C3157 C 0.31986 0.4017 0.71948 0.0
C3158 C 0.32545 0.40335 0.70382 0.0
C3159 C 0.32487 0.41807 0.69653 0.0
C3160 C 0.31863 0.43115 0.70486 0.0
C3161 C 0.33533 0.50284 0.76602 0.0
C3162 C 0.34514 0.51043 0.75448 0.0
C3163 C 0.32425 0.49003 0.76156 0.0
C3164 C 0.32239 0.48475 0.7454 0.0
C3165 C 0.33217 0.49229 0.73381 0.0
C3166 C 0.3435 0.50499 0.73831 0.0
C3167 C 0.31064 0.47096 0.74084 0.0
C3168 C 0.31605 0.4577 0.73194 0.0
C3169 C 0.29456 0.47023 0.74643 0.0
C3170 C 0.28767 0.48427 0.75478 0.0
C3171 C 0.28858 0.49938 0.74783 0.0
C3172 C 0.28228 0.51261 0.75583 0.0
C3173 C 0.27494 0.51086 0.77076 0.0
C3174 C 0.27385 0.49586 0.77769 0.0
C3175 C 0.28014 0.4826 0.76975 0.0
H3176 H 0.27007 0.52112 0.77694 0.0
H3177 H 0.33027 0.39323 0.69735 0.0
H3178 H 0.28509 0.70654 0.79451 0.0
H3179 H 0.30491 0.68606 0.79307 0.0
H3180 H 0.26641 0.64843 0.79242 0.0
H3181 H 0.24655 0.66882 0.79337 0.0
H3182 H 0.2962 0.64963 0.81737 0.0
H3183 H 0.27914 0.64926 0.7609 0.0
H3184 H 0.27488 0.663 0.73587 0.0
H3185 H 0.32473 0.68038 0.73564 0.0
H3186 H 0.32921 0.66693 0.76083 0.0
H3187 H 0.33004 0.57619 0.80196 0.0
H3188 H 0.31384 0.59932 0.80359 0.0
H3189 H 0.35049 0.62721 0.7781 0.0
H3190 H 0.36636 0.60358 0.77556 0.0
H3191 H 0.32378 0.63364 0.76709 0.0
H3192 H 0.34292 0.63287 0.82053 0.0
H3193 H 0.34908 0.6216 0.84644 0.0
H3194 H 0.29874 0.60975 0.85425 0.0
H3195 H 0.29228 0.62076 0.82828 0.0
C3196 C 0.28091 0.69388 0.79396 0.0
C3197 C 0.26435 0.68919 0.79397 0.0
C3198 C 0.29219 0.68225 0.79314 0.0
C3199 C 0.28705 0.66581 0.79264 0.0
C3200 C 0.27054 0.6611 0.79278 0.0
C3201 C 0.25926 0.6727 0.79324 0.0
C3202 C 0.2989 0.65346 0.7922 0.0
C3203 C 0.30217 0.64596 0.80639 0.0
C3204 C 0.30714 0.64932 0.77802 0.0
C3205 C 0.30445 0.65728 0.76284 0.0
C3206 C 0.28915 0.65616 0.7556 0.0
C3207 C 0.2867 0.66386 0.74137 0.0
C3208 C 0.29951 0.67261 0.73419 0.0
C3209 C 0.31481 0.67363 0.74122 0.0
C3210 C 0.31731 0.66597 0.75547 0.0
C3211 C 0.33473 0.58729 0.79682 0.0
C3212 C 0.34952 0.58812 0.78873 0.0
C3213 C 0.32548 0.60059 0.79785 0.0
C3214 C 0.33105 0.61523 0.79132 0.0
C3215 C 0.34592 0.61611 0.78331 0.0
C3216 C 0.35501 0.60263 0.78191 0.0
C3217 C 0.32096 0.62929 0.79228 0.0
C3218 C 0.31802 0.63725 0.77819 0.0
C3219 C 0.31332 0.63415 0.80672 0.0
C3220 C 0.31713 0.62754 0.82238 0.0
C3221 C 0.33317 0.62776 0.82772 0.0
C3222 C 0.33671 0.62143 0.84242 0.0
C3223 C 0.32431 0.61493 0.85197 0.0
C3224 C 0.30833 0.61478 0.84684 0.0
C3225 C 0.30472 0.62109 0.83213 0.0
H3226 H 0.32708 0.61004 0.86335 0.0
H3227 H 0.2976 0.67856 0.72317 0.0
H3228 H 0.85953 0.52455 0.44971 0.0
H3229 H 0.83908 0.50637 0.46198 0.0
H3230 H 0.85881 0.52019 0.50884 0.0
H3231 H 0.87937 0.53828 0.49664 0.0
H3232 H 0.85334 0.48684 0.50331 0.0
H3233 H 0.8249 0.5346 0.49845 0.0
H3234 H 0.81466 0.55697 0.48408 0.0
H3235 H 0.78767 0.52306 0.45221 0.0
H3236 H 0.79793 0.50048 0.46625 0.0
H3237 H 0.79004 0.44513 0.54552 0.0
H3238 H 0.8102 0.46552 0.53622 0.0
H3239 H 0.78739 0.46254 0.48956 0.0
H3240 H 0.76676 0.443 0.49914 0.0
H3241 H 0.7948 0.49186 0.49665 0.0
H3242 H 0.82413 0.44422 0.4991 0.0
H3243 H 0.83481 0.42114 0.51198 0.0
H3244 H 0.86047 0.45349 0.54631 0.0
H3245 H 0.84979 0.47675 0.53375 0.0
C3246 C 0.85949 0.52369 0.46262 0.0
C3247 C 0.87099 0.53284 0.47224 0.0
C3248 C 0.84777 0.5134 0.46961 0.0
C3249 C 0.84741 0.51205 0.48631 0.0
C3250 C 0.85889 0.52113 0.49593 0.0
C3251 C 0.87053 0.53152 0.48897 0.0
C3252 C 0.83524 0.50086 0.49369 0.0
C3253 C 0.84052 0.48802 0.50208 0.0
C3254 C 0.81857 0.50227 0.49172 0.0
C3255 C 0.8123 0.51585 0.48333 0.0
C3256 C 0.81688 0.53191 0.4883 0.0
C3257 C 0.81105 0.54463 0.48023 0.0
C3258 C 0.80055 0.54144 0.46722 0.0
C3259 C 0.79582 0.52552 0.46228 0.0
C3260 C 0.80162 0.51275 0.4703 0.0
C3261 C 0.7894 0.44885 0.53329 0.0
C3262 C 0.77688 0.44251 0.52304 0.0
C3263 C 0.80096 0.46043 0.52794 0.0
C3264 C 0.8005 0.46542 0.51208 0.0
C3265 C 0.78801 0.45897 0.50186 0.0
C3266 C 0.77625 0.44775 0.50732 0.0
C3267 C 0.81282 0.4775 0.50605 0.0
C3268 C 0.80759 0.4906 0.49796 0.0
C3269 C 0.82956 0.47617 0.50807 0.0
C3270 C 0.83603 0.4622 0.51559 0.0
C3271 C 0.83197 0.4464 0.50946 0.0
C3272 C 0.83803 0.43329 0.51669 0.0
C3273 C 0.84828 0.43584 0.52998 0.0
C3274 C 0.85252 0.45152 0.53604 0.0
C3275 C 0.84647 0.46467 0.52886 0.0
H3276 H 0.85296 0.42568 0.53556 0.0
H3277 H 0.79605 0.55131 0.46098 0.0
H3278 H 0.72866 0.86897 0.80064 0.0
H3279 H 0.7088 0.88893 0.79928 0.0
H3280 H 0.70487 0.87983 0.74807 0.0
H3281 H 0.72478 0.85969 0.74935 0.0
H3282 H 0.70746 0.91156 0.75565 0.0
H3283 H 0.67471 0.86627 0.77258 0.0
H3284 H 0.66695 0.84305 0.78894 0.0
H3285 H 0.66528 0.87464 0.83097 0.0
H3286 H 0.67327 0.89803 0.8149 0.0
H3287 H 0.64131 0.96153 0.75306 0.0
H3288 H 0.65619 0.93722 0.75065 0.0
H3289 H 0.66902 0.94305 0.80077 0.0
H3290 H 0.65432 0.96735 0.80326 0.0
H3291 H 0.65957 0.91107 0.79098 0.0
H3292 H 0.69535 0.95562 0.7742 0.0
H3293 H 0.70325 0.97876 0.75777 0.0
H3294 H 0.69884 0.94797 0.71502 0.0
H3295 H 0.69068 0.92468 0.73121 0.0
C3296 C 0.7234 0.87101 0.78911 0.0
C3297 C 0.72823 0.86265 0.77511 0.0
C3298 C 0.71205 0.88245 0.78835 0.0
C3299 C 0.70517 0.88571 0.7736 0.0
C3300 C 0.71 0.87747 0.75958 0.0
C3301 C 0.7214 0.86601 0.76032 0.0
C3302 C 0.69338 0.89818 0.77289 0.0
C3303 C 0.6968 0.91127 0.76312 0.0
C3304 C 0.67959 0.89793 0.78282 0.0
C3305 C 0.6747 0.8839 0.79254 0.0
C3306 C 0.6728 0.86826 0.78533 0.0
C3307 C 0.66834 0.85506 0.79455 0.0
C3308 C 0.66565 0.85736 0.81099 0.0
C3309 C 0.66738 0.87287 0.81823 0.0
C3310 C 0.67185 0.88611 0.80907 0.0
C3311 C 0.64718 0.95754 0.76359 0.0
C3312 C 0.64673 0.9664 0.77833 0.0
C3313 C 0.65569 0.94368 0.76219 0.0
C3314 C 0.66378 0.93842 0.77551 0.0
C3315 C 0.66285 0.94692 0.79035 0.0
C3316 C 0.6545 0.96083 0.79173 0.0
C3317 C 0.67384 0.92449 0.77396 0.0
C3318 C 0.67009 0.91118 0.78333 0.0
C3319 C 0.68728 0.92449 0.76362 0.0
C3320 C 0.69221 0.93846 0.75389 0.0
C3321 C 0.69591 0.95382 0.76129 0.0
C3322 C 0.70047 0.96695 0.75202 0.0
C3323 C 0.70149 0.96485 0.73536 0.0
C3324 C 0.69801 0.94959 0.72793 0.0
C3325 C 0.69342 0.93642 0.73714 0.0
H3326 H 0.70503 0.97503 0.7282 0.0
H3327 H 0.6622 0.84713 0.8181 0.0
H3328 H 0.64803 0.51177 0.92678 0.0
H3329 H 0.66795 0.53421 0.93402 0.0
H3330 H 0.65413 0.53153 0.98367 0.0
H3331 H 0.63433 0.50914 0.97655 0.0
H3332 H 0.65572 0.56326 0.97154 0.0
H3333 H 0.68731 0.51677 0.97335 0.0
H3334 H 0.69825 0.49202 0.96195 0.0
H3335 H 0.72096 0.51885 0.92435 0.0
H3336 H 0.70996 0.54372 0.93541 0.0
H3337 H 0.71753 0.61331 0.01061 0.0
H3338 H 0.69766 0.59155 0.00186 0.0
H3339 H 0.72164 0.58733 0.95617 0.0
H3340 H 0.74201 0.6084 0.96526 0.0
H3341 H 0.71446 0.55925 0.96501 0.0
H3342 H 0.68425 0.6056 0.96213 0.0
H3343 H 0.67287 0.63079 0.9717 0.0
H3344 H 0.64699 0.60551 0.00849 0.0
H3345 H 0.65838 0.58019 0.99927 0.0
C3346 C 0.64932 0.51597 0.93922 0.0
C3347 C 0.63976 0.50867 0.95113 0.0
C3348 C 0.66068 0.52872 0.94334 0.0
C3349 C 0.66248 0.53445 0.95937 0.0
C3350 C 0.65289 0.52724 0.97124 0.0
C3351 C 0.64171 0.51439 0.96717 0.0
C3352 C 0.67428 0.54805 0.96387 0.0
C3353 C 0.66859 0.5624 0.97027 0.0
C3354 C 0.69098 0.54699 0.96169 0.0
C3355 C 0.69767 0.53206 0.95511 0.0
C3356 C 0.69452 0.51736 0.96257 0.0
C3357 C 0.70075 0.50332 0.95619 0.0
C3358 C 0.71026 0.50385 0.94241 0.0
C3359 C 0.71358 0.51844 0.93501 0.0
C3360 C 0.70736 0.53252 0.94134 0.0
C3361 C 0.71849 0.60776 0.99869 0.0
C3362 C 0.73129 0.61251 0.98861 0.0
C3363 C 0.70707 0.59539 0.99364 0.0
C3364 C 0.70796 0.58793 0.97822 0.0
C3365 C 0.72068 0.59284 0.96812 0.0
C3366 C 0.7323 0.60491 0.9733 0.0
C3367 C 0.69598 0.57465 0.9728 0.0
C3368 C 0.70161 0.56029 0.96621 0.0
C3369 C 0.67918 0.57582 0.97452 0.0
C3370 C 0.67229 0.59103 0.98009 0.0
C3371 C 0.67622 0.60543 0.97233 0.0
C3372 C 0.66975 0.61973 0.97768 0.0
C3373 C 0.65924 0.61976 0.99071 0.0
C3374 C 0.65514 0.60547 0.9984 0.0
C3375 C 0.66159 0.59114 0.99311 0.0
H3376 H 0.65425 0.63084 0.99484 0.0
H3377 H 0.71508 0.49297 0.93749 0.0
H3378 H 0.24858 0.65321 0.24322 0.0
H3379 H 0.23252 0.62804 0.24669 0.0
H3380 H 0.18957 0.65077 0.23446 0.0
H3381 H 0.20535 0.67644 0.23242 0.0
H3382 H 0.1829 0.63307 0.25771 0.0
H3383 H 0.2095 0.6237 0.20779 0.0
H3384 H 0.23244 0.62254 0.18924 0.0
H3385 H 0.25273 0.58748 0.2178 0.0
H3386 H 0.23001 0.58859 0.23664 0.0
H3387 H 0.13412 0.56063 0.24049 0.0
H3388 H 0.15164 0.58479 0.23565 0.0
H3389 H 0.18909 0.56686 0.264 0.0
H3390 H 0.17151 0.5427 0.26921 0.0
H3391 H 0.19849 0.58142 0.23242 0.0
H3392 H 0.17056 0.5919 0.28235 0.0
H3393 H 0.1463 0.59289 0.29916 0.0
H3394 H 0.12699 0.62605 0.2677 0.0
H3395 H 0.15105 0.62505 0.25056 0.0
C3396 C 0.23568 0.65301 0.24153 0.0
C3397 C 0.22832 0.667 0.23758 0.0
C3398 C 0.22652 0.63845 0.24323 0.0
C3399 C 0.20984 0.63736 0.24052 0.0
C3400 C 0.20244 0.65125 0.23653 0.0
C3401 C 0.21154 0.66592 0.23517 0.0
C3402 C 0.20005 0.62186 0.24231 0.0
C3403 C 0.18624 0.62186 0.25196 0.0
C3404 C 0.20447 0.60709 0.23506 0.0
C3405 C 0.21812 0.60634 0.22371 0.0
C3406 C 0.21891 0.61583 0.21018 0.0
C3407 C 0.23187 0.61516 0.1996 0.0
C3408 C 0.24406 0.60497 0.20236 0.0
C3409 C 0.24329 0.59538 0.21568 0.0
C3410 C 0.23037 0.59601 0.22631 0.0
C3411 C 0.14615 0.5617 0.24555 0.0
C3412 C 0.15142 0.54978 0.2553 0.0
C3413 C 0.15611 0.57552 0.24279 0.0
C3414 C 0.17157 0.57758 0.24955 0.0
C3415 C 0.17717 0.56543 0.25871 0.0
C3416 C 0.1671 0.55169 0.2617 0.0
C3417 C 0.18151 0.59282 0.2477 0.0
C3418 C 0.19527 0.59272 0.23808 0.0
C3419 C 0.17691 0.60754 0.25471 0.0
C3420 C 0.16252 0.60826 0.26509 0.0
C3421 C 0.16108 0.59928 0.27894 0.0
C3422 C 0.14738 0.59987 0.28855 0.0
C3423 C 0.13509 0.60949 0.28448 0.0
C3424 C 0.13651 0.61858 0.27083 0.0
C3425 C 0.15018 0.61802 0.26117 0.0
H3426 H 0.1245 0.60993 0.29193 0.0
H3427 H 0.25408 0.60448 0.19416 0.0
H3428 H 0.86035 0.51745 0.09174 0.0
H3429 H 0.84677 0.54059 0.08296 0.0
H3430 H 0.86512 0.53284 0.03513 0.0
H3431 H 0.87925 0.5102 0.04394 0.0
H3432 H 0.86901 0.56373 0.04413 0.0
H3433 H 0.82552 0.52227 0.04494 0.0
H3434 H 0.80771 0.50115 0.05701 0.0
H3435 H 0.79233 0.53585 0.09231 0.0
H3436 H 0.81022 0.55714 0.08057 0.0
H3437 H 0.81825 0.6064 0.99673 0.0
H3438 H 0.83314 0.58665 0.00994 0.0
H3439 H 0.81288 0.60098 0.05547 0.0
H3440 H 0.79767 0.62075 0.04223 0.0
H3441 H 0.81035 0.56853 0.05041 0.0
H3442 H 0.85248 0.61058 0.04757 0.0
H3443 H 0.8699 0.63139 0.0346 0.0
H3444 H 0.88762 0.59525 0.00226 0.0
H3445 H 0.87013 0.57424 0.01489 0.0
C3446 C 0.86154 0.52071 0.07937 0.0
C3447 C 0.87086 0.51191 0.06854 0.0
C3448 C 0.85365 0.53386 0.07433 0.0
C3449 C 0.85482 0.53839 0.05834 0.0
C3450 C 0.86403 0.52957 0.04751 0.0
C3451 C 0.87195 0.51649 0.05254 0.0
C3452 C 0.84678 0.55251 0.05286 0.0
C3453 C 0.85616 0.56471 0.04538 0.0
C3454 C 0.83009 0.55404 0.05492 0.0
C3455 C 0.81935 0.54125 0.062 0.0
C3456 C 0.81844 0.52536 0.05537 0.0
C3457 C 0.80831 0.51337 0.06213 0.0
C3458 C 0.79893 0.51714 0.07545 0.0
C3459 C 0.79963 0.53293 0.08201 0.0
C3460 C 0.80975 0.54497 0.0753 0.0
C3461 C 0.8171 0.60554 0.00959 0.0
C3462 C 0.80677 0.61517 0.01843 0.0
C3463 C 0.82568 0.59426 0.01715 0.0
C3464 C 0.82423 0.59241 0.03372 0.0
C3465 C 0.8142 0.60223 0.04267 0.0
C3466 C 0.80559 0.61358 0.0351 0.0
C3467 C 0.83255 0.57959 0.04142 0.0
C3468 C 0.82324 0.56765 0.04933 0.0
C3469 C 0.84929 0.57824 0.03968 0.0
C3470 C 0.8599 0.59084 0.03211 0.0
C3471 C 0.86 0.60708 0.03762 0.0
C3472 C 0.86991 0.61891 0.03034 0.0
C3473 C 0.87984 0.61465 0.0176 0.0
C3474 C 0.87991 0.59854 0.01213 0.0
C3475 C 0.87003 0.58666 0.01936 0.0
H3476 H 0.88749 0.62383 0.01198 0.0
H3477 H 0.79109 0.50784 0.08066 0.0
H3478 H 0.16223 0.0749 0.08192 0.0
H3479 H 0.17664 0.05053 0.07715 0.0
H3480 H 0.13318 0.02108 0.08681 0.0
H3481 H 0.1189 0.04532 0.09193 0.0
H3482 H 0.15778 0.00774 0.09863 0.0
H3483 H 0.14517 0.02975 0.04803 0.0
H3484 H 0.1454 0.05087 0.02824 0.0
H3485 H 0.19705 0.05347 0.02729 0.0
H3486 H 0.19712 0.0325 0.04725 0.0
H3487 H 0.18477 0.94946 0.02874 0.0
H3488 H 0.17115 0.97246 0.03961 0.0
H3489 H 0.20003 0.97344 0.08265 0.0
H3490 H 0.21338 0.95 0.07198 0.0
H3491 H 0.1837 0.00137 0.04548 0.0
H3492 H 0.18036 0.99213 0.11365 0.0
H3493 H 0.17743 0.96993 0.13226 0.0
H3494 H 0.15293 0.93936 0.09571 0.0
H3495 H 0.15553 0.96144 0.07695 0.0
C3496 C 0.15582 0.06321 0.08315 0.0
C3497 C 0.13943 0.062 0.08723 0.0
C3498 C 0.16405 0.0493 0.08042 0.0
C3499 C 0.15593 0.03395 0.08139 0.0
C3500 C 0.13972 0.03277 0.08604 0.0
C3501 C 0.13157 0.04664 0.08896 0.0
C3502 C 0.16389 0.0191 0.07654 0.0
C3503 C 0.16353 0.00637 0.08704 0.0
C3504 C 0.17118 0.01718 0.06133 0.0
C3505 C 0.17115 0.02969 0.04925 0.0
C3506 C 0.15657 0.0349 0.04368 0.0
C3507 C 0.15665 0.04684 0.03242 0.0
C3508 C 0.17123 0.05354 0.02655 0.0
C3509 C 0.18577 0.04829 0.03188 0.0
C3510 C 0.18576 0.03638 0.04315 0.0
C3511 C 0.18801 0.95437 0.04066 0.0
C3512 C 0.20016 0.94795 0.0495 0.0
C3513 C 0.18027 0.96758 0.04682 0.0
C3514 C 0.18459 0.97476 0.06192 0.0
C3515 C 0.19634 0.96801 0.07105 0.0
C3516 C 0.20396 0.95461 0.06495 0.0
C3517 C 0.17745 0.98987 0.06748 0.0
C3518 C 0.17806 0.00273 0.05713 0.0
C3519 C 0.17005 0.99171 0.08265 0.0
C3520 C 0.16831 0.97839 0.09385 0.0
C3521 C 0.17431 0.98068 0.1096 0.0
C3522 C 0.17271 0.96812 0.12018 0.0
C3523 C 0.16505 0.95323 0.11515 0.0
C3524 C 0.15892 0.95088 0.09956 0.0
C3525 C 0.16048 0.96341 0.08895 0.0
H3526 H 0.16383 0.94352 0.12335 0.0
H3527 H 0.17127 0.06277 0.01783 0.0
loop_
_geom_bond_atom_site_label_1
_geom_bond_atom_site_label_2
_geom_bond_distance
_geom_bond_site_symmetry_2
_ccdc_geom_bond_type
C0 C1 1.391 . S
C0 C4 1.391 . S
C0 H42 0.948 . S
C1 C0 1.391 . S
C1 C2 1.391 . S
C2 C1 1.391 . S
C2 H58 0.947 . S
C2 C59 1.392 . S
C3 C4 1.391 . S
C3 C7 1.397 . S
C3 C59 1.419 . S
C4 C0 1.391 . S
C4 C3 1.391 . S
C4 C5 1.399 . S
C5 C4 1.399 . S
C5 C8 1.396 . S
C5 C17 1.453 . S
C5 C18 1.684 . S
H6 C30 0.948 . S
C7 C3 1.397 . S
C7 C8 1.394 . S
C7 C26 1.723 . S
C8 C5 1.396 . S
C8 C7 1.394 . S
C8 C38 1.723 . S
H9 C32 0.947 . S
H10 C33 0.948 . S
H11 C39 0.982 . S
H12 C40 0.979 . S
H13 C40 0.980 . S
H14 C40 0.983 . S
H15 C39 0.979 . S
H16 C39 0.977 . S
C17 C5 1.453 . S
C17 H46 0.982 . S
C17 H47 0.979 . S
C17 H48 0.977 . S
C18 C5 1.684 . S
C18 H43 0.979 . S
C18 H44 0.980 . S
C18 H45 0.983 . S
C19 C20 1.391 . S
C19 C24 1.391 . S
C19 H49 0.948 . S
C20 C19 1.391 . S
C20 C21 1.391 . S
C21 C20 1.391 . S
C21 C22 1.392 . S
C21 H50 0.947 . S
C22 C21 1.392 . S
C22 C23 1.419 . S
C22 H51 0.948 . S
C23 C22 1.419 . S
C23 C24 1.391 . S
C23 C27 1.397 . S
C24 C19 1.391 . S
C24 C23 1.391 . S
C24 C25 1.399 . S
C25 C24 1.399 . S
C25 C26 1.396 . S
C25 C28 1.453 . S
C25 C29 1.684 . S
C26 C7 1.723 . S
C26 C25 1.396 . S
C26 C27 1.394 . S
C27 C23 1.397 . S
C27 C26 1.394 . S
C27 C37 1.723 . S
C28 C25 1.453 . S
C28 H52 0.982 . S
C28 H53 0.979 . S
C28 H54 0.977 . S
C29 C25 1.684 . S
C29 H55 0.979 . S
C29 H56 0.980 . S
C29 H57 0.983 . S
C30 H6 0.948 . S
C30 C31 1.391 . S
C30 C35 1.391 . S
C31 C30 1.391 . S
C31 C32 1.391 . S
C32 H9 0.947 . S
C32 C31 1.391 . S
C32 C33 1.392 . S
C33 H10 0.948 . S
C33 C32 1.392 . S
C33 C34 1.419 . S
C34 C33 1.419 . S
C34 C35 1.391 . S
C34 C38 1.397 . S
C35 C30 1.391 . S
C35 C34 1.391 . S
C35 C36 1.399 . S
C36 C35 1.399 . S
C36 C37 1.396 . S
C36 C39 1.453 . S
C36 C40 1.684 . S
C37 C27 1.723 . S
C37 C36 1.396 . S
C37 C38 1.394 . S
C38 C8 1.723 . S
C38 C34 1.397 . S
C38 C37 1.394 . S
C39 H11 0.982 . S
C39 H15 0.979 . S
C39 H16 0.977 . S
C39 C36 1.453 . S
C40 H12 0.979 . S
C40 H13 0.980 . S
C40 H14 0.983 . S
C40 C36 1.684 . S
H41 C59 0.948 . S
H42 C0 0.948 . S
H43 C18 0.979 . S
H44 C18 0.980 . S
H45 C18 0.983 . S
H46 C17 0.982 . S
H47 C17 0.979 . S
H48 C17 0.977 . S
H49 C19 0.948 . S
H50 C21 0.947 . S
H51 C22 0.948 . S
H52 C28 0.982 . S
H53 C28 0.979 . S
H54 C28 0.977 . S
H55 C29 0.979 . S
H56 C29 0.980 . S
H57 C29 0.983 . S
H58 C2 0.947 . S
C59 C2 1.392 . S
C59 C3 1.419 . S
C59 H41 0.948 . S
C60 C61 1.391 . S
C60 C64 1.391 . S
C60 H102 0.948 . S
C61 C60 1.391 . S
C61 C62 1.391 . S
C62 C61 1.391 . S
C62 H118 0.947 . S
C62 C119 1.392 . S
C63 C64 1.391 . S
C63 C67 1.397 . S
C63 C119 1.419 . S
C64 C60 1.391 . S
C64 C63 1.391 . S
C64 C65 1.399 . S
C65 C64 1.399 . S
C65 C68 1.396 . S
C65 C77 1.453 . S
C65 C78 1.684 . S
H66 C90 0.948 . S
C67 C63 1.397 . S
C67 C68 1.394 . S
C67 C86 1.723 . S
C68 C65 1.396 . S
C68 C67 1.394 . S
C68 C98 1.723 . S
H69 C92 0.947 . S
H70 C93 0.948 . S
H71 C99 0.982 . S
H72 C100 0.979 . S
H73 C100 0.980 . S
H74 C100 0.983 . S
H75 C99 0.979 . S
H76 C99 0.977 . S
C77 C65 1.453 . S
C77 H106 0.982 . S
C77 H107 0.979 . S
C77 H108 0.977 . S
C78 C65 1.684 . S
C78 H103 0.979 . S
C78 H104 0.980 . S
C78 H105 0.983 . S
C79 C80 1.391 . S
C79 C84 1.391 . S
C79 H109 0.948 . S
C80 C79 1.391 . S
C80 C81 1.391 . S
C81 C80 1.391 . S
C81 C82 1.392 . S
C81 H110 0.947 . S
C82 C81 1.392 . S
C82 C83 1.419 . S
C82 H111 0.948 . S
C83 C82 1.419 . S
C83 C84 1.391 . S
C83 C87 1.397 . S
C84 C79 1.391 . S
C84 C83 1.391 . S
C84 C85 1.399 . S
C85 C84 1.399 . S
C85 C86 1.396 . S
C85 C88 1.453 . S
C85 C89 1.684 . S
C86 C67 1.723 . S
C86 C85 1.396 . S
C86 C87 1.394 . S
C87 C83 1.397 . S
C87 C86 1.394 . S
C87 C97 1.723 . S
C88 C85 1.453 . S
C88 H112 0.982 . S
C88 H113 0.979 . S
C88 H114 0.977 . S
C89 C85 1.684 . S
C89 H115 0.979 . S
C89 H116 0.980 . S
C89 H117 0.983 . S
C90 H66 0.948 . S
C90 C91 1.391 . S
C90 C95 1.391 . S
C91 C90 1.391 . S
C91 C92 1.391 . S
C92 H69 0.947 . S
C92 C91 1.391 . S
C92 C93 1.392 . S
C93 H70 0.948 . S
C93 C92 1.392 . S
C93 C94 1.419 . S
C94 C93 1.419 . S
C94 C95 1.391 . S
C94 C98 1.397 . S
C95 C90 1.391 . S
C95 C94 1.391 . S
C95 C96 1.399 . S
C96 C95 1.399 . S
C96 C97 1.396 . S
C96 C99 1.453 . S
C96 C100 1.684 . S
C97 C87 1.723 . S
C97 C96 1.396 . S
C97 C98 1.394 . S
C98 C68 1.723 . S
C98 C94 1.397 . S
C98 C97 1.394 . S
C99 H71 0.982 . S
C99 H75 0.979 . S
C99 H76 0.977 . S
C99 C96 1.453 . S
C100 H72 0.979 . S
C100 H73 0.980 . S
C100 H74 0.983 . S
C100 C96 1.684 . S
H101 C119 0.948 . S
H102 C60 0.948 . S
H103 C78 0.979 . S
H104 C78 0.980 . S
H105 C78 0.983 . S
H106 C77 0.982 . S
H107 C77 0.979 . S
H108 C77 0.977 . S
H109 C79 0.948 . S
H110 C81 0.947 . S
H111 C82 0.948 . S
H112 C88 0.982 . S
H113 C88 0.979 . S
H114 C88 0.977 . S
H115 C89 0.979 . S
H116 C89 0.980 . S
H117 C89 0.983 . S
H118 C62 0.947 . S
C119 C62 1.392 . S
C119 C63 1.419 . S
C119 H101 0.948 . S
C120 C121 1.391 . S
C120 C124 1.391 . S
C120 H162 0.948 . S
C121 C120 1.391 . S
C121 C122 1.391 . S
C122 C121 1.391 . S
C122 H178 0.947 . S
C122 C179 1.392 . S
C123 C124 1.391 . S
C123 C127 1.397 . S
C123 C179 1.419 . S
C124 C120 1.391 . S
C124 C123 1.391 . S
C124 C125 1.399 . S
C125 C124 1.399 . S
C125 C128 1.396 . S
C125 C137 1.453 . S
C125 C138 1.684 . S
H126 C150 0.948 . S
C127 C123 1.397 . S
C127 C128 1.394 . S
C127 C146 1.723 . S
C128 C125 1.396 . S
C128 C127 1.394 . S
C128 C158 1.723 . S
H129 C152 0.947 . S
H130 C153 0.948 . S
H131 C159 0.982 . S
H132 C160 0.979 . S
H133 C160 0.980 . S
H134 C160 0.983 . S
H135 C159 0.979 . S
H136 C159 0.977 . S
C137 C125 1.453 . S
C137 H166 0.982 . S
C137 H167 0.979 . S
C137 H168 0.977 . S
C138 C125 1.684 . S
C138 H163 0.979 . S
C138 H164 0.980 . S
C138 H165 0.983 . S
C139 C140 1.391 . S
C139 C144 1.391 . S
C139 H169 0.948 . S
C140 C139 1.391 . S
C140 C141 1.391 . S
C141 C140 1.391 . S
C141 C142 1.392 . S
C141 H170 0.947 . S
C142 C141 1.392 . S
C142 C143 1.419 . S
C142 H171 0.948 . S
C143 C142 1.419 . S
C143 C144 1.391 . S
C143 C147 1.397 . S
C144 C139 1.391 . S
C144 C143 1.391 . S
C144 C145 1.399 . S
C145 C144 1.399 . S
C145 C146 1.396 . S
C145 C148 1.453 . S
C145 C149 1.684 . S
C146 C127 1.723 . S
C146 C145 1.396 . S
C146 C147 1.394 . S
C147 C143 1.397 . S
C147 C146 1.394 . S
C147 C157 1.723 . S
C148 C145 1.453 . S
C148 H172 0.982 . S
C148 H173 0.979 . S
C148 H174 0.977 . S
C149 C145 1.684 . S
C149 H175 0.979 . S
C149 H176 0.980 . S
C149 H177 0.983 . S
C150 H126 0.948 . S
C150 C151 1.391 . S
C150 C155 1.391 . S
C151 C150 1.391 . S
C151 C152 1.391 . S
C152 H129 0.947 . S
C152 C151 1.391 . S
C152 C153 1.392 . S
C153 H130 0.948 . S
C153 C152 1.392 . S
C153 C154 1.419 . S
C154 C153 1.419 . S
C154 C155 1.391 . S
C154 C158 1.397 . S
C155 C150 1.391 . S
C155 C154 1.391 . S
C155 C156 1.399 . S
C156 C155 1.399 . S
C156 C157 1.396 . S
C156 C159 1.453 . S
C156 C160 1.684 . S
C157 C147 1.723 . S
C157 C156 1.396 . S
C157 C158 1.394 . S
C158 C128 1.723 . S
C158 C154 1.397 . S
C158 C157 1.394 . S
C159 H131 0.982 . S
C159 H135 0.979 . S
C159 H136 0.977 . S
C159 C156 1.453 . S
C160 H132 0.979 . S
C160 H133 0.980 . S
C160 H134 0.983 . S
C160 C156 1.684 . S
H161 C179 0.948 . S
H162 C120 0.948 . S
H163 C138 0.979 . S
H164 C138 0.980 . S
H165 C138 0.983 . S
H166 C137 0.982 . S
H167 C137 0.979 . S
H168 C137 0.977 . S
H169 C139 0.948 . S
H170 C141 0.947 . S
H171 C142 0.948 . S
H172 C148 0.982 . S
H173 C148 0.979 . S
H174 C148 0.977 . S
H175 C149 0.979 . S
H176 C149 0.980 . S
H177 C149 0.983 . S
H178 C122 0.947 . S
C179 C122 1.392 . S
C179 C123 1.419 . S
C179 H161 0.948 . S
C180 C181 1.391 . S
C180 C184 1.391 . S
C180 H222 0.948 . S
C181 C180 1.391 . S
C181 C182 1.391 . S
C182 C181 1.391 . S
C182 H238 0.947 . S
C182 C239 1.392 . S
C183 C184 1.391 . S
C183 C187 1.397 . S
C183 C239 1.419 . S
C184 C180 1.391 . S
C184 C183 1.391 . S
C184 C185 1.399 . S
C185 C184 1.399 . S
C185 C188 1.396 . S
C185 C197 1.453 . S
C185 C198 1.684 . S
H186 C210 0.948 . S
C187 C183 1.397 . S
C187 C188 1.394 . S
C187 C206 1.723 . S
C188 C185 1.396 . S
C188 C187 1.394 . S
C188 C218 1.723 . S
H189 C212 0.947 . S
H190 C213 0.948 . S
H191 C219 0.982 . S
H192 C220 0.979 . S
H193 C220 0.980 . S
H194 C220 0.983 . S
H195 C219 0.979 . S
H196 C219 0.977 . S
C197 C185 1.453 . S
C197 H226 0.982 . S
C197 H227 0.979 . S
C197 H228 0.977 . S
C198 C185 1.684 . S
C198 H223 0.979 . S
C198 H224 0.980 . S
C198 H225 0.983 . S
C199 C200 1.391 . S
C199 C204 1.391 . S
C199 H229 0.948 . S
C200 C199 1.391 . S
C200 C201 1.391 . S
C201 C200 1.391 . S
C201 C202 1.392 . S
C201 H230 0.947 . S
C202 C201 1.392 . S
C202 C203 1.419 . S
C202 H231 0.948 . S
C203 C202 1.419 . S
C203 C204 1.391 . S
C203 C207 1.397 . S
C204 C199 1.391 . S
C204 C203 1.391 . S
C204 C205 1.399 . S
C205 C204 1.399 . S
C205 C206 1.396 . S
C205 C208 1.453 . S
C205 C209 1.684 . S
C206 C187 1.723 . S
C206 C205 1.396 . S
C206 C207 1.394 . S
C207 C203 1.397 . S
C207 C206 1.394 . S
C207 C217 1.723 . S
C208 C205 1.453 . S
C208 H232 0.982 . S
C208 H233 0.979 . S
C208 H234 0.977 . S
C209 C205 1.684 . S
C209 H235 0.979 . S
C209 H236 0.980 . S
C209 H237 0.983 . S
C210 H186 0.948 . S
C210 C211 1.391 . S
C210 C215 1.391 . S
C211 C210 1.391 . S
C211 C212 1.391 . S
C212 H189 0.947 . S
C212 C211 1.391 . S
C212 C213 1.392 . S
C213 H190 0.948 . S
C213 C212 1.392 . S
C213 C214 1.419 . S
C214 C213 1.419 . S
C214 C215 1.391 . S
C214 C218 1.397 . S
C215 C210 1.391 . S
C215 C214 1.391 . S
C215 C216 1.399 . S
C216 C215 1.399 . S
C216 C217 1.396 . S
C216 C219 1.453 . S
C216 C220 1.684 . S
C217 C207 1.723 . S
C217 C216 1.396 . S
C217 C218 1.394 . S
C218 C188 1.723 . S
C218 C214 1.397 . S
C218 C217 1.394 . S
C219 H191 0.982 . S
C219 H195 0.979 . S
C219 H196 0.977 . S
C219 C216 1.453 . S
C220 H192 0.979 . S
C220 H193 0.980 . S
C220 H194 0.983 . S
C220 C216 1.684 . S
H221 C239 0.948 . S
H222 C180 0.948 . S
H223 C198 0.979 . S
H224 C198 0.980 . S
H225 C198 0.983 . S
H226 C197 0.982 . S
H227 C197 0.979 . S
H228 C197 0.977 . S
H229 C199 0.948 . S
H230 C201 0.947 . S
H231 C202 0.948 . S
H232 C208 0.982 . S
H233 C208 0.979 . S
H234 C208 0.977 . S
H235 C209 0.979 . S
H236 C209 0.980 . S
H237 C209 0.983 . S
H238 C182 0.947 . S
C239 C182 1.392 . S
C239 C183 1.419 . S
C239 H221 0.948 . S
C240 C241 1.391 . S
C240 C244 1.391 . S
C240 H282 0.948 . S
C241 C240 1.391 . S
C241 C242 1.391 . S
C242 C241 1.391 . S
C242 H298 0.947 . S
C242 C299 1.392 . S
C243 C244 1.391 . S
C243 C247 1.397 . S
C243 C299 1.419 . S
C244 C240 1.391 . S
C244 C243 1.391 . S
C244 C245 1.399 . S
C245 C244 1.399 . S
C245 C248 1.396 . S
C245 C257 1.453 . S
C245 C258 1.684 . S
H246 C270 0.948 1_545 S
C247 C243 1.397 . S
C247 C248 1.394 . S
C247 C266 1.723 . S
C248 C245 1.396 . S
C248 C247 1.394 . S
C248 C278 1.723 . S
H249 C272 0.947 . S
H250 C273 0.948 . S
H251 C279 0.982 . S
H252 C280 0.979 . S
H253 C280 0.980 . S
H254 C280 0.983 . S
H255 C279 0.979 1_545 S
H256 C279 0.977 . S
C257 C245 1.453 . S
C257 H286 0.982 . S
C257 H287 0.979 . S
C257 H288 0.977 . S
C258 C245 1.684 . S
C258 H283 0.979 . S
C258 H284 0.980 . S
C258 H285 0.983 . S
C259 C260 1.391 . S
C259 C264 1.391 . S
C259 H289 0.948 . S
C260 C259 1.391 . S
C260 C261 1.391 . S
C261 C260 1.391 . S
C261 C262 1.392 . S
C261 H290 0.947 . S
C262 C261 1.392 . S
C262 C263 1.419 . S
C262 H291 0.948 . S
C263 C262 1.419 . S
C263 C264 1.391 . S
C263 C267 1.397 . S
C264 C259 1.391 . S
C264 C263 1.391 . S
C264 C265 1.399 . S
C265 C264 1.399 . S
C265 C266 1.396 . S
C265 C268 1.453 . S
C265 C269 1.684 . S
C266 C247 1.723 . S
C266 C265 1.396 . S
C266 C267 1.394 . S
C267 C263 1.397 . S
C267 C266 1.394 . S
C267 C277 1.723 . S
C268 C265 1.453 . S
C268 H292 0.982 . S
C268 H293 0.979 . S
C268 H294 0.977 . S
C269 C265 1.684 . S
C269 H295 0.979 . S
C269 H296 0.980 . S
C269 H297 0.983 . S
C270 H246 0.948 1_565 S
C270 C271 1.391 . S
C270 C275 1.391 . S
C271 C270 1.391 . S
C271 C272 1.391 . S
C272 H249 0.947 . S
C272 C271 1.391 . S
C272 C273 1.392 . S
C273 H250 0.948 . S
C273 C272 1.392 . S
C273 C274 1.419 . S
C274 C273 1.419 . S
C274 C275 1.391 . S
C274 C278 1.397 . S
C275 C270 1.391 . S
C275 C274 1.391 . S
C275 C276 1.399 . S
C276 C275 1.399 . S
C276 C277 1.396 . S
C276 C279 1.453 . S
C276 C280 1.684 . S
C277 C267 1.723 . S
C277 C276 1.396 . S
C277 C278 1.394 . S
C278 C248 1.723 . S
C278 C274 1.397 . S
C278 C277 1.394 . S
C279 H251 0.982 . S
C279 H255 0.979 1_565 S
C279 H256 0.977 . S
C279 C276 1.453 . S
C280 H252 0.979 . S
C280 H253 0.980 . S
C280 H254 0.983 . S
C280 C276 1.684 . S
H281 C299 0.948 . S
H282 C240 0.948 . S
H283 C258 0.979 . S
H284 C258 0.980 . S
H285 C258 0.983 . S
H286 C257 0.982 . S
H287 C257 0.979 . S
H288 C257 0.977 . S
H289 C259 0.948 . S
H290 C261 0.947 . S
H291 C262 0.948 . S
H292 C268 0.982 . S
H293 C268 0.979 . S
H294 C268 0.977 . S
H295 C269 0.979 . S
H296 C269 0.980 . S
H297 C269 0.983 . S
H298 C242 0.947 . S
C299 C242 1.392 . S
C299 C243 1.419 . S
C299 H281 0.948 . S
C300 C301 1.391 . S
C300 C304 1.391 . S
C300 H342 0.948 . S
C301 C300 1.391 . S
C301 C302 1.391 . S
C302 C301 1.391 . S
C302 H358 0.947 . S
C302 C359 1.392 . S
C303 C304 1.391 . S
C303 C307 1.397 . S
C303 C359 1.419 . S
C304 C300 1.391 . S
C304 C303 1.391 . S
C304 C305 1.399 . S
C305 C304 1.399 . S
C305 C308 1.396 . S
C305 C317 1.453 . S
C305 C318 1.684 . S
H306 C330 0.948 . S
C307 C303 1.397 . S
C307 C308 1.394 . S
C307 C326 1.723 . S
C308 C305 1.396 . S
C308 C307 1.394 . S
C308 C338 1.723 . S
H309 C332 0.947 . S
H310 C333 0.948 . S
H311 C339 0.982 . S
H312 C340 0.979 . S
H313 C340 0.980 . S
H314 C340 0.983 . S
H315 C339 0.979 . S
H316 C339 0.977 . S
C317 C305 1.453 . S
C317 H346 0.982 . S
C317 H347 0.979 . S
C317 H348 0.977 . S
C318 C305 1.684 . S
C318 H343 0.979 . S
C318 H344 0.980 . S
C318 H345 0.983 . S
C319 C320 1.391 . S
C319 C324 1.391 . S
C319 H349 0.948 . S
C320 C319 1.391 . S
C320 C321 1.391 . S
C321 C320 1.391 . S
C321 C322 1.392 . S
C321 H350 0.947 . S
C322 C321 1.392 . S
C322 C323 1.419 . S
C322 H351 0.948 . S
C323 C322 1.419 . S
C323 C324 1.391 . S
C323 C327 1.397 . S
C324 C319 1.391 . S
C324 C323 1.391 . S
C324 C325 1.399 . S
C325 C324 1.399 . S
C325 C326 1.396 . S
C325 C328 1.453 . S
C325 C329 1.684 . S
C326 C307 1.723 . S
C326 C325 1.396 . S
C326 C327 1.394 . S
C327 C323 1.397 . S
C327 C326 1.394 . S
C327 C337 1.723 . S
C328 C325 1.453 . S
C328 H352 0.982 . S
C328 H353 0.979 . S
C328 H354 0.977 . S
C329 C325 1.684 . S
C329 H355 0.979 . S
C329 H356 0.980 . S
C329 H357 0.983 . S
C330 H306 0.948 . S
C330 C331 1.391 . S
C330 C335 1.391 . S
C331 C330 1.391 . S
C331 C332 1.391 . S
C332 H309 0.947 . S
C332 C331 1.391 . S
C332 C333 1.392 . S
C333 H310 0.948 . S
C333 C332 1.392 . S
C333 C334 1.419 . S
C334 C333 1.419 . S
C334 C335 1.391 . S
C334 C338 1.397 . S
C335 C330 1.391 . S
C335 C334 1.391 . S
C335 C336 1.399 . S
C336 C335 1.399 . S
C336 C337 1.396 . S
C336 C339 1.453 . S
C336 C340 1.684 . S
C337 C327 1.723 . S
C337 C336 1.396 . S
C337 C338 1.394 . S
C338 C308 1.723 . S
C338 C334 1.397 . S
C338 C337 1.394 . S
C339 H311 0.982 . S
C339 H315 0.979 . S
C339 H316 0.977 . S
C339 C336 1.453 . S
C340 H312 0.979 . S
C340 H313 0.980 . S
C340 H314 0.983 . S
C340 C336 1.684 . S
H341 C359 0.948 . S
H342 C300 0.948 . S
H343 C318 0.979 . S
H344 C318 0.980 . S
H345 C318 0.983 . S
H346 C317 0.982 . S
H347 C317 0.979 . S
H348 C317 0.977 . S
H349 C319 0.948 . S
H350 C321 0.947 . S
H351 C322 0.948 . S
H352 C328 0.982 . S
H353 C328 0.979 . S
H354 C328 0.977 . S
H355 C329 0.979 . S
H356 C329 0.980 . S
H357 C329 0.983 . S
H358 C302 0.947 . S
C359 C302 1.392 . S
C359 C303 1.419 . S
C359 H341 0.948 . S
C360 C361 1.391 . S
C360 C364 1.391 . S
C360 H402 0.948 . S
C361 C360 1.391 . S
C361 C362 1.391 . S
C362 C361 1.391 . S
C362 H418 0.947 . S
C362 C419 1.392 . S
C363 C364 1.391 . S
C363 C367 1.397 . S
C363 C419 1.419 . S
C364 C360 1.391 . S
C364 C363 1.391 . S
C364 C365 1.399 . S
C365 C364 1.399 . S
C365 C368 1.396 . S
C365 C377 1.453 . S
C365 C378 1.684 . S
H366 C390 0.948 . S
C367 C363 1.397 . S
C367 C368 1.394 . S
C367 C386 1.723 . S
C368 C365 1.396 . S
C368 C367 1.394 . S
C368 C398 1.723 . S
H369 C392 0.947 . S
H370 C393 0.948 . S
H371 C399 0.982 . S
H372 C400 0.979 . S
H373 C400 0.980 . S
H374 C400 0.983 . S
H375 C399 0.979 . S
H376 C399 0.977 . S
C377 C365 1.453 . S
C377 H406 0.982 . S
C377 H407 0.979 . S
C377 H408 0.977 . S
C378 C365 1.684 . S
C378 H403 0.979 . S
C378 H404 0.980 . S
C378 H405 0.983 . S
C379 C380 1.391 . S
C379 C384 1.391 . S
C379 H409 0.948 . S
C380 C379 1.391 . S
C380 C381 1.391 . S
C381 C380 1.391 . S
C381 C382 1.392 . S
C381 H410 0.947 . S
C382 C381 1.392 . S
C382 C383 1.419 . S
C382 H411 0.948 . S
C383 C382 1.419 . S
C383 C384 1.391 . S
C383 C387 1.397 . S
C384 C379 1.391 . S
C384 C383 1.391 . S
C384 C385 1.399 . S
C385 C384 1.399 . S
C385 C386 1.396 . S
C385 C388 1.453 . S
C385 C389 1.684 . S
C386 C367 1.723 . S
C386 C385 1.396 . S
C386 C387 1.394 . S
C387 C383 1.397 . S
C387 C386 1.394 . S
C387 C397 1.723 . S
C388 C385 1.453 . S
C388 H412 0.982 . S
C388 H413 0.979 . S
C388 H414 0.977 . S
C389 C385 1.684 . S
C389 H415 0.979 . S
C389 H416 0.980 . S
C389 H417 0.983 . S
C390 H366 0.948 . S
C390 C391 1.391 . S
C390 C395 1.391 . S
C391 C390 1.391 . S
C391 C392 1.391 . S
C392 H369 0.947 . S
C392 C391 1.391 . S
C392 C393 1.392 . S
C393 H370 0.948 . S
C393 C392 1.392 . S
C393 C394 1.419 . S
C394 C393 1.419 . S
C394 C395 1.391 . S
C394 C398 1.397 . S
C395 C390 1.391 . S
C395 C394 1.391 . S
C395 C396 1.399 . S
C396 C395 1.399 . S
C396 C397 1.396 . S
C396 C399 1.453 . S
C396 C400 1.684 . S
C397 C387 1.723 . S
C397 C396 1.396 . S
C397 C398 1.394 . S
C398 C368 1.723 . S
C398 C394 1.397 . S
C398 C397 1.394 . S
C399 H371 0.982 . S
C399 H375 0.979 . S
C399 H376 0.977 . S
C399 C396 1.453 . S
C400 H372 0.979 . S
C400 H373 0.980 . S
C400 H374 0.983 . S
C400 C396 1.684 . S
H401 C419 0.948 . S
H402 C360 0.948 . S
H403 C378 0.979 . S
H404 C378 0.980 . S
H405 C378 0.983 . S
H406 C377 0.982 . S
H407 C377 0.979 . S
H408 C377 0.977 . S
H409 C379 0.948 . S
H410 C381 0.947 . S
H411 C382 0.948 . S
H412 C388 0.982 . S
H413 C388 0.979 . S
H414 C388 0.977 . S
H415 C389 0.979 . S
H416 C389 0.980 . S
H417 C389 0.983 . S
H418 C362 0.947 . S
C419 C362 1.392 . S
C419 C363 1.419 . S
C419 H401 0.948 . S
C420 C421 1.391 . S
C420 C424 1.391 . S
C420 H462 0.948 . S
C421 C420 1.391 . S
C421 C422 1.391 . S
C422 C421 1.391 . S
C422 H478 0.947 . S
C422 C479 1.392 . S
C423 C424 1.391 . S
C423 C427 1.397 . S
C423 C479 1.419 . S
C424 C420 1.391 . S
C424 C423 1.391 . S
C424 C425 1.399 . S
C425 C424 1.399 . S
C425 C428 1.396 . S
C425 C437 1.453 . S
C425 C438 1.684 . S
H426 C450 0.948 . S
C427 C423 1.397 . S
C427 C428 1.394 . S
C427 C446 1.723 . S
C428 C425 1.396 . S
C428 C427 1.394 . S
C428 C458 1.723 . S
H429 C452 0.947 . S
H430 C453 0.948 . S
H431 C459 0.982 . S
H432 C460 0.979 . S
H433 C460 0.980 . S
H434 C460 0.983 . S
H435 C459 0.979 . S
H436 C459 0.977 . S
C437 C425 1.453 . S
C437 H466 0.982 . S
C437 H467 0.979 . S
C437 H468 0.977 . S
C438 C425 1.684 . S
C438 H463 0.979 . S
C438 H464 0.980 . S
C438 H465 0.983 . S
C439 C440 1.391 . S
C439 C444 1.391 . S
C439 H469 0.948 . S
C440 C439 1.391 . S
C440 C441 1.391 . S
C441 C440 1.391 . S
C441 C442 1.392 . S
C441 H470 0.947 . S
C442 C441 1.392 . S
C442 C443 1.419 . S
C442 H471 0.948 . S
C443 C442 1.419 . S
C443 C444 1.391 . S
C443 C447 1.397 . S
C444 C439 1.391 . S
C444 C443 1.391 . S
C444 C445 1.399 . S
C445 C444 1.399 . S
C445 C446 1.396 . S
C445 C448 1.453 . S
C445 C449 1.684 . S
C446 C427 1.723 . S
C446 C445 1.396 . S
C446 C447 1.394 . S
C447 C443 1.397 . S
C447 C446 1.394 . S
C447 C457 1.723 . S
C448 C445 1.453 . S
C448 H472 0.982 . S
C448 H473 0.979 . S
C448 H474 0.977 . S
C449 C445 1.684 . S
C449 H475 0.979 . S
C449 H476 0.980 . S
C449 H477 0.983 . S
C450 H426 0.948 . S
C450 C451 1.391 . S
C450 C455 1.391 . S
C451 C450 1.391 . S
C451 C452 1.391 . S
C452 H429 0.947 . S
C452 C451 1.391 . S
C452 C453 1.392 . S
C453 H430 0.948 . S
C453 C452 1.392 . S
C453 C454 1.419 . S
C454 C453 1.419 . S
C454 C455 1.391 . S
C454 C458 1.397 . S
C455 C450 1.391 . S
C455 C454 1.391 . S
C455 C456 1.399 . S
C456 C455 1.399 . S
C456 C457 1.396 . S
C456 C459 1.453 . S
C456 C460 1.684 . S
C457 C447 1.723 . S
C457 C456 1.396 . S
C457 C458 1.394 . S
C458 C428 1.723 . S
C458 C454 1.397 . S
C458 C457 1.394 . S
C459 H431 0.982 . S
C459 H435 0.979 . S
C459 H436 0.977 . S
C459 C456 1.453 . S
C460 H432 0.979 . S
C460 H433 0.980 . S
C460 H434 0.983 . S
C460 C456 1.684 . S
H461 C479 0.948 . S
H462 C420 0.948 . S
H463 C438 0.979 . S
H464 C438 0.980 . S
H465 C438 0.983 . S
H466 C437 0.982 . S
H467 C437 0.979 . S
H468 C437 0.977 . S
H469 C439 0.948 . S
H470 C441 0.947 . S
H471 C442 0.948 . S
H472 C448 0.982 . S
H473 C448 0.979 . S
H474 C448 0.977 . S
H475 C449 0.979 . S
H476 C449 0.980 . S
H477 C449 0.983 . S
H478 C422 0.947 . S
C479 C422 1.392 . S
C479 C423 1.419 . S
C479 H461 0.948 . S
C480 C481 1.391 . S
C480 C484 1.391 . S
C480 H522 0.948 . S
C481 C480 1.391 . S
C481 C482 1.391 . S
C482 C481 1.391 . S
C482 H538 0.947 . S
C482 C539 1.392 . S
C483 C484 1.391 . S
C483 C487 1.397 . S
C483 C539 1.419 . S
C484 C480 1.391 . S
C484 C483 1.391 . S
C484 C485 1.399 . S
C485 C484 1.399 . S
C485 C488 1.396 . S
C485 C497 1.453 . S
C485 C498 1.684 . S
H486 C510 0.948 . S
C487 C483 1.397 . S
C487 C488 1.394 . S
C487 C506 1.723 . S
C488 C485 1.396 . S
C488 C487 1.394 . S
C488 C518 1.723 . S
H489 C512 0.947 . S
H490 C513 0.948 . S
H491 C519 0.982 . S
H492 C520 0.979 . S
H493 C520 0.980 . S
H494 C520 0.983 . S
H495 C519 0.979 . S
H496 C519 0.977 . S
C497 C485 1.453 . S
C497 H526 0.982 . S
C497 H527 0.979 . S
C497 H528 0.977 . S
C498 C485 1.684 . S
C498 H523 0.979 . S
C498 H524 0.980 . S
C498 H525 0.983 . S
C499 C500 1.391 . S
C499 C504 1.391 . S
C499 H529 0.948 . S
C500 C499 1.391 . S
C500 C501 1.391 . S
C501 C500 1.391 . S
C501 C502 1.392 . S
C501 H530 0.947 . S
C502 C501 1.392 . S
C502 C503 1.419 . S
C502 H531 0.948 . S
C503 C502 1.419 . S
C503 C504 1.391 . S
C503 C507 1.397 . S
C504 C499 1.391 . S
C504 C503 1.391 . S
C504 C505 1.399 . S
C505 C504 1.399 . S
C505 C506 1.396 . S
C505 C508 1.453 . S
C505 C509 1.684 . S
C506 C487 1.723 . S
C506 C505 1.396 . S
C506 C507 1.394 . S
C507 C503 1.397 . S
C507 C506 1.394 . S
C507 C517 1.723 . S
C508 C505 1.453 . S
C508 H532 0.982 . S
C508 H533 0.979 . S
C508 H534 0.977 . S
C509 C505 1.684 . S
C509 H535 0.979 . S
C509 H536 0.980 . S
C509 H537 0.983 . S
C510 H486 0.948 . S
C510 C511 1.391 . S
C510 C515 1.391 . S
C511 C510 1.391 . S
C511 C512 1.391 . S
C512 H489 0.947 . S
C512 C511 1.391 . S
C512 C513 1.392 . S
C513 H490 0.948 . S
C513 C512 1.392 . S
C513 C514 1.419 . S
C514 C513 1.419 . S
C514 C515 1.391 . S
C514 C518 1.397 . S
C515 C510 1.391 . S
C515 C514 1.391 . S
C515 C516 1.399 . S
C516 C515 1.399 . S
C516 C517 1.396 . S
C516 C519 1.453 . S
C516 C520 1.684 . S
C517 C507 1.723 . S
C517 C516 1.396 . S
C517 C518 1.394 . S
C518 C488 1.723 . S
C518 C514 1.397 . S
C518 C517 1.394 . S
C519 H491 0.982 . S
C519 H495 0.979 . S
C519 H496 0.977 . S
C519 C516 1.453 . S
C520 H492 0.979 . S
C520 H493 0.980 . S
C520 H494 0.983 . S
C520 C516 1.684 . S
H521 C539 0.948 . S
H522 C480 0.948 . S
H523 C498 0.979 . S
H524 C498 0.980 . S
H525 C498 0.983 . S
H526 C497 0.982 . S
H527 C497 0.979 . S
H528 C497 0.977 . S
H529 C499 0.948 . S
H530 C501 0.947 . S
H531 C502 0.948 . S
H532 C508 0.982 . S
H533 C508 0.979 . S
H534 C508 0.977 . S
H535 C509 0.979 . S
H536 C509 0.980 . S
H537 C509 0.983 . S
H538 C482 0.947 . S
C539 C482 1.392 . S
C539 C483 1.419 . S
C539 H521 0.948 . S
C540 C541 1.391 . S
C540 C544 1.391 . S
C540 H582 0.948 . S
C541 C540 1.391 . S
C541 C542 1.391 . S
C542 C541 1.391 . S
C542 H598 0.947 . S
C542 C599 1.392 . S
C543 C544 1.391 . S
C543 C547 1.397 . S
C543 C599 1.419 . S
C544 C540 1.391 . S
C544 C543 1.391 . S
C544 C545 1.399 . S
C545 C544 1.399 . S
C545 C548 1.396 . S
C545 C557 1.453 . S
C545 C558 1.684 . S
H546 C570 0.948 . S
C547 C543 1.397 . S
C547 C548 1.394 . S
C547 C566 1.723 . S
C548 C545 1.396 . S
C548 C547 1.394 . S
C548 C578 1.723 . S
H549 C572 0.947 . S
H550 C573 0.948 . S
H551 C579 0.982 . S
H552 C580 0.979 . S
H553 C580 0.980 . S
H554 C580 0.983 . S
H555 C579 0.979 . S
H556 C579 0.977 . S
C557 C545 1.453 . S
C557 H586 0.982 . S
C557 H587 0.979 . S
C557 H588 0.977 . S
C558 C545 1.684 . S
C558 H583 0.979 . S
C558 H584 0.980 . S
C558 H585 0.983 . S
C559 C560 1.391 . S
C559 C564 1.391 . S
C559 H589 0.948 . S
C560 C559 1.391 . S
C560 C561 1.391 . S
C561 C560 1.391 . S
C561 C562 1.392 . S
C561 H590 0.947 . S
C562 C561 1.392 . S
C562 C563 1.419 . S
C562 H591 0.948 . S
C563 C562 1.419 . S
C563 C564 1.391 . S
C563 C567 1.397 . S
C564 C559 1.391 . S
C564 C563 1.391 . S
C564 C565 1.399 . S
C565 C564 1.399 . S
C565 C566 1.396 . S
C565 C568 1.453 . S
C565 C569 1.684 . S
C566 C547 1.723 . S
C566 C565 1.396 . S
C566 C567 1.394 . S
C567 C563 1.397 . S
C567 C566 1.394 . S
C567 C577 1.723 . S
C568 C565 1.453 . S
C568 H592 0.982 . S
C568 H593 0.979 . S
C568 H594 0.977 . S
C569 C565 1.684 . S
C569 H595 0.979 . S
C569 H596 0.980 . S
C569 H597 0.983 . S
C570 H546 0.948 . S
C570 C571 1.391 . S
C570 C575 1.391 . S
C571 C570 1.391 . S
C571 C572 1.391 . S
C572 H549 0.947 . S
C572 C571 1.391 . S
C572 C573 1.392 . S
C573 H550 0.948 . S
C573 C572 1.392 . S
C573 C574 1.419 . S
C574 C573 1.419 . S
C574 C575 1.391 . S
C574 C578 1.397 . S
C575 C570 1.391 . S
C575 C574 1.391 . S
C575 C576 1.399 . S
C576 C575 1.399 . S
C576 C577 1.396 . S
C576 C579 1.453 . S
C576 C580 1.684 . S
C577 C567 1.723 . S
C577 C576 1.396 . S
C577 C578 1.394 . S
C578 C548 1.723 . S
C578 C574 1.397 . S
C578 C577 1.394 . S
C579 H551 0.982 . S
C579 H555 0.979 . S
C579 H556 0.977 . S
C579 C576 1.453 . S
C580 H552 0.979 . S
C580 H553 0.980 . S
C580 H554 0.983 . S
C580 C576 1.684 . S
H581 C599 0.948 . S
H582 C540 0.948 . S
H583 C558 0.979 . S
H584 C558 0.980 . S
H585 C558 0.983 . S
H586 C557 0.982 . S
H587 C557 0.979 . S
H588 C557 0.977 . S
H589 C559 0.948 . S
H590 C561 0.947 . S
H591 C562 0.948 . S
H592 C568 0.982 . S
H593 C568 0.979 . S
H594 C568 0.977 . S
H595 C569 0.979 . S
H596 C569 0.980 . S
H597 C569 0.983 . S
H598 C542 0.947 . S
C599 C542 1.392 . S
C599 C543 1.419 . S
C599 H581 0.948 . S
C600 C601 1.391 . S
C600 C604 1.391 . S
C600 H642 0.948 . S
C601 C600 1.391 . S
C601 C602 1.391 . S
C602 C601 1.391 . S
C602 H658 0.947 . S
C602 C659 1.392 . S
C603 C604 1.391 . S
C603 C607 1.397 . S
C603 C659 1.419 . S
C604 C600 1.391 . S
C604 C603 1.391 . S
C604 C605 1.399 . S
C605 C604 1.399 . S
C605 C608 1.396 . S
C605 C617 1.453 . S
C605 C618 1.684 . S
H606 C630 0.948 . S
C607 C603 1.397 . S
C607 C608 1.394 . S
C607 C626 1.723 . S
C608 C605 1.396 . S
C608 C607 1.394 . S
C608 C638 1.723 . S
H609 C632 0.947 . S
H610 C633 0.948 . S
H611 C639 0.982 . S
H612 C640 0.979 . S
H613 C640 0.980 . S
H614 C640 0.983 . S
H615 C639 0.979 . S
H616 C639 0.977 . S
C617 C605 1.453 . S
C617 H646 0.982 . S
C617 H647 0.979 . S
C617 H648 0.977 . S
C618 C605 1.684 . S
C618 H643 0.979 . S
C618 H644 0.980 . S
C618 H645 0.983 . S
C619 C620 1.391 . S
C619 C624 1.391 . S
C619 H649 0.948 . S
C620 C619 1.391 . S
C620 C621 1.391 . S
C621 C620 1.391 . S
C621 C622 1.392 . S
C621 H650 0.947 . S
C622 C621 1.392 . S
C622 C623 1.419 . S
C622 H651 0.948 . S
C623 C622 1.419 . S
C623 C624 1.391 . S
C623 C627 1.397 . S
C624 C619 1.391 . S
C624 C623 1.391 . S
C624 C625 1.399 . S
C625 C624 1.399 . S
C625 C626 1.396 . S
C625 C628 1.453 . S
C625 C629 1.684 . S
C626 C607 1.723 . S
C626 C625 1.396 . S
C626 C627 1.394 . S
C627 C623 1.397 . S
C627 C626 1.394 . S
C627 C637 1.723 . S
C628 C625 1.453 . S
C628 H652 0.982 . S
C628 H653 0.979 . S
C628 H654 0.977 . S
C629 C625 1.684 . S
C629 H655 0.979 . S
C629 H656 0.980 . S
C629 H657 0.983 . S
C630 H606 0.948 . S
C630 C631 1.391 . S
C630 C635 1.391 . S
C631 C630 1.391 . S
C631 C632 1.391 . S
C632 H609 0.947 . S
C632 C631 1.391 . S
C632 C633 1.392 . S
C633 H610 0.948 . S
C633 C632 1.392 . S
C633 C634 1.419 . S
C634 C633 1.419 . S
C634 C635 1.391 . S
C634 C638 1.397 . S
C635 C630 1.391 . S
C635 C634 1.391 . S
C635 C636 1.399 . S
C636 C635 1.399 . S
C636 C637 1.396 . S
C636 C639 1.453 . S
C636 C640 1.684 . S
C637 C627 1.723 . S
C637 C636 1.396 . S
C637 C638 1.394 . S
C638 C608 1.723 . S
C638 C634 1.397 . S
C638 C637 1.394 . S
C639 H611 0.982 . S
C639 H615 0.979 . S
C639 H616 0.977 . S
C639 C636 1.453 . S
C640 H612 0.979 . S
C640 H613 0.980 . S
C640 H614 0.983 . S
C640 C636 1.684 . S
H641 C659 0.948 . S
H642 C600 0.948 . S
H643 C618 0.979 . S
H644 C618 0.980 . S
H645 C618 0.983 . S
H646 C617 0.982 . S
H647 C617 0.979 . S
H648 C617 0.977 . S
H649 C619 0.948 . S
H650 C621 0.947 . S
H651 C622 0.948 . S
H652 C628 0.982 . S
H653 C628 0.979 . S
H654 C628 0.977 . S
H655 C629 0.979 . S
H656 C629 0.980 . S
H657 C629 0.983 . S
H658 C602 0.947 . S
C659 C602 1.392 . S
C659 C603 1.419 . S
C659 H641 0.948 . S
C660 C661 1.391 . S
C660 C664 1.391 . S
C660 H702 0.948 . S
C661 C660 1.391 . S
C661 C662 1.391 . S
C662 C661 1.391 . S
C662 H718 0.947 . S
C662 C719 1.392 . S
C663 C664 1.391 . S
C663 C667 1.397 . S
C663 C719 1.419 . S
C664 C660 1.391 . S
C664 C663 1.391 . S
C664 C665 1.399 . S
C665 C664 1.399 . S
C665 C668 1.396 . S
C665 C677 1.453 . S
C665 C678 1.684 . S
H666 C690 0.948 . S
C667 C663 1.397 . S
C667 C668 1.394 . S
C667 C686 1.723 . S
C668 C665 1.396 . S
C668 C667 1.394 . S
C668 C698 1.723 . S
H669 C692 0.947 . S
H670 C693 0.948 . S
H671 C699 0.982 . S
H672 C700 0.979 . S
H673 C700 0.980 . S
H674 C700 0.983 . S
H675 C699 0.979 . S
H676 C699 0.977 . S
C677 C665 1.453 . S
C677 H706 0.982 . S
C677 H707 0.979 . S
C677 H708 0.977 . S
C678 C665 1.684 . S
C678 H703 0.979 . S
C678 H704 0.980 . S
C678 H705 0.983 . S
C679 C680 1.391 . S
C679 C684 1.391 . S
C679 H709 0.948 . S
C680 C679 1.391 . S
C680 C681 1.391 . S
C681 C680 1.391 . S
C681 C682 1.392 . S
C681 H710 0.947 . S
C682 C681 1.392 . S
C682 C683 1.419 . S
C682 H711 0.948 . S
C683 C682 1.419 . S
C683 C684 1.391 . S
C683 C687 1.397 . S
C684 C679 1.391 . S
C684 C683 1.391 . S
C684 C685 1.399 . S
C685 C684 1.399 . S
C685 C686 1.396 . S
C685 C688 1.453 . S
C685 C689 1.684 . S
C686 C667 1.723 . S
C686 C685 1.396 . S
C686 C687 1.394 . S
C687 C683 1.397 . S
C687 C686 1.394 . S
C687 C697 1.723 . S
C688 C685 1.453 . S
C688 H712 0.982 . S
C688 H713 0.979 . S
C688 H714 0.977 . S
C689 C685 1.684 . S
C689 H715 0.979 . S
C689 H716 0.980 . S
C689 H717 0.983 . S
C690 H666 0.948 . S
C690 C691 1.391 . S
C690 C695 1.391 . S
C691 C690 1.391 . S
C691 C692 1.391 . S
C692 H669 0.947 . S
C692 C691 1.391 . S
C692 C693 1.392 . S
C693 H670 0.948 . S
C693 C692 1.392 . S
C693 C694 1.419 . S
C694 C693 1.419 . S
C694 C695 1.391 . S
C694 C698 1.397 . S
C695 C690 1.391 . S
C695 C694 1.391 . S
C695 C696 1.399 . S
C696 C695 1.399 . S
C696 C697 1.396 . S
C696 C699 1.453 . S
C696 C700 1.684 . S
C697 C687 1.723 . S
C697 C696 1.396 . S
C697 C698 1.394 . S
C698 C668 1.723 . S
C698 C694 1.397 . S
C698 C697 1.394 . S
C699 H671 0.982 . S
C699 H675 0.979 . S
C699 H676 0.977 . S
C699 C696 1.453 . S
C700 H672 0.979 . S
C700 H673 0.980 . S
C700 H674 0.983 . S
C700 C696 1.684 . S
H701 C719 0.948 . S
H702 C660 0.948 . S
H703 C678 0.979 . S
H704 C678 0.980 . S
H705 C678 0.983 . S
H706 C677 0.982 . S
H707 C677 0.979 . S
H708 C677 0.977 . S
H709 C679 0.948 . S
H710 C681 0.947 . S
H711 C682 0.948 . S
H712 C688 0.982 . S
H713 C688 0.979 . S
H714 C688 0.977 . S
H715 C689 0.979 . S
H716 C689 0.980 . S
H717 C689 0.983 . S
H718 C662 0.947 . S
C719 C662 1.392 . S
C719 C663 1.419 . S
C719 H701 0.948 . S
C720 C721 1.391 . S
C720 C724 1.391 . S
C720 H762 0.948 . S
C721 C720 1.391 . S
C721 C722 1.391 . S
C722 C721 1.391 . S
C722 H778 0.947 . S
C722 C779 1.392 . S
C723 C724 1.391 . S
C723 C727 1.397 . S
C723 C779 1.419 . S
C724 C720 1.391 . S
C724 C723 1.391 . S
C724 C725 1.399 . S
C725 C724 1.399 . S
C725 C728 1.396 . S
C725 C737 1.453 . S
C725 C738 1.684 . S
H726 C750 0.948 . S
C727 C723 1.397 . S
C727 C728 1.394 . S
C727 C746 1.723 . S
C728 C725 1.396 . S
C728 C727 1.394 . S
C728 C758 1.723 . S
H729 C752 0.947 . S
H730 C753 0.948 . S
H731 C759 0.982 . S
H732 C760 0.979 . S
H733 C760 0.980 . S
H734 C760 0.983 . S
H735 C759 0.979 . S
H736 C759 0.977 . S
C737 C725 1.453 . S
C737 H766 0.982 . S
C737 H767 0.979 . S
C737 H768 0.977 . S
C738 C725 1.684 . S
C738 H763 0.979 . S
C738 H764 0.980 . S
C738 H765 0.983 . S
C739 C740 1.391 . S
C739 C744 1.391 . S
C739 H769 0.948 . S
C740 C739 1.391 . S
C740 C741 1.391 . S
C741 C740 1.391 . S
C741 C742 1.392 . S
C741 H770 0.947 . S
C742 C741 1.392 . S
C742 C743 1.419 . S
C742 H771 0.948 . S
C743 C742 1.419 . S
C743 C744 1.391 . S
C743 C747 1.397 . S
C744 C739 1.391 . S
C744 C743 1.391 . S
C744 C745 1.399 . S
C745 C744 1.399 . S
C745 C746 1.396 . S
C745 C748 1.453 . S
C745 C749 1.684 . S
C746 C727 1.723 . S
C746 C745 1.396 . S
C746 C747 1.394 . S
C747 C743 1.397 . S
C747 C746 1.394 . S
C747 C757 1.723 . S
C748 C745 1.453 . S
C748 H772 0.982 . S
C748 H773 0.979 . S
C748 H774 0.977 . S
C749 C745 1.684 . S
C749 H775 0.979 . S
C749 H776 0.980 . S
C749 H777 0.983 . S
C750 H726 0.948 . S
C750 C751 1.391 . S
C750 C755 1.391 . S
C751 C750 1.391 . S
C751 C752 1.391 . S
C752 H729 0.947 . S
C752 C751 1.391 . S
C752 C753 1.392 . S
C753 H730 0.948 . S
C753 C752 1.392 . S
C753 C754 1.419 . S
C754 C753 1.419 . S
C754 C755 1.391 . S
C754 C758 1.397 . S
C755 C750 1.391 . S
C755 C754 1.391 . S
C755 C756 1.399 . S
C756 C755 1.399 . S
C756 C757 1.396 . S
C756 C759 1.453 . S
C756 C760 1.684 . S
C757 C747 1.723 . S
C757 C756 1.396 . S
C757 C758 1.394 . S
C758 C728 1.723 . S
C758 C754 1.397 . S
C758 C757 1.394 . S
C759 H731 0.982 . S
C759 H735 0.979 . S
C759 H736 0.977 . S
C759 C756 1.453 . S
C760 H732 0.979 . S
C760 H733 0.980 . S
C760 H734 0.983 . S
C760 C756 1.684 . S
H761 C779 0.948 . S
H762 C720 0.948 . S
H763 C738 0.979 . S
H764 C738 0.980 . S
H765 C738 0.983 . S
H766 C737 0.982 . S
H767 C737 0.979 . S
H768 C737 0.977 . S
H769 C739 0.948 . S
H770 C741 0.947 . S
H771 C742 0.948 . S
H772 C748 0.982 . S
H773 C748 0.979 . S
H774 C748 0.977 . S
H775 C749 0.979 . S
H776 C749 0.980 . S
H777 C749 0.983 . S
H778 C722 0.947 . S
C779 C722 1.392 . S
C779 C723 1.419 . S
C779 H761 0.948 . S
C780 C781 1.391 . S
C780 C784 1.391 . S
C780 H822 0.948 . S
C781 C780 1.391 . S
C781 C782 1.391 . S
C782 C781 1.391 . S
C782 H838 0.947 . S
C782 C839 1.392 . S
C783 C784 1.391 . S
C783 C787 1.397 . S
C783 C839 1.419 . S
C784 C780 1.391 . S
C784 C783 1.391 . S
C784 C785 1.399 . S
C785 C784 1.399 . S
C785 C788 1.396 . S
C785 C797 1.453 . S
C785 C798 1.684 . S
H786 C810 0.948 . S
C787 C783 1.397 . S
C787 C788 1.394 . S
C787 C806 1.723 . S
C788 C785 1.396 . S
C788 C787 1.394 . S
C788 C818 1.723 . S
H789 C812 0.947 . S
H790 C813 0.948 . S
H791 C819 0.982 . S
H792 C820 0.979 . S
H793 C820 0.980 . S
H794 C820 0.983 . S
H795 C819 0.979 . S
H796 C819 0.977 . S
C797 C785 1.453 . S
C797 H826 0.982 . S
C797 H827 0.979 . S
C797 H828 0.977 . S
C798 C785 1.684 . S
C798 H823 0.979 . S
C798 H824 0.980 . S
C798 H825 0.983 . S
C799 C800 1.391 . S
C799 C804 1.391 . S
C799 H829 0.948 . S
C800 C799 1.391 . S
C800 C801 1.391 . S
C801 C800 1.391 . S
C801 C802 1.392 . S
C801 H830 0.947 . S
C802 C801 1.392 . S
C802 C803 1.419 . S
C802 H831 0.948 . S
C803 C802 1.419 . S
C803 C804 1.391 . S
C803 C807 1.397 . S
C804 C799 1.391 . S
C804 C803 1.391 . S
C804 C805 1.399 . S
C805 C804 1.399 . S
C805 C806 1.396 . S
C805 C808 1.453 . S
C805 C809 1.684 . S
C806 C787 1.723 . S
C806 C805 1.396 . S
C806 C807 1.394 . S
C807 C803 1.397 . S
C807 C806 1.394 . S
C807 C817 1.723 . S
C808 C805 1.453 . S
C808 H832 0.982 . S
C808 H833 0.979 . S
C808 H834 0.977 . S
C809 C805 1.684 . S
C809 H835 0.979 . S
C809 H836 0.980 . S
C809 H837 0.983 . S
C810 H786 0.948 . S
C810 C811 1.391 . S
C810 C815 1.391 . S
C811 C810 1.391 . S
C811 C812 1.391 . S
C812 H789 0.947 . S
C812 C811 1.391 . S
C812 C813 1.392 . S
C813 H790 0.948 . S
C813 C812 1.392 . S
C813 C814 1.419 . S
C814 C813 1.419 . S
C814 C815 1.391 . S
C814 C818 1.397 . S
C815 C810 1.391 . S
C815 C814 1.391 . S
C815 C816 1.399 . S
C816 C815 1.399 . S
C816 C817 1.396 . S
C816 C819 1.453 . S
C816 C820 1.684 . S
C817 C807 1.723 . S
C817 C816 1.396 . S
C817 C818 1.394 . S
C818 C788 1.723 . S
C818 C814 1.397 . S
C818 C817 1.394 . S
C819 H791 0.982 . S
C819 H795 0.979 . S
C819 H796 0.977 . S
C819 C816 1.453 . S
C820 H792 0.979 . S
C820 H793 0.980 . S
C820 H794 0.983 . S
C820 C816 1.684 . S
H821 C839 0.948 . S
H822 C780 0.948 . S
H823 C798 0.979 . S
H824 C798 0.980 . S
H825 C798 0.983 . S
H826 C797 0.982 . S
H827 C797 0.979 . S
H828 C797 0.977 . S
H829 C799 0.948 . S
H830 C801 0.947 . S
H831 C802 0.948 . S
H832 C808 0.982 . S
H833 C808 0.979 . S
H834 C808 0.977 . S
H835 C809 0.979 . S
H836 C809 0.980 . S
H837 C809 0.983 . S
H838 C782 0.947 . S
C839 C782 1.392 . S
C839 C783 1.419 . S
C839 H821 0.948 . S
C840 C841 1.391 . S
C840 C844 1.391 . S
C840 H882 0.948 . S
C841 C840 1.391 . S
C841 C842 1.391 . S
C842 C841 1.391 . S
C842 H898 0.947 . S
C842 C899 1.392 . S
C843 C844 1.391 . S
C843 C847 1.397 . S
C843 C899 1.419 . S
C844 C840 1.391 . S
C844 C843 1.391 . S
C844 C845 1.399 . S
C845 C844 1.399 . S
C845 C848 1.396 . S
C845 C857 1.453 . S
C845 C858 1.684 . S
H846 C870 0.948 . S
C847 C843 1.397 . S
C847 C848 1.394 . S
C847 C866 1.723 . S
C848 C845 1.396 . S
C848 C847 1.394 . S
C848 C878 1.723 . S
H849 C872 0.947 . S
H850 C873 0.948 . S
H851 C879 0.982 . S
H852 C880 0.979 . S
H853 C880 0.980 . S
H854 C880 0.983 . S
H855 C879 0.979 . S
H856 C879 0.977 . S
C857 C845 1.453 . S
C857 H886 0.982 . S
C857 H887 0.979 . S
C857 H888 0.977 . S
C858 C845 1.684 . S
C858 H883 0.979 . S
C858 H884 0.980 . S
C858 H885 0.983 . S
C859 C860 1.391 . S
C859 C864 1.391 . S
C859 H889 0.948 . S
C860 C859 1.391 . S
C860 C861 1.391 . S
C861 C860 1.391 . S
C861 C862 1.392 . S
C861 H890 0.947 . S
C862 C861 1.392 . S
C862 C863 1.419 . S
C862 H891 0.948 . S
C863 C862 1.419 . S
C863 C864 1.391 . S
C863 C867 1.397 . S
C864 C859 1.391 . S
C864 C863 1.391 . S
C864 C865 1.399 . S
C865 C864 1.399 . S
C865 C866 1.396 . S
C865 C868 1.453 . S
C865 C869 1.684 . S
C866 C847 1.723 . S
C866 C865 1.396 . S
C866 C867 1.394 . S
C867 C863 1.397 . S
C867 C866 1.394 . S
C867 C877 1.723 . S
C868 C865 1.453 . S
C868 H892 0.982 . S
C868 H893 0.979 . S
C868 H894 0.977 . S
C869 C865 1.684 . S
C869 H895 0.979 . S
C869 H896 0.980 . S
C869 H897 0.983 . S
C870 H846 0.948 . S
C870 C871 1.391 . S
C870 C875 1.391 . S
C871 C870 1.391 . S
C871 C872 1.391 . S
C872 H849 0.947 . S
C872 C871 1.391 . S
C872 C873 1.392 . S
C873 H850 0.948 . S
C873 C872 1.392 . S
C873 C874 1.419 . S
C874 C873 1.419 . S
C874 C875 1.391 . S
C874 C878 1.397 . S
C875 C870 1.391 . S
C875 C874 1.391 . S
C875 C876 1.399 . S
C876 C875 1.399 . S
C876 C877 1.396 . S
C876 C879 1.453 . S
C876 C880 1.684 . S
C877 C867 1.723 . S
C877 C876 1.396 . S
C877 C878 1.394 . S
C878 C848 1.723 . S
C878 C874 1.397 . S
C878 C877 1.394 . S
C879 H851 0.982 . S
C879 H855 0.979 . S
C879 H856 0.977 . S
C879 C876 1.453 . S
C880 H852 0.979 . S
C880 H853 0.980 . S
C880 H854 0.983 . S
C880 C876 1.684 . S
H881 C899 0.948 . S
H882 C840 0.948 . S
H883 C858 0.979 . S
H884 C858 0.980 . S
H885 C858 0.983 . S
H886 C857 0.982 . S
H887 C857 0.979 . S
H888 C857 0.977 . S
H889 C859 0.948 . S
H890 C861 0.947 . S
H891 C862 0.948 . S
H892 C868 0.982 . S
H893 C868 0.979 . S
H894 C868 0.977 . S
H895 C869 0.979 . S
H896 C869 0.980 . S
H897 C869 0.983 . S
H898 C842 0.947 . S
C899 C842 1.392 . S
C899 C843 1.419 . S
C899 H881 0.948 . S
C900 C901 1.391 . S
C900 C904 1.391 . S
C900 H942 0.948 . S
C901 C900 1.391 . S
C901 C902 1.391 . S
C902 C901 1.391 . S
C902 H958 0.947 . S
C902 C959 1.392 . S
C903 C904 1.391 . S
C903 C907 1.397 . S
C903 C959 1.419 . S
C904 C900 1.391 . S
C904 C903 1.391 . S
C904 C905 1.399 . S
C905 C904 1.399 . S
C905 C908 1.396 . S
C905 C917 1.453 . S
C905 C918 1.684 . S
H906 C930 0.948 . S
C907 C903 1.397 . S
C907 C908 1.394 . S
C907 C926 1.723 . S
C908 C905 1.396 . S
C908 C907 1.394 . S
C908 C938 1.723 . S
H909 C932 0.947 . S
H910 C933 0.948 . S
H911 C939 0.982 . S
H912 C940 0.979 . S
H913 C940 0.980 . S
H914 C940 0.983 . S
H915 C939 0.979 . S
H916 C939 0.977 . S
C917 C905 1.453 . S
C917 H946 0.982 . S
C917 H947 0.979 . S
C917 H948 0.977 . S
C918 C905 1.684 . S
C918 H943 0.979 . S
C918 H944 0.980 . S
C918 H945 0.983 . S
C919 C920 1.391 . S
C919 C924 1.391 . S
C919 H949 0.948 . S
C920 C919 1.391 . S
C920 C921 1.391 . S
C921 C920 1.391 . S
C921 C922 1.392 . S
C921 H950 0.947 . S
C922 C921 1.392 . S
C922 C923 1.419 . S
C922 H951 0.948 . S
C923 C922 1.419 . S
C923 C924 1.391 . S
C923 C927 1.397 . S
C924 C919 1.391 . S
C924 C923 1.391 . S
C924 C925 1.399 . S
C925 C924 1.399 . S
C925 C926 1.396 . S
C925 C928 1.453 . S
C925 C929 1.684 . S
C926 C907 1.723 . S
C926 C925 1.396 . S
C926 C927 1.394 . S
C927 C923 1.397 . S
C927 C926 1.394 . S
C927 C937 1.723 . S
C928 C925 1.453 . S
C928 H952 0.982 . S
C928 H953 0.979 . S
C928 H954 0.977 . S
C929 C925 1.684 . S
C929 H955 0.979 . S
C929 H956 0.980 . S
C929 H957 0.983 . S
C930 H906 0.948 . S
C930 C931 1.391 . S
C930 C935 1.391 . S
C931 C930 1.391 . S
C931 C932 1.391 . S
C932 H909 0.947 . S
C932 C931 1.391 . S
C932 C933 1.392 . S
C933 H910 0.948 . S
C933 C932 1.392 . S
C933 C934 1.419 . S
C934 C933 1.419 . S
C934 C935 1.391 . S
C934 C938 1.397 . S
C935 C930 1.391 . S
C935 C934 1.391 . S
C935 C936 1.399 . S
C936 C935 1.399 . S
C936 C937 1.396 . S
C936 C939 1.453 . S
C936 C940 1.684 . S
C937 C927 1.723 . S
C937 C936 1.396 . S
C937 C938 1.394 . S
C938 C908 1.723 . S
C938 C934 1.397 . S
C938 C937 1.394 . S
C939 H911 0.982 . S
C939 H915 0.979 . S
C939 H916 0.977 . S
C939 C936 1.453 . S
C940 H912 0.979 . S
C940 H913 0.980 . S
C940 H914 0.983 . S
C940 C936 1.684 . S
H941 C959 0.948 . S
H942 C900 0.948 . S
H943 C918 0.979 . S
H944 C918 0.980 . S
H945 C918 0.983 . S
H946 C917 0.982 . S
H947 C917 0.979 . S
H948 C917 0.977 . S
H949 C919 0.948 . S
H950 C921 0.947 . S
H951 C922 0.948 . S
H952 C928 0.982 . S
H953 C928 0.979 . S
H954 C928 0.977 . S
H955 C929 0.979 . S
H956 C929 0.980 . S
H957 C929 0.983 . S
H958 C902 0.947 . S
C959 C902 1.392 . S
C959 C903 1.419 . S
C959 H941 0.948 . S
O960 Cd961 2.223 . S
O960 C968 1.315 . S
Cd961 O960 2.223 . S
Cd961 O964 2.297 . S
Cd961 O965 2.439 . S
Cd961 O971 2.240 . S
Cd962 O963 2.240 . S
Cd962 O970 2.223 . S
Cd962 O972 2.297 . S
Cd962 O973 2.439 . S
O963 Cd962 2.240 . S
O963 C968 1.279 . S
O964 Cd961 2.297 . S
O964 C966 1.247 . S
O965 Cd961 2.439 . S
O965 C966 1.208 . S
C966 O964 1.247 . S
C966 O965 1.208 . S
C967 O972 1.247 . S
C967 O973 1.208 . S
C968 O960 1.315 . S
C968 O963 1.279 . S
C969 O970 1.315 . S
C969 O971 1.279 . S
O970 Cd962 2.223 . S
O970 C969 1.315 . S
O971 Cd961 2.240 . S
O971 C969 1.279 . S
O972 Cd962 2.297 . S
O972 C967 1.247 . S
O973 Cd962 2.439 . S
O973 C967 1.208 . S
O974 Cd975 2.223 . S
O974 C982 1.315 . S
Cd975 O974 2.223 . S
Cd975 O978 2.297 . S
Cd975 O979 2.439 . S
Cd975 O985 2.240 . S
Cd976 O977 2.240 . S
Cd976 O984 2.223 . S
Cd976 O986 2.297 . S
Cd976 O987 2.439 . S
O977 Cd976 2.240 . S
O977 C982 1.279 . S
O978 Cd975 2.297 . S
O978 C980 1.247 . S
O979 Cd975 2.439 . S
O979 C980 1.208 . S
C980 O978 1.247 . S
C980 O979 1.208 . S
C981 O986 1.247 . S
C981 O987 1.208 . S
C982 O974 1.315 . S
C982 O977 1.279 . S
C983 O984 1.315 . S
C983 O985 1.279 . S
O984 Cd976 2.223 . S
O984 C983 1.315 . S
O985 Cd975 2.240 . S
O985 C983 1.279 . S
O986 Cd976 2.297 . S
O986 C981 1.247 . S
O987 Cd976 2.439 . S
O987 C981 1.208 . S
O988 Cd989 2.223 1_556 S
O988 C996 1.315 . S
Cd989 O988 2.223 1_554 S
Cd989 O992 2.297 . S
Cd989 O993 2.439 . S
Cd989 O999 2.240 . S
Cd990 O991 2.240 . S
Cd990 O998 2.223 . S
Cd990 O1000 2.297 1_556 S
Cd990 O1001 2.439 1_556 S
O991 Cd990 2.240 . S
O991 C996 1.279 . S
O992 Cd989 2.297 . S
O992 C994 1.247 . S
O993 Cd989 2.439 . S
O993 C994 1.208 . S
C994 O992 1.247 . S
C994 O993 1.208 . S
C995 O1000 1.247 . S
C995 O1001 1.208 . S
C996 O988 1.315 . S
C996 O991 1.279 . S
C997 O998 1.315 . S
C997 O999 1.279 1_556 S
O998 Cd990 2.223 . S
O998 C997 1.315 . S
O999 Cd989 2.240 . S
O999 C997 1.279 1_554 S
O1000 Cd990 2.297 1_554 S
O1000 C995 1.247 . S
O1001 Cd990 2.439 1_554 S
O1001 C995 1.208 . S
O1002 Cd1003 2.223 . S
O1002 C1010 1.315 . S
Cd1003 O1002 2.223 . S
Cd1003 O1006 2.297 . S
Cd1003 O1007 2.439 . S
Cd1003 O1013 2.240 . S
Cd1004 O1005 2.240 . S
Cd1004 O1012 2.223 . S
Cd1004 O1014 2.297 . S
Cd1004 O1015 2.439 . S
O1005 Cd1004 2.240 . S
O1005 C1010 1.279 . S
O1006 Cd1003 2.297 . S
O1006 C1008 1.247 . S
O1007 Cd1003 2.439 . S
O1007 C1008 1.208 . S
C1008 O1006 1.247 . S
C1008 O1007 1.208 . S
C1009 O1014 1.247 . S
C1009 O1015 1.208 . S
C1010 O1002 1.315 . S
C1010 O1005 1.279 . S
C1011 O1012 1.315 . S
C1011 O1013 1.279 . S
O1012 Cd1004 2.223 . S
O1012 C1011 1.315 . S
O1013 Cd1003 2.240 . S
O1013 C1011 1.279 . S
O1014 Cd1004 2.297 . S
O1014 C1009 1.247 . S
O1015 Cd1004 2.439 . S
O1015 C1009 1.208 . S
O1016 Cd1017 2.223 . S
O1016 C1024 1.315 . S
Cd1017 O1016 2.223 . S
Cd1017 O1020 2.297 . S
Cd1017 O1021 2.439 . S
Cd1017 O1027 2.240 . S
Cd1018 O1019 2.240 . S
Cd1018 O1026 2.223 . S
Cd1018 O1028 2.297 . S
Cd1018 O1029 2.439 . S
O1019 Cd1018 2.240 . S
O1019 C1024 1.279 . S
O1020 Cd1017 2.297 . S
O1020 C1022 1.247 . S
O1021 Cd1017 2.439 . S
O1021 C1022 1.208 . S
C1022 O1020 1.247 . S
C1022 O1021 1.208 . S
C1023 O1028 1.247 . S
C1023 O1029 1.208 . S
C1024 O1016 1.315 . S
C1024 O1019 1.279 . S
C1025 O1026 1.315 . S
C1025 O1027 1.279 . S
O1026 Cd1018 2.223 . S
O1026 C1025 1.315 . S
O1027 Cd1017 2.240 . S
O1027 C1025 1.279 . S
O1028 Cd1018 2.297 . S
O1028 C1023 1.247 . S
O1029 Cd1018 2.439 . S
O1029 C1023 1.208 . S
O1030 Cd1031 2.223 . S
O1030 C1038 1.315 . S
Cd1031 O1030 2.223 . S
Cd1031 O1034 2.297 . S
Cd1031 O1035 2.439 . S
Cd1031 O1041 2.240 . S
Cd1032 O1033 2.240 . S
Cd1032 O1040 2.223 . S
Cd1032 O1042 2.297 . S
Cd1032 O1043 2.439 . S
O1033 Cd1032 2.240 . S
O1033 C1038 1.279 . S
O1034 Cd1031 2.297 . S
O1034 C1036 1.247 . S
O1035 Cd1031 2.439 . S
O1035 C1036 1.208 . S
C1036 O1034 1.247 . S
C1036 O1035 1.208 . S
C1037 O1042 1.247 . S
C1037 O1043 1.208 . S
C1038 O1030 1.315 . S
C1038 O1033 1.279 . S
C1039 O1040 1.315 . S
C1039 O1041 1.279 . S
O1040 Cd1032 2.223 . S
O1040 C1039 1.315 . S
O1041 Cd1031 2.240 . S
O1041 C1039 1.279 . S
O1042 Cd1032 2.297 . S
O1042 C1037 1.247 . S
O1043 Cd1032 2.439 . S
O1043 C1037 1.208 . S
O1044 Cd1045 2.223 . S
O1044 C1052 1.315 . S
Cd1045 O1044 2.223 . S
Cd1045 O1048 2.297 . S
Cd1045 O1049 2.439 . S
Cd1045 O1055 2.240 . S
Cd1046 O1047 2.240 . S
Cd1046 O1054 2.223 . S
Cd1046 O1056 2.297 . S
Cd1046 O1057 2.439 . S
O1047 Cd1046 2.240 . S
O1047 C1052 1.279 . S
O1048 Cd1045 2.297 . S
O1048 C1050 1.247 . S
O1049 Cd1045 2.439 . S
O1049 C1050 1.208 . S
C1050 O1048 1.247 . S
C1050 O1049 1.208 . S
C1051 O1056 1.247 . S
C1051 O1057 1.208 . S
C1052 O1044 1.315 . S
C1052 O1047 1.279 . S
C1053 O1054 1.315 . S
C1053 O1055 1.279 . S
O1054 Cd1046 2.223 . S
O1054 C1053 1.315 . S
O1055 Cd1045 2.240 . S
O1055 C1053 1.279 . S
O1056 Cd1046 2.297 . S
O1056 C1051 1.247 . S
O1057 Cd1046 2.439 . S
O1057 C1051 1.208 . S
O1058 Cd1059 2.223 1_545 S
O1058 C1066 1.315 . S
Cd1059 O1058 2.223 1_565 S
Cd1059 O1062 2.297 . S
Cd1059 O1063 2.439 . S
Cd1059 O1069 2.240 1_565 S
Cd1060 O1061 2.240 . S
Cd1060 O1068 2.223 . S
Cd1060 O1070 2.297 . S
Cd1060 O1071 2.439 1_545 S
O1061 Cd1060 2.240 . S
O1061 C1066 1.279 . S
O1062 Cd1059 2.297 . S
O1062 C1064 1.247 . S
O1063 Cd1059 2.439 . S
O1063 C1064 1.208 . S
C1064 O1062 1.247 . S
C1064 O1063 1.208 . S
C1065 O1070 1.247 1_565 S
C1065 O1071 1.208 . S
C1066 O1058 1.315 . S
C1066 O1061 1.279 . S
C1067 O1068 1.315 . S
C1067 O1069 1.279 . S
O1068 Cd1060 2.223 . S
O1068 C1067 1.315 . S
O1069 Cd1059 2.240 1_545 S
O1069 C1067 1.279 . S
O1070 Cd1060 2.297 . S
O1070 C1065 1.247 1_545 S
O1071 Cd1060 2.439 1_565 S
O1071 C1065 1.208 . S
O1072 Cd1073 2.223 . S
O1072 C1080 1.315 . S
Cd1073 O1072 2.223 . S
Cd1073 O1076 2.297 1_655 S
Cd1073 O1077 2.439 1_655 S
Cd1073 O1083 2.240 . S
Cd1074 O1075 2.240 . S
Cd1074 O1082 2.223 1_455 S
Cd1074 O1084 2.297 . S
Cd1074 O1085 2.439 . S
O1075 Cd1074 2.240 . S
O1075 C1080 1.279 1_455 S
O1076 Cd1073 2.297 1_455 S
O1076 C1078 1.247 . S
O1077 Cd1073 2.439 1_455 S
O1077 C1078 1.208 . S
C1078 O1076 1.247 . S
C1078 O1077 1.208 . S
C1079 O1084 1.247 . S
C1079 O1085 1.208 . S
C1080 O1072 1.315 . S
C1080 O1075 1.279 1_655 S
C1081 O1082 1.315 . S
C1081 O1083 1.279 . S
O1082 Cd1074 2.223 1_655 S
O1082 C1081 1.315 . S
O1083 Cd1073 2.240 . S
O1083 C1081 1.279 . S
O1084 Cd1074 2.297 . S
O1084 C1079 1.247 . S
O1085 Cd1074 2.439 . S
O1085 C1079 1.208 . S
O1086 Cd1087 2.223 . S
O1086 C1094 1.315 . S
Cd1087 O1086 2.223 . S
Cd1087 O1090 2.297 . S
Cd1087 O1091 2.439 . S
Cd1087 O1097 2.240 . S
Cd1088 O1089 2.240 . S
Cd1088 O1096 2.223 . S
Cd1088 O1098 2.297 . S
Cd1088 O1099 2.439 . S
O1089 Cd1088 2.240 . S
O1089 C1094 1.279 . S
O1090 Cd1087 2.297 . S
O1090 C1092 1.247 . S
O1091 Cd1087 2.439 . S
O1091 C1092 1.208 . S
C1092 O1090 1.247 . S
C1092 O1091 1.208 . S
C1093 O1098 1.247 . S
C1093 O1099 1.208 . S
C1094 O1086 1.315 . S
C1094 O1089 1.279 . S
C1095 O1096 1.315 . S
C1095 O1097 1.279 . S
O1096 Cd1088 2.223 . S
O1096 C1095 1.315 . S
O1097 Cd1087 2.240 . S
O1097 C1095 1.279 . S
O1098 Cd1088 2.297 . S
O1098 C1093 1.247 . S
O1099 Cd1088 2.439 . S
O1099 C1093 1.208 . S
O1100 Cd1101 2.223 1_655 S
O1100 C1108 1.315 . S
Cd1101 O1100 2.223 1_455 S
Cd1101 O1104 2.297 . S
Cd1101 O1105 2.439 . S
Cd1101 O1111 2.240 . S
Cd1102 O1103 2.240 . S
Cd1102 O1110 2.223 . S
Cd1102 O1112 2.297 1_655 S
Cd1102 O1113 2.439 1_655 S
O1103 Cd1102 2.240 . S
O1103 C1108 1.279 . S
O1104 Cd1101 2.297 . S
O1104 C1106 1.247 . S
O1105 Cd1101 2.439 . S
O1105 C1106 1.208 . S
C1106 O1104 1.247 . S
C1106 O1105 1.208 . S
C1107 O1112 1.247 . S
C1107 O1113 1.208 . S
C1108 O1100 1.315 . S
C1108 O1103 1.279 . S
C1109 O1110 1.315 . S
C1109 O1111 1.279 1_655 S
O1110 Cd1102 2.223 . S
O1110 C1109 1.315 . S
O1111 Cd1101 2.240 . S
O1111 C1109 1.279 1_455 S
O1112 Cd1102 2.297 1_455 S
O1112 C1107 1.247 . S
O1113 Cd1102 2.439 1_455 S
O1113 C1107 1.208 . S
O1114 Cd1115 2.223 . S
O1114 C1122 1.315 . S
Cd1115 O1114 2.223 . S
Cd1115 O1118 2.297 . S
Cd1115 O1119 2.439 . S
Cd1115 O1125 2.240 . S
Cd1116 O1117 2.240 . S
Cd1116 O1124 2.223 . S
Cd1116 O1126 2.297 . S
Cd1116 O1127 2.439 . S
O1117 Cd1116 2.240 . S
O1117 C1122 1.279 . S
O1118 Cd1115 2.297 . S
O1118 C1120 1.247 . S
O1119 Cd1115 2.439 . S
O1119 C1120 1.208 . S
C1120 O1118 1.247 . S
C1120 O1119 1.208 . S
C1121 O1126 1.247 . S
C1121 O1127 1.208 . S
C1122 O1114 1.315 . S
C1122 O1117 1.279 . S
C1123 O1124 1.315 . S
C1123 O1125 1.279 . S
O1124 Cd1116 2.223 . S
O1124 C1123 1.315 . S
O1125 Cd1115 2.240 . S
O1125 C1123 1.279 . S
O1126 Cd1116 2.297 . S
O1126 C1121 1.247 . S
O1127 Cd1116 2.439 . S
O1127 C1121 1.208 . S
H1128 C1146 0.951 . S
H1129 C1148 0.951 . S
H1130 C1150 0.950 . S
H1131 C1151 0.950 . S
H1132 C1153 0.950 . S
H1133 C1156 0.950 . S
H1134 C1157 0.950 . S
H1135 C1159 0.950 . S
H1136 C1160 0.950 . S
H1137 C1161 0.951 . S
H1138 C1163 0.951 . S
H1139 C1165 0.950 . S
H1140 C1166 0.950 . S
H1141 C1168 0.950 . S
H1142 C1171 0.950 . S
H1143 C1172 0.950 . S
H1144 C1174 0.950 . S
H1145 C1175 0.950 . S
C1146 H1128 0.951 . S
C1146 C1147 1.366 . S
C1146 C1148 1.388 . S
C1147 C1146 1.366 . S
C1147 C1151 1.385 . S
C1148 H1129 0.951 . S
C1148 C1146 1.388 . S
C1148 C1149 1.366 . S
C1149 C1148 1.366 . S
C1149 C1150 1.414 . S
C1149 C1152 1.499 . S
C1150 H1130 0.950 . S
C1150 C1149 1.414 . S
C1150 C1151 1.374 . S
C1151 H1131 0.950 . S
C1151 C1147 1.385 . S
C1151 C1150 1.374 . S
C1152 C1149 1.499 . S
C1152 C1153 1.373 . S
C1152 C1154 1.389 . S
C1153 H1132 0.950 . S
C1153 C1152 1.373 . S
C1153 C1169 1.377 . S
C1154 C1152 1.389 . S
C1154 C1155 1.524 . S
C1154 C1168 1.377 . S
C1155 C1154 1.524 . S
C1155 C1156 1.397 . S
C1155 C1160 1.363 . S
C1156 H1133 0.950 . S
C1156 C1155 1.397 . S
C1156 C1157 1.334 . S
C1157 H1134 0.950 . S
C1157 C1156 1.334 . S
C1157 C1158 1.287 . S
C1158 C1157 1.287 . S
C1158 C1159 1.524 . S
C1158 H1177 0.913 . S
C1159 H1135 0.950 . S
C1159 C1158 1.524 . S
C1159 C1160 1.415 . S
C1160 H1136 0.950 . S
C1160 C1155 1.363 . S
C1160 C1159 1.415 . S
C1161 H1137 0.951 . S
C1161 C1162 1.366 . S
C1161 C1163 1.388 1_554 S
C1162 C1161 1.366 . S
C1162 C1166 1.385 1_554 S
C1163 H1138 0.951 . S
C1163 C1161 1.388 1_556 S
C1163 C1164 1.366 . S
C1164 C1163 1.366 . S
C1164 C1165 1.414 . S
C1164 C1167 1.499 . S
C1165 H1139 0.950 . S
C1165 C1164 1.414 . S
C1165 C1166 1.374 . S
C1166 H1140 0.950 . S
C1166 C1162 1.385 1_556 S
C1166 C1165 1.374 . S
C1167 C1164 1.499 . S
C1167 C1168 1.373 . S
C1167 C1169 1.389 . S
C1168 H1141 0.950 . S
C1168 C1154 1.377 . S
C1168 C1167 1.373 . S
C1169 C1153 1.377 . S
C1169 C1167 1.389 . S
C1169 C1170 1.524 . S
C1170 C1169 1.524 . S
C1170 C1171 1.397 . S
C1170 C1175 1.363 . S
C1171 H1142 0.950 . S
C1171 C1170 1.397 . S
C1171 C1172 1.334 1_556 S
C1172 H1143 0.950 . S
C1172 C1171 1.334 1_554 S
C1172 C1173 1.287 . S
C1173 C1172 1.287 . S
C1173 C1174 1.524 1_554 S
C1173 H1176 0.999 . S
C1174 H1144 0.950 . S
C1174 C1173 1.524 1_556 S
C1174 C1175 1.415 . S
C1175 H1145 0.950 . S
C1175 C1170 1.363 . S
C1175 C1174 1.415 . S
H1176 C1173 0.999 . S
H1177 C1158 0.913 . S
H1178 C1196 0.951 . S
H1179 C1198 0.951 1_455 S
H1180 C1200 0.950 . S
H1181 C1201 0.950 . S
H1182 C1203 0.950 1_655 S
H1183 C1206 0.950 . S
H1184 C1207 0.950 . S
H1185 C1209 0.950 . S
H1186 C1210 0.950 . S
H1187 C1211 0.951 . S
H1188 C1213 0.951 . S
H1189 C1215 0.950 . S
H1190 C1216 0.950 . S
H1191 C1218 0.950 . S
H1192 C1221 0.950 . S
H1193 C1222 0.950 . S
H1194 C1224 0.950 . S
H1195 C1225 0.974 . S
C1196 H1178 0.951 . S
C1196 C1197 1.366 . S
C1196 C1198 1.388 . S
C1197 C1196 1.366 . S
C1197 C1201 1.385 . S
C1198 H1179 0.951 1_655 S
C1198 C1196 1.388 . S
C1198 C1199 1.366 . S
C1199 C1198 1.366 . S
C1199 C1200 1.414 . S
C1199 C1202 1.499 1_655 S
C1200 H1180 0.950 . S
C1200 C1199 1.414 . S
C1200 C1201 1.374 . S
C1201 H1181 0.950 . S
C1201 C1197 1.385 . S
C1201 C1200 1.374 . S
C1202 C1199 1.499 1_455 S
C1202 C1203 1.373 . S
C1202 C1204 1.389 . S
C1203 H1182 0.950 1_455 S
C1203 C1202 1.373 . S
C1203 C1219 1.377 . S
C1204 C1202 1.389 . S
C1204 C1205 1.524 . S
C1204 C1218 1.377 . S
C1205 C1204 1.524 . S
C1205 C1206 1.397 . S
C1205 C1210 1.363 . S
C1206 H1183 0.950 . S
C1206 C1205 1.397 . S
C1206 C1207 1.334 . S
C1207 H1184 0.950 . S
C1207 C1206 1.334 . S
C1207 C1208 1.287 . S
C1208 C1207 1.287 . S
C1208 C1209 1.524 . S
C1208 H1227 0.913 . S
C1209 H1185 0.950 . S
C1209 C1208 1.524 . S
C1209 C1210 1.415 . S
C1210 H1186 0.950 . S
C1210 C1205 1.363 . S
C1210 C1209 1.415 . S
C1211 H1187 0.951 . S
C1211 C1212 1.366 . S
C1211 C1213 1.388 . S
C1212 C1211 1.366 . S
C1212 C1216 1.385 . S
C1213 H1188 0.951 . S
C1213 C1211 1.388 . S
C1213 C1214 1.366 . S
C1214 C1213 1.366 . S
C1214 C1215 1.414 . S
C1214 C1217 1.499 . S
C1215 H1189 0.950 . S
C1215 C1214 1.414 . S
C1215 C1216 1.374 . S
C1216 H1190 0.950 . S
C1216 C1212 1.385 . S
C1216 C1215 1.374 . S
C1217 C1214 1.499 . S
C1217 C1218 1.373 . S
C1217 C1219 1.389 . S
C1218 H1191 0.950 . S
C1218 C1204 1.377 . S
C1218 C1217 1.373 . S
C1219 C1203 1.377 . S
C1219 C1217 1.389 . S
C1219 C1220 1.524 . S
C1220 C1219 1.524 . S
C1220 C1221 1.397 . S
C1220 C1225 1.363 . S
C1221 H1192 0.950 . S
C1221 C1220 1.397 . S
C1221 C1222 1.334 . S
C1222 H1193 0.950 . S
C1222 C1221 1.334 . S
C1222 C1223 1.287 . S
C1223 C1222 1.287 . S
C1223 C1224 1.524 1_455 S
C1223 H1226 1.007 . S
C1224 H1194 0.950 . S
C1224 C1223 1.524 1_655 S
C1224 C1225 1.415 1_655 S
C1225 H1195 0.974 . S
C1225 C1220 1.363 . S
C1225 C1224 1.415 1_455 S
H1226 C1223 1.007 . S
H1227 C1208 0.913 . S
H1228 C1246 0.951 . S
H1229 C1248 0.951 . S
H1230 C1250 0.950 . S
H1231 C1251 0.950 . S
H1232 C1253 0.950 . S
H1233 C1256 0.950 . S
H1234 C1257 0.950 . S
H1235 C1259 0.950 . S
H1236 C1260 0.950 . S
H1237 C1261 0.951 . S
H1238 C1263 0.951 . S
H1239 C1265 0.950 . S
H1240 C1266 0.950 . S
H1241 C1268 0.950 . S
H1242 C1271 0.950 . S
H1243 C1272 0.950 . S
H1244 C1274 0.950 . S
H1245 C1275 0.950 . S
C1246 H1228 0.951 . S
C1246 C1247 1.366 . S
C1246 C1248 1.388 . S
C1247 C1246 1.366 . S
C1247 C1251 1.385 . S
C1248 H1229 0.951 . S
C1248 C1246 1.388 . S
C1248 C1249 1.366 . S
C1249 C1248 1.366 . S
C1249 C1250 1.414 . S
C1249 C1252 1.499 . S
C1250 H1230 0.950 . S
C1250 C1249 1.414 . S
C1250 C1251 1.374 . S
C1251 H1231 0.950 . S
C1251 C1247 1.385 . S
C1251 C1250 1.374 . S
C1252 C1249 1.499 . S
C1252 C1253 1.373 . S
C1252 C1254 1.389 . S
C1253 H1232 0.950 . S
C1253 C1252 1.373 . S
C1253 C1269 1.377 . S
C1254 C1252 1.389 . S
C1254 C1255 1.524 . S
C1254 C1268 1.377 . S
C1255 C1254 1.524 . S
C1255 C1256 1.397 . S
C1255 C1260 1.363 . S
C1256 H1233 0.950 . S
C1256 C1255 1.397 . S
C1256 C1257 1.334 . S
C1257 H1234 0.950 . S
C1257 C1256 1.334 . S
C1257 C1258 1.287 . S
C1258 C1257 1.287 . S
C1258 C1259 1.524 . S
C1258 H1277 0.913 . S
C1259 H1235 0.950 . S
C1259 C1258 1.524 . S
C1259 C1260 1.415 . S
C1260 H1236 0.950 . S
C1260 C1255 1.363 . S
C1260 C1259 1.415 . S
C1261 H1237 0.951 . S
C1261 C1262 1.366 . S
C1261 C1263 1.388 . S
C1262 C1261 1.366 . S
C1262 C1266 1.385 . S
C1263 H1238 0.951 . S
C1263 C1261 1.388 . S
C1263 C1264 1.366 . S
C1264 C1263 1.366 . S
C1264 C1265 1.414 . S
C1264 C1267 1.499 . S
C1265 H1239 0.950 . S
C1265 C1264 1.414 . S
C1265 C1266 1.374 . S
C1266 H1240 0.950 . S
C1266 C1262 1.385 . S
C1266 C1265 1.374 . S
C1267 C1264 1.499 . S
C1267 C1268 1.373 . S
C1267 C1269 1.389 . S
C1268 H1241 0.950 . S
C1268 C1254 1.377 . S
C1268 C1267 1.373 . S
C1269 C1253 1.377 . S
C1269 C1267 1.389 . S
C1269 C1270 1.524 . S
C1270 C1269 1.524 . S
C1270 C1271 1.397 . S
C1270 C1275 1.363 . S
C1271 H1242 0.950 . S
C1271 C1270 1.397 . S
C1271 C1272 1.334 . S
C1272 H1243 0.950 . S
C1272 C1271 1.334 . S
C1272 C1273 1.287 . S
C1273 C1272 1.287 . S
C1273 C1274 1.524 . S
C1273 H1276 0.999 . S
C1274 H1244 0.950 . S
C1274 C1273 1.524 . S
C1274 C1275 1.415 . S
C1275 H1245 0.950 . S
C1275 C1270 1.363 . S
C1275 C1274 1.415 . S
H1276 C1273 0.999 . S
H1277 C1258 0.913 . S
H1278 C1296 0.951 . S
H1279 C1298 0.951 . S
H1280 C1300 0.950 1_545 S
H1281 C1301 0.950 . S
H1282 C1303 0.950 . S
H1283 C1306 0.950 1_455 S
H1284 C1307 0.950 . S
H1285 C1309 0.950 . S
H1286 C1310 0.950 . S
H1287 C1311 0.951 . S
H1288 C1313 0.951 . S
H1289 C1315 0.950 1_565 S
H1290 C1316 0.950 . S
H1291 C1318 0.950 . S
H1292 C1321 0.950 . S
H1293 C1322 0.950 . S
H1294 C1324 0.950 . S
H1295 C1325 0.950 . S
C1296 H1278 0.951 . S
C1296 C1297 1.366 . S
C1296 C1298 1.388 1_455 S
C1297 C1296 1.366 . S
C1297 C1301 1.385 . S
C1298 H1279 0.951 . S
C1298 C1296 1.388 1_655 S
C1298 C1299 1.366 . S
C1299 C1298 1.366 . S
C1299 C1300 1.414 1_655 S
C1299 C1302 1.499 . S
C1300 H1280 0.950 1_565 S
C1300 C1299 1.414 1_455 S
C1300 C1301 1.374 . S
C1301 H1281 0.950 . S
C1301 C1297 1.385 . S
C1301 C1300 1.374 . S
C1302 C1299 1.499 . S
C1302 C1303 1.373 1_565 S
C1302 C1304 1.389 . S
C1303 H1282 0.950 . S
C1303 C1302 1.373 1_545 S
C1303 C1319 1.377 . S
C1304 C1302 1.389 . S
C1304 C1305 1.524 . S
C1304 C1318 1.377 . S
C1305 C1304 1.524 . S
C1305 C1306 1.397 . S
C1305 C1310 1.363 . S
C1306 H1283 0.950 1_655 S
C1306 C1305 1.397 . S
C1306 C1307 1.334 1_655 S
C1307 H1284 0.950 . S
C1307 C1306 1.334 1_455 S
C1307 C1308 1.287 1_455 S
C1308 C1307 1.287 1_655 S
C1308 C1309 1.524 . S
C1308 H1327 0.948 . S
C1309 H1285 0.950 . S
C1309 C1308 1.524 . S
C1309 C1310 1.415 . S
C1310 H1286 0.950 . S
C1310 C1305 1.363 . S
C1310 C1309 1.415 . S
C1311 H1287 0.951 . S
C1311 C1312 1.366 . S
C1311 C1313 1.388 . S
C1312 C1311 1.366 . S
C1312 C1316 1.385 . S
C1313 H1288 0.951 . S
C1313 C1311 1.388 . S
C1313 C1314 1.366 . S
C1314 C1313 1.366 . S
C1314 C1315 1.414 . S
C1314 C1317 1.499 . S
C1315 H1289 0.950 1_545 S
C1315 C1314 1.414 . S
C1315 C1316 1.374 . S
C1316 H1290 0.950 . S
C1316 C1312 1.385 . S
C1316 C1315 1.374 . S
C1317 C1314 1.499 . S
C1317 C1318 1.373 1_545 S
C1317 C1319 1.389 . S
C1318 H1291 0.950 . S
C1318 C1304 1.377 . S
C1318 C1317 1.373 1_565 S
C1319 C1303 1.377 . S
C1319 C1317 1.389 . S
C1319 C1320 1.524 . S
C1320 C1319 1.524 . S
C1320 C1321 1.397 . S
C1320 C1325 1.363 . S
C1321 H1292 0.950 . S
C1321 C1320 1.397 . S
C1321 C1322 1.334 . S
C1322 H1293 0.950 . S
C1322 C1321 1.334 . S
C1322 C1323 1.287 . S
C1323 C1322 1.287 . S
C1323 C1324 1.524 . S
C1323 H1326 0.999 . S
C1324 H1294 0.950 . S
C1324 C1323 1.524 . S
C1324 C1325 1.415 . S
C1325 H1295 0.950 . S
C1325 C1320 1.363 . S
C1325 C1324 1.415 . S
H1326 C1323 0.999 . S
H1327 C1308 0.948 . S
H1328 C1346 0.951 . S
H1329 C1348 0.951 . S
H1330 C1350 0.950 . S
H1331 C1351 0.950 . S
H1332 C1353 0.950 . S
H1333 C1356 0.950 . S
H1334 C1357 0.950 . S
H1335 C1359 0.950 . S
H1336 C1360 0.950 . S
H1337 C1361 0.951 . S
H1338 C1363 0.951 . S
H1339 C1365 0.950 . S
H1340 C1366 0.950 . S
H1341 C1368 0.950 . S
H1342 C1371 0.950 . S
H1343 C1372 0.950 . S
H1344 C1374 0.950 . S
H1345 C1375 0.950 . S
C1346 H1328 0.951 . S
C1346 C1347 1.366 . S
C1346 C1348 1.388 . S
C1347 C1346 1.366 . S
C1347 C1351 1.385 . S
C1348 H1329 0.951 . S
C1348 C1346 1.388 . S
C1348 C1349 1.366 . S
C1349 C1348 1.366 . S
C1349 C1350 1.414 . S
C1349 C1352 1.499 . S
C1350 H1330 0.950 . S
C1350 C1349 1.414 . S
C1350 C1351 1.374 . S
C1351 H1331 0.950 . S
C1351 C1347 1.385 . S
C1351 C1350 1.374 . S
C1352 C1349 1.499 . S
C1352 C1353 1.373 . S
C1352 C1354 1.389 . S
C1353 H1332 0.950 . S
C1353 C1352 1.373 . S
C1353 C1369 1.377 . S
C1354 C1352 1.389 . S
C1354 C1355 1.524 . S
C1354 C1368 1.377 . S
C1355 C1354 1.524 . S
C1355 C1356 1.397 . S
C1355 C1360 1.363 . S
C1356 H1333 0.950 . S
C1356 C1355 1.397 . S
C1356 C1357 1.334 . S
C1357 H1334 0.950 . S
C1357 C1356 1.334 . S
C1357 C1358 1.287 . S
C1358 C1357 1.287 . S
C1358 C1359 1.524 . S
C1358 H1377 0.913 . S
C1359 H1335 0.950 . S
C1359 C1358 1.524 . S
C1359 C1360 1.415 . S
C1360 H1336 0.950 . S
C1360 C1355 1.363 . S
C1360 C1359 1.415 . S
C1361 H1337 0.951 . S
C1361 C1362 1.366 . S
C1361 C1363 1.388 . S
C1362 C1361 1.366 . S
C1362 C1366 1.385 . S
C1363 H1338 0.951 . S
C1363 C1361 1.388 . S
C1363 C1364 1.366 . S
C1364 C1363 1.366 . S
C1364 C1365 1.414 . S
C1364 C1367 1.499 . S
C1365 H1339 0.950 . S
C1365 C1364 1.414 . S
C1365 C1366 1.374 . S
C1366 H1340 0.950 . S
C1366 C1362 1.385 . S
C1366 C1365 1.374 . S
C1367 C1364 1.499 . S
C1367 C1368 1.373 . S
C1367 C1369 1.389 . S
C1368 H1341 0.950 . S
C1368 C1354 1.377 . S
C1368 C1367 1.373 . S
C1369 C1353 1.377 . S
C1369 C1367 1.389 . S
C1369 C1370 1.524 . S
C1370 C1369 1.524 . S
C1370 C1371 1.397 . S
C1370 C1375 1.363 . S
C1371 H1342 0.950 . S
C1371 C1370 1.397 . S
C1371 C1372 1.334 . S
C1372 H1343 0.950 . S
C1372 C1371 1.334 . S
C1372 C1373 1.287 . S
C1373 C1372 1.287 . S
C1373 C1374 1.524 . S
C1373 H1376 0.999 . S
C1374 H1344 0.950 . S
C1374 C1373 1.524 . S
C1374 C1375 1.415 . S
C1375 H1345 0.950 . S
C1375 C1370 1.363 . S
C1375 C1374 1.415 . S
H1376 C1373 0.999 . S
H1377 C1358 0.913 . S
H1378 C1396 0.951 . S
H1379 C1398 0.951 . S
H1380 C1400 0.950 . S
H1381 C1401 0.950 . S
H1382 C1403 0.950 . S
H1383 C1406 0.950 . S
H1384 C1407 0.950 . S
H1385 C1409 0.950 . S
H1386 C1410 0.950 . S
H1387 C1411 0.951 . S
H1388 C1413 0.951 . S
H1389 C1415 0.950 . S
H1390 C1416 0.950 . S
H1391 C1418 0.950 . S
H1392 C1421 0.950 . S
H1393 C1422 0.950 . S
H1394 C1424 0.950 . S
H1395 C1425 0.950 . S
C1396 H1378 0.951 . S
C1396 C1397 1.366 . S
C1396 C1398 1.388 . S
C1397 C1396 1.366 . S
C1397 C1401 1.385 . S
C1398 H1379 0.951 . S
C1398 C1396 1.388 . S
C1398 C1399 1.366 . S
C1399 C1398 1.366 . S
C1399 C1400 1.414 . S
C1399 C1402 1.499 . S
C1400 H1380 0.950 . S
C1400 C1399 1.414 . S
C1400 C1401 1.374 . S
C1401 H1381 0.950 . S
C1401 C1397 1.385 . S
C1401 C1400 1.374 . S
C1402 C1399 1.499 . S
C1402 C1403 1.373 . S
C1402 C1404 1.389 . S
C1403 H1382 0.950 . S
C1403 C1402 1.373 . S
C1403 C1419 1.377 . S
C1404 C1402 1.389 . S
C1404 C1405 1.524 . S
C1404 C1418 1.377 . S
C1405 C1404 1.524 . S
C1405 C1406 1.397 . S
C1405 C1410 1.363 . S
C1406 H1383 0.950 . S
C1406 C1405 1.397 . S
C1406 C1407 1.334 . S
C1407 H1384 0.950 . S
C1407 C1406 1.334 . S
C1407 C1408 1.287 . S
C1408 C1407 1.287 . S
C1408 C1409 1.524 . S
C1408 H1427 0.913 . S
C1409 H1385 0.950 . S
C1409 C1408 1.524 . S
C1409 C1410 1.415 . S
C1410 H1386 0.950 . S
C1410 C1405 1.363 . S
C1410 C1409 1.415 . S
C1411 H1387 0.951 . S
C1411 C1412 1.366 . S
C1411 C1413 1.388 . S
C1412 C1411 1.366 . S
C1412 C1416 1.385 . S
C1413 H1388 0.951 . S
C1413 C1411 1.388 . S
C1413 C1414 1.366 . S
C1414 C1413 1.366 . S
C1414 C1415 1.414 . S
C1414 C1417 1.499 . S
C1415 H1389 0.950 . S
C1415 C1414 1.414 . S
C1415 C1416 1.374 . S
C1416 H1390 0.950 . S
C1416 C1412 1.385 . S
C1416 C1415 1.374 . S
C1417 C1414 1.499 . S
C1417 C1418 1.373 . S
C1417 C1419 1.389 . S
C1418 H1391 0.950 . S
C1418 C1404 1.377 . S
C1418 C1417 1.373 . S
C1419 C1403 1.377 . S
C1419 C1417 1.389 . S
C1419 C1420 1.524 . S
C1420 C1419 1.524 . S
C1420 C1421 1.397 . S
C1420 C1425 1.363 . S
C1421 H1392 0.950 . S
C1421 C1420 1.397 . S
C1421 C1422 1.334 . S
C1422 H1393 0.950 . S
C1422 C1421 1.334 . S
C1422 C1423 1.287 . S
C1423 C1422 1.287 . S
C1423 C1424 1.524 . S
C1423 H1426 0.999 . S
C1424 H1394 0.950 . S
C1424 C1423 1.524 . S
C1424 C1425 1.415 . S
C1425 H1395 0.950 . S
C1425 C1420 1.363 . S
C1425 C1424 1.415 . S
H1426 C1423 0.999 . S
H1427 C1408 0.913 . S
H1428 C1446 0.951 . S
H1429 C1448 0.951 . S
H1430 C1450 0.950 . S
H1431 C1451 0.950 . S
H1432 C1453 0.950 . S
H1433 C1456 0.950 . S
H1434 C1457 0.950 . S
H1435 C1459 0.950 . S
H1436 C1460 0.950 . S
H1437 C1461 0.951 . S
H1438 C1463 0.951 . S
H1439 C1465 0.950 . S
H1440 C1466 0.950 . S
H1441 C1468 0.950 . S
H1442 C1471 0.950 . S
H1443 C1472 0.950 . S
H1444 C1474 0.950 . S
H1445 C1475 0.950 . S
C1446 H1428 0.951 . S
C1446 C1447 1.366 . S
C1446 C1448 1.388 . S
C1447 C1446 1.366 . S
C1447 C1451 1.385 . S
C1448 H1429 0.951 . S
C1448 C1446 1.388 . S
C1448 C1449 1.366 . S
C1449 C1448 1.366 . S
C1449 C1450 1.414 . S
C1449 C1452 1.499 . S
C1450 H1430 0.950 . S
C1450 C1449 1.414 . S
C1450 C1451 1.374 . S
C1451 H1431 0.950 . S
C1451 C1447 1.385 . S
C1451 C1450 1.374 . S
C1452 C1449 1.499 . S
C1452 C1453 1.373 . S
C1452 C1454 1.389 . S
C1453 H1432 0.950 . S
C1453 C1452 1.373 . S
C1453 C1469 1.377 . S
C1454 C1452 1.389 . S
C1454 C1455 1.524 . S
C1454 C1468 1.377 . S
C1455 C1454 1.524 . S
C1455 C1456 1.397 . S
C1455 C1460 1.363 . S
C1456 H1433 0.950 . S
C1456 C1455 1.397 . S
C1456 C1457 1.334 . S
C1457 H1434 0.950 . S
C1457 C1456 1.334 . S
C1457 C1458 1.287 . S
C1458 C1457 1.287 . S
C1458 C1459 1.524 . S
C1458 H1477 0.913 . S
C1459 H1435 0.950 . S
C1459 C1458 1.524 . S
C1459 C1460 1.415 . S
C1460 H1436 0.950 . S
C1460 C1455 1.363 . S
C1460 C1459 1.415 . S
C1461 H1437 0.951 . S
C1461 C1462 1.366 . S
C1461 C1463 1.388 . S
C1462 C1461 1.366 . S
C1462 C1466 1.385 . S
C1463 H1438 0.951 . S
C1463 C1461 1.388 . S
C1463 C1464 1.366 . S
C1464 C1463 1.366 . S
C1464 C1465 1.414 . S
C1464 C1467 1.499 . S
C1465 H1439 0.950 . S
C1465 C1464 1.414 . S
C1465 C1466 1.374 . S
C1466 H1440 0.950 . S
C1466 C1462 1.385 . S
C1466 C1465 1.374 . S
C1467 C1464 1.499 . S
C1467 C1468 1.373 . S
C1467 C1469 1.389 . S
C1468 H1441 0.950 . S
C1468 C1454 1.377 . S
C1468 C1467 1.373 . S
C1469 C1453 1.377 . S
C1469 C1467 1.389 . S
C1469 C1470 1.524 . S
C1470 C1469 1.524 . S
C1470 C1471 1.397 . S
C1470 C1475 1.363 . S
C1471 H1442 0.950 . S
C1471 C1470 1.397 . S
C1471 C1472 1.334 . S
C1472 H1443 0.950 . S
C1472 C1471 1.334 . S
C1472 C1473 1.287 . S
C1473 C1472 1.287 . S
C1473 C1474 1.524 . S
C1473 H1476 0.999 . S
C1474 H1444 0.950 . S
C1474 C1473 1.524 . S
C1474 C1475 1.415 . S
C1475 H1445 0.950 . S
C1475 C1470 1.363 . S
C1475 C1474 1.415 . S
H1476 C1473 0.999 . S
H1477 C1458 0.913 . S
H1478 C1496 0.951 . S
H1479 C1498 0.951 . S
H1480 C1500 0.950 . S
H1481 C1501 0.950 . S
H1482 C1503 0.950 . S
H1483 C1506 0.950 . S
H1484 C1507 0.950 . S
H1485 C1509 0.950 . S
H1486 C1510 0.950 . S
H1487 C1511 0.951 . S
H1488 C1513 0.951 . S
H1489 C1515 0.950 . S
H1490 C1516 0.950 . S
H1491 C1518 0.950 . S
H1492 C1521 0.950 . S
H1493 C1522 0.950 . S
H1494 C1524 0.950 . S
H1495 C1525 0.950 . S
C1496 H1478 0.951 . S
C1496 C1497 1.366 . S
C1496 C1498 1.388 . S
C1497 C1496 1.366 . S
C1497 C1501 1.385 . S
C1498 H1479 0.951 . S
C1498 C1496 1.388 . S
C1498 C1499 1.366 . S
C1499 C1498 1.366 . S
C1499 C1500 1.414 . S
C1499 C1502 1.499 . S
C1500 H1480 0.950 . S
C1500 C1499 1.414 . S
C1500 C1501 1.374 . S
C1501 H1481 0.950 . S
C1501 C1497 1.385 . S
C1501 C1500 1.374 . S
C1502 C1499 1.499 . S
C1502 C1503 1.373 . S
C1502 C1504 1.389 . S
C1503 H1482 0.950 . S
C1503 C1502 1.373 . S
C1503 C1519 1.377 . S
C1504 C1502 1.389 . S
C1504 C1505 1.524 . S
C1504 C1518 1.377 . S
C1505 C1504 1.524 . S
C1505 C1506 1.397 . S
C1505 C1510 1.363 . S
C1506 H1483 0.950 . S
C1506 C1505 1.397 . S
C1506 C1507 1.334 . S
C1507 H1484 0.950 . S
C1507 C1506 1.334 . S
C1507 C1508 1.287 . S
C1508 C1507 1.287 . S
C1508 C1509 1.524 . S
C1508 H1527 0.913 . S
C1509 H1485 0.950 . S
C1509 C1508 1.524 . S
C1509 C1510 1.415 . S
C1510 H1486 0.950 . S
C1510 C1505 1.363 . S
C1510 C1509 1.415 . S
C1511 H1487 0.951 . S
C1511 C1512 1.366 . S
C1511 C1513 1.388 . S
C1512 C1511 1.366 . S
C1512 C1516 1.385 . S
C1513 H1488 0.951 . S
C1513 C1511 1.388 . S
C1513 C1514 1.366 . S
C1514 C1513 1.366 . S
C1514 C1515 1.414 . S
C1514 C1517 1.499 . S
C1515 H1489 0.950 . S
C1515 C1514 1.414 . S
C1515 C1516 1.374 . S
C1516 H1490 0.950 . S
C1516 C1512 1.385 . S
C1516 C1515 1.374 . S
C1517 C1514 1.499 . S
C1517 C1518 1.373 . S
C1517 C1519 1.389 . S
C1518 H1491 0.950 . S
C1518 C1504 1.377 . S
C1518 C1517 1.373 . S
C1519 C1503 1.377 . S
C1519 C1517 1.389 . S
C1519 C1520 1.524 . S
C1520 C1519 1.524 . S
C1520 C1521 1.397 1_565 S
C1520 C1525 1.363 . S
C1521 H1492 0.950 . S
C1521 C1520 1.397 1_545 S
C1521 C1522 1.334 . S
C1522 H1493 0.950 . S
C1522 C1521 1.334 . S
C1522 C1523 1.287 . S
C1523 C1522 1.287 . S
C1523 C1524 1.524 . S
C1523 H1526 0.999 . S
C1524 H1494 0.950 . S
C1524 C1523 1.524 . S
C1524 C1525 1.415 1_545 S
C1525 H1495 0.950 . S
C1525 C1520 1.363 . S
C1525 C1524 1.415 1_565 S
H1526 C1523 0.999 . S
H1527 C1508 0.913 . S
H1528 C1546 0.951 . S
H1529 C1548 0.951 . S
H1530 C1550 0.950 . S
H1531 C1551 0.950 . S
H1532 C1553 0.950 . S
H1533 C1556 0.950 . S
H1534 C1557 0.950 . S
H1535 C1559 0.950 . S
H1536 C1560 0.950 . S
H1537 C1561 0.951 . S
H1538 C1563 0.951 . S
H1539 C1565 0.950 . S
H1540 C1566 0.950 . S
H1541 C1568 0.950 . S
H1542 C1571 0.950 . S
H1543 C1572 0.950 . S
H1544 C1574 0.950 . S
H1545 C1575 0.950 . S
C1546 H1528 0.951 . S
C1546 C1547 1.366 . S
C1546 C1548 1.388 . S
C1547 C1546 1.366 . S
C1547 C1551 1.385 . S
C1548 H1529 0.951 . S
C1548 C1546 1.388 . S
C1548 C1549 1.366 . S
C1549 C1548 1.366 . S
C1549 C1550 1.414 . S
C1549 C1552 1.499 . S
C1550 H1530 0.950 . S
C1550 C1549 1.414 . S
C1550 C1551 1.374 . S
C1551 H1531 0.950 . S
C1551 C1547 1.385 . S
C1551 C1550 1.374 . S
C1552 C1549 1.499 . S
C1552 C1553 1.373 . S
C1552 C1554 1.389 . S
C1553 H1532 0.950 . S
C1553 C1552 1.373 . S
C1553 C1569 1.377 . S
C1554 C1552 1.389 . S
C1554 C1555 1.524 . S
C1554 C1568 1.377 . S
C1555 C1554 1.524 . S
C1555 C1556 1.397 . S
C1555 C1560 1.363 . S
C1556 H1533 0.950 . S
C1556 C1555 1.397 . S
C1556 C1557 1.334 . S
C1557 H1534 0.950 . S
C1557 C1556 1.334 . S
C1557 C1558 1.287 . S
C1558 C1557 1.287 . S
C1558 C1559 1.524 . S
C1558 H1577 0.913 . S
C1559 H1535 0.950 . S
C1559 C1558 1.524 . S
C1559 C1560 1.415 . S
C1560 H1536 0.950 . S
C1560 C1555 1.363 . S
C1560 C1559 1.415 . S
C1561 H1537 0.951 . S
C1561 C1562 1.366 . S
C1561 C1563 1.388 . S
C1562 C1561 1.366 . S
C1562 C1566 1.385 . S
C1563 H1538 0.951 . S
C1563 C1561 1.388 . S
C1563 C1564 1.366 . S
C1564 C1563 1.366 . S
C1564 C1565 1.414 . S
C1564 C1567 1.499 . S
C1565 H1539 0.950 . S
C1565 C1564 1.414 . S
C1565 C1566 1.374 . S
C1566 H1540 0.950 . S
C1566 C1562 1.385 . S
C1566 C1565 1.374 . S
C1567 C1564 1.499 . S
C1567 C1568 1.373 . S
C1567 C1569 1.389 . S
C1568 H1541 0.950 . S
C1568 C1554 1.377 . S
C1568 C1567 1.373 . S
C1569 C1553 1.377 . S
C1569 C1567 1.389 . S
C1569 C1570 1.524 . S
C1570 C1569 1.524 . S
C1570 C1571 1.397 . S
C1570 C1575 1.363 . S
C1571 H1542 0.950 . S
C1571 C1570 1.397 . S
C1571 C1572 1.334 . S
C1572 H1543 0.950 . S
C1572 C1571 1.334 . S
C1572 C1573 1.287 . S
C1573 C1572 1.287 . S
C1573 C1574 1.524 . S
C1573 H1576 0.999 . S
C1574 H1544 0.950 . S
C1574 C1573 1.524 . S
C1574 C1575 1.415 . S
C1575 H1545 0.950 . S
C1575 C1570 1.363 . S
C1575 C1574 1.415 . S
H1576 C1573 0.999 . S
H1577 C1558 0.913 . S
H1578 C1596 0.951 . S
H1579 C1598 0.951 . S
H1580 C1600 0.950 . S
H1581 C1601 0.950 . S
H1582 C1603 0.950 . S
H1583 C1606 0.950 . S
H1584 C1607 0.950 . S
H1585 C1609 0.950 . S
H1586 C1610 0.950 . S
H1587 C1611 0.951 . S
H1588 C1613 0.951 . S
H1589 C1615 0.950 . S
H1590 C1616 0.950 . S
H1591 C1618 0.950 . S
H1592 C1621 0.950 . S
H1593 C1622 0.950 . S
H1594 C1624 0.950 . S
H1595 C1625 0.950 . S
C1596 H1578 0.951 . S
C1596 C1597 1.366 . S
C1596 C1598 1.388 . S
C1597 C1596 1.366 . S
C1597 C1601 1.385 . S
C1598 H1579 0.951 . S
C1598 C1596 1.388 . S
C1598 C1599 1.366 . S
C1599 C1598 1.366 . S
C1599 C1600 1.414 . S
C1599 C1602 1.499 . S
C1600 H1580 0.950 . S
C1600 C1599 1.414 . S
C1600 C1601 1.374 . S
C1601 H1581 0.950 . S
C1601 C1597 1.385 . S
C1601 C1600 1.374 . S
C1602 C1599 1.499 . S
C1602 C1603 1.373 . S
C1602 C1604 1.389 . S
C1603 H1582 0.950 . S
C1603 C1602 1.373 . S
C1603 C1619 1.377 . S
C1604 C1602 1.389 . S
C1604 C1605 1.524 . S
C1604 C1618 1.377 . S
C1605 C1604 1.524 . S
C1605 C1606 1.397 . S
C1605 C1610 1.363 . S
C1606 H1583 0.950 . S
C1606 C1605 1.397 . S
C1606 C1607 1.334 . S
C1607 H1584 0.950 . S
C1607 C1606 1.334 . S
C1607 C1608 1.287 . S
C1608 C1607 1.287 . S
C1608 C1609 1.524 . S
C1608 H1627 0.913 . S
C1609 H1585 0.950 . S
C1609 C1608 1.524 . S
C1609 C1610 1.415 . S
C1610 H1586 0.950 . S
C1610 C1605 1.363 . S
C1610 C1609 1.415 . S
C1611 H1587 0.951 . S
C1611 C1612 1.366 . S
C1611 C1613 1.388 . S
C1612 C1611 1.366 . S
C1612 C1616 1.385 . S
C1613 H1588 0.951 . S
C1613 C1611 1.388 . S
C1613 C1614 1.366 . S
C1614 C1613 1.366 . S
C1614 C1615 1.414 . S
C1614 C1617 1.499 . S
C1615 H1589 0.950 . S
C1615 C1614 1.414 . S
C1615 C1616 1.374 . S
C1616 H1590 0.950 . S
C1616 C1612 1.385 . S
C1616 C1615 1.374 . S
C1617 C1614 1.499 . S
C1617 C1618 1.373 . S
C1617 C1619 1.389 . S
C1618 H1591 0.950 . S
C1618 C1604 1.377 . S
C1618 C1617 1.373 . S
C1619 C1603 1.377 . S
C1619 C1617 1.389 . S
C1619 C1620 1.524 . S
C1620 C1619 1.524 . S
C1620 C1621 1.397 . S
C1620 C1625 1.363 . S
C1621 H1592 0.950 . S
C1621 C1620 1.397 . S
C1621 C1622 1.334 . S
C1622 H1593 0.950 . S
C1622 C1621 1.334 . S
C1622 C1623 1.287 . S
C1623 C1622 1.287 . S
C1623 C1624 1.524 . S
C1623 H1626 0.999 . S
C1624 H1594 0.950 . S
C1624 C1623 1.524 . S
C1624 C1625 1.415 . S
C1625 H1595 0.950 . S
C1625 C1620 1.363 . S
C1625 C1624 1.415 . S
H1626 C1623 0.999 . S
H1627 C1608 0.913 . S
H1628 C1646 0.951 . S
H1629 C1648 0.951 . S
H1630 C1650 0.950 . S
H1631 C1651 0.950 . S
H1632 C1653 0.950 . S
H1633 C1656 0.950 . S
H1634 C1657 0.950 . S
H1635 C1659 0.950 . S
H1636 C1660 0.950 . S
H1637 C1661 0.951 . S
H1638 C1663 0.951 . S
H1639 C1665 0.950 . S
H1640 C1666 0.950 . S
H1641 C1668 0.950 . S
H1642 C1671 0.950 . S
H1643 C1672 0.950 . S
H1644 C1674 0.950 . S
H1645 C1675 0.950 . S
C1646 H1628 0.951 . S
C1646 C1647 1.366 . S
C1646 C1648 1.388 . S
C1647 C1646 1.366 . S
C1647 C1651 1.385 . S
C1648 H1629 0.951 . S
C1648 C1646 1.388 . S
C1648 C1649 1.366 . S
C1649 C1648 1.366 . S
C1649 C1650 1.414 . S
C1649 C1652 1.499 . S
C1650 H1630 0.950 . S
C1650 C1649 1.414 . S
C1650 C1651 1.374 . S
C1651 H1631 0.950 . S
C1651 C1647 1.385 . S
C1651 C1650 1.374 . S
C1652 C1649 1.499 . S
C1652 C1653 1.373 . S
C1652 C1654 1.389 . S
C1653 H1632 0.950 . S
C1653 C1652 1.373 . S
C1653 C1669 1.377 . S
C1654 C1652 1.389 . S
C1654 C1655 1.524 . S
C1654 C1668 1.377 . S
C1655 C1654 1.524 . S
C1655 C1656 1.397 . S
C1655 C1660 1.363 . S
C1656 H1633 0.950 . S
C1656 C1655 1.397 . S
C1656 C1657 1.334 . S
C1657 H1634 0.950 . S
C1657 C1656 1.334 . S
C1657 C1658 1.287 . S
C1658 C1657 1.287 . S
C1658 C1659 1.524 . S
C1658 H1677 0.913 . S
C1659 H1635 0.950 . S
C1659 C1658 1.524 . S
C1659 C1660 1.415 . S
C1660 H1636 0.950 . S
C1660 C1655 1.363 . S
C1660 C1659 1.415 . S
C1661 H1637 0.951 . S
C1661 C1662 1.366 . S
C1661 C1663 1.388 . S
C1662 C1661 1.366 . S
C1662 C1666 1.385 . S
C1663 H1638 0.951 . S
C1663 C1661 1.388 . S
C1663 C1664 1.366 . S
C1664 C1663 1.366 . S
C1664 C1665 1.414 . S
C1664 C1667 1.499 . S
C1665 H1639 0.950 . S
C1665 C1664 1.414 . S
C1665 C1666 1.374 . S
C1666 H1640 0.950 . S
C1666 C1662 1.385 . S
C1666 C1665 1.374 . S
C1667 C1664 1.499 . S
C1667 C1668 1.373 . S
C1667 C1669 1.389 . S
C1668 H1641 0.950 . S
C1668 C1654 1.377 . S
C1668 C1667 1.373 . S
C1669 C1653 1.377 . S
C1669 C1667 1.389 . S
C1669 C1670 1.524 . S
C1670 C1669 1.524 . S
C1670 C1671 1.397 . S
C1670 C1675 1.363 . S
C1671 H1642 0.950 . S
C1671 C1670 1.397 . S
C1671 C1672 1.334 . S
C1672 H1643 0.950 . S
C1672 C1671 1.334 . S
C1672 C1673 1.287 . S
C1673 C1672 1.287 . S
C1673 C1674 1.524 . S
C1673 H1676 0.999 . S
C1674 H1644 0.950 . S
C1674 C1673 1.524 . S
C1674 C1675 1.415 . S
C1675 H1645 0.950 . S
C1675 C1670 1.363 . S
C1675 C1674 1.415 . S
H1676 C1673 0.999 . S
H1677 C1658 0.913 . S
H1678 C1696 0.951 . S
H1679 C1698 0.951 . S
H1680 C1700 0.950 . S
H1681 C1701 0.950 . S
H1682 C1703 0.950 . S
H1683 C1706 0.950 . S
H1684 C1707 0.950 . S
H1685 C1709 0.950 . S
H1686 C1710 0.950 . S
H1687 C1711 0.951 . S
H1688 C1713 0.951 . S
H1689 C1715 0.950 . S
H1690 C1716 0.950 . S
H1691 C1718 0.950 . S
H1692 C1721 0.950 . S
H1693 C1722 0.950 . S
H1694 C1724 0.950 . S
H1695 C1725 0.950 . S
C1696 H1678 0.951 . S
C1696 C1697 1.366 . S
C1696 C1698 1.388 . S
C1697 C1696 1.366 . S
C1697 C1701 1.385 . S
C1698 H1679 0.951 . S
C1698 C1696 1.388 . S
C1698 C1699 1.366 . S
C1699 C1698 1.366 . S
C1699 C1700 1.414 . S
C1699 C1702 1.499 . S
C1700 H1680 0.950 . S
C1700 C1699 1.414 . S
C1700 C1701 1.374 . S
C1701 H1681 0.950 . S
C1701 C1697 1.385 . S
C1701 C1700 1.374 . S
C1702 C1699 1.499 . S
C1702 C1703 1.373 . S
C1702 C1704 1.389 . S
C1703 H1682 0.950 . S
C1703 C1702 1.373 . S
C1703 C1719 1.377 . S
C1704 C1702 1.389 . S
C1704 C1705 1.524 . S
C1704 C1718 1.377 . S
C1705 C1704 1.524 . S
C1705 C1706 1.397 . S
C1705 C1710 1.363 . S
C1706 H1683 0.950 . S
C1706 C1705 1.397 . S
C1706 C1707 1.334 . S
C1707 H1684 0.950 . S
C1707 C1706 1.334 . S
C1707 C1708 1.287 . S
C1708 C1707 1.287 . S
C1708 C1709 1.524 . S
C1708 H1727 0.913 . S
C1709 H1685 0.950 . S
C1709 C1708 1.524 . S
C1709 C1710 1.415 . S
C1710 H1686 0.950 . S
C1710 C1705 1.363 . S
C1710 C1709 1.415 . S
C1711 H1687 0.951 . S
C1711 C1712 1.366 . S
C1711 C1713 1.388 . S
C1712 C1711 1.366 . S
C1712 C1716 1.385 . S
C1713 H1688 0.951 . S
C1713 C1711 1.388 . S
C1713 C1714 1.366 . S
C1714 C1713 1.366 . S
C1714 C1715 1.414 . S
C1714 C1717 1.499 . S
C1715 H1689 0.950 . S
C1715 C1714 1.414 . S
C1715 C1716 1.374 . S
C1716 H1690 0.950 . S
C1716 C1712 1.385 . S
C1716 C1715 1.374 . S
C1717 C1714 1.499 . S
C1717 C1718 1.373 . S
C1717 C1719 1.389 . S
C1718 H1691 0.950 . S
C1718 C1704 1.377 . S
C1718 C1717 1.373 . S
C1719 C1703 1.377 . S
C1719 C1717 1.389 . S
C1719 C1720 1.524 . S
C1720 C1719 1.524 . S
C1720 C1721 1.397 . S
C1720 C1725 1.363 . S
C1721 H1692 0.950 . S
C1721 C1720 1.397 . S
C1721 C1722 1.334 . S
C1722 H1693 0.950 . S
C1722 C1721 1.334 . S
C1722 C1723 1.287 . S
C1723 C1722 1.287 . S
C1723 C1724 1.524 . S
C1723 H1726 0.999 . S
C1724 H1694 0.950 . S
C1724 C1723 1.524 . S
C1724 C1725 1.415 . S
C1725 H1695 0.950 . S
C1725 C1720 1.363 . S
C1725 C1724 1.415 . S
H1726 C1723 0.999 . S
H1727 C1708 0.913 . S
H1728 C1746 0.951 . S
H1729 C1748 0.951 . S
H1730 C1750 0.950 . S
H1731 C1751 0.950 . S
H1732 C1753 0.950 . S
H1733 C1756 0.950 . S
H1734 C1757 0.950 . S
H1735 C1759 0.950 . S
H1736 C1760 0.950 . S
H1737 C1761 0.951 . S
H1738 C1763 0.951 . S
H1739 C1765 0.950 . S
H1740 C1766 0.950 . S
H1741 C1768 0.950 . S
H1742 C1771 0.950 . S
H1743 C1772 0.950 . S
H1744 C1774 0.950 . S
H1745 C1775 0.950 . S
C1746 H1728 0.951 . S
C1746 C1747 1.366 . S
C1746 C1748 1.388 . S
C1747 C1746 1.366 . S
C1747 C1751 1.385 . S
C1748 H1729 0.951 . S
C1748 C1746 1.388 . S
C1748 C1749 1.366 . S
C1749 C1748 1.366 . S
C1749 C1750 1.414 . S
C1749 C1752 1.499 . S
C1750 H1730 0.950 . S
C1750 C1749 1.414 . S
C1750 C1751 1.374 . S
C1751 H1731 0.950 . S
C1751 C1747 1.385 . S
C1751 C1750 1.374 . S
C1752 C1749 1.499 . S
C1752 C1753 1.373 . S
C1752 C1754 1.389 . S
C1753 H1732 0.950 . S
C1753 C1752 1.373 . S
C1753 C1769 1.377 . S
C1754 C1752 1.389 . S
C1754 C1755 1.524 . S
C1754 C1768 1.377 . S
C1755 C1754 1.524 . S
C1755 C1756 1.397 . S
C1755 C1760 1.363 . S
C1756 H1733 0.950 . S
C1756 C1755 1.397 . S
C1756 C1757 1.334 . S
C1757 H1734 0.950 . S
C1757 C1756 1.334 . S
C1757 C1758 1.287 . S
C1758 C1757 1.287 . S
C1758 C1759 1.524 . S
C1758 H1777 0.913 . S
C1759 H1735 0.950 . S
C1759 C1758 1.524 . S
C1759 C1760 1.415 . S
C1760 H1736 0.950 . S
C1760 C1755 1.363 . S
C1760 C1759 1.415 . S
C1761 H1737 0.951 . S
C1761 C1762 1.366 . S
C1761 C1763 1.388 . S
C1762 C1761 1.366 . S
C1762 C1766 1.385 . S
C1763 H1738 0.951 . S
C1763 C1761 1.388 . S
C1763 C1764 1.366 . S
C1764 C1763 1.366 . S
C1764 C1765 1.414 . S
C1764 C1767 1.499 . S
C1765 H1739 0.950 . S
C1765 C1764 1.414 . S
C1765 C1766 1.374 . S
C1766 H1740 0.950 . S
C1766 C1762 1.385 . S
C1766 C1765 1.374 . S
C1767 C1764 1.499 . S
C1767 C1768 1.373 . S
C1767 C1769 1.389 . S
C1768 H1741 0.950 . S
C1768 C1754 1.377 . S
C1768 C1767 1.373 . S
C1769 C1753 1.377 . S
C1769 C1767 1.389 . S
C1769 C1770 1.524 . S
C1770 C1769 1.524 . S
C1770 C1771 1.397 . S
C1770 C1775 1.363 . S
C1771 H1742 0.950 . S
C1771 C1770 1.397 . S
C1771 C1772 1.334 . S
C1772 H1743 0.950 . S
C1772 C1771 1.334 . S
C1772 C1773 1.287 . S
C1773 C1772 1.287 . S
C1773 C1774 1.524 . S
C1773 H1776 0.999 . S
C1774 H1744 0.950 . S
C1774 C1773 1.524 . S
C1774 C1775 1.415 . S
C1775 H1745 0.950 . S
C1775 C1770 1.363 . S
C1775 C1774 1.415 . S
H1776 C1773 0.999 . S
H1777 C1758 0.913 . S
H1778 C1796 0.951 . S
H1779 C1798 0.951 . S
H1780 C1800 0.950 . S
H1781 C1801 0.950 . S
H1782 C1803 0.950 . S
H1783 C1806 0.950 . S
H1784 C1807 0.950 . S
H1785 C1809 0.950 1_655 S
H1786 C1810 0.950 . S
H1787 C1811 0.951 . S
H1788 C1813 0.951 . S
H1789 C1815 0.950 . S
H1790 C1816 0.950 . S
H1791 C1818 0.950 . S
H1792 C1821 0.950 . S
H1793 C1822 0.950 . S
H1794 C1824 0.950 . S
H1795 C1825 0.950 . S
C1796 H1778 0.951 . S
C1796 C1797 1.366 . S
C1796 C1798 1.388 . S
C1797 C1796 1.366 . S
C1797 C1801 1.385 . S
C1798 H1779 0.951 . S
C1798 C1796 1.388 . S
C1798 C1799 1.366 . S
C1799 C1798 1.366 . S
C1799 C1800 1.414 . S
C1799 C1802 1.499 . S
C1800 H1780 0.950 . S
C1800 C1799 1.414 . S
C1800 C1801 1.374 . S
C1801 H1781 0.950 . S
C1801 C1797 1.385 . S
C1801 C1800 1.374 . S
C1802 C1799 1.499 . S
C1802 C1803 1.373 . S
C1802 C1804 1.389 . S
C1803 H1782 0.950 . S
C1803 C1802 1.373 . S
C1803 C1819 1.377 . S
C1804 C1802 1.389 . S
C1804 C1805 1.524 . S
C1804 C1818 1.377 . S
C1805 C1804 1.524 . S
C1805 C1806 1.397 . S
C1805 C1810 1.363 . S
C1806 H1783 0.950 . S
C1806 C1805 1.397 . S
C1806 C1807 1.334 . S
C1807 H1784 0.950 . S
C1807 C1806 1.334 . S
C1807 C1808 1.287 . S
C1808 C1807 1.287 . S
C1808 C1809 1.524 . S
C1808 H1827 0.913 . S
C1809 H1785 0.950 1_455 S
C1809 C1808 1.524 . S
C1809 C1810 1.415 . S
C1810 H1786 0.950 . S
C1810 C1805 1.363 . S
C1810 C1809 1.415 . S
C1811 H1787 0.951 . S
C1811 C1812 1.366 . S
C1811 C1813 1.388 . S
C1812 C1811 1.366 . S
C1812 C1816 1.385 . S
C1813 H1788 0.951 . S
C1813 C1811 1.388 . S
C1813 C1814 1.366 . S
C1814 C1813 1.366 . S
C1814 C1815 1.414 . S
C1814 C1817 1.499 . S
C1815 H1789 0.950 . S
C1815 C1814 1.414 . S
C1815 C1816 1.374 . S
C1816 H1790 0.950 . S
C1816 C1812 1.385 . S
C1816 C1815 1.374 . S
C1817 C1814 1.499 . S
C1817 C1818 1.373 . S
C1817 C1819 1.389 . S
C1818 H1791 0.950 . S
C1818 C1804 1.377 . S
C1818 C1817 1.373 . S
C1819 C1803 1.377 . S
C1819 C1817 1.389 . S
C1819 C1820 1.524 . S
C1820 C1819 1.524 . S
C1820 C1821 1.397 . S
C1820 C1825 1.363 . S
C1821 H1792 0.950 . S
C1821 C1820 1.397 . S
C1821 C1822 1.334 . S
C1822 H1793 0.950 . S
C1822 C1821 1.334 . S
C1822 C1823 1.287 . S
C1823 C1822 1.287 . S
C1823 C1824 1.524 . S
C1823 H1826 0.999 . S
C1824 H1794 0.950 . S
C1824 C1823 1.524 . S
C1824 C1825 1.415 . S
C1825 H1795 0.950 . S
C1825 C1820 1.363 . S
C1825 C1824 1.415 . S
H1826 C1823 0.999 . S
H1827 C1808 0.913 . S
H1828 C1846 0.951 . S
H1829 C1848 0.951 . S
H1830 C1850 0.950 . S
H1831 C1851 0.950 . S
H1832 C1853 0.950 . S
H1833 C1856 0.950 . S
H1834 C1857 0.950 . S
H1835 C1859 0.950 . S
H1836 C1860 0.950 . S
H1837 C1861 0.951 . S
H1838 C1863 0.951 . S
H1839 C1865 0.950 . S
H1840 C1866 0.950 . S
H1841 C1868 0.950 . S
H1842 C1871 0.950 . S
H1843 C1872 0.950 . S
H1844 C1874 0.950 . S
H1845 C1875 0.950 . S
C1846 H1828 0.951 . S
C1846 C1847 1.366 . S
C1846 C1848 1.388 . S
C1847 C1846 1.366 . S
C1847 C1851 1.385 . S
C1848 H1829 0.951 . S
C1848 C1846 1.388 . S
C1848 C1849 1.366 . S
C1849 C1848 1.366 . S
C1849 C1850 1.414 . S
C1849 C1852 1.499 . S
C1850 H1830 0.950 . S
C1850 C1849 1.414 . S
C1850 C1851 1.374 . S
C1851 H1831 0.950 . S
C1851 C1847 1.385 . S
C1851 C1850 1.374 . S
C1852 C1849 1.499 . S
C1852 C1853 1.373 . S
C1852 C1854 1.389 . S
C1853 H1832 0.950 . S
C1853 C1852 1.373 . S
C1853 C1869 1.377 . S
C1854 C1852 1.389 . S
C1854 C1855 1.524 . S
C1854 C1868 1.377 . S
C1855 C1854 1.524 . S
C1855 C1856 1.397 . S
C1855 C1860 1.363 . S
C1856 H1833 0.950 . S
C1856 C1855 1.397 . S
C1856 C1857 1.334 . S
C1857 H1834 0.950 . S
C1857 C1856 1.334 . S
C1857 C1858 1.287 . S
C1858 C1857 1.287 . S
C1858 C1859 1.524 . S
C1858 H1877 0.913 . S
C1859 H1835 0.950 . S
C1859 C1858 1.524 . S
C1859 C1860 1.415 . S
C1860 H1836 0.950 . S
C1860 C1855 1.363 . S
C1860 C1859 1.415 . S
C1861 H1837 0.951 . S
C1861 C1862 1.366 . S
C1861 C1863 1.388 . S
C1862 C1861 1.366 . S
C1862 C1866 1.385 . S
C1863 H1838 0.951 . S
C1863 C1861 1.388 . S
C1863 C1864 1.366 . S
C1864 C1863 1.366 . S
C1864 C1865 1.414 . S
C1864 C1867 1.499 . S
C1865 H1839 0.950 . S
C1865 C1864 1.414 . S
C1865 C1866 1.374 . S
C1866 H1840 0.950 . S
C1866 C1862 1.385 . S
C1866 C1865 1.374 . S
C1867 C1864 1.499 . S
C1867 C1868 1.373 . S
C1867 C1869 1.389 . S
C1868 H1841 0.950 . S
C1868 C1854 1.377 . S
C1868 C1867 1.373 . S
C1869 C1853 1.377 . S
C1869 C1867 1.389 . S
C1869 C1870 1.524 . S
C1870 C1869 1.524 . S
C1870 C1871 1.397 . S
C1870 C1875 1.363 . S
C1871 H1842 0.950 . S
C1871 C1870 1.397 . S
C1871 C1872 1.334 . S
C1872 H1843 0.950 . S
C1872 C1871 1.334 . S
C1872 C1873 1.287 . S
C1873 C1872 1.287 . S
C1873 C1874 1.524 . S
C1873 H1876 0.999 . S
C1874 H1844 0.950 . S
C1874 C1873 1.524 . S
C1874 C1875 1.415 . S
C1875 H1845 0.950 . S
C1875 C1870 1.363 . S
C1875 C1874 1.415 . S
H1876 C1873 0.999 . S
H1877 C1858 0.913 . S
H1878 C1896 0.951 . S
H1879 C1898 0.951 . S
H1880 C1900 0.950 . S
H1881 C1901 0.950 . S
H1882 C1903 0.950 . S
H1883 C1906 0.950 . S
H1884 C1907 0.950 . S
H1885 C1909 0.950 . S
H1886 C1910 0.950 . S
H1887 C1911 0.951 . S
H1888 C1913 0.951 . S
H1889 C1915 0.950 . S
H1890 C1916 0.950 . S
H1891 C1918 0.950 . S
H1892 C1921 0.950 1_455 S
H1893 C1922 0.950 . S
H1894 C1924 0.950 . S
H1895 C1925 0.950 . S
C1896 H1878 0.951 . S
C1896 C1897 1.366 . S
C1896 C1898 1.388 . S
C1897 C1896 1.366 . S
C1897 C1901 1.385 . S
C1898 H1879 0.951 . S
C1898 C1896 1.388 . S
C1898 C1899 1.366 . S
C1899 C1898 1.366 . S
C1899 C1900 1.414 . S
C1899 C1902 1.499 . S
C1900 H1880 0.950 . S
C1900 C1899 1.414 . S
C1900 C1901 1.374 . S
C1901 H1881 0.950 . S
C1901 C1897 1.385 . S
C1901 C1900 1.374 . S
C1902 C1899 1.499 . S
C1902 C1903 1.373 . S
C1902 C1904 1.389 . S
C1903 H1882 0.950 . S
C1903 C1902 1.373 . S
C1903 C1919 1.377 . S
C1904 C1902 1.389 . S
C1904 C1905 1.524 . S
C1904 C1918 1.377 . S
C1905 C1904 1.524 . S
C1905 C1906 1.397 . S
C1905 C1910 1.363 . S
C1906 H1883 0.950 . S
C1906 C1905 1.397 . S
C1906 C1907 1.334 . S
C1907 H1884 0.950 . S
C1907 C1906 1.334 . S
C1907 C1908 1.287 . S
C1908 C1907 1.287 . S
C1908 C1909 1.524 . S
C1908 H1927 0.913 . S
C1909 H1885 0.950 . S
C1909 C1908 1.524 . S
C1909 C1910 1.415 . S
C1910 H1886 0.950 . S
C1910 C1905 1.363 . S
C1910 C1909 1.415 . S
C1911 H1887 0.951 . S
C1911 C1912 1.366 . S
C1911 C1913 1.388 . S
C1912 C1911 1.366 . S
C1912 C1916 1.385 . S
C1913 H1888 0.951 . S
C1913 C1911 1.388 . S
C1913 C1914 1.366 . S
C1914 C1913 1.366 . S
C1914 C1915 1.414 . S
C1914 C1917 1.499 . S
C1915 H1889 0.950 . S
C1915 C1914 1.414 . S
C1915 C1916 1.374 . S
C1916 H1890 0.950 . S
C1916 C1912 1.385 . S
C1916 C1915 1.374 . S
C1917 C1914 1.499 . S
C1917 C1918 1.373 . S
C1917 C1919 1.389 . S
C1918 H1891 0.950 . S
C1918 C1904 1.377 . S
C1918 C1917 1.373 . S
C1919 C1903 1.377 . S
C1919 C1917 1.389 . S
C1919 C1920 1.524 . S
C1920 C1919 1.524 . S
C1920 C1921 1.397 . S
C1920 C1925 1.363 . S
C1921 H1892 0.950 1_655 S
C1921 C1920 1.397 . S
C1921 C1922 1.334 1_655 S
C1922 H1893 0.950 . S
C1922 C1921 1.334 1_455 S
C1922 C1923 1.287 . S
C1923 C1922 1.287 . S
C1923 C1924 1.524 1_455 S
C1923 H1926 0.999 . S
C1924 H1894 0.950 . S
C1924 C1923 1.524 1_655 S
C1924 C1925 1.415 . S
C1925 H1895 0.950 . S
C1925 C1920 1.363 . S
C1925 C1924 1.415 . S
H1926 C1923 0.999 . S
H1927 C1908 0.913 . S
H1928 C1946 0.951 . S
H1929 C1948 0.951 . S
H1930 C1950 0.950 . S
H1931 C1951 0.950 . S
H1932 C1953 0.950 . S
H1933 C1956 0.950 . S
H1934 C1957 0.950 . S
H1935 C1959 0.950 . S
H1936 C1960 0.950 . S
H1937 C1961 0.969 . S
H1938 C1963 0.951 . S
H1939 C1965 0.950 . S
H1940 C1966 0.950 . S
H1941 C1968 0.950 . S
H1942 C1971 0.950 . S
H1943 C1972 0.950 . S
H1944 C1974 0.950 . S
H1945 C1975 0.950 . S
C1946 H1928 0.951 . S
C1946 C1947 1.366 . S
C1946 C1948 1.388 . S
C1947 C1946 1.366 . S
C1947 C1951 1.385 . S
C1948 H1929 0.951 . S
C1948 C1946 1.388 . S
C1948 C1949 1.366 . S
C1949 C1948 1.366 . S
C1949 C1950 1.414 . S
C1949 C1952 1.499 . S
C1950 H1930 0.950 . S
C1950 C1949 1.414 . S
C1950 C1951 1.374 . S
C1951 H1931 0.950 . S
C1951 C1947 1.385 . S
C1951 C1950 1.374 . S
C1952 C1949 1.499 . S
C1952 C1953 1.373 . S
C1952 C1954 1.389 . S
C1953 H1932 0.950 . S
C1953 C1952 1.373 . S
C1953 C1969 1.377 . S
C1954 C1952 1.389 . S
C1954 C1955 1.524 . S
C1954 C1968 1.377 . S
C1955 C1954 1.524 . S
C1955 C1956 1.397 . S
C1955 C1960 1.363 . S
C1956 H1933 0.950 . S
C1956 C1955 1.397 . S
C1956 C1957 1.334 . S
C1957 H1934 0.950 . S
C1957 C1956 1.334 . S
C1957 C1958 1.287 . S
C1958 C1957 1.287 . S
C1958 C1959 1.524 . S
C1958 H1977 0.913 . S
C1959 H1935 0.950 . S
C1959 C1958 1.524 . S
C1959 C1960 1.415 . S
C1960 H1936 0.950 . S
C1960 C1955 1.363 . S
C1960 C1959 1.415 . S
C1961 H1937 0.969 . S
C1961 C1962 1.300 1_565 S
C1961 C1963 1.439 . S
C1962 C1961 1.300 1_545 S
C1962 C1966 1.385 . S
C1963 H1938 0.951 . S
C1963 C1961 1.439 . S
C1963 C1964 1.366 . S
C1964 C1963 1.366 . S
C1964 C1965 1.414 1_565 S
C1964 C1967 1.499 . S
C1965 H1939 0.950 . S
C1965 C1964 1.414 1_545 S
C1965 C1966 1.374 . S
C1966 H1940 0.950 . S
C1966 C1962 1.385 . S
C1966 C1965 1.374 . S
C1967 C1964 1.499 . S
C1967 C1968 1.373 . S
C1967 C1969 1.389 . S
C1968 H1941 0.950 . S
C1968 C1954 1.377 . S
C1968 C1967 1.373 . S
C1969 C1953 1.377 . S
C1969 C1967 1.389 . S
C1969 C1970 1.524 . S
C1970 C1969 1.524 . S
C1970 C1971 1.397 . S
C1970 C1975 1.363 . S
C1971 H1942 0.950 . S
C1971 C1970 1.397 . S
C1971 C1972 1.334 . S
C1972 H1943 0.950 . S
C1972 C1971 1.334 . S
C1972 C1973 1.287 . S
C1973 C1972 1.287 . S
C1973 C1974 1.524 . S
C1973 H1976 0.999 . S
C1974 H1944 0.950 . S
C1974 C1973 1.524 . S
C1974 C1975 1.415 . S
C1975 H1945 0.950 . S
C1975 C1970 1.363 . S
C1975 C1974 1.415 . S
H1976 C1973 0.999 . S
H1977 C1958 0.913 . S
H1978 C1996 0.951 . S
H1979 C1998 0.951 . S
H1980 C2000 0.950 . S
H1981 C2001 0.950 . S
H1982 C2003 0.950 . S
H1983 C2006 0.950 . S
H1984 C2007 0.950 . S
H1985 C2009 0.950 . S
H1986 C2010 0.950 . S
H1987 C2011 0.951 . S
H1988 C2013 0.951 . S
H1989 C2015 0.950 . S
H1990 C2016 0.950 . S
H1991 C2018 0.950 . S
H1992 C2021 0.950 . S
H1993 C2022 0.950 . S
H1994 C2024 0.950 . S
H1995 C2025 0.950 . S
C1996 H1978 0.951 . S
C1996 C1997 1.366 . S
C1996 C1998 1.388 . S
C1997 C1996 1.366 . S
C1997 C2001 1.385 . S
C1998 H1979 0.951 . S
C1998 C1996 1.388 . S
C1998 C1999 1.366 . S
C1999 C1998 1.366 . S
C1999 C2000 1.414 . S
C1999 C2002 1.499 . S
C2000 H1980 0.950 . S
C2000 C1999 1.414 . S
C2000 C2001 1.374 . S
C2001 H1981 0.950 . S
C2001 C1997 1.385 . S
C2001 C2000 1.374 . S
C2002 C1999 1.499 . S
C2002 C2003 1.373 . S
C2002 C2004 1.389 . S
C2003 H1982 0.950 . S
C2003 C2002 1.373 . S
C2003 C2019 1.377 . S
C2004 C2002 1.389 . S
C2004 C2005 1.524 . S
C2004 C2018 1.377 . S
C2005 C2004 1.524 . S
C2005 C2006 1.397 . S
C2005 C2010 1.363 . S
C2006 H1983 0.950 . S
C2006 C2005 1.397 . S
C2006 C2007 1.334 . S
C2007 H1984 0.950 . S
C2007 C2006 1.334 . S
C2007 C2008 1.287 . S
C2008 C2007 1.287 . S
C2008 C2009 1.524 . S
C2008 H2027 0.913 . S
C2009 H1985 0.950 . S
C2009 C2008 1.524 . S
C2009 C2010 1.415 . S
C2010 H1986 0.950 . S
C2010 C2005 1.363 . S
C2010 C2009 1.415 . S
C2011 H1987 0.951 . S
C2011 C2012 1.366 . S
C2011 C2013 1.388 . S
C2012 C2011 1.366 . S
C2012 C2016 1.385 . S
C2013 H1988 0.951 . S
C2013 C2011 1.388 . S
C2013 C2014 1.366 . S
C2014 C2013 1.366 . S
C2014 C2015 1.414 . S
C2014 C2017 1.499 . S
C2015 H1989 0.950 . S
C2015 C2014 1.414 . S
C2015 C2016 1.374 . S
C2016 H1990 0.950 . S
C2016 C2012 1.385 . S
C2016 C2015 1.374 . S
C2017 C2014 1.499 . S
C2017 C2018 1.373 . S
C2017 C2019 1.389 . S
C2018 H1991 0.950 . S
C2018 C2004 1.377 . S
C2018 C2017 1.373 . S
C2019 C2003 1.377 . S
C2019 C2017 1.389 . S
C2019 C2020 1.524 . S
C2020 C2019 1.524 . S
C2020 C2021 1.397 . S
C2020 C2025 1.363 . S
C2021 H1992 0.950 . S
C2021 C2020 1.397 . S
C2021 C2022 1.334 . S
C2022 H1993 0.950 . S
C2022 C2021 1.334 . S
C2022 C2023 1.287 . S
C2023 C2022 1.287 . S
C2023 C2024 1.524 . S
C2023 H2026 0.999 . S
C2024 H1994 0.950 . S
C2024 C2023 1.524 . S
C2024 C2025 1.415 . S
C2025 H1995 0.950 . S
C2025 C2020 1.363 . S
C2025 C2024 1.415 . S
H2026 C2023 0.999 . S
H2027 C2008 0.913 . S
H2028 C2046 0.951 . S
H2029 C2048 0.951 . S
H2030 C2050 0.950 . S
H2031 C2051 0.950 . S
H2032 C2053 0.950 . S
H2033 C2056 0.950 . S
H2034 C2057 0.950 . S
H2035 C2059 0.950 . S
H2036 C2060 0.950 . S
H2037 C2061 0.951 . S
H2038 C2063 0.951 . S
H2039 C2065 0.950 . S
H2040 C2066 0.950 1_556 S
H2041 C2068 0.950 . S
H2042 C2071 0.950 . S
H2043 C2072 0.969 . S
H2044 C2074 0.950 . S
H2045 C2075 0.950 . S
C2046 H2028 0.951 . S
C2046 C2047 1.366 . S
C2046 C2048 1.388 . S
C2047 C2046 1.366 . S
C2047 C2051 1.385 . S
C2048 H2029 0.951 . S
C2048 C2046 1.388 . S
C2048 C2049 1.366 . S
C2049 C2048 1.366 . S
C2049 C2050 1.414 . S
C2049 C2052 1.499 . S
C2050 H2030 0.950 . S
C2050 C2049 1.414 . S
C2050 C2051 1.374 . S
C2051 H2031 0.950 . S
C2051 C2047 1.385 . S
C2051 C2050 1.374 . S
C2052 C2049 1.499 . S
C2052 C2053 1.373 1_545 S
C2052 C2054 1.389 . S
C2053 H2032 0.950 . S
C2053 C2052 1.373 1_565 S
C2053 C2069 1.377 . S
C2054 C2052 1.389 . S
C2054 C2055 1.524 . S
C2054 C2068 1.377 1_545 S
C2055 C2054 1.524 . S
C2055 C2056 1.397 . S
C2055 C2060 1.363 . S
C2056 H2033 0.950 . S
C2056 C2055 1.397 . S
C2056 C2057 1.334 . S
C2057 H2034 0.950 . S
C2057 C2056 1.334 . S
C2057 C2058 1.287 . S
C2058 C2057 1.287 . S
C2058 C2059 1.524 . S
C2058 H2077 0.913 . S
C2059 H2035 0.950 . S
C2059 C2058 1.524 . S
C2059 C2060 1.415 . S
C2060 H2036 0.950 . S
C2060 C2055 1.363 . S
C2060 C2059 1.415 . S
C2061 H2037 0.951 . S
C2061 C2062 1.366 . S
C2061 C2063 1.388 . S
C2062 C2061 1.366 . S
C2062 C2066 1.385 . S
C2063 H2038 0.951 . S
C2063 C2061 1.388 . S
C2063 C2064 1.366 . S
C2064 C2063 1.366 . S
C2064 C2065 1.414 1_554 S
C2064 C2067 1.499 1_554 S
C2065 H2039 0.950 . S
C2065 C2064 1.414 1_556 S
C2065 C2066 1.374 1_556 S
C2066 H2040 0.950 1_554 S
C2066 C2062 1.385 . S
C2066 C2065 1.374 1_554 S
C2067 C2064 1.499 1_556 S
C2067 C2068 1.373 . S
C2067 C2069 1.389 . S
C2068 H2041 0.950 . S
C2068 C2054 1.377 1_565 S
C2068 C2067 1.373 . S
C2069 C2053 1.377 . S
C2069 C2067 1.389 . S
C2069 C2070 1.524 1_556 S
C2070 C2069 1.524 1_554 S
C2070 C2071 1.397 1_554 S
C2070 C2075 1.363 . S
C2071 H2042 0.950 . S
C2071 C2070 1.397 1_556 S
C2071 C2072 1.334 1_556 S
C2072 H2043 0.969 . S
C2072 C2071 1.334 1_554 S
C2072 C2073 1.287 . S
C2073 C2072 1.287 . S
C2073 C2074 1.524 . S
C2073 H2076 0.999 . S
C2074 H2044 0.950 . S
C2074 C2073 1.524 . S
C2074 C2075 1.415 . S
C2075 H2045 0.950 . S
C2075 C2070 1.363 . S
C2075 C2074 1.415 . S
H2076 C2073 0.999 . S
H2077 C2058 0.913 . S
H2078 C2096 0.951 . S
H2079 C2098 0.951 . S
H2080 C2100 0.950 . S
H2081 C2101 0.950 . S
H2082 C2103 0.950 . S
H2083 C2106 0.950 . S
H2084 C2107 0.950 . S
H2085 C2109 0.950 . S
H2086 C2110 0.950 . S
H2087 C2111 0.951 . S
H2088 C2113 0.951 . S
H2089 C2115 0.950 . S
H2090 C2116 0.950 . S
H2091 C2118 0.950 . S
H2092 C2121 0.950 . S
H2093 C2122 0.950 . S
H2094 C2124 0.950 . S
H2095 C2125 0.950 . S
C2096 H2078 0.951 . S
C2096 C2097 1.366 . S
C2096 C2098 1.388 . S
C2097 C2096 1.366 . S
C2097 C2101 1.385 . S
C2098 H2079 0.951 . S
C2098 C2096 1.388 . S
C2098 C2099 1.366 . S
C2099 C2098 1.366 . S
C2099 C2100 1.414 . S
C2099 C2102 1.499 . S
C2100 H2080 0.950 . S
C2100 C2099 1.414 . S
C2100 C2101 1.374 . S
C2101 H2081 0.950 . S
C2101 C2097 1.385 . S
C2101 C2100 1.374 . S
C2102 C2099 1.499 . S
C2102 C2103 1.373 . S
C2102 C2104 1.389 . S
C2103 H2082 0.950 . S
C2103 C2102 1.373 . S
C2103 C2119 1.377 . S
C2104 C2102 1.389 . S
C2104 C2105 1.524 . S
C2104 C2118 1.377 . S
C2105 C2104 1.524 . S
C2105 C2106 1.397 . S
C2105 C2110 1.363 . S
C2106 H2083 0.950 . S
C2106 C2105 1.397 . S
C2106 C2107 1.334 . S
C2107 H2084 0.950 . S
C2107 C2106 1.334 . S
C2107 C2108 1.287 . S
C2108 C2107 1.287 . S
C2108 C2109 1.524 . S
C2108 H2127 0.913 . S
C2109 H2085 0.950 . S
C2109 C2108 1.524 . S
C2109 C2110 1.415 . S
C2110 H2086 0.950 . S
C2110 C2105 1.363 . S
C2110 C2109 1.415 . S
C2111 H2087 0.951 . S
C2111 C2112 1.366 . S
C2111 C2113 1.388 . S
C2112 C2111 1.366 . S
C2112 C2116 1.385 . S
C2113 H2088 0.951 . S
C2113 C2111 1.388 . S
C2113 C2114 1.366 . S
C2114 C2113 1.366 . S
C2114 C2115 1.414 . S
C2114 C2117 1.499 . S
C2115 H2089 0.950 . S
C2115 C2114 1.414 . S
C2115 C2116 1.374 . S
C2116 H2090 0.950 . S
C2116 C2112 1.385 . S
C2116 C2115 1.374 . S
C2117 C2114 1.499 . S
C2117 C2118 1.373 . S
C2117 C2119 1.389 . S
C2118 H2091 0.950 . S
C2118 C2104 1.377 . S
C2118 C2117 1.373 . S
C2119 C2103 1.377 . S
C2119 C2117 1.389 . S
C2119 C2120 1.524 . S
C2120 C2119 1.524 . S
C2120 C2121 1.397 . S
C2120 C2125 1.363 . S
C2121 H2092 0.950 . S
C2121 C2120 1.397 . S
C2121 C2122 1.334 . S
C2122 H2093 0.950 . S
C2122 C2121 1.334 . S
C2122 C2123 1.287 . S
C2123 C2122 1.287 . S
C2123 C2124 1.524 . S
C2123 H2126 0.999 . S
C2124 H2094 0.950 . S
C2124 C2123 1.524 . S
C2124 C2125 1.415 . S
C2125 H2095 0.950 . S
C2125 C2120 1.363 . S
C2125 C2124 1.415 . S
H2126 C2123 0.999 . S
H2127 C2108 0.913 . S
H2128 C2146 0.951 1_565 S
H2129 C2148 0.951 . S
H2130 C2150 0.950 . S
H2131 C2151 0.950 . S
H2132 C2153 0.950 . S
H2133 C2156 0.950 . S
H2134 C2157 0.950 . S
H2135 C2159 0.950 . S
H2136 C2160 0.950 . S
H2137 C2161 0.951 . S
H2138 C2163 0.951 . S
H2139 C2165 0.950 . S
H2140 C2166 0.950 . S
H2141 C2168 0.950 . S
H2142 C2171 0.950 . S
H2143 C2172 0.950 . S
H2144 C2174 0.950 . S
H2145 C2175 0.950 . S
C2146 H2128 0.951 1_545 S
C2146 C2147 1.366 . S
C2146 C2148 1.388 . S
C2147 C2146 1.366 . S
C2147 C2151 1.385 . S
C2148 H2129 0.951 . S
C2148 C2146 1.388 . S
C2148 C2149 1.366 . S
C2149 C2148 1.366 . S
C2149 C2150 1.414 . S
C2149 C2152 1.499 . S
C2150 H2130 0.950 . S
C2150 C2149 1.414 . S
C2150 C2151 1.374 . S
C2151 H2131 0.950 . S
C2151 C2147 1.385 . S
C2151 C2150 1.374 . S
C2152 C2149 1.499 . S
C2152 C2153 1.373 . S
C2152 C2154 1.389 . S
C2153 H2132 0.950 . S
C2153 C2152 1.373 . S
C2153 C2169 1.377 . S
C2154 C2152 1.389 . S
C2154 C2155 1.524 . S
C2154 C2168 1.377 . S
C2155 C2154 1.524 . S
C2155 C2156 1.397 . S
C2155 C2160 1.363 . S
C2156 H2133 0.950 . S
C2156 C2155 1.397 . S
C2156 C2157 1.334 . S
C2157 H2134 0.950 . S
C2157 C2156 1.334 . S
C2157 C2158 1.287 . S
C2158 C2157 1.287 . S
C2158 C2159 1.524 . S
C2158 H2177 0.913 . S
C2159 H2135 0.950 . S
C2159 C2158 1.524 . S
C2159 C2160 1.415 . S
C2160 H2136 0.950 . S
C2160 C2155 1.363 . S
C2160 C2159 1.415 . S
C2161 H2137 0.951 . S
C2161 C2162 1.366 . S
C2161 C2163 1.388 . S
C2162 C2161 1.366 . S
C2162 C2166 1.385 . S
C2163 H2138 0.951 . S
C2163 C2161 1.388 . S
C2163 C2164 1.366 . S
C2164 C2163 1.366 . S
C2164 C2165 1.414 . S
C2164 C2167 1.499 . S
C2165 H2139 0.950 . S
C2165 C2164 1.414 . S
C2165 C2166 1.374 . S
C2166 H2140 0.950 . S
C2166 C2162 1.385 . S
C2166 C2165 1.374 . S
C2167 C2164 1.499 . S
C2167 C2168 1.373 . S
C2167 C2169 1.389 . S
C2168 H2141 0.950 . S
C2168 C2154 1.377 . S
C2168 C2167 1.373 . S
C2169 C2153 1.377 . S
C2169 C2167 1.389 . S
C2169 C2170 1.524 . S
C2170 C2169 1.524 . S
C2170 C2171 1.397 . S
C2170 C2175 1.363 . S
C2171 H2142 0.950 . S
C2171 C2170 1.397 . S
C2171 C2172 1.334 . S
C2172 H2143 0.950 . S
C2172 C2171 1.334 . S
C2172 C2173 1.287 . S
C2173 C2172 1.287 . S
C2173 C2174 1.524 . S
C2173 H2176 0.999 . S
C2174 H2144 0.950 . S
C2174 C2173 1.524 . S
C2174 C2175 1.415 . S
C2175 H2145 0.950 . S
C2175 C2170 1.363 . S
C2175 C2174 1.415 . S
H2176 C2173 0.999 . S
H2177 C2158 0.913 . S
H2178 C2196 0.951 . S
H2179 C2198 0.951 . S
H2180 C2200 0.950 . S
H2181 C2201 0.950 . S
H2182 C2203 0.950 . S
H2183 C2206 0.950 . S
H2184 C2207 0.950 . S
H2185 C2209 0.950 . S
H2186 C2210 0.950 . S
H2187 C2211 0.951 . S
H2188 C2213 0.951 . S
H2189 C2215 0.950 . S
H2190 C2216 0.950 . S
H2191 C2218 0.950 . S
H2192 C2221 0.950 . S
H2193 C2222 0.950 . S
H2194 C2224 0.950 . S
H2195 C2225 0.950 . S
C2196 H2178 0.951 . S
C2196 C2197 1.366 . S
C2196 C2198 1.388 . S
C2197 C2196 1.366 . S
C2197 C2201 1.385 . S
C2198 H2179 0.951 . S
C2198 C2196 1.388 . S
C2198 C2199 1.366 . S
C2199 C2198 1.366 . S
C2199 C2200 1.414 . S
C2199 C2202 1.499 . S
C2200 H2180 0.950 . S
C2200 C2199 1.414 . S
C2200 C2201 1.374 . S
C2201 H2181 0.950 . S
C2201 C2197 1.385 . S
C2201 C2200 1.374 . S
C2202 C2199 1.499 . S
C2202 C2203 1.373 . S
C2202 C2204 1.389 . S
C2203 H2182 0.950 . S
C2203 C2202 1.373 . S
C2203 C2219 1.377 . S
C2204 C2202 1.389 . S
C2204 C2205 1.524 . S
C2204 C2218 1.377 . S
C2205 C2204 1.524 . S
C2205 C2206 1.397 . S
C2205 C2210 1.363 . S
C2206 H2183 0.950 . S
C2206 C2205 1.397 . S
C2206 C2207 1.334 . S
C2207 H2184 0.950 . S
C2207 C2206 1.334 . S
C2207 C2208 1.287 . S
C2208 C2207 1.287 . S
C2208 C2209 1.524 . S
C2208 H2227 0.913 . S
C2209 H2185 0.950 . S
C2209 C2208 1.524 . S
C2209 C2210 1.415 . S
C2210 H2186 0.950 . S
C2210 C2205 1.363 . S
C2210 C2209 1.415 . S
C2211 H2187 0.951 . S
C2211 C2212 1.366 . S
C2211 C2213 1.388 . S
C2212 C2211 1.366 . S
C2212 C2216 1.385 . S
C2213 H2188 0.951 . S
C2213 C2211 1.388 . S
C2213 C2214 1.366 . S
C2214 C2213 1.366 . S
C2214 C2215 1.414 . S
C2214 C2217 1.499 . S
C2215 H2189 0.950 . S
C2215 C2214 1.414 . S
C2215 C2216 1.374 . S
C2216 H2190 0.950 . S
C2216 C2212 1.385 . S
C2216 C2215 1.374 . S
C2217 C2214 1.499 . S
C2217 C2218 1.373 . S
C2217 C2219 1.389 . S
C2218 H2191 0.950 . S
C2218 C2204 1.377 . S
C2218 C2217 1.373 . S
C2219 C2203 1.377 . S
C2219 C2217 1.389 . S
C2219 C2220 1.524 . S
C2220 C2219 1.524 . S
C2220 C2221 1.397 . S
C2220 C2225 1.363 . S
C2221 H2192 0.950 . S
C2221 C2220 1.397 . S
C2221 C2222 1.334 . S
C2222 H2193 0.950 . S
C2222 C2221 1.334 . S
C2222 C2223 1.287 . S
C2223 C2222 1.287 . S
C2223 C2224 1.524 . S
C2223 H2226 0.999 . S
C2224 H2194 0.950 . S
C2224 C2223 1.524 . S
C2224 C2225 1.415 . S
C2225 H2195 0.950 . S
C2225 C2220 1.363 . S
C2225 C2224 1.415 . S
H2226 C2223 0.999 . S
H2227 C2208 0.913 . S
H2228 C2246 0.951 . S
H2229 C2248 0.951 . S
H2230 C2250 0.950 . S
H2231 C2251 0.950 . S
H2232 C2253 0.950 . S
H2233 C2256 0.960 . S
H2234 C2257 0.950 . S
H2235 C2259 0.950 . S
H2236 C2260 0.950 . S
H2237 C2261 0.951 . S
H2238 C2263 0.951 . S
H2239 C2265 0.950 . S
H2240 C2266 0.950 . S
H2241 C2268 0.950 . S
H2242 C2271 0.950 . S
H2243 C2272 0.950 . S
H2244 C2274 0.950 . S
H2245 C2275 0.950 . S
C2246 H2228 0.951 . S
C2246 C2247 1.366 . S
C2246 C2248 1.388 1_565 S
C2247 C2246 1.366 . S
C2247 C2251 1.385 . S
C2248 H2229 0.951 . S
C2248 C2246 1.388 1_545 S
C2248 C2249 1.366 . S
C2249 C2248 1.366 . S
C2249 C2250 1.414 . S
C2249 C2252 1.499 . S
C2250 H2230 0.950 . S
C2250 C2249 1.414 . S
C2250 C2251 1.374 1_545 S
C2251 H2231 0.950 . S
C2251 C2247 1.385 . S
C2251 C2250 1.374 1_565 S
C2252 C2249 1.499 . S
C2252 C2253 1.373 . S
C2252 C2254 1.389 . S
C2253 H2232 0.950 . S
C2253 C2252 1.373 . S
C2253 C2269 1.377 . S
C2254 C2252 1.389 . S
C2254 C2255 1.524 . S
C2254 C2268 1.377 . S
C2255 C2254 1.524 . S
C2255 C2256 1.337 1_545 S
C2255 C2260 1.363 . S
C2256 H2233 0.960 . S
C2256 C2255 1.337 1_565 S
C2256 C2257 1.388 . S
C2257 H2234 0.950 . S
C2257 C2256 1.388 . S
C2257 C2258 1.287 . S
C2258 C2257 1.287 . S
C2258 C2259 1.524 1_565 S
C2258 H2277 0.913 . S
C2259 H2235 0.950 . S
C2259 C2258 1.524 1_545 S
C2259 C2260 1.415 . S
C2260 H2236 0.950 . S
C2260 C2255 1.363 . S
C2260 C2259 1.415 . S
C2261 H2237 0.951 . S
C2261 C2262 1.366 . S
C2261 C2263 1.388 . S
C2262 C2261 1.366 . S
C2262 C2266 1.385 . S
C2263 H2238 0.951 . S
C2263 C2261 1.388 . S
C2263 C2264 1.366 . S
C2264 C2263 1.366 . S
C2264 C2265 1.414 . S
C2264 C2267 1.499 . S
C2265 H2239 0.950 . S
C2265 C2264 1.414 . S
C2265 C2266 1.374 . S
C2266 H2240 0.950 . S
C2266 C2262 1.385 . S
C2266 C2265 1.374 . S
C2267 C2264 1.499 . S
C2267 C2268 1.373 . S
C2267 C2269 1.389 . S
C2268 H2241 0.950 . S
C2268 C2254 1.377 . S
C2268 C2267 1.373 . S
C2269 C2253 1.377 . S
C2269 C2267 1.389 . S
C2269 C2270 1.524 . S
C2270 C2269 1.524 . S
C2270 C2271 1.397 . S
C2270 C2275 1.363 . S
C2271 H2242 0.950 . S
C2271 C2270 1.397 . S
C2271 C2272 1.334 . S
C2272 H2243 0.950 . S
C2272 C2271 1.334 . S
C2272 C2273 1.287 . S
C2273 C2272 1.287 . S
C2273 C2274 1.524 . S
C2273 H2276 0.999 . S
C2274 H2244 0.950 . S
C2274 C2273 1.524 . S
C2274 C2275 1.415 . S
C2275 H2245 0.950 . S
C2275 C2270 1.363 . S
C2275 C2274 1.415 . S
H2276 C2273 0.999 . S
H2277 C2258 0.913 . S
H2278 C2296 0.951 . S
H2279 C2298 0.951 . S
H2280 C2300 0.950 . S
H2281 C2301 0.950 . S
H2282 C2303 0.950 . S
H2283 C2306 0.950 . S
H2284 C2307 0.950 . S
H2285 C2309 0.950 . S
H2286 C2310 0.950 . S
H2287 C2311 0.951 . S
H2288 C2313 0.951 . S
H2289 C2315 0.950 . S
H2290 C2316 0.950 . S
H2291 C2318 0.950 . S
H2292 C2321 0.950 . S
H2293 C2322 0.950 . S
H2294 C2324 0.950 . S
H2295 C2325 0.950 . S
C2296 H2278 0.951 . S
C2296 C2297 1.366 . S
C2296 C2298 1.388 . S
C2297 C2296 1.366 . S
C2297 C2301 1.385 . S
C2298 H2279 0.951 . S
C2298 C2296 1.388 . S
C2298 C2299 1.366 . S
C2299 C2298 1.366 . S
C2299 C2300 1.414 . S
C2299 C2302 1.499 . S
C2300 H2280 0.950 . S
C2300 C2299 1.414 . S
C2300 C2301 1.374 . S
C2301 H2281 0.950 . S
C2301 C2297 1.385 . S
C2301 C2300 1.374 . S
C2302 C2299 1.499 . S
C2302 C2303 1.373 . S
C2302 C2304 1.389 . S
C2303 H2282 0.950 . S
C2303 C2302 1.373 . S
C2303 C2319 1.377 . S
C2304 C2302 1.389 . S
C2304 C2305 1.524 . S
C2304 C2318 1.377 . S
C2305 C2304 1.524 . S
C2305 C2306 1.397 . S
C2305 C2310 1.363 . S
C2306 H2283 0.950 . S
C2306 C2305 1.397 . S
C2306 C2307 1.334 . S
C2307 H2284 0.950 . S
C2307 C2306 1.334 . S
C2307 C2308 1.287 . S
C2308 C2307 1.287 . S
C2308 C2309 1.524 . S
C2308 H2327 0.913 . S
C2309 H2285 0.950 . S
C2309 C2308 1.524 . S
C2309 C2310 1.415 . S
C2310 H2286 0.950 . S
C2310 C2305 1.363 . S
C2310 C2309 1.415 . S
C2311 H2287 0.951 . S
C2311 C2312 1.366 . S
C2311 C2313 1.388 . S
C2312 C2311 1.366 . S
C2312 C2316 1.385 . S
C2313 H2288 0.951 . S
C2313 C2311 1.388 . S
C2313 C2314 1.366 . S
C2314 C2313 1.366 . S
C2314 C2315 1.414 . S
C2314 C2317 1.499 . S
C2315 H2289 0.950 . S
C2315 C2314 1.414 . S
C2315 C2316 1.374 . S
C2316 H2290 0.950 . S
C2316 C2312 1.385 . S
C2316 C2315 1.374 . S
C2317 C2314 1.499 . S
C2317 C2318 1.373 . S
C2317 C2319 1.389 . S
C2318 H2291 0.950 . S
C2318 C2304 1.377 . S
C2318 C2317 1.373 . S
C2319 C2303 1.377 . S
C2319 C2317 1.389 . S
C2319 C2320 1.524 . S
C2320 C2319 1.524 . S
C2320 C2321 1.397 . S
C2320 C2325 1.363 . S
C2321 H2292 0.950 . S
C2321 C2320 1.397 . S
C2321 C2322 1.334 . S
C2322 H2293 0.950 . S
C2322 C2321 1.334 . S
C2322 C2323 1.287 . S
C2323 C2322 1.287 . S
C2323 C2324 1.524 . S
C2323 H2326 0.999 . S
C2324 H2294 0.950 . S
C2324 C2323 1.524 . S
C2324 C2325 1.415 . S
C2325 H2295 0.950 . S
C2325 C2320 1.363 . S
C2325 C2324 1.415 . S
H2326 C2323 0.999 . S
H2327 C2308 0.913 . S
H2328 C2346 0.951 . S
H2329 C2348 0.951 . S
H2330 C2350 0.950 . S
H2331 C2351 0.950 . S
H2332 C2353 0.950 . S
H2333 C2356 0.950 . S
H2334 C2357 0.950 . S
H2335 C2359 0.950 . S
H2336 C2360 0.950 . S
H2337 C2361 0.951 . S
H2338 C2363 0.951 . S
H2339 C2365 0.950 . S
H2340 C2366 0.950 . S
H2341 C2368 0.950 . S
H2342 C2371 0.950 . S
H2343 C2372 0.950 . S
H2344 C2374 0.950 . S
H2345 C2375 0.950 . S
C2346 H2328 0.951 . S
C2346 C2347 1.366 . S
C2346 C2348 1.388 . S
C2347 C2346 1.366 . S
C2347 C2351 1.385 . S
C2348 H2329 0.951 . S
C2348 C2346 1.388 . S
C2348 C2349 1.366 . S
C2349 C2348 1.366 . S
C2349 C2350 1.414 . S
C2349 C2352 1.499 . S
C2350 H2330 0.950 . S
C2350 C2349 1.414 . S
C2350 C2351 1.374 . S
C2351 H2331 0.950 . S
C2351 C2347 1.385 . S
C2351 C2350 1.374 . S
C2352 C2349 1.499 . S
C2352 C2353 1.373 . S
C2352 C2354 1.389 . S
C2353 H2332 0.950 . S
C2353 C2352 1.373 . S
C2353 C2369 1.377 . S
C2354 C2352 1.389 . S
C2354 C2355 1.524 . S
C2354 C2368 1.377 . S
C2355 C2354 1.524 . S
C2355 C2356 1.397 . S
C2355 C2360 1.363 . S
C2356 H2333 0.950 . S
C2356 C2355 1.397 . S
C2356 C2357 1.334 . S
C2357 H2334 0.950 . S
C2357 C2356 1.334 . S
C2357 C2358 1.287 . S
C2358 C2357 1.287 . S
C2358 C2359 1.524 . S
C2358 H2377 0.913 . S
C2359 H2335 0.950 . S
C2359 C2358 1.524 . S
C2359 C2360 1.415 . S
C2360 H2336 0.950 . S
C2360 C2355 1.363 . S
C2360 C2359 1.415 . S
C2361 H2337 0.951 . S
C2361 C2362 1.366 . S
C2361 C2363 1.388 . S
C2362 C2361 1.366 . S
C2362 C2366 1.385 . S
C2363 H2338 0.951 . S
C2363 C2361 1.388 . S
C2363 C2364 1.366 . S
C2364 C2363 1.366 . S
C2364 C2365 1.414 . S
C2364 C2367 1.499 . S
C2365 H2339 0.950 . S
C2365 C2364 1.414 . S
C2365 C2366 1.374 . S
C2366 H2340 0.950 . S
C2366 C2362 1.385 . S
C2366 C2365 1.374 . S
C2367 C2364 1.499 . S
C2367 C2368 1.373 . S
C2367 C2369 1.389 . S
C2368 H2341 0.950 . S
C2368 C2354 1.377 . S
C2368 C2367 1.373 . S
C2369 C2353 1.377 . S
C2369 C2367 1.389 . S
C2369 C2370 1.524 . S
C2370 C2369 1.524 . S
C2370 C2371 1.397 . S
C2370 C2375 1.363 . S
C2371 H2342 0.950 . S
C2371 C2370 1.397 . S
C2371 C2372 1.334 . S
C2372 H2343 0.950 . S
C2372 C2371 1.334 . S
C2372 C2373 1.287 . S
C2373 C2372 1.287 . S
C2373 C2374 1.524 . S
C2373 H2376 0.999 . S
C2374 H2344 0.950 . S
C2374 C2373 1.524 . S
C2374 C2375 1.415 . S
C2375 H2345 0.950 . S
C2375 C2370 1.363 . S
C2375 C2374 1.415 . S
H2376 C2373 0.999 . S
H2377 C2358 0.913 . S
H2378 C2396 0.951 . S
H2379 C2398 0.951 . S
H2380 C2400 0.950 . S
H2381 C2401 0.950 . S
H2382 C2403 0.950 . S
H2383 C2406 0.950 . S
H2384 C2407 0.950 . S
H2385 C2409 0.950 . S
H2386 C2410 0.950 . S
H2387 C2411 0.951 . S
H2388 C2413 0.951 . S
H2389 C2415 0.950 . S
H2390 C2416 0.950 . S
H2391 C2418 0.950 . S
H2392 C2421 0.950 . S
H2393 C2422 0.950 . S
H2394 C2424 0.950 . S
H2395 C2425 0.950 . S
C2396 H2378 0.951 . S
C2396 C2397 1.366 . S
C2396 C2398 1.388 . S
C2397 C2396 1.366 . S
C2397 C2401 1.385 . S
C2398 H2379 0.951 . S
C2398 C2396 1.388 . S
C2398 C2399 1.366 . S
C2399 C2398 1.366 . S
C2399 C2400 1.414 . S
C2399 C2402 1.499 . S
C2400 H2380 0.950 . S
C2400 C2399 1.414 . S
C2400 C2401 1.374 . S
C2401 H2381 0.950 . S
C2401 C2397 1.385 . S
C2401 C2400 1.374 . S
C2402 C2399 1.499 . S
C2402 C2403 1.373 . S
C2402 C2404 1.389 . S
C2403 H2382 0.950 . S
C2403 C2402 1.373 . S
C2403 C2419 1.377 . S
C2404 C2402 1.389 . S
C2404 C2405 1.524 . S
C2404 C2418 1.377 . S
C2405 C2404 1.524 . S
C2405 C2406 1.397 . S
C2405 C2410 1.363 . S
C2406 H2383 0.950 . S
C2406 C2405 1.397 . S
C2406 C2407 1.334 . S
C2407 H2384 0.950 . S
C2407 C2406 1.334 . S
C2407 C2408 1.287 . S
C2408 C2407 1.287 . S
C2408 C2409 1.524 . S
C2408 H2427 0.913 . S
C2409 H2385 0.950 . S
C2409 C2408 1.524 . S
C2409 C2410 1.415 . S
C2410 H2386 0.950 . S
C2410 C2405 1.363 . S
C2410 C2409 1.415 . S
C2411 H2387 0.951 . S
C2411 C2412 1.366 . S
C2411 C2413 1.388 . S
C2412 C2411 1.366 . S
C2412 C2416 1.385 . S
C2413 H2388 0.951 . S
C2413 C2411 1.388 . S
C2413 C2414 1.366 . S
C2414 C2413 1.366 . S
C2414 C2415 1.414 . S
C2414 C2417 1.499 . S
C2415 H2389 0.950 . S
C2415 C2414 1.414 . S
C2415 C2416 1.374 . S
C2416 H2390 0.950 . S
C2416 C2412 1.385 . S
C2416 C2415 1.374 . S
C2417 C2414 1.499 . S
C2417 C2418 1.373 . S
C2417 C2419 1.389 . S
C2418 H2391 0.950 . S
C2418 C2404 1.377 . S
C2418 C2417 1.373 . S
C2419 C2403 1.377 . S
C2419 C2417 1.389 . S
C2419 C2420 1.524 . S
C2420 C2419 1.524 . S
C2420 C2421 1.397 . S
C2420 C2425 1.363 . S
C2421 H2392 0.950 . S
C2421 C2420 1.397 . S
C2421 C2422 1.334 1_545 S
C2422 H2393 0.950 . S
C2422 C2421 1.334 1_565 S
C2422 C2423 1.287 . S
C2423 C2422 1.287 . S
C2423 C2424 1.524 . S
C2423 H2426 0.999 . S
C2424 H2394 0.950 . S
C2424 C2423 1.524 . S
C2424 C2425 1.415 1_565 S
C2425 H2395 0.950 . S
C2425 C2420 1.363 . S
C2425 C2424 1.415 1_545 S
H2426 C2423 0.999 . S
H2427 C2408 0.913 . S
H2428 C2446 0.951 . S
H2429 C2448 0.951 . S
H2430 C2450 0.950 . S
H2431 C2451 0.950 . S
H2432 C2453 0.950 . S
H2433 C2456 0.950 . S
H2434 C2457 0.950 . S
H2435 C2459 0.950 . S
H2436 C2460 0.950 . S
H2437 C2461 0.951 . S
H2438 C2463 0.951 . S
H2439 C2465 0.950 . S
H2440 C2466 0.950 . S
H2441 C2468 0.950 . S
H2442 C2471 0.950 . S
H2443 C2472 0.950 . S
H2444 C2474 0.950 . S
H2445 C2475 0.950 . S
C2446 H2428 0.951 . S
C2446 C2447 1.366 . S
C2446 C2448 1.388 . S
C2447 C2446 1.366 . S
C2447 C2451 1.385 . S
C2448 H2429 0.951 . S
C2448 C2446 1.388 . S
C2448 C2449 1.366 . S
C2449 C2448 1.366 . S
C2449 C2450 1.414 . S
C2449 C2452 1.499 . S
C2450 H2430 0.950 . S
C2450 C2449 1.414 . S
C2450 C2451 1.374 . S
C2451 H2431 0.950 . S
C2451 C2447 1.385 . S
C2451 C2450 1.374 . S
C2452 C2449 1.499 . S
C2452 C2453 1.373 . S
C2452 C2454 1.389 . S
C2453 H2432 0.950 . S
C2453 C2452 1.373 . S
C2453 C2469 1.377 . S
C2454 C2452 1.389 . S
C2454 C2455 1.524 . S
C2454 C2468 1.377 . S
C2455 C2454 1.524 . S
C2455 C2456 1.397 . S
C2455 C2460 1.363 . S
C2456 H2433 0.950 . S
C2456 C2455 1.397 . S
C2456 C2457 1.334 . S
C2457 H2434 0.950 . S
C2457 C2456 1.334 . S
C2457 C2458 1.287 . S
C2458 C2457 1.287 . S
C2458 C2459 1.524 . S
C2458 H2477 0.913 . S
C2459 H2435 0.950 . S
C2459 C2458 1.524 . S
C2459 C2460 1.415 . S
C2460 H2436 0.950 . S
C2460 C2455 1.363 . S
C2460 C2459 1.415 . S
C2461 H2437 0.951 . S
C2461 C2462 1.366 . S
C2461 C2463 1.388 . S
C2462 C2461 1.366 . S
C2462 C2466 1.385 . S
C2463 H2438 0.951 . S
C2463 C2461 1.388 . S
C2463 C2464 1.366 . S
C2464 C2463 1.366 . S
C2464 C2465 1.414 . S
C2464 C2467 1.499 . S
C2465 H2439 0.950 . S
C2465 C2464 1.414 . S
C2465 C2466 1.374 . S
C2466 H2440 0.950 . S
C2466 C2462 1.385 . S
C2466 C2465 1.374 . S
C2467 C2464 1.499 . S
C2467 C2468 1.373 . S
C2467 C2469 1.389 . S
C2468 H2441 0.950 . S
C2468 C2454 1.377 . S
C2468 C2467 1.373 . S
C2469 C2453 1.377 . S
C2469 C2467 1.389 . S
C2469 C2470 1.524 . S
C2470 C2469 1.524 . S
C2470 C2471 1.397 . S
C2470 C2475 1.363 . S
C2471 H2442 0.950 . S
C2471 C2470 1.397 . S
C2471 C2472 1.334 . S
C2472 H2443 0.950 . S
C2472 C2471 1.334 . S
C2472 C2473 1.287 . S
C2473 C2472 1.287 . S
C2473 C2474 1.524 . S
C2473 H2476 0.999 . S
C2474 H2444 0.950 . S
C2474 C2473 1.524 . S
C2474 C2475 1.415 . S
C2475 H2445 0.950 . S
C2475 C2470 1.363 . S
C2475 C2474 1.415 . S
H2476 C2473 0.999 . S
H2477 C2458 0.913 . S
H2478 C2496 0.951 . S
H2479 C2498 0.951 . S
H2480 C2500 0.950 . S
H2481 C2501 0.950 . S
H2482 C2503 0.950 . S
H2483 C2506 0.950 . S
H2484 C2507 0.950 . S
H2485 C2509 0.950 . S
H2486 C2510 0.950 . S
H2487 C2511 0.951 . S
H2488 C2513 0.951 . S
H2489 C2515 0.950 . S
H2490 C2516 0.950 . S
H2491 C2518 0.950 . S
H2492 C2521 0.950 . S
H2493 C2522 0.950 . S
H2494 C2524 0.950 . S
H2495 C2525 0.950 . S
C2496 H2478 0.951 . S
C2496 C2497 1.366 . S
C2496 C2498 1.388 . S
C2497 C2496 1.366 . S
C2497 C2501 1.385 . S
C2498 H2479 0.951 . S
C2498 C2496 1.388 . S
C2498 C2499 1.366 . S
C2499 C2498 1.366 . S
C2499 C2500 1.414 . S
C2499 C2502 1.499 . S
C2500 H2480 0.950 . S
C2500 C2499 1.414 . S
C2500 C2501 1.374 . S
C2501 H2481 0.950 . S
C2501 C2497 1.385 . S
C2501 C2500 1.374 . S
C2502 C2499 1.499 . S
C2502 C2503 1.373 . S
C2502 C2504 1.389 . S
C2503 H2482 0.950 . S
C2503 C2502 1.373 . S
C2503 C2519 1.377 . S
C2504 C2502 1.389 . S
C2504 C2505 1.524 . S
C2504 C2518 1.377 . S
C2505 C2504 1.524 . S
C2505 C2506 1.397 . S
C2505 C2510 1.363 . S
C2506 H2483 0.950 . S
C2506 C2505 1.397 . S
C2506 C2507 1.334 . S
C2507 H2484 0.950 . S
C2507 C2506 1.334 . S
C2507 C2508 1.287 . S
C2508 C2507 1.287 . S
C2508 C2509 1.524 . S
C2508 H2527 0.913 . S
C2509 H2485 0.950 . S
C2509 C2508 1.524 . S
C2509 C2510 1.415 . S
C2510 H2486 0.950 . S
C2510 C2505 1.363 . S
C2510 C2509 1.415 . S
C2511 H2487 0.951 . S
C2511 C2512 1.366 . S
C2511 C2513 1.388 . S
C2512 C2511 1.366 . S
C2512 C2516 1.385 . S
C2513 H2488 0.951 . S
C2513 C2511 1.388 . S
C2513 C2514 1.366 . S
C2514 C2513 1.366 . S
C2514 C2515 1.414 . S
C2514 C2517 1.499 . S
C2515 H2489 0.950 . S
C2515 C2514 1.414 . S
C2515 C2516 1.374 . S
C2516 H2490 0.950 . S
C2516 C2512 1.385 . S
C2516 C2515 1.374 . S
C2517 C2514 1.499 . S
C2517 C2518 1.373 . S
C2517 C2519 1.389 . S
C2518 H2491 0.950 . S
C2518 C2504 1.377 . S
C2518 C2517 1.373 . S
C2519 C2503 1.377 . S
C2519 C2517 1.389 . S
C2519 C2520 1.524 . S
C2520 C2519 1.524 . S
C2520 C2521 1.397 . S
C2520 C2525 1.363 . S
C2521 H2492 0.950 . S
C2521 C2520 1.397 . S
C2521 C2522 1.334 . S
C2522 H2493 0.950 . S
C2522 C2521 1.334 . S
C2522 C2523 1.287 . S
C2523 C2522 1.287 . S
C2523 C2524 1.524 . S
C2523 H2526 0.999 . S
C2524 H2494 0.950 . S
C2524 C2523 1.524 . S
C2524 C2525 1.415 . S
C2525 H2495 0.950 . S
C2525 C2520 1.363 . S
C2525 C2524 1.415 . S
H2526 C2523 0.999 . S
H2527 C2508 0.913 . S
H2528 C2546 0.951 . S
H2529 C2548 0.951 . S
H2530 C2550 0.950 . S
H2531 C2551 0.950 . S
H2532 C2553 0.950 . S
H2533 C2556 0.950 . S
H2534 C2557 0.950 . S
H2535 C2559 0.950 . S
H2536 C2560 0.950 . S
H2537 C2561 0.951 . S
H2538 C2563 0.951 . S
H2539 C2565 0.950 . S
H2540 C2566 0.950 . S
H2541 C2568 0.950 . S
H2542 C2571 0.950 . S
H2543 C2572 0.950 . S
H2544 C2574 0.950 . S
H2545 C2575 0.950 . S
C2546 H2528 0.951 . S
C2546 C2547 1.366 . S
C2546 C2548 1.388 . S
C2547 C2546 1.366 . S
C2547 C2551 1.385 . S
C2548 H2529 0.951 . S
C2548 C2546 1.388 . S
C2548 C2549 1.366 . S
C2549 C2548 1.366 . S
C2549 C2550 1.414 . S
C2549 C2552 1.499 . S
C2550 H2530 0.950 . S
C2550 C2549 1.414 . S
C2550 C2551 1.374 . S
C2551 H2531 0.950 . S
C2551 C2547 1.385 . S
C2551 C2550 1.374 . S
C2552 C2549 1.499 . S
C2552 C2553 1.373 . S
C2552 C2554 1.389 . S
C2553 H2532 0.950 . S
C2553 C2552 1.373 . S
C2553 C2569 1.377 . S
C2554 C2552 1.389 . S
C2554 C2555 1.524 . S
C2554 C2568 1.377 . S
C2555 C2554 1.524 . S
C2555 C2556 1.397 . S
C2555 C2560 1.363 . S
C2556 H2533 0.950 . S
C2556 C2555 1.397 . S
C2556 C2557 1.334 . S
C2557 H2534 0.950 . S
C2557 C2556 1.334 . S
C2557 C2558 1.287 . S
C2558 C2557 1.287 . S
C2558 C2559 1.524 . S
C2558 H2577 0.913 . S
C2559 H2535 0.950 . S
C2559 C2558 1.524 . S
C2559 C2560 1.415 . S
C2560 H2536 0.950 . S
C2560 C2555 1.363 . S
C2560 C2559 1.415 . S
C2561 H2537 0.951 . S
C2561 C2562 1.366 . S
C2561 C2563 1.388 . S
C2562 C2561 1.366 . S
C2562 C2566 1.385 . S
C2563 H2538 0.951 . S
C2563 C2561 1.388 . S
C2563 C2564 1.366 . S
C2564 C2563 1.366 . S
C2564 C2565 1.414 . S
C2564 C2567 1.499 . S
C2565 H2539 0.950 . S
C2565 C2564 1.414 . S
C2565 C2566 1.374 . S
C2566 H2540 0.950 . S
C2566 C2562 1.385 . S
C2566 C2565 1.374 . S
C2567 C2564 1.499 . S
C2567 C2568 1.373 . S
C2567 C2569 1.389 . S
C2568 H2541 0.950 . S
C2568 C2554 1.377 . S
C2568 C2567 1.373 . S
C2569 C2553 1.377 . S
C2569 C2567 1.389 . S
C2569 C2570 1.524 . S
C2570 C2569 1.524 . S
C2570 C2571 1.397 . S
C2570 C2575 1.363 . S
C2571 H2542 0.950 . S
C2571 C2570 1.397 . S
C2571 C2572 1.334 . S
C2572 H2543 0.950 . S
C2572 C2571 1.334 . S
C2572 C2573 1.287 . S
C2573 C2572 1.287 . S
C2573 C2574 1.524 . S
C2573 H2576 0.999 . S
C2574 H2544 0.950 . S
C2574 C2573 1.524 . S
C2574 C2575 1.415 . S
C2575 H2545 0.950 . S
C2575 C2570 1.363 . S
C2575 C2574 1.415 . S
H2576 C2573 0.999 . S
H2577 C2558 0.913 . S
H2578 C2596 0.951 . S
H2579 C2598 0.951 . S
H2580 C2600 0.950 . S
H2581 C2601 0.950 . S
H2582 C2603 0.959 . S
H2583 C2606 0.950 . S
H2584 C2607 0.950 . S
H2585 C2609 0.933 1_655 S
H2586 C2610 0.950 . S
H2587 C2611 0.951 . S
H2588 C2613 0.951 . S
H2589 C2615 0.950 . S
H2590 C2616 0.950 . S
H2591 C2618 0.950 . S
H2592 C2621 0.950 . S
H2593 C2622 0.950 . S
H2594 C2624 0.950 . S
H2595 C2625 0.950 . S
C2596 H2578 0.951 . S
C2596 C2597 1.366 . S
C2596 C2598 1.388 . S
C2597 C2596 1.366 . S
C2597 C2601 1.385 . S
C2598 H2579 0.951 . S
C2598 C2596 1.388 . S
C2598 C2599 1.366 . S
C2599 C2598 1.366 . S
C2599 C2600 1.414 . S
C2599 C2602 1.499 . S
C2600 H2580 0.950 . S
C2600 C2599 1.414 . S
C2600 C2601 1.374 . S
C2601 H2581 0.950 . S
C2601 C2597 1.385 . S
C2601 C2600 1.374 . S
C2602 C2599 1.499 . S
C2602 C2603 1.373 1_455 S
C2602 C2604 1.389 1_455 S
C2603 H2582 0.959 . S
C2603 C2602 1.373 1_655 S
C2603 C2619 1.377 . S
C2604 C2602 1.389 1_655 S
C2604 C2605 1.524 1_655 S
C2604 C2618 1.377 . S
C2605 C2604 1.524 1_455 S
C2605 C2606 1.397 . S
C2605 C2610 1.363 1_455 S
C2606 H2583 0.950 . S
C2606 C2605 1.397 . S
C2606 C2607 1.334 . S
C2607 H2584 0.950 . S
C2607 C2606 1.334 . S
C2607 C2608 1.287 . S
C2608 C2607 1.287 . S
C2608 C2609 1.524 . S
C2608 H2627 0.913 . S
C2609 H2585 0.933 1_455 S
C2609 C2608 1.524 . S
C2609 C2610 1.415 1_455 S
C2610 H2586 0.950 . S
C2610 C2605 1.363 1_655 S
C2610 C2609 1.415 1_655 S
C2611 H2587 0.951 . S
C2611 C2612 1.366 . S
C2611 C2613 1.388 . S
C2612 C2611 1.366 . S
C2612 C2616 1.385 . S
C2613 H2588 0.951 . S
C2613 C2611 1.388 . S
C2613 C2614 1.366 . S
C2614 C2613 1.366 . S
C2614 C2615 1.414 . S
C2614 C2617 1.499 . S
C2615 H2589 0.950 . S
C2615 C2614 1.414 . S
C2615 C2616 1.374 . S
C2616 H2590 0.950 . S
C2616 C2612 1.385 . S
C2616 C2615 1.374 . S
C2617 C2614 1.499 . S
C2617 C2618 1.373 . S
C2617 C2619 1.389 . S
C2618 H2591 0.950 . S
C2618 C2604 1.377 . S
C2618 C2617 1.373 . S
C2619 C2603 1.377 . S
C2619 C2617 1.389 . S
C2619 C2620 1.524 . S
C2620 C2619 1.524 . S
C2620 C2621 1.397 . S
C2620 C2625 1.363 . S
C2621 H2592 0.950 . S
C2621 C2620 1.397 . S
C2621 C2622 1.334 . S
C2622 H2593 0.950 . S
C2622 C2621 1.334 . S
C2622 C2623 1.287 . S
C2623 C2622 1.287 . S
C2623 C2624 1.524 . S
C2623 H2626 0.999 . S
C2624 H2594 0.950 . S
C2624 C2623 1.524 . S
C2624 C2625 1.415 . S
C2625 H2595 0.950 . S
C2625 C2620 1.363 . S
C2625 C2624 1.415 . S
H2626 C2623 0.999 . S
H2627 C2608 0.913 . S
H2628 C2646 0.951 . S
H2629 C2648 0.951 . S
H2630 C2650 0.950 . S
H2631 C2651 0.950 . S
H2632 C2653 0.950 . S
H2633 C2656 0.950 . S
H2634 C2657 0.950 . S
H2635 C2659 0.950 . S
H2636 C2660 0.950 . S
H2637 C2661 0.951 . S
H2638 C2663 0.951 . S
H2639 C2665 0.950 . S
H2640 C2666 0.950 . S
H2641 C2668 0.950 . S
H2642 C2671 0.950 . S
H2643 C2672 0.950 . S
H2644 C2674 0.950 . S
H2645 C2675 0.950 . S
C2646 H2628 0.951 . S
C2646 C2647 1.366 . S
C2646 C2648 1.388 . S
C2647 C2646 1.366 . S
C2647 C2651 1.385 . S
C2648 H2629 0.951 . S
C2648 C2646 1.388 . S
C2648 C2649 1.366 . S
C2649 C2648 1.366 . S
C2649 C2650 1.414 . S
C2649 C2652 1.499 . S
C2650 H2630 0.950 . S
C2650 C2649 1.414 . S
C2650 C2651 1.374 . S
C2651 H2631 0.950 . S
C2651 C2647 1.385 . S
C2651 C2650 1.374 . S
C2652 C2649 1.499 . S
C2652 C2653 1.373 . S
C2652 C2654 1.389 . S
C2653 H2632 0.950 . S
C2653 C2652 1.373 . S
C2653 C2669 1.377 . S
C2654 C2652 1.389 . S
C2654 C2655 1.524 . S
C2654 C2668 1.377 . S
C2655 C2654 1.524 . S
C2655 C2656 1.397 . S
C2655 C2660 1.363 . S
C2656 H2633 0.950 . S
C2656 C2655 1.397 . S
C2656 C2657 1.334 . S
C2657 H2634 0.950 . S
C2657 C2656 1.334 . S
C2657 C2658 1.287 . S
C2658 C2657 1.287 . S
C2658 C2659 1.524 . S
C2658 H2677 0.913 . S
C2659 H2635 0.950 . S
C2659 C2658 1.524 . S
C2659 C2660 1.415 . S
C2660 H2636 0.950 . S
C2660 C2655 1.363 . S
C2660 C2659 1.415 . S
C2661 H2637 0.951 . S
C2661 C2662 1.366 . S
C2661 C2663 1.388 . S
C2662 C2661 1.366 . S
C2662 C2666 1.385 . S
C2663 H2638 0.951 . S
C2663 C2661 1.388 . S
C2663 C2664 1.366 . S
C2664 C2663 1.366 . S
C2664 C2665 1.414 . S
C2664 C2667 1.499 . S
C2665 H2639 0.950 . S
C2665 C2664 1.414 . S
C2665 C2666 1.374 . S
C2666 H2640 0.950 . S
C2666 C2662 1.385 . S
C2666 C2665 1.374 . S
C2667 C2664 1.499 . S
C2667 C2668 1.373 . S
C2667 C2669 1.389 . S
C2668 H2641 0.950 . S
C2668 C2654 1.377 . S
C2668 C2667 1.373 . S
C2669 C2653 1.377 . S
C2669 C2667 1.389 . S
C2669 C2670 1.524 . S
C2670 C2669 1.524 . S
C2670 C2671 1.397 . S
C2670 C2675 1.363 . S
C2671 H2642 0.950 . S
C2671 C2670 1.397 . S
C2671 C2672 1.334 . S
C2672 H2643 0.950 . S
C2672 C2671 1.334 . S
C2672 C2673 1.287 . S
C2673 C2672 1.287 . S
C2673 C2674 1.524 . S
C2673 H2676 0.999 . S
C2674 H2644 0.950 . S
C2674 C2673 1.524 . S
C2674 C2675 1.415 . S
C2675 H2645 0.950 . S
C2675 C2670 1.363 . S
C2675 C2674 1.415 . S
H2676 C2673 0.999 . S
H2677 C2658 0.913 . S
H2678 C2696 0.951 . S
H2679 C2698 0.951 . S
H2680 C2700 0.950 . S
H2681 C2701 0.950 . S
H2682 C2703 0.950 . S
H2683 C2706 0.909 1_655 S
H2684 C2707 0.950 1_655 S
H2685 C2709 0.950 . S
H2686 C2710 0.950 . S
H2687 C2711 0.951 . S
H2688 C2713 0.951 . S
H2689 C2715 0.950 . S
H2690 C2716 0.950 . S
H2691 C2718 0.950 . S
H2692 C2721 0.950 . S
H2693 C2722 0.950 . S
H2694 C2724 0.950 . S
H2695 C2725 0.950 . S
C2696 H2678 0.951 . S
C2696 C2697 1.366 . S
C2696 C2698 1.388 . S
C2697 C2696 1.366 . S
C2697 C2701 1.385 . S
C2698 H2679 0.951 . S
C2698 C2696 1.388 . S
C2698 C2699 1.366 . S
C2699 C2698 1.366 . S
C2699 C2700 1.414 . S
C2699 C2702 1.499 . S
C2700 H2680 0.950 . S
C2700 C2699 1.414 . S
C2700 C2701 1.374 . S
C2701 H2681 0.950 . S
C2701 C2697 1.385 . S
C2701 C2700 1.374 . S
C2702 C2699 1.499 . S
C2702 C2703 1.373 . S
C2702 C2704 1.389 1_655 S
C2703 H2682 0.950 . S
C2703 C2702 1.373 . S
C2703 C2719 1.377 1_655 S
C2704 C2702 1.389 1_455 S
C2704 C2705 1.524 . S
C2704 C2718 1.377 . S
C2705 C2704 1.524 . S
C2705 C2706 1.429 . S
C2705 C2710 1.363 . S
C2706 H2683 0.909 1_455 S
C2706 C2705 1.429 . S
C2706 C2707 1.344 . S
C2707 H2684 0.950 1_455 S
C2707 C2706 1.344 . S
C2707 C2708 1.287 . S
C2708 C2707 1.287 . S
C2708 C2709 1.524 . S
C2708 H2727 0.913 . S
C2709 H2685 0.950 . S
C2709 C2708 1.524 . S
C2709 C2710 1.415 . S
C2710 H2686 0.950 . S
C2710 C2705 1.363 . S
C2710 C2709 1.415 . S
C2711 H2687 0.951 . S
C2711 C2712 1.366 . S
C2711 C2713 1.388 . S
C2712 C2711 1.366 . S
C2712 C2716 1.385 . S
C2713 H2688 0.951 . S
C2713 C2711 1.388 . S
C2713 C2714 1.366 . S
C2714 C2713 1.366 . S
C2714 C2715 1.414 . S
C2714 C2717 1.499 . S
C2715 H2689 0.950 . S
C2715 C2714 1.414 . S
C2715 C2716 1.374 . S
C2716 H2690 0.950 . S
C2716 C2712 1.385 . S
C2716 C2715 1.374 . S
C2717 C2714 1.499 . S
C2717 C2718 1.373 . S
C2717 C2719 1.389 . S
C2718 H2691 0.950 . S
C2718 C2704 1.377 . S
C2718 C2717 1.373 . S
C2719 C2703 1.377 1_455 S
C2719 C2717 1.389 . S
C2719 C2720 1.524 . S
C2720 C2719 1.524 . S
C2720 C2721 1.397 . S
C2720 C2725 1.363 1_455 S
C2721 H2692 0.950 . S
C2721 C2720 1.397 . S
C2721 C2722 1.334 . S
C2722 H2693 0.950 . S
C2722 C2721 1.334 . S
C2722 C2723 1.287 . S
C2723 C2722 1.287 . S
C2723 C2724 1.524 1_455 S
C2723 H2726 0.999 1_455 S
C2724 H2694 0.950 . S
C2724 C2723 1.524 1_655 S
C2724 C2725 1.415 . S
C2725 H2695 0.950 . S
C2725 C2720 1.363 1_655 S
C2725 C2724 1.415 . S
H2726 C2723 0.999 1_655 S
H2727 C2708 0.913 . S
H2728 C2746 0.951 . S
H2729 C2748 0.951 . S
H2730 C2750 0.950 . S
H2731 C2751 0.950 . S
H2732 C2753 0.950 . S
H2733 C2756 0.950 . S
H2734 C2757 0.950 . S
H2735 C2759 0.950 . S
H2736 C2760 0.950 . S
H2737 C2761 0.951 . S
H2738 C2763 0.951 . S
H2739 C2765 0.950 . S
H2740 C2766 0.950 . S
H2741 C2768 0.950 . S
H2742 C2771 0.950 . S
H2743 C2772 0.950 . S
H2744 C2774 0.950 . S
H2745 C2775 0.950 . S
C2746 H2728 0.951 . S
C2746 C2747 1.366 . S
C2746 C2748 1.388 . S
C2747 C2746 1.366 . S
C2747 C2751 1.385 . S
C2748 H2729 0.951 . S
C2748 C2746 1.388 . S
C2748 C2749 1.366 . S
C2749 C2748 1.366 . S
C2749 C2750 1.414 . S
C2749 C2752 1.499 . S
C2750 H2730 0.950 . S
C2750 C2749 1.414 . S
C2750 C2751 1.374 . S
C2751 H2731 0.950 . S
C2751 C2747 1.385 . S
C2751 C2750 1.374 . S
C2752 C2749 1.499 . S
C2752 C2753 1.373 . S
C2752 C2754 1.389 . S
C2753 H2732 0.950 . S
C2753 C2752 1.373 . S
C2753 C2769 1.377 . S
C2754 C2752 1.389 . S
C2754 C2755 1.524 . S
C2754 C2768 1.377 . S
C2755 C2754 1.524 . S
C2755 C2756 1.397 . S
C2755 C2760 1.363 . S
C2756 H2733 0.950 . S
C2756 C2755 1.397 . S
C2756 C2757 1.334 . S
C2757 H2734 0.950 . S
C2757 C2756 1.334 . S
C2757 C2758 1.287 . S
C2758 C2757 1.287 . S
C2758 C2759 1.524 . S
C2758 H2777 0.913 . S
C2759 H2735 0.950 . S
C2759 C2758 1.524 . S
C2759 C2760 1.415 . S
C2760 H2736 0.950 . S
C2760 C2755 1.363 . S
C2760 C2759 1.415 . S
C2761 H2737 0.951 . S
C2761 C2762 1.366 . S
C2761 C2763 1.388 . S
C2762 C2761 1.366 . S
C2762 C2766 1.385 . S
C2763 H2738 0.951 . S
C2763 C2761 1.388 . S
C2763 C2764 1.366 . S
C2764 C2763 1.366 . S
C2764 C2765 1.414 . S
C2764 C2767 1.499 . S
C2765 H2739 0.950 . S
C2765 C2764 1.414 . S
C2765 C2766 1.374 . S
C2766 H2740 0.950 . S
C2766 C2762 1.385 . S
C2766 C2765 1.374 . S
C2767 C2764 1.499 . S
C2767 C2768 1.373 . S
C2767 C2769 1.389 . S
C2768 H2741 0.950 . S
C2768 C2754 1.377 . S
C2768 C2767 1.373 . S
C2769 C2753 1.377 . S
C2769 C2767 1.389 . S
C2769 C2770 1.524 . S
C2770 C2769 1.524 . S
C2770 C2771 1.397 . S
C2770 C2775 1.363 . S
C2771 H2742 0.950 . S
C2771 C2770 1.397 . S
C2771 C2772 1.334 . S
C2772 H2743 0.950 . S
C2772 C2771 1.334 . S
C2772 C2773 1.287 . S
C2773 C2772 1.287 . S
C2773 C2774 1.524 . S
C2773 H2776 0.999 . S
C2774 H2744 0.950 . S
C2774 C2773 1.524 . S
C2774 C2775 1.415 . S
C2775 H2745 0.950 . S
C2775 C2770 1.363 . S
C2775 C2774 1.415 . S
H2776 C2773 0.999 . S
H2777 C2758 0.913 . S
H2778 C2796 0.951 . S
H2779 C2798 0.951 . S
H2780 C2800 0.950 . S
H2781 C2801 0.950 . S
H2782 C2803 0.949 . S
H2783 C2806 0.950 . S
H2784 C2807 0.950 . S
H2785 C2809 0.950 . S
H2786 C2810 0.950 . S
H2787 C2811 0.951 . S
H2788 C2813 0.951 . S
H2789 C2815 0.950 . S
H2790 C2816 0.950 1_455 S
H2791 C2818 0.950 . S
H2792 C2821 0.950 . S
H2793 C2822 0.950 . S
H2794 C2824 0.950 . S
H2795 C2825 0.950 . S
C2796 H2778 0.951 . S
C2796 C2797 1.366 . S
C2796 C2798 1.388 . S
C2797 C2796 1.366 . S
C2797 C2801 1.385 . S
C2798 H2779 0.951 . S
C2798 C2796 1.388 . S
C2798 C2799 1.366 . S
C2799 C2798 1.366 . S
C2799 C2800 1.414 . S
C2799 C2802 1.499 1_554 S
C2800 H2780 0.950 . S
C2800 C2799 1.414 . S
C2800 C2801 1.374 . S
C2801 H2781 0.950 . S
C2801 C2797 1.385 . S
C2801 C2800 1.374 . S
C2802 C2799 1.499 1_556 S
C2802 C2803 1.373 . S
C2802 C2804 1.389 . S
C2803 H2782 0.949 . S
C2803 C2802 1.373 . S
C2803 C2819 1.377 . S
C2804 C2802 1.389 . S
C2804 C2805 1.524 . S
C2804 C2818 1.377 . S
C2805 C2804 1.524 . S
C2805 C2806 1.397 . S
C2805 C2810 1.363 . S
C2806 H2783 0.950 . S
C2806 C2805 1.397 . S
C2806 C2807 1.334 . S
C2807 H2784 0.950 . S
C2807 C2806 1.334 . S
C2807 C2808 1.287 . S
C2808 C2807 1.287 . S
C2808 C2809 1.524 . S
C2808 H2827 0.913 . S
C2809 H2785 0.950 . S
C2809 C2808 1.524 . S
C2809 C2810 1.415 . S
C2810 H2786 0.950 . S
C2810 C2805 1.363 . S
C2810 C2809 1.415 . S
C2811 H2787 0.951 . S
C2811 C2812 1.366 . S
C2811 C2813 1.388 . S
C2812 C2811 1.366 . S
C2812 C2816 1.385 . S
C2813 H2788 0.951 . S
C2813 C2811 1.388 . S
C2813 C2814 1.366 . S
C2814 C2813 1.366 . S
C2814 C2815 1.414 . S
C2814 C2817 1.499 . S
C2815 H2789 0.950 . S
C2815 C2814 1.414 . S
C2815 C2816 1.374 . S
C2816 H2790 0.950 1_655 S
C2816 C2812 1.385 . S
C2816 C2815 1.374 . S
C2817 C2814 1.499 . S
C2817 C2818 1.373 . S
C2817 C2819 1.389 . S
C2818 H2791 0.950 . S
C2818 C2804 1.377 . S
C2818 C2817 1.373 . S
C2819 C2803 1.377 . S
C2819 C2817 1.389 . S
C2819 C2820 1.524 . S
C2820 C2819 1.524 . S
C2820 C2821 1.397 . S
C2820 C2825 1.363 . S
C2821 H2792 0.950 . S
C2821 C2820 1.397 . S
C2821 C2822 1.334 . S
C2822 H2793 0.950 . S
C2822 C2821 1.334 . S
C2822 C2823 1.287 . S
C2823 C2822 1.287 . S
C2823 C2824 1.524 . S
C2823 H2826 0.999 . S
C2824 H2794 0.950 . S
C2824 C2823 1.524 . S
C2824 C2825 1.415 . S
C2825 H2795 0.950 . S
C2825 C2820 1.363 . S
C2825 C2824 1.415 . S
H2826 C2823 0.999 . S
H2827 C2808 0.913 . S
H2828 C2846 0.951 . S
H2829 C2848 0.951 . S
H2830 C2850 0.950 . S
H2831 C2851 0.950 . S
H2832 C2853 0.950 . S
H2833 C2856 0.950 . S
H2834 C2857 0.950 . S
H2835 C2859 0.950 . S
H2836 C2860 0.950 . S
H2837 C2861 0.951 . S
H2838 C2863 0.951 . S
H2839 C2865 0.950 . S
H2840 C2866 0.950 . S
H2841 C2868 0.950 . S
H2842 C2871 0.950 . S
H2843 C2872 0.950 . S
H2844 C2874 0.950 . S
H2845 C2875 0.950 . S
C2846 H2828 0.951 . S
C2846 C2847 1.366 . S
C2846 C2848 1.388 . S
C2847 C2846 1.366 . S
C2847 C2851 1.385 . S
C2848 H2829 0.951 . S
C2848 C2846 1.388 . S
C2848 C2849 1.366 . S
C2849 C2848 1.366 . S
C2849 C2850 1.414 . S
C2849 C2852 1.499 . S
C2850 H2830 0.950 . S
C2850 C2849 1.414 . S
C2850 C2851 1.374 . S
C2851 H2831 0.950 . S
C2851 C2847 1.385 . S
C2851 C2850 1.374 . S
C2852 C2849 1.499 . S
C2852 C2853 1.373 . S
C2852 C2854 1.389 . S
C2853 H2832 0.950 . S
C2853 C2852 1.373 . S
C2853 C2869 1.377 . S
C2854 C2852 1.389 . S
C2854 C2855 1.524 . S
C2854 C2868 1.377 . S
C2855 C2854 1.524 . S
C2855 C2856 1.397 . S
C2855 C2860 1.363 . S
C2856 H2833 0.950 . S
C2856 C2855 1.397 . S
C2856 C2857 1.334 . S
C2857 H2834 0.950 . S
C2857 C2856 1.334 . S
C2857 C2858 1.287 . S
C2858 C2857 1.287 . S
C2858 C2859 1.524 . S
C2858 H2877 0.913 . S
C2859 H2835 0.950 . S
C2859 C2858 1.524 . S
C2859 C2860 1.415 . S
C2860 H2836 0.950 . S
C2860 C2855 1.363 . S
C2860 C2859 1.415 . S
C2861 H2837 0.951 . S
C2861 C2862 1.366 . S
C2861 C2863 1.388 . S
C2862 C2861 1.366 . S
C2862 C2866 1.385 . S
C2863 H2838 0.951 . S
C2863 C2861 1.388 . S
C2863 C2864 1.366 . S
C2864 C2863 1.366 . S
C2864 C2865 1.414 . S
C2864 C2867 1.499 . S
C2865 H2839 0.950 . S
C2865 C2864 1.414 . S
C2865 C2866 1.374 . S
C2866 H2840 0.950 . S
C2866 C2862 1.385 . S
C2866 C2865 1.374 . S
C2867 C2864 1.499 . S
C2867 C2868 1.373 . S
C2867 C2869 1.389 . S
C2868 H2841 0.950 . S
C2868 C2854 1.377 . S
C2868 C2867 1.373 . S
C2869 C2853 1.377 . S
C2869 C2867 1.389 . S
C2869 C2870 1.524 . S
C2870 C2869 1.524 . S
C2870 C2871 1.397 . S
C2870 C2875 1.363 . S
C2871 H2842 0.950 . S
C2871 C2870 1.397 . S
C2871 C2872 1.334 . S
C2872 H2843 0.950 . S
C2872 C2871 1.334 . S
C2872 C2873 1.287 . S
C2873 C2872 1.287 . S
C2873 C2874 1.524 . S
C2873 H2876 0.999 . S
C2874 H2844 0.950 . S
C2874 C2873 1.524 . S
C2874 C2875 1.415 . S
C2875 H2845 0.950 . S
C2875 C2870 1.363 . S
C2875 C2874 1.415 . S
H2876 C2873 0.999 . S
H2877 C2858 0.913 . S
H2878 C2896 0.951 . S
H2879 C2898 0.951 . S
H2880 C2900 0.950 . S
H2881 C2901 0.950 . S
H2882 C2903 0.950 . S
H2883 C2906 0.950 . S
H2884 C2907 0.950 . S
H2885 C2909 0.950 . S
H2886 C2910 0.950 . S
H2887 C2911 0.951 . S
H2888 C2913 0.951 . S
H2889 C2915 0.950 . S
H2890 C2916 0.950 . S
H2891 C2918 0.950 . S
H2892 C2921 0.950 . S
H2893 C2922 0.950 . S
H2894 C2924 0.950 . S
H2895 C2925 0.950 . S
C2896 H2878 0.951 . S
C2896 C2897 1.366 . S
C2896 C2898 1.388 . S
C2897 C2896 1.366 . S
C2897 C2901 1.385 . S
C2898 H2879 0.951 . S
C2898 C2896 1.388 . S
C2898 C2899 1.366 . S
C2899 C2898 1.366 . S
C2899 C2900 1.414 . S
C2899 C2902 1.499 . S
C2900 H2880 0.950 . S
C2900 C2899 1.414 . S
C2900 C2901 1.374 . S
C2901 H2881 0.950 . S
C2901 C2897 1.385 . S
C2901 C2900 1.374 . S
C2902 C2899 1.499 . S
C2902 C2903 1.373 . S
C2902 C2904 1.389 . S
C2903 H2882 0.950 . S
C2903 C2902 1.373 . S
C2903 C2919 1.377 1_554 S
C2904 C2902 1.389 . S
C2904 C2905 1.524 . S
C2904 C2918 1.377 1_554 S
C2905 C2904 1.524 . S
C2905 C2906 1.397 . S
C2905 C2910 1.363 . S
C2906 H2883 0.950 . S
C2906 C2905 1.397 . S
C2906 C2907 1.334 . S
C2907 H2884 0.950 . S
C2907 C2906 1.334 . S
C2907 C2908 1.287 . S
C2908 C2907 1.287 . S
C2908 C2909 1.524 . S
C2908 H2927 0.913 . S
C2909 H2885 0.950 . S
C2909 C2908 1.524 . S
C2909 C2910 1.415 . S
C2910 H2886 0.950 . S
C2910 C2905 1.363 . S
C2910 C2909 1.415 . S
C2911 H2887 0.951 . S
C2911 C2912 1.366 . S
C2911 C2913 1.388 . S
C2912 C2911 1.366 . S
C2912 C2916 1.385 . S
C2913 H2888 0.951 . S
C2913 C2911 1.388 . S
C2913 C2914 1.366 . S
C2914 C2913 1.366 . S
C2914 C2915 1.414 . S
C2914 C2917 1.499 . S
C2915 H2889 0.950 . S
C2915 C2914 1.414 . S
C2915 C2916 1.374 . S
C2916 H2890 0.950 . S
C2916 C2912 1.385 . S
C2916 C2915 1.374 . S
C2917 C2914 1.499 . S
C2917 C2918 1.373 . S
C2917 C2919 1.389 . S
C2918 H2891 0.950 . S
C2918 C2904 1.377 1_556 S
C2918 C2917 1.373 . S
C2919 C2903 1.377 1_556 S
C2919 C2917 1.389 . S
C2919 C2920 1.524 . S
C2920 C2919 1.524 . S
C2920 C2921 1.397 . S
C2920 C2925 1.363 . S
C2921 H2892 0.950 . S
C2921 C2920 1.397 . S
C2921 C2922 1.334 . S
C2922 H2893 0.950 . S
C2922 C2921 1.334 . S
C2922 C2923 1.287 . S
C2923 C2922 1.287 . S
C2923 C2924 1.524 . S
C2923 H2926 0.999 . S
C2924 H2894 0.950 . S
C2924 C2923 1.524 . S
C2924 C2925 1.415 . S
C2925 H2895 0.950 . S
C2925 C2920 1.363 . S
C2925 C2924 1.415 . S
H2926 C2923 0.999 . S
H2927 C2908 0.913 . S
H2928 C2946 0.951 . S
H2929 C2948 0.951 . S
H2930 C2950 0.950 . S
H2931 C2951 0.950 . S
H2932 C2953 0.950 . S
H2933 C2956 0.950 . S
H2934 C2957 0.950 . S
H2935 C2959 0.950 . S
H2936 C2960 0.950 . S
H2937 C2961 0.951 . S
H2938 C2963 0.951 . S
H2939 C2965 0.950 . S
H2940 C2966 0.950 . S
H2941 C2968 0.950 . S
H2942 C2971 0.950 . S
H2943 C2972 0.950 . S
H2944 C2974 0.950 . S
H2945 C2975 0.950 . S
C2946 H2928 0.951 . S
C2946 C2947 1.366 . S
C2946 C2948 1.388 . S
C2947 C2946 1.366 . S
C2947 C2951 1.385 . S
C2948 H2929 0.951 . S
C2948 C2946 1.388 . S
C2948 C2949 1.366 . S
C2949 C2948 1.366 . S
C2949 C2950 1.414 . S
C2949 C2952 1.499 . S
C2950 H2930 0.950 . S
C2950 C2949 1.414 . S
C2950 C2951 1.374 . S
C2951 H2931 0.950 . S
C2951 C2947 1.385 . S
C2951 C2950 1.374 . S
C2952 C2949 1.499 . S
C2952 C2953 1.373 . S
C2952 C2954 1.389 . S
C2953 H2932 0.950 . S
C2953 C2952 1.373 . S
C2953 C2969 1.377 . S
C2954 C2952 1.389 . S
C2954 C2955 1.524 . S
C2954 C2968 1.377 . S
C2955 C2954 1.524 . S
C2955 C2956 1.397 . S
C2955 C2960 1.363 . S
C2956 H2933 0.950 . S
C2956 C2955 1.397 . S
C2956 C2957 1.334 . S
C2957 H2934 0.950 . S
C2957 C2956 1.334 . S
C2957 C2958 1.287 . S
C2958 C2957 1.287 . S
C2958 C2959 1.524 . S
C2958 H2977 0.913 . S
C2959 H2935 0.950 . S
C2959 C2958 1.524 . S
C2959 C2960 1.415 . S
C2960 H2936 0.950 . S
C2960 C2955 1.363 . S
C2960 C2959 1.415 . S
C2961 H2937 0.951 . S
C2961 C2962 1.366 . S
C2961 C2963 1.388 . S
C2962 C2961 1.366 . S
C2962 C2966 1.385 . S
C2963 H2938 0.951 . S
C2963 C2961 1.388 . S
C2963 C2964 1.366 . S
C2964 C2963 1.366 . S
C2964 C2965 1.414 . S
C2964 C2967 1.499 . S
C2965 H2939 0.950 . S
C2965 C2964 1.414 . S
C2965 C2966 1.374 . S
C2966 H2940 0.950 . S
C2966 C2962 1.385 . S
C2966 C2965 1.374 . S
C2967 C2964 1.499 . S
C2967 C2968 1.373 . S
C2967 C2969 1.389 . S
C2968 H2941 0.950 . S
C2968 C2954 1.377 . S
C2968 C2967 1.373 . S
C2969 C2953 1.377 . S
C2969 C2967 1.389 . S
C2969 C2970 1.524 . S
C2970 C2969 1.524 . S
C2970 C2971 1.397 . S
C2970 C2975 1.363 . S
C2971 H2942 0.950 . S
C2971 C2970 1.397 . S
C2971 C2972 1.334 . S
C2972 H2943 0.950 . S
C2972 C2971 1.334 . S
C2972 C2973 1.287 . S
C2973 C2972 1.287 . S
C2973 C2974 1.524 . S
C2973 H2976 0.999 . S
C2974 H2944 0.950 . S
C2974 C2973 1.524 . S
C2974 C2975 1.415 . S
C2975 H2945 0.950 . S
C2975 C2970 1.363 . S
C2975 C2974 1.415 . S
H2976 C2973 0.999 . S
H2977 C2958 0.913 . S
H2978 C2996 0.951 . S
H2979 C2998 0.951 1_554 S
H2980 C3000 0.950 . S
H2981 C3001 0.950 . S
H2982 C3003 0.950 . S
H2983 C3006 0.950 1_556 S
H2984 C3007 0.972 . S
H2985 C3009 0.950 . S
H2986 C3010 0.950 . S
H2987 C3011 0.951 . S
H2988 C3013 0.951 . S
H2989 C3015 0.950 . S
H2990 C3016 0.950 . S
H2991 C3018 0.950 . S
H2992 C3021 0.950 . S
H2993 C3022 0.950 . S
H2994 C3024 0.950 . S
H2995 C3025 0.950 . S
C2996 H2978 0.951 . S
C2996 C2997 1.366 . S
C2996 C2998 1.388 . S
C2997 C2996 1.366 . S
C2997 C3001 1.385 . S
C2998 H2979 0.951 1_556 S
C2998 C2996 1.388 . S
C2998 C2999 1.366 . S
C2999 C2998 1.366 . S
C2999 C3000 1.414 . S
C2999 C3002 1.499 1_556 S
C3000 H2980 0.950 . S
C3000 C2999 1.414 . S
C3000 C3001 1.374 . S
C3001 H2981 0.950 . S
C3001 C2997 1.385 . S
C3001 C3000 1.374 . S
C3002 C2999 1.499 1_554 S
C3002 C3003 1.373 . S
C3002 C3004 1.389 . S
C3003 H2982 0.950 . S
C3003 C3002 1.373 . S
C3003 C3019 1.377 . S
C3004 C3002 1.389 . S
C3004 C3005 1.524 . S
C3004 C3018 1.377 . S
C3005 C3004 1.524 . S
C3005 C3006 1.397 . S
C3005 C3010 1.363 . S
C3006 H2983 0.950 1_554 S
C3006 C3005 1.397 . S
C3006 C3007 1.329 1_554 S
C3007 H2984 0.972 . S
C3007 C3006 1.329 1_556 S
C3007 C3008 1.270 1_556 S
C3008 C3007 1.270 1_554 S
C3008 C3009 1.524 . S
C3008 H3027 0.913 . S
C3009 H2985 0.950 . S
C3009 C3008 1.524 . S
C3009 C3010 1.415 . S
C3010 H2986 0.950 . S
C3010 C3005 1.363 . S
C3010 C3009 1.415 . S
C3011 H2987 0.951 . S
C3011 C3012 1.366 . S
C3011 C3013 1.388 . S
C3012 C3011 1.366 . S
C3012 C3016 1.385 . S
C3013 H2988 0.951 . S
C3013 C3011 1.388 . S
C3013 C3014 1.366 . S
C3014 C3013 1.366 . S
C3014 C3015 1.414 . S
C3014 C3017 1.499 . S
C3015 H2989 0.950 . S
C3015 C3014 1.414 . S
C3015 C3016 1.374 . S
C3016 H2990 0.950 . S
C3016 C3012 1.385 . S
C3016 C3015 1.374 . S
C3017 C3014 1.499 . S
C3017 C3018 1.373 . S
C3017 C3019 1.389 . S
C3018 H2991 0.950 . S
C3018 C3004 1.377 . S
C3018 C3017 1.373 . S
C3019 C3003 1.377 . S
C3019 C3017 1.389 . S
C3019 C3020 1.524 . S
C3020 C3019 1.524 . S
C3020 C3021 1.397 . S
C3020 C3025 1.363 . S
C3021 H2992 0.950 . S
C3021 C3020 1.397 . S
C3021 C3022 1.334 . S
C3022 H2993 0.950 . S
C3022 C3021 1.334 . S
C3022 C3023 1.287 . S
C3023 C3022 1.287 . S
C3023 C3024 1.524 . S
C3023 H3026 0.999 . S
C3024 H2994 0.950 . S
C3024 C3023 1.524 . S
C3024 C3025 1.415 . S
C3025 H2995 0.950 . S
C3025 C3020 1.363 . S
C3025 C3024 1.415 . S
H3026 C3023 0.999 . S
H3027 C3008 0.913 . S
H3028 C3046 0.951 . S
H3029 C3048 0.951 . S
H3030 C3050 0.950 . S
H3031 C3051 0.950 . S
H3032 C3053 0.950 . S
H3033 C3056 0.950 . S
H3034 C3057 0.950 . S
H3035 C3059 0.950 . S
H3036 C3060 0.950 . S
H3037 C3061 0.951 . S
H3038 C3063 0.951 . S
H3039 C3065 0.950 . S
H3040 C3066 0.950 . S
H3041 C3068 0.950 . S
H3042 C3071 0.950 . S
H3043 C3072 0.950 . S
H3044 C3074 0.950 . S
H3045 C3075 0.950 . S
C3046 H3028 0.951 . S
C3046 C3047 1.366 . S
C3046 C3048 1.388 . S
C3047 C3046 1.366 . S
C3047 C3051 1.385 . S
C3048 H3029 0.951 . S
C3048 C3046 1.388 . S
C3048 C3049 1.366 . S
C3049 C3048 1.366 . S
C3049 C3050 1.414 . S
C3049 C3052 1.499 . S
C3050 H3030 0.950 . S
C3050 C3049 1.414 . S
C3050 C3051 1.374 . S
C3051 H3031 0.950 . S
C3051 C3047 1.385 . S
C3051 C3050 1.374 . S
C3052 C3049 1.499 . S
C3052 C3053 1.373 . S
C3052 C3054 1.389 . S
C3053 H3032 0.950 . S
C3053 C3052 1.373 . S
C3053 C3069 1.377 . S
C3054 C3052 1.389 . S
C3054 C3055 1.524 . S
C3054 C3068 1.377 . S
C3055 C3054 1.524 . S
C3055 C3056 1.397 . S
C3055 C3060 1.363 . S
C3056 H3033 0.950 . S
C3056 C3055 1.397 . S
C3056 C3057 1.334 . S
C3057 H3034 0.950 . S
C3057 C3056 1.334 . S
C3057 C3058 1.287 . S
C3058 C3057 1.287 . S
C3058 C3059 1.524 . S
C3058 H3077 0.913 . S
C3059 H3035 0.950 . S
C3059 C3058 1.524 . S
C3059 C3060 1.415 . S
C3060 H3036 0.950 . S
C3060 C3055 1.363 . S
C3060 C3059 1.415 . S
C3061 H3037 0.951 . S
C3061 C3062 1.366 . S
C3061 C3063 1.388 . S
C3062 C3061 1.366 . S
C3062 C3066 1.385 . S
C3063 H3038 0.951 . S
C3063 C3061 1.388 . S
C3063 C3064 1.366 . S
C3064 C3063 1.366 . S
C3064 C3065 1.414 . S
C3064 C3067 1.499 . S
C3065 H3039 0.950 . S
C3065 C3064 1.414 . S
C3065 C3066 1.374 . S
C3066 H3040 0.950 . S
C3066 C3062 1.385 . S
C3066 C3065 1.374 . S
C3067 C3064 1.499 . S
C3067 C3068 1.373 . S
C3067 C3069 1.389 . S
C3068 H3041 0.950 . S
C3068 C3054 1.377 . S
C3068 C3067 1.373 . S
C3069 C3053 1.377 . S
C3069 C3067 1.389 . S
C3069 C3070 1.524 . S
C3070 C3069 1.524 . S
C3070 C3071 1.397 . S
C3070 C3075 1.363 . S
C3071 H3042 0.950 . S
C3071 C3070 1.397 . S
C3071 C3072 1.334 . S
C3072 H3043 0.950 . S
C3072 C3071 1.334 . S
C3072 C3073 1.287 . S
C3073 C3072 1.287 . S
C3073 C3074 1.524 . S
C3073 H3076 0.999 . S
C3074 H3044 0.950 . S
C3074 C3073 1.524 . S
C3074 C3075 1.415 . S
C3075 H3045 0.950 . S
C3075 C3070 1.363 . S
C3075 C3074 1.415 . S
H3076 C3073 0.999 . S
H3077 C3058 0.913 . S
H3078 C3096 0.951 . S
H3079 C3098 0.951 . S
H3080 C3100 0.950 . S
H3081 C3101 0.950 . S
H3082 C3103 0.950 . S
H3083 C3106 0.950 . S
H3084 C3107 0.950 . S
H3085 C3109 0.950 . S
H3086 C3110 0.950 . S
H3087 C3111 0.951 . S
H3088 C3113 0.951 . S
H3089 C3115 0.950 . S
H3090 C3116 0.950 . S
H3091 C3118 0.950 . S
H3092 C3121 0.950 . S
H3093 C3122 0.950 . S
H3094 C3124 0.950 . S
H3095 C3125 0.950 . S
C3096 H3078 0.951 . S
C3096 C3097 1.366 . S
C3096 C3098 1.388 1_556 S
C3097 C3096 1.366 . S
C3097 C3101 1.385 . S
C3098 H3079 0.951 . S
C3098 C3096 1.388 1_554 S
C3098 C3099 1.366 . S
C3099 C3098 1.366 . S
C3099 C3100 1.414 . S
C3099 C3102 1.499 . S
C3100 H3080 0.950 . S
C3100 C3099 1.414 . S
C3100 C3101 1.374 1_554 S
C3101 H3081 0.950 . S
C3101 C3097 1.385 . S
C3101 C3100 1.374 1_556 S
C3102 C3099 1.499 . S
C3102 C3103 1.373 . S
C3102 C3104 1.389 . S
C3103 H3082 0.950 . S
C3103 C3102 1.373 . S
C3103 C3119 1.377 . S
C3104 C3102 1.389 . S
C3104 C3105 1.524 . S
C3104 C3118 1.377 . S
C3105 C3104 1.524 . S
C3105 C3106 1.397 . S
C3105 C3110 1.363 . S
C3106 H3083 0.950 . S
C3106 C3105 1.397 . S
C3106 C3107 1.334 . S
C3107 H3084 0.950 . S
C3107 C3106 1.334 . S
C3107 C3108 1.287 . S
C3108 C3107 1.287 . S
C3108 C3109 1.524 . S
C3108 H3127 0.913 . S
C3109 H3085 0.950 . S
C3109 C3108 1.524 . S
C3109 C3110 1.415 . S
C3110 H3086 0.950 . S
C3110 C3105 1.363 . S
C3110 C3109 1.415 . S
C3111 H3087 0.951 . S
C3111 C3112 1.366 . S
C3111 C3113 1.388 . S
C3112 C3111 1.366 . S
C3112 C3116 1.385 . S
C3113 H3088 0.951 . S
C3113 C3111 1.388 . S
C3113 C3114 1.366 . S
C3114 C3113 1.366 . S
C3114 C3115 1.414 . S
C3114 C3117 1.499 . S
C3115 H3089 0.950 . S
C3115 C3114 1.414 . S
C3115 C3116 1.374 . S
C3116 H3090 0.950 . S
C3116 C3112 1.385 . S
C3116 C3115 1.374 . S
C3117 C3114 1.499 . S
C3117 C3118 1.373 . S
C3117 C3119 1.389 . S
C3118 H3091 0.950 . S
C3118 C3104 1.377 . S
C3118 C3117 1.373 . S
C3119 C3103 1.377 . S
C3119 C3117 1.389 . S
C3119 C3120 1.524 . S
C3120 C3119 1.524 . S
C3120 C3121 1.397 . S
C3120 C3125 1.363 . S
C3121 H3092 0.950 . S
C3121 C3120 1.397 . S
C3121 C3122 1.334 . S
C3122 H3093 0.950 . S
C3122 C3121 1.334 . S
C3122 C3123 1.287 . S
C3123 C3122 1.287 . S
C3123 C3124 1.524 . S
C3123 H3126 0.999 . S
C3124 H3094 0.950 . S
C3124 C3123 1.524 . S
C3124 C3125 1.415 . S
C3125 H3095 0.950 . S
C3125 C3120 1.363 . S
C3125 C3124 1.415 . S
H3126 C3123 0.999 . S
H3127 C3108 0.913 . S
H3128 C3146 0.951 . S
H3129 C3148 0.951 . S
H3130 C3150 0.950 . S
H3131 C3151 0.950 . S
H3132 C3153 0.950 . S
H3133 C3156 0.950 . S
H3134 C3157 0.950 . S
H3135 C3159 0.950 . S
H3136 C3160 0.950 . S
H3137 C3161 0.951 . S
H3138 C3163 0.951 . S
H3139 C3165 0.950 . S
H3140 C3166 0.950 . S
H3141 C3168 0.950 . S
H3142 C3171 0.950 . S
H3143 C3172 0.950 . S
H3144 C3174 0.950 . S
H3145 C3175 0.950 . S
C3146 H3128 0.951 . S
C3146 C3147 1.366 . S
C3146 C3148 1.388 . S
C3147 C3146 1.366 . S
C3147 C3151 1.385 . S
C3148 H3129 0.951 . S
C3148 C3146 1.388 . S
C3148 C3149 1.366 . S
C3149 C3148 1.366 . S
C3149 C3150 1.414 . S
C3149 C3152 1.499 . S
C3150 H3130 0.950 . S
C3150 C3149 1.414 . S
C3150 C3151 1.374 . S
C3151 H3131 0.950 . S
C3151 C3147 1.385 . S
C3151 C3150 1.374 . S
C3152 C3149 1.499 . S
C3152 C3153 1.373 . S
C3152 C3154 1.389 . S
C3153 H3132 0.950 . S
C3153 C3152 1.373 . S
C3153 C3169 1.377 . S
C3154 C3152 1.389 . S
C3154 C3155 1.524 . S
C3154 C3168 1.377 . S
C3155 C3154 1.524 . S
C3155 C3156 1.397 . S
C3155 C3160 1.363 . S
C3156 H3133 0.950 . S
C3156 C3155 1.397 . S
C3156 C3157 1.334 . S
C3157 H3134 0.950 . S
C3157 C3156 1.334 . S
C3157 C3158 1.287 . S
C3158 C3157 1.287 . S
C3158 C3159 1.524 . S
C3158 H3177 0.913 . S
C3159 H3135 0.950 . S
C3159 C3158 1.524 . S
C3159 C3160 1.415 . S
C3160 H3136 0.950 . S
C3160 C3155 1.363 . S
C3160 C3159 1.415 . S
C3161 H3137 0.951 . S
C3161 C3162 1.366 . S
C3161 C3163 1.388 . S
C3162 C3161 1.366 . S
C3162 C3166 1.385 . S
C3163 H3138 0.951 . S
C3163 C3161 1.388 . S
C3163 C3164 1.366 . S
C3164 C3163 1.366 . S
C3164 C3165 1.414 . S
C3164 C3167 1.499 . S
C3165 H3139 0.950 . S
C3165 C3164 1.414 . S
C3165 C3166 1.374 . S
C3166 H3140 0.950 . S
C3166 C3162 1.385 . S
C3166 C3165 1.374 . S
C3167 C3164 1.499 . S
C3167 C3168 1.373 . S
C3167 C3169 1.389 . S
C3168 H3141 0.950 . S
C3168 C3154 1.377 . S
C3168 C3167 1.373 . S
C3169 C3153 1.377 . S
C3169 C3167 1.389 . S
C3169 C3170 1.524 . S
C3170 C3169 1.524 . S
C3170 C3171 1.397 . S
C3170 C3175 1.363 . S
C3171 H3142 0.950 . S
C3171 C3170 1.397 . S
C3171 C3172 1.334 . S
C3172 H3143 0.950 . S
C3172 C3171 1.334 . S
C3172 C3173 1.287 . S
C3173 C3172 1.287 . S
C3173 C3174 1.524 . S
C3173 H3176 0.999 . S
C3174 H3144 0.950 . S
C3174 C3173 1.524 . S
C3174 C3175 1.415 . S
C3175 H3145 0.950 . S
C3175 C3170 1.363 . S
C3175 C3174 1.415 . S
H3176 C3173 0.999 . S
H3177 C3158 0.913 . S
H3178 C3196 0.951 . S
H3179 C3198 0.951 . S
H3180 C3200 0.950 . S
H3181 C3201 0.950 . S
H3182 C3203 0.950 . S
H3183 C3206 0.950 . S
H3184 C3207 0.950 . S
H3185 C3209 0.950 . S
H3186 C3210 0.950 . S
H3187 C3211 0.951 . S
H3188 C3213 0.951 . S
H3189 C3215 0.950 . S
H3190 C3216 0.950 . S
H3191 C3218 0.950 . S
H3192 C3221 0.950 . S
H3193 C3222 0.950 . S
H3194 C3224 0.950 . S
H3195 C3225 0.950 . S
C3196 H3178 0.951 . S
C3196 C3197 1.366 . S
C3196 C3198 1.388 . S
C3197 C3196 1.366 . S
C3197 C3201 1.385 . S
C3198 H3179 0.951 . S
C3198 C3196 1.388 . S
C3198 C3199 1.366 . S
C3199 C3198 1.366 . S
C3199 C3200 1.414 . S
C3199 C3202 1.499 . S
C3200 H3180 0.950 . S
C3200 C3199 1.414 . S
C3200 C3201 1.374 . S
C3201 H3181 0.950 . S
C3201 C3197 1.385 . S
C3201 C3200 1.374 . S
C3202 C3199 1.499 . S
C3202 C3203 1.373 . S
C3202 C3204 1.389 . S
C3203 H3182 0.950 . S
C3203 C3202 1.373 . S
C3203 C3219 1.377 . S
C3204 C3202 1.389 . S
C3204 C3205 1.524 . S
C3204 C3218 1.377 . S
C3205 C3204 1.524 . S
C3205 C3206 1.397 . S
C3205 C3210 1.363 . S
C3206 H3183 0.950 . S
C3206 C3205 1.397 . S
C3206 C3207 1.334 . S
C3207 H3184 0.950 . S
C3207 C3206 1.334 . S
C3207 C3208 1.287 . S
C3208 C3207 1.287 . S
C3208 C3209 1.524 . S
C3208 H3227 0.913 . S
C3209 H3185 0.950 . S
C3209 C3208 1.524 . S
C3209 C3210 1.415 . S
C3210 H3186 0.950 . S
C3210 C3205 1.363 . S
C3210 C3209 1.415 . S
C3211 H3187 0.951 . S
C3211 C3212 1.366 . S
C3211 C3213 1.388 . S
C3212 C3211 1.366 . S
C3212 C3216 1.385 . S
C3213 H3188 0.951 . S
C3213 C3211 1.388 . S
C3213 C3214 1.366 . S
C3214 C3213 1.366 . S
C3214 C3215 1.414 . S
C3214 C3217 1.499 . S
C3215 H3189 0.950 . S
C3215 C3214 1.414 . S
C3215 C3216 1.374 . S
C3216 H3190 0.950 . S
C3216 C3212 1.385 . S
C3216 C3215 1.374 . S
C3217 C3214 1.499 . S
C3217 C3218 1.373 . S
C3217 C3219 1.389 . S
C3218 H3191 0.950 . S
C3218 C3204 1.377 . S
C3218 C3217 1.373 . S
C3219 C3203 1.377 . S
C3219 C3217 1.389 . S
C3219 C3220 1.524 . S
C3220 C3219 1.524 . S
C3220 C3221 1.397 . S
C3220 C3225 1.363 . S
C3221 H3192 0.950 . S
C3221 C3220 1.397 . S
C3221 C3222 1.334 . S
C3222 H3193 0.950 . S
C3222 C3221 1.334 . S
C3222 C3223 1.287 . S
C3223 C3222 1.287 . S
C3223 C3224 1.524 . S
C3223 H3226 0.999 . S
C3224 H3194 0.950 . S
C3224 C3223 1.524 . S
C3224 C3225 1.415 . S
C3225 H3195 0.950 . S
C3225 C3220 1.363 . S
C3225 C3224 1.415 . S
H3226 C3223 0.999 . S
H3227 C3208 0.913 . S
H3228 C3246 0.951 . S
H3229 C3248 0.951 . S
H3230 C3250 0.950 . S
H3231 C3251 0.950 . S
H3232 C3253 0.950 . S
H3233 C3256 0.950 . S
H3234 C3257 0.950 . S
H3235 C3259 0.950 . S
H3236 C3260 0.950 . S
H3237 C3261 0.951 . S
H3238 C3263 0.951 . S
H3239 C3265 0.950 . S
H3240 C3266 0.950 . S
H3241 C3268 0.950 . S
H3242 C3271 0.950 . S
H3243 C3272 0.950 . S
H3244 C3274 0.950 . S
H3245 C3275 0.950 . S
C3246 H3228 0.951 . S
C3246 C3247 1.366 . S
C3246 C3248 1.388 . S
C3247 C3246 1.366 . S
C3247 C3251 1.385 . S
C3248 H3229 0.951 . S
C3248 C3246 1.388 . S
C3248 C3249 1.366 . S
C3249 C3248 1.366 . S
C3249 C3250 1.414 . S
C3249 C3252 1.499 . S
C3250 H3230 0.950 . S
C3250 C3249 1.414 . S
C3250 C3251 1.374 . S
C3251 H3231 0.950 . S
C3251 C3247 1.385 . S
C3251 C3250 1.374 . S
C3252 C3249 1.499 . S
C3252 C3253 1.373 . S
C3252 C3254 1.389 . S
C3253 H3232 0.950 . S
C3253 C3252 1.373 . S
C3253 C3269 1.377 . S
C3254 C3252 1.389 . S
C3254 C3255 1.524 . S
C3254 C3268 1.377 . S
C3255 C3254 1.524 . S
C3255 C3256 1.397 . S
C3255 C3260 1.363 . S
C3256 H3233 0.950 . S
C3256 C3255 1.397 . S
C3256 C3257 1.334 . S
C3257 H3234 0.950 . S
C3257 C3256 1.334 . S
C3257 C3258 1.287 . S
C3258 C3257 1.287 . S
C3258 C3259 1.524 . S
C3258 H3277 0.913 . S
C3259 H3235 0.950 . S
C3259 C3258 1.524 . S
C3259 C3260 1.415 . S
C3260 H3236 0.950 . S
C3260 C3255 1.363 . S
C3260 C3259 1.415 . S
C3261 H3237 0.951 . S
C3261 C3262 1.366 . S
C3261 C3263 1.388 . S
C3262 C3261 1.366 . S
C3262 C3266 1.385 . S
C3263 H3238 0.951 . S
C3263 C3261 1.388 . S
C3263 C3264 1.366 . S
C3264 C3263 1.366 . S
C3264 C3265 1.414 . S
C3264 C3267 1.499 . S
C3265 H3239 0.950 . S
C3265 C3264 1.414 . S
C3265 C3266 1.374 . S
C3266 H3240 0.950 . S
C3266 C3262 1.385 . S
C3266 C3265 1.374 . S
C3267 C3264 1.499 . S
C3267 C3268 1.373 . S
C3267 C3269 1.389 . S
C3268 H3241 0.950 . S
C3268 C3254 1.377 . S
C3268 C3267 1.373 . S
C3269 C3253 1.377 . S
C3269 C3267 1.389 . S
C3269 C3270 1.524 . S
C3270 C3269 1.524 . S
C3270 C3271 1.397 . S
C3270 C3275 1.363 . S
C3271 H3242 0.950 . S
C3271 C3270 1.397 . S
C3271 C3272 1.334 . S
C3272 H3243 0.950 . S
C3272 C3271 1.334 . S
C3272 C3273 1.287 . S
C3273 C3272 1.287 . S
C3273 C3274 1.524 . S
C3273 H3276 0.999 . S
C3274 H3244 0.950 . S
C3274 C3273 1.524 . S
C3274 C3275 1.415 . S
C3275 H3245 0.950 . S
C3275 C3270 1.363 . S
C3275 C3274 1.415 . S
H3276 C3273 0.999 . S
H3277 C3258 0.913 . S
H3278 C3296 0.951 . S
H3279 C3298 0.951 . S
H3280 C3300 0.950 . S
H3281 C3301 0.950 . S
H3282 C3303 0.950 . S
H3283 C3306 0.950 . S
H3284 C3307 0.950 . S
H3285 C3309 0.950 . S
H3286 C3310 0.950 . S
H3287 C3311 0.951 . S
H3288 C3313 0.951 . S
H3289 C3315 0.950 . S
H3290 C3316 0.950 . S
H3291 C3318 0.950 . S
H3292 C3321 0.950 . S
H3293 C3322 0.950 . S
H3294 C3324 0.950 . S
H3295 C3325 0.950 . S
C3296 H3278 0.951 . S
C3296 C3297 1.366 . S
C3296 C3298 1.388 . S
C3297 C3296 1.366 . S
C3297 C3301 1.385 . S
C3298 H3279 0.951 . S
C3298 C3296 1.388 . S
C3298 C3299 1.366 . S
C3299 C3298 1.366 . S
C3299 C3300 1.414 . S
C3299 C3302 1.499 . S
C3300 H3280 0.950 . S
C3300 C3299 1.414 . S
C3300 C3301 1.374 . S
C3301 H3281 0.950 . S
C3301 C3297 1.385 . S
C3301 C3300 1.374 . S
C3302 C3299 1.499 . S
C3302 C3303 1.373 . S
C3302 C3304 1.389 . S
C3303 H3282 0.950 . S
C3303 C3302 1.373 . S
C3303 C3319 1.377 . S
C3304 C3302 1.389 . S
C3304 C3305 1.524 . S
C3304 C3318 1.377 . S
C3305 C3304 1.524 . S
C3305 C3306 1.397 . S
C3305 C3310 1.363 . S
C3306 H3283 0.950 . S
C3306 C3305 1.397 . S
C3306 C3307 1.334 . S
C3307 H3284 0.950 . S
C3307 C3306 1.334 . S
C3307 C3308 1.287 . S
C3308 C3307 1.287 . S
C3308 C3309 1.524 . S
C3308 H3327 0.913 . S
C3309 H3285 0.950 . S
C3309 C3308 1.524 . S
C3309 C3310 1.415 . S
C3310 H3286 0.950 . S
C3310 C3305 1.363 . S
C3310 C3309 1.415 . S
C3311 H3287 0.951 . S
C3311 C3312 1.366 . S
C3311 C3313 1.388 . S
C3312 C3311 1.366 . S
C3312 C3316 1.385 . S
C3313 H3288 0.951 . S
C3313 C3311 1.388 . S
C3313 C3314 1.366 . S
C3314 C3313 1.366 . S
C3314 C3315 1.414 . S
C3314 C3317 1.499 . S
C3315 H3289 0.950 . S
C3315 C3314 1.414 . S
C3315 C3316 1.374 . S
C3316 H3290 0.950 . S
C3316 C3312 1.385 . S
C3316 C3315 1.374 . S
C3317 C3314 1.499 . S
C3317 C3318 1.373 . S
C3317 C3319 1.389 . S
C3318 H3291 0.950 . S
C3318 C3304 1.377 . S
C3318 C3317 1.373 . S
C3319 C3303 1.377 . S
C3319 C3317 1.389 . S
C3319 C3320 1.524 . S
C3320 C3319 1.524 . S
C3320 C3321 1.397 . S
C3320 C3325 1.363 . S
C3321 H3292 0.950 . S
C3321 C3320 1.397 . S
C3321 C3322 1.334 . S
C3322 H3293 0.950 . S
C3322 C3321 1.334 . S
C3322 C3323 1.287 . S
C3323 C3322 1.287 . S
C3323 C3324 1.524 . S
C3323 H3326 0.999 . S
C3324 H3294 0.950 . S
C3324 C3323 1.524 . S
C3324 C3325 1.415 . S
C3325 H3295 0.950 . S
C3325 C3320 1.363 . S
C3325 C3324 1.415 . S
H3326 C3323 0.999 . S
H3327 C3308 0.913 . S
H3328 C3346 0.951 . S
H3329 C3348 0.951 . S
H3330 C3350 0.950 . S
H3331 C3351 0.950 . S
H3332 C3353 0.950 . S
H3333 C3356 0.950 . S
H3334 C3357 0.950 . S
H3335 C3359 0.950 . S
H3336 C3360 0.950 . S
H3337 C3361 0.951 1_554 S
H3338 C3363 0.951 . S
H3339 C3365 0.950 . S
H3340 C3366 0.950 . S
H3341 C3368 0.950 . S
H3342 C3371 0.950 . S
H3343 C3372 0.950 . S
H3344 C3374 0.950 . S
H3345 C3375 0.950 . S
C3346 H3328 0.951 . S
C3346 C3347 1.366 . S
C3346 C3348 1.388 . S
C3347 C3346 1.366 . S
C3347 C3351 1.385 . S
C3348 H3329 0.951 . S
C3348 C3346 1.388 . S
C3348 C3349 1.366 . S
C3349 C3348 1.366 . S
C3349 C3350 1.414 . S
C3349 C3352 1.499 . S
C3350 H3330 0.950 . S
C3350 C3349 1.414 . S
C3350 C3351 1.374 . S
C3351 H3331 0.950 . S
C3351 C3347 1.385 . S
C3351 C3350 1.374 . S
C3352 C3349 1.499 . S
C3352 C3353 1.373 . S
C3352 C3354 1.389 . S
C3353 H3332 0.950 . S
C3353 C3352 1.373 . S
C3353 C3369 1.377 . S
C3354 C3352 1.389 . S
C3354 C3355 1.524 . S
C3354 C3368 1.377 . S
C3355 C3354 1.524 . S
C3355 C3356 1.397 . S
C3355 C3360 1.363 . S
C3356 H3333 0.950 . S
C3356 C3355 1.397 . S
C3356 C3357 1.334 . S
C3357 H3334 0.950 . S
C3357 C3356 1.334 . S
C3357 C3358 1.287 . S
C3358 C3357 1.287 . S
C3358 C3359 1.524 . S
C3358 H3377 0.913 . S
C3359 H3335 0.950 . S
C3359 C3358 1.524 . S
C3359 C3360 1.415 . S
C3360 H3336 0.950 . S
C3360 C3355 1.363 . S
C3360 C3359 1.415 . S
C3361 H3337 0.951 1_556 S
C3361 C3362 1.366 . S
C3361 C3363 1.388 . S
C3362 C3361 1.366 . S
C3362 C3366 1.385 . S
C3363 H3338 0.951 . S
C3363 C3361 1.388 . S
C3363 C3364 1.366 . S
C3364 C3363 1.366 . S
C3364 C3365 1.414 . S
C3364 C3367 1.499 . S
C3365 H3339 0.950 . S
C3365 C3364 1.414 . S
C3365 C3366 1.374 . S
C3366 H3340 0.950 . S
C3366 C3362 1.385 . S
C3366 C3365 1.374 . S
C3367 C3364 1.499 . S
C3367 C3368 1.373 . S
C3367 C3369 1.389 . S
C3368 H3341 0.950 . S
C3368 C3354 1.377 . S
C3368 C3367 1.373 . S
C3369 C3353 1.377 . S
C3369 C3367 1.389 . S
C3369 C3370 1.524 . S
C3370 C3369 1.524 . S
C3370 C3371 1.397 . S
C3370 C3375 1.363 . S
C3371 H3342 0.950 . S
C3371 C3370 1.397 . S
C3371 C3372 1.334 . S
C3372 H3343 0.950 . S
C3372 C3371 1.334 . S
C3372 C3373 1.287 . S
C3373 C3372 1.287 . S
C3373 C3374 1.524 1_556 S
C3373 H3376 0.999 1_556 S
C3374 H3344 0.950 . S
C3374 C3373 1.524 1_554 S
C3374 C3375 1.415 1_554 S
C3375 H3345 0.950 . S
C3375 C3370 1.363 . S
C3375 C3374 1.415 1_556 S
H3376 C3373 0.999 1_554 S
H3377 C3358 0.913 . S
H3378 C3396 0.951 . S
H3379 C3398 0.951 . S
H3380 C3400 0.950 . S
H3381 C3401 0.950 . S
H3382 C3403 0.950 . S
H3383 C3406 0.950 . S
H3384 C3407 0.950 . S
H3385 C3409 0.950 . S
H3386 C3410 0.950 . S
H3387 C3411 0.951 . S
H3388 C3413 0.951 . S
H3389 C3415 0.950 . S
H3390 C3416 0.950 . S
H3391 C3418 0.950 . S
H3392 C3421 0.950 . S
H3393 C3422 0.950 . S
H3394 C3424 0.950 . S
H3395 C3425 0.950 . S
C3396 H3378 0.951 . S
C3396 C3397 1.366 . S
C3396 C3398 1.388 . S
C3397 C3396 1.366 . S
C3397 C3401 1.385 . S
C3398 H3379 0.951 . S
C3398 C3396 1.388 . S
C3398 C3399 1.366 . S
C3399 C3398 1.366 . S
C3399 C3400 1.414 . S
C3399 C3402 1.499 . S
C3400 H3380 0.950 . S
C3400 C3399 1.414 . S
C3400 C3401 1.374 . S
C3401 H3381 0.950 . S
C3401 C3397 1.385 . S
C3401 C3400 1.374 . S
C3402 C3399 1.499 . S
C3402 C3403 1.373 . S
C3402 C3404 1.389 . S
C3403 H3382 0.950 . S
C3403 C3402 1.373 . S
C3403 C3419 1.377 . S
C3404 C3402 1.389 . S
C3404 C3405 1.524 . S
C3404 C3418 1.377 . S
C3405 C3404 1.524 . S
C3405 C3406 1.397 . S
C3405 C3410 1.363 . S
C3406 H3383 0.950 . S
C3406 C3405 1.397 . S
C3406 C3407 1.334 . S
C3407 H3384 0.950 . S
C3407 C3406 1.334 . S
C3407 C3408 1.287 . S
C3408 C3407 1.287 . S
C3408 C3409 1.524 . S
C3408 H3427 0.913 . S
C3409 H3385 0.950 . S
C3409 C3408 1.524 . S
C3409 C3410 1.415 . S
C3410 H3386 0.950 . S
C3410 C3405 1.363 . S
C3410 C3409 1.415 . S
C3411 H3387 0.951 . S
C3411 C3412 1.366 . S
C3411 C3413 1.388 . S
C3412 C3411 1.366 . S
C3412 C3416 1.385 . S
C3413 H3388 0.951 . S
C3413 C3411 1.388 . S
C3413 C3414 1.366 . S
C3414 C3413 1.366 . S
C3414 C3415 1.414 . S
C3414 C3417 1.499 . S
C3415 H3389 0.950 . S
C3415 C3414 1.414 . S
C3415 C3416 1.374 . S
C3416 H3390 0.950 . S
C3416 C3412 1.385 . S
C3416 C3415 1.374 . S
C3417 C3414 1.499 . S
C3417 C3418 1.373 . S
C3417 C3419 1.389 . S
C3418 H3391 0.950 . S
C3418 C3404 1.377 . S
C3418 C3417 1.373 . S
C3419 C3403 1.377 . S
C3419 C3417 1.389 . S
C3419 C3420 1.524 . S
C3420 C3419 1.524 . S
C3420 C3421 1.397 . S
C3420 C3425 1.363 . S
C3421 H3392 0.950 . S
C3421 C3420 1.397 . S
C3421 C3422 1.334 . S
C3422 H3393 0.950 . S
C3422 C3421 1.334 . S
C3422 C3423 1.287 . S
C3423 C3422 1.287 . S
C3423 C3424 1.524 . S
C3423 H3426 0.999 . S
C3424 H3394 0.950 . S
C3424 C3423 1.524 . S
C3424 C3425 1.415 . S
C3425 H3395 0.950 . S
C3425 C3420 1.363 . S
C3425 C3424 1.415 . S
H3426 C3423 0.999 . S
H3427 C3408 0.913 . S
H3428 C3446 0.951 . S
H3429 C3448 0.951 . S
H3430 C3450 0.950 . S
H3431 C3451 0.950 . S
H3432 C3453 0.950 . S
H3433 C3456 0.950 . S
H3434 C3457 0.950 . S
H3435 C3459 0.950 . S
H3436 C3460 0.950 . S
H3437 C3461 0.951 . S
H3438 C3463 0.951 . S
H3439 C3465 0.950 . S
H3440 C3466 0.950 . S
H3441 C3468 0.950 . S
H3442 C3471 0.950 . S
H3443 C3472 0.950 . S
H3444 C3474 0.950 1_556 S
H3445 C3475 0.950 . S
C3446 H3428 0.951 . S
C3446 C3447 1.366 . S
C3446 C3448 1.388 . S
C3447 C3446 1.366 . S
C3447 C3451 1.385 . S
C3448 H3429 0.951 . S
C3448 C3446 1.388 . S
C3448 C3449 1.366 . S
C3449 C3448 1.366 . S
C3449 C3450 1.414 . S
C3449 C3452 1.499 . S
C3450 H3430 0.950 . S
C3450 C3449 1.414 . S
C3450 C3451 1.374 . S
C3451 H3431 0.950 . S
C3451 C3447 1.385 . S
C3451 C3450 1.374 . S
C3452 C3449 1.499 . S
C3452 C3453 1.373 . S
C3452 C3454 1.389 . S
C3453 H3432 0.950 . S
C3453 C3452 1.373 . S
C3453 C3469 1.377 . S
C3454 C3452 1.389 . S
C3454 C3455 1.524 . S
C3454 C3468 1.377 . S
C3455 C3454 1.524 . S
C3455 C3456 1.397 . S
C3455 C3460 1.363 . S
C3456 H3433 0.950 . S
C3456 C3455 1.397 . S
C3456 C3457 1.334 . S
C3457 H3434 0.950 . S
C3457 C3456 1.334 . S
C3457 C3458 1.287 . S
C3458 C3457 1.287 . S
C3458 C3459 1.524 . S
C3458 H3477 0.913 . S
C3459 H3435 0.950 . S
C3459 C3458 1.524 . S
C3459 C3460 1.415 . S
C3460 H3436 0.950 . S
C3460 C3455 1.363 . S
C3460 C3459 1.415 . S
C3461 H3437 0.951 . S
C3461 C3462 1.366 . S
C3461 C3463 1.388 . S
C3462 C3461 1.366 . S
C3462 C3466 1.385 . S
C3463 H3438 0.951 . S
C3463 C3461 1.388 . S
C3463 C3464 1.366 . S
C3464 C3463 1.366 . S
C3464 C3465 1.414 . S
C3464 C3467 1.499 . S
C3465 H3439 0.950 . S
C3465 C3464 1.414 . S
C3465 C3466 1.374 . S
C3466 H3440 0.950 . S
C3466 C3462 1.385 . S
C3466 C3465 1.374 . S
C3467 C3464 1.499 . S
C3467 C3468 1.373 . S
C3467 C3469 1.389 . S
C3468 H3441 0.950 . S
C3468 C3454 1.377 . S
C3468 C3467 1.373 . S
C3469 C3453 1.377 . S
C3469 C3467 1.389 . S
C3469 C3470 1.524 . S
C3470 C3469 1.524 . S
C3470 C3471 1.397 . S
C3470 C3475 1.363 . S
C3471 H3442 0.950 . S
C3471 C3470 1.397 . S
C3471 C3472 1.334 . S
C3472 H3443 0.950 . S
C3472 C3471 1.334 . S
C3472 C3473 1.287 . S
C3473 C3472 1.287 . S
C3473 C3474 1.524 . S
C3473 H3476 0.999 . S
C3474 H3444 0.950 1_554 S
C3474 C3473 1.524 . S
C3474 C3475 1.415 . S
C3475 H3445 0.950 . S
C3475 C3470 1.363 . S
C3475 C3474 1.415 . S
H3476 C3473 0.999 . S
H3477 C3458 0.913 . S
H3478 C3496 0.951 . S
H3479 C3498 0.951 . S
H3480 C3500 0.950 . S
H3481 C3501 0.950 . S
H3482 C3503 0.950 . S
H3483 C3506 0.950 . S
H3484 C3507 0.950 . S
H3485 C3509 0.950 . S
H3486 C3510 0.950 . S
H3487 C3511 0.951 . S
H3488 C3513 0.951 . S
H3489 C3515 0.950 1_545 S
H3490 C3516 0.950 . S
H3491 C3518 0.950 . S
H3492 C3521 0.950 . S
H3493 C3522 0.950 . S
H3494 C3524 0.950 . S
H3495 C3525 0.950 . S
C3496 H3478 0.951 . S
C3496 C3497 1.366 . S
C3496 C3498 1.388 . S
C3497 C3496 1.366 . S
C3497 C3501 1.385 . S
C3498 H3479 0.951 . S
C3498 C3496 1.388 . S
C3498 C3499 1.366 . S
C3499 C3498 1.366 . S
C3499 C3500 1.414 . S
C3499 C3502 1.499 . S
C3500 H3480 0.950 . S
C3500 C3499 1.414 . S
C3500 C3501 1.374 . S
C3501 H3481 0.950 . S
C3501 C3497 1.385 . S
C3501 C3500 1.374 . S
C3502 C3499 1.499 . S
C3502 C3503 1.373 . S
C3502 C3504 1.389 . S
C3503 H3482 0.950 . S
C3503 C3502 1.373 . S
C3503 C3519 1.377 . S
C3504 C3502 1.389 . S
C3504 C3505 1.524 . S
C3504 C3518 1.377 . S
C3505 C3504 1.524 . S
C3505 C3506 1.397 . S
C3505 C3510 1.363 . S
C3506 H3483 0.950 . S
C3506 C3505 1.397 . S
C3506 C3507 1.334 . S
C3507 H3484 0.950 . S
C3507 C3506 1.334 . S
C3507 C3508 1.287 . S
C3508 C3507 1.287 . S
C3508 C3509 1.524 . S
C3508 H3527 0.913 . S
C3509 H3485 0.950 . S
C3509 C3508 1.524 . S
C3509 C3510 1.415 . S
C3510 H3486 0.950 . S
C3510 C3505 1.363 . S
C3510 C3509 1.415 . S
C3511 H3487 0.951 . S
C3511 C3512 1.366 . S
C3511 C3513 1.388 . S
C3512 C3511 1.366 . S
C3512 C3516 1.385 . S
C3513 H3488 0.951 . S
C3513 C3511 1.388 . S
C3513 C3514 1.366 . S
C3514 C3513 1.366 . S
C3514 C3515 1.414 . S
C3514 C3517 1.499 1_565 S
C3515 H3489 0.950 1_565 S
C3515 C3514 1.414 . S
C3515 C3516 1.374 . S
C3516 H3490 0.950 . S
C3516 C3512 1.385 . S
C3516 C3515 1.374 . S
C3517 C3514 1.499 1_545 S
C3517 C3518 1.373 . S
C3517 C3519 1.389 . S
C3518 H3491 0.950 . S
C3518 C3504 1.377 . S
C3518 C3517 1.373 . S
C3519 C3503 1.377 . S
C3519 C3517 1.389 . S
C3519 C3520 1.524 1_545 S
C3520 C3519 1.524 1_565 S
C3520 C3521 1.397 . S
C3520 C3525 1.363 . S
C3521 H3492 0.950 . S
C3521 C3520 1.397 . S
C3521 C3522 1.334 . S
C3522 H3493 0.950 . S
C3522 C3521 1.334 . S
C3522 C3523 1.287 . S
C3523 C3522 1.287 . S
C3523 C3524 1.524 . S
C3523 H3526 0.999 . S
C3524 H3494 0.950 . S
C3524 C3523 1.524 . S
C3524 C3525 1.415 . S
C3525 H3495 0.950 . S
C3525 C3520 1.363 . S
C3525 C3524 1.415 . S
H3526 C3523 0.999 . S
H3527 C3508 0.913 . S
C1162 C968 1.651 . S
C1147 C331 1.623 . S
C1212 C983 1.745 . S
C1197 C380 1.717 . S
C1247 C421 1.729 . S
C1262 C996 1.739 . S
C1312 C1010 1.552 . S
C1297 C260 1.584 . S
C1362 C1022 1.691 . S
C1347 C620 1.716 . S
C1412 C1036 1.296 . S
C1397 C740 1.248 . S
C1447 C680 1.795 . S
C1462 C1050 1.791 . S
C1512 C1065 1.476 . S
C1497 C571 1.422 . S
C1547 C691 1.692 . S
C1562 C1081 1.709 . S
C1612 C1094 1.514 . S
C1597 C541 1.483 . S
C1647 C601 1.591 . S
C1662 C1079 1.582 . S
C1712 C1092 1.504 . S
C1697 C721 1.434 . S
C1747 C451 1.885 . S
C1762 C1108 1.896 . S
C1797 C241 1.605 . S
C1812 C1107 1.572 . S
C1847 C320 1.768 . S
C1862 C1106 1.743 . S
C1897 C391 1.580 . S
C1912 C1109 1.623 . S
C1947 C211 1.690 . S
C1962 C1011 1.725 . S
C1997 C841 1.493 . S
C2012 C1009 1.492 . S
C2062 C969 1.546 . S
C2047 C901 1.523 . S
C2112 C980 1.794 . S
C2097 C500 1.802 . S
C2147 C271 1.621 1_545 S
C2162 C1025 1.611 . S
C2212 C1066 1.958 . S
C2197 C661 1.935 . S
C2262 C1023 1.503 . S
C2247 C560 1.439 . S
C2312 C1051 1.491 . S
C2297 C751 1.449 . S
C2362 C1052 1.651 . S
C2347 C871 1.622 . S
C2397 C920 1.716 . S
C2412 C1067 1.744 . S
C2447 C481 1.729 . S
C2462 C1024 1.740 . S
C2512 C1038 1.553 . S
C2497 C800 1.585 . S
C2547 C200 1.716 . S
C2562 C994 1.691 . S
C2612 C1008 1.296 . S
C2597 C20 1.248 . S
C2662 C966 1.791 . S
C2647 C80 1.795 . S
C2712 C981 1.476 . S
C2697 C151 1.422 . S
C2747 C91 1.692 . S
C2762 C1095 1.709 . S
C2797 C121 1.485 . S
C2812 C1080 1.515 . S
C2847 C181 1.590 . S
C2862 C1093 1.581 . S
C2897 C1 1.434 . S
C2912 C1078 1.504 . S
C2962 C1122 1.896 . S
C2947 C511 1.885 . S
C3012 C1121 1.573 . S
C2997 C781 1.605 . S
C3062 C1120 1.744 . S
C3047 C860 1.769 . S
C3097 C931 1.580 . S
C3112 C1123 1.623 . S
C3147 C631 1.690 . S
C3162 C1039 1.725 . S
C3212 C1037 1.492 . S
C3197 C301 1.494 . S
C3262 C1053 1.546 . S
C3247 C361 1.523 . S
C3312 C1064 1.794 . S
C3297 C440 1.803 . S
C3347 C811 1.621 . S
C3362 C997 1.610 . S
C3412 C982 1.958 . S
C3397 C61 1.936 . S
C3447 C140 1.440 . S
C3462 C995 1.503 . S
C3512 C967 1.491 . S
C3497 C31 1.449 . S
