# Generated by pormake.
# Topology pto, (3,4)-cn, num edge types: 1
# Building blocks:
#     Node 0, Type 0, BuildingBlock: BETDAH_clean_linker_0, # of connection points: 3
#     Node 1, Type 0, BuildingBlock: BETDAH_clean_linker_0, # of connection points: 3
#     Node 2, Type 0, BuildingBlock: BETDAH_clean_linker_0, # of connection points: 3
#     Node 3, Type 0, BuildingBlock: BETDAH_clean_linker_0, # of connection points: 3
#     Node 4, Type 0, BuildingBlock: BETDAH_clean_linker_0, # of connection points: 3
#     Node 5, Type 0, BuildingBlock: BETDAH_clean_linker_0, # of connection points: 3
#     Node 6, Type 0, BuildingBlock: BETDAH_clean_linker_0, # of connection points: 3
#     Node 7, Type 0, BuildingBlock: BETDAH_clean_linker_0, # of connection points: 3
#     Node 8, Type 1, BuildingBlock: KOZSID_clean_sbu_0, # of connection points: 4
#     Node 9, Type 1, BuildingBlock: KOZSID_clean_sbu_0, # of connection points: 4
#     Node 10, Type 1, BuildingBlock: KOZSID_clean_sbu_0, # of connection points: 4
#     Node 11, Type 1, BuildingBlock: KOZSID_clean_sbu_0, # of connection points: 4
#     Node 12, Type 1, BuildingBlock: KOZSID_clean_sbu_0, # of connection points: 4
#     Node 13, Type 1, BuildingBlock: KOZSID_clean_sbu_0, # of connection points: 4
#     Edge 14, Type (0, 1), BuildingBlock: OJICUG_clean_linker_0, # of connection points: 2
#     Edge 15, Type (0, 1), BuildingBlock: OJICUG_clean_linker_0, # of connection points: 2
#     Edge 16, Type (0, 1), BuildingBlock: OJICUG_clean_linker_0, # of connection points: 2
#     Edge 17, Type (0, 1), BuildingBlock: OJICUG_clean_linker_0, # of connection points: 2
#     Edge 18, Type (0, 1), BuildingBlock: OJICUG_clean_linker_0, # of connection points: 2
#     Edge 19, Type (0, 1), BuildingBlock: OJICUG_clean_linker_0, # of connection points: 2
#     Edge 20, Type (0, 1), BuildingBlock: OJICUG_clean_linker_0, # of connection points: 2
#     Edge 21, Type (0, 1), BuildingBlock: OJICUG_clean_linker_0, # of connection points: 2
#     Edge 22, Type (0, 1), BuildingBlock: OJICUG_clean_linker_0, # of connection points: 2
#     Edge 23, Type (0, 1), BuildingBlock: OJICUG_clean_linker_0, # of connection points: 2
#     Edge 24, Type (0, 1), BuildingBlock: OJICUG_clean_linker_0, # of connection points: 2
#     Edge 25, Type (0, 1), BuildingBlock: OJICUG_clean_linker_0, # of connection points: 2
#     Edge 26, Type (0, 1), BuildingBlock: OJICUG_clean_linker_0, # of connection points: 2
#     Edge 27, Type (0, 1), BuildingBlock: OJICUG_clean_linker_0, # of connection points: 2
#     Edge 28, Type (0, 1), BuildingBlock: OJICUG_clean_linker_0, # of connection points: 2
#     Edge 29, Type (0, 1), BuildingBlock: OJICUG_clean_linker_0, # of connection points: 2
#     Edge 30, Type (0, 1), BuildingBlock: OJICUG_clean_linker_0, # of connection points: 2
#     Edge 31, Type (0, 1), BuildingBlock: OJICUG_clean_linker_0, # of connection points: 2
#     Edge 32, Type (0, 1), BuildingBlock: OJICUG_clean_linker_0, # of connection points: 2
#     Edge 33, Type (0, 1), BuildingBlock: OJICUG_clean_linker_0, # of connection points: 2
#     Edge 34, Type (0, 1), BuildingBlock: OJICUG_clean_linker_0, # of connection points: 2
#     Edge 35, Type (0, 1), BuildingBlock: OJICUG_clean_linker_0, # of connection points: 2
#     Edge 36, Type (0, 1), BuildingBlock: OJICUG_clean_linker_0, # of connection points: 2
#     Edge 37, Type (0, 1), BuildingBlock: OJICUG_clean_linker_0, # of connection points: 2
# Relax obj value: 0.011
# Max RMSD: 0.122
# Mean RMSD: 0.062
data_MOF--net-pto--node1-KOZSID_clean_sbu_0--node2-BETDAH_clean_linker_0--edge1-OJICUG_clean_linker_0
_symmetry_space_group_name_H-M    P1
_symmetry_Int_Tables_number       1
_symmetry_cell_setting            triclinic
loop_
_symmetry_equiv_pos_as_xyz
'x, y, z'
_cell_length_a     28.883233
_cell_length_b     37.440507
_cell_length_c     33.623928
_cell_angle_alpha  102.25839
_cell_angle_beta   92.683914
_cell_angle_gamma 105.25689
loop_
_atom_site_label
_atom_site_type_symbol
_atom_site_fract_x
_atom_site_fract_y
_atom_site_fract_z
_atom_type_partial_charge
H0 H 0.37314 0.20635 0.39363 0.0
H1 H 0.3262 0.30755 0.40119 0.0
H2 H 0.3017 0.24654 0.49619 0.0
C3 C 0.35612 0.22695 0.40963 0.0
C4 C 0.33833 0.22277 0.44709 0.0
C5 C 0.35208 0.25754 0.39274 0.0
C6 C 0.32905 0.28367 0.41356 0.0
C7 C 0.31112 0.27965 0.45101 0.0
C8 C 0.31629 0.24955 0.46757 0.0
N9 N 0.288 0.3054 0.47324 0.0
C10 C 0.27101 0.33147 0.45736 0.0
H11 H 0.28599 0.72624 0.83003 0.0
H12 H 0.32132 0.82905 0.78629 0.0
H13 H 0.18325 0.74607 0.74672 0.0
C14 C 0.27643 0.7435 0.81061 0.0
C15 C 0.23075 0.73153 0.78818 0.0
C16 C 0.30915 0.77851 0.81018 0.0
C17 C 0.29629 0.80186 0.78639 0.0
C18 C 0.25073 0.78978 0.76306 0.0
C19 C 0.21831 0.75497 0.76451 0.0
N20 N 0.23518 0.81181 0.73844 0.0
C21 C 0.26376 0.84385 0.72787 0.0
H22 H 0.90107 0.75903 0.43223 0.0
H23 H 0.83425 0.7966 0.33729 0.0
H24 H 0.88484 0.69764 0.30645 0.0
C25 C 0.88893 0.75566 0.40034 0.0
C26 C 0.8965 0.7255 0.37083 0.0
C27 C 0.86638 0.78169 0.38871 0.0
C28 C 0.85055 0.77649 0.34699 0.0
C29 C 0.85731 0.74608 0.3175 0.0
C30 C 0.88026 0.72109 0.32961 0.0
N31 N 0.84255 0.73993 0.27516 0.0
C32 C 0.81236 0.75774 0.25871 0.0
H33 H 0.8431 0.27756 0.83491 0.0
H34 H 0.78099 0.19786 0.90599 0.0
H35 H 0.81317 0.31799 0.9582 0.0
C36 C 0.82912 0.2719 0.86301 0.0
C37 C 0.831 0.30243 0.89623 0.0
C38 C 0.81096 0.23413 0.86609 0.0
C39 C 0.7944 0.22693 0.90291 0.0
C40 C 0.79371 0.25691 0.93563 0.0
C41 C 0.81169 0.29479 0.93223 0.0
N42 N 0.77806 0.24795 0.97254 0.0
C43 C 0.74897 0.26583 0.99639 0.0
H44 H 0.78905 0.73193 0.87946 0.0
H45 H 0.85943 0.73674 0.77032 0.0
H46 H 0.76895 0.81005 0.80707 0.0
C47 C 0.79643 0.74418 0.85316 0.0
C48 C 0.77573 0.77289 0.84686 0.0
C49 C 0.82674 0.73121 0.82578 0.0
C50 C 0.83611 0.74679 0.7917 0.0
C51 C 0.81548 0.77502 0.78457 0.0
C52 C 0.78504 0.78812 0.81221 0.0
N53 N 0.82611 0.78895 0.74899 0.0
C54 C 0.81546 0.8207 0.74019 0.0
H55 H 0.80491 0.33524 0.40958 0.0
H56 H 0.88525 0.26898 0.45804 0.0
H57 H 0.75415 0.21322 0.37809 0.0
C58 C 0.80835 0.30797 0.41329 0.0
C59 C 0.77386 0.27463 0.39191 0.0
C60 C 0.84896 0.30649 0.43698 0.0
C61 C 0.85356 0.27074 0.44088 0.0
C62 C 0.81855 0.23713 0.42015 0.0
C63 C 0.77943 0.23935 0.39556 0.0
N64 N 0.82455 0.20055 0.41888 0.0
C65 C 0.83901 0.1884 0.45245 0.0
H66 H 0.32181 0.22717 0.86063 0.0
H67 H 0.33044 0.34556 0.90709 0.0
H68 H 0.29204 0.29456 0.77903 0.0
C69 C 0.3177 0.25395 0.85587 0.0
C70 C 0.30549 0.25684 0.81599 0.0
C71 C 0.32733 0.28578 0.88917 0.0
C72 C 0.3219 0.32031 0.88227 0.0
C73 C 0.3081 0.32315 0.8428 0.0
C74 C 0.3006 0.29164 0.8097 0.0
N75 N 0.30806 0.35901 0.83568 0.0
C76 C 0.26631 0.37072 0.83484 0.0
H77 H 0.28212 0.76096 0.38969 0.0
H78 H 0.3338 0.80856 0.28872 0.0
H79 H 0.26322 0.68874 0.26901 0.0
C80 C 0.28782 0.75732 0.35759 0.0
C81 C 0.27085 0.72107 0.3314 0.0
C82 C 0.31076 0.78903 0.34259 0.0
C83 C 0.31691 0.78414 0.30064 0.0
C84 C 0.29995 0.74775 0.27409 0.0
C85 C 0.27705 0.71656 0.2897 0.0
N86 N 0.30291 0.74148 0.23127 0.0
C87 C 0.33606 0.76463 0.21225 0.0
C88 C 0.15809 0.59197 0.43039 0.0
C89 C 0.18734 0.62047 0.46172 0.0
C90 C 0.1713 0.61335 0.49756 0.0
C91 C 0.13349 0.58094 0.48616 0.0
N92 N 0.12488 0.56653 0.44519 0.0
Co93 Co 0.07227 0.52057 0.41538 0.0
N94 N 0.04759 0.51068 0.46808 0.0
C95 C 0.06492 0.5317 0.50638 0.0
C96 C 0.04296 0.51632 0.53656 0.0
C97 C 0.01028 0.48306 0.51643 0.0
C98 C 0.0141 0.48018 0.47498 0.0
N99 N 0.01932 0.47492 0.38555 0.0
C100 C 0.98757 0.4486 0.40034 0.0
C101 C 0.95664 0.42115 0.36904 0.0
C102 C 0.9705 0.42966 0.33317 0.0
C103 C 0.00861 0.46183 0.34454 0.0
N104 N 0.09734 0.52979 0.36265 0.0
C105 C 0.07958 0.50872 0.3244 0.0
C106 C 0.10297 0.5227 0.29411 0.0
C107 C 0.1375 0.55484 0.31403 0.0
C108 C 0.13339 0.55856 0.35565 0.0
N109 N 0.11517 0.4875 0.41884 0.0
C110 C 0.17272 0.4383 0.42521 0.0
C111 C 0.14471 0.43423 0.38864 0.0
C112 C 0.11654 0.459 0.38611 0.0
C113 C 0.1721 0.4679 0.45825 0.0
C114 C 0.14337 0.49194 0.45443 0.0
N115 N 0.02962 0.55412 0.41186 0.0
C116 C 0.98341 0.58061 0.37011 0.0
C117 C 0.98255 0.60974 0.40353 0.0
C118 C 0.00265 0.60903 0.44183 0.0
C119 C 0.02576 0.58111 0.44529 0.0
C120 C 0.00648 0.5532 0.37499 0.0
H121 H 0.04141 0.58269 0.47511 0.0
H122 H 0.00618 0.53219 0.34815 0.0
H123 H 0.09574 0.45427 0.35751 0.0
H124 H 0.14396 0.51352 0.48093 0.0
C125 C 0.10471 0.56386 0.51306 0.0
C126 C 0.1623 0.59111 0.38709 0.0
C127 C 0.98732 0.44705 0.44334 0.0
C128 C 0.03815 0.47797 0.31762 0.0
H129 H 0.21674 0.64431 0.4589 0.0
H130 H 0.18505 0.63014 0.52823 0.0
H131 H 0.05119 0.52717 0.56936 0.0
H132 H 0.98735 0.46267 0.5307 0.0
H133 H 0.92804 0.39674 0.37178 0.0
H134 H 0.95588 0.41342 0.30247 0.0
H135 H 0.09467 0.51166 0.26134 0.0
H136 H 0.16175 0.5739 0.29923 0.0
H137 H 0.1444 0.412 0.36202 0.0
H138 H 0.19261 0.47193 0.48746 0.0
H139 H 0.96695 0.57928 0.34001 0.0
H140 H 0.00235 0.63079 0.46873 0.0
C141 C 0.09808 0.59377 0.85837 0.0
C142 C 0.13098 0.61952 0.88958 0.0
C143 C 0.11752 0.61045 0.92535 0.0
C144 C 0.07747 0.57975 0.91401 0.0
N145 N 0.06464 0.5685 0.8731 0.0
Co146 Co 0.00893 0.52486 0.84343 0.0
N147 N 0.98715 0.51328 0.89625 0.0
C148 C 0.00586 0.53352 0.93454 0.0
C149 C 0.98364 0.51832 0.96473 0.0
C150 C 0.94898 0.48623 0.94453 0.0
C151 C 0.95213 0.48374 0.90305 0.0
N152 N 0.95454 0.48017 0.81376 0.0
C153 C 0.92363 0.45328 0.82846 0.0
C154 C 0.89262 0.42586 0.79728 0.0
C155 C 0.90504 0.43532 0.76144 0.0
C156 C 0.94274 0.46781 0.77278 0.0
N157 N 0.02948 0.53735 0.79063 0.0
C158 C 0.00764 0.51948 0.75246 0.0
C159 C 0.0285 0.53565 0.72236 0.0
C160 C 0.06549 0.56605 0.74252 0.0
C161 C 0.06503 0.56658 0.78389 0.0
N162 N 0.05129 0.49058 0.84118 0.0
C163 C 0.11557 0.44502 0.83754 0.0
C164 C 0.08812 0.4453 0.80227 0.0
C165 C 0.05639 0.46799 0.80477 0.0
C166 C 0.10912 0.46715 0.87481 0.0
C167 C 0.07703 0.48942 0.87594 0.0
N168 N 0.96686 0.55955 0.84558 0.0
C169 C 0.9062 0.58103 0.81282 0.0
C170 C 0.91552 0.61375 0.8443 0.0
C171 C 0.94917 0.61815 0.87732 0.0
C172 C 0.97361 0.5906 0.87768 0.0
C173 C 0.9323 0.55461 0.81392 0.0
H174 H 0.99846 0.59556 0.90396 0.0
H175 H 0.92457 0.53096 0.78828 0.0
H176 H 0.03662 0.46704 0.77681 0.0
H177 H 0.07414 0.50587 0.90526 0.0
C178 C 0.04829 0.56339 0.9411 0.0
C179 C 0.09848 0.59586 0.81559 0.0
C180 C 0.92372 0.45146 0.87133 0.0
C181 C 0.968 0.48731 0.74584 0.0
H182 H 0.16083 0.64308 0.88685 0.0
H183 H 0.13397 0.62529 0.95606 0.0
H184 H 0.99307 0.52833 0.9975 0.0
H185 H 0.92523 0.46626 0.95875 0.0
H186 H 0.86452 0.4012 0.8002 0.0
H187 H 0.88904 0.41999 0.73075 0.0
H188 H 0.01785 0.52657 0.68969 0.0
H189 H 0.08982 0.58583 0.72845 0.0
H190 H 0.09108 0.4281 0.77274 0.0
H191 H 0.12975 0.46824 0.903 0.0
H192 H 0.88025 0.57657 0.78665 0.0
H193 H 0.95684 0.64292 0.90267 0.0
C194 C 0.35886 0.98666 0.6386 0.0
C195 C 0.40084 0.98593 0.65986 0.0
C196 C 0.43799 0.01127 0.64833 0.0
C197 C 0.41666 0.02615 0.62101 0.0
N198 N 0.36809 0.01179 0.61424 0.0
Co199 Co 0.32285 0.02678 0.57795 0.0
N200 N 0.37777 0.06313 0.56015 0.0
C201 C 0.42544 0.06854 0.57004 0.0
C202 C 0.45468 0.09482 0.55261 0.0
C203 C 0.42386 0.10708 0.53036 0.0
C204 C 0.37743 0.08765 0.53577 0.0
N205 N 0.27745 0.04304 0.54321 0.0
C206 C 0.2865 0.07056 0.52178 0.0
C207 C 0.2441 0.07442 0.50423 0.0
C208 C 0.207 0.04843 0.51489 0.0
C209 C 0.22867 0.03048 0.5385 0.0
N210 N 0.26808 0.98919 0.59441 0.0
C211 C 0.22074 0.98055 0.58072 0.0
C212 C 0.1917 0.95243 0.59588 0.0
C213 C 0.22226 0.94227 0.62062 0.0
C214 C 0.26841 0.96512 0.61938 0.0
N215 N 0.31808 0.06764 0.62471 0.0
C216 C 0.31059 0.12903 0.68665 0.0
C217 C 0.2696 0.09999 0.66772 0.0
C218 C 0.27409 0.06988 0.63695 0.0
C219 C 0.35552 0.12631 0.67492 0.0
C220 C 0.35848 0.09542 0.64444 0.0
N221 N 0.32751 0.98602 0.5308 0.0
C222 C 0.29051 0.93811 0.46921 0.0
C223 C 0.33317 0.92763 0.46422 0.0
C224 C 0.37318 0.94711 0.49288 0.0
C225 C 0.36969 0.97613 0.52552 0.0
C226 C 0.28841 0.96694 0.50245 0.0
H227 H 0.40155 0.98994 0.54615 0.0
H228 H 0.25449 0.97287 0.50468 0.0
H229 H 0.24136 0.04905 0.62316 0.0
H230 H 0.39381 0.09478 0.63709 0.0
C231 C 0.44141 0.05153 0.59907 0.0
C232 C 0.31125 0.96268 0.64233 0.0
C233 C 0.3343 0.09438 0.51816 0.0
C234 C 0.20435 1.00104 0.55573 0.0
H235 H 0.40427 0.96861 0.68123 0.0
H236 H 0.47609 0.01765 0.65818 0.0
H237 H 0.49372 0.10473 0.55662 0.0
H238 H 0.43432 0.12844 0.51276 0.0
H239 H 0.24023 0.09418 0.48591 0.0
H240 H 0.16876 0.04337 0.50661 0.0
H241 H 0.15286 0.94096 0.58998 0.0
H242 H 0.21166 0.92052 0.6377 0.0
H243 H 0.23403 0.10093 0.6759 0.0
H244 H 0.38837 0.14781 0.68941 0.0
H245 H 0.25824 0.92336 0.44821 0.0
H246 H 0.40711 0.94003 0.49016 0.0
C247 C 0.51055 0.83821 0.10301 0.0
C248 C 0.50988 0.87302 0.12725 0.0
C249 C 0.55159 0.89903 0.12301 0.0
C250 C 0.57523 0.87878 0.09641 0.0
N251 N 0.55078 0.84172 0.08319 0.0
Co252 Co 0.57297 0.80251 0.04546 0.0
N253 N 0.62299 0.8418 0.02761 0.0
C254 C 0.63993 0.87875 0.04712 0.0
C255 C 0.67462 0.89908 0.02763 0.0
C256 C 0.68006 0.87325 0.99386 0.0
C257 C 0.6483 0.83848 0.99473 0.0
N258 N 0.59522 0.7633 0.00794 0.0
C259 C 0.62234 0.76656 0.97645 0.0
C260 C 0.62983 0.73181 0.95839 0.0
C261 C 0.60696 0.70615 0.97967 0.0
C262 C 0.58681 0.7265 0.00936 0.0
N263 N 0.52331 0.76299 0.06336 0.0
C264 C 0.52249 0.72616 0.05868 0.0
C265 C 0.48483 0.70559 0.07511 0.0
C266 C 0.46072 0.73112 0.09171 0.0
C267 C 0.48519 0.76607 0.08446 0.0
N268 N 0.52665 0.80242 0.00113 0.0
C269 C 0.46362 0.80145 0.9346 0.0
C270 C 0.4674 0.7675 0.94399 0.0
C271 C 0.499 0.7686 0.97716 0.0
C272 C 0.49157 0.83599 0.95989 0.0
C273 C 0.52278 0.83584 0.99296 0.0
N274 N 0.61953 0.80246 0.0897 0.0
C275 C 0.63763 0.79899 0.15918 0.0
C276 C 0.68417 0.79686 0.15137 0.0
C277 C 0.6981 0.79885 0.11234 0.0
C278 C 0.66539 0.80171 0.08207 0.0
C279 C 0.606 0.80182 0.12805 0.0
H280 H 0.67697 0.80238 0.05218 0.0
H281 H 0.57028 0.80274 0.13497 0.0
H282 H 0.50127 0.74197 0.98323 0.0
H283 H 0.54416 0.8628 0.01163 0.0
C284 C 0.61714 0.89421 0.07952 0.0
C285 C 0.47485 0.80204 0.10273 0.0
C286 C 0.64568 0.80253 0.96564 0.0
C287 C 0.55378 0.71097 0.03439 0.0
H288 H 0.48254 0.87886 0.14655 0.0
H289 H 0.56282 0.92922 0.13704 0.0
H290 H 0.69259 0.92931 0.0361 0.0
H291 H 0.70473 0.87924 0.97132 0.0
H292 H 0.65029 0.72572 0.9329 0.0
H293 H 0.60409 0.67602 0.97337 0.0
H294 H 0.47551 0.67551 0.07452 0.0
H295 H 0.4295 0.72484 0.10831 0.0
H296 H 0.4457 0.74007 0.92611 0.0
H297 H 0.48996 0.86296 0.95387 0.0
H298 H 0.62547 0.79813 0.18903 0.0
H299 H 0.73347 0.79686 0.10465 0.0
C300 C 0.86673 0.97349 0.67124 0.0
C301 C 0.90883 0.96917 0.68881 0.0
C302 C 0.94634 0.9945 0.67773 0.0
C303 C 0.9252 0.01255 0.65386 0.0
N304 N 0.87639 1.00067 0.64938 0.0
Co305 Co 0.83176 0.01712 0.61416 0.0
N306 N 0.88703 0.05501 0.59857 0.0
C307 C 0.93429 0.06294 0.6121 0.0
C308 C 0.96361 0.09219 0.5987 0.0
C309 C 0.93324 0.10409 0.57561 0.0
C310 C 0.88698 0.08106 0.57597 0.0
N311 N 0.78733 0.03223 0.57744 0.0
C312 C 0.79689 0.05895 0.55501 0.0
C313 C 0.75543 0.05905 0.53241 0.0
C314 C 0.71826 0.03211 0.54162 0.0
C315 C 0.73904 0.01685 0.56885 0.0
N316 N 0.77626 0.9809 0.63149 0.0
C317 C 0.72875 0.97528 0.62063 0.0
C318 C 0.69893 0.94956 0.63832 0.0
C319 C 0.72919 0.93792 0.66183 0.0
C320 C 0.7759 0.95708 0.65678 0.0
N321 N 0.8265 0.05769 0.66098 0.0
C322 C 0.81875 0.1142 0.72842 0.0
C323 C 0.77965 0.09557 0.69862 0.0
C324 C 0.78416 0.06744 0.66553 0.0
C325 C 0.86187 0.10435 0.72377 0.0
C326 C 0.86506 0.07647 0.68995 0.0
N327 N 0.83705 0.9761 0.56749 0.0
C328 C 0.80071 0.9159 0.51908 0.0
C329 C 0.84578 0.91347 0.50722 0.0
C330 C 0.88613 0.94383 0.52504 0.0
C331 C 0.88104 0.97447 0.55482 0.0
C332 C 0.79715 0.9473 0.54861 0.0
H333 H 0.91341 0.99622 0.56746 0.0
H334 H 0.76171 0.9472 0.55613 0.0
H335 H 0.75285 0.05391 0.6441 0.0
H336 H 0.89916 0.07068 0.6879 0.0
C337 C 0.95005 0.04187 0.63671 0.0
C338 C 0.81858 0.95034 0.67517 0.0
C339 C 0.84413 0.08551 0.55501 0.0
C340 C 0.71359 0.99157 0.59056 0.0
H341 H 0.91227 0.94956 0.70744 0.0
H342 H 0.98448 0.99917 0.68604 0.0
H343 H 0.0024 0.10369 0.60522 0.0
H344 H 0.94395 0.12736 0.56056 0.0
H345 H 0.75214 0.07724 0.51199 0.0
H346 H 0.68037 0.02538 0.53083 0.0
H347 H 0.6599 0.93961 0.63371 0.0
H348 H 0.71821 0.91704 0.67993 0.0
H349 H 0.74545 0.10223 0.70114 0.0
H350 H 0.89334 0.11852 0.74584 0.0
H351 H 0.76817 0.89326 0.5065 0.0
H352 H 0.92177 0.9441 0.51619 0.0
C353 C 0.45389 0.31053 0.23205 0.0
C354 C 0.44913 0.3446 0.25496 0.0
C355 C 0.47899 0.37296 0.24092 0.0
C356 C 0.50034 0.35466 0.21051 0.0
N357 N 0.48511 0.31626 0.20361 0.0
Co358 Co 0.51002 0.27855 0.16513 0.0
N359 N 0.5597 0.32028 0.14925 0.0
C360 C 0.56547 0.35817 0.16157 0.0
C361 C 0.60197 0.37981 0.14495 0.0
C362 C 0.62057 0.35426 0.1204 0.0
C363 C 0.59431 0.31836 0.12359 0.0
N364 N 0.5357 0.24072 0.12764 0.0
C365 C 0.57316 0.24634 0.10468 0.0
C366 C 0.57983 0.21205 0.08405 0.0
C367 C 0.54512 0.18381 0.094 0.0
C368 C 0.5195 0.20229 0.12022 0.0
N369 N 0.45992 0.23689 0.18051 0.0
C370 C 0.45006 0.199 0.16467 0.0
C371 C 0.41459 0.17751 0.18242 0.0
C372 C 0.40168 0.20316 0.21191 0.0
C373 C 0.43031 0.23889 0.21046 0.0
N374 N 0.46401 0.27849 0.11897 0.0
C375 C 0.40999 0.27955 0.04733 0.0
C376 C 0.41555 0.24548 0.05449 0.0
C377 C 0.44203 0.24556 0.09029 0.0
C378 C 0.42916 0.31276 0.07782 0.0
C379 C 0.45575 0.31158 0.11315 0.0
N380 N 0.55602 0.27862 0.2107 0.0
C381 C 0.59307 0.24454 0.25019 0.0
C382 C 0.62367 0.27865 0.27377 0.0
C383 C 0.61905 0.31277 0.26581 0.0
C384 C 0.58516 0.31212 0.23447 0.0
C385 C 0.5598 0.24517 0.21904 0.0
H386 H 0.58328 0.33903 0.22982 0.0
H387 H 0.53782 0.21824 0.2018 0.0
H388 H 0.44504 0.21864 0.09341 0.0
H389 H 0.47021 0.33802 0.13465 0.0
C390 C 0.53741 0.37261 0.19013 0.0
C391 C 0.43056 0.27356 0.23999 0.0
C392 C 0.60319 0.28336 0.1012 0.0
C393 C 0.47934 0.18437 0.13754 0.0
H394 H 0.42746 0.34861 0.28005 0.0
H395 H 0.48581 0.40334 0.25262 0.0
H396 H 0.61386 0.41053 0.15028 0.0
H397 H 0.6501 0.36123 0.10215 0.0
H398 H 0.60692 0.20783 0.06378 0.0
H399 H 0.53916 0.15341 0.08328 0.0
H400 H 0.40155 0.14678 0.17621 0.0
H401 H 0.37557 0.19635 0.23317 0.0
H402 H 0.40019 0.21882 0.03216 0.0
H403 H 0.4255 0.33986 0.07375 0.0
H404 H 0.59556 0.21736 0.25496 0.0
H405 H 0.64147 0.33995 0.28371 0.0
C406 C 0.27065 0.39752 0.45999 0.0
C407 C 0.24942 0.35843 0.44489 0.0
H408 H 0.26339 0.45371 0.46489 0.0
C409 C 0.20464 0.3456 0.42104 0.0
H410 H 0.3052 0.40781 0.47866 0.0
C411 C 0.18044 0.37166 0.41339 0.0
C412 C 0.20067 0.41096 0.4297 0.0
H413 H 0.1876 0.31539 0.40951 0.0
H414 H 0.14499 0.3609 0.39622 0.0
C415 C 0.24652 0.42363 0.45239 0.0
C416 C 0.21103 0.66288 0.79199 0.0
C417 C 0.19563 0.69546 0.7913 0.0
H418 H 0.19189 0.60561 0.80011 0.0
C419 C 0.14708 0.694 0.79616 0.0
H420 H 0.248 0.66291 0.78782 0.0
C421 C 0.11516 0.66116 0.80293 0.0
C422 C 0.13121 0.6293 0.80483 0.0
H423 H 0.13419 0.71869 0.79628 0.0
H424 H 0.07826 0.66093 0.80775 0.0
C425 C 0.17907 0.63008 0.79876 0.0
C426 C 0.95465 0.68628 0.35694 0.0
C427 C 0.92153 0.6984 0.38211 0.0
H428 H 0.99977 0.64915 0.34417 0.0
C429 C 0.91087 0.6828 0.4163 0.0
H430 H 0.96468 0.69837 0.33098 0.0
C431 C 0.93142 0.65456 0.42404 0.0
C432 C 0.96273 0.6413 0.39759 0.0
H433 H 0.88538 0.69141 0.43619 0.0
H434 H 0.92157 0.6422 0.44986 0.0
C435 C 0.97478 0.65804 0.36448 0.0
C436 C 0.90059 0.34894 0.87711 0.0
C437 C 0.85597 0.34176 0.8934 0.0
H438 H 0.95684 0.38955 0.85773 0.0
C439 C 0.83508 0.37183 0.90507 0.0
H440 H 0.91799 0.32652 0.86849 0.0
C441 C 0.85757 0.40799 0.89892 0.0
C442 C 0.90138 0.41452 0.8815 0.0
H443 H 0.80069 0.36704 0.91757 0.0
H444 H 0.84033 0.43059 0.90683 0.0
C445 C 0.92299 0.38493 0.87115 0.0
C446 C 0.32994 0.15298 0.43965 0.0
C447 C 0.34133 0.19006 0.46464 0.0
H448 H 0.3188 0.09346 0.43726 0.0
C449 C 0.35305 0.19543 0.50701 0.0
H450 H 0.32034 0.14783 0.40699 0.0
C451 C 0.35181 0.16436 0.52415 0.0
C452 C 0.33887 0.12738 0.49929 0.0
H453 H 0.3627 0.22367 0.52701 0.0
H454 H 0.36 0.16908 0.55695 0.0
C455 C 0.32874 0.12189 0.45687 0.0
C456 C 0.38593 0.76657 0.83245 0.0
C457 C 0.35528 0.79034 0.83689 0.0
H458 H 0.44508 0.75217 0.85918 0.0
C459 C 0.36415 0.82084 0.87136 0.0
H460 H 0.37962 0.7428 0.80612 0.0
C461 C 0.40101 0.82578 0.90237 0.0
C462 C 0.42964 0.80031 0.89928 0.0
H463 H 0.34045 0.83916 0.87566 0.0
H464 H 0.40504 0.84806 0.9298 0.0
C465 C 0.42292 0.77166 0.86313 0.0
C466 C 0.89647 0.83433 0.45248 0.0
C467 C 0.86049 0.81485 0.41969 0.0
H468 H 0.91974 0.87978 0.50596 0.0
C469 C 0.8194 0.82797 0.41618 0.0
H470 H 0.92895 0.82552 0.45601 0.0
C471 C 0.81474 0.85992 0.44426 0.0
C472 C 0.85078 0.87946 0.47701 0.0
H473 H 0.79056 0.81349 0.39174 0.0
H474 H 0.78305 0.86951 0.43988 0.0
C475 C 0.89156 0.86602 0.48083 0.0
C476 C 0.72629 0.28854 0.06491 0.0
C477 C 0.7145 0.27715 0.02233 0.0
H478 H 0.69957 0.29979 0.12356 0.0
C479 C 0.66699 0.27131 0.00562 0.0
H480 H 0.76272 0.29263 0.07828 0.0
C481 C 0.63109 0.27525 0.03136 0.0
C482 C 0.64238 0.28495 0.07403 0.0
H483 H 0.6572 0.26198 0.97281 0.0
H484 H 0.59414 0.26913 0.01809 0.0
C485 C 0.69037 0.29251 0.09068 0.0
C486 C 0.274 0.91083 0.72605 0.0
C487 C 0.2841 0.87613 0.71086 0.0
H488 H 0.27526 0.96588 0.71603 0.0
C489 C 0.30714 0.87122 0.67511 0.0
H490 H 0.25551 0.91486 0.75326 0.0
C491 C 0.3182 0.90021 0.65382 0.0
C492 C 0.30609 0.9343 0.66799 0.0
H493 H 0.31448 0.84436 0.6626 0.0
H494 H 0.33421 0.89542 0.62536 0.0
C495 C 0.28503 0.93981 0.70478 0.0
C496 C 0.73013 0.75516 0.23348 0.0
C497 C 0.77997 0.7717 0.23636 0.0
H498 H 0.66063 0.74996 0.20407 0.0
C499 C 0.79829 0.79857 0.21364 0.0
H500 H 0.71554 0.73398 0.25053 0.0
C501 C 0.76703 0.80791 0.18711 0.0
C502 C 0.71698 0.79032 0.1828 0.0
H503 H 0.83684 0.8114 0.21539 0.0
H504 H 0.78213 0.82833 0.16937 0.0
C505 C 0.69882 0.76442 0.20698 0.0
C506 C 0.79306 0.20216 0.79145 0.0
C507 C 0.81092 0.20243 0.83115 0.0
H508 H 0.78128 0.17385 0.72785 0.0
C509 C 0.83013 0.17292 0.83702 0.0
H510 H 0.77782 0.22449 0.78615 0.0
C511 C 0.83242 0.14414 0.80368 0.0
C512 C 0.81494 0.14405 0.76392 0.0
H513 H 0.84444 0.17261 0.86727 0.0
H514 H 0.84783 0.1219 0.80897 0.0
C515 C 0.79475 0.17311 0.75819 0.0
C516 C 0.34714 0.27343 0.32376 0.0
C517 C 0.37239 0.26235 0.35368 0.0
H518 H 0.34593 0.28562 0.2641 0.0
C519 C 0.4173 0.25579 0.34598 0.0
H520 H 0.31222 0.27824 0.32847 0.0
C521 C 0.43625 0.25989 0.3092 0.0
C522 C 0.41087 0.27083 0.27953 0.0
H523 H 0.43805 0.24778 0.36853 0.0
H524 H 0.47076 0.25449 0.30382 0.0
C525 C 0.36621 0.27756 0.28696 0.0
C526 C 0.89946 0.70965 0.83893 0.0
C527 C 0.84905 0.70149 0.83264 0.0
H528 H 0.95993 0.68811 0.84831 0.0
C529 C 0.8203 0.66457 0.8314 0.0
H530 H 0.92221 0.73798 0.83993 0.0
C531 C 0.84181 0.6359 0.83535 0.0
C532 C 0.89229 0.64407 0.84161 0.0
H533 H 0.78132 0.65774 0.82637 0.0
H534 H 0.81911 0.60739 0.83355 0.0
C535 C 0.92091 0.68127 0.84384 0.0
C536 C 0.879 0.37677 0.46748 0.0
C537 C 0.88911 0.34208 0.45122 0.0
H538 H 0.90277 0.43767 0.47778 0.0
C539 C 0.93575 0.34292 0.44039 0.0
H540 H 0.84348 0.377 0.47635 0.0
C541 C 0.9697 0.37767 0.44159 0.0
C542 C 0.9576 0.41204 0.45379 0.0
H543 H 0.94454 0.31678 0.42738 0.0
H544 H 0.00399 0.37759 0.42987 0.0
C545 C 0.91288 0.41148 0.4685 0.0
C546 C 0.21798 0.40403 0.80243 0.0
C547 C 0.22583 0.38643 0.83392 0.0
H548 H 0.1772 0.43663 0.77899 0.0
C549 C 0.19618 0.38641 0.86569 0.0
H550 H 0.24089 0.40451 0.77781 0.0
C551 C 0.15951 0.40459 0.8664 0.0
C552 C 0.15206 0.42317 0.83536 0.0
H553 H 0.20191 0.37296 0.89031 0.0
H554 H 0.13722 0.40433 0.89142 0.0
C555 C 0.18139 0.42221 0.80307 0.0
C556 C 0.20513 0.69061 0.36954 0.0
C557 C 0.24464 0.68829 0.34727 0.0
H558 H 0.14774 0.66119 0.39911 0.0
C559 C 0.25835 0.65435 0.33973 0.0
H560 H 0.19376 0.71643 0.37559 0.0
C561 C 0.23267 0.62314 0.3539 0.0
C562 C 0.19218 0.6251 0.37488 0.0
H563 H 0.28896 0.65205 0.32296 0.0
H564 H 0.24367 0.59715 0.3477 0.0
C565 C 0.17891 0.65917 0.38298 0.0
C566 C 0.79739 0.84832 0.68352 0.0
C567 C 0.81023 0.85294 0.72539 0.0
H568 H 0.79012 0.87609 0.63486 0.0
C569 C 0.82311 0.88942 0.75141 0.0
H570 H 0.78783 0.82032 0.66299 0.0
C571 C 0.82441 0.92123 0.73537 0.0
C572 C 0.81326 0.91673 0.69316 0.0
H573 H 0.83358 0.89341 0.78377 0.0
H574 H 0.83546 0.94938 0.75559 0.0
C575 C 0.79884 0.88004 0.66749 0.0
C576 C 0.68761 0.25224 0.35984 0.0
C577 C 0.73456 0.2766 0.36297 0.0
H578 H 0.61551 0.23417 0.32966 0.0
C579 C 0.7443 0.30215 0.3372 0.0
H580 H 0.67886 0.2325 0.37952 0.0
C581 C 0.70812 0.30317 0.30882 0.0
C582 C 0.66133 0.27856 0.30535 0.0
H583 H 0.7803 0.32072 0.33813 0.0
H584 H 0.7172 0.32255 0.28878 0.0
C585 C 0.65138 0.2532 0.3313 0.0
C586 C 0.27659 0.18728 0.78169 0.0
C587 C 0.30278 0.22447 0.78091 0.0
H588 H 0.25839 0.1279 0.75233 0.0
C589 C 0.32988 0.2302 0.74803 0.0
H590 H 0.2554 0.1821 0.80669 0.0
C591 C 0.33203 0.19923 0.71724 0.0
C592 C 0.30663 0.16195 0.71845 0.0
H593 H 0.35085 0.25851 0.7469 0.0
H594 H 0.3538 0.2044 0.69258 0.0
C595 C 0.2782 0.15633 0.75059 0.0
C596 C 0.41915 0.79636 0.20138 0.0
C597 C 0.37002 0.78188 0.18695 0.0
H598 H 0.49128 0.81483 0.18542 0.0
C599 C 0.35499 0.77882 0.14579 0.0
H600 H 0.43137 0.79835 0.23294 0.0
C601 C 0.38906 0.78823 0.11871 0.0
C602 C 0.43846 0.80086 0.1326 0.0
H603 H 0.31718 0.76713 0.13406 0.0
H604 H 0.37711 0.78356 0.08652 0.0
C605 C 0.45323 0.80584 0.17433 0.0
C606 C 0.8701 0.13821 0.47039 0.0
C607 C 0.84742 0.16709 0.48178 0.0
H608 H 0.88671 0.08951 0.48497 0.0
C609 C 0.82675 0.17095 0.51879 0.0
H610 H 0.88552 0.13444 0.44154 0.0
C611 C 0.82749 0.14535 0.54359 0.0
C612 C 0.84856 0.11548 0.53142 0.0
H613 H 0.80837 0.19271 0.52768 0.0
H614 H 0.81007 0.14793 0.57149 0.0
C615 C 0.87064 0.11253 0.49503 0.0
C616 C 0.33404 0.3032 0.96649 0.0
C617 C 0.34704 0.28363 0.93009 0.0
H618 H 0.34349 0.31711 0.03224 0.0
C619 C 0.38047 0.26267 0.93291 0.0
H620 H 0.30816 0.31939 0.96548 0.0
C621 C 0.40008 0.26101 0.97093 0.0
C622 C 0.38727 0.28061 0.00724 0.0
H623 H 0.39253 0.24815 0.9057 0.0
H624 H 0.42633 0.24511 0.97188 0.0
C625 C 0.35414 0.30184 0.0047 0.0
C626 C 0.30749 0.85663 0.36139 0.0
C627 C 0.32447 0.82724 0.37085 0.0
H628 H 0.29712 0.91173 0.38364 0.0
C629 C 0.34915 0.83297 0.40972 0.0
H630 H 0.28807 0.85284 0.33175 0.0
C631 C 0.35431 0.86654 0.43937 0.0
C632 C 0.33449 0.89493 0.43085 0.0
H633 H 0.36273 0.81076 0.41771 0.0
H634 H 0.37144 0.86932 0.46966 0.0
C635 C 0.31223 0.89011 0.39119 0.0
C636 C 0.76007 0.79623 0.91885 0.0
C637 C 0.74431 0.7863 0.87677 0.0
H638 H 0.74092 0.80988 0.97995 0.0
C639 C 0.69712 0.786 0.86398 0.0
H640 H 0.79633 0.79683 0.92946 0.0
C641 C 0.6654 0.79331 0.89294 0.0
C642 C 0.68083 0.80169 0.93491 0.0
H643 H 0.68405 0.77813 0.83172 0.0
H644 H 0.62837 0.79092 0.88267 0.0
C645 C 0.72865 0.80394 0.94765 0.0
loop_
_geom_bond_atom_site_label_1
_geom_bond_atom_site_label_2
_geom_bond_distance
_geom_bond_site_symmetry_2
_ccdc_geom_bond_type
H0 C3 0.929 . S
H1 C6 0.929 . S
H2 C8 0.930 . S
C3 H0 0.929 . S
C3 C4 1.398 . S
C3 C5 1.396 . S
C4 C3 1.398 . S
C4 C8 1.407 . S
C5 C3 1.396 . S
C5 C6 1.394 . S
C6 H1 0.929 . S
C6 C5 1.394 . S
C6 C7 1.382 . S
C7 C6 1.382 . S
C7 C8 1.392 . S
C7 N9 1.420 . S
C8 H2 0.930 . S
C8 C4 1.407 . S
C8 C7 1.392 . S
N9 C7 1.420 . S
N9 C10 1.244 . S
C10 N9 1.244 . S
H11 C14 0.929 . S
H12 C17 0.929 . S
H13 C19 0.930 . S
C14 H11 0.929 . S
C14 C15 1.398 . S
C14 C16 1.396 . S
C15 C14 1.398 . S
C15 C19 1.407 . S
C16 C14 1.396 . S
C16 C17 1.394 . S
C17 H12 0.929 . S
C17 C16 1.394 . S
C17 C18 1.382 . S
C18 C17 1.382 . S
C18 C19 1.392 . S
C18 N20 1.420 . S
C19 H13 0.930 . S
C19 C15 1.407 . S
C19 C18 1.392 . S
N20 C18 1.420 . S
N20 C21 1.244 . S
C21 N20 1.244 . S
H22 C25 0.929 . S
H23 C28 0.929 . S
H24 C30 0.930 . S
C25 H22 0.929 . S
C25 C26 1.398 . S
C25 C27 1.396 . S
C26 C25 1.398 . S
C26 C30 1.407 . S
C27 C25 1.396 . S
C27 C28 1.394 . S
C28 H23 0.929 . S
C28 C27 1.394 . S
C28 C29 1.382 . S
C29 C28 1.382 . S
C29 C30 1.392 . S
C29 N31 1.420 . S
C30 H24 0.930 . S
C30 C26 1.407 . S
C30 C29 1.392 . S
N31 C29 1.420 . S
N31 C32 1.244 . S
C32 N31 1.244 . S
H33 C36 0.929 . S
H34 C39 0.929 . S
H35 C41 0.930 . S
C36 H33 0.929 . S
C36 C37 1.398 . S
C36 C38 1.396 . S
C37 C36 1.398 . S
C37 C41 1.407 . S
C38 C36 1.396 . S
C38 C39 1.394 . S
C39 H34 0.929 . S
C39 C38 1.394 . S
C39 C40 1.382 . S
C40 C39 1.382 . S
C40 C41 1.392 . S
C40 N42 1.420 . S
C41 H35 0.930 . S
C41 C37 1.407 . S
C41 C40 1.392 . S
N42 C40 1.420 . S
N42 C43 1.244 . S
C43 N42 1.244 . S
H44 C47 0.929 . S
H45 C50 0.929 . S
H46 C52 0.930 . S
C47 H44 0.929 . S
C47 C48 1.398 . S
C47 C49 1.396 . S
C48 C47 1.398 . S
C48 C52 1.407 . S
C49 C47 1.396 . S
C49 C50 1.394 . S
C50 H45 0.929 . S
C50 C49 1.394 . S
C50 C51 1.382 . S
C51 C50 1.382 . S
C51 C52 1.392 . S
C51 N53 1.420 . S
C52 H46 0.930 . S
C52 C48 1.407 . S
C52 C51 1.392 . S
N53 C51 1.420 . S
N53 C54 1.244 . S
C54 N53 1.244 . S
H55 C58 0.929 . S
H56 C61 0.929 . S
H57 C63 0.930 . S
C58 H55 0.929 . S
C58 C59 1.398 . S
C58 C60 1.396 . S
C59 C58 1.398 . S
C59 C63 1.407 . S
C60 C58 1.396 . S
C60 C61 1.394 . S
C61 H56 0.929 . S
C61 C60 1.394 . S
C61 C62 1.382 . S
C62 C61 1.382 . S
C62 C63 1.392 . S
C62 N64 1.420 . S
C63 H57 0.930 . S
C63 C59 1.407 . S
C63 C62 1.392 . S
N64 C62 1.420 . S
N64 C65 1.244 . S
C65 N64 1.244 . S
H66 C69 0.929 . S
H67 C72 0.929 . S
H68 C74 0.930 . S
C69 H66 0.929 . S
C69 C70 1.398 . S
C69 C71 1.396 . S
C70 C69 1.398 . S
C70 C74 1.407 . S
C71 C69 1.396 . S
C71 C72 1.394 . S
C72 H67 0.929 . S
C72 C71 1.394 . S
C72 C73 1.382 . S
C73 C72 1.382 . S
C73 C74 1.392 . S
C73 N75 1.420 . S
C74 H68 0.930 . S
C74 C70 1.407 . S
C74 C73 1.392 . S
N75 C73 1.420 . S
N75 C76 1.244 . S
C76 N75 1.244 . S
H77 C80 0.929 . S
H78 C83 0.929 . S
H79 C85 0.930 . S
C80 H77 0.929 . S
C80 C81 1.398 . S
C80 C82 1.396 . S
C81 C80 1.398 . S
C81 C85 1.407 . S
C82 C80 1.396 . S
C82 C83 1.394 . S
C83 H78 0.929 . S
C83 C82 1.394 . S
C83 C84 1.382 . S
C84 C83 1.382 . S
C84 C85 1.392 . S
C84 N86 1.420 . S
C85 H79 0.930 . S
C85 C81 1.407 . S
C85 C84 1.392 . S
N86 C84 1.420 . S
N86 C87 1.244 . S
C87 N86 1.244 . S
C88 C89 1.443 . S
C88 N92 1.376 . S
C88 C126 1.389 . S
C89 C88 1.443 . S
C89 C90 1.340 . S
C89 H129 0.951 . S
C90 C89 1.340 . S
C90 C91 1.439 . S
C90 H130 0.950 . S
C91 C90 1.439 . S
C91 N92 1.374 . S
C91 C125 1.395 . S
N92 C88 1.376 . S
N92 C91 1.374 . S
N92 Co93 2.008 . S
Co93 N92 2.008 . S
Co93 N94 1.995 . S
Co93 N99 2.008 . S
Co93 N104 1.995 . S
Co93 N109 2.282 . S
Co93 N115 2.282 . S
N94 Co93 1.995 . S
N94 C95 1.376 . S
N94 C98 1.383 . S
C95 N94 1.376 . S
C95 C96 1.446 . S
C95 C125 1.391 . S
C96 C95 1.446 . S
C96 C97 1.339 . S
C96 H131 0.949 . S
C97 C96 1.339 . S
C97 C98 1.439 . S
C97 H132 0.950 1_455 S
C98 N94 1.383 . S
C98 C97 1.439 . S
C98 C127 1.392 1_455 S
N99 Co93 2.008 . S
N99 C100 1.376 1_455 S
N99 C103 1.374 . S
C100 N99 1.376 1_655 S
C100 C101 1.443 . S
C100 C127 1.389 . S
C101 C100 1.443 . S
C101 C102 1.340 . S
C101 H133 0.951 . S
C102 C101 1.340 . S
C102 C103 1.439 1_655 S
C102 H134 0.950 . S
C103 N99 1.374 . S
C103 C102 1.439 1_455 S
C103 C128 1.395 . S
N104 Co93 1.995 . S
N104 C105 1.376 . S
N104 C108 1.383 . S
C105 N104 1.376 . S
C105 C106 1.446 . S
C105 C128 1.391 . S
C106 C105 1.446 . S
C106 C107 1.339 . S
C106 H135 0.949 . S
C107 C106 1.339 . S
C107 C108 1.439 . S
C107 H136 0.950 . S
C108 N104 1.383 . S
C108 C107 1.439 . S
C108 C126 1.392 . S
N109 Co93 2.282 . S
N109 C112 1.332 . S
N109 C114 1.332 . S
C110 C111 1.386 . S
C110 C113 1.388 . S
C111 C110 1.386 . S
C111 C112 1.382 . S
C111 H137 0.950 . S
C112 N109 1.332 . S
C112 C111 1.382 . S
C112 H123 0.952 . S
C113 C110 1.388 . S
C113 C114 1.382 . S
C113 H138 0.950 . S
C114 N109 1.332 . S
C114 C113 1.382 . S
C114 H124 0.948 . S
N115 Co93 2.282 . S
N115 C119 1.332 . S
N115 C120 1.332 . S
C116 C117 1.388 . S
C116 C120 1.382 1_655 S
C116 H139 0.950 . S
C117 C116 1.388 . S
C117 C118 1.386 . S
C118 C117 1.386 . S
C118 C119 1.382 1_655 S
C118 H140 0.950 . S
C119 N115 1.332 . S
C119 C118 1.382 1_455 S
C119 H121 0.952 . S
C120 N115 1.332 . S
C120 C116 1.382 1_455 S
C120 H122 0.948 . S
H121 C119 0.952 . S
H122 C120 0.948 . S
H123 C112 0.952 . S
H124 C114 0.948 . S
C125 C91 1.395 . S
C125 C95 1.391 . S
C126 C88 1.389 . S
C126 C108 1.392 . S
C127 C98 1.392 1_655 S
C127 C100 1.389 . S
C128 C103 1.395 . S
C128 C105 1.391 . S
H129 C89 0.951 . S
H130 C90 0.950 . S
H131 C96 0.949 . S
H132 C97 0.950 1_655 S
H133 C101 0.951 . S
H134 C102 0.950 . S
H135 C106 0.949 . S
H136 C107 0.950 . S
H137 C111 0.950 . S
H138 C113 0.950 . S
H139 C116 0.950 . S
H140 C118 0.950 . S
C141 C142 1.443 . S
C141 N145 1.376 . S
C141 C179 1.389 . S
C142 C141 1.443 . S
C142 C143 1.340 . S
C142 H182 0.951 . S
C143 C142 1.340 . S
C143 C144 1.439 . S
C143 H183 0.950 . S
C144 C143 1.439 . S
C144 N145 1.374 . S
C144 C178 1.395 . S
N145 C141 1.376 . S
N145 C144 1.374 . S
N145 Co146 2.008 . S
Co146 N145 2.008 . S
Co146 N147 1.995 1_455 S
Co146 N152 2.008 1_455 S
Co146 N157 1.995 . S
Co146 N162 2.282 . S
Co146 N168 2.282 1_455 S
N147 Co146 1.995 1_655 S
N147 C148 1.376 1_655 S
N147 C151 1.383 . S
C148 N147 1.376 1_455 S
C148 C149 1.446 1_455 S
C148 C178 1.391 . S
C149 C148 1.446 1_655 S
C149 C150 1.339 . S
C149 H184 0.949 . S
C150 C149 1.339 . S
C150 C151 1.439 . S
C150 H185 0.950 . S
C151 N147 1.383 . S
C151 C150 1.439 . S
C151 C180 1.392 . S
N152 Co146 2.008 1_655 S
N152 C153 1.376 . S
N152 C156 1.374 . S
C153 N152 1.376 . S
C153 C154 1.443 . S
C153 C180 1.389 . S
C154 C153 1.443 . S
C154 C155 1.340 . S
C154 H186 0.951 . S
C155 C154 1.340 . S
C155 C156 1.439 . S
C155 H187 0.950 . S
C156 N152 1.374 . S
C156 C155 1.439 . S
C156 C181 1.395 . S
N157 Co146 1.995 . S
N157 C158 1.376 . S
N157 C161 1.383 . S
C158 N157 1.376 . S
C158 C159 1.446 . S
C158 C181 1.391 1_455 S
C159 C158 1.446 . S
C159 C160 1.339 . S
C159 H188 0.949 . S
C160 C159 1.339 . S
C160 C161 1.439 . S
C160 H189 0.950 . S
C161 N157 1.383 . S
C161 C160 1.439 . S
C161 C179 1.392 . S
N162 Co146 2.282 . S
N162 C165 1.332 . S
N162 C167 1.332 . S
C163 C164 1.386 . S
C163 C166 1.388 . S
C164 C163 1.386 . S
C164 C165 1.382 . S
C164 H190 0.950 . S
C165 N162 1.332 . S
C165 C164 1.382 . S
C165 H176 0.952 . S
C166 C163 1.388 . S
C166 C167 1.382 . S
C166 H191 0.950 . S
C167 N162 1.332 . S
C167 C166 1.382 . S
C167 H177 0.948 . S
N168 Co146 2.282 1_655 S
N168 C172 1.332 . S
N168 C173 1.332 . S
C169 C170 1.388 . S
C169 C173 1.382 . S
C169 H192 0.950 . S
C170 C169 1.388 . S
C170 C171 1.386 . S
C171 C170 1.386 . S
C171 C172 1.382 . S
C171 H193 0.950 . S
C172 N168 1.332 . S
C172 C171 1.382 . S
C172 H174 0.952 . S
C173 N168 1.332 . S
C173 C169 1.382 . S
C173 H175 0.948 . S
H174 C172 0.952 . S
H175 C173 0.948 . S
H176 C165 0.952 . S
H177 C167 0.948 . S
C178 C144 1.395 . S
C178 C148 1.391 . S
C179 C141 1.389 . S
C179 C161 1.392 . S
C180 C151 1.392 . S
C180 C153 1.389 . S
C181 C156 1.395 . S
C181 C158 1.391 1_655 S
H182 C142 0.951 . S
H183 C143 0.950 . S
H184 C149 0.949 . S
H185 C150 0.950 . S
H186 C154 0.951 . S
H187 C155 0.950 . S
H188 C159 0.949 . S
H189 C160 0.950 . S
H190 C164 0.950 . S
H191 C166 0.950 . S
H192 C169 0.950 . S
H193 C171 0.950 . S
C194 C195 1.443 . S
C194 N198 1.376 1_565 S
C194 C232 1.389 . S
C195 C194 1.443 . S
C195 C196 1.340 1_565 S
C195 H235 0.951 . S
C196 C195 1.340 1_545 S
C196 C197 1.439 . S
C196 H236 0.950 . S
C197 C196 1.439 . S
C197 N198 1.374 . S
C197 C231 1.395 . S
N198 C194 1.376 1_545 S
N198 C197 1.374 . S
N198 Co199 2.008 . S
Co199 N198 2.008 . S
Co199 N200 1.995 . S
Co199 N205 2.008 . S
Co199 N210 1.995 . S
Co199 N215 2.282 . S
Co199 N221 2.282 1_545 S
N200 Co199 1.995 . S
N200 C201 1.376 . S
N200 C204 1.383 . S
C201 N200 1.376 . S
C201 C202 1.446 . S
C201 C231 1.391 . S
C202 C201 1.446 . S
C202 C203 1.339 . S
C202 H237 0.949 . S
C203 C202 1.339 . S
C203 C204 1.439 . S
C203 H238 0.950 . S
C204 N200 1.383 . S
C204 C203 1.439 . S
C204 C233 1.392 . S
N205 Co199 2.008 . S
N205 C206 1.376 . S
N205 C209 1.374 . S
C206 N205 1.376 . S
C206 C207 1.443 . S
C206 C233 1.389 . S
C207 C206 1.443 . S
C207 C208 1.340 . S
C207 H239 0.951 . S
C208 C207 1.340 . S
C208 C209 1.439 . S
C208 H240 0.950 . S
C209 N205 1.374 . S
C209 C208 1.439 . S
C209 C234 1.395 . S
N210 Co199 1.995 . S
N210 C211 1.376 1_545 S
N210 C214 1.383 1_545 S
C211 N210 1.376 1_565 S
C211 C212 1.446 . S
C211 C234 1.391 1_565 S
C212 C211 1.446 . S
C212 C213 1.339 . S
C212 H241 0.949 . S
C213 C212 1.339 . S
C213 C214 1.439 . S
C213 H242 0.950 . S
C214 N210 1.383 1_565 S
C214 C213 1.439 . S
C214 C232 1.392 . S
N215 Co199 2.282 . S
N215 C218 1.332 . S
N215 C220 1.332 . S
C216 C217 1.386 . S
C216 C219 1.388 . S
C217 C216 1.386 . S
C217 C218 1.382 . S
C217 H243 0.950 . S
C218 N215 1.332 . S
C218 C217 1.382 . S
C218 H229 0.952 . S
C219 C216 1.388 . S
C219 C220 1.382 . S
C219 H244 0.950 . S
C220 N215 1.332 . S
C220 C219 1.382 . S
C220 H230 0.948 . S
N221 Co199 2.282 1_565 S
N221 C225 1.332 . S
N221 C226 1.332 . S
C222 C223 1.388 . S
C222 C226 1.382 . S
C222 H245 0.950 . S
C223 C222 1.388 . S
C223 C224 1.386 . S
C224 C223 1.386 . S
C224 C225 1.382 . S
C224 H246 0.950 . S
C225 N221 1.332 . S
C225 C224 1.382 . S
C225 H227 0.952 1_565 S
C226 N221 1.332 . S
C226 C222 1.382 . S
C226 H228 0.948 . S
H227 C225 0.952 1_545 S
H228 C226 0.948 . S
H229 C218 0.952 . S
H230 C220 0.948 . S
C231 C197 1.395 . S
C231 C201 1.391 . S
C232 C194 1.389 . S
C232 C214 1.392 . S
C233 C204 1.392 . S
C233 C206 1.389 . S
C234 C209 1.395 . S
C234 C211 1.391 1_545 S
H235 C195 0.951 . S
H236 C196 0.950 . S
H237 C202 0.949 . S
H238 C203 0.950 . S
H239 C207 0.951 . S
H240 C208 0.950 . S
H241 C212 0.949 . S
H242 C213 0.950 . S
H243 C217 0.950 . S
H244 C219 0.950 . S
H245 C222 0.950 . S
H246 C224 0.950 . S
C247 C248 1.443 . S
C247 N251 1.376 . S
C247 C285 1.389 . S
C248 C247 1.443 . S
C248 C249 1.340 . S
C248 H288 0.951 . S
C249 C248 1.340 . S
C249 C250 1.439 . S
C249 H289 0.950 . S
C250 C249 1.439 . S
C250 N251 1.374 . S
C250 C284 1.395 . S
N251 C247 1.376 . S
N251 C250 1.374 . S
N251 Co252 2.008 . S
Co252 N251 2.008 . S
Co252 N253 1.995 1_554 S
Co252 N258 2.008 1_554 S
Co252 N263 1.995 . S
Co252 N268 2.282 1_554 S
Co252 N274 2.282 . S
N253 Co252 1.995 1_556 S
N253 C254 1.375 1_556 S
N253 C257 1.383 . S
C254 N253 1.375 1_554 S
C254 C255 1.442 1_554 S
C254 C284 1.395 . S
C255 C254 1.442 1_556 S
C255 C256 1.339 . S
C255 H290 0.949 . S
C256 C255 1.339 . S
C256 C257 1.439 . S
C256 H291 0.950 . S
C257 N253 1.383 . S
C257 C256 1.439 . S
C257 C286 1.392 . S
N258 Co252 2.008 1_556 S
N258 C259 1.376 . S
N258 C262 1.374 . S
C259 N258 1.376 . S
C259 C260 1.443 . S
C259 C286 1.389 . S
C260 C259 1.443 . S
C260 C261 1.340 . S
C260 H292 0.951 . S
C261 C260 1.340 . S
C261 C262 1.439 . S
C261 H293 0.950 . S
C262 N258 1.374 . S
C262 C261 1.439 . S
C262 C287 1.395 . S
N263 Co252 1.995 . S
N263 C264 1.376 . S
N263 C267 1.383 . S
C264 N263 1.376 . S
C264 C265 1.446 . S
C264 C287 1.391 1_554 S
C265 C264 1.446 . S
C265 C266 1.339 . S
C265 H294 0.949 . S
C266 C265 1.339 . S
C266 C267 1.439 . S
C266 H295 0.950 . S
C267 N263 1.383 . S
C267 C266 1.439 . S
C267 C285 1.392 . S
N268 Co252 2.282 1_556 S
N268 C271 1.332 . S
N268 C273 1.332 . S
C269 C270 1.386 . S
C269 C272 1.388 . S
C270 C269 1.386 . S
C270 C271 1.382 . S
C270 H296 0.950 . S
C271 N268 1.332 . S
C271 C270 1.382 . S
C271 H282 0.952 . S
C272 C269 1.388 . S
C272 C273 1.382 . S
C272 H297 0.950 . S
C273 N268 1.332 . S
C273 C272 1.382 . S
C273 H283 0.948 . S
N274 Co252 2.282 . S
N274 C278 1.332 . S
N274 C279 1.332 . S
C275 C276 1.388 . S
C275 C279 1.382 . S
C275 H298 0.950 . S
C276 C275 1.388 . S
C276 C277 1.386 . S
C277 C276 1.386 . S
C277 C278 1.382 . S
C277 H299 0.950 . S
C278 N274 1.332 . S
C278 C277 1.382 . S
C278 H280 0.952 . S
C279 N274 1.332 . S
C279 C275 1.382 . S
C279 H281 0.948 . S
H280 C278 0.952 . S
H281 C279 0.948 . S
H282 C271 0.952 . S
H283 C273 0.948 . S
C284 C250 1.395 . S
C284 C254 1.395 . S
C285 C247 1.389 . S
C285 C267 1.392 . S
C286 C257 1.392 . S
C286 C259 1.389 . S
C287 C262 1.395 . S
C287 C264 1.391 1_556 S
H288 C248 0.951 . S
H289 C249 0.950 . S
H290 C255 0.949 . S
H291 C256 0.950 . S
H292 C260 0.951 . S
H293 C261 0.950 . S
H294 C265 0.949 . S
H295 C266 0.950 . S
H296 C270 0.950 . S
H297 C272 0.950 . S
H298 C275 0.950 . S
H299 C277 0.950 . S
C300 C301 1.443 . S
C300 N304 1.376 1_565 S
C300 C338 1.389 . S
C301 C300 1.443 . S
C301 C302 1.340 1_665 S
C301 H341 0.951 . S
C302 C301 1.340 1_445 S
C302 C303 1.439 . S
C302 H342 0.950 . S
C303 C302 1.439 . S
C303 N304 1.374 1_455 S
C303 C337 1.395 . S
N304 C300 1.376 1_545 S
N304 C303 1.374 1_655 S
N304 Co305 2.008 . S
Co305 N304 2.008 . S
Co305 N306 1.995 . S
Co305 N311 2.008 . S
Co305 N316 1.995 . S
Co305 N321 2.282 . S
Co305 N327 2.282 . S
N306 Co305 1.995 . S
N306 C307 1.376 1_655 S
N306 C310 1.383 . S
C307 N306 1.376 1_455 S
C307 C308 1.446 . S
C307 C337 1.391 . S
C308 C307 1.446 . S
C308 C309 1.339 1_455 S
C308 H343 0.949 . S
C309 C308 1.339 1_655 S
C309 C310 1.439 . S
C309 H344 0.950 1_655 S
C310 N306 1.383 . S
C310 C309 1.439 . S
C310 C339 1.392 . S
N311 Co305 2.008 . S
N311 C312 1.376 . S
N311 C315 1.374 . S
C312 N311 1.376 . S
C312 C313 1.443 . S
C312 C339 1.389 . S
C313 C312 1.443 . S
C313 C314 1.340 . S
C313 H345 0.951 . S
C314 C313 1.340 . S
C314 C315 1.439 . S
C314 H346 0.950 . S
C315 N311 1.374 . S
C315 C314 1.439 . S
C315 C340 1.395 . S
N316 Co305 1.995 . S
N316 C317 1.376 . S
N316 C320 1.383 1_545 S
C317 N316 1.376 . S
C317 C318 1.446 1_545 S
C317 C340 1.391 . S
C318 C317 1.446 1_565 S
C318 C319 1.339 . S
C318 H347 0.949 . S
C319 C318 1.339 . S
C319 C320 1.439 . S
C319 H348 0.950 . S
C320 N316 1.383 1_565 S
C320 C319 1.439 . S
C320 C338 1.392 . S
N321 Co305 2.282 . S
N321 C324 1.332 . S
N321 C326 1.332 . S
C322 C323 1.386 . S
C322 C325 1.388 . S
C323 C322 1.386 . S
C323 C324 1.382 . S
C323 H349 0.950 . S
C324 N321 1.332 . S
C324 C323 1.382 . S
C324 H335 0.952 . S
C325 C322 1.388 . S
C325 C326 1.382 . S
C325 H350 0.950 . S
C326 N321 1.332 . S
C326 C325 1.382 . S
C326 H336 0.948 . S
N327 Co305 2.282 . S
N327 C331 1.332 . S
N327 C332 1.332 1_545 S
C328 C329 1.388 . S
C328 C332 1.382 . S
C328 H351 0.950 . S
C329 C328 1.388 . S
C329 C330 1.386 . S
C330 C329 1.386 . S
C330 C331 1.382 1_565 S
C330 H352 0.950 . S
C331 N327 1.332 . S
C331 C330 1.382 1_545 S
C331 H333 0.952 . S
C332 N327 1.332 1_565 S
C332 C328 1.382 . S
C332 H334 0.948 . S
H333 C331 0.952 . S
H334 C332 0.948 . S
H335 C324 0.952 . S
H336 C326 0.948 . S
C337 C303 1.395 . S
C337 C307 1.391 . S
C338 C300 1.389 . S
C338 C320 1.392 . S
C339 C310 1.392 . S
C339 C312 1.389 . S
C340 C315 1.395 . S
C340 C317 1.391 . S
H341 C301 0.951 . S
H342 C302 0.950 . S
H343 C308 0.949 . S
H344 C309 0.950 1_455 S
H345 C313 0.951 . S
H346 C314 0.950 . S
H347 C318 0.949 . S
H348 C319 0.950 . S
H349 C323 0.950 . S
H350 C325 0.950 . S
H351 C328 0.950 . S
H352 C330 0.950 . S
C353 C354 1.443 . S
C353 N357 1.376 . S
C353 C391 1.389 . S
C354 C353 1.443 . S
C354 C355 1.340 . S
C354 H394 0.951 . S
C355 C354 1.340 . S
C355 C356 1.439 . S
C355 H395 0.950 . S
C356 C355 1.439 . S
C356 N357 1.374 . S
C356 C390 1.395 . S
N357 C353 1.376 . S
N357 C356 1.374 . S
N357 Co358 2.008 . S
Co358 N357 2.008 . S
Co358 N359 1.995 . S
Co358 N364 2.008 . S
Co358 N369 1.995 . S
Co358 N374 2.282 . S
Co358 N380 2.282 . S
N359 Co358 1.995 . S
N359 C360 1.376 . S
N359 C363 1.383 . S
C360 N359 1.376 . S
C360 C361 1.446 . S
C360 C390 1.391 . S
C361 C360 1.446 . S
C361 C362 1.339 . S
C361 H396 0.949 . S
C362 C361 1.339 . S
C362 C363 1.439 . S
C362 H397 0.950 . S
C363 N359 1.383 . S
C363 C362 1.439 . S
C363 C392 1.392 . S
N364 Co358 2.008 . S
N364 C365 1.376 . S
N364 C368 1.374 . S
C365 N364 1.376 . S
C365 C366 1.443 . S
C365 C392 1.389 . S
C366 C365 1.443 . S
C366 C367 1.340 . S
C366 H398 0.951 . S
C367 C366 1.340 . S
C367 C368 1.439 . S
C367 H399 0.950 . S
C368 N364 1.374 . S
C368 C367 1.439 . S
C368 C393 1.395 . S
N369 Co358 1.995 . S
N369 C370 1.376 . S
N369 C373 1.383 . S
C370 N369 1.376 . S
C370 C371 1.446 . S
C370 C393 1.391 . S
C371 C370 1.446 . S
C371 C372 1.339 . S
C371 H400 0.949 . S
C372 C371 1.339 . S
C372 C373 1.439 . S
C372 H401 0.950 . S
C373 N369 1.383 . S
C373 C372 1.439 . S
C373 C391 1.392 . S
N374 Co358 2.282 . S
N374 C377 1.332 . S
N374 C379 1.332 . S
C375 C376 1.386 . S
C375 C378 1.388 . S
C376 C375 1.386 . S
C376 C377 1.382 . S
C376 H402 0.950 . S
C377 N374 1.332 . S
C377 C376 1.382 . S
C377 H388 0.952 . S
C378 C375 1.388 . S
C378 C379 1.382 . S
C378 H403 0.950 . S
C379 N374 1.332 . S
C379 C378 1.382 . S
C379 H389 0.948 . S
N380 Co358 2.282 . S
N380 C384 1.332 . S
N380 C385 1.332 . S
C381 C382 1.388 . S
C381 C385 1.382 . S
C381 H404 0.950 . S
C382 C381 1.388 . S
C382 C383 1.386 . S
C383 C382 1.386 . S
C383 C384 1.382 . S
C383 H405 0.950 . S
C384 N380 1.332 . S
C384 C383 1.382 . S
C384 H386 0.952 . S
C385 N380 1.332 . S
C385 C381 1.382 . S
C385 H387 0.948 . S
H386 C384 0.952 . S
H387 C385 0.948 . S
H388 C377 0.952 . S
H389 C379 0.948 . S
C390 C356 1.395 . S
C390 C360 1.391 . S
C391 C353 1.389 . S
C391 C373 1.392 . S
C392 C363 1.392 . S
C392 C365 1.389 . S
C393 C368 1.395 . S
C393 C370 1.391 . S
H394 C354 0.951 . S
H395 C355 0.950 . S
H396 C361 0.949 . S
H397 C362 0.950 . S
H398 C366 0.951 . S
H399 C367 0.950 . S
H400 C371 0.949 . S
H401 C372 0.950 . S
H402 C376 0.950 . S
H403 C378 0.950 . S
H404 C381 0.950 . S
H405 C383 0.950 . S
C406 C407 1.387 . S
C406 H410 0.950 . S
C406 C415 1.390 . S
C407 C406 1.387 . S
C407 C409 1.387 . S
H408 C415 0.950 . S
C409 C407 1.387 . S
C409 C411 1.390 . S
C409 H413 0.950 . S
H410 C406 0.950 . S
C411 C409 1.390 . S
C411 C412 1.387 . S
C411 H414 0.950 . S
C412 C411 1.387 . S
C412 C415 1.387 . S
H413 C409 0.950 . S
H414 C411 0.950 . S
C415 C406 1.390 . S
C415 H408 0.950 . S
C415 C412 1.387 . S
C416 C417 1.387 . S
C416 H420 0.950 . S
C416 C425 1.390 . S
C417 C416 1.387 . S
C417 C419 1.387 . S
H418 C425 0.950 . S
C419 C417 1.387 . S
C419 C421 1.390 . S
C419 H423 0.950 . S
H420 C416 0.950 . S
C421 C419 1.390 . S
C421 C422 1.387 . S
C421 H424 0.950 . S
C422 C421 1.387 . S
C422 C425 1.387 . S
H423 C419 0.950 . S
H424 C421 0.950 . S
C425 C416 1.390 . S
C425 H418 0.950 . S
C425 C422 1.387 . S
C426 C427 1.387 . S
C426 H430 0.950 . S
C426 C435 1.390 . S
C427 C426 1.387 . S
C427 C429 1.387 . S
H428 C435 0.950 . S
C429 C427 1.387 . S
C429 C431 1.390 . S
C429 H433 0.950 . S
H430 C426 0.950 . S
C431 C429 1.390 . S
C431 C432 1.387 . S
C431 H434 0.950 . S
C432 C431 1.387 . S
C432 C435 1.387 . S
H433 C429 0.950 . S
H434 C431 0.950 . S
C435 C426 1.390 . S
C435 H428 0.950 . S
C435 C432 1.387 . S
C436 C437 1.387 . S
C436 H440 0.950 . S
C436 C445 1.390 . S
C437 C436 1.387 . S
C437 C439 1.387 . S
H438 C445 0.950 . S
C439 C437 1.387 . S
C439 C441 1.390 . S
C439 H443 0.950 . S
H440 C436 0.950 . S
C441 C439 1.390 . S
C441 C442 1.387 . S
C441 H444 0.950 . S
C442 C441 1.387 . S
C442 C445 1.387 . S
H443 C439 0.950 . S
H444 C441 0.950 . S
C445 C436 1.390 . S
C445 H438 0.950 . S
C445 C442 1.387 . S
C446 C447 1.387 . S
C446 H450 0.950 . S
C446 C455 1.390 . S
C447 C446 1.387 . S
C447 C449 1.387 . S
H448 C455 0.950 . S
C449 C447 1.387 . S
C449 C451 1.390 . S
C449 H453 0.950 . S
H450 C446 0.950 . S
C451 C449 1.390 . S
C451 C452 1.387 . S
C451 H454 0.950 . S
C452 C451 1.387 . S
C452 C455 1.387 . S
H453 C449 0.950 . S
H454 C451 0.950 . S
C455 C446 1.390 . S
C455 H448 0.950 . S
C455 C452 1.387 . S
C456 C457 1.387 . S
C456 H460 0.950 . S
C456 C465 1.390 . S
C457 C456 1.387 . S
C457 C459 1.387 . S
H458 C465 0.950 . S
C459 C457 1.387 . S
C459 C461 1.390 . S
C459 H463 0.950 . S
H460 C456 0.950 . S
C461 C459 1.390 . S
C461 C462 1.387 . S
C461 H464 0.950 . S
C462 C461 1.387 . S
C462 C465 1.387 . S
H463 C459 0.950 . S
H464 C461 0.950 . S
C465 C456 1.390 . S
C465 H458 0.950 . S
C465 C462 1.387 . S
C466 C467 1.387 . S
C466 H470 0.950 . S
C466 C475 1.390 . S
C467 C466 1.387 . S
C467 C469 1.387 . S
H468 C475 0.950 . S
C469 C467 1.387 . S
C469 C471 1.390 . S
C469 H473 0.950 . S
H470 C466 0.950 . S
C471 C469 1.390 . S
C471 C472 1.387 . S
C471 H474 0.950 . S
C472 C471 1.387 . S
C472 C475 1.387 . S
H473 C469 0.950 . S
H474 C471 0.950 . S
C475 C466 1.390 . S
C475 H468 0.950 . S
C475 C472 1.387 . S
C476 C477 1.387 1_554 S
C476 H480 0.950 . S
C476 C485 1.390 . S
C477 C476 1.387 1_556 S
C477 C479 1.387 . S
H478 C485 0.950 . S
C479 C477 1.387 . S
C479 C481 1.390 1_556 S
C479 H483 0.950 . S
H480 C476 0.950 . S
C481 C479 1.390 1_554 S
C481 C482 1.387 . S
C481 H484 0.950 . S
C482 C481 1.387 . S
C482 C485 1.387 . S
H483 C479 0.950 . S
H484 C481 0.950 . S
C485 C476 1.390 . S
C485 H478 0.950 . S
C485 C482 1.387 . S
C486 C487 1.387 . S
C486 H490 0.950 . S
C486 C495 1.390 . S
C487 C486 1.387 . S
C487 C489 1.387 . S
H488 C495 0.950 . S
C489 C487 1.387 . S
C489 C491 1.390 . S
C489 H493 0.950 . S
H490 C486 0.950 . S
C491 C489 1.390 . S
C491 C492 1.387 . S
C491 H494 0.950 . S
C492 C491 1.387 . S
C492 C495 1.387 . S
H493 C489 0.950 . S
H494 C491 0.950 . S
C495 C486 1.390 . S
C495 H488 0.950 . S
C495 C492 1.387 . S
C496 C497 1.387 . S
C496 H500 0.950 . S
C496 C505 1.390 . S
C497 C496 1.387 . S
C497 C499 1.387 . S
H498 C505 0.950 . S
C499 C497 1.387 . S
C499 C501 1.390 . S
C499 H503 0.950 . S
H500 C496 0.950 . S
C501 C499 1.390 . S
C501 C502 1.387 . S
C501 H504 0.950 . S
C502 C501 1.387 . S
C502 C505 1.387 . S
H503 C499 0.950 . S
H504 C501 0.950 . S
C505 C496 1.390 . S
C505 H498 0.950 . S
C505 C502 1.387 . S
C506 C507 1.387 . S
C506 H510 0.950 . S
C506 C515 1.390 . S
C507 C506 1.387 . S
C507 C509 1.387 . S
H508 C515 0.950 . S
C509 C507 1.387 . S
C509 C511 1.390 . S
C509 H513 0.950 . S
H510 C506 0.950 . S
C511 C509 1.390 . S
C511 C512 1.387 . S
C511 H514 0.950 . S
C512 C511 1.387 . S
C512 C515 1.387 . S
H513 C509 0.950 . S
H514 C511 0.950 . S
C515 C506 1.390 . S
C515 H508 0.950 . S
C515 C512 1.387 . S
C516 C517 1.387 . S
C516 H520 0.950 . S
C516 C525 1.390 . S
C517 C516 1.387 . S
C517 C519 1.387 . S
H518 C525 0.950 . S
C519 C517 1.387 . S
C519 C521 1.390 . S
C519 H523 0.950 . S
H520 C516 0.950 . S
C521 C519 1.390 . S
C521 C522 1.387 . S
C521 H524 0.950 . S
C522 C521 1.387 . S
C522 C525 1.387 . S
H523 C519 0.950 . S
H524 C521 0.950 . S
C525 C516 1.390 . S
C525 H518 0.950 . S
C525 C522 1.387 . S
C526 C527 1.387 . S
C526 H530 0.950 . S
C526 C535 1.390 . S
C527 C526 1.387 . S
C527 C529 1.387 . S
H528 C535 0.950 . S
C529 C527 1.387 . S
C529 C531 1.390 . S
C529 H533 0.950 . S
H530 C526 0.950 . S
C531 C529 1.390 . S
C531 C532 1.387 . S
C531 H534 0.950 . S
C532 C531 1.387 . S
C532 C535 1.387 . S
H533 C529 0.950 . S
H534 C531 0.950 . S
C535 C526 1.390 . S
C535 H528 0.950 . S
C535 C532 1.387 . S
C536 C537 1.387 . S
C536 H540 0.950 . S
C536 C545 1.390 . S
C537 C536 1.387 . S
C537 C539 1.387 . S
H538 C545 0.950 . S
C539 C537 1.387 . S
C539 C541 1.390 . S
C539 H543 0.950 . S
H540 C536 0.950 . S
C541 C539 1.390 . S
C541 C542 1.387 . S
C541 H544 0.950 . S
C542 C541 1.387 . S
C542 C545 1.387 . S
H543 C539 0.950 . S
H544 C541 0.950 . S
C545 C536 1.390 . S
C545 H538 0.950 . S
C545 C542 1.387 . S
C546 C547 1.387 . S
C546 H550 0.950 . S
C546 C555 1.390 . S
C547 C546 1.387 . S
C547 C549 1.387 . S
H548 C555 0.950 . S
C549 C547 1.387 . S
C549 C551 1.390 . S
C549 H553 0.950 . S
H550 C546 0.950 . S
C551 C549 1.390 . S
C551 C552 1.387 . S
C551 H554 0.950 . S
C552 C551 1.387 . S
C552 C555 1.387 . S
H553 C549 0.950 . S
H554 C551 0.950 . S
C555 C546 1.390 . S
C555 H548 0.950 . S
C555 C552 1.387 . S
C556 C557 1.387 . S
C556 H560 0.950 . S
C556 C565 1.390 . S
C557 C556 1.387 . S
C557 C559 1.387 . S
H558 C565 0.950 . S
C559 C557 1.387 . S
C559 C561 1.390 . S
C559 H563 0.950 . S
H560 C556 0.950 . S
C561 C559 1.390 . S
C561 C562 1.387 . S
C561 H564 0.950 . S
C562 C561 1.387 . S
C562 C565 1.387 . S
H563 C559 0.950 . S
H564 C561 0.950 . S
C565 C556 1.390 . S
C565 H558 0.950 . S
C565 C562 1.387 . S
C566 C567 1.387 . S
C566 H570 0.950 . S
C566 C575 1.390 . S
C567 C566 1.387 . S
C567 C569 1.387 . S
H568 C575 0.950 . S
C569 C567 1.387 . S
C569 C571 1.390 . S
C569 H573 0.950 . S
H570 C566 0.950 . S
C571 C569 1.390 . S
C571 C572 1.387 . S
C571 H574 0.950 . S
C572 C571 1.387 . S
C572 C575 1.387 . S
H573 C569 0.950 . S
H574 C571 0.950 . S
C575 C566 1.390 . S
C575 H568 0.950 . S
C575 C572 1.387 . S
C576 C577 1.387 . S
C576 H580 0.950 . S
C576 C585 1.390 . S
C577 C576 1.387 . S
C577 C579 1.387 . S
H578 C585 0.950 . S
C579 C577 1.387 . S
C579 C581 1.390 . S
C579 H583 0.950 . S
H580 C576 0.950 . S
C581 C579 1.390 . S
C581 C582 1.387 . S
C581 H584 0.950 . S
C582 C581 1.387 . S
C582 C585 1.387 . S
H583 C579 0.950 . S
H584 C581 0.950 . S
C585 C576 1.390 . S
C585 H578 0.950 . S
C585 C582 1.387 . S
C586 C587 1.387 . S
C586 H590 0.950 . S
C586 C595 1.390 . S
C587 C586 1.387 . S
C587 C589 1.387 . S
H588 C595 0.950 . S
C589 C587 1.387 . S
C589 C591 1.390 . S
C589 H593 0.950 . S
H590 C586 0.950 . S
C591 C589 1.390 . S
C591 C592 1.387 . S
C591 H594 0.950 . S
C592 C591 1.387 . S
C592 C595 1.387 . S
H593 C589 0.950 . S
H594 C591 0.950 . S
C595 C586 1.390 . S
C595 H588 0.950 . S
C595 C592 1.387 . S
C596 C597 1.387 . S
C596 H600 0.950 . S
C596 C605 1.390 . S
C597 C596 1.387 . S
C597 C599 1.387 . S
H598 C605 0.950 . S
C599 C597 1.387 . S
C599 C601 1.390 . S
C599 H603 0.950 . S
H600 C596 0.950 . S
C601 C599 1.390 . S
C601 C602 1.387 . S
C601 H604 0.950 . S
C602 C601 1.387 . S
C602 C605 1.387 . S
H603 C599 0.950 . S
H604 C601 0.950 . S
C605 C596 1.390 . S
C605 H598 0.950 . S
C605 C602 1.387 . S
C606 C607 1.387 . S
C606 H610 0.950 . S
C606 C615 1.390 . S
C607 C606 1.387 . S
C607 C609 1.387 . S
H608 C615 0.950 . S
C609 C607 1.387 . S
C609 C611 1.390 . S
C609 H613 0.950 . S
H610 C606 0.950 . S
C611 C609 1.390 . S
C611 C612 1.387 . S
C611 H614 0.950 . S
C612 C611 1.387 . S
C612 C615 1.387 . S
H613 C609 0.950 . S
H614 C611 0.950 . S
C615 C606 1.390 . S
C615 H608 0.950 . S
C615 C612 1.387 . S
C616 C617 1.387 . S
C616 H620 0.950 . S
C616 C625 1.390 1_556 S
C617 C616 1.387 . S
C617 C619 1.387 . S
H618 C625 0.950 . S
C619 C617 1.387 . S
C619 C621 1.390 . S
C619 H623 0.950 . S
H620 C616 0.950 . S
C621 C619 1.390 . S
C621 C622 1.387 . S
C621 H624 0.950 . S
C622 C621 1.387 . S
C622 C625 1.387 1_556 S
H623 C619 0.950 . S
H624 C621 0.950 . S
C625 C616 1.390 1_554 S
C625 H618 0.950 . S
C625 C622 1.387 1_554 S
C626 C627 1.387 . S
C626 H630 0.950 . S
C626 C635 1.390 . S
C627 C626 1.387 . S
C627 C629 1.387 . S
H628 C635 0.950 . S
C629 C627 1.387 . S
C629 C631 1.390 . S
C629 H633 0.950 . S
H630 C626 0.950 . S
C631 C629 1.390 . S
C631 C632 1.387 . S
C631 H634 0.950 . S
C632 C631 1.387 . S
C632 C635 1.387 . S
H633 C629 0.950 . S
H634 C631 0.950 . S
C635 C626 1.390 . S
C635 H628 0.950 . S
C635 C632 1.387 . S
C636 C637 1.387 . S
C636 H640 0.950 . S
C636 C645 1.390 . S
C637 C636 1.387 . S
C637 C639 1.387 . S
H638 C645 0.950 . S
C639 C637 1.387 . S
C639 C641 1.390 . S
C639 H643 0.950 . S
H640 C636 0.950 . S
C641 C639 1.390 . S
C641 C642 1.387 . S
C641 H644 0.950 . S
C642 C641 1.387 . S
C642 C645 1.387 . S
H643 C639 0.950 . S
H644 C641 0.950 . S
C645 C636 1.390 . S
C645 H638 0.950 . S
C645 C642 1.387 . S
C412 C110 1.636 . S
C407 C10 1.659 . S
C422 C179 1.505 . S
C417 C15 1.471 . S
C432 C117 1.641 . S
C427 C26 1.661 . S
C442 C180 1.486 . S
C437 C37 1.487 . S
C452 C233 1.730 . S
C447 C4 1.737 . S
C462 C269 1.511 . S
C457 C16 1.475 . S
C467 C27 1.754 . S
C472 C329 1.739 . S
C482 C392 1.490 . S
C477 C43 1.487 . S
C492 C232 1.581 . S
C487 C21 1.554 . S
C497 C32 1.477 . S
C502 C276 1.463 . S
C512 C322 1.761 . S
C507 C38 1.756 . S
C522 C391 1.676 . S
C517 C5 1.673 . S
C527 C49 1.515 . S
C532 C170 1.534 . S
C542 C127 1.717 . S
C537 C60 1.760 . S
C547 C76 1.490 . S
C552 C163 1.490 . S
C557 C81 1.697 . S
C562 C126 1.703 . S
C572 C338 1.581 . S
C567 C54 1.582 . S
C582 C382 1.689 . S
C577 C59 1.705 . S
C592 C216 1.605 . S
C587 C70 1.613 . S
C597 C87 1.633 . S
C602 C285 1.615 . S
C612 C339 1.672 . S
C607 C65 1.678 . S
C622 C375 1.701 1_556 S
C617 C71 1.679 . S
C632 C223 1.603 . S
C627 C82 1.617 . S
C637 C48 1.566 . S
C642 C286 1.566 . S
