# Generated by pormake.
# Topology pth, (4,4)-cn, num edge types: 1
# Building blocks:
#     Node 0, Type 0, BuildingBlock: QUQFOY_clean_sbu_1, # of connection points: 4
#     Node 1, Type 0, BuildingBlock: QUQFOY_clean_sbu_1, # of connection points: 4
#     Node 2, Type 0, BuildingBlock: QUQFOY_clean_sbu_1, # of connection points: 4
#     Node 3, Type 1, BuildingBlock: NAHDIM_clean_linker_0, # of connection points: 4
#     Node 4, Type 1, BuildingBlock: NAHDIM_clean_linker_0, # of connection points: 4
#     Node 5, Type 1, BuildingBlock: NAHDIM_clean_linker_0, # of connection points: 4
#     Edge 6, Type (0, 1), BuildingBlock: CIFDUS_clean_linker_0, # of connection points: 2
#     Edge 7, Type (0, 1), BuildingBlock: CIFDUS_clean_linker_0, # of connection points: 2
#     Edge 8, Type (0, 1), BuildingBlock: CIFDUS_clean_linker_0, # of connection points: 2
#     Edge 9, Type (0, 1), BuildingBlock: CIFDUS_clean_linker_0, # of connection points: 2
#     Edge 10, Type (0, 1), BuildingBlock: CIFDUS_clean_linker_0, # of connection points: 2
#     Edge 11, Type (0, 1), BuildingBlock: CIFDUS_clean_linker_0, # of connection points: 2
#     Edge 12, Type (0, 1), BuildingBlock: CIFDUS_clean_linker_0, # of connection points: 2
#     Edge 13, Type (0, 1), BuildingBlock: CIFDUS_clean_linker_0, # of connection points: 2
#     Edge 14, Type (0, 1), BuildingBlock: CIFDUS_clean_linker_0, # of connection points: 2
#     Edge 15, Type (0, 1), BuildingBlock: CIFDUS_clean_linker_0, # of connection points: 2
#     Edge 16, Type (0, 1), BuildingBlock: CIFDUS_clean_linker_0, # of connection points: 2
#     Edge 17, Type (0, 1), BuildingBlock: CIFDUS_clean_linker_0, # of connection points: 2
# Relax obj value: 0.028
# Max RMSD: 0.121
# Mean RMSD: 0.078
data_MOF--net-pth--node1-QUQFOY_clean_sbu_1--node2-NAHDIM_clean_linker_0--edge1-CIFDUS_clean_linker_0
_symmetry_space_group_name_H-M    P1
_symmetry_Int_Tables_number       1
_symmetry_cell_setting            triclinic
loop_
_symmetry_equiv_pos_as_xyz
'x, y, z'
_cell_length_a     27.954575
_cell_length_b     30.46671
_cell_length_c     76.076776
_cell_angle_alpha  89.617723
_cell_angle_beta   90.78169
_cell_angle_gamma 120.07085
loop_
_atom_site_label
_atom_site_type_symbol
_atom_site_fract_x
_atom_site_fract_y
_atom_site_fract_z
_atom_type_partial_charge
O0 O 0.03553 0.09766 0.03824 0.0
Cd1 Cd 0.97566 0.05258 0.05603 0.0
Cd2 Cd 0.03733 0.00684 0.05885 0.0
O3 O 0.09261 0.06975 0.04486 0.0
O4 O 0.93732 0.09014 0.06252 0.0
O5 O 0.98833 0.07469 0.08132 0.0
C6 C 0.9583 0.09516 0.07808 0.0
C7 C 0.06996 0.97699 0.08169 0.0
C8 C 0.08198 0.10017 0.0365 0.0
C9 C 0.92327 0.94622 0.04309 0.0
O10 O 0.97053 0.95054 0.0454 0.0
O11 O 0.91478 0.98169 0.04775 0.0
O12 O 0.08142 0.97435 0.06553 0.0
O13 O 0.04105 0.99821 0.08507 0.0
O14 O 0.99819 0.08202 0.40547 0.0
Cd15 Cd 0.07288 0.09927 0.39492 0.0
Cd16 Cd 0.02055 0.99887 0.38761 0.0
O17 O 0.95308 0.00259 0.39645 0.0
O18 O 0.11289 0.17334 0.39003 0.0
O19 O 0.08323 0.1148 0.36912 0.0
C20 C 0.10688 0.16212 0.37352 0.0
C21 C 0.00722 0.9453 0.36387 0.0
C22 C 0.95355 0.03977 0.40411 0.0
C23 C 0.11479 0.03994 0.41413 0.0
O24 O 0.07559 0.00158 0.40648 0.0
O25 O 0.12353 0.08423 0.41072 0.0
O26 O 0.98636 0.92779 0.37904 0.0
O27 O 0.03518 0.99394 0.36194 0.0
O28 O 0.94773 0.02061 0.69518 0.0
Cd29 Cd 0.98947 0.00281 0.71394 0.0
Cd30 Cd 0.05108 0.10471 0.7176 0.0
O31 O 0.99271 0.10286 0.70038 0.0
O32 O 0.941 0.92999 0.71989 0.0
O33 O 0.96601 0.99191 0.73924 0.0
C34 C 0.93931 0.94393 0.73573 0.0
C35 C 0.07962 0.16215 0.74095 0.0
C36 C 0.95557 0.06476 0.69202 0.0
C37 C 0.10796 0.05078 0.70364 0.0
O38 O 0.11112 0.09299 0.70693 0.0
O39 O 0.06334 0.00945 0.70637 0.0
O40 O 0.09259 0.17706 0.72496 0.0
O41 O 0.04958 0.11403 0.7438 0.0
C42 C 0.92396 0.72768 0.28089 0.0
C43 C 0.94351 0.71643 0.29842 0.0
C44 C 0.00266 0.68207 0.28938 0.0
C45 C 0.05728 0.69282 0.28785 0.0
C46 C 0.06975 0.65829 0.2799 0.0
C47 C 0.0263 0.61174 0.27339 0.0
C48 C 0.97082 0.59971 0.27547 0.0
C49 C 0.95953 0.63496 0.28337 0.0
C50 C 0.12931 0.67222 0.27789 0.0
C51 C 0.92339 0.55013 0.26881 0.0
C52 C 0.16265 0.35066 0.27966 0.0
C53 C 0.13727 0.35543 0.29681 0.0
C54 C 0.08058 0.39247 0.28695 0.0
C55 C 0.0265 0.38215 0.28387 0.0
C56 C 0.01581 0.41873 0.27642 0.0
C57 C 0.06054 0.46683 0.27188 0.0
C58 C 0.11536 0.47821 0.27548 0.0
C59 C 0.12488 0.44104 0.283 0.0
C60 C 0.95685 0.40552 0.2729 0.0
C61 C 0.164 0.52933 0.27089 0.0
C62 C 0.01397 0.37008 0.16119 0.0
C63 C 0.96868 0.37386 0.16711 0.0
C64 C 0.97649 0.41847 0.17504 0.0
C65 C 0.03061 0.46024 0.17715 0.0
C66 C 0.07608 0.45741 0.1706 0.0
C67 C 0.06709 0.41232 0.16267 0.0
C68 C 0.92692 0.42042 0.18168 0.0
C69 C 0.13425 0.50138 0.17258 0.0
C70 C 0.11893 0.8363 0.17623 0.0
C71 C 0.10324 0.81174 0.15795 0.0
C72 C 0.056 0.72033 0.16483 0.0
C73 C 0.00439 0.67628 0.16619 0.0
C74 C 0.99927 0.6313 0.17314 0.0
C75 C 0.04718 0.63042 0.17878 0.0
C76 C 0.09979 0.67414 0.17675 0.0
C77 C 0.10371 0.71866 0.16986 0.0
C78 C 0.94258 0.58532 0.1751 0.0
C79 C 0.15184 0.67432 0.18243 0.0
C80 C 0.03841 0.5776 0.26289 0.0
C81 C 0.04459 0.54005 0.27156 0.0
C82 C 0.05056 0.50389 0.26208 0.0
C83 C 0.04839 0.504 0.24348 0.0
C84 C 0.05033 0.46615 0.23355 0.0
C85 C 0.04692 0.46602 0.21528 0.0
C86 C 0.04335 0.50468 0.2062 0.0
C87 C 0.03946 0.50472 0.18764 0.0
C88 C 0.04021 0.54574 0.17897 0.0
C89 C 0.04236 0.58591 0.18847 0.0
C90 C 0.04162 0.5843 0.20706 0.0
C91 C 0.03933 0.62198 0.21699 0.0
C92 C 0.0379 0.61971 0.23525 0.0
C93 C 0.04029 0.58046 0.24433 0.0
C94 C 0.04409 0.5429 0.2346 0.0
C95 C 0.04318 0.54403 0.21594 0.0
C96 C 0.94701 0.25397 0.17151 0.0
C97 C 0.96101 0.27938 0.15336 0.0
O98 O 0.99379 0.71837 0.29643 0.0
O99 O 0.05752 0.76335 0.15893 0.0
O100 O 0.00863 0.32661 0.15431 0.0
O101 O 0.08779 0.35432 0.2934 0.0
H102 H 0.91173 0.67793 0.30283 0.0
H103 H 0.9155 0.69769 0.27112 0.0
H104 H 0.95587 0.76458 0.27539 0.0
H105 H 0.88514 0.72864 0.28275 0.0
H106 H 0.09035 0.72901 0.29258 0.0
H107 H 0.91691 0.62546 0.28444 0.0
H108 H 0.13587 0.64208 0.28369 0.0
H109 H 0.15832 0.70895 0.28429 0.0
H110 H 0.13928 0.67484 0.2637 0.0
H111 H 0.88261 0.54423 0.27293 0.0
H112 H 0.9279 0.51795 0.2737 0.0
H113 H 0.92409 0.54953 0.25423 0.0
H114 H 0.16698 0.39188 0.30329 0.0
H115 H 0.20108 0.34952 0.28256 0.0
H116 H 0.1735 0.38364 0.27097 0.0
H117 H 0.13316 0.3157 0.27241 0.0
H118 H 0.99251 0.34481 0.28705 0.0
H119 H 0.16706 0.45019 0.28544 0.0
H120 H 0.94919 0.43461 0.27884 0.0
H121 H 0.92657 0.36769 0.27823 0.0
H122 H 0.94976 0.40561 0.25851 0.0
H123 H 0.20403 0.53323 0.27527 0.0
H124 H 0.15935 0.55989 0.27706 0.0
H125 H 0.16507 0.53498 0.25644 0.0
H126 H 0.92584 0.2838 0.14863 0.0
H127 H 0.9271 0.34207 0.16593 0.0
H128 H 0.10181 0.4094 0.15796 0.0
H129 H 0.92885 0.42269 0.19626 0.0
H130 H 0.88725 0.38658 0.1777 0.0
H131 H 0.92741 0.45494 0.17665 0.0
H132 H 0.16497 0.49416 0.16606 0.0
H133 H 0.14524 0.50877 0.18675 0.0
H134 H 0.13689 0.53617 0.16688 0.0
H135 H 0.13897 0.8097 0.15267 0.0
H136 H 0.15421 0.87574 0.17527 0.0
H137 H 0.13163 0.81473 0.18506 0.0
H138 H 0.08341 0.83705 0.18229 0.0
H139 H 0.96781 0.67764 0.16217 0.0
H140 H 0.14418 0.75199 0.16881 0.0
H141 H 0.93426 0.5755 0.18924 0.0
H142 H 0.94093 0.55235 0.16838 0.0
H143 H 0.90948 0.59156 0.16957 0.0
H144 H 0.1898 0.70922 0.17821 0.0
H145 H 0.1522 0.6408 0.17694 0.0
H146 H 0.15285 0.67169 0.19698 0.0
H147 H 0.04436 0.53873 0.28582 0.0
H148 H 0.05355 0.43567 0.23977 0.0
H149 H 0.0478 0.43549 0.20837 0.0
H150 H 0.03871 0.54625 0.16472 0.0
H151 H 0.03772 0.65328 0.21077 0.0
H152 H 0.03549 0.64948 0.24215 0.0
H153 H 0.98221 0.25074 0.17695 0.0
H154 H 0.91 0.21546 0.17055 0.0
H155 H 0.93771 0.27638 0.18087 0.0
C156 C 0.2795 0.97628 0.63057 0.0
C157 C 0.31138 0.99375 0.64813 0.0
C158 C 0.4029 0.05091 0.63568 0.0
C159 C 0.43681 0.10117 0.63041 0.0
C160 C 0.47965 0.11425 0.61844 0.0
C161 C 0.48912 0.07602 0.61185 0.0
C162 C 0.45691 0.02551 0.61788 0.0
C163 C 0.41406 0.01343 0.62974 0.0
C164 C 0.51362 0.16853 0.6124 0.0
C165 C 0.46691 0.98405 0.61145 0.0
C166 C 0.93762 0.20605 0.59789 0.0
C167 C 0.88182 0.17165 0.6065 0.0
C168 C 0.7968 0.17604 0.60452 0.0
C169 C 0.75971 0.12363 0.60595 0.0
C170 C 0.70334 0.10331 0.60198 0.0
C171 C 0.68375 0.1361 0.59666 0.0
C172 C 0.72045 0.18908 0.59613 0.0
C173 C 0.77658 0.20835 0.60013 0.0
C174 C 0.66493 0.04672 0.60301 0.0
C175 C 0.7006 0.22516 0.59084 0.0
C176 C 0.67872 0.06433 0.48349 0.0
C177 C 0.63845 0.01971 0.49169 0.0
C178 C 0.59974 0.02055 0.50299 0.0
C179 C 0.60039 0.06666 0.50586 0.0
C180 C 0.63881 0.11105 0.4969 0.0
C181 C 0.67768 0.1093 0.48586 0.0
C182 C 0.55883 0.97229 0.51217 0.0
C183 C 0.63976 0.16055 0.49939 0.0
C184 C 0.16441 0.98043 0.51677 0.0
C185 C 0.22129 0.01265 0.50855 0.0
C186 C 0.3018 0.00107 0.51092 0.0
C187 C 0.31738 0.96539 0.51529 0.0
C188 C 0.37232 0.98046 0.51976 0.0
C189 C 0.41261 0.03262 0.51966 0.0
C190 C 0.39769 0.0688 0.5144 0.0
C191 C 0.34239 0.05266 0.50999 0.0
C192 C 0.38706 0.94083 0.52503 0.0
C193 C 0.43999 0.12461 0.51383 0.0
C194 C 0.53057 0.08804 0.59796 0.0
C195 C 0.58558 0.10631 0.60303 0.0
C196 C 0.6257 0.11495 0.59059 0.0
C197 C 0.61057 0.10393 0.57266 0.0
C198 C 0.64928 0.10934 0.55996 0.0
C199 C 0.63373 0.09754 0.54241 0.0
C200 C 0.57918 0.0811 0.53679 0.0
C201 C 0.56278 0.06857 0.519 0.0
C202 C 0.50863 0.05366 0.51376 0.0
C203 C 0.46967 0.04954 0.52597 0.0
C204 C 0.48472 0.06013 0.54392 0.0
C205 C 0.44596 0.0545 0.55664 0.0
C206 C 0.46082 0.06362 0.57433 0.0
C207 C 0.51523 0.07952 0.57997 0.0
C208 C 0.55525 0.08677 0.56731 0.0
C209 C 0.53979 0.07629 0.54931 0.0
C210 C 0.7588 0.02201 0.48912 0.0
C211 C 0.73333 0.02822 0.4719 0.0
O212 O 0.35943 0.04021 0.64617 0.0
O213 O 0.24734 0.98419 0.50784 0.0
O214 O 0.71974 0.06598 0.47356 0.0
O215 O 0.85219 0.19687 0.60705 0.0
H216 H 0.32204 0.96507 0.65289 0.0
H217 H 0.30388 0.96977 0.62061 0.0
H218 H 0.27003 0.00535 0.62542 0.0
H219 H 0.24012 0.93996 0.6323 0.0
H220 H 0.4283 0.12991 0.63526 0.0
H221 H 0.38909 0.97462 0.63411 0.0
H222 H 0.55798 0.18287 0.61545 0.0
H223 H 0.50092 0.19379 0.61874 0.0
H224 H 0.50944 0.17049 0.59792 0.0
H225 H 0.44204 0.94788 0.61867 0.0
H226 H 0.51137 0.99596 0.61291 0.0
H227 H 0.45603 0.97716 0.59726 0.0
H228 H 0.86032 0.13756 0.5979 0.0
H229 H 0.96135 0.24237 0.60519 0.0
H230 H 0.93093 0.2148 0.58419 0.0
H231 H 0.96243 0.18678 0.5975 0.0
H232 H 0.77447 0.09836 0.61002 0.0
H233 H 0.80535 0.24878 0.59936 0.0
H234 H 0.63024 0.03822 0.61195 0.0
H235 H 0.68629 0.02641 0.60782 0.0
H236 H 0.64685 0.03185 0.5898 0.0
H237 H 0.73355 0.2655 0.59221 0.0
H238 H 0.66495 0.2184 0.59903 0.0
H239 H 0.68612 0.21807 0.57694 0.0
H240 H 0.69552 0.99174 0.46853 0.0
H241 H 0.63742 0.98417 0.48967 0.0
H242 H 0.70835 0.14342 0.47932 0.0
H243 H 0.56242 0.97818 0.52662 0.0
H244 H 0.5651 0.93995 0.50907 0.0
H245 H 0.51618 0.96208 0.50816 0.0
H246 H 0.66878 0.19049 0.49029 0.0
H247 H 0.6525 0.17392 0.51311 0.0
H248 H 0.59767 0.15494 0.49726 0.0
H249 H 0.24459 0.04593 0.5174 0.0
H250 H 0.14263 0.00245 0.51756 0.0
H251 H 0.1692 0.96912 0.53031 0.0
H252 H 0.13871 0.94549 0.50893 0.0
H253 H 0.2859 0.92562 0.51567 0.0
H254 H 0.33117 0.08046 0.50594 0.0
H255 H 0.40299 0.9476 0.53878 0.0
H256 H 0.42046 0.94383 0.5165 0.0
H257 H 0.35114 0.90171 0.52404 0.0
H258 H 0.42226 0.14783 0.50881 0.0
H259 H 0.47483 0.13096 0.5053 0.0
H260 H 0.45717 0.13795 0.52723 0.0
H261 H 0.59724 0.11357 0.61682 0.0
H262 H 0.69193 0.12209 0.56348 0.0
H263 H 0.66517 0.10179 0.5333 0.0
H264 H 0.49635 0.04408 0.5001 0.0
H265 H 0.4035 0.04241 0.5531 0.0
H266 H 0.4291 0.05821 0.58353 0.0
H267 H 0.79563 0.05854 0.49304 0.0
H268 H 0.77144 0.99303 0.48748 0.0
H269 H 0.72869 0.00933 0.49997 0.0
C270 C 0.82202 0.77729 0.834 0.0
C271 C 0.78211 0.76837 0.81862 0.0
C272 C 0.68998 0.73177 0.83193 0.0
C273 C 0.64714 0.74096 0.83595 0.0
C274 C 0.59831 0.70348 0.84377 0.0
C275 C 0.59228 0.65554 0.84767 0.0
C276 C 0.63531 0.64577 0.84362 0.0
C277 C 0.68377 0.68396 0.83586 0.0
C278 C 0.55326 0.71513 0.84798 0.0
C279 C 0.63015 0.59497 0.84761 0.0
C280 C 0.17856 0.39204 0.82099 0.0
C281 C 0.21943 0.40067 0.80627 0.0
C282 C 0.31008 0.43594 0.82127 0.0
C283 C 0.35193 0.42579 0.82614 0.0
C284 C 0.39879 0.46133 0.83559 0.0
C285 C 0.4035 0.50808 0.84045 0.0
C286 C 0.36224 0.51941 0.83511 0.0
C287 C 0.316 0.48334 0.82552 0.0
C288 C 0.44237 0.44824 0.84088 0.0
C289 C 0.36618 0.56901 0.84006 0.0
C290 C 0.304 0.37511 0.94922 0.0
C291 C 0.3478 0.37419 0.94065 0.0
C292 C 0.39093 0.41832 0.93323 0.0
C293 C 0.38988 0.4642 0.93407 0.0
C294 C 0.34581 0.46531 0.94255 0.0
C295 C 0.30349 0.42068 0.95006 0.0
C296 C 0.43765 0.41584 0.92443 0.0
C297 C 0.34334 0.51356 0.94356 0.0
C298 C 0.68606 0.64797 0.00515 0.0
C299 C 0.72072 0.68859 0.99154 0.0
C300 C 0.65129 0.67382 0.96853 0.0
C301 C 0.64747 0.62952 0.96153 0.0
C302 C 0.6081 0.60152 0.94847 0.0
C303 C 0.57137 0.61771 0.94241 0.0
C304 C 0.5757 0.66268 0.94919 0.0
C305 C 0.61603 0.69039 0.96205 0.0
C306 C 0.60494 0.55393 0.9414 0.0
C307 C 0.53682 0.68074 0.94316 0.0
C308 C 0.54131 0.61566 0.85619 0.0
C309 C 0.49698 0.58258 0.84538 0.0
C310 C 0.44872 0.54288 0.85253 0.0
C311 C 0.44426 0.53578 0.87095 0.0
C312 C 0.39636 0.49602 0.87854 0.0
C313 C 0.39306 0.48809 0.8966 0.0
C314 C 0.43732 0.51987 0.90778 0.0
C315 C 0.43518 0.51082 0.92606 0.0
C316 C 0.47893 0.54407 0.93692 0.0
C317 C 0.52599 0.58557 0.92997 0.0
C318 C 0.5299 0.59422 0.91161 0.0
C319 C 0.5775 0.63439 0.90407 0.0
C320 C 0.58123 0.64178 0.88594 0.0
C321 C 0.53749 0.60928 0.87466 0.0
C322 C 0.48888 0.56897 0.88203 0.0
C323 C 0.48521 0.56127 0.9005 0.0
C324 C 0.229 0.25606 0.94058 0.0
C325 C 0.2547 0.28502 0.95772 0.0
O326 O 0.73623 0.77004 0.82442 0.0
O327 O 0.68752 0.70135 0.9816 0.0
O328 O 0.26155 0.3333 0.95676 0.0
O329 O 0.2647 0.3986 0.81287 0.0
H330 H 0.769 0.73054 0.81281 0.0
H331 H 0.80197 0.74673 0.84393 0.0
H332 H 0.83483 0.8141 0.84055 0.0
H333 H 0.85941 0.77726 0.82924 0.0
H334 H 0.65217 0.77785 0.83294 0.0
H335 H 0.71643 0.67596 0.83305 0.0
H336 H 0.51458 0.68814 0.84091 0.0
H337 H 0.56443 0.75443 0.84426 0.0
H338 H 0.54459 0.71 0.86228 0.0
H339 H 0.66657 0.59273 0.84318 0.0
H340 H 0.59249 0.56433 0.84109 0.0
H341 H 0.62555 0.58783 0.86199 0.0
H342 H 0.23314 0.4386 0.80037 0.0
H343 H 0.14079 0.39051 0.81542 0.0
H344 H 0.19741 0.42356 0.83063 0.0
H345 H 0.16659 0.35619 0.82816 0.0
H346 H 0.3473 0.38936 0.82273 0.0
H347 H 0.2844 0.49225 0.82178 0.0
H348 H 0.44187 0.44319 0.85536 0.0
H349 H 0.48402 0.47974 0.83737 0.0
H350 H 0.43562 0.41284 0.83451 0.0
H351 H 0.33147 0.57281 0.83451 0.0
H352 H 0.40575 0.60114 0.83532 0.0
H353 H 0.36613 0.57202 0.8546 0.0
H354 H 0.29541 0.28754 0.95996 0.0
H355 H 0.34891 0.33937 0.9396 0.0
H356 H 0.26957 0.42112 0.95663 0.0
H357 H 0.43648 0.42234 0.9101 0.0
H358 H 0.43521 0.37861 0.9264 0.0
H359 H 0.47807 0.44613 0.92964 0.0
H360 H 0.30475 0.50754 0.94976 0.0
H361 H 0.34614 0.52929 0.93016 0.0
H362 H 0.37926 0.54229 0.95132 0.0
H363 H 0.74118 0.67398 0.98281 0.0
H364 H 0.7129 0.63846 0.01331 0.0
H365 H 0.65446 0.61275 0.99852 0.0
H366 H 0.66459 0.66156 0.01387 0.0
H367 H 0.67447 0.61606 0.96626 0.0
H368 H 0.61938 0.72466 0.96746 0.0
H369 H 0.6029 0.55362 0.92681 0.0
H370 H 0.56664 0.52034 0.94616 0.0
H371 H 0.64088 0.55015 0.94566 0.0
H372 H 0.54481 0.7159 0.95002 0.0
H373 H 0.49342 0.65069 0.94553 0.0
H374 H 0.54116 0.68818 0.9288 0.0
H375 H 0.50034 0.58741 0.83122 0.0
H376 H 0.36098 0.47017 0.87062 0.0
H377 H 0.35538 0.45662 0.90168 0.0
H378 H 0.477 0.53673 0.95095 0.0
H379 H 0.61255 0.66034 0.91211 0.0
H380 H 0.61897 0.67319 0.88087 0.0
H381 H 0.2229 0.21715 0.94144 0.0
H382 H 0.25659 0.27569 0.92935 0.0
H383 H 0.18848 0.25342 0.93788 0.0
H384 H 0.02353 0.14374 0.10647 0.0
H385 H 0.874 0.11508 0.07938 0.0
H386 H 0.86155 0.16894 0.10026 0.0
H387 H 0.89392 0.22547 0.12583 0.0
H388 H 0.04584 0.25824 0.15216 0.0
H389 H 0.05678 0.20167 0.13196 0.0
C390 C 0.98799 0.14897 0.10527 0.0
C391 C 0.94958 0.12529 0.09147 0.0
C392 C 0.9818 0.18107 0.11708 0.0
C393 C 0.90414 0.13294 0.08989 0.0
C394 C 0.89702 0.16378 0.1018 0.0
C395 C 0.92957 0.22043 0.12708 0.0
C396 C 0.96915 0.24618 0.1404 0.0
C397 C 0.93582 0.18837 0.11534 0.0
C398 C 0.01497 0.23899 0.14194 0.0
C399 C 0.02114 0.20659 0.13044 0.0
H400 H 0.94132 0.10923 0.42286 0.0
H401 H 0.85273 0.9531 0.40568 0.0
H402 H 0.7746 0.93727 0.42392 0.0
H403 H 0.73554 0.96537 0.44704 0.0
H404 H 0.82494 0.12062 0.46481 0.0
H405 H 0.89864 0.13924 0.44399 0.0
C406 C 0.90465 0.07189 0.42289 0.0
C407 C 0.90326 0.0323 0.41305 0.0
C408 C 0.86014 0.0628 0.43361 0.0
C409 C 0.85518 0.98425 0.4132 0.0
C410 C 0.81047 0.97507 0.42367 0.0
C411 C 0.77063 0.00351 0.44607 0.0
C412 C 0.77457 0.04167 0.4573 0.0
C413 C 0.81312 0.0137 0.43427 0.0
C414 C 0.82071 0.09079 0.45613 0.0
C415 C 0.86294 0.10135 0.44431 0.0
H416 H 0.91125 0.95928 0.76844 0.0
H417 H 0.8975 0.84208 0.73362 0.0
H418 H 0.84768 0.77805 0.75597 0.0
H419 H 0.80919 0.75512 0.78552 0.0
H420 H 0.81936 0.87088 0.82022 0.0
H421 H 0.86938 0.93564 0.79785 0.0
C422 C 0.89733 0.91973 0.76577 0.0
C423 C 0.9083 0.90557 0.7494 0.0
C424 C 0.86807 0.88282 0.77865 0.0
C425 C 0.8896 0.85409 0.74608 0.0
C426 C 0.86113 0.81737 0.75887 0.0
C427 C 0.82211 0.79449 0.78815 0.0
C428 C 0.81077 0.80821 0.80452 0.0
C429 C 0.85027 0.83129 0.7752 0.0
C430 C 0.82778 0.85943 0.80773 0.0
C431 C 0.85635 0.89642 0.79495 0.0
H432 H 0.01748 0.93473 0.11228 0.0
H433 H 0.15976 0.96509 0.08177 0.0
H434 H 0.18367 0.91841 0.10298 0.0
H435 H 0.1617 0.86549 0.12935 0.0
H436 H 0.01606 0.82969 0.15891 0.0
H437 H 0.99573 0.88181 0.13896 0.0
C438 C 0.05413 0.93169 0.11047 0.0
C439 C 0.08703 0.95348 0.09558 0.0
C440 C 0.06662 0.90335 0.12242 0.0
C441 C 0.13387 0.9486 0.09316 0.0
C442 C 0.14747 0.92182 0.10524 0.0
C443 C 0.12551 0.8691 0.13142 0.0
C444 C 0.09038 0.8437 0.14556 0.0
C445 C 0.11366 0.89835 0.11976 0.0
C446 C 0.04368 0.84887 0.1481 0.0
C447 C 0.0321 0.87867 0.13671 0.0
H448 H 0.17416 0.10553 0.44046 0.0
H449 H 0.12163 0.95524 0.42089 0.0
H450 H 0.15551 0.93536 0.44778 0.0
H451 H 0.18949 0.95704 0.47821 0.0
H452 H 0.23754 0.10552 0.49841 0.0
H453 H 0.21614 0.12985 0.46993 0.0
C454 C 0.17125 0.06883 0.44191 0.0
C455 C 0.14499 0.0318 0.42874 0.0
C456 C 0.18935 0.05711 0.45763 0.0
C457 C 0.14129 0.98431 0.43088 0.0
C458 C 0.16045 0.97282 0.44628 0.0
C459 C 0.19625 0.99502 0.47623 0.0
C460 C 0.21524 0.02954 0.49032 0.0
C461 C 0.18287 0.00833 0.45996 0.0
C462 C 0.22321 0.07844 0.4877 0.0
C463 C 0.21084 0.09228 0.47146 0.0
H464 H 0.12216 0.26349 0.73822 0.0
H465 H 0.0833 0.14469 0.77615 0.0
H466 H 0.12306 0.20784 0.79971 0.0
H467 H 0.172 0.29723 0.80924 0.0
H468 H 0.20711 0.41513 0.77125 0.0
H469 H 0.16626 0.35183 0.74791 0.0
C470 C 0.12219 0.25134 0.75165 0.0
C471 C 0.10013 0.19953 0.75543 0.0
C472 C 0.14469 0.28771 0.76508 0.0
C473 C 0.09998 0.18436 0.77292 0.0
C474 C 0.12288 0.22046 0.78637 0.0
C475 C 0.16999 0.30895 0.79589 0.0
C476 C 0.19209 0.36083 0.79203 0.0
C477 C 0.14574 0.27227 0.78257 0.0
C478 C 0.19011 0.37549 0.7746 0.0
C479 C 0.16678 0.33933 0.76125 0.0
H480 H 0.95552 0.15154 0.68363 0.0
H481 H 0.89196 0.99714 0.66641 0.0
H482 H 0.85985 0.01579 0.63888 0.0
H483 H 0.85924 0.07845 0.6184 0.0
H484 H 0.92278 0.23257 0.63566 0.0
H485 H 0.94567 0.21157 0.66449 0.0
C486 C 0.93391 0.1217 0.67398 0.0
C487 C 0.92688 0.0732 0.677 0.0
C488 C 0.91625 0.13284 0.65808 0.0
C489 C 0.89815 0.03487 0.66443 0.0
C490 C 0.88008 0.04557 0.64861 0.0
C491 C 0.87747 0.10719 0.62857 0.0
C492 C 0.89002 0.1571 0.62488 0.0
C493 C 0.89044 0.09481 0.64509 0.0
C494 C 0.91326 0.194 0.63819 0.0
C495 C 0.9263 0.182 0.65464 0.0
H496 H 0.93125 0.86907 0.02852 0.0
H497 H 0.81483 0.91984 0.03819 0.0
H498 H 0.74203 0.84472 0.02328 0.0
H499 H 0.71168 0.76491 0.00725 0.0
H500 H 0.82874 0.71531 0.99731 0.0
H501 H 0.90109 0.78967 0.01271 0.0
C502 C 0.88994 0.86374 0.02744 0.0
C503 C 0.87861 0.90013 0.03447 0.0
C504 C 0.84846 0.82078 0.01874 0.0
C505 C 0.82479 0.89253 0.03288 0.0
C506 C 0.78311 0.84958 0.02435 0.0
C507 C 0.7532 0.77073 0.00833 0.0
C508 C 0.76527 0.73535 0.0008 0.0
C509 C 0.79457 0.81361 0.01715 0.0
C510 C 0.81882 0.74257 0.00269 0.0
C511 C 0.86007 0.78494 0.01153 0.0
H512 H 0.9382 0.84382 0.3631 0.0
H513 H 0.06122 0.96768 0.3324 0.0
H514 H 0.05331 0.90792 0.3096 0.0
H515 H 0.01278 0.81991 0.29881 0.0
H516 H 0.88751 0.69728 0.32938 0.0
H517 H 0.89565 0.75716 0.35196 0.0
C518 C 0.96323 0.85788 0.3514 0.0
C519 C 0.00039 0.91011 0.34948 0.0
C520 C 0.95835 0.82345 0.33839 0.0
C521 C 0.0322 0.92765 0.33418 0.0
C522 C 0.02785 0.89348 0.32118 0.0
C523 C 0.98706 0.80644 0.31037 0.0
C524 C 0.94942 0.7542 0.31236 0.0
C525 C 0.99129 0.84124 0.32321 0.0
C526 C 0.91673 0.73722 0.3275 0.0
C527 C 0.92127 0.77144 0.34041 0.0
H528 H 0.12313 0.96987 0.69937 0.0
H529 H 0.19772 0.13006 0.68847 0.0
H530 H 0.26887 0.12728 0.67117 0.0
H531 H 0.30518 0.07822 0.65712 0.0
H532 H 0.23297 0.91865 0.66847 0.0
H533 H 0.16523 0.9223 0.68754 0.0
C534 C 0.1553 0.00428 0.69337 0.0
C535 C 0.15473 0.04997 0.69509 0.0
C536 C 0.19626 0.0025 0.68343 0.0
C537 C 0.19705 0.09433 0.68736 0.0
C538 C 0.23768 0.09278 0.67738 0.0
C539 C 0.27552 0.04444 0.66407 0.0
C540 C 0.27463 0.99829 0.66159 0.0
C541 C 0.23705 0.0469 0.67505 0.0
C542 C 0.23491 0.95471 0.67039 0.0
C543 C 0.1961 0.95675 0.68122 0.0
H544 H 0.07051 0.16593 0.01479 0.0
H545 H 0.18488 0.11551 0.02966 0.0
H546 H 0.24887 0.16965 0.00717 0.0
H547 H 0.27028 0.22768 0.98225 0.0
H548 H 0.15618 0.27774 0.96704 0.0
H549 H 0.09401 0.22722 0.99069 0.0
C550 C 0.10963 0.16708 0.01323 0.0
C551 C 0.12263 0.13642 0.02387 0.0
C552 C 0.14616 0.19803 0.00015 0.0
C553 C 0.17361 0.13851 0.02164 0.0
C554 C 0.21026 0.16941 0.00875 0.0
C555 C 0.23209 0.22796 0.98426 0.0
C556 C 0.21803 0.2567 0.97304 0.0
C557 C 0.19662 0.19875 0.99778 0.0
C558 C 0.16806 0.25623 0.97563 0.0
C559 C 0.13253 0.2273 0.9891 0.0
H560 H 0.06419 0.15362 0.34062 0.0
H561 H 0.18539 0.26152 0.37689 0.0
H562 H 0.20683 0.33037 0.35615 0.0
H563 H 0.18816 0.36048 0.3283 0.0
H564 H 0.06267 0.25369 0.29283 0.0
H565 H 0.04578 0.18383 0.31262 0.0
C566 C 0.09582 0.19212 0.34385 0.0
C567 C 0.12339 0.2025 0.3602 0.0
C568 C 0.10673 0.23176 0.33208 0.0
C569 C 0.16363 0.25264 0.36436 0.0
C570 C 0.17581 0.29202 0.35254 0.0
C571 C 0.15713 0.32191 0.32492 0.0
C572 C 0.12669 0.31227 0.30914 0.0
C573 C 0.14704 0.28214 0.33648 0.0
C574 C 0.08664 0.26203 0.30491 0.0
C575 C 0.077 0.22213 0.3162 0.0
loop_
_geom_bond_atom_site_label_1
_geom_bond_atom_site_label_2
_geom_bond_distance
_geom_bond_site_symmetry_2
_ccdc_geom_bond_type
O0 Cd1 2.223 1_455 S
O0 C8 1.315 . S
Cd1 O0 2.223 1_655 S
Cd1 O4 2.297 . S
Cd1 O5 2.439 1_655 S
Cd1 O11 2.240 1_545 S
Cd2 O3 2.240 . S
Cd2 O10 2.223 1_545 S
Cd2 O12 2.297 1_545 S
Cd2 O13 2.439 1_545 S
O3 Cd2 2.240 . S
O3 C8 1.279 . S
O4 Cd1 2.297 . S
O4 C6 1.247 1_655 S
O5 Cd1 2.439 1_455 S
O5 C6 1.208 . S
C6 O4 1.247 1_455 S
C6 O5 1.208 . S
C7 O12 1.247 . S
C7 O13 1.208 . S
C8 O0 1.315 . S
C8 O3 1.279 . S
C9 O10 1.315 1_655 S
C9 O11 1.279 . S
O10 Cd2 2.223 1_565 S
O10 C9 1.315 1_455 S
O11 Cd1 2.240 1_565 S
O11 C9 1.279 . S
O12 Cd2 2.297 1_565 S
O12 C7 1.247 . S
O13 Cd2 2.439 1_565 S
O13 C7 1.208 . S
O14 Cd15 2.223 . S
O14 C22 1.315 1_455 S
Cd15 O14 2.223 . S
Cd15 O18 2.297 . S
Cd15 O19 2.439 . S
Cd15 O25 2.240 . S
Cd16 O17 2.240 1_565 S
Cd16 O24 2.223 1_655 S
Cd16 O26 2.297 1_655 S
Cd16 O27 2.439 1_655 S
O17 Cd16 2.240 1_545 S
O17 C22 1.279 . S
O18 Cd15 2.297 . S
O18 C20 1.247 . S
O19 Cd15 2.439 . S
O19 C20 1.208 . S
C20 O18 1.247 . S
C20 O19 1.208 . S
C21 O26 1.247 . S
C21 O27 1.208 . S
C22 O14 1.315 1_655 S
C22 O17 1.279 . S
C23 O24 1.315 1_545 S
C23 O25 1.279 . S
O24 Cd16 2.223 1_455 S
O24 C23 1.315 1_565 S
O25 Cd15 2.240 . S
O25 C23 1.279 . S
O26 Cd16 2.297 1_455 S
O26 C21 1.247 . S
O27 Cd16 2.439 1_455 S
O27 C21 1.208 . S
O28 Cd29 2.223 . S
O28 C36 1.315 1_565 S
Cd29 O28 2.223 . S
Cd29 O32 2.297 . S
Cd29 O33 2.439 . S
Cd29 O39 2.240 1_665 S
Cd30 O31 2.240 1_455 S
Cd30 O38 2.223 . S
Cd30 O40 2.297 . S
Cd30 O41 2.439 . S
O31 Cd30 2.240 1_655 S
O31 C36 1.279 . S
O32 Cd29 2.297 . S
O32 C34 1.247 . S
O33 Cd29 2.439 . S
O33 C34 1.208 . S
C34 O32 1.247 . S
C34 O33 1.208 . S
C35 O40 1.247 . S
C35 O41 1.208 . S
C36 O28 1.315 1_545 S
C36 O31 1.279 . S
C37 O38 1.315 . S
C37 O39 1.279 . S
O38 Cd30 2.223 . S
O38 C37 1.315 . S
O39 Cd29 2.240 1_445 S
O39 C37 1.279 . S
O40 Cd30 2.297 . S
O40 C35 1.247 . S
O41 Cd30 2.439 . S
O41 C35 1.208 . S
C42 C43 1.560 . S
C42 H103 0.959 . S
C42 H104 0.959 . S
C42 H105 0.960 . S
C43 C42 1.560 . S
C43 O98 1.426 . S
C43 H102 0.980 1_655 S
C44 C45 1.407 1_655 S
C44 C49 1.418 . S
C44 O98 1.334 . S
C45 C44 1.407 1_455 S
C45 C46 1.360 . S
C45 H106 0.929 . S
C46 C45 1.360 . S
C46 C47 1.401 . S
C46 C50 1.527 . S
C47 C46 1.401 . S
C47 C48 1.405 1_455 S
C47 C80 1.587 . S
C48 C47 1.405 1_655 S
C48 C49 1.332 . S
C48 C51 1.496 . S
C49 C44 1.418 . S
C49 C48 1.332 . S
C49 H107 0.929 . S
C50 C46 1.527 . S
C50 H108 0.959 . S
C50 H109 0.961 . S
C50 H110 0.961 . S
C51 C48 1.496 . S
C51 H111 0.960 . S
C51 H112 0.960 . S
C51 H113 0.961 . S
C52 C53 1.517 . S
C52 H115 0.961 . S
C52 H116 0.960 . S
C52 H117 0.959 . S
C53 C52 1.517 . S
C53 O101 1.468 . S
C53 H114 0.980 . S
C54 C55 1.349 . S
C54 C59 1.367 . S
C54 O101 1.408 . S
C55 C54 1.349 . S
C55 C56 1.407 . S
C55 H118 0.930 . S
C56 C55 1.407 . S
C56 C57 1.449 . S
C56 C60 1.535 1_455 S
C57 C56 1.449 . S
C57 C58 1.384 . S
C57 C82 1.553 . S
C58 C57 1.384 . S
C58 C59 1.364 . S
C58 C61 1.450 . S
C59 C54 1.367 . S
C59 C58 1.364 . S
C59 H119 0.931 . S
C60 C56 1.535 1_655 S
C60 H120 0.959 . S
C60 H121 0.961 . S
C60 H122 0.959 . S
C61 C58 1.450 . S
C61 H123 0.960 . S
C61 H124 0.960 . S
C61 H125 0.960 . S
C62 C63 1.309 . S
C62 C67 1.304 . S
C62 O100 1.435 . S
C63 C62 1.309 . S
C63 C64 1.476 . S
C63 H127 0.930 1_455 S
C64 C63 1.476 . S
C64 C65 1.400 . S
C64 C68 1.567 1_455 S
C65 C64 1.400 . S
C65 C66 1.373 . S
C65 C87 1.432 . S
C66 C65 1.373 . S
C66 C67 1.339 . S
C66 C69 1.530 . S
C67 C62 1.304 . S
C67 C66 1.339 . S
C67 H128 0.930 . S
C68 C64 1.567 1_655 S
C68 H129 0.961 . S
C68 H130 0.960 . S
C68 H131 0.958 . S
C69 C66 1.530 . S
C69 H132 0.961 . S
C69 H133 0.960 . S
C69 H134 0.960 . S
C70 C71 1.530 1_655 S
C70 H136 0.961 . S
C70 H137 0.961 . S
C70 H138 0.959 . S
C71 C70 1.530 1_455 S
C71 O99 1.412 1_455 S
C71 H135 0.980 . S
C72 C73 1.288 . S
C72 C77 1.377 1_655 S
C72 O99 1.393 . S
C73 C72 1.288 . S
C73 C74 1.369 . S
C73 H139 0.932 . S
C74 C73 1.369 . S
C74 C75 1.398 1_655 S
C74 C78 1.527 . S
C75 C74 1.398 1_455 S
C75 C76 1.380 . S
C75 C89 1.497 . S
C76 C75 1.380 . S
C76 C77 1.383 . S
C76 C79 1.603 . S
C77 C72 1.377 1_455 S
C77 C76 1.383 . S
C77 H140 0.929 . S
C78 C74 1.527 . S
C78 H141 0.961 . S
C78 H142 0.959 . S
C78 H143 0.959 . S
C79 C76 1.603 . S
C79 H144 0.960 . S
C79 H145 0.962 . S
C79 H146 0.961 . S
C80 C47 1.587 . S
C80 C81 1.360 . S
C80 C93 1.412 . S
C81 C80 1.360 . S
C81 C82 1.365 . S
C81 H147 0.929 . S
C82 C57 1.553 . S
C82 C81 1.365 . S
C82 C83 1.404 . S
C83 C82 1.404 . S
C83 C84 1.395 . S
C83 C94 1.451 . S
C84 C83 1.395 . S
C84 C85 1.322 . S
C84 H148 0.930 . S
C85 C84 1.322 . S
C85 C86 1.459 . S
C85 H149 0.929 . S
C86 C85 1.459 . S
C86 C87 1.445 . S
C86 C95 1.395 . S
C87 C65 1.432 . S
C87 C86 1.445 . S
C87 C88 1.370 . S
C88 C87 1.370 . S
C88 C89 1.438 . S
C88 H150 0.930 . S
C89 C75 1.497 . S
C89 C88 1.438 . S
C89 C90 1.360 . S
C90 C89 1.360 . S
C90 C91 1.401 . S
C90 C95 1.446 . S
C91 C90 1.401 . S
C91 C92 1.347 . S
C91 H151 0.929 . S
C92 C91 1.347 . S
C92 C93 1.455 . S
C92 H152 0.930 . S
C93 C80 1.412 . S
C93 C92 1.455 . S
C93 C94 1.331 . S
C94 C83 1.451 . S
C94 C93 1.331 . S
C94 C95 1.497 . S
C95 C86 1.395 . S
C95 C90 1.446 . S
C95 C94 1.497 . S
C96 C97 1.582 . S
C96 H153 0.962 . S
C96 H154 0.959 . S
C96 H155 0.958 . S
C97 C96 1.582 . S
C97 O100 1.458 . S
C97 H126 0.980 . S
O98 C43 1.426 . S
O98 C44 1.334 . S
O99 C71 1.412 1_655 S
O99 C72 1.393 . S
O100 C62 1.435 . S
O100 C97 1.458 . S
O101 C53 1.468 . S
O101 C54 1.408 . S
H102 C43 0.980 1_455 S
H103 C42 0.959 . S
H104 C42 0.959 . S
H105 C42 0.960 . S
H106 C45 0.929 . S
H107 C49 0.929 . S
H108 C50 0.959 . S
H109 C50 0.961 . S
H110 C50 0.961 . S
H111 C51 0.960 . S
H112 C51 0.960 . S
H113 C51 0.961 . S
H114 C53 0.980 . S
H115 C52 0.961 . S
H116 C52 0.960 . S
H117 C52 0.959 . S
H118 C55 0.930 . S
H119 C59 0.931 . S
H120 C60 0.959 . S
H121 C60 0.961 . S
H122 C60 0.959 . S
H123 C61 0.960 . S
H124 C61 0.960 . S
H125 C61 0.960 . S
H126 C97 0.980 . S
H127 C63 0.930 1_655 S
H128 C67 0.930 . S
H129 C68 0.961 . S
H130 C68 0.960 . S
H131 C68 0.958 . S
H132 C69 0.961 . S
H133 C69 0.960 . S
H134 C69 0.960 . S
H135 C71 0.980 . S
H136 C70 0.961 . S
H137 C70 0.961 . S
H138 C70 0.959 . S
H139 C73 0.932 . S
H140 C77 0.929 . S
H141 C78 0.961 . S
H142 C78 0.959 . S
H143 C78 0.959 . S
H144 C79 0.960 . S
H145 C79 0.962 . S
H146 C79 0.961 . S
H147 C81 0.929 . S
H148 C84 0.930 . S
H149 C85 0.929 . S
H150 C88 0.930 . S
H151 C91 0.929 . S
H152 C92 0.930 . S
H153 C96 0.962 . S
H154 C96 0.959 . S
H155 C96 0.958 . S
C156 C157 1.560 1_565 S
C156 H217 0.959 . S
C156 H218 0.959 . S
C156 H219 0.960 1_565 S
C157 C156 1.560 1_545 S
C157 O212 1.426 . S
C157 H216 0.980 . S
C158 C159 1.407 . S
C158 C163 1.418 1_545 S
C158 O212 1.334 . S
C159 C158 1.407 . S
C159 C160 1.360 . S
C159 H220 0.929 . S
C160 C159 1.360 . S
C160 C161 1.401 . S
C160 C164 1.527 . S
C161 C160 1.401 . S
C161 C162 1.405 . S
C161 C194 1.587 . S
C162 C161 1.405 . S
C162 C163 1.332 1_545 S
C162 C165 1.496 1_545 S
C163 C158 1.418 1_565 S
C163 C162 1.332 1_565 S
C163 H221 0.929 . S
C164 C160 1.527 . S
C164 H222 0.959 . S
C164 H223 0.961 . S
C164 H224 0.961 . S
C165 C162 1.496 1_565 S
C165 H225 0.960 . S
C165 H226 0.960 . S
C165 H227 0.961 . S
C166 C167 1.517 . S
C166 H229 0.961 . S
C166 H230 0.960 . S
C166 H231 0.959 . S
C167 C166 1.517 . S
C167 O215 1.468 . S
C167 H228 0.980 . S
C168 C169 1.349 . S
C168 C173 1.367 . S
C168 O215 1.408 . S
C169 C168 1.349 . S
C169 C170 1.407 . S
C169 H232 0.930 . S
C170 C169 1.407 . S
C170 C171 1.449 . S
C170 C174 1.535 . S
C171 C170 1.449 . S
C171 C172 1.384 . S
C171 C196 1.553 . S
C172 C171 1.384 . S
C172 C173 1.364 . S
C172 C175 1.450 . S
C173 C168 1.367 . S
C173 C172 1.364 . S
C173 H233 0.931 . S
C174 C170 1.535 . S
C174 H234 0.959 . S
C174 H235 0.961 1_545 S
C174 H236 0.959 1_545 S
C175 C172 1.450 . S
C175 H237 0.960 . S
C175 H238 0.960 . S
C175 H239 0.960 . S
C176 C177 1.309 . S
C176 C181 1.304 . S
C176 O214 1.435 . S
C177 C176 1.309 . S
C177 C178 1.476 . S
C177 H241 0.930 . S
C178 C177 1.476 . S
C178 C179 1.400 . S
C178 C182 1.567 1_545 S
C179 C178 1.400 . S
C179 C180 1.373 . S
C179 C201 1.432 . S
C180 C179 1.373 . S
C180 C181 1.339 . S
C180 C183 1.530 . S
C181 C176 1.304 . S
C181 C180 1.339 . S
C181 H242 0.930 . S
C182 C178 1.567 1_565 S
C182 H243 0.961 . S
C182 H244 0.960 . S
C182 H245 0.958 . S
C183 C180 1.530 . S
C183 H246 0.961 . S
C183 H247 0.960 . S
C183 H248 0.960 . S
C184 C185 1.530 . S
C184 H250 0.961 . S
C184 H251 0.961 1_545 S
C184 H252 0.959 1_545 S
C185 C184 1.530 . S
C185 O213 1.412 . S
C185 H249 0.980 . S
C186 C187 1.288 1_545 S
C186 C191 1.377 . S
C186 O213 1.393 . S
C187 C186 1.288 1_565 S
C187 C188 1.369 1_565 S
C187 H253 0.932 . S
C188 C187 1.369 1_545 S
C188 C189 1.398 . S
C188 C192 1.527 1_545 S
C189 C188 1.398 . S
C189 C190 1.380 . S
C189 C203 1.497 . S
C190 C189 1.380 . S
C190 C191 1.383 . S
C190 C193 1.603 . S
C191 C186 1.377 . S
C191 C190 1.383 . S
C191 H254 0.929 . S
C192 C188 1.527 1_565 S
C192 H255 0.961 . S
C192 H256 0.959 . S
C192 H257 0.959 . S
C193 C190 1.603 . S
C193 H258 0.960 . S
C193 H259 0.962 . S
C193 H260 0.961 . S
C194 C161 1.587 . S
C194 C195 1.360 . S
C194 C207 1.412 . S
C195 C194 1.360 . S
C195 C196 1.365 . S
C195 H261 0.929 . S
C196 C171 1.553 . S
C196 C195 1.365 . S
C196 C197 1.404 . S
C197 C196 1.404 . S
C197 C198 1.395 . S
C197 C208 1.451 . S
C198 C197 1.395 . S
C198 C199 1.322 . S
C198 H262 0.930 . S
C199 C198 1.322 . S
C199 C200 1.459 . S
C199 H263 0.929 . S
C200 C199 1.459 . S
C200 C201 1.445 . S
C200 C209 1.395 . S
C201 C179 1.432 . S
C201 C200 1.445 . S
C201 C202 1.370 . S
C202 C201 1.370 . S
C202 C203 1.438 . S
C202 H264 0.930 . S
C203 C189 1.497 . S
C203 C202 1.438 . S
C203 C204 1.360 . S
C204 C203 1.360 . S
C204 C205 1.401 . S
C204 C209 1.446 . S
C205 C204 1.401 . S
C205 C206 1.347 . S
C205 H265 0.929 . S
C206 C205 1.347 . S
C206 C207 1.455 . S
C206 H266 0.930 . S
C207 C194 1.412 . S
C207 C206 1.455 . S
C207 C208 1.331 . S
C208 C197 1.451 . S
C208 C207 1.331 . S
C208 C209 1.497 . S
C209 C200 1.395 . S
C209 C204 1.446 . S
C209 C208 1.497 . S
C210 C211 1.582 . S
C210 H267 0.962 . S
C210 H268 0.959 . S
C210 H269 0.958 . S
C211 C210 1.582 . S
C211 O214 1.458 . S
C211 H240 0.980 . S
O212 C157 1.426 . S
O212 C158 1.334 . S
O213 C185 1.412 . S
O213 C186 1.393 . S
O214 C176 1.435 . S
O214 C211 1.458 . S
O215 C167 1.468 . S
O215 C168 1.408 . S
H216 C157 0.980 . S
H217 C156 0.959 . S
H218 C156 0.959 . S
H219 C156 0.960 1_545 S
H220 C159 0.929 . S
H221 C163 0.929 . S
H222 C164 0.959 . S
H223 C164 0.961 . S
H224 C164 0.961 . S
H225 C165 0.960 . S
H226 C165 0.960 . S
H227 C165 0.961 . S
H228 C167 0.980 . S
H229 C166 0.961 . S
H230 C166 0.960 . S
H231 C166 0.959 . S
H232 C169 0.930 . S
H233 C173 0.931 . S
H234 C174 0.959 . S
H235 C174 0.961 1_565 S
H236 C174 0.959 1_565 S
H237 C175 0.960 . S
H238 C175 0.960 . S
H239 C175 0.960 . S
H240 C211 0.980 . S
H241 C177 0.930 . S
H242 C181 0.930 . S
H243 C182 0.961 . S
H244 C182 0.960 . S
H245 C182 0.958 . S
H246 C183 0.961 . S
H247 C183 0.960 . S
H248 C183 0.960 . S
H249 C185 0.980 . S
H250 C184 0.961 . S
H251 C184 0.961 1_565 S
H252 C184 0.959 1_565 S
H253 C187 0.932 . S
H254 C191 0.929 . S
H255 C192 0.961 . S
H256 C192 0.959 . S
H257 C192 0.959 . S
H258 C193 0.960 . S
H259 C193 0.962 . S
H260 C193 0.961 . S
H261 C195 0.929 . S
H262 C198 0.930 . S
H263 C199 0.929 . S
H264 C202 0.930 . S
H265 C205 0.929 . S
H266 C206 0.930 . S
H267 C210 0.962 . S
H268 C210 0.959 . S
H269 C210 0.958 . S
C270 C271 1.560 . S
C270 H331 0.959 . S
C270 H332 0.959 . S
C270 H333 0.960 . S
C271 C270 1.560 . S
C271 O326 1.426 . S
C271 H330 0.980 . S
C272 C273 1.407 . S
C272 C277 1.418 . S
C272 O326 1.334 . S
C273 C272 1.407 . S
C273 C274 1.360 . S
C273 H334 0.929 . S
C274 C273 1.360 . S
C274 C275 1.401 . S
C274 C278 1.527 . S
C275 C274 1.401 . S
C275 C276 1.405 . S
C275 C308 1.587 . S
C276 C275 1.405 . S
C276 C277 1.332 . S
C276 C279 1.496 . S
C277 C272 1.418 . S
C277 C276 1.332 . S
C277 H335 0.929 . S
C278 C274 1.527 . S
C278 H336 0.959 . S
C278 H337 0.961 . S
C278 H338 0.961 . S
C279 C276 1.496 . S
C279 H339 0.960 . S
C279 H340 0.960 . S
C279 H341 0.961 . S
C280 C281 1.517 . S
C280 H343 0.961 . S
C280 H344 0.960 . S
C280 H345 0.959 . S
C281 C280 1.517 . S
C281 O329 1.468 . S
C281 H342 0.980 . S
C282 C283 1.349 . S
C282 C287 1.367 . S
C282 O329 1.408 . S
C283 C282 1.349 . S
C283 C284 1.407 . S
C283 H346 0.930 . S
C284 C283 1.407 . S
C284 C285 1.449 . S
C284 C288 1.535 . S
C285 C284 1.449 . S
C285 C286 1.384 . S
C285 C310 1.553 . S
C286 C285 1.384 . S
C286 C287 1.364 . S
C286 C289 1.450 . S
C287 C282 1.367 . S
C287 C286 1.364 . S
C287 H347 0.931 . S
C288 C284 1.535 . S
C288 H348 0.959 . S
C288 H349 0.961 . S
C288 H350 0.959 . S
C289 C286 1.450 . S
C289 H351 0.960 . S
C289 H352 0.960 . S
C289 H353 0.960 . S
C290 C291 1.309 . S
C290 C295 1.304 . S
C290 O328 1.435 . S
C291 C290 1.309 . S
C291 C292 1.476 . S
C291 H355 0.930 . S
C292 C291 1.476 . S
C292 C293 1.400 . S
C292 C296 1.567 . S
C293 C292 1.400 . S
C293 C294 1.373 . S
C293 C315 1.432 . S
C294 C293 1.373 . S
C294 C295 1.339 . S
C294 C297 1.530 . S
C295 C290 1.304 . S
C295 C294 1.339 . S
C295 H356 0.930 . S
C296 C292 1.567 . S
C296 H357 0.961 . S
C296 H358 0.960 . S
C296 H359 0.958 . S
C297 C294 1.530 . S
C297 H360 0.961 . S
C297 H361 0.960 . S
C297 H362 0.960 . S
C298 C299 1.530 . S
C298 H364 0.961 . S
C298 H365 0.961 . S
C298 H366 0.959 . S
C299 C298 1.530 . S
C299 O327 1.412 . S
C299 H363 0.980 . S
C300 C301 1.288 . S
C300 C305 1.377 . S
C300 O327 1.393 . S
C301 C300 1.288 . S
C301 C302 1.369 . S
C301 H367 0.932 . S
C302 C301 1.369 . S
C302 C303 1.398 . S
C302 C306 1.527 . S
C303 C302 1.398 . S
C303 C304 1.380 . S
C303 C317 1.497 . S
C304 C303 1.380 . S
C304 C305 1.383 . S
C304 C307 1.603 . S
C305 C300 1.377 . S
C305 C304 1.383 . S
C305 H368 0.929 . S
C306 C302 1.527 . S
C306 H369 0.961 . S
C306 H370 0.959 . S
C306 H371 0.959 . S
C307 C304 1.603 . S
C307 H372 0.960 . S
C307 H373 0.962 . S
C307 H374 0.961 . S
C308 C275 1.587 . S
C308 C309 1.360 . S
C308 C321 1.412 . S
C309 C308 1.360 . S
C309 C310 1.365 . S
C309 H375 0.929 . S
C310 C285 1.553 . S
C310 C309 1.365 . S
C310 C311 1.404 . S
C311 C310 1.404 . S
C311 C312 1.395 . S
C311 C322 1.451 . S
C312 C311 1.395 . S
C312 C313 1.322 . S
C312 H376 0.930 . S
C313 C312 1.322 . S
C313 C314 1.459 . S
C313 H377 0.929 . S
C314 C313 1.459 . S
C314 C315 1.445 . S
C314 C323 1.395 . S
C315 C293 1.432 . S
C315 C314 1.445 . S
C315 C316 1.370 . S
C316 C315 1.370 . S
C316 C317 1.438 . S
C316 H378 0.930 . S
C317 C303 1.497 . S
C317 C316 1.438 . S
C317 C318 1.360 . S
C318 C317 1.360 . S
C318 C319 1.401 . S
C318 C323 1.446 . S
C319 C318 1.401 . S
C319 C320 1.347 . S
C319 H379 0.929 . S
C320 C319 1.347 . S
C320 C321 1.455 . S
C320 H380 0.930 . S
C321 C308 1.412 . S
C321 C320 1.455 . S
C321 C322 1.331 . S
C322 C311 1.451 . S
C322 C321 1.331 . S
C322 C323 1.497 . S
C323 C314 1.395 . S
C323 C318 1.446 . S
C323 C322 1.497 . S
C324 C325 1.582 . S
C324 H381 0.962 . S
C324 H382 0.959 . S
C324 H383 0.958 . S
C325 C324 1.582 . S
C325 O328 1.458 . S
C325 H354 0.980 . S
O326 C271 1.426 . S
O326 C272 1.334 . S
O327 C299 1.412 . S
O327 C300 1.393 . S
O328 C290 1.435 . S
O328 C325 1.458 . S
O329 C281 1.468 . S
O329 C282 1.408 . S
H330 C271 0.980 . S
H331 C270 0.959 . S
H332 C270 0.959 . S
H333 C270 0.960 . S
H334 C273 0.929 . S
H335 C277 0.929 . S
H336 C278 0.959 . S
H337 C278 0.961 . S
H338 C278 0.961 . S
H339 C279 0.960 . S
H340 C279 0.960 . S
H341 C279 0.961 . S
H342 C281 0.980 . S
H343 C280 0.961 . S
H344 C280 0.960 . S
H345 C280 0.959 . S
H346 C283 0.930 . S
H347 C287 0.931 . S
H348 C288 0.959 . S
H349 C288 0.961 . S
H350 C288 0.959 . S
H351 C289 0.960 . S
H352 C289 0.960 . S
H353 C289 0.960 . S
H354 C325 0.980 . S
H355 C291 0.930 . S
H356 C295 0.930 . S
H357 C296 0.961 . S
H358 C296 0.960 . S
H359 C296 0.958 . S
H360 C297 0.961 . S
H361 C297 0.960 . S
H362 C297 0.960 . S
H363 C299 0.980 . S
H364 C298 0.961 . S
H365 C298 0.961 . S
H366 C298 0.959 . S
H367 C301 0.932 . S
H368 C305 0.929 . S
H369 C306 0.961 . S
H370 C306 0.959 . S
H371 C306 0.959 . S
H372 C307 0.960 . S
H373 C307 0.962 . S
H374 C307 0.961 . S
H375 C309 0.929 . S
H376 C312 0.930 . S
H377 C313 0.929 . S
H378 C316 0.930 . S
H379 C319 0.929 . S
H380 C320 0.930 . S
H381 C324 0.962 . S
H382 C324 0.959 . S
H383 C324 0.958 . S
H384 C390 0.930 . S
H385 C393 0.930 . S
H386 C394 0.930 . S
H387 C395 0.930 . S
H388 C398 0.930 . S
H389 C399 0.930 . S
C390 H384 0.930 . S
C390 C391 1.355 . S
C390 C392 1.415 . S
C391 C390 1.355 . S
C391 C393 1.419 1_455 S
C392 C390 1.415 . S
C392 C397 1.425 1_455 S
C392 C399 1.409 . S
C393 H385 0.930 . S
C393 C391 1.419 1_655 S
C393 C394 1.362 . S
C394 H386 0.930 . S
C394 C393 1.362 . S
C394 C397 1.409 . S
C395 H387 0.930 . S
C395 C396 1.355 1_655 S
C395 C397 1.415 . S
C396 C395 1.355 1_455 S
C396 C398 1.419 . S
C397 C392 1.425 1_655 S
C397 C394 1.409 . S
C397 C395 1.415 . S
C398 H388 0.930 . S
C398 C396 1.419 . S
C398 C399 1.362 . S
C399 H389 0.930 . S
C399 C392 1.409 . S
C399 C398 1.362 . S
H400 C406 0.930 . S
H401 C409 0.942 . S
H402 C410 0.930 . S
H403 C411 0.930 . S
H404 C414 0.930 1_565 S
H405 C415 0.930 1_565 S
C406 H400 0.930 . S
C406 C407 1.355 . S
C406 C408 1.415 . S
C407 C406 1.355 . S
C407 C409 1.419 . S
C408 C406 1.415 . S
C408 C413 1.425 . S
C408 C415 1.409 . S
C409 H401 0.942 . S
C409 C407 1.419 . S
C409 C410 1.362 . S
C410 H402 0.930 . S
C410 C409 1.362 . S
C410 C413 1.409 . S
C411 H403 0.930 . S
C411 C412 1.355 . S
C411 C413 1.415 . S
C412 C411 1.355 . S
C412 C414 1.419 . S
C413 C408 1.425 . S
C413 C410 1.409 . S
C413 C411 1.415 . S
C414 H404 0.930 1_545 S
C414 C412 1.419 . S
C414 C415 1.362 . S
C415 H405 0.930 1_545 S
C415 C408 1.409 . S
C415 C414 1.362 . S
H416 C422 0.930 . S
H417 C425 0.930 . S
H418 C426 0.930 . S
H419 C427 0.930 . S
H420 C430 0.930 . S
H421 C431 0.930 . S
C422 H416 0.930 . S
C422 C423 1.355 . S
C422 C424 1.415 . S
C423 C422 1.355 . S
C423 C425 1.419 . S
C424 C422 1.415 . S
C424 C429 1.425 . S
C424 C431 1.409 . S
C425 H417 0.930 . S
C425 C423 1.419 . S
C425 C426 1.362 . S
C426 H418 0.930 . S
C426 C425 1.362 . S
C426 C429 1.409 . S
C427 H419 0.930 . S
C427 C428 1.355 . S
C427 C429 1.415 . S
C428 C427 1.355 . S
C428 C430 1.419 . S
C429 C424 1.425 . S
C429 C426 1.409 . S
C429 C427 1.415 . S
C430 H420 0.930 . S
C430 C428 1.419 . S
C430 C431 1.362 . S
C431 H421 0.930 . S
C431 C424 1.409 . S
C431 C430 1.362 . S
H432 C438 0.930 . S
H433 C441 0.933 . S
H434 C442 0.930 . S
H435 C443 0.930 . S
H436 C446 0.930 . S
H437 C447 0.930 . S
C438 H432 0.930 . S
C438 C439 1.355 . S
C438 C440 1.415 . S
C439 C438 1.355 . S
C439 C441 1.419 . S
C440 C438 1.415 . S
C440 C445 1.425 . S
C440 C447 1.409 . S
C441 H433 0.933 . S
C441 C439 1.419 . S
C441 C442 1.362 . S
C442 H434 0.930 . S
C442 C441 1.362 . S
C442 C445 1.409 . S
C443 H435 0.930 . S
C443 C444 1.355 . S
C443 C445 1.415 . S
C444 C443 1.355 . S
C444 C446 1.419 . S
C445 C440 1.425 . S
C445 C442 1.409 . S
C445 C443 1.415 . S
C446 H436 0.930 . S
C446 C444 1.419 . S
C446 C447 1.362 . S
C447 H437 0.930 . S
C447 C440 1.409 . S
C447 C446 1.362 . S
H448 C454 0.930 . S
H449 C457 0.930 . S
H450 C458 0.930 . S
H451 C459 0.930 . S
H452 C462 0.930 . S
H453 C463 0.930 . S
C454 H448 0.930 . S
C454 C455 1.355 . S
C454 C456 1.415 . S
C455 C454 1.355 . S
C455 C457 1.419 . S
C456 C454 1.415 . S
C456 C461 1.425 . S
C456 C463 1.409 . S
C457 H449 0.930 . S
C457 C455 1.419 . S
C457 C458 1.362 . S
C458 H450 0.930 . S
C458 C457 1.362 . S
C458 C461 1.409 . S
C459 H451 0.930 . S
C459 C460 1.355 . S
C459 C461 1.415 . S
C460 C459 1.355 . S
C460 C462 1.419 . S
C461 C456 1.425 . S
C461 C458 1.409 . S
C461 C459 1.415 . S
C462 H452 0.930 . S
C462 C460 1.419 . S
C462 C463 1.362 . S
C463 H453 0.930 . S
C463 C456 1.409 . S
C463 C462 1.362 . S
H464 C470 0.930 . S
H465 C473 0.930 . S
H466 C474 0.930 . S
H467 C475 0.930 . S
H468 C478 0.930 . S
H469 C479 0.930 . S
C470 H464 0.930 . S
C470 C471 1.355 . S
C470 C472 1.415 . S
C471 C470 1.355 . S
C471 C473 1.419 . S
C472 C470 1.415 . S
C472 C477 1.425 . S
C472 C479 1.409 . S
C473 H465 0.930 . S
C473 C471 1.419 . S
C473 C474 1.362 . S
C474 H466 0.930 . S
C474 C473 1.362 . S
C474 C477 1.409 . S
C475 H467 0.930 . S
C475 C476 1.355 . S
C475 C477 1.415 . S
C476 C475 1.355 . S
C476 C478 1.419 . S
C477 C472 1.425 . S
C477 C474 1.409 . S
C477 C475 1.415 . S
C478 H468 0.930 . S
C478 C476 1.419 . S
C478 C479 1.362 . S
C479 H469 0.930 . S
C479 C472 1.409 . S
C479 C478 1.362 . S
H480 C486 0.930 . S
H481 C489 0.930 . S
H482 C490 0.930 . S
H483 C491 0.930 . S
H484 C494 0.930 . S
H485 C495 0.930 . S
C486 H480 0.930 . S
C486 C487 1.355 . S
C486 C488 1.415 . S
C487 C486 1.355 . S
C487 C489 1.419 . S
C488 C486 1.415 . S
C488 C493 1.425 . S
C488 C495 1.409 . S
C489 H481 0.930 . S
C489 C487 1.419 . S
C489 C490 1.362 . S
C490 H482 0.930 . S
C490 C489 1.362 . S
C490 C493 1.409 . S
C491 H483 0.930 . S
C491 C492 1.355 . S
C491 C493 1.415 . S
C492 C491 1.355 . S
C492 C494 1.419 . S
C493 C488 1.425 . S
C493 C490 1.409 . S
C493 C491 1.415 . S
C494 H484 0.930 . S
C494 C492 1.419 . S
C494 C495 1.362 . S
C495 H485 0.930 . S
C495 C488 1.409 . S
C495 C494 1.362 . S
H496 C502 0.930 . S
H497 C505 0.930 . S
H498 C506 0.930 . S
H499 C507 0.906 1_554 S
H500 C510 0.930 . S
H501 C511 0.930 . S
C502 H496 0.930 . S
C502 C503 1.355 . S
C502 C504 1.390 1_554 S
C503 C502 1.355 . S
C503 C505 1.419 . S
C504 C502 1.390 1_556 S
C504 C509 1.400 1_556 S
C504 C511 1.461 . S
C505 H497 0.930 . S
C505 C503 1.419 . S
C505 C506 1.362 . S
C506 H498 0.930 . S
C506 C505 1.362 . S
C506 C509 1.409 . S
C507 H499 0.906 1_556 S
C507 C508 1.402 . S
C507 C509 1.393 1_556 S
C508 C507 1.402 . S
C508 C510 1.419 . S
C509 C504 1.400 1_554 S
C509 C506 1.409 . S
C509 C507 1.393 1_554 S
C510 H500 0.930 . S
C510 C508 1.419 . S
C510 C511 1.362 . S
C511 H501 0.930 . S
C511 C504 1.461 . S
C511 C510 1.362 . S
H512 C518 0.930 . S
H513 C521 0.930 . S
H514 C522 0.930 . S
H515 C523 0.930 . S
H516 C526 0.930 . S
H517 C527 0.930 . S
C518 H512 0.930 . S
C518 C519 1.355 . S
C518 C520 1.415 . S
C519 C518 1.355 . S
C519 C521 1.419 . S
C520 C518 1.415 . S
C520 C525 1.425 . S
C520 C527 1.409 . S
C521 H513 0.930 . S
C521 C519 1.419 . S
C521 C522 1.362 . S
C522 H514 0.930 . S
C522 C521 1.362 . S
C522 C525 1.409 . S
C523 H515 0.930 . S
C523 C524 1.355 . S
C523 C525 1.415 . S
C524 C523 1.355 . S
C524 C526 1.419 . S
C525 C520 1.425 . S
C525 C522 1.409 . S
C525 C523 1.415 . S
C526 H516 0.930 . S
C526 C524 1.419 . S
C526 C527 1.362 . S
C527 H517 0.930 . S
C527 C520 1.409 . S
C527 C526 1.362 . S
H528 C534 0.930 . S
H529 C537 0.930 . S
H530 C538 0.930 . S
H531 C539 0.930 . S
H532 C542 0.930 . S
H533 C543 0.930 . S
C534 H528 0.930 . S
C534 C535 1.355 . S
C534 C536 1.415 . S
C535 C534 1.355 . S
C535 C537 1.419 . S
C536 C534 1.415 . S
C536 C541 1.425 . S
C536 C543 1.409 . S
C537 H529 0.930 . S
C537 C535 1.419 . S
C537 C538 1.362 . S
C538 H530 0.930 . S
C538 C537 1.362 . S
C538 C541 1.409 . S
C539 H531 0.930 . S
C539 C540 1.355 . S
C539 C541 1.415 . S
C540 C539 1.355 . S
C540 C542 1.419 . S
C541 C536 1.425 . S
C541 C538 1.409 . S
C541 C539 1.415 . S
C542 H532 0.930 . S
C542 C540 1.419 . S
C542 C543 1.362 . S
C543 H533 0.930 . S
C543 C536 1.409 . S
C543 C542 1.362 . S
H544 C550 0.930 . S
H545 C553 0.930 . S
H546 C554 0.930 . S
H547 C555 0.930 . S
H548 C558 0.930 . S
H549 C559 0.930 . S
C550 H544 0.930 . S
C550 C551 1.355 . S
C550 C552 1.415 . S
C551 C550 1.355 . S
C551 C553 1.419 . S
C552 C550 1.415 . S
C552 C557 1.425 1_554 S
C552 C559 1.409 . S
C553 H545 0.930 . S
C553 C551 1.419 . S
C553 C554 1.362 1_554 S
C554 H546 0.930 . S
C554 C553 1.362 1_556 S
C554 C557 1.409 . S
C555 H547 0.930 . S
C555 C556 1.355 . S
C555 C557 1.415 . S
C556 C555 1.355 . S
C556 C558 1.419 . S
C557 C552 1.425 1_556 S
C557 C554 1.409 . S
C557 C555 1.415 . S
C558 H548 0.930 . S
C558 C556 1.419 . S
C558 C559 1.362 1_556 S
C559 H549 0.930 . S
C559 C552 1.409 . S
C559 C558 1.362 1_554 S
H560 C566 0.930 . S
H561 C569 0.930 . S
H562 C570 0.930 . S
H563 C571 0.930 . S
H564 C574 0.930 . S
H565 C575 0.930 . S
C566 H560 0.930 . S
C566 C567 1.355 . S
C566 C568 1.415 . S
C567 C566 1.355 . S
C567 C569 1.419 . S
C568 C566 1.415 . S
C568 C573 1.425 . S
C568 C575 1.409 . S
C569 H561 0.930 . S
C569 C567 1.419 . S
C569 C570 1.362 . S
C570 H562 0.930 . S
C570 C569 1.362 . S
C570 C573 1.409 . S
C571 H563 0.930 . S
C571 C572 1.355 . S
C571 C573 1.415 . S
C572 C571 1.355 . S
C572 C574 1.419 . S
C573 C568 1.425 . S
C573 C570 1.409 . S
C573 C571 1.415 . S
C574 H564 0.930 . S
C574 C572 1.419 . S
C574 C575 1.362 . S
C575 H565 0.930 . S
C575 C568 1.409 . S
C575 C574 1.362 . S
C396 C97 1.052 . S
C391 C6 1.530 . S
C407 C22 1.629 . S
C412 C211 1.310 . S
C423 C34 1.118 . S
C428 C271 0.996 . S
C439 C7 1.390 . S
C444 C71 1.059 . S
C460 C185 1.128 . S
C455 C23 1.518 . S
C471 C35 1.272 . S
C476 C281 0.771 . S
C492 C167 0.900 . S
C487 C36 1.597 . S
C503 C9 1.751 . S
C508 C299 1.319 . S
C524 C43 1.003 1_455 S
C519 C21 1.351 . S
C540 C157 1.058 . S
C535 C37 1.429 . S
C556 C325 1.414 . S
C551 C8 1.878 . S
C567 C20 1.451 . S
C572 C53 1.024 . S
