# Generated by pormake.
# Topology eea, (3,6)-cn, num edge types: 1
# Building blocks:
#     Node 0, Type 0, BuildingBlock: VETTIZ_charged_linker_0, # of connection points: 3
#     Node 1, Type 0, BuildingBlock: VETTIZ_charged_linker_0, # of connection points: 3
#     Node 2, Type 0, BuildingBlock: VETTIZ_charged_linker_0, # of connection points: 3
#     Node 3, Type 0, BuildingBlock: VETTIZ_charged_linker_0, # of connection points: 3
#     Node 4, Type 0, BuildingBlock: VETTIZ_charged_linker_0, # of connection points: 3
#     Node 5, Type 0, BuildingBlock: VETTIZ_charged_linker_0, # of connection points: 3
#     Node 6, Type 0, BuildingBlock: VETTIZ_charged_linker_0, # of connection points: 3
#     Node 7, Type 0, BuildingBlock: VETTIZ_charged_linker_0, # of connection points: 3
#     Node 8, Type 0, BuildingBlock: VETTIZ_charged_linker_0, # of connection points: 3
#     Node 9, Type 0, BuildingBlock: VETTIZ_charged_linker_0, # of connection points: 3
#     Node 10, Type 0, BuildingBlock: VETTIZ_charged_linker_0, # of connection points: 3
#     Node 11, Type 0, BuildingBlock: VETTIZ_charged_linker_0, # of connection points: 3
#     Node 12, Type 0, BuildingBlock: VETTIZ_charged_linker_0, # of connection points: 3
#     Node 13, Type 0, BuildingBlock: VETTIZ_charged_linker_0, # of connection points: 3
#     Node 14, Type 0, BuildingBlock: VETTIZ_charged_linker_0, # of connection points: 3
#     Node 15, Type 0, BuildingBlock: VETTIZ_charged_linker_0, # of connection points: 3
#     Node 16, Type 0, BuildingBlock: VETTIZ_charged_linker_0, # of connection points: 3
#     Node 17, Type 0, BuildingBlock: VETTIZ_charged_linker_0, # of connection points: 3
#     Node 18, Type 1, BuildingBlock: KUMJIN_clean_sbu_0, # of connection points: 6
#     Node 19, Type 1, BuildingBlock: KUMJIN_clean_sbu_0, # of connection points: 6
#     Node 20, Type 1, BuildingBlock: KUMJIN_clean_sbu_0, # of connection points: 6
#     Node 21, Type 1, BuildingBlock: KUMJIN_clean_sbu_0, # of connection points: 6
#     Node 22, Type 1, BuildingBlock: KUMJIN_clean_sbu_0, # of connection points: 6
#     Node 23, Type 1, BuildingBlock: KUMJIN_clean_sbu_0, # of connection points: 6
#     Node 24, Type 1, BuildingBlock: KUMJIN_clean_sbu_0, # of connection points: 6
#     Node 25, Type 1, BuildingBlock: KUMJIN_clean_sbu_0, # of connection points: 6
#     Node 26, Type 1, BuildingBlock: KUMJIN_clean_sbu_0, # of connection points: 6
#     Edge 27, Type (0, 1), BuildingBlock: AJUNOK_clean_linker_0, # of connection points: 2
#     Edge 28, Type (0, 1), BuildingBlock: AJUNOK_clean_linker_0, # of connection points: 2
#     Edge 29, Type (0, 1), BuildingBlock: AJUNOK_clean_linker_0, # of connection points: 2
#     Edge 30, Type (0, 1), BuildingBlock: AJUNOK_clean_linker_0, # of connection points: 2
#     Edge 31, Type (0, 1), BuildingBlock: AJUNOK_clean_linker_0, # of connection points: 2
#     Edge 32, Type (0, 1), BuildingBlock: AJUNOK_clean_linker_0, # of connection points: 2
#     Edge 33, Type (0, 1), BuildingBlock: AJUNOK_clean_linker_0, # of connection points: 2
#     Edge 34, Type (0, 1), BuildingBlock: AJUNOK_clean_linker_0, # of connection points: 2
#     Edge 35, Type (0, 1), BuildingBlock: AJUNOK_clean_linker_0, # of connection points: 2
#     Edge 36, Type (0, 1), BuildingBlock: AJUNOK_clean_linker_0, # of connection points: 2
#     Edge 37, Type (0, 1), BuildingBlock: AJUNOK_clean_linker_0, # of connection points: 2
#     Edge 38, Type (0, 1), BuildingBlock: AJUNOK_clean_linker_0, # of connection points: 2
#     Edge 39, Type (0, 1), BuildingBlock: AJUNOK_clean_linker_0, # of connection points: 2
#     Edge 40, Type (0, 1), BuildingBlock: AJUNOK_clean_linker_0, # of connection points: 2
#     Edge 41, Type (0, 1), BuildingBlock: AJUNOK_clean_linker_0, # of connection points: 2
#     Edge 42, Type (0, 1), BuildingBlock: AJUNOK_clean_linker_0, # of connection points: 2
#     Edge 43, Type (0, 1), BuildingBlock: AJUNOK_clean_linker_0, # of connection points: 2
#     Edge 44, Type (0, 1), BuildingBlock: AJUNOK_clean_linker_0, # of connection points: 2
#     Edge 45, Type (0, 1), BuildingBlock: AJUNOK_clean_linker_0, # of connection points: 2
#     Edge 46, Type (0, 1), BuildingBlock: AJUNOK_clean_linker_0, # of connection points: 2
#     Edge 47, Type (0, 1), BuildingBlock: AJUNOK_clean_linker_0, # of connection points: 2
#     Edge 48, Type (0, 1), BuildingBlock: AJUNOK_clean_linker_0, # of connection points: 2
#     Edge 49, Type (0, 1), BuildingBlock: AJUNOK_clean_linker_0, # of connection points: 2
#     Edge 50, Type (0, 1), BuildingBlock: AJUNOK_clean_linker_0, # of connection points: 2
#     Edge 51, Type (0, 1), BuildingBlock: AJUNOK_clean_linker_0, # of connection points: 2
#     Edge 52, Type (0, 1), BuildingBlock: AJUNOK_clean_linker_0, # of connection points: 2
#     Edge 53, Type (0, 1), BuildingBlock: AJUNOK_clean_linker_0, # of connection points: 2
#     Edge 54, Type (0, 1), BuildingBlock: AJUNOK_clean_linker_0, # of connection points: 2
#     Edge 55, Type (0, 1), BuildingBlock: AJUNOK_clean_linker_0, # of connection points: 2
#     Edge 56, Type (0, 1), BuildingBlock: AJUNOK_clean_linker_0, # of connection points: 2
#     Edge 57, Type (0, 1), BuildingBlock: AJUNOK_clean_linker_0, # of connection points: 2
#     Edge 58, Type (0, 1), BuildingBlock: AJUNOK_clean_linker_0, # of connection points: 2
#     Edge 59, Type (0, 1), BuildingBlock: AJUNOK_clean_linker_0, # of connection points: 2
#     Edge 60, Type (0, 1), BuildingBlock: AJUNOK_clean_linker_0, # of connection points: 2
#     Edge 61, Type (0, 1), BuildingBlock: AJUNOK_clean_linker_0, # of connection points: 2
#     Edge 62, Type (0, 1), BuildingBlock: AJUNOK_clean_linker_0, # of connection points: 2
#     Edge 63, Type (0, 1), BuildingBlock: AJUNOK_clean_linker_0, # of connection points: 2
#     Edge 64, Type (0, 1), BuildingBlock: AJUNOK_clean_linker_0, # of connection points: 2
#     Edge 65, Type (0, 1), BuildingBlock: AJUNOK_clean_linker_0, # of connection points: 2
#     Edge 66, Type (0, 1), BuildingBlock: AJUNOK_clean_linker_0, # of connection points: 2
#     Edge 67, Type (0, 1), BuildingBlock: AJUNOK_clean_linker_0, # of connection points: 2
#     Edge 68, Type (0, 1), BuildingBlock: AJUNOK_clean_linker_0, # of connection points: 2
#     Edge 69, Type (0, 1), BuildingBlock: AJUNOK_clean_linker_0, # of connection points: 2
#     Edge 70, Type (0, 1), BuildingBlock: AJUNOK_clean_linker_0, # of connection points: 2
#     Edge 71, Type (0, 1), BuildingBlock: AJUNOK_clean_linker_0, # of connection points: 2
#     Edge 72, Type (0, 1), BuildingBlock: AJUNOK_clean_linker_0, # of connection points: 2
#     Edge 73, Type (0, 1), BuildingBlock: AJUNOK_clean_linker_0, # of connection points: 2
#     Edge 74, Type (0, 1), BuildingBlock: AJUNOK_clean_linker_0, # of connection points: 2
#     Edge 75, Type (0, 1), BuildingBlock: AJUNOK_clean_linker_0, # of connection points: 2
#     Edge 76, Type (0, 1), BuildingBlock: AJUNOK_clean_linker_0, # of connection points: 2
#     Edge 77, Type (0, 1), BuildingBlock: AJUNOK_clean_linker_0, # of connection points: 2
#     Edge 78, Type (0, 1), BuildingBlock: AJUNOK_clean_linker_0, # of connection points: 2
#     Edge 79, Type (0, 1), BuildingBlock: AJUNOK_clean_linker_0, # of connection points: 2
#     Edge 80, Type (0, 1), BuildingBlock: AJUNOK_clean_linker_0, # of connection points: 2
# Relax obj value: 0.009
# Max RMSD: 0.091
# Mean RMSD: 0.071
data_MOF--net-eea--node1-KUMJIN_clean_sbu_0--node2-VETTIZ_charged_linker_0--edge1-AJUNOK_clean_linker_0
_symmetry_space_group_name_H-M    P1
_symmetry_Int_Tables_number       1
_symmetry_cell_setting            triclinic
loop_
_symmetry_equiv_pos_as_xyz
'x, y, z'
_cell_length_a     48.010817
_cell_length_b     49.392693
_cell_length_c     71.825027
_cell_angle_alpha  89.917827
_cell_angle_beta   90.042199
_cell_angle_gamma 119.92093
loop_
_atom_site_label
_atom_site_type_symbol
_atom_site_fract_x
_atom_site_fract_y
_atom_site_fract_z
_atom_type_partial_charge
C0 C 0.22974 0.18548 0.38536 0.0
C1 C 0.23355 0.21316 0.39317 0.0
C2 C 0.247 0.22206 0.41111 0.0
C3 C 0.25172 0.17555 0.41335 0.0
C4 C 0.23882 0.16707 0.39567 0.0
C5 C 0.23583 0.13671 0.3895 0.0
H6 H 0.25149 0.01092 0.40834 0.0
C7 C 0.25803 0.15097 0.42038 0.0
C8 C 0.24868 0.12814 0.40646 0.0
H9 H 0.21732 0.03193 0.3577 0.0
H10 H 0.22651 0.08064 0.37083 0.0
H11 H 0.31156 0.08125 0.41444 0.0
H12 H 0.21527 0.0326 0.43634 0.0
H13 H 0.24067 0.05497 0.45459 0.0
H14 H 0.2459 0.02455 0.44419 0.0
H15 H 0.2986 0.05029 0.4312 0.0
H16 H 0.31379 0.09025 0.43823 0.0
C17 C 0.25762 0.1432 0.3722 0.0
C18 C 0.19974 0.11317 0.38613 0.0
C19 C 0.30766 0.16113 0.48447 0.0
C20 C 0.31526 0.1415 0.49488 0.0
C21 C 0.30805 0.11236 0.48733 0.0
C22 C 0.29401 0.10311 0.46969 0.0
C23 C 0.28694 0.12312 0.45938 0.0
C24 C 0.29331 0.15138 0.46691 0.0
C25 C 0.2832 0.16914 0.45415 0.0
C26 C 0.27058 0.14728 0.43752 0.0
C27 C 0.27301 0.12045 0.44064 0.0
C28 C 0.31337 0.20062 0.44912 0.0
C29 C 0.25627 0.17238 0.46397 0.0
C30 C 0.24607 0.02612 0.40013 0.0
C31 C 0.2339 0.01781 0.38194 0.0
C32 C 0.22721 0.03815 0.37162 0.0
C33 C 0.23233 0.06629 0.37934 0.0
C34 C 0.24422 0.07419 0.39761 0.0
C35 C 0.25115 0.05438 0.40763 0.0
C36 C 0.26408 0.06686 0.42672 0.0
C37 C 0.26354 0.09734 0.42655 0.0
C38 C 0.25171 0.10135 0.40951 0.0
C39 C 0.29874 0.07234 0.42791 0.0
C40 C 0.24054 0.04359 0.44133 0.0
H41 H 0.26604 0.21138 0.43485 0.0
H42 H 0.22005 0.17834 0.37146 0.0
H43 H 0.18455 0.11617 0.3967 0.0
H44 H 0.19368 0.08857 0.38751 0.0
H45 H 0.192 0.11665 0.37218 0.0
H46 H 0.27905 0.16705 0.37276 0.0
H47 H 0.24447 0.14153 0.35913 0.0
H48 H 0.26766 0.1274 0.37129 0.0
H49 H 0.31331 0.18387 0.48966 0.0
H50 H 0.3133 0.09664 0.49513 0.0
H51 H 0.28928 0.08073 0.46474 0.0
H52 H 0.33447 0.1974 0.44687 0.0
H53 H 0.31957 0.21793 0.46049 0.0
H54 H 0.31069 0.2108 0.43602 0.0
H55 H 0.24113 0.15161 0.4728 0.0
H56 H 0.23924 0.17352 0.45409 0.0
H57 H 0.2665 0.19327 0.47312 0.0
H58 H 0.25008 0.2433 0.41742 0.0
C59 C 0.25608 0.20342 0.42124 0.0
C60 C 0.98027 0.18546 0.38746 0.0
C61 C 1.00216 0.21573 0.39368 0.0
C62 C 0.99632 0.22599 0.4108 0.0
C63 C 0.94779 0.17592 0.41535 0.0
C64 C 0.95328 0.16617 0.39838 0.0
C65 C 0.92755 0.13351 0.39362 0.0
H66 H 0.7858 0.00511 0.4145 0.0
C67 C 0.91798 0.14983 0.42344 0.0
C68 C 0.906 0.125 0.41062 0.0
H69 H 0.84545 0.02117 0.36599 0.0
H70 H 0.88465 0.07157 0.37799 0.0
H71 H 0.84198 0.02705 0.44277 0.0
H72 H 0.79683 0.07511 0.41876 0.0
H73 H 0.80103 0.08269 0.44287 0.0
H74 H 0.77755 0.04308 0.43482 0.0
H75 H 0.80597 0.02357 0.45248 0.0
H76 H 0.84531 0.05404 0.45972 0.0
C77 C 0.94336 0.11287 0.3919 0.0
C78 C 0.9104 0.13515 0.37572 0.0
C79 C 0.87694 0.16003 0.4874 0.0
C80 C 0.84995 0.13922 0.49805 0.0
C81 C 0.82976 0.10879 0.49123 0.0
C82 C 0.83534 0.09958 0.47386 0.0
C83 C 0.86164 0.12083 0.46309 0.0
C84 C 0.88231 0.15033 0.46998 0.0
C85 C 0.90946 0.16929 0.45658 0.0
C86 C 0.90149 0.14629 0.44059 0.0
C87 C 0.87324 0.11806 0.44451 0.0
C88 C 0.94143 0.17712 0.46624 0.0
C89 C 0.90729 0.19828 0.45058 0.0
C90 C 0.8075 0.01918 0.40656 0.0
C91 C 0.81241 0.00891 0.38923 0.0
C92 C 0.84079 0.02855 0.37926 0.0
C93 C 0.86364 0.05782 0.3863 0.0
C94 C 0.85829 0.06773 0.40359 0.0
C95 C 0.83081 0.04829 0.41353 0.0
C96 C 0.82979 0.06202 0.43203 0.0
C97 C 0.86069 0.09338 0.43128 0.0
C98 C 0.87714 0.09671 0.41454 0.0
C99 C 0.83058 0.04062 0.44764 0.0
C100 C 0.79968 0.06586 0.43232 0.0
H101 H 0.96643 0.21535 0.43463 0.0
H102 H 0.98415 0.17696 0.37438 0.0
H103 H 0.90813 0.1565 0.37568 0.0
H104 H 0.88552 0.11559 0.37446 0.0
H105 H 0.92407 0.13591 0.36307 0.0
H106 H 0.96353 0.1204 0.40195 0.0
H107 H 0.95321 0.11439 0.3777 0.0
H108 H 0.92671 0.0881 0.39533 0.0
H109 H 0.89305 0.1835 0.49232 0.0
H110 H 0.80942 0.092 0.49935 0.0
H111 H 0.81872 0.07626 0.46945 0.0
H112 H 0.93875 0.15658 0.47417 0.0
H113 H 0.94897 0.19674 0.4762 0.0
H114 H 0.96117 0.18299 0.45632 0.0
H115 H 0.88177 0.19228 0.44902 0.0
H116 H 0.91833 0.20751 0.43686 0.0
H117 H 0.91862 0.21722 0.46109 0.0
H118 H 0.01316 0.24904 0.41603 0.0
C119 C 0.96933 0.20628 0.42166 0.0
C120 C 0.98027 0.79761 0.38584 0.0
C121 C 1.00359 0.79049 0.39236 0.0
C122 C 0.99885 0.77576 0.40983 0.0
C123 C 0.94852 0.77558 0.41405 0.0
C124 C 0.95281 0.7896 0.39677 0.0
C125 C 0.92493 0.79424 0.39171 0.0
H126 H 0.77706 0.77285 0.41317 0.0
C127 C 0.91767 0.77048 0.422 0.0
C128 C 0.90353 0.78113 0.40884 0.0
H129 H 0.83213 0.81442 0.36328 0.0
H130 H 0.87596 0.80839 0.37548 0.0
H131 H 0.79387 0.71784 0.41761 0.0
H132 H 0.83592 0.81013 0.44097 0.0
H133 H 0.83723 0.78597 0.45847 0.0
H134 H 0.79883 0.7784 0.44952 0.0
H135 H 0.77395 0.72868 0.4347 0.0
H136 H 0.80108 0.7151 0.44136 0.0
C137 C 0.90873 0.7747 0.37407 0.0
C138 C 0.93773 0.82965 0.38934 0.0
C139 C 0.88244 0.7233 0.48716 0.0
C140 C 0.85481 0.71522 0.498 0.0
C141 C 0.83122 0.7213 0.49063 0.0
C142 C 0.83465 0.73454 0.47287 0.0
C143 C 0.86202 0.74196 0.46211 0.0
C144 C 0.88545 0.73647 0.46932 0.0
C145 C 0.91275 0.74562 0.45575 0.0
C146 C 0.902 0.75782 0.43934 0.0
C147 C 0.87218 0.75551 0.44316 0.0
C148 C 0.91417 0.71586 0.45061 0.0
C149 C 0.94384 0.77175 0.46479 0.0
C150 C 0.7985 0.78046 0.40483 0.0
C151 C 0.80097 0.79365 0.38712 0.0
C152 C 0.82962 0.80403 0.37691 0.0
C153 C 0.85493 0.80034 0.384 0.0
C154 C 0.85175 0.78633 0.40158 0.0
C155 C 0.82401 0.77717 0.41178 0.0
C156 C 0.82503 0.76381 0.43044 0.0
C157 C 0.85749 0.76551 0.42964 0.0
C158 C 0.87311 0.77856 0.41266 0.0
C159 C 0.79697 0.72962 0.43127 0.0
C160 C 0.82398 0.7854 0.44575 0.0
H161 H 0.96975 0.75749 0.4339 0.0
H162 H 0.98322 0.80887 0.37246 0.0
H163 H 0.95637 0.84323 0.4 0.0
H164 H 0.91895 0.83604 0.39138 0.0
H165 H 0.94881 0.83789 0.37541 0.0
H166 H 0.90768 0.7517 0.37478 0.0
H167 H 0.92239 0.78691 0.36134 0.0
H168 H 0.88357 0.76907 0.37241 0.0
H169 H 0.90137 0.71952 0.49241 0.0
H170 H 0.80961 0.71516 0.49848 0.0
H171 H 0.81557 0.73817 0.46812 0.0
H172 H 0.88983 0.69475 0.45098 0.0
H173 H 0.9296 0.71192 0.4605 0.0
H174 H 0.92278 0.71654 0.43626 0.0
H175 H 0.93905 0.78898 0.47194 0.0
H176 H 0.96293 0.78541 0.45457 0.0
H177 H 0.95336 0.76196 0.47532 0.0
H178 H 0.01664 0.77044 0.41528 0.0
C179 C 0.97166 0.76841 0.42069 0.0
C180 C 0.18499 0.20121 0.63836 0.0
C181 C 0.21501 0.20774 0.63103 0.0
C182 C 0.22446 0.2225 0.61353 0.0
C183 C 0.17471 0.22376 0.61076 0.0
C184 C 0.1654 0.2097 0.62807 0.0
C185 C 0.13325 0.20568 0.63385 0.0
H186 H 0.00815 0.23034 0.61507 0.0
C187 C 0.14921 0.22967 0.60358 0.0
C188 C 0.12482 0.21936 0.61714 0.0
H189 H 0.02101 0.18717 0.66411 0.0
H190 H 0.07038 0.19267 0.65119 0.0
H191 H 0.08171 0.28468 0.61033 0.0
H192 H 0.02759 0.19297 0.58622 0.0
H193 H 0.0526 0.21801 0.56866 0.0
H194 H 0.02235 0.22489 0.57889 0.0
H195 H 0.05048 0.27482 0.59347 0.0
H196 H 0.09128 0.28777 0.58651 0.0
C197 C 0.13836 0.22506 0.65172 0.0
C198 C 0.10928 0.17038 0.63621 0.0
C199 C 0.16155 0.27842 0.53912 0.0
C200 C 0.14236 0.28706 0.52861 0.0
C201 C 0.11325 0.28215 0.53648 0.0
C202 C 0.10334 0.26876 0.55425 0.0
C203 C 0.12273 0.26022 0.56454 0.0
C204 C 0.15129 0.26506 0.55691 0.0
C205 C 0.16901 0.25492 0.56994 0.0
C206 C 0.14627 0.24292 0.58655 0.0
C207 C 0.11922 0.24615 0.58335 0.0
C208 C 0.20163 0.28407 0.57497 0.0
C209 C 0.17195 0.2284 0.56033 0.0
C210 C 0.02177 0.22233 0.6231 0.0
C211 C 0.01097 0.20882 0.64079 0.0
C212 C 0.02893 0.19785 0.65053 0.0
C213 C 0.05765 0.20121 0.64302 0.0
C214 C 0.06852 0.21546 0.62547 0.0
C215 C 0.05026 0.22528 0.61574 0.0
C216 C 0.06454 0.23885 0.59703 0.0
C217 C 0.09485 0.2364 0.59722 0.0
C218 C 0.09734 0.22281 0.61396 0.0
C219 C 0.07231 0.27329 0.59661 0.0
C220 C 0.04061 0.21789 0.5818 0.0
H221 H 0.21325 0.24133 0.59011 0.0
H222 H 0.17718 0.19014 0.65185 0.0
H223 H 0.11273 0.15675 0.62503 0.0
H224 H 0.08399 0.1646 0.63502 0.0
H225 H 0.11277 0.16174 0.64981 0.0
H226 H 0.16084 0.24807 0.65069 0.0
H227 H 0.14043 0.21275 0.66414 0.0
H228 H 0.11906 0.23057 0.65414 0.0
H229 H 0.18412 0.28194 0.53361 0.0
H230 H 0.09837 0.28932 0.52905 0.0
H231 H 0.08104 0.26589 0.55938 0.0
H232 H 0.19996 0.30574 0.57456 0.0
H233 H 0.2208 0.28723 0.56508 0.0
H234 H 0.20944 0.2832 0.58934 0.0
H235 H 0.14926 0.21218 0.55297 0.0
H236 H 0.17599 0.2136 0.57023 0.0
H237 H 0.19162 0.23798 0.54988 0.0
H238 H 0.24726 0.22757 0.60752 0.0
C239 C 0.20455 0.23037 0.60338 0.0
C240 C 0.79229 0.81854 0.63371 0.0
C241 C 0.78738 0.79043 0.62595 0.0
C242 C 0.77639 0.78315 0.6074 0.0
C243 C 0.77389 0.83082 0.60507 0.0
C244 C 0.78556 0.83833 0.62305 0.0
C245 C 0.78988 0.86924 0.62918 0.0
H246 H 0.7823 0.99921 0.60975 0.0
C247 C 0.76918 0.85632 0.59791 0.0
C248 C 0.77883 0.87901 0.61194 0.0
H249 H 0.8124 0.97515 0.66089 0.0
H250 H 0.80185 0.92616 0.64764 0.0
H251 H 0.81611 0.97484 0.58178 0.0
H252 H 0.72014 0.93059 0.60402 0.0
H253 H 0.71687 0.92001 0.58048 0.0
H254 H 0.73385 0.96062 0.58661 0.0
H255 H 0.78681 0.98492 0.57419 0.0
H256 H 0.78992 0.95343 0.56357 0.0
C257 C 0.8261 0.89136 0.63319 0.0
C258 C 0.76741 0.86346 0.64604 0.0
C259 C 0.71871 0.84746 0.53422 0.0
C260 C 0.71164 0.86765 0.52401 0.0
C261 C 0.72031 0.8972 0.53148 0.0
C262 C 0.73521 0.90632 0.54891 0.0
C263 C 0.7416 0.88571 0.55907 0.0
C264 C 0.73386 0.85704 0.55159 0.0
C265 C 0.74342 0.83865 0.56421 0.0
C266 C 0.75709 0.86059 0.58075 0.0
C267 C 0.75578 0.88803 0.57766 0.0
C268 C 0.76942 0.83419 0.55416 0.0
C269 C 0.71275 0.80777 0.56947 0.0
C270 C 0.78646 0.98326 0.61807 0.0
C271 C 0.79876 0.99121 0.63624 0.0
C272 C 0.80373 0.96984 0.6467 0.0
C273 C 0.7974 0.94132 0.639 0.0
C274 C 0.78574 0.93394 0.62068 0.0
C275 C 0.78013 0.95458 0.61061 0.0
C276 C 0.76686 0.94235 0.59154 0.0
C277 C 0.76599 0.91119 0.59175 0.0
C278 C 0.77718 0.90652 0.60883 0.0
C279 C 0.79089 0.96502 0.57689 0.0
C280 C 0.73274 0.93829 0.59039 0.0
H281 H 0.76093 0.79613 0.58302 0.0
H282 H 0.80083 0.82487 0.64788 0.0
H283 H 0.74497 0.84043 0.6449 0.0
H284 H 0.75905 0.8806 0.64692 0.0
H285 H 0.77929 0.86356 0.65934 0.0
H286 H 0.84127 0.88706 0.62327 0.0
H287 H 0.83247 0.88773 0.64749 0.0
H288 H 0.83367 0.91628 0.63133 0.0
H289 H 0.712 0.82443 0.52904 0.0
H290 H 0.71551 0.91334 0.52381 0.0
H291 H 0.74103 0.92904 0.55382 0.0
H292 H 0.78378 0.85378 0.54438 0.0
H293 H 0.75841 0.81222 0.54595 0.0
H294 H 0.78733 0.83427 0.56388 0.0
H295 H 0.69277 0.8122 0.57289 0.0
H296 H 0.71587 0.79645 0.5819 0.0
H297 H 0.70473 0.79092 0.55773 0.0
H298 H 0.77331 0.76206 0.6009 0.0
C299 C 0.76947 0.80309 0.59697 0.0
C300 C 0.02557 0.80859 0.6389 0.0
C301 C 1.00384 0.77833 0.63257 0.0
C302 C 0.00909 0.76864 0.61512 0.0
C303 C 0.05717 0.81886 0.61057 0.0
C304 C 0.05215 0.82831 0.62777 0.0
C305 C 0.07837 0.86077 0.63265 0.0
H306 H 0.22131 0.98798 0.61123 0.0
C307 C 0.08723 0.8446 0.60262 0.0
C308 C 0.09991 0.86916 0.6156 0.0
H309 H 0.16232 0.97358 0.65981 0.0
H310 H 0.12265 0.92288 0.64823 0.0
H311 H 0.21086 0.91931 0.60844 0.0
H312 H 0.1626 0.96304 0.58244 0.0
H313 H 0.16563 0.93904 0.56554 0.0
H314 H 0.20175 0.97102 0.57525 0.0
H315 H 0.22896 0.94799 0.59033 0.0
H316 H 0.20399 0.90702 0.58511 0.0
C317 C 0.09536 0.85865 0.65048 0.0
C318 C 0.06315 0.88188 0.63454 0.0
C319 C 0.12558 0.83342 0.53827 0.0
C320 C 0.15334 0.85287 0.52776 0.0
C321 C 0.17614 0.882 0.53527 0.0
C322 C 0.17163 0.89155 0.55283 0.0
C323 C 0.144 0.87182 0.5632 0.0
C324 C 0.12156 0.84324 0.55593 0.0
C325 C 0.09417 0.82501 0.56927 0.0
C326 C 0.1036 0.84768 0.58553 0.0
C327 C 0.13279 0.87506 0.58183 0.0
C328 C 0.09428 0.79467 0.57471 0.0
C329 C 0.06273 0.81948 0.55988 0.0
C330 C 0.19964 0.97418 0.61927 0.0
C331 C 0.19491 0.98503 0.63642 0.0
C332 C 0.16669 0.96576 0.64661 0.0
C333 C 0.1436 0.93635 0.63982 0.0
C334 C 0.14867 0.92595 0.6226 0.0
C335 C 0.1762 0.94495 0.61257 0.0
C336 C 0.17715 0.93065 0.59428 0.0
C337 C 0.14589 0.89968 0.59509 0.0
C338 C 0.1294 0.89691 0.61178 0.0
C339 C 0.20684 0.9261 0.59434 0.0
C340 C 0.17701 0.95197 0.57845 0.0
H341 H 0.038 0.77999 0.59089 0.0
H342 H 0.02224 0.81652 0.65234 0.0
H343 H 0.04318 0.87493 0.6244 0.0
H344 H 0.08021 0.90665 0.63134 0.0
H345 H 0.05315 0.88015 0.64871 0.0
H346 H 0.09768 0.83733 0.65023 0.0
H347 H 0.08151 0.85745 0.66314 0.0
H348 H 0.12017 0.87825 0.65194 0.0
H349 H 0.1073 0.81109 0.53288 0.0
H350 H 0.19788 0.89732 0.52765 0.0
H351 H 0.19004 0.91391 0.55771 0.0
H352 H 0.11899 0.79807 0.5742 0.0
H353 H 0.07907 0.77522 0.5651 0.0
H354 H 0.08627 0.78727 0.58919 0.0
H355 H 0.06658 0.84105 0.5527 0.0
H356 H 0.0431 0.81357 0.5699 0.0
H357 H 0.05439 0.80061 0.54932 0.0
H358 H 0.99249 0.74547 0.60994 0.0
C359 C 0.03548 0.78873 0.60406 0.0
C360 C 0.87719 0.51232 0.72633 0.0
C361 C 0.8845 0.54169 0.73328 0.0
C362 C 0.89912 0.55101 0.75094 0.0
C363 C 0.89916 0.50216 0.75423 0.0
C364 C 0.88479 0.49313 0.73694 0.0
C365 C 0.87886 0.46142 0.73135 0.0
H366 H 0.88898 0.33294 0.751 0.0
C367 C 0.90335 0.47646 0.76168 0.0
C368 C 0.89136 0.45254 0.74831 0.0
H369 H 0.85616 0.35487 0.70013 0.0
H370 H 0.8644 0.40304 0.71361 0.0
H371 H 0.94998 0.40235 0.75632 0.0
H372 H 0.85441 0.35528 0.77906 0.0
H373 H 0.87945 0.37975 0.7968 0.0
H374 H 0.88545 0.34875 0.78802 0.0
H375 H 0.93602 0.37053 0.77255 0.0
H376 H 0.95303 0.41028 0.78031 0.0
C377 C 0.89917 0.46527 0.7137 0.0
C378 C 0.84217 0.43969 0.7288 0.0
C379 C 0.95789 0.48712 0.82433 0.0
C380 C 0.96441 0.4666 0.83461 0.0
C381 C 0.95261 0.4359 0.82806 0.0
C382 C 0.9362 0.42627 0.81111 0.0
C383 C 0.93124 0.44743 0.80055 0.0
C384 C 0.9412 0.47701 0.8074 0.0
C385 C 0.93215 0.49562 0.7946 0.0
C386 C 0.91625 0.47268 0.77868 0.0
C387 C 0.91613 0.44465 0.78223 0.0
C388 C 0.96335 0.52515 0.7883 0.0
C389 C 0.9081 0.50249 0.80499 0.0
C390 C 0.88391 0.34831 0.74271 0.0
C391 C 0.87236 0.34037 0.72439 0.0
C392 C 0.8651 0.36053 0.71427 0.0
C393 C 0.87011 0.38857 0.72209 0.0
C394 C 0.88262 0.39664 0.74022 0.0
C395 C 0.88917 0.37657 0.75023 0.0
C396 C 0.90318 0.38935 0.76907 0.0
C397 C 0.90424 0.42059 0.76865 0.0
C398 C 0.89205 0.42461 0.75176 0.0
C399 C 0.93727 0.39326 0.76981 0.0
C400 C 0.87969 0.36718 0.78412 0.0
H401 H 0.91774 0.53987 0.77472 0.0
H402 H 0.86537 0.5042 0.713 0.0
H403 H 0.82861 0.44444 0.73964 0.0
H404 H 0.83449 0.4147 0.7304 0.0
H405 H 0.83414 0.44335 0.71499 0.0
H406 H 0.92134 0.48861 0.71332 0.0
H407 H 0.88537 0.46296 0.7008 0.0
H408 H 0.90804 0.4485 0.71321 0.0
H409 H 0.96619 0.5107 0.82915 0.0
H410 H 0.95616 0.41926 0.83606 0.0
H411 H 0.92826 0.40275 0.80681 0.0
H412 H 0.98247 0.51935 0.78515 0.0
H413 H 0.97255 0.54324 0.79937 0.0
H414 H 0.9603 0.53548 0.77538 0.0
H415 H 0.89239 0.48286 0.81444 0.0
H416 H 0.89131 0.50484 0.79551 0.0
H417 H 0.92088 0.52393 0.81361 0.0
H418 H 0.90505 0.5736 0.75656 0.0
C419 C 0.90651 0.53143 0.76144 0.0
C420 C 0.64899 0.51858 0.71932 0.0
C421 C 0.67074 0.54806 0.72662 0.0
C422 C 0.66571 0.55585 0.74469 0.0
C423 C 0.61723 0.5055 0.74778 0.0
C424 C 0.62231 0.49784 0.73006 0.0
C425 C 0.59573 0.46626 0.72405 0.0
H426 H 0.4532 0.33621 0.74225 0.0
C427 C 0.58688 0.47915 0.75504 0.0
C428 C 0.57412 0.45613 0.74112 0.0
H429 H 0.51023 0.35904 0.6921 0.0
H430 H 0.55033 0.40772 0.70572 0.0
H431 H 0.51057 0.35732 0.7701 0.0
H432 H 0.46406 0.40643 0.74924 0.0
H433 H 0.46936 0.41291 0.77338 0.0
H434 H 0.44503 0.37368 0.76482 0.0
H435 H 0.47274 0.35032 0.77917 0.0
H436 H 0.51046 0.38061 0.78849 0.0
C437 C 0.61042 0.44501 0.72064 0.0
C438 C 0.57907 0.47085 0.70679 0.0
C439 C 0.54617 0.48486 0.81979 0.0
C440 C 0.5189 0.46379 0.83014 0.0
C441 C 0.49765 0.43435 0.82235 0.0
C442 C 0.50296 0.42621 0.80457 0.0
C443 C 0.52989 0.44766 0.79428 0.0
C444 C 0.55126 0.47624 0.80201 0.0
C445 C 0.57887 0.49576 0.78907 0.0
C446 C 0.57033 0.47427 0.77227 0.0
C447 C 0.54143 0.44626 0.77538 0.0
C448 C 0.61027 0.50134 0.79856 0.0
C449 C 0.57811 0.52601 0.78438 0.0
C450 C 0.47422 0.35189 0.73419 0.0
C451 C 0.47866 0.34382 0.71612 0.0
C452 C 0.50649 0.36464 0.70612 0.0
C453 C 0.52968 0.39294 0.71405 0.0
C454 C 0.52504 0.40065 0.73218 0.0
C455 C 0.49769 0.38023 0.74195 0.0
C456 C 0.49705 0.39209 0.76113 0.0
C457 C 0.52828 0.42319 0.76118 0.0
C458 C 0.54455 0.42809 0.74417 0.0
C459 C 0.49749 0.36893 0.77558 0.0
C460 C 0.46728 0.3964 0.76241 0.0
H461 H 0.63666 0.54217 0.76894 0.0
H462 H 0.65219 0.5122 0.70538 0.0
H463 H 0.57926 0.49344 0.70755 0.0
H464 H 0.55339 0.45301 0.70572 0.0
H465 H 0.59148 0.47096 0.69372 0.0
H466 H 0.62922 0.44951 0.7312 0.0
H467 H 0.62183 0.44937 0.70668 0.0
H468 H 0.5927 0.4199 0.722 0.0
H469 H 0.56275 0.50786 0.82517 0.0
H470 H 0.47669 0.41754 0.83005 0.0
H471 H 0.48569 0.40354 0.79947 0.0
H472 H 0.60629 0.48006 0.80617 0.0
H473 H 0.61898 0.52074 0.80878 0.0
H474 H 0.62968 0.50633 0.78855 0.0
H475 H 0.55293 0.52122 0.7833 0.0
H476 H 0.58902 0.53605 0.77075 0.0
H477 H 0.59033 0.54398 0.79534 0.0
H478 H 0.68233 0.57848 0.75055 0.0
C479 C 0.63921 0.53474 0.75533 0.0
C480 C 0.64774 0.12834 0.71806 0.0
C481 C 0.67072 0.12112 0.72506 0.0
C482 C 0.66669 0.10889 0.74323 0.0
C483 C 0.61707 0.11015 0.74698 0.0
C484 C 0.62099 0.12242 0.72919 0.0
C485 C 0.59324 0.12708 0.72376 0.0
H486 H 0.44611 0.10841 0.74478 0.0
C487 C 0.58652 0.10599 0.75481 0.0
C488 C 0.57232 0.11587 0.7412 0.0
H489 H 0.49997 0.14595 0.69405 0.0
H490 H 0.54409 0.14082 0.70675 0.0
H491 H 0.46372 0.05347 0.75124 0.0
H492 H 0.50388 0.14744 0.77156 0.0
H493 H 0.50872 0.12618 0.78962 0.0
H494 H 0.46875 0.11571 0.7819 0.0
H495 H 0.44312 0.06602 0.7668 0.0
H496 H 0.46978 0.05314 0.7754 0.0
C497 C 0.57626 0.10607 0.70675 0.0
C498 C 0.6065 0.1623 0.72017 0.0
C499 C 0.54932 0.05878 0.81992 0.0
C500 C 0.52185 0.05177 0.83063 0.0
C501 C 0.49998 0.06043 0.82352 0.0
C502 C 0.50431 0.07416 0.80586 0.0
C503 C 0.53101 0.07975 0.795 0.0
C504 C 0.5534 0.07278 0.80222 0.0
C505 C 0.58078 0.08137 0.78878 0.0
C506 C 0.57086 0.09422 0.77229 0.0
C507 C 0.54146 0.09284 0.77598 0.0
C508 C 0.58124 0.05115 0.78364 0.0
C509 C 0.61208 0.10687 0.79802 0.0
C510 C 0.46733 0.11529 0.73636 0.0
C511 C 0.46935 0.12706 0.71827 0.0
C512 C 0.49777 0.13661 0.70797 0.0
C513 C 0.52326 0.13347 0.71536 0.0
C514 C 0.5205 0.12084 0.73334 0.0
C515 C 0.49299 0.11253 0.74359 0.0
C516 C 0.49436 0.10065 0.76266 0.0
C517 C 0.52677 0.10221 0.76209 0.0
C518 C 0.54209 0.11389 0.74484 0.0
C519 C 0.46624 0.06659 0.76431 0.0
C520 C 0.49368 0.1234 0.77729 0.0
H521 H 0.63867 0.09403 0.76785 0.0
H522 H 0.6501 0.13758 0.7041 0.0
H523 H 0.62536 0.17664 0.73055 0.0
H524 H 0.58799 0.16918 0.72166 0.0
H525 H 0.61743 0.16912 0.7061 0.0
H526 H 0.57441 0.08283 0.70843 0.0
H527 H 0.58985 0.11675 0.69373 0.0
H528 H 0.55134 0.10109 0.70495 0.0
H529 H 0.56679 0.05274 0.82498 0.0
H530 H 0.47922 0.05635 0.83161 0.0
H531 H 0.48638 0.07956 0.80126 0.0
H532 H 0.55636 0.03097 0.78257 0.0
H533 H 0.5941 0.04532 0.79437 0.0
H534 H 0.59213 0.05246 0.7699 0.0
H535 H 0.60741 0.12325 0.80627 0.0
H536 H 0.63062 0.12181 0.7878 0.0
H537 H 0.62225 0.09637 0.80761 0.0
H538 H 0.68413 0.10333 0.74896 0.0
C539 C 0.64023 0.10351 0.7542 0.0
C540 C 0.856 0.54163 0.97245 0.0
C541 C 0.88612 0.54837 0.96527 0.0
C542 C 0.89477 0.56107 0.94722 0.0
C543 C 0.84436 0.56088 0.94384 0.0
C544 C 0.83566 0.54835 0.96156 0.0
C545 C 0.80349 0.54431 0.96721 0.0
H546 H 0.67623 0.56474 0.94737 0.0
C547 C 0.81854 0.56603 0.93634 0.0
C548 C 0.79451 0.55658 0.95006 0.0
H549 H 0.69119 0.52424 0.997 0.0
H550 H 0.74128 0.53136 0.9844 0.0
H551 H 0.75016 0.62056 0.94204 0.0
H552 H 0.69679 0.5278 0.91921 0.0
H553 H 0.72111 0.5525 0.90131 0.0
H554 H 0.69061 0.559 0.91154 0.0
H555 H 0.71862 0.60968 0.92526 0.0
H556 H 0.75943 0.62279 0.91822 0.0
C557 C 0.80868 0.56489 0.98454 0.0
C558 C 0.77996 0.50908 0.97038 0.0
C559 C 0.8296 0.61195 0.87109 0.0
C560 C 0.81043 0.62061 0.8606 0.0
C561 C 0.78138 0.61583 0.86845 0.0
C562 C 0.77162 0.60284 0.88632 0.0
C563 C 0.79114 0.59458 0.8967 0.0
C564 C 0.81955 0.59909 0.88902 0.0
C565 C 0.83759 0.58962 0.90227 0.0
C566 C 0.81517 0.57835 0.91904 0.0
C567 C 0.78799 0.58135 0.91572 0.0
C568 C 0.87026 0.61903 0.90685 0.0
C569 C 0.84043 0.56272 0.89315 0.0
C570 C 0.69052 0.55772 0.95558 0.0
C571 C 0.67987 0.54411 0.97325 0.0
C572 C 0.69885 0.53473 0.98335 0.0
C573 C 0.72796 0.53895 0.97601 0.0
C574 C 0.73828 0.55257 0.95828 0.0
C575 C 0.71942 0.56143 0.94833 0.0
C576 C 0.73333 0.57431 0.92943 0.0
C577 C 0.7639 0.57226 0.92972 0.0
C578 C 0.76691 0.5597 0.94672 0.0
C579 C 0.74066 0.60858 0.92849 0.0
C580 C 0.70929 0.55256 0.91448 0.0
H581 H 0.88231 0.57686 0.92288 0.0
H582 H 0.84885 0.53215 0.98635 0.0
H583 H 0.78406 0.49479 0.95995 0.0
H584 H 0.75456 0.50267 0.96861 0.0
H585 H 0.78323 0.50167 0.98444 0.0
H586 H 0.83118 0.5878 0.98314 0.0
H587 H 0.81073 0.55342 0.99737 0.0
H588 H 0.78945 0.57066 0.9865 0.0
H589 H 0.85239 0.61589 0.8657 0.0
H590 H 0.76612 0.6222 0.86072 0.0
H591 H 0.74931 0.59998 0.89142 0.0
H592 H 0.86842 0.6406 0.90622 0.0
H593 H 0.88917 0.62192 0.89683 0.0
H594 H 0.87853 0.61873 0.92117 0.0
H595 H 0.81757 0.54603 0.88611 0.0
H596 H 0.84489 0.54854 0.90332 0.0
H597 H 0.8598 0.57183 0.8825 0.0
H598 H 0.91776 0.56635 0.9414 0.0
C599 C 0.87411 0.56717 0.93648 0.0
C600 C 0.45621 0.14807 0.96669 0.0
C601 C 0.45425 0.12139 0.95846 0.0
C602 C 0.44042 0.11233 0.94058 0.0
C603 C 0.43281 0.15726 0.93907 0.0
C604 C 0.44534 0.16549 0.95683 0.0
C605 C 0.44569 0.19435 0.96371 0.0
H606 H 0.43551 0.32264 0.94483 0.0
C607 C 0.42494 0.18104 0.93245 0.0
C608 C 0.43236 0.20275 0.94687 0.0
H609 H 0.45564 0.29378 0.99765 0.0
H610 H 0.44576 0.2453 0.9841 0.0
H611 H 0.46925 0.29556 0.91731 0.0
H612 H 0.37288 0.25733 0.938 0.0
H613 H 0.36913 0.2409 0.91586 0.0
H614 H 0.38657 0.2827 0.91813 0.0
H615 H 0.44279 0.31008 0.91119 0.0
H616 H 0.44225 0.27838 0.89858 0.0
C617 C 0.48104 0.21936 0.96776 0.0
C618 C 0.423 0.18539 0.98081 0.0
C619 C 0.38129 0.17483 0.86697 0.0
C620 C 0.37246 0.19402 0.85709 0.0
C621 C 0.37739 0.22192 0.86538 0.0
C622 C 0.39014 0.23024 0.88336 0.0
C623 C 0.39815 0.2105 0.89323 0.0
C624 C 0.39392 0.18343 0.885 0.0
C625 C 0.40374 0.16534 0.89769 0.0
C626 C 0.41358 0.18555 0.91507 0.0
C627 C 0.41044 0.21207 0.91229 0.0
C628 C 0.43255 0.16452 0.88861 0.0
C629 C 0.37403 0.13274 0.9012 0.0
C630 C 0.43763 0.3058 0.95349 0.0
C631 C 0.44786 0.31272 0.97213 0.0
C632 C 0.44939 0.28973 0.98303 0.0
C633 C 0.44337 0.26143 0.97519 0.0
C634 C 0.43515 0.25567 0.95629 0.0
C635 C 0.43109 0.27705 0.94595 0.0
C636 C 0.41931 0.26546 0.92655 0.0
C637 C 0.41839 0.23423 0.9268 0.0
C638 C 0.4284 0.22907 0.94413 0.0
C639 C 0.44449 0.28854 0.91255 0.0
C640 C 0.38532 0.26151 0.92435 0.0
H641 H 0.41977 0.12215 0.91725 0.0
H642 H 0.46642 0.15552 0.98045 0.0
H643 H 0.40509 0.15998 0.98109 0.0
H644 H 0.40832 0.19699 0.98058 0.0
H645 H 0.43668 0.19111 0.99407 0.0
H646 H 0.49692 0.2206 0.95612 0.0
H647 H 0.48976 0.21361 0.98068 0.0
H648 H 0.48473 0.24313 0.96921 0.0
H649 H 0.37837 0.15354 0.86085 0.0
H650 H 0.3707 0.23703 0.85807 0.0
H651 H 0.39305 0.25163 0.88892 0.0
H652 H 0.44902 0.18722 0.88176 0.0
H653 H 0.42427 0.14601 0.87781 0.0
H654 H 0.44769 0.16098 0.89877 0.0
H655 H 0.35175 0.13432 0.9021 0.0
H656 H 0.37525 0.12233 0.91458 0.0
H657 H 0.37075 0.11633 0.88974 0.0
H658 H 0.43754 0.09125 0.93416 0.0
C659 C 0.42986 0.13017 0.93082 0.0
C660 C 0.6945 0.14889 0.97259 0.0
C661 C 0.6732 0.11862 0.9661 0.0
C662 C 0.67784 0.10992 0.94819 0.0
C663 C 0.72514 0.16077 0.94373 0.0
C664 C 0.72045 0.16942 0.96128 0.0
C665 C 0.74657 0.20186 0.96636 0.0
H666 H 0.88934 0.32975 0.94527 0.0
C667 C 0.75487 0.187 0.93578 0.0
C668 C 0.76766 0.21112 0.94907 0.0
H669 H 0.83116 0.31429 0.99437 0.0
H670 H 0.79099 0.26409 0.98238 0.0
H671 H 0.87772 0.26058 0.94097 0.0
H672 H 0.83164 0.30806 0.91732 0.0
H673 H 0.8308 0.28288 0.89988 0.0
H674 H 0.86899 0.3135 0.90845 0.0
H675 H 0.89628 0.29088 0.9238 0.0
H676 H 0.87125 0.25054 0.91727 0.0
C677 C 0.76421 0.19938 0.98378 0.0
C678 C 0.73104 0.22255 0.96907 0.0
C679 C 0.79315 0.17844 0.87072 0.0
C680 C 0.82014 0.1991 0.86004 0.0
C681 C 0.84254 0.22817 0.86776 0.0
C682 C 0.83807 0.23679 0.88558 0.0
C683 C 0.81096 0.21612 0.89604 0.0
C684 C 0.78899 0.18749 0.88861 0.0
C685 C 0.76187 0.16854 0.90201 0.0
C686 C 0.77102 0.19077 0.91849 0.0
C687 C 0.7999 0.21849 0.91488 0.0
C688 C 0.76284 0.1385 0.90703 0.0
C689 C 0.73008 0.1625 0.89285 0.0
C690 C 0.86775 0.31589 0.95336 0.0
C691 C 0.86346 0.32627 0.97078 0.0
C692 C 0.83527 0.30684 0.98098 0.0
C693 C 0.81187 0.27772 0.97395 0.0
C694 C 0.81656 0.26779 0.95648 0.0
C695 C 0.84398 0.28703 0.94642 0.0
C696 C 0.84447 0.27349 0.92779 0.0
C697 C 0.81313 0.2426 0.92843 0.0
C698 C 0.79697 0.23915 0.94534 0.0
C699 C 0.87402 0.26872 0.92723 0.0
C700 C 0.84419 0.29555 0.91247 0.0
H701 H 0.70577 0.12267 0.92352 0.0
H702 H 0.69153 0.15607 0.98635 0.0
H703 H 0.71083 0.21583 0.95915 0.0
H704 H 0.74785 0.24749 0.96619 0.0
H705 H 0.7213 0.22009 0.98339 0.0
H706 H 0.7673 0.17855 0.98282 0.0
H707 H 0.75038 0.19703 0.99666 0.0
H708 H 0.78874 0.21939 0.98535 0.0
H709 H 0.77565 0.15581 0.86526 0.0
H710 H 0.864 0.24413 0.86012 0.0
H711 H 0.85616 0.25919 0.89058 0.0
H712 H 0.78796 0.14293 0.90707 0.0
H713 H 0.74899 0.11957 0.89683 0.0
H714 H 0.75381 0.12988 0.9212 0.0
H715 H 0.73349 0.18385 0.88557 0.0
H716 H 0.71068 0.15666 0.90302 0.0
H717 H 0.72165 0.14345 0.8824 0.0
H718 H 0.66151 0.08675 0.9429 0.0
C719 C 0.70354 0.1308 0.93697 0.0
C720 C 0.54561 0.84388 0.05803 0.0
C721 C 0.55281 0.87308 0.06529 0.0
C722 C 0.56954 0.88297 0.08233 0.0
C723 C 0.57025 0.8344 0.08498 0.0
C724 C 0.55453 0.82504 0.06806 0.0
C725 C 0.54875 0.7934 0.06229 0.0
H726 H 0.5663 0.66812 0.07968 0.0
C727 C 0.57565 0.8092 0.09193 0.0
C728 C 0.56318 0.78515 0.07864 0.0
H729 H 0.52107 0.68409 0.03212 0.0
H730 H 0.53208 0.73358 0.04498 0.0
H731 H 0.6258 0.73895 0.08379 0.0
H732 H 0.53255 0.68839 0.10928 0.0
H733 H 0.55817 0.71407 0.12638 0.0
H734 H 0.56563 0.68422 0.11721 0.0
H735 H 0.61448 0.70726 0.09986 0.0
H736 H 0.63047 0.74681 0.10784 0.0
C737 C 0.56755 0.79737 0.044 0.0
C738 C 0.51199 0.77106 0.06077 0.0
C739 C 0.62999 0.82001 0.15463 0.0
C740 C 0.63703 0.79984 0.1649 0.0
C741 C 0.62864 0.77039 0.15737 0.0
C742 C 0.6137 0.7612 0.13996 0.0
C743 C 0.60685 0.78157 0.12987 0.0
C744 C 0.61467 0.8103 0.1373 0.0
C745 C 0.60477 0.82848 0.12474 0.0
C746 C 0.58986 0.80594 0.10855 0.0
C747 C 0.59141 0.77864 0.11161 0.0
C748 C 0.6354 0.85895 0.11881 0.0
C749 C 0.57965 0.83366 0.13526 0.0
C750 C 0.55837 0.68206 0.07214 0.0
C751 C 0.54257 0.67204 0.05491 0.0
C752 C 0.53343 0.69135 0.04536 0.0
C753 C 0.53974 0.72003 0.0529 0.0
C754 C 0.55535 0.72959 0.0702 0.0
C755 C 0.56418 0.71059 0.07957 0.0
C756 C 0.57973 0.72404 0.09801 0.0
C757 C 0.57937 0.7546 0.09801 0.0
C758 C 0.56521 0.75778 0.08167 0.0
C759 C 0.61441 0.72947 0.09755 0.0
C760 C 0.55821 0.70159 0.11362 0.0
H761 H 0.59075 0.87262 0.10512 0.0
H762 H 0.5329 0.83568 0.04494 0.0
H763 H 0.49895 0.77655 0.07158 0.0
H764 H 0.50486 0.74637 0.06325 0.0
H765 H 0.50279 0.77316 0.04696 0.0
H766 H 0.59076 0.81982 0.04398 0.0
H767 H 0.55357 0.79746 0.03169 0.0
H768 H 0.57433 0.77924 0.04209 0.0
H769 H 0.63663 0.84304 0.1598 0.0
H770 H 0.63352 0.7543 0.16503 0.0
H771 H 0.60809 0.73856 0.13503 0.0
H772 H 0.65612 0.85497 0.11714 0.0
H773 H 0.64217 0.87758 0.1294 0.0
H774 H 0.63291 0.86776 0.10513 0.0
H775 H 0.5632 0.81259 0.14353 0.0
H776 H 0.56378 0.83755 0.12588 0.0
H777 H 0.59154 0.85364 0.14505 0.0
H778 H 0.57619 0.90574 0.08796 0.0
C779 C 0.57818 0.86379 0.09222 0.0
C780 C 0.31948 0.85681 0.05329 0.0
C781 C 0.34126 0.88706 0.05957 0.0
C782 C 0.33631 0.89668 0.07713 0.0
C783 C 0.28837 0.84634 0.08187 0.0
C784 C 0.29316 0.83702 0.06456 0.0
C785 C 0.26682 0.8047 0.05959 0.0
H786 H 0.12417 0.67713 0.08074 0.0
C787 C 0.25846 0.82042 0.08991 0.0
C788 C 0.24568 0.79602 0.07681 0.0
H789 H 0.18123 0.69414 0.03101 0.0
H790 H 0.222 0.74363 0.04338 0.0
H791 H 0.18249 0.69948 0.10871 0.0
H792 H 0.13555 0.74631 0.08527 0.0
H793 H 0.14201 0.75622 0.10898 0.0
H794 H 0.11727 0.71589 0.1024 0.0
H795 H 0.14508 0.69371 0.11769 0.0
H796 H 0.18321 0.72462 0.12616 0.0
C797 C 0.28195 0.78359 0.05722 0.0
C798 C 0.24949 0.80722 0.04201 0.0
C799 C 0.21874 0.83078 0.1542 0.0
C800 C 0.1914 0.81041 0.16475 0.0
C801 C 0.17009 0.78052 0.1576 0.0
C802 C 0.17539 0.77115 0.14022 0.0
C803 C 0.2023 0.79186 0.12965 0.0
C804 C 0.22371 0.82099 0.13672 0.0
C805 C 0.25095 0.83969 0.12334 0.0
C806 C 0.24227 0.81692 0.10716 0.0
C807 C 0.21359 0.78906 0.11097 0.0
C808 C 0.2827 0.84642 0.13283 0.0
C809 C 0.24969 0.86934 0.11769 0.0
C810 C 0.14551 0.69148 0.07255 0.0
C811 C 0.14914 0.682 0.05471 0.0
C812 C 0.17739 0.70131 0.04456 0.0
C813 C 0.20116 0.72997 0.05184 0.0
C814 C 0.19679 0.73949 0.06951 0.0
C815 C 0.1695 0.72013 0.07964 0.0
C816 C 0.16914 0.73369 0.0983 0.0
C817 C 0.20038 0.76471 0.09756 0.0
C818 C 0.21643 0.76806 0.08064 0.0
C819 C 0.16978 0.7118 0.1136 0.0
C820 C 0.13941 0.73817 0.09898 0.0
H821 H 0.30779 0.88519 0.10157 0.0
H822 H 0.32249 0.84898 0.03975 0.0
H823 H 0.24843 0.82922 0.04216 0.0
H824 H 0.22416 0.78846 0.04108 0.0
H825 H 0.26227 0.80724 0.02912 0.0
H826 H 0.30157 0.78985 0.06751 0.0
H827 H 0.29241 0.7862 0.04309 0.0
H828 H 0.26471 0.75866 0.05983 0.0
H829 H 0.23538 0.85405 0.15919 0.0
H830 H 0.14907 0.76431 0.16549 0.0
H831 H 0.15803 0.74817 0.1356 0.0
H832 H 0.27946 0.82543 0.14048 0.0
H833 H 0.29075 0.8658 0.14303 0.0
H834 H 0.3023 0.85214 0.12283 0.0
H835 H 0.22441 0.86431 0.11679 0.0
H836 H 0.25989 0.87814 0.10375 0.0
H837 H 0.26234 0.88831 0.12805 0.0
H838 H 0.35291 0.91991 0.08223 0.0
C839 C 0.31016 0.87648 0.08834 0.0
C840 C 0.316 0.46503 0.05071 0.0
C841 C 0.3394 0.45839 0.05771 0.0
C842 C 0.33668 0.44792 0.07623 0.0
C843 C 0.28738 0.44957 0.08036 0.0
C844 C 0.29006 0.46021 0.06224 0.0
C845 C 0.26202 0.46456 0.05702 0.0
H846 H 0.1164 0.44792 0.08011 0.0
C847 C 0.25732 0.44594 0.08854 0.0
C848 C 0.24215 0.45457 0.0749 0.0
H849 H 0.16843 0.4839 0.02867 0.0
H850 H 0.21238 0.47785 0.04064 0.0
H851 H 0.13409 0.39255 0.08702 0.0
H852 H 0.17625 0.48769 0.10587 0.0
H853 H 0.17997 0.46631 0.12427 0.0
H854 H 0.14045 0.45685 0.11626 0.0
H855 H 0.11438 0.40581 0.10276 0.0
H856 H 0.14171 0.39353 0.11108 0.0
C857 C 0.24399 0.44241 0.04062 0.0
C858 C 0.27513 0.49953 0.05264 0.0
C859 C 0.22692 0.40667 0.15538 0.0
C860 C 0.20068 0.40069 0.16692 0.0
C861 C 0.17658 0.40613 0.15963 0.0
C862 C 0.17828 0.41673 0.14126 0.0
C863 C 0.2045 0.42232 0.12989 0.0
C864 C 0.22837 0.41746 0.13707 0.0
C865 C 0.25468 0.42502 0.12309 0.0
C866 C 0.24285 0.43546 0.10639 0.0
C867 C 0.21332 0.43363 0.11039 0.0
C868 C 0.25554 0.39462 0.11903 0.0
C869 C 0.28642 0.45205 0.13104 0.0
C870 C 0.1372 0.45425 0.07141 0.0
C871 C 0.13891 0.46609 0.05338 0.0
C872 C 0.16663 0.4747 0.04259 0.0
C873 C 0.19203 0.47108 0.04957 0.0
C874 C 0.18988 0.45895 0.06762 0.0
C875 C 0.16291 0.45121 0.07828 0.0
C876 C 0.16528 0.44029 0.09748 0.0
C877 C 0.19767 0.44187 0.09651 0.0
C878 C 0.21203 0.45257 0.07892 0.0
C879 C 0.13737 0.40632 0.0999 0.0
C880 C 0.16528 0.46372 0.11183 0.0
H881 H 0.31044 0.4354 0.10146 0.0
H882 H 0.31741 0.47294 0.03649 0.0
H883 H 0.29517 0.51456 0.06221 0.0
H884 H 0.257 0.50678 0.05468 0.0
H885 H 0.28446 0.5052 0.03817 0.0
H886 H 0.24174 0.41912 0.04291 0.0
H887 H 0.25709 0.45192 0.02731 0.0
H888 H 0.21918 0.43784 0.03898 0.0
H889 H 0.24588 0.40273 0.16042 0.0
H890 H 0.15653 0.40259 0.16824 0.0
H891 H 0.15906 0.42025 0.13662 0.0
H892 H 0.23104 0.37379 0.11984 0.0
H893 H 0.27091 0.39123 0.12925 0.0
H894 H 0.26387 0.39394 0.1048 0.0
H895 H 0.2819 0.46907 0.13868 0.0
H896 H 0.30398 0.46597 0.12013 0.0
H897 H 0.29778 0.44313 0.14093 0.0
H898 H 0.35447 0.44281 0.08192 0.0
C899 C 0.31102 0.44359 0.08755 0.0
C900 C 0.52398 0.8745 0.30484 0.0
C901 C 0.55431 0.88203 0.29762 0.0
C902 C 0.56295 0.89552 0.27975 0.0
C903 C 0.51192 0.89415 0.27658 0.0
C904 C 0.50335 0.88105 0.29416 0.0
C905 C 0.47075 0.87587 0.29983 0.0
H906 H 0.34038 0.89138 0.28069 0.0
C907 C 0.48557 0.89856 0.2692 0.0
C908 C 0.4614 0.88816 0.28284 0.0
H909 H 0.35713 0.85034 0.32948 0.0
H910 H 0.40814 0.86025 0.31683 0.0
H911 H 0.41432 0.94973 0.27565 0.0
H912 H 0.3645 0.85745 0.25154 0.0
H913 H 0.3871 0.88433 0.23397 0.0
H914 H 0.35517 0.88724 0.24527 0.0
H915 H 0.38219 0.9382 0.25919 0.0
H916 H 0.42303 0.95267 0.25169 0.0
C917 C 0.47519 0.89578 0.31738 0.0
C918 C 0.44801 0.84036 0.30263 0.0
C919 C 0.49604 0.94466 0.20429 0.0
C920 C 0.47725 0.95387 0.19386 0.0
C921 C 0.44784 0.94847 0.20157 0.0
C922 C 0.43781 0.935 0.21936 0.0
C923 C 0.45733 0.92673 0.22977 0.0
C924 C 0.4859 0.93161 0.22212 0.0
C925 C 0.50426 0.92252 0.2353 0.0
C926 C 0.48184 0.91087 0.25202 0.0
C927 C 0.45425 0.91325 0.24875 0.0
C928 C 0.53668 0.95225 0.23993 0.0
C929 C 0.50764 0.89594 0.22614 0.0
C930 C 0.35533 0.88499 0.28874 0.0
C931 C 0.34499 0.87052 0.30627 0.0
C932 C 0.36468 0.86169 0.31604 0.0
C933 C 0.39429 0.86748 0.30865 0.0
C934 C 0.40436 0.88199 0.29113 0.0
C935 C 0.38481 0.89024 0.2814 0.0
C936 C 0.39867 0.90405 0.2626 0.0
C937 C 0.42993 0.9032 0.26273 0.0
C938 C 0.4333 0.89045 0.27958 0.0
C939 C 0.40477 0.9379 0.26206 0.0
C940 C 0.3752 0.88241 0.24744 0.0
H941 H 0.5501 0.91156 0.25569 0.0
H942 H 0.51679 0.86432 0.31859 0.0
H943 H 0.45339 0.82669 0.2924 0.0
H944 H 0.42251 0.83312 0.30025 0.0
H945 H 0.45073 0.8329 0.3168 0.0
H946 H 0.49725 0.91908 0.31616 0.0
H947 H 0.47765 0.88424 0.33007 0.0
H948 H 0.45542 0.90073 0.3195 0.0
H949 H 0.5184 0.94769 0.19878 0.0
H950 H 0.43285 0.95537 0.194 0.0
H951 H 0.41539 0.93192 0.22445 0.0
H952 H 0.53483 0.97376 0.23866 0.0
H953 H 0.55604 0.95488 0.23035 0.0
H954 H 0.54438 0.95256 0.25448 0.0
H955 H 0.48482 0.8789 0.2192 0.0
H956 H 0.51266 0.88209 0.23627 0.0
H957 H 0.52687 0.90533 0.21541 0.0
H958 H 0.58605 0.90131 0.27386 0.0
C959 C 0.54198 0.90143 0.2692 0.0
C960 C 0.10981 0.47755 0.30814 0.0
C961 C 0.10778 0.4507 0.30012 0.0
C962 C 0.09751 0.44343 0.28145 0.0
C963 C 0.09319 0.4902 0.27897 0.0
C964 C 0.1029 0.49704 0.29732 0.0
C965 C 0.10604 0.52747 0.30349 0.0
H966 H 0.09947 0.65775 0.28329 0.0
C967 C 0.08902 0.51591 0.2715 0.0
C968 C 0.09683 0.53791 0.28581 0.0
H969 H 0.12431 0.63197 0.33565 0.0
H970 H 0.11572 0.58365 0.32222 0.0
H971 H 0.13742 0.63599 0.25739 0.0
H972 H 0.03853 0.58882 0.27482 0.0
H973 H 0.03899 0.58054 0.2511 0.0
H974 H 0.05453 0.62044 0.2584 0.0
H975 H 0.10871 0.64542 0.2479 0.0
H976 H 0.11446 0.61494 0.23806 0.0
C977 C 0.14162 0.54976 0.30894 0.0
C978 C 0.08153 0.52053 0.31938 0.0
C979 C 0.04756 0.51093 0.20546 0.0
C980 C 0.04169 0.53169 0.19494 0.0
C981 C 0.04952 0.56084 0.20272 0.0
C982 C 0.06207 0.56889 0.22074 0.0
C983 C 0.06698 0.54764 0.23125 0.0
C984 C 0.06038 0.51946 0.22348 0.0
C985 C 0.06824 0.50036 0.23662 0.0
C986 C 0.07936 0.52121 0.25376 0.0
C987 C 0.07842 0.5488 0.2505 0.0
C988 C 0.09572 0.49674 0.22791 0.0
C989 C 0.03707 0.46907 0.24041 0.0
C990 C 0.10255 0.64144 0.29192 0.0
C991 C 0.11229 0.64849 0.3106 0.0
C992 C 0.11686 0.62702 0.32123 0.0
C993 C 0.11181 0.59897 0.31339 0.0
C994 C 0.10221 0.59229 0.29467 0.0
C995 C 0.09757 0.61328 0.2843 0.0
C996 C 0.0871 0.60214 0.2647 0.0
C997 C 0.08651 0.5711 0.26497 0.0
C998 C 0.09546 0.56555 0.28254 0.0
C999 C 0.113 0.62581 0.25118 0.0
C1000 C 0.05312 0.59788 0.2619 0.0
H1001 H 0.08273 0.4563 0.25672 0.0
H1002 H 0.11692 0.48351 0.32254 0.0
H1003 H 0.05912 0.49784 0.31706 0.0
H1004 H 0.07348 0.5379 0.32022 0.0
H1005 H 0.09155 0.51916 0.33306 0.0
H1006 H 0.15816 0.54581 0.29998 0.0
H1007 H 0.14622 0.546 0.32362 0.0
H1008 H 0.14922 0.57466 0.30692 0.0
H1009 H 0.04153 0.48822 0.20003 0.0
H1010 H 0.0457 0.57743 0.19484 0.0
H1011 H 0.06722 0.59131 0.22584 0.0
H1012 H 0.11204 0.51761 0.21946 0.0
H1013 H 0.08607 0.47606 0.21862 0.0
H1014 H 0.11149 0.49501 0.23848 0.0
H1015 H 0.01646 0.47305 0.24262 0.0
H1016 H 0.03842 0.4572 0.25311 0.0
H1017 H 0.03109 0.45286 0.22845 0.0
H1018 H 0.09584 0.42293 0.2749 0.0
C1019 C 0.09016 0.46296 0.27086 0.0
C1020 C 0.36042 0.47694 0.30466 0.0
C1021 C 0.33817 0.44722 0.29781 0.0
C1022 C 0.34264 0.43862 0.27983 0.0
C1023 C 0.39075 0.48903 0.2757 0.0
C1024 C 0.38656 0.49732 0.29345 0.0
C1025 C 0.4132 0.52932 0.29881 0.0
H1026 H 0.55073 0.66149 0.27569 0.0
C1027 C 0.42017 0.51551 0.26765 0.0
C1028 C 0.43346 0.53919 0.2812 0.0
H1029 H 0.50208 0.63772 0.32887 0.0
H1030 H 0.4606 0.58864 0.31632 0.0
H1031 H 0.54406 0.59471 0.26936 0.0
H1032 H 0.48882 0.63599 0.25023 0.0
H1033 H 0.48996 0.61352 0.23165 0.0
H1034 H 0.52699 0.64587 0.24026 0.0
H1035 H 0.55828 0.62459 0.25183 0.0
H1036 H 0.53453 0.58378 0.24598 0.0
C1037 C 0.43148 0.52578 0.3156 0.0
C1038 C 0.39826 0.55021 0.30268 0.0
C1039 C 0.45764 0.50831 0.20215 0.0
C1040 C 0.48405 0.52956 0.19128 0.0
C1041 C 0.5043 0.55988 0.19823 0.0
C1042 C 0.49915 0.56867 0.21584 0.0
C1043 C 0.47346 0.54695 0.22681 0.0
C1044 C 0.45276 0.51756 0.21981 0.0
C1045 C 0.42638 0.49795 0.23347 0.0
C1046 C 0.43526 0.52018 0.24993 0.0
C1047 C 0.46302 0.54873 0.24592 0.0
C1048 C 0.42889 0.4687 0.23837 0.0
C1049 C 0.39392 0.49061 0.22465 0.0
C1050 C 0.53145 0.64555 0.28475 0.0
C1051 C 0.53003 0.65338 0.3034 0.0
C1052 C 0.5038 0.63229 0.31446 0.0
C1053 C 0.47982 0.6037 0.30717 0.0
C1054 C 0.48206 0.59593 0.28861 0.0
C1055 C 0.5076 0.61677 0.27777 0.0
C1056 C 0.50678 0.60435 0.25857 0.0
C1057 C 0.47663 0.5725 0.25967 0.0
C1058 C 0.46207 0.56773 0.27724 0.0
C1059 C 0.5375 0.60182 0.25609 0.0
C1060 C 0.50319 0.62602 0.24432 0.0
H1061 H 0.37062 0.45141 0.25516 0.0
H1062 H 0.35779 0.48395 0.31854 0.0
H1063 H 0.37981 0.54624 0.29199 0.0
H1064 H 0.41596 0.57539 0.302 0.0
H1065 H 0.38635 0.54486 0.31652 0.0
H1066 H 0.4307 0.50288 0.31526 0.0
H1067 H 0.42079 0.52719 0.32902 0.0
H1068 H 0.45737 0.5433 0.31553 0.0
H1069 H 0.44177 0.48474 0.19731 0.0
H1070 H 0.52451 0.5768 0.19007 0.0
H1071 H 0.51574 0.59198 0.22031 0.0
H1072 H 0.45449 0.47471 0.2393 0.0
H1073 H 0.41711 0.45031 0.22758 0.0
H1074 H 0.41851 0.45871 0.25209 0.0
H1075 H 0.3965 0.51105 0.21665 0.0
H1076 H 0.37512 0.48572 0.23508 0.0
H1077 H 0.38508 0.47057 0.21489 0.0
H1078 H 0.32571 0.41584 0.27428 0.0
C1079 C 0.36865 0.45936 0.26873 0.0
Eu1080 Eu 0.4956 0.97798 0.98982 0.0
C1081 C 0.56447 0.09807 0.03898 0.0
C1082 C 0.62012 0.11091 0.03769 0.0
C1083 C 0.60705 0.15226 0.0412 0.0
C1084 C 0.58703 0.0887 0.03715 0.0
C1085 C 0.57418 0.12987 0.04149 0.0
C1086 C 0.62999 0.1428 0.03926 0.0
C1087 C 0.51836 0.1147 0.04602 0.0
N1088 N 0.53298 0.07585 0.03934 0.0
C1089 C 0.50997 0.08346 0.04354 0.0
C1090 C 0.55058 0.13808 0.04475 0.0
Eu1091 Eu 0.52032 0.02373 0.03389 0.0
N1092 N 0.57665 0.05771 0.03588 0.0
C1093 C 0.59806 0.04716 0.03663 0.0
C1094 C 0.64224 0.10032 0.03721 0.0
C1095 C 0.63114 0.06827 0.03699 0.0
H1096 H 0.48504 0.06542 0.04445 0.0
H1097 H 0.64802 0.05979 0.03701 0.0
H1098 H 0.6553 0.16023 0.03951 0.0
H1099 H 0.49999 0.12073 0.0489 0.0
H1100 H 0.58988 0.02248 0.03634 0.0
H1101 H 0.3668 0.93746 0.98861 0.0
H1102 H 0.66787 0.11662 0.03751 0.0
H1103 H 0.53293 0.93877 0.97764 0.0
H1104 H 0.42456 0.97633 0.9886 0.0
H1105 H 0.51989 0.88413 0.97264 0.0
H1106 H 0.615 0.17685 0.04292 0.0
H1107 H 0.34897 0.88104 0.98771 0.0
H1108 H 0.3636 0.83891 0.98482 0.0
H1109 H 0.55704 0.16226 0.04676 0.0
H1110 H 0.40529 0.82436 0.98031 0.0
N1111 N 0.43954 0.94239 0.98832 0.0
C1112 C 0.41723 0.95185 0.98814 0.0
C1113 C 0.37441 0.89804 0.98771 0.0
C1114 C 0.39741 0.88859 0.98657 0.0
C1115 C 0.38438 0.92985 0.98817 0.0
C1116 C 0.43021 0.91168 0.98672 0.0
H1117 H 0.46361 0.84111 0.97541 0.0
N1118 N 0.48469 0.92654 0.98362 0.0
C1119 C 0.50101 0.88922 0.97601 0.0
C1120 C 0.45355 0.90348 0.98427 0.0
C1121 C 0.50831 0.9201 0.9788 0.0
C1122 C 0.46923 0.865 0.97763 0.0
C1123 C 0.44494 0.872 0.9815 0.0
O1124 O 0.52326 0.98874 0.96393 0.0
O1125 O 0.53386 0.01955 1.00475 0.0
O1126 O 0.51346 0.05356 0.01246 0.0
O1127 O 0.48143 0.01563 0.99048 0.0
O1128 O 0.54866 0.99412 0.98901 0.0
O1129 O 0.47834 0.98851 0.96399 0.0
O1130 O 0.49287 0.01578 0.05964 0.0
O1131 O 0.48186 0.98188 0.01916 0.0
O1132 O 0.5042 0.94838 1.01047 0.0
O1133 O 0.5329 0.98486 0.03394 0.0
O1134 O 0.46751 0.00832 0.03433 0.0
O1135 O 0.53582 0.01227 0.06002 0.0
C1136 C 0.55837 0.0187 0.99919 0.0
C1137 C 0.4954 0.97776 0.93525 0.0
C1138 C 0.4959 0.98263 0.90116 0.0
C1139 C 0.50257 0.99644 0.91905 0.0
C1140 C 0.48291 0.95009 0.89985 0.0
C1141 C 0.48186 0.94536 0.93344 0.0
C1142 C 0.47587 0.9317 0.91584 0.0
C1143 C 0.49444 0.04403 0.99769 0.0
C1144 C 0.50259 0.99217 0.95395 0.0
C1145 C 0.41239 0.84873 0.98219 0.0
C1146 C 0.38866 0.85701 0.98476 0.0
C1147 C 0.45748 0.98308 0.02472 0.0
C1148 C 0.52034 0.02562 0.08842 0.0
C1149 C 0.5109 0.00715 0.10477 0.0
C1150 C 0.51824 0.0213 0.12257 0.0
C1151 C 0.53436 0.05414 0.12358 0.0
C1152 C 0.53697 0.05824 0.08994 0.0
C1153 C 0.54377 0.07235 0.10743 0.0
C1154 C 0.52157 0.95717 0.0259 0.0
C1155 C 0.51228 0.01078 0.06985 0.0
H1156 H 0.51285 0.02148 0.92036 0.0
H1157 H 0.47824 0.93881 0.88638 0.0
H1158 H 0.4761 0.93063 0.94563 0.0
H1159 H 0.4657 0.90668 0.91457 0.0
H1160 H 0.49816 0.98191 0.10364 0.0
H1161 H 0.53946 0.06585 0.13692 0.0
H1162 H 0.54447 0.0728 0.07762 0.0
H1163 H 0.55627 0.09757 0.10849 0.0
Eu1164 Eu 0.03068 0.51138 0.9914 0.0
C1165 C 0.90747 0.46357 0.03927 0.0
C1166 C 0.89323 0.5037 0.03454 0.0
C1167 C 0.85134 0.44998 0.03988 0.0
C1168 C 0.91658 0.49438 0.03568 0.0
C1169 C 0.87484 0.44119 0.04202 0.0
C1170 C 0.86052 0.48118 0.03611 0.0
C1171 C 0.89143 0.4041 0.05086 0.0
N1172 N 0.93077 0.45593 0.04139 0.0
C1173 C 0.92347 0.42719 0.04808 0.0
C1174 C 0.86695 0.41097 0.04749 0.0
Eu1175 Eu 0.98424 0.49563 0.03519 0.0
N1176 N 0.94838 0.51554 0.03434 0.0
C1177 C 0.9586 0.54675 0.03357 0.0
C1178 C 0.90351 0.53548 0.03244 0.0
C1179 C 0.93636 0.55715 0.03233 0.0
H1180 H 0.94242 0.42184 0.05057 0.0
H1181 H 0.94459 0.58186 0.03114 0.0
H1182 H 0.84221 0.48783 0.03502 0.0
H1183 H 0.88565 0.38106 0.05557 0.0
H1184 H 0.98389 0.56376 0.03327 0.0
H1185 H 0.06304 0.41968 0.9948 0.0
H1186 H 0.88635 0.54359 0.03143 0.0
H1187 H 0.07617 0.58446 0.97592 0.0
H1188 H 0.02645 0.44095 0.99317 0.0
H1189 H 0.13379 0.62316 0.97133 0.0
H1190 H 0.82609 0.43303 0.04168 0.0
H1191 H 0.12187 0.4553 0.99441 0.0
H1192 H 0.16832 0.50998 0.99117 0.0
H1193 H 0.84215 0.3931 0.04974 0.0
H1194 H 0.18771 0.5656 0.98493 0.0
N1195 N 0.064 0.48845 0.99209 0.0
C1196 C 0.05199 0.45689 0.99278 0.0
C1197 C 0.10589 0.46483 0.99356 0.0
C1198 C 0.11802 0.49697 0.99168 0.0
C1199 C 0.0727 0.44466 0.99374 0.0
C1200 C 0.09615 0.50816 0.99074 0.0
H1201 H 0.17499 0.60799 0.97721 0.0
N1202 N 0.08514 0.54881 0.98544 0.0
C1203 C 0.12667 0.59978 0.97606 0.0
C1204 C 0.10708 0.5394 0.98742 0.0
C1205 C 0.09417 0.57795 0.97874 0.0
C1206 C 0.14984 0.59113 0.97942 0.0
C1207 C 0.14013 0.56039 0.98471 0.0
O1208 O 0.02497 0.52834 0.96438 0.0
O1209 O 0.98714 0.50817 1.00494 0.0
O1210 O 0.9538 0.45491 0.01641 0.0
O1211 O 0.98976 0.46066 0.99265 0.0
O1212 O 0.01343 0.54605 0.98761 0.0
O1213 O 0.01946 0.48228 0.96651 0.0
O1214 O 0.9923 0.48072 0.06232 0.0
O1215 O 0.02791 0.49951 0.0216 0.0
O1216 O 0.06019 0.55276 1.01001 0.0
O1217 O 0.02367 0.54691 0.03353 0.0
O1218 O 1.0031 0.46206 0.03935 0.0
O1219 O 0.99316 0.52473 0.05989 0.0
C1220 C 0.98782 0.5319 0.99767 0.0
C1221 C 0.03791 0.50895 0.93786 0.0
C1222 C 0.03731 0.5059 0.90393 0.0
C1223 C 0.02088 0.49997 0.921 0.0
C1224 C 0.07112 0.52147 0.90401 0.0
C1225 C 0.07155 0.52367 0.93766 0.0
C1226 C 0.08804 0.53004 0.92079 0.0
C1227 C 0.962 0.44477 1.00156 0.0
C1228 C 0.02022 0.50353 0.9554 0.0
C1229 C 0.16218 0.54975 0.98668 0.0
C1230 C 0.15114 0.51807 0.99019 0.0
C1231 C 0.02839 0.47654 0.02908 0.0
C1232 C 0.97682 0.49808 0.08874 0.0
C1233 C 0.99355 0.50548 0.10573 0.0
C1234 C 0.97679 0.498 0.12278 0.0
C1235 C 0.94302 0.48315 0.12247 0.0
C1236 C 0.94321 0.48357 0.08878 0.0
C1237 C 0.92643 0.47611 0.10559 0.0
C1238 C 0.05137 0.56303 0.02458 0.0
C1239 C 0.99472 0.50479 0.07115 0.0
H1240 H 0.99484 0.48818 0.9212 0.0
H1241 H 0.08451 0.52723 0.89109 0.0
H1242 H 0.08507 0.53043 0.95047 0.0
H1243 H 0.11403 0.5418 0.92072 0.0
H1244 H 0.01958 0.5174 0.10562 0.0
H1245 H 0.9294 0.47687 0.13532 0.0
H1246 H 0.92994 0.47797 0.07588 0.0
H1247 H 0.90046 0.46475 0.10553 0.0
Eu1248 Eu 0.51879 0.4891 0.03372 0.0
C1249 C 0.4494 0.53858 0.98257 0.0
C1250 C 0.39317 0.49995 0.98623 0.0
C1251 C 0.40878 0.55407 0.97999 0.0
C1252 C 0.42584 0.50815 0.9861 0.0
C1253 C 0.44112 0.56174 0.97895 0.0
C1254 C 0.38484 0.52322 0.98366 0.0
C1255 C 0.49693 0.59745 0.97174 0.0
N1256 N 0.48033 0.54508 0.98149 0.0
C1257 C 0.50388 0.57362 0.97537 0.0
C1258 C 0.46548 0.59163 0.97381 0.0
Eu1259 Eu 0.49072 0.50427 0.98906 0.0
N1260 N 0.43473 0.48622 0.98826 0.0
C1261 C 0.412 0.45528 0.98906 0.0
C1262 C 0.36984 0.46847 0.98833 0.0
C1263 C 0.37929 0.44598 0.98941 0.0
H1264 H 0.52825 0.57824 0.97384 0.0
H1265 H 0.36143 0.42149 0.99064 0.0
H1266 H 0.3599 0.51743 0.98392 0.0
H1267 H 0.51581 0.62027 0.96737 0.0
H1268 H 0.41889 0.43766 0.9901 0.0
H1269 H 0.64757 0.57345 0.03267 0.0
H1270 H 0.3445 0.46121 0.98858 0.0
H1271 H 0.48155 0.41532 0.04894 0.0
H1272 H 0.58978 0.55624 0.03214 0.0
H1273 H 0.49491 0.37475 0.05787 0.0
H1274 H 0.40196 0.57162 0.97746 0.0
H1275 H 0.66545 0.53468 0.03655 0.0
H1276 H 0.65093 0.47907 0.04279 0.0
H1277 H 0.46012 0.61009 0.97091 0.0
H1278 H 0.60938 0.42502 0.05001 0.0
N1279 N 0.57485 0.50799 0.03493 0.0
C1280 C 0.59715 0.53903 0.03385 0.0
C1281 C 0.64 0.52696 0.03628 0.0
C1282 C 0.61703 0.49545 0.03876 0.0
C1283 C 0.63 0.54891 0.03414 0.0
C1284 C 0.5842 0.48662 0.03813 0.0
H1285 H 0.55127 0.38621 0.05633 0.0
N1286 N 0.52971 0.44897 0.04203 0.0
C1287 C 0.51368 0.39749 0.0533 0.0
C1288 C 0.56089 0.45616 0.04189 0.0
C1289 C 0.50619 0.42047 0.04822 0.0
C1290 C 0.54552 0.40404 0.05239 0.0
C1291 C 0.56965 0.43376 0.0468 0.0
O1292 O 0.49312 0.47576 0.06027 0.0
O1293 O 0.47929 0.49203 0.01907 0.0
O1294 O 0.49886 0.54356 1.00837 0.0
O1295 O 0.53279 0.54039 0.03063 0.0
O1296 O 0.4656 0.45466 0.03683 0.0
O1297 O 0.53814 0.5191 0.05824 0.0
O1298 O 0.51559 0.51729 0.96226 0.0
O1299 O 0.53054 0.50145 1.0036 0.0
O1300 O 0.50931 0.44908 0.01467 0.0
O1301 O 0.47519 0.45257 0.9928 0.0
O1302 O 0.54386 0.53891 0.98589 0.0
O1303 O 0.47081 0.47386 0.96472 0.0
C1304 C 0.45513 0.46856 0.02608 0.0
C1305 C 0.52405 0.49381 0.08761 0.0
C1306 C 0.52071 0.4947 0.12157 0.0
C1307 C 0.51296 0.50135 0.10384 0.0
C1308 C 0.53967 0.48035 0.12273 0.0
C1309 C 0.54311 0.47976 0.08914 0.0
C1310 C 0.55077 0.473 0.10663 0.0
C1311 C 0.51897 0.55486 0.02257 0.0
C1312 C 0.51493 0.50001 0.0692 0.0
C1313 C 0.6022 0.44203 0.04656 0.0
C1314 C 0.62585 0.4728 0.04246 0.0
C1315 C 0.55458 0.52513 0.99655 0.0
C1316 C 0.48359 0.49905 0.93532 0.0
C1317 C 0.49355 0.49105 0.91879 0.0
C1318 C 0.48513 0.49779 0.90126 0.0
C1319 C 0.46656 0.5126 0.90063 0.0
C1320 C 0.46493 0.51357 0.93429 0.0
C1321 C 0.45653 0.52034 0.91702 0.0
C1322 C 0.48819 0.43733 1.00093 0.0
C1323 C 0.49355 0.49294 0.95351 0.0
H1324 H 0.49875 0.51278 0.10263 0.0
H1325 H 0.54586 0.47474 0.13614 0.0
H1326 H 0.55203 0.47399 0.07687 0.0
H1327 H 0.56538 0.46202 0.10771 0.0
H1328 H 0.50745 0.47927 0.91963 0.0
H1329 H 0.4599 0.51834 0.88741 0.0
H1330 H 0.45691 0.51973 0.9468 0.0
H1331 H 0.44224 0.53169 0.91633 0.0
Eu1332 Eu 0.15634 0.31119 0.32467 0.0
C1333 C 0.21951 0.42673 0.37534 0.0
C1334 C 0.27697 0.44853 0.37112 0.0
C1335 C 0.25568 0.48273 0.37842 0.0
C1336 C 0.24552 0.42254 0.3714 0.0
C1337 C 0.22457 0.45678 0.37951 0.0
C1338 C 0.28178 0.47863 0.37415 0.0
C1339 C 0.16807 0.43322 0.38694 0.0
N1340 N 0.18951 0.40134 0.37614 0.0
C1341 C 0.16414 0.40393 0.38267 0.0
C1342 C 0.19833 0.45981 0.38512 0.0
Eu1343 Eu 0.18602 0.35302 0.36896 0.0
N1344 N 0.24039 0.39312 0.36879 0.0
C1345 C 0.26571 0.38791 0.36739 0.0
C1346 C 0.30284 0.44345 0.36832 0.0
C1347 C 0.29721 0.41298 0.36675 0.0
H1348 H 0.14062 0.38336 0.38392 0.0
H1349 H 0.31712 0.40876 0.36504 0.0
H1350 H 0.30573 0.49883 0.37378 0.0
H1351 H 0.14778 0.43529 0.39159 0.0
H1352 H 0.26191 0.36458 0.36623 0.0
H1353 H 0.0254 0.26101 0.32877 0.0
H1354 H 0.3273 0.46281 0.36789 0.0
H1355 H 0.19706 0.27507 0.31039 0.0
H1356 H 0.08106 0.30293 0.32598 0.0
H1357 H 0.18707 0.22165 0.30588 0.0
H1358 H 0.25991 0.50602 0.38129 0.0
H1359 H 0.0124 0.20592 0.32896 0.0
H1360 H 0.03117 0.16717 0.32561 0.0
H1361 H 0.2013 0.4825 0.38844 0.0
H1362 H 0.075 0.15645 0.31914 0.0
N1363 N 0.10082 0.27262 0.32537 0.0
C1364 C 0.07642 0.27932 0.32611 0.0
C1365 C 0.03721 0.22437 0.32777 0.0
C1366 C 0.06196 0.21749 0.32566 0.0
C1367 C 0.04445 0.25541 0.32763 0.0
C1368 C 0.09395 0.24241 0.3243 0.0
H1369 H 0.13286 0.17653 0.31134 0.0
N1370 N 0.14901 0.26072 0.31868 0.0
C1371 C 0.16765 0.22542 0.31014 0.0
C1372 C 0.11868 0.2363 0.32075 0.0
C1373 C 0.17316 0.25576 0.31263 0.0
C1374 C 0.13704 0.20003 0.31327 0.0
C1375 C 0.11199 0.20524 0.31836 0.0
O1376 O 0.17218 0.34698 0.30277 0.0
O1377 O 0.19745 0.35191 0.33873 0.0
O1378 O 0.1683 0.37956 0.35085 0.0
O1379 O 0.13398 0.34155 0.32996 0.0
O1380 O 0.20881 0.32647 0.32061 0.0
O1381 O 0.14232 0.29907 0.29539 0.0
O1382 O 0.16083 0.34613 0.39541 0.0
O1383 O 0.14156 0.31866 0.35273 0.0
O1384 O 0.17156 0.2842 0.34426 0.0
O1385 O 0.20798 0.32246 0.36448 0.0
O1386 O 0.14691 0.30589 0.37901 0.0
O1387 O 0.20832 0.35036 0.39492 0.0
C1388 C 0.22065 0.35082 0.3311 0.0
C1389 C 0.18064 0.33214 0.27302 0.0
C1390 C 0.1996 0.35161 0.24137 0.0
C1391 C 0.17818 0.34609 0.25633 0.0
C1392 C 0.22327 0.34299 0.24342 0.0
C1393 C 0.20428 0.32346 0.27443 0.0
C1394 C 0.22546 0.32895 0.25978 0.0
C1395 C 0.14662 0.36981 0.33732 0.0
C1396 C 0.15938 0.32742 0.28914 0.0
C1397 C 0.08046 0.18043 0.32066 0.0
C1398 C 0.05552 0.18654 0.32435 0.0
C1399 C 0.12877 0.29725 0.36472 0.0
C1400 C 0.1906 0.36079 0.42374 0.0
C1401 C 0.17985 0.34188 0.43986 0.0
C1402 C 0.18572 0.35541 0.4578 0.0
C1403 C 0.20269 0.38821 0.45919 0.0
C1404 C 0.20745 0.39334 0.42558 0.0
C1405 C 0.21342 0.40692 0.44323 0.0
C1406 C 0.1942 0.2941 0.35727 0.0
C1407 C 0.18381 0.34601 0.40519 0.0
H1408 H 0.16007 0.35297 0.2551 0.0
H1409 H 0.23988 0.34673 0.23219 0.0
H1410 H 0.20648 0.31244 0.28688 0.0
H1411 H 0.24366 0.32223 0.26109 0.0
H1412 H 0.16732 0.31669 0.4384 0.0
H1413 H 0.2074 0.39947 0.47267 0.0
H1414 H 0.21599 0.40822 0.41342 0.0
H1415 H 0.22638 0.4321 0.44456 0.0
Eu1416 Eu 0.69655 0.83955 0.32365 0.0
C1417 C 0.57119 0.79196 0.37018 0.0
C1418 C 0.55646 0.83184 0.36582 0.0
C1419 C 0.51492 0.77788 0.37086 0.0
C1420 C 0.58003 0.82279 0.36684 0.0
C1421 C 0.5386 0.76927 0.37269 0.0
C1422 C 0.52383 0.80911 0.3674 0.0
C1423 C 0.55551 0.73191 0.38022 0.0
N1424 N 0.59466 0.78446 0.37193 0.0
C1425 C 0.58749 0.75527 0.37764 0.0
C1426 C 0.5309 0.73882 0.37748 0.0
Eu1427 Eu 0.648 0.8248 0.36632 0.0
N1428 N 0.61175 0.84416 0.36542 0.0
C1429 C 0.62171 0.8753 0.36454 0.0
C1430 C 0.56647 0.86357 0.36372 0.0
C1431 C 0.59926 0.88544 0.36339 0.0
H1432 H 0.60647 0.74983 0.37963 0.0
H1433 H 0.60727 0.91009 0.36214 0.0
H1434 H 0.50537 0.81556 0.36644 0.0
H1435 H 0.54985 0.70861 0.38428 0.0
H1436 H 0.64698 0.89241 0.36412 0.0
H1437 H 0.73936 0.75582 0.32843 0.0
H1438 H 0.54913 0.87148 0.36279 0.0
H1439 H 0.73698 0.91384 0.30898 0.0
H1440 H 0.69913 0.77275 0.32665 0.0
H1441 H 0.79319 0.9555 0.3039 0.0
H1442 H 0.48971 0.76071 0.37253 0.0
H1443 H 0.79731 0.79499 0.32725 0.0
H1444 H 0.8404 0.85105 0.32313 0.0
H1445 H 0.50615 0.72071 0.37952 0.0
H1446 H 0.85511 0.9055 0.3165 0.0
N1447 N 0.73365 0.82106 0.32467 0.0
C1448 C 0.72421 0.79006 0.32583 0.0
C1449 C 0.77969 0.80254 0.32634 0.0
C1450 C 0.78918 0.83412 0.32405 0.0
C1451 C 0.74702 0.78037 0.32694 0.0
C1452 C 0.76525 0.84271 0.32307 0.0
H1453 H 0.83764 0.94458 0.309 0.0
N1454 N 0.74967 0.88017 0.31754 0.0
C1455 C 0.78803 0.93253 0.30839 0.0
C1456 C 0.77354 0.87328 0.31945 0.0
C1457 C 0.75625 0.9089 0.31126 0.0
C1458 C 0.81305 0.92629 0.31133 0.0
C1459 C 0.80595 0.89621 0.31658 0.0
O1460 O 0.6876 0.85253 0.29616 0.0
O1461 O 0.65287 0.8375 0.33618 0.0
O1462 O 0.618 0.78634 0.34609 0.0
O1463 O 0.65766 0.78789 0.32668 0.0
O1464 O 0.67994 0.87462 0.31864 0.0
O1465 O 0.68777 0.80914 0.29962 0.0
O1466 O 0.65513 0.8104 0.39378 0.0
O1467 O 0.69154 0.82713 0.35374 0.0
O1468 O 0.72684 0.87879 0.34356 0.0
O1469 O 0.68763 0.87599 0.36415 0.0
O1470 O 0.66554 0.7904 0.37166 0.0
O1471 O 0.65696 0.85487 0.39053 0.0
C1472 C 0.65418 0.86126 0.3286 0.0
C1473 C 0.70374 0.83451 0.2704 0.0
C1474 C 0.70393 0.83439 0.23638 0.0
C1475 C 0.68711 0.82695 0.2534 0.0
C1476 C 0.73769 0.84911 0.23673 0.0
C1477 C 0.73735 0.84901 0.27043 0.0
C1478 C 0.75421 0.85624 0.25365 0.0
C1479 C 0.62782 0.77381 0.33327 0.0
C1480 C 0.68572 0.82825 0.28789 0.0
C1481 C 0.83003 0.88814 0.31844 0.0
C1482 C 0.82166 0.85713 0.3222 0.0
C1483 C 0.69109 0.80398 0.36153 0.0
C1484 C 0.64044 0.82943 0.4197 0.0
C1485 C 0.65769 0.83792 0.43646 0.0
C1486 C 0.64151 0.83093 0.45366 0.0
C1487 C 0.60773 0.81593 0.45374 0.0
C1488 C 0.60681 0.81455 0.42003 0.0
C1489 C 0.59057 0.80793 0.43701 0.0
C1490 C 0.71707 0.89031 0.35704 0.0
C1491 C 0.65803 0.83506 0.40213 0.0
H1492 H 0.66108 0.81507 0.25348 0.0
H1493 H 0.75135 0.8553 0.22389 0.0
H1494 H 0.75055 0.85483 0.28337 0.0
H1495 H 0.78018 0.86757 0.25375 0.0
H1496 H 0.68373 0.85008 0.43606 0.0
H1497 H 0.59457 0.81013 0.46674 0.0
H1498 H 0.59317 0.80791 0.40723 0.0
H1499 H 0.56459 0.79632 0.43722 0.0
Eu1500 Eu 0.18725 0.8292 0.36832 0.0
C1501 C 0.13285 0.88586 0.31629 0.0
C1502 C 0.07539 0.85792 0.32194 0.0
C1503 C 0.1023 0.9128 0.31328 0.0
C1504 C 0.1051 0.85858 0.32125 0.0
C1505 C 0.13148 0.91288 0.31154 0.0
C1506 C 0.07434 0.8854 0.31854 0.0
C1507 C 0.18663 0.93654 0.30116 0.0
N1508 N 0.16072 0.88522 0.31462 0.0
C1509 C 0.18686 0.90925 0.30607 0.0
C1510 C 0.15907 0.93865 0.30432 0.0
Eu1511 Eu 0.15858 0.83788 0.3232 0.0
N1512 N 0.10668 0.83215 0.32392 0.0
C1513 C 0.07928 0.80393 0.32584 0.0
C1514 C 0.04742 0.82936 0.32526 0.0
C1515 C 0.04933 0.80216 0.32688 0.0
H1516 H 0.20825 0.90764 0.30376 0.0
H1517 H 0.02777 0.77984 0.32899 0.0
H1518 H 0.05179 0.8854 0.31922 0.0
H1519 H 0.20769 0.95592 0.29496 0.0
H1520 H 0.08043 0.78278 0.3271 0.0
H1521 H 0.31855 0.89188 0.36475 0.0
H1522 H 0.02417 0.82789 0.32598 0.0
H1523 H 0.13752 0.75644 0.38457 0.0
H1524 H 0.26498 0.88684 0.36557 0.0
H1525 H 0.1398 0.70864 0.39214 0.0
H1526 H 0.10087 0.93347 0.30994 0.0
H1527 H 0.32422 0.84501 0.3679 0.0
H1528 H 0.2983 0.78743 0.37375 0.0
H1529 H 0.15894 0.95979 0.30044 0.0
H1530 H 0.24977 0.73765 0.3812 0.0
N1531 N 0.24008 0.8373 0.36844 0.0
C1532 C 0.26689 0.8661 0.36691 0.0
C1533 C 0.30051 0.84258 0.36822 0.0
C1534 C 0.27307 0.81336 0.37093 0.0
C1535 C 0.29743 0.8691 0.36649 0.0
C1536 C 0.24271 0.81139 0.37108 0.0
H1537 H 0.19078 0.70821 0.38838 0.0
N1538 N 0.18644 0.78214 0.37602 0.0
C1539 C 0.16109 0.72934 0.38724 0.0
C1540 C 0.21523 0.78312 0.3751 0.0
C1541 C 0.1599 0.75638 0.38305 0.0
C1542 C 0.18991 0.72918 0.38505 0.0
C1543 C 0.21758 0.75642 0.3793 0.0
O1544 O 0.16243 0.81544 0.39514 0.0
O1545 O 0.14242 0.81898 0.35196 0.0
O1546 O 0.17918 0.88394 0.3395 0.0
O1547 O 0.21258 0.88073 0.3619 0.0
O1548 O 0.15016 0.84229 0.37673 0.0
O1549 O 0.21171 0.85389 0.3937 0.0
O1550 O 0.18171 0.84724 0.29593 0.0
O1551 O 0.20314 0.84789 0.33963 0.0
O1552 O 0.16958 0.78482 0.35089 0.0
O1553 O 0.13277 0.78656 0.33083 0.0
O1554 O 0.1968 0.82657 0.31423 0.0
O1555 O 0.13136 0.81208 0.29864 0.0
C1556 C 0.13078 0.83063 0.36304 0.0
C1557 C 0.19425 0.8261 0.42229 0.0
C1558 C 0.18828 0.82159 0.45622 0.0
C1559 C 0.18147 0.83051 0.4389 0.0
C1560 C 0.20818 0.80819 0.45657 0.0
C1561 C 0.21384 0.81253 0.42301 0.0
C1562 C 0.22064 0.80355 0.44007 0.0
C1563 C 0.20109 0.8963 0.35284 0.0
C1564 C 0.18727 0.83628 0.40447 0.0
C1565 C 0.24757 0.75802 0.37825 0.0
C1566 C 0.27522 0.78639 0.37403 0.0
C1567 C 0.21527 0.83697 0.32839 0.0
C1568 C 0.14916 0.83802 0.26944 0.0
C1569 C 0.16074 0.83231 0.25275 0.0
C1570 C 0.1554 0.8428 0.23555 0.0
C1571 C 0.13851 0.85929 0.2354 0.0
C1572 C 0.13218 0.85428 0.26889 0.0
C1573 C 0.12705 0.86497 0.25195 0.0
C1574 C 0.14611 0.77148 0.33854 0.0
C1575 C 0.15556 0.82732 0.28726 0.0
H1576 H 0.1663 0.84099 0.43833 0.0
H1577 H 0.21479 0.80195 0.46963 0.0
H1578 H 0.22418 0.80925 0.41046 0.0
H1579 H 0.23602 0.79334 0.44054 0.0
H1580 H 0.17331 0.81919 0.25314 0.0
H1581 H 0.13415 0.86778 0.22243 0.0
H1582 H 0.1228 0.85862 0.2815 0.0
H1583 H 0.11401 0.8776 0.25164 0.0
Eu1584 Eu 0.82093 0.64139 0.65738 0.0
C1585 C 0.89336 0.76373 0.70482 0.0
C1586 C 0.94917 0.77745 0.70244 0.0
C1587 C 0.93532 0.81829 0.70585 0.0
C1588 C 0.91621 0.75482 0.70266 0.0
C1589 C 0.90263 0.79551 0.70684 0.0
C1590 C 0.95857 0.80927 0.70364 0.0
C1591 C 0.8468 0.77967 0.712 0.0
N1592 N 0.86207 0.74114 0.70575 0.0
C1593 C 0.83886 0.74847 0.70997 0.0
C1594 C 0.87879 0.80334 0.7102 0.0
Eu1595 Eu 0.84996 0.68905 0.70067 0.0
N1596 N 0.90625 0.7239 0.70154 0.0
C1597 C 0.92813 0.7139 0.70176 0.0
C1598 C 0.97168 0.76738 0.70148 0.0
C1599 C 0.9611 0.73543 0.70145 0.0
H1600 H 0.81406 0.7302 0.71119 0.0
H1601 H 0.97831 0.72736 0.70108 0.0
H1602 H 0.98375 0.82702 0.70329 0.0
H1603 H 0.82824 0.78543 0.71491 0.0
H1604 H 0.92038 0.68932 0.70158 0.0
H1605 H 0.6906 0.59184 0.66041 0.0
H1606 H 0.99722 0.78401 0.7012 0.0
H1607 H 0.86139 0.60708 0.6416 0.0
H1608 H 0.74723 0.6335 0.65937 0.0
H1609 H 0.85214 0.55414 0.63534 0.0
H1610 H 0.94292 0.84286 0.70718 0.0
H1611 H 0.67674 0.53648 0.65854 0.0
H1612 H 0.69526 0.4975 0.65367 0.0
H1613 H 0.88491 0.8275 0.71182 0.0
H1614 H 0.73935 0.4872 0.64674 0.0
N1615 N 0.76562 0.60252 0.65728 0.0
C1616 C 0.74162 0.60964 0.65825 0.0
C1617 C 0.7017 0.55479 0.65801 0.0
C1618 C 0.72628 0.54768 0.65569 0.0
C1619 C 0.70941 0.58598 0.65898 0.0
C1620 C 0.75838 0.57243 0.65522 0.0
H1621 H 0.79789 0.50823 0.63953 0.0
N1622 N 0.81319 0.59134 0.64992 0.0
C1623 C 0.8325 0.55728 0.63999 0.0
C1624 C 0.78301 0.56664 0.65137 0.0
C1625 C 0.83766 0.58726 0.64359 0.0
C1626 C 0.80187 0.53143 0.6424 0.0
C1627 C 0.7765 0.53595 0.64783 0.0
O1628 O 0.84636 0.65428 0.63064 0.0
O1629 O 0.86063 0.68393 0.67105 0.0
O1630 O 0.83983 0.71669 0.67914 0.0
O1631 O 0.80338 0.67649 0.65993 0.0
O1632 O 0.87391 0.65798 0.65463 0.0
O1633 O 0.8002 0.65127 0.63287 0.0
O1634 O 0.82662 0.68401 0.72767 0.0
O1635 O 0.81041 0.64663 0.68714 0.0
O1636 O 0.83117 0.61261 0.67793 0.0
O1637 O 0.86382 0.65117 0.69956 0.0
O1638 O 0.79707 0.67237 0.70382 0.0
O1639 O 0.86622 0.6752 0.72554 0.0
C1640 C 0.88457 0.68284 0.66461 0.0
C1641 C 0.81546 0.64219 0.6031 0.0
C1642 C 0.8205 0.64731 0.56904 0.0
C1643 C 0.8279 0.66093 0.58698 0.0
C1644 C 0.79996 0.6148 0.56762 0.0
C1645 C 0.79542 0.60985 0.60121 0.0
C1646 C 0.78767 0.59631 0.58355 0.0
C1647 C 0.81742 0.70569 0.66602 0.0
C1648 C 0.82388 0.65643 0.62181 0.0
C1649 C 0.74481 0.51099 0.64922 0.0
C1650 C 0.71972 0.51685 0.65317 0.0
C1651 C 0.7865 0.64742 0.69391 0.0
C1652 C 0.85694 0.6907 0.75506 0.0
C1653 C 0.84492 0.67252 0.7714 0.0
C1654 C 0.85542 0.68621 0.78916 0.0
C1655 C 0.8782 0.71825 0.79018 0.0
C1656 C 0.87971 0.72252 0.75652 0.0
C1657 C 0.89027 0.73615 0.774 0.0
C1658 C 0.85106 0.62276 0.69236 0.0
C1659 C 0.84531 0.67633 0.7366 0.0
H1660 H 0.84355 0.68593 0.5884 0.0
H1661 H 0.79299 0.60365 0.55412 0.0
H1662 H 0.78568 0.59509 0.61338 0.0
H1663 H 0.77196 0.57135 0.5822 0.0
H1664 H 0.82703 0.64798 0.77029 0.0
H1665 H 0.88688 0.72946 0.80355 0.0
H1666 H 0.88921 0.7368 0.74414 0.0
H1667 H 0.90785 0.76075 0.77503 0.0
Eu1668 Eu 0.36187 0.16745 0.654 0.0
C1669 C 0.2396 0.1241 0.70229 0.0
C1670 C 0.22289 0.16218 0.69653 0.0
C1671 C 0.18288 0.1083 0.7033 0.0
C1672 C 0.24724 0.15421 0.69789 0.0
C1673 C 0.20743 0.10096 0.70558 0.0
C1674 C 0.1906 0.13888 0.69877 0.0
C1675 C 0.22657 0.06617 0.71511 0.0
N1676 N 0.26395 0.11795 0.70449 0.0
C1677 C 0.25811 0.09 0.71178 0.0
C1678 C 0.20105 0.07149 0.71169 0.0
Eu1679 Eu 0.31677 0.15897 0.69783 0.0
N1680 N 0.27866 0.17609 0.69591 0.0
C1681 C 0.2876 0.20687 0.69394 0.0
C1682 C 0.23181 0.19346 0.69349 0.0
C1683 C 0.26435 0.21598 0.69252 0.0
H1684 H 0.27776 0.08577 0.71444 0.0
H1685 H 0.27155 0.24032 0.6905 0.0
H1686 H 0.17152 0.14445 0.69752 0.0
H1687 H 0.22198 0.04374 0.72032 0.0
H1688 H 0.31263 0.22446 0.69294 0.0
H1689 H 0.38567 0.06952 0.65913 0.0
H1690 H 0.21385 0.20054 0.69229 0.0
H1691 H 0.41385 0.24247 0.64113 0.0
H1692 H 0.35197 0.09317 0.6562 0.0
H1693 H 0.47226 0.27682 0.63707 0.0
H1694 H 0.15796 0.09075 0.70553 0.0
H1695 H 0.44472 0.10243 0.65954 0.0
H1696 H 0.49319 0.15522 0.65679 0.0
H1697 H 0.17666 0.05305 0.71437 0.0
H1698 H 0.51671 0.21136 0.65089 0.0
N1699 N 0.39117 0.14032 0.65558 0.0
C1700 C 0.37755 0.10849 0.65642 0.0
C1701 C 0.43 0.11329 0.65825 0.0
C1702 C 0.44396 0.14563 0.65629 0.0
C1703 C 0.39669 0.09465 0.658 0.0
C1704 C 0.42377 0.15879 0.65482 0.0
H1705 H 0.50915 0.25649 0.64304 0.0
N1706 N 0.41761 0.20315 0.64998 0.0
C1707 C 0.46279 0.25282 0.64143 0.0
C1708 C 0.43725 0.19085 0.65196 0.0
C1709 C 0.42974 0.23326 0.64372 0.0
C1710 C 0.48351 0.24125 0.64483 0.0
C1711 C 0.47088 0.2099 0.64986 0.0
O1712 O 0.36534 0.19306 0.6285 0.0
O1713 O 0.32761 0.17905 0.6691 0.0
O1714 O 0.28535 0.11806 0.679 0.0
O1715 O 0.32196 0.11725 0.65766 0.0
O1716 O 0.31714 0.16487 0.6418 0.0
O1717 O 0.35835 0.14577 0.62707 0.0
O1718 O 0.32952 0.15008 0.72555 0.0
O1719 O 0.3589 0.15887 0.68451 0.0
O1720 O 0.3906 0.21094 0.67173 0.0
O1721 O 0.35462 0.21008 0.69387 0.0
O1722 O 0.33438 0.12482 0.70413 0.0
O1723 O 0.32361 0.19001 0.7212 0.0
C1724 C 0.30744 0.173 0.65615 0.0
C1725 C 0.38082 0.17826 0.60052 0.0
C1726 C 0.38166 0.17875 0.56648 0.0
C1727 C 0.36456 0.17104 0.58339 0.0
C1728 C 0.41542 0.1937 0.56704 0.0
C1729 C 0.4144 0.19254 0.60075 0.0
C1730 C 0.4316 0.20041 0.58407 0.0
C1731 C 0.29338 0.10464 0.66573 0.0
C1732 C 0.36185 0.17013 0.61776 0.0
C1733 C 0.49085 0.19695 0.65215 0.0
C1734 C 0.47745 0.16496 0.65544 0.0
C1735 C 0.35875 0.13648 0.69307 0.0
C1736 C 0.3102 0.16613 0.75081 0.0
C1737 C 0.32629 0.17119 0.76789 0.0
C1738 C 0.30917 0.16403 0.78477 0.0
C1739 C 0.27573 0.15193 0.7843 0.0
C1740 C 0.27683 0.15393 0.75062 0.0
C1741 C 0.25972 0.14686 0.7673 0.0
C1742 C 0.38296 0.22379 0.68551 0.0
C1743 C 0.32846 0.17325 0.73334 0.0
H1744 H 0.33852 0.1588 0.58331 0.0
H1745 H 0.42933 0.20013 0.55429 0.0
H1746 H 0.42737 0.19742 0.6137 0.0
H1747 H 0.45755 0.21163 0.58433 0.0
H1748 H 0.35207 0.1805 0.76803 0.0
H1749 H 0.26204 0.14689 0.79707 0.0
H1750 H 0.26404 0.15002 0.73761 0.0
H1751 H 0.23399 0.13761 0.76707 0.0
Eu1752 Eu 0.85383 0.15967 0.7015 0.0
C1753 C 0.78255 0.20912 0.65264 0.0
C1754 C 0.72651 0.16906 0.65486 0.0
C1755 C 0.74096 0.22343 0.65095 0.0
C1756 C 0.75939 0.17807 0.65488 0.0
C1757 C 0.7736 0.23208 0.65023 0.0
C1758 C 0.71746 0.19198 0.65329 0.0
C1759 C 0.82962 0.26997 0.64513 0.0
N1760 N 0.81385 0.21667 0.65195 0.0
C1761 C 0.83729 0.24634 0.64753 0.0
C1762 C 0.79767 0.2629 0.64671 0.0
Eu1763 Eu 0.825 0.17576 0.65738 0.0
N1764 N 0.76894 0.1565 0.65623 0.0
C1765 C 0.74684 0.12536 0.65626 0.0
C1766 C 0.70373 0.13723 0.65597 0.0
C1767 C 0.71395 0.11527 0.6564 0.0
H1768 H 0.86203 0.25191 0.64643 0.0
H1769 H 0.69652 0.09057 0.65695 0.0
H1770 H 0.69233 0.18554 0.65342 0.0
H1771 H 0.84832 0.29361 0.64208 0.0
H1772 H 0.75443 0.10818 0.65675 0.0
H1773 H 0.98298 0.24242 0.70174 0.0
H1774 H 0.67824 0.12936 0.65609 0.0
H1775 H 0.81488 0.08373 0.71326 0.0
H1776 H 0.92544 0.22594 0.7007 0.0
H1777 H 0.82709 0.04164 0.71964 0.0
H1778 H 0.7336 0.24077 0.6493 0.0
H1779 H 0.99995 0.20289 0.70519 0.0
H1780 H 0.98442 0.14667 0.71 0.0
H1781 H 0.79178 0.28123 0.6448 0.0
H1782 H 0.94204 0.09211 0.71505 0.0
N1783 N 0.90969 0.17759 0.7033 0.0
C1784 C 0.9324 0.2085 0.70246 0.0
C1785 C 0.97459 0.19555 0.70484 0.0
C1786 C 0.9512 0.16404 0.7067 0.0
C1787 C 0.96512 0.21793 0.70295 0.0
C1788 C 0.91852 0.15573 0.70601 0.0
H1789 H 0.88338 0.05283 0.71893 0.0
N1790 N 0.86371 0.11832 0.70864 0.0
C1791 C 0.84636 0.06501 0.71657 0.0
C1792 C 0.89478 0.12514 0.70882 0.0
C1793 C 0.83954 0.08894 0.71299 0.0
C1794 C 0.87816 0.07141 0.71614 0.0
C1795 C 0.90289 0.10184 0.71244 0.0
O1796 O 0.82907 0.14528 0.72828 0.0
O1797 O 0.8134 0.16144 0.68712 0.0
O1798 O 0.83014 0.21165 0.67853 0.0
O1799 O 0.8686 0.2112 0.69808 0.0
O1800 O 0.80084 0.12399 0.70447 0.0
O1801 O 0.87197 0.19051 0.7257 0.0
O1802 O 0.84995 0.19159 0.63076 0.0
O1803 O 0.86508 0.17349 0.67167 0.0
O1804 O 0.84863 0.1233 0.68075 0.0
O1805 O 0.8116 0.12442 0.66013 0.0
O1806 O 0.87829 0.21083 0.65409 0.0
O1807 O 0.8058 0.14728 0.63219 0.0
C1808 C 0.78961 0.13733 0.69385 0.0
C1809 C 0.8603 0.16621 0.75535 0.0
C1810 C 0.85725 0.16805 0.78931 0.0
C1811 C 0.84762 0.17219 0.77147 0.0
C1812 C 0.87938 0.15732 0.79067 0.0
C1813 C 0.88242 0.15569 0.75705 0.0
C1814 C 0.89182 0.15121 0.77465 0.0
C1815 C 0.85235 0.22444 0.6916 0.0
C1816 C 0.84979 0.17058 0.7369 0.0
C1817 C 0.93533 0.10974 0.71249 0.0
C1818 C 0.95946 0.14079 0.7096 0.0
C1819 C 0.8891 0.1971 0.66474 0.0
C1820 C 0.8185 0.17504 0.60355 0.0
C1821 C 0.8269 0.16664 0.58658 0.0
C1822 C 0.81852 0.17468 0.56943 0.0
C1823 C 0.8024 0.19191 0.5696 0.0
C1824 C 0.80179 0.19158 0.60329 0.0
C1825 C 0.79396 0.20008 0.5864 0.0
C1826 C 0.8273 0.11097 0.66717 0.0
C1827 C 0.82844 0.1677 0.6214 0.0
H1828 H 0.83007 0.17978 0.77009 0.0
H1829 H 0.88746 0.15411 0.80415 0.0
H1830 H 0.89236 0.15092 0.7448 0.0
H1831 H 0.90893 0.1431 0.77589 0.0
H1832 H 0.83964 0.15368 0.58674 0.0
H1833 H 0.79643 0.19924 0.55671 0.0
H1834 H 0.7951 0.19822 0.61612 0.0
H1835 H 0.78141 0.2132 0.58633 0.0
C1836 C 0.37286 0.93846 0.04343 0.0
C1837 C 0.36894 0.90906 0.0479 0.0
C1838 C 0.40073 0.96129 0.03454 0.0
C1839 C 0.42598 0.9558 0.02991 0.0
H1840 H 0.35461 0.94418 0.04736 0.0
H1841 H 0.40318 0.98402 0.03202 0.0
S1842 S 0.42694 0.88206 0.03812 0.0
N1843 N 0.39173 0.87493 0.04625 0.0
N1844 N 0.44468 0.91823 0.03015 0.0
C1845 C 0.4218 0.92602 0.03366 0.0
C1846 C 0.39311 0.90254 0.04248 0.0
C1847 C 0.08081 0.443 0.04463 0.0
C1848 C 0.11171 0.46936 0.04599 0.0
C1849 C 0.05439 0.44567 0.03866 0.0
C1850 C 0.05773 0.47478 0.03377 0.0
H1851 H 0.07702 0.42013 0.04832 0.0
H1852 H 0.03102 0.42472 0.03793 0.0
S1853 S 0.13305 0.55136 0.0369 0.0
N1854 N 0.14395 0.52567 0.04289 0.0
N1855 N 0.09419 0.53087 0.03238 0.0
C1856 C 0.08843 0.50142 0.0355 0.0
C1857 C 0.11545 0.49863 0.04133 0.0
C1858 C 0.54244 0.63985 0.02787 0.0
C1859 C 0.53588 0.64172 0.04681 0.0
C1860 C 0.53686 0.6116 0.02 0.0
C1861 C 0.52482 0.58441 0.03084 0.0
H1862 H 0.55244 0.66048 0.01914 0.0
H1863 H 0.54265 0.61121 1.00549 0.0
S1864 S 0.50097 0.57581 0.08047 0.0
N1865 N 0.51447 0.61306 0.07578 0.0
N1866 N 0.50482 0.56029 0.06099 0.0
C1867 C 0.51777 0.58573 0.04964 0.0
C1868 C 0.52309 0.61431 0.05763 0.0
C1869 C 0.89768 0.35955 0.99727 0.0
C1870 C 0.88849 0.35697 0.97841 0.0
C1871 C 0.92163 0.388 1.0047 0.0
C1872 C 0.93758 0.41479 0.9935 0.0
H1873 H 0.88661 0.33931 1.00632 0.0
H1874 H 0.9281 0.38889 0.01922 0.0
S1875 S 0.92093 0.42173 0.94389 0.0
N1876 N 0.89588 0.38479 0.94915 0.0
N1877 N 0.94166 0.43775 0.96304 0.0
C1878 C 0.92859 0.41277 0.97475 0.0
C1879 C 0.90386 0.38401 0.96722 0.0
C1880 C 0.64242 0.5639 0.98206 0.0
C1881 C 0.64859 0.53896 0.98081 0.0
C1882 C 0.61234 0.5591 0.98796 0.0
C1883 C 0.58705 0.52916 0.99278 0.0
H1884 H 0.66092 0.58729 0.97827 0.0
H1885 H 0.60865 0.57901 0.98844 0.0
S1886 S 0.59045 0.45585 0.99046 0.0
N1887 N 0.62688 0.48323 0.98437 0.0
N1888 N 0.57004 0.47394 0.99476 0.0
C1889 C 0.59292 0.504 0.99148 0.0
C1890 C 0.62376 0.509 0.98573 0.0
C1891 C 0.45914 0.0959 0.98764 0.0
C1892 C 0.46633 0.10302 0.9686 0.0
C1893 C 0.46946 0.07779 0.99733 0.0
C1894 C 0.48706 0.06606 0.98825 0.0
H1895 H 0.44471 0.10368 0.99499 0.0
H1896 H 0.46263 0.07198 1.01179 0.0
S1897 S 0.51534 0.08056 0.93938 0.0
N1898 N 0.49487 0.0991 0.94166 0.0
N1899 N 0.51322 0.06424 0.9598 0.0
C1900 C 0.49522 0.07364 0.96948 0.0
C1901 C 0.48511 0.09232 0.95966 0.0
C1902 C 0.62083 0.1 0.98301 0.0
C1903 C 0.64648 0.09542 0.97788 0.0
C1904 C 0.59285 0.07576 0.99128 0.0
C1905 C 0.58994 0.0464 0.99486 0.0
H1906 H 0.62163 0.12176 0.97963 0.0
H1907 H 0.5728 0.07949 0.99389 0.0
S1908 S 0.65233 0.02449 0.98662 0.0
N1909 N 0.66857 0.06069 0.9788 0.0
N1910 N 0.61637 0.01542 0.99445 0.0
C1911 C 0.61637 0.04247 0.99096 0.0
C1912 C 0.64457 0.06693 0.98248 0.0
C1913 C 0.94043 0.56905 0.97973 0.0
C1914 C 0.90956 0.54355 0.97641 0.0
C1915 C 0.96482 0.56492 0.98762 0.0
C1916 C 0.95949 0.53511 0.99254 0.0
H1917 H 0.94607 0.59237 0.97563 0.0
H1918 H 0.98845 0.58524 0.98935 0.0
S1919 S 0.88284 0.4605 0.98653 0.0
N1920 N 0.8747 0.4874 0.97894 0.0
N1921 N 0.92081 0.47948 0.99324 0.0
C1922 C 0.92848 0.5094 0.98968 0.0
C1923 C 0.90344 0.51368 0.98181 0.0
C1924 C 0.43996 0.3589 0.9766 0.0
C1925 C 0.45803 0.34412 0.98 0.0
C1926 C 0.44977 0.38887 0.98354 0.0
C1927 C 0.47793 0.40519 0.9943 0.0
H1928 H 0.41797 0.3472 0.96856 0.0
H1929 H 0.43501 0.39919 0.98045 0.0
S1930 S 0.53452 0.37711 1.00641 0.0
N1931 N 0.50623 0.34857 0.99403 0.0
N1932 N 0.5239 0.40409 1.00772 0.0
C1933 C 0.49607 0.39048 0.99788 0.0
C1934 C 0.48634 0.3602 0.99057 0.0
C1935 C 0.10975 0.62463 0.05775 0.0
C1936 C 0.12357 0.65197 0.0468 0.0
C1937 C 0.08574 0.59602 0.05056 0.0
C1938 C 0.0749 0.59372 0.03216 0.0
H1939 H 0.11793 0.62524 0.07188 0.0
H1940 H 0.07615 0.5754 0.05931 0.0
S1941 S 0.10028 0.65856 0.99843 0.0
N1942 N 0.12255 0.67511 0.01704 0.0
N1943 N 0.07759 0.62119 1.00363 0.0
C1944 C 0.0878 0.62081 0.02122 0.0
C1945 C 0.11212 0.64998 0.02851 0.0
C1946 C 0.39186 0.48986 0.04041 0.0
C1947 C 0.36612 0.46067 0.04598 0.0
C1948 C 0.42017 0.49244 0.0327 0.0
C1949 C 0.42347 0.46586 0.03023 0.0
H1950 H 0.39084 0.51095 0.04301 0.0
H1951 H 0.44013 0.51547 0.02963 0.0
S1952 S 0.36144 0.38394 0.04034 0.0
N1953 N 0.34472 0.40464 0.04683 0.0
N1954 N 0.39746 0.40939 0.0324 0.0
C1955 C 0.39712 0.43653 0.03472 0.0
C1956 C 0.36855 0.43395 0.04253 0.0
C1957 C 0.5491 0.89879 0.03588 0.0
C1958 C 0.54309 0.89328 0.05512 0.0
C1959 C 0.54137 0.91894 0.02625 0.0
C1960 C 0.52762 0.93436 0.03561 0.0
H1961 H 0.56059 0.88806 0.02831 0.0
H1962 H 0.54712 0.92325 1.01159 0.0
S1963 S 0.50295 0.92471 0.08515 0.0
N1964 N 0.51941 0.9025 0.08261 0.0
N1965 N 0.50555 0.94074 0.06457 0.0
C1966 C 0.52044 0.92824 0.05461 0.0
C1967 C 0.52801 0.90761 0.06436 0.0
C1968 C 0.05312 0.22433 0.37882 0.0
C1969 C 0.03223 0.23573 0.3831 0.0
C1970 C 0.08378 0.24403 0.37138 0.0
C1971 C 0.09421 0.27551 0.36738 0.0
H1972 H 0.04647 0.20049 0.38225 0.0
H1973 H 0.09997 0.23494 0.36947 0.0
S1974 S 0.04779 0.31613 0.37437 0.0
N1975 N 0.02342 0.28007 0.38162 0.0
N1976 N 0.08099 0.31693 0.36743 0.0
C1977 C 0.07303 0.28681 0.37068 0.0
C1978 C 0.04199 0.26692 0.37852 0.0
C1979 C 0.7771 0.82494 0.37375 0.0
C1980 C 0.77339 0.79594 0.37931 0.0
C1981 C 0.75063 0.82755 0.36759 0.0
C1982 C 0.71966 0.80112 0.36635 0.0
H1983 H 0.80044 0.84588 0.37468 0.0
H1984 H 0.75436 0.85045 0.3641 0.0
S1985 S 0.6977 0.71966 0.37789 0.0
N1986 N 0.73659 0.74021 0.38235 0.0
N1987 N 0.68721 0.74501 0.37056 0.0
C1988 C 0.71589 0.77201 0.37149 0.0
C1989 C 0.74265 0.76941 0.37791 0.0
C1990 C 0.20796 0.95988 0.38454 0.0
C1991 C 0.22663 0.98725 0.37414 0.0
C1992 C 0.20002 0.93056 0.37741 0.0
C1993 C 0.2104 0.92762 0.35966 0.0
H1994 H 0.19901 0.96111 0.39818 0.0
H1995 H 0.18534 0.90997 0.38577 0.0
S1996 S 0.2625 0.99196 0.32769 0.0
N1997 N 0.25699 0.00961 0.34567 0.0
N1998 N 0.24216 0.95419 0.33242 0.0
C1999 C 0.22961 0.95463 0.34926 0.0
C2000 C 0.23769 0.98458 0.35648 0.0
C2001 C 0.54723 0.7021 0.32207 0.0
C2002 C 0.55561 0.68353 0.31126 0.0
C2003 C 0.57075 0.73094 0.32922 0.0
C2004 C 0.60373 0.74262 0.32583 0.0
H2005 H 0.52221 0.69459 0.32477 0.0
H2006 H 0.56278 0.74434 0.33724 0.0
S2007 S 0.63851 0.70181 0.29948 0.0
N2008 N 0.59932 0.67786 0.2985 0.0
N2009 N 0.64345 0.73238 0.31147 0.0
C2010 C 0.61247 0.72403 0.31524 0.0
C2011 C 0.58847 0.69448 0.30808 0.0
C2012 C 0.29003 0.83206 0.31839 0.0
C2013 C 0.31302 0.86313 0.31393 0.0
C2014 C 0.25878 0.824 0.32406 0.0
C2015 C 0.24969 0.84684 0.32617 0.0
H2016 H 0.29584 0.81363 0.31674 0.0
H2017 H 0.24136 0.79961 0.32644 0.0
S2018 S 0.30107 0.93161 0.31721 0.0
N2019 N 0.3246 0.91693 0.31256 0.0
N2020 N 0.26614 0.90178 0.32362 0.0
C2021 C 0.27264 0.87806 0.32232 0.0
C2022 C 0.30426 0.88621 0.31618 0.0
C2023 C 0.09776 0.39801 0.31036 0.0
C2024 C 0.11707 0.4307 0.31095 0.0
C2025 C 0.10693 0.37863 0.31954 0.0
C2026 C 0.13576 0.39107 0.32979 0.0
H2027 H 0.07545 0.38726 0.30258 0.0
H2028 H 0.09139 0.35364 0.31832 0.0
S2029 S 0.19499 0.47536 0.33566 0.0
N2030 N 0.16647 0.4748 0.32257 0.0
N2031 N 0.18344 0.43842 0.34003 0.0
C2032 C 0.15491 0.42378 0.33088 0.0
C2033 C 0.14566 0.44356 0.32142 0.0
C2034 C 0.30525 0.39467 0.31247 0.0
C2035 C 0.31023 0.42481 0.30916 0.0
C2036 C 0.27697 0.37162 0.3209 0.0
C2037 C 0.25244 0.37771 0.32625 0.0
H2038 H 0.32297 0.38859 0.30796 0.0
H2039 H 0.27365 0.34838 0.32252 0.0
S2040 S 0.25395 0.45306 0.32076 0.0
N2041 N 0.28894 0.45997 0.31242 0.0
N2042 N 0.23509 0.41624 0.32766 0.0
C2043 C 0.25749 0.40804 0.32355 0.0
C2044 C 0.28661 0.43171 0.31519 0.0
C2045 C 0.60892 0.90112 0.31143 0.0
C2046 C 0.57754 0.87632 0.30833 0.0
C2047 C 0.63286 0.8959 0.31894 0.0
C2048 C 0.62653 0.86567 0.32366 0.0
H2049 H 0.61527 0.92469 0.3075 0.0
H2050 H 0.65688 0.91568 0.32058 0.0
S2051 S 0.54828 0.79263 0.31779 0.0
N2052 N 0.5412 0.82046 0.3107 0.0
N2053 N 0.58642 0.81044 0.32415 0.0
C2054 C 0.59506 0.84069 0.3209 0.0
C2055 C 0.5705 0.8461 0.31347 0.0
C2056 C 0.14819 0.6973 0.32824 0.0
C2057 C 0.11909 0.67874 0.31878 0.0
C2058 C 0.15622 0.72685 0.33506 0.0
C2059 C 0.13543 0.739 0.33271 0.0
H2060 H 0.16539 0.68934 0.32988 0.0
H2061 H 0.17942 0.74065 0.34165 0.0
S2062 S 0.05467 0.69811 0.31077 0.0
N2063 N 0.06825 0.67342 0.30873 0.0
N2064 N 0.08333 0.72907 0.32147 0.0
C2065 C 0.10572 0.7202 0.32385 0.0
C2066 C 0.09756 0.69007 0.3169 0.0
C2067 C 0.77978 0.97579 0.36228 0.0
C2068 C 0.78791 0.9782 0.38133 0.0
C2069 C 0.75679 0.94727 0.35445 0.0
C2070 C 0.74081 0.92023 0.36541 0.0
H2071 H 0.79097 0.99619 0.35337 0.0
H2072 H 0.75107 0.94652 0.33982 0.0
S2073 S 0.75422 0.91291 0.41549 0.0
N2074 N 0.77904 0.95008 0.41062 0.0
N2075 N 0.73507 0.89691 0.3959 0.0
C2076 C 0.74855 0.92209 0.38436 0.0
C2077 C 0.77228 0.95096 0.39232 0.0
C2078 C 0.05515 0.83113 0.37751 0.0
C2079 C 0.03369 0.79951 0.38164 0.0
C2080 C 0.08601 0.84083 0.37032 0.0
C2081 C 0.09621 0.8192 0.36645 0.0
H2082 H 0.04873 0.84871 0.38084 0.0
H2083 H 0.10247 0.86558 0.36837 0.0
S2084 S 0.04833 0.73351 0.37327 0.0
N2085 N 0.02427 0.74643 0.38029 0.0
N2086 N 0.08195 0.76466 0.36654 0.0
C2087 C 0.07447 0.7874 0.36966 0.0
C2088 C 0.04327 0.77757 0.37724 0.0
C2089 C 0.24464 0.26523 0.38137 0.0
C2090 C 0.22359 0.23286 0.38272 0.0
C2091 C 0.23527 0.28466 0.3725 0.0
C2092 C 0.20448 0.27248 0.36461 0.0
H2093 H 0.2685 0.27567 0.38736 0.0
H2094 H 0.25221 0.30951 0.37206 0.0
S2095 S 0.14003 0.18933 0.3648 0.0
N2096 N 0.17045 0.18942 0.37559 0.0
N2097 N 0.15283 0.22599 0.35889 0.0
C2098 C 0.18337 0.24006 0.36554 0.0
C2099 C 0.19292 0.22024 0.37461 0.0
C2100 C 0.72341 0.56646 0.71014 0.0
C2101 C 0.69808 0.57149 0.71537 0.0
C2102 C 0.75162 0.59054 0.70198 0.0
C2103 C 0.755 0.62013 0.69861 0.0
H2104 H 0.72206 0.54437 0.71325 0.0
H2105 H 0.77137 0.58645 0.69916 0.0
S2106 S 0.69369 0.64334 0.70726 0.0
N2107 N 0.6769 0.60698 0.71487 0.0
N2108 N 0.7295 0.65195 0.6994 0.0
C2109 C 0.72899 0.6246 0.70271 0.0
C2110 C 0.70058 0.60033 0.71109 0.0
C2111 C 0.44516 0.15757 0.70415 0.0
C2112 C 0.44159 0.12889 0.71029 0.0
C2113 C 0.41847 0.15989 0.69809 0.0
C2114 C 0.38742 0.13351 0.69746 0.0
H2115 H 0.46854 0.17852 0.7046 0.0
H2116 H 0.42204 0.18255 0.69418 0.0
S2117 S 0.36559 0.05281 0.71088 0.0
N2118 N 0.40469 0.07344 0.71466 0.0
N2119 N 0.35493 0.07779 0.70307 0.0
C2120 C 0.38374 0.10471 0.70323 0.0
C2121 C 0.41072 0.10237 0.70955 0.0
C2122 C 0.83967 0.29126 0.70619 0.0
C2123 C 0.86819 0.31134 0.71576 0.0
C2124 C 0.83501 0.26344 0.69822 0.0
C2125 C 0.85866 0.2546 0.69956 0.0
H2126 H 0.82056 0.2968 0.70513 0.0
H2127 H 0.81239 0.24851 0.69127 0.0
S2128 S 0.9389 0.30064 0.72163 0.0
N2129 N 0.92137 0.32172 0.72496 0.0
N2130 N 0.91243 0.26922 0.71029 0.0
C2131 C 0.88756 0.27482 0.70878 0.0
C2132 C 0.89237 0.30323 0.71679 0.0
C2133 C 0.22895 0.01931 0.66265 0.0
C2134 C 0.21949 0.01609 0.64381 0.0
C2135 C 0.25279 0.04811 0.66978 0.0
C2136 C 0.26814 0.07457 0.6583 0.0
H2137 H 0.21831 0.99929 0.67188 0.0
H2138 H 0.25979 0.04945 0.68422 0.0
S2139 S 0.25075 0.07971 0.6086 0.0
N2140 N 0.22607 0.04287 0.61425 0.0
N2141 N 0.27161 0.0965 0.6276 0.0
C2142 C 0.25881 0.07191 0.63959 0.0
C2143 C 0.23428 0.04281 0.63236 0.0
C2144 C 0.95523 0.17738 0.65457 0.0
C2145 C 0.98109 0.20642 0.64889 0.0
C2146 C 0.92578 0.17446 0.6604 0.0
C2147 C 0.92131 0.20056 0.66113 0.0
H2148 H 0.95733 0.15656 0.65382 0.0
H2149 H 0.90615 0.15151 0.6638 0.0
S2150 S 0.98261 0.28223 0.64977 0.0
N2151 N 1.00092 0.26204 0.64573 0.0
N2152 N 0.94604 0.25661 0.65686 0.0
C2153 C 0.94743 0.22982 0.65622 0.0
C2154 C 0.97719 0.23275 0.65014 0.0
C2155 C 0.82212 0.78004 0.64761 0.0
C2156 C 0.79366 0.76873 0.63714 0.0
C2157 C 0.82902 0.75963 0.65759 0.0
C2158 C 0.80793 0.72713 0.65725 0.0
H2159 H 0.83959 0.80476 0.64774 0.0
H2160 H 0.85148 0.76938 0.66515 0.0
S2161 S 0.72778 0.68639 0.63444 0.0
N2162 N 0.74245 0.72351 0.62898 0.0
N2163 N 0.75566 0.68515 0.64723 0.0
C2164 C 0.77869 0.71578 0.64755 0.0
C2165 C 0.77154 0.73655 0.63759 0.0
C2166 C 0.97048 0.72658 0.64802 0.0
C2167 C 0.9755 0.75649 0.64385 0.0
C2168 C 0.94168 0.70375 0.65608 0.0
C2169 C 0.91665 0.70981 0.66021 0.0
H2170 H 0.98855 0.72046 0.64441 0.0
H2171 H 0.9384 0.68064 0.65837 0.0
S2172 S 0.91831 0.78486 0.65233 0.0
N2173 N 0.95388 0.79159 0.64516 0.0
N2174 N 0.89915 0.74827 0.65964 0.0
C2175 C 0.92183 0.74002 0.65672 0.0
C2176 C 0.95146 0.76348 0.64875 0.0
C2177 C 0.26936 0.22167 0.6438 0.0
C2178 C 0.2368 0.19906 0.64101 0.0
C2179 C 0.29177 0.21335 0.65025 0.0
C2180 C 0.28249 0.18212 0.65431 0.0
H2181 H 0.27783 0.24588 0.64028 0.0
H2182 H 0.31683 0.23129 0.65129 0.0
S2183 S 0.20057 0.11391 0.64915 0.0
N2184 N 0.19654 0.14405 0.64304 0.0
N2185 N 0.23881 0.12844 0.65466 0.0
C2186 C 0.25003 0.15937 0.65183 0.0
C2187 C 0.2271 0.16786 0.6455 0.0
C2188 C 0.78414 0.03221 0.64314 0.0
C2189 C 0.80651 0.02178 0.64427 0.0
C2190 C 0.79104 0.06109 0.6506 0.0
C2191 C 0.82052 0.08053 0.65951 0.0
H2192 H 0.76099 0.0178 0.63659 0.0
H2193 H 0.77298 0.06805 0.64952 0.0
S2194 S 0.88828 0.06498 0.66469 0.0
N2195 N 0.85999 0.03381 0.65396 0.0
N2196 N 0.87292 0.08791 0.66814 0.0
C2197 C 0.84324 0.07047 0.66053 0.0
C2198 C 0.83624 0.04114 0.65288 0.0
C2199 C 0.42185 0.3045 0.70754 0.0
C2200 C 0.45466 0.3135 0.70782 0.0
C2201 C 0.39882 0.27567 0.70001 0.0
C2202 C 0.40778 0.25485 0.69244 0.0
H2203 H 0.41396 0.31991 0.71314 0.0
H2204 H 0.37381 0.26966 0.70012 0.0
S2205 S 0.49018 0.26594 0.6919 0.0
N2206 N 0.49464 0.29845 0.70113 0.0
N2207 N 0.45153 0.24435 0.68712 0.0
C2208 C 0.44048 0.26344 0.69292 0.0
C2209 C 0.46387 0.29273 0.70057 0.0
C2210 C 0.7235 0.15475 0.70834 0.0
C2211 C 0.69851 0.12494 0.71365 0.0
C2212 C 0.75248 0.15881 0.70069 0.0
C2213 C 0.75723 0.13313 0.6979 0.0
H2214 H 0.72136 0.17519 0.71108 0.0
H2215 H 0.7718 0.18228 0.69787 0.0
S2216 S 0.69759 0.05006 0.70713 0.0
N2217 N 0.67939 0.06928 0.71387 0.0
N2218 N 0.7333 0.07679 0.69947 0.0
C2219 C 0.73162 0.10319 0.7021 0.0
C2220 C 0.7024 0.09911 0.70992 0.0
C2221 C 0.86018 0.57612 0.73107 0.0
C2222 C 0.87614 0.56218 0.72237 0.0
C2223 C 0.85176 0.59533 0.72106 0.0
C2224 C 0.85871 0.60104 0.70199 0.0
H2225 H 0.85393 0.57196 0.74569 0.0
H2226 H 0.83961 0.60574 0.72829 0.0
S2227 S 0.90265 0.57272 0.67304 0.0
N2228 N 0.90028 0.55709 0.69374 0.0
N2229 N 0.88417 0.59321 0.67503 0.0
C2230 C 0.87488 0.58765 0.69313 0.0
C2231 C 0.88365 0.56818 0.7033 0.0
C2232 C 0.4673 0.96191 0.16014 0.0
C2233 C 0.48863 0.96998 0.17536 0.0
C2234 C 0.47723 0.97768 0.14292 0.0
C2235 C 0.50887 0.0024 0.1402 0.0
H2236 H 0.44262 0.9433 0.16157 0.0
H2237 H 0.45971 0.97108 0.13184 0.0
S2238 S 0.5746 0.03205 0.17516 0.0
N2239 N 0.54319 0.00431 0.18625 0.0
N2240 N 0.56194 0.03298 0.15393 0.0
C2241 C 0.53063 0.01012 0.15511 0.0
C2242 C 0.52054 0.99419 0.17262 0.0
C2243 C 1.00054 0.52833 0.17221 0.0
C2244 C 0.02592 0.52276 0.17633 0.0
C2245 C 0.98506 0.52037 0.1549 0.0
C2246 C 0.99418 0.5064 0.14093 0.0
H2247 H 0.99229 0.53871 0.18253 0.0
H2248 H 0.96586 0.52544 0.15242 0.0
S2249 S 0.05923 0.48675 0.14458 0.0
N2250 N 0.05987 0.50281 0.16485 0.0
N2251 N 0.03002 0.48686 0.13249 0.0
C2252 C 0.0195 0.50061 0.14483 0.0
C2253 C 0.03543 0.50889 0.16249 0.0
C2254 C 0.52396 0.52706 0.17002 0.0
C2255 C 0.49215 0.52011 0.17329 0.0
C2256 C 0.53281 0.51894 0.15327 0.0
C2257 C 0.5103 0.50354 0.13899 0.0
H2258 H 0.54222 0.53869 0.1806 0.0
H2259 H 0.55766 0.52497 0.15146 0.0
S2260 S 0.42386 0.48008 0.14043 0.0
N2261 N 0.43806 0.4972 0.16071 0.0
N2262 N 0.45459 0.4814 0.12928 0.0
C2263 C 0.47838 0.49647 0.142 0.0
C2264 C 0.46931 0.50474 0.15915 0.0
C2265 C 0.97663 0.49288 0.86585 0.0
C2266 C 0.98369 0.47705 0.85202 0.0
C2267 C 0.994 0.50207 0.88259 0.0
C2268 C 0.0192 0.49593 0.88609 0.0
H2269 H 0.95723 0.49781 0.86383 0.0
H2270 H 0.98779 0.51428 0.89283 0.0
S2271 S 0.04754 0.45561 0.85423 0.0
N2272 N 0.01825 0.45649 0.84271 0.0
N2273 N 0.05005 0.47273 0.87438 0.0
C2274 C 0.02656 0.48024 0.87234 0.0
C2275 C 0.009 0.47102 0.85528 0.0
C2276 C 0.47987 0.46634 0.85224 0.0
C2277 C 0.51135 0.4726 0.84856 0.0
C2278 C 0.47173 0.47427 0.86931 0.0
C2279 C 0.49466 0.48885 0.88352 0.0
H2280 H 0.46134 0.45551 0.84173 0.0
H2281 H 0.44712 0.46881 0.8714 0.0
S2282 S 0.58047 0.51015 0.88112 0.0
N2283 N 0.56552 0.49375 0.86077 0.0
N2284 N 0.5504 0.50943 0.89271 0.0
C2285 C 0.52624 0.49517 0.88011 0.0
C2286 C 0.53455 0.487 0.86267 0.0
C2287 C 0.53874 0.04367 0.86273 0.0
C2288 C 0.51501 0.03447 0.84878 0.0
C2289 C 0.53224 0.02762 0.8799 0.0
C2290 C 0.50188 0.00146 0.8837 0.0
H2291 H 0.56246 0.06354 0.86041 0.0
H2292 H 0.55133 0.03527 0.89009 0.0
S2293 S 0.43141 0.96792 0.85199 0.0
N2294 N 0.45993 0.99726 0.84009 0.0
N2295 N 0.44769 0.96778 0.87221 0.0
C2296 C 0.47794 0.9923 0.86994 0.0
C2297 C 0.4845 0.00857 0.85256 0.0
C2298 C 0.18501 0.32724 0.50755 0.0
C2299 C 0.1533 0.3025 0.50995 0.0
C2300 C 0.19533 0.3436 0.4906 0.0
C2301 C 0.17453 0.33592 0.47518 0.0
H2302 H 0.20183 0.33464 0.51905 0.0
H2303 H 0.21988 0.36267 0.48963 0.0
S2304 S 0.08955 0.27185 0.47373 0.0
N2305 N 0.10161 0.27001 0.495 0.0
N2306 N 0.12076 0.30114 0.46338 0.0
C2307 C 0.14299 0.31068 0.47721 0.0
C2308 C 0.13244 0.29399 0.4945 0.0
C2309 C 0.6684 0.86298 0.5025 0.0
C2310 C 0.69426 0.85783 0.50593 0.0
C2311 C 0.65151 0.85411 0.48564 0.0
C2312 C 0.65973 0.83968 0.47149 0.0
H2313 H 0.66094 0.87377 0.513 0.0
H2314 H 0.63205 0.85894 0.4836 0.0
S2315 S 0.72535 0.82061 0.47353 0.0
N2316 N 0.72756 0.83767 0.49366 0.0
N2317 N 0.69501 0.81988 0.46224 0.0
C2318 C 0.6854 0.83415 0.47478 0.0
C2319 C 0.70277 0.84339 0.49193 0.0
C2320 C 0.17098 0.86479 0.49433 0.0
C2321 C 0.15924 0.84316 0.50914 0.0
C2322 C 0.1793 0.85729 0.47714 0.0
C2323 C 0.17628 0.82782 0.47398 0.0
H2324 H 0.17419 0.88795 0.49611 0.0
H2325 H 0.18916 0.87512 0.46644 0.0
S2326 S 0.14472 0.76198 0.50766 0.0
N2327 N 0.14405 0.79053 0.51921 0.0
N2328 N 0.15859 0.7761 0.48673 0.0
C2329 C 0.16347 0.80556 0.48842 0.0
C2330 C 0.15514 0.81326 0.50599 0.0
C2331 C 0.67937 0.80402 0.18702 0.0
C2332 C 0.65378 0.80941 0.1832 0.0
C2333 C 0.69536 0.81222 0.20417 0.0
C2334 C 0.68651 0.82623 0.21826 0.0
H2335 H 0.68728 0.79348 0.1766 0.0
H2336 H 0.71462 0.80718 0.20648 0.0
S2337 S 0.62132 0.84579 0.21529 0.0
N2338 N 0.62007 0.8294 0.19505 0.0
N2339 N 0.65097 0.84595 0.22706 0.0
C2340 C 0.66113 0.83204 0.21461 0.0
C2341 C 0.64467 0.82347 0.19714 0.0
C2342 C 0.15259 0.81531 0.18578 0.0
C2343 C 0.18373 0.82017 0.18278 0.0
C2344 C 0.14388 0.82285 0.20279 0.0
C2345 C 0.16585 0.83542 0.21763 0.0
H2346 H 0.13471 0.80556 0.17484 0.0
H2347 H 0.11949 0.81833 0.20443 0.0
S2348 S 0.25064 0.8532 0.21691 0.0
N2349 N 0.23676 0.8386 0.19606 0.0
N2350 N 0.22048 0.8531 0.22804 0.0
C2351 C 0.19719 0.84066 0.21481 0.0
C2352 C 0.20614 0.83309 0.19738 0.0
C2353 C 0.22642 0.40263 0.19786 0.0
C2354 C 0.19883 0.38922 0.18649 0.0
C2355 C 0.22598 0.39124 0.21586 0.0
C2356 C 0.1979 0.36601 0.22339 0.0
H2357 H 0.24873 0.42197 0.19274 0.0
H2358 H 0.24806 0.40192 0.22386 0.0
S2359 S 0.1192 0.32226 0.19953 0.0
N2360 N 0.14251 0.349 0.18422 0.0
N2361 N 0.14175 0.32802 0.21812 0.0
C2362 C 0.16992 0.35288 0.21244 0.0
C2363 C 0.17037 0.36435 0.19401 0.0
C2364 C 0.82076 0.66389 0.83824 0.0
C2365 C 0.82116 0.63608 0.84197 0.0
C2366 C 0.83136 0.6795 0.8211 0.0
C2367 C 0.8425 0.66785 0.80677 0.0
H2368 H 0.81274 0.67407 0.84882 0.0
H2369 H 0.83089 0.70101 0.81906 0.0
S2370 S 0.84748 0.59532 0.80909 0.0
N2371 N 0.83295 0.59709 0.82961 0.0
N2372 N 0.85284 0.62641 0.79742 0.0
C2373 C 0.8425 0.63975 0.81015 0.0
C2374 C 0.83197 0.62397 0.82772 0.0
C2375 C 0.36845 0.20699 0.82379 0.0
C2376 C 0.35741 0.18497 0.83836 0.0
C2377 C 0.35326 0.19974 0.80636 0.0
C2378 C 0.32628 0.17027 0.80288 0.0
H2379 H 0.38884 0.23015 0.82594 0.0
H2380 H 0.36217 0.21765 0.79569 0.0
S2381 S 0.28867 0.1039 0.83605 0.0
N2382 N 0.31827 0.13219 0.84798 0.0
N2383 N 0.2901 0.11841 0.81512 0.0
C2384 C 0.31547 0.14778 0.81716 0.0
C2385 C 0.33097 0.15513 0.8349 0.0
C2386 C 0.82515 0.1615 0.83868 0.0
C2387 C 0.82614 0.1902 0.84125 0.0
C2388 C 0.83443 0.15422 0.82171 0.0
C2389 C 0.84486 0.17523 0.80658 0.0
H2390 H 0.81828 0.14501 0.85008 0.0
H2391 H 0.83388 0.13209 0.82052 0.0
S2392 S 0.84961 0.25258 0.80574 0.0
N2393 N 0.83634 0.23888 0.82683 0.0
N2394 N 0.85443 0.22554 0.79516 0.0
C2395 C 0.84482 0.20352 0.80877 0.0
C2396 C 0.83537 0.21093 0.82603 0.0
C2397 C 0.35792 0.14721 0.51726 0.0
C2398 C 0.33168 0.15152 0.51326 0.0
C2399 C 0.37391 0.15623 0.53439 0.0
C2400 C 0.36445 0.17007 0.54828 0.0
H2401 H 0.36637 0.13692 0.50699 0.0
H2402 H 0.39364 0.15194 0.53685 0.0
S2403 S 0.29735 0.18686 0.5448 0.0
N2404 N 0.29665 0.17022 0.52475 0.0
N2405 N 0.32756 0.18838 0.55669 0.0
C2406 C 0.3384 0.17478 0.54444 0.0
C2407 C 0.32191 0.16534 0.527 0.0
C2408 C 0.8653 0.16301 0.53015 0.0
C2409 C 0.84202 0.14893 0.51605 0.0
C2410 C 0.85751 0.1708 0.5475 0.0
C2411 C 0.82625 0.16514 0.5513 0.0
H2412 H 0.88958 0.16759 0.52787 0.0
H2413 H 0.8762 0.18172 0.55792 0.0
S2414 S 0.75668 0.1291 0.51898 0.0
N2415 N 0.78659 0.1303 0.50698 0.0
N2416 N 0.77185 0.14416 0.53953 0.0
C2417 C 0.80285 0.15113 0.53728 0.0
C2418 C 0.81074 0.14325 0.51969 0.0
C2419 C 0.83762 0.7091 0.53176 0.0
C2420 C 0.84962 0.69965 0.51668 0.0
C2421 C 0.82964 0.69302 0.5489 0.0
C2422 C 0.83306 0.6666 0.55167 0.0
H2423 H 0.83386 0.72887 0.53023 0.0
H2424 H 0.81957 0.70065 0.55981 0.0
S2425 S 0.86544 0.63333 0.51725 0.0
N2426 N 0.86568 0.6627 0.50611 0.0
N2427 N 0.85145 0.63309 0.53827 0.0
C2428 C 0.8462 0.65764 0.53698 0.0
C2429 C 0.85433 0.674 0.51955 0.0
loop_
_geom_bond_atom_site_label_1
_geom_bond_atom_site_label_2
_geom_bond_distance
_geom_bond_site_symmetry_2
_ccdc_geom_bond_type
C0 C1 1.391 . S
C0 C4 1.391 . S
C0 H42 0.948 . S
C1 C0 1.391 . S
C1 C2 1.391 . S
C2 C1 1.391 . S
C2 H58 0.947 . S
C2 C59 1.392 . S
C3 C4 1.391 . S
C3 C7 1.397 . S
C3 C59 1.419 . S
C4 C0 1.391 . S
C4 C3 1.391 . S
C4 C5 1.399 . S
C5 C4 1.399 . S
C5 C8 1.396 . S
C5 C17 1.453 . S
C5 C18 1.684 . S
H6 C30 0.948 . S
C7 C3 1.397 . S
C7 C8 1.394 . S
C7 C26 1.723 . S
C8 C5 1.396 . S
C8 C7 1.394 . S
C8 C38 1.723 . S
H9 C32 0.947 . S
H10 C33 0.948 . S
H11 C39 0.982 . S
H12 C40 0.979 . S
H13 C40 0.980 . S
H14 C40 0.983 . S
H15 C39 0.979 . S
H16 C39 0.977 . S
C17 C5 1.453 . S
C17 H46 0.982 . S
C17 H47 0.979 . S
C17 H48 0.977 . S
C18 C5 1.684 . S
C18 H43 0.979 . S
C18 H44 0.980 . S
C18 H45 0.983 . S
C19 C20 1.391 . S
C19 C24 1.391 . S
C19 H49 0.948 . S
C20 C19 1.391 . S
C20 C21 1.391 . S
C21 C20 1.391 . S
C21 C22 1.392 . S
C21 H50 0.947 . S
C22 C21 1.392 . S
C22 C23 1.419 . S
C22 H51 0.948 . S
C23 C22 1.419 . S
C23 C24 1.391 . S
C23 C27 1.397 . S
C24 C19 1.391 . S
C24 C23 1.391 . S
C24 C25 1.399 . S
C25 C24 1.399 . S
C25 C26 1.396 . S
C25 C28 1.453 . S
C25 C29 1.684 . S
C26 C7 1.723 . S
C26 C25 1.396 . S
C26 C27 1.394 . S
C27 C23 1.397 . S
C27 C26 1.394 . S
C27 C37 1.723 . S
C28 C25 1.453 . S
C28 H52 0.982 . S
C28 H53 0.979 . S
C28 H54 0.977 . S
C29 C25 1.684 . S
C29 H55 0.979 . S
C29 H56 0.980 . S
C29 H57 0.983 . S
C30 H6 0.948 . S
C30 C31 1.391 . S
C30 C35 1.391 . S
C31 C30 1.391 . S
C31 C32 1.391 . S
C32 H9 0.947 . S
C32 C31 1.391 . S
C32 C33 1.392 . S
C33 H10 0.948 . S
C33 C32 1.392 . S
C33 C34 1.419 . S
C34 C33 1.419 . S
C34 C35 1.391 . S
C34 C38 1.397 . S
C35 C30 1.391 . S
C35 C34 1.391 . S
C35 C36 1.399 . S
C36 C35 1.399 . S
C36 C37 1.396 . S
C36 C39 1.453 . S
C36 C40 1.684 . S
C37 C27 1.723 . S
C37 C36 1.396 . S
C37 C38 1.394 . S
C38 C8 1.723 . S
C38 C34 1.397 . S
C38 C37 1.394 . S
C39 H11 0.982 . S
C39 H15 0.979 . S
C39 H16 0.977 . S
C39 C36 1.453 . S
C40 H12 0.979 . S
C40 H13 0.980 . S
C40 H14 0.983 . S
C40 C36 1.684 . S
H41 C59 0.948 . S
H42 C0 0.948 . S
H43 C18 0.979 . S
H44 C18 0.980 . S
H45 C18 0.983 . S
H46 C17 0.982 . S
H47 C17 0.979 . S
H48 C17 0.977 . S
H49 C19 0.948 . S
H50 C21 0.947 . S
H51 C22 0.948 . S
H52 C28 0.982 . S
H53 C28 0.979 . S
H54 C28 0.977 . S
H55 C29 0.979 . S
H56 C29 0.980 . S
H57 C29 0.983 . S
H58 C2 0.947 . S
C59 C2 1.392 . S
C59 C3 1.419 . S
C59 H41 0.948 . S
C60 C61 1.391 . S
C60 C64 1.391 . S
C60 H102 0.948 . S
C61 C60 1.391 . S
C61 C62 1.391 . S
C62 C61 1.391 . S
C62 H118 0.947 1_655 S
C62 C119 1.392 . S
C63 C64 1.391 . S
C63 C67 1.397 . S
C63 C119 1.419 . S
C64 C60 1.391 . S
C64 C63 1.391 . S
C64 C65 1.399 . S
C65 C64 1.399 . S
C65 C68 1.396 . S
C65 C77 1.453 . S
C65 C78 1.684 . S
H66 C90 0.948 . S
C67 C63 1.397 . S
C67 C68 1.394 . S
C67 C86 1.723 . S
C68 C65 1.396 . S
C68 C67 1.394 . S
C68 C98 1.723 . S
H69 C92 0.947 . S
H70 C93 0.948 . S
H71 C99 0.982 . S
H72 C100 0.979 . S
H73 C100 0.980 . S
H74 C100 0.983 . S
H75 C99 0.979 . S
H76 C99 0.977 . S
C77 C65 1.453 . S
C77 H106 0.982 . S
C77 H107 0.979 . S
C77 H108 0.977 . S
C78 C65 1.684 . S
C78 H103 0.979 . S
C78 H104 0.980 . S
C78 H105 0.983 . S
C79 C80 1.391 . S
C79 C84 1.391 . S
C79 H109 0.948 . S
C80 C79 1.391 . S
C80 C81 1.391 . S
C81 C80 1.391 . S
C81 C82 1.392 . S
C81 H110 0.947 . S
C82 C81 1.392 . S
C82 C83 1.419 . S
C82 H111 0.948 . S
C83 C82 1.419 . S
C83 C84 1.391 . S
C83 C87 1.397 . S
C84 C79 1.391 . S
C84 C83 1.391 . S
C84 C85 1.399 . S
C85 C84 1.399 . S
C85 C86 1.396 . S
C85 C88 1.453 . S
C85 C89 1.684 . S
C86 C67 1.723 . S
C86 C85 1.396 . S
C86 C87 1.394 . S
C87 C83 1.397 . S
C87 C86 1.394 . S
C87 C97 1.723 . S
C88 C85 1.453 . S
C88 H112 0.982 . S
C88 H113 0.979 . S
C88 H114 0.977 . S
C89 C85 1.684 . S
C89 H115 0.979 . S
C89 H116 0.980 . S
C89 H117 0.983 . S
C90 H66 0.948 . S
C90 C91 1.391 . S
C90 C95 1.391 . S
C91 C90 1.391 . S
C91 C92 1.391 . S
C92 H69 0.947 . S
C92 C91 1.391 . S
C92 C93 1.392 . S
C93 H70 0.948 . S
C93 C92 1.392 . S
C93 C94 1.419 . S
C94 C93 1.419 . S
C94 C95 1.391 . S
C94 C98 1.397 . S
C95 C90 1.391 . S
C95 C94 1.391 . S
C95 C96 1.399 . S
C96 C95 1.399 . S
C96 C97 1.396 . S
C96 C99 1.453 . S
C96 C100 1.684 . S
C97 C87 1.723 . S
C97 C96 1.396 . S
C97 C98 1.394 . S
C98 C68 1.723 . S
C98 C94 1.397 . S
C98 C97 1.394 . S
C99 H71 0.982 . S
C99 H75 0.979 . S
C99 H76 0.977 . S
C99 C96 1.453 . S
C100 H72 0.979 . S
C100 H73 0.980 . S
C100 H74 0.983 . S
C100 C96 1.684 . S
H101 C119 0.948 . S
H102 C60 0.948 . S
H103 C78 0.979 . S
H104 C78 0.980 . S
H105 C78 0.983 . S
H106 C77 0.982 . S
H107 C77 0.979 . S
H108 C77 0.977 . S
H109 C79 0.948 . S
H110 C81 0.947 . S
H111 C82 0.948 . S
H112 C88 0.982 . S
H113 C88 0.979 . S
H114 C88 0.977 . S
H115 C89 0.979 . S
H116 C89 0.980 . S
H117 C89 0.983 . S
H118 C62 0.947 1_455 S
C119 C62 1.392 . S
C119 C63 1.419 . S
C119 H101 0.948 . S
C120 C121 1.391 . S
C120 C124 1.391 . S
C120 H162 0.948 . S
C121 C120 1.391 . S
C121 C122 1.391 . S
C122 C121 1.391 . S
C122 H178 0.947 1_655 S
C122 C179 1.392 . S
C123 C124 1.391 . S
C123 C127 1.397 . S
C123 C179 1.419 . S
C124 C120 1.391 . S
C124 C123 1.391 . S
C124 C125 1.399 . S
C125 C124 1.399 . S
C125 C128 1.396 . S
C125 C137 1.453 . S
C125 C138 1.684 . S
H126 C150 0.948 . S
C127 C123 1.397 . S
C127 C128 1.394 . S
C127 C146 1.723 . S
C128 C125 1.396 . S
C128 C127 1.394 . S
C128 C158 1.723 . S
H129 C152 0.947 . S
H130 C153 0.948 . S
H131 C159 0.982 . S
H132 C160 0.979 . S
H133 C160 0.980 . S
H134 C160 0.983 . S
H135 C159 0.979 . S
H136 C159 0.977 . S
C137 C125 1.453 . S
C137 H166 0.982 . S
C137 H167 0.979 . S
C137 H168 0.977 . S
C138 C125 1.684 . S
C138 H163 0.979 . S
C138 H164 0.980 . S
C138 H165 0.983 . S
C139 C140 1.391 . S
C139 C144 1.391 . S
C139 H169 0.948 . S
C140 C139 1.391 . S
C140 C141 1.391 . S
C141 C140 1.391 . S
C141 C142 1.392 . S
C141 H170 0.947 . S
C142 C141 1.392 . S
C142 C143 1.419 . S
C142 H171 0.948 . S
C143 C142 1.419 . S
C143 C144 1.391 . S
C143 C147 1.397 . S
C144 C139 1.391 . S
C144 C143 1.391 . S
C144 C145 1.399 . S
C145 C144 1.399 . S
C145 C146 1.396 . S
C145 C148 1.453 . S
C145 C149 1.684 . S
C146 C127 1.723 . S
C146 C145 1.396 . S
C146 C147 1.394 . S
C147 C143 1.397 . S
C147 C146 1.394 . S
C147 C157 1.723 . S
C148 C145 1.453 . S
C148 H172 0.982 . S
C148 H173 0.979 . S
C148 H174 0.977 . S
C149 C145 1.684 . S
C149 H175 0.979 . S
C149 H176 0.980 . S
C149 H177 0.983 . S
C150 H126 0.948 . S
C150 C151 1.391 . S
C150 C155 1.391 . S
C151 C150 1.391 . S
C151 C152 1.391 . S
C152 H129 0.947 . S
C152 C151 1.391 . S
C152 C153 1.392 . S
C153 H130 0.948 . S
C153 C152 1.392 . S
C153 C154 1.419 . S
C154 C153 1.419 . S
C154 C155 1.391 . S
C154 C158 1.397 . S
C155 C150 1.391 . S
C155 C154 1.391 . S
C155 C156 1.399 . S
C156 C155 1.399 . S
C156 C157 1.396 . S
C156 C159 1.453 . S
C156 C160 1.684 . S
C157 C147 1.723 . S
C157 C156 1.396 . S
C157 C158 1.394 . S
C158 C128 1.723 . S
C158 C154 1.397 . S
C158 C157 1.394 . S
C159 H131 0.982 . S
C159 H135 0.979 . S
C159 H136 0.977 . S
C159 C156 1.453 . S
C160 H132 0.979 . S
C160 H133 0.980 . S
C160 H134 0.983 . S
C160 C156 1.684 . S
H161 C179 0.948 . S
H162 C120 0.948 . S
H163 C138 0.979 . S
H164 C138 0.980 . S
H165 C138 0.983 . S
H166 C137 0.982 . S
H167 C137 0.979 . S
H168 C137 0.977 . S
H169 C139 0.948 . S
H170 C141 0.947 . S
H171 C142 0.948 . S
H172 C148 0.982 . S
H173 C148 0.979 . S
H174 C148 0.977 . S
H175 C149 0.979 . S
H176 C149 0.980 . S
H177 C149 0.983 . S
H178 C122 0.947 1_455 S
C179 C122 1.392 . S
C179 C123 1.419 . S
C179 H161 0.948 . S
C180 C181 1.391 . S
C180 C184 1.391 . S
C180 H222 0.948 . S
C181 C180 1.391 . S
C181 C182 1.391 . S
C182 C181 1.391 . S
C182 H238 0.947 . S
C182 C239 1.392 . S
C183 C184 1.391 . S
C183 C187 1.397 . S
C183 C239 1.419 . S
C184 C180 1.391 . S
C184 C183 1.391 . S
C184 C185 1.399 . S
C185 C184 1.399 . S
C185 C188 1.396 . S
C185 C197 1.453 . S
C185 C198 1.684 . S
H186 C210 0.948 1_655 S
C187 C183 1.397 . S
C187 C188 1.394 . S
C187 C206 1.723 . S
C188 C185 1.396 . S
C188 C187 1.394 . S
C188 C218 1.723 . S
H189 C212 0.947 . S
H190 C213 0.948 . S
H191 C219 0.982 . S
H192 C220 0.979 . S
H193 C220 0.980 . S
H194 C220 0.983 . S
H195 C219 0.979 . S
H196 C219 0.977 . S
C197 C185 1.453 . S
C197 H226 0.982 . S
C197 H227 0.979 . S
C197 H228 0.977 . S
C198 C185 1.684 . S
C198 H223 0.979 . S
C198 H224 0.980 . S
C198 H225 0.983 . S
C199 C200 1.391 . S
C199 C204 1.391 . S
C199 H229 0.948 . S
C200 C199 1.391 . S
C200 C201 1.391 . S
C201 C200 1.391 . S
C201 C202 1.392 . S
C201 H230 0.947 . S
C202 C201 1.392 . S
C202 C203 1.419 . S
C202 H231 0.948 . S
C203 C202 1.419 . S
C203 C204 1.391 . S
C203 C207 1.397 . S
C204 C199 1.391 . S
C204 C203 1.391 . S
C204 C205 1.399 . S
C205 C204 1.399 . S
C205 C206 1.396 . S
C205 C208 1.453 . S
C205 C209 1.684 . S
C206 C187 1.723 . S
C206 C205 1.396 . S
C206 C207 1.394 . S
C207 C203 1.397 . S
C207 C206 1.394 . S
C207 C217 1.723 . S
C208 C205 1.453 . S
C208 H232 0.982 . S
C208 H233 0.979 . S
C208 H234 0.977 . S
C209 C205 1.684 . S
C209 H235 0.979 . S
C209 H236 0.980 . S
C209 H237 0.983 . S
C210 H186 0.948 1_455 S
C210 C211 1.391 . S
C210 C215 1.391 . S
C211 C210 1.391 . S
C211 C212 1.391 . S
C212 H189 0.947 . S
C212 C211 1.391 . S
C212 C213 1.392 . S
C213 H190 0.948 . S
C213 C212 1.392 . S
C213 C214 1.419 . S
C214 C213 1.419 . S
C214 C215 1.391 . S
C214 C218 1.397 . S
C215 C210 1.391 . S
C215 C214 1.391 . S
C215 C216 1.399 . S
C216 C215 1.399 . S
C216 C217 1.396 . S
C216 C219 1.453 . S
C216 C220 1.684 . S
C217 C207 1.723 . S
C217 C216 1.396 . S
C217 C218 1.394 . S
C218 C188 1.723 . S
C218 C214 1.397 . S
C218 C217 1.394 . S
C219 H191 0.982 . S
C219 H195 0.979 . S
C219 H196 0.977 . S
C219 C216 1.453 . S
C220 H192 0.979 . S
C220 H193 0.980 . S
C220 H194 0.983 . S
C220 C216 1.684 . S
H221 C239 0.948 . S
H222 C180 0.948 . S
H223 C198 0.979 . S
H224 C198 0.980 . S
H225 C198 0.983 . S
H226 C197 0.982 . S
H227 C197 0.979 . S
H228 C197 0.977 . S
H229 C199 0.948 . S
H230 C201 0.947 . S
H231 C202 0.948 . S
H232 C208 0.982 . S
H233 C208 0.979 . S
H234 C208 0.977 . S
H235 C209 0.979 . S
H236 C209 0.980 . S
H237 C209 0.983 . S
H238 C182 0.947 . S
C239 C182 1.392 . S
C239 C183 1.419 . S
C239 H221 0.948 . S
C240 C241 1.391 . S
C240 C244 1.391 . S
C240 H282 0.948 . S
C241 C240 1.391 . S
C241 C242 1.391 . S
C242 C241 1.391 . S
C242 H298 0.947 . S
C242 C299 1.392 . S
C243 C244 1.391 . S
C243 C247 1.397 . S
C243 C299 1.419 . S
C244 C240 1.391 . S
C244 C243 1.391 . S
C244 C245 1.399 . S
C245 C244 1.399 . S
C245 C248 1.396 . S
C245 C257 1.453 . S
C245 C258 1.684 . S
H246 C270 0.948 . S
C247 C243 1.397 . S
C247 C248 1.394 . S
C247 C266 1.723 . S
C248 C245 1.396 . S
C248 C247 1.394 . S
C248 C278 1.723 . S
H249 C272 0.947 . S
H250 C273 0.948 . S
H251 C279 0.982 . S
H252 C280 0.979 . S
H253 C280 0.980 . S
H254 C280 0.983 . S
H255 C279 0.979 . S
H256 C279 0.977 . S
C257 C245 1.453 . S
C257 H286 0.982 . S
C257 H287 0.979 . S
C257 H288 0.977 . S
C258 C245 1.684 . S
C258 H283 0.979 . S
C258 H284 0.980 . S
C258 H285 0.983 . S
C259 C260 1.391 . S
C259 C264 1.391 . S
C259 H289 0.948 . S
C260 C259 1.391 . S
C260 C261 1.391 . S
C261 C260 1.391 . S
C261 C262 1.392 . S
C261 H290 0.947 . S
C262 C261 1.392 . S
C262 C263 1.419 . S
C262 H291 0.948 . S
C263 C262 1.419 . S
C263 C264 1.391 . S
C263 C267 1.397 . S
C264 C259 1.391 . S
C264 C263 1.391 . S
C264 C265 1.399 . S
C265 C264 1.399 . S
C265 C266 1.396 . S
C265 C268 1.453 . S
C265 C269 1.684 . S
C266 C247 1.723 . S
C266 C265 1.396 . S
C266 C267 1.394 . S
C267 C263 1.397 . S
C267 C266 1.394 . S
C267 C277 1.723 . S
C268 C265 1.453 . S
C268 H292 0.982 . S
C268 H293 0.979 . S
C268 H294 0.977 . S
C269 C265 1.684 . S
C269 H295 0.979 . S
C269 H296 0.980 . S
C269 H297 0.983 . S
C270 H246 0.948 . S
C270 C271 1.391 . S
C270 C275 1.391 . S
C271 C270 1.391 . S
C271 C272 1.391 . S
C272 H249 0.947 . S
C272 C271 1.391 . S
C272 C273 1.392 . S
C273 H250 0.948 . S
C273 C272 1.392 . S
C273 C274 1.419 . S
C274 C273 1.419 . S
C274 C275 1.391 . S
C274 C278 1.397 . S
C275 C270 1.391 . S
C275 C274 1.391 . S
C275 C276 1.399 . S
C276 C275 1.399 . S
C276 C277 1.396 . S
C276 C279 1.453 . S
C276 C280 1.684 . S
C277 C267 1.723 . S
C277 C276 1.396 . S
C277 C278 1.394 . S
C278 C248 1.723 . S
C278 C274 1.397 . S
C278 C277 1.394 . S
C279 H251 0.982 . S
C279 H255 0.979 . S
C279 H256 0.977 . S
C279 C276 1.453 . S
C280 H252 0.979 . S
C280 H253 0.980 . S
C280 H254 0.983 . S
C280 C276 1.684 . S
H281 C299 0.948 . S
H282 C240 0.948 . S
H283 C258 0.979 . S
H284 C258 0.980 . S
H285 C258 0.983 . S
H286 C257 0.982 . S
H287 C257 0.979 . S
H288 C257 0.977 . S
H289 C259 0.948 . S
H290 C261 0.947 . S
H291 C262 0.948 . S
H292 C268 0.982 . S
H293 C268 0.979 . S
H294 C268 0.977 . S
H295 C269 0.979 . S
H296 C269 0.980 . S
H297 C269 0.983 . S
H298 C242 0.947 . S
C299 C242 1.392 . S
C299 C243 1.419 . S
C299 H281 0.948 . S
C300 C301 1.391 . S
C300 C304 1.391 . S
C300 H342 0.948 . S
C301 C300 1.391 . S
C301 C302 1.391 . S
C302 C301 1.391 . S
C302 H358 0.947 1_455 S
C302 C359 1.392 . S
C303 C304 1.391 . S
C303 C307 1.397 . S
C303 C359 1.419 . S
C304 C300 1.391 . S
C304 C303 1.391 . S
C304 C305 1.399 . S
C305 C304 1.399 . S
C305 C308 1.396 . S
C305 C317 1.453 . S
C305 C318 1.684 . S
H306 C330 0.948 . S
C307 C303 1.397 . S
C307 C308 1.394 . S
C307 C326 1.723 . S
C308 C305 1.396 . S
C308 C307 1.394 . S
C308 C338 1.723 . S
H309 C332 0.947 . S
H310 C333 0.948 . S
H311 C339 0.982 . S
H312 C340 0.979 . S
H313 C340 0.980 . S
H314 C340 0.983 . S
H315 C339 0.979 . S
H316 C339 0.977 . S
C317 C305 1.453 . S
C317 H346 0.982 . S
C317 H347 0.979 . S
C317 H348 0.977 . S
C318 C305 1.684 . S
C318 H343 0.979 . S
C318 H344 0.980 . S
C318 H345 0.983 . S
C319 C320 1.391 . S
C319 C324 1.391 . S
C319 H349 0.948 . S
C320 C319 1.391 . S
C320 C321 1.391 . S
C321 C320 1.391 . S
C321 C322 1.392 . S
C321 H350 0.947 . S
C322 C321 1.392 . S
C322 C323 1.419 . S
C322 H351 0.948 . S
C323 C322 1.419 . S
C323 C324 1.391 . S
C323 C327 1.397 . S
C324 C319 1.391 . S
C324 C323 1.391 . S
C324 C325 1.399 . S
C325 C324 1.399 . S
C325 C326 1.396 . S
C325 C328 1.453 . S
C325 C329 1.684 . S
C326 C307 1.723 . S
C326 C325 1.396 . S
C326 C327 1.394 . S
C327 C323 1.397 . S
C327 C326 1.394 . S
C327 C337 1.723 . S
C328 C325 1.453 . S
C328 H352 0.982 . S
C328 H353 0.979 . S
C328 H354 0.977 . S
C329 C325 1.684 . S
C329 H355 0.979 . S
C329 H356 0.980 . S
C329 H357 0.983 . S
C330 H306 0.948 . S
C330 C331 1.391 . S
C330 C335 1.391 . S
C331 C330 1.391 . S
C331 C332 1.391 . S
C332 H309 0.947 . S
C332 C331 1.391 . S
C332 C333 1.392 . S
C333 H310 0.948 . S
C333 C332 1.392 . S
C333 C334 1.419 . S
C334 C333 1.419 . S
C334 C335 1.391 . S
C334 C338 1.397 . S
C335 C330 1.391 . S
C335 C334 1.391 . S
C335 C336 1.399 . S
C336 C335 1.399 . S
C336 C337 1.396 . S
C336 C339 1.453 . S
C336 C340 1.684 . S
C337 C327 1.723 . S
C337 C336 1.396 . S
C337 C338 1.394 . S
C338 C308 1.723 . S
C338 C334 1.397 . S
C338 C337 1.394 . S
C339 H311 0.982 . S
C339 H315 0.979 . S
C339 H316 0.977 . S
C339 C336 1.453 . S
C340 H312 0.979 . S
C340 H313 0.980 . S
C340 H314 0.983 . S
C340 C336 1.684 . S
H341 C359 0.948 . S
H342 C300 0.948 . S
H343 C318 0.979 . S
H344 C318 0.980 . S
H345 C318 0.983 . S
H346 C317 0.982 . S
H347 C317 0.979 . S
H348 C317 0.977 . S
H349 C319 0.948 . S
H350 C321 0.947 . S
H351 C322 0.948 . S
H352 C328 0.982 . S
H353 C328 0.979 . S
H354 C328 0.977 . S
H355 C329 0.979 . S
H356 C329 0.980 . S
H357 C329 0.983 . S
H358 C302 0.947 1_655 S
C359 C302 1.392 . S
C359 C303 1.419 . S
C359 H341 0.948 . S
C360 C361 1.391 . S
C360 C364 1.391 . S
C360 H402 0.948 . S
C361 C360 1.391 . S
C361 C362 1.391 . S
C362 C361 1.391 . S
C362 H418 0.947 . S
C362 C419 1.392 . S
C363 C364 1.391 . S
C363 C367 1.397 . S
C363 C419 1.419 . S
C364 C360 1.391 . S
C364 C363 1.391 . S
C364 C365 1.399 . S
C365 C364 1.399 . S
C365 C368 1.396 . S
C365 C377 1.453 . S
C365 C378 1.684 . S
H366 C390 0.948 . S
C367 C363 1.397 . S
C367 C368 1.394 . S
C367 C386 1.723 . S
C368 C365 1.396 . S
C368 C367 1.394 . S
C368 C398 1.723 . S
H369 C392 0.947 . S
H370 C393 0.948 . S
H371 C399 0.982 . S
H372 C400 0.979 . S
H373 C400 0.980 . S
H374 C400 0.983 . S
H375 C399 0.979 . S
H376 C399 0.977 . S
C377 C365 1.453 . S
C377 H406 0.982 . S
C377 H407 0.979 . S
C377 H408 0.977 . S
C378 C365 1.684 . S
C378 H403 0.979 . S
C378 H404 0.980 . S
C378 H405 0.983 . S
C379 C380 1.391 . S
C379 C384 1.391 . S
C379 H409 0.948 . S
C380 C379 1.391 . S
C380 C381 1.391 . S
C381 C380 1.391 . S
C381 C382 1.392 . S
C381 H410 0.947 . S
C382 C381 1.392 . S
C382 C383 1.419 . S
C382 H411 0.948 . S
C383 C382 1.419 . S
C383 C384 1.391 . S
C383 C387 1.397 . S
C384 C379 1.391 . S
C384 C383 1.391 . S
C384 C385 1.399 . S
C385 C384 1.399 . S
C385 C386 1.396 . S
C385 C388 1.453 . S
C385 C389 1.684 . S
C386 C367 1.723 . S
C386 C385 1.396 . S
C386 C387 1.394 . S
C387 C383 1.397 . S
C387 C386 1.394 . S
C387 C397 1.723 . S
C388 C385 1.453 . S
C388 H412 0.982 . S
C388 H413 0.979 . S
C388 H414 0.977 . S
C389 C385 1.684 . S
C389 H415 0.979 . S
C389 H416 0.980 . S
C389 H417 0.983 . S
C390 H366 0.948 . S
C390 C391 1.391 . S
C390 C395 1.391 . S
C391 C390 1.391 . S
C391 C392 1.391 . S
C392 H369 0.947 . S
C392 C391 1.391 . S
C392 C393 1.392 . S
C393 H370 0.948 . S
C393 C392 1.392 . S
C393 C394 1.419 . S
C394 C393 1.419 . S
C394 C395 1.391 . S
C394 C398 1.397 . S
C395 C390 1.391 . S
C395 C394 1.391 . S
C395 C396 1.399 . S
C396 C395 1.399 . S
C396 C397 1.396 . S
C396 C399 1.453 . S
C396 C400 1.684 . S
C397 C387 1.723 . S
C397 C396 1.396 . S
C397 C398 1.394 . S
C398 C368 1.723 . S
C398 C394 1.397 . S
C398 C397 1.394 . S
C399 H371 0.982 . S
C399 H375 0.979 . S
C399 H376 0.977 . S
C399 C396 1.453 . S
C400 H372 0.979 . S
C400 H373 0.980 . S
C400 H374 0.983 . S
C400 C396 1.684 . S
H401 C419 0.948 . S
H402 C360 0.948 . S
H403 C378 0.979 . S
H404 C378 0.980 . S
H405 C378 0.983 . S
H406 C377 0.982 . S
H407 C377 0.979 . S
H408 C377 0.977 . S
H409 C379 0.948 . S
H410 C381 0.947 . S
H411 C382 0.948 . S
H412 C388 0.982 . S
H413 C388 0.979 . S
H414 C388 0.977 . S
H415 C389 0.979 . S
H416 C389 0.980 . S
H417 C389 0.983 . S
H418 C362 0.947 . S
C419 C362 1.392 . S
C419 C363 1.419 . S
C419 H401 0.948 . S
C420 C421 1.391 . S
C420 C424 1.391 . S
C420 H462 0.948 . S
C421 C420 1.391 . S
C421 C422 1.391 . S
C422 C421 1.391 . S
C422 H478 0.947 . S
C422 C479 1.392 . S
C423 C424 1.391 . S
C423 C427 1.397 . S
C423 C479 1.419 . S
C424 C420 1.391 . S
C424 C423 1.391 . S
C424 C425 1.399 . S
C425 C424 1.399 . S
C425 C428 1.396 . S
C425 C437 1.453 . S
C425 C438 1.684 . S
H426 C450 0.948 . S
C427 C423 1.397 . S
C427 C428 1.394 . S
C427 C446 1.723 . S
C428 C425 1.396 . S
C428 C427 1.394 . S
C428 C458 1.723 . S
H429 C452 0.947 . S
H430 C453 0.948 . S
H431 C459 0.982 . S
H432 C460 0.979 . S
H433 C460 0.980 . S
H434 C460 0.983 . S
H435 C459 0.979 . S
H436 C459 0.977 . S
C437 C425 1.453 . S
C437 H466 0.982 . S
C437 H467 0.979 . S
C437 H468 0.977 . S
C438 C425 1.684 . S
C438 H463 0.979 . S
C438 H464 0.980 . S
C438 H465 0.983 . S
C439 C440 1.391 . S
C439 C444 1.391 . S
C439 H469 0.948 . S
C440 C439 1.391 . S
C440 C441 1.391 . S
C441 C440 1.391 . S
C441 C442 1.392 . S
C441 H470 0.947 . S
C442 C441 1.392 . S
C442 C443 1.419 . S
C442 H471 0.948 . S
C443 C442 1.419 . S
C443 C444 1.391 . S
C443 C447 1.397 . S
C444 C439 1.391 . S
C444 C443 1.391 . S
C444 C445 1.399 . S
C445 C444 1.399 . S
C445 C446 1.396 . S
C445 C448 1.453 . S
C445 C449 1.684 . S
C446 C427 1.723 . S
C446 C445 1.396 . S
C446 C447 1.394 . S
C447 C443 1.397 . S
C447 C446 1.394 . S
C447 C457 1.723 . S
C448 C445 1.453 . S
C448 H472 0.982 . S
C448 H473 0.979 . S
C448 H474 0.977 . S
C449 C445 1.684 . S
C449 H475 0.979 . S
C449 H476 0.980 . S
C449 H477 0.983 . S
C450 H426 0.948 . S
C450 C451 1.391 . S
C450 C455 1.391 . S
C451 C450 1.391 . S
C451 C452 1.391 . S
C452 H429 0.947 . S
C452 C451 1.391 . S
C452 C453 1.392 . S
C453 H430 0.948 . S
C453 C452 1.392 . S
C453 C454 1.419 . S
C454 C453 1.419 . S
C454 C455 1.391 . S
C454 C458 1.397 . S
C455 C450 1.391 . S
C455 C454 1.391 . S
C455 C456 1.399 . S
C456 C455 1.399 . S
C456 C457 1.396 . S
C456 C459 1.453 . S
C456 C460 1.684 . S
C457 C447 1.723 . S
C457 C456 1.396 . S
C457 C458 1.394 . S
C458 C428 1.723 . S
C458 C454 1.397 . S
C458 C457 1.394 . S
C459 H431 0.982 . S
C459 H435 0.979 . S
C459 H436 0.977 . S
C459 C456 1.453 . S
C460 H432 0.979 . S
C460 H433 0.980 . S
C460 H434 0.983 . S
C460 C456 1.684 . S
H461 C479 0.948 . S
H462 C420 0.948 . S
H463 C438 0.979 . S
H464 C438 0.980 . S
H465 C438 0.983 . S
H466 C437 0.982 . S
H467 C437 0.979 . S
H468 C437 0.977 . S
H469 C439 0.948 . S
H470 C441 0.947 . S
H471 C442 0.948 . S
H472 C448 0.982 . S
H473 C448 0.979 . S
H474 C448 0.977 . S
H475 C449 0.979 . S
H476 C449 0.980 . S
H477 C449 0.983 . S
H478 C422 0.947 . S
C479 C422 1.392 . S
C479 C423 1.419 . S
C479 H461 0.948 . S
C480 C481 1.391 . S
C480 C484 1.391 . S
C480 H522 0.948 . S
C481 C480 1.391 . S
C481 C482 1.391 . S
C482 C481 1.391 . S
C482 H538 0.947 . S
C482 C539 1.392 . S
C483 C484 1.391 . S
C483 C487 1.397 . S
C483 C539 1.419 . S
C484 C480 1.391 . S
C484 C483 1.391 . S
C484 C485 1.399 . S
C485 C484 1.399 . S
C485 C488 1.396 . S
C485 C497 1.453 . S
C485 C498 1.684 . S
H486 C510 0.948 . S
C487 C483 1.397 . S
C487 C488 1.394 . S
C487 C506 1.723 . S
C488 C485 1.396 . S
C488 C487 1.394 . S
C488 C518 1.723 . S
H489 C512 0.947 . S
H490 C513 0.948 . S
H491 C519 0.982 . S
H492 C520 0.979 . S
H493 C520 0.980 . S
H494 C520 0.983 . S
H495 C519 0.979 . S
H496 C519 0.977 . S
C497 C485 1.453 . S
C497 H526 0.982 . S
C497 H527 0.979 . S
C497 H528 0.977 . S
C498 C485 1.684 . S
C498 H523 0.979 . S
C498 H524 0.980 . S
C498 H525 0.983 . S
C499 C500 1.391 . S
C499 C504 1.391 . S
C499 H529 0.948 . S
C500 C499 1.391 . S
C500 C501 1.391 . S
C501 C500 1.391 . S
C501 C502 1.392 . S
C501 H530 0.947 . S
C502 C501 1.392 . S
C502 C503 1.419 . S
C502 H531 0.948 . S
C503 C502 1.419 . S
C503 C504 1.391 . S
C503 C507 1.397 . S
C504 C499 1.391 . S
C504 C503 1.391 . S
C504 C505 1.399 . S
C505 C504 1.399 . S
C505 C506 1.396 . S
C505 C508 1.453 . S
C505 C509 1.684 . S
C506 C487 1.723 . S
C506 C505 1.396 . S
C506 C507 1.394 . S
C507 C503 1.397 . S
C507 C506 1.394 . S
C507 C517 1.723 . S
C508 C505 1.453 . S
C508 H532 0.982 . S
C508 H533 0.979 . S
C508 H534 0.977 . S
C509 C505 1.684 . S
C509 H535 0.979 . S
C509 H536 0.980 . S
C509 H537 0.983 . S
C510 H486 0.948 . S
C510 C511 1.391 . S
C510 C515 1.391 . S
C511 C510 1.391 . S
C511 C512 1.391 . S
C512 H489 0.947 . S
C512 C511 1.391 . S
C512 C513 1.392 . S
C513 H490 0.948 . S
C513 C512 1.392 . S
C513 C514 1.419 . S
C514 C513 1.419 . S
C514 C515 1.391 . S
C514 C518 1.397 . S
C515 C510 1.391 . S
C515 C514 1.391 . S
C515 C516 1.399 . S
C516 C515 1.399 . S
C516 C517 1.396 . S
C516 C519 1.453 . S
C516 C520 1.684 . S
C517 C507 1.723 . S
C517 C516 1.396 . S
C517 C518 1.394 . S
C518 C488 1.723 . S
C518 C514 1.397 . S
C518 C517 1.394 . S
C519 H491 0.982 . S
C519 H495 0.979 . S
C519 H496 0.977 . S
C519 C516 1.453 . S
C520 H492 0.979 . S
C520 H493 0.980 . S
C520 H494 0.983 . S
C520 C516 1.684 . S
H521 C539 0.948 . S
H522 C480 0.948 . S
H523 C498 0.979 . S
H524 C498 0.980 . S
H525 C498 0.983 . S
H526 C497 0.982 . S
H527 C497 0.979 . S
H528 C497 0.977 . S
H529 C499 0.948 . S
H530 C501 0.947 . S
H531 C502 0.948 . S
H532 C508 0.982 . S
H533 C508 0.979 . S
H534 C508 0.977 . S
H535 C509 0.979 . S
H536 C509 0.980 . S
H537 C509 0.983 . S
H538 C482 0.947 . S
C539 C482 1.392 . S
C539 C483 1.419 . S
C539 H521 0.948 . S
C540 C541 1.391 . S
C540 C544 1.391 . S
C540 H582 0.948 . S
C541 C540 1.391 . S
C541 C542 1.391 . S
C542 C541 1.391 . S
C542 H598 0.947 . S
C542 C599 1.392 . S
C543 C544 1.391 . S
C543 C547 1.397 . S
C543 C599 1.419 . S
C544 C540 1.391 . S
C544 C543 1.391 . S
C544 C545 1.399 . S
C545 C544 1.399 . S
C545 C548 1.396 . S
C545 C557 1.453 . S
C545 C558 1.684 . S
H546 C570 0.948 . S
C547 C543 1.397 . S
C547 C548 1.394 . S
C547 C566 1.723 . S
C548 C545 1.396 . S
C548 C547 1.394 . S
C548 C578 1.723 . S
H549 C572 0.947 . S
H550 C573 0.948 . S
H551 C579 0.982 . S
H552 C580 0.979 . S
H553 C580 0.980 . S
H554 C580 0.983 . S
H555 C579 0.979 . S
H556 C579 0.977 . S
C557 C545 1.453 . S
C557 H586 0.982 . S
C557 H587 0.979 . S
C557 H588 0.977 . S
C558 C545 1.684 . S
C558 H583 0.979 . S
C558 H584 0.980 . S
C558 H585 0.983 . S
C559 C560 1.391 . S
C559 C564 1.391 . S
C559 H589 0.948 . S
C560 C559 1.391 . S
C560 C561 1.391 . S
C561 C560 1.391 . S
C561 C562 1.392 . S
C561 H590 0.947 . S
C562 C561 1.392 . S
C562 C563 1.419 . S
C562 H591 0.948 . S
C563 C562 1.419 . S
C563 C564 1.391 . S
C563 C567 1.397 . S
C564 C559 1.391 . S
C564 C563 1.391 . S
C564 C565 1.399 . S
C565 C564 1.399 . S
C565 C566 1.396 . S
C565 C568 1.453 . S
C565 C569 1.684 . S
C566 C547 1.723 . S
C566 C565 1.396 . S
C566 C567 1.394 . S
C567 C563 1.397 . S
C567 C566 1.394 . S
C567 C577 1.723 . S
C568 C565 1.453 . S
C568 H592 0.982 . S
C568 H593 0.979 . S
C568 H594 0.977 . S
C569 C565 1.684 . S
C569 H595 0.979 . S
C569 H596 0.980 . S
C569 H597 0.983 . S
C570 H546 0.948 . S
C570 C571 1.391 . S
C570 C575 1.391 . S
C571 C570 1.391 . S
C571 C572 1.391 . S
C572 H549 0.947 . S
C572 C571 1.391 . S
C572 C573 1.392 . S
C573 H550 0.948 . S
C573 C572 1.392 . S
C573 C574 1.419 . S
C574 C573 1.419 . S
C574 C575 1.391 . S
C574 C578 1.397 . S
C575 C570 1.391 . S
C575 C574 1.391 . S
C575 C576 1.399 . S
C576 C575 1.399 . S
C576 C577 1.396 . S
C576 C579 1.453 . S
C576 C580 1.684 . S
C577 C567 1.723 . S
C577 C576 1.396 . S
C577 C578 1.394 . S
C578 C548 1.723 . S
C578 C574 1.397 . S
C578 C577 1.394 . S
C579 H551 0.982 . S
C579 H555 0.979 . S
C579 H556 0.977 . S
C579 C576 1.453 . S
C580 H552 0.979 . S
C580 H553 0.980 . S
C580 H554 0.983 . S
C580 C576 1.684 . S
H581 C599 0.948 . S
H582 C540 0.948 . S
H583 C558 0.979 . S
H584 C558 0.980 . S
H585 C558 0.983 . S
H586 C557 0.982 . S
H587 C557 0.979 . S
H588 C557 0.977 . S
H589 C559 0.948 . S
H590 C561 0.947 . S
H591 C562 0.948 . S
H592 C568 0.982 . S
H593 C568 0.979 . S
H594 C568 0.977 . S
H595 C569 0.979 . S
H596 C569 0.980 . S
H597 C569 0.983 . S
H598 C542 0.947 . S
C599 C542 1.392 . S
C599 C543 1.419 . S
C599 H581 0.948 . S
C600 C601 1.391 . S
C600 C604 1.391 . S
C600 H642 0.948 . S
C601 C600 1.391 . S
C601 C602 1.391 . S
C602 C601 1.391 . S
C602 H658 0.947 . S
C602 C659 1.392 . S
C603 C604 1.391 . S
C603 C607 1.397 . S
C603 C659 1.419 . S
C604 C600 1.391 . S
C604 C603 1.391 . S
C604 C605 1.399 . S
C605 C604 1.399 . S
C605 C608 1.396 . S
C605 C617 1.453 . S
C605 C618 1.684 . S
H606 C630 0.948 . S
C607 C603 1.397 . S
C607 C608 1.394 . S
C607 C626 1.723 . S
C608 C605 1.396 . S
C608 C607 1.394 . S
C608 C638 1.723 . S
H609 C632 0.947 . S
H610 C633 0.948 . S
H611 C639 0.982 . S
H612 C640 0.979 . S
H613 C640 0.980 . S
H614 C640 0.983 . S
H615 C639 0.979 . S
H616 C639 0.977 . S
C617 C605 1.453 . S
C617 H646 0.982 . S
C617 H647 0.979 . S
C617 H648 0.977 . S
C618 C605 1.684 . S
C618 H643 0.979 . S
C618 H644 0.980 . S
C618 H645 0.983 . S
C619 C620 1.391 . S
C619 C624 1.391 . S
C619 H649 0.948 . S
C620 C619 1.391 . S
C620 C621 1.391 . S
C621 C620 1.391 . S
C621 C622 1.392 . S
C621 H650 0.947 . S
C622 C621 1.392 . S
C622 C623 1.419 . S
C622 H651 0.948 . S
C623 C622 1.419 . S
C623 C624 1.391 . S
C623 C627 1.397 . S
C624 C619 1.391 . S
C624 C623 1.391 . S
C624 C625 1.399 . S
C625 C624 1.399 . S
C625 C626 1.396 . S
C625 C628 1.453 . S
C625 C629 1.684 . S
C626 C607 1.723 . S
C626 C625 1.396 . S
C626 C627 1.394 . S
C627 C623 1.397 . S
C627 C626 1.394 . S
C627 C637 1.723 . S
C628 C625 1.453 . S
C628 H652 0.982 . S
C628 H653 0.979 . S
C628 H654 0.977 . S
C629 C625 1.684 . S
C629 H655 0.979 . S
C629 H656 0.980 . S
C629 H657 0.983 . S
C630 H606 0.948 . S
C630 C631 1.391 . S
C630 C635 1.391 . S
C631 C630 1.391 . S
C631 C632 1.391 . S
C632 H609 0.947 . S
C632 C631 1.391 . S
C632 C633 1.392 . S
C633 H610 0.948 . S
C633 C632 1.392 . S
C633 C634 1.419 . S
C634 C633 1.419 . S
C634 C635 1.391 . S
C634 C638 1.397 . S
C635 C630 1.391 . S
C635 C634 1.391 . S
C635 C636 1.399 . S
C636 C635 1.399 . S
C636 C637 1.396 . S
C636 C639 1.453 . S
C636 C640 1.684 . S
C637 C627 1.723 . S
C637 C636 1.396 . S
C637 C638 1.394 . S
C638 C608 1.723 . S
C638 C634 1.397 . S
C638 C637 1.394 . S
C639 H611 0.982 . S
C639 H615 0.979 . S
C639 H616 0.977 . S
C639 C636 1.453 . S
C640 H612 0.979 . S
C640 H613 0.980 . S
C640 H614 0.983 . S
C640 C636 1.684 . S
H641 C659 0.948 . S
H642 C600 0.948 . S
H643 C618 0.979 . S
H644 C618 0.980 . S
H645 C618 0.983 . S
H646 C617 0.982 . S
H647 C617 0.979 . S
H648 C617 0.977 . S
H649 C619 0.948 . S
H650 C621 0.947 . S
H651 C622 0.948 . S
H652 C628 0.982 . S
H653 C628 0.979 . S
H654 C628 0.977 . S
H655 C629 0.979 . S
H656 C629 0.980 . S
H657 C629 0.983 . S
H658 C602 0.947 . S
C659 C602 1.392 . S
C659 C603 1.419 . S
C659 H641 0.948 . S
C660 C661 1.391 . S
C660 C664 1.391 . S
C660 H702 0.948 . S
C661 C660 1.391 . S
C661 C662 1.391 . S
C662 C661 1.391 . S
C662 H718 0.947 . S
C662 C719 1.392 . S
C663 C664 1.391 . S
C663 C667 1.397 . S
C663 C719 1.419 . S
C664 C660 1.391 . S
C664 C663 1.391 . S
C664 C665 1.399 . S
C665 C664 1.399 . S
C665 C668 1.396 . S
C665 C677 1.453 . S
C665 C678 1.684 . S
H666 C690 0.948 . S
C667 C663 1.397 . S
C667 C668 1.394 . S
C667 C686 1.723 . S
C668 C665 1.396 . S
C668 C667 1.394 . S
C668 C698 1.723 . S
H669 C692 0.947 . S
H670 C693 0.948 . S
H671 C699 0.982 . S
H672 C700 0.979 . S
H673 C700 0.980 . S
H674 C700 0.983 . S
H675 C699 0.979 . S
H676 C699 0.977 . S
C677 C665 1.453 . S
C677 H706 0.982 . S
C677 H707 0.979 . S
C677 H708 0.977 . S
C678 C665 1.684 . S
C678 H703 0.979 . S
C678 H704 0.980 . S
C678 H705 0.983 . S
C679 C680 1.391 . S
C679 C684 1.391 . S
C679 H709 0.948 . S
C680 C679 1.391 . S
C680 C681 1.391 . S
C681 C680 1.391 . S
C681 C682 1.392 . S
C681 H710 0.947 . S
C682 C681 1.392 . S
C682 C683 1.419 . S
C682 H711 0.948 . S
C683 C682 1.419 . S
C683 C684 1.391 . S
C683 C687 1.397 . S
C684 C679 1.391 . S
C684 C683 1.391 . S
C684 C685 1.399 . S
C685 C684 1.399 . S
C685 C686 1.396 . S
C685 C688 1.453 . S
C685 C689 1.684 . S
C686 C667 1.723 . S
C686 C685 1.396 . S
C686 C687 1.394 . S
C687 C683 1.397 . S
C687 C686 1.394 . S
C687 C697 1.723 . S
C688 C685 1.453 . S
C688 H712 0.982 . S
C688 H713 0.979 . S
C688 H714 0.977 . S
C689 C685 1.684 . S
C689 H715 0.979 . S
C689 H716 0.980 . S
C689 H717 0.983 . S
C690 H666 0.948 . S
C690 C691 1.391 . S
C690 C695 1.391 . S
C691 C690 1.391 . S
C691 C692 1.391 . S
C692 H669 0.947 . S
C692 C691 1.391 . S
C692 C693 1.392 . S
C693 H670 0.948 . S
C693 C692 1.392 . S
C693 C694 1.419 . S
C694 C693 1.419 . S
C694 C695 1.391 . S
C694 C698 1.397 . S
C695 C690 1.391 . S
C695 C694 1.391 . S
C695 C696 1.399 . S
C696 C695 1.399 . S
C696 C697 1.396 . S
C696 C699 1.453 . S
C696 C700 1.684 . S
C697 C687 1.723 . S
C697 C696 1.396 . S
C697 C698 1.394 . S
C698 C668 1.723 . S
C698 C694 1.397 . S
C698 C697 1.394 . S
C699 H671 0.982 . S
C699 H675 0.979 . S
C699 H676 0.977 . S
C699 C696 1.453 . S
C700 H672 0.979 . S
C700 H673 0.980 . S
C700 H674 0.983 . S
C700 C696 1.684 . S
H701 C719 0.948 . S
H702 C660 0.948 . S
H703 C678 0.979 . S
H704 C678 0.980 . S
H705 C678 0.983 . S
H706 C677 0.982 . S
H707 C677 0.979 . S
H708 C677 0.977 . S
H709 C679 0.948 . S
H710 C681 0.947 . S
H711 C682 0.948 . S
H712 C688 0.982 . S
H713 C688 0.979 . S
H714 C688 0.977 . S
H715 C689 0.979 . S
H716 C689 0.980 . S
H717 C689 0.983 . S
H718 C662 0.947 . S
C719 C662 1.392 . S
C719 C663 1.419 . S
C719 H701 0.948 . S
C720 C721 1.391 . S
C720 C724 1.391 . S
C720 H762 0.948 . S
C721 C720 1.391 . S
C721 C722 1.391 . S
C722 C721 1.391 . S
C722 H778 0.947 . S
C722 C779 1.392 . S
C723 C724 1.391 . S
C723 C727 1.397 . S
C723 C779 1.419 . S
C724 C720 1.391 . S
C724 C723 1.391 . S
C724 C725 1.399 . S
C725 C724 1.399 . S
C725 C728 1.396 . S
C725 C737 1.453 . S
C725 C738 1.684 . S
H726 C750 0.948 . S
C727 C723 1.397 . S
C727 C728 1.394 . S
C727 C746 1.723 . S
C728 C725 1.396 . S
C728 C727 1.394 . S
C728 C758 1.723 . S
H729 C752 0.947 . S
H730 C753 0.948 . S
H731 C759 0.982 . S
H732 C760 0.979 . S
H733 C760 0.980 . S
H734 C760 0.983 . S
H735 C759 0.979 . S
H736 C759 0.977 . S
C737 C725 1.453 . S
C737 H766 0.982 . S
C737 H767 0.979 . S
C737 H768 0.977 . S
C738 C725 1.684 . S
C738 H763 0.979 . S
C738 H764 0.980 . S
C738 H765 0.983 . S
C739 C740 1.391 . S
C739 C744 1.391 . S
C739 H769 0.948 . S
C740 C739 1.391 . S
C740 C741 1.391 . S
C741 C740 1.391 . S
C741 C742 1.392 . S
C741 H770 0.947 . S
C742 C741 1.392 . S
C742 C743 1.419 . S
C742 H771 0.948 . S
C743 C742 1.419 . S
C743 C744 1.391 . S
C743 C747 1.397 . S
C744 C739 1.391 . S
C744 C743 1.391 . S
C744 C745 1.399 . S
C745 C744 1.399 . S
C745 C746 1.396 . S
C745 C748 1.453 . S
C745 C749 1.684 . S
C746 C727 1.723 . S
C746 C745 1.396 . S
C746 C747 1.394 . S
C747 C743 1.397 . S
C747 C746 1.394 . S
C747 C757 1.723 . S
C748 C745 1.453 . S
C748 H772 0.982 . S
C748 H773 0.979 . S
C748 H774 0.977 . S
C749 C745 1.684 . S
C749 H775 0.979 . S
C749 H776 0.980 . S
C749 H777 0.983 . S
C750 H726 0.948 . S
C750 C751 1.391 . S
C750 C755 1.391 . S
C751 C750 1.391 . S
C751 C752 1.391 . S
C752 H729 0.947 . S
C752 C751 1.391 . S
C752 C753 1.392 . S
C753 H730 0.948 . S
C753 C752 1.392 . S
C753 C754 1.419 . S
C754 C753 1.419 . S
C754 C755 1.391 . S
C754 C758 1.397 . S
C755 C750 1.391 . S
C755 C754 1.391 . S
C755 C756 1.399 . S
C756 C755 1.399 . S
C756 C757 1.396 . S
C756 C759 1.453 . S
C756 C760 1.684 . S
C757 C747 1.723 . S
C757 C756 1.396 . S
C757 C758 1.394 . S
C758 C728 1.723 . S
C758 C754 1.397 . S
C758 C757 1.394 . S
C759 H731 0.982 . S
C759 H735 0.979 . S
C759 H736 0.977 . S
C759 C756 1.453 . S
C760 H732 0.979 . S
C760 H733 0.980 . S
C760 H734 0.983 . S
C760 C756 1.684 . S
H761 C779 0.948 . S
H762 C720 0.948 . S
H763 C738 0.979 . S
H764 C738 0.980 . S
H765 C738 0.983 . S
H766 C737 0.982 . S
H767 C737 0.979 . S
H768 C737 0.977 . S
H769 C739 0.948 . S
H770 C741 0.947 . S
H771 C742 0.948 . S
H772 C748 0.982 . S
H773 C748 0.979 . S
H774 C748 0.977 . S
H775 C749 0.979 . S
H776 C749 0.980 . S
H777 C749 0.983 . S
H778 C722 0.947 . S
C779 C722 1.392 . S
C779 C723 1.419 . S
C779 H761 0.948 . S
C780 C781 1.391 . S
C780 C784 1.391 . S
C780 H822 0.948 . S
C781 C780 1.391 . S
C781 C782 1.391 . S
C782 C781 1.391 . S
C782 H838 0.947 . S
C782 C839 1.392 . S
C783 C784 1.391 . S
C783 C787 1.397 . S
C783 C839 1.419 . S
C784 C780 1.391 . S
C784 C783 1.391 . S
C784 C785 1.399 . S
C785 C784 1.399 . S
C785 C788 1.396 . S
C785 C797 1.453 . S
C785 C798 1.684 . S
H786 C810 0.948 . S
C787 C783 1.397 . S
C787 C788 1.394 . S
C787 C806 1.723 . S
C788 C785 1.396 . S
C788 C787 1.394 . S
C788 C818 1.723 . S
H789 C812 0.947 . S
H790 C813 0.948 . S
H791 C819 0.982 . S
H792 C820 0.979 . S
H793 C820 0.980 . S
H794 C820 0.983 . S
H795 C819 0.979 . S
H796 C819 0.977 . S
C797 C785 1.453 . S
C797 H826 0.982 . S
C797 H827 0.979 . S
C797 H828 0.977 . S
C798 C785 1.684 . S
C798 H823 0.979 . S
C798 H824 0.980 . S
C798 H825 0.983 . S
C799 C800 1.391 . S
C799 C804 1.391 . S
C799 H829 0.948 . S
C800 C799 1.391 . S
C800 C801 1.391 . S
C801 C800 1.391 . S
C801 C802 1.392 . S
C801 H830 0.947 . S
C802 C801 1.392 . S
C802 C803 1.419 . S
C802 H831 0.948 . S
C803 C802 1.419 . S
C803 C804 1.391 . S
C803 C807 1.397 . S
C804 C799 1.391 . S
C804 C803 1.391 . S
C804 C805 1.399 . S
C805 C804 1.399 . S
C805 C806 1.396 . S
C805 C808 1.453 . S
C805 C809 1.684 . S
C806 C787 1.723 . S
C806 C805 1.396 . S
C806 C807 1.394 . S
C807 C803 1.397 . S
C807 C806 1.394 . S
C807 C817 1.723 . S
C808 C805 1.453 . S
C808 H832 0.982 . S
C808 H833 0.979 . S
C808 H834 0.977 . S
C809 C805 1.684 . S
C809 H835 0.979 . S
C809 H836 0.980 . S
C809 H837 0.983 . S
C810 H786 0.948 . S
C810 C811 1.391 . S
C810 C815 1.391 . S
C811 C810 1.391 . S
C811 C812 1.391 . S
C812 H789 0.947 . S
C812 C811 1.391 . S
C812 C813 1.392 . S
C813 H790 0.948 . S
C813 C812 1.392 . S
C813 C814 1.419 . S
C814 C813 1.419 . S
C814 C815 1.391 . S
C814 C818 1.397 . S
C815 C810 1.391 . S
C815 C814 1.391 . S
C815 C816 1.399 . S
C816 C815 1.399 . S
C816 C817 1.396 . S
C816 C819 1.453 . S
C816 C820 1.684 . S
C817 C807 1.723 . S
C817 C816 1.396 . S
C817 C818 1.394 . S
C818 C788 1.723 . S
C818 C814 1.397 . S
C818 C817 1.394 . S
C819 H791 0.982 . S
C819 H795 0.979 . S
C819 H796 0.977 . S
C819 C816 1.453 . S
C820 H792 0.979 . S
C820 H793 0.980 . S
C820 H794 0.983 . S
C820 C816 1.684 . S
H821 C839 0.948 . S
H822 C780 0.948 . S
H823 C798 0.979 . S
H824 C798 0.980 . S
H825 C798 0.983 . S
H826 C797 0.982 . S
H827 C797 0.979 . S
H828 C797 0.977 . S
H829 C799 0.948 . S
H830 C801 0.947 . S
H831 C802 0.948 . S
H832 C808 0.982 . S
H833 C808 0.979 . S
H834 C808 0.977 . S
H835 C809 0.979 . S
H836 C809 0.980 . S
H837 C809 0.983 . S
H838 C782 0.947 . S
C839 C782 1.392 . S
C839 C783 1.419 . S
C839 H821 0.948 . S
C840 C841 1.391 . S
C840 C844 1.391 . S
C840 H882 0.948 . S
C841 C840 1.391 . S
C841 C842 1.391 . S
C842 C841 1.391 . S
C842 H898 0.947 . S
C842 C899 1.392 . S
C843 C844 1.391 . S
C843 C847 1.397 . S
C843 C899 1.419 . S
C844 C840 1.391 . S
C844 C843 1.391 . S
C844 C845 1.399 . S
C845 C844 1.399 . S
C845 C848 1.396 . S
C845 C857 1.453 . S
C845 C858 1.684 . S
H846 C870 0.948 . S
C847 C843 1.397 . S
C847 C848 1.394 . S
C847 C866 1.723 . S
C848 C845 1.396 . S
C848 C847 1.394 . S
C848 C878 1.723 . S
H849 C872 0.947 . S
H850 C873 0.948 . S
H851 C879 0.982 . S
H852 C880 0.979 . S
H853 C880 0.980 . S
H854 C880 0.983 . S
H855 C879 0.979 . S
H856 C879 0.977 . S
C857 C845 1.453 . S
C857 H886 0.982 . S
C857 H887 0.979 . S
C857 H888 0.977 . S
C858 C845 1.684 . S
C858 H883 0.979 . S
C858 H884 0.980 . S
C858 H885 0.983 . S
C859 C860 1.391 . S
C859 C864 1.391 . S
C859 H889 0.948 . S
C860 C859 1.391 . S
C860 C861 1.391 . S
C861 C860 1.391 . S
C861 C862 1.392 . S
C861 H890 0.947 . S
C862 C861 1.392 . S
C862 C863 1.419 . S
C862 H891 0.948 . S
C863 C862 1.419 . S
C863 C864 1.391 . S
C863 C867 1.397 . S
C864 C859 1.391 . S
C864 C863 1.391 . S
C864 C865 1.399 . S
C865 C864 1.399 . S
C865 C866 1.396 . S
C865 C868 1.453 . S
C865 C869 1.684 . S
C866 C847 1.723 . S
C866 C865 1.396 . S
C866 C867 1.394 . S
C867 C863 1.397 . S
C867 C866 1.394 . S
C867 C877 1.723 . S
C868 C865 1.453 . S
C868 H892 0.982 . S
C868 H893 0.979 . S
C868 H894 0.977 . S
C869 C865 1.684 . S
C869 H895 0.979 . S
C869 H896 0.980 . S
C869 H897 0.983 . S
C870 H846 0.948 . S
C870 C871 1.391 . S
C870 C875 1.391 . S
C871 C870 1.391 . S
C871 C872 1.391 . S
C872 H849 0.947 . S
C872 C871 1.391 . S
C872 C873 1.392 . S
C873 H850 0.948 . S
C873 C872 1.392 . S
C873 C874 1.419 . S
C874 C873 1.419 . S
C874 C875 1.391 . S
C874 C878 1.397 . S
C875 C870 1.391 . S
C875 C874 1.391 . S
C875 C876 1.399 . S
C876 C875 1.399 . S
C876 C877 1.396 . S
C876 C879 1.453 . S
C876 C880 1.684 . S
C877 C867 1.723 . S
C877 C876 1.396 . S
C877 C878 1.394 . S
C878 C848 1.723 . S
C878 C874 1.397 . S
C878 C877 1.394 . S
C879 H851 0.982 . S
C879 H855 0.979 . S
C879 H856 0.977 . S
C879 C876 1.453 . S
C880 H852 0.979 . S
C880 H853 0.980 . S
C880 H854 0.983 . S
C880 C876 1.684 . S
H881 C899 0.948 . S
H882 C840 0.948 . S
H883 C858 0.979 . S
H884 C858 0.980 . S
H885 C858 0.983 . S
H886 C857 0.982 . S
H887 C857 0.979 . S
H888 C857 0.977 . S
H889 C859 0.948 . S
H890 C861 0.947 . S
H891 C862 0.948 . S
H892 C868 0.982 . S
H893 C868 0.979 . S
H894 C868 0.977 . S
H895 C869 0.979 . S
H896 C869 0.980 . S
H897 C869 0.983 . S
H898 C842 0.947 . S
C899 C842 1.392 . S
C899 C843 1.419 . S
C899 H881 0.948 . S
C900 C901 1.391 . S
C900 C904 1.391 . S
C900 H942 0.948 . S
C901 C900 1.391 . S
C901 C902 1.391 . S
C902 C901 1.391 . S
C902 H958 0.947 . S
C902 C959 1.392 . S
C903 C904 1.391 . S
C903 C907 1.397 . S
C903 C959 1.419 . S
C904 C900 1.391 . S
C904 C903 1.391 . S
C904 C905 1.399 . S
C905 C904 1.399 . S
C905 C908 1.396 . S
C905 C917 1.453 . S
C905 C918 1.684 . S
H906 C930 0.948 . S
C907 C903 1.397 . S
C907 C908 1.394 . S
C907 C926 1.723 . S
C908 C905 1.396 . S
C908 C907 1.394 . S
C908 C938 1.723 . S
H909 C932 0.947 . S
H910 C933 0.948 . S
H911 C939 0.982 . S
H912 C940 0.979 . S
H913 C940 0.980 . S
H914 C940 0.983 . S
H915 C939 0.979 . S
H916 C939 0.977 . S
C917 C905 1.453 . S
C917 H946 0.982 . S
C917 H947 0.979 . S
C917 H948 0.977 . S
C918 C905 1.684 . S
C918 H943 0.979 . S
C918 H944 0.980 . S
C918 H945 0.983 . S
C919 C920 1.391 . S
C919 C924 1.391 . S
C919 H949 0.948 . S
C920 C919 1.391 . S
C920 C921 1.391 . S
C921 C920 1.391 . S
C921 C922 1.392 . S
C921 H950 0.947 . S
C922 C921 1.392 . S
C922 C923 1.419 . S
C922 H951 0.948 . S
C923 C922 1.419 . S
C923 C924 1.391 . S
C923 C927 1.397 . S
C924 C919 1.391 . S
C924 C923 1.391 . S
C924 C925 1.399 . S
C925 C924 1.399 . S
C925 C926 1.396 . S
C925 C928 1.453 . S
C925 C929 1.684 . S
C926 C907 1.723 . S
C926 C925 1.396 . S
C926 C927 1.394 . S
C927 C923 1.397 . S
C927 C926 1.394 . S
C927 C937 1.723 . S
C928 C925 1.453 . S
C928 H952 0.982 . S
C928 H953 0.979 . S
C928 H954 0.977 . S
C929 C925 1.684 . S
C929 H955 0.979 . S
C929 H956 0.980 . S
C929 H957 0.983 . S
C930 H906 0.948 . S
C930 C931 1.391 . S
C930 C935 1.391 . S
C931 C930 1.391 . S
C931 C932 1.391 . S
C932 H909 0.947 . S
C932 C931 1.391 . S
C932 C933 1.392 . S
C933 H910 0.948 . S
C933 C932 1.392 . S
C933 C934 1.419 . S
C934 C933 1.419 . S
C934 C935 1.391 . S
C934 C938 1.397 . S
C935 C930 1.391 . S
C935 C934 1.391 . S
C935 C936 1.399 . S
C936 C935 1.399 . S
C936 C937 1.396 . S
C936 C939 1.453 . S
C936 C940 1.684 . S
C937 C927 1.723 . S
C937 C936 1.396 . S
C937 C938 1.394 . S
C938 C908 1.723 . S
C938 C934 1.397 . S
C938 C937 1.394 . S
C939 H911 0.982 . S
C939 H915 0.979 . S
C939 H916 0.977 . S
C939 C936 1.453 . S
C940 H912 0.979 . S
C940 H913 0.980 . S
C940 H914 0.983 . S
C940 C936 1.684 . S
H941 C959 0.948 . S
H942 C900 0.948 . S
H943 C918 0.979 . S
H944 C918 0.980 . S
H945 C918 0.983 . S
H946 C917 0.982 . S
H947 C917 0.979 . S
H948 C917 0.977 . S
H949 C919 0.948 . S
H950 C921 0.947 . S
H951 C922 0.948 . S
H952 C928 0.982 . S
H953 C928 0.979 . S
H954 C928 0.977 . S
H955 C929 0.979 . S
H956 C929 0.980 . S
H957 C929 0.983 . S
H958 C902 0.947 . S
C959 C902 1.392 . S
C959 C903 1.419 . S
C959 H941 0.948 . S
C960 C961 1.391 . S
C960 C964 1.391 . S
C960 H1002 0.948 . S
C961 C960 1.391 . S
C961 C962 1.391 . S
C962 C961 1.391 . S
C962 H1018 0.947 . S
C962 C1019 1.392 . S
C963 C964 1.391 . S
C963 C967 1.397 . S
C963 C1019 1.419 . S
C964 C960 1.391 . S
C964 C963 1.391 . S
C964 C965 1.399 . S
C965 C964 1.399 . S
C965 C968 1.396 . S
C965 C977 1.453 . S
C965 C978 1.684 . S
H966 C990 0.948 . S
C967 C963 1.397 . S
C967 C968 1.394 . S
C967 C986 1.723 . S
C968 C965 1.396 . S
C968 C967 1.394 . S
C968 C998 1.723 . S
H969 C992 0.947 . S
H970 C993 0.948 . S
H971 C999 0.982 . S
H972 C1000 0.979 . S
H973 C1000 0.980 . S
H974 C1000 0.983 . S
H975 C999 0.979 . S
H976 C999 0.977 . S
C977 C965 1.453 . S
C977 H1006 0.982 . S
C977 H1007 0.979 . S
C977 H1008 0.977 . S
C978 C965 1.684 . S
C978 H1003 0.979 . S
C978 H1004 0.980 . S
C978 H1005 0.983 . S
C979 C980 1.391 . S
C979 C984 1.391 . S
C979 H1009 0.948 . S
C980 C979 1.391 . S
C980 C981 1.391 . S
C981 C980 1.391 . S
C981 C982 1.392 . S
C981 H1010 0.947 . S
C982 C981 1.392 . S
C982 C983 1.419 . S
C982 H1011 0.948 . S
C983 C982 1.419 . S
C983 C984 1.391 . S
C983 C987 1.397 . S
C984 C979 1.391 . S
C984 C983 1.391 . S
C984 C985 1.399 . S
C985 C984 1.399 . S
C985 C986 1.396 . S
C985 C988 1.453 . S
C985 C989 1.684 . S
C986 C967 1.723 . S
C986 C985 1.396 . S
C986 C987 1.394 . S
C987 C983 1.397 . S
C987 C986 1.394 . S
C987 C997 1.723 . S
C988 C985 1.453 . S
C988 H1012 0.982 . S
C988 H1013 0.979 . S
C988 H1014 0.977 . S
C989 C985 1.684 . S
C989 H1015 0.979 . S
C989 H1016 0.980 . S
C989 H1017 0.983 . S
C990 H966 0.948 . S
C990 C991 1.391 . S
C990 C995 1.391 . S
C991 C990 1.391 . S
C991 C992 1.391 . S
C992 H969 0.947 . S
C992 C991 1.391 . S
C992 C993 1.392 . S
C993 H970 0.948 . S
C993 C992 1.392 . S
C993 C994 1.419 . S
C994 C993 1.419 . S
C994 C995 1.391 . S
C994 C998 1.397 . S
C995 C990 1.391 . S
C995 C994 1.391 . S
C995 C996 1.399 . S
C996 C995 1.399 . S
C996 C997 1.396 . S
C996 C999 1.453 . S
C996 C1000 1.684 . S
C997 C987 1.723 . S
C997 C996 1.396 . S
C997 C998 1.394 . S
C998 C968 1.723 . S
C998 C994 1.397 . S
C998 C997 1.394 . S
C999 H971 0.982 . S
C999 H975 0.979 . S
C999 H976 0.977 . S
C999 C996 1.453 . S
C1000 H972 0.979 . S
C1000 H973 0.980 . S
C1000 H974 0.983 . S
C1000 C996 1.684 . S
H1001 C1019 0.948 . S
H1002 C960 0.948 . S
H1003 C978 0.979 . S
H1004 C978 0.980 . S
H1005 C978 0.983 . S
H1006 C977 0.982 . S
H1007 C977 0.979 . S
H1008 C977 0.977 . S
H1009 C979 0.948 . S
H1010 C981 0.947 . S
H1011 C982 0.948 . S
H1012 C988 0.982 . S
H1013 C988 0.979 . S
H1014 C988 0.977 . S
H1015 C989 0.979 . S
H1016 C989 0.980 . S
H1017 C989 0.983 . S
H1018 C962 0.947 . S
C1019 C962 1.392 . S
C1019 C963 1.419 . S
C1019 H1001 0.948 . S
C1020 C1021 1.391 . S
C1020 C1024 1.391 . S
C1020 H1062 0.948 . S
C1021 C1020 1.391 . S
C1021 C1022 1.391 . S
C1022 C1021 1.391 . S
C1022 H1078 0.947 . S
C1022 C1079 1.392 . S
C1023 C1024 1.391 . S
C1023 C1027 1.397 . S
C1023 C1079 1.419 . S
C1024 C1020 1.391 . S
C1024 C1023 1.391 . S
C1024 C1025 1.399 . S
C1025 C1024 1.399 . S
C1025 C1028 1.396 . S
C1025 C1037 1.453 . S
C1025 C1038 1.684 . S
H1026 C1050 0.948 . S
C1027 C1023 1.397 . S
C1027 C1028 1.394 . S
C1027 C1046 1.723 . S
C1028 C1025 1.396 . S
C1028 C1027 1.394 . S
C1028 C1058 1.723 . S
H1029 C1052 0.947 . S
H1030 C1053 0.948 . S
H1031 C1059 0.982 . S
H1032 C1060 0.979 . S
H1033 C1060 0.980 . S
H1034 C1060 0.983 . S
H1035 C1059 0.979 . S
H1036 C1059 0.977 . S
C1037 C1025 1.453 . S
C1037 H1066 0.982 . S
C1037 H1067 0.979 . S
C1037 H1068 0.977 . S
C1038 C1025 1.684 . S
C1038 H1063 0.979 . S
C1038 H1064 0.980 . S
C1038 H1065 0.983 . S
C1039 C1040 1.391 . S
C1039 C1044 1.391 . S
C1039 H1069 0.948 . S
C1040 C1039 1.391 . S
C1040 C1041 1.391 . S
C1041 C1040 1.391 . S
C1041 C1042 1.392 . S
C1041 H1070 0.947 . S
C1042 C1041 1.392 . S
C1042 C1043 1.419 . S
C1042 H1071 0.948 . S
C1043 C1042 1.419 . S
C1043 C1044 1.391 . S
C1043 C1047 1.397 . S
C1044 C1039 1.391 . S
C1044 C1043 1.391 . S
C1044 C1045 1.399 . S
C1045 C1044 1.399 . S
C1045 C1046 1.396 . S
C1045 C1048 1.453 . S
C1045 C1049 1.684 . S
C1046 C1027 1.723 . S
C1046 C1045 1.396 . S
C1046 C1047 1.394 . S
C1047 C1043 1.397 . S
C1047 C1046 1.394 . S
C1047 C1057 1.723 . S
C1048 C1045 1.453 . S
C1048 H1072 0.982 . S
C1048 H1073 0.979 . S
C1048 H1074 0.977 . S
C1049 C1045 1.684 . S
C1049 H1075 0.979 . S
C1049 H1076 0.980 . S
C1049 H1077 0.983 . S
C1050 H1026 0.948 . S
C1050 C1051 1.391 . S
C1050 C1055 1.391 . S
C1051 C1050 1.391 . S
C1051 C1052 1.391 . S
C1052 H1029 0.947 . S
C1052 C1051 1.391 . S
C1052 C1053 1.392 . S
C1053 H1030 0.948 . S
C1053 C1052 1.392 . S
C1053 C1054 1.419 . S
C1054 C1053 1.419 . S
C1054 C1055 1.391 . S
C1054 C1058 1.397 . S
C1055 C1050 1.391 . S
C1055 C1054 1.391 . S
C1055 C1056 1.399 . S
C1056 C1055 1.399 . S
C1056 C1057 1.396 . S
C1056 C1059 1.453 . S
C1056 C1060 1.684 . S
C1057 C1047 1.723 . S
C1057 C1056 1.396 . S
C1057 C1058 1.394 . S
C1058 C1028 1.723 . S
C1058 C1054 1.397 . S
C1058 C1057 1.394 . S
C1059 H1031 0.982 . S
C1059 H1035 0.979 . S
C1059 H1036 0.977 . S
C1059 C1056 1.453 . S
C1060 H1032 0.979 . S
C1060 H1033 0.980 . S
C1060 H1034 0.983 . S
C1060 C1056 1.684 . S
H1061 C1079 0.948 . S
H1062 C1020 0.948 . S
H1063 C1038 0.979 . S
H1064 C1038 0.980 . S
H1065 C1038 0.983 . S
H1066 C1037 0.982 . S
H1067 C1037 0.979 . S
H1068 C1037 0.977 . S
H1069 C1039 0.948 . S
H1070 C1041 0.947 . S
H1071 C1042 0.948 . S
H1072 C1048 0.982 . S
H1073 C1048 0.979 . S
H1074 C1048 0.977 . S
H1075 C1049 0.979 . S
H1076 C1049 0.980 . S
H1077 C1049 0.983 . S
H1078 C1022 0.947 . S
C1079 C1022 1.392 . S
C1079 C1023 1.419 . S
C1079 H1061 0.948 . S
Eu1080 N1111 2.657 . S
Eu1080 N1118 2.609 . S
Eu1080 O1124 2.558 . S
Eu1080 O1125 2.612 1_565 S
Eu1080 O1127 2.339 1_565 S
Eu1080 O1128 2.563 1_565 S
Eu1080 O1129 2.419 . S
Eu1080 O1131 2.380 1_556 S
Eu1080 O1132 2.432 . S
Eu1080 C1144 2.848 . S
C1081 C1084 1.429 . S
C1081 C1085 1.411 . S
C1081 N1088 1.377 . S
C1082 C1084 1.420 . S
C1082 C1086 1.423 . S
C1082 C1094 1.392 . S
C1083 C1085 1.420 . S
C1083 C1086 1.351 . S
C1083 H1106 0.931 . S
C1084 C1081 1.429 . S
C1084 C1082 1.420 . S
C1084 N1092 1.362 . S
C1085 C1081 1.411 . S
C1085 C1083 1.420 . S
C1085 C1090 1.395 . S
C1086 C1082 1.423 . S
C1086 C1083 1.351 . S
C1086 H1098 0.930 . S
C1087 C1089 1.400 . S
C1087 C1090 1.386 . S
C1087 H1099 0.930 . S
N1088 C1081 1.377 . S
N1088 C1089 1.321 . S
N1088 Eu1091 2.609 . S
C1089 C1087 1.400 . S
C1089 N1088 1.321 . S
C1089 H1096 0.930 . S
C1090 C1085 1.395 . S
C1090 C1087 1.386 . S
C1090 H1109 0.930 . S
Eu1091 N1088 2.609 . S
Eu1091 N1092 2.657 . S
Eu1091 O1125 2.380 1_554 S
Eu1091 O1126 2.432 . S
Eu1091 O1130 2.558 . S
Eu1091 O1131 2.612 1_545 S
Eu1091 O1133 2.339 1_545 S
Eu1091 O1134 2.563 1_545 S
Eu1091 O1135 2.419 . S
Eu1091 C1155 2.848 . S
N1092 C1084 1.362 . S
N1092 Eu1091 2.657 . S
N1092 C1093 1.334 . S
C1093 N1092 1.334 . S
C1093 C1095 1.413 . S
C1093 H1100 0.929 . S
C1094 C1082 1.392 . S
C1094 C1095 1.367 . S
C1094 H1102 0.930 . S
C1095 C1093 1.413 . S
C1095 C1094 1.367 . S
C1095 H1097 0.930 . S
H1096 C1089 0.930 . S
H1097 C1095 0.930 . S
H1098 C1086 0.930 . S
H1099 C1087 0.930 . S
H1100 C1093 0.929 . S
H1101 C1115 0.930 . S
H1102 C1094 0.930 . S
H1103 C1121 0.930 . S
H1104 C1112 0.929 . S
H1105 C1119 0.930 . S
H1106 C1083 0.931 . S
H1107 C1113 0.930 . S
H1108 C1146 0.930 . S
H1109 C1090 0.930 . S
H1110 C1145 0.931 . S
N1111 Eu1080 2.657 . S
N1111 C1112 1.334 . S
N1111 C1116 1.362 . S
C1112 H1104 0.929 . S
C1112 N1111 1.334 . S
C1112 C1115 1.413 . S
C1113 H1107 0.930 . S
C1113 C1114 1.392 . S
C1113 C1115 1.367 . S
C1114 C1113 1.392 . S
C1114 C1116 1.420 . S
C1114 C1146 1.423 . S
C1115 H1101 0.930 . S
C1115 C1112 1.413 . S
C1115 C1113 1.367 . S
C1116 N1111 1.362 . S
C1116 C1114 1.420 . S
C1116 C1120 1.429 . S
H1117 C1122 0.930 . S
N1118 Eu1080 2.609 . S
N1118 C1120 1.377 . S
N1118 C1121 1.321 . S
C1119 H1105 0.930 . S
C1119 C1121 1.400 . S
C1119 C1122 1.386 . S
C1120 C1116 1.429 . S
C1120 N1118 1.377 . S
C1120 C1123 1.411 . S
C1121 H1103 0.930 . S
C1121 N1118 1.321 . S
C1121 C1119 1.400 . S
C1122 H1117 0.930 . S
C1122 C1119 1.386 . S
C1122 C1123 1.395 . S
C1123 C1120 1.411 . S
C1123 C1122 1.395 . S
C1123 C1145 1.420 . S
O1124 Eu1080 2.558 . S
O1124 C1144 1.257 . S
O1125 Eu1080 2.612 1_545 S
O1125 Eu1091 2.380 1_556 S
O1125 C1136 1.276 . S
O1126 Eu1091 2.432 . S
O1126 C1143 1.264 1_554 S
O1127 Eu1080 2.339 1_545 S
O1127 C1143 1.254 . S
O1128 Eu1080 2.563 1_545 S
O1128 C1136 1.235 . S
O1129 Eu1080 2.419 . S
O1129 C1144 1.249 . S
O1130 Eu1091 2.558 . S
O1130 C1155 1.257 . S
O1131 Eu1080 2.380 1_554 S
O1131 Eu1091 2.612 1_565 S
O1131 C1147 1.276 . S
O1132 Eu1080 2.432 . S
O1132 C1154 1.264 1_556 S
O1133 Eu1091 2.339 1_565 S
O1133 C1154 1.254 . S
O1134 Eu1091 2.563 1_565 S
O1134 C1147 1.235 . S
O1135 Eu1091 2.419 . S
O1135 C1155 1.249 . S
C1136 O1125 1.276 . S
C1136 O1128 1.235 . S
C1137 C1139 1.393 1_565 S
C1137 C1141 1.395 . S
C1137 C1144 1.492 . S
C1138 C1139 1.392 . S
C1138 C1140 1.386 1_545 S
C1139 C1137 1.393 1_545 S
C1139 C1138 1.392 . S
C1139 H1156 0.930 . S
C1140 C1138 1.386 1_565 S
C1140 C1142 1.395 . S
C1140 H1157 0.930 . S
C1141 C1137 1.395 . S
C1141 C1142 1.379 . S
C1141 H1158 0.930 . S
C1142 C1140 1.395 . S
C1142 C1141 1.379 . S
C1142 H1159 0.930 . S
C1143 O1126 1.264 1_556 S
C1143 O1127 1.254 . S
C1144 Eu1080 2.848 . S
C1144 O1124 1.257 . S
C1144 O1129 1.249 . S
C1144 C1137 1.492 . S
C1145 H1110 0.931 . S
C1145 C1123 1.420 . S
C1145 C1146 1.351 . S
C1146 H1108 0.930 . S
C1146 C1114 1.423 . S
C1146 C1145 1.351 . S
C1147 O1131 1.276 . S
C1147 O1134 1.235 . S
C1148 C1149 1.393 1_545 S
C1148 C1152 1.395 . S
C1148 C1155 1.492 . S
C1149 C1148 1.393 1_565 S
C1149 C1150 1.392 . S
C1149 H1160 0.930 . S
C1150 C1149 1.392 . S
C1150 C1151 1.386 1_565 S
C1151 C1150 1.386 1_545 S
C1151 C1153 1.395 . S
C1151 H1161 0.930 . S
C1152 C1148 1.395 . S
C1152 C1153 1.379 . S
C1152 H1162 0.930 . S
C1153 C1151 1.395 . S
C1153 C1152 1.379 . S
C1153 H1163 0.930 . S
C1154 O1132 1.264 1_554 S
C1154 O1133 1.254 . S
C1155 Eu1091 2.848 . S
C1155 O1130 1.257 . S
C1155 O1135 1.249 . S
C1155 C1148 1.492 . S
H1156 C1139 0.930 . S
H1157 C1140 0.930 . S
H1158 C1141 0.930 . S
H1159 C1142 0.930 . S
H1160 C1149 0.930 . S
H1161 C1151 0.930 . S
H1162 C1152 0.930 . S
H1163 C1153 0.930 . S
Eu1164 N1195 2.657 . S
Eu1164 N1202 2.609 . S
Eu1164 O1208 2.558 . S
Eu1164 O1209 2.612 1_455 S
Eu1164 O1211 2.339 1_455 S
Eu1164 O1212 2.563 1_455 S
Eu1164 O1213 2.419 . S
Eu1164 O1215 2.380 1_556 S
Eu1164 O1216 2.432 . S
Eu1164 C1228 2.848 . S
C1165 C1168 1.429 . S
C1165 C1169 1.411 . S
C1165 N1172 1.377 . S
C1166 C1168 1.420 . S
C1166 C1170 1.423 . S
C1166 C1178 1.392 . S
C1167 C1169 1.420 . S
C1167 C1170 1.351 . S
C1167 H1190 0.931 . S
C1168 C1165 1.429 . S
C1168 C1166 1.420 . S
C1168 N1176 1.362 . S
C1169 C1165 1.411 . S
C1169 C1167 1.420 . S
C1169 C1174 1.395 . S
C1170 C1166 1.423 . S
C1170 C1167 1.351 . S
C1170 H1182 0.930 . S
C1171 C1173 1.400 . S
C1171 C1174 1.386 . S
C1171 H1183 0.930 . S
N1172 C1165 1.377 . S
N1172 C1173 1.321 . S
N1172 Eu1175 2.609 . S
C1173 C1171 1.400 . S
C1173 N1172 1.321 . S
C1173 H1180 0.930 . S
C1174 C1169 1.395 . S
C1174 C1171 1.386 . S
C1174 H1193 0.930 . S
Eu1175 N1172 2.609 . S
Eu1175 N1176 2.657 . S
Eu1175 O1209 2.380 1_554 S
Eu1175 O1210 2.432 . S
Eu1175 O1214 2.558 . S
Eu1175 O1215 2.612 1_655 S
Eu1175 O1217 2.339 1_655 S
Eu1175 O1218 2.563 1_655 S
Eu1175 O1219 2.419 . S
Eu1175 C1239 2.848 . S
N1176 C1168 1.362 . S
N1176 Eu1175 2.657 . S
N1176 C1177 1.334 . S
C1177 N1176 1.334 . S
C1177 C1179 1.413 . S
C1177 H1184 0.929 . S
C1178 C1166 1.392 . S
C1178 C1179 1.367 . S
C1178 H1186 0.930 . S
C1179 C1177 1.413 . S
C1179 C1178 1.367 . S
C1179 H1181 0.930 . S
H1180 C1173 0.930 . S
H1181 C1179 0.930 . S
H1182 C1170 0.930 . S
H1183 C1171 0.930 . S
H1184 C1177 0.929 . S
H1185 C1199 0.930 . S
H1186 C1178 0.930 . S
H1187 C1205 0.930 . S
H1188 C1196 0.929 . S
H1189 C1203 0.930 . S
H1190 C1167 0.931 . S
H1191 C1197 0.930 . S
H1192 C1230 0.930 . S
H1193 C1174 0.930 . S
H1194 C1229 0.931 . S
N1195 Eu1164 2.657 . S
N1195 C1196 1.334 . S
N1195 C1200 1.362 . S
C1196 H1188 0.929 . S
C1196 N1195 1.334 . S
C1196 C1199 1.413 . S
C1197 H1191 0.930 . S
C1197 C1198 1.392 . S
C1197 C1199 1.367 . S
C1198 C1197 1.392 . S
C1198 C1200 1.420 . S
C1198 C1230 1.423 . S
C1199 H1185 0.930 . S
C1199 C1196 1.413 . S
C1199 C1197 1.367 . S
C1200 N1195 1.362 . S
C1200 C1198 1.420 . S
C1200 C1204 1.429 . S
H1201 C1206 0.930 . S
N1202 Eu1164 2.609 . S
N1202 C1204 1.377 . S
N1202 C1205 1.321 . S
C1203 H1189 0.930 . S
C1203 C1205 1.400 . S
C1203 C1206 1.386 . S
C1204 C1200 1.429 . S
C1204 N1202 1.377 . S
C1204 C1207 1.411 . S
C1205 H1187 0.930 . S
C1205 N1202 1.321 . S
C1205 C1203 1.400 . S
C1206 H1201 0.930 . S
C1206 C1203 1.386 . S
C1206 C1207 1.395 . S
C1207 C1204 1.411 . S
C1207 C1206 1.395 . S
C1207 C1229 1.420 . S
O1208 Eu1164 2.558 . S
O1208 C1228 1.257 . S
O1209 Eu1164 2.612 1_655 S
O1209 Eu1175 2.380 1_556 S
O1209 C1220 1.276 . S
O1210 Eu1175 2.432 . S
O1210 C1227 1.264 1_554 S
O1211 Eu1164 2.339 1_655 S
O1211 C1227 1.254 . S
O1212 Eu1164 2.563 1_655 S
O1212 C1220 1.235 . S
O1213 Eu1164 2.419 . S
O1213 C1228 1.249 . S
O1214 Eu1175 2.558 . S
O1214 C1239 1.257 . S
O1215 Eu1164 2.380 1_554 S
O1215 Eu1175 2.612 1_455 S
O1215 C1231 1.276 . S
O1216 Eu1164 2.432 . S
O1216 C1238 1.264 1_556 S
O1217 Eu1175 2.339 1_455 S
O1217 C1238 1.254 . S
O1218 Eu1175 2.563 1_455 S
O1218 C1231 1.235 . S
O1219 Eu1175 2.419 . S
O1219 C1239 1.249 . S
C1220 O1209 1.276 . S
C1220 O1212 1.235 . S
C1221 C1223 1.393 1_455 S
C1221 C1225 1.395 . S
C1221 C1228 1.492 . S
C1222 C1223 1.392 . S
C1222 C1224 1.386 1_655 S
C1223 C1221 1.393 1_655 S
C1223 C1222 1.392 . S
C1223 H1240 0.930 . S
C1224 C1222 1.386 1_455 S
C1224 C1226 1.395 . S
C1224 H1241 0.930 . S
C1225 C1221 1.395 . S
C1225 C1226 1.379 . S
C1225 H1242 0.930 . S
C1226 C1224 1.395 . S
C1226 C1225 1.379 . S
C1226 H1243 0.930 . S
C1227 O1210 1.264 1_556 S
C1227 O1211 1.254 . S
C1228 Eu1164 2.848 . S
C1228 O1208 1.257 . S
C1228 O1213 1.249 . S
C1228 C1221 1.492 . S
C1229 H1194 0.931 . S
C1229 C1207 1.420 . S
C1229 C1230 1.351 . S
C1230 H1192 0.930 . S
C1230 C1198 1.423 . S
C1230 C1229 1.351 . S
C1231 O1215 1.276 . S
C1231 O1218 1.235 . S
C1232 C1233 1.393 1_655 S
C1232 C1236 1.395 . S
C1232 C1239 1.492 . S
C1233 C1232 1.393 1_455 S
C1233 C1234 1.392 . S
C1233 H1244 0.930 . S
C1234 C1233 1.392 . S
C1234 C1235 1.386 1_455 S
C1235 C1234 1.386 1_655 S
C1235 C1237 1.395 . S
C1235 H1245 0.930 . S
C1236 C1232 1.395 . S
C1236 C1237 1.379 . S
C1236 H1246 0.930 . S
C1237 C1235 1.395 . S
C1237 C1236 1.379 . S
C1237 H1247 0.930 . S
C1238 O1216 1.264 1_554 S
C1238 O1217 1.254 . S
C1239 Eu1175 2.848 . S
C1239 O1214 1.257 . S
C1239 O1219 1.249 . S
C1239 C1232 1.492 . S
H1240 C1223 0.930 . S
H1241 C1224 0.930 . S
H1242 C1225 0.930 . S
H1243 C1226 0.930 . S
H1244 C1233 0.930 . S
H1245 C1235 0.930 . S
H1246 C1236 0.930 . S
H1247 C1237 0.930 . S
Eu1248 N1279 2.657 . S
Eu1248 N1286 2.609 . S
Eu1248 O1292 2.558 . S
Eu1248 O1293 2.612 . S
Eu1248 O1295 2.339 . S
Eu1248 O1296 2.563 . S
Eu1248 O1297 2.419 . S
Eu1248 O1299 2.380 1_554 S
Eu1248 O1300 2.432 . S
Eu1248 C1312 2.848 . S
C1249 C1252 1.429 . S
C1249 C1253 1.411 . S
C1249 N1256 1.377 . S
C1250 C1252 1.420 . S
C1250 C1254 1.423 . S
C1250 C1262 1.392 . S
C1251 C1253 1.420 . S
C1251 C1254 1.351 . S
C1251 H1274 0.931 . S
C1252 C1249 1.429 . S
C1252 C1250 1.420 . S
C1252 N1260 1.362 . S
C1253 C1249 1.411 . S
C1253 C1251 1.420 . S
C1253 C1258 1.395 . S
C1254 C1250 1.423 . S
C1254 C1251 1.351 . S
C1254 H1266 0.930 . S
C1255 C1257 1.400 . S
C1255 C1258 1.386 . S
C1255 H1267 0.930 . S
N1256 C1249 1.377 . S
N1256 C1257 1.321 . S
N1256 Eu1259 2.609 . S
C1257 C1255 1.400 . S
C1257 N1256 1.321 . S
C1257 H1264 0.930 . S
C1258 C1253 1.395 . S
C1258 C1255 1.386 . S
C1258 H1277 0.930 . S
Eu1259 N1256 2.609 . S
Eu1259 N1260 2.657 . S
Eu1259 O1293 2.380 1_556 S
Eu1259 O1294 2.432 . S
Eu1259 O1298 2.558 . S
Eu1259 O1299 2.612 . S
Eu1259 O1301 2.339 . S
Eu1259 O1302 2.563 . S
Eu1259 O1303 2.419 . S
Eu1259 C1323 2.848 . S
N1260 C1252 1.362 . S
N1260 Eu1259 2.657 . S
N1260 C1261 1.334 . S
C1261 N1260 1.334 . S
C1261 C1263 1.413 . S
C1261 H1268 0.929 . S
C1262 C1250 1.392 . S
C1262 C1263 1.367 . S
C1262 H1270 0.930 . S
C1263 C1261 1.413 . S
C1263 C1262 1.367 . S
C1263 H1265 0.930 . S
H1264 C1257 0.930 . S
H1265 C1263 0.930 . S
H1266 C1254 0.930 . S
H1267 C1255 0.930 . S
H1268 C1261 0.929 . S
H1269 C1283 0.930 . S
H1270 C1262 0.930 . S
H1271 C1289 0.930 . S
H1272 C1280 0.929 . S
H1273 C1287 0.930 . S
H1274 C1251 0.931 . S
H1275 C1281 0.930 . S
H1276 C1314 0.930 . S
H1277 C1258 0.930 . S
H1278 C1313 0.931 . S
N1279 Eu1248 2.657 . S
N1279 C1280 1.334 . S
N1279 C1284 1.362 . S
C1280 H1272 0.929 . S
C1280 N1279 1.334 . S
C1280 C1283 1.413 . S
C1281 H1275 0.930 . S
C1281 C1282 1.392 . S
C1281 C1283 1.367 . S
C1282 C1281 1.392 . S
C1282 C1284 1.420 . S
C1282 C1314 1.423 . S
C1283 H1269 0.930 . S
C1283 C1280 1.413 . S
C1283 C1281 1.367 . S
C1284 N1279 1.362 . S
C1284 C1282 1.420 . S
C1284 C1288 1.429 . S
H1285 C1290 0.930 . S
N1286 Eu1248 2.609 . S
N1286 C1288 1.377 . S
N1286 C1289 1.321 . S
C1287 H1273 0.930 . S
C1287 C1289 1.400 . S
C1287 C1290 1.386 . S
C1288 C1284 1.429 . S
C1288 N1286 1.377 . S
C1288 C1291 1.411 . S
C1289 H1271 0.930 . S
C1289 N1286 1.321 . S
C1289 C1287 1.400 . S
C1290 H1285 0.930 . S
C1290 C1287 1.386 . S
C1290 C1291 1.395 . S
C1291 C1288 1.411 . S
C1291 C1290 1.395 . S
C1291 C1313 1.420 . S
O1292 Eu1248 2.558 . S
O1292 C1312 1.257 . S
O1293 Eu1248 2.612 . S
O1293 Eu1259 2.380 1_554 S
O1293 C1304 1.276 . S
O1294 Eu1259 2.432 . S
O1294 C1311 1.264 1_556 S
O1295 Eu1248 2.339 . S
O1295 C1311 1.254 . S
O1296 Eu1248 2.563 . S
O1296 C1304 1.235 . S
O1297 Eu1248 2.419 . S
O1297 C1312 1.249 . S
O1298 Eu1259 2.558 . S
O1298 C1323 1.257 . S
O1299 Eu1248 2.380 1_556 S
O1299 Eu1259 2.612 . S
O1299 C1315 1.276 . S
O1300 Eu1248 2.432 . S
O1300 C1322 1.264 1_554 S
O1301 Eu1259 2.339 . S
O1301 C1322 1.254 . S
O1302 Eu1259 2.563 . S
O1302 C1315 1.235 . S
O1303 Eu1259 2.419 . S
O1303 C1323 1.249 . S
C1304 O1293 1.276 . S
C1304 O1296 1.235 . S
C1305 C1307 1.393 . S
C1305 C1309 1.395 . S
C1305 C1312 1.492 . S
C1306 C1307 1.392 . S
C1306 C1308 1.386 . S
C1307 C1305 1.393 . S
C1307 C1306 1.392 . S
C1307 H1324 0.930 . S
C1308 C1306 1.386 . S
C1308 C1310 1.395 . S
C1308 H1325 0.930 . S
C1309 C1305 1.395 . S
C1309 C1310 1.379 . S
C1309 H1326 0.930 . S
C1310 C1308 1.395 . S
C1310 C1309 1.379 . S
C1310 H1327 0.930 . S
C1311 O1294 1.264 1_554 S
C1311 O1295 1.254 . S
C1312 Eu1248 2.848 . S
C1312 O1292 1.257 . S
C1312 O1297 1.249 . S
C1312 C1305 1.492 . S
C1313 H1278 0.931 . S
C1313 C1291 1.420 . S
C1313 C1314 1.351 . S
C1314 H1276 0.930 . S
C1314 C1282 1.423 . S
C1314 C1313 1.351 . S
C1315 O1299 1.276 . S
C1315 O1302 1.235 . S
C1316 C1317 1.393 . S
C1316 C1320 1.395 . S
C1316 C1323 1.492 . S
C1317 C1316 1.393 . S
C1317 C1318 1.392 . S
C1317 H1328 0.930 . S
C1318 C1317 1.392 . S
C1318 C1319 1.386 . S
C1319 C1318 1.386 . S
C1319 C1321 1.395 . S
C1319 H1329 0.930 . S
C1320 C1316 1.395 . S
C1320 C1321 1.379 . S
C1320 H1330 0.930 . S
C1321 C1319 1.395 . S
C1321 C1320 1.379 . S
C1321 H1331 0.930 . S
C1322 O1300 1.264 1_556 S
C1322 O1301 1.254 . S
C1323 Eu1259 2.848 . S
C1323 O1298 1.257 . S
C1323 O1303 1.249 . S
C1323 C1316 1.492 . S
H1324 C1307 0.930 . S
H1325 C1308 0.930 . S
H1326 C1309 0.930 . S
H1327 C1310 0.930 . S
H1328 C1317 0.930 . S
H1329 C1319 0.930 . S
H1330 C1320 0.930 . S
H1331 C1321 0.930 . S
Eu1332 N1363 2.657 . S
Eu1332 N1370 2.609 . S
Eu1332 O1376 2.558 . S
Eu1332 O1377 2.612 . S
Eu1332 O1379 2.339 . S
Eu1332 O1380 2.563 . S
Eu1332 O1381 2.419 . S
Eu1332 O1383 2.380 . S
Eu1332 O1384 2.432 . S
Eu1332 C1396 2.848 . S
C1333 C1336 1.429 . S
C1333 C1337 1.411 . S
C1333 N1340 1.377 . S
C1334 C1336 1.420 . S
C1334 C1338 1.423 . S
C1334 C1346 1.392 . S
C1335 C1337 1.420 . S
C1335 C1338 1.351 . S
C1335 H1358 0.931 . S
C1336 C1333 1.429 . S
C1336 C1334 1.420 . S
C1336 N1344 1.362 . S
C1337 C1333 1.411 . S
C1337 C1335 1.420 . S
C1337 C1342 1.395 . S
C1338 C1334 1.423 . S
C1338 C1335 1.351 . S
C1338 H1350 0.930 . S
C1339 C1341 1.400 . S
C1339 C1342 1.386 . S
C1339 H1351 0.930 . S
N1340 C1333 1.377 . S
N1340 C1341 1.321 . S
N1340 Eu1343 2.609 . S
C1341 C1339 1.400 . S
C1341 N1340 1.321 . S
C1341 H1348 0.930 . S
C1342 C1337 1.395 . S
C1342 C1339 1.386 . S
C1342 H1361 0.930 . S
Eu1343 N1340 2.609 . S
Eu1343 N1344 2.657 . S
Eu1343 O1377 2.380 . S
Eu1343 O1378 2.432 . S
Eu1343 O1382 2.558 . S
Eu1343 O1383 2.612 . S
Eu1343 O1385 2.339 . S
Eu1343 O1386 2.563 . S
Eu1343 O1387 2.419 . S
Eu1343 C1407 2.848 . S
N1344 C1336 1.362 . S
N1344 Eu1343 2.657 . S
N1344 C1345 1.334 . S
C1345 N1344 1.334 . S
C1345 C1347 1.413 . S
C1345 H1352 0.929 . S
C1346 C1334 1.392 . S
C1346 C1347 1.367 . S
C1346 H1354 0.930 . S
C1347 C1345 1.413 . S
C1347 C1346 1.367 . S
C1347 H1349 0.930 . S
H1348 C1341 0.930 . S
H1349 C1347 0.930 . S
H1350 C1338 0.930 . S
H1351 C1339 0.930 . S
H1352 C1345 0.929 . S
H1353 C1367 0.930 . S
H1354 C1346 0.930 . S
H1355 C1373 0.930 . S
H1356 C1364 0.929 . S
H1357 C1371 0.930 . S
H1358 C1335 0.931 . S
H1359 C1365 0.930 . S
H1360 C1398 0.930 . S
H1361 C1342 0.930 . S
H1362 C1397 0.931 . S
N1363 Eu1332 2.657 . S
N1363 C1364 1.334 . S
N1363 C1368 1.362 . S
C1364 H1356 0.929 . S
C1364 N1363 1.334 . S
C1364 C1367 1.413 . S
C1365 H1359 0.930 . S
C1365 C1366 1.392 . S
C1365 C1367 1.367 . S
C1366 C1365 1.392 . S
C1366 C1368 1.420 . S
C1366 C1398 1.423 . S
C1367 H1353 0.930 . S
C1367 C1364 1.413 . S
C1367 C1365 1.367 . S
C1368 N1363 1.362 . S
C1368 C1366 1.420 . S
C1368 C1372 1.429 . S
H1369 C1374 0.930 . S
N1370 Eu1332 2.609 . S
N1370 C1372 1.377 . S
N1370 C1373 1.321 . S
C1371 H1357 0.930 . S
C1371 C1373 1.400 . S
C1371 C1374 1.386 . S
C1372 C1368 1.429 . S
C1372 N1370 1.377 . S
C1372 C1375 1.411 . S
C1373 H1355 0.930 . S
C1373 N1370 1.321 . S
C1373 C1371 1.400 . S
C1374 H1369 0.930 . S
C1374 C1371 1.386 . S
C1374 C1375 1.395 . S
C1375 C1372 1.411 . S
C1375 C1374 1.395 . S
C1375 C1397 1.420 . S
O1376 Eu1332 2.558 . S
O1376 C1396 1.257 . S
O1377 Eu1332 2.612 . S
O1377 Eu1343 2.380 . S
O1377 C1388 1.276 . S
O1378 Eu1343 2.432 . S
O1378 C1395 1.264 . S
O1379 Eu1332 2.339 . S
O1379 C1395 1.254 . S
O1380 Eu1332 2.563 . S
O1380 C1388 1.235 . S
O1381 Eu1332 2.419 . S
O1381 C1396 1.249 . S
O1382 Eu1343 2.558 . S
O1382 C1407 1.257 . S
O1383 Eu1332 2.380 . S
O1383 Eu1343 2.612 . S
O1383 C1399 1.276 . S
O1384 Eu1332 2.432 . S
O1384 C1406 1.264 . S
O1385 Eu1343 2.339 . S
O1385 C1406 1.254 . S
O1386 Eu1343 2.563 . S
O1386 C1399 1.235 . S
O1387 Eu1343 2.419 . S
O1387 C1407 1.249 . S
C1388 O1377 1.276 . S
C1388 O1380 1.235 . S
C1389 C1391 1.393 . S
C1389 C1393 1.395 . S
C1389 C1396 1.492 . S
C1390 C1391 1.392 . S
C1390 C1392 1.386 . S
C1391 C1389 1.393 . S
C1391 C1390 1.392 . S
C1391 H1408 0.930 . S
C1392 C1390 1.386 . S
C1392 C1394 1.395 . S
C1392 H1409 0.930 . S
C1393 C1389 1.395 . S
C1393 C1394 1.379 . S
C1393 H1410 0.930 . S
C1394 C1392 1.395 . S
C1394 C1393 1.379 . S
C1394 H1411 0.930 . S
C1395 O1378 1.264 . S
C1395 O1379 1.254 . S
C1396 Eu1332 2.848 . S
C1396 O1376 1.257 . S
C1396 O1381 1.249 . S
C1396 C1389 1.492 . S
C1397 H1362 0.931 . S
C1397 C1375 1.420 . S
C1397 C1398 1.351 . S
C1398 H1360 0.930 . S
C1398 C1366 1.423 . S
C1398 C1397 1.351 . S
C1399 O1383 1.276 . S
C1399 O1386 1.235 . S
C1400 C1401 1.393 . S
C1400 C1404 1.395 . S
C1400 C1407 1.492 . S
C1401 C1400 1.393 . S
C1401 C1402 1.392 . S
C1401 H1412 0.930 . S
C1402 C1401 1.392 . S
C1402 C1403 1.386 . S
C1403 C1402 1.386 . S
C1403 C1405 1.395 . S
C1403 H1413 0.930 . S
C1404 C1400 1.395 . S
C1404 C1405 1.379 . S
C1404 H1414 0.930 . S
C1405 C1403 1.395 . S
C1405 C1404 1.379 . S
C1405 H1415 0.930 . S
C1406 O1384 1.264 . S
C1406 O1385 1.254 . S
C1407 Eu1343 2.848 . S
C1407 O1382 1.257 . S
C1407 O1387 1.249 . S
C1407 C1400 1.492 . S
H1408 C1391 0.930 . S
H1409 C1392 0.930 . S
H1410 C1393 0.930 . S
H1411 C1394 0.930 . S
H1412 C1401 0.930 . S
H1413 C1403 0.930 . S
H1414 C1404 0.930 . S
H1415 C1405 0.930 . S
Eu1416 N1447 2.657 . S
Eu1416 N1454 2.609 . S
Eu1416 O1460 2.558 . S
Eu1416 O1461 2.612 . S
Eu1416 O1463 2.339 . S
Eu1416 O1464 2.563 . S
Eu1416 O1465 2.419 . S
Eu1416 O1467 2.380 . S
Eu1416 O1468 2.432 . S
Eu1416 C1480 2.848 . S
C1417 C1420 1.429 . S
C1417 C1421 1.411 . S
C1417 N1424 1.377 . S
C1418 C1420 1.420 . S
C1418 C1422 1.423 . S
C1418 C1430 1.392 . S
C1419 C1421 1.420 . S
C1419 C1422 1.351 . S
C1419 H1442 0.931 . S
C1420 C1417 1.429 . S
C1420 C1418 1.420 . S
C1420 N1428 1.362 . S
C1421 C1417 1.411 . S
C1421 C1419 1.420 . S
C1421 C1426 1.395 . S
C1422 C1418 1.423 . S
C1422 C1419 1.351 . S
C1422 H1434 0.930 . S
C1423 C1425 1.400 . S
C1423 C1426 1.386 . S
C1423 H1435 0.930 . S
N1424 C1417 1.377 . S
N1424 C1425 1.321 . S
N1424 Eu1427 2.609 . S
C1425 C1423 1.400 . S
C1425 N1424 1.321 . S
C1425 H1432 0.930 . S
C1426 C1421 1.395 . S
C1426 C1423 1.386 . S
C1426 H1445 0.930 . S
Eu1427 N1424 2.609 . S
Eu1427 N1428 2.657 . S
Eu1427 O1461 2.380 . S
Eu1427 O1462 2.432 . S
Eu1427 O1466 2.558 . S
Eu1427 O1467 2.612 . S
Eu1427 O1469 2.339 . S
Eu1427 O1470 2.563 . S
Eu1427 O1471 2.419 . S
Eu1427 C1491 2.848 . S
N1428 C1420 1.362 . S
N1428 Eu1427 2.657 . S
N1428 C1429 1.334 . S
C1429 N1428 1.334 . S
C1429 C1431 1.413 . S
C1429 H1436 0.929 . S
C1430 C1418 1.392 . S
C1430 C1431 1.367 . S
C1430 H1438 0.930 . S
C1431 C1429 1.413 . S
C1431 C1430 1.367 . S
C1431 H1433 0.930 . S
H1432 C1425 0.930 . S
H1433 C1431 0.930 . S
H1434 C1422 0.930 . S
H1435 C1423 0.930 . S
H1436 C1429 0.929 . S
H1437 C1451 0.930 . S
H1438 C1430 0.930 . S
H1439 C1457 0.930 . S
H1440 C1448 0.929 . S
H1441 C1455 0.930 . S
H1442 C1419 0.931 . S
H1443 C1449 0.930 . S
H1444 C1482 0.930 . S
H1445 C1426 0.930 . S
H1446 C1481 0.931 . S
N1447 Eu1416 2.657 . S
N1447 C1448 1.334 . S
N1447 C1452 1.362 . S
C1448 H1440 0.929 . S
C1448 N1447 1.334 . S
C1448 C1451 1.413 . S
C1449 H1443 0.930 . S
C1449 C1450 1.392 . S
C1449 C1451 1.367 . S
C1450 C1449 1.392 . S
C1450 C1452 1.420 . S
C1450 C1482 1.423 . S
C1451 H1437 0.930 . S
C1451 C1448 1.413 . S
C1451 C1449 1.367 . S
C1452 N1447 1.362 . S
C1452 C1450 1.420 . S
C1452 C1456 1.429 . S
H1453 C1458 0.930 . S
N1454 Eu1416 2.609 . S
N1454 C1456 1.377 . S
N1454 C1457 1.321 . S
C1455 H1441 0.930 . S
C1455 C1457 1.400 . S
C1455 C1458 1.386 . S
C1456 C1452 1.429 . S
C1456 N1454 1.377 . S
C1456 C1459 1.411 . S
C1457 H1439 0.930 . S
C1457 N1454 1.321 . S
C1457 C1455 1.400 . S
C1458 H1453 0.930 . S
C1458 C1455 1.386 . S
C1458 C1459 1.395 . S
C1459 C1456 1.411 . S
C1459 C1458 1.395 . S
C1459 C1481 1.420 . S
O1460 Eu1416 2.558 . S
O1460 C1480 1.257 . S
O1461 Eu1416 2.612 . S
O1461 Eu1427 2.380 . S
O1461 C1472 1.276 . S
O1462 Eu1427 2.432 . S
O1462 C1479 1.264 . S
O1463 Eu1416 2.339 . S
O1463 C1479 1.254 . S
O1464 Eu1416 2.563 . S
O1464 C1472 1.235 . S
O1465 Eu1416 2.419 . S
O1465 C1480 1.249 . S
O1466 Eu1427 2.558 . S
O1466 C1491 1.257 . S
O1467 Eu1416 2.380 . S
O1467 Eu1427 2.612 . S
O1467 C1483 1.276 . S
O1468 Eu1416 2.432 . S
O1468 C1490 1.264 . S
O1469 Eu1427 2.339 . S
O1469 C1490 1.254 . S
O1470 Eu1427 2.563 . S
O1470 C1483 1.235 . S
O1471 Eu1427 2.419 . S
O1471 C1491 1.249 . S
C1472 O1461 1.276 . S
C1472 O1464 1.235 . S
C1473 C1475 1.393 . S
C1473 C1477 1.395 . S
C1473 C1480 1.492 . S
C1474 C1475 1.392 . S
C1474 C1476 1.386 . S
C1475 C1473 1.393 . S
C1475 C1474 1.392 . S
C1475 H1492 0.930 . S
C1476 C1474 1.386 . S
C1476 C1478 1.395 . S
C1476 H1493 0.930 . S
C1477 C1473 1.395 . S
C1477 C1478 1.379 . S
C1477 H1494 0.930 . S
C1478 C1476 1.395 . S
C1478 C1477 1.379 . S
C1478 H1495 0.930 . S
C1479 O1462 1.264 . S
C1479 O1463 1.254 . S
C1480 Eu1416 2.848 . S
C1480 O1460 1.257 . S
C1480 O1465 1.249 . S
C1480 C1473 1.492 . S
C1481 H1446 0.931 . S
C1481 C1459 1.420 . S
C1481 C1482 1.351 . S
C1482 H1444 0.930 . S
C1482 C1450 1.423 . S
C1482 C1481 1.351 . S
C1483 O1467 1.276 . S
C1483 O1470 1.235 . S
C1484 C1485 1.393 . S
C1484 C1488 1.395 . S
C1484 C1491 1.492 . S
C1485 C1484 1.393 . S
C1485 C1486 1.392 . S
C1485 H1496 0.930 . S
C1486 C1485 1.392 . S
C1486 C1487 1.386 . S
C1487 C1486 1.386 . S
C1487 C1489 1.395 . S
C1487 H1497 0.930 . S
C1488 C1484 1.395 . S
C1488 C1489 1.379 . S
C1488 H1498 0.930 . S
C1489 C1487 1.395 . S
C1489 C1488 1.379 . S
C1489 H1499 0.930 . S
C1490 O1468 1.264 . S
C1490 O1469 1.254 . S
C1491 Eu1427 2.848 . S
C1491 O1466 1.257 . S
C1491 O1471 1.249 . S
C1491 C1484 1.492 . S
H1492 C1475 0.930 . S
H1493 C1476 0.930 . S
H1494 C1477 0.930 . S
H1495 C1478 0.930 . S
H1496 C1485 0.930 . S
H1497 C1487 0.930 . S
H1498 C1488 0.930 . S
H1499 C1489 0.930 . S
Eu1500 N1531 2.657 . S
Eu1500 N1538 2.609 . S
Eu1500 O1544 2.558 . S
Eu1500 O1545 2.612 . S
Eu1500 O1547 2.339 . S
Eu1500 O1548 2.563 . S
Eu1500 O1549 2.419 . S
Eu1500 O1551 2.380 . S
Eu1500 O1552 2.432 . S
Eu1500 C1564 2.848 . S
C1501 C1504 1.429 . S
C1501 C1505 1.411 . S
C1501 N1508 1.377 . S
C1502 C1504 1.420 . S
C1502 C1506 1.423 . S
C1502 C1514 1.392 . S
C1503 C1505 1.420 . S
C1503 C1506 1.351 . S
C1503 H1526 0.931 . S
C1504 C1501 1.429 . S
C1504 C1502 1.420 . S
C1504 N1512 1.362 . S
C1505 C1501 1.411 . S
C1505 C1503 1.420 . S
C1505 C1510 1.395 . S
C1506 C1502 1.423 . S
C1506 C1503 1.351 . S
C1506 H1518 0.930 . S
C1507 C1509 1.400 . S
C1507 C1510 1.386 . S
C1507 H1519 0.930 . S
N1508 C1501 1.377 . S
N1508 C1509 1.321 . S
N1508 Eu1511 2.609 . S
C1509 C1507 1.400 . S
C1509 N1508 1.321 . S
C1509 H1516 0.930 . S
C1510 C1505 1.395 . S
C1510 C1507 1.386 . S
C1510 H1529 0.930 . S
Eu1511 N1508 2.609 . S
Eu1511 N1512 2.657 . S
Eu1511 O1545 2.380 . S
Eu1511 O1546 2.432 . S
Eu1511 O1550 2.558 . S
Eu1511 O1551 2.612 . S
Eu1511 O1553 2.339 . S
Eu1511 O1554 2.563 . S
Eu1511 O1555 2.419 . S
Eu1511 C1575 2.848 . S
N1512 C1504 1.362 . S
N1512 Eu1511 2.657 . S
N1512 C1513 1.334 . S
C1513 N1512 1.334 . S
C1513 C1515 1.413 . S
C1513 H1520 0.929 . S
C1514 C1502 1.392 . S
C1514 C1515 1.367 . S
C1514 H1522 0.930 . S
C1515 C1513 1.413 . S
C1515 C1514 1.367 . S
C1515 H1517 0.930 . S
H1516 C1509 0.930 . S
H1517 C1515 0.930 . S
H1518 C1506 0.930 . S
H1519 C1507 0.930 . S
H1520 C1513 0.929 . S
H1521 C1535 0.930 . S
H1522 C1514 0.930 . S
H1523 C1541 0.930 . S
H1524 C1532 0.929 . S
H1525 C1539 0.930 . S
H1526 C1503 0.931 . S
H1527 C1533 0.930 . S
H1528 C1566 0.930 . S
H1529 C1510 0.930 . S
H1530 C1565 0.931 . S
N1531 Eu1500 2.657 . S
N1531 C1532 1.334 . S
N1531 C1536 1.362 . S
C1532 H1524 0.929 . S
C1532 N1531 1.334 . S
C1532 C1535 1.413 . S
C1533 H1527 0.930 . S
C1533 C1534 1.392 . S
C1533 C1535 1.367 . S
C1534 C1533 1.392 . S
C1534 C1536 1.420 . S
C1534 C1566 1.423 . S
C1535 H1521 0.930 . S
C1535 C1532 1.413 . S
C1535 C1533 1.367 . S
C1536 N1531 1.362 . S
C1536 C1534 1.420 . S
C1536 C1540 1.429 . S
H1537 C1542 0.930 . S
N1538 Eu1500 2.609 . S
N1538 C1540 1.377 . S
N1538 C1541 1.321 . S
C1539 H1525 0.930 . S
C1539 C1541 1.400 . S
C1539 C1542 1.386 . S
C1540 C1536 1.429 . S
C1540 N1538 1.377 . S
C1540 C1543 1.411 . S
C1541 H1523 0.930 . S
C1541 N1538 1.321 . S
C1541 C1539 1.400 . S
C1542 H1537 0.930 . S
C1542 C1539 1.386 . S
C1542 C1543 1.395 . S
C1543 C1540 1.411 . S
C1543 C1542 1.395 . S
C1543 C1565 1.420 . S
O1544 Eu1500 2.558 . S
O1544 C1564 1.257 . S
O1545 Eu1500 2.612 . S
O1545 Eu1511 2.380 . S
O1545 C1556 1.276 . S
O1546 Eu1511 2.432 . S
O1546 C1563 1.264 . S
O1547 Eu1500 2.339 . S
O1547 C1563 1.254 . S
O1548 Eu1500 2.563 . S
O1548 C1556 1.235 . S
O1549 Eu1500 2.419 . S
O1549 C1564 1.249 . S
O1550 Eu1511 2.558 . S
O1550 C1575 1.257 . S
O1551 Eu1500 2.380 . S
O1551 Eu1511 2.612 . S
O1551 C1567 1.276 . S
O1552 Eu1500 2.432 . S
O1552 C1574 1.264 . S
O1553 Eu1511 2.339 . S
O1553 C1574 1.254 . S
O1554 Eu1511 2.563 . S
O1554 C1567 1.235 . S
O1555 Eu1511 2.419 . S
O1555 C1575 1.249 . S
C1556 O1545 1.276 . S
C1556 O1548 1.235 . S
C1557 C1559 1.393 . S
C1557 C1561 1.395 . S
C1557 C1564 1.492 . S
C1558 C1559 1.392 . S
C1558 C1560 1.386 . S
C1559 C1557 1.393 . S
C1559 C1558 1.392 . S
C1559 H1576 0.930 . S
C1560 C1558 1.386 . S
C1560 C1562 1.395 . S
C1560 H1577 0.930 . S
C1561 C1557 1.395 . S
C1561 C1562 1.379 . S
C1561 H1578 0.930 . S
C1562 C1560 1.395 . S
C1562 C1561 1.379 . S
C1562 H1579 0.930 . S
C1563 O1546 1.264 . S
C1563 O1547 1.254 . S
C1564 Eu1500 2.848 . S
C1564 O1544 1.257 . S
C1564 O1549 1.249 . S
C1564 C1557 1.492 . S
C1565 H1530 0.931 . S
C1565 C1543 1.420 . S
C1565 C1566 1.351 . S
C1566 H1528 0.930 . S
C1566 C1534 1.423 . S
C1566 C1565 1.351 . S
C1567 O1551 1.276 . S
C1567 O1554 1.235 . S
C1568 C1569 1.393 . S
C1568 C1572 1.395 . S
C1568 C1575 1.492 . S
C1569 C1568 1.393 . S
C1569 C1570 1.392 . S
C1569 H1580 0.930 . S
C1570 C1569 1.392 . S
C1570 C1571 1.386 . S
C1571 C1570 1.386 . S
C1571 C1573 1.395 . S
C1571 H1581 0.930 . S
C1572 C1568 1.395 . S
C1572 C1573 1.379 . S
C1572 H1582 0.930 . S
C1573 C1571 1.395 . S
C1573 C1572 1.379 . S
C1573 H1583 0.930 . S
C1574 O1552 1.264 . S
C1574 O1553 1.254 . S
C1575 Eu1511 2.848 . S
C1575 O1550 1.257 . S
C1575 O1555 1.249 . S
C1575 C1568 1.492 . S
H1576 C1559 0.930 . S
H1577 C1560 0.930 . S
H1578 C1561 0.930 . S
H1579 C1562 0.930 . S
H1580 C1569 0.930 . S
H1581 C1571 0.930 . S
H1582 C1572 0.930 . S
H1583 C1573 0.930 . S
Eu1584 N1615 2.657 . S
Eu1584 N1622 2.609 . S
Eu1584 O1628 2.558 . S
Eu1584 O1629 2.612 . S
Eu1584 O1631 2.339 . S
Eu1584 O1632 2.563 . S
Eu1584 O1633 2.419 . S
Eu1584 O1635 2.380 . S
Eu1584 O1636 2.432 . S
Eu1584 C1648 2.848 . S
C1585 C1588 1.429 . S
C1585 C1589 1.411 . S
C1585 N1592 1.377 . S
C1586 C1588 1.420 . S
C1586 C1590 1.423 . S
C1586 C1598 1.392 . S
C1587 C1589 1.420 . S
C1587 C1590 1.351 . S
C1587 H1610 0.931 . S
C1588 C1585 1.429 . S
C1588 C1586 1.420 . S
C1588 N1596 1.362 . S
C1589 C1585 1.411 . S
C1589 C1587 1.420 . S
C1589 C1594 1.395 . S
C1590 C1586 1.423 . S
C1590 C1587 1.351 . S
C1590 H1602 0.930 . S
C1591 C1593 1.400 . S
C1591 C1594 1.386 . S
C1591 H1603 0.930 . S
N1592 C1585 1.377 . S
N1592 C1593 1.321 . S
N1592 Eu1595 2.609 . S
C1593 C1591 1.400 . S
C1593 N1592 1.321 . S
C1593 H1600 0.930 . S
C1594 C1589 1.395 . S
C1594 C1591 1.386 . S
C1594 H1613 0.930 . S
Eu1595 N1592 2.609 . S
Eu1595 N1596 2.657 . S
Eu1595 O1629 2.380 . S
Eu1595 O1630 2.432 . S
Eu1595 O1634 2.558 . S
Eu1595 O1635 2.612 . S
Eu1595 O1637 2.339 . S
Eu1595 O1638 2.563 . S
Eu1595 O1639 2.419 . S
Eu1595 C1659 2.848 . S
N1596 C1588 1.362 . S
N1596 Eu1595 2.657 . S
N1596 C1597 1.334 . S
C1597 N1596 1.334 . S
C1597 C1599 1.413 . S
C1597 H1604 0.929 . S
C1598 C1586 1.392 . S
C1598 C1599 1.367 . S
C1598 H1606 0.930 . S
C1599 C1597 1.413 . S
C1599 C1598 1.367 . S
C1599 H1601 0.930 . S
H1600 C1593 0.930 . S
H1601 C1599 0.930 . S
H1602 C1590 0.930 . S
H1603 C1591 0.930 . S
H1604 C1597 0.929 . S
H1605 C1619 0.930 . S
H1606 C1598 0.930 . S
H1607 C1625 0.930 . S
H1608 C1616 0.929 . S
H1609 C1623 0.930 . S
H1610 C1587 0.931 . S
H1611 C1617 0.930 . S
H1612 C1650 0.930 . S
H1613 C1594 0.930 . S
H1614 C1649 0.931 . S
N1615 Eu1584 2.657 . S
N1615 C1616 1.334 . S
N1615 C1620 1.362 . S
C1616 H1608 0.929 . S
C1616 N1615 1.334 . S
C1616 C1619 1.413 . S
C1617 H1611 0.930 . S
C1617 C1618 1.392 . S
C1617 C1619 1.367 . S
C1618 C1617 1.392 . S
C1618 C1620 1.420 . S
C1618 C1650 1.423 . S
C1619 H1605 0.930 . S
C1619 C1616 1.413 . S
C1619 C1617 1.367 . S
C1620 N1615 1.362 . S
C1620 C1618 1.420 . S
C1620 C1624 1.429 . S
H1621 C1626 0.930 . S
N1622 Eu1584 2.609 . S
N1622 C1624 1.377 . S
N1622 C1625 1.321 . S
C1623 H1609 0.930 . S
C1623 C1625 1.400 . S
C1623 C1626 1.386 . S
C1624 C1620 1.429 . S
C1624 N1622 1.377 . S
C1624 C1627 1.411 . S
C1625 H1607 0.930 . S
C1625 N1622 1.321 . S
C1625 C1623 1.400 . S
C1626 H1621 0.930 . S
C1626 C1623 1.386 . S
C1626 C1627 1.395 . S
C1627 C1624 1.411 . S
C1627 C1626 1.395 . S
C1627 C1649 1.420 . S
O1628 Eu1584 2.558 . S
O1628 C1648 1.257 . S
O1629 Eu1584 2.612 . S
O1629 Eu1595 2.380 . S
O1629 C1640 1.276 . S
O1630 Eu1595 2.432 . S
O1630 C1647 1.264 . S
O1631 Eu1584 2.339 . S
O1631 C1647 1.254 . S
O1632 Eu1584 2.563 . S
O1632 C1640 1.235 . S
O1633 Eu1584 2.419 . S
O1633 C1648 1.249 . S
O1634 Eu1595 2.558 . S
O1634 C1659 1.257 . S
O1635 Eu1584 2.380 . S
O1635 Eu1595 2.612 . S
O1635 C1651 1.276 . S
O1636 Eu1584 2.432 . S
O1636 C1658 1.264 . S
O1637 Eu1595 2.339 . S
O1637 C1658 1.254 . S
O1638 Eu1595 2.563 . S
O1638 C1651 1.235 . S
O1639 Eu1595 2.419 . S
O1639 C1659 1.249 . S
C1640 O1629 1.276 . S
C1640 O1632 1.235 . S
C1641 C1643 1.393 . S
C1641 C1645 1.395 . S
C1641 C1648 1.492 . S
C1642 C1643 1.392 . S
C1642 C1644 1.386 . S
C1643 C1641 1.393 . S
C1643 C1642 1.392 . S
C1643 H1660 0.930 . S
C1644 C1642 1.386 . S
C1644 C1646 1.395 . S
C1644 H1661 0.930 . S
C1645 C1641 1.395 . S
C1645 C1646 1.379 . S
C1645 H1662 0.930 . S
C1646 C1644 1.395 . S
C1646 C1645 1.379 . S
C1646 H1663 0.930 . S
C1647 O1630 1.264 . S
C1647 O1631 1.254 . S
C1648 Eu1584 2.848 . S
C1648 O1628 1.257 . S
C1648 O1633 1.249 . S
C1648 C1641 1.492 . S
C1649 H1614 0.931 . S
C1649 C1627 1.420 . S
C1649 C1650 1.351 . S
C1650 H1612 0.930 . S
C1650 C1618 1.423 . S
C1650 C1649 1.351 . S
C1651 O1635 1.276 . S
C1651 O1638 1.235 . S
C1652 C1653 1.393 . S
C1652 C1656 1.395 . S
C1652 C1659 1.492 . S
C1653 C1652 1.393 . S
C1653 C1654 1.392 . S
C1653 H1664 0.930 . S
C1654 C1653 1.392 . S
C1654 C1655 1.386 . S
C1655 C1654 1.386 . S
C1655 C1657 1.395 . S
C1655 H1665 0.930 . S
C1656 C1652 1.395 . S
C1656 C1657 1.379 . S
C1656 H1666 0.930 . S
C1657 C1655 1.395 . S
C1657 C1656 1.379 . S
C1657 H1667 0.930 . S
C1658 O1636 1.264 . S
C1658 O1637 1.254 . S
C1659 Eu1595 2.848 . S
C1659 O1634 1.257 . S
C1659 O1639 1.249 . S
C1659 C1652 1.492 . S
H1660 C1643 0.930 . S
H1661 C1644 0.930 . S
H1662 C1645 0.930 . S
H1663 C1646 0.930 . S
H1664 C1653 0.930 . S
H1665 C1655 0.930 . S
H1666 C1656 0.930 . S
H1667 C1657 0.930 . S
Eu1668 N1699 2.657 . S
Eu1668 N1706 2.609 . S
Eu1668 O1712 2.558 . S
Eu1668 O1713 2.612 . S
Eu1668 O1715 2.339 . S
Eu1668 O1716 2.563 . S
Eu1668 O1717 2.419 . S
Eu1668 O1719 2.380 . S
Eu1668 O1720 2.432 . S
Eu1668 C1732 2.848 . S
C1669 C1672 1.429 . S
C1669 C1673 1.411 . S
C1669 N1676 1.377 . S
C1670 C1672 1.420 . S
C1670 C1674 1.423 . S
C1670 C1682 1.392 . S
C1671 C1673 1.420 . S
C1671 C1674 1.351 . S
C1671 H1694 0.931 . S
C1672 C1669 1.429 . S
C1672 C1670 1.420 . S
C1672 N1680 1.362 . S
C1673 C1669 1.411 . S
C1673 C1671 1.420 . S
C1673 C1678 1.395 . S
C1674 C1670 1.423 . S
C1674 C1671 1.351 . S
C1674 H1686 0.930 . S
C1675 C1677 1.400 . S
C1675 C1678 1.386 . S
C1675 H1687 0.930 . S
N1676 C1669 1.377 . S
N1676 C1677 1.321 . S
N1676 Eu1679 2.609 . S
C1677 C1675 1.400 . S
C1677 N1676 1.321 . S
C1677 H1684 0.930 . S
C1678 C1673 1.395 . S
C1678 C1675 1.386 . S
C1678 H1697 0.930 . S
Eu1679 N1676 2.609 . S
Eu1679 N1680 2.657 . S
Eu1679 O1713 2.380 . S
Eu1679 O1714 2.432 . S
Eu1679 O1718 2.558 . S
Eu1679 O1719 2.612 . S
Eu1679 O1721 2.339 . S
Eu1679 O1722 2.563 . S
Eu1679 O1723 2.419 . S
Eu1679 C1743 2.848 . S
N1680 C1672 1.362 . S
N1680 Eu1679 2.657 . S
N1680 C1681 1.334 . S
C1681 N1680 1.334 . S
C1681 C1683 1.413 . S
C1681 H1688 0.929 . S
C1682 C1670 1.392 . S
C1682 C1683 1.367 . S
C1682 H1690 0.930 . S
C1683 C1681 1.413 . S
C1683 C1682 1.367 . S
C1683 H1685 0.930 . S
H1684 C1677 0.930 . S
H1685 C1683 0.930 . S
H1686 C1674 0.930 . S
H1687 C1675 0.930 . S
H1688 C1681 0.929 . S
H1689 C1703 0.930 . S
H1690 C1682 0.930 . S
H1691 C1709 0.930 . S
H1692 C1700 0.929 . S
H1693 C1707 0.930 . S
H1694 C1671 0.931 . S
H1695 C1701 0.930 . S
H1696 C1734 0.930 . S
H1697 C1678 0.930 . S
H1698 C1733 0.931 . S
N1699 Eu1668 2.657 . S
N1699 C1700 1.334 . S
N1699 C1704 1.362 . S
C1700 H1692 0.929 . S
C1700 N1699 1.334 . S
C1700 C1703 1.413 . S
C1701 H1695 0.930 . S
C1701 C1702 1.392 . S
C1701 C1703 1.367 . S
C1702 C1701 1.392 . S
C1702 C1704 1.420 . S
C1702 C1734 1.423 . S
C1703 H1689 0.930 . S
C1703 C1700 1.413 . S
C1703 C1701 1.367 . S
C1704 N1699 1.362 . S
C1704 C1702 1.420 . S
C1704 C1708 1.429 . S
H1705 C1710 0.930 . S
N1706 Eu1668 2.609 . S
N1706 C1708 1.377 . S
N1706 C1709 1.321 . S
C1707 H1693 0.930 . S
C1707 C1709 1.400 . S
C1707 C1710 1.386 . S
C1708 C1704 1.429 . S
C1708 N1706 1.377 . S
C1708 C1711 1.411 . S
C1709 H1691 0.930 . S
C1709 N1706 1.321 . S
C1709 C1707 1.400 . S
C1710 H1705 0.930 . S
C1710 C1707 1.386 . S
C1710 C1711 1.395 . S
C1711 C1708 1.411 . S
C1711 C1710 1.395 . S
C1711 C1733 1.420 . S
O1712 Eu1668 2.558 . S
O1712 C1732 1.257 . S
O1713 Eu1668 2.612 . S
O1713 Eu1679 2.380 . S
O1713 C1724 1.276 . S
O1714 Eu1679 2.432 . S
O1714 C1731 1.264 . S
O1715 Eu1668 2.339 . S
O1715 C1731 1.254 . S
O1716 Eu1668 2.563 . S
O1716 C1724 1.235 . S
O1717 Eu1668 2.419 . S
O1717 C1732 1.249 . S
O1718 Eu1679 2.558 . S
O1718 C1743 1.257 . S
O1719 Eu1668 2.380 . S
O1719 Eu1679 2.612 . S
O1719 C1735 1.276 . S
O1720 Eu1668 2.432 . S
O1720 C1742 1.264 . S
O1721 Eu1679 2.339 . S
O1721 C1742 1.254 . S
O1722 Eu1679 2.563 . S
O1722 C1735 1.235 . S
O1723 Eu1679 2.419 . S
O1723 C1743 1.249 . S
C1724 O1713 1.276 . S
C1724 O1716 1.235 . S
C1725 C1727 1.393 . S
C1725 C1729 1.395 . S
C1725 C1732 1.492 . S
C1726 C1727 1.392 . S
C1726 C1728 1.386 . S
C1727 C1725 1.393 . S
C1727 C1726 1.392 . S
C1727 H1744 0.930 . S
C1728 C1726 1.386 . S
C1728 C1730 1.395 . S
C1728 H1745 0.930 . S
C1729 C1725 1.395 . S
C1729 C1730 1.379 . S
C1729 H1746 0.930 . S
C1730 C1728 1.395 . S
C1730 C1729 1.379 . S
C1730 H1747 0.930 . S
C1731 O1714 1.264 . S
C1731 O1715 1.254 . S
C1732 Eu1668 2.848 . S
C1732 O1712 1.257 . S
C1732 O1717 1.249 . S
C1732 C1725 1.492 . S
C1733 H1698 0.931 . S
C1733 C1711 1.420 . S
C1733 C1734 1.351 . S
C1734 H1696 0.930 . S
C1734 C1702 1.423 . S
C1734 C1733 1.351 . S
C1735 O1719 1.276 . S
C1735 O1722 1.235 . S
C1736 C1737 1.393 . S
C1736 C1740 1.395 . S
C1736 C1743 1.492 . S
C1737 C1736 1.393 . S
C1737 C1738 1.392 . S
C1737 H1748 0.930 . S
C1738 C1737 1.392 . S
C1738 C1739 1.386 . S
C1739 C1738 1.386 . S
C1739 C1741 1.395 . S
C1739 H1749 0.930 . S
C1740 C1736 1.395 . S
C1740 C1741 1.379 . S
C1740 H1750 0.930 . S
C1741 C1739 1.395 . S
C1741 C1740 1.379 . S
C1741 H1751 0.930 . S
C1742 O1720 1.264 . S
C1742 O1721 1.254 . S
C1743 Eu1679 2.848 . S
C1743 O1718 1.257 . S
C1743 O1723 1.249 . S
C1743 C1736 1.492 . S
H1744 C1727 0.930 . S
H1745 C1728 0.930 . S
H1746 C1729 0.930 . S
H1747 C1730 0.930 . S
H1748 C1737 0.930 . S
H1749 C1739 0.930 . S
H1750 C1740 0.930 . S
H1751 C1741 0.930 . S
Eu1752 N1783 2.657 . S
Eu1752 N1790 2.609 . S
Eu1752 O1796 2.558 . S
Eu1752 O1797 2.612 . S
Eu1752 O1799 2.339 . S
Eu1752 O1800 2.563 . S
Eu1752 O1801 2.419 . S
Eu1752 O1803 2.380 . S
Eu1752 O1804 2.432 . S
Eu1752 C1816 2.848 . S
C1753 C1756 1.429 . S
C1753 C1757 1.411 . S
C1753 N1760 1.377 . S
C1754 C1756 1.420 . S
C1754 C1758 1.423 . S
C1754 C1766 1.392 . S
C1755 C1757 1.420 . S
C1755 C1758 1.351 . S
C1755 H1778 0.931 . S
C1756 C1753 1.429 . S
C1756 C1754 1.420 . S
C1756 N1764 1.362 . S
C1757 C1753 1.411 . S
C1757 C1755 1.420 . S
C1757 C1762 1.395 . S
C1758 C1754 1.423 . S
C1758 C1755 1.351 . S
C1758 H1770 0.930 . S
C1759 C1761 1.400 . S
C1759 C1762 1.386 . S
C1759 H1771 0.930 . S
N1760 C1753 1.377 . S
N1760 C1761 1.321 . S
N1760 Eu1763 2.609 . S
C1761 C1759 1.400 . S
C1761 N1760 1.321 . S
C1761 H1768 0.930 . S
C1762 C1757 1.395 . S
C1762 C1759 1.386 . S
C1762 H1781 0.930 . S
Eu1763 N1760 2.609 . S
Eu1763 N1764 2.657 . S
Eu1763 O1797 2.380 . S
Eu1763 O1798 2.432 . S
Eu1763 O1802 2.558 . S
Eu1763 O1803 2.612 . S
Eu1763 O1805 2.339 . S
Eu1763 O1806 2.563 . S
Eu1763 O1807 2.419 . S
Eu1763 C1827 2.848 . S
N1764 C1756 1.362 . S
N1764 Eu1763 2.657 . S
N1764 C1765 1.334 . S
C1765 N1764 1.334 . S
C1765 C1767 1.413 . S
C1765 H1772 0.929 . S
C1766 C1754 1.392 . S
C1766 C1767 1.367 . S
C1766 H1774 0.930 . S
C1767 C1765 1.413 . S
C1767 C1766 1.367 . S
C1767 H1769 0.930 . S
H1768 C1761 0.930 . S
H1769 C1767 0.930 . S
H1770 C1758 0.930 . S
H1771 C1759 0.930 . S
H1772 C1765 0.929 . S
H1773 C1787 0.930 . S
H1774 C1766 0.930 . S
H1775 C1793 0.930 . S
H1776 C1784 0.929 . S
H1777 C1791 0.930 . S
H1778 C1755 0.931 . S
H1779 C1785 0.930 . S
H1780 C1818 0.930 . S
H1781 C1762 0.930 . S
H1782 C1817 0.931 . S
N1783 Eu1752 2.657 . S
N1783 C1784 1.334 . S
N1783 C1788 1.362 . S
C1784 H1776 0.929 . S
C1784 N1783 1.334 . S
C1784 C1787 1.413 . S
C1785 H1779 0.930 . S
C1785 C1786 1.392 . S
C1785 C1787 1.367 . S
C1786 C1785 1.392 . S
C1786 C1788 1.420 . S
C1786 C1818 1.423 . S
C1787 H1773 0.930 . S
C1787 C1784 1.413 . S
C1787 C1785 1.367 . S
C1788 N1783 1.362 . S
C1788 C1786 1.420 . S
C1788 C1792 1.429 . S
H1789 C1794 0.930 . S
N1790 Eu1752 2.609 . S
N1790 C1792 1.377 . S
N1790 C1793 1.321 . S
C1791 H1777 0.930 . S
C1791 C1793 1.400 . S
C1791 C1794 1.386 . S
C1792 C1788 1.429 . S
C1792 N1790 1.377 . S
C1792 C1795 1.411 . S
C1793 H1775 0.930 . S
C1793 N1790 1.321 . S
C1793 C1791 1.400 . S
C1794 H1789 0.930 . S
C1794 C1791 1.386 . S
C1794 C1795 1.395 . S
C1795 C1792 1.411 . S
C1795 C1794 1.395 . S
C1795 C1817 1.420 . S
O1796 Eu1752 2.558 . S
O1796 C1816 1.257 . S
O1797 Eu1752 2.612 . S
O1797 Eu1763 2.380 . S
O1797 C1808 1.276 . S
O1798 Eu1763 2.432 . S
O1798 C1815 1.264 . S
O1799 Eu1752 2.339 . S
O1799 C1815 1.254 . S
O1800 Eu1752 2.563 . S
O1800 C1808 1.235 . S
O1801 Eu1752 2.419 . S
O1801 C1816 1.249 . S
O1802 Eu1763 2.558 . S
O1802 C1827 1.257 . S
O1803 Eu1752 2.380 . S
O1803 Eu1763 2.612 . S
O1803 C1819 1.276 . S
O1804 Eu1752 2.432 . S
O1804 C1826 1.264 . S
O1805 Eu1763 2.339 . S
O1805 C1826 1.254 . S
O1806 Eu1763 2.563 . S
O1806 C1819 1.235 . S
O1807 Eu1763 2.419 . S
O1807 C1827 1.249 . S
C1808 O1797 1.276 . S
C1808 O1800 1.235 . S
C1809 C1811 1.393 . S
C1809 C1813 1.395 . S
C1809 C1816 1.492 . S
C1810 C1811 1.392 . S
C1810 C1812 1.386 . S
C1811 C1809 1.393 . S
C1811 C1810 1.392 . S
C1811 H1828 0.930 . S
C1812 C1810 1.386 . S
C1812 C1814 1.395 . S
C1812 H1829 0.930 . S
C1813 C1809 1.395 . S
C1813 C1814 1.379 . S
C1813 H1830 0.930 . S
C1814 C1812 1.395 . S
C1814 C1813 1.379 . S
C1814 H1831 0.930 . S
C1815 O1798 1.264 . S
C1815 O1799 1.254 . S
C1816 Eu1752 2.848 . S
C1816 O1796 1.257 . S
C1816 O1801 1.249 . S
C1816 C1809 1.492 . S
C1817 H1782 0.931 . S
C1817 C1795 1.420 . S
C1817 C1818 1.351 . S
C1818 H1780 0.930 . S
C1818 C1786 1.423 . S
C1818 C1817 1.351 . S
C1819 O1803 1.276 . S
C1819 O1806 1.235 . S
C1820 C1821 1.393 . S
C1820 C1824 1.395 . S
C1820 C1827 1.492 . S
C1821 C1820 1.393 . S
C1821 C1822 1.392 . S
C1821 H1832 0.930 . S
C1822 C1821 1.392 . S
C1822 C1823 1.386 . S
C1823 C1822 1.386 . S
C1823 C1825 1.395 . S
C1823 H1833 0.930 . S
C1824 C1820 1.395 . S
C1824 C1825 1.379 . S
C1824 H1834 0.930 . S
C1825 C1823 1.395 . S
C1825 C1824 1.379 . S
C1825 H1835 0.930 . S
C1826 O1804 1.264 . S
C1826 O1805 1.254 . S
C1827 Eu1763 2.848 . S
C1827 O1802 1.257 . S
C1827 O1807 1.249 . S
C1827 C1820 1.492 . S
H1828 C1811 0.930 . S
H1829 C1812 0.930 . S
H1830 C1813 0.930 . S
H1831 C1814 0.930 . S
H1832 C1821 0.930 . S
H1833 C1823 0.930 . S
H1834 C1824 0.930 . S
H1835 C1825 0.930 . S
C1836 C1837 1.369 . S
C1836 C1838 1.419 . S
C1836 H1840 0.930 . S
C1837 C1836 1.369 . S
C1837 C1846 1.429 . S
C1838 C1836 1.419 . S
C1838 C1839 1.363 . S
C1838 H1841 0.929 . S
C1839 C1838 1.363 . S
C1839 C1845 1.428 . S
H1840 C1836 0.930 . S
H1841 C1838 0.929 . S
S1842 N1843 1.613 1_556 S
S1842 N1844 1.610 . S
N1843 S1842 1.613 1_554 S
N1843 C1846 1.350 . S
N1844 S1842 1.610 . S
N1844 C1845 1.351 1_556 S
C1845 C1839 1.428 . S
C1845 N1844 1.351 1_554 S
C1845 C1846 1.434 . S
C1846 C1837 1.429 . S
C1846 N1843 1.350 . S
C1846 C1845 1.434 . S
C1847 C1848 1.369 . S
C1847 C1849 1.419 . S
C1847 H1851 0.930 . S
C1848 C1847 1.369 . S
C1848 C1857 1.429 . S
C1849 C1847 1.419 . S
C1849 C1850 1.363 . S
C1849 H1852 0.929 . S
C1850 C1849 1.363 . S
C1850 C1856 1.428 . S
H1851 C1847 0.930 . S
H1852 C1849 0.929 . S
S1853 N1854 1.613 . S
S1853 N1855 1.610 . S
N1854 S1853 1.613 . S
N1854 C1857 1.350 . S
N1855 S1853 1.610 . S
N1855 C1856 1.351 . S
C1856 C1850 1.428 . S
C1856 N1855 1.351 . S
C1856 C1857 1.434 . S
C1857 C1848 1.429 . S
C1857 N1854 1.350 . S
C1857 C1856 1.434 . S
C1858 C1859 1.369 . S
C1858 C1860 1.419 . S
C1858 H1862 0.930 . S
C1859 C1858 1.369 . S
C1859 C1868 1.429 . S
C1860 C1858 1.419 . S
C1860 C1861 1.363 . S
C1860 H1863 0.929 1_554 S
C1861 C1860 1.363 . S
C1861 C1867 1.428 . S
H1862 C1858 0.930 . S
H1863 C1860 0.929 1_556 S
S1864 N1865 1.613 . S
S1864 N1866 1.610 . S
N1865 S1864 1.613 . S
N1865 C1868 1.350 . S
N1866 S1864 1.610 . S
N1866 C1867 1.351 . S
C1867 C1861 1.428 . S
C1867 N1866 1.351 . S
C1867 C1868 1.434 . S
C1868 C1859 1.429 . S
C1868 N1865 1.350 . S
C1868 C1867 1.434 . S
C1869 C1870 1.369 . S
C1869 C1871 1.419 . S
C1869 H1873 0.930 . S
C1870 C1869 1.369 . S
C1870 C1879 1.429 . S
C1871 C1869 1.419 . S
C1871 C1872 1.363 . S
C1871 H1874 0.929 . S
C1872 C1871 1.363 . S
C1872 C1878 1.428 . S
H1873 C1869 0.930 . S
H1874 C1871 0.929 . S
S1875 N1876 1.613 . S
S1875 N1877 1.610 . S
N1876 S1875 1.613 . S
N1876 C1879 1.350 . S
N1877 S1875 1.610 . S
N1877 C1878 1.351 . S
C1878 C1872 1.428 . S
C1878 N1877 1.351 . S
C1878 C1879 1.434 . S
C1879 C1870 1.429 . S
C1879 N1876 1.350 . S
C1879 C1878 1.434 . S
C1880 C1881 1.369 . S
C1880 C1882 1.419 . S
C1880 H1884 0.930 . S
C1881 C1880 1.369 . S
C1881 C1890 1.429 . S
C1882 C1880 1.419 . S
C1882 C1883 1.363 . S
C1882 H1885 0.929 . S
C1883 C1882 1.363 . S
C1883 C1889 1.428 . S
H1884 C1880 0.930 . S
H1885 C1882 0.929 . S
S1886 N1887 1.613 . S
S1886 N1888 1.610 . S
N1887 S1886 1.613 . S
N1887 C1890 1.350 . S
N1888 S1886 1.610 . S
N1888 C1889 1.351 . S
C1889 C1883 1.428 . S
C1889 N1888 1.351 . S
C1889 C1890 1.434 . S
C1890 C1881 1.429 . S
C1890 N1887 1.350 . S
C1890 C1889 1.434 . S
C1891 C1892 1.369 . S
C1891 C1893 1.419 . S
C1891 H1895 0.930 . S
C1892 C1891 1.369 . S
C1892 C1901 1.429 . S
C1893 C1891 1.419 . S
C1893 C1894 1.363 . S
C1893 H1896 0.929 . S
C1894 C1893 1.363 . S
C1894 C1900 1.428 . S
H1895 C1891 0.930 . S
H1896 C1893 0.929 . S
S1897 N1898 1.613 . S
S1897 N1899 1.610 . S
N1898 S1897 1.613 . S
N1898 C1901 1.350 . S
N1899 S1897 1.610 . S
N1899 C1900 1.351 . S
C1900 C1894 1.428 . S
C1900 N1899 1.351 . S
C1900 C1901 1.434 . S
C1901 C1892 1.429 . S
C1901 N1898 1.350 . S
C1901 C1900 1.434 . S
C1902 C1903 1.369 . S
C1902 C1904 1.419 . S
C1902 H1906 0.930 . S
C1903 C1902 1.369 . S
C1903 C1912 1.429 . S
C1904 C1902 1.419 . S
C1904 C1905 1.363 . S
C1904 H1907 0.929 . S
C1905 C1904 1.363 . S
C1905 C1911 1.428 . S
H1906 C1902 0.930 . S
H1907 C1904 0.929 . S
S1908 N1909 1.583 1_554 S
S1908 N1910 1.610 . S
N1909 S1908 1.583 1_556 S
N1909 C1912 1.375 . S
N1910 S1908 1.610 . S
N1910 C1911 1.351 1_554 S
C1911 C1905 1.428 . S
C1911 N1910 1.351 1_556 S
C1911 C1912 1.434 . S
C1912 C1903 1.429 . S
C1912 N1909 1.375 . S
C1912 C1911 1.434 . S
C1913 C1914 1.369 . S
C1913 C1915 1.419 . S
C1913 H1917 0.930 . S
C1914 C1913 1.369 . S
C1914 C1923 1.429 . S
C1915 C1913 1.419 . S
C1915 C1916 1.363 . S
C1915 H1918 0.929 . S
C1916 C1915 1.363 . S
C1916 C1922 1.428 . S
H1917 C1913 0.930 . S
H1918 C1915 0.929 . S
S1919 N1920 1.613 1_554 S
S1919 N1921 1.610 . S
N1920 S1919 1.613 1_556 S
N1920 C1923 1.350 . S
N1921 S1919 1.610 . S
N1921 C1922 1.351 1_554 S
C1922 C1916 1.428 . S
C1922 N1921 1.351 1_556 S
C1922 C1923 1.434 . S
C1923 C1914 1.429 . S
C1923 N1920 1.350 . S
C1923 C1922 1.434 . S
C1924 C1925 1.369 . S
C1924 C1926 1.419 . S
C1924 H1928 0.930 . S
C1925 C1924 1.369 . S
C1925 C1934 1.429 . S
C1926 C1924 1.419 . S
C1926 C1927 1.363 . S
C1926 H1929 0.929 . S
C1927 C1926 1.363 . S
C1927 C1933 1.428 . S
H1928 C1924 0.930 . S
H1929 C1926 0.929 . S
S1930 N1931 1.613 . S
S1930 N1932 1.610 . S
N1931 S1930 1.613 . S
N1931 C1934 1.350 . S
N1932 S1930 1.610 . S
N1932 C1933 1.351 . S
C1933 C1927 1.428 . S
C1933 N1932 1.351 . S
C1933 C1934 1.434 . S
C1934 C1925 1.429 . S
C1934 N1931 1.350 . S
C1934 C1933 1.434 . S
C1935 C1936 1.369 . S
C1935 C1937 1.419 . S
C1935 H1939 0.930 . S
C1936 C1935 1.369 . S
C1936 C1945 1.429 . S
C1937 C1935 1.419 . S
C1937 C1938 1.363 . S
C1937 H1940 0.929 . S
C1938 C1937 1.363 . S
C1938 C1944 1.428 . S
H1939 C1935 0.930 . S
H1940 C1937 0.929 . S
S1941 N1942 1.613 . S
S1941 N1943 1.610 . S
N1942 S1941 1.613 . S
N1942 C1945 1.350 . S
N1943 S1941 1.610 . S
N1943 C1944 1.351 . S
C1944 C1938 1.428 . S
C1944 N1943 1.351 . S
C1944 C1945 1.434 . S
C1945 C1936 1.429 . S
C1945 N1942 1.350 . S
C1945 C1944 1.434 . S
C1946 C1947 1.369 . S
C1946 C1948 1.419 . S
C1946 H1950 0.930 . S
C1947 C1946 1.369 . S
C1947 C1956 1.429 . S
C1948 C1946 1.419 . S
C1948 C1949 1.363 . S
C1948 H1951 0.929 . S
C1949 C1948 1.363 . S
C1949 C1955 1.428 . S
H1950 C1946 0.930 . S
H1951 C1948 0.929 . S
S1952 N1953 1.613 1_556 S
S1952 N1954 1.613 . S
N1953 S1952 1.613 1_554 S
N1953 C1956 1.350 . S
N1954 S1952 1.613 . S
N1954 C1955 1.334 1_556 S
C1955 C1949 1.428 . S
C1955 N1954 1.334 1_554 S
C1955 C1956 1.434 . S
C1956 C1947 1.429 . S
C1956 N1953 1.350 . S
C1956 C1955 1.434 . S
C1957 C1958 1.369 . S
C1957 C1959 1.419 . S
C1957 H1961 0.930 . S
C1958 C1957 1.369 . S
C1958 C1967 1.429 . S
C1959 C1957 1.419 . S
C1959 C1960 1.363 . S
C1959 H1962 0.929 1_554 S
C1960 C1959 1.363 . S
C1960 C1966 1.428 . S
H1961 C1957 0.930 . S
H1962 C1959 0.929 1_556 S
S1963 N1964 1.613 . S
S1963 N1965 1.610 . S
N1964 S1963 1.613 . S
N1964 C1967 1.350 . S
N1965 S1963 1.610 . S
N1965 C1966 1.351 . S
C1966 C1960 1.428 . S
C1966 N1965 1.351 . S
C1966 C1967 1.434 . S
C1967 C1958 1.429 . S
C1967 N1964 1.350 . S
C1967 C1966 1.434 . S
C1968 C1969 1.369 . S
C1968 C1970 1.419 . S
C1968 H1972 0.930 . S
C1969 C1968 1.369 . S
C1969 C1978 1.429 . S
C1970 C1968 1.419 . S
C1970 C1971 1.363 . S
C1970 H1973 0.929 . S
C1971 C1970 1.363 . S
C1971 C1977 1.428 . S
H1972 C1968 0.930 . S
H1973 C1970 0.929 . S
S1974 N1975 1.613 . S
S1974 N1976 1.610 . S
N1975 S1974 1.613 . S
N1975 C1978 1.350 . S
N1976 S1974 1.610 . S
N1976 C1977 1.351 . S
C1977 C1971 1.428 . S
C1977 N1976 1.351 . S
C1977 C1978 1.434 . S
C1978 C1969 1.429 . S
C1978 N1975 1.350 . S
C1978 C1977 1.434 . S
C1979 C1980 1.369 . S
C1979 C1981 1.419 . S
C1979 H1983 0.930 . S
C1980 C1979 1.369 . S
C1980 C1989 1.429 . S
C1981 C1979 1.419 . S
C1981 C1982 1.363 . S
C1981 H1984 0.929 . S
C1982 C1981 1.363 . S
C1982 C1988 1.428 . S
H1983 C1979 0.930 . S
H1984 C1981 0.929 . S
S1985 N1986 1.613 . S
S1985 N1987 1.610 . S
N1986 S1985 1.613 . S
N1986 C1989 1.350 . S
N1987 S1985 1.610 . S
N1987 C1988 1.351 . S
C1988 C1982 1.428 . S
C1988 N1987 1.351 . S
C1988 C1989 1.434 . S
C1989 C1980 1.429 . S
C1989 N1986 1.350 . S
C1989 C1988 1.434 . S
C1990 C1991 1.369 . S
C1990 C1992 1.419 . S
C1990 H1994 0.930 . S
C1991 C1990 1.369 . S
C1991 C2000 1.429 . S
C1992 C1990 1.419 . S
C1992 C1993 1.363 . S
C1992 H1995 0.929 . S
C1993 C1992 1.363 . S
C1993 C1999 1.428 . S
H1994 C1990 0.930 . S
H1995 C1992 0.929 . S
S1996 N1997 1.613 . S
S1996 N1998 1.610 . S
N1997 S1996 1.613 . S
N1997 C2000 1.350 . S
N1998 S1996 1.610 . S
N1998 C1999 1.351 . S
C1999 C1993 1.428 . S
C1999 N1998 1.351 . S
C1999 C2000 1.434 . S
C2000 C1991 1.429 . S
C2000 N1997 1.350 . S
C2000 C1999 1.434 . S
C2001 C2002 1.369 . S
C2001 C2003 1.419 . S
C2001 H2005 0.930 . S
C2002 C2001 1.369 . S
C2002 C2011 1.429 . S
C2003 C2001 1.419 . S
C2003 C2004 1.363 . S
C2003 H2006 0.929 . S
C2004 C2003 1.363 . S
C2004 C2010 1.428 . S
H2005 C2001 0.930 . S
H2006 C2003 0.929 . S
S2007 N2008 1.613 . S
S2007 N2009 1.610 . S
N2008 S2007 1.613 . S
N2008 C2011 1.350 . S
N2009 S2007 1.610 . S
N2009 C2010 1.351 . S
C2010 C2004 1.428 . S
C2010 N2009 1.351 . S
C2010 C2011 1.434 . S
C2011 C2002 1.429 . S
C2011 N2008 1.350 . S
C2011 C2010 1.434 . S
C2012 C2013 1.369 . S
C2012 C2014 1.419 . S
C2012 H2016 0.930 . S
C2013 C2012 1.369 . S
C2013 C2022 1.429 . S
C2014 C2012 1.419 . S
C2014 C2015 1.363 . S
C2014 H2017 0.929 . S
C2015 C2014 1.363 . S
C2015 C2021 1.428 . S
H2016 C2012 0.930 . S
H2017 C2014 0.929 . S
S2018 N2019 1.613 . S
S2018 N2020 1.610 . S
N2019 S2018 1.613 . S
N2019 C2022 1.350 . S
N2020 S2018 1.610 . S
N2020 C2021 1.351 . S
C2021 C2015 1.428 . S
C2021 N2020 1.351 . S
C2021 C2022 1.434 . S
C2022 C2013 1.429 . S
C2022 N2019 1.350 . S
C2022 C2021 1.434 . S
C2023 C2024 1.369 . S
C2023 C2025 1.419 . S
C2023 H2027 0.930 . S
C2024 C2023 1.369 . S
C2024 C2033 1.429 . S
C2025 C2023 1.419 . S
C2025 C2026 1.363 . S
C2025 H2028 0.929 . S
C2026 C2025 1.363 . S
C2026 C2032 1.428 . S
H2027 C2023 0.930 . S
H2028 C2025 0.929 . S
S2029 N2030 1.613 . S
S2029 N2031 1.610 . S
N2030 S2029 1.613 . S
N2030 C2033 1.350 . S
N2031 S2029 1.610 . S
N2031 C2032 1.351 . S
C2032 C2026 1.428 . S
C2032 N2031 1.351 . S
C2032 C2033 1.434 . S
C2033 C2024 1.429 . S
C2033 N2030 1.350 . S
C2033 C2032 1.434 . S
C2034 C2035 1.369 . S
C2034 C2036 1.419 . S
C2034 H2038 0.930 . S
C2035 C2034 1.369 . S
C2035 C2044 1.429 . S
C2036 C2034 1.419 . S
C2036 C2037 1.363 . S
C2036 H2039 0.929 . S
C2037 C2036 1.363 . S
C2037 C2043 1.428 . S
H2038 C2034 0.930 . S
H2039 C2036 0.929 . S
S2040 N2041 1.613 . S
S2040 N2042 1.610 . S
N2041 S2040 1.613 . S
N2041 C2044 1.350 . S
N2042 S2040 1.610 . S
N2042 C2043 1.351 . S
C2043 C2037 1.428 . S
C2043 N2042 1.351 . S
C2043 C2044 1.434 . S
C2044 C2035 1.429 . S
C2044 N2041 1.350 . S
C2044 C2043 1.434 . S
C2045 C2046 1.369 . S
C2045 C2047 1.419 . S
C2045 H2049 0.930 . S
C2046 C2045 1.369 . S
C2046 C2055 1.429 . S
C2047 C2045 1.419 . S
C2047 C2048 1.363 . S
C2047 H2050 0.929 . S
C2048 C2047 1.363 . S
C2048 C2054 1.428 . S
H2049 C2045 0.930 . S
H2050 C2047 0.929 . S
S2051 N2052 1.613 . S
S2051 N2053 1.610 . S
N2052 S2051 1.613 . S
N2052 C2055 1.350 . S
N2053 S2051 1.610 . S
N2053 C2054 1.351 . S
C2054 C2048 1.428 . S
C2054 N2053 1.351 . S
C2054 C2055 1.434 . S
C2055 C2046 1.429 . S
C2055 N2052 1.350 . S
C2055 C2054 1.434 . S
C2056 C2057 1.369 . S
C2056 C2058 1.419 . S
C2056 H2060 0.930 . S
C2057 C2056 1.369 . S
C2057 C2066 1.429 . S
C2058 C2056 1.419 . S
C2058 C2059 1.363 . S
C2058 H2061 0.929 . S
C2059 C2058 1.363 . S
C2059 C2065 1.428 . S
H2060 C2056 0.930 . S
H2061 C2058 0.929 . S
S2062 N2063 1.613 . S
S2062 N2064 1.610 . S
N2063 S2062 1.613 . S
N2063 C2066 1.350 . S
N2064 S2062 1.610 . S
N2064 C2065 1.351 . S
C2065 C2059 1.428 . S
C2065 N2064 1.351 . S
C2065 C2066 1.434 . S
C2066 C2057 1.429 . S
C2066 N2063 1.350 . S
C2066 C2065 1.434 . S
C2067 C2068 1.369 . S
C2067 C2069 1.419 . S
C2067 H2071 0.930 . S
C2068 C2067 1.369 . S
C2068 C2077 1.429 . S
C2069 C2067 1.419 . S
C2069 C2070 1.363 . S
C2069 H2072 0.929 . S
C2070 C2069 1.363 . S
C2070 C2076 1.428 . S
H2071 C2067 0.930 . S
H2072 C2069 0.929 . S
S2073 N2074 1.613 . S
S2073 N2075 1.610 . S
N2074 S2073 1.613 . S
N2074 C2077 1.350 . S
N2075 S2073 1.610 . S
N2075 C2076 1.351 . S
C2076 C2070 1.428 . S
C2076 N2075 1.351 . S
C2076 C2077 1.434 . S
C2077 C2068 1.429 . S
C2077 N2074 1.350 . S
C2077 C2076 1.434 . S
C2078 C2079 1.369 . S
C2078 C2080 1.419 . S
C2078 H2082 0.930 . S
C2079 C2078 1.369 . S
C2079 C2088 1.429 . S
C2080 C2078 1.419 . S
C2080 C2081 1.363 . S
C2080 H2083 0.929 . S
C2081 C2080 1.363 . S
C2081 C2087 1.428 . S
H2082 C2078 0.930 . S
H2083 C2080 0.929 . S
S2084 N2085 1.613 . S
S2084 N2086 1.610 . S
N2085 S2084 1.613 . S
N2085 C2088 1.350 . S
N2086 S2084 1.610 . S
N2086 C2087 1.351 . S
C2087 C2081 1.428 . S
C2087 N2086 1.351 . S
C2087 C2088 1.434 . S
C2088 C2079 1.429 . S
C2088 N2085 1.350 . S
C2088 C2087 1.434 . S
C2089 C2090 1.369 . S
C2089 C2091 1.419 . S
C2089 H2093 0.930 . S
C2090 C2089 1.369 . S
C2090 C2099 1.429 . S
C2091 C2089 1.419 . S
C2091 C2092 1.363 . S
C2091 H2094 0.929 . S
C2092 C2091 1.363 . S
C2092 C2098 1.428 . S
H2093 C2089 0.930 . S
H2094 C2091 0.929 . S
S2095 N2096 1.613 . S
S2095 N2097 1.610 . S
N2096 S2095 1.613 . S
N2096 C2099 1.350 . S
N2097 S2095 1.610 . S
N2097 C2098 1.351 . S
C2098 C2092 1.428 . S
C2098 N2097 1.351 . S
C2098 C2099 1.434 . S
C2099 C2090 1.429 . S
C2099 N2096 1.350 . S
C2099 C2098 1.434 . S
C2100 C2101 1.369 . S
C2100 C2102 1.419 . S
C2100 H2104 0.930 . S
C2101 C2100 1.369 . S
C2101 C2110 1.429 . S
C2102 C2100 1.419 . S
C2102 C2103 1.363 . S
C2102 H2105 0.929 . S
C2103 C2102 1.363 . S
C2103 C2109 1.428 . S
H2104 C2100 0.930 . S
H2105 C2102 0.929 . S
S2106 N2107 1.613 . S
S2106 N2108 1.610 . S
N2107 S2106 1.613 . S
N2107 C2110 1.350 . S
N2108 S2106 1.610 . S
N2108 C2109 1.351 . S
C2109 C2103 1.428 . S
C2109 N2108 1.351 . S
C2109 C2110 1.434 . S
C2110 C2101 1.429 . S
C2110 N2107 1.350 . S
C2110 C2109 1.434 . S
C2111 C2112 1.369 . S
C2111 C2113 1.419 . S
C2111 H2115 0.930 . S
C2112 C2111 1.369 . S
C2112 C2121 1.429 . S
C2113 C2111 1.419 . S
C2113 C2114 1.363 . S
C2113 H2116 0.929 . S
C2114 C2113 1.363 . S
C2114 C2120 1.428 . S
H2115 C2111 0.930 . S
H2116 C2113 0.929 . S
S2117 N2118 1.613 . S
S2117 N2119 1.610 . S
N2118 S2117 1.613 . S
N2118 C2121 1.350 . S
N2119 S2117 1.610 . S
N2119 C2120 1.351 . S
C2120 C2114 1.428 . S
C2120 N2119 1.351 . S
C2120 C2121 1.434 . S
C2121 C2112 1.429 . S
C2121 N2118 1.350 . S
C2121 C2120 1.434 . S
C2122 C2123 1.369 . S
C2122 C2124 1.419 . S
C2122 H2126 0.930 . S
C2123 C2122 1.369 . S
C2123 C2132 1.429 . S
C2124 C2122 1.419 . S
C2124 C2125 1.363 . S
C2124 H2127 0.929 . S
C2125 C2124 1.363 . S
C2125 C2131 1.428 . S
H2126 C2122 0.930 . S
H2127 C2124 0.929 . S
S2128 N2129 1.613 . S
S2128 N2130 1.610 . S
N2129 S2128 1.613 . S
N2129 C2132 1.350 . S
N2130 S2128 1.610 . S
N2130 C2131 1.351 . S
C2131 C2125 1.428 . S
C2131 N2130 1.351 . S
C2131 C2132 1.434 . S
C2132 C2123 1.429 . S
C2132 N2129 1.350 . S
C2132 C2131 1.434 . S
C2133 C2134 1.369 . S
C2133 C2135 1.419 . S
C2133 H2137 0.930 . S
C2134 C2133 1.369 . S
C2134 C2143 1.429 . S
C2135 C2133 1.419 . S
C2135 C2136 1.363 . S
C2135 H2138 0.929 . S
C2136 C2135 1.363 . S
C2136 C2142 1.428 . S
H2137 C2133 0.930 . S
H2138 C2135 0.929 . S
S2139 N2140 1.613 . S
S2139 N2141 1.610 . S
N2140 S2139 1.613 . S
N2140 C2143 1.350 . S
N2141 S2139 1.610 . S
N2141 C2142 1.351 . S
C2142 C2136 1.428 . S
C2142 N2141 1.351 . S
C2142 C2143 1.434 . S
C2143 C2134 1.429 . S
C2143 N2140 1.350 . S
C2143 C2142 1.434 . S
C2144 C2145 1.369 . S
C2144 C2146 1.419 . S
C2144 H2148 0.930 . S
C2145 C2144 1.369 . S
C2145 C2154 1.429 . S
C2146 C2144 1.419 . S
C2146 C2147 1.363 . S
C2146 H2149 0.929 . S
C2147 C2146 1.363 . S
C2147 C2153 1.428 . S
H2148 C2144 0.930 . S
H2149 C2146 0.929 . S
S2150 N2151 1.613 . S
S2150 N2152 1.610 . S
N2151 S2150 1.613 . S
N2151 C2154 1.350 . S
N2152 S2150 1.610 . S
N2152 C2153 1.351 . S
C2153 C2147 1.428 . S
C2153 N2152 1.351 . S
C2153 C2154 1.434 . S
C2154 C2145 1.429 . S
C2154 N2151 1.350 . S
C2154 C2153 1.434 . S
C2155 C2156 1.369 . S
C2155 C2157 1.419 . S
C2155 H2159 0.930 . S
C2156 C2155 1.369 . S
C2156 C2165 1.429 . S
C2157 C2155 1.419 . S
C2157 C2158 1.363 . S
C2157 H2160 0.929 . S
C2158 C2157 1.363 . S
C2158 C2164 1.428 . S
H2159 C2155 0.930 . S
H2160 C2157 0.929 . S
S2161 N2162 1.613 . S
S2161 N2163 1.610 . S
N2162 S2161 1.613 . S
N2162 C2165 1.350 . S
N2163 S2161 1.610 . S
N2163 C2164 1.351 . S
C2164 C2158 1.428 . S
C2164 N2163 1.351 . S
C2164 C2165 1.434 . S
C2165 C2156 1.429 . S
C2165 N2162 1.350 . S
C2165 C2164 1.434 . S
C2166 C2167 1.369 . S
C2166 C2168 1.419 . S
C2166 H2170 0.930 . S
C2167 C2166 1.369 . S
C2167 C2176 1.429 . S
C2168 C2166 1.419 . S
C2168 C2169 1.363 . S
C2168 H2171 0.929 . S
C2169 C2168 1.363 . S
C2169 C2175 1.428 . S
H2170 C2166 0.930 . S
H2171 C2168 0.929 . S
S2172 N2173 1.613 . S
S2172 N2174 1.610 . S
N2173 S2172 1.613 . S
N2173 C2176 1.350 . S
N2174 S2172 1.610 . S
N2174 C2175 1.351 . S
C2175 C2169 1.428 . S
C2175 N2174 1.351 . S
C2175 C2176 1.434 . S
C2176 C2167 1.429 . S
C2176 N2173 1.350 . S
C2176 C2175 1.434 . S
C2177 C2178 1.369 . S
C2177 C2179 1.419 . S
C2177 H2181 0.930 . S
C2178 C2177 1.369 . S
C2178 C2187 1.429 . S
C2179 C2177 1.419 . S
C2179 C2180 1.363 . S
C2179 H2182 0.929 . S
C2180 C2179 1.363 . S
C2180 C2186 1.428 . S
H2181 C2177 0.930 . S
H2182 C2179 0.929 . S
S2183 N2184 1.613 . S
S2183 N2185 1.610 . S
N2184 S2183 1.613 . S
N2184 C2187 1.350 . S
N2185 S2183 1.610 . S
N2185 C2186 1.351 . S
C2186 C2180 1.428 . S
C2186 N2185 1.351 . S
C2186 C2187 1.434 . S
C2187 C2178 1.429 . S
C2187 N2184 1.350 . S
C2187 C2186 1.434 . S
C2188 C2189 1.369 . S
C2188 C2190 1.419 . S
C2188 H2192 0.930 . S
C2189 C2188 1.369 . S
C2189 C2198 1.429 . S
C2190 C2188 1.419 . S
C2190 C2191 1.363 . S
C2190 H2193 0.929 . S
C2191 C2190 1.363 . S
C2191 C2197 1.428 . S
H2192 C2188 0.930 . S
H2193 C2190 0.929 . S
S2194 N2195 1.613 . S
S2194 N2196 1.610 . S
N2195 S2194 1.613 . S
N2195 C2198 1.350 . S
N2196 S2194 1.610 . S
N2196 C2197 1.351 . S
C2197 C2191 1.428 . S
C2197 N2196 1.351 . S
C2197 C2198 1.434 . S
C2198 C2189 1.429 . S
C2198 N2195 1.350 . S
C2198 C2197 1.434 . S
C2199 C2200 1.369 . S
C2199 C2201 1.419 . S
C2199 H2203 0.930 . S
C2200 C2199 1.369 . S
C2200 C2209 1.429 . S
C2201 C2199 1.419 . S
C2201 C2202 1.363 . S
C2201 H2204 0.929 . S
C2202 C2201 1.363 . S
C2202 C2208 1.428 . S
H2203 C2199 0.930 . S
H2204 C2201 0.929 . S
S2205 N2206 1.613 . S
S2205 N2207 1.610 . S
N2206 S2205 1.613 . S
N2206 C2209 1.350 . S
N2207 S2205 1.610 . S
N2207 C2208 1.351 . S
C2208 C2202 1.428 . S
C2208 N2207 1.351 . S
C2208 C2209 1.434 . S
C2209 C2200 1.429 . S
C2209 N2206 1.350 . S
C2209 C2208 1.434 . S
C2210 C2211 1.369 . S
C2210 C2212 1.419 . S
C2210 H2214 0.930 . S
C2211 C2210 1.369 . S
C2211 C2220 1.429 . S
C2212 C2210 1.419 . S
C2212 C2213 1.363 . S
C2212 H2215 0.929 . S
C2213 C2212 1.363 . S
C2213 C2219 1.428 . S
H2214 C2210 0.930 . S
H2215 C2212 0.929 . S
S2216 N2217 1.613 . S
S2216 N2218 1.610 . S
N2217 S2216 1.613 . S
N2217 C2220 1.350 . S
N2218 S2216 1.610 . S
N2218 C2219 1.351 . S
C2219 C2213 1.428 . S
C2219 N2218 1.351 . S
C2219 C2220 1.434 . S
C2220 C2211 1.429 . S
C2220 N2217 1.350 . S
C2220 C2219 1.434 . S
C2221 C2222 1.369 . S
C2221 C2223 1.419 . S
C2221 H2225 0.930 . S
C2222 C2221 1.369 . S
C2222 C2231 1.429 . S
C2223 C2221 1.419 . S
C2223 C2224 1.363 . S
C2223 H2226 0.929 . S
C2224 C2223 1.363 . S
C2224 C2230 1.428 . S
H2225 C2221 0.930 . S
H2226 C2223 0.929 . S
S2227 N2228 1.613 . S
S2227 N2229 1.610 . S
N2228 S2227 1.613 . S
N2228 C2231 1.350 . S
N2229 S2227 1.610 . S
N2229 C2230 1.351 . S
C2230 C2224 1.428 . S
C2230 N2229 1.351 . S
C2230 C2231 1.434 . S
C2231 C2222 1.429 . S
C2231 N2228 1.350 . S
C2231 C2230 1.434 . S
C2232 C2233 1.369 . S
C2232 C2234 1.419 . S
C2232 H2236 0.930 . S
C2233 C2232 1.369 . S
C2233 C2242 1.429 . S
C2234 C2232 1.419 . S
C2234 C2235 1.363 . S
C2234 H2237 0.929 . S
C2235 C2234 1.363 . S
C2235 C2241 1.428 . S
H2236 C2232 0.930 . S
H2237 C2234 0.929 . S
S2238 N2239 1.613 1_545 S
S2238 N2240 1.610 . S
N2239 S2238 1.613 1_565 S
N2239 C2242 1.350 . S
N2240 S2238 1.610 . S
N2240 C2241 1.351 1_545 S
C2241 C2235 1.428 . S
C2241 N2240 1.351 1_565 S
C2241 C2242 1.434 . S
C2242 C2233 1.429 . S
C2242 N2239 1.350 . S
C2242 C2241 1.434 . S
C2243 C2244 1.369 . S
C2243 C2245 1.419 . S
C2243 H2247 0.930 1_455 S
C2244 C2243 1.369 . S
C2244 C2253 1.429 . S
C2245 C2243 1.419 . S
C2245 C2246 1.363 . S
C2245 H2248 0.929 1_455 S
C2246 C2245 1.363 . S
C2246 C2252 1.428 . S
H2247 C2243 0.930 1_655 S
H2248 C2245 0.929 1_655 S
S2249 N2250 1.613 . S
S2249 N2251 1.610 . S
N2250 S2249 1.613 . S
N2250 C2253 1.350 . S
N2251 S2249 1.610 . S
N2251 C2252 1.351 . S
C2252 C2246 1.428 . S
C2252 N2251 1.351 . S
C2252 C2253 1.434 . S
C2253 C2244 1.429 . S
C2253 N2250 1.350 . S
C2253 C2252 1.434 . S
C2254 C2255 1.369 . S
C2254 C2256 1.419 . S
C2254 H2258 0.930 . S
C2255 C2254 1.369 . S
C2255 C2264 1.429 . S
C2256 C2254 1.419 . S
C2256 C2257 1.363 . S
C2256 H2259 0.929 . S
C2257 C2256 1.363 . S
C2257 C2263 1.428 . S
H2258 C2254 0.930 . S
H2259 C2256 0.929 . S
S2260 N2261 1.613 . S
S2260 N2262 1.610 . S
N2261 S2260 1.613 . S
N2261 C2264 1.350 . S
N2262 S2260 1.610 . S
N2262 C2263 1.351 . S
C2263 C2257 1.428 . S
C2263 N2262 1.351 . S
C2263 C2264 1.434 . S
C2264 C2255 1.429 . S
C2264 N2261 1.350 . S
C2264 C2263 1.434 . S
C2265 C2266 1.369 . S
C2265 C2267 1.419 . S
C2265 H2269 0.930 . S
C2266 C2265 1.369 . S
C2266 C2275 1.429 . S
C2267 C2265 1.419 . S
C2267 C2268 1.363 . S
C2267 H2270 0.929 . S
C2268 C2267 1.363 . S
C2268 C2274 1.428 . S
H2269 C2265 0.930 . S
H2270 C2267 0.929 . S
S2271 N2272 1.613 . S
S2271 N2273 1.610 . S
N2272 S2271 1.613 . S
N2272 C2275 1.350 . S
N2273 S2271 1.610 . S
N2273 C2274 1.351 . S
C2274 C2268 1.428 . S
C2274 N2273 1.351 . S
C2274 C2275 1.434 . S
C2275 C2266 1.429 . S
C2275 N2272 1.350 . S
C2275 C2274 1.434 . S
C2276 C2277 1.369 . S
C2276 C2278 1.419 . S
C2276 H2280 0.930 . S
C2277 C2276 1.369 . S
C2277 C2286 1.429 . S
C2278 C2276 1.419 . S
C2278 C2279 1.363 . S
C2278 H2281 0.929 . S
C2279 C2278 1.363 . S
C2279 C2285 1.428 . S
H2280 C2276 0.930 . S
H2281 C2278 0.929 . S
S2282 N2283 1.613 . S
S2282 N2284 1.610 . S
N2283 S2282 1.613 . S
N2283 C2286 1.350 . S
N2284 S2282 1.610 . S
N2284 C2285 1.351 . S
C2285 C2279 1.428 . S
C2285 N2284 1.351 . S
C2285 C2286 1.434 . S
C2286 C2277 1.429 . S
C2286 N2283 1.350 . S
C2286 C2285 1.434 . S
C2287 C2288 1.369 . S
C2287 C2289 1.419 . S
C2287 H2291 0.930 . S
C2288 C2287 1.369 . S
C2288 C2297 1.429 . S
C2289 C2287 1.419 . S
C2289 C2290 1.363 . S
C2289 H2292 0.929 . S
C2290 C2289 1.363 . S
C2290 C2296 1.428 . S
H2291 C2287 0.930 . S
H2292 C2289 0.929 . S
S2293 N2294 1.613 1_565 S
S2293 N2295 1.610 . S
N2294 S2293 1.613 1_545 S
N2294 C2297 1.350 . S
N2295 S2293 1.610 . S
N2295 C2296 1.351 1_565 S
C2296 C2290 1.428 . S
C2296 N2295 1.351 1_545 S
C2296 C2297 1.434 . S
C2297 C2288 1.429 . S
C2297 N2294 1.350 . S
C2297 C2296 1.434 . S
C2298 C2299 1.369 . S
C2298 C2300 1.419 . S
C2298 H2302 0.930 . S
C2299 C2298 1.369 . S
C2299 C2308 1.429 . S
C2300 C2298 1.419 . S
C2300 C2301 1.363 . S
C2300 H2303 0.929 . S
C2301 C2300 1.363 . S
C2301 C2307 1.428 . S
H2302 C2298 0.930 . S
H2303 C2300 0.929 . S
S2304 N2305 1.613 . S
S2304 N2306 1.610 . S
N2305 S2304 1.613 . S
N2305 C2308 1.350 . S
N2306 S2304 1.610 . S
N2306 C2307 1.351 . S
C2307 C2301 1.428 . S
C2307 N2306 1.351 . S
C2307 C2308 1.434 . S
C2308 C2299 1.429 . S
C2308 N2305 1.350 . S
C2308 C2307 1.434 . S
C2309 C2310 1.369 . S
C2309 C2311 1.419 . S
C2309 H2313 0.930 . S
C2310 C2309 1.369 . S
C2310 C2319 1.429 . S
C2311 C2309 1.419 . S
C2311 C2312 1.363 . S
C2311 H2314 0.929 . S
C2312 C2311 1.363 . S
C2312 C2318 1.428 . S
H2313 C2309 0.930 . S
H2314 C2311 0.929 . S
S2315 N2316 1.613 . S
S2315 N2317 1.610 . S
N2316 S2315 1.613 . S
N2316 C2319 1.350 . S
N2317 S2315 1.610 . S
N2317 C2318 1.351 . S
C2318 C2312 1.428 . S
C2318 N2317 1.351 . S
C2318 C2319 1.434 . S
C2319 C2310 1.429 . S
C2319 N2316 1.350 . S
C2319 C2318 1.434 . S
C2320 C2321 1.369 . S
C2320 C2322 1.419 . S
C2320 H2324 0.930 . S
C2321 C2320 1.369 . S
C2321 C2330 1.429 . S
C2322 C2320 1.419 . S
C2322 C2323 1.363 . S
C2322 H2325 0.929 . S
C2323 C2322 1.363 . S
C2323 C2329 1.428 . S
H2324 C2320 0.930 . S
H2325 C2322 0.929 . S
S2326 N2327 1.613 . S
S2326 N2328 1.610 . S
N2327 S2326 1.613 . S
N2327 C2330 1.350 . S
N2328 S2326 1.610 . S
N2328 C2329 1.351 . S
C2329 C2323 1.428 . S
C2329 N2328 1.351 . S
C2329 C2330 1.434 . S
C2330 C2321 1.429 . S
C2330 N2327 1.350 . S
C2330 C2329 1.434 . S
C2331 C2332 1.369 . S
C2331 C2333 1.419 . S
C2331 H2335 0.930 . S
C2332 C2331 1.369 . S
C2332 C2341 1.429 . S
C2333 C2331 1.419 . S
C2333 C2334 1.363 . S
C2333 H2336 0.929 . S
C2334 C2333 1.363 . S
C2334 C2340 1.428 . S
H2335 C2331 0.930 . S
H2336 C2333 0.929 . S
S2337 N2338 1.613 . S
S2337 N2339 1.610 . S
N2338 S2337 1.613 . S
N2338 C2341 1.350 . S
N2339 S2337 1.610 . S
N2339 C2340 1.351 . S
C2340 C2334 1.428 . S
C2340 N2339 1.351 . S
C2340 C2341 1.434 . S
C2341 C2332 1.429 . S
C2341 N2338 1.350 . S
C2341 C2340 1.434 . S
C2342 C2343 1.369 . S
C2342 C2344 1.419 . S
C2342 H2346 0.930 . S
C2343 C2342 1.369 . S
C2343 C2352 1.429 . S
C2344 C2342 1.419 . S
C2344 C2345 1.363 . S
C2344 H2347 0.929 . S
C2345 C2344 1.363 . S
C2345 C2351 1.428 . S
H2346 C2342 0.930 . S
H2347 C2344 0.929 . S
S2348 N2349 1.613 . S
S2348 N2350 1.610 . S
N2349 S2348 1.613 . S
N2349 C2352 1.350 . S
N2350 S2348 1.610 . S
N2350 C2351 1.351 . S
C2351 C2345 1.428 . S
C2351 N2350 1.351 . S
C2351 C2352 1.434 . S
C2352 C2343 1.429 . S
C2352 N2349 1.350 . S
C2352 C2351 1.434 . S
C2353 C2354 1.369 . S
C2353 C2355 1.419 . S
C2353 H2357 0.930 . S
C2354 C2353 1.369 . S
C2354 C2363 1.429 . S
C2355 C2353 1.419 . S
C2355 C2356 1.363 . S
C2355 H2358 0.929 . S
C2356 C2355 1.363 . S
C2356 C2362 1.428 . S
H2357 C2353 0.930 . S
H2358 C2355 0.929 . S
S2359 N2360 1.613 . S
S2359 N2361 1.610 . S
N2360 S2359 1.613 . S
N2360 C2363 1.350 . S
N2361 S2359 1.610 . S
N2361 C2362 1.351 . S
C2362 C2356 1.428 . S
C2362 N2361 1.351 . S
C2362 C2363 1.434 . S
C2363 C2354 1.429 . S
C2363 N2360 1.350 . S
C2363 C2362 1.434 . S
C2364 C2365 1.369 . S
C2364 C2366 1.419 . S
C2364 H2368 0.930 . S
C2365 C2364 1.369 . S
C2365 C2374 1.429 . S
C2366 C2364 1.419 . S
C2366 C2367 1.363 . S
C2366 H2369 0.929 . S
C2367 C2366 1.363 . S
C2367 C2373 1.428 . S
H2368 C2364 0.930 . S
H2369 C2366 0.929 . S
S2370 N2371 1.613 . S
S2370 N2372 1.610 . S
N2371 S2370 1.613 . S
N2371 C2374 1.350 . S
N2372 S2370 1.610 . S
N2372 C2373 1.351 . S
C2373 C2367 1.428 . S
C2373 N2372 1.351 . S
C2373 C2374 1.434 . S
C2374 C2365 1.429 . S
C2374 N2371 1.350 . S
C2374 C2373 1.434 . S
C2375 C2376 1.369 . S
C2375 C2377 1.419 . S
C2375 H2379 0.930 . S
C2376 C2375 1.369 . S
C2376 C2385 1.429 . S
C2377 C2375 1.419 . S
C2377 C2378 1.363 . S
C2377 H2380 0.929 . S
C2378 C2377 1.363 . S
C2378 C2384 1.428 . S
H2379 C2375 0.930 . S
H2380 C2377 0.929 . S
S2381 N2382 1.613 . S
S2381 N2383 1.610 . S
N2382 S2381 1.613 . S
N2382 C2385 1.350 . S
N2383 S2381 1.610 . S
N2383 C2384 1.351 . S
C2384 C2378 1.428 . S
C2384 N2383 1.351 . S
C2384 C2385 1.434 . S
C2385 C2376 1.429 . S
C2385 N2382 1.350 . S
C2385 C2384 1.434 . S
C2386 C2387 1.369 . S
C2386 C2388 1.419 . S
C2386 H2390 0.930 . S
C2387 C2386 1.369 . S
C2387 C2396 1.429 . S
C2388 C2386 1.419 . S
C2388 C2389 1.363 . S
C2388 H2391 0.929 . S
C2389 C2388 1.363 . S
C2389 C2395 1.428 . S
H2390 C2386 0.930 . S
H2391 C2388 0.929 . S
S2392 N2393 1.613 . S
S2392 N2394 1.610 . S
N2393 S2392 1.613 . S
N2393 C2396 1.350 . S
N2394 S2392 1.610 . S
N2394 C2395 1.351 . S
C2395 C2389 1.428 . S
C2395 N2394 1.351 . S
C2395 C2396 1.434 . S
C2396 C2387 1.429 . S
C2396 N2393 1.350 . S
C2396 C2395 1.434 . S
C2397 C2398 1.369 . S
C2397 C2399 1.419 . S
C2397 H2401 0.930 . S
C2398 C2397 1.369 . S
C2398 C2407 1.429 . S
C2399 C2397 1.419 . S
C2399 C2400 1.363 . S
C2399 H2402 0.929 . S
C2400 C2399 1.363 . S
C2400 C2406 1.428 . S
H2401 C2397 0.930 . S
H2402 C2399 0.929 . S
S2403 N2404 1.613 . S
S2403 N2405 1.610 . S
N2404 S2403 1.613 . S
N2404 C2407 1.350 . S
N2405 S2403 1.610 . S
N2405 C2406 1.351 . S
C2406 C2400 1.428 . S
C2406 N2405 1.351 . S
C2406 C2407 1.434 . S
C2407 C2398 1.429 . S
C2407 N2404 1.350 . S
C2407 C2406 1.434 . S
C2408 C2409 1.369 . S
C2408 C2410 1.419 . S
C2408 H2412 0.930 . S
C2409 C2408 1.369 . S
C2409 C2418 1.429 . S
C2410 C2408 1.419 . S
C2410 C2411 1.363 . S
C2410 H2413 0.929 . S
C2411 C2410 1.363 . S
C2411 C2417 1.428 . S
H2412 C2408 0.930 . S
H2413 C2410 0.929 . S
S2414 N2415 1.613 . S
S2414 N2416 1.610 . S
N2415 S2414 1.613 . S
N2415 C2418 1.350 . S
N2416 S2414 1.610 . S
N2416 C2417 1.351 . S
C2417 C2411 1.428 . S
C2417 N2416 1.351 . S
C2417 C2418 1.434 . S
C2418 C2409 1.429 . S
C2418 N2415 1.350 . S
C2418 C2417 1.434 . S
C2419 C2420 1.369 . S
C2419 C2421 1.419 . S
C2419 H2423 0.930 . S
C2420 C2419 1.369 . S
C2420 C2429 1.429 . S
C2421 C2419 1.419 . S
C2421 C2422 1.363 . S
C2421 H2424 0.929 . S
C2422 C2421 1.363 . S
C2422 C2428 1.428 . S
H2423 C2419 0.930 . S
H2424 C2421 0.929 . S
S2425 N2426 1.613 . S
S2425 N2427 1.610 . S
N2426 S2425 1.613 . S
N2426 C2429 1.350 . S
N2427 S2425 1.610 . S
N2427 C2428 1.351 . S
C2428 C2422 1.428 . S
C2428 N2427 1.351 . S
C2428 C2429 1.434 . S
C2429 C2420 1.429 . S
C2429 N2426 1.350 . S
C2429 C2428 1.434 . S
C1837 C781 1.472 . S
C1839 C1147 1.409 . S
C1848 C871 1.455 . S
C1850 C1231 1.422 . S
C1859 C751 1.479 . S
C1861 C1311 1.457 . S
C1870 C691 1.433 . S
C1872 C1227 1.422 . S
C1883 C1315 1.361 . S
C1881 C571 1.401 . S
C1892 C601 1.452 . S
C1894 C1143 1.408 . S
C1905 C1136 1.406 . S
C1903 C661 1.433 . S
C1916 C1220 1.425 . S
C1914 C541 1.451 . S
C1925 C631 1.522 . S
C1927 C1322 1.461 . S
C1936 C811 1.474 . S
C1938 C1238 1.413 . S
C1947 C841 1.399 . S
C1949 C1304 1.361 . S
C1960 C1154 1.410 . S
C1958 C721 1.402 . S
C1971 C1399 1.400 . S
C1969 C61 1.468 1_455 S
C1980 C151 1.459 . S
C1982 C1483 1.424 . S
C1991 C31 1.478 1_565 S
C1993 C1563 1.453 . S
C2002 C1051 1.439 . S
C2004 C1479 1.415 . S
C2013 C931 1.406 . S
C2015 C1567 1.357 . S
C2024 C961 1.454 . S
C2026 C1395 1.411 . S
C2035 C1021 1.433 . S
C2037 C1388 1.407 . S
C2046 C901 1.448 . S
C2048 C1472 1.426 . S
C2059 C1574 1.456 . S
C2057 C991 1.526 . S
C2068 C91 1.473 1_565 S
C2070 C1490 1.420 . S
C2081 C1556 1.357 . S
C2079 C121 1.393 1_455 S
C2090 C1 1.408 . S
C2092 C1406 1.408 . S
C2103 C1651 1.408 . S
C2101 C421 1.472 . S
C2112 C511 1.462 . S
C2114 C1735 1.420 . S
C2125 C1815 1.453 . S
C2123 C391 1.480 . S
C2136 C1731 1.421 . S
C2134 C331 1.433 1_545 S
C2147 C1819 1.364 . S
C2145 C211 1.402 1_655 S
C2156 C241 1.456 . S
C2158 C1647 1.402 . S
C2167 C301 1.429 1_655 S
C2169 C1640 1.409 . S
C2178 C181 1.448 . S
C2180 C1724 1.426 . S
C2191 C1826 1.457 . S
C2189 C271 1.522 1_545 S
C2200 C451 1.470 . S
C2202 C1742 1.420 . S
C2211 C481 1.395 . S
C2213 C1808 1.357 . S
C2222 C361 1.412 . S
C2224 C1658 1.404 . S
C2233 C920 1.462 . S
C2235 C1150 1.375 . S
C2246 C1234 1.377 . S
C2244 C980 1.503 . S
C2255 C1040 1.472 . S
C2257 C1306 1.363 . S
C2266 C380 1.488 . S
C2268 C1222 1.374 . S
C2277 C440 1.474 . S
C2279 C1318 1.366 . S
C2290 C1138 1.376 . S
C2288 C500 1.463 . S
C2299 C200 1.458 . S
C2301 C1402 1.382 . S
C2310 C260 1.504 . S
C2312 C1486 1.376 . S
C2321 C320 1.472 . S
C2323 C1558 1.360 . S
C2332 C740 1.493 . S
C2334 C1474 1.368 . S
C2345 C1570 1.371 . S
C2343 C800 1.470 . S
C2354 C860 1.465 . S
C2356 C1390 1.375 . S
C2365 C560 1.463 . S
C2367 C1654 1.380 . S
C2376 C620 1.505 . S
C2378 C1738 1.367 . S
C2389 C1810 1.370 . S
C2387 C680 1.466 . S
C2398 C20 1.493 . S
C2400 C1726 1.368 . S
C2409 C80 1.471 . S
C2411 C1822 1.360 . S
C2420 C140 1.466 . S
C2422 C1642 1.373 . S
