# Generated by pormake.
# Topology zzz, (3,6)-cn, num edge types: 1
# Building blocks:
#     Node 0, Type 0, BuildingBlock: VETTIZ_charged_linker_0, # of connection points: 3
#     Node 1, Type 0, BuildingBlock: VETTIZ_charged_linker_0, # of connection points: 3
#     Node 2, Type 0, BuildingBlock: VETTIZ_charged_linker_0, # of connection points: 3
#     Node 3, Type 0, BuildingBlock: VETTIZ_charged_linker_0, # of connection points: 3
#     Node 4, Type 0, BuildingBlock: VETTIZ_charged_linker_0, # of connection points: 3
#     Node 5, Type 0, BuildingBlock: VETTIZ_charged_linker_0, # of connection points: 3
#     Node 6, Type 0, BuildingBlock: VETTIZ_charged_linker_0, # of connection points: 3
#     Node 7, Type 0, BuildingBlock: VETTIZ_charged_linker_0, # of connection points: 3
#     Node 8, Type 1, BuildingBlock: GEDQOX_clean_sbu_0, # of connection points: 6
#     Node 9, Type 1, BuildingBlock: GEDQOX_clean_sbu_0, # of connection points: 6
#     Node 10, Type 1, BuildingBlock: GEDQOX_clean_sbu_0, # of connection points: 6
#     Node 11, Type 1, BuildingBlock: GEDQOX_clean_sbu_0, # of connection points: 6
#     Edge 12, Type (0, 1), BuildingBlock: MIFKUJ_clean_linker_0, # of connection points: 2
#     Edge 13, Type (0, 1), BuildingBlock: MIFKUJ_clean_linker_0, # of connection points: 2
#     Edge 14, Type (0, 1), BuildingBlock: MIFKUJ_clean_linker_0, # of connection points: 2
#     Edge 15, Type (0, 1), BuildingBlock: MIFKUJ_clean_linker_0, # of connection points: 2
#     Edge 16, Type (0, 1), BuildingBlock: MIFKUJ_clean_linker_0, # of connection points: 2
#     Edge 17, Type (0, 1), BuildingBlock: MIFKUJ_clean_linker_0, # of connection points: 2
#     Edge 18, Type (0, 1), BuildingBlock: MIFKUJ_clean_linker_0, # of connection points: 2
#     Edge 19, Type (0, 1), BuildingBlock: MIFKUJ_clean_linker_0, # of connection points: 2
#     Edge 20, Type (0, 1), BuildingBlock: MIFKUJ_clean_linker_0, # of connection points: 2
#     Edge 21, Type (0, 1), BuildingBlock: MIFKUJ_clean_linker_0, # of connection points: 2
#     Edge 22, Type (0, 1), BuildingBlock: MIFKUJ_clean_linker_0, # of connection points: 2
#     Edge 23, Type (0, 1), BuildingBlock: MIFKUJ_clean_linker_0, # of connection points: 2
#     Edge 24, Type (0, 1), BuildingBlock: MIFKUJ_clean_linker_0, # of connection points: 2
#     Edge 25, Type (0, 1), BuildingBlock: MIFKUJ_clean_linker_0, # of connection points: 2
#     Edge 26, Type (0, 1), BuildingBlock: MIFKUJ_clean_linker_0, # of connection points: 2
#     Edge 27, Type (0, 1), BuildingBlock: MIFKUJ_clean_linker_0, # of connection points: 2
#     Edge 28, Type (0, 1), BuildingBlock: MIFKUJ_clean_linker_0, # of connection points: 2
#     Edge 29, Type (0, 1), BuildingBlock: MIFKUJ_clean_linker_0, # of connection points: 2
#     Edge 30, Type (0, 1), BuildingBlock: MIFKUJ_clean_linker_0, # of connection points: 2
#     Edge 31, Type (0, 1), BuildingBlock: MIFKUJ_clean_linker_0, # of connection points: 2
#     Edge 32, Type (0, 1), BuildingBlock: MIFKUJ_clean_linker_0, # of connection points: 2
#     Edge 33, Type (0, 1), BuildingBlock: MIFKUJ_clean_linker_0, # of connection points: 2
#     Edge 34, Type (0, 1), BuildingBlock: MIFKUJ_clean_linker_0, # of connection points: 2
#     Edge 35, Type (0, 1), BuildingBlock: MIFKUJ_clean_linker_0, # of connection points: 2
# Relax obj value: 0.309
# Max RMSD: 0.256
# Mean RMSD: 0.207
data_MOF--net-zzz--node1-GEDQOX_clean_sbu_0--node2-VETTIZ_charged_linker_0--edge1-MIFKUJ_clean_linker_0
_symmetry_space_group_name_H-M    P1
_symmetry_Int_Tables_number       1
_symmetry_cell_setting            triclinic
loop_
_symmetry_equiv_pos_as_xyz
'x, y, z'
_cell_length_a     76.976924
_cell_length_b     72.050556
_cell_length_c     26.441377
_cell_angle_alpha  83.866505
_cell_angle_beta   91.427303
_cell_angle_gamma 101.01453
loop_
_atom_site_label
_atom_site_type_symbol
_atom_site_fract_x
_atom_site_fract_y
_atom_site_fract_z
_atom_type_partial_charge
C0 C 0.78765 0.45305 0.23136 0.0
C1 C 0.80395 0.44819 0.24783 0.0
C2 C 0.81073 0.43488 0.22243 0.0
C3 C 0.78703 0.43395 0.16071 0.0
C4 C 0.77938 0.44567 0.1877 0.0
C5 C 0.76232 0.44955 0.16301 0.0
H6 H 0.70801 0.44471 0.95588 0.0
C7 C 0.7767 0.43069 0.11376 0.0
C8 C 0.76204 0.4396 0.11478 0.0
H9 H 0.69963 0.46637 0.09786 0.0
H10 H 0.72697 0.45801 0.13139 0.0
H11 H 0.74761 0.46292 0.94625 0.0
H12 H 0.72256 0.4065 0.00541 0.0
H13 H 0.73956 0.4051 0.96302 0.0
H14 H 0.72141 0.41614 0.94012 0.0
H15 H 0.74076 0.44461 0.90517 0.0
H16 H 0.7624 0.44813 0.93469 0.0
C17 C 0.76391 0.47128 0.1509 0.0
C18 C 0.74682 0.4401 0.19896 0.0
C19 C 0.80469 0.40411 0.97336 0.0
C20 C 0.80151 0.40471 0.92079 0.0
C21 C 0.78573 0.40984 0.90105 0.0
C22 C 0.77363 0.41508 0.93319 0.0
C23 C 0.77763 0.41569 0.98531 0.0
C24 C 0.79288 0.41006 0.00456 0.0
C25 C 0.79612 0.41356 0.05928 0.0
C26 C 0.78052 0.4227 0.06949 0.0
C27 C 0.76952 0.42351 0.02654 0.0
C28 C 0.81426 0.42728 0.06361 0.0
C29 C 0.79486 0.394 0.09101 0.0
C30 C 0.71208 0.44776 0.99411 0.0
C31 C 0.70159 0.45621 0.02418 0.0
C32 C 0.70733 0.45968 0.07404 0.0
C33 C 0.72323 0.45487 0.09343 0.0
C34 C 0.73356 0.44651 0.06275 0.0
C35 C 0.72785 0.44296 0.01409 0.0
C36 C 0.74048 0.43394 0.98686 0.0
C37 C 0.75427 0.43184 0.028 0.0
C38 C 0.75036 0.43955 0.07213 0.0
C39 C 0.74819 0.44796 0.94063 0.0
C40 C 0.73056 0.4144 0.97271 0.0
H41 H 0.80855 0.41817 0.16093 0.0
H42 H 0.78188 0.46292 0.25065 0.0
H43 H 0.74996 0.42745 0.22275 0.0
H44 H 0.73465 0.43455 0.17798 0.0
H45 H 0.74383 0.45014 0.22513 0.0
H46 H 0.77678 0.47762 0.13221 0.0
H47 H 0.76322 0.47818 0.18622 0.0
H48 H 0.75357 0.47517 0.12451 0.0
H49 H 0.81699 0.40082 0.98932 0.0
H50 H 0.78313 0.41053 0.8605 0.0
H51 H 0.76199 0.41919 0.91592 0.0
H52 H 0.81922 0.43455 0.02605 0.0
H53 H 0.8246 0.41958 0.08025 0.0
H54 H 0.81349 0.43907 0.08653 0.0
H55 H 0.78378 0.38341 0.07717 0.0
H56 H 0.79197 0.39445 0.13155 0.0
H57 H 0.80724 0.3884 0.0881 0.0
H58 H 0.82282 0.43024 0.23542 0.0
C59 C 0.8024 0.42778 0.17918 0.0
C60 C 0.91279 0.77218 0.9807 0.0
C61 C 0.91058 0.791 0.98373 0.0
C62 C 0.90686 0.79631 0.03159 0.0
C63 C 0.91337 0.76683 0.07267 0.0
C64 C 0.91446 0.76044 0.02573 0.0
C65 C 0.92029 0.74152 0.03011 0.0
H66 H 0.96382 0.67919 0.16187 0.0
C67 C 0.92049 0.75386 0.11121 0.0
C68 C 0.92432 0.73881 0.08693 0.0
H69 H 0.93958 0.67662 0.01287 0.0
H70 H 0.92673 0.70378 0.02383 0.0
H71 H 0.97618 0.72619 0.15163 0.0
H72 H 0.92866 0.69102 0.21912 0.0
H73 H 0.9388 0.70791 0.25989 0.0
H74 H 0.95029 0.68968 0.2448 0.0
H75 H 0.97705 0.70979 0.20746 0.0
H76 H 0.97219 0.73301 0.21171 0.0
C77 C 0.93715 0.74365 0.9974 0.0
C78 C 0.90453 0.72634 0.01419 0.0
C79 C 0.93991 0.77936 0.2779 0.0
C80 C 0.95121 0.77439 0.31721 0.0
C81 C 0.95701 0.75691 0.31804 0.0
C82 C 0.95237 0.74519 0.27829 0.0
C83 C 0.94192 0.75111 0.23732 0.0
C84 C 0.93569 0.76784 0.2385 0.0
C85 C 0.92549 0.7728 0.19178 0.0
C86 C 0.92662 0.75639 0.16149 0.0
C87 C 0.93618 0.74354 0.18801 0.0
C88 C 0.93513 0.79233 0.16543 0.0
C89 C 0.90617 0.77238 0.20767 0.0
C90 C 0.95568 0.68457 0.13192 0.0
C91 C 0.95291 0.67605 0.086 0.0
C92 C 0.94212 0.6832 0.04801 0.0
C93 C 0.93465 0.69895 0.05442 0.0
C94 C 0.93829 0.70805 0.0988 0.0
C95 C 0.9482 0.70066 0.13747 0.0
C96 C 0.95006 0.71237 0.18228 0.0
C97 C 0.93944 0.72769 0.16397 0.0
C98 C 0.93304 0.72519 0.11434 0.0
C99 C 0.9699 0.72077 0.18913 0.0
C100 C 0.94161 0.69963 0.22933 0.0
H101 H 0.90606 0.78948 0.11128 0.0
H102 H 0.91501 0.76742 0.94435 0.0
H103 H 0.89174 0.73141 0.01375 0.0
H104 H 0.9025 0.71329 0.04138 0.0
H105 H 0.90644 0.72243 0.97547 0.0
H106 H 0.94664 0.75686 0.00431 0.0
H107 H 0.93381 0.74446 0.95621 0.0
H108 H 0.94447 0.73196 0.00593 0.0
H109 H 0.93498 0.79253 0.27656 0.0
H110 H 0.96563 0.75268 0.34832 0.0
H111 H 0.95741 0.73223 0.28026 0.0
H112 H 0.94835 0.79731 0.18239 0.0
H113 H 0.92737 0.80369 0.16814 0.0
H114 H 0.938 0.79163 0.12494 0.0
H115 H 0.90167 0.76035 0.23733 0.0
H116 H 0.89665 0.77005 0.1759 0.0
H117 H 0.90496 0.78573 0.22361 0.0
H118 H 0.90488 0.81054 0.03573 0.0
C119 C 0.90803 0.7842 0.07595 0.0
C120 C 0.80602 1.00203 0.06886 0.0
C121 C 0.81391 0.00564 0.02026 0.0
C122 C 0.80327 0.00872 0.97724 0.0
C123 C 0.77756 0.00507 0.03044 0.0
C124 C 0.78778 1.0019 0.07306 0.0
C125 C 0.77692 0.9987 0.12123 0.0
H126 H 0.69538 0.99132 0.22605 0.0
C127 C 0.7592 1.00382 0.04665 0.0
C128 C 0.75853 0.99993 0.09995 0.0
H129 H 0.74436 0.98955 0.30796 0.0
H130 H 0.76005 0.99245 0.22756 0.0
H131 H 0.71004 0.02535 0.15224 0.0
H132 H 0.70151 0.96544 0.14012 0.0
H133 H 0.69569 0.97576 0.08052 0.0
H134 H 0.68387 0.97858 0.1365 0.0
H135 H 0.68857 0.01169 0.14053 0.0
H136 H 0.70322 0.0229 0.0893 0.0
C137 C 0.78405 0.01497 0.15426 0.0
C138 C 0.77771 0.97871 0.14776 0.0
C139 C 0.71246 0.01557 0.91377 0.0
C140 C 0.69415 0.01485 0.91735 0.0
C141 C 0.68581 0.00948 0.96492 0.0
C142 C 0.69551 0.00512 0.00837 0.0
C143 C 0.71383 0.00623 0.00457 0.0
C144 C 0.72198 0.01108 0.95782 0.0
C145 C 0.74148 0.01094 0.96125 0.0
C146 C 0.74369 0.00574 0.01808 0.0
C147 C 0.72749 1.00318 0.04299 0.0
C148 C 0.75153 0.03131 0.94379 0.0
C149 C 0.74535 0.99531 0.92933 0.0
C150 C 0.70952 0.99166 0.22702 0.0
C151 C 0.71868 0.99061 0.27335 0.0
C152 C 0.73701 0.9905 0.27264 0.0
C153 C 0.74608 0.99232 0.226 0.0
C154 C 0.73669 0.99426 0.17983 0.0
C155 C 0.71866 0.99371 0.18141 0.0
C156 C 0.71055 0.99665 0.12997 0.0
C157 C 0.72663 0.99926 0.09656 0.0
C158 C 0.74201 0.99772 0.12537 0.0
C159 C 0.70253 0.01497 0.12755 0.0
C160 C 0.69709 0.97829 0.12107 0.0
H161 H 0.77803 0.01091 0.94764 0.0
H162 H 0.81387 0.99962 0.10262 0.0
H163 H 0.77563 0.96805 0.11964 0.0
H164 H 0.76731 0.97373 0.17667 0.0
H165 H 0.79081 0.97848 0.16619 0.0
H166 H 0.78716 0.02882 0.13022 0.0
H167 H 0.79637 0.01256 0.17452 0.0
H168 H 0.77434 0.01683 0.18234 0.0
H169 H 0.71918 0.01947 0.87759 0.0
H170 H 0.67176 0.00907 0.96882 0.0
H171 H 0.68834 1.00135 0.04335 0.0
H172 H 0.74489 0.04213 0.95813 0.0
H173 H 0.75191 0.03395 0.90163 0.0
H174 H 0.76518 0.03432 0.95875 0.0
H175 H 0.73342 0.98407 0.92552 0.0
H176 H 0.75538 0.98755 0.94738 0.0
H177 H 0.74975 1.00137 0.89032 0.0
H178 H 0.80888 0.0111 0.93938 0.0
C179 C 0.78525 0.00845 0.98205 0.0
C180 C 0.55795 0.74306 0.43309 0.0
C181 C 0.5657 0.72768 0.45446 0.0
C182 C 0.58155 0.72486 0.43388 0.0
C183 C 0.58031 0.75015 0.36714 0.0
C184 C 0.56589 0.75453 0.3899 0.0
C185 C 0.56097 0.77251 0.36297 0.0
H186 H 0.57214 0.83695 0.15078 0.0
C187 C 0.5845 0.76294 0.32027 0.0
C188 C 0.57375 0.77676 0.31792 0.0
H189 H 0.53982 0.83882 0.28085 0.0
H190 H 0.54867 0.81008 0.32155 0.0
H191 H 0.60622 0.82778 0.21583 0.0
H192 H 0.56244 0.79734 0.13884 0.0
H193 H 0.57773 0.78213 0.14025 0.0
H194 H 0.58316 0.80573 0.10731 0.0
H195 H 0.60334 0.8286 0.1481 0.0
H196 H 0.6145 0.81134 0.18291 0.0
C197 C 0.56476 0.78813 0.39963 0.0
C198 C 0.54147 0.76811 0.34559 0.0
C199 C 0.61389 0.73889 0.17833 0.0
C200 C 0.61617 0.74558 0.12646 0.0
C201 C 0.61531 0.76473 0.11099 0.0
C202 C 0.61 0.77614 0.14507 0.0
C203 C 0.60546 0.76833 0.19507 0.0
C204 C 0.60846 0.75043 0.21186 0.0
C205 C 0.60331 0.74466 0.26667 0.0
C206 C 0.5949 0.76131 0.27798 0.0
C207 C 0.59604 0.77491 0.23566 0.0
C208 C 0.6204 0.74344 0.29834 0.0
C209 C 0.58972 0.7257 0.26987 0.0
C210 C 0.56721 0.83165 0.18862 0.0
C211 C 0.55551 0.84061 0.21271 0.0
C212 C 0.54889 0.83235 0.26111 0.0
C213 C 0.55419 0.81577 0.28501 0.0
C214 C 0.56631 0.80739 0.26045 0.0
C215 C 0.57255 0.81552 0.21302 0.0
C216 C 0.5852 0.80513 0.19134 0.0
C217 C 0.58613 0.78965 0.23411 0.0
C218 C 0.57496 0.79072 0.27474 0.0
C219 C 0.60329 0.81887 0.18367 0.0
C220 C 0.57687 0.79721 0.14185 0.0
H221 H 0.60091 0.73322 0.37652 0.0
H222 H 0.54612 0.74595 0.44944 0.0
H223 H 0.53903 0.75531 0.32448 0.0
H224 H 0.53778 0.77982 0.3198 0.0
H225 H 0.53244 0.76532 0.37881 0.0
H226 H 0.57738 0.78757 0.4207 0.0
H227 H 0.55401 0.78627 0.42806 0.0
H228 H 0.56647 0.80259 0.37962 0.0
H229 H 0.61468 0.72435 0.19176 0.0
H230 H 0.61758 0.7705 0.07167 0.0
H231 H 0.60867 0.79025 0.13035 0.0
H232 H 0.63265 0.74836 0.27539 0.0
H233 H 0.62065 0.72861 0.31445 0.0
H234 H 0.62177 0.75264 0.3299 0.0
H235 H 0.57845 0.72702 0.24348 0.0
H236 H 0.5841 0.72122 0.30805 0.0
H237 H 0.59593 0.71393 0.25964 0.0
H238 H 0.58787 0.71335 0.45008 0.0
C239 C 0.58896 0.73613 0.39081 0.0
C240 C 0.31307 0.55491 0.51626 0.0
C241 C 0.3211 0.55725 0.56429 0.0
C242 C 0.31267 0.56567 0.6001 0.0
C243 C 0.28885 0.56929 0.54057 0.0
C244 C 0.29703 0.56111 0.50518 0.0
C245 C 0.28656 0.5597 0.45627 0.0
H246 H 0.21246 0.57389 0.32476 0.0
C247 C 0.27252 0.57439 0.51745 0.0
C248 C 0.27121 0.56913 0.46758 0.0
H249 H 0.25204 0.54359 0.28086 0.0
H250 H 0.26974 0.55246 0.35489 0.0
H251 H 0.21096 0.55567 0.43628 0.0
H252 H 0.23817 0.60942 0.36573 0.0
H253 H 0.23237 0.61387 0.42652 0.0
H254 H 0.21519 0.60552 0.38195 0.0
H255 H 0.19997 0.57457 0.41155 0.0
H256 H 0.20805 0.57283 0.47577 0.0
C257 C 0.28036 0.53836 0.44937 0.0
C258 C 0.29816 0.57113 0.41237 0.0
C259 C 0.22826 0.59662 0.62541 0.0
C260 C 0.21172 0.60169 0.61353 0.0
C261 C 0.207 0.60511 0.56197 0.0
C262 C 0.21768 0.60179 0.52323 0.0
C263 C 0.23315 0.59471 0.53599 0.0
C264 C 0.23881 0.59332 0.58596 0.0
C265 C 0.25627 0.58672 0.59135 0.0
C266 C 0.25921 0.58283 0.53701 0.0
C267 C 0.24539 0.58715 0.5052 0.0
C268 C 0.2538 0.56831 0.62858 0.0
C269 C 0.27045 0.60325 0.60843 0.0
C270 C 0.22499 0.56921 0.33083 0.0
C271 C 0.23069 0.55776 0.29737 0.0
C272 C 0.24729 0.55238 0.30613 0.0
C273 C 0.25743 0.55733 0.34949 0.0
C274 C 0.25079 0.56759 0.38463 0.0
C275 C 0.23496 0.57362 0.37425 0.0
C276 C 0.22906 0.58311 0.41682 0.0
C277 C 0.24389 0.58173 0.45499 0.0
C278 C 0.25667 0.5727 0.43613 0.0
C279 C 0.21105 0.57113 0.43626 0.0
C280 C 0.22851 0.60404 0.39698 0.0
H281 H 0.29094 0.57792 0.61748 0.0
H282 H 0.31921 0.5486 0.48773 0.0
H283 H 0.3052 0.58498 0.42413 0.0
H284 H 0.29037 0.57466 0.37832 0.0
H285 H 0.30829 0.56321 0.40135 0.0
H286 H 0.27749 0.52975 0.48676 0.0
H287 H 0.29068 0.53274 0.43039 0.0
H288 H 0.26785 0.5355 0.42775 0.0
H289 H 0.23245 0.59435 0.66461 0.0
H290 H 0.19438 0.60901 0.55145 0.0
H291 H 0.21294 0.6038 0.48496 0.0
H292 H 0.2414 0.55845 0.61956 0.0
H293 H 0.25291 0.57154 0.66848 0.0
H294 H 0.26453 0.56025 0.62647 0.0
H295 H 0.26647 0.61728 0.59896 0.0
H296 H 0.28322 0.60462 0.58861 0.0
H297 H 0.27274 0.60148 0.65017 0.0
H298 H 0.31831 0.56734 0.63766 0.0
C299 C 0.29669 0.57175 0.58845 0.0
C300 C 0.11571 0.23917 0.61521 0.0
C301 C 0.11787 0.2204 0.61152 0.0
C302 C 0.12155 0.21523 0.56347 0.0
C303 C 0.11536 0.24495 0.52329 0.0
C304 C 0.11429 0.25115 0.5705 0.0
C305 C 0.10891 0.27028 0.56668 0.0
H306 H 0.06789 0.33498 0.43549 0.0
C307 C 0.10855 0.25827 0.48509 0.0
C308 C 0.10499 0.27332 0.50989 0.0
H309 H 0.09197 0.33597 0.5853 0.0
H310 H 0.10335 0.30815 0.57407 0.0
H311 H 0.10202 0.32204 0.37918 0.0
H312 H 0.05381 0.28774 0.44482 0.0
H313 H 0.05769 0.28115 0.38435 0.0
H314 H 0.05344 0.30456 0.38965 0.0
H315 H 0.0806 0.324 0.35291 0.0
H316 H 0.09174 0.3055 0.33771 0.0
C317 C 0.12494 0.28503 0.58313 0.0
C318 C 0.09207 0.26846 0.5993 0.0
C319 C 0.0894 0.23428 0.31637 0.0
C320 C 0.07866 0.24003 0.27669 0.0
C321 C 0.07296 0.2575 0.27682 0.0
C322 C 0.07748 0.26873 0.31758 0.0
C323 C 0.08764 0.26226 0.35855 0.0
C324 C 0.09357 0.24538 0.35669 0.0
C325 C 0.1035 0.23988 0.40348 0.0
C326 C 0.1025 0.25612 0.43459 0.0
C327 C 0.09329 0.26937 0.4084 0.0
C328 C 0.12283 0.24011 0.38796 0.0
C329 C 0.09356 0.22028 0.42864 0.0
C330 C 0.07556 0.32909 0.46586 0.0
C331 C 0.07907 0.33792 0.51132 0.0
C332 C 0.0893 0.32988 0.54956 0.0
C333 C 0.09582 0.31352 0.54328 0.0
C334 C 0.09184 0.3046 0.49881 0.0
C335 C 0.08225 0.3125 0.46027 0.0
C336 C 0.08017 0.30101 0.41499 0.0
C337 C 0.0903 0.28521 0.43298 0.0
C338 C 0.09661 0.2873 0.48284 0.0
C339 C 0.08899 0.31375 0.36841 0.0
C340 C 0.06024 0.29322 0.40756 0.0
H341 H 0.12236 0.22233 0.48389 0.0
H342 H 0.11343 0.24373 0.65176 0.0
H343 H 0.08234 0.25546 0.59206 0.0
H344 H 0.08504 0.28039 0.59096 0.0
H345 H 0.09536 0.26745 0.64052 0.0
H346 H 0.13754 0.27959 0.58368 0.0
H347 H 0.12308 0.28891 0.62191 0.0
H348 H 0.12732 0.29815 0.55618 0.0
H349 H 0.09386 0.22086 0.31711 0.0
H350 H 0.06463 0.26214 0.24628 0.0
H351 H 0.07261 0.28177 0.31628 0.0
H352 H 0.12759 0.25233 0.35911 0.0
H353 H 0.12388 0.22688 0.37114 0.0
H354 H 0.13224 0.24195 0.42013 0.0
H355 H 0.08035 0.21567 0.4112 0.0
H356 H 0.09065 0.22066 0.46927 0.0
H357 H 0.10115 0.20882 0.42526 0.0
H358 H 0.12344 0.20098 0.55899 0.0
C359 C 0.12047 0.2275 0.51943 0.0
C360 C 0.2998 0.01831 0.34051 0.0
C361 C 0.31665 0.01457 0.33043 0.0
C362 C 0.32477 1.00345 0.3674 0.0
C363 C 0.30029 1.00112 0.42469 0.0
C364 C 0.29192 0.01155 0.38816 0.0
C365 C 0.27437 0.01458 0.40699 0.0
H366 H 0.21822 0.00671 0.60673 0.0
C367 C 0.28941 0.99718 0.47109 0.0
C368 C 0.27423 0.00516 0.4615 0.0
H369 H 0.20907 0.0272 0.45084 0.0
H370 H 0.23788 0.02168 0.42705 0.0
H371 H 0.23146 0.97083 0.57885 0.0
H372 H 0.25997 0.02544 0.61373 0.0
H373 H 0.27132 0.00829 0.6436 0.0
H374 H 0.24878 0.00799 0.66152 0.0
H375 H 0.23284 0.9779 0.6421 0.0
H376 H 0.24942 0.96668 0.6177 0.0
C377 C 0.25945 1.00406 0.37438 0.0
C378 C 0.27485 0.03618 0.40504 0.0
C379 C 0.31225 0.96254 0.62831 0.0
C380 C 0.30677 0.95909 0.67924 0.0
C381 C 0.29139 0.96511 0.69332 0.0
C382 C 0.28151 0.97432 0.65677 0.0
C383 C 0.28727 0.97782 0.60586 0.0
C384 C 0.3025 0.97207 0.59263 0.0
C385 C 0.30754 0.9783 0.5381 0.0
C386 C 0.29247 0.9882 0.52005 0.0
C387 C 0.2806 0.98776 0.55965 0.0
C388 C 0.30743 0.96028 0.51089 0.0
C389 C 0.32563 0.9923 0.53706 0.0
C390 C 0.2226 0.01037 0.56767 0.0
C391 C 0.21166 0.01773 0.53075 0.0
C392 C 0.21746 0.02168 0.47991 0.0
C393 C 0.23409 0.01839 0.46624 0.0
C394 C 0.24479 0.01071 0.5037 0.0
C395 C 0.23884 0.00669 0.55333 0.0
C396 C 0.25101 0.99707 0.58749 0.0
C397 C 0.26531 0.99589 0.5504 0.0
C398 C 0.26189 0.00423 0.50144 0.0
C399 C 0.24075 0.97711 0.6081 0.0
C400 C 0.25812 0.01021 0.62913 0.0
H401 H 0.32372 0.98843 0.44049 0.0
H402 H 0.29319 0.02672 0.31262 0.0
H403 H 0.28739 0.04335 0.42206 0.0
H404 H 0.26404 0.03963 0.4267 0.0
H405 H 0.2741 0.04262 0.36514 0.0
H406 H 0.26301 0.99094 0.36231 0.0
H407 H 0.25693 0.0132 0.33945 0.0
H408 H 0.24696 0.99908 0.3956 0.0
H409 H 0.32437 0.95865 0.61683 0.0
H410 H 0.28715 0.96282 0.73262 0.0
H411 H 0.26991 0.97861 0.66971 0.0
H412 H 0.29596 0.94895 0.52346 0.0
H413 H 0.31967 0.95449 0.5197 0.0
H414 H 0.30598 0.96277 0.46919 0.0
H415 H 0.32839 0.99876 0.5735 0.0
H416 H 0.32608 0.00462 0.50797 0.0
H417 H 0.3367 0.985 0.53033 0.0
H418 H 0.33752 1.00001 0.36014 0.0
C419 C 0.3167 0.99669 0.41416 0.0
C420 C 0.45338 0.2737 0.14911 0.0
C421 C 0.44742 0.29116 0.13778 0.0
C422 C 0.43633 0.2965 0.17298 0.0
C423 C 0.43789 0.26841 0.22996 0.0
C424 C 0.44822 0.26239 0.19546 0.0
C425 C 0.45273 0.24324 0.2152 0.0
H426 H 0.4466 0.17301 0.41517 0.0
C427 C 0.43564 0.2547 0.27575 0.0
C428 C 0.44392 0.23948 0.26762 0.0
H429 H 0.4725 0.17327 0.27222 0.0
H430 H 0.46433 0.20383 0.24246 0.0
H431 H 0.46309 0.21193 0.43094 0.0
H432 H 0.41196 0.18918 0.37336 0.0
H433 H 0.40901 0.20529 0.41666 0.0
H434 H 0.41915 0.18527 0.43811 0.0
H435 H 0.44465 0.20395 0.47273 0.0
H436 H 0.45029 0.22833 0.44493 0.0
C437 C 0.47303 0.24547 0.21931 0.0
C438 C 0.44427 0.22848 0.1793 0.0
C439 C 0.41526 0.2758 0.4364 0.0
C440 C 0.41718 0.26874 0.48744 0.0
C441 C 0.41832 0.24948 0.49891 0.0
C442 C 0.42009 0.23829 0.45982 0.0
C443 C 0.42124 0.24665 0.40911 0.0
C444 C 0.418 0.26482 0.39793 0.0
C445 C 0.42126 0.27209 0.34292 0.0
C446 C 0.42815 0.25572 0.32364 0.0
C447 C 0.42799 0.24091 0.3624 0.0
C448 C 0.43561 0.29058 0.34064 0.0
C449 C 0.40325 0.27461 0.31812 0.0
C450 C 0.45019 0.17932 0.37689 0.0
C451 C 0.45976 0.17048 0.3456 0.0
C452 C 0.46491 0.17974 0.29692 0.0
C453 C 0.46014 0.19741 0.27974 0.0
C454 C 0.45041 0.20599 0.31199 0.0
C455 C 0.44581 0.19681 0.35981 0.0
C456 C 0.43688 0.20809 0.39154 0.0
C457 C 0.43569 0.22516 0.35422 0.0
C458 C 0.4437 0.22423 0.30732 0.0
C459 C 0.4492 0.21331 0.43758 0.0
C460 C 0.41828 0.1964 0.40616 0.0
H461 H 0.42309 0.29041 0.24291 0.0
H462 H 0.46176 0.26901 0.12274 0.0
H463 H 0.43026 0.22967 0.17096 0.0
H464 H 0.44398 0.21374 0.19602 0.0
H465 H 0.45149 0.23077 0.14261 0.0
H466 H 0.47871 0.25821 0.23884 0.0
H467 H 0.47908 0.24723 0.18097 0.0
H468 H 0.47718 0.23325 0.24172 0.0
H469 H 0.41394 0.29046 0.42663 0.0
H470 H 0.41959 0.24356 0.53794 0.0
H471 H 0.42179 0.22401 0.47098 0.0
H472 H 0.44586 0.28931 0.3706 0.0
H473 H 0.42969 0.30305 0.3468 0.0
H474 H 0.4431 0.29382 0.30484 0.0
H475 H 0.39187 0.26572 0.33981 0.0
H476 H 0.40173 0.26989 0.27942 0.0
H477 H 0.40147 0.28961 0.31621 0.0
H478 H 0.4318 0.3099 0.16658 0.0
C479 C 0.43137 0.2852 0.21809 0.0
Nd480 Nd 0.00621 0.99733 0.75592 0.0
Nd481 Nd 0.02506 0.00889 0.85139 0.0
C482 C 0.98505 0.9859 0.68053 0.0
C483 C 0.98212 0.96789 0.65701 0.0
C484 C 0.9717 0.96568 0.61309 0.0
C485 C 0.96941 0.94869 0.59022 0.0
C486 C 0.9775 0.93359 0.61095 0.0
C487 C 0.98781 0.93586 0.65537 0.0
C488 C 0.99011 0.95284 0.67806 0.0
C489 C 0.04125 0.99369 0.75763 0.0
C490 C 0.014 0.96485 0.84077 0.0
C491 C 0.04541 0.02507 0.9236 0.0
C492 C 0.04766 0.04267 0.94953 0.0
C493 C 0.06457 0.0539 0.95398 0.0
C494 C 0.06693 0.07047 0.97881 0.0
C495 C 0.05241 0.07609 1.00014 0.0
C496 C 0.03554 0.06464 0.99635 0.0
C497 C 0.03316 0.04822 0.97105 0.0
C498 C 0.98898 0.9994 0.86092 0.0
C499 C 0.01805 0.04231 0.76387 0.0
O500 O 0.9797 0.98463 0.72762 0.0
O501 O 0.00073 0.99661 0.67329 0.0
O502 O 0.02844 0.98154 0.74049 0.0
O503 O 0.03535 0.00722 0.77314 0.0
O504 O 0.00191 0.97016 0.80952 0.0
O505 O 0.02722 0.97732 0.8572 0.0
O506 O 0.05023 0.02676 0.87604 0.0
O507 O 0.03079 0.01271 0.93247 0.0
O508 O 1.00005 0.99416 0.89454 0.0
O509 O 0.99694 0.00955 0.82338 0.0
O510 O 0.02174 0.03804 0.81222 0.0
O511 O 0.01249 0.02926 0.73291 0.0
H512 H 0.9654 0.97712 0.59635 0.0
H513 H 0.96122 0.94734 0.55641 0.0
H514 H 0.99435 0.92464 0.67217 0.0
H515 H 0.99821 0.95429 0.71199 0.0
H516 H 0.07598 0.04988 0.93805 0.0
H517 H 0.08012 0.07888 0.98143 0.0
H518 H 0.02406 0.06866 0.01182 0.0
H519 H 0.01993 0.03992 0.96824 0.0
Nd520 Nd 0.51628 0.98952 0.75011 0.0
Nd521 Nd 0.50003 0.02121 0.80225 0.0
C522 C 0.53142 0.96264 0.72079 0.0
C523 C 0.54706 0.96396 0.68882 0.0
C524 C 0.55315 0.9476 0.67879 0.0
C525 C 0.56824 0.94915 0.64886 0.0
C526 C 0.57741 0.9671 0.6284 0.0
C527 C 0.57126 0.98344 0.63896 0.0
C528 C 0.55626 0.98188 0.6689 0.0
C529 C 0.50769 0.01902 0.68552 0.0
C530 C 0.54128 0.02973 0.76722 0.0
C531 C 0.48182 0.04739 0.81956 0.0
C532 C 0.46805 0.04826 0.8566 0.0
C533 C 0.45377 0.0571 0.84137 0.0
C534 C 0.44002 0.05689 0.87529 0.0
C535 C 0.44038 0.04789 0.92513 0.0
C536 C 0.4548 0.03917 0.94029 0.0
C537 C 0.46844 0.03926 0.90631 0.0
C538 C 0.51269 0.99629 0.87518 0.0
C539 C 0.47582 0.97862 0.79693 0.0
O540 O 0.53469 0.96942 0.76484 0.0
O541 O 0.51761 0.96787 0.69746 0.0
O542 O 0.5208 0.01073 0.67801 0.0
O543 O 0.49898 0.0109 0.72418 0.0
O544 O 0.54056 0.01126 0.76779 0.0
O545 O 0.52723 0.03744 0.77264 0.0
O546 O 0.47708 0.03539 0.78557 0.0
O547 O 0.49782 0.04717 0.83765 0.0
O548 O 0.50518 0.00999 0.88658 0.0
O549 O 0.51318 0.997 0.82765 0.0
O550 O 0.47682 0.99622 0.80843 0.0
O551 O 0.48882 0.97266 0.77528 0.0
H552 H 0.54625 0.93367 0.69406 0.0
H553 H 0.5726 0.9363 0.64118 0.0
H554 H 0.57819 0.99748 0.6246 0.0
H555 H 0.55187 0.9947 0.67673 0.0
H556 H 0.45314 0.06396 0.80303 0.0
H557 H 0.42914 0.06382 0.86258 0.0
H558 H 0.45533 0.03186 0.97813 0.0
H559 H 0.47916 0.03203 0.91871 0.0
Nd560 Nd 0.50316 0.5141 0.82943 0.0
Nd561 Nd 0.52119 0.50091 0.74824 0.0
C562 C 0.4885 0.53418 0.88753 0.0
C563 C 0.49776 0.55085 0.91179 0.0
C564 C 0.49225 0.56838 0.9022 0.0
C565 C 0.50311 0.58503 0.91582 0.0
C566 C 0.51967 0.58436 0.93893 0.0
C567 C 0.5247 0.56669 0.95077 0.0
C568 C 0.51391 0.55013 0.93728 0.0
C569 C 0.53684 0.50874 0.85572 0.0
C570 C 0.52446 0.54521 0.74002 0.0
C571 C 0.53714 0.48013 0.6959 0.0
C572 C 0.52955 0.46037 0.68809 0.0
C573 C 0.54024 0.44694 0.68321 0.0
C574 C 0.53252 0.42765 0.6834 0.0
C575 C 0.51411 0.42169 0.68935 0.0
C576 C 0.50352 0.43532 0.69304 0.0
C577 C 0.51116 0.4544 0.69263 0.0
C578 C 0.48778 0.50674 0.72137 0.0
C579 C 0.49809 0.46964 0.8341 0.0
O580 O 0.48774 0.53669 0.8379 0.0
O581 O 0.49266 0.51785 0.90425 0.0
O582 O 0.52346 0.50429 0.88601 0.0
O583 O 0.53256 0.51659 0.81363 0.0
O584 O 0.51082 0.54064 0.77119 0.0
O585 O 0.53372 0.53231 0.73089 0.0
O586 O 0.54125 0.48278 0.74318 0.0
O587 O 0.52844 0.49277 0.67415 0.0
O588 O 0.50133 0.51136 0.69147 0.0
O589 O 0.49173 0.49857 0.76352 0.0
O590 O 0.51212 0.47393 0.80439 0.0
O591 O 0.48928 0.48296 0.84284 0.0
H592 H 0.48 0.56933 0.8819 0.0
H593 H 0.49894 0.59851 0.90607 0.0
H594 H 0.53726 0.56571 0.96931 0.0
H595 H 0.51868 0.53689 0.94473 0.0
H596 H 0.55448 0.45128 0.6807 0.0
H597 H 0.54093 0.41736 0.68046 0.0
H598 H 0.48928 0.4312 0.69664 0.0
H599 H 0.50266 0.46447 0.69742 0.0
Nd600 Nd 0.99947 0.51594 0.75601 0.0
Nd601 Nd 0.0159 0.48956 0.84271 0.0
C602 C 0.97791 0.53653 0.70936 0.0
C603 C 0.96265 0.53044 0.6762 0.0
C604 C 0.94972 0.54162 0.66524 0.0
C605 C 0.93491 0.53513 0.63535 0.0
C606 C 0.93292 0.51741 0.61578 0.0
C607 C 0.94587 0.50624 0.62737 0.0
C608 C 0.96049 0.51263 0.65747 0.0
C609 C 0.00934 0.48555 0.71539 0.0
C610 C 0.97584 0.47591 0.81055 0.0
C611 C 0.03765 0.47097 0.8966 0.0
C612 C 0.05432 0.47728 0.92403 0.0
C613 C 0.06891 0.46862 0.91848 0.0
C614 C 0.08502 0.47505 0.94259 0.0
C615 C 0.08673 0.49018 0.97298 0.0
C616 C 0.07211 0.4989 0.97818 0.0
C617 C 0.05611 0.4926 0.9537 0.0
C618 C 0.99965 0.51694 0.87559 0.0
C619 C 0.04085 0.52916 0.78575 0.0
O620 O 0.97595 0.52945 0.75711 0.0
O621 O 0.99351 0.53595 0.69118 0.0
O622 O 0.00261 0.49851 0.68827 0.0
O623 O 0.01044 0.48945 0.76052 0.0
O624 O 0.97642 0.49382 0.79212 0.0
O625 O 0.99024 0.46939 0.82571 0.0
O626 O 0.03842 0.47427 0.847 0.0
O627 O 0.02318 0.47455 0.91533 0.0
O628 O 0.99929 0.50031 0.90057 0.0
O629 O 0.00919 0.5189 0.83655 0.0
O630 O 0.03939 0.51315 0.81638 0.0
O631 O 0.02723 0.53438 0.76012 0.0
H632 H 0.95102 0.5553 0.67993 0.0
H633 H 0.92517 0.54408 0.62694 0.0
H634 H 0.94462 0.49241 0.61363 0.0
H635 H 0.97007 0.50354 0.66643 0.0
H636 H 0.06787 0.45692 0.8953 0.0
H637 H 0.09603 0.46801 0.93814 0.0
H638 H 0.07312 0.51075 1.00077 0.0
H639 H 0.04518 0.49982 0.95779 0.0
H640 H 0.18021 1.0003 0.49361 0.0
H641 H 0.15082 0.99794 0.53067 0.0
H642 H 0.17351 0.03626 0.63973 0.0
H643 H 0.20295 0.03831 0.60348 0.0
H644 H 0.14465 0.98431 0.6382 0.0
H645 H 0.13871 0.06152 0.66069 0.0
H646 H 0.14808 0.0938 0.61709 0.0
H647 H 0.14974 0.07057 0.47474 0.0
H648 H 0.14012 0.03819 0.5173 0.0
H649 H 0.06987 0.02068 0.77846 0.0
H650 H 0.09952 0.02586 0.74149 0.0
H651 H 0.08326 0.97704 0.65811 0.0
H652 H 0.05402 0.9714 0.69645 0.0
H653 H 0.10971 0.03494 0.64832 0.0
H654 H 0.11692 0.95669 0.63239 0.0
H655 H 0.10872 0.9251 0.68077 0.0
H656 H 0.10657 0.95127 0.81837 0.0
H657 H 0.11499 0.983 0.77099 0.0
C658 C 0.1788 0.00861 0.52455 0.0
C659 C 0.19374 0.01955 0.54564 0.0
C660 C 0.16208 0.00715 0.54589 0.0
C661 C 0.16005 0.01692 0.5879 0.0
C662 C 0.17481 0.02872 0.60713 0.0
C663 C 0.19156 0.0299 0.58641 0.0
C664 C 0.14287 0.01341 0.61462 0.0
C665 C 0.13683 0.99527 0.63984 0.0
C666 C 0.13318 0.02799 0.61849 0.0
C667 C 0.13891 0.0474 0.59236 0.0
C668 C 0.14104 0.0633 0.62007 0.0
C669 C 0.14639 0.08162 0.59552 0.0
C670 C 0.14957 0.08423 0.54321 0.0
C671 C 0.14736 0.06852 0.5153 0.0
C672 C 0.142 0.05018 0.53965 0.0
C673 C 0.07278 0.01086 0.75304 0.0
C674 C 0.05967 0.99561 0.74043 0.0
C675 C 0.08968 0.0139 0.73165 0.0
C676 C 0.09372 1.00179 0.6972 0.0
C677 C 0.08066 0.98637 0.68535 0.0
C678 C 0.06389 0.98319 0.70718 0.0
C679 C 0.11127 0.00569 0.67172 0.0
C680 C 0.11747 0.02393 0.64689 0.0
C681 C 0.12133 0.99129 0.66903 0.0
C682 C 0.11642 0.97224 0.69798 0.0
C683 C 0.11476 0.9557 0.673 0.0
C684 C 0.11007 0.93777 0.70025 0.0
C685 C 0.10707 0.93618 0.75258 0.0
C686 C 0.10883 0.95252 0.7778 0.0
C687 C 0.11354 0.97049 0.75075 0.0
H688 H 0.10342 0.92228 0.77359 0.0
H689 H 0.15371 0.09842 0.52429 0.0
H690 H 0.49257 0.16051 0.34939 0.0
H691 H 0.50114 0.13341 0.40218 0.0
H692 H 0.44659 0.11269 0.4445 0.0
H693 H 0.43801 0.13938 0.39152 0.0
H694 H 0.46894 0.11729 0.52795 0.0
H695 H 0.46603 0.08855 0.37078 0.0
H696 H 0.47352 0.08686 0.28147 0.0
H697 H 0.52836 0.09096 0.32233 0.0
H698 H 0.52122 0.09294 0.41183 0.0
H699 H 0.47582 0.03073 0.6755 0.0
H700 H 0.46781 0.05531 0.61279 0.0
H701 H 0.5211 0.06746 0.55422 0.0
H702 H 0.52881 0.04227 0.61513 0.0
H703 H 0.50007 0.06783 0.47831 0.0
H704 H 0.50399 0.09681 0.63406 0.0
H705 H 0.4974 0.09866 0.72399 0.0
H706 H 0.44235 0.09556 0.6871 0.0
H707 H 0.44857 0.0934 0.59703 0.0
C708 C 0.48238 0.14981 0.36861 0.0
C709 C 0.46464 0.15213 0.36654 0.0
C710 C 0.48728 0.13442 0.39909 0.0
C711 C 0.47452 0.12113 0.42786 0.0
C712 C 0.4567 0.12284 0.42318 0.0
C713 C 0.4518 0.13806 0.39265 0.0
C714 C 0.47969 0.10623 0.46559 0.0
C715 C 0.47558 0.10634 0.51704 0.0
C716 C 0.48881 0.09229 0.45167 0.0
C717 C 0.49312 0.0911 0.3979 0.0
C718 C 0.47971 0.08927 0.36065 0.0
C719 C 0.48388 0.08822 0.31 0.0
C720 C 0.50141 0.08886 0.2962 0.0
C721 C 0.51479 0.0905 0.33306 0.0
C722 C 0.51069 0.09157 0.38375 0.0
C723 C 0.48582 0.03875 0.64941 0.0
C724 C 0.50294 0.03465 0.65025 0.0
C725 C 0.48127 0.05286 0.61362 0.0
C726 C 0.49391 0.06354 0.57893 0.0
C727 C 0.51106 0.05947 0.58026 0.0
C728 C 0.51549 0.04513 0.61531 0.0
C729 C 0.48927 0.07878 0.54095 0.0
C730 C 0.4935 0.07879 0.48944 0.0
C731 C 0.48045 0.09302 0.55492 0.0
C732 C 0.47673 0.09479 0.60885 0.0
C733 C 0.49047 0.09644 0.64516 0.0
C734 C 0.4868 0.09754 0.69616 0.0
C735 C 0.46946 0.09718 0.71126 0.0
C736 C 0.45577 0.09581 0.67535 0.0
C737 C 0.45936 0.09467 0.6243 0.0
H738 H 0.46664 0.09801 0.75078 0.0
H739 H 0.50461 0.08804 0.25698 0.0
H740 H 0.33162 0.52466 0.54206 0.0
H741 H 0.35895 0.51361 0.56878 0.0
H742 H 0.37624 0.56426 0.64392 0.0
H743 H 0.34917 0.57549 0.61693 0.0
H744 H 0.3935 0.52782 0.55144 0.0
H745 H 0.39733 0.55301 0.75404 0.0
H746 H 0.37695 0.55741 0.8204 0.0
H747 H 0.33589 0.51599 0.76177 0.0
H748 H 0.35609 0.51113 0.6956 0.0
H749 H 0.47991 0.53247 0.64645 0.0
H750 H 0.45083 0.53894 0.62066 0.0
H751 H 0.42643 0.49547 0.73607 0.0
H752 H 0.4558 0.48969 0.76378 0.0
H753 H 0.41046 0.5235 0.73403 0.0
H754 H 0.42632 0.4889 0.60359 0.0
H755 H 0.44543 0.48144 0.53805 0.0
H756 H 0.44452 0.53557 0.45356 0.0
H757 H 0.42559 0.54345 0.51892 0.0
C758 C 0.34134 0.53356 0.56375 0.0
C759 C 0.3381 0.55089 0.57776 0.0
C760 C 0.35692 0.52718 0.57917 0.0
C761 C 0.36951 0.53795 0.60909 0.0
C762 C 0.36655 0.5555 0.62181 0.0
C763 C 0.35103 0.56189 0.6064 0.0
C764 C 0.38576 0.53094 0.62724 0.0
C765 C 0.3972 0.52681 0.59136 0.0
C766 C 0.39038 0.52916 0.67948 0.0
C767 C 0.37819 0.53185 0.71955 0.0
C768 C 0.38398 0.54478 0.75545 0.0
C769 C 0.37245 0.54736 0.79301 0.0
C770 C 0.35512 0.53703 0.7952 0.0
C771 C 0.34929 0.52404 0.75993 0.0
C772 C 0.36077 0.52139 0.72234 0.0
C773 C 0.46833 0.52428 0.66628 0.0
C774 C 0.47005 0.51045 0.70675 0.0
C775 C 0.45168 0.52789 0.65129 0.0
C776 C 0.43631 0.51736 0.67541 0.0
C777 C 0.43805 0.50372 0.71656 0.0
C778 C 0.4548 0.50038 0.73232 0.0
C779 C 0.41853 0.52087 0.65807 0.0
C780 C 0.40677 0.52436 0.69412 0.0
C781 C 0.41342 0.52161 0.60606 0.0
C782 C 0.42462 0.5168 0.56633 0.0
C783 C 0.43026 0.49925 0.57115 0.0
C784 C 0.44106 0.49494 0.53403 0.0
C785 C 0.44621 0.50804 0.49171 0.0
C786 C 0.44053 0.52544 0.48636 0.0
C787 C 0.42974 0.52982 0.52339 0.0
H788 H 0.45458 0.50469 0.46304 0.0
H789 H 0.34621 0.53906 0.82428 0.0
H790 H 0.04595 0.34586 0.48819 0.0
H791 H 0.03302 0.37147 0.51765 0.0
H792 H 0.0826 0.39346 0.58861 0.0
H793 H 0.09583 0.3687 0.55749 0.0
H794 H 0.04969 0.38371 0.65409 0.0
H795 H 0.07432 0.41868 0.49615 0.0
H796 H 0.07778 0.42334 0.40293 0.0
H797 H 0.02191 0.42145 0.38447 0.0
H798 H 0.01809 0.4165 0.47766 0.0
H799 H 0.03664 0.46809 0.74902 0.0
H800 H 0.04768 0.44325 0.71026 0.0
H801 H 0.006 0.44188 0.59748 0.0
H802 H 0.99579 0.46758 0.63439 0.0
H803 H 0.0331 0.43947 0.55152 0.0
H804 H 0.00704 0.40574 0.70458 0.0
H805 H 0.00136 0.39938 0.79677 0.0
H806 H 0.05591 0.39592 0.82436 0.0
H807 H 0.06198 0.40251 0.73235 0.0
C808 C 0.05423 0.35645 0.50883 0.0
C809 C 0.07185 0.355 0.52115 0.0
C810 C 0.04678 0.37097 0.52601 0.0
C811 C 0.05681 0.38414 0.55596 0.0
C812 C 0.07458 0.38327 0.56615 0.0
C813 C 0.08209 0.36905 0.5484 0.0
C814 C 0.04871 0.39831 0.57906 0.0
C815 C 0.04615 0.396 0.63187 0.0
C816 C 0.04358 0.41393 0.54974 0.0
C817 C 0.04589 0.41699 0.49381 0.0
C818 C 0.06275 0.41906 0.4722 0.0
C819 C 0.06478 0.4218 0.41938 0.0
C820 C 0.05006 0.42262 0.38779 0.0
C821 C 0.03329 0.42077 0.40898 0.0
C822 C 0.03119 0.41801 0.46179 0.0
C823 C 0.02976 0.46228 0.71637 0.0
C824 C 0.01529 0.46956 0.69496 0.0
C825 C 0.03602 0.44802 0.6942 0.0
C826 C 0.0275 0.44028 0.65129 0.0
C827 C 0.01287 0.44752 0.6304 0.0
C828 C 0.00696 0.46214 0.65167 0.0
C829 C 0.0341 0.4251 0.62724 0.0
C830 C 0.03641 0.42715 0.57413 0.0
C831 C 0.03861 0.40895 0.65625 0.0
C832 C 0.03499 0.40478 0.71159 0.0
C833 C 0.01785 0.40373 0.73033 0.0
C834 C 0.01456 0.40007 0.78255 0.0
C835 C 0.02828 0.39729 0.81641 0.0
C836 C 0.0453 0.39809 0.79809 0.0
C837 C 0.04867 0.40177 0.7459 0.0
H838 H 0.02571 0.39448 0.85683 0.0
H839 H 0.05166 0.42475 0.3469 0.0
H840 H 0.8339 0.98014 0.0624 0.0
H841 H 0.86398 0.97801 0.0378 0.0
H842 H 0.86667 0.02915 0.935 0.0
H843 H 0.83692 0.03152 0.95988 0.0
H844 H 0.87494 0.99924 0.88855 0.0
H845 H 0.89044 0.03027 0.04124 0.0
H846 H 0.88899 0.03354 0.13286 0.0
H847 H 0.90631 0.98041 0.16862 0.0
H848 H 0.90763 0.9767 0.07717 0.0
H849 H 0.96566 0.0208 0.81726 0.0
H850 H 0.93554 0.02041 0.84596 0.0
H851 H 0.93971 0.97362 0.95918 0.0
H852 H 0.96992 0.97441 0.93164 0.0
H853 H 0.92733 0.99926 0.00151 0.0
H854 H 0.91334 0.96811 0.85159 0.0
H855 H 0.91488 0.96372 0.76074 0.0
H856 H 0.89414 0.01458 0.72013 0.0
H857 H 0.89279 0.01948 0.81076 0.0
C858 C 0.8411 0.99116 0.03554 0.0
C859 C 0.833 0.00588 0.01267 0.0
C860 C 0.85822 0.98987 0.02128 0.0
C861 C 0.86745 1.00332 0.98414 0.0
C862 C 0.85969 0.0185 0.96322 0.0
C863 C 0.8427 0.01984 0.97755 0.0
C864 C 0.88487 1.00125 0.96506 0.0
C865 C 0.88646 0.99943 0.91309 0.0
C866 C 0.8997 1.00087 0.99743 0.0
C867 C 0.89894 1.00311 0.05239 0.0
C868 C 0.89379 0.0192 0.06865 0.0
C869 C 0.89302 0.02115 0.12055 0.0
C870 C 0.8975 0.00716 0.15654 0.0
C871 C 0.90281 0.99122 0.1407 0.0
C872 C 0.90358 0.98919 0.08885 0.0
C873 C 0.96 0.01026 0.84775 0.0
C874 C 0.97009 0.9977 0.87251 0.0
C875 C 0.94279 0.01003 0.86409 0.0
C876 C 0.93531 0.99695 0.90476 0.0
C877 C 0.94521 0.98392 0.92806 0.0
C878 C 0.96244 0.98432 0.91218 0.0
C879 C 0.91753 0.99744 0.9247 0.0
C880 C 0.91582 0.99893 0.97686 0.0
C881 C 0.90253 0.99727 0.89258 0.0
C882 C 0.9031 0.99425 0.83801 0.0
C883 C 0.90922 0.97844 0.82329 0.0
C884 C 0.91005 0.97584 0.77182 0.0
C885 C 0.90463 0.98888 0.73468 0.0
C886 C 0.89834 0.0045 0.74895 0.0
C887 C 0.89753 0.00719 0.80038 0.0
H888 H 0.90528 0.98685 0.69485 0.0
H889 H 0.89691 0.0087 0.1967 0.0
H890 H 0.57652 0.86912 0.15275 0.0
H891 H 0.56799 0.89548 0.10025 0.0
H892 H 0.51531 0.88059 0.16281 0.0
H893 H 0.52337 0.85267 0.21228 0.0
H894 H 0.51177 0.88999 0.06912 0.0
H895 H 0.54811 0.92142 0.19284 0.0
H896 H 0.57407 0.92955 0.24833 0.0
H897 H 0.60704 0.94859 0.1172 0.0
H898 H 0.58133 0.94033 0.06087 0.0
H899 H 0.49927 0.98564 0.97003 0.0
H900 H 0.50557 0.95976 0.03159 0.0
H901 H 0.54232 0.94669 0.92655 0.0
H902 H 0.53567 0.9723 0.86411 0.0
H903 H 0.55191 0.95294 0.04695 0.0
H904 H 0.51256 0.91755 0.92571 0.0
H905 H 0.48464 0.91253 0.87684 0.0
H906 H 0.45495 0.90432 0.01541 0.0
H907 H 0.48274 0.90964 0.06506 0.0
C908 C 0.56301 0.87118 0.15519 0.0
C909 C 0.55058 0.85838 0.1864 0.0
C910 C 0.55822 0.88665 0.12563 0.0
C911 C 0.54105 0.89044 0.12786 0.0
C912 C 0.52868 0.87809 0.16023 0.0
C913 C 0.53337 0.86221 0.18911 0.0
C914 C 0.53606 0.90683 0.09465 0.0
C915 C 0.52049 0.90378 0.06509 0.0
C916 C 0.54727 0.92504 0.08889 0.0
C917 C 0.56279 0.93012 0.12262 0.0
C918 C 0.56092 0.92723 0.17582 0.0
C919 C 0.57559 0.93188 0.20743 0.0
C920 C 0.5922 0.93955 0.1863 0.0
C921 C 0.59417 0.94263 0.13351 0.0
C922 C 0.57954 0.938 0.10172 0.0
C923 C 0.50869 0.97723 0.96004 0.0
C924 C 0.51693 0.98088 0.91219 0.0
C925 C 0.51224 0.96246 0.99519 0.0
C926 C 0.52436 0.95131 0.98352 0.0
C927 C 0.53287 0.95512 0.93613 0.0
C928 C 0.52902 0.96965 0.90045 0.0
C929 C 0.52814 0.93572 0.02103 0.0
C930 C 0.54332 0.93906 0.0515 0.0
C931 C 0.51637 0.91804 0.02866 0.0
C932 C 0.49971 0.9142 0.99901 0.0
C933 C 0.50008 0.91482 0.94572 0.0
C934 C 0.48428 0.9119 0.91789 0.0
C935 C 0.46803 0.90817 0.943 0.0
C936 C 0.46755 0.90724 0.99602 0.0
C937 C 0.48332 0.9102 0.02402 0.0
H938 H 0.45583 0.90599 0.92135 0.0
H939 H 0.60354 0.94313 0.21084 0.0
H940 H 0.69537 0.47257 0.92872 0.0
H941 H 0.66774 0.48094 0.89463 0.0
H942 H 0.64226 0.46044 0.03868 0.0
H943 H 0.66974 0.45155 0.07267 0.0
H944 H 0.62114 0.44894 0.95892 0.0
H945 H 0.65617 0.50759 0.00615 0.0
H946 H 0.68276 0.5329 0.00546 0.0
H947 H 0.67759 0.54518 0.84386 0.0
H948 H 0.6511 0.51975 0.84351 0.0
H949 H 0.54691 0.49235 0.9458 0.0
H950 H 0.57536 0.48343 0.96798 0.0
H951 H 0.595 0.50576 0.81797 0.0
H952 H 0.56639 0.51499 0.79561 0.0
H953 H 0.61943 0.51567 0.89257 0.0
H954 H 0.58282 0.45896 0.846 0.0
H955 H 0.55565 0.43445 0.84701 0.0
H956 H 0.56349 0.41841 0.00581 0.0
H957 H 0.59054 0.4431 0.00605 0.0
C958 C 0.68385 0.46967 0.95304 0.0
C959 C 0.68479 0.46143 0.00352 0.0
C960 C 0.66809 0.4746 0.93359 0.0
C961 C 0.65296 0.47148 0.96422 0.0
C962 C 0.65377 0.46301 0.01437 0.0
C963 C 0.66954 0.45811 0.0339 0.0
C964 C 0.63636 0.47732 0.94435 0.0
C965 C 0.62073 0.46355 0.94484 0.0
C966 C 0.63591 0.49628 0.92453 0.0
C967 C 0.65177 0.51164 0.92473 0.0
C968 C 0.66079 0.51559 0.97041 0.0
C969 C 0.67582 0.52997 0.97022 0.0
C970 C 0.68189 0.5406 0.92462 0.0
C971 C 0.6729 0.53691 0.87914 0.0
C972 C 0.65787 0.52252 0.87912 0.0
C973 C 0.5573 0.49545 0.91754 0.0
C974 C 0.55444 0.50431 0.86892 0.0
C975 C 0.57353 0.49026 0.93021 0.0
C976 C 0.58722 0.49365 0.89439 0.0
C977 C 0.58458 0.50294 0.8461 0.0
C978 C 0.56827 0.50818 0.83336 0.0
C979 C 0.60418 0.48736 0.90788 0.0
C980 C 0.61987 0.50101 0.90616 0.0
C981 C 0.60468 0.46827 0.92638 0.0
C982 C 0.58867 0.45301 0.92612 0.0
C983 C 0.57871 0.45028 0.88123 0.0
C984 C 0.56332 0.43635 0.88157 0.0
C985 C 0.55782 0.4249 0.92647 0.0
C986 C 0.56776 0.4273 0.97107 0.0
C987 C 0.58313 0.44126 0.97098 0.0
H988 H 0.54588 0.41415 0.92669 0.0
H989 H 0.69353 0.55173 0.92455 0.0
H990 H 0.97581 0.67598 0.01024 0.0
H991 H 0.98479 0.64839 0.97974 0.0
H992 H 0.95706 0.6122 0.10444 0.0
H993 H 0.94831 0.64007 0.13568 0.0
H994 H 0.98808 0.60081 0.08068 0.0
H995 H 0.93698 0.61674 0.99145 0.0
H996 H 0.91981 0.63815 0.94231 0.0
H997 H 0.95813 0.64849 0.82235 0.0
H998 H 0.9757 0.6274 0.87119 0.0
H999 H 0.98144 0.51546 0.96348 0.0
H1000 H 0.97398 0.54206 0.00321 0.0
H1001 H 0.99789 0.581 0.87767 0.0
H1002 H 0.00505 0.55435 0.83727 0.0
H1003 H 0.96798 0.59031 0.90437 0.0
H1004 H 0.01949 0.57527 0.9934 0.0
H1005 H 0.03723 0.55444 0.04247 0.0
H1006 H 0.99871 0.54269 0.16201 0.0
H1007 H 0.98059 0.56325 0.1133 0.0
C1008 C 0.97203 0.6622 0.03186 0.0
C1009 C 0.96136 0.66008 0.07521 0.0
C1010 C 0.97705 0.64643 0.01423 0.0
C1011 C 0.97124 0.62815 0.03909 0.0
C1012 C 0.9616 0.62616 0.08449 0.0
C1013 C 0.95667 0.64205 0.10245 0.0
C1014 C 0.97416 0.61118 0.01533 0.0
C1015 C 0.98347 0.59835 0.04242 0.0
C1016 C 0.96843 0.60814 0.96499 0.0
C1017 C 0.95773 0.62061 0.93519 0.0
C1018 C 0.94181 0.62368 0.95474 0.0
C1019 C 0.932 0.63575 0.92693 0.0
C1020 C 0.93789 0.64471 0.87928 0.0
C1021 C 0.95359 0.64156 0.85929 0.0
C1022 C 0.96347 0.62954 0.88701 0.0
C1023 C 0.98499 0.52969 0.94419 0.0
C1024 C 0.99393 0.53285 0.89745 0.0
C1025 C 0.98082 0.5449 0.96711 0.0
C1026 C 0.98567 0.56362 0.944 0.0
C1027 C 0.99409 0.56672 0.89643 0.0
C1028 C 0.99819 0.55148 0.87337 0.0
C1029 C 0.98208 0.57998 0.96946 0.0
C1030 C 0.97257 0.5927 0.94268 0.0
C1031 C 0.98768 0.58292 0.01999 0.0
C1032 C 0.9986 0.57065 0.04947 0.0
C1033 C 0.01473 0.56813 0.02999 0.0
C1034 C 0.02487 0.55639 0.05776 0.0
C1035 C 0.01908 0.54721 0.10527 0.0
C1036 C 0.00316 0.54979 0.12517 0.0
C1037 C 0.99296 0.5615 0.09752 0.0
H1038 H 0.02694 0.53812 0.12672 0.0
H1039 H 0.93028 0.65405 0.85781 0.0
H1040 H 0.13135 0.18812 0.64078 0.0
H1041 H 0.11368 0.15834 0.67917 0.0
H1042 H 0.07266 0.18806 0.71423 0.0
H1043 H 0.08978 0.21763 0.67473 0.0
H1044 H 0.07497 0.15356 0.78313 0.0
H1045 H 0.06943 0.17634 0.60491 0.0
H1046 H 0.08198 0.18937 0.52082 0.0
H1047 H 0.10538 0.14015 0.51429 0.0
H1048 H 0.09316 0.12695 0.5989 0.0
H1049 H 0.00619 0.07438 0.78251 0.0
H1050 H 0.02115 0.10728 0.75765 0.0
H1051 H 0.06054 0.08643 0.67755 0.0
H1052 H 0.04458 0.05395 0.69798 0.0
H1053 H 0.05764 0.11841 0.6323 0.0
H1054 H 0.0636 0.09571 0.81158 0.0
H1055 H 0.04815 0.0811 0.89025 0.0
H1056 H 0.02344 0.12943 0.89416 0.0
H1057 H 0.03849 0.14429 0.81453 0.0
C1058 C 0.11887 0.18846 0.65836 0.0
C1059 C 0.11174 0.20514 0.65303 0.0
C1060 C 0.10884 0.17145 0.68049 0.0
C1061 C 0.09171 0.17104 0.69812 0.0
C1062 C 0.08582 0.18813 0.70046 0.0
C1063 C 0.09575 0.20511 0.67791 0.0
C1064 C 0.07875 0.15301 0.70297 0.0
C1065 C 0.07113 0.14586 0.75027 0.0
C1066 C 0.07362 0.14316 0.65985 0.0
C1067 C 0.08053 0.15076 0.60837 0.0
C1068 C 0.07734 0.16835 0.58565 0.0
C1069 C 0.08438 0.17576 0.5379 0.0
C1070 C 0.09452 0.16563 0.51224 0.0
C1071 C 0.09755 0.148 0.53424 0.0
C1072 C 0.09056 0.14054 0.58208 0.0
C1073 C 0.01767 0.07703 0.75805 0.0
C1074 C 0.02432 0.06188 0.74191 0.0
C1075 C 0.02635 0.09574 0.74437 0.0
C1076 C 0.0424 0.09934 0.71738 0.0
C1077 C 0.04829 0.08412 0.69861 0.0
C1078 C 0.03919 0.06556 0.71033 0.0
C1079 C 0.05414 0.1184 0.71298 0.0
C1080 C 0.06149 0.12594 0.66543 0.0
C1081 C 0.05907 0.12854 0.75594 0.0
C1082 C 0.05215 0.12107 0.80726 0.0
C1083 C 0.05515 0.1034 0.82982 0.0
C1084 C 0.04644 0.09508 0.87461 0.0
C1085 C 0.03511 0.10454 0.89803 0.0
C1086 C 0.03252 0.12237 0.87664 0.0
C1087 C 0.04109 0.13073 0.83157 0.0
H1088 H 0.02817 0.09798 0.93238 0.0
H1089 H 0.09998 0.17141 0.47528 0.0
H1090 H 0.32119 0.97462 0.76348 0.0
H1091 H 0.34759 0.9672 0.80862 0.0
H1092 H 0.34549 0.91879 0.72446 0.0
H1093 H 0.31923 0.92626 0.67882 0.0
H1094 H 0.36331 0.92392 0.84925 0.0
H1095 H 0.36811 0.94411 0.65234 0.0
H1096 H 0.35951 0.96534 0.58023 0.0
H1097 H 0.37129 0.01262 0.66965 0.0
H1098 H 0.37989 0.9916 0.74215 0.0
H1099 H 0.4608 0.94974 0.74173 0.0
H1100 H 0.42947 0.93453 0.74254 0.0
H1101 H 0.42088 0.9632 0.87214 0.0
H1102 H 0.45204 0.97865 0.87109 0.0
H1103 H 0.40741 0.96323 0.72852 0.0
H1104 H 0.38196 0.93484 0.93049 0.0
H1105 H 0.39182 0.91745 0.00801 0.0
H1106 H 0.423 0.89016 0.91759 0.0
H1107 H 0.41326 0.9073 0.83953 0.0
C1108 C 0.32582 0.96183 0.75659 0.0
C1109 C 0.31837 0.95109 0.71744 0.0
C1110 C 0.34084 0.95756 0.78256 0.0
C1111 C 0.34838 0.94242 0.76988 0.0
C1112 C 0.33968 0.93035 0.7352 0.0
C1113 C 0.3248 0.93472 0.70888 0.0
C1114 C 0.36734 0.94279 0.77994 0.0
C1115 C 0.37304 0.93241 0.82302 0.0
C1116 C 0.37989 0.95391 0.74571 0.0
C1117 C 0.37461 0.96637 0.70233 0.0
C1118 C 0.36882 0.95903 0.65646 0.0
C1119 C 0.36397 0.97101 0.6156 0.0
C1120 C 0.36492 0.99033 0.62034 0.0
C1121 C 0.3706 0.99767 0.66602 0.0
C1122 C 0.37548 0.98575 0.70693 0.0
C1123 C 0.45238 0.95222 0.77154 0.0
C1124 C 0.45868 0.96563 0.80566 0.0
C1125 C 0.43452 0.94349 0.77206 0.0
C1126 C 0.42294 0.94779 0.80738 0.0
C1127 C 0.42966 0.95957 0.84493 0.0
C1128 C 0.44741 0.96853 0.84393 0.0
C1129 C 0.40371 0.94407 0.79749 0.0
C1130 C 0.39785 0.95424 0.75443 0.0
C1131 C 0.39124 0.93308 0.83254 0.0
C1132 C 0.39695 0.92246 0.87917 0.0
C1133 C 0.39086 0.92507 0.92712 0.0
C1134 C 0.39647 0.91529 0.97118 0.0
C1135 C 0.4081 0.90277 0.96774 0.0
C1136 C 0.41409 0.89996 0.92023 0.0
C1137 C 0.40857 0.90974 0.87607 0.0
H1138 H 0.41243 0.89522 0.00188 0.0
H1139 H 0.36134 0.99964 0.58859 0.0
H1140 H 0.44026 0.30214 0.47322 0.0
H1141 H 0.45328 0.32253 0.53663 0.0
H1142 H 0.42108 0.28643 0.65299 0.0
H1143 H 0.40764 0.2655 0.58873 0.0
H1144 H 0.42839 0.33578 0.63115 0.0
H1145 H 0.45199 0.27935 0.68632 0.0
H1146 H 0.46334 0.25078 0.67003 0.0
H1147 H 0.50572 0.28556 0.58125 0.0
H1148 H 0.49445 0.31432 0.59631 0.0
H1149 H 0.48938 0.40246 0.75636 0.0
H1150 H 0.47062 0.37116 0.74985 0.0
H1151 H 0.50075 0.36424 0.62006 0.0
H1152 H 0.51937 0.39551 0.62646 0.0
H1153 H 0.49017 0.33058 0.67877 0.0
H1154 H 0.46591 0.38473 0.60871 0.0
H1155 H 0.45379 0.41404 0.60705 0.0
H1156 H 0.41159 0.38476 0.70566 0.0
H1157 H 0.42406 0.35555 0.71042 0.0
C1158 C 0.43543 0.2987 0.51188 0.0
C1159 C 0.42267 0.2823 0.52578 0.0
C1160 C 0.44309 0.31029 0.54817 0.0
C1161 C 0.43822 0.30581 0.59921 0.0
C1162 C 0.42501 0.28995 0.61356 0.0
C1163 C 0.41736 0.2781 0.57696 0.0
C1164 C 0.44781 0.31789 0.63624 0.0
C1165 C 0.44163 0.33439 0.64395 0.0
C1166 C 0.46526 0.31616 0.65068 0.0
C1167 C 0.47232 0.29897 0.6423 0.0
C1168 C 0.46366 0.28089 0.66304 0.0
C1169 C 0.47009 0.26466 0.65407 0.0
C1170 C 0.48523 0.26635 0.62458 0.0
C1171 C 0.494 0.28428 0.60411 0.0
C1172 C 0.48761 0.30055 0.61293 0.0
C1173 C 0.49211 0.39401 0.72715 0.0
C1174 C 0.50552 0.40144 0.6914 0.0
C1175 C 0.48148 0.3762 0.72356 0.0
C1176 C 0.48413 0.36559 0.68402 0.0
C1177 C 0.4985 0.37226 0.65087 0.0
C1178 C 0.50913 0.3901 0.6545 0.0
C1179 C 0.47086 0.34877 0.67302 0.0
C1180 C 0.47657 0.33161 0.66929 0.0
C1181 C 0.453 0.35006 0.66128 0.0
C1182 C 0.44621 0.36804 0.66099 0.0
C1183 C 0.45434 0.38465 0.63123 0.0
C1184 C 0.44739 0.40126 0.62968 0.0
C1185 C 0.43202 0.40132 0.65663 0.0
C1186 C 0.42361 0.38477 0.68529 0.0
C1187 C 0.43071 0.36823 0.68782 0.0
H1188 H 0.42657 0.41415 0.65506 0.0
H1189 H 0.49018 0.25377 0.61764 0.0
H1190 H 0.18806 0.62531 0.62231 0.0
H1191 H 0.16045 0.61713 0.67033 0.0
H1192 H 0.1767 0.56656 0.74226 0.0
H1193 H 0.20403 0.57431 0.69338 0.0
H1194 H 0.14681 0.55808 0.69059 0.0
H1195 H 0.16812 0.59993 0.81445 0.0
H1196 H 0.18233 0.62973 0.84834 0.0
H1197 H 0.14243 0.65809 0.77711 0.0
H1198 H 0.12809 0.62849 0.74224 0.0
H1199 H 0.07095 0.52303 0.83574 0.0
H1200 H 0.10097 0.54039 0.8208 0.0
H1201 H 0.08183 0.58025 0.71026 0.0
H1202 H 0.05136 0.56273 0.72442 0.0
H1203 H 0.11303 0.5948 0.78685 0.0
H1204 H 0.09399 0.55166 0.65675 0.0
H1205 H 0.0798 0.52053 0.6301 0.0
H1206 H 0.11672 0.49356 0.72132 0.0
H1207 H 0.13095 0.52452 0.74914 0.0
C1208 C 0.18596 0.61272 0.64943 0.0
C1209 C 0.19809 0.60029 0.65331 0.0
C1210 C 0.17022 0.60814 0.67717 0.0
C1211 C 0.16643 0.59112 0.70948 0.0
C1212 C 0.17934 0.57972 0.71732 0.0
C1213 C 0.19505 0.58427 0.68959 0.0
C1214 C 0.14809 0.58362 0.72752 0.0
C1215 C 0.13959 0.56605 0.71234 0.0
C1216 C 0.13847 0.59414 0.75491 0.0
C1217 C 0.14714 0.61204 0.77525 0.0
C1218 C 0.16248 0.61257 0.80554 0.0
C1219 C 0.17053 0.62941 0.82506 0.0
C1220 C 0.16332 0.64581 0.81476 0.0
C1221 C 0.14802 0.64538 0.785 0.0
C1222 C 0.13991 0.62857 0.7654 0.0
C1223 C 0.07294 0.53562 0.80862 0.0
C1224 C 0.0587 0.5413 0.78058 0.0
C1225 C 0.09016 0.54559 0.80052 0.0
C1226 C 0.09354 0.56152 0.76448 0.0
C1227 C 0.07937 0.56801 0.73852 0.0
C1228 C 0.06202 0.55792 0.74638 0.0
C1229 C 0.11202 0.56952 0.74943 0.0
C1230 C 0.12043 0.58701 0.7651 0.0
C1231 C 0.12172 0.55891 0.72288 0.0
C1232 C 0.11341 0.54035 0.7054 0.0
C1233 C 0.09899 0.53906 0.67143 0.0
C1234 C 0.09095 0.52146 0.65606 0.0
C1235 C 0.09732 0.50506 0.67411 0.0
C1236 C 0.11179 0.50626 0.70742 0.0
C1237 C 0.11985 0.52383 0.72296 0.0
H1238 H 0.09107 0.49144 0.66221 0.0
H1239 H 0.16957 0.65884 0.82993 0.0
H1240 H 0.93802 0.79279 0.91865 0.0
H1241 H 0.95562 0.82177 0.87828 0.0
H1242 H 0.91643 0.8534 0.91621 0.0
H1243 H 0.89806 0.82409 0.95495 0.0
H1244 H 0.93757 0.87087 0.83011 0.0
H1245 H 0.94338 0.84788 0.0047 0.0
H1246 H 0.94521 0.82277 0.07433 0.0
H1247 H 0.99362 0.81358 0.01274 0.0
H1248 H 0.99191 0.83858 0.94216 0.0
H1249 H 0.00584 0.94746 0.93551 0.0
H1250 H 0.98866 0.91505 0.9521 0.0
H1251 H 0.9973 0.90487 0.79766 0.0
H1252 H 0.01447 0.9371 0.78134 0.0
H1253 H 0.99038 0.8774 0.94367 0.0
H1254 H 0.9545 0.88884 0.74791 0.0
H1255 H 0.94791 0.91533 0.68808 0.0
H1256 H 0.95496 0.95192 0.80786 0.0
H1257 H 0.96092 0.92552 0.86879 0.0
C1258 C 0.93247 0.80558 0.91601 0.0
C1259 C 0.91683 0.80616 0.94188 0.0
C1260 C 0.94272 0.82225 0.89305 0.0
C1261 C 0.93759 0.83974 0.89599 0.0
C1262 C 0.92072 0.84002 0.91431 0.0
C1263 C 0.91031 0.82325 0.93686 0.0
C1264 C 0.95117 0.85735 0.89117 0.0
C1265 C 0.94923 0.87227 0.85434 0.0
C1266 C 0.96589 0.85945 0.92471 0.0
C1267 C 0.96744 0.84496 0.968 0.0
C1268 C 0.95438 0.84045 0.00592 0.0
C1269 C 0.95539 0.82622 0.04553 0.0
C1270 C 0.96949 0.8165 0.04791 0.0
C1271 C 0.98269 0.8211 0.0108 0.0
C1272 C 0.98172 0.83532 0.97101 0.0
C1273 C 0.00494 0.93787 0.90625 0.0
C1274 C 0.0115 0.94455 0.85738 0.0
C1275 C 0.99496 0.91948 0.91546 0.0
C1276 C 0.99139 0.90782 0.87565 0.0
C1277 C 0.99972 0.91378 0.82859 0.0
C1278 C 0.00969 0.93207 0.8195 0.0
C1279 C 0.97725 0.89071 0.88095 0.0
C1280 C 0.97895 0.87593 0.91851 0.0
C1281 C 0.96195 0.88916 0.84938 0.0
C1282 C 0.95847 0.90522 0.8128 0.0
C1283 C 0.95461 0.90252 0.76154 0.0
C1284 C 0.9509 0.9175 0.72746 0.0
C1285 C 0.9511 0.93531 0.74411 0.0
C1286 C 0.95489 0.93814 0.79495 0.0
C1287 C 0.95841 0.92315 0.82929 0.0
H1288 H 0.94827 0.94689 0.71762 0.0
H1289 H 0.97023 0.80544 0.07857 0.0
H1290 H 0.66209 0.99616 0.88823 0.0
H1291 H 0.64198 0.00793 0.82622 0.0
H1292 H 0.6821 0.05732 0.78217 0.0
H1293 H 0.70217 0.04586 0.84664 0.0
H1294 H 0.65308 0.06815 0.80079 0.0
H1295 H 0.66611 0.02449 0.69689 0.0
H1296 H 0.67273 0.99436 0.67373 0.0
H1297 H 0.62009 0.96576 0.7154 0.0
H1298 H 0.61319 0.99554 0.73954 0.0
H1299 H 0.55761 0.0382 0.67666 0.0
H1300 H 0.58959 0.04804 0.6641 0.0
H1301 H 0.59606 0.05542 0.82394 0.0
H1302 H 0.56415 0.04626 0.83563 0.0
H1303 H 0.60941 0.02645 0.70178 0.0
H1304 H 0.63327 0.07923 0.85664 0.0
H1305 H 0.62711 0.10963 0.8791 0.0
H1306 H 0.60707 0.12152 0.72856 0.0
H1307 H 0.61337 0.09133 0.70478 0.0
C1308 C 0.66674 0.00938 0.86481 0.0
C1309 C 0.68358 0.02022 0.87264 0.0
C1310 C 0.65531 0.01601 0.82878 0.0
C1311 C 0.66058 0.03343 0.79894 0.0
C1312 C 0.6778 0.04379 0.80456 0.0
C1313 C 0.68927 0.03718 0.8411 0.0
C1314 C 0.64709 0.04161 0.76761 0.0
C1315 C 0.64365 0.05923 0.7783 0.0
C1316 C 0.63529 0.03041 0.736 0.0
C1317 C 0.63913 0.01239 0.72004 0.0
C1318 C 0.65595 0.01177 0.70137 0.0
C1319 C 0.65976 0.99471 0.68809 0.0
C1320 C 0.64682 0.97817 0.69289 0.0
C1321 C 0.63006 0.97863 0.71117 0.0
C1322 C 0.62618 0.99562 0.72458 0.0
C1323 C 0.56587 0.04299 0.70829 0.0
C1324 C 0.55861 0.04177 0.75695 0.0
C1325 C 0.58412 0.04849 0.70121 0.0
C1326 C 0.59533 0.05251 0.74295 0.0
C1327 C 0.58778 0.05288 0.79074 0.0
C1328 C 0.56951 0.04758 0.79763 0.0
C1329 C 0.61446 0.05193 0.74014 0.0
C1330 C 0.61908 0.03579 0.72253 0.0
C1331 C 0.62742 0.0646 0.76478 0.0
C1332 C 0.62384 0.08296 0.77885 0.0
C1333 C 0.62773 0.08839 0.82807 0.0
C1334 C 0.62416 0.10558 0.84112 0.0
C1335 C 0.61671 0.1175 0.80529 0.0
C1336 C 0.61282 0.11226 0.75631 0.0
C1337 C 0.61637 0.09509 0.74304 0.0
H1338 H 0.61394 0.13079 0.81549 0.0
H1339 H 0.64977 0.96499 0.68245 0.0
H1340 H 0.59848 0.74549 0.03572 0.0
H1341 H 0.58866 0.71817 0.98917 0.0
H1342 H 0.62091 0.68604 0.08506 0.0
H1343 H 0.63138 0.7137 0.13144 0.0
H1344 H 0.5996 0.69024 0.93905 0.0
H1345 H 0.59272 0.64646 0.13309 0.0
H1346 H 0.59209 0.65085 0.2244 0.0
H1347 H 0.57054 0.70143 0.18784 0.0
H1348 H 0.57104 0.69731 0.09662 0.0
H1349 H 0.55491 0.59344 0.9177 0.0
H1350 H 0.57587 0.62206 0.93574 0.0
H1351 H 0.53364 0.64379 0.99909 0.0
H1352 H 0.51256 0.61512 0.98122 0.0
H1353 H 0.56262 0.64353 0.0632 0.0
H1354 H 0.5516 0.67029 0.88942 0.0
H1355 H 0.54938 0.67113 0.79588 0.0
H1356 H 0.60119 0.65756 0.79023 0.0
H1357 H 0.60393 0.6573 0.88362 0.0
C1358 C 0.60429 0.73303 0.04552 0.0
C1359 C 0.61541 0.73169 0.08835 0.0
C1360 C 0.59856 0.71732 0.01875 0.0
C1361 C 0.60373 0.7 0.03451 0.0
C1362 C 0.61659 0.69927 0.07287 0.0
C1363 C 0.62246 0.71506 0.09952 0.0
C1364 C 0.59303 0.68234 0.01813 0.0
C1365 C 0.59177 0.67981 0.96622 0.0
C1366 C 0.58239 0.66908 0.05342 0.0
C1367 C 0.58212 0.67169 0.10817 0.0
C1368 C 0.58788 0.65852 0.14467 0.0
C1369 C 0.58756 0.66097 0.19638 0.0
C1370 C 0.58137 0.67647 0.21195 0.0
C1371 C 0.57547 0.68952 0.17583 0.0
C1372 C 0.57579 0.68715 0.12413 0.0
C1373 C 0.5501 0.60432 0.93555 0.0
C1374 C 0.53214 0.60201 0.94851 0.0
C1375 C 0.56204 0.62075 0.94515 0.0
C1376 C 0.55626 0.63504 0.9684 0.0
C1377 C 0.5383 0.63291 0.98084 0.0
C1378 C 0.5263 0.61656 0.9707 0.0
C1379 C 0.56917 0.65137 0.98407 0.0
C1380 C 0.57082 0.65362 0.03605 0.0
C1381 C 0.57984 0.66453 0.94874 0.0
C1382 C 0.57789 0.66359 0.89329 0.0
C1383 C 0.56246 0.66738 0.86817 0.0
C1384 C 0.56118 0.66793 0.81521 0.0
C1385 C 0.5751 0.66432 0.78716 0.0
C1386 C 0.5904 0.66032 0.812 0.0
C1387 C 0.59189 0.66012 0.86487 0.0
H1388 H 0.57401 0.66461 0.74619 0.0
H1389 H 0.58108 0.67831 0.252 0.0
H1390 H 0.8209 0.37652 0.92279 0.0
H1391 H 0.85045 0.37987 0.88638 0.0
H1392 H 0.84565 0.43485 0.81105 0.0
H1393 H 0.81595 0.43111 0.84535 0.0
H1394 H 0.86715 0.42069 0.75861 0.0
H1395 H 0.86116 0.42914 0.93602 0.0
H1396 H 0.85091 0.41896 0.02401 0.0
H1397 H 0.87966 0.37316 0.03255 0.0
H1398 H 0.88993 0.38299 0.94425 0.0
H1399 H 0.94392 0.48604 0.79088 0.0
H1400 H 0.91481 0.46602 0.79733 0.0
H1401 H 0.9381 0.41709 0.8454 0.0
H1402 H 0.96774 0.43734 0.84005 0.0
H1403 H 0.90919 0.42005 0.90401 0.0
H1404 H 0.92167 0.42204 0.72589 0.0
H1405 H 0.93309 0.43981 0.6448 0.0
H1406 H 0.89212 0.47278 0.64253 0.0
H1407 H 0.88065 0.45552 0.72393 0.0
C1408 C 0.82591 0.38891 0.89663 0.0
C1409 C 0.81627 0.40363 0.88714 0.0
C1410 C 0.84282 0.39089 0.87612 0.0
C1411 C 0.85051 0.40789 0.84731 0.0
C1412 C 0.84008 0.42165 0.83336 0.0
C1413 C 0.82306 0.41949 0.85295 0.0
C1414 C 0.86995 0.41288 0.83896 0.0
C1415 C 0.87636 0.42034 0.79026 0.0
C1416 C 0.88206 0.41243 0.88023 0.0
C1417 C 0.87612 0.40663 0.93344 0.0
C1418 C 0.86522 0.41684 0.95662 0.0
C1419 C 0.8594 0.41114 0.00651 0.0
C1420 C 0.86456 0.39537 0.0338 0.0
C1421 C 0.87562 0.38533 0.0113 0.0
C1422 C 0.88145 0.39096 0.96134 0.0
C1423 C 0.94301 0.47103 0.80274 0.0
C1424 C 0.95823 0.46329 0.81479 0.0
C1425 C 0.92628 0.45956 0.80608 0.0
C1426 C 0.92431 0.44 0.8207 0.0
C1427 C 0.93939 0.43215 0.83349 0.0
C1428 C 0.95628 0.44371 0.83043 0.0
C1429 C 0.90628 0.42821 0.82404 0.0
C1430 C 0.90012 0.41959 0.87189 0.0
C1431 C 0.89436 0.42818 0.78234 0.0
C1432 C 0.90032 0.43748 0.73116 0.0
C1433 C 0.91509 0.43308 0.70806 0.0
C1434 C 0.92165 0.44315 0.6622 0.0
C1435 C 0.91349 0.4576 0.63889 0.0
C1436 C 0.89857 0.46177 0.66092 0.0
C1437 C 0.89197 0.45176 0.70679 0.0
H1438 H 0.91853 0.46531 0.60328 0.0
H1439 H 0.86003 0.39096 0.07242 0.0
H1440 H 0.05436 0.20768 0.29086 0.0
H1441 H 0.0492 0.18144 0.23738 0.0
H1442 H 0.08521 0.21496 0.12538 0.0
H1443 H 0.09023 0.24144 0.17908 0.0
H1444 H 0.05623 0.19247 0.08145 0.0
H1445 H 0.10011 0.1846 0.20869 0.0
H1446 H 0.11222 0.18342 0.29591 0.0
H1447 H 0.07122 0.13574 0.34264 0.0
H1448 H 0.05862 0.13688 0.25589 0.0
H1449 H 0.07177 0.11114 0.9667 0.0
H1450 H 0.07533 0.14061 0.00765 0.0
H1451 H 0.04161 0.11121 0.13034 0.0
H1452 H 0.03812 0.08171 0.08979 0.0
H1453 H 0.07127 0.13265 0.16604 0.0
H1454 H 0.02522 0.14353 0.04462 0.0
H1455 H 0.01088 0.14662 0.96047 0.0
H1456 H 0.05573 0.18813 0.90412 0.0
H1457 H 0.07018 0.18554 0.98838 0.0
C1458 C 0.06071 0.20963 0.25405 0.0
C1459 C 0.07252 0.22658 0.23865 0.0
C1460 C 0.05791 0.19459 0.22377 0.0
C1461 C 0.06707 0.19609 0.1778 0.0
C1462 C 0.07804 0.21348 0.16076 0.0
C1463 C 0.08082 0.22861 0.19118 0.0
C1464 C 0.06612 0.17903 0.14988 0.0
C1465 C 0.0598 0.17949 0.09965 0.0
C1466 C 0.07053 0.16197 0.17385 0.0
C1467 C 0.07832 0.16094 0.22582 0.0
C1468 C 0.0936 0.17393 0.23762 0.0
C1469 C 0.10055 0.17327 0.28699 0.0
C1470 C 0.09247 0.15953 0.32483 0.0
C1471 C 0.07745 0.14639 0.3133 0.0
C1472 C 0.0704 0.14703 0.26402 0.0
C1473 C 0.0652 0.11093 0.00256 0.0
C1474 C 0.05471 0.09403 0.02508 0.0
C1475 C 0.06709 0.12784 0.02567 0.0
C1476 C 0.05864 0.1282 0.07197 0.0
C1477 C 0.04824 0.11133 0.0946 0.0
C1478 C 0.04619 0.09448 0.07127 0.0
C1479 C 0.06107 0.14596 0.09779 0.0
C1480 C 0.0678 0.14566 0.14769 0.0
C1481 C 0.05707 0.16315 0.07354 0.0
C1482 C 0.04883 0.16419 0.02246 0.0
C1483 C 0.03206 0.15321 0.01413 0.0
C1484 C 0.02387 0.15498 0.96659 0.0
C1485 C 0.03241 0.16752 0.92692 0.0
C1486 C 0.04914 0.17841 0.93485 0.0
C1487 C 0.05729 0.17688 0.98256 0.0
H1488 H 0.02608 0.16879 0.89003 0.0
H1489 H 0.09786 0.15906 0.36305 0.0
H1490 H 0.35083 0.03289 0.32105 0.0
H1491 H 0.36829 0.04178 0.24368 0.0
H1492 H 0.32205 0.02277 0.15368 0.0
H1493 H 0.30446 0.0134 0.23194 0.0
H1494 H 0.34996 0.00852 0.12619 0.0
H1495 H 0.34015 0.07013 0.14953 0.0
H1496 H 0.33859 0.09765 0.19603 0.0
H1497 H 0.39433 0.105 0.22747 0.0
H1498 H 0.3962 0.07735 0.1818 0.0
H1499 H 0.40467 0.04008 0.9063 0.0
H1500 H 0.38056 0.03759 0.96699 0.0
H1501 H 0.41873 0.05141 0.0859 0.0
H1502 H 0.44284 0.05419 0.02539 0.0
H1503 H 0.39098 0.07029 0.08822 0.0
H1504 H 0.39949 0.00604 0.07606 0.0
H1505 H 0.40124 0.97834 0.03044 0.0
H1506 H 0.34773 0.97621 0.97796 0.0
H1507 H 0.34574 1.00408 0.02277 0.0
C1508 C 0.34431 0.03077 0.28475 0.0
C1509 C 0.3263 0.02234 0.28252 0.0
C1510 C 0.35429 0.03601 0.24045 0.0
C1511 C 0.34649 0.0331 0.1927 0.0
C1512 C 0.32834 0.0252 0.19011 0.0
C1513 C 0.31828 0.01999 0.2347 0.0
C1514 C 0.35776 0.03714 0.14641 0.0
C1515 C 0.35861 0.02219 0.1171 0.0
C1516 C 0.36931 0.05486 0.13503 0.0
C1517 C 0.36829 0.07157 0.16242 0.0
C1518 C 0.35206 0.07752 0.16664 0.0
C1519 C 0.35112 0.09317 0.19282 0.0
C1520 C 0.36634 0.10305 0.21474 0.0
C1521 C 0.38255 0.09733 0.21045 0.0
C1522 C 0.38356 0.08169 0.18435 0.0
C1523 C 0.40791 0.04282 0.94524 0.0
C1524 C 0.42567 0.04725 0.96112 0.0
C1525 C 0.39412 0.04126 0.97993 0.0
C1526 C 0.39784 0.04417 0.03108 0.0
C1527 C 0.41554 0.04909 0.04665 0.0
C1528 C 0.42931 0.05053 0.01213 0.0
C1529 C 0.38342 0.04156 0.069 0.0
C1530 C 0.38205 0.05677 0.09672 0.0
C1531 C 0.37139 0.02411 0.07889 0.0
C1532 C 0.37254 0.00728 0.05223 0.0
C1533 C 0.38814 0.99976 0.05445 0.0
C1534 C 0.38917 0.98401 0.02881 0.0
C1535 C 0.37463 0.97555 1.00118 0.0
C1536 C 0.359 0.9828 0.99929 0.0
C1537 C 0.35791 0.99856 0.02482 0.0
H1538 H 0.37545 0.96337 0.98135 0.0
H1539 H 0.36559 0.11515 0.23499 0.0
H1540 H 0.48024 0.30125 0.09131 0.0
H1541 H 0.48997 0.32859 0.02825 0.0
H1542 H 0.43697 0.3404 0.02186 0.0
H1543 H 0.42696 0.31208 0.07893 0.0
H1544 H 0.44814 0.35227 0.94 0.0
H1545 H 0.47572 0.36206 0.103 0.0
H1546 H 0.49427 0.35572 0.1779 0.0
H1547 H 0.53964 0.36229 0.08171 0.0
H1548 H 0.52129 0.36844 0.00615 0.0
H1549 H 0.4684 0.45394 0.89084 0.0
H1550 H 0.46079 0.42162 0.93412 0.0
H1551 H 0.50869 0.40841 0.87845 0.0
H1552 H 0.51632 0.44051 0.83477 0.0
H1553 H 0.50229 0.39695 0.98481 0.0
H1554 H 0.47126 0.39205 0.82423 0.0
H1555 H 0.45122 0.40335 0.75866 0.0
H1556 H 0.4088 0.39138 0.8669 0.0
H1557 H 0.42883 0.38045 0.93304 0.0
C1558 C 0.47058 0.30931 0.07496 0.0
C1559 C 0.45291 0.30475 0.09156 0.0
C1560 C 0.47623 0.32527 0.03965 0.0
C1561 C 0.46447 0.33736 0.02168 0.0
C1562 C 0.44655 0.33174 0.03514 0.0
C1563 C 0.44082 0.31552 0.0686 0.0
C1564 C 0.47058 0.35624 0.99115 0.0
C1565 C 0.45991 0.36199 0.95061 0.0
C1566 C 0.48605 0.36923 0.00366 0.0
C1567 C 0.49708 0.36543 0.04892 0.0
C1568 C 0.48962 0.36201 0.09782 0.0
C1569 C 0.5001 0.35847 0.14038 0.0
C1570 C 0.51811 0.35853 0.13455 0.0
C1571 C 0.52568 0.36219 0.08615 0.0
C1572 C 0.51525 0.36569 0.04345 0.0
C1573 C 0.47728 0.44415 0.88761 0.0
C1574 C 0.49295 0.44988 0.85918 0.0
C1575 C 0.47291 0.42566 0.91239 0.0
C1576 C 0.48416 0.41255 0.90952 0.0
C1577 C 0.49983 0.41826 0.88136 0.0
C1578 C 0.50412 0.43664 0.85616 0.0
C1579 C 0.47954 0.39286 0.93561 0.0
C1580 C 0.49056 0.38704 0.97477 0.0
C1581 C 0.46396 0.38016 0.92361 0.0
C1582 C 0.4516 0.38564 0.88338 0.0
C1583 C 0.45768 0.39191 0.83375 0.0
C1584 C 0.44632 0.39826 0.79662 0.0
C1585 C 0.42873 0.39817 0.80868 0.0
C1586 C 0.42244 0.3915 0.85767 0.0
C1587 C 0.4338 0.38522 0.89496 0.0
H1588 H 0.41998 0.4033 0.78015 0.0
H1589 H 0.5262 0.3558 0.16754 0.0
H1590 H 0.19541 0.54388 0.30657 0.0
H1591 H 0.17459 0.53171 0.24211 0.0
H1592 H 0.21683 0.54083 0.13281 0.0
H1593 H 0.23797 0.55381 0.19759 0.0
H1594 H 0.18632 0.55218 0.09177 0.0
H1595 H 0.201 0.49663 0.18158 0.0
H1596 H 0.20671 0.47517 0.25658 0.0
H1597 H 0.15301 0.46965 0.30531 0.0
H1598 H 0.14703 0.49131 0.23102 0.0
H1599 H 0.12058 0.49747 0.93562 0.0
H1600 H 0.14821 0.50807 0.98172 0.0
H1601 H 0.11832 0.50798 0.11759 0.0
H1602 H 0.09081 0.49737 0.07201 0.0
H1603 H 0.14697 0.48958 0.13388 0.0
H1604 H 0.1341 0.54869 0.04881 0.0
H1605 H 0.12863 0.57012 0.97345 0.0
H1606 H 0.17956 0.56821 0.91383 0.0
H1607 H 0.18523 0.54651 0.98857 0.0
C1608 C 0.20034 0.54357 0.26871 0.0
C1609 C 0.21836 0.55001 0.25714 0.0
C1610 C 0.18841 0.53639 0.23196 0.0
C1611 C 0.19416 0.53514 0.18276 0.0
C1612 C 0.21213 0.54162 0.17064 0.0
C1613 C 0.22418 0.54889 0.2077 0.0
C1614 C 0.18111 0.52695 0.14491 0.0
C1615 C 0.17798 0.5383 0.1003 0.0
C1616 C 0.17014 0.50889 0.15618 0.0
C1617 C 0.17359 0.49568 0.20077 0.0
C1618 C 0.19043 0.49093 0.20844 0.0
C1619 C 0.19372 0.47872 0.25082 0.0
C1620 C 0.18024 0.47107 0.28572 0.0
C1621 C 0.16344 0.47558 0.27824 0.0
C1622 C 0.16008 0.4878 0.23594 0.0
C1623 C 0.11996 0.49966 0.97537 0.0
C1624 C 0.10354 0.49663 1.00024 0.0
C1625 C 0.13571 0.50582 0.00152 0.0
C1626 C 0.13529 0.50887 0.05301 0.0
C1627 C 0.11893 0.50571 0.07787 0.0
C1628 C 0.10322 0.49977 0.05171 0.0
C1629 C 0.15179 0.51508 0.08184 0.0
C1630 C 0.15555 0.50329 0.12477 0.0
C1631 C 0.16336 0.53263 0.06869 0.0
C1632 C 0.15999 0.54577 0.02396 0.0
C1633 C 0.14407 0.55269 0.01942 0.0
C1634 C 0.14095 0.56492 0.97686 0.0
C1635 C 0.15371 0.57047 0.93878 0.0
C1636 C 0.16967 0.56386 0.9433 0.0
C1637 C 0.17284 0.5516 0.98576 0.0
H1638 H 0.15127 0.57993 0.90585 0.0
H1639 H 0.18281 0.46162 0.31852 0.0
H1640 H 0.95166 0.76869 0.42213 0.0
H1641 H 0.95854 0.79332 0.48131 0.0
H1642 H 0.97124 0.83624 0.35406 0.0
H1643 H 0.96489 0.81185 0.29566 0.0
H1644 H 0.99367 0.84429 0.42782 0.0
H1645 H 0.93006 0.82618 0.41353 0.0
H1646 H 0.90142 0.80386 0.42022 0.0
H1647 H 0.91016 0.79104 0.58011 0.0
H1648 H 0.93898 0.81313 0.57419 0.0
H1649 H 0.97863 0.92989 0.50914 0.0
H1650 H 0.97611 0.90068 0.46796 0.0
H1651 H 0.96974 0.86754 0.61431 0.0
H1652 H 0.97202 0.89674 0.65586 0.0
H1653 H 0.94602 0.85203 0.54226 0.0
H1654 H 0.0085 0.87427 0.55579 0.0
H1655 H 0.03635 0.8978 0.54623 0.0
H1656 H 0.02899 0.90392 0.38422 0.0
H1657 H 0.00096 0.88063 0.39286 0.0
C1658 C 0.95626 0.78334 0.4071 0.0
C1659 C 0.95754 0.78838 0.3543 0.0
C1660 C 0.96003 0.79743 0.44082 0.0
C1661 C 0.96513 0.81674 0.42216 0.0
C1662 C 0.96728 0.82153 0.36957 0.0
C1663 C 0.96354 0.80756 0.33614 0.0
C1664 C 0.96752 0.83226 0.45632 0.0
C1665 C 0.98321 0.84598 0.45271 0.0
C1666 C 0.95406 0.83437 0.4897 0.0
C1667 C 0.93676 0.82111 0.4933 0.0
C1668 C 0.92593 0.81848 0.45002 0.0
C1669 C 0.90966 0.8059 0.45368 0.0
C1670 C 0.904 0.79599 0.50053 0.0
C1671 C 0.91458 0.79869 0.54383 0.0
C1672 C 0.93088 0.81124 0.54035 0.0
C1673 C 0.97651 0.91639 0.53261 0.0
C1674 C 0.97553 0.9157 0.58586 0.0
C1675 C 0.97523 0.8997 0.50902 0.0
C1676 C 0.97293 0.8819 0.53806 0.0
C1677 C 0.97159 0.88109 0.59113 0.0
C1678 C 0.973 0.89782 0.61483 0.0
C1679 C 0.97198 0.86423 0.5127 0.0
C1680 C 0.95658 0.85015 0.518 0.0
C1681 C 0.98562 0.86188 0.48041 0.0
C1682 C 0.00256 0.87579 0.47503 0.0
C1683 C 0.01276 0.88073 0.51815 0.0
C1684 C 0.02859 0.89401 0.51289 0.0
C1685 C 0.03442 0.90237 0.46466 0.0
C1686 C 0.02445 0.89744 0.42156 0.0
C1687 C 0.0086 0.88418 0.42662 0.0
H1688 H 0.04668 0.91266 0.46066 0.0
H1689 H 0.89139 0.78625 0.5033 0.0
H1690 H 0.71955 0.96771 0.36373 0.0
H1691 H 0.69919 0.96426 0.4358 0.0
H1692 H 0.67432 0.00858 0.36008 0.0
H1693 H 0.69516 0.01284 0.2906 0.0
H1694 H 0.67381 0.01178 0.4529 0.0
H1695 H 0.6585 0.95827 0.35435 0.0
H1696 H 0.66355 0.93005 0.31583 0.0
H1697 H 0.67304 0.90288 0.4638 0.0
H1698 H 0.66825 0.93106 0.50314 0.0
H1699 H 0.58557 0.98996 0.53966 0.0
H1700 H 0.61222 0.99402 0.48833 0.0
H1701 H 0.6321 0.95276 0.59305 0.0
H1702 H 0.60512 0.94818 0.64371 0.0
H1703 H 0.63803 0.94746 0.49778 0.0
H1704 H 0.64495 1.00228 0.59179 0.0
H1705 H 0.63634 0.0309 0.61945 0.0
H1706 H 0.6388 0.05668 0.46532 0.0
H1707 H 0.647 0.02811 0.4365 0.0
C1708 C 0.71003 0.97701 0.36332 0.0
C1709 C 0.70871 0.99026 0.32103 0.0
C1710 C 0.69824 0.97488 0.40417 0.0
C1711 C 0.68482 0.98579 0.40291 0.0
C1712 C 0.68438 0.99986 0.36215 0.0
C1713 C 0.69624 1.00217 0.32205 0.0
C1714 C 0.67051 0.98212 0.44179 0.0
C1715 C 0.66595 0.99771 0.46251 0.0
C1716 C 0.66032 0.96375 0.45512 0.0
C1717 C 0.66326 0.94684 0.43158 0.0
C1718 C 0.6618 0.94633 0.37861 0.0
C1719 C 0.66459 0.93034 0.35664 0.0
C1720 C 0.66868 0.91471 0.38734 0.0
C1721 C 0.66993 0.91502 0.44007 0.0
C1722 C 0.66717 0.93099 0.46222 0.0
C1723 C 0.59564 0.9818 0.55188 0.0
C1724 C 0.59334 0.96894 0.59618 0.0
C1725 C 0.61091 0.98417 0.52255 0.0
C1726 C 0.62441 0.97407 0.53748 0.0
C1727 C 0.62194 0.96083 0.58094 0.0
C1728 C 0.60651 0.95821 0.60986 0.0
C1729 C 0.64101 0.9772 0.50745 0.0
C1730 C 0.64604 0.96149 0.48872 0.0
C1731 C 0.65121 0.99561 0.49437 0.0
C1732 C 0.6466 0.01298 0.51206 0.0
C1733 C 0.64365 0.01403 0.56385 0.0
C1734 C 0.63881 0.03023 0.57972 0.0
C1735 C 0.63708 0.04559 0.54426 0.0
C1736 C 0.64017 0.04478 0.4928 0.0
C1737 C 0.64491 0.02858 0.47668 0.0
H1738 H 0.63333 0.0581 0.55667 0.0
H1739 H 0.67083 0.90234 0.37027 0.0
H1740 H 0.579 0.71889 0.54844 0.0
H1741 H 0.57003 0.68911 0.6034 0.0
H1742 H 0.5254 0.67316 0.5049 0.0
H1743 H 0.5343 0.70307 0.45012 0.0
H1744 H 0.54 0.66833 0.65702 0.0
H1745 H 0.52664 0.627 0.48064 0.0
H1746 H 0.53443 0.63135 0.38958 0.0
H1747 H 0.5829 0.66892 0.42165 0.0
H1748 H 0.57557 0.66448 0.51292 0.0
H1749 H 0.50385 0.57218 0.73575 0.0
H1750 H 0.50949 0.60401 0.69083 0.0
H1751 H 0.5595 0.59482 0.63863 0.0
H1752 H 0.55364 0.56245 0.68244 0.0
H1753 H 0.54354 0.61286 0.56393 0.0
H1754 H 0.55594 0.62086 0.73958 0.0
H1755 H 0.54888 0.61593 0.83078 0.0
H1756 H 0.50553 0.64542 0.80335 0.0
H1757 H 0.51209 0.65016 0.71151 0.0
C1758 C 0.56685 0.70938 0.53983 0.0
C1759 C 0.55724 0.71332 0.49532 0.0
C1760 C 0.56178 0.69232 0.57109 0.0
C1761 C 0.5472 0.67876 0.55788 0.0
C1762 C 0.53677 0.68336 0.51565 0.0
C1763 C 0.54173 0.70054 0.48467 0.0
C1764 C 0.54429 0.6591 0.58436 0.0
C1765 C 0.54065 0.65618 0.63665 0.0
C1766 C 0.54562 0.64328 0.55812 0.0
C1767 C 0.55044 0.64557 0.50351 0.0
C1768 C 0.539 0.6361 0.46826 0.0
C1769 C 0.54334 0.63858 0.41662 0.0
C1770 C 0.55913 0.65045 0.39981 0.0
C1771 C 0.57066 0.65977 0.43467 0.0
C1772 C 0.56641 0.65728 0.48636 0.0
C1773 C 0.51611 0.57687 0.7149 0.0
C1774 C 0.52839 0.56475 0.71317 0.0
C1775 C 0.51932 0.59517 0.6892 0.0
C1776 C 0.53507 0.60204 0.66194 0.0
C1777 C 0.54727 0.5899 0.6595 0.0
C1778 C 0.54396 0.57142 0.68478 0.0
C1779 C 0.53878 0.62193 0.63653 0.0
C1780 C 0.54272 0.62494 0.58438 0.0
C1781 C 0.53794 0.63784 0.66311 0.0
C1782 C 0.53442 0.63571 0.71857 0.0
C1783 C 0.54481 0.62616 0.7529 0.0
C1784 C 0.54085 0.62334 0.80475 0.0
C1785 C 0.52668 0.63025 0.82289 0.0
C1786 C 0.51647 0.64003 0.7892 0.0
C1787 C 0.52031 0.64279 0.73723 0.0
H1788 H 0.5237 0.62822 0.86303 0.0
H1789 H 0.56243 0.6524 0.3598 0.0
H1790 H 0.79268 0.45642 0.34001 0.0
H1791 H 0.81143 0.469 0.4102 0.0
H1792 H 0.85791 0.47293 0.31907 0.0
H1793 H 0.8395 0.46107 0.24902 0.0
H1794 H 0.85826 0.45163 0.41715 0.0
H1795 H 0.84528 0.51173 0.33704 0.0
H1796 H 0.82502 0.53341 0.30784 0.0
H1797 H 0.80554 0.53009 0.45995 0.0
H1798 H 0.82553 0.50816 0.48992 0.0
H1799 H 0.93345 0.5013 0.52731 0.0
H1800 H 0.90854 0.48915 0.47394 0.0
H1801 H 0.87259 0.50534 0.5763 0.0
H1802 H 0.89775 0.51805 0.62946 0.0
H1803 H 0.86256 0.51393 0.48503 0.0
H1804 H 0.87089 0.45259 0.56604 0.0
H1805 H 0.88673 0.427 0.59878 0.0
H1806 H 0.91189 0.43052 0.45404 0.0
H1807 H 0.8956 0.45556 0.41988 0.0
C1808 C 0.80687 0.46028 0.33477 0.0
C1809 C 0.81462 0.45736 0.2893 0.0
C1810 C 0.81755 0.4674 0.37487 0.0
C1811 C 0.83606 0.47169 0.36988 0.0
C1812 C 0.84368 0.4695 0.32388 0.0
C1813 C 0.83311 0.46259 0.28399 0.0
C1814 C 0.84787 0.47744 0.4129 0.0
C1815 C 0.85924 0.46529 0.43191 0.0
C1816 C 0.84863 0.49486 0.43363 0.0
C1817 C 0.83673 0.50813 0.41559 0.0
C1818 C 0.83655 0.51548 0.36417 0.0
C1819 C 0.82515 0.52784 0.3475 0.0
C1820 C 0.81395 0.53307 0.38199 0.0
C1821 C 0.81419 0.52599 0.43326 0.0
C1822 C 0.82556 0.51361 0.45011 0.0
C1823 C 0.92023 0.50215 0.53873 0.0
C1824 C 0.91757 0.5105 0.58287 0.0
C1825 C 0.90593 0.49502 0.50838 0.0
C1826 C 0.88853 0.49575 0.52172 0.0
C1827 C 0.88584 0.50443 0.56531 0.0
C1828 C 0.90023 0.51178 0.59554 0.0
C1829 C 0.87343 0.48833 0.48836 0.0
C1830 C 0.86142 0.50012 0.47109 0.0
C1831 C 0.87175 0.47034 0.46985 0.0
C1832 C 0.88226 0.45608 0.49073 0.0
C1833 C 0.8799 0.44797 0.54137 0.0
C1834 C 0.88881 0.43345 0.55999 0.0
C1835 C 0.90046 0.42729 0.5287 0.0
C1836 C 0.90295 0.43538 0.47835 0.0
C1837 C 0.89374 0.44959 0.45918 0.0
H1838 H 0.90747 0.41618 0.54339 0.0
H1839 H 0.80514 0.54265 0.36901 0.0
loop_
_geom_bond_atom_site_label_1
_geom_bond_atom_site_label_2
_geom_bond_distance
_geom_bond_site_symmetry_2
_ccdc_geom_bond_type
C0 C1 1.391 . S
C0 C4 1.391 . S
C0 H42 0.948 . S
C1 C0 1.391 . S
C1 C2 1.391 . S
C2 C1 1.391 . S
C2 H58 0.947 . S
C2 C59 1.392 . S
C3 C4 1.391 . S
C3 C7 1.397 . S
C3 C59 1.419 . S
C4 C0 1.391 . S
C4 C3 1.391 . S
C4 C5 1.399 . S
C5 C4 1.399 . S
C5 C8 1.396 . S
C5 C17 1.453 . S
C5 C18 1.684 . S
H6 C30 0.948 . S
C7 C3 1.397 . S
C7 C8 1.394 . S
C7 C26 1.723 . S
C8 C5 1.396 . S
C8 C7 1.394 . S
C8 C38 1.723 . S
H9 C32 0.947 . S
H10 C33 0.948 . S
H11 C39 0.982 . S
H12 C40 0.979 . S
H13 C40 0.980 . S
H14 C40 0.983 . S
H15 C39 0.979 . S
H16 C39 0.977 . S
C17 C5 1.453 . S
C17 H46 0.982 . S
C17 H47 0.979 . S
C17 H48 0.977 . S
C18 C5 1.684 . S
C18 H43 0.979 . S
C18 H44 0.980 . S
C18 H45 0.983 . S
C19 C20 1.391 . S
C19 C24 1.391 . S
C19 H49 0.948 . S
C20 C19 1.391 . S
C20 C21 1.391 . S
C21 C20 1.391 . S
C21 C22 1.392 . S
C21 H50 0.947 . S
C22 C21 1.392 . S
C22 C23 1.419 . S
C22 H51 0.948 . S
C23 C22 1.419 . S
C23 C24 1.391 . S
C23 C27 1.393 1_556 S
C24 C19 1.391 . S
C24 C23 1.391 . S
C24 C25 1.399 1_556 S
C25 C24 1.399 1_554 S
C25 C26 1.396 . S
C25 C28 1.453 . S
C25 C29 1.684 . S
C26 C7 1.723 . S
C26 C25 1.396 . S
C26 C27 1.398 . S
C27 C23 1.393 1_554 S
C27 C26 1.398 . S
C27 C37 1.723 1_554 S
C28 C25 1.453 . S
C28 H52 0.982 . S
C28 H53 0.979 . S
C28 H54 0.977 . S
C29 C25 1.684 . S
C29 H55 0.979 . S
C29 H56 0.980 . S
C29 H57 0.983 . S
C30 H6 0.948 . S
C30 C31 1.391 1_556 S
C30 C35 1.391 . S
C31 C30 1.391 1_554 S
C31 C32 1.391 . S
C32 H9 0.947 . S
C32 C31 1.391 . S
C32 C33 1.392 . S
C33 H10 0.948 . S
C33 C32 1.392 . S
C33 C34 1.419 . S
C34 C33 1.419 . S
C34 C35 1.391 1_554 S
C34 C38 1.397 . S
C35 C30 1.391 . S
C35 C34 1.391 1_556 S
C35 C36 1.399 . S
C36 C35 1.399 . S
C36 C37 1.396 . S
C36 C39 1.453 . S
C36 C40 1.684 . S
C37 C27 1.723 1_556 S
C37 C36 1.396 . S
C37 C38 1.394 1_556 S
C38 C8 1.723 . S
C38 C34 1.397 . S
C38 C37 1.394 1_554 S
C39 H11 0.982 . S
C39 H15 0.979 . S
C39 H16 0.977 . S
C39 C36 1.453 . S
C40 H12 0.979 . S
C40 H13 0.980 . S
C40 H14 0.983 . S
C40 C36 1.684 . S
H41 C59 0.948 . S
H42 C0 0.948 . S
H43 C18 0.979 . S
H44 C18 0.980 . S
H45 C18 0.983 . S
H46 C17 0.982 . S
H47 C17 0.979 . S
H48 C17 0.977 . S
H49 C19 0.948 . S
H50 C21 0.947 . S
H51 C22 0.948 . S
H52 C28 0.982 . S
H53 C28 0.979 . S
H54 C28 0.977 . S
H55 C29 0.979 . S
H56 C29 0.980 . S
H57 C29 0.983 . S
H58 C2 0.947 . S
C59 C2 1.392 . S
C59 C3 1.419 . S
C59 H41 0.948 . S
C60 C61 1.391 . S
C60 C64 1.391 . S
C60 H102 0.948 . S
C61 C60 1.391 . S
C61 C62 1.391 . S
C62 C61 1.391 . S
C62 H118 0.947 . S
C62 C119 1.392 . S
C63 C64 1.391 . S
C63 C67 1.397 1_556 S
C63 C119 1.419 . S
C64 C60 1.391 . S
C64 C63 1.391 . S
C64 C65 1.399 . S
C65 C64 1.399 . S
C65 C68 1.396 . S
C65 C77 1.453 . S
C65 C78 1.684 . S
H66 C90 0.948 . S
C67 C63 1.397 1_554 S
C67 C68 1.394 1_554 S
C67 C86 1.723 . S
C68 C65 1.396 . S
C68 C67 1.394 1_556 S
C68 C98 1.723 1_556 S
H69 C92 0.947 . S
H70 C93 0.948 . S
H71 C99 0.982 . S
H72 C100 0.979 . S
H73 C100 0.980 . S
H74 C100 0.983 . S
H75 C99 0.979 . S
H76 C99 0.977 . S
C77 C65 1.453 . S
C77 H106 0.982 . S
C77 H107 0.979 . S
C77 H108 0.977 . S
C78 C65 1.684 . S
C78 H103 0.979 . S
C78 H104 0.980 . S
C78 H105 0.983 . S
C79 C80 1.391 . S
C79 C84 1.391 . S
C79 H109 0.948 . S
C80 C79 1.391 . S
C80 C81 1.391 . S
C81 C80 1.391 . S
C81 C82 1.392 . S
C81 H110 0.947 . S
C82 C81 1.392 . S
C82 C83 1.419 . S
C82 H111 0.948 . S
C83 C82 1.419 . S
C83 C84 1.391 . S
C83 C87 1.397 . S
C84 C79 1.391 . S
C84 C83 1.391 . S
C84 C85 1.399 . S
C85 C84 1.399 . S
C85 C86 1.396 . S
C85 C88 1.453 . S
C85 C89 1.684 . S
C86 C67 1.723 . S
C86 C85 1.396 . S
C86 C87 1.394 . S
C87 C83 1.397 . S
C87 C86 1.394 . S
C87 C97 1.723 . S
C88 C85 1.453 . S
C88 H112 0.982 . S
C88 H113 0.979 . S
C88 H114 0.977 . S
C89 C85 1.684 . S
C89 H115 0.979 . S
C89 H116 0.980 . S
C89 H117 0.983 . S
C90 H66 0.948 . S
C90 C91 1.397 . S
C90 C95 1.391 . S
C91 C90 1.397 . S
C91 C92 1.387 1_554 S
C92 H69 0.947 . S
C92 C91 1.387 1_556 S
C92 C93 1.392 . S
C93 H70 0.948 . S
C93 C92 1.392 . S
C93 C94 1.419 1_556 S
C94 C93 1.419 1_554 S
C94 C95 1.391 . S
C94 C98 1.397 . S
C95 C90 1.391 . S
C95 C94 1.391 . S
C95 C96 1.399 . S
C96 C95 1.399 . S
C96 C97 1.396 . S
C96 C99 1.453 . S
C96 C100 1.684 . S
C97 C87 1.723 . S
C97 C96 1.396 . S
C97 C98 1.394 . S
C98 C68 1.723 1_554 S
C98 C94 1.397 . S
C98 C97 1.394 . S
C99 H71 0.982 . S
C99 H75 0.979 . S
C99 H76 0.977 . S
C99 C96 1.453 . S
C100 H72 0.979 . S
C100 H73 0.980 . S
C100 H74 0.983 . S
C100 C96 1.684 . S
H101 C119 0.948 1_554 S
H102 C60 0.948 . S
H103 C78 0.979 . S
H104 C78 0.980 . S
H105 C78 0.983 . S
H106 C77 0.982 . S
H107 C77 0.979 . S
H108 C77 0.977 . S
H109 C79 0.948 . S
H110 C81 0.947 . S
H111 C82 0.948 . S
H112 C88 0.982 . S
H113 C88 0.979 . S
H114 C88 0.977 . S
H115 C89 0.979 . S
H116 C89 0.980 . S
H117 C89 0.983 . S
H118 C62 0.947 . S
C119 C62 1.392 . S
C119 C63 1.419 . S
C119 H101 0.948 1_556 S
C120 C121 1.391 . S
C120 C124 1.391 1_556 S
C120 H162 0.948 1_556 S
C121 C120 1.391 . S
C121 C122 1.391 . S
C122 C121 1.391 . S
C122 H178 0.947 . S
C122 C179 1.392 . S
C123 C124 1.391 1_556 S
C123 C127 1.398 1_565 S
C123 C179 1.419 . S
C124 C120 1.391 1_554 S
C124 C123 1.391 1_554 S
C124 C125 1.399 . S
C125 C124 1.399 . S
C125 C128 1.380 1_565 S
C125 C137 1.453 1_565 S
C125 C138 1.684 . S
H126 C150 0.948 . S
C127 C123 1.398 1_545 S
C127 C128 1.387 1_556 S
C127 C146 1.717 . S
C128 C125 1.380 1_545 S
C128 C127 1.387 1_554 S
C128 C158 1.735 . S
H129 C152 0.947 . S
H130 C153 0.948 . S
H131 C159 0.982 . S
H132 C160 0.979 . S
H133 C160 0.980 . S
H134 C160 0.983 . S
H135 C159 0.979 . S
H136 C159 0.977 . S
C137 C125 1.453 1_545 S
C137 H166 0.982 . S
C137 H167 0.979 . S
C137 H168 0.977 . S
C138 C125 1.684 . S
C138 H163 0.979 . S
C138 H164 0.980 . S
C138 H165 0.983 . S
C139 C140 1.391 . S
C139 C144 1.391 . S
C139 H169 0.948 . S
C140 C139 1.391 . S
C140 C141 1.391 . S
C141 C140 1.391 . S
C141 C142 1.392 . S
C141 H170 0.947 . S
C142 C141 1.392 . S
C142 C143 1.419 . S
C142 H171 0.948 . S
C143 C142 1.419 . S
C143 C144 1.391 . S
C143 C147 1.397 1_565 S
C144 C139 1.391 . S
C144 C143 1.391 . S
C144 C145 1.399 . S
C145 C144 1.399 . S
C145 C146 1.385 1_565 S
C145 C148 1.453 1_565 S
C145 C149 1.684 . S
C146 C127 1.717 . S
C146 C145 1.385 1_545 S
C146 C147 1.406 . S
C147 C143 1.397 1_545 S
C147 C146 1.406 . S
C147 C157 1.714 1_556 S
C148 C145 1.453 1_545 S
C148 H172 0.982 . S
C148 H173 0.979 . S
C148 H174 0.977 . S
C149 C145 1.684 . S
C149 H175 0.979 . S
C149 H176 0.980 . S
C149 H177 0.983 . S
C150 H126 0.948 . S
C150 C151 1.391 . S
C150 C155 1.391 . S
C151 C150 1.391 . S
C151 C152 1.391 . S
C152 H129 0.947 . S
C152 C151 1.391 . S
C152 C153 1.392 . S
C153 H130 0.948 . S
C153 C152 1.392 . S
C153 C154 1.419 . S
C154 C153 1.419 . S
C154 C155 1.391 . S
C154 C158 1.396 1_565 S
C155 C150 1.391 . S
C155 C154 1.391 . S
C155 C156 1.399 . S
C156 C155 1.399 . S
C156 C157 1.400 1_565 S
C156 C159 1.453 1_565 S
C156 C160 1.684 . S
C157 C147 1.714 1_554 S
C157 C156 1.400 1_545 S
C157 C158 1.386 . S
C158 C128 1.735 . S
C158 C154 1.396 1_545 S
C158 C157 1.386 . S
C159 H131 0.982 . S
C159 H135 0.979 . S
C159 H136 0.977 . S
C159 C156 1.453 1_545 S
C160 H132 0.979 . S
C160 H133 0.980 . S
C160 H134 0.983 . S
C160 C156 1.684 . S
H161 C179 0.948 . S
H162 C120 0.948 1_554 S
H163 C138 0.979 . S
H164 C138 0.980 . S
H165 C138 0.983 . S
H166 C137 0.982 . S
H167 C137 0.979 . S
H168 C137 0.977 . S
H169 C139 0.948 . S
H170 C141 0.947 . S
H171 C142 0.948 . S
H172 C148 0.982 . S
H173 C148 0.979 . S
H174 C148 0.977 . S
H175 C149 0.979 . S
H176 C149 0.980 . S
H177 C149 0.983 . S
H178 C122 0.947 . S
C179 C122 1.392 . S
C179 C123 1.419 . S
C179 H161 0.948 . S
C180 C181 1.391 . S
C180 C184 1.391 . S
C180 H222 0.948 . S
C181 C180 1.391 . S
C181 C182 1.391 . S
C182 C181 1.391 . S
C182 H238 0.947 . S
C182 C239 1.392 . S
C183 C184 1.391 . S
C183 C187 1.397 . S
C183 C239 1.419 . S
C184 C180 1.391 . S
C184 C183 1.391 . S
C184 C185 1.399 . S
C185 C184 1.399 . S
C185 C188 1.396 . S
C185 C197 1.453 . S
C185 C198 1.684 . S
H186 C210 0.948 . S
C187 C183 1.397 . S
C187 C188 1.394 . S
C187 C206 1.723 . S
C188 C185 1.396 . S
C188 C187 1.394 . S
C188 C218 1.723 . S
H189 C212 0.947 . S
H190 C213 0.948 . S
H191 C219 0.982 . S
H192 C220 0.979 . S
H193 C220 0.980 . S
H194 C220 0.983 . S
H195 C219 0.979 . S
H196 C219 0.977 . S
C197 C185 1.453 . S
C197 H226 0.982 . S
C197 H227 0.979 . S
C197 H228 0.977 . S
C198 C185 1.684 . S
C198 H223 0.979 . S
C198 H224 0.980 . S
C198 H225 0.983 . S
C199 C200 1.391 . S
C199 C204 1.391 . S
C199 H229 0.948 . S
C200 C199 1.391 . S
C200 C201 1.391 . S
C201 C200 1.391 . S
C201 C202 1.392 . S
C201 H230 0.947 . S
C202 C201 1.392 . S
C202 C203 1.419 . S
C202 H231 0.948 . S
C203 C202 1.419 . S
C203 C204 1.391 . S
C203 C207 1.397 . S
C204 C199 1.391 . S
C204 C203 1.391 . S
C204 C205 1.399 . S
C205 C204 1.399 . S
C205 C206 1.396 . S
C205 C208 1.453 . S
C205 C209 1.684 . S
C206 C187 1.723 . S
C206 C205 1.396 . S
C206 C207 1.394 . S
C207 C203 1.397 . S
C207 C206 1.394 . S
C207 C217 1.723 . S
C208 C205 1.453 . S
C208 H232 0.982 . S
C208 H233 0.979 . S
C208 H234 0.977 . S
C209 C205 1.684 . S
C209 H235 0.979 . S
C209 H236 0.980 . S
C209 H237 0.983 . S
C210 H186 0.948 . S
C210 C211 1.391 . S
C210 C215 1.391 . S
C211 C210 1.391 . S
C211 C212 1.391 . S
C212 H189 0.947 . S
C212 C211 1.391 . S
C212 C213 1.392 . S
C213 H190 0.948 . S
C213 C212 1.392 . S
C213 C214 1.419 . S
C214 C213 1.419 . S
C214 C215 1.391 . S
C214 C218 1.397 . S
C215 C210 1.391 . S
C215 C214 1.391 . S
C215 C216 1.399 . S
C216 C215 1.399 . S
C216 C217 1.396 . S
C216 C219 1.453 . S
C216 C220 1.684 . S
C217 C207 1.723 . S
C217 C216 1.396 . S
C217 C218 1.394 . S
C218 C188 1.723 . S
C218 C214 1.397 . S
C218 C217 1.394 . S
C219 H191 0.982 . S
C219 H195 0.979 . S
C219 H196 0.977 . S
C219 C216 1.453 . S
C220 H192 0.979 . S
C220 H193 0.980 . S
C220 H194 0.983 . S
C220 C216 1.684 . S
H221 C239 0.948 . S
H222 C180 0.948 . S
H223 C198 0.979 . S
H224 C198 0.980 . S
H225 C198 0.983 . S
H226 C197 0.982 . S
H227 C197 0.979 . S
H228 C197 0.977 . S
H229 C199 0.948 . S
H230 C201 0.947 . S
H231 C202 0.948 . S
H232 C208 0.982 . S
H233 C208 0.979 . S
H234 C208 0.977 . S
H235 C209 0.979 . S
H236 C209 0.980 . S
H237 C209 0.983 . S
H238 C182 0.947 . S
C239 C182 1.392 . S
C239 C183 1.419 . S
C239 H221 0.948 . S
C240 C241 1.391 . S
C240 C244 1.391 . S
C240 H282 0.948 . S
C241 C240 1.391 . S
C241 C242 1.391 . S
C242 C241 1.391 . S
C242 H298 0.947 . S
C242 C299 1.392 . S
C243 C244 1.391 . S
C243 C247 1.397 . S
C243 C299 1.419 . S
C244 C240 1.391 . S
C244 C243 1.391 . S
C244 C245 1.399 . S
C245 C244 1.399 . S
C245 C248 1.396 . S
C245 C257 1.453 . S
C245 C258 1.684 . S
H246 C270 0.948 . S
C247 C243 1.397 . S
C247 C248 1.394 . S
C247 C266 1.723 . S
C248 C245 1.396 . S
C248 C247 1.394 . S
C248 C278 1.723 . S
H249 C272 0.947 . S
H250 C273 0.948 . S
H251 C279 0.982 . S
H252 C280 0.979 . S
H253 C280 0.980 . S
H254 C280 0.983 . S
H255 C279 0.979 . S
H256 C279 0.977 . S
C257 C245 1.453 . S
C257 H286 0.982 . S
C257 H287 0.979 . S
C257 H288 0.977 . S
C258 C245 1.684 . S
C258 H283 0.979 . S
C258 H284 0.980 . S
C258 H285 0.983 . S
C259 C260 1.391 . S
C259 C264 1.391 . S
C259 H289 0.948 . S
C260 C259 1.391 . S
C260 C261 1.391 . S
C261 C260 1.391 . S
C261 C262 1.392 . S
C261 H290 0.947 . S
C262 C261 1.392 . S
C262 C263 1.419 . S
C262 H291 0.948 . S
C263 C262 1.419 . S
C263 C264 1.391 . S
C263 C267 1.397 . S
C264 C259 1.391 . S
C264 C263 1.391 . S
C264 C265 1.399 . S
C265 C264 1.399 . S
C265 C266 1.396 . S
C265 C268 1.453 . S
C265 C269 1.684 . S
C266 C247 1.723 . S
C266 C265 1.396 . S
C266 C267 1.394 . S
C267 C263 1.397 . S
C267 C266 1.394 . S
C267 C277 1.723 . S
C268 C265 1.453 . S
C268 H292 0.982 . S
C268 H293 0.979 . S
C268 H294 0.977 . S
C269 C265 1.684 . S
C269 H295 0.979 . S
C269 H296 0.980 . S
C269 H297 0.983 . S
C270 H246 0.948 . S
C270 C271 1.391 . S
C270 C275 1.391 . S
C271 C270 1.391 . S
C271 C272 1.391 . S
C272 H249 0.947 . S
C272 C271 1.391 . S
C272 C273 1.392 . S
C273 H250 0.948 . S
C273 C272 1.392 . S
C273 C274 1.419 . S
C274 C273 1.419 . S
C274 C275 1.391 . S
C274 C278 1.397 . S
C275 C270 1.391 . S
C275 C274 1.391 . S
C275 C276 1.399 . S
C276 C275 1.399 . S
C276 C277 1.396 . S
C276 C279 1.453 . S
C276 C280 1.684 . S
C277 C267 1.723 . S
C277 C276 1.396 . S
C277 C278 1.394 . S
C278 C248 1.723 . S
C278 C274 1.397 . S
C278 C277 1.394 . S
C279 H251 0.982 . S
C279 H255 0.979 . S
C279 H256 0.977 . S
C279 C276 1.453 . S
C280 H252 0.979 . S
C280 H253 0.980 . S
C280 H254 0.983 . S
C280 C276 1.684 . S
H281 C299 0.948 . S
H282 C240 0.948 . S
H283 C258 0.979 . S
H284 C258 0.980 . S
H285 C258 0.983 . S
H286 C257 0.982 . S
H287 C257 0.979 . S
H288 C257 0.977 . S
H289 C259 0.948 . S
H290 C261 0.947 . S
H291 C262 0.948 . S
H292 C268 0.982 . S
H293 C268 0.979 . S
H294 C268 0.977 . S
H295 C269 0.979 . S
H296 C269 0.980 . S
H297 C269 0.983 . S
H298 C242 0.947 . S
C299 C242 1.392 . S
C299 C243 1.419 . S
C299 H281 0.948 . S
C300 C301 1.391 . S
C300 C304 1.391 . S
C300 H342 0.948 . S
C301 C300 1.391 . S
C301 C302 1.391 . S
C302 C301 1.391 . S
C302 H358 0.947 . S
C302 C359 1.392 . S
C303 C304 1.391 . S
C303 C307 1.397 . S
C303 C359 1.419 . S
C304 C300 1.391 . S
C304 C303 1.391 . S
C304 C305 1.399 . S
C305 C304 1.399 . S
C305 C308 1.396 . S
C305 C317 1.453 . S
C305 C318 1.684 . S
H306 C330 0.948 . S
C307 C303 1.397 . S
C307 C308 1.394 . S
C307 C326 1.723 . S
C308 C305 1.396 . S
C308 C307 1.394 . S
C308 C338 1.723 . S
H309 C332 0.947 . S
H310 C333 0.948 . S
H311 C339 0.982 . S
H312 C340 0.979 . S
H313 C340 0.980 . S
H314 C340 0.983 . S
H315 C339 0.979 . S
H316 C339 0.977 . S
C317 C305 1.453 . S
C317 H346 0.982 . S
C317 H347 0.979 . S
C317 H348 0.977 . S
C318 C305 1.684 . S
C318 H343 0.979 . S
C318 H344 0.980 . S
C318 H345 0.983 . S
C319 C320 1.391 . S
C319 C324 1.391 . S
C319 H349 0.948 . S
C320 C319 1.391 . S
C320 C321 1.391 . S
C321 C320 1.391 . S
C321 C322 1.392 . S
C321 H350 0.947 . S
C322 C321 1.392 . S
C322 C323 1.419 . S
C322 H351 0.948 . S
C323 C322 1.419 . S
C323 C324 1.391 . S
C323 C327 1.397 . S
C324 C319 1.391 . S
C324 C323 1.391 . S
C324 C325 1.399 . S
C325 C324 1.399 . S
C325 C326 1.396 . S
C325 C328 1.453 . S
C325 C329 1.684 . S
C326 C307 1.723 . S
C326 C325 1.396 . S
C326 C327 1.394 . S
C327 C323 1.397 . S
C327 C326 1.394 . S
C327 C337 1.723 . S
C328 C325 1.453 . S
C328 H352 0.982 . S
C328 H353 0.979 . S
C328 H354 0.977 . S
C329 C325 1.684 . S
C329 H355 0.979 . S
C329 H356 0.980 . S
C329 H357 0.983 . S
C330 H306 0.948 . S
C330 C331 1.391 . S
C330 C335 1.391 . S
C331 C330 1.391 . S
C331 C332 1.391 . S
C332 H309 0.947 . S
C332 C331 1.391 . S
C332 C333 1.392 . S
C333 H310 0.948 . S
C333 C332 1.392 . S
C333 C334 1.419 . S
C334 C333 1.419 . S
C334 C335 1.391 . S
C334 C338 1.397 . S
C335 C330 1.391 . S
C335 C334 1.391 . S
C335 C336 1.399 . S
C336 C335 1.399 . S
C336 C337 1.396 . S
C336 C339 1.453 . S
C336 C340 1.684 . S
C337 C327 1.723 . S
C337 C336 1.396 . S
C337 C338 1.394 . S
C338 C308 1.723 . S
C338 C334 1.397 . S
C338 C337 1.394 . S
C339 H311 0.982 . S
C339 H315 0.979 . S
C339 H316 0.977 . S
C339 C336 1.453 . S
C340 H312 0.979 . S
C340 H313 0.980 . S
C340 H314 0.983 . S
C340 C336 1.684 . S
H341 C359 0.948 . S
H342 C300 0.948 . S
H343 C318 0.979 . S
H344 C318 0.980 . S
H345 C318 0.983 . S
H346 C317 0.982 . S
H347 C317 0.979 . S
H348 C317 0.977 . S
H349 C319 0.948 . S
H350 C321 0.947 . S
H351 C322 0.948 . S
H352 C328 0.982 . S
H353 C328 0.979 . S
H354 C328 0.977 . S
H355 C329 0.979 . S
H356 C329 0.980 . S
H357 C329 0.983 . S
H358 C302 0.947 . S
C359 C302 1.392 . S
C359 C303 1.419 . S
C359 H341 0.948 . S
C360 C361 1.391 . S
C360 C364 1.391 . S
C360 H402 0.948 . S
C361 C360 1.391 . S
C361 C362 1.391 . S
C362 C361 1.391 . S
C362 H418 0.947 . S
C362 C419 1.392 . S
C363 C364 1.391 . S
C363 C367 1.396 1_545 S
C363 C419 1.419 . S
C364 C360 1.391 . S
C364 C363 1.391 . S
C364 C365 1.399 . S
C365 C364 1.399 . S
C365 C368 1.392 1_545 S
C365 C377 1.453 1_545 S
C365 C378 1.684 . S
H366 C390 0.948 . S
C367 C363 1.396 1_565 S
C367 C368 1.404 . S
C367 C386 1.721 . S
C368 C365 1.392 1_565 S
C368 C367 1.404 . S
C368 C398 1.711 . S
H369 C392 0.947 . S
H370 C393 0.948 . S
H371 C399 0.982 . S
H372 C400 0.979 . S
H373 C400 0.980 . S
H374 C400 0.983 . S
H375 C399 0.979 . S
H376 C399 0.977 . S
C377 C365 1.453 1_565 S
C377 H406 0.982 . S
C377 H407 0.979 . S
C377 H408 0.977 . S
C378 C365 1.684 . S
C378 H403 0.979 . S
C378 H404 0.980 . S
C378 H405 0.983 . S
C379 C380 1.391 . S
C379 C384 1.391 . S
C379 H409 0.948 . S
C380 C379 1.391 . S
C380 C381 1.391 . S
C381 C380 1.391 . S
C381 C382 1.392 . S
C381 H410 0.947 . S
C382 C381 1.392 . S
C382 C383 1.419 . S
C382 H411 0.948 . S
C383 C382 1.419 . S
C383 C384 1.391 . S
C383 C387 1.397 1_545 S
C384 C379 1.391 . S
C384 C383 1.391 . S
C384 C385 1.399 . S
C385 C384 1.399 . S
C385 C386 1.396 1_545 S
C385 C388 1.453 1_545 S
C385 C389 1.684 . S
C386 C367 1.721 . S
C386 C385 1.396 1_565 S
C386 C387 1.381 . S
C387 C383 1.397 1_565 S
C387 C386 1.381 . S
C387 C397 1.734 . S
C388 C385 1.453 1_565 S
C388 H412 0.982 . S
C388 H413 0.979 . S
C388 H414 0.977 . S
C389 C385 1.684 . S
C389 H415 0.979 . S
C389 H416 0.980 . S
C389 H417 0.983 . S
C390 H366 0.948 . S
C390 C391 1.391 . S
C390 C395 1.391 . S
C391 C390 1.391 . S
C391 C392 1.391 . S
C392 H369 0.947 . S
C392 C391 1.391 . S
C392 C393 1.392 . S
C393 H370 0.948 . S
C393 C392 1.392 . S
C393 C394 1.419 . S
C394 C393 1.419 . S
C394 C395 1.391 . S
C394 C398 1.398 1_545 S
C395 C390 1.391 . S
C395 C394 1.391 . S
C395 C396 1.399 . S
C396 C395 1.399 . S
C396 C397 1.376 1_545 S
C396 C399 1.453 1_545 S
C396 C400 1.684 . S
C397 C387 1.734 . S
C397 C396 1.376 1_565 S
C397 C398 1.395 . S
C398 C368 1.711 . S
C398 C394 1.398 1_565 S
C398 C397 1.395 . S
C399 H371 0.982 . S
C399 H375 0.979 . S
C399 H376 0.977 . S
C399 C396 1.453 1_565 S
C400 H372 0.979 . S
C400 H373 0.980 . S
C400 H374 0.983 . S
C400 C396 1.684 . S
H401 C419 0.948 . S
H402 C360 0.948 . S
H403 C378 0.979 . S
H404 C378 0.980 . S
H405 C378 0.983 . S
H406 C377 0.982 . S
H407 C377 0.979 . S
H408 C377 0.977 . S
H409 C379 0.948 . S
H410 C381 0.947 . S
H411 C382 0.948 . S
H412 C388 0.982 . S
H413 C388 0.979 . S
H414 C388 0.977 . S
H415 C389 0.979 . S
H416 C389 0.980 . S
H417 C389 0.983 . S
H418 C362 0.947 . S
C419 C362 1.392 . S
C419 C363 1.419 . S
C419 H401 0.948 . S
C420 C421 1.391 . S
C420 C424 1.391 . S
C420 H462 0.948 . S
C421 C420 1.391 . S
C421 C422 1.391 . S
C422 C421 1.391 . S
C422 H478 0.947 . S
C422 C479 1.392 . S
C423 C424 1.391 . S
C423 C427 1.397 . S
C423 C479 1.419 . S
C424 C420 1.391 . S
C424 C423 1.391 . S
C424 C425 1.399 . S
C425 C424 1.399 . S
C425 C428 1.396 . S
C425 C437 1.453 . S
C425 C438 1.684 . S
H426 C450 0.948 . S
C427 C423 1.397 . S
C427 C428 1.394 . S
C427 C446 1.723 . S
C428 C425 1.396 . S
C428 C427 1.394 . S
C428 C458 1.723 . S
H429 C452 0.947 . S
H430 C453 0.948 . S
H431 C459 0.982 . S
H432 C460 0.979 . S
H433 C460 0.980 . S
H434 C460 0.983 . S
H435 C459 0.979 . S
H436 C459 0.977 . S
C437 C425 1.453 . S
C437 H466 0.982 . S
C437 H467 0.979 . S
C437 H468 0.977 . S
C438 C425 1.684 . S
C438 H463 0.979 . S
C438 H464 0.980 . S
C438 H465 0.983 . S
C439 C440 1.391 . S
C439 C444 1.391 . S
C439 H469 0.948 . S
C440 C439 1.391 . S
C440 C441 1.391 . S
C441 C440 1.391 . S
C441 C442 1.392 . S
C441 H470 0.947 . S
C442 C441 1.392 . S
C442 C443 1.419 . S
C442 H471 0.948 . S
C443 C442 1.419 . S
C443 C444 1.391 . S
C443 C447 1.397 . S
C444 C439 1.391 . S
C444 C443 1.391 . S
C444 C445 1.399 . S
C445 C444 1.399 . S
C445 C446 1.396 . S
C445 C448 1.453 . S
C445 C449 1.684 . S
C446 C427 1.723 . S
C446 C445 1.396 . S
C446 C447 1.394 . S
C447 C443 1.397 . S
C447 C446 1.394 . S
C447 C457 1.723 . S
C448 C445 1.453 . S
C448 H472 0.982 . S
C448 H473 0.979 . S
C448 H474 0.977 . S
C449 C445 1.684 . S
C449 H475 0.979 . S
C449 H476 0.980 . S
C449 H477 0.983 . S
C450 H426 0.948 . S
C450 C451 1.391 . S
C450 C455 1.391 . S
C451 C450 1.391 . S
C451 C452 1.391 . S
C452 H429 0.947 . S
C452 C451 1.391 . S
C452 C453 1.392 . S
C453 H430 0.948 . S
C453 C452 1.392 . S
C453 C454 1.419 . S
C454 C453 1.419 . S
C454 C455 1.391 . S
C454 C458 1.397 . S
C455 C450 1.391 . S
C455 C454 1.391 . S
C455 C456 1.399 . S
C456 C455 1.399 . S
C456 C457 1.396 . S
C456 C459 1.453 . S
C456 C460 1.684 . S
C457 C447 1.723 . S
C457 C456 1.396 . S
C457 C458 1.394 . S
C458 C428 1.723 . S
C458 C454 1.397 . S
C458 C457 1.394 . S
C459 H431 0.982 . S
C459 H435 0.979 . S
C459 H436 0.977 . S
C459 C456 1.453 . S
C460 H432 0.979 . S
C460 H433 0.980 . S
C460 H434 0.983 . S
C460 C456 1.684 . S
H461 C479 0.948 . S
H462 C420 0.948 . S
H463 C438 0.979 . S
H464 C438 0.980 . S
H465 C438 0.983 . S
H466 C437 0.982 . S
H467 C437 0.979 . S
H468 C437 0.977 . S
H469 C439 0.948 . S
H470 C441 0.947 . S
H471 C442 0.948 . S
H472 C448 0.982 . S
H473 C448 0.979 . S
H474 C448 0.977 . S
H475 C449 0.979 . S
H476 C449 0.980 . S
H477 C449 0.983 . S
H478 C422 0.947 . S
C479 C422 1.392 . S
C479 C423 1.419 . S
C479 H461 0.948 . S
Nd480 C482 2.836 1_455 S
Nd480 O500 2.500 1_455 S
Nd480 O501 2.492 . S
Nd480 O502 2.487 . S
Nd480 O503 2.678 1_565 S
Nd480 O504 2.410 . S
Nd480 O509 2.426 1_455 S
Nd480 O511 2.424 1_565 S
Nd481 C491 2.836 . S
Nd481 O503 2.430 . S
Nd481 O505 2.424 1_545 S
Nd481 O506 2.500 . S
Nd481 O507 2.492 . S
Nd481 O508 2.487 1_455 S
Nd481 O509 2.679 1_445 S
Nd481 O510 2.410 . S
C482 Nd480 2.836 1_655 S
C482 C483 1.498 . S
C482 O500 1.258 . S
C482 O501 1.239 1_655 S
C483 C482 1.498 . S
C483 C484 1.366 . S
C483 C488 1.407 . S
C484 C483 1.366 . S
C484 C485 1.392 . S
C484 H512 0.930 . S
C485 C484 1.392 . S
C485 C486 1.398 . S
C485 H513 0.929 . S
C486 C485 1.398 . S
C486 C487 1.352 . S
C487 C486 1.352 . S
C487 C488 1.384 . S
C487 H514 0.930 . S
C488 C483 1.407 . S
C488 C487 1.384 . S
C488 H515 0.929 1_655 S
C489 O502 1.241 . S
C489 O503 1.249 1_565 S
C490 O504 1.251 . S
C490 O505 1.268 . S
C491 Nd481 2.836 . S
C491 C492 1.498 . S
C491 O506 1.258 . S
C491 O507 1.239 . S
C492 C491 1.498 . S
C492 C493 1.366 . S
C492 C497 1.407 . S
C493 C492 1.366 . S
C493 C494 1.392 . S
C493 H516 0.930 . S
C494 C493 1.392 . S
C494 C495 1.398 . S
C494 H517 0.929 . S
C495 C494 1.398 . S
C495 C496 1.352 1_556 S
C496 C495 1.352 1_554 S
C496 C497 1.384 1_554 S
C496 H518 0.930 . S
C497 C492 1.407 . S
C497 C496 1.384 1_556 S
C497 H519 0.929 . S
C498 O508 1.241 . S
C498 O509 1.256 1_545 S
C499 O510 1.251 . S
C499 O511 1.268 . S
O500 Nd480 2.500 1_655 S
O500 C482 1.258 . S
O501 Nd480 2.492 . S
O501 C482 1.239 1_455 S
O502 Nd480 2.487 . S
O502 C489 1.241 . S
O503 Nd480 2.678 1_545 S
O503 Nd481 2.430 . S
O503 C489 1.249 1_545 S
O504 Nd480 2.410 . S
O504 C490 1.251 . S
O505 Nd481 2.424 1_565 S
O505 C490 1.268 . S
O506 Nd481 2.500 . S
O506 C491 1.258 . S
O507 Nd481 2.492 . S
O507 C491 1.239 . S
O508 Nd481 2.487 1_655 S
O508 C498 1.241 . S
O509 Nd480 2.426 1_655 S
O509 Nd481 2.679 1_665 S
O509 C498 1.256 1_565 S
O510 Nd481 2.410 . S
O510 C499 1.251 . S
O511 Nd480 2.424 1_545 S
O511 C499 1.268 . S
H512 C484 0.930 . S
H513 C485 0.929 . S
H514 C487 0.930 . S
H515 C488 0.929 1_455 S
H516 C493 0.930 . S
H517 C494 0.929 . S
H518 C496 0.930 . S
H519 C497 0.929 . S
Nd520 C522 2.836 . S
Nd520 O540 2.500 . S
Nd520 O541 2.492 1_565 S
Nd520 O542 2.487 1_565 S
Nd520 O543 2.682 1_565 S
Nd520 O544 2.410 1_565 S
Nd520 O549 2.414 . S
Nd520 O551 2.424 . S
Nd521 C531 2.836 . S
Nd521 O543 2.414 . S
Nd521 O545 2.424 . S
Nd521 O546 2.500 . S
Nd521 O547 2.492 1_545 S
Nd521 O548 2.487 1_545 S
Nd521 O549 2.682 1_545 S
Nd521 O550 2.410 1_545 S
C522 Nd520 2.836 . S
C522 C523 1.498 . S
C522 O540 1.258 . S
C522 O541 1.232 1_565 S
C523 C522 1.498 . S
C523 C524 1.366 . S
C523 C528 1.407 . S
C524 C523 1.366 . S
C524 C525 1.392 . S
C524 H552 0.930 . S
C525 C524 1.392 . S
C525 C526 1.398 . S
C525 H553 0.929 . S
C526 C525 1.398 . S
C526 C527 1.352 . S
C527 C526 1.352 . S
C527 C528 1.384 . S
C527 H554 0.927 . S
C528 C523 1.407 . S
C528 C527 1.384 . S
C528 H555 0.929 1_565 S
C529 O542 1.241 . S
C529 O543 1.273 . S
C530 O544 1.251 . S
C530 O545 1.268 . S
C531 Nd521 2.836 . S
C531 C532 1.498 . S
C531 O546 1.258 . S
C531 O547 1.243 1_545 S
C532 C531 1.498 . S
C532 C533 1.366 . S
C532 C537 1.407 . S
C533 C532 1.366 . S
C533 C534 1.392 . S
C533 H556 0.930 . S
C534 C533 1.392 . S
C534 C535 1.398 . S
C534 H557 0.929 . S
C535 C534 1.398 . S
C535 C536 1.352 1_556 S
C536 C535 1.352 1_554 S
C536 C537 1.384 1_554 S
C536 H558 0.933 . S
C537 C532 1.407 . S
C537 C536 1.384 1_556 S
C537 H559 0.929 1_546 S
C538 O548 1.241 . S
C538 O549 1.273 . S
C539 O550 1.251 . S
C539 O551 1.268 . S
O540 Nd520 2.500 . S
O540 C522 1.258 . S
O541 Nd520 2.492 1_545 S
O541 C522 1.232 1_545 S
O542 Nd520 2.487 1_545 S
O542 C529 1.241 . S
O543 Nd520 2.682 1_545 S
O543 Nd521 2.414 . S
O543 C529 1.273 . S
O544 Nd520 2.410 1_545 S
O544 C530 1.251 . S
O545 Nd521 2.424 . S
O545 C530 1.268 . S
O546 Nd521 2.500 . S
O546 C531 1.258 . S
O547 Nd521 2.492 1_565 S
O547 C531 1.243 1_565 S
O548 Nd521 2.487 1_565 S
O548 C538 1.241 . S
O549 Nd520 2.414 . S
O549 Nd521 2.682 1_565 S
O549 C538 1.273 . S
O550 Nd521 2.410 1_565 S
O550 C539 1.251 . S
O551 Nd520 2.424 . S
O551 C539 1.268 . S
H552 C524 0.930 . S
H553 C525 0.929 . S
H554 C527 0.927 . S
H555 C528 0.929 1_545 S
H556 C533 0.930 . S
H557 C534 0.929 . S
H558 C536 0.933 . S
H559 C537 0.929 1_564 S
Nd560 C562 2.836 . S
Nd560 O580 2.500 . S
Nd560 O581 2.492 . S
Nd560 O582 2.487 . S
Nd560 O583 2.682 . S
Nd560 O584 2.410 . S
Nd560 O589 2.414 . S
Nd560 O591 2.424 . S
Nd561 C571 2.836 . S
Nd561 O583 2.414 . S
Nd561 O585 2.424 . S
Nd561 O586 2.500 . S
Nd561 O587 2.492 . S
Nd561 O588 2.487 . S
Nd561 O589 2.682 . S
Nd561 O590 2.410 . S
C562 Nd560 2.836 . S
C562 C563 1.498 . S
C562 O580 1.258 . S
C562 O581 1.239 . S
C563 C562 1.498 . S
C563 C564 1.366 . S
C563 C568 1.407 . S
C564 C563 1.366 . S
C564 C565 1.392 . S
C564 H592 0.930 . S
C565 C564 1.392 . S
C565 C566 1.398 . S
C565 H593 0.929 . S
C566 C565 1.398 . S
C566 C567 1.352 . S
C567 C566 1.352 . S
C567 C568 1.384 . S
C567 H594 0.930 . S
C568 C563 1.407 . S
C568 C567 1.384 . S
C568 H595 0.929 . S
C569 O582 1.241 . S
C569 O583 1.273 . S
C570 O584 1.251 . S
C570 O585 1.268 . S
C571 Nd561 2.836 . S
C571 C572 1.498 . S
C571 O586 1.258 . S
C571 O587 1.239 . S
C572 C571 1.498 . S
C572 C573 1.366 . S
C572 C577 1.407 . S
C573 C572 1.366 . S
C573 C574 1.392 . S
C573 H596 0.930 . S
C574 C573 1.392 . S
C574 C575 1.398 . S
C574 H597 0.929 . S
C575 C574 1.398 . S
C575 C576 1.352 . S
C576 C575 1.352 . S
C576 C577 1.384 . S
C576 H598 0.930 . S
C577 C572 1.407 . S
C577 C576 1.384 . S
C577 H599 0.929 . S
C578 O588 1.241 . S
C578 O589 1.273 . S
C579 O590 1.251 . S
C579 O591 1.268 . S
O580 Nd560 2.500 . S
O580 C562 1.258 . S
O581 Nd560 2.492 . S
O581 C562 1.239 . S
O582 Nd560 2.487 . S
O582 C569 1.241 . S
O583 Nd560 2.682 . S
O583 Nd561 2.414 . S
O583 C569 1.273 . S
O584 Nd560 2.410 . S
O584 C570 1.251 . S
O585 Nd561 2.424 . S
O585 C570 1.268 . S
O586 Nd561 2.500 . S
O586 C571 1.258 . S
O587 Nd561 2.492 . S
O587 C571 1.239 . S
O588 Nd561 2.487 . S
O588 C578 1.241 . S
O589 Nd560 2.414 . S
O589 Nd561 2.682 . S
O589 C578 1.273 . S
O590 Nd561 2.410 . S
O590 C579 1.251 . S
O591 Nd560 2.424 . S
O591 C579 1.268 . S
H592 C564 0.930 . S
H593 C565 0.929 . S
H594 C567 0.930 . S
H595 C568 0.929 . S
H596 C573 0.930 . S
H597 C574 0.929 . S
H598 C576 0.930 . S
H599 C577 0.929 . S
Nd600 C602 2.836 1_455 S
Nd600 O620 2.500 1_455 S
Nd600 O621 2.492 1_455 S
Nd600 O622 2.487 . S
Nd600 O623 2.682 . S
Nd600 O624 2.410 1_455 S
Nd600 O629 2.414 . S
Nd600 O631 2.424 . S
Nd601 C611 2.836 . S
Nd601 O623 2.414 . S
Nd601 O625 2.424 1_455 S
Nd601 O626 2.500 . S
Nd601 O627 2.492 . S
Nd601 O628 2.487 . S
Nd601 O629 2.682 . S
Nd601 O630 2.410 . S
C602 Nd600 2.836 1_655 S
C602 C603 1.498 . S
C602 O620 1.258 . S
C602 O621 1.239 . S
C603 C602 1.498 . S
C603 C604 1.366 . S
C603 C608 1.407 . S
C604 C603 1.366 . S
C604 C605 1.392 . S
C604 H632 0.930 . S
C605 C604 1.392 . S
C605 C606 1.398 . S
C605 H633 0.929 . S
C606 C605 1.398 . S
C606 C607 1.352 . S
C607 C606 1.352 . S
C607 C608 1.384 . S
C607 H634 0.930 . S
C608 C603 1.407 . S
C608 C607 1.384 . S
C608 H635 0.929 . S
C609 O622 1.241 . S
C609 O623 1.273 . S
C610 O624 1.251 . S
C610 O625 1.268 . S
C611 Nd601 2.836 . S
C611 C612 1.498 . S
C611 O626 1.258 . S
C611 O627 1.239 . S
C612 C611 1.498 . S
C612 C613 1.366 . S
C612 C617 1.407 . S
C613 C612 1.366 . S
C613 C614 1.392 . S
C613 H636 0.930 . S
C614 C613 1.392 . S
C614 C615 1.398 . S
C614 H637 0.929 . S
C615 C614 1.398 . S
C615 C616 1.352 1_556 S
C616 C615 1.352 1_554 S
C616 C617 1.384 1_554 S
C616 H638 0.930 . S
C617 C612 1.407 . S
C617 C616 1.384 1_556 S
C617 H639 0.929 . S
C618 O628 1.272 . S
C618 O629 1.288 . S
C619 O630 1.251 . S
C619 O631 1.268 . S
O620 Nd600 2.500 1_655 S
O620 C602 1.258 . S
O621 Nd600 2.492 1_655 S
O621 C602 1.239 . S
O622 Nd600 2.487 . S
O622 C609 1.241 . S
O623 Nd600 2.682 . S
O623 Nd601 2.414 . S
O623 C609 1.273 . S
O624 Nd600 2.410 1_655 S
O624 C610 1.251 . S
O625 Nd601 2.424 1_655 S
O625 C610 1.268 . S
O626 Nd601 2.500 . S
O626 C611 1.258 . S
O627 Nd601 2.492 . S
O627 C611 1.239 . S
O628 Nd601 2.487 . S
O628 C618 1.272 . S
O629 Nd600 2.414 . S
O629 Nd601 2.682 . S
O629 C618 1.288 . S
O630 Nd601 2.410 . S
O630 C619 1.251 . S
O631 Nd600 2.424 . S
O631 C619 1.268 . S
H632 C604 0.930 . S
H633 C605 0.929 . S
H634 C607 0.930 . S
H635 C608 0.929 . S
H636 C613 0.930 . S
H637 C614 0.929 . S
H638 C616 0.930 . S
H639 C617 0.929 . S
H640 C658 0.951 . S
H641 C660 0.951 . S
H642 C662 0.950 . S
H643 C663 0.950 . S
H644 C665 0.950 . S
H645 C668 0.950 . S
H646 C669 0.950 . S
H647 C671 0.950 . S
H648 C672 0.950 . S
H649 C673 0.950 1_545 S
H650 C675 0.951 1_545 S
H651 C677 0.950 . S
H652 C678 0.950 . S
H653 C680 0.950 . S
H654 C683 0.950 . S
H655 C684 0.950 . S
H656 C686 0.950 . S
H657 C687 0.950 . S
C658 H640 0.951 . S
C658 C659 1.366 1_565 S
C658 C660 1.388 . S
C659 C658 1.366 1_545 S
C659 C663 1.384 . S
C660 H641 0.951 . S
C660 C658 1.388 . S
C660 C661 1.363 1_565 S
C661 C660 1.363 1_545 S
C661 C662 1.414 . S
C661 C664 1.500 1_545 S
C662 H642 0.950 . S
C662 C661 1.414 . S
C662 C663 1.374 . S
C663 H643 0.950 . S
C663 C659 1.384 . S
C663 C662 1.374 . S
C664 C661 1.500 1_565 S
C664 C665 1.372 . S
C664 C666 1.391 1_565 S
C665 H644 0.950 . S
C665 C664 1.372 . S
C665 C681 1.377 . S
C666 C664 1.391 1_545 S
C666 C667 1.524 . S
C666 C680 1.377 . S
C667 C666 1.524 . S
C667 C668 1.397 . S
C667 C672 1.363 . S
C668 H645 0.950 . S
C668 C667 1.397 . S
C668 C669 1.334 . S
C669 H646 0.950 . S
C669 C668 1.334 . S
C669 C670 1.287 . S
C670 C669 1.287 . S
C670 C671 1.524 . S
C670 H689 0.913 . S
C671 H647 0.950 . S
C671 C670 1.524 . S
C671 C672 1.415 . S
C672 H648 0.950 . S
C672 C667 1.363 . S
C672 C671 1.415 . S
C673 H649 0.950 1_565 S
C673 C674 1.366 . S
C673 C675 1.388 . S
C674 C673 1.366 . S
C674 C678 1.385 . S
C675 H650 0.951 1_565 S
C675 C673 1.388 . S
C675 C676 1.366 . S
C676 C675 1.366 . S
C676 C677 1.414 . S
C676 C679 1.499 . S
C677 H651 0.950 . S
C677 C676 1.414 . S
C677 C678 1.374 . S
C678 H652 0.950 . S
C678 C674 1.385 . S
C678 C677 1.374 . S
C679 C676 1.499 . S
C679 C680 1.373 1_565 S
C679 C681 1.389 . S
C680 H653 0.950 . S
C680 C666 1.377 . S
C680 C679 1.373 1_545 S
C681 C665 1.377 . S
C681 C679 1.389 . S
C681 C682 1.524 . S
C682 C681 1.524 . S
C682 C683 1.397 . S
C682 C687 1.363 . S
C683 H654 0.950 . S
C683 C682 1.397 . S
C683 C684 1.334 . S
C684 H655 0.950 . S
C684 C683 1.334 . S
C684 C685 1.287 . S
C685 C684 1.287 . S
C685 C686 1.524 . S
C685 H688 0.999 . S
C686 H656 0.950 . S
C686 C685 1.524 . S
C686 C687 1.415 . S
C687 H657 0.950 . S
C687 C682 1.363 . S
C687 C686 1.415 . S
H688 C685 0.999 . S
H689 C670 0.913 . S
H690 C708 0.951 . S
H691 C710 0.951 . S
H692 C712 0.950 . S
H693 C713 0.950 . S
H694 C715 0.950 . S
H695 C718 0.950 . S
H696 C719 0.950 . S
H697 C721 0.950 . S
H698 C722 0.950 . S
H699 C723 0.951 . S
H700 C725 0.951 . S
H701 C727 0.950 . S
H702 C728 0.950 . S
H703 C730 0.950 . S
H704 C733 0.950 . S
H705 C734 0.950 . S
H706 C736 0.950 . S
H707 C737 0.950 . S
C708 H690 0.951 . S
C708 C709 1.366 . S
C708 C710 1.388 . S
C709 C708 1.366 . S
C709 C713 1.385 . S
C710 H691 0.951 . S
C710 C708 1.388 . S
C710 C711 1.366 . S
C711 C710 1.366 . S
C711 C712 1.414 . S
C711 C714 1.499 . S
C712 H692 0.950 . S
C712 C711 1.414 . S
C712 C713 1.374 . S
C713 H693 0.950 . S
C713 C709 1.385 . S
C713 C712 1.374 . S
C714 C711 1.499 . S
C714 C715 1.373 . S
C714 C716 1.389 . S
C715 H694 0.950 . S
C715 C714 1.373 . S
C715 C731 1.377 . S
C716 C714 1.389 . S
C716 C717 1.524 . S
C716 C730 1.377 . S
C717 C716 1.524 . S
C717 C718 1.397 . S
C717 C722 1.363 . S
C718 H695 0.950 . S
C718 C717 1.397 . S
C718 C719 1.334 . S
C719 H696 0.950 . S
C719 C718 1.334 . S
C719 C720 1.287 . S
C720 C719 1.287 . S
C720 C721 1.524 . S
C720 H739 0.913 . S
C721 H697 0.950 . S
C721 C720 1.524 . S
C721 C722 1.415 . S
C722 H698 0.950 . S
C722 C717 1.363 . S
C722 C721 1.415 . S
C723 H699 0.951 . S
C723 C724 1.366 . S
C723 C725 1.388 . S
C724 C723 1.366 . S
C724 C728 1.385 . S
C725 H700 0.951 . S
C725 C723 1.388 . S
C725 C726 1.366 . S
C726 C725 1.366 . S
C726 C727 1.414 . S
C726 C729 1.499 . S
C727 H701 0.950 . S
C727 C726 1.414 . S
C727 C728 1.374 . S
C728 H702 0.950 . S
C728 C724 1.385 . S
C728 C727 1.374 . S
C729 C726 1.499 . S
C729 C730 1.373 . S
C729 C731 1.389 . S
C730 H703 0.950 . S
C730 C716 1.377 . S
C730 C729 1.373 . S
C731 C715 1.377 . S
C731 C729 1.389 . S
C731 C732 1.524 . S
C732 C731 1.524 . S
C732 C733 1.397 . S
C732 C737 1.363 . S
C733 H704 0.950 . S
C733 C732 1.397 . S
C733 C734 1.334 . S
C734 H705 0.950 . S
C734 C733 1.334 . S
C734 C735 1.287 . S
C735 C734 1.287 . S
C735 C736 1.524 . S
C735 H738 0.999 . S
C736 H706 0.950 . S
C736 C735 1.524 . S
C736 C737 1.415 . S
C737 H707 0.950 . S
C737 C732 1.363 . S
C737 C736 1.415 . S
H738 C735 0.999 . S
H739 C720 0.913 . S
H740 C758 0.951 . S
H741 C760 0.951 . S
H742 C762 0.950 . S
H743 C763 0.950 . S
H744 C765 0.950 . S
H745 C768 0.950 . S
H746 C769 0.950 . S
H747 C771 0.950 . S
H748 C772 0.950 . S
H749 C773 0.951 . S
H750 C775 0.951 . S
H751 C777 0.950 . S
H752 C778 0.950 . S
H753 C780 0.950 . S
H754 C783 0.950 . S
H755 C784 0.950 . S
H756 C786 0.950 . S
H757 C787 0.950 . S
C758 H740 0.951 . S
C758 C759 1.366 . S
C758 C760 1.388 . S
C759 C758 1.366 . S
C759 C763 1.385 . S
C760 H741 0.951 . S
C760 C758 1.388 . S
C760 C761 1.366 . S
C761 C760 1.366 . S
C761 C762 1.414 . S
C761 C764 1.499 . S
C762 H742 0.950 . S
C762 C761 1.414 . S
C762 C763 1.374 . S
C763 H743 0.950 . S
C763 C759 1.385 . S
C763 C762 1.374 . S
C764 C761 1.499 . S
C764 C765 1.373 . S
C764 C766 1.389 . S
C765 H744 0.950 . S
C765 C764 1.373 . S
C765 C781 1.377 . S
C766 C764 1.389 . S
C766 C767 1.524 . S
C766 C780 1.377 . S
C767 C766 1.524 . S
C767 C768 1.397 . S
C767 C772 1.363 . S
C768 H745 0.950 . S
C768 C767 1.397 . S
C768 C769 1.334 . S
C769 H746 0.950 . S
C769 C768 1.334 . S
C769 C770 1.287 . S
C770 C769 1.287 . S
C770 C771 1.524 . S
C770 H789 0.913 . S
C771 H747 0.950 . S
C771 C770 1.524 . S
C771 C772 1.415 . S
C772 H748 0.950 . S
C772 C767 1.363 . S
C772 C771 1.415 . S
C773 H749 0.951 . S
C773 C774 1.366 . S
C773 C775 1.388 . S
C774 C773 1.366 . S
C774 C778 1.385 . S
C775 H750 0.951 . S
C775 C773 1.388 . S
C775 C776 1.366 . S
C776 C775 1.366 . S
C776 C777 1.414 . S
C776 C779 1.499 . S
C777 H751 0.950 . S
C777 C776 1.414 . S
C777 C778 1.374 . S
C778 H752 0.950 . S
C778 C774 1.385 . S
C778 C777 1.374 . S
C779 C776 1.499 . S
C779 C780 1.373 . S
C779 C781 1.389 . S
C780 H753 0.950 . S
C780 C766 1.377 . S
C780 C779 1.373 . S
C781 C765 1.377 . S
C781 C779 1.389 . S
C781 C782 1.524 . S
C782 C781 1.524 . S
C782 C783 1.397 . S
C782 C787 1.363 . S
C783 H754 0.950 . S
C783 C782 1.397 . S
C783 C784 1.334 . S
C784 H755 0.950 . S
C784 C783 1.334 . S
C784 C785 1.287 . S
C785 C784 1.287 . S
C785 C786 1.524 . S
C785 H788 0.999 . S
C786 H756 0.950 . S
C786 C785 1.524 . S
C786 C787 1.415 . S
C787 H757 0.950 . S
C787 C782 1.363 . S
C787 C786 1.415 . S
H788 C785 0.999 . S
H789 C770 0.913 . S
H790 C808 0.951 . S
H791 C810 0.951 . S
H792 C812 0.950 . S
H793 C813 0.950 . S
H794 C815 0.950 . S
H795 C818 0.950 . S
H796 C819 0.950 . S
H797 C821 0.950 . S
H798 C822 0.950 . S
H799 C823 0.951 . S
H800 C825 0.951 . S
H801 C827 0.950 . S
H802 C828 0.950 . S
H803 C830 0.950 . S
H804 C833 0.950 . S
H805 C834 0.950 . S
H806 C836 0.950 . S
H807 C837 0.950 . S
C808 H790 0.951 . S
C808 C809 1.366 . S
C808 C810 1.388 . S
C809 C808 1.366 . S
C809 C813 1.385 . S
C810 H791 0.951 . S
C810 C808 1.388 . S
C810 C811 1.366 . S
C811 C810 1.366 . S
C811 C812 1.414 . S
C811 C814 1.499 . S
C812 H792 0.950 . S
C812 C811 1.414 . S
C812 C813 1.374 . S
C813 H793 0.950 . S
C813 C809 1.385 . S
C813 C812 1.374 . S
C814 C811 1.499 . S
C814 C815 1.373 . S
C814 C816 1.389 . S
C815 H794 0.950 . S
C815 C814 1.373 . S
C815 C831 1.377 . S
C816 C814 1.389 . S
C816 C817 1.524 . S
C816 C830 1.377 . S
C817 C816 1.524 . S
C817 C818 1.397 . S
C817 C822 1.363 . S
C818 H795 0.950 . S
C818 C817 1.397 . S
C818 C819 1.334 . S
C819 H796 0.950 . S
C819 C818 1.334 . S
C819 C820 1.287 . S
C820 C819 1.287 . S
C820 C821 1.524 . S
C820 H839 0.913 . S
C821 H797 0.950 . S
C821 C820 1.524 . S
C821 C822 1.415 . S
C822 H798 0.950 . S
C822 C817 1.363 . S
C822 C821 1.415 . S
C823 H799 0.951 . S
C823 C824 1.366 . S
C823 C825 1.388 . S
C824 C823 1.366 . S
C824 C828 1.385 . S
C825 H800 0.951 . S
C825 C823 1.388 . S
C825 C826 1.366 . S
C826 C825 1.366 . S
C826 C827 1.414 . S
C826 C829 1.499 . S
C827 H801 0.950 . S
C827 C826 1.414 . S
C827 C828 1.374 . S
C828 H802 0.950 . S
C828 C824 1.385 . S
C828 C827 1.374 . S
C829 C826 1.499 . S
C829 C830 1.373 . S
C829 C831 1.389 . S
C830 H803 0.950 . S
C830 C816 1.377 . S
C830 C829 1.373 . S
C831 C815 1.377 . S
C831 C829 1.389 . S
C831 C832 1.524 . S
C832 C831 1.524 . S
C832 C833 1.397 . S
C832 C837 1.363 . S
C833 H804 0.950 . S
C833 C832 1.397 . S
C833 C834 1.334 . S
C834 H805 0.950 . S
C834 C833 1.334 . S
C834 C835 1.287 . S
C835 C834 1.287 . S
C835 C836 1.524 . S
C835 H838 0.999 . S
C836 H806 0.950 . S
C836 C835 1.524 . S
C836 C837 1.415 . S
C837 H807 0.950 . S
C837 C832 1.363 . S
C837 C836 1.415 . S
H838 C835 0.999 . S
H839 C820 0.913 . S
H840 C858 0.951 . S
H841 C860 0.951 . S
H842 C862 0.950 . S
H843 C863 0.950 . S
H844 C865 0.950 . S
H845 C868 0.950 1_556 S
H846 C869 0.974 . S
H847 C871 0.950 . S
H848 C872 0.950 1_556 S
H849 C873 0.951 . S
H850 C875 0.951 . S
H851 C877 0.950 . S
H852 C878 0.950 . S
H853 C880 0.950 . S
H854 C883 0.948 . S
H855 C884 0.950 1_565 S
H856 C886 0.950 . S
H857 C887 0.950 . S
C858 H840 0.951 . S
C858 C859 1.365 1_565 S
C858 C860 1.388 . S
C859 C858 1.365 1_545 S
C859 C863 1.385 . S
C860 H841 0.951 . S
C860 C858 1.388 . S
C860 C861 1.366 1_565 S
C861 C860 1.366 1_545 S
C861 C862 1.414 . S
C861 C864 1.499 . S
C862 H842 0.950 . S
C862 C861 1.414 . S
C862 C863 1.374 . S
C863 H843 0.950 . S
C863 C859 1.385 . S
C863 C862 1.374 . S
C864 C861 1.499 . S
C864 C865 1.373 . S
C864 C866 1.389 1_545 S
C865 H844 0.950 . S
C865 C864 1.373 . S
C865 C881 1.377 . S
C866 C864 1.389 1_565 S
C866 C867 1.524 . S
C866 C880 1.377 . S
C867 C866 1.524 . S
C867 C868 1.397 1_566 S
C867 C872 1.363 1_556 S
C868 H845 0.950 1_554 S
C868 C867 1.397 1_544 S
C868 C869 1.336 . S
C869 H846 0.974 . S
C869 C868 1.336 . S
C869 C870 1.261 1_545 S
C870 C869 1.261 1_565 S
C870 C871 1.524 . S
C870 H889 0.913 . S
C871 H847 0.950 . S
C871 C870 1.524 . S
C871 C872 1.415 . S
C872 H848 0.950 1_554 S
C872 C867 1.363 1_554 S
C872 C871 1.415 . S
C873 H849 0.951 . S
C873 C874 1.366 . S
C873 C875 1.388 . S
C874 C873 1.366 . S
C874 C878 1.385 1_545 S
C875 H850 0.951 . S
C875 C873 1.388 . S
C875 C876 1.366 . S
C876 C875 1.366 . S
C876 C877 1.414 1_545 S
C876 C879 1.499 . S
C877 H851 0.950 . S
C877 C876 1.414 1_565 S
C877 C878 1.374 . S
C878 H852 0.950 . S
C878 C874 1.385 1_565 S
C878 C877 1.374 . S
C879 C876 1.499 . S
C879 C880 1.373 1_545 S
C879 C881 1.389 . S
C880 H853 0.950 . S
C880 C866 1.377 . S
C880 C879 1.373 1_565 S
C881 C865 1.377 . S
C881 C879 1.389 . S
C881 C882 1.524 . S
C882 C881 1.524 . S
C882 C883 1.398 1_545 S
C882 C887 1.363 . S
C883 H854 0.948 . S
C883 C882 1.398 1_565 S
C883 C884 1.334 1_565 S
C884 H855 0.950 1_545 S
C884 C883 1.334 1_545 S
C884 C885 1.287 . S
C885 C884 1.287 . S
C885 C886 1.524 . S
C885 H888 0.999 . S
C886 H856 0.950 . S
C886 C885 1.524 . S
C886 C887 1.415 . S
C887 H857 0.950 . S
C887 C882 1.363 . S
C887 C886 1.415 . S
H888 C885 0.999 . S
H889 C870 0.913 . S
H890 C908 0.951 . S
H891 C910 0.951 . S
H892 C912 0.950 . S
H893 C913 0.950 . S
H894 C915 0.950 . S
H895 C918 0.950 . S
H896 C919 0.950 . S
H897 C921 0.950 . S
H898 C922 0.960 . S
H899 C923 0.951 . S
H900 C925 0.951 1_554 S
H901 C927 0.950 . S
H902 C928 0.950 . S
H903 C930 0.950 1_556 S
H904 C933 0.950 1_556 S
H905 C934 0.950 1_556 S
H906 C936 0.950 . S
H907 C937 0.950 . S
C908 H890 0.951 . S
C908 C909 1.366 . S
C908 C910 1.388 . S
C909 C908 1.366 . S
C909 C913 1.385 . S
C910 H891 0.951 . S
C910 C908 1.388 . S
C910 C911 1.366 . S
C911 C910 1.366 . S
C911 C912 1.414 . S
C911 C914 1.499 . S
C912 H892 0.950 . S
C912 C911 1.414 . S
C912 C913 1.374 . S
C913 H893 0.950 . S
C913 C909 1.385 . S
C913 C912 1.374 . S
C914 C911 1.499 . S
C914 C915 1.373 . S
C914 C916 1.389 . S
C915 H894 0.950 . S
C915 C914 1.373 . S
C915 C931 1.377 . S
C916 C914 1.389 . S
C916 C917 1.524 . S
C916 C930 1.377 . S
C917 C916 1.524 . S
C917 C918 1.397 . S
C917 C922 1.353 1_554 S
C918 H895 0.950 . S
C918 C917 1.397 . S
C918 C919 1.334 . S
C919 H896 0.950 . S
C919 C918 1.334 . S
C919 C920 1.287 . S
C920 C919 1.287 . S
C920 C921 1.524 1_554 S
C920 H939 0.913 . S
C921 H897 0.950 . S
C921 C920 1.524 1_556 S
C921 C922 1.416 . S
C922 H898 0.960 . S
C922 C917 1.353 1_556 S
C922 C921 1.416 . S
C923 H899 0.951 . S
C923 C924 1.366 . S
C923 C925 1.388 . S
C924 C923 1.366 . S
C924 C928 1.385 . S
C925 H900 0.951 1_556 S
C925 C923 1.388 . S
C925 C926 1.366 . S
C926 C925 1.366 . S
C926 C927 1.414 . S
C926 C929 1.499 1_556 S
C927 H901 0.950 . S
C927 C926 1.414 . S
C927 C928 1.374 . S
C928 H902 0.950 . S
C928 C924 1.385 . S
C928 C927 1.374 . S
C929 C926 1.499 1_554 S
C929 C930 1.373 . S
C929 C931 1.389 . S
C930 H903 0.950 1_554 S
C930 C916 1.377 . S
C930 C929 1.373 . S
C931 C915 1.377 . S
C931 C929 1.389 . S
C931 C932 1.524 . S
C932 C931 1.524 . S
C932 C933 1.397 . S
C932 C937 1.363 . S
C933 H904 0.950 1_554 S
C933 C932 1.397 . S
C933 C934 1.334 . S
C934 H905 0.950 1_554 S
C934 C933 1.334 . S
C934 C935 1.287 . S
C935 C934 1.287 . S
C935 C936 1.524 . S
C935 H938 0.999 . S
C936 H906 0.950 . S
C936 C935 1.524 . S
C936 C937 1.415 . S
C937 H907 0.950 . S
C937 C932 1.363 . S
C937 C936 1.415 . S
H938 C935 0.999 . S
H939 C920 0.913 . S
H940 C958 0.951 . S
H941 C960 0.951 . S
H942 C962 0.950 1_554 S
H943 C963 0.950 . S
H944 C965 0.950 . S
H945 C968 0.950 . S
H946 C969 0.950 . S
H947 C971 0.950 . S
H948 C972 0.950 . S
H949 C973 0.951 . S
H950 C975 0.951 . S
H951 C977 0.950 . S
H952 C978 0.950 . S
H953 C980 0.950 . S
H954 C983 0.950 . S
H955 C984 0.950 . S
H956 C986 0.950 . S
H957 C987 0.950 . S
C958 H940 0.951 . S
C958 C959 1.366 . S
C958 C960 1.388 . S
C959 C958 1.366 . S
C959 C963 1.385 1_556 S
C960 H941 0.951 . S
C960 C958 1.388 . S
C960 C961 1.366 . S
C961 C960 1.366 . S
C961 C962 1.414 . S
C961 C964 1.499 . S
C962 H942 0.950 1_556 S
C962 C961 1.414 . S
C962 C963 1.374 1_556 S
C963 H943 0.950 . S
C963 C959 1.385 1_554 S
C963 C962 1.374 1_554 S
C964 C961 1.499 . S
C964 C965 1.373 . S
C964 C966 1.389 . S
C965 H944 0.950 . S
C965 C964 1.373 . S
C965 C981 1.377 . S
C966 C964 1.389 . S
C966 C967 1.524 . S
C966 C980 1.377 . S
C967 C966 1.524 . S
C967 C968 1.397 . S
C967 C972 1.363 . S
C968 H945 0.950 . S
C968 C967 1.397 . S
C968 C969 1.334 . S
C969 H946 0.950 . S
C969 C968 1.334 . S
C969 C970 1.287 . S
C970 C969 1.287 . S
C970 C971 1.524 . S
C970 H989 0.913 . S
C971 H947 0.950 . S
C971 C970 1.524 . S
C971 C972 1.415 . S
C972 H948 0.950 . S
C972 C967 1.363 . S
C972 C971 1.415 . S
C973 H949 0.951 . S
C973 C974 1.366 . S
C973 C975 1.388 . S
C974 C973 1.366 . S
C974 C978 1.385 . S
C975 H950 0.951 . S
C975 C973 1.388 . S
C975 C976 1.366 . S
C976 C975 1.366 . S
C976 C977 1.414 . S
C976 C979 1.499 . S
C977 H951 0.950 . S
C977 C976 1.414 . S
C977 C978 1.374 . S
C978 H952 0.950 . S
C978 C974 1.385 . S
C978 C977 1.374 . S
C979 C976 1.499 . S
C979 C980 1.373 . S
C979 C981 1.389 . S
C980 H953 0.950 . S
C980 C966 1.377 . S
C980 C979 1.373 . S
C981 C965 1.377 . S
C981 C979 1.389 . S
C981 C982 1.524 . S
C982 C981 1.524 . S
C982 C983 1.397 . S
C982 C987 1.363 . S
C983 H954 0.950 . S
C983 C982 1.397 . S
C983 C984 1.334 . S
C984 H955 0.950 . S
C984 C983 1.334 . S
C984 C985 1.287 . S
C985 C984 1.287 . S
C985 C986 1.524 . S
C985 H988 0.999 . S
C986 H956 0.950 . S
C986 C985 1.524 . S
C986 C987 1.415 . S
C987 H957 0.950 . S
C987 C982 1.363 . S
C987 C986 1.415 . S
H988 C985 0.999 . S
H989 C970 0.913 . S
H990 C1008 0.951 . S
H991 C1010 0.951 . S
H992 C1012 0.950 . S
H993 C1013 0.950 1_554 S
H994 C1015 0.950 . S
H995 C1018 0.950 . S
H996 C1019 0.950 . S
H997 C1021 0.950 . S
H998 C1022 0.950 . S
H999 C1023 0.951 . S
H1000 C1025 0.951 . S
H1001 C1027 0.950 . S
H1002 C1028 0.950 1_455 S
H1003 C1030 0.950 . S
H1004 C1033 0.950 . S
H1005 C1034 0.950 . S
H1006 C1036 0.950 . S
H1007 C1037 0.950 1_556 S
C1008 H990 0.951 . S
C1008 C1009 1.366 . S
C1008 C1010 1.388 . S
C1009 C1008 1.366 . S
C1009 C1013 1.385 . S
C1010 H991 0.951 . S
C1010 C1008 1.388 . S
C1010 C1011 1.366 . S
C1011 C1010 1.366 . S
C1011 C1012 1.414 . S
C1011 C1014 1.499 . S
C1012 H992 0.950 . S
C1012 C1011 1.414 . S
C1012 C1013 1.374 . S
C1013 H993 0.950 1_556 S
C1013 C1009 1.385 . S
C1013 C1012 1.374 . S
C1014 C1011 1.499 . S
C1014 C1015 1.373 . S
C1014 C1016 1.389 . S
C1015 H994 0.950 . S
C1015 C1014 1.373 . S
C1015 C1031 1.377 . S
C1016 C1014 1.389 . S
C1016 C1017 1.524 . S
C1016 C1030 1.377 . S
C1017 C1016 1.524 . S
C1017 C1018 1.397 . S
C1017 C1022 1.363 . S
C1018 H995 0.950 . S
C1018 C1017 1.397 . S
C1018 C1019 1.334 . S
C1019 H996 0.950 . S
C1019 C1018 1.334 . S
C1019 C1020 1.287 . S
C1020 C1019 1.287 . S
C1020 C1021 1.524 . S
C1020 H1039 0.913 . S
C1021 H997 0.950 . S
C1021 C1020 1.524 . S
C1021 C1022 1.415 . S
C1022 H998 0.950 . S
C1022 C1017 1.363 . S
C1022 C1021 1.415 . S
C1023 H999 0.951 . S
C1023 C1024 1.366 . S
C1023 C1025 1.388 . S
C1024 C1023 1.366 . S
C1024 C1028 1.385 . S
C1025 H1000 0.951 . S
C1025 C1023 1.388 . S
C1025 C1026 1.366 . S
C1026 C1025 1.366 . S
C1026 C1027 1.414 . S
C1026 C1029 1.499 . S
C1027 H1001 0.950 . S
C1027 C1026 1.414 . S
C1027 C1028 1.374 . S
C1028 H1002 0.950 1_655 S
C1028 C1024 1.385 . S
C1028 C1027 1.374 . S
C1029 C1026 1.499 . S
C1029 C1030 1.373 . S
C1029 C1031 1.389 . S
C1030 H1003 0.950 . S
C1030 C1016 1.377 . S
C1030 C1029 1.373 . S
C1031 C1015 1.377 . S
C1031 C1029 1.389 . S
C1031 C1032 1.524 . S
C1032 C1031 1.524 . S
C1032 C1033 1.397 . S
C1032 C1037 1.363 1_556 S
C1033 H1004 0.950 . S
C1033 C1032 1.397 . S
C1033 C1034 1.334 1_556 S
C1034 H1005 0.950 . S
C1034 C1033 1.334 1_554 S
C1034 C1035 1.287 . S
C1035 C1034 1.287 . S
C1035 C1036 1.524 . S
C1035 H1038 0.999 . S
C1036 H1006 0.950 . S
C1036 C1035 1.524 . S
C1036 C1037 1.415 . S
C1037 H1007 0.950 1_554 S
C1037 C1032 1.363 1_554 S
C1037 C1036 1.415 . S
H1038 C1035 0.999 . S
H1039 C1020 0.913 . S
H1040 C1058 0.951 . S
H1041 C1060 0.951 . S
H1042 C1062 0.950 . S
H1043 C1063 0.950 . S
H1044 C1065 0.950 . S
H1045 C1068 0.950 . S
H1046 C1069 0.950 . S
H1047 C1071 0.950 . S
H1048 C1072 0.950 . S
H1049 C1073 0.951 . S
H1050 C1075 0.951 . S
H1051 C1077 0.950 . S
H1052 C1078 0.950 . S
H1053 C1080 0.950 . S
H1054 C1083 0.950 . S
H1055 C1084 0.950 . S
H1056 C1086 0.950 . S
H1057 C1087 0.950 . S
C1058 H1040 0.951 . S
C1058 C1059 1.366 . S
C1058 C1060 1.388 . S
C1059 C1058 1.366 . S
C1059 C1063 1.385 . S
C1060 H1041 0.951 . S
C1060 C1058 1.388 . S
C1060 C1061 1.366 . S
C1061 C1060 1.366 . S
C1061 C1062 1.414 . S
C1061 C1064 1.499 . S
C1062 H1042 0.950 . S
C1062 C1061 1.414 . S
C1062 C1063 1.374 . S
C1063 H1043 0.950 . S
C1063 C1059 1.385 . S
C1063 C1062 1.374 . S
C1064 C1061 1.499 . S
C1064 C1065 1.373 . S
C1064 C1066 1.389 . S
C1065 H1044 0.950 . S
C1065 C1064 1.373 . S
C1065 C1081 1.377 . S
C1066 C1064 1.389 . S
C1066 C1067 1.524 . S
C1066 C1080 1.377 . S
C1067 C1066 1.524 . S
C1067 C1068 1.397 . S
C1067 C1072 1.363 . S
C1068 H1045 0.950 . S
C1068 C1067 1.397 . S
C1068 C1069 1.334 . S
C1069 H1046 0.950 . S
C1069 C1068 1.334 . S
C1069 C1070 1.287 . S
C1070 C1069 1.287 . S
C1070 C1071 1.524 . S
C1070 H1089 0.913 . S
C1071 H1047 0.950 . S
C1071 C1070 1.524 . S
C1071 C1072 1.415 . S
C1072 H1048 0.950 . S
C1072 C1067 1.363 . S
C1072 C1071 1.415 . S
C1073 H1049 0.951 . S
C1073 C1074 1.366 . S
C1073 C1075 1.388 . S
C1074 C1073 1.366 . S
C1074 C1078 1.385 . S
C1075 H1050 0.951 . S
C1075 C1073 1.388 . S
C1075 C1076 1.366 . S
C1076 C1075 1.366 . S
C1076 C1077 1.414 . S
C1076 C1079 1.499 . S
C1077 H1051 0.950 . S
C1077 C1076 1.414 . S
C1077 C1078 1.374 . S
C1078 H1052 0.950 . S
C1078 C1074 1.385 . S
C1078 C1077 1.374 . S
C1079 C1076 1.499 . S
C1079 C1080 1.373 . S
C1079 C1081 1.389 . S
C1080 H1053 0.950 . S
C1080 C1066 1.377 . S
C1080 C1079 1.373 . S
C1081 C1065 1.377 . S
C1081 C1079 1.389 . S
C1081 C1082 1.524 . S
C1082 C1081 1.524 . S
C1082 C1083 1.397 . S
C1082 C1087 1.363 . S
C1083 H1054 0.950 . S
C1083 C1082 1.397 . S
C1083 C1084 1.334 . S
C1084 H1055 0.950 . S
C1084 C1083 1.334 . S
C1084 C1085 1.287 . S
C1085 C1084 1.287 . S
C1085 C1086 1.524 . S
C1085 H1088 0.999 . S
C1086 H1056 0.950 . S
C1086 C1085 1.524 . S
C1086 C1087 1.415 . S
C1087 H1057 0.950 . S
C1087 C1082 1.363 . S
C1087 C1086 1.415 . S
H1088 C1085 0.999 . S
H1089 C1070 0.913 . S
H1090 C1108 0.951 . S
H1091 C1110 0.951 . S
H1092 C1112 0.950 . S
H1093 C1113 0.950 . S
H1094 C1115 0.950 . S
H1095 C1118 0.950 . S
H1096 C1119 0.950 . S
H1097 C1121 0.950 . S
H1098 C1122 0.950 . S
H1099 C1123 0.951 . S
H1100 C1125 0.951 . S
H1101 C1127 0.950 1_545 S
H1102 C1128 0.950 1_545 S
H1103 C1130 0.950 . S
H1104 C1133 0.950 . S
H1105 C1134 0.950 . S
H1106 C1136 0.950 . S
H1107 C1137 0.950 . S
C1108 H1090 0.951 . S
C1108 C1109 1.379 . S
C1108 C1110 1.388 . S
C1109 C1108 1.379 . S
C1109 C1113 1.364 1_545 S
C1110 H1091 0.951 . S
C1110 C1108 1.388 . S
C1110 C1111 1.366 1_545 S
C1111 C1110 1.366 1_565 S
C1111 C1112 1.414 . S
C1111 C1114 1.499 . S
C1112 H1092 0.950 . S
C1112 C1111 1.414 . S
C1112 C1113 1.374 . S
C1113 H1093 0.950 . S
C1113 C1109 1.364 1_565 S
C1113 C1112 1.374 . S
C1114 C1111 1.499 . S
C1114 C1115 1.373 . S
C1114 C1116 1.389 1_565 S
C1115 H1094 0.950 . S
C1115 C1114 1.373 . S
C1115 C1131 1.377 . S
C1116 C1114 1.389 1_545 S
C1116 C1117 1.524 . S
C1116 C1130 1.377 . S
C1117 C1116 1.524 . S
C1117 C1118 1.397 . S
C1117 C1122 1.363 . S
C1118 H1095 0.950 . S
C1118 C1117 1.397 . S
C1118 C1119 1.334 . S
C1119 H1096 0.950 . S
C1119 C1118 1.334 . S
C1119 C1120 1.287 . S
C1120 C1119 1.287 . S
C1120 C1121 1.524 . S
C1120 H1139 0.913 . S
C1121 H1097 0.950 . S
C1121 C1120 1.524 . S
C1121 C1122 1.415 . S
C1122 H1098 0.950 . S
C1122 C1117 1.363 . S
C1122 C1121 1.415 . S
C1123 H1099 0.951 . S
C1123 C1124 1.366 . S
C1123 C1125 1.388 . S
C1124 C1123 1.366 . S
C1124 C1128 1.385 . S
C1125 H1100 0.951 . S
C1125 C1123 1.388 . S
C1125 C1126 1.366 . S
C1126 C1125 1.366 . S
C1126 C1127 1.414 . S
C1126 C1129 1.499 . S
C1127 H1101 0.950 1_565 S
C1127 C1126 1.414 . S
C1127 C1128 1.374 . S
C1128 H1102 0.950 1_565 S
C1128 C1124 1.385 . S
C1128 C1127 1.374 . S
C1129 C1126 1.499 . S
C1129 C1130 1.373 1_565 S
C1129 C1131 1.389 . S
C1130 H1103 0.950 . S
C1130 C1116 1.377 . S
C1130 C1129 1.373 1_545 S
C1131 C1115 1.377 . S
C1131 C1129 1.389 . S
C1131 C1132 1.524 . S
C1132 C1131 1.524 . S
C1132 C1133 1.397 . S
C1132 C1137 1.363 . S
C1133 H1104 0.950 . S
C1133 C1132 1.397 . S
C1133 C1134 1.334 . S
C1134 H1105 0.950 . S
C1134 C1133 1.334 . S
C1134 C1135 1.287 . S
C1135 C1134 1.287 . S
C1135 C1136 1.524 . S
C1135 H1138 0.999 . S
C1136 H1106 0.950 . S
C1136 C1135 1.524 . S
C1136 C1137 1.415 . S
C1137 H1107 0.950 . S
C1137 C1132 1.363 . S
C1137 C1136 1.415 . S
H1138 C1135 0.999 . S
H1139 C1120 0.913 . S
H1140 C1158 0.951 . S
H1141 C1160 0.951 . S
H1142 C1162 0.950 . S
H1143 C1163 0.950 . S
H1144 C1165 0.950 . S
H1145 C1168 0.950 . S
H1146 C1169 0.950 . S
H1147 C1171 0.950 . S
H1148 C1172 0.950 . S
H1149 C1173 0.951 . S
H1150 C1175 0.951 . S
H1151 C1177 0.950 . S
H1152 C1178 0.950 . S
H1153 C1180 0.950 . S
H1154 C1183 0.950 . S
H1155 C1184 0.950 . S
H1156 C1186 0.950 . S
H1157 C1187 0.950 . S
C1158 H1140 0.951 . S
C1158 C1159 1.366 . S
C1158 C1160 1.388 . S
C1159 C1158 1.366 . S
C1159 C1163 1.385 . S
C1160 H1141 0.951 . S
C1160 C1158 1.388 . S
C1160 C1161 1.366 . S
C1161 C1160 1.366 . S
C1161 C1162 1.414 . S
C1161 C1164 1.499 . S
C1162 H1142 0.950 . S
C1162 C1161 1.414 . S
C1162 C1163 1.374 . S
C1163 H1143 0.950 . S
C1163 C1159 1.385 . S
C1163 C1162 1.374 . S
C1164 C1161 1.499 . S
C1164 C1165 1.373 . S
C1164 C1166 1.389 . S
C1165 H1144 0.950 . S
C1165 C1164 1.373 . S
C1165 C1181 1.377 . S
C1166 C1164 1.389 . S
C1166 C1167 1.524 . S
C1166 C1180 1.377 . S
C1167 C1166 1.524 . S
C1167 C1168 1.397 . S
C1167 C1172 1.363 . S
C1168 H1145 0.950 . S
C1168 C1167 1.397 . S
C1168 C1169 1.334 . S
C1169 H1146 0.950 . S
C1169 C1168 1.334 . S
C1169 C1170 1.287 . S
C1170 C1169 1.287 . S
C1170 C1171 1.524 . S
C1170 H1189 0.913 . S
C1171 H1147 0.950 . S
C1171 C1170 1.524 . S
C1171 C1172 1.415 . S
C1172 H1148 0.950 . S
C1172 C1167 1.363 . S
C1172 C1171 1.415 . S
C1173 H1149 0.951 . S
C1173 C1174 1.366 . S
C1173 C1175 1.388 . S
C1174 C1173 1.366 . S
C1174 C1178 1.385 . S
C1175 H1150 0.951 . S
C1175 C1173 1.388 . S
C1175 C1176 1.366 . S
C1176 C1175 1.366 . S
C1176 C1177 1.414 . S
C1176 C1179 1.499 . S
C1177 H1151 0.950 . S
C1177 C1176 1.414 . S
C1177 C1178 1.374 . S
C1178 H1152 0.950 . S
C1178 C1174 1.385 . S
C1178 C1177 1.374 . S
C1179 C1176 1.499 . S
C1179 C1180 1.373 . S
C1179 C1181 1.389 . S
C1180 H1153 0.950 . S
C1180 C1166 1.377 . S
C1180 C1179 1.373 . S
C1181 C1165 1.377 . S
C1181 C1179 1.389 . S
C1181 C1182 1.524 . S
C1182 C1181 1.524 . S
C1182 C1183 1.397 . S
C1182 C1187 1.363 . S
C1183 H1154 0.950 . S
C1183 C1182 1.397 . S
C1183 C1184 1.334 . S
C1184 H1155 0.950 . S
C1184 C1183 1.334 . S
C1184 C1185 1.287 . S
C1185 C1184 1.287 . S
C1185 C1186 1.524 . S
C1185 H1188 0.999 . S
C1186 H1156 0.950 . S
C1186 C1185 1.524 . S
C1186 C1187 1.415 . S
C1187 H1157 0.950 . S
C1187 C1182 1.363 . S
C1187 C1186 1.415 . S
H1188 C1185 0.999 . S
H1189 C1170 0.913 . S
H1190 C1208 0.951 . S
H1191 C1210 0.951 . S
H1192 C1212 0.950 . S
H1193 C1213 0.950 . S
H1194 C1215 0.950 . S
H1195 C1218 0.950 . S
H1196 C1219 0.950 . S
H1197 C1221 0.950 . S
H1198 C1222 0.950 . S
H1199 C1223 0.951 . S
H1200 C1225 0.951 . S
H1201 C1227 0.950 . S
H1202 C1228 0.950 . S
H1203 C1230 0.950 . S
H1204 C1233 0.950 . S
H1205 C1234 0.950 . S
H1206 C1236 0.950 . S
H1207 C1237 0.950 . S
C1208 H1190 0.951 . S
C1208 C1209 1.366 . S
C1208 C1210 1.388 . S
C1209 C1208 1.366 . S
C1209 C1213 1.385 . S
C1210 H1191 0.951 . S
C1210 C1208 1.388 . S
C1210 C1211 1.366 . S
C1211 C1210 1.366 . S
C1211 C1212 1.414 . S
C1211 C1214 1.499 . S
C1212 H1192 0.950 . S
C1212 C1211 1.414 . S
C1212 C1213 1.374 . S
C1213 H1193 0.950 . S
C1213 C1209 1.385 . S
C1213 C1212 1.374 . S
C1214 C1211 1.499 . S
C1214 C1215 1.373 . S
C1214 C1216 1.389 . S
C1215 H1194 0.950 . S
C1215 C1214 1.373 . S
C1215 C1231 1.377 . S
C1216 C1214 1.389 . S
C1216 C1217 1.524 . S
C1216 C1230 1.377 . S
C1217 C1216 1.524 . S
C1217 C1218 1.397 . S
C1217 C1222 1.363 . S
C1218 H1195 0.950 . S
C1218 C1217 1.397 . S
C1218 C1219 1.334 . S
C1219 H1196 0.950 . S
C1219 C1218 1.334 . S
C1219 C1220 1.287 . S
C1220 C1219 1.287 . S
C1220 C1221 1.524 . S
C1220 H1239 0.913 . S
C1221 H1197 0.950 . S
C1221 C1220 1.524 . S
C1221 C1222 1.415 . S
C1222 H1198 0.950 . S
C1222 C1217 1.363 . S
C1222 C1221 1.415 . S
C1223 H1199 0.951 . S
C1223 C1224 1.366 . S
C1223 C1225 1.388 . S
C1224 C1223 1.366 . S
C1224 C1228 1.385 . S
C1225 H1200 0.951 . S
C1225 C1223 1.388 . S
C1225 C1226 1.366 . S
C1226 C1225 1.366 . S
C1226 C1227 1.414 . S
C1226 C1229 1.499 . S
C1227 H1201 0.950 . S
C1227 C1226 1.414 . S
C1227 C1228 1.374 . S
C1228 H1202 0.950 . S
C1228 C1224 1.385 . S
C1228 C1227 1.374 . S
C1229 C1226 1.499 . S
C1229 C1230 1.373 . S
C1229 C1231 1.389 . S
C1230 H1203 0.950 . S
C1230 C1216 1.377 . S
C1230 C1229 1.373 . S
C1231 C1215 1.377 . S
C1231 C1229 1.389 . S
C1231 C1232 1.524 . S
C1232 C1231 1.524 . S
C1232 C1233 1.397 . S
C1232 C1237 1.363 . S
C1233 H1204 0.950 . S
C1233 C1232 1.397 . S
C1233 C1234 1.334 . S
C1234 H1205 0.950 . S
C1234 C1233 1.334 . S
C1234 C1235 1.287 . S
C1235 C1234 1.287 . S
C1235 C1236 1.524 . S
C1235 H1238 0.999 . S
C1236 H1206 0.950 . S
C1236 C1235 1.524 . S
C1236 C1237 1.415 . S
C1237 H1207 0.950 . S
C1237 C1232 1.363 . S
C1237 C1236 1.415 . S
H1238 C1235 0.999 . S
H1239 C1220 0.913 . S
H1240 C1258 0.951 . S
H1241 C1260 0.951 . S
H1242 C1262 0.950 . S
H1243 C1263 0.950 . S
H1244 C1265 0.950 . S
H1245 C1268 0.950 . S
H1246 C1269 0.950 . S
H1247 C1271 0.950 . S
H1248 C1272 0.950 . S
H1249 C1273 0.951 . S
H1250 C1275 0.951 . S
H1251 C1277 0.950 . S
H1252 C1278 0.888 1_455 S
H1253 C1280 0.950 . S
H1254 C1283 0.950 . S
H1255 C1284 0.950 . S
H1256 C1286 0.950 . S
H1257 C1287 0.950 . S
C1258 H1240 0.951 . S
C1258 C1259 1.366 . S
C1258 C1260 1.388 . S
C1259 C1258 1.366 . S
C1259 C1263 1.385 . S
C1260 H1241 0.951 . S
C1260 C1258 1.388 . S
C1260 C1261 1.366 . S
C1261 C1260 1.366 . S
C1261 C1262 1.414 . S
C1261 C1264 1.499 . S
C1262 H1242 0.950 . S
C1262 C1261 1.414 . S
C1262 C1263 1.374 . S
C1263 H1243 0.950 . S
C1263 C1259 1.385 . S
C1263 C1262 1.374 . S
C1264 C1261 1.499 . S
C1264 C1265 1.373 . S
C1264 C1266 1.389 . S
C1265 H1244 0.950 . S
C1265 C1264 1.373 . S
C1265 C1281 1.377 . S
C1266 C1264 1.389 . S
C1266 C1267 1.524 . S
C1266 C1280 1.377 . S
C1267 C1266 1.524 . S
C1267 C1268 1.397 . S
C1267 C1272 1.363 . S
C1268 H1245 0.950 . S
C1268 C1267 1.397 . S
C1268 C1269 1.334 1_556 S
C1269 H1246 0.950 . S
C1269 C1268 1.334 1_554 S
C1269 C1270 1.287 . S
C1270 C1269 1.287 . S
C1270 C1271 1.524 . S
C1270 H1289 0.913 . S
C1271 H1247 0.950 . S
C1271 C1270 1.524 . S
C1271 C1272 1.415 1_554 S
C1272 H1248 0.950 . S
C1272 C1267 1.363 . S
C1272 C1271 1.415 1_556 S
C1273 H1249 0.951 . S
C1273 C1274 1.366 . S
C1273 C1275 1.388 . S
C1274 C1273 1.366 . S
C1274 C1278 1.417 . S
C1275 H1250 0.951 . S
C1275 C1273 1.388 . S
C1275 C1276 1.366 . S
C1276 C1275 1.366 . S
C1276 C1277 1.414 . S
C1276 C1279 1.499 . S
C1277 H1251 0.950 . S
C1277 C1276 1.414 . S
C1277 C1278 1.406 . S
C1278 H1252 0.888 1_655 S
C1278 C1274 1.417 . S
C1278 C1277 1.406 . S
C1279 C1276 1.499 . S
C1279 C1280 1.373 . S
C1279 C1281 1.389 . S
C1280 H1253 0.950 . S
C1280 C1266 1.377 . S
C1280 C1279 1.373 . S
C1281 C1265 1.377 . S
C1281 C1279 1.389 . S
C1281 C1282 1.524 . S
C1282 C1281 1.524 . S
C1282 C1283 1.397 . S
C1282 C1287 1.363 . S
C1283 H1254 0.950 . S
C1283 C1282 1.397 . S
C1283 C1284 1.334 . S
C1284 H1255 0.950 . S
C1284 C1283 1.334 . S
C1284 C1285 1.287 . S
C1285 C1284 1.287 . S
C1285 C1286 1.524 . S
C1285 H1288 0.999 . S
C1286 H1256 0.950 . S
C1286 C1285 1.524 . S
C1286 C1287 1.415 . S
C1287 H1257 0.950 . S
C1287 C1282 1.363 . S
C1287 C1286 1.415 . S
H1288 C1285 0.999 . S
H1289 C1270 0.913 . S
H1290 C1308 0.951 . S
H1291 C1310 0.951 . S
H1292 C1312 0.950 . S
H1293 C1313 0.950 . S
H1294 C1315 0.950 . S
H1295 C1318 0.950 . S
H1296 C1319 0.950 . S
H1297 C1321 0.950 . S
H1298 C1322 0.950 . S
H1299 C1323 0.951 . S
H1300 C1325 0.951 . S
H1301 C1327 0.950 . S
H1302 C1328 0.950 . S
H1303 C1330 0.943 1_565 S
H1304 C1333 0.950 1_565 S
H1305 C1334 0.950 1_565 S
H1306 C1336 0.950 . S
H1307 C1337 0.950 . S
C1308 H1290 0.951 . S
C1308 C1309 1.377 . S
C1308 C1310 1.388 . S
C1309 C1308 1.377 . S
C1309 C1313 1.368 1_565 S
C1310 H1291 0.951 . S
C1310 C1308 1.388 . S
C1310 C1311 1.366 1_565 S
C1311 C1310 1.366 1_545 S
C1311 C1312 1.414 . S
C1311 C1314 1.499 . S
C1312 H1292 0.950 . S
C1312 C1311 1.414 . S
C1312 C1313 1.374 . S
C1313 H1293 0.950 . S
C1313 C1309 1.368 1_545 S
C1313 C1312 1.374 . S
C1314 C1311 1.499 . S
C1314 C1315 1.373 . S
C1314 C1316 1.389 . S
C1315 H1294 0.950 . S
C1315 C1314 1.373 . S
C1315 C1331 1.377 . S
C1316 C1314 1.389 . S
C1316 C1317 1.524 1_545 S
C1316 C1330 1.377 . S
C1317 C1316 1.524 1_565 S
C1317 C1318 1.397 1_565 S
C1317 C1322 1.363 . S
C1318 H1295 0.950 . S
C1318 C1317 1.397 1_545 S
C1318 C1319 1.334 . S
C1319 H1296 0.950 . S
C1319 C1318 1.334 . S
C1319 C1320 1.287 1_545 S
C1320 C1319 1.287 1_565 S
C1320 C1321 1.524 . S
C1320 H1339 0.913 . S
C1321 H1297 0.950 . S
C1321 C1320 1.524 . S
C1321 C1322 1.415 . S
C1322 H1298 0.950 . S
C1322 C1317 1.363 . S
C1322 C1321 1.415 . S
C1323 H1299 0.951 . S
C1323 C1324 1.366 . S
C1323 C1325 1.388 . S
C1324 C1323 1.366 . S
C1324 C1328 1.385 1_545 S
C1325 H1300 0.951 . S
C1325 C1323 1.388 . S
C1325 C1326 1.366 . S
C1326 C1325 1.366 . S
C1326 C1327 1.414 1_545 S
C1326 C1329 1.499 . S
C1327 H1301 0.950 . S
C1327 C1326 1.414 1_565 S
C1327 C1328 1.374 . S
C1328 H1302 0.950 . S
C1328 C1324 1.385 1_565 S
C1328 C1327 1.374 . S
C1329 C1326 1.499 . S
C1329 C1330 1.373 . S
C1329 C1331 1.389 . S
C1330 H1303 0.943 1_545 S
C1330 C1316 1.377 . S
C1330 C1329 1.373 . S
C1331 C1315 1.377 . S
C1331 C1329 1.389 . S
C1331 C1332 1.524 . S
C1332 C1331 1.524 . S
C1332 C1333 1.397 . S
C1332 C1337 1.363 . S
C1333 H1304 0.950 1_545 S
C1333 C1332 1.397 . S
C1333 C1334 1.334 . S
C1334 H1305 0.950 1_545 S
C1334 C1333 1.334 . S
C1334 C1335 1.287 . S
C1335 C1334 1.287 . S
C1335 C1336 1.524 . S
C1335 H1338 0.999 1_556 S
C1336 H1306 0.950 . S
C1336 C1335 1.524 . S
C1336 C1337 1.415 . S
C1337 H1307 0.950 . S
C1337 C1332 1.363 . S
C1337 C1336 1.415 . S
H1338 C1335 0.999 1_554 S
H1339 C1320 0.913 . S
H1340 C1358 0.951 . S
H1341 C1360 0.951 . S
H1342 C1362 0.950 . S
H1343 C1363 0.950 . S
H1344 C1365 0.950 1_556 S
H1345 C1368 0.950 . S
H1346 C1369 0.950 . S
H1347 C1371 0.950 . S
H1348 C1372 0.950 . S
H1349 C1373 0.951 . S
H1350 C1375 0.951 . S
H1351 C1377 0.950 1_554 S
H1352 C1378 0.950 . S
H1353 C1380 0.950 . S
H1354 C1383 0.950 . S
H1355 C1384 0.950 . S
H1356 C1386 0.950 . S
H1357 C1387 0.950 . S
C1358 H1340 0.951 . S
C1358 C1359 1.366 . S
C1358 C1360 1.388 . S
C1359 C1358 1.366 . S
C1359 C1363 1.385 . S
C1360 H1341 0.951 . S
C1360 C1358 1.388 . S
C1360 C1361 1.366 . S
C1361 C1360 1.366 . S
C1361 C1362 1.414 . S
C1361 C1364 1.499 . S
C1362 H1342 0.950 . S
C1362 C1361 1.414 . S
C1362 C1363 1.374 . S
C1363 H1343 0.950 . S
C1363 C1359 1.385 . S
C1363 C1362 1.374 . S
C1364 C1361 1.499 . S
C1364 C1365 1.373 . S
C1364 C1366 1.389 . S
C1365 H1344 0.950 1_554 S
C1365 C1364 1.373 . S
C1365 C1381 1.377 1_554 S
C1366 C1364 1.389 . S
C1366 C1367 1.524 . S
C1366 C1380 1.377 . S
C1367 C1366 1.524 . S
C1367 C1368 1.397 . S
C1367 C1372 1.363 . S
C1368 H1345 0.950 . S
C1368 C1367 1.397 . S
C1368 C1369 1.334 . S
C1369 H1346 0.950 . S
C1369 C1368 1.334 . S
C1369 C1370 1.287 . S
C1370 C1369 1.287 . S
C1370 C1371 1.524 . S
C1370 H1389 0.913 . S
C1371 H1347 0.950 . S
C1371 C1370 1.524 . S
C1371 C1372 1.415 . S
C1372 H1348 0.950 . S
C1372 C1367 1.363 . S
C1372 C1371 1.415 . S
C1373 H1349 0.951 . S
C1373 C1374 1.366 . S
C1373 C1375 1.388 . S
C1374 C1373 1.366 . S
C1374 C1378 1.385 . S
C1375 H1350 0.951 . S
C1375 C1373 1.388 . S
C1375 C1376 1.366 . S
C1376 C1375 1.366 . S
C1376 C1377 1.414 . S
C1376 C1379 1.499 1_556 S
C1377 H1351 0.950 1_556 S
C1377 C1376 1.414 . S
C1377 C1378 1.374 . S
C1378 H1352 0.950 . S
C1378 C1374 1.385 . S
C1378 C1377 1.374 . S
C1379 C1376 1.499 1_554 S
C1379 C1380 1.373 . S
C1379 C1381 1.389 1_554 S
C1380 H1353 0.950 . S
C1380 C1366 1.377 . S
C1380 C1379 1.373 . S
C1381 C1365 1.377 1_556 S
C1381 C1379 1.389 1_556 S
C1381 C1382 1.524 . S
C1382 C1381 1.524 . S
C1382 C1383 1.397 . S
C1382 C1387 1.363 . S
C1383 H1354 0.950 . S
C1383 C1382 1.397 . S
C1383 C1384 1.334 . S
C1384 H1355 0.950 . S
C1384 C1383 1.334 . S
C1384 C1385 1.287 . S
C1385 C1384 1.287 . S
C1385 C1386 1.524 . S
C1385 H1388 0.999 . S
C1386 H1356 0.950 . S
C1386 C1385 1.524 . S
C1386 C1387 1.415 . S
C1387 H1357 0.950 . S
C1387 C1382 1.363 . S
C1387 C1386 1.415 . S
H1388 C1385 0.999 . S
H1389 C1370 0.913 . S
H1390 C1408 0.951 . S
H1391 C1410 0.951 . S
H1392 C1412 0.950 . S
H1393 C1413 0.950 . S
H1394 C1415 0.950 . S
H1395 C1418 0.950 . S
H1396 C1419 0.950 . S
H1397 C1421 0.950 . S
H1398 C1422 0.950 . S
H1399 C1423 0.951 . S
H1400 C1425 0.951 . S
H1401 C1427 0.950 . S
H1402 C1428 0.950 . S
H1403 C1430 0.950 . S
H1404 C1433 0.950 . S
H1405 C1434 0.950 . S
H1406 C1436 0.950 . S
H1407 C1437 0.950 . S
C1408 H1390 0.951 . S
C1408 C1409 1.366 . S
C1408 C1410 1.388 . S
C1409 C1408 1.366 . S
C1409 C1413 1.385 . S
C1410 H1391 0.951 . S
C1410 C1408 1.388 . S
C1410 C1411 1.366 . S
C1411 C1410 1.366 . S
C1411 C1412 1.414 . S
C1411 C1414 1.499 . S
C1412 H1392 0.950 . S
C1412 C1411 1.414 . S
C1412 C1413 1.374 . S
C1413 H1393 0.950 . S
C1413 C1409 1.385 . S
C1413 C1412 1.374 . S
C1414 C1411 1.499 . S
C1414 C1415 1.373 . S
C1414 C1416 1.389 . S
C1415 H1394 0.950 . S
C1415 C1414 1.373 . S
C1415 C1431 1.377 . S
C1416 C1414 1.389 . S
C1416 C1417 1.524 . S
C1416 C1430 1.377 . S
C1417 C1416 1.524 . S
C1417 C1418 1.397 . S
C1417 C1422 1.363 . S
C1418 H1395 0.950 . S
C1418 C1417 1.397 . S
C1418 C1419 1.334 1_556 S
C1419 H1396 0.950 . S
C1419 C1418 1.334 1_554 S
C1419 C1420 1.287 . S
C1420 C1419 1.287 . S
C1420 C1421 1.524 . S
C1420 H1439 0.913 . S
C1421 H1397 0.950 . S
C1421 C1420 1.524 . S
C1421 C1422 1.415 1_554 S
C1422 H1398 0.950 . S
C1422 C1417 1.363 . S
C1422 C1421 1.415 1_556 S
C1423 H1399 0.951 . S
C1423 C1424 1.366 . S
C1423 C1425 1.388 . S
C1424 C1423 1.366 . S
C1424 C1428 1.385 . S
C1425 H1400 0.951 . S
C1425 C1423 1.388 . S
C1425 C1426 1.366 . S
C1426 C1425 1.366 . S
C1426 C1427 1.414 . S
C1426 C1429 1.499 . S
C1427 H1401 0.950 . S
C1427 C1426 1.414 . S
C1427 C1428 1.374 . S
C1428 H1402 0.950 . S
C1428 C1424 1.385 . S
C1428 C1427 1.374 . S
C1429 C1426 1.499 . S
C1429 C1430 1.373 . S
C1429 C1431 1.389 . S
C1430 H1403 0.950 . S
C1430 C1416 1.377 . S
C1430 C1429 1.373 . S
C1431 C1415 1.377 . S
C1431 C1429 1.389 . S
C1431 C1432 1.524 . S
C1432 C1431 1.524 . S
C1432 C1433 1.397 . S
C1432 C1437 1.363 . S
C1433 H1404 0.950 . S
C1433 C1432 1.397 . S
C1433 C1434 1.334 . S
C1434 H1405 0.950 . S
C1434 C1433 1.334 . S
C1434 C1435 1.287 . S
C1435 C1434 1.287 . S
C1435 C1436 1.524 . S
C1435 H1438 0.999 . S
C1436 H1406 0.950 . S
C1436 C1435 1.524 . S
C1436 C1437 1.415 . S
C1437 H1407 0.950 . S
C1437 C1432 1.363 . S
C1437 C1436 1.415 . S
H1438 C1435 0.999 . S
H1439 C1420 0.913 . S
H1440 C1458 0.951 . S
H1441 C1460 0.951 . S
H1442 C1462 0.950 . S
H1443 C1463 0.950 . S
H1444 C1465 0.950 . S
H1445 C1468 0.950 . S
H1446 C1469 0.950 . S
H1447 C1471 0.950 . S
H1448 C1472 0.950 . S
H1449 C1473 0.951 1_556 S
H1450 C1475 0.951 . S
H1451 C1477 0.950 . S
H1452 C1478 0.950 . S
H1453 C1480 0.950 . S
H1454 C1483 0.950 . S
H1455 C1484 0.950 . S
H1456 C1486 0.950 1_556 S
H1457 C1487 0.950 . S
C1458 H1440 0.951 . S
C1458 C1459 1.366 . S
C1458 C1460 1.388 . S
C1459 C1458 1.366 . S
C1459 C1463 1.385 . S
C1460 H1441 0.951 . S
C1460 C1458 1.388 . S
C1460 C1461 1.366 . S
C1461 C1460 1.366 . S
C1461 C1462 1.414 . S
C1461 C1464 1.499 . S
C1462 H1442 0.950 . S
C1462 C1461 1.414 . S
C1462 C1463 1.374 . S
C1463 H1443 0.950 . S
C1463 C1459 1.385 . S
C1463 C1462 1.374 . S
C1464 C1461 1.499 . S
C1464 C1465 1.373 . S
C1464 C1466 1.389 . S
C1465 H1444 0.950 . S
C1465 C1464 1.373 . S
C1465 C1481 1.377 . S
C1466 C1464 1.389 . S
C1466 C1467 1.524 . S
C1466 C1480 1.377 . S
C1467 C1466 1.524 . S
C1467 C1468 1.397 . S
C1467 C1472 1.363 . S
C1468 H1445 0.950 . S
C1468 C1467 1.397 . S
C1468 C1469 1.334 . S
C1469 H1446 0.950 . S
C1469 C1468 1.334 . S
C1469 C1470 1.287 . S
C1470 C1469 1.287 . S
C1470 C1471 1.524 . S
C1470 H1489 0.913 . S
C1471 H1447 0.950 . S
C1471 C1470 1.524 . S
C1471 C1472 1.415 . S
C1472 H1448 0.950 . S
C1472 C1467 1.363 . S
C1472 C1471 1.415 . S
C1473 H1449 0.951 1_554 S
C1473 C1474 1.366 . S
C1473 C1475 1.388 . S
C1474 C1473 1.366 . S
C1474 C1478 1.385 . S
C1475 H1450 0.951 . S
C1475 C1473 1.388 . S
C1475 C1476 1.366 . S
C1476 C1475 1.366 . S
C1476 C1477 1.414 . S
C1476 C1479 1.499 . S
C1477 H1451 0.950 . S
C1477 C1476 1.414 . S
C1477 C1478 1.374 . S
C1478 H1452 0.950 . S
C1478 C1474 1.385 . S
C1478 C1477 1.374 . S
C1479 C1476 1.499 . S
C1479 C1480 1.373 . S
C1479 C1481 1.389 . S
C1480 H1453 0.950 . S
C1480 C1466 1.377 . S
C1480 C1479 1.373 . S
C1481 C1465 1.377 . S
C1481 C1479 1.389 . S
C1481 C1482 1.524 . S
C1482 C1481 1.524 . S
C1482 C1483 1.397 . S
C1482 C1487 1.363 . S
C1483 H1454 0.950 . S
C1483 C1482 1.397 . S
C1483 C1484 1.334 . S
C1484 H1455 0.950 . S
C1484 C1483 1.334 . S
C1484 C1485 1.287 . S
C1485 C1484 1.287 . S
C1485 C1486 1.524 . S
C1485 H1488 0.999 . S
C1486 H1456 0.950 1_554 S
C1486 C1485 1.524 . S
C1486 C1487 1.415 . S
C1487 H1457 0.950 . S
C1487 C1482 1.363 . S
C1487 C1486 1.415 . S
H1488 C1485 0.999 . S
H1489 C1470 0.913 . S
H1490 C1508 0.951 . S
H1491 C1510 0.951 . S
H1492 C1512 0.950 1_565 S
H1493 C1513 0.950 . S
H1494 C1515 0.950 . S
H1495 C1518 0.950 . S
H1496 C1519 0.950 . S
H1497 C1521 0.950 . S
H1498 C1522 0.950 . S
H1499 C1523 0.951 1_556 S
H1500 C1525 0.951 . S
H1501 C1527 0.950 . S
H1502 C1528 0.950 . S
H1503 C1530 0.950 . S
H1504 C1533 0.950 . S
H1505 C1534 0.950 . S
H1506 C1536 0.950 . S
H1507 C1537 0.950 . S
C1508 H1490 0.951 . S
C1508 C1509 1.366 . S
C1508 C1510 1.388 . S
C1509 C1508 1.366 . S
C1509 C1513 1.385 1_545 S
C1510 H1491 0.951 . S
C1510 C1508 1.388 . S
C1510 C1511 1.366 . S
C1511 C1510 1.366 . S
C1511 C1512 1.414 . S
C1511 C1514 1.499 . S
C1512 H1492 0.950 1_545 S
C1512 C1511 1.414 . S
C1512 C1513 1.374 1_545 S
C1513 H1493 0.950 . S
C1513 C1509 1.385 1_565 S
C1513 C1512 1.374 1_565 S
C1514 C1511 1.499 . S
C1514 C1515 1.373 1_545 S
C1514 C1516 1.389 . S
C1515 H1494 0.950 . S
C1515 C1514 1.373 1_565 S
C1515 C1531 1.377 . S
C1516 C1514 1.389 . S
C1516 C1517 1.524 . S
C1516 C1530 1.377 . S
C1517 C1516 1.524 . S
C1517 C1518 1.397 . S
C1517 C1522 1.363 . S
C1518 H1495 0.950 . S
C1518 C1517 1.397 . S
C1518 C1519 1.334 . S
C1519 H1496 0.950 . S
C1519 C1518 1.334 . S
C1519 C1520 1.287 . S
C1520 C1519 1.287 . S
C1520 C1521 1.524 . S
C1520 H1539 0.913 . S
C1521 H1497 0.950 . S
C1521 C1520 1.524 . S
C1521 C1522 1.415 . S
C1522 H1498 0.950 . S
C1522 C1517 1.363 . S
C1522 C1521 1.415 . S
C1523 H1499 0.951 1_554 S
C1523 C1524 1.366 . S
C1523 C1525 1.388 . S
C1524 C1523 1.366 . S
C1524 C1528 1.385 . S
C1525 H1500 0.951 . S
C1525 C1523 1.388 . S
C1525 C1526 1.366 . S
C1526 C1525 1.366 . S
C1526 C1527 1.414 . S
C1526 C1529 1.499 . S
C1527 H1501 0.950 . S
C1527 C1526 1.414 . S
C1527 C1528 1.374 . S
C1528 H1502 0.950 . S
C1528 C1524 1.385 . S
C1528 C1527 1.374 . S
C1529 C1526 1.499 . S
C1529 C1530 1.373 . S
C1529 C1531 1.389 1_545 S
C1530 H1503 0.950 . S
C1530 C1516 1.377 . S
C1530 C1529 1.373 . S
C1531 C1515 1.377 . S
C1531 C1529 1.389 1_565 S
C1531 C1532 1.524 . S
C1532 C1531 1.524 . S
C1532 C1533 1.397 . S
C1532 C1537 1.363 . S
C1533 H1504 0.950 . S
C1533 C1532 1.397 . S
C1533 C1534 1.334 . S
C1534 H1505 0.950 . S
C1534 C1533 1.334 . S
C1534 C1535 1.287 . S
C1535 C1534 1.287 . S
C1535 C1536 1.524 . S
C1535 H1538 0.999 . S
C1536 H1506 0.950 . S
C1536 C1535 1.524 . S
C1536 C1537 1.415 . S
C1537 H1507 0.950 . S
C1537 C1532 1.363 . S
C1537 C1536 1.415 . S
H1538 C1535 0.999 . S
H1539 C1520 0.913 . S
H1540 C1558 0.951 . S
H1541 C1560 0.951 . S
H1542 C1562 0.950 . S
H1543 C1563 0.950 . S
H1544 C1565 0.950 . S
H1545 C1568 0.950 . S
H1546 C1569 0.950 . S
H1547 C1571 0.950 1_556 S
H1548 C1572 0.950 . S
H1549 C1573 0.951 . S
H1550 C1575 0.951 . S
H1551 C1577 0.950 . S
H1552 C1578 0.950 . S
H1553 C1580 0.950 . S
H1554 C1583 0.950 . S
H1555 C1584 0.950 . S
H1556 C1586 0.950 . S
H1557 C1587 0.950 . S
C1558 H1540 0.951 . S
C1558 C1559 1.366 1_556 S
C1558 C1560 1.388 . S
C1559 C1558 1.366 1_554 S
C1559 C1563 1.385 . S
C1560 H1541 0.951 . S
C1560 C1558 1.388 . S
C1560 C1561 1.366 . S
C1561 C1560 1.366 . S
C1561 C1562 1.414 1_556 S
C1561 C1564 1.499 . S
C1562 H1542 0.950 . S
C1562 C1561 1.414 1_554 S
C1562 C1563 1.374 . S
C1563 H1543 0.950 . S
C1563 C1559 1.385 . S
C1563 C1562 1.374 . S
C1564 C1561 1.499 . S
C1564 C1565 1.373 . S
C1564 C1566 1.389 . S
C1565 H1544 0.950 . S
C1565 C1564 1.373 . S
C1565 C1581 1.377 . S
C1566 C1564 1.389 . S
C1566 C1567 1.531 . S
C1566 C1580 1.377 . S
C1567 C1566 1.531 . S
C1567 C1568 1.384 1_556 S
C1567 C1572 1.369 . S
C1568 H1545 0.950 . S
C1568 C1567 1.384 1_554 S
C1568 C1569 1.334 . S
C1569 H1546 0.950 . S
C1569 C1568 1.334 . S
C1569 C1570 1.287 . S
C1570 C1569 1.287 . S
C1570 C1571 1.524 . S
C1570 H1589 0.913 . S
C1571 H1547 0.950 1_554 S
C1571 C1570 1.524 . S
C1571 C1572 1.415 1_554 S
C1572 H1548 0.950 . S
C1572 C1567 1.369 . S
C1572 C1571 1.415 1_556 S
C1573 H1549 0.951 . S
C1573 C1574 1.366 . S
C1573 C1575 1.388 . S
C1574 C1573 1.366 . S
C1574 C1578 1.385 . S
C1575 H1550 0.951 . S
C1575 C1573 1.388 . S
C1575 C1576 1.366 . S
C1576 C1575 1.366 . S
C1576 C1577 1.414 . S
C1576 C1579 1.499 . S
C1577 H1551 0.950 . S
C1577 C1576 1.414 . S
C1577 C1578 1.374 . S
C1578 H1552 0.950 . S
C1578 C1574 1.385 . S
C1578 C1577 1.374 . S
C1579 C1576 1.499 . S
C1579 C1580 1.373 . S
C1579 C1581 1.389 . S
C1580 H1553 0.950 . S
C1580 C1566 1.377 . S
C1580 C1579 1.373 . S
C1581 C1565 1.377 . S
C1581 C1579 1.389 . S
C1581 C1582 1.524 . S
C1582 C1581 1.524 . S
C1582 C1583 1.397 . S
C1582 C1587 1.363 . S
C1583 H1554 0.950 . S
C1583 C1582 1.397 . S
C1583 C1584 1.334 . S
C1584 H1555 0.950 . S
C1584 C1583 1.334 . S
C1584 C1585 1.287 . S
C1585 C1584 1.287 . S
C1585 C1586 1.524 . S
C1585 H1588 0.999 . S
C1586 H1556 0.950 . S
C1586 C1585 1.524 . S
C1586 C1587 1.415 . S
C1587 H1557 0.950 . S
C1587 C1582 1.363 . S
C1587 C1586 1.415 . S
H1588 C1585 0.999 . S
H1589 C1570 0.913 . S
H1590 C1608 0.951 . S
H1591 C1610 0.951 . S
H1592 C1612 0.950 . S
H1593 C1613 0.950 . S
H1594 C1615 0.950 . S
H1595 C1618 0.950 . S
H1596 C1619 0.950 . S
H1597 C1621 0.950 . S
H1598 C1622 0.950 . S
H1599 C1623 0.951 1_556 S
H1600 C1625 0.951 . S
H1601 C1627 0.950 . S
H1602 C1628 0.950 . S
H1603 C1630 0.950 . S
H1604 C1633 0.950 . S
H1605 C1634 0.950 . S
H1606 C1636 0.950 1_556 S
H1607 C1637 0.950 . S
C1608 H1590 0.951 . S
C1608 C1609 1.366 . S
C1608 C1610 1.388 . S
C1609 C1608 1.366 . S
C1609 C1613 1.385 . S
C1610 H1591 0.951 . S
C1610 C1608 1.388 . S
C1610 C1611 1.366 . S
C1611 C1610 1.366 . S
C1611 C1612 1.414 . S
C1611 C1614 1.499 . S
C1612 H1592 0.950 . S
C1612 C1611 1.414 . S
C1612 C1613 1.374 . S
C1613 H1593 0.950 . S
C1613 C1609 1.385 . S
C1613 C1612 1.374 . S
C1614 C1611 1.499 . S
C1614 C1615 1.373 . S
C1614 C1616 1.389 . S
C1615 H1594 0.950 . S
C1615 C1614 1.373 . S
C1615 C1631 1.377 . S
C1616 C1614 1.389 . S
C1616 C1617 1.524 . S
C1616 C1630 1.377 . S
C1617 C1616 1.524 . S
C1617 C1618 1.397 . S
C1617 C1622 1.363 . S
C1618 H1595 0.950 . S
C1618 C1617 1.397 . S
C1618 C1619 1.334 . S
C1619 H1596 0.950 . S
C1619 C1618 1.334 . S
C1619 C1620 1.287 . S
C1620 C1619 1.287 . S
C1620 C1621 1.524 . S
C1620 H1639 0.913 . S
C1621 H1597 0.950 . S
C1621 C1620 1.524 . S
C1621 C1622 1.415 . S
C1622 H1598 0.950 . S
C1622 C1617 1.363 . S
C1622 C1621 1.415 . S
C1623 H1599 0.951 1_554 S
C1623 C1624 1.366 . S
C1623 C1625 1.388 . S
C1624 C1623 1.366 . S
C1624 C1628 1.385 . S
C1625 H1600 0.951 . S
C1625 C1623 1.388 . S
C1625 C1626 1.366 . S
C1626 C1625 1.366 . S
C1626 C1627 1.414 . S
C1626 C1629 1.499 . S
C1627 H1601 0.950 . S
C1627 C1626 1.414 . S
C1627 C1628 1.374 . S
C1628 H1602 0.950 . S
C1628 C1624 1.385 . S
C1628 C1627 1.374 . S
C1629 C1626 1.499 . S
C1629 C1630 1.373 . S
C1629 C1631 1.389 . S
C1630 H1603 0.950 . S
C1630 C1616 1.377 . S
C1630 C1629 1.373 . S
C1631 C1615 1.377 . S
C1631 C1629 1.389 . S
C1631 C1632 1.524 . S
C1632 C1631 1.524 . S
C1632 C1633 1.397 . S
C1632 C1637 1.363 . S
C1633 H1604 0.950 . S
C1633 C1632 1.397 . S
C1633 C1634 1.334 . S
C1634 H1605 0.950 . S
C1634 C1633 1.334 . S
C1634 C1635 1.287 . S
C1635 C1634 1.287 . S
C1635 C1636 1.524 . S
C1635 H1638 0.999 . S
C1636 H1606 0.950 1_554 S
C1636 C1635 1.524 . S
C1636 C1637 1.415 . S
C1637 H1607 0.950 . S
C1637 C1632 1.363 . S
C1637 C1636 1.415 . S
H1638 C1635 0.999 . S
H1639 C1620 0.913 . S
H1640 C1658 0.951 . S
H1641 C1660 0.951 . S
H1642 C1662 0.950 . S
H1643 C1663 0.950 . S
H1644 C1665 0.950 . S
H1645 C1668 0.950 . S
H1646 C1669 0.950 . S
H1647 C1671 0.950 . S
H1648 C1672 0.950 . S
H1649 C1673 0.951 . S
H1650 C1675 0.951 . S
H1651 C1677 0.950 . S
H1652 C1678 0.950 . S
H1653 C1680 0.950 . S
H1654 C1683 0.950 . S
H1655 C1684 0.981 . S
H1656 C1686 0.950 . S
H1657 C1687 0.950 . S
C1658 H1640 0.951 . S
C1658 C1659 1.366 . S
C1658 C1660 1.388 . S
C1659 C1658 1.366 . S
C1659 C1663 1.385 . S
C1660 H1641 0.951 . S
C1660 C1658 1.388 . S
C1660 C1661 1.366 . S
C1661 C1660 1.366 . S
C1661 C1662 1.414 . S
C1661 C1664 1.499 . S
C1662 H1642 0.950 . S
C1662 C1661 1.414 . S
C1662 C1663 1.374 . S
C1663 H1643 0.950 . S
C1663 C1659 1.385 . S
C1663 C1662 1.374 . S
C1664 C1661 1.499 . S
C1664 C1665 1.373 . S
C1664 C1666 1.389 . S
C1665 H1644 0.950 . S
C1665 C1664 1.373 . S
C1665 C1681 1.377 . S
C1666 C1664 1.389 . S
C1666 C1667 1.524 . S
C1666 C1680 1.377 . S
C1667 C1666 1.524 . S
C1667 C1668 1.397 . S
C1667 C1672 1.363 . S
C1668 H1645 0.950 . S
C1668 C1667 1.397 . S
C1668 C1669 1.334 . S
C1669 H1646 0.950 . S
C1669 C1668 1.334 . S
C1669 C1670 1.287 . S
C1670 C1669 1.287 . S
C1670 C1671 1.524 . S
C1670 H1689 0.913 . S
C1671 H1647 0.950 . S
C1671 C1670 1.524 . S
C1671 C1672 1.415 . S
C1672 H1648 0.950 . S
C1672 C1667 1.363 . S
C1672 C1671 1.415 . S
C1673 H1649 0.951 . S
C1673 C1674 1.366 . S
C1673 C1675 1.388 . S
C1674 C1673 1.366 . S
C1674 C1678 1.385 . S
C1675 H1650 0.951 . S
C1675 C1673 1.388 . S
C1675 C1676 1.366 . S
C1676 C1675 1.366 . S
C1676 C1677 1.414 . S
C1676 C1679 1.499 . S
C1677 H1651 0.950 . S
C1677 C1676 1.414 . S
C1677 C1678 1.374 . S
C1678 H1652 0.950 . S
C1678 C1674 1.385 . S
C1678 C1677 1.374 . S
C1679 C1676 1.499 . S
C1679 C1680 1.373 . S
C1679 C1681 1.389 . S
C1680 H1653 0.950 . S
C1680 C1666 1.377 . S
C1680 C1679 1.373 . S
C1681 C1665 1.377 . S
C1681 C1679 1.389 . S
C1681 C1682 1.524 . S
C1682 C1681 1.524 . S
C1682 C1683 1.397 . S
C1682 C1687 1.363 . S
C1683 H1654 0.950 . S
C1683 C1682 1.397 . S
C1683 C1684 1.334 . S
C1684 H1655 0.981 . S
C1684 C1683 1.334 . S
C1684 C1685 1.287 . S
C1685 C1684 1.287 . S
C1685 C1686 1.524 . S
C1685 H1688 0.999 1_655 S
C1686 H1656 0.950 . S
C1686 C1685 1.524 . S
C1686 C1687 1.415 . S
C1687 H1657 0.950 . S
C1687 C1682 1.363 . S
C1687 C1686 1.415 . S
H1688 C1685 0.999 1_455 S
H1689 C1670 0.913 . S
H1690 C1708 0.951 . S
H1691 C1710 0.951 . S
H1692 C1712 0.950 . S
H1693 C1713 0.949 1_545 S
H1694 C1715 0.950 . S
H1695 C1718 0.950 . S
H1696 C1719 0.950 . S
H1697 C1721 0.950 . S
H1698 C1722 0.950 . S
H1699 C1723 0.951 . S
H1700 C1725 0.951 . S
H1701 C1727 0.950 . S
H1702 C1728 0.950 . S
H1703 C1730 0.950 . S
H1704 C1733 0.950 . S
H1705 C1734 0.950 . S
H1706 C1736 0.950 . S
H1707 C1737 0.950 . S
C1708 H1690 0.951 . S
C1708 C1709 1.366 . S
C1708 C1710 1.388 . S
C1709 C1708 1.366 . S
C1709 C1713 1.388 . S
C1710 H1691 0.951 . S
C1710 C1708 1.388 . S
C1710 C1711 1.366 . S
C1711 C1710 1.366 . S
C1711 C1712 1.414 . S
C1711 C1714 1.499 . S
C1712 H1692 0.950 . S
C1712 C1711 1.414 . S
C1712 C1713 1.372 . S
C1713 H1693 0.949 1_565 S
C1713 C1709 1.388 . S
C1713 C1712 1.372 . S
C1714 C1711 1.499 . S
C1714 C1715 1.373 1_565 S
C1714 C1716 1.389 . S
C1715 H1694 0.950 . S
C1715 C1714 1.373 1_545 S
C1715 C1731 1.377 . S
C1716 C1714 1.389 . S
C1716 C1717 1.524 . S
C1716 C1730 1.377 . S
C1717 C1716 1.524 . S
C1717 C1718 1.397 . S
C1717 C1722 1.363 . S
C1718 H1695 0.950 . S
C1718 C1717 1.397 . S
C1718 C1719 1.334 . S
C1719 H1696 0.950 . S
C1719 C1718 1.334 . S
C1719 C1720 1.287 . S
C1720 C1719 1.287 . S
C1720 C1721 1.524 . S
C1720 H1739 0.913 . S
C1721 H1697 0.950 . S
C1721 C1720 1.524 . S
C1721 C1722 1.415 . S
C1722 H1698 0.950 . S
C1722 C1717 1.363 . S
C1722 C1721 1.415 . S
C1723 H1699 0.951 . S
C1723 C1724 1.366 . S
C1723 C1725 1.388 . S
C1724 C1723 1.366 . S
C1724 C1728 1.385 . S
C1725 H1700 0.951 . S
C1725 C1723 1.388 . S
C1725 C1726 1.366 . S
C1726 C1725 1.366 . S
C1726 C1727 1.414 . S
C1726 C1729 1.499 . S
C1727 H1701 0.950 . S
C1727 C1726 1.414 . S
C1727 C1728 1.374 . S
C1728 H1702 0.950 . S
C1728 C1724 1.385 . S
C1728 C1727 1.374 . S
C1729 C1726 1.499 . S
C1729 C1730 1.373 . S
C1729 C1731 1.389 1_565 S
C1730 H1703 0.950 . S
C1730 C1716 1.377 . S
C1730 C1729 1.373 . S
C1731 C1715 1.377 . S
C1731 C1729 1.389 1_545 S
C1731 C1732 1.524 . S
C1732 C1731 1.524 . S
C1732 C1733 1.397 . S
C1732 C1737 1.363 . S
C1733 H1704 0.950 . S
C1733 C1732 1.397 . S
C1733 C1734 1.334 . S
C1734 H1705 0.950 . S
C1734 C1733 1.334 . S
C1734 C1735 1.287 . S
C1735 C1734 1.287 . S
C1735 C1736 1.524 . S
C1735 H1738 0.999 . S
C1736 H1706 0.950 . S
C1736 C1735 1.524 . S
C1736 C1737 1.415 . S
C1737 H1707 0.950 . S
C1737 C1732 1.363 . S
C1737 C1736 1.415 . S
H1738 C1735 0.999 . S
H1739 C1720 0.913 . S
H1740 C1758 0.951 . S
H1741 C1760 0.951 . S
H1742 C1762 0.950 . S
H1743 C1763 0.950 . S
H1744 C1765 0.950 . S
H1745 C1768 0.950 . S
H1746 C1769 0.950 . S
H1747 C1771 0.950 . S
H1748 C1772 0.950 . S
H1749 C1773 0.951 . S
H1750 C1775 0.951 . S
H1751 C1777 0.950 . S
H1752 C1778 0.950 . S
H1753 C1780 0.950 . S
H1754 C1783 0.950 . S
H1755 C1784 0.950 . S
H1756 C1786 0.950 . S
H1757 C1787 0.950 . S
C1758 H1740 0.951 . S
C1758 C1759 1.366 . S
C1758 C1760 1.388 . S
C1759 C1758 1.366 . S
C1759 C1763 1.385 . S
C1760 H1741 0.951 . S
C1760 C1758 1.388 . S
C1760 C1761 1.366 . S
C1761 C1760 1.366 . S
C1761 C1762 1.414 . S
C1761 C1764 1.499 . S
C1762 H1742 0.950 . S
C1762 C1761 1.414 . S
C1762 C1763 1.374 . S
C1763 H1743 0.950 . S
C1763 C1759 1.385 . S
C1763 C1762 1.374 . S
C1764 C1761 1.499 . S
C1764 C1765 1.373 . S
C1764 C1766 1.389 . S
C1765 H1744 0.950 . S
C1765 C1764 1.373 . S
C1765 C1781 1.377 . S
C1766 C1764 1.389 . S
C1766 C1767 1.524 . S
C1766 C1780 1.377 . S
C1767 C1766 1.524 . S
C1767 C1768 1.397 . S
C1767 C1772 1.363 . S
C1768 H1745 0.950 . S
C1768 C1767 1.397 . S
C1768 C1769 1.334 . S
C1769 H1746 0.950 . S
C1769 C1768 1.334 . S
C1769 C1770 1.287 . S
C1770 C1769 1.287 . S
C1770 C1771 1.524 . S
C1770 H1789 0.913 . S
C1771 H1747 0.950 . S
C1771 C1770 1.524 . S
C1771 C1772 1.415 . S
C1772 H1748 0.950 . S
C1772 C1767 1.363 . S
C1772 C1771 1.415 . S
C1773 H1749 0.951 . S
C1773 C1774 1.366 . S
C1773 C1775 1.388 . S
C1774 C1773 1.366 . S
C1774 C1778 1.385 . S
C1775 H1750 0.951 . S
C1775 C1773 1.388 . S
C1775 C1776 1.366 . S
C1776 C1775 1.366 . S
C1776 C1777 1.414 . S
C1776 C1779 1.499 . S
C1777 H1751 0.950 . S
C1777 C1776 1.414 . S
C1777 C1778 1.374 . S
C1778 H1752 0.950 . S
C1778 C1774 1.385 . S
C1778 C1777 1.374 . S
C1779 C1776 1.499 . S
C1779 C1780 1.373 . S
C1779 C1781 1.389 . S
C1780 H1753 0.950 . S
C1780 C1766 1.377 . S
C1780 C1779 1.373 . S
C1781 C1765 1.377 . S
C1781 C1779 1.389 . S
C1781 C1782 1.524 . S
C1782 C1781 1.524 . S
C1782 C1783 1.397 . S
C1782 C1787 1.363 . S
C1783 H1754 0.950 . S
C1783 C1782 1.397 . S
C1783 C1784 1.334 . S
C1784 H1755 0.950 . S
C1784 C1783 1.334 . S
C1784 C1785 1.287 . S
C1785 C1784 1.287 . S
C1785 C1786 1.524 . S
C1785 H1788 0.999 . S
C1786 H1756 0.950 . S
C1786 C1785 1.524 . S
C1786 C1787 1.415 . S
C1787 H1757 0.950 . S
C1787 C1782 1.363 . S
C1787 C1786 1.415 . S
H1788 C1785 0.999 . S
H1789 C1770 0.913 . S
H1790 C1808 0.951 . S
H1791 C1810 0.951 . S
H1792 C1812 0.950 . S
H1793 C1813 0.950 . S
H1794 C1815 0.950 . S
H1795 C1818 0.950 . S
H1796 C1819 0.950 . S
H1797 C1821 0.950 . S
H1798 C1822 0.950 . S
H1799 C1823 0.951 . S
H1800 C1825 0.951 . S
H1801 C1827 0.950 . S
H1802 C1828 0.950 . S
H1803 C1830 0.950 . S
H1804 C1833 0.950 . S
H1805 C1834 0.950 . S
H1806 C1836 0.950 . S
H1807 C1837 0.950 . S
C1808 H1790 0.951 . S
C1808 C1809 1.366 . S
C1808 C1810 1.388 . S
C1809 C1808 1.366 . S
C1809 C1813 1.385 . S
C1810 H1791 0.951 . S
C1810 C1808 1.388 . S
C1810 C1811 1.366 . S
C1811 C1810 1.366 . S
C1811 C1812 1.414 . S
C1811 C1814 1.499 . S
C1812 H1792 0.950 . S
C1812 C1811 1.414 . S
C1812 C1813 1.374 . S
C1813 H1793 0.950 . S
C1813 C1809 1.385 . S
C1813 C1812 1.374 . S
C1814 C1811 1.499 . S
C1814 C1815 1.373 . S
C1814 C1816 1.389 . S
C1815 H1794 0.950 . S
C1815 C1814 1.373 . S
C1815 C1831 1.377 . S
C1816 C1814 1.389 . S
C1816 C1817 1.524 . S
C1816 C1830 1.377 . S
C1817 C1816 1.524 . S
C1817 C1818 1.397 . S
C1817 C1822 1.363 . S
C1818 H1795 0.950 . S
C1818 C1817 1.397 . S
C1818 C1819 1.334 . S
C1819 H1796 0.950 . S
C1819 C1818 1.334 . S
C1819 C1820 1.287 . S
C1820 C1819 1.287 . S
C1820 C1821 1.524 . S
C1820 H1839 0.913 . S
C1821 H1797 0.950 . S
C1821 C1820 1.524 . S
C1821 C1822 1.415 . S
C1822 H1798 0.950 . S
C1822 C1817 1.363 . S
C1822 C1821 1.415 . S
C1823 H1799 0.951 . S
C1823 C1824 1.366 . S
C1823 C1825 1.388 . S
C1824 C1823 1.366 . S
C1824 C1828 1.385 . S
C1825 H1800 0.951 . S
C1825 C1823 1.388 . S
C1825 C1826 1.366 . S
C1826 C1825 1.366 . S
C1826 C1827 1.414 . S
C1826 C1829 1.499 . S
C1827 H1801 0.950 . S
C1827 C1826 1.414 . S
C1827 C1828 1.374 . S
C1828 H1802 0.950 . S
C1828 C1824 1.385 . S
C1828 C1827 1.374 . S
C1829 C1826 1.499 . S
C1829 C1830 1.373 . S
C1829 C1831 1.389 . S
C1830 H1803 0.950 . S
C1830 C1816 1.377 . S
C1830 C1829 1.373 . S
C1831 C1815 1.377 . S
C1831 C1829 1.389 . S
C1831 C1832 1.524 . S
C1832 C1831 1.524 . S
C1832 C1833 1.397 . S
C1832 C1837 1.363 . S
C1833 H1804 0.950 . S
C1833 C1832 1.397 . S
C1833 C1834 1.334 . S
C1834 H1805 0.950 . S
C1834 C1833 1.334 . S
C1834 C1835 1.287 . S
C1835 C1834 1.287 . S
C1835 C1836 1.524 . S
C1835 H1838 0.999 . S
C1836 H1806 0.950 . S
C1836 C1835 1.524 . S
C1836 C1837 1.415 . S
C1837 H1807 0.950 . S
C1837 C1832 1.363 . S
C1837 C1836 1.415 . S
H1838 C1835 0.999 . S
H1839 C1820 0.913 . S
C659 C391 0.795 . S
C674 C489 0.787 . S
C724 C529 1.751 . S
C709 C451 1.885 . S
C774 C578 1.637 . S
C759 C241 1.648 . S
C824 C609 2.114 . S
C809 C331 2.016 . S
C874 C498 0.786 . S
C859 C121 0.790 1_545 S
C909 C211 1.808 . S
C924 C538 1.755 . S
C959 C31 1.672 1_556 S
C974 C569 1.636 . S
C1009 C91 2.121 1_556 S
C1024 C618 2.070 1_655 S
C1074 C499 1.068 . S
C1059 C301 0.885 . S
C1124 C539 0.405 . S
C1109 C380 0.477 . S
C1174 C575 0.401 . S
C1159 C440 0.397 . S
C1209 C260 1.067 . S
C1224 C619 1.213 . S
C1259 C61 0.953 . S
C1274 C490 1.074 1_655 S
C1324 C530 0.406 . S
C1309 C140 0.668 . S
C1374 C566 0.399 . S
C1359 C200 0.497 . S
C1409 C20 1.182 . S
C1424 C610 1.213 . S
C1459 C320 2.132 . S
C1474 C495 2.219 1_554 S
C1509 C361 1.578 . S
C1524 C535 1.723 1_554 S
C1574 C579 2.761 . S
C1559 C421 2.378 . S
C1624 C615 1.783 1_554 S
C1609 C271 1.778 . S
C1659 C80 2.199 . S
C1674 C486 2.231 . S
C1724 C526 1.723 . S
C1709 C151 1.713 . S
C1774 C570 2.761 . S
C1759 C181 2.295 . S
C1809 C1 1.654 . S
C1824 C606 1.784 . S
