# Generated by pormake.
# Topology rtl, (3,6)-cn, num edge types: 1
# Building blocks:
#     Node 0, Type 0, BuildingBlock: CUQRIR_clean_linker_1, # of connection points: 3
#     Node 1, Type 0, BuildingBlock: CUQRIR_clean_linker_1, # of connection points: 3
#     Node 2, Type 0, BuildingBlock: CUQRIR_clean_linker_1, # of connection points: 3
#     Node 3, Type 0, BuildingBlock: CUQRIR_clean_linker_1, # of connection points: 3
#     Node 4, Type 1, BuildingBlock: KUMBUR_clean_sbu_1, # of connection points: 6
#     Node 5, Type 1, BuildingBlock: KUMBUR_clean_sbu_1, # of connection points: 6
#     Edge 6, Type (0, 1), BuildingBlock: ZUJKAS_clean_linker_0, # of connection points: 2
#     Edge 7, Type (0, 1), BuildingBlock: ZUJKAS_clean_linker_0, # of connection points: 2
#     Edge 8, Type (0, 1), BuildingBlock: ZUJKAS_clean_linker_0, # of connection points: 2
#     Edge 9, Type (0, 1), BuildingBlock: ZUJKAS_clean_linker_0, # of connection points: 2
#     Edge 10, Type (0, 1), BuildingBlock: ZUJKAS_clean_linker_0, # of connection points: 2
#     Edge 11, Type (0, 1), BuildingBlock: ZUJKAS_clean_linker_0, # of connection points: 2
#     Edge 12, Type (0, 1), BuildingBlock: ZUJKAS_clean_linker_0, # of connection points: 2
#     Edge 13, Type (0, 1), BuildingBlock: ZUJKAS_clean_linker_0, # of connection points: 2
#     Edge 14, Type (0, 1), BuildingBlock: ZUJKAS_clean_linker_0, # of connection points: 2
#     Edge 15, Type (0, 1), BuildingBlock: ZUJKAS_clean_linker_0, # of connection points: 2
#     Edge 16, Type (0, 1), BuildingBlock: ZUJKAS_clean_linker_0, # of connection points: 2
#     Edge 17, Type (0, 1), BuildingBlock: ZUJKAS_clean_linker_0, # of connection points: 2
# Relax obj value: 0.062
# Max RMSD: 0.212
# Mean RMSD: 0.168
data_MOF--net-rtl--node1-KUMBUR_clean_sbu_1--node2-CUQRIR_clean_linker_1--edge1-ZUJKAS_clean_linker_0
_symmetry_space_group_name_H-M    P1
_symmetry_Int_Tables_number       1
_symmetry_cell_setting            triclinic
loop_
_symmetry_equiv_pos_as_xyz
'x, y, z'
_cell_length_a     43.348609
_cell_length_b     43.428756
_cell_length_c     32.129231
_cell_angle_alpha  79.667448
_cell_angle_beta   99.008843
_cell_angle_gamma 90.776373
loop_
_atom_site_label
_atom_site_type_symbol
_atom_site_fract_x
_atom_site_fract_y
_atom_site_fract_z
_atom_type_partial_charge
C0 C 0.23165 0.81007 0.99601 0.0
N1 N 0.21071 0.82917 1.00634 0.0
N2 N 0.2458 0.79055 0.03134 0.0
C3 C 0.23632 0.80859 0.95092 0.0
C4 C 0.23239 0.79826 0.06359 0.0
N5 N 0.21081 0.82162 0.04837 0.0
C6 C 0.24213 0.78462 0.11019 0.0
H7 H 0.24421 0.78489 0.94841 0.0
H8 H 0.2544 0.82564 0.94157 0.0
H9 H 0.2144 0.81475 0.92808 0.0
H10 H 0.26667 0.77593 0.1164 0.0
H11 H 0.22685 0.76464 0.11927 0.0
H12 H 0.23972 0.80228 0.13057 0.0
C13 C 0.72334 0.71971 0.66094 0.0
N14 N 0.70251 0.69722 0.65163 0.0
N15 N 0.73879 0.73004 0.62753 0.0
C16 C 0.73058 0.72971 0.70383 0.0
C17 C 0.72664 0.71301 0.59759 0.0
N18 N 0.70497 0.69285 0.61228 0.0
C19 C 0.7341 0.71792 0.55264 0.0
H20 H 0.71465 0.74935 0.70447 0.0
H21 H 0.75498 0.73786 0.70958 0.0
H22 H 0.72706 0.71019 0.73002 0.0
H23 H 0.75311 0.70143 0.55139 0.0
H24 H 0.74196 0.74216 0.54263 0.0
H25 H 0.71342 0.71333 0.52961 0.0
C26 C 0.80282 0.21685 0.08781 0.0
N27 N 0.82174 0.1952 0.07835 0.0
N28 N 0.78851 0.23532 0.05168 0.0
C29 C 0.79884 0.22075 0.13236 0.0
C30 C 0.79959 0.22456 0.01978 0.0
N31 N 0.82017 0.20046 0.03589 0.0
C32 C 0.7901 0.2375 0.97289 0.0
H33 H 0.77921 0.20611 0.14238 0.0
H34 H 0.79314 0.24533 0.13352 0.0
H35 H 0.82036 0.21348 0.15555 0.0
H36 H 0.80701 0.2556 0.96266 0.0
H37 H 0.76657 0.24863 0.96646 0.0
H38 H 0.79031 0.21877 0.95355 0.0
C39 C 0.30087 0.2973 0.42361 0.0
N40 N 0.32239 0.31935 0.43231 0.0
N41 N 0.28623 0.28695 0.45788 0.0
C42 C 0.29211 0.28789 0.38051 0.0
C43 C 0.29962 0.30361 0.48768 0.0
N44 N 0.3212 0.32343 0.47212 0.0
C45 C 0.2932 0.29906 0.5331 0.0
H46 H 0.26741 0.28048 0.37566 0.0
H47 H 0.30721 0.2679 0.37869 0.0
H48 H 0.29555 0.30749 0.35439 0.0
H49 H 0.2855 0.27486 0.5438 0.0
H50 H 0.27442 0.31566 0.53485 0.0
H51 H 0.31426 0.30388 0.5553 0.0
Tb52 Tb 0.03683 0.97782 0.51929 0.0
C53 C 0.93907 0.08133 0.50357 0.0
N54 N 0.9692 0.08122 0.52291 0.0
C55 C 0.97454 0.13434 0.4885 0.0
C56 C 0.92578 0.10755 0.47411 0.0
C57 C 0.98671 0.10756 0.51718 0.0
C58 C 0.94408 0.13418 0.46635 0.0
C59 C 0.88948 0.05508 0.49723 0.0
C60 C 0.92132 0.05552 0.51502 0.0
C61 C 0.8765 0.08024 0.46572 0.0
C62 C 0.89461 0.10651 0.45428 0.0
Tb63 Tb 0.9872 0.03688 0.5693 0.0
N64 N 0.93459 0.0322 0.54649 0.0
C65 C 0.87134 0.03018 0.51325 0.0
C66 C 0.91603 0.01 0.56549 0.0
C67 C 0.88452 0.00794 0.54826 0.0
H68 H 0.01015 0.10773 0.53442 0.0
H69 H 0.87027 0.98962 0.56262 0.0
H70 H 0.99282 0.91341 0.5188 0.0
H71 H 0.15831 0.98694 0.58404 0.0
H72 H 0.92518 0.9941 0.59448 0.0
H73 H 0.84679 0.02889 0.50044 0.0
H74 H 0.10878 0.0036 0.53575 0.0
H75 H 0.98866 0.15501 0.48341 0.0
H76 H 0.85218 0.08016 0.45128 0.0
H77 H 0.88405 0.1262 0.43101 0.0
H78 H 0.99104 0.86182 0.56485 0.0
H79 H 0.93473 0.15488 0.44403 0.0
H80 H 0.16084 0.93729 0.63636 0.0
N81 N 0.03374 0.92771 0.5562 0.0
C82 C 0.05897 0.9175 0.58613 0.0
C83 C 0.01 0.87751 0.57183 0.0
C84 C 0.05987 0.88751 0.61189 0.0
C85 C 0.01064 0.9072 0.54647 0.0
C86 C 0.03438 0.86788 0.60541 0.0
N87 N 0.08361 0.96439 0.5618 0.0
C88 C 0.10977 0.98202 0.55865 0.0
C89 C 0.11269 0.92567 0.61639 0.0
C90 C 0.08508 0.93617 0.58832 0.0
C91 C 0.13914 0.94451 0.61529 0.0
C92 C 0.13779 0.97258 0.58582 0.0
H93 H 0.0341 0.84468 0.62456 0.0
H94 H 0.08771 0.85473 0.66213 0.0
H95 H 0.13395 0.88827 0.66623 0.0
O96 O 0.05384 0.99218 0.46074 0.0
O97 O 0.05302 0.99203 0.58162 0.0
O98 O 0.00859 0.99467 0.61051 0.0
O99 O 0.05143 0.94376 0.48726 0.0
O100 O 0.05251 0.02674 0.50973 0.0
O101 O 0.03523 0.05208 0.56085 0.0
O102 O 0.96015 0.05324 0.61037 0.0
O103 O 0.99198 0.04639 0.5008 0.0
O104 O 0.99244 0.99767 0.48275 0.0
O105 O 0.00921 0.06152 0.61629 0.0
O106 O 0.97685 0.98634 0.581 0.0
O107 O 0.98678 0.96768 0.52126 0.0
C108 C 0.03805 0.98658 0.61458 0.0
C109 C 0.04354 0.95677 0.41242 0.0
C110 C 0.04921 0.94391 0.34269 0.0
C111 C 0.01647 0.94203 0.33334 0.0
C112 C 0.01113 0.95377 0.4027 0.0
C113 C 0.99766 0.94687 0.36317 0.0
C114 C 0.06263 0.95151 0.38254 0.0
C115 C 0.05376 0.04969 0.53221 0.0
C116 C 0.05738 0.96376 0.45458 0.0
C117 C 0.08673 0.87754 0.64168 0.0
C118 C 0.11312 0.89659 0.6439 0.0
C119 C 0.98572 0.02777 0.47254 0.0
C120 C 0.98691 0.05326 0.6802 0.0
C121 C 0.97044 0.0569 0.74887 0.0
C122 C 0.99124 0.03214 0.76889 0.0
C123 C 0.00766 0.02885 0.70128 0.0
C124 C 0.96847 0.06746 0.70425 0.0
C125 C 0.00973 0.01835 0.74525 0.0
C126 C 0.9713 0.96671 0.55379 0.0
C127 C 0.9841 0.06351 0.63321 0.0
H128 H 1.00537 0.93587 0.30339 0.0
H129 H 0.99635 0.95625 0.42611 0.0
H130 H 0.97257 0.94474 0.35589 0.0
H131 H 0.08776 0.95322 0.39037 0.0
H132 H 0.99364 0.02376 0.8031 0.0
H133 H 0.02239 0.01797 0.68378 0.0
H134 H 0.95238 0.08633 0.68821 0.0
H135 H 0.02585 0.99949 0.7611 0.0
Tb136 Tb 0.48301 0.48607 1.0023 0.0
C137 C 0.59653 0.56489 0.03967 0.0
N138 N 0.589 0.53523 0.05668 0.0
C139 C 0.63882 0.51659 0.04683 0.0
C140 C 0.62458 0.5711 0.02283 0.0
C141 C 0.61084 0.51174 0.06344 0.0
C142 C 0.64544 0.54627 0.02557 0.0
C143 C 0.58291 0.62027 0.02216 0.0
C144 C 0.57622 0.58927 0.03981 0.0
C145 C 0.61045 0.62644 1.00441 0.0
C146 C 0.63123 0.60191 1.00471 0.0
Tb147 Tb 0.54197 0.5306 0.08155 0.0
N148 N 0.54916 0.58225 0.05564 0.0
C149 C 0.5614 0.64402 0.02222 0.0
C150 C 0.52834 0.60538 0.05646 0.0
C151 C 0.53408 0.63655 0.03965 0.0
H152 H 0.6076 0.48956 0.08306 0.0
H153 H 0.51746 0.65478 0.0402 0.0
H154 H 0.41786 0.52737 1.00306 0.0
H155 H 0.50742 0.36188 0.04202 0.0
H156 H 0.50753 0.59989 0.07065 0.0
H157 H 0.56567 0.66816 1.00894 0.0
H158 H 0.51743 0.41692 0.01234 0.0
H159 H 0.65561 0.49758 0.05139 0.0
H160 H 0.61592 0.65008 0.99041 0.0
H161 H 0.65254 0.60707 0.99129 0.0
H162 H 0.37009 0.51898 0.03516 0.0
H163 H 0.66725 0.55003 0.01304 0.0
H164 H 0.45931 0.34827 0.0734 0.0
N165 N 0.43621 0.48133 0.02782 0.0
C166 C 0.42864 0.45158 0.04438 0.0
C167 C 0.38673 0.49993 0.03899 0.0
C168 C 0.40074 0.44526 0.06158 0.0
C169 C 0.41459 0.50493 0.02208 0.0
C170 C 0.38007 0.47009 0.05967 0.0
N171 N 0.47581 0.43436 0.02766 0.0
C172 C 0.4966 0.41131 0.02645 0.0
C173 C 0.44215 0.39617 0.06095 0.0
C174 C 0.44883 0.42725 0.04364 0.0
C175 C 0.46357 0.37246 0.06038 0.0
C176 C 0.49083 0.38007 0.04288 0.0
H177 H 0.35837 0.46624 0.07248 0.0
H178 H 0.37291 0.40912 0.09304 0.0
H179 H 0.40928 0.36617 0.09275 0.0
O180 O 0.47673 0.45917 0.95307 0.0
O181 O 0.49288 0.46605 0.07154 0.0
O182 O 0.50133 0.50785 0.10658 0.0
O183 O 0.45154 0.50223 0.94588 0.0
O184 O 0.53257 0.47406 1.00969 0.0
O185 O 0.55255 0.48126 0.07863 0.0
O186 O 0.54902 0.55823 0.12986 0.0
O187 O 0.53233 0.55046 0.01222 0.0
O188 O 0.52344 0.50883 0.97687 0.0
O189 O 0.57232 0.51397 0.13898 0.0
O190 O 0.49238 0.54241 0.07408 0.0
O191 O 0.47274 0.53554 1.00494 0.0
C192 C 0.49026 0.47975 0.10416 0.0
C193 C 0.46567 0.4886 0.88321 0.0
C194 C 0.46174 0.47945 0.8093 0.0
C195 C 0.48057 0.50577 0.80029 0.0
C196 C 0.48436 0.51466 0.87314 0.0
C197 C 0.49179 0.52309 0.83198 0.0
C198 C 0.45439 0.47104 0.85121 0.0
C199 C 0.55264 0.46706 0.04545 0.0
C200 C 0.45808 0.47954 0.92703 0.0
C201 C 0.39409 0.41436 0.07932 0.0
C202 C 0.41473 0.38988 0.07897 0.0
C203 C 0.53485 0.53675 0.97957 0.0
C204 C 0.55827 0.52993 0.20031 0.0
C205 C 0.56155 0.54095 0.27313 0.0
C206 C 0.53981 0.51719 0.28158 0.0
C207 C 0.53703 0.50605 0.20997 0.0
C208 C 0.57074 0.54718 0.23216 0.0
C209 C 0.52779 0.49988 0.25025 0.0
C210 C 0.47264 0.54979 0.03809 0.0
C211 C 0.56667 0.5375 0.15681 0.0
H212 H 0.48624 0.5134 0.76844 0.0
H213 H 0.49304 0.52866 0.897 0.0
H214 H 0.50615 0.54331 0.82451 0.0
H215 H 0.44021 0.45073 0.85913 0.0
H216 H 0.5325 0.5116 0.31276 0.0
H217 H 0.52761 0.49214 0.18639 0.0
H218 H 0.58715 0.56568 0.22486 0.0
H219 H 0.51128 0.48152 0.25724 0.0
H220 H 0.23141 0.29256 0.48639 0.0
H221 H 0.19251 0.25189 0.49929 0.0
H222 H 0.24656 0.18835 0.44942 0.0
H223 H 0.28636 0.22854 0.43902 0.0
H224 H 0.15481 0.22119 0.44961 0.0
H225 H 0.2353 0.1342 0.55974 0.0
H226 H 0.24664 0.17398 0.54259 0.0
H227 H 0.2476 0.1454 0.50849 0.0
C228 C 0.2351 0.26977 0.47868 0.0
C229 C 0.26214 0.26361 0.46224 0.0
C230 C 0.21276 0.24655 0.48578 0.0
C231 C 0.21676 0.21659 0.47637 0.0
C232 C 0.24322 0.21082 0.45829 0.0
H233 H 0.0969 0.05368 0.47718 0.0
H234 H 0.13586 0.09404 0.46435 0.0
C235 C 0.26577 0.23397 0.45167 0.0
C236 C 0.19312 0.19168 0.48518 0.0
H237 H 0.18451 0.11632 0.53595 0.0
C238 C 0.1614 0.19836 0.46871 0.0
C239 C 0.20141 0.16177 0.51038 0.0
C240 C 0.23453 0.15347 0.53169 0.0
C241 C 0.13808 0.17599 0.47609 0.0
C242 C 0.14652 0.14604 0.5005 0.0
C243 C 0.1781 0.13926 0.51703 0.0
C244 C 0.12284 0.1214 0.50895 0.0
C245 C 0.1045 0.18426 0.45731 0.0
C246 C 0.10269 0.12313 0.53872 0.0
C247 C 0.08049 0.09982 0.54663 0.0
C248 C 0.07772 0.07436 0.52461 0.0
C249 C 0.09814 0.07279 0.49486 0.0
C250 C 0.12052 0.09591 0.48737 0.0
H251 H 0.1021 0.20716 0.43508 0.0
H252 H 0.09404 0.16583 0.43981 0.0
H253 H 0.09093 0.18542 0.48358 0.0
H254 H 0.10423 0.14248 0.55601 0.0
H255 H 0.0655 0.10185 0.57 0.0
H256 H 0.3003 0.79838 1.00052 0.0
H257 H 0.33878 0.75764 0.99957 0.0
H258 H 0.28324 0.68858 0.06715 0.0
H259 H 0.24431 0.7293 0.0668 0.0
H260 H 0.37456 0.71862 0.06442 0.0
H261 H 0.29559 0.64907 0.96532 0.0
H262 H 0.28563 0.68808 0.97134 0.0
H263 H 0.28105 0.65515 0.0126 0.0
C264 C 0.29637 0.77445 0.01497 0.0
C265 C 0.26934 0.76686 0.03349 0.0
C266 C 0.31833 0.75122 0.01455 0.0
C267 C 0.31367 0.71989 0.03256 0.0
C268 C 0.28704 0.71243 0.05217 0.0
H269 H 0.45313 0.571 0.10467 0.0
H270 H 0.41512 0.61253 0.10176 0.0
C271 C 0.26502 0.73569 0.05248 0.0
C272 C 0.33689 0.69522 0.03122 0.0
H273 H 0.34503 0.62584 0.99742 0.0
C274 C 0.3681 0.6984 0.04964 0.0
C275 C 0.32865 0.66907 0.01125 0.0
C276 C 0.29598 0.6652 0.98861 0.0
C277 C 0.39106 0.67585 0.04954 0.0
C278 C 0.38254 0.64904 0.0312 0.0
C279 C 0.35151 0.64622 0.01185 0.0
C280 C 0.40539 0.62345 0.03256 0.0
C281 C 0.42436 0.68119 0.06864 0.0
C282 C 0.412 0.61501 0.99459 0.0
C283 C 0.43376 0.59105 0.99612 0.0
C284 C 0.44916 0.57495 0.0357 0.0
C285 C 0.44205 0.58316 0.0736 0.0
C286 C 0.42035 0.60701 0.07203 0.0
H287 H 0.42864 0.70632 0.06985 0.0
H288 H 0.42911 0.66792 0.10192 0.0
H289 H 0.44113 0.67295 0.05004 0.0
H290 H 0.40059 0.62723 0.96375 0.0
H291 H 0.4387 0.58529 0.96638 0.0
H292 H 0.79536 0.72308 0.60492 0.0
H293 H 0.83499 0.76324 0.59379 0.0
H294 H 0.77702 0.82967 0.6322 0.0
H295 H 0.73682 0.78956 0.64183 0.0
H296 H 0.80038 0.85529 0.56047 0.0
H297 H 0.89685 0.79692 0.68114 0.0
H298 H 0.88138 0.77277 0.64323 0.0
H299 H 0.85706 0.78378 0.67888 0.0
C300 C 0.79119 0.74626 0.61107 0.0
C301 C 0.76306 0.75322 0.62427 0.0
C302 C 0.81397 0.76915 0.60511 0.0
C303 C 0.80937 0.79951 0.61275 0.0
C304 C 0.7813 0.80644 0.62628 0.0
H305 H 0.95434 0.94015 0.63039 0.0
H306 H 0.91475 0.9005 0.64386 0.0
C307 C 0.75843 0.7835 0.63211 0.0
C308 C 0.83331 0.8242 0.60515 0.0
H309 H 0.91065 0.84056 0.63136 0.0
C310 C 0.82445 0.85209 0.57615 0.0
C311 C 0.86473 0.82038 0.62591 0.0
C312 C 0.87555 0.792 0.65935 0.0
C313 C 0.84613 0.87585 0.56682 0.0
C314 C 0.8778 0.87147 0.5863 0.0
C315 C 0.88653 0.84384 0.61589 0.0
C316 C 0.90205 0.8956 0.57753 0.0
C317 C 0.8347 0.90573 0.53682 0.0
C318 C 0.90862 0.90592 0.53578 0.0
C319 C 0.93119 0.92884 0.52795 0.0
C320 C 0.94786 0.94178 0.56173 0.0
C321 C 0.9417 0.93094 0.60355 0.0
C322 C 0.91913 0.90813 0.61134 0.0
H323 H 0.80902 0.90894 0.53405 0.0
H324 H 0.84638 0.92643 0.54775 0.0
H325 H 0.8401 0.90482 0.50443 0.0
H326 H 0.89636 0.89618 0.50921 0.0
H327 H 0.93543 0.93663 0.4954 0.0
H328 H 0.79847 0.29256 0.07178 0.0
H329 H 0.7586 0.33224 0.0723 0.0
H330 H 0.68683 0.27224 0.02367 0.0
H331 H 0.72681 0.23233 0.02465 0.0
H332 H 0.71687 0.36516 0.0105 0.0
H333 H 0.65356 0.29061 0.12706 0.0
H334 H 0.69123 0.2796 0.1167 0.0
H335 H 0.65627 0.27346 0.08094 0.0
C336 C 0.77413 0.2881 0.06118 0.0
C337 C 0.76546 0.25957 0.04839 0.0
C338 C 0.75139 0.31064 0.06146 0.0
C339 C 0.71956 0.30501 0.04892 0.0
C340 C 0.71108 0.27684 0.03463 0.0
H341 H 0.57112 0.44541 0.9784 0.0
H342 H 0.61152 0.40638 0.98054 0.0
C343 C 0.73383 0.25423 0.03468 0.0
C344 C 0.69537 0.32869 0.05054 0.0
H345 H 0.62846 0.33867 0.09096 0.0
C346 C 0.69762 0.35936 0.02825 0.0
C347 C 0.67053 0.3214 0.07439 0.0
C348 C 0.66786 0.28958 0.1015 0.0
C349 C 0.67541 0.38266 0.02829 0.0
C350 C 0.64974 0.37496 0.0504 0.0
C351 C 0.64789 0.34451 0.07357 0.0
C352 C 0.62444 0.39809 0.04949 0.0
C353 C 0.67998 0.41546 1.00518 0.0
C354 C 0.61726 0.40563 0.08768 0.0
C355 C 0.59372 0.42772 0.08664 0.0
C356 C 0.5769 0.44271 0.04733 0.0
C357 C 0.58368 0.4345 1.00926 0.0
C358 C 0.60704 0.41236 0.01036 0.0
H359 H 0.70481 0.41965 1.00136 0.0
H360 H 0.66589 0.41886 0.9727 0.0
H361 H 0.67232 0.43323 0.02249 0.0
H362 H 0.63015 0.3947 0.11832 0.0
H363 H 0.58887 0.43325 0.11655 0.0
H364 H 0.17368 0.79338 0.10329 0.0
H365 H 0.14643 0.81788 0.15061 0.0
H366 H 0.17912 0.9083 0.09667 0.0
H367 H 0.20709 0.88345 0.05003 0.0
H368 H 0.18791 0.89765 0.1856 0.0
H369 H 0.06638 0.8704 0.12178 0.0
H370 H 0.09161 0.83649 0.13658 0.0
H371 H 0.09864 0.86704 0.09342 0.0
C372 C 0.17484 0.81849 0.10149 0.0
C373 C 0.19244 0.83657 0.07316 0.0
C374 C 0.1591 0.83253 0.12825 0.0
C375 C 0.1604 0.86503 0.12697 0.0
C376 C 0.17765 0.88321 0.09816 0.0
H377 H 0.0398 0.96306 0.2556 0.0
H378 H 0.06824 0.94633 0.20334 0.0
C379 C 0.1934 0.86911 0.07133 0.0
C380 C 0.14475 0.87971 0.15689 0.0
H381 H 0.0742 0.88762 0.18904 0.0
C382 C 0.163 0.89566 0.18615 0.0
C383 C 0.1122 0.87747 0.15738 0.0
C384 C 0.09099 0.8622 0.12534 0.0
C385 C 0.14974 0.9087 0.21651 0.0
C386 C 0.11739 0.9053 0.21817 0.0
C387 C 0.09905 0.89002 0.18817 0.0
C388 C 0.1019 0.91739 0.25053 0.0
C389 C 0.17048 0.92633 0.24614 0.0
C390 C 0.11146 0.90704 0.2947 0.0
C391 C 0.09523 0.9167 0.32477 0.0
C392 C 0.06883 0.9366 0.3113 0.0
C393 C 0.05981 0.94747 0.26711 0.0
C394 C 0.07609 0.93795 0.23714 0.0
H395 H 0.1919 0.93466 0.23286 0.0
H396 H 0.15794 0.9468 0.25224 0.0
H397 H 0.17785 0.91053 0.27723 0.0
H398 H 0.13084 0.89065 0.30594 0.0
H399 H 0.10254 0.9075 0.35846 0.0
H400 H 0.66224 0.72152 0.69377 0.0
H401 H 0.63286 0.69306 0.74762 0.0
H402 H 0.66767 0.60553 0.72639 0.0
H403 H 0.69796 0.63422 0.67358 0.0
H404 H 0.58702 0.64979 0.74502 0.0
H405 H 0.69195 0.59686 0.8548 0.0
H406 H 0.69446 0.62769 0.8097 0.0
H407 H 0.68853 0.58792 0.80187 0.0
C408 C 0.66361 0.6962 0.70073 0.0
C409 C 0.68263 0.6801 0.67986 0.0
C410 C 0.64673 0.67992 0.73139 0.0
C411 C 0.64849 0.64707 0.742 0.0
C412 C 0.66647 0.63086 0.71974 0.0
H413 H 0.56549 0.51049 0.92618 0.0
H414 H 0.59223 0.53711 0.86825 0.0
C415 C 0.68344 0.64721 0.68911 0.0
C416 C 0.63173 0.63007 0.77654 0.0
H417 H 0.64284 0.58011 0.87331 0.0
C418 C 0.59929 0.63462 0.77307 0.0
C419 C 0.6476 0.61026 0.81343 0.0
C420 C 0.68259 0.60556 0.82053 0.0
C421 C 0.58236 0.61968 0.80491 0.0
C422 C 0.59825 0.59991 0.84169 0.0
C423 C 0.63062 0.5952 0.84513 0.0
C424 C 0.58171 0.58388 0.87692 0.0
C425 C 0.54746 0.62473 0.79857 0.0
C426 C 0.56699 0.6012 0.90146 0.0
C427 C 0.55162 0.586 0.93461 0.0
C428 C 0.55084 0.55313 0.94421 0.0
C429 C 0.56559 0.53584 0.9196 0.0
C430 C 0.581 0.55104 0.88655 0.0
H431 H 0.53786 0.63444 0.76469 0.0
H432 H 0.5355 0.60245 0.80851 0.0
H433 H 0.54194 0.64156 0.81868 0.0
H434 H 0.5675 0.62653 0.89513 0.0
H435 H 0.54007 0.6 0.95243 0.0
H436 H 0.8009 0.15531 0.14184 0.0
H437 H 0.83244 0.12343 0.20307 0.0
H438 H 0.91427 0.14312 0.14193 0.0
H439 H 0.88315 0.17944 0.08384 0.0
H440 H 0.8625 0.0765 0.22413 0.0
H441 H 0.9517 0.16689 0.24765 0.0
H442 H 0.91751 0.17468 0.20765 0.0
H443 H 0.95099 0.15461 0.19729 0.0
C444 C 0.82577 0.15332 0.14194 0.0
C445 C 0.83971 0.17092 0.10896 0.0
C446 C 0.84388 0.13461 0.17678 0.0
C447 C 0.87636 0.13159 0.17864 0.0
C448 C 0.88974 0.1463 0.14299 0.0
H449 H 0.96115 0.99678 0.40764 0.0
H450 H 0.9394 0.01922 0.3341 0.0
C451 C 0.87176 0.16647 0.10904 0.0
C452 C 0.89561 0.11394 0.21855 0.0
H453 H 0.9609 0.1178 0.29235 0.0
C454 C 0.88382 0.08591 0.23919 0.0
C455 C 0.92353 0.12587 0.23893 0.0
C456 C 0.93648 0.1573 0.22198 0.0
C457 C 0.89779 0.07064 0.28005 0.0
C458 C 0.92635 0.08188 0.29961 0.0
C459 C 0.93906 0.10895 0.27789 0.0
C460 C 0.94246 0.06749 0.34351 0.0
C461 C 0.88037 0.04393 0.3025 0.0
C462 C 0.95426 0.08675 0.37303 0.0
C463 C 0.96931 0.07382 0.41405 0.0
C464 C 0.97153 0.04126 0.42781 0.0
C465 C 0.96007 0.02193 0.39831 0.0
C466 C 0.94666 0.03487 0.35632 0.0
H467 H 0.85492 0.04563 0.29009 0.0
H468 H 0.88899 0.02145 0.29648 0.0
H469 H 0.88347 0.04346 0.33756 0.0
H470 H 0.95182 0.11197 0.36454 0.0
H471 H 0.97913 0.08947 0.435 0.0
H472 H 0.38225 0.31603 0.50542 0.0
H473 H 0.41047 0.34353 0.56046 0.0
H474 H 0.32969 0.40301 0.54956 0.0
H475 H 0.30166 0.37527 0.49506 0.0
H476 H 0.39209 0.4339 0.5578 0.0
H477 H 0.38115 0.32918 0.68263 0.0
H478 H 0.39744 0.32302 0.6365 0.0
H479 H 0.35731 0.33503 0.63037 0.0
C480 C 0.37109 0.33566 0.51395 0.0
C481 C 0.34008 0.34396 0.49587 0.0
C482 C 0.38698 0.3511 0.54561 0.0
C483 C 0.37204 0.37512 0.55943 0.0
C484 C 0.34168 0.38459 0.53941 0.0
H485 H 0.40377 0.45325 0.79309 0.0
H486 H 0.3832 0.42723 0.73303 0.0
C487 C 0.32577 0.36897 0.50817 0.0
C488 C 0.38696 0.38894 0.59669 0.0
H489 H 0.40667 0.3728 0.70582 0.0
C490 C 0.39551 0.42052 0.59013 0.0
C491 C 0.39089 0.37156 0.63895 0.0
C492 C 0.38108 0.33786 0.64791 0.0
C493 C 0.40811 0.43511 0.62466 0.0
C494 C 0.41235 0.41764 0.6669 0.0
C495 C 0.40358 0.38612 0.67346 0.0
C496 C 0.42547 0.43191 0.70465 0.0
C497 C 0.41615 0.46932 0.61581 0.0
C498 C 0.45635 0.44241 0.70938 0.0
C499 C 0.46829 0.45698 0.74389 0.0
C500 C 0.44962 0.46152 0.77456 0.0
C501 C 0.41896 0.45003 0.77042 0.0
C502 C 0.40707 0.4353 0.73591 0.0
H503 H 0.40544 0.48098 0.58318 0.0
H504 H 0.40828 0.48181 0.63966 0.0
H505 H 0.44188 0.47159 0.61838 0.0
H506 H 0.47122 0.43946 0.6862 0.0
H507 H 0.49223 0.4648 0.74643 0.0
H508 H 0.64228 0.69196 0.5892 0.0
H509 H 0.61381 0.66312 0.53601 0.0
H510 H 0.70034 0.61935 0.52546 0.0
H511 H 0.7282 0.64733 0.57927 0.0
H512 H 0.62209 0.66945 0.45388 0.0
H513 H 0.64435 0.54541 0.5289 0.0
H514 H 0.65157 0.57678 0.55901 0.0
H515 H 0.68006 0.56664 0.52826 0.0
C516 C 0.65481 0.67528 0.5765 0.0
C517 C 0.68729 0.6716 0.58832 0.0
C518 C 0.63869 0.65905 0.54587 0.0
C519 C 0.65481 0.63874 0.52683 0.0
C520 C 0.68713 0.63419 0.54019 0.0
H521 H 0.62283 0.55463 0.29862 0.0
H522 H 0.64439 0.57941 0.35974 0.0
C523 C 0.7031 0.65026 0.5708 0.0
C524 C 0.63874 0.62458 0.49032 0.0
H525 H 0.62909 0.55576 0.45228 0.0
C526 C 0.62326 0.64453 0.45385 0.0
C527 C 0.64025 0.59203 0.48999 0.0
C528 C 0.65468 0.56897 0.52884 0.0
C529 C 0.6102 0.63298 0.41683 0.0
C530 C 0.61268 0.60068 0.41613 0.0
C531 C 0.62759 0.58061 0.45272 0.0
C532 C 0.59953 0.5872 0.37784 0.0
C533 C 0.59447 0.65542 0.3782 0.0
C534 C 0.56718 0.5836 0.3676 0.0
C535 C 0.55486 0.56936 0.33293 0.0
C536 C 0.57461 0.55856 0.30757 0.0
C537 C 0.60699 0.56295 0.31725 0.0
C538 C 0.61934 0.57691 0.35229 0.0
H539 H 0.59787 0.68025 0.38188 0.0
H540 H 0.60367 0.65175 0.34905 0.0
H541 H 0.56903 0.65083 0.37322 0.0
H542 H 0.5515 0.59129 0.38696 0.0
H543 H 0.52981 0.56653 0.32615 0.0
H544 H 0.82018 0.13841 0.03356 0.0
H545 H 0.84643 0.11213 0.98645 0.0
H546 H 0.8841 0.20059 0.93421 0.0
H547 H 0.85883 0.2263 0.98212 0.0
H548 H 0.83762 0.1226 0.89893 0.0
H549 H 0.961 0.14546 0.95885 0.0
H550 H 0.92972 0.15093 0.98797 0.0
H551 H 0.93766 0.18065 0.9443 0.0
C552 C 0.83463 0.15192 0.01255 0.0
C553 C 0.8376 0.18428 0.01133 0.0
C554 C 0.84943 0.13704 0.98549 0.0
C555 C 0.86762 0.15427 0.95702 0.0
C556 C 0.87083 0.18657 0.95639 0.0
H557 H 0.96136 0.11944 0.74834 0.0
H558 H 0.93473 0.14299 0.79738 0.0
C559 C 0.85617 0.20133 0.98345 0.0
C560 C 0.88194 0.13905 0.92637 0.0
H561 H 0.95092 0.12919 0.89079 0.0
C562 C 0.86244 0.12379 0.89746 0.0
C563 C 0.91435 0.14062 0.92423 0.0
C564 C 0.93694 0.15502 0.95578 0.0
C565 C 0.8743 0.11079 0.86596 0.0
C566 C 0.90657 0.11289 0.8634 0.0
C567 C 0.92612 0.12789 0.89246 0.0
C568 C 0.92073 0.09882 0.83167 0.0
C569 C 0.85213 0.09548 0.83501 0.0
C570 C 0.92152 0.06622 0.83442 0.0
C571 C 0.93674 0.05277 0.80659 0.0
C572 C 0.95151 0.0716 0.77528 0.0
C573 C 0.94996 0.10432 0.77178 0.0
C574 C 0.93493 0.11778 0.79996 0.0
H575 H 0.82739 0.10189 0.83493 0.0
H576 H 0.85758 0.10216 0.80197 0.0
H577 H 0.85472 0.06967 0.84441 0.0
H578 H 0.91105 0.0511 0.85888 0.0
H579 H 0.93736 0.0275 0.80999 0.0
H580 H 0.32904 0.38217 0.41092 0.0
H581 H 0.35891 0.40992 0.35679 0.0
H582 H 0.38982 0.32142 0.33377 0.0
H583 H 0.36042 0.29384 0.38822 0.0
H584 H 0.42402 0.40719 0.34907 0.0
H585 H 0.34915 0.36624 0.21372 0.0
H586 H 0.33746 0.36366 0.26575 0.0
H587 H 0.36482 0.33566 0.25703 0.0
C588 C 0.34265 0.36874 0.39476 0.0
C589 C 0.34224 0.33585 0.40353 0.0
C590 C 0.35954 0.38457 0.36363 0.0
C591 C 0.37614 0.3678 0.34042 0.0
C592 C 0.37665 0.33494 0.35039 0.0
H593 H 0.48452 0.41648 0.13068 0.0
H594 H 0.45698 0.38985 0.18779 0.0
C595 C 0.35992 0.31917 0.38158 0.0
C596 C 0.39272 0.38452 0.30561 0.0
H597 H 0.39493 0.39334 0.198 0.0
C598 C 0.41753 0.40433 0.316 0.0
C599 C 0.38445 0.38068 0.26239 0.0
C600 C 0.35735 0.36064 0.2488 0.0
C601 C 0.43463 0.41979 0.28469 0.0
C602 C 0.42629 0.41605 0.24142 0.0
C603 C 0.40142 0.39628 0.23104 0.0
C604 C 0.44302 0.4324 0.20648 0.0
C605 C 0.46228 0.43908 0.29852 0.0
C606 C 0.44404 0.46527 0.1972 0.0
C607 C 0.4595 0.48052 0.16423 0.0
C608 C 0.47413 0.46332 0.13941 0.0
C609 C 0.47302 0.43045 0.14861 0.0
C610 C 0.45746 0.41519 0.18151 0.0
H611 H 0.47006 0.43367 0.33371 0.0
H612 H 0.48218 0.43486 0.28223 0.0
H613 H 0.45579 0.46429 0.28969 0.0
H614 H 0.43251 0.47922 0.21514 0.0
H615 H 0.45969 0.50587 0.15784 0.0
H616 H 0.22782 0.87882 0.95271 0.0
H617 H 0.19445 0.90953 0.89102 0.0
H618 H 0.11396 0.85934 0.92937 0.0
H619 H 0.14779 0.82826 0.9909 0.0
H620 H 0.12074 0.85768 0.84606 0.0
H621 H 0.13056 0.97996 0.87324 0.0
H622 H 0.16788 0.96103 0.87872 0.0
H623 H 0.14147 0.94681 0.91559 0.0
C624 C 0.20285 0.87512 0.94848 0.0
C625 C 0.1902 0.85143 0.97633 0.0
C626 C 0.18377 0.89268 0.9134 0.0
C627 C 0.1516 0.88698 0.90568 0.0
C628 C 0.13868 0.86428 0.93482 0.0
H629 H 0.01287 0.94868 0.67715 0.0
H630 H 0.03902 0.9247 0.74859 0.0
C631 C 0.15785 0.84674 0.97005 0.0
C632 C 0.13241 0.90212 0.86476 0.0
H633 H 0.11204 0.97303 0.80117 0.0
C634 C 0.11844 0.8829 0.83651 0.0
C635 C 0.12965 0.93504 0.85211 0.0
C636 C 0.14293 0.95692 0.88168 0.0
C637 C 0.10273 0.89565 0.79549 0.0
C638 C 0.10048 0.92855 0.78253 0.0
C639 C 0.11395 0.94781 0.81103 0.0
C640 C 0.08448 0.94338 0.73935 0.0
C641 C 0.08969 0.87376 0.76576 0.0
C642 C 0.10115 0.96246 0.7107 0.0
C643 C 0.08617 0.97639 0.66997 0.0
C644 C 0.05428 0.97147 0.65719 0.0
C645 C 0.03755 0.95267 0.68607 0.0
C646 C 0.0525 0.93882 0.72678 0.0
H647 H 0.09994 0.84981 0.77638 0.0
H648 H 0.06405 0.87211 0.76503 0.0
H649 H 0.0941 0.88269 0.73269 0.0
H650 H 0.12581 0.96645 0.7198 0.0
H651 H 0.09942 0.99129 0.64865 0.0
loop_
_geom_bond_atom_site_label_1
_geom_bond_atom_site_label_2
_geom_bond_distance
_geom_bond_site_symmetry_2
_ccdc_geom_bond_type
C0 N1 1.317 1_556 S
C0 N2 1.348 1_556 S
C0 C3 1.485 . S
N1 C0 1.317 1_554 S
N1 N5 1.370 . S
N2 C0 1.348 1_554 S
N2 C4 1.346 . S
C3 C0 1.485 . S
C3 H7 0.960 . S
C3 H8 0.961 . S
C3 H9 0.960 . S
C4 N2 1.346 . S
C4 N5 1.307 . S
C4 C6 1.486 . S
N5 N1 1.370 . S
N5 C4 1.307 . S
C6 C4 1.486 . S
C6 H10 0.960 . S
C6 H11 0.960 . S
C6 H12 0.959 . S
H7 C3 0.960 . S
H8 C3 0.961 . S
H9 C3 0.960 . S
H10 C6 0.960 . S
H11 C6 0.960 . S
H12 C6 0.959 . S
C13 N14 1.317 . S
C13 N15 1.348 . S
C13 C16 1.485 . S
N14 C13 1.317 . S
N14 N18 1.370 . S
N15 C13 1.348 . S
N15 C17 1.346 . S
C16 C13 1.485 . S
C16 H20 0.960 . S
C16 H21 0.961 . S
C16 H22 0.960 . S
C17 N15 1.346 . S
C17 N18 1.307 . S
C17 C19 1.486 . S
N18 N14 1.370 . S
N18 C17 1.307 . S
C19 C17 1.486 . S
C19 H23 0.960 . S
C19 H24 0.960 . S
C19 H25 0.959 . S
H20 C16 0.960 . S
H21 C16 0.961 . S
H22 C16 0.960 . S
H23 C19 0.960 . S
H24 C19 0.960 . S
H25 C19 0.959 . S
C26 N27 1.317 . S
C26 N28 1.348 . S
C26 C29 1.485 . S
N27 C26 1.317 . S
N27 N31 1.370 . S
N28 C26 1.348 . S
N28 C30 1.346 . S
C29 C26 1.485 . S
C29 H33 0.960 . S
C29 H34 0.961 . S
C29 H35 0.960 . S
C30 N28 1.346 . S
C30 N31 1.307 . S
C30 C32 1.486 1_554 S
N31 N27 1.370 . S
N31 C30 1.307 . S
C32 C30 1.486 1_556 S
C32 H36 0.960 . S
C32 H37 0.960 . S
C32 H38 0.959 . S
H33 C29 0.960 . S
H34 C29 0.961 . S
H35 C29 0.960 . S
H36 C32 0.960 . S
H37 C32 0.960 . S
H38 C32 0.959 . S
C39 N40 1.317 . S
C39 N41 1.348 . S
C39 C42 1.485 . S
N40 C39 1.317 . S
N40 N44 1.370 . S
N41 C39 1.348 . S
N41 C43 1.346 . S
C42 C39 1.485 . S
C42 H46 0.960 . S
C42 H47 0.961 . S
C42 H48 0.960 . S
C43 N41 1.346 . S
C43 N44 1.307 . S
C43 C45 1.486 . S
N44 N40 1.370 . S
N44 C43 1.307 . S
C45 C43 1.486 . S
C45 H49 0.960 . S
C45 H50 0.960 . S
C45 H51 0.959 . S
H46 C42 0.960 . S
H47 C42 0.961 . S
H48 C42 0.960 . S
H49 C45 0.960 . S
H50 C45 0.960 . S
H51 C45 0.959 . S
Tb52 N81 2.617 . S
Tb52 N87 2.572 . S
Tb52 O96 2.465 . S
Tb52 O97 2.387 . S
Tb52 O99 2.428 . S
Tb52 O100 2.308 1_565 S
Tb52 O104 2.349 1_465 S
Tb52 O107 2.393 1_455 S
Tb52 C116 2.802 . S
C53 N54 1.379 . S
C53 C56 1.416 . S
C53 C60 1.424 . S
N54 C53 1.379 . S
N54 C57 1.334 1_655 S
N54 Tb63 2.617 . S
C55 C57 1.390 . S
C55 C58 1.339 1_455 S
C55 H75 0.930 . S
C56 C53 1.416 . S
C56 C58 1.416 . S
C56 C62 1.448 . S
C57 N54 1.334 1_455 S
C57 C55 1.390 . S
C57 H68 0.930 . S
C58 C55 1.339 1_655 S
C58 C56 1.416 . S
C58 H79 0.930 . S
C59 C60 1.413 . S
C59 C61 1.427 . S
C59 C65 1.416 . S
C60 C53 1.424 . S
C60 C59 1.413 . S
C60 N64 1.361 . S
C61 C59 1.427 . S
C61 C62 1.328 . S
C61 H76 0.929 . S
C62 C56 1.448 . S
C62 C61 1.328 . S
C62 H77 0.930 . S
Tb63 N54 2.617 . S
Tb63 N64 2.572 . S
Tb63 O98 2.349 1_655 S
Tb63 O101 2.393 1_655 S
Tb63 O102 2.465 . S
Tb63 O103 2.387 . S
Tb63 O105 2.428 . S
Tb63 O106 2.308 1_545 S
Tb63 C127 2.802 . S
N64 C60 1.361 . S
N64 Tb63 2.572 . S
N64 C66 1.340 . S
C65 C59 1.416 . S
C65 C67 1.332 . S
C65 H73 0.931 . S
C66 N64 1.340 . S
C66 C67 1.407 . S
C66 H72 0.930 . S
C67 C65 1.332 . S
C67 C66 1.407 . S
C67 H69 0.929 . S
H68 C57 0.930 . S
H69 C67 0.929 . S
H70 C85 0.930 1_655 S
H71 C92 0.929 . S
H72 C66 0.930 . S
H73 C65 0.931 . S
H74 C88 0.930 . S
H75 C55 0.930 . S
H76 C61 0.929 . S
H77 C62 0.930 . S
H78 C83 0.930 1_655 S
H79 C58 0.930 . S
H80 C91 0.931 . S
N81 Tb52 2.617 . S
N81 C82 1.379 . S
N81 C85 1.334 . S
C82 N81 1.379 . S
C82 C84 1.416 . S
C82 C90 1.424 . S
C83 H78 0.930 1_455 S
C83 C85 1.390 . S
C83 C86 1.339 . S
C84 C82 1.416 . S
C84 C86 1.416 . S
C84 C117 1.448 . S
C85 H70 0.930 1_455 S
C85 N81 1.334 . S
C85 C83 1.390 . S
C86 C83 1.339 . S
C86 C84 1.416 . S
C86 H93 0.930 . S
N87 Tb52 2.572 . S
N87 C88 1.340 . S
N87 C90 1.361 . S
C88 H74 0.930 . S
C88 N87 1.340 . S
C88 C92 1.407 . S
C89 C90 1.413 . S
C89 C91 1.416 . S
C89 C118 1.427 . S
C90 C82 1.424 . S
C90 N87 1.361 . S
C90 C89 1.413 . S
C91 H80 0.931 . S
C91 C89 1.416 . S
C91 C92 1.332 . S
C92 H71 0.929 . S
C92 C88 1.407 . S
C92 C91 1.332 . S
H93 C86 0.930 . S
H94 C117 0.930 . S
H95 C118 0.929 . S
O96 Tb52 2.465 . S
O96 C116 1.264 . S
O97 Tb52 2.387 . S
O97 C108 1.264 . S
O98 Tb63 2.349 1_455 S
O98 C108 1.243 1_545 S
O99 Tb52 2.428 . S
O99 C116 1.256 . S
O100 Tb52 2.308 1_545 S
O100 C115 1.266 . S
O101 Tb63 2.393 1_455 S
O101 C115 1.248 . S
O102 Tb63 2.465 . S
O102 C127 1.264 . S
O103 Tb63 2.387 . S
O103 C119 1.264 . S
O104 Tb52 2.349 1_645 S
O104 C119 1.243 . S
O105 Tb63 2.428 . S
O105 C127 1.256 . S
O106 Tb63 2.308 1_565 S
O106 C126 1.266 . S
O107 Tb52 2.393 1_655 S
O107 C126 1.248 . S
C108 O97 1.264 . S
C108 O98 1.243 1_565 S
C109 C112 1.399 . S
C109 C114 1.383 . S
C109 C116 1.496 . S
C110 C111 1.399 . S
C110 C114 1.389 . S
C111 C110 1.399 . S
C111 C113 1.380 . S
C111 H128 0.929 . S
C112 C109 1.399 . S
C112 C113 1.392 . S
C112 H129 0.929 . S
C113 C111 1.380 . S
C113 C112 1.392 . S
C113 H130 0.929 . S
C114 C109 1.383 . S
C114 C110 1.389 . S
C114 H131 0.931 . S
C115 O100 1.266 . S
C115 O101 1.248 . S
C116 Tb52 2.802 . S
C116 O96 1.264 . S
C116 O99 1.256 . S
C116 C109 1.496 . S
C117 C84 1.448 . S
C117 H94 0.930 . S
C117 C118 1.328 . S
C118 C89 1.427 . S
C118 H95 0.929 . S
C118 C117 1.328 . S
C119 O103 1.264 . S
C119 O104 1.243 . S
C120 C123 1.399 . S
C120 C124 1.383 . S
C120 C127 1.496 . S
C121 C122 1.399 . S
C121 C124 1.389 . S
C122 C121 1.399 . S
C122 C125 1.380 . S
C122 H132 0.929 . S
C123 C120 1.399 . S
C123 C125 1.392 . S
C123 H133 0.929 . S
C124 C120 1.383 . S
C124 C121 1.389 . S
C124 H134 0.931 . S
C125 C122 1.380 . S
C125 C123 1.392 . S
C125 H135 0.929 . S
C126 O106 1.266 . S
C126 O107 1.248 . S
C127 Tb63 2.802 . S
C127 O102 1.264 . S
C127 O105 1.256 . S
C127 C120 1.496 . S
H128 C111 0.929 . S
H129 C112 0.929 . S
H130 C113 0.929 . S
H131 C114 0.931 . S
H132 C122 0.929 . S
H133 C123 0.929 . S
H134 C124 0.931 . S
H135 C125 0.929 . S
Tb136 N165 2.617 . S
Tb136 N171 2.572 1_556 S
Tb136 O180 2.465 . S
Tb136 O181 2.387 1_556 S
Tb136 O183 2.428 . S
Tb136 O184 2.308 1_556 S
Tb136 O188 2.349 . S
Tb136 O191 2.393 1_556 S
Tb136 C200 2.802 . S
C137 N138 1.379 . S
C137 C140 1.416 . S
C137 C144 1.424 . S
N138 C137 1.379 . S
N138 C141 1.334 . S
N138 Tb147 2.617 . S
C139 C141 1.390 . S
C139 C142 1.339 . S
C139 H159 0.930 . S
C140 C137 1.416 . S
C140 C142 1.416 . S
C140 C146 1.448 . S
C141 N138 1.334 . S
C141 C139 1.390 . S
C141 H152 0.930 . S
C142 C139 1.339 . S
C142 C140 1.416 . S
C142 H163 0.930 . S
C143 C144 1.413 . S
C143 C145 1.427 . S
C143 C149 1.416 . S
C144 C137 1.424 . S
C144 C143 1.413 . S
C144 N148 1.361 . S
C145 C143 1.427 . S
C145 C146 1.328 . S
C145 H160 0.929 . S
C146 C140 1.448 . S
C146 C145 1.328 . S
C146 H161 0.930 . S
Tb147 N138 2.617 . S
Tb147 N148 2.572 . S
Tb147 O182 2.349 . S
Tb147 O185 2.393 . S
Tb147 O186 2.465 . S
Tb147 O187 2.361 1_554 S
Tb147 O189 2.428 . S
Tb147 O190 2.308 . S
Tb147 C211 2.802 . S
N148 C144 1.361 . S
N148 Tb147 2.572 . S
N148 C150 1.340 . S
C149 C143 1.416 . S
C149 C151 1.332 . S
C149 H157 0.931 . S
C150 N148 1.340 . S
C150 C151 1.407 . S
C150 H156 0.930 . S
C151 C149 1.332 . S
C151 C150 1.407 . S
C151 H153 0.929 . S
H152 C141 0.930 . S
H153 C151 0.929 . S
H154 C169 0.930 . S
H155 C176 0.929 . S
H156 C150 0.930 . S
H157 C149 0.931 . S
H158 C172 0.930 . S
H159 C139 0.930 . S
H160 C145 0.929 . S
H161 C146 0.930 . S
H162 C167 0.930 . S
H163 C142 0.930 . S
H164 C175 0.931 . S
N165 Tb136 2.617 . S
N165 C166 1.379 1_556 S
N165 C169 1.334 . S
C166 N165 1.379 1_554 S
C166 C168 1.416 . S
C166 C174 1.424 . S
C167 H162 0.930 . S
C167 C169 1.390 . S
C167 C170 1.339 1_556 S
C168 C166 1.416 . S
C168 C170 1.416 . S
C168 C201 1.448 . S
C169 H154 0.930 . S
C169 N165 1.334 . S
C169 C167 1.390 . S
C170 C167 1.339 1_554 S
C170 C168 1.416 . S
C170 H177 0.930 . S
N171 Tb136 2.572 1_554 S
N171 C172 1.340 . S
N171 C174 1.361 . S
C172 H158 0.930 . S
C172 N171 1.340 . S
C172 C176 1.407 . S
C173 C174 1.413 . S
C173 C175 1.416 . S
C173 C202 1.427 . S
C174 C166 1.424 . S
C174 N171 1.361 . S
C174 C173 1.413 . S
C175 H164 0.931 . S
C175 C173 1.416 . S
C175 C176 1.332 . S
C176 H155 0.929 . S
C176 C172 1.407 . S
C176 C175 1.332 . S
H177 C170 0.930 . S
H178 C201 0.930 . S
H179 C202 0.929 . S
O180 Tb136 2.465 . S
O180 C200 1.264 . S
O181 Tb136 2.387 1_554 S
O181 C192 1.264 . S
O182 Tb147 2.349 . S
O182 C192 1.243 . S
O183 Tb136 2.428 . S
O183 C200 1.256 . S
O184 Tb136 2.308 1_554 S
O184 C199 1.266 . S
O185 Tb147 2.393 . S
O185 C199 1.248 . S
O186 Tb147 2.465 . S
O186 C211 1.264 . S
O187 Tb147 2.361 1_556 S
O187 C203 1.284 . S
O188 Tb136 2.349 . S
O188 C203 1.243 . S
O189 Tb147 2.428 . S
O189 C211 1.256 . S
O190 Tb147 2.308 . S
O190 C210 1.266 . S
O191 Tb136 2.393 1_554 S
O191 C210 1.248 . S
C192 O181 1.264 . S
C192 O182 1.243 . S
C193 C196 1.399 . S
C193 C198 1.383 . S
C193 C200 1.496 . S
C194 C195 1.399 . S
C194 C198 1.389 . S
C195 C194 1.399 . S
C195 C197 1.380 . S
C195 H212 0.929 . S
C196 C193 1.399 . S
C196 C197 1.392 . S
C196 H213 0.929 . S
C197 C195 1.380 . S
C197 C196 1.392 . S
C197 H214 0.929 . S
C198 C193 1.383 . S
C198 C194 1.389 . S
C198 H215 0.931 . S
C199 O184 1.266 . S
C199 O185 1.248 . S
C200 Tb136 2.802 . S
C200 O180 1.264 . S
C200 O183 1.256 . S
C200 C193 1.496 . S
C201 C168 1.448 . S
C201 H178 0.930 . S
C201 C202 1.328 . S
C202 C173 1.427 . S
C202 H179 0.929 . S
C202 C201 1.328 . S
C203 O187 1.284 . S
C203 O188 1.243 . S
C204 C207 1.399 . S
C204 C208 1.383 . S
C204 C211 1.496 . S
C205 C206 1.399 . S
C205 C208 1.389 . S
C206 C205 1.399 . S
C206 C209 1.380 . S
C206 H216 0.929 . S
C207 C204 1.399 . S
C207 C209 1.392 . S
C207 H217 0.929 . S
C208 C204 1.383 . S
C208 C205 1.389 . S
C208 H218 0.931 . S
C209 C206 1.380 . S
C209 C207 1.392 . S
C209 H219 0.929 . S
C210 O190 1.266 . S
C210 O191 1.248 . S
C211 Tb147 2.802 . S
C211 O186 1.264 . S
C211 O189 1.256 . S
C211 C204 1.496 . S
H212 C195 0.929 . S
H213 C196 0.929 . S
H214 C197 0.929 . S
H215 C198 0.931 . S
H216 C206 0.929 . S
H217 C207 0.929 . S
H218 C208 0.931 . S
H219 C209 0.929 . S
H220 C228 0.929 . S
H221 C230 0.930 . S
H222 C232 0.930 . S
H223 C235 0.929 . S
H224 C238 0.930 . S
H225 C240 0.960 . S
H226 C240 0.960 . S
H227 C240 0.960 . S
C228 H220 0.929 . S
C228 C229 1.377 . S
C228 C230 1.384 . S
C229 C228 1.377 . S
C229 C235 1.390 . S
C230 H221 0.930 . S
C230 C228 1.384 . S
C230 C231 1.372 . S
C231 C230 1.372 . S
C231 C232 1.400 . S
C231 C236 1.490 . S
C232 H222 0.930 . S
C232 C231 1.400 . S
C232 C235 1.386 . S
H233 C249 0.930 . S
H234 C250 0.931 . S
C235 H223 0.929 . S
C235 C229 1.390 . S
C235 C232 1.386 . S
C236 C231 1.490 . S
C236 C238 1.395 . S
C236 C239 1.403 . S
H237 C243 0.930 . S
C238 H224 0.930 . S
C238 C236 1.395 . S
C238 C241 1.403 . S
C239 C236 1.403 . S
C239 C240 1.524 . S
C239 C243 1.400 . S
C240 H225 0.960 . S
C240 H226 0.960 . S
C240 H227 0.960 . S
C240 C239 1.524 . S
C241 C238 1.403 . S
C241 C242 1.392 . S
C241 C245 1.495 . S
C242 C241 1.392 . S
C242 C243 1.385 . S
C242 C244 1.478 . S
C243 H237 0.930 . S
C243 C239 1.400 . S
C243 C242 1.385 . S
C244 C242 1.478 . S
C244 C246 1.381 . S
C244 C250 1.383 . S
C245 C241 1.495 . S
C245 H251 0.959 . S
C245 H252 0.961 . S
C245 H253 0.960 . S
C246 C244 1.381 . S
C246 C247 1.394 . S
C246 H254 0.930 . S
C247 C246 1.394 . S
C247 C248 1.383 . S
C247 H255 0.929 . S
C248 C247 1.383 . S
C248 C249 1.377 . S
C249 H233 0.930 . S
C249 C248 1.377 . S
C249 C250 1.379 . S
C250 H234 0.931 . S
C250 C244 1.383 . S
C250 C249 1.379 . S
H251 C245 0.959 . S
H252 C245 0.961 . S
H253 C245 0.960 . S
H254 C246 0.930 . S
H255 C247 0.929 . S
H256 C264 0.929 1_556 S
H257 C266 0.930 1_556 S
H258 C268 0.930 . S
H259 C271 0.929 . S
H260 C274 0.930 . S
H261 C276 0.960 . S
H262 C276 0.960 1_556 S
H263 C276 0.960 . S
C264 H256 0.929 1_554 S
C264 C265 1.377 . S
C264 C266 1.384 . S
C265 C264 1.377 . S
C265 C271 1.390 . S
C266 H257 0.930 1_554 S
C266 C264 1.384 . S
C266 C267 1.372 . S
C267 C266 1.372 . S
C267 C268 1.400 . S
C267 C272 1.490 . S
C268 H258 0.930 . S
C268 C267 1.400 . S
C268 C271 1.386 . S
H269 C285 0.930 . S
H270 C286 0.931 . S
C271 H259 0.929 . S
C271 C265 1.390 . S
C271 C268 1.386 . S
C272 C267 1.490 . S
C272 C274 1.395 . S
C272 C275 1.403 . S
H273 C279 0.930 . S
C274 H260 0.930 . S
C274 C272 1.395 . S
C274 C277 1.403 . S
C275 C272 1.403 . S
C275 C276 1.524 . S
C275 C279 1.400 . S
C276 H261 0.960 . S
C276 H262 0.960 1_554 S
C276 H263 0.960 . S
C276 C275 1.524 . S
C277 C274 1.403 . S
C277 C278 1.392 . S
C277 C281 1.495 . S
C278 C277 1.392 . S
C278 C279 1.385 . S
C278 C280 1.478 . S
C279 H273 0.930 . S
C279 C275 1.400 . S
C279 C278 1.385 . S
C280 C278 1.478 . S
C280 C282 1.381 . S
C280 C286 1.383 . S
C281 C277 1.495 . S
C281 H287 0.959 . S
C281 H288 0.961 . S
C281 H289 0.960 . S
C282 C280 1.381 . S
C282 C283 1.394 . S
C282 H290 0.930 1_554 S
C283 C282 1.394 . S
C283 C284 1.383 . S
C283 H291 0.929 1_554 S
C284 C283 1.383 . S
C284 C285 1.377 . S
C285 H269 0.930 . S
C285 C284 1.377 . S
C285 C286 1.379 . S
C286 H270 0.931 . S
C286 C280 1.383 . S
C286 C285 1.379 . S
H287 C281 0.959 . S
H288 C281 0.961 . S
H289 C281 0.960 . S
H290 C282 0.930 1_556 S
H291 C283 0.929 1_556 S
H292 C300 0.929 . S
H293 C302 0.930 . S
H294 C304 0.930 . S
H295 C307 0.929 . S
H296 C310 0.930 . S
H297 C312 0.960 . S
H298 C312 0.960 . S
H299 C312 0.960 . S
C300 H292 0.929 . S
C300 C301 1.377 . S
C300 C302 1.384 . S
C301 C300 1.377 . S
C301 C307 1.390 . S
C302 H293 0.930 . S
C302 C300 1.384 . S
C302 C303 1.372 . S
C303 C302 1.372 . S
C303 C304 1.400 . S
C303 C308 1.490 . S
C304 H294 0.930 . S
C304 C303 1.400 . S
C304 C307 1.386 . S
H305 C321 0.930 . S
H306 C322 0.931 . S
C307 H295 0.929 . S
C307 C301 1.390 . S
C307 C304 1.386 . S
C308 C303 1.490 . S
C308 C310 1.395 . S
C308 C311 1.403 . S
H309 C315 0.930 . S
C310 H296 0.930 . S
C310 C308 1.395 . S
C310 C313 1.403 . S
C311 C308 1.403 . S
C311 C312 1.524 . S
C311 C315 1.400 . S
C312 H297 0.960 . S
C312 H298 0.960 . S
C312 H299 0.960 . S
C312 C311 1.524 . S
C313 C310 1.403 . S
C313 C314 1.392 . S
C313 C317 1.495 . S
C314 C313 1.392 . S
C314 C315 1.385 . S
C314 C316 1.478 . S
C315 H309 0.930 . S
C315 C311 1.400 . S
C315 C314 1.385 . S
C316 C314 1.478 . S
C316 C318 1.381 . S
C316 C322 1.383 . S
C317 C313 1.495 . S
C317 H323 0.959 . S
C317 H324 0.961 . S
C317 H325 0.960 . S
C318 C316 1.381 . S
C318 C319 1.394 . S
C318 H326 0.930 . S
C319 C318 1.394 . S
C319 C320 1.383 . S
C319 H327 0.929 . S
C320 C319 1.383 . S
C320 C321 1.377 . S
C321 H305 0.930 . S
C321 C320 1.377 . S
C321 C322 1.379 . S
C322 H306 0.931 . S
C322 C316 1.383 . S
C322 C321 1.379 . S
H323 C317 0.959 . S
H324 C317 0.961 . S
H325 C317 0.960 . S
H326 C318 0.930 . S
H327 C319 0.929 . S
H328 C336 0.929 . S
H329 C338 0.930 . S
H330 C340 0.945 . S
H331 C343 0.929 . S
H332 C346 0.930 . S
H333 C348 0.960 . S
H334 C348 0.960 . S
H335 C348 0.960 . S
C336 H328 0.929 . S
C336 C337 1.377 . S
C336 C338 1.384 . S
C337 C336 1.377 . S
C337 C343 1.390 1_554 S
C338 H329 0.930 . S
C338 C336 1.384 . S
C338 C339 1.372 . S
C339 C338 1.372 . S
C339 C340 1.378 1_554 S
C339 C344 1.490 . S
C340 H330 0.945 . S
C340 C339 1.378 1_556 S
C340 C343 1.393 . S
H341 C357 0.930 . S
H342 C358 0.931 . S
C343 H331 0.929 . S
C343 C337 1.390 1_556 S
C343 C340 1.393 . S
C344 C339 1.490 . S
C344 C346 1.395 . S
C344 C347 1.403 . S
H345 C351 0.930 . S
C346 H332 0.930 . S
C346 C344 1.395 . S
C346 C349 1.403 . S
C347 C344 1.403 . S
C347 C348 1.524 . S
C347 C351 1.400 . S
C348 H333 0.960 . S
C348 H334 0.960 . S
C348 H335 0.960 . S
C348 C347 1.524 . S
C349 C346 1.403 . S
C349 C350 1.392 . S
C349 C353 1.495 . S
C350 C349 1.392 . S
C350 C351 1.385 . S
C350 C352 1.478 . S
C351 H345 0.930 . S
C351 C347 1.400 . S
C351 C350 1.385 . S
C352 C350 1.478 . S
C352 C354 1.381 . S
C352 C358 1.383 1_554 S
C353 C349 1.495 . S
C353 H359 0.959 . S
C353 H360 0.961 . S
C353 H361 0.960 . S
C354 C352 1.381 . S
C354 C355 1.394 . S
C354 H362 0.930 . S
C355 C354 1.394 . S
C355 C356 1.383 . S
C355 H363 0.929 . S
C356 C355 1.383 . S
C356 C357 1.377 1_554 S
C357 H341 0.930 . S
C357 C356 1.377 1_556 S
C357 C358 1.379 . S
C358 H342 0.931 . S
C358 C352 1.383 1_556 S
C358 C357 1.379 . S
H359 C353 0.959 . S
H360 C353 0.961 . S
H361 C353 0.960 . S
H362 C354 0.930 . S
H363 C355 0.929 . S
H364 C372 0.929 . S
H365 C374 0.930 . S
H366 C376 0.930 . S
H367 C379 0.929 . S
H368 C382 0.930 . S
H369 C384 0.960 . S
H370 C384 0.960 . S
H371 C384 0.960 . S
C372 H364 0.929 . S
C372 C373 1.377 . S
C372 C374 1.384 . S
C373 C372 1.377 . S
C373 C379 1.390 . S
C374 H365 0.930 . S
C374 C372 1.384 . S
C374 C375 1.372 . S
C375 C374 1.372 . S
C375 C376 1.400 . S
C375 C380 1.490 . S
C376 H366 0.930 . S
C376 C375 1.400 . S
C376 C379 1.386 . S
H377 C393 0.930 . S
H378 C394 0.931 . S
C379 H367 0.929 . S
C379 C373 1.390 . S
C379 C376 1.386 . S
C380 C375 1.490 . S
C380 C382 1.395 . S
C380 C383 1.403 . S
H381 C387 0.930 . S
C382 H368 0.930 . S
C382 C380 1.395 . S
C382 C385 1.403 . S
C383 C380 1.403 . S
C383 C384 1.524 . S
C383 C387 1.400 . S
C384 H369 0.960 . S
C384 H370 0.960 . S
C384 H371 0.960 . S
C384 C383 1.524 . S
C385 C382 1.403 . S
C385 C386 1.392 . S
C385 C389 1.495 . S
C386 C385 1.392 . S
C386 C387 1.385 . S
C386 C388 1.478 . S
C387 H381 0.930 . S
C387 C383 1.400 . S
C387 C386 1.385 . S
C388 C386 1.478 . S
C388 C390 1.381 . S
C388 C394 1.383 . S
C389 C385 1.495 . S
C389 H395 0.959 . S
C389 H396 0.961 . S
C389 H397 0.960 . S
C390 C388 1.381 . S
C390 C391 1.394 . S
C390 H398 0.930 . S
C391 C390 1.394 . S
C391 C392 1.383 . S
C391 H399 0.929 . S
C392 C391 1.383 . S
C392 C393 1.377 . S
C393 H377 0.930 . S
C393 C392 1.377 . S
C393 C394 1.379 . S
C394 H378 0.931 . S
C394 C388 1.383 . S
C394 C393 1.379 . S
H395 C389 0.959 . S
H396 C389 0.961 . S
H397 C389 0.960 . S
H398 C390 0.930 . S
H399 C391 0.929 . S
H400 C408 0.929 . S
H401 C410 0.930 . S
H402 C412 0.930 . S
H403 C415 0.929 . S
H404 C418 0.930 . S
H405 C420 0.960 . S
H406 C420 0.960 . S
H407 C420 0.960 . S
C408 H400 0.929 . S
C408 C409 1.377 . S
C408 C410 1.384 . S
C409 C408 1.377 . S
C409 C415 1.390 . S
C410 H401 0.930 . S
C410 C408 1.384 . S
C410 C411 1.372 . S
C411 C410 1.372 . S
C411 C412 1.400 . S
C411 C416 1.490 . S
C412 H402 0.930 . S
C412 C411 1.400 . S
C412 C415 1.386 . S
H413 C429 0.930 . S
H414 C430 0.931 . S
C415 H403 0.929 . S
C415 C409 1.390 . S
C415 C412 1.386 . S
C416 C411 1.490 . S
C416 C418 1.395 . S
C416 C419 1.403 . S
H417 C423 0.930 . S
C418 H404 0.930 . S
C418 C416 1.395 . S
C418 C421 1.403 . S
C419 C416 1.403 . S
C419 C420 1.524 . S
C419 C423 1.400 . S
C420 H405 0.960 . S
C420 H406 0.960 . S
C420 H407 0.960 . S
C420 C419 1.524 . S
C421 C418 1.403 . S
C421 C422 1.392 . S
C421 C425 1.495 . S
C422 C421 1.392 . S
C422 C423 1.385 . S
C422 C424 1.478 . S
C423 H417 0.930 . S
C423 C419 1.400 . S
C423 C422 1.385 . S
C424 C422 1.478 . S
C424 C426 1.381 . S
C424 C430 1.383 . S
C425 C421 1.495 . S
C425 H431 0.959 . S
C425 H432 0.961 . S
C425 H433 0.960 . S
C426 C424 1.381 . S
C426 C427 1.394 . S
C426 H434 0.930 . S
C427 C426 1.394 . S
C427 C428 1.383 . S
C427 H435 0.929 . S
C428 C427 1.383 . S
C428 C429 1.377 . S
C429 H413 0.930 . S
C429 C428 1.377 . S
C429 C430 1.379 . S
C430 H414 0.931 . S
C430 C424 1.383 . S
C430 C429 1.379 . S
H431 C425 0.959 . S
H432 C425 0.961 . S
H433 C425 0.960 . S
H434 C426 0.930 . S
H435 C427 0.929 . S
H436 C444 0.929 . S
H437 C446 0.930 . S
H438 C448 0.930 . S
H439 C451 0.929 . S
H440 C454 0.930 . S
H441 C456 0.960 . S
H442 C456 0.960 . S
H443 C456 0.960 . S
C444 H436 0.929 . S
C444 C445 1.377 . S
C444 C446 1.384 . S
C445 C444 1.377 . S
C445 C451 1.390 . S
C446 H437 0.930 . S
C446 C444 1.384 . S
C446 C447 1.372 . S
C447 C446 1.372 . S
C447 C448 1.400 . S
C447 C452 1.490 . S
C448 H438 0.930 . S
C448 C447 1.400 . S
C448 C451 1.386 . S
H449 C465 0.930 . S
H450 C466 0.931 . S
C451 H439 0.929 . S
C451 C445 1.390 . S
C451 C448 1.386 . S
C452 C447 1.490 . S
C452 C454 1.395 . S
C452 C455 1.403 . S
H453 C459 0.930 . S
C454 H440 0.930 . S
C454 C452 1.395 . S
C454 C457 1.403 . S
C455 C452 1.403 . S
C455 C456 1.524 . S
C455 C459 1.400 . S
C456 H441 0.960 . S
C456 H442 0.960 . S
C456 H443 0.960 . S
C456 C455 1.524 . S
C457 C454 1.403 . S
C457 C458 1.392 . S
C457 C461 1.495 . S
C458 C457 1.392 . S
C458 C459 1.385 . S
C458 C460 1.478 . S
C459 H453 0.930 . S
C459 C455 1.400 . S
C459 C458 1.385 . S
C460 C458 1.478 . S
C460 C462 1.381 . S
C460 C466 1.383 . S
C461 C457 1.495 . S
C461 H467 0.959 . S
C461 H468 0.961 . S
C461 H469 0.960 . S
C462 C460 1.381 . S
C462 C463 1.394 . S
C462 H470 0.930 . S
C463 C462 1.394 . S
C463 C464 1.383 . S
C463 H471 0.929 . S
C464 C463 1.383 . S
C464 C465 1.377 . S
C465 H449 0.930 . S
C465 C464 1.377 . S
C465 C466 1.379 . S
C466 H450 0.931 . S
C466 C460 1.383 . S
C466 C465 1.379 . S
H467 C461 0.959 . S
H468 C461 0.961 . S
H469 C461 0.960 . S
H470 C462 0.930 . S
H471 C463 0.929 . S
H472 C480 0.929 . S
H473 C482 0.930 . S
H474 C484 0.930 . S
H475 C487 0.929 . S
H476 C490 0.930 . S
H477 C492 0.960 . S
H478 C492 0.960 . S
H479 C492 0.960 . S
C480 H472 0.929 . S
C480 C481 1.377 . S
C480 C482 1.384 . S
C481 C480 1.377 . S
C481 C487 1.390 . S
C482 H473 0.930 . S
C482 C480 1.384 . S
C482 C483 1.372 . S
C483 C482 1.372 . S
C483 C484 1.400 . S
C483 C488 1.490 . S
C484 H474 0.930 . S
C484 C483 1.400 . S
C484 C487 1.386 . S
H485 C501 0.930 . S
H486 C502 0.931 . S
C487 H475 0.929 . S
C487 C481 1.390 . S
C487 C484 1.386 . S
C488 C483 1.490 . S
C488 C490 1.395 . S
C488 C491 1.403 . S
H489 C495 0.930 . S
C490 H476 0.930 . S
C490 C488 1.395 . S
C490 C493 1.403 . S
C491 C488 1.403 . S
C491 C492 1.524 . S
C491 C495 1.400 . S
C492 H477 0.960 . S
C492 H478 0.960 . S
C492 H479 0.960 . S
C492 C491 1.524 . S
C493 C490 1.403 . S
C493 C494 1.392 . S
C493 C497 1.495 . S
C494 C493 1.392 . S
C494 C495 1.385 . S
C494 C496 1.478 . S
C495 H489 0.930 . S
C495 C491 1.400 . S
C495 C494 1.385 . S
C496 C494 1.478 . S
C496 C498 1.381 . S
C496 C502 1.383 . S
C497 C493 1.495 . S
C497 H503 0.959 . S
C497 H504 0.961 . S
C497 H505 0.960 . S
C498 C496 1.381 . S
C498 C499 1.394 . S
C498 H506 0.930 . S
C499 C498 1.394 . S
C499 C500 1.383 . S
C499 H507 0.929 . S
C500 C499 1.383 . S
C500 C501 1.377 . S
C501 H485 0.930 . S
C501 C500 1.377 . S
C501 C502 1.379 . S
C502 H486 0.931 . S
C502 C496 1.383 . S
C502 C501 1.379 . S
H503 C497 0.959 . S
H504 C497 0.961 . S
H505 C497 0.960 . S
H506 C498 0.930 . S
H507 C499 0.929 . S
H508 C516 0.929 . S
H509 C518 0.930 . S
H510 C520 0.930 . S
H511 C523 0.929 . S
H512 C526 0.930 . S
H513 C528 0.960 . S
H514 C528 0.960 . S
H515 C528 0.960 . S
C516 H508 0.929 . S
C516 C517 1.377 . S
C516 C518 1.384 . S
C517 C516 1.377 . S
C517 C523 1.390 . S
C518 H509 0.930 . S
C518 C516 1.384 . S
C518 C519 1.372 . S
C519 C518 1.372 . S
C519 C520 1.400 . S
C519 C524 1.490 . S
C520 H510 0.930 . S
C520 C519 1.400 . S
C520 C523 1.386 . S
H521 C537 0.930 . S
H522 C538 0.931 . S
C523 H511 0.929 . S
C523 C517 1.390 . S
C523 C520 1.386 . S
C524 C519 1.490 . S
C524 C526 1.395 . S
C524 C527 1.403 . S
H525 C531 0.930 . S
C526 H512 0.930 . S
C526 C524 1.395 . S
C526 C529 1.403 . S
C527 C524 1.403 . S
C527 C528 1.524 . S
C527 C531 1.400 . S
C528 H513 0.960 . S
C528 H514 0.960 . S
C528 H515 0.960 . S
C528 C527 1.524 . S
C529 C526 1.403 . S
C529 C530 1.392 . S
C529 C533 1.495 . S
C530 C529 1.392 . S
C530 C531 1.385 . S
C530 C532 1.478 . S
C531 H525 0.930 . S
C531 C527 1.400 . S
C531 C530 1.385 . S
C532 C530 1.478 . S
C532 C534 1.381 . S
C532 C538 1.383 . S
C533 C529 1.495 . S
C533 H539 0.959 . S
C533 H540 0.961 . S
C533 H541 0.960 . S
C534 C532 1.381 . S
C534 C535 1.394 . S
C534 H542 0.930 . S
C535 C534 1.394 . S
C535 C536 1.383 . S
C535 H543 0.929 . S
C536 C535 1.383 . S
C536 C537 1.377 . S
C537 H521 0.930 . S
C537 C536 1.377 . S
C537 C538 1.379 . S
C538 H522 0.931 . S
C538 C532 1.383 . S
C538 C537 1.379 . S
H539 C533 0.959 . S
H540 C533 0.961 . S
H541 C533 0.960 . S
H542 C534 0.930 . S
H543 C535 0.929 . S
H544 C552 0.929 . S
H545 C554 0.930 . S
H546 C556 0.930 . S
H547 C559 0.929 . S
H548 C562 0.930 . S
H549 C564 0.960 . S
H550 C564 0.960 . S
H551 C564 0.960 . S
C552 H544 0.929 . S
C552 C553 1.377 1_554 S
C552 C554 1.384 1_554 S
C553 C552 1.377 1_556 S
C553 C559 1.390 . S
C554 H545 0.930 . S
C554 C552 1.384 1_556 S
C554 C555 1.372 . S
C555 C554 1.372 . S
C555 C556 1.400 . S
C555 C560 1.490 . S
C556 H546 0.930 . S
C556 C555 1.400 . S
C556 C559 1.386 . S
H557 C573 0.930 . S
H558 C574 0.931 . S
C559 H547 0.929 . S
C559 C553 1.390 . S
C559 C556 1.386 . S
C560 C555 1.490 . S
C560 C562 1.395 . S
C560 C563 1.403 . S
H561 C567 0.930 . S
C562 H548 0.930 . S
C562 C560 1.395 . S
C562 C565 1.403 . S
C563 C560 1.403 . S
C563 C564 1.524 . S
C563 C567 1.400 . S
C564 H549 0.960 . S
C564 H550 0.960 . S
C564 H551 0.960 . S
C564 C563 1.524 . S
C565 C562 1.403 . S
C565 C566 1.392 . S
C565 C569 1.495 . S
C566 C565 1.392 . S
C566 C567 1.385 . S
C566 C568 1.478 . S
C567 H561 0.930 . S
C567 C563 1.400 . S
C567 C566 1.385 . S
C568 C566 1.478 . S
C568 C570 1.381 . S
C568 C574 1.383 . S
C569 C565 1.495 . S
C569 H575 0.959 . S
C569 H576 0.961 . S
C569 H577 0.960 . S
C570 C568 1.381 . S
C570 C571 1.394 . S
C570 H578 0.930 . S
C571 C570 1.394 . S
C571 C572 1.383 . S
C571 H579 0.929 . S
C572 C571 1.383 . S
C572 C573 1.377 . S
C573 H557 0.930 . S
C573 C572 1.377 . S
C573 C574 1.379 . S
C574 H558 0.931 . S
C574 C568 1.383 . S
C574 C573 1.379 . S
H575 C569 0.959 . S
H576 C569 0.961 . S
H577 C569 0.960 . S
H578 C570 0.930 . S
H579 C571 0.929 . S
H580 C588 0.929 . S
H581 C590 0.930 . S
H582 C592 0.930 . S
H583 C595 0.929 . S
H584 C598 0.930 . S
H585 C600 0.960 . S
H586 C600 0.960 . S
H587 C600 0.960 . S
C588 H580 0.929 . S
C588 C589 1.377 . S
C588 C590 1.384 . S
C589 C588 1.377 . S
C589 C595 1.390 . S
C590 H581 0.930 . S
C590 C588 1.384 . S
C590 C591 1.372 . S
C591 C590 1.372 . S
C591 C592 1.400 . S
C591 C596 1.490 . S
C592 H582 0.930 . S
C592 C591 1.400 . S
C592 C595 1.386 . S
H593 C609 0.930 . S
H594 C610 0.931 . S
C595 H583 0.929 . S
C595 C589 1.390 . S
C595 C592 1.386 . S
C596 C591 1.490 . S
C596 C598 1.395 . S
C596 C599 1.403 . S
H597 C603 0.930 . S
C598 H584 0.930 . S
C598 C596 1.395 . S
C598 C601 1.403 . S
C599 C596 1.403 . S
C599 C600 1.524 . S
C599 C603 1.400 . S
C600 H585 0.960 . S
C600 H586 0.960 . S
C600 H587 0.960 . S
C600 C599 1.524 . S
C601 C598 1.403 . S
C601 C602 1.392 . S
C601 C605 1.495 . S
C602 C601 1.392 . S
C602 C603 1.385 . S
C602 C604 1.478 . S
C603 H597 0.930 . S
C603 C599 1.400 . S
C603 C602 1.385 . S
C604 C602 1.478 . S
C604 C606 1.381 . S
C604 C610 1.383 . S
C605 C601 1.495 . S
C605 H611 0.959 . S
C605 H612 0.961 . S
C605 H613 0.960 . S
C606 C604 1.381 . S
C606 C607 1.394 . S
C606 H614 0.930 . S
C607 C606 1.394 . S
C607 C608 1.383 . S
C607 H615 0.929 . S
C608 C607 1.383 . S
C608 C609 1.377 . S
C609 H593 0.930 . S
C609 C608 1.377 . S
C609 C610 1.379 . S
C610 H594 0.931 . S
C610 C604 1.383 . S
C610 C609 1.379 . S
H611 C605 0.959 . S
H612 C605 0.961 . S
H613 C605 0.960 . S
H614 C606 0.930 . S
H615 C607 0.929 . S
H616 C624 0.929 . S
H617 C626 0.930 . S
H618 C628 0.930 . S
H619 C631 0.929 . S
H620 C634 0.930 . S
H621 C636 0.960 . S
H622 C636 0.960 . S
H623 C636 0.960 . S
C624 H616 0.929 . S
C624 C625 1.377 . S
C624 C626 1.384 . S
C625 C624 1.377 . S
C625 C631 1.390 . S
C626 H617 0.930 . S
C626 C624 1.384 . S
C626 C627 1.372 . S
C627 C626 1.372 . S
C627 C628 1.400 . S
C627 C632 1.490 . S
C628 H618 0.930 . S
C628 C627 1.400 . S
C628 C631 1.386 . S
H629 C645 0.930 . S
H630 C646 0.931 . S
C631 H619 0.929 . S
C631 C625 1.390 . S
C631 C628 1.386 . S
C632 C627 1.490 . S
C632 C634 1.395 . S
C632 C635 1.403 . S
H633 C639 0.930 . S
C634 H620 0.930 . S
C634 C632 1.395 . S
C634 C637 1.403 . S
C635 C632 1.403 . S
C635 C636 1.524 . S
C635 C639 1.400 . S
C636 H621 0.960 . S
C636 H622 0.960 . S
C636 H623 0.960 . S
C636 C635 1.524 . S
C637 C634 1.403 . S
C637 C638 1.392 . S
C637 C641 1.495 . S
C638 C637 1.392 . S
C638 C639 1.385 . S
C638 C640 1.478 . S
C639 H633 0.930 . S
C639 C635 1.400 . S
C639 C638 1.385 . S
C640 C638 1.478 . S
C640 C642 1.381 . S
C640 C646 1.383 . S
C641 C637 1.495 . S
C641 H647 0.959 . S
C641 H648 0.961 . S
C641 H649 0.960 . S
C642 C640 1.381 . S
C642 C643 1.394 . S
C642 H650 0.930 . S
C643 C642 1.394 . S
C643 C644 1.383 . S
C643 H651 0.929 . S
C644 C643 1.383 . S
C644 C645 1.377 . S
C645 H629 0.930 . S
C645 C644 1.377 . S
C645 C646 1.379 . S
C646 H630 0.931 . S
C646 C640 1.383 . S
C646 C645 1.379 . S
H647 C641 0.959 . S
H648 C641 0.961 . S
H649 C641 0.960 . S
H650 C642 0.930 . S
H651 C643 0.929 . S
C248 C115 1.687 . S
C229 N41 1.723 . S
C265 N2 1.674 . S
C284 C210 1.660 . S
C301 N15 1.717 . S
C320 C126 1.681 . S
C337 N28 1.669 . S
C356 C199 1.652 . S
C392 C110 1.451 . S
C373 N5 1.614 . S
C428 C203 1.697 . S
C409 N14 1.681 . S
C445 N27 1.587 . S
C464 C119 1.622 . S
C481 N44 1.588 . S
C500 C194 1.410 . S
C536 C205 1.464 . S
C517 N18 1.589 . S
C572 C121 1.472 . S
C553 N31 1.615 1_556 S
C608 C192 1.696 . S
C589 N40 1.692 . S
C625 N1 1.604 1_556 S
C644 C108 1.615 . S
