# Generated by pormake.
# Topology pyr, (3,6)-cn, num edge types: 1
# Building blocks:
#     Node 0, Type 0, BuildingBlock: BETDIP_clean_linker_0, # of connection points: 3
#     Node 1, Type 0, BuildingBlock: BETDIP_clean_linker_0, # of connection points: 3
#     Node 2, Type 0, BuildingBlock: BETDIP_clean_linker_0, # of connection points: 3
#     Node 3, Type 0, BuildingBlock: BETDIP_clean_linker_0, # of connection points: 3
#     Node 4, Type 0, BuildingBlock: BETDIP_clean_linker_0, # of connection points: 3
#     Node 5, Type 0, BuildingBlock: BETDIP_clean_linker_0, # of connection points: 3
#     Node 6, Type 0, BuildingBlock: BETDIP_clean_linker_0, # of connection points: 3
#     Node 7, Type 0, BuildingBlock: BETDIP_clean_linker_0, # of connection points: 3
#     Node 8, Type 1, BuildingBlock: MIFKUJ_clean_sbu_0, # of connection points: 6
#     Node 9, Type 1, BuildingBlock: MIFKUJ_clean_sbu_0, # of connection points: 6
#     Node 10, Type 1, BuildingBlock: MIFKUJ_clean_sbu_0, # of connection points: 6
#     Node 11, Type 1, BuildingBlock: MIFKUJ_clean_sbu_0, # of connection points: 6
#     Edge 12, Type (0, 1), BuildingBlock: AJUNOK_clean_linker_0, # of connection points: 2
#     Edge 13, Type (0, 1), BuildingBlock: AJUNOK_clean_linker_0, # of connection points: 2
#     Edge 14, Type (0, 1), BuildingBlock: AJUNOK_clean_linker_0, # of connection points: 2
#     Edge 15, Type (0, 1), BuildingBlock: AJUNOK_clean_linker_0, # of connection points: 2
#     Edge 16, Type (0, 1), BuildingBlock: AJUNOK_clean_linker_0, # of connection points: 2
#     Edge 17, Type (0, 1), BuildingBlock: AJUNOK_clean_linker_0, # of connection points: 2
#     Edge 18, Type (0, 1), BuildingBlock: AJUNOK_clean_linker_0, # of connection points: 2
#     Edge 19, Type (0, 1), BuildingBlock: AJUNOK_clean_linker_0, # of connection points: 2
#     Edge 20, Type (0, 1), BuildingBlock: AJUNOK_clean_linker_0, # of connection points: 2
#     Edge 21, Type (0, 1), BuildingBlock: AJUNOK_clean_linker_0, # of connection points: 2
#     Edge 22, Type (0, 1), BuildingBlock: AJUNOK_clean_linker_0, # of connection points: 2
#     Edge 23, Type (0, 1), BuildingBlock: AJUNOK_clean_linker_0, # of connection points: 2
#     Edge 24, Type (0, 1), BuildingBlock: AJUNOK_clean_linker_0, # of connection points: 2
#     Edge 25, Type (0, 1), BuildingBlock: AJUNOK_clean_linker_0, # of connection points: 2
#     Edge 26, Type (0, 1), BuildingBlock: AJUNOK_clean_linker_0, # of connection points: 2
#     Edge 27, Type (0, 1), BuildingBlock: AJUNOK_clean_linker_0, # of connection points: 2
#     Edge 28, Type (0, 1), BuildingBlock: AJUNOK_clean_linker_0, # of connection points: 2
#     Edge 29, Type (0, 1), BuildingBlock: AJUNOK_clean_linker_0, # of connection points: 2
#     Edge 30, Type (0, 1), BuildingBlock: AJUNOK_clean_linker_0, # of connection points: 2
#     Edge 31, Type (0, 1), BuildingBlock: AJUNOK_clean_linker_0, # of connection points: 2
#     Edge 32, Type (0, 1), BuildingBlock: AJUNOK_clean_linker_0, # of connection points: 2
#     Edge 33, Type (0, 1), BuildingBlock: AJUNOK_clean_linker_0, # of connection points: 2
#     Edge 34, Type (0, 1), BuildingBlock: AJUNOK_clean_linker_0, # of connection points: 2
#     Edge 35, Type (0, 1), BuildingBlock: AJUNOK_clean_linker_0, # of connection points: 2
# Relax obj value: 0.062
# Max RMSD: 0.187
# Mean RMSD: 0.126
data_MOF--net-pyr--node1-MIFKUJ_clean_sbu_0--node2-BETDIP_clean_linker_0--edge1-AJUNOK_clean_linker_0
_symmetry_space_group_name_H-M    P1
_symmetry_Int_Tables_number       1
_symmetry_cell_setting            triclinic
loop_
_symmetry_equiv_pos_as_xyz
'x, y, z'
_cell_length_a     29.208356
_cell_length_b     25.539851
_cell_length_c     28.277933
_cell_angle_alpha  88.461501
_cell_angle_beta   83.308475
_cell_angle_gamma 105.3818
loop_
_atom_site_label
_atom_site_type_symbol
_atom_site_fract_x
_atom_site_fract_y
_atom_site_fract_z
_atom_type_partial_charge
H0 H 0.13875 0.19282 0.27649 0.0
H1 H 0.25545 0.20705 0.16572 0.0
H2 H 0.24176 0.10246 0.29147 0.0
H3 H 0.21093 0.24303 0.12179 0.0
C4 C 0.18653 0.25872 0.14564 0.0
C5 C 0.17149 0.18253 0.26344 0.0
C6 C 0.18844 0.14674 0.2905 0.0
C7 C 0.19489 0.20398 0.21866 0.0
C8 C 0.23632 0.18971 0.20004 0.0
C9 C 0.25364 0.1531 0.22623 0.0
C10 C 0.22935 0.1316 0.27146 0.0
N11 N 0.17519 0.24014 0.19427 0.0
H12 H 0.32288 0.89099 0.77342 0.0
H13 H 0.31544 0.78593 0.65639 0.0
H14 H 0.41138 0.78039 0.75938 0.0
H15 H 0.28908 0.85022 0.62172 0.0
C16 C 0.26714 0.8634 0.65009 0.0
C17 C 0.33475 0.85976 0.75427 0.0
C18 C 0.36943 0.83782 0.77119 0.0
C19 C 0.31533 0.84188 0.71265 0.0
C20 C 0.33051 0.8009 0.68818 0.0
C21 C 0.36522 0.77857 0.70482 0.0
C22 C 0.38453 0.79731 0.74635 0.0
N23 N 0.27989 0.86495 0.69717 0.0
H24 H 0.72274 0.44938 0.8181 0.0
H25 H 0.59573 0.31446 0.82781 0.0
H26 H 0.70054 0.31657 0.92265 0.0
H27 H 0.60052 0.33845 0.74995 0.0
C28 C 0.61164 0.38262 0.74722 0.0
C29 C 0.70082 0.41083 0.8349 0.0
C30 C 0.71656 0.38602 0.87255 0.0
C31 C 0.65783 0.38497 0.81743 0.0
C32 C 0.62971 0.33451 0.83941 0.0
C33 C 0.64488 0.31011 0.87762 0.0
C34 C 0.68836 0.33589 0.89374 0.0
N35 N 0.64387 0.41067 0.77811 0.0
H36 H 0.77228 0.61855 0.27996 0.0
H37 H 0.90703 0.73668 0.2862 0.0
H38 H 0.78792 0.72646 0.39433 0.0
H39 H 0.91274 0.72453 0.20137 0.0
C40 C 0.89873 0.68058 0.2025 0.0
C41 C 0.79351 0.65268 0.2968 0.0
C42 C 0.7741 0.67057 0.33896 0.0
C43 C 0.84077 0.67699 0.27681 0.0
C44 C 0.86972 0.71923 0.3 0.0
C45 C 0.85088 0.73618 0.3432 0.0
C46 C 0.8028 0.7127 0.36153 0.0
N47 N 0.85886 0.65397 0.23609 0.0
H48 H 0.73108 0.79971 0.87296 0.0
H49 H 0.84837 0.80256 0.76551 0.0
H50 H 0.7776 0.92955 0.76287 0.0
H51 H 0.83245 0.71466 0.78882 0.0
C52 C 0.8269 0.71799 0.82713 0.0
C53 C 0.75452 0.81894 0.84111 0.0
C54 C 0.74907 0.86682 0.81965 0.0
C55 C 0.79001 0.7954 0.82186 0.0
C56 C 0.82062 0.82018 0.78078 0.0
C57 C 0.81664 0.86865 0.75946 0.0
C58 C 0.78042 0.89163 0.77877 0.0
N59 N 0.79658 0.74934 0.84652 0.0
H60 H 0.68541 0.11906 0.28886 0.0
H61 H 0.69514 0.22499 0.40502 0.0
H62 H 0.59462 0.22715 0.30596 0.0
H63 H 0.77678 0.22534 0.38413 0.0
C64 C 0.77112 0.18153 0.384 0.0
C65 C 0.67302 0.1496 0.30853 0.0
C66 C 0.63707 0.17035 0.29282 0.0
C67 C 0.695 0.17016 0.34812 0.0
C68 C 0.67952 0.21039 0.37334 0.0
C69 C 0.64321 0.23112 0.35836 0.0
C70 C 0.62221 0.21084 0.3181 0.0
N71 N 0.73263 0.14985 0.36183 0.0
H72 H 0.29192 0.60112 0.24891 0.0
H73 H 0.42362 0.7293 0.23575 0.0
H74 H 0.31851 0.73134 0.14132 0.0
H75 H 0.44191 0.63142 0.25781 0.0
C76 C 0.41742 0.62885 0.29035 0.0
C77 C 0.31515 0.63837 0.23095 0.0
C78 C 0.30056 0.66296 0.19253 0.0
C79 C 0.35964 0.66166 0.24644 0.0
C80 C 0.38973 0.71043 0.22328 0.0
C81 C 0.37442 0.73638 0.18591 0.0
C82 C 0.33007 0.71203 0.17066 0.0
N83 N 0.37171 0.63741 0.2874 0.0
H84 H 0.10122 0.26261 0.73458 0.0
H85 H 0.22778 0.38336 0.76115 0.0
H86 H 0.2346 0.27994 0.64487 0.0
H87 H 0.18136 0.34557 0.84721 0.0
C88 C 0.15351 0.36045 0.83368 0.0
C89 C 0.13925 0.28171 0.72585 0.0
C90 C 0.16511 0.26645 0.68607 0.0
C91 C 0.16218 0.32244 0.754 0.0
C92 C 0.21094 0.34923 0.74147 0.0
C93 C 0.2369 0.33481 0.70136 0.0
C94 C 0.21413 0.2922 0.675 0.0
N95 N 0.13465 0.33977 0.7919 0.0
Zn96 Zn 0.04617 0.98171 0.54558 0.0
Zn97 Zn 0.96095 0.01491 0.4921 0.0
C98 C 0.09603 0.09036 0.56638 0.0
O99 O 0.12632 0.08541 0.52974 0.0
C100 C 0.92711 0.90366 0.46628 0.0
O101 O 0.90073 0.89851 0.5079 0.0
O102 O 0.09638 0.94556 0.56248 0.0
O103 O 0.9821 0.93645 0.57602 0.0
O104 O 0.93896 0.99325 0.56173 0.0
C105 C 0.10909 0.94691 0.60405 0.0
O106 O 0.08751 0.97037 0.63716 0.0
O107 O 0.05871 0.0517 0.579 0.0
C108 C 0.92097 0.09607 0.44826 0.0
O109 O 0.96546 0.12636 0.44064 0.0
O110 O 0.91187 0.04939 0.46968 0.0
O111 O 0.02651 0.06586 0.47475 0.0
O112 O 0.05867 0.99723 0.47424 0.0
O113 O 0.95635 0.94931 0.45247 0.0
C114 C 0.9468 0.95588 0.58757 0.0
C115 C 0.05867 0.044 0.45784 0.0
Zn116 Zn 0.5362 0.98115 0.98467 0.0
Zn117 Zn 0.47763 0.04918 0.06734 0.0
C118 C 0.46543 0.90808 0.93632 0.0
O119 O 0.47676 0.87055 0.96162 0.0
C120 C 0.54416 0.10877 0.12402 0.0
O121 O 0.53425 0.14802 0.09967 0.0
O122 O 0.58909 0.95144 0.95431 0.0
O123 O 0.56198 0.06279 0.9728 0.0
O124 O 0.50783 0.0997 0.00935 0.0
C125 C 0.59962 0.9573 0.90919 0.0
O126 O 0.57614 0.98311 0.88435 0.0
O127 O 0.48363 0.95786 0.94312 0.0
C128 C 0.4131 0.07512 0.14278 0.0
O129 O 0.4373 0.05295 0.1699 0.0
O130 O 0.42334 0.07713 0.09767 0.0
O131 O 0.44897 0.96893 0.06164 0.0
O132 O 0.51526 0.94344 0.05117 0.0
O133 O 0.52538 0.05986 0.11488 0.0
C134 C 0.54432 0.10293 0.979 0.0
C135 C 0.47285 0.93621 0.07187 0.0
Zn136 Zn 0.52214 0.46806 0.49311 0.0
Zn137 Zn 0.49004 0.55066 0.56001 0.0
C138 C 0.58903 0.53994 0.4277 0.0
O139 O 0.56034 0.51001 0.40043 0.0
C140 C 0.4237 0.47559 0.6264 0.0
O141 O 0.45243 0.50303 0.655 0.0
O142 O 0.53716 0.40465 0.45883 0.0
O143 O 0.51861 0.44798 0.56316 0.0
O144 O 0.54736 0.53153 0.58342 0.0
C145 C 0.57927 0.39972 0.46004 0.0
O146 O 0.60822 0.43343 0.48469 0.0
O147 O 0.57994 0.53055 0.47266 0.0
C148 C 0.4323 0.61595 0.59734 0.0
O149 O 0.40333 0.58235 0.57264 0.0
O150 O 0.47505 0.61244 0.59681 0.0
O151 O 0.48864 0.57105 0.49038 0.0
O152 O 0.46733 0.48775 0.46599 0.0
O153 O 0.43334 0.48739 0.58172 0.0
C154 C 0.54244 0.48073 0.59019 0.0
C155 C 0.4688 0.53792 0.46121 0.0
Zn156 Zn 0.98163 0.54827 0.96583 0.0
Zn157 Zn 0.06002 0.49972 0.06001 0.0
C158 C 0.90502 0.47749 0.92886 0.0
O159 O 0.93963 0.48585 0.89314 0.0
C160 C 0.122 0.57472 0.11549 0.0
O161 O 0.08164 0.57321 0.14205 0.0
O162 O 0.97382 0.61217 0.92972 0.0
O163 O 0.00586 0.57266 0.02864 0.0
O164 O 0.00256 0.52016 0.09184 0.0
C165 C 0.93791 0.62768 0.94717 0.0
O166 O 0.91648 0.6078 0.98984 0.0
O167 O 0.91443 0.49685 0.96884 0.0
C168 C 0.10452 0.4194 0.06709 0.0
O169 O 0.13316 0.45413 0.03434 0.0
O170 O 0.06523 0.42818 0.08433 0.0
O171 O 0.0574 0.49685 0.98979 0.0
O172 O 0.02808 0.5164 0.92596 0.0
O173 O 0.12109 0.55082 0.07659 0.0
C174 C 0.986 0.55408 0.07032 0.0
C175 C 0.05615 0.49465 0.94522 0.0
C176 C 0.14871 0.06579 0.34651 0.0
C177 C 0.16065 0.12239 0.33678 0.0
C178 C 0.1167 0.04096 0.38658 0.0
C179 C 0.09495 0.07175 0.41794 0.0
H180 H 0.16254 0.04016 0.32194 0.0
H181 H 0.10754 0.99706 0.39194 0.0
S182 S 0.11904 0.22204 0.4118 0.0
N183 N 0.15261 0.20919 0.36482 0.0
N184 N 0.09073 0.16223 0.43894 0.0
C185 C 0.10812 0.12859 0.40979 0.0
C186 C 0.14144 0.15397 0.36954 0.0
C187 C 0.38659 0.82158 0.85402 0.0
C188 C 0.39083 0.85772 0.81442 0.0
C189 C 0.40945 0.83875 0.89407 0.0
C190 C 0.4375 0.89265 0.89583 0.0
H191 H 0.36591 0.77956 0.85375 0.0
H192 H 0.40573 0.80929 0.92352 0.0
S193 S 0.46116 0.00225 0.79979 0.0
N194 N 0.42546 0.94912 0.77859 0.0
N195 N 0.4687 0.98178 0.85352 0.0
C196 C 0.44142 0.92934 0.85644 0.0
C197 C 0.41804 0.91175 0.81579 0.0
C198 C 0.56806 0.37836 0.67646 0.0
C199 C 0.59569 0.41066 0.70787 0.0
C200 C 0.55149 0.40157 0.63877 0.0
C201 C 0.56155 0.45841 0.63067 0.0
H202 H 0.55906 0.33439 0.681 0.0
H203 H 0.53035 0.37432 0.61589 0.0
S204 S 0.63249 0.5617 0.70291 0.0
N205 N 0.63254 0.50285 0.72858 0.0
N206 N 0.60121 0.5467 0.65771 0.0
C207 C 0.5892 0.49147 0.66189 0.0
C208 C 0.60631 0.46761 0.70044 0.0
C209 C 0.91008 0.59206 0.17471 0.0
C210 C 0.9183 0.64858 0.16641 0.0
C211 C 0.93065 0.56154 0.14239 0.0
C212 C 0.95966 0.58616 0.10021 0.0
H213 H 0.88879 0.57132 0.20711 0.0
H214 H 0.92458 0.51844 0.151 0.0
S215 S 0.9894 0.73253 0.06049 0.0
N216 N 0.95548 0.72766 0.11227 0.0
N217 N 0.99378 0.67044 0.05098 0.0
C218 C 0.96662 0.6424 0.09062 0.0
C219 C 0.94615 0.67356 0.12394 0.0
C220 C 0.29824 0.119 0.1582 0.0
C221 C 0.29575 0.13548 0.20531 0.0
C222 C 0.33663 0.10023 0.13807 0.0
C223 C 0.37379 0.09675 0.16443 0.0
H224 H 0.26979 0.1196 0.13696 0.0
H225 H 0.33663 0.08728 0.1019 0.0
S226 S 0.38673 0.1403 0.28749 0.0
N227 N 0.33568 0.15129 0.27642 0.0
N228 N 0.40738 0.11483 0.23904 0.0
C229 C 0.37232 0.11422 0.21122 0.0
C230 C 0.33342 0.13383 0.23155 0.0
C231 C 0.19629 0.89986 0.67379 0.0
C232 C 0.22666 0.88394 0.63804 0.0
C233 C 0.15821 0.91967 0.66242 0.0
C234 C 0.1489 0.92423 0.61491 0.0
H235 H 0.20184 0.89712 0.71088 0.0
H236 H 0.13593 0.9315 0.69126 0.0
S237 S 0.21861 0.88825 0.50817 0.0
N238 N 0.24522 0.8741 0.55337 0.0
N239 N 0.17388 0.91131 0.5318 0.0
C240 C 0.17901 0.90816 0.57887 0.0
C241 C 0.21779 0.88805 0.59051 0.0
C242 C 0.80115 0.38537 0.87692 0.0
C243 C 0.76395 0.4101 0.88814 0.0
C244 C 0.84631 0.40655 0.89168 0.0
C245 C 0.85544 0.45221 0.91942 0.0
H246 H 0.79545 0.34986 0.85593 0.0
H247 H 0.87445 0.38727 0.88102 0.0
S248 S 0.77003 0.5322 0.9575 0.0
N249 N 0.73917 0.48314 0.9276 0.0
N250 N 0.82374 0.52215 0.95665 0.0
C251 C 0.81829 0.47689 0.9314 0.0
C252 C 0.77259 0.45603 0.91538 0.0
C253 C 0.71827 0.62361 0.41023 0.0
C254 C 0.72536 0.64198 0.36189 0.0
C255 C 0.67342 0.59255 0.43193 0.0
C256 C 0.63415 0.57852 0.40595 0.0
H257 H 0.74802 0.63166 0.43104 0.0
H258 H 0.67006 0.57765 0.46876 0.0
S259 S 0.63261 0.62281 0.28017 0.0
N260 N 0.68855 0.64863 0.29003 0.0
N261 N 0.60412 0.58967 0.33059 0.0
C262 C 0.64025 0.59874 0.35819 0.0
C263 C 0.68591 0.63054 0.33618 0.0
C264 C 0.17334 0.31456 0.07781 0.0
C265 C 0.16282 0.29771 0.12646 0.0
C266 C 0.15307 0.35285 0.05849 0.0
C267 C 0.1211 0.37503 0.08708 0.0
H268 H 0.19802 0.29865 0.05463 0.0
H269 H 0.16286 0.36557 0.02097 0.0
S270 S 0.08184 0.34523 0.21668 0.0
N271 N 0.11817 0.3067 0.20304 0.0
N272 N 0.07992 0.37808 0.16624 0.0
C273 C 0.10949 0.35793 0.13555 0.0
C274 C 0.13046 0.31942 0.15543 0.0
C275 C 0.59291 0.25495 0.9478 0.0
C276 C 0.61594 0.25722 0.90101 0.0
C277 C 0.56865 0.20491 0.97227 0.0
C278 C 0.56767 0.15531 0.95124 0.0
H279 H 0.59417 0.29215 0.96576 0.0
H280 H 0.5518 0.20507 0.00845 0.0
S281 S 0.62117 0.13981 0.82852 0.0
N282 N 0.63481 0.20629 0.83373 0.0
N283 N 0.5904 0.11204 0.87997 0.0
C284 C 0.5901 0.15726 0.90411 0.0
C285 C 0.61392 0.20827 0.87892 0.0
C286 C 0.90172 0.83005 0.35357 0.0
C287 C 0.88068 0.7762 0.37175 0.0
C288 C 0.92005 0.87101 0.38395 0.0
C289 C 0.91734 0.85921 0.43337 0.0
H290 H 0.90117 0.84118 0.31644 0.0
H291 H 0.93343 0.91261 0.3692 0.0
S292 S 0.8737 0.72265 0.49632 0.0
N293 N 0.86469 0.71184 0.44043 0.0
N294 N 0.89802 0.78873 0.49757 0.0
C295 C 0.8999 0.80479 0.451 0.0
C296 C 0.8819 0.76326 0.42013 0.0
C297 C 0.43089 0.7423 0.66514 0.0
C298 C 0.38169 0.73598 0.67856 0.0
C299 C 0.44713 0.7031 0.63929 0.0
C300 C 0.41472 0.65625 0.62583 0.0
H301 H 0.45699 0.77827 0.67403 0.0
H302 H 0.48528 0.71003 0.62914 0.0
S303 S 0.28246 0.61792 0.65694 0.0
N304 N 0.30102 0.67754 0.67976 0.0
N305 N 0.33117 0.60407 0.63099 0.0
C306 C 0.36545 0.6489 0.64012 0.0
C307 C 0.34903 0.68871 0.66649 0.0
C308 C 0.83376 0.91065 0.67593 0.0
C309 C 0.85074 0.89463 0.717 0.0
C310 C 0.86512 0.93084 0.63411 0.0
C311 C 0.91433 0.93493 0.63184 0.0
H312 H 0.79586 0.90626 0.67573 0.0
H313 H 0.8506 0.94214 0.60303 0.0
S314 S 0.97758 0.90473 0.73112 0.0
N315 N 0.92071 0.88954 0.75413 0.0
N316 N 0.97913 0.92546 0.67502 0.0
C317 C 0.93192 0.92046 0.67295 0.0
C318 C 0.90025 0.90089 0.71568 0.0
C319 C 0.61549 0.19164 0.21318 0.0
C320 C 0.61656 0.15241 0.24851 0.0
C321 C 0.59361 0.17672 0.17232 0.0
C322 C 0.57172 0.12189 0.16509 0.0
H323 H 0.63129 0.23444 0.21742 0.0
H324 H 0.59308 0.20875 0.14666 0.0
S325 S 0.56612 0.00322 0.24666 0.0
N326 N 0.59516 0.05634 0.27344 0.0
N327 N 0.55392 0.02787 0.19645 0.0
C328 C 0.57384 0.08196 0.19956 0.0
C329 C 0.5963 0.09731 0.24129 0.0
C330 C 0.44991 0.562 0.33243 0.0
C331 C 0.42772 0.60459 0.33482 0.0
C332 C 0.46098 0.53882 0.37379 0.0
C333 C 0.4522 0.55907 0.4188 0.0
H334 H 0.45847 0.54619 0.29833 0.0
H335 H 0.47781 0.5059 0.37021 0.0
S336 S 0.39408 0.66977 0.44422 0.0
N337 N 0.39562 0.66475 0.38594 0.0
N338 N 0.41905 0.62355 0.46328 0.0
C339 C 0.42988 0.6016 0.42161 0.0
C340 C 0.417 0.6238 0.37972 0.0
C341 C 0.11628 0.38422 0.91084 0.0
C342 C 0.13102 0.39653 0.86192 0.0
C343 C 0.09231 0.41655 0.93764 0.0
C344 C 0.08386 0.46318 0.91672 0.0
H345 H 0.12171 0.34831 0.92806 0.0
H346 H 0.07872 0.40372 0.97451 0.0
S347 S 0.12029 0.51542 0.79055 0.0
N348 N 0.13802 0.4593 0.7938 0.0
N349 N 0.09473 0.52154 0.84463 0.0
C350 C 0.09989 0.47669 0.86801 0.0
C351 C 0.12327 0.44308 0.84053 0.0
C352 C 0.70584 0.89761 0.89057 0.0
C353 C 0.71142 0.89135 0.84114 0.0
C354 C 0.6697 0.91904 0.91213 0.0
C355 C 0.63779 0.93531 0.8851 0.0
H356 H 0.72977 0.88603 0.91282 0.0
H357 H 0.66697 0.92307 0.95032 0.0
S358 S 0.63601 0.92507 0.75447 0.0
N359 N 0.68117 0.90132 0.76589 0.0
N360 N 0.6136 0.94248 0.80612 0.0
C361 C 0.64304 0.92935 0.83552 0.0
C362 C 0.67977 0.90722 0.81362 0.0
C363 C 0.85372 0.19226 0.40383 0.0
C364 C 0.80813 0.1578 0.40021 0.0
C365 C 0.89 0.17184 0.41899 0.0
C366 C 0.88181 0.11623 0.432 0.0
H367 H 0.8616 0.23542 0.39446 0.0
H368 H 0.92459 0.20011 0.42093 0.0
S369 S 0.76771 0.009 0.4301 0.0
N370 N 0.75627 0.06544 0.41138 0.0
N371 N 0.82405 0.02696 0.44056 0.0
C372 C 0.83603 0.0813 0.42895 0.0
C373 C 0.79929 0.10209 0.41286 0.0
C374 C 0.21943 0.66729 0.17583 0.0
C375 C 0.25432 0.63834 0.17489 0.0
C376 C 0.17655 0.64642 0.15657 0.0
C377 C 0.16787 0.5968 0.13437 0.0
H378 H 0.2254 0.70632 0.19164 0.0
H379 H 0.15033 0.66963 0.15841 0.0
S380 S 0.24709 0.50451 0.12419 0.0
N381 N 0.27667 0.55671 0.15172 0.0
N382 N 0.19673 0.51818 0.1142 0.0
C383 C 0.20238 0.56735 0.1334 0.0
C384 C 0.24546 0.58796 0.15405 0.0
C385 C 0.29657 0.38662 0.63493 0.0
C386 C 0.28594 0.36794 0.68325 0.0
C387 C 0.34166 0.42001 0.61667 0.0
C388 C 0.37792 0.43638 0.64608 0.0
H389 H 0.26937 0.37645 0.61115 0.0
H390 H 0.34757 0.43425 0.57945 0.0
S391 S 0.36937 0.39493 0.77443 0.0
N392 N 0.31592 0.36534 0.75961 0.0
N393 N 0.40097 0.4288 0.72552 0.0
C394 C 0.36817 0.41692 0.6943 0.0
C395 C 0.32209 0.38266 0.71286 0.0
C396 C 0.84492 0.69166 0.90726 0.0
C397 C 0.85687 0.69749 0.85748 0.0
C398 C 0.87282 0.67144 0.93621 0.0
C399 C 0.91383 0.65673 0.91646 0.0
H400 H 0.81324 0.70158 0.92399 0.0
H401 H 0.86133 0.66604 0.97428 0.0
S402 S 0.96237 0.66914 0.78798 0.0
N403 N 0.91353 0.69032 0.78964 0.0
N404 N 0.96649 0.65277 0.84389 0.0
C405 C 0.92715 0.66453 0.86673 0.0
C406 C 0.89841 0.68461 0.83729 0.0
C407 C 0.44746 0.7956 0.13564 0.0
C408 C 0.40285 0.78994 0.16296 0.0
C409 C 0.47061 0.84357 0.10724 0.0
C410 C 0.44989 0.88751 0.10511 0.0
H411 H 0.46351 0.7619 0.13461 0.0
H412 H 0.5042 0.84542 0.0856 0.0
S413 S 0.3361 0.89471 0.17524 0.0
N414 N 0.34085 0.83349 0.1897 0.0
N415 N 0.38395 0.92341 0.13693 0.0
C416 C 0.40636 0.88303 0.13439 0.0
C417 C 0.38298 0.83435 0.16312 0.0
C418 C 0.11347 0.17328 0.67506 0.0
C419 C 0.14157 0.22434 0.65512 0.0
C420 C 0.09676 0.13059 0.64587 0.0
C421 C 0.10819 0.13751 0.59593 0.0
H422 H 0.10619 0.16554 0.71342 0.0
H423 H 0.07684 0.09121 0.66263 0.0
S424 S 0.17358 0.26579 0.52617 0.0
N425 N 0.17408 0.28156 0.58236 0.0
N426 N 0.14466 0.20063 0.52775 0.0
C427 C 0.13391 0.18912 0.57559 0.0
C428 C 0.15005 0.23275 0.60514 0.0
C429 C 0.57857 0.26952 0.3975 0.0
C430 C 0.6276 0.27463 0.38415 0.0
C431 C 0.56309 0.31029 0.42168 0.0
C432 C 0.5961 0.35755 0.43357 0.0
H433 H 0.55197 0.23343 0.38966 0.0
H434 H 0.52504 0.30435 0.43169 0.0
S435 S 0.72821 0.39298 0.40219 0.0
N436 N 0.70879 0.33235 0.38142 0.0
N437 N 0.68 0.40859 0.42729 0.0
C438 C 0.6452 0.36356 0.41958 0.0
C439 C 0.66087 0.32221 0.3948 0.0
loop_
_geom_bond_atom_site_label_1
_geom_bond_atom_site_label_2
_geom_bond_distance
_geom_bond_site_symmetry_2
_ccdc_geom_bond_type
H0 C5 0.930 . S
H1 C8 0.930 . S
H2 C10 0.930 . S
H3 C4 1.016 . S
C4 H3 1.016 . S
C4 N11 1.286 . S
C5 H0 0.930 . S
C5 C6 1.397 . S
C5 C7 1.361 . S
C6 C5 1.397 . S
C6 C10 1.390 . S
C7 C5 1.361 . S
C7 C8 1.393 . S
C7 N11 1.413 . S
C8 H1 0.930 . S
C8 C7 1.393 . S
C8 C9 1.399 . S
C9 C8 1.399 . S
C9 C10 1.381 . S
C10 H2 0.930 . S
C10 C6 1.390 . S
C10 C9 1.381 . S
N11 C4 1.286 . S
N11 C7 1.413 . S
H12 C17 0.930 . S
H13 C20 0.930 . S
H14 C22 0.930 . S
H15 C16 1.016 . S
C16 H15 1.016 . S
C16 N23 1.286 . S
C17 H12 0.930 . S
C17 C18 1.397 . S
C17 C19 1.361 . S
C18 C17 1.397 . S
C18 C22 1.390 . S
C19 C17 1.361 . S
C19 C20 1.393 . S
C19 N23 1.413 . S
C20 H13 0.930 . S
C20 C19 1.393 . S
C20 C21 1.399 . S
C21 C20 1.399 . S
C21 C22 1.381 . S
C22 H14 0.930 . S
C22 C18 1.390 . S
C22 C21 1.381 . S
N23 C16 1.286 . S
N23 C19 1.413 . S
H24 C29 0.930 . S
H25 C32 0.930 . S
H26 C34 0.930 . S
H27 C28 1.016 . S
C28 H27 1.016 . S
C28 N35 1.286 . S
C29 H24 0.930 . S
C29 C30 1.397 . S
C29 C31 1.361 . S
C30 C29 1.397 . S
C30 C34 1.390 . S
C31 C29 1.361 . S
C31 C32 1.393 . S
C31 N35 1.413 . S
C32 H25 0.930 . S
C32 C31 1.393 . S
C32 C33 1.399 . S
C33 C32 1.399 . S
C33 C34 1.381 . S
C34 H26 0.930 . S
C34 C30 1.390 . S
C34 C33 1.381 . S
N35 C28 1.286 . S
N35 C31 1.413 . S
H36 C41 0.930 . S
H37 C44 0.930 . S
H38 C46 0.930 . S
H39 C40 1.016 . S
C40 H39 1.016 . S
C40 N47 1.286 . S
C41 H36 0.930 . S
C41 C42 1.397 . S
C41 C43 1.361 . S
C42 C41 1.397 . S
C42 C46 1.390 . S
C43 C41 1.361 . S
C43 C44 1.393 . S
C43 N47 1.413 . S
C44 H37 0.930 . S
C44 C43 1.393 . S
C44 C45 1.399 . S
C45 C44 1.399 . S
C45 C46 1.381 . S
C46 H38 0.930 . S
C46 C42 1.390 . S
C46 C45 1.381 . S
N47 C40 1.286 . S
N47 C43 1.413 . S
H48 C53 0.930 . S
H49 C56 0.930 . S
H50 C58 0.930 . S
H51 C52 1.016 . S
C52 H51 1.016 . S
C52 N59 1.286 . S
C53 H48 0.930 . S
C53 C54 1.397 . S
C53 C55 1.361 . S
C54 C53 1.397 . S
C54 C58 1.390 . S
C55 C53 1.361 . S
C55 C56 1.393 . S
C55 N59 1.413 . S
C56 H49 0.930 . S
C56 C55 1.393 . S
C56 C57 1.399 . S
C57 C56 1.399 . S
C57 C58 1.381 . S
C58 H50 0.930 . S
C58 C54 1.390 . S
C58 C57 1.381 . S
N59 C52 1.286 . S
N59 C55 1.413 . S
H60 C65 0.930 . S
H61 C68 0.930 . S
H62 C70 0.930 . S
H63 C64 1.016 . S
C64 H63 1.016 . S
C64 N71 1.286 . S
C65 H60 0.930 . S
C65 C66 1.397 . S
C65 C67 1.361 . S
C66 C65 1.397 . S
C66 C70 1.390 . S
C67 C65 1.361 . S
C67 C68 1.393 . S
C67 N71 1.413 . S
C68 H61 0.930 . S
C68 C67 1.393 . S
C68 C69 1.399 . S
C69 C68 1.399 . S
C69 C70 1.381 . S
C70 H62 0.930 . S
C70 C66 1.390 . S
C70 C69 1.381 . S
N71 C64 1.286 . S
N71 C67 1.413 . S
H72 C77 0.930 . S
H73 C80 0.930 . S
H74 C82 0.930 . S
H75 C76 1.016 . S
C76 H75 1.016 . S
C76 N83 1.286 . S
C77 H72 0.930 . S
C77 C78 1.397 . S
C77 C79 1.361 . S
C78 C77 1.397 . S
C78 C82 1.390 . S
C79 C77 1.361 . S
C79 C80 1.393 . S
C79 N83 1.413 . S
C80 H73 0.930 . S
C80 C79 1.393 . S
C80 C81 1.399 . S
C81 C80 1.399 . S
C81 C82 1.381 . S
C82 H74 0.930 . S
C82 C78 1.390 . S
C82 C81 1.381 . S
N83 C76 1.286 . S
N83 C79 1.413 . S
H84 C89 0.930 . S
H85 C92 0.930 . S
H86 C94 0.930 . S
H87 C88 1.016 . S
C88 H87 1.016 . S
C88 N95 1.286 . S
C89 H84 0.930 . S
C89 C90 1.397 . S
C89 C91 1.361 . S
C90 C89 1.397 . S
C90 C94 1.390 . S
C91 C89 1.361 . S
C91 C92 1.393 . S
C91 N95 1.413 . S
C92 H85 0.930 . S
C92 C91 1.393 . S
C92 C93 1.399 . S
C93 C92 1.399 . S
C93 C94 1.381 . S
C94 H86 0.930 . S
C94 C90 1.390 . S
C94 C93 1.381 . S
N95 C88 1.286 . S
N95 C91 1.413 . S
Zn96 O102 1.969 1_545 S
Zn96 O103 1.965 1_545 S
Zn96 O107 2.024 . S
Zn96 O112 1.969 . S
Zn97 O104 1.969 . S
Zn97 O110 1.969 1_565 S
Zn97 O111 1.965 1_665 S
Zn97 O113 2.024 . S
C98 O99 1.229 . S
C98 O107 1.058 . S
O99 C98 1.229 . S
C100 O101 1.229 . S
C100 O113 1.058 . S
O101 C100 1.229 . S
O102 Zn96 1.969 1_565 S
O102 C105 1.267 . S
O103 Zn96 1.965 1_565 S
O103 C114 1.260 1_455 S
O104 Zn97 1.969 . S
O104 C114 1.258 . S
C105 O102 1.267 . S
C105 O106 1.228 . S
O106 C105 1.228 . S
O107 Zn96 2.024 . S
O107 C98 1.058 . S
C108 O109 1.228 . S
C108 O110 1.267 . S
O109 C108 1.228 . S
O110 Zn97 1.969 1_545 S
O110 C108 1.267 . S
O111 Zn97 1.965 1_445 S
O111 C115 1.260 . S
O112 Zn96 1.969 . S
O112 C115 1.258 . S
O113 Zn97 2.024 . S
O113 C100 1.058 . S
C114 O103 1.260 1_655 S
C114 O104 1.258 . S
C115 O111 1.260 . S
C115 O112 1.258 . S
Zn116 O122 1.969 . S
Zn116 O123 1.965 1_565 S
Zn116 O127 2.024 . S
Zn116 O132 1.969 1_556 S
Zn117 O124 1.969 . S
Zn117 O130 1.969 . S
Zn117 O131 1.965 1_545 S
Zn117 O133 2.024 . S
C118 O119 1.229 . S
C118 O127 1.058 . S
O119 C118 1.229 . S
C120 O121 1.229 . S
C120 O133 1.058 . S
O121 C120 1.229 . S
O122 Zn116 1.969 . S
O122 C125 1.267 . S
O123 Zn116 1.965 1_545 S
O123 C134 1.260 . S
O124 Zn117 1.969 . S
O124 C134 1.258 1_554 S
C125 O122 1.267 . S
C125 O126 1.228 . S
O126 C125 1.228 . S
O127 Zn116 2.024 . S
O127 C118 1.058 . S
C128 O129 1.228 . S
C128 O130 1.267 . S
O129 C128 1.228 . S
O130 Zn117 1.969 . S
O130 C128 1.267 . S
O131 Zn117 1.965 1_565 S
O131 C135 1.260 . S
O132 Zn116 1.969 1_554 S
O132 C135 1.258 . S
O133 Zn117 2.024 . S
O133 C120 1.058 . S
C134 O123 1.260 . S
C134 O124 1.258 1_556 S
C135 O131 1.260 . S
C135 O132 1.258 . S
Zn136 O142 1.969 . S
Zn136 O143 1.965 . S
Zn136 O147 2.024 . S
Zn136 O152 1.969 . S
Zn137 O144 1.969 . S
Zn137 O150 1.969 . S
Zn137 O151 1.965 . S
Zn137 O153 2.024 . S
C138 O139 1.229 . S
C138 O147 1.058 . S
O139 C138 1.229 . S
C140 O141 1.229 . S
C140 O153 1.058 . S
O141 C140 1.229 . S
O142 Zn136 1.969 . S
O142 C145 1.267 . S
O143 Zn136 1.965 . S
O143 C154 1.260 . S
O144 Zn137 1.969 . S
O144 C154 1.258 . S
C145 O142 1.267 . S
C145 O146 1.228 . S
O146 C145 1.228 . S
O147 Zn136 2.024 . S
O147 C138 1.058 . S
C148 O149 1.228 . S
C148 O150 1.267 . S
O149 C148 1.228 . S
O150 Zn137 1.969 . S
O150 C148 1.267 . S
O151 Zn137 1.965 . S
O151 C155 1.260 . S
O152 Zn136 1.969 . S
O152 C155 1.258 . S
O153 Zn137 2.024 . S
O153 C140 1.058 . S
C154 O143 1.260 . S
C154 O144 1.258 . S
C155 O151 1.260 . S
C155 O152 1.258 . S
Zn156 O162 1.969 . S
Zn156 O163 1.965 1_556 S
Zn156 O167 2.024 . S
Zn156 O172 1.969 1_655 S
Zn157 O164 1.969 . S
Zn157 O170 1.969 . S
Zn157 O171 1.965 1_554 S
Zn157 O173 2.024 . S
C158 O159 1.229 . S
C158 O167 1.058 . S
O159 C158 1.229 . S
C160 O161 1.229 . S
C160 O173 1.058 . S
O161 C160 1.229 . S
O162 Zn156 1.969 . S
O162 C165 1.267 . S
O163 Zn156 1.965 1_554 S
O163 C174 1.260 . S
O164 Zn157 1.969 . S
O164 C174 1.258 1_455 S
C165 O162 1.267 . S
C165 O166 1.228 . S
O166 C165 1.228 . S
O167 Zn156 2.024 . S
O167 C158 1.058 . S
C168 O169 1.228 . S
C168 O170 1.267 . S
O169 C168 1.228 . S
O170 Zn157 1.969 . S
O170 C168 1.267 . S
O171 Zn157 1.965 1_556 S
O171 C175 1.260 . S
O172 Zn156 1.969 1_455 S
O172 C175 1.258 . S
O173 Zn157 2.024 . S
O173 C160 1.058 . S
C174 O163 1.260 . S
C174 O164 1.258 1_655 S
C175 O171 1.260 . S
C175 O172 1.258 . S
C176 C177 1.369 . S
C176 C178 1.419 . S
C176 H180 0.930 . S
C177 C176 1.369 . S
C177 C186 1.429 . S
C178 C176 1.419 . S
C178 C179 1.363 . S
C178 H181 0.929 . S
C179 C178 1.363 . S
C179 C185 1.428 . S
H180 C176 0.930 . S
H181 C178 0.929 . S
S182 N183 1.613 . S
S182 N184 1.610 . S
N183 S182 1.613 . S
N183 C186 1.350 . S
N184 S182 1.610 . S
N184 C185 1.351 . S
C185 C179 1.428 . S
C185 N184 1.351 . S
C185 C186 1.434 . S
C186 C177 1.429 . S
C186 N183 1.350 . S
C186 C185 1.434 . S
C187 C188 1.369 . S
C187 C189 1.419 . S
C187 H191 0.930 . S
C188 C187 1.369 . S
C188 C197 1.429 . S
C189 C187 1.419 . S
C189 C190 1.363 . S
C189 H192 0.929 . S
C190 C189 1.363 . S
C190 C196 1.428 . S
H191 C187 0.930 . S
H192 C189 0.929 . S
S193 N194 1.613 . S
S193 N195 1.610 . S
N194 S193 1.613 . S
N194 C197 1.350 . S
N195 S193 1.610 . S
N195 C196 1.351 . S
C196 C190 1.428 . S
C196 N195 1.351 . S
C196 C197 1.434 . S
C197 C188 1.429 . S
C197 N194 1.350 . S
C197 C196 1.434 . S
C198 C199 1.369 . S
C198 C200 1.419 . S
C198 H202 0.930 . S
C199 C198 1.369 . S
C199 C208 1.429 . S
C200 C198 1.419 . S
C200 C201 1.363 . S
C200 H203 0.929 . S
C201 C200 1.363 . S
C201 C207 1.428 . S
H202 C198 0.930 . S
H203 C200 0.929 . S
S204 N205 1.613 . S
S204 N206 1.610 . S
N205 S204 1.613 . S
N205 C208 1.350 . S
N206 S204 1.610 . S
N206 C207 1.351 . S
C207 C201 1.428 . S
C207 N206 1.351 . S
C207 C208 1.434 . S
C208 C199 1.429 . S
C208 N205 1.350 . S
C208 C207 1.434 . S
C209 C210 1.369 . S
C209 C211 1.419 . S
C209 H213 0.930 . S
C210 C209 1.369 . S
C210 C219 1.429 . S
C211 C209 1.419 . S
C211 C212 1.363 . S
C211 H214 0.929 . S
C212 C211 1.363 . S
C212 C218 1.428 . S
H213 C209 0.930 . S
H214 C211 0.929 . S
S215 N216 1.613 . S
S215 N217 1.610 . S
N216 S215 1.613 . S
N216 C219 1.350 . S
N217 S215 1.610 . S
N217 C218 1.351 . S
C218 C212 1.428 . S
C218 N217 1.351 . S
C218 C219 1.434 . S
C219 C210 1.429 . S
C219 N216 1.350 . S
C219 C218 1.434 . S
C220 C221 1.369 . S
C220 C222 1.419 . S
C220 H224 0.930 . S
C221 C220 1.369 . S
C221 C230 1.429 . S
C222 C220 1.419 . S
C222 C223 1.363 . S
C222 H225 0.929 . S
C223 C222 1.363 . S
C223 C229 1.428 . S
H224 C220 0.930 . S
H225 C222 0.929 . S
S226 N227 1.613 . S
S226 N228 1.610 . S
N227 S226 1.613 . S
N227 C230 1.350 . S
N228 S226 1.610 . S
N228 C229 1.351 . S
C229 C223 1.428 . S
C229 N228 1.351 . S
C229 C230 1.434 . S
C230 C221 1.429 . S
C230 N227 1.350 . S
C230 C229 1.434 . S
C231 C232 1.369 . S
C231 C233 1.419 . S
C231 H235 0.930 . S
C232 C231 1.369 . S
C232 C241 1.429 . S
C233 C231 1.419 . S
C233 C234 1.363 . S
C233 H236 0.929 . S
C234 C233 1.363 . S
C234 C240 1.428 . S
H235 C231 0.930 . S
H236 C233 0.929 . S
S237 N238 1.613 . S
S237 N239 1.610 . S
N238 S237 1.613 . S
N238 C241 1.350 . S
N239 S237 1.610 . S
N239 C240 1.351 . S
C240 C234 1.428 . S
C240 N239 1.351 . S
C240 C241 1.434 . S
C241 C232 1.429 . S
C241 N238 1.350 . S
C241 C240 1.434 . S
C242 C243 1.369 . S
C242 C244 1.419 . S
C242 H246 0.930 . S
C243 C242 1.369 . S
C243 C252 1.429 . S
C244 C242 1.419 . S
C244 C245 1.363 . S
C244 H247 0.929 . S
C245 C244 1.363 . S
C245 C251 1.428 . S
H246 C242 0.930 . S
H247 C244 0.929 . S
S248 N249 1.613 . S
S248 N250 1.610 . S
N249 S248 1.613 . S
N249 C252 1.350 . S
N250 S248 1.610 . S
N250 C251 1.351 . S
C251 C245 1.428 . S
C251 N250 1.351 . S
C251 C252 1.434 . S
C252 C243 1.429 . S
C252 N249 1.350 . S
C252 C251 1.434 . S
C253 C254 1.369 . S
C253 C255 1.419 . S
C253 H257 0.930 . S
C254 C253 1.369 . S
C254 C263 1.429 . S
C255 C253 1.419 . S
C255 C256 1.363 . S
C255 H258 0.929 . S
C256 C255 1.363 . S
C256 C262 1.428 . S
H257 C253 0.930 . S
H258 C255 0.929 . S
S259 N260 1.613 . S
S259 N261 1.610 . S
N260 S259 1.613 . S
N260 C263 1.350 . S
N261 S259 1.610 . S
N261 C262 1.351 . S
C262 C256 1.428 . S
C262 N261 1.351 . S
C262 C263 1.434 . S
C263 C254 1.429 . S
C263 N260 1.350 . S
C263 C262 1.434 . S
C264 C265 1.369 . S
C264 C266 1.419 . S
C264 H268 0.930 . S
C265 C264 1.369 . S
C265 C274 1.429 . S
C266 C264 1.419 . S
C266 C267 1.363 . S
C266 H269 0.929 . S
C267 C266 1.363 . S
C267 C273 1.428 . S
H268 C264 0.930 . S
H269 C266 0.929 . S
S270 N271 1.613 . S
S270 N272 1.610 . S
N271 S270 1.613 . S
N271 C274 1.350 . S
N272 S270 1.610 . S
N272 C273 1.351 . S
C273 C267 1.428 . S
C273 N272 1.351 . S
C273 C274 1.434 . S
C274 C265 1.429 . S
C274 N271 1.350 . S
C274 C273 1.434 . S
C275 C276 1.369 . S
C275 C277 1.419 . S
C275 H279 0.930 . S
C276 C275 1.369 . S
C276 C285 1.429 . S
C277 C275 1.419 . S
C277 C278 1.363 . S
C277 H280 0.929 . S
C278 C277 1.363 . S
C278 C284 1.428 . S
H279 C275 0.930 . S
H280 C277 0.929 . S
S281 N282 1.613 . S
S281 N283 1.610 . S
N282 S281 1.613 . S
N282 C285 1.350 . S
N283 S281 1.610 . S
N283 C284 1.351 . S
C284 C278 1.428 . S
C284 N283 1.351 . S
C284 C285 1.434 . S
C285 C276 1.429 . S
C285 N282 1.350 . S
C285 C284 1.434 . S
C286 C287 1.369 . S
C286 C288 1.419 . S
C286 H290 0.930 . S
C287 C286 1.369 . S
C287 C296 1.429 . S
C288 C286 1.419 . S
C288 C289 1.363 . S
C288 H291 0.929 . S
C289 C288 1.363 . S
C289 C295 1.428 . S
H290 C286 0.930 . S
H291 C288 0.929 . S
S292 N293 1.613 . S
S292 N294 1.610 . S
N293 S292 1.613 . S
N293 C296 1.350 . S
N294 S292 1.610 . S
N294 C295 1.351 . S
C295 C289 1.428 . S
C295 N294 1.351 . S
C295 C296 1.434 . S
C296 C287 1.429 . S
C296 N293 1.350 . S
C296 C295 1.434 . S
C297 C298 1.369 . S
C297 C299 1.419 . S
C297 H301 0.930 . S
C298 C297 1.369 . S
C298 C307 1.429 . S
C299 C297 1.419 . S
C299 C300 1.363 . S
C299 H302 0.929 . S
C300 C299 1.363 . S
C300 C306 1.428 . S
H301 C297 0.930 . S
H302 C299 0.929 . S
S303 N304 1.613 . S
S303 N305 1.610 . S
N304 S303 1.613 . S
N304 C307 1.350 . S
N305 S303 1.610 . S
N305 C306 1.351 . S
C306 C300 1.428 . S
C306 N305 1.351 . S
C306 C307 1.434 . S
C307 C298 1.429 . S
C307 N304 1.350 . S
C307 C306 1.434 . S
C308 C309 1.369 . S
C308 C310 1.419 . S
C308 H312 0.930 . S
C309 C308 1.369 . S
C309 C318 1.429 . S
C310 C308 1.419 . S
C310 C311 1.363 . S
C310 H313 0.929 . S
C311 C310 1.363 . S
C311 C317 1.428 . S
H312 C308 0.930 . S
H313 C310 0.929 . S
S314 N315 1.613 . S
S314 N316 1.610 . S
N315 S314 1.613 . S
N315 C318 1.350 . S
N316 S314 1.610 . S
N316 C317 1.351 . S
C317 C311 1.428 . S
C317 N316 1.351 . S
C317 C318 1.434 . S
C318 C309 1.429 . S
C318 N315 1.350 . S
C318 C317 1.434 . S
C319 C320 1.369 . S
C319 C321 1.419 . S
C319 H323 0.930 . S
C320 C319 1.369 . S
C320 C329 1.429 . S
C321 C319 1.419 . S
C321 C322 1.363 . S
C321 H324 0.929 . S
C322 C321 1.363 . S
C322 C328 1.428 . S
H323 C319 0.930 . S
H324 C321 0.929 . S
S325 N326 1.613 1_565 S
S325 N327 1.610 1_565 S
N326 S325 1.613 1_545 S
N326 C329 1.350 . S
N327 S325 1.610 1_545 S
N327 C328 1.351 . S
C328 C322 1.428 . S
C328 N327 1.351 . S
C328 C329 1.434 . S
C329 C320 1.429 . S
C329 N326 1.350 . S
C329 C328 1.434 . S
C330 C331 1.369 . S
C330 C332 1.419 . S
C330 H334 0.930 . S
C331 C330 1.369 . S
C331 C340 1.429 . S
C332 C330 1.419 . S
C332 C333 1.363 . S
C332 H335 0.929 . S
C333 C332 1.363 . S
C333 C339 1.428 . S
H334 C330 0.930 . S
H335 C332 0.929 . S
S336 N337 1.613 . S
S336 N338 1.610 . S
N337 S336 1.613 . S
N337 C340 1.350 . S
N338 S336 1.610 . S
N338 C339 1.351 . S
C339 C333 1.428 . S
C339 N338 1.351 . S
C339 C340 1.434 . S
C340 C331 1.429 . S
C340 N337 1.350 . S
C340 C339 1.434 . S
C341 C342 1.369 . S
C341 C343 1.419 . S
C341 H345 0.930 . S
C342 C341 1.369 . S
C342 C351 1.429 . S
C343 C341 1.419 . S
C343 C344 1.363 . S
C343 H346 0.929 . S
C344 C343 1.363 . S
C344 C350 1.428 . S
H345 C341 0.930 . S
H346 C343 0.929 . S
S347 N348 1.613 . S
S347 N349 1.610 . S
N348 S347 1.613 . S
N348 C351 1.350 . S
N349 S347 1.610 . S
N349 C350 1.351 . S
C350 C344 1.428 . S
C350 N349 1.351 . S
C350 C351 1.434 . S
C351 C342 1.429 . S
C351 N348 1.350 . S
C351 C350 1.434 . S
C352 C353 1.369 . S
C352 C354 1.419 . S
C352 H356 0.930 . S
C353 C352 1.369 . S
C353 C362 1.429 . S
C354 C352 1.419 . S
C354 C355 1.363 . S
C354 H357 0.929 . S
C355 C354 1.363 . S
C355 C361 1.428 . S
H356 C352 0.930 . S
H357 C354 0.929 . S
S358 N359 1.613 . S
S358 N360 1.610 . S
N359 S358 1.613 . S
N359 C362 1.350 . S
N360 S358 1.610 . S
N360 C361 1.351 . S
C361 C355 1.428 . S
C361 N360 1.351 . S
C361 C362 1.434 . S
C362 C353 1.429 . S
C362 N359 1.350 . S
C362 C361 1.434 . S
C363 C364 1.369 . S
C363 C365 1.419 . S
C363 H367 0.930 . S
C364 C363 1.369 . S
C364 C373 1.429 . S
C365 C363 1.419 . S
C365 C366 1.363 . S
C365 H368 0.929 . S
C366 C365 1.363 . S
C366 C372 1.428 . S
H367 C363 0.930 . S
H368 C365 0.929 . S
S369 N370 1.613 1_565 S
S369 N371 1.610 . S
N370 S369 1.613 1_545 S
N370 C373 1.350 . S
N371 S369 1.610 . S
N371 C372 1.350 1_565 S
C372 C366 1.428 . S
C372 N371 1.350 1_545 S
C372 C373 1.434 . S
C373 C364 1.429 . S
C373 N370 1.350 . S
C373 C372 1.434 . S
C374 C375 1.369 . S
C374 C376 1.419 . S
C374 H378 0.930 . S
C375 C374 1.369 . S
C375 C384 1.429 . S
C376 C374 1.419 . S
C376 C377 1.363 . S
C376 H379 0.929 . S
C377 C376 1.363 . S
C377 C383 1.428 . S
H378 C374 0.930 . S
H379 C376 0.929 . S
S380 N381 1.613 . S
S380 N382 1.610 . S
N381 S380 1.613 . S
N381 C384 1.350 . S
N382 S380 1.610 . S
N382 C383 1.351 . S
C383 C377 1.428 . S
C383 N382 1.351 . S
C383 C384 1.434 . S
C384 C375 1.429 . S
C384 N381 1.350 . S
C384 C383 1.434 . S
C385 C386 1.369 . S
C385 C387 1.419 . S
C385 H389 0.930 . S
C386 C385 1.369 . S
C386 C395 1.429 . S
C387 C385 1.419 . S
C387 C388 1.363 . S
C387 H390 0.929 . S
C388 C387 1.363 . S
C388 C394 1.428 . S
H389 C385 0.930 . S
H390 C387 0.929 . S
S391 N392 1.613 . S
S391 N393 1.610 . S
N392 S391 1.613 . S
N392 C395 1.350 . S
N393 S391 1.610 . S
N393 C394 1.351 . S
C394 C388 1.428 . S
C394 N393 1.351 . S
C394 C395 1.434 . S
C395 C386 1.429 . S
C395 N392 1.350 . S
C395 C394 1.434 . S
C396 C397 1.369 . S
C396 C398 1.419 . S
C396 H400 0.930 . S
C397 C396 1.369 . S
C397 C406 1.429 . S
C398 C396 1.419 . S
C398 C399 1.363 . S
C398 H401 0.929 . S
C399 C398 1.363 . S
C399 C405 1.428 . S
H400 C396 0.930 . S
H401 C398 0.929 . S
S402 N403 1.613 . S
S402 N404 1.610 1_655 S
N403 S402 1.613 . S
N403 C406 1.350 . S
N404 S402 1.610 1_455 S
N404 C405 1.351 1_455 S
C405 C399 1.428 . S
C405 N404 1.351 1_655 S
C405 C406 1.434 . S
C406 C397 1.429 . S
C406 N403 1.350 . S
C406 C405 1.434 . S
C407 C408 1.369 . S
C407 C409 1.419 . S
C407 H411 0.930 . S
C408 C407 1.369 . S
C408 C417 1.429 . S
C409 C407 1.419 . S
C409 C410 1.363 . S
C409 H412 0.929 . S
C410 C409 1.363 . S
C410 C416 1.428 . S
H411 C407 0.930 . S
H412 C409 0.929 . S
S413 N414 1.613 . S
S413 N415 1.610 . S
N414 S413 1.613 . S
N414 C417 1.350 . S
N415 S413 1.610 . S
N415 C416 1.351 . S
C416 C410 1.428 . S
C416 N415 1.351 . S
C416 C417 1.434 . S
C417 C408 1.429 . S
C417 N414 1.350 . S
C417 C416 1.434 . S
C418 C419 1.369 . S
C418 C420 1.419 . S
C418 H422 0.930 . S
C419 C418 1.369 . S
C419 C428 1.429 . S
C420 C418 1.419 . S
C420 C421 1.363 . S
C420 H423 0.929 . S
C421 C420 1.363 . S
C421 C427 1.428 . S
H422 C418 0.930 . S
H423 C420 0.929 . S
S424 N425 1.613 . S
S424 N426 1.610 . S
N425 S424 1.613 . S
N425 C428 1.350 . S
N426 S424 1.610 . S
N426 C427 1.351 . S
C427 C421 1.428 . S
C427 N426 1.351 . S
C427 C428 1.434 . S
C428 C419 1.429 . S
C428 N425 1.350 . S
C428 C427 1.434 . S
C429 C430 1.369 . S
C429 C431 1.419 . S
C429 H433 0.930 . S
C430 C429 1.369 . S
C430 C439 1.429 . S
C431 C429 1.419 . S
C431 C432 1.363 . S
C431 H434 0.929 . S
C432 C431 1.363 . S
C432 C438 1.428 . S
H433 C429 0.930 . S
H434 C431 0.929 . S
S435 N436 1.613 . S
S435 N437 1.610 . S
N436 S435 1.613 . S
N436 C439 1.350 . S
N437 S435 1.610 . S
N437 C438 1.351 . S
C438 C432 1.428 . S
C438 N437 1.351 . S
C438 C439 1.434 . S
C439 C430 1.429 . S
C439 N436 1.350 . S
C439 C438 1.434 . S
C177 C6 1.558 . S
C179 C115 1.558 . S
C188 C18 1.486 . S
C190 C118 1.419 . S
C201 C154 1.834 . S
C199 C28 1.847 . S
C210 C40 1.285 . S
C212 C174 1.270 . S
C223 C128 1.812 . S
C221 C9 1.833 . S
C234 C105 1.426 . S
C232 C16 1.440 . S
C245 C158 1.500 . S
C243 C30 1.639 . S
C256 C138 1.210 . S
C254 C42 1.263 . S
C265 C4 1.413 . S
C267 C168 1.302 . S
C278 C134 1.761 . S
C276 C33 1.773 . S
C287 C45 1.475 . S
C289 C100 1.438 . S
C298 C21 1.507 . S
C300 C148 1.461 . S
C311 C114 1.583 . S
C309 C57 1.586 . S
C320 C66 1.463 . S
C322 C120 1.413 . S
C331 C76 1.865 . S
C333 C155 1.847 . S
C342 C88 1.223 . S
C344 C175 1.224 . S
C353 C54 1.813 . S
C355 C125 1.794 . S
C366 C108 1.480 . S
C364 C64 1.494 . S
C377 C160 1.433 . S
C375 C78 1.600 . S
C388 C140 1.246 . S
C386 C93 1.293 . S
C397 C52 1.383 . S
C399 C165 1.287 . S
C410 C135 1.763 . S
C408 C81 1.768 . S
C421 C98 1.403 . S
C419 C90 1.459 . S
C430 C69 1.526 . S
C432 C145 1.479 . S
