# Generated by pormake.
# Topology nom, (4,4)-cn, num edge types: 1
# Building blocks:
#     Node 0, Type 0, BuildingBlock: MUDLON_clean_linker_0, # of connection points: 4
#     Node 1, Type 0, BuildingBlock: MUDLON_clean_linker_0, # of connection points: 4
#     Node 2, Type 0, BuildingBlock: MUDLON_clean_linker_0, # of connection points: 4
#     Node 3, Type 0, BuildingBlock: MUDLON_clean_linker_0, # of connection points: 4
#     Node 4, Type 0, BuildingBlock: MUDLON_clean_linker_0, # of connection points: 4
#     Node 5, Type 0, BuildingBlock: MUDLON_clean_linker_0, # of connection points: 4
#     Node 6, Type 1, BuildingBlock: TATPOV_clean_sbu_0, # of connection points: 4
#     Node 7, Type 1, BuildingBlock: TATPOV_clean_sbu_0, # of connection points: 4
#     Node 8, Type 1, BuildingBlock: TATPOV_clean_sbu_0, # of connection points: 4
#     Node 9, Type 1, BuildingBlock: TATPOV_clean_sbu_0, # of connection points: 4
#     Node 10, Type 1, BuildingBlock: TATPOV_clean_sbu_0, # of connection points: 4
#     Node 11, Type 1, BuildingBlock: TATPOV_clean_sbu_0, # of connection points: 4
#     Edge 12, Type (0, 1), BuildingBlock: XIVTED_clean_linker_0, # of connection points: 2
#     Edge 13, Type (0, 1), BuildingBlock: XIVTED_clean_linker_0, # of connection points: 2
#     Edge 14, Type (0, 1), BuildingBlock: XIVTED_clean_linker_0, # of connection points: 2
#     Edge 15, Type (0, 1), BuildingBlock: XIVTED_clean_linker_0, # of connection points: 2
#     Edge 16, Type (0, 1), BuildingBlock: XIVTED_clean_linker_0, # of connection points: 2
#     Edge 17, Type (0, 1), BuildingBlock: XIVTED_clean_linker_0, # of connection points: 2
#     Edge 18, Type (0, 1), BuildingBlock: XIVTED_clean_linker_0, # of connection points: 2
#     Edge 19, Type (0, 1), BuildingBlock: XIVTED_clean_linker_0, # of connection points: 2
#     Edge 20, Type (0, 1), BuildingBlock: XIVTED_clean_linker_0, # of connection points: 2
#     Edge 21, Type (0, 1), BuildingBlock: XIVTED_clean_linker_0, # of connection points: 2
#     Edge 22, Type (0, 1), BuildingBlock: XIVTED_clean_linker_0, # of connection points: 2
#     Edge 23, Type (0, 1), BuildingBlock: XIVTED_clean_linker_0, # of connection points: 2
#     Edge 24, Type (0, 1), BuildingBlock: XIVTED_clean_linker_0, # of connection points: 2
#     Edge 25, Type (0, 1), BuildingBlock: XIVTED_clean_linker_0, # of connection points: 2
#     Edge 26, Type (0, 1), BuildingBlock: XIVTED_clean_linker_0, # of connection points: 2
#     Edge 27, Type (0, 1), BuildingBlock: XIVTED_clean_linker_0, # of connection points: 2
#     Edge 28, Type (0, 1), BuildingBlock: XIVTED_clean_linker_0, # of connection points: 2
#     Edge 29, Type (0, 1), BuildingBlock: XIVTED_clean_linker_0, # of connection points: 2
#     Edge 30, Type (0, 1), BuildingBlock: XIVTED_clean_linker_0, # of connection points: 2
#     Edge 31, Type (0, 1), BuildingBlock: XIVTED_clean_linker_0, # of connection points: 2
#     Edge 32, Type (0, 1), BuildingBlock: XIVTED_clean_linker_0, # of connection points: 2
#     Edge 33, Type (0, 1), BuildingBlock: XIVTED_clean_linker_0, # of connection points: 2
#     Edge 34, Type (0, 1), BuildingBlock: XIVTED_clean_linker_0, # of connection points: 2
#     Edge 35, Type (0, 1), BuildingBlock: XIVTED_clean_linker_0, # of connection points: 2
# Relax obj value: 0.023
# Max RMSD: 0.119
# Mean RMSD: 0.104
data_MOF--net-nom--node1-TATPOV_clean_sbu_0--node2-MUDLON_clean_linker_0--edge1-XIVTED_clean_linker_0
_symmetry_space_group_name_H-M    P1
_symmetry_Int_Tables_number       1
_symmetry_cell_setting            triclinic
loop_
_symmetry_equiv_pos_as_xyz
'x, y, z'
_cell_length_a     59.772268
_cell_length_b     61.103931
_cell_length_c     60.422161
_cell_angle_alpha  91.025908
_cell_angle_beta   90.536072
_cell_angle_gamma 120.37432
loop_
_atom_site_label
_atom_site_type_symbol
_atom_site_fract_x
_atom_site_fract_y
_atom_site_fract_z
_atom_type_partial_charge
H0 H 0.16274 0.52989 0.32803 0.0
N1 N 0.11205 0.51499 0.32703 0.0
H2 H 0.19604 0.55916 0.30353 0.0
H3 H 0.10368 0.52744 0.28437 0.0
H4 H 0.1369 0.55642 0.26004 0.0
H5 H 0.13206 0.56556 0.33685 0.0
H6 H 0.14903 0.58703 0.37248 0.0
H7 H 0.1135 0.49415 0.36514 0.0
H8 H 0.13094 0.51582 0.40121 0.0
H9 H 0.07116 0.46803 0.32517 0.0
H10 H 0.0925 0.54642 0.31955 0.0
H11 H 0.02548 0.45514 0.31905 0.0
H12 H 0.04772 0.53394 0.3124 0.0
H13 H 0.90142 0.42256 0.27577 0.0
H14 H 0.8819 0.40789 0.23864 0.0
H15 H 0.9185 0.48589 0.21839 0.0
H16 H 0.93821 0.50005 0.25531 0.0
H17 H 0.91366 0.50362 0.29833 0.0
H18 H 0.87808 0.49723 0.32197 0.0
H19 H 0.86789 0.42495 0.3413 0.0
H20 H 0.90353 0.43159 0.31703 0.0
H21 H 0.9511 0.44134 0.28227 0.0
H22 H 0.9949 0.45119 0.29227 0.0
H23 H 0.00763 0.51873 0.32791 0.0
N24 N 0.93034 0.47162 0.29031 0.0
H25 H 0.96458 0.50967 0.31631 0.0
C26 C 0.13053 0.52795 0.3095 0.0
C27 C 0.1568 0.53545 0.31318 0.0
C28 C 0.17591 0.55205 0.29897 0.0
C29 C 0.16918 0.56094 0.28024 0.0
C30 C 0.14277 0.55083 0.2749 0.0
C31 C 0.12363 0.53431 0.28918 0.0
C32 C 0.12112 0.52803 0.34834 0.0
C33 C 0.13106 0.55434 0.35085 0.0
C34 C 0.14092 0.56667 0.37127 0.0
C35 C 0.14123 0.5531 0.38968 0.0
C36 C 0.1311 0.52679 0.38727 0.0
C37 C 0.12102 0.51438 0.36678 0.0
C38 C 0.08537 0.50809 0.32272 0.0
C39 C 0.06601 0.48241 0.32245 0.0
C40 C 0.03994 0.47512 0.31884 0.0
C41 C 0.03271 0.49346 0.31527 0.0
C42 C 0.05225 0.51922 0.31564 0.0
C43 C 0.07811 0.52647 0.31965 0.0
C44 C 0.92129 0.46239 0.2681 0.0
C45 C 0.90553 0.43635 0.26314 0.0
C46 C 0.89428 0.42805 0.24198 0.0
C47 C 0.89857 0.44569 0.2255 0.0
C48 C 0.9151 0.47171 0.23048 0.0
C49 C 0.92632 0.47991 0.25157 0.0
C50 C 0.91105 0.46812 0.30604 0.0
C51 C 0.90392 0.4866 0.30794 0.0
C52 C 0.8837 0.48293 0.32156 0.0
C53 C 0.87016 0.46059 0.33364 0.0
C54 C 0.87778 0.44225 0.33208 0.0
C55 C 0.89814 0.44601 0.31836 0.0
C56 C 0.95473 0.47508 0.29823 0.0
C57 C 0.96332 0.45826 0.29222 0.0
C58 C 0.9884 0.46383 0.29817 0.0
C59 C 0.00516 0.48604 0.31063 0.0
C60 C 0.99574 0.50191 0.31771 0.0
C61 C 0.97098 0.49663 0.31135 0.0
H62 H 0.51247 0.89537 0.47091 0.0
N63 N 0.51643 0.93901 0.46007 0.0
H64 H 0.48027 0.86305 0.49449 0.0
H65 H 0.48498 0.94611 0.4894 0.0
H66 H 0.45385 0.9146 0.51363 0.0
H67 H 0.46726 0.92502 0.44593 0.0
H68 H 0.44693 0.90456 0.41056 0.0
H69 H 0.53885 0.93045 0.42581 0.0
H70 H 0.51875 0.91032 0.38995 0.0
H71 H 0.56614 0.97084 0.46961 0.0
H72 H 0.49418 0.9687 0.45599 0.0
H73 H 0.5886 0.01705 0.47284 0.0
H74 H 0.51578 0.01448 0.46088 0.0
H75 H 0.64223 0.16349 0.50816 0.0
H76 H 0.63807 0.17771 0.54516 0.0
H77 H 0.55637 0.12114 0.54365 0.0
H78 H 0.56062 0.10787 0.50633 0.0
H79 H 0.56283 0.13415 0.47404 0.0
H80 H 0.56371 0.16926 0.45463 0.0
H81 H 0.64266 0.19538 0.43577 0.0
H82 H 0.64175 0.16041 0.45571 0.0
H83 H 0.61703 0.09648 0.50003 0.0
H84 H 0.59537 0.05066 0.49508 0.0
H85 H 0.54352 0.05338 0.44621 0.0
N86 N 0.60477 0.12838 0.48203 0.0
H87 H 0.564 0.09881 0.45242 0.0
C88 C 0.50125 0.92318 0.47797 0.0
C89 C 0.5001 0.89987 0.4806 0.0
C90 C 0.48166 0.88141 0.49417 0.0
C91 C 0.46405 0.88597 0.50573 0.0
C92 C 0.46658 0.91011 0.5045 0.0
C93 C 0.48475 0.92842 0.49064 0.0
C94 C 0.50467 0.92928 0.43849 0.0
C95 C 0.47879 0.92228 0.43371 0.0
C96 C 0.46718 0.91059 0.4134 0.0
C97 C 0.48119 0.90571 0.39743 0.0
C98 C 0.50732 0.91347 0.40201 0.0
C99 C 0.5189 0.92514 0.42236 0.0
C100 C 0.52847 0.96619 0.46301 0.0
C101 C 0.55512 0.98036 0.46776 0.0
C102 C 0.56786 0.00682 0.46972 0.0
C103 C 0.55408 0.01978 0.46734 0.0
C104 C 0.52726 0.00543 0.4625 0.0
C105 C 0.51469 0.97902 0.46003 0.0
C106 C 0.60188 0.13463 0.50457 0.0
C107 C 0.62352 0.15408 0.51597 0.0
C108 C 0.62109 0.16205 0.53715 0.0
C109 C 0.59686 0.15059 0.54743 0.0
C110 C 0.57524 0.13067 0.53612 0.0
C111 C 0.57766 0.12287 0.51485 0.0
C112 C 0.60237 0.14473 0.46639 0.0
C113 C 0.5801 0.14703 0.46526 0.0
C114 C 0.5806 0.16712 0.45407 0.0
C115 C 0.60339 0.18535 0.44393 0.0
C116 C 0.62495 0.1819 0.44374 0.0
C117 C 0.6244 0.1618 0.45489 0.0
C118 C 0.59226 0.1014 0.47691 0.0
C119 C 0.60095 0.08716 0.48825 0.0
C120 C 0.58862 0.06087 0.48522 0.0
C121 C 0.56753 0.04801 0.47022 0.0
C122 C 0.55926 0.06238 0.45831 0.0
C123 C 0.57126 0.0887 0.46174 0.0
H124 H 0.496 0.6458 0.64245 0.0
N125 N 0.48822 0.60303 0.65961 0.0
H126 H 0.46643 0.65168 0.61839 0.0
H127 H 0.4443 0.56481 0.6387 0.0
H128 H 0.4145 0.57051 0.61478 0.0
H129 H 0.44104 0.57118 0.67774 0.0
H130 H 0.42844 0.57275 0.71556 0.0
H131 H 0.51666 0.63633 0.69171 0.0
H132 H 0.50391 0.63816 0.72999 0.0
H133 H 0.53425 0.61589 0.64354 0.0
H134 H 0.46416 0.55165 0.66663 0.0
H135 H 0.55406 0.58947 0.63992 0.0
H136 H 0.48404 0.5255 0.66403 0.0
H137 H 0.62061 0.52063 0.63442 0.0
H138 H 0.6347 0.51183 0.5991 0.0
H139 H 0.55509 0.45662 0.5817 0.0
H140 H 0.54133 0.46536 0.61695 0.0
H141 H 0.53141 0.44975 0.65253 0.0
H142 H 0.53008 0.41598 0.67417 0.0
H143 H 0.60338 0.46994 0.70569 0.0
H144 H 0.605 0.50348 0.68303 0.0
H145 H 0.59272 0.54596 0.66283 0.0
H146 H 0.57107 0.57081 0.66391 0.0
H147 H 0.49986 0.50488 0.64042 0.0
N148 N 0.57296 0.49801 0.65 0.0
H149 H 0.52145 0.48005 0.64039 0.0
C150 C 0.47239 0.60501 0.64251 0.0
C151 C 0.47854 0.62927 0.636 0.0
C152 C 0.46163 0.63256 0.62224 0.0
C153 C 0.43802 0.61155 0.61482 0.0
C154 C 0.43241 0.58708 0.62047 0.0
C155 C 0.44951 0.5838 0.63409 0.0
C156 C 0.48002 0.60357 0.68188 0.0
C157 C 0.45505 0.58578 0.68892 0.0
C158 C 0.44784 0.58666 0.71064 0.0
C159 C 0.46527 0.60546 0.72575 0.0
C160 C 0.49007 0.62351 0.71865 0.0
C161 C 0.4974 0.62244 0.6969 0.0
C162 C 0.49789 0.586 0.65549 0.0
C163 C 0.5231 0.59606 0.64768 0.0
C164 C 0.53445 0.58097 0.64588 0.0
C165 C 0.52082 0.5554 0.65204 0.0
C166 C 0.4951 0.54504 0.65903 0.0
C167 C 0.4837 0.56013 0.66065 0.0
C168 C 0.58003 0.4938 0.62833 0.0
C169 C 0.60625 0.50685 0.62282 0.0
C170 C 0.61421 0.5018 0.60267 0.0
C171 C 0.59599 0.48344 0.58765 0.0
C172 C 0.56962 0.47061 0.59306 0.0
C173 C 0.56169 0.47577 0.6132 0.0
C174 C 0.56854 0.47916 0.66599 0.0
C175 C 0.54695 0.45449 0.66436 0.0
C176 C 0.54616 0.43512 0.67692 0.0
C177 C 0.56685 0.4401 0.69146 0.0
C178 C 0.5874 0.46527 0.69429 0.0
C179 C 0.58824 0.48454 0.68158 0.0
C180 C 0.55884 0.51127 0.6515 0.0
C181 C 0.57238 0.5369 0.65811 0.0
C182 C 0.56001 0.55111 0.65844 0.0
C183 C 0.53375 0.53998 0.65195 0.0
C184 C 0.52005 0.51406 0.64564 0.0
C185 C 0.53245 0.49981 0.64549 0.0
H186 H 0.12994 0.62714 0.8141 0.0
N187 N 0.08909 0.58739 0.79514 0.0
H188 H 0.16404 0.62727 0.83668 0.0
H189 H 0.08724 0.54535 0.81286 0.0
H190 H 0.12032 0.54522 0.83647 0.0
H191 H 0.1105 0.56328 0.77271 0.0
H192 H 0.13451 0.57706 0.73857 0.0
H193 H 0.09095 0.62194 0.76798 0.0
H194 H 0.11345 0.63489 0.73289 0.0
H195 H 0.05573 0.59556 0.81692 0.0
H196 H 0.06083 0.53919 0.77697 0.0
H197 H 0.00897 0.56726 0.81974 0.0
H198 H 0.01396 0.5104 0.78 0.0
H199 H 0.86881 0.5011 0.82169 0.0
H200 H 0.84662 0.49086 0.85709 0.0
H201 H 0.87415 0.43902 0.87002 0.0
H202 H 0.89599 0.44922 0.83446 0.0
H203 H 0.89109 0.43536 0.79705 0.0
H204 H 0.85596 0.40013 0.77552 0.0
H205 H 0.82943 0.4503 0.75365 0.0
H206 H 0.8644 0.48515 0.77526 0.0
H207 H 0.93137 0.5064 0.8382 0.0
H208 H 0.97796 0.52855 0.83648 0.0
H209 H 0.9727 0.50671 0.76747 0.0
N210 N 0.89622 0.48216 0.80419 0.0
H211 H 0.92564 0.48346 0.76917 0.0
C212 C 0.10603 0.58638 0.81176 0.0
C213 C 0.12756 0.60923 0.81933 0.0
C214 C 0.14699 0.60923 0.83233 0.0
C215 C 0.14517 0.58623 0.83829 0.0
C216 C 0.12273 0.5633 0.83181 0.0
C217 C 0.10351 0.56334 0.81849 0.0
C218 C 0.09938 0.59202 0.77312 0.0
C219 C 0.11092 0.57882 0.76405 0.0
C220 C 0.12453 0.58665 0.74434 0.0
C221 C 0.12644 0.60748 0.73306 0.0
C222 C 0.11318 0.61934 0.74142 0.0
C223 C 0.09998 0.61178 0.76132 0.0
C224 C 0.06171 0.56959 0.79677 0.0
C225 C 0.0467 0.57695 0.80892 0.0
C226 C 0.02002 0.56065 0.81061 0.0
C227 C 0.0077 0.53644 0.80022 0.0
C228 C 0.02282 0.52897 0.78806 0.0
C229 C 0.04962 0.54538 0.78638 0.0
C230 C 0.88406 0.47606 0.82551 0.0
C231 C 0.87005 0.4876 0.83224 0.0
C232 C 0.85749 0.48176 0.85247 0.0
C233 C 0.85869 0.46417 0.86642 0.0
C234 C 0.87257 0.45239 0.85954 0.0
C235 C 0.88513 0.45825 0.83926 0.0
C236 C 0.8801 0.46282 0.7879 0.0
C237 C 0.878 0.43882 0.78726 0.0
C238 C 0.85789 0.41872 0.775 0.0
C239 C 0.83972 0.42234 0.76306 0.0
C240 C 0.84318 0.44686 0.76245 0.0
C241 C 0.86313 0.46682 0.77479 0.0
C242 C 0.92407 0.49174 0.80411 0.0
C243 C 0.93978 0.5052 0.82278 0.0
C244 C 0.96676 0.51845 0.82174 0.0
C245 C 0.97913 0.51953 0.80183 0.0
C246 C 0.9638 0.50591 0.7832 0.0
C247 C 0.93668 0.49244 0.78425 0.0
H248 H 0.53661 0.12789 0.01207 0.0
N249 N 0.54185 0.1049 0.97655 0.0
H250 H 0.57122 0.16446 0.03237 0.0
H251 H 0.5933 0.11997 0.97486 0.0
H252 H 0.62824 0.15617 0.99546 0.0
H253 H 0.53175 0.14011 0.9629 0.0
H254 H 0.53955 0.15907 0.9263 0.0
H255 H 0.5612 0.09213 0.94087 0.0
H256 H 0.56821 0.11045 0.90394 0.0
H257 H 0.49257 0.07186 0.96762 0.0
H258 H 0.56413 0.0764 0.98797 0.0
H259 H 0.47072 0.02582 0.96727 0.0
H260 H 0.54202 0.03021 0.98927 0.0
H261 H 0.4006 0.88504 0.99616 0.0
H262 H 0.38886 0.86545 0.03237 0.0
H263 H 0.47007 0.90243 0.0513 0.0
H264 H 0.48155 0.92187 0.01484 0.0
H265 H 0.48577 0.9022 0.98081 0.0
H266 H 0.48359 0.86635 0.96028 0.0
H267 H 0.4139 0.85372 0.92635 0.0
H268 H 0.41661 0.8899 0.9467 0.0
H269 H 0.43029 0.94577 0.98957 0.0
H270 H 0.45399 0.99185 0.99002 0.0
H271 H 0.52288 0.99152 0.96915 0.0
N272 N 0.44779 0.91468 0.981 0.0
H273 H 0.49926 0.94524 0.97035 0.0
C274 C 0.56232 0.12123 0.99203 0.0
C275 C 0.55659 0.13343 0.00897 0.0
C276 C 0.57647 0.15438 0.02053 0.0
C277 C 0.60259 0.16356 0.01534 0.0
C278 C 0.60834 0.14992 -0.00041 0.0
C279 C 0.58839 0.12899 0.98799 0.0
C280 C 0.54555 0.11457 0.95449 0.0
C281 C 0.53965 0.13353 0.95007 0.0
C282 C 0.54423 0.14439 0.92928 0.0
C283 C 0.55445 0.13615 0.91243 0.0
C284 C 0.56016 0.11696 0.91671 0.0
C285 C 0.5561 0.10646 0.93771 0.0
C286 C 0.52981 0.0777 0.97811 0.0
C287 C 0.50343 0.06284 0.97245 0.0
C288 C 0.49094 0.03644 0.97242 0.0
C289 C 0.50439 0.02402 0.97858 0.0
C290 C 0.53099 0.03897 0.98424 0.0
C291 C 0.54366 0.06554 0.98379 0.0
C292 C 0.4418 0.90482 0.00293 0.0
C293 C 0.41578 0.88903 0.00824 0.0
C294 C 0.40916 0.87796 0.02891 0.0
C295 C 0.42855 0.88244 0.0447 0.0
C296 C 0.45473 0.89844 0.03939 0.0
C297 C 0.46132 0.90963 0.01866 0.0
C298 C 0.45127 0.89873 0.96524 0.0
C299 C 0.47058 0.89232 0.96838 0.0
C300 C 0.46912 0.87159 0.95679 0.0
C301 C 0.44831 0.85685 0.94192 0.0
C302 C 0.4303 0.86468 0.93752 0.0
C303 C 0.43181 0.88541 0.9491 0.0
C304 C 0.46272 0.94194 0.97966 0.0
C305 C 0.4505 0.95568 0.98504 0.0
C306 C 0.46413 0.98211 0.98511 0.0
C307 C 0.4904 0.99568 0.97927 0.0
C308 C 0.50277 0.98186 0.97393 0.0
C309 C 0.48915 0.95524 0.97434 0.0
H310 H 0.5095 0.38684 0.15261 0.0
N311 N 0.50778 0.42708 0.16753 0.0
H312 H 0.54316 0.38649 0.13035 0.0
H313 H 0.54508 0.4676 0.14437 0.0
H314 H 0.57771 0.46717 0.1212 0.0
H315 H 0.55695 0.45315 0.18578 0.0
H316 H 0.57053 0.44626 0.22197 0.0
H317 H 0.47752 0.39738 0.19928 0.0
H318 H 0.49115 0.39127 0.23618 0.0
H319 H 0.46353 0.41755 0.14845 0.0
H320 H 0.53185 0.47692 0.1821 0.0
H321 H 0.44616 0.44601 0.1454 0.0
H322 H 0.51497 0.50576 0.17869 0.0
H323 H 0.38136 0.52163 0.14016 0.0
H324 H 0.37031 0.53224 0.10433 0.0
H325 H 0.45185 0.57747 0.09006 0.0
H326 H 0.46265 0.56677 0.12593 0.0
H327 H 0.4736 0.5827 0.16265 0.0
H328 H 0.47838 0.6198 0.18325 0.0
H329 H 0.40061 0.57419 0.20741 0.0
H330 H 0.39605 0.53746 0.18668 0.0
H331 H 0.43094 0.50679 0.12492 0.0
H332 H 0.45269 0.48266 0.12668 0.0
H333 H 0.48073 0.51236 0.19285 0.0
N334 N 0.42829 0.53705 0.15717 0.0
H335 H 0.45978 0.53753 0.19096 0.0
C336 C 0.52459 0.4271 0.1504 0.0
C337 C 0.52404 0.40433 0.14537 0.0
C338 C 0.54332 0.40419 0.13256 0.0
C339 C 0.56351 0.4269 0.12422 0.0
C340 C 0.56291 0.44942 0.12784 0.0
C341 C 0.54388 0.44962 0.14096 0.0
C342 C 0.51613 0.42536 0.18963 0.0
C343 C 0.54237 0.43953 0.19653 0.0
C344 C 0.55017 0.43562 0.21719 0.0
C345 C 0.53186 0.41806 0.23155 0.0
C346 C 0.50555 0.4048 0.22521 0.0
C347 C 0.49779 0.4083 0.20428 0.0
C348 C 0.49886 0.44496 0.16546 0.0
C349 C 0.47485 0.43681 0.15499 0.0
C350 C 0.46508 0.4532 0.15317 0.0
C351 C 0.47924 0.47828 0.16171 0.0
C352 C 0.50344 0.48652 0.17214 0.0
C353 C 0.51317 0.47004 0.17402 0.0
C354 C 0.42268 0.54331 0.13566 0.0
C355 C 0.39677 0.53377 0.12923 0.0
C356 C 0.39055 0.53982 0.10878 0.0
C357 C 0.41024 0.55567 0.09437 0.0
C358 C 0.43629 0.56548 0.10093 0.0
C359 C 0.44249 0.55933 0.12138 0.0
C360 C 0.43426 0.55736 0.17299 0.0
C361 C 0.45781 0.58062 0.17273 0.0
C362 C 0.46049 0.60181 0.18447 0.0
C363 C 0.43978 0.60003 0.19678 0.0
C364 C 0.41705 0.57623 0.1983 0.0
C365 C 0.41436 0.55518 0.18647 0.0
C366 C 0.4445 0.52549 0.15731 0.0
C367 C 0.44252 0.50915 0.13962 0.0
C368 C 0.45464 0.49478 0.14075 0.0
C369 C 0.46847 0.4955 0.1599 0.0
C370 C 0.47066 0.51173 0.17765 0.0
C371 C 0.45864 0.52631 0.17648 0.0
Zn372 Zn 0.6693 0.45827 0.3984 0.0
Zn373 Zn 0.64933 0.40842 0.40577 0.0
O374 O 0.68732 0.4217 0.39758 0.0
O375 O 0.70402 0.46227 0.39102 0.0
O376 O 0.63817 0.37205 0.41259 0.0
O377 O 0.66208 0.4638 0.42964 0.0
O378 O 0.64352 0.42277 0.43514 0.0
C379 C 0.7065 0.44293 0.39217 0.0
C380 C 0.62527 0.42494 0.3698 0.0
O381 O 0.62628 0.40716 0.37963 0.0
O382 O 0.64104 0.44796 0.37506 0.0
C383 C 0.62011 0.35178 0.40342 0.0
O384 O 0.60528 0.35317 0.38799 0.0
C385 C 0.65004 0.4451 0.44212 0.0
Zn386 Zn 0.24754 0.69981 0.55734 0.0
Zn387 Zn 0.27334 0.67481 0.56372 0.0
O388 O 0.30208 0.71213 0.55925 0.0
O389 O 0.28113 0.73259 0.55353 0.0
O390 O 0.29392 0.65747 0.56958 0.0
O391 O 0.23212 0.6899 0.5876 0.0
O392 O 0.25136 0.66752 0.59172 0.0
C393 C 0.30229 0.73266 0.55525 0.0
C394 C 0.23451 0.65919 0.52503 0.0
O395 O 0.2513 0.65645 0.53586 0.0
O396 O 0.22946 0.67622 0.53091 0.0
C397 C 0.31355 0.66223 0.55812 0.0
O398 O 0.31995 0.67811 0.5418 0.0
C399 C 0.23634 0.67506 0.5989 0.0
Zn400 Zn 0.55116 0.22999 0.72843 0.0
Zn401 Zn 0.60384 0.25783 0.7326 0.0
O402 O 0.59313 0.28479 0.73077 0.0
O403 O 0.55043 0.26292 0.72931 0.0
O404 O 0.64275 0.27846 0.73631 0.0
O405 O 0.55036 0.21224 0.75675 0.0
O406 O 0.59275 0.23676 0.7606 0.0
C407 C 0.57146 0.28408 0.72984 0.0
C408 C 0.57789 0.22187 0.69242 0.0
O409 O 0.59806 0.23729 0.70377 0.0
O410 O 0.55556 0.21608 0.6991 0.0
C411 C 0.65692 0.29421 0.72195 0.0
O412 O 0.64595 0.29696 0.7041 0.0
C413 C 0.57119 0.21921 0.76767 0.0
Zn414 Zn 0.34086 0.57211 0.8995 0.0
Zn415 Zn 0.3645 0.62216 0.90656 0.0
O416 O 0.32658 0.61229 0.89904 0.0
O417 O 0.30751 0.57113 0.89231 0.0
O418 O 0.38251 0.66001 0.91266 0.0
O419 O 0.3489 0.56712 0.93058 0.0
O420 O 0.36986 0.60854 0.93614 0.0
C421 C 0.30639 0.59125 0.89353 0.0
C422 C 0.38256 0.59953 0.86979 0.0
O423 O 0.38422 0.61877 0.88001 0.0
O424 O 0.36581 0.57735 0.87535 0.0
C425 C 0.38359 0.67536 0.89819 0.0
O426 O 0.37272 0.66642 0.87859 0.0
C427 C 0.36225 0.58632 0.94314 0.0
Zn428 Zn 0.77558 0.44906 0.06076 0.0
Zn429 Zn 0.75031 0.39875 0.05522 0.0
O430 O 0.72118 0.40609 0.06367 0.0
O431 O 0.74249 0.44742 0.06986 0.0
O432 O 0.73121 0.36079 0.04964 0.0
O433 O 0.78588 0.45387 0.029 0.0
O434 O 0.76732 0.4124 0.02496 0.0
C435 C 0.72136 0.4264 0.06932 0.0
C436 C 0.79487 0.42508 0.0895 0.0
O437 O 0.77623 0.40474 0.08081 0.0
O438 O 0.79906 0.4465 0.08332 0.0
C439 C 0.71754 0.34494 0.06414 0.0
O440 O 0.71575 0.35336 0.08383 0.0
C441 C 0.78036 0.43452 0.01703 0.0
Zn442 Zn 0.34183 0.78099 0.22985 0.0
Zn443 Zn 0.37362 0.76173 0.22587 0.0
O444 O 0.33724 0.73063 0.22976 0.0
O445 O 0.31089 0.74575 0.23267 0.0
O446 O 0.39537 0.74522 0.22267 0.0
O447 O 0.35286 0.79611 0.19974 0.0
O448 O 0.37923 0.78094 0.19687 0.0
C449 C 0.31448 0.72703 0.23217 0.0
C450 C 0.38251 0.79966 0.26357 0.0
O451 O 0.38891 0.78526 0.25337 0.0
O452 O 0.36306 0.80098 0.25692 0.0
C453 C 0.39529 0.73114 0.23796 0.0
O454 O 0.38205 0.72881 0.25588 0.0
C455 C 0.36955 0.79362 0.18896 0.0
H456 H 0.21795 0.57058 0.26894 0.0
H457 H 0.26303 0.71213 0.23351 0.0
H458 H 0.16708 0.60133 0.26403 0.0
H459 H 0.31521 0.68283 0.23766 0.0
H460 H 0.22687 0.67004 0.241 0.0
H461 H 0.25294 0.60979 0.25382 0.0
C462 C 0.21404 0.58543 0.26449 0.0
C463 C 0.18952 0.58265 0.26793 0.0
C464 C 0.24619 0.67272 0.24014 0.0
C465 C 0.22947 0.62756 0.25062 0.0
C466 C 0.26689 0.69681 0.23589 0.0
C467 C 0.29226 0.70111 0.23516 0.0
C468 C 0.2508 0.6527 0.24386 0.0
C469 C 0.29599 0.68042 0.23819 0.0
C470 C 0.23401 0.60779 0.2558 0.0
C471 C 0.18551 0.60241 0.2615 0.0
N472 N 0.27551 0.65715 0.2426 0.0
N473 N 0.20531 0.62405 0.25339 0.0
H474 H 0.56762 0.19165 0.41992 0.0
H475 H 0.65126 0.34312 0.43083 0.0
H476 H 0.64407 0.23362 0.45018 0.0
H477 H 0.58221 0.30387 0.38936 0.0
H478 H 0.64718 0.30255 0.43954 0.0
H479 H 0.57108 0.23194 0.40962 0.0
C480 C 0.58516 0.2093 0.42428 0.0
C481 C 0.60564 0.20922 0.43583 0.0
C482 C 0.63289 0.30274 0.42851 0.0
C483 C 0.60963 0.25528 0.42428 0.0
C484 C 0.63515 0.32596 0.42359 0.0
C485 C 0.61705 0.32697 0.40931 0.0
C486 C 0.61229 0.2802 0.41924 0.0
C487 C 0.59663 0.30401 0.40043 0.0
C488 C 0.58714 0.23225 0.41837 0.0
C489 C 0.62796 0.23266 0.44097 0.0
N490 N 0.59476 0.28153 0.40557 0.0
N491 N 0.62927 0.25466 0.43529 0.0
H492 H 0.44589 0.64407 0.58109 0.0
H493 H 0.30442 0.62635 0.58892 0.0
H494 H 0.38588 0.58853 0.62188 0.0
H495 H 0.3604 0.67364 0.54099 0.0
H496 H 0.33339 0.61106 0.6002 0.0
H497 H 0.41438 0.65394 0.56506 0.0
C498 C 0.42602 0.6338 0.58653 0.0
C499 C 0.41854 0.61553 0.60292 0.0
C500 C 0.33926 0.62464 0.58709 0.0
C501 C 0.38238 0.62683 0.58476 0.0
C502 C 0.32273 0.63341 0.58066 0.0
C503 C 0.33005 0.65144 0.56407 0.0
C504 C 0.36341 0.6341 0.57701 0.0
C505 C 0.35398 0.65981 0.5539 0.0
C506 C 0.40802 0.6394 0.57734 0.0
C507 C 0.39247 0.60261 0.60917 0.0
N508 N 0.36988 0.65124 0.56066 0.0
N509 N 0.37541 0.6087 0.60026 0.0
H510 H 0.81506 0.41883 0.72337 0.0
H511 H 0.68606 0.29204 0.75618 0.0
H512 H 0.80889 0.37613 0.78141 0.0
H513 H 0.69248 0.3329 0.69678 0.0
H514 H 0.7323 0.32043 0.76375 0.0
H515 H 0.77173 0.3853 0.71127 0.0
C516 C 0.80472 0.40227 0.73344 0.0
C517 C 0.81557 0.40041 0.75353 0.0
C518 C 0.72366 0.3231 0.74897 0.0
C519 C 0.76588 0.36201 0.73986 0.0
C520 C 0.69721 0.3069 0.74465 0.0
C521 C 0.68528 0.31022 0.72592 0.0
C522 C 0.73834 0.34292 0.73454 0.0
C523 C 0.7008 0.32971 0.7115 0.0
C524 C 0.77999 0.38311 0.72651 0.0
C525 C 0.80142 0.37834 0.76574 0.0
N526 N 0.72647 0.34544 0.71621 0.0
N527 N 0.77722 0.36017 0.75885 0.0
H528 H 0.43035 0.83481 0.90046 0.0
H529 H 0.40956 0.70038 0.93648 0.0
H530 H 0.4544 0.82134 0.96389 0.0
H531 H 0.38656 0.71317 0.8723 0.0
H532 H 0.42875 0.74547 0.94572 0.0
H533 H 0.41706 0.79129 0.88868 0.0
C534 C 0.43306 0.82281 0.91184 0.0
C535 C 0.44346 0.83181 0.93324 0.0
C536 C 0.41962 0.73847 0.92956 0.0
C537 C 0.42821 0.78191 0.91987 0.0
C538 C 0.4086 0.71267 0.92428 0.0
C539 C 0.39625 0.70289 0.90362 0.0
C540 C 0.41824 0.75471 0.91413 0.0
C541 C 0.39578 0.71983 0.88846 0.0
C542 C 0.42551 0.79797 0.90509 0.0
C543 C 0.44679 0.81544 0.94716 0.0
N544 N 0.40646 0.74486 0.89406 0.0
N545 N 0.439 0.79129 0.9403 0.0
H546 H 0.61457 0.46425 0.12815 0.0
H547 H 0.67112 0.38592 0.06772 0.0
H548 H 0.56485 0.39075 0.09686 0.0
H549 H 0.71645 0.46573 0.08534 0.0
H550 H 0.6319 0.3861 0.07923 0.0
H551 H 0.65204 0.46418 0.11317 0.0
C552 C 0.61139 0.44823 0.11781 0.0
C553 C 0.5863 0.42754 0.11371 0.0
C554 C 0.65046 0.40356 0.08044 0.0
C555 C 0.62962 0.42703 0.09696 0.0
C556 C 0.67284 0.40346 0.07395 0.0
C557 C 0.69716 0.42582 0.07563 0.0
C558 C 0.6525 0.42612 0.08884 0.0
C559 C 0.6982 0.448 0.08375 0.0
C560 C 0.63293 0.44812 0.10941 0.0
C561 C 0.58376 0.40701 0.10072 0.0
N562 N 0.67627 0.44753 0.09013 0.0
N563 N 0.60516 0.40721 0.09291 0.0
H564 H 0.46218 0.84656 0.52912 0.0
H565 H 0.3091 0.77936 0.54674 0.0
H566 H 0.41428 0.87689 0.50782 0.0
H567 H 0.35193 0.74044 0.55527 0.0
H568 H 0.34923 0.81777 0.53798 0.0
H569 H 0.42362 0.80998 0.54387 0.0
C570 C 0.44367 0.84568 0.52762 0.0
C571 C 0.44162 0.86496 0.51709 0.0
C572 C 0.34992 0.80088 0.54186 0.0
C573 C 0.39749 0.82324 0.5342 0.0
C574 C 0.32697 0.77889 0.5469 0.0
C575 C 0.32704 0.7565 0.55156 0.0
C576 C 0.37328 0.80066 0.54144 0.0
C577 C 0.35092 0.75721 0.55166 0.0
C578 C 0.42169 0.82481 0.53613 0.0
C579 C 0.4171 0.86287 0.51606 0.0
N580 N 0.37309 0.77892 0.54653 0.0
N581 N 0.39609 0.8424 0.52439 0.0
H582 H 0.60976 0.43545 0.69747 0.0
H583 H 0.52894 0.29001 0.72987 0.0
H584 H 0.52726 0.39586 0.70832 0.0
H585 H 0.61244 0.33253 0.72601 0.0
H586 H 0.52808 0.32906 0.72423 0.0
H587 H 0.61135 0.39882 0.71048 0.0
C588 C 0.59201 0.41926 0.70298 0.0
C589 C 0.56829 0.41884 0.70171 0.0
C590 C 0.5466 0.32989 0.7248 0.0
C591 C 0.56994 0.37632 0.71614 0.0
C592 C 0.54712 0.30757 0.72799 0.0
C593 C 0.5708 0.30791 0.72823 0.0
C594 C 0.56991 0.35273 0.72168 0.0
C595 C 0.59373 0.3313 0.72585 0.0
C596 C 0.59292 0.3982 0.71025 0.0
C597 C 0.5459 0.39696 0.70865 0.0
N598 N 0.59268 0.3527 0.72248 0.0
N599 N 0.54724 0.37652 0.71538 0.0
H600 H 0.17977 0.62015 0.86984 0.0
H601 H 0.26196 0.55036 0.87714 0.0
H602 H 0.16212 0.55248 0.83186 0.0
H603 H 0.29419 0.62913 0.89674 0.0
H604 H 0.2218 0.54846 0.86609 0.0
H605 H 0.21857 0.62142 0.88501 0.0
C606 C 0.18391 0.60551 0.86471 0.0
C607 C 0.16749 0.58618 0.84944 0.0
C608 C 0.23762 0.56617 0.87285 0.0
C609 C 0.21165 0.58739 0.86709 0.0
C610 C 0.2606 0.56728 0.87923 0.0
C611 C 0.28162 0.59002 0.88777 0.0
C612 C 0.23541 0.58787 0.87509 0.0
C613 C 0.27854 0.61126 0.89012 0.0
C614 C 0.20603 0.60625 0.87346 0.0
C615 C 0.17374 0.56751 0.84383 0.0
N616 N 0.25583 0.60969 0.88378 0.0
N617 N 0.19526 0.56862 0.85262 0.0
H618 H 0.64383 0.2007 0.99335 0.0
H619 H 0.68418 0.30581 0.09019 0.0
H620 H 0.60805 0.1845 0.05731 0.0
H621 H 0.71774 0.32117 0.02533 0.0
H622 H 0.65885 0.26067 0.07982 0.0
H623 H 0.67417 0.24384 0.00638 0.0
C624 C 0.64263 0.206 0.0103 0.0
C625 C 0.62321 0.18881 0.02422 0.0
C626 C 0.67187 0.27391 0.06791 0.0
C627 C 0.65768 0.23872 0.0391 0.0
C628 C 0.68634 0.2997 0.07381 0.0
C629 C 0.703 0.31738 0.05856 0.0
C630 C 0.67406 0.26569 0.04659 0.0
C631 C 0.70505 0.3083 0.0376 0.0
C632 C 0.65985 0.23082 0.01766 0.0
C633 C 0.62241 0.19715 0.04588 0.0
N634 N 0.69068 0.28315 0.03223 0.0
N635 N 0.63925 0.22154 0.0526 0.0
H636 H 0.45828 0.64588 0.17713 0.0
H637 H 0.39495 0.69604 0.26573 0.0
H638 H 0.42196 0.60661 0.23672 0.0
H639 H 0.42339 0.73036 0.2026 0.0
H640 H 0.41122 0.66721 0.25824 0.0
H641 H 0.45265 0.68107 0.18935 0.0
C642 C 0.44963 0.64487 0.19303 0.0
C643 C 0.44039 0.62312 0.20583 0.0
C644 C 0.41411 0.6812 0.24611 0.0
C645 C 0.43339 0.66321 0.21971 0.0
C646 C 0.40485 0.69771 0.25038 0.0
C647 C 0.40753 0.71548 0.23465 0.0
C648 C 0.42617 0.68242 0.22596 0.0
C649 C 0.42067 0.71682 0.21512 0.0
C650 C 0.44619 0.6649 0.19989 0.0
C651 C 0.429 0.62281 0.22615 0.0
N652 N 0.42931 0.70037 0.21126 0.0
N653 N 0.42561 0.64242 0.23235 0.0
H654 H 0.82354 0.41624 0.33741 0.0
H655 H 0.75357 0.48615 0.3884 0.0
H656 H 0.86445 0.49486 0.35931 0.0
H657 H 0.71661 0.40451 0.3837 0.0
H658 H 0.79439 0.48946 0.37772 0.0
H659 H 0.78439 0.41094 0.35485 0.0
C660 C 0.82446 0.43228 0.3462 0.0
C661 C 0.84729 0.45613 0.34663 0.0
C662 C 0.77742 0.4708 0.37919 0.0
C663 C 0.80239 0.4503 0.36619 0.0
C664 C 0.75405 0.4689 0.38519 0.0
C665 C 0.73159 0.44501 0.3868 0.0
C666 C 0.77832 0.44868 0.37445 0.0
C667 C 0.73345 0.42331 0.38261 0.0
C668 C 0.80203 0.42927 0.35603 0.0
C669 C 0.84716 0.47628 0.35808 0.0
N670 N 0.75636 0.42566 0.3764 0.0
N671 N 0.82501 0.47298 0.36717 0.0
H672 H 0.13481 0.58983 0.40994 0.0
H673 H 0.23904 0.61979 0.50734 0.0
H674 H 0.17427 0.54764 0.4179 0.0
H675 H 0.19763 0.66009 0.49868 0.0
H676 H 0.21499 0.5923 0.47537 0.0
H677 H 0.15683 0.6147 0.44339 0.0
C678 C 0.1481 0.58578 0.41878 0.0
C679 C 0.15284 0.56675 0.41104 0.0
C680 C 0.21117 0.60715 0.48053 0.0
C681 C 0.1782 0.59518 0.44945 0.0
C682 C 0.22493 0.62288 0.49874 0.0
C683 C 0.22042 0.64235 0.50569 0.0
C684 C 0.19281 0.61094 0.4692 0.0
C685 C 0.20184 0.6454 0.49394 0.0
C686 C 0.16063 0.59994 0.43792 0.0
C687 C 0.16994 0.56203 0.42336 0.0
N688 N 0.1888 0.62992 0.47631 0.0
N689 N 0.18215 0.57628 0.44189 0.0
H690 H 0.63098 0.16729 0.5831 0.0
H691 H 0.53991 0.19394 0.66135 0.0
H692 H 0.55635 0.15564 0.56214 0.0
H693 H 0.62146 0.22423 0.67541 0.0
H694 H 0.54428 0.17575 0.62653 0.0
H695 H 0.62655 0.18442 0.61858 0.0
C696 C 0.61369 0.16837 0.58589 0.0
C697 C 0.59403 0.16001 0.5695 0.0
C698 C 0.56122 0.18639 0.63722 0.0
C699 C 0.58871 0.17926 0.61026 0.0
C700 C 0.55875 0.19674 0.65715 0.0
C701 C 0.58038 0.21069 0.67133 0.0
C702 C 0.58545 0.18978 0.63146 0.0
C703 C 0.60429 0.2137 0.66496 0.0
C704 C 0.61115 0.17806 0.6062 0.0
C705 C 0.57185 0.16144 0.57432 0.0
N706 N 0.60618 0.20327 0.6455 0.0
N707 N 0.5698 0.17087 0.59424 0.0
H708 H 0.44128 0.56561 0.75325 0.0
H709 H 0.41485 0.64301 0.84739 0.0
H710 H 0.47119 0.64621 0.75063 0.0
H711 H 0.38811 0.56286 0.84873 0.0
H712 H 0.43883 0.64596 0.81372 0.0
H713 H 0.42481 0.5655 0.78999 0.0
C714 C 0.44441 0.58332 0.76049 0.0
C715 C 0.45733 0.60589 0.74882 0.0
C716 C 0.42787 0.6278 0.82155 0.0
C717 C 0.43848 0.60599 0.79095 0.0
C718 C 0.41423 0.62612 0.84076 0.0
C719 C 0.39921 0.6026 0.85076 0.0
C720 C 0.42645 0.60582 0.81237 0.0
C721 C 0.39914 0.58135 0.84148 0.0
C722 C 0.43509 0.5833 0.78151 0.0
C723 C 0.46131 0.6284 0.75912 0.0
N724 N 0.41238 0.58345 0.8228 0.0
N725 N 0.45166 0.62785 0.77956 0.0
H726 H 0.83115 0.41811 0.88652 0.0
H727 H 0.80492 0.47869 0.99466 0.0
H728 H 0.85736 0.49773 0.89615 0.0
H729 H 0.77795 0.39866 0.98718 0.0
H730 H 0.82286 0.48524 0.95787 0.0
H731 H 0.81072 0.40996 0.92276 0.0
C732 C 0.83268 0.43388 0.89627 0.0
C733 C 0.84596 0.45865 0.88825 0.0
C734 C 0.81298 0.4662 0.96418 0.0
C735 C 0.82246 0.44941 0.92958 0.0
C736 C 0.80268 0.46242 0.98525 0.0
C737 C 0.78997 0.43808 0.99412 0.0
C738 C 0.81071 0.44554 0.95174 0.0
C739 C 0.78761 0.41776 0.98102 0.0
C740 C 0.82089 0.42918 0.91688 0.0
C741 C 0.84703 0.47828 0.90147 0.0
N742 N 0.798 0.42196 0.96049 0.0
N743 N 0.83549 0.47324 0.92144 0.0
H744 H 0.45079 0.85956 0.06757 0.0
H745 H 0.35059 0.81945 0.16666 0.0
H746 H 0.3896 0.87731 0.07136 0.0
H747 H 0.40818 0.7968 0.16233 0.0
H748 H 0.36562 0.84148 0.13205 0.0
H749 H 0.43689 0.83778 0.1028 0.0
C750 C 0.43458 0.85905 0.0759 0.0
C751 C 0.42126 0.87017 0.06648 0.0
C752 C 0.37499 0.83168 0.1386 0.0
C753 C 0.40512 0.84513 0.10659 0.0
C754 C 0.36639 0.81904 0.15841 0.0
C755 C 0.37813 0.80622 0.16747 0.0
C756 C 0.39558 0.83165 0.12766 0.0
C757 C 0.39852 0.80639 0.15594 0.0
C758 C 0.42654 0.84647 0.09591 0.0
C759 C 0.4002 0.86869 0.07785 0.0
N760 N 0.40665 0.81896 0.13663 0.0
N761 N 0.3928 0.8564 0.09726 0.0
H762 H 0.56266 0.39794 0.23863 0.0
H763 H 0.60106 0.4511 0.35991 0.0
H764 H 0.52126 0.42864 0.27282 0.0
H765 H 0.60658 0.38628 0.33859 0.0
H766 H 0.5734 0.44483 0.32754 0.0
H767 H 0.58082 0.39478 0.27426 0.0
C768 C 0.55721 0.40371 0.25375 0.0
C769 C 0.54058 0.4136 0.253 0.0
C770 C 0.58034 0.43175 0.33011 0.0
C771 C 0.56149 0.41052 0.29345 0.0
C772 C 0.5962 0.43538 0.34848 0.0
C773 C 0.60617 0.41925 0.35178 0.0
C774 C 0.57503 0.4123 0.31459 0.0
C775 C 0.59921 0.39909 0.33659 0.0
C776 C 0.56743 0.40181 0.27399 0.0
C777 C 0.53402 0.42088 0.27287 0.0
N778 N 0.58443 0.39646 0.31834 0.0
N779 N 0.54486 0.41961 0.29233 0.0
H780 H 0.44615 0.91047 0.37135 0.0
H781 H 0.42366 0.80004 0.2847 0.0
H782 H 0.48635 0.86858 0.37594 0.0
H783 H 0.37673 0.83535 0.28655 0.0
H784 H 0.449 0.82681 0.31654 0.0
H785 H 0.42278 0.88506 0.33847 0.0
C786 C 0.45006 0.89592 0.36546 0.0
C787 C 0.46816 0.89159 0.37653 0.0
C788 C 0.43314 0.82866 0.30995 0.0
C789 C 0.44157 0.86249 0.33872 0.0
C790 C 0.41867 0.81339 0.29178 0.0
C791 C 0.39798 0.81539 0.28295 0.0
C792 C 0.42696 0.84613 0.31927 0.0
C793 C 0.39243 0.83305 0.29281 0.0
C794 C 0.43677 0.88146 0.34663 0.0
C795 C 0.47278 0.87278 0.36784 0.0
N796 N 0.40683 0.84772 0.31039 0.0
N797 N 0.4595 0.85886 0.3495 0.0
H798 H 0.63196 0.51683 0.5593 0.0
H799 H 0.61833 0.40997 0.47224 0.0
H800 H 0.57956 0.43679 0.56788 0.0
H801 H 0.66571 0.49065 0.46292 0.0
H802 H 0.60551 0.41879 0.50827 0.0
H803 H 0.64616 0.507 0.52475 0.0
C804 C 0.62354 0.49716 0.55396 0.0
C805 C 0.60455 0.47761 0.5665 0.0
C806 C 0.61877 0.43451 0.49832 0.0
C807 C 0.62058 0.46616 0.52678 0.0
C808 C 0.62615 0.42949 0.4778 0.0
C809 C 0.64303 0.44958 0.46448 0.0
C810 C 0.62844 0.45978 0.50554 0.0
C811 C 0.65254 0.47452 0.47252 0.0
C812 C 0.63156 0.49154 0.53416 0.0
C813 C 0.59403 0.45247 0.55859 0.0
N814 N 0.64508 0.47887 0.49245 0.0
N815 N 0.6022 0.44745 0.53923 0.0
H816 H 0.15604 0.65723 0.72123 0.0
H817 H 0.22527 0.63158 0.62033 0.0
H818 H 0.13618 0.5814 0.70027 0.0
H819 H 0.21578 0.69699 0.62507 0.0
H820 H 0.19906 0.61489 0.65354 0.0
H821 H 0.18394 0.6739 0.68943 0.0
C822 C 0.15723 0.64397 0.70987 0.0
C823 C 0.14333 0.61773 0.71345 0.0
C824 C 0.20286 0.63293 0.6473 0.0
C825 C 0.17617 0.63701 0.67729 0.0
C826 C 0.21794 0.64255 0.62849 0.0
C827 C 0.22261 0.66566 0.61991 0.0
C828 C 0.19286 0.64678 0.65775 0.0
C829 C 0.21251 0.67902 0.63104 0.0
C830 C 0.17341 0.6536 0.69181 0.0
C831 C 0.14661 0.60175 0.69842 0.0
N832 N 0.19818 0.66943 0.64941 0.0
N833 N 0.16274 0.61165 0.68103 0.0
H834 H 0.53635 0.11205 0.87224 0.0
H835 H 0.60674 0.23774 0.80197 0.0
H836 H 0.58262 0.18632 0.9029 0.0
H837 H 0.53391 0.17241 0.78099 0.0
H838 H 0.60435 0.21702 0.83698 0.0
H839 H 0.5417 0.13193 0.83617 0.0
C840 C 0.54785 0.13251 0.87128 0.0
C841 C 0.55898 0.14765 0.89044 0.0
C842 C 0.58897 0.20727 0.82464 0.0
C843 C 0.56531 0.17035 0.84954 0.0
C844 C 0.59034 0.219 0.80468 0.0
C845 C 0.5704 0.20682 0.78864 0.0
C846 C 0.5678 0.183 0.82835 0.0
C847 C 0.54957 0.18256 0.79301 0.0
C848 C 0.55076 0.14381 0.85081 0.0
C849 C 0.5736 0.17408 0.88845 0.0
N850 N 0.54886 0.17137 0.81243 0.0
N851 N 0.57643 0.18463 0.86832 0.0
H852 H 0.43259 0.60134 0.0734 0.0
H853 H 0.34387 0.54155 0.96416 0.0
H854 H 0.37257 0.52279 0.06515 0.0
H855 H 0.39589 0.62217 0.97385 0.0
H856 H 0.35547 0.53474 0.00094 0.0
H857 H 0.42093 0.60971 0.03676 0.0
C858 C 0.41702 0.58586 0.06386 0.0
C859 C 0.40348 0.56133 0.07235 0.0
C860 C 0.36435 0.55396 0.99512 0.0
C861 C 0.39002 0.57078 0.03058 0.0
C862 C 0.35775 0.55789 0.97404 0.0
C863 C 0.36896 0.5825 0.96583 0.0
C864 C 0.38244 0.57474 0.00823 0.0
C865 C 0.38676 0.60288 0.97951 0.0
C866 C 0.41029 0.59068 0.04303 0.0
C867 C 0.3833 0.54205 0.05941 0.0
N868 N 0.39305 0.59854 5e-05 0.0
N869 N 0.37726 0.54717 0.03919 0.0
H870 H 0.84811 0.40814 0.21672 0.0
H871 H 0.8449 0.46062 0.09921 0.0
H872 H 0.91698 0.46455 0.18453 0.0
H873 H 0.78315 0.38796 0.11989 0.0
H874 H 0.87156 0.46175 0.13043 0.0
H875 H 0.82398 0.39915 0.18161 0.0
C876 C 0.85832 0.4183 0.20221 0.0
C877 C 0.88459 0.43742 0.20371 0.0
C878 C 0.85231 0.44538 0.12806 0.0
C879 C 0.85688 0.42754 0.16362 0.0
C880 C 0.83702 0.44478 0.11028 0.0
C881 C 0.81171 0.42426 0.10709 0.0
C882 C 0.84207 0.42556 0.14311 0.0
C883 C 0.80258 0.40414 0.12181 0.0
C884 C 0.84447 0.41322 0.18219 0.0
C885 C 0.89663 0.45012 0.18435 0.0
N886 N 0.81763 0.40547 0.13945 0.0
N887 N 0.88261 0.4452 0.16522 0.0
loop_
_geom_bond_atom_site_label_1
_geom_bond_atom_site_label_2
_geom_bond_distance
_geom_bond_site_symmetry_2
_ccdc_geom_bond_type
H0 C27 0.929 . S
N1 C26 1.433 . S
N1 C32 1.435 . S
N1 C38 1.423 . S
H2 C28 0.930 . S
H3 C31 0.931 . S
H4 C30 0.929 . S
H5 C33 0.930 . S
H6 C34 0.932 . S
H7 C37 0.929 . S
H8 C36 0.931 . S
H9 C39 0.929 . S
H10 C43 0.932 . S
H11 C40 0.931 . S
H12 C42 0.929 . S
H13 C45 0.929 . S
H14 C46 0.930 . S
H15 C48 0.929 . S
H16 C49 0.931 . S
H17 C51 0.930 . S
H18 C52 0.932 . S
H19 C54 0.931 . S
H20 C55 0.929 . S
H21 C57 0.929 . S
H22 C58 0.931 . S
H23 C60 0.929 . S
N24 C44 1.433 . S
N24 C50 1.435 . S
N24 C56 1.423 . S
H25 C61 0.932 . S
C26 N1 1.433 . S
C26 C27 1.363 . S
C26 C31 1.370 . S
C27 H0 0.929 . S
C27 C26 1.363 . S
C27 C28 1.385 . S
C28 H2 0.930 . S
C28 C27 1.385 . S
C28 C29 1.357 . S
C29 C28 1.357 . S
C29 C30 1.406 . S
C30 H4 0.929 . S
C30 C29 1.406 . S
C30 C31 1.391 . S
C31 H3 0.931 . S
C31 C26 1.370 . S
C31 C30 1.391 . S
C32 N1 1.435 . S
C32 C33 1.358 . S
C32 C37 1.371 . S
C33 H5 0.930 . S
C33 C32 1.358 . S
C33 C34 1.405 . S
C34 H6 0.932 . S
C34 C33 1.405 . S
C34 C35 1.383 . S
C35 C34 1.383 . S
C35 C36 1.393 . S
C36 H8 0.931 . S
C36 C35 1.393 . S
C36 C37 1.382 . S
C37 H7 0.929 . S
C37 C32 1.371 . S
C37 C36 1.382 . S
C38 N1 1.423 . S
C38 C39 1.362 . S
C38 C43 1.388 . S
C39 H9 0.929 . S
C39 C38 1.362 . S
C39 C40 1.376 . S
C40 H11 0.931 . S
C40 C39 1.376 . S
C40 C41 1.396 . S
C41 C40 1.396 . S
C41 C42 1.348 . S
C41 C59 1.472 1_455 S
C42 H12 0.929 . S
C42 C41 1.348 . S
C42 C43 1.443 . S
C43 H10 0.932 . S
C43 C38 1.388 . S
C43 C42 1.443 . S
C44 N24 1.433 . S
C44 C45 1.363 . S
C44 C49 1.370 . S
C45 H13 0.929 . S
C45 C44 1.363 . S
C45 C46 1.385 . S
C46 H14 0.930 . S
C46 C45 1.385 . S
C46 C47 1.357 . S
C47 C46 1.357 . S
C47 C48 1.406 . S
C48 H15 0.929 . S
C48 C47 1.406 . S
C48 C49 1.391 . S
C49 H16 0.931 . S
C49 C44 1.370 . S
C49 C48 1.391 . S
C50 N24 1.435 . S
C50 C51 1.358 . S
C50 C55 1.371 . S
C51 H17 0.930 . S
C51 C50 1.358 . S
C51 C52 1.405 . S
C52 H18 0.932 . S
C52 C51 1.405 . S
C52 C53 1.383 . S
C53 C52 1.383 . S
C53 C54 1.393 . S
C54 H19 0.931 . S
C54 C53 1.393 . S
C54 C55 1.382 . S
C55 H20 0.929 . S
C55 C50 1.371 . S
C55 C54 1.382 . S
C56 N24 1.423 . S
C56 C57 1.362 . S
C56 C61 1.388 . S
C57 H21 0.929 . S
C57 C56 1.362 . S
C57 C58 1.376 . S
C58 H22 0.931 . S
C58 C57 1.376 . S
C58 C59 1.396 . S
C59 C41 1.472 1_655 S
C59 C58 1.396 . S
C59 C60 1.348 . S
C60 H23 0.929 . S
C60 C59 1.348 . S
C60 C61 1.443 . S
C61 H25 0.932 . S
C61 C56 1.388 . S
C61 C60 1.443 . S
H62 C89 0.929 . S
N63 C88 1.433 . S
N63 C94 1.435 . S
N63 C100 1.423 . S
H64 C90 0.930 . S
H65 C93 0.931 . S
H66 C92 0.929 . S
H67 C95 0.930 . S
H68 C96 0.932 . S
H69 C99 0.929 . S
H70 C98 0.931 . S
H71 C101 0.929 . S
H72 C105 0.932 . S
H73 C102 0.931 . S
H74 C104 0.929 1_545 S
H75 C107 0.929 . S
H76 C108 0.930 . S
H77 C110 0.929 . S
H78 C111 0.931 . S
H79 C113 0.930 . S
H80 C114 0.932 . S
H81 C116 0.931 . S
H82 C117 0.929 . S
H83 C119 0.929 . S
H84 C120 0.931 . S
H85 C122 0.929 . S
N86 C106 1.433 . S
N86 C112 1.435 . S
N86 C118 1.423 . S
H87 C123 0.932 . S
C88 N63 1.433 . S
C88 C89 1.363 . S
C88 C93 1.370 . S
C89 H62 0.929 . S
C89 C88 1.363 . S
C89 C90 1.385 . S
C90 H64 0.930 . S
C90 C89 1.385 . S
C90 C91 1.357 . S
C91 C90 1.357 . S
C91 C92 1.406 . S
C92 H66 0.929 . S
C92 C91 1.406 . S
C92 C93 1.391 . S
C93 H65 0.931 . S
C93 C88 1.370 . S
C93 C92 1.391 . S
C94 N63 1.435 . S
C94 C95 1.358 . S
C94 C99 1.371 . S
C95 H67 0.930 . S
C95 C94 1.358 . S
C95 C96 1.405 . S
C96 H68 0.932 . S
C96 C95 1.405 . S
C96 C97 1.383 . S
C97 C96 1.383 . S
C97 C98 1.393 . S
C98 H70 0.931 . S
C98 C97 1.393 . S
C98 C99 1.382 . S
C99 H69 0.929 . S
C99 C94 1.371 . S
C99 C98 1.382 . S
C100 N63 1.423 . S
C100 C101 1.362 . S
C100 C105 1.388 . S
C101 H71 0.929 . S
C101 C100 1.362 . S
C101 C102 1.376 . S
C102 H73 0.931 . S
C102 C101 1.376 . S
C102 C103 1.396 1_565 S
C103 C102 1.396 1_545 S
C103 C104 1.348 1_545 S
C103 C121 1.472 . S
C104 H74 0.929 1_565 S
C104 C103 1.348 1_565 S
C104 C105 1.443 . S
C105 H72 0.932 . S
C105 C100 1.388 . S
C105 C104 1.443 . S
C106 N86 1.433 . S
C106 C107 1.363 . S
C106 C111 1.370 . S
C107 H75 0.929 . S
C107 C106 1.363 . S
C107 C108 1.385 . S
C108 H76 0.930 . S
C108 C107 1.385 . S
C108 C109 1.357 . S
C109 C108 1.357 . S
C109 C110 1.406 . S
C110 H77 0.929 . S
C110 C109 1.406 . S
C110 C111 1.391 . S
C111 H78 0.931 . S
C111 C106 1.370 . S
C111 C110 1.391 . S
C112 N86 1.435 . S
C112 C113 1.358 . S
C112 C117 1.371 . S
C113 H79 0.930 . S
C113 C112 1.358 . S
C113 C114 1.405 . S
C114 H80 0.932 . S
C114 C113 1.405 . S
C114 C115 1.383 . S
C115 C114 1.383 . S
C115 C116 1.393 . S
C116 H81 0.931 . S
C116 C115 1.393 . S
C116 C117 1.382 . S
C117 H82 0.929 . S
C117 C112 1.371 . S
C117 C116 1.382 . S
C118 N86 1.423 . S
C118 C119 1.362 . S
C118 C123 1.388 . S
C119 H83 0.929 . S
C119 C118 1.362 . S
C119 C120 1.376 . S
C120 H84 0.931 . S
C120 C119 1.376 . S
C120 C121 1.396 . S
C121 C103 1.472 . S
C121 C120 1.396 . S
C121 C122 1.348 . S
C122 H85 0.929 . S
C122 C121 1.348 . S
C122 C123 1.443 . S
C123 H87 0.932 . S
C123 C118 1.388 . S
C123 C122 1.443 . S
H124 C151 0.929 . S
N125 C150 1.433 . S
N125 C156 1.435 . S
N125 C162 1.423 . S
H126 C152 0.930 . S
H127 C155 0.931 . S
H128 C154 0.929 . S
H129 C157 0.930 . S
H130 C158 0.932 . S
H131 C161 0.929 . S
H132 C160 0.931 . S
H133 C163 0.929 . S
H134 C167 0.932 . S
H135 C164 0.931 . S
H136 C166 0.929 . S
H137 C169 0.929 . S
H138 C170 0.930 . S
H139 C172 0.929 . S
H140 C173 0.931 . S
H141 C175 0.930 . S
H142 C176 0.932 . S
H143 C178 0.931 . S
H144 C179 0.929 . S
H145 C181 0.929 . S
H146 C182 0.931 . S
H147 C184 0.929 . S
N148 C168 1.433 . S
N148 C174 1.435 . S
N148 C180 1.423 . S
H149 C185 0.932 . S
C150 N125 1.433 . S
C150 C151 1.363 . S
C150 C155 1.370 . S
C151 H124 0.929 . S
C151 C150 1.363 . S
C151 C152 1.385 . S
C152 H126 0.930 . S
C152 C151 1.385 . S
C152 C153 1.357 . S
C153 C152 1.357 . S
C153 C154 1.406 . S
C154 H128 0.929 . S
C154 C153 1.406 . S
C154 C155 1.391 . S
C155 H127 0.931 . S
C155 C150 1.370 . S
C155 C154 1.391 . S
C156 N125 1.435 . S
C156 C157 1.358 . S
C156 C161 1.371 . S
C157 H129 0.930 . S
C157 C156 1.358 . S
C157 C158 1.405 . S
C158 H130 0.932 . S
C158 C157 1.405 . S
C158 C159 1.383 . S
C159 C158 1.383 . S
C159 C160 1.393 . S
C160 H132 0.931 . S
C160 C159 1.393 . S
C160 C161 1.382 . S
C161 H131 0.929 . S
C161 C156 1.371 . S
C161 C160 1.382 . S
C162 N125 1.423 . S
C162 C163 1.362 . S
C162 C167 1.388 . S
C163 H133 0.929 . S
C163 C162 1.362 . S
C163 C164 1.376 . S
C164 H135 0.931 . S
C164 C163 1.376 . S
C164 C165 1.396 . S
C165 C164 1.396 . S
C165 C166 1.348 . S
C165 C183 1.472 . S
C166 H136 0.929 . S
C166 C165 1.348 . S
C166 C167 1.443 . S
C167 H134 0.932 . S
C167 C162 1.388 . S
C167 C166 1.443 . S
C168 N148 1.433 . S
C168 C169 1.363 . S
C168 C173 1.370 . S
C169 H137 0.929 . S
C169 C168 1.363 . S
C169 C170 1.385 . S
C170 H138 0.930 . S
C170 C169 1.385 . S
C170 C171 1.357 . S
C171 C170 1.357 . S
C171 C172 1.406 . S
C172 H139 0.929 . S
C172 C171 1.406 . S
C172 C173 1.391 . S
C173 H140 0.931 . S
C173 C168 1.370 . S
C173 C172 1.391 . S
C174 N148 1.435 . S
C174 C175 1.358 . S
C174 C179 1.371 . S
C175 H141 0.930 . S
C175 C174 1.358 . S
C175 C176 1.405 . S
C176 H142 0.932 . S
C176 C175 1.405 . S
C176 C177 1.383 . S
C177 C176 1.383 . S
C177 C178 1.393 . S
C178 H143 0.931 . S
C178 C177 1.393 . S
C178 C179 1.382 . S
C179 H144 0.929 . S
C179 C174 1.371 . S
C179 C178 1.382 . S
C180 N148 1.423 . S
C180 C181 1.362 . S
C180 C185 1.388 . S
C181 H145 0.929 . S
C181 C180 1.362 . S
C181 C182 1.376 . S
C182 H146 0.931 . S
C182 C181 1.376 . S
C182 C183 1.396 . S
C183 C165 1.472 . S
C183 C182 1.396 . S
C183 C184 1.348 . S
C184 H147 0.929 . S
C184 C183 1.348 . S
C184 C185 1.443 . S
C185 H149 0.932 . S
C185 C180 1.388 . S
C185 C184 1.443 . S
H186 C213 0.929 . S
N187 C212 1.433 . S
N187 C218 1.435 . S
N187 C224 1.423 . S
H188 C214 0.930 . S
H189 C217 0.931 . S
H190 C216 0.929 . S
H191 C219 0.930 . S
H192 C220 0.932 . S
H193 C223 0.929 . S
H194 C222 0.931 . S
H195 C225 0.929 . S
H196 C229 0.932 . S
H197 C226 0.931 . S
H198 C228 0.929 . S
H199 C231 0.929 . S
H200 C232 0.930 . S
H201 C234 0.929 . S
H202 C235 0.931 . S
H203 C237 0.930 . S
H204 C238 0.932 . S
H205 C240 0.931 . S
H206 C241 0.929 . S
H207 C243 0.929 . S
H208 C244 0.931 . S
H209 C246 0.929 . S
N210 C230 1.433 . S
N210 C236 1.435 . S
N210 C242 1.423 . S
H211 C247 0.932 . S
C212 N187 1.433 . S
C212 C213 1.363 . S
C212 C217 1.370 . S
C213 H186 0.929 . S
C213 C212 1.363 . S
C213 C214 1.385 . S
C214 H188 0.930 . S
C214 C213 1.385 . S
C214 C215 1.357 . S
C215 C214 1.357 . S
C215 C216 1.406 . S
C216 H190 0.929 . S
C216 C215 1.406 . S
C216 C217 1.391 . S
C217 H189 0.931 . S
C217 C212 1.370 . S
C217 C216 1.391 . S
C218 N187 1.435 . S
C218 C219 1.358 . S
C218 C223 1.371 . S
C219 H191 0.930 . S
C219 C218 1.358 . S
C219 C220 1.405 . S
C220 H192 0.932 . S
C220 C219 1.405 . S
C220 C221 1.383 . S
C221 C220 1.383 . S
C221 C222 1.393 . S
C222 H194 0.931 . S
C222 C221 1.393 . S
C222 C223 1.382 . S
C223 H193 0.929 . S
C223 C218 1.371 . S
C223 C222 1.382 . S
C224 N187 1.423 . S
C224 C225 1.362 . S
C224 C229 1.388 . S
C225 H195 0.929 . S
C225 C224 1.362 . S
C225 C226 1.376 . S
C226 H197 0.931 . S
C226 C225 1.376 . S
C226 C227 1.396 . S
C227 C226 1.396 . S
C227 C228 1.348 . S
C227 C245 1.472 1_455 S
C228 H198 0.929 . S
C228 C227 1.348 . S
C228 C229 1.443 . S
C229 H196 0.932 . S
C229 C224 1.388 . S
C229 C228 1.443 . S
C230 N210 1.433 . S
C230 C231 1.363 . S
C230 C235 1.370 . S
C231 H199 0.929 . S
C231 C230 1.363 . S
C231 C232 1.385 . S
C232 H200 0.930 . S
C232 C231 1.385 . S
C232 C233 1.357 . S
C233 C232 1.357 . S
C233 C234 1.406 . S
C234 H201 0.929 . S
C234 C233 1.406 . S
C234 C235 1.391 . S
C235 H202 0.931 . S
C235 C230 1.370 . S
C235 C234 1.391 . S
C236 N210 1.435 . S
C236 C237 1.358 . S
C236 C241 1.371 . S
C237 H203 0.930 . S
C237 C236 1.358 . S
C237 C238 1.405 . S
C238 H204 0.932 . S
C238 C237 1.405 . S
C238 C239 1.383 . S
C239 C238 1.383 . S
C239 C240 1.393 . S
C240 H205 0.931 . S
C240 C239 1.393 . S
C240 C241 1.382 . S
C241 H206 0.929 . S
C241 C236 1.371 . S
C241 C240 1.382 . S
C242 N210 1.423 . S
C242 C243 1.362 . S
C242 C247 1.388 . S
C243 H207 0.929 . S
C243 C242 1.362 . S
C243 C244 1.376 . S
C244 H208 0.931 . S
C244 C243 1.376 . S
C244 C245 1.396 . S
C245 C227 1.472 1_655 S
C245 C244 1.396 . S
C245 C246 1.348 . S
C246 H209 0.929 . S
C246 C245 1.348 . S
C246 C247 1.443 . S
C247 H211 0.932 . S
C247 C242 1.388 . S
C247 C246 1.443 . S
H248 C275 0.929 . S
N249 C274 1.433 . S
N249 C280 1.435 . S
N249 C286 1.423 . S
H250 C276 0.930 . S
H251 C279 0.931 . S
H252 C278 0.929 . S
H253 C281 0.930 . S
H254 C282 0.932 . S
H255 C285 0.929 . S
H256 C284 0.931 . S
H257 C287 0.929 . S
H258 C291 0.932 . S
H259 C288 0.931 . S
H260 C290 0.929 . S
H261 C293 0.929 . S
H262 C294 0.930 . S
H263 C296 0.929 . S
H264 C297 0.931 . S
H265 C299 0.930 1_554 S
H266 C300 0.932 . S
H267 C302 0.931 . S
H268 C303 0.929 . S
H269 C305 0.929 . S
H270 C306 0.957 1_554 S
H271 C308 0.929 . S
N272 C292 1.433 . S
N272 C298 1.435 1_554 S
N272 C304 1.423 1_554 S
H273 C309 0.932 . S
C274 N249 1.433 . S
C274 C275 1.363 . S
C274 C279 1.370 . S
C275 H248 0.929 . S
C275 C274 1.363 . S
C275 C276 1.385 . S
C276 H250 0.930 . S
C276 C275 1.385 . S
C276 C277 1.357 1_556 S
C277 C276 1.357 1_554 S
C277 C278 1.406 . S
C278 H252 0.929 . S
C278 C277 1.406 . S
C278 C279 1.391 1_554 S
C279 H251 0.931 . S
C279 C274 1.370 . S
C279 C278 1.391 1_556 S
C280 N249 1.435 . S
C280 C281 1.358 . S
C280 C285 1.371 . S
C281 H253 0.930 . S
C281 C280 1.358 . S
C281 C282 1.405 . S
C282 H254 0.932 . S
C282 C281 1.405 . S
C282 C283 1.383 . S
C283 C282 1.383 . S
C283 C284 1.393 . S
C284 H256 0.931 . S
C284 C283 1.393 . S
C284 C285 1.382 . S
C285 H255 0.929 . S
C285 C280 1.371 . S
C285 C284 1.382 . S
C286 N249 1.423 . S
C286 C287 1.362 . S
C286 C291 1.388 . S
C287 H257 0.929 . S
C287 C286 1.362 . S
C287 C288 1.376 . S
C288 H259 0.931 . S
C288 C287 1.376 . S
C288 C289 1.396 . S
C289 C288 1.396 . S
C289 C290 1.348 . S
C289 C307 1.472 1_545 S
C290 H260 0.929 . S
C290 C289 1.348 . S
C290 C291 1.443 . S
C291 H258 0.932 . S
C291 C286 1.388 . S
C291 C290 1.443 . S
C292 N272 1.433 . S
C292 C293 1.363 . S
C292 C297 1.370 . S
C293 H261 0.929 . S
C293 C292 1.363 . S
C293 C294 1.385 . S
C294 H262 0.930 . S
C294 C293 1.385 . S
C294 C295 1.357 . S
C295 C294 1.357 . S
C295 C296 1.406 . S
C296 H263 0.929 . S
C296 C295 1.406 . S
C296 C297 1.391 . S
C297 H264 0.931 . S
C297 C292 1.370 . S
C297 C296 1.391 . S
C298 N272 1.435 1_556 S
C298 C299 1.358 . S
C298 C303 1.371 . S
C299 H265 0.930 1_556 S
C299 C298 1.358 . S
C299 C300 1.405 . S
C300 H266 0.932 . S
C300 C299 1.405 . S
C300 C301 1.383 . S
C301 C300 1.383 . S
C301 C302 1.393 . S
C302 H267 0.931 . S
C302 C301 1.393 . S
C302 C303 1.382 . S
C303 H268 0.929 . S
C303 C298 1.371 . S
C303 C302 1.382 . S
C304 N272 1.423 1_556 S
C304 C305 1.362 1_556 S
C304 C309 1.388 . S
C305 H269 0.929 . S
C305 C304 1.362 1_554 S
C305 C306 1.376 1_554 S
C306 H270 0.957 1_556 S
C306 C305 1.376 1_556 S
C306 C307 1.396 . S
C307 C289 1.472 1_565 S
C307 C306 1.396 . S
C307 C308 1.348 . S
C308 H271 0.929 . S
C308 C307 1.348 . S
C308 C309 1.443 . S
C309 H273 0.932 . S
C309 C304 1.388 . S
C309 C308 1.443 . S
H310 C337 0.929 . S
N311 C336 1.433 . S
N311 C342 1.435 . S
N311 C348 1.423 . S
H312 C338 0.930 . S
H313 C341 0.931 . S
H314 C340 0.929 . S
H315 C343 0.930 . S
H316 C344 0.932 . S
H317 C347 0.929 . S
H318 C346 0.931 . S
H319 C349 0.929 . S
H320 C353 0.932 . S
H321 C350 0.931 . S
H322 C352 0.929 . S
H323 C355 0.929 . S
H324 C356 0.930 . S
H325 C358 0.929 . S
H326 C359 0.931 . S
H327 C361 0.930 . S
H328 C362 0.932 . S
H329 C364 0.931 . S
H330 C365 0.929 . S
H331 C367 0.929 . S
H332 C368 0.931 . S
H333 C370 0.929 . S
N334 C354 1.433 . S
N334 C360 1.435 . S
N334 C366 1.423 . S
H335 C371 0.932 . S
C336 N311 1.433 . S
C336 C337 1.363 . S
C336 C341 1.370 . S
C337 H310 0.929 . S
C337 C336 1.363 . S
C337 C338 1.385 . S
C338 H312 0.930 . S
C338 C337 1.385 . S
C338 C339 1.357 . S
C339 C338 1.357 . S
C339 C340 1.406 . S
C340 H314 0.929 . S
C340 C339 1.406 . S
C340 C341 1.391 . S
C341 H313 0.931 . S
C341 C336 1.370 . S
C341 C340 1.391 . S
C342 N311 1.435 . S
C342 C343 1.358 . S
C342 C347 1.371 . S
C343 H315 0.930 . S
C343 C342 1.358 . S
C343 C344 1.405 . S
C344 H316 0.932 . S
C344 C343 1.405 . S
C344 C345 1.383 . S
C345 C344 1.383 . S
C345 C346 1.393 . S
C346 H318 0.931 . S
C346 C345 1.393 . S
C346 C347 1.382 . S
C347 H317 0.929 . S
C347 C342 1.371 . S
C347 C346 1.382 . S
C348 N311 1.423 . S
C348 C349 1.362 . S
C348 C353 1.388 . S
C349 H319 0.929 . S
C349 C348 1.362 . S
C349 C350 1.376 . S
C350 H321 0.931 . S
C350 C349 1.376 . S
C350 C351 1.396 . S
C351 C350 1.396 . S
C351 C352 1.348 . S
C351 C369 1.472 . S
C352 H322 0.929 . S
C352 C351 1.348 . S
C352 C353 1.443 . S
C353 H320 0.932 . S
C353 C348 1.388 . S
C353 C352 1.443 . S
C354 N334 1.433 . S
C354 C355 1.363 . S
C354 C359 1.370 . S
C355 H323 0.929 . S
C355 C354 1.363 . S
C355 C356 1.385 . S
C356 H324 0.930 . S
C356 C355 1.385 . S
C356 C357 1.357 . S
C357 C356 1.357 . S
C357 C358 1.406 . S
C358 H325 0.929 . S
C358 C357 1.406 . S
C358 C359 1.391 . S
C359 H326 0.931 . S
C359 C354 1.370 . S
C359 C358 1.391 . S
C360 N334 1.435 . S
C360 C361 1.358 . S
C360 C365 1.371 . S
C361 H327 0.930 . S
C361 C360 1.358 . S
C361 C362 1.405 . S
C362 H328 0.932 . S
C362 C361 1.405 . S
C362 C363 1.383 . S
C363 C362 1.383 . S
C363 C364 1.393 . S
C364 H329 0.931 . S
C364 C363 1.393 . S
C364 C365 1.382 . S
C365 H330 0.929 . S
C365 C360 1.371 . S
C365 C364 1.382 . S
C366 N334 1.423 . S
C366 C367 1.362 . S
C366 C371 1.388 . S
C367 H331 0.929 . S
C367 C366 1.362 . S
C367 C368 1.376 . S
C368 H332 0.931 . S
C368 C367 1.376 . S
C368 C369 1.396 . S
C369 C351 1.472 . S
C369 C368 1.396 . S
C369 C370 1.348 . S
C370 H333 0.929 . S
C370 C369 1.348 . S
C370 C371 1.443 . S
C371 H335 0.932 . S
C371 C366 1.388 . S
C371 C370 1.443 . S
Zn372 O375 2.031 . S
Zn372 O377 2.049 . S
Zn372 O382 2.067 . S
Zn373 O374 1.962 . S
Zn373 O376 1.986 . S
Zn373 O378 1.996 . S
Zn373 O381 1.943 . S
O374 Zn373 1.962 . S
O374 C379 1.254 . S
O375 Zn372 2.031 . S
O375 C379 1.269 . S
O376 Zn373 1.986 . S
O376 C383 1.262 . S
O377 Zn372 2.049 . S
O377 C385 1.260 . S
O378 Zn373 1.996 . S
O378 C385 1.257 . S
C379 O374 1.254 . S
C379 O375 1.269 . S
C380 O381 1.249 . S
C380 O382 1.270 . S
O381 Zn373 1.943 . S
O381 C380 1.249 . S
O382 Zn372 2.067 . S
O382 C380 1.270 . S
C383 O376 1.262 . S
C383 O384 1.232 . S
O384 C383 1.232 . S
C385 O377 1.260 . S
C385 O378 1.257 . S
Zn386 O389 2.031 . S
Zn386 O391 2.049 . S
Zn386 O396 2.067 . S
Zn387 O388 1.962 . S
Zn387 O390 1.986 . S
Zn387 O392 1.996 . S
Zn387 O395 1.943 . S
O388 Zn387 1.962 . S
O388 C393 1.254 . S
O389 Zn386 2.031 . S
O389 C393 1.269 . S
O390 Zn387 1.986 . S
O390 C397 1.262 . S
O391 Zn386 2.049 . S
O391 C399 1.260 . S
O392 Zn387 1.996 . S
O392 C399 1.257 . S
C393 O388 1.254 . S
C393 O389 1.269 . S
C394 O395 1.249 . S
C394 O396 1.270 . S
O395 Zn387 1.943 . S
O395 C394 1.249 . S
O396 Zn386 2.067 . S
O396 C394 1.270 . S
C397 O390 1.262 . S
C397 O398 1.232 . S
O398 C397 1.232 . S
C399 O391 1.260 . S
C399 O392 1.257 . S
Zn400 O403 2.031 . S
Zn400 O405 2.049 . S
Zn400 O410 2.067 . S
Zn401 O402 1.962 . S
Zn401 O404 1.986 . S
Zn401 O406 1.996 . S
Zn401 O409 1.943 . S
O402 Zn401 1.962 . S
O402 C407 1.254 . S
O403 Zn400 2.031 . S
O403 C407 1.269 . S
O404 Zn401 1.986 . S
O404 C411 1.262 . S
O405 Zn400 2.049 . S
O405 C413 1.260 . S
O406 Zn401 1.996 . S
O406 C413 1.257 . S
C407 O402 1.254 . S
C407 O403 1.269 . S
C408 O409 1.249 . S
C408 O410 1.270 . S
O409 Zn401 1.943 . S
O409 C408 1.249 . S
O410 Zn400 2.067 . S
O410 C408 1.270 . S
C411 O404 1.262 . S
C411 O412 1.232 . S
O412 C411 1.232 . S
C413 O405 1.260 . S
C413 O406 1.257 . S
Zn414 O417 2.031 . S
Zn414 O419 2.049 . S
Zn414 O424 2.067 . S
Zn415 O416 1.962 . S
Zn415 O418 1.986 . S
Zn415 O420 1.996 . S
Zn415 O423 1.943 . S
O416 Zn415 1.962 . S
O416 C421 1.254 . S
O417 Zn414 2.031 . S
O417 C421 1.269 . S
O418 Zn415 1.986 . S
O418 C425 1.262 . S
O419 Zn414 2.049 . S
O419 C427 1.260 . S
O420 Zn415 1.996 . S
O420 C427 1.257 . S
C421 O416 1.254 . S
C421 O417 1.269 . S
C422 O423 1.249 . S
C422 O424 1.270 . S
O423 Zn415 1.943 . S
O423 C422 1.249 . S
O424 Zn414 2.067 . S
O424 C422 1.270 . S
C425 O418 1.262 . S
C425 O426 1.232 . S
O426 C425 1.232 . S
C427 O419 1.260 . S
C427 O420 1.257 . S
Zn428 O431 2.031 . S
Zn428 O433 2.049 . S
Zn428 O438 2.067 . S
Zn429 O430 1.962 . S
Zn429 O432 1.986 . S
Zn429 O434 1.996 . S
Zn429 O437 1.943 . S
O430 Zn429 1.962 . S
O430 C435 1.254 . S
O431 Zn428 2.031 . S
O431 C435 1.269 . S
O432 Zn429 1.986 . S
O432 C439 1.262 . S
O433 Zn428 2.049 . S
O433 C441 1.260 . S
O434 Zn429 1.996 . S
O434 C441 1.257 . S
C435 O430 1.254 . S
C435 O431 1.269 . S
C436 O437 1.249 . S
C436 O438 1.270 . S
O437 Zn429 1.943 . S
O437 C436 1.249 . S
O438 Zn428 2.067 . S
O438 C436 1.270 . S
C439 O432 1.262 . S
C439 O440 1.232 . S
O440 C439 1.232 . S
C441 O433 1.260 . S
C441 O434 1.257 . S
Zn442 O445 2.031 . S
Zn442 O447 2.049 . S
Zn442 O452 2.067 . S
Zn443 O444 1.962 . S
Zn443 O446 1.986 . S
Zn443 O448 1.996 . S
Zn443 O451 1.943 . S
O444 Zn443 1.962 . S
O444 C449 1.254 . S
O445 Zn442 2.031 . S
O445 C449 1.269 . S
O446 Zn443 1.986 . S
O446 C453 1.262 . S
O447 Zn442 2.049 . S
O447 C455 1.260 . S
O448 Zn443 1.996 . S
O448 C455 1.257 . S
C449 O444 1.254 . S
C449 O445 1.269 . S
C450 O451 1.249 . S
C450 O452 1.270 . S
O451 Zn443 1.943 . S
O451 C450 1.249 . S
O452 Zn442 2.067 . S
O452 C450 1.270 . S
C453 O446 1.262 . S
C453 O454 1.232 . S
O454 C453 1.232 . S
C455 O447 1.260 . S
C455 O448 1.257 . S
H456 C462 0.930 . S
H457 C466 0.930 . S
H458 C471 0.929 . S
H459 C469 0.929 . S
H460 C464 0.929 . S
H461 C470 0.929 . S
C462 H456 0.930 . S
C462 C463 1.367 . S
C462 C470 1.378 . S
C463 C462 1.367 . S
C463 C471 1.433 . S
C464 H460 0.929 . S
C464 C466 1.378 . S
C464 C468 1.350 . S
C465 C468 1.463 . S
C465 C470 1.350 . S
C465 N473 1.427 . S
C466 H457 0.930 . S
C466 C464 1.378 . S
C466 C467 1.367 . S
C467 C466 1.367 . S
C467 C469 1.433 . S
C468 C464 1.350 . S
C468 C465 1.463 . S
C468 N472 1.427 . S
C469 H459 0.929 . S
C469 C467 1.433 . S
C469 N472 1.384 . S
C470 H461 0.929 . S
C470 C462 1.378 . S
C470 C465 1.350 . S
C471 H458 0.929 . S
C471 C463 1.433 . S
C471 N473 1.384 . S
N472 C468 1.427 . S
N472 C469 1.384 . S
N473 C465 1.427 . S
N473 C471 1.384 . S
H474 C480 0.930 . S
H475 C484 0.930 . S
H476 C489 0.929 . S
H477 C487 0.929 . S
H478 C482 0.929 . S
H479 C488 0.929 . S
C480 H474 0.930 . S
C480 C481 1.367 . S
C480 C488 1.378 . S
C481 C480 1.367 . S
C481 C489 1.433 . S
C482 H478 0.929 . S
C482 C484 1.378 . S
C482 C486 1.350 . S
C483 C486 1.463 . S
C483 C488 1.350 . S
C483 N491 1.427 . S
C484 H475 0.930 . S
C484 C482 1.378 . S
C484 C485 1.367 . S
C485 C484 1.367 . S
C485 C487 1.433 . S
C486 C482 1.350 . S
C486 C483 1.463 . S
C486 N490 1.427 . S
C487 H477 0.929 . S
C487 C485 1.433 . S
C487 N490 1.384 . S
C488 H479 0.929 . S
C488 C480 1.378 . S
C488 C483 1.350 . S
C489 H476 0.929 . S
C489 C481 1.433 . S
C489 N491 1.384 . S
N490 C486 1.427 . S
N490 C487 1.384 . S
N491 C483 1.427 . S
N491 C489 1.384 . S
H492 C498 0.930 . S
H493 C502 0.930 . S
H494 C507 0.929 . S
H495 C505 0.929 . S
H496 C500 0.929 . S
H497 C506 0.929 . S
C498 H492 0.930 . S
C498 C499 1.367 . S
C498 C506 1.378 . S
C499 C498 1.367 . S
C499 C507 1.433 . S
C500 H496 0.929 . S
C500 C502 1.378 . S
C500 C504 1.350 . S
C501 C504 1.463 . S
C501 C506 1.350 . S
C501 N509 1.427 . S
C502 H493 0.930 . S
C502 C500 1.378 . S
C502 C503 1.367 . S
C503 C502 1.367 . S
C503 C505 1.433 . S
C504 C500 1.350 . S
C504 C501 1.463 . S
C504 N508 1.427 . S
C505 H495 0.929 . S
C505 C503 1.433 . S
C505 N508 1.384 . S
C506 H497 0.929 . S
C506 C498 1.378 . S
C506 C501 1.350 . S
C507 H494 0.929 . S
C507 C499 1.433 . S
C507 N509 1.384 . S
N508 C504 1.427 . S
N508 C505 1.384 . S
N509 C501 1.427 . S
N509 C507 1.384 . S
H510 C516 0.930 . S
H511 C520 0.930 . S
H512 C525 0.929 . S
H513 C523 0.929 . S
H514 C518 0.929 . S
H515 C524 0.929 . S
C516 H510 0.930 . S
C516 C517 1.367 . S
C516 C524 1.378 . S
C517 C516 1.367 . S
C517 C525 1.433 . S
C518 H514 0.929 . S
C518 C520 1.378 . S
C518 C522 1.350 . S
C519 C522 1.463 . S
C519 C524 1.350 . S
C519 N527 1.427 . S
C520 H511 0.930 . S
C520 C518 1.378 . S
C520 C521 1.367 . S
C521 C520 1.367 . S
C521 C523 1.433 . S
C522 C518 1.350 . S
C522 C519 1.463 . S
C522 N526 1.427 . S
C523 H513 0.929 . S
C523 C521 1.433 . S
C523 N526 1.384 . S
C524 H515 0.929 . S
C524 C516 1.378 . S
C524 C519 1.350 . S
C525 H512 0.929 . S
C525 C517 1.433 . S
C525 N527 1.384 . S
N526 C522 1.427 . S
N526 C523 1.384 . S
N527 C519 1.427 . S
N527 C525 1.384 . S
H528 C534 0.930 . S
H529 C538 0.930 . S
H530 C543 0.929 . S
H531 C541 0.929 . S
H532 C536 0.929 . S
H533 C542 0.929 . S
C534 H528 0.930 . S
C534 C535 1.367 . S
C534 C542 1.378 . S
C535 C534 1.367 . S
C535 C543 1.433 . S
C536 H532 0.929 . S
C536 C538 1.378 . S
C536 C540 1.350 . S
C537 C540 1.463 . S
C537 C542 1.350 . S
C537 N545 1.427 . S
C538 H529 0.930 . S
C538 C536 1.378 . S
C538 C539 1.367 . S
C539 C538 1.367 . S
C539 C541 1.433 . S
C540 C536 1.350 . S
C540 C537 1.463 . S
C540 N544 1.427 . S
C541 H531 0.929 . S
C541 C539 1.433 . S
C541 N544 1.384 . S
C542 H533 0.929 . S
C542 C534 1.378 . S
C542 C537 1.350 . S
C543 H530 0.929 . S
C543 C535 1.433 . S
C543 N545 1.384 . S
N544 C540 1.427 . S
N544 C541 1.384 . S
N545 C537 1.427 . S
N545 C543 1.384 . S
H546 C552 0.930 . S
H547 C556 0.930 . S
H548 C561 0.929 . S
H549 C559 0.929 . S
H550 C554 0.929 . S
H551 C560 0.929 . S
C552 H546 0.930 . S
C552 C553 1.367 . S
C552 C560 1.378 . S
C553 C552 1.367 . S
C553 C561 1.433 . S
C554 H550 0.929 . S
C554 C556 1.378 . S
C554 C558 1.350 . S
C555 C558 1.463 . S
C555 C560 1.350 . S
C555 N563 1.427 . S
C556 H547 0.930 . S
C556 C554 1.378 . S
C556 C557 1.367 . S
C557 C556 1.367 . S
C557 C559 1.433 . S
C558 C554 1.350 . S
C558 C555 1.463 . S
C558 N562 1.427 . S
C559 H549 0.929 . S
C559 C557 1.433 . S
C559 N562 1.384 . S
C560 H551 0.929 . S
C560 C552 1.378 . S
C560 C555 1.350 . S
C561 H548 0.929 . S
C561 C553 1.433 . S
C561 N563 1.384 . S
N562 C558 1.427 . S
N562 C559 1.384 . S
N563 C555 1.427 . S
N563 C561 1.384 . S
H564 C570 0.930 . S
H565 C574 0.930 . S
H566 C579 0.929 . S
H567 C577 0.929 . S
H568 C572 0.929 . S
H569 C578 0.929 . S
C570 H564 0.930 . S
C570 C571 1.367 . S
C570 C578 1.378 . S
C571 C570 1.367 . S
C571 C579 1.433 . S
C572 H568 0.929 . S
C572 C574 1.378 . S
C572 C576 1.350 . S
C573 C576 1.463 . S
C573 C578 1.350 . S
C573 N581 1.427 . S
C574 H565 0.930 . S
C574 C572 1.378 . S
C574 C575 1.367 . S
C575 C574 1.367 . S
C575 C577 1.433 . S
C576 C572 1.350 . S
C576 C573 1.463 . S
C576 N580 1.427 . S
C577 H567 0.929 . S
C577 C575 1.433 . S
C577 N580 1.384 . S
C578 H569 0.929 . S
C578 C570 1.378 . S
C578 C573 1.350 . S
C579 H566 0.929 . S
C579 C571 1.433 . S
C579 N581 1.384 . S
N580 C576 1.427 . S
N580 C577 1.384 . S
N581 C573 1.427 . S
N581 C579 1.384 . S
H582 C588 0.930 . S
H583 C592 0.930 . S
H584 C597 0.929 . S
H585 C595 0.929 . S
H586 C590 0.929 . S
H587 C596 0.929 . S
C588 H582 0.930 . S
C588 C589 1.367 . S
C588 C596 1.378 . S
C589 C588 1.367 . S
C589 C597 1.433 . S
C590 H586 0.929 . S
C590 C592 1.378 . S
C590 C594 1.350 . S
C591 C594 1.463 . S
C591 C596 1.350 . S
C591 N599 1.427 . S
C592 H583 0.930 . S
C592 C590 1.378 . S
C592 C593 1.367 . S
C593 C592 1.367 . S
C593 C595 1.433 . S
C594 C590 1.350 . S
C594 C591 1.463 . S
C594 N598 1.427 . S
C595 H585 0.929 . S
C595 C593 1.433 . S
C595 N598 1.384 . S
C596 H587 0.929 . S
C596 C588 1.378 . S
C596 C591 1.350 . S
C597 H584 0.929 . S
C597 C589 1.433 . S
C597 N599 1.384 . S
N598 C594 1.427 . S
N598 C595 1.384 . S
N599 C591 1.427 . S
N599 C597 1.384 . S
H600 C606 0.930 . S
H601 C610 0.930 . S
H602 C615 0.929 . S
H603 C613 0.929 . S
H604 C608 0.929 . S
H605 C614 0.929 . S
C606 H600 0.930 . S
C606 C607 1.367 . S
C606 C614 1.378 . S
C607 C606 1.367 . S
C607 C615 1.433 . S
C608 H604 0.929 . S
C608 C610 1.378 . S
C608 C612 1.350 . S
C609 C612 1.463 . S
C609 C614 1.350 . S
C609 N617 1.427 . S
C610 H601 0.930 . S
C610 C608 1.378 . S
C610 C611 1.367 . S
C611 C610 1.367 . S
C611 C613 1.433 . S
C612 C608 1.350 . S
C612 C609 1.463 . S
C612 N616 1.427 . S
C613 H603 0.929 . S
C613 C611 1.433 . S
C613 N616 1.384 . S
C614 H605 0.929 . S
C614 C606 1.378 . S
C614 C609 1.350 . S
C615 H602 0.929 . S
C615 C607 1.433 . S
C615 N617 1.384 . S
N616 C612 1.427 . S
N616 C613 1.384 . S
N617 C609 1.427 . S
N617 C615 1.384 . S
H618 C624 0.930 . S
H619 C628 0.930 . S
H620 C633 0.929 . S
H621 C631 0.929 . S
H622 C626 0.929 . S
H623 C632 0.929 . S
C624 H618 0.930 . S
C624 C625 1.367 . S
C624 C632 1.378 . S
C625 C624 1.367 . S
C625 C633 1.433 . S
C626 H622 0.929 . S
C626 C628 1.378 . S
C626 C630 1.350 . S
C627 C630 1.463 . S
C627 C632 1.350 . S
C627 N635 1.427 . S
C628 H619 0.930 . S
C628 C626 1.378 . S
C628 C629 1.367 . S
C629 C628 1.367 . S
C629 C631 1.433 . S
C630 C626 1.350 . S
C630 C627 1.463 . S
C630 N634 1.427 . S
C631 H621 0.929 . S
C631 C629 1.433 . S
C631 N634 1.384 . S
C632 H623 0.929 . S
C632 C624 1.378 . S
C632 C627 1.350 . S
C633 H620 0.929 . S
C633 C625 1.433 . S
C633 N635 1.384 . S
N634 C630 1.427 . S
N634 C631 1.384 . S
N635 C627 1.427 . S
N635 C633 1.384 . S
H636 C642 0.930 . S
H637 C646 0.930 . S
H638 C651 0.929 . S
H639 C649 0.929 . S
H640 C644 0.929 . S
H641 C650 0.929 . S
C642 H636 0.930 . S
C642 C643 1.367 . S
C642 C650 1.378 . S
C643 C642 1.367 . S
C643 C651 1.433 . S
C644 H640 0.929 . S
C644 C646 1.378 . S
C644 C648 1.350 . S
C645 C648 1.463 . S
C645 C650 1.350 . S
C645 N653 1.427 . S
C646 H637 0.930 . S
C646 C644 1.378 . S
C646 C647 1.367 . S
C647 C646 1.367 . S
C647 C649 1.433 . S
C648 C644 1.350 . S
C648 C645 1.463 . S
C648 N652 1.427 . S
C649 H639 0.929 . S
C649 C647 1.433 . S
C649 N652 1.384 . S
C650 H641 0.929 . S
C650 C642 1.378 . S
C650 C645 1.350 . S
C651 H638 0.929 . S
C651 C643 1.433 . S
C651 N653 1.384 . S
N652 C648 1.427 . S
N652 C649 1.384 . S
N653 C645 1.427 . S
N653 C651 1.384 . S
H654 C660 0.930 . S
H655 C664 0.930 . S
H656 C669 0.929 . S
H657 C667 0.929 . S
H658 C662 0.929 . S
H659 C668 0.929 . S
C660 H654 0.930 . S
C660 C661 1.367 . S
C660 C668 1.378 . S
C661 C660 1.367 . S
C661 C669 1.433 . S
C662 H658 0.929 . S
C662 C664 1.378 . S
C662 C666 1.350 . S
C663 C666 1.463 . S
C663 C668 1.350 . S
C663 N671 1.427 . S
C664 H655 0.930 . S
C664 C662 1.378 . S
C664 C665 1.367 . S
C665 C664 1.367 . S
C665 C667 1.433 . S
C666 C662 1.350 . S
C666 C663 1.463 . S
C666 N670 1.427 . S
C667 H657 0.929 . S
C667 C665 1.433 . S
C667 N670 1.384 . S
C668 H659 0.929 . S
C668 C660 1.378 . S
C668 C663 1.350 . S
C669 H656 0.929 . S
C669 C661 1.433 . S
C669 N671 1.384 . S
N670 C666 1.427 . S
N670 C667 1.384 . S
N671 C663 1.427 . S
N671 C669 1.384 . S
H672 C678 0.930 . S
H673 C682 0.930 . S
H674 C687 0.929 . S
H675 C685 0.929 . S
H676 C680 0.929 . S
H677 C686 0.929 . S
C678 H672 0.930 . S
C678 C679 1.367 . S
C678 C686 1.378 . S
C679 C678 1.367 . S
C679 C687 1.433 . S
C680 H676 0.929 . S
C680 C682 1.378 . S
C680 C684 1.350 . S
C681 C684 1.463 . S
C681 C686 1.350 . S
C681 N689 1.427 . S
C682 H673 0.930 . S
C682 C680 1.378 . S
C682 C683 1.367 . S
C683 C682 1.367 . S
C683 C685 1.433 . S
C684 C680 1.350 . S
C684 C681 1.463 . S
C684 N688 1.427 . S
C685 H675 0.929 . S
C685 C683 1.433 . S
C685 N688 1.384 . S
C686 H677 0.929 . S
C686 C678 1.378 . S
C686 C681 1.350 . S
C687 H674 0.929 . S
C687 C679 1.433 . S
C687 N689 1.384 . S
N688 C684 1.427 . S
N688 C685 1.384 . S
N689 C681 1.427 . S
N689 C687 1.384 . S
H690 C696 0.930 . S
H691 C700 0.930 . S
H692 C705 0.929 . S
H693 C703 0.929 . S
H694 C698 0.929 . S
H695 C704 0.929 . S
C696 H690 0.930 . S
C696 C697 1.367 . S
C696 C704 1.378 . S
C697 C696 1.367 . S
C697 C705 1.433 . S
C698 H694 0.929 . S
C698 C700 1.378 . S
C698 C702 1.350 . S
C699 C702 1.463 . S
C699 C704 1.350 . S
C699 N707 1.427 . S
C700 H691 0.930 . S
C700 C698 1.378 . S
C700 C701 1.367 . S
C701 C700 1.367 . S
C701 C703 1.433 . S
C702 C698 1.350 . S
C702 C699 1.463 . S
C702 N706 1.427 . S
C703 H693 0.929 . S
C703 C701 1.433 . S
C703 N706 1.384 . S
C704 H695 0.929 . S
C704 C696 1.378 . S
C704 C699 1.350 . S
C705 H692 0.929 . S
C705 C697 1.433 . S
C705 N707 1.384 . S
N706 C702 1.427 . S
N706 C703 1.384 . S
N707 C699 1.427 . S
N707 C705 1.384 . S
H708 C714 0.930 . S
H709 C718 0.930 . S
H710 C723 0.929 . S
H711 C721 0.929 . S
H712 C716 0.929 . S
H713 C722 0.929 . S
C714 H708 0.930 . S
C714 C715 1.367 . S
C714 C722 1.378 . S
C715 C714 1.367 . S
C715 C723 1.433 . S
C716 H712 0.929 . S
C716 C718 1.378 . S
C716 C720 1.350 . S
C717 C720 1.463 . S
C717 C722 1.350 . S
C717 N725 1.427 . S
C718 H709 0.930 . S
C718 C716 1.378 . S
C718 C719 1.367 . S
C719 C718 1.367 . S
C719 C721 1.433 . S
C720 C716 1.350 . S
C720 C717 1.463 . S
C720 N724 1.427 . S
C721 H711 0.929 . S
C721 C719 1.433 . S
C721 N724 1.384 . S
C722 H713 0.929 . S
C722 C714 1.378 . S
C722 C717 1.350 . S
C723 H710 0.929 . S
C723 C715 1.433 . S
C723 N725 1.384 . S
N724 C720 1.427 . S
N724 C721 1.384 . S
N725 C717 1.427 . S
N725 C723 1.384 . S
H726 C732 0.930 . S
H727 C736 0.930 . S
H728 C741 0.929 . S
H729 C739 0.929 1_554 S
H730 C734 0.929 . S
H731 C740 0.929 . S
C732 H726 0.930 . S
C732 C733 1.367 . S
C732 C740 1.378 . S
C733 C732 1.367 . S
C733 C741 1.433 . S
C734 H730 0.929 . S
C734 C736 1.378 1_556 S
C734 C738 1.350 . S
C735 C738 1.463 . S
C735 C740 1.350 . S
C735 N743 1.427 . S
C736 H727 0.930 . S
C736 C734 1.378 1_554 S
C736 C737 1.367 . S
C737 C736 1.367 . S
C737 C739 1.433 1_554 S
C738 C734 1.350 . S
C738 C735 1.463 . S
C738 N742 1.427 . S
C739 H729 0.929 1_556 S
C739 C737 1.433 1_556 S
C739 N742 1.384 . S
C740 H731 0.929 . S
C740 C732 1.378 . S
C740 C735 1.350 . S
C741 H728 0.929 . S
C741 C733 1.433 . S
C741 N743 1.384 . S
N742 C738 1.427 . S
N742 C739 1.384 . S
N743 C735 1.427 . S
N743 C741 1.384 . S
H744 C750 0.930 . S
H745 C754 0.930 . S
H746 C759 0.929 . S
H747 C757 0.929 . S
H748 C752 0.929 . S
H749 C758 0.929 . S
C750 H744 0.930 . S
C750 C751 1.367 . S
C750 C758 1.378 . S
C751 C750 1.367 . S
C751 C759 1.433 . S
C752 H748 0.929 . S
C752 C754 1.378 . S
C752 C756 1.350 . S
C753 C756 1.463 . S
C753 C758 1.350 . S
C753 N761 1.427 . S
C754 H745 0.930 . S
C754 C752 1.378 . S
C754 C755 1.367 . S
C755 C754 1.367 . S
C755 C757 1.433 . S
C756 C752 1.350 . S
C756 C753 1.463 . S
C756 N760 1.427 . S
C757 H747 0.929 . S
C757 C755 1.433 . S
C757 N760 1.384 . S
C758 H749 0.929 . S
C758 C750 1.378 . S
C758 C753 1.350 . S
C759 H746 0.929 . S
C759 C751 1.433 . S
C759 N761 1.384 . S
N760 C756 1.427 . S
N760 C757 1.384 . S
N761 C753 1.427 . S
N761 C759 1.384 . S
H762 C768 0.930 . S
H763 C772 0.930 . S
H764 C777 0.929 . S
H765 C775 0.929 . S
H766 C770 0.929 . S
H767 C776 0.929 . S
C768 H762 0.930 . S
C768 C769 1.367 . S
C768 C776 1.378 . S
C769 C768 1.367 . S
C769 C777 1.433 . S
C770 H766 0.929 . S
C770 C772 1.378 . S
C770 C774 1.350 . S
C771 C774 1.463 . S
C771 C776 1.350 . S
C771 N779 1.427 . S
C772 H763 0.930 . S
C772 C770 1.378 . S
C772 C773 1.367 . S
C773 C772 1.367 . S
C773 C775 1.433 . S
C774 C770 1.350 . S
C774 C771 1.463 . S
C774 N778 1.427 . S
C775 H765 0.929 . S
C775 C773 1.433 . S
C775 N778 1.384 . S
C776 H767 0.929 . S
C776 C768 1.378 . S
C776 C771 1.350 . S
C777 H764 0.929 . S
C777 C769 1.433 . S
C777 N779 1.384 . S
N778 C774 1.427 . S
N778 C775 1.384 . S
N779 C771 1.427 . S
N779 C777 1.384 . S
H780 C786 0.930 . S
H781 C790 0.930 . S
H782 C795 0.929 . S
H783 C793 0.929 . S
H784 C788 0.929 . S
H785 C794 0.929 . S
C786 H780 0.930 . S
C786 C787 1.367 . S
C786 C794 1.378 . S
C787 C786 1.367 . S
C787 C795 1.433 . S
C788 H784 0.929 . S
C788 C790 1.378 . S
C788 C792 1.350 . S
C789 C792 1.463 . S
C789 C794 1.350 . S
C789 N797 1.427 . S
C790 H781 0.930 . S
C790 C788 1.378 . S
C790 C791 1.367 . S
C791 C790 1.367 . S
C791 C793 1.433 . S
C792 C788 1.350 . S
C792 C789 1.463 . S
C792 N796 1.427 . S
C793 H783 0.929 . S
C793 C791 1.433 . S
C793 N796 1.384 . S
C794 H785 0.929 . S
C794 C786 1.378 . S
C794 C789 1.350 . S
C795 H782 0.929 . S
C795 C787 1.433 . S
C795 N797 1.384 . S
N796 C792 1.427 . S
N796 C793 1.384 . S
N797 C789 1.427 . S
N797 C795 1.384 . S
H798 C804 0.930 . S
H799 C808 0.930 . S
H800 C813 0.929 . S
H801 C811 0.929 . S
H802 C806 0.929 . S
H803 C812 0.929 . S
C804 H798 0.930 . S
C804 C805 1.367 . S
C804 C812 1.378 . S
C805 C804 1.367 . S
C805 C813 1.433 . S
C806 H802 0.929 . S
C806 C808 1.378 . S
C806 C810 1.350 . S
C807 C810 1.463 . S
C807 C812 1.350 . S
C807 N815 1.427 . S
C808 H799 0.930 . S
C808 C806 1.378 . S
C808 C809 1.367 . S
C809 C808 1.367 . S
C809 C811 1.433 . S
C810 C806 1.350 . S
C810 C807 1.463 . S
C810 N814 1.427 . S
C811 H801 0.929 . S
C811 C809 1.433 . S
C811 N814 1.384 . S
C812 H803 0.929 . S
C812 C804 1.378 . S
C812 C807 1.350 . S
C813 H800 0.929 . S
C813 C805 1.433 . S
C813 N815 1.384 . S
N814 C810 1.427 . S
N814 C811 1.384 . S
N815 C807 1.427 . S
N815 C813 1.384 . S
H816 C822 0.930 . S
H817 C826 0.930 . S
H818 C831 0.929 . S
H819 C829 0.929 . S
H820 C824 0.929 . S
H821 C830 0.929 . S
C822 H816 0.930 . S
C822 C823 1.367 . S
C822 C830 1.378 . S
C823 C822 1.367 . S
C823 C831 1.433 . S
C824 H820 0.929 . S
C824 C826 1.378 . S
C824 C828 1.350 . S
C825 C828 1.463 . S
C825 C830 1.350 . S
C825 N833 1.427 . S
C826 H817 0.930 . S
C826 C824 1.378 . S
C826 C827 1.367 . S
C827 C826 1.367 . S
C827 C829 1.433 . S
C828 C824 1.350 . S
C828 C825 1.463 . S
C828 N832 1.427 . S
C829 H819 0.929 . S
C829 C827 1.433 . S
C829 N832 1.384 . S
C830 H821 0.929 . S
C830 C822 1.378 . S
C830 C825 1.350 . S
C831 H818 0.929 . S
C831 C823 1.433 . S
C831 N833 1.384 . S
N832 C828 1.427 . S
N832 C829 1.384 . S
N833 C825 1.427 . S
N833 C831 1.384 . S
H834 C840 0.930 . S
H835 C844 0.930 . S
H836 C849 0.929 . S
H837 C847 0.929 . S
H838 C842 0.929 . S
H839 C848 0.929 . S
C840 H834 0.930 . S
C840 C841 1.367 . S
C840 C848 1.378 . S
C841 C840 1.367 . S
C841 C849 1.433 . S
C842 H838 0.929 . S
C842 C844 1.378 . S
C842 C846 1.350 . S
C843 C846 1.463 . S
C843 C848 1.350 . S
C843 N851 1.427 . S
C844 H835 0.930 . S
C844 C842 1.378 . S
C844 C845 1.367 . S
C845 C844 1.367 . S
C845 C847 1.433 . S
C846 C842 1.350 . S
C846 C843 1.463 . S
C846 N850 1.427 . S
C847 H837 0.929 . S
C847 C845 1.433 . S
C847 N850 1.384 . S
C848 H839 0.929 . S
C848 C840 1.378 . S
C848 C843 1.350 . S
C849 H836 0.929 . S
C849 C841 1.433 . S
C849 N851 1.384 . S
N850 C846 1.427 . S
N850 C847 1.384 . S
N851 C843 1.427 . S
N851 C849 1.384 . S
H852 C858 0.930 . S
H853 C862 0.930 . S
H854 C867 0.929 . S
H855 C865 0.929 . S
H856 C860 0.929 . S
H857 C866 0.929 . S
C858 H852 0.930 . S
C858 C859 1.367 . S
C858 C866 1.378 . S
C859 C858 1.367 . S
C859 C867 1.433 . S
C860 H856 0.929 . S
C860 C862 1.378 . S
C860 C864 1.350 . S
C861 C864 1.463 1_554 S
C861 C866 1.350 . S
C861 N869 1.427 . S
C862 H853 0.930 . S
C862 C860 1.378 . S
C862 C863 1.367 . S
C863 C862 1.367 . S
C863 C865 1.433 . S
C864 C860 1.350 . S
C864 C861 1.463 1_556 S
C864 N868 1.426 1_556 S
C865 H855 0.929 . S
C865 C863 1.433 . S
C865 N868 1.381 1_556 S
C866 H857 0.929 . S
C866 C858 1.378 . S
C866 C861 1.350 . S
C867 H854 0.929 . S
C867 C859 1.433 . S
C867 N869 1.384 . S
N868 C864 1.426 1_554 S
N868 C865 1.381 1_554 S
N869 C861 1.427 . S
N869 C867 1.384 . S
H870 C876 0.930 . S
H871 C880 0.930 . S
H872 C885 0.929 . S
H873 C883 0.929 . S
H874 C878 0.929 . S
H875 C884 0.929 . S
C876 H870 0.930 . S
C876 C877 1.367 . S
C876 C884 1.378 . S
C877 C876 1.367 . S
C877 C885 1.433 . S
C878 H874 0.929 . S
C878 C880 1.378 . S
C878 C882 1.350 . S
C879 C882 1.463 . S
C879 C884 1.350 . S
C879 N887 1.427 . S
C880 H871 0.930 . S
C880 C878 1.378 . S
C880 C881 1.367 . S
C881 C880 1.367 . S
C881 C883 1.433 . S
C882 C878 1.350 . S
C882 C879 1.463 . S
C882 N886 1.427 . S
C883 H873 0.929 . S
C883 C881 1.433 . S
C883 N886 1.384 . S
C884 H875 0.929 . S
C884 C876 1.378 . S
C884 C879 1.350 . S
C885 H872 0.929 . S
C885 C877 1.433 . S
C885 N887 1.384 . S
N886 C882 1.427 . S
N886 C883 1.384 . S
N887 C879 1.427 . S
N887 C885 1.384 . S
C467 C449 1.629 . S
C463 C29 1.548 . S
C481 C115 1.411 . S
C485 C383 1.398 . S
C499 C153 1.376 . S
C503 C397 1.446 . S
C517 C239 1.418 . S
C521 C411 1.402 . S
C539 C425 1.517 . S
C535 C301 1.527 . S
C553 C339 1.742 . S
C557 C435 1.843 . S
C571 C91 1.551 . S
C575 C393 1.630 . S
C589 C177 1.603 . S
C593 C407 1.626 . S
C607 C215 1.561 . S
C611 C421 1.646 . S
C629 C439 1.804 . S
C625 C277 1.731 . S
C647 C453 1.501 . S
C643 C363 1.490 . S
C665 C379 1.512 . S
C661 C53 1.496 . S
C679 C35 1.572 . S
C683 C394 1.540 . S
C697 C109 1.479 . S
C701 C408 1.531 . S
C719 C422 1.507 . S
C715 C159 1.531 . S
C733 C233 1.587 . S
C737 C441 1.633 . S
C755 C455 1.419 . S
C751 C295 1.359 . S
C773 C380 1.330 . S
C769 C345 1.358 . S
C791 C450 1.391 . S
C787 C97 1.415 . S
C805 C171 1.274 . S
C809 C385 1.311 . S
C827 C399 1.411 . S
C823 C221 1.423 . S
C841 C283 1.322 . S
C845 C413 1.300 . S
C859 C357 1.380 . S
C863 C427 1.454 . S
C877 C47 1.613 . S
C881 C436 1.666 . S
