# Generated by pormake.
# Topology tsx, (6,3)-cn, num edge types: 1
# Building blocks:
#     Node 0, Type 0, BuildingBlock: MIDCAF_clean_sbu_0, # of connection points: 6
#     Node 1, Type 0, BuildingBlock: MIDCAF_clean_sbu_0, # of connection points: 6
#     Node 2, Type 1, BuildingBlock: BETDAH_clean_linker_0, # of connection points: 3
#     Node 3, Type 1, BuildingBlock: BETDAH_clean_linker_0, # of connection points: 3
#     Node 4, Type 1, BuildingBlock: BETDAH_clean_linker_0, # of connection points: 3
#     Node 5, Type 1, BuildingBlock: BETDAH_clean_linker_0, # of connection points: 3
#     Edge 6, Type (0, 1), BuildingBlock: FUNLAD_clean_linker_0, # of connection points: 2
#     Edge 7, Type (0, 1), BuildingBlock: FUNLAD_clean_linker_0, # of connection points: 2
#     Edge 8, Type (0, 1), BuildingBlock: FUNLAD_clean_linker_0, # of connection points: 2
#     Edge 9, Type (0, 1), BuildingBlock: FUNLAD_clean_linker_0, # of connection points: 2
#     Edge 10, Type (0, 1), BuildingBlock: FUNLAD_clean_linker_0, # of connection points: 2
#     Edge 11, Type (0, 1), BuildingBlock: FUNLAD_clean_linker_0, # of connection points: 2
#     Edge 12, Type (0, 1), BuildingBlock: FUNLAD_clean_linker_0, # of connection points: 2
#     Edge 13, Type (0, 1), BuildingBlock: FUNLAD_clean_linker_0, # of connection points: 2
#     Edge 14, Type (0, 1), BuildingBlock: FUNLAD_clean_linker_0, # of connection points: 2
#     Edge 15, Type (0, 1), BuildingBlock: FUNLAD_clean_linker_0, # of connection points: 2
#     Edge 16, Type (0, 1), BuildingBlock: FUNLAD_clean_linker_0, # of connection points: 2
#     Edge 17, Type (0, 1), BuildingBlock: FUNLAD_clean_linker_0, # of connection points: 2
# Relax obj value: 0.079
# Max RMSD: 0.149
# Mean RMSD: 0.110
data_MOF--net-tsx--node1-MIDCAF_clean_sbu_0--node2-BETDAH_clean_linker_0--edge1-FUNLAD_clean_linker_0
_symmetry_space_group_name_H-M    P1
_symmetry_Int_Tables_number       1
_symmetry_cell_setting            triclinic
loop_
_symmetry_equiv_pos_as_xyz
'x, y, z'
_cell_length_a     23.6156
_cell_length_b     24.175494
_cell_length_c     41.045894
_cell_angle_alpha  90.473906
_cell_angle_beta   102.65532
_cell_angle_gamma 89.971571
loop_
_atom_site_label
_atom_site_type_symbol
_atom_site_fract_x
_atom_site_fract_y
_atom_site_fract_z
_atom_type_partial_charge
Zn0 Zn 0.9461 0.00477 0.96319 0.0
Zn1 Zn 0.14548 0.00962 0.05674 0.0
Zn2 Zn 0.04576 0.01055 0.01018 0.0
C3 C 0.11181 0.12065 0.04346 0.0
C4 C 0.16841 0.95683 1.00057 0.0
O5 O 0.98134 0.96012 0.02916 0.0
O6 O 0.90122 0.96019 0.98929 0.0
C7 C 0.97074 0.1173 0.9803 0.0
O8 O 0.06976 0.09771 0.02237 0.0
O9 O 0.1498 0.09146 0.0621 0.0
O10 O 0.19432 0.97235 0.02944 0.0
O11 O 0.11406 0.96766 0.98979 0.0
O12 O 0.93494 0.08636 0.96104 0.0
O13 O 0.01497 0.0964 1.00048 0.0
O14 O 0.06438 0.97483 0.96396 0.0
O15 O 0.97964 0.9685 0.92806 0.0
C16 C 0.03402 0.96206 0.93478 0.0
O17 O 0.0303 0.96892 0.05523 0.0
O18 O 0.11598 0.96643 0.0904 0.0
C19 C 0.92823 0.94503 0.01785 0.0
C20 C 0.06232 0.95576 0.08375 0.0
Zn21 Zn 0.65075 0.5028 0.55001 0.0
Zn22 Zn 0.44634 0.51305 0.46642 0.0
Zn23 Zn 0.54847 0.51382 0.50852 0.0
C24 C 0.52249 0.46921 0.43106 0.0
C25 C 0.47926 0.62419 0.48242 0.0
O26 O 0.53691 0.47316 0.55505 0.0
O27 O 0.62554 0.46098 0.58557 0.0
C28 C 0.66184 0.45158 0.49153 0.0
O29 O 0.55756 0.47968 0.45928 0.0
O30 O 0.46865 0.47665 0.42786 0.0
O31 O 0.4399 0.59474 0.46472 0.0
O32 O 0.52396 0.60158 0.50116 0.0
O33 O 0.69257 0.46382 0.51987 0.0
O34 O 0.6083 0.46695 0.48351 0.0
O35 O 0.57898 0.59879 0.52213 0.0
O36 O 0.6624 0.58351 0.55774 0.0
C37 C 0.62489 0.61685 0.54236 0.0
O38 O 0.48502 0.46735 0.53053 0.0
O39 O 0.40143 0.47166 0.49364 0.0
C40 C 0.57129 0.45653 0.58209 0.0
C41 C 0.43062 0.45533 0.52141 0.0
H42 H 0.10808 0.91995 0.37075 0.0
H43 H 0.99954 0.06328 0.36988 0.0
H44 H 0.11783 0.01485 0.46056 0.0
C45 C 0.09327 0.95459 0.3836 0.0
C46 C 0.11799 0.96322 0.41753 0.0
C47 C 0.05135 0.99091 0.36584 0.0
C48 C 0.03164 0.0348 0.38321 0.0
C49 C 0.05531 0.04307 0.41757 0.0
C50 C 0.09906 0.00781 0.43429 0.0
N51 N 0.03727 0.0869 0.43612 0.0
C52 C 0.99155 0.12256 0.42395 0.0
H53 H 0.99598 0.9437 0.66163 0.0
H54 H 0.09251 0.09015 0.65011 0.0
H55 H 0.95343 0.03501 0.57015 0.0
C56 C 0.00487 0.97755 0.64631 0.0
C57 C 0.97014 0.98408 0.61415 0.0
C58 C 0.04894 0.01561 0.65956 0.0
C59 C 0.0586 0.06062 0.64 0.0
C60 C 0.02415 0.0675 0.6076 0.0
C61 C 0.97976 0.02953 0.59508 0.0
N62 N 0.03252 0.11219 0.58696 0.0
C63 C 0.07956 0.14809 0.5942 0.0
H64 H 0.65192 0.47205 0.86796 0.0
H65 H 0.50189 0.56513 0.87915 0.0
H66 H 0.63658 0.52748 0.96524 0.0
C67 C 0.62836 0.49489 0.88358 0.0
C68 C 0.65148 0.49811 0.91804 0.0
C69 C 0.5746 0.51895 0.86914 0.0
C70 C 0.54321 0.54618 0.88998 0.0
C71 C 0.56567 0.54917 0.92477 0.0
C72 C 0.61942 0.52479 0.93852 0.0
N73 N 0.53577 0.57617 0.94685 0.0
C74 C 0.48585 0.60777 0.93702 0.0
H75 H 0.43159 0.46665 0.1329 0.0
H76 H 0.60146 0.53031 0.13221 0.0
H77 H 0.48944 0.47445 0.04074 0.0
C78 C 0.46393 0.47865 0.11919 0.0
C79 C 0.45308 0.46926 0.08459 0.0
C80 C 0.51735 0.50017 0.13669 0.0
C81 C 0.56002 0.51386 0.11901 0.0
C82 C 0.54958 0.50479 0.0843 0.0
C83 C 0.49674 0.48169 0.06743 0.0
N84 N 0.5924 0.51625 0.06593 0.0
C85 C 0.62515 0.56452 0.0701 0.0
C86 C 0.11941 0.21024 0.01495 0.0
C87 C 0.12033 0.18096 0.04446 0.0
C88 C 0.14365 0.26337 0.01648 0.0
C89 C 0.16805 0.28799 0.0476 0.0
C90 C 0.16304 0.26083 0.0769 0.0
C91 C 0.14024 0.20744 0.07537 0.0
C92 C 0.20471 0.33843 0.05088 0.0
C93 C 0.24284 0.34696 0.0313 0.0
C94 C 0.29362 0.38469 0.04116 0.0
C95 C 0.34516 0.3713 0.0311 0.0
C96 C 0.39651 0.40028 0.04403 0.0
C97 C 0.39727 0.44362 0.06715 0.0
H98 H 0.25413 0.44361 0.06973 0.0
C99 C 0.34477 0.45962 0.07533 0.0
C100 C 0.29344 0.43063 0.06241 0.0
H101 H 0.34364 0.49385 0.09237 0.0
H102 H 0.10427 0.19049 0.99082 0.0
H103 H 0.14567 0.284 0.99345 0.0
H104 H 0.18098 0.27912 0.10116 0.0
H105 H 0.14118 0.18561 0.09844 0.0
H106 H 0.20822 0.36264 0.07363 0.0
H107 H 0.24255 0.31902 0.01037 0.0
H108 H 0.34649 0.3364 0.01456 0.0
H109 H 0.43615 0.38684 0.03723 0.0
C110 C 0.17542 0.87959 0.96042 0.0
C111 C 0.20114 0.9244 0.98022 0.0
C112 C 0.20917 0.84448 0.94503 0.0
C113 C 0.26929 0.85366 0.94934 0.0
C114 C 0.29396 0.9004 0.96753 0.0
C115 C 0.26045 0.93502 0.98309 0.0
C116 C 0.30865 0.81433 0.93712 0.0
C117 C 0.29863 0.75941 0.93397 0.0
C118 C 0.34415 0.7187 0.93007 0.0
C119 C 0.34125 0.665 0.94251 0.0
C120 C 0.38676 0.62762 0.94338 0.0
C121 C 0.43553 0.6431 0.93141 0.0
H122 H 0.3949 0.77302 0.90541 0.0
C123 C 0.43738 0.69532 0.91718 0.0
C124 C 0.39187 0.73283 0.91629 0.0
H125 H 0.47479 0.70776 0.90771 0.0
H126 H 0.12983 0.87029 0.958 0.0
H127 H 0.18827 0.80977 0.93039 0.0
H128 H 0.33997 0.90883 0.97102 0.0
H129 H 0.28131 0.96947 0.99809 0.0
H130 H 0.35072 0.83034 0.9352 0.0
H131 H 0.25854 0.7429 0.93882 0.0
H132 H 0.30494 0.65275 0.95302 0.0
H133 H 0.38479 0.5874 0.95455 0.0
C134 C 0.83858 0.91169 0.03396 0.0
C135 C 0.89873 0.90732 0.03692 0.0
C136 C 0.80832 0.87129 0.04735 0.0
C137 C 0.83743 0.8247 0.0633 0.0
C138 C 0.89822 0.82238 0.06823 0.0
C139 C 0.92864 0.86325 0.05507 0.0
C140 C 0.8055 0.77672 0.07328 0.0
C141 C 0.75058 0.764 0.05751 0.0
C142 C 0.71861 0.71298 0.06303 0.0
C143 C 0.66771 0.6996 0.03934 0.0
C144 C 0.63686 0.65135 0.0422 0.0
C145 C 0.65599 0.61562 0.06895 0.0
H146 H 0.77513 0.68645 0.10962 0.0
C147 C 0.70588 0.62887 0.0932 0.0
C148 C 0.73702 0.67737 0.09038 0.0
H149 H 0.72106 0.60155 0.11409 0.0
H150 H 0.81462 0.94578 0.02051 0.0
H151 H 0.76197 0.8763 0.04444 0.0
H152 H 0.92195 0.78746 0.08083 0.0
H153 H 0.97499 0.85865 0.05747 0.0
H154 H 0.82987 0.74874 0.09166 0.0
H155 H 0.72863 0.79035 0.03738 0.0
H156 H 0.65217 0.72612 0.0181 0.0
H157 H 0.59841 0.64159 0.02319 0.0
C158 C 0.92988 0.20207 0.95055 0.0
C159 C 0.95818 0.17706 0.9804 0.0
C160 C 0.90637 0.25489 0.95082 0.0
C161 C 0.91028 0.28396 0.9811 0.0
C162 C 0.94131 0.26006 0.01081 0.0
C163 C 0.96569 0.20719 0.01045 0.0
C164 C 0.87519 0.33474 0.98248 0.0
C165 C 0.85962 0.36862 0.95613 0.0
C166 C 0.81107 0.40909 0.95178 0.0
C167 C 0.80519 0.44705 0.92556 0.0
C168 C 0.75463 0.47822 0.91588 0.0
C169 C 0.70849 0.47204 0.93212 0.0
H170 H 0.76842 0.37608 0.98943 0.0
C171 C 0.71564 0.43686 0.95979 0.0
C172 C 0.76633 0.40545 0.96948 0.0
H173 H 0.68066 0.43105 0.97266 0.0
H174 H 0.92334 0.17958 0.92707 0.0
H175 H 0.88163 0.27092 0.92747 0.0
H176 H 0.94454 0.2813 0.0345 0.0
H177 H 0.98672 0.18848 0.03387 0.0
H178 H 0.85884 0.34187 0.00489 0.0
H179 H 0.88086 0.36392 0.9353 0.0
H180 H 0.83876 0.4508 0.91145 0.0
H181 H 0.75074 0.50572 0.8948 0.0
C182 C 0.66427 0.69532 0.57919 0.0
C183 C 0.63701 0.67635 0.54725 0.0
C184 C 0.6911 0.74687 0.58338 0.0
C185 C 0.69233 0.77994 0.55555 0.0
C186 C 0.65943 0.76382 0.52409 0.0
C187 C 0.63176 0.71206 0.51992 0.0
C188 C 0.7333 0.82723 0.55877 0.0
C189 C 0.78759 0.82183 0.57744 0.0
C190 C 0.83364 0.86477 0.58282 0.0
C191 C 0.89065 0.84795 0.59675 0.0
C192 C 0.93511 0.88661 0.60571 0.0
C193 C 0.92367 0.94328 0.6011 0.0
H194 H 0.77885 0.9361 0.56669 0.0
C195 C 0.86714 0.96035 0.58594 0.0
C196 C 0.82232 0.92142 0.57694 0.0
H197 H 0.8571 0.00389 0.58233 0.0
H198 H 0.66797 0.66878 0.60071 0.0
H199 H 0.7142 0.75927 0.60816 0.0
H200 H 0.65901 0.78912 0.50238 0.0
H201 H 0.61073 0.69818 0.49505 0.0
H202 H 0.7205 0.86388 0.54389 0.0
H203 H 0.8 0.7822 0.58926 0.0
H204 H 0.90075 0.8046 0.60144 0.0
H205 H 0.97841 0.87217 0.61686 0.0
C206 C 0.74748 0.42031 0.47029 0.0
C207 C 0.68767 0.41694 0.46881 0.0
C208 C 0.77457 0.38217 0.45309 0.0
C209 C 0.74236 0.33953 0.43396 0.0
C210 C 0.68204 0.3376 0.43141 0.0
C211 C 0.65485 0.37607 0.44859 0.0
C212 C 0.77153 0.29255 0.42066 0.0
C213 C 0.82558 0.29606 0.41507 0.0
C214 C 0.86246 0.24738 0.41148 0.0
C215 C 0.91479 0.25637 0.40127 0.0
C216 C 0.956 0.21422 0.4035 0.0
C217 C 0.94544 0.16243 0.41592 0.0
H218 H 0.8122 0.18544 0.43128 0.0
C219 C 0.89234 0.15211 0.42457 0.0
C220 C 0.85107 0.19418 0.42241 0.0
H221 H 0.88393 0.11236 0.43461 0.0
H222 H 0.77385 0.45125 0.48587 0.0
H223 H 0.82126 0.38449 0.45667 0.0
H224 H 0.65625 0.30489 0.4172 0.0
H225 H 0.60883 0.37191 0.44751 0.0
H226 H 0.74874 0.25325 0.41738 0.0
H227 H 0.84564 0.3365 0.41521 0.0
H228 H 0.92504 0.29688 0.39302 0.0
H229 H 0.99716 0.22291 0.397 0.0
C230 C 0.34221 0.42863 0.54109 0.0
C231 C 0.40158 0.42104 0.54245 0.0
C232 C 0.31202 0.39224 0.5573 0.0
C233 C 0.34063 0.34722 0.57535 0.0
C234 C 0.40049 0.34066 0.57754 0.0
C235 C 0.43078 0.37733 0.56131 0.0
C236 C 0.30782 0.30296 0.58821 0.0
C237 C 0.25484 0.31103 0.59466 0.0
C238 C 0.21487 0.26558 0.59917 0.0
C239 C 0.1655 0.2788 0.61158 0.0
C240 C 0.12207 0.23942 0.61133 0.0
C241 C 0.12737 0.18627 0.59862 0.0
H242 H 0.25704 0.19943 0.57693 0.0
C243 C 0.17726 0.17197 0.58736 0.0
C244 C 0.22074 0.21125 0.58755 0.0
H245 H 0.18157 0.13107 0.57716 0.0
H246 H 0.31857 0.46182 0.52652 0.0
H247 H 0.26571 0.39806 0.55398 0.0
H248 H 0.42346 0.30596 0.59085 0.0
H249 H 0.47623 0.36975 0.56209 0.0
H250 H 0.32713 0.26205 0.5909 0.0
H251 H 0.23839 0.35292 0.59514 0.0
H252 H 0.15949 0.32032 0.62037 0.0
H253 H 0.08348 0.25111 0.61994 0.0
C254 C 0.44631 0.70981 0.45204 0.0
C255 C 0.46964 0.6842 0.48253 0.0
C256 C 0.41721 0.75996 0.4514 0.0
C257 C 0.41017 0.78488 0.48128 0.0
C258 C 0.43985 0.76303 0.51189 0.0
C259 C 0.46965 0.71265 0.51252 0.0
C260 C 0.36455 0.82736 0.48018 0.0
C261 C 0.31089 0.81714 0.4617 0.0
C262 C 0.2608 0.85561 0.45626 0.0
C263 C 0.20605 0.834 0.44121 0.0
C264 C 0.15884 0.86888 0.43045 0.0
C265 C 0.16523 0.92633 0.43449 0.0
H266 H 0.30815 0.93127 0.47339 0.0
C267 C 0.21895 0.94807 0.45145 0.0
C268 C 0.26658 0.91299 0.46218 0.0
H269 H 0.225 0.99236 0.45463 0.0
H270 H 0.44627 0.68872 0.42862 0.0
H271 H 0.39588 0.77685 0.42748 0.0
H272 H 0.43541 0.78198 0.5352 0.0
H273 H 0.48732 0.6934 0.53633 0.0
H274 H 0.37395 0.86419 0.4957 0.0
H275 H 0.30297 0.77712 0.44915 0.0
H276 H 0.2002 0.78997 0.43647 0.0
H277 H 0.11773 0.85105 0.41777 0.0
C278 C 0.98555 0.95777 0.11702 0.0
C279 C 0.03659 0.93434 0.11072 0.0
C280 C 0.97017 0.94898 0.14768 0.0
C281 C 0.0055 0.91612 0.17219 0.0
C282 C 0.05273 0.88803 0.16413 0.0
C283 C 0.06859 0.8976 0.1339 0.0
C284 C 1.0002 0.91517 0.20758 0.0
C285 C 0.97803 0.95711 0.2227 0.0
C286 C 0.99536 0.96501 0.25943 0.0
C287 C 0.95561 0.98419 0.27784 0.0
C288 C 0.97329 0.99296 0.31245 0.0
C289 C 0.03137 0.9838 0.329 0.0
H290 H 0.08584 0.94506 0.26212 0.0
C291 C 0.0713 0.96697 0.31001 0.0
C292 C 0.05351 0.95734 0.27584 0.0
H293 H 0.11682 0.96167 0.32147 0.0
H294 H 0.96009 0.98621 0.09942 0.0
H295 H 0.9324 0.96995 0.1526 0.0
H296 H 0.08032 0.86194 0.18233 0.0
H297 H 0.10791 0.87878 0.12948 0.0
H298 H 0.02449 0.88322 0.22322 0.0
H299 H 0.95251 0.98949 0.20829 0.0
H300 H 0.9108 0.99156 0.26554 0.0
H301 H 0.94141 0.00607 0.32626 0.0
C302 C 0.11353 0.97325 0.90403 0.0
C303 C 0.0624 0.94644 0.90745 0.0
C304 C 0.13293 0.96833 0.87427 0.0
C305 C 0.10149 0.93626 0.84761 0.0
C306 C 0.05359 0.90552 0.85237 0.0
C307 C 0.03375 0.91111 0.88183 0.0
C308 C 0.11304 0.93815 0.81352 0.0
C309 C 0.12968 0.98497 0.80056 0.0
C310 C 0.12091 0.99342 0.76394 0.0
C311 C 0.10724 0.04672 0.7512 0.0
C312 C 0.08745 0.05475 0.71689 0.0
C313 C 0.08134 0.00955 0.69467 0.0
H314 H 0.13257 0.90784 0.75016 0.0
C315 C 0.10019 0.95711 0.70712 0.0
C316 C 0.12003 0.9491 0.7414 0.0
H317 H 0.09733 0.92177 0.69043 0.0
H318 H 0.13632 0.00088 0.92343 0.0
H319 H 0.17099 0.99135 0.87169 0.0
H320 H 0.02896 0.88008 0.83235 0.0
H321 H 0.99436 0.88984 0.88396 0.0
H322 H 0.09707 0.90351 0.79707 0.0
H323 H 0.14038 0.02126 0.81652 0.0
H324 H 0.10817 0.08172 0.76797 0.0
H325 H 0.07332 0.09565 0.70805 0.0
C326 C 0.50236 0.46983 0.61983 0.0
C327 C 0.5489 0.44074 0.61159 0.0
C328 C 0.49289 0.46789 0.65236 0.0
C329 C 0.52966 0.43627 0.67699 0.0
C330 C 0.57178 0.40253 0.66742 0.0
C331 C 0.58161 0.40503 0.63518 0.0
C332 C 0.53273 0.44327 0.71344 0.0
C333 C 0.49833 0.47629 0.72736 0.0
C334 C 0.51571 0.49147 0.76329 0.0
C335 C 0.47556 0.49064 0.78395 0.0
C336 C 0.49382 0.50152 0.81833 0.0
C337 C 0.55232 0.51436 0.83234 0.0
H338 H 0.60467 0.5103 0.76142 0.0
C339 C 0.5912 0.51891 0.81099 0.0
C340 C 0.57325 0.50728 0.77701 0.0
H341 H 0.63608 0.53048 0.82067 0.0
H342 H 0.47658 0.49786 0.60208 0.0
H343 H 0.45957 0.49418 0.65842 0.0
H344 H 0.60036 0.37724 0.68563 0.0
H345 H 0.61755 0.38191 0.62941 0.0
H346 H 0.56941 0.42376 0.73008 0.0
H347 H 0.45879 0.49392 0.71264 0.0
H348 H 0.43073 0.47946 0.77375 0.0
H349 H 0.46274 0.49775 0.83406 0.0
C350 C 0.50683 0.43138 0.37321 0.0
C351 C 0.54426 0.45641 0.40069 0.0
C352 C 0.52005 0.43189 0.34174 0.0
C353 C 0.57091 0.45772 0.337 0.0
C354 C 0.61113 0.47789 0.36496 0.0
C355 C 0.5977 0.47769 0.3966 0.0
C356 C 0.57974 0.46769 0.30277 0.0
C357 C 0.53511 0.48464 0.27847 0.0
C358 C 0.53755 0.4953 0.24316 0.0
C359 C 0.4904 0.5229 0.22304 0.0
C360 C 0.48586 0.52756 0.18874 0.0
C361 C 0.5284 0.50464 0.17362 0.0
H362 H 0.61872 0.45295 0.24287 0.0
C363 C 0.57747 0.47985 0.19385 0.0
C364 C 0.58199 0.47499 0.22837 0.0
H365 H 0.6106 0.46133 0.18273 0.0
H366 H 0.46565 0.4141 0.37565 0.0
H367 H 0.48913 0.41424 0.32079 0.0
H368 H 0.65098 0.49732 0.36197 0.0
H369 H 0.62721 0.49771 0.41724 0.0
H370 H 0.62333 0.46489 0.29841 0.0
H371 H 0.49341 0.49184 0.28494 0.0
H372 H 0.45566 0.53925 0.23369 0.0
H373 H 0.44781 0.54726 0.17377 0.0
loop_
_geom_bond_atom_site_label_1
_geom_bond_atom_site_label_2
_geom_bond_distance
_geom_bond_site_symmetry_2
_ccdc_geom_bond_type
Zn0 O6 1.920 1_545 S
Zn0 O12 1.898 . S
Zn0 O15 1.905 1_545 S
Zn1 O9 1.905 . S
Zn1 O10 1.898 1_545 S
Zn1 O18 1.920 1_545 S
Zn2 O5 2.080 1_445 S
Zn2 O8 2.114 . S
Zn2 O11 2.120 1_545 S
Zn2 O13 2.120 1_455 S
Zn2 O14 2.114 1_554 S
Zn2 O17 2.080 . S
C3 O8 1.166 . S
C3 O9 1.182 . S
C4 O10 1.167 . S
C4 O11 1.299 . S
O5 Zn2 2.080 1_665 S
O5 C19 1.305 . S
O6 Zn0 1.920 1_565 S
O6 C19 1.234 1_556 S
C7 O12 1.167 . S
C7 O13 1.299 1_556 S
O8 Zn2 2.114 . S
O8 C3 1.166 . S
O9 Zn1 1.905 . S
O9 C3 1.182 . S
O10 Zn1 1.898 1_565 S
O10 C4 1.167 . S
O11 Zn2 2.120 1_565 S
O11 C4 1.299 . S
O12 Zn0 1.898 . S
O12 C7 1.167 . S
O13 Zn2 2.120 1_655 S
O13 C7 1.299 1_554 S
O14 Zn2 2.114 1_556 S
O14 C16 1.166 1_545 S
O15 Zn0 1.905 1_565 S
O15 C16 1.182 1_655 S
C16 O14 1.166 1_565 S
C16 O15 1.182 1_455 S
O17 Zn2 2.080 . S
O17 C20 1.305 1_545 S
O18 Zn1 1.920 1_565 S
O18 C20 1.234 . S
C19 O5 1.305 . S
C19 O6 1.234 1_554 S
C20 O17 1.305 1_565 S
C20 O18 1.234 . S
Zn21 O27 1.920 . S
Zn21 O33 1.898 . S
Zn21 O36 1.905 . S
Zn22 O30 1.905 . S
Zn22 O31 1.898 . S
Zn22 O39 1.920 . S
Zn23 O26 2.080 . S
Zn23 O29 2.114 . S
Zn23 O32 2.120 . S
Zn23 O34 2.120 . S
Zn23 O35 2.114 . S
Zn23 O38 2.080 . S
C24 O29 1.166 . S
C24 O30 1.182 . S
C25 O31 1.167 . S
C25 O32 1.299 . S
O26 Zn23 2.080 . S
O26 C40 1.305 . S
O27 Zn21 1.920 . S
O27 C40 1.234 . S
C28 O33 1.167 . S
C28 O34 1.299 . S
O29 Zn23 2.114 . S
O29 C24 1.166 . S
O30 Zn22 1.905 . S
O30 C24 1.182 . S
O31 Zn22 1.898 . S
O31 C25 1.167 . S
O32 Zn23 2.120 . S
O32 C25 1.299 . S
O33 Zn21 1.898 . S
O33 C28 1.167 . S
O34 Zn23 2.120 . S
O34 C28 1.299 . S
O35 Zn23 2.114 . S
O35 C37 1.166 . S
O36 Zn21 1.905 . S
O36 C37 1.182 . S
C37 O35 1.166 . S
C37 O36 1.182 . S
O38 Zn23 2.080 . S
O38 C41 1.305 . S
O39 Zn22 1.920 . S
O39 C41 1.234 . S
C40 O26 1.305 . S
C40 O27 1.234 . S
C41 O38 1.305 . S
C41 O39 1.234 . S
H42 C45 0.938 . S
H43 C48 0.929 . S
H44 C50 0.930 . S
C45 H42 0.938 . S
C45 C46 1.403 . S
C45 C47 1.384 1_565 S
C46 C45 1.403 . S
C46 C50 1.407 1_565 S
C47 C45 1.384 1_545 S
C47 C48 1.394 . S
C48 H43 0.929 . S
C48 C47 1.394 . S
C48 C49 1.382 . S
C49 C48 1.382 . S
C49 C50 1.392 . S
C49 N51 1.420 . S
C50 H44 0.930 . S
C50 C46 1.407 1_545 S
C50 C49 1.392 . S
N51 C49 1.420 . S
N51 C52 1.244 . S
C52 N51 1.244 . S
H53 C56 0.929 . S
H54 C59 0.929 . S
H55 C61 0.930 1_565 S
C56 H53 0.929 . S
C56 C57 1.398 . S
C56 C58 1.396 1_565 S
C57 C56 1.398 . S
C57 C61 1.407 1_565 S
C58 C56 1.396 1_545 S
C58 C59 1.394 1_655 S
C59 H54 0.929 . S
C59 C58 1.394 1_455 S
C59 C60 1.382 . S
C60 C59 1.382 . S
C60 C61 1.392 1_455 S
C60 N62 1.420 . S
C61 H55 0.930 1_545 S
C61 C57 1.407 1_545 S
C61 C60 1.392 1_655 S
N62 C60 1.420 . S
N62 C63 1.244 . S
C63 N62 1.244 . S
H64 C67 0.929 . S
H65 C70 0.929 . S
H66 C72 0.930 . S
C67 H64 0.929 . S
C67 C68 1.398 . S
C67 C69 1.396 . S
C68 C67 1.398 . S
C68 C72 1.407 . S
C69 C67 1.396 . S
C69 C70 1.394 . S
C70 H65 0.929 . S
C70 C69 1.394 . S
C70 C71 1.382 . S
C71 C70 1.382 . S
C71 C72 1.392 . S
C71 N73 1.420 . S
C72 H66 0.930 . S
C72 C68 1.407 . S
C72 C71 1.392 . S
N73 C71 1.420 . S
N73 C74 1.244 . S
C74 N73 1.244 . S
H75 C78 0.929 . S
H76 C81 0.929 . S
H77 C83 0.930 . S
C78 H75 0.929 . S
C78 C79 1.398 . S
C78 C80 1.396 . S
C79 C78 1.398 . S
C79 C83 1.407 . S
C80 C78 1.396 . S
C80 C81 1.394 . S
C81 H76 0.929 . S
C81 C80 1.394 . S
C81 C82 1.382 . S
C82 C81 1.382 . S
C82 C83 1.392 . S
C82 N84 1.420 . S
C83 H77 0.930 . S
C83 C79 1.407 . S
C83 C82 1.392 . S
N84 C82 1.420 . S
N84 C85 1.244 . S
C85 N84 1.244 . S
C86 C87 1.386 . S
C86 C88 1.383 . S
C86 H102 0.951 1_554 S
C87 C86 1.386 . S
C87 C91 1.383 . S
C88 C86 1.383 . S
C88 C89 1.402 . S
C88 H103 0.933 1_554 S
C89 C88 1.402 . S
C89 C90 1.375 . S
C89 C92 1.481 . S
C90 C89 1.375 . S
C90 C91 1.367 . S
C90 H104 0.951 . S
C91 C87 1.383 . S
C91 C90 1.367 . S
C91 H105 0.950 . S
C92 C89 1.481 . S
C92 C93 1.297 . S
C92 H106 0.950 . S
C93 C92 1.297 . S
C93 C94 1.479 . S
C93 H107 0.950 . S
C94 C93 1.479 . S
C94 C95 1.375 . S
C94 C100 1.404 . S
C95 C94 1.375 . S
C95 C96 1.369 . S
C95 H108 0.950 . S
C96 C95 1.369 . S
C96 C97 1.392 . S
C96 H109 0.951 . S
C97 C96 1.392 . S
C97 C99 1.384 . S
H98 C100 0.949 . S
C99 C97 1.384 . S
C99 C100 1.385 . S
C99 H101 0.950 . S
C100 C94 1.404 . S
C100 H98 0.949 . S
C100 C99 1.385 . S
H101 C99 0.950 . S
H102 C86 0.951 1_556 S
H103 C88 0.933 1_556 S
H104 C90 0.951 . S
H105 C91 0.950 . S
H106 C92 0.950 . S
H107 C93 0.950 . S
H108 C95 0.950 . S
H109 C96 0.951 . S
C110 C111 1.386 . S
C110 C112 1.383 . S
C110 H126 0.951 . S
C111 C110 1.386 . S
C111 C115 1.383 1_556 S
C112 C110 1.383 . S
C112 C113 1.402 . S
C112 H127 0.951 . S
C113 C112 1.402 . S
C113 C114 1.375 1_556 S
C113 C116 1.481 . S
C114 C113 1.375 1_554 S
C114 C115 1.367 . S
C114 H128 0.951 . S
C115 C111 1.383 1_554 S
C115 C114 1.367 . S
C115 H129 0.950 . S
C116 C113 1.481 . S
C116 C117 1.297 . S
C116 H130 0.950 1_556 S
C117 C116 1.297 . S
C117 C118 1.479 . S
C117 H131 0.950 . S
C118 C117 1.479 . S
C118 C119 1.375 . S
C118 C124 1.404 . S
C119 C118 1.375 . S
C119 C120 1.369 . S
C119 H132 0.950 . S
C120 C119 1.369 . S
C120 C121 1.392 . S
C120 H133 0.951 . S
C121 C120 1.392 . S
C121 C123 1.384 . S
H122 C124 0.949 1_554 S
C123 C121 1.384 . S
C123 C124 1.385 . S
C123 H125 0.955 . S
C124 C118 1.404 . S
C124 H122 0.949 1_556 S
C124 C123 1.385 . S
H125 C123 0.955 . S
H126 C110 0.951 . S
H127 C112 0.951 . S
H128 C114 0.951 . S
H129 C115 0.950 . S
H130 C116 0.950 1_554 S
H131 C117 0.950 . S
H132 C119 0.950 . S
H133 C120 0.951 . S
C134 C135 1.386 1_556 S
C134 C136 1.383 1_556 S
C134 H150 0.951 . S
C135 C134 1.386 1_554 S
C135 C139 1.383 . S
C136 C134 1.383 1_554 S
C136 C137 1.402 . S
C136 H151 0.951 1_554 S
C137 C136 1.402 . S
C137 C138 1.375 . S
C137 C140 1.481 . S
C138 C137 1.375 . S
C138 C139 1.367 . S
C138 H152 0.951 . S
C139 C135 1.383 . S
C139 C138 1.367 . S
C139 H153 0.950 . S
C140 C137 1.481 . S
C140 C141 1.297 . S
C140 H154 0.950 . S
C141 C140 1.297 . S
C141 C142 1.479 . S
C141 H155 0.950 . S
C142 C141 1.479 . S
C142 C143 1.375 . S
C142 C148 1.404 . S
C143 C142 1.375 . S
C143 C144 1.369 . S
C143 H156 0.950 1_554 S
C144 C143 1.369 . S
C144 C145 1.392 . S
C144 H157 0.951 . S
C145 C144 1.392 . S
C145 C147 1.384 . S
H146 C148 0.949 . S
C147 C145 1.384 . S
C147 C148 1.385 . S
C147 H149 0.950 . S
C148 C142 1.404 . S
C148 H146 0.949 . S
C148 C147 1.385 . S
H149 C147 0.950 . S
H150 C134 0.951 . S
H151 C136 0.951 1_556 S
H152 C138 0.951 . S
H153 C139 0.950 . S
H154 C140 0.950 . S
H155 C141 0.950 . S
H156 C143 0.950 1_556 S
H157 C144 0.951 . S
C158 C159 1.386 . S
C158 C160 1.383 . S
C158 H174 0.951 . S
C159 C158 1.386 . S
C159 C163 1.383 . S
C160 C158 1.383 . S
C160 C161 1.402 . S
C160 H175 0.951 . S
C161 C160 1.402 . S
C161 C162 1.375 . S
C161 C164 1.481 . S
C162 C161 1.375 . S
C162 C163 1.367 . S
C162 H176 0.951 . S
C163 C159 1.383 . S
C163 C162 1.367 . S
C163 H177 0.950 1_556 S
C164 C161 1.481 . S
C164 C165 1.297 . S
C164 H178 0.950 . S
C165 C164 1.297 . S
C165 C166 1.479 . S
C165 H179 0.950 . S
C166 C165 1.479 . S
C166 C167 1.375 . S
C166 C172 1.404 . S
C167 C166 1.375 . S
C167 C168 1.369 . S
C167 H180 0.950 . S
C168 C167 1.369 . S
C168 C169 1.392 . S
C168 H181 0.951 . S
C169 C168 1.392 . S
C169 C171 1.384 . S
H170 C172 0.949 . S
C171 C169 1.384 . S
C171 C172 1.385 . S
C171 H173 0.950 . S
C172 C166 1.404 . S
C172 H170 0.949 . S
C172 C171 1.385 . S
H173 C171 0.950 . S
H174 C158 0.951 . S
H175 C160 0.951 . S
H176 C162 0.951 . S
H177 C163 0.950 1_554 S
H178 C164 0.950 . S
H179 C165 0.950 . S
H180 C167 0.950 . S
H181 C168 0.951 . S
C182 C183 1.386 . S
C182 C184 1.383 . S
C182 H198 0.951 . S
C183 C182 1.386 . S
C183 C187 1.383 . S
C184 C182 1.383 . S
C184 C185 1.402 . S
C184 H199 0.951 . S
C185 C184 1.402 . S
C185 C186 1.375 . S
C185 C188 1.481 . S
C186 C185 1.375 . S
C186 C187 1.367 . S
C186 H200 0.951 . S
C187 C183 1.383 . S
C187 C186 1.367 . S
C187 H201 0.950 . S
C188 C185 1.481 . S
C188 C189 1.297 . S
C188 H202 0.950 . S
C189 C188 1.297 . S
C189 C190 1.479 . S
C189 H203 0.950 . S
C190 C189 1.479 . S
C190 C191 1.375 . S
C190 C196 1.404 . S
C191 C190 1.375 . S
C191 C192 1.369 . S
C191 H204 0.950 . S
C192 C191 1.369 . S
C192 C193 1.392 . S
C192 H205 0.951 . S
C193 C192 1.392 . S
C193 C195 1.384 . S
H194 C196 0.949 . S
C195 C193 1.384 . S
C195 C196 1.385 . S
C195 H197 0.950 . S
C196 C190 1.404 . S
C196 H194 0.949 . S
C196 C195 1.385 . S
H197 C195 0.950 . S
H198 C182 0.951 . S
H199 C184 0.951 . S
H200 C186 0.951 . S
H201 C187 0.950 . S
H202 C188 0.950 . S
H203 C189 0.950 . S
H204 C191 0.950 . S
H205 C192 0.951 . S
C206 C207 1.386 . S
C206 C208 1.383 . S
C206 H222 0.951 . S
C207 C206 1.386 . S
C207 C211 1.383 . S
C208 C206 1.383 . S
C208 C209 1.402 . S
C208 H223 0.951 . S
C209 C208 1.402 . S
C209 C210 1.375 . S
C209 C212 1.481 . S
C210 C209 1.375 . S
C210 C211 1.367 . S
C210 H224 0.951 . S
C211 C207 1.383 . S
C211 C210 1.367 . S
C211 H225 0.950 . S
C212 C209 1.481 . S
C212 C213 1.297 . S
C212 H226 0.950 . S
C213 C212 1.297 . S
C213 C214 1.479 . S
C213 H227 0.950 . S
C214 C213 1.479 . S
C214 C215 1.375 . S
C214 C220 1.404 . S
C215 C214 1.375 . S
C215 C216 1.369 . S
C215 H228 0.950 . S
C216 C215 1.369 . S
C216 C217 1.392 . S
C216 H229 0.951 1_655 S
C217 C216 1.392 . S
C217 C219 1.384 . S
H218 C220 0.949 . S
C219 C217 1.384 . S
C219 C220 1.385 . S
C219 H221 0.950 . S
C220 C214 1.404 . S
C220 H218 0.949 . S
C220 C219 1.385 . S
H221 C219 0.950 . S
H222 C206 0.951 . S
H223 C208 0.951 . S
H224 C210 0.951 . S
H225 C211 0.950 . S
H226 C212 0.950 . S
H227 C213 0.950 . S
H228 C215 0.950 . S
H229 C216 0.951 1_455 S
C230 C231 1.386 . S
C230 C232 1.383 . S
C230 H246 0.951 . S
C231 C230 1.386 . S
C231 C235 1.383 . S
C232 C230 1.383 . S
C232 C233 1.402 . S
C232 H247 0.951 . S
C233 C232 1.402 . S
C233 C234 1.375 . S
C233 C236 1.481 . S
C234 C233 1.375 . S
C234 C235 1.367 . S
C234 H248 0.951 . S
C235 C231 1.383 . S
C235 C234 1.367 . S
C235 H249 0.950 . S
C236 C233 1.481 . S
C236 C237 1.297 . S
C236 H250 0.950 . S
C237 C236 1.297 . S
C237 C238 1.479 . S
C237 H251 0.950 . S
C238 C237 1.479 . S
C238 C239 1.375 . S
C238 C244 1.404 . S
C239 C238 1.375 . S
C239 C240 1.369 . S
C239 H252 0.950 . S
C240 C239 1.369 . S
C240 C241 1.392 . S
C240 H253 0.951 . S
C241 C240 1.392 . S
C241 C243 1.384 . S
H242 C244 0.949 . S
C243 C241 1.384 . S
C243 C244 1.385 . S
C243 H245 0.950 . S
C244 C238 1.404 . S
C244 H242 0.949 . S
C244 C243 1.385 . S
H245 C243 0.950 . S
H246 C230 0.951 . S
H247 C232 0.951 . S
H248 C234 0.951 . S
H249 C235 0.950 . S
H250 C236 0.950 . S
H251 C237 0.950 . S
H252 C239 0.950 . S
H253 C240 0.951 . S
C254 C255 1.386 . S
C254 C256 1.383 . S
C254 H270 0.951 . S
C255 C254 1.386 . S
C255 C259 1.383 . S
C256 C254 1.383 . S
C256 C257 1.402 . S
C256 H271 0.951 . S
C257 C256 1.402 . S
C257 C258 1.375 . S
C257 C260 1.481 . S
C258 C257 1.375 . S
C258 C259 1.367 . S
C258 H272 0.951 . S
C259 C255 1.383 . S
C259 C258 1.367 . S
C259 H273 0.950 . S
C260 C257 1.481 . S
C260 C261 1.297 . S
C260 H274 0.950 . S
C261 C260 1.297 . S
C261 C262 1.479 . S
C261 H275 0.950 . S
C262 C261 1.479 . S
C262 C263 1.375 . S
C262 C268 1.404 . S
C263 C262 1.375 . S
C263 C264 1.369 . S
C263 H276 0.950 . S
C264 C263 1.369 . S
C264 C265 1.392 . S
C264 H277 0.951 . S
C265 C264 1.392 . S
C265 C267 1.384 . S
H266 C268 0.949 . S
C267 C265 1.384 . S
C267 C268 1.385 . S
C267 H269 0.950 . S
C268 C262 1.404 . S
C268 H266 0.949 . S
C268 C267 1.385 . S
H269 C267 0.950 . S
H270 C254 0.951 . S
H271 C256 0.951 . S
H272 C258 0.951 . S
H273 C259 0.950 . S
H274 C260 0.950 . S
H275 C261 0.950 . S
H276 C263 0.950 . S
H277 C264 0.951 . S
C278 C279 1.386 . S
C278 C280 1.383 . S
C278 H294 0.951 1_455 S
C279 C278 1.386 . S
C279 C283 1.383 . S
C280 C278 1.383 . S
C280 C281 1.402 . S
C280 H295 0.951 . S
C281 C280 1.402 . S
C281 C282 1.375 . S
C281 C284 1.481 . S
C282 C281 1.375 . S
C282 C283 1.367 . S
C282 H296 0.951 . S
C283 C279 1.383 . S
C283 C282 1.367 . S
C283 H297 0.950 . S
C284 C281 1.481 . S
C284 C285 1.297 . S
C284 H298 0.950 . S
C285 C284 1.297 . S
C285 C286 1.479 . S
C285 H299 0.950 . S
C286 C285 1.479 . S
C286 C287 1.375 1_565 S
C286 C292 1.404 . S
C287 C286 1.375 1_545 S
C287 C288 1.369 . S
C287 H300 0.950 1_455 S
C288 C287 1.369 . S
C288 C289 1.392 . S
C288 H301 0.951 . S
C289 C288 1.392 . S
C289 C291 1.384 . S
H290 C292 0.949 . S
C291 C289 1.384 . S
C291 C292 1.385 1_545 S
C291 H293 0.950 . S
C292 C286 1.404 . S
C292 H290 0.949 . S
C292 C291 1.385 1_565 S
H293 C291 0.950 . S
H294 C278 0.951 1_655 S
H295 C280 0.951 . S
H296 C282 0.951 . S
H297 C283 0.950 . S
H298 C284 0.950 . S
H299 C285 0.950 . S
H300 C287 0.950 1_655 S
H301 C288 0.951 . S
C302 C303 1.386 1_545 S
C302 C304 1.383 . S
C302 H318 0.951 . S
C303 C302 1.386 1_565 S
C303 C307 1.383 1_455 S
C304 C302 1.383 . S
C304 C305 1.402 1_545 S
C304 H319 0.951 . S
C305 C304 1.402 1_565 S
C305 C306 1.375 1_455 S
C305 C308 1.481 . S
C306 C305 1.375 1_655 S
C306 C307 1.367 . S
C306 H320 0.951 . S
C307 C303 1.383 1_655 S
C307 C306 1.367 . S
C307 H321 0.950 . S
C308 C305 1.481 . S
C308 C309 1.297 1_565 S
C308 H322 0.950 1_455 S
C309 C308 1.297 1_545 S
C309 C310 1.479 . S
C309 H323 0.950 . S
C310 C309 1.479 . S
C310 C311 1.375 . S
C310 C316 1.404 1_445 S
C311 C310 1.375 . S
C311 C312 1.369 . S
C311 H324 0.950 . S
C312 C311 1.369 . S
C312 C313 1.392 . S
C312 H325 0.951 . S
C313 C312 1.392 . S
C313 C315 1.384 1_445 S
H314 C316 0.949 . S
C315 C313 1.384 1_665 S
C315 C316 1.385 . S
C315 H317 0.950 . S
C316 C310 1.404 1_665 S
C316 H314 0.949 . S
C316 C315 1.385 . S
H317 C315 0.950 . S
H318 C302 0.951 . S
H319 C304 0.951 . S
H320 C306 0.951 . S
H321 C307 0.950 . S
H322 C308 0.950 1_655 S
H323 C309 0.950 . S
H324 C311 0.950 . S
H325 C312 0.951 . S
C326 C327 1.386 . S
C326 C328 1.383 . S
C326 H342 0.951 . S
C327 C326 1.386 . S
C327 C331 1.383 . S
C328 C326 1.383 . S
C328 C329 1.402 . S
C328 H343 0.951 . S
C329 C328 1.402 . S
C329 C330 1.375 . S
C329 C332 1.481 . S
C330 C329 1.375 . S
C330 C331 1.367 . S
C330 H344 0.951 . S
C331 C327 1.383 . S
C331 C330 1.367 . S
C331 H345 0.950 . S
C332 C329 1.481 . S
C332 C333 1.297 . S
C332 H346 0.950 . S
C333 C332 1.297 . S
C333 C334 1.479 . S
C333 H347 0.950 . S
C334 C333 1.479 . S
C334 C335 1.375 . S
C334 C340 1.404 . S
C335 C334 1.375 . S
C335 C336 1.369 . S
C335 H348 0.950 . S
C336 C335 1.369 . S
C336 C337 1.392 . S
C336 H349 0.951 . S
C337 C336 1.392 . S
C337 C339 1.384 . S
H338 C340 0.949 . S
C339 C337 1.384 . S
C339 C340 1.385 . S
C339 H341 0.950 . S
C340 C334 1.404 . S
C340 H338 0.949 . S
C340 C339 1.385 . S
H341 C339 0.950 . S
H342 C326 0.951 . S
H343 C328 0.951 . S
H344 C330 0.951 . S
H345 C331 0.950 . S
H346 C332 0.950 . S
H347 C333 0.950 . S
H348 C335 0.950 . S
H349 C336 0.951 . S
C350 C351 1.386 . S
C350 C352 1.383 . S
C350 H366 0.951 . S
C351 C350 1.386 . S
C351 C355 1.383 . S
C352 C350 1.383 . S
C352 C353 1.402 . S
C352 H367 0.951 . S
C353 C352 1.402 . S
C353 C354 1.375 . S
C353 C356 1.481 . S
C354 C353 1.375 . S
C354 C355 1.367 . S
C354 H368 0.951 . S
C355 C351 1.383 . S
C355 C354 1.367 . S
C355 H369 0.950 . S
C356 C353 1.481 . S
C356 C357 1.297 . S
C356 H370 0.950 . S
C357 C356 1.297 . S
C357 C358 1.479 . S
C357 H371 0.950 . S
C358 C357 1.479 . S
C358 C359 1.375 . S
C358 C364 1.404 . S
C359 C358 1.375 . S
C359 C360 1.369 . S
C359 H372 0.950 . S
C360 C359 1.369 . S
C360 C361 1.392 . S
C360 H373 0.951 . S
C361 C360 1.392 . S
C361 C363 1.384 . S
H362 C364 0.949 . S
C363 C361 1.384 . S
C363 C364 1.385 . S
C363 H365 0.950 . S
C364 C358 1.404 . S
C364 H362 0.949 . S
C364 C363 1.385 . S
H365 C363 0.950 . S
H366 C350 0.951 . S
H367 C352 0.951 . S
H368 C354 0.951 . S
H369 C355 0.950 . S
H370 C356 0.950 . S
H371 C357 0.950 . S
H372 C359 0.950 . S
H373 C360 0.951 . S
C97 C79 1.309 . S
C87 C3 1.207 . S
C111 C4 1.405 1_556 S
C121 C74 1.502 . S
C135 C19 1.502 . S
C145 C85 1.549 . S
C159 C7 1.143 . S
C169 C68 1.266 . S
C183 C37 1.207 . S
C193 C57 1.290 . S
C207 C28 1.452 . S
C217 C52 1.550 1_655 S
C241 C63 1.534 . S
C231 C41 1.429 . S
C265 C46 1.289 . S
C255 C25 1.193 . S
C279 C20 1.329 . S
C289 C47 1.439 . S
C303 C16 1.412 . S
C313 C58 1.500 1_455 S
C337 C69 1.444 . S
C327 C40 1.347 . S
C351 C24 1.406 . S
C361 C80 1.535 . S
