# Generated by pormake.
# Topology anh, (6,3)-cn, num edge types: 1
# Building blocks:
#     Node 0, Type 0, BuildingBlock: CUWYAW_clean_sbu_0, # of connection points: 6
#     Node 1, Type 0, BuildingBlock: CUWYAW_clean_sbu_0, # of connection points: 6
#     Node 2, Type 0, BuildingBlock: CUWYAW_clean_sbu_0, # of connection points: 6
#     Node 3, Type 1, BuildingBlock: CUQRIR_clean_linker_1, # of connection points: 3
#     Node 4, Type 1, BuildingBlock: CUQRIR_clean_linker_1, # of connection points: 3
#     Node 5, Type 1, BuildingBlock: CUQRIR_clean_linker_1, # of connection points: 3
#     Node 6, Type 1, BuildingBlock: CUQRIR_clean_linker_1, # of connection points: 3
#     Node 7, Type 1, BuildingBlock: CUQRIR_clean_linker_1, # of connection points: 3
#     Node 8, Type 1, BuildingBlock: CUQRIR_clean_linker_1, # of connection points: 3
#     Edge 9, Type (0, 1), BuildingBlock: TEMPAE_clean_linker_10, # of connection points: 2
#     Edge 10, Type (0, 1), BuildingBlock: TEMPAE_clean_linker_10, # of connection points: 2
#     Edge 11, Type (0, 1), BuildingBlock: TEMPAE_clean_linker_10, # of connection points: 2
#     Edge 12, Type (0, 1), BuildingBlock: TEMPAE_clean_linker_10, # of connection points: 2
#     Edge 13, Type (0, 1), BuildingBlock: TEMPAE_clean_linker_10, # of connection points: 2
#     Edge 14, Type (0, 1), BuildingBlock: TEMPAE_clean_linker_10, # of connection points: 2
#     Edge 15, Type (0, 1), BuildingBlock: TEMPAE_clean_linker_10, # of connection points: 2
#     Edge 16, Type (0, 1), BuildingBlock: TEMPAE_clean_linker_10, # of connection points: 2
#     Edge 17, Type (0, 1), BuildingBlock: TEMPAE_clean_linker_10, # of connection points: 2
#     Edge 18, Type (0, 1), BuildingBlock: TEMPAE_clean_linker_10, # of connection points: 2
#     Edge 19, Type (0, 1), BuildingBlock: TEMPAE_clean_linker_10, # of connection points: 2
#     Edge 20, Type (0, 1), BuildingBlock: TEMPAE_clean_linker_10, # of connection points: 2
#     Edge 21, Type (0, 1), BuildingBlock: TEMPAE_clean_linker_10, # of connection points: 2
#     Edge 22, Type (0, 1), BuildingBlock: TEMPAE_clean_linker_10, # of connection points: 2
#     Edge 23, Type (0, 1), BuildingBlock: TEMPAE_clean_linker_10, # of connection points: 2
#     Edge 24, Type (0, 1), BuildingBlock: TEMPAE_clean_linker_10, # of connection points: 2
#     Edge 25, Type (0, 1), BuildingBlock: TEMPAE_clean_linker_10, # of connection points: 2
#     Edge 26, Type (0, 1), BuildingBlock: TEMPAE_clean_linker_10, # of connection points: 2
# Relax obj value: 0.297
# Max RMSD: 0.202
# Mean RMSD: 0.154
data_MOF--net-anh--node1-CUWYAW_clean_sbu_0--node2-CUQRIR_clean_linker_1--edge1-TEMPAE_clean_linker_10
_symmetry_space_group_name_H-M    P1
_symmetry_Int_Tables_number       1
_symmetry_cell_setting            triclinic
loop_
_symmetry_equiv_pos_as_xyz
'x, y, z'
_cell_length_a     27.732082
_cell_length_b     27.788874
_cell_length_c     47.800472
_cell_angle_alpha  85.107706
_cell_angle_beta   91.260021
_cell_angle_gamma 120.09048
loop_
_atom_site_label
_atom_site_type_symbol
_atom_site_fract_x
_atom_site_fract_y
_atom_site_fract_z
_atom_type_partial_charge
C0 C 1.13052 0.46089 0.12509 0.0
Eu1 Eu 0.19359 0.561 0.14036 0.0
C2 C 1.06926 0.42816 0.12482 0.0
C3 C 1.03871 0.45391 0.11516 0.0
C4 C 0.98352 0.43167 0.12411 0.0
C5 C 0.95784 0.38298 0.1426 0.0
C6 C 0.98592 0.35297 0.14858 0.0
C7 C 1.04147 0.37572 0.13998 0.0
C8 C 0.21739 0.59155 0.19363 0.0
C9 C 1.11632 0.62146 0.13489 0.0
C10 C 0.29602 0.78724 0.15653 0.0
Eu11 Eu 0.2488 0.68494 0.14326 0.0
C12 C 0.33395 0.83147 0.17385 0.0
C13 C 0.35209 0.88667 0.16362 0.0
C14 C 0.3769 0.92941 0.18145 0.0
C15 C 0.38423 0.91769 0.20993 0.0
C16 C 0.36872 0.86254 0.2198 0.0
C17 C 0.34372 0.81964 0.20184 0.0
C18 C 0.22481 0.65041 0.09087 0.0
C19 C 0.32719 0.62712 0.14086 0.0
O20 O 1.1545 0.50514 0.10718 0.0
O21 O 1.15134 0.47086 0.15017 0.0
O22 O 0.21921 0.54994 0.18432 0.0
O23 O 0.19947 0.61356 0.17491 0.0
O24 O 1.11852 0.57483 0.13581 0.0
O25 O 0.16135 0.66984 0.13816 0.0
O26 O 0.25141 0.74585 0.16923 0.0
O27 O 0.31598 0.77236 0.13648 0.0
O28 O 0.21968 0.69105 0.09884 0.0
O29 O 0.24421 0.63247 0.11032 0.0
O30 O 0.32349 0.67028 0.14837 0.0
O31 O 0.28247 0.58099 0.13391 0.0
H32 H 1.0587 0.4939 0.10287 0.0
H33 H 0.96317 0.45565 0.11865 0.0
H34 H 0.9665 0.31409 0.16183 0.0
H35 H 1.06404 0.35477 0.14731 0.0
H36 H 0.34407 0.89637 0.14218 0.0
H37 H 0.38767 0.97121 0.17322 0.0
H38 H 0.37466 0.85237 0.24151 0.0
H39 H 0.32987 0.77711 0.2101 0.0
C40 C 0.75085 0.26811 0.46039 0.0
Eu41 Eu 0.79514 0.20816 0.47813 0.0
C42 C 0.69495 0.26115 0.46081 0.0
C43 C 0.68923 0.30842 0.45724 0.0
C44 C 0.63727 0.30356 0.46114 0.0
C45 C 0.58988 0.25112 0.46856 0.0
C46 C 0.59536 0.20327 0.47037 0.0
C47 C 0.64762 0.20829 0.46663 0.0
C48 C 0.79865 0.17356 0.53271 0.0
C49 C 0.93331 0.27938 0.47292 0.0
C50 C 0.89377 1.07965 0.50758 0.0
Eu51 Eu 0.86033 0.14737 0.48708 0.0
C52 C 0.86121 1.02198 0.52024 0.0
C53 C 0.88132 0.98474 0.51957 0.0
C54 C 0.84689 0.92819 0.52859 0.0
C55 C 0.792 0.90865 0.53795 0.0
C56 C 0.77275 0.94629 0.53948 0.0
C57 C 0.80715 1.00249 0.53085 0.0
C58 C 0.84763 0.17589 0.43317 0.0
C59 C 0.72173 1.07526 0.48038 0.0
O60 O 0.77425 0.27224 0.48483 0.0
O61 O 0.75782 0.23571 0.44471 0.0
O62 O 0.75663 0.17577 0.5216 0.0
O63 O 0.8391 0.19416 0.51513 0.0
O64 O 0.88515 0.27644 0.46647 0.0
O65 O 0.93488 0.23535 0.48487 0.0
O66 O 0.89341 0.11768 0.52183 0.0
O67 O 0.886 1.08653 0.48078 0.0
O68 O 0.8942 0.1796 0.44171 0.0
O69 O 0.81242 0.15663 0.45291 0.0
O70 O 0.76766 1.07554 0.48954 0.0
O71 O 0.72291 0.12248 0.47225 0.0
H72 H 0.72543 0.34946 0.4527 0.0
H73 H 0.6352 0.34156 0.4601 0.0
H74 H 0.55975 0.16228 0.47577 0.0
H75 H 0.65142 0.17123 0.4693 0.0
H76 H 0.92282 0.99901 0.5113 0.0
H77 H 0.86219 0.89943 0.5272 0.0
H78 H 0.73054 0.93187 0.54673 0.0
H79 H 0.79072 1.03032 0.53168 0.0
C80 C 0.90856 0.72131 0.7595 0.0
Eu81 Eu 0.83177 0.69027 0.79843 0.0
C82 C 0.9361 0.69265 0.74872 0.0
C83 C 0.99147 0.70993 0.75591 0.0
C84 C 1.01194 0.67332 0.75497 0.0
C85 C 0.97741 0.61945 0.74659 0.0
C86 C 0.92574 0.6059 0.73497 0.0
C87 C 0.90492 0.64216 0.73617 0.0
C88 C 0.85566 0.70282 0.85424 0.0
C89 C 0.7842 0.55851 0.81741 0.0
C90 C 0.67152 0.60311 0.88303 0.0
Eu91 Eu 0.73632 0.63282 0.83857 0.0
C92 C 0.61457 0.58972 0.89045 0.0
C93 C 0.56839 0.54764 0.8776 0.0
C94 C 0.51449 0.53175 0.88625 0.0
C95 C 0.5052 0.55813 0.90764 0.0
C96 C 0.55146 0.60082 0.92028 0.0
C97 C 0.60573 0.61632 0.91181 0.0
C98 C 0.70384 0.61113 0.78551 0.0
C99 C 0.77528 0.76151 0.80973 0.0
O100 O 0.85564 0.70069 0.75419 0.0
O101 O 0.91945 0.73393 0.7855 0.0
O102 O 0.87438 0.74445 0.8351 0.0
O103 O 0.82411 0.65861 0.84329 0.0
O104 O 0.80974 0.59947 0.79741 0.0
O105 O 0.76062 0.56576 0.83917 0.0
O106 O 0.7082 0.65517 0.87541 0.0
O107 O 0.67537 0.56828 0.86786 0.0
O108 O 0.67823 0.5771 0.80732 0.0
O109 O 0.74096 0.65812 0.79272 0.0
O110 O 0.74737 0.72211 0.83055 0.0
O111 O 0.80723 0.7554 0.79214 0.0
H112 H 1.01668 0.74906 0.76519 0.0
H113 H 1.05188 0.68441 0.76418 0.0
H114 H 0.89878 0.56482 0.72804 0.0
H115 H 0.86246 0.62804 0.72985 0.0
H116 H 0.57367 0.52603 0.86116 0.0
H117 H 0.48003 0.49787 0.87644 0.0
H118 H 0.54578 0.62237 0.93662 0.0
H119 H 0.64076 0.64873 0.9221 0.0
C120 C 0.60084 0.29023 0.27482 0.0
N121 N 0.65697 0.31839 0.2767 0.0
N122 N 0.5757 0.26252 0.29974 0.0
C123 C 0.57055 0.28337 0.24756 0.0
C124 C 0.61904 0.28123 0.31754 0.0
N125 N 0.66862 0.31293 0.30352 0.0
C126 C 0.61302 0.25972 0.34803 0.0
H127 H 0.53261 0.28626 0.25067 0.0
H128 H 0.55744 0.24166 0.24049 0.0
H129 H 0.59733 0.31594 0.23094 0.0
H130 H 0.63266 0.23351 0.35138 0.0
H131 H 0.5685 0.23481 0.35484 0.0
H132 H 0.63471 0.29527 0.36123 0.0
C133 C 0.4707 0.47194 0.56686 0.0
N134 N 0.49731 0.51145 0.58504 0.0
N135 N 0.4514 0.42006 0.57979 0.0
C136 C 0.47169 0.48398 0.53551 0.0
C137 C 0.46587 0.42984 0.60688 0.0
N138 N 0.49343 0.48513 0.61007 0.0
C139 C 0.46297 0.38635 0.62883 0.0
H140 H 0.47723 0.52609 0.52998 0.0
H141 H 0.43241 0.45196 0.52661 0.0
H142 H 0.50669 0.48191 0.526 0.0
H143 H 0.50357 0.38752 0.62915 0.0
H144 H 0.42973 0.34406 0.6241 0.0
H145 H 0.4551 0.39534 0.64991 0.0
C146 C 1.09414 0.3921 0.89677 0.0
N147 N 1.10461 0.40401 0.92388 0.0
N148 N 1.04919 0.39537 0.88775 0.0
C149 C 1.13495 0.39013 0.87727 0.0
C150 C 1.03155 0.40781 0.91086 0.0
N151 N 1.06542 0.41375 0.93269 0.0
C152 C 0.98689 0.42349 0.91043 0.0
H153 H 0.17116 0.43284 0.87292 0.0
H154 H 1.11536 0.37392 0.85711 0.0
H155 H 1.15054 0.36317 0.88722 0.0
H156 H 0.96964 0.41851 0.9319 0.0
H157 H 0.95297 0.3973 0.89641 0.0
H158 H 1.00488 0.4677 0.90196 0.0
C159 C 0.33027 0.67831 0.43936 0.0
N160 N 0.29286 0.64598 0.42035 0.0
N161 N 0.37322 0.72582 0.42645 0.0
C162 C 0.32771 0.66131 0.47025 0.0
C163 C 0.36031 0.7213 0.3989 0.0
N164 N 0.3125 0.67276 0.39502 0.0
C165 C 0.39162 0.76714 0.37596 0.0
H166 H 0.30488 0.67749 0.48143 0.0
H167 H 0.37025 0.67913 0.4788 0.0
H168 H 0.30559 0.61519 0.47433 0.0
H169 H 0.42463 0.76141 0.36682 0.0
H170 H 0.4117 0.80871 0.38439 0.0
H171 H 0.36331 0.76619 0.35897 0.0
C172 C 0.75811 0.15225 0.78408 0.0
N173 N 0.76343 0.12085 0.76522 0.0
N174 N 0.75965 0.19853 0.77097 0.0
C175 C 0.7476 0.13589 0.81507 0.0
C176 C 0.76654 0.19427 0.74345 0.0
N177 N 0.76842 0.1473 0.73989 0.0
C178 C 0.77321 0.23714 0.71995 0.0
H179 H 0.72448 1.0898 0.81938 0.0
H180 H 0.72363 0.15337 0.82399 0.0
H181 H 0.78819 0.15273 0.82569 0.0
H182 H 0.79311 0.2795 0.72745 0.0
H183 H 0.73142 0.22646 0.712 0.0
H184 H 0.79854 0.2379 0.70213 0.0
C185 C 0.7243 0.62943 0.1006 0.0
N186 N 0.76559 0.63728 0.08242 0.0
N187 N 0.68784 0.64297 0.08763 0.0
C188 C 0.7161 0.60296 0.13018 0.0
C189 C 0.70879 0.65962 0.06095 0.0
N190 N 0.75478 0.65504 0.05752 0.0
C191 C 0.68751 0.68565 0.03866 0.0
H192 H 0.73513 0.57604 0.13275 0.0
H193 H 0.67107 0.57752 0.13592 0.0
H194 H 0.7361 0.63623 0.14482 0.0
H195 H 0.72194 0.71649 0.0242 0.0
H196 H 0.66792 0.70688 0.04825 0.0
H197 H 0.65592 0.65272 0.02613 0.0
C198 C 0.42876 0.68067 0.12563 0.0
C199 C 0.38298 0.63156 0.13779 0.0
C200 C 0.4794 0.68282 0.11913 0.0
C201 C 0.48554 0.63538 0.12584 0.0
C202 C 0.44023 0.58665 0.13946 0.0
C203 C 0.38939 0.58495 0.14467 0.0
C204 C 0.52539 0.73508 0.10378 0.0
C205 C 0.445 0.53571 0.14808 0.0
C206 C 0.5879 0.61503 0.08254 0.0
C207 C 0.63647 0.63788 0.09847 0.0
C208 C 0.53931 0.61474 0.09097 0.0
C209 C 0.53754 0.63536 0.11685 0.0
C210 C 0.58554 0.656 0.13378 0.0
C211 C 0.63453 0.65789 0.12421 0.0
C212 C 0.49015 0.59334 0.07176 0.0
C213 C 0.5853 0.67646 0.16197 0.0
H214 H 0.42404 0.71665 0.11987 0.0
H215 H 0.35436 0.54684 0.15412 0.0
H216 H 0.56463 0.75067 0.11552 0.0
H217 H 0.53341 0.7254 0.08291 0.0
H218 H 0.51496 0.76887 0.10066 0.0
H219 H 0.40911 0.504 0.16156 0.0
H220 H 0.44694 0.51626 0.12914 0.0
H221 H 0.48404 0.54767 0.15964 0.0
H222 H 0.58817 0.59793 0.06306 0.0
H223 H 0.67166 0.67592 0.13666 0.0
H224 H 0.47831 0.62578 0.0669 0.0
H225 H 0.45362 0.55632 0.08233 0.0
H226 H 0.49908 0.58153 0.0517 0.0
H227 H 0.58157 0.71447 0.1591 0.0
H228 H 0.62379 0.68649 0.17372 0.0
H229 H 0.54868 0.64437 0.17487 0.0
C230 C 0.98698 0.372 0.44388 0.0
C231 C 0.9867 0.33273 0.46464 0.0
C232 C 1.03656 0.42206 0.43539 0.0
C233 C 1.08774 0.43444 0.4482 0.0
C234 C 1.08777 0.39489 0.46912 0.0
C235 C 1.03767 0.34457 0.47684 0.0
C236 C 1.03406 0.46186 0.41264 0.0
C237 C 1.1408 0.40611 0.48368 0.0
C238 C 0.22767 0.5458 0.41247 0.0
C239 C 0.24097 0.59323 0.42649 0.0
C240 C 0.17791 0.49435 0.41894 0.0
C241 C 1.14061 0.48938 0.44042 0.0
C242 C 1.15397 0.53731 0.45455 0.0
C243 C 0.20331 0.58836 0.44725 0.0
C244 C 0.16541 0.44514 0.40284 0.0
C245 C 1.11621 0.53463 0.47763 0.0
H246 H 0.94829 0.36331 0.43388 0.0
H247 H 1.03833 0.31482 0.49283 0.0
H248 H 1.04564 0.50198 0.42128 0.0
H249 H 1.06459 0.47113 0.39549 0.0
H250 H 0.99193 0.44493 0.4036 0.0
H251 H 1.13433 0.37133 0.49932 0.0
H252 H 0.17293 0.41278 0.468 0.0
H253 H 0.15751 0.44492 0.49455 0.0
H254 H 0.25659 0.54874 0.39664 0.0
H255 H 0.21266 0.62484 0.4579 0.0
H256 H 1.12363 0.42821 0.39347 0.0
H257 H 0.16448 0.41132 0.41735 0.0
H258 H 0.1968 0.45631 0.38581 0.0
H259 H 1.0744 0.52268 0.46926 0.0
H260 H 1.13286 0.57508 0.48701 0.0
H261 H 1.11061 0.50208 0.49447 0.0
C262 C 0.7358 0.82378 0.82087 0.0
C263 C 0.77078 0.81342 0.80465 0.0
C264 C 0.73228 0.87293 0.81519 0.0
C265 C 0.76447 0.913 0.79277 0.0
C266 C 0.7997 0.9026 0.77644 0.0
C267 C 0.80237 0.8535 0.78251 0.0
C268 C 0.69408 0.88205 0.83318 0.0
C269 C 0.835 0.94359 0.75241 0.0
C270 C 0.72634 1.02018 0.75929 0.0
C271 C 0.76435 1.06909 0.77146 0.0
C272 C 0.72503 0.96904 0.76642 0.0
C273 C 0.7625 0.96628 0.78639 0.0
C274 C 0.80083 1.01573 0.79879 0.0
C275 C 0.8013 1.06622 0.79118 0.0
C276 C 0.68356 0.91789 0.75248 0.0
C277 C 0.84191 1.01549 0.81995 0.0
H278 H 0.71108 0.79349 0.83796 0.0
H279 H 0.82975 0.84672 0.76964 0.0
H280 H 0.66316 0.88672 0.81986 0.0
H281 H 0.67142 0.8471 0.84961 0.0
H282 H 0.71851 0.92133 0.84354 0.0
H283 H 0.80806 0.95005 0.73685 0.0
H284 H 0.86388 0.98469 0.7603 0.0
H285 H 0.85998 0.92934 0.74151 0.0
H286 H 0.6968 1.02166 0.74458 0.0
H287 H 0.83085 1.10386 0.80061 0.0
H288 H 0.65709 0.88398 0.76864 0.0
H289 H 0.70592 0.90242 0.74035 0.0
H290 H 0.65621 0.92632 0.73803 0.0
H291 H 0.81957 0.98319 0.83751 0.0
H292 H 0.86719 1.05655 0.82868 0.0
H293 H 0.87052 1.00462 0.80993 0.0
C294 C 1.01068 0.57539 0.13589 0.0
C295 C 1.06313 0.62079 0.12738 0.0
C296 C 0.96081 0.57541 0.12871 0.0
C297 C 0.96297 0.62095 0.11158 0.0
C298 C 1.01595 0.66611 0.10233 0.0
C299 C 1.06501 0.66588 0.11068 0.0
C300 C 0.90589 0.5267 0.13966 0.0
C301 C 1.02091 0.71489 0.08347 0.0
C302 C 0.83211 0.60383 0.07309 0.0
C303 C 0.81459 0.63227 0.08942 0.0
C304 C 0.87995 0.59962 0.07997 0.0
C305 C 0.91054 0.62303 0.10425 0.0
C306 C 0.89224 0.65079 0.12104 0.0
C307 C 0.84547 0.65582 0.1132 0.0
C308 C 0.89803 0.57044 0.06111 0.0
C309 C 0.92219 0.67538 0.14741 0.0
H310 H 1.00865 0.54036 0.14878 0.0
H311 H 1.10517 0.70079 0.10353 0.0
H312 H 0.87907 0.54137 0.1482 0.0
H313 H 0.88347 0.50096 0.12219 0.0
H314 H 0.91161 0.49983 0.15639 0.0
H315 H 1.0647 0.74499 0.0766 0.0
H316 H 0.9954 0.69977 0.06457 0.0
H317 H 1.00454 0.7373 0.09465 0.0
H318 H 0.80827 0.58458 0.05498 0.0
H319 H 0.83304 0.67862 0.12574 0.0
H320 H 0.89583 0.53325 0.07294 0.0
H321 H 0.94206 0.59859 0.05405 0.0
H322 H 0.87173 0.55688 0.04231 0.0
H323 H 0.92523 0.64304 0.1614 0.0
H324 H 0.90082 0.69243 0.15919 0.0
H325 H 0.96533 0.70945 0.14201 0.0
C326 C 0.62942 1.02093 0.45712 0.0
C327 C 0.66913 1.02124 0.47607 0.0
C328 C 0.58105 0.97094 0.45115 0.0
C329 C 0.57055 0.91916 0.46488 0.0
C330 C 0.60958 0.91927 0.48473 0.0
C331 C 0.65864 0.96994 0.48973 0.0
C332 C 0.54179 0.97351 0.42947 0.0
C333 C 0.60004 0.8657 0.50041 0.0
C334 C 0.41939 0.798 0.46079 0.0
C335 C 0.42302 0.77033 0.43837 0.0
C336 C 0.46721 0.84476 0.4705 0.0
C337 C 0.52019 0.86526 0.45728 0.0
C338 C 0.52414 0.83618 0.43524 0.0
C339 C 0.47595 0.78909 0.42635 0.0
C340 C 0.46075 0.87321 0.49446 0.0
C341 C 0.57909 0.85605 0.42024 0.0
H342 H 0.63687 1.05993 0.44616 0.0
H343 H 0.68865 0.96936 0.50444 0.0
H344 H 0.53894 0.94862 0.4119 0.0
H345 H 0.49929 0.95495 0.43884 0.0
H346 H 0.5554 1.01692 0.42079 0.0
H347 H 0.62891 0.87339 0.51813 0.0
H348 H 0.55651 0.84057 0.50872 0.0
H349 H 0.60648 0.84048 0.48576 0.0
H350 H 0.37882 0.7841 0.47018 0.0
H351 H 0.47943 0.76737 0.40942 0.0
H352 H 0.46843 0.91528 0.48666 0.0
H353 H 0.49206 0.87898 0.51066 0.0
H354 H 0.41845 0.84918 0.50443 0.0
H355 H 0.59458 0.89874 0.40997 0.0
H356 H 0.57567 0.82825 0.40399 0.0
H357 H 0.61071 0.85839 0.43553 0.0
C358 C 0.74361 0.45521 0.83193 0.0
C359 C 0.78001 0.50305 0.81453 0.0
C360 C 0.73627 0.40206 0.8279 0.0
C361 C 0.76677 0.39628 0.80626 0.0
C362 C 0.80441 0.4446 0.78908 0.0
C363 C 0.81025 0.49695 0.79324 0.0
C364 C 0.69507 0.35195 0.84652 0.0
C365 C 0.83811 0.44064 0.76595 0.0
C366 C 0.79095 0.272 0.80448 0.0
C367 C 0.75586 0.24307 0.7829 0.0
C368 C 0.79243 0.31981 0.81361 0.0
C369 C 0.75865 0.33999 0.80061 0.0
C370 C 0.72076 0.30881 0.78 0.0
C371 C 0.71962 0.26081 0.77158 0.0
C372 C 0.83088 0.3493 0.83686 0.0
C373 C 0.68266 0.32726 0.76604 0.0
H374 H 0.71967 0.45896 0.84835 0.0
H375 H 0.8384 0.53319 0.77956 0.0
H376 H 0.66602 0.31808 0.83363 0.0
H377 H 0.71761 0.33553 0.85994 0.0
H378 H 0.67035 0.36216 0.86034 0.0
H379 H 0.86654 0.48172 0.75477 0.0
H380 H 0.86328 0.42245 0.77483 0.0
H381 H 0.80996 0.41259 0.75044 0.0
H382 H 0.81873 0.25838 0.81351 0.0
H383 H 0.69127 0.23779 0.75548 0.0
H384 H 0.80588 0.34267 0.85606 0.0
H385 H 0.85493 0.3948 0.83099 0.0
H386 H 0.86026 0.33383 0.84203 0.0
H387 H 0.66006 0.33555 0.7821 0.0
H388 H 0.6517 0.29564 0.75265 0.0
H389 H 0.70774 0.36682 0.75272 0.0
C390 C 0.7066 0.82215 0.52701 0.0
C391 C 0.75269 0.84868 0.5441 0.0
C392 C 0.66575 0.76634 0.53349 0.0
C393 C 0.6708 0.73692 0.55798 0.0
C394 C 0.71796 0.76334 0.57507 0.0
C395 C 0.75878 0.81914 0.56777 0.0
C396 C 0.6165 0.73964 0.51452 0.0
C397 C 0.72457 0.73304 0.60132 0.0
C398 C 0.53698 0.61198 0.58834 0.0
C399 C 0.53958 0.56823 0.57751 0.0
C400 C 0.57992 0.66736 0.58246 0.0
C401 C 0.62645 0.67856 0.56564 0.0
C402 C 0.62952 0.63409 0.55512 0.0
C403 C 0.58605 0.57934 0.56133 0.0
C404 C 0.57539 0.71382 0.59404 0.0
C405 C 0.67831 0.64442 0.53704 0.0
H406 H 0.70238 0.84543 0.50866 0.0
H407 H 0.79449 0.84022 0.58097 0.0
H408 H 0.60503 0.69608 0.51145 0.0
H409 H 0.57999 0.73848 0.52432 0.0
H410 H 0.62504 0.76328 0.49356 0.0
H411 H 0.76438 0.75904 0.61189 0.0
H412 H 0.68952 0.72072 0.61632 0.0
H413 H 0.72299 0.69411 0.59614 0.0
H414 H 0.50133 0.60258 0.60137 0.0
H415 H 0.58855 0.54484 0.55394 0.0
H416 H 0.57434 0.74209 0.57648 0.0
H417 H 0.61254 0.73909 0.60655 0.0
H418 H 0.53741 0.69787 0.60753 0.0
H419 H 0.68095 0.67042 0.51753 0.0
H420 H 0.67488 0.60501 0.53115 0.0
H421 H 0.71781 0.6679 0.54826 0.0
C422 C 0.96313 0.554 0.78731 0.0
C423 C 0.985 0.57428 0.76005 0.0
C424 C 0.97469 0.51677 0.80322 0.0
C425 C 1.00911 0.4991 0.79146 0.0
C426 C 1.02912 0.51731 0.76328 0.0
C427 C 1.01715 0.55542 0.74784 0.0
C428 C 0.95438 0.50146 0.83354 0.0
C429 C 1.06637 0.50006 0.75006 0.0
C430 C 1.08274 0.47421 0.85232 0.0
C431 C 1.04615 0.41763 0.86001 0.0
C432 C 1.07519 0.50031 0.82773 0.0
C433 C 1.02985 0.4688 0.81049 0.0
C434 C 0.99674 0.41018 0.81654 0.0
C435 C 1.00476 0.38517 0.8417 0.0
C436 C 1.11223 0.56265 0.82187 0.0
C437 C 0.95057 0.37496 0.7975 0.0
H438 H 0.93894 0.56959 0.79673 0.0
H439 H 1.03437 0.57181 0.72677 0.0
H440 H 0.94726 0.45978 0.84155 0.0
H441 H 0.98639 0.53258 0.84673 0.0
H442 H 0.91512 0.50227 0.83637 0.0
H443 H 1.06388 0.50273 0.72679 0.0
H444 H 1.1102 0.52862 0.75557 0.0
H445 H 1.05559 0.45698 0.7578 0.0
H446 H 1.11506 0.49865 0.86665 0.0
H447 H 0.97739 0.34113 0.84769 0.0
H448 H 1.08918 0.58379 0.82734 0.0
H449 H 1.12415 0.5738 0.79926 0.0
H450 H 1.15075 0.57902 0.83434 0.0
H451 H 0.91983 0.38931 0.79588 0.0
H452 H 0.92878 0.32996 0.80504 0.0
H453 H 0.96777 0.38007 0.77602 0.0
C454 C 0.381 0.95339 0.25601 0.0
C455 C 0.40553 0.96281 0.22922 0.0
C456 C 0.3988 0.99699 0.27362 0.0
C457 C 0.44172 1.05113 0.26404 0.0
C458 C 0.46661 1.06073 0.23705 0.0
C459 C 0.4485 1.01643 0.22012 0.0
C460 C 0.37192 0.9852 0.30239 0.0
C461 C 0.51247 0.11795 0.22592 0.0
C462 C 0.47977 0.18999 0.28987 0.0
C463 C 0.5322 0.20468 0.30075 0.0
C464 C 0.44581 0.13689 0.28027 0.0
C465 C 0.4644 1.09762 0.28255 0.0
C466 C 0.51308 0.1095 0.2975 0.0
C467 C 0.54684 0.16313 0.30595 0.0
C468 C 0.39383 0.12564 0.26466 0.0
C469 C 0.53403 1.06861 0.30099 0.0
H470 H 0.34718 0.91218 0.26302 0.0
H471 H 0.46813 1.02383 0.19963 0.0
H472 H 0.40382 0.99516 0.31874 0.0
H473 H 0.35372 1.01231 0.30454 0.0
H474 H 0.33858 0.94091 0.30655 0.0
H475 H 0.52764 0.11814 0.20457 0.0
H476 H 0.49687 0.1478 0.225 0.0
H477 H 0.54837 0.13335 0.24017 0.0
H478 H 0.46804 0.22174 0.28622 0.0
H479 H 0.58763 0.17401 0.31386 0.0
H480 H 0.36034 1.08154 0.26885 0.0
H481 H 0.40351 0.1335 0.24176 0.0
H482 H 0.37815 0.15335 0.27042 0.0
H483 H 0.5648 1.07897 0.318 0.0
H484 H 0.55476 1.06998 0.28109 0.0
H485 H 0.4992 1.02533 0.30574 0.0
C486 C 0.52315 0.28709 0.46701 0.0
C487 C 0.5383 0.24865 0.47871 0.0
C488 C 0.49011 0.30097 0.48242 0.0
C489 C 0.47077 0.27451 0.50974 0.0
C490 C 0.47673 0.22816 0.51909 0.0
C491 C 0.51125 0.21617 0.50363 0.0
C492 C 0.48381 0.34996 0.47128 0.0
C493 C 0.45378 0.19669 0.54735 0.0
C494 C 0.50319 0.37888 0.56278 0.0
C495 C 0.45222 0.37673 0.56591 0.0
C496 C 0.50892 0.34435 0.54527 0.0
C497 C 0.46193 0.30581 0.53079 0.0
C498 C 0.40935 0.30137 0.53502 0.0
C499 C 0.40523 0.33761 0.55245 0.0
C500 C 0.56616 0.35143 0.54122 0.0
C501 C 0.35795 0.25908 0.52099 0.0
H502 H 0.54186 0.31056 0.44712 0.0
H503 H 0.52153 0.18545 0.51272 0.0
H504 H 0.4419 0.34292 0.47654 0.0
H505 H 0.51506 0.38781 0.48116 0.0
H506 H 0.49067 0.35827 0.44814 0.0
H507 H 0.44836 0.15417 0.54822 0.0
H508 H 0.48327 0.21952 0.56387 0.0
H509 H 0.41315 0.19319 0.55223 0.0
H510 H 0.53936 0.41008 0.57302 0.0
H511 H 0.366 0.3366 0.555 0.0
H512 H 0.57949 0.36336 0.51877 0.0
H513 H 0.56509 0.3115 0.5473 0.0
H514 H 0.59816 0.3839 0.55388 0.0
H515 H 0.36624 0.26004 0.4983 0.0
H516 H 0.3222 0.26602 0.52341 0.0
H517 H 0.34587 0.21662 0.53054 0.0
C518 C 0.43228 0.5357 0.94489 0.0
C519 C 0.44717 0.54033 0.91647 0.0
C520 C 0.37654 0.51526 0.95322 0.0
C521 C 0.3349 0.49792 0.93269 0.0
C522 C 0.34991 0.50349 0.90398 0.0
C523 C 0.40581 0.52544 0.89624 0.0
C524 C 0.36217 0.51124 0.98393 0.0
C525 C 0.30681 0.48566 0.8813 0.0
C526 C 0.18214 0.39259 0.94189 0.0
C527 C 0.15961 0.42705 0.93513 0.0
C528 C 0.23994 0.41554 0.94437 0.0
C529 C 0.27526 0.47425 0.94044 0.0
C530 C 0.25175 0.50919 0.93713 0.0
C531 C 0.19426 0.48509 0.93375 0.0
C532 C 0.26337 0.37679 0.94769 0.0
C533 C 0.28775 0.57197 0.93371 0.0
H534 H 0.46388 0.54679 0.96071 0.0
H535 H 0.41708 0.53046 0.87418 0.0
H536 H 0.33391 0.52802 0.98675 0.0
H537 H 0.33986 0.46679 -0.00766 0.0
H538 H 0.39992 0.53416 -0.00345 0.0
H539 H 0.32532 0.49084 0.86011 0.0
H540 H 0.27443 0.44117 0.88585 0.0
H541 H 0.28567 0.51063 0.88082 0.0
H542 H 1.15504 0.34773 0.94264 0.0
H543 H 0.17721 0.51174 0.92747 0.0
H544 H 0.29865 0.39235 0.9623 0.0
H545 H 0.27949 0.37496 0.92699 0.0
H546 H 0.2312 0.33378 0.95554 0.0
H547 H 0.32197 0.58653 0.94897 0.0
H548 H 0.26316 0.59283 0.93665 0.0
H549 H 0.30696 0.58522 0.91229 0.0
C550 C 0.86594 0.37973 0.14763 0.0
C551 C 0.90724 0.36947 0.15923 0.0
C552 C 0.82262 0.37479 0.16453 0.0
C553 C 0.81995 0.35798 0.1935 0.0
C554 C 0.8603 0.34575 0.20513 0.0
C555 C 0.90369 0.35227 0.18797 0.0
C556 C 0.78056 0.38883 0.15158 0.0
C557 C 0.85802 0.32633 0.23585 0.0
C558 C 0.74283 0.38391 0.2494 0.0
C559 C 0.6949 0.33147 0.25348 0.0
C560 C 0.78249 0.39463 0.22841 0.0
C561 C 0.77421 0.3512 0.21186 0.0
C562 C 0.7249 0.29866 0.21546 0.0
C563 C 0.68579 0.28958 0.23615 0.0
C564 C 0.83423 0.45149 0.22472 0.0
C565 C 0.71515 0.25074 0.1989 0.0
H566 H 0.86807 0.39275 0.12546 0.0
H567 H 0.93597 0.34566 0.19745 0.0
H568 H 0.73773 0.35288 0.15535 0.0
H569 H 0.78264 0.42432 0.16166 0.0
H570 H 0.78783 0.40025 0.1286 0.0
H571 H 0.89133 0.31633 0.24135 0.0
H572 H 0.86221 0.35904 0.24911 0.0
H573 H 0.81704 0.28858 0.24122 0.0
H574 H 0.74957 0.4159 0.263 0.0
H575 H 0.64944 0.24844 0.24004 0.0
H576 H 0.84155 0.46724 0.20221 0.0
H577 H 0.87102 0.44842 0.23182 0.0
H578 H 0.83134 0.48231 0.23689 0.0
H579 H 0.72261 0.26421 0.17614 0.0
H580 H 0.67214 0.21463 0.20214 0.0
H581 H 0.74499 0.2366 0.20549 0.0
C582 C 1.1401 0.60234 0.06243 0.0
C583 C 0.19597 0.61833 0.06706 0.0
C584 C 1.11004 0.56572 0.04199 0.0
C585 C 1.13771 0.54754 0.02481 0.0
C586 C 0.1949 0.56548 0.02882 0.0
C587 C 0.22293 0.59946 0.05048 0.0
C588 C 1.0485 0.54519 0.03939 0.0
C589 C 0.22657 0.54892 0.01019 0.0
C590 C 1.07066 0.4199 0.98372 0.0
C591 C 1.07111 0.44385 0.95674 0.0
C592 C 1.08747 0.45239 0.00677 0.0
C593 C 1.10773 0.51053 0.00225 0.0
C594 C 1.10566 0.53422 0.97515 0.0
C595 C 1.08615 0.50019 0.95282 0.0
C596 C 1.08662 0.42518 0.03561 0.0
C597 C 1.12899 0.59628 0.96913 0.0
H598 H 1.11926 0.61653 0.07558 0.0
H599 H 0.26614 0.61182 0.05433 0.0
H600 H 1.03943 0.55634 0.01788 0.0
H601 H 1.02465 0.49897 0.04298 0.0
H602 H 1.03319 0.56277 0.05469 0.0
H603 H 0.27181 0.57017 0.01462 0.0
H604 H 0.20959 0.50318 0.01319 0.0
H605 H 0.22141 0.55928 0.9878 0.0
H606 H 1.0591 0.37628 0.9865 0.0
H607 H 1.08768 0.51868 0.93173 0.0
H608 H 1.07051 0.44065 0.05161 0.0
H609 H 1.12965 0.43601 0.04138 0.0
H610 H 1.06055 0.37898 0.03647 0.0
H611 H 1.11254 0.61233 0.98459 0.0
H612 H 1.11917 0.60716 0.94767 0.0
H613 H 0.175 0.61813 0.97105 0.0
C614 C 0.88038 0.24835 0.3919 0.0
C615 C 0.83789 0.20066 0.4068 0.0
C616 C 0.86719 0.27763 0.3704 0.0
C617 C 0.81042 0.25927 0.36457 0.0
C618 C 0.76795 0.20971 0.37899 0.0
C619 C 0.78242 0.18054 0.39935 0.0
C620 C 0.91376 0.32941 0.35508 0.0
C621 C 0.70672 0.18923 0.37453 0.0
C622 C 0.74371 0.34258 0.33775 0.0
C623 C 0.71958 0.31599 0.31346 0.0
C624 C 0.77978 0.32969 0.35349 0.0
C625 C 0.79339 0.2909 0.34397 0.0
C626 C 0.77584 0.27079 0.31729 0.0
C627 C 0.73764 0.28203 0.30282 0.0
C628 C 0.79669 0.35155 0.38201 0.0
C629 C 0.79107 0.23095 0.30598 0.0
H630 H 0.92333 0.26419 0.39789 0.0
H631 H 0.74961 0.14347 0.41088 0.0
H632 H 0.904 0.33341 0.33266 0.0
H633 H 0.91948 0.36671 0.36482 0.0
H634 H 0.95381 0.3294 0.35637 0.0
H635 H 0.67925 0.14883 0.3868 0.0
H636 H 0.69672 0.2206 0.38116 0.0
H637 H 0.69662 0.18389 0.35203 0.0
H638 H 0.72974 0.36885 0.34591 0.0
H639 H 0.71793 0.25962 0.2847 0.0
H640 H 0.8397 0.36092 0.38674 0.0
H641 H 0.76821 0.31915 0.39825 0.0
H642 H 0.794 0.38978 0.38362 0.0
H643 H 0.83629 0.24642 0.30839 0.0
H644 H 0.7806 0.2251 0.28351 0.0
H645 H 0.76798 0.18958 0.31809 0.0
C646 C 0.69177 0.64158 0.73613 0.0
C647 C 0.68221 0.59899 0.75701 0.0
C648 C 0.66559 0.62866 0.71006 0.0
C649 C 0.62997 0.57201 0.70491 0.0
C650 C 0.62269 0.52908 0.72553 0.0
C651 C 0.64862 0.54316 0.75136 0.0
C652 C 0.67433 0.67543 0.68849 0.0
C653 C 0.58599 0.46815 0.7207 0.0
C654 C 0.50857 0.52432 0.65561 0.0
C655 C 0.52897 0.51073 0.63298 0.0
C656 C 0.54228 0.5474 0.67861 0.0
C657 C 0.59748 0.55674 0.67878 0.0
C658 C 0.6188 0.545 0.65526 0.0
C659 C 0.58405 0.5219 0.6326 0.0
C660 C 0.51809 0.55958 0.70322 0.0
C661 C 0.67729 0.55437 0.65456 0.0
H662 H 0.71791 0.68479 0.74052 0.0
H663 H 0.64188 0.51021 0.76741 0.0
H664 H 0.68748 0.66931 0.66797 0.0
H665 H 0.63444 0.67514 0.68526 0.0
H666 H 0.70615 0.717 0.69493 0.0
H667 H 0.58757 0.44 0.73819 0.0
H668 H 0.54215 0.45832 0.71843 0.0
H669 H 0.59885 0.45904 0.70092 0.0
H670 H 0.46593 0.51585 0.65541 0.0
H671 H 0.59928 0.51141 0.61473 0.0
H672 H 0.54665 0.60256 0.70907 0.0
H673 H 0.51344 0.5304 0.72169 0.0
H674 H 0.47664 0.55508 0.69866 0.0
H675 H 0.70761 0.59673 0.66058 0.0
H676 H 0.68954 0.54944 0.63348 0.0
H677 H 0.68024 0.5239 0.67004 0.0
C678 C 0.793 0.19951 0.58068 0.0
C679 C 0.80365 0.16717 0.56361 0.0
C680 C 0.79174 0.1908 0.61015 0.0
C681 C 0.7992 0.14712 0.62305 0.0
C682 C 0.81042 0.11454 0.60584 0.0
C683 C 0.81336 0.12557 0.57633 0.0
C684 C 0.78131 0.22779 0.62749 0.0
C685 C 0.817 1.06659 0.61848 0.0
C686 C 0.83115 0.15965 0.70102 0.0
C687 C 0.77739 0.13203 0.71317 0.0
C688 C 0.83947 0.16197 0.67183 0.0
C689 C 0.79286 0.1349 0.65442 0.0
C690 C 0.73891 1.10243 0.66713 0.0
C691 C 0.73179 1.10235 0.69622 0.0
C692 C 0.8976 0.19804 0.65942 0.0
C693 C 0.68806 1.07147 0.64971 0.0
H694 H 0.7853 0.23161 0.57088 0.0
H695 H 0.82083 1.10006 0.56321 0.0
H696 H 0.74076 0.20273 0.63904 0.0
H697 H 0.81412 0.2459 0.64336 0.0
H698 H 0.78058 0.26243 0.61441 0.0
H699 H 0.82802 1.04686 0.60241 0.0
H700 H 0.84968 1.08104 0.63455 0.0
H701 H 0.77741 1.03444 0.62927 0.0
H702 H 0.8662 0.1839 0.71404 0.0
H703 H 0.69015 1.08232 0.70546 0.0
H704 H 0.90157 0.23719 0.64904 0.0
H705 H 0.90597 0.17677 0.64318 0.0
H706 H 0.92986 0.20915 0.67569 0.0
H707 H 0.67792 1.10166 0.63833 0.0
H708 H 0.65118 1.04066 0.6629 0.0
H709 H 0.69608 1.04934 0.63379 0.0
C710 C 0.84651 0.74265 0.89771 0.0
C711 C 0.85812 0.7058 0.88509 0.0
C712 C 0.83746 0.73744 0.92704 0.0
C713 C 0.84187 0.69552 0.94419 0.0
C714 C 0.85767 0.66102 0.93156 0.0
C715 C 0.86434 0.66575 0.90217 0.0
C716 C 0.81893 0.77392 0.93935 0.0
C717 C 0.8645 0.61689 0.94889 0.0
C718 C 0.83635 0.6993 0.02419 0.0
C719 C 0.78023 0.66011 0.03046 0.0
C720 C 0.85791 0.71002 -0.00362 0.0
C721 C 0.82198 0.68222 0.97433 0.0
C722 C 0.7657 0.64148 0.98094 0.0
C723 C 0.7461 0.63021 0.00887 0.0
C724 C 0.91862 0.75212 0.99049 0.0
C725 C 0.72536 0.61118 0.95834 0.0
H726 H 0.84064 0.77292 0.88449 0.0
H727 H 0.87309 0.63703 0.89241 0.0
H728 H 0.77474 0.74797 0.94663 0.0
H729 H 0.84395 0.79288 0.95788 0.0
H730 H 0.82252 0.80779 0.92386 0.0
H731 H 0.8863 0.60064 0.93685 0.0
H732 H 0.88822 0.63379 0.96808 0.0
H733 H 0.8229 0.58144 0.95573 0.0
H734 H 0.86275 0.72261 0.04081 0.0
H735 H 0.70285 0.5995 0.01383 0.0
H736 H 0.92247 0.78994 0.97854 0.0
H737 H 0.93784 0.73486 0.97734 0.0
H738 H 0.9424 0.76466 0.01011 0.0
H739 H 0.72468 0.64179 0.94207 0.0
H740 H 0.68222 0.58312 0.96678 0.0
H741 H 0.73907 0.58588 0.94781 0.0
C742 C 0.23575 0.65267 0.23328 0.0
C743 C 0.22145 0.6007 0.22406 0.0
C744 C 0.24499 0.66236 0.26197 0.0
C745 C 0.2381 0.61847 0.28206 0.0
C746 C 0.2203 0.56502 0.27292 0.0
C747 C 0.21319 0.5571 0.24411 0.0
C748 C 0.26526 0.72043 0.27045 0.0
C749 C 0.21058 0.51648 0.2935 0.0
C750 C 0.32662 0.65381 0.34742 0.0
C751 C 0.29068 0.65301 0.36788 0.0
C752 C 0.31021 0.64353 0.31955 0.0
C753 C 0.25536 0.62962 0.31192 0.0
C754 C 0.21768 0.62571 0.33287 0.0
C755 C 0.23604 0.63825 0.36054 0.0
C756 C 0.35225 0.64897 0.29811 0.0
C757 C 0.15834 0.60922 0.32594 0.0
H758 H 0.242 0.68639 0.21795 0.0
H759 H 0.2014 0.51651 0.23725 0.0
H760 H 0.2431 0.71911 0.28978 0.0
H761 H 0.3103 0.74019 0.27511 0.0
H762 H 0.25963 0.74717 0.2536 0.0
H763 H 0.18965 0.4762 0.28372 0.0
H764 H 0.25104 0.52321 0.3017 0.0
H765 H 0.18471 0.5133 0.31172 0.0
H766 H 0.36857 0.66434 0.35318 0.0
H767 H 0.20822 0.63783 0.37625 0.0
H768 H 0.35693 0.67988 0.28051 0.0
H769 H 0.33745 0.60846 0.28916 0.0
H770 H 0.39385 0.66234 0.30721 0.0
H771 H 0.15789 0.64162 0.31087 0.0
H772 H 1.13314 0.60391 0.34491 0.0
H773 H 1.13827 0.56955 0.31566 0.0
loop_
_geom_bond_atom_site_label_1
_geom_bond_atom_site_label_2
_geom_bond_distance
_geom_bond_site_symmetry_2
_ccdc_geom_bond_type
C0 Eu1 2.835 . S
C0 C2 1.500 . S
C0 O20 1.257 . S
C0 O21 1.260 . S
Eu1 C0 2.835 . S
Eu1 O20 2.473 . S
Eu1 O21 2.480 . S
Eu1 O22 2.430 1_655 S
Eu1 O23 2.670 1_655 S
Eu1 O24 2.394 . S
Eu1 O29 2.355 1_655 S
Eu1 O31 2.374 1_655 S
C2 C0 1.500 . S
C2 C3 1.377 . S
C2 C7 1.377 . S
C3 C2 1.377 . S
C3 C4 1.395 . S
C3 H32 0.931 . S
C4 C3 1.395 . S
C4 C5 1.383 . S
C4 H33 0.931 . S
C5 C4 1.383 . S
C5 C6 1.394 . S
C6 C5 1.394 . S
C6 C7 1.378 . S
C6 H34 0.931 . S
C7 C2 1.377 . S
C7 C6 1.378 . S
C7 H35 0.931 . S
C8 O22 1.259 . S
C8 O23 1.270 . S
C9 O24 1.251 . S
C9 O25 1.251 . S
C10 Eu11 2.835 . S
C10 C12 1.500 . S
C10 O26 1.257 . S
C10 O27 1.260 . S
Eu11 C10 2.835 . S
Eu11 O23 2.355 . S
Eu11 O25 2.374 1_455 S
Eu11 O26 2.473 . S
Eu11 O27 2.480 . S
Eu11 O28 2.430 . S
Eu11 O29 2.670 . S
Eu11 O30 2.394 . S
C12 C10 1.500 . S
C12 C13 1.377 . S
C12 C17 1.377 . S
C13 C12 1.377 . S
C13 C14 1.395 . S
C13 H36 0.931 . S
C14 C13 1.395 . S
C14 C15 1.383 . S
C14 H37 0.931 . S
C15 C14 1.383 . S
C15 C16 1.394 . S
C16 C15 1.394 . S
C16 C17 1.378 . S
C16 H38 0.931 . S
C17 C12 1.377 . S
C17 C16 1.378 . S
C17 H39 0.931 . S
C18 O28 1.259 . S
C18 O29 1.270 . S
C19 O30 1.251 . S
C19 O31 1.251 . S
O20 C0 1.257 . S
O20 Eu1 2.473 . S
O21 C0 1.260 . S
O21 Eu1 2.480 . S
O22 Eu1 2.430 1_455 S
O22 C8 1.259 . S
O23 Eu1 2.670 1_455 S
O23 C8 1.270 . S
O23 Eu11 2.355 . S
O24 Eu1 2.394 . S
O24 C9 1.251 . S
O25 C9 1.251 . S
O25 Eu11 2.374 1_655 S
O26 C10 1.257 . S
O26 Eu11 2.473 . S
O27 C10 1.260 . S
O27 Eu11 2.480 . S
O28 Eu11 2.430 . S
O28 C18 1.259 . S
O29 Eu1 2.355 1_455 S
O29 Eu11 2.670 . S
O29 C18 1.270 . S
O30 Eu11 2.394 . S
O30 C19 1.251 . S
O31 Eu1 2.374 1_455 S
O31 C19 1.251 . S
H32 C3 0.931 . S
H33 C4 0.931 . S
H34 C6 0.931 . S
H35 C7 0.931 . S
H36 C13 0.931 . S
H37 C14 0.931 . S
H38 C16 0.931 . S
H39 C17 0.931 . S
C40 Eu41 2.835 . S
C40 C42 1.500 . S
C40 O60 1.257 . S
C40 O61 1.260 . S
Eu41 C40 2.835 . S
Eu41 O60 2.473 . S
Eu41 O61 2.480 . S
Eu41 O62 2.430 . S
Eu41 O63 2.670 . S
Eu41 O64 2.394 . S
Eu41 O69 2.355 . S
Eu41 O71 2.374 1_545 S
C42 C40 1.500 . S
C42 C43 1.377 . S
C42 C47 1.377 . S
C43 C42 1.377 . S
C43 C44 1.395 . S
C43 H72 0.931 . S
C44 C43 1.395 . S
C44 C45 1.383 . S
C44 H73 0.931 . S
C45 C44 1.383 . S
C45 C46 1.394 . S
C46 C45 1.394 . S
C46 C47 1.378 . S
C46 H74 0.931 . S
C47 C42 1.377 . S
C47 C46 1.378 . S
C47 H75 0.931 . S
C48 O62 1.259 . S
C48 O63 1.270 . S
C49 O64 1.251 . S
C49 O65 1.251 . S
C50 Eu51 2.835 . S
C50 C52 1.500 . S
C50 O66 1.257 . S
C50 O67 1.260 . S
Eu51 C50 2.835 . S
Eu51 O63 2.355 1_565 S
Eu51 O65 2.374 1_565 S
Eu51 O66 2.473 . S
Eu51 O67 2.480 . S
Eu51 O68 2.430 1_565 S
Eu51 O69 2.670 1_565 S
Eu51 O70 2.394 . S
C52 C50 1.500 . S
C52 C53 1.377 . S
C52 C57 1.377 . S
C53 C52 1.377 . S
C53 C54 1.395 . S
C53 H76 0.931 . S
C54 C53 1.395 . S
C54 C55 1.383 . S
C54 H77 0.931 . S
C55 C54 1.383 . S
C55 C56 1.394 . S
C56 C55 1.394 . S
C56 C57 1.378 . S
C56 H78 0.931 . S
C57 C52 1.377 . S
C57 C56 1.378 . S
C57 H79 0.931 . S
C58 O68 1.259 . S
C58 O69 1.270 . S
C59 O70 1.251 . S
C59 O71 1.251 . S
O60 C40 1.257 . S
O60 Eu41 2.473 . S
O61 C40 1.260 . S
O61 Eu41 2.480 . S
O62 Eu41 2.430 . S
O62 C48 1.259 . S
O63 Eu41 2.670 . S
O63 C48 1.270 . S
O63 Eu51 2.355 1_545 S
O64 Eu41 2.394 . S
O64 C49 1.251 . S
O65 C49 1.251 . S
O65 Eu51 2.374 1_545 S
O66 C50 1.257 . S
O66 Eu51 2.473 . S
O67 C50 1.260 . S
O67 Eu51 2.480 . S
O68 Eu51 2.430 1_545 S
O68 C58 1.259 . S
O69 Eu41 2.355 . S
O69 Eu51 2.670 1_545 S
O69 C58 1.270 . S
O70 Eu51 2.394 . S
O70 C59 1.251 . S
O71 Eu41 2.374 1_565 S
O71 C59 1.251 . S
H72 C43 0.931 . S
H73 C44 0.931 . S
H74 C46 0.931 . S
H75 C47 0.931 . S
H76 C53 0.931 . S
H77 C54 0.931 . S
H78 C56 0.931 . S
H79 C57 0.931 . S
C80 Eu81 2.835 . S
C80 C82 1.500 . S
C80 O100 1.257 . S
C80 O101 1.260 . S
Eu81 C80 2.835 . S
Eu81 O100 2.473 . S
Eu81 O101 2.480 . S
Eu81 O102 2.430 . S
Eu81 O103 2.670 . S
Eu81 O104 2.394 . S
Eu81 O109 2.355 . S
Eu81 O111 2.374 . S
C82 C80 1.500 . S
C82 C83 1.377 . S
C82 C87 1.377 . S
C83 C82 1.377 . S
C83 C84 1.395 . S
C83 H112 0.931 . S
C84 C83 1.395 . S
C84 C85 1.383 . S
C84 H113 0.931 . S
C85 C84 1.383 . S
C85 C86 1.394 . S
C86 C85 1.394 . S
C86 C87 1.378 . S
C86 H114 0.931 . S
C87 C82 1.377 . S
C87 C86 1.378 . S
C87 H115 0.931 . S
C88 O102 1.259 . S
C88 O103 1.270 . S
C89 O104 1.251 . S
C89 O105 1.251 . S
C90 Eu91 2.835 . S
C90 C92 1.500 . S
C90 O106 1.257 . S
C90 O107 1.260 . S
Eu91 C90 2.835 . S
Eu91 O103 2.355 . S
Eu91 O105 2.374 . S
Eu91 O106 2.473 . S
Eu91 O107 2.480 . S
Eu91 O108 2.430 . S
Eu91 O109 2.670 . S
Eu91 O110 2.394 . S
C92 C90 1.500 . S
C92 C93 1.377 . S
C92 C97 1.377 . S
C93 C92 1.377 . S
C93 C94 1.395 . S
C93 H116 0.931 . S
C94 C93 1.395 . S
C94 C95 1.383 . S
C94 H117 0.931 . S
C95 C94 1.383 . S
C95 C96 1.394 . S
C96 C95 1.394 . S
C96 C97 1.378 . S
C96 H118 0.931 . S
C97 C92 1.377 . S
C97 C96 1.378 . S
C97 H119 0.931 . S
C98 O108 1.259 . S
C98 O109 1.270 . S
C99 O110 1.251 . S
C99 O111 1.251 . S
O100 C80 1.257 . S
O100 Eu81 2.473 . S
O101 C80 1.260 . S
O101 Eu81 2.480 . S
O102 Eu81 2.430 . S
O102 C88 1.259 . S
O103 Eu81 2.670 . S
O103 C88 1.270 . S
O103 Eu91 2.355 . S
O104 Eu81 2.394 . S
O104 C89 1.251 . S
O105 C89 1.251 . S
O105 Eu91 2.374 . S
O106 C90 1.257 . S
O106 Eu91 2.473 . S
O107 C90 1.260 . S
O107 Eu91 2.480 . S
O108 Eu91 2.430 . S
O108 C98 1.259 . S
O109 Eu81 2.355 . S
O109 Eu91 2.670 . S
O109 C98 1.270 . S
O110 Eu91 2.394 . S
O110 C99 1.251 . S
O111 Eu81 2.374 . S
O111 C99 1.251 . S
H112 C83 0.931 . S
H113 C84 0.931 . S
H114 C86 0.931 . S
H115 C87 0.931 . S
H116 C93 0.931 . S
H117 C94 0.931 . S
H118 C96 0.931 . S
H119 C97 0.931 . S
C120 N121 1.317 . S
C120 N122 1.348 1_545 S
C120 C123 1.485 . S
N121 C120 1.317 . S
N121 N125 1.370 . S
N122 C120 1.348 1_565 S
N122 C124 1.346 . S
C123 C120 1.485 . S
C123 H127 0.960 . S
C123 H128 0.961 . S
C123 H129 0.960 . S
C124 N122 1.346 . S
C124 N125 1.307 1_565 S
C124 C126 1.486 . S
N125 N121 1.370 . S
N125 C124 1.307 1_545 S
C126 C124 1.486 . S
C126 H130 0.960 . S
C126 H131 0.960 . S
C126 H132 0.959 . S
H127 C123 0.960 . S
H128 C123 0.961 . S
H129 C123 0.960 . S
H130 C126 0.960 . S
H131 C126 0.960 . S
H132 C126 0.959 . S
C133 N134 1.317 . S
C133 N135 1.348 . S
C133 C136 1.485 . S
N134 C133 1.317 . S
N134 N138 1.370 . S
N135 C133 1.348 . S
N135 C137 1.346 . S
C136 C133 1.485 . S
C136 H140 0.960 . S
C136 H141 0.961 . S
C136 H142 0.960 . S
C137 N135 1.346 . S
C137 N138 1.307 . S
C137 C139 1.486 . S
N138 N134 1.370 . S
N138 C137 1.307 . S
C139 C137 1.486 . S
C139 H143 0.960 . S
C139 H144 0.960 . S
C139 H145 0.959 . S
H140 C136 0.960 . S
H141 C136 0.961 . S
H142 C136 0.960 . S
H143 C139 0.960 . S
H144 C139 0.960 . S
H145 C139 0.959 . S
C146 N147 1.317 . S
C146 N148 1.348 1_455 S
C146 C149 1.485 . S
N147 C146 1.317 . S
N147 N151 1.370 . S
N148 C146 1.348 1_655 S
N148 C150 1.346 . S
C149 C146 1.485 . S
C149 H153 0.960 . S
C149 H154 0.961 1_455 S
C149 H155 0.960 . S
C150 N148 1.346 . S
C150 N151 1.307 1_655 S
C150 C152 1.486 . S
N151 N147 1.370 . S
N151 C150 1.307 1_455 S
C152 C150 1.486 . S
C152 H156 0.960 . S
C152 H157 0.960 . S
C152 H158 0.959 . S
H153 C149 0.960 . S
H154 C149 0.961 1_655 S
H155 C149 0.960 . S
H156 C152 0.960 . S
H157 C152 0.960 . S
H158 C152 0.959 . S
C159 N160 1.317 . S
C159 N161 1.348 . S
C159 C162 1.485 . S
N160 C159 1.317 . S
N160 N164 1.370 . S
N161 C159 1.348 . S
N161 C163 1.346 . S
C162 C159 1.485 . S
C162 H166 0.960 . S
C162 H167 0.961 . S
C162 H168 0.960 . S
C163 N161 1.346 . S
C163 N164 1.307 . S
C163 C165 1.486 . S
N164 N160 1.370 . S
N164 C163 1.307 . S
C165 C163 1.486 . S
C165 H169 0.960 . S
C165 H170 0.960 . S
C165 H171 0.959 . S
H166 C162 0.960 . S
H167 C162 0.961 . S
H168 C162 0.960 . S
H169 C165 0.960 . S
H170 C165 0.960 . S
H171 C165 0.959 . S
C172 N173 1.317 . S
C172 N174 1.348 . S
C172 C175 1.485 . S
N173 C172 1.317 . S
N173 N177 1.370 . S
N174 C172 1.348 . S
N174 C176 1.346 . S
C175 C172 1.485 . S
C175 H179 0.960 . S
C175 H180 0.961 . S
C175 H181 0.953 1_545 S
C176 N174 1.346 . S
C176 N177 1.307 . S
C176 C178 1.486 . S
N177 N173 1.370 . S
N177 C176 1.307 . S
C178 C176 1.486 . S
C178 H182 0.960 . S
C178 H183 0.960 . S
C178 H184 0.959 . S
H179 C175 0.960 . S
H180 C175 0.961 . S
H181 C175 0.953 1_565 S
H182 C178 0.960 . S
H183 C178 0.960 . S
H184 C178 0.959 . S
C185 N186 1.317 . S
C185 N187 1.348 . S
C185 C188 1.485 . S
N186 C185 1.317 . S
N186 N190 1.370 . S
N187 C185 1.348 . S
N187 C189 1.346 . S
C188 C185 1.485 . S
C188 H192 0.960 . S
C188 H193 0.961 . S
C188 H194 0.960 . S
C189 N187 1.346 . S
C189 N190 1.307 . S
C189 C191 1.486 . S
N190 N186 1.370 . S
N190 C189 1.307 . S
C191 C189 1.486 . S
C191 H195 0.960 . S
C191 H196 0.960 . S
C191 H197 0.959 . S
H192 C188 0.960 . S
H193 C188 0.961 . S
H194 C188 0.960 . S
H195 C191 0.960 . S
H196 C191 0.960 . S
H197 C191 0.959 . S
C198 C199 1.391 . S
C198 C200 1.394 . S
C198 H214 0.931 . S
C199 C198 1.391 . S
C199 C203 1.376 . S
C200 C198 1.394 . S
C200 C201 1.369 . S
C200 C204 1.531 . S
C201 C200 1.369 . S
C201 C202 1.410 . S
C201 C209 1.503 . S
C202 C201 1.410 . S
C202 C203 1.392 . S
C202 C205 1.511 . S
C203 C199 1.376 . S
C203 C202 1.392 . S
C203 H215 0.929 . S
C204 C200 1.531 . S
C204 H216 0.960 . S
C204 H217 0.962 . S
C204 H218 0.960 . S
C205 C202 1.511 . S
C205 H219 0.961 . S
C205 H220 0.961 . S
C205 H221 0.961 . S
C206 C207 1.370 . S
C206 C208 1.363 . S
C206 H222 0.931 . S
C207 C206 1.370 . S
C207 C211 1.408 . S
C208 C206 1.363 . S
C208 C209 1.370 . S
C208 C212 1.524 . S
C209 C201 1.503 . S
C209 C208 1.370 . S
C209 C210 1.403 . S
C210 C209 1.403 . S
C210 C211 1.404 . S
C210 C213 1.539 . S
C211 C207 1.408 . S
C211 C210 1.404 . S
C211 H223 0.930 . S
C212 C208 1.524 . S
C212 H224 0.956 . S
C212 H225 0.961 . S
C212 H226 0.961 . S
C213 C210 1.539 . S
C213 H227 0.958 . S
C213 H228 0.961 . S
C213 H229 0.960 . S
H214 C198 0.931 . S
H215 C203 0.929 . S
H216 C204 0.960 . S
H217 C204 0.962 . S
H218 C204 0.960 . S
H219 C205 0.961 . S
H220 C205 0.961 . S
H221 C205 0.961 . S
H222 C206 0.931 . S
H223 C211 0.930 . S
H224 C212 0.956 . S
H225 C212 0.961 . S
H226 C212 0.961 . S
H227 C213 0.958 . S
H228 C213 0.961 . S
H229 C213 0.960 . S
C230 C231 1.391 . S
C230 C232 1.394 . S
C230 H246 0.931 . S
C231 C230 1.391 . S
C231 C235 1.376 . S
C232 C230 1.394 . S
C232 C233 1.369 . S
C232 C236 1.531 . S
C233 C232 1.369 . S
C233 C234 1.410 . S
C233 C241 1.503 . S
C234 C233 1.410 . S
C234 C235 1.392 . S
C234 C237 1.511 . S
C235 C231 1.376 . S
C235 C234 1.392 . S
C235 H247 0.929 . S
C236 C232 1.531 . S
C236 H248 0.960 . S
C236 H249 0.962 . S
C236 H250 0.960 . S
C237 C234 1.511 . S
C237 H251 0.961 . S
C237 H252 0.961 . S
C237 H253 0.961 . S
C238 C239 1.370 . S
C238 C240 1.363 . S
C238 H254 0.931 . S
C239 C238 1.370 . S
C239 C243 1.408 . S
C240 C238 1.363 . S
C240 C241 1.370 . S
C240 C244 1.524 . S
C241 C233 1.503 . S
C241 C240 1.370 . S
C241 C242 1.403 . S
C242 C241 1.403 . S
C242 C243 1.404 . S
C242 C245 1.539 . S
C243 C239 1.408 . S
C243 C242 1.404 . S
C243 H255 0.930 . S
C244 C240 1.524 . S
C244 H256 0.956 . S
C244 H257 0.961 . S
C244 H258 0.961 . S
C245 C242 1.539 . S
C245 H259 0.958 . S
C245 H260 0.961 . S
C245 H261 0.960 . S
H246 C230 0.931 . S
H247 C235 0.929 . S
H248 C236 0.960 . S
H249 C236 0.962 . S
H250 C236 0.960 . S
H251 C237 0.961 . S
H252 C237 0.961 . S
H253 C237 0.961 . S
H254 C238 0.931 . S
H255 C243 0.930 . S
H256 C244 0.956 . S
H257 C244 0.961 . S
H258 C244 0.961 . S
H259 C245 0.958 . S
H260 C245 0.961 . S
H261 C245 0.960 . S
C262 C263 1.391 . S
C262 C264 1.394 . S
C262 H278 0.931 . S
C263 C262 1.391 . S
C263 C267 1.376 . S
C264 C262 1.394 . S
C264 C265 1.369 . S
C264 C268 1.531 . S
C265 C264 1.369 . S
C265 C266 1.410 . S
C265 C273 1.503 . S
C266 C265 1.410 . S
C266 C267 1.392 . S
C266 C269 1.511 . S
C267 C263 1.376 . S
C267 C266 1.392 . S
C267 H279 0.929 . S
C268 C264 1.531 . S
C268 H280 0.960 . S
C268 H281 0.962 . S
C268 H282 0.960 . S
C269 C266 1.511 . S
C269 H283 0.961 . S
C269 H284 0.961 . S
C269 H285 0.961 . S
C270 C271 1.370 . S
C270 C272 1.363 . S
C270 H286 0.931 . S
C271 C270 1.370 . S
C271 C275 1.408 . S
C272 C270 1.363 . S
C272 C273 1.370 . S
C272 C276 1.524 . S
C273 C265 1.503 . S
C273 C272 1.370 . S
C273 C274 1.403 . S
C274 C273 1.403 . S
C274 C275 1.404 . S
C274 C277 1.539 . S
C275 C271 1.408 . S
C275 C274 1.404 . S
C275 H287 0.930 . S
C276 C272 1.524 . S
C276 H288 0.956 . S
C276 H289 0.961 . S
C276 H290 0.961 . S
C277 C274 1.539 . S
C277 H291 0.958 . S
C277 H292 0.961 . S
C277 H293 0.960 . S
H278 C262 0.931 . S
H279 C267 0.929 . S
H280 C268 0.960 . S
H281 C268 0.962 . S
H282 C268 0.960 . S
H283 C269 0.961 . S
H284 C269 0.961 . S
H285 C269 0.961 . S
H286 C270 0.931 . S
H287 C275 0.930 . S
H288 C276 0.956 . S
H289 C276 0.961 . S
H290 C276 0.961 . S
H291 C277 0.958 . S
H292 C277 0.961 . S
H293 C277 0.960 . S
C294 C295 1.391 . S
C294 C296 1.394 . S
C294 H310 0.931 . S
C295 C294 1.391 . S
C295 C299 1.376 . S
C296 C294 1.394 . S
C296 C297 1.369 . S
C296 C300 1.531 . S
C297 C296 1.369 . S
C297 C298 1.410 . S
C297 C305 1.503 . S
C298 C297 1.410 . S
C298 C299 1.392 . S
C298 C301 1.511 . S
C299 C295 1.376 . S
C299 C298 1.392 . S
C299 H311 0.929 . S
C300 C296 1.531 . S
C300 H312 0.960 . S
C300 H313 0.962 . S
C300 H314 0.960 . S
C301 C298 1.511 . S
C301 H315 0.961 . S
C301 H316 0.961 . S
C301 H317 0.961 . S
C302 C303 1.370 . S
C302 C304 1.363 . S
C302 H318 0.931 . S
C303 C302 1.370 . S
C303 C307 1.408 . S
C304 C302 1.363 . S
C304 C305 1.370 . S
C304 C308 1.524 . S
C305 C297 1.503 . S
C305 C304 1.370 . S
C305 C306 1.403 . S
C306 C305 1.403 . S
C306 C307 1.404 . S
C306 C309 1.539 . S
C307 C303 1.408 . S
C307 C306 1.404 . S
C307 H319 0.930 . S
C308 C304 1.524 . S
C308 H320 0.956 . S
C308 H321 0.961 . S
C308 H322 0.961 . S
C309 C306 1.539 . S
C309 H323 0.958 . S
C309 H324 0.961 . S
C309 H325 0.960 . S
H310 C294 0.931 . S
H311 C299 0.929 . S
H312 C300 0.960 . S
H313 C300 0.962 . S
H314 C300 0.960 . S
H315 C301 0.961 . S
H316 C301 0.961 . S
H317 C301 0.961 . S
H318 C302 0.931 . S
H319 C307 0.930 . S
H320 C308 0.956 . S
H321 C308 0.961 . S
H322 C308 0.961 . S
H323 C309 0.958 . S
H324 C309 0.961 . S
H325 C309 0.960 . S
C326 C327 1.391 . S
C326 C328 1.394 . S
C326 H342 0.931 . S
C327 C326 1.391 . S
C327 C331 1.376 . S
C328 C326 1.394 . S
C328 C329 1.369 . S
C328 C332 1.531 . S
C329 C328 1.369 . S
C329 C330 1.410 . S
C329 C337 1.503 . S
C330 C329 1.410 . S
C330 C331 1.392 . S
C330 C333 1.511 . S
C331 C327 1.376 . S
C331 C330 1.392 . S
C331 H343 0.929 . S
C332 C328 1.531 . S
C332 H344 0.960 . S
C332 H345 0.962 . S
C332 H346 0.960 . S
C333 C330 1.511 . S
C333 H347 0.961 . S
C333 H348 0.961 . S
C333 H349 0.961 . S
C334 C335 1.370 . S
C334 C336 1.363 . S
C334 H350 0.931 . S
C335 C334 1.370 . S
C335 C339 1.408 . S
C336 C334 1.363 . S
C336 C337 1.370 . S
C336 C340 1.524 . S
C337 C329 1.503 . S
C337 C336 1.370 . S
C337 C338 1.403 . S
C338 C337 1.403 . S
C338 C339 1.404 . S
C338 C341 1.539 . S
C339 C335 1.408 . S
C339 C338 1.404 . S
C339 H351 0.930 . S
C340 C336 1.524 . S
C340 H352 0.956 . S
C340 H353 0.961 . S
C340 H354 0.961 . S
C341 C338 1.539 . S
C341 H355 0.958 . S
C341 H356 0.961 . S
C341 H357 0.960 . S
H342 C326 0.931 . S
H343 C331 0.929 . S
H344 C332 0.960 . S
H345 C332 0.962 . S
H346 C332 0.960 . S
H347 C333 0.961 . S
H348 C333 0.961 . S
H349 C333 0.961 . S
H350 C334 0.931 . S
H351 C339 0.930 . S
H352 C340 0.956 . S
H353 C340 0.961 . S
H354 C340 0.961 . S
H355 C341 0.958 . S
H356 C341 0.961 . S
H357 C341 0.960 . S
C358 C359 1.391 . S
C358 C360 1.394 . S
C358 H374 0.931 . S
C359 C358 1.391 . S
C359 C363 1.376 . S
C360 C358 1.394 . S
C360 C361 1.369 . S
C360 C364 1.531 . S
C361 C360 1.369 . S
C361 C362 1.410 . S
C361 C369 1.503 . S
C362 C361 1.410 . S
C362 C363 1.392 . S
C362 C365 1.511 . S
C363 C359 1.376 . S
C363 C362 1.392 . S
C363 H375 0.929 . S
C364 C360 1.531 . S
C364 H376 0.960 . S
C364 H377 0.962 . S
C364 H378 0.960 . S
C365 C362 1.511 . S
C365 H379 0.961 . S
C365 H380 0.961 . S
C365 H381 0.961 . S
C366 C367 1.370 . S
C366 C368 1.363 . S
C366 H382 0.931 . S
C367 C366 1.370 . S
C367 C371 1.408 . S
C368 C366 1.363 . S
C368 C369 1.370 . S
C368 C372 1.524 . S
C369 C361 1.503 . S
C369 C368 1.370 . S
C369 C370 1.403 . S
C370 C369 1.403 . S
C370 C371 1.404 . S
C370 C373 1.539 . S
C371 C367 1.408 . S
C371 C370 1.404 . S
C371 H383 0.930 . S
C372 C368 1.524 . S
C372 H384 0.956 . S
C372 H385 0.961 . S
C372 H386 0.961 . S
C373 C370 1.539 . S
C373 H387 0.958 . S
C373 H388 0.961 . S
C373 H389 0.960 . S
H374 C358 0.931 . S
H375 C363 0.929 . S
H376 C364 0.960 . S
H377 C364 0.962 . S
H378 C364 0.960 . S
H379 C365 0.961 . S
H380 C365 0.961 . S
H381 C365 0.961 . S
H382 C366 0.931 . S
H383 C371 0.930 . S
H384 C372 0.956 . S
H385 C372 0.961 . S
H386 C372 0.961 . S
H387 C373 0.958 . S
H388 C373 0.961 . S
H389 C373 0.960 . S
C390 C391 1.391 . S
C390 C392 1.394 . S
C390 H406 0.931 . S
C391 C390 1.391 . S
C391 C395 1.376 . S
C392 C390 1.394 . S
C392 C393 1.369 . S
C392 C396 1.531 . S
C393 C392 1.369 . S
C393 C394 1.410 . S
C393 C401 1.503 . S
C394 C393 1.410 . S
C394 C395 1.392 . S
C394 C397 1.511 . S
C395 C391 1.376 . S
C395 C394 1.392 . S
C395 H407 0.929 . S
C396 C392 1.531 . S
C396 H408 0.960 . S
C396 H409 0.962 . S
C396 H410 0.960 . S
C397 C394 1.511 . S
C397 H411 0.961 . S
C397 H412 0.961 . S
C397 H413 0.961 . S
C398 C399 1.370 . S
C398 C400 1.363 . S
C398 H414 0.931 . S
C399 C398 1.370 . S
C399 C403 1.408 . S
C400 C398 1.363 . S
C400 C401 1.370 . S
C400 C404 1.524 . S
C401 C393 1.503 . S
C401 C400 1.370 . S
C401 C402 1.403 . S
C402 C401 1.403 . S
C402 C403 1.404 . S
C402 C405 1.539 . S
C403 C399 1.408 . S
C403 C402 1.404 . S
C403 H415 0.930 . S
C404 C400 1.524 . S
C404 H416 0.956 . S
C404 H417 0.961 . S
C404 H418 0.961 . S
C405 C402 1.539 . S
C405 H419 0.958 . S
C405 H420 0.961 . S
C405 H421 0.960 . S
H406 C390 0.931 . S
H407 C395 0.929 . S
H408 C396 0.960 . S
H409 C396 0.962 . S
H410 C396 0.960 . S
H411 C397 0.961 . S
H412 C397 0.961 . S
H413 C397 0.961 . S
H414 C398 0.931 . S
H415 C403 0.930 . S
H416 C404 0.956 . S
H417 C404 0.961 . S
H418 C404 0.961 . S
H419 C405 0.958 . S
H420 C405 0.961 . S
H421 C405 0.960 . S
C422 C423 1.391 . S
C422 C424 1.394 . S
C422 H438 0.931 . S
C423 C422 1.391 . S
C423 C427 1.376 . S
C424 C422 1.394 . S
C424 C425 1.369 . S
C424 C428 1.531 . S
C425 C424 1.369 . S
C425 C426 1.410 . S
C425 C433 1.503 . S
C426 C425 1.410 . S
C426 C427 1.392 . S
C426 C429 1.511 . S
C427 C423 1.376 . S
C427 C426 1.392 . S
C427 H439 0.929 . S
C428 C424 1.531 . S
C428 H440 0.960 . S
C428 H441 0.962 . S
C428 H442 0.960 . S
C429 C426 1.511 . S
C429 H443 0.961 . S
C429 H444 0.961 . S
C429 H445 0.961 . S
C430 C431 1.370 . S
C430 C432 1.363 . S
C430 H446 0.931 . S
C431 C430 1.370 . S
C431 C435 1.408 . S
C432 C430 1.363 . S
C432 C433 1.370 . S
C432 C436 1.524 . S
C433 C425 1.503 . S
C433 C432 1.370 . S
C433 C434 1.403 . S
C434 C433 1.403 . S
C434 C435 1.404 . S
C434 C437 1.539 . S
C435 C431 1.408 . S
C435 C434 1.404 . S
C435 H447 0.930 . S
C436 C432 1.524 . S
C436 H448 0.956 . S
C436 H449 0.961 . S
C436 H450 0.961 . S
C437 C434 1.539 . S
C437 H451 0.958 . S
C437 H452 0.961 . S
C437 H453 0.960 . S
H438 C422 0.931 . S
H439 C427 0.929 . S
H440 C428 0.960 . S
H441 C428 0.962 . S
H442 C428 0.960 . S
H443 C429 0.961 . S
H444 C429 0.961 . S
H445 C429 0.961 . S
H446 C430 0.931 . S
H447 C435 0.930 . S
H448 C436 0.956 . S
H449 C436 0.961 . S
H450 C436 0.961 . S
H451 C437 0.958 . S
H452 C437 0.961 . S
H453 C437 0.960 . S
C454 C455 1.391 . S
C454 C456 1.394 . S
C454 H470 0.931 . S
C455 C454 1.391 . S
C455 C459 1.376 . S
C456 C454 1.394 . S
C456 C457 1.369 . S
C456 C460 1.531 . S
C457 C456 1.369 . S
C457 C458 1.410 . S
C457 C465 1.503 . S
C458 C457 1.410 . S
C458 C459 1.392 . S
C458 C461 1.511 . S
C459 C455 1.376 . S
C459 C458 1.392 . S
C459 H471 0.929 . S
C460 C456 1.531 . S
C460 H472 0.960 . S
C460 H473 0.962 . S
C460 H474 0.960 . S
C461 C458 1.511 . S
C461 H475 0.961 . S
C461 H476 0.961 . S
C461 H477 0.961 . S
C462 C463 1.370 . S
C462 C464 1.363 . S
C462 H478 0.931 . S
C463 C462 1.370 . S
C463 C467 1.408 . S
C464 C462 1.363 . S
C464 C465 1.370 . S
C464 C468 1.524 . S
C465 C457 1.503 . S
C465 C464 1.370 . S
C465 C466 1.403 . S
C466 C465 1.403 . S
C466 C467 1.404 . S
C466 C469 1.539 . S
C467 C463 1.408 . S
C467 C466 1.404 . S
C467 H479 0.930 . S
C468 C464 1.524 . S
C468 H480 0.956 . S
C468 H481 0.961 . S
C468 H482 0.961 . S
C469 C466 1.539 . S
C469 H483 0.958 . S
C469 H484 0.961 . S
C469 H485 0.960 . S
H470 C454 0.931 . S
H471 C459 0.929 . S
H472 C460 0.960 . S
H473 C460 0.962 . S
H474 C460 0.960 . S
H475 C461 0.961 . S
H476 C461 0.961 . S
H477 C461 0.961 . S
H478 C462 0.931 . S
H479 C467 0.930 . S
H480 C468 0.956 . S
H481 C468 0.961 . S
H482 C468 0.961 . S
H483 C469 0.958 . S
H484 C469 0.961 . S
H485 C469 0.960 . S
C486 C487 1.391 . S
C486 C488 1.394 . S
C486 H502 0.931 . S
C487 C486 1.391 . S
C487 C491 1.376 . S
C488 C486 1.394 . S
C488 C489 1.369 . S
C488 C492 1.531 . S
C489 C488 1.369 . S
C489 C490 1.410 . S
C489 C497 1.503 . S
C490 C489 1.410 . S
C490 C491 1.392 . S
C490 C493 1.511 . S
C491 C487 1.376 . S
C491 C490 1.392 . S
C491 H503 0.929 . S
C492 C488 1.531 . S
C492 H504 0.960 . S
C492 H505 0.962 . S
C492 H506 0.960 . S
C493 C490 1.511 . S
C493 H507 0.961 . S
C493 H508 0.961 . S
C493 H509 0.961 . S
C494 C495 1.370 . S
C494 C496 1.363 . S
C494 H510 0.931 . S
C495 C494 1.370 . S
C495 C499 1.408 . S
C496 C494 1.363 . S
C496 C497 1.370 . S
C496 C500 1.524 . S
C497 C489 1.503 . S
C497 C496 1.370 . S
C497 C498 1.403 . S
C498 C497 1.403 . S
C498 C499 1.404 . S
C498 C501 1.539 . S
C499 C495 1.408 . S
C499 C498 1.404 . S
C499 H511 0.930 . S
C500 C496 1.524 . S
C500 H512 0.956 . S
C500 H513 0.961 . S
C500 H514 0.961 . S
C501 C498 1.539 . S
C501 H515 0.958 . S
C501 H516 0.961 . S
C501 H517 0.960 . S
H502 C486 0.931 . S
H503 C491 0.929 . S
H504 C492 0.960 . S
H505 C492 0.962 . S
H506 C492 0.960 . S
H507 C493 0.961 . S
H508 C493 0.961 . S
H509 C493 0.961 . S
H510 C494 0.931 . S
H511 C499 0.930 . S
H512 C500 0.956 . S
H513 C500 0.961 . S
H514 C500 0.961 . S
H515 C501 0.958 . S
H516 C501 0.961 . S
H517 C501 0.960 . S
C518 C519 1.391 . S
C518 C520 1.394 . S
C518 H534 0.931 . S
C519 C518 1.391 . S
C519 C523 1.376 . S
C520 C518 1.394 . S
C520 C521 1.369 . S
C520 C524 1.531 . S
C521 C520 1.369 . S
C521 C522 1.410 . S
C521 C529 1.503 . S
C522 C521 1.410 . S
C522 C523 1.392 . S
C522 C525 1.511 . S
C523 C519 1.376 . S
C523 C522 1.392 . S
C523 H535 0.929 . S
C524 C520 1.531 . S
C524 H536 0.960 . S
C524 H537 0.962 . S
C524 H538 0.960 . S
C525 C522 1.511 . S
C525 H539 0.961 . S
C525 H540 0.961 . S
C525 H541 0.961 . S
C526 C527 1.370 . S
C526 C528 1.363 . S
C526 H542 0.931 . S
C527 C526 1.370 . S
C527 C531 1.408 . S
C528 C526 1.363 . S
C528 C529 1.370 . S
C528 C532 1.524 . S
C529 C521 1.503 . S
C529 C528 1.370 . S
C529 C530 1.403 . S
C530 C529 1.403 . S
C530 C531 1.404 . S
C530 C533 1.539 . S
C531 C527 1.408 . S
C531 C530 1.404 . S
C531 H543 0.930 . S
C532 C528 1.524 . S
C532 H544 0.956 . S
C532 H545 0.961 . S
C532 H546 0.961 . S
C533 C530 1.539 . S
C533 H547 0.958 . S
C533 H548 0.961 . S
C533 H549 0.960 . S
H534 C518 0.931 . S
H535 C523 0.929 . S
H536 C524 0.960 . S
H537 C524 0.962 . S
H538 C524 0.960 . S
H539 C525 0.961 . S
H540 C525 0.961 . S
H541 C525 0.961 . S
H542 C526 0.931 . S
H543 C531 0.930 . S
H544 C532 0.956 . S
H545 C532 0.961 . S
H546 C532 0.961 . S
H547 C533 0.958 . S
H548 C533 0.961 . S
H549 C533 0.960 . S
C550 C551 1.391 . S
C550 C552 1.394 . S
C550 H566 0.931 . S
C551 C550 1.391 . S
C551 C555 1.376 . S
C552 C550 1.394 . S
C552 C553 1.369 . S
C552 C556 1.531 . S
C553 C552 1.369 . S
C553 C554 1.410 . S
C553 C561 1.503 . S
C554 C553 1.410 . S
C554 C555 1.392 . S
C554 C557 1.511 . S
C555 C551 1.376 . S
C555 C554 1.392 . S
C555 H567 0.929 . S
C556 C552 1.531 . S
C556 H568 0.960 . S
C556 H569 0.962 . S
C556 H570 0.960 . S
C557 C554 1.511 . S
C557 H571 0.961 . S
C557 H572 0.961 . S
C557 H573 0.961 . S
C558 C559 1.370 . S
C558 C560 1.363 . S
C558 H574 0.931 . S
C559 C558 1.370 . S
C559 C563 1.408 . S
C560 C558 1.363 . S
C560 C561 1.370 . S
C560 C564 1.524 . S
C561 C553 1.503 . S
C561 C560 1.370 . S
C561 C562 1.403 . S
C562 C561 1.403 . S
C562 C563 1.404 . S
C562 C565 1.539 . S
C563 C559 1.408 . S
C563 C562 1.404 . S
C563 H575 0.930 . S
C564 C560 1.524 . S
C564 H576 0.956 . S
C564 H577 0.961 . S
C564 H578 0.961 . S
C565 C562 1.539 . S
C565 H579 0.958 . S
C565 H580 0.961 . S
C565 H581 0.960 . S
H566 C550 0.931 . S
H567 C555 0.929 . S
H568 C556 0.960 . S
H569 C556 0.962 . S
H570 C556 0.960 . S
H571 C557 0.961 . S
H572 C557 0.961 . S
H573 C557 0.961 . S
H574 C558 0.931 . S
H575 C563 0.930 . S
H576 C564 0.956 . S
H577 C564 0.961 . S
H578 C564 0.961 . S
H579 C565 0.958 . S
H580 C565 0.961 . S
H581 C565 0.960 . S
C582 C583 1.391 . S
C582 C584 1.394 . S
C582 H598 0.931 . S
C583 C582 1.391 . S
C583 C587 1.376 . S
C584 C582 1.394 . S
C584 C585 1.369 . S
C584 C588 1.531 . S
C585 C584 1.369 . S
C585 C586 1.410 . S
C585 C593 1.545 . S
C586 C585 1.410 . S
C586 C587 1.392 . S
C586 C589 1.511 . S
C587 C583 1.376 . S
C587 C586 1.392 . S
C587 H599 0.929 . S
C588 C584 1.531 . S
C588 H600 0.960 . S
C588 H601 0.962 1_455 S
C588 H602 0.960 . S
C589 C586 1.511 . S
C589 H603 0.961 . S
C589 H604 0.961 . S
C589 H605 0.961 . S
C590 C591 1.370 1_655 S
C590 C592 1.363 . S
C590 H606 0.931 . S
C591 C590 1.370 1_455 S
C591 C595 1.408 . S
C592 C590 1.363 . S
C592 C593 1.353 1_656 S
C592 C596 1.524 1_556 S
C593 C585 1.545 . S
C593 C592 1.353 1_454 S
C593 C594 1.379 1_554 S
C594 C593 1.379 1_556 S
C594 C595 1.404 . S
C594 C597 1.539 . S
C595 C591 1.408 . S
C595 C594 1.404 . S
C595 H607 0.930 . S
C596 C592 1.524 1_554 S
C596 H608 0.956 . S
C596 H609 0.961 . S
C596 H610 0.961 1_554 S
C597 C594 1.539 . S
C597 H611 0.958 . S
C597 H612 0.961 . S
C597 H613 0.960 1_556 S
H598 C582 0.931 . S
H599 C587 0.929 . S
H600 C588 0.960 . S
H601 C588 0.962 1_655 S
H602 C588 0.960 . S
H603 C589 0.961 . S
H604 C589 0.961 . S
H605 C589 0.961 . S
H606 C590 0.931 . S
H607 C595 0.930 . S
H608 C596 0.956 . S
H609 C596 0.961 . S
H610 C596 0.961 1_556 S
H611 C597 0.958 . S
H612 C597 0.961 . S
H613 C597 0.960 1_554 S
C614 C615 1.391 . S
C614 C616 1.394 . S
C614 H630 0.931 . S
C615 C614 1.391 . S
C615 C619 1.376 1_545 S
C616 C614 1.394 . S
C616 C617 1.369 . S
C616 C620 1.531 . S
C617 C616 1.369 . S
C617 C618 1.410 1_545 S
C617 C625 1.503 . S
C618 C617 1.410 1_565 S
C618 C619 1.392 . S
C618 C621 1.511 . S
C619 C615 1.376 1_565 S
C619 C618 1.392 . S
C619 H631 0.929 . S
C620 C616 1.531 . S
C620 H632 0.960 . S
C620 H633 0.962 . S
C620 H634 0.960 . S
C621 C618 1.511 . S
C621 H635 0.961 . S
C621 H636 0.961 . S
C621 H637 0.961 . S
C622 C623 1.370 . S
C622 C624 1.363 . S
C622 H638 0.931 . S
C623 C622 1.370 . S
C623 C627 1.408 . S
C624 C622 1.363 . S
C624 C625 1.370 . S
C624 C628 1.524 . S
C625 C617 1.503 . S
C625 C624 1.370 . S
C625 C626 1.403 . S
C626 C625 1.403 . S
C626 C627 1.404 . S
C626 C629 1.539 . S
C627 C623 1.408 . S
C627 C626 1.404 . S
C627 H639 0.930 . S
C628 C624 1.524 . S
C628 H640 0.956 . S
C628 H641 0.961 . S
C628 H642 0.961 . S
C629 C626 1.539 . S
C629 H643 0.958 . S
C629 H644 0.961 . S
C629 H645 0.960 . S
H630 C614 0.931 . S
H631 C619 0.929 . S
H632 C620 0.960 . S
H633 C620 0.962 . S
H634 C620 0.960 . S
H635 C621 0.961 . S
H636 C621 0.961 . S
H637 C621 0.961 . S
H638 C622 0.931 . S
H639 C627 0.930 . S
H640 C628 0.956 . S
H641 C628 0.961 . S
H642 C628 0.961 . S
H643 C629 0.958 . S
H644 C629 0.961 . S
H645 C629 0.960 . S
C646 C647 1.391 . S
C646 C648 1.394 . S
C646 H662 0.931 . S
C647 C646 1.391 . S
C647 C651 1.376 . S
C648 C646 1.394 . S
C648 C649 1.369 . S
C648 C652 1.531 . S
C649 C648 1.369 . S
C649 C650 1.410 . S
C649 C657 1.503 . S
C650 C649 1.410 . S
C650 C651 1.392 . S
C650 C653 1.511 . S
C651 C647 1.376 . S
C651 C650 1.392 . S
C651 H663 0.929 . S
C652 C648 1.531 . S
C652 H664 0.960 . S
C652 H665 0.962 . S
C652 H666 0.960 . S
C653 C650 1.511 . S
C653 H667 0.961 . S
C653 H668 0.961 . S
C653 H669 0.961 . S
C654 C655 1.370 . S
C654 C656 1.363 . S
C654 H670 0.931 . S
C655 C654 1.370 . S
C655 C659 1.408 . S
C656 C654 1.363 . S
C656 C657 1.370 . S
C656 C660 1.524 . S
C657 C649 1.503 . S
C657 C656 1.370 . S
C657 C658 1.403 . S
C658 C657 1.403 . S
C658 C659 1.404 . S
C658 C661 1.539 . S
C659 C655 1.408 . S
C659 C658 1.404 . S
C659 H671 0.930 . S
C660 C656 1.524 . S
C660 H672 0.956 . S
C660 H673 0.961 . S
C660 H674 0.961 . S
C661 C658 1.539 . S
C661 H675 0.958 . S
C661 H676 0.961 . S
C661 H677 0.960 . S
H662 C646 0.931 . S
H663 C651 0.929 . S
H664 C652 0.960 . S
H665 C652 0.962 . S
H666 C652 0.960 . S
H667 C653 0.961 . S
H668 C653 0.961 . S
H669 C653 0.961 . S
H670 C654 0.931 . S
H671 C659 0.930 . S
H672 C660 0.956 . S
H673 C660 0.961 . S
H674 C660 0.961 . S
H675 C661 0.958 . S
H676 C661 0.961 . S
H677 C661 0.960 . S
C678 C679 1.391 . S
C678 C680 1.394 . S
C678 H694 0.931 . S
C679 C678 1.391 . S
C679 C683 1.376 . S
C680 C678 1.394 . S
C680 C681 1.369 . S
C680 C684 1.531 . S
C681 C680 1.369 . S
C681 C682 1.410 . S
C681 C689 1.503 . S
C682 C681 1.410 . S
C682 C683 1.397 . S
C682 C685 1.511 1_545 S
C683 C679 1.376 . S
C683 C682 1.397 . S
C683 H695 0.924 1_545 S
C684 C680 1.531 . S
C684 H696 0.960 . S
C684 H697 0.962 . S
C684 H698 0.960 . S
C685 C682 1.511 1_565 S
C685 H699 0.961 . S
C685 H700 0.961 . S
C685 H701 0.961 . S
C686 C687 1.370 1_565 S
C686 C688 1.363 . S
C686 H702 0.931 . S
C687 C686 1.370 1_545 S
C687 C691 1.408 . S
C688 C686 1.363 . S
C688 C689 1.370 1_565 S
C688 C692 1.524 . S
C689 C681 1.503 . S
C689 C688 1.370 1_545 S
C689 C690 1.403 . S
C690 C689 1.403 . S
C690 C691 1.404 . S
C690 C693 1.539 . S
C691 C687 1.408 . S
C691 C690 1.404 . S
C691 H703 0.930 . S
C692 C688 1.524 . S
C692 H704 0.956 . S
C692 H705 0.961 . S
C692 H706 0.961 . S
C693 C690 1.539 . S
C693 H707 0.958 . S
C693 H708 0.961 . S
C693 H709 0.960 . S
H694 C678 0.931 . S
H695 C683 0.924 1_565 S
H696 C684 0.960 . S
H697 C684 0.962 . S
H698 C684 0.960 . S
H699 C685 0.961 . S
H700 C685 0.961 . S
H701 C685 0.961 . S
H702 C686 0.931 . S
H703 C691 0.930 . S
H704 C692 0.956 . S
H705 C692 0.961 . S
H706 C692 0.961 . S
H707 C693 0.958 . S
H708 C693 0.961 . S
H709 C693 0.960 . S
C710 C711 1.391 . S
C710 C712 1.394 . S
C710 H726 0.931 . S
C711 C710 1.391 . S
C711 C715 1.376 . S
C712 C710 1.394 . S
C712 C713 1.369 . S
C712 C716 1.531 . S
C713 C712 1.369 . S
C713 C714 1.410 . S
C713 C721 1.503 1_556 S
C714 C713 1.410 . S
C714 C715 1.392 . S
C714 C717 1.511 . S
C715 C711 1.376 . S
C715 C714 1.392 . S
C715 H727 0.929 . S
C716 C712 1.531 . S
C716 H728 0.960 1_556 S
C716 H729 0.962 . S
C716 H730 0.960 . S
C717 C714 1.511 . S
C717 H731 0.961 . S
C717 H732 0.961 . S
C717 H733 0.961 . S
C718 C719 1.370 . S
C718 C720 1.363 . S
C718 H734 0.931 . S
C719 C718 1.370 . S
C719 C723 1.408 . S
C720 C718 1.363 . S
C720 C721 1.370 . S
C720 C724 1.524 . S
C721 C713 1.503 1_554 S
C721 C720 1.370 . S
C721 C722 1.403 . S
C722 C721 1.403 . S
C722 C723 1.404 . S
C722 C725 1.539 . S
C723 C719 1.408 . S
C723 C722 1.404 . S
C723 H735 0.930 . S
C724 C720 1.524 . S
C724 H736 0.956 1_554 S
C724 H737 0.961 1_554 S
C724 H738 0.961 . S
C725 C722 1.539 . S
C725 H739 0.958 . S
C725 H740 0.961 . S
C725 H741 0.960 1_554 S
H726 C710 0.931 . S
H727 C715 0.929 . S
H728 C716 0.960 1_554 S
H729 C716 0.962 . S
H730 C716 0.960 . S
H731 C717 0.961 . S
H732 C717 0.961 . S
H733 C717 0.961 . S
H734 C718 0.931 . S
H735 C723 0.930 . S
H736 C724 0.956 1_556 S
H737 C724 0.961 1_556 S
H738 C724 0.961 . S
H739 C725 0.958 . S
H740 C725 0.961 . S
H741 C725 0.960 1_556 S
C742 C743 1.391 . S
C742 C744 1.394 . S
C742 H758 0.931 . S
C743 C742 1.391 . S
C743 C747 1.376 . S
C744 C742 1.394 . S
C744 C745 1.369 . S
C744 C748 1.531 . S
C745 C744 1.369 . S
C745 C746 1.410 . S
C745 C753 1.503 . S
C746 C745 1.410 . S
C746 C747 1.392 . S
C746 C749 1.511 . S
C747 C743 1.376 . S
C747 C746 1.392 . S
C747 H759 0.929 . S
C748 C744 1.531 . S
C748 H760 0.960 . S
C748 H761 0.962 . S
C748 H762 0.960 1_455 S
C749 C746 1.511 . S
C749 H763 0.961 . S
C749 H764 0.961 . S
C749 H765 0.961 . S
C750 C751 1.370 . S
C750 C752 1.363 . S
C750 H766 0.931 . S
C751 C750 1.370 . S
C751 C755 1.408 . S
C752 C750 1.363 . S
C752 C753 1.370 . S
C752 C756 1.524 . S
C753 C745 1.503 . S
C753 C752 1.370 . S
C753 C754 1.403 . S
C754 C753 1.403 . S
C754 C755 1.404 . S
C754 C757 1.539 1_455 S
C755 C751 1.408 . S
C755 C754 1.404 . S
C755 H767 0.930 . S
C756 C752 1.524 . S
C756 H768 0.956 . S
C756 H769 0.961 . S
C756 H770 0.961 . S
C757 C754 1.539 1_655 S
C757 H771 0.958 . S
C757 H772 0.961 . S
C757 H773 0.960 . S
H758 C742 0.931 . S
H759 C747 0.929 . S
H760 C748 0.960 . S
H761 C748 0.962 . S
H762 C748 0.960 1_655 S
H763 C749 0.961 . S
H764 C749 0.961 . S
H765 C749 0.961 . S
H766 C750 0.931 . S
H767 C755 0.930 . S
H768 C756 0.956 . S
H769 C756 0.961 . S
H770 C756 0.961 . S
H771 C757 0.958 . S
H772 C757 0.961 . S
H773 C757 0.960 . S
C199 C19 2.714 . S
C207 N187 2.685 . S
C231 C49 2.942 . S
C239 N160 2.953 1_655 S
C263 C99 2.863 . S
C271 N173 2.899 1_565 S
C295 C9 3.308 . S
C303 N186 3.325 . S
C335 N161 3.034 . S
C327 C59 3.027 . S
C367 N174 3.091 . S
C359 C89 3.119 . S
C391 C55 0.279 . S
C399 N134 0.186 . S
C423 C85 0.436 . S
C431 N148 0.183 . S
C455 C15 0.600 . S
C463 N122 0.507 . S
C495 N135 0.420 . S
C487 C45 0.592 . S
C527 N147 0.684 . S
C519 C95 0.710 . S
C551 C5 0.503 . S
C559 N121 0.306 . S
C591 N151 1.200 . S
C583 C18 1.158 . S
C615 C58 1.252 . S
C623 N125 1.271 . S
C647 C98 1.191 . S
C655 N138 1.187 . S
C687 N177 1.820 . S
C679 C48 1.670 . S
C719 N190 1.736 . S
C711 C88 1.694 . S
C743 C8 1.681 . S
C751 N164 1.739 . S
