# Generated by pormake.
# Topology ctn, (3,4)-cn, num edge types: 1
# Building blocks:
#     Node 0, Type 0, BuildingBlock: QEWDON_clean_linker_0, # of connection points: 3
#     Node 1, Type 0, BuildingBlock: QEWDON_clean_linker_0, # of connection points: 3
#     Node 2, Type 0, BuildingBlock: QEWDON_clean_linker_0, # of connection points: 3
#     Node 3, Type 0, BuildingBlock: QEWDON_clean_linker_0, # of connection points: 3
#     Node 4, Type 0, BuildingBlock: QEWDON_clean_linker_0, # of connection points: 3
#     Node 5, Type 0, BuildingBlock: QEWDON_clean_linker_0, # of connection points: 3
#     Node 6, Type 0, BuildingBlock: QEWDON_clean_linker_0, # of connection points: 3
#     Node 7, Type 0, BuildingBlock: QEWDON_clean_linker_0, # of connection points: 3
#     Node 8, Type 0, BuildingBlock: QEWDON_clean_linker_0, # of connection points: 3
#     Node 9, Type 0, BuildingBlock: QEWDON_clean_linker_0, # of connection points: 3
#     Node 10, Type 0, BuildingBlock: QEWDON_clean_linker_0, # of connection points: 3
#     Node 11, Type 0, BuildingBlock: QEWDON_clean_linker_0, # of connection points: 3
#     Node 12, Type 0, BuildingBlock: QEWDON_clean_linker_0, # of connection points: 3
#     Node 13, Type 0, BuildingBlock: QEWDON_clean_linker_0, # of connection points: 3
#     Node 14, Type 0, BuildingBlock: QEWDON_clean_linker_0, # of connection points: 3
#     Node 15, Type 0, BuildingBlock: QEWDON_clean_linker_0, # of connection points: 3
#     Node 16, Type 1, BuildingBlock: TATPOV_clean_sbu_0, # of connection points: 4
#     Node 17, Type 1, BuildingBlock: TATPOV_clean_sbu_0, # of connection points: 4
#     Node 18, Type 1, BuildingBlock: TATPOV_clean_sbu_0, # of connection points: 4
#     Node 19, Type 1, BuildingBlock: TATPOV_clean_sbu_0, # of connection points: 4
#     Node 20, Type 1, BuildingBlock: TATPOV_clean_sbu_0, # of connection points: 4
#     Node 21, Type 1, BuildingBlock: TATPOV_clean_sbu_0, # of connection points: 4
#     Node 22, Type 1, BuildingBlock: TATPOV_clean_sbu_0, # of connection points: 4
#     Node 23, Type 1, BuildingBlock: TATPOV_clean_sbu_0, # of connection points: 4
#     Node 24, Type 1, BuildingBlock: TATPOV_clean_sbu_0, # of connection points: 4
#     Node 25, Type 1, BuildingBlock: TATPOV_clean_sbu_0, # of connection points: 4
#     Node 26, Type 1, BuildingBlock: TATPOV_clean_sbu_0, # of connection points: 4
#     Node 27, Type 1, BuildingBlock: TATPOV_clean_sbu_0, # of connection points: 4
#     Edge 28, Type (0, 1), BuildingBlock: MIFKUJ_clean_linker_0, # of connection points: 2
#     Edge 29, Type (0, 1), BuildingBlock: MIFKUJ_clean_linker_0, # of connection points: 2
#     Edge 30, Type (0, 1), BuildingBlock: MIFKUJ_clean_linker_0, # of connection points: 2
#     Edge 31, Type (0, 1), BuildingBlock: MIFKUJ_clean_linker_0, # of connection points: 2
#     Edge 32, Type (0, 1), BuildingBlock: MIFKUJ_clean_linker_0, # of connection points: 2
#     Edge 33, Type (0, 1), BuildingBlock: MIFKUJ_clean_linker_0, # of connection points: 2
#     Edge 34, Type (0, 1), BuildingBlock: MIFKUJ_clean_linker_0, # of connection points: 2
#     Edge 35, Type (0, 1), BuildingBlock: MIFKUJ_clean_linker_0, # of connection points: 2
#     Edge 36, Type (0, 1), BuildingBlock: MIFKUJ_clean_linker_0, # of connection points: 2
#     Edge 37, Type (0, 1), BuildingBlock: MIFKUJ_clean_linker_0, # of connection points: 2
#     Edge 38, Type (0, 1), BuildingBlock: MIFKUJ_clean_linker_0, # of connection points: 2
#     Edge 39, Type (0, 1), BuildingBlock: MIFKUJ_clean_linker_0, # of connection points: 2
#     Edge 40, Type (0, 1), BuildingBlock: MIFKUJ_clean_linker_0, # of connection points: 2
#     Edge 41, Type (0, 1), BuildingBlock: MIFKUJ_clean_linker_0, # of connection points: 2
#     Edge 42, Type (0, 1), BuildingBlock: MIFKUJ_clean_linker_0, # of connection points: 2
#     Edge 43, Type (0, 1), BuildingBlock: MIFKUJ_clean_linker_0, # of connection points: 2
#     Edge 44, Type (0, 1), BuildingBlock: MIFKUJ_clean_linker_0, # of connection points: 2
#     Edge 45, Type (0, 1), BuildingBlock: MIFKUJ_clean_linker_0, # of connection points: 2
#     Edge 46, Type (0, 1), BuildingBlock: MIFKUJ_clean_linker_0, # of connection points: 2
#     Edge 47, Type (0, 1), BuildingBlock: MIFKUJ_clean_linker_0, # of connection points: 2
#     Edge 48, Type (0, 1), BuildingBlock: MIFKUJ_clean_linker_0, # of connection points: 2
#     Edge 49, Type (0, 1), BuildingBlock: MIFKUJ_clean_linker_0, # of connection points: 2
#     Edge 50, Type (0, 1), BuildingBlock: MIFKUJ_clean_linker_0, # of connection points: 2
#     Edge 51, Type (0, 1), BuildingBlock: MIFKUJ_clean_linker_0, # of connection points: 2
#     Edge 52, Type (0, 1), BuildingBlock: MIFKUJ_clean_linker_0, # of connection points: 2
#     Edge 53, Type (0, 1), BuildingBlock: MIFKUJ_clean_linker_0, # of connection points: 2
#     Edge 54, Type (0, 1), BuildingBlock: MIFKUJ_clean_linker_0, # of connection points: 2
#     Edge 55, Type (0, 1), BuildingBlock: MIFKUJ_clean_linker_0, # of connection points: 2
#     Edge 56, Type (0, 1), BuildingBlock: MIFKUJ_clean_linker_0, # of connection points: 2
#     Edge 57, Type (0, 1), BuildingBlock: MIFKUJ_clean_linker_0, # of connection points: 2
#     Edge 58, Type (0, 1), BuildingBlock: MIFKUJ_clean_linker_0, # of connection points: 2
#     Edge 59, Type (0, 1), BuildingBlock: MIFKUJ_clean_linker_0, # of connection points: 2
#     Edge 60, Type (0, 1), BuildingBlock: MIFKUJ_clean_linker_0, # of connection points: 2
#     Edge 61, Type (0, 1), BuildingBlock: MIFKUJ_clean_linker_0, # of connection points: 2
#     Edge 62, Type (0, 1), BuildingBlock: MIFKUJ_clean_linker_0, # of connection points: 2
#     Edge 63, Type (0, 1), BuildingBlock: MIFKUJ_clean_linker_0, # of connection points: 2
#     Edge 64, Type (0, 1), BuildingBlock: MIFKUJ_clean_linker_0, # of connection points: 2
#     Edge 65, Type (0, 1), BuildingBlock: MIFKUJ_clean_linker_0, # of connection points: 2
#     Edge 66, Type (0, 1), BuildingBlock: MIFKUJ_clean_linker_0, # of connection points: 2
#     Edge 67, Type (0, 1), BuildingBlock: MIFKUJ_clean_linker_0, # of connection points: 2
#     Edge 68, Type (0, 1), BuildingBlock: MIFKUJ_clean_linker_0, # of connection points: 2
#     Edge 69, Type (0, 1), BuildingBlock: MIFKUJ_clean_linker_0, # of connection points: 2
#     Edge 70, Type (0, 1), BuildingBlock: MIFKUJ_clean_linker_0, # of connection points: 2
#     Edge 71, Type (0, 1), BuildingBlock: MIFKUJ_clean_linker_0, # of connection points: 2
#     Edge 72, Type (0, 1), BuildingBlock: MIFKUJ_clean_linker_0, # of connection points: 2
#     Edge 73, Type (0, 1), BuildingBlock: MIFKUJ_clean_linker_0, # of connection points: 2
#     Edge 74, Type (0, 1), BuildingBlock: MIFKUJ_clean_linker_0, # of connection points: 2
#     Edge 75, Type (0, 1), BuildingBlock: MIFKUJ_clean_linker_0, # of connection points: 2
# Relax obj value: 0.110
# Max RMSD: 0.278
# Mean RMSD: 0.153
data_MOF--net-ctn--node1-TATPOV_clean_sbu_0--node2-QEWDON_clean_linker_0--edge1-MIFKUJ_clean_linker_0
_symmetry_space_group_name_H-M    P1
_symmetry_Int_Tables_number       1
_symmetry_cell_setting            triclinic
loop_
_symmetry_equiv_pos_as_xyz
'x, y, z'
_cell_length_a     68.257328
_cell_length_b     71.176703
_cell_length_c     75.668691
_cell_angle_alpha  99.144058
_cell_angle_beta   92.752592
_cell_angle_gamma 96.97653
loop_
_atom_site_label
_atom_site_type_symbol
_atom_site_fract_x
_atom_site_fract_y
_atom_site_fract_z
_atom_type_partial_charge
H0 H 0.10333 0.03302 0.04741 0.0
C1 C 0.09314 0.02989 0.05743 0.0
C2 C 0.0929 0.01262 0.06435 0.0
C3 C 0.08108 0.04364 0.06407 0.0
H4 H 0.08018 0.99611 0.08355 0.0
C5 C 0.07992 0.00905 0.07774 0.0
C6 C 0.06766 0.0227 0.08455 0.0
C7 C 0.06831 0.03987 0.07745 0.0
C8 C 0.08396 0.06312 0.05919 0.0
H9 H 0.05911 0.05062 0.08254 0.0
C10 C 0.08064 0.06629 0.0414 0.0
C11 C 0.0841 0.08507 0.03735 0.0
C12 C 0.09059 0.07879 0.07276 0.0
H13 H 0.0933 0.07667 0.08649 0.0
C14 C 0.09413 0.09728 0.06875 0.0
H15 H 0.07543 0.05431 0.03084 0.0
C16 C 0.09098 0.10042 0.05119 0.0
H17 H 0.09362 0.11497 0.04844 0.0
H18 H 0.09932 0.10925 0.0793 0.0
H19 H 0.3321 0.74002 0.23314 0.0
C20 C 0.32282 0.72642 0.23252 0.0
C21 C 0.33084 0.71066 0.23782 0.0
C22 C 0.30254 0.72488 0.22729 0.0
H23 H 0.32424 0.68137 0.24213 0.0
C24 C 0.31836 0.6934 0.2376 0.0
C25 C 0.29813 0.69173 0.23251 0.0
C26 C 0.29036 0.70746 0.22718 0.0
C27 C 0.29329 0.74199 0.22432 0.0
H28 H 0.27461 0.70647 0.22375 0.0
C29 C 0.29708 0.75108 0.20937 0.0
C30 C 0.28684 0.7665 0.20619 0.0
C31 C 0.27963 0.74863 0.23631 0.0
H32 H 0.27651 0.7418 0.24787 0.0
C33 C 0.26973 0.76397 0.23344 0.0
H34 H 0.30767 0.74594 0.20017 0.0
C35 C 0.27314 0.77274 0.21847 0.0
H36 H 0.26461 0.78414 0.21632 0.0
H37 H 0.2591 0.76888 0.24269 0.0
H38 H 0.01522 0.45179 0.03864 0.0
C39 C 0.00422 0.46161 0.03955 0.0
C40 C 0.00304 0.47387 0.05586 0.0
C41 C 0.99129 0.462 0.02458 0.0
H42 H 0.98889 0.49713 0.06941 0.0
C43 C 0.98944 0.48724 0.05702 0.0
C44 C 0.97663 0.48796 0.04221 0.0
C45 C 0.97726 0.47502 0.02628 0.0
C46 C 0.99242 0.44919 0.00708 0.0
H47 H 0.96696 0.47548 0.01505 0.0
C48 C 0.9977 0.43052 0.00638 0.0
C49 C 0.99801 0.41846 0.98981 0.0
C50 C 0.98798 0.45558 0.9908 0.0
H51 H 0.98459 0.47002 0.99062 0.0
C52 C 0.98805 0.44349 0.9744 0.0
H53 H 0.0012 0.42514 0.0186 0.0
C54 C 0.99291 0.42498 0.97388 0.0
H55 H 0.99318 0.41589 0.96099 0.0
H56 H 0.9845 0.44856 0.96203 0.0
H57 H 0.78908 0.77844 0.2402 0.0
C58 C 0.79064 0.77221 0.2264 0.0
C59 C 0.7978 0.78396 0.21414 0.0
C60 C 0.7861 0.75225 0.22104 0.0
H61 H 0.80563 0.78419 0.18682 0.0
C62 C 0.79985 0.77543 0.19634 0.0
C63 C 0.79494 0.75559 0.19072 0.0
C64 C 0.78811 0.74412 0.20317 0.0
C65 C 0.78055 0.73952 0.23421 0.0
H66 H 0.78475 0.72871 0.19905 0.0
C67 C 0.76438 0.74215 0.24481 0.0
C68 C 0.75864 0.7292 0.25653 0.0
C69 C 0.79127 0.72415 0.23574 0.0
H70 H 0.80384 0.72191 0.22781 0.0
C71 C 0.7859 0.71152 0.2475 0.0
H72 H 0.75615 0.75404 0.24366 0.0
C73 C 0.76966 0.7139 0.25773 0.0
H74 H 0.76548 0.70344 0.26627 0.0
H75 H 0.7942 0.69965 0.24851 0.0
H76 H 0.11861 0.93799 0.46196 0.0
C77 C 0.10831 0.94227 0.45246 0.0
C78 C 0.11086 0.96112 0.44887 0.0
C79 C 0.09297 0.92874 0.44337 0.0
H80 H 0.09995 0.98095 0.43327 0.0
C81 C 0.09767 0.96652 0.43639 0.0
C82 C 0.08241 0.95313 0.42701 0.0
C83 C 0.08021 0.9342 0.4305 0.0
C84 C 0.09099 0.90866 0.44666 0.0
H85 H 0.06844 0.92376 0.42335 0.0
C86 C 0.08998 0.90453 0.46422 0.0
C87 C 0.08871 0.88545 0.46731 0.0
C88 C 0.09058 0.89352 0.43222 0.0
H89 H 0.09143 0.89637 0.41861 0.0
C90 C 0.0895 0.8746 0.43525 0.0
H91 H 0.09014 0.91614 0.47542 0.0
C92 C 0.08864 0.87056 0.45267 0.0
H93 H 0.08751 0.85574 0.45468 0.0
H94 H 0.0893 0.86302 0.42405 0.0
H95 H 0.28411 0.70396 0.7593 0.0
C96 C 0.27887 0.70894 0.7723 0.0
C97 C 0.28403 0.70054 0.78717 0.0
C98 C 0.26725 0.72401 0.77398 0.0
H99 H 0.28097 0.70108 0.81547 0.0
C100 C 0.27746 0.70771 0.80399 0.0
C101 C 0.26631 0.72328 0.80611 0.0
C102 C 0.261 0.7311 0.79086 0.0
C103 C 0.26249 0.73281 0.75809 0.0
H104 H 0.25282 0.74331 0.79216 0.0
C105 C 0.24278 0.73444 0.75281 0.0
C106 C 0.23834 0.74141 0.73687 0.0
C107 C 0.27775 0.73883 0.74762 0.0
H108 H 0.29303 0.73783 0.75149 0.0
C109 C 0.27345 0.74618 0.73208 0.0
H110 H 0.23091 0.72953 0.76066 0.0
C111 C 0.25389 0.74735 0.72664 0.0
H112 H 0.25089 0.75298 0.71444 0.0
H113 H 0.2853 0.75081 0.72412 0.0
H114 H 0.97275 0.58451 0.44683 0.0
C115 C 0.96266 0.57322 0.45083 0.0
C116 C 0.95971 0.57327 0.46908 0.0
C117 C 0.95209 0.55902 0.43767 0.0
H118 H 0.944 0.55879 0.48814 0.0
C119 C 0.94637 0.55872 0.47407 0.0
C120 C 0.9356 0.54446 0.46103 0.0
C121 C 0.93855 0.54473 0.44281 0.0
C122 C 0.95409 0.55996 0.41849 0.0
H123 H 0.93005 0.53407 0.43258 0.0
C124 C 0.97209 0.55752 0.41068 0.0
C125 C 0.97391 0.55865 0.3924 0.0
C126 C 0.93792 0.56354 0.40796 0.0
H127 H 0.92395 0.56547 0.41378 0.0
C128 C 0.93974 0.56496 0.38992 0.0
H129 H 0.98457 0.55465 0.41878 0.0
C130 C 0.95761 0.56257 0.38216 0.0
H131 H 0.95855 0.56335 0.36804 0.0
H132 H 0.92723 0.56781 0.38189 0.0
H133 H 0.86703 0.83953 0.8081 0.0
C134 C 0.86394 0.82883 0.81666 0.0
C135 C 0.87058 0.8108 0.81248 0.0
C136 C 0.85428 0.83353 0.8324 0.0
H137 H 0.87197 0.78338 0.82085 0.0
C138 C 0.86689 0.79729 0.82402 0.0
C139 C 0.85686 0.80166 0.83967 0.0
C140 C 0.85077 0.81993 0.8438 0.0
C141 C 0.84876 0.85301 0.83748 0.0
H142 H 0.84299 0.82356 0.85577 0.0
C143 C 0.83582 0.86045 0.82617 0.0
C144 C 0.83053 0.87898 0.83124 0.0
C145 C 0.85646 0.86422 0.85386 0.0
H146 H 0.86646 0.85873 0.86274 0.0
C147 C 0.85152 0.88268 0.8588 0.0
H148 H 0.82977 0.85177 0.81356 0.0
C149 C 0.83865 0.89005 0.8476 0.0
H150 H 0.83468 0.90425 0.85194 0.0
H151 H 0.85756 0.89126 0.87143 0.0
H152 H 0.36417 0.33732 0.31415 0.0
C153 C 0.36126 0.3262 0.32231 0.0
C154 C 0.36889 0.3087 0.31795 0.0
C155 C 0.35075 0.32988 0.33769 0.0
H156 H 0.37126 0.28113 0.32569 0.0
C157 C 0.36542 0.29465 0.32899 0.0
C158 C 0.35461 0.29799 0.34431 0.0
C159 C 0.34746 0.31575 0.34859 0.0
C160 C 0.34396 0.34882 0.34288 0.0
H161 H 0.339 0.31855 0.36027 0.0
C162 C 0.33174 0.35626 0.33093 0.0
C163 C 0.32538 0.37432 0.33599 0.0
C164 C 0.34983 0.35959 0.35991 0.0
H165 H 0.35927 0.35414 0.36929 0.0
C166 C 0.34379 0.3776 0.36489 0.0
H167 H 0.32709 0.34793 0.3178 0.0
C168 C 0.33167 0.38496 0.35303 0.0
H169 H 0.32684 0.39881 0.35736 0.0
H170 H 0.34843 0.38585 0.37802 0.0
H171 H 0.52962 0.95704 0.54067 0.0
C172 C 0.51881 0.96691 0.53997 0.0
C173 C 0.51434 0.97846 0.55571 0.0
C174 C 0.50975 0.96839 0.52331 0.0
H175 H 0.49776 0.00092 0.56683 0.0
C176 C 0.50065 0.99157 0.55474 0.0
C177 C 0.49165 0.99342 0.53811 0.0
C178 C 0.49606 0.9815 0.52254 0.0
C179 C 0.5152 0.95704 0.50651 0.0
H180 H 0.48881 0.98239 0.5097 0.0
C181 C 0.51613 0.93719 0.50507 0.0
C182 C 0.52066 0.92649 0.48882 0.0
C183 C 0.5193 0.96614 0.49167 0.0
H184 H 0.51896 0.98143 0.4925 0.0
C185 C 0.5241 0.95566 0.47567 0.0
H186 H 0.5127 0.93 0.51636 0.0
C187 C 0.52475 0.93599 0.4742 0.0
H188 H 0.52863 0.9282 0.46164 0.0
H189 H 0.52734 0.96282 0.46434 0.0
H190 H 0.29677 0.27923 0.74128 0.0
C191 C 0.29615 0.27241 0.72736 0.0
C192 C 0.30273 0.28315 0.71417 0.0
C193 C 0.29008 0.25256 0.72277 0.0
H194 H 0.30687 0.28221 0.68598 0.0
C195 C 0.30233 0.27392 0.69628 0.0
C196 C 0.29628 0.25414 0.6915 0.0
C197 C 0.29015 0.24356 0.70485 0.0
C198 C 0.28547 0.24068 0.73676 0.0
H199 H 0.28597 0.22816 0.70144 0.0
C200 C 0.26907 0.24297 0.74712 0.0
C201 C 0.26411 0.23058 0.75954 0.0
C202 C 0.29718 0.22627 0.73916 0.0
H203 H 0.30985 0.22429 0.7313 0.0
C204 C 0.29261 0.21425 0.75163 0.0
H205 H 0.26007 0.25413 0.74524 0.0
C206 C 0.27616 0.21626 0.76166 0.0
H207 H 0.27262 0.20623 0.77076 0.0
H208 H 0.30168 0.20311 0.75333 0.0
H209 H 0.83873 0.24287 0.74282 0.0
C210 C 0.82794 0.23013 0.73964 0.0
C211 C 0.83223 0.21268 0.74444 0.0
C212 C 0.80957 0.23143 0.73106 0.0
H213 H 0.82045 0.18336 0.74518 0.0
C214 C 0.81772 0.19652 0.74057 0.0
C215 C 0.79918 0.19758 0.73204 0.0
C216 C 0.7954 0.21508 0.72702 0.0
C217 C 0.80407 0.25042 0.72879 0.0
H218 H 0.78112 0.21628 0.7207 0.0
C219 C 0.80046 0.25525 0.71168 0.0
C220 C 0.7946 0.27331 0.70993 0.0
C221 C 0.8018 0.26363 0.74415 0.0
H222 H 0.80442 0.26012 0.75741 0.0
C223 C 0.79562 0.28126 0.74256 0.0
H224 H 0.80266 0.24511 0.6999 0.0
C225 C 0.79191 0.28604 0.72566 0.0
H226 H 0.78674 0.29971 0.72499 0.0
H227 H 0.79356 0.29123 0.7545 0.0
H228 H 0.59892 0.53155 0.54286 0.0
C229 C 0.58884 0.52916 0.55315 0.0
C230 C 0.58763 0.51194 0.56028 0.0
C231 C 0.57784 0.54383 0.55987 0.0
H232 H 0.57369 0.49639 0.5797 0.0
C233 C 0.57461 0.50942 0.57391 0.0
C234 C 0.56316 0.52385 0.58052 0.0
C235 C 0.56498 0.54102 0.57342 0.0
C236 C 0.58215 0.56319 0.55498 0.0
H237 H 0.557 0.55262 0.57896 0.0
C238 C 0.57777 0.56683 0.53751 0.0
C239 C 0.58264 0.58545 0.53341 0.0
C240 C 0.59123 0.57823 0.5682 0.0
H241 H 0.59475 0.57572 0.58168 0.0
C242 C 0.59614 0.59656 0.56414 0.0
H243 H 0.57068 0.55532 0.52724 0.0
C244 C 0.59195 0.60016 0.54688 0.0
H245 H 0.59571 0.6146 0.54412 0.0
H246 H 0.60321 0.60804 0.57442 0.0
H247 H 0.61855 0.44675 0.9652 0.0
C248 C 0.60766 0.45066 0.95601 0.0
C249 C 0.61024 0.46895 0.9511 0.0
C250 C 0.59148 0.43718 0.94858 0.0
H251 H 0.59901 0.48764 0.93456 0.0
C252 C 0.59642 0.47377 0.93882 0.0
C253 C 0.58011 0.46048 0.9312 0.0
C254 C 0.57776 0.44216 0.93624 0.0
C255 C 0.58974 0.41742 0.95268 0.0
H256 H 0.56523 0.43171 0.93065 0.0
C257 C 0.58952 0.41403 0.97051 0.0
C258 C 0.58852 0.39518 0.97422 0.0
C259 C 0.58884 0.40181 0.93861 0.0
H260 H 0.58908 0.40411 0.9248 0.0
C261 C 0.58805 0.38314 0.94226 0.0
H262 H 0.59006 0.426 0.98143 0.0
C263 C 0.58796 0.37981 0.95994 0.0
H264 H 0.58702 0.36517 0.96244 0.0
H265 H 0.58747 0.3712 0.93135 0.0
H266 H 0.78517 0.20149 0.259 0.0
C267 C 0.78185 0.20883 0.27197 0.0
C268 C 0.78905 0.20305 0.28766 0.0
C269 C 0.77025 0.2239 0.27274 0.0
H270 H 0.78972 0.2081 0.31653 0.0
C271 C 0.78419 0.21247 0.30436 0.0
C272 C 0.77261 0.2277 0.30549 0.0
C273 C 0.76553 0.23316 0.2895 0.0
C274 C 0.76411 0.23047 0.2559 0.0
H275 H 0.75711 0.24518 0.29006 0.0
C276 C 0.74428 0.23286 0.25185 0.0
C277 C 0.73858 0.23778 0.2352 0.0
C278 C 0.77824 0.23374 0.24343 0.0
H279 H 0.79361 0.23222 0.24631 0.0
C280 C 0.77271 0.23902 0.22713 0.0
H281 H 0.73323 0.23014 0.26127 0.0
C282 C 0.75301 0.24092 0.22297 0.0
H283 H 0.74906 0.24497 0.21019 0.0
H284 H 0.78371 0.24153 0.21764 0.0
H285 H 0.47134 0.09334 0.95547 0.0
C286 C 0.46134 0.08118 0.95804 0.0
C287 C 0.45503 0.08071 0.97538 0.0
C288 C 0.45359 0.06675 0.94373 0.0
H289 H 0.43656 0.06485 0.99177 0.0
C290 C 0.44135 0.06533 0.97837 0.0
C291 C 0.43384 0.05056 0.96423 0.0
C292 C 0.44 0.0514 0.94689 0.0
C293 C 0.45766 0.06905 0.92517 0.0
H294 H 0.43373 0.04046 0.93574 0.0
C295 C 0.47604 0.06605 0.91837 0.0
C296 C 0.47975 0.06884 0.90074 0.0
C297 C 0.44299 0.07475 0.91432 0.0
H298 H 0.42877 0.07713 0.91939 0.0
C299 C 0.44666 0.07767 0.89692 0.0
H300 H 0.48737 0.06161 0.92674 0.0
C301 C 0.46491 0.07479 0.89016 0.0
H302 H 0.46729 0.07682 0.8765 0.0
H303 H 0.4353 0.08212 0.88863 0.0
Zn304 Zn 0.30322 0.84768 0.00772 0.0
Zn305 Zn 0.27037 0.8638 0.01139 0.0
O306 O 0.27454 0.8527 0.0352 0.0
O307 O 0.30156 0.83887 0.03143 0.0
O308 O 0.24575 0.87741 0.01528 0.0
O309 O 0.3192 0.87247 0.00489 0.0
O310 O 0.29181 0.88581 0.00722 0.0
C311 C 0.2874 0.84301 0.04086 0.0
C312 C 0.27321 0.8309 0.97999 0.0
O313 O 0.26305 0.8431 0.98821 0.0
O314 O 0.29071 0.83012 0.98588 0.0
C315 C 0.24764 0.89455 0.02382 0.0
O316 O 0.26538 0.90292 0.0301 0.0
C317 C 0.31028 0.88704 0.00485 0.0
Zn318 Zn 0.12372 0.45333 0.25263 0.0
Zn319 Zn 0.14591 0.48641 0.24871 0.0
O320 O 0.12884 0.4953 0.26935 0.0
O321 O 0.11229 0.46817 0.27403 0.0
O322 O 0.16272 0.51064 0.24516 0.0
O323 O 0.14885 0.4414 0.25625 0.0
O324 O 0.16643 0.46906 0.25471 0.0
C325 C 0.11647 0.48624 0.27812 0.0
C326 C 0.1164 0.46455 0.2182 0.0
O327 O 0.13013 0.47809 0.2244 0.0
O328 O 0.11056 0.4521 0.22771 0.0
C329 C 0.17574 0.51958 0.25711 0.0
O330 O 0.1781 0.51295 0.27221 0.0
C331 C 0.16551 0.45164 0.25704 0.0
Zn332 Zn 0.82473 0.61258 0.95035 0.0
Zn333 Zn 0.81704 0.63503 0.98061 0.0
O334 O 0.84099 0.62252 0.98826 0.0
O335 O 0.84952 0.60666 0.96299 0.0
O336 O 0.81161 0.65146 0.00358 0.0
O337 O 0.82572 0.63545 0.93749 0.0
O338 O 0.82173 0.65412 0.96284 0.0
C339 C 0.85251 0.61206 0.97978 0.0
C340 C 0.78701 0.60066 0.96358 0.0
O341 O 0.79175 0.6158 0.97516 0.0
O342 O 0.79873 0.59582 0.95169 0.0
C343 C 0.82469 0.66449 0.01195 0.0
O344 O 0.84189 0.66763 0.00513 0.0
C345 C 0.82451 0.65199 0.94613 0.0
Zn346 Zn 0.90793 0.00935 0.29491 0.0
Zn347 Zn 0.92528 0.01136 0.26519 0.0
O348 O 0.91057 0.03593 0.26916 0.0
O349 O 0.89402 0.03196 0.29282 0.0
O350 O 0.94039 0.0139 0.2428 0.0
O351 O 0.93342 0.01284 0.30979 0.0
O352 O 0.94793 0.00972 0.28432 0.0
C353 C 0.89833 0.04155 0.28052 0.0
C354 C 0.89608 0.97594 0.26847 0.0
O355 O 0.9064 0.98563 0.25856 0.0
O356 O 0.89499 0.98269 0.28485 0.0
C357 C 0.94539 0.99938 0.23274 0.0
O358 O 0.94026 0.9822 0.23664 0.0
C359 C 0.94885 0.01123 0.30139 0.0
Zn360 Zn 0.32383 0.10613 0.45252 0.0
Zn361 Zn 0.31584 0.12879 0.48265 0.0
O362 O 0.34022 0.11707 0.49061 0.0
O363 O 0.34856 0.10059 0.46557 0.0
O364 O 0.30974 0.14517 0.5054 0.0
O365 O 0.32479 0.12902 0.4396 0.0
O366 O 0.32033 0.14774 0.46479 0.0
C367 C 0.35175 0.10651 0.48227 0.0
C368 C 0.28618 0.09403 0.46559 0.0
O369 O 0.29086 0.1092 0.47714 0.0
O370 O 0.29792 0.08919 0.45372 0.0
C371 C 0.32227 0.15877 0.51365 0.0
O372 O 0.33941 0.16252 0.50689 0.0
C373 C 0.32331 0.14556 0.44812 0.0
Zn374 Zn 0.40052 0.51103 0.78991 0.0
Zn375 Zn 0.42405 0.51218 0.76364 0.0
O376 O 0.41128 0.53777 0.76544 0.0
O377 O 0.39506 0.53795 0.78993 0.0
O378 O 0.44242 0.51311 0.74317 0.0
O379 O 0.42221 0.50563 0.80623 0.0
O380 O 0.44303 0.50947 0.78536 0.0
C381 C 0.40082 0.54609 0.77708 0.0
C382 C 0.38856 0.48029 0.76127 0.0
O383 O 0.40447 0.48727 0.75514 0.0
O384 O 0.38271 0.4887 0.77569 0.0
C385 C 0.4367 0.517 0.72805 0.0
O386 O 0.41845 0.52069 0.72564 0.0
C387 C 0.4396 0.50616 0.80111 0.0
Zn388 Zn 0.80008 0.35065 0.51304 0.0
Zn389 Zn 0.76705 0.36629 0.51331 0.0
O390 O 0.76725 0.35356 0.53655 0.0
O391 O 0.79369 0.33856 0.53448 0.0
O392 O 0.74333 0.38124 0.51518 0.0
O393 O 0.8173 0.37603 0.5152 0.0
O394 O 0.78957 0.38843 0.51242 0.0
C395 C 0.77856 0.3426 0.54254 0.0
C396 C 0.77428 0.33633 0.48115 0.0
O397 O 0.76245 0.34706 0.48899 0.0
O398 O 0.79116 0.33588 0.48866 0.0
C399 C 0.72615 0.3753 0.5195 0.0
O400 O 0.72236 0.35758 0.52249 0.0
C401 C 0.80844 0.39036 0.51363 0.0
Zn402 Zn 0.62571 0.96281 0.75911 0.0
Zn403 Zn 0.64838 0.99548 0.75476 0.0
O404 O 0.63237 0.00479 0.77613 0.0
O405 O 0.61549 0.9779 0.78101 0.0
O406 O 0.66605 0.01913 0.75084 0.0
O407 O 0.65042 0.94998 0.76178 0.0
O408 O 0.66844 0.97732 0.7599 0.0
C409 C 0.62018 0.9959 0.78519 0.0
C410 C 0.61747 0.97442 0.72503 0.0
O411 O 0.63164 0.98765 0.73087 0.0
O412 O 0.61173 0.96203 0.73463 0.0
C413 C 0.65942 0.03482 0.74951 0.0
O414 O 0.64049 0.03589 0.75108 0.0
C415 C 0.66723 0.95983 0.76208 0.0
Zn416 Zn 0.05103 0.24576 0.86 0.0
Zn417 Zn 0.04976 0.21446 0.87266 0.0
O418 O 0.07533 0.21593 0.85823 0.0
O419 O 0.07217 0.23986 0.84361 0.0
O420 O 0.05214 0.19134 0.88503 0.0
O421 O 0.05805 0.26235 0.88396 0.0
O422 O 0.04915 0.2359 0.89473 0.0
C423 C 0.08138 0.22624 0.84671 0.0
C424 C 0.01405 0.22157 0.85032 0.0
O425 O 0.023 0.2092 0.85688 0.0
O426 O 0.02253 0.23855 0.85116 0.0
C427 C 0.03831 0.18287 0.89274 0.0
O428 O 0.02057 0.18818 0.89173 0.0
C429 C 0.05406 0.25403 0.89715 0.0
Zn430 Zn 0.54526 0.74838 0.35686 0.0
Zn431 Zn 0.54528 0.71763 0.37077 0.0
O432 O 0.57051 0.7188 0.35603 0.0
O433 O 0.56706 0.74247 0.34114 0.0
O434 O 0.54781 0.69473 0.38345 0.0
O435 O 0.55133 0.76564 0.38045 0.0
O436 O 0.54576 0.73963 0.39264 0.0
C437 C 0.57645 0.72902 0.3444 0.0
C438 C 0.50903 0.72345 0.34776 0.0
O439 O 0.51826 0.71182 0.35517 0.0
O440 O 0.5171 0.7404 0.34772 0.0
C441 C 0.53422 0.68704 0.39196 0.0
O442 O 0.51682 0.69315 0.39172 0.0
C443 C 0.54925 0.75787 0.39426 0.0
Zn444 Zn 0.98487 0.77674 0.61708 0.0
Zn445 Zn 0.01683 0.7684 0.63504 0.0
O446 O 0.02769 0.79058 0.62196 0.0
O447 O 0.00124 0.799 0.60909 0.0
O448 O 0.04061 0.7631 0.64974 0.0
O449 O 0.9706 0.78073 0.63979 0.0
O450 O 0.99701 0.77444 0.65444 0.0
C451 C 0.01981 0.80132 0.61246 0.0
C452 C 0.99518 0.73861 0.60465 0.0
O453 O 0.00872 0.74324 0.61734 0.0
O454 O 0.98329 0.75036 0.60184 0.0
C455 C 0.05833 0.76697 0.6456 0.0
O456 O 0.06158 0.77444 0.63105 0.0
C457 C 0.97946 0.77891 0.65439 0.0
Zn458 Zn 0.48574 0.28623 0.12428 0.0
Zn459 Zn 0.51804 0.27715 0.14102 0.0
O460 O 0.5291 0.2996 0.12844 0.0
O461 O 0.50255 0.30777 0.11549 0.0
O462 O 0.54178 0.271 0.15512 0.0
O463 O 0.47253 0.29111 0.14739 0.0
O464 O 0.49865 0.28295 0.16097 0.0
C465 C 0.52112 0.3102 0.11885 0.0
C466 C 0.49455 0.24779 0.11128 0.0
O467 O 0.5093 0.2525 0.12278 0.0
O468 O 0.48223 0.25946 0.10962 0.0
C469 C 0.55929 0.27321 0.15005 0.0
O470 O 0.56232 0.27953 0.13489 0.0
C471 C 0.48147 0.28827 0.16157 0.0
H472 H 0.23262 0.73922 0.81579 0.0
H473 H 0.22601 0.75591 0.84535 0.0
H474 H 0.28154 0.74365 0.8674 0.0
H475 H 0.28875 0.72778 0.83794 0.0
H476 H 0.24902 0.73689 0.88894 0.0
H477 H 0.2793 0.78593 0.85659 0.0
H478 H 0.28054 0.804 0.83133 0.0
H479 H 0.22379 0.82144 0.84274 0.0
H480 H 0.2221 0.80324 0.86793 0.0
H481 H 0.28924 0.80016 0.96379 0.0
H482 H 0.27951 0.78039 0.93493 0.0
H483 H 0.22992 0.81157 0.92861 0.0
H484 H 0.24 0.83207 0.95782 0.0
H485 H 0.24941 0.80755 0.89861 0.0
H486 H 0.22215 0.76434 0.93482 0.0
H487 H 0.22029 0.74635 0.9601 0.0
H488 H 0.26896 0.71738 0.94164 0.0
H489 H 0.27133 0.73539 0.9164 0.0
C490 C 0.24351 0.74014 0.82688 0.0
C491 C 0.26128 0.73211 0.82434 0.0
C492 C 0.23962 0.74959 0.8438 0.0
C493 C 0.2533 0.75102 0.85855 0.0
C494 C 0.27071 0.74257 0.85621 0.0
C495 C 0.27474 0.73337 0.83932 0.0
C496 C 0.25013 0.76199 0.87635 0.0
C497 C 0.24908 0.75233 0.89111 0.0
C498 C 0.24935 0.78202 0.87902 0.0
C499 C 0.25045 0.79303 0.86397 0.0
C500 C 0.26701 0.79348 0.85361 0.0
C501 C 0.26781 0.80377 0.83933 0.0
C502 C 0.25222 0.81381 0.83539 0.0
C503 C 0.23583 0.81363 0.84577 0.0
C504 C 0.23494 0.80333 0.86005 0.0
C505 C 0.27611 0.80281 0.95645 0.0
C506 C 0.26543 0.8178 0.96317 0.0
C507 C 0.27045 0.7913 0.93992 0.0
C508 C 0.25378 0.79422 0.92964 0.0
C509 C 0.24277 0.80895 0.93636 0.0
C510 C 0.24848 0.8206 0.95308 0.0
C511 C 0.24912 0.78256 0.91143 0.0
C512 C 0.24873 0.79204 0.89652 0.0
C513 C 0.24834 0.7623 0.9086 0.0
C514 C 0.24694 0.75128 0.92371 0.0
C515 C 0.23253 0.75421 0.9362 0.0
C516 C 0.23138 0.744 0.95052 0.0
C517 C 0.2445 0.73074 0.95248 0.0
C518 C 0.25879 0.72764 0.9401 0.0
C519 C 0.26002 0.73782 0.92575 0.0
H520 H 0.24359 0.72285 0.96359 0.0
H521 H 0.25287 0.82177 0.82433 0.0
H522 H 0.99498 0.52879 0.39441 0.0
H523 H 0.02323 0.52065 0.37746 0.0
H524 H 0.02285 0.57198 0.35384 0.0
H525 H 0.99415 0.57981 0.37038 0.0
H526 H 0.02555 0.54393 0.3289 0.0
H527 H 0.0606 0.56603 0.38554 0.0
H528 H 0.06807 0.56885 0.41812 0.0
H529 H 0.07553 0.50915 0.4115 0.0
H530 H 0.06781 0.5059 0.3789 0.0
H531 H 0.11272 0.5246 0.28443 0.0
H532 H 0.09251 0.541 0.30637 0.0
H533 H 0.07661 0.48807 0.32622 0.0
H534 H 0.09654 0.47156 0.3043 0.0
H535 H 0.08526 0.52111 0.3537 0.0
H536 H 0.04598 0.49956 0.29708 0.0
H537 H 0.03924 0.49789 0.26452 0.0
H538 H 0.04125 0.55919 0.27181 0.0
H539 H 0.04828 0.56123 0.30441 0.0
C540 C 0.00117 0.5385 0.38585 0.0
C541 C 0.99239 0.55492 0.3837 0.0
C542 C 0.01737 0.53388 0.37619 0.0
C543 C 0.0254 0.5458 0.36448 0.0
C544 C 0.01696 0.56253 0.36275 0.0
C545 C 1.00058 0.567 0.37221 0.0
C546 C 0.04155 0.54004 0.35307 0.0
C547 C 0.03879 0.53937 0.33444 0.0
C548 C 0.05879 0.53382 0.36015 0.0
C549 C 0.06348 0.5357 0.37977 0.0
C550 C 0.06368 0.55347 0.39104 0.0
C551 C 0.06799 0.55515 0.40951 0.0
C552 C 0.07224 0.53918 0.41688 0.0
C553 C 0.07223 0.52151 0.40578 0.0
C554 C 0.06791 0.51974 0.38729 0.0
C555 C 0.10514 0.51653 0.29364 0.0
C556 C 0.1061 0.49674 0.29253 0.0
C557 C 0.09359 0.52591 0.30613 0.0
C558 C 0.083 0.5157 0.31783 0.0
C559 C 0.0847 0.4962 0.31733 0.0
C560 C 0.09601 0.48677 0.30472 0.0
C561 C 0.06899 0.52486 0.32973 0.0
C562 C 0.07214 0.52606 0.34835 0.0
C563 C 0.05224 0.53182 0.3227 0.0
C564 C 0.04789 0.53057 0.30314 0.0
C565 C 0.04515 0.5127 0.29172 0.0
C566 C 0.04125 0.51168 0.27326 0.0
C567 C 0.03988 0.52843 0.26609 0.0
C568 C 0.04236 0.54623 0.27737 0.0
C569 C 0.04629 0.54733 0.29584 0.0
H570 H 0.03685 0.52762 0.2518 0.0
H571 H 0.07557 0.54051 0.43119 0.0
H572 H 0.85938 0.80759 0.8765 0.0
H573 H 0.85223 0.78389 0.89618 0.0
H574 H 0.83883 0.73928 0.84995 0.0
H575 H 0.84504 0.76303 0.83018 0.0
H576 H 0.81231 0.73506 0.87385 0.0
H577 H 0.88343 0.7459 0.8755 0.0
H578 H 0.91628 0.76533 0.88012 0.0
H579 H 0.90567 0.78465 0.93511 0.0
H580 H 0.87263 0.76552 0.93074 0.0
H581 H 0.82389 0.65144 0.91001 0.0
H582 H 0.82767 0.67869 0.89405 0.0
H583 H 0.83332 0.7177 0.94438 0.0
H584 H 0.82947 0.69035 0.96059 0.0
H585 H 0.86225 0.72682 0.9209 0.0
H586 H 0.79187 0.71326 0.91942 0.0
H587 H 0.75951 0.69298 0.91436 0.0
H588 H 0.76921 0.67794 0.85853 0.0
H589 H 0.80177 0.69791 0.86329 0.0
C590 C 0.8547 0.79277 0.8705 0.0
C591 C 0.85283 0.78722 0.85173 0.0
C592 C 0.85082 0.7792 0.88179 0.0
C593 C 0.84522 0.75975 0.87456 0.0
C594 C 0.84318 0.75419 0.85585 0.0
C595 C 0.84695 0.76777 0.84455 0.0
C596 C 0.84148 0.74514 0.88644 0.0
C597 C 0.82331 0.73315 0.88402 0.0
C598 C 0.8556 0.74298 0.90007 0.0
C599 C 0.87548 0.75445 0.90273 0.0
C600 C 0.88804 0.75441 0.88854 0.0
C601 C 0.90671 0.76535 0.89112 0.0
C602 C 0.91304 0.77627 0.90788 0.0
C603 C 0.90073 0.77622 0.92212 0.0
C604 C 0.88204 0.76532 0.9196 0.0
C605 C 0.82588 0.66579 0.91774 0.0
C606 C 0.82637 0.66871 0.9366 0.0
C607 C 0.82795 0.68136 0.90857 0.0
C608 C 0.83061 0.70021 0.91802 0.0
C609 C 0.83122 0.70325 0.93685 0.0
C610 C 0.82896 0.68762 0.94607 0.0
C611 C 0.83324 0.71659 0.90807 0.0
C612 C 0.85119 0.72889 0.91085 0.0
C613 C 0.81897 0.71896 0.89469 0.0
C614 C 0.79935 0.70697 0.89175 0.0
C615 C 0.78718 0.70551 0.90609 0.0
C616 C 0.76878 0.69409 0.90327 0.0
C617 C 0.76232 0.68415 0.88615 0.0
C618 C 0.77424 0.68564 0.87179 0.0
C619 C 0.79266 0.69702 0.87454 0.0
H620 H 0.74807 0.67532 0.88399 0.0
H621 H 0.92749 0.78472 0.90986 0.0
H622 H 0.06388 0.98522 0.42986 0.0
H623 H 0.04339 0.99555 0.40671 0.0
H624 H 0.05121 0.94479 0.36964 0.0
H625 H 0.07182 0.93436 0.39281 0.0
H626 H 0.05623 0.9798 0.35483 0.0
H627 H 0.00949 0.94486 0.38722 0.0
H628 H 0.99411 0.93672 0.41432 0.0
H629 H 0.97935 0.99403 0.42724 0.0
H630 H 0.99491 0.00261 0.40034 0.0
H631 H 0.97673 0.98783 0.29127 0.0
H632 H 0.00216 0.9788 0.31113 0.0
H633 H 0.98746 0.02074 0.35455 0.0
H634 H 0.96155 0.02908 0.33501 0.0
H635 H 0.98648 0.98848 0.36529 0.0
H636 H 0.03319 0.02419 0.33364 0.0
H637 H 0.04915 0.03327 0.30713 0.0
H638 H 0.06459 0.97632 0.29327 0.0
H639 H 0.04848 0.96681 0.31958 0.0
C640 C 0.06125 0.97627 0.41677 0.0
C641 C 0.06935 0.95894 0.41315 0.0
C642 C 0.04953 0.98217 0.40358 0.0
C643 C 0.04578 0.97091 0.38649 0.0
C644 C 0.05398 0.95368 0.38275 0.0
C645 C 0.06555 0.94766 0.39602 0.0
C646 C 0.03287 0.97702 0.37274 0.0
C647 C 0.04089 0.98149 0.35694 0.0
C648 C 0.01303 0.97958 0.37574 0.0
C649 C 0.00353 0.97442 0.39185 0.0
C650 C 0.00311 0.95577 0.39592 0.0
C651 C 0.99433 0.95107 0.41123 0.0
C652 C 0.9858 0.96486 0.42252 0.0
C653 C 0.98598 0.98337 0.41849 0.0
C654 C 0.99476 0.98815 0.40321 0.0
C655 C 0.97936 0.99547 0.30491 0.0
C656 C 0.96716 0.00909 0.31165 0.0
C657 C 0.9939 0.99031 0.31628 0.0
C658 C 0.99673 0.99903 0.33442 0.0
C659 C 0.98545 0.01364 0.3407 0.0
C660 C 0.97073 0.0185 0.32949 0.0
C661 C 0.00986 0.99178 0.34737 0.0
C662 C 0.00182 0.98691 0.36306 0.0
C663 C 0.02971 0.98905 0.34429 0.0
C664 C 0.03944 0.99474 0.32848 0.0
C665 C 0.03984 0.01356 0.32486 0.0
C666 C 0.04895 0.01879 0.30988 0.0
C667 C 0.05783 0.00536 0.29849 0.0
C668 C 0.05768 0.98669 0.30209 0.0
C669 C 0.04858 0.98138 0.31704 0.0
H670 H 0.06486 0.00944 0.2869 0.0
H671 H 0.97901 0.96119 0.43436 0.0
H672 H 0.32616 0.2597 0.66943 0.0
H673 H 0.32818 0.244 0.6386 0.0
H674 H 0.27128 0.21075 0.64031 0.0
H675 H 0.26914 0.2265 0.6713 0.0
H676 H 0.29746 0.18871 0.6255 0.0
H677 H 0.27589 0.2483 0.61735 0.0
H678 H 0.2766 0.28347 0.62218 0.0
H679 H 0.33423 0.28967 0.60176 0.0
H680 H 0.334 0.25454 0.59704 0.0
H681 H 0.28887 0.1536 0.53184 0.0
H682 H 0.2825 0.17031 0.56137 0.0
H683 H 0.33949 0.20478 0.56469 0.0
H684 H 0.34593 0.18828 0.53506 0.0
H685 H 0.31078 0.22618 0.5764 0.0
H686 H 0.33297 0.16672 0.58636 0.0
H687 H 0.33229 0.13156 0.58171 0.0
H688 H 0.2731 0.12522 0.59879 0.0
H689 H 0.27334 0.16036 0.60331 0.0
C690 C 0.31395 0.24922 0.66319 0.0
C691 C 0.29739 0.24447 0.67275 0.0
C692 C 0.31514 0.24024 0.64556 0.0
C693 C 0.29974 0.22642 0.63705 0.0
C694 C 0.2833 0.22143 0.64661 0.0
C695 C 0.28212 0.23039 0.6643 0.0
C696 C 0.30112 0.21695 0.61829 0.0
C697 C 0.30001 0.19688 0.6147 0.0
C698 C 0.30484 0.22764 0.60427 0.0
C699 C 0.30499 0.24878 0.60698 0.0
C700 C 0.28878 0.25717 0.61401 0.0
C701 C 0.28909 0.2771 0.61671 0.0
C702 C 0.30547 0.2888 0.61232 0.0
C703 C 0.32156 0.28059 0.60517 0.0
C704 C 0.32134 0.26067 0.60246 0.0
C705 C 0.30003 0.1648 0.5388 0.0
C706 C 0.31798 0.16953 0.53113 0.0
C707 C 0.29638 0.17429 0.5557 0.0
C708 C 0.31063 0.18861 0.56532 0.0
C709 C 0.32831 0.19374 0.5575 0.0
C710 C 0.33199 0.18425 0.54059 0.0
C711 C 0.30731 0.19798 0.58368 0.0
C712 C 0.30806 0.21802 0.58719 0.0
C713 C 0.30322 0.18727 0.59762 0.0
C714 C 0.30309 0.16615 0.59499 0.0
C715 C 0.31975 0.15782 0.58899 0.0
C716 C 0.31946 0.13789 0.5864 0.0
C717 C 0.30264 0.12616 0.5899 0.0
C718 C 0.28611 0.13432 0.59605 0.0
C719 C 0.28631 0.15424 0.59864 0.0
H720 H 0.30244 0.11073 0.58789 0.0
H721 H 0.30568 0.30423 0.61442 0.0
H722 H 0.57137 0.50996 0.61153 0.0
H723 H 0.55059 0.50809 0.63683 0.0
H724 H 0.50472 0.53092 0.60887 0.0
H725 H 0.52554 0.53304 0.58366 0.0
H726 H 0.50941 0.54834 0.64221 0.0
H727 H 0.5019 0.48228 0.61363 0.0
H728 H 0.51344 0.45176 0.60098 0.0
H729 H 0.54169 0.44872 0.6522 0.0
H730 H 0.53054 0.47936 0.6651 0.0
H731 H 0.42952 0.52681 0.69505 0.0
H732 H 0.45167 0.52736 0.67069 0.0
H733 H 0.49686 0.50851 0.70294 0.0
H734 H 0.47467 0.5078 0.72743 0.0
H735 H 0.49369 0.48918 0.6685 0.0
H736 H 0.50037 0.55482 0.69718 0.0
H737 H 0.48877 0.58531 0.70979 0.0
H738 H 0.46192 0.58906 0.65819 0.0
H739 H 0.47313 0.55844 0.64532 0.0
C740 C 0.55674 0.51433 0.61066 0.0
C741 C 0.5501 0.5216 0.59553 0.0
C742 C 0.54485 0.51326 0.62517 0.0
C743 C 0.52594 0.51919 0.62476 0.0
C744 C 0.51924 0.5263 0.60958 0.0
C745 C 0.53117 0.52751 0.59516 0.0
C746 C 0.5133 0.51852 0.6403 0.0
C747 C 0.50577 0.53531 0.64777 0.0
C748 C 0.50895 0.5017 0.64799 0.0
C749 C 0.51555 0.48321 0.64029 0.0
C750 C 0.5107 0.47517 0.62217 0.0
C751 C 0.51714 0.45784 0.61495 0.0
C752 C 0.52834 0.44833 0.62577 0.0
C753 C 0.53305 0.45611 0.64383 0.0
C754 C 0.52665 0.47345 0.65111 0.0
C755 C 0.44417 0.52279 0.69702 0.0
C756 C 0.45031 0.51733 0.71328 0.0
C757 C 0.45687 0.52318 0.68307 0.0
C758 C 0.47605 0.51818 0.68501 0.0
C759 C 0.48216 0.51247 0.70112 0.0
C760 C 0.46946 0.51214 0.71514 0.0
C761 C 0.48963 0.51893 0.6702 0.0
C762 C 0.49736 0.50219 0.66292 0.0
C763 C 0.49415 0.53578 0.66264 0.0
C764 C 0.48744 0.55424 0.67033 0.0
C765 C 0.49186 0.56207 0.68855 0.0
C766 C 0.48538 0.57939 0.69574 0.0
C767 C 0.47458 0.5891 0.68481 0.0
C768 C 0.47027 0.58152 0.66665 0.0
C769 C 0.47671 0.56419 0.6594 0.0
H770 H 0.46957 0.60251 0.6904 0.0
H771 H 0.53332 0.43492 0.62016 0.0
H772 H 0.80207 0.3094 0.70111 0.0
H773 H 0.79529 0.31942 0.67237 0.0
H774 H 0.77466 0.26086 0.64861 0.0
H775 H 0.78009 0.25065 0.6777 0.0
H776 H 0.80791 0.28817 0.6315 0.0
H777 H 0.74083 0.27992 0.65101 0.0
H778 H 0.71587 0.28535 0.67313 0.0
H779 H 0.72868 0.34623 0.67497 0.0
H780 H 0.75396 0.34116 0.65306 0.0
H781 H 0.77982 0.30584 0.54677 0.0
H782 H 0.77881 0.29266 0.57462 0.0
H783 H 0.76914 0.3478 0.60343 0.0
H784 H 0.76897 0.36071 0.57513 0.0
H785 H 0.75039 0.32149 0.61845 0.0
H786 H 0.81646 0.33237 0.60122 0.0
H787 H 0.844 0.33031 0.58137 0.0
H788 H 0.83685 0.26902 0.57782 0.0
H789 H 0.80908 0.27069 0.59747 0.0
C790 C 0.79567 0.29859 0.68997 0.0
C791 C 0.79139 0.27917 0.69197 0.0
C792 C 0.79198 0.30439 0.67347 0.0
C793 C 0.78432 0.29091 0.65847 0.0
C794 C 0.7805 0.27147 0.66012 0.0
C795 C 0.7838 0.26566 0.67675 0.0
C796 C 0.78085 0.29727 0.641 0.0
C797 C 0.79514 0.2951 0.62843 0.0
C798 C 0.76469 0.30711 0.63748 0.0
C799 C 0.74944 0.31017 0.65056 0.0
C800 C 0.73848 0.29447 0.65628 0.0
C801 C 0.72424 0.29748 0.66874 0.0
C802 C 0.72074 0.31613 0.67549 0.0
C803 C 0.73143 0.3318 0.66975 0.0
C804 C 0.74571 0.32886 0.6573 0.0
C805 C 0.77705 0.31502 0.559 0.0
C806 C 0.77457 0.33429 0.55888 0.0
C807 C 0.77666 0.30754 0.57496 0.0
C808 C 0.77458 0.31937 0.5913 0.0
C809 C 0.77094 0.33839 0.59104 0.0
C810 C 0.7708 0.34577 0.5749 0.0
C811 C 0.7773 0.31211 0.60858 0.0
C812 C 0.76304 0.31432 0.62129 0.0
C813 C 0.79383 0.30272 0.61246 0.0
C814 C 0.81056 0.30165 0.60067 0.0
C815 C 0.82067 0.31844 0.59611 0.0
C816 C 0.83633 0.31735 0.5849 0.0
C817 C 0.84214 0.29954 0.57829 0.0
C818 C 0.83232 0.2828 0.58292 0.0
C819 C 0.81662 0.28381 0.5941 0.0
H820 H 0.85427 0.29872 0.56962 0.0
H821 H 0.7097 0.31843 0.68514 0.0
H822 H 0.49813 0.97223 0.58683 0.0
H823 H 0.5156 0.97069 0.61552 0.0
H824 H 0.57157 0.9821 0.59238 0.0
H825 H 0.55406 0.98264 0.56351 0.0
H826 H 0.57491 0.95671 0.61187 0.0
H827 H 0.55008 0.01717 0.62169 0.0
H828 H 0.52506 0.03946 0.62224 0.0
H829 H 0.49352 0.0106 0.66008 0.0
H830 H 0.51822 0.98795 0.65957 0.0
H831 H 0.63141 0.9904 0.69675 0.0
H832 H 0.61378 0.99012 0.66765 0.0
H833 H 0.56246 0.95776 0.68442 0.0
H834 H 0.5801 0.9575 0.71333 0.0
H835 H 0.5571 0.99377 0.66872 0.0
H836 H 0.58422 0.93336 0.65792 0.0
H837 H 0.61128 0.9133 0.6574 0.0
H838 H 0.64126 0.94588 0.62126 0.0
H839 H 0.61449 0.96632 0.62179 0.0
C840 C 0.51416 0.97438 0.58796 0.0
C841 C 0.5248 0.97756 0.57306 0.0
C842 C 0.52415 0.97362 0.60434 0.0
C843 C 0.54495 0.97663 0.60626 0.0
C844 C 0.55554 0.97971 0.59129 0.0
C845 C 0.54556 0.98006 0.57481 0.0
C846 C 0.55571 0.97643 0.6238 0.0
C847 C 0.57112 0.96504 0.62423 0.0
C848 C 0.55074 0.9871 0.64005 0.0
C849 C 0.5359 1.00075 0.64045 0.0
C850 C 0.53773 0.01549 0.63003 0.0
C851 C 0.52362 0.0282 0.63035 0.0
C852 C 0.50768 0.02642 0.64115 0.0
C853 C 0.50586 0.01195 0.6517 0.0
C854 C 0.51992 0.99918 0.65141 0.0
C855 C 0.61641 0.98315 0.6942 0.0
C856 C 0.60715 0.97393 0.70729 0.0
C857 C 0.6064 0.98299 0.6776 0.0
C858 C 0.58687 0.97392 0.67398 0.0
C859 C 0.57754 0.96482 0.68703 0.0
C860 C 0.58767 0.96462 0.70347 0.0
C861 C 0.57609 0.97411 0.65661 0.0
C862 C 0.56076 0.98551 0.65628 0.0
C863 C 0.58141 0.96381 0.64042 0.0
C864 C 0.59747 0.95151 0.64007 0.0
C865 C 0.59668 0.93637 0.65001 0.0
C866 C 0.61194 0.9249 0.64968 0.0
C867 C 0.62801 0.92835 0.63935 0.0
C868 C 0.62882 0.94325 0.62929 0.0
C869 C 0.6136 0.95477 0.62959 0.0
H870 H 0.63981 0.91945 0.6391 0.0
H871 H 0.49677 0.03627 0.64138 0.0
H872 H 0.85235 0.23942 0.77137 0.0
H873 H 0.8832 0.2374 0.78821 0.0
H874 H 0.8858 0.18112 0.75806 0.0
H875 H 0.85507 0.18318 0.74077 0.0
H876 H 0.89441 0.18311 0.79497 0.0
H877 H 0.91548 0.21714 0.74817 0.0
H878 H 0.91514 0.24205 0.72897 0.0
H879 H 0.92939 0.28604 0.7752 0.0
H880 H 0.92954 0.26139 0.79472 0.0
H881 H 0.99645 0.18713 0.83057 0.0
H882 H 0.96516 0.18189 0.81178 0.0
H883 H 0.95526 0.2401 0.8312 0.0
H884 H 0.98638 0.24546 0.84939 0.0
H885 H 0.95162 0.23354 0.79621 0.0
H886 H 0.9278 0.19981 0.84333 0.0
H887 H 0.92757 0.17507 0.86277 0.0
H888 H 0.91846 0.13078 0.81638 0.0
H889 H 0.91889 0.15529 0.79665 0.0
C890 C 0.85959 0.22672 0.76807 0.0
C891 C 0.85126 0.21154 0.75455 0.0
C892 C 0.87718 0.22552 0.77782 0.0
C893 C 0.88687 0.20916 0.77431 0.0
C894 C 0.87853 0.19386 0.76102 0.0
C895 C 0.86095 0.19507 0.75117 0.0
C896 C 0.90587 0.20831 0.78443 0.0
C897 C 0.90707 0.19395 0.79506 0.0
C898 C 0.9223 0.22253 0.78463 0.0
C899 C 0.92238 0.2374 0.77292 0.0
C900 C 0.91841 0.23212 0.75426 0.0
C901 C 0.91827 0.2462 0.74332 0.0
C902 C 0.9222 0.26561 0.75086 0.0
C903 C 0.92633 0.27099 0.76937 0.0
C904 C 0.92647 0.25697 0.78038 0.0
C905 C 0.98735 0.19863 0.83103 0.0
C906 C 0.99392 0.21675 0.8413 0.0
C907 C 0.96949 0.19565 0.82029 0.0
C908 C 0.95788 0.21067 0.81995 0.0
C909 C 0.96402 0.22837 0.83101 0.0
C910 C 0.98182 0.23139 0.84147 0.0
C911 C 0.94001 0.20877 0.80737 0.0
C912 C 0.93907 0.22259 0.7961 0.0
C913 C 0.92386 0.19409 0.80666 0.0
C914 C 0.92362 0.17938 0.81851 0.0
C915 C 0.92593 0.1848 0.83727 0.0
C916 C 0.92572 0.17082 0.84834 0.0
C917 C 0.92307 0.15137 0.84081 0.0
C918 C 0.92055 0.14586 0.8222 0.0
C919 C 0.92076 0.15978 0.81106 0.0
H920 H 0.92291 0.14057 0.84941 0.0
H921 H 0.92209 0.27649 0.74237 0.0
H922 H 0.50471 0.89919 0.46085 0.0
H923 H 0.50885 0.86534 0.45547 0.0
H924 H 0.54133 0.87201 0.50692 0.0
H925 H 0.5377 0.90633 0.51216 0.0
H926 H 0.561 0.85434 0.48237 0.0
H927 H 0.49618 0.84295 0.49887 0.0
H928 H 0.46082 0.84634 0.50095 0.0
H929 H 0.45001 0.82585 0.4444 0.0
H930 H 0.48535 0.82261 0.44189 0.0
H931 H 0.53243 0.74951 0.4249 0.0
H932 H 0.52856 0.7725 0.45203 0.0
H933 H 0.56243 0.81739 0.42991 0.0
H934 H 0.56644 0.79473 0.40321 0.0
H935 H 0.5091 0.80248 0.45286 0.0
H936 H 0.58611 0.85106 0.45983 0.0
H937 H 0.62132 0.84654 0.4596 0.0
H938 H 0.6076 0.7905 0.47357 0.0
H939 H 0.57234 0.79476 0.47417 0.0
C940 C 0.5126 0.89344 0.4711 0.0
C941 C 0.52109 0.90546 0.48683 0.0
C942 C 0.51472 0.87399 0.46813 0.0
C943 C 0.5252 0.866 0.48088 0.0
C944 C 0.53308 0.87782 0.49694 0.0
C945 C 0.53094 0.89738 0.49995 0.0
C946 C 0.52972 0.84598 0.4762 0.0
C947 C 0.54964 0.84288 0.4762 0.0
C948 C 0.51485 0.83071 0.46887 0.0
C949 C 0.49348 0.83254 0.47021 0.0
C950 C 0.4863 0.83926 0.48685 0.0
C951 C 0.46624 0.84115 0.48811 0.0
C952 C 0.45318 0.83631 0.47282 0.0
C953 C 0.46014 0.82956 0.45624 0.0
C954 C 0.48019 0.82765 0.4549 0.0
C955 C 0.53948 0.76418 0.42611 0.0
C956 C 0.5496 0.77037 0.41188 0.0
C957 C 0.53721 0.7773 0.44156 0.0
C958 C 0.54534 0.79665 0.4431 0.0
C959 C 0.55634 0.80249 0.42927 0.0
C960 C 0.55847 0.78952 0.41388 0.0
C961 C 0.54042 0.81153 0.45771 0.0
C962 C 0.52042 0.81367 0.4596 0.0
C963 C 0.5552 0.82575 0.46713 0.0
C964 C 0.57651 0.82325 0.46704 0.0
C965 C 0.59059 0.83783 0.46302 0.0
C966 C 0.61057 0.8353 0.46278 0.0
C967 C 0.61669 0.81824 0.46656 0.0
C968 C 0.60284 0.80369 0.47061 0.0
C969 C 0.58284 0.80615 0.47088 0.0
H970 H 0.63217 0.8163 0.46635 0.0
H971 H 0.43766 0.83779 0.47382 0.0
H972 H 0.25921 0.22539 0.79434 0.0
H973 H 0.22856 0.22381 0.80974 0.0
H974 H 0.19724 0.23724 0.76348 0.0
H975 H 0.22767 0.23818 0.74766 0.0
H976 H 0.1881 0.25782 0.79664 0.0
H977 H 0.19307 0.19255 0.7694 0.0
H978 H 0.20972 0.16355 0.76343 0.0
H979 H 0.21278 0.16011 0.81962 0.0
H980 H 0.1964 0.18929 0.82596 0.0
H981 H 0.08985 0.23483 0.81407 0.0
H982 H 0.12126 0.23452 0.80013 0.0
H983 H 0.14607 0.21184 0.84456 0.0
H984 H 0.11416 0.21147 0.85835 0.0
H985 H 0.15991 0.19637 0.8142 0.0
H986 H 0.1546 0.26028 0.84209 0.0
H987 H 0.13895 0.28977 0.84928 0.0
H988 H 0.13804 0.29678 0.79394 0.0
H989 H 0.15342 0.26716 0.78636 0.0
C990 C 0.24581 0.22791 0.78735 0.0
C991 C 0.24594 0.23173 0.76964 0.0
C992 C 0.22832 0.22707 0.79623 0.0
C993 C 0.2106 0.23017 0.78767 0.0
C994 C 0.21078 0.23477 0.77031 0.0
C995 C 0.22824 0.23544 0.76133 0.0
C996 C 0.1918 0.22825 0.79667 0.0
C997 C 0.18179 0.24434 0.8003 0.0
C998 C 0.18398 0.21082 0.80199 0.0
C999 C 0.1937 0.19321 0.79818 0.0
C1000 C 0.19745 0.1857 0.7805 0.0
C1001 C 0.20681 0.16922 0.77705 0.0
C1002 C 0.21236 0.16002 0.79114 0.0
C1003 C 0.20851 0.16727 0.80872 0.0
C1004 C 0.19917 0.18377 0.81225 0.0
C1005 C 0.10191 0.22954 0.82079 0.0
C1006 C 0.09963 0.22336 0.8374 0.0
C1007 C 0.11992 0.22948 0.81285 0.0
C1008 C 0.13624 0.22372 0.82154 0.0
C1009 C 0.13374 0.21653 0.83768 0.0
C1010 C 0.11551 0.21628 0.84553 0.0
C1011 C 0.15596 0.2259 0.81397 0.0
C1012 C 0.1662 0.20989 0.81063 0.0
C1013 C 0.16416 0.24351 0.80913 0.0
C1014 C 0.15502 0.26141 0.81364 0.0
C1015 C 0.15094 0.26804 0.83143 0.0
C1016 C 0.14213 0.28478 0.83558 0.0
C1017 C 0.13747 0.29512 0.82207 0.0
C1018 C 0.14164 0.28875 0.80439 0.0
C1019 C 0.15043 0.27199 0.80016 0.0
H1020 H 0.13065 0.30808 0.82531 0.0
H1021 H 0.2196 0.14726 0.78844 0.0
H1022 H 0.5465 0.58023 0.51474 0.0
H1023 H 0.5378 0.59392 0.48807 0.0
H1024 H 0.59927 0.61538 0.4851 0.0
H1025 H 0.6078 0.60227 0.51201 0.0
H1026 H 0.57865 0.64285 0.48331 0.0
H1027 H 0.57261 0.5777 0.4533 0.0
H1028 H 0.56068 0.54303 0.44806 0.0
H1029 H 0.50079 0.55492 0.44179 0.0
H1030 H 0.51234 0.5897 0.44724 0.0
H1031 H 0.57027 0.6765 0.40074 0.0
H1032 H 0.57785 0.65569 0.42224 0.0
H1033 H 0.51591 0.6446 0.43111 0.0
H1034 H 0.50815 0.66552 0.40966 0.0
H1035 H 0.53605 0.61136 0.42919 0.0
H1036 H 0.54281 0.67667 0.46005 0.0
H1037 H 0.55531 0.71121 0.4647 0.0
H1038 H 0.61503 0.6983 0.4688 0.0
H1039 H 0.60289 0.66364 0.4639 0.0
C1040 C 0.55817 0.58746 0.50808 0.0
C1041 C 0.57781 0.59021 0.51541 0.0
C1042 C 0.55321 0.5953 0.49283 0.0
C1043 C 0.56787 0.60574 0.48447 0.0
C1044 C 0.58764 0.60755 0.49131 0.0
C1045 C 0.59253 0.59996 0.50664 0.0
C1046 C 0.5626 0.61613 0.46959 0.0
C1047 C 0.56961 0.63579 0.47136 0.0
C1048 C 0.55032 0.60721 0.45414 0.0
C1049 C 0.54333 0.58631 0.45086 0.0
C1050 C 0.55688 0.57293 0.45095 0.0
C1051 C 0.55019 0.55326 0.44791 0.0
C1052 C 0.52999 0.54678 0.44464 0.0
C1053 C 0.51643 0.55996 0.44435 0.0
C1054 C 0.52304 0.57966 0.4474 0.0
C1055 C 0.55819 0.66947 0.40707 0.0
C1056 C 0.5386 0.67282 0.40355 0.0
C1057 C 0.56258 0.65759 0.4194 0.0
C1058 C 0.54747 0.64871 0.4284 0.0
C1059 C 0.5278 0.65129 0.42432 0.0
C1060 C 0.52341 0.66333 0.4121 0.0
C1061 C 0.55239 0.63783 0.44292 0.0
C1062 C 0.5452 0.61823 0.44113 0.0
C1063 C 0.56462 0.64673 0.45833 0.0
C1064 C 0.57195 0.66756 0.46142 0.0
C1065 C 0.55862 0.68119 0.4618 0.0
C1066 C 0.56563 0.70079 0.4645 0.0
C1067 C 0.58595 0.70694 0.467 0.0
C1068 C 0.5993 0.69351 0.46684 0.0
C1069 C 0.59236 0.67389 0.46411 0.0
H1070 H 0.59136 0.72212 0.46909 0.0
H1071 H 0.52484 0.53154 0.44229 0.0
H1072 H 0.86257 0.81796 0.77857 0.0
H1073 H 0.88178 0.81126 0.75232 0.0
H1074 H 0.92336 0.78681 0.78374 0.0
H1075 H 0.90442 0.79379 0.81013 0.0
H1076 H 0.94194 0.81124 0.76345 0.0
H1077 H 0.89056 0.75781 0.75433 0.0
H1078 H 0.85618 0.74181 0.7518 0.0
H1079 H 0.84264 0.76963 0.7072 0.0
H1080 H 0.87688 0.78603 0.70963 0.0
H1081 H 0.99135 0.77181 0.68765 0.0
H1082 H 0.97354 0.77593 0.71505 0.0
H1083 H 0.92666 0.79695 0.68665 0.0
H1084 H 0.94406 0.79246 0.65924 0.0
H1085 H 0.91144 0.77241 0.7063 0.0
H1086 H 0.96194 0.82723 0.71632 0.0
H1087 H 0.9961 0.84382 0.71891 0.0
H1088 H 0.01108 0.814 0.76172 0.0
H1089 H 0.97706 0.79704 0.75922 0.0
C1090 C 0.87584 0.81121 0.77989 0.0
C1091 C 0.88193 0.80634 0.7964 0.0
C1092 C 0.88672 0.80727 0.76486 0.0
C1093 C 0.90391 0.79837 0.76604 0.0
C1094 C 0.91011 0.79362 0.78253 0.0
C1095 C 0.89918 0.79747 0.79754 0.0
C1096 C 0.91552 0.79428 0.7501 0.0
C1097 C 0.93538 0.8025 0.75102 0.0
C1098 C 0.90684 0.78318 0.73381 0.0
C1099 C 0.88625 0.77328 0.73227 0.0
C1100 C 0.88021 0.76064 0.74408 0.0
C1101 C 0.86075 0.75147 0.74264 0.0
C1102 C 0.84722 0.75473 0.72938 0.0
C1103 C 0.85313 0.76713 0.71748 0.0
C1104 C 0.87257 0.77635 0.71887 0.0
C1105 C 0.97728 0.77736 0.68727 0.0
C1106 C 0.96916 0.78182 0.67124 0.0
C1107 C 0.96713 0.77977 0.70296 0.0
C1108 C 0.94881 0.78692 0.70297 0.0
C1109 C 0.94073 0.79137 0.68699 0.0
C1110 C 0.95076 0.78884 0.67131 0.0
C1111 C 0.93783 0.78962 0.71951 0.0
C1112 C 0.91807 0.78108 0.71873 0.0
C1113 C 0.94659 0.8005 0.7359 0.0
C1114 C 0.96702 0.81071 0.73745 0.0
C1115 C 0.97257 0.8241 0.72619 0.0
C1116 C 0.99189 0.83359 0.72766 0.0
C1117 C 0.00577 0.82992 0.74044 0.0
C1118 C 1.00033 0.8168 0.75181 0.0
C1119 C 0.98102 0.80725 0.75038 0.0
H1120 H 0.02073 0.83728 0.74156 0.0
H1121 H 0.83216 0.74762 0.72829 0.0
H1122 H 0.1102 0.86285 0.48432 0.0
H1123 H 0.10453 0.85245 0.51318 0.0
H1124 H 0.05641 0.88651 0.52001 0.0
H1125 H 0.06257 0.89748 0.49145 0.0
H1126 H 0.07492 0.88763 0.5513 0.0
H1127 H 0.04924 0.83729 0.5025 0.0
H1128 H 0.05074 0.81426 0.47472 0.0
H1129 H 0.09464 0.7877 0.50081 0.0
H1130 H 0.0936 0.81077 0.52868 0.0
H1131 H 0.00884 0.83202 0.59888 0.0
H1132 H 0.027 0.85039 0.57884 0.0
H1133 H 0.07664 0.8192 0.58463 0.0
H1134 H 0.05859 0.80083 0.6049 0.0
H1135 H 0.0621 0.81716 0.54921 0.0
H1136 H 0.0828 0.86564 0.59996 0.0
H1137 H 0.07865 0.88817 0.62741 0.0
H1138 H 0.04096 0.91763 0.59741 0.0
H1139 H 0.04464 0.8951 0.5698 0.0
C1140 C 0.09858 0.86827 0.49212 0.0
C1141 C 0.0867 0.88082 0.48561 0.0
C1142 C 0.0953 0.8623 0.50857 0.0
C1143 C 0.07974 0.86834 0.51862 0.0
C1144 C 0.06848 0.8816 0.51252 0.0
C1145 C 0.07198 0.88785 0.4962 0.0
C1146 C 0.07432 0.85992 0.53479 0.0
C1147 C 0.07202 0.87222 0.55082 0.0
C1148 C 0.07089 0.83979 0.53433 0.0
C1149 C 0.07152 0.8259 0.51759 0.0
C1150 C 0.05932 0.82663 0.50226 0.0
C1151 C 0.06008 0.81356 0.48651 0.0
C1152 C 0.07282 0.79956 0.48598 0.0
C1153 C 0.08481 0.79858 0.50122 0.0
C1154 C 0.08414 0.81165 0.517 0.0
C1155 C 0.02381 0.8294 0.59626 0.0
C1156 C 0.03223 0.8149 0.60339 0.0
C1157 C 0.03421 0.83997 0.58485 0.0
C1158 C 0.05317 0.83616 0.58024 0.0
C1159 C 0.06204 0.82238 0.58806 0.0
C1160 C 0.05174 0.81197 0.5997 0.0
C1161 C 0.06249 0.84485 0.56562 0.0
C1162 C 0.06539 0.83257 0.54982 0.0
C1163 C 0.06611 0.86495 0.56624 0.0
C1164 C 0.06389 0.87858 0.58281 0.0
C1165 C 0.07349 0.87682 0.59923 0.0
C1166 C 0.07125 0.88962 0.61482 0.0
C1167 C 0.05953 0.9043 0.61416 0.0
C1168 C 0.05004 0.90624 0.5979 0.0
C1169 C 0.05222 0.89348 0.58226 0.0
H1170 H 0.05781 0.91419 0.62625 0.0
H1171 H 0.07338 0.78944 0.47378 0.0
H1172 H 0.2089 0.75621 0.75579 0.0
H1173 H 0.17528 0.75905 0.74421 0.0
H1174 H 0.18766 0.73095 0.69189 0.0
H1175 H 0.22108 0.72809 0.70334 0.0
H1176 H 0.16514 0.77859 0.7169 0.0
H1177 H 0.14532 0.70361 0.67224 0.0
H1178 H 0.15116 0.67015 0.67265 0.0
H1179 H 0.15933 0.68183 0.73015 0.0
H1180 H 0.15325 0.71526 0.73011 0.0
H1181 H 0.09761 0.77877 0.6435 0.0
H1182 H 0.12542 0.77352 0.66283 0.0
H1183 H 0.08527 0.74212 0.69334 0.0
H1184 H 0.05723 0.74739 0.67406 0.0
H1185 H 0.1181 0.7238 0.68471 0.0
H1186 H 0.10443 0.78564 0.71164 0.0
H1187 H 0.09787 0.81906 0.71237 0.0
H1188 H 0.15502 0.83353 0.69314 0.0
H1189 H 0.1618 0.80013 0.69205 0.0
C1190 C 0.2043 0.75044 0.74189 0.0
C1191 C 0.21759 0.74202 0.73043 0.0
C1192 C 0.18518 0.75215 0.73528 0.0
C1193 C 0.17896 0.74512 0.71722 0.0
C1194 C 0.19208 0.7363 0.70591 0.0
C1195 C 0.2112 0.7348 0.71243 0.0
C1196 C 0.15918 0.74784 0.70977 0.0
C1197 C 0.15478 0.76661 0.70999 0.0
C1198 C 0.14554 0.73218 0.70099 0.0
C1199 C 0.14897 0.712 0.70115 0.0
C1200 C 0.14826 0.69902 0.68498 0.0
C1201 C 0.15163 0.68005 0.68515 0.0
C1202 C 0.15566 0.67388 0.70141 0.0
C1203 C 0.15627 0.68664 0.71755 0.0
C1204 C 0.1529 0.70561 0.71746 0.0
C1205 C 0.09464 0.77074 0.65431 0.0
C1206 C 0.07518 0.76353 0.65725 0.0
C1207 C 0.11057 0.76782 0.6654 0.0
C1208 C 0.10739 0.75758 0.67962 0.0
C1209 C 0.08802 0.75011 0.68247 0.0
C1210 C 0.07203 0.75318 0.67146 0.0
C1211 C 0.12442 0.75458 0.69132 0.0
C1212 C 0.12833 0.73576 0.69183 0.0
C1213 C 0.13753 0.77019 0.70093 0.0
C1214 C 0.13356 0.79033 0.70165 0.0
C1215 C 0.11554 0.79591 0.70744 0.0
C1216 C 0.11179 0.81486 0.70794 0.0
C1217 C 0.12601 0.8284 0.70277 0.0
C1218 C 0.14402 0.82303 0.69713 0.0
C1219 C 0.14783 0.80409 0.6966 0.0
H1220 H 0.12308 0.84307 0.70317 0.0
H1221 H 0.15828 0.6592 0.70151 0.0
H1222 H 0.97947 0.57135 0.50094 0.0
H1223 H 0.99109 0.59801 0.5253 0.0
H1224 H 0.97154 0.63796 0.49304 0.0
H1225 H 0.96054 0.61146 0.46856 0.0
H1226 H 0.00435 0.6535 0.51133 0.0
H1227 H 0.94285 0.6193 0.52524 0.0
H1228 H 0.92131 0.59046 0.53023 0.0
H1229 H 0.96116 0.58418 0.57393 0.0
H1230 H 0.98311 0.61285 0.56902 0.0
H1231 H 0.97506 0.72858 0.57192 0.0
H1232 H 0.9743 0.69889 0.55066 0.0
H1233 H 0.01138 0.67667 0.58796 0.0
H1234 H 0.01259 0.70671 0.6094 0.0
H1235 H 0.975 0.65064 0.56977 0.0
H1236 H 0.03403 0.68888 0.55734 0.0
H1237 H 0.05366 0.71848 0.55165 0.0
H1238 H 0.01593 0.71804 0.50447 0.0
H1239 H 0.99587 0.68858 0.51005 0.0
C1240 C 0.97795 0.58588 0.49901 0.0
C1241 C 0.96905 0.58938 0.48293 0.0
C1242 C 0.98451 0.60108 0.51294 0.0
C1243 C 0.98182 0.61997 0.51116 0.0
C1244 C 0.97377 0.62352 0.49476 0.0
C1245 C 0.96751 0.60838 0.48076 0.0
C1246 C 0.98621 0.63596 0.52659 0.0
C1247 C 0.9979 0.65284 0.52408 0.0
C1248 C 0.97813 0.63504 0.54341 0.0
C1249 C 0.96472 0.61808 0.54664 0.0
C1250 C 0.94706 0.61171 0.53586 0.0
C1251 C 0.93478 0.5954 0.53867 0.0
C1252 C 0.93989 0.58546 0.55235 0.0
C1253 C 0.95725 0.59187 0.56331 0.0
C1254 C 0.96961 0.60815 0.56053 0.0
C1255 C 0.98298 0.71739 0.57572 0.0
C1256 C 0.99391 0.72003 0.59237 0.0
C1257 C 0.98256 0.70045 0.56351 0.0
C1258 C 0.99287 0.6857 0.56773 0.0
C1259 C 0.00337 0.68796 0.5845 0.0
C1260 C 0.00407 0.70511 0.59668 0.0
C1261 C 0.99274 0.66816 0.55428 0.0
C1262 C 0.98179 0.65107 0.55714 0.0
C1263 C 0.00123 0.66896 0.53769 0.0
C1264 C 0.01336 0.68659 0.5342 0.0
C1265 C 0.02982 0.69518 0.54584 0.0
C1266 C 0.04104 0.71192 0.54261 0.0
C1267 C 0.03602 0.72016 0.52773 0.0
C1268 C 0.01979 0.71164 0.51601 0.0
C1269 C 0.0085 0.69491 0.51918 0.0
H1270 H 0.04473 0.73312 0.52525 0.0
H1271 H 0.93039 0.57281 0.55448 0.0
H1272 H 0.79352 0.8134 0.19533 0.0
H1273 H 0.80827 0.84693 0.20326 0.0
H1274 H 0.83113 0.83586 0.25415 0.0
H1275 H 0.81728 0.80208 0.24606 0.0
H1276 H 0.81284 0.87127 0.25503 0.0
H1277 H 0.86129 0.83612 0.22369 0.0
H1278 H 0.87193 0.81488 0.19792 0.0
H1279 H 0.8592 0.85471 0.1632 0.0
H1280 H 0.84818 0.87606 0.18875 0.0
H1281 H 0.88586 0.94734 0.28729 0.0
H1282 H 0.8673 0.91592 0.27651 0.0
H1283 H 0.86301 0.92934 0.22292 0.0
H1284 H 0.88261 0.96079 0.23362 0.0
H1285 H 0.86887 0.89385 0.22093 0.0
H1286 H 0.82305 0.9304 0.25092 0.0
H1287 H 0.81035 0.95198 0.27526 0.0
H1288 H 0.81499 0.91079 0.3105 0.0
H1289 H 0.82799 0.88907 0.28646 0.0
C1290 C 0.80174 0.81802 0.2082 0.0
C1291 C 0.80439 0.80489 0.21995 0.0
C1292 C 0.81004 0.83723 0.21273 0.0
C1293 C 0.82092 0.84378 0.2292 0.0
C1294 C 0.82275 0.83104 0.24137 0.0
C1295 C 0.8147 0.81175 0.23675 0.0
C1296 C 0.8312 0.86367 0.23342 0.0
C1297 C 0.8252 0.87622 0.24772 0.0
C1298 C 0.84679 0.87026 0.22336 0.0
C1299 C 0.85371 0.85757 0.20808 0.0
C1300 C 0.86061 0.84027 0.21053 0.0
C1301 C 0.86673 0.82823 0.19597 0.0
C1302 C 0.86619 0.83342 0.17892 0.0
C1303 C 0.85958 0.8507 0.17641 0.0
C1304 C 0.85341 0.86278 0.19093 0.0
C1305 C 0.881 0.94364 0.27318 0.0
C1306 C 0.88549 0.95663 0.26132 0.0
C1307 C 0.87024 0.92568 0.26705 0.0
C1308 C 0.86318 0.92041 0.249 0.0
C1309 C 0.86812 0.93313 0.23695 0.0
C1310 C 0.8793 0.95108 0.24306 0.0
C1311 C 0.85084 0.90154 0.2429 0.0
C1312 C 0.8564 0.88911 0.22821 0.0
C1313 C 0.83455 0.89518 0.25239 0.0
C1314 C 0.82663 0.90815 0.2669 0.0
C1315 C 0.82148 0.92599 0.26389 0.0
C1316 C 0.81422 0.93824 0.27763 0.0
C1317 C 0.8119 0.93277 0.29442 0.0
C1318 C 0.8168 0.91501 0.29749 0.0
C1319 C 0.82409 0.90271 0.2838 0.0
H1320 H 0.80627 0.94228 0.30505 0.0
H1321 H 0.87092 0.82407 0.16767 0.0
H1322 H 0.7888 0.17392 0.30756 0.0
H1323 H 0.80996 0.14838 0.30532 0.0
H1324 H 0.83958 0.17117 0.26273 0.0
H1325 H 0.81874 0.19693 0.26507 0.0
H1326 H 0.83032 0.1323 0.25467 0.0
H1327 H 0.86247 0.17788 0.30386 0.0
H1328 H 0.86471 0.19981 0.3328 0.0
H1329 H 0.84582 0.15245 0.35943 0.0
H1330 H 0.84319 0.13026 0.33059 0.0
H1331 H 0.90419 0.0679 0.25738 0.0
H1332 H 0.88831 0.09713 0.25732 0.0
H1333 H 0.8552 0.08401 0.30195 0.0
H1334 H 0.87098 0.05534 0.30229 0.0
H1335 H 0.86979 0.12063 0.30767 0.0
H1336 H 0.83436 0.07577 0.25834 0.0
H1337 H 0.83134 0.05366 0.22945 0.0
H1338 H 0.85601 0.09946 0.20324 0.0
H1339 H 0.85941 0.1218 0.23205 0.0
C1340 C 0.79996 0.17365 0.29786 0.0
C1341 C 0.80202 0.18751 0.2865 0.0
C1342 C 0.81202 0.15899 0.29655 0.0
C1343 C 0.82647 0.15792 0.28392 0.0
C1344 C 0.8285 0.17166 0.27252 0.0
C1345 C 0.8165 0.18634 0.27385 0.0
C1346 C 0.83933 0.14238 0.28258 0.0
C1347 C 0.83922 0.12993 0.26618 0.0
C1348 C 0.85078 0.13915 0.29763 0.0
C1349 C 0.85248 0.15243 0.31503 0.0
C1350 C 0.85866 0.17216 0.31586 0.0
C1351 C 0.86002 0.18463 0.33225 0.0
C1352 C 0.85537 0.17754 0.34794 0.0
C1353 C 0.8494 0.15793 0.34727 0.0
C1354 C 0.84799 0.1454 0.33091 0.0
C1355 C 0.89352 0.07128 0.26715 0.0
C1356 C 0.88891 0.05923 0.27983 0.0
C1357 C 0.88442 0.08796 0.26709 0.0
C1358 C 0.87049 0.09277 0.27962 0.0
C1359 C 0.86595 0.08073 0.29222 0.0
C1360 C 0.875 0.06422 0.29233 0.0
C1361 C 0.8604 0.11022 0.27987 0.0
C1362 C 0.86107 0.1231 0.29609 0.0
C1363 C 0.84942 0.11379 0.26468 0.0
C1364 C 0.84736 0.10039 0.24737 0.0
C1365 C 0.83929 0.08109 0.24644 0.0
C1366 C 0.83748 0.06852 0.23008 0.0
C1367 C 0.84354 0.07514 0.21453 0.0
C1368 C 0.85137 0.09435 0.21531 0.0
C1369 C 0.85323 0.10697 0.23164 0.0
H1370 H 0.84213 0.06539 0.20188 0.0
H1371 H 0.85643 0.18722 0.36061 0.0
H1372 H 0.43438 0.01215 0.95385 0.0
H1373 H 0.41084 0.98578 0.96034 0.0
H1374 H 0.37637 0.02664 0.98825 0.0
H1375 H 0.40032 0.05302 0.98228 0.0
H1376 H 0.37893 0.99985 0.00686 0.0
H1377 H 0.36119 0.99987 0.94538 0.0
H1378 H 0.36621 0.99989 0.91333 0.0
H1379 H 0.38782 0.94529 0.90943 0.0
H1380 H 0.3832 0.94506 0.94153 0.0
H1381 H 0.29903 0.92327 0.00954 0.0
H1382 H 0.31753 0.95266 0.0024 0.0
H1383 H 0.36456 0.92071 0.98412 0.0
H1384 H 0.34649 0.89154 0.99138 0.0
H1385 H 0.35177 0.94461 0.96007 0.0
H1386 H 0.37131 0.94723 0.02319 0.0
H1387 H 0.36475 0.94792 0.05504 0.0
H1388 H 0.33687 0.99884 0.05497 0.0
H1389 H 0.34303 0.9983 0.02302 0.0
C1390 C 0.42169 0.01546 0.96124 0.0
C1391 C 0.41915 0.03459 0.96756 0.0
C1392 C 0.40818 1.0004 0.9649 0.0
C1393 C 0.39159 0.00418 0.97456 0.0
C1394 C 0.38902 0.02333 0.98079 0.0
C1395 C 0.40269 0.03838 0.97737 0.0
C1396 C 0.37735 0.98813 0.97865 0.0
C1397 C 0.37272 0.98797 0.99653 0.0
C1398 C 0.36925 0.9725 0.96526 0.0
C1399 C 0.37199 0.97252 0.94591 0.0
C1400 C 0.36714 0.98792 0.93772 0.0
C1401 C 0.3699 0.98796 0.91954 0.0
C1402 C 0.37737 0.97262 0.90936 0.0
C1403 C 0.38205 0.95717 0.91733 0.0
C1404 C 0.37935 0.95707 0.93552 0.0
C1405 C 0.31334 0.92255 0.00406 0.0
C1406 C 0.32131 0.90508 0.00109 0.0
C1407 C 0.32387 0.93932 1.0 0.0
C1408 C 0.34239 0.9388 0.99272 0.0
C1409 C 0.35027 0.92138 0.98968 0.0
C1410 C 0.33994 0.90475 0.99394 0.0
C1411 C 0.35378 0.95629 0.98822 0.0
C1412 C 0.35783 0.95668 0.97028 0.0
C1413 C 0.36106 0.97225 0.00148 0.0
C1414 C 0.35741 0.97259 0.02068 0.0
C1415 C 0.36361 0.95847 0.02992 0.0
C1416 C 0.36001 0.95885 0.048 0.0
C1417 C 0.35034 0.97337 0.05701 0.0
C1418 C 0.34432 0.98758 0.04797 0.0
C1419 C 0.34787 0.98724 0.02988 0.0
H1420 H 0.34757 0.97365 0.071 0.0
H1421 H 0.37949 0.97267 0.89528 0.0
H1422 H 0.29147 0.35532 0.3176 0.0
H1423 H 0.26684 0.36871 0.30052 0.0
H1424 H 0.3034 0.42371 0.31017 0.0
H1425 H 0.32786 0.41044 0.32761 0.0
H1426 H 0.26757 0.42847 0.31751 0.0
H1427 H 0.29599 0.3946 0.26766 0.0
H1428 H 0.30789 0.36693 0.2494 0.0
H1429 H 0.24934 0.33588 0.24415 0.0
H1430 H 0.23713 0.36326 0.2626 0.0
H1431 H 0.20342 0.47023 0.26311 0.0
H1432 H 0.23298 0.45727 0.27282 0.0
H1433 H 0.19857 0.40193 0.27097 0.0
H1434 H 0.169 0.41466 0.26112 0.0
H1435 H 0.23519 0.39881 0.25784 0.0
H1436 H 0.20806 0.4319 0.31011 0.0
H1437 H 0.19633 0.45978 0.32822 0.0
H1438 H 0.25345 0.49263 0.32837 0.0
H1439 H 0.26543 0.465 0.31004 0.0
C1440 C 0.29441 0.37016 0.31578 0.0
C1441 C 0.31155 0.38185 0.32396 0.0
C1442 C 0.28034 0.37781 0.30598 0.0
C1443 C 0.2833 0.39721 0.3039 0.0
C1444 C 0.30074 0.40873 0.31161 0.0
C1445 C 0.3147 0.40114 0.32157 0.0
C1446 C 0.2676 0.40583 0.29489 0.0
C1447 C 0.26081 0.42217 0.30429 0.0
C1448 C 0.25841 0.39744 0.2778 0.0
C1449 C 0.26568 0.38094 0.26665 0.0
C1450 C 0.28568 0.38182 0.26273 0.0
C1451 C 0.29248 0.36619 0.25232 0.0
C1452 C 0.27939 0.34964 0.24565 0.0
C1453 C 0.25947 0.3487 0.24934 0.0
C1454 C 0.25259 0.36428 0.25975 0.0
C1455 C 0.20216 0.45524 0.26459 0.0
C1456 C 0.18378 0.44353 0.2615 0.0
C1457 C 0.21907 0.44788 0.27017 0.0
C1458 C 0.21792 0.4287 0.27281 0.0
C1459 C 0.19979 0.41678 0.26902 0.0
C1460 C 0.18287 0.42412 0.26348 0.0
C1461 C 0.23525 0.42129 0.28053 0.0
C1462 C 0.24223 0.40518 0.27093 0.0
C1463 C 0.24471 0.42991 0.29741 0.0
C1464 C 0.23757 0.44647 0.30855 0.0
C1465 C 0.21807 0.44512 0.3139 0.0
C1466 C 0.21139 0.46086 0.32422 0.0
C1467 C 0.22412 0.47799 0.3294 0.0
C1468 C 0.24359 0.47937 0.32432 0.0
C1469 C 0.25034 0.46367 0.31397 0.0
H1470 H 0.21892 0.49016 0.33739 0.0
H1471 H 0.28468 0.33756 0.2376 0.0
H1472 H 0.11176 0.99784 0.46645 0.0
H1473 H 0.14101 0.02181 0.47492 0.0
H1474 H 0.17851 0.97927 0.45591 0.0
H1475 H 0.14938 0.95518 0.44818 0.0
H1476 H 0.19673 0.00208 0.48352 0.0
H1477 H 0.16173 0.01099 0.42923 0.0
H1478 H 0.13269 0.01624 0.41085 0.0
H1479 H 0.12965 0.06975 0.44533 0.0
H1480 H 0.15852 0.06466 0.46409 0.0
H1481 H 0.2765 0.05648 0.45035 0.0
H1482 H 0.24597 0.03544 0.45262 0.0
H1483 H 0.22277 0.08212 0.4849 0.0
H1484 H 0.25351 0.10331 0.48299 0.0
H1485 H 0.1966 0.05996 0.45459 0.0
H1486 H 0.23595 0.05149 0.50635 0.0
H1487 H 0.26622 0.04527 0.52231 0.0
H1488 H 0.26246 0.98967 0.48959 0.0
H1489 H 0.23232 0.99567 0.47322 0.0
C1490 C 0.12631 0.99359 0.46446 0.0
C1491 C 0.12839 0.97476 0.4566 0.0
C1492 C 0.14298 0.00727 0.4692 0.0
C1493 C 0.16194 0.00247 0.46564 0.0
C1494 C 0.16406 0.98335 0.45875 0.0
C1495 C 0.14742 0.96959 0.45434 0.0
C1496 C 0.17939 0.0175 0.46765 0.0
C1497 C 0.19669 0.01469 0.47715 0.0
C1498 C 0.17932 0.03415 0.45954 0.0
C1499 C 0.16213 0.03734 0.44817 0.0
C1500 C 0.15479 0.02382 0.43295 0.0
C1501 C 0.13837 0.02677 0.42247 0.0
C1502 C 0.1293 0.04329 0.42695 0.0
C1503 C 0.13667 0.05693 0.4419 0.0
C1504 C 0.15306 0.05403 0.45246 0.0
C1505 C 0.2649 0.06232 0.45789 0.0
C1506 C 0.2674 0.08156 0.46648 0.0
C1507 C 0.24753 0.05025 0.45925 0.0
C1508 C 0.23225 0.05724 0.46903 0.0
C1509 C 0.23448 0.0765 0.47735 0.0
C1510 C 0.25202 0.08854 0.47626 0.0
C1511 C 0.21387 0.04432 0.47021 0.0
C1512 C 0.19646 0.04752 0.46124 0.0
C1513 C 0.21396 0.02787 0.47849 0.0
C1514 C 0.23195 0.0241 0.48846 0.0
C1515 C 0.24165 0.03799 0.50246 0.0
C1516 C 0.25878 0.0345 0.5116 0.0
C1517 C 0.26629 0.0171 0.50694 0.0
C1518 C 0.25664 0.00314 0.49317 0.0
C1519 C 0.23951 0.00658 0.48398 0.0
H1520 H 0.27956 0.01443 0.51402 0.0
H1521 H 0.11658 0.04555 0.41882 0.0
H1522 H 0.80258 0.15928 0.7226 0.0
H1523 H 0.7774 0.13199 0.72322 0.0
H1524 H 0.73446 0.17067 0.73714 0.0
H1525 H 0.75981 0.19804 0.73751 0.0
H1526 H 0.7328 0.1454 0.75839 0.0
H1527 H 0.7331 0.14176 0.69488 0.0
H1528 H 0.74757 0.14041 0.66554 0.0
H1529 H 0.76955 0.0877 0.67194 0.0
H1530 H 0.75544 0.08887 0.70145 0.0
H1531 H 0.65102 0.07143 0.74927 0.0
H1532 H 0.67345 0.09919 0.74395 0.0
H1533 H 0.72062 0.06409 0.73661 0.0
H1534 H 0.69831 0.03624 0.74189 0.0
H1535 H 0.71862 0.08789 0.71096 0.0
H1536 H 0.71945 0.09302 0.77535 0.0
H1537 H 0.7044 0.09456 0.80444 0.0
H1538 H 0.67938 0.14509 0.79564 0.0
H1539 H 0.69407 0.14369 0.76636 0.0
C1540 C 0.78776 0.162 0.72574 0.0
C1541 C 0.78328 0.18091 0.73005 0.0
C1542 C 0.77329 0.14635 0.7259 0.0
C1543 C 0.75393 0.14923 0.73009 0.0
C1544 C 0.74927 0.16807 0.73384 0.0
C1545 C 0.76376 0.18373 0.73384 0.0
C1546 C 0.73895 0.13269 0.73176 0.0
C1547 C 0.72945 0.133 0.74785 0.0
C1548 C 0.73486 0.11627 0.71821 0.0
C1549 C 0.74335 0.1155 0.70046 0.0
C1550 C 0.74115 0.12996 0.6901 0.0
C1551 C 0.74927 0.12921 0.67343 0.0
C1552 C 0.75951 0.114 0.6669 0.0
C1553 C 0.76162 0.09948 0.67702 0.0
C1554 C 0.75355 0.10017 0.69371 0.0
C1555 C 0.66615 0.06959 0.74649 0.0
C1556 C 0.6729 0.05163 0.7461 0.0
C1557 C 0.67896 0.08548 0.74348 0.0
C1558 C 0.69873 0.08372 0.74 0.0
C1559 C 0.70541 0.06575 0.73926 0.0
C1560 C 0.69266 0.04988 0.74238 0.0
C1561 C 0.7126 0.1007 0.73754 0.0
C1562 C 0.7219 0.10042 0.72137 0.0
C1563 C 0.71643 0.11722 0.75095 0.0
C1564 C 0.70768 0.11813 0.76858 0.0
C1565 C 0.7106 0.10437 0.77955 0.0
C1566 C 0.70217 0.10523 0.79609 0.0
C1567 C 0.69089 0.11988 0.80186 0.0
C1568 C 0.68809 0.13373 0.79113 0.0
C1569 C 0.69647 0.13292 0.77457 0.0
H1570 H 0.68438 0.12053 0.81467 0.0
H1571 H 0.76578 0.11345 0.65399 0.0
H1572 H 0.4901 0.01602 0.51224 0.0
H1573 H 0.46741 0.03911 0.50863 0.0
H1574 H 0.44112 0.02885 0.55753 0.0
H1575 H 0.46324 0.00472 0.56071 0.0
H1576 H 0.41322 0.02958 0.53301 0.0
H1577 H 0.47105 0.07167 0.55526 0.0
H1578 H 0.50636 0.08487 0.55814 0.0
H1579 H 0.50224 0.09656 0.50423 0.0
H1580 H 0.46696 0.08317 0.50091 0.0
H1581 H 0.35564 0.10454 0.5181 0.0
H1582 H 0.38073 0.08973 0.53343 0.0
H1583 H 0.40974 0.07887 0.48415 0.0
H1584 H 0.38465 0.0933 0.46869 0.0
H1585 H 0.43602 0.09277 0.516 0.0
H1586 H 0.37916 0.04454 0.49357 0.0
H1587 H 0.34368 0.03201 0.49182 0.0
H1588 H 0.34638 0.03357 0.54886 0.0
H1589 H 0.38185 0.04638 0.55096 0.0
C1590 C 0.47941 0.0185 0.52218 0.0
C1591 C 0.47838 0.00833 0.53667 0.0
C1592 C 0.46662 0.03199 0.52026 0.0
C1593 C 0.45275 0.03602 0.53298 0.0
C1594 C 0.45179 0.02609 0.54761 0.0
C1595 C 0.46453 0.01239 0.54947 0.0
C1596 C 0.43864 0.04982 0.53021 0.0
C1597 C 0.41826 0.0436 0.52975 0.0
C1598 C 0.44511 0.06814 0.5259 0.0
C1599 C 0.46634 0.07632 0.52782 0.0
C1600 C 0.47769 0.07694 0.54397 0.0
C1601 C 0.4977 0.08448 0.54569 0.0
C1602 C 0.50654 0.09153 0.53137 0.0
C1603 C 0.49537 0.0911 0.51531 0.0
C1604 C 0.47534 0.08356 0.51352 0.0
C1605 C 0.36756 0.09927 0.51062 0.0
C1606 C 0.36813 0.09995 0.49216 0.0
C1607 C 0.38182 0.09079 0.51938 0.0
C1608 C 0.39699 0.08315 0.50987 0.0
C1609 C 0.39816 0.08472 0.49171 0.0
C1610 C 0.38377 0.09289 0.48289 0.0
C1611 C 0.41086 0.07218 0.51827 0.0
C1612 C 0.43112 0.07895 0.51974 0.0
C1613 C 0.4043 0.05453 0.52377 0.0
C1614 C 0.38306 0.04664 0.52245 0.0
C1615 C 0.37214 0.04236 0.50576 0.0
C1616 C 0.35205 0.03518 0.50469 0.0
C1617 C 0.34276 0.03205 0.52023 0.0
C1618 C 0.35358 0.03604 0.53684 0.0
C1619 C 0.37368 0.04325 0.53798 0.0
H1620 H 0.3272 0.0265 0.51938 0.0
H1621 H 0.52204 0.09735 0.53272 0.0
H1622 H 0.57897 0.47254 0.55502 0.0
H1623 H 0.60134 0.44863 0.54693 0.0
H1624 H 0.64859 0.49381 0.54393 0.0
H1625 H 0.62655 0.5178 0.55238 0.0
H1626 H 0.64728 0.46421 0.51569 0.0
H1627 H 0.64672 0.47185 0.58006 0.0
H1628 H 0.63104 0.47236 0.60879 0.0
H1629 H 0.60641 0.41329 0.59283 0.0
H1630 H 0.62173 0.4125 0.56388 0.0
H1631 H 0.73052 0.4139 0.51848 0.0
H1632 H 0.70597 0.436 0.52402 0.0
H1633 H 0.66261 0.38913 0.53169 0.0
H1634 H 0.68729 0.36698 0.52662 0.0
H1635 H 0.66054 0.41862 0.55667 0.0
H1636 H 0.66177 0.41023 0.49282 0.0
H1637 H 0.67682 0.40948 0.46378 0.0
H1638 H 0.69933 0.46928 0.47808 0.0
H1639 H 0.68463 0.47033 0.50732 0.0
C1640 C 0.59415 0.47743 0.55274 0.0
C1641 C 0.60088 0.49718 0.5544 0.0
C1642 C 0.60691 0.46371 0.54805 0.0
C1643 C 0.62672 0.46941 0.54494 0.0
C1644 C 0.63337 0.48905 0.54619 0.0
C1645 C 0.62066 0.50277 0.55095 0.0
C1646 C 0.64065 0.45498 0.54072 0.0
C1647 C 0.65034 0.45436 0.52473 0.0
C1648 C 0.64428 0.44178 0.55228 0.0
C1649 C 0.6352 0.44218 0.56973 0.0
C1650 C 0.63784 0.45901 0.58262 0.0
C1651 C 0.62903 0.45934 0.59895 0.0
C1652 C 0.61769 0.44288 0.60261 0.0
C1653 C 0.61518 0.42603 0.58997 0.0
C1654 C 0.62392 0.42563 0.5736 0.0
C1655 C 0.71573 0.40823 0.52123 0.0
C1656 C 0.7109 0.3886 0.52204 0.0
C1657 C 0.70164 0.42091 0.52433 0.0
C1658 C 0.68227 0.41427 0.52805 0.0
C1659 C 0.6774 0.39466 0.52883 0.0
C1660 C 0.69154 0.38198 0.52586 0.0
C1661 C 0.66731 0.42784 0.53162 0.0
C1662 C 0.65743 0.42834 0.54753 0.0
C1663 C 0.66342 0.44087 0.51992 0.0
C1664 C 0.67224 0.44031 0.50233 0.0
C1665 C 0.67005 0.42319 0.48983 0.0
C1666 C 0.6785 0.42271 0.47332 0.0
C1667 C 0.68907 0.43931 0.4691 0.0
C1668 C 0.69116 0.45643 0.48137 0.0
C1669 C 0.68275 0.45698 0.49791 0.0
H1670 H 0.6956 0.43891 0.45632 0.0
H1671 H 0.61088 0.44317 0.61527 0.0
H1672 H 0.79795 0.23758 0.33568 0.0
H1673 H 0.7917 0.25474 0.36494 0.0
H1674 H 0.7328 0.26042 0.34517 0.0
H1675 H 0.73865 0.24259 0.31581 0.0
H1676 H 0.75393 0.29503 0.36554 0.0
H1677 H 0.73616 0.22935 0.37147 0.0
H1678 H 0.74069 0.1952 0.36881 0.0
H1679 H 0.79319 0.21021 0.40433 0.0
H1680 H 0.78914 0.24449 0.407 0.0
H1681 H 0.74091 0.33446 0.45816 0.0
H1682 H 0.73406 0.31509 0.428 0.0
H1683 H 0.78944 0.29241 0.43347 0.0
H1684 H 0.79613 0.31109 0.46322 0.0
H1685 H 0.76168 0.26455 0.4196 0.0
H1686 H 0.78335 0.32937 0.40938 0.0
H1687 H 0.78099 0.36396 0.41149 0.0
H1688 H 0.72322 0.35102 0.38401 0.0
H1689 H 0.72516 0.31634 0.38194 0.0
C1690 C 0.78351 0.24214 0.33754 0.0
C1691 C 0.76873 0.23842 0.32334 0.0
C1692 C 0.78003 0.2521 0.35428 0.0
C1693 C 0.76172 0.25871 0.35728 0.0
C1694 C 0.74703 0.25544 0.34313 0.0
C1695 C 0.75044 0.24529 0.32634 0.0
C1696 C 0.75819 0.26891 0.37532 0.0
C1697 C 0.75517 0.28828 0.37736 0.0
C1698 C 0.76002 0.26015 0.39074 0.0
C1699 C 0.76239 0.23951 0.38935 0.0
C1700 C 0.74874 0.22539 0.37863 0.0
C1701 C 0.75121 0.206 0.37713 0.0
C1702 C 0.76723 0.20054 0.38638 0.0
C1703 C 0.78078 0.21446 0.39718 0.0
C1704 C 0.77838 0.23387 0.39871 0.0
C1705 C 0.75151 0.32523 0.45293 0.0
C1706 C 0.76908 0.32441 0.46316 0.0
C1707 C 0.74763 0.31423 0.43567 0.0
C1708 C 0.76129 0.30232 0.4284 0.0
C1709 C 0.77861 0.30136 0.43875 0.0
C1710 C 0.78244 0.31221 0.45583 0.0
C1711 C 0.75822 0.29094 0.40995 0.0
C1712 C 0.75996 0.27125 0.4078 0.0
C1713 C 0.75545 0.29949 0.39449 0.0
C1714 C 0.75429 0.3203 0.39572 0.0
C1715 C 0.77008 0.33392 0.40393 0.0
C1716 C 0.76883 0.35353 0.40509 0.0
C1717 C 0.75193 0.35969 0.39795 0.0
C1718 C 0.73627 0.34624 0.38958 0.0
C1719 C 0.73744 0.3266 0.3884 0.0
H1720 H 0.75099 0.37488 0.39885 0.0
H1721 H 0.76913 0.18552 0.38519 0.0
H1722 H 0.50356 0.09163 0.88256 0.0
H1723 H 0.53218 0.08327 0.86619 0.0
H1724 H 0.52664 0.02843 0.88422 0.0
H1725 H 0.4983 0.03699 0.90101 0.0
H1726 H 0.56456 0.04145 0.88311 0.0
H1727 H 0.50627 0.03407 0.84284 0.0
H1728 H 0.47725 0.04464 0.8285 0.0
H1729 H 0.51514 0.08807 0.80854 0.0
H1730 H 0.54438 0.07791 0.82299 0.0
H1731 H 0.60064 0.98121 0.81154 0.0
H1732 H 0.58187 0.9979 0.83431 0.0
H1733 H 0.59861 0.05116 0.81526 0.0
H1734 H 0.61762 0.03452 0.79238 0.0
H1735 H 0.55808 0.04275 0.81773 0.0
H1736 H 0.61704 0.04621 0.8552 0.0
H1737 H 0.64531 0.03387 0.86888 0.0
H1738 H 0.60547 0.99579 0.89329 0.0
H1739 H 0.57693 0.0077 0.87954 0.0
C1740 C 0.50863 0.07789 0.88321 0.0
C1741 C 0.49861 0.06486 0.8929 0.0
C1742 C 0.52495 0.07311 0.87382 0.0
C1743 C 0.5313 0.05504 0.87363 0.0
C1744 C 0.52198 0.04243 0.88412 0.0
C1745 C 0.5058 0.04732 0.89371 0.0
C1746 C 0.54669 0.04873 0.86158 0.0
C1747 C 0.56309 0.04164 0.8688 0.0
C1748 C 0.54502 0.04932 0.84294 0.0
C1749 C 0.52748 0.05538 0.83417 0.0
C1750 C 0.50839 0.04596 0.8355 0.0
C1751 C 0.49191 0.05187 0.82734 0.0
C1752 C 0.49435 0.06706 0.81766 0.0
C1753 C 0.51328 0.07633 0.81608 0.0
C1754 C 0.52981 0.07051 0.82425 0.0
C1755 C 0.60056 0.99652 0.81232 0.0
C1756 C 0.61056 0.00652 0.8001 0.0
C1757 C 0.58991 0.00606 0.82542 0.0
C1758 C 0.58893 0.02579 0.82655 0.0
C1759 C 0.59925 0.03594 0.81465 0.0
C1760 C 0.61014 0.02643 0.80163 0.0
C1761 C 0.57582 0.03529 0.83922 0.0
C1762 C 0.55976 0.04289 0.83208 0.0
C1763 C 0.5777 0.03493 0.85786 0.0
C1764 C 0.59483 0.02776 0.86622 0.0
C1765 C 0.61429 0.0351 0.86337 0.0
C1766 C 0.63037 0.0282 0.87116 0.0
C1767 C 0.62719 0.01403 0.88192 0.0
C1768 C 0.60791 0.00676 0.88495 0.0
C1769 C 0.59178 0.0136 0.87718 0.0
H1770 H 0.63966 0.0087 0.88794 0.0
H1771 H 0.48157 0.0716 0.81135 0.0
H1772 H 0.35556 0.30282 0.38107 0.0
H1773 H 0.34875 0.27823 0.39988 0.0
H1774 H 0.33903 0.23457 0.35265 0.0
H1775 H 0.3449 0.25918 0.3337 0.0
H1776 H 0.31165 0.22829 0.37531 0.0
H1777 H 0.3826 0.24238 0.37983 0.0
H1778 H 0.41466 0.26313 0.38591 0.0
H1779 H 0.40103 0.2805 0.44043 0.0
H1780 H 0.36876 0.26004 0.4346 0.0
H1781 H 0.32413 0.145 0.41203 0.0
H1782 H 0.3279 0.17226 0.39608 0.0
H1783 H 0.33066 0.21122 0.44625 0.0
H1784 H 0.32687 0.18389 0.46245 0.0
H1785 H 0.3602 0.22141 0.42405 0.0
H1786 H 0.28989 0.20507 0.41958 0.0
H1787 H 0.25832 0.1836 0.4131 0.0
H1788 H 0.27128 0.16968 0.35795 0.0
H1789 H 0.30308 0.19086 0.36415 0.0
C1790 C 0.35177 0.28801 0.37465 0.0
C1791 C 0.35083 0.28299 0.35584 0.0
C1792 C 0.34808 0.27393 0.38545 0.0
C1793 C 0.34362 0.2545 0.37771 0.0
C1794 C 0.34251 0.24946 0.35894 0.0
C1795 C 0.34608 0.26354 0.34813 0.0
C1796 C 0.34004 0.2394 0.3891 0.0
C1797 C 0.32237 0.22667 0.38584 0.0
C1798 C 0.35377 0.23758 0.40318 0.0
C1799 C 0.37318 0.24984 0.40673 0.0
C1800 C 0.38638 0.25074 0.39308 0.0
C1801 C 0.40459 0.26243 0.39648 0.0
C1802 C 0.40985 0.27317 0.41353 0.0
C1803 C 0.39692 0.2722 0.42722 0.0
C1804 C 0.37867 0.26055 0.42388 0.0
C1805 C 0.32548 0.15934 0.41973 0.0
C1806 C 0.32518 0.16225 0.43854 0.0
C1807 C 0.32755 0.17492 0.41055 0.0
C1808 C 0.32938 0.19376 0.41996 0.0
C1809 C 0.3292 0.19678 0.43874 0.0
C1810 C 0.32697 0.18115 0.44796 0.0
C1811 C 0.33196 0.21019 0.41007 0.0
C1812 C 0.34943 0.22315 0.41362 0.0
C1813 C 0.31811 0.21215 0.39617 0.0
C1814 C 0.29896 0.19944 0.39237 0.0
C1815 C 0.28609 0.19731 0.4061 0.0
C1816 C 0.26814 0.18522 0.40247 0.0
C1817 C 0.26282 0.17525 0.38513 0.0
C1818 C 0.27543 0.1774 0.37138 0.0
C1819 C 0.29341 0.18946 0.37494 0.0
H1820 H 0.24891 0.1659 0.38235 0.0
H1821 H 0.42396 0.28221 0.41614 0.0
H1822 H 0.56716 0.49537 0.93002 0.0
H1823 H 0.54559 0.50405 0.90691 0.0
H1824 H 0.53869 0.44576 0.87865 0.0
H1825 H 0.56151 0.43728 0.901 0.0
H1826 H 0.54165 0.46852 0.85532 0.0
H1827 H 0.50266 0.46425 0.90583 0.0
H1828 H 0.49453 0.47127 0.93741 0.0
H1829 H 0.4961 0.531 0.93366 0.0
H1830 H 0.50448 0.52436 0.9021 0.0
H1831 H 0.43475 0.48783 0.82965 0.0
H1832 H 0.4599 0.48062 0.85037 0.0
H1833 H 0.5055 0.50816 0.822 0.0
H1834 H 0.48009 0.51479 0.80051 0.0
H1835 H 0.48421 0.50175 0.87347 0.0
H1836 H 0.54855 0.48869 0.82803 0.0
H1837 H 0.55379 0.47722 0.79629 0.0
H1838 H 0.49611 0.44429 0.78945 0.0
H1839 H 0.49064 0.45536 0.82119 0.0
C1840 C 0.56132 0.48441 0.91878 0.0
C1841 C 0.56611 0.46556 0.91749 0.0
C1842 C 0.54876 0.48937 0.90565 0.0
C1843 C 0.54023 0.47551 0.89113 0.0
C1844 C 0.54503 0.45672 0.88973 0.0
C1845 C 0.55787 0.45181 0.90271 0.0
C1846 C 0.52604 0.48052 0.87762 0.0
C1847 C 0.5291 0.47581 0.85929 0.0
C1848 C 0.50948 0.4898 0.88271 0.0
C1849 C 0.5044 0.49384 0.90167 0.0
C1850 C 0.5014 0.4789 0.91178 0.0
C1851 C 0.49673 0.48281 0.92967 0.0
C1852 C 0.49485 0.50158 0.93755 0.0
C1853 C 0.49759 0.51647 0.92754 0.0
C1854 C 0.50229 0.51265 0.90965 0.0
C1855 C 0.45012 0.49238 0.82773 0.0
C1856 C 0.45542 0.50197 0.81345 0.0
C1857 C 0.46453 0.48826 0.83967 0.0
C1858 C 0.48466 0.49381 0.83782 0.0
C1859 C 0.49009 0.50347 0.82358 0.0
C1860 C 0.47558 0.50734 0.81136 0.0
C1861 C 0.49962 0.48956 0.85111 0.0
C1862 C 0.4968 0.49455 0.86945 0.0
C1863 C 0.51594 0.4799 0.84598 0.0
C1864 C 0.51911 0.47305 0.82691 0.0
C1865 C 0.53701 0.47897 0.81975 0.0
C1866 C 0.54002 0.47254 0.80176 0.0
C1867 C 0.52526 0.4601 0.79084 0.0
C1868 C 0.50749 0.45399 0.7979 0.0
C1869 C 0.50442 0.46036 0.81588 0.0
H1870 H 0.52761 0.45514 0.77692 0.0
H1871 H 0.49123 0.50457 0.9514 0.0
H1872 H 0.82653 0.76265 0.17073 0.0
H1873 H 0.83088 0.74801 0.13993 0.0
H1874 H 0.77376 0.71392 0.13759 0.0
H1875 H 0.76937 0.72846 0.16847 0.0
H1876 H 0.8006 0.69255 0.12403 0.0
H1877 H 0.78079 0.75335 0.1164 0.0
H1878 H 0.78249 0.78861 0.1222 0.0
H1879 H 0.84143 0.7941 0.10449 0.0
H1880 H 0.84019 0.75886 0.09881 0.0
H1881 H 0.79133 0.66032 0.03035 0.0
H1882 H 0.78587 0.67672 0.06024 0.0
H1883 H 0.84402 0.70903 0.06367 0.0
H1884 H 0.84956 0.69282 0.03365 0.0
H1885 H 0.81641 0.7315 0.07646 0.0
H1886 H 0.83643 0.67089 0.08463 0.0
H1887 H 0.83498 0.63564 0.07907 0.0
H1888 H 0.77567 0.62992 0.09593 0.0
H1889 H 0.77668 0.66515 0.10136 0.0
C1890 C 0.81481 0.75218 0.16359 0.0
C1891 C 0.79755 0.74677 0.17198 0.0
C1892 C 0.81731 0.74382 0.14599 0.0
C1893 C 0.80253 0.73005 0.13636 0.0
C1894 C 0.78535 0.72452 0.14476 0.0
C1895 C 0.78288 0.73281 0.1624 0.0
C1896 C 0.80514 0.72113 0.11766 0.0
C1897 C 0.80375 0.70106 0.11357 0.0
C1898 C 0.80975 0.73226 0.1041 0.0
C1899 C 0.81046 0.75346 0.10733 0.0
C1900 C 0.79416 0.76208 0.11386 0.0
C1901 C 0.79504 0.78206 0.11711 0.0
C1902 C 0.81207 0.79359 0.11376 0.0
C1903 C 0.82825 0.78515 0.10709 0.0
C1904 C 0.82746 0.76517 0.10384 0.0
C1905 C 0.80294 0.67099 0.0374 0.0
C1906 C 0.82095 0.67517 0.02965 0.0
C1907 C 0.79981 0.6803 0.05451 0.0
C1908 C 0.81464 0.6939 0.06427 0.0
C1909 C 0.8324 0.69854 0.05638 0.0
C1910 C 0.83556 0.68921 0.03925 0.0
C1911 C 0.81178 0.70295 0.08286 0.0
C1912 C 0.81318 0.72302 0.08692 0.0
C1913 C 0.80718 0.69184 0.09641 0.0
C1914 C 0.80656 0.67065 0.09323 0.0
C1915 C 0.82302 0.66211 0.08702 0.0
C1916 C 0.82229 0.64214 0.08391 0.0
C1917 C 0.80522 0.63055 0.0871 0.0
C1918 C 0.78887 0.63891 0.09344 0.0
C1919 C 0.78952 0.65888 0.09655 0.0
H1920 H 0.80468 0.61509 0.08468 0.0
H1921 H 0.81272 0.80906 0.11629 0.0
H1922 H 0.04607 0.98929 0.09064 0.0
H1923 H 0.0256 0.98475 0.11569 0.0
H1924 H 0.03983 0.04485 0.13779 0.0
H1925 H 0.06104 0.04929 0.11339 0.0
H1926 H 0.04102 0.02503 0.16374 0.0
H1927 H 0.99428 0.02533 0.11437 0.0
H1928 H 0.97835 0.01494 0.08386 0.0
H1929 H 0.96324 0.95793 0.09521 0.0
H1930 H 0.97932 0.96794 0.12573 0.0
H1931 H 0.9638 0.03273 0.22372 0.0
H1932 H 0.98447 0.03616 0.19853 0.0
H1933 H 0.97484 0.97486 0.18126 0.0
H1934 H 0.95423 0.97129 0.20638 0.0
H1935 H 0.97121 0.99466 0.15299 0.0
H1936 H 0.01768 0.99519 0.20288 0.0
H1937 H 0.03316 0.00632 0.23347 0.0
H1938 H 0.04822 0.06288 0.22105 0.0
H1939 H 0.03257 0.05215 0.19045 0.0
C1940 C 0.04499 0.00151 0.10091 0.0
C1941 C 0.05509 0.01971 0.0998 0.0
C1942 C 0.03309 0.99894 0.11516 0.0
C1943 C 0.03084 0.01453 0.12855 0.0
C1944 C 0.04118 0.0326 0.12763 0.0
C1945 C 0.05315 0.03516 0.11348 0.0
C1946 C 0.01783 0.01211 0.14359 0.0
C1947 C 0.02569 0.01861 0.16133 0.0
C1948 C 0.99789 0.00338 0.14059 0.0
C1949 C 0.98818 0.99734 0.12227 0.0
C1950 C 0.98769 0.01055 0.11031 0.0
C1951 C 0.97862 0.00473 0.09303 0.0
C1952 C 0.96984 0.98577 0.08758 0.0
C1953 C 0.97008 0.97261 0.09943 0.0
C1954 C 0.97915 0.97834 0.11673 0.0
C1955 C 0.96602 0.01998 0.21454 0.0
C1956 C 0.95739 0.00172 0.21714 0.0
C1957 C 0.97791 0.02196 0.20017 0.0
C1958 C 0.98136 0.00575 0.18807 0.0
C1959 C 0.97242 0.98757 0.19042 0.0
C1960 C 0.96068 0.98556 0.20485 0.0
C1961 C 0.9944 0.00769 0.17304 0.0
C1962 C 0.98655 0.00108 0.15534 0.0
C1963 C 0.0143 0.01644 0.17605 0.0
C1964 C 0.02377 0.02291 0.19443 0.0
C1965 C 0.02415 0.01004 0.20672 0.0
C1966 C 0.03298 0.01627 0.22405 0.0
C1967 C 0.04162 0.03531 0.22922 0.0
C1968 C 0.04149 0.04815 0.21704 0.0
C1969 C 0.03266 0.042 0.19969 0.0
H1970 H 0.04845 0.0401 0.24264 0.0
H1971 H 0.96282 0.9813 0.07419 0.0
H1972 H 0.29287 0.74931 0.17195 0.0
H1973 H 0.29401 0.76393 0.14478 0.0
H1974 H 0.28668 0.81858 0.17577 0.0
H1975 H 0.28654 0.80444 0.20312 0.0
H1976 H 0.25942 0.80596 0.1441 0.0
H1977 H 0.32906 0.81508 0.16214 0.0
H1978 H 0.36064 0.8046 0.17118 0.0
H1979 H 0.35806 0.76577 0.12126 0.0
H1980 H 0.3263 0.77582 0.11203 0.0
H1981 H 0.27267 0.85966 0.07197 0.0
H1982 H 0.27319 0.84836 0.101 0.0
H1983 H 0.29852 0.79836 0.07719 0.0
H1984 H 0.29906 0.81015 0.04873 0.0
H1985 H 0.3171 0.81045 0.10686 0.0
H1986 H 0.2475 0.79859 0.08884 0.0
H1987 H 0.2151 0.80695 0.07916 0.0
H1988 H 0.21613 0.84785 0.12759 0.0
H1989 H 0.24866 0.83987 0.13746 0.0
C1990 C 0.29197 0.76453 0.17312 0.0
C1991 C 0.28944 0.7756 0.18981 0.0
C1992 C 0.29244 0.77282 0.15752 0.0
C1993 C 0.29024 0.79229 0.15827 0.0
C1994 C 0.28817 0.80348 0.17489 0.0
C1995 C 0.28801 0.7953 0.1905 0.0
C1996 C 0.2897 0.8009 0.14165 0.0
C1997 C 0.27208 0.80719 0.13602 0.0
C1998 C 0.30607 0.80207 0.13098 0.0
C1999 C 0.3252 0.79606 0.13647 0.0
C2000 C 0.33513 0.80418 0.15316 0.0
C2001 C 0.35308 0.79834 0.1583 0.0
C2002 C 0.36132 0.78449 0.14682 0.0
C2003 C 0.35165 0.77648 0.13015 0.0
C2004 C 0.33368 0.78225 0.12495 0.0
C2005 C 0.27821 0.84621 0.07299 0.0
C2006 C 0.28589 0.83582 0.05813 0.0
C2007 C 0.27844 0.83969 0.08956 0.0
C2008 C 0.28577 0.82236 0.09137 0.0
C2009 C 0.29295 0.81183 0.07631 0.0
C2010 C 0.29318 0.81855 0.05998 0.0
C2011 C 0.28659 0.81524 0.1089 0.0
C2012 C 0.30434 0.80927 0.11482 0.0
C2013 C 0.27019 0.81404 0.11966 0.0
C2014 C 0.2506 0.81878 0.11379 0.0
C2015 C 0.24087 0.80946 0.09737 0.0
C2016 C 0.22248 0.81411 0.09185 0.0
C2017 C 0.21359 0.82797 0.10273 0.0
C2018 C 0.22305 0.83714 0.11916 0.0
C2019 C 0.24145 0.83255 0.12473 0.0
H2020 H 0.19936 0.83156 0.09843 0.0
H2021 H 0.37522 0.78 0.15082 0.0
H2022 H 0.99132 0.46757 0.08836 0.0
H2023 H 0.01213 0.46552 0.115 0.0
H2024 H 0.06437 0.47604 0.08616 0.0
H2025 H 0.04337 0.47708 0.05916 0.0
H2026 H 0.07021 0.45069 0.10549 0.0
H2027 H 0.04766 0.51167 0.11809 0.0
H2028 H 0.02364 0.53503 0.12086 0.0
H2029 H 0.99519 0.50727 0.16099 0.0
H2030 H 0.01887 0.48357 0.15828 0.0
H2031 H 0.1305 0.48129 0.19037 0.0
H2032 H 0.11277 0.48208 0.16153 0.0
H2033 H 0.06177 0.44833 0.17723 0.0
H2034 H 0.07948 0.44698 0.20581 0.0
H2035 H 0.05757 0.48712 0.16447 0.0
H2036 H 0.08163 0.42516 0.14948 0.0
H2037 H 0.10789 0.40416 0.14657 0.0
H2038 H 0.1367 0.43799 0.11076 0.0
H2039 H 0.11074 0.45937 0.11369 0.0
C2040 C 0.00726 0.46945 0.08777 0.0
C2041 C 0.01582 0.47263 0.07184 0.0
C2042 C 0.01916 0.46839 0.103 0.0
C2043 C 0.03989 0.47109 0.10278 0.0
C2044 C 0.04844 0.47399 0.08673 0.0
C2045 C 0.03649 0.47463 0.07134 0.0
C2046 C 0.05252 0.47078 0.11928 0.0
C2047 C 0.06758 0.4589 0.11831 0.0
C2048 C 0.04918 0.48144 0.13611 0.0
C2049 C 0.03495 0.49574 0.13787 0.0
C2050 C 0.0362 0.51047 0.12742 0.0
C2051 C 0.02266 0.52378 0.12899 0.0
C2052 C 0.00787 0.52261 0.14106 0.0
C2053 C 0.00664 0.50815 0.15163 0.0
C2054 C 0.02014 0.49478 0.1501 0.0
C2055 C 0.11558 0.47387 0.18759 0.0
C2056 C 0.10637 0.46406 0.20034 0.0
C2057 C 0.10552 0.47432 0.17114 0.0
C2058 C 0.08602 0.46526 0.16735 0.0
C2059 C 0.07685 0.45536 0.17996 0.0
C2060 C 0.08701 0.45455 0.19623 0.0
C2061 C 0.0748 0.46683 0.15059 0.0
C2062 C 0.06012 0.47903 0.15157 0.0
C2063 C 0.07882 0.45686 0.13376 0.0
C2064 C 0.09439 0.444 0.132 0.0
C2065 C 0.09368 0.42825 0.14116 0.0
C2066 C 0.10848 0.41624 0.13946 0.0
C2067 C 0.12399 0.41977 0.12854 0.0
C2068 C 0.1247 0.43529 0.11925 0.0
C2069 C 0.10994 0.44735 0.12091 0.0
H2070 H 0.13543 0.41046 0.12723 0.0
H2071 H 0.9974 0.53292 0.14226 0.0
H2072 H 0.35749 0.68503 0.23121 0.0
H2073 H 0.38885 0.68492 0.24827 0.0
H2074 H 0.38217 0.73977 0.27935 0.0
H2075 H 0.35074 0.73991 0.26242 0.0
H2076 H 0.42057 0.73722 0.27118 0.0
H2077 H 0.36788 0.69851 0.29479 0.0
H2078 H 0.34031 0.67214 0.29189 0.0
H2079 H 0.37974 0.63124 0.27478 0.0
H2080 H 0.4075 0.65743 0.2773 0.0
H2081 H 0.47902 0.74479 0.34904 0.0
H2082 H 0.44909 0.73955 0.32907 0.0
H2083 H 0.46449 0.68477 0.30467 0.0
H2084 H 0.49453 0.68983 0.3252 0.0
H2085 H 0.42357 0.68448 0.30663 0.0
H2086 H 0.47671 0.72237 0.28494 0.0
H2087 H 0.50439 0.74847 0.2868 0.0
H2088 H 0.46457 0.79031 0.29895 0.0
H2089 H 0.43669 0.76444 0.29745 0.0
C2090 C 0.36285 0.69719 0.24152 0.0
C2091 C 0.35154 0.71241 0.24558 0.0
C2092 C 0.38073 0.69708 0.25128 0.0
C2093 C 0.38764 0.71214 0.26533 0.0
C2094 C 0.37707 0.72795 0.26862 0.0
C2095 C 0.35916 0.72808 0.25885 0.0
C2096 C 0.40525 0.71103 0.27727 0.0
C2097 C 0.42116 0.72577 0.27902 0.0
C2098 C 0.40629 0.69573 0.28708 0.0
C2099 C 0.38973 0.67994 0.28607 0.0
C2100 C 0.37065 0.6839 0.29032 0.0
C2101 C 0.35499 0.66899 0.28875 0.0
C2102 C 0.35826 0.65003 0.28312 0.0
C2103 C 0.37722 0.64594 0.27912 0.0
C2104 C 0.39293 0.66081 0.28063 0.0
C2105 C 0.47578 0.73139 0.33974 0.0
C2106 C 0.48912 0.71777 0.33856 0.0
C2107 C 0.45873 0.72846 0.32826 0.0
C2108 C 0.45483 0.71202 0.31504 0.0
C2109 C 0.46731 0.69764 0.31469 0.0
C2110 C 0.48439 0.70048 0.32644 0.0
C2111 C 0.43867 0.71095 0.30086 0.0
C2112 C 0.42307 0.69581 0.29865 0.0
C2113 C 0.43794 0.72581 0.29048 0.0
C2114 C 0.45463 0.74145 0.2912 0.0
C2115 C 0.47388 0.73713 0.28812 0.0
C2116 C 0.4896 0.75189 0.2891 0.0
C2117 C 0.48624 0.77104 0.29302 0.0
C2118 C 0.46714 0.77547 0.29593 0.0
C2119 C 0.45137 0.76076 0.29499 0.0
H2120 H 0.49843 0.78244 0.29377 0.0
H2121 H 0.34611 0.63851 0.28188 0.0
H2122 H 0.97654 0.38386 0.9769 0.0
H2123 H 0.98927 0.35293 0.96964 0.0
H2124 H 0.04732 0.37953 0.99158 0.0
H2125 H 0.03446 0.41037 0.99939 0.0
H2126 H 0.03964 0.36137 0.95149 0.0
H2127 H 0.03283 0.3494 0.01187 0.0
H2128 H 0.01469 0.34639 0.03889 0.0
H2129 H 0.97325 0.30116 0.0086 0.0
H2130 H 0.99096 0.30411 0.98131 0.0
H2131 H 0.08149 0.28227 0.91496 0.0
H2132 H 0.07559 0.30756 0.93929 0.0
H2133 H 0.01628 0.27931 0.94135 0.0
H2134 H 0.02276 0.25329 0.9179 0.0
H2135 H 0.02741 0.29888 0.97291 0.0
H2136 H 0.02755 0.31304 0.91313 0.0
H2137 H 0.04102 0.31594 0.88387 0.0
H2138 H 0.08904 0.35709 0.91004 0.0
H2139 H 0.07599 0.35421 0.93949 0.0
C2140 C 0.99184 0.38288 0.98071 0.0
C2141 C 0.00457 0.39933 0.98873 0.0
C2142 C 0.99907 0.36527 0.97661 0.0
C2143 C 0.01917 0.364 0.98019 0.0
C2144 C 0.03171 0.38024 0.98894 0.0
C2145 C 0.02438 0.39777 0.99339 0.0
C2146 C 0.02755 0.34672 0.97206 0.0
C2147 C 0.03745 0.3478 0.95641 0.0
C2148 C 0.02379 0.32893 0.9781 0.0
C2149 C 0.01313 0.3271 0.9945 0.0
C2150 C 0.01973 0.33894 0.01092 0.0
C2151 C 0.00955 0.33722 0.0263 0.0
C2152 C 0.9928 0.32363 0.02545 0.0
C2153 C 0.98622 0.3117 0.00923 0.0
C2154 C 0.99634 0.31337 0.99381 0.0
C2155 C 0.06751 0.28112 0.92116 0.0
C2156 C 0.05252 0.26599 0.9146 0.0
C2157 C 0.06406 0.29563 0.93494 0.0
C2158 C 0.04524 0.29572 0.9417 0.0
C2159 C 0.03087 0.27966 0.93627 0.0
C2160 C 0.03456 0.26479 0.92289 0.0
C2161 C 0.03971 0.31352 0.95231 0.0
C2162 C 0.03008 0.31253 0.96822 0.0
C2163 C 0.04309 0.33141 0.9462 0.0
C2164 C 0.05094 0.33324 0.92852 0.0
C2165 C 0.04105 0.32261 0.91265 0.0
C2166 C 0.0486 0.32426 0.89603 0.0
C2167 C 0.06591 0.33665 0.8951 0.0
C2168 C 0.07566 0.34746 0.91078 0.0
C2169 C 0.0682 0.34583 0.92744 0.0
H2170 H 0.07173 0.33791 0.88223 0.0
H2171 H 0.98495 0.32231 0.03738 0.0
H2172 H 0.7535 0.72247 0.29086 0.0
H2173 H 0.72307 0.72183 0.30659 0.0
H2174 H 0.69286 0.73952 0.26191 0.0
H2175 H 0.72304 0.73956 0.24575 0.0
H2176 H 0.68502 0.75914 0.29596 0.0
H2177 H 0.68606 0.69421 0.26561 0.0
H2178 H 0.70082 0.66426 0.25797 0.0
H2179 H 0.70362 0.65766 0.31343 0.0
H2180 H 0.68914 0.68775 0.32144 0.0
H2181 H 0.58597 0.73938 0.31259 0.0
H2182 H 0.61743 0.73864 0.29882 0.0
H2183 H 0.64034 0.71242 0.34173 0.0
H2184 H 0.60839 0.71258 0.35539 0.0
H2185 H 0.65337 0.69747 0.31066 0.0
H2186 H 0.65163 0.76093 0.34153 0.0
H2187 H 0.63783 0.79123 0.35033 0.0
H2188 H 0.63781 0.80142 0.2959 0.0
H2189 H 0.65135 0.77102 0.28672 0.0
C2190 C 0.74038 0.72614 0.28429 0.0
C2191 C 0.74073 0.73087 0.26691 0.0
C2192 C 0.72302 0.72584 0.29336 0.0
C2193 C 0.70567 0.7304 0.28532 0.0
C2194 C 0.70611 0.73592 0.26833 0.0
C2195 C 0.72344 0.73606 0.25916 0.0
C2196 C 0.68693 0.729 0.29445 0.0
C2197 C 0.67797 0.74564 0.29901 0.0
C2198 C 0.67813 0.71148 0.29896 0.0
C2199 C 0.68672 0.69333 0.29415 0.0
C2200 C 0.68998 0.68646 0.2762 0.0
C2201 C 0.69827 0.66944 0.27179 0.0
C2202 C 0.70321 0.65909 0.28521 0.0
C2203 C 0.69982 0.66571 0.30305 0.0
C2204 C 0.69156 0.68273 0.30753 0.0
C2205 C 0.59762 0.73327 0.31904 0.0
C2206 C 0.59478 0.72622 0.33519 0.0
C2207 C 0.61566 0.73296 0.31119 0.0
C2208 C 0.63147 0.726 0.31949 0.0
C2209 C 0.62841 0.71804 0.33516 0.0
C2210 C 0.61016 0.7181 0.34294 0.0
C2211 C 0.65122 0.7276 0.31195 0.0
C2212 C 0.66043 0.71102 0.30772 0.0
C2213 C 0.66041 0.74525 0.30794 0.0
C2214 C 0.65235 0.76361 0.31341 0.0
C2215 C 0.64855 0.76956 0.33141 0.0
C2216 C 0.64079 0.78676 0.33647 0.0
C2217 C 0.63691 0.79822 0.32367 0.0
C2218 C 0.64081 0.79252 0.30579 0.0
C2219 C 0.64855 0.77531 0.30066 0.0
H2220 H 0.6309 0.81154 0.32762 0.0
H2221 H 0.70962 0.64592 0.28177 0.0
H2222 H 0.04946 0.07689 0.01626 0.0
H2223 H 0.04158 0.08975 0.98891 0.0
H2224 H 0.10217 0.11595 0.99 0.0
H2225 H 0.10979 0.10366 0.01758 0.0
H2226 H 0.07948 0.14137 0.98649 0.0
H2227 H 0.08031 0.07685 0.95693 0.0
H2228 H 0.07126 0.04171 0.95123 0.0
H2229 H 0.01041 0.04865 0.94073 0.0
H2230 H 0.01905 0.08386 0.94661 0.0
H2231 H 0.07461 0.17429 0.90345 0.0
H2232 H 0.08206 0.15391 0.92536 0.0
H2233 H 0.01973 0.13918 0.93068 0.0
H2234 H 0.01209 0.15971 0.90883 0.0
H2235 H 0.04257 0.10734 0.93012 0.0
H2236 H 0.04252 0.17215 0.9607 0.0
H2237 H 0.05234 0.20719 0.96578 0.0
H2238 H 0.11323 0.19901 0.9738 0.0
H2239 H 0.10379 0.16389 0.96849 0.0
C2240 C 0.06116 0.08498 0.01035 0.0
C2241 C 0.08022 0.08929 0.019 0.0
C2242 C 0.05667 0.09235 0.99471 0.0
C2243 C 0.07127 0.10387 0.98728 0.0
C2244 C 0.09058 0.10725 0.99546 0.0
C2245 C 0.09498 0.10013 0.01117 0.0
C2246 C 0.06622 0.11382 0.97203 0.0
C2247 C 0.07171 0.13378 0.97407 0.0
C2248 C 0.05556 0.10416 0.95593 0.0
C2249 C 0.05031 0.083 0.95239 0.0
C2250 C 0.06497 0.07089 0.95355 0.0
C2251 C 0.05992 0.05095 0.95026 0.0
C2252 C 0.04026 0.04295 0.94567 0.0
C2253 C 0.02562 0.05487 0.94431 0.0
C2254 C 0.0306 0.07482 0.94761 0.0
C2255 C 0.06244 0.16654 0.90906 0.0
C2256 C 0.04274 0.16878 0.90445 0.0
C2257 C 0.06674 0.15489 0.92162 0.0
C2258 C 0.05146 0.14513 0.92976 0.0
C2259 C 0.03175 0.14657 0.92456 0.0
C2260 C 0.02742 0.15838 0.91212 0.0
C2261 C 0.05615 0.13465 0.94463 0.0
C2262 C 0.05047 0.11475 0.94254 0.0
C2263 C 0.06678 0.14428 0.96067 0.0
C2264 C 0.07247 0.16539 0.96401 0.0
C2265 C 0.05802 0.17782 0.9634 0.0
C2266 C 0.06351 0.1977 0.96634 0.0
C2267 C 0.0834 0.20532 0.97006 0.0
C2268 C 0.09783 0.19308 0.97089 0.0
C2269 C 0.09242 0.17319 0.96793 0.0
H2270 H 0.08763 0.22071 0.97234 0.0
H2271 H 0.03638 0.02752 0.94312 0.0
H2272 H 0.36162 0.31707 0.28438 0.0
H2273 H 0.38192 0.31233 0.25869 0.0
H2274 H 0.42353 0.28777 0.28999 0.0
H2275 H 0.40352 0.29292 0.31591 0.0
H2276 H 0.44224 0.31331 0.27126 0.0
H2277 H 0.3921 0.25907 0.25862 0.0
H2278 H 0.35806 0.24213 0.25467 0.0
H2279 H 0.34484 0.27229 0.21163 0.0
H2280 H 0.37873 0.28962 0.21549 0.0
H2281 H 0.49349 0.27931 0.1941 0.0
H2282 H 0.47554 0.28157 0.22149 0.0
H2283 H 0.42892 0.30475 0.19489 0.0
H2284 H 0.44648 0.30224 0.16754 0.0
H2285 H 0.41379 0.27744 0.21218 0.0
H2286 H 0.46322 0.33314 0.22614 0.0
H2287 H 0.49717 0.35031 0.23023 0.0
H2288 H 0.51168 0.31739 0.27077 0.0
H2289 H 0.47786 0.29985 0.26675 0.0
C2290 C 0.37513 0.31073 0.28582 0.0
C2291 C 0.38092 0.30531 0.30216 0.0
C2292 C 0.38664 0.30789 0.27108 0.0
C2293 C 0.40415 0.2995 0.27236 0.0
C2294 C 0.41005 0.29419 0.28869 0.0
C2295 C 0.39851 0.29699 0.30343 0.0
C2296 C 0.41637 0.29654 0.25669 0.0
C2297 C 0.43613 0.3052 0.2584 0.0
C2298 C 0.4083 0.28622 0.23986 0.0
C2299 C 0.38792 0.27577 0.23745 0.0
C2300 C 0.38189 0.2622 0.2484 0.0
C2301 C 0.36263 0.25251 0.24616 0.0
C2302 C 0.34928 0.25616 0.23294 0.0
C2303 C 0.35519 0.26949 0.22189 0.0
C2304 C 0.37443 0.27924 0.22408 0.0
C2305 C 0.47948 0.285 0.19414 0.0
C2306 C 0.47143 0.29057 0.1786 0.0
C2307 C 0.46925 0.28632 0.20982 0.0
C2308 C 0.4509 0.29341 0.21028 0.0
C2309 C 0.443 0.29916 0.19485 0.0
C2310 C 0.45313 0.29777 0.17921 0.0
C2311 C 0.43957 0.29453 0.22662 0.0
C2312 C 0.41996 0.28545 0.22505 0.0
C2313 C 0.44778 0.30448 0.24356 0.0
C2314 C 0.46809 0.31504 0.246 0.0
C2315 C 0.4737 0.32946 0.23582 0.0
C2316 C 0.49291 0.33928 0.23814 0.0
C2317 C 0.50659 0.3349 0.25071 0.0
C2318 C 0.50107 0.32074 0.26102 0.0
C2319 C 0.48189 0.31086 0.25873 0.0
H2320 H 0.52146 0.34252 0.25249 0.0
H2321 H 0.33438 0.24864 0.23122 0.0
H2322 H 0.61117 0.37381 0.99155 0.0
H2323 H 0.60607 0.36365 0.0206 0.0
H2324 H 0.55704 0.39656 0.02731 0.0
H2325 H 0.56266 0.40732 0.99857 0.0
H2326 H 0.57563 0.39778 0.05876 0.0
H2327 H 0.55081 0.34758 0.00952 0.0
H2328 H 0.55288 0.325 0.98156 0.0
H2329 H 0.59739 0.29902 0.00747 0.0
H2330 H 0.59578 0.32165 0.03553 0.0
H2331 H 0.50985 0.34079 0.10528 0.0
H2332 H 0.52799 0.35956 0.08553 0.0
H2333 H 0.57802 0.32891 0.09142 0.0
H2334 H 0.55999 0.31014 0.11142 0.0
H2335 H 0.56385 0.32717 0.05595 0.0
H2336 H 0.58355 0.37526 0.10716 0.0
H2337 H 0.57893 0.39738 0.13475 0.0
H2338 H 0.541 0.42674 0.10487 0.0
H2339 H 0.54514 0.40461 0.07713 0.0
C2340 C 0.59953 0.3791 0.9994 0.0
C2341 C 0.58718 0.3912 0.99279 0.0
C2342 C 0.59657 0.37325 0.01595 0.0
C2343 C 0.58086 0.37895 0.02597 0.0
C2344 C 0.56922 0.39191 0.01983 0.0
C2345 C 0.57241 0.39805 0.0034 0.0
C2346 C 0.57554 0.37028 0.04204 0.0
C2347 C 0.57297 0.38235 0.05813 0.0
C2348 C 0.57241 0.35011 0.04137 0.0
C2349 C 0.57334 0.33645 0.02454 0.0
C2350 C 0.56114 0.33714 0.00921 0.0
C2351 C 0.56222 0.32432 0.99335 0.0
C2352 C 0.57531 0.31062 0.99272 0.0
C2353 C 0.5873 0.30967 0.00797 0.0
C2354 C 0.58631 0.32248 0.02385 0.0
C2355 C 0.5249 0.33835 0.10273 0.0
C2356 C 0.53345 0.3239 0.10983 0.0
C2357 C 0.53528 0.34916 0.09149 0.0
C2358 C 0.55436 0.34564 0.08701 0.0
C2359 C 0.56333 0.33188 0.09476 0.0
C2360 C 0.55304 0.32122 0.10624 0.0
C2361 C 0.56373 0.35465 0.07259 0.0
C2362 C 0.56692 0.34261 0.05672 0.0
C2363 C 0.56707 0.37479 0.07341 0.0
C2364 C 0.56456 0.38818 0.09007 0.0
C2365 C 0.57409 0.38633 0.10649 0.0
C2366 C 0.57158 0.3989 0.12216 0.0
C2367 C 0.55965 0.41343 0.12157 0.0
C2368 C 0.55023 0.41546 0.10531 0.0
C2369 C 0.55268 0.40293 0.0896 0.0
H2370 H 0.55773 0.42315 0.13372 0.0
H2371 H 0.57612 0.3007 0.98044 0.0
H2372 H 0.71285 0.25791 0.25474 0.0
H2373 H 0.67934 0.26295 0.24477 0.0
H2374 H 0.68397 0.22649 0.19425 0.0
H2375 H 0.71724 0.22142 0.20414 0.0
H2376 H 0.6694 0.27967 0.21587 0.0
H2377 H 0.63852 0.20287 0.17907 0.0
H2378 H 0.64033 0.16927 0.18263 0.0
H2379 H 0.65363 0.18687 0.23932 0.0
H2380 H 0.65162 0.22053 0.23615 0.0
H2381 H 0.59872 0.28033 0.14508 0.0
H2382 H 0.62655 0.27388 0.16372 0.0
H2383 H 0.58608 0.25029 0.19902 0.0
H2384 H 0.55806 0.25668 0.18041 0.0
H2385 H 0.61536 0.22778 0.19085 0.0
H2386 H 0.61079 0.29357 0.21273 0.0
H2387 H 0.60824 0.3274 0.21056 0.0
H2388 H 0.66424 0.33226 0.187 0.0
H2389 H 0.667 0.29837 0.18879 0.0
C2390 C 0.70653 0.25074 0.24165 0.0
C2391 C 0.71764 0.23936 0.23017 0.0
C2392 C 0.68747 0.2537 0.23593 0.0
C2393 C 0.67913 0.24503 0.2188 0.0
C2394 C 0.69001 0.23316 0.20759 0.0
C2395 C 0.70906 0.23038 0.2132 0.0
C2396 C 0.65967 0.24928 0.21198 0.0
C2397 C 0.65752 0.26835 0.21053 0.0
C2398 C 0.64404 0.23453 0.20527 0.0
C2399 C 0.64506 0.21426 0.20733 0.0
C2400 C 0.64173 0.19957 0.19231 0.0
C2401 C 0.64281 0.18051 0.19426 0.0
C2402 C 0.64714 0.17594 0.21118 0.0
C2403 C 0.65035 0.19043 0.22621 0.0
C2404 C 0.64927 0.20951 0.22433 0.0
C2405 C 0.5957 0.27376 0.1568 0.0
C2406 C 0.57615 0.26907 0.16127 0.0
C2407 C 0.61164 0.27016 0.16749 0.0
C2408 C 0.60839 0.26179 0.18287 0.0
C2409 C 0.58891 0.25681 0.18725 0.0
C2410 C 0.57293 0.26053 0.17661 0.0
C2411 C 0.62543 0.25808 0.19418 0.0
C2412 C 0.62713 0.23912 0.1964 0.0
C2413 C 0.64057 0.27295 0.2018 0.0
C2414 C 0.63903 0.29338 0.20078 0.0
C2415 C 0.6225 0.30181 0.20697 0.0
C2416 C 0.62103 0.32101 0.20583 0.0
C2417 C 0.63605 0.33197 0.19862 0.0
C2418 C 0.65261 0.32376 0.19257 0.0
C2419 C 0.65415 0.30456 0.19367 0.0
H2420 H 0.63489 0.34682 0.19774 0.0
H2421 H 0.64798 0.16118 0.21266 0.0
H2422 H 0.43164 0.10049 0.99742 0.0
H2423 H 0.44175 0.12822 0.021 0.0
H2424 H 0.50289 0.12547 0.01022 0.0
H2425 H 0.49279 0.09773 0.9863 0.0
H2426 H 0.49218 0.13079 0.04937 0.0
H2427 H 0.48706 0.1574 0.99491 0.0
H2428 H 0.47067 0.16125 0.9662 0.0
H2429 H 0.42157 0.18095 0.99379 0.0
H2430 H 0.43753 0.1769 0.02266 0.0
H2431 H 0.52264 0.22409 0.10233 0.0
H2432 H 0.51883 0.19486 0.07979 0.0
H2433 H 0.45692 0.19989 0.07061 0.0
H2434 H 0.46082 0.22935 0.09253 0.0
H2435 H 0.472 0.19339 0.04019 0.0
H2436 H 0.47477 0.16524 0.09395 0.0
H2437 H 0.48921 0.16013 0.12305 0.0
H2438 H 0.54049 0.14246 0.09779 0.0
H2439 H 0.52646 0.14769 0.06857 0.0
C2440 C 0.44725 0.10568 1.00019 0.0
C2441 C 0.46146 0.09699 0.99009 0.0
C2442 C 0.45299 0.12151 0.01361 0.0
C2443 C 0.47303 0.12882 0.0173 0.0
C2444 C 0.48735 0.11994 0.00755 0.0
C2445 C 0.48157 0.10424 0.99388 0.0
C2446 C 0.47871 0.14626 0.03088 0.0
C2447 C 0.48814 0.14461 0.04733 0.0
C2448 C 0.47298 0.16407 0.02824 0.0
C2449 C 0.46342 0.16668 0.01093 0.0
C2450 C 0.47269 0.16238 0.99484 0.0
C2451 C 0.46349 0.16464 0.97854 0.0
C2452 C 0.44507 0.1713 0.97816 0.0
C2453 C 0.43583 0.17577 0.9941 0.0
C2454 C 0.44496 0.17351 0.01044 0.0
C2455 C 0.50818 0.21881 0.09564 0.0
C2456 C 0.49204 0.22906 0.09915 0.0
C2457 C 0.506 0.20207 0.08278 0.0
C2458 C 0.48755 0.19509 0.0735 0.0
C2459 C 0.47133 0.20504 0.07746 0.0
C2460 C 0.47357 0.22186 0.09006 0.0
C2461 C 0.48512 0.178 0.05906 0.0
C2462 C 0.47629 0.17969 0.04233 0.0
C2463 C 0.4912 0.1602 0.06157 0.0
C2464 C 0.49967 0.15707 0.07912 0.0
C2465 C 0.4892 0.16042 0.09463 0.0
C2466 C 0.49729 0.15747 0.11114 0.0
C2467 C 0.51578 0.15104 0.11228 0.0
C2468 C 0.52619 0.14748 0.0969 0.0
C2469 C 0.51817 0.15042 0.08036 0.0
H2470 H 0.52202 0.14876 0.12507 0.0
H2471 H 0.43798 0.17304 0.96553 0.0
H2472 H 0.28857 0.31198 0.73662 0.0
H2473 H 0.30239 0.34604 0.74328 0.0
H2474 H 0.34965 0.33459 0.7089 0.0
H2475 H 0.3363 0.30067 0.70261 0.0
H2476 H 0.36358 0.35761 0.73934 0.0
H2477 H 0.31038 0.35504 0.69468 0.0
H2478 H 0.27597 0.34735 0.68166 0.0
H2479 H 0.25634 0.38348 0.72654 0.0
H2480 H 0.29062 0.39118 0.73996 0.0
H2481 H 0.40041 0.45381 0.73476 0.0
H2482 H 0.38478 0.42073 0.72462 0.0
H2483 H 0.33725 0.43079 0.75904 0.0
H2484 H 0.35252 0.46377 0.76901 0.0
H2485 H 0.3234 0.40854 0.72775 0.0
H2486 H 0.37612 0.41014 0.7729 0.0
H2487 H 0.41043 0.41786 0.7862 0.0
H2488 H 0.43079 0.38341 0.74062 0.0
H2489 H 0.39661 0.3757 0.72693 0.0
C2490 C 0.30199 0.31674 0.73062 0.0
C2491 C 0.31121 0.30369 0.71893 0.0
C2492 C 0.30977 0.3362 0.7343 0.0
C2493 C 0.3269 0.34291 0.72637 0.0
C2494 C 0.33638 0.32979 0.71509 0.0
C2495 C 0.32862 0.31042 0.71139 0.0
C2496 C 0.33511 0.36355 0.72977 0.0
C2497 C 0.35486 0.36871 0.73658 0.0
C2498 C 0.32365 0.37809 0.72648 0.0
C2499 C 0.30304 0.37352 0.71841 0.0
C2500 C 0.2987 0.36122 0.70185 0.0
C2501 C 0.27923 0.35688 0.69438 0.0
C2502 C 0.26397 0.36488 0.70329 0.0
C2503 C 0.26817 0.37727 0.71967 0.0
C2504 C 0.28762 0.38164 0.7272 0.0
C2505 C 0.38644 0.44908 0.7399 0.0
C2506 C 0.37784 0.46137 0.75284 0.0
C2507 C 0.37758 0.43014 0.73418 0.0
C2508 C 0.36003 0.42319 0.74134 0.0
C2509 C 0.35082 0.43579 0.7534 0.0
C2510 C 0.35964 0.45466 0.75912 0.0
C2511 C 0.35187 0.40255 0.73727 0.0
C2512 C 0.33213 0.3974 0.73041 0.0
C2513 C 0.36332 0.388 0.74054 0.0
C2514 C 0.38385 0.39252 0.7488 0.0
C2515 C 0.38794 0.40433 0.76565 0.0
C2516 C 0.40735 0.40868 0.77327 0.0
C2517 C 0.42278 0.40118 0.76424 0.0
C2518 C 0.41882 0.38925 0.74759 0.0
C2519 C 0.39943 0.38487 0.73989 0.0
H2520 H 0.43781 0.40456 0.77016 0.0
H2521 H 0.24891 0.36151 0.69749 0.0
H2522 H 0.28394 0.67126 0.75862 0.0
H2523 H 0.30624 0.64696 0.75439 0.0
H2524 H 0.33463 0.66873 0.80707 0.0
H2525 H 0.31337 0.69408 0.81086 0.0
H2526 H 0.3616 0.66084 0.78568 0.0
H2527 H 0.30017 0.62614 0.79692 0.0
H2528 H 0.26442 0.61464 0.79264 0.0
H2529 H 0.27166 0.58803 0.73873 0.0
H2530 H 0.30743 0.59959 0.74261 0.0
H2531 H 0.39747 0.57511 0.8041 0.0
H2532 H 0.38064 0.60331 0.80265 0.0
H2533 H 0.37064 0.58675 0.74529 0.0
H2534 H 0.38809 0.55862 0.74662 0.0
H2535 H 0.33553 0.59214 0.76603 0.0
H2536 H 0.39911 0.62504 0.75772 0.0
H2537 H 0.43479 0.6355 0.7647 0.0
H2538 H 0.42316 0.66432 0.81667 0.0
H2539 H 0.38741 0.65378 0.81011 0.0
C2540 C 0.29507 0.6711 0.76927 0.0
C2541 C 0.29678 0.68477 0.7851 0.0
C2542 C 0.30768 0.65695 0.76691 0.0
C2543 C 0.32201 0.65575 0.7805 0.0
C2544 C 0.3237 0.66928 0.79637 0.0
C2545 C 0.3113 0.68365 0.79863 0.0
C2546 C 0.3353 0.6405 0.77814 0.0
C2547 C 0.35583 0.64581 0.78154 0.0
C2548 C 0.32793 0.62086 0.77238 0.0
C2549 C 0.30643 0.61392 0.76999 0.0
C2550 C 0.29411 0.61797 0.7841 0.0
C2551 C 0.27385 0.61141 0.78176 0.0
C2552 C 0.26577 0.60066 0.76541 0.0
C2553 C 0.27794 0.59639 0.75138 0.0
C2554 C 0.2982 0.60293 0.75364 0.0
C2555 C 0.39215 0.57776 0.79112 0.0
C2556 C 0.3941 0.56474 0.77546 0.0
C2557 C 0.38254 0.59386 0.79031 0.0
C2558 C 0.37438 0.59708 0.77388 0.0
C2559 C 0.37692 0.58451 0.75809 0.0
C2560 C 0.38697 0.56856 0.75884 0.0
C2561 C 0.36165 0.61253 0.77369 0.0
C2562 C 0.34124 0.60722 0.76991 0.0
C2563 C 0.36908 0.63208 0.77949 0.0
C2564 C 0.39057 0.63848 0.78347 0.0
C2565 C 0.40417 0.63346 0.7707 0.0
C2566 C 0.42441 0.63944 0.77457 0.0
C2567 C 0.43124 0.65053 0.79113 0.0
C2568 C 0.41784 0.65571 0.80385 0.0
C2569 C 0.39758 0.64976 0.80005 0.0
H2570 H 0.44692 0.65515 0.7941 0.0
H2571 H 0.25008 0.59559 0.76362 0.0
H2572 H 0.9082 0.54974 0.48595 0.0
H2573 H 0.88492 0.52528 0.49587 0.0
H2574 H 0.90635 0.48141 0.45842 0.0
H2575 H 0.92964 0.50585 0.44838 0.0
H2576 H 0.86671 0.47528 0.4586 0.0
H2577 H 0.92213 0.4895 0.50292 0.0
H2578 H 0.94584 0.51132 0.52479 0.0
H2579 H 0.89799 0.52892 0.55552 0.0
H2580 H 0.87397 0.50737 0.53368 0.0
H2581 H 0.8483 0.4007 0.5201 0.0
H2582 H 0.86817 0.42898 0.5128 0.0
H2583 H 0.81519 0.44985 0.4949 0.0
H2584 H 0.79511 0.42151 0.50217 0.0
H2585 H 0.86983 0.46821 0.52286 0.0
H2586 H 0.82591 0.46767 0.45597 0.0
H2587 H 0.80365 0.44514 0.43336 0.0
H2588 H 0.83151 0.39796 0.44708 0.0
H2589 H 0.8541 0.42023 0.46957 0.0
C2590 C 0.90801 0.53487 0.47988 0.0
C2591 C 0.9209 0.52969 0.46651 0.0
C2592 C 0.89466 0.52092 0.48553 0.0
C2593 C 0.89408 0.50149 0.47806 0.0
C2594 C 0.90655 0.49633 0.46437 0.0
C2595 C 0.91984 0.51029 0.45864 0.0
C2596 C 0.88089 0.48645 0.48485 0.0
C2597 C 0.86733 0.47381 0.47266 0.0
C2598 C 0.88179 0.48442 0.50318 0.0
C2599 C 0.89625 0.49694 0.5166 0.0
C2600 C 0.91667 0.49808 0.51431 0.0
C2601 C 0.93016 0.5104 0.52669 0.0
C2602 C 0.92342 0.52154 0.54151 0.0
C2603 C 0.90318 0.5203 0.54402 0.0
C2604 C 0.88963 0.50801 0.53166 0.0
C2605 C 0.84081 0.41142 0.51485 0.0
C2606 C 0.82012 0.40875 0.51156 0.0
C2607 C 0.85221 0.42763 0.51075 0.0
C2608 C 0.84318 0.44139 0.50312 0.0
C2609 C 0.82245 0.43928 0.50063 0.0
C2610 C 0.811 0.42312 0.50485 0.0
C2611 C 0.85561 0.45712 0.49662 0.0
C2612 C 0.86905 0.46986 0.50884 0.0
C2613 C 0.85479 0.45909 0.47828 0.0
C2614 C 0.84152 0.4456 0.46459 0.0
C2615 C 0.82731 0.45249 0.45411 0.0
C2616 C 0.81464 0.43977 0.44132 0.0
C2617 C 0.81611 0.42012 0.43884 0.0
C2618 C 0.83033 0.41317 0.44907 0.0
C2619 C 0.84305 0.42583 0.46185 0.0
H2620 H 0.80627 0.41029 0.42895 0.0
H2621 H 0.93388 0.53111 0.55106 0.0
H2622 H 0.795 0.86052 0.81557 0.0
H2623 H 0.7693 0.87421 0.80011 0.0
H2624 H 0.8072 0.92829 0.80623 0.0
H2625 H 0.83282 0.91472 0.82197 0.0
H2626 H 0.77235 0.93411 0.8166 0.0
H2627 H 0.79564 0.89867 0.76461 0.0
H2628 H 0.80537 0.87033 0.74558 0.0
H2629 H 0.74653 0.84083 0.74484 0.0
H2630 H 0.7365 0.8689 0.76408 0.0
H2631 H 0.70563 0.97728 0.76615 0.0
H2632 H 0.73522 0.96343 0.77425 0.0
H2633 H 0.69964 0.9091 0.77452 0.0
H2634 H 0.67001 0.92273 0.76627 0.0
H2635 H 0.73478 0.90452 0.75916 0.0
H2636 H 0.71276 0.93915 0.8132 0.0
H2637 H 0.70312 0.96757 0.83221 0.0
H2638 H 0.76035 0.99875 0.82868 0.0
H2639 H 0.77024 0.97057 0.80944 0.0
C2640 C 0.79799 0.87521 0.81329 0.0
C2641 C 0.81589 0.88657 0.82003 0.0
C2642 C 0.7833 0.88303 0.80443 0.0
C2643 C 0.78633 0.90227 0.80187 0.0
C2644 C 0.80448 0.91344 0.80808 0.0
C2645 C 0.8191 0.90568 0.81708 0.0
C2646 C 0.77009 0.91116 0.79397 0.0
C2647 C 0.76443 0.92782 0.80385 0.0
C2648 C 0.7594 0.90275 0.77754 0.0
C2649 C 0.76536 0.88584 0.76592 0.0
C2650 C 0.78481 0.88608 0.76051 0.0
C2651 C 0.79037 0.87008 0.74966 0.0
C2652 C 0.77659 0.85377 0.74404 0.0
C2653 C 0.75719 0.85346 0.74922 0.0
C2654 C 0.75155 0.86943 0.76008 0.0
C2655 C 0.7041 0.96233 0.76777 0.0
C2656 C 0.6854 0.95117 0.76571 0.0
C2657 C 0.72103 0.95445 0.77243 0.0
C2658 C 0.71959 0.9353 0.77519 0.0
C2659 C 0.70108 0.92392 0.77247 0.0
C2660 C 0.68415 0.93178 0.76784 0.0
C2661 C 0.73714 0.92736 0.78183 0.0
C2662 C 0.74295 0.91088 0.77178 0.0
C2663 C 0.74804 0.93593 0.79808 0.0
C2664 C 0.74216 0.95283 0.80973 0.0
C2665 C 0.72323 0.95212 0.81637 0.0
C2666 C 0.71774 0.96817 0.8272 0.0
C2667 C 0.7311 0.98497 0.8316 0.0
C2668 C 0.75001 0.98574 0.82523 0.0
C2669 C 0.75557 0.96973 0.81437 0.0
H2670 H 0.72681 0.99739 0.83999 0.0
H2671 H 0.78093 0.84139 0.73564 0.0
H2672 H 0.64843 0.46254 0.94812 0.0
H2673 H 0.67803 0.48615 0.9546 0.0
H2674 H 0.64214 0.52966 0.975 0.0
H2675 H 0.61238 0.50614 0.96761 0.0
H2676 H 0.66545 0.54368 0.9543 0.0
H2677 H 0.67611 0.51043 0.00271 0.0
H2678 H 0.67875 0.48276 0.01817 0.0
H2679 H 0.72715 0.4677 0.98698 0.0
H2680 H 0.72462 0.49512 0.97115 0.0
H2681 H 0.75483 0.60941 0.98206 0.0
H2682 H 0.72415 0.58815 0.9839 0.0
H2683 H 0.74635 0.54238 0.94944 0.0
H2684 H 0.77685 0.5635 0.94729 0.0
H2685 H 0.72946 0.53199 0.98158 0.0
H2686 H 0.71492 0.56465 0.93147 0.0
H2687 H 0.71196 0.59341 0.91766 0.0
H2688 H 0.67017 0.61105 0.95554 0.0
H2689 H 0.6731 0.5825 0.96973 0.0
C2690 C 0.64696 0.47707 0.95432 0.0
C2691 C 0.62822 0.48257 0.95745 0.0
C2692 C 0.66388 0.49056 0.95811 0.0
C2693 C 0.66243 0.5097 0.96555 0.0
C2694 C 0.64369 0.51502 0.96926 0.0
C2695 C 0.62672 0.5016 0.96512 0.0
C2696 C 0.68023 0.52442 0.96802 0.0
C2697 C 0.6793 0.54125 0.96065 0.0
C2698 C 0.69845 0.5213 0.97613 0.0
C2699 C 0.70008 0.50478 0.98565 0.0
C2700 C 0.68723 0.50115 0.99906 0.0
C2701 C 0.68872 0.48551 0.0079 0.0
C2702 C 0.70309 0.47346 0.00354 0.0
C2703 C 0.71602 0.47704 0.99034 0.0
C2704 C 0.71459 0.49265 0.98145 0.0
C2705 C 0.75315 0.59484 0.97484 0.0
C2706 C 0.76823 0.58816 0.96446 0.0
C2707 C 0.73564 0.58273 0.97592 0.0
C2708 C 0.73307 0.56373 0.96683 0.0
C2709 C 0.74814 0.55699 0.9566 0.0
C2710 C 0.76548 0.56913 0.9553 0.0
C2711 C 0.71456 0.55082 0.96761 0.0
C2712 C 0.71543 0.53441 0.97555 0.0
C2713 C 0.69622 0.55448 0.96037 0.0
C2714 C 0.69441 0.57158 0.95179 0.0
C2715 C 0.70524 0.57475 0.93695 0.0
C2716 C 0.70354 0.59099 0.92904 0.0
C2717 C 0.69094 0.60408 0.93576 0.0
C2718 C 0.67996 0.60092 0.95037 0.0
C2719 C 0.68163 0.58471 0.95835 0.0
H2720 H 0.68964 0.61665 0.92961 0.0
H2721 H 0.70422 0.46136 0.0104 0.0
H2722 H 0.29672 0.673 0.26117 0.0
H2723 H 0.27556 0.64365 0.2642 0.0
H2724 H 0.24863 0.6411 0.21094 0.0
H2725 H 0.2696 0.67088 0.20802 0.0
H2726 H 0.22134 0.63258 0.23337 0.0
H2727 H 0.28392 0.61181 0.21942 0.0
H2728 H 0.32017 0.61305 0.2232 0.0
H2729 H 0.31547 0.60114 0.27682 0.0
H2730 H 0.27919 0.60006 0.27343 0.0
H2731 H 0.17555 0.53625 0.22691 0.0
H2732 H 0.19619 0.56514 0.22175 0.0
H2733 H 0.22455 0.57166 0.27495 0.0
H2734 H 0.2042 0.54258 0.28013 0.0
H2735 H 0.25125 0.57752 0.25094 0.0
H2736 H 0.18905 0.59944 0.26534 0.0
H2737 H 0.15291 0.59931 0.26213 0.0
H2738 H 0.15701 0.60952 0.20792 0.0
H2739 H 0.19317 0.60945 0.21073 0.0
C2740 C 0.28637 0.66612 0.25006 0.0
C2741 C 0.28496 0.67405 0.23425 0.0
C2742 C 0.2743 0.64933 0.25179 0.0
C2743 C 0.2608 0.63993 0.23765 0.0
C2744 C 0.25902 0.64806 0.22199 0.0
C2745 C 0.27098 0.66503 0.22032 0.0
C2746 C 0.24854 0.62165 0.23933 0.0
C2747 C 0.22789 0.62041 0.23691 0.0
C2748 C 0.25708 0.60592 0.24432 0.0
C2749 C 0.27884 0.60598 0.2462 0.0
C2750 C 0.29062 0.60952 0.23203 0.0
C2751 C 0.31117 0.61019 0.23411 0.0
C2752 C 0.32012 0.60721 0.25025 0.0
C2753 C 0.30852 0.60344 0.26432 0.0
C2754 C 0.28796 0.60276 0.26232 0.0
C2755 C 0.18616 0.54383 0.23754 0.0
C2756 C 0.18817 0.53714 0.25397 0.0
C2757 C 0.19791 0.56039 0.23458 0.0
C2758 C 0.21176 0.5707 0.24804 0.0
C2759 C 0.21394 0.56394 0.26438 0.0
C2760 C 0.20224 0.54735 0.26734 0.0
C2761 C 0.22403 0.5885 0.2451 0.0
C2762 C 0.2447 0.58963 0.24728 0.0
C2763 C 0.21551 0.60413 0.23988 0.0
C2764 C 0.19378 0.60423 0.23819 0.0
C2765 C 0.18222 0.6015 0.25269 0.0
C2766 C 0.16174 0.6015 0.25095 0.0
C2767 C 0.15266 0.60435 0.23482 0.0
C2768 C 0.16406 0.60728 0.2204 0.0
C2769 C 0.18455 0.60728 0.22206 0.0
H2770 H 0.1368 0.60434 0.2335 0.0
H2771 H 0.33604 0.6078 0.25185 0.0
H2772 H 0.93678 0.48312 0.03466 0.0
H2773 H 0.91641 0.50785 0.02896 0.0
H2774 H 0.96688 0.55131 0.04368 0.0
H2775 H 0.98709 0.52661 0.04999 0.0
H2776 H 0.93328 0.56584 0.05242 0.0
H2777 H 0.95736 0.53041 1.00082 0.0
H2778 H 0.96316 0.50103 0.98079 0.0
H2779 H 0.90051 0.48502 0.97003 0.0
H2780 H 0.89432 0.51413 0.99031 0.0
H2781 H 0.88679 0.60112 0.96718 0.0
H2782 H 0.91043 0.58446 0.98191 0.0
H2783 H 0.87633 0.58782 0.02867 0.0
H2784 H 0.85332 0.60546 0.01433 0.0
H2785 H 0.90442 0.55154 0.98955 0.0
H2786 H 0.90303 0.58191 0.06554 0.0
H2787 H 0.90091 0.61282 0.08492 0.0
H2788 H 0.92494 0.64316 0.04448 0.0
H2789 H 0.92744 0.61244 0.02496 0.0
C2790 C 0.94332 0.49803 0.03717 0.0
C2791 C 0.96348 0.50302 0.04259 0.0
C2792 C 0.93173 0.51212 0.03388 0.0
C2793 C 0.94027 0.53135 0.03548 0.0
C2794 C 0.96001 0.53656 0.0423 0.0
C2795 C 0.97154 0.52247 0.04589 0.0
C2796 C 0.9294 0.5454 0.02789 0.0
C2797 C 0.9269 0.56277 0.0387 0.0
C2798 C 0.92172 0.54166 0.00978 0.0
C2799 C 0.92538 0.52437 0.99721 0.0
C2800 C 0.94482 0.52058 0.99426 0.0
C2801 C 0.94818 0.50396 0.98287 0.0
C2802 C 0.93221 0.49115 0.97417 0.0
C2803 C 0.91286 0.49495 0.9768 0.0
C2804 C 0.90941 0.5115 0.98824 0.0
C2805 C 0.88463 0.59869 0.98077 0.0
C2806 C 0.86823 0.60455 0.98961 0.0
C2807 C 0.89809 0.5891 0.98917 0.0
C2808 C 0.89523 0.58481 0.00644 0.0
C2809 C 0.87917 0.59124 0.01551 0.0
C2810 C 0.86595 0.60127 0.00727 0.0
C2811 C 0.9079 0.57207 0.01411 0.0
C2812 C 0.91077 0.55481 0.00328 0.0
C2813 C 0.91645 0.57629 0.03198 0.0
C2814 C 0.91524 0.59485 0.04372 0.0
C2815 C 0.90794 0.59517 0.06081 0.0
C2816 C 0.90665 0.61266 0.07182 0.0
C2817 C 0.91273 0.62994 0.06591 0.0
C2818 C 0.92017 0.62976 0.04901 0.0
C2819 C 0.9215 0.61232 0.03796 0.0
H2820 H 0.9117 0.64346 0.07445 0.0
H2821 H 0.93484 0.47829 0.96536 0.0
H2822 H 0.13239 0.02146 0.06065 0.0
H2823 H 0.1565 0.99963 0.05208 0.0
H2824 H 0.11062 0.95132 0.0468 0.0
H2825 H 0.0864 0.97324 0.05578 0.0
H2826 H 0.14235 0.94283 0.06282 0.0
H2827 H 0.13037 0.96825 0.00943 0.0
H2828 H 0.12678 0.99321 0.99077 0.0
H2829 H 0.18749 0.01695 0.00448 0.0
H2830 H 0.19139 0.9923 0.02343 0.0
H2831 H 0.20799 0.88047 0.01908 0.0
H2832 H 0.1798 0.89861 0.02435 0.0
H2833 H 0.22003 0.95089 0.03985 0.0
H2834 H 0.24812 0.93297 0.03482 0.0
H2835 H 0.1887 0.95472 0.01607 0.0
H2836 H 0.19906 0.92987 0.07127 0.0
H2837 H 0.20206 0.90418 0.08922 0.0
H2838 H 0.14314 0.87812 0.07042 0.0
H2839 H 0.1399 0.90353 0.05215 0.0
C2840 C 0.12735 0.00621 0.05745 0.0
C2841 C 0.1074 0.99912 0.05868 0.0
C2842 C 0.14118 0.9937 0.05253 0.0
C2843 C 0.13539 0.97377 0.0484 0.0
C2844 C 0.1155 0.96661 0.04982 0.0
C2845 C 0.10165 0.97915 0.05494 0.0
C2846 C 0.15026 0.96054 0.04298 0.0
C2847 C 0.15222 0.94525 0.05235 0.0
C2848 C 0.16335 0.96369 0.02944 0.0
C2849 C 0.16112 0.9785 0.01796 0.0
C2850 C 0.14293 0.97887 0.00856 0.0
C2851 C 0.14084 0.99295 0.99792 0.0
C2852 C 0.15689 0.00668 0.99647 0.0
C2853 C 0.17507 0.00632 0.00562 0.0
C2854 C 0.17723 0.99227 0.0163 0.0
C2855 C 0.21081 0.89583 0.02358 0.0
C2856 C 0.23033 0.90525 0.02658 0.0
C2857 C 0.19469 0.90617 0.02663 0.0
C2858 C 0.1978 0.92612 0.03256 0.0
C2859 C 0.21725 0.93554 0.03527 0.0
C2860 C 0.23331 0.92522 0.03245 0.0
C2861 C 0.18094 0.93733 0.03611 0.0
C2862 C 0.17863 0.95222 0.02637 0.0
C2863 C 0.16742 0.93368 0.04915 0.0
C2864 C 0.16932 0.91846 0.06018 0.0
C2865 C 0.18681 0.91857 0.07084 0.0
C2866 C 0.18854 0.90408 0.08109 0.0
C2867 C 0.17282 0.88949 0.08091 0.0
C2868 C 0.15531 0.8894 0.07052 0.0
C2869 C 0.15352 0.90385 0.06022 0.0
H2870 H 0.17419 0.87828 0.08886 0.0
H2871 H 0.15524 0.01758 0.98822 0.0
loop_
_geom_bond_atom_site_label_1
_geom_bond_atom_site_label_2
_geom_bond_distance
_geom_bond_site_symmetry_2
_ccdc_geom_bond_type
H0 C1 0.949 . S
C1 H0 0.949 . S
C1 C2 1.395 . S
C1 C3 1.391 . S
C2 C1 1.395 . S
C2 C5 1.390 . S
C3 C1 1.391 . S
C3 C7 1.387 . S
C3 C8 1.491 . S
H4 C5 0.950 . S
C5 C2 1.390 . S
C5 H4 0.950 . S
C5 C6 1.378 . S
C6 C5 1.378 . S
C6 C7 1.409 . S
C7 C3 1.387 . S
C7 C6 1.409 . S
C7 H9 0.951 . S
C8 C3 1.491 . S
C8 C10 1.382 . S
C8 C12 1.404 . S
H9 C7 0.951 . S
C10 C8 1.382 . S
C10 C11 1.390 . S
C10 H15 0.949 . S
C11 C10 1.390 . S
C11 C16 1.399 . S
C12 C8 1.404 . S
C12 H13 0.950 . S
C12 C14 1.375 . S
H13 C12 0.950 . S
C14 C12 1.375 . S
C14 C16 1.382 . S
C14 H18 0.950 . S
H15 C10 0.949 . S
C16 C11 1.399 . S
C16 C14 1.382 . S
C16 H17 0.952 . S
H17 C16 0.952 . S
H18 C14 0.950 . S
H19 C20 0.949 . S
C20 H19 0.949 . S
C20 C21 1.395 . S
C20 C22 1.391 . S
C21 C20 1.395 . S
C21 C24 1.390 . S
C22 C20 1.391 . S
C22 C26 1.387 . S
C22 C27 1.491 . S
H23 C24 0.950 . S
C24 C21 1.390 . S
C24 H23 0.950 . S
C24 C25 1.378 . S
C25 C24 1.378 . S
C25 C26 1.409 . S
C26 C22 1.387 . S
C26 C25 1.409 . S
C26 H28 0.951 . S
C27 C22 1.491 . S
C27 C29 1.382 . S
C27 C31 1.404 . S
H28 C26 0.951 . S
C29 C27 1.382 . S
C29 C30 1.390 . S
C29 H34 0.949 . S
C30 C29 1.390 . S
C30 C35 1.399 . S
C31 C27 1.404 . S
C31 H32 0.950 . S
C31 C33 1.375 . S
H32 C31 0.950 . S
C33 C31 1.375 . S
C33 C35 1.382 . S
C33 H37 0.950 . S
H34 C29 0.949 . S
C35 C30 1.399 . S
C35 C33 1.382 . S
C35 H36 0.952 . S
H36 C35 0.952 . S
H37 C33 0.950 . S
H38 C39 0.949 . S
C39 H38 0.949 . S
C39 C40 1.395 . S
C39 C41 1.391 . S
C40 C39 1.395 . S
C40 C43 1.390 . S
C41 C39 1.391 . S
C41 C45 1.387 . S
C41 C46 1.491 . S
H42 C43 0.950 . S
C43 C40 1.390 . S
C43 H42 0.950 . S
C43 C44 1.378 . S
C44 C43 1.378 . S
C44 C45 1.409 . S
C45 C41 1.387 . S
C45 C44 1.409 . S
C45 H47 0.951 . S
C46 C41 1.491 . S
C46 C48 1.382 . S
C46 C50 1.404 1_554 S
H47 C45 0.951 . S
C48 C46 1.382 . S
C48 C49 1.390 1_554 S
C48 H53 0.949 . S
C49 C48 1.390 1_556 S
C49 C54 1.399 . S
C50 C46 1.404 1_556 S
C50 H51 0.950 . S
C50 C52 1.375 . S
H51 C50 0.950 . S
C52 C50 1.375 . S
C52 C54 1.382 . S
C52 H56 0.950 . S
H53 C48 0.949 . S
C54 C49 1.399 . S
C54 C52 1.382 . S
C54 H55 0.952 . S
H55 C54 0.952 . S
H56 C52 0.950 . S
H57 C58 0.949 . S
C58 H57 0.949 . S
C58 C59 1.395 . S
C58 C60 1.391 . S
C59 C58 1.395 . S
C59 C62 1.390 . S
C60 C58 1.391 . S
C60 C64 1.387 . S
C60 C65 1.491 . S
H61 C62 0.950 . S
C62 C59 1.390 . S
C62 H61 0.950 . S
C62 C63 1.378 . S
C63 C62 1.378 . S
C63 C64 1.409 . S
C64 C60 1.387 . S
C64 C63 1.409 . S
C64 H66 0.951 . S
C65 C60 1.491 . S
C65 C67 1.382 . S
C65 C69 1.404 . S
H66 C64 0.951 . S
C67 C65 1.382 . S
C67 C68 1.390 . S
C67 H72 0.949 . S
C68 C67 1.390 . S
C68 C73 1.399 . S
C69 C65 1.404 . S
C69 H70 0.950 . S
C69 C71 1.375 . S
H70 C69 0.950 . S
C71 C69 1.375 . S
C71 C73 1.382 . S
C71 H75 0.950 . S
H72 C67 0.949 . S
C73 C68 1.399 . S
C73 C71 1.382 . S
C73 H74 0.952 . S
H74 C73 0.952 . S
H75 C71 0.950 . S
H76 C77 0.949 . S
C77 H76 0.949 . S
C77 C78 1.395 . S
C77 C79 1.391 . S
C78 C77 1.395 . S
C78 C81 1.390 . S
C79 C77 1.391 . S
C79 C83 1.387 . S
C79 C84 1.491 . S
H80 C81 0.950 . S
C81 C78 1.390 . S
C81 H80 0.950 . S
C81 C82 1.378 . S
C82 C81 1.378 . S
C82 C83 1.409 . S
C83 C79 1.387 . S
C83 C82 1.409 . S
C83 H85 0.951 . S
C84 C79 1.491 . S
C84 C86 1.382 . S
C84 C88 1.404 . S
H85 C83 0.951 . S
C86 C84 1.382 . S
C86 C87 1.390 . S
C86 H91 0.949 . S
C87 C86 1.390 . S
C87 C92 1.399 . S
C88 C84 1.404 . S
C88 H89 0.950 . S
C88 C90 1.375 . S
H89 C88 0.950 . S
C90 C88 1.375 . S
C90 C92 1.382 . S
C90 H94 0.950 . S
H91 C86 0.949 . S
C92 C87 1.399 . S
C92 C90 1.382 . S
C92 H93 0.952 . S
H93 C92 0.952 . S
H94 C90 0.950 . S
H95 C96 0.949 . S
C96 H95 0.949 . S
C96 C97 1.395 . S
C96 C98 1.391 . S
C97 C96 1.395 . S
C97 C100 1.390 . S
C98 C96 1.391 . S
C98 C102 1.387 . S
C98 C103 1.491 . S
H99 C100 0.950 . S
C100 C97 1.390 . S
C100 H99 0.950 . S
C100 C101 1.378 . S
C101 C100 1.378 . S
C101 C102 1.409 . S
C102 C98 1.387 . S
C102 C101 1.409 . S
C102 H104 0.951 . S
C103 C98 1.491 . S
C103 C105 1.382 . S
C103 C107 1.404 . S
H104 C102 0.951 . S
C105 C103 1.382 . S
C105 C106 1.390 . S
C105 H110 0.949 . S
C106 C105 1.390 . S
C106 C111 1.399 . S
C107 C103 1.404 . S
C107 H108 0.950 . S
C107 C109 1.375 . S
H108 C107 0.950 . S
C109 C107 1.375 . S
C109 C111 1.382 . S
C109 H113 0.950 . S
H110 C105 0.949 . S
C111 C106 1.399 . S
C111 C109 1.382 . S
C111 H112 0.952 . S
H112 C111 0.952 . S
H113 C109 0.950 . S
H114 C115 0.949 . S
C115 H114 0.949 . S
C115 C116 1.395 . S
C115 C117 1.391 . S
C116 C115 1.395 . S
C116 C119 1.390 . S
C117 C115 1.391 . S
C117 C121 1.387 . S
C117 C122 1.491 . S
H118 C119 0.950 . S
C119 C116 1.390 . S
C119 H118 0.950 . S
C119 C120 1.378 . S
C120 C119 1.378 . S
C120 C121 1.409 . S
C121 C117 1.387 . S
C121 C120 1.409 . S
C121 H123 0.951 . S
C122 C117 1.491 . S
C122 C124 1.382 . S
C122 C126 1.404 . S
H123 C121 0.951 . S
C124 C122 1.382 . S
C124 C125 1.390 . S
C124 H129 0.949 1_655 S
C125 C124 1.390 . S
C125 C130 1.399 . S
C126 C122 1.404 . S
C126 H127 0.950 . S
C126 C128 1.375 . S
H127 C126 0.950 . S
C128 C126 1.375 . S
C128 C130 1.382 . S
C128 H132 0.950 . S
H129 C124 0.949 1_455 S
C130 C125 1.399 . S
C130 C128 1.382 . S
C130 H131 0.952 . S
H131 C130 0.952 . S
H132 C128 0.950 . S
H133 C134 0.949 . S
C134 H133 0.949 . S
C134 C135 1.395 . S
C134 C136 1.391 . S
C135 C134 1.395 . S
C135 C138 1.390 . S
C136 C134 1.391 . S
C136 C140 1.387 . S
C136 C141 1.491 . S
H137 C138 0.950 . S
C138 C135 1.390 . S
C138 H137 0.950 . S
C138 C139 1.378 . S
C139 C138 1.378 . S
C139 C140 1.409 . S
C140 C136 1.387 . S
C140 C139 1.409 . S
C140 H142 0.951 . S
C141 C136 1.491 . S
C141 C143 1.382 . S
C141 C145 1.404 . S
H142 C140 0.951 . S
C143 C141 1.382 . S
C143 C144 1.390 . S
C143 H148 0.949 . S
C144 C143 1.390 . S
C144 C149 1.399 . S
C145 C141 1.404 . S
C145 H146 0.950 . S
C145 C147 1.375 . S
H146 C145 0.950 . S
C147 C145 1.375 . S
C147 C149 1.382 . S
C147 H151 0.950 . S
H148 C143 0.949 . S
C149 C144 1.399 . S
C149 C147 1.382 . S
C149 H150 0.952 . S
H150 C149 0.952 . S
H151 C147 0.950 . S
H152 C153 0.949 . S
C153 H152 0.949 . S
C153 C154 1.395 . S
C153 C155 1.391 . S
C154 C153 1.395 . S
C154 C157 1.390 . S
C155 C153 1.391 . S
C155 C159 1.387 . S
C155 C160 1.491 . S
H156 C157 0.950 . S
C157 C154 1.390 . S
C157 H156 0.950 . S
C157 C158 1.378 . S
C158 C157 1.378 . S
C158 C159 1.409 . S
C159 C155 1.387 . S
C159 C158 1.409 . S
C159 H161 0.951 . S
C160 C155 1.491 . S
C160 C162 1.382 . S
C160 C164 1.404 . S
H161 C159 0.951 . S
C162 C160 1.382 . S
C162 C163 1.390 . S
C162 H167 0.949 . S
C163 C162 1.390 . S
C163 C168 1.399 . S
C164 C160 1.404 . S
C164 H165 0.950 . S
C164 C166 1.375 . S
H165 C164 0.950 . S
C166 C164 1.375 . S
C166 C168 1.382 . S
C166 H170 0.950 . S
H167 C162 0.949 . S
C168 C163 1.399 . S
C168 C166 1.382 . S
C168 H169 0.952 . S
H169 C168 0.952 . S
H170 C166 0.950 . S
H171 C172 0.949 . S
C172 H171 0.949 . S
C172 C173 1.395 . S
C172 C174 1.391 . S
C173 C172 1.395 . S
C173 C176 1.390 . S
C174 C172 1.391 . S
C174 C178 1.387 . S
C174 C179 1.491 . S
H175 C176 0.950 . S
C176 C173 1.390 . S
C176 H175 0.950 . S
C176 C177 1.378 . S
C177 C176 1.378 . S
C177 C178 1.409 . S
C178 C174 1.387 . S
C178 C177 1.409 . S
C178 H180 0.951 . S
C179 C174 1.491 . S
C179 C181 1.382 . S
C179 C183 1.404 . S
H180 C178 0.951 . S
C181 C179 1.382 . S
C181 C182 1.390 . S
C181 H186 0.949 . S
C182 C181 1.390 . S
C182 C187 1.399 . S
C183 C179 1.404 . S
C183 H184 0.950 . S
C183 C185 1.375 . S
H184 C183 0.950 . S
C185 C183 1.375 . S
C185 C187 1.382 . S
C185 H189 0.950 . S
H186 C181 0.949 . S
C187 C182 1.399 . S
C187 C185 1.382 . S
C187 H188 0.952 . S
H188 C187 0.952 . S
H189 C185 0.950 . S
H190 C191 0.949 . S
C191 H190 0.949 . S
C191 C192 1.395 . S
C191 C193 1.391 . S
C192 C191 1.395 . S
C192 C195 1.390 . S
C193 C191 1.391 . S
C193 C197 1.387 . S
C193 C198 1.491 . S
H194 C195 0.950 . S
C195 C192 1.390 . S
C195 H194 0.950 . S
C195 C196 1.378 . S
C196 C195 1.378 . S
C196 C197 1.409 . S
C197 C193 1.387 . S
C197 C196 1.409 . S
C197 H199 0.951 . S
C198 C193 1.491 . S
C198 C200 1.382 . S
C198 C202 1.404 . S
H199 C197 0.951 . S
C200 C198 1.382 . S
C200 C201 1.390 . S
C200 H205 0.949 . S
C201 C200 1.390 . S
C201 C206 1.399 . S
C202 C198 1.404 . S
C202 H203 0.950 . S
C202 C204 1.375 . S
H203 C202 0.950 . S
C204 C202 1.375 . S
C204 C206 1.382 . S
C204 H208 0.950 . S
H205 C200 0.949 . S
C206 C201 1.399 . S
C206 C204 1.382 . S
C206 H207 0.952 . S
H207 C206 0.952 . S
H208 C204 0.950 . S
H209 C210 0.949 . S
C210 H209 0.949 . S
C210 C211 1.395 . S
C210 C212 1.391 . S
C211 C210 1.395 . S
C211 C214 1.390 . S
C212 C210 1.391 . S
C212 C216 1.387 . S
C212 C217 1.491 . S
H213 C214 0.950 . S
C214 C211 1.390 . S
C214 H213 0.950 . S
C214 C215 1.378 . S
C215 C214 1.378 . S
C215 C216 1.409 . S
C216 C212 1.387 . S
C216 C215 1.409 . S
C216 H218 0.951 . S
C217 C212 1.491 . S
C217 C219 1.382 . S
C217 C221 1.404 . S
H218 C216 0.951 . S
C219 C217 1.382 . S
C219 C220 1.390 . S
C219 H224 0.949 . S
C220 C219 1.390 . S
C220 C225 1.399 . S
C221 C217 1.404 . S
C221 H222 0.950 . S
C221 C223 1.375 . S
H222 C221 0.950 . S
C223 C221 1.375 . S
C223 C225 1.382 . S
C223 H227 0.950 . S
H224 C219 0.949 . S
C225 C220 1.399 . S
C225 C223 1.382 . S
C225 H226 0.952 . S
H226 C225 0.952 . S
H227 C223 0.950 . S
H228 C229 0.949 . S
C229 H228 0.949 . S
C229 C230 1.395 . S
C229 C231 1.391 . S
C230 C229 1.395 . S
C230 C233 1.390 . S
C231 C229 1.391 . S
C231 C235 1.387 . S
C231 C236 1.491 . S
H232 C233 0.950 . S
C233 C230 1.390 . S
C233 H232 0.950 . S
C233 C234 1.378 . S
C234 C233 1.378 . S
C234 C235 1.409 . S
C235 C231 1.387 . S
C235 C234 1.409 . S
C235 H237 0.951 . S
C236 C231 1.491 . S
C236 C238 1.382 . S
C236 C240 1.404 . S
H237 C235 0.951 . S
C238 C236 1.382 . S
C238 C239 1.390 . S
C238 H243 0.949 . S
C239 C238 1.390 . S
C239 C244 1.399 . S
C240 C236 1.404 . S
C240 H241 0.950 . S
C240 C242 1.375 . S
H241 C240 0.950 . S
C242 C240 1.375 . S
C242 C244 1.382 . S
C242 H246 0.950 . S
H243 C238 0.949 . S
C244 C239 1.399 . S
C244 C242 1.382 . S
C244 H245 0.952 . S
H245 C244 0.952 . S
H246 C242 0.950 . S
H247 C248 0.949 . S
C248 H247 0.949 . S
C248 C249 1.395 . S
C248 C250 1.391 . S
C249 C248 1.395 . S
C249 C252 1.390 . S
C250 C248 1.391 . S
C250 C254 1.387 . S
C250 C255 1.491 . S
H251 C252 0.950 . S
C252 C249 1.390 . S
C252 H251 0.950 . S
C252 C253 1.378 . S
C253 C252 1.378 . S
C253 C254 1.409 . S
C254 C250 1.387 . S
C254 C253 1.409 . S
C254 H256 0.951 . S
C255 C250 1.491 . S
C255 C257 1.388 1_556 S
C255 C259 1.404 . S
H256 C254 0.951 . S
C257 C255 1.388 1_554 S
C257 C258 1.386 . S
C257 H262 0.946 . S
C258 C257 1.386 . S
C258 C263 1.399 1_554 S
C259 C255 1.404 . S
C259 H260 0.950 . S
C259 C261 1.375 . S
H260 C259 0.950 . S
C261 C259 1.375 . S
C261 C263 1.382 . S
C261 H265 0.950 . S
H262 C257 0.946 . S
C263 C258 1.399 1_556 S
C263 C261 1.382 . S
C263 H264 0.952 . S
H264 C263 0.952 . S
H265 C261 0.950 . S
H266 C267 0.949 . S
C267 H266 0.949 . S
C267 C268 1.395 . S
C267 C269 1.391 . S
C268 C267 1.395 . S
C268 C271 1.390 . S
C269 C267 1.391 . S
C269 C273 1.387 . S
C269 C274 1.491 . S
H270 C271 0.950 . S
C271 C268 1.390 . S
C271 H270 0.950 . S
C271 C272 1.378 . S
C272 C271 1.378 . S
C272 C273 1.409 . S
C273 C269 1.387 . S
C273 C272 1.409 . S
C273 H275 0.951 . S
C274 C269 1.491 . S
C274 C276 1.382 . S
C274 C278 1.404 . S
H275 C273 0.951 . S
C276 C274 1.382 . S
C276 C277 1.390 . S
C276 H281 0.949 . S
C277 C276 1.390 . S
C277 C282 1.399 . S
C278 C274 1.404 . S
C278 H279 0.950 . S
C278 C280 1.375 . S
H279 C278 0.950 . S
C280 C278 1.375 . S
C280 C282 1.382 . S
C280 H284 0.950 . S
H281 C276 0.949 . S
C282 C277 1.399 . S
C282 C280 1.382 . S
C282 H283 0.952 . S
H283 C282 0.952 . S
H284 C280 0.950 . S
H285 C286 0.949 . S
C286 H285 0.949 . S
C286 C287 1.395 . S
C286 C288 1.391 . S
C287 C286 1.395 . S
C287 C290 1.390 . S
C288 C286 1.391 . S
C288 C292 1.387 . S
C288 C293 1.491 . S
H289 C290 0.950 . S
C290 C287 1.390 . S
C290 H289 0.950 . S
C290 C291 1.378 . S
C291 C290 1.378 . S
C291 C292 1.409 . S
C292 C288 1.387 . S
C292 C291 1.409 . S
C292 H294 0.951 . S
C293 C288 1.491 . S
C293 C295 1.382 . S
C293 C297 1.404 . S
H294 C292 0.951 . S
C295 C293 1.382 . S
C295 C296 1.390 . S
C295 H300 0.949 . S
C296 C295 1.390 . S
C296 C301 1.399 . S
C297 C293 1.404 . S
C297 H298 0.950 . S
C297 C299 1.375 . S
H298 C297 0.950 . S
C299 C297 1.375 . S
C299 C301 1.382 . S
C299 H303 0.950 . S
H300 C295 0.949 . S
C301 C296 1.399 . S
C301 C299 1.382 . S
C301 H302 0.952 . S
H302 C301 0.952 . S
H303 C299 0.950 . S
Zn304 O307 2.031 . S
Zn304 O309 2.049 . S
Zn304 O314 2.067 . S
Zn305 O306 1.962 . S
Zn305 O308 1.986 . S
Zn305 O310 1.996 . S
Zn305 O313 1.943 . S
O306 Zn305 1.962 . S
O306 C311 1.254 . S
O307 Zn304 2.031 . S
O307 C311 1.269 . S
O308 Zn305 1.986 . S
O308 C315 1.262 . S
O309 Zn304 2.049 . S
O309 C317 1.260 . S
O310 Zn305 1.996 . S
O310 C317 1.257 . S
C311 O306 1.254 . S
C311 O307 1.269 . S
C312 O313 1.249 . S
C312 O314 1.270 . S
O313 Zn305 1.943 . S
O313 C312 1.249 . S
O314 Zn304 2.067 . S
O314 C312 1.270 . S
C315 O308 1.262 . S
C315 O316 1.232 . S
O316 C315 1.232 . S
C317 O309 1.260 . S
C317 O310 1.257 . S
Zn318 O321 2.031 . S
Zn318 O323 2.049 . S
Zn318 O328 2.067 . S
Zn319 O320 1.962 . S
Zn319 O322 1.986 . S
Zn319 O324 1.996 . S
Zn319 O327 1.943 . S
O320 Zn319 1.962 . S
O320 C325 1.254 . S
O321 Zn318 2.031 . S
O321 C325 1.269 . S
O322 Zn319 1.986 . S
O322 C329 1.262 . S
O323 Zn318 2.049 . S
O323 C331 1.260 . S
O324 Zn319 1.996 . S
O324 C331 1.257 . S
C325 O320 1.254 . S
C325 O321 1.269 . S
C326 O327 1.249 . S
C326 O328 1.270 . S
O327 Zn319 1.943 . S
O327 C326 1.249 . S
O328 Zn318 2.067 . S
O328 C326 1.270 . S
C329 O322 1.262 . S
C329 O330 1.232 . S
O330 C329 1.232 . S
C331 O323 1.260 . S
C331 O324 1.257 . S
Zn332 O335 2.031 . S
Zn332 O337 2.049 . S
Zn332 O342 2.067 . S
Zn333 O334 1.962 . S
Zn333 O336 1.986 . S
Zn333 O338 1.996 1_554 S
Zn333 O341 1.943 . S
O334 Zn333 1.962 . S
O334 C339 1.254 . S
O335 Zn332 2.031 . S
O335 C339 1.269 1_556 S
O336 Zn333 1.986 . S
O336 C343 1.262 . S
O337 Zn332 2.049 . S
O337 C345 1.260 . S
O338 Zn333 1.996 1_556 S
O338 C345 1.257 . S
C339 O334 1.254 . S
C339 O335 1.269 1_554 S
C340 O341 1.249 1_556 S
C340 O342 1.270 . S
O341 Zn333 1.943 . S
O341 C340 1.249 1_554 S
O342 Zn332 2.067 . S
O342 C340 1.270 . S
C343 O336 1.262 . S
C343 O344 1.232 . S
O344 C343 1.232 . S
C345 O337 1.260 . S
C345 O338 1.257 . S
Zn346 O349 2.031 . S
Zn346 O351 2.049 . S
Zn346 O356 2.067 1_545 S
Zn347 O348 1.962 . S
Zn347 O350 1.986 . S
Zn347 O352 1.996 . S
Zn347 O355 1.943 . S
O348 Zn347 1.962 . S
O348 C353 1.254 . S
O349 Zn346 2.031 . S
O349 C353 1.269 . S
O350 Zn347 1.986 . S
O350 C357 1.262 . S
O351 Zn346 2.049 . S
O351 C359 1.260 . S
O352 Zn347 1.996 . S
O352 C359 1.257 . S
C353 O348 1.254 . S
C353 O349 1.269 . S
C354 O355 1.249 1_565 S
C354 O356 1.270 . S
O355 Zn347 1.943 . S
O355 C354 1.249 1_545 S
O356 Zn346 2.067 1_565 S
O356 C354 1.270 . S
C357 O350 1.262 . S
C357 O358 1.232 . S
O358 C357 1.232 . S
C359 O351 1.260 . S
C359 O352 1.257 . S
Zn360 O363 2.031 . S
Zn360 O365 2.049 . S
Zn360 O370 2.067 . S
Zn361 O362 1.962 . S
Zn361 O364 1.986 . S
Zn361 O366 1.996 . S
Zn361 O369 1.943 . S
O362 Zn361 1.962 . S
O362 C367 1.254 . S
O363 Zn360 2.031 . S
O363 C367 1.269 . S
O364 Zn361 1.986 . S
O364 C371 1.262 . S
O365 Zn360 2.049 . S
O365 C373 1.260 . S
O366 Zn361 1.996 . S
O366 C373 1.257 . S
C367 O362 1.254 . S
C367 O363 1.269 . S
C368 O369 1.249 . S
C368 O370 1.270 . S
O369 Zn361 1.943 . S
O369 C368 1.249 . S
O370 Zn360 2.067 . S
O370 C368 1.270 . S
C371 O364 1.262 . S
C371 O372 1.232 . S
O372 C371 1.232 . S
C373 O365 1.260 . S
C373 O366 1.257 . S
Zn374 O377 2.031 . S
Zn374 O379 2.049 . S
Zn374 O384 2.067 . S
Zn375 O376 1.962 . S
Zn375 O378 1.986 . S
Zn375 O380 1.996 . S
Zn375 O383 1.943 . S
O376 Zn375 1.962 . S
O376 C381 1.254 . S
O377 Zn374 2.031 . S
O377 C381 1.269 . S
O378 Zn375 1.986 . S
O378 C385 1.262 . S
O379 Zn374 2.049 . S
O379 C387 1.260 . S
O380 Zn375 1.996 . S
O380 C387 1.257 . S
C381 O376 1.254 . S
C381 O377 1.269 . S
C382 O383 1.249 . S
C382 O384 1.270 . S
O383 Zn375 1.943 . S
O383 C382 1.249 . S
O384 Zn374 2.067 . S
O384 C382 1.270 . S
C385 O378 1.262 . S
C385 O386 1.232 . S
O386 C385 1.232 . S
C387 O379 1.260 . S
C387 O380 1.257 . S
Zn388 O391 2.031 . S
Zn388 O393 2.049 . S
Zn388 O398 2.067 . S
Zn389 O390 1.962 . S
Zn389 O392 1.986 . S
Zn389 O394 1.996 . S
Zn389 O397 1.943 . S
O390 Zn389 1.962 . S
O390 C395 1.254 . S
O391 Zn388 2.031 . S
O391 C395 1.269 . S
O392 Zn389 1.986 . S
O392 C399 1.262 . S
O393 Zn388 2.049 . S
O393 C401 1.260 . S
O394 Zn389 1.996 . S
O394 C401 1.257 . S
C395 O390 1.254 . S
C395 O391 1.269 . S
C396 O397 1.249 . S
C396 O398 1.270 . S
O397 Zn389 1.943 . S
O397 C396 1.249 . S
O398 Zn388 2.067 . S
O398 C396 1.270 . S
C399 O392 1.262 . S
C399 O400 1.232 . S
O400 C399 1.232 . S
C401 O393 1.260 . S
C401 O394 1.257 . S
Zn402 O405 2.031 1_565 S
Zn402 O407 2.049 . S
Zn402 O412 2.067 . S
Zn403 O404 1.962 . S
Zn403 O406 1.986 . S
Zn403 O408 2.031 . S
Zn403 O411 1.943 . S
O404 Zn403 1.962 . S
O404 C409 1.254 . S
O405 Zn402 2.031 1_545 S
O405 C409 1.269 . S
O406 Zn403 1.986 . S
O406 C413 1.262 . S
O407 Zn402 2.049 . S
O407 C415 1.260 . S
O408 Zn403 2.031 . S
O408 C415 1.222 1_545 S
C409 O404 1.254 . S
C409 O405 1.269 . S
C410 O411 1.249 . S
C410 O412 1.270 1_545 S
O411 Zn403 1.943 . S
O411 C410 1.249 . S
O412 Zn402 2.067 . S
O412 C410 1.270 1_565 S
C413 O406 1.262 . S
C413 O414 1.232 . S
O414 C413 1.232 . S
C415 O407 1.260 . S
C415 O408 1.222 1_565 S
Zn416 O419 2.031 . S
Zn416 O421 2.049 . S
Zn416 O426 2.067 1_455 S
Zn417 O418 1.962 . S
Zn417 O420 1.986 . S
Zn417 O422 1.996 . S
Zn417 O425 1.943 1_455 S
O418 Zn417 1.962 . S
O418 C423 1.254 . S
O419 Zn416 2.031 . S
O419 C423 1.269 . S
O420 Zn417 1.986 . S
O420 C427 1.262 . S
O421 Zn416 2.049 . S
O421 C429 1.260 . S
O422 Zn417 1.996 . S
O422 C429 1.257 . S
C423 O418 1.254 . S
C423 O419 1.269 . S
C424 O425 1.249 . S
C424 O426 1.270 . S
O425 Zn417 1.943 1_655 S
O425 C424 1.249 . S
O426 Zn416 2.067 1_655 S
O426 C424 1.270 . S
C427 O420 1.262 . S
C427 O428 1.232 . S
O428 C427 1.232 . S
C429 O421 1.260 . S
C429 O422 1.257 . S
Zn430 O433 2.031 . S
Zn430 O435 2.049 . S
Zn430 O440 2.067 . S
Zn431 O432 1.962 . S
Zn431 O434 1.986 . S
Zn431 O436 1.996 . S
Zn431 O439 1.943 . S
O432 Zn431 1.962 . S
O432 C437 1.254 . S
O433 Zn430 2.031 . S
O433 C437 1.269 . S
O434 Zn431 1.986 . S
O434 C441 1.262 . S
O435 Zn430 2.049 . S
O435 C443 1.260 . S
O436 Zn431 1.996 . S
O436 C443 1.257 . S
C437 O432 1.254 . S
C437 O433 1.269 . S
C438 O439 1.249 . S
C438 O440 1.270 . S
O439 Zn431 1.943 . S
O439 C438 1.249 . S
O440 Zn430 2.067 . S
O440 C438 1.270 . S
C441 O434 1.262 . S
C441 O442 1.232 . S
O442 C441 1.232 . S
C443 O435 1.260 . S
C443 O436 1.257 . S
Zn444 O447 2.031 1_655 S
Zn444 O449 2.049 . S
Zn444 O454 2.067 . S
Zn445 O446 1.962 . S
Zn445 O448 1.986 . S
Zn445 O450 1.996 1_455 S
Zn445 O453 1.943 . S
O446 Zn445 1.962 . S
O446 C451 1.254 . S
O447 Zn444 2.031 1_455 S
O447 C451 1.269 . S
O448 Zn445 1.986 . S
O448 C455 1.262 . S
O449 Zn444 2.049 . S
O449 C457 1.260 . S
O450 Zn445 1.996 1_655 S
O450 C457 1.257 . S
C451 O446 1.254 . S
C451 O447 1.269 . S
C452 O453 1.249 . S
C452 O454 1.270 1_455 S
O453 Zn445 1.943 . S
O453 C452 1.249 . S
O454 Zn444 2.067 . S
O454 C452 1.270 1_655 S
C455 O448 1.262 . S
C455 O456 1.232 . S
O456 C455 1.232 . S
C457 O449 1.260 . S
C457 O450 1.257 . S
Zn458 O461 2.031 . S
Zn458 O463 2.049 . S
Zn458 O468 2.067 . S
Zn459 O460 1.962 . S
Zn459 O462 1.986 . S
Zn459 O464 1.996 . S
Zn459 O467 1.943 . S
O460 Zn459 1.962 . S
O460 C465 1.254 . S
O461 Zn458 2.031 . S
O461 C465 1.269 . S
O462 Zn459 1.986 . S
O462 C469 1.262 . S
O463 Zn458 2.049 . S
O463 C471 1.260 . S
O464 Zn459 1.996 . S
O464 C471 1.257 . S
C465 O460 1.254 . S
C465 O461 1.269 . S
C466 O467 1.249 . S
C466 O468 1.270 . S
O467 Zn459 1.943 . S
O467 C466 1.249 . S
O468 Zn458 2.067 . S
O468 C466 1.270 . S
C469 O462 1.262 . S
C469 O470 1.232 . S
O470 C469 1.232 . S
C471 O463 1.260 . S
C471 O464 1.257 . S
H472 C490 0.951 . S
H473 C492 0.951 . S
H474 C494 0.950 . S
H475 C495 0.950 . S
H476 C497 0.950 . S
H477 C500 0.950 . S
H478 C501 0.950 . S
H479 C503 0.950 . S
H480 C504 0.950 . S
H481 C505 0.951 . S
H482 C507 0.951 . S
H483 C509 0.950 . S
H484 C510 0.950 . S
H485 C512 0.950 . S
H486 C515 0.950 . S
H487 C516 0.950 . S
H488 C518 0.950 . S
H489 C519 0.950 . S
C490 H472 0.951 . S
C490 C491 1.366 . S
C490 C492 1.388 . S
C491 C490 1.366 . S
C491 C495 1.385 . S
C492 H473 0.951 . S
C492 C490 1.388 . S
C492 C493 1.366 . S
C493 C492 1.366 . S
C493 C494 1.414 . S
C493 C496 1.499 . S
C494 H474 0.950 . S
C494 C493 1.414 . S
C494 C495 1.374 . S
C495 H475 0.950 . S
C495 C491 1.385 . S
C495 C494 1.374 . S
C496 C493 1.499 . S
C496 C497 1.373 . S
C496 C498 1.389 . S
C497 H476 0.950 . S
C497 C496 1.373 . S
C497 C513 1.377 . S
C498 C496 1.389 . S
C498 C499 1.524 . S
C498 C512 1.377 . S
C499 C498 1.524 . S
C499 C500 1.397 . S
C499 C504 1.363 . S
C500 H477 0.950 . S
C500 C499 1.397 . S
C500 C501 1.334 . S
C501 H478 0.950 . S
C501 C500 1.334 . S
C501 C502 1.287 . S
C502 C501 1.287 . S
C502 C503 1.524 . S
C502 H521 0.913 . S
C503 H479 0.950 . S
C503 C502 1.524 . S
C503 C504 1.415 . S
C504 H480 0.950 . S
C504 C499 1.363 . S
C504 C503 1.415 . S
C505 H481 0.951 . S
C505 C506 1.366 . S
C505 C507 1.388 . S
C506 C505 1.366 . S
C506 C510 1.385 . S
C507 H482 0.951 . S
C507 C505 1.388 . S
C507 C508 1.366 . S
C508 C507 1.366 . S
C508 C509 1.414 . S
C508 C511 1.499 . S
C509 H483 0.950 . S
C509 C508 1.414 . S
C509 C510 1.374 . S
C510 H484 0.950 . S
C510 C506 1.385 . S
C510 C509 1.374 . S
C511 C508 1.499 . S
C511 C512 1.373 . S
C511 C513 1.389 . S
C512 H485 0.950 . S
C512 C498 1.377 . S
C512 C511 1.373 . S
C513 C497 1.377 . S
C513 C511 1.389 . S
C513 C514 1.524 . S
C514 C513 1.524 . S
C514 C515 1.397 . S
C514 C519 1.363 . S
C515 H486 0.950 . S
C515 C514 1.397 . S
C515 C516 1.334 . S
C516 H487 0.950 . S
C516 C515 1.334 . S
C516 C517 1.287 . S
C517 C516 1.287 . S
C517 C518 1.524 . S
C517 H520 0.999 . S
C518 H488 0.950 . S
C518 C517 1.524 . S
C518 C519 1.415 . S
C519 H489 0.950 . S
C519 C514 1.363 . S
C519 C518 1.415 . S
H520 C517 0.999 . S
H521 C502 0.913 . S
H522 C540 0.951 . S
H523 C542 0.951 . S
H524 C544 0.950 . S
H525 C545 0.950 1_655 S
H526 C547 0.950 . S
H527 C550 0.950 . S
H528 C551 0.950 . S
H529 C553 0.950 . S
H530 C554 0.950 . S
H531 C555 0.951 . S
H532 C557 0.951 . S
H533 C559 0.950 . S
H534 C560 0.950 . S
H535 C562 0.950 . S
H536 C565 0.950 . S
H537 C566 0.950 . S
H538 C568 0.950 . S
H539 C569 0.950 . S
C540 H522 0.951 . S
C540 C541 1.366 . S
C540 C542 1.388 . S
C541 C540 1.366 . S
C541 C545 1.385 . S
C542 H523 0.951 . S
C542 C540 1.388 . S
C542 C543 1.366 . S
C543 C542 1.366 . S
C543 C544 1.414 . S
C543 C546 1.499 . S
C544 H524 0.950 . S
C544 C543 1.414 . S
C544 C545 1.374 . S
C545 H525 0.950 1_455 S
C545 C541 1.385 . S
C545 C544 1.374 . S
C546 C543 1.499 . S
C546 C547 1.373 . S
C546 C548 1.389 . S
C547 H526 0.950 . S
C547 C546 1.373 . S
C547 C563 1.377 . S
C548 C546 1.389 . S
C548 C549 1.524 . S
C548 C562 1.377 . S
C549 C548 1.524 . S
C549 C550 1.397 . S
C549 C554 1.363 . S
C550 H527 0.950 . S
C550 C549 1.397 . S
C550 C551 1.334 . S
C551 H528 0.950 . S
C551 C550 1.334 . S
C551 C552 1.287 . S
C552 C551 1.287 . S
C552 C553 1.524 . S
C552 H571 0.913 . S
C553 H529 0.950 . S
C553 C552 1.524 . S
C553 C554 1.415 . S
C554 H530 0.950 . S
C554 C549 1.363 . S
C554 C553 1.415 . S
C555 H531 0.951 . S
C555 C556 1.366 . S
C555 C557 1.388 . S
C556 C555 1.366 . S
C556 C560 1.385 . S
C557 H532 0.951 . S
C557 C555 1.388 . S
C557 C558 1.366 . S
C558 C557 1.366 . S
C558 C559 1.414 . S
C558 C561 1.499 . S
C559 H533 0.950 . S
C559 C558 1.414 . S
C559 C560 1.374 . S
C560 H534 0.950 . S
C560 C556 1.385 . S
C560 C559 1.374 . S
C561 C558 1.499 . S
C561 C562 1.373 . S
C561 C563 1.389 . S
C562 H535 0.950 . S
C562 C548 1.377 . S
C562 C561 1.373 . S
C563 C547 1.377 . S
C563 C561 1.389 . S
C563 C564 1.524 . S
C564 C563 1.524 . S
C564 C565 1.397 . S
C564 C569 1.363 . S
C565 H536 0.950 . S
C565 C564 1.397 . S
C565 C566 1.334 . S
C566 H537 0.950 . S
C566 C565 1.334 . S
C566 C567 1.287 . S
C567 C566 1.287 . S
C567 C568 1.524 . S
C567 H570 0.999 . S
C568 H538 0.950 . S
C568 C567 1.524 . S
C568 C569 1.415 . S
C569 H539 0.950 . S
C569 C564 1.363 . S
C569 C568 1.415 . S
H570 C567 0.999 . S
H571 C552 0.913 . S
H572 C590 0.951 . S
H573 C592 0.951 . S
H574 C594 0.950 . S
H575 C595 0.950 . S
H576 C597 0.950 . S
H577 C600 0.950 . S
H578 C601 0.950 . S
H579 C603 0.950 . S
H580 C604 0.950 . S
H581 C605 0.951 . S
H582 C607 0.951 . S
H583 C609 0.950 . S
H584 C610 0.950 . S
H585 C612 0.950 . S
H586 C615 0.950 . S
H587 C616 0.950 . S
H588 C618 0.950 . S
H589 C619 0.950 . S
C590 H572 0.951 . S
C590 C591 1.366 . S
C590 C592 1.388 . S
C591 C590 1.366 . S
C591 C595 1.385 . S
C592 H573 0.951 . S
C592 C590 1.388 . S
C592 C593 1.366 . S
C593 C592 1.366 . S
C593 C594 1.414 . S
C593 C596 1.499 . S
C594 H574 0.950 . S
C594 C593 1.414 . S
C594 C595 1.374 . S
C595 H575 0.950 . S
C595 C591 1.385 . S
C595 C594 1.374 . S
C596 C593 1.499 . S
C596 C597 1.373 . S
C596 C598 1.389 . S
C597 H576 0.950 . S
C597 C596 1.373 . S
C597 C613 1.377 . S
C598 C596 1.389 . S
C598 C599 1.524 . S
C598 C612 1.377 . S
C599 C598 1.524 . S
C599 C600 1.397 . S
C599 C604 1.363 . S
C600 H577 0.950 . S
C600 C599 1.397 . S
C600 C601 1.334 . S
C601 H578 0.950 . S
C601 C600 1.334 . S
C601 C602 1.287 . S
C602 C601 1.287 . S
C602 C603 1.524 . S
C602 H621 0.913 . S
C603 H579 0.950 . S
C603 C602 1.524 . S
C603 C604 1.415 . S
C604 H580 0.950 . S
C604 C599 1.363 . S
C604 C603 1.415 . S
C605 H581 0.951 . S
C605 C606 1.366 . S
C605 C607 1.388 . S
C606 C605 1.366 . S
C606 C610 1.385 . S
C607 H582 0.951 . S
C607 C605 1.388 . S
C607 C608 1.366 . S
C608 C607 1.366 . S
C608 C609 1.414 . S
C608 C611 1.499 . S
C609 H583 0.950 . S
C609 C608 1.414 . S
C609 C610 1.374 . S
C610 H584 0.950 . S
C610 C606 1.385 . S
C610 C609 1.374 . S
C611 C608 1.499 . S
C611 C612 1.373 . S
C611 C613 1.389 . S
C612 H585 0.950 . S
C612 C598 1.377 . S
C612 C611 1.373 . S
C613 C597 1.377 . S
C613 C611 1.389 . S
C613 C614 1.524 . S
C614 C613 1.524 . S
C614 C615 1.397 . S
C614 C619 1.363 . S
C615 H586 0.950 . S
C615 C614 1.397 . S
C615 C616 1.334 . S
C616 H587 0.950 . S
C616 C615 1.334 . S
C616 C617 1.287 . S
C617 C616 1.287 . S
C617 C618 1.524 . S
C617 H620 0.999 . S
C618 H588 0.950 . S
C618 C617 1.524 . S
C618 C619 1.415 . S
C619 H589 0.950 . S
C619 C614 1.363 . S
C619 C618 1.415 . S
H620 C617 0.999 . S
H621 C602 0.913 . S
H622 C640 0.951 . S
H623 C642 0.951 . S
H624 C644 0.950 . S
H625 C645 0.950 . S
H626 C647 0.950 . S
H627 C650 0.950 . S
H628 C651 0.950 . S
H629 C653 0.950 . S
H630 C654 0.950 . S
H631 C655 0.951 . S
H632 C657 0.951 1_655 S
H633 C659 0.950 . S
H634 C660 0.950 . S
H635 C662 0.950 . S
H636 C665 0.950 . S
H637 C666 0.950 . S
H638 C668 0.950 . S
H639 C669 0.950 . S
C640 H622 0.951 . S
C640 C641 1.366 . S
C640 C642 1.388 . S
C641 C640 1.366 . S
C641 C645 1.385 . S
C642 H623 0.951 . S
C642 C640 1.388 . S
C642 C643 1.366 . S
C643 C642 1.366 . S
C643 C644 1.414 . S
C643 C646 1.499 . S
C644 H624 0.950 . S
C644 C643 1.414 . S
C644 C645 1.374 . S
C645 H625 0.950 . S
C645 C641 1.385 . S
C645 C644 1.374 . S
C646 C643 1.499 . S
C646 C647 1.373 . S
C646 C648 1.389 1_565 S
C647 H626 0.950 . S
C647 C646 1.373 . S
C647 C663 1.377 . S
C648 C646 1.389 1_545 S
C648 C649 1.524 . S
C648 C662 1.377 . S
C649 C648 1.524 . S
C649 C650 1.397 . S
C649 C654 1.363 . S
C650 H627 0.950 . S
C650 C649 1.397 . S
C650 C651 1.334 . S
C651 H628 0.950 . S
C651 C650 1.334 . S
C651 C652 1.287 . S
C652 C651 1.287 . S
C652 C653 1.524 . S
C652 H671 0.913 . S
C653 H629 0.950 . S
C653 C652 1.524 . S
C653 C654 1.415 . S
C654 H630 0.950 . S
C654 C649 1.363 . S
C654 C653 1.415 . S
C655 H631 0.951 . S
C655 C656 1.366 1_565 S
C655 C657 1.388 1_655 S
C656 C655 1.366 1_545 S
C656 C660 1.385 1_655 S
C657 H632 0.951 1_455 S
C657 C655 1.388 1_455 S
C657 C658 1.366 . S
C658 C657 1.366 . S
C658 C659 1.414 1_565 S
C658 C661 1.499 . S
C659 H633 0.950 . S
C659 C658 1.414 1_545 S
C659 C660 1.374 . S
C660 H634 0.950 . S
C660 C656 1.385 1_455 S
C660 C659 1.374 . S
C661 C658 1.499 . S
C661 C662 1.373 1_565 S
C661 C663 1.389 . S
C662 H635 0.950 . S
C662 C648 1.377 . S
C662 C661 1.373 1_545 S
C663 C647 1.377 . S
C663 C661 1.389 . S
C663 C664 1.524 . S
C664 C663 1.524 . S
C664 C665 1.397 . S
C664 C669 1.363 . S
C665 H636 0.950 . S
C665 C664 1.397 . S
C665 C666 1.334 . S
C666 H637 0.950 . S
C666 C665 1.334 . S
C666 C667 1.287 . S
C667 C666 1.287 . S
C667 C668 1.524 . S
C667 H670 0.999 . S
C668 H638 0.950 . S
C668 C667 1.524 . S
C668 C669 1.415 . S
C669 H639 0.950 . S
C669 C664 1.363 . S
C669 C668 1.415 . S
H670 C667 0.999 . S
H671 C652 0.913 . S
H672 C690 0.951 . S
H673 C692 0.951 . S
H674 C694 0.950 . S
H675 C695 0.950 . S
H676 C697 0.950 . S
H677 C700 0.950 . S
H678 C701 0.950 . S
H679 C703 0.950 . S
H680 C704 0.950 . S
H681 C705 0.951 . S
H682 C707 0.951 . S
H683 C709 0.950 . S
H684 C710 0.950 . S
H685 C712 0.950 . S
H686 C715 0.950 . S
H687 C716 0.950 . S
H688 C718 0.950 . S
H689 C719 0.950 . S
C690 H672 0.951 . S
C690 C691 1.366 . S
C690 C692 1.388 . S
C691 C690 1.366 . S
C691 C695 1.385 . S
C692 H673 0.951 . S
C692 C690 1.388 . S
C692 C693 1.366 . S
C693 C692 1.366 . S
C693 C694 1.414 . S
C693 C696 1.499 . S
C694 H674 0.950 . S
C694 C693 1.414 . S
C694 C695 1.374 . S
C695 H675 0.950 . S
C695 C691 1.385 . S
C695 C694 1.374 . S
C696 C693 1.499 . S
C696 C697 1.373 . S
C696 C698 1.389 . S
C697 H676 0.950 . S
C697 C696 1.373 . S
C697 C713 1.377 . S
C698 C696 1.389 . S
C698 C699 1.524 . S
C698 C712 1.377 . S
C699 C698 1.524 . S
C699 C700 1.397 . S
C699 C704 1.363 . S
C700 H677 0.950 . S
C700 C699 1.397 . S
C700 C701 1.334 . S
C701 H678 0.950 . S
C701 C700 1.334 . S
C701 C702 1.287 . S
C702 C701 1.287 . S
C702 C703 1.524 . S
C702 H721 0.913 . S
C703 H679 0.950 . S
C703 C702 1.524 . S
C703 C704 1.415 . S
C704 H680 0.950 . S
C704 C699 1.363 . S
C704 C703 1.415 . S
C705 H681 0.951 . S
C705 C706 1.366 . S
C705 C707 1.388 . S
C706 C705 1.366 . S
C706 C710 1.385 . S
C707 H682 0.951 . S
C707 C705 1.388 . S
C707 C708 1.366 . S
C708 C707 1.366 . S
C708 C709 1.414 . S
C708 C711 1.499 . S
C709 H683 0.950 . S
C709 C708 1.414 . S
C709 C710 1.374 . S
C710 H684 0.950 . S
C710 C706 1.385 . S
C710 C709 1.374 . S
C711 C708 1.499 . S
C711 C712 1.373 . S
C711 C713 1.389 . S
C712 H685 0.950 . S
C712 C698 1.377 . S
C712 C711 1.373 . S
C713 C697 1.377 . S
C713 C711 1.389 . S
C713 C714 1.524 . S
C714 C713 1.524 . S
C714 C715 1.397 . S
C714 C719 1.363 . S
C715 H686 0.950 . S
C715 C714 1.397 . S
C715 C716 1.334 . S
C716 H687 0.950 . S
C716 C715 1.334 . S
C716 C717 1.287 . S
C717 C716 1.287 . S
C717 C718 1.524 . S
C717 H720 0.999 . S
C718 H688 0.950 . S
C718 C717 1.524 . S
C718 C719 1.415 . S
C719 H689 0.950 . S
C719 C714 1.363 . S
C719 C718 1.415 . S
H720 C717 0.999 . S
H721 C702 0.913 . S
H722 C740 0.951 . S
H723 C742 0.951 . S
H724 C744 0.950 . S
H725 C745 0.950 . S
H726 C747 0.950 . S
H727 C750 0.950 . S
H728 C751 0.950 . S
H729 C753 0.950 . S
H730 C754 0.950 . S
H731 C755 0.951 . S
H732 C757 0.951 . S
H733 C759 0.950 . S
H734 C760 0.950 . S
H735 C762 0.950 . S
H736 C765 0.950 . S
H737 C766 0.950 . S
H738 C768 0.950 . S
H739 C769 0.950 . S
C740 H722 0.951 . S
C740 C741 1.366 . S
C740 C742 1.388 . S
C741 C740 1.366 . S
C741 C745 1.385 . S
C742 H723 0.951 . S
C742 C740 1.388 . S
C742 C743 1.366 . S
C743 C742 1.366 . S
C743 C744 1.414 . S
C743 C746 1.499 . S
C744 H724 0.950 . S
C744 C743 1.414 . S
C744 C745 1.374 . S
C745 H725 0.950 . S
C745 C741 1.385 . S
C745 C744 1.374 . S
C746 C743 1.499 . S
C746 C747 1.373 . S
C746 C748 1.389 . S
C747 H726 0.950 . S
C747 C746 1.373 . S
C747 C763 1.377 . S
C748 C746 1.389 . S
C748 C749 1.524 . S
C748 C762 1.377 . S
C749 C748 1.524 . S
C749 C750 1.397 . S
C749 C754 1.363 . S
C750 H727 0.950 . S
C750 C749 1.397 . S
C750 C751 1.334 . S
C751 H728 0.950 . S
C751 C750 1.334 . S
C751 C752 1.287 . S
C752 C751 1.287 . S
C752 C753 1.524 . S
C752 H771 0.913 . S
C753 H729 0.950 . S
C753 C752 1.524 . S
C753 C754 1.415 . S
C754 H730 0.950 . S
C754 C749 1.363 . S
C754 C753 1.415 . S
C755 H731 0.951 . S
C755 C756 1.366 . S
C755 C757 1.388 . S
C756 C755 1.366 . S
C756 C760 1.385 . S
C757 H732 0.951 . S
C757 C755 1.388 . S
C757 C758 1.366 . S
C758 C757 1.366 . S
C758 C759 1.414 . S
C758 C761 1.499 . S
C759 H733 0.950 . S
C759 C758 1.414 . S
C759 C760 1.374 . S
C760 H734 0.950 . S
C760 C756 1.385 . S
C760 C759 1.374 . S
C761 C758 1.499 . S
C761 C762 1.373 . S
C761 C763 1.389 . S
C762 H735 0.950 . S
C762 C748 1.377 . S
C762 C761 1.373 . S
C763 C747 1.377 . S
C763 C761 1.389 . S
C763 C764 1.524 . S
C764 C763 1.524 . S
C764 C765 1.397 . S
C764 C769 1.363 . S
C765 H736 0.950 . S
C765 C764 1.397 . S
C765 C766 1.334 . S
C766 H737 0.950 . S
C766 C765 1.334 . S
C766 C767 1.287 . S
C767 C766 1.287 . S
C767 C768 1.524 . S
C767 H770 0.999 . S
C768 H738 0.950 . S
C768 C767 1.524 . S
C768 C769 1.415 . S
C769 H739 0.950 . S
C769 C764 1.363 . S
C769 C768 1.415 . S
H770 C767 0.999 . S
H771 C752 0.913 . S
H772 C790 0.951 . S
H773 C792 0.951 . S
H774 C794 0.950 . S
H775 C795 0.950 . S
H776 C797 0.950 . S
H777 C800 0.950 . S
H778 C801 0.950 . S
H779 C803 0.950 . S
H780 C804 0.950 . S
H781 C805 0.951 . S
H782 C807 0.951 . S
H783 C809 0.950 . S
H784 C810 0.950 . S
H785 C812 0.950 . S
H786 C815 0.950 . S
H787 C816 0.950 . S
H788 C818 0.950 . S
H789 C819 0.950 . S
C790 H772 0.951 . S
C790 C791 1.366 . S
C790 C792 1.388 . S
C791 C790 1.366 . S
C791 C795 1.385 . S
C792 H773 0.951 . S
C792 C790 1.388 . S
C792 C793 1.366 . S
C793 C792 1.366 . S
C793 C794 1.414 . S
C793 C796 1.499 . S
C794 H774 0.950 . S
C794 C793 1.414 . S
C794 C795 1.374 . S
C795 H775 0.950 . S
C795 C791 1.385 . S
C795 C794 1.374 . S
C796 C793 1.499 . S
C796 C797 1.373 . S
C796 C798 1.389 . S
C797 H776 0.950 . S
C797 C796 1.373 . S
C797 C813 1.377 . S
C798 C796 1.389 . S
C798 C799 1.524 . S
C798 C812 1.377 . S
C799 C798 1.524 . S
C799 C800 1.397 . S
C799 C804 1.363 . S
C800 H777 0.950 . S
C800 C799 1.397 . S
C800 C801 1.334 . S
C801 H778 0.950 . S
C801 C800 1.334 . S
C801 C802 1.287 . S
C802 C801 1.287 . S
C802 C803 1.524 . S
C802 H821 0.913 . S
C803 H779 0.950 . S
C803 C802 1.524 . S
C803 C804 1.415 . S
C804 H780 0.950 . S
C804 C799 1.363 . S
C804 C803 1.415 . S
C805 H781 0.951 . S
C805 C806 1.366 . S
C805 C807 1.388 . S
C806 C805 1.366 . S
C806 C810 1.385 . S
C807 H782 0.951 . S
C807 C805 1.388 . S
C807 C808 1.366 . S
C808 C807 1.366 . S
C808 C809 1.414 . S
C808 C811 1.499 . S
C809 H783 0.950 . S
C809 C808 1.414 . S
C809 C810 1.374 . S
C810 H784 0.950 . S
C810 C806 1.385 . S
C810 C809 1.374 . S
C811 C808 1.499 . S
C811 C812 1.373 . S
C811 C813 1.389 . S
C812 H785 0.950 . S
C812 C798 1.377 . S
C812 C811 1.373 . S
C813 C797 1.377 . S
C813 C811 1.389 . S
C813 C814 1.524 . S
C814 C813 1.524 . S
C814 C815 1.397 . S
C814 C819 1.363 . S
C815 H786 0.950 . S
C815 C814 1.397 . S
C815 C816 1.334 . S
C816 H787 0.950 . S
C816 C815 1.334 . S
C816 C817 1.287 . S
C817 C816 1.287 . S
C817 C818 1.524 . S
C817 H820 0.999 . S
C818 H788 0.950 . S
C818 C817 1.524 . S
C818 C819 1.415 . S
C819 H789 0.950 . S
C819 C814 1.363 . S
C819 C818 1.415 . S
H820 C817 0.999 . S
H821 C802 0.913 . S
H822 C840 0.951 . S
H823 C842 0.951 . S
H824 C844 0.950 . S
H825 C845 0.950 . S
H826 C847 0.950 . S
H827 C850 0.950 . S
H828 C851 0.950 . S
H829 C853 0.950 . S
H830 C854 0.969 . S
H831 C855 0.951 . S
H832 C857 0.951 . S
H833 C859 0.950 . S
H834 C860 0.950 . S
H835 C862 0.950 1_545 S
H836 C865 0.950 . S
H837 C866 0.950 . S
H838 C868 0.950 . S
H839 C869 0.950 . S
C840 H822 0.951 . S
C840 C841 1.366 . S
C840 C842 1.388 . S
C841 C840 1.366 . S
C841 C845 1.385 . S
C842 H823 0.951 . S
C842 C840 1.388 . S
C842 C843 1.366 . S
C843 C842 1.366 . S
C843 C844 1.414 . S
C843 C846 1.499 . S
C844 H824 0.950 . S
C844 C843 1.414 . S
C844 C845 1.374 . S
C845 H825 0.950 . S
C845 C841 1.385 . S
C845 C844 1.374 . S
C846 C843 1.499 . S
C846 C847 1.373 . S
C846 C848 1.389 . S
C847 H826 0.950 . S
C847 C846 1.373 . S
C847 C863 1.377 . S
C848 C846 1.389 . S
C848 C849 1.524 1_565 S
C848 C862 1.377 . S
C849 C848 1.524 1_545 S
C849 C850 1.397 . S
C849 C854 1.363 . S
C850 H827 0.950 . S
C850 C849 1.397 . S
C850 C851 1.334 . S
C851 H828 0.950 . S
C851 C850 1.334 . S
C851 C852 1.287 . S
C852 C851 1.287 . S
C852 C853 1.524 . S
C852 H871 0.913 . S
C853 H829 0.950 . S
C853 C852 1.524 . S
C853 C854 1.415 . S
C854 H830 0.969 . S
C854 C849 1.363 . S
C854 C853 1.415 . S
C855 H831 0.951 . S
C855 C856 1.366 . S
C855 C857 1.388 1_545 S
C856 C855 1.366 . S
C856 C860 1.385 1_545 S
C857 H832 0.951 . S
C857 C855 1.388 1_565 S
C857 C858 1.366 . S
C858 C857 1.366 . S
C858 C859 1.414 . S
C858 C861 1.499 . S
C859 H833 0.950 . S
C859 C858 1.414 . S
C859 C860 1.374 . S
C860 H834 0.950 . S
C860 C856 1.385 1_565 S
C860 C859 1.374 . S
C861 C858 1.499 . S
C861 C862 1.373 . S
C861 C863 1.389 . S
C862 H835 0.950 1_565 S
C862 C848 1.377 . S
C862 C861 1.373 . S
C863 C847 1.377 . S
C863 C861 1.389 . S
C863 C864 1.524 . S
C864 C863 1.524 . S
C864 C865 1.397 . S
C864 C869 1.363 . S
C865 H836 0.950 . S
C865 C864 1.397 . S
C865 C866 1.334 . S
C866 H837 0.950 . S
C866 C865 1.334 . S
C866 C867 1.287 . S
C867 C866 1.287 . S
C867 C868 1.524 . S
C867 H870 0.999 . S
C868 H838 0.950 . S
C868 C867 1.524 . S
C868 C869 1.415 . S
C869 H839 0.950 . S
C869 C864 1.363 . S
C869 C868 1.415 . S
H870 C867 0.999 . S
H871 C852 0.913 . S
H872 C890 0.951 . S
H873 C892 0.951 . S
H874 C894 0.950 . S
H875 C895 0.950 . S
H876 C897 0.950 . S
H877 C900 0.950 . S
H878 C901 0.950 . S
H879 C903 0.950 . S
H880 C904 0.950 . S
H881 C905 0.951 . S
H882 C907 0.951 . S
H883 C909 0.950 . S
H884 C910 0.950 . S
H885 C912 0.950 . S
H886 C915 0.950 . S
H887 C916 0.950 . S
H888 C918 0.950 . S
H889 C919 0.950 . S
C890 H872 0.951 . S
C890 C891 1.366 . S
C890 C892 1.388 . S
C891 C890 1.366 . S
C891 C895 1.385 . S
C892 H873 0.951 . S
C892 C890 1.388 . S
C892 C893 1.366 . S
C893 C892 1.366 . S
C893 C894 1.414 . S
C893 C896 1.499 . S
C894 H874 0.950 . S
C894 C893 1.414 . S
C894 C895 1.374 . S
C895 H875 0.950 . S
C895 C891 1.385 . S
C895 C894 1.374 . S
C896 C893 1.499 . S
C896 C897 1.373 . S
C896 C898 1.389 . S
C897 H876 0.950 . S
C897 C896 1.373 . S
C897 C913 1.377 . S
C898 C896 1.389 . S
C898 C899 1.524 . S
C898 C912 1.377 . S
C899 C898 1.524 . S
C899 C900 1.397 . S
C899 C904 1.363 . S
C900 H877 0.950 . S
C900 C899 1.397 . S
C900 C901 1.334 . S
C901 H878 0.950 . S
C901 C900 1.334 . S
C901 C902 1.287 . S
C902 C901 1.287 . S
C902 C903 1.524 . S
C902 H921 0.913 . S
C903 H879 0.950 . S
C903 C902 1.524 . S
C903 C904 1.415 . S
C904 H880 0.950 . S
C904 C899 1.363 . S
C904 C903 1.415 . S
C905 H881 0.951 . S
C905 C906 1.366 . S
C905 C907 1.388 . S
C906 C905 1.366 . S
C906 C910 1.385 . S
C907 H882 0.951 . S
C907 C905 1.388 . S
C907 C908 1.366 . S
C908 C907 1.366 . S
C908 C909 1.414 . S
C908 C911 1.499 . S
C909 H883 0.950 . S
C909 C908 1.414 . S
C909 C910 1.374 . S
C910 H884 0.950 . S
C910 C906 1.385 . S
C910 C909 1.374 . S
C911 C908 1.499 . S
C911 C912 1.373 . S
C911 C913 1.389 . S
C912 H885 0.950 . S
C912 C898 1.377 . S
C912 C911 1.373 . S
C913 C897 1.377 . S
C913 C911 1.389 . S
C913 C914 1.524 . S
C914 C913 1.524 . S
C914 C915 1.397 . S
C914 C919 1.363 . S
C915 H886 0.950 . S
C915 C914 1.397 . S
C915 C916 1.334 . S
C916 H887 0.950 . S
C916 C915 1.334 . S
C916 C917 1.287 . S
C917 C916 1.287 . S
C917 C918 1.524 . S
C917 H920 0.999 . S
C918 H888 0.950 . S
C918 C917 1.524 . S
C918 C919 1.415 . S
C919 H889 0.950 . S
C919 C914 1.363 . S
C919 C918 1.415 . S
H920 C917 0.999 . S
H921 C902 0.913 . S
H922 C940 0.951 . S
H923 C942 0.951 . S
H924 C944 0.950 . S
H925 C945 0.950 . S
H926 C947 0.950 . S
H927 C950 0.950 . S
H928 C951 0.950 . S
H929 C953 0.950 . S
H930 C954 0.950 . S
H931 C955 0.951 . S
H932 C957 0.951 . S
H933 C959 0.950 . S
H934 C960 0.950 . S
H935 C962 0.950 . S
H936 C965 0.950 . S
H937 C966 0.950 . S
H938 C968 0.950 . S
H939 C969 0.950 . S
C940 H922 0.951 . S
C940 C941 1.366 . S
C940 C942 1.388 . S
C941 C940 1.366 . S
C941 C945 1.385 . S
C942 H923 0.951 . S
C942 C940 1.388 . S
C942 C943 1.366 . S
C943 C942 1.366 . S
C943 C944 1.414 . S
C943 C946 1.499 . S
C944 H924 0.950 . S
C944 C943 1.414 . S
C944 C945 1.374 . S
C945 H925 0.950 . S
C945 C941 1.385 . S
C945 C944 1.374 . S
C946 C943 1.499 . S
C946 C947 1.373 . S
C946 C948 1.389 . S
C947 H926 0.950 . S
C947 C946 1.373 . S
C947 C963 1.377 . S
C948 C946 1.389 . S
C948 C949 1.524 . S
C948 C962 1.377 . S
C949 C948 1.524 . S
C949 C950 1.397 . S
C949 C954 1.363 . S
C950 H927 0.950 . S
C950 C949 1.397 . S
C950 C951 1.334 . S
C951 H928 0.950 . S
C951 C950 1.334 . S
C951 C952 1.287 . S
C952 C951 1.287 . S
C952 C953 1.524 . S
C952 H971 0.913 . S
C953 H929 0.950 . S
C953 C952 1.524 . S
C953 C954 1.415 . S
C954 H930 0.950 . S
C954 C949 1.363 . S
C954 C953 1.415 . S
C955 H931 0.951 . S
C955 C956 1.366 . S
C955 C957 1.388 . S
C956 C955 1.366 . S
C956 C960 1.385 . S
C957 H932 0.951 . S
C957 C955 1.388 . S
C957 C958 1.366 . S
C958 C957 1.366 . S
C958 C959 1.414 . S
C958 C961 1.499 . S
C959 H933 0.950 . S
C959 C958 1.414 . S
C959 C960 1.374 . S
C960 H934 0.950 . S
C960 C956 1.385 . S
C960 C959 1.374 . S
C961 C958 1.499 . S
C961 C962 1.373 . S
C961 C963 1.389 . S
C962 H935 0.950 . S
C962 C948 1.377 . S
C962 C961 1.373 . S
C963 C947 1.377 . S
C963 C961 1.389 . S
C963 C964 1.524 . S
C964 C963 1.524 . S
C964 C965 1.397 . S
C964 C969 1.363 . S
C965 H936 0.950 . S
C965 C964 1.397 . S
C965 C966 1.334 . S
C966 H937 0.950 . S
C966 C965 1.334 . S
C966 C967 1.287 . S
C967 C966 1.287 . S
C967 C968 1.524 . S
C967 H970 0.999 . S
C968 H938 0.950 . S
C968 C967 1.524 . S
C968 C969 1.415 . S
C969 H939 0.950 . S
C969 C964 1.363 . S
C969 C968 1.415 . S
H970 C967 0.999 . S
H971 C952 0.913 . S
H972 C990 0.951 . S
H973 C992 0.951 . S
H974 C994 0.950 . S
H975 C995 0.950 . S
H976 C997 0.950 . S
H977 C1000 0.950 . S
H978 C1001 0.950 . S
H979 C1003 0.950 . S
H980 C1004 0.950 . S
H981 C1005 0.951 . S
H982 C1007 0.951 . S
H983 C1009 0.950 . S
H984 C1010 0.950 . S
H985 C1012 0.950 . S
H986 C1015 0.950 . S
H987 C1016 0.950 . S
H988 C1018 0.950 . S
H989 C1019 0.950 . S
C990 H972 0.951 . S
C990 C991 1.366 . S
C990 C992 1.388 . S
C991 C990 1.366 . S
C991 C995 1.385 . S
C992 H973 0.951 . S
C992 C990 1.388 . S
C992 C993 1.366 . S
C993 C992 1.366 . S
C993 C994 1.414 . S
C993 C996 1.499 . S
C994 H974 0.950 . S
C994 C993 1.414 . S
C994 C995 1.374 . S
C995 H975 0.950 . S
C995 C991 1.385 . S
C995 C994 1.374 . S
C996 C993 1.499 . S
C996 C997 1.373 . S
C996 C998 1.389 . S
C997 H976 0.950 . S
C997 C996 1.373 . S
C997 C1013 1.377 . S
C998 C996 1.389 . S
C998 C999 1.524 . S
C998 C1012 1.377 . S
C999 C998 1.524 . S
C999 C1000 1.397 . S
C999 C1004 1.363 . S
C1000 H977 0.950 . S
C1000 C999 1.397 . S
C1000 C1001 1.334 . S
C1001 H978 0.950 . S
C1001 C1000 1.334 . S
C1001 C1002 1.287 . S
C1002 C1001 1.287 . S
C1002 C1003 1.524 . S
C1002 H1021 0.913 . S
C1003 H979 0.950 . S
C1003 C1002 1.524 . S
C1003 C1004 1.415 . S
C1004 H980 0.950 . S
C1004 C999 1.363 . S
C1004 C1003 1.415 . S
C1005 H981 0.951 . S
C1005 C1006 1.366 . S
C1005 C1007 1.388 . S
C1006 C1005 1.366 . S
C1006 C1010 1.385 . S
C1007 H982 0.951 . S
C1007 C1005 1.388 . S
C1007 C1008 1.366 . S
C1008 C1007 1.366 . S
C1008 C1009 1.414 . S
C1008 C1011 1.499 . S
C1009 H983 0.950 . S
C1009 C1008 1.414 . S
C1009 C1010 1.374 . S
C1010 H984 0.950 . S
C1010 C1006 1.385 . S
C1010 C1009 1.374 . S
C1011 C1008 1.499 . S
C1011 C1012 1.373 . S
C1011 C1013 1.389 . S
C1012 H985 0.950 . S
C1012 C998 1.377 . S
C1012 C1011 1.373 . S
C1013 C997 1.377 . S
C1013 C1011 1.389 . S
C1013 C1014 1.524 . S
C1014 C1013 1.524 . S
C1014 C1015 1.397 . S
C1014 C1019 1.363 . S
C1015 H986 0.950 . S
C1015 C1014 1.397 . S
C1015 C1016 1.334 . S
C1016 H987 0.950 . S
C1016 C1015 1.334 . S
C1016 C1017 1.287 . S
C1017 C1016 1.287 . S
C1017 C1018 1.524 . S
C1017 H1020 0.999 . S
C1018 H988 0.950 . S
C1018 C1017 1.524 . S
C1018 C1019 1.415 . S
C1019 H989 0.950 . S
C1019 C1014 1.363 . S
C1019 C1018 1.415 . S
H1020 C1017 0.999 . S
H1021 C1002 0.913 . S
H1022 C1040 0.951 . S
H1023 C1042 0.951 . S
H1024 C1044 0.950 . S
H1025 C1045 0.950 . S
H1026 C1047 0.950 . S
H1027 C1050 0.950 . S
H1028 C1051 0.950 . S
H1029 C1053 0.950 . S
H1030 C1054 0.950 . S
H1031 C1055 0.951 . S
H1032 C1057 0.951 . S
H1033 C1059 0.950 . S
H1034 C1060 0.950 . S
H1035 C1062 0.950 . S
H1036 C1065 0.950 . S
H1037 C1066 0.950 . S
H1038 C1068 0.950 . S
H1039 C1069 0.950 . S
C1040 H1022 0.951 . S
C1040 C1041 1.366 . S
C1040 C1042 1.388 . S
C1041 C1040 1.366 . S
C1041 C1045 1.385 . S
C1042 H1023 0.951 . S
C1042 C1040 1.388 . S
C1042 C1043 1.366 . S
C1043 C1042 1.366 . S
C1043 C1044 1.414 . S
C1043 C1046 1.499 . S
C1044 H1024 0.950 . S
C1044 C1043 1.414 . S
C1044 C1045 1.374 . S
C1045 H1025 0.950 . S
C1045 C1041 1.385 . S
C1045 C1044 1.374 . S
C1046 C1043 1.499 . S
C1046 C1047 1.373 . S
C1046 C1048 1.389 . S
C1047 H1026 0.950 . S
C1047 C1046 1.373 . S
C1047 C1063 1.377 . S
C1048 C1046 1.389 . S
C1048 C1049 1.524 . S
C1048 C1062 1.377 . S
C1049 C1048 1.524 . S
C1049 C1050 1.397 . S
C1049 C1054 1.363 . S
C1050 H1027 0.950 . S
C1050 C1049 1.397 . S
C1050 C1051 1.334 . S
C1051 H1028 0.950 . S
C1051 C1050 1.334 . S
C1051 C1052 1.287 . S
C1052 C1051 1.287 . S
C1052 C1053 1.524 . S
C1052 H1071 0.913 . S
C1053 H1029 0.950 . S
C1053 C1052 1.524 . S
C1053 C1054 1.415 . S
C1054 H1030 0.950 . S
C1054 C1049 1.363 . S
C1054 C1053 1.415 . S
C1055 H1031 0.951 . S
C1055 C1056 1.366 . S
C1055 C1057 1.388 . S
C1056 C1055 1.366 . S
C1056 C1060 1.385 . S
C1057 H1032 0.951 . S
C1057 C1055 1.388 . S
C1057 C1058 1.366 . S
C1058 C1057 1.366 . S
C1058 C1059 1.414 . S
C1058 C1061 1.499 . S
C1059 H1033 0.950 . S
C1059 C1058 1.414 . S
C1059 C1060 1.374 . S
C1060 H1034 0.950 . S
C1060 C1056 1.385 . S
C1060 C1059 1.374 . S
C1061 C1058 1.499 . S
C1061 C1062 1.373 . S
C1061 C1063 1.389 . S
C1062 H1035 0.950 . S
C1062 C1048 1.377 . S
C1062 C1061 1.373 . S
C1063 C1047 1.377 . S
C1063 C1061 1.389 . S
C1063 C1064 1.524 . S
C1064 C1063 1.524 . S
C1064 C1065 1.397 . S
C1064 C1069 1.363 . S
C1065 H1036 0.950 . S
C1065 C1064 1.397 . S
C1065 C1066 1.334 . S
C1066 H1037 0.950 . S
C1066 C1065 1.334 . S
C1066 C1067 1.287 . S
C1067 C1066 1.287 . S
C1067 C1068 1.524 . S
C1067 H1070 0.999 . S
C1068 H1038 0.950 . S
C1068 C1067 1.524 . S
C1068 C1069 1.415 . S
C1069 H1039 0.950 . S
C1069 C1064 1.363 . S
C1069 C1068 1.415 . S
H1070 C1067 0.999 . S
H1071 C1052 0.913 . S
H1072 C1090 0.951 . S
H1073 C1092 0.951 . S
H1074 C1094 0.950 . S
H1075 C1095 0.950 . S
H1076 C1097 0.950 . S
H1077 C1100 0.950 . S
H1078 C1101 0.950 . S
H1079 C1103 0.950 . S
H1080 C1104 0.950 . S
H1081 C1105 0.951 . S
H1082 C1107 0.951 . S
H1083 C1109 0.950 . S
H1084 C1110 0.950 . S
H1085 C1112 0.950 . S
H1086 C1115 0.950 . S
H1087 C1116 0.950 . S
H1088 C1118 0.950 . S
H1089 C1119 0.950 . S
C1090 H1072 0.951 . S
C1090 C1091 1.366 . S
C1090 C1092 1.388 . S
C1091 C1090 1.366 . S
C1091 C1095 1.385 . S
C1092 H1073 0.951 . S
C1092 C1090 1.388 . S
C1092 C1093 1.366 . S
C1093 C1092 1.366 . S
C1093 C1094 1.414 . S
C1093 C1096 1.499 . S
C1094 H1074 0.950 . S
C1094 C1093 1.414 . S
C1094 C1095 1.374 . S
C1095 H1075 0.950 . S
C1095 C1091 1.385 . S
C1095 C1094 1.374 . S
C1096 C1093 1.499 . S
C1096 C1097 1.373 . S
C1096 C1098 1.389 . S
C1097 H1076 0.950 . S
C1097 C1096 1.373 . S
C1097 C1113 1.377 . S
C1098 C1096 1.389 . S
C1098 C1099 1.524 . S
C1098 C1112 1.377 . S
C1099 C1098 1.524 . S
C1099 C1100 1.397 . S
C1099 C1104 1.363 . S
C1100 H1077 0.950 . S
C1100 C1099 1.397 . S
C1100 C1101 1.334 . S
C1101 H1078 0.950 . S
C1101 C1100 1.334 . S
C1101 C1102 1.287 . S
C1102 C1101 1.287 . S
C1102 C1103 1.524 . S
C1102 H1121 0.913 . S
C1103 H1079 0.950 . S
C1103 C1102 1.524 . S
C1103 C1104 1.415 . S
C1104 H1080 0.950 . S
C1104 C1099 1.363 . S
C1104 C1103 1.415 . S
C1105 H1081 0.951 . S
C1105 C1106 1.366 . S
C1105 C1107 1.388 . S
C1106 C1105 1.366 . S
C1106 C1110 1.385 . S
C1107 H1082 0.951 . S
C1107 C1105 1.388 . S
C1107 C1108 1.366 . S
C1108 C1107 1.366 . S
C1108 C1109 1.414 . S
C1108 C1111 1.499 . S
C1109 H1083 0.950 . S
C1109 C1108 1.414 . S
C1109 C1110 1.374 . S
C1110 H1084 0.950 . S
C1110 C1106 1.385 . S
C1110 C1109 1.374 . S
C1111 C1108 1.499 . S
C1111 C1112 1.373 . S
C1111 C1113 1.389 . S
C1112 H1085 0.950 . S
C1112 C1098 1.377 . S
C1112 C1111 1.373 . S
C1113 C1097 1.377 . S
C1113 C1111 1.389 . S
C1113 C1114 1.524 . S
C1114 C1113 1.524 . S
C1114 C1115 1.397 . S
C1114 C1119 1.363 . S
C1115 H1086 0.950 . S
C1115 C1114 1.397 . S
C1115 C1116 1.334 . S
C1116 H1087 0.950 . S
C1116 C1115 1.334 . S
C1116 C1117 1.287 . S
C1117 C1116 1.287 . S
C1117 C1118 1.524 . S
C1117 H1120 0.999 . S
C1118 H1088 0.950 . S
C1118 C1117 1.524 . S
C1118 C1119 1.415 . S
C1119 H1089 0.950 . S
C1119 C1114 1.363 . S
C1119 C1118 1.415 . S
H1120 C1117 0.999 . S
H1121 C1102 0.913 . S
H1122 C1140 0.951 . S
H1123 C1142 0.951 . S
H1124 C1144 0.950 . S
H1125 C1145 0.950 . S
H1126 C1147 0.950 . S
H1127 C1150 0.950 . S
H1128 C1151 0.950 . S
H1129 C1153 0.950 . S
H1130 C1154 0.950 . S
H1131 C1155 0.951 . S
H1132 C1157 0.951 . S
H1133 C1159 0.950 . S
H1134 C1160 0.950 . S
H1135 C1162 0.950 . S
H1136 C1165 0.950 . S
H1137 C1166 0.950 . S
H1138 C1168 0.950 . S
H1139 C1169 0.950 . S
C1140 H1122 0.951 . S
C1140 C1141 1.366 . S
C1140 C1142 1.388 . S
C1141 C1140 1.366 . S
C1141 C1145 1.385 . S
C1142 H1123 0.951 . S
C1142 C1140 1.388 . S
C1142 C1143 1.366 . S
C1143 C1142 1.366 . S
C1143 C1144 1.414 . S
C1143 C1146 1.499 . S
C1144 H1124 0.950 . S
C1144 C1143 1.414 . S
C1144 C1145 1.374 . S
C1145 H1125 0.950 . S
C1145 C1141 1.385 . S
C1145 C1144 1.374 . S
C1146 C1143 1.499 . S
C1146 C1147 1.373 . S
C1146 C1148 1.389 . S
C1147 H1126 0.950 . S
C1147 C1146 1.373 . S
C1147 C1163 1.377 . S
C1148 C1146 1.389 . S
C1148 C1149 1.524 . S
C1148 C1162 1.377 . S
C1149 C1148 1.524 . S
C1149 C1150 1.397 . S
C1149 C1154 1.363 . S
C1150 H1127 0.950 . S
C1150 C1149 1.397 . S
C1150 C1151 1.334 . S
C1151 H1128 0.950 . S
C1151 C1150 1.334 . S
C1151 C1152 1.287 . S
C1152 C1151 1.287 . S
C1152 C1153 1.524 . S
C1152 H1171 0.913 . S
C1153 H1129 0.950 . S
C1153 C1152 1.524 . S
C1153 C1154 1.415 . S
C1154 H1130 0.950 . S
C1154 C1149 1.363 . S
C1154 C1153 1.415 . S
C1155 H1131 0.951 . S
C1155 C1156 1.366 . S
C1155 C1157 1.388 . S
C1156 C1155 1.366 . S
C1156 C1160 1.385 . S
C1157 H1132 0.951 . S
C1157 C1155 1.388 . S
C1157 C1158 1.366 . S
C1158 C1157 1.366 . S
C1158 C1159 1.414 . S
C1158 C1161 1.499 . S
C1159 H1133 0.950 . S
C1159 C1158 1.414 . S
C1159 C1160 1.374 . S
C1160 H1134 0.950 . S
C1160 C1156 1.385 . S
C1160 C1159 1.374 . S
C1161 C1158 1.499 . S
C1161 C1162 1.373 . S
C1161 C1163 1.389 . S
C1162 H1135 0.950 . S
C1162 C1148 1.377 . S
C1162 C1161 1.373 . S
C1163 C1147 1.377 . S
C1163 C1161 1.389 . S
C1163 C1164 1.524 . S
C1164 C1163 1.524 . S
C1164 C1165 1.397 . S
C1164 C1169 1.363 . S
C1165 H1136 0.950 . S
C1165 C1164 1.397 . S
C1165 C1166 1.334 . S
C1166 H1137 0.950 . S
C1166 C1165 1.334 . S
C1166 C1167 1.287 . S
C1167 C1166 1.287 . S
C1167 C1168 1.524 . S
C1167 H1170 0.999 . S
C1168 H1138 0.950 . S
C1168 C1167 1.524 . S
C1168 C1169 1.415 . S
C1169 H1139 0.950 . S
C1169 C1164 1.363 . S
C1169 C1168 1.415 . S
H1170 C1167 0.999 . S
H1171 C1152 0.913 . S
H1172 C1190 0.951 . S
H1173 C1192 0.951 . S
H1174 C1194 0.950 . S
H1175 C1195 0.950 . S
H1176 C1197 0.950 . S
H1177 C1200 0.950 . S
H1178 C1201 0.950 . S
H1179 C1203 0.950 . S
H1180 C1204 0.950 . S
H1181 C1205 0.951 . S
H1182 C1207 0.951 . S
H1183 C1209 0.950 . S
H1184 C1210 0.950 . S
H1185 C1212 0.950 . S
H1186 C1215 0.950 . S
H1187 C1216 0.950 . S
H1188 C1218 0.950 . S
H1189 C1219 0.950 . S
C1190 H1172 0.951 . S
C1190 C1191 1.366 . S
C1190 C1192 1.388 . S
C1191 C1190 1.366 . S
C1191 C1195 1.385 . S
C1192 H1173 0.951 . S
C1192 C1190 1.388 . S
C1192 C1193 1.366 . S
C1193 C1192 1.366 . S
C1193 C1194 1.414 . S
C1193 C1196 1.499 . S
C1194 H1174 0.950 . S
C1194 C1193 1.414 . S
C1194 C1195 1.374 . S
C1195 H1175 0.950 . S
C1195 C1191 1.385 . S
C1195 C1194 1.374 . S
C1196 C1193 1.499 . S
C1196 C1197 1.373 . S
C1196 C1198 1.389 . S
C1197 H1176 0.950 . S
C1197 C1196 1.373 . S
C1197 C1213 1.377 . S
C1198 C1196 1.389 . S
C1198 C1199 1.524 . S
C1198 C1212 1.377 . S
C1199 C1198 1.524 . S
C1199 C1200 1.397 . S
C1199 C1204 1.363 . S
C1200 H1177 0.950 . S
C1200 C1199 1.397 . S
C1200 C1201 1.334 . S
C1201 H1178 0.950 . S
C1201 C1200 1.334 . S
C1201 C1202 1.287 . S
C1202 C1201 1.287 . S
C1202 C1203 1.524 . S
C1202 H1221 0.913 . S
C1203 H1179 0.950 . S
C1203 C1202 1.524 . S
C1203 C1204 1.415 . S
C1204 H1180 0.950 . S
C1204 C1199 1.363 . S
C1204 C1203 1.415 . S
C1205 H1181 0.951 . S
C1205 C1206 1.366 . S
C1205 C1207 1.388 . S
C1206 C1205 1.366 . S
C1206 C1210 1.385 . S
C1207 H1182 0.951 . S
C1207 C1205 1.388 . S
C1207 C1208 1.366 . S
C1208 C1207 1.366 . S
C1208 C1209 1.414 . S
C1208 C1211 1.499 . S
C1209 H1183 0.950 . S
C1209 C1208 1.414 . S
C1209 C1210 1.374 . S
C1210 H1184 0.950 . S
C1210 C1206 1.385 . S
C1210 C1209 1.374 . S
C1211 C1208 1.499 . S
C1211 C1212 1.373 . S
C1211 C1213 1.389 . S
C1212 H1185 0.950 . S
C1212 C1198 1.377 . S
C1212 C1211 1.373 . S
C1213 C1197 1.377 . S
C1213 C1211 1.389 . S
C1213 C1214 1.524 . S
C1214 C1213 1.524 . S
C1214 C1215 1.397 . S
C1214 C1219 1.363 . S
C1215 H1186 0.950 . S
C1215 C1214 1.397 . S
C1215 C1216 1.334 . S
C1216 H1187 0.950 . S
C1216 C1215 1.334 . S
C1216 C1217 1.287 . S
C1217 C1216 1.287 . S
C1217 C1218 1.524 . S
C1217 H1220 0.999 . S
C1218 H1188 0.950 . S
C1218 C1217 1.524 . S
C1218 C1219 1.415 . S
C1219 H1189 0.950 . S
C1219 C1214 1.363 . S
C1219 C1218 1.415 . S
H1220 C1217 0.999 . S
H1221 C1202 0.913 . S
H1222 C1240 0.951 . S
H1223 C1242 0.951 . S
H1224 C1244 0.950 . S
H1225 C1245 0.950 . S
H1226 C1247 0.950 . S
H1227 C1250 0.950 . S
H1228 C1251 0.950 . S
H1229 C1253 0.950 . S
H1230 C1254 0.950 . S
H1231 C1255 0.951 . S
H1232 C1257 0.951 . S
H1233 C1259 0.950 . S
H1234 C1260 0.950 . S
H1235 C1262 0.950 . S
H1236 C1265 0.950 . S
H1237 C1266 0.950 . S
H1238 C1268 0.950 . S
H1239 C1269 0.950 . S
C1240 H1222 0.951 . S
C1240 C1241 1.366 . S
C1240 C1242 1.388 . S
C1241 C1240 1.366 . S
C1241 C1245 1.385 . S
C1242 H1223 0.951 . S
C1242 C1240 1.388 . S
C1242 C1243 1.366 . S
C1243 C1242 1.366 . S
C1243 C1244 1.414 . S
C1243 C1246 1.499 . S
C1244 H1224 0.950 . S
C1244 C1243 1.414 . S
C1244 C1245 1.374 . S
C1245 H1225 0.950 . S
C1245 C1241 1.385 . S
C1245 C1244 1.374 . S
C1246 C1243 1.499 . S
C1246 C1247 1.373 . S
C1246 C1248 1.389 . S
C1247 H1226 0.950 . S
C1247 C1246 1.373 . S
C1247 C1263 1.377 . S
C1248 C1246 1.389 . S
C1248 C1249 1.524 . S
C1248 C1262 1.377 . S
C1249 C1248 1.524 . S
C1249 C1250 1.397 . S
C1249 C1254 1.363 . S
C1250 H1227 0.950 . S
C1250 C1249 1.397 . S
C1250 C1251 1.334 . S
C1251 H1228 0.950 . S
C1251 C1250 1.334 . S
C1251 C1252 1.287 . S
C1252 C1251 1.287 . S
C1252 C1253 1.524 . S
C1252 H1271 0.913 . S
C1253 H1229 0.950 . S
C1253 C1252 1.524 . S
C1253 C1254 1.415 . S
C1254 H1230 0.950 . S
C1254 C1249 1.363 . S
C1254 C1253 1.415 . S
C1255 H1231 0.951 . S
C1255 C1256 1.366 1_655 S
C1255 C1257 1.388 . S
C1256 C1255 1.366 1_455 S
C1256 C1260 1.385 . S
C1257 H1232 0.951 . S
C1257 C1255 1.388 . S
C1257 C1258 1.366 . S
C1258 C1257 1.366 . S
C1258 C1259 1.414 1_655 S
C1258 C1261 1.499 . S
C1259 H1233 0.950 . S
C1259 C1258 1.414 1_455 S
C1259 C1260 1.374 . S
C1260 H1234 0.950 . S
C1260 C1256 1.385 . S
C1260 C1259 1.374 . S
C1261 C1258 1.499 . S
C1261 C1262 1.373 . S
C1261 C1263 1.389 . S
C1262 H1235 0.950 . S
C1262 C1248 1.377 . S
C1262 C1261 1.373 . S
C1263 C1247 1.377 . S
C1263 C1261 1.389 . S
C1263 C1264 1.524 1_655 S
C1264 C1263 1.524 1_455 S
C1264 C1265 1.397 . S
C1264 C1269 1.363 1_455 S
C1265 H1236 0.950 . S
C1265 C1264 1.397 . S
C1265 C1266 1.334 . S
C1266 H1237 0.950 . S
C1266 C1265 1.334 . S
C1266 C1267 1.287 . S
C1267 C1266 1.287 . S
C1267 C1268 1.524 . S
C1267 H1270 0.999 . S
C1268 H1238 0.950 . S
C1268 C1267 1.524 . S
C1268 C1269 1.415 1_455 S
C1269 H1239 0.950 . S
C1269 C1264 1.363 1_655 S
C1269 C1268 1.415 1_655 S
H1270 C1267 0.999 . S
H1271 C1252 0.913 . S
H1272 C1290 0.951 . S
H1273 C1292 0.951 . S
H1274 C1294 0.950 . S
H1275 C1295 0.950 . S
H1276 C1297 0.950 . S
H1277 C1300 0.950 . S
H1278 C1301 0.950 . S
H1279 C1303 0.950 . S
H1280 C1304 0.950 . S
H1281 C1305 0.951 . S
H1282 C1307 0.951 . S
H1283 C1309 0.950 . S
H1284 C1310 0.950 . S
H1285 C1312 0.950 . S
H1286 C1315 0.950 . S
H1287 C1316 0.950 . S
H1288 C1318 0.950 . S
H1289 C1319 0.950 . S
C1290 H1272 0.951 . S
C1290 C1291 1.366 . S
C1290 C1292 1.388 . S
C1291 C1290 1.366 . S
C1291 C1295 1.385 . S
C1292 H1273 0.951 . S
C1292 C1290 1.388 . S
C1292 C1293 1.366 . S
C1293 C1292 1.366 . S
C1293 C1294 1.414 . S
C1293 C1296 1.499 . S
C1294 H1274 0.950 . S
C1294 C1293 1.414 . S
C1294 C1295 1.374 . S
C1295 H1275 0.950 . S
C1295 C1291 1.385 . S
C1295 C1294 1.374 . S
C1296 C1293 1.499 . S
C1296 C1297 1.373 . S
C1296 C1298 1.389 . S
C1297 H1276 0.950 . S
C1297 C1296 1.373 . S
C1297 C1313 1.377 . S
C1298 C1296 1.389 . S
C1298 C1299 1.524 . S
C1298 C1312 1.377 . S
C1299 C1298 1.524 . S
C1299 C1300 1.397 . S
C1299 C1304 1.363 . S
C1300 H1277 0.950 . S
C1300 C1299 1.397 . S
C1300 C1301 1.334 . S
C1301 H1278 0.950 . S
C1301 C1300 1.334 . S
C1301 C1302 1.287 . S
C1302 C1301 1.287 . S
C1302 C1303 1.524 . S
C1302 H1321 0.913 . S
C1303 H1279 0.950 . S
C1303 C1302 1.524 . S
C1303 C1304 1.415 . S
C1304 H1280 0.950 . S
C1304 C1299 1.363 . S
C1304 C1303 1.415 . S
C1305 H1281 0.951 . S
C1305 C1306 1.366 . S
C1305 C1307 1.388 . S
C1306 C1305 1.366 . S
C1306 C1310 1.385 . S
C1307 H1282 0.951 . S
C1307 C1305 1.388 . S
C1307 C1308 1.366 . S
C1308 C1307 1.366 . S
C1308 C1309 1.414 . S
C1308 C1311 1.499 . S
C1309 H1283 0.950 . S
C1309 C1308 1.414 . S
C1309 C1310 1.374 . S
C1310 H1284 0.950 . S
C1310 C1306 1.385 . S
C1310 C1309 1.374 . S
C1311 C1308 1.499 . S
C1311 C1312 1.373 . S
C1311 C1313 1.389 . S
C1312 H1285 0.950 . S
C1312 C1298 1.377 . S
C1312 C1311 1.373 . S
C1313 C1297 1.377 . S
C1313 C1311 1.389 . S
C1313 C1314 1.524 . S
C1314 C1313 1.524 . S
C1314 C1315 1.397 . S
C1314 C1319 1.363 . S
C1315 H1286 0.950 . S
C1315 C1314 1.397 . S
C1315 C1316 1.334 . S
C1316 H1287 0.950 . S
C1316 C1315 1.334 . S
C1316 C1317 1.287 . S
C1317 C1316 1.287 . S
C1317 C1318 1.524 . S
C1317 H1320 0.999 . S
C1318 H1288 0.950 . S
C1318 C1317 1.524 . S
C1318 C1319 1.415 . S
C1319 H1289 0.950 . S
C1319 C1314 1.363 . S
C1319 C1318 1.415 . S
H1320 C1317 0.999 . S
H1321 C1302 0.913 . S
H1322 C1340 0.951 . S
H1323 C1342 0.951 . S
H1324 C1344 0.950 . S
H1325 C1345 0.950 . S
H1326 C1347 0.950 . S
H1327 C1350 0.950 . S
H1328 C1351 0.950 . S
H1329 C1353 0.950 . S
H1330 C1354 0.950 . S
H1331 C1355 0.951 . S
H1332 C1357 0.951 . S
H1333 C1359 0.950 . S
H1334 C1360 0.950 . S
H1335 C1362 0.950 . S
H1336 C1365 0.950 . S
H1337 C1366 0.950 . S
H1338 C1368 0.950 . S
H1339 C1369 0.950 . S
C1340 H1322 0.951 . S
C1340 C1341 1.366 . S
C1340 C1342 1.388 . S
C1341 C1340 1.366 . S
C1341 C1345 1.385 . S
C1342 H1323 0.951 . S
C1342 C1340 1.388 . S
C1342 C1343 1.366 . S
C1343 C1342 1.366 . S
C1343 C1344 1.414 . S
C1343 C1346 1.499 . S
C1344 H1324 0.950 . S
C1344 C1343 1.414 . S
C1344 C1345 1.374 . S
C1345 H1325 0.950 . S
C1345 C1341 1.385 . S
C1345 C1344 1.374 . S
C1346 C1343 1.499 . S
C1346 C1347 1.373 . S
C1346 C1348 1.389 . S
C1347 H1326 0.950 . S
C1347 C1346 1.373 . S
C1347 C1363 1.377 . S
C1348 C1346 1.389 . S
C1348 C1349 1.524 . S
C1348 C1362 1.377 . S
C1349 C1348 1.524 . S
C1349 C1350 1.397 . S
C1349 C1354 1.363 . S
C1350 H1327 0.950 . S
C1350 C1349 1.397 . S
C1350 C1351 1.334 . S
C1351 H1328 0.950 . S
C1351 C1350 1.334 . S
C1351 C1352 1.287 . S
C1352 C1351 1.287 . S
C1352 C1353 1.524 . S
C1352 H1371 0.913 . S
C1353 H1329 0.950 . S
C1353 C1352 1.524 . S
C1353 C1354 1.415 . S
C1354 H1330 0.950 . S
C1354 C1349 1.363 . S
C1354 C1353 1.415 . S
C1355 H1331 0.951 . S
C1355 C1356 1.366 . S
C1355 C1357 1.388 . S
C1356 C1355 1.366 . S
C1356 C1360 1.385 . S
C1357 H1332 0.951 . S
C1357 C1355 1.388 . S
C1357 C1358 1.366 . S
C1358 C1357 1.366 . S
C1358 C1359 1.414 . S
C1358 C1361 1.499 . S
C1359 H1333 0.950 . S
C1359 C1358 1.414 . S
C1359 C1360 1.374 . S
C1360 H1334 0.950 . S
C1360 C1356 1.385 . S
C1360 C1359 1.374 . S
C1361 C1358 1.499 . S
C1361 C1362 1.373 . S
C1361 C1363 1.389 . S
C1362 H1335 0.950 . S
C1362 C1348 1.377 . S
C1362 C1361 1.373 . S
C1363 C1347 1.377 . S
C1363 C1361 1.389 . S
C1363 C1364 1.524 . S
C1364 C1363 1.524 . S
C1364 C1365 1.397 . S
C1364 C1369 1.363 . S
C1365 H1336 0.950 . S
C1365 C1364 1.397 . S
C1365 C1366 1.334 . S
C1366 H1337 0.950 . S
C1366 C1365 1.334 . S
C1366 C1367 1.287 . S
C1367 C1366 1.287 . S
C1367 C1368 1.524 . S
C1367 H1370 0.999 . S
C1368 H1338 0.950 . S
C1368 C1367 1.524 . S
C1368 C1369 1.415 . S
C1369 H1339 0.950 . S
C1369 C1364 1.363 . S
C1369 C1368 1.415 . S
H1370 C1367 0.999 . S
H1371 C1352 0.913 . S
H1372 C1390 0.951 . S
H1373 C1392 0.951 1_565 S
H1374 C1394 0.950 . S
H1375 C1395 0.950 . S
H1376 C1397 0.950 1_554 S
H1377 C1400 0.928 1_545 S
H1378 C1401 0.950 . S
H1379 C1403 0.950 . S
H1380 C1404 0.950 . S
H1381 C1405 0.951 . S
H1382 C1407 0.951 . S
H1383 C1409 0.962 . S
H1384 C1410 0.950 . S
H1385 C1412 0.950 . S
H1386 C1415 0.950 . S
H1387 C1416 0.950 . S
H1388 C1418 0.950 . S
H1389 C1419 0.950 . S
C1390 H1372 0.951 . S
C1390 C1391 1.366 . S
C1390 C1392 1.388 . S
C1391 C1390 1.366 . S
C1391 C1395 1.385 . S
C1392 H1373 0.951 1_545 S
C1392 C1390 1.388 . S
C1392 C1393 1.366 . S
C1393 C1392 1.366 . S
C1393 C1394 1.414 . S
C1393 C1396 1.499 1_545 S
C1394 H1374 0.950 . S
C1394 C1393 1.414 . S
C1394 C1395 1.374 . S
C1395 H1375 0.950 . S
C1395 C1391 1.385 . S
C1395 C1394 1.374 . S
C1396 C1393 1.499 1_565 S
C1396 C1397 1.373 1_565 S
C1396 C1398 1.389 . S
C1397 H1376 0.950 1_556 S
C1397 C1396 1.373 1_545 S
C1397 C1413 1.377 1_546 S
C1398 C1396 1.389 . S
C1398 C1399 1.524 . S
C1398 C1412 1.377 . S
C1399 C1398 1.524 . S
C1399 C1400 1.397 . S
C1399 C1404 1.363 . S
C1400 H1377 0.928 1_565 S
C1400 C1399 1.397 . S
C1400 C1401 1.334 . S
C1401 H1378 0.950 . S
C1401 C1400 1.334 . S
C1401 C1402 1.287 . S
C1402 C1401 1.287 . S
C1402 C1403 1.524 . S
C1402 H1421 0.913 . S
C1403 H1379 0.950 . S
C1403 C1402 1.524 . S
C1403 C1404 1.415 . S
C1404 H1380 0.950 . S
C1404 C1399 1.363 . S
C1404 C1403 1.415 . S
C1405 H1381 0.951 . S
C1405 C1406 1.366 . S
C1405 C1407 1.388 . S
C1406 C1405 1.366 . S
C1406 C1410 1.385 . S
C1407 H1382 0.951 . S
C1407 C1405 1.388 . S
C1407 C1408 1.366 . S
C1408 C1407 1.366 . S
C1408 C1409 1.413 1_554 S
C1408 C1411 1.499 1_554 S
C1409 H1383 0.962 . S
C1409 C1408 1.413 1_556 S
C1409 C1410 1.363 1_556 S
C1410 H1384 0.950 . S
C1410 C1406 1.385 . S
C1410 C1409 1.363 1_554 S
C1411 C1408 1.499 1_556 S
C1411 C1412 1.373 . S
C1411 C1413 1.389 1_556 S
C1412 H1385 0.950 . S
C1412 C1398 1.377 . S
C1412 C1411 1.373 . S
C1413 C1397 1.377 1_564 S
C1413 C1411 1.389 1_554 S
C1413 C1414 1.524 . S
C1414 C1413 1.524 . S
C1414 C1415 1.397 . S
C1414 C1419 1.363 1_565 S
C1415 H1386 0.950 . S
C1415 C1414 1.397 . S
C1415 C1416 1.334 . S
C1416 H1387 0.950 . S
C1416 C1415 1.334 . S
C1416 C1417 1.299 . S
C1417 C1416 1.299 . S
C1417 C1418 1.512 1_565 S
C1417 H1420 0.998 1_565 S
C1418 H1388 0.950 . S
C1418 C1417 1.512 1_545 S
C1418 C1419 1.415 . S
C1419 H1389 0.950 . S
C1419 C1414 1.363 1_545 S
C1419 C1418 1.415 . S
H1420 C1417 0.998 1_545 S
H1421 C1402 0.913 . S
H1422 C1440 0.951 . S
H1423 C1442 0.951 . S
H1424 C1444 0.950 . S
H1425 C1445 0.950 . S
H1426 C1447 0.950 . S
H1427 C1450 0.950 . S
H1428 C1451 0.950 . S
H1429 C1453 0.950 . S
H1430 C1454 0.950 . S
H1431 C1455 0.951 . S
H1432 C1457 0.951 . S
H1433 C1459 0.950 . S
H1434 C1460 0.950 . S
H1435 C1462 0.950 . S
H1436 C1465 0.950 . S
H1437 C1466 0.950 . S
H1438 C1468 0.950 . S
H1439 C1469 0.950 . S
C1440 H1422 0.951 . S
C1440 C1441 1.366 . S
C1440 C1442 1.388 . S
C1441 C1440 1.366 . S
C1441 C1445 1.385 . S
C1442 H1423 0.951 . S
C1442 C1440 1.388 . S
C1442 C1443 1.366 . S
C1443 C1442 1.366 . S
C1443 C1444 1.414 . S
C1443 C1446 1.499 . S
C1444 H1424 0.950 . S
C1444 C1443 1.414 . S
C1444 C1445 1.374 . S
C1445 H1425 0.950 . S
C1445 C1441 1.385 . S
C1445 C1444 1.374 . S
C1446 C1443 1.499 . S
C1446 C1447 1.373 . S
C1446 C1448 1.389 . S
C1447 H1426 0.950 . S
C1447 C1446 1.373 . S
C1447 C1463 1.377 . S
C1448 C1446 1.389 . S
C1448 C1449 1.524 . S
C1448 C1462 1.377 . S
C1449 C1448 1.524 . S
C1449 C1450 1.397 . S
C1449 C1454 1.363 . S
C1450 H1427 0.950 . S
C1450 C1449 1.397 . S
C1450 C1451 1.334 . S
C1451 H1428 0.950 . S
C1451 C1450 1.334 . S
C1451 C1452 1.287 . S
C1452 C1451 1.287 . S
C1452 C1453 1.524 . S
C1452 H1471 0.913 . S
C1453 H1429 0.950 . S
C1453 C1452 1.524 . S
C1453 C1454 1.415 . S
C1454 H1430 0.950 . S
C1454 C1449 1.363 . S
C1454 C1453 1.415 . S
C1455 H1431 0.951 . S
C1455 C1456 1.366 . S
C1455 C1457 1.388 . S
C1456 C1455 1.366 . S
C1456 C1460 1.385 . S
C1457 H1432 0.951 . S
C1457 C1455 1.388 . S
C1457 C1458 1.366 . S
C1458 C1457 1.366 . S
C1458 C1459 1.414 . S
C1458 C1461 1.499 . S
C1459 H1433 0.950 . S
C1459 C1458 1.414 . S
C1459 C1460 1.374 . S
C1460 H1434 0.950 . S
C1460 C1456 1.385 . S
C1460 C1459 1.374 . S
C1461 C1458 1.499 . S
C1461 C1462 1.373 . S
C1461 C1463 1.389 . S
C1462 H1435 0.950 . S
C1462 C1448 1.377 . S
C1462 C1461 1.373 . S
C1463 C1447 1.377 . S
C1463 C1461 1.389 . S
C1463 C1464 1.524 . S
C1464 C1463 1.524 . S
C1464 C1465 1.397 . S
C1464 C1469 1.363 . S
C1465 H1436 0.950 . S
C1465 C1464 1.397 . S
C1465 C1466 1.334 . S
C1466 H1437 0.950 . S
C1466 C1465 1.334 . S
C1466 C1467 1.287 . S
C1467 C1466 1.287 . S
C1467 C1468 1.524 . S
C1467 H1470 0.999 . S
C1468 H1438 0.950 . S
C1468 C1467 1.524 . S
C1468 C1469 1.415 . S
C1469 H1439 0.950 . S
C1469 C1464 1.363 . S
C1469 C1468 1.415 . S
H1470 C1467 0.999 . S
H1471 C1452 0.913 . S
H1472 C1490 0.951 . S
H1473 C1492 0.951 . S
H1474 C1494 0.950 . S
H1475 C1495 0.950 . S
H1476 C1497 0.950 . S
H1477 C1500 0.950 . S
H1478 C1501 0.950 . S
H1479 C1503 0.950 . S
H1480 C1504 0.950 . S
H1481 C1505 0.951 . S
H1482 C1507 0.951 . S
H1483 C1509 0.950 . S
H1484 C1510 0.950 . S
H1485 C1512 0.950 . S
H1486 C1515 0.950 . S
H1487 C1516 0.950 . S
H1488 C1518 0.950 . S
H1489 C1519 0.950 . S
C1490 H1472 0.951 . S
C1490 C1491 1.366 1_545 S
C1490 C1492 1.388 . S
C1491 C1490 1.366 1_565 S
C1491 C1495 1.385 . S
C1492 H1473 0.951 . S
C1492 C1490 1.388 . S
C1492 C1493 1.366 . S
C1493 C1492 1.366 . S
C1493 C1494 1.414 1_545 S
C1493 C1496 1.499 . S
C1494 H1474 0.950 . S
C1494 C1493 1.414 1_565 S
C1494 C1495 1.374 . S
C1495 H1475 0.950 . S
C1495 C1491 1.385 . S
C1495 C1494 1.374 . S
C1496 C1493 1.499 . S
C1496 C1497 1.373 . S
C1496 C1498 1.389 . S
C1497 H1476 0.950 . S
C1497 C1496 1.373 . S
C1497 C1513 1.377 . S
C1498 C1496 1.389 . S
C1498 C1499 1.524 . S
C1498 C1512 1.377 . S
C1499 C1498 1.524 . S
C1499 C1500 1.397 . S
C1499 C1504 1.363 . S
C1500 H1477 0.950 . S
C1500 C1499 1.397 . S
C1500 C1501 1.334 . S
C1501 H1478 0.950 . S
C1501 C1500 1.334 . S
C1501 C1502 1.287 . S
C1502 C1501 1.287 . S
C1502 C1503 1.524 . S
C1502 H1521 0.913 . S
C1503 H1479 0.950 . S
C1503 C1502 1.524 . S
C1503 C1504 1.415 . S
C1504 H1480 0.950 . S
C1504 C1499 1.363 . S
C1504 C1503 1.415 . S
C1505 H1481 0.951 . S
C1505 C1506 1.366 . S
C1505 C1507 1.388 . S
C1506 C1505 1.366 . S
C1506 C1510 1.385 . S
C1507 H1482 0.951 . S
C1507 C1505 1.388 . S
C1507 C1508 1.366 . S
C1508 C1507 1.366 . S
C1508 C1509 1.414 . S
C1508 C1511 1.499 . S
C1509 H1483 0.950 . S
C1509 C1508 1.414 . S
C1509 C1510 1.374 . S
C1510 H1484 0.950 . S
C1510 C1506 1.385 . S
C1510 C1509 1.374 . S
C1511 C1508 1.499 . S
C1511 C1512 1.373 . S
C1511 C1513 1.389 . S
C1512 H1485 0.950 . S
C1512 C1498 1.377 . S
C1512 C1511 1.373 . S
C1513 C1497 1.377 . S
C1513 C1511 1.389 . S
C1513 C1514 1.524 . S
C1514 C1513 1.524 . S
C1514 C1515 1.397 . S
C1514 C1519 1.363 . S
C1515 H1486 0.950 . S
C1515 C1514 1.397 . S
C1515 C1516 1.334 . S
C1516 H1487 0.950 . S
C1516 C1515 1.334 . S
C1516 C1517 1.287 . S
C1517 C1516 1.287 . S
C1517 C1518 1.524 . S
C1517 H1520 0.999 . S
C1518 H1488 0.950 . S
C1518 C1517 1.524 . S
C1518 C1519 1.415 . S
C1519 H1489 0.950 . S
C1519 C1514 1.363 . S
C1519 C1518 1.415 . S
H1520 C1517 0.999 . S
H1521 C1502 0.913 . S
H1522 C1540 0.951 . S
H1523 C1542 0.951 . S
H1524 C1544 0.950 . S
H1525 C1545 0.950 . S
H1526 C1547 0.950 . S
H1527 C1550 0.950 . S
H1528 C1551 0.950 . S
H1529 C1553 0.950 . S
H1530 C1554 0.950 . S
H1531 C1555 0.951 . S
H1532 C1557 0.951 . S
H1533 C1559 0.950 . S
H1534 C1560 0.950 . S
H1535 C1562 0.950 . S
H1536 C1565 0.950 . S
H1537 C1566 0.950 . S
H1538 C1568 0.950 . S
H1539 C1569 0.950 . S
C1540 H1522 0.951 . S
C1540 C1541 1.366 . S
C1540 C1542 1.388 . S
C1541 C1540 1.366 . S
C1541 C1545 1.385 . S
C1542 H1523 0.951 . S
C1542 C1540 1.388 . S
C1542 C1543 1.366 . S
C1543 C1542 1.366 . S
C1543 C1544 1.414 . S
C1543 C1546 1.499 . S
C1544 H1524 0.950 . S
C1544 C1543 1.414 . S
C1544 C1545 1.374 . S
C1545 H1525 0.950 . S
C1545 C1541 1.385 . S
C1545 C1544 1.374 . S
C1546 C1543 1.499 . S
C1546 C1547 1.373 . S
C1546 C1548 1.389 . S
C1547 H1526 0.950 . S
C1547 C1546 1.373 . S
C1547 C1563 1.377 . S
C1548 C1546 1.389 . S
C1548 C1549 1.524 . S
C1548 C1562 1.377 . S
C1549 C1548 1.524 . S
C1549 C1550 1.397 . S
C1549 C1554 1.363 . S
C1550 H1527 0.950 . S
C1550 C1549 1.397 . S
C1550 C1551 1.334 . S
C1551 H1528 0.950 . S
C1551 C1550 1.334 . S
C1551 C1552 1.287 . S
C1552 C1551 1.287 . S
C1552 C1553 1.524 . S
C1552 H1571 0.913 . S
C1553 H1529 0.950 . S
C1553 C1552 1.524 . S
C1553 C1554 1.415 . S
C1554 H1530 0.950 . S
C1554 C1549 1.363 . S
C1554 C1553 1.415 . S
C1555 H1531 0.951 . S
C1555 C1556 1.366 . S
C1555 C1557 1.388 . S
C1556 C1555 1.366 . S
C1556 C1560 1.385 . S
C1557 H1532 0.951 . S
C1557 C1555 1.388 . S
C1557 C1558 1.366 . S
C1558 C1557 1.366 . S
C1558 C1559 1.414 . S
C1558 C1561 1.499 . S
C1559 H1533 0.950 . S
C1559 C1558 1.414 . S
C1559 C1560 1.374 . S
C1560 H1534 0.950 . S
C1560 C1556 1.385 . S
C1560 C1559 1.374 . S
C1561 C1558 1.499 . S
C1561 C1562 1.373 . S
C1561 C1563 1.389 . S
C1562 H1535 0.950 . S
C1562 C1548 1.377 . S
C1562 C1561 1.373 . S
C1563 C1547 1.377 . S
C1563 C1561 1.389 . S
C1563 C1564 1.524 . S
C1564 C1563 1.524 . S
C1564 C1565 1.397 . S
C1564 C1569 1.363 . S
C1565 H1536 0.950 . S
C1565 C1564 1.397 . S
C1565 C1566 1.334 . S
C1566 H1537 0.950 . S
C1566 C1565 1.334 . S
C1566 C1567 1.287 . S
C1567 C1566 1.287 . S
C1567 C1568 1.524 . S
C1567 H1570 0.999 . S
C1568 H1538 0.950 . S
C1568 C1567 1.524 . S
C1568 C1569 1.415 . S
C1569 H1539 0.950 . S
C1569 C1564 1.363 . S
C1569 C1568 1.415 . S
H1570 C1567 0.999 . S
H1571 C1552 0.913 . S
H1572 C1590 0.951 . S
H1573 C1592 0.951 . S
H1574 C1594 0.950 . S
H1575 C1595 0.950 . S
H1576 C1597 0.950 . S
H1577 C1600 0.950 . S
H1578 C1601 0.950 . S
H1579 C1603 0.950 . S
H1580 C1604 0.950 . S
H1581 C1605 0.951 . S
H1582 C1607 0.951 . S
H1583 C1609 0.950 . S
H1584 C1610 0.950 . S
H1585 C1612 0.950 . S
H1586 C1615 0.950 . S
H1587 C1616 0.950 . S
H1588 C1618 0.950 . S
H1589 C1619 0.950 . S
C1590 H1572 0.951 . S
C1590 C1591 1.366 1_545 S
C1590 C1592 1.388 . S
C1591 C1590 1.366 1_565 S
C1591 C1595 1.385 . S
C1592 H1573 0.951 . S
C1592 C1590 1.388 . S
C1592 C1593 1.366 . S
C1593 C1592 1.366 . S
C1593 C1594 1.414 . S
C1593 C1596 1.499 . S
C1594 H1574 0.950 . S
C1594 C1593 1.414 . S
C1594 C1595 1.374 1_545 S
C1595 H1575 0.950 . S
C1595 C1591 1.385 . S
C1595 C1594 1.374 1_565 S
C1596 C1593 1.499 . S
C1596 C1597 1.373 . S
C1596 C1598 1.389 . S
C1597 H1576 0.950 . S
C1597 C1596 1.373 . S
C1597 C1613 1.377 . S
C1598 C1596 1.389 . S
C1598 C1599 1.524 . S
C1598 C1612 1.377 . S
C1599 C1598 1.524 . S
C1599 C1600 1.397 . S
C1599 C1604 1.363 . S
C1600 H1577 0.950 . S
C1600 C1599 1.397 . S
C1600 C1601 1.334 . S
C1601 H1578 0.950 . S
C1601 C1600 1.334 . S
C1601 C1602 1.287 . S
C1602 C1601 1.287 . S
C1602 C1603 1.524 . S
C1602 H1621 0.913 . S
C1603 H1579 0.950 . S
C1603 C1602 1.524 . S
C1603 C1604 1.415 . S
C1604 H1580 0.950 . S
C1604 C1599 1.363 . S
C1604 C1603 1.415 . S
C1605 H1581 0.951 . S
C1605 C1606 1.366 . S
C1605 C1607 1.388 . S
C1606 C1605 1.366 . S
C1606 C1610 1.385 . S
C1607 H1582 0.951 . S
C1607 C1605 1.388 . S
C1607 C1608 1.366 . S
C1608 C1607 1.366 . S
C1608 C1609 1.414 . S
C1608 C1611 1.499 . S
C1609 H1583 0.950 . S
C1609 C1608 1.414 . S
C1609 C1610 1.374 . S
C1610 H1584 0.950 . S
C1610 C1606 1.385 . S
C1610 C1609 1.374 . S
C1611 C1608 1.499 . S
C1611 C1612 1.373 . S
C1611 C1613 1.389 . S
C1612 H1585 0.950 . S
C1612 C1598 1.377 . S
C1612 C1611 1.373 . S
C1613 C1597 1.377 . S
C1613 C1611 1.389 . S
C1613 C1614 1.524 . S
C1614 C1613 1.524 . S
C1614 C1615 1.397 . S
C1614 C1619 1.363 . S
C1615 H1586 0.950 . S
C1615 C1614 1.397 . S
C1615 C1616 1.334 . S
C1616 H1587 0.950 . S
C1616 C1615 1.334 . S
C1616 C1617 1.287 . S
C1617 C1616 1.287 . S
C1617 C1618 1.524 . S
C1617 H1620 0.999 . S
C1618 H1588 0.950 . S
C1618 C1617 1.524 . S
C1618 C1619 1.415 . S
C1619 H1589 0.950 . S
C1619 C1614 1.363 . S
C1619 C1618 1.415 . S
H1620 C1617 0.999 . S
H1621 C1602 0.913 . S
H1622 C1640 0.951 . S
H1623 C1642 0.951 . S
H1624 C1644 0.950 . S
H1625 C1645 0.950 . S
H1626 C1647 0.950 . S
H1627 C1650 0.950 . S
H1628 C1651 0.950 . S
H1629 C1653 0.950 . S
H1630 C1654 0.950 . S
H1631 C1655 0.951 . S
H1632 C1657 0.951 . S
H1633 C1659 0.950 . S
H1634 C1660 0.950 . S
H1635 C1662 0.950 . S
H1636 C1665 0.950 . S
H1637 C1666 0.950 . S
H1638 C1668 0.950 . S
H1639 C1669 0.950 . S
C1640 H1622 0.951 . S
C1640 C1641 1.366 . S
C1640 C1642 1.388 . S
C1641 C1640 1.366 . S
C1641 C1645 1.385 . S
C1642 H1623 0.951 . S
C1642 C1640 1.388 . S
C1642 C1643 1.366 . S
C1643 C1642 1.366 . S
C1643 C1644 1.414 . S
C1643 C1646 1.499 . S
C1644 H1624 0.950 . S
C1644 C1643 1.414 . S
C1644 C1645 1.374 . S
C1645 H1625 0.950 . S
C1645 C1641 1.385 . S
C1645 C1644 1.374 . S
C1646 C1643 1.499 . S
C1646 C1647 1.373 . S
C1646 C1648 1.389 . S
C1647 H1626 0.950 . S
C1647 C1646 1.373 . S
C1647 C1663 1.377 . S
C1648 C1646 1.389 . S
C1648 C1649 1.524 . S
C1648 C1662 1.377 . S
C1649 C1648 1.524 . S
C1649 C1650 1.397 . S
C1649 C1654 1.363 . S
C1650 H1627 0.950 . S
C1650 C1649 1.397 . S
C1650 C1651 1.334 . S
C1651 H1628 0.950 . S
C1651 C1650 1.334 . S
C1651 C1652 1.287 . S
C1652 C1651 1.287 . S
C1652 C1653 1.524 . S
C1652 H1671 0.913 . S
C1653 H1629 0.950 . S
C1653 C1652 1.524 . S
C1653 C1654 1.415 . S
C1654 H1630 0.950 . S
C1654 C1649 1.363 . S
C1654 C1653 1.415 . S
C1655 H1631 0.951 . S
C1655 C1656 1.366 . S
C1655 C1657 1.388 . S
C1656 C1655 1.366 . S
C1656 C1660 1.385 . S
C1657 H1632 0.951 . S
C1657 C1655 1.388 . S
C1657 C1658 1.366 . S
C1658 C1657 1.366 . S
C1658 C1659 1.414 . S
C1658 C1661 1.499 . S
C1659 H1633 0.950 . S
C1659 C1658 1.414 . S
C1659 C1660 1.374 . S
C1660 H1634 0.950 . S
C1660 C1656 1.385 . S
C1660 C1659 1.374 . S
C1661 C1658 1.499 . S
C1661 C1662 1.373 . S
C1661 C1663 1.389 . S
C1662 H1635 0.950 . S
C1662 C1648 1.377 . S
C1662 C1661 1.373 . S
C1663 C1647 1.377 . S
C1663 C1661 1.389 . S
C1663 C1664 1.524 . S
C1664 C1663 1.524 . S
C1664 C1665 1.397 . S
C1664 C1669 1.363 . S
C1665 H1636 0.950 . S
C1665 C1664 1.397 . S
C1665 C1666 1.334 . S
C1666 H1637 0.950 . S
C1666 C1665 1.334 . S
C1666 C1667 1.287 . S
C1667 C1666 1.287 . S
C1667 C1668 1.524 . S
C1667 H1670 0.999 . S
C1668 H1638 0.950 . S
C1668 C1667 1.524 . S
C1668 C1669 1.415 . S
C1669 H1639 0.950 . S
C1669 C1664 1.363 . S
C1669 C1668 1.415 . S
H1670 C1667 0.999 . S
H1671 C1652 0.913 . S
H1672 C1690 0.951 . S
H1673 C1692 0.951 . S
H1674 C1694 0.950 . S
H1675 C1695 0.950 . S
H1676 C1697 0.950 . S
H1677 C1700 0.950 . S
H1678 C1701 0.950 . S
H1679 C1703 0.950 . S
H1680 C1704 0.950 . S
H1681 C1705 0.951 . S
H1682 C1707 0.951 . S
H1683 C1709 0.950 . S
H1684 C1710 0.950 . S
H1685 C1712 0.950 . S
H1686 C1715 0.950 . S
H1687 C1716 0.950 . S
H1688 C1718 0.950 . S
H1689 C1719 0.950 . S
C1690 H1672 0.951 . S
C1690 C1691 1.366 . S
C1690 C1692 1.388 . S
C1691 C1690 1.366 . S
C1691 C1695 1.385 . S
C1692 H1673 0.951 . S
C1692 C1690 1.388 . S
C1692 C1693 1.366 . S
C1693 C1692 1.366 . S
C1693 C1694 1.414 . S
C1693 C1696 1.499 . S
C1694 H1674 0.950 . S
C1694 C1693 1.414 . S
C1694 C1695 1.374 . S
C1695 H1675 0.950 . S
C1695 C1691 1.385 . S
C1695 C1694 1.374 . S
C1696 C1693 1.499 . S
C1696 C1697 1.373 . S
C1696 C1698 1.389 . S
C1697 H1676 0.950 . S
C1697 C1696 1.373 . S
C1697 C1713 1.377 . S
C1698 C1696 1.389 . S
C1698 C1699 1.524 . S
C1698 C1712 1.377 . S
C1699 C1698 1.524 . S
C1699 C1700 1.397 . S
C1699 C1704 1.363 . S
C1700 H1677 0.950 . S
C1700 C1699 1.397 . S
C1700 C1701 1.334 . S
C1701 H1678 0.950 . S
C1701 C1700 1.334 . S
C1701 C1702 1.287 . S
C1702 C1701 1.287 . S
C1702 C1703 1.524 . S
C1702 H1721 0.913 . S
C1703 H1679 0.950 . S
C1703 C1702 1.524 . S
C1703 C1704 1.415 . S
C1704 H1680 0.950 . S
C1704 C1699 1.363 . S
C1704 C1703 1.415 . S
C1705 H1681 0.951 . S
C1705 C1706 1.366 . S
C1705 C1707 1.388 . S
C1706 C1705 1.366 . S
C1706 C1710 1.385 . S
C1707 H1682 0.951 . S
C1707 C1705 1.388 . S
C1707 C1708 1.366 . S
C1708 C1707 1.366 . S
C1708 C1709 1.414 . S
C1708 C1711 1.499 . S
C1709 H1683 0.950 . S
C1709 C1708 1.414 . S
C1709 C1710 1.374 . S
C1710 H1684 0.950 . S
C1710 C1706 1.385 . S
C1710 C1709 1.374 . S
C1711 C1708 1.499 . S
C1711 C1712 1.373 . S
C1711 C1713 1.389 . S
C1712 H1685 0.950 . S
C1712 C1698 1.377 . S
C1712 C1711 1.373 . S
C1713 C1697 1.377 . S
C1713 C1711 1.389 . S
C1713 C1714 1.524 . S
C1714 C1713 1.524 . S
C1714 C1715 1.397 . S
C1714 C1719 1.363 . S
C1715 H1686 0.950 . S
C1715 C1714 1.397 . S
C1715 C1716 1.334 . S
C1716 H1687 0.950 . S
C1716 C1715 1.334 . S
C1716 C1717 1.287 . S
C1717 C1716 1.287 . S
C1717 C1718 1.524 . S
C1717 H1720 0.999 . S
C1718 H1688 0.950 . S
C1718 C1717 1.524 . S
C1718 C1719 1.415 . S
C1719 H1689 0.950 . S
C1719 C1714 1.363 . S
C1719 C1718 1.415 . S
H1720 C1717 0.999 . S
H1721 C1702 0.913 . S
H1722 C1740 0.951 . S
H1723 C1742 0.951 . S
H1724 C1744 0.950 . S
H1725 C1745 0.950 . S
H1726 C1747 0.950 . S
H1727 C1750 0.950 . S
H1728 C1751 0.950 . S
H1729 C1753 0.950 . S
H1730 C1754 0.950 . S
H1731 C1755 0.951 . S
H1732 C1757 0.951 . S
H1733 C1759 0.950 . S
H1734 C1760 0.950 . S
H1735 C1762 0.950 . S
H1736 C1765 0.950 . S
H1737 C1766 0.950 . S
H1738 C1768 0.950 . S
H1739 C1769 0.950 . S
C1740 H1722 0.951 . S
C1740 C1741 1.366 . S
C1740 C1742 1.388 . S
C1741 C1740 1.366 . S
C1741 C1745 1.385 . S
C1742 H1723 0.951 . S
C1742 C1740 1.388 . S
C1742 C1743 1.366 . S
C1743 C1742 1.366 . S
C1743 C1744 1.414 . S
C1743 C1746 1.499 . S
C1744 H1724 0.950 . S
C1744 C1743 1.414 . S
C1744 C1745 1.374 . S
C1745 H1725 0.950 . S
C1745 C1741 1.385 . S
C1745 C1744 1.374 . S
C1746 C1743 1.499 . S
C1746 C1747 1.373 . S
C1746 C1748 1.389 . S
C1747 H1726 0.950 . S
C1747 C1746 1.373 . S
C1747 C1763 1.377 . S
C1748 C1746 1.389 . S
C1748 C1749 1.524 . S
C1748 C1762 1.377 . S
C1749 C1748 1.524 . S
C1749 C1750 1.397 . S
C1749 C1754 1.363 . S
C1750 H1727 0.950 . S
C1750 C1749 1.397 . S
C1750 C1751 1.334 . S
C1751 H1728 0.950 . S
C1751 C1750 1.334 . S
C1751 C1752 1.287 . S
C1752 C1751 1.287 . S
C1752 C1753 1.524 . S
C1752 H1771 0.913 . S
C1753 H1729 0.950 . S
C1753 C1752 1.524 . S
C1753 C1754 1.415 . S
C1754 H1730 0.950 . S
C1754 C1749 1.363 . S
C1754 C1753 1.415 . S
C1755 H1731 0.951 . S
C1755 C1756 1.366 . S
C1755 C1757 1.388 . S
C1756 C1755 1.366 . S
C1756 C1760 1.385 . S
C1757 H1732 0.951 . S
C1757 C1755 1.388 . S
C1757 C1758 1.366 . S
C1758 C1757 1.366 . S
C1758 C1759 1.414 . S
C1758 C1761 1.499 . S
C1759 H1733 0.950 . S
C1759 C1758 1.414 . S
C1759 C1760 1.374 . S
C1760 H1734 0.950 . S
C1760 C1756 1.385 . S
C1760 C1759 1.374 . S
C1761 C1758 1.499 . S
C1761 C1762 1.373 . S
C1761 C1763 1.389 . S
C1762 H1735 0.950 . S
C1762 C1748 1.377 . S
C1762 C1761 1.373 . S
C1763 C1747 1.377 . S
C1763 C1761 1.389 . S
C1763 C1764 1.524 . S
C1764 C1763 1.524 . S
C1764 C1765 1.397 . S
C1764 C1769 1.363 . S
C1765 H1736 0.950 . S
C1765 C1764 1.397 . S
C1765 C1766 1.334 . S
C1766 H1737 0.950 . S
C1766 C1765 1.334 . S
C1766 C1767 1.287 . S
C1767 C1766 1.287 . S
C1767 C1768 1.524 . S
C1767 H1770 0.999 . S
C1768 H1738 0.950 . S
C1768 C1767 1.524 . S
C1768 C1769 1.415 . S
C1769 H1739 0.950 . S
C1769 C1764 1.363 . S
C1769 C1768 1.415 . S
H1770 C1767 0.999 . S
H1771 C1752 0.913 . S
H1772 C1790 0.951 . S
H1773 C1792 0.951 . S
H1774 C1794 0.950 . S
H1775 C1795 0.950 . S
H1776 C1797 0.950 . S
H1777 C1800 0.950 . S
H1778 C1801 0.950 . S
H1779 C1803 0.950 . S
H1780 C1804 0.950 . S
H1781 C1805 0.951 . S
H1782 C1807 0.951 . S
H1783 C1809 0.950 . S
H1784 C1810 0.950 . S
H1785 C1812 0.950 . S
H1786 C1815 0.950 . S
H1787 C1816 0.950 . S
H1788 C1818 0.950 . S
H1789 C1819 0.950 . S
C1790 H1772 0.951 . S
C1790 C1791 1.366 . S
C1790 C1792 1.388 . S
C1791 C1790 1.366 . S
C1791 C1795 1.385 . S
C1792 H1773 0.951 . S
C1792 C1790 1.388 . S
C1792 C1793 1.366 . S
C1793 C1792 1.366 . S
C1793 C1794 1.414 . S
C1793 C1796 1.499 . S
C1794 H1774 0.950 . S
C1794 C1793 1.414 . S
C1794 C1795 1.374 . S
C1795 H1775 0.950 . S
C1795 C1791 1.385 . S
C1795 C1794 1.374 . S
C1796 C1793 1.499 . S
C1796 C1797 1.373 . S
C1796 C1798 1.389 . S
C1797 H1776 0.950 . S
C1797 C1796 1.373 . S
C1797 C1813 1.377 . S
C1798 C1796 1.389 . S
C1798 C1799 1.524 . S
C1798 C1812 1.377 . S
C1799 C1798 1.524 . S
C1799 C1800 1.397 . S
C1799 C1804 1.363 . S
C1800 H1777 0.950 . S
C1800 C1799 1.397 . S
C1800 C1801 1.334 . S
C1801 H1778 0.950 . S
C1801 C1800 1.334 . S
C1801 C1802 1.287 . S
C1802 C1801 1.287 . S
C1802 C1803 1.524 . S
C1802 H1821 0.913 . S
C1803 H1779 0.950 . S
C1803 C1802 1.524 . S
C1803 C1804 1.415 . S
C1804 H1780 0.950 . S
C1804 C1799 1.363 . S
C1804 C1803 1.415 . S
C1805 H1781 0.951 . S
C1805 C1806 1.366 . S
C1805 C1807 1.388 . S
C1806 C1805 1.366 . S
C1806 C1810 1.385 . S
C1807 H1782 0.951 . S
C1807 C1805 1.388 . S
C1807 C1808 1.366 . S
C1808 C1807 1.366 . S
C1808 C1809 1.414 . S
C1808 C1811 1.499 . S
C1809 H1783 0.950 . S
C1809 C1808 1.414 . S
C1809 C1810 1.374 . S
C1810 H1784 0.950 . S
C1810 C1806 1.385 . S
C1810 C1809 1.374 . S
C1811 C1808 1.499 . S
C1811 C1812 1.373 . S
C1811 C1813 1.389 . S
C1812 H1785 0.950 . S
C1812 C1798 1.377 . S
C1812 C1811 1.373 . S
C1813 C1797 1.377 . S
C1813 C1811 1.389 . S
C1813 C1814 1.524 . S
C1814 C1813 1.524 . S
C1814 C1815 1.397 . S
C1814 C1819 1.363 . S
C1815 H1786 0.950 . S
C1815 C1814 1.397 . S
C1815 C1816 1.334 . S
C1816 H1787 0.950 . S
C1816 C1815 1.334 . S
C1816 C1817 1.287 . S
C1817 C1816 1.287 . S
C1817 C1818 1.524 . S
C1817 H1820 0.999 . S
C1818 H1788 0.950 . S
C1818 C1817 1.524 . S
C1818 C1819 1.415 . S
C1819 H1789 0.950 . S
C1819 C1814 1.363 . S
C1819 C1818 1.415 . S
H1820 C1817 0.999 . S
H1821 C1802 0.913 . S
H1822 C1840 0.951 . S
H1823 C1842 0.951 . S
H1824 C1844 0.950 . S
H1825 C1845 0.950 . S
H1826 C1847 0.950 . S
H1827 C1850 0.950 . S
H1828 C1851 0.950 . S
H1829 C1853 0.950 . S
H1830 C1854 0.950 . S
H1831 C1855 0.951 . S
H1832 C1857 0.951 . S
H1833 C1859 0.950 . S
H1834 C1860 0.950 . S
H1835 C1862 0.950 . S
H1836 C1865 0.950 . S
H1837 C1866 0.950 . S
H1838 C1868 0.950 . S
H1839 C1869 0.950 . S
C1840 H1822 0.951 . S
C1840 C1841 1.366 . S
C1840 C1842 1.388 . S
C1841 C1840 1.366 . S
C1841 C1845 1.385 . S
C1842 H1823 0.951 . S
C1842 C1840 1.388 . S
C1842 C1843 1.366 . S
C1843 C1842 1.366 . S
C1843 C1844 1.414 . S
C1843 C1846 1.499 . S
C1844 H1824 0.950 . S
C1844 C1843 1.414 . S
C1844 C1845 1.374 . S
C1845 H1825 0.950 . S
C1845 C1841 1.385 . S
C1845 C1844 1.374 . S
C1846 C1843 1.499 . S
C1846 C1847 1.373 . S
C1846 C1848 1.389 . S
C1847 H1826 0.950 . S
C1847 C1846 1.373 . S
C1847 C1863 1.377 . S
C1848 C1846 1.389 . S
C1848 C1849 1.524 . S
C1848 C1862 1.377 . S
C1849 C1848 1.524 . S
C1849 C1850 1.397 . S
C1849 C1854 1.363 . S
C1850 H1827 0.950 . S
C1850 C1849 1.397 . S
C1850 C1851 1.334 . S
C1851 H1828 0.950 . S
C1851 C1850 1.334 . S
C1851 C1852 1.287 . S
C1852 C1851 1.287 . S
C1852 C1853 1.524 . S
C1852 H1871 0.913 . S
C1853 H1829 0.950 . S
C1853 C1852 1.524 . S
C1853 C1854 1.415 . S
C1854 H1830 0.950 . S
C1854 C1849 1.363 . S
C1854 C1853 1.415 . S
C1855 H1831 0.951 . S
C1855 C1856 1.366 . S
C1855 C1857 1.388 . S
C1856 C1855 1.366 . S
C1856 C1860 1.385 . S
C1857 H1832 0.951 . S
C1857 C1855 1.388 . S
C1857 C1858 1.366 . S
C1858 C1857 1.366 . S
C1858 C1859 1.414 . S
C1858 C1861 1.499 . S
C1859 H1833 0.950 . S
C1859 C1858 1.414 . S
C1859 C1860 1.374 . S
C1860 H1834 0.950 . S
C1860 C1856 1.385 . S
C1860 C1859 1.374 . S
C1861 C1858 1.499 . S
C1861 C1862 1.373 . S
C1861 C1863 1.389 . S
C1862 H1835 0.950 . S
C1862 C1848 1.377 . S
C1862 C1861 1.373 . S
C1863 C1847 1.377 . S
C1863 C1861 1.389 . S
C1863 C1864 1.524 . S
C1864 C1863 1.524 . S
C1864 C1865 1.397 . S
C1864 C1869 1.363 . S
C1865 H1836 0.950 . S
C1865 C1864 1.397 . S
C1865 C1866 1.334 . S
C1866 H1837 0.950 . S
C1866 C1865 1.334 . S
C1866 C1867 1.287 . S
C1867 C1866 1.287 . S
C1867 C1868 1.524 . S
C1867 H1870 0.999 . S
C1868 H1838 0.950 . S
C1868 C1867 1.524 . S
C1868 C1869 1.415 . S
C1869 H1839 0.950 . S
C1869 C1864 1.363 . S
C1869 C1868 1.415 . S
H1870 C1867 0.999 . S
H1871 C1852 0.913 . S
H1872 C1890 0.951 . S
H1873 C1892 0.951 . S
H1874 C1894 0.950 . S
H1875 C1895 0.950 . S
H1876 C1897 0.950 . S
H1877 C1900 0.950 . S
H1878 C1901 0.950 . S
H1879 C1903 0.950 . S
H1880 C1904 0.950 . S
H1881 C1905 0.951 . S
H1882 C1907 0.951 . S
H1883 C1909 0.950 . S
H1884 C1910 0.950 . S
H1885 C1912 0.950 . S
H1886 C1915 0.950 . S
H1887 C1916 0.950 . S
H1888 C1918 0.950 . S
H1889 C1919 0.950 . S
C1890 H1872 0.951 . S
C1890 C1891 1.366 . S
C1890 C1892 1.388 . S
C1891 C1890 1.366 . S
C1891 C1895 1.385 . S
C1892 H1873 0.951 . S
C1892 C1890 1.388 . S
C1892 C1893 1.366 . S
C1893 C1892 1.366 . S
C1893 C1894 1.414 . S
C1893 C1896 1.499 . S
C1894 H1874 0.950 . S
C1894 C1893 1.414 . S
C1894 C1895 1.374 . S
C1895 H1875 0.950 . S
C1895 C1891 1.385 . S
C1895 C1894 1.374 . S
C1896 C1893 1.499 . S
C1896 C1897 1.373 . S
C1896 C1898 1.389 . S
C1897 H1876 0.950 . S
C1897 C1896 1.373 . S
C1897 C1913 1.377 . S
C1898 C1896 1.389 . S
C1898 C1899 1.524 . S
C1898 C1912 1.377 . S
C1899 C1898 1.524 . S
C1899 C1900 1.397 . S
C1899 C1904 1.363 . S
C1900 H1877 0.950 . S
C1900 C1899 1.397 . S
C1900 C1901 1.334 . S
C1901 H1878 0.950 . S
C1901 C1900 1.334 . S
C1901 C1902 1.287 . S
C1902 C1901 1.287 . S
C1902 C1903 1.524 . S
C1902 H1921 0.913 . S
C1903 H1879 0.950 . S
C1903 C1902 1.524 . S
C1903 C1904 1.415 . S
C1904 H1880 0.950 . S
C1904 C1899 1.363 . S
C1904 C1903 1.415 . S
C1905 H1881 0.951 . S
C1905 C1906 1.366 . S
C1905 C1907 1.388 . S
C1906 C1905 1.366 . S
C1906 C1910 1.385 . S
C1907 H1882 0.951 . S
C1907 C1905 1.388 . S
C1907 C1908 1.366 . S
C1908 C1907 1.366 . S
C1908 C1909 1.414 . S
C1908 C1911 1.499 . S
C1909 H1883 0.950 . S
C1909 C1908 1.414 . S
C1909 C1910 1.374 . S
C1910 H1884 0.950 . S
C1910 C1906 1.385 . S
C1910 C1909 1.374 . S
C1911 C1908 1.499 . S
C1911 C1912 1.373 . S
C1911 C1913 1.389 . S
C1912 H1885 0.950 . S
C1912 C1898 1.377 . S
C1912 C1911 1.373 . S
C1913 C1897 1.377 . S
C1913 C1911 1.389 . S
C1913 C1914 1.524 . S
C1914 C1913 1.524 . S
C1914 C1915 1.397 . S
C1914 C1919 1.363 . S
C1915 H1886 0.950 . S
C1915 C1914 1.397 . S
C1915 C1916 1.334 . S
C1916 H1887 0.950 . S
C1916 C1915 1.334 . S
C1916 C1917 1.287 . S
C1917 C1916 1.287 . S
C1917 C1918 1.524 . S
C1917 H1920 0.999 . S
C1918 H1888 0.950 . S
C1918 C1917 1.524 . S
C1918 C1919 1.415 . S
C1919 H1889 0.950 . S
C1919 C1914 1.363 . S
C1919 C1918 1.415 . S
H1920 C1917 0.999 . S
H1921 C1902 0.913 . S
H1922 C1940 0.951 . S
H1923 C1942 0.951 . S
H1924 C1944 0.950 . S
H1925 C1945 0.950 . S
H1926 C1947 0.950 . S
H1927 C1950 0.950 1_455 S
H1928 C1951 0.950 . S
H1929 C1953 0.950 . S
H1930 C1954 0.950 . S
H1931 C1955 0.951 . S
H1932 C1957 0.951 . S
H1933 C1959 0.950 . S
H1934 C1960 0.950 . S
H1935 C1962 0.950 1_655 S
H1936 C1965 0.952 1_565 S
H1937 C1966 0.950 1_565 S
H1938 C1968 0.950 . S
H1939 C1969 0.950 . S
C1940 H1922 0.951 . S
C1940 C1941 1.366 . S
C1940 C1942 1.388 . S
C1941 C1940 1.366 . S
C1941 C1945 1.385 . S
C1942 H1923 0.951 . S
C1942 C1940 1.388 . S
C1942 C1943 1.366 . S
C1943 C1942 1.366 . S
C1943 C1944 1.414 . S
C1943 C1946 1.499 . S
C1944 H1924 0.950 . S
C1944 C1943 1.414 . S
C1944 C1945 1.374 . S
C1945 H1925 0.950 . S
C1945 C1941 1.385 . S
C1945 C1944 1.374 . S
C1946 C1943 1.499 . S
C1946 C1947 1.373 . S
C1946 C1948 1.389 . S
C1947 H1926 0.950 . S
C1947 C1946 1.373 . S
C1947 C1963 1.377 . S
C1948 C1946 1.389 . S
C1948 C1949 1.524 1_455 S
C1948 C1962 1.377 . S
C1949 C1948 1.524 1_655 S
C1949 C1950 1.397 . S
C1949 C1954 1.363 . S
C1950 H1927 0.950 1_655 S
C1950 C1949 1.397 . S
C1950 C1951 1.334 . S
C1951 H1928 0.950 . S
C1951 C1950 1.334 . S
C1951 C1952 1.287 . S
C1952 C1951 1.287 . S
C1952 C1953 1.524 . S
C1952 H1971 0.913 . S
C1953 H1929 0.950 . S
C1953 C1952 1.524 . S
C1953 C1954 1.415 . S
C1954 H1930 0.950 . S
C1954 C1949 1.363 . S
C1954 C1953 1.415 . S
C1955 H1931 0.951 . S
C1955 C1956 1.366 1_455 S
C1955 C1957 1.388 . S
C1956 C1955 1.366 1_655 S
C1956 C1960 1.385 . S
C1957 H1932 0.951 . S
C1957 C1955 1.388 . S
C1957 C1958 1.366 . S
C1958 C1957 1.366 . S
C1958 C1959 1.414 1_455 S
C1958 C1961 1.499 . S
C1959 H1933 0.950 . S
C1959 C1958 1.414 1_655 S
C1959 C1960 1.374 . S
C1960 H1934 0.950 . S
C1960 C1956 1.385 . S
C1960 C1959 1.374 . S
C1961 C1958 1.499 . S
C1961 C1962 1.373 . S
C1961 C1963 1.389 . S
C1962 H1935 0.950 1_455 S
C1962 C1948 1.377 . S
C1962 C1961 1.373 . S
C1963 C1947 1.377 . S
C1963 C1961 1.389 . S
C1963 C1964 1.524 . S
C1964 C1963 1.524 . S
C1964 C1965 1.397 . S
C1964 C1969 1.363 . S
C1965 H1936 0.952 1_545 S
C1965 C1964 1.397 . S
C1965 C1966 1.334 . S
C1966 H1937 0.950 1_545 S
C1966 C1965 1.334 . S
C1966 C1967 1.287 . S
C1967 C1966 1.287 . S
C1967 C1968 1.524 . S
C1967 H1970 0.999 . S
C1968 H1938 0.950 . S
C1968 C1967 1.524 . S
C1968 C1969 1.415 . S
C1969 H1939 0.950 . S
C1969 C1964 1.363 . S
C1969 C1968 1.415 . S
H1970 C1967 0.999 . S
H1971 C1952 0.913 . S
H1972 C1990 0.951 . S
H1973 C1992 0.951 . S
H1974 C1994 0.950 . S
H1975 C1995 0.950 . S
H1976 C1997 0.950 . S
H1977 C2000 0.950 . S
H1978 C2001 0.950 . S
H1979 C2003 0.950 . S
H1980 C2004 0.950 . S
H1981 C2005 0.951 . S
H1982 C2007 0.951 . S
H1983 C2009 0.950 . S
H1984 C2010 0.950 . S
H1985 C2012 0.950 . S
H1986 C2015 0.950 . S
H1987 C2016 0.950 . S
H1988 C2018 0.950 . S
H1989 C2019 0.950 . S
C1990 H1972 0.951 . S
C1990 C1991 1.366 . S
C1990 C1992 1.388 . S
C1991 C1990 1.366 . S
C1991 C1995 1.385 . S
C1992 H1973 0.951 . S
C1992 C1990 1.388 . S
C1992 C1993 1.366 . S
C1993 C1992 1.366 . S
C1993 C1994 1.414 . S
C1993 C1996 1.499 . S
C1994 H1974 0.950 . S
C1994 C1993 1.414 . S
C1994 C1995 1.374 . S
C1995 H1975 0.950 . S
C1995 C1991 1.385 . S
C1995 C1994 1.374 . S
C1996 C1993 1.499 . S
C1996 C1997 1.373 . S
C1996 C1998 1.389 . S
C1997 H1976 0.950 . S
C1997 C1996 1.373 . S
C1997 C2013 1.377 . S
C1998 C1996 1.389 . S
C1998 C1999 1.524 . S
C1998 C2012 1.377 . S
C1999 C1998 1.524 . S
C1999 C2000 1.397 . S
C1999 C2004 1.363 . S
C2000 H1977 0.950 . S
C2000 C1999 1.397 . S
C2000 C2001 1.334 . S
C2001 H1978 0.950 . S
C2001 C2000 1.334 . S
C2001 C2002 1.287 . S
C2002 C2001 1.287 . S
C2002 C2003 1.524 . S
C2002 H2021 0.913 . S
C2003 H1979 0.950 . S
C2003 C2002 1.524 . S
C2003 C2004 1.415 . S
C2004 H1980 0.950 . S
C2004 C1999 1.363 . S
C2004 C2003 1.415 . S
C2005 H1981 0.951 . S
C2005 C2006 1.366 . S
C2005 C2007 1.388 . S
C2006 C2005 1.366 . S
C2006 C2010 1.385 . S
C2007 H1982 0.951 . S
C2007 C2005 1.388 . S
C2007 C2008 1.366 . S
C2008 C2007 1.366 . S
C2008 C2009 1.414 . S
C2008 C2011 1.499 . S
C2009 H1983 0.950 . S
C2009 C2008 1.414 . S
C2009 C2010 1.374 . S
C2010 H1984 0.950 . S
C2010 C2006 1.385 . S
C2010 C2009 1.374 . S
C2011 C2008 1.499 . S
C2011 C2012 1.373 . S
C2011 C2013 1.389 . S
C2012 H1985 0.950 . S
C2012 C1998 1.377 . S
C2012 C2011 1.373 . S
C2013 C1997 1.377 . S
C2013 C2011 1.389 . S
C2013 C2014 1.524 . S
C2014 C2013 1.524 . S
C2014 C2015 1.397 . S
C2014 C2019 1.363 . S
C2015 H1986 0.950 . S
C2015 C2014 1.397 . S
C2015 C2016 1.334 . S
C2016 H1987 0.950 . S
C2016 C2015 1.334 . S
C2016 C2017 1.287 . S
C2017 C2016 1.287 . S
C2017 C2018 1.524 . S
C2017 H2020 0.999 . S
C2018 H1988 0.950 . S
C2018 C2017 1.524 . S
C2018 C2019 1.415 . S
C2019 H1989 0.950 . S
C2019 C2014 1.363 . S
C2019 C2018 1.415 . S
H2020 C2017 0.999 . S
H2021 C2002 0.913 . S
H2022 C2040 0.956 . S
H2023 C2042 0.951 . S
H2024 C2044 0.950 . S
H2025 C2045 0.950 . S
H2026 C2047 0.950 . S
H2027 C2050 0.950 . S
H2028 C2051 0.948 1_655 S
H2029 C2053 0.950 . S
H2030 C2054 0.950 . S
H2031 C2055 0.951 . S
H2032 C2057 0.951 . S
H2033 C2059 0.950 . S
H2034 C2060 0.950 . S
H2035 C2062 0.950 . S
H2036 C2065 0.950 . S
H2037 C2066 0.950 . S
H2038 C2068 0.950 . S
H2039 C2069 0.950 . S
C2040 H2022 0.956 . S
C2040 C2041 1.364 1_655 S
C2040 C2042 1.385 1_655 S
C2041 C2040 1.364 1_455 S
C2041 C2045 1.385 . S
C2042 H2023 0.951 . S
C2042 C2040 1.385 1_455 S
C2042 C2043 1.366 . S
C2043 C2042 1.366 . S
C2043 C2044 1.414 . S
C2043 C2046 1.499 . S
C2044 H2024 0.950 . S
C2044 C2043 1.414 . S
C2044 C2045 1.374 . S
C2045 H2025 0.950 . S
C2045 C2041 1.385 . S
C2045 C2044 1.374 . S
C2046 C2043 1.499 . S
C2046 C2047 1.373 . S
C2046 C2048 1.389 . S
C2047 H2026 0.950 . S
C2047 C2046 1.373 . S
C2047 C2063 1.377 . S
C2048 C2046 1.389 . S
C2048 C2049 1.524 . S
C2048 C2062 1.377 . S
C2049 C2048 1.524 . S
C2049 C2050 1.397 . S
C2049 C2054 1.363 . S
C2050 H2027 0.950 . S
C2050 C2049 1.397 . S
C2050 C2051 1.334 . S
C2051 H2028 0.948 1_455 S
C2051 C2050 1.334 . S
C2051 C2052 1.287 1_455 S
C2052 C2051 1.287 1_655 S
C2052 C2053 1.524 . S
C2052 H2071 0.913 . S
C2053 H2029 0.950 . S
C2053 C2052 1.524 . S
C2053 C2054 1.415 1_655 S
C2054 H2030 0.950 . S
C2054 C2049 1.363 . S
C2054 C2053 1.415 1_455 S
C2055 H2031 0.951 . S
C2055 C2056 1.366 . S
C2055 C2057 1.388 . S
C2056 C2055 1.366 . S
C2056 C2060 1.385 . S
C2057 H2032 0.951 . S
C2057 C2055 1.388 . S
C2057 C2058 1.366 . S
C2058 C2057 1.366 . S
C2058 C2059 1.414 . S
C2058 C2061 1.499 . S
C2059 H2033 0.950 . S
C2059 C2058 1.414 . S
C2059 C2060 1.374 . S
C2060 H2034 0.950 . S
C2060 C2056 1.385 . S
C2060 C2059 1.374 . S
C2061 C2058 1.499 . S
C2061 C2062 1.373 . S
C2061 C2063 1.389 . S
C2062 H2035 0.950 . S
C2062 C2048 1.377 . S
C2062 C2061 1.373 . S
C2063 C2047 1.377 . S
C2063 C2061 1.389 . S
C2063 C2064 1.524 . S
C2064 C2063 1.524 . S
C2064 C2065 1.397 . S
C2064 C2069 1.363 . S
C2065 H2036 0.950 . S
C2065 C2064 1.397 . S
C2065 C2066 1.334 . S
C2066 H2037 0.950 . S
C2066 C2065 1.334 . S
C2066 C2067 1.287 . S
C2067 C2066 1.287 . S
C2067 C2068 1.524 . S
C2067 H2070 0.999 . S
C2068 H2038 0.950 . S
C2068 C2067 1.524 . S
C2068 C2069 1.415 . S
C2069 H2039 0.950 . S
C2069 C2064 1.363 . S
C2069 C2068 1.415 . S
H2070 C2067 0.999 . S
H2071 C2052 0.913 . S
H2072 C2090 0.951 . S
H2073 C2092 0.951 . S
H2074 C2094 0.950 . S
H2075 C2095 0.950 . S
H2076 C2097 0.950 . S
H2077 C2100 0.950 . S
H2078 C2101 0.950 . S
H2079 C2103 0.950 . S
H2080 C2104 0.950 . S
H2081 C2105 0.951 . S
H2082 C2107 0.951 . S
H2083 C2109 0.950 . S
H2084 C2110 0.950 . S
H2085 C2112 0.950 . S
H2086 C2115 0.950 . S
H2087 C2116 0.950 . S
H2088 C2118 0.950 . S
H2089 C2119 0.950 . S
C2090 H2072 0.951 . S
C2090 C2091 1.366 . S
C2090 C2092 1.388 . S
C2091 C2090 1.366 . S
C2091 C2095 1.385 . S
C2092 H2073 0.951 . S
C2092 C2090 1.388 . S
C2092 C2093 1.366 . S
C2093 C2092 1.366 . S
C2093 C2094 1.414 . S
C2093 C2096 1.499 . S
C2094 H2074 0.950 . S
C2094 C2093 1.414 . S
C2094 C2095 1.374 . S
C2095 H2075 0.950 . S
C2095 C2091 1.385 . S
C2095 C2094 1.374 . S
C2096 C2093 1.499 . S
C2096 C2097 1.373 . S
C2096 C2098 1.389 . S
C2097 H2076 0.950 . S
C2097 C2096 1.373 . S
C2097 C2113 1.377 . S
C2098 C2096 1.389 . S
C2098 C2099 1.524 . S
C2098 C2112 1.377 . S
C2099 C2098 1.524 . S
C2099 C2100 1.397 . S
C2099 C2104 1.363 . S
C2100 H2077 0.950 . S
C2100 C2099 1.397 . S
C2100 C2101 1.334 . S
C2101 H2078 0.950 . S
C2101 C2100 1.334 . S
C2101 C2102 1.287 . S
C2102 C2101 1.287 . S
C2102 C2103 1.524 . S
C2102 H2121 0.913 . S
C2103 H2079 0.950 . S
C2103 C2102 1.524 . S
C2103 C2104 1.415 . S
C2104 H2080 0.950 . S
C2104 C2099 1.363 . S
C2104 C2103 1.415 . S
C2105 H2081 0.951 . S
C2105 C2106 1.366 . S
C2105 C2107 1.388 . S
C2106 C2105 1.366 . S
C2106 C2110 1.385 . S
C2107 H2082 0.951 . S
C2107 C2105 1.388 . S
C2107 C2108 1.366 . S
C2108 C2107 1.366 . S
C2108 C2109 1.414 . S
C2108 C2111 1.499 . S
C2109 H2083 0.950 . S
C2109 C2108 1.414 . S
C2109 C2110 1.374 . S
C2110 H2084 0.950 . S
C2110 C2106 1.385 . S
C2110 C2109 1.374 . S
C2111 C2108 1.499 . S
C2111 C2112 1.373 . S
C2111 C2113 1.389 . S
C2112 H2085 0.950 . S
C2112 C2098 1.377 . S
C2112 C2111 1.373 . S
C2113 C2097 1.377 . S
C2113 C2111 1.389 . S
C2113 C2114 1.524 . S
C2114 C2113 1.524 . S
C2114 C2115 1.397 . S
C2114 C2119 1.363 . S
C2115 H2086 0.950 . S
C2115 C2114 1.397 . S
C2115 C2116 1.334 . S
C2116 H2087 0.950 . S
C2116 C2115 1.334 . S
C2116 C2117 1.287 . S
C2117 C2116 1.287 . S
C2117 C2118 1.524 . S
C2117 H2120 0.999 . S
C2118 H2088 0.950 . S
C2118 C2117 1.524 . S
C2118 C2119 1.415 . S
C2119 H2089 0.950 . S
C2119 C2114 1.363 . S
C2119 C2118 1.415 . S
H2120 C2117 0.999 . S
H2121 C2102 0.913 . S
H2122 C2140 0.951 . S
H2123 C2142 0.951 . S
H2124 C2144 0.950 . S
H2125 C2145 0.950 . S
H2126 C2147 0.957 . S
H2127 C2150 0.950 1_455 S
H2128 C2151 0.950 1_455 S
H2129 C2153 0.950 . S
H2130 C2154 0.950 . S
H2131 C2155 0.951 . S
H2132 C2157 0.951 . S
H2133 C2159 0.950 . S
H2134 C2160 0.950 . S
H2135 C2162 0.950 . S
H2136 C2165 0.950 . S
H2137 C2166 0.950 . S
H2138 C2168 0.950 . S
H2139 C2169 0.950 . S
C2140 H2122 0.951 . S
C2140 C2141 1.366 . S
C2140 C2142 1.388 . S
C2141 C2140 1.366 . S
C2141 C2145 1.385 1_655 S
C2142 H2123 0.951 . S
C2142 C2140 1.388 . S
C2142 C2143 1.366 . S
C2143 C2142 1.366 . S
C2143 C2144 1.414 1_655 S
C2143 C2146 1.499 . S
C2144 H2124 0.950 . S
C2144 C2143 1.414 1_455 S
C2144 C2145 1.374 . S
C2145 H2125 0.950 . S
C2145 C2141 1.385 1_455 S
C2145 C2144 1.374 . S
C2146 C2143 1.499 . S
C2146 C2147 1.359 1_655 S
C2146 C2148 1.389 . S
C2147 H2126 0.957 . S
C2147 C2146 1.359 1_455 S
C2147 C2163 1.387 . S
C2148 C2146 1.389 . S
C2148 C2149 1.524 . S
C2148 C2162 1.377 . S
C2149 C2148 1.524 . S
C2149 C2150 1.397 . S
C2149 C2154 1.363 . S
C2150 H2127 0.950 1_655 S
C2150 C2149 1.397 . S
C2150 C2151 1.334 1_556 S
C2151 H2128 0.950 1_655 S
C2151 C2150 1.334 1_554 S
C2151 C2152 1.287 . S
C2152 C2151 1.287 . S
C2152 C2153 1.524 1_554 S
C2152 H2171 0.913 . S
C2153 H2129 0.950 . S
C2153 C2152 1.524 1_556 S
C2153 C2154 1.415 . S
C2154 H2130 0.950 . S
C2154 C2149 1.363 . S
C2154 C2153 1.415 . S
C2155 H2131 0.951 . S
C2155 C2156 1.366 . S
C2155 C2157 1.388 . S
C2156 C2155 1.366 . S
C2156 C2160 1.385 1_455 S
C2157 H2132 0.951 . S
C2157 C2155 1.388 . S
C2157 C2158 1.366 . S
C2158 C2157 1.366 . S
C2158 C2159 1.414 1_455 S
C2158 C2161 1.499 1_455 S
C2159 H2133 0.950 . S
C2159 C2158 1.414 1_655 S
C2159 C2160 1.374 . S
C2160 H2134 0.950 . S
C2160 C2156 1.385 1_655 S
C2160 C2159 1.374 . S
C2161 C2158 1.499 1_655 S
C2161 C2162 1.373 . S
C2161 C2163 1.389 1_655 S
C2162 H2135 0.950 . S
C2162 C2148 1.377 . S
C2162 C2161 1.373 . S
C2163 C2147 1.387 . S
C2163 C2161 1.389 1_455 S
C2163 C2164 1.524 . S
C2164 C2163 1.524 . S
C2164 C2165 1.397 1_455 S
C2164 C2169 1.363 . S
C2165 H2136 0.950 . S
C2165 C2164 1.397 1_655 S
C2165 C2166 1.334 . S
C2166 H2137 0.950 . S
C2166 C2165 1.334 . S
C2166 C2167 1.287 1_655 S
C2167 C2166 1.287 1_455 S
C2167 C2168 1.524 . S
C2167 H2170 0.999 . S
C2168 H2138 0.950 . S
C2168 C2167 1.524 . S
C2168 C2169 1.415 . S
C2169 H2139 0.950 . S
C2169 C2164 1.363 . S
C2169 C2168 1.415 . S
H2170 C2167 0.999 . S
H2171 C2152 0.913 . S
H2172 C2190 0.951 . S
H2173 C2192 0.951 . S
H2174 C2194 0.950 . S
H2175 C2195 0.950 . S
H2176 C2197 0.950 . S
H2177 C2200 0.950 . S
H2178 C2201 0.950 . S
H2179 C2203 0.950 . S
H2180 C2204 0.950 . S
H2181 C2205 0.951 . S
H2182 C2207 0.951 . S
H2183 C2209 0.950 . S
H2184 C2210 0.950 . S
H2185 C2212 0.950 . S
H2186 C2215 0.950 . S
H2187 C2216 0.950 . S
H2188 C2218 0.950 . S
H2189 C2219 0.950 . S
C2190 H2172 0.951 . S
C2190 C2191 1.366 . S
C2190 C2192 1.388 . S
C2191 C2190 1.366 . S
C2191 C2195 1.385 . S
C2192 H2173 0.951 . S
C2192 C2190 1.388 . S
C2192 C2193 1.366 . S
C2193 C2192 1.366 . S
C2193 C2194 1.414 . S
C2193 C2196 1.499 . S
C2194 H2174 0.950 . S
C2194 C2193 1.414 . S
C2194 C2195 1.374 . S
C2195 H2175 0.950 . S
C2195 C2191 1.385 . S
C2195 C2194 1.374 . S
C2196 C2193 1.499 . S
C2196 C2197 1.373 . S
C2196 C2198 1.389 . S
C2197 H2176 0.950 . S
C2197 C2196 1.373 . S
C2197 C2213 1.377 . S
C2198 C2196 1.389 . S
C2198 C2199 1.524 . S
C2198 C2212 1.377 . S
C2199 C2198 1.524 . S
C2199 C2200 1.397 . S
C2199 C2204 1.363 . S
C2200 H2177 0.950 . S
C2200 C2199 1.397 . S
C2200 C2201 1.334 . S
C2201 H2178 0.950 . S
C2201 C2200 1.334 . S
C2201 C2202 1.287 . S
C2202 C2201 1.287 . S
C2202 C2203 1.524 . S
C2202 H2221 0.913 . S
C2203 H2179 0.950 . S
C2203 C2202 1.524 . S
C2203 C2204 1.415 . S
C2204 H2180 0.950 . S
C2204 C2199 1.363 . S
C2204 C2203 1.415 . S
C2205 H2181 0.951 . S
C2205 C2206 1.366 . S
C2205 C2207 1.388 . S
C2206 C2205 1.366 . S
C2206 C2210 1.385 . S
C2207 H2182 0.951 . S
C2207 C2205 1.388 . S
C2207 C2208 1.366 . S
C2208 C2207 1.366 . S
C2208 C2209 1.414 . S
C2208 C2211 1.499 . S
C2209 H2183 0.950 . S
C2209 C2208 1.414 . S
C2209 C2210 1.374 . S
C2210 H2184 0.950 . S
C2210 C2206 1.385 . S
C2210 C2209 1.374 . S
C2211 C2208 1.499 . S
C2211 C2212 1.373 . S
C2211 C2213 1.389 . S
C2212 H2185 0.950 . S
C2212 C2198 1.377 . S
C2212 C2211 1.373 . S
C2213 C2197 1.377 . S
C2213 C2211 1.389 . S
C2213 C2214 1.524 . S
C2214 C2213 1.524 . S
C2214 C2215 1.397 . S
C2214 C2219 1.363 . S
C2215 H2186 0.950 . S
C2215 C2214 1.397 . S
C2215 C2216 1.334 . S
C2216 H2187 0.950 . S
C2216 C2215 1.334 . S
C2216 C2217 1.287 . S
C2217 C2216 1.287 . S
C2217 C2218 1.524 . S
C2217 H2220 0.999 . S
C2218 H2188 0.950 . S
C2218 C2217 1.524 . S
C2218 C2219 1.415 . S
C2219 H2189 0.950 . S
C2219 C2214 1.363 . S
C2219 C2218 1.415 . S
H2220 C2217 0.999 . S
H2221 C2202 0.913 . S
H2222 C2240 0.951 . S
H2223 C2242 0.951 . S
H2224 C2244 0.950 . S
H2225 C2245 0.950 1_554 S
H2226 C2247 0.950 . S
H2227 C2250 0.950 . S
H2228 C2251 0.950 . S
H2229 C2253 0.950 . S
H2230 C2254 0.950 . S
H2231 C2255 0.951 . S
H2232 C2257 0.951 . S
H2233 C2259 0.950 . S
H2234 C2260 0.950 . S
H2235 C2262 0.950 . S
H2236 C2265 0.945 1_655 S
H2237 C2266 0.950 . S
H2238 C2268 0.950 . S
H2239 C2269 0.950 . S
C2240 H2222 0.951 . S
C2240 C2241 1.366 . S
C2240 C2242 1.388 . S
C2241 C2240 1.366 . S
C2241 C2245 1.385 . S
C2242 H2223 0.951 . S
C2242 C2240 1.388 . S
C2242 C2243 1.366 . S
C2243 C2242 1.366 . S
C2243 C2244 1.414 . S
C2243 C2246 1.499 . S
C2244 H2224 0.950 . S
C2244 C2243 1.414 . S
C2244 C2245 1.374 . S
C2245 H2225 0.950 1_556 S
C2245 C2241 1.385 . S
C2245 C2244 1.374 . S
C2246 C2243 1.499 . S
C2246 C2247 1.373 . S
C2246 C2248 1.389 . S
C2247 H2226 0.950 . S
C2247 C2246 1.373 . S
C2247 C2263 1.377 . S
C2248 C2246 1.389 . S
C2248 C2249 1.524 . S
C2248 C2262 1.377 . S
C2249 C2248 1.524 . S
C2249 C2250 1.397 . S
C2249 C2254 1.363 . S
C2250 H2227 0.950 . S
C2250 C2249 1.397 . S
C2250 C2251 1.334 . S
C2251 H2228 0.950 . S
C2251 C2250 1.334 . S
C2251 C2252 1.287 . S
C2252 C2251 1.287 . S
C2252 C2253 1.524 . S
C2252 H2271 0.913 . S
C2253 H2229 0.950 . S
C2253 C2252 1.524 . S
C2253 C2254 1.415 . S
C2254 H2230 0.950 . S
C2254 C2249 1.363 . S
C2254 C2253 1.415 . S
C2255 H2231 0.951 . S
C2255 C2256 1.366 . S
C2255 C2257 1.388 . S
C2256 C2255 1.366 . S
C2256 C2260 1.385 . S
C2257 H2232 0.951 . S
C2257 C2255 1.388 . S
C2257 C2258 1.366 . S
C2258 C2257 1.366 . S
C2258 C2259 1.414 . S
C2258 C2261 1.499 . S
C2259 H2233 0.950 . S
C2259 C2258 1.414 . S
C2259 C2260 1.374 . S
C2260 H2234 0.950 . S
C2260 C2256 1.385 . S
C2260 C2259 1.374 . S
C2261 C2258 1.499 . S
C2261 C2262 1.373 . S
C2261 C2263 1.389 . S
C2262 H2235 0.950 . S
C2262 C2248 1.377 . S
C2262 C2261 1.373 . S
C2263 C2247 1.377 . S
C2263 C2261 1.389 . S
C2263 C2264 1.524 . S
C2264 C2263 1.524 . S
C2264 C2265 1.421 . S
C2264 C2269 1.363 . S
C2265 H2236 0.945 1_455 S
C2265 C2264 1.421 . S
C2265 C2266 1.316 1_455 S
C2266 H2237 0.950 . S
C2266 C2265 1.316 1_655 S
C2266 C2267 1.287 . S
C2267 C2266 1.287 . S
C2267 C2268 1.524 1_655 S
C2267 H2270 0.999 . S
C2268 H2238 0.950 . S
C2268 C2267 1.524 1_455 S
C2268 C2269 1.415 . S
C2269 H2239 0.950 . S
C2269 C2264 1.363 . S
C2269 C2268 1.415 . S
H2270 C2267 0.999 . S
H2271 C2252 0.913 . S
H2272 C2290 0.951 . S
H2273 C2292 0.951 . S
H2274 C2294 0.950 . S
H2275 C2295 0.950 . S
H2276 C2297 0.950 . S
H2277 C2300 0.950 . S
H2278 C2301 0.950 . S
H2279 C2303 0.950 . S
H2280 C2304 0.950 . S
H2281 C2305 0.951 . S
H2282 C2307 0.951 . S
H2283 C2309 0.950 . S
H2284 C2310 0.950 . S
H2285 C2312 0.950 . S
H2286 C2315 0.950 . S
H2287 C2316 0.950 . S
H2288 C2318 0.950 . S
H2289 C2319 0.950 . S
C2290 H2272 0.951 . S
C2290 C2291 1.366 . S
C2290 C2292 1.388 . S
C2291 C2290 1.366 . S
C2291 C2295 1.385 . S
C2292 H2273 0.951 . S
C2292 C2290 1.388 . S
C2292 C2293 1.366 . S
C2293 C2292 1.366 . S
C2293 C2294 1.414 . S
C2293 C2296 1.499 . S
C2294 H2274 0.950 . S
C2294 C2293 1.414 . S
C2294 C2295 1.374 . S
C2295 H2275 0.950 . S
C2295 C2291 1.385 . S
C2295 C2294 1.374 . S
C2296 C2293 1.499 . S
C2296 C2297 1.373 . S
C2296 C2298 1.389 . S
C2297 H2276 0.950 . S
C2297 C2296 1.373 . S
C2297 C2313 1.377 . S
C2298 C2296 1.389 . S
C2298 C2299 1.524 . S
C2298 C2312 1.377 . S
C2299 C2298 1.524 . S
C2299 C2300 1.397 . S
C2299 C2304 1.363 . S
C2300 H2277 0.950 . S
C2300 C2299 1.397 . S
C2300 C2301 1.334 . S
C2301 H2278 0.950 . S
C2301 C2300 1.334 . S
C2301 C2302 1.287 . S
C2302 C2301 1.287 . S
C2302 C2303 1.524 . S
C2302 H2321 0.913 . S
C2303 H2279 0.950 . S
C2303 C2302 1.524 . S
C2303 C2304 1.415 . S
C2304 H2280 0.950 . S
C2304 C2299 1.363 . S
C2304 C2303 1.415 . S
C2305 H2281 0.951 . S
C2305 C2306 1.366 . S
C2305 C2307 1.388 . S
C2306 C2305 1.366 . S
C2306 C2310 1.385 . S
C2307 H2282 0.951 . S
C2307 C2305 1.388 . S
C2307 C2308 1.366 . S
C2308 C2307 1.366 . S
C2308 C2309 1.414 . S
C2308 C2311 1.499 . S
C2309 H2283 0.950 . S
C2309 C2308 1.414 . S
C2309 C2310 1.374 . S
C2310 H2284 0.950 . S
C2310 C2306 1.385 . S
C2310 C2309 1.374 . S
C2311 C2308 1.499 . S
C2311 C2312 1.373 . S
C2311 C2313 1.389 . S
C2312 H2285 0.950 . S
C2312 C2298 1.377 . S
C2312 C2311 1.373 . S
C2313 C2297 1.377 . S
C2313 C2311 1.389 . S
C2313 C2314 1.524 . S
C2314 C2313 1.524 . S
C2314 C2315 1.397 . S
C2314 C2319 1.363 . S
C2315 H2286 0.950 . S
C2315 C2314 1.397 . S
C2315 C2316 1.334 . S
C2316 H2287 0.950 . S
C2316 C2315 1.334 . S
C2316 C2317 1.287 . S
C2317 C2316 1.287 . S
C2317 C2318 1.524 . S
C2317 H2320 0.999 . S
C2318 H2288 0.950 . S
C2318 C2317 1.524 . S
C2318 C2319 1.415 . S
C2319 H2289 0.950 . S
C2319 C2314 1.363 . S
C2319 C2318 1.415 . S
H2320 C2317 0.999 . S
H2321 C2302 0.913 . S
H2322 C2340 0.951 . S
H2323 C2342 0.951 . S
H2324 C2344 0.950 . S
H2325 C2345 0.950 . S
H2326 C2347 0.950 . S
H2327 C2350 0.950 . S
H2328 C2351 0.957 . S
H2329 C2353 0.969 . S
H2330 C2354 0.950 . S
H2331 C2355 0.951 . S
H2332 C2357 0.951 . S
H2333 C2359 0.950 . S
H2334 C2360 0.950 . S
H2335 C2362 0.950 . S
H2336 C2365 0.950 . S
H2337 C2366 0.950 . S
H2338 C2368 0.950 . S
H2339 C2369 0.950 . S
C2340 H2322 0.951 . S
C2340 C2341 1.366 . S
C2340 C2342 1.388 . S
C2341 C2340 1.366 . S
C2341 C2345 1.385 . S
C2342 H2323 0.951 . S
C2342 C2340 1.388 . S
C2342 C2343 1.366 . S
C2343 C2342 1.366 . S
C2343 C2344 1.414 . S
C2343 C2346 1.499 . S
C2344 H2324 0.950 . S
C2344 C2343 1.414 . S
C2344 C2345 1.374 . S
C2345 H2325 0.950 . S
C2345 C2341 1.385 . S
C2345 C2344 1.374 . S
C2346 C2343 1.499 . S
C2346 C2347 1.373 . S
C2346 C2348 1.389 . S
C2347 H2326 0.950 . S
C2347 C2346 1.373 . S
C2347 C2363 1.377 . S
C2348 C2346 1.389 . S
C2348 C2349 1.524 . S
C2348 C2362 1.377 . S
C2349 C2348 1.524 . S
C2349 C2350 1.397 . S
C2349 C2354 1.363 . S
C2350 H2327 0.950 . S
C2350 C2349 1.397 . S
C2350 C2351 1.325 1_554 S
C2351 H2328 0.957 . S
C2351 C2350 1.325 1_556 S
C2351 C2352 1.289 . S
C2352 C2351 1.289 . S
C2352 C2353 1.524 1_556 S
C2352 H2371 0.913 . S
C2353 H2329 0.969 . S
C2353 C2352 1.524 1_554 S
C2353 C2354 1.415 . S
C2354 H2330 0.950 . S
C2354 C2349 1.363 . S
C2354 C2353 1.415 . S
C2355 H2331 0.951 . S
C2355 C2356 1.366 . S
C2355 C2357 1.388 . S
C2356 C2355 1.366 . S
C2356 C2360 1.385 . S
C2357 H2332 0.951 . S
C2357 C2355 1.388 . S
C2357 C2358 1.366 . S
C2358 C2357 1.366 . S
C2358 C2359 1.414 . S
C2358 C2361 1.499 . S
C2359 H2333 0.950 . S
C2359 C2358 1.414 . S
C2359 C2360 1.374 . S
C2360 H2334 0.950 . S
C2360 C2356 1.385 . S
C2360 C2359 1.374 . S
C2361 C2358 1.499 . S
C2361 C2362 1.373 . S
C2361 C2363 1.389 . S
C2362 H2335 0.950 . S
C2362 C2348 1.377 . S
C2362 C2361 1.373 . S
C2363 C2347 1.377 . S
C2363 C2361 1.389 . S
C2363 C2364 1.524 . S
C2364 C2363 1.524 . S
C2364 C2365 1.397 . S
C2364 C2369 1.363 . S
C2365 H2336 0.950 . S
C2365 C2364 1.397 . S
C2365 C2366 1.334 . S
C2366 H2337 0.950 . S
C2366 C2365 1.334 . S
C2366 C2367 1.287 . S
C2367 C2366 1.287 . S
C2367 C2368 1.524 . S
C2367 H2370 0.999 . S
C2368 H2338 0.950 . S
C2368 C2367 1.524 . S
C2368 C2369 1.415 . S
C2369 H2339 0.950 . S
C2369 C2364 1.363 . S
C2369 C2368 1.415 . S
H2370 C2367 0.999 . S
H2371 C2352 0.913 . S
H2372 C2390 0.951 . S
H2373 C2392 0.951 . S
H2374 C2394 0.950 . S
H2375 C2395 0.950 . S
H2376 C2397 0.950 . S
H2377 C2400 0.950 . S
H2378 C2401 0.950 . S
H2379 C2403 0.950 . S
H2380 C2404 0.950 . S
H2381 C2405 0.951 . S
H2382 C2407 0.951 . S
H2383 C2409 0.950 . S
H2384 C2410 0.950 . S
H2385 C2412 0.950 . S
H2386 C2415 0.950 . S
H2387 C2416 0.950 . S
H2388 C2418 0.950 . S
H2389 C2419 0.950 . S
C2390 H2372 0.951 . S
C2390 C2391 1.366 . S
C2390 C2392 1.388 . S
C2391 C2390 1.366 . S
C2391 C2395 1.385 . S
C2392 H2373 0.951 . S
C2392 C2390 1.388 . S
C2392 C2393 1.366 . S
C2393 C2392 1.366 . S
C2393 C2394 1.414 . S
C2393 C2396 1.499 . S
C2394 H2374 0.950 . S
C2394 C2393 1.414 . S
C2394 C2395 1.374 . S
C2395 H2375 0.950 . S
C2395 C2391 1.385 . S
C2395 C2394 1.374 . S
C2396 C2393 1.499 . S
C2396 C2397 1.373 . S
C2396 C2398 1.389 . S
C2397 H2376 0.950 . S
C2397 C2396 1.373 . S
C2397 C2413 1.377 . S
C2398 C2396 1.389 . S
C2398 C2399 1.524 . S
C2398 C2412 1.377 . S
C2399 C2398 1.524 . S
C2399 C2400 1.397 . S
C2399 C2404 1.363 . S
C2400 H2377 0.950 . S
C2400 C2399 1.397 . S
C2400 C2401 1.334 . S
C2401 H2378 0.950 . S
C2401 C2400 1.334 . S
C2401 C2402 1.287 . S
C2402 C2401 1.287 . S
C2402 C2403 1.524 . S
C2402 H2421 0.913 . S
C2403 H2379 0.950 . S
C2403 C2402 1.524 . S
C2403 C2404 1.415 . S
C2404 H2380 0.950 . S
C2404 C2399 1.363 . S
C2404 C2403 1.415 . S
C2405 H2381 0.951 . S
C2405 C2406 1.366 . S
C2405 C2407 1.388 . S
C2406 C2405 1.366 . S
C2406 C2410 1.385 . S
C2407 H2382 0.951 . S
C2407 C2405 1.388 . S
C2407 C2408 1.366 . S
C2408 C2407 1.366 . S
C2408 C2409 1.414 . S
C2408 C2411 1.499 . S
C2409 H2383 0.950 . S
C2409 C2408 1.414 . S
C2409 C2410 1.374 . S
C2410 H2384 0.950 . S
C2410 C2406 1.385 . S
C2410 C2409 1.374 . S
C2411 C2408 1.499 . S
C2411 C2412 1.373 . S
C2411 C2413 1.389 . S
C2412 H2385 0.950 . S
C2412 C2398 1.377 . S
C2412 C2411 1.373 . S
C2413 C2397 1.377 . S
C2413 C2411 1.389 . S
C2413 C2414 1.524 . S
C2414 C2413 1.524 . S
C2414 C2415 1.397 . S
C2414 C2419 1.363 . S
C2415 H2386 0.950 . S
C2415 C2414 1.397 . S
C2415 C2416 1.334 . S
C2416 H2387 0.950 . S
C2416 C2415 1.334 . S
C2416 C2417 1.287 . S
C2417 C2416 1.287 . S
C2417 C2418 1.524 . S
C2417 H2420 0.999 . S
C2418 H2388 0.950 . S
C2418 C2417 1.524 . S
C2418 C2419 1.415 . S
C2419 H2389 0.950 . S
C2419 C2414 1.363 . S
C2419 C2418 1.415 . S
H2420 C2417 0.999 . S
H2421 C2402 0.913 . S
H2422 C2440 0.951 . S
H2423 C2442 0.951 1_554 S
H2424 C2444 0.950 . S
H2425 C2445 0.950 . S
H2426 C2447 0.950 . S
H2427 C2450 0.950 1_556 S
H2428 C2451 0.950 . S
H2429 C2453 0.950 . S
H2430 C2454 0.950 . S
H2431 C2455 0.951 . S
H2432 C2457 0.951 . S
H2433 C2459 0.950 . S
H2434 C2460 0.950 . S
H2435 C2462 0.950 . S
H2436 C2465 0.950 . S
H2437 C2466 0.950 . S
H2438 C2468 0.950 . S
H2439 C2469 0.950 . S
C2440 H2422 0.951 . S
C2440 C2441 1.366 . S
C2440 C2442 1.388 . S
C2441 C2440 1.366 . S
C2441 C2445 1.385 . S
C2442 H2423 0.951 1_556 S
C2442 C2440 1.388 . S
C2442 C2443 1.366 . S
C2443 C2442 1.366 . S
C2443 C2444 1.409 . S
C2443 C2446 1.503 1_556 S
C2444 H2424 0.950 . S
C2444 C2443 1.409 . S
C2444 C2445 1.374 . S
C2445 H2425 0.950 . S
C2445 C2441 1.385 . S
C2445 C2444 1.374 . S
C2446 C2443 1.503 1_554 S
C2446 C2447 1.373 . S
C2446 C2448 1.389 . S
C2447 H2426 0.950 . S
C2447 C2446 1.373 . S
C2447 C2463 1.377 . S
C2448 C2446 1.389 . S
C2448 C2449 1.524 . S
C2448 C2462 1.377 . S
C2449 C2448 1.524 . S
C2449 C2450 1.397 . S
C2449 C2454 1.363 . S
C2450 H2427 0.950 1_554 S
C2450 C2449 1.397 . S
C2450 C2451 1.334 1_554 S
C2451 H2428 0.950 . S
C2451 C2450 1.334 1_556 S
C2451 C2452 1.287 1_556 S
C2452 C2451 1.287 1_554 S
C2452 C2453 1.524 . S
C2452 H2471 0.913 1_554 S
C2453 H2429 0.950 . S
C2453 C2452 1.524 . S
C2453 C2454 1.415 . S
C2454 H2430 0.950 . S
C2454 C2449 1.363 . S
C2454 C2453 1.415 . S
C2455 H2431 0.951 . S
C2455 C2456 1.366 . S
C2455 C2457 1.388 . S
C2456 C2455 1.366 . S
C2456 C2460 1.385 . S
C2457 H2432 0.951 . S
C2457 C2455 1.388 . S
C2457 C2458 1.366 . S
C2458 C2457 1.366 . S
C2458 C2459 1.414 . S
C2458 C2461 1.499 . S
C2459 H2433 0.950 . S
C2459 C2458 1.414 . S
C2459 C2460 1.374 . S
C2460 H2434 0.950 . S
C2460 C2456 1.385 . S
C2460 C2459 1.374 . S
C2461 C2458 1.499 . S
C2461 C2462 1.373 . S
C2461 C2463 1.389 . S
C2462 H2435 0.950 . S
C2462 C2448 1.377 . S
C2462 C2461 1.373 . S
C2463 C2447 1.377 . S
C2463 C2461 1.389 . S
C2463 C2464 1.524 . S
C2464 C2463 1.524 . S
C2464 C2465 1.397 . S
C2464 C2469 1.363 . S
C2465 H2436 0.950 . S
C2465 C2464 1.397 . S
C2465 C2466 1.334 . S
C2466 H2437 0.950 . S
C2466 C2465 1.334 . S
C2466 C2467 1.287 . S
C2467 C2466 1.287 . S
C2467 C2468 1.524 . S
C2467 H2470 0.999 . S
C2468 H2438 0.950 . S
C2468 C2467 1.524 . S
C2468 C2469 1.415 . S
C2469 H2439 0.950 . S
C2469 C2464 1.363 . S
C2469 C2468 1.415 . S
H2470 C2467 0.999 . S
H2471 C2452 0.913 1_556 S
H2472 C2490 0.951 . S
H2473 C2492 0.951 . S
H2474 C2494 0.950 . S
H2475 C2495 0.950 . S
H2476 C2497 0.950 . S
H2477 C2500 0.950 . S
H2478 C2501 0.950 . S
H2479 C2503 0.950 . S
H2480 C2504 0.950 . S
H2481 C2505 0.951 . S
H2482 C2507 0.951 . S
H2483 C2509 0.950 . S
H2484 C2510 0.950 . S
H2485 C2512 0.950 . S
H2486 C2515 0.950 . S
H2487 C2516 0.950 . S
H2488 C2518 0.950 . S
H2489 C2519 0.950 . S
C2490 H2472 0.951 . S
C2490 C2491 1.366 . S
C2490 C2492 1.388 . S
C2491 C2490 1.366 . S
C2491 C2495 1.385 . S
C2492 H2473 0.951 . S
C2492 C2490 1.388 . S
C2492 C2493 1.366 . S
C2493 C2492 1.366 . S
C2493 C2494 1.414 . S
C2493 C2496 1.499 . S
C2494 H2474 0.950 . S
C2494 C2493 1.414 . S
C2494 C2495 1.374 . S
C2495 H2475 0.950 . S
C2495 C2491 1.385 . S
C2495 C2494 1.374 . S
C2496 C2493 1.499 . S
C2496 C2497 1.373 . S
C2496 C2498 1.389 . S
C2497 H2476 0.950 . S
C2497 C2496 1.373 . S
C2497 C2513 1.377 . S
C2498 C2496 1.389 . S
C2498 C2499 1.524 . S
C2498 C2512 1.377 . S
C2499 C2498 1.524 . S
C2499 C2500 1.397 . S
C2499 C2504 1.363 . S
C2500 H2477 0.950 . S
C2500 C2499 1.397 . S
C2500 C2501 1.334 . S
C2501 H2478 0.950 . S
C2501 C2500 1.334 . S
C2501 C2502 1.287 . S
C2502 C2501 1.287 . S
C2502 C2503 1.524 . S
C2502 H2521 0.913 . S
C2503 H2479 0.950 . S
C2503 C2502 1.524 . S
C2503 C2504 1.415 . S
C2504 H2480 0.950 . S
C2504 C2499 1.363 . S
C2504 C2503 1.415 . S
C2505 H2481 0.951 . S
C2505 C2506 1.366 . S
C2505 C2507 1.388 . S
C2506 C2505 1.366 . S
C2506 C2510 1.385 . S
C2507 H2482 0.951 . S
C2507 C2505 1.388 . S
C2507 C2508 1.366 . S
C2508 C2507 1.366 . S
C2508 C2509 1.414 . S
C2508 C2511 1.499 . S
C2509 H2483 0.950 . S
C2509 C2508 1.414 . S
C2509 C2510 1.374 . S
C2510 H2484 0.950 . S
C2510 C2506 1.385 . S
C2510 C2509 1.374 . S
C2511 C2508 1.499 . S
C2511 C2512 1.373 . S
C2511 C2513 1.389 . S
C2512 H2485 0.950 . S
C2512 C2498 1.377 . S
C2512 C2511 1.373 . S
C2513 C2497 1.377 . S
C2513 C2511 1.389 . S
C2513 C2514 1.524 . S
C2514 C2513 1.524 . S
C2514 C2515 1.397 . S
C2514 C2519 1.363 . S
C2515 H2486 0.950 . S
C2515 C2514 1.397 . S
C2515 C2516 1.334 . S
C2516 H2487 0.950 . S
C2516 C2515 1.334 . S
C2516 C2517 1.287 . S
C2517 C2516 1.287 . S
C2517 C2518 1.524 . S
C2517 H2520 0.999 . S
C2518 H2488 0.950 . S
C2518 C2517 1.524 . S
C2518 C2519 1.415 . S
C2519 H2489 0.950 . S
C2519 C2514 1.363 . S
C2519 C2518 1.415 . S
H2520 C2517 0.999 . S
H2521 C2502 0.913 . S
H2522 C2540 0.951 . S
H2523 C2542 0.951 . S
H2524 C2544 0.950 . S
H2525 C2545 0.950 . S
H2526 C2547 0.950 . S
H2527 C2550 0.950 . S
H2528 C2551 0.950 . S
H2529 C2553 0.950 . S
H2530 C2554 0.950 . S
H2531 C2555 0.951 . S
H2532 C2557 0.951 . S
H2533 C2559 0.950 . S
H2534 C2560 0.950 . S
H2535 C2562 0.950 . S
H2536 C2565 0.950 . S
H2537 C2566 0.950 . S
H2538 C2568 0.950 . S
H2539 C2569 0.950 . S
C2540 H2522 0.951 . S
C2540 C2541 1.366 . S
C2540 C2542 1.388 . S
C2541 C2540 1.366 . S
C2541 C2545 1.385 . S
C2542 H2523 0.951 . S
C2542 C2540 1.388 . S
C2542 C2543 1.366 . S
C2543 C2542 1.366 . S
C2543 C2544 1.414 . S
C2543 C2546 1.499 . S
C2544 H2524 0.950 . S
C2544 C2543 1.414 . S
C2544 C2545 1.374 . S
C2545 H2525 0.950 . S
C2545 C2541 1.385 . S
C2545 C2544 1.374 . S
C2546 C2543 1.499 . S
C2546 C2547 1.373 . S
C2546 C2548 1.389 . S
C2547 H2526 0.950 . S
C2547 C2546 1.373 . S
C2547 C2563 1.377 . S
C2548 C2546 1.389 . S
C2548 C2549 1.524 . S
C2548 C2562 1.377 . S
C2549 C2548 1.524 . S
C2549 C2550 1.397 . S
C2549 C2554 1.363 . S
C2550 H2527 0.950 . S
C2550 C2549 1.397 . S
C2550 C2551 1.334 . S
C2551 H2528 0.950 . S
C2551 C2550 1.334 . S
C2551 C2552 1.287 . S
C2552 C2551 1.287 . S
C2552 C2553 1.524 . S
C2552 H2571 0.913 . S
C2553 H2529 0.950 . S
C2553 C2552 1.524 . S
C2553 C2554 1.415 . S
C2554 H2530 0.950 . S
C2554 C2549 1.363 . S
C2554 C2553 1.415 . S
C2555 H2531 0.951 . S
C2555 C2556 1.366 . S
C2555 C2557 1.388 . S
C2556 C2555 1.366 . S
C2556 C2560 1.385 . S
C2557 H2532 0.951 . S
C2557 C2555 1.388 . S
C2557 C2558 1.366 . S
C2558 C2557 1.366 . S
C2558 C2559 1.414 . S
C2558 C2561 1.499 . S
C2559 H2533 0.950 . S
C2559 C2558 1.414 . S
C2559 C2560 1.374 . S
C2560 H2534 0.950 . S
C2560 C2556 1.385 . S
C2560 C2559 1.374 . S
C2561 C2558 1.499 . S
C2561 C2562 1.373 . S
C2561 C2563 1.389 . S
C2562 H2535 0.950 . S
C2562 C2548 1.377 . S
C2562 C2561 1.373 . S
C2563 C2547 1.377 . S
C2563 C2561 1.389 . S
C2563 C2564 1.524 . S
C2564 C2563 1.524 . S
C2564 C2565 1.397 . S
C2564 C2569 1.363 . S
C2565 H2536 0.950 . S
C2565 C2564 1.397 . S
C2565 C2566 1.334 . S
C2566 H2537 0.950 . S
C2566 C2565 1.334 . S
C2566 C2567 1.287 . S
C2567 C2566 1.287 . S
C2567 C2568 1.524 . S
C2567 H2570 0.999 . S
C2568 H2538 0.950 . S
C2568 C2567 1.524 . S
C2568 C2569 1.415 . S
C2569 H2539 0.950 . S
C2569 C2564 1.363 . S
C2569 C2568 1.415 . S
H2570 C2567 0.999 . S
H2571 C2552 0.913 . S
H2572 C2590 0.951 . S
H2573 C2592 0.951 . S
H2574 C2594 0.950 . S
H2575 C2595 0.950 . S
H2576 C2597 0.950 . S
H2577 C2600 0.950 . S
H2578 C2601 0.950 . S
H2579 C2603 0.950 . S
H2580 C2604 0.950 . S
H2581 C2605 0.951 . S
H2582 C2607 0.951 . S
H2583 C2609 0.950 . S
H2584 C2610 0.950 . S
H2585 C2612 0.950 . S
H2586 C2615 0.950 . S
H2587 C2616 0.950 . S
H2588 C2618 0.950 . S
H2589 C2619 0.950 . S
C2590 H2572 0.951 . S
C2590 C2591 1.366 . S
C2590 C2592 1.388 . S
C2591 C2590 1.366 . S
C2591 C2595 1.385 . S
C2592 H2573 0.951 . S
C2592 C2590 1.388 . S
C2592 C2593 1.366 . S
C2593 C2592 1.366 . S
C2593 C2594 1.414 . S
C2593 C2596 1.499 . S
C2594 H2574 0.950 . S
C2594 C2593 1.414 . S
C2594 C2595 1.374 . S
C2595 H2575 0.950 . S
C2595 C2591 1.385 . S
C2595 C2594 1.374 . S
C2596 C2593 1.499 . S
C2596 C2597 1.373 . S
C2596 C2598 1.389 . S
C2597 H2576 0.950 . S
C2597 C2596 1.373 . S
C2597 C2613 1.377 . S
C2598 C2596 1.389 . S
C2598 C2599 1.524 . S
C2598 C2612 1.377 . S
C2599 C2598 1.524 . S
C2599 C2600 1.397 . S
C2599 C2604 1.363 . S
C2600 H2577 0.950 . S
C2600 C2599 1.397 . S
C2600 C2601 1.334 . S
C2601 H2578 0.950 . S
C2601 C2600 1.334 . S
C2601 C2602 1.287 . S
C2602 C2601 1.287 . S
C2602 C2603 1.524 . S
C2602 H2621 0.913 . S
C2603 H2579 0.950 . S
C2603 C2602 1.524 . S
C2603 C2604 1.415 . S
C2604 H2580 0.950 . S
C2604 C2599 1.363 . S
C2604 C2603 1.415 . S
C2605 H2581 0.951 . S
C2605 C2606 1.366 . S
C2605 C2607 1.388 . S
C2606 C2605 1.366 . S
C2606 C2610 1.385 . S
C2607 H2582 0.951 . S
C2607 C2605 1.388 . S
C2607 C2608 1.366 . S
C2608 C2607 1.366 . S
C2608 C2609 1.414 . S
C2608 C2611 1.499 . S
C2609 H2583 0.950 . S
C2609 C2608 1.414 . S
C2609 C2610 1.374 . S
C2610 H2584 0.950 . S
C2610 C2606 1.385 . S
C2610 C2609 1.374 . S
C2611 C2608 1.499 . S
C2611 C2612 1.373 . S
C2611 C2613 1.389 . S
C2612 H2585 0.950 . S
C2612 C2598 1.377 . S
C2612 C2611 1.373 . S
C2613 C2597 1.377 . S
C2613 C2611 1.389 . S
C2613 C2614 1.524 . S
C2614 C2613 1.524 . S
C2614 C2615 1.397 . S
C2614 C2619 1.363 . S
C2615 H2586 0.950 . S
C2615 C2614 1.397 . S
C2615 C2616 1.334 . S
C2616 H2587 0.950 . S
C2616 C2615 1.334 . S
C2616 C2617 1.287 . S
C2617 C2616 1.287 . S
C2617 C2618 1.524 . S
C2617 H2620 0.999 . S
C2618 H2588 0.950 . S
C2618 C2617 1.524 . S
C2618 C2619 1.415 . S
C2619 H2589 0.950 . S
C2619 C2614 1.363 . S
C2619 C2618 1.415 . S
H2620 C2617 0.999 . S
H2621 C2602 0.913 . S
H2622 C2640 0.951 . S
H2623 C2642 0.951 . S
H2624 C2644 0.950 . S
H2625 C2645 0.950 . S
H2626 C2647 0.950 . S
H2627 C2650 0.950 . S
H2628 C2651 0.950 . S
H2629 C2653 0.950 . S
H2630 C2654 0.950 . S
H2631 C2655 0.951 . S
H2632 C2657 0.951 . S
H2633 C2659 0.950 . S
H2634 C2660 0.950 . S
H2635 C2662 0.950 . S
H2636 C2665 0.950 . S
H2637 C2666 0.950 . S
H2638 C2668 0.950 . S
H2639 C2669 0.950 . S
C2640 H2622 0.951 . S
C2640 C2641 1.366 . S
C2640 C2642 1.388 . S
C2641 C2640 1.366 . S
C2641 C2645 1.385 . S
C2642 H2623 0.951 . S
C2642 C2640 1.388 . S
C2642 C2643 1.366 . S
C2643 C2642 1.366 . S
C2643 C2644 1.414 . S
C2643 C2646 1.499 . S
C2644 H2624 0.950 . S
C2644 C2643 1.414 . S
C2644 C2645 1.374 . S
C2645 H2625 0.950 . S
C2645 C2641 1.385 . S
C2645 C2644 1.374 . S
C2646 C2643 1.499 . S
C2646 C2647 1.373 . S
C2646 C2648 1.389 . S
C2647 H2626 0.950 . S
C2647 C2646 1.373 . S
C2647 C2663 1.377 . S
C2648 C2646 1.389 . S
C2648 C2649 1.524 . S
C2648 C2662 1.377 . S
C2649 C2648 1.524 . S
C2649 C2650 1.397 . S
C2649 C2654 1.363 . S
C2650 H2627 0.950 . S
C2650 C2649 1.397 . S
C2650 C2651 1.334 . S
C2651 H2628 0.950 . S
C2651 C2650 1.334 . S
C2651 C2652 1.287 . S
C2652 C2651 1.287 . S
C2652 C2653 1.524 . S
C2652 H2671 0.913 . S
C2653 H2629 0.950 . S
C2653 C2652 1.524 . S
C2653 C2654 1.415 . S
C2654 H2630 0.950 . S
C2654 C2649 1.363 . S
C2654 C2653 1.415 . S
C2655 H2631 0.951 . S
C2655 C2656 1.366 . S
C2655 C2657 1.388 . S
C2656 C2655 1.366 . S
C2656 C2660 1.385 . S
C2657 H2632 0.951 . S
C2657 C2655 1.388 . S
C2657 C2658 1.366 . S
C2658 C2657 1.366 . S
C2658 C2659 1.414 . S
C2658 C2661 1.499 . S
C2659 H2633 0.950 . S
C2659 C2658 1.414 . S
C2659 C2660 1.374 . S
C2660 H2634 0.950 . S
C2660 C2656 1.385 . S
C2660 C2659 1.374 . S
C2661 C2658 1.499 . S
C2661 C2662 1.373 . S
C2661 C2663 1.389 . S
C2662 H2635 0.950 . S
C2662 C2648 1.377 . S
C2662 C2661 1.373 . S
C2663 C2647 1.377 . S
C2663 C2661 1.389 . S
C2663 C2664 1.524 . S
C2664 C2663 1.524 . S
C2664 C2665 1.397 . S
C2664 C2669 1.363 . S
C2665 H2636 0.950 . S
C2665 C2664 1.397 . S
C2665 C2666 1.334 . S
C2666 H2637 0.950 . S
C2666 C2665 1.334 . S
C2666 C2667 1.287 . S
C2667 C2666 1.287 . S
C2667 C2668 1.524 . S
C2667 H2670 0.999 . S
C2668 H2638 0.950 . S
C2668 C2667 1.524 . S
C2668 C2669 1.415 . S
C2669 H2639 0.950 . S
C2669 C2664 1.363 . S
C2669 C2668 1.415 . S
H2670 C2667 0.999 . S
H2671 C2652 0.913 . S
H2672 C2690 0.951 . S
H2673 C2692 0.951 . S
H2674 C2694 0.950 1_554 S
H2675 C2695 0.950 1_554 S
H2676 C2697 0.950 . S
H2677 C2700 0.950 1_554 S
H2678 C2701 0.950 1_554 S
H2679 C2703 0.950 . S
H2680 C2704 0.950 . S
H2681 C2705 0.951 . S
H2682 C2707 0.951 . S
H2683 C2709 0.950 . S
H2684 C2710 0.950 . S
H2685 C2712 0.950 . S
H2686 C2715 0.950 . S
H2687 C2716 0.950 . S
H2688 C2718 0.950 . S
H2689 C2719 0.950 . S
C2690 H2672 0.951 . S
C2690 C2691 1.366 . S
C2690 C2692 1.388 . S
C2691 C2690 1.366 . S
C2691 C2695 1.385 . S
C2692 H2673 0.951 . S
C2692 C2690 1.388 . S
C2692 C2693 1.366 . S
C2693 C2692 1.366 . S
C2693 C2694 1.414 . S
C2693 C2696 1.499 . S
C2694 H2674 0.950 1_556 S
C2694 C2693 1.414 . S
C2694 C2695 1.374 . S
C2695 H2675 0.950 1_556 S
C2695 C2691 1.385 . S
C2695 C2694 1.374 . S
C2696 C2693 1.499 . S
C2696 C2697 1.373 . S
C2696 C2698 1.389 . S
C2697 H2676 0.950 . S
C2697 C2696 1.373 . S
C2697 C2713 1.377 . S
C2698 C2696 1.389 . S
C2698 C2699 1.524 . S
C2698 C2712 1.377 . S
C2699 C2698 1.524 . S
C2699 C2700 1.397 . S
C2699 C2704 1.363 . S
C2700 H2677 0.950 1_556 S
C2700 C2699 1.397 . S
C2700 C2701 1.334 . S
C2701 H2678 0.950 1_556 S
C2701 C2700 1.334 . S
C2701 C2702 1.287 . S
C2702 C2701 1.287 . S
C2702 C2703 1.524 . S
C2702 H2721 0.913 . S
C2703 H2679 0.950 . S
C2703 C2702 1.524 . S
C2703 C2704 1.415 . S
C2704 H2680 0.950 . S
C2704 C2699 1.363 . S
C2704 C2703 1.415 . S
C2705 H2681 0.951 . S
C2705 C2706 1.366 1_554 S
C2705 C2707 1.388 . S
C2706 C2705 1.366 1_556 S
C2706 C2710 1.385 . S
C2707 H2682 0.951 . S
C2707 C2705 1.388 . S
C2707 C2708 1.366 1_554 S
C2708 C2707 1.366 1_556 S
C2708 C2709 1.414 . S
C2708 C2711 1.499 . S
C2709 H2683 0.950 . S
C2709 C2708 1.414 . S
C2709 C2710 1.374 . S
C2710 H2684 0.950 . S
C2710 C2706 1.385 . S
C2710 C2709 1.374 . S
C2711 C2708 1.499 . S
C2711 C2712 1.373 . S
C2711 C2713 1.389 . S
C2712 H2685 0.950 . S
C2712 C2698 1.377 . S
C2712 C2711 1.373 . S
C2713 C2697 1.377 . S
C2713 C2711 1.389 . S
C2713 C2714 1.524 . S
C2714 C2713 1.524 . S
C2714 C2715 1.397 . S
C2714 C2719 1.363 1_556 S
C2715 H2686 0.950 . S
C2715 C2714 1.397 . S
C2715 C2716 1.334 . S
C2716 H2687 0.950 . S
C2716 C2715 1.334 . S
C2716 C2717 1.287 . S
C2717 C2716 1.287 . S
C2717 C2718 1.524 1_556 S
C2717 H2720 0.999 . S
C2718 H2688 0.950 . S
C2718 C2717 1.524 1_554 S
C2718 C2719 1.415 . S
C2719 H2689 0.950 . S
C2719 C2714 1.363 1_554 S
C2719 C2718 1.415 . S
H2720 C2717 0.999 . S
H2721 C2702 0.913 . S
H2722 C2740 0.951 . S
H2723 C2742 0.951 . S
H2724 C2744 0.950 . S
H2725 C2745 0.950 . S
H2726 C2747 0.950 . S
H2727 C2750 0.950 . S
H2728 C2751 0.950 . S
H2729 C2753 0.950 . S
H2730 C2754 0.950 . S
H2731 C2755 0.951 . S
H2732 C2757 0.951 . S
H2733 C2759 0.950 . S
H2734 C2760 0.950 . S
H2735 C2762 0.950 . S
H2736 C2765 0.950 . S
H2737 C2766 0.950 . S
H2738 C2768 0.950 . S
H2739 C2769 0.950 . S
C2740 H2722 0.951 . S
C2740 C2741 1.366 . S
C2740 C2742 1.388 . S
C2741 C2740 1.366 . S
C2741 C2745 1.385 . S
C2742 H2723 0.951 . S
C2742 C2740 1.388 . S
C2742 C2743 1.366 . S
C2743 C2742 1.366 . S
C2743 C2744 1.414 . S
C2743 C2746 1.499 . S
C2744 H2724 0.950 . S
C2744 C2743 1.414 . S
C2744 C2745 1.374 . S
C2745 H2725 0.950 . S
C2745 C2741 1.385 . S
C2745 C2744 1.374 . S
C2746 C2743 1.499 . S
C2746 C2747 1.373 . S
C2746 C2748 1.389 . S
C2747 H2726 0.950 . S
C2747 C2746 1.373 . S
C2747 C2763 1.377 . S
C2748 C2746 1.389 . S
C2748 C2749 1.524 . S
C2748 C2762 1.377 . S
C2749 C2748 1.524 . S
C2749 C2750 1.397 . S
C2749 C2754 1.363 . S
C2750 H2727 0.950 . S
C2750 C2749 1.397 . S
C2750 C2751 1.334 . S
C2751 H2728 0.950 . S
C2751 C2750 1.334 . S
C2751 C2752 1.287 . S
C2752 C2751 1.287 . S
C2752 C2753 1.524 . S
C2752 H2771 0.913 . S
C2753 H2729 0.950 . S
C2753 C2752 1.524 . S
C2753 C2754 1.415 . S
C2754 H2730 0.950 . S
C2754 C2749 1.363 . S
C2754 C2753 1.415 . S
C2755 H2731 0.951 . S
C2755 C2756 1.366 . S
C2755 C2757 1.388 . S
C2756 C2755 1.366 . S
C2756 C2760 1.385 . S
C2757 H2732 0.951 . S
C2757 C2755 1.388 . S
C2757 C2758 1.366 . S
C2758 C2757 1.366 . S
C2758 C2759 1.414 . S
C2758 C2761 1.499 . S
C2759 H2733 0.950 . S
C2759 C2758 1.414 . S
C2759 C2760 1.374 . S
C2760 H2734 0.950 . S
C2760 C2756 1.385 . S
C2760 C2759 1.374 . S
C2761 C2758 1.499 . S
C2761 C2762 1.373 . S
C2761 C2763 1.389 . S
C2762 H2735 0.950 . S
C2762 C2748 1.377 . S
C2762 C2761 1.373 . S
C2763 C2747 1.377 . S
C2763 C2761 1.389 . S
C2763 C2764 1.524 . S
C2764 C2763 1.524 . S
C2764 C2765 1.397 . S
C2764 C2769 1.363 . S
C2765 H2736 0.950 . S
C2765 C2764 1.397 . S
C2765 C2766 1.334 . S
C2766 H2737 0.950 . S
C2766 C2765 1.334 . S
C2766 C2767 1.287 . S
C2767 C2766 1.287 . S
C2767 C2768 1.524 . S
C2767 H2770 0.999 . S
C2768 H2738 0.950 . S
C2768 C2767 1.524 . S
C2768 C2769 1.415 . S
C2769 H2739 0.950 . S
C2769 C2764 1.363 . S
C2769 C2768 1.415 . S
H2770 C2767 0.999 . S
H2771 C2752 0.913 . S
H2772 C2790 0.951 . S
H2773 C2792 0.951 . S
H2774 C2794 0.950 . S
H2775 C2795 0.950 . S
H2776 C2797 0.950 . S
H2777 C2800 0.950 . S
H2778 C2801 0.950 . S
H2779 C2803 0.950 . S
H2780 C2804 0.950 . S
H2781 C2805 0.951 . S
H2782 C2807 0.951 . S
H2783 C2809 0.950 . S
H2784 C2810 0.965 . S
H2785 C2812 0.950 1_556 S
H2786 C2815 0.950 . S
H2787 C2816 0.950 . S
H2788 C2818 0.950 . S
H2789 C2819 0.950 . S
C2790 H2772 0.951 . S
C2790 C2791 1.366 . S
C2790 C2792 1.388 . S
C2791 C2790 1.366 . S
C2791 C2795 1.385 . S
C2792 H2773 0.951 . S
C2792 C2790 1.388 . S
C2792 C2793 1.366 . S
C2793 C2792 1.366 . S
C2793 C2794 1.414 . S
C2793 C2796 1.499 . S
C2794 H2774 0.950 . S
C2794 C2793 1.414 . S
C2794 C2795 1.374 . S
C2795 H2775 0.950 . S
C2795 C2791 1.385 . S
C2795 C2794 1.374 . S
C2796 C2793 1.499 . S
C2796 C2797 1.373 . S
C2796 C2798 1.389 . S
C2797 H2776 0.950 . S
C2797 C2796 1.373 . S
C2797 C2813 1.377 . S
C2798 C2796 1.389 . S
C2798 C2799 1.524 1_554 S
C2798 C2812 1.377 . S
C2799 C2798 1.524 1_556 S
C2799 C2800 1.397 . S
C2799 C2804 1.363 . S
C2800 H2777 0.950 . S
C2800 C2799 1.397 . S
C2800 C2801 1.334 . S
C2801 H2778 0.950 . S
C2801 C2800 1.334 . S
C2801 C2802 1.287 . S
C2802 C2801 1.287 . S
C2802 C2803 1.524 . S
C2802 H2821 0.913 . S
C2803 H2779 0.950 . S
C2803 C2802 1.524 . S
C2803 C2804 1.415 . S
C2804 H2780 0.950 . S
C2804 C2799 1.363 . S
C2804 C2803 1.415 . S
C2805 H2781 0.951 . S
C2805 C2806 1.366 . S
C2805 C2807 1.388 . S
C2806 C2805 1.366 . S
C2806 C2810 1.385 . S
C2807 H2782 0.951 . S
C2807 C2805 1.388 . S
C2807 C2808 1.366 . S
C2808 C2807 1.366 . S
C2808 C2809 1.414 . S
C2808 C2811 1.499 . S
C2809 H2783 0.950 . S
C2809 C2808 1.414 . S
C2809 C2810 1.374 . S
C2810 H2784 0.965 . S
C2810 C2806 1.385 . S
C2810 C2809 1.374 . S
C2811 C2808 1.499 . S
C2811 C2812 1.373 . S
C2811 C2813 1.389 . S
C2812 H2785 0.950 1_554 S
C2812 C2798 1.377 . S
C2812 C2811 1.373 . S
C2813 C2797 1.377 . S
C2813 C2811 1.389 . S
C2813 C2814 1.524 . S
C2814 C2813 1.524 . S
C2814 C2815 1.397 . S
C2814 C2819 1.363 . S
C2815 H2786 0.950 . S
C2815 C2814 1.397 . S
C2815 C2816 1.334 . S
C2816 H2787 0.950 . S
C2816 C2815 1.334 . S
C2816 C2817 1.287 . S
C2817 C2816 1.287 . S
C2817 C2818 1.524 . S
C2817 H2820 0.999 . S
C2818 H2788 0.950 . S
C2818 C2817 1.524 . S
C2818 C2819 1.415 . S
C2819 H2789 0.950 . S
C2819 C2814 1.363 . S
C2819 C2818 1.415 . S
H2820 C2817 0.999 . S
H2821 C2802 0.913 . S
H2822 C2840 0.951 . S
H2823 C2842 0.951 . S
H2824 C2844 0.950 . S
H2825 C2845 0.950 . S
H2826 C2847 0.950 . S
H2827 C2850 0.950 1_565 S
H2828 C2851 0.950 . S
H2829 C2853 0.950 . S
H2830 C2854 0.950 . S
H2831 C2855 0.951 . S
H2832 C2857 0.951 . S
H2833 C2859 0.950 . S
H2834 C2860 0.950 . S
H2835 C2862 0.950 . S
H2836 C2865 0.950 . S
H2837 C2866 0.950 . S
H2838 C2868 0.950 . S
H2839 C2869 0.950 . S
C2840 H2822 0.951 . S
C2840 C2841 1.366 . S
C2840 C2842 1.388 . S
C2841 C2840 1.366 . S
C2841 C2845 1.385 1_545 S
C2842 H2823 0.951 . S
C2842 C2840 1.388 . S
C2842 C2843 1.366 1_545 S
C2843 C2842 1.366 1_565 S
C2843 C2844 1.414 . S
C2843 C2846 1.499 . S
C2844 H2824 0.950 . S
C2844 C2843 1.414 . S
C2844 C2845 1.374 . S
C2845 H2825 0.950 . S
C2845 C2841 1.385 1_565 S
C2845 C2844 1.374 . S
C2846 C2843 1.499 . S
C2846 C2847 1.373 . S
C2846 C2848 1.389 . S
C2847 H2826 0.950 . S
C2847 C2846 1.373 . S
C2847 C2863 1.377 . S
C2848 C2846 1.389 . S
C2848 C2849 1.524 1_565 S
C2848 C2862 1.377 . S
C2849 C2848 1.524 1_545 S
C2849 C2850 1.397 . S
C2849 C2854 1.363 . S
C2850 H2827 0.950 1_545 S
C2850 C2849 1.397 . S
C2850 C2851 1.334 . S
C2851 H2828 0.950 . S
C2851 C2850 1.334 . S
C2851 C2852 1.287 . S
C2852 C2851 1.287 . S
C2852 C2853 1.524 . S
C2852 H2871 0.913 . S
C2853 H2829 0.950 . S
C2853 C2852 1.524 . S
C2853 C2854 1.415 . S
C2854 H2830 0.950 . S
C2854 C2849 1.363 . S
C2854 C2853 1.415 . S
C2855 H2831 0.951 . S
C2855 C2856 1.366 . S
C2855 C2857 1.388 . S
C2856 C2855 1.366 . S
C2856 C2860 1.385 . S
C2857 H2832 0.951 . S
C2857 C2855 1.388 . S
C2857 C2858 1.366 . S
C2858 C2857 1.366 . S
C2858 C2859 1.414 . S
C2858 C2861 1.499 . S
C2859 H2833 0.950 . S
C2859 C2858 1.414 . S
C2859 C2860 1.374 . S
C2860 H2834 0.950 . S
C2860 C2856 1.385 . S
C2860 C2859 1.374 . S
C2861 C2858 1.499 . S
C2861 C2862 1.373 . S
C2861 C2863 1.389 . S
C2862 H2835 0.950 . S
C2862 C2848 1.377 . S
C2862 C2861 1.373 . S
C2863 C2847 1.377 . S
C2863 C2861 1.389 . S
C2863 C2864 1.524 . S
C2864 C2863 1.524 . S
C2864 C2865 1.397 . S
C2864 C2869 1.363 . S
C2865 H2836 0.950 . S
C2865 C2864 1.397 . S
C2865 C2866 1.334 . S
C2866 H2837 0.950 . S
C2866 C2865 1.334 . S
C2866 C2867 1.287 . S
C2867 C2866 1.287 . S
C2867 C2868 1.524 . S
C2867 H2870 0.999 . S
C2868 H2838 0.950 . S
C2868 C2867 1.524 . S
C2868 C2869 1.415 . S
C2869 H2839 0.950 . S
C2869 C2864 1.363 . S
C2869 C2868 1.415 . S
H2870 C2867 0.999 . S
H2871 C2852 0.913 . S
C506 C312 1.937 1_556 S
C491 C101 1.972 . S
C556 C325 1.025 . S
C541 C125 0.983 1_455 S
C591 C139 2.236 . S
C606 C345 2.093 . S
C656 C359 1.591 . S
C641 C82 1.731 . S
C706 C371 1.649 . S
C691 C196 1.666 . S
C756 C385 1.770 . S
C741 C234 1.781 . S
C791 C220 0.694 . S
C806 C395 0.656 . S
C856 C410 1.675 . S
C841 C173 1.696 . S
C891 C211 1.002 . S
C906 C424 0.973 . S
C956 C443 0.866 . S
C941 C182 0.860 . S
C991 C201 1.312 . S
C1006 C423 1.424 . S
C1056 C441 1.202 . S
C1041 C239 1.125 . S
C1091 C135 1.833 . S
C1106 C457 1.738 . S
C1141 C87 1.905 . S
C1156 C451 2.050 . S
C1191 C106 1.155 . S
C1206 C455 1.294 . S
C1241 C116 1.220 . S
C1256 C452 1.222 . S
C1291 C59 1.945 . S
C1306 C354 1.930 . S
C1341 C268 2.278 . S
C1356 C353 2.277 . S
C1406 C317 1.108 . S
C1391 C291 1.139 . S
C1456 C331 1.510 . S
C1441 C163 1.495 . S
C1491 C78 2.127 . S
C1506 C368 2.140 . S
C1556 C413 1.143 . S
C1541 C215 1.143 . S
C1606 C367 1.502 . S
C1591 C177 1.517 . S
C1656 C399 1.783 . S
C1641 C230 1.770 . S
C1706 C396 1.936 . S
C1691 C272 1.972 . S
C1741 C296 0.985 . S
C1756 C409 1.024 . S
C1791 C158 2.236 . S
C1806 C373 2.094 . S
C1856 C387 1.591 . S
C1841 C253 1.732 . S
C1891 C63 1.666 . S
C1906 C343 1.649 . S
C1956 C357 1.770 . S
C1941 C6 1.782 . S
C2006 C311 0.654 . S
C1991 C30 0.690 . S
C2056 C326 1.675 . S
C2041 C40 1.696 1_455 S
C2091 C21 1.004 . S
C2106 C438 0.974 . S
C2141 C49 0.859 . S
C2156 C429 0.867 . S
C2191 C68 1.313 . S
C2206 C437 1.424 . S
C2241 C11 1.125 1_556 S
C2256 C427 1.202 . S
C2306 C471 1.738 . S
C2291 C154 1.833 . S
C2356 C465 2.050 . S
C2341 C258 1.905 . S
C2406 C469 1.295 . S
C2391 C277 1.155 . S
C2441 C287 1.219 . S
C2456 C466 1.221 . S
C2491 C192 1.945 . S
C2506 C382 1.930 . S
C2556 C381 2.277 . S
C2541 C97 2.278 . S
C2606 C401 1.107 . S
C2591 C120 1.140 . S
C2656 C415 1.511 . S
C2641 C144 1.495 . S
C2691 C249 2.127 . S
C2706 C340 2.140 . S
C2756 C329 1.143 . S
C2741 C25 1.143 . S
C2791 C44 1.517 . S
C2806 C339 1.502 . S
C2856 C315 1.783 . S
C2841 C2 1.769 . S
