# Generated by pormake.
# Topology rtl, (3,6)-cn, num edge types: 1
# Building blocks:
#     Node 0, Type 0, BuildingBlock: CUQRIR_clean_linker_1, # of connection points: 3
#     Node 1, Type 0, BuildingBlock: CUQRIR_clean_linker_1, # of connection points: 3
#     Node 2, Type 0, BuildingBlock: CUQRIR_clean_linker_1, # of connection points: 3
#     Node 3, Type 0, BuildingBlock: CUQRIR_clean_linker_1, # of connection points: 3
#     Node 4, Type 1, BuildingBlock: FUNLAD_clean_sbu_0, # of connection points: 6
#     Node 5, Type 1, BuildingBlock: FUNLAD_clean_sbu_0, # of connection points: 6
#     Edge 6, Type (0, 1), BuildingBlock: XIVTED_clean_linker_0, # of connection points: 2
#     Edge 7, Type (0, 1), BuildingBlock: XIVTED_clean_linker_0, # of connection points: 2
#     Edge 8, Type (0, 1), BuildingBlock: XIVTED_clean_linker_0, # of connection points: 2
#     Edge 9, Type (0, 1), BuildingBlock: XIVTED_clean_linker_0, # of connection points: 2
#     Edge 10, Type (0, 1), BuildingBlock: XIVTED_clean_linker_0, # of connection points: 2
#     Edge 11, Type (0, 1), BuildingBlock: XIVTED_clean_linker_0, # of connection points: 2
#     Edge 12, Type (0, 1), BuildingBlock: XIVTED_clean_linker_0, # of connection points: 2
#     Edge 13, Type (0, 1), BuildingBlock: XIVTED_clean_linker_0, # of connection points: 2
#     Edge 14, Type (0, 1), BuildingBlock: XIVTED_clean_linker_0, # of connection points: 2
#     Edge 15, Type (0, 1), BuildingBlock: XIVTED_clean_linker_0, # of connection points: 2
#     Edge 16, Type (0, 1), BuildingBlock: XIVTED_clean_linker_0, # of connection points: 2
#     Edge 17, Type (0, 1), BuildingBlock: XIVTED_clean_linker_0, # of connection points: 2
# Relax obj value: 0.002
# Max RMSD: 0.037
# Mean RMSD: 0.031
data_MOF--net-rtl--node1-FUNLAD_clean_sbu_0--node2-CUQRIR_clean_linker_1--edge1-XIVTED_clean_linker_0
_symmetry_space_group_name_H-M    P1
_symmetry_Int_Tables_number       1
_symmetry_cell_setting            triclinic
loop_
_symmetry_equiv_pos_as_xyz
'x, y, z'
_cell_length_a     38.354299
_cell_length_b     38.336103
_cell_length_c     19.160619
_cell_angle_alpha  90.051923
_cell_angle_beta   91.052575
_cell_angle_gamma 89.98226
loop_
_atom_site_label
_atom_site_type_symbol
_atom_site_fract_x
_atom_site_fract_y
_atom_site_fract_z
_atom_type_partial_charge
C0 C 0.19277 0.81117 0.96423 0.0
N1 N 0.16774 0.83362 0.98484 0.0
N2 N 0.20384 0.79123 0.0185 0.0
C3 C 0.20606 0.8086 0.891 0.0
C4 C 0.1845 0.80212 0.07272 0.0
N5 N 0.16222 0.82764 0.05201 0.0
C6 C 0.18729 0.78789 0.14575 0.0
H7 H 0.18391 0.80942 0.85294 0.0
H8 H 0.22144 0.78453 0.88275 0.0
H9 H 0.22302 0.83138 0.8807 0.0
H10 H 0.21212 0.77372 0.15502 0.0
H11 H 0.16545 0.76948 0.15406 0.0
H12 H 0.18507 0.80933 0.18438 0.0
C13 C 0.68796 0.68834 0.57513 0.0
N14 N 0.66346 0.66505 0.55384 0.0
N15 N 0.70035 0.70623 0.51993 0.0
C16 C 0.69783 0.69549 0.65015 0.0
C17 C 0.68237 0.69309 0.46438 0.0
N18 N 0.65973 0.66827 0.48511 0.0
C19 C 0.6889 0.70253 0.38952 0.0
H20 H 0.70692 0.72276 0.65716 0.0
H21 H 0.71929 0.67763 0.66617 0.0
H22 H 0.67542 0.69078 0.68471 0.0
H23 H 0.71598 0.71195 0.38291 0.0
H24 H 0.67065 0.72363 0.3735 0.0
H25 H 0.68429 0.6798 0.35465 0.0
C26 C 0.80055 0.1823 0.06131 0.0
N27 N 0.82527 0.15948 0.04076 0.0
N28 N 0.78875 0.20146 0.00641 0.0
C29 C 0.79003 0.18785 0.13579 0.0
C30 C 0.80737 0.18963 0.95185 0.0
N31 N 0.82983 0.16433 0.97291 0.0
C32 C 0.80166 0.20084 0.87727 0.0
H33 H 0.76842 0.16973 0.14788 0.0
H34 H 0.78092 0.21497 0.14423 0.0
H35 H 0.8121 0.18233 0.17237 0.0
H36 H 0.82021 0.22211 0.86528 0.0
H37 H 0.77473 0.21066 0.86851 0.0
H38 H 0.80646 0.17888 0.84091 0.0
C39 C 0.31066 0.30079 0.45146 0.0
N40 N 0.33283 0.32626 0.47284 0.0
N41 N 0.2923 0.28858 0.50594 0.0
C42 C 0.30695 0.288 0.37743 0.0
C43 C 0.30388 0.30769 0.56108 0.0
N44 N 0.32827 0.33086 0.54077 0.0
C45 C 0.29138 0.30392 0.63466 0.0
H46 H 0.30718 0.31039 0.34075 0.0
H47 H 0.28275 0.27268 0.36889 0.0
H48 H 0.32952 0.27106 0.36546 0.0
H49 H 0.27715 0.27913 0.64249 0.0
H50 H 0.27352 0.32584 0.64633 0.0
H51 H 0.31378 0.30537 0.67205 0.0
C52 C 0.03149 0.96005 0.41069 0.0
N53 N 0.05514 0.05492 0.50917 0.0
C54 C 0.08923 0.04519 0.50798 0.0
C55 C 0.11549 0.07035 0.50641 0.0
C56 C 0.10663 0.10592 0.50631 0.0
C57 C 0.07119 0.11517 0.50766 0.0
C58 C 0.04577 0.08914 0.50897 0.0
Zn59 Zn 0.01743 0.01743 0.51122 0.0
C60 C 0.96018 0.03139 0.40824 0.0
N61 N 0.93881 0.9389 0.51596 0.0
C62 C 0.94811 0.90466 0.51586 0.0
C63 C 0.90474 0.94869 0.51735 0.0
C64 C 0.87843 0.92357 0.51881 0.0
C65 C 0.88722 0.88799 0.51858 0.0
C66 C 0.92264 0.87867 0.51706 0.0
Zn67 Zn 0.97655 0.97637 0.51393 0.0
O68 O 0.04361 0.98879 0.43355 0.0
C69 C 0.03376 0.96238 0.61692 0.0
O70 O 0.00345 0.94811 0.43581 0.0
H71 H 0.89792 0.97607 0.51751 0.0
H72 H 0.09609 0.01782 0.50805 0.0
H73 H 0.97536 0.89747 0.51464 0.0
O74 O 0.04554 0.99047 0.59117 0.0
O75 O 0.00508 0.95005 0.59353 0.0
H76 H 0.0185 0.09629 0.51004 0.0
O77 O 0.95041 0.00505 0.59204 0.0
O78 O 0.99053 0.04574 0.58888 0.0
O79 O 0.94838 0.00339 0.4343 0.0
O80 O 0.98893 0.04368 0.43132 0.0
C81 C 0.96257 0.03389 0.61439 0.0
H82 H 0.14242 0.06198 0.50442 0.0
H83 H 0.06313 0.14224 0.50862 0.0
H84 H 0.85152 0.932 0.52096 0.0
H85 H 0.93064 0.85159 0.51586 0.0
C86 C 0.46113 0.46157 0.90804 0.0
N87 N 0.55508 0.43903 0.01477 0.0
C88 C 0.54526 0.405 0.01033 0.0
C89 C 0.57031 0.37861 0.01002 0.0
C90 C 0.60588 0.38725 0.01459 0.0
C91 C 0.61524 0.42263 0.01933 0.0
C92 C 0.58931 0.44821 0.01924 0.0
Zn93 Zn 0.5175 0.47671 0.01403 0.0
C94 C 0.53266 0.5328 0.91215 0.0
N95 N 0.43829 0.55471 0.01144 0.0
C96 C 0.40411 0.54536 0.01325 0.0
C97 C 0.44798 0.58883 0.01017 0.0
C98 C 0.42285 0.61514 0.01103 0.0
C99 C 0.38734 0.6063 0.01337 0.0
C100 C 0.3781 0.57084 0.01429 0.0
Zn101 Zn 0.47592 0.51706 0.01209 0.0
O102 O 0.49027 0.45032 0.93145 0.0
C103 C 0.46135 0.46039 0.11399 0.0
O104 O 0.44827 0.48912 0.93398 0.0
H105 H 0.47531 0.59568 0.00866 0.0
H106 H 0.51791 0.39828 0.00671 0.0
H107 H 0.39699 0.51807 0.01439 0.0
O108 O 0.48941 0.44855 0.08893 0.0
O109 O 0.44929 0.48928 0.09161 0.0
H110 H 0.59652 0.47543 0.02279 0.0
O111 O 0.50389 0.54469 0.09019 0.0
O112 O 0.54395 0.50392 0.09654 0.0
O113 O 0.50334 0.54404 0.93256 0.0
O114 O 0.54529 0.5052 0.93915 0.0
C115 C 0.53176 0.53279 0.11795 0.0
H116 H 0.56186 0.35175 0.00523 0.0
H117 H 0.6423 0.4305 0.02388 0.0
H118 H 0.43117 0.64211 0.00922 0.0
H119 H 0.35109 0.56281 0.01697 0.0
H120 H 0.29769 0.2247 0.56286 0.0
H121 H 0.10593 0.16792 0.43466 0.0
H122 H 0.22807 0.29222 0.44772 0.0
H123 H 0.17019 0.10612 0.57465 0.0
H124 H 0.15128 0.21257 0.43409 0.0
H125 H 0.2524 0.17934 0.56272 0.0
C126 C 0.27271 0.22972 0.53757 0.0
C127 C 0.2662 0.26182 0.50531 0.0
C128 C 0.15545 0.18924 0.46495 0.0
C129 C 0.21455 0.21065 0.50443 0.0
C130 C 0.12947 0.16379 0.46562 0.0
C131 C 0.13416 0.13318 0.5049 0.0
C132 C 0.18646 0.18408 0.50365 0.0
C133 C 0.16557 0.12904 0.54287 0.0
C134 C 0.24693 0.20404 0.53742 0.0
C135 C 0.23373 0.26755 0.47291 0.0
N136 N 0.19049 0.15419 0.5413 0.0
N137 N 0.20902 0.24216 0.47319 0.0
H138 H 0.19818 0.72826 0.95762 0.0
H139 H 0.38918 0.66834 0.08491 0.0
H140 H 0.26775 0.79338 0.07856 0.0
H141 H 0.32346 0.60725 0.94625 0.0
H142 H 0.34442 0.71359 0.08644 0.0
H143 H 0.24296 0.68239 0.95634 0.0
C144 C 0.22304 0.73264 0.98387 0.0
C145 C 0.22968 0.76421 0.01821 0.0
C146 C 0.33979 0.69029 0.05565 0.0
C147 C 0.28077 0.71245 0.01744 0.0
C148 C 0.36544 0.6645 0.05441 0.0
C149 C 0.36017 0.63392 0.01522 0.0
C150 C 0.30853 0.68552 0.01753 0.0
C151 C 0.32853 0.63016 0.97788 0.0
C152 C 0.24853 0.70667 0.98323 0.0
C153 C 0.26199 0.76913 0.05177 0.0
N154 N 0.30395 0.65565 0.97993 0.0
N155 N 0.28643 0.74347 0.05063 0.0
H156 H 0.69548 0.77043 0.46308 0.0
H157 H 0.88781 0.82581 0.58966 0.0
H158 H 0.76506 0.70223 0.57717 0.0
H159 H 0.8236 0.88809 0.45044 0.0
H160 H 0.84227 0.78134 0.59021 0.0
H161 H 0.74112 0.81525 0.46247 0.0
C162 C 0.72051 0.76502 0.48779 0.0
C163 C 0.72677 0.73283 0.52012 0.0
C164 C 0.83816 0.80473 0.55951 0.0
C165 C 0.77886 0.78369 0.52044 0.0
C166 C 0.86425 0.83008 0.55885 0.0
C167 C 0.85962 0.86079 0.51984 0.0
C168 C 0.8071 0.81009 0.52106 0.0
C169 C 0.82818 0.8651 0.48204 0.0
C170 C 0.74647 0.7905 0.48768 0.0
C171 C 0.75933 0.72695 0.55228 0.0
N172 N 0.80316 0.84006 0.48361 0.0
N173 N 0.78421 0.75216 0.55168 0.0
H174 H 0.79485 0.26693 0.9565 0.0
H175 H 0.60432 0.32316 0.07823 0.0
H176 H 0.72359 0.19701 0.05645 0.0
H177 H 0.66927 0.388 0.95012 0.0
H178 H 0.64868 0.27758 0.07527 0.0
H179 H 0.75017 0.31273 0.95775 0.0
C180 C 0.76963 0.26133 0.97834 0.0
C181 C 0.76266 0.22839 0.00635 0.0
C182 C 0.65322 0.30177 0.04775 0.0
C183 C 0.7117 0.28038 0.00892 0.0
C184 C 0.62781 0.32778 0.04911 0.0
C185 C 0.63296 0.35951 0.0142 0.0
C186 C 0.68416 0.30748 0.01144 0.0
C187 C 0.6643 0.36419 0.97855 0.0
C188 C 0.74422 0.28738 0.97934 0.0
C189 C 0.72988 0.22228 0.03496 0.0
N190 N 0.68869 0.33847 0.97809 0.0
N191 N 0.70558 0.24807 0.03564 0.0
H192 H 0.10944 0.80272 0.12864 0.0
H193 H 0.08652 0.9825 0.33379 0.0
H194 H 0.16383 0.89684 0.07544 0.0
H195 H 0.01736 0.89473 0.35878 0.0
H196 H 0.11578 0.95119 0.24054 0.0
H197 H 0.07534 0.83562 0.21371 0.0
C198 C 0.11387 0.83044 0.13482 0.0
C199 C 0.13939 0.84727 0.09588 0.0
C200 C 0.09412 0.93881 0.26622 0.0
C201 C 0.10104 0.88499 0.19274 0.0
C202 C 0.07749 0.95661 0.31975 0.0
C203 C 0.0495 0.94117 0.35438 0.0
C204 C 0.08294 0.90516 0.24744 0.0
C205 C 0.03885 0.90763 0.3336 0.0
C206 C 0.09449 0.84921 0.18307 0.0
C207 C 0.1442 0.88319 0.10471 0.0
N208 N 0.0557 0.89068 0.28173 0.0
N209 N 0.12544 0.90087 0.15278 0.0
H210 H 0.59354 0.66439 0.566 0.0
H211 H 0.59892 0.52023 0.86847 0.0
H212 H 0.68794 0.61587 0.64214 0.0
H213 H 0.50985 0.58668 0.82865 0.0
H214 H 0.62997 0.54999 0.77581 0.0
H215 H 0.56016 0.63045 0.65093 0.0
C216 C 0.60701 0.64614 0.60015 0.0
C217 C 0.6433 0.64274 0.59783 0.0
C218 C 0.60364 0.55808 0.78731 0.0
C219 C 0.60585 0.60431 0.69479 0.0
C220 C 0.58586 0.54109 0.84023 0.0
C221 C 0.55175 0.55108 0.8566 0.0
C222 C 0.58717 0.58511 0.74991 0.0
C223 C 0.53617 0.57826 0.81807 0.0
C224 C 0.58815 0.62706 0.6488 0.0
C225 C 0.65992 0.61915 0.64311 0.0
N226 N 0.55399 0.59431 0.76642 0.0
N227 N 0.64109 0.60085 0.68993 0.0
H228 H 0.80088 0.10809 0.12204 0.0
H229 H 0.98227 0.08586 0.32794 0.0
H230 H 0.89493 0.16017 0.06169 0.0
H231 H 0.89468 0.01695 0.35653 0.0
H232 H 0.95043 0.11429 0.23208 0.0
H233 H 0.83453 0.07446 0.20901 0.0
C234 C 0.82878 0.11197 0.12689 0.0
C235 C 0.84538 0.13669 0.08534 0.0
C236 C 0.93824 0.09286 0.25914 0.0
C237 C 0.88392 0.09909 0.18466 0.0
C238 C 0.95632 0.07673 0.31415 0.0
C239 C 0.94107 0.04905 0.35053 0.0
C240 C 0.90449 0.08149 0.24073 0.0
C241 C 0.90744 0.03821 0.33003 0.0
C242 C 0.84796 0.09293 0.17632 0.0
C243 C 0.88147 0.14108 0.09288 0.0
N244 N 0.89022 0.05458 0.27677 0.0
N245 N 0.89957 0.12271 0.14223 0.0
H246 H 0.30372 0.38324 0.61966 0.0
H247 H 0.48429 0.40682 0.82904 0.0
H248 H 0.39769 0.32955 0.56409 0.0
H249 H 0.39573 0.47485 0.85516 0.0
H250 H 0.45301 0.37744 0.7333 0.0
H251 H 0.33699 0.41715 0.70677 0.0
C252 C 0.33152 0.37898 0.62572 0.0
C253 C 0.3482 0.35373 0.58552 0.0
C254 C 0.4405 0.39889 0.75984 0.0
C255 C 0.38636 0.39176 0.68485 0.0
C256 C 0.45827 0.41556 0.81472 0.0
C257 C 0.44257 0.44327 0.85036 0.0
C258 C 0.40666 0.40979 0.74083 0.0
C259 C 0.40886 0.45359 0.82928 0.0
C260 C 0.3505 0.39821 0.67518 0.0
C261 C 0.38419 0.34901 0.59435 0.0
N262 N 0.392 0.43674 0.77617 0.0
N263 N 0.40211 0.36762 0.64368 0.0
H264 H 0.66129 0.59828 0.47135 0.0
H265 H 0.51668 0.59836 0.16434 0.0
H266 H 0.60924 0.69078 0.39682 0.0
H267 H 0.58633 0.51171 0.20284 0.0
H268 H 0.54517 0.63031 0.25956 0.0
H269 H 0.62828 0.56353 0.38456 0.0
C270 C 0.64244 0.61102 0.4372 0.0
C271 C 0.63778 0.64719 0.44049 0.0
C272 C 0.55424 0.60431 0.24724 0.0
C273 C 0.60041 0.60821 0.34141 0.0
C274 C 0.53798 0.58601 0.19284 0.0
C275 C 0.54924 0.55233 0.17531 0.0
C276 C 0.58186 0.5888 0.28496 0.0
C277 C 0.57694 0.53768 0.21428 0.0
C278 C 0.62388 0.59139 0.3875 0.0
C279 C 0.61346 0.66288 0.39516 0.0
N280 N 0.5923 0.55601 0.26737 0.0
N281 N 0.59571 0.64332 0.34728 0.0
H282 H 0.82976 0.09456 0.95555 0.0
H283 H 0.97656 0.09968 0.66331 0.0
H284 H 0.8804 0.18888 0.89043 0.0
H285 H 0.9082 0.01177 0.69384 0.0
H286 H 0.94683 0.1308 0.75648 0.0
H287 H 0.86422 0.06144 0.87117 0.0
C288 C 0.84857 0.10807 0.92394 0.0
C289 C 0.85238 0.14428 0.92917 0.0
C290 C 0.93837 0.10469 0.7428 0.0
C291 C 0.89147 0.10709 0.8327 0.0
C292 C 0.95533 0.0869 0.68962 0.0
C293 C 0.94474 0.05312 0.67047 0.0
C294 C 0.91081 0.08851 0.77757 0.0
C295 C 0.9171 0.03784 0.70655 0.0
C296 C 0.86798 0.08935 0.87558 0.0
C297 C 0.87675 0.16094 0.88709 0.0
N298 N 0.90112 0.05563 0.75839 0.0
N299 N 0.89535 0.14223 0.84038 0.0
H300 H 0.32912 0.39572 0.45366 0.0
H301 H 0.4767 0.39516 0.16308 0.0
H302 H 0.38524 0.30384 0.39236 0.0
H303 H 0.40579 0.48122 0.19237 0.0
H304 H 0.44783 0.36348 0.25602 0.0
H305 H 0.362 0.43002 0.36862 0.0
C306 C 0.34878 0.38303 0.4227 0.0
C307 C 0.35457 0.34713 0.42912 0.0
C308 C 0.43857 0.38929 0.24217 0.0
C309 C 0.39186 0.38561 0.33199 0.0
C310 C 0.45504 0.40743 0.18904 0.0
C311 C 0.44356 0.44088 0.16965 0.0
C312 C 0.41051 0.40472 0.27667 0.0
C313 C 0.41539 0.45543 0.20534 0.0
C314 C 0.36728 0.4024 0.37398 0.0
C315 C 0.37998 0.33149 0.38798 0.0
N316 N 0.39984 0.43727 0.2572 0.0
N317 N 0.39767 0.3508 0.34093 0.0
H318 H 0.19165 0.88735 0.90866 0.0
H319 H 0.01195 0.90701 0.69498 0.0
H320 H 0.09858 0.83097 0.95943 0.0
H321 H 0.09869 0.97749 0.67104 0.0
H322 H 0.04348 0.87839 0.79091 0.0
H323 H 0.15821 0.92104 0.82143 0.0
C324 C 0.16401 0.88245 0.90156 0.0
C325 C 0.14764 0.85648 0.94041 0.0
C326 C 0.05557 0.9002 0.76487 0.0
C327 C 0.10935 0.89428 0.84098 0.0
C328 C 0.03766 0.91646 0.70981 0.0
C329 C 0.05275 0.94463 0.6747 0.0
C330 C 0.08899 0.91197 0.78469 0.0
C331 C 0.08606 0.95584 0.69653 0.0
C332 C 0.14494 0.90156 0.85203 0.0
C333 C 0.11185 0.85098 0.93028 0.0
N334 N 0.10312 0.93936 0.74988 0.0
N335 N 0.09389 0.86949 0.88095 0.0
loop_
_geom_bond_atom_site_label_1
_geom_bond_atom_site_label_2
_geom_bond_distance
_geom_bond_site_symmetry_2
_ccdc_geom_bond_type
C0 N1 1.317 . S
C0 N2 1.348 1_556 S
C0 C3 1.485 . S
N1 C0 1.317 . S
N1 N5 1.370 1_556 S
N2 C0 1.348 1_554 S
N2 C4 1.346 . S
C3 C0 1.485 . S
C3 H7 0.960 . S
C3 H8 0.961 . S
C3 H9 0.960 . S
C4 N2 1.346 . S
C4 N5 1.307 . S
C4 C6 1.486 . S
N5 N1 1.370 1_554 S
N5 C4 1.307 . S
C6 C4 1.486 . S
C6 H10 0.960 . S
C6 H11 0.960 . S
C6 H12 0.959 . S
H7 C3 0.960 . S
H8 C3 0.961 . S
H9 C3 0.960 . S
H10 C6 0.960 . S
H11 C6 0.960 . S
H12 C6 0.959 . S
C13 N14 1.317 . S
C13 N15 1.348 . S
C13 C16 1.485 . S
N14 C13 1.317 . S
N14 N18 1.370 . S
N15 C13 1.348 . S
N15 C17 1.346 . S
C16 C13 1.485 . S
C16 H20 0.960 . S
C16 H21 0.961 . S
C16 H22 0.960 . S
C17 N15 1.346 . S
C17 N18 1.307 . S
C17 C19 1.486 . S
N18 N14 1.370 . S
N18 C17 1.307 . S
C19 C17 1.486 . S
C19 H23 0.960 . S
C19 H24 0.960 . S
C19 H25 0.959 . S
H20 C16 0.960 . S
H21 C16 0.961 . S
H22 C16 0.960 . S
H23 C19 0.960 . S
H24 C19 0.960 . S
H25 C19 0.959 . S
C26 N27 1.317 . S
C26 N28 1.348 . S
C26 C29 1.485 . S
N27 C26 1.317 . S
N27 N31 1.370 1_554 S
N28 C26 1.348 . S
N28 C30 1.346 1_554 S
C29 C26 1.485 . S
C29 H33 0.960 . S
C29 H34 0.961 . S
C29 H35 0.960 . S
C30 N28 1.346 1_556 S
C30 N31 1.307 . S
C30 C32 1.486 . S
N31 N27 1.370 1_556 S
N31 C30 1.307 . S
C32 C30 1.486 . S
C32 H36 0.960 . S
C32 H37 0.960 . S
C32 H38 0.959 . S
H33 C29 0.960 . S
H34 C29 0.961 . S
H35 C29 0.960 . S
H36 C32 0.960 . S
H37 C32 0.960 . S
H38 C32 0.959 . S
C39 N40 1.317 . S
C39 N41 1.348 . S
C39 C42 1.485 . S
N40 C39 1.317 . S
N40 N44 1.370 . S
N41 C39 1.348 . S
N41 C43 1.346 . S
C42 C39 1.485 . S
C42 H46 0.960 . S
C42 H47 0.961 . S
C42 H48 0.960 . S
C43 N41 1.346 . S
C43 N44 1.307 . S
C43 C45 1.486 . S
N44 N40 1.370 . S
N44 C43 1.307 . S
C45 C43 1.486 . S
C45 H49 0.960 . S
C45 H50 0.960 . S
C45 H51 0.959 . S
H46 C42 0.960 . S
H47 C42 0.961 . S
H48 C42 0.960 . S
H49 C45 0.960 . S
H50 C45 0.960 . S
H51 C45 0.959 . S
C52 O68 1.251 . S
C52 O70 1.254 . S
N53 C54 1.333 . S
N53 C58 1.307 . S
N53 Zn59 2.020 . S
C54 N53 1.333 . S
C54 C55 1.379 . S
C54 H72 0.952 . S
C55 C54 1.379 . S
C55 C56 1.390 . S
C55 H82 0.949 . S
C56 C55 1.390 . S
C56 C57 1.357 . S
C57 C56 1.357 . S
C57 C58 1.370 . S
C57 H83 0.950 . S
C58 N53 1.307 . S
C58 C57 1.370 . S
C58 H76 0.948 . S
Zn59 N53 2.020 . S
Zn59 O68 2.039 1_545 S
Zn59 O74 2.034 1_545 S
Zn59 O78 2.025 1_455 S
Zn59 O80 2.024 1_455 S
C60 O79 1.246 . S
C60 O80 1.249 . S
N61 C62 1.307 . S
N61 C63 1.333 . S
N61 Zn67 2.020 . S
C62 N61 1.307 . S
C62 C66 1.370 . S
C62 H73 0.948 . S
C63 N61 1.333 . S
C63 C64 1.379 . S
C63 H71 0.952 . S
C64 C63 1.379 . S
C64 C65 1.390 . S
C64 H84 0.949 . S
C65 C64 1.390 . S
C65 C66 1.357 . S
C66 C62 1.370 . S
C66 C65 1.357 . S
C66 H85 0.950 . S
Zn67 N61 2.020 . S
Zn67 O70 2.025 1_655 S
Zn67 O75 2.024 1_655 S
Zn67 O77 2.039 1_565 S
Zn67 O79 2.034 1_565 S
O68 C52 1.251 . S
O68 Zn59 2.039 1_565 S
C69 O74 1.246 . S
C69 O75 1.249 . S
O70 C52 1.254 . S
O70 Zn67 2.025 1_455 S
H71 C63 0.952 . S
H72 C54 0.952 . S
H73 C62 0.948 . S
O74 Zn59 2.034 1_565 S
O74 C69 1.246 . S
O75 Zn67 2.024 1_455 S
O75 C69 1.249 . S
H76 C58 0.948 . S
O77 Zn67 2.039 1_545 S
O77 C81 1.251 . S
O78 Zn59 2.025 1_655 S
O78 C81 1.254 . S
O79 C60 1.246 . S
O79 Zn67 2.034 1_545 S
O80 Zn59 2.024 1_655 S
O80 C60 1.249 . S
C81 O77 1.251 . S
C81 O78 1.254 . S
H82 C55 0.949 . S
H83 C57 0.950 . S
H84 C64 0.949 . S
H85 C66 0.950 . S
C86 O102 1.251 . S
C86 O104 1.254 . S
N87 C88 1.333 1_554 S
N87 C92 1.307 . S
N87 Zn93 2.020 . S
C88 N87 1.333 1_556 S
C88 C89 1.379 . S
C88 H106 0.952 . S
C89 C88 1.379 . S
C89 C90 1.390 1_556 S
C89 H116 0.949 . S
C90 C89 1.390 1_554 S
C90 C91 1.357 . S
C91 C90 1.357 . S
C91 C92 1.370 . S
C91 H117 0.950 . S
C92 N87 1.307 . S
C92 C91 1.370 . S
C92 H110 0.948 . S
Zn93 N87 2.020 . S
Zn93 O102 2.039 1_554 S
Zn93 O108 2.034 . S
Zn93 O112 2.025 . S
Zn93 O114 2.024 1_554 S
C94 O113 1.246 . S
C94 O114 1.249 . S
N95 C96 1.307 1_554 S
N95 C97 1.333 . S
N95 Zn101 2.020 . S
C96 N95 1.307 1_556 S
C96 C100 1.370 . S
C96 H107 0.948 . S
C97 N95 1.333 . S
C97 C98 1.379 . S
C97 H105 0.952 . S
C98 C97 1.379 . S
C98 C99 1.390 . S
C98 H118 0.949 . S
C99 C98 1.390 . S
C99 C100 1.357 1_554 S
C100 C96 1.370 . S
C100 C99 1.357 1_556 S
C100 H119 0.950 . S
Zn101 N95 2.020 . S
Zn101 O104 2.025 1_554 S
Zn101 O109 2.024 . S
Zn101 O111 2.039 . S
Zn101 O113 2.034 1_554 S
O102 C86 1.251 . S
O102 Zn93 2.039 1_556 S
C103 O108 1.246 . S
C103 O109 1.249 . S
O104 C86 1.254 . S
O104 Zn101 2.025 1_556 S
H105 C97 0.952 . S
H106 C88 0.952 . S
H107 C96 0.948 . S
O108 Zn93 2.034 . S
O108 C103 1.246 . S
O109 Zn101 2.024 . S
O109 C103 1.249 . S
H110 C92 0.948 . S
O111 Zn101 2.039 . S
O111 C115 1.251 . S
O112 Zn93 2.025 . S
O112 C115 1.254 . S
O113 C94 1.246 . S
O113 Zn101 2.034 1_556 S
O114 Zn93 2.024 1_556 S
O114 C94 1.249 . S
C115 O111 1.251 . S
C115 O112 1.254 . S
H116 C89 0.949 . S
H117 C91 0.950 . S
H118 C98 0.949 . S
H119 C100 0.950 . S
H120 C126 0.930 . S
H121 C130 0.930 . S
H122 C135 0.929 . S
H123 C133 0.929 . S
H124 C128 0.929 . S
H125 C134 0.929 . S
C126 H120 0.930 . S
C126 C127 1.367 . S
C126 C134 1.378 . S
C127 C126 1.367 . S
C127 C135 1.433 . S
C128 H124 0.929 . S
C128 C130 1.378 . S
C128 C132 1.350 . S
C129 C132 1.463 . S
C129 C134 1.350 . S
C129 N137 1.427 . S
C130 H121 0.930 . S
C130 C128 1.378 . S
C130 C131 1.367 . S
C131 C130 1.367 . S
C131 C133 1.433 . S
C132 C128 1.350 . S
C132 C129 1.463 . S
C132 N136 1.427 . S
C133 H123 0.929 . S
C133 C131 1.433 . S
C133 N136 1.384 . S
C134 H125 0.929 . S
C134 C126 1.378 . S
C134 C129 1.350 . S
C135 H122 0.929 . S
C135 C127 1.433 . S
C135 N137 1.384 . S
N136 C132 1.427 . S
N136 C133 1.384 . S
N137 C129 1.427 . S
N137 C135 1.384 . S
H138 C144 0.930 . S
H139 C148 0.930 . S
H140 C153 0.929 . S
H141 C151 0.929 . S
H142 C146 0.929 . S
H143 C152 0.929 . S
C144 H138 0.930 . S
C144 C145 1.367 1_556 S
C144 C152 1.378 . S
C145 C144 1.367 1_554 S
C145 C153 1.433 . S
C146 H142 0.929 . S
C146 C148 1.378 . S
C146 C150 1.350 . S
C147 C150 1.463 . S
C147 C152 1.350 1_554 S
C147 N155 1.427 . S
C148 H139 0.930 . S
C148 C146 1.378 . S
C148 C149 1.367 . S
C149 C148 1.367 . S
C149 C151 1.433 1_554 S
C150 C146 1.350 . S
C150 C147 1.463 . S
C150 N154 1.427 1_554 S
C151 H141 0.929 . S
C151 C149 1.433 1_556 S
C151 N154 1.384 . S
C152 H143 0.929 . S
C152 C144 1.378 . S
C152 C147 1.350 1_556 S
C153 H140 0.929 . S
C153 C145 1.433 . S
C153 N155 1.384 . S
N154 C150 1.427 1_556 S
N154 C151 1.384 . S
N155 C147 1.427 . S
N155 C153 1.384 . S
H156 C162 0.930 . S
H157 C166 0.930 . S
H158 C171 0.929 . S
H159 C169 0.929 . S
H160 C164 0.929 . S
H161 C170 0.929 . S
C162 H156 0.930 . S
C162 C163 1.367 . S
C162 C170 1.378 . S
C163 C162 1.367 . S
C163 C171 1.433 . S
C164 H160 0.929 . S
C164 C166 1.378 . S
C164 C168 1.350 . S
C165 C168 1.463 . S
C165 C170 1.350 . S
C165 N173 1.427 . S
C166 H157 0.930 . S
C166 C164 1.378 . S
C166 C167 1.367 . S
C167 C166 1.367 . S
C167 C169 1.433 . S
C168 C164 1.350 . S
C168 C165 1.463 . S
C168 N172 1.427 . S
C169 H159 0.929 . S
C169 C167 1.433 . S
C169 N172 1.384 . S
C170 H161 0.929 . S
C170 C162 1.378 . S
C170 C165 1.350 . S
C171 H158 0.929 . S
C171 C163 1.433 . S
C171 N173 1.384 . S
N172 C168 1.427 . S
N172 C169 1.384 . S
N173 C165 1.427 . S
N173 C171 1.384 . S
H174 C180 0.930 . S
H175 C184 0.930 . S
H176 C189 0.929 . S
H177 C187 0.929 . S
H178 C182 0.929 . S
H179 C188 0.929 . S
C180 H174 0.930 . S
C180 C181 1.367 1_556 S
C180 C188 1.378 . S
C181 C180 1.367 1_554 S
C181 C189 1.433 . S
C182 H178 0.929 . S
C182 C184 1.378 . S
C182 C186 1.350 . S
C183 C186 1.463 . S
C183 C188 1.350 1_554 S
C183 N191 1.427 . S
C184 H175 0.930 . S
C184 C182 1.378 . S
C184 C185 1.367 . S
C185 C184 1.367 . S
C185 C187 1.433 1_554 S
C186 C182 1.350 . S
C186 C183 1.463 . S
C186 N190 1.427 1_554 S
C187 H177 0.929 . S
C187 C185 1.433 1_556 S
C187 N190 1.384 . S
C188 H179 0.929 . S
C188 C180 1.378 . S
C188 C183 1.350 1_556 S
C189 H176 0.929 . S
C189 C181 1.433 . S
C189 N191 1.384 . S
N190 C186 1.427 1_556 S
N190 C187 1.384 . S
N191 C183 1.427 . S
N191 C189 1.384 . S
H192 C198 0.930 . S
H193 C202 0.930 . S
H194 C207 0.929 . S
H195 C205 0.929 . S
H196 C200 0.929 . S
H197 C206 0.929 . S
C198 H192 0.930 . S
C198 C199 1.367 . S
C198 C206 1.378 . S
C199 C198 1.367 . S
C199 C207 1.433 . S
C200 H196 0.929 . S
C200 C202 1.378 . S
C200 C204 1.350 . S
C201 C204 1.463 . S
C201 C206 1.350 . S
C201 N209 1.427 . S
C202 H193 0.930 . S
C202 C200 1.378 . S
C202 C203 1.367 . S
C203 C202 1.367 . S
C203 C205 1.433 . S
C204 C200 1.350 . S
C204 C201 1.463 . S
C204 N208 1.427 . S
C205 H195 0.929 . S
C205 C203 1.433 . S
C205 N208 1.384 . S
C206 H197 0.929 . S
C206 C198 1.378 . S
C206 C201 1.350 . S
C207 H194 0.929 . S
C207 C199 1.433 . S
C207 N209 1.384 . S
N208 C204 1.427 . S
N208 C205 1.384 . S
N209 C201 1.427 . S
N209 C207 1.384 . S
H210 C216 0.930 . S
H211 C220 0.930 . S
H212 C225 0.929 . S
H213 C223 0.929 . S
H214 C218 0.929 . S
H215 C224 0.929 . S
C216 H210 0.930 . S
C216 C217 1.367 . S
C216 C224 1.378 . S
C217 C216 1.367 . S
C217 C225 1.433 . S
C218 H214 0.929 . S
C218 C220 1.378 . S
C218 C222 1.350 . S
C219 C222 1.463 . S
C219 C224 1.350 . S
C219 N227 1.427 . S
C220 H211 0.930 . S
C220 C218 1.378 . S
C220 C221 1.367 . S
C221 C220 1.367 . S
C221 C223 1.433 . S
C222 C218 1.350 . S
C222 C219 1.463 . S
C222 N226 1.427 . S
C223 H213 0.929 . S
C223 C221 1.433 . S
C223 N226 1.384 . S
C224 H215 0.929 . S
C224 C216 1.378 . S
C224 C219 1.350 . S
C225 H212 0.929 . S
C225 C217 1.433 . S
C225 N227 1.384 . S
N226 C222 1.427 . S
N226 C223 1.384 . S
N227 C219 1.427 . S
N227 C225 1.384 . S
H228 C234 0.930 . S
H229 C238 0.930 . S
H230 C243 0.929 . S
H231 C241 0.929 . S
H232 C236 0.929 . S
H233 C242 0.929 . S
C234 H228 0.930 . S
C234 C235 1.367 . S
C234 C242 1.378 . S
C235 C234 1.367 . S
C235 C243 1.433 . S
C236 H232 0.929 . S
C236 C238 1.378 . S
C236 C240 1.350 . S
C237 C240 1.463 . S
C237 C242 1.350 . S
C237 N245 1.427 . S
C238 H229 0.930 . S
C238 C236 1.378 . S
C238 C239 1.367 . S
C239 C238 1.367 . S
C239 C241 1.433 . S
C240 C236 1.350 . S
C240 C237 1.463 . S
C240 N244 1.427 . S
C241 H231 0.929 . S
C241 C239 1.433 . S
C241 N244 1.384 . S
C242 H233 0.929 . S
C242 C234 1.378 . S
C242 C237 1.350 . S
C243 H230 0.929 . S
C243 C235 1.433 . S
C243 N245 1.384 . S
N244 C240 1.427 . S
N244 C241 1.384 . S
N245 C237 1.427 . S
N245 C243 1.384 . S
H246 C252 0.930 . S
H247 C256 0.930 . S
H248 C261 0.929 . S
H249 C259 0.929 . S
H250 C254 0.929 . S
H251 C260 0.929 . S
C252 H246 0.930 . S
C252 C253 1.367 . S
C252 C260 1.378 . S
C253 C252 1.367 . S
C253 C261 1.433 . S
C254 H250 0.929 . S
C254 C256 1.378 . S
C254 C258 1.350 . S
C255 C258 1.463 . S
C255 C260 1.350 . S
C255 N263 1.427 . S
C256 H247 0.930 . S
C256 C254 1.378 . S
C256 C257 1.367 . S
C257 C256 1.367 . S
C257 C259 1.433 . S
C258 C254 1.350 . S
C258 C255 1.463 . S
C258 N262 1.427 . S
C259 H249 0.929 . S
C259 C257 1.433 . S
C259 N262 1.384 . S
C260 H251 0.929 . S
C260 C252 1.378 . S
C260 C255 1.350 . S
C261 H248 0.929 . S
C261 C253 1.433 . S
C261 N263 1.384 . S
N262 C258 1.427 . S
N262 C259 1.384 . S
N263 C255 1.427 . S
N263 C261 1.384 . S
H264 C270 0.930 . S
H265 C274 0.930 . S
H266 C279 0.929 . S
H267 C277 0.929 . S
H268 C272 0.929 . S
H269 C278 0.929 . S
C270 H264 0.930 . S
C270 C271 1.367 . S
C270 C278 1.378 . S
C271 C270 1.367 . S
C271 C279 1.433 . S
C272 H268 0.929 . S
C272 C274 1.378 . S
C272 C276 1.350 . S
C273 C276 1.463 . S
C273 C278 1.350 . S
C273 N281 1.427 . S
C274 H265 0.930 . S
C274 C272 1.378 . S
C274 C275 1.367 . S
C275 C274 1.367 . S
C275 C277 1.433 . S
C276 C272 1.350 . S
C276 C273 1.463 . S
C276 N280 1.427 . S
C277 H267 0.929 . S
C277 C275 1.433 . S
C277 N280 1.384 . S
C278 H269 0.929 . S
C278 C270 1.378 . S
C278 C273 1.350 . S
C279 H266 0.929 . S
C279 C271 1.433 . S
C279 N281 1.384 . S
N280 C276 1.427 . S
N280 C277 1.384 . S
N281 C273 1.427 . S
N281 C279 1.384 . S
H282 C288 0.930 . S
H283 C292 0.930 . S
H284 C297 0.929 . S
H285 C295 0.929 . S
H286 C290 0.929 . S
H287 C296 0.929 . S
C288 H282 0.930 . S
C288 C289 1.367 . S
C288 C296 1.378 . S
C289 C288 1.367 . S
C289 C297 1.433 . S
C290 H286 0.929 . S
C290 C292 1.378 . S
C290 C294 1.350 . S
C291 C294 1.463 . S
C291 C296 1.350 . S
C291 N299 1.427 . S
C292 H283 0.930 . S
C292 C290 1.378 . S
C292 C293 1.367 . S
C293 C292 1.367 . S
C293 C295 1.433 . S
C294 C290 1.350 . S
C294 C291 1.463 . S
C294 N298 1.427 . S
C295 H285 0.929 . S
C295 C293 1.433 . S
C295 N298 1.384 . S
C296 H287 0.929 . S
C296 C288 1.378 . S
C296 C291 1.350 . S
C297 H284 0.929 . S
C297 C289 1.433 . S
C297 N299 1.384 . S
N298 C294 1.427 . S
N298 C295 1.384 . S
N299 C291 1.427 . S
N299 C297 1.384 . S
H300 C306 0.930 . S
H301 C310 0.930 . S
H302 C315 0.929 . S
H303 C313 0.929 . S
H304 C308 0.929 . S
H305 C314 0.929 . S
C306 H300 0.930 . S
C306 C307 1.367 . S
C306 C314 1.378 . S
C307 C306 1.367 . S
C307 C315 1.433 . S
C308 H304 0.929 . S
C308 C310 1.378 . S
C308 C312 1.350 . S
C309 C312 1.463 . S
C309 C314 1.350 . S
C309 N317 1.427 . S
C310 H301 0.930 . S
C310 C308 1.378 . S
C310 C311 1.367 . S
C311 C310 1.367 . S
C311 C313 1.433 . S
C312 C308 1.350 . S
C312 C309 1.463 . S
C312 N316 1.427 . S
C313 H303 0.929 . S
C313 C311 1.433 . S
C313 N316 1.384 . S
C314 H305 0.929 . S
C314 C306 1.378 . S
C314 C309 1.350 . S
C315 H302 0.929 . S
C315 C307 1.433 . S
C315 N317 1.384 . S
N316 C312 1.427 . S
N316 C313 1.384 . S
N317 C309 1.427 . S
N317 C315 1.384 . S
H318 C324 0.930 . S
H319 C328 0.930 . S
H320 C333 0.929 . S
H321 C331 0.929 . S
H322 C326 0.929 . S
H323 C332 0.929 . S
C324 H318 0.930 . S
C324 C325 1.367 . S
C324 C332 1.378 . S
C325 C324 1.367 . S
C325 C333 1.433 . S
C326 H322 0.929 . S
C326 C328 1.378 . S
C326 C330 1.350 . S
C327 C330 1.463 . S
C327 C332 1.350 . S
C327 N335 1.427 . S
C328 H319 0.930 . S
C328 C326 1.378 . S
C328 C329 1.367 . S
C329 C328 1.367 . S
C329 C331 1.433 . S
C330 C326 1.350 . S
C330 C327 1.463 . S
C330 N334 1.427 . S
C331 H321 0.929 . S
C331 C329 1.433 . S
C331 N334 1.384 . S
C332 H323 0.929 . S
C332 C324 1.378 . S
C332 C327 1.350 . S
C333 H320 0.929 . S
C333 C325 1.433 . S
C333 N335 1.384 . S
N334 C330 1.427 . S
N334 C331 1.384 . S
N335 C327 1.427 . S
N335 C333 1.384 . S
C131 C56 1.512 . S
C127 N41 1.514 . S
C145 N2 1.514 . S
C149 C99 1.514 . S
C163 N15 1.514 . S
C167 C65 1.514 . S
C181 N28 1.514 . S
C185 C90 1.511 . S
C203 C52 1.520 . S
C199 N5 1.512 . S
C221 C94 1.514 . S
C217 N14 1.514 . S
C235 N27 1.507 . S
C239 C60 1.516 . S
C253 N44 1.509 . S
C257 C86 1.519 . S
C275 C115 1.518 . S
C271 N18 1.510 . S
C293 C81 1.519 . S
C289 N31 1.515 . S
C311 C103 1.517 . S
C307 N40 1.513 . S
C325 N1 1.510 . S
C329 C69 1.515 . S
