# Generated by pormake.
# Topology eea, (3,6)-cn, num edge types: 1
# Building blocks:
#     Node 0, Type 0, BuildingBlock: KAKCAD_clean_linker_0, # of connection points: 3
#     Node 1, Type 0, BuildingBlock: KAKCAD_clean_linker_0, # of connection points: 3
#     Node 2, Type 0, BuildingBlock: KAKCAD_clean_linker_0, # of connection points: 3
#     Node 3, Type 0, BuildingBlock: KAKCAD_clean_linker_0, # of connection points: 3
#     Node 4, Type 0, BuildingBlock: KAKCAD_clean_linker_0, # of connection points: 3
#     Node 5, Type 0, BuildingBlock: KAKCAD_clean_linker_0, # of connection points: 3
#     Node 6, Type 0, BuildingBlock: KAKCAD_clean_linker_0, # of connection points: 3
#     Node 7, Type 0, BuildingBlock: KAKCAD_clean_linker_0, # of connection points: 3
#     Node 8, Type 0, BuildingBlock: KAKCAD_clean_linker_0, # of connection points: 3
#     Node 9, Type 0, BuildingBlock: KAKCAD_clean_linker_0, # of connection points: 3
#     Node 10, Type 0, BuildingBlock: KAKCAD_clean_linker_0, # of connection points: 3
#     Node 11, Type 0, BuildingBlock: KAKCAD_clean_linker_0, # of connection points: 3
#     Node 12, Type 0, BuildingBlock: KAKCAD_clean_linker_0, # of connection points: 3
#     Node 13, Type 0, BuildingBlock: KAKCAD_clean_linker_0, # of connection points: 3
#     Node 14, Type 0, BuildingBlock: KAKCAD_clean_linker_0, # of connection points: 3
#     Node 15, Type 0, BuildingBlock: KAKCAD_clean_linker_0, # of connection points: 3
#     Node 16, Type 0, BuildingBlock: KAKCAD_clean_linker_0, # of connection points: 3
#     Node 17, Type 0, BuildingBlock: KAKCAD_clean_linker_0, # of connection points: 3
#     Node 18, Type 1, BuildingBlock: CIFDUS_clean_sbu_1, # of connection points: 6
#     Node 19, Type 1, BuildingBlock: CIFDUS_clean_sbu_1, # of connection points: 6
#     Node 20, Type 1, BuildingBlock: CIFDUS_clean_sbu_1, # of connection points: 6
#     Node 21, Type 1, BuildingBlock: CIFDUS_clean_sbu_1, # of connection points: 6
#     Node 22, Type 1, BuildingBlock: CIFDUS_clean_sbu_1, # of connection points: 6
#     Node 23, Type 1, BuildingBlock: CIFDUS_clean_sbu_1, # of connection points: 6
#     Node 24, Type 1, BuildingBlock: CIFDUS_clean_sbu_1, # of connection points: 6
#     Node 25, Type 1, BuildingBlock: CIFDUS_clean_sbu_1, # of connection points: 6
#     Node 26, Type 1, BuildingBlock: CIFDUS_clean_sbu_1, # of connection points: 6
#     Edge 27, Type (0, 1), BuildingBlock: UVAHIK_clean_linker_0, # of connection points: 2
#     Edge 28, Type (0, 1), BuildingBlock: UVAHIK_clean_linker_0, # of connection points: 2
#     Edge 29, Type (0, 1), BuildingBlock: UVAHIK_clean_linker_0, # of connection points: 2
#     Edge 30, Type (0, 1), BuildingBlock: UVAHIK_clean_linker_0, # of connection points: 2
#     Edge 31, Type (0, 1), BuildingBlock: UVAHIK_clean_linker_0, # of connection points: 2
#     Edge 32, Type (0, 1), BuildingBlock: UVAHIK_clean_linker_0, # of connection points: 2
#     Edge 33, Type (0, 1), BuildingBlock: UVAHIK_clean_linker_0, # of connection points: 2
#     Edge 34, Type (0, 1), BuildingBlock: UVAHIK_clean_linker_0, # of connection points: 2
#     Edge 35, Type (0, 1), BuildingBlock: UVAHIK_clean_linker_0, # of connection points: 2
#     Edge 36, Type (0, 1), BuildingBlock: UVAHIK_clean_linker_0, # of connection points: 2
#     Edge 37, Type (0, 1), BuildingBlock: UVAHIK_clean_linker_0, # of connection points: 2
#     Edge 38, Type (0, 1), BuildingBlock: UVAHIK_clean_linker_0, # of connection points: 2
#     Edge 39, Type (0, 1), BuildingBlock: UVAHIK_clean_linker_0, # of connection points: 2
#     Edge 40, Type (0, 1), BuildingBlock: UVAHIK_clean_linker_0, # of connection points: 2
#     Edge 41, Type (0, 1), BuildingBlock: UVAHIK_clean_linker_0, # of connection points: 2
#     Edge 42, Type (0, 1), BuildingBlock: UVAHIK_clean_linker_0, # of connection points: 2
#     Edge 43, Type (0, 1), BuildingBlock: UVAHIK_clean_linker_0, # of connection points: 2
#     Edge 44, Type (0, 1), BuildingBlock: UVAHIK_clean_linker_0, # of connection points: 2
#     Edge 45, Type (0, 1), BuildingBlock: UVAHIK_clean_linker_0, # of connection points: 2
#     Edge 46, Type (0, 1), BuildingBlock: UVAHIK_clean_linker_0, # of connection points: 2
#     Edge 47, Type (0, 1), BuildingBlock: UVAHIK_clean_linker_0, # of connection points: 2
#     Edge 48, Type (0, 1), BuildingBlock: UVAHIK_clean_linker_0, # of connection points: 2
#     Edge 49, Type (0, 1), BuildingBlock: UVAHIK_clean_linker_0, # of connection points: 2
#     Edge 50, Type (0, 1), BuildingBlock: UVAHIK_clean_linker_0, # of connection points: 2
#     Edge 51, Type (0, 1), BuildingBlock: UVAHIK_clean_linker_0, # of connection points: 2
#     Edge 52, Type (0, 1), BuildingBlock: UVAHIK_clean_linker_0, # of connection points: 2
#     Edge 53, Type (0, 1), BuildingBlock: UVAHIK_clean_linker_0, # of connection points: 2
#     Edge 54, Type (0, 1), BuildingBlock: UVAHIK_clean_linker_0, # of connection points: 2
#     Edge 55, Type (0, 1), BuildingBlock: UVAHIK_clean_linker_0, # of connection points: 2
#     Edge 56, Type (0, 1), BuildingBlock: UVAHIK_clean_linker_0, # of connection points: 2
#     Edge 57, Type (0, 1), BuildingBlock: UVAHIK_clean_linker_0, # of connection points: 2
#     Edge 58, Type (0, 1), BuildingBlock: UVAHIK_clean_linker_0, # of connection points: 2
#     Edge 59, Type (0, 1), BuildingBlock: UVAHIK_clean_linker_0, # of connection points: 2
#     Edge 60, Type (0, 1), BuildingBlock: UVAHIK_clean_linker_0, # of connection points: 2
#     Edge 61, Type (0, 1), BuildingBlock: UVAHIK_clean_linker_0, # of connection points: 2
#     Edge 62, Type (0, 1), BuildingBlock: UVAHIK_clean_linker_0, # of connection points: 2
#     Edge 63, Type (0, 1), BuildingBlock: UVAHIK_clean_linker_0, # of connection points: 2
#     Edge 64, Type (0, 1), BuildingBlock: UVAHIK_clean_linker_0, # of connection points: 2
#     Edge 65, Type (0, 1), BuildingBlock: UVAHIK_clean_linker_0, # of connection points: 2
#     Edge 66, Type (0, 1), BuildingBlock: UVAHIK_clean_linker_0, # of connection points: 2
#     Edge 67, Type (0, 1), BuildingBlock: UVAHIK_clean_linker_0, # of connection points: 2
#     Edge 68, Type (0, 1), BuildingBlock: UVAHIK_clean_linker_0, # of connection points: 2
#     Edge 69, Type (0, 1), BuildingBlock: UVAHIK_clean_linker_0, # of connection points: 2
#     Edge 70, Type (0, 1), BuildingBlock: UVAHIK_clean_linker_0, # of connection points: 2
#     Edge 71, Type (0, 1), BuildingBlock: UVAHIK_clean_linker_0, # of connection points: 2
#     Edge 72, Type (0, 1), BuildingBlock: UVAHIK_clean_linker_0, # of connection points: 2
#     Edge 73, Type (0, 1), BuildingBlock: UVAHIK_clean_linker_0, # of connection points: 2
#     Edge 74, Type (0, 1), BuildingBlock: UVAHIK_clean_linker_0, # of connection points: 2
#     Edge 75, Type (0, 1), BuildingBlock: UVAHIK_clean_linker_0, # of connection points: 2
#     Edge 76, Type (0, 1), BuildingBlock: UVAHIK_clean_linker_0, # of connection points: 2
#     Edge 77, Type (0, 1), BuildingBlock: UVAHIK_clean_linker_0, # of connection points: 2
#     Edge 78, Type (0, 1), BuildingBlock: UVAHIK_clean_linker_0, # of connection points: 2
#     Edge 79, Type (0, 1), BuildingBlock: UVAHIK_clean_linker_0, # of connection points: 2
#     Edge 80, Type (0, 1), BuildingBlock: UVAHIK_clean_linker_0, # of connection points: 2
# Relax obj value: 0.099
# Max RMSD: 0.184
# Mean RMSD: 0.093
data_MOF--net-eea--node1-CIFDUS_clean_sbu_1--node2-KAKCAD_clean_linker_0--edge1-UVAHIK_clean_linker_0
_symmetry_space_group_name_H-M    P1
_symmetry_Int_Tables_number       1
_symmetry_cell_setting            triclinic
loop_
_symmetry_equiv_pos_as_xyz
'x, y, z'
_cell_length_a     82.403766
_cell_length_b     81.53027
_cell_length_c     83.551934
_cell_angle_alpha  90.418322
_cell_angle_beta   90.179449
_cell_angle_gamma 120.07422
loop_
_atom_site_label
_atom_site_type_symbol
_atom_site_fract_x
_atom_site_fract_y
_atom_site_fract_z
_atom_type_partial_charge
C0 C 0.2673 0.13804 0.47209 0.0
C1 C 0.27755 0.12855 0.47262 0.0
C2 C 0.25589 0.1358 0.45891 0.0
C3 C 0.25471 0.12421 0.44587 0.0
C4 C 0.26613 0.11589 0.44596 0.0
C5 C 0.27725 0.11784 0.4593 0.0
C6 C 0.24017 0.11918 0.43319 0.0
C7 C 0.23485 0.13224 0.42815 0.0
C8 C 0.21952 0.12672 0.41765 0.0
C9 C 0.20987 0.10794 0.41173 0.0
C10 C 0.21546 0.09494 0.41623 0.0
C11 C 0.23041 0.10062 0.42704 0.0
C12 C 0.20553 0.07509 0.41027 0.0
C13 C 0.18597 0.06372 0.41157 0.0
C14 C 0.21592 0.06697 0.40452 0.0
C15 C 0.20709 0.04771 0.40073 0.0
C16 C 0.18764 0.03604 0.40271 0.0
C17 C 0.21343 0.1405 0.41324 0.0
C18 C 0.21385 0.15348 0.42468 0.0
C19 C 0.20723 0.14089 0.39762 0.0
C20 C 0.2017 0.154 0.39353 0.0
C21 C 0.20239 0.1671 0.40494 0.0
C22 C 0.2085 0.16668 0.42055 0.0
C23 C 0.1771 0.04433 0.40785 0.0
H24 H 0.26717 0.14623 0.48231 0.0
H25 H 0.24718 0.14225 0.45942 0.0
H26 H 0.26599 0.10729 0.43597 0.0
H27 H 0.28518 0.11052 0.45943 0.0
H28 H 0.24266 0.14675 0.43245 0.0
H29 H 0.23386 0.09016 0.43119 0.0
H30 H 0.19795 0.10336 0.40376 0.0
H31 H 0.17768 0.06964 0.4161 0.0
H32 H 0.23099 0.0755 0.40322 0.0
H33 H 0.21556 0.04193 0.39635 0.0
H34 H 0.21815 0.15334 0.43692 0.0
H35 H 0.20695 0.1313 0.38844 0.0
H36 H 0.1621 0.03573 0.40954 0.0
H37 H 0.20892 0.17642 0.42965 0.0
H38 H 0.19726 0.15415 0.38134 0.0
C39 C 0.85907 0.1187 0.46852 0.0
C40 C 0.85511 0.10642 0.48152 0.0
C41 C 0.86642 0.1159 0.45435 0.0
C42 C 0.86982 0.1007 0.4529 0.0
C43 C 0.86592 0.08851 0.46594 0.0
C44 C 0.85862 0.0913 0.48004 0.0
C45 C 0.8772 0.09721 0.43786 0.0
C46 C 0.89208 0.1121 0.42968 0.0
C47 C 0.89978 0.10845 0.41603 0.0
C48 C 0.89235 0.08963 0.41058 0.0
C49 C 0.87735 0.0746 0.41859 0.0
C50 C 0.86974 0.07864 0.43203 0.0
C51 C 0.86938 0.05462 0.41312 0.0
C52 C 0.86637 0.04978 0.39676 0.0
C53 C 0.86358 0.04003 0.42441 0.0
C54 C 0.85392 0.02107 0.41956 0.0
C55 C 0.85013 0.01625 0.40329 0.0
C56 C 0.91617 0.12424 0.40801 0.0
C57 C 0.91683 0.14157 0.40531 0.0
C58 C 0.93161 0.12237 0.40359 0.0
C59 C 0.94757 0.13765 0.39707 0.0
C60 C 0.94843 0.15513 0.39475 0.0
C61 C 0.93277 0.15684 0.39871 0.0
C62 C 0.85689 0.03075 0.39189 0.0
H63 H 0.85668 0.13058 0.46937 0.0
H64 H 0.86921 0.12546 0.44447 0.0
H65 H 0.86861 0.07681 0.46528 0.0
H66 H 0.85554 0.08147 0.48976 0.0
H67 H 0.89819 0.12645 0.43434 0.0
H68 H 0.85778 0.06722 0.43797 0.0
H69 H 0.89835 0.08668 0.40019 0.0
H70 H 0.87056 0.06064 0.38777 0.0
H71 H 0.86612 0.04327 0.43708 0.0
H72 H 0.84905 0.01013 0.42855 0.0
H73 H 0.90507 0.14338 0.40846 0.0
H74 H 0.93159 0.10926 0.40563 0.0
H75 H 0.85401 0.02736 0.37927 0.0
H76 H 0.93305 0.17016 0.39717 0.0
H77 H 0.95935 0.13585 0.39399 0.0
C78 C 0.85751 0.73871 0.47073 0.0
C79 C 0.83843 0.7256 0.47331 0.0
C80 C 0.8645 0.7436 0.45521 0.0
C81 C 0.85265 0.73535 0.44184 0.0
C82 C 0.83363 0.72206 0.44443 0.0
C83 C 0.8266 0.71739 0.45993 0.0
C84 C 0.85988 0.74086 0.42526 0.0
C85 C 0.87807 0.74489 0.42119 0.0
C86 C 0.88476 0.75017 0.40553 0.0
C87 C 0.87323 0.7516 0.39389 0.0
C88 C 0.85514 0.74766 0.39778 0.0
C89 C 0.84855 0.74232 0.41339 0.0
C90 C 0.84317 0.74977 0.38581 0.0
C91 C 0.8488 0.76752 0.37909 0.0
C92 C 0.82538 0.73442 0.38212 0.0
C93 C 0.81304 0.73696 0.37239 0.0
C94 C 0.81809 0.75502 0.36648 0.0
C95 C 0.90384 0.75437 0.40125 0.0
C96 C 0.91945 0.76777 0.41008 0.0
C97 C 0.90656 0.74542 0.38797 0.0
C98 C 0.92462 0.74986 0.38353 0.0
C99 C 0.9404 0.76363 0.39209 0.0
C100 C 0.93756 0.77247 0.40548 0.0
C101 C 0.83632 0.77017 0.3696 0.0
H102 H 0.86716 0.74511 0.48071 0.0
H103 H 0.87917 0.75406 0.45372 0.0
H104 H 0.8241 0.71515 0.43447 0.0
H105 H 0.81179 0.70743 0.46137 0.0
H106 H 0.88694 0.74352 0.43006 0.0
H107 H 0.83473 0.7399 0.41635 0.0
H108 H 0.87837 0.7559 0.38183 0.0
H109 H 0.86247 0.77955 0.3819 0.0
H110 H 0.82088 0.72057 0.3871 0.0
H111 H 0.79932 0.72485 0.3699 0.0
H112 H 0.91767 0.77498 0.42028 0.0
H113 H 0.89467 0.73489 0.38108 0.0
H114 H 0.84067 0.78432 0.36546 0.0
H115 H 0.94931 0.78337 0.41222 0.0
H116 H 0.92616 0.7424 0.3734 0.0
C117 C 0.15264 0.24408 0.53508 0.0
C118 C 0.15303 0.25984 0.52799 0.0
C119 C 0.14594 0.23878 0.55063 0.0
C120 C 0.13934 0.24904 0.55937 0.0
C121 C 0.13969 0.26477 0.55226 0.0
C122 C 0.14652 0.27016 0.53676 0.0
C123 C 0.13221 0.24343 0.57588 0.0
C124 C 0.142 0.23858 0.58688 0.0
C125 C 0.13545 0.23343 0.60255 0.0
C126 C 0.11901 0.23313 0.6072 0.0
C127 C 0.10857 0.23718 0.59623 0.0
C128 C 0.11544 0.24259 0.58061 0.0
C129 C 0.09009 0.23474 0.60097 0.0
C130 C 0.07826 0.21981 0.61109 0.0
C131 C 0.08405 0.24707 0.59546 0.0
C132 C 0.06659 0.24449 0.59998 0.0
C133 C 0.05486 0.22964 0.61024 0.0
C134 C 0.14512 0.22729 0.61389 0.0
C135 C 0.14936 0.21328 0.6093 0.0
C136 C 0.14926 0.23464 0.62958 0.0
C137 C 0.15757 0.22811 0.64048 0.0
C138 C 0.16157 0.2139 0.63594 0.0
C139 C 0.15741 0.20656 0.62026 0.0
C140 C 0.06102 0.21744 0.61579 0.0
H141 H 0.15764 0.23591 0.52864 0.0
H142 H 0.14569 0.22649 0.55576 0.0
H143 H 0.13483 0.27303 0.55875 0.0
H144 H 0.14644 0.28224 0.53154 0.0
H145 H 0.15488 0.23907 0.58336 0.0
H146 H 0.10741 0.24545 0.57192 0.0
H147 H 0.11408 0.22919 0.61935 0.0
H148 H 0.08219 0.20976 0.61532 0.0
H149 H 0.09285 0.2588 0.58775 0.0
H150 H 0.06223 0.25404 0.59529 0.0
H151 H 0.14611 0.20726 0.59732 0.0
H152 H 0.14612 0.24548 0.63337 0.0
H153 H 0.05259 0.20604 0.62392 0.0
H154 H 0.16061 0.19578 0.6164 0.0
H155 H 0.16069 0.234 0.65251 0.0
C156 C 0.7551 0.88916 0.52969 0.0
C157 C 0.76144 0.90224 0.51709 0.0
C158 C 0.7665 0.89224 0.54313 0.0
C159 C 0.78436 0.9085 0.54425 0.0
C160 C 0.79061 0.92156 0.53166 0.0
C161 C 0.77928 0.91849 0.51828 0.0
C162 C 0.79655 0.91213 0.55849 0.0
C163 C 0.79877 0.89765 0.5652 0.0
C164 C 0.81113 0.90145 0.57819 0.0
C165 C 0.82134 0.92005 0.58442 0.0
C166 C 0.81919 0.93467 0.57781 0.0
C167 C 0.80657 0.93045 0.56503 0.0
C168 C 0.82975 0.95443 0.58409 0.0
C169 C 0.83136 0.95826 0.60063 0.0
C170 C 0.8369 0.96971 0.5734 0.0
C171 C 0.84425 0.98824 0.57904 0.0
C172 C 0.84487 0.99197 0.59551 0.0
C173 C 0.81364 0.88599 0.58482 0.0
C174 C 0.79803 0.86788 0.5872 0.0
C175 C 0.83164 0.889 0.58829 0.0
C176 C 0.83399 0.87414 0.59377 0.0
C177 C 0.81838 0.85598 0.59599 0.0
C178 C 0.80037 0.85306 0.59273 0.0
C179 C 0.83891 0.97691 0.6063 0.0
H180 H 0.74148 0.87642 0.52904 0.0
H181 H 0.76126 0.882 0.5527 0.0
H182 H 0.8044 0.93412 0.53208 0.0
H183 H 0.78449 0.92893 0.50886 0.0
H184 H 0.79138 0.88355 0.55994 0.0
H185 H 0.80435 0.94149 0.56022 0.0
H186 H 0.83097 0.92316 0.59436 0.0
H187 H 0.82591 0.9468 0.60916 0.0
H188 H 0.83629 0.96727 0.56059 0.0
H189 H 0.84903 0.99964 0.57049 0.0
H190 H 0.78397 0.86515 0.58476 0.0
H191 H 0.84395 0.90275 0.58645 0.0
H192 H 0.83918 0.97943 0.61907 0.0
H193 H 0.78806 0.83922 0.59419 0.0
H194 H 0.84803 0.87689 0.59634 0.0
C195 C 0.13156 0.87753 0.5317 0.0
C196 C 0.151 0.88851 0.52924 0.0
C197 C 0.12372 0.87886 0.54612 0.0
C198 C 0.13517 0.89114 0.55839 0.0
C199 C 0.15472 0.90133 0.55621 0.0
C200 C 0.16253 0.9001 0.54176 0.0
C201 C 0.1267 0.8947 0.57273 0.0
C202 C 0.11105 0.87992 0.58029 0.0
C203 C 0.10218 0.88366 0.59307 0.0
C204 C 0.10963 0.90254 0.59846 0.0
C205 C 0.12563 0.91736 0.59132 0.0
C206 C 0.13383 0.9133 0.57836 0.0
C207 C 0.13402 0.93723 0.59713 0.0
C208 C 0.12285 0.94536 0.60055 0.0
C209 C 0.1536 0.9485 0.59858 0.0
C210 C 0.16189 0.96757 0.60286 0.0
C211 C 0.15084 0.9759 0.60584 0.0
C212 C 0.08502 0.86792 0.60054 0.0
C213 C 0.072 0.85232 0.59123 0.0
C214 C 0.08129 0.8684 0.61695 0.0
C215 C 0.06488 0.8539 0.62373 0.0
C216 C 0.05211 0.83841 0.61436 0.0
C217 C 0.05587 0.83765 0.59811 0.0
C218 C 0.1312 0.96455 0.6049 0.0
H219 H 0.12232 0.86855 0.52221 0.0
H220 H 0.10861 0.87097 0.54734 0.0
H221 H 0.16397 0.91062 0.56555 0.0
H222 H 0.17759 0.90846 0.54029 0.0
H223 H 0.10592 0.86549 0.57623 0.0
H224 H 0.14555 0.92486 0.57229 0.0
H225 H 0.10301 0.90582 0.60817 0.0
H226 H 0.10773 0.93704 0.59943 0.0
H227 H 0.16256 0.94255 0.59636 0.0
H228 H 0.17703 0.9758 0.60393 0.0
H229 H 0.07401 0.85154 0.57851 0.0
H230 H 0.09107 0.8799 0.62463 0.0
H231 H 0.12233 0.97059 0.60717 0.0
H232 H 0.04605 0.82589 0.59063 0.0
H233 H 0.06226 0.85468 0.63633 0.0
C234 C 0.91162 0.46601 0.81351 0.0
C235 C 0.92563 0.461 0.81431 0.0
C236 C 0.90209 0.46417 0.79919 0.0
C237 C 0.90633 0.45726 0.78533 0.0
C238 C 0.92077 0.45283 0.78597 0.0
C239 C 0.93031 0.45466 0.80033 0.0
C240 C 0.89468 0.45328 0.77068 0.0
C241 C 0.88864 0.46578 0.76574 0.0
C242 C 0.87599 0.46111 0.75285 0.0
C243 C 0.86966 0.44374 0.74469 0.0
C244 C 0.87602 0.43137 0.74925 0.0
C245 C 0.88845 0.43623 0.76225 0.0
C246 C 0.86935 0.41291 0.74104 0.0
C247 C 0.85009 0.40016 0.73889 0.0
C248 C 0.88228 0.40732 0.73659 0.0
C249 C 0.87611 0.3891 0.73063 0.0
C250 C 0.85684 0.37603 0.72905 0.0
C251 C 0.86936 0.47436 0.74812 0.0
C252 C 0.86591 0.48472 0.75984 0.0
C253 C 0.86682 0.47712 0.73191 0.0
C254 C 0.86125 0.4901 0.72754 0.0
C255 C 0.85828 0.50073 0.73927 0.0
C256 C 0.86057 0.49785 0.75546 0.0
C257 C 0.84388 0.38181 0.73302 0.0
H258 H 0.90747 0.47065 0.82412 0.0
H259 H 0.89084 0.46739 0.79917 0.0
H260 H 0.92452 0.44771 0.77542 0.0
H261 H 0.94122 0.45095 0.80053 0.0
H262 H 0.89392 0.47923 0.77195 0.0
H263 H 0.89263 0.42625 0.76624 0.0
H264 H 0.85972 0.43975 0.73487 0.0
H265 H 0.83985 0.40411 0.74234 0.0
H266 H 0.89721 0.41692 0.73808 0.0
H267 H 0.88645 0.38504 0.72783 0.0
H268 H 0.86728 0.48267 0.77246 0.0
H269 H 0.86958 0.46959 0.72255 0.0
H270 H 0.82895 0.37208 0.73178 0.0
H271 H 0.85812 0.50568 0.76475 0.0
H272 H 0.85976 0.49219 0.71495 0.0
C273 C 0.52909 0.45047 0.80244 0.0
C274 C 0.5252 0.4378 0.81513 0.0
C275 C 0.53629 0.44807 0.78803 0.0
C276 C 0.53967 0.43291 0.786 0.0
C277 C 0.5358 0.42029 0.7987 0.0
C278 C 0.52866 0.42271 0.81309 0.0
C279 C 0.54693 0.43001 0.77062 0.0
C280 C 0.56147 0.44536 0.76254 0.0
C281 C 0.56855 0.44251 0.74813 0.0
C282 C 0.56085 0.42403 0.74181 0.0
C283 C 0.54622 0.40854 0.74972 0.0
C284 C 0.53935 0.41172 0.76406 0.0
C285 C 0.53759 0.38902 0.74293 0.0
C286 C 0.53328 0.38564 0.72652 0.0
C287 C 0.53248 0.37348 0.75304 0.0
C288 C 0.52247 0.35497 0.74703 0.0
C289 C 0.51744 0.35156 0.73076 0.0
C290 C 0.5842 0.45885 0.73989 0.0
C291 C 0.58423 0.47601 0.73832 0.0
C292 C 0.59943 0.45755 0.73389 0.0
C293 C 0.61455 0.47319 0.72677 0.0
C294 C 0.61474 0.49048 0.72542 0.0
C295 C 0.59929 0.49163 0.73114 0.0
C296 C 0.52333 0.3671 0.7205 0.0
H297 H 0.52677 0.46236 0.8037 0.0
H298 H 0.53899 0.45794 0.77842 0.0
H299 H 0.53843 0.40858 0.79756 0.0
H300 H 0.52566 0.41261 0.82257 0.0
H301 H 0.56766 0.45948 0.76771 0.0
H302 H 0.52768 0.39994 0.76996 0.0
H303 H 0.56622 0.42172 0.73072 0.0
H304 H 0.53686 0.39728 0.71845 0.0
H305 H 0.53593 0.37563 0.76569 0.0
H306 H 0.51839 0.34329 0.75518 0.0
H307 H 0.57256 0.47736 0.74261 0.0
H308 H 0.59992 0.44459 0.7351 0.0
H309 H 0.51949 0.36492 0.70793 0.0
H310 H 0.59881 0.5046 0.73004 0.0
H311 H 0.62631 0.47187 0.72273 0.0
C312 C 0.53043 0.07877 0.80821 0.0
C313 C 0.51148 0.06512 0.81062 0.0
C314 C 0.53708 0.08529 0.79283 0.0
C315 C 0.52497 0.07828 0.7795 0.0
C316 C 0.50605 0.06457 0.78192 0.0
C317 C 0.49938 0.05814 0.79728 0.0
C318 C 0.53189 0.08529 0.76312 0.0
C319 C 0.54965 0.08885 0.75813 0.0
C320 C 0.55584 0.09502 0.74251 0.0
C321 C 0.54431 0.09787 0.73188 0.0
C322 C 0.52668 0.09459 0.7367 0.0
C323 C 0.52057 0.08832 0.7523 0.0
C324 C 0.51461 0.09784 0.72557 0.0
C325 C 0.52184 0.11482 0.71701 0.0
C326 C 0.49556 0.08418 0.72389 0.0
C327 C 0.48381 0.08769 0.71425 0.0
C328 C 0.4908 0.10503 0.70623 0.0
C329 C 0.57433 0.09842 0.73712 0.0
C330 C 0.59066 0.11067 0.7458 0.0
C331 C 0.57578 0.08995 0.72292 0.0
C332 C 0.59329 0.09378 0.71739 0.0
C333 C 0.60967 0.10639 0.72584 0.0
C334 C 0.60823 0.11477 0.74012 0.0
C335 C 0.51003 0.11842 0.70746 0.0
H336 H 0.54021 0.08426 0.81818 0.0
H337 H 0.55168 0.09599 0.79143 0.0
H338 H 0.49637 0.05865 0.77191 0.0
H339 H 0.48467 0.04778 0.79868 0.0
H340 H 0.55846 0.08631 0.7662 0.0
H341 H 0.50711 0.08623 0.75612 0.0
H342 H 0.54907 0.10267 0.71982 0.0
H343 H 0.53649 0.12561 0.71818 0.0
H344 H 0.48973 0.07083 0.73013 0.0
H345 H 0.46916 0.07688 0.71326 0.0
H346 H 0.58985 0.11742 0.75675 0.0
H347 H 0.56334 0.0804 0.71607 0.0
H348 H 0.51582 0.13197 0.70156 0.0
H349 H 0.62068 0.12446 0.74688 0.0
H350 H 0.59408 0.08722 0.70632 0.0
C351 C 0.81595 0.58557 0.86535 0.0
C352 C 0.81645 0.60179 0.85914 0.0
C353 C 0.81058 0.58019 0.88116 0.0
C354 C 0.80554 0.59087 0.89111 0.0
C355 C 0.8058 0.60695 0.88486 0.0
C356 C 0.81125 0.61238 0.86905 0.0
C357 C 0.80054 0.58554 0.90809 0.0
C358 C 0.81115 0.58 0.91739 0.0
C359 C 0.80677 0.57513 0.93347 0.0
C360 C 0.79172 0.57592 0.94038 0.0
C361 C 0.78042 0.58072 0.93116 0.0
C362 C 0.78511 0.58574 0.91502 0.0
C363 C 0.76317 0.57939 0.93812 0.0
C364 C 0.75228 0.56496 0.94901 0.0
C365 C 0.7571 0.59206 0.93365 0.0
C366 C 0.74037 0.59007 0.93963 0.0
C367 C 0.72941 0.57549 0.95039 0.0
C368 C 0.81739 0.56829 0.94279 0.0
C369 C 0.81871 0.55279 0.93711 0.0
C370 C 0.82622 0.5771 0.95726 0.0
C371 C 0.83677 0.57085 0.9657 0.0
C372 C 0.83837 0.55546 0.95992 0.0
C373 C 0.82892 0.54631 0.94566 0.0
C374 C 0.73576 0.56316 0.95517 0.0
H375 H 0.81999 0.57718 0.85805 0.0
H376 H 0.81033 0.56761 0.88558 0.0
H377 H 0.80211 0.61552 0.89227 0.0
H378 H 0.81125 0.62481 0.86455 0.0
H379 H 0.82305 0.57971 0.9122 0.0
H380 H 0.77636 0.58909 0.90763 0.0
H381 H 0.78857 0.57226 0.95287 0.0
H382 H 0.75624 0.5547 0.95256 0.0
H383 H 0.76522 0.60351 0.92547 0.0
H384 H 0.73587 0.59973 0.93552 0.0
H385 H 0.81172 0.54559 0.92609 0.0
H386 H 0.82536 0.58912 0.96182 0.0
H387 H 0.72794 0.55199 0.96366 0.0
H388 H 0.82938 0.53411 0.94104 0.0
H389 H 0.84403 0.57841 0.9765 0.0
C390 C 0.4227 0.21524 0.86663 0.0
C391 C 0.42789 0.2286 0.85432 0.0
C392 C 0.43431 0.21903 0.88004 0.0
C393 C 0.45136 0.23624 0.88139 0.0
C394 C 0.45647 0.24958 0.86909 0.0
C395 C 0.44485 0.24586 0.85579 0.0
C396 C 0.46388 0.24046 0.89553 0.0
C397 C 0.46687 0.22647 0.90224 0.0
C398 C 0.47928 0.23072 0.91526 0.0
C399 C 0.48902 0.2494 0.9214 0.0
C400 C 0.4862 0.26359 0.91473 0.0
C401 C 0.47333 0.25882 0.90206 0.0
C402 C 0.49632 0.28348 0.92077 0.0
C403 C 0.4981 0.28762 0.93726 0.0
C404 C 0.50284 0.29852 0.90987 0.0
C405 C 0.50968 0.31707 0.91526 0.0
C406 C 0.51047 0.32109 0.93168 0.0
C407 C 0.48216 0.21556 0.92208 0.0
C408 C 0.46677 0.19728 0.92433 0.0
C409 C 0.50025 0.21894 0.92575 0.0
C410 C 0.5029 0.20424 0.93123 0.0
C411 C 0.48749 0.18589 0.93324 0.0
C412 C 0.46939 0.18264 0.92983 0.0
C413 C 0.50519 0.30631 0.94268 0.0
H414 H 0.40983 0.20171 0.8658 0.0
H415 H 0.42988 0.20853 0.88938 0.0
H416 H 0.46962 0.26288 0.86961 0.0
H417 H 0.44917 0.25658 0.84665 0.0
H418 H 0.45996 0.21235 0.89701 0.0
H419 H 0.47049 0.26948 0.89734 0.0
H420 H 0.49876 0.25289 0.93131 0.0
H421 H 0.49315 0.27635 0.94595 0.0
H422 H 0.5021 0.29586 0.89709 0.0
H423 H 0.51397 0.32826 0.90656 0.0
H424 H 0.45263 0.19426 0.92177 0.0
H425 H 0.51241 0.23282 0.92402 0.0
H426 H 0.50563 0.30908 0.95542 0.0
H427 H 0.45723 0.16866 0.9311 0.0
H428 H 0.517 0.20727 0.93392 0.0
C429 C 0.79395 0.20471 0.86633 0.0
C430 C 0.81321 0.2122 0.86354 0.0
C431 C 0.7876 0.20623 0.88142 0.0
C432 C 0.80035 0.21531 0.89408 0.0
C433 C 0.81954 0.22224 0.89145 0.0
C434 C 0.82591 0.22071 0.87634 0.0
C435 C 0.79378 0.21884 0.90955 0.0
C436 C 0.77703 0.2049 0.91646 0.0
C437 C 0.77021 0.20883 0.9305 0.0
C438 C 0.78018 0.22692 0.9376 0.0
C439 C 0.79683 0.24102 0.93071 0.0
C440 C 0.80364 0.2368 0.91684 0.0
C441 C 0.80654 0.26065 0.9371 0.0
C442 C 0.79658 0.27022 0.93978 0.0
C443 C 0.82608 0.27045 0.9392 0.0
C444 C 0.83557 0.28962 0.94345 0.0
C445 C 0.82576 0.29949 0.9455 0.0
C446 C 0.75215 0.19433 0.93725 0.0
C447 C 0.73595 0.18602 0.92764 0.0
C448 C 0.75094 0.18885 0.95327 0.0
C449 C 0.73379 0.17504 0.95954 0.0
C450 C 0.71743 0.16671 0.94998 0.0
C451 C 0.71876 0.17253 0.93396 0.0
C452 C 0.80611 0.28948 0.94388 0.0
H453 H 0.78382 0.19831 0.85668 0.0
H454 H 0.77276 0.20102 0.88299 0.0
H455 H 0.82968 0.22909 0.90105 0.0
H456 H 0.8408 0.22634 0.87464 0.0
H457 H 0.76926 0.19096 0.91094 0.0
H458 H 0.81613 0.24791 0.91121 0.0
H459 H 0.77474 0.23014 0.94823 0.0
H460 H 0.78152 0.26301 0.93804 0.0
H461 H 0.83404 0.26332 0.93734 0.0
H462 H 0.85064 0.29673 0.94503 0.0
H463 H 0.73654 0.19024 0.91529 0.0
H464 H 0.76333 0.19504 0.96087 0.0
H465 H 0.79812 0.29665 0.94526 0.0
H466 H 0.70648 0.16688 0.92629 0.0
H467 H 0.73347 0.17076 0.97182 0.0
C468 C 0.57587 0.79281 0.14444 0.0
C469 C 0.58849 0.78598 0.14386 0.0
C470 C 0.56358 0.78951 0.13168 0.0
C471 C 0.56377 0.77944 0.11802 0.0
C472 C 0.57713 0.77353 0.11712 0.0
C473 C 0.58926 0.77664 0.12997 0.0
C474 C 0.54906 0.77369 0.10543 0.0
C475 C 0.54249 0.78585 0.10073 0.0
C476 C 0.52744 0.77975 0.08981 0.0
C477 C 0.51924 0.76126 0.0833 0.0
C478 C 0.52607 0.74917 0.08756 0.0
C479 C 0.54078 0.75544 0.09872 0.0
C480 C 0.51792 0.72974 0.0808 0.0
C481 C 0.49851 0.71701 0.08109 0.0
C482 C 0.52989 0.72335 0.07526 0.0
C483 C 0.52273 0.70446 0.07076 0.0
C484 C 0.50343 0.69143 0.07175 0.0
C485 C 0.52042 0.79279 0.08529 0.0
C486 C 0.51991 0.80533 0.0967 0.0
C487 C 0.5146 0.79316 0.06951 0.0
C488 C 0.50868 0.80591 0.06522 0.0
C489 C 0.50864 0.8187 0.07656 0.0
C490 C 0.51423 0.81821 0.09235 0.0
C491 C 0.49131 0.69799 0.07662 0.0
H492 H 0.57487 0.79991 0.15508 0.0
H493 H 0.55335 0.79406 0.13287 0.0
H494 H 0.57794 0.7661 0.10663 0.0
H495 H 0.59906 0.77148 0.12914 0.0
H496 H 0.54927 0.80018 0.1055 0.0
H497 H 0.54533 0.74572 0.10259 0.0
H498 H 0.50758 0.75622 0.07496 0.0
H499 H 0.489 0.72156 0.08542 0.0
H500 H 0.54489 0.73295 0.07469 0.0
H501 H 0.5324 0.70002 0.06663 0.0
H502 H 0.52386 0.80518 0.10904 0.0
H503 H 0.51504 0.78394 0.06034 0.0
H504 H 0.47637 0.68829 0.07752 0.0
H505 H 0.5141 0.82775 0.10139 0.0
H506 H 0.50463 0.80611 0.05291 0.0
C507 C 0.19554 0.78312 0.13984 0.0
C508 C 0.1926 0.77144 0.15311 0.0
C509 C 0.20273 0.7803 0.12558 0.0
C510 C 0.20697 0.76565 0.1243 0.0
C511 C 0.20416 0.75412 0.13762 0.0
C512 C 0.19706 0.75697 0.15183 0.0
C513 C 0.21389 0.76196 0.10909 0.0
C514 C 0.22804 0.77682 0.10029 0.0
C515 C 0.23514 0.77302 0.08632 0.0
C516 C 0.22781 0.75412 0.08115 0.0
C517 C 0.21346 0.73912 0.08972 0.0
C518 C 0.20653 0.74326 0.10357 0.0
C519 C 0.2053 0.7191 0.08426 0.0
C520 C 0.2016 0.71422 0.06794 0.0
C521 C 0.20007 0.70454 0.09549 0.0
C522 C 0.19041 0.68556 0.09065 0.0
C523 C 0.18603 0.6807 0.07444 0.0
C524 C 0.25058 0.78878 0.0774 0.0
C525 C 0.25012 0.80545 0.07426 0.0
C526 C 0.26606 0.78739 0.07223 0.0
C527 C 0.28092 0.80246 0.06434 0.0
C528 C 0.2806 0.81926 0.06134 0.0
C529 C 0.26492 0.82049 0.06627 0.0
C530 C 0.19212 0.69519 0.06307 0.0
H531 H 0.1924 0.79451 0.14052 0.0
H532 H 0.20466 0.78934 0.11548 0.0
H533 H 0.2075 0.74285 0.13706 0.0
H534 H 0.19481 0.74762 0.16177 0.0
H535 H 0.23401 0.79128 0.10462 0.0
H536 H 0.19507 0.73187 0.11001 0.0
H537 H 0.2333 0.75111 0.07046 0.0
H538 H 0.20527 0.72504 0.05898 0.0
H539 H 0.20312 0.7078 0.10811 0.0
H540 H 0.18608 0.67464 0.09961 0.0
H541 H 0.23825 0.80682 0.07791 0.0
H542 H 0.26692 0.77481 0.07467 0.0
H543 H 0.18876 0.6918 0.0505 0.0
H544 H 0.26404 0.83306 0.06391 0.0
H545 H 0.29288 0.80112 0.06099 0.0
C546 C 0.20104 0.4157 0.1468 0.0
C547 C 0.18172 0.40354 0.14929 0.0
C548 C 0.20812 0.42095 0.13131 0.0
C549 C 0.19609 0.41402 0.11791 0.0
C550 C 0.1768 0.4018 0.12043 0.0
C551 C 0.16971 0.39681 0.13587 0.0
C552 C 0.20342 0.41943 0.10133 0.0
C553 C 0.22094 0.42174 0.09698 0.0
C554 C 0.22723 0.42597 0.08112 0.0
C555 C 0.21597 0.42792 0.06955 0.0
C556 C 0.19862 0.42592 0.07369 0.0
C557 C 0.19257 0.4219 0.0896 0.0
C558 C 0.18669 0.42796 0.06147 0.0
C559 C 0.19443 0.44293 0.0505 0.0
C560 C 0.1673 0.41519 0.06104 0.0
C561 C 0.15578 0.41767 0.05026 0.0
C562 C 0.16339 0.43297 0.03961 0.0
C563 C 0.24561 0.42846 0.07644 0.0
C564 C 0.26205 0.44175 0.08442 0.0
C565 C 0.2469 0.41841 0.06327 0.0
C566 C 0.26436 0.42189 0.05792 0.0
C567 C 0.28097 0.43576 0.06546 0.0
C568 C 0.27958 0.44548 0.07892 0.0
C569 C 0.18288 0.44545 0.03969 0.0
H570 H 0.21079 0.42097 0.15679 0.0
H571 H 0.22301 0.43054 0.12989 0.0
H572 H 0.16709 0.39586 0.11045 0.0
H573 H 0.15473 0.38767 0.13724 0.0
H574 H 0.22949 0.41972 0.10575 0.0
H575 H 0.17943 0.42099 0.09287 0.0
H576 H 0.22075 0.43102 0.05728 0.0
H577 H 0.20934 0.45304 0.05059 0.0
H578 H 0.16097 0.40337 0.0692 0.0
H579 H 0.14081 0.40795 0.05069 0.0
H580 H 0.26138 0.44979 0.09452 0.0
H581 H 0.23436 0.40793 0.05703 0.0
H582 H 0.18916 0.4573 0.03157 0.0
H583 H 0.29201 0.45642 0.08492 0.0
H584 H 0.26481 0.41376 0.0478 0.0
C585 C 0.49127 0.93115 0.20815 0.0
C586 C 0.48983 0.94559 0.20037 0.0
C587 C 0.48525 0.92643 0.22392 0.0
C588 C 0.47763 0.93601 0.23227 0.0
C589 C 0.47625 0.9505 0.22451 0.0
C590 C 0.48232 0.95527 0.20874 0.0
C591 C 0.47098 0.93067 0.24894 0.0
C592 C 0.48151 0.92676 0.25991 0.0
C593 C 0.4748 0.92043 0.27537 0.0
C594 C 0.45746 0.91818 0.27992 0.0
C595 C 0.44686 0.92233 0.26922 0.0
C596 C 0.45375 0.92868 0.25378 0.0
C597 C 0.42839 0.9195 0.27415 0.0
C598 C 0.41558 0.90286 0.28204 0.0
C599 C 0.42354 0.93345 0.27124 0.0
C600 C 0.4063 0.93092 0.27635 0.0
C601 C 0.3935 0.9143 0.28436 0.0
C602 C 0.48562 0.91547 0.2865 0.0
C603 C 0.47691 0.8979 0.29426 0.0
C604 C 0.50491 0.92787 0.2888 0.0
C605 C 0.51543 0.92255 0.29831 0.0
C606 C 0.50688 0.90466 0.30553 0.0
C607 C 0.48748 0.89248 0.30361 0.0
C608 C 0.39832 0.90026 0.28704 0.0
H609 H 0.49712 0.92354 0.20208 0.0
H610 H 0.4863 0.91503 0.22949 0.0
H611 H 0.47055 0.95821 0.23067 0.0
H612 H 0.48083 0.96632 0.20301 0.0
H613 H 0.49484 0.92831 0.25634 0.0
H614 H 0.44533 0.93131 0.24532 0.0
H615 H 0.45232 0.91342 0.2919 0.0
H616 H 0.41884 0.89174 0.28421 0.0
H617 H 0.43324 0.94649 0.2653 0.0
H618 H 0.40314 0.94212 0.27426 0.0
H619 H 0.46206 0.88806 0.2926 0.0
H620 H 0.5119 0.94155 0.28303 0.0
H621 H 0.38865 0.88711 0.29284 0.0
H622 H 0.48057 0.87863 0.30909 0.0
H623 H 0.5304 0.93212 0.29945 0.0
C624 C 0.0922 0.54902 0.20527 0.0
C625 C 0.09781 0.56203 0.19264 0.0
C626 C 0.10361 0.55302 0.21885 0.0
C627 C 0.12077 0.57013 0.22007 0.0
C628 C 0.12629 0.58309 0.20744 0.0
C629 C 0.11494 0.57912 0.19393 0.0
C630 C 0.133 0.57471 0.23442 0.0
C631 C 0.13648 0.56113 0.24132 0.0
C632 C 0.14911 0.56599 0.25424 0.0
C633 C 0.15833 0.58474 0.26025 0.0
C634 C 0.15482 0.59844 0.25351 0.0
C635 C 0.14193 0.59313 0.24081 0.0
C636 C 0.1643 0.61836 0.25948 0.0
C637 C 0.16598 0.62255 0.27596 0.0
C638 C 0.17026 0.6333 0.24854 0.0
C639 C 0.17645 0.65176 0.25388 0.0
C640 C 0.17715 0.65578 0.27029 0.0
C641 C 0.15303 0.5515 0.26094 0.0
C642 C 0.13823 0.5332 0.26421 0.0
C643 C 0.17155 0.55556 0.26341 0.0
C644 C 0.17521 0.54148 0.26872 0.0
C645 C 0.1604 0.52305 0.27183 0.0
C646 C 0.14186 0.51917 0.26966 0.0
C647 C 0.17242 0.64115 0.28132 0.0
H648 H 0.07915 0.53565 0.20455 0.0
H649 H 0.09894 0.54282 0.22844 0.0
H650 H 0.13954 0.59629 0.20791 0.0
H651 H 0.11956 0.58952 0.1845 0.0
H652 H 0.1299 0.54694 0.23625 0.0
H653 H 0.13867 0.60343 0.23588 0.0
H654 H 0.16825 0.58864 0.27008 0.0
H655 H 0.16145 0.61136 0.28468 0.0
H656 H 0.16959 0.63063 0.23577 0.0
H657 H 0.18033 0.66285 0.24514 0.0
H658 H 0.1238 0.52973 0.26258 0.0
H659 H 0.18324 0.56948 0.26078 0.0
H660 H 0.17281 0.64392 0.29406 0.0
H661 H 0.13008 0.50532 0.27228 0.0
H662 H 0.18966 0.54496 0.27003 0.0
C663 C 0.46759 0.53052 0.19943 0.0
C664 C 0.48709 0.54043 0.19706 0.0
C665 C 0.46016 0.53126 0.21425 0.0
C666 C 0.47208 0.54184 0.227 0.0
C667 C 0.49161 0.55079 0.22486 0.0
C668 C 0.49902 0.55018 0.21002 0.0
C669 C 0.46428 0.54522 0.24185 0.0
C670 C 0.44795 0.53074 0.24889 0.0
C671 C 0.43979 0.53454 0.26219 0.0
C672 C 0.44847 0.55315 0.26848 0.0
C673 C 0.46512 0.56754 0.26186 0.0
C674 C 0.47277 0.5635 0.24851 0.0
C675 C 0.47484 0.58696 0.26868 0.0
C676 C 0.46528 0.59695 0.27132 0.0
C677 C 0.49422 0.59605 0.27157 0.0
C678 C 0.50401 0.61491 0.27657 0.0
C679 C 0.49464 0.62517 0.27881 0.0
C680 C 0.42215 0.5192 0.26934 0.0
C681 C 0.40831 0.50472 0.25962 0.0
C682 C 0.41886 0.51898 0.28591 0.0
C683 C 0.40206 0.50492 0.29248 0.0
C684 C 0.38844 0.49053 0.28271 0.0
C685 C 0.39174 0.49044 0.26627 0.0
C686 C 0.47514 0.61598 0.27626 0.0
H687 H 0.45806 0.52297 0.18961 0.0
H688 H 0.44507 0.52437 0.21545 0.0
H689 H 0.50118 0.55872 0.23455 0.0
H690 H 0.51411 0.55764 0.20859 0.0
H691 H 0.44176 0.51648 0.24404 0.0
H692 H 0.48513 0.57491 0.24298 0.0
H693 H 0.44237 0.55655 0.27853 0.0
H694 H 0.45033 0.59024 0.26908 0.0
H695 H 0.50189 0.58862 0.26968 0.0
H696 H 0.51905 0.62164 0.27824 0.0
H697 H 0.41004 0.50456 0.2468 0.0
H698 H 0.42927 0.52959 0.29387 0.0
H699 H 0.46757 0.62353 0.27798 0.0
H700 H 0.38127 0.47955 0.25851 0.0
H701 H 0.39979 0.50515 0.30523 0.0
O702 O 0.46639 0.98121 0.00947 0.0
Mn703 Mn 0.49462 0.9998 0.00474 0.0
O704 O 0.45752 0.99591 0.02747 0.0
Mn705 Mn 0.48098 0.01731 0.03093 0.0
O706 O 0.52282 0.01841 5e-05 0.0
O707 O 0.49724 0.9779 0.99729 0.0
Mn708 Mn 0.50891 0.98219 0.97894 0.0
O709 O 0.4877 0.00394 0.98151 0.0
O710 O 0.53236 0.00335 0.98302 0.0
O711 O 0.50173 0.99554 0.02787 0.0
O712 O 0.49659 0.014 0.04482 0.0
O713 O 0.50363 0.95826 0.98539 0.0
O714 O 0.49377 0.98589 0.96474 0.0
C715 C 0.4927 0.03789 0.0122 0.0
C716 C 0.45396 0.98178 0.01837 0.0
C717 C 0.53555 0.01759 0.99181 0.0
C718 C 0.49659 0.96184 0.99783 0.0
C719 C 0.48722 0.99685 0.96758 0.0
C720 C 0.50281 0.00282 0.04183 0.0
O721 O 0.49199 0.02175 0.01221 0.0
O722 O 0.48601 0.04126 0.02498 0.0
O723 O 0.01747 0.4833 0.00843 0.0
Mn724 Mn -0.00047 0.49431 0.00798 0.0
O725 O 0.00368 0.45703 0.02365 0.0
Mn726 Mn 0.9846 0.46048 0.03187 0.0
O727 O 0.98151 0.50518 0.00749 0.0
O728 O 0.02061 0.51891 0.0004 0.0
Mn729 Mn 0.01422 0.52809 0.98418 0.0
O730 O 0.99202 0.48457 0.98434 0.0
O731 O 0.9948 0.53121 0.99206 0.0
O732 O 0.00701 0.50401 0.03161 0.0
O733 O 0.99154 0.47879 0.04777 0.0
O734 O 0.03926 0.54525 0.98874 0.0
O735 O 0.00757 0.50986 0.96828 0.0
C736 C 0.96189 0.4553 0.01591 0.0
C737 C 0.01673 0.46845 0.01437 0.0
C738 C 0.98176 0.51967 0.00128 0.0
C739 C 0.03713 0.53349 -7e-05 0.0
C740 C 0.99716 0.49209 0.97044 0.0
C741 C 0.00197 0.49654 0.04553 0.0
O742 O 0.97844 0.46981 0.01564 0.0
O743 O 0.95951 0.44353 0.02716 0.0
O744 O 0.53209 0.52025 0.99523 0.0
Mn745 Mn 0.5038 0.50684 0.0011 0.0
O746 O 0.53757 0.54392 0.97827 0.0
Mn747 Mn 0.5126 0.53693 0.9745 0.0
O748 O 0.47553 0.49365 0.00701 0.0
O749 O 0.50532 0.48448 0.00893 0.0
Mn750 Mn 0.49491 0.47709 0.02779 0.0
O751 O 0.511 0.51974 0.02383 0.0
O752 O 0.47003 0.47073 0.02473 0.0
O753 O 0.49696 0.49418 0.97832 0.0
O754 O 0.49955 0.51632 0.96082 0.0
O755 O 0.50345 0.46078 0.02201 0.0
O756 O 0.50898 0.49767 0.0411 0.0
C757 C 0.49773 0.54196 0.99337 0.0
C758 C 0.54316 0.5347 0.9868 0.0
C759 C 0.46449 0.47982 0.016 0.0
C760 C 0.50887 0.47081 0.00915 0.0
C761 C 0.51349 0.51465 0.03773 0.0
C762 C 0.49525 0.49938 0.9642 0.0
O763 O 0.50207 0.5289 0.9932 0.0
O764 O 0.50288 0.55227 0.98068 0.0
O765 O 0.13486 0.31804 0.34614 0.0
Mn766 Mn 0.16276 0.33429 0.33935 0.0
O767 O 0.13028 0.33354 0.36652 0.0
Mn768 Mn 0.15513 0.35294 0.36894 0.0
O769 O 0.19052 0.35018 0.33227 0.0
O770 O 0.16155 0.31139 0.3293 0.0
Mn771 Mn 0.1678 0.31489 0.30907 0.0
O772 O 0.15435 0.34138 0.31792 0.0
O773 O 0.19216 0.33577 0.30954 0.0
O774 O 0.17097 0.32732 0.36088 0.0
O775 O 0.17026 0.34628 0.38027 0.0
O776 O 0.16351 0.29089 0.31426 0.0
O777 O 0.15009 0.31929 0.29962 0.0
C778 C 0.16686 0.3742 0.35065 0.0
C779 C 0.12431 0.31959 0.35664 0.0
C780 C 0.1995 0.34905 0.32012 0.0
C781 C 0.16085 0.2953 0.32851 0.0
C782 C 0.14839 0.33327 0.30419 0.0
C783 C 0.17402 0.33373 0.37536 0.0
O784 O 0.16411 0.35726 0.34942 0.0
O785 O 0.16246 0.37799 0.36447 0.0
O786 O 0.68104 0.81976 0.33687 0.0
Mn787 Mn 0.66438 0.83199 0.33408 0.0
O788 O 0.66674 0.79663 0.35511 0.0
Mn789 Mn 0.64726 0.80106 0.3603 0.0
O790 O 0.64762 0.84414 0.33143 0.0
O791 O 0.68646 0.85555 0.326 0.0
Mn792 Mn 0.68142 0.864 0.3085 0.0
O793 O 0.65771 0.8208 0.31076 0.0
O794 O 0.66223 0.86855 0.31442 0.0
O795 O 0.6714 0.84353 0.35731 0.0
O796 O 0.65313 0.82067 0.37459 0.0
O797 O 0.70641 0.88075 0.31359 0.0
O798 O 0.67498 0.84464 0.29379 0.0
C799 C 0.62563 0.7936 0.3426 0.0
C800 C 0.67992 0.80601 0.34515 0.0
C801 C 0.64879 0.85837 0.3239 0.0
C802 C 0.70326 0.86966 0.32559 0.0
C803 C 0.6639 0.82718 0.2967 0.0
C804 C 0.66494 0.83784 0.37144 0.0
O805 O 0.64212 0.80835 0.34216 0.0
O806 O 0.62259 0.78347 0.35527 0.0
O807 O 0.19534 0.85518 0.32979 0.0
Mn808 Mn 0.16735 0.84112 0.33653 0.0
O809 O 0.19809 0.87528 0.31012 0.0
Mn810 Mn 0.1728 0.86804 0.30808 0.0
O811 O 0.13932 0.82738 0.34313 0.0
O812 O 0.17021 0.81993 0.34544 0.0
Mn813 Mn 0.16051 0.81359 0.36466 0.0
O814 O 0.17489 0.85556 0.35862 0.0
O815 O 0.13524 0.80598 0.36193 0.0
O816 O 0.16003 0.82675 0.31441 0.0
O817 O 0.1585 0.84615 0.29617 0.0
O818 O 0.16976 0.79766 0.35973 0.0
O819 O 0.17432 0.83517 0.377 0.0
C820 C 0.16027 0.87532 0.32748 0.0
C821 C 0.20511 0.86811 0.31956 0.0
C822 C 0.12892 0.814 0.35274 0.0
C823 C 0.17437 0.8067 0.34635 0.0
C824 C 0.17803 0.85167 0.37279 0.0
C825 C 0.15614 0.83009 0.30029 0.0
O826 O 0.16433 0.86205 0.32764 0.0
O827 O 0.16389 0.88414 0.31402 0.0
O828 O 0.79995 0.65384 0.67342 0.0
Mn829 Mn 0.82786 0.67163 0.66723 0.0
O830 O 0.79324 0.66879 0.69289 0.0
Mn831 Mn 0.81732 0.68962 0.69548 0.0
O832 O 0.85576 0.68918 0.66085 0.0
O833 O 0.82899 0.64937 0.65834 0.0
Mn834 Mn 0.8366 0.65294 0.63844 0.0
O835 O 0.81921 0.67676 0.64503 0.0
O836 O 0.86024 0.67475 0.63946 0.0
O837 O 0.83612 0.66637 0.68951 0.0
O838 O 0.83332 0.68514 0.70786 0.0
O839 O 0.83315 0.62948 0.64426 0.0
O840 O 0.81858 0.6555 0.62743 0.0
C841 C 0.82805 0.71032 0.67675 0.0
C842 C 0.78851 0.6547 0.68338 0.0
C843 C 0.86602 0.68848 0.64957 0.0
C844 C 0.82888 0.63355 0.65802 0.0
C845 C 0.81468 0.66823 0.63134 0.0
C846 C 0.83831 0.67324 0.7038 0.0
O847 O 0.82686 0.69397 0.67615 0.0
O848 O 0.82276 0.71392 0.69023 0.0
O849 O 0.34879 0.158 0.66652 0.0
Mn850 Mn 0.3274 0.16432 0.66934 0.0
O851 O 0.33893 0.12984 0.67863 0.0
Mn852 Mn 0.31926 0.12909 0.69011 0.0
O853 O 0.30578 0.17028 0.67241 0.0
O854 O 0.34464 0.19065 0.66205 0.0
Mn855 Mn 0.33357 0.19893 0.64901 0.0
O856 O 0.3193 0.15582 0.64573 0.0
O857 O 0.31475 0.19863 0.66136 0.0
O858 O 0.33578 0.1727 0.69302 0.0
O859 O 0.32595 0.14591 0.70729 0.0
O860 O 0.35855 0.21805 0.65094 0.0
O861 O 0.32522 0.18191 0.63188 0.0
C862 C 0.29406 0.12279 0.67695 0.0
C863 C 0.35049 0.14358 0.66993 0.0
C864 C 0.30346 0.18447 0.66975 0.0
C865 C 0.35999 0.20639 0.66044 0.0
C866 C 0.31952 0.1642 0.63271 0.0
C867 C 0.33339 0.16388 0.70629 0.0
O868 O 0.30989 0.1381 0.67625 0.0
O869 O 0.29418 0.11055 0.6866 0.0
O870 O 0.86151 0.1848 0.66177 0.0
Mn871 Mn 0.83327 0.17273 0.66724 0.0
O872 O 0.86769 0.20702 0.64306 0.0
Mn873 Mn 0.84324 0.20221 0.64009 0.0
O874 O 0.80493 0.16073 0.67253 0.0
O875 O 0.83341 0.14977 0.67528 0.0
Mn876 Mn 0.82178 0.14195 0.6936 0.0
O877 O 0.84008 0.18514 0.69015 0.0
O878 O 0.79736 0.13637 0.68925 0.0
O879 O 0.8263 0.15999 0.64443 0.0
O880 O 0.82818 0.18175 0.62696 0.0
O881 O 0.83039 0.12553 0.6882 0.0
O882 O 0.83523 0.16209 0.70755 0.0
C883 C 0.83126 0.21049 0.65907 0.0
C884 C 0.87278 0.19798 0.65235 0.0
C885 C 0.79295 0.14651 0.6807 0.0
C886 C 0.83682 0.13602 0.67567 0.0
C887 C 0.84088 0.17937 0.70428 0.0
C888 C 0.8238 0.16486 0.63042 0.0
O889 O 0.83324 0.19581 0.65918 0.0
O890 O 0.83652 0.21996 0.64591 0.0
C891 C 0.3068 0.83278 0.04127 0.0
C892 C 0.29684 0.83564 0.05359 0.0
C893 C 0.32268 0.84813 0.03465 0.0
C894 C 0.34713 0.9002 0.03043 0.0
H895 H 0.39202 0.89631 0.0271 0.0
C896 C 0.42074 0.96567 0.02785 0.0
C897 C 0.43477 0.96503 0.01879 0.0
C898 C 0.40308 0.94959 0.02943 0.0
C899 C 0.37954 0.89755 0.02763 0.0
H900 H 0.29583 0.85701 0.06851 0.0
H901 H 0.32328 0.88371 0.05681 0.0
H902 H 0.36249 0.86864 0.03473 0.0
H903 H 0.44093 0.94695 0.00386 0.0
H904 H 0.40991 0.91886 0.00648 0.0
H905 H 0.36417 0.92914 0.02354 0.0
C906 C 0.31869 0.8696 0.05217 0.0
C907 C 0.36262 0.88169 0.03205 0.0
C908 C 0.30292 0.85427 0.05886 0.0
C909 C 0.43048 0.94797 0.01095 0.0
C910 C 0.41274 0.93183 0.01253 0.0
C911 C 0.36401 0.91602 0.02593 0.0
C912 C 0.32887 0.86669 0.04011 0.0
C913 C 0.34633 0.88296 0.03383 0.0
C914 C 0.3989 0.9324 0.02197 0.0
C915 C 0.38052 0.91502 0.02483 0.0
H916 H 0.30235 0.81867 0.03671 0.0
H917 H 0.33011 0.84548 0.02524 0.0
H918 H 0.33473 0.90151 0.03143 0.0
H919 H 0.42348 0.97852 0.03407 0.0
H920 H 0.39291 0.95052 0.03699 0.0
C921 C 0.15345 0.45504 0.02839 0.0
C922 C 0.1507 0.43662 0.02952 0.0
C923 C 0.1397 0.45802 0.02145 0.0
C924 C 0.08936 0.43308 0.01863 0.0
H925 H 0.09601 0.47544 0.99301 0.0
C926 C 0.02791 0.44564 0.00946 0.0
C927 C 0.03187 0.46446 0.01068 0.0
C928 C 0.04236 0.44164 0.00749 0.0
C929 C 0.09394 0.4636 0.00026 0.0
H930 H 0.1323 0.40717 0.02282 0.0
H931 H 0.10816 0.41236 0.01094 0.0
H932 H 0.12225 0.46974 0.99676 0.0
H933 H 0.05386 0.49391 0.01017 0.0
H934 H 0.07931 0.48698 0.0076 0.0
H935 H 0.06166 0.42748 0.02312 0.0
C936 C 0.12085 0.42443 0.0156 0.0
C937 C 0.10893 0.4603 0.0023 0.0
C938 C 0.13462 0.42146 0.02245 0.0
C939 C 0.05047 0.47926 0.00924 0.0
C940 C 0.06503 0.47525 0.00765 0.0
C941 C 0.07453 0.43651 0.0168 0.0
C942 C 0.12295 0.44262 0.01559 0.0
C943 C 0.10679 0.4451 0.01166 0.0
C944 C 0.06118 0.45636 0.00715 0.0
C945 C 0.07664 0.45194 0.00775 0.0
H946 H 0.16562 0.46701 0.03382 0.0
H947 H 0.14161 0.47217 0.02171 0.0
H948 H 0.08742 0.4215 0.0262 0.0
H949 H 0.01362 0.43399 0.01024 0.0
H950 H 0.03877 0.42694 0.00663 0.0
C951 C 0.50635 0.6623 0.07289 0.0
C952 C 0.49624 0.67108 0.06794 0.0
C953 C 0.50069 0.64372 0.0682 0.0
C954 C 0.47519 0.61053 0.03543 0.0
H955 H 0.48496 0.57642 0.0604 0.0
C956 C 0.47309 0.54746 0.00444 0.0
C957 C 0.48945 0.54658 0.00692 0.0
C958 C 0.46822 0.5575 0.01513 0.0
C959 C 0.48206 0.58574 0.0533 0.0
H960 H 0.47163 0.66683 0.05488 0.0
H961 H 0.46152 0.63419 0.04687 0.0
H962 H 0.48697 0.60446 0.07318 0.0
H963 H 0.51318 0.55464 0.02266 0.0
H964 H 0.50492 0.57241 0.04131 0.0
H965 H 0.47108 0.59245 0.01543 0.0
C966 C 0.47405 0.64184 0.05418 0.0
C967 C 0.48326 0.60183 0.06061 0.0
C968 C 0.47975 0.66049 0.05887 0.0
C969 C 0.5002 0.5547 0.02079 0.0
C970 C 0.49547 0.56496 0.03142 0.0
C971 C 0.47397 0.59449 0.02816 0.0
C972 C 0.4847 0.63339 0.05848 0.0
C973 C 0.48038 0.61472 0.05163 0.0
C974 C 0.47994 0.56727 0.02826 0.0
C975 C 0.4779 0.58217 0.03688 0.0
H976 H 0.5189 0.66993 0.08018 0.0
H977 H 0.50936 0.63779 0.07162 0.0
H978 H 0.47316 0.62025 0.02806 0.0
H979 H 0.46474 0.54144 0.99367 0.0
H980 H 0.45597 0.55869 0.01251 0.0
C981 C 0.85357 0.33201 0.94198 0.0
C982 C 0.83613 0.32017 0.94912 0.0
C983 C 0.86408 0.35114 0.94623 0.0
C984 C 0.8704 0.38229 0.9804 0.0
H985 H 0.90737 0.4205 0.95253 0.0
C986 C 0.9302 0.44858 0.00807 0.0
C987 C 0.94747 0.45053 0.00368 0.0
C988 C 0.91433 0.43799 0.99847 0.0
C989 C 0.89697 0.41006 0.96041 0.0
H990 H 0.81561 0.31949 0.96573 0.0
H991 H 0.8337 0.35303 0.97279 0.0
H992 H 0.88254 0.39071 0.94108 0.0
H993 H 0.96216 0.44385 0.98576 0.0
H994 H 0.93454 0.42529 0.96893 0.0
H995 H 0.88517 0.40117 -0.00023 0.0
C996 C 0.83945 0.34739 0.96414 0.0
C997 C 0.88282 0.39295 0.95389 0.0
C998 C 0.82899 0.32818 0.95999 0.0
C999 C 0.94902 0.44292 0.98909 0.0
C1000 C 0.93317 0.43227 0.9795 0.0
C1001 C 0.88441 0.3994 0.98688 0.0
C1002 C 0.85734 0.359 0.95763 0.0
C1003 C 0.86984 0.37855 0.9639 0.0
C1004 C 0.91548 0.42888 0.98451 0.0
C1005 C 0.8983 0.41316 0.97705 0.0
H1006 H 0.8593 0.32643 0.93326 0.0
H1007 H 0.87787 0.35952 0.94108 0.0
H1008 H 0.86084 0.37151 0.98853 0.0
H1009 H 0.92871 0.45406 0.01949 0.0
H1010 H 0.90091 0.43574 0.00257 0.0
C1011 C 0.69595 0.55435 0.95872 0.0
C1012 C 0.71116 0.57274 0.95627 0.0
C1013 C 0.67875 0.55163 0.96405 0.0
C1014 C 0.64922 0.57266 0.96311 0.0
H1015 H 0.62272 0.53864 0.998 0.0
C1016 C 0.57667 0.55918 0.98227 0.0
C1017 C 0.56326 0.54053 0.9863 0.0
C1018 C 0.59549 0.5644 0.98057 0.0
C1019 C 0.62981 0.54802 0.98811 0.0
H1020 H 0.72008 0.6027 0.95777 0.0
H1021 H 0.68971 0.59781 0.9665 0.0
H1022 H 0.65418 0.54523 0.99108 0.0
H1023 H 0.55907 0.51278 0.99201 0.0
H1024 H 0.59175 0.52162 0.98845 0.0
H1025 H 0.62472 0.57482 0.95951 0.0
C1026 C 0.69131 0.58558 0.96436 0.0
C1027 C 0.64786 0.55186 0.98424 0.0
C1028 C 0.70864 0.58834 0.95926 0.0
C1029 C 0.56912 0.5273 0.989 0.0
C1030 C 0.58791 0.53243 0.98703 0.0
C1031 C 0.63107 0.5686 0.9668 0.0
C1032 C 0.67623 0.5672 0.96681 0.0
C1033 C 0.65766 0.5641 0.97163 0.0
C1034 C 0.60132 0.551 0.98258 0.0
C1035 C 0.62105 0.55611 0.97928 0.0
H1036 H 0.69714 0.54196 0.95619 0.0
H1037 H 0.66724 0.5373 0.9656 0.0
H1038 H 0.65641 0.58197 0.9532 0.0
H1039 H 0.57259 0.56975 0.98031 0.0
H1040 H 0.60544 0.57893 0.97754 0.0
C1041 C 0.47772 0.15681 0.94972 0.0
C1042 C 0.49018 0.17007 0.93873 0.0
C1043 C 0.47982 0.14162 0.95455 0.0
C1044 C 0.51435 0.12565 0.95773 0.0
H1045 H 0.46976 0.077 0.96482 0.0
C1046 C 0.48774 0.04538 0.98452 0.0
C1047 C 0.49844 0.05092 0.99865 0.0
C1048 C 0.48926 0.05902 0.97361 0.0
C1049 C 0.48243 0.09033 0.96262 0.0
H1050 H 0.51464 0.17767 0.92415 0.0
H1051 H 0.51837 0.15112 0.93267 0.0
H1052 H 0.46685 0.10249 0.95287 0.0
H1053 H 0.51947 0.07474 0.01238 0.0
H1054 H 0.52228 0.09858 0.99343 0.0
H1055 H 0.5299 0.11348 0.96765 0.0
C1056 C 0.50704 0.15261 0.93764 0.0
C1057 C 0.48071 0.10507 0.95599 0.0
C1058 C 0.50493 0.16785 0.93279 0.0
C1059 C 0.51142 0.07015 0.00133 0.0
C1060 C 0.513 0.08378 0.99044 0.0
C1061 C 0.51608 0.11087 0.96437 0.0
C1062 C 0.49444 0.13925 0.94851 0.0
C1063 C 0.49659 0.12306 0.95387 0.0
C1064 C 0.50137 0.07846 0.97677 0.0
C1065 C 0.50008 0.09317 0.96727 0.0
H1066 H 0.46641 0.15828 0.95476 0.0
H1067 H 0.47011 0.13185 0.96323 0.0
H1068 H 0.52687 0.13933 0.95627 0.0
H1069 H 0.47718 0.03068 0.9825 0.0
H1070 H 0.48025 0.0544 0.96311 0.0
C1071 C 0.68577 0.13732 0.94671 0.0
C1072 C 0.69904 0.15208 0.95658 0.0
C1073 C 0.66825 0.12405 0.95264 0.0
C1074 C 0.64339 0.09919 0.98758 0.0
H1075 H 0.59879 0.09246 0.96572 0.0
C1076 C 0.57016 0.03169 0.98914 0.0
C1077 C 0.55469 0.03416 0.99181 0.0
C1078 C 0.58812 0.04736 0.98756 0.0
C1079 C 0.61113 0.09434 0.97203 0.0
H1080 H 0.70406 0.1641 0.98063 0.0
H1081 H 0.67369 0.14023 0.9911 0.0
H1082 H 0.6298 0.11741 0.95715 0.0
H1083 H 0.54588 0.05492 0.99531 0.0
H1084 H 0.57735 0.08243 0.992 0.0
H1085 H 0.62472 0.07546 0.00194 0.0
C1086 C 0.67698 0.13928 0.97871 0.0
C1087 C 0.6288 0.10848 0.96708 0.0
C1088 C 0.69441 0.15284 0.9727 0.0
C1089 C 0.55758 0.05262 0.99333 0.0
C1090 C 0.57552 0.06832 0.99139 0.0
C1091 C 0.62571 0.08475 0.99232 0.0
C1092 C 0.66371 0.12495 0.96865 0.0
C1093 C 0.64506 0.11089 0.97471 0.0
C1094 C 0.59088 0.06579 0.9883 0.0
C1095 C 0.60945 0.08213 0.98449 0.0
H1096 H 0.68891 0.13588 0.93439 0.0
H1097 H 0.65829 0.11293 0.94474 0.0
H1098 H 0.65579 0.10078 0.99358 0.0
H1099 H 0.56833 0.01761 0.98798 0.0
H1100 H 0.59973 0.04507 0.98505 0.0
C1101 C 0.85199 0.55009 0.98513 0.0
C1102 C 0.8504 0.54936 0.96831 0.0
C1103 C 0.86383 0.54487 0.9928 0.0
C1104 C 0.8874 0.51723 0.98715 0.0
H1105 H 0.92692 0.55465 0.01454 0.0
C1106 C 0.94808 0.50718 0.00836 0.0
C1107 C 0.96558 0.52246 0.00394 0.0
C1108 C 0.93218 0.50915 0.00852 0.0
C1109 C 0.91581 0.54397 0.00709 0.0
H1110 H 0.86034 0.54278 0.94647 0.0
H1111 H 0.88033 0.53314 0.95987 0.0
H1112 H 0.90149 0.55979 0.00559 0.0
H1113 H 0.98039 0.55214 0.99739 0.0
H1114 H 0.95271 0.55557 0.99776 0.0
H1115 H 0.90208 0.50183 0.98798 0.0
C1116 C 0.87229 0.53759 0.96709 0.0
C1117 C 0.90124 0.54685 0.00206 0.0
C1118 C 0.86076 0.54307 0.95942 0.0
C1119 C 0.96708 0.54006 0.00072 0.0
C1120 C 0.95125 0.54208 0.00107 0.0
C1121 C 0.90182 0.51425 0.99231 0.0
C1122 C 0.87402 0.53853 0.98382 0.0
C1123 C 0.8873 0.53383 0.99158 0.0
C1124 C 0.93355 0.5265 0.00449 0.0
C1125 C 0.91652 0.52791 0.00186 0.0
H1126 H 0.84405 0.55461 0.99239 0.0
H1127 H 0.86495 0.54569 0.00574 0.0
H1128 H 0.87671 0.50693 0.97915 0.0
H1129 H 0.94646 0.49343 0.01091 0.0
H1130 H 0.9187 0.49694 0.01127 0.0
C1131 C 0.52867 0.34974 0.94933 0.0
C1132 C 0.51535 0.34035 0.93715 0.0
C1133 C 0.53266 0.36769 0.9547 0.0
C1134 C 0.52425 0.40784 0.94518 0.0
H1135 H 0.53148 0.4168 0.99093 0.0
C1136 C 0.50509 0.45544 0.98277 0.0
C1137 C 0.51665 0.46524 0.99587 0.0
C1138 C 0.50952 0.44438 0.97282 0.0
C1139 C 0.52985 0.41472 0.97808 0.0
H1140 H 0.49564 0.34217 0.92109 0.0
H1141 H 0.5019 0.37296 0.93084 0.0
H1142 H 0.53004 0.38873 0.97944 0.0
H1143 H 0.54208 0.47192 0.0087 0.0
H1144 H 0.54997 0.4527 0.99127 0.0
H1145 H 0.5228 0.4334 0.94419 0.0
C1146 C 0.50989 0.36699 0.9359 0.0
C1147 C 0.52906 0.39859 0.97144 0.0
C1148 C 0.50617 0.34924 0.93037 0.0
C1149 C 0.53324 0.46479 0.99839 0.0
C1150 C 0.53763 0.45368 0.98853 0.0
C1151 C 0.52474 0.42387 0.95189 0.0
C1152 C 0.5231 0.37645 0.94823 0.0
C1153 C 0.52592 0.39472 0.95494 0.0
C1154 C 0.52537 0.4427 0.9761 0.0
C1155 C 0.5273 0.42732 0.96844 0.0
H1156 H 0.53605 0.34323 0.95464 0.0
H1157 H 0.54317 0.37463 0.96399 0.0
H1158 H 0.52222 0.4056 0.93237 0.0
H1159 H 0.49191 0.45512 0.98098 0.0
H1160 H 0.49971 0.43592 0.96344 0.0
C1161 C 0.17837 0.653 0.05639 0.0
C1162 C 0.17381 0.66066 0.06955 0.0
C1163 C 0.16588 0.63459 0.05097 0.0
C1164 C 0.12067 0.59049 0.06086 0.0
H1165 H 0.11504 0.58657 0.01471 0.0
C1166 C 0.05153 0.54525 0.02651 0.0
C1167 C 0.05214 0.53791 0.01148 0.0
C1168 C 0.06789 0.55523 0.0357 0.0
C1169 C 0.11664 0.58718 0.02761 0.0
H1170 H 0.15287 0.65506 0.08758 0.0
H1171 H 0.13079 0.62336 0.07783 0.0
H1172 H 0.14142 0.61426 0.02663 0.0
H1173 H 0.06976 0.53433 0.99436 0.0
H1174 H 0.09844 0.55159 0.01048 0.0
H1175 H 0.09494 0.56383 0.06166 0.0
C1176 C 0.1442 0.63115 0.07194 0.0
C1177 C 0.13185 0.60312 0.03449 0.0
C1178 C 0.15682 0.64941 0.0775 0.0
C1179 C 0.06899 0.53959 0.00612 0.0
C1180 C 0.08536 0.54957 0.01527 0.0
C1181 C 0.10528 0.5746 0.05395 0.0
C1182 C 0.14839 0.62361 0.05841 0.0
C1183 C 0.13383 0.60526 0.05122 0.0
C1184 C 0.08513 0.55825 0.0298 0.0
C1185 C 0.1029 0.57303 0.03725 0.0
H1186 H 0.1915 0.66134 0.05018 0.0
H1187 H 0.16978 0.62915 0.04072 0.0
H1188 H 0.12194 0.59144 0.07379 0.0
H1189 H 0.03874 0.5446 0.03058 0.0
H1190 H 0.06728 0.56194 0.04674 0.0
C1191 C 0.31501 0.44553 0.0693 0.0
C1192 C 0.29963 0.44044 0.05899 0.0
C1193 C 0.33257 0.45031 0.06314 0.0
C1194 C 0.35525 0.4425 0.02903 0.0
H1195 H 0.39974 0.48832 0.04359 0.0
C1196 C 0.43102 0.45683 0.02234 0.0
C1197 C 0.4447 0.47495 0.01729 0.0
C1198 C 0.41275 0.45281 0.02536 0.0
C1199 C 0.38741 0.47557 0.03932 0.0
H1200 H 0.29093 0.43669 0.03401 0.0
H1201 H 0.32141 0.44432 0.0234 0.0
H1202 H 0.36892 0.48094 0.05353 0.0
H1203 H 0.44987 0.50295 0.01104 0.0
H1204 H 0.4179 0.49596 0.01666 0.0
H1205 H 0.37382 0.43687 0.01517 0.0
C1206 C 0.31976 0.44461 0.03624 0.0
C1207 C 0.36984 0.47128 0.0451 0.0
C1208 C 0.30228 0.44011 0.04237 0.0
C1209 C 0.43959 0.48882 0.01483 0.0
C1210 C 0.42137 0.48489 0.01815 0.0
C1211 C 0.37286 0.44663 0.02345 0.0
C1212 C 0.33508 0.44983 0.04657 0.0
C1213 C 0.35362 0.45466 0.04008 0.0
C1214 C 0.40787 0.46692 0.02365 0.0
C1215 C 0.3891 0.46316 0.0286 0.0
H1216 H 0.31347 0.44564 0.08216 0.0
H1217 H 0.34413 0.45408 0.07136 0.0
H1218 H 0.34295 0.42955 0.02503 0.0
H1219 H 0.43455 0.44586 0.02429 0.0
H1220 H 0.40262 0.43889 0.02969 0.0
C1221 C 0.51463 0.85202 0.07622 0.0
C1222 C 0.50329 0.83287 0.07182 0.0
C1223 C 0.51019 0.86559 0.07105 0.0
C1224 C 0.48325 0.87311 0.03923 0.0
H1225 H 0.49671 0.91879 0.06379 0.0
C1226 C 0.47465 0.9322 0.01169 0.0
C1227 C 0.49143 0.94964 0.01186 0.0
C1228 C 0.47229 0.91782 0.0221 0.0
C1229 C 0.49277 0.90604 0.05685 0.0
H1230 H 0.478 0.81276 0.05916 0.0
H1231 H 0.4699 0.83629 0.05048 0.0
H1232 H 0.49978 0.89329 0.07596 0.0
H1233 H 0.51866 0.96613 0.0231 0.0
H1234 H 0.51453 0.94118 0.0415 0.0
H1235 H 0.47652 0.88594 0.02008 0.0
C1236 C 0.48254 0.841 0.05754 0.0
C1237 C 0.49465 0.89148 0.06376 0.0
C1238 C 0.48712 0.82747 0.06254 0.0
C1239 C 0.5054 0.95292 0.02312 0.0
C1240 C 0.50303 0.93861 0.03359 0.0
C1241 C 0.48119 0.88755 0.03242 0.0
C1242 C 0.49418 0.8603 0.0615 0.0
C1243 C 0.49031 0.87498 0.0549 0.0
C1244 C 0.48678 0.92064 0.03272 0.0
C1245 C 0.48629 0.90434 0.04101 0.0
H1246 H 0.52728 0.85662 0.08324 0.0
H1247 H 0.5197 0.88031 0.07412 0.0
H1248 H 0.48008 0.86084 0.0319 0.0
H1249 H 0.46392 0.92925 0.00277 0.0
H1250 H 0.45959 0.90414 0.02122 0.0
C1251 C 0.98337 0.17583 0.39542 0.0
C1252 C 0.96595 0.1718 0.38904 0.0
C1253 C -0.00016 0.192 0.39077 0.0
C1254 C 0.02089 0.22778 0.35927 0.0
H1255 H 0.05591 0.25787 0.39301 0.0
C1256 C 0.09762 0.28761 0.34836 0.0
C1257 C 0.10463 0.30393 0.35814 0.0
C1258 C 0.07975 0.27205 0.35098 0.0
C1259 C 0.04621 0.24973 0.38345 0.0
H1260 H 0.95218 0.18132 0.37244 0.0
H1261 H 0.98107 0.2097 0.3643 0.0
H1262 H 0.0267 0.22942 0.3998 0.0
H1263 H 0.09787 0.31693 0.37785 0.0
H1264 H 0.06682 0.28988 0.38233 0.0
H1265 H 0.04056 0.24819 0.34291 0.0
C1266 C 0.98193 0.20028 0.3729 0.0
C1267 C 0.02958 0.23331 0.38733 0.0
C1268 C 0.9654 0.18413 0.37765 0.0
C1269 C 0.09304 0.30459 0.37015 0.0
C1270 C 0.07525 0.28904 0.37279 0.0
C1271 C 0.03766 0.24418 0.35536 0.0
C1272 C -0.00071 0.20449 0.37957 0.0
C1273 C 0.01677 0.22211 0.37529 0.0
C1274 C 0.06856 0.27246 0.36346 0.0
C1275 C 0.0505 0.25531 0.36743 0.0
H1276 H 0.98426 0.16672 0.40433 0.0
H1277 H 0.01304 0.19476 0.39599 0.0
H1278 H 0.01131 0.21937 0.34974 0.0
H1279 H 0.10613 0.28659 0.33898 0.0
H1280 H 0.07502 0.25943 0.34365 0.0
C1281 C 0.78523 0.74898 0.36397 0.0
C1282 C 0.80386 0.75842 0.35855 0.0
C1283 C 0.77216 0.75337 0.35782 0.0
C1284 C 0.76917 0.79276 0.34173 0.0
H1285 H 0.7171 0.75446 0.33463 0.0
C1286 C 0.71038 0.81147 0.33362 0.0
C1287 C 0.69442 0.80054 0.34299 0.0
C1288 C 0.72404 0.8062 0.3318 0.0
C1289 C 0.73159 0.76533 0.33656 0.0
H1290 H 0.82303 0.77938 0.34181 0.0
H1291 H 0.80015 0.78745 0.33139 0.0
H1292 H 0.74069 0.74495 0.33759 0.0
H1293 H 0.68026 0.77539 0.35766 0.0
H1294 H 0.70401 0.76639 0.35465 0.0
H1295 H 0.75994 0.81308 0.3415 0.0
C1296 C 0.79581 0.7766 0.34041 0.0
C1297 C 0.74508 0.75988 0.33819 0.0
C1298 C 0.8089 0.77203 0.34644 0.0
C1299 C 0.69233 0.78415 0.35037 0.0
C1300 C 0.7059 0.77888 0.34849 0.0
C1301 C 0.75564 0.79822 0.34016 0.0
C1302 C 0.77738 0.76746 0.3462 0.0
C1303 C 0.76388 0.77348 0.34134 0.0
C1304 C 0.72191 0.78982 0.33923 0.0
C1305 C 0.73662 0.78448 0.33812 0.0
H1306 H 0.78086 0.73877 0.37353 0.0
H1307 H 0.75814 0.74634 0.36273 0.0
H1308 H 0.78355 0.80353 0.34427 0.0
H1309 H 0.71244 0.82421 0.32777 0.0
H1310 H 0.73621 0.81488 0.32456 0.0
C1311 C 0.18786 0.00544 0.40416 0.0
C1312 C 0.17865 0.01529 0.39964 0.0
C1313 C 0.18036 0.98634 0.40014 0.0
C1314 C 0.14973 0.952 0.36972 0.0
H1315 H 0.15911 0.91743 0.3944 0.0
C1316 C 0.13873 0.8841 0.34044 0.0
C1317 C 0.15469 0.88222 0.34146 0.0
C1318 C 0.13628 0.89587 0.3512 0.0
C1319 C 0.15628 0.92688 0.38742 0.0
H1320 H 0.15376 0.01244 0.38807 0.0
H1321 H 0.1404 0.97891 0.38137 0.0
H1322 H 0.1647 0.9472 0.40656 0.0
H1323 H 0.18036 0.89056 0.35459 0.0
H1324 H 0.17622 0.91116 0.3734 0.0
H1325 H 0.14201 0.93216 0.35041 0.0
C1326 C 0.15366 0.98611 0.38776 0.0
C1327 C 0.15954 0.94396 0.39435 0.0
C1328 C 0.16123 0.0053 0.39172 0.0
C1329 C 0.16761 0.89129 0.35395 0.0
C1330 C 0.16526 0.90319 0.36465 0.0
C1331 C 0.14639 0.93494 0.36284 0.0
C1332 C 0.16336 0.97651 0.39159 0.0
C1333 C 0.15688 0.95701 0.38539 0.0
C1334 C 0.15 0.90627 0.36293 0.0
C1335 C 0.15016 0.92243 0.37143 0.0
H1336 H 0.2011 0.01259 0.41059 0.0
H1337 H 0.18835 0.97953 0.40317 0.0
H1338 H 0.14778 0.96177 0.36235 0.0
H1339 H 0.12877 0.87743 0.33069 0.0
H1340 H 0.12427 0.89776 0.34968 0.0
C1341 C 0.52003 0.65177 0.29466 0.0
C1342 C 0.50558 0.64554 0.28321 0.0
C1343 C 0.53207 0.67105 0.29738 0.0
C1344 C 0.53844 0.7184 0.29389 0.0
H1345 H 0.59084 0.73253 0.29665 0.0
C1346 C 0.61737 0.78217 0.31461 0.0
C1347 C 0.61213 0.78644 0.32928 0.0
C1348 C 0.60373 0.76944 0.30392 0.0
C1349 C 0.57638 0.72912 0.29552 0.0
H1350 H 0.49181 0.65464 0.2662 0.0
H1351 H 0.51291 0.68862 0.27119 0.0
H1352 H 0.56773 0.70064 0.28856 0.0
H1353 H 0.58872 0.78178 0.34403 0.0
H1354 H 0.56486 0.75921 0.32568 0.0
H1355 H 0.54714 0.74689 0.30133 0.0
C1356 C 0.51487 0.67845 0.27794 0.0
C1357 C 0.56308 0.71067 0.29112 0.0
C1358 C 0.50279 0.65904 0.27515 0.0
C1359 C 0.59305 0.77895 0.3326 0.0
C1360 C 0.57938 0.76604 0.32202 0.0
C1361 C 0.55182 0.73699 0.29833 0.0
C1362 C 0.52994 0.68458 0.28875 0.0
C1363 C 0.54394 0.70492 0.29089 0.0
C1364 C 0.58462 0.76028 0.30799 0.0
C1365 C 0.57089 0.74236 0.29975 0.0
H1366 H 0.52227 0.6417 0.3013 0.0
H1367 H 0.54328 0.67539 0.3061 0.0
H1368 H 0.52374 0.71433 0.29368 0.0
H1369 H 0.63194 0.78698 0.31212 0.0
H1370 H 0.60824 0.76552 0.2931 0.0
C1371 C 0.36756 0.9026 0.3045 0.0
C1372 C 0.37514 0.91149 0.28984 0.0
C1373 C 0.34994 0.89919 0.30934 0.0
C1374 C 0.31505 0.91406 0.30304 0.0
H1375 H 0.27927 0.86336 0.31713 0.0
C1376 C 0.23601 0.88721 0.30597 0.0
C1377 C 0.22538 0.87468 0.31819 0.0
C1378 C 0.25487 0.89275 0.30407 0.0
C1379 C 0.28916 0.87769 0.31352 0.0
H1380 H 0.37012 0.92392 0.26886 0.0
H1381 H 0.3395 0.91823 0.27747 0.0
H1382 H 0.31128 0.87133 0.311 0.0
H1383 H 0.22649 0.8585 0.33827 0.0
H1384 H 0.25957 0.8685 0.33513 0.0
H1385 H 0.293 0.92047 0.30554 0.0
C1386 C 0.34729 0.914 0.28523 0.0
C1387 C 0.30749 0.88222 0.30996 0.0
C1388 C 0.36485 0.91728 0.28032 0.0
C1389 C 0.23422 0.86811 0.32868 0.0
C1390 C 0.25316 0.87376 0.32683 0.0
C1391 C 0.29677 0.90958 0.30673 0.0
C1392 C 0.33958 0.90475 0.29971 0.0
C1393 C 0.32053 0.90037 0.30447 0.0
C1394 C 0.26367 0.88602 0.31441 0.0
C1395 C 0.28352 0.89125 0.31177 0.0
H1396 H 0.37526 0.8983 0.31229 0.0
H1397 H 0.34444 0.89225 0.32066 0.0
H1398 H 0.32491 0.92824 0.29906 0.0
H1399 H 0.22969 0.8925 0.2976 0.0
H1400 H 0.26242 0.90193 0.2942 0.0
C1401 C 0.1791 0.51224 0.28802 0.0
C1402 C 0.16422 0.50794 0.27736 0.0
C1403 C 0.1823 0.49797 0.29361 0.0
C1404 C 0.16995 0.44769 0.28658 0.0
H1405 H 0.1827 0.45055 0.33159 0.0
C1406 C 0.15917 0.38404 0.32506 0.0
C1407 C 0.17204 0.38766 0.33748 0.0
C1408 C 0.16118 0.39877 0.31522 0.0
C1409 C 0.1795 0.44967 0.31892 0.0
H1410 H 0.14146 0.48519 0.26378 0.0
H1411 H 0.14654 0.46026 0.27404 0.0
H1412 H 0.18013 0.47614 0.31961 0.0
H1413 H 0.19738 0.40909 0.34916 0.0
H1414 H 0.2013 0.43478 0.33175 0.0
H1415 H 0.16861 0.4207 0.28622 0.0
C1416 C 0.15595 0.47472 0.2779 0.0
C1417 C 0.17802 0.46439 0.31202 0.0
C1418 C 0.15285 0.48902 0.27221 0.0
C1419 C 0.1875 0.40594 0.33942 0.0
C1420 C 0.18959 0.42064 0.32958 0.0
C1421 C 0.17131 0.43283 0.29355 0.0
C1422 C 0.1706 0.47897 0.28881 0.0
C1423 C 0.17311 0.46359 0.29579 0.0
C1424 C 0.17602 0.41739 0.31782 0.0
C1425 C 0.17601 0.43363 0.30983 0.0
H1426 H 0.18807 0.52658 0.29238 0.0
H1427 H 0.1939 0.50186 0.3018 0.0
H1428 H 0.16638 0.44669 0.27399 0.0
H1429 H 0.14677 0.37017 0.32374 0.0
H1430 H 0.15039 0.39582 0.30639 0.0
C1431 C 0.36508 0.45664 0.2879 0.0
C1432 C 0.37053 0.47585 0.28948 0.0
C1433 C 0.34756 0.44266 0.29334 0.0
C1434 C 0.30585 0.43522 0.31708 0.0
H1435 H 0.2809 0.3896 0.29098 0.0
C1436 C 0.23081 0.37385 0.33108 0.0
C1437 C 0.21929 0.36388 0.31794 0.0
C1438 C 0.24975 0.38727 0.32881 0.0
C1439 C 0.28752 0.40234 0.29832 0.0
H1440 H 0.36233 0.49571 0.29807 0.0
H1441 H 0.33133 0.47139 0.30683 0.0
H1442 H 0.31275 0.41344 0.28494 0.0
H1443 H 0.21829 0.36074 0.29211 0.0
H1444 H 0.25082 0.38458 0.28807 0.0
H1445 H 0.28004 0.42455 0.32976 0.0
C1446 C 0.34069 0.46695 0.30196 0.0
C1447 C 0.30604 0.41593 0.29504 0.0
C1448 C 0.35839 0.48093 0.29684 0.0
C1449 C 0.2269 0.36796 0.3025 0.0
C1450 C 0.24565 0.38157 0.30021 0.0
C1451 C 0.28714 0.42174 0.32018 0.0
C1452 C 0.33491 0.44759 0.30009 0.0
C1453 C 0.31547 0.43265 0.30429 0.0
C1454 C 0.25745 0.39121 0.31333 0.0
C1455 C 0.27765 0.40521 0.31071 0.0
H1456 H 0.37435 0.45246 0.28238 0.0
H1457 H 0.34391 0.42798 0.29206 0.0
H1458 H 0.31268 0.44773 0.32467 0.0
H1459 H 0.22531 0.37094 0.34312 0.0
H1460 H 0.2584 0.39425 0.33923 0.0
C1461 C 0.51671 0.88059 0.30959 0.0
C1462 C 0.51856 0.89816 0.31373 0.0
C1463 C 0.52957 0.8756 0.31529 0.0
C1464 C 0.57862 0.89893 0.3288 0.0
H1465 H 0.56746 0.84701 0.3334 0.0
C1466 C 0.63369 0.87747 0.317 0.0
C1467 C 0.63383 0.86317 0.32616 0.0
C1468 C 0.61947 0.88183 0.3188 0.0
C1469 C 0.57084 0.86163 0.33243 0.0
H1470 H 0.53436 0.92369 0.32801 0.0
H1471 H 0.55661 0.9148 0.33837 0.0
H1472 H 0.54187 0.85381 0.33208 0.0
H1473 H 0.61914 0.84237 0.34462 0.0
H1474 H 0.59436 0.85016 0.34793 0.0
H1475 H 0.60755 0.90677 0.32921 0.0
C1476 C 0.54555 0.90508 0.33035 0.0
C1477 C 0.55615 0.8655 0.33149 0.0
C1478 C 0.53279 0.91016 0.32448 0.0
C1479 C 0.61944 0.85342 0.33733 0.0
C1480 C 0.6052 0.85785 0.33918 0.0
C1481 C 0.59327 0.89508 0.32988 0.0
C1482 C 0.54447 0.88803 0.32538 0.0
C1483 C 0.55986 0.88414 0.32915 0.0
C1484 C 0.60503 0.87207 0.3299 0.0
C1485 C 0.58955 0.87633 0.33116 0.0
H1486 H 0.50598 0.87116 0.30118 0.0
H1487 H 0.52842 0.86249 0.31101 0.0
H1488 H 0.58208 0.91344 0.32687 0.0
H1489 H 0.64449 0.88523 0.3082 0.0
H1490 H 0.61956 0.89257 0.31121 0.0
C1491 C 0.17177 0.68327 0.26891 0.0
C1492 C 0.18142 0.67488 0.27572 0.0
C1493 C 0.17499 0.70088 0.27438 0.0
C1494 C 0.1937 0.73291 0.30973 0.0
H1495 H 0.18676 0.76706 0.28217 0.0
C1496 C 0.19818 0.79969 0.33583 0.0
C1497 C 0.1817 0.80035 0.33326 0.0
C1498 C 0.20226 0.78816 0.32621 0.0
C1499 C 0.18886 0.7577 0.28996 0.0
H1500 H 0.20241 0.6785 0.29321 0.0
H1501 H 0.20863 0.70964 0.30244 0.0
H1502 H 0.18643 0.73926 0.2706 0.0
H1503 H 0.15677 0.79002 0.3186 0.0
H1504 H 0.16403 0.77009 0.30145 0.0
H1505 H 0.19607 0.7513 0.32906 0.0
C1506 C 0.19815 0.70242 0.29318 0.0
C1507 C 0.18853 0.74168 0.28339 0.0
C1508 C 0.19467 0.68462 0.28787 0.0
C1509 C 0.1699 0.79023 0.32038 0.0
C1510 C 0.174 0.77874 0.31067 0.0
C1511 C 0.19433 0.74902 0.31623 0.0
C1512 C 0.18814 0.71068 0.28667 0.0
C1513 C 0.19053 0.72883 0.29325 0.0
C1514 C 0.18979 0.77695 0.31397 0.0
C1515 C 0.19158 0.7614 0.30648 0.0
H1516 H 0.16129 0.67593 0.25965 0.0
H1517 H 0.16668 0.70647 0.26929 0.0
H1518 H 0.19492 0.72325 0.31781 0.0
H1519 H 0.20722 0.80705 0.34598 0.0
H1520 H 0.21456 0.78711 0.32896 0.0
C1521 C 0.84271 0.98817 0.38583 0.0
C1522 C 0.83774 0.99627 0.39838 0.0
C1523 C 0.83016 0.96978 0.38041 0.0
C1524 C 0.78366 0.92666 0.38936 0.0
H1525 H 0.78082 0.92169 0.34313 0.0
C1526 C 0.71641 0.88286 0.35224 0.0
C1527 C 0.71752 0.8744 0.33797 0.0
C1528 C 0.73224 0.89274 0.36204 0.0
C1529 C 0.78163 0.92261 0.35608 0.0
H1530 H 0.816 0.99154 0.4153 0.0
H1531 H 0.79382 0.95993 0.40549 0.0
H1532 H 0.80701 0.94919 0.35548 0.0
H1533 H 0.73548 0.86889 0.32279 0.0
H1534 H 0.76328 0.88609 0.33997 0.0
H1535 H 0.7573 0.90059 0.38966 0.0
C1536 C 0.80757 0.9673 0.40013 0.0
C1537 C 0.79673 0.93843 0.36321 0.0
C1538 C 0.82024 0.98552 0.40571 0.0
C1539 C 0.73431 0.87501 0.33398 0.0
C1540 C 0.75017 0.88493 0.34373 0.0
C1541 C 0.76836 0.91094 0.38217 0.0
C1542 C 0.81221 0.95928 0.38721 0.0
C1543 C 0.79771 0.94096 0.37993 0.0
C1544 C 0.74947 0.89455 0.3575 0.0
C1545 C 0.76701 0.90902 0.36544 0.0
H1546 H 0.85623 0.99615 0.3801 0.0
H1547 H 0.8344 0.96397 0.37067 0.0
H1548 H 0.78414 0.92788 0.40229 0.0
H1549 H 0.70371 0.88306 0.35519 0.0
H1550 H 0.73134 0.90024 0.37245 0.0
C1551 C 0.97412 0.77385 0.39831 0.0
C1552 C 0.9597 0.7689 0.38694 0.0
C1553 C 0.99227 0.77906 0.39343 0.0
C1554 C 0.01843 0.77247 0.36177 0.0
H1555 H 0.06086 0.81928 0.37758 0.0
C1556 C 0.09582 0.79028 0.35965 0.0
C1557 C 0.10891 0.80831 0.35397 0.0
C1558 C 0.07718 0.78544 0.36205 0.0
C1559 C 0.04911 0.80624 0.37301 0.0
H1560 H 0.95336 0.76586 0.36145 0.0
H1561 H 0.98487 0.77419 0.3531 0.0
H1562 H 0.02901 0.81088 0.38543 0.0
H1563 H 0.11274 0.83535 0.34616 0.0
H1564 H 0.08017 0.82697 0.35076 0.0
H1565 H 0.03859 0.76757 0.34972 0.0
C1566 C 0.982 0.77406 0.36576 0.0
C1567 C 0.03097 0.80138 0.37758 0.0
C1568 C 0.96393 0.76917 0.37059 0.0
C1569 C 0.10293 0.8213 0.35045 0.0
C1570 C 0.08436 0.81658 0.35317 0.0
C1571 C 0.03661 0.77715 0.35744 0.0
C1572 C 0.99633 0.77914 0.37713 0.0
C1573 C 0.01549 0.78445 0.37202 0.0
C1574 C 0.07139 0.79867 0.35912 0.0
C1575 C 0.05209 0.79407 0.36304 0.0
H1576 H 0.97138 0.77347 0.411 0.0
H1577 H 0.00308 0.78273 0.40243 0.0
H1578 H 0.00669 0.75929 0.35739 0.0
H1579 H 0.10002 0.77997 0.36241 0.0
H1580 H 0.06744 0.77158 0.36674 0.0
C1581 C 0.20823 0.20042 0.40518 0.0
C1582 C 0.19697 0.18133 0.40052 0.0
C1583 C 0.20347 0.21394 0.40059 0.0
C1584 C 0.16431 0.21979 0.38618 0.0
H1585 H 0.20336 0.26512 0.36614 0.0
C1586 C 0.14874 0.2654 0.34351 0.0
C1587 C 0.1617 0.28479 0.34232 0.0
C1588 C 0.15213 0.25405 0.35388 0.0
C1589 C 0.19233 0.25281 0.37203 0.0
H1590 H 0.17163 0.16134 0.38779 0.0
H1591 H 0.16331 0.18498 0.37975 0.0
H1592 H 0.21108 0.24276 0.37806 0.0
H1593 H 0.18838 0.30767 0.3508 0.0
H1594 H 0.19416 0.28807 0.36933 0.0
H1595 H 0.14551 0.22974 0.38004 0.0
C1596 C 0.17579 0.18946 0.38699 0.0
C1597 C 0.19678 0.23993 0.37881 0.0
C1598 C 0.18066 0.17598 0.39144 0.0
C1599 C 0.17789 0.29283 0.35193 0.0
C1600 C 0.18135 0.28151 0.36229 0.0
C1601 C 0.15988 0.23278 0.37954 0.0
C1602 C 0.18725 0.20862 0.39138 0.0
C1603 C 0.18276 0.22309 0.38565 0.0
C1604 C 0.16875 0.26186 0.36308 0.0
C1605 C 0.17376 0.24926 0.37205 0.0
H1606 H 0.22095 0.20498 0.41209 0.0
H1607 H 0.21252 0.22858 0.4042 0.0
H1608 H 0.15327 0.20706 0.39159 0.0
H1609 H 0.13648 0.25883 0.33577 0.0
H1610 H 0.14228 0.23896 0.35388 0.0
C1611 C 0.63782 0.52547 0.72543 0.0
C1612 C 0.63124 0.50741 0.71855 0.0
C1613 C 0.65371 0.54129 0.71942 0.0
C1614 C 0.69682 0.55472 0.69707 0.0
H1615 H 0.69931 0.60337 0.69406 0.0
C1616 C 0.76365 0.62162 0.67546 0.0
C1617 C 0.7692 0.63824 0.68452 0.0
C1618 C 0.74591 0.60564 0.67755 0.0
C1619 C 0.69889 0.58991 0.69492 0.0
H1620 H 0.636 0.49198 0.69962 0.0
H1621 H 0.66389 0.51961 0.68923 0.0
H1622 H 0.66998 0.57542 0.70165 0.0
H1623 H 0.76013 0.65115 0.7026 0.0
H1624 H 0.72949 0.62336 0.70634 0.0
H1625 H 0.72584 0.56926 0.69076 0.0
C1626 C 0.65681 0.52145 0.69939 0.0
C1627 C 0.68207 0.5739 0.69926 0.0
C1628 C 0.64085 0.50562 0.70537 0.0
C1629 C 0.75639 0.63864 0.69539 0.0
C1630 C 0.73871 0.6227 0.69747 0.0
C1631 C 0.71367 0.57075 0.69279 0.0
C1632 C 0.66348 0.53945 0.70641 0.0
C1633 C 0.68092 0.55617 0.70061 0.0
C1634 C 0.73332 0.60592 0.68873 0.0
C1635 C 0.71499 0.58861 0.69189 0.0
H1636 H 0.631 0.52734 0.73577 0.0
H1637 H 0.65866 0.55489 0.72527 0.0
H1638 H 0.69646 0.54131 0.69819 0.0
H1639 H 0.77311 0.62078 0.66696 0.0
H1640 H 0.74212 0.59303 0.67048 0.0
C1641 C 0.48284 0.11926 0.68289 0.0
C1642 C 0.47778 0.10946 0.69749 0.0
C1643 C 0.4704 0.12351 0.67497 0.0
C1644 C 0.42018 0.10839 0.6728 0.0
H1645 H 0.43619 0.15954 0.65898 0.0
C1646 C 0.38504 0.15727 0.66883 0.0
C1647 C 0.367 0.14294 0.66435 0.0
C1648 C 0.40026 0.15428 0.66725 0.0
C1649 C 0.43151 0.14517 0.66271 0.0
H1650 H 0.45603 0.09713 0.71546 0.0
H1651 H 0.43445 0.10428 0.70164 0.0
H1652 H 0.45955 0.15145 0.66812 0.0
H1653 H 0.35079 0.1154 0.65304 0.0
H1654 H 0.37746 0.1106 0.6493 0.0
H1655 H 0.39223 0.1022 0.66862 0.0
C1656 C 0.4478 0.10833 0.69612 0.0
C1657 C 0.44491 0.1405 0.66778 0.0
C1658 C 0.46017 0.10419 0.70403 0.0
C1659 C 0.36463 0.12651 0.65673 0.0
C1660 C 0.37987 0.12374 0.65473 0.0
C1661 C 0.40686 0.11302 0.66783 0.0
C1662 C 0.4527 0.11793 0.68147 0.0
C1663 C 0.43925 0.12223 0.67343 0.0
C1664 C 0.39765 0.13704 0.6609 0.0
C1665 C 0.41226 0.13162 0.66318 0.0
H1666 H 0.49628 0.12344 0.67752 0.0
H1667 H 0.47451 0.13092 0.66369 0.0
H1668 H 0.41545 0.0941 0.67683 0.0
H1669 H 0.38709 0.17003 0.67478 0.0
H1670 H 0.41368 0.16483 0.67219 0.0
C1671 C 0.85975 0.35261 0.71155 0.0
C1672 C 0.85051 0.35624 0.72397 0.0
C1673 C 0.85517 0.33409 0.70778 0.0
C1674 C 0.81882 0.28397 0.71153 0.0
H1675 H 0.86062 0.27649 0.7017 0.0
C1676 C 0.83922 0.22507 0.68604 0.0
C1677 C 0.82677 0.2184 0.67302 0.0
C1678 C 0.83915 0.23831 0.69673 0.0
C1679 C 0.84873 0.2781 0.70475 0.0
H1680 H 0.82885 0.34324 0.74193 0.0
H1681 H 0.82075 0.31071 0.73525 0.0
H1682 H 0.86662 0.30725 0.71102 0.0
H1683 H 0.80402 0.21952 0.66112 0.0
H1684 H 0.80391 0.24271 0.67958 0.0
H1685 H 0.80093 0.25476 0.70505 0.0
C1686 C 0.8315 0.32226 0.72841 0.0
C1687 C 0.85221 0.2959 0.70983 0.0
C1688 C 0.8361 0.34086 0.73219 0.0
C1689 C 0.81343 0.22415 0.67137 0.0
C1690 C 0.8134 0.23745 0.68197 0.0
C1691 C 0.81532 0.26607 0.70644 0.0
C1692 C 0.84126 0.31873 0.71637 0.0
C1693 C 0.83732 0.2992 0.71279 0.0
C1694 C 0.8269 0.24541 0.6943 0.0
C1695 C 0.83025 0.26308 0.70257 0.0
H1696 H 0.87068 0.36414 0.70482 0.0
H1697 H 0.86261 0.3318 0.69816 0.0
H1698 H 0.80705 0.28608 0.71377 0.0
H1699 H 0.85007 0.22135 0.68721 0.0
H1700 H 0.84955 0.24391 0.70625 0.0
C1701 C 0.17635 0.00952 0.60226 0.0
C1702 C 0.16005 0.99631 0.61023 0.0
C1703 C 0.18681 0.02816 0.60786 0.0
C1704 C 0.19737 0.05301 0.64606 0.0
H1705 H 0.22995 0.0966 0.62034 0.0
C1706 C 0.26062 0.11352 0.67587 0.0
C1707 C 0.2773 0.11874 0.66772 0.0
C1708 C 0.24346 0.10433 0.66775 0.0
C1709 C 0.2209 0.0846 0.62771 0.0
H1710 H 0.14109 0.99265 0.62958 0.0
H1711 H 0.15927 0.02536 0.63929 0.0
H1712 H 0.20382 0.06869 0.60764 0.0
H1713 H 0.28957 0.11961 0.64469 0.0
H1714 H 0.25962 0.10284 0.6305 0.0
H1715 H 0.21487 0.06809 0.6659 0.0
C1716 C 0.16411 0.02119 0.62883 0.0
C1717 C 0.20592 0.06863 0.62043 0.0
C1718 C 0.15363 0.00249 0.62321 0.0
C1719 C 0.27684 0.11599 0.65112 0.0
C1720 C 0.25961 0.10636 0.64302 0.0
C1721 C 0.21231 0.06887 0.65329 0.0
C1722 C 0.18118 0.03404 0.62157 0.0
C1723 C 0.1944 0.0524 0.62946 0.0
C1724 C 0.24266 0.09949 0.65145 0.0
C1725 C 0.22468 0.08463 0.64414 0.0
H1726 H 0.18145 0.00524 0.59202 0.0
H1727 H 0.19992 0.03759 0.60202 0.0
H1728 H 0.189 0.0407 0.65336 0.0
H1729 H 0.26076 0.11557 0.68871 0.0
H1730 H 0.23074 0.09977 0.67452 0.0
C1731 C 0.0336 0.24223 0.61807 0.0
C1732 C 0.03626 0.22673 0.61516 0.0
C1733 C 0.01619 0.23936 0.62306 0.0
C1734 C 0.96583 0.20196 0.62534 0.0
H1735 H 0.96334 0.23745 0.65499 0.0
C1736 C 0.89679 0.18791 0.65441 0.0
C1737 C 0.89236 0.20216 0.65136 0.0
C1738 C 0.91483 0.19113 0.65148 0.0
C1739 C 0.9639 0.22745 0.64672 0.0
H1740 H 0.02238 0.19598 0.61491 0.0
H1741 H 0.9926 0.19105 0.62446 0.0
H1742 H 0.99387 0.24253 0.64657 0.0
H1743 H 0.9035 0.23121 0.64374 0.0
H1744 H 0.93519 0.23695 0.63904 0.0
H1745 H 0.93582 0.1867 0.62586 0.0
C1746 C 0.00377 0.20546 0.62254 0.0
C1747 C 0.98135 0.23041 0.64177 0.0
C1748 C 0.02103 0.20831 0.6173 0.0
C1749 C 0.90652 0.21996 0.64612 0.0
C1750 C 0.92464 0.22328 0.6435 0.0
C1751 C 0.94844 0.19884 0.63052 0.0
C1752 C 0.00107 0.22093 0.62546 0.0
C1753 C 0.98254 0.21776 0.63093 0.0
C1754 C 0.92882 0.20876 0.64579 0.0
C1755 C 0.94733 0.21161 0.64116 0.0
H1756 H 0.04503 0.25663 0.61673 0.0
H1757 H 0.0146 0.25163 0.62494 0.0
H1758 H 0.96611 0.19213 0.61672 0.0
H1759 H 0.88612 0.17403 0.65836 0.0
H1760 H 0.91779 0.17975 0.65338 0.0
C1761 C 0.83518 0.83735 0.59548 0.0
C1762 C 0.82081 0.84008 0.60161 0.0
C1763 C 0.83728 0.82223 0.60067 0.0
C1764 C 0.81162 0.77586 0.6211 0.0
H1765 H 0.86134 0.78445 0.63082 0.0
C1766 C 0.84543 0.74239 0.6652 0.0
C1767 C 0.83231 0.72309 0.66315 0.0
C1768 C 0.84606 0.7557 0.65439 0.0
C1769 C 0.84736 0.7818 0.62812 0.0
H1770 H 0.79763 0.82926 0.61823 0.0
H1771 H 0.80137 0.80307 0.62738 0.0
H1772 H 0.8578 0.80977 0.61902 0.0
H1773 H 0.80953 0.70245 0.64837 0.0
H1774 H 0.81102 0.72551 0.62906 0.0
H1775 H 0.80107 0.7483 0.63097 0.0
C1776 C 0.81077 0.81233 0.61829 0.0
C1777 C 0.84533 0.79626 0.62122 0.0
C1778 C 0.80865 0.82739 0.61308 0.0
C1779 C 0.82033 0.71716 0.64979 0.0
C1780 C 0.82092 0.73045 0.63896 0.0
C1781 C 0.81363 0.76144 0.62803 0.0
C1782 C 0.82508 0.80952 0.61213 0.0
C1783 C 0.8274 0.79361 0.61798 0.0
C1784 C 0.83334 0.74995 0.64145 0.0
C1785 C 0.83151 0.76435 0.63196 0.0
H1786 H 0.84462 0.84673 0.58647 0.0
H1787 H 0.84832 0.82037 0.59556 0.0
H1788 H 0.79762 0.7732 0.61849 0.0
H1789 H 0.85445 0.74731 0.67569 0.0
H1790 H 0.8556 0.77058 0.65688 0.0
C1791 C 0.03062 0.80436 0.62079 0.0
C1792 C 0.03458 0.8232 0.6213 0.0
C1793 C 0.01341 0.78976 0.6262 0.0
C1794 C 0.96956 0.78005 0.64777 0.0
H1795 H 0.94875 0.73309 0.62348 0.0
C1796 C 0.89584 0.71554 0.66097 0.0
C1797 C 0.88544 0.70437 0.64779 0.0
C1798 C 0.91453 0.72993 0.65909 0.0
C1799 C 0.95418 0.74617 0.63029 0.0
H1800 H 0.02401 0.84176 0.628 0.0
H1801 H 0.99355 0.81628 0.6367 0.0
H1802 H 0.9801 0.75833 0.61785 0.0
H1803 H 0.88612 0.70011 0.62221 0.0
H1804 H 0.91811 0.72553 0.61879 0.0
H1805 H 0.94301 0.7682 0.65946 0.0
C1806 C 0.00385 0.81266 0.63269 0.0
C1807 C 0.97245 0.76061 0.62728 0.0
C1808 C 0.02125 0.8273 0.62762 0.0
C1809 C 0.89387 0.70824 0.63266 0.0
C1810 C 0.91233 0.72278 0.63074 0.0
C1811 C 0.9511 0.76569 0.6506 0.0
C1812 C -0.00045 0.79362 0.63184 0.0
C1813 C 0.9804 0.77785 0.63587 0.0
C1814 C 0.92308 0.73363 0.64395 0.0
C1815 C 0.94307 0.74863 0.64174 0.0
H1816 H 0.04082 0.80094 0.61609 0.0
H1817 H 0.01094 0.77541 0.62575 0.0
H1818 H 0.97523 0.79294 0.65487 0.0
H1819 H 0.8897 0.71284 0.67278 0.0
H1820 H 0.92236 0.73786 0.66958 0.0
C1821 C 0.18712 0.22031 0.65547 0.0
C1822 C 0.17079 0.20721 0.64724 0.0
C1823 C 0.19735 0.21411 0.66437 0.0
C1824 C 0.20608 0.17427 0.66425 0.0
H1825 H 0.24082 0.20399 0.69825 0.0
C1826 C 0.26972 0.16641 0.67773 0.0
C1827 C 0.28624 0.18385 0.67547 0.0
C1828 C 0.2527 0.16584 0.68035 0.0
C1829 C 0.23101 0.19537 0.68892 0.0
H1830 H 0.1514 0.17737 0.64293 0.0
H1831 H 0.169 0.16644 0.65883 0.0
H1832 H 0.21473 0.20899 0.69165 0.0
H1833 H 0.29828 0.21436 0.67567 0.0
H1834 H 0.26869 0.21339 0.68032 0.0
H1835 H 0.22278 0.16122 0.66106 0.0
C1836 C 0.17424 0.18152 0.65804 0.0
C1837 C 0.21615 0.19831 0.68506 0.0
C1838 C 0.16415 0.18775 0.64896 0.0
C1839 C 0.28572 0.20072 0.67719 0.0
C1840 C 0.2688 0.20016 0.68003 0.0
C1841 C 0.22079 0.17121 0.66821 0.0
C1842 C 0.19133 0.19466 0.66538 0.0
C1843 C 0.20408 0.18845 0.67214 0.0
C1844 C 0.25202 0.18271 0.68102 0.0
C1845 C 0.23391 0.18237 0.68006 0.0
H1846 H 0.19258 0.2354 0.65426 0.0
H1847 H 0.21056 0.22469 0.66962 0.0
H1848 H 0.19722 0.16652 0.65413 0.0
H1849 H 0.26973 0.15319 0.67649 0.0
H1850 H 0.23995 0.15221 0.68111 0.0
C1851 C 0.86286 0.01987 0.61397 0.0
C1852 C 0.85012 0.01124 0.60125 0.0
C1853 C 0.86685 0.03765 0.61984 0.0
C1854 C 0.85943 0.07863 0.61128 0.0
H1855 H 0.86267 0.08403 0.65748 0.0
C1856 C 0.8358 0.12235 0.64898 0.0
C1857 C 0.84589 0.13118 0.66297 0.0
C1858 C 0.84148 0.11229 0.63906 0.0
C1859 C 0.86219 0.08297 0.64453 0.0
H1860 H 0.8316 0.01433 0.58466 0.0
H1861 H 0.8379 0.04482 0.5952 0.0
H1862 H 0.86255 0.05703 0.64505 0.0
H1863 H 0.87001 0.13712 0.67752 0.0
H1864 H 0.88012 0.11965 0.66016 0.0
H1865 H 0.85776 0.10408 0.61105 0.0
C1866 C 0.84541 0.03838 0.60035 0.0
C1867 C 0.86215 0.06745 0.63736 0.0
C1868 C 0.84168 0.0208 0.59435 0.0
C1869 C 0.86229 0.13073 0.66655 0.0
C1870 C 0.86796 0.12063 0.6567 0.0
C1871 C 0.85918 0.09404 0.6185 0.0
C1872 C 0.8579 0.04698 0.6133 0.0
C1873 C 0.86037 0.06482 0.62066 0.0
C1874 C 0.85714 0.11064 0.64324 0.0
C1875 C 0.86023 0.09617 0.63522 0.0
H1876 H 0.86968 0.01285 0.6194 0.0
H1877 H 0.87681 0.04395 0.62961 0.0
H1878 H 0.85845 0.07733 0.59836 0.0
H1879 H 0.82272 0.12197 0.64638 0.0
H1880 H 0.83273 0.10454 0.62889 0.0
C1881 C 0.48886 0.31953 0.73347 0.0
C1882 C 0.50488 0.33197 0.72476 0.0
C1883 C 0.47584 0.30182 0.72712 0.0
C1884 C 0.45891 0.27856 0.68802 0.0
H1885 H 0.42751 0.23463 0.71387 0.0
C1886 C 0.39379 0.21685 0.66018 0.0
C1887 C 0.3775 0.21172 0.66895 0.0
C1888 C 0.41138 0.22697 0.66755 0.0
C1889 C 0.43622 0.24675 0.70649 0.0
H1890 H 0.52038 0.33516 0.703 0.0
H1891 H 0.49774 0.3041 0.69195 0.0
H1892 H 0.45533 0.26157 0.72579 0.0
H1893 H 0.36644 0.21253 0.69212 0.0
H1894 H 0.39715 0.23028 0.70516 0.0
H1895 H 0.43957 0.26421 0.66891 0.0
C1896 C 0.49504 0.30819 0.70356 0.0
C1897 C 0.45212 0.2622 0.71331 0.0
C1898 C 0.50802 0.32598 0.70987 0.0
C1899 C 0.37888 0.21581 0.68535 0.0
C1900 C 0.39648 0.22607 0.69274 0.0
C1901 C 0.44311 0.26314 0.68121 0.0
C1902 C 0.47855 0.29609 0.71193 0.0
C1903 C 0.46337 0.27851 0.70426 0.0
C1904 C 0.41295 0.2325 0.68373 0.0
C1905 C 0.4313 0.24725 0.69045 0.0
H1906 H 0.48592 0.32383 0.74488 0.0
H1907 H 0.46318 0.29306 0.7338 0.0
H1908 H 0.467 0.29096 0.68074 0.0
H1909 H 0.39295 0.214 0.64743 0.0
H1910 H 0.42378 0.23145 0.66034 0.0
C1911 C 0.64238 0.13001 0.71784 0.0
C1912 C 0.62824 0.11104 0.71959 0.0
C1913 C 0.65979 0.13442 0.71159 0.0
C1914 C 0.684 0.11305 0.68931 0.0
H1915 H 0.72872 0.15629 0.7069 0.0
C1916 C 0.75885 0.12422 0.68522 0.0
C1917 C 0.77336 0.14241 0.68122 0.0
C1918 C 0.74065 0.1208 0.68751 0.0
C1919 C 0.71632 0.14433 0.70173 0.0
H1920 H 0.62115 0.08181 0.71645 0.0
H1921 H 0.65177 0.08941 0.70618 0.0
H1922 H 0.69801 0.14945 0.71624 0.0
H1923 H 0.78014 0.1712 0.67605 0.0
H1924 H 0.74828 0.16526 0.68043 0.0
H1925 H 0.70261 0.1075 0.67541 0.0
C1926 C 0.64933 0.10095 0.70908 0.0
C1927 C 0.6987 0.1404 0.70704 0.0
C1928 C 0.63182 0.09655 0.71508 0.0
C1929 C 0.76921 0.157 0.67905 0.0
C1930 C 0.75105 0.15366 0.68164 0.0
C1931 C 0.70167 0.11682 0.68421 0.0
C1932 C 0.66354 0.11995 0.7072 0.0
C1933 C 0.68229 0.12461 0.701 0.0
C1934 C 0.73669 0.1356 0.68611 0.0
C1935 C 0.71797 0.13241 0.69046 0.0
H1936 H 0.63983 0.14142 0.72104 0.0
H1937 H 0.67022 0.1492 0.71005 0.0
H1938 H 0.67171 0.10102 0.68411 0.0
H1939 H 0.76164 0.11269 0.68692 0.0
H1940 H 0.72983 0.10679 0.69105 0.0
C1941 C 0.86291 0.53348 0.7413 0.0
C1942 C 0.85324 0.51513 0.73461 0.0
C1943 C 0.85878 0.54734 0.73639 0.0
C1944 C 0.82281 0.5546 0.71693 0.0
H1945 H 0.86485 0.60156 0.702 0.0
C1946 C 0.81442 0.60295 0.67212 0.0
C1947 C 0.82754 0.62237 0.6721 0.0
C1948 C 0.81603 0.59104 0.68313 0.0
C1949 C 0.85293 0.58879 0.70647 0.0
H1950 H 0.8313 0.49669 0.71796 0.0
H1951 H 0.82396 0.52091 0.70945 0.0
H1952 H 0.87053 0.57832 0.71499 0.0
H1953 H 0.85265 0.64474 0.68334 0.0
H1954 H 0.85523 0.62414 0.70304 0.0
H1955 H 0.80516 0.56496 0.70836 0.0
C1956 C 0.83473 0.52455 0.71847 0.0
C1957 C 0.85623 0.57541 0.71385 0.0
C1958 C 0.83904 0.51077 0.72322 0.0
C1959 C 0.84202 0.62987 0.68351 0.0
C1960 C 0.84367 0.61797 0.69456 0.0
C1961 C 0.8195 0.5681 0.70974 0.0
C1962 C 0.84471 0.54303 0.72487 0.0
C1963 C 0.84119 0.558 0.71878 0.0
C1964 C 0.83101 0.5983 0.69421 0.0
C1965 C 0.8345 0.58517 0.70402 0.0
H1966 H 0.874 0.53724 0.75003 0.0
H1967 H 0.86665 0.56146 0.74152 0.0
H1968 H 0.81098 0.54137 0.72084 0.0
H1969 H 0.8035 0.59683 0.66304 0.0
H1970 H 0.80624 0.57596 0.68221 0.0
C1971 C 0.49115 0.93571 0.1721 0.0
C1972 C 0.49573 0.95024 0.18345 0.0
C1973 C 0.49585 0.94002 0.15602 0.0
C1974 C 0.52552 0.97913 0.12847 0.0
H1975 H 0.48493 0.9508 0.09823 0.0
C1976 C 0.51859 0.00878 0.06842 0.0
C1977 C 0.50917 0.9963 0.05562 0.0
C1978 C 0.52102 0.0019 0.08296 0.0
C1979 C 0.49663 0.9586 0.10638 0.0
H1980 H 0.5095 0.98069 0.18692 0.0
H1981 H 0.5174 0.98821 0.15881 0.0
H1982 H 0.48122 0.94106 0.12598 0.0
H1983 H 0.4951 0.96701 0.04788 0.0
H1984 H 0.50013 0.95498 0.07295 0.0
H1985 H 0.54069 0.99704 0.10889 0.0
C1986 C 0.51032 0.97349 0.16236 0.0
C1987 C 0.49446 0.95302 0.12235 0.0
C1988 C 0.50557 0.96918 0.17843 0.0
C1989 C 0.50312 0.97698 0.05731 0.0
C1990 C 0.50561 0.97008 0.07182 0.0
C1991 C 0.52772 0.98468 0.11246 0.0
C1992 C 0.50528 0.95895 0.15093 0.0
C1993 C 0.50867 0.96351 0.13366 0.0
C1994 C 0.51396 0.98237 0.08501 0.0
C1995 C 0.51309 0.97478 0.10131 0.0
H1996 H 0.48346 0.92097 0.17555 0.0
H1997 H 0.4919 0.92851 0.14752 0.0
H1998 H 0.53685 0.98731 0.13686 0.0
H1999 H 0.52322 0.02373 0.06746 0.0
H2000 H 0.5273 0.01177 0.09288 0.0
C2001 C 0.06653 0.54952 0.17895 0.0
C2002 C 0.08611 0.55777 0.17799 0.0
C2003 C 0.05568 0.54568 0.16504 0.0
C2004 C 0.05903 0.55751 0.12194 0.0
H2005 H 0.0148 0.50775 0.11762 0.0
C2006 C 0.02905 0.52054 0.06152 0.0
C2007 C 0.00965 0.50857 0.05987 0.0
C2008 C 0.03676 0.52965 0.07609 0.0
C2009 C 0.02686 0.52187 0.11872 0.0
H2010 H 0.1096 0.56813 0.1617 0.0
H2011 H 0.09073 0.56138 0.13753 0.0
H2012 H 0.03131 0.51753 0.14319 0.0
H2013 H 0.98293 0.49682 0.07187 0.0
H2014 H 0.99635 0.51286 0.09744 0.0
H2015 H 0.05493 0.56155 0.09728 0.0
C2016 C 0.08377 0.55828 0.14901 0.0
C2017 C 0.03635 0.52746 0.13339 0.0
C2018 C 0.09459 0.56209 0.16286 0.0
C2019 C 0.99796 0.50619 0.07287 0.0
C2020 C 0.00564 0.51527 0.08748 0.0
C2021 C 0.04955 0.55191 0.10727 0.0
C2022 C 0.0642 0.55002 0.14992 0.0
C2023 C 0.0528 0.54514 0.13503 0.0
C2024 C 0.02517 0.52672 0.08935 0.0
C2025 C 0.03363 0.53385 0.1054 0.0
H2026 H 0.05963 0.54624 0.19045 0.0
H2027 H 0.04063 0.53942 0.16612 0.0
H2028 H 0.07148 0.57138 0.12294 0.0
H2029 H 0.03832 0.52173 0.05192 0.0
H2030 H 0.05189 0.53801 0.07723 0.0
C2031 C 0.4882 0.52521 0.17125 0.0
C2032 C 0.49487 0.54152 0.1809 0.0
C2033 C 0.4949 0.52647 0.15572 0.0
C2034 C 0.51504 0.55911 0.12237 0.0
H2035 H 0.52583 0.52092 0.10625 0.0
C2036 C 0.53433 0.52964 0.06114 0.0
C2037 C 0.51987 0.5281 0.05122 0.0
C2038 C 0.53657 0.53704 0.07662 0.0
C2039 C 0.52326 0.53196 0.11058 0.0
H2040 H 0.51372 0.57193 0.1819 0.0
H2041 H 0.52541 0.57412 0.15466 0.0
H2042 H 0.51914 0.52148 0.13449 0.0
H2043 H 0.49706 0.53388 0.04919 0.0
H2044 H 0.50093 0.54691 0.0762 0.0
H2045 H 0.51862 0.56921 0.09827 0.0
C2046 C 0.51505 0.56039 0.15916 0.0
C2047 C 0.51918 0.5321 0.12674 0.0
C2048 C 0.50849 0.5591 0.17476 0.0
C2049 C 0.50869 0.53553 0.05645 0.0
C2050 C 0.51084 0.54284 0.072 0.0
C2051 C 0.51902 0.5589 0.10612 0.0
C2052 C 0.50827 0.54409 0.14947 0.0
C2053 C 0.51462 0.54538 0.13273 0.0
C2054 C 0.52414 0.54268 0.08252 0.0
C2055 C 0.52282 0.54508 0.1 0.0
H2056 H 0.47776 0.51149 0.1757 0.0
H2057 H 0.48928 0.5137 0.14845 0.0
H2058 H 0.5115 0.56948 0.12668 0.0
H2059 H 0.543 0.52382 0.05733 0.0
H2060 H 0.54716 0.53706 0.08435 0.0
C2061 C 0.93923 0.47648 0.84077 0.0
C2062 C 0.93452 0.46151 0.8299 0.0
C2063 C 0.94567 0.47602 0.85611 0.0
C2064 C 0.96691 0.45496 0.8811 0.0
H2065 H 0.94459 0.46923 0.91531 0.0
C2066 C 0.00096 0.48331 0.94276 0.0
C2067 C 0.98937 0.48029 0.95598 0.0
C2068 C 0.99313 0.47567 0.92779 0.0
C2069 C 0.95072 0.46482 0.90599 0.0
H2070 H 0.93354 0.43462 0.82642 0.0
H2071 H 0.94508 0.43397 0.85328 0.0
H2072 H 0.93372 0.46743 0.88798 0.0
H2073 H 0.96074 0.46686 0.96409 0.0
H2074 H 0.94694 0.45263 0.93819 0.0
H2075 H 0.98419 0.45271 0.8992 0.0
C2076 C 0.94374 0.44603 0.84985 0.0
C2077 C 0.94468 0.46409 0.89028 0.0
C2078 C 0.93721 0.44646 0.83448 0.0
C2079 C 0.96994 0.4686 0.95426 0.0
C2080 C 0.96207 0.46086 0.93933 0.0
C2081 C 0.97304 0.45576 0.89688 0.0
C2082 C 0.9476 0.46061 0.86092 0.0
C2083 C 0.95303 0.45962 0.87764 0.0
C2084 C 0.97355 0.46503 0.92579 0.0
C2085 C 0.96526 0.46109 0.90945 0.0
H2086 H 0.93768 0.48846 0.83749 0.0
H2087 H 0.94897 0.48767 0.86428 0.0
H2088 H 0.97354 0.45142 0.87156 0.0
H2089 H 0.01601 0.4925 0.9438 0.0
H2090 H 0.00237 0.47935 0.9176 0.0
C2091 C 0.52473 0.43797 0.84514 0.0
C2092 C 0.51777 0.44042 0.83052 0.0
C2093 C 0.51803 0.44074 0.85965 0.0
C2094 C 0.49568 0.46598 0.87694 0.0
H2095 H 0.49019 0.43535 0.91406 0.0
C2096 C 0.47884 0.4854 0.93829 0.0
C2097 C 0.49079 0.48618 0.95064 0.0
C2098 C 0.47766 0.47596 0.92392 0.0
C2099 C 0.49163 0.444 0.90379 0.0
H2100 H 0.49793 0.44719 0.81967 0.0
H2101 H 0.48623 0.45207 0.84504 0.0
H2102 H 0.49692 0.42644 0.888 0.0
H2103 H 0.51116 0.47823 0.95757 0.0
H2104 H 0.50882 0.46129 0.93279 0.0
H2105 H 0.49098 0.48387 0.89275 0.0
C2106 C 0.49706 0.44824 0.84526 0.0
C2107 C 0.49554 0.43894 0.88888 0.0
C2108 C 0.50378 0.44549 0.83074 0.0
C2109 C 0.50105 0.47685 0.94861 0.0
C2110 C 0.49987 0.46739 0.93429 0.0
C2111 C 0.49176 0.47102 0.89183 0.0
C2112 C 0.5042 0.44601 0.85989 0.0
C2113 C 0.49802 0.45011 0.87536 0.0
C2114 C 0.48861 0.46733 0.92158 0.0
C2115 C 0.49008 0.46033 0.9055 0.0
H2116 H 0.5357 0.43434 0.84539 0.0
H2117 H 0.52411 0.43927 0.87068 0.0
H2118 H 0.49774 0.47504 0.86683 0.0
H2119 H 0.47101 0.49275 0.93952 0.0
H2120 H 0.46873 0.47602 0.91441 0.0
C2121 C 0.49143 0.03861 0.82927 0.0
C2122 C 0.50443 0.0579 0.82693 0.0
C2123 C 0.48527 0.03166 0.84462 0.0
C2124 C 0.4838 0.04623 0.88668 0.0
H2125 H 0.48208 0.99899 0.89646 0.0
C2126 C 0.49066 0.02295 0.95024 0.0
C2127 C 0.48145 0.00352 0.95357 0.0
C2128 C 0.48895 0.02924 0.93514 0.0
C2129 C 0.48206 0.01198 0.8939 0.0
H2130 H 0.52063 0.08513 0.83895 0.0
H2131 H 0.51041 0.07288 0.86579 0.0
H2132 H 0.4882 0.01068 0.86929 0.0
H2133 H 0.46266 0.97541 0.94416 0.0
H2134 H 0.45931 0.98633 0.91782 0.0
H2135 H 0.47833 0.04776 0.91157 0.0
C2136 C 0.50474 0.06316 0.85571 0.0
C2137 C 0.48562 0.01873 0.87828 0.0
C2138 C 0.51083 0.07014 0.84033 0.0
C2139 C 0.4697 0.9905 0.94189 0.0
C2140 C 0.46794 0.99675 0.92681 0.0
C2141 C 0.48029 0.03949 0.90238 0.0
C2142 C 0.49205 0.04379 0.85806 0.0
C2143 C 0.48679 0.03606 0.87449 0.0
C2144 C 0.47815 0.01613 0.92306 0.0
C2145 C 0.47962 0.02239 0.9062 0.0
H2146 H 0.48631 0.02872 0.81927 0.0
H2147 H 0.47531 0.0167 0.84596 0.0
H2148 H 0.48434 0.0595 0.88413 0.0
H2149 H 0.50049 0.03316 0.95879 0.0
H2150 H 0.49724 0.04423 0.9326 0.0
C2151 C 0.15387 0.25148 0.49916 0.0
C2152 C 0.15975 0.2653 0.51136 0.0
C2153 C 0.15905 0.25676 0.48329 0.0
C2154 C 0.19186 0.29624 0.45749 0.0
H2155 H 0.15006 0.27554 0.42757 0.0
C2156 C 0.19054 0.33478 0.40071 0.0
C2157 C 0.17912 0.32427 0.38772 0.0
C2158 C 0.19174 0.3256 0.41434 0.0
C2159 C 0.16207 0.28116 0.43556 0.0
H2160 H 0.17643 0.29538 0.51661 0.0
H2161 H 0.18536 0.30462 0.48888 0.0
H2162 H 0.14544 0.26307 0.45446 0.0
H2163 H 0.16012 0.296 0.37874 0.0
H2164 H 0.16325 0.27986 0.40194 0.0
H2165 H 0.2084 0.31465 0.43865 0.0
C2166 C 0.1768 0.2897 0.49159 0.0
C2167 C 0.15936 0.27402 0.45106 0.0
C2168 C 0.17151 0.28444 0.50744 0.0
C2169 C 0.16973 0.30442 0.38825 0.0
C2170 C 0.17113 0.2952 0.40176 0.0
C2171 C 0.19462 0.3033 0.44191 0.0
C2172 C 0.17035 0.27595 0.4793 0.0
C2173 C 0.17408 0.28182 0.46232 0.0
C2174 C 0.1815 0.30569 0.41527 0.0
C2175 C 0.17962 0.29621 0.43088 0.0
H2176 H 0.14473 0.23662 0.5018 0.0
H2177 H 0.15396 0.24584 0.47408 0.0
H2178 H 0.20353 0.30234 0.46587 0.0
H2179 H 0.19767 0.35013 0.40069 0.0
H2180 H 0.19966 0.3342 0.42453 0.0
C2181 C 0.75806 0.90243 0.48736 0.0
C2182 C 0.74978 0.89886 0.50255 0.0
C2183 C 0.74729 0.89934 0.47358 0.0
C2184 C 0.69913 0.87153 0.45842 0.0
H2185 H 0.7202 0.90406 0.42159 0.0
C2186 C 0.66148 0.85064 0.39756 0.0
C2187 C 0.67305 0.85092 0.38514 0.0
C2188 C 0.66935 0.86026 0.41195 0.0
C2189 C 0.7141 0.89491 0.4318 0.0
H2190 H 0.72371 0.88948 0.51522 0.0
H2191 H 0.70477 0.88399 0.49104 0.0
H2192 H 0.73675 0.91355 0.44726 0.0
H2193 H 0.70164 0.86083 0.37811 0.0
H2194 H 0.71554 0.87826 0.40289 0.0
H2195 H 0.6768 0.8526 0.44285 0.0
C2196 C 0.71962 0.88907 0.48984 0.0
C2197 C 0.72358 0.90029 0.44648 0.0
C2198 C 0.73044 0.89215 0.50366 0.0
C2199 C 0.69255 0.86142 0.38711 0.0
C2200 C 0.70044 0.87114 0.40142 0.0
C2201 C 0.68961 0.86619 0.44376 0.0
C2202 C 0.72795 0.89261 0.47464 0.0
C2203 C 0.71651 0.88836 0.45981 0.0
C2204 C 0.68891 0.87021 0.41416 0.0
C2205 C 0.69729 0.87755 0.43019 0.0
H2206 H 0.77286 0.90727 0.48608 0.0
H2207 H 0.75407 0.90176 0.46206 0.0
H2208 H 0.69338 0.86194 0.46841 0.0
H2209 H 0.64636 0.84236 0.39635 0.0
H2210 H 0.66013 0.85936 0.42154 0.0
C2211 C 0.1534 0.87167 0.50494 0.0
C2212 C 0.15905 0.88867 0.51337 0.0
C2213 C 0.16021 0.87195 0.48961 0.0
C2214 C 0.17845 0.90172 0.45429 0.0
H2215 H 0.19156 0.86407 0.44148 0.0
C2216 C 0.19879 0.86887 0.3958 0.0
C2217 C 0.18396 0.86591 0.38565 0.0
C2218 C 0.20092 0.87737 0.41081 0.0
C2219 C 0.18834 0.87497 0.44486 0.0
H2220 H 0.17628 0.91928 0.51239 0.0
H2221 H 0.18819 0.91974 0.48552 0.0
H2222 H 0.18515 0.86681 0.46944 0.0
H2223 H 0.16021 0.87008 0.38278 0.0
H2224 H 0.16391 0.88511 0.40891 0.0
H2225 H 0.18113 0.90949 0.42955 0.0
C2226 C 0.17852 0.90623 0.49082 0.0
C2227 C 0.18442 0.87634 0.46087 0.0
C2228 C 0.17183 0.90594 0.50623 0.0
C2229 C 0.17216 0.87287 0.39017 0.0
C2230 C 0.17421 0.88132 0.40523 0.0
C2231 C 0.18228 0.90028 0.4382 0.0
C2232 C 0.17269 0.88924 0.48232 0.0
C2233 C 0.17899 0.8894 0.4657 0.0
C2234 C 0.18801 0.88273 0.41602 0.0
C2235 C 0.18689 0.88661 0.43326 0.0
H2236 H 0.14363 0.85816 0.51018 0.0
H2237 H 0.15532 0.85862 0.48327 0.0
H2238 H 0.17424 0.91189 0.45767 0.0
H2239 H 0.20793 0.8634 0.39257 0.0
H2240 H 0.21188 0.87856 0.41875 0.0
C2241 C 0.60937 0.80462 0.1668 0.0
C2242 C 0.59984 0.78751 0.15815 0.0
C2243 C 0.61857 0.80556 0.18112 0.0
C2244 C 0.61598 0.77619 0.21459 0.0
H2245 H 0.6636 0.82009 0.22636 0.0
C2246 C 0.67004 0.8147 0.27177 0.0
C2247 C 0.65708 0.81438 0.28278 0.0
C2248 C 0.66413 0.80668 0.25655 0.0
C2249 C 0.65047 0.80752 0.22322 0.0
H2250 H 0.59273 0.75806 0.15747 0.0
H2251 H 0.60879 0.75969 0.18263 0.0
H2252 H 0.6523 0.81623 0.19887 0.0
H2253 H 0.62788 0.8052 0.28684 0.0
H2254 H 0.61737 0.7909 0.26033 0.0
H2255 H 0.61385 0.76786 0.23912 0.0
C2256 C 0.60915 0.77235 0.17828 0.0
C2257 C 0.64392 0.80545 0.2075 0.0
C2258 C 0.60012 0.77147 0.16385 0.0
C2259 C 0.63798 0.80492 0.27875 0.0
C2260 C 0.63203 0.7969 0.26351 0.0
C2261 C 0.62248 0.77833 0.23037 0.0
C2262 C 0.61826 0.78935 0.18715 0.0
C2263 C 0.6264 0.79004 0.20313 0.0
C2264 C 0.64518 0.79845 0.25202 0.0
C2265 C 0.63959 0.79427 0.23493 0.0
H2266 H 0.60943 0.8172 0.16262 0.0
H2267 H 0.62533 0.8188 0.18779 0.0
H2268 H 0.60237 0.76421 0.21155 0.0
H2269 H 0.68489 0.82212 0.27463 0.0
H2270 H 0.67454 0.80788 0.24802 0.0
C2271 C 0.16989 0.77776 0.16816 0.0
C2272 C 0.18494 0.77424 0.16829 0.0
C2273 C 0.1625 0.77999 0.18253 0.0
C2274 C 0.16123 0.77108 0.2262 0.0
H2275 H 0.15148 0.81279 0.22973 0.0
C2276 C 0.16371 0.80843 0.28535 0.0
C2277 C 0.15204 0.81621 0.28733 0.0
C2278 C 0.16306 0.79888 0.27123 0.0
C2279 C 0.1537 0.80079 0.22889 0.0
H2280 H 0.20426 0.77068 0.18356 0.0
H2281 H 0.19153 0.77474 0.20855 0.0
H2282 H 0.1598 0.80523 0.20392 0.0
H2283 H 0.1302 0.81979 0.27637 0.0
H2284 H 0.1289 0.80294 0.25158 0.0
H2285 H 0.15583 0.76715 0.25135 0.0
C2286 C 0.18511 0.77532 0.19739 0.0
C2287 C 0.15853 0.79649 0.21407 0.0
C2288 C 0.19246 0.77307 0.18306 0.0
C2289 C 0.13914 0.81364 0.27519 0.0
C2290 C 0.13851 0.80414 0.261 0.0
C2291 C 0.15644 0.77541 0.24103 0.0
C2292 C 0.17003 0.77878 0.19731 0.0
C2293 C 0.1628 0.78189 0.21263 0.0
C2294 C 0.15092 0.79722 0.25866 0.0
C2295 C 0.15304 0.7906 0.24261 0.0
H2296 H 0.16363 0.77849 0.15697 0.0
H2297 H 0.15077 0.78248 0.18206 0.0
H2298 H 0.16407 0.75948 0.22542 0.0
H2299 H 0.17452 0.81123 0.29409 0.0
H2300 H 0.17309 0.7941 0.26971 0.0
C2301 C 0.15919 0.37898 0.16833 0.0
C2302 C 0.17413 0.39745 0.16571 0.0
C2303 C 0.15231 0.373 0.18371 0.0
C2304 C 0.15372 0.38987 0.22568 0.0
H2305 H 0.14198 0.33873 0.2356 0.0
C2306 C 0.15564 0.36197 0.28867 0.0
C2307 C 0.14347 0.34266 0.29167 0.0
C2308 C 0.15489 0.36975 0.27402 0.0
C2309 C 0.14478 0.3529 0.233 0.0
H2310 H 0.19312 0.42428 0.17739 0.0
H2311 H 0.1818 0.4135 0.20432 0.0
H2312 H 0.15017 0.35007 0.20852 0.0
H2313 H 0.12009 0.31668 0.28236 0.0
H2314 H 0.11856 0.33028 0.25682 0.0
H2315 H 0.14922 0.39281 0.2506 0.0
C2316 C 0.17509 0.40377 0.19439 0.0
C2317 C 0.14951 0.35945 0.2174 0.0
C2318 C 0.18182 0.40986 0.17893 0.0
C2319 C 0.12952 0.33165 0.28035 0.0
C2320 C 0.12876 0.3394 0.26572 0.0
C2321 C 0.14913 0.38333 0.24141 0.0
C2322 C 0.16038 0.38517 0.19699 0.0
C2323 C 0.15422 0.37807 0.21352 0.0
C2324 C 0.1421 0.35825 0.26206 0.0
C2325 C 0.14476 0.3648 0.24524 0.0
H2326 H 0.15301 0.36889 0.15855 0.0
H2327 H 0.14076 0.35869 0.18517 0.0
H2328 H 0.15702 0.4042 0.2231 0.0
H2329 H 0.16699 0.37056 0.29691 0.0
H2330 H 0.16547 0.38426 0.27153 0.0
C2331 C 0.83416 0.62675 0.83861 0.0
C2332 C 0.82227 0.60758 0.84236 0.0
C2333 C 0.83914 0.63227 0.82275 0.0
C2334 C 0.8216 0.61704 0.78195 0.0
H2335 H 0.87105 0.65706 0.76971 0.0
C2336 C 0.83388 0.64479 0.71817 0.0
C2337 C 0.84329 0.66458 0.71692 0.0
C2338 C 0.83484 0.63626 0.73229 0.0
C2339 C 0.85717 0.64588 0.77294 0.0
H2340 H 0.80651 0.57913 0.83242 0.0
H2341 H 0.81529 0.58875 0.80474 0.0
H2342 H 0.86565 0.64515 0.79709 0.0
H2343 H 0.86129 0.69107 0.7293 0.0
H2344 H 0.86259 0.67631 0.7542 0.0
H2345 H 0.8128 0.6182 0.75817 0.0
C2346 C 0.82069 0.59952 0.81407 0.0
C2347 C 0.85408 0.63908 0.78862 0.0
C2348 C 0.81578 0.594 0.82994 0.0
C2349 C 0.85424 0.67574 0.72986 0.0
C2350 C 0.85501 0.66725 0.7441 0.0
C2351 C 0.82465 0.62389 0.76635 0.0
C2352 C 0.83227 0.61874 0.81029 0.0
C2353 C 0.83617 0.6248 0.79335 0.0
C2354 C 0.84475 0.6474 0.74568 0.0
C2355 C 0.84238 0.63862 0.76169 0.0
H2356 H 0.83959 0.63753 0.84794 0.0
H2357 H 0.84793 0.6472 0.82021 0.0
H2358 H 0.80758 0.60624 0.78526 0.0
H2359 H 0.82451 0.63591 0.70872 0.0
H2360 H 0.82694 0.62095 0.733 0.0
C2361 C 0.42431 0.22997 0.82465 0.0
C2362 C 0.41598 0.22445 0.83979 0.0
C2363 C 0.41327 0.22591 0.8109 0.0
C2364 C 0.36718 0.19206 0.79501 0.0
H2365 H 0.38151 0.22791 0.76026 0.0
C2366 C 0.32853 0.16945 0.73468 0.0
C2367 C 0.3402 0.17482 0.72126 0.0
C2368 C 0.33567 0.17801 0.74956 0.0
C2369 C 0.37735 0.21773 0.76984 0.0
H2370 H 0.38946 0.21064 0.85233 0.0
H2371 H 0.37012 0.20318 0.82816 0.0
H2372 H 0.39808 0.2381 0.7859 0.0
H2373 H 0.36835 0.19293 0.71273 0.0
H2374 H 0.38099 0.20797 0.73863 0.0
H2375 H 0.34704 0.17146 0.77885 0.0
C2376 C 0.38524 0.21066 0.82703 0.0
C2377 C 0.38681 0.22357 0.78451 0.0
C2378 C 0.39631 0.21484 0.84084 0.0
C2379 C 0.35896 0.18918 0.72278 0.0
C2380 C 0.36617 0.19766 0.73767 0.0
C2381 C 0.35779 0.18619 0.78032 0.0
C2382 C 0.39363 0.21611 0.81192 0.0
C2383 C 0.38209 0.21067 0.79712 0.0
C2384 C 0.35471 0.19185 0.75131 0.0
C2385 C 0.36304 0.19884 0.76745 0.0
H2386 H 0.43939 0.23705 0.82334 0.0
H2387 H 0.42013 0.22994 0.79939 0.0
H2388 H 0.36338 0.18175 0.80444 0.0
H2389 H 0.31399 0.1583 0.73373 0.0
H2390 H 0.3264 0.17339 0.75976 0.0
C2391 C 0.83585 0.22792 0.84104 0.0
C2392 C 0.81996 0.21189 0.84715 0.0
C2393 C 0.84119 0.2282 0.82513 0.0
C2394 C 0.82091 0.20615 0.78629 0.0
H2395 H 0.87218 0.22415 0.77315 0.0
C2396 C 0.8359 0.20185 0.72073 0.0
C2397 C 0.84589 0.19236 0.71805 0.0
C2398 C 0.83645 0.20978 0.73573 0.0
C2399 C 0.85782 0.21921 0.77665 0.0
H2400 H 0.79788 0.18324 0.8416 0.0
H2401 H 0.80712 0.18377 0.81386 0.0
H2402 H 0.86528 0.22551 0.80148 0.0
H2403 H 0.86488 0.18431 0.72855 0.0
H2404 H 0.86564 0.19783 0.75489 0.0
H2405 H 0.81321 0.19911 0.76176 0.0
C2406 C 0.81523 0.19625 0.82129 0.0
C2407 C 0.85389 0.22006 0.79282 0.0
C2408 C 0.80994 0.19594 0.83717 0.0
C2409 C 0.85733 0.19188 0.7303 0.0
C2410 C 0.85779 0.19968 0.74535 0.0
C2411 C 0.82482 0.20537 0.77018 0.0
C2412 C 0.83069 0.2125 0.81501 0.0
C2413 C 0.83532 0.21311 0.79782 0.0
C2414 C 0.84665 0.20792 0.74843 0.0
C2415 C 0.84326 0.21156 0.76519 0.0
H2416 H 0.84376 0.24052 0.84838 0.0
H2417 H 0.85312 0.24094 0.82059 0.0
H2418 H 0.80651 0.20099 0.78975 0.0
H2419 H 0.82627 0.20155 0.71176 0.0
H2420 H 0.82784 0.21618 0.73769 0.0
C2421 C 0.29842 0.14491 0.49617 0.0
C2422 C 0.28656 0.12807 0.48778 0.0
C2423 C 0.30421 0.14425 0.51177 0.0
C2424 C 0.28508 0.11665 0.54665 0.0
H2425 H 0.3344 0.14871 0.56537 0.0
C2426 C 0.32064 0.14135 0.61334 0.0
C2427 C 0.31351 0.15318 0.61773 0.0
C2428 C 0.31736 0.13345 0.59792 0.0
C2429 C 0.32064 0.13939 0.56027 0.0
H2430 H 0.27208 0.0974 0.48869 0.0
H2431 H 0.28184 0.09627 0.51619 0.0
H2432 H 0.33087 0.1448 0.53618 0.0
H2433 H 0.29648 0.16509 0.61011 0.0
H2434 H 0.29003 0.15057 0.58341 0.0
H2435 H 0.27466 0.1126 0.57065 0.0
C2436 C 0.28686 0.10991 0.5106 0.0
C2437 C 0.31861 0.13725 0.54364 0.0
C2438 C 0.28137 0.11057 0.49489 0.0
C2439 C 0.30211 0.15602 0.60693 0.0
C2440 C 0.29839 0.1477 0.59175 0.0
C2441 C 0.28706 0.11912 0.56323 0.0
C2442 C 0.29792 0.12674 0.51929 0.0
C2443 C 0.30075 0.12625 0.5367 0.0
C2444 C 0.30641 0.13682 0.58699 0.0
C2445 C 0.30478 0.13087 0.5701 0.0
H2446 H 0.30256 0.15854 0.49091 0.0
H2447 H 0.31259 0.15742 0.5183 0.0
H2448 H 0.27113 0.10827 0.54156 0.0
H2449 H 0.32959 0.13913 0.6215 0.0
H2450 H 0.32372 0.12516 0.59438 0.0
C2451 C 0.83331 0.11408 0.49657 0.0
C2452 C 0.84751 0.10931 0.49669 0.0
C2453 C 0.82599 0.11641 0.51094 0.0
C2454 C 0.82283 0.10546 0.55424 0.0
H2455 H 0.81787 0.15004 0.55924 0.0
C2456 C 0.82883 0.1421 0.61446 0.0
C2457 C 0.81867 0.15143 0.61695 0.0
C2458 C 0.82723 0.1327 0.60001 0.0
C2459 C 0.81873 0.13726 0.55798 0.0
H2460 H 0.86544 0.10367 0.51198 0.0
H2461 H 0.8528 0.10781 0.53695 0.0
H2462 H 0.8253 0.14227 0.53311 0.0
H2463 H 0.79856 0.15805 0.60657 0.0
H2464 H 0.79559 0.14147 0.58121 0.0
H2465 H 0.81697 0.10089 0.57928 0.0
C2466 C 0.84697 0.10931 0.52579 0.0
C2467 C 0.82304 0.13284 0.54299 0.0
C2468 C 0.85427 0.107 0.51147 0.0
C2469 C 0.80632 0.15067 0.60498 0.0
C2470 C 0.80473 0.14131 0.59047 0.0
C2471 C 0.81853 0.10988 0.56924 0.0
C2472 C 0.83273 0.114 0.52571 0.0
C2473 C 0.82567 0.1172 0.54106 0.0
C2474 C 0.81564 0.13275 0.58765 0.0
C2475 C 0.81693 0.12612 0.57136 0.0
H2476 H 0.82765 0.11573 0.48537 0.0
H2477 H 0.81495 0.11992 0.51049 0.0
H2478 H 0.82439 0.09308 0.55305 0.0
H2479 H 0.83927 0.14351 0.62308 0.0
H2480 H 0.83617 0.12666 0.59812 0.0
C2481 C 0.83792 0.73362 0.50244 0.0
C2482 C 0.83097 0.72024 0.48984 0.0
C2483 C 0.83154 0.72829 0.51808 0.0
C2484 C 0.8093 0.68555 0.54322 0.0
H2485 H 0.8071 0.71977 0.57449 0.0
C2486 C 0.79408 0.66277 0.60783 0.0
C2487 C 0.80814 0.67555 0.61832 0.0
C2488 C 0.79179 0.66872 0.59279 0.0
C2489 C 0.80754 0.71004 0.56584 0.0
H2490 H 0.8114 0.69074 0.48392 0.0
H2491 H 0.79968 0.68174 0.51088 0.0
H2492 H 0.81309 0.72907 0.54638 0.0
H2493 H 0.83034 0.70458 0.62169 0.0
H2494 H 0.82618 0.71513 0.59555 0.0
H2495 H 0.80414 0.6667 0.56259 0.0
C2496 C 0.81044 0.69628 0.50879 0.0
C2497 C 0.8111 0.71539 0.54977 0.0
C2498 C 0.817 0.70153 0.49322 0.0
C2499 C 0.8189 0.69467 0.61407 0.0
C2500 C 0.81663 0.70064 0.59901 0.0
C2501 C 0.80559 0.68016 0.55918 0.0
C2502 C 0.81788 0.70948 0.52149 0.0
C2503 C 0.81236 0.70333 0.53831 0.0
C2504 C 0.80372 0.68748 0.58791 0.0
C2505 C 0.80497 0.69244 0.57073 0.0
H2506 H 0.84842 0.74824 0.50028 0.0
H2507 H 0.83775 0.73883 0.52754 0.0
H2508 H 0.81057 0.67603 0.53488 0.0
H2509 H 0.78576 0.64791 0.61082 0.0
H2510 H 0.78154 0.65833 0.58456 0.0
loop_
_geom_bond_atom_site_label_1
_geom_bond_atom_site_label_2
_geom_bond_distance
_geom_bond_site_symmetry_2
_ccdc_geom_bond_type
C0 C1 1.386 . S
C0 C2 1.397 . S
C0 H24 0.931 . S
C1 C0 1.386 . S
C1 C5 1.397 . S
C2 C0 1.397 . S
C2 C3 1.384 . S
C2 H25 0.930 . S
C3 C2 1.384 . S
C3 C4 1.377 . S
C3 C6 1.481 . S
C4 C3 1.377 . S
C4 C5 1.389 . S
C4 H26 0.929 . S
C5 C1 1.397 . S
C5 C4 1.389 . S
C5 H27 0.931 . S
C6 C3 1.481 . S
C6 C7 1.387 . S
C6 C11 1.390 . S
C7 C6 1.387 . S
C7 C8 1.401 . S
C7 H28 0.930 . S
C8 C7 1.401 . S
C8 C9 1.376 . S
C8 C17 1.511 . S
C9 C8 1.376 . S
C9 C10 1.392 . S
C9 H30 0.931 . S
C10 C9 1.392 . S
C10 C11 1.361 . S
C10 C12 1.500 . S
C11 C6 1.390 . S
C11 C10 1.361 . S
C11 H29 0.931 . S
C12 C10 1.500 . S
C12 C13 1.371 . S
C12 C14 1.365 . S
C13 C12 1.371 . S
C13 C23 1.386 . S
C13 H31 0.931 . S
C14 C12 1.365 . S
C14 C15 1.409 . S
C14 H32 0.929 . S
C15 C14 1.409 . S
C15 C16 1.380 . S
C15 H33 0.930 . S
C16 C15 1.380 . S
C16 C23 1.357 . S
C17 C8 1.511 . S
C17 C18 1.341 . S
C17 C19 1.371 . S
C18 C17 1.341 . S
C18 C22 1.394 . S
C18 H34 0.930 . S
C19 C17 1.371 . S
C19 C20 1.392 . S
C19 H35 0.931 . S
C20 C19 1.392 . S
C20 C21 1.331 . S
C20 H38 0.932 . S
C21 C20 1.331 . S
C21 C22 1.336 . S
C22 C18 1.394 . S
C22 C21 1.336 . S
C22 H37 0.929 . S
C23 C13 1.386 . S
C23 C16 1.357 . S
C23 H36 0.928 . S
H24 C0 0.931 . S
H25 C2 0.930 . S
H26 C4 0.929 . S
H27 C5 0.931 . S
H28 C7 0.930 . S
H29 C11 0.931 . S
H30 C9 0.931 . S
H31 C13 0.931 . S
H32 C14 0.929 . S
H33 C15 0.930 . S
H34 C18 0.930 . S
H35 C19 0.931 . S
H36 C23 0.928 . S
H37 C22 0.929 . S
H38 C20 0.932 . S
C39 C40 1.386 . S
C39 C41 1.397 . S
C39 H63 0.931 . S
C40 C39 1.386 . S
C40 C44 1.397 . S
C41 C39 1.397 . S
C41 C42 1.384 . S
C41 H64 0.930 . S
C42 C41 1.384 . S
C42 C43 1.377 . S
C42 C45 1.481 . S
C43 C42 1.377 . S
C43 C44 1.389 . S
C43 H65 0.929 . S
C44 C40 1.397 . S
C44 C43 1.389 . S
C44 H66 0.931 . S
C45 C42 1.481 . S
C45 C46 1.387 . S
C45 C50 1.390 . S
C46 C45 1.387 . S
C46 C47 1.401 . S
C46 H67 0.930 . S
C47 C46 1.401 . S
C47 C48 1.376 . S
C47 C56 1.511 . S
C48 C47 1.376 . S
C48 C49 1.392 . S
C48 H69 0.931 . S
C49 C48 1.392 . S
C49 C50 1.361 . S
C49 C51 1.500 . S
C50 C45 1.390 . S
C50 C49 1.361 . S
C50 H68 0.931 . S
C51 C49 1.500 . S
C51 C52 1.371 . S
C51 C53 1.365 . S
C52 C51 1.371 . S
C52 C62 1.386 . S
C52 H70 0.931 . S
C53 C51 1.365 . S
C53 C54 1.409 . S
C53 H71 0.929 . S
C54 C53 1.409 . S
C54 C55 1.380 . S
C54 H72 0.930 . S
C55 C54 1.380 . S
C55 C62 1.357 . S
C56 C47 1.511 . S
C56 C57 1.341 . S
C56 C58 1.371 . S
C57 C56 1.341 . S
C57 C61 1.394 . S
C57 H73 0.930 . S
C58 C56 1.371 . S
C58 C59 1.392 . S
C58 H74 0.931 . S
C59 C58 1.392 . S
C59 C60 1.331 . S
C59 H77 0.932 . S
C60 C59 1.331 . S
C60 C61 1.336 . S
C61 C57 1.394 . S
C61 C60 1.336 . S
C61 H76 0.929 . S
C62 C52 1.386 . S
C62 C55 1.357 . S
C62 H75 0.928 . S
H63 C39 0.931 . S
H64 C41 0.930 . S
H65 C43 0.929 . S
H66 C44 0.931 . S
H67 C46 0.930 . S
H68 C50 0.931 . S
H69 C48 0.931 . S
H70 C52 0.931 . S
H71 C53 0.929 . S
H72 C54 0.930 . S
H73 C57 0.930 . S
H74 C58 0.931 . S
H75 C62 0.928 . S
H76 C61 0.929 . S
H77 C59 0.932 . S
C78 C79 1.386 . S
C78 C80 1.397 . S
C78 H102 0.931 . S
C79 C78 1.386 . S
C79 C83 1.397 . S
C80 C78 1.397 . S
C80 C81 1.384 . S
C80 H103 0.930 . S
C81 C80 1.384 . S
C81 C82 1.377 . S
C81 C84 1.481 . S
C82 C81 1.377 . S
C82 C83 1.389 . S
C82 H104 0.929 . S
C83 C79 1.397 . S
C83 C82 1.389 . S
C83 H105 0.931 . S
C84 C81 1.481 . S
C84 C85 1.387 . S
C84 C89 1.390 . S
C85 C84 1.387 . S
C85 C86 1.401 . S
C85 H106 0.930 . S
C86 C85 1.401 . S
C86 C87 1.376 . S
C86 C95 1.511 . S
C87 C86 1.376 . S
C87 C88 1.392 . S
C87 H108 0.931 . S
C88 C87 1.392 . S
C88 C89 1.361 . S
C88 C90 1.500 . S
C89 C84 1.390 . S
C89 C88 1.361 . S
C89 H107 0.931 . S
C90 C88 1.500 . S
C90 C91 1.371 . S
C90 C92 1.365 . S
C91 C90 1.371 . S
C91 C101 1.386 . S
C91 H109 0.931 . S
C92 C90 1.365 . S
C92 C93 1.409 . S
C92 H110 0.929 . S
C93 C92 1.409 . S
C93 C94 1.380 . S
C93 H111 0.930 . S
C94 C93 1.380 . S
C94 C101 1.357 . S
C95 C86 1.511 . S
C95 C96 1.341 . S
C95 C97 1.371 . S
C96 C95 1.341 . S
C96 C100 1.394 . S
C96 H112 0.930 . S
C97 C95 1.371 . S
C97 C98 1.392 . S
C97 H113 0.931 . S
C98 C97 1.392 . S
C98 C99 1.331 . S
C98 H116 0.932 . S
C99 C98 1.331 . S
C99 C100 1.336 . S
C100 C96 1.394 . S
C100 C99 1.336 . S
C100 H115 0.929 . S
C101 C91 1.386 . S
C101 C94 1.357 . S
C101 H114 0.928 . S
H102 C78 0.931 . S
H103 C80 0.930 . S
H104 C82 0.929 . S
H105 C83 0.931 . S
H106 C85 0.930 . S
H107 C89 0.931 . S
H108 C87 0.931 . S
H109 C91 0.931 . S
H110 C92 0.929 . S
H111 C93 0.930 . S
H112 C96 0.930 . S
H113 C97 0.931 . S
H114 C101 0.928 . S
H115 C100 0.929 . S
H116 C98 0.932 . S
C117 C118 1.386 . S
C117 C119 1.397 . S
C117 H141 0.931 . S
C118 C117 1.386 . S
C118 C122 1.397 . S
C119 C117 1.397 . S
C119 C120 1.384 . S
C119 H142 0.930 . S
C120 C119 1.384 . S
C120 C121 1.377 . S
C120 C123 1.481 . S
C121 C120 1.377 . S
C121 C122 1.389 . S
C121 H143 0.929 . S
C122 C118 1.397 . S
C122 C121 1.389 . S
C122 H144 0.931 . S
C123 C120 1.481 . S
C123 C124 1.387 . S
C123 C128 1.390 . S
C124 C123 1.387 . S
C124 C125 1.401 . S
C124 H145 0.930 . S
C125 C124 1.401 . S
C125 C126 1.376 . S
C125 C134 1.511 . S
C126 C125 1.376 . S
C126 C127 1.392 . S
C126 H147 0.931 . S
C127 C126 1.392 . S
C127 C128 1.361 . S
C127 C129 1.500 . S
C128 C123 1.390 . S
C128 C127 1.361 . S
C128 H146 0.931 . S
C129 C127 1.500 . S
C129 C130 1.371 . S
C129 C131 1.365 . S
C130 C129 1.371 . S
C130 C140 1.386 . S
C130 H148 0.931 . S
C131 C129 1.365 . S
C131 C132 1.409 . S
C131 H149 0.929 . S
C132 C131 1.409 . S
C132 C133 1.380 . S
C132 H150 0.930 . S
C133 C132 1.380 . S
C133 C140 1.357 . S
C134 C125 1.511 . S
C134 C135 1.341 . S
C134 C136 1.371 . S
C135 C134 1.341 . S
C135 C139 1.394 . S
C135 H151 0.930 . S
C136 C134 1.371 . S
C136 C137 1.392 . S
C136 H152 0.931 . S
C137 C136 1.392 . S
C137 C138 1.331 . S
C137 H155 0.932 . S
C138 C137 1.331 . S
C138 C139 1.336 . S
C139 C135 1.394 . S
C139 C138 1.336 . S
C139 H154 0.929 . S
C140 C130 1.386 . S
C140 C133 1.357 . S
C140 H153 0.928 . S
H141 C117 0.931 . S
H142 C119 0.930 . S
H143 C121 0.929 . S
H144 C122 0.931 . S
H145 C124 0.930 . S
H146 C128 0.931 . S
H147 C126 0.931 . S
H148 C130 0.931 . S
H149 C131 0.929 . S
H150 C132 0.930 . S
H151 C135 0.930 . S
H152 C136 0.931 . S
H153 C140 0.928 . S
H154 C139 0.929 . S
H155 C137 0.932 . S
C156 C157 1.386 . S
C156 C158 1.397 . S
C156 H180 0.931 . S
C157 C156 1.386 . S
C157 C161 1.397 . S
C158 C156 1.397 . S
C158 C159 1.384 . S
C158 H181 0.930 . S
C159 C158 1.384 . S
C159 C160 1.377 . S
C159 C162 1.481 . S
C160 C159 1.377 . S
C160 C161 1.389 . S
C160 H182 0.929 . S
C161 C157 1.397 . S
C161 C160 1.389 . S
C161 H183 0.931 . S
C162 C159 1.481 . S
C162 C163 1.387 . S
C162 C167 1.390 . S
C163 C162 1.387 . S
C163 C164 1.401 . S
C163 H184 0.930 . S
C164 C163 1.401 . S
C164 C165 1.376 . S
C164 C173 1.511 . S
C165 C164 1.376 . S
C165 C166 1.392 . S
C165 H186 0.931 . S
C166 C165 1.392 . S
C166 C167 1.361 . S
C166 C168 1.500 . S
C167 C162 1.390 . S
C167 C166 1.361 . S
C167 H185 0.931 . S
C168 C166 1.500 . S
C168 C169 1.371 . S
C168 C170 1.365 . S
C169 C168 1.371 . S
C169 C179 1.386 . S
C169 H187 0.931 . S
C170 C168 1.365 . S
C170 C171 1.409 . S
C170 H188 0.929 . S
C171 C170 1.409 . S
C171 C172 1.380 . S
C171 H189 0.930 . S
C172 C171 1.380 . S
C172 C179 1.357 . S
C173 C164 1.511 . S
C173 C174 1.341 . S
C173 C175 1.371 . S
C174 C173 1.341 . S
C174 C178 1.394 . S
C174 H190 0.930 . S
C175 C173 1.371 . S
C175 C176 1.392 . S
C175 H191 0.931 . S
C176 C175 1.392 . S
C176 C177 1.331 . S
C176 H194 0.932 . S
C177 C176 1.331 . S
C177 C178 1.336 . S
C178 C174 1.394 . S
C178 C177 1.336 . S
C178 H193 0.929 . S
C179 C169 1.386 . S
C179 C172 1.357 . S
C179 H192 0.928 . S
H180 C156 0.931 . S
H181 C158 0.930 . S
H182 C160 0.929 . S
H183 C161 0.931 . S
H184 C163 0.930 . S
H185 C167 0.931 . S
H186 C165 0.931 . S
H187 C169 0.931 . S
H188 C170 0.929 . S
H189 C171 0.930 . S
H190 C174 0.930 . S
H191 C175 0.931 . S
H192 C179 0.928 . S
H193 C178 0.929 . S
H194 C176 0.932 . S
C195 C196 1.386 . S
C195 C197 1.397 . S
C195 H219 0.931 . S
C196 C195 1.386 . S
C196 C200 1.397 . S
C197 C195 1.397 . S
C197 C198 1.384 . S
C197 H220 0.930 . S
C198 C197 1.384 . S
C198 C199 1.377 . S
C198 C201 1.481 . S
C199 C198 1.377 . S
C199 C200 1.389 . S
C199 H221 0.929 . S
C200 C196 1.397 . S
C200 C199 1.389 . S
C200 H222 0.931 . S
C201 C198 1.481 . S
C201 C202 1.387 . S
C201 C206 1.390 . S
C202 C201 1.387 . S
C202 C203 1.401 . S
C202 H223 0.930 . S
C203 C202 1.401 . S
C203 C204 1.376 . S
C203 C212 1.511 . S
C204 C203 1.376 . S
C204 C205 1.392 . S
C204 H225 0.931 . S
C205 C204 1.392 . S
C205 C206 1.361 . S
C205 C207 1.500 . S
C206 C201 1.390 . S
C206 C205 1.361 . S
C206 H224 0.931 . S
C207 C205 1.500 . S
C207 C208 1.371 . S
C207 C209 1.365 . S
C208 C207 1.371 . S
C208 C218 1.386 . S
C208 H226 0.931 . S
C209 C207 1.365 . S
C209 C210 1.409 . S
C209 H227 0.929 . S
C210 C209 1.409 . S
C210 C211 1.380 . S
C210 H228 0.930 . S
C211 C210 1.380 . S
C211 C218 1.357 . S
C212 C203 1.511 . S
C212 C213 1.341 . S
C212 C214 1.371 . S
C213 C212 1.341 . S
C213 C217 1.394 . S
C213 H229 0.930 . S
C214 C212 1.371 . S
C214 C215 1.392 . S
C214 H230 0.931 . S
C215 C214 1.392 . S
C215 C216 1.331 . S
C215 H233 0.932 . S
C216 C215 1.331 . S
C216 C217 1.336 . S
C217 C213 1.394 . S
C217 C216 1.336 . S
C217 H232 0.929 . S
C218 C208 1.386 . S
C218 C211 1.357 . S
C218 H231 0.928 . S
H219 C195 0.931 . S
H220 C197 0.930 . S
H221 C199 0.929 . S
H222 C200 0.931 . S
H223 C202 0.930 . S
H224 C206 0.931 . S
H225 C204 0.931 . S
H226 C208 0.931 . S
H227 C209 0.929 . S
H228 C210 0.930 . S
H229 C213 0.930 . S
H230 C214 0.931 . S
H231 C218 0.928 . S
H232 C217 0.929 . S
H233 C215 0.932 . S
C234 C235 1.386 . S
C234 C236 1.397 . S
C234 H258 0.931 . S
C235 C234 1.386 . S
C235 C239 1.397 . S
C236 C234 1.397 . S
C236 C237 1.384 . S
C236 H259 0.930 . S
C237 C236 1.384 . S
C237 C238 1.377 . S
C237 C240 1.481 . S
C238 C237 1.377 . S
C238 C239 1.389 . S
C238 H260 0.929 . S
C239 C235 1.397 . S
C239 C238 1.389 . S
C239 H261 0.931 . S
C240 C237 1.481 . S
C240 C241 1.387 . S
C240 C245 1.390 . S
C241 C240 1.387 . S
C241 C242 1.401 . S
C241 H262 0.930 . S
C242 C241 1.401 . S
C242 C243 1.376 . S
C242 C251 1.511 . S
C243 C242 1.376 . S
C243 C244 1.392 . S
C243 H264 0.931 . S
C244 C243 1.392 . S
C244 C245 1.361 . S
C244 C246 1.500 . S
C245 C240 1.390 . S
C245 C244 1.361 . S
C245 H263 0.931 . S
C246 C244 1.500 . S
C246 C247 1.371 . S
C246 C248 1.365 . S
C247 C246 1.371 . S
C247 C257 1.386 . S
C247 H265 0.931 . S
C248 C246 1.365 . S
C248 C249 1.409 . S
C248 H266 0.929 . S
C249 C248 1.409 . S
C249 C250 1.380 . S
C249 H267 0.930 . S
C250 C249 1.380 . S
C250 C257 1.357 . S
C251 C242 1.511 . S
C251 C252 1.341 . S
C251 C253 1.371 . S
C252 C251 1.341 . S
C252 C256 1.394 . S
C252 H268 0.930 . S
C253 C251 1.371 . S
C253 C254 1.392 . S
C253 H269 0.931 . S
C254 C253 1.392 . S
C254 C255 1.331 . S
C254 H272 0.932 . S
C255 C254 1.331 . S
C255 C256 1.336 . S
C256 C252 1.394 . S
C256 C255 1.336 . S
C256 H271 0.929 . S
C257 C247 1.386 . S
C257 C250 1.357 . S
C257 H270 0.928 . S
H258 C234 0.931 . S
H259 C236 0.930 . S
H260 C238 0.929 . S
H261 C239 0.931 . S
H262 C241 0.930 . S
H263 C245 0.931 . S
H264 C243 0.931 . S
H265 C247 0.931 . S
H266 C248 0.929 . S
H267 C249 0.930 . S
H268 C252 0.930 . S
H269 C253 0.931 . S
H270 C257 0.928 . S
H271 C256 0.929 . S
H272 C254 0.932 . S
C273 C274 1.386 . S
C273 C275 1.397 . S
C273 H297 0.931 . S
C274 C273 1.386 . S
C274 C278 1.397 . S
C275 C273 1.397 . S
C275 C276 1.384 . S
C275 H298 0.930 . S
C276 C275 1.384 . S
C276 C277 1.377 . S
C276 C279 1.481 . S
C277 C276 1.377 . S
C277 C278 1.389 . S
C277 H299 0.929 . S
C278 C274 1.397 . S
C278 C277 1.389 . S
C278 H300 0.931 . S
C279 C276 1.481 . S
C279 C280 1.387 . S
C279 C284 1.390 . S
C280 C279 1.387 . S
C280 C281 1.401 . S
C280 H301 0.930 . S
C281 C280 1.401 . S
C281 C282 1.376 . S
C281 C290 1.511 . S
C282 C281 1.376 . S
C282 C283 1.392 . S
C282 H303 0.931 . S
C283 C282 1.392 . S
C283 C284 1.361 . S
C283 C285 1.500 . S
C284 C279 1.390 . S
C284 C283 1.361 . S
C284 H302 0.931 . S
C285 C283 1.500 . S
C285 C286 1.371 . S
C285 C287 1.365 . S
C286 C285 1.371 . S
C286 C296 1.386 . S
C286 H304 0.931 . S
C287 C285 1.365 . S
C287 C288 1.409 . S
C287 H305 0.929 . S
C288 C287 1.409 . S
C288 C289 1.380 . S
C288 H306 0.930 . S
C289 C288 1.380 . S
C289 C296 1.357 . S
C290 C281 1.511 . S
C290 C291 1.341 . S
C290 C292 1.371 . S
C291 C290 1.341 . S
C291 C295 1.394 . S
C291 H307 0.930 . S
C292 C290 1.371 . S
C292 C293 1.392 . S
C292 H308 0.931 . S
C293 C292 1.392 . S
C293 C294 1.331 . S
C293 H311 0.932 . S
C294 C293 1.331 . S
C294 C295 1.336 . S
C295 C291 1.394 . S
C295 C294 1.336 . S
C295 H310 0.929 . S
C296 C286 1.386 . S
C296 C289 1.357 . S
C296 H309 0.928 . S
H297 C273 0.931 . S
H298 C275 0.930 . S
H299 C277 0.929 . S
H300 C278 0.931 . S
H301 C280 0.930 . S
H302 C284 0.931 . S
H303 C282 0.931 . S
H304 C286 0.931 . S
H305 C287 0.929 . S
H306 C288 0.930 . S
H307 C291 0.930 . S
H308 C292 0.931 . S
H309 C296 0.928 . S
H310 C295 0.929 . S
H311 C293 0.932 . S
C312 C313 1.386 . S
C312 C314 1.397 . S
C312 H336 0.931 . S
C313 C312 1.386 . S
C313 C317 1.397 . S
C314 C312 1.397 . S
C314 C315 1.384 . S
C314 H337 0.930 . S
C315 C314 1.384 . S
C315 C316 1.377 . S
C315 C318 1.481 . S
C316 C315 1.377 . S
C316 C317 1.389 . S
C316 H338 0.929 . S
C317 C313 1.397 . S
C317 C316 1.389 . S
C317 H339 0.931 . S
C318 C315 1.481 . S
C318 C319 1.387 . S
C318 C323 1.390 . S
C319 C318 1.387 . S
C319 C320 1.401 . S
C319 H340 0.930 . S
C320 C319 1.401 . S
C320 C321 1.376 . S
C320 C329 1.511 . S
C321 C320 1.376 . S
C321 C322 1.392 . S
C321 H342 0.931 . S
C322 C321 1.392 . S
C322 C323 1.361 . S
C322 C324 1.500 . S
C323 C318 1.390 . S
C323 C322 1.361 . S
C323 H341 0.931 . S
C324 C322 1.500 . S
C324 C325 1.371 . S
C324 C326 1.365 . S
C325 C324 1.371 . S
C325 C335 1.386 . S
C325 H343 0.931 . S
C326 C324 1.365 . S
C326 C327 1.409 . S
C326 H344 0.929 . S
C327 C326 1.409 . S
C327 C328 1.380 . S
C327 H345 0.930 . S
C328 C327 1.380 . S
C328 C335 1.357 . S
C329 C320 1.511 . S
C329 C330 1.341 . S
C329 C331 1.371 . S
C330 C329 1.341 . S
C330 C334 1.394 . S
C330 H346 0.930 . S
C331 C329 1.371 . S
C331 C332 1.392 . S
C331 H347 0.931 . S
C332 C331 1.392 . S
C332 C333 1.331 . S
C332 H350 0.932 . S
C333 C332 1.331 . S
C333 C334 1.336 . S
C334 C330 1.394 . S
C334 C333 1.336 . S
C334 H349 0.929 . S
C335 C325 1.386 . S
C335 C328 1.357 . S
C335 H348 0.928 . S
H336 C312 0.931 . S
H337 C314 0.930 . S
H338 C316 0.929 . S
H339 C317 0.931 . S
H340 C319 0.930 . S
H341 C323 0.931 . S
H342 C321 0.931 . S
H343 C325 0.931 . S
H344 C326 0.929 . S
H345 C327 0.930 . S
H346 C330 0.930 . S
H347 C331 0.931 . S
H348 C335 0.928 . S
H349 C334 0.929 . S
H350 C332 0.932 . S
C351 C352 1.386 . S
C351 C353 1.397 . S
C351 H375 0.931 . S
C352 C351 1.386 . S
C352 C356 1.397 . S
C353 C351 1.397 . S
C353 C354 1.384 . S
C353 H376 0.930 . S
C354 C353 1.384 . S
C354 C355 1.377 . S
C354 C357 1.481 . S
C355 C354 1.377 . S
C355 C356 1.389 . S
C355 H377 0.929 . S
C356 C352 1.397 . S
C356 C355 1.389 . S
C356 H378 0.931 . S
C357 C354 1.481 . S
C357 C358 1.387 . S
C357 C362 1.390 . S
C358 C357 1.387 . S
C358 C359 1.401 . S
C358 H379 0.930 . S
C359 C358 1.401 . S
C359 C360 1.376 . S
C359 C368 1.511 . S
C360 C359 1.376 . S
C360 C361 1.392 . S
C360 H381 0.931 . S
C361 C360 1.392 . S
C361 C362 1.361 . S
C361 C363 1.500 . S
C362 C357 1.390 . S
C362 C361 1.361 . S
C362 H380 0.931 . S
C363 C361 1.500 . S
C363 C364 1.371 . S
C363 C365 1.365 . S
C364 C363 1.371 . S
C364 C374 1.386 . S
C364 H382 0.931 . S
C365 C363 1.365 . S
C365 C366 1.409 . S
C365 H383 0.929 . S
C366 C365 1.409 . S
C366 C367 1.380 . S
C366 H384 0.930 . S
C367 C366 1.380 . S
C367 C374 1.357 . S
C368 C359 1.511 . S
C368 C369 1.341 . S
C368 C370 1.371 . S
C369 C368 1.341 . S
C369 C373 1.394 . S
C369 H385 0.930 . S
C370 C368 1.371 . S
C370 C371 1.392 . S
C370 H386 0.931 . S
C371 C370 1.392 . S
C371 C372 1.331 . S
C371 H389 0.932 . S
C372 C371 1.331 . S
C372 C373 1.336 . S
C373 C369 1.394 . S
C373 C372 1.336 . S
C373 H388 0.929 . S
C374 C364 1.386 . S
C374 C367 1.357 . S
C374 H387 0.928 . S
H375 C351 0.931 . S
H376 C353 0.930 . S
H377 C355 0.929 . S
H378 C356 0.931 . S
H379 C358 0.930 . S
H380 C362 0.931 . S
H381 C360 0.931 . S
H382 C364 0.931 . S
H383 C365 0.929 . S
H384 C366 0.930 . S
H385 C369 0.930 . S
H386 C370 0.931 . S
H387 C374 0.928 . S
H388 C373 0.929 . S
H389 C371 0.932 . S
C390 C391 1.386 . S
C390 C392 1.397 . S
C390 H414 0.931 . S
C391 C390 1.386 . S
C391 C395 1.397 . S
C392 C390 1.397 . S
C392 C393 1.384 . S
C392 H415 0.930 . S
C393 C392 1.384 . S
C393 C394 1.377 . S
C393 C396 1.481 . S
C394 C393 1.377 . S
C394 C395 1.389 . S
C394 H416 0.929 . S
C395 C391 1.397 . S
C395 C394 1.389 . S
C395 H417 0.931 . S
C396 C393 1.481 . S
C396 C397 1.387 . S
C396 C401 1.390 . S
C397 C396 1.387 . S
C397 C398 1.401 . S
C397 H418 0.930 . S
C398 C397 1.401 . S
C398 C399 1.376 . S
C398 C407 1.511 . S
C399 C398 1.376 . S
C399 C400 1.392 . S
C399 H420 0.931 . S
C400 C399 1.392 . S
C400 C401 1.361 . S
C400 C402 1.500 . S
C401 C396 1.390 . S
C401 C400 1.361 . S
C401 H419 0.931 . S
C402 C400 1.500 . S
C402 C403 1.371 . S
C402 C404 1.365 . S
C403 C402 1.371 . S
C403 C413 1.386 . S
C403 H421 0.931 . S
C404 C402 1.365 . S
C404 C405 1.409 . S
C404 H422 0.929 . S
C405 C404 1.409 . S
C405 C406 1.380 . S
C405 H423 0.930 . S
C406 C405 1.380 . S
C406 C413 1.357 . S
C407 C398 1.511 . S
C407 C408 1.341 . S
C407 C409 1.371 . S
C408 C407 1.341 . S
C408 C412 1.394 . S
C408 H424 0.930 . S
C409 C407 1.371 . S
C409 C410 1.392 . S
C409 H425 0.931 . S
C410 C409 1.392 . S
C410 C411 1.331 . S
C410 H428 0.932 . S
C411 C410 1.331 . S
C411 C412 1.336 . S
C412 C408 1.394 . S
C412 C411 1.336 . S
C412 H427 0.929 . S
C413 C403 1.386 . S
C413 C406 1.357 . S
C413 H426 0.928 . S
H414 C390 0.931 . S
H415 C392 0.930 . S
H416 C394 0.929 . S
H417 C395 0.931 . S
H418 C397 0.930 . S
H419 C401 0.931 . S
H420 C399 0.931 . S
H421 C403 0.931 . S
H422 C404 0.929 . S
H423 C405 0.930 . S
H424 C408 0.930 . S
H425 C409 0.931 . S
H426 C413 0.928 . S
H427 C412 0.929 . S
H428 C410 0.932 . S
C429 C430 1.386 . S
C429 C431 1.397 . S
C429 H453 0.931 . S
C430 C429 1.386 . S
C430 C434 1.397 . S
C431 C429 1.397 . S
C431 C432 1.384 . S
C431 H454 0.930 . S
C432 C431 1.384 . S
C432 C433 1.377 . S
C432 C435 1.481 . S
C433 C432 1.377 . S
C433 C434 1.389 . S
C433 H455 0.929 . S
C434 C430 1.397 . S
C434 C433 1.389 . S
C434 H456 0.931 . S
C435 C432 1.481 . S
C435 C436 1.387 . S
C435 C440 1.390 . S
C436 C435 1.387 . S
C436 C437 1.401 . S
C436 H457 0.930 . S
C437 C436 1.401 . S
C437 C438 1.376 . S
C437 C446 1.511 . S
C438 C437 1.376 . S
C438 C439 1.392 . S
C438 H459 0.931 . S
C439 C438 1.392 . S
C439 C440 1.361 . S
C439 C441 1.500 . S
C440 C435 1.390 . S
C440 C439 1.361 . S
C440 H458 0.931 . S
C441 C439 1.500 . S
C441 C442 1.371 . S
C441 C443 1.365 . S
C442 C441 1.371 . S
C442 C452 1.386 . S
C442 H460 0.931 . S
C443 C441 1.365 . S
C443 C444 1.409 . S
C443 H461 0.929 . S
C444 C443 1.409 . S
C444 C445 1.380 . S
C444 H462 0.930 . S
C445 C444 1.380 . S
C445 C452 1.357 . S
C446 C437 1.511 . S
C446 C447 1.341 . S
C446 C448 1.371 . S
C447 C446 1.341 . S
C447 C451 1.394 . S
C447 H463 0.930 . S
C448 C446 1.371 . S
C448 C449 1.392 . S
C448 H464 0.931 . S
C449 C448 1.392 . S
C449 C450 1.331 . S
C449 H467 0.932 . S
C450 C449 1.331 . S
C450 C451 1.336 . S
C451 C447 1.394 . S
C451 C450 1.336 . S
C451 H466 0.929 . S
C452 C442 1.386 . S
C452 C445 1.357 . S
C452 H465 0.928 . S
H453 C429 0.931 . S
H454 C431 0.930 . S
H455 C433 0.929 . S
H456 C434 0.931 . S
H457 C436 0.930 . S
H458 C440 0.931 . S
H459 C438 0.931 . S
H460 C442 0.931 . S
H461 C443 0.929 . S
H462 C444 0.930 . S
H463 C447 0.930 . S
H464 C448 0.931 . S
H465 C452 0.928 . S
H466 C451 0.929 . S
H467 C449 0.932 . S
C468 C469 1.386 . S
C468 C470 1.397 . S
C468 H492 0.931 . S
C469 C468 1.386 . S
C469 C473 1.397 . S
C470 C468 1.397 . S
C470 C471 1.384 . S
C470 H493 0.930 . S
C471 C470 1.384 . S
C471 C472 1.377 . S
C471 C474 1.481 . S
C472 C471 1.377 . S
C472 C473 1.389 . S
C472 H494 0.929 . S
C473 C469 1.397 . S
C473 C472 1.389 . S
C473 H495 0.931 . S
C474 C471 1.481 . S
C474 C475 1.387 . S
C474 C479 1.390 . S
C475 C474 1.387 . S
C475 C476 1.401 . S
C475 H496 0.930 . S
C476 C475 1.401 . S
C476 C477 1.376 . S
C476 C485 1.511 . S
C477 C476 1.376 . S
C477 C478 1.392 . S
C477 H498 0.931 . S
C478 C477 1.392 . S
C478 C479 1.361 . S
C478 C480 1.500 . S
C479 C474 1.390 . S
C479 C478 1.361 . S
C479 H497 0.931 . S
C480 C478 1.500 . S
C480 C481 1.371 . S
C480 C482 1.365 . S
C481 C480 1.371 . S
C481 C491 1.386 . S
C481 H499 0.931 . S
C482 C480 1.365 . S
C482 C483 1.409 . S
C482 H500 0.929 . S
C483 C482 1.409 . S
C483 C484 1.380 . S
C483 H501 0.930 . S
C484 C483 1.380 . S
C484 C491 1.357 . S
C485 C476 1.511 . S
C485 C486 1.341 . S
C485 C487 1.371 . S
C486 C485 1.341 . S
C486 C490 1.394 . S
C486 H502 0.930 . S
C487 C485 1.371 . S
C487 C488 1.392 . S
C487 H503 0.931 . S
C488 C487 1.392 . S
C488 C489 1.331 . S
C488 H506 0.932 . S
C489 C488 1.331 . S
C489 C490 1.336 . S
C490 C486 1.394 . S
C490 C489 1.336 . S
C490 H505 0.929 . S
C491 C481 1.386 . S
C491 C484 1.357 . S
C491 H504 0.928 . S
H492 C468 0.931 . S
H493 C470 0.930 . S
H494 C472 0.929 . S
H495 C473 0.931 . S
H496 C475 0.930 . S
H497 C479 0.931 . S
H498 C477 0.931 . S
H499 C481 0.931 . S
H500 C482 0.929 . S
H501 C483 0.930 . S
H502 C486 0.930 . S
H503 C487 0.931 . S
H504 C491 0.928 . S
H505 C490 0.929 . S
H506 C488 0.932 . S
C507 C508 1.386 . S
C507 C509 1.397 . S
C507 H531 0.931 . S
C508 C507 1.386 . S
C508 C512 1.397 . S
C509 C507 1.397 . S
C509 C510 1.384 . S
C509 H532 0.930 . S
C510 C509 1.384 . S
C510 C511 1.377 . S
C510 C513 1.481 . S
C511 C510 1.377 . S
C511 C512 1.389 . S
C511 H533 0.929 . S
C512 C508 1.397 . S
C512 C511 1.389 . S
C512 H534 0.931 . S
C513 C510 1.481 . S
C513 C514 1.387 . S
C513 C518 1.390 . S
C514 C513 1.387 . S
C514 C515 1.401 . S
C514 H535 0.930 . S
C515 C514 1.401 . S
C515 C516 1.376 . S
C515 C524 1.511 . S
C516 C515 1.376 . S
C516 C517 1.392 . S
C516 H537 0.931 . S
C517 C516 1.392 . S
C517 C518 1.361 . S
C517 C519 1.500 . S
C518 C513 1.390 . S
C518 C517 1.361 . S
C518 H536 0.931 . S
C519 C517 1.500 . S
C519 C520 1.371 . S
C519 C521 1.365 . S
C520 C519 1.371 . S
C520 C530 1.386 . S
C520 H538 0.931 . S
C521 C519 1.365 . S
C521 C522 1.409 . S
C521 H539 0.929 . S
C522 C521 1.409 . S
C522 C523 1.380 . S
C522 H540 0.930 . S
C523 C522 1.380 . S
C523 C530 1.357 . S
C524 C515 1.511 . S
C524 C525 1.341 . S
C524 C526 1.371 . S
C525 C524 1.341 . S
C525 C529 1.394 . S
C525 H541 0.930 . S
C526 C524 1.371 . S
C526 C527 1.392 . S
C526 H542 0.931 . S
C527 C526 1.392 . S
C527 C528 1.331 . S
C527 H545 0.932 . S
C528 C527 1.331 . S
C528 C529 1.336 . S
C529 C525 1.394 . S
C529 C528 1.336 . S
C529 H544 0.929 . S
C530 C520 1.386 . S
C530 C523 1.357 . S
C530 H543 0.928 . S
H531 C507 0.931 . S
H532 C509 0.930 . S
H533 C511 0.929 . S
H534 C512 0.931 . S
H535 C514 0.930 . S
H536 C518 0.931 . S
H537 C516 0.931 . S
H538 C520 0.931 . S
H539 C521 0.929 . S
H540 C522 0.930 . S
H541 C525 0.930 . S
H542 C526 0.931 . S
H543 C530 0.928 . S
H544 C529 0.929 . S
H545 C527 0.932 . S
C546 C547 1.386 . S
C546 C548 1.397 . S
C546 H570 0.931 . S
C547 C546 1.386 . S
C547 C551 1.397 . S
C548 C546 1.397 . S
C548 C549 1.384 . S
C548 H571 0.930 . S
C549 C548 1.384 . S
C549 C550 1.377 . S
C549 C552 1.481 . S
C550 C549 1.377 . S
C550 C551 1.389 . S
C550 H572 0.929 . S
C551 C547 1.397 . S
C551 C550 1.389 . S
C551 H573 0.931 . S
C552 C549 1.481 . S
C552 C553 1.387 . S
C552 C557 1.390 . S
C553 C552 1.387 . S
C553 C554 1.401 . S
C553 H574 0.930 . S
C554 C553 1.401 . S
C554 C555 1.376 . S
C554 C563 1.511 . S
C555 C554 1.376 . S
C555 C556 1.392 . S
C555 H576 0.931 . S
C556 C555 1.392 . S
C556 C557 1.361 . S
C556 C558 1.500 . S
C557 C552 1.390 . S
C557 C556 1.361 . S
C557 H575 0.931 . S
C558 C556 1.500 . S
C558 C559 1.371 . S
C558 C560 1.365 . S
C559 C558 1.371 . S
C559 C569 1.386 . S
C559 H577 0.931 . S
C560 C558 1.365 . S
C560 C561 1.409 . S
C560 H578 0.929 . S
C561 C560 1.409 . S
C561 C562 1.380 . S
C561 H579 0.930 . S
C562 C561 1.380 . S
C562 C569 1.357 . S
C563 C554 1.511 . S
C563 C564 1.341 . S
C563 C565 1.371 . S
C564 C563 1.341 . S
C564 C568 1.394 . S
C564 H580 0.930 . S
C565 C563 1.371 . S
C565 C566 1.392 . S
C565 H581 0.931 . S
C566 C565 1.392 . S
C566 C567 1.331 . S
C566 H584 0.932 . S
C567 C566 1.331 . S
C567 C568 1.336 . S
C568 C564 1.394 . S
C568 C567 1.336 . S
C568 H583 0.929 . S
C569 C559 1.386 . S
C569 C562 1.357 . S
C569 H582 0.928 . S
H570 C546 0.931 . S
H571 C548 0.930 . S
H572 C550 0.929 . S
H573 C551 0.931 . S
H574 C553 0.930 . S
H575 C557 0.931 . S
H576 C555 0.931 . S
H577 C559 0.931 . S
H578 C560 0.929 . S
H579 C561 0.930 . S
H580 C564 0.930 . S
H581 C565 0.931 . S
H582 C569 0.928 . S
H583 C568 0.929 . S
H584 C566 0.932 . S
C585 C586 1.386 . S
C585 C587 1.397 . S
C585 H609 0.931 . S
C586 C585 1.386 . S
C586 C590 1.397 . S
C587 C585 1.397 . S
C587 C588 1.384 . S
C587 H610 0.930 . S
C588 C587 1.384 . S
C588 C589 1.377 . S
C588 C591 1.481 . S
C589 C588 1.377 . S
C589 C590 1.389 . S
C589 H611 0.929 . S
C590 C586 1.397 . S
C590 C589 1.389 . S
C590 H612 0.931 . S
C591 C588 1.481 . S
C591 C592 1.387 . S
C591 C596 1.390 . S
C592 C591 1.387 . S
C592 C593 1.401 . S
C592 H613 0.930 . S
C593 C592 1.401 . S
C593 C594 1.376 . S
C593 C602 1.511 . S
C594 C593 1.376 . S
C594 C595 1.392 . S
C594 H615 0.931 . S
C595 C594 1.392 . S
C595 C596 1.361 . S
C595 C597 1.500 . S
C596 C591 1.390 . S
C596 C595 1.361 . S
C596 H614 0.931 . S
C597 C595 1.500 . S
C597 C598 1.371 . S
C597 C599 1.365 . S
C598 C597 1.371 . S
C598 C608 1.386 . S
C598 H616 0.931 . S
C599 C597 1.365 . S
C599 C600 1.409 . S
C599 H617 0.929 . S
C600 C599 1.409 . S
C600 C601 1.380 . S
C600 H618 0.930 . S
C601 C600 1.380 . S
C601 C608 1.357 . S
C602 C593 1.511 . S
C602 C603 1.341 . S
C602 C604 1.371 . S
C603 C602 1.341 . S
C603 C607 1.394 . S
C603 H619 0.930 . S
C604 C602 1.371 . S
C604 C605 1.392 . S
C604 H620 0.931 . S
C605 C604 1.392 . S
C605 C606 1.331 . S
C605 H623 0.932 . S
C606 C605 1.331 . S
C606 C607 1.336 . S
C607 C603 1.394 . S
C607 C606 1.336 . S
C607 H622 0.929 . S
C608 C598 1.386 . S
C608 C601 1.357 . S
C608 H621 0.928 . S
H609 C585 0.931 . S
H610 C587 0.930 . S
H611 C589 0.929 . S
H612 C590 0.931 . S
H613 C592 0.930 . S
H614 C596 0.931 . S
H615 C594 0.931 . S
H616 C598 0.931 . S
H617 C599 0.929 . S
H618 C600 0.930 . S
H619 C603 0.930 . S
H620 C604 0.931 . S
H621 C608 0.928 . S
H622 C607 0.929 . S
H623 C605 0.932 . S
C624 C625 1.386 . S
C624 C626 1.397 . S
C624 H648 0.931 . S
C625 C624 1.386 . S
C625 C629 1.397 . S
C626 C624 1.397 . S
C626 C627 1.384 . S
C626 H649 0.930 . S
C627 C626 1.384 . S
C627 C628 1.377 . S
C627 C630 1.481 . S
C628 C627 1.377 . S
C628 C629 1.389 . S
C628 H650 0.929 . S
C629 C625 1.397 . S
C629 C628 1.389 . S
C629 H651 0.931 . S
C630 C627 1.481 . S
C630 C631 1.387 . S
C630 C635 1.390 . S
C631 C630 1.387 . S
C631 C632 1.401 . S
C631 H652 0.930 . S
C632 C631 1.401 . S
C632 C633 1.376 . S
C632 C641 1.511 . S
C633 C632 1.376 . S
C633 C634 1.392 . S
C633 H654 0.931 . S
C634 C633 1.392 . S
C634 C635 1.361 . S
C634 C636 1.500 . S
C635 C630 1.390 . S
C635 C634 1.361 . S
C635 H653 0.931 . S
C636 C634 1.500 . S
C636 C637 1.371 . S
C636 C638 1.365 . S
C637 C636 1.371 . S
C637 C647 1.386 . S
C637 H655 0.931 . S
C638 C636 1.365 . S
C638 C639 1.409 . S
C638 H656 0.929 . S
C639 C638 1.409 . S
C639 C640 1.380 . S
C639 H657 0.930 . S
C640 C639 1.380 . S
C640 C647 1.357 . S
C641 C632 1.511 . S
C641 C642 1.341 . S
C641 C643 1.371 . S
C642 C641 1.341 . S
C642 C646 1.394 . S
C642 H658 0.930 . S
C643 C641 1.371 . S
C643 C644 1.392 . S
C643 H659 0.931 . S
C644 C643 1.392 . S
C644 C645 1.331 . S
C644 H662 0.932 . S
C645 C644 1.331 . S
C645 C646 1.336 . S
C646 C642 1.394 . S
C646 C645 1.336 . S
C646 H661 0.929 . S
C647 C637 1.386 . S
C647 C640 1.357 . S
C647 H660 0.928 . S
H648 C624 0.931 . S
H649 C626 0.930 . S
H650 C628 0.929 . S
H651 C629 0.931 . S
H652 C631 0.930 . S
H653 C635 0.931 . S
H654 C633 0.931 . S
H655 C637 0.931 . S
H656 C638 0.929 . S
H657 C639 0.930 . S
H658 C642 0.930 . S
H659 C643 0.931 . S
H660 C647 0.928 . S
H661 C646 0.929 . S
H662 C644 0.932 . S
C663 C664 1.386 . S
C663 C665 1.397 . S
C663 H687 0.931 . S
C664 C663 1.386 . S
C664 C668 1.397 . S
C665 C663 1.397 . S
C665 C666 1.384 . S
C665 H688 0.930 . S
C666 C665 1.384 . S
C666 C667 1.377 . S
C666 C669 1.481 . S
C667 C666 1.377 . S
C667 C668 1.389 . S
C667 H689 0.929 . S
C668 C664 1.397 . S
C668 C667 1.389 . S
C668 H690 0.931 . S
C669 C666 1.481 . S
C669 C670 1.387 . S
C669 C674 1.390 . S
C670 C669 1.387 . S
C670 C671 1.401 . S
C670 H691 0.930 . S
C671 C670 1.401 . S
C671 C672 1.376 . S
C671 C680 1.511 . S
C672 C671 1.376 . S
C672 C673 1.392 . S
C672 H693 0.931 . S
C673 C672 1.392 . S
C673 C674 1.361 . S
C673 C675 1.500 . S
C674 C669 1.390 . S
C674 C673 1.361 . S
C674 H692 0.931 . S
C675 C673 1.500 . S
C675 C676 1.371 . S
C675 C677 1.365 . S
C676 C675 1.371 . S
C676 C686 1.386 . S
C676 H694 0.931 . S
C677 C675 1.365 . S
C677 C678 1.409 . S
C677 H695 0.929 . S
C678 C677 1.409 . S
C678 C679 1.380 . S
C678 H696 0.930 . S
C679 C678 1.380 . S
C679 C686 1.357 . S
C680 C671 1.511 . S
C680 C681 1.341 . S
C680 C682 1.371 . S
C681 C680 1.341 . S
C681 C685 1.394 . S
C681 H697 0.930 . S
C682 C680 1.371 . S
C682 C683 1.392 . S
C682 H698 0.931 . S
C683 C682 1.392 . S
C683 C684 1.331 . S
C683 H701 0.932 . S
C684 C683 1.331 . S
C684 C685 1.336 . S
C685 C681 1.394 . S
C685 C684 1.336 . S
C685 H700 0.929 . S
C686 C676 1.386 . S
C686 C679 1.357 . S
C686 H699 0.928 . S
H687 C663 0.931 . S
H688 C665 0.930 . S
H689 C667 0.929 . S
H690 C668 0.931 . S
H691 C670 0.930 . S
H692 C674 0.931 . S
H693 C672 0.931 . S
H694 C676 0.931 . S
H695 C677 0.929 . S
H696 C678 0.930 . S
H697 C681 0.930 . S
H698 C682 0.931 . S
H699 C686 0.928 . S
H700 C685 0.929 . S
H701 C683 0.932 . S
O702 Mn703 2.163 1_565 S
O702 C716 1.244 . S
Mn703 O702 2.163 1_545 S
Mn703 O706 2.160 . S
Mn703 O707 2.221 1_545 S
Mn703 O709 2.163 1_554 S
Mn703 O711 2.160 . S
Mn703 O721 2.221 . S
O704 Mn705 2.087 1_565 S
O704 C716 1.256 . S
Mn705 O704 2.087 1_545 S
Mn705 O712 2.089 . S
Mn705 O721 2.290 . S
Mn705 O722 2.251 . S
O706 Mn703 2.160 . S
O706 C717 1.239 1_554 S
O707 Mn703 2.221 1_565 S
O707 Mn708 2.290 1_554 S
O707 C718 1.278 . S
Mn708 O707 2.290 1_556 S
Mn708 O710 2.089 1_565 S
Mn708 O713 2.251 . S
Mn708 O714 2.087 . S
O709 Mn703 2.163 1_556 S
O709 C719 1.244 . S
O710 Mn708 2.089 1_545 S
O710 C717 1.256 . S
O711 Mn703 2.160 . S
O711 C720 1.239 . S
O712 Mn705 2.089 . S
O712 C720 1.256 . S
O713 Mn708 2.251 . S
O713 C718 1.241 1_556 S
O714 Mn708 2.087 . S
O714 C719 1.256 1_565 S
C715 O721 1.278 . S
C715 O722 1.241 . S
C716 O702 1.244 . S
C716 O704 1.256 . S
C717 O706 1.239 1_556 S
C717 O710 1.256 . S
C718 O707 1.278 . S
C718 O713 1.241 1_554 S
C719 O709 1.244 . S
C719 O714 1.256 1_545 S
C720 O711 1.239 . S
C720 O712 1.256 . S
O721 Mn703 2.221 . S
O721 Mn705 2.290 . S
O721 C715 1.278 . S
O722 Mn705 2.251 . S
O722 C715 1.241 . S
O723 Mn724 2.135 1_455 S
O723 C737 1.244 . S
Mn724 O723 2.135 1_655 S
Mn724 O727 2.188 . S
Mn724 O728 2.219 1_655 S
Mn724 O730 2.163 1_554 S
Mn724 O732 2.162 . S
Mn724 O742 2.226 . S
O725 Mn726 2.087 1_455 S
O725 C737 1.256 . S
Mn726 O725 2.087 1_655 S
Mn726 O733 2.089 1_655 S
Mn726 O742 2.290 . S
Mn726 O743 2.251 . S
O727 Mn724 2.188 . S
O727 C738 1.239 1_554 S
O728 Mn724 2.219 1_455 S
O728 Mn729 2.290 1_554 S
O728 C739 1.278 . S
Mn729 O728 2.290 1_556 S
Mn729 O731 2.089 1_455 S
Mn729 O734 2.251 . S
Mn729 O735 2.087 . S
O730 Mn724 2.163 1_556 S
O730 C740 1.249 1_655 S
O731 Mn729 2.089 1_655 S
O731 C738 1.256 . S
O732 Mn724 2.162 . S
O732 C741 1.239 1_655 S
O733 Mn726 2.089 1_455 S
O733 C741 1.256 . S
O734 Mn729 2.251 . S
O734 C739 1.241 1_556 S
O735 Mn729 2.087 . S
O735 C740 1.254 . S
C736 O742 1.278 . S
C736 O743 1.241 . S
C737 O723 1.244 . S
C737 O725 1.256 . S
C738 O727 1.239 1_556 S
C738 O731 1.256 . S
C739 O728 1.278 . S
C739 O734 1.241 1_554 S
C740 O730 1.249 1_455 S
C740 O735 1.254 . S
C741 O732 1.239 1_455 S
C741 O733 1.256 . S
O742 Mn724 2.226 . S
O742 Mn726 2.290 . S
O742 C736 1.278 . S
O743 Mn726 2.251 . S
O743 C736 1.241 . S
O744 Mn745 2.158 1_556 S
O744 C758 1.267 . S
Mn745 O744 2.158 1_554 S
Mn745 O748 2.162 . S
Mn745 O749 2.225 . S
Mn745 O751 2.207 . S
Mn745 O753 2.115 1_554 S
Mn745 O763 2.216 1_554 S
O746 Mn747 2.087 . S
O746 C758 1.256 . S
Mn747 O746 2.087 . S
Mn747 O754 2.089 . S
Mn747 O763 2.290 . S
Mn747 O764 2.251 1_556 S
O748 Mn745 2.162 . S
O748 C759 1.239 . S
O749 Mn745 2.225 . S
O749 Mn750 2.290 . S
O749 C760 1.278 . S
Mn750 O749 2.290 . S
Mn750 O752 2.089 . S
Mn750 O755 2.251 . S
Mn750 O756 2.087 . S
O751 Mn745 2.207 . S
O751 C761 1.244 . S
O752 Mn750 2.089 . S
O752 C759 1.256 . S
O753 Mn745 2.115 1_556 S
O753 C762 1.239 . S
O754 Mn747 2.089 . S
O754 C762 1.256 . S
O755 Mn750 2.251 . S
O755 C760 1.241 . S
O756 Mn750 2.087 . S
O756 C761 1.256 . S
C757 O763 1.278 1_554 S
C757 O764 1.241 . S
C758 O744 1.267 . S
C758 O746 1.256 . S
C759 O748 1.239 . S
C759 O752 1.256 . S
C760 O749 1.278 . S
C760 O755 1.241 . S
C761 O751 1.244 . S
C761 O756 1.256 . S
C762 O753 1.239 . S
C762 O754 1.256 . S
O763 Mn745 2.216 1_556 S
O763 Mn747 2.290 . S
O763 C757 1.278 1_556 S
O764 Mn747 2.251 1_554 S
O764 C757 1.241 . S
O765 Mn766 2.163 . S
O765 C779 1.244 . S
Mn766 O765 2.163 . S
Mn766 O769 2.160 . S
Mn766 O770 2.221 . S
Mn766 O772 2.163 . S
Mn766 O774 2.160 . S
Mn766 O784 2.221 . S
O767 Mn768 2.087 . S
O767 C779 1.256 . S
Mn768 O767 2.087 . S
Mn768 O775 2.089 . S
Mn768 O784 2.290 . S
Mn768 O785 2.251 . S
O769 Mn766 2.160 . S
O769 C780 1.239 . S
O770 Mn766 2.221 . S
O770 Mn771 2.290 . S
O770 C781 1.278 . S
Mn771 O770 2.290 . S
Mn771 O773 2.089 . S
Mn771 O776 2.251 . S
Mn771 O777 2.087 . S
O772 Mn766 2.163 . S
O772 C782 1.244 . S
O773 Mn771 2.089 . S
O773 C780 1.256 . S
O774 Mn766 2.160 . S
O774 C783 1.239 . S
O775 Mn768 2.089 . S
O775 C783 1.256 . S
O776 Mn771 2.251 . S
O776 C781 1.241 . S
O777 Mn771 2.087 . S
O777 C782 1.256 . S
C778 O784 1.278 . S
C778 O785 1.241 . S
C779 O765 1.244 . S
C779 O767 1.256 . S
C780 O769 1.239 . S
C780 O773 1.256 . S
C781 O770 1.278 . S
C781 O776 1.241 . S
C782 O772 1.244 . S
C782 O777 1.256 . S
C783 O774 1.239 . S
C783 O775 1.256 . S
O784 Mn766 2.221 . S
O784 Mn768 2.290 . S
O784 C778 1.278 . S
O785 Mn768 2.251 . S
O785 C778 1.241 . S
O786 Mn787 2.163 . S
O786 C800 1.244 . S
Mn787 O786 2.163 . S
Mn787 O790 2.160 . S
Mn787 O791 2.221 . S
Mn787 O793 2.163 . S
Mn787 O795 2.160 . S
Mn787 O805 2.221 . S
O788 Mn789 2.087 . S
O788 C800 1.256 . S
Mn789 O788 2.087 . S
Mn789 O796 2.089 . S
Mn789 O805 2.290 . S
Mn789 O806 2.251 . S
O790 Mn787 2.160 . S
O790 C801 1.239 . S
O791 Mn787 2.221 . S
O791 Mn792 2.290 . S
O791 C802 1.278 . S
Mn792 O791 2.290 . S
Mn792 O794 2.089 . S
Mn792 O797 2.251 . S
Mn792 O798 2.087 . S
O793 Mn787 2.163 . S
O793 C803 1.244 . S
O794 Mn792 2.089 . S
O794 C801 1.256 . S
O795 Mn787 2.160 . S
O795 C804 1.239 . S
O796 Mn789 2.089 . S
O796 C804 1.256 . S
O797 Mn792 2.251 . S
O797 C802 1.241 . S
O798 Mn792 2.087 . S
O798 C803 1.256 . S
C799 O805 1.278 . S
C799 O806 1.241 . S
C800 O786 1.244 . S
C800 O788 1.256 . S
C801 O790 1.239 . S
C801 O794 1.256 . S
C802 O791 1.278 . S
C802 O797 1.241 . S
C803 O793 1.244 . S
C803 O798 1.256 . S
C804 O795 1.239 . S
C804 O796 1.256 . S
O805 Mn787 2.221 . S
O805 Mn789 2.290 . S
O805 C799 1.278 . S
O806 Mn789 2.251 . S
O806 C799 1.241 . S
O807 Mn808 2.163 . S
O807 C821 1.244 . S
Mn808 O807 2.163 . S
Mn808 O811 2.160 . S
Mn808 O812 2.221 . S
Mn808 O814 2.163 . S
Mn808 O816 2.160 . S
Mn808 O826 2.221 . S
O809 Mn810 2.087 . S
O809 C821 1.256 . S
Mn810 O809 2.087 . S
Mn810 O817 2.089 . S
Mn810 O826 2.290 . S
Mn810 O827 2.251 . S
O811 Mn808 2.160 . S
O811 C822 1.239 . S
O812 Mn808 2.221 . S
O812 Mn813 2.290 . S
O812 C823 1.278 . S
Mn813 O812 2.290 . S
Mn813 O815 2.089 . S
Mn813 O818 2.251 . S
Mn813 O819 2.087 . S
O814 Mn808 2.163 . S
O814 C824 1.244 . S
O815 Mn813 2.089 . S
O815 C822 1.256 . S
O816 Mn808 2.160 . S
O816 C825 1.239 . S
O817 Mn810 2.089 . S
O817 C825 1.256 . S
O818 Mn813 2.251 . S
O818 C823 1.241 . S
O819 Mn813 2.087 . S
O819 C824 1.256 . S
C820 O826 1.278 . S
C820 O827 1.241 . S
C821 O807 1.244 . S
C821 O809 1.256 . S
C822 O811 1.239 . S
C822 O815 1.256 . S
C823 O812 1.278 . S
C823 O818 1.241 . S
C824 O814 1.244 . S
C824 O819 1.256 . S
C825 O816 1.239 . S
C825 O817 1.256 . S
O826 Mn808 2.221 . S
O826 Mn810 2.290 . S
O826 C820 1.278 . S
O827 Mn810 2.251 . S
O827 C820 1.241 . S
O828 Mn829 2.163 . S
O828 C842 1.244 . S
Mn829 O828 2.163 . S
Mn829 O832 2.160 . S
Mn829 O833 2.221 . S
Mn829 O835 2.163 . S
Mn829 O837 2.160 . S
Mn829 O847 2.221 . S
O830 Mn831 2.087 . S
O830 C842 1.256 . S
Mn831 O830 2.087 . S
Mn831 O838 2.089 . S
Mn831 O847 2.290 . S
Mn831 O848 2.251 . S
O832 Mn829 2.160 . S
O832 C843 1.239 . S
O833 Mn829 2.221 . S
O833 Mn834 2.290 . S
O833 C844 1.278 . S
Mn834 O833 2.290 . S
Mn834 O836 2.089 . S
Mn834 O839 2.251 . S
Mn834 O840 2.087 . S
O835 Mn829 2.163 . S
O835 C845 1.244 . S
O836 Mn834 2.089 . S
O836 C843 1.256 . S
O837 Mn829 2.160 . S
O837 C846 1.239 . S
O838 Mn831 2.089 . S
O838 C846 1.256 . S
O839 Mn834 2.251 . S
O839 C844 1.241 . S
O840 Mn834 2.087 . S
O840 C845 1.256 . S
C841 O847 1.278 . S
C841 O848 1.241 . S
C842 O828 1.244 . S
C842 O830 1.256 . S
C843 O832 1.239 . S
C843 O836 1.256 . S
C844 O833 1.278 . S
C844 O839 1.241 . S
C845 O835 1.244 . S
C845 O840 1.256 . S
C846 O837 1.239 . S
C846 O838 1.256 . S
O847 Mn829 2.221 . S
O847 Mn831 2.290 . S
O847 C841 1.278 . S
O848 Mn831 2.251 . S
O848 C841 1.241 . S
O849 Mn850 2.163 . S
O849 C863 1.244 . S
Mn850 O849 2.163 . S
Mn850 O853 2.160 . S
Mn850 O854 2.221 . S
Mn850 O856 2.163 . S
Mn850 O858 2.160 . S
Mn850 O868 2.221 . S
O851 Mn852 2.087 . S
O851 C863 1.256 . S
Mn852 O851 2.087 . S
Mn852 O859 2.089 . S
Mn852 O868 2.290 . S
Mn852 O869 2.251 . S
O853 Mn850 2.160 . S
O853 C864 1.239 . S
O854 Mn850 2.221 . S
O854 Mn855 2.290 . S
O854 C865 1.278 . S
Mn855 O854 2.290 . S
Mn855 O857 2.089 . S
Mn855 O860 2.251 . S
Mn855 O861 2.087 . S
O856 Mn850 2.163 . S
O856 C866 1.244 . S
O857 Mn855 2.089 . S
O857 C864 1.256 . S
O858 Mn850 2.160 . S
O858 C867 1.239 . S
O859 Mn852 2.089 . S
O859 C867 1.256 . S
O860 Mn855 2.251 . S
O860 C865 1.241 . S
O861 Mn855 2.087 . S
O861 C866 1.256 . S
C862 O868 1.278 . S
C862 O869 1.241 . S
C863 O849 1.244 . S
C863 O851 1.256 . S
C864 O853 1.239 . S
C864 O857 1.256 . S
C865 O854 1.278 . S
C865 O860 1.241 . S
C866 O856 1.244 . S
C866 O861 1.256 . S
C867 O858 1.239 . S
C867 O859 1.256 . S
O868 Mn850 2.221 . S
O868 Mn852 2.290 . S
O868 C862 1.278 . S
O869 Mn852 2.251 . S
O869 C862 1.241 . S
O870 Mn871 2.163 . S
O870 C884 1.244 . S
Mn871 O870 2.163 . S
Mn871 O874 2.160 . S
Mn871 O875 2.221 . S
Mn871 O877 2.163 . S
Mn871 O879 2.160 . S
Mn871 O889 2.221 . S
O872 Mn873 2.087 . S
O872 C884 1.256 . S
Mn873 O872 2.087 . S
Mn873 O880 2.089 . S
Mn873 O889 2.290 . S
Mn873 O890 2.251 . S
O874 Mn871 2.160 . S
O874 C885 1.239 . S
O875 Mn871 2.221 . S
O875 Mn876 2.290 . S
O875 C886 1.278 . S
Mn876 O875 2.290 . S
Mn876 O878 2.089 . S
Mn876 O881 2.251 . S
Mn876 O882 2.087 . S
O877 Mn871 2.163 . S
O877 C887 1.244 . S
O878 Mn876 2.089 . S
O878 C885 1.256 . S
O879 Mn871 2.160 . S
O879 C888 1.239 . S
O880 Mn873 2.089 . S
O880 C888 1.256 . S
O881 Mn876 2.251 . S
O881 C886 1.241 . S
O882 Mn876 2.087 . S
O882 C887 1.256 . S
C883 O889 1.278 . S
C883 O890 1.241 . S
C884 O870 1.244 . S
C884 O872 1.256 . S
C885 O874 1.239 . S
C885 O878 1.256 . S
C886 O875 1.278 . S
C886 O881 1.241 . S
C887 O877 1.244 . S
C887 O882 1.256 . S
C888 O879 1.239 . S
C888 O880 1.256 . S
O889 Mn871 2.221 . S
O889 Mn873 2.290 . S
O889 C883 1.278 . S
O890 Mn873 2.251 . S
O890 C883 1.241 . S
C891 C892 1.349 . S
C891 C893 1.327 . S
C891 H916 0.950 . S
C892 C891 1.349 . S
C892 C908 1.349 . S
C893 C891 1.327 . S
C893 C912 1.429 . S
C893 H917 0.950 . S
C894 C911 1.574 . S
C894 C913 1.368 . S
C894 H918 0.949 . S
H895 C899 0.943 1_556 S
C896 C897 1.349 . S
C896 C898 1.327 . S
C896 H919 0.950 . S
C897 C896 1.349 . S
C897 C909 1.349 . S
C898 C896 1.327 . S
C898 C914 1.429 . S
C898 H920 0.950 . S
C899 H895 0.943 1_554 S
C899 C907 1.574 . S
C899 C915 1.368 . S
H900 C908 0.950 . S
H901 C906 0.950 . S
H902 C907 0.949 . S
H903 C909 0.950 1_556 S
H904 C910 0.950 1_556 S
H905 C911 0.949 . S
C906 H901 0.950 . S
C906 C908 1.327 . S
C906 C912 1.429 . S
C907 C899 1.574 . S
C907 H902 0.949 . S
C907 C913 1.368 . S
C908 C892 1.349 . S
C908 H900 0.950 . S
C908 C906 1.327 . S
C909 C897 1.349 . S
C909 H903 0.950 1_554 S
C909 C910 1.327 . S
C910 H904 0.950 1_554 S
C910 C909 1.327 . S
C910 C914 1.429 . S
C911 C894 1.574 . S
C911 H905 0.949 . S
C911 C915 1.368 . S
C912 C893 1.429 . S
C912 C906 1.429 . S
C912 C913 1.523 . S
C913 C894 1.368 . S
C913 C907 1.368 . S
C913 C912 1.523 . S
C914 C898 1.429 . S
C914 C910 1.429 . S
C914 C915 1.523 . S
C915 C899 1.368 . S
C915 C911 1.368 . S
C915 C914 1.523 . S
H916 C891 0.950 . S
H917 C893 0.950 . S
H918 C894 0.949 . S
H919 C896 0.950 . S
H920 C898 0.950 . S
C921 C922 1.349 . S
C921 C923 1.327 . S
C921 H946 0.950 . S
C922 C921 1.349 . S
C922 C938 1.349 . S
C923 C921 1.327 . S
C923 C942 1.429 . S
C923 H947 0.950 . S
C924 C941 1.574 . S
C924 C943 1.368 . S
C924 H948 0.949 . S
H925 C929 0.949 . S
C926 C927 1.349 . S
C926 C928 1.327 . S
C926 H949 0.950 . S
C927 C926 1.349 . S
C927 C939 1.349 . S
C928 C926 1.327 . S
C928 C944 1.429 . S
C928 H950 0.950 . S
C929 H925 0.949 . S
C929 C937 1.574 . S
C929 C945 1.368 . S
H930 C938 0.950 . S
H931 C936 0.950 . S
H932 C937 0.949 . S
H933 C939 0.950 . S
H934 C940 0.950 . S
H935 C941 0.949 . S
C936 H931 0.950 . S
C936 C938 1.327 . S
C936 C942 1.429 . S
C937 C929 1.574 . S
C937 H932 0.949 . S
C937 C943 1.368 . S
C938 C922 1.349 . S
C938 H930 0.950 . S
C938 C936 1.327 . S
C939 C927 1.349 . S
C939 H933 0.950 . S
C939 C940 1.327 . S
C940 H934 0.950 . S
C940 C939 1.327 . S
C940 C944 1.429 . S
C941 C924 1.574 . S
C941 H935 0.949 . S
C941 C945 1.368 . S
C942 C923 1.429 . S
C942 C936 1.429 . S
C942 C943 1.523 . S
C943 C924 1.368 . S
C943 C937 1.368 . S
C943 C942 1.523 . S
C944 C928 1.429 . S
C944 C940 1.429 . S
C944 C945 1.523 . S
C945 C929 1.368 . S
C945 C941 1.368 . S
C945 C944 1.523 . S
H946 C921 0.950 . S
H947 C923 0.950 . S
H948 C924 0.949 . S
H949 C926 0.950 . S
H950 C928 0.950 . S
C951 C952 1.349 . S
C951 C953 1.327 . S
C951 H976 0.950 . S
C952 C951 1.349 . S
C952 C968 1.349 . S
C953 C951 1.327 . S
C953 C972 1.429 . S
C953 H977 0.950 . S
C954 C971 1.574 . S
C954 C973 1.368 . S
C954 H978 0.949 . S
H955 C959 0.949 . S
C956 C957 1.349 . S
C956 C958 1.327 . S
C956 H979 0.950 1_554 S
C957 C956 1.349 . S
C957 C969 1.349 . S
C958 C956 1.327 . S
C958 C974 1.429 . S
C958 H980 0.950 1_554 S
C959 H955 0.949 . S
C959 C967 1.574 . S
C959 C975 1.368 . S
H960 C968 0.950 . S
H961 C966 0.950 . S
H962 C967 0.949 . S
H963 C969 0.950 . S
H964 C970 0.950 . S
H965 C971 0.949 1_556 S
C966 H961 0.950 . S
C966 C968 1.327 . S
C966 C972 1.429 . S
C967 C959 1.574 . S
C967 H962 0.949 . S
C967 C973 1.368 . S
C968 C952 1.349 . S
C968 H960 0.950 . S
C968 C966 1.327 . S
C969 C957 1.349 . S
C969 H963 0.950 . S
C969 C970 1.327 . S
C970 H964 0.950 . S
C970 C969 1.327 . S
C970 C974 1.429 . S
C971 C954 1.574 . S
C971 H965 0.949 1_554 S
C971 C975 1.368 . S
C972 C953 1.429 . S
C972 C966 1.429 . S
C972 C973 1.523 . S
C973 C954 1.368 . S
C973 C967 1.368 . S
C973 C972 1.523 . S
C974 C958 1.429 . S
C974 C970 1.429 . S
C974 C975 1.523 . S
C975 C959 1.368 . S
C975 C971 1.368 . S
C975 C974 1.523 . S
H976 C951 0.950 . S
H977 C953 0.950 . S
H978 C954 0.949 . S
H979 C956 0.950 1_556 S
H980 C958 0.950 1_556 S
C981 C982 1.349 . S
C981 C983 1.327 . S
C981 H1006 0.950 . S
C982 C981 1.349 . S
C982 C998 1.349 . S
C983 C981 1.327 . S
C983 C1002 1.429 . S
C983 H1007 0.950 . S
C984 C1001 1.574 . S
C984 C1003 1.368 . S
C984 H1008 0.949 1_556 S
H985 C989 0.949 . S
C986 C987 1.349 1_554 S
C986 C988 1.327 . S
C986 H1009 0.950 . S
C987 C986 1.349 1_556 S
C987 C999 1.349 . S
C988 C986 1.327 . S
C988 C1004 1.429 1_554 S
C988 H1010 0.950 . S
C989 H985 0.949 . S
C989 C997 1.574 . S
C989 C1005 1.368 . S
H990 C998 0.950 . S
H991 C996 0.950 . S
H992 C997 0.949 . S
H993 C999 0.950 . S
H994 C1000 0.950 . S
H995 C1001 0.949 1_554 S
C996 H991 0.950 . S
C996 C998 1.327 . S
C996 C1002 1.429 . S
C997 C989 1.574 . S
C997 H992 0.949 . S
C997 C1003 1.368 . S
C998 C982 1.349 . S
C998 H990 0.950 . S
C998 C996 1.327 . S
C999 C987 1.349 . S
C999 H993 0.950 . S
C999 C1000 1.327 . S
C1000 H994 0.950 . S
C1000 C999 1.327 . S
C1000 C1004 1.429 . S
C1001 C984 1.574 . S
C1001 H995 0.949 1_556 S
C1001 C1005 1.368 . S
C1002 C983 1.429 . S
C1002 C996 1.429 . S
C1002 C1003 1.523 . S
C1003 C984 1.368 . S
C1003 C997 1.368 . S
C1003 C1002 1.523 . S
C1004 C988 1.429 1_556 S
C1004 C1000 1.429 . S
C1004 C1005 1.523 . S
C1005 C989 1.368 . S
C1005 C1001 1.368 . S
C1005 C1004 1.523 . S
H1006 C981 0.950 . S
H1007 C983 0.950 . S
H1008 C984 0.949 1_554 S
H1009 C986 0.950 . S
H1010 C988 0.950 . S
C1011 C1012 1.349 . S
C1011 C1013 1.327 . S
C1011 H1036 0.950 . S
C1012 C1011 1.349 . S
C1012 C1028 1.349 . S
C1013 C1011 1.327 . S
C1013 C1032 1.429 . S
C1013 H1037 0.950 . S
C1014 C1031 1.574 . S
C1014 C1033 1.368 . S
C1014 H1038 0.949 . S
H1015 C1019 0.949 . S
C1016 C1017 1.349 . S
C1016 C1018 1.327 . S
C1016 H1039 0.950 1_556 S
C1017 C1016 1.349 . S
C1017 C1029 1.349 . S
C1018 C1016 1.327 . S
C1018 C1034 1.429 . S
C1018 H1040 0.950 . S
C1019 H1015 0.949 . S
C1019 C1027 1.574 . S
C1019 C1035 1.368 . S
H1020 C1028 0.950 . S
H1021 C1026 0.950 . S
H1022 C1027 0.949 . S
H1023 C1029 0.950 . S
H1024 C1030 0.950 . S
H1025 C1031 0.949 . S
C1026 H1021 0.950 . S
C1026 C1028 1.327 . S
C1026 C1032 1.429 . S
C1027 C1019 1.574 . S
C1027 H1022 0.949 . S
C1027 C1033 1.368 . S
C1028 C1012 1.349 . S
C1028 H1020 0.950 . S
C1028 C1026 1.327 . S
C1029 C1017 1.349 . S
C1029 H1023 0.950 . S
C1029 C1030 1.327 . S
C1030 H1024 0.950 . S
C1030 C1029 1.327 . S
C1030 C1034 1.429 . S
C1031 C1014 1.574 . S
C1031 H1025 0.949 . S
C1031 C1035 1.368 . S
C1032 C1013 1.429 . S
C1032 C1026 1.429 . S
C1032 C1033 1.523 . S
C1033 C1014 1.368 . S
C1033 C1027 1.368 . S
C1033 C1032 1.523 . S
C1034 C1018 1.429 . S
C1034 C1030 1.429 . S
C1034 C1035 1.523 . S
C1035 C1019 1.368 . S
C1035 C1031 1.368 . S
C1035 C1034 1.523 . S
H1036 C1011 0.950 . S
H1037 C1013 0.950 . S
H1038 C1014 0.949 . S
H1039 C1016 0.950 1_554 S
H1040 C1018 0.950 . S
C1041 C1042 1.349 . S
C1041 C1043 1.327 . S
C1041 H1066 0.950 . S
C1042 C1041 1.349 . S
C1042 C1058 1.349 . S
C1043 C1041 1.327 . S
C1043 C1062 1.429 . S
C1043 H1067 1.007 . S
C1044 C1061 1.574 . S
C1044 C1063 1.368 . S
C1044 H1068 0.949 . S
H1045 C1049 0.949 1_554 S
C1046 C1047 1.349 . S
C1046 C1048 1.327 . S
C1046 H1069 0.950 . S
C1047 C1046 1.349 . S
C1047 C1059 1.349 1_556 S
C1048 C1046 1.327 . S
C1048 C1064 1.429 . S
C1048 H1070 0.950 . S
C1049 H1045 0.949 1_556 S
C1049 C1057 1.574 . S
C1049 C1065 1.368 . S
H1050 C1058 0.950 . S
H1051 C1056 0.950 . S
H1052 C1057 0.949 1_554 S
H1053 C1059 0.950 . S
H1054 C1060 0.950 . S
H1055 C1061 0.949 . S
C1056 H1051 0.950 . S
C1056 C1058 1.327 . S
C1056 C1062 1.429 . S
C1057 C1049 1.574 . S
C1057 H1052 0.949 1_556 S
C1057 C1063 1.368 . S
C1058 C1042 1.349 . S
C1058 H1050 0.950 . S
C1058 C1056 1.327 . S
C1059 C1047 1.349 1_554 S
C1059 H1053 0.950 . S
C1059 C1060 1.327 . S
C1060 H1054 0.950 . S
C1060 C1059 1.327 . S
C1060 C1064 1.429 1_554 S
C1061 C1044 1.574 . S
C1061 H1055 0.949 . S
C1061 C1065 1.368 . S
C1062 C1043 1.429 . S
C1062 C1056 1.429 . S
C1062 C1063 1.523 . S
C1063 C1044 1.368 . S
C1063 C1057 1.368 . S
C1063 C1062 1.523 . S
C1064 C1048 1.429 . S
C1064 C1060 1.429 1_556 S
C1064 C1065 1.523 . S
C1065 C1049 1.368 . S
C1065 C1061 1.368 . S
C1065 C1064 1.523 . S
H1066 C1041 0.950 . S
H1067 C1043 1.007 . S
H1068 C1044 0.949 . S
H1069 C1046 0.950 . S
H1070 C1048 0.950 . S
C1071 C1072 1.349 . S
C1071 C1073 1.327 . S
C1071 H1096 0.950 . S
C1072 C1071 1.349 . S
C1072 C1088 1.349 . S
C1073 C1071 1.327 . S
C1073 C1092 1.429 . S
C1073 H1097 0.950 . S
C1074 C1091 1.574 . S
C1074 C1093 1.368 . S
C1074 H1098 0.949 . S
H1075 C1079 0.949 . S
C1076 C1077 1.349 1_554 S
C1076 C1078 1.327 . S
C1076 H1099 0.950 . S
C1077 C1076 1.349 1_556 S
C1077 C1089 1.349 . S
C1078 C1076 1.327 . S
C1078 C1094 1.429 1_554 S
C1078 H1100 0.950 . S
C1079 H1075 0.949 . S
C1079 C1087 1.574 . S
C1079 C1095 1.368 . S
H1080 C1088 0.950 . S
H1081 C1086 0.950 . S
H1082 C1087 0.949 . S
H1083 C1089 0.950 . S
H1084 C1090 0.950 . S
H1085 C1091 0.949 1_554 S
C1086 H1081 0.950 . S
C1086 C1088 1.327 . S
C1086 C1092 1.429 . S
C1087 C1079 1.574 . S
C1087 H1082 0.949 . S
C1087 C1093 1.368 . S
C1088 C1072 1.349 . S
C1088 H1080 0.950 . S
C1088 C1086 1.327 . S
C1089 C1077 1.349 . S
C1089 H1083 0.950 . S
C1089 C1090 1.327 . S
C1090 H1084 0.950 . S
C1090 C1089 1.327 . S
C1090 C1094 1.429 . S
C1091 C1074 1.574 . S
C1091 H1085 0.949 1_556 S
C1091 C1095 1.368 . S
C1092 C1073 1.429 . S
C1092 C1086 1.429 . S
C1092 C1093 1.523 . S
C1093 C1074 1.368 . S
C1093 C1087 1.368 . S
C1093 C1092 1.523 . S
C1094 C1078 1.429 1_556 S
C1094 C1090 1.429 . S
C1094 C1095 1.523 . S
C1095 C1079 1.368 . S
C1095 C1091 1.368 . S
C1095 C1094 1.523 . S
H1096 C1071 0.950 . S
H1097 C1073 0.950 . S
H1098 C1074 0.949 . S
H1099 C1076 0.950 . S
H1100 C1078 0.950 . S
C1101 C1102 1.349 . S
C1101 C1103 1.327 . S
C1101 H1126 0.950 . S
C1102 C1101 1.349 . S
C1102 C1118 1.349 . S
C1103 C1101 1.327 . S
C1103 C1122 1.429 . S
C1103 H1127 0.950 1_556 S
C1104 C1121 1.574 . S
C1104 C1123 1.368 . S
C1104 H1128 0.949 . S
H1105 C1109 0.949 . S
C1106 C1107 1.349 . S
C1106 C1108 1.327 . S
C1106 H1129 0.950 . S
C1107 C1106 1.349 . S
C1107 C1119 1.349 1_556 S
C1108 C1106 1.327 . S
C1108 C1124 1.429 . S
C1108 H1130 0.950 . S
C1109 H1105 0.949 . S
C1109 C1117 1.574 1_554 S
C1109 C1125 1.368 1_554 S
H1110 C1118 0.950 . S
H1111 C1116 0.950 . S
H1112 C1117 0.949 1_554 S
H1113 C1119 0.950 . S
H1114 C1120 0.950 . S
H1115 C1121 0.949 . S
C1116 H1111 0.950 . S
C1116 C1118 1.327 . S
C1116 C1122 1.429 . S
C1117 C1109 1.574 1_556 S
C1117 H1112 0.949 1_556 S
C1117 C1123 1.368 . S
C1118 C1102 1.349 . S
C1118 H1110 0.950 . S
C1118 C1116 1.327 . S
C1119 C1107 1.349 1_554 S
C1119 H1113 0.950 . S
C1119 C1120 1.327 . S
C1120 H1114 0.950 . S
C1120 C1119 1.327 . S
C1120 C1124 1.429 1_554 S
C1121 C1104 1.574 . S
C1121 H1115 0.949 . S
C1121 C1125 1.368 . S
C1122 C1103 1.429 . S
C1122 C1116 1.429 . S
C1122 C1123 1.523 . S
C1123 C1104 1.368 . S
C1123 C1117 1.368 . S
C1123 C1122 1.523 . S
C1124 C1108 1.429 . S
C1124 C1120 1.429 1_556 S
C1124 C1125 1.523 . S
C1125 C1109 1.368 1_556 S
C1125 C1121 1.368 . S
C1125 C1124 1.523 . S
H1126 C1101 0.950 . S
H1127 C1103 0.950 1_554 S
H1128 C1104 0.949 . S
H1129 C1106 0.950 . S
H1130 C1108 0.950 . S
C1131 C1132 1.349 . S
C1131 C1133 1.327 . S
C1131 H1156 0.950 . S
C1132 C1131 1.349 . S
C1132 C1148 1.349 . S
C1133 C1131 1.327 . S
C1133 C1152 1.429 . S
C1133 H1157 0.950 . S
C1134 C1151 1.574 . S
C1134 C1153 1.368 . S
C1134 H1158 0.949 . S
H1135 C1139 0.949 1_554 S
C1136 C1137 1.349 . S
C1136 C1138 1.327 . S
C1136 H1159 0.950 . S
C1137 C1136 1.349 . S
C1137 C1149 1.349 1_556 S
C1138 C1136 1.327 . S
C1138 C1154 1.429 . S
C1138 H1160 0.950 . S
C1139 H1135 0.949 1_556 S
C1139 C1147 1.574 . S
C1139 C1155 1.368 . S
H1140 C1148 0.950 . S
H1141 C1146 0.950 . S
H1142 C1147 0.949 1_554 S
H1143 C1149 0.950 . S
H1144 C1150 0.950 . S
H1145 C1151 0.949 . S
C1146 H1141 0.950 . S
C1146 C1148 1.327 . S
C1146 C1152 1.429 . S
C1147 C1139 1.574 . S
C1147 H1142 0.949 1_556 S
C1147 C1153 1.368 . S
C1148 C1132 1.349 . S
C1148 H1140 0.950 . S
C1148 C1146 1.327 . S
C1149 C1137 1.349 1_554 S
C1149 H1143 0.950 . S
C1149 C1150 1.327 . S
C1150 H1144 0.950 . S
C1150 C1149 1.327 . S
C1150 C1154 1.429 1_554 S
C1151 C1134 1.574 . S
C1151 H1145 0.949 . S
C1151 C1155 1.368 . S
C1152 C1133 1.429 . S
C1152 C1146 1.429 . S
C1152 C1153 1.523 . S
C1153 C1134 1.368 . S
C1153 C1147 1.368 . S
C1153 C1152 1.523 . S
C1154 C1138 1.429 . S
C1154 C1150 1.429 1_556 S
C1154 C1155 1.523 . S
C1155 C1139 1.368 . S
C1155 C1151 1.368 . S
C1155 C1154 1.523 . S
H1156 C1131 0.950 . S
H1157 C1133 0.950 . S
H1158 C1134 0.949 . S
H1159 C1136 0.950 . S
H1160 C1138 0.950 . S
C1161 C1162 1.349 . S
C1161 C1163 1.327 . S
C1161 H1186 0.950 . S
C1162 C1161 1.349 . S
C1162 C1178 1.349 . S
C1163 C1161 1.327 . S
C1163 C1182 1.429 . S
C1163 H1187 0.950 . S
C1164 C1181 1.574 . S
C1164 C1183 1.368 . S
C1164 H1188 0.949 . S
H1165 C1169 0.949 1_556 S
C1166 C1167 1.349 . S
C1166 C1168 1.327 . S
C1166 H1189 0.950 . S
C1167 C1166 1.349 . S
C1167 C1179 1.349 1_554 S
C1168 C1166 1.327 . S
C1168 C1184 1.429 . S
C1168 H1190 0.950 . S
C1169 H1165 0.949 1_554 S
C1169 C1177 1.574 . S
C1169 C1185 1.368 . S
H1170 C1178 0.950 . S
H1171 C1176 0.950 . S
H1172 C1177 0.949 . S
H1173 C1179 0.950 . S
H1174 C1180 0.950 1_556 S
H1175 C1181 0.949 . S
C1176 H1171 0.950 . S
C1176 C1178 1.327 . S
C1176 C1182 1.429 . S
C1177 C1169 1.574 . S
C1177 H1172 0.949 . S
C1177 C1183 1.368 . S
C1178 C1162 1.349 . S
C1178 H1170 0.950 . S
C1178 C1176 1.327 . S
C1179 C1167 1.349 1_556 S
C1179 H1173 0.950 . S
C1179 C1180 1.327 1_556 S
C1180 H1174 0.950 1_554 S
C1180 C1179 1.327 1_554 S
C1180 C1184 1.429 . S
C1181 C1164 1.574 . S
C1181 H1175 0.949 . S
C1181 C1185 1.368 . S
C1182 C1163 1.429 . S
C1182 C1176 1.429 . S
C1182 C1183 1.523 . S
C1183 C1164 1.368 . S
C1183 C1177 1.368 . S
C1183 C1182 1.523 . S
C1184 C1168 1.429 . S
C1184 C1180 1.429 . S
C1184 C1185 1.523 . S
C1185 C1169 1.368 . S
C1185 C1181 1.368 . S
C1185 C1184 1.523 . S
H1186 C1161 0.950 . S
H1187 C1163 0.950 . S
H1188 C1164 0.949 . S
H1189 C1166 0.950 . S
H1190 C1168 0.950 . S
C1191 C1192 1.349 . S
C1191 C1193 1.327 . S
C1191 H1216 0.950 . S
C1192 C1191 1.349 . S
C1192 C1208 1.349 . S
C1193 C1191 1.327 . S
C1193 C1212 1.429 . S
C1193 H1217 0.950 . S
C1194 C1211 1.574 . S
C1194 C1213 1.368 . S
C1194 H1218 0.949 . S
H1195 C1199 0.949 . S
C1196 C1197 1.349 1_556 S
C1196 C1198 1.327 1_556 S
C1196 H1219 0.950 . S
C1197 C1196 1.349 1_554 S
C1197 C1209 1.349 . S
C1198 C1196 1.327 1_554 S
C1198 C1214 1.429 . S
C1198 H1220 0.950 1_554 S
C1199 H1195 0.949 . S
C1199 C1207 1.574 . S
C1199 C1215 1.368 . S
H1200 C1208 0.950 . S
H1201 C1206 0.950 . S
H1202 C1207 0.949 . S
H1203 C1209 0.950 . S
H1204 C1210 0.950 . S
H1205 C1211 0.949 1_556 S
C1206 H1201 0.950 . S
C1206 C1208 1.327 . S
C1206 C1212 1.429 . S
C1207 C1199 1.574 . S
C1207 H1202 0.949 . S
C1207 C1213 1.368 . S
C1208 C1192 1.349 . S
C1208 H1200 0.950 . S
C1208 C1206 1.327 . S
C1209 C1197 1.349 . S
C1209 H1203 0.950 . S
C1209 C1210 1.327 . S
C1210 H1204 0.950 . S
C1210 C1209 1.327 . S
C1210 C1214 1.429 . S
C1211 C1194 1.574 . S
C1211 H1205 0.949 1_554 S
C1211 C1215 1.368 . S
C1212 C1193 1.429 . S
C1212 C1206 1.429 . S
C1212 C1213 1.523 . S
C1213 C1194 1.368 . S
C1213 C1207 1.368 . S
C1213 C1212 1.523 . S
C1214 C1198 1.429 . S
C1214 C1210 1.429 . S
C1214 C1215 1.523 . S
C1215 C1199 1.368 . S
C1215 C1211 1.368 . S
C1215 C1214 1.523 . S
H1216 C1191 0.950 . S
H1217 C1193 0.950 . S
H1218 C1194 0.949 . S
H1219 C1196 0.950 . S
H1220 C1198 0.950 1_556 S
C1221 C1222 1.349 . S
C1221 C1223 1.327 . S
C1221 H1246 0.950 . S
C1222 C1221 1.349 . S
C1222 C1238 1.349 . S
C1223 C1221 1.327 . S
C1223 C1242 1.429 . S
C1223 H1247 0.950 . S
C1224 C1241 1.574 . S
C1224 C1243 1.368 . S
C1224 H1248 0.949 . S
H1225 C1229 0.949 . S
C1226 C1227 1.333 1_556 S
C1226 C1228 1.323 1_556 S
C1226 H1249 0.970 . S
C1227 C1226 1.333 1_554 S
C1227 C1239 1.349 . S
C1228 C1226 1.323 1_554 S
C1228 C1244 1.429 . S
C1228 H1250 0.950 1_554 S
C1229 H1225 0.949 . S
C1229 C1237 1.574 . S
C1229 C1245 1.368 . S
H1230 C1238 0.950 . S
H1231 C1236 0.950 . S
H1232 C1237 0.949 . S
H1233 C1239 0.950 . S
H1234 C1240 0.950 . S
H1235 C1241 0.949 1_556 S
C1236 H1231 0.950 . S
C1236 C1238 1.327 . S
C1236 C1242 1.429 . S
C1237 C1229 1.574 . S
C1237 H1232 0.949 . S
C1237 C1243 1.368 . S
C1238 C1222 1.349 . S
C1238 H1230 0.950 . S
C1238 C1236 1.327 . S
C1239 C1227 1.349 . S
C1239 H1233 0.950 . S
C1239 C1240 1.327 . S
C1240 H1234 0.950 . S
C1240 C1239 1.327 . S
C1240 C1244 1.429 . S
C1241 C1224 1.574 . S
C1241 H1235 0.949 1_554 S
C1241 C1245 1.368 . S
C1242 C1223 1.429 . S
C1242 C1236 1.429 . S
C1242 C1243 1.523 . S
C1243 C1224 1.368 . S
C1243 C1237 1.368 . S
C1243 C1242 1.523 . S
C1244 C1228 1.429 . S
C1244 C1240 1.429 . S
C1244 C1245 1.523 . S
C1245 C1229 1.368 . S
C1245 C1241 1.368 . S
C1245 C1244 1.523 . S
H1246 C1221 0.950 . S
H1247 C1223 0.950 . S
H1248 C1224 0.949 . S
H1249 C1226 0.970 . S
H1250 C1228 0.950 1_556 S
C1251 C1252 1.349 . S
C1251 C1253 1.327 . S
C1251 H1276 0.950 . S
C1252 C1251 1.349 . S
C1252 C1268 1.349 . S
C1253 C1251 1.327 . S
C1253 C1272 1.429 . S
C1253 H1277 1.004 . S
C1254 C1271 1.574 . S
C1254 C1273 1.368 . S
C1254 H1278 0.949 . S
H1255 C1259 0.949 . S
C1256 C1257 1.349 . S
C1256 C1258 1.327 . S
C1256 H1279 0.950 . S
C1257 C1256 1.349 . S
C1257 C1269 1.349 . S
C1258 C1256 1.327 . S
C1258 C1274 1.429 . S
C1258 H1280 0.950 . S
C1259 H1255 0.949 . S
C1259 C1267 1.574 . S
C1259 C1275 1.368 . S
H1260 C1268 0.950 . S
H1261 C1266 0.950 . S
H1262 C1267 0.949 . S
H1263 C1269 0.950 . S
H1264 C1270 0.950 . S
H1265 C1271 0.949 . S
C1266 H1261 0.950 . S
C1266 C1268 1.327 . S
C1266 C1272 1.429 . S
C1267 C1259 1.574 . S
C1267 H1262 0.949 . S
C1267 C1273 1.368 . S
C1268 C1252 1.349 . S
C1268 H1260 0.950 . S
C1268 C1266 1.327 . S
C1269 C1257 1.349 . S
C1269 H1263 0.950 . S
C1269 C1270 1.327 . S
C1270 H1264 0.950 . S
C1270 C1269 1.327 . S
C1270 C1274 1.429 . S
C1271 C1254 1.574 . S
C1271 H1265 0.949 . S
C1271 C1275 1.368 . S
C1272 C1253 1.429 . S
C1272 C1266 1.429 . S
C1272 C1273 1.523 1_655 S
C1273 C1254 1.368 . S
C1273 C1267 1.368 . S
C1273 C1272 1.523 1_455 S
C1274 C1258 1.429 . S
C1274 C1270 1.429 . S
C1274 C1275 1.523 . S
C1275 C1259 1.368 . S
C1275 C1271 1.368 . S
C1275 C1274 1.523 . S
H1276 C1251 0.950 . S
H1277 C1253 1.004 . S
H1278 C1254 0.949 . S
H1279 C1256 0.950 . S
H1280 C1258 0.950 . S
C1281 C1282 1.349 . S
C1281 C1283 1.327 . S
C1281 H1306 0.950 . S
C1282 C1281 1.349 . S
C1282 C1298 1.349 . S
C1283 C1281 1.327 . S
C1283 C1302 1.429 . S
C1283 H1307 0.950 . S
C1284 C1301 1.574 . S
C1284 C1303 1.368 . S
C1284 H1308 0.949 . S
H1285 C1289 0.949 . S
C1286 C1287 1.349 . S
C1286 C1288 1.327 . S
C1286 H1309 0.950 . S
C1287 C1286 1.349 . S
C1287 C1299 1.349 . S
C1288 C1286 1.327 . S
C1288 C1304 1.429 . S
C1288 H1310 0.950 . S
C1289 H1285 0.949 . S
C1289 C1297 1.574 . S
C1289 C1305 1.368 . S
H1290 C1298 0.950 . S
H1291 C1296 0.950 . S
H1292 C1297 0.949 . S
H1293 C1299 0.950 . S
H1294 C1300 0.950 . S
H1295 C1301 0.949 . S
C1296 H1291 0.950 . S
C1296 C1298 1.327 . S
C1296 C1302 1.429 . S
C1297 C1289 1.574 . S
C1297 H1292 0.949 . S
C1297 C1303 1.368 . S
C1298 C1282 1.349 . S
C1298 H1290 0.950 . S
C1298 C1296 1.327 . S
C1299 C1287 1.349 . S
C1299 H1293 0.950 . S
C1299 C1300 1.327 . S
C1300 H1294 0.950 . S
C1300 C1299 1.327 . S
C1300 C1304 1.429 . S
C1301 C1284 1.574 . S
C1301 H1295 0.949 . S
C1301 C1305 1.368 . S
C1302 C1283 1.429 . S
C1302 C1296 1.429 . S
C1302 C1303 1.523 . S
C1303 C1284 1.368 . S
C1303 C1297 1.368 . S
C1303 C1302 1.523 . S
C1304 C1288 1.429 . S
C1304 C1300 1.429 . S
C1304 C1305 1.523 . S
C1305 C1289 1.368 . S
C1305 C1301 1.368 . S
C1305 C1304 1.523 . S
H1306 C1281 0.950 . S
H1307 C1283 0.950 . S
H1308 C1284 0.949 . S
H1309 C1286 0.950 . S
H1310 C1288 0.950 . S
C1311 C1312 1.349 . S
C1311 C1313 1.327 . S
C1311 H1336 0.950 . S
C1312 C1311 1.349 . S
C1312 C1328 1.349 . S
C1313 C1311 1.327 . S
C1313 C1332 1.429 . S
C1313 H1337 0.950 . S
C1314 C1331 1.574 . S
C1314 C1333 1.368 . S
C1314 H1338 0.949 . S
H1315 C1319 0.949 . S
C1316 C1317 1.349 . S
C1316 C1318 1.327 . S
C1316 H1339 0.950 . S
C1317 C1316 1.349 . S
C1317 C1329 1.349 . S
C1318 C1316 1.327 . S
C1318 C1334 1.429 . S
C1318 H1340 0.950 . S
C1319 H1315 0.949 . S
C1319 C1327 1.574 . S
C1319 C1335 1.368 . S
H1320 C1328 0.950 . S
H1321 C1326 0.950 . S
H1322 C1327 0.949 . S
H1323 C1329 0.950 . S
H1324 C1330 0.950 . S
H1325 C1331 0.949 . S
C1326 H1321 0.950 . S
C1326 C1328 1.327 . S
C1326 C1332 1.429 . S
C1327 C1319 1.574 . S
C1327 H1322 0.949 . S
C1327 C1333 1.368 . S
C1328 C1312 1.349 . S
C1328 H1320 0.950 . S
C1328 C1326 1.327 . S
C1329 C1317 1.349 . S
C1329 H1323 0.950 . S
C1329 C1330 1.327 . S
C1330 H1324 0.950 . S
C1330 C1329 1.327 . S
C1330 C1334 1.429 . S
C1331 C1314 1.574 . S
C1331 H1325 0.949 . S
C1331 C1335 1.368 . S
C1332 C1313 1.429 . S
C1332 C1326 1.429 . S
C1332 C1333 1.523 1_545 S
C1333 C1314 1.368 . S
C1333 C1327 1.368 . S
C1333 C1332 1.523 1_565 S
C1334 C1318 1.429 . S
C1334 C1330 1.429 . S
C1334 C1335 1.523 . S
C1335 C1319 1.368 . S
C1335 C1331 1.368 . S
C1335 C1334 1.523 . S
H1336 C1311 0.950 . S
H1337 C1313 0.950 . S
H1338 C1314 0.949 . S
H1339 C1316 0.950 . S
H1340 C1318 0.950 . S
C1341 C1342 1.349 . S
C1341 C1343 1.327 . S
C1341 H1366 0.950 . S
C1342 C1341 1.349 . S
C1342 C1358 1.349 . S
C1343 C1341 1.327 . S
C1343 C1362 1.429 . S
C1343 H1367 0.950 . S
C1344 C1361 1.574 . S
C1344 C1363 1.368 . S
C1344 H1368 0.949 . S
H1345 C1349 0.949 . S
C1346 C1347 1.349 . S
C1346 C1348 1.327 . S
C1346 H1369 0.950 . S
C1347 C1346 1.349 . S
C1347 C1359 1.349 . S
C1348 C1346 1.327 . S
C1348 C1364 1.429 . S
C1348 H1370 0.950 . S
C1349 H1345 0.949 . S
C1349 C1357 1.574 . S
C1349 C1365 1.368 . S
H1350 C1358 0.950 . S
H1351 C1356 0.950 . S
H1352 C1357 0.949 . S
H1353 C1359 0.950 . S
H1354 C1360 0.950 . S
H1355 C1361 0.949 . S
C1356 H1351 0.950 . S
C1356 C1358 1.327 . S
C1356 C1362 1.429 . S
C1357 C1349 1.574 . S
C1357 H1352 0.949 . S
C1357 C1363 1.368 . S
C1358 C1342 1.349 . S
C1358 H1350 0.950 . S
C1358 C1356 1.327 . S
C1359 C1347 1.349 . S
C1359 H1353 0.950 . S
C1359 C1360 1.327 . S
C1360 H1354 0.950 . S
C1360 C1359 1.327 . S
C1360 C1364 1.429 . S
C1361 C1344 1.574 . S
C1361 H1355 0.949 . S
C1361 C1365 1.368 . S
C1362 C1343 1.429 . S
C1362 C1356 1.429 . S
C1362 C1363 1.523 . S
C1363 C1344 1.368 . S
C1363 C1357 1.368 . S
C1363 C1362 1.523 . S
C1364 C1348 1.429 . S
C1364 C1360 1.429 . S
C1364 C1365 1.523 . S
C1365 C1349 1.368 . S
C1365 C1361 1.368 . S
C1365 C1364 1.523 . S
H1366 C1341 0.950 . S
H1367 C1343 0.950 . S
H1368 C1344 0.949 . S
H1369 C1346 0.950 . S
H1370 C1348 0.950 . S
C1371 C1372 1.349 . S
C1371 C1373 1.327 . S
C1371 H1396 0.950 . S
C1372 C1371 1.349 . S
C1372 C1388 1.349 . S
C1373 C1371 1.327 . S
C1373 C1392 1.429 . S
C1373 H1397 0.950 . S
C1374 C1391 1.574 . S
C1374 C1393 1.368 . S
C1374 H1398 0.949 . S
H1375 C1379 0.949 . S
C1376 C1377 1.349 . S
C1376 C1378 1.327 . S
C1376 H1399 0.950 . S
C1377 C1376 1.349 . S
C1377 C1389 1.349 . S
C1378 C1376 1.327 . S
C1378 C1394 1.429 . S
C1378 H1400 0.950 . S
C1379 H1375 0.949 . S
C1379 C1387 1.574 . S
C1379 C1395 1.368 . S
H1380 C1388 0.950 . S
H1381 C1386 0.950 . S
H1382 C1387 0.949 . S
H1383 C1389 0.950 . S
H1384 C1390 0.950 . S
H1385 C1391 0.949 . S
C1386 H1381 0.950 . S
C1386 C1388 1.327 . S
C1386 C1392 1.429 . S
C1387 C1379 1.574 . S
C1387 H1382 0.949 . S
C1387 C1393 1.368 . S
C1388 C1372 1.349 . S
C1388 H1380 0.950 . S
C1388 C1386 1.327 . S
C1389 C1377 1.349 . S
C1389 H1383 0.950 . S
C1389 C1390 1.327 . S
C1390 H1384 0.950 . S
C1390 C1389 1.327 . S
C1390 C1394 1.429 . S
C1391 C1374 1.574 . S
C1391 H1385 0.949 . S
C1391 C1395 1.368 . S
C1392 C1373 1.429 . S
C1392 C1386 1.429 . S
C1392 C1393 1.523 . S
C1393 C1374 1.368 . S
C1393 C1387 1.368 . S
C1393 C1392 1.523 . S
C1394 C1378 1.429 . S
C1394 C1390 1.429 . S
C1394 C1395 1.523 . S
C1395 C1379 1.368 . S
C1395 C1391 1.368 . S
C1395 C1394 1.523 . S
H1396 C1371 0.950 . S
H1397 C1373 0.950 . S
H1398 C1374 0.949 . S
H1399 C1376 0.950 . S
H1400 C1378 0.950 . S
C1401 C1402 1.349 . S
C1401 C1403 1.327 . S
C1401 H1426 0.950 . S
C1402 C1401 1.349 . S
C1402 C1418 1.349 . S
C1403 C1401 1.327 . S
C1403 C1422 1.429 . S
C1403 H1427 0.950 . S
C1404 C1421 1.574 . S
C1404 C1423 1.368 . S
C1404 H1428 0.949 . S
H1405 C1409 0.949 . S
C1406 C1407 1.349 . S
C1406 C1408 1.327 . S
C1406 H1429 0.950 . S
C1407 C1406 1.349 . S
C1407 C1419 1.349 . S
C1408 C1406 1.327 . S
C1408 C1424 1.429 . S
C1408 H1430 0.950 . S
C1409 H1405 0.949 . S
C1409 C1417 1.574 . S
C1409 C1425 1.368 . S
H1410 C1418 0.950 . S
H1411 C1416 0.950 . S
H1412 C1417 0.949 . S
H1413 C1419 0.950 . S
H1414 C1420 0.950 . S
H1415 C1421 0.949 . S
C1416 H1411 0.950 . S
C1416 C1418 1.327 . S
C1416 C1422 1.429 . S
C1417 C1409 1.574 . S
C1417 H1412 0.949 . S
C1417 C1423 1.368 . S
C1418 C1402 1.349 . S
C1418 H1410 0.950 . S
C1418 C1416 1.327 . S
C1419 C1407 1.349 . S
C1419 H1413 0.950 . S
C1419 C1420 1.327 . S
C1420 H1414 0.950 . S
C1420 C1419 1.327 . S
C1420 C1424 1.429 . S
C1421 C1404 1.574 . S
C1421 H1415 0.949 . S
C1421 C1425 1.368 . S
C1422 C1403 1.429 . S
C1422 C1416 1.429 . S
C1422 C1423 1.523 . S
C1423 C1404 1.368 . S
C1423 C1417 1.368 . S
C1423 C1422 1.523 . S
C1424 C1408 1.429 . S
C1424 C1420 1.429 . S
C1424 C1425 1.523 . S
C1425 C1409 1.368 . S
C1425 C1421 1.368 . S
C1425 C1424 1.523 . S
H1426 C1401 0.950 . S
H1427 C1403 0.950 . S
H1428 C1404 0.949 . S
H1429 C1406 0.950 . S
H1430 C1408 0.950 . S
C1431 C1432 1.349 . S
C1431 C1433 1.327 . S
C1431 H1456 0.950 . S
C1432 C1431 1.349 . S
C1432 C1448 1.349 . S
C1433 C1431 1.327 . S
C1433 C1452 1.429 . S
C1433 H1457 0.950 . S
C1434 C1451 1.574 . S
C1434 C1453 1.368 . S
C1434 H1458 0.949 . S
H1435 C1439 0.949 . S
C1436 C1437 1.349 . S
C1436 C1438 1.327 . S
C1436 H1459 0.950 . S
C1437 C1436 1.349 . S
C1437 C1449 1.349 . S
C1438 C1436 1.327 . S
C1438 C1454 1.429 . S
C1438 H1460 0.950 . S
C1439 H1435 0.949 . S
C1439 C1447 1.574 . S
C1439 C1455 1.368 . S
H1440 C1448 0.950 . S
H1441 C1446 0.950 . S
H1442 C1447 0.949 . S
H1443 C1449 0.950 . S
H1444 C1450 0.950 . S
H1445 C1451 0.949 . S
C1446 H1441 0.950 . S
C1446 C1448 1.327 . S
C1446 C1452 1.429 . S
C1447 C1439 1.574 . S
C1447 H1442 0.949 . S
C1447 C1453 1.368 . S
C1448 C1432 1.349 . S
C1448 H1440 0.950 . S
C1448 C1446 1.327 . S
C1449 C1437 1.349 . S
C1449 H1443 0.950 . S
C1449 C1450 1.327 . S
C1450 H1444 0.950 . S
C1450 C1449 1.327 . S
C1450 C1454 1.429 . S
C1451 C1434 1.574 . S
C1451 H1445 0.949 . S
C1451 C1455 1.368 . S
C1452 C1433 1.429 . S
C1452 C1446 1.429 . S
C1452 C1453 1.523 . S
C1453 C1434 1.368 . S
C1453 C1447 1.368 . S
C1453 C1452 1.523 . S
C1454 C1438 1.429 . S
C1454 C1450 1.429 . S
C1454 C1455 1.523 . S
C1455 C1439 1.368 . S
C1455 C1451 1.368 . S
C1455 C1454 1.523 . S
H1456 C1431 0.950 . S
H1457 C1433 0.950 . S
H1458 C1434 0.949 . S
H1459 C1436 0.950 . S
H1460 C1438 0.950 . S
C1461 C1462 1.349 . S
C1461 C1463 1.327 . S
C1461 H1486 0.950 . S
C1462 C1461 1.349 . S
C1462 C1478 1.349 . S
C1463 C1461 1.327 . S
C1463 C1482 1.429 . S
C1463 H1487 0.950 . S
C1464 C1481 1.574 . S
C1464 C1483 1.368 . S
C1464 H1488 0.949 . S
H1465 C1469 0.949 . S
C1466 C1467 1.349 . S
C1466 C1468 1.327 . S
C1466 H1489 0.950 . S
C1467 C1466 1.349 . S
C1467 C1479 1.349 . S
C1468 C1466 1.327 . S
C1468 C1484 1.429 . S
C1468 H1490 0.950 . S
C1469 H1465 0.949 . S
C1469 C1477 1.574 . S
C1469 C1485 1.368 . S
H1470 C1478 0.950 . S
H1471 C1476 0.950 . S
H1472 C1477 0.949 . S
H1473 C1479 0.950 . S
H1474 C1480 0.950 . S
H1475 C1481 0.949 . S
C1476 H1471 0.950 . S
C1476 C1478 1.327 . S
C1476 C1482 1.429 . S
C1477 C1469 1.574 . S
C1477 H1472 0.949 . S
C1477 C1483 1.368 . S
C1478 C1462 1.349 . S
C1478 H1470 0.950 . S
C1478 C1476 1.327 . S
C1479 C1467 1.349 . S
C1479 H1473 0.950 . S
C1479 C1480 1.327 . S
C1480 H1474 0.950 . S
C1480 C1479 1.327 . S
C1480 C1484 1.429 . S
C1481 C1464 1.574 . S
C1481 H1475 0.949 . S
C1481 C1485 1.368 . S
C1482 C1463 1.429 . S
C1482 C1476 1.429 . S
C1482 C1483 1.523 . S
C1483 C1464 1.368 . S
C1483 C1477 1.368 . S
C1483 C1482 1.523 . S
C1484 C1468 1.429 . S
C1484 C1480 1.429 . S
C1484 C1485 1.523 . S
C1485 C1469 1.368 . S
C1485 C1481 1.368 . S
C1485 C1484 1.523 . S
H1486 C1461 0.950 . S
H1487 C1463 0.950 . S
H1488 C1464 0.949 . S
H1489 C1466 0.950 . S
H1490 C1468 0.950 . S
C1491 C1492 1.349 . S
C1491 C1493 1.327 . S
C1491 H1516 0.950 . S
C1492 C1491 1.349 . S
C1492 C1508 1.349 . S
C1493 C1491 1.327 . S
C1493 C1512 1.429 . S
C1493 H1517 0.950 . S
C1494 C1511 1.574 . S
C1494 C1513 1.368 . S
C1494 H1518 0.949 . S
H1495 C1499 0.949 . S
C1496 C1497 1.349 . S
C1496 C1498 1.327 . S
C1496 H1519 0.950 . S
C1497 C1496 1.349 . S
C1497 C1509 1.349 . S
C1498 C1496 1.327 . S
C1498 C1514 1.429 . S
C1498 H1520 0.950 . S
C1499 H1495 0.949 . S
C1499 C1507 1.574 . S
C1499 C1515 1.368 . S
H1500 C1508 0.950 . S
H1501 C1506 0.950 . S
H1502 C1507 0.949 . S
H1503 C1509 0.950 . S
H1504 C1510 0.950 . S
H1505 C1511 0.949 . S
C1506 H1501 0.950 . S
C1506 C1508 1.327 . S
C1506 C1512 1.429 . S
C1507 C1499 1.574 . S
C1507 H1502 0.949 . S
C1507 C1513 1.368 . S
C1508 C1492 1.349 . S
C1508 H1500 0.950 . S
C1508 C1506 1.327 . S
C1509 C1497 1.349 . S
C1509 H1503 0.950 . S
C1509 C1510 1.327 . S
C1510 H1504 0.950 . S
C1510 C1509 1.327 . S
C1510 C1514 1.429 . S
C1511 C1494 1.574 . S
C1511 H1505 0.949 . S
C1511 C1515 1.368 . S
C1512 C1493 1.429 . S
C1512 C1506 1.429 . S
C1512 C1513 1.523 . S
C1513 C1494 1.368 . S
C1513 C1507 1.368 . S
C1513 C1512 1.523 . S
C1514 C1498 1.429 . S
C1514 C1510 1.429 . S
C1514 C1515 1.523 . S
C1515 C1499 1.368 . S
C1515 C1511 1.368 . S
C1515 C1514 1.523 . S
H1516 C1491 0.950 . S
H1517 C1493 0.950 . S
H1518 C1494 0.949 . S
H1519 C1496 0.950 . S
H1520 C1498 0.950 . S
C1521 C1522 1.349 . S
C1521 C1523 1.327 . S
C1521 H1546 0.950 . S
C1522 C1521 1.349 . S
C1522 C1538 1.349 . S
C1523 C1521 1.327 . S
C1523 C1542 1.429 . S
C1523 H1547 0.950 . S
C1524 C1541 1.574 . S
C1524 C1543 1.368 . S
C1524 H1548 0.949 . S
H1525 C1529 0.949 . S
C1526 C1527 1.349 . S
C1526 C1528 1.327 . S
C1526 H1549 0.950 . S
C1527 C1526 1.349 . S
C1527 C1539 1.349 . S
C1528 C1526 1.327 . S
C1528 C1544 1.429 . S
C1528 H1550 0.950 . S
C1529 H1525 0.949 . S
C1529 C1537 1.574 . S
C1529 C1545 1.368 . S
H1530 C1538 0.950 . S
H1531 C1536 0.950 . S
H1532 C1537 0.949 . S
H1533 C1539 0.950 . S
H1534 C1540 0.950 . S
H1535 C1541 0.949 . S
C1536 H1531 0.950 . S
C1536 C1538 1.327 . S
C1536 C1542 1.429 . S
C1537 C1529 1.574 . S
C1537 H1532 0.949 . S
C1537 C1543 1.368 . S
C1538 C1522 1.349 . S
C1538 H1530 0.950 . S
C1538 C1536 1.327 . S
C1539 C1527 1.349 . S
C1539 H1533 0.950 . S
C1539 C1540 1.327 . S
C1540 H1534 0.950 . S
C1540 C1539 1.327 . S
C1540 C1544 1.429 . S
C1541 C1524 1.574 . S
C1541 H1535 0.949 . S
C1541 C1545 1.368 . S
C1542 C1523 1.429 . S
C1542 C1536 1.429 . S
C1542 C1543 1.523 1_545 S
C1543 C1524 1.368 . S
C1543 C1537 1.368 . S
C1543 C1542 1.523 1_565 S
C1544 C1528 1.429 . S
C1544 C1540 1.429 . S
C1544 C1545 1.523 . S
C1545 C1529 1.368 . S
C1545 C1541 1.368 . S
C1545 C1544 1.523 . S
H1546 C1521 0.950 . S
H1547 C1523 0.950 . S
H1548 C1524 0.949 . S
H1549 C1526 0.950 . S
H1550 C1528 0.950 . S
C1551 C1552 1.349 . S
C1551 C1553 1.327 . S
C1551 H1576 0.950 . S
C1552 C1551 1.349 . S
C1552 C1568 1.349 . S
C1553 C1551 1.327 . S
C1553 C1572 1.429 . S
C1553 H1577 0.950 . S
C1554 C1571 1.574 . S
C1554 C1573 1.368 . S
C1554 H1578 0.949 . S
H1555 C1559 0.949 . S
C1556 C1557 1.349 . S
C1556 C1558 1.327 . S
C1556 H1579 0.950 . S
C1557 C1556 1.349 . S
C1557 C1569 1.349 . S
C1558 C1556 1.327 . S
C1558 C1574 1.429 . S
C1558 H1580 0.950 . S
C1559 H1555 0.949 . S
C1559 C1567 1.574 . S
C1559 C1575 1.368 . S
H1560 C1568 0.950 . S
H1561 C1566 0.950 . S
H1562 C1567 0.949 . S
H1563 C1569 0.950 . S
H1564 C1570 0.950 . S
H1565 C1571 0.949 . S
C1566 H1561 0.950 . S
C1566 C1568 1.327 . S
C1566 C1572 1.429 . S
C1567 C1559 1.574 . S
C1567 H1562 0.949 . S
C1567 C1573 1.368 . S
C1568 C1552 1.349 . S
C1568 H1560 0.950 . S
C1568 C1566 1.327 . S
C1569 C1557 1.349 . S
C1569 H1563 0.950 . S
C1569 C1570 1.327 . S
C1570 H1564 0.950 . S
C1570 C1569 1.327 . S
C1570 C1574 1.429 . S
C1571 C1554 1.574 . S
C1571 H1565 0.949 . S
C1571 C1575 1.368 . S
C1572 C1553 1.429 . S
C1572 C1566 1.429 . S
C1572 C1573 1.523 1_655 S
C1573 C1554 1.368 . S
C1573 C1567 1.368 . S
C1573 C1572 1.523 1_455 S
C1574 C1558 1.429 . S
C1574 C1570 1.429 . S
C1574 C1575 1.523 . S
C1575 C1559 1.368 . S
C1575 C1571 1.368 . S
C1575 C1574 1.523 . S
H1576 C1551 0.950 . S
H1577 C1553 0.950 . S
H1578 C1554 0.949 . S
H1579 C1556 0.950 . S
H1580 C1558 0.950 . S
C1581 C1582 1.349 . S
C1581 C1583 1.327 . S
C1581 H1606 0.950 . S
C1582 C1581 1.349 . S
C1582 C1598 1.349 . S
C1583 C1581 1.327 . S
C1583 C1602 1.429 . S
C1583 H1607 0.950 . S
C1584 C1601 1.574 . S
C1584 C1603 1.368 . S
C1584 H1608 0.949 . S
H1585 C1589 0.949 . S
C1586 C1587 1.349 . S
C1586 C1588 1.327 . S
C1586 H1609 0.950 . S
C1587 C1586 1.349 . S
C1587 C1599 1.349 . S
C1588 C1586 1.327 . S
C1588 C1604 1.429 . S
C1588 H1610 0.950 . S
C1589 H1585 0.949 . S
C1589 C1597 1.574 . S
C1589 C1605 1.368 . S
H1590 C1598 0.950 . S
H1591 C1596 0.950 . S
H1592 C1597 0.949 . S
H1593 C1599 0.950 . S
H1594 C1600 0.950 . S
H1595 C1601 0.949 . S
C1596 H1591 0.950 . S
C1596 C1598 1.327 . S
C1596 C1602 1.429 . S
C1597 C1589 1.574 . S
C1597 H1592 0.949 . S
C1597 C1603 1.368 . S
C1598 C1582 1.349 . S
C1598 H1590 0.950 . S
C1598 C1596 1.327 . S
C1599 C1587 1.349 . S
C1599 H1593 0.950 . S
C1599 C1600 1.327 . S
C1600 H1594 0.950 . S
C1600 C1599 1.327 . S
C1600 C1604 1.429 . S
C1601 C1584 1.574 . S
C1601 H1595 0.949 . S
C1601 C1605 1.368 . S
C1602 C1583 1.429 . S
C1602 C1596 1.429 . S
C1602 C1603 1.523 . S
C1603 C1584 1.368 . S
C1603 C1597 1.368 . S
C1603 C1602 1.523 . S
C1604 C1588 1.429 . S
C1604 C1600 1.429 . S
C1604 C1605 1.523 . S
C1605 C1589 1.368 . S
C1605 C1601 1.368 . S
C1605 C1604 1.523 . S
H1606 C1581 0.950 . S
H1607 C1583 0.950 . S
H1608 C1584 0.949 . S
H1609 C1586 0.950 . S
H1610 C1588 0.950 . S
C1611 C1612 1.349 . S
C1611 C1613 1.327 . S
C1611 H1636 0.950 . S
C1612 C1611 1.349 . S
C1612 C1628 1.349 . S
C1613 C1611 1.327 . S
C1613 C1632 1.429 . S
C1613 H1637 0.950 . S
C1614 C1631 1.574 . S
C1614 C1633 1.368 . S
C1614 H1638 0.949 . S
H1615 C1619 0.949 . S
C1616 C1617 1.349 . S
C1616 C1618 1.327 . S
C1616 H1639 0.950 . S
C1617 C1616 1.349 . S
C1617 C1629 1.349 . S
C1618 C1616 1.327 . S
C1618 C1634 1.429 . S
C1618 H1640 0.950 . S
C1619 H1615 0.949 . S
C1619 C1627 1.574 . S
C1619 C1635 1.368 . S
H1620 C1628 0.950 . S
H1621 C1626 0.950 . S
H1622 C1627 0.949 . S
H1623 C1629 0.950 . S
H1624 C1630 0.950 . S
H1625 C1631 0.949 . S
C1626 H1621 0.950 . S
C1626 C1628 1.327 . S
C1626 C1632 1.429 . S
C1627 C1619 1.574 . S
C1627 H1622 0.949 . S
C1627 C1633 1.368 . S
C1628 C1612 1.349 . S
C1628 H1620 0.950 . S
C1628 C1626 1.327 . S
C1629 C1617 1.349 . S
C1629 H1623 0.950 . S
C1629 C1630 1.327 . S
C1630 H1624 0.950 . S
C1630 C1629 1.327 . S
C1630 C1634 1.429 . S
C1631 C1614 1.574 . S
C1631 H1625 0.949 . S
C1631 C1635 1.368 . S
C1632 C1613 1.429 . S
C1632 C1626 1.429 . S
C1632 C1633 1.523 . S
C1633 C1614 1.368 . S
C1633 C1627 1.368 . S
C1633 C1632 1.523 . S
C1634 C1618 1.429 . S
C1634 C1630 1.429 . S
C1634 C1635 1.523 . S
C1635 C1619 1.368 . S
C1635 C1631 1.368 . S
C1635 C1634 1.523 . S
H1636 C1611 0.950 . S
H1637 C1613 0.950 . S
H1638 C1614 0.949 . S
H1639 C1616 0.950 . S
H1640 C1618 0.950 . S
C1641 C1642 1.349 . S
C1641 C1643 1.327 . S
C1641 H1666 0.950 . S
C1642 C1641 1.349 . S
C1642 C1658 1.349 . S
C1643 C1641 1.327 . S
C1643 C1662 1.429 . S
C1643 H1667 0.950 . S
C1644 C1661 1.574 . S
C1644 C1663 1.368 . S
C1644 H1668 0.949 . S
H1645 C1649 0.949 . S
C1646 C1647 1.349 . S
C1646 C1648 1.327 . S
C1646 H1669 0.950 . S
C1647 C1646 1.349 . S
C1647 C1659 1.349 . S
C1648 C1646 1.327 . S
C1648 C1664 1.429 . S
C1648 H1670 0.950 . S
C1649 H1645 0.949 . S
C1649 C1657 1.574 . S
C1649 C1665 1.368 . S
H1650 C1658 0.950 . S
H1651 C1656 0.950 . S
H1652 C1657 0.949 . S
H1653 C1659 0.950 . S
H1654 C1660 0.950 . S
H1655 C1661 0.949 . S
C1656 H1651 0.950 . S
C1656 C1658 1.327 . S
C1656 C1662 1.429 . S
C1657 C1649 1.574 . S
C1657 H1652 0.949 . S
C1657 C1663 1.368 . S
C1658 C1642 1.349 . S
C1658 H1650 0.950 . S
C1658 C1656 1.327 . S
C1659 C1647 1.349 . S
C1659 H1653 0.950 . S
C1659 C1660 1.327 . S
C1660 H1654 0.950 . S
C1660 C1659 1.327 . S
C1660 C1664 1.429 . S
C1661 C1644 1.574 . S
C1661 H1655 0.949 . S
C1661 C1665 1.368 . S
C1662 C1643 1.429 . S
C1662 C1656 1.429 . S
C1662 C1663 1.523 . S
C1663 C1644 1.368 . S
C1663 C1657 1.368 . S
C1663 C1662 1.523 . S
C1664 C1648 1.429 . S
C1664 C1660 1.429 . S
C1664 C1665 1.523 . S
C1665 C1649 1.368 . S
C1665 C1661 1.368 . S
C1665 C1664 1.523 . S
H1666 C1641 0.950 . S
H1667 C1643 0.950 . S
H1668 C1644 0.949 . S
H1669 C1646 0.950 . S
H1670 C1648 0.950 . S
C1671 C1672 1.349 . S
C1671 C1673 1.327 . S
C1671 H1696 0.950 . S
C1672 C1671 1.349 . S
C1672 C1688 1.349 . S
C1673 C1671 1.327 . S
C1673 C1692 1.429 . S
C1673 H1697 0.950 . S
C1674 C1691 1.574 . S
C1674 C1693 1.368 . S
C1674 H1698 0.949 . S
H1675 C1679 0.949 . S
C1676 C1677 1.349 . S
C1676 C1678 1.327 . S
C1676 H1699 0.950 . S
C1677 C1676 1.349 . S
C1677 C1689 1.349 . S
C1678 C1676 1.327 . S
C1678 C1694 1.429 . S
C1678 H1700 0.950 . S
C1679 H1675 0.949 . S
C1679 C1687 1.574 . S
C1679 C1695 1.368 . S
H1680 C1688 0.950 . S
H1681 C1686 0.950 . S
H1682 C1687 0.949 . S
H1683 C1689 0.950 . S
H1684 C1690 0.950 . S
H1685 C1691 0.949 . S
C1686 H1681 0.950 . S
C1686 C1688 1.327 . S
C1686 C1692 1.429 . S
C1687 C1679 1.574 . S
C1687 H1682 0.949 . S
C1687 C1693 1.368 . S
C1688 C1672 1.349 . S
C1688 H1680 0.950 . S
C1688 C1686 1.327 . S
C1689 C1677 1.349 . S
C1689 H1683 0.950 . S
C1689 C1690 1.327 . S
C1690 H1684 0.950 . S
C1690 C1689 1.327 . S
C1690 C1694 1.429 . S
C1691 C1674 1.574 . S
C1691 H1685 0.949 . S
C1691 C1695 1.368 . S
C1692 C1673 1.429 . S
C1692 C1686 1.429 . S
C1692 C1693 1.523 . S
C1693 C1674 1.368 . S
C1693 C1687 1.368 . S
C1693 C1692 1.523 . S
C1694 C1678 1.429 . S
C1694 C1690 1.429 . S
C1694 C1695 1.523 . S
C1695 C1679 1.368 . S
C1695 C1691 1.368 . S
C1695 C1694 1.523 . S
H1696 C1671 0.950 . S
H1697 C1673 0.950 . S
H1698 C1674 0.949 . S
H1699 C1676 0.950 . S
H1700 C1678 0.950 . S
C1701 C1702 1.349 . S
C1701 C1703 1.327 . S
C1701 H1726 0.950 . S
C1702 C1701 1.349 . S
C1702 C1718 1.349 . S
C1703 C1701 1.327 . S
C1703 C1722 1.429 . S
C1703 H1727 0.950 . S
C1704 C1721 1.574 . S
C1704 C1723 1.368 . S
C1704 H1728 0.949 . S
H1705 C1709 0.949 . S
C1706 C1707 1.349 . S
C1706 C1708 1.327 . S
C1706 H1729 0.950 . S
C1707 C1706 1.349 . S
C1707 C1719 1.349 . S
C1708 C1706 1.327 . S
C1708 C1724 1.429 . S
C1708 H1730 0.950 . S
C1709 H1705 0.949 . S
C1709 C1717 1.574 . S
C1709 C1725 1.368 . S
H1710 C1718 0.950 . S
H1711 C1716 0.950 . S
H1712 C1717 0.949 . S
H1713 C1719 0.950 . S
H1714 C1720 0.950 . S
H1715 C1721 0.949 . S
C1716 H1711 0.950 . S
C1716 C1718 1.327 . S
C1716 C1722 1.429 . S
C1717 C1709 1.574 . S
C1717 H1712 0.949 . S
C1717 C1723 1.368 . S
C1718 C1702 1.349 . S
C1718 H1710 0.950 . S
C1718 C1716 1.327 . S
C1719 C1707 1.349 . S
C1719 H1713 0.950 . S
C1719 C1720 1.327 . S
C1720 H1714 0.950 . S
C1720 C1719 1.327 . S
C1720 C1724 1.429 . S
C1721 C1704 1.574 . S
C1721 H1715 0.949 . S
C1721 C1725 1.368 . S
C1722 C1703 1.429 . S
C1722 C1716 1.429 . S
C1722 C1723 1.523 1_565 S
C1723 C1704 1.368 . S
C1723 C1717 1.368 . S
C1723 C1722 1.523 1_545 S
C1724 C1708 1.429 . S
C1724 C1720 1.429 . S
C1724 C1725 1.523 . S
C1725 C1709 1.368 . S
C1725 C1721 1.368 . S
C1725 C1724 1.523 . S
H1726 C1701 0.950 . S
H1727 C1703 0.950 . S
H1728 C1704 0.949 . S
H1729 C1706 0.950 . S
H1730 C1708 0.950 . S
C1731 C1732 1.349 . S
C1731 C1733 1.327 . S
C1731 H1756 0.950 . S
C1732 C1731 1.349 . S
C1732 C1748 1.349 . S
C1733 C1731 1.327 . S
C1733 C1752 1.429 . S
C1733 H1757 0.950 . S
C1734 C1751 1.574 . S
C1734 C1753 1.368 . S
C1734 H1758 0.949 . S
H1735 C1739 0.949 . S
C1736 C1737 1.349 . S
C1736 C1738 1.327 . S
C1736 H1759 0.950 . S
C1737 C1736 1.349 . S
C1737 C1749 1.349 . S
C1738 C1736 1.327 . S
C1738 C1754 1.429 . S
C1738 H1760 0.950 . S
C1739 H1735 0.949 . S
C1739 C1747 1.574 . S
C1739 C1755 1.368 . S
H1740 C1748 0.950 . S
H1741 C1746 0.950 . S
H1742 C1747 0.949 . S
H1743 C1749 0.950 . S
H1744 C1750 0.950 . S
H1745 C1751 0.949 . S
C1746 H1741 0.950 . S
C1746 C1748 1.327 . S
C1746 C1752 1.429 . S
C1747 C1739 1.574 . S
C1747 H1742 0.949 . S
C1747 C1753 1.368 . S
C1748 C1732 1.349 . S
C1748 H1740 0.950 . S
C1748 C1746 1.327 . S
C1749 C1737 1.349 . S
C1749 H1743 0.950 . S
C1749 C1750 1.327 . S
C1750 H1744 0.950 . S
C1750 C1749 1.327 . S
C1750 C1754 1.429 . S
C1751 C1734 1.574 . S
C1751 H1745 0.949 . S
C1751 C1755 1.368 . S
C1752 C1733 1.429 . S
C1752 C1746 1.429 . S
C1752 C1753 1.523 1_455 S
C1753 C1734 1.368 . S
C1753 C1747 1.368 . S
C1753 C1752 1.523 1_655 S
C1754 C1738 1.429 . S
C1754 C1750 1.429 . S
C1754 C1755 1.523 . S
C1755 C1739 1.368 . S
C1755 C1751 1.368 . S
C1755 C1754 1.523 . S
H1756 C1731 0.950 . S
H1757 C1733 0.950 . S
H1758 C1734 0.949 . S
H1759 C1736 0.950 . S
H1760 C1738 0.950 . S
C1761 C1762 1.349 . S
C1761 C1763 1.327 . S
C1761 H1786 0.950 . S
C1762 C1761 1.349 . S
C1762 C1778 1.349 . S
C1763 C1761 1.327 . S
C1763 C1782 1.429 . S
C1763 H1787 0.950 . S
C1764 C1781 1.574 . S
C1764 C1783 1.368 . S
C1764 H1788 0.949 . S
H1765 C1769 0.949 . S
C1766 C1767 1.349 . S
C1766 C1768 1.327 . S
C1766 H1789 0.950 . S
C1767 C1766 1.349 . S
C1767 C1779 1.349 . S
C1768 C1766 1.327 . S
C1768 C1784 1.429 . S
C1768 H1790 0.950 . S
C1769 H1765 0.949 . S
C1769 C1777 1.574 . S
C1769 C1785 1.368 . S
H1770 C1778 0.950 . S
H1771 C1776 0.950 . S
H1772 C1777 0.949 . S
H1773 C1779 0.950 . S
H1774 C1780 0.950 . S
H1775 C1781 0.949 . S
C1776 H1771 0.950 . S
C1776 C1778 1.327 . S
C1776 C1782 1.429 . S
C1777 C1769 1.574 . S
C1777 H1772 0.949 . S
C1777 C1783 1.368 . S
C1778 C1762 1.349 . S
C1778 H1770 0.950 . S
C1778 C1776 1.327 . S
C1779 C1767 1.349 . S
C1779 H1773 0.950 . S
C1779 C1780 1.327 . S
C1780 H1774 0.950 . S
C1780 C1779 1.327 . S
C1780 C1784 1.429 . S
C1781 C1764 1.574 . S
C1781 H1775 0.949 . S
C1781 C1785 1.368 . S
C1782 C1763 1.429 . S
C1782 C1776 1.429 . S
C1782 C1783 1.523 . S
C1783 C1764 1.368 . S
C1783 C1777 1.368 . S
C1783 C1782 1.523 . S
C1784 C1768 1.429 . S
C1784 C1780 1.429 . S
C1784 C1785 1.523 . S
C1785 C1769 1.368 . S
C1785 C1781 1.368 . S
C1785 C1784 1.523 . S
H1786 C1761 0.950 . S
H1787 C1763 0.950 . S
H1788 C1764 0.949 . S
H1789 C1766 0.950 . S
H1790 C1768 0.950 . S
C1791 C1792 1.349 . S
C1791 C1793 1.327 . S
C1791 H1816 0.950 . S
C1792 C1791 1.349 . S
C1792 C1808 1.349 . S
C1793 C1791 1.327 . S
C1793 C1812 1.429 . S
C1793 H1817 0.950 . S
C1794 C1811 1.574 . S
C1794 C1813 1.368 . S
C1794 H1818 0.949 . S
H1795 C1799 0.949 . S
C1796 C1797 1.349 . S
C1796 C1798 1.327 . S
C1796 H1819 0.950 . S
C1797 C1796 1.349 . S
C1797 C1809 1.349 . S
C1798 C1796 1.327 . S
C1798 C1814 1.429 . S
C1798 H1820 0.950 . S
C1799 H1795 0.949 . S
C1799 C1807 1.574 . S
C1799 C1815 1.368 . S
H1800 C1808 0.950 . S
H1801 C1806 0.950 . S
H1802 C1807 0.949 . S
H1803 C1809 0.950 . S
H1804 C1810 0.950 . S
H1805 C1811 0.949 . S
C1806 H1801 0.950 . S
C1806 C1808 1.327 . S
C1806 C1812 1.429 . S
C1807 C1799 1.574 . S
C1807 H1802 0.949 . S
C1807 C1813 1.368 . S
C1808 C1792 1.349 . S
C1808 H1800 0.950 . S
C1808 C1806 1.327 . S
C1809 C1797 1.349 . S
C1809 H1803 0.950 . S
C1809 C1810 1.327 . S
C1810 H1804 0.950 . S
C1810 C1809 1.327 . S
C1810 C1814 1.429 . S
C1811 C1794 1.574 . S
C1811 H1805 0.949 . S
C1811 C1815 1.368 . S
C1812 C1793 1.429 . S
C1812 C1806 1.429 . S
C1812 C1813 1.523 1_455 S
C1813 C1794 1.368 . S
C1813 C1807 1.368 . S
C1813 C1812 1.523 1_655 S
C1814 C1798 1.429 . S
C1814 C1810 1.429 . S
C1814 C1815 1.523 . S
C1815 C1799 1.368 . S
C1815 C1811 1.368 . S
C1815 C1814 1.523 . S
H1816 C1791 0.950 . S
H1817 C1793 0.950 . S
H1818 C1794 0.949 . S
H1819 C1796 0.950 . S
H1820 C1798 0.950 . S
C1821 C1822 1.349 . S
C1821 C1823 1.327 . S
C1821 H1846 0.950 . S
C1822 C1821 1.349 . S
C1822 C1838 1.349 . S
C1823 C1821 1.327 . S
C1823 C1842 1.429 . S
C1823 H1847 0.950 . S
C1824 C1841 1.574 . S
C1824 C1843 1.368 . S
C1824 H1848 0.949 . S
H1825 C1829 0.949 . S
C1826 C1827 1.349 . S
C1826 C1828 1.327 . S
C1826 H1849 0.950 . S
C1827 C1826 1.349 . S
C1827 C1839 1.349 . S
C1828 C1826 1.327 . S
C1828 C1844 1.429 . S
C1828 H1850 0.950 . S
C1829 H1825 0.949 . S
C1829 C1837 1.574 . S
C1829 C1845 1.368 . S
H1830 C1838 0.950 . S
H1831 C1836 0.950 . S
H1832 C1837 0.949 . S
H1833 C1839 0.950 . S
H1834 C1840 0.950 . S
H1835 C1841 0.949 . S
C1836 H1831 0.950 . S
C1836 C1838 1.327 . S
C1836 C1842 1.429 . S
C1837 C1829 1.574 . S
C1837 H1832 0.949 . S
C1837 C1843 1.368 . S
C1838 C1822 1.349 . S
C1838 H1830 0.950 . S
C1838 C1836 1.327 . S
C1839 C1827 1.349 . S
C1839 H1833 0.950 . S
C1839 C1840 1.327 . S
C1840 H1834 0.950 . S
C1840 C1839 1.327 . S
C1840 C1844 1.429 . S
C1841 C1824 1.574 . S
C1841 H1835 0.949 . S
C1841 C1845 1.368 . S
C1842 C1823 1.429 . S
C1842 C1836 1.429 . S
C1842 C1843 1.523 . S
C1843 C1824 1.368 . S
C1843 C1837 1.368 . S
C1843 C1842 1.523 . S
C1844 C1828 1.429 . S
C1844 C1840 1.429 . S
C1844 C1845 1.523 . S
C1845 C1829 1.368 . S
C1845 C1841 1.368 . S
C1845 C1844 1.523 . S
H1846 C1821 0.950 . S
H1847 C1823 0.950 . S
H1848 C1824 0.949 . S
H1849 C1826 0.950 . S
H1850 C1828 0.950 . S
C1851 C1852 1.349 . S
C1851 C1853 1.327 . S
C1851 H1876 0.950 . S
C1852 C1851 1.349 . S
C1852 C1868 1.349 . S
C1853 C1851 1.327 . S
C1853 C1872 1.429 . S
C1853 H1877 0.950 . S
C1854 C1871 1.574 . S
C1854 C1873 1.368 . S
C1854 H1878 0.949 . S
H1855 C1859 0.949 . S
C1856 C1857 1.349 . S
C1856 C1858 1.327 . S
C1856 H1879 0.950 . S
C1857 C1856 1.349 . S
C1857 C1869 1.349 . S
C1858 C1856 1.327 . S
C1858 C1874 1.429 . S
C1858 H1880 0.950 . S
C1859 H1855 0.949 . S
C1859 C1867 1.574 . S
C1859 C1875 1.368 . S
H1860 C1868 0.950 . S
H1861 C1866 0.950 . S
H1862 C1867 0.949 . S
H1863 C1869 0.950 . S
H1864 C1870 0.950 . S
H1865 C1871 0.949 . S
C1866 H1861 0.950 . S
C1866 C1868 1.327 . S
C1866 C1872 1.429 . S
C1867 C1859 1.574 . S
C1867 H1862 0.949 . S
C1867 C1873 1.368 . S
C1868 C1852 1.349 . S
C1868 H1860 0.950 . S
C1868 C1866 1.327 . S
C1869 C1857 1.349 . S
C1869 H1863 0.950 . S
C1869 C1870 1.327 . S
C1870 H1864 0.950 . S
C1870 C1869 1.327 . S
C1870 C1874 1.429 . S
C1871 C1854 1.574 . S
C1871 H1865 0.949 . S
C1871 C1875 1.368 . S
C1872 C1853 1.429 . S
C1872 C1866 1.429 . S
C1872 C1873 1.523 1_565 S
C1873 C1854 1.368 . S
C1873 C1867 1.368 . S
C1873 C1872 1.523 1_545 S
C1874 C1858 1.429 . S
C1874 C1870 1.429 . S
C1874 C1875 1.523 . S
C1875 C1859 1.368 . S
C1875 C1871 1.368 . S
C1875 C1874 1.523 . S
H1876 C1851 0.950 . S
H1877 C1853 0.950 . S
H1878 C1854 0.949 . S
H1879 C1856 0.950 . S
H1880 C1858 0.950 . S
C1881 C1882 1.349 . S
C1881 C1883 1.327 . S
C1881 H1906 0.950 . S
C1882 C1881 1.349 . S
C1882 C1898 1.349 . S
C1883 C1881 1.327 . S
C1883 C1902 1.429 . S
C1883 H1907 0.950 . S
C1884 C1901 1.574 . S
C1884 C1903 1.368 . S
C1884 H1908 0.949 . S
H1885 C1889 0.949 . S
C1886 C1887 1.349 . S
C1886 C1888 1.327 . S
C1886 H1909 0.950 . S
C1887 C1886 1.349 . S
C1887 C1899 1.349 . S
C1888 C1886 1.327 . S
C1888 C1904 1.429 . S
C1888 H1910 0.950 . S
C1889 H1885 0.949 . S
C1889 C1897 1.574 . S
C1889 C1905 1.368 . S
H1890 C1898 0.950 . S
H1891 C1896 0.950 . S
H1892 C1897 0.949 . S
H1893 C1899 0.950 . S
H1894 C1900 0.950 . S
H1895 C1901 0.949 . S
C1896 H1891 0.950 . S
C1896 C1898 1.327 . S
C1896 C1902 1.429 . S
C1897 C1889 1.574 . S
C1897 H1892 0.949 . S
C1897 C1903 1.368 . S
C1898 C1882 1.349 . S
C1898 H1890 0.950 . S
C1898 C1896 1.327 . S
C1899 C1887 1.349 . S
C1899 H1893 0.950 . S
C1899 C1900 1.327 . S
C1900 H1894 0.950 . S
C1900 C1899 1.327 . S
C1900 C1904 1.429 . S
C1901 C1884 1.574 . S
C1901 H1895 0.949 . S
C1901 C1905 1.368 . S
C1902 C1883 1.429 . S
C1902 C1896 1.429 . S
C1902 C1903 1.523 . S
C1903 C1884 1.368 . S
C1903 C1897 1.368 . S
C1903 C1902 1.523 . S
C1904 C1888 1.429 . S
C1904 C1900 1.429 . S
C1904 C1905 1.523 . S
C1905 C1889 1.368 . S
C1905 C1901 1.368 . S
C1905 C1904 1.523 . S
H1906 C1881 0.950 . S
H1907 C1883 0.950 . S
H1908 C1884 0.949 . S
H1909 C1886 0.950 . S
H1910 C1888 0.950 . S
C1911 C1912 1.349 . S
C1911 C1913 1.327 . S
C1911 H1936 0.950 . S
C1912 C1911 1.349 . S
C1912 C1928 1.349 . S
C1913 C1911 1.327 . S
C1913 C1932 1.429 . S
C1913 H1937 0.950 . S
C1914 C1931 1.574 . S
C1914 C1933 1.368 . S
C1914 H1938 0.949 . S
H1915 C1919 0.949 . S
C1916 C1917 1.349 . S
C1916 C1918 1.327 . S
C1916 H1939 0.950 . S
C1917 C1916 1.349 . S
C1917 C1929 1.349 . S
C1918 C1916 1.327 . S
C1918 C1934 1.429 . S
C1918 H1940 0.950 . S
C1919 H1915 0.949 . S
C1919 C1927 1.574 . S
C1919 C1935 1.368 . S
H1920 C1928 0.950 . S
H1921 C1926 0.950 . S
H1922 C1927 0.949 . S
H1923 C1929 0.950 . S
H1924 C1930 0.950 . S
H1925 C1931 0.949 . S
C1926 H1921 0.950 . S
C1926 C1928 1.327 . S
C1926 C1932 1.429 . S
C1927 C1919 1.574 . S
C1927 H1922 0.949 . S
C1927 C1933 1.368 . S
C1928 C1912 1.349 . S
C1928 H1920 0.950 . S
C1928 C1926 1.327 . S
C1929 C1917 1.349 . S
C1929 H1923 0.950 . S
C1929 C1930 1.327 . S
C1930 H1924 0.950 . S
C1930 C1929 1.327 . S
C1930 C1934 1.429 . S
C1931 C1914 1.574 . S
C1931 H1925 0.949 . S
C1931 C1935 1.368 . S
C1932 C1913 1.429 . S
C1932 C1926 1.429 . S
C1932 C1933 1.523 . S
C1933 C1914 1.368 . S
C1933 C1927 1.368 . S
C1933 C1932 1.523 . S
C1934 C1918 1.429 . S
C1934 C1930 1.429 . S
C1934 C1935 1.523 . S
C1935 C1919 1.368 . S
C1935 C1931 1.368 . S
C1935 C1934 1.523 . S
H1936 C1911 0.950 . S
H1937 C1913 0.950 . S
H1938 C1914 0.949 . S
H1939 C1916 0.950 . S
H1940 C1918 0.950 . S
C1941 C1942 1.349 . S
C1941 C1943 1.327 . S
C1941 H1966 0.950 . S
C1942 C1941 1.349 . S
C1942 C1958 1.349 . S
C1943 C1941 1.327 . S
C1943 C1962 1.429 . S
C1943 H1967 0.950 . S
C1944 C1961 1.574 . S
C1944 C1963 1.368 . S
C1944 H1968 0.949 . S
H1945 C1949 0.949 . S
C1946 C1947 1.349 . S
C1946 C1948 1.327 . S
C1946 H1969 0.950 . S
C1947 C1946 1.349 . S
C1947 C1959 1.349 . S
C1948 C1946 1.327 . S
C1948 C1964 1.429 . S
C1948 H1970 0.950 . S
C1949 H1945 0.949 . S
C1949 C1957 1.574 . S
C1949 C1965 1.368 . S
H1950 C1958 0.950 . S
H1951 C1956 0.950 . S
H1952 C1957 0.949 . S
H1953 C1959 0.950 . S
H1954 C1960 0.950 . S
H1955 C1961 0.949 . S
C1956 H1951 0.950 . S
C1956 C1958 1.327 . S
C1956 C1962 1.429 . S
C1957 C1949 1.574 . S
C1957 H1952 0.949 . S
C1957 C1963 1.368 . S
C1958 C1942 1.349 . S
C1958 H1950 0.950 . S
C1958 C1956 1.327 . S
C1959 C1947 1.349 . S
C1959 H1953 0.950 . S
C1959 C1960 1.327 . S
C1960 H1954 0.950 . S
C1960 C1959 1.327 . S
C1960 C1964 1.429 . S
C1961 C1944 1.574 . S
C1961 H1955 0.949 . S
C1961 C1965 1.368 . S
C1962 C1943 1.429 . S
C1962 C1956 1.429 . S
C1962 C1963 1.523 . S
C1963 C1944 1.368 . S
C1963 C1957 1.368 . S
C1963 C1962 1.523 . S
C1964 C1948 1.429 . S
C1964 C1960 1.429 . S
C1964 C1965 1.523 . S
C1965 C1949 1.368 . S
C1965 C1961 1.368 . S
C1965 C1964 1.523 . S
H1966 C1941 0.950 . S
H1967 C1943 0.950 . S
H1968 C1944 0.949 . S
H1969 C1946 0.950 . S
H1970 C1948 0.950 . S
C1971 C1972 1.349 . S
C1971 C1973 1.327 . S
C1971 H1996 0.950 . S
C1972 C1971 1.349 . S
C1972 C1988 1.349 . S
C1973 C1971 1.327 . S
C1973 C1992 1.429 . S
C1973 H1997 0.950 . S
C1974 C1991 1.573 . S
C1974 C1993 1.368 . S
C1974 H1998 0.949 1_565 S
H1975 C1979 0.949 . S
C1976 C1977 1.352 . S
C1976 C1978 1.327 . S
C1976 H1999 0.950 . S
C1977 C1976 1.352 . S
C1977 C1989 1.343 1_545 S
C1978 C1976 1.327 . S
C1978 C1994 1.429 1_545 S
C1978 H2000 0.950 . S
C1979 H1975 0.949 . S
C1979 C1987 1.574 . S
C1979 C1995 1.368 . S
H1980 C1988 0.950 . S
H1981 C1986 0.950 . S
H1982 C1987 0.949 . S
H1983 C1989 0.950 . S
H1984 C1990 0.950 . S
H1985 C1991 0.951 1_545 S
C1986 H1981 0.950 . S
C1986 C1988 1.327 . S
C1986 C1992 1.429 . S
C1987 C1979 1.574 . S
C1987 H1982 0.949 . S
C1987 C1993 1.368 . S
C1988 C1972 1.349 . S
C1988 H1980 0.950 . S
C1988 C1986 1.327 . S
C1989 C1977 1.343 1_565 S
C1989 H1983 0.950 . S
C1989 C1990 1.327 . S
C1990 H1984 0.950 . S
C1990 C1989 1.327 . S
C1990 C1994 1.429 . S
C1991 C1974 1.573 . S
C1991 H1985 0.951 1_565 S
C1991 C1995 1.367 . S
C1992 C1973 1.429 . S
C1992 C1986 1.429 . S
C1992 C1993 1.523 . S
C1993 C1974 1.368 . S
C1993 C1987 1.368 . S
C1993 C1992 1.523 . S
C1994 C1978 1.429 1_565 S
C1994 C1990 1.429 . S
C1994 C1995 1.523 . S
C1995 C1979 1.368 . S
C1995 C1991 1.367 . S
C1995 C1994 1.523 . S
H1996 C1971 0.950 . S
H1997 C1973 0.950 . S
H1998 C1974 0.949 1_545 S
H1999 C1976 0.950 . S
H2000 C1978 0.950 . S
C2001 C2002 1.349 . S
C2001 C2003 1.327 . S
C2001 H2026 0.950 . S
C2002 C2001 1.349 . S
C2002 C2018 1.349 . S
C2003 C2001 1.327 . S
C2003 C2022 1.429 . S
C2003 H2027 0.950 . S
C2004 C2021 1.574 . S
C2004 C2023 1.368 . S
C2004 H2028 0.949 . S
H2005 C2009 0.949 1_655 S
C2006 C2007 1.349 . S
C2006 C2008 1.327 . S
C2006 H2029 0.950 . S
C2007 C2006 1.349 . S
C2007 C2019 1.349 1_455 S
C2008 C2006 1.327 . S
C2008 C2024 1.429 . S
C2008 H2030 0.950 . S
C2009 H2005 0.949 1_455 S
C2009 C2017 1.574 . S
C2009 C2025 1.368 . S
H2010 C2018 0.950 . S
H2011 C2016 0.950 . S
H2012 C2017 0.949 1_655 S
H2013 C2019 0.950 . S
H2014 C2020 0.950 . S
H2015 C2021 0.949 . S
C2016 H2011 0.950 . S
C2016 C2018 1.327 . S
C2016 C2022 1.429 . S
C2017 C2009 1.574 . S
C2017 H2012 0.949 1_455 S
C2017 C2023 1.368 . S
C2018 C2002 1.349 . S
C2018 H2010 0.950 . S
C2018 C2016 1.327 . S
C2019 C2007 1.349 1_655 S
C2019 H2013 0.950 . S
C2019 C2020 1.327 . S
C2020 H2014 0.950 . S
C2020 C2019 1.327 . S
C2020 C2024 1.429 1_655 S
C2021 C2004 1.574 . S
C2021 H2015 0.949 . S
C2021 C2025 1.368 . S
C2022 C2003 1.429 . S
C2022 C2016 1.429 . S
C2022 C2023 1.523 . S
C2023 C2004 1.368 . S
C2023 C2017 1.368 . S
C2023 C2022 1.523 . S
C2024 C2008 1.429 . S
C2024 C2020 1.429 1_455 S
C2024 C2025 1.523 . S
C2025 C2009 1.368 . S
C2025 C2021 1.368 . S
C2025 C2024 1.523 . S
H2026 C2001 0.950 . S
H2027 C2003 0.950 . S
H2028 C2004 0.949 . S
H2029 C2006 0.950 . S
H2030 C2008 0.950 . S
C2031 C2032 1.349 . S
C2031 C2033 1.327 . S
C2031 H2056 0.950 . S
C2032 C2031 1.349 . S
C2032 C2048 1.349 . S
C2033 C2031 1.327 . S
C2033 C2052 1.429 . S
C2033 H2057 0.950 . S
C2034 C2051 1.574 . S
C2034 C2053 1.368 . S
C2034 H2058 0.949 . S
H2035 C2039 0.949 . S
C2036 C2037 1.349 . S
C2036 C2038 1.327 . S
C2036 H2059 0.950 . S
C2037 C2036 1.349 . S
C2037 C2049 1.349 . S
C2038 C2036 1.327 . S
C2038 C2054 1.429 . S
C2038 H2060 0.950 . S
C2039 H2035 0.949 . S
C2039 C2047 1.574 . S
C2039 C2055 1.368 . S
H2040 C2048 0.950 . S
H2041 C2046 0.950 . S
H2042 C2047 0.949 . S
H2043 C2049 0.950 . S
H2044 C2050 0.950 . S
H2045 C2051 0.949 . S
C2046 H2041 0.950 . S
C2046 C2048 1.327 . S
C2046 C2052 1.429 . S
C2047 C2039 1.574 . S
C2047 H2042 0.949 . S
C2047 C2053 1.368 . S
C2048 C2032 1.349 . S
C2048 H2040 0.950 . S
C2048 C2046 1.327 . S
C2049 C2037 1.349 . S
C2049 H2043 0.950 . S
C2049 C2050 1.327 . S
C2050 H2044 0.950 . S
C2050 C2049 1.327 . S
C2050 C2054 1.429 . S
C2051 C2034 1.574 . S
C2051 H2045 0.949 . S
C2051 C2055 1.368 . S
C2052 C2033 1.429 . S
C2052 C2046 1.429 . S
C2052 C2053 1.523 . S
C2053 C2034 1.368 . S
C2053 C2047 1.368 . S
C2053 C2052 1.523 . S
C2054 C2038 1.429 . S
C2054 C2050 1.429 . S
C2054 C2055 1.523 . S
C2055 C2039 1.368 . S
C2055 C2051 1.368 . S
C2055 C2054 1.523 . S
H2056 C2031 0.950 . S
H2057 C2033 0.950 . S
H2058 C2034 0.949 . S
H2059 C2036 0.950 . S
H2060 C2038 0.950 . S
C2061 C2062 1.349 . S
C2061 C2063 1.327 . S
C2061 H2086 0.950 . S
C2062 C2061 1.349 . S
C2062 C2078 1.349 . S
C2063 C2061 1.327 . S
C2063 C2082 1.429 . S
C2063 H2087 0.950 . S
C2064 C2081 1.574 . S
C2064 C2083 1.368 . S
C2064 H2088 0.949 . S
H2065 C2069 0.949 . S
C2066 C2067 1.349 . S
C2066 C2068 1.327 . S
C2066 H2089 0.952 . S
C2067 C2066 1.349 . S
C2067 C2079 1.349 . S
C2068 C2066 1.327 . S
C2068 C2084 1.429 . S
C2068 H2090 0.950 . S
C2069 H2065 0.949 . S
C2069 C2077 1.574 . S
C2069 C2085 1.368 . S
H2070 C2078 0.950 . S
H2071 C2076 0.950 . S
H2072 C2077 0.949 . S
H2073 C2079 0.950 . S
H2074 C2080 0.950 . S
H2075 C2081 0.949 . S
C2076 H2071 0.950 . S
C2076 C2078 1.327 . S
C2076 C2082 1.429 . S
C2077 C2069 1.574 . S
C2077 H2072 0.949 . S
C2077 C2083 1.368 . S
C2078 C2062 1.349 . S
C2078 H2070 0.950 . S
C2078 C2076 1.327 . S
C2079 C2067 1.349 . S
C2079 H2073 0.950 . S
C2079 C2080 1.327 . S
C2080 H2074 0.950 . S
C2080 C2079 1.327 . S
C2080 C2084 1.429 . S
C2081 C2064 1.574 . S
C2081 H2075 0.949 . S
C2081 C2085 1.368 . S
C2082 C2063 1.429 . S
C2082 C2076 1.429 . S
C2082 C2083 1.523 . S
C2083 C2064 1.368 . S
C2083 C2077 1.368 . S
C2083 C2082 1.523 . S
C2084 C2068 1.429 . S
C2084 C2080 1.429 . S
C2084 C2085 1.523 . S
C2085 C2069 1.368 . S
C2085 C2081 1.368 . S
C2085 C2084 1.523 . S
H2086 C2061 0.950 . S
H2087 C2063 0.950 . S
H2088 C2064 0.949 . S
H2089 C2066 0.952 . S
H2090 C2068 0.950 . S
C2091 C2092 1.349 . S
C2091 C2093 1.327 . S
C2091 H2116 0.950 . S
C2092 C2091 1.349 . S
C2092 C2108 1.349 . S
C2093 C2091 1.327 . S
C2093 C2112 1.429 . S
C2093 H2117 0.950 . S
C2094 C2111 1.574 . S
C2094 C2113 1.368 . S
C2094 H2118 0.949 . S
H2095 C2099 0.949 . S
C2096 C2097 1.349 . S
C2096 C2098 1.327 . S
C2096 H2119 0.950 . S
C2097 C2096 1.349 . S
C2097 C2109 1.349 . S
C2098 C2096 1.327 . S
C2098 C2114 1.429 . S
C2098 H2120 0.950 . S
C2099 H2095 0.949 . S
C2099 C2107 1.574 . S
C2099 C2115 1.368 . S
H2100 C2108 0.950 . S
H2101 C2106 0.950 . S
H2102 C2107 0.949 . S
H2103 C2109 0.950 . S
H2104 C2110 0.950 . S
H2105 C2111 0.949 . S
C2106 H2101 0.950 . S
C2106 C2108 1.327 . S
C2106 C2112 1.429 . S
C2107 C2099 1.574 . S
C2107 H2102 0.949 . S
C2107 C2113 1.368 . S
C2108 C2092 1.349 . S
C2108 H2100 0.950 . S
C2108 C2106 1.327 . S
C2109 C2097 1.349 . S
C2109 H2103 0.950 . S
C2109 C2110 1.327 . S
C2110 H2104 0.950 . S
C2110 C2109 1.327 . S
C2110 C2114 1.429 . S
C2111 C2094 1.574 . S
C2111 H2105 0.949 . S
C2111 C2115 1.368 . S
C2112 C2093 1.429 . S
C2112 C2106 1.429 . S
C2112 C2113 1.523 . S
C2113 C2094 1.368 . S
C2113 C2107 1.368 . S
C2113 C2112 1.523 . S
C2114 C2098 1.429 . S
C2114 C2110 1.429 . S
C2114 C2115 1.523 . S
C2115 C2099 1.368 . S
C2115 C2111 1.368 . S
C2115 C2114 1.523 . S
H2116 C2091 0.950 . S
H2117 C2093 0.950 . S
H2118 C2094 0.949 . S
H2119 C2096 0.950 . S
H2120 C2098 0.950 . S
C2121 C2122 1.349 . S
C2121 C2123 1.327 . S
C2121 H2146 0.950 . S
C2122 C2121 1.349 . S
C2122 C2138 1.349 . S
C2123 C2121 1.327 . S
C2123 C2142 1.429 . S
C2123 H2147 0.950 . S
C2124 C2141 1.574 . S
C2124 C2143 1.368 . S
C2124 H2148 0.949 . S
H2125 C2129 0.949 1_565 S
C2126 C2127 1.349 . S
C2126 C2128 1.327 . S
C2126 H2149 0.950 . S
C2127 C2126 1.349 . S
C2127 C2139 1.349 1_545 S
C2128 C2126 1.327 . S
C2128 C2144 1.429 . S
C2128 H2150 0.950 . S
C2129 H2125 0.949 1_545 S
C2129 C2137 1.574 . S
C2129 C2145 1.368 . S
H2130 C2138 0.950 . S
H2131 C2136 0.950 . S
H2132 C2137 0.949 . S
H2133 C2139 0.950 . S
H2134 C2140 0.950 . S
H2135 C2141 0.949 . S
C2136 H2131 0.950 . S
C2136 C2138 1.327 . S
C2136 C2142 1.429 . S
C2137 C2129 1.574 . S
C2137 H2132 0.949 . S
C2137 C2143 1.368 . S
C2138 C2122 1.349 . S
C2138 H2130 0.950 . S
C2138 C2136 1.327 . S
C2139 C2127 1.349 1_565 S
C2139 H2133 0.950 . S
C2139 C2140 1.327 . S
C2140 H2134 0.950 . S
C2140 C2139 1.327 . S
C2140 C2144 1.429 1_565 S
C2141 C2124 1.574 . S
C2141 H2135 0.949 . S
C2141 C2145 1.368 . S
C2142 C2123 1.429 . S
C2142 C2136 1.429 . S
C2142 C2143 1.523 . S
C2143 C2124 1.368 . S
C2143 C2137 1.368 . S
C2143 C2142 1.523 . S
C2144 C2128 1.429 . S
C2144 C2140 1.429 1_545 S
C2144 C2145 1.523 . S
C2145 C2129 1.368 . S
C2145 C2141 1.368 . S
C2145 C2144 1.523 . S
H2146 C2121 0.950 . S
H2147 C2123 0.950 . S
H2148 C2124 0.949 . S
H2149 C2126 0.950 . S
H2150 C2128 0.950 . S
C2151 C2152 1.349 . S
C2151 C2153 1.327 . S
C2151 H2176 0.950 . S
C2152 C2151 1.349 . S
C2152 C2168 1.349 . S
C2153 C2151 1.327 . S
C2153 C2172 1.429 . S
C2153 H2177 0.950 . S
C2154 C2171 1.574 . S
C2154 C2173 1.368 . S
C2154 H2178 0.949 . S
H2155 C2159 0.949 . S
C2156 C2157 1.349 . S
C2156 C2158 1.327 . S
C2156 H2179 0.950 . S
C2157 C2156 1.349 . S
C2157 C2169 1.349 . S
C2158 C2156 1.327 . S
C2158 C2174 1.429 . S
C2158 H2180 0.950 . S
C2159 H2155 0.949 . S
C2159 C2167 1.574 . S
C2159 C2175 1.368 . S
H2160 C2168 0.950 . S
H2161 C2166 0.950 . S
H2162 C2167 0.949 . S
H2163 C2169 0.950 . S
H2164 C2170 0.950 . S
H2165 C2171 0.949 . S
C2166 H2161 0.950 . S
C2166 C2168 1.327 . S
C2166 C2172 1.429 . S
C2167 C2159 1.574 . S
C2167 H2162 0.949 . S
C2167 C2173 1.368 . S
C2168 C2152 1.349 . S
C2168 H2160 0.950 . S
C2168 C2166 1.327 . S
C2169 C2157 1.349 . S
C2169 H2163 0.950 . S
C2169 C2170 1.327 . S
C2170 H2164 0.950 . S
C2170 C2169 1.327 . S
C2170 C2174 1.429 . S
C2171 C2154 1.574 . S
C2171 H2165 0.949 . S
C2171 C2175 1.368 . S
C2172 C2153 1.429 . S
C2172 C2166 1.429 . S
C2172 C2173 1.523 . S
C2173 C2154 1.368 . S
C2173 C2167 1.368 . S
C2173 C2172 1.523 . S
C2174 C2158 1.429 . S
C2174 C2170 1.429 . S
C2174 C2175 1.523 . S
C2175 C2159 1.368 . S
C2175 C2171 1.368 . S
C2175 C2174 1.523 . S
H2176 C2151 0.950 . S
H2177 C2153 0.950 . S
H2178 C2154 0.949 . S
H2179 C2156 0.950 . S
H2180 C2158 0.950 . S
C2181 C2182 1.349 . S
C2181 C2183 1.327 . S
C2181 H2206 0.950 . S
C2182 C2181 1.349 . S
C2182 C2198 1.349 . S
C2183 C2181 1.327 . S
C2183 C2202 1.429 . S
C2183 H2207 0.950 . S
C2184 C2201 1.574 . S
C2184 C2203 1.368 . S
C2184 H2208 0.949 . S
H2185 C2189 0.949 . S
C2186 C2187 1.349 . S
C2186 C2188 1.327 . S
C2186 H2209 0.950 . S
C2187 C2186 1.349 . S
C2187 C2199 1.349 . S
C2188 C2186 1.327 . S
C2188 C2204 1.429 . S
C2188 H2210 0.950 . S
C2189 H2185 0.949 . S
C2189 C2197 1.574 . S
C2189 C2205 1.368 . S
H2190 C2198 0.950 . S
H2191 C2196 0.950 . S
H2192 C2197 0.949 . S
H2193 C2199 0.950 . S
H2194 C2200 0.950 . S
H2195 C2201 0.949 . S
C2196 H2191 0.950 . S
C2196 C2198 1.327 . S
C2196 C2202 1.429 . S
C2197 C2189 1.574 . S
C2197 H2192 0.949 . S
C2197 C2203 1.368 . S
C2198 C2182 1.349 . S
C2198 H2190 0.950 . S
C2198 C2196 1.327 . S
C2199 C2187 1.349 . S
C2199 H2193 0.950 . S
C2199 C2200 1.327 . S
C2200 H2194 0.950 . S
C2200 C2199 1.327 . S
C2200 C2204 1.429 . S
C2201 C2184 1.574 . S
C2201 H2195 0.949 . S
C2201 C2205 1.368 . S
C2202 C2183 1.429 . S
C2202 C2196 1.429 . S
C2202 C2203 1.523 . S
C2203 C2184 1.368 . S
C2203 C2197 1.368 . S
C2203 C2202 1.523 . S
C2204 C2188 1.429 . S
C2204 C2200 1.429 . S
C2204 C2205 1.523 . S
C2205 C2189 1.368 . S
C2205 C2201 1.368 . S
C2205 C2204 1.523 . S
H2206 C2181 0.950 . S
H2207 C2183 0.950 . S
H2208 C2184 0.949 . S
H2209 C2186 0.950 . S
H2210 C2188 0.950 . S
C2211 C2212 1.349 . S
C2211 C2213 1.327 . S
C2211 H2236 0.950 . S
C2212 C2211 1.349 . S
C2212 C2228 1.349 . S
C2213 C2211 1.327 . S
C2213 C2232 1.429 . S
C2213 H2237 0.950 . S
C2214 C2231 1.574 . S
C2214 C2233 1.368 . S
C2214 H2238 0.949 . S
H2215 C2219 0.949 . S
C2216 C2217 1.349 . S
C2216 C2218 1.327 . S
C2216 H2239 0.950 . S
C2217 C2216 1.349 . S
C2217 C2229 1.349 . S
C2218 C2216 1.327 . S
C2218 C2234 1.429 . S
C2218 H2240 0.950 . S
C2219 H2215 0.949 . S
C2219 C2227 1.574 . S
C2219 C2235 1.368 . S
H2220 C2228 0.950 . S
H2221 C2226 0.950 . S
H2222 C2227 0.949 . S
H2223 C2229 0.950 . S
H2224 C2230 0.950 . S
H2225 C2231 0.949 . S
C2226 H2221 0.950 . S
C2226 C2228 1.327 . S
C2226 C2232 1.429 . S
C2227 C2219 1.574 . S
C2227 H2222 0.949 . S
C2227 C2233 1.368 . S
C2228 C2212 1.349 . S
C2228 H2220 0.950 . S
C2228 C2226 1.327 . S
C2229 C2217 1.349 . S
C2229 H2223 0.950 . S
C2229 C2230 1.327 . S
C2230 H2224 0.950 . S
C2230 C2229 1.327 . S
C2230 C2234 1.429 . S
C2231 C2214 1.574 . S
C2231 H2225 0.949 . S
C2231 C2235 1.368 . S
C2232 C2213 1.429 . S
C2232 C2226 1.429 . S
C2232 C2233 1.523 . S
C2233 C2214 1.368 . S
C2233 C2227 1.368 . S
C2233 C2232 1.523 . S
C2234 C2218 1.429 . S
C2234 C2230 1.429 . S
C2234 C2235 1.523 . S
C2235 C2219 1.368 . S
C2235 C2231 1.368 . S
C2235 C2234 1.523 . S
H2236 C2211 0.950 . S
H2237 C2213 0.950 . S
H2238 C2214 0.949 . S
H2239 C2216 0.950 . S
H2240 C2218 0.950 . S
C2241 C2242 1.349 . S
C2241 C2243 1.327 . S
C2241 H2266 0.950 . S
C2242 C2241 1.349 . S
C2242 C2258 1.349 . S
C2243 C2241 1.327 . S
C2243 C2262 1.429 . S
C2243 H2267 0.950 . S
C2244 C2261 1.574 . S
C2244 C2263 1.368 . S
C2244 H2268 0.949 . S
H2245 C2249 0.949 . S
C2246 C2247 1.349 . S
C2246 C2248 1.327 . S
C2246 H2269 0.950 . S
C2247 C2246 1.349 . S
C2247 C2259 1.349 . S
C2248 C2246 1.327 . S
C2248 C2264 1.429 . S
C2248 H2270 0.950 . S
C2249 H2245 0.949 . S
C2249 C2257 1.574 . S
C2249 C2265 1.368 . S
H2250 C2258 0.950 . S
H2251 C2256 0.950 . S
H2252 C2257 0.949 . S
H2253 C2259 0.950 . S
H2254 C2260 0.950 . S
H2255 C2261 0.949 . S
C2256 H2251 0.950 . S
C2256 C2258 1.327 . S
C2256 C2262 1.429 . S
C2257 C2249 1.574 . S
C2257 H2252 0.949 . S
C2257 C2263 1.368 . S
C2258 C2242 1.349 . S
C2258 H2250 0.950 . S
C2258 C2256 1.327 . S
C2259 C2247 1.349 . S
C2259 H2253 0.950 . S
C2259 C2260 1.327 . S
C2260 H2254 0.950 . S
C2260 C2259 1.327 . S
C2260 C2264 1.429 . S
C2261 C2244 1.574 . S
C2261 H2255 0.949 . S
C2261 C2265 1.368 . S
C2262 C2243 1.429 . S
C2262 C2256 1.429 . S
C2262 C2263 1.523 . S
C2263 C2244 1.368 . S
C2263 C2257 1.368 . S
C2263 C2262 1.523 . S
C2264 C2248 1.429 . S
C2264 C2260 1.429 . S
C2264 C2265 1.523 . S
C2265 C2249 1.368 . S
C2265 C2261 1.368 . S
C2265 C2264 1.523 . S
H2266 C2241 0.950 . S
H2267 C2243 0.950 . S
H2268 C2244 0.949 . S
H2269 C2246 0.950 . S
H2270 C2248 0.950 . S
C2271 C2272 1.349 . S
C2271 C2273 1.327 . S
C2271 H2296 0.950 . S
C2272 C2271 1.349 . S
C2272 C2288 1.349 . S
C2273 C2271 1.327 . S
C2273 C2292 1.429 . S
C2273 H2297 0.950 . S
C2274 C2291 1.574 . S
C2274 C2293 1.368 . S
C2274 H2298 0.949 . S
H2275 C2279 0.949 . S
C2276 C2277 1.349 . S
C2276 C2278 1.327 . S
C2276 H2299 0.950 . S
C2277 C2276 1.349 . S
C2277 C2289 1.349 . S
C2278 C2276 1.327 . S
C2278 C2294 1.429 . S
C2278 H2300 0.950 . S
C2279 H2275 0.949 . S
C2279 C2287 1.574 . S
C2279 C2295 1.368 . S
H2280 C2288 0.950 . S
H2281 C2286 0.950 . S
H2282 C2287 0.949 . S
H2283 C2289 0.950 . S
H2284 C2290 0.950 . S
H2285 C2291 0.949 . S
C2286 H2281 0.950 . S
C2286 C2288 1.327 . S
C2286 C2292 1.429 . S
C2287 C2279 1.574 . S
C2287 H2282 0.949 . S
C2287 C2293 1.368 . S
C2288 C2272 1.349 . S
C2288 H2280 0.950 . S
C2288 C2286 1.327 . S
C2289 C2277 1.349 . S
C2289 H2283 0.950 . S
C2289 C2290 1.327 . S
C2290 H2284 0.950 . S
C2290 C2289 1.327 . S
C2290 C2294 1.429 . S
C2291 C2274 1.574 . S
C2291 H2285 0.949 . S
C2291 C2295 1.368 . S
C2292 C2273 1.429 . S
C2292 C2286 1.429 . S
C2292 C2293 1.523 . S
C2293 C2274 1.368 . S
C2293 C2287 1.368 . S
C2293 C2292 1.523 . S
C2294 C2278 1.429 . S
C2294 C2290 1.429 . S
C2294 C2295 1.523 . S
C2295 C2279 1.368 . S
C2295 C2291 1.368 . S
C2295 C2294 1.523 . S
H2296 C2271 0.950 . S
H2297 C2273 0.950 . S
H2298 C2274 0.949 . S
H2299 C2276 0.950 . S
H2300 C2278 0.950 . S
C2301 C2302 1.349 . S
C2301 C2303 1.327 . S
C2301 H2326 0.950 . S
C2302 C2301 1.349 . S
C2302 C2318 1.349 . S
C2303 C2301 1.327 . S
C2303 C2322 1.429 . S
C2303 H2327 0.950 . S
C2304 C2321 1.574 . S
C2304 C2323 1.368 . S
C2304 H2328 0.949 . S
H2305 C2309 0.949 . S
C2306 C2307 1.349 . S
C2306 C2308 1.327 . S
C2306 H2329 0.950 . S
C2307 C2306 1.349 . S
C2307 C2319 1.349 . S
C2308 C2306 1.327 . S
C2308 C2324 1.429 . S
C2308 H2330 0.950 . S
C2309 H2305 0.949 . S
C2309 C2317 1.574 . S
C2309 C2325 1.368 . S
H2310 C2318 0.950 . S
H2311 C2316 0.950 . S
H2312 C2317 0.949 . S
H2313 C2319 0.950 . S
H2314 C2320 0.950 . S
H2315 C2321 0.949 . S
C2316 H2311 0.950 . S
C2316 C2318 1.327 . S
C2316 C2322 1.429 . S
C2317 C2309 1.574 . S
C2317 H2312 0.949 . S
C2317 C2323 1.368 . S
C2318 C2302 1.349 . S
C2318 H2310 0.950 . S
C2318 C2316 1.327 . S
C2319 C2307 1.349 . S
C2319 H2313 0.950 . S
C2319 C2320 1.327 . S
C2320 H2314 0.950 . S
C2320 C2319 1.327 . S
C2320 C2324 1.429 . S
C2321 C2304 1.574 . S
C2321 H2315 0.949 . S
C2321 C2325 1.368 . S
C2322 C2303 1.429 . S
C2322 C2316 1.429 . S
C2322 C2323 1.523 . S
C2323 C2304 1.368 . S
C2323 C2317 1.368 . S
C2323 C2322 1.523 . S
C2324 C2308 1.429 . S
C2324 C2320 1.429 . S
C2324 C2325 1.523 . S
C2325 C2309 1.368 . S
C2325 C2321 1.368 . S
C2325 C2324 1.523 . S
H2326 C2301 0.950 . S
H2327 C2303 0.950 . S
H2328 C2304 0.949 . S
H2329 C2306 0.950 . S
H2330 C2308 0.950 . S
C2331 C2332 1.349 . S
C2331 C2333 1.327 . S
C2331 H2356 0.950 . S
C2332 C2331 1.349 . S
C2332 C2348 1.349 . S
C2333 C2331 1.327 . S
C2333 C2352 1.429 . S
C2333 H2357 0.950 . S
C2334 C2351 1.574 . S
C2334 C2353 1.368 . S
C2334 H2358 0.949 . S
H2335 C2339 0.949 . S
C2336 C2337 1.349 . S
C2336 C2338 1.327 . S
C2336 H2359 0.950 . S
C2337 C2336 1.349 . S
C2337 C2349 1.349 . S
C2338 C2336 1.327 . S
C2338 C2354 1.429 . S
C2338 H2360 0.950 . S
C2339 H2335 0.949 . S
C2339 C2347 1.574 . S
C2339 C2355 1.368 . S
H2340 C2348 0.950 . S
H2341 C2346 0.950 . S
H2342 C2347 0.949 . S
H2343 C2349 0.950 . S
H2344 C2350 0.950 . S
H2345 C2351 0.949 . S
C2346 H2341 0.950 . S
C2346 C2348 1.327 . S
C2346 C2352 1.429 . S
C2347 C2339 1.574 . S
C2347 H2342 0.949 . S
C2347 C2353 1.368 . S
C2348 C2332 1.349 . S
C2348 H2340 0.950 . S
C2348 C2346 1.327 . S
C2349 C2337 1.349 . S
C2349 H2343 0.950 . S
C2349 C2350 1.327 . S
C2350 H2344 0.950 . S
C2350 C2349 1.327 . S
C2350 C2354 1.429 . S
C2351 C2334 1.574 . S
C2351 H2345 0.949 . S
C2351 C2355 1.368 . S
C2352 C2333 1.429 . S
C2352 C2346 1.429 . S
C2352 C2353 1.523 . S
C2353 C2334 1.368 . S
C2353 C2347 1.368 . S
C2353 C2352 1.523 . S
C2354 C2338 1.429 . S
C2354 C2350 1.429 . S
C2354 C2355 1.523 . S
C2355 C2339 1.368 . S
C2355 C2351 1.368 . S
C2355 C2354 1.523 . S
H2356 C2331 0.950 . S
H2357 C2333 0.950 . S
H2358 C2334 0.949 . S
H2359 C2336 0.950 . S
H2360 C2338 0.950 . S
C2361 C2362 1.349 . S
C2361 C2363 1.327 . S
C2361 H2386 0.950 . S
C2362 C2361 1.349 . S
C2362 C2378 1.349 . S
C2363 C2361 1.327 . S
C2363 C2382 1.429 . S
C2363 H2387 0.950 . S
C2364 C2381 1.574 . S
C2364 C2383 1.368 . S
C2364 H2388 0.949 . S
H2365 C2369 0.949 . S
C2366 C2367 1.349 . S
C2366 C2368 1.327 . S
C2366 H2389 0.950 . S
C2367 C2366 1.349 . S
C2367 C2379 1.349 . S
C2368 C2366 1.327 . S
C2368 C2384 1.429 . S
C2368 H2390 0.950 . S
C2369 H2365 0.949 . S
C2369 C2377 1.574 . S
C2369 C2385 1.368 . S
H2370 C2378 0.950 . S
H2371 C2376 0.950 . S
H2372 C2377 0.949 . S
H2373 C2379 0.950 . S
H2374 C2380 0.950 . S
H2375 C2381 0.949 . S
C2376 H2371 0.950 . S
C2376 C2378 1.327 . S
C2376 C2382 1.429 . S
C2377 C2369 1.574 . S
C2377 H2372 0.949 . S
C2377 C2383 1.368 . S
C2378 C2362 1.349 . S
C2378 H2370 0.950 . S
C2378 C2376 1.327 . S
C2379 C2367 1.349 . S
C2379 H2373 0.950 . S
C2379 C2380 1.327 . S
C2380 H2374 0.950 . S
C2380 C2379 1.327 . S
C2380 C2384 1.429 . S
C2381 C2364 1.574 . S
C2381 H2375 0.949 . S
C2381 C2385 1.368 . S
C2382 C2363 1.429 . S
C2382 C2376 1.429 . S
C2382 C2383 1.523 . S
C2383 C2364 1.368 . S
C2383 C2377 1.368 . S
C2383 C2382 1.523 . S
C2384 C2368 1.429 . S
C2384 C2380 1.429 . S
C2384 C2385 1.523 . S
C2385 C2369 1.368 . S
C2385 C2381 1.368 . S
C2385 C2384 1.523 . S
H2386 C2361 0.950 . S
H2387 C2363 0.950 . S
H2388 C2364 0.949 . S
H2389 C2366 0.950 . S
H2390 C2368 0.950 . S
C2391 C2392 1.349 . S
C2391 C2393 1.327 . S
C2391 H2416 0.950 . S
C2392 C2391 1.349 . S
C2392 C2408 1.349 . S
C2393 C2391 1.327 . S
C2393 C2412 1.429 . S
C2393 H2417 0.950 . S
C2394 C2411 1.574 . S
C2394 C2413 1.368 . S
C2394 H2418 0.949 . S
H2395 C2399 0.949 . S
C2396 C2397 1.349 . S
C2396 C2398 1.327 . S
C2396 H2419 0.950 . S
C2397 C2396 1.349 . S
C2397 C2409 1.349 . S
C2398 C2396 1.327 . S
C2398 C2414 1.429 . S
C2398 H2420 0.950 . S
C2399 H2395 0.949 . S
C2399 C2407 1.574 . S
C2399 C2415 1.368 . S
H2400 C2408 0.950 . S
H2401 C2406 0.950 . S
H2402 C2407 0.949 . S
H2403 C2409 0.950 . S
H2404 C2410 0.950 . S
H2405 C2411 0.949 . S
C2406 H2401 0.950 . S
C2406 C2408 1.327 . S
C2406 C2412 1.429 . S
C2407 C2399 1.574 . S
C2407 H2402 0.949 . S
C2407 C2413 1.368 . S
C2408 C2392 1.349 . S
C2408 H2400 0.950 . S
C2408 C2406 1.327 . S
C2409 C2397 1.349 . S
C2409 H2403 0.950 . S
C2409 C2410 1.327 . S
C2410 H2404 0.950 . S
C2410 C2409 1.327 . S
C2410 C2414 1.429 . S
C2411 C2394 1.574 . S
C2411 H2405 0.949 . S
C2411 C2415 1.368 . S
C2412 C2393 1.429 . S
C2412 C2406 1.429 . S
C2412 C2413 1.523 . S
C2413 C2394 1.368 . S
C2413 C2407 1.368 . S
C2413 C2412 1.523 . S
C2414 C2398 1.429 . S
C2414 C2410 1.429 . S
C2414 C2415 1.523 . S
C2415 C2399 1.368 . S
C2415 C2411 1.368 . S
C2415 C2414 1.523 . S
H2416 C2391 0.950 . S
H2417 C2393 0.950 . S
H2418 C2394 0.949 . S
H2419 C2396 0.950 . S
H2420 C2398 0.950 . S
C2421 C2422 1.349 . S
C2421 C2423 1.327 . S
C2421 H2446 0.950 . S
C2422 C2421 1.349 . S
C2422 C2438 1.349 . S
C2423 C2421 1.327 . S
C2423 C2442 1.429 . S
C2423 H2447 0.950 . S
C2424 C2441 1.574 . S
C2424 C2443 1.368 . S
C2424 H2448 0.949 . S
H2425 C2429 0.949 . S
C2426 C2427 1.349 . S
C2426 C2428 1.327 . S
C2426 H2449 0.950 . S
C2427 C2426 1.349 . S
C2427 C2439 1.349 . S
C2428 C2426 1.327 . S
C2428 C2444 1.429 . S
C2428 H2450 0.950 . S
C2429 H2425 0.949 . S
C2429 C2437 1.574 . S
C2429 C2445 1.368 . S
H2430 C2438 0.950 . S
H2431 C2436 0.950 . S
H2432 C2437 0.949 . S
H2433 C2439 0.950 . S
H2434 C2440 0.950 . S
H2435 C2441 0.949 . S
C2436 H2431 0.950 . S
C2436 C2438 1.327 . S
C2436 C2442 1.429 . S
C2437 C2429 1.574 . S
C2437 H2432 0.949 . S
C2437 C2443 1.368 . S
C2438 C2422 1.349 . S
C2438 H2430 0.950 . S
C2438 C2436 1.327 . S
C2439 C2427 1.349 . S
C2439 H2433 0.950 . S
C2439 C2440 1.327 . S
C2440 H2434 0.950 . S
C2440 C2439 1.327 . S
C2440 C2444 1.429 . S
C2441 C2424 1.574 . S
C2441 H2435 0.949 . S
C2441 C2445 1.368 . S
C2442 C2423 1.429 . S
C2442 C2436 1.429 . S
C2442 C2443 1.523 . S
C2443 C2424 1.368 . S
C2443 C2437 1.368 . S
C2443 C2442 1.523 . S
C2444 C2428 1.429 . S
C2444 C2440 1.429 . S
C2444 C2445 1.523 . S
C2445 C2429 1.368 . S
C2445 C2441 1.368 . S
C2445 C2444 1.523 . S
H2446 C2421 0.950 . S
H2447 C2423 0.950 . S
H2448 C2424 0.949 . S
H2449 C2426 0.950 . S
H2450 C2428 0.950 . S
C2451 C2452 1.349 . S
C2451 C2453 1.327 . S
C2451 H2476 0.950 . S
C2452 C2451 1.349 . S
C2452 C2468 1.349 . S
C2453 C2451 1.327 . S
C2453 C2472 1.429 . S
C2453 H2477 0.950 . S
C2454 C2471 1.574 . S
C2454 C2473 1.368 . S
C2454 H2478 0.949 . S
H2455 C2459 0.949 . S
C2456 C2457 1.349 . S
C2456 C2458 1.327 . S
C2456 H2479 0.950 . S
C2457 C2456 1.349 . S
C2457 C2469 1.349 . S
C2458 C2456 1.327 . S
C2458 C2474 1.429 . S
C2458 H2480 0.950 . S
C2459 H2455 0.949 . S
C2459 C2467 1.574 . S
C2459 C2475 1.368 . S
H2460 C2468 0.950 . S
H2461 C2466 0.950 . S
H2462 C2467 0.949 . S
H2463 C2469 0.950 . S
H2464 C2470 0.950 . S
H2465 C2471 0.949 . S
C2466 H2461 0.950 . S
C2466 C2468 1.327 . S
C2466 C2472 1.429 . S
C2467 C2459 1.574 . S
C2467 H2462 0.949 . S
C2467 C2473 1.368 . S
C2468 C2452 1.349 . S
C2468 H2460 0.950 . S
C2468 C2466 1.327 . S
C2469 C2457 1.349 . S
C2469 H2463 0.950 . S
C2469 C2470 1.327 . S
C2470 H2464 0.950 . S
C2470 C2469 1.327 . S
C2470 C2474 1.429 . S
C2471 C2454 1.574 . S
C2471 H2465 0.949 . S
C2471 C2475 1.368 . S
C2472 C2453 1.429 . S
C2472 C2466 1.429 . S
C2472 C2473 1.523 . S
C2473 C2454 1.368 . S
C2473 C2467 1.368 . S
C2473 C2472 1.523 . S
C2474 C2458 1.429 . S
C2474 C2470 1.429 . S
C2474 C2475 1.523 . S
C2475 C2459 1.368 . S
C2475 C2471 1.368 . S
C2475 C2474 1.523 . S
H2476 C2451 0.950 . S
H2477 C2453 0.950 . S
H2478 C2454 0.949 . S
H2479 C2456 0.950 . S
H2480 C2458 0.950 . S
C2481 C2482 1.349 . S
C2481 C2483 1.327 . S
C2481 H2506 0.950 . S
C2482 C2481 1.349 . S
C2482 C2498 1.349 . S
C2483 C2481 1.327 . S
C2483 C2502 1.429 . S
C2483 H2507 0.950 . S
C2484 C2501 1.574 . S
C2484 C2503 1.368 . S
C2484 H2508 0.949 . S
H2485 C2489 0.949 . S
C2486 C2487 1.349 . S
C2486 C2488 1.327 . S
C2486 H2509 0.950 . S
C2487 C2486 1.349 . S
C2487 C2499 1.349 . S
C2488 C2486 1.327 . S
C2488 C2504 1.429 . S
C2488 H2510 0.950 . S
C2489 H2485 0.949 . S
C2489 C2497 1.574 . S
C2489 C2505 1.368 . S
H2490 C2498 0.950 . S
H2491 C2496 0.950 . S
H2492 C2497 0.949 . S
H2493 C2499 0.950 . S
H2494 C2500 0.950 . S
H2495 C2501 0.949 . S
C2496 H2491 0.950 . S
C2496 C2498 1.327 . S
C2496 C2502 1.429 . S
C2497 C2489 1.574 . S
C2497 H2492 0.949 . S
C2497 C2503 1.368 . S
C2498 C2482 1.349 . S
C2498 H2490 0.950 . S
C2498 C2496 1.327 . S
C2499 C2487 1.349 . S
C2499 H2493 0.950 . S
C2499 C2500 1.327 . S
C2500 H2494 0.950 . S
C2500 C2499 1.327 . S
C2500 C2504 1.429 . S
C2501 C2484 1.574 . S
C2501 H2495 0.949 . S
C2501 C2505 1.368 . S
C2502 C2483 1.429 . S
C2502 C2496 1.429 . S
C2502 C2503 1.523 . S
C2503 C2484 1.368 . S
C2503 C2497 1.368 . S
C2503 C2502 1.523 . S
C2504 C2488 1.429 . S
C2504 C2500 1.429 . S
C2504 C2505 1.523 . S
C2505 C2489 1.368 . S
C2505 C2501 1.368 . S
C2505 C2504 1.523 . S
H2506 C2481 0.950 . S
H2507 C2483 0.950 . S
H2508 C2484 0.949 . S
H2509 C2486 0.950 . S
H2510 C2488 0.950 . S
C892 C528 1.367 . S
C897 C716 1.301 . S
C922 C562 1.402 . S
C927 C737 1.332 . S
C952 C484 1.306 . S
C957 C757 1.119 . S
C982 C445 1.335 . S
C987 C736 1.136 1_556 S
C1017 C758 1.358 . S
C1012 C367 1.434 . S
C1042 C411 1.331 . S
C1047 C715 1.130 1_556 S
C1077 C717 1.258 . S
C1072 C450 1.324 . S
C1107 C738 1.257 . S
C1102 C372 1.317 . S
C1132 C406 1.368 . S
C1137 C760 1.160 1_556 S
C1162 C523 1.310 . S
C1167 C739 1.120 . S
C1192 C567 1.277 . S
C1197 C759 1.217 . S
C1227 C718 1.142 . S
C1222 C489 1.334 . S
C1257 C779 1.301 . S
C1252 C60 1.367 . S
C1282 C94 1.402 . S
C1287 C800 1.332 . S
C1312 C16 1.306 . S
C1317 C820 1.119 . S
C1342 C679 1.335 . S
C1347 C799 1.136 . S
C1372 C601 1.434 . S
C1377 C821 1.358 . S
C1402 C645 1.331 . S
C1407 C778 1.130 . S
C1432 C684 1.324 . S
C1437 C780 1.258 . S
C1462 C606 1.317 . S
C1467 C801 1.257 . S
C1497 C823 1.160 . S
C1492 C640 1.368 . S
C1522 C55 1.310 . S
C1527 C802 1.120 . S
C1557 C822 1.217 . S
C1552 C99 1.277 . S
C1582 C21 1.334 . S
C1587 C781 1.142 . S
C1617 C842 1.301 . S
C1612 C294 1.367 . S
C1642 C328 1.402 . S
C1647 C863 1.332 . S
C1677 C883 1.119 . S
C1672 C250 1.306 . S
C1707 C862 1.136 . S
C1702 C211 1.335 . S
C1737 C884 1.359 . S
C1732 C133 1.434 . S
C1762 C177 1.331 . S
C1767 C841 1.130 . S
C1792 C216 1.324 . S
C1797 C843 1.258 . S
C1822 C138 1.317 . S
C1827 C864 1.257 . S
C1857 C886 1.160 . S
C1852 C172 1.368 . S
C1882 C289 1.310 . S
C1887 C865 1.120 . S
C1912 C333 1.277 . S
C1917 C885 1.217 . S
C1942 C255 1.334 . S
C1947 C844 1.142 . S
C1972 C586 1.391 . S
C1977 C720 1.362 . S
C2007 C741 1.373 . S
C2002 C625 1.409 . S
C2032 C664 1.487 . S
C2037 C761 1.462 . S
C2062 C235 1.537 . S
C2067 C740 1.505 1_655 S
C2092 C274 1.424 . S
C2097 C762 1.383 . S
C2127 C719 1.480 . S
C2122 C313 1.505 . S
C2152 C118 1.391 . S
C2157 C783 1.357 . S
C2182 C157 1.409 . S
C2187 C804 1.373 . S
C2212 C196 1.487 . S
C2217 C824 1.462 . S
C2242 C469 1.537 . S
C2247 C803 1.510 . S
C2277 C825 1.383 . S
C2272 C508 1.424 . S
C2302 C547 1.505 . S
C2307 C782 1.480 . S
C2332 C352 1.391 . S
C2337 C846 1.357 . S
C2362 C391 1.409 . S
C2367 C867 1.373 . S
C2397 C887 1.462 . S
C2392 C430 1.487 . S
C2422 C1 1.537 . S
C2427 C866 1.510 . S
C2452 C40 1.424 . S
C2457 C888 1.383 . S
C2482 C79 1.505 . S
C2487 C845 1.480 . S
