# Generated by pormake.
# Topology cml, (3,6)-cn, num edge types: 1
# Building blocks:
#     Node 0, Type 0, BuildingBlock: VETTIZ_charged_linker_0, # of connection points: 3
#     Node 1, Type 0, BuildingBlock: VETTIZ_charged_linker_0, # of connection points: 3
#     Node 2, Type 0, BuildingBlock: VETTIZ_charged_linker_0, # of connection points: 3
#     Node 3, Type 0, BuildingBlock: VETTIZ_charged_linker_0, # of connection points: 3
#     Node 4, Type 0, BuildingBlock: VETTIZ_charged_linker_0, # of connection points: 3
#     Node 5, Type 0, BuildingBlock: VETTIZ_charged_linker_0, # of connection points: 3
#     Node 6, Type 0, BuildingBlock: VETTIZ_charged_linker_0, # of connection points: 3
#     Node 7, Type 0, BuildingBlock: VETTIZ_charged_linker_0, # of connection points: 3
#     Node 8, Type 1, BuildingBlock: IZENUY_clean_sbu_0, # of connection points: 6
#     Node 9, Type 1, BuildingBlock: IZENUY_clean_sbu_0, # of connection points: 6
#     Node 10, Type 1, BuildingBlock: IZENUY_clean_sbu_0, # of connection points: 6
#     Node 11, Type 1, BuildingBlock: IZENUY_clean_sbu_0, # of connection points: 6
#     Edge 12, Type (0, 1), BuildingBlock: TEMPAE_clean_linker_10, # of connection points: 2
#     Edge 13, Type (0, 1), BuildingBlock: TEMPAE_clean_linker_10, # of connection points: 2
#     Edge 14, Type (0, 1), BuildingBlock: TEMPAE_clean_linker_10, # of connection points: 2
#     Edge 15, Type (0, 1), BuildingBlock: TEMPAE_clean_linker_10, # of connection points: 2
#     Edge 16, Type (0, 1), BuildingBlock: TEMPAE_clean_linker_10, # of connection points: 2
#     Edge 17, Type (0, 1), BuildingBlock: TEMPAE_clean_linker_10, # of connection points: 2
#     Edge 18, Type (0, 1), BuildingBlock: TEMPAE_clean_linker_10, # of connection points: 2
#     Edge 19, Type (0, 1), BuildingBlock: TEMPAE_clean_linker_10, # of connection points: 2
#     Edge 20, Type (0, 1), BuildingBlock: TEMPAE_clean_linker_10, # of connection points: 2
#     Edge 21, Type (0, 1), BuildingBlock: TEMPAE_clean_linker_10, # of connection points: 2
#     Edge 22, Type (0, 1), BuildingBlock: TEMPAE_clean_linker_10, # of connection points: 2
#     Edge 23, Type (0, 1), BuildingBlock: TEMPAE_clean_linker_10, # of connection points: 2
#     Edge 24, Type (0, 1), BuildingBlock: TEMPAE_clean_linker_10, # of connection points: 2
#     Edge 25, Type (0, 1), BuildingBlock: TEMPAE_clean_linker_10, # of connection points: 2
#     Edge 26, Type (0, 1), BuildingBlock: TEMPAE_clean_linker_10, # of connection points: 2
#     Edge 27, Type (0, 1), BuildingBlock: TEMPAE_clean_linker_10, # of connection points: 2
#     Edge 28, Type (0, 1), BuildingBlock: TEMPAE_clean_linker_10, # of connection points: 2
#     Edge 29, Type (0, 1), BuildingBlock: TEMPAE_clean_linker_10, # of connection points: 2
#     Edge 30, Type (0, 1), BuildingBlock: TEMPAE_clean_linker_10, # of connection points: 2
#     Edge 31, Type (0, 1), BuildingBlock: TEMPAE_clean_linker_10, # of connection points: 2
#     Edge 32, Type (0, 1), BuildingBlock: TEMPAE_clean_linker_10, # of connection points: 2
#     Edge 33, Type (0, 1), BuildingBlock: TEMPAE_clean_linker_10, # of connection points: 2
#     Edge 34, Type (0, 1), BuildingBlock: TEMPAE_clean_linker_10, # of connection points: 2
#     Edge 35, Type (0, 1), BuildingBlock: TEMPAE_clean_linker_10, # of connection points: 2
# Relax obj value: 0.059
# Max RMSD: 0.074
# Mean RMSD: 0.071
data_MOF--net-cml--node1-IZENUY_clean_sbu_0--node2-VETTIZ_charged_linker_0--edge1-TEMPAE_clean_linker_10
_symmetry_space_group_name_H-M    P1
_symmetry_Int_Tables_number       1
_symmetry_cell_setting            triclinic
loop_
_symmetry_equiv_pos_as_xyz
'x, y, z'
_cell_length_a     43.414348
_cell_length_b     50.593077
_cell_length_c     47.109501
_cell_angle_alpha  90.022409
_cell_angle_beta   89.944594
_cell_angle_gamma 90.085924
loop_
_atom_site_label
_atom_site_type_symbol
_atom_site_fract_x
_atom_site_fract_y
_atom_site_fract_z
_atom_type_partial_charge
C0 C 0.32247 0.35132 0.09485 0.0
C1 C 0.34832 0.36329 0.10745 0.0
C2 C 0.36226 0.3851 0.09399 0.0
C3 C 0.32546 0.38236 0.05557 0.0
C4 C 0.31163 0.36103 0.06881 0.0
C5 C 0.28541 0.34995 0.05156 0.0
H6 H 0.20609 0.3484 0.92771 0.0
C7 C 0.3093 0.38716 0.02852 0.0
C8 C 0.28586 0.36821 0.02591 0.0
H9 H 0.19292 0.29826 0.00084 0.0
H10 H 0.23196 0.32266 0.0266 0.0
H11 H 0.20743 0.40126 0.96323 0.0
H12 H 0.2813 0.35343 0.93051 0.0
H13 H 0.28868 0.38687 0.92229 0.0
H14 H 0.2546 0.37123 0.90859 0.0
H15 H 0.21975 0.40381 0.92699 0.0
H16 H 0.23751 0.42311 0.95483 0.0
C17 C 0.25533 0.35286 0.069 0.0
C18 C 0.29359 0.32111 0.04354 0.0
C19 C 0.34492 0.4619 0.96458 0.0
C20 C 0.33474 0.47139 0.9382 0.0
C21 C 0.3095 0.45899 0.92488 0.0
C22 C 0.29498 0.43714 0.93749 0.0
C23 C 0.30568 0.4277 0.96378 0.0
C24 C 0.33004 0.44027 0.97698 0.0
C25 C 0.33792 0.42802 0.00508 0.0
C26 C 0.31414 0.40608 0.00672 0.0
C27 C 0.29555 0.40579 0.98238 0.0
C28 C 0.33291 0.44913 0.0285 0.0
C29 C 0.37124 0.41709 0.00321 0.0
C30 C 0.21187 0.34273 0.94923 0.0
C31 C 0.19703 0.32131 0.9623 0.0
C32 C 0.20437 0.31469 0.99049 0.0
C33 C 0.22707 0.32879 0.00529 0.0
C34 C 0.24238 0.34981 0.99176 0.0
C35 C 0.23415 0.35689 0.96444 0.0
C36 C 0.25143 0.38082 0.95415 0.0
C37 C 0.27233 0.38623 0.97931 0.0
C38 C 0.26719 0.3678 0.00114 0.0
C39 C 0.22799 0.40348 0.9493 0.0
C40 C 0.26994 0.37291 0.92736 0.0
H41 H 0.36265 0.41137 0.05913 0.0
H42 H 0.31143 0.33444 0.10471 0.0
H43 H 0.31832 0.31952 0.03755 0.0
H44 H 0.2808 0.31373 0.02496 0.0
H45 H 0.28947 0.30754 0.06168 0.0
H46 H 0.25601 0.37089 0.08252 0.0
H47 H 0.25176 0.33561 0.08322 0.0
H48 H 0.23477 0.35544 0.05547 0.0
H49 H 0.36397 0.47129 0.97552 0.0
H50 H 0.30136 0.46593 0.90448 0.0
H51 H 0.27613 0.42833 0.9262 0.0
H52 H 0.31254 0.46164 0.02359 0.0
H53 H 0.35321 0.46241 0.03033 0.0
H54 H 0.32787 0.44048 0.04952 0.0
H55 H 0.37686 0.4106 0.98124 0.0
H56 H 0.37476 0.39925 0.01634 0.0
H57 H 0.3884 0.43235 0.00936 0.0
H58 H 0.38195 0.39482 0.10353 0.0
C59 C 0.35094 0.39474 0.06824 0.0
C60 C 0.78903 0.65732 0.45042 0.0
C61 C 0.79921 0.68182 0.46105 0.0
C62 C 0.78845 0.69041 0.48775 0.0
C63 C 0.75805 0.65046 0.49278 0.0
C64 C 0.76846 0.64208 0.46653 0.0
C65 C 0.7548 0.61585 0.45812 0.0
H66 H 0.65804 0.51459 0.48902 0.0
C67 C 0.73702 0.63004 0.50412 0.0
C68 C 0.73506 0.60964 0.4839 0.0
H69 H 0.70984 0.52665 0.41168 0.0
H70 H 0.73335 0.56583 0.43179 0.0
H71 H 0.71205 0.52992 0.53212 0.0
H72 H 0.63701 0.57303 0.49524 0.0
H73 H 0.63931 0.58325 0.53072 0.0
H74 H 0.63176 0.549 0.52283 0.0
H75 H 0.67325 0.52664 0.54474 0.0
H76 H 0.69904 0.55148 0.55873 0.0
C77 C 0.78136 0.59575 0.4545 0.0
C78 C 0.73513 0.62007 0.43107 0.0
C79 C 0.68396 0.64339 0.59971 0.0
C80 C 0.66288 0.62776 0.61507 0.0
C81 C 0.65493 0.60257 0.60456 0.0
C82 C 0.66683 0.59341 0.57883 0.0
C83 C 0.68693 0.60956 0.56319 0.0
C84 C 0.69565 0.63389 0.57384 0.0
C85 C 0.71766 0.64801 0.55424 0.0
C86 C 0.72016 0.62828 0.52995 0.0
C87 C 0.70193 0.60594 0.53534 0.0
C88 C 0.74868 0.65153 0.57002 0.0
C89 C 0.7024 0.6742 0.54471 0.0
C90 C 0.67443 0.52565 0.47635 0.0
C91 C 0.68182 0.51764 0.44862 0.0
C92 C 0.7038 0.53233 0.43314 0.0
C93 C 0.71719 0.55522 0.44476 0.0
C94 C 0.70845 0.56357 0.4721 0.0
C95 C 0.6877 0.54858 0.48749 0.0
C96 C 0.68032 0.56053 0.51583 0.0
C97 C 0.69968 0.58546 0.51487 0.0
C98 C 0.71618 0.58721 0.48929 0.0
C99 C 0.69145 0.54121 0.53922 0.0
C100 C 0.6453 0.5667 0.51652 0.0
H101 H 0.76083 0.68249 0.52385 0.0
H102 H 0.79662 0.65032 0.42984 0.0
H103 H 0.72381 0.63979 0.43137 0.0
H104 H 0.71597 0.60581 0.42921 0.0
H105 H 0.74957 0.61902 0.41163 0.0
H106 H 0.79899 0.59851 0.47137 0.0
H107 H 0.79298 0.5983 0.43366 0.0
H108 H 0.77368 0.57504 0.45654 0.0
H109 H 0.69057 0.66281 0.60725 0.0
H110 H 0.63932 0.5899 0.61629 0.0
H111 H 0.65954 0.57419 0.57198 0.0
H112 H 0.75348 0.63427 0.58396 0.0
H113 H 0.74839 0.66946 0.58364 0.0
H114 H 0.76863 0.65257 0.55551 0.0
H115 H 0.67722 0.67145 0.54143 0.0
H116 H 0.71116 0.68147 0.52414 0.0
H117 H 0.7055 0.6899 0.56096 0.0
H118 H 0.79623 0.70904 0.49654 0.0
C119 C 0.76804 0.67487 0.50367 0.0
C120 C 0.68934 0.46827 0.95394 0.0
C121 C 0.66709 0.48477 0.96667 0.0
C122 C 0.6582 0.47987 0.99495 0.0
C123 C 0.69045 0.44098 0.99637 0.0
C124 C 0.70069 0.44646 0.96922 0.0
C125 C 0.7237 0.42615 0.95907 0.0
H126 H 0.79318 0.30729 0.97975 0.0
C127 C 0.70441 0.41588 0.00566 0.0
C128 C 0.72414 0.40702 0.98408 0.0
H129 H 0.8087 0.36237 0.91126 0.0
H130 H 0.77254 0.39318 0.93243 0.0
H131 H 0.79697 0.35092 0.02834 0.0
H132 H 0.71869 0.31622 0.98606 0.0
H133 H 0.71087 0.31738 0.02269 0.0
H134 H 0.74278 0.29796 0.01 0.0
H135 H 0.78448 0.31776 0.03555 0.0
H136 H 0.76826 0.34573 0.05403 0.0
C137 C 0.7552 0.44006 0.95492 0.0
C138 C 0.71088 0.41304 0.93187 0.0
C139 C 0.66827 0.37524 0.09808 0.0
C140 C 0.67406 0.35106 0.11168 0.0
C141 C 0.69561 0.33352 0.09958 0.0
C142 C 0.71045 0.33973 0.07388 0.0
C143 C 0.70371 0.36378 0.06018 0.0
C144 C 0.68311 0.38109 0.07255 0.0
C145 C 0.67817 0.40551 0.05513 0.0
C146 C 0.69926 0.40016 0.03014 0.0
C147 C 0.71414 0.37572 0.03308 0.0
C148 C 0.68912 0.42968 0.07275 0.0
C149 C 0.64372 0.40621 0.0463 0.0
C150 C 0.78849 0.32591 0.96928 0.0
C151 C 0.8033 0.33242 0.94372 0.0
C152 C 0.79733 0.35703 0.93092 0.0
C153 C 0.7764 0.37482 0.94324 0.0
C154 C 0.76162 0.36803 0.9688 0.0
C155 C 0.76816 0.34408 0.9816 0.0
C156 C 0.75188 0.34086 0.00958 0.0
C157 C 0.73433 0.36672 0.01141 0.0
C158 C 0.73968 0.38243 0.98723 0.0
C159 C 0.77648 0.33849 0.03324 0.0
C160 C 0.72997 0.31678 0.00726 0.0
H161 H 0.66149 0.45541 0.03104 0.0
H162 H 0.69685 0.47168 0.93233 0.0
H163 H 0.68624 0.40761 0.93481 0.0
H164 H 0.72285 0.39457 0.92624 0.0
H165 H 0.71241 0.42674 0.91351 0.0
H166 H 0.75779 0.45716 0.9696 0.0
H167 H 0.75779 0.44762 0.93292 0.0
H168 H 0.77486 0.42701 0.95998 0.0
H169 H 0.65227 0.38938 0.10705 0.0
H170 H 0.70043 0.31473 0.10965 0.0
H171 H 0.72629 0.32545 0.0655 0.0
H172 H 0.70832 0.42424 0.08724 0.0
H173 H 0.67016 0.43772 0.08603 0.0
H174 H 0.69868 0.4457 0.0594 0.0
H175 H 0.63468 0.38589 0.04265 0.0
H176 H 0.63967 0.41656 0.02604 0.0
H177 H 0.62933 0.41545 0.06308 0.0
H178 H 0.6418 0.49267 0.00551 0.0
C179 C 0.66975 0.4582 0.00981 0.0
C180 C 0.21364 0.65829 0.45152 0.0
C181 C 0.1994 0.68009 0.46456 0.0
C182 C 0.20846 0.68749 0.49216 0.0
C183 C 0.24639 0.65242 0.4928 0.0
C184 C 0.23687 0.64468 0.46605 0.0
C185 C 0.25424 0.6209 0.45548 0.0
H186 H 0.37032 0.53328 0.4742 0.0
C187 C 0.2718 0.63489 0.50159 0.0
C188 C 0.2764 0.61623 0.47989 0.0
H189 H 0.30544 0.53654 0.4048 0.0
H190 H 0.27957 0.57356 0.42705 0.0
H191 H 0.38113 0.5948 0.47973 0.0
H192 H 0.32016 0.54137 0.52313 0.0
H193 H 0.33433 0.56337 0.54882 0.0
H194 H 0.36083 0.54236 0.52982 0.0
H195 H 0.3944 0.57235 0.50651 0.0
H196 H 0.38046 0.60492 0.51533 0.0
C197 C 0.27129 0.62874 0.42786 0.0
C198 C 0.23112 0.59775 0.45192 0.0
C199 C 0.32863 0.65248 0.59423 0.0
C200 C 0.35461 0.6407 0.60673 0.0
C201 C 0.36865 0.61902 0.59312 0.0
C202 C 0.35725 0.60932 0.56739 0.0
C203 C 0.33155 0.62145 0.55491 0.0
C204 C 0.31765 0.64265 0.56828 0.0
C205 C 0.29103 0.65336 0.5514 0.0
C206 C 0.2912 0.63498 0.52586 0.0
C207 C 0.31494 0.61634 0.52813 0.0
C208 C 0.29877 0.68226 0.54309 0.0
C209 C 0.26133 0.65019 0.56936 0.0
C210 C 0.35065 0.54209 0.46371 0.0
C211 C 0.34004 0.53222 0.43762 0.0
C212 C 0.31397 0.54383 0.42495 0.0
C213 C 0.29908 0.56535 0.43785 0.0
C214 C 0.31028 0.57524 0.46379 0.0
C215 C 0.33543 0.56337 0.47641 0.0
C216 C 0.34372 0.57588 0.50429 0.0
C217 C 0.31948 0.59733 0.50636 0.0
C218 C 0.30012 0.59707 0.4825 0.0
C219 C 0.37669 0.5875 0.50164 0.0
C220 C 0.33985 0.55476 0.52788 0.0
H221 H 0.23792 0.68057 0.52715 0.0
H222 H 0.20676 0.65192 0.4305 0.0
H223 H 0.21188 0.59927 0.46745 0.0
H224 H 0.24164 0.57828 0.45621 0.0
H225 H 0.22089 0.59764 0.43032 0.0
H226 H 0.28206 0.6486 0.43013 0.0
H227 H 0.25512 0.62956 0.40962 0.0
H228 H 0.29034 0.61525 0.42245 0.0
H229 H 0.31748 0.66926 0.60413 0.0
H230 H 0.3884 0.60937 0.60257 0.0
H231 H 0.36902 0.59278 0.55818 0.0
H232 H 0.3237 0.68441 0.53805 0.0
H233 H 0.29338 0.69609 0.56072 0.0
H234 H 0.28677 0.68892 0.52375 0.0
H235 H 0.26225 0.6319 0.58245 0.0
H236 H 0.24042 0.6479 0.55623 0.0
H237 H 0.25821 0.66717 0.58403 0.0
H238 H 0.19788 0.70428 0.50256 0.0
C239 C 0.23186 0.67379 0.50632 0.0
C240 C 0.8283 0.85696 0.09508 0.0
C241 C 0.85129 0.87193 0.10875 0.0
C242 C 0.86154 0.89558 0.09603 0.0
C243 C 0.82727 0.88856 0.05627 0.0
C244 C 0.81665 0.86565 0.06893 0.0
C245 C 0.79245 0.8521 0.05121 0.0
H246 H 0.70687 0.84914 0.93089 0.0
C247 C 0.811 0.89188 0.02903 0.0
C248 C 0.79037 0.87072 0.02595 0.0
H249 H 0.7072 0.79273 0.99979 0.0
H250 H 0.74541 0.81865 0.02452 0.0
H251 H 0.70877 0.90149 0.96986 0.0
H252 H 0.78048 0.85669 0.92883 0.0
H253 H 0.78843 0.89039 0.92359 0.0
H254 H 0.75346 0.87649 0.90941 0.0
H255 H 0.71461 0.90234 0.93215 0.0
H256 H 0.73536 0.92415 0.95569 0.0
C257 C 0.76209 0.85145 0.06851 0.0
C258 C 0.80482 0.82452 0.04262 0.0
C259 C 0.84062 0.96771 0.96422 0.0
C260 C 0.83031 0.97592 0.93741 0.0
C261 C 0.80541 0.96258 0.92463 0.0
C262 C 0.79173 0.94071 0.93801 0.0
C263 C 0.80302 0.93219 0.96447 0.0
C264 C 0.82669 0.946 0.97731 0.0
C265 C 0.83536 0.93467 0.00565 0.0
C266 C 0.81354 0.91131 0.00745 0.0
C267 C 0.79479 0.90982 0.98324 0.0
C268 C 0.82845 0.95572 0.02876 0.0
C269 C 0.8695 0.92581 0.00408 0.0
C270 C 0.71501 0.84253 0.95142 0.0
C271 C 0.70405 0.81888 0.96342 0.0
C272 C 0.71555 0.81074 0.98998 0.0
C273 C 0.73762 0.82589 0.00437 0.0
C274 C 0.7485 0.8494 0.99203 0.0
C275 C 0.73721 0.85735 0.96597 0.0
C276 C 0.75192 0.88256 0.95579 0.0
C277 C 0.77373 0.88852 0.98011 0.0
C278 C 0.77161 0.86904 0.0013 0.0
C279 C 0.72649 0.90384 0.95296 0.0
C280 C 0.76939 0.87648 0.92784 0.0
H281 H 0.85866 0.92203 0.06144 0.0
H282 H 0.81997 0.83866 0.10424 0.0
H283 H 0.83013 0.82519 0.0389 0.0
H284 H 0.79506 0.81724 0.02244 0.0
H285 H 0.80039 0.8097 0.05954 0.0
H286 H 0.75918 0.87002 0.08088 0.0
H287 H 0.76197 0.83473 0.08378 0.0
H288 H 0.74138 0.85018 0.05501 0.0
H289 H 0.85933 0.97794 0.97478 0.0
H290 H 0.7971 0.96865 0.90397 0.0
H291 H 0.77318 0.93107 0.92707 0.0
H292 H 0.80937 0.96904 0.02221 0.0
H293 H 0.84895 0.96827 0.03299 0.0
H294 H 0.82041 0.94688 0.04893 0.0
H295 H 0.87466 0.91673 0.9831 0.0
H296 H 0.87542 0.91047 0.01978 0.0
H297 H 0.88531 0.94289 0.00691 0.0
H298 H 0.87872 0.90779 0.10636 0.0
C299 C 0.8497 0.90394 0.06997 0.0
C300 C 0.2887 0.16237 0.44719 0.0
C301 C 0.29773 0.18684 0.45852 0.0
C302 C 0.28487 0.19551 0.48431 0.0
C303 C 0.25498 0.1551 0.48766 0.0
C304 C 0.26708 0.14699 0.46191 0.0
C305 C 0.25364 0.1211 0.45217 0.0
H306 H 0.1595 0.01684 0.4778 0.0
C307 C 0.23361 0.13434 0.49772 0.0
C308 C 0.23262 0.11442 0.47694 0.0
H309 H 0.20892 0.03463 0.40061 0.0
H310 H 0.23088 0.07379 0.42248 0.0
H311 H 0.2135 0.03433 0.52273 0.0
H312 H 0.13536 0.07376 0.48623 0.0
H313 H 0.13727 0.08401 0.52172 0.0
H314 H 0.13152 0.04949 0.51377 0.0
H315 H 0.17465 0.02732 0.53338 0.0
H316 H 0.19682 0.05333 0.54989 0.0
C317 C 0.28014 0.10089 0.44911 0.0
C318 C 0.23532 0.12603 0.42439 0.0
C319 C 0.17974 0.14389 0.59332 0.0
C320 C 0.15917 0.12744 0.60827 0.0
C321 C 0.15169 0.10248 0.59683 0.0
C322 C 0.16368 0.09431 0.57071 0.0
C323 C 0.18346 0.11123 0.55564 0.0
C324 C 0.19158 0.13538 0.56714 0.0
C325 C 0.21331 0.15047 0.54816 0.0
C326 C 0.21636 0.13156 0.52322 0.0
C327 C 0.1987 0.1087 0.52773 0.0
C328 C 0.24415 0.15398 0.56424 0.0
C329 C 0.19757 0.17672 0.53947 0.0
C330 C 0.17553 0.02898 0.4659 0.0
C331 C 0.18298 0.02268 0.43773 0.0
C332 C 0.20315 0.0392 0.42245 0.0
C333 C 0.21567 0.06192 0.43513 0.0
C334 C 0.20736 0.06842 0.46316 0.0
C335 C 0.18756 0.05204 0.47801 0.0
C336 C 0.17938 0.06298 0.5067 0.0
C337 C 0.1974 0.08869 0.50662 0.0
C338 C 0.21405 0.09163 0.48126 0.0
C339 C 0.19142 0.04353 0.52953 0.0
C340 C 0.14407 0.06771 0.50746 0.0
H341 H 0.25483 0.18728 0.51869 0.0
H342 H 0.29794 0.15557 0.42711 0.0
H343 H 0.22751 0.14691 0.42275 0.0
H344 H 0.21384 0.11427 0.42336 0.0
H345 H 0.24958 0.12175 0.40536 0.0
H346 H 0.29571 0.10187 0.46783 0.0
H347 H 0.29413 0.10506 0.42986 0.0
H348 H 0.27196 0.08026 0.44803 0.0
H349 H 0.18594 0.1632 0.60146 0.0
H350 H 0.13648 0.08916 0.60817 0.0
H351 H 0.15684 0.07519 0.56316 0.0
H352 H 0.24989 0.13584 0.57647 0.0
H353 H 0.24282 0.17067 0.57951 0.0
H354 H 0.26399 0.15713 0.54998 0.0
H355 H 0.17226 0.17402 0.53714 0.0
H356 H 0.20535 0.18407 0.51858 0.0
H357 H 0.20142 0.19233 0.55568 0.0
H358 H 0.29161 0.21439 0.49324 0.0
C359 C 0.26366 0.1797 0.49904 0.0
C360 C 0.17629 0.95992 0.95278 0.0
C361 C 0.15358 0.97632 0.96492 0.0
C362 C 0.14331 0.97092 0.99272 0.0
C363 C 0.1766 0.93266 0.99526 0.0
C364 C 0.18746 0.93825 0.96834 0.0
C365 C 0.21117 0.91837 0.95872 0.0
H366 H 0.29511 0.80821 0.98738 0.0
C367 C 0.19209 0.90852 0.00549 0.0
C368 C 0.21264 0.90008 0.98435 0.0
H369 H 0.29557 0.85477 0.91052 0.0
H370 H 0.25746 0.88424 0.93058 0.0
H371 H 0.2925 0.85695 0.0317 0.0
H372 H 0.22156 0.80847 0.99438 0.0
H373 H 0.2124 0.81281 0.03038 0.0
H374 H 0.24757 0.79614 0.02083 0.0
H375 H 0.2868 0.82303 0.04161 0.0
H376 H 0.26561 0.84939 0.05844 0.0
C377 C 0.24195 0.93316 0.95387 0.0
C378 C 0.19856 0.90405 0.93208 0.0
C379 C 0.16027 0.86936 0.10016 0.0
C380 C 0.17002 0.84722 0.11566 0.0
C381 C 0.19469 0.83196 0.10524 0.0
C382 C 0.20874 0.83824 0.0792 0.0
C383 C 0.19811 0.8601 0.06354 0.0
C384 C 0.17461 0.87547 0.07441 0.0
C385 C 0.16683 0.89841 0.05554 0.0
C386 C 0.18887 0.89389 0.03102 0.0
C387 C 0.20701 0.87137 0.03568 0.0
C388 C 0.1742 0.92433 0.07186 0.0
C389 C 0.13273 0.89546 0.04629 0.0
C390 C 0.28719 0.82491 0.97501 0.0
C391 C 0.29845 0.8293 0.94742 0.0
C392 C 0.28711 0.85094 0.93177 0.0
C393 C 0.26508 0.86807 0.9435 0.0
C394 C 0.254 0.86339 0.97111 0.0
C395 C 0.26495 0.84199 0.98629 0.0
C396 C 0.24974 0.83939 0.01484 0.0
C397 C 0.22818 0.86295 0.01452 0.0
C398 C 0.23084 0.87708 0.98891 0.0
C399 C 0.27482 0.84212 0.03803 0.0
C400 C 0.23198 0.8128 0.01545 0.0
H401 H 0.14556 0.94623 0.02878 0.0
H402 H 0.18463 0.96346 0.93144 0.0
H403 H 0.17318 0.90131 0.93358 0.0
H404 H 0.20787 0.88389 0.92955 0.0
H405 H 0.20339 0.91558 0.91251 0.0
H406 H 0.24574 0.9482 0.97076 0.0
H407 H 0.24195 0.94358 0.93312 0.0
H408 H 0.26221 0.92006 0.95488 0.0
H409 H 0.14182 0.8818 0.10799 0.0
H410 H 0.20264 0.81486 0.11695 0.0
H411 H 0.22715 0.8257 0.07217 0.0
H412 H 0.19244 0.92122 0.0881 0.0
H413 H 0.15352 0.93199 0.08304 0.0
H414 H 0.18359 0.93997 0.05788 0.0
H415 H 0.12719 0.87442 0.04159 0.0
H416 H 0.12725 0.90624 0.02659 0.0
H417 H 0.11688 0.9022 0.06333 0.0
H418 H 0.12638 0.98351 0.00284 0.0
C419 C 0.15464 0.94928 0.00787 0.0
C420 C 0.71585 0.15768 0.44634 0.0
C421 C 0.70455 0.18206 0.45621 0.0
C422 C 0.71406 0.1914 0.48299 0.0
C423 C 0.74514 0.15222 0.48985 0.0
C424 C 0.73617 0.1432 0.46342 0.0
C425 C 0.75093 0.11717 0.45602 0.0
H426 H 0.84756 0.01793 0.49295 0.0
C427 C 0.7658 0.1323 0.5025 0.0
C428 C 0.76927 0.11166 0.48281 0.0
H429 H 0.80145 0.02947 0.41259 0.0
H430 H 0.77572 0.06805 0.4313 0.0
H431 H 0.86608 0.07884 0.50152 0.0
H432 H 0.79094 0.03141 0.53238 0.0
H433 H 0.79906 0.05424 0.55944 0.0
H434 H 0.82813 0.03063 0.5489 0.0
H435 H 0.87056 0.05231 0.52649 0.0
H436 H 0.86163 0.08529 0.53798 0.0
C437 C 0.77205 0.12151 0.42987 0.0
C438 C 0.72512 0.09647 0.45144 0.0
C439 C 0.81171 0.14787 0.60048 0.0
C440 C 0.83031 0.13218 0.61811 0.0
C441 C 0.83839 0.10652 0.60922 0.0
C442 C 0.82892 0.09686 0.5828 0.0
C443 C 0.8111 0.11299 0.565 0.0
C444 C 0.8021 0.13775 0.57421 0.0
C445 C 0.78167 0.15139 0.55301 0.0
C446 C 0.78076 0.13105 0.52926 0.0
C447 C 0.79844 0.10882 0.53627 0.0
C448 C 0.79782 0.17726 0.54357 0.0
C449 C 0.74959 0.15543 0.56687 0.0
C450 C 0.832 0.0288 0.47931 0.0
C451 C 0.82679 0.02072 0.45116 0.0
C452 C 0.80578 0.03514 0.4344 0.0
C453 C 0.79109 0.05771 0.44521 0.0
C454 C 0.79756 0.06609 0.47304 0.0
C455 C 0.81745 0.05149 0.48967 0.0
C456 C 0.82222 0.06353 0.51849 0.0
C457 C 0.8025 0.08816 0.51623 0.0
C458 C 0.78802 0.08956 0.48962 0.0
C459 C 0.8569 0.07029 0.52159 0.0
C460 C 0.8097 0.04401 0.54113 0.0
H461 H 0.74039 0.18477 0.52009 0.0
H462 H 0.70922 0.15016 0.42569 0.0
H463 H 0.70675 0.09876 0.46774 0.0
H464 H 0.73329 0.07593 0.4536 0.0
H465 H 0.71428 0.09886 0.43025 0.0
H466 H 0.78178 0.14187 0.42966 0.0
H467 H 0.75913 0.11871 0.40975 0.0
H468 H 0.79241 0.10845 0.42985 0.0
H469 H 0.80486 0.16754 0.60698 0.0
H470 H 0.85287 0.09418 0.62242 0.0
H471 H 0.83626 0.07735 0.57709 0.0
H472 H 0.82306 0.17413 0.54117 0.0
H473 H 0.7944 0.19321 0.55947 0.0
H474 H 0.79001 0.18437 0.52264 0.0
H475 H 0.74434 0.1394 0.58231 0.0
H476 H 0.73055 0.15453 0.55135 0.0
H477 H 0.74848 0.1745 0.57851 0.0
H478 H 0.70543 0.21 0.49114 0.0
C479 C 0.7342 0.17662 0.49986 0.0
Fe480 Fe 0.00092 0.80641 0.32506 0.0
Fe481 Fe 0.0025 0.83841 0.38044 0.0
O482 O 0.00226 0.83728 0.34287 0.0
Fe483 Fe 0.00336 0.86704 0.3233 0.0
O484 O 0.9671 0.85958 0.30618 0.0
O485 O 0.97832 0.81861 0.29476 0.0
O486 O 0.96463 0.79788 0.34195 0.0
C487 C 0.96072 0.79682 0.36846 0.0
C488 C 0.04241 0.83298 0.29183 0.0
O489 O 0.97933 0.8083 0.38509 0.0
C490 C 0.04397 0.87932 0.36528 0.0
O491 O 0.02346 0.78878 0.3522 0.0
O492 O 0.03821 0.82002 0.38174 0.0
O493 O 0.0256 0.85333 0.29372 0.0
O494 O 0.03705 0.8128 0.30678 0.0
C495 C 0.9629 0.87879 0.36892 0.0
O496 O 0.02567 0.86881 0.38292 0.0
O497 O 0.03986 0.87649 0.33901 0.0
C498 C 0.04186 0.7974 0.37097 0.0
O499 O 0.96677 0.85693 0.38129 0.0
O500 O 0.98113 0.88616 0.34941 0.0
C501 C 0.96186 0.83909 0.29173 0.0
Fe502 Fe 0.99986 0.16396 0.87565 0.0
Fe503 Fe 0.00319 0.13501 0.81852 0.0
O504 O 0.00169 0.16493 0.83805 0.0
Fe505 Fe 0.00204 0.19558 0.81963 0.0
O506 O 0.03676 0.20629 0.83762 0.0
O507 O 0.02322 0.19375 0.88073 0.0
O508 O 0.0355 0.14525 0.87821 0.0
C509 C 0.04018 0.12331 0.86631 0.0
C510 C 0.95978 0.20467 0.86469 0.0
O511 O 0.02361 0.11608 0.8457 0.0
C512 C 0.96462 0.16708 0.78473 0.0
O513 O 0.97605 0.13389 0.87687 0.0
O514 O 0.9661 0.12461 0.83212 0.0
O515 O 0.97741 0.21295 0.84521 0.0
O516 O 0.96426 0.18263 0.87644 0.0
C517 C 0.04505 0.164 0.78894 0.0
O518 O 0.98303 0.14792 0.78737 0.0
O519 O 0.96704 0.18717 0.80039 0.0
C520 C 0.95966 0.12257 0.85816 0.0
O521 O 0.04035 0.14366 0.80381 0.0
O522 O 0.02698 0.18367 0.79056 0.0
C523 C 0.04078 0.20646 0.86414 0.0
Fe524 Fe 0.50196 0.30631 0.32053 0.0
Fe525 Fe 0.50424 0.33875 0.37582 0.0
O526 O 0.50409 0.33726 0.3382 0.0
Fe527 Fe 0.50642 0.3668 0.31819 0.0
O528 O 0.48311 0.35451 0.28865 0.0
O529 O 0.4667 0.31544 0.30231 0.0
O530 O 0.47753 0.29058 0.34765 0.0
C531 C 0.46094 0.30032 0.36718 0.0
C532 C 0.54502 0.33529 0.28741 0.0
O533 O 0.46723 0.32245 0.37805 0.0
C534 C 0.5474 0.37653 0.36374 0.0
O535 O 0.53712 0.29503 0.33732 0.0
O536 O 0.52494 0.30745 0.38059 0.0
O537 O 0.54192 0.35631 0.3015 0.0
O538 O 0.52593 0.31647 0.29019 0.0
C539 C 0.46662 0.3822 0.35984 0.0
O540 O 0.54149 0.35516 0.3764 0.0
O541 O 0.53011 0.38468 0.34401 0.0
C542 C 0.54174 0.29435 0.36372 0.0
O543 O 0.48334 0.37032 0.37782 0.0
O544 O 0.47111 0.37924 0.33359 0.0
C545 C 0.46384 0.33578 0.28708 0.0
Fe546 Fe 0.49912 0.66519 0.8799 0.0
Fe547 Fe 0.50359 0.63575 0.82321 0.0
O548 O 0.50195 0.66575 0.84239 0.0
Fe549 Fe 0.50337 0.69637 0.82406 0.0
O550 O 0.5383 0.70588 0.84252 0.0
O551 O 0.5215 0.69563 0.88515 0.0
O552 O 0.53515 0.64713 0.88331 0.0
C553 C 0.54085 0.6254 0.87124 0.0
C554 C 0.4596 0.70558 0.86778 0.0
O555 O 0.52454 0.61752 0.85065 0.0
C556 C 0.46506 0.66812 0.78943 0.0
O557 O 0.47627 0.63462 0.88146 0.0
O558 O 0.46664 0.62509 0.83687 0.0
O559 O 0.47888 0.71406 0.8497 0.0
O560 O 0.46297 0.68314 0.87902 0.0
C561 C 0.54578 0.66454 0.79342 0.0
O562 O 0.48288 0.64852 0.79234 0.0
O563 O 0.46856 0.68872 0.80424 0.0
C564 C 0.4603 0.6228 0.86285 0.0
O565 O 0.54069 0.64423 0.80819 0.0
O566 O 0.52804 0.68434 0.79503 0.0
C567 C 0.54083 0.70711 0.86917 0.0
C568 C 0.14341 0.30528 0.95472 0.0
C569 C 0.17434 0.3055 0.94641 0.0
C570 C 0.12172 0.28991 0.94002 0.0
C571 C 0.13152 0.27388 0.91705 0.0
C572 C 0.16286 0.27409 0.90865 0.0
C573 C 0.18387 0.29021 0.92326 0.0
C574 C 0.0884 0.29068 0.94919 0.0
C575 C 0.17432 0.25679 0.88477 0.0
C576 C 0.08074 0.21473 0.90083 0.0
C577 C 0.06504 0.22325 0.87656 0.0
C578 C 0.10311 0.23073 0.91371 0.0
C579 C 0.10916 0.25619 0.90254 0.0
C580 C 0.09337 0.26487 0.87795 0.0
C581 C 0.07179 0.24808 0.86496 0.0
C582 C 0.12012 0.22044 0.93938 0.0
C583 C 0.09864 0.29214 0.86588 0.0
H584 H 0.13623 0.31728 0.9726 0.0
H585 H 0.20793 0.29041 0.91707 0.0
H586 H 0.07347 0.29547 0.93079 0.0
H587 H 0.08126 0.27096 0.95712 0.0
H588 H 0.08426 0.30547 0.9662 0.0
H589 H 0.19934 0.25947 0.88072 0.0
H590 H 0.16998 0.23571 0.88996 0.0
H591 H 0.16157 0.26122 0.86495 0.0
H592 H 0.07566 0.1954 0.90963 0.0
H593 H 0.05941 0.25472 0.8463 0.0
H594 H 0.11458 0.23275 0.95818 0.0
H595 H 0.14535 0.22181 0.93588 0.0
H596 H 0.11411 0.19957 0.94426 0.0
H597 H 0.0927 0.30727 0.88204 0.0
H598 H 0.08464 0.29581 0.84655 0.0
H599 H 0.1233 0.29488 0.86047 0.0
C600 C 0.81666 0.72561 0.44207 0.0
C601 C 0.82131 0.69829 0.44469 0.0
C602 C 0.8382 0.74167 0.42799 0.0
C603 C 0.86516 0.73016 0.41647 0.0
C604 C 0.86964 0.7025 0.41849 0.0
C605 C 0.84758 0.68688 0.43247 0.0
C606 C 0.83243 0.77104 0.42603 0.0
C607 C 0.89822 0.68952 0.4067 0.0
C608 C 0.91296 0.76914 0.36309 0.0
C609 C 0.93604 0.77986 0.38051 0.0
C610 C 0.88963 0.753 0.37447 0.0
C611 C 0.88955 0.74727 0.4039 0.0
C612 C 0.91281 0.75797 0.42154 0.0
C613 C 0.93563 0.77422 0.40968 0.0
C614 C 0.86504 0.74213 0.35506 0.0
C615 C 0.91367 0.75219 0.45299 0.0
H616 H 0.79616 0.73446 0.45114 0.0
H617 H 0.85139 0.6658 0.43465 0.0
H618 H 0.85028 0.78187 0.43822 0.0
H619 H 0.83415 0.77766 0.40363 0.0
H620 H 0.80942 0.77663 0.43443 0.0
H621 H 0.89745 0.66765 0.40865 0.0
H622 H 0.90121 0.69475 0.384 0.0
H623 H 0.9188 0.69692 0.4182 0.0
H624 H 0.913 0.77349 0.34056 0.0
H625 H 0.95338 0.78231 0.42333 0.0
H626 H 0.84199 0.74866 0.36243 0.0
H627 H 0.8652 0.72022 0.35572 0.0
H628 H 0.86822 0.7486 0.33271 0.0
H629 H 0.89214 0.75921 0.46319 0.0
H630 H 0.93355 0.76178 0.4637 0.0
H631 H 0.91505 0.73055 0.45655 0.0
C632 C 0.85642 0.32074 0.92782 0.0
C633 C 0.8254 0.31371 0.93082 0.0
C634 C 0.87797 0.30269 0.91693 0.0
C635 C 0.86801 0.27727 0.90814 0.0
C636 C 0.83648 0.27035 0.91058 0.0
C637 C 0.81561 0.28854 0.9223 0.0
C638 C 0.91147 0.31062 0.91534 0.0
C639 C 0.8248 0.24375 0.90079 0.0
C640 C 0.92101 0.24047 0.85737 0.0
C641 C 0.93528 0.2223 0.87554 0.0
C642 C 0.89846 0.25799 0.86753 0.0
C643 C 0.89068 0.25786 0.89674 0.0
C644 C 0.90503 0.2395 0.91517 0.0
C645 C 0.92683 0.22168 0.90426 0.0
C646 C 0.88308 0.27671 0.84704 0.0
C647 C 0.89792 0.23913 0.94656 0.0
H648 H 0.86392 0.34017 0.93469 0.0
H649 H 0.79153 0.28323 0.9246 0.0
H650 H 0.92564 0.29661 0.92786 0.0
H651 H 0.91965 0.30962 0.89306 0.0
H652 H 0.91551 0.33094 0.92349 0.0
H653 H 0.7994 0.2419 0.90295 0.0
H654 H 0.83114 0.2405 0.87823 0.0
H655 H 0.83579 0.2278 0.91333 0.0
H656 H 0.92732 0.24084 0.8351 0.0
H657 H 0.93801 0.20779 0.91842 0.0
H658 H 0.88867 0.29743 0.8528 0.0
H659 H 0.85768 0.27453 0.84837 0.0
H660 H 0.89038 0.27325 0.82474 0.0
H661 H 0.9034 0.25867 0.956 0.0
H662 H 0.91117 0.22371 0.95804 0.0
H663 H 0.873 0.23551 0.95001 0.0
C664 C 0.14816 0.70257 0.46295 0.0
C665 C 0.17569 0.69561 0.44932 0.0
C666 C 0.12618 0.71836 0.44928 0.0
C667 C 0.13208 0.72767 0.42145 0.0
C668 C 0.15968 0.72042 0.40745 0.0
C669 C 0.18109 0.70431 0.42151 0.0
C670 C 0.09682 0.72535 0.46475 0.0
C671 C 0.16692 0.73021 0.37791 0.0
C672 C 0.06426 0.75229 0.37802 0.0
C673 C 0.06572 0.77965 0.38278 0.0
C674 C 0.08586 0.73513 0.39028 0.0
C675 C 0.10971 0.74562 0.40738 0.0
C676 C 0.11176 0.77326 0.4117 0.0
C677 C 0.08963 0.78993 0.3995 0.0
C678 C 0.08276 0.70574 0.38544 0.0
C679 C 0.13713 0.78522 0.4295 0.0
H680 H 0.14384 0.69561 0.48435 0.0
H681 H 0.20251 0.69915 0.41105 0.0
H682 H 0.09558 0.74705 0.46793 0.0
H683 H 0.07654 0.71953 0.45184 0.0
H684 H 0.09515 0.71555 0.4858 0.0
H685 H 0.18899 0.72216 0.36969 0.0
H686 H 0.14818 0.72462 0.36309 0.0
H687 H 0.16836 0.75211 0.37796 0.0
H688 H 0.0458 0.74417 0.3652 0.0
H689 H 0.09106 0.81106 0.40308 0.0
H690 H 0.07906 0.69557 0.40603 0.0
H691 H 0.10431 0.69775 0.37616 0.0
H692 H 0.0633 0.7008 0.37108 0.0
H693 H 0.13531 0.77797 0.45166 0.0
H694 H 0.13625 0.80716 0.42975 0.0
H695 H 0.15994 0.77898 0.42126 0.0
C696 C 0.65484 0.8147 0.93611 0.0
C697 C 0.68074 0.80271 0.9483 0.0
C698 C 0.63228 0.79957 0.92228 0.0
C699 C 0.63586 0.77181 0.92044 0.0
C700 C 0.66222 0.75964 0.93229 0.0
C701 C 0.6843 0.77524 0.94618 0.0
C702 C 0.60433 0.81322 0.91014 0.0
C703 C 0.66696 0.73012 0.93052 0.0
C704 C 0.56448 0.72936 0.91126 0.0
C705 C 0.56511 0.72384 0.88206 0.0
C706 C 0.58725 0.74508 0.92393 0.0
C707 C 0.61144 0.75537 0.90707 0.0
C708 C 0.61233 0.74985 0.87762 0.0
C709 C 0.58908 0.73422 0.86543 0.0
C710 C 0.5854 0.75069 0.95538 0.0
C711 C 0.63793 0.76033 0.85904 0.0
H712 H 0.6519 0.83591 0.93794 0.0
H713 H 0.70452 0.76595 0.95524 0.0
H714 H 0.602 0.80849 0.88724 0.0
H715 H 0.58323 0.80591 0.9209 0.0
H716 H 0.60547 0.83503 0.91261 0.0
H717 H 0.68927 0.72387 0.93986 0.0
H718 H 0.64807 0.71976 0.94188 0.0
H719 H 0.66617 0.72358 0.90805 0.0
H720 H 0.54603 0.7215 0.92429 0.0
H721 H 0.58984 0.72995 0.84289 0.0
H722 H 0.58458 0.77233 0.9591 0.0
H723 H 0.6063 0.7431 0.96616 0.0
H724 H 0.56483 0.74151 0.96541 0.0
H725 H 0.63845 0.78224 0.85999 0.0
H726 H 0.63533 0.75418 0.83652 0.0
H727 H 0.66049 0.75318 0.86695 0.0
C728 C 0.31281 0.22828 0.43343 0.0
C729 C 0.32079 0.20325 0.44367 0.0
C730 C 0.3347 0.24424 0.41966 0.0
C731 C 0.36542 0.23516 0.41688 0.0
C732 C 0.37351 0.20984 0.42732 0.0
C733 C 0.35093 0.19402 0.44027 0.0
C734 C 0.32501 0.27081 0.4082 0.0
C735 C 0.40614 0.19972 0.42539 0.0
C736 C 0.4198 0.26594 0.36283 0.0
C737 C 0.43585 0.28426 0.37957 0.0
C738 C 0.39627 0.25026 0.37453 0.0
C739 C 0.38932 0.25243 0.40382 0.0
C740 C 0.40559 0.27083 0.42082 0.0
C741 C 0.42835 0.28679 0.40839 0.0
C742 C 0.37886 0.23139 0.35556 0.0
C743 C 0.3994 0.27328 0.45227 0.0
H744 H 0.28937 0.23524 0.43602 0.0
H745 H 0.35697 0.17466 0.44841 0.0
H746 H 0.33756 0.28679 0.41945 0.0
H747 H 0.33108 0.27232 0.38536 0.0
H748 H 0.29988 0.27427 0.41062 0.0
H749 H 0.40864 0.17964 0.43465 0.0
H750 H 0.41369 0.19907 0.40291 0.0
H751 H 0.42191 0.21339 0.43674 0.0
H752 H 0.42542 0.26411 0.34049 0.0
H753 H 0.44091 0.30078 0.42145 0.0
H754 H 0.35376 0.23529 0.35706 0.0
H755 H 0.38268 0.21076 0.36268 0.0
H756 H 0.38602 0.23305 0.33299 0.0
H757 H 0.375 0.27876 0.45596 0.0
H758 H 0.41436 0.28831 0.46256 0.0
H759 H 0.40327 0.25394 0.46278 0.0
C760 C 0.3479 0.80409 0.95073 0.0
C761 C 0.32178 0.81121 0.93503 0.0
C762 C 0.37008 0.78685 0.93944 0.0
C763 C 0.36582 0.77616 0.91193 0.0
C764 C 0.33938 0.78317 0.89603 0.0
C765 C 0.31779 0.80078 0.9077 0.0
C766 C 0.39818 0.78021 0.9569 0.0
C767 C 0.3338 0.77192 0.8668 0.0
C768 C 0.43635 0.75066 0.87266 0.0
C769 C 0.43494 0.72342 0.87822 0.0
C770 C 0.41395 0.768 0.88338 0.0
C771 C 0.38923 0.75786 0.89972 0.0
C772 C 0.3873 0.73033 0.90492 0.0
C773 C 0.41028 0.71347 0.89428 0.0
C774 C 0.41706 0.79725 0.87766 0.0
C775 C 0.36106 0.71871 0.9219 0.0
H776 H 0.35117 0.81231 0.97177 0.0
H777 H 0.29745 0.80604 0.89564 0.0
H778 H 0.3993 0.75858 0.96057 0.0
H779 H 0.41935 0.78591 0.94517 0.0
H780 H 0.3982 0.7904 0.97779 0.0
H781 H 0.31186 0.77903 0.85739 0.0
H782 H 0.35301 0.77743 0.85242 0.0
H783 H 0.33315 0.75002 0.86783 0.0
H784 H 0.45537 0.75857 0.86038 0.0
H785 H 0.4089 0.69244 0.89851 0.0
H786 H 0.41908 0.80813 0.89804 0.0
H787 H 0.39616 0.80469 0.86678 0.0
H788 H 0.43748 0.80195 0.86435 0.0
H789 H 0.36143 0.72674 0.94381 0.0
H790 H 0.36222 0.6968 0.92307 0.0
H791 H 0.33871 0.72441 0.9123 0.0
C792 C 0.68636 0.22489 0.43578 0.0
C793 C 0.68235 0.19757 0.43912 0.0
C794 C 0.66435 0.2402 0.42153 0.0
C795 C 0.63753 0.2279 0.41064 0.0
C796 C 0.63378 0.2002 0.41324 0.0
C797 C 0.65634 0.18533 0.42735 0.0
C798 C 0.66936 0.26964 0.41888 0.0
C799 C 0.60538 0.18642 0.40211 0.0
C800 C 0.5666 0.27121 0.40457 0.0
C801 C 0.56587 0.27678 0.37541 0.0
C802 C 0.58953 0.255 0.41616 0.0
C803 C 0.61254 0.2443 0.39824 0.0
C804 C 0.61193 0.24975 0.36877 0.0
C805 C 0.5885 0.26583 0.35766 0.0
C806 C 0.58923 0.24946 0.44767 0.0
C807 C 0.63627 0.2389 0.34906 0.0
H808 H 0.70666 0.23434 0.44455 0.0
H809 H 0.65308 0.16423 0.43011 0.0
H810 H 0.66692 0.27587 0.39642 0.0
H811 H 0.65158 0.28031 0.43131 0.0
H812 H 0.69244 0.27582 0.42662 0.0
H813 H 0.60688 0.16459 0.40421 0.0
H814 H 0.58483 0.19337 0.41398 0.0
H815 H 0.60171 0.19141 0.37944 0.0
H816 H 0.54915 0.27946 0.41843 0.0
H817 H 0.58819 0.27015 0.33513 0.0
H818 H 0.61063 0.25716 0.45753 0.0
H819 H 0.58862 0.22782 0.45148 0.0
H820 H 0.56917 0.25861 0.45853 0.0
H821 H 0.6593 0.2462 0.35561 0.0
H822 H 0.63226 0.24464 0.32661 0.0
H823 H 0.63681 0.21701 0.35043 0.0
C824 C 0.33397 0.51548 0.91394 0.0
C825 C 0.35071 0.49403 0.92469 0.0
C826 C 0.34915 0.53763 0.90256 0.0
C827 C 0.38175 0.5381 0.90167 0.0
C828 C 0.39868 0.51617 0.91186 0.0
C829 C 0.38295 0.49447 0.92335 0.0
C830 C 0.33037 0.56074 0.89212 0.0
C831 C 0.43347 0.51577 0.91097 0.0
C832 C 0.42599 0.58408 0.85273 0.0
C833 C 0.43712 0.60303 0.87195 0.0
C834 C 0.4069 0.56335 0.86189 0.0
C835 C 0.39847 0.56171 0.89086 0.0
C836 C 0.40825 0.58156 0.91004 0.0
C837 C 0.42757 0.60191 0.90038 0.0
C838 C 0.39705 0.54248 0.84083 0.0
C839 C 0.39939 0.5807 0.94103 0.0
H840 H 0.30904 0.51524 0.91517 0.0
H841 H 0.3959 0.47774 0.93132 0.0
H842 H 0.33568 0.57851 0.90505 0.0
H843 H 0.33654 0.56545 0.86983 0.0
H844 H 0.30521 0.55686 0.89329 0.0
H845 H 0.4431 0.49679 0.91877 0.0
H846 H 0.44166 0.51907 0.88894 0.0
H847 H 0.44281 0.53204 0.92422 0.0
H848 H 0.43317 0.58479 0.8307 0.0
H849 H 0.43578 0.61664 0.9153 0.0
H850 H 0.37182 0.53919 0.84206 0.0
H851 H 0.40837 0.52345 0.84611 0.0
H852 H 0.40318 0.54786 0.81867 0.0
H853 H 0.37414 0.57807 0.94331 0.0
H854 H 0.40636 0.59893 0.95253 0.0
H855 H 0.4106 0.56352 0.95136 0.0
C856 C 0.68051 0.47616 0.41906 0.0
C857 C 0.66507 0.49508 0.43554 0.0
C858 C 0.66444 0.45492 0.40669 0.0
C859 C 0.63222 0.45269 0.41084 0.0
C860 C 0.61659 0.4717 0.4275 0.0
C861 C 0.63316 0.49265 0.43954 0.0
C862 C 0.68183 0.43501 0.38904 0.0
C863 C 0.58221 0.47018 0.43229 0.0
C864 C 0.57973 0.4172 0.3592 0.0
C865 C 0.57216 0.39419 0.37433 0.0
C866 C 0.60059 0.43573 0.37016 0.0
C867 C 0.61427 0.4312 0.39697 0.0
C868 C 0.60804 0.40737 0.41168 0.0
C869 C 0.58708 0.38909 0.40016 0.0
C870 C 0.60672 0.46082 0.35371 0.0
C871 C 0.62227 0.40181 0.44028 0.0
H872 H 0.70519 0.47784 0.41607 0.0
H873 H 0.62095 0.50747 0.45177 0.0
H874 H 0.67813 0.41483 0.3976 0.0
H875 H 0.67296 0.4351 0.36696 0.0
H876 H 0.70697 0.43912 0.38851 0.0
H877 H 0.57372 0.48609 0.44653 0.0
H878 H 0.56998 0.47173 0.41169 0.0
H879 H 0.576 0.4508 0.44174 0.0
H880 H 0.56867 0.42117 0.33902 0.0
H881 H 0.58155 0.3713 0.41193 0.0
H882 H 0.63184 0.46451 0.35202 0.0
H883 H 0.59648 0.47787 0.36514 0.0
H884 H 0.59681 0.46012 0.33198 0.0
H885 H 0.64749 0.4053 0.43962 0.0
H886 H 0.61796 0.38121 0.44742 0.0
H887 H 0.61247 0.41553 0.4563 0.0
C888 C 0.61953 0.50909 0.95271 0.0
C889 C 0.65159 0.50621 0.95057 0.0
C890 C 0.60414 0.5297 0.93892 0.0
C891 C 0.62113 0.54795 0.92238 0.0
C892 C 0.65348 0.545 0.91971 0.0
C893 C 0.66836 0.52406 0.93381 0.0
C894 C 0.56959 0.53191 0.94209 0.0
C895 C 0.67231 0.56406 0.90218 0.0
C896 C 0.57188 0.58388 0.86848 0.0
C897 C 0.56441 0.60723 0.88307 0.0
C898 C 0.59177 0.56508 0.88035 0.0
C899 C 0.60454 0.56966 0.90753 0.0
C900 C 0.59841 0.59378 0.92174 0.0
C901 C 0.57844 0.61232 0.90932 0.0
C902 C 0.59777 0.53969 0.86442 0.0
C903 C 0.61168 0.59942 0.95073 0.0
H904 H 0.60636 0.49505 0.96518 0.0
H905 H 0.69314 0.52197 0.93219 0.0
H906 H 0.56349 0.55144 0.95121 0.0
H907 H 0.55843 0.53054 0.92096 0.0
H908 H 0.55985 0.51623 0.95596 0.0
H909 H 0.69718 0.55893 0.90207 0.0
H910 H 0.66383 0.56424 0.87998 0.0
H911 H 0.66964 0.58439 0.91064 0.0
H912 H 0.56154 0.57989 0.84799 0.0
H913 H 0.57303 0.63038 0.92066 0.0
H914 H 0.58636 0.52303 0.87558 0.0
H915 H 0.6228 0.53537 0.86381 0.0
H916 H 0.58895 0.54041 0.8423 0.0
H917 H 0.60094 0.58602 0.96656 0.0
H918 H 0.60763 0.62016 0.95751 0.0
H919 H 0.63682 0.59553 0.9509 0.0
C920 C 0.34032 0.48788 0.41383 0.0
C921 C 0.35648 0.51002 0.4238 0.0
C922 C 0.35604 0.4661 0.40232 0.0
C923 C 0.3886 0.4667 0.40046 0.0
C924 C 0.40491 0.48933 0.40983 0.0
C925 C 0.38866 0.51064 0.4215 0.0
C926 C 0.33791 0.4422 0.39281 0.0
C927 C 0.4396 0.4909 0.40787 0.0
C928 C 0.43628 0.40393 0.39853 0.0
C929 C 0.44434 0.40239 0.36974 0.0
C930 C 0.41708 0.42416 0.40861 0.0
C931 C 0.40592 0.44349 0.3895 0.0
C932 C 0.41315 0.44158 0.36026 0.0
C933 C 0.43212 0.42096 0.3507 0.0
C934 C 0.40954 0.42532 0.43989 0.0
C935 C 0.40189 0.46192 0.33926 0.0
H936 H 0.31544 0.4873 0.4158 0.0
H937 H 0.40115 0.52789 0.42889 0.0
H938 H 0.34344 0.4374 0.3704 0.0
H939 H 0.34448 0.42481 0.4058 0.0
H940 H 0.31266 0.44523 0.39474 0.0
H941 H 0.44867 0.51033 0.41503 0.0
H942 H 0.4501 0.47519 0.42112 0.0
H943 H 0.44715 0.48749 0.38566 0.0
H944 H 0.44534 0.38951 0.41334 0.0
H945 H 0.43818 0.41993 0.3284 0.0
H946 H 0.38429 0.427 0.44303 0.0
H947 H 0.42027 0.44314 0.44943 0.0
H948 H 0.4179 0.40764 0.45152 0.0
H949 H 0.37655 0.46426 0.34098 0.0
H950 H 0.40774 0.45661 0.31702 0.0
H951 H 0.4124 0.48139 0.34419 0.0
C952 C 0.82984 0.01902 0.91113 0.0
C953 C 0.84635 0.99782 0.92269 0.0
C954 C 0.8453 0.0406 0.89881 0.0
C955 C 0.87791 0.04067 0.89781 0.0
C956 C 0.89456 0.01887 0.90866 0.0
C957 C 0.87857 0.99778 0.92107 0.0
C958 C 0.82684 0.0636 0.88765 0.0
C959 C 0.92934 0.01803 0.90768 0.0
C960 C 0.9239 0.08475 0.8483 0.0
C961 C 0.93554 0.10366 0.86729 0.0
C962 C 0.90385 0.06476 0.85764 0.0
C963 C 0.89502 0.06387 0.88655 0.0
C964 C 0.90524 0.08382 0.90541 0.0
C965 C 0.92548 0.1034 0.89559 0.0
C966 C 0.89355 0.04376 0.83692 0.0
C967 C 0.896 0.08375 0.93633 0.0
H968 H 0.80492 0.01909 0.91252 0.0
H969 H 0.89132 0.98119 0.92964 0.0
H970 H 0.83203 0.08155 0.90034 0.0
H971 H 0.8334 0.06794 0.86537 0.0
H972 H 0.80164 0.05983 0.88855 0.0
H973 H 0.93869 0.99906 0.91582 0.0
H974 H 0.93752 0.02087 0.88557 0.0
H975 H 0.93898 0.0344 0.92061 0.0
H976 H 0.93145 0.08484 0.82636 0.0
H977 H 0.93404 0.11816 0.91031 0.0
H978 H 0.86829 0.04073 0.83832 0.0
H979 H 0.90468 0.0247 0.84237 0.0
H980 H 0.89962 0.04884 0.81466 0.0
H981 H 0.87068 0.08148 0.93844 0.0
H982 H 0.90316 0.10213 0.94743 0.0
H983 H 0.90681 0.06667 0.94719 0.0
C984 C 0.1462 0.00485 0.40214 0.0
C985 C 0.16749 1.00017 0.42384 0.0
C986 C 0.12795 0.98425 0.39137 0.0
C987 C 0.13169 0.95831 0.40216 0.0
C988 C 0.15438 0.95332 0.42307 0.0
C989 C 0.1717 0.97445 0.43402 0.0
C990 C 0.10353 0.99054 0.3696 0.0
C991 C 0.15962 0.92584 0.43456 0.0
C992 C 0.06207 0.9129 0.40023 0.0
C993 C 0.06734 0.89838 0.37536 0.0
C994 C 0.0829 0.9324 0.40916 0.0
C995 C 0.11011 0.93697 0.39329 0.0
C996 C 0.11605 0.92176 0.36865 0.0
C997 C 0.09433 0.90289 0.35971 0.0
C998 C 0.07532 0.94863 0.43517 0.0
C999 C 0.14522 0.92554 0.35165 0.0
H1000 H 0.14281 0.02488 0.3946 0.0
H1001 H 0.18821 0.97098 0.45087 0.0
H1002 H 0.10596 0.97745 0.35084 0.0
H1003 H 0.08039 0.98683 0.37882 0.0
H1004 H 0.10464 0.01142 0.36238 0.0
H1005 H 0.18049 0.92477 0.44814 0.0
H1006 H 0.13943 0.91963 0.44738 0.0
H1007 H 0.16204 0.9115 0.41687 0.0
H1008 H 0.04108 0.90964 0.41222 0.0
H1009 H 0.09851 0.89155 0.34056 0.0
H1010 H 0.07411 0.96988 0.42943 0.0
H1011 H 0.09377 0.94648 0.45127 0.0
H1012 H 0.05306 0.94275 0.44497 0.0
H1013 H 0.14577 0.94572 0.34248 0.0
H1014 H 0.14727 0.91099 0.33408 0.0
H1015 H 0.16561 0.92364 0.36568 0.0
C1016 C 0.15813 0.01587 0.93268 0.0
C1017 C 0.13976 0.99864 0.94879 0.0
C1018 C 0.14505 0.0375 0.91831 0.0
C1019 C 0.11288 0.04191 0.92005 0.0
C1020 C 0.09425 0.0244 0.93605 0.0
C1021 C 0.10788 0.003 0.9501 0.0
C1022 C 0.16561 0.0557 0.90138 0.0
C1023 C 0.05981 0.02821 0.93828 0.0
C1024 C 0.07547 0.10845 0.90549 0.0
C1025 C 0.06216 0.10408 0.87876 0.0
C1026 C 0.09339 0.08884 0.91867 0.0
C1027 C 0.09821 0.06436 0.90473 0.0
C1028 C 0.08625 0.06043 0.87712 0.0
C1029 C 0.06839 0.08029 0.86451 0.0
C1030 C 0.10583 0.09382 0.9481 0.0
C1031 C 0.09099 0.03471 0.86143 0.0
H1032 H 0.1828 0.01273 0.93174 0.0
H1033 H 0.09344 0.98949 0.96205 0.0
H1034 H 0.158 0.05619 0.87891 0.0
H1035 H 0.16381 0.07616 0.90972 0.0
H1036 H 0.19015 0.04953 0.90206 0.0
H1037 H 0.04868 0.01306 0.95194 0.0
H1038 H 0.05467 0.04804 0.94717 0.0
H1039 H 0.04926 0.02727 0.91687 0.0
H1040 H 0.07096 0.12681 0.91662 0.0
H1041 H 0.05857 0.07681 0.84369 0.0
H1042 H 0.13063 0.08868 0.94913 0.0
H1043 H 0.09358 0.08099 0.96353 0.0
H1044 H 0.10293 0.11474 0.95477 0.0
H1045 H 0.1157 0.02915 0.86151 0.0
H1046 H 0.08295 0.03578 0.83908 0.0
H1047 H 0.07814 0.01868 0.87234 0.0
C1048 C 0.87603 0.9957 0.44509 0.0
C1049 C 0.84454 0.99828 0.43899 0.0
C1050 C 0.8935 0.97507 0.4335 0.0
C1051 C 0.87925 0.95659 0.41516 0.0
C1052 C 0.84745 0.95894 0.40898 0.0
C1053 C 0.83046 0.97978 0.42098 0.0
C1054 C 0.92738 0.97332 0.44056 0.0
C1055 C 0.8315 0.9396 0.38948 0.0
C1056 C 0.93414 0.92144 0.36521 0.0
C1057 C 0.93936 0.89756 0.37957 0.0
C1058 C 0.91368 0.94038 0.37601 0.0
C1059 C 0.89809 0.93539 0.40185 0.0
C1060 C 0.90235 0.91095 0.41593 0.0
C1061 C 0.92288 0.89228 0.40459 0.0
C1062 C 0.90962 0.96614 0.36026 0.0
C1063 C 0.88612 0.90493 0.44355 0.0
H1064 H 0.88726 0.01019 0.45853 0.0
H1065 H 0.80609 0.9815 0.41638 0.0
H1066 H 0.93273 0.95363 0.44964 0.0
H1067 H 0.94127 0.97553 0.42092 0.0
H1068 H 0.93471 0.98874 0.45594 0.0
H1069 H 0.8065 0.9438 0.38734 0.0
H1070 H 0.84221 0.94033 0.3681 0.0
H1071 H 0.83437 0.91917 0.39758 0.0
H1072 H 0.94648 0.92561 0.34571 0.0
H1073 H 0.92663 0.87385 0.41578 0.0
H1074 H 0.91891 0.98264 0.37321 0.0
H1075 H 0.88481 0.97015 0.35671 0.0
H1076 H 0.92159 0.96614 0.3394 0.0
H1077 H 0.8946 0.9185 0.46033 0.0
H1078 H 0.88996 0.88426 0.45064 0.0
H1079 H 0.86099 0.90829 0.44138 0.0
C1080 C 0.34251 0.34993 0.15841 0.0
C1081 C 0.36127 0.3533 0.13444 0.0
C1082 C 0.35546 0.34389 0.18497 0.0
C1083 C 0.3878 0.34096 0.18738 0.0
C1084 C 0.40652 0.3427 0.16282 0.0
C1085 C 0.39303 0.34896 0.13669 0.0
C1086 C 0.33477 0.34222 0.21066 0.0
C1087 C 0.44106 0.33941 0.16437 0.0
C1088 C 0.43167 0.36119 0.25312 0.0
C1089 C 0.44044 0.33668 0.26433 0.0
C1090 C 0.41283 0.36278 0.22909 0.0
C1091 C 0.40274 0.33926 0.21571 0.0
C1092 C 0.41002 0.31444 0.22786 0.0
C1093 C 0.42871 0.31343 0.25221 0.0
C1094 C 0.40522 0.38969 0.2171 0.0
C1095 C 0.39969 0.28895 0.21419 0.0
H1096 H 0.31794 0.35333 0.15666 0.0
H1097 H 0.40747 0.35115 0.11803 0.0
H1098 H 0.34062 0.32469 0.22372 0.0
H1099 H 0.33829 0.35997 0.22412 0.0
H1100 H 0.31005 0.34113 0.20471 0.0
H1101 H 0.45188 0.33872 0.143 0.0
H1102 H 0.45124 0.35619 0.17631 0.0
H1103 H 0.447 0.32101 0.17593 0.0
H1104 H 0.44029 0.37923 0.26271 0.0
H1105 H 0.43539 0.29442 0.26084 0.0
H1106 H 0.38017 0.39129 0.21286 0.0
H1107 H 0.41739 0.39244 0.19658 0.0
H1108 H 0.4121 0.40597 0.23161 0.0
H1109 H 0.37497 0.28996 0.20835 0.0
H1110 H 0.40331 0.27166 0.22833 0.0
H1111 H 0.41294 0.28574 0.19434 0.0
C1112 C 0.61676 0.63358 0.64606 0.0
C1113 C 0.64837 0.63751 0.64162 0.0
C1114 C 0.60276 0.6406 0.67176 0.0
C1115 C 0.62077 0.65201 0.6936 0.0
C1116 C 0.65248 0.65702 0.68891 0.0
C1117 C 0.66595 0.6497 0.66291 0.0
C1118 C 0.56881 0.63508 0.67579 0.0
C1119 C 0.67233 0.66934 0.71165 0.0
C1120 C 0.57225 0.68405 0.75097 0.0
C1121 C 0.56909 0.66319 0.77042 0.0
C1122 C 0.59073 0.68138 0.72666 0.0
C1123 C 0.60635 0.65728 0.72168 0.0
C1124 C 0.60493 0.63686 0.74218 0.0
C1125 C 0.58639 0.64009 0.76633 0.0
C1126 C 0.59193 0.70372 0.70545 0.0
C1127 C 0.62133 0.61088 0.73772 0.0
H1128 H 0.60293 0.6247 0.62944 0.0
H1129 H 0.69042 0.65272 0.65959 0.0
H1130 H 0.56554 0.62068 0.6933 0.0
H1131 H 0.55659 0.65347 0.68186 0.0
H1132 H 0.55789 0.62695 0.65633 0.0
H1133 H 0.6958 0.67416 0.70378 0.0
H1134 H 0.66146 0.68766 0.71981 0.0
H1135 H 0.67446 0.6555 0.7298 0.0
H1136 H 0.55925 0.7021 0.75406 0.0
H1137 H 0.58444 0.62396 0.78137 0.0
H1138 H 0.57832 0.69827 0.6864 0.0
H1139 H 0.61596 0.70733 0.69839 0.0
H1140 H 0.58243 0.72236 0.7143 0.0
H1141 H 0.61023 0.59996 0.72003 0.0
H1142 H 0.62072 0.59822 0.75697 0.0
H1143 H 0.64571 0.61431 0.73168 0.0
C1144 C 0.67214 0.33388 0.16173 0.0
C1145 C 0.65694 0.34434 0.13801 0.0
C1146 C 0.65632 0.32974 0.18742 0.0
C1147 C 0.62466 0.33625 0.18931 0.0
C1148 C 0.60902 0.34589 0.1651 0.0
C1149 C 0.62532 0.34971 0.13977 0.0
C1150 C 0.67367 0.31924 0.21276 0.0
C1151 C 0.57523 0.35296 0.16615 0.0
C1152 C 0.5712 0.31162 0.24733 0.0
C1153 C 0.5684 0.33422 0.26445 0.0
C1154 C 0.59082 0.31144 0.22361 0.0
C1155 C 0.60792 0.33442 0.2168 0.0
C1156 C 0.60642 0.35678 0.23483 0.0
C1157 C 0.58676 0.35638 0.25847 0.0
C1158 C 0.59204 0.28713 0.20506 0.0
C1159 C 0.6243 0.38168 0.22829 0.0
H1160 H 0.69661 0.32979 0.16049 0.0
H1161 H 0.61332 0.35728 0.12132 0.0
H1162 H 0.67513 0.33478 0.22933 0.0
H1163 H 0.66122 0.3022 0.22218 0.0
H1164 H 0.69741 0.31293 0.20715 0.0
H1165 H 0.56627 0.35931 0.14515 0.0
H1166 H 0.56151 0.33579 0.17356 0.0
H1167 H 0.57155 0.36925 0.18156 0.0
H1168 H 0.55738 0.29429 0.25193 0.0
H1169 H 0.58501 0.37386 0.27168 0.0
H1170 H 0.61626 0.28178 0.20027 0.0
H1171 H 0.5805 0.29128 0.18454 0.0
H1172 H 0.58047 0.2699 0.2151 0.0
H1173 H 0.6489 0.377 0.22443 0.0
H1174 H 0.62282 0.39641 0.24574 0.0
H1175 H 0.61514 0.39082 0.20863 0.0
C1176 C 0.34808 0.65496 0.65736 0.0
C1177 C 0.36733 0.65064 0.6339 0.0
C1178 C 0.36051 0.66125 0.68407 0.0
C1179 C 0.39286 0.66336 0.6872 0.0
C1180 C 0.41219 0.66057 0.66316 0.0
C1181 C 0.39918 0.65419 0.63683 0.0
C1182 C 0.33918 0.66408 0.70919 0.0
C1183 C 0.44679 0.66288 0.66551 0.0
C1184 C 0.43272 0.69094 0.75269 0.0
C1185 C 0.44273 0.66759 0.76577 0.0
C1186 C 0.415 0.69001 0.72771 0.0
C1187 C 0.40701 0.66519 0.71586 0.0
C1188 C 0.41542 0.64165 0.73009 0.0
C1189 C 0.43323 0.64316 0.75477 0.0
C1190 C 0.40637 0.71551 0.71317 0.0
C1191 C 0.40706 0.61476 0.7184 0.0
H1192 H 0.32343 0.65218 0.65514 0.0
H1193 H 0.41404 0.65133 0.61858 0.0
H1194 H 0.34156 0.64656 0.72318 0.0
H1195 H 0.34537 0.68173 0.72195 0.0
H1196 H 0.31469 0.6657 0.7026 0.0
H1197 H 0.45826 0.66276 0.64441 0.0
H1198 H 0.4532 0.68134 0.67677 0.0
H1199 H 0.45586 0.64609 0.67812 0.0
H1200 H 0.43995 0.70989 0.76114 0.0
H1201 H 0.44049 0.62504 0.76508 0.0
H1202 H 0.38179 0.71521 0.70678 0.0
H1203 H 0.42028 0.7178 0.69355 0.0
H1204 H 0.41048 0.73299 0.72695 0.0
H1205 H 0.38208 0.61377 0.71359 0.0
H1206 H 0.41284 0.59855 0.73337 0.0
H1207 H 0.41967 0.61133 0.69824 0.0
C1208 C 0.89677 0.86549 0.14044 0.0
C1209 C 0.86494 0.86315 0.13605 0.0
C1210 C 0.91001 0.85932 0.1667 0.0
C1211 C 0.89099 0.85035 0.18916 0.0
C1212 C 0.859 0.84694 0.18461 0.0
C1213 C 0.8463 0.85344 0.15807 0.0
C1214 C 0.94427 0.86312 0.17063 0.0
C1215 C 0.83808 0.83722 0.208 0.0
C1216 C 0.93563 0.81897 0.2495 0.0
C1217 C 0.9398 0.84062 0.26776 0.0
C1218 C 0.91818 0.82136 0.22455 0.0
C1219 C 0.90471 0.846 0.21768 0.0
C1220 C 0.90729 0.86744 0.23684 0.0
C1221 C 0.9247 0.86447 0.26169 0.0
C1222 C 0.91562 0.79795 0.20481 0.0
C1223 C 0.89323 0.89404 0.2303 0.0
H1224 H 0.91138 0.87243 0.12331 0.0
H1225 H 0.82167 0.8517 0.15485 0.0
H1226 H 0.94853 0.87834 0.18715 0.0
H1227 H 0.95499 0.84448 0.17806 0.0
H1228 H 0.95594 0.86941 0.15074 0.0
H1229 H 0.81431 0.83336 0.20032 0.0
H1230 H 0.84737 0.8188 0.21743 0.0
H1231 H 0.837 0.8522 0.22518 0.0
H1232 H 0.94693 0.80038 0.25412 0.0
H1233 H 0.92749 0.88126 0.27576 0.0
H1234 H 0.92972 0.80159 0.18555 0.0
H1235 H 0.89144 0.79519 0.19781 0.0
H1236 H 0.92373 0.77939 0.21492 0.0
H1237 H 0.90536 0.90304 0.21194 0.0
H1238 H 0.89477 0.90787 0.24857 0.0
H1239 H 0.86867 0.89177 0.2243 0.0
C1240 C 0.16246 0.14895 0.65634 0.0
C1241 C 0.14493 0.13618 0.6354 0.0
C1242 C 0.14927 0.15609 0.68252 0.0
C1243 C 0.11788 0.15024 0.68782 0.0
C1244 C 0.09993 0.13794 0.66648 0.0
C1245 C 0.11364 0.13116 0.64055 0.0
C1246 C 0.16905 0.16931 0.70472 0.0
C1247 C 0.06633 0.13146 0.67122 0.0
C1248 C 0.08562 0.13966 0.76167 0.0
C1249 C 0.06782 0.16254 0.76547 0.0
C1250 C 0.10349 0.13607 0.73716 0.0
C1251 C 0.10373 0.15589 0.71595 0.0
C1252 C 0.08754 0.17978 0.72051 0.0
C1253 C 0.06975 0.18283 0.74522 0.0
C1254 C 0.12052 0.11033 0.73316 0.0
C1255 C 0.08748 0.20149 0.69853 0.0
H1256 H 0.18669 0.15277 0.65255 0.0
H1257 H 0.09979 0.12182 0.62424 0.0
H1258 H 0.15794 0.18777 0.71222 0.0
H1259 H 0.17144 0.15611 0.72338 0.0
H1260 H 0.19242 0.17414 0.6966 0.0
H1261 H 0.05543 0.12244 0.6522 0.0
H1262 H 0.06397 0.1175 0.68925 0.0
H1263 H 0.05343 0.14963 0.67687 0.0
H1264 H 0.08459 0.12396 0.7773 0.0
H1265 H 0.05631 0.20068 0.74802 0.0
H1266 H 0.14465 0.11408 0.72654 0.0
H1267 H 0.10935 0.0987 0.71603 0.0
H1268 H 0.12071 0.09818 0.7528 0.0
H1269 H 0.11124 0.20562 0.69106 0.0
H1270 H 0.07731 0.22009 0.70685 0.0
H1271 H 0.07386 0.19505 0.67984 0.0
C1272 C 0.12177 0.83931 0.1431 0.0
C1273 C 0.15402 0.8402 0.14243 0.0
C1274 C 0.10586 0.83525 0.16862 0.0
C1275 C 0.12261 0.83226 0.19419 0.0
C1276 C 0.15524 0.83208 0.19349 0.0
C1277 C 0.17061 0.83592 0.16752 0.0
C1278 C 0.07106 0.83526 0.16835 0.0
C1279 C 0.17388 0.82915 0.22033 0.0
C1280 C 0.07782 0.85591 0.25828 0.0
C1281 C 0.06613 0.83217 0.26927 0.0
C1282 C 0.09764 0.85604 0.2348 0.0
C1283 C 0.10574 0.83184 0.22171 0.0
C1284 C 0.09519 0.8077 0.23347 0.0
C1285 C 0.07562 0.80813 0.25729 0.0
C1286 C 0.10873 0.88222 0.22321 0.0
C1287 C 0.10321 0.78152 0.22002 0.0
H1288 H 0.10894 0.84225 0.12362 0.0
H1289 H 0.19556 0.83671 0.16702 0.0
H1290 H 0.06204 0.81757 0.17953 0.0
H1291 H 0.0624 0.85292 0.17982 0.0
H1292 H 0.06158 0.83552 0.14646 0.0
H1293 H 0.19883 0.82656 0.21586 0.0
H1294 H 0.17092 0.84702 0.23371 0.0
H1295 H 0.16561 0.81199 0.23287 0.0
H1296 H 0.07091 0.87454 0.26772 0.0
H1297 H 0.06666 0.78971 0.26569 0.0
H1298 H 0.09808 0.88583 0.20217 0.0
H1299 H 0.13406 0.88188 0.22011 0.0
H1300 H 0.10284 0.899 0.23742 0.0
H1301 H 0.09139 0.77979 0.19923 0.0
H1302 H 0.0962 0.76452 0.23349 0.0
H1303 H 0.12833 0.78026 0.21593 0.0
C1304 C 0.84134 0.12769 0.66987 0.0
C1305 C 0.843 0.14274 0.64497 0.0
C1306 C 0.85767 0.13521 0.69423 0.0
C1307 C 0.87651 0.15808 0.69344 0.0
C1308 C 0.8766 0.1743 0.66894 0.0
C1309 C 0.85965 0.16648 0.64498 0.0
C1310 C 0.85651 0.11762 0.72009 0.0
C1311 C 0.89657 0.19868 0.66714 0.0
C1312 C 0.91458 0.18042 0.76227 0.0
C1313 C 0.94259 0.16672 0.76087 0.0
C1314 C 0.89282 0.17825 0.74025 0.0
C1315 C 0.89964 0.16243 0.71623 0.0
C1316 C 0.92843 0.14945 0.71434 0.0
C1317 C 0.94938 0.15157 0.73676 0.0
C1318 C 0.86223 0.19211 0.74311 0.0
C1319 C 0.93691 0.13277 0.68888 0.0
H1320 H 0.82814 0.10947 0.66992 0.0
H1321 H 0.86104 0.17807 0.62566 0.0
H1322 H 0.87854 0.10668 0.72202 0.0
H1323 H 0.85365 0.12959 0.73965 0.0
H1324 H 0.83743 0.10301 0.71889 0.0
H1325 H 0.89048 0.21123 0.64863 0.0
H1326 H 0.89457 0.21068 0.68676 0.0
H1327 H 0.92104 0.19268 0.66502 0.0
H1328 H 0.90928 0.19208 0.78096 0.0
H1329 H 0.97119 0.14123 0.73541 0.0
H1330 H 0.84358 0.1772 0.74509 0.0
H1331 H 0.85734 0.20397 0.72384 0.0
H1332 H 0.86144 0.20531 0.76195 0.0
H1333 H 0.92119 0.11552 0.68743 0.0
H1334 H 0.96097 0.12539 0.68995 0.0
H1335 H 0.93421 0.1444 0.66907 0.0
loop_
_geom_bond_atom_site_label_1
_geom_bond_atom_site_label_2
_geom_bond_distance
_geom_bond_site_symmetry_2
_ccdc_geom_bond_type
C0 C1 1.391 . S
C0 C4 1.391 . S
C0 H42 0.948 . S
C1 C0 1.391 . S
C1 C2 1.391 . S
C2 C1 1.391 . S
C2 H58 0.947 . S
C2 C59 1.392 . S
C3 C4 1.391 . S
C3 C7 1.397 . S
C3 C59 1.419 . S
C4 C0 1.391 . S
C4 C3 1.391 . S
C4 C5 1.399 . S
C5 C4 1.399 . S
C5 C8 1.396 . S
C5 C17 1.453 . S
C5 C18 1.684 . S
H6 C30 0.948 . S
C7 C3 1.397 . S
C7 C8 1.394 . S
C7 C26 1.723 . S
C8 C5 1.396 . S
C8 C7 1.394 . S
C8 C38 1.723 . S
H9 C32 0.947 1_554 S
H10 C33 0.948 . S
H11 C39 0.982 . S
H12 C40 0.979 . S
H13 C40 0.980 . S
H14 C40 0.983 . S
H15 C39 0.979 . S
H16 C39 0.977 . S
C17 C5 1.453 . S
C17 H46 0.982 . S
C17 H47 0.979 . S
C17 H48 0.977 . S
C18 C5 1.684 . S
C18 H43 0.979 . S
C18 H44 0.980 . S
C18 H45 0.983 . S
C19 C20 1.391 . S
C19 C24 1.391 . S
C19 H49 0.948 . S
C20 C19 1.391 . S
C20 C21 1.391 . S
C21 C20 1.391 . S
C21 C22 1.392 . S
C21 H50 0.947 . S
C22 C21 1.392 . S
C22 C23 1.419 . S
C22 H51 0.948 . S
C23 C22 1.419 . S
C23 C24 1.391 . S
C23 C27 1.397 . S
C24 C19 1.391 . S
C24 C23 1.391 . S
C24 C25 1.399 1_556 S
C25 C24 1.399 1_554 S
C25 C26 1.396 . S
C25 C28 1.453 . S
C25 C29 1.684 . S
C26 C7 1.723 . S
C26 C25 1.396 . S
C26 C27 1.394 1_554 S
C27 C23 1.397 . S
C27 C26 1.394 1_556 S
C27 C37 1.723 . S
C28 C25 1.453 . S
C28 H52 0.982 . S
C28 H53 0.979 . S
C28 H54 0.977 . S
C29 C25 1.684 . S
C29 H55 0.979 . S
C29 H56 0.980 . S
C29 H57 0.983 . S
C30 H6 0.948 . S
C30 C31 1.391 . S
C30 C35 1.391 . S
C31 C30 1.391 . S
C31 C32 1.391 . S
C32 H9 0.947 1_556 S
C32 C31 1.391 . S
C32 C33 1.392 1_556 S
C33 H10 0.948 . S
C33 C32 1.392 1_554 S
C33 C34 1.419 1_554 S
C34 C33 1.419 1_556 S
C34 C35 1.391 . S
C34 C38 1.397 1_556 S
C35 C30 1.391 . S
C35 C34 1.391 . S
C35 C36 1.399 . S
C36 C35 1.399 . S
C36 C37 1.396 . S
C36 C39 1.453 . S
C36 C40 1.684 . S
C37 C27 1.723 . S
C37 C36 1.396 . S
C37 C38 1.394 1_556 S
C38 C8 1.723 . S
C38 C34 1.397 1_554 S
C38 C37 1.394 1_554 S
C39 H11 0.982 . S
C39 H15 0.979 . S
C39 H16 0.977 . S
C39 C36 1.453 . S
C40 H12 0.979 . S
C40 H13 0.980 . S
C40 H14 0.983 . S
C40 C36 1.684 . S
H41 C59 0.948 . S
H42 C0 0.948 . S
H43 C18 0.979 . S
H44 C18 0.980 . S
H45 C18 0.983 . S
H46 C17 0.982 . S
H47 C17 0.979 . S
H48 C17 0.977 . S
H49 C19 0.948 . S
H50 C21 0.947 . S
H51 C22 0.948 . S
H52 C28 0.982 . S
H53 C28 0.979 . S
H54 C28 0.977 . S
H55 C29 0.979 . S
H56 C29 0.980 . S
H57 C29 0.983 . S
H58 C2 0.947 . S
C59 C2 1.392 . S
C59 C3 1.419 . S
C59 H41 0.948 . S
C60 C61 1.391 . S
C60 C64 1.391 . S
C60 H102 0.948 . S
C61 C60 1.391 . S
C61 C62 1.391 . S
C62 C61 1.391 . S
C62 H118 0.947 . S
C62 C119 1.392 . S
C63 C64 1.391 . S
C63 C67 1.397 . S
C63 C119 1.419 . S
C64 C60 1.391 . S
C64 C63 1.391 . S
C64 C65 1.399 . S
C65 C64 1.399 . S
C65 C68 1.396 . S
C65 C77 1.453 . S
C65 C78 1.684 . S
H66 C90 0.948 . S
C67 C63 1.397 . S
C67 C68 1.394 . S
C67 C86 1.723 . S
C68 C65 1.396 . S
C68 C67 1.394 . S
C68 C98 1.723 . S
H69 C92 0.947 . S
H70 C93 0.948 . S
H71 C99 0.982 . S
H72 C100 0.979 . S
H73 C100 0.980 . S
H74 C100 0.983 . S
H75 C99 0.979 . S
H76 C99 0.977 . S
C77 C65 1.453 . S
C77 H106 0.982 . S
C77 H107 0.979 . S
C77 H108 0.977 . S
C78 C65 1.684 . S
C78 H103 0.979 . S
C78 H104 0.980 . S
C78 H105 0.983 . S
C79 C80 1.391 . S
C79 C84 1.391 . S
C79 H109 0.948 . S
C80 C79 1.391 . S
C80 C81 1.391 . S
C81 C80 1.391 . S
C81 C82 1.392 . S
C81 H110 0.947 . S
C82 C81 1.392 . S
C82 C83 1.419 . S
C82 H111 0.948 . S
C83 C82 1.419 . S
C83 C84 1.391 . S
C83 C87 1.397 . S
C84 C79 1.391 . S
C84 C83 1.391 . S
C84 C85 1.399 . S
C85 C84 1.399 . S
C85 C86 1.396 . S
C85 C88 1.453 . S
C85 C89 1.684 . S
C86 C67 1.723 . S
C86 C85 1.396 . S
C86 C87 1.394 . S
C87 C83 1.397 . S
C87 C86 1.394 . S
C87 C97 1.723 . S
C88 C85 1.453 . S
C88 H112 0.982 . S
C88 H113 0.979 . S
C88 H114 0.977 . S
C89 C85 1.684 . S
C89 H115 0.979 . S
C89 H116 0.980 . S
C89 H117 0.983 . S
C90 H66 0.948 . S
C90 C91 1.391 . S
C90 C95 1.391 . S
C91 C90 1.391 . S
C91 C92 1.391 . S
C92 H69 0.947 . S
C92 C91 1.391 . S
C92 C93 1.392 . S
C93 H70 0.948 . S
C93 C92 1.392 . S
C93 C94 1.419 . S
C94 C93 1.419 . S
C94 C95 1.391 . S
C94 C98 1.397 . S
C95 C90 1.391 . S
C95 C94 1.391 . S
C95 C96 1.399 . S
C96 C95 1.399 . S
C96 C97 1.396 . S
C96 C99 1.453 . S
C96 C100 1.684 . S
C97 C87 1.723 . S
C97 C96 1.396 . S
C97 C98 1.394 . S
C98 C68 1.723 . S
C98 C94 1.397 . S
C98 C97 1.394 . S
C99 H71 0.982 . S
C99 H75 0.979 . S
C99 H76 0.977 . S
C99 C96 1.453 . S
C100 H72 0.979 . S
C100 H73 0.980 . S
C100 H74 0.983 . S
C100 C96 1.684 . S
H101 C119 0.948 . S
H102 C60 0.948 . S
H103 C78 0.979 . S
H104 C78 0.980 . S
H105 C78 0.983 . S
H106 C77 0.982 . S
H107 C77 0.979 . S
H108 C77 0.977 . S
H109 C79 0.948 . S
H110 C81 0.947 . S
H111 C82 0.948 . S
H112 C88 0.982 . S
H113 C88 0.979 . S
H114 C88 0.977 . S
H115 C89 0.979 . S
H116 C89 0.980 . S
H117 C89 0.983 . S
H118 C62 0.947 . S
C119 C62 1.392 . S
C119 C63 1.419 . S
C119 H101 0.948 . S
C120 C121 1.391 . S
C120 C124 1.391 . S
C120 H162 0.948 . S
C121 C120 1.391 . S
C121 C122 1.391 . S
C122 C121 1.391 . S
C122 H178 0.947 . S
C122 C179 1.392 . S
C123 C124 1.391 . S
C123 C127 1.397 . S
C123 C179 1.419 . S
C124 C120 1.391 . S
C124 C123 1.391 . S
C124 C125 1.399 . S
C125 C124 1.399 . S
C125 C128 1.396 . S
C125 C137 1.453 . S
C125 C138 1.684 . S
H126 C150 0.948 . S
C127 C123 1.397 . S
C127 C128 1.394 . S
C127 C146 1.723 1_556 S
C128 C125 1.396 . S
C128 C127 1.394 . S
C128 C158 1.723 . S
H129 C152 0.947 . S
H130 C153 0.948 . S
H131 C159 0.982 . S
H132 C160 0.979 . S
H133 C160 0.980 . S
H134 C160 0.983 . S
H135 C159 0.979 . S
H136 C159 0.977 . S
C137 C125 1.453 . S
C137 H166 0.982 . S
C137 H167 0.979 . S
C137 H168 0.977 . S
C138 C125 1.684 . S
C138 H163 0.979 . S
C138 H164 0.980 . S
C138 H165 0.983 . S
C139 C140 1.391 . S
C139 C144 1.391 . S
C139 H169 0.948 . S
C140 C139 1.391 . S
C140 C141 1.391 . S
C141 C140 1.391 . S
C141 C142 1.392 . S
C141 H170 0.947 . S
C142 C141 1.392 . S
C142 C143 1.419 . S
C142 H171 0.948 . S
C143 C142 1.419 . S
C143 C144 1.391 . S
C143 C147 1.397 . S
C144 C139 1.391 . S
C144 C143 1.391 . S
C144 C145 1.399 . S
C145 C144 1.399 . S
C145 C146 1.396 . S
C145 C148 1.453 . S
C145 C149 1.684 . S
C146 C127 1.723 1_554 S
C146 C145 1.396 . S
C146 C147 1.394 . S
C147 C143 1.397 . S
C147 C146 1.394 . S
C147 C157 1.723 . S
C148 C145 1.453 . S
C148 H172 0.982 . S
C148 H173 0.979 . S
C148 H174 0.977 . S
C149 C145 1.684 . S
C149 H175 0.979 . S
C149 H176 0.980 . S
C149 H177 0.983 . S
C150 H126 0.948 . S
C150 C151 1.391 . S
C150 C155 1.391 . S
C151 C150 1.391 . S
C151 C152 1.391 . S
C152 H129 0.947 . S
C152 C151 1.391 . S
C152 C153 1.392 . S
C153 H130 0.948 . S
C153 C152 1.392 . S
C153 C154 1.419 . S
C154 C153 1.419 . S
C154 C155 1.391 . S
C154 C158 1.397 . S
C155 C150 1.391 . S
C155 C154 1.391 . S
C155 C156 1.399 1_556 S
C156 C155 1.399 1_554 S
C156 C157 1.396 . S
C156 C159 1.453 . S
C156 C160 1.684 . S
C157 C147 1.723 . S
C157 C156 1.396 . S
C157 C158 1.394 1_554 S
C158 C128 1.723 . S
C158 C154 1.397 . S
C158 C157 1.394 1_556 S
C159 H131 0.982 . S
C159 H135 0.979 . S
C159 H136 0.977 . S
C159 C156 1.453 . S
C160 H132 0.979 . S
C160 H133 0.980 . S
C160 H134 0.983 . S
C160 C156 1.684 . S
H161 C179 0.948 1_554 S
H162 C120 0.948 . S
H163 C138 0.979 . S
H164 C138 0.980 . S
H165 C138 0.983 . S
H166 C137 0.982 . S
H167 C137 0.979 . S
H168 C137 0.977 . S
H169 C139 0.948 . S
H170 C141 0.947 . S
H171 C142 0.948 . S
H172 C148 0.982 . S
H173 C148 0.979 . S
H174 C148 0.977 . S
H175 C149 0.979 . S
H176 C149 0.980 . S
H177 C149 0.983 . S
H178 C122 0.947 . S
C179 C122 1.392 . S
C179 C123 1.419 . S
C179 H161 0.948 1_556 S
C180 C181 1.391 . S
C180 C184 1.391 . S
C180 H222 0.948 . S
C181 C180 1.391 . S
C181 C182 1.391 . S
C182 C181 1.391 . S
C182 H238 0.947 . S
C182 C239 1.392 . S
C183 C184 1.391 . S
C183 C187 1.397 . S
C183 C239 1.419 . S
C184 C180 1.391 . S
C184 C183 1.391 . S
C184 C185 1.399 . S
C185 C184 1.399 . S
C185 C188 1.396 . S
C185 C197 1.453 . S
C185 C198 1.684 . S
H186 C210 0.948 . S
C187 C183 1.397 . S
C187 C188 1.394 . S
C187 C206 1.723 . S
C188 C185 1.396 . S
C188 C187 1.394 . S
C188 C218 1.723 . S
H189 C212 0.947 . S
H190 C213 0.948 . S
H191 C219 0.982 . S
H192 C220 0.979 . S
H193 C220 0.980 . S
H194 C220 0.983 . S
H195 C219 0.979 . S
H196 C219 0.977 . S
C197 C185 1.453 . S
C197 H226 0.982 . S
C197 H227 0.979 . S
C197 H228 0.977 . S
C198 C185 1.684 . S
C198 H223 0.979 . S
C198 H224 0.980 . S
C198 H225 0.983 . S
C199 C200 1.391 . S
C199 C204 1.391 . S
C199 H229 0.948 . S
C200 C199 1.391 . S
C200 C201 1.391 . S
C201 C200 1.391 . S
C201 C202 1.392 . S
C201 H230 0.947 . S
C202 C201 1.392 . S
C202 C203 1.419 . S
C202 H231 0.948 . S
C203 C202 1.419 . S
C203 C204 1.391 . S
C203 C207 1.397 . S
C204 C199 1.391 . S
C204 C203 1.391 . S
C204 C205 1.399 . S
C205 C204 1.399 . S
C205 C206 1.396 . S
C205 C208 1.453 . S
C205 C209 1.684 . S
C206 C187 1.723 . S
C206 C205 1.396 . S
C206 C207 1.394 . S
C207 C203 1.397 . S
C207 C206 1.394 . S
C207 C217 1.723 . S
C208 C205 1.453 . S
C208 H232 0.982 . S
C208 H233 0.979 . S
C208 H234 0.977 . S
C209 C205 1.684 . S
C209 H235 0.979 . S
C209 H236 0.980 . S
C209 H237 0.983 . S
C210 H186 0.948 . S
C210 C211 1.391 . S
C210 C215 1.391 . S
C211 C210 1.391 . S
C211 C212 1.391 . S
C212 H189 0.947 . S
C212 C211 1.391 . S
C212 C213 1.392 . S
C213 H190 0.948 . S
C213 C212 1.392 . S
C213 C214 1.419 . S
C214 C213 1.419 . S
C214 C215 1.391 . S
C214 C218 1.397 . S
C215 C210 1.391 . S
C215 C214 1.391 . S
C215 C216 1.399 . S
C216 C215 1.399 . S
C216 C217 1.396 . S
C216 C219 1.453 . S
C216 C220 1.684 . S
C217 C207 1.723 . S
C217 C216 1.396 . S
C217 C218 1.394 . S
C218 C188 1.723 . S
C218 C214 1.397 . S
C218 C217 1.394 . S
C219 H191 0.982 . S
C219 H195 0.979 . S
C219 H196 0.977 . S
C219 C216 1.453 . S
C220 H192 0.979 . S
C220 H193 0.980 . S
C220 H194 0.983 . S
C220 C216 1.684 . S
H221 C239 0.948 . S
H222 C180 0.948 . S
H223 C198 0.979 . S
H224 C198 0.980 . S
H225 C198 0.983 . S
H226 C197 0.982 . S
H227 C197 0.979 . S
H228 C197 0.977 . S
H229 C199 0.948 . S
H230 C201 0.947 . S
H231 C202 0.948 . S
H232 C208 0.982 . S
H233 C208 0.979 . S
H234 C208 0.977 . S
H235 C209 0.979 . S
H236 C209 0.980 . S
H237 C209 0.983 . S
H238 C182 0.947 . S
C239 C182 1.392 . S
C239 C183 1.419 . S
C239 H221 0.948 . S
C240 C241 1.391 . S
C240 C244 1.391 . S
C240 H282 0.948 . S
C241 C240 1.391 . S
C241 C242 1.391 . S
C242 C241 1.391 . S
C242 H298 0.947 . S
C242 C299 1.392 . S
C243 C244 1.391 . S
C243 C247 1.397 . S
C243 C299 1.419 . S
C244 C240 1.391 . S
C244 C243 1.391 . S
C244 C245 1.399 . S
C245 C244 1.399 . S
C245 C248 1.396 . S
C245 C257 1.453 . S
C245 C258 1.684 . S
H246 C270 0.948 . S
C247 C243 1.397 . S
C247 C248 1.394 . S
C247 C266 1.723 . S
C248 C245 1.396 . S
C248 C247 1.394 . S
C248 C278 1.723 . S
H249 C272 0.947 1_554 S
H250 C273 0.948 . S
H251 C279 0.982 . S
H252 C280 0.979 . S
H253 C280 0.980 . S
H254 C280 0.983 . S
H255 C279 0.979 . S
H256 C279 0.977 . S
C257 C245 1.453 . S
C257 H286 0.982 . S
C257 H287 0.979 . S
C257 H288 0.977 . S
C258 C245 1.684 . S
C258 H283 0.979 . S
C258 H284 0.980 . S
C258 H285 0.983 . S
C259 C260 1.391 . S
C259 C264 1.391 . S
C259 H289 0.948 . S
C260 C259 1.391 . S
C260 C261 1.391 . S
C261 C260 1.391 . S
C261 C262 1.392 . S
C261 H290 0.947 . S
C262 C261 1.392 . S
C262 C263 1.419 . S
C262 H291 0.948 . S
C263 C262 1.419 . S
C263 C264 1.391 . S
C263 C267 1.397 . S
C264 C259 1.391 . S
C264 C263 1.391 . S
C264 C265 1.399 1_556 S
C265 C264 1.399 1_554 S
C265 C266 1.396 . S
C265 C268 1.453 . S
C265 C269 1.684 . S
C266 C247 1.723 . S
C266 C265 1.396 . S
C266 C267 1.394 1_554 S
C267 C263 1.397 . S
C267 C266 1.394 1_556 S
C267 C277 1.723 . S
C268 C265 1.453 . S
C268 H292 0.982 . S
C268 H293 0.979 . S
C268 H294 0.977 . S
C269 C265 1.684 . S
C269 H295 0.979 . S
C269 H296 0.980 . S
C269 H297 0.983 . S
C270 H246 0.948 . S
C270 C271 1.391 . S
C270 C275 1.391 . S
C271 C270 1.391 . S
C271 C272 1.391 . S
C272 H249 0.947 1_556 S
C272 C271 1.391 . S
C272 C273 1.392 1_556 S
C273 H250 0.948 . S
C273 C272 1.392 1_554 S
C273 C274 1.419 1_554 S
C274 C273 1.419 1_556 S
C274 C275 1.391 . S
C274 C278 1.397 1_556 S
C275 C270 1.391 . S
C275 C274 1.391 . S
C275 C276 1.399 . S
C276 C275 1.399 . S
C276 C277 1.396 . S
C276 C279 1.453 . S
C276 C280 1.684 . S
C277 C267 1.723 . S
C277 C276 1.396 . S
C277 C278 1.394 1_556 S
C278 C248 1.723 . S
C278 C274 1.397 1_554 S
C278 C277 1.394 1_554 S
C279 H251 0.982 . S
C279 H255 0.979 . S
C279 H256 0.977 . S
C279 C276 1.453 . S
C280 H252 0.979 . S
C280 H253 0.980 . S
C280 H254 0.983 . S
C280 C276 1.684 . S
H281 C299 0.948 . S
H282 C240 0.948 . S
H283 C258 0.979 . S
H284 C258 0.980 . S
H285 C258 0.983 . S
H286 C257 0.982 . S
H287 C257 0.979 . S
H288 C257 0.977 . S
H289 C259 0.948 . S
H290 C261 0.947 . S
H291 C262 0.948 . S
H292 C268 0.982 . S
H293 C268 0.979 . S
H294 C268 0.977 . S
H295 C269 0.979 . S
H296 C269 0.980 . S
H297 C269 0.983 . S
H298 C242 0.947 . S
C299 C242 1.392 . S
C299 C243 1.419 . S
C299 H281 0.948 . S
C300 C301 1.391 . S
C300 C304 1.391 . S
C300 H342 0.948 . S
C301 C300 1.391 . S
C301 C302 1.391 . S
C302 C301 1.391 . S
C302 H358 0.947 . S
C302 C359 1.392 . S
C303 C304 1.391 . S
C303 C307 1.397 . S
C303 C359 1.419 . S
C304 C300 1.391 . S
C304 C303 1.391 . S
C304 C305 1.399 . S
C305 C304 1.399 . S
C305 C308 1.396 . S
C305 C317 1.453 . S
C305 C318 1.684 . S
H306 C330 0.948 . S
C307 C303 1.397 . S
C307 C308 1.394 . S
C307 C326 1.723 . S
C308 C305 1.396 . S
C308 C307 1.394 . S
C308 C338 1.723 . S
H309 C332 0.947 . S
H310 C333 0.948 . S
H311 C339 0.982 . S
H312 C340 0.979 . S
H313 C340 0.980 . S
H314 C340 0.983 . S
H315 C339 0.979 . S
H316 C339 0.977 . S
C317 C305 1.453 . S
C317 H346 0.982 . S
C317 H347 0.979 . S
C317 H348 0.977 . S
C318 C305 1.684 . S
C318 H343 0.979 . S
C318 H344 0.980 . S
C318 H345 0.983 . S
C319 C320 1.391 . S
C319 C324 1.391 . S
C319 H349 0.948 . S
C320 C319 1.391 . S
C320 C321 1.391 . S
C321 C320 1.391 . S
C321 C322 1.392 . S
C321 H350 0.947 . S
C322 C321 1.392 . S
C322 C323 1.419 . S
C322 H351 0.948 . S
C323 C322 1.419 . S
C323 C324 1.391 . S
C323 C327 1.397 . S
C324 C319 1.391 . S
C324 C323 1.391 . S
C324 C325 1.399 . S
C325 C324 1.399 . S
C325 C326 1.396 . S
C325 C328 1.453 . S
C325 C329 1.684 . S
C326 C307 1.723 . S
C326 C325 1.396 . S
C326 C327 1.394 . S
C327 C323 1.397 . S
C327 C326 1.394 . S
C327 C337 1.723 . S
C328 C325 1.453 . S
C328 H352 0.982 . S
C328 H353 0.979 . S
C328 H354 0.977 . S
C329 C325 1.684 . S
C329 H355 0.979 . S
C329 H356 0.980 . S
C329 H357 0.983 . S
C330 H306 0.948 . S
C330 C331 1.391 . S
C330 C335 1.391 . S
C331 C330 1.391 . S
C331 C332 1.391 . S
C332 H309 0.947 . S
C332 C331 1.391 . S
C332 C333 1.392 . S
C333 H310 0.948 . S
C333 C332 1.392 . S
C333 C334 1.419 . S
C334 C333 1.419 . S
C334 C335 1.391 . S
C334 C338 1.397 . S
C335 C330 1.391 . S
C335 C334 1.391 . S
C335 C336 1.399 . S
C336 C335 1.399 . S
C336 C337 1.396 . S
C336 C339 1.453 . S
C336 C340 1.684 . S
C337 C327 1.723 . S
C337 C336 1.396 . S
C337 C338 1.394 . S
C338 C308 1.723 . S
C338 C334 1.397 . S
C338 C337 1.394 . S
C339 H311 0.982 . S
C339 H315 0.979 . S
C339 H316 0.977 . S
C339 C336 1.453 . S
C340 H312 0.979 . S
C340 H313 0.980 . S
C340 H314 0.983 . S
C340 C336 1.684 . S
H341 C359 0.948 . S
H342 C300 0.948 . S
H343 C318 0.979 . S
H344 C318 0.980 . S
H345 C318 0.983 . S
H346 C317 0.982 . S
H347 C317 0.979 . S
H348 C317 0.977 . S
H349 C319 0.948 . S
H350 C321 0.947 . S
H351 C322 0.948 . S
H352 C328 0.982 . S
H353 C328 0.979 . S
H354 C328 0.977 . S
H355 C329 0.979 . S
H356 C329 0.980 . S
H357 C329 0.983 . S
H358 C302 0.947 . S
C359 C302 1.392 . S
C359 C303 1.419 . S
C359 H341 0.948 . S
C360 C361 1.391 . S
C360 C364 1.391 . S
C360 H402 0.948 . S
C361 C360 1.391 . S
C361 C362 1.391 . S
C362 C361 1.391 . S
C362 H418 0.947 . S
C362 C419 1.392 . S
C363 C364 1.391 . S
C363 C367 1.397 . S
C363 C419 1.419 . S
C364 C360 1.391 . S
C364 C363 1.391 . S
C364 C365 1.399 . S
C365 C364 1.399 . S
C365 C368 1.396 . S
C365 C377 1.453 . S
C365 C378 1.684 . S
H366 C390 0.948 . S
C367 C363 1.397 . S
C367 C368 1.394 . S
C367 C386 1.723 1_556 S
C368 C365 1.396 . S
C368 C367 1.394 . S
C368 C398 1.723 . S
H369 C392 0.947 . S
H370 C393 0.948 . S
H371 C399 0.982 . S
H372 C400 0.979 . S
H373 C400 0.980 . S
H374 C400 0.983 . S
H375 C399 0.979 . S
H376 C399 0.977 . S
C377 C365 1.453 . S
C377 H406 0.982 . S
C377 H407 0.979 . S
C377 H408 0.977 . S
C378 C365 1.684 . S
C378 H403 0.979 . S
C378 H404 0.980 . S
C378 H405 0.983 . S
C379 C380 1.391 . S
C379 C384 1.391 . S
C379 H409 0.948 . S
C380 C379 1.391 . S
C380 C381 1.391 . S
C381 C380 1.391 . S
C381 C382 1.392 . S
C381 H410 0.947 . S
C382 C381 1.392 . S
C382 C383 1.419 . S
C382 H411 0.948 . S
C383 C382 1.419 . S
C383 C384 1.391 . S
C383 C387 1.397 . S
C384 C379 1.391 . S
C384 C383 1.391 . S
C384 C385 1.399 . S
C385 C384 1.399 . S
C385 C386 1.396 . S
C385 C388 1.453 . S
C385 C389 1.684 . S
C386 C367 1.723 1_554 S
C386 C385 1.396 . S
C386 C387 1.394 . S
C387 C383 1.397 . S
C387 C386 1.394 . S
C387 C397 1.723 . S
C388 C385 1.453 . S
C388 H412 0.982 . S
C388 H413 0.979 . S
C388 H414 0.977 . S
C389 C385 1.684 . S
C389 H415 0.979 . S
C389 H416 0.980 . S
C389 H417 0.983 . S
C390 H366 0.948 . S
C390 C391 1.391 . S
C390 C395 1.391 . S
C391 C390 1.391 . S
C391 C392 1.391 . S
C392 H369 0.947 . S
C392 C391 1.391 . S
C392 C393 1.392 . S
C393 H370 0.948 . S
C393 C392 1.392 . S
C393 C394 1.419 . S
C394 C393 1.419 . S
C394 C395 1.391 . S
C394 C398 1.397 . S
C395 C390 1.391 . S
C395 C394 1.391 . S
C395 C396 1.399 1_556 S
C396 C395 1.399 1_554 S
C396 C397 1.396 . S
C396 C399 1.453 . S
C396 C400 1.684 . S
C397 C387 1.723 . S
C397 C396 1.396 . S
C397 C398 1.394 1_554 S
C398 C368 1.723 . S
C398 C394 1.397 . S
C398 C397 1.394 1_556 S
C399 H371 0.982 . S
C399 H375 0.979 . S
C399 H376 0.977 . S
C399 C396 1.453 . S
C400 H372 0.979 . S
C400 H373 0.980 . S
C400 H374 0.983 . S
C400 C396 1.684 . S
H401 C419 0.948 1_554 S
H402 C360 0.948 . S
H403 C378 0.979 . S
H404 C378 0.980 . S
H405 C378 0.983 . S
H406 C377 0.982 . S
H407 C377 0.979 . S
H408 C377 0.977 . S
H409 C379 0.948 . S
H410 C381 0.947 . S
H411 C382 0.948 . S
H412 C388 0.982 . S
H413 C388 0.979 . S
H414 C388 0.977 . S
H415 C389 0.979 . S
H416 C389 0.980 . S
H417 C389 0.983 . S
H418 C362 0.947 . S
C419 C362 1.392 . S
C419 C363 1.419 . S
C419 H401 0.948 1_556 S
C420 C421 1.391 . S
C420 C424 1.391 . S
C420 H462 0.948 . S
C421 C420 1.391 . S
C421 C422 1.391 . S
C422 C421 1.391 . S
C422 H478 0.947 . S
C422 C479 1.392 . S
C423 C424 1.391 . S
C423 C427 1.397 . S
C423 C479 1.419 . S
C424 C420 1.391 . S
C424 C423 1.391 . S
C424 C425 1.399 . S
C425 C424 1.399 . S
C425 C428 1.396 . S
C425 C437 1.453 . S
C425 C438 1.684 . S
H426 C450 0.948 . S
C427 C423 1.397 . S
C427 C428 1.394 . S
C427 C446 1.723 . S
C428 C425 1.396 . S
C428 C427 1.394 . S
C428 C458 1.723 . S
H429 C452 0.947 . S
H430 C453 0.948 . S
H431 C459 0.982 . S
H432 C460 0.979 . S
H433 C460 0.980 . S
H434 C460 0.983 . S
H435 C459 0.979 . S
H436 C459 0.977 . S
C437 C425 1.453 . S
C437 H466 0.982 . S
C437 H467 0.979 . S
C437 H468 0.977 . S
C438 C425 1.684 . S
C438 H463 0.979 . S
C438 H464 0.980 . S
C438 H465 0.983 . S
C439 C440 1.391 . S
C439 C444 1.391 . S
C439 H469 0.948 . S
C440 C439 1.391 . S
C440 C441 1.391 . S
C441 C440 1.391 . S
C441 C442 1.392 . S
C441 H470 0.947 . S
C442 C441 1.392 . S
C442 C443 1.419 . S
C442 H471 0.948 . S
C443 C442 1.419 . S
C443 C444 1.391 . S
C443 C447 1.397 . S
C444 C439 1.391 . S
C444 C443 1.391 . S
C444 C445 1.399 . S
C445 C444 1.399 . S
C445 C446 1.396 . S
C445 C448 1.453 . S
C445 C449 1.684 . S
C446 C427 1.723 . S
C446 C445 1.396 . S
C446 C447 1.394 . S
C447 C443 1.397 . S
C447 C446 1.394 . S
C447 C457 1.723 . S
C448 C445 1.453 . S
C448 H472 0.982 . S
C448 H473 0.979 . S
C448 H474 0.977 . S
C449 C445 1.684 . S
C449 H475 0.979 . S
C449 H476 0.980 . S
C449 H477 0.983 . S
C450 H426 0.948 . S
C450 C451 1.391 . S
C450 C455 1.391 . S
C451 C450 1.391 . S
C451 C452 1.391 . S
C452 H429 0.947 . S
C452 C451 1.391 . S
C452 C453 1.392 . S
C453 H430 0.948 . S
C453 C452 1.392 . S
C453 C454 1.419 . S
C454 C453 1.419 . S
C454 C455 1.391 . S
C454 C458 1.397 . S
C455 C450 1.391 . S
C455 C454 1.391 . S
C455 C456 1.399 . S
C456 C455 1.399 . S
C456 C457 1.396 . S
C456 C459 1.453 . S
C456 C460 1.684 . S
C457 C447 1.723 . S
C457 C456 1.396 . S
C457 C458 1.394 . S
C458 C428 1.723 . S
C458 C454 1.397 . S
C458 C457 1.394 . S
C459 H431 0.982 . S
C459 H435 0.979 . S
C459 H436 0.977 . S
C459 C456 1.453 . S
C460 H432 0.979 . S
C460 H433 0.980 . S
C460 H434 0.983 . S
C460 C456 1.684 . S
H461 C479 0.948 . S
H462 C420 0.948 . S
H463 C438 0.979 . S
H464 C438 0.980 . S
H465 C438 0.983 . S
H466 C437 0.982 . S
H467 C437 0.979 . S
H468 C437 0.977 . S
H469 C439 0.948 . S
H470 C441 0.947 . S
H471 C442 0.948 . S
H472 C448 0.982 . S
H473 C448 0.979 . S
H474 C448 0.977 . S
H475 C449 0.979 . S
H476 C449 0.980 . S
H477 C449 0.983 . S
H478 C422 0.947 . S
C479 C422 1.392 . S
C479 C423 1.419 . S
C479 H461 0.948 . S
Fe480 O482 1.918 . S
Fe480 O485 1.997 1_455 S
Fe480 O486 2.002 1_455 S
Fe480 O491 1.976 . S
Fe480 O494 1.996 . S
Fe481 O482 1.918 . S
Fe481 O489 1.997 1_455 S
Fe481 O492 1.996 . S
Fe481 O496 1.976 . S
Fe481 O499 2.002 1_455 S
O482 Fe480 1.918 . S
O482 Fe481 1.918 . S
O482 Fe483 1.918 . S
Fe483 O482 1.918 . S
Fe483 O484 2.002 1_455 S
Fe483 O493 1.976 . S
Fe483 O497 1.996 . S
Fe483 O500 1.997 1_455 S
O484 Fe483 2.002 1_655 S
O484 C501 1.295 . S
O485 Fe480 1.997 1_655 S
O485 C501 1.235 . S
O486 Fe480 2.002 1_655 S
O486 C487 1.295 . S
C487 O486 1.295 . S
C487 O489 1.235 . S
C488 O493 1.287 . S
C488 O494 1.255 . S
O489 Fe481 1.997 1_655 S
O489 C487 1.235 . S
C490 O496 1.287 . S
C490 O497 1.255 . S
O491 Fe480 1.976 . S
O491 C498 1.287 . S
O492 Fe481 1.996 . S
O492 C498 1.255 . S
O493 Fe483 1.976 . S
O493 C488 1.287 . S
O494 Fe480 1.996 . S
O494 C488 1.255 . S
C495 O499 1.295 . S
C495 O500 1.235 . S
O496 Fe481 1.976 . S
O496 C490 1.287 . S
O497 Fe483 1.996 . S
O497 C490 1.255 . S
C498 O491 1.287 . S
C498 O492 1.255 . S
O499 Fe481 2.002 1_655 S
O499 C495 1.295 . S
O500 Fe483 1.997 1_655 S
O500 C495 1.235 . S
C501 O484 1.295 . S
C501 O485 1.235 . S
Fe502 O504 1.919 . S
Fe502 O507 1.976 1_655 S
Fe502 O508 1.981 1_655 S
Fe502 O513 1.997 . S
Fe502 O516 2.016 . S
Fe503 O504 1.919 . S
Fe503 O511 1.976 1_655 S
Fe503 O514 2.016 . S
Fe503 O518 1.996 . S
Fe503 O521 1.982 1_655 S
O504 Fe502 1.919 . S
O504 Fe503 1.919 . S
O504 Fe505 1.919 . S
Fe505 O504 1.919 . S
Fe505 O506 1.982 1_655 S
Fe505 O515 1.996 . S
Fe505 O519 2.015 . S
Fe505 O522 1.977 1_655 S
O506 Fe505 1.982 1_455 S
O506 C523 1.295 . S
O507 Fe502 1.976 1_455 S
O507 C523 1.235 . S
O508 Fe502 1.981 1_455 S
O508 C509 1.295 . S
C509 O508 1.295 . S
C509 O511 1.235 . S
C510 O515 1.287 . S
C510 O516 1.255 . S
O511 Fe503 1.976 1_455 S
O511 C509 1.235 . S
C512 O518 1.287 . S
C512 O519 1.255 . S
O513 Fe502 1.997 . S
O513 C520 1.287 . S
O514 Fe503 2.016 . S
O514 C520 1.255 . S
O515 Fe505 1.996 . S
O515 C510 1.287 . S
O516 Fe502 2.016 . S
O516 C510 1.255 . S
C517 O521 1.295 . S
C517 O522 1.235 . S
O518 Fe503 1.996 . S
O518 C512 1.287 . S
O519 Fe505 2.015 . S
O519 C512 1.255 . S
C520 O513 1.287 . S
C520 O514 1.255 . S
O521 Fe503 1.982 1_455 S
O521 C517 1.295 . S
O522 Fe505 1.977 1_455 S
O522 C517 1.235 . S
C523 O506 1.295 . S
C523 O507 1.235 . S
Fe524 O526 1.918 . S
Fe524 O529 1.997 . S
Fe524 O530 2.002 . S
Fe524 O535 1.976 . S
Fe524 O538 1.996 . S
Fe525 O526 1.918 . S
Fe525 O533 1.997 . S
Fe525 O536 1.996 . S
Fe525 O540 1.976 . S
Fe525 O543 2.002 . S
O526 Fe524 1.918 . S
O526 Fe525 1.918 . S
O526 Fe527 1.918 . S
Fe527 O526 1.918 . S
Fe527 O528 2.002 . S
Fe527 O537 1.976 . S
Fe527 O541 1.996 . S
Fe527 O544 1.997 . S
O528 Fe527 2.002 . S
O528 C545 1.295 . S
O529 Fe524 1.997 . S
O529 C545 1.235 . S
O530 Fe524 2.002 . S
O530 C531 1.295 . S
C531 O530 1.295 . S
C531 O533 1.235 . S
C532 O537 1.287 . S
C532 O538 1.255 . S
O533 Fe525 1.997 . S
O533 C531 1.235 . S
C534 O540 1.287 . S
C534 O541 1.255 . S
O535 Fe524 1.976 . S
O535 C542 1.287 . S
O536 Fe525 1.996 . S
O536 C542 1.255 . S
O537 Fe527 1.976 . S
O537 C532 1.287 . S
O538 Fe524 1.996 . S
O538 C532 1.255 . S
C539 O543 1.295 . S
C539 O544 1.235 . S
O540 Fe525 1.976 . S
O540 C534 1.287 . S
O541 Fe527 1.996 . S
O541 C534 1.255 . S
C542 O535 1.287 . S
C542 O536 1.255 . S
O543 Fe525 2.002 . S
O543 C539 1.295 . S
O544 Fe527 1.997 . S
O544 C539 1.235 . S
C545 O528 1.295 . S
C545 O529 1.235 . S
Fe546 O548 1.918 . S
Fe546 O551 1.997 . S
Fe546 O552 2.002 . S
Fe546 O557 1.976 . S
Fe546 O560 1.996 . S
Fe547 O548 1.918 . S
Fe547 O555 1.997 . S
Fe547 O558 1.996 . S
Fe547 O562 1.976 . S
Fe547 O565 2.002 . S
O548 Fe546 1.918 . S
O548 Fe547 1.918 . S
O548 Fe549 1.918 . S
Fe549 O548 1.918 . S
Fe549 O550 2.002 . S
Fe549 O559 1.976 . S
Fe549 O563 1.996 . S
Fe549 O566 1.997 . S
O550 Fe549 2.002 . S
O550 C567 1.295 . S
O551 Fe546 1.997 . S
O551 C567 1.235 . S
O552 Fe546 2.002 . S
O552 C553 1.295 . S
C553 O552 1.295 . S
C553 O555 1.235 . S
C554 O559 1.287 . S
C554 O560 1.255 . S
O555 Fe547 1.997 . S
O555 C553 1.235 . S
C556 O562 1.287 . S
C556 O563 1.255 . S
O557 Fe546 1.976 . S
O557 C564 1.287 . S
O558 Fe547 1.996 . S
O558 C564 1.255 . S
O559 Fe549 1.976 . S
O559 C554 1.287 . S
O560 Fe546 1.996 . S
O560 C554 1.255 . S
C561 O565 1.295 . S
C561 O566 1.235 . S
O562 Fe547 1.976 . S
O562 C556 1.287 . S
O563 Fe549 1.996 . S
O563 C556 1.255 . S
C564 O557 1.287 . S
C564 O558 1.255 . S
O565 Fe547 2.002 . S
O565 C561 1.295 . S
O566 Fe549 1.997 . S
O566 C561 1.235 . S
C567 O550 1.295 . S
C567 O551 1.235 . S
C568 C569 1.391 . S
C568 C570 1.394 . S
C568 H584 0.931 . S
C569 C568 1.391 . S
C569 C573 1.376 . S
C570 C568 1.394 . S
C570 C571 1.369 . S
C570 C574 1.531 . S
C571 C570 1.369 . S
C571 C572 1.410 . S
C571 C579 1.503 . S
C572 C571 1.410 . S
C572 C573 1.392 . S
C572 C575 1.511 . S
C573 C569 1.376 . S
C573 C572 1.392 . S
C573 H585 0.929 . S
C574 C570 1.531 . S
C574 H586 0.960 . S
C574 H587 0.962 . S
C574 H588 0.960 . S
C575 C572 1.511 . S
C575 H589 0.961 . S
C575 H590 0.961 . S
C575 H591 0.961 . S
C576 C577 1.370 . S
C576 C578 1.363 . S
C576 H592 0.931 . S
C577 C576 1.370 . S
C577 C581 1.408 . S
C578 C576 1.363 . S
C578 C579 1.370 . S
C578 C582 1.524 . S
C579 C571 1.503 . S
C579 C578 1.370 . S
C579 C580 1.403 . S
C580 C579 1.403 . S
C580 C581 1.404 . S
C580 C583 1.539 . S
C581 C577 1.408 . S
C581 C580 1.404 . S
C581 H593 0.930 . S
C582 C578 1.524 . S
C582 H594 0.956 . S
C582 H595 0.961 . S
C582 H596 0.961 . S
C583 C580 1.539 . S
C583 H597 0.958 . S
C583 H598 0.961 . S
C583 H599 0.960 . S
H584 C568 0.931 . S
H585 C573 0.929 . S
H586 C574 0.960 . S
H587 C574 0.962 . S
H588 C574 0.960 . S
H589 C575 0.961 . S
H590 C575 0.961 . S
H591 C575 0.961 . S
H592 C576 0.931 . S
H593 C581 0.930 . S
H594 C582 0.956 . S
H595 C582 0.961 . S
H596 C582 0.961 . S
H597 C583 0.958 . S
H598 C583 0.961 . S
H599 C583 0.960 . S
C600 C601 1.391 . S
C600 C602 1.394 . S
C600 H616 0.931 . S
C601 C600 1.391 . S
C601 C605 1.376 . S
C602 C600 1.394 . S
C602 C603 1.369 . S
C602 C606 1.531 . S
C603 C602 1.369 . S
C603 C604 1.410 . S
C603 C611 1.503 . S
C604 C603 1.410 . S
C604 C605 1.392 . S
C604 C607 1.511 . S
C605 C601 1.376 . S
C605 C604 1.392 . S
C605 H617 0.929 . S
C606 C602 1.531 . S
C606 H618 0.960 . S
C606 H619 0.962 . S
C606 H620 0.960 . S
C607 C604 1.511 . S
C607 H621 0.961 . S
C607 H622 0.961 . S
C607 H623 0.961 . S
C608 C609 1.370 . S
C608 C610 1.363 . S
C608 H624 0.931 . S
C609 C608 1.370 . S
C609 C613 1.408 . S
C610 C608 1.363 . S
C610 C611 1.370 . S
C610 C614 1.524 . S
C611 C603 1.503 . S
C611 C610 1.370 . S
C611 C612 1.403 . S
C612 C611 1.403 . S
C612 C613 1.404 . S
C612 C615 1.539 . S
C613 C609 1.408 . S
C613 C612 1.404 . S
C613 H625 0.930 . S
C614 C610 1.524 . S
C614 H626 0.956 . S
C614 H627 0.961 . S
C614 H628 0.961 . S
C615 C612 1.539 . S
C615 H629 0.958 . S
C615 H630 0.961 . S
C615 H631 0.960 . S
H616 C600 0.931 . S
H617 C605 0.929 . S
H618 C606 0.960 . S
H619 C606 0.962 . S
H620 C606 0.960 . S
H621 C607 0.961 . S
H622 C607 0.961 . S
H623 C607 0.961 . S
H624 C608 0.931 . S
H625 C613 0.930 . S
H626 C614 0.956 . S
H627 C614 0.961 . S
H628 C614 0.961 . S
H629 C615 0.958 . S
H630 C615 0.961 . S
H631 C615 0.960 . S
C632 C633 1.391 . S
C632 C634 1.394 . S
C632 H648 0.931 . S
C633 C632 1.391 . S
C633 C637 1.376 . S
C634 C632 1.394 . S
C634 C635 1.369 . S
C634 C638 1.531 . S
C635 C634 1.369 . S
C635 C636 1.410 . S
C635 C643 1.503 . S
C636 C635 1.410 . S
C636 C637 1.392 . S
C636 C639 1.511 . S
C637 C633 1.376 . S
C637 C636 1.392 . S
C637 H649 0.929 . S
C638 C634 1.531 . S
C638 H650 0.960 . S
C638 H651 0.962 . S
C638 H652 0.960 . S
C639 C636 1.511 . S
C639 H653 0.961 . S
C639 H654 0.961 . S
C639 H655 0.961 . S
C640 C641 1.370 . S
C640 C642 1.363 . S
C640 H656 0.931 . S
C641 C640 1.370 . S
C641 C645 1.408 . S
C642 C640 1.363 . S
C642 C643 1.370 . S
C642 C646 1.524 . S
C643 C635 1.503 . S
C643 C642 1.370 . S
C643 C644 1.403 . S
C644 C643 1.403 . S
C644 C645 1.404 . S
C644 C647 1.539 . S
C645 C641 1.408 . S
C645 C644 1.404 . S
C645 H657 0.930 . S
C646 C642 1.524 . S
C646 H658 0.956 . S
C646 H659 0.961 . S
C646 H660 0.961 . S
C647 C644 1.539 . S
C647 H661 0.958 . S
C647 H662 0.961 . S
C647 H663 0.960 . S
H648 C632 0.931 . S
H649 C637 0.929 . S
H650 C638 0.960 . S
H651 C638 0.962 . S
H652 C638 0.960 . S
H653 C639 0.961 . S
H654 C639 0.961 . S
H655 C639 0.961 . S
H656 C640 0.931 . S
H657 C645 0.930 . S
H658 C646 0.956 . S
H659 C646 0.961 . S
H660 C646 0.961 . S
H661 C647 0.958 . S
H662 C647 0.961 . S
H663 C647 0.960 . S
C664 C665 1.391 . S
C664 C666 1.394 . S
C664 H680 0.931 . S
C665 C664 1.391 . S
C665 C669 1.376 . S
C666 C664 1.394 . S
C666 C667 1.369 . S
C666 C670 1.531 . S
C667 C666 1.369 . S
C667 C668 1.410 . S
C667 C675 1.503 . S
C668 C667 1.410 . S
C668 C669 1.392 . S
C668 C671 1.511 . S
C669 C665 1.376 . S
C669 C668 1.392 . S
C669 H681 0.929 . S
C670 C666 1.531 . S
C670 H682 0.960 . S
C670 H683 0.962 . S
C670 H684 0.960 . S
C671 C668 1.511 . S
C671 H685 0.961 . S
C671 H686 0.961 . S
C671 H687 0.961 . S
C672 C673 1.370 . S
C672 C674 1.363 . S
C672 H688 0.931 . S
C673 C672 1.370 . S
C673 C677 1.408 . S
C674 C672 1.363 . S
C674 C675 1.370 . S
C674 C678 1.524 . S
C675 C667 1.503 . S
C675 C674 1.370 . S
C675 C676 1.403 . S
C676 C675 1.403 . S
C676 C677 1.404 . S
C676 C679 1.539 . S
C677 C673 1.408 . S
C677 C676 1.404 . S
C677 H689 0.930 . S
C678 C674 1.524 . S
C678 H690 0.956 . S
C678 H691 0.961 . S
C678 H692 0.961 . S
C679 C676 1.539 . S
C679 H693 0.958 . S
C679 H694 0.961 . S
C679 H695 0.960 . S
H680 C664 0.931 . S
H681 C669 0.929 . S
H682 C670 0.960 . S
H683 C670 0.962 . S
H684 C670 0.960 . S
H685 C671 0.961 . S
H686 C671 0.961 . S
H687 C671 0.961 . S
H688 C672 0.931 . S
H689 C677 0.930 . S
H690 C678 0.956 . S
H691 C678 0.961 . S
H692 C678 0.961 . S
H693 C679 0.958 . S
H694 C679 0.961 . S
H695 C679 0.960 . S
C696 C697 1.391 . S
C696 C698 1.394 . S
C696 H712 0.931 . S
C697 C696 1.391 . S
C697 C701 1.376 . S
C698 C696 1.394 . S
C698 C699 1.369 . S
C698 C702 1.531 . S
C699 C698 1.369 . S
C699 C700 1.410 . S
C699 C707 1.503 . S
C700 C699 1.410 . S
C700 C701 1.392 . S
C700 C703 1.511 . S
C701 C697 1.376 . S
C701 C700 1.392 . S
C701 H713 0.929 . S
C702 C698 1.531 . S
C702 H714 0.960 . S
C702 H715 0.962 . S
C702 H716 0.960 . S
C703 C700 1.511 . S
C703 H717 0.961 . S
C703 H718 0.961 . S
C703 H719 0.961 . S
C704 C705 1.370 . S
C704 C706 1.363 . S
C704 H720 0.931 . S
C705 C704 1.370 . S
C705 C709 1.408 . S
C706 C704 1.363 . S
C706 C707 1.370 . S
C706 C710 1.524 . S
C707 C699 1.503 . S
C707 C706 1.370 . S
C707 C708 1.403 . S
C708 C707 1.403 . S
C708 C709 1.404 . S
C708 C711 1.539 . S
C709 C705 1.408 . S
C709 C708 1.404 . S
C709 H721 0.930 . S
C710 C706 1.524 . S
C710 H722 0.956 . S
C710 H723 0.961 . S
C710 H724 0.961 . S
C711 C708 1.539 . S
C711 H725 0.958 . S
C711 H726 0.961 . S
C711 H727 0.960 . S
H712 C696 0.931 . S
H713 C701 0.929 . S
H714 C702 0.960 . S
H715 C702 0.962 . S
H716 C702 0.960 . S
H717 C703 0.961 . S
H718 C703 0.961 . S
H719 C703 0.961 . S
H720 C704 0.931 . S
H721 C709 0.930 . S
H722 C710 0.956 . S
H723 C710 0.961 . S
H724 C710 0.961 . S
H725 C711 0.958 . S
H726 C711 0.961 . S
H727 C711 0.960 . S
C728 C729 1.391 . S
C728 C730 1.394 . S
C728 H744 0.931 . S
C729 C728 1.391 . S
C729 C733 1.376 . S
C730 C728 1.394 . S
C730 C731 1.369 . S
C730 C734 1.531 . S
C731 C730 1.369 . S
C731 C732 1.410 . S
C731 C739 1.503 . S
C732 C731 1.410 . S
C732 C733 1.392 . S
C732 C735 1.511 . S
C733 C729 1.376 . S
C733 C732 1.392 . S
C733 H745 0.929 . S
C734 C730 1.531 . S
C734 H746 0.960 . S
C734 H747 0.962 . S
C734 H748 0.960 . S
C735 C732 1.511 . S
C735 H749 0.961 . S
C735 H750 0.961 . S
C735 H751 0.961 . S
C736 C737 1.370 . S
C736 C738 1.363 . S
C736 H752 0.931 . S
C737 C736 1.370 . S
C737 C741 1.408 . S
C738 C736 1.363 . S
C738 C739 1.370 . S
C738 C742 1.524 . S
C739 C731 1.503 . S
C739 C738 1.370 . S
C739 C740 1.403 . S
C740 C739 1.403 . S
C740 C741 1.404 . S
C740 C743 1.539 . S
C741 C737 1.408 . S
C741 C740 1.404 . S
C741 H753 0.930 . S
C742 C738 1.524 . S
C742 H754 0.956 . S
C742 H755 0.961 . S
C742 H756 0.961 . S
C743 C740 1.539 . S
C743 H757 0.958 . S
C743 H758 0.961 . S
C743 H759 0.960 . S
H744 C728 0.931 . S
H745 C733 0.929 . S
H746 C734 0.960 . S
H747 C734 0.962 . S
H748 C734 0.960 . S
H749 C735 0.961 . S
H750 C735 0.961 . S
H751 C735 0.961 . S
H752 C736 0.931 . S
H753 C741 0.930 . S
H754 C742 0.956 . S
H755 C742 0.961 . S
H756 C742 0.961 . S
H757 C743 0.958 . S
H758 C743 0.961 . S
H759 C743 0.960 . S
C760 C761 1.391 . S
C760 C762 1.394 . S
C760 H776 0.931 . S
C761 C760 1.391 . S
C761 C765 1.376 . S
C762 C760 1.394 . S
C762 C763 1.369 . S
C762 C766 1.531 . S
C763 C762 1.369 . S
C763 C764 1.410 . S
C763 C771 1.503 . S
C764 C763 1.410 . S
C764 C765 1.392 . S
C764 C767 1.511 . S
C765 C761 1.376 . S
C765 C764 1.392 . S
C765 H777 0.929 . S
C766 C762 1.531 . S
C766 H778 0.960 . S
C766 H779 0.962 . S
C766 H780 0.960 . S
C767 C764 1.511 . S
C767 H781 0.961 . S
C767 H782 0.961 . S
C767 H783 0.961 . S
C768 C769 1.370 . S
C768 C770 1.363 . S
C768 H784 0.931 . S
C769 C768 1.370 . S
C769 C773 1.408 . S
C770 C768 1.363 . S
C770 C771 1.370 . S
C770 C774 1.524 . S
C771 C763 1.503 . S
C771 C770 1.370 . S
C771 C772 1.403 . S
C772 C771 1.403 . S
C772 C773 1.404 . S
C772 C775 1.539 . S
C773 C769 1.408 . S
C773 C772 1.404 . S
C773 H785 0.930 . S
C774 C770 1.524 . S
C774 H786 0.956 . S
C774 H787 0.961 . S
C774 H788 0.961 . S
C775 C772 1.539 . S
C775 H789 0.958 . S
C775 H790 0.961 . S
C775 H791 0.960 . S
H776 C760 0.931 . S
H777 C765 0.929 . S
H778 C766 0.960 . S
H779 C766 0.962 . S
H780 C766 0.960 . S
H781 C767 0.961 . S
H782 C767 0.961 . S
H783 C767 0.961 . S
H784 C768 0.931 . S
H785 C773 0.930 . S
H786 C774 0.956 . S
H787 C774 0.961 . S
H788 C774 0.961 . S
H789 C775 0.958 . S
H790 C775 0.961 . S
H791 C775 0.960 . S
C792 C793 1.391 . S
C792 C794 1.394 . S
C792 H808 0.931 . S
C793 C792 1.391 . S
C793 C797 1.376 . S
C794 C792 1.394 . S
C794 C795 1.369 . S
C794 C798 1.531 . S
C795 C794 1.369 . S
C795 C796 1.410 . S
C795 C803 1.503 . S
C796 C795 1.410 . S
C796 C797 1.392 . S
C796 C799 1.511 . S
C797 C793 1.376 . S
C797 C796 1.392 . S
C797 H809 0.929 . S
C798 C794 1.531 . S
C798 H810 0.960 . S
C798 H811 0.962 . S
C798 H812 0.960 . S
C799 C796 1.511 . S
C799 H813 0.961 . S
C799 H814 0.961 . S
C799 H815 0.961 . S
C800 C801 1.370 . S
C800 C802 1.363 . S
C800 H816 0.931 . S
C801 C800 1.370 . S
C801 C805 1.408 . S
C802 C800 1.363 . S
C802 C803 1.370 . S
C802 C806 1.524 . S
C803 C795 1.503 . S
C803 C802 1.370 . S
C803 C804 1.403 . S
C804 C803 1.403 . S
C804 C805 1.404 . S
C804 C807 1.539 . S
C805 C801 1.408 . S
C805 C804 1.404 . S
C805 H817 0.930 . S
C806 C802 1.524 . S
C806 H818 0.956 . S
C806 H819 0.961 . S
C806 H820 0.961 . S
C807 C804 1.539 . S
C807 H821 0.958 . S
C807 H822 0.961 . S
C807 H823 0.960 . S
H808 C792 0.931 . S
H809 C797 0.929 . S
H810 C798 0.960 . S
H811 C798 0.962 . S
H812 C798 0.960 . S
H813 C799 0.961 . S
H814 C799 0.961 . S
H815 C799 0.961 . S
H816 C800 0.931 . S
H817 C805 0.930 . S
H818 C806 0.956 . S
H819 C806 0.961 . S
H820 C806 0.961 . S
H821 C807 0.958 . S
H822 C807 0.961 . S
H823 C807 0.960 . S
C824 C825 1.391 . S
C824 C826 1.394 . S
C824 H840 0.931 . S
C825 C824 1.391 . S
C825 C829 1.376 . S
C826 C824 1.394 . S
C826 C827 1.369 . S
C826 C830 1.531 . S
C827 C826 1.369 . S
C827 C828 1.410 . S
C827 C835 1.503 . S
C828 C827 1.410 . S
C828 C829 1.392 . S
C828 C831 1.511 . S
C829 C825 1.376 . S
C829 C828 1.392 . S
C829 H841 0.929 . S
C830 C826 1.531 . S
C830 H842 0.960 . S
C830 H843 0.962 . S
C830 H844 0.960 . S
C831 C828 1.511 . S
C831 H845 0.961 . S
C831 H846 0.961 . S
C831 H847 0.961 . S
C832 C833 1.370 . S
C832 C834 1.363 . S
C832 H848 0.931 . S
C833 C832 1.370 . S
C833 C837 1.408 . S
C834 C832 1.363 . S
C834 C835 1.370 . S
C834 C838 1.524 . S
C835 C827 1.503 . S
C835 C834 1.370 . S
C835 C836 1.403 . S
C836 C835 1.403 . S
C836 C837 1.404 . S
C836 C839 1.539 . S
C837 C833 1.408 . S
C837 C836 1.404 . S
C837 H849 0.930 . S
C838 C834 1.524 . S
C838 H850 0.956 . S
C838 H851 0.961 . S
C838 H852 0.961 . S
C839 C836 1.539 . S
C839 H853 0.958 . S
C839 H854 0.961 . S
C839 H855 0.960 . S
H840 C824 0.931 . S
H841 C829 0.929 . S
H842 C830 0.960 . S
H843 C830 0.962 . S
H844 C830 0.960 . S
H845 C831 0.961 . S
H846 C831 0.961 . S
H847 C831 0.961 . S
H848 C832 0.931 . S
H849 C837 0.930 . S
H850 C838 0.956 . S
H851 C838 0.961 . S
H852 C838 0.961 . S
H853 C839 0.958 . S
H854 C839 0.961 . S
H855 C839 0.960 . S
C856 C857 1.391 . S
C856 C858 1.394 . S
C856 H872 0.931 . S
C857 C856 1.391 . S
C857 C861 1.376 . S
C858 C856 1.394 . S
C858 C859 1.369 . S
C858 C862 1.531 . S
C859 C858 1.369 . S
C859 C860 1.410 . S
C859 C867 1.503 . S
C860 C859 1.410 . S
C860 C861 1.392 . S
C860 C863 1.511 . S
C861 C857 1.376 . S
C861 C860 1.392 . S
C861 H873 0.929 . S
C862 C858 1.531 . S
C862 H874 0.960 . S
C862 H875 0.962 . S
C862 H876 0.960 . S
C863 C860 1.511 . S
C863 H877 0.961 . S
C863 H878 0.961 . S
C863 H879 0.961 . S
C864 C865 1.370 . S
C864 C866 1.363 . S
C864 H880 0.931 . S
C865 C864 1.370 . S
C865 C869 1.408 . S
C866 C864 1.363 . S
C866 C867 1.370 . S
C866 C870 1.524 . S
C867 C859 1.503 . S
C867 C866 1.370 . S
C867 C868 1.403 . S
C868 C867 1.403 . S
C868 C869 1.404 . S
C868 C871 1.539 . S
C869 C865 1.408 . S
C869 C868 1.404 . S
C869 H881 0.930 . S
C870 C866 1.524 . S
C870 H882 0.956 . S
C870 H883 0.961 . S
C870 H884 0.961 . S
C871 C868 1.539 . S
C871 H885 0.958 . S
C871 H886 0.961 . S
C871 H887 0.960 . S
H872 C856 0.931 . S
H873 C861 0.929 . S
H874 C862 0.960 . S
H875 C862 0.962 . S
H876 C862 0.960 . S
H877 C863 0.961 . S
H878 C863 0.961 . S
H879 C863 0.961 . S
H880 C864 0.931 . S
H881 C869 0.930 . S
H882 C870 0.956 . S
H883 C870 0.961 . S
H884 C870 0.961 . S
H885 C871 0.958 . S
H886 C871 0.961 . S
H887 C871 0.960 . S
C888 C889 1.391 . S
C888 C890 1.394 . S
C888 H904 0.931 . S
C889 C888 1.391 . S
C889 C893 1.376 . S
C890 C888 1.394 . S
C890 C891 1.369 . S
C890 C894 1.531 . S
C891 C890 1.369 . S
C891 C892 1.410 . S
C891 C899 1.503 . S
C892 C891 1.410 . S
C892 C893 1.392 . S
C892 C895 1.511 . S
C893 C889 1.376 . S
C893 C892 1.392 . S
C893 H905 0.929 . S
C894 C890 1.531 . S
C894 H906 0.960 . S
C894 H907 0.962 . S
C894 H908 0.960 . S
C895 C892 1.511 . S
C895 H909 0.961 . S
C895 H910 0.961 . S
C895 H911 0.961 . S
C896 C897 1.370 . S
C896 C898 1.363 . S
C896 H912 0.931 . S
C897 C896 1.370 . S
C897 C901 1.408 . S
C898 C896 1.363 . S
C898 C899 1.370 . S
C898 C902 1.524 . S
C899 C891 1.503 . S
C899 C898 1.370 . S
C899 C900 1.403 . S
C900 C899 1.403 . S
C900 C901 1.404 . S
C900 C903 1.539 . S
C901 C897 1.408 . S
C901 C900 1.404 . S
C901 H913 0.930 . S
C902 C898 1.524 . S
C902 H914 0.956 . S
C902 H915 0.961 . S
C902 H916 0.961 . S
C903 C900 1.539 . S
C903 H917 0.958 . S
C903 H918 0.961 . S
C903 H919 0.960 . S
H904 C888 0.931 . S
H905 C893 0.929 . S
H906 C894 0.960 . S
H907 C894 0.962 . S
H908 C894 0.960 . S
H909 C895 0.961 . S
H910 C895 0.961 . S
H911 C895 0.961 . S
H912 C896 0.931 . S
H913 C901 0.930 . S
H914 C902 0.956 . S
H915 C902 0.961 . S
H916 C902 0.961 . S
H917 C903 0.958 . S
H918 C903 0.961 . S
H919 C903 0.960 . S
C920 C921 1.391 . S
C920 C922 1.394 . S
C920 H936 0.931 . S
C921 C920 1.391 . S
C921 C925 1.376 . S
C922 C920 1.394 . S
C922 C923 1.369 . S
C922 C926 1.531 . S
C923 C922 1.369 . S
C923 C924 1.410 . S
C923 C931 1.503 . S
C924 C923 1.410 . S
C924 C925 1.392 . S
C924 C927 1.511 . S
C925 C921 1.376 . S
C925 C924 1.392 . S
C925 H937 0.929 . S
C926 C922 1.531 . S
C926 H938 0.960 . S
C926 H939 0.962 . S
C926 H940 0.960 . S
C927 C924 1.511 . S
C927 H941 0.961 . S
C927 H942 0.961 . S
C927 H943 0.961 . S
C928 C929 1.370 . S
C928 C930 1.363 . S
C928 H944 0.931 . S
C929 C928 1.370 . S
C929 C933 1.408 . S
C930 C928 1.363 . S
C930 C931 1.370 . S
C930 C934 1.524 . S
C931 C923 1.503 . S
C931 C930 1.370 . S
C931 C932 1.403 . S
C932 C931 1.403 . S
C932 C933 1.404 . S
C932 C935 1.539 . S
C933 C929 1.408 . S
C933 C932 1.404 . S
C933 H945 0.930 . S
C934 C930 1.524 . S
C934 H946 0.956 . S
C934 H947 0.961 . S
C934 H948 0.961 . S
C935 C932 1.539 . S
C935 H949 0.958 . S
C935 H950 0.961 . S
C935 H951 0.960 . S
H936 C920 0.931 . S
H937 C925 0.929 . S
H938 C926 0.960 . S
H939 C926 0.962 . S
H940 C926 0.960 . S
H941 C927 0.961 . S
H942 C927 0.961 . S
H943 C927 0.961 . S
H944 C928 0.931 . S
H945 C933 0.930 . S
H946 C934 0.956 . S
H947 C934 0.961 . S
H948 C934 0.961 . S
H949 C935 0.958 . S
H950 C935 0.961 . S
H951 C935 0.960 . S
C952 C953 1.391 . S
C952 C954 1.394 . S
C952 H968 0.931 . S
C953 C952 1.391 . S
C953 C957 1.376 1_545 S
C954 C952 1.394 . S
C954 C955 1.369 . S
C954 C958 1.531 . S
C955 C954 1.369 . S
C955 C956 1.410 . S
C955 C963 1.503 . S
C956 C955 1.410 . S
C956 C957 1.392 1_545 S
C956 C959 1.511 . S
C957 C953 1.376 1_565 S
C957 C956 1.392 1_565 S
C957 H969 0.929 . S
C958 C954 1.531 . S
C958 H970 0.960 . S
C958 H971 0.962 . S
C958 H972 0.960 . S
C959 C956 1.511 . S
C959 H973 0.961 1_545 S
C959 H974 0.961 . S
C959 H975 0.961 . S
C960 C961 1.370 . S
C960 C962 1.363 . S
C960 H976 0.931 . S
C961 C960 1.370 . S
C961 C965 1.408 . S
C962 C960 1.363 . S
C962 C963 1.370 . S
C962 C966 1.524 . S
C963 C955 1.503 . S
C963 C962 1.370 . S
C963 C964 1.403 . S
C964 C963 1.403 . S
C964 C965 1.404 . S
C964 C967 1.539 . S
C965 C961 1.408 . S
C965 C964 1.404 . S
C965 H977 0.930 . S
C966 C962 1.524 . S
C966 H978 0.956 . S
C966 H979 0.961 . S
C966 H980 0.961 . S
C967 C964 1.539 . S
C967 H981 0.958 . S
C967 H982 0.961 . S
C967 H983 0.960 . S
H968 C952 0.931 . S
H969 C957 0.929 . S
H970 C958 0.960 . S
H971 C958 0.962 . S
H972 C958 0.960 . S
H973 C959 0.961 1_565 S
H974 C959 0.961 . S
H975 C959 0.961 . S
H976 C960 0.931 . S
H977 C965 0.930 . S
H978 C966 0.956 . S
H979 C966 0.961 . S
H980 C966 0.961 . S
H981 C967 0.958 . S
H982 C967 0.961 . S
H983 C967 0.960 . S
C984 C985 1.385 1_545 S
C984 C986 1.376 1_545 S
C984 H1000 0.954 . S
C985 C984 1.385 1_565 S
C985 C989 1.376 . S
C986 C984 1.376 1_565 S
C986 C987 1.369 . S
C986 C990 1.531 . S
C987 C986 1.369 . S
C987 C988 1.410 . S
C987 C995 1.503 . S
C988 C987 1.410 . S
C988 C989 1.392 . S
C988 C991 1.511 . S
C989 C985 1.376 . S
C989 C988 1.392 . S
C989 H1001 0.929 . S
C990 C986 1.531 . S
C990 H1002 0.960 . S
C990 H1003 0.962 . S
C990 H1004 0.932 1_565 S
C991 C988 1.511 . S
C991 H1005 0.961 . S
C991 H1006 0.961 . S
C991 H1007 0.961 . S
C992 C993 1.370 . S
C992 C994 1.363 . S
C992 H1008 0.931 . S
C993 C992 1.370 . S
C993 C997 1.408 . S
C994 C992 1.363 . S
C994 C995 1.370 . S
C994 C998 1.524 . S
C995 C987 1.503 . S
C995 C994 1.370 . S
C995 C996 1.403 . S
C996 C995 1.403 . S
C996 C997 1.404 . S
C996 C999 1.539 . S
C997 C993 1.408 . S
C997 C996 1.404 . S
C997 H1009 0.930 . S
C998 C994 1.524 . S
C998 H1010 0.956 . S
C998 H1011 0.961 . S
C998 H1012 0.961 . S
C999 C996 1.539 . S
C999 H1013 0.958 . S
C999 H1014 0.961 . S
C999 H1015 0.960 . S
H1000 C984 0.954 . S
H1001 C989 0.929 . S
H1002 C990 0.960 . S
H1003 C990 0.962 . S
H1004 C990 0.932 1_545 S
H1005 C991 0.961 . S
H1006 C991 0.961 . S
H1007 C991 0.961 . S
H1008 C992 0.931 . S
H1009 C997 0.930 . S
H1010 C998 0.956 . S
H1011 C998 0.961 . S
H1012 C998 0.961 . S
H1013 C999 0.958 . S
H1014 C999 0.961 . S
H1015 C999 0.960 . S
C1016 C1017 1.391 . S
C1016 C1018 1.394 . S
C1016 H1032 0.931 . S
C1017 C1016 1.391 . S
C1017 C1021 1.376 . S
C1018 C1016 1.394 . S
C1018 C1019 1.369 . S
C1018 C1022 1.531 . S
C1019 C1018 1.369 . S
C1019 C1020 1.410 . S
C1019 C1027 1.503 . S
C1020 C1019 1.410 . S
C1020 C1021 1.392 . S
C1020 C1023 1.511 . S
C1021 C1017 1.376 . S
C1021 C1020 1.392 . S
C1021 H1033 0.929 . S
C1022 C1018 1.531 . S
C1022 H1034 0.960 . S
C1022 H1035 0.962 . S
C1022 H1036 0.960 . S
C1023 C1020 1.511 . S
C1023 H1037 0.961 . S
C1023 H1038 0.961 . S
C1023 H1039 0.961 . S
C1024 C1025 1.370 . S
C1024 C1026 1.363 . S
C1024 H1040 0.931 . S
C1025 C1024 1.370 . S
C1025 C1029 1.408 . S
C1026 C1024 1.363 . S
C1026 C1027 1.370 . S
C1026 C1030 1.524 . S
C1027 C1019 1.503 . S
C1027 C1026 1.370 . S
C1027 C1028 1.403 . S
C1028 C1027 1.403 . S
C1028 C1029 1.404 . S
C1028 C1031 1.539 . S
C1029 C1025 1.408 . S
C1029 C1028 1.404 . S
C1029 H1041 0.930 . S
C1030 C1026 1.524 . S
C1030 H1042 0.956 . S
C1030 H1043 0.961 . S
C1030 H1044 0.961 . S
C1031 C1028 1.539 . S
C1031 H1045 0.958 . S
C1031 H1046 0.961 . S
C1031 H1047 0.960 . S
H1032 C1016 0.931 . S
H1033 C1021 0.929 . S
H1034 C1022 0.960 . S
H1035 C1022 0.962 . S
H1036 C1022 0.960 . S
H1037 C1023 0.961 . S
H1038 C1023 0.961 . S
H1039 C1023 0.961 . S
H1040 C1024 0.931 . S
H1041 C1029 0.930 . S
H1042 C1030 0.956 . S
H1043 C1030 0.961 . S
H1044 C1030 0.961 . S
H1045 C1031 0.958 . S
H1046 C1031 0.961 . S
H1047 C1031 0.960 . S
C1048 C1049 1.391 . S
C1048 C1050 1.394 . S
C1048 H1064 0.931 1_565 S
C1049 C1048 1.391 . S
C1049 C1053 1.376 . S
C1050 C1048 1.394 . S
C1050 C1051 1.369 . S
C1050 C1054 1.531 . S
C1051 C1050 1.369 . S
C1051 C1052 1.410 . S
C1051 C1059 1.503 . S
C1052 C1051 1.410 . S
C1052 C1053 1.392 . S
C1052 C1055 1.511 . S
C1053 C1049 1.376 . S
C1053 C1052 1.392 . S
C1053 H1065 0.929 . S
C1054 C1050 1.531 . S
C1054 H1066 0.960 . S
C1054 H1067 0.962 . S
C1054 H1068 0.960 . S
C1055 C1052 1.511 . S
C1055 H1069 0.961 . S
C1055 H1070 0.961 . S
C1055 H1071 0.961 . S
C1056 C1057 1.370 . S
C1056 C1058 1.363 . S
C1056 H1072 0.931 . S
C1057 C1056 1.370 . S
C1057 C1061 1.408 . S
C1058 C1056 1.363 . S
C1058 C1059 1.370 . S
C1058 C1062 1.524 . S
C1059 C1051 1.503 . S
C1059 C1058 1.370 . S
C1059 C1060 1.403 . S
C1060 C1059 1.403 . S
C1060 C1061 1.404 . S
C1060 C1063 1.539 . S
C1061 C1057 1.408 . S
C1061 C1060 1.404 . S
C1061 H1073 0.930 . S
C1062 C1058 1.524 . S
C1062 H1074 0.956 . S
C1062 H1075 0.961 . S
C1062 H1076 0.961 . S
C1063 C1060 1.539 . S
C1063 H1077 0.958 . S
C1063 H1078 0.961 . S
C1063 H1079 0.960 . S
H1064 C1048 0.931 1_545 S
H1065 C1053 0.929 . S
H1066 C1054 0.960 . S
H1067 C1054 0.962 . S
H1068 C1054 0.960 . S
H1069 C1055 0.961 . S
H1070 C1055 0.961 . S
H1071 C1055 0.961 . S
H1072 C1056 0.931 . S
H1073 C1061 0.930 . S
H1074 C1062 0.956 . S
H1075 C1062 0.961 . S
H1076 C1062 0.961 . S
H1077 C1063 0.958 . S
H1078 C1063 0.961 . S
H1079 C1063 0.960 . S
C1080 C1081 1.391 . S
C1080 C1082 1.394 . S
C1080 H1096 0.931 . S
C1081 C1080 1.391 . S
C1081 C1085 1.376 . S
C1082 C1080 1.394 . S
C1082 C1083 1.369 . S
C1082 C1086 1.531 . S
C1083 C1082 1.369 . S
C1083 C1084 1.410 . S
C1083 C1091 1.503 . S
C1084 C1083 1.410 . S
C1084 C1085 1.392 . S
C1084 C1087 1.511 . S
C1085 C1081 1.376 . S
C1085 C1084 1.392 . S
C1085 H1097 0.929 . S
C1086 C1082 1.531 . S
C1086 H1098 0.960 . S
C1086 H1099 0.962 . S
C1086 H1100 0.960 . S
C1087 C1084 1.511 . S
C1087 H1101 0.961 . S
C1087 H1102 0.961 . S
C1087 H1103 0.961 . S
C1088 C1089 1.370 . S
C1088 C1090 1.363 . S
C1088 H1104 0.931 . S
C1089 C1088 1.370 . S
C1089 C1093 1.408 . S
C1090 C1088 1.363 . S
C1090 C1091 1.370 . S
C1090 C1094 1.524 . S
C1091 C1083 1.503 . S
C1091 C1090 1.370 . S
C1091 C1092 1.403 . S
C1092 C1091 1.403 . S
C1092 C1093 1.404 . S
C1092 C1095 1.539 . S
C1093 C1089 1.408 . S
C1093 C1092 1.404 . S
C1093 H1105 0.930 . S
C1094 C1090 1.524 . S
C1094 H1106 0.956 . S
C1094 H1107 0.961 . S
C1094 H1108 0.961 . S
C1095 C1092 1.539 . S
C1095 H1109 0.958 . S
C1095 H1110 0.961 . S
C1095 H1111 0.960 . S
H1096 C1080 0.931 . S
H1097 C1085 0.929 . S
H1098 C1086 0.960 . S
H1099 C1086 0.962 . S
H1100 C1086 0.960 . S
H1101 C1087 0.961 . S
H1102 C1087 0.961 . S
H1103 C1087 0.961 . S
H1104 C1088 0.931 . S
H1105 C1093 0.930 . S
H1106 C1094 0.956 . S
H1107 C1094 0.961 . S
H1108 C1094 0.961 . S
H1109 C1095 0.958 . S
H1110 C1095 0.961 . S
H1111 C1095 0.960 . S
C1112 C1113 1.391 . S
C1112 C1114 1.394 . S
C1112 H1128 0.931 . S
C1113 C1112 1.391 . S
C1113 C1117 1.376 . S
C1114 C1112 1.394 . S
C1114 C1115 1.369 . S
C1114 C1118 1.531 . S
C1115 C1114 1.369 . S
C1115 C1116 1.410 . S
C1115 C1123 1.503 . S
C1116 C1115 1.410 . S
C1116 C1117 1.392 . S
C1116 C1119 1.511 . S
C1117 C1113 1.376 . S
C1117 C1116 1.392 . S
C1117 H1129 0.929 . S
C1118 C1114 1.531 . S
C1118 H1130 0.960 . S
C1118 H1131 0.962 . S
C1118 H1132 0.960 . S
C1119 C1116 1.511 . S
C1119 H1133 0.961 . S
C1119 H1134 0.961 . S
C1119 H1135 0.961 . S
C1120 C1121 1.370 . S
C1120 C1122 1.363 . S
C1120 H1136 0.931 . S
C1121 C1120 1.370 . S
C1121 C1125 1.408 . S
C1122 C1120 1.363 . S
C1122 C1123 1.370 . S
C1122 C1126 1.524 . S
C1123 C1115 1.503 . S
C1123 C1122 1.370 . S
C1123 C1124 1.403 . S
C1124 C1123 1.403 . S
C1124 C1125 1.404 . S
C1124 C1127 1.539 . S
C1125 C1121 1.408 . S
C1125 C1124 1.404 . S
C1125 H1137 0.930 . S
C1126 C1122 1.524 . S
C1126 H1138 0.956 . S
C1126 H1139 0.961 . S
C1126 H1140 0.961 . S
C1127 C1124 1.539 . S
C1127 H1141 0.958 . S
C1127 H1142 0.961 . S
C1127 H1143 0.960 . S
H1128 C1112 0.931 . S
H1129 C1117 0.929 . S
H1130 C1118 0.960 . S
H1131 C1118 0.962 . S
H1132 C1118 0.960 . S
H1133 C1119 0.961 . S
H1134 C1119 0.961 . S
H1135 C1119 0.961 . S
H1136 C1120 0.931 . S
H1137 C1125 0.930 . S
H1138 C1126 0.956 . S
H1139 C1126 0.961 . S
H1140 C1126 0.961 . S
H1141 C1127 0.958 . S
H1142 C1127 0.961 . S
H1143 C1127 0.960 . S
C1144 C1145 1.391 . S
C1144 C1146 1.394 . S
C1144 H1160 0.931 . S
C1145 C1144 1.391 . S
C1145 C1149 1.376 . S
C1146 C1144 1.394 . S
C1146 C1147 1.369 . S
C1146 C1150 1.531 . S
C1147 C1146 1.369 . S
C1147 C1148 1.410 . S
C1147 C1155 1.503 . S
C1148 C1147 1.410 . S
C1148 C1149 1.392 . S
C1148 C1151 1.511 . S
C1149 C1145 1.376 . S
C1149 C1148 1.392 . S
C1149 H1161 0.929 . S
C1150 C1146 1.531 . S
C1150 H1162 0.960 . S
C1150 H1163 0.962 . S
C1150 H1164 0.960 . S
C1151 C1148 1.511 . S
C1151 H1165 0.961 . S
C1151 H1166 0.961 . S
C1151 H1167 0.961 . S
C1152 C1153 1.370 . S
C1152 C1154 1.363 . S
C1152 H1168 0.931 . S
C1153 C1152 1.370 . S
C1153 C1157 1.408 . S
C1154 C1152 1.363 . S
C1154 C1155 1.370 . S
C1154 C1158 1.524 . S
C1155 C1147 1.503 . S
C1155 C1154 1.370 . S
C1155 C1156 1.403 . S
C1156 C1155 1.403 . S
C1156 C1157 1.404 . S
C1156 C1159 1.539 . S
C1157 C1153 1.408 . S
C1157 C1156 1.404 . S
C1157 H1169 0.930 . S
C1158 C1154 1.524 . S
C1158 H1170 0.956 . S
C1158 H1171 0.961 . S
C1158 H1172 0.961 . S
C1159 C1156 1.539 . S
C1159 H1173 0.958 . S
C1159 H1174 0.961 . S
C1159 H1175 0.960 . S
H1160 C1144 0.931 . S
H1161 C1149 0.929 . S
H1162 C1150 0.960 . S
H1163 C1150 0.962 . S
H1164 C1150 0.960 . S
H1165 C1151 0.961 . S
H1166 C1151 0.961 . S
H1167 C1151 0.961 . S
H1168 C1152 0.931 . S
H1169 C1157 0.930 . S
H1170 C1158 0.956 . S
H1171 C1158 0.961 . S
H1172 C1158 0.961 . S
H1173 C1159 0.958 . S
H1174 C1159 0.961 . S
H1175 C1159 0.960 . S
C1176 C1177 1.391 . S
C1176 C1178 1.394 . S
C1176 H1192 0.931 . S
C1177 C1176 1.391 . S
C1177 C1181 1.376 . S
C1178 C1176 1.394 . S
C1178 C1179 1.369 . S
C1178 C1182 1.531 . S
C1179 C1178 1.369 . S
C1179 C1180 1.410 . S
C1179 C1187 1.503 . S
C1180 C1179 1.410 . S
C1180 C1181 1.392 . S
C1180 C1183 1.511 . S
C1181 C1177 1.376 . S
C1181 C1180 1.392 . S
C1181 H1193 0.929 . S
C1182 C1178 1.531 . S
C1182 H1194 0.960 . S
C1182 H1195 0.962 . S
C1182 H1196 0.960 . S
C1183 C1180 1.511 . S
C1183 H1197 0.961 . S
C1183 H1198 0.961 . S
C1183 H1199 0.961 . S
C1184 C1185 1.370 . S
C1184 C1186 1.363 . S
C1184 H1200 0.931 . S
C1185 C1184 1.370 . S
C1185 C1189 1.408 . S
C1186 C1184 1.363 . S
C1186 C1187 1.370 . S
C1186 C1190 1.524 . S
C1187 C1179 1.503 . S
C1187 C1186 1.370 . S
C1187 C1188 1.403 . S
C1188 C1187 1.403 . S
C1188 C1189 1.404 . S
C1188 C1191 1.539 . S
C1189 C1185 1.408 . S
C1189 C1188 1.404 . S
C1189 H1201 0.930 . S
C1190 C1186 1.524 . S
C1190 H1202 0.956 . S
C1190 H1203 0.961 . S
C1190 H1204 0.961 . S
C1191 C1188 1.539 . S
C1191 H1205 0.958 . S
C1191 H1206 0.961 . S
C1191 H1207 0.960 . S
H1192 C1176 0.931 . S
H1193 C1181 0.929 . S
H1194 C1182 0.960 . S
H1195 C1182 0.962 . S
H1196 C1182 0.960 . S
H1197 C1183 0.961 . S
H1198 C1183 0.961 . S
H1199 C1183 0.961 . S
H1200 C1184 0.931 . S
H1201 C1189 0.930 . S
H1202 C1190 0.956 . S
H1203 C1190 0.961 . S
H1204 C1190 0.961 . S
H1205 C1191 0.958 . S
H1206 C1191 0.961 . S
H1207 C1191 0.960 . S
C1208 C1209 1.391 . S
C1208 C1210 1.394 . S
C1208 H1224 0.931 . S
C1209 C1208 1.391 . S
C1209 C1213 1.376 . S
C1210 C1208 1.394 . S
C1210 C1211 1.369 . S
C1210 C1214 1.531 . S
C1211 C1210 1.369 . S
C1211 C1212 1.410 . S
C1211 C1219 1.503 . S
C1212 C1211 1.410 . S
C1212 C1213 1.392 . S
C1212 C1215 1.511 . S
C1213 C1209 1.376 . S
C1213 C1212 1.392 . S
C1213 H1225 0.929 . S
C1214 C1210 1.531 . S
C1214 H1226 0.960 . S
C1214 H1227 0.962 . S
C1214 H1228 0.960 . S
C1215 C1212 1.511 . S
C1215 H1229 0.961 . S
C1215 H1230 0.961 . S
C1215 H1231 0.961 . S
C1216 C1217 1.370 . S
C1216 C1218 1.363 . S
C1216 H1232 0.931 . S
C1217 C1216 1.370 . S
C1217 C1221 1.408 . S
C1218 C1216 1.363 . S
C1218 C1219 1.370 . S
C1218 C1222 1.524 . S
C1219 C1211 1.503 . S
C1219 C1218 1.370 . S
C1219 C1220 1.403 . S
C1220 C1219 1.403 . S
C1220 C1221 1.404 . S
C1220 C1223 1.539 . S
C1221 C1217 1.408 . S
C1221 C1220 1.404 . S
C1221 H1233 0.930 . S
C1222 C1218 1.524 . S
C1222 H1234 0.956 . S
C1222 H1235 0.961 . S
C1222 H1236 0.961 . S
C1223 C1220 1.539 . S
C1223 H1237 0.958 . S
C1223 H1238 0.961 . S
C1223 H1239 0.960 . S
H1224 C1208 0.931 . S
H1225 C1213 0.929 . S
H1226 C1214 0.960 . S
H1227 C1214 0.962 . S
H1228 C1214 0.960 . S
H1229 C1215 0.961 . S
H1230 C1215 0.961 . S
H1231 C1215 0.961 . S
H1232 C1216 0.931 . S
H1233 C1221 0.930 . S
H1234 C1222 0.956 . S
H1235 C1222 0.961 . S
H1236 C1222 0.961 . S
H1237 C1223 0.958 . S
H1238 C1223 0.961 . S
H1239 C1223 0.960 . S
C1240 C1241 1.391 . S
C1240 C1242 1.394 . S
C1240 H1256 0.931 . S
C1241 C1240 1.391 . S
C1241 C1245 1.376 . S
C1242 C1240 1.394 . S
C1242 C1243 1.369 . S
C1242 C1246 1.531 . S
C1243 C1242 1.369 . S
C1243 C1244 1.410 . S
C1243 C1251 1.503 . S
C1244 C1243 1.410 . S
C1244 C1245 1.392 . S
C1244 C1247 1.511 . S
C1245 C1241 1.376 . S
C1245 C1244 1.392 . S
C1245 H1257 0.929 . S
C1246 C1242 1.531 . S
C1246 H1258 0.960 . S
C1246 H1259 0.962 . S
C1246 H1260 0.960 . S
C1247 C1244 1.511 . S
C1247 H1261 0.961 . S
C1247 H1262 0.961 . S
C1247 H1263 0.961 . S
C1248 C1249 1.370 . S
C1248 C1250 1.363 . S
C1248 H1264 0.931 . S
C1249 C1248 1.370 . S
C1249 C1253 1.408 . S
C1250 C1248 1.363 . S
C1250 C1251 1.370 . S
C1250 C1254 1.524 . S
C1251 C1243 1.503 . S
C1251 C1250 1.370 . S
C1251 C1252 1.403 . S
C1252 C1251 1.403 . S
C1252 C1253 1.404 . S
C1252 C1255 1.539 . S
C1253 C1249 1.408 . S
C1253 C1252 1.404 . S
C1253 H1265 0.930 . S
C1254 C1250 1.524 . S
C1254 H1266 0.956 . S
C1254 H1267 0.961 . S
C1254 H1268 0.961 . S
C1255 C1252 1.539 . S
C1255 H1269 0.958 . S
C1255 H1270 0.961 . S
C1255 H1271 0.960 . S
H1256 C1240 0.931 . S
H1257 C1245 0.929 . S
H1258 C1246 0.960 . S
H1259 C1246 0.962 . S
H1260 C1246 0.960 . S
H1261 C1247 0.961 . S
H1262 C1247 0.961 . S
H1263 C1247 0.961 . S
H1264 C1248 0.931 . S
H1265 C1253 0.930 . S
H1266 C1254 0.956 . S
H1267 C1254 0.961 . S
H1268 C1254 0.961 . S
H1269 C1255 0.958 . S
H1270 C1255 0.961 . S
H1271 C1255 0.960 . S
C1272 C1273 1.391 . S
C1272 C1274 1.394 . S
C1272 H1288 0.931 . S
C1273 C1272 1.391 . S
C1273 C1277 1.376 . S
C1274 C1272 1.394 . S
C1274 C1275 1.369 . S
C1274 C1278 1.531 . S
C1275 C1274 1.369 . S
C1275 C1276 1.410 . S
C1275 C1283 1.503 . S
C1276 C1275 1.410 . S
C1276 C1277 1.392 . S
C1276 C1279 1.511 . S
C1277 C1273 1.376 . S
C1277 C1276 1.392 . S
C1277 H1289 0.929 . S
C1278 C1274 1.531 . S
C1278 H1290 0.960 . S
C1278 H1291 0.962 . S
C1278 H1292 0.960 . S
C1279 C1276 1.511 . S
C1279 H1293 0.961 . S
C1279 H1294 0.961 . S
C1279 H1295 0.961 . S
C1280 C1281 1.370 . S
C1280 C1282 1.363 . S
C1280 H1296 0.931 . S
C1281 C1280 1.370 . S
C1281 C1285 1.408 . S
C1282 C1280 1.363 . S
C1282 C1283 1.370 . S
C1282 C1286 1.524 . S
C1283 C1275 1.503 . S
C1283 C1282 1.370 . S
C1283 C1284 1.403 . S
C1284 C1283 1.403 . S
C1284 C1285 1.404 . S
C1284 C1287 1.539 . S
C1285 C1281 1.408 . S
C1285 C1284 1.404 . S
C1285 H1297 0.930 . S
C1286 C1282 1.524 . S
C1286 H1298 0.956 . S
C1286 H1299 0.961 . S
C1286 H1300 0.961 . S
C1287 C1284 1.539 . S
C1287 H1301 0.958 . S
C1287 H1302 0.961 . S
C1287 H1303 0.960 . S
H1288 C1272 0.931 . S
H1289 C1277 0.929 . S
H1290 C1278 0.960 . S
H1291 C1278 0.962 . S
H1292 C1278 0.960 . S
H1293 C1279 0.961 . S
H1294 C1279 0.961 . S
H1295 C1279 0.961 . S
H1296 C1280 0.931 . S
H1297 C1285 0.930 . S
H1298 C1286 0.956 . S
H1299 C1286 0.961 . S
H1300 C1286 0.961 . S
H1301 C1287 0.958 . S
H1302 C1287 0.961 . S
H1303 C1287 0.960 . S
C1304 C1305 1.391 . S
C1304 C1306 1.394 . S
C1304 H1320 0.931 . S
C1305 C1304 1.391 . S
C1305 C1309 1.376 . S
C1306 C1304 1.394 . S
C1306 C1307 1.369 . S
C1306 C1310 1.531 . S
C1307 C1306 1.369 . S
C1307 C1308 1.410 . S
C1307 C1315 1.503 . S
C1308 C1307 1.410 . S
C1308 C1309 1.392 . S
C1308 C1311 1.511 . S
C1309 C1305 1.376 . S
C1309 C1308 1.392 . S
C1309 H1321 0.929 . S
C1310 C1306 1.531 . S
C1310 H1322 0.960 . S
C1310 H1323 0.962 . S
C1310 H1324 0.960 . S
C1311 C1308 1.511 . S
C1311 H1325 0.961 . S
C1311 H1326 0.961 . S
C1311 H1327 0.961 . S
C1312 C1313 1.370 . S
C1312 C1314 1.363 . S
C1312 H1328 0.931 . S
C1313 C1312 1.370 . S
C1313 C1317 1.408 . S
C1314 C1312 1.363 . S
C1314 C1315 1.370 . S
C1314 C1318 1.524 . S
C1315 C1307 1.503 . S
C1315 C1314 1.370 . S
C1315 C1316 1.403 . S
C1316 C1315 1.403 . S
C1316 C1317 1.404 . S
C1316 C1319 1.539 . S
C1317 C1313 1.408 . S
C1317 C1316 1.404 . S
C1317 H1329 0.930 . S
C1318 C1314 1.524 . S
C1318 H1330 0.956 . S
C1318 H1331 0.961 . S
C1318 H1332 0.961 . S
C1319 C1316 1.539 . S
C1319 H1333 0.958 . S
C1319 H1334 0.961 . S
C1319 H1335 0.960 . S
H1320 C1304 0.931 . S
H1321 C1309 0.929 . S
H1322 C1310 0.960 . S
H1323 C1310 0.962 . S
H1324 C1310 0.960 . S
H1325 C1311 0.961 . S
H1326 C1311 0.961 . S
H1327 C1311 0.961 . S
H1328 C1312 0.931 . S
H1329 C1317 0.930 . S
H1330 C1318 0.956 . S
H1331 C1318 0.961 . S
H1332 C1318 0.961 . S
H1333 C1319 0.958 . S
H1334 C1319 0.961 . S
H1335 C1319 0.960 . S
C569 C31 1.539 . S
C577 C523 1.530 . S
C609 C487 1.528 . S
C601 C61 1.529 . S
C641 C510 1.524 . S
C633 C151 1.501 . S
C673 C498 1.525 . S
C665 C181 1.509 . S
C705 C567 1.543 . S
C697 C271 1.517 . S
C737 C531 1.529 . S
C729 C301 1.512 . S
C761 C391 1.501 . S
C769 C554 1.524 . S
C801 C542 1.531 . S
C793 C421 1.540 . S
C825 C20 1.516 . S
C833 C564 1.530 . S
C865 C534 1.530 . S
C857 C91 1.511 . S
C889 C121 1.451 . S
C897 C553 1.557 . S
C921 C211 1.555 . S
C929 C539 1.557 . S
C961 C520 1.529 . S
C953 C260 1.506 1_545 S
C985 C331 1.504 1_565 S
C993 C490 1.530 . S
C1025 C509 1.554 . S
C1017 C361 1.454 1_545 S
C1057 C495 1.557 . S
C1049 C451 1.563 1_565 S
C1089 C545 1.531 . S
C1081 C1 1.431 . S
C1121 C561 1.533 . S
C1113 C80 1.466 . S
C1145 C140 1.489 . S
C1153 C532 1.504 . S
C1185 C556 1.503 . S
C1177 C200 1.429 . S
C1217 C501 1.528 . S
C1209 C241 1.430 . S
C1241 C320 1.430 . S
C1249 C517 1.531 . S
C1273 C380 1.452 . S
C1281 C488 1.509 . S
C1305 C440 1.446 . S
C1313 C512 1.508 . S
