# Generated by pormake.
# Topology zzz, (3,6)-cn, num edge types: 1
# Building blocks:
#     Node 0, Type 0, BuildingBlock: BETDIP_clean_linker_0, # of connection points: 3
#     Node 1, Type 0, BuildingBlock: BETDIP_clean_linker_0, # of connection points: 3
#     Node 2, Type 0, BuildingBlock: BETDIP_clean_linker_0, # of connection points: 3
#     Node 3, Type 0, BuildingBlock: BETDIP_clean_linker_0, # of connection points: 3
#     Node 4, Type 0, BuildingBlock: BETDIP_clean_linker_0, # of connection points: 3
#     Node 5, Type 0, BuildingBlock: BETDIP_clean_linker_0, # of connection points: 3
#     Node 6, Type 0, BuildingBlock: BETDIP_clean_linker_0, # of connection points: 3
#     Node 7, Type 0, BuildingBlock: BETDIP_clean_linker_0, # of connection points: 3
#     Node 8, Type 1, BuildingBlock: BETFEN_clean_sbu_0, # of connection points: 6
#     Node 9, Type 1, BuildingBlock: BETFEN_clean_sbu_0, # of connection points: 6
#     Node 10, Type 1, BuildingBlock: BETFEN_clean_sbu_0, # of connection points: 6
#     Node 11, Type 1, BuildingBlock: BETFEN_clean_sbu_0, # of connection points: 6
#     Edge 12, Type (0, 1), BuildingBlock: ZUJKAS_clean_linker_0, # of connection points: 2
#     Edge 13, Type (0, 1), BuildingBlock: ZUJKAS_clean_linker_0, # of connection points: 2
#     Edge 14, Type (0, 1), BuildingBlock: ZUJKAS_clean_linker_0, # of connection points: 2
#     Edge 15, Type (0, 1), BuildingBlock: ZUJKAS_clean_linker_0, # of connection points: 2
#     Edge 16, Type (0, 1), BuildingBlock: ZUJKAS_clean_linker_0, # of connection points: 2
#     Edge 17, Type (0, 1), BuildingBlock: ZUJKAS_clean_linker_0, # of connection points: 2
#     Edge 18, Type (0, 1), BuildingBlock: ZUJKAS_clean_linker_0, # of connection points: 2
#     Edge 19, Type (0, 1), BuildingBlock: ZUJKAS_clean_linker_0, # of connection points: 2
#     Edge 20, Type (0, 1), BuildingBlock: ZUJKAS_clean_linker_0, # of connection points: 2
#     Edge 21, Type (0, 1), BuildingBlock: ZUJKAS_clean_linker_0, # of connection points: 2
#     Edge 22, Type (0, 1), BuildingBlock: ZUJKAS_clean_linker_0, # of connection points: 2
#     Edge 23, Type (0, 1), BuildingBlock: ZUJKAS_clean_linker_0, # of connection points: 2
#     Edge 24, Type (0, 1), BuildingBlock: ZUJKAS_clean_linker_0, # of connection points: 2
#     Edge 25, Type (0, 1), BuildingBlock: ZUJKAS_clean_linker_0, # of connection points: 2
#     Edge 26, Type (0, 1), BuildingBlock: ZUJKAS_clean_linker_0, # of connection points: 2
#     Edge 27, Type (0, 1), BuildingBlock: ZUJKAS_clean_linker_0, # of connection points: 2
#     Edge 28, Type (0, 1), BuildingBlock: ZUJKAS_clean_linker_0, # of connection points: 2
#     Edge 29, Type (0, 1), BuildingBlock: ZUJKAS_clean_linker_0, # of connection points: 2
#     Edge 30, Type (0, 1), BuildingBlock: ZUJKAS_clean_linker_0, # of connection points: 2
#     Edge 31, Type (0, 1), BuildingBlock: ZUJKAS_clean_linker_0, # of connection points: 2
#     Edge 32, Type (0, 1), BuildingBlock: ZUJKAS_clean_linker_0, # of connection points: 2
#     Edge 33, Type (0, 1), BuildingBlock: ZUJKAS_clean_linker_0, # of connection points: 2
#     Edge 34, Type (0, 1), BuildingBlock: ZUJKAS_clean_linker_0, # of connection points: 2
#     Edge 35, Type (0, 1), BuildingBlock: ZUJKAS_clean_linker_0, # of connection points: 2
# Relax obj value: 0.230
# Max RMSD: 0.175
# Mean RMSD: 0.158
data_MOF--net-zzz--node1-BETFEN_clean_sbu_0--node2-BETDIP_clean_linker_0--edge1-ZUJKAS_clean_linker_0
_symmetry_space_group_name_H-M    P1
_symmetry_Int_Tables_number       1
_symmetry_cell_setting            triclinic
loop_
_symmetry_equiv_pos_as_xyz
'x, y, z'
_cell_length_a     68.061162
_cell_length_b     67.961197
_cell_length_c     17.174062
_cell_angle_alpha  90.111431
_cell_angle_beta   89.94374
_cell_angle_gamma 89.985308
loop_
_atom_site_label
_atom_site_type_symbol
_atom_site_fract_x
_atom_site_fract_y
_atom_site_fract_z
_atom_type_partial_charge
H0 H 0.75815 0.52742 0.39334 0.0
H1 H 0.74654 0.52383 0.14682 0.0
H2 H 0.80455 0.51238 0.2336 0.0
H3 H 0.72859 0.55757 0.21462 0.0
C4 C 0.7202 0.54511 0.23627 0.0
C5 C 0.76323 0.52474 0.33447 0.0
C6 C 0.78305 0.51978 0.32068 0.0
C7 C 0.75004 0.5264 0.27148 0.0
C8 C 0.7567 0.52285 0.19522 0.0
C9 C 0.77633 0.51789 0.18126 0.0
C10 C 0.78934 0.51637 0.24416 0.0
N11 N 0.72996 0.53116 0.28431 0.0
H12 H 1.01088 0.75298 0.43844 0.0
H13 H 0.99302 0.74136 0.20146 0.0
H14 H 0.99385 0.80059 0.28775 0.0
H15 H 0.97521 0.7148 0.31131 0.0
C16 C 0.99053 0.71033 0.30781 0.0
C17 C 1.00594 0.75824 0.38227 0.0
C18 C 1.00236 0.77852 0.37086 0.0
C19 C 1.00215 0.74467 0.32137 0.0
C20 C 0.99557 0.75161 0.24884 0.0
C21 C 0.99309 0.77174 0.23633 0.0
C22 C 0.99626 0.78499 0.29744 0.0
N23 N 1.00514 0.7241 0.33175 0.0
H24 H 0.76969 0.99987 0.40247 0.0
H25 H 0.78515 0.01937 0.1719 0.0
H26 H 0.72804 0.03233 0.26507 0.0
H27 H 0.79498 0.97716 0.20422 0.0
C28 C 0.80537 0.98693 0.23287 0.0
C29 C 0.76586 1.00758 0.34947 0.0
C30 C 0.74722 0.01651 0.34203 0.0
C31 C 0.77945 1.00838 0.28731 0.0
C32 C 0.77451 0.01844 0.21871 0.0
C33 C 0.7562 0.02759 0.21103 0.0
C34 C 0.74265 0.02627 0.27245 0.0
N35 N 0.79825 0.9994 0.29335 0.0
H36 H 0.51878 0.77765 0.4222 0.0
H37 H 0.51137 0.79526 0.18296 0.0
H38 H 0.49799 0.73609 0.25159 0.0
H39 H 0.54772 0.8088 0.24729 0.0
C40 C 0.5361 0.81775 0.27259 0.0
C41 C 0.5144 0.77421 0.3631 0.0
C42 C 0.50787 0.75504 0.34408 0.0
C43 C 0.51566 0.7888 0.30469 0.0
C44 C 0.51039 0.78412 0.22789 0.0
C45 C 0.50372 0.76529 0.20865 0.0
C46 C 0.50238 0.75094 0.26703 0.0
N47 N 0.52225 0.8082 0.32206 0.0
H48 H 0.27292 0.50581 0.03415 0.0
H49 H 0.28467 0.54197 0.23613 0.0
H50 H 0.22532 0.53109 0.16577 0.0
H51 H 0.31147 0.55031 0.14143 0.0
C52 C 0.31593 0.53495 0.14439 0.0
C53 C 0.26773 0.51464 0.08257 0.0
C54 C 0.24739 0.51736 0.09414 0.0
C55 C 0.28135 0.52355 0.13364 0.0
C56 C 0.27444 0.53521 0.19588 0.0
C57 C 0.25429 0.53763 0.20812 0.0
C58 C 0.24095 0.52868 0.15736 0.0
N59 N 0.30189 0.52027 0.12421 0.0
H60 H 0.01523 0.27787 0.98127 0.0
H61 H 0.03017 0.29452 0.21622 0.0
H62 H 0.04055 0.23546 0.1372 0.0
H63 H 0.99058 0.30711 0.16611 0.0
C64 C 1.00152 0.31658 0.13922 0.0
C65 C 0.02141 0.27417 0.03746 0.0
C66 C 0.02838 0.25491 0.05161 0.0
C67 C 0.02203 0.28849 0.09727 0.0
C68 C 0.02971 0.28352 0.17048 0.0
C69 C 0.0368 0.26456 0.18492 0.0
C70 C 0.03607 0.25046 0.12518 0.0
N71 N 1.01485 0.30791 0.0851 0.0
H72 H 0.25752 0.02119 0.0814 0.0
H73 H 0.24849 0.96865 0.21809 0.0
H74 H 0.29993 0.97427 0.07661 0.0
H75 H 0.21638 0.97471 0.17854 0.0
C76 C 0.21571 0.99007 0.19626 0.0
C77 C 0.26205 1.00657 0.09886 0.0
C78 C 0.28 0.99874 0.07151 0.0
C79 C 0.24992 0.99529 0.14856 0.0
C80 C 0.25669 0.97682 0.17486 0.0
C81 C 0.27451 0.96912 0.14797 0.0
C82 C 0.28573 0.97991 0.09497 0.0
N83 N 0.23143 1.00284 0.17465 0.0
H84 H 0.51399 0.25493 0.98644 0.0
H85 H 0.52708 0.24224 0.2268 0.0
H86 H 0.5249 0.30214 0.14818 0.0
H87 H 0.54863 0.21801 0.12736 0.0
C88 C 0.53369 0.21251 0.12166 0.0
C89 C 0.51727 0.25996 0.04488 0.0
C90 C 0.51906 0.2803 0.0605 0.0
C91 C 0.5205 0.24613 0.10492 0.0
C92 C 0.52496 0.2528 0.18032 0.0
C93 C 0.52618 0.27292 0.19666 0.0
C94 C 0.52333 0.28652 0.13642 0.0
N95 N 0.51926 0.22551 0.09057 0.0
Pr96 Pr 0.02071 1.00816 0.82287 0.0
Pr97 Pr 1.0059 0.02087 0.64177 0.0
C98 C 0.01705 0.99133 0.96204 0.0
C99 C 1.00346 0.97509 0.97842 0.0
C100 C 1.00783 0.96096 0.03491 0.0
C101 C 0.99701 0.94346 0.038 0.0
C102 C 0.98163 0.93992 0.98465 0.0
C103 C 0.97669 0.95469 0.93117 0.0
C104 C 0.98771 0.97189 0.92728 0.0
C105 C 0.0527 1.01472 0.72252 0.0
C106 C 1.01069 0.97362 0.68212 0.0
C107 C 1.00677 0.03831 0.50288 0.0
C108 C 0.01731 0.0566 0.48578 0.0
C109 C 1.01051 0.06943 0.42812 0.0
C110 C 0.01748 0.08879 0.42536 0.0
C111 C 0.0312 0.09552 0.48074 0.0
C112 C 0.03878 0.08225 0.53535 0.0
C113 C 0.03182 0.06303 0.53808 0.0
C114 C 0.97441 1.0133 0.74371 0.0
C115 C 0.01612 0.05559 0.78157 0.0
O116 O 1.00879 1.0083 0.9459 0.0
O117 O 0.03125 0.98664 0.91383 0.0
O118 O 0.0346 0.01624 0.70767 0.0
O119 O 0.05488 1.01027 0.7959 0.0
O120 O 1.00925 0.98687 0.62569 0.0
O121 O 1.01292 0.97844 0.75675 0.0
O122 O 0.01772 0.02294 0.51873 0.0
O123 O 0.99215 0.04067 0.55169 0.0
O124 O 0.99254 1.01309 0.75685 0.0
O125 O 0.9717 0.01688 0.67001 0.0
O126 O 0.01822 0.04239 0.83793 0.0
O127 O 1.01315 0.05069 0.70748 0.0
H128 H 0.02025 0.96295 0.07354 0.0
H129 H 1.00146 0.93227 0.07918 0.0
H130 H 0.96484 0.95263 0.88992 0.0
H131 H 0.98466 0.98217 0.88099 0.0
H132 H 0.99901 0.06487 0.38845 0.0
H133 H 1.01122 0.09878 0.38308 0.0
H134 H 0.04945 0.08697 0.57827 0.0
H135 H 0.03687 0.05361 0.58458 0.0
Pr136 Pr 0.52014 0.02975 0.7979 0.0
Pr137 Pr 0.50608 1.00691 0.63431 0.0
C138 C 0.53853 0.03926 0.92954 0.0
C139 C 0.55706 0.05028 0.93281 0.0
C140 C 0.56272 0.06134 0.86746 0.0
C141 C 0.58196 0.06797 0.85946 0.0
C142 C 0.59593 0.06371 0.9168 0.0
C143 C 0.59 0.05373 0.98472 0.0
C144 C 0.57068 0.04692 0.9924 0.0
C145 C 0.51661 0.05609 0.67111 0.0
C146 C 0.5537 1.01574 0.66436 0.0
C147 C 0.49092 0.99798 0.49484 0.0
C148 C 0.4748 0.98497 0.46837 0.0
C149 C 0.4786 0.96545 0.44533 0.0
C150 C 0.46314 0.9528 0.42584 0.0
C151 C 0.44361 0.95944 0.42909 0.0
C152 C 0.4399 0.97911 0.4499 0.0
C153 C 0.45529 0.99173 0.46912 0.0
C154 C 0.51002 0.98031 0.75939 0.0
C155 C 0.47261 0.02065 0.77076 0.0
O156 O 0.54027 0.02183 0.89741 0.0
O157 O 0.52319 0.04913 0.90455 0.0
O158 O 0.51386 0.03782 0.67181 0.0
O159 O 0.52105 0.06166 0.74118 0.0
O160 O 0.5398 1.01223 0.61197 0.0
O161 O 0.54973 0.02036 0.73768 0.0
O162 O 0.48575 1.01371 0.53446 0.0
O163 O 0.50668 0.98932 0.52249 0.0
O164 O 0.5127 0.99862 0.75975 0.0
O165 O 0.50516 0.9749 0.68938 0.0
O166 O 0.48662 0.02489 0.82192 0.0
O167 O 0.47634 1.01547 0.69741 0.0
H168 H 0.5526 0.06382 0.82006 0.0
H169 H 0.58613 0.07568 0.80681 0.0
H170 H 0.6006 0.05008 0.02945 0.0
H171 H 0.5667 0.03809 0.04246 0.0
H172 H 0.49349 0.95985 0.44352 0.0
H173 H 0.46644 0.93775 0.40961 0.0
H174 H 0.42504 0.98483 0.45079 0.0
H175 H 0.45181 1.00673 0.48548 0.0
Pr176 Pr 0.50825 0.52246 0.77628 0.0
Pr177 Pr 0.52883 0.51113 0.61786 0.0
C178 C 0.5048 0.54062 0.91325 0.0
C179 C 0.49965 0.56144 0.92587 0.0
C180 C 0.48272 0.56949 0.89118 0.0
C181 C 0.48099 0.58982 0.88151 0.0
C182 C 0.4963 0.60226 0.90505 0.0
C183 C 0.5125 0.5944 0.94463 0.0
C184 C 0.51405 0.57414 0.95578 0.0
C185 C 0.47925 0.52023 0.6607 0.0
C186 C 0.51738 0.55731 0.64025 0.0
C187 C 0.54113 0.49143 0.49244 0.0
C188 C 0.54877 0.4712 0.49258 0.0
C189 C 0.56076 0.46483 0.55437 0.0
C190 C 0.564 0.44481 0.56667 0.0
C191 C 0.5551 0.43082 0.51809 0.0
C192 C 0.54417 0.43726 0.4534 0.0
C193 C 0.54101 0.4573 0.44082 0.0
C194 C 0.55398 0.52095 0.73968 0.0
C195 C 0.51537 0.47523 0.74666 0.0
O196 O 0.52175 0.53819 0.87831 0.0
O197 O 0.49098 0.52895 0.8864 0.0
O198 O 0.4974 0.51732 0.65198 0.0
O199 O 0.47535 0.52397 0.73335 0.0
O200 O 0.52047 0.54355 0.58708 0.0
O201 O 0.51513 0.5529 0.71487 0.0
O202 O 0.5225 0.49286 0.51055 0.0
O203 O 0.55205 0.50467 0.52701 0.0
O204 O 0.53877 0.51041 0.74528 0.0
O205 O 0.55686 0.52656 0.66825 0.0
O206 O 0.50916 0.48852 0.79749 0.0
O207 O 0.52267 0.48027 0.67781 0.0
H208 H 0.47146 0.56009 0.86665 0.0
H209 H 0.46834 0.59571 0.85122 0.0
H210 H 0.52431 0.60387 0.9642 0.0
H211 H 0.52729 0.5683 0.9821 0.0
H212 H 0.56662 0.47522 0.59626 0.0
H213 H 0.5724 0.44028 0.61709 0.0
H214 H 0.53746 0.42675 0.41404 0.0
H215 H 0.53155 0.46188 0.39346 0.0
Pr216 Pr 1.00852 0.50333 0.79098 0.0
Pr217 Pr 0.02239 0.52725 0.63067 0.0
C218 C 0.99115 0.49349 0.92445 0.0
C219 C 0.9728 0.48233 0.93254 0.0
C220 C 0.96754 0.46871 0.87449 0.0
C221 C 0.94821 0.46212 0.86818 0.0
C222 C 0.93377 0.46909 0.91966 0.0
C223 C 0.93938 0.48162 0.9812 0.0
C224 C 0.95875 0.48824 0.9874 0.0
C225 C 1.01243 0.47763 0.66242 0.0
C226 C 0.97478 0.51718 0.65838 0.0
C227 C 0.03773 0.53783 0.49361 0.0
C228 C 0.05437 0.55091 0.47781 0.0
C229 C 0.05816 0.55782 0.40257 0.0
C230 C 0.0747 0.56953 0.38846 0.0
C231 C 0.08771 0.57437 0.44944 0.0
C232 C 0.08331 0.56793 0.52525 0.0
C233 C 0.06676 0.55641 0.53927 0.0
C234 C 0.01884 0.55315 0.75866 0.0
C235 C 0.05605 0.51229 0.76292 0.0
O236 O 0.98881 0.51083 0.89239 0.0
O237 O 1.00633 0.48374 0.89699 0.0
O238 O 1.01492 0.49595 0.66422 0.0
O239 O 1.008 0.47169 0.73208 0.0
O240 O 0.98865 0.52245 0.60817 0.0
O241 O 0.97866 0.51124 0.73018 0.0
O242 O 0.04235 0.52128 0.52845 0.0
O243 O 0.02217 0.54643 0.52324 0.0
O244 O 0.01593 0.53485 0.75757 0.0
O245 O 0.02377 0.5588 0.68918 0.0
O246 O 0.04211 0.50773 0.81385 0.0
O247 O 0.05225 0.51813 0.69065 0.0
H248 H 0.97805 0.46413 0.83072 0.0
H249 H 0.94436 0.45232 0.82076 0.0
H250 H 0.92854 0.48745 0.02128 0.0
H251 H 0.96243 0.49902 0.03159 0.0
H252 H 0.04856 0.5539 0.35472 0.0
H253 H 0.07752 0.57446 0.32958 0.0
H254 H 0.0931 0.57102 0.57342 0.0
H255 H 0.06392 0.55133 0.59799 0.0
H256 H 0.20288 0.02752 0.23691 0.0
H257 H 0.17469 0.03576 0.32082 0.0
H258 H 0.16404 0.97389 0.35836 0.0
H259 H 0.1913 0.96577 0.27217 0.0
H260 H 0.1311 0.99092 0.33152 0.0
H261 H 0.1703 0.0359 0.55195 0.0
H262 H 0.17213 0.04539 0.45483 0.0
H263 H 0.18312 0.02205 0.4781 0.0
C264 C 0.1945 1.01576 0.26341 0.0
C265 C 0.19927 0.996 0.24818 0.0
C266 C 0.17847 0.02045 0.31189 0.0
C267 C 0.16729 1.00547 0.3473 0.0
C268 C 0.17228 0.98578 0.332 0.0
H269 H 0.09154 1.00832 0.75046 0.0
H270 H 0.11859 1.00769 0.65672 0.0
C271 C 0.18794 0.98113 0.28277 0.0
C272 C 0.15004 1.00981 0.39864 0.0
H273 H 0.13587 0.03319 0.56618 0.0
C274 C 0.13218 1.0002 0.38278 0.0
C275 C 0.15136 0.0218 0.46606 0.0
C276 C 0.17029 0.03174 0.48935 0.0
C277 C 0.11593 1.0017 0.43305 0.0
C278 C 0.11713 1.01391 0.49989 0.0
C279 C 0.13483 0.02393 0.51484 0.0
C280 C 0.10067 1.01552 0.55736 0.0
C281 C 0.09803 0.98932 0.41565 0.0
C282 C 0.08152 0.0205 0.53375 0.0
C283 C 0.06595 0.02036 0.58721 0.0
C284 C 0.06919 0.01595 0.66589 0.0
C285 C 0.08848 1.01181 0.69017 0.0
C286 C 0.10401 1.01152 0.63654 0.0
H287 H 0.10163 0.97672 0.37684 0.0
H288 H 0.09138 0.98344 0.46987 0.0
H289 H 0.08692 0.99849 0.38543 0.0
H290 H 0.07852 0.02422 0.47368 0.0
H291 H 0.05137 0.02341 0.56667 0.0
H292 H 0.49754 0.19397 0.13734 0.0
H293 H 0.49037 0.16426 0.21399 0.0
H294 H 0.55159 0.15983 0.27632 0.0
H295 H 0.55881 0.18896 0.19853 0.0
H296 H 0.53686 0.12417 0.24451 0.0
H297 H 0.48678 0.16338 0.4482 0.0
H298 H 0.47949 0.16397 0.34779 0.0
H299 H 0.50165 0.17622 0.37779 0.0
C300 C 0.50945 0.18651 0.16686 0.0
C301 C 0.52874 0.19383 0.16225 0.0
C302 C 0.50533 0.16962 0.21119 0.0
C303 C 0.52038 0.15992 0.25234 0.0
C304 C 0.53969 0.16697 0.24545 0.0
H305 H 0.52338 0.0952 0.67266 0.0
H306 H 0.52226 0.11835 0.56482 0.0
C307 C 0.5438 0.18368 0.20101 0.0
C308 C 0.51632 0.14286 0.30484 0.0
H309 H 0.49277 0.13 0.47322 0.0
C310 C 0.52705 0.12536 0.2941 0.0
C311 C 0.50364 0.14441 0.37003 0.0
C312 C 0.49234 0.16303 0.38735 0.0
C313 C 0.52604 0.10976 0.34791 0.0
C314 C 0.51357 0.11145 0.41368 0.0
C315 C 0.50226 0.12862 0.42271 0.0
C316 C 0.51372 0.09677 0.47844 0.0
C317 C 0.53917 0.09211 0.33601 0.0
C318 C 0.50919 0.07675 0.46656 0.0
C319 C 0.51001 0.0633 0.52875 0.0
C320 C 0.51513 0.06972 0.6039 0.0
C321 C 0.51934 0.08975 0.61556 0.0
C322 C 0.51865 0.10306 0.5538 0.0
H323 H 0.55082 0.09495 0.29206 0.0
H324 H 0.54629 0.08775 0.3915 0.0
H325 H 0.5302 0.07953 0.31519 0.0
H326 H 0.50498 0.07152 0.40938 0.0
H327 H 0.5067 0.04795 0.51803 0.0
H328 H 0.34147 0.56093 0.20561 0.0
H329 H 0.37143 0.55437 0.27884 0.0
H330 H 0.36346 0.49202 0.24338 0.0
H331 H 0.33292 0.49858 0.17159 0.0
H332 H 0.37205 0.49937 0.39066 0.0
H333 H 0.42556 0.53982 0.21079 0.0
H334 H 0.40564 0.55566 0.23781 0.0
H335 H 0.40102 0.53448 0.17708 0.0
C336 C 0.34625 0.54582 0.21247 0.0
C337 C 0.33491 0.53029 0.18257 0.0
C338 C 0.3635 0.54208 0.25388 0.0
C339 C 0.37006 0.52272 0.26533 0.0
C340 C 0.35884 0.50711 0.23475 0.0
H341 H 0.48393 0.50943 0.50738 0.0
H342 H 0.45825 0.50715 0.40707 0.0
C343 C 0.34141 0.51086 0.19361 0.0
C344 C 0.38777 0.51895 0.31422 0.0
H345 H 0.43488 0.53454 0.34537 0.0
C346 C 0.38588 0.50682 0.37992 0.0
C347 C 0.40605 0.52826 0.29978 0.0
C348 C 0.40975 0.54009 0.22699 0.0
C349 C 0.4013 0.5047 0.43373 0.0
C350 C 0.41894 0.51543 0.42288 0.0
C351 C 0.42126 0.5266 0.35476 0.0
C352 C 0.43459 0.51622 0.48353 0.0
C353 C 0.39843 0.49103 0.50192 0.0
C354 C 0.42996 0.52239 0.55945 0.0
C355 C 0.44452 0.52355 0.61657 0.0
C356 C 0.46413 0.51886 0.59895 0.0
C357 C 0.46891 0.51303 0.52269 0.0
C358 C 0.45426 0.51173 0.46542 0.0
H359 H 0.38789 0.47908 0.48752 0.0
H360 H 0.41252 0.48427 0.52048 0.0
H361 H 0.39224 0.49944 0.55166 0.0
H362 H 0.41508 0.52656 0.57448 0.0
H363 H 0.4404 0.52831 0.67459 0.0
H364 H 0.97682 0.33539 0.23681 0.0
H365 H 0.98148 0.36686 0.30304 0.0
H366 H 0.03668 0.37476 0.18372 0.0
H367 H 0.03207 0.34299 0.11712 0.0
H368 H 0.03967 0.38068 0.34237 0.0
H369 H 0.97687 0.42351 0.22972 0.0
H370 H 0.96928 0.39998 0.26605 0.0
H371 H 0.98546 0.40124 0.18317 0.0
C372 C 0.98979 0.344 0.22353 0.0
C373 C 1.00399 0.33676 0.17139 0.0
C374 C 0.99239 0.36207 0.26115 0.0
C375 C 1.00927 0.37344 0.24757 0.0
C376 C 0.02343 0.36638 0.1946 0.0
H377 H 0.01683 0.48684 0.50644 0.0
H378 H 0.01859 0.46348 0.39627 0.0
C379 C 0.02076 0.34825 0.15639 0.0
C380 C 1.01266 0.39173 0.29401 0.0
H381 H 0.99025 0.43431 0.35314 0.0
C382 C 0.02905 0.39258 0.34352 0.0
C383 C 0.99901 0.40749 0.29511 0.0
C384 C 0.98178 0.40814 0.24002 0.0
C385 C 0.03144 0.40802 0.39742 0.0
C386 C 0.01696 0.42293 0.40281 0.0
C387 C 1.00127 0.4228 0.34977 0.0
C388 C 0.01675 0.43742 0.46822 0.0
C389 C 0.04925 0.40795 0.44963 0.0
C390 C 1.01493 0.43059 0.5449 0.0
C391 C 1.01385 0.44379 0.60716 0.0
C392 C 1.01455 0.46421 0.5946 0.0
C393 C 0.01644 0.47118 0.51789 0.0
C394 C 0.01739 0.45786 0.45505 0.0
H395 H 0.06163 0.39973 0.42268 0.0
H396 H 0.05419 0.42316 0.46294 0.0
H397 H 0.04548 0.40058 0.50526 0.0
H398 H 1.01398 0.41496 0.55662 0.0
H399 H 1.01226 0.43793 0.66544 0.0
H400 H 0.83309 0.016 0.25855 0.0
H401 H 0.86404 0.02081 0.18699 0.0
H402 H 0.85297 0.96797 0.05495 0.0
H403 H 0.82209 0.96316 0.12568 0.0
H404 H 0.89371 0.97317 0.11115 0.0
H405 H 0.86357 0.0376 0.95079 0.0
H406 H 0.86168 0.03807 0.05531 0.0
H407 H 0.84797 0.02022 0.00073 0.0
C408 C 0.83741 1.00527 0.21507 0.0
C409 C 0.82518 0.98919 0.19758 0.0
C410 C 0.85504 1.00809 0.17397 0.0
C411 C 0.86074 0.99482 0.11518 0.0
C412 C 0.84889 0.97838 0.10001 0.0
H413 H 0.93721 1.00055 0.71565 0.0
H414 H 0.91042 0.99619 0.80988 0.0
C415 C 0.83125 0.97566 0.14043 0.0
C416 C 0.87843 0.99845 0.06623 0.0
H417 H 0.89584 0.02783 0.92017 0.0
C418 C 0.89429 0.98524 0.06998 0.0
C419 C 0.87903 1.01404 0.01173 0.0
C420 C 0.86215 0.02828 0.00356 0.0
C421 C 0.91071 0.98721 0.02057 0.0
C422 C 0.91121 1.00274 0.96592 0.0
C423 C 0.89542 0.01599 0.96241 0.0
C424 C 0.92766 1.00504 0.9097 0.0
C425 C 0.92718 0.9724 0.02522 0.0
C426 C 0.94616 1.01169 0.93445 0.0
C427 C 0.96139 1.01438 0.88053 0.0
C428 C 0.95852 1.01011 0.80129 0.0
C429 C 0.93992 1.00367 0.77657 0.0
C430 C 0.92463 1.00117 0.83028 0.0
H431 H 0.92359 0.95995 0.06459 0.0
H432 H 0.93053 0.96646 0.96638 0.0
H433 H 0.94066 0.97973 0.04711 0.0
H434 H 0.9487 1.01511 0.99523 0.0
H435 H 0.97532 0.02009 0.90055 0.0
H436 H 0.55904 0.8361 0.16762 0.0
H437 H 0.55339 0.86731 0.10152 0.0
H438 H 0.50039 0.87595 0.23521 0.0
H439 H 0.50583 0.84423 0.30065 0.0
H440 H 0.49385 0.88299 0.08519 0.0
H441 H 0.56103 0.92328 0.16694 0.0
H442 H 0.56722 0.89991 0.1251 0.0
H443 H 0.55365 0.9009 0.21526 0.0
C444 C 0.54633 0.84479 0.18389 0.0
C445 C 0.53296 0.83774 0.23964 0.0
C446 C 0.54318 0.86276 0.1464 0.0
C447 C 0.52668 0.87433 0.16429 0.0
C448 C 0.51335 0.86743 0.22081 0.0
H449 H 0.51672 0.98849 0.91502 0.0
H450 H 0.51925 0.96457 0.02239 0.0
C451 C 0.51648 0.84932 0.25837 0.0
C452 C 0.52274 0.89271 0.11907 0.0
H453 H 0.54493 0.93423 0.04863 0.0
C454 C 0.50491 0.89435 0.07841 0.0
C455 C 0.53691 0.90787 0.11095 0.0
C456 C 0.55566 0.90801 0.15765 0.0
C457 C 0.50142 0.90995 0.02647 0.0
C458 C 0.51632 0.92413 0.0131 0.0
C459 C 0.53361 0.92323 0.05752 0.0
C460 C 0.51481 0.93896 0.94923 0.0
C461 C 0.48182 0.91093 0.9857 0.0
C462 C 0.51193 0.9326 0.87229 0.0
C463 C 0.51049 0.94615 0.81151 0.0
C464 C 0.51215 0.96646 0.82564 0.0
C465 C 0.51544 0.97294 0.90235 0.0
C466 C 0.51683 0.95928 0.96366 0.0
H467 H 0.47011 0.90381 0.02093 0.0
H468 H 0.47743 0.92637 0.97373 0.0
H469 H 0.48281 0.9029 0.9295 0.0
H470 H 0.51091 0.91705 0.85897 0.0
H471 H 0.50811 0.94064 0.75304 0.0
H472 H 0.69893 0.57051 0.15044 0.0
H473 H 0.66781 0.56461 0.08333 0.0
H474 H 0.66575 0.50589 0.1776 0.0
H475 H 0.69704 0.51177 0.2453 0.0
H476 H 0.66041 0.50799 0.01373 0.0
H477 H 0.61118 0.56036 0.16628 0.0
H478 H 0.63384 0.57125 0.13448 0.0
H479 H 0.63425 0.55222 0.20705 0.0
C480 C 0.69166 0.55646 0.15803 0.0
C481 C 0.70034 0.54167 0.20345 0.0
C482 C 0.67383 0.55314 0.11989 0.0
C483 C 0.66429 0.53491 0.12624 0.0
C484 C 0.67278 0.52013 0.17248 0.0
H485 H 0.55189 0.50838 0.89121 0.0
H486 H 0.57768 0.51056 0.99115 0.0
C487 C 0.69062 0.52352 0.21129 0.0
C488 C 0.6463 0.531 0.07955 0.0
H489 H 0.60025 0.54869 0.04154 0.0
C490 C 0.64715 0.51667 0.02063 0.0
C491 C 0.62895 0.54227 0.08873 0.0
C492 C 0.62686 0.55727 0.15304 0.0
C493 C 0.63148 0.51399 0.96839 0.0
C494 C 0.61457 0.52596 0.97513 0.0
C495 C 0.61331 0.53964 0.03618 0.0
C496 C 0.59863 0.52521 0.91634 0.0
C497 C 0.63323 0.49867 0.90511 0.0
C498 C 0.60178 0.53304 0.84187 0.0
C499 C 0.58707 0.53202 0.78522 0.0
C500 C 0.56895 0.52302 0.80176 0.0
C501 C 0.5657 0.51542 0.87683 0.0
C502 C 0.58039 0.51663 0.93386 0.0
H503 H 0.64547 0.48824 0.91628 0.0
H504 H 0.61932 0.49024 0.89964 0.0
H505 H 0.636 0.50608 0.84862 0.0
H506 H 0.6157 0.53984 0.82744 0.0
H507 H 0.59003 0.53801 0.728 0.0
H508 H 0.96488 0.68161 0.27112 0.0
H509 H 0.97047 0.65204 0.19303 0.0
H510 H 0.03176 0.66723 0.17135 0.0
H511 H 0.02626 0.69671 0.2516 0.0
H512 H 0.98143 0.6514 0.04539 0.0
H513 H 0.03579 0.6089 0.21624 0.0
H514 H 0.02222 0.62931 0.25702 0.0
H515 H 0.04343 0.6337 0.19699 0.0
C516 C 0.97965 0.67844 0.25103 0.0
C517 C 0.99512 0.69144 0.2678 0.0
C518 C 0.98283 0.66153 0.20619 0.0
C519 C 1.00158 0.65718 0.17656 0.0
C520 C 0.01724 0.66993 0.19481 0.0
H521 H 0.02516 0.59235 0.75705 0.0
H522 H 0.02099 0.61607 0.8622 0.0
C523 C 1.01407 0.68686 0.24043 0.0
C524 C 1.0041 0.64036 0.12106 0.0
H525 H 0.03058 0.59845 0.08458 0.0
C526 C 0.99209 0.63977 0.05457 0.0
C527 C 0.01783 0.62496 0.13297 0.0
C528 C 0.03043 0.62408 0.20505 0.0
C529 C 0.99371 0.62462 0.99911 0.0
C530 C 1.00802 0.60972 0.00912 0.0
C531 C 0.0197 0.60992 0.07657 0.0
C532 C 1.01169 0.59465 0.94749 0.0
C533 C 0.98002 0.62473 0.93001 0.0
C534 C 1.00846 0.57446 0.96078 0.0
C535 C 1.01092 0.56068 0.90014 0.0
C536 C 0.01672 0.56691 0.82553 0.0
C537 C 0.02047 0.58703 0.81352 0.0
C538 C 0.01805 0.60068 0.87365 0.0
H539 H 0.96656 0.63349 0.94189 0.0
H540 H 0.98764 0.63147 0.87951 0.0
H541 H 0.97561 0.60955 0.91362 0.0
H542 H 1.00365 0.56943 0.0175 0.0
H543 H 1.00813 0.54527 0.91138 0.0
H544 H 0.06786 0.24125 0.22397 0.0
H545 H 0.06979 0.22115 0.34033 0.0
H546 H 0.02288 0.25478 0.44501 0.0
H547 H 0.01972 0.27393 0.32532 0.0
H548 H 0.07163 0.21847 0.49575 0.0
H549 H 0.99441 0.20496 0.39782 0.0
H550 H 1.01034 0.22096 0.34361 0.0
H551 H 1.00035 0.22881 0.43576 0.0
C552 C 0.05821 0.24466 0.27238 0.0
C553 C 0.04296 0.2584 0.26401 0.0
C554 C 0.0595 0.23332 0.33954 0.0
C555 C 0.04579 0.23583 0.39986 0.0
C556 C 0.03305 0.25207 0.39766 0.0
H557 H 0.03334 0.11798 0.61242 0.0
H558 H 0.03724 0.15376 0.62081 0.0
C559 C 0.03138 0.26314 0.32936 0.0
C560 C 0.042 0.2188 0.45152 0.0
H561 H 1.01064 0.17968 0.45938 0.0
C562 C 0.05804 0.21024 0.49046 0.0
C563 C 0.02418 0.20805 0.44483 0.0
C564 C 1.00633 0.21604 0.40315 0.0
C565 C 0.05753 0.19046 0.51388 0.0
C566 C 0.04052 0.17928 0.49869 0.0
C567 C 0.0237 0.18847 0.46959 0.0
C568 C 0.04091 0.15764 0.4969 0.0
C569 C 0.07567 0.18105 0.54747 0.0
C570 C 0.04183 0.14814 0.42437 0.0
C571 C 0.03939 0.12782 0.41915 0.0
C572 C 0.03606 0.11669 0.48654 0.0
C573 C 0.03601 0.12619 0.55957 0.0
C574 C 0.03827 0.14658 0.56466 0.0
H575 H 0.08717 0.19208 0.56178 0.0
H576 H 0.07184 0.17276 0.60103 0.0
H577 H 0.0818 0.17037 0.50486 0.0
H578 H 0.04379 0.15657 0.37144 0.0
H579 H 0.03971 0.12088 0.36233 0.0
H580 H 0.28337 0.96441 0.30005 0.0
H581 H 0.31062 0.94454 0.3478 0.0
H582 H 0.31441 0.91516 0.12547 0.0
H583 H 0.28751 0.93565 0.0765 0.0
H584 H 0.32755 0.90628 0.35742 0.0
H585 H 0.36126 0.95283 0.12522 0.0
H586 H 0.33605 0.95587 0.15452 0.0
H587 H 0.34312 0.93526 0.09499 0.0
C588 C 0.28931 0.95299 0.26274 0.0
C589 C 0.28368 0.95175 0.18434 0.0
C590 C 0.30493 0.94164 0.29 0.0
C591 C 0.31491 0.92887 0.23924 0.0
C592 C 0.30714 0.92527 0.16491 0.0
H593 H 0.44097 0.93353 0.30707 0.0
H594 H 0.41132 0.91682 0.26083 0.0
C595 C 0.29172 0.93687 0.13715 0.0
C596 C 0.33551 0.92367 0.25752 0.0
H597 H 0.38201 0.9391 0.21631 0.0
C598 C 0.33957 0.91298 0.3255 0.0
C599 C 0.35119 0.93246 0.21573 0.0
C600 C 0.34781 0.94485 0.14387 0.0
C601 C 0.35873 0.91196 0.3556 0.0
C602 C 0.37406 0.92212 0.31717 0.0
C603 C 0.37026 0.93127 0.24564 0.0
C604 C 0.39293 0.92693 0.35573 0.0
C605 C 0.36219 0.90075 0.42997 0.0
C606 C 0.39262 0.9376 0.42577 0.0
C607 C 0.4095 0.94708 0.45229 0.0
C608 C 0.42698 0.9463 0.40881 0.0
C609 C 0.42772 0.93438 0.34187 0.0
C610 C 0.41079 0.92481 0.31544 0.0
H611 H 0.35229 0.88779 0.43356 0.0
H612 H 0.37766 0.89569 0.4348 0.0
H613 H 0.35881 0.91043 0.48036 0.0
H614 H 0.37898 0.9399 0.45702 0.0
H615 H 0.40859 0.95588 0.50485 0.0
H616 H 0.50788 0.3019 0.27803 0.0
H617 H 0.51934 0.31782 0.39681 0.0
H618 H 0.56655 0.2757 0.4146 0.0
H619 H 0.55532 0.25987 0.29387 0.0
H620 H 0.52989 0.30704 0.55611 0.0
H621 H 0.59412 0.32861 0.37226 0.0
H622 H 0.57294 0.3173 0.32797 0.0
H623 H 0.58885 0.30304 0.38925 0.0
C624 C 0.52051 0.29583 0.3079 0.0
C625 C 0.53099 0.27998 0.27593 0.0
C626 C 0.52691 0.30477 0.37629 0.0
C627 C 0.54392 0.29806 0.41393 0.0
C628 C 0.55347 0.28116 0.38599 0.0
H629 H 0.58716 0.40942 0.56523 0.0
H630 H 0.58896 0.37369 0.58346 0.0
C631 C 0.54704 0.27215 0.31721 0.0
C632 C 0.55308 0.31118 0.47217 0.0
H633 H 0.58397 0.35047 0.46809 0.0
C634 C 0.54223 0.31615 0.53896 0.0
C635 C 0.56954 0.32273 0.45118 0.0
C636 C 0.58212 0.31777 0.38137 0.0
C637 C 0.54567 0.33392 0.57832 0.0
C638 C 0.55986 0.34709 0.54839 0.0
C639 C 0.57277 0.34057 0.49003 0.0
C640 C 0.55813 0.36864 0.55975 0.0
C641 C 0.53299 0.33913 0.6474 0.0
C642 C 0.54015 0.37775 0.54209 0.0
C643 C 0.53912 0.39801 0.5315 0.0
C644 C 0.55609 0.40963 0.53734 0.0
C645 C 0.57386 0.40077 0.5599 0.0
C646 C 0.57489 0.3804 0.57077 0.0
H647 H 0.53081 0.32602 0.685 0.0
H648 H 0.53951 0.35115 0.68286 0.0
H649 H 0.51826 0.34381 0.6268 0.0
H650 H 0.52709 0.36909 0.53105 0.0
H651 H 0.52511 0.40451 0.51624 0.0
H652 H 0.26132 0.5766 0.23454 0.0
H653 H 0.24102 0.59858 0.31504 0.0
H654 H 0.20882 0.54826 0.40009 0.0
H655 H 0.22915 0.52659 0.32154 0.0
H656 H 0.20414 0.60203 0.28008 0.0
H657 H 0.20527 0.58205 0.58792 0.0
H658 H 0.22529 0.57559 0.52347 0.0
H659 H 0.2044 0.55942 0.53471 0.0
C660 C 0.2505 0.57029 0.27349 0.0
C661 C 0.24659 0.55001 0.27184 0.0
C662 C 0.23891 0.58282 0.31927 0.0
C663 C 0.22345 0.57513 0.36429 0.0
C664 C 0.22092 0.55463 0.36784 0.0
H665 H 0.11196 0.56834 0.3253 0.0
H666 H 0.14577 0.57884 0.31131 0.0
C667 C 0.2324 0.5422 0.32219 0.0
C668 C 0.20719 0.58789 0.39198 0.0
H669 H 0.17127 0.58612 0.52975 0.0
C670 C 0.19732 0.59928 0.33611 0.0
C671 C 0.19841 0.58506 0.46575 0.0
C672 C 0.20911 0.57504 0.53143 0.0
C673 C 0.17773 0.60495 0.34738 0.0
C674 C 0.16782 0.59874 0.41532 0.0
C675 C 0.17866 0.59034 0.47634 0.0
C676 C 0.14618 0.59645 0.41663 0.0
C677 C 0.16736 0.61603 0.28354 0.0
C678 C 0.13497 0.60299 0.48014 0.0
C679 C 0.1154 0.597 0.48821 0.0
C680 C 0.10685 0.5841 0.43352 0.0
C681 C 0.11785 0.57854 0.3678 0.0
C682 C 0.13728 0.5846 0.35961 0.0
H683 H 0.17755 0.62662 0.25527 0.0
H684 H 0.16242 0.6055 0.23814 0.0
H685 H 0.15438 0.62417 0.30601 0.0
H686 H 0.14159 0.61201 0.52509 0.0
H687 H 0.10724 0.60179 0.53897 0.0
H688 H 0.95899 0.76517 0.15654 0.0
H689 H 0.94619 0.78562 0.05004 0.0
H690 H 1.00124 0.81721 0.04354 0.0
H691 H 1.01391 0.79669 0.14726 0.0
H692 H 0.93949 0.82199 0.07519 0.0
H693 H 0.98759 0.82205 0.82174 0.0
H694 H 0.98758 0.80168 0.88939 0.0
H695 H 1.00379 0.82249 0.90355 0.0
C696 C 0.96855 0.7759 0.12936 0.0
C697 C 0.98733 0.77957 0.1598 0.0
C698 C 0.96126 0.78757 0.06873 0.0
C699 C 0.97276 0.8029 0.03791 0.0
C700 C 0.99219 0.8052 0.06411 0.0
H701 H 0.97176 0.91516 0.10409 0.0
H702 H 0.96173 0.88096 0.09401 0.0
C703 C 0.9994 0.79362 0.12427 0.0
C704 C 0.96368 0.81935 0.99417 0.0
H705 H 0.97961 0.85614 0.87606 0.0
C706 C 0.94775 0.82913 0.02919 0.0
C707 C 0.97361 0.82853 0.93169 0.0
C708 C 0.98892 0.81791 0.88407 0.0
C709 C 0.94394 0.84897 0.01305 0.0
C710 C 0.95673 0.85926 0.96265 0.0
C711 C 0.97027 0.84855 0.91749 0.0
C712 C 0.95922 0.8809 0.96806 0.0
C713 C 0.92716 0.859 0.05456 0.0
C714 C 0.96143 0.89235 0.90081 0.0
C715 C 0.96795 0.9118 0.90636 0.0
C716 C 0.97219 0.92024 0.97951 0.0
C717 C 0.96888 0.90908 0.0469 0.0
C718 C 0.9627 0.88957 0.04118 0.0
H719 H 0.91429 0.84899 0.0581 0.0
H720 H 0.93162 0.86251 0.11516 0.0
H721 H 0.92265 0.87277 0.02483 0.0
H722 H 0.959 0.88597 0.84382 0.0
H723 H 0.97063 0.9198 0.85296 0.0
H724 H 0.73554 0.06174 0.19734 0.0
H725 H 0.71819 0.07315 0.08298 0.0
H726 H 0.74807 0.02971 0.94239 0.0
H727 H 0.76411 0.01684 0.05919 0.0
H728 H 0.72179 0.08664 0.94146 0.0
H729 H 0.69428 1.00926 0.92006 0.0
H730 H 0.71005 0.01656 0.99883 0.0
H731 H 0.71983 1.01368 0.90196 0.0
C732 C 0.73849 0.0546 0.1421 0.0
C733 C 0.75042 0.03777 0.13809 0.0
C734 C 0.72878 0.06137 0.07619 0.0
C735 C 0.73115 0.05175 0.00434 0.0
C736 C 0.74533 0.03681 0.99781 0.0
H737 H 0.61673 0.05456 0.78621 0.0
H738 H 0.65242 0.0558 0.76947 0.0
C739 C 0.7547 0.02962 0.06457 0.0
C740 C 0.71623 0.05539 0.94301 0.0
H741 H 0.67417 0.03403 0.87582 0.0
C742 C 0.71166 0.07505 0.92481 0.0
C743 C 0.70314 0.04026 0.91931 0.0
C744 C 0.70693 0.01877 0.93601 0.0
C745 C 0.69318 0.08015 0.89502 0.0
C746 C 0.67921 0.0652 0.88179 0.0
C747 C 0.68491 0.04545 0.88755 0.0
C748 C 0.65791 0.0693 0.88138 0.0
C749 C 0.68811 0.10155 0.88432 0.0
C750 C 0.64918 0.07678 0.94947 0.0
C751 C 0.62887 0.07586 0.95972 0.0
C752 C 0.61696 0.06757 0.90176 0.0
C753 C 0.62558 0.06123 0.83152 0.0
C754 C 0.64594 0.06196 0.82167 0.0
H755 H 0.70139 0.11027 0.86937 0.0
H756 H 0.67691 0.10353 0.838 0.0
H757 H 0.68208 0.10746 0.93969 0.0
H758 H 0.6582 0.08204 0.99713 0.0
H759 H 0.62255 0.08088 0.01417 0.0
H760 H 0.52666 0.77284 0.08166 0.0
H761 H 0.52513 0.75582 0.95624 0.0
H762 H 0.47129 0.72753 0.02752 0.0
H763 H 0.47251 0.74483 0.1514 0.0
H764 H 0.52971 0.7179 0.97137 0.0
H765 H 0.4633 0.72774 0.79634 0.0
H766 H 0.47175 0.74639 0.86377 0.0
H767 H 0.45604 0.72664 0.89646 0.0
C768 C 0.514 0.76373 0.06889 0.0
C769 C 0.49991 0.75976 0.12666 0.0
C770 C 0.51311 0.75407 0.99706 0.0
C771 C 0.49811 0.74038 0.98219 0.0
C772 C 0.48283 0.73826 0.0366 0.0
H773 H 0.46921 0.62956 0.94791 0.0
H774 H 0.47152 0.66522 0.93046 0.0
C775 C 0.4837 0.74789 0.10818 0.0
C776 C 0.50113 0.72446 0.92447 0.0
H777 H 0.47383 0.69265 0.81579 0.0
C778 C 0.51786 0.71267 0.93459 0.0
C779 C 0.48585 0.71779 0.87555 0.0
C780 C 0.46835 0.7305 0.85688 0.0
C781 C 0.51828 0.69317 0.90826 0.0
C782 C 0.50173 0.68558 0.86817 0.0
C783 C 0.48631 0.69834 0.84798 0.0
C784 C 0.49839 0.6641 0.86254 0.0
C785 C 0.53543 0.68039 0.93211 0.0
C786 C 0.51225 0.65159 0.82769 0.0
C787 C 0.51128 0.63132 0.8401 0.0
C788 C 0.49602 0.62328 0.88495 0.0
C789 C 0.48116 0.63555 0.91362 0.0
C790 C 0.48241 0.65586 0.90299 0.0
H791 H 0.54564 0.68808 0.97238 0.0
H792 H 0.53017 0.66682 0.96137 0.0
H793 H 0.54392 0.67606 0.87967 0.0
H794 H 0.52442 0.65754 0.79472 0.0
H795 H 0.52269 0.62195 0.81621 0.0
H796 H 0.80868 0.53295 0.11146 0.0
H797 H 0.82519 0.52013 0.99701 0.0
H798 H 0.77687 0.48028 0.95587 0.0
H799 H 0.76049 0.49283 0.07331 0.0
H800 H 0.80835 0.46027 0.96748 0.0
H801 H 0.82779 0.51926 0.76785 0.0
H802 H 0.83266 0.52901 0.86257 0.0
H803 H 0.80783 0.52213 0.83662 0.0
C804 C 0.80131 0.52186 0.07669 0.0
C805 C 0.78352 0.51363 0.10173 0.0
C806 C 0.8106 0.51474 0.0102 0.0
C807 C 0.80222 0.49933 0.96673 0.0
C808 C 0.78356 0.49226 0.98797 0.0
H809 H 0.91478 0.47024 0.77951 0.0
H810 H 0.8793 0.47031 0.75751 0.0
C811 C 0.77421 0.49943 0.05498 0.0
C812 C 0.81507 0.4881 0.91281 0.0
H813 H 0.85651 0.49729 0.80845 0.0
C814 C 0.81842 0.46816 0.92981 0.0
C815 C 0.82781 0.49778 0.86023 0.0
C816 C 0.82359 0.51817 0.83024 0.0
C817 C 0.83602 0.45899 0.90784 0.0
C818 C 0.85066 0.47025 0.87025 0.0
C819 C 0.84569 0.48884 0.84047 0.0
C820 C 0.8718 0.46539 0.87841 0.0
C821 C 0.83939 0.43788 0.93108 0.0
C822 C 0.87945 0.46215 0.95336 0.0
C823 C 0.89966 0.462 0.96601 0.0
C824 C 0.91268 0.46533 0.90415 0.0
C825 C 0.90511 0.46742 0.82831 0.0
C826 C 0.88482 0.46752 0.8156 0.0
H827 H 0.82575 0.42916 0.92268 0.0
H828 H 0.85144 0.431 0.89691 0.0
H829 H 0.84312 0.43723 0.99393 0.0
H830 H 0.86981 0.4611 0.00338 0.0
H831 H 0.90507 0.46024 0.02489 0.0
H832 H 0.05763 0.23096 0.99987 0.0
H833 H 0.05409 0.19888 0.93725 0.0
H834 H 0.9917 0.20846 0.91572 0.0
H835 H 0.99524 0.24063 0.98017 0.0
H836 H 0.99943 0.17372 0.98467 0.0
H837 H 0.04529 0.17881 0.71993 0.0
H838 H 0.05863 0.18614 0.80504 0.0
H839 H 0.03766 0.20026 0.77408 0.0
C840 C 0.04325 0.22653 0.97931 0.0
C841 C 0.02674 0.23844 0.99431 0.0
C842 C 0.04123 0.20813 0.94334 0.0
C843 C 0.02264 0.20115 0.92087 0.0
C844 C 1.00623 0.21349 0.93207 0.0
H845 H 1.00858 0.08709 0.68594 0.0
H846 H 1.00892 0.12208 0.71866 0.0
C847 C 1.00827 0.23199 0.96806 0.0
C848 C 0.02025 0.1803 0.89389 0.0
H849 H 0.03836 0.14603 0.76624 0.0
C850 C 1.00778 0.16776 0.93623 0.0
C851 C 0.03097 0.17239 0.83029 0.0
C852 C 0.04372 0.18515 0.77924 0.0
C853 C 1.00621 0.14756 0.91855 0.0
C854 C 0.01775 0.13943 0.85774 0.0
C855 C 0.02971 0.15209 0.81359 0.0
C856 C 0.01749 0.1179 0.83863 0.0
C857 C 0.99203 0.13518 0.96497 0.0
C858 C 0.02229 0.10368 0.89498 0.0
C859 C 0.02187 0.08351 0.87678 0.0
C860 C 0.01691 0.07704 0.80138 0.0
C861 C 1.01247 0.09137 0.74472 0.0
C862 C 1.01271 0.11149 0.76321 0.0
H863 H 0.98037 0.14433 0.99234 0.0
H864 H 0.98493 0.12384 0.92782 0.0
H865 H 1.00013 0.12761 0.01226 0.0
H866 H 0.02649 0.10817 0.95315 0.0
H867 H 0.02554 0.07302 0.92185 0.0
H868 H 0.2906 0.99254 0.92102 0.0
H869 H 0.32227 1.00161 0.8631 0.0
H870 H 0.33533 0.03741 0.06383 0.0
H871 H 0.30356 0.02842 0.12164 0.0
H872 H 0.34478 0.03976 0.83513 0.0
H873 H 0.376 0.98983 0.0599 0.0
H874 H 0.35031 0.98954 0.03401 0.0
H875 H 0.35985 1.00899 0.09376 0.0
C876 C 0.29979 1.00316 0.9508 0.0
C877 C 0.29449 1.01007 0.02516 0.0
C878 C 0.31798 1.00817 0.91809 0.0
C879 C 0.33128 0.01997 0.95961 0.0
C880 C 0.32532 0.02822 0.03095 0.0
H881 H 0.45828 0.03315 0.91207 0.0
H882 H 0.42411 0.03442 0.95545 0.0
C883 C 0.30705 0.02332 0.06345 0.0
C884 C 0.35205 0.0215 0.93306 0.0
H885 H 0.3983 1.00482 0.97395 0.0
C886 C 0.35652 0.03222 0.86555 0.0
C887 C 0.36733 1.01153 0.97257 0.0
C888 C 0.36325 0.99918 0.0438 0.0
C889 C 0.37593 0.03345 0.8371 0.0
C890 C 0.39121 0.02327 0.87616 0.0
C891 C 0.38667 1.01265 0.94396 0.0
C892 C 0.41198 0.02323 0.84771 0.0
C893 C 0.3799 0.04593 0.76629 0.0
C894 C 0.41671 0.01635 0.77275 0.0
C895 C 0.43631 1.01567 0.7475 0.0
C896 C 0.45171 0.02165 0.79696 0.0
C897 C 0.4469 0.02843 0.87217 0.0
C898 C 0.42731 0.02917 0.89719 0.0
H899 H 0.36824 0.05716 0.7577 0.0
H900 H 0.3943 0.05352 0.77092 0.0
H901 H 0.38019 0.03637 0.71385 0.0
H902 H 0.40528 1.01116 0.73405 0.0
H903 H 0.43938 1.01022 0.68945 0.0
H904 H 0.54882 0.29639 0.977 0.0
H905 H 0.5481 0.3278 0.90646 0.0
H906 H 0.48557 0.33164 0.94336 0.0
H907 H 0.48632 0.30019 0.01401 0.0
H908 H 0.50092 0.34563 0.78686 0.0
H909 H 0.53798 0.37823 0.04521 0.0
H910 H 0.5495 0.35694 0.00263 0.0
H911 H 0.52591 0.35459 0.04847 0.0
C912 C 0.53482 0.30357 0.96723 0.0
C913 C 0.51756 0.29568 0.99947 0.0
C914 C 0.53445 0.32161 0.92769 0.0
C915 C 0.51681 0.3322 0.92016 0.0
C916 C 0.49934 0.32373 0.94811 0.0
H917 H 0.50108 0.45838 0.8807 0.0
H918 H 0.50114 0.42362 0.91701 0.0
C919 C 0.49973 0.30569 0.98793 0.0
C920 C 0.51693 0.35287 0.89089 0.0
H921 H 0.53162 0.39939 0.94005 0.0
C922 C 0.50767 0.3574 0.82011 0.0
C923 C 0.52557 0.36827 0.93466 0.0
C924 C 0.53521 0.36442 0.01228 0.0
C925 C 0.50689 0.37689 0.79187 0.0
C926 C 0.51565 0.39231 0.83556 0.0
C927 C 0.5249 0.38768 0.90635 0.0
C928 C 0.51496 0.41343 0.81075 0.0
C929 C 0.49623 0.38081 0.71651 0.0
C930 C 0.52275 0.41951 0.73885 0.0
C931 C 0.52256 0.43945 0.71756 0.0
C932 C 0.51487 0.45391 0.76812 0.0
C933 C 0.50712 0.44777 0.84011 0.0
C934 C 0.50718 0.42782 0.86107 0.0
H935 H 0.48607 0.36862 0.7012 0.0
H936 H 0.48771 0.39472 0.71977 0.0
H937 H 0.50713 0.38219 0.66876 0.0
H938 H 0.52932 0.40889 0.69964 0.0
H939 H 0.52867 0.44353 0.6617 0.0
H940 H 0.21815 0.49175 0.12845 0.0
H941 H 0.18734 0.48769 0.0569 0.0
H942 H 0.21026 0.5233 0.87029 0.0
H943 H 0.24126 0.52728 0.94199 0.0
H944 H 0.16557 0.52245 0.0239 0.0
H945 H 0.17953 0.47884 0.75512 0.0
H946 H 0.19538 0.47754 0.83935 0.0
H947 H 0.19649 0.49846 0.77595 0.0
C948 C 0.21692 0.49797 0.0706 0.0
C949 C 0.23215 0.50965 0.04033 0.0
C950 C 0.19926 0.49578 0.03003 0.0
C951 C 0.19644 0.50518 0.95819 0.0
C952 C 0.21218 0.51565 0.92502 0.0
H953 H 0.08914 0.52547 0.68685 0.0
H954 H 0.12328 0.52395 0.73171 0.0
C955 C 0.22994 0.51783 0.96576 0.0
C956 C 0.17631 0.50634 0.92458 0.0
H957 H 0.14794 0.49307 0.76883 0.0
C958 C 0.16171 0.51596 0.96821 0.0
C959 C 0.17135 0.49817 0.8514 0.0
C960 C 0.18642 0.48754 0.80262 0.0
C961 C 0.14233 0.5176 0.94102 0.0
C962 C 0.13715 0.50891 0.86887 0.0
C963 C 0.15184 0.4996 0.82435 0.0
C964 C 0.1165 0.50912 0.83981 0.0
C965 C 0.12768 0.52899 0.98943 0.0
C966 C 0.1013 0.50096 0.88477 0.0
C967 C 0.08177 0.50195 0.8597 0.0
C968 C 0.07693 0.51088 0.78835 0.0
C969 C 0.09226 0.51853 0.7422 0.0
C970 C 0.11182 0.51764 0.76768 0.0
H971 H 0.1351 0.53955 0.02915 0.0
H972 H 0.11726 0.53727 0.95208 0.0
H973 H 0.11914 0.51858 0.02587 0.0
H974 H 0.10454 0.49386 0.93967 0.0
H975 H 0.07046 0.49567 0.89642 0.0
H976 H 0.97315 0.80059 0.43245 0.0
H977 H 0.9765 0.83163 0.5033 0.0
H978 H 0.03914 0.82276 0.51719 0.0
H979 H 0.03577 0.79171 0.44416 0.0
H980 H 0.99057 0.84494 0.64125 0.0
H981 H 0.03594 0.87404 0.3984 0.0
H982 H 0.02341 0.85073 0.39245 0.0
H983 H 0.04601 0.85282 0.446 0.0
C984 C 0.98757 0.80496 0.4528 0.0
C985 C 1.00419 0.79368 0.43317 0.0
C986 C 0.9895 0.82279 0.49298 0.0
C987 C 1.00812 0.82989 0.51416 0.0
C988 C 0.02464 0.81788 0.49999 0.0
H989 H 0.01807 0.94175 0.77623 0.0
H990 H 0.01824 0.90693 0.74076 0.0
C991 C 0.0227 0.79996 0.45944 0.0
C992 C 1.01007 0.85044 0.54504 0.0
H993 H 0.02935 0.89564 0.5021 0.0
C994 C 0.99916 0.856 0.61114 0.0
C995 C 0.02098 0.86505 0.5051 0.0
C996 C 0.03212 0.86049 0.43117 0.0
C997 C 0.99867 0.87566 0.63771 0.0
C998 C 1.00975 0.89024 0.59812 0.0
C999 C 0.02088 0.88458 0.53276 0.0
C1000 C 1.00947 0.91157 0.62101 0.0
C1001 C 0.98563 0.88065 0.70605 0.0
C1002 C 1.00504 0.92609 0.5654 0.0
C1003 C 1.00531 0.94613 0.58516 0.0
C1004 C 1.00995 0.95225 0.66131 0.0
C1005 C 1.01429 0.93769 0.7171 0.0
C1006 C 1.01423 0.91765 0.69702 0.0
H1007 H 0.97401 0.86938 0.71479 0.0
H1008 H 0.99463 0.88118 0.75984 0.0
H1009 H 0.97846 0.8952 0.69833 0.0
H1010 H 1.00134 0.92192 0.5063 0.0
H1011 H 1.00187 0.95683 0.54054 0.0
H1012 H 0.72479 0.04649 0.39848 0.0
H1013 H 0.69431 0.04399 0.47194 0.0
H1014 H 0.70334 0.98151 0.49773 0.0
H1015 H 0.73369 0.9839 0.42052 0.0
H1016 H 0.66794 0.98764 0.4481 0.0
H1017 H 0.67889 0.03855 0.69286 0.0
H1018 H 0.68324 0.05164 0.60413 0.0
H1019 H 0.69891 0.03126 0.63041 0.0
C1020 C 0.72054 0.03226 0.42128 0.0
C1021 C 0.73166 1.01537 0.4033 0.0
C1022 C 0.70311 0.03087 0.46401 0.0
C1023 C 0.69644 1.0126 0.49148 0.0
C1024 C 0.70812 0.99582 0.47751 0.0
H1025 H 0.58604 1.01333 0.75891 0.0
H1026 H 0.62052 1.01077 0.72099 0.0
C1027 C 0.7256 0.9972 0.43407 0.0
C1028 C 0.67635 1.01091 0.52665 0.0
H1029 H 0.64475 0.0334 0.65366 0.0
C1030 C 0.663 0.99744 0.49403 0.0
C1031 C 0.66978 0.02336 0.58769 0.0
C1032 C 0.68357 0.03683 0.63122 0.0
C1033 C 0.64322 0.9967 0.51798 0.0
C1034 C 0.63623 1.01037 0.57408 0.0
C1035 C 0.64981 0.0232 0.60937 0.0
C1036 C 0.61499 1.01166 0.59688 0.0
C1037 C 0.63017 0.98103 0.48325 0.0
C1038 C 0.60014 1.01336 0.54023 0.0
C1039 C 0.58028 1.01446 0.56181 0.0
C1040 C 0.57476 1.01442 0.64076 0.0
C1041 C 0.58967 1.01331 0.69748 0.0
C1042 C 0.60948 1.01186 0.67582 0.0
H1043 H 0.63885 0.96797 0.46487 0.0
H1044 H 0.61874 0.97615 0.52513 0.0
H1045 H 0.62283 0.98697 0.43064 0.0
H1046 H 0.60388 1.01404 0.47903 0.0
H1047 H 0.56927 1.01564 0.51657 0.0
H1048 H 0.47681 0.73221 0.38609 0.0
H1049 H 0.47782 0.70028 0.45159 0.0
H1050 H 0.54016 0.70706 0.48755 0.0
H1051 H 0.539 0.73935 0.42378 0.0
H1052 H 0.4962 0.66936 0.39824 0.0
H1053 H 0.52469 0.68409 0.69395 0.0
H1054 H 0.51599 0.70342 0.63104 0.0
H1055 H 0.5405 0.69384 0.61986 0.0
C1056 C 0.49059 0.72719 0.41057 0.0
C1057 C 0.50778 0.73841 0.40069 0.0
C1058 C 0.49121 0.70883 0.44746 0.0
C1059 C 0.50905 0.7011 0.47507 0.0
C1060 C 0.52611 0.71274 0.46854 0.0
H1061 H 0.53062 0.57422 0.5047 0.0
H1062 H 0.52898 0.60886 0.46654 0.0
C1063 C 0.52545 0.73126 0.43216 0.0
C1064 C 0.51001 0.68018 0.50269 0.0
H1065 H 0.5258 0.65047 0.65079 0.0
C1066 C 0.50256 0.66531 0.45384 0.0
C1067 C 0.51804 0.6747 0.57564 0.0
C1068 C 0.52507 0.68986 0.6335 0.0
C1069 C 0.50312 0.64531 0.47501 0.0
C1070 C 0.51204 0.63971 0.54617 0.0
C1071 C 0.51919 0.6546 0.5958 0.0
C1072 C 0.51377 0.61859 0.57057 0.0
C1073 C 0.49367 0.63047 0.42135 0.0
C1074 C 0.50649 0.6124 0.64313 0.0
C1075 C 0.50787 0.59262 0.66598 0.0
C1076 C 0.51635 0.57842 0.61636 0.0
C1077 C 0.52377 0.58465 0.544 0.0
C1078 C 0.52272 0.6045 0.52186 0.0
H1079 H 0.48234 0.63741 0.38381 0.0
H1080 H 0.50506 0.62407 0.38256 0.0
H1081 H 0.48666 0.61835 0.45458 0.0
H1082 H 0.49944 0.62285 0.68176 0.0
H1083 H 0.50197 0.58842 0.72212 0.0
H1084 H 0.79787 0.5495 0.41034 0.0
H1085 H 0.82884 0.54864 0.48401 0.0
H1086 H 0.8334 0.48624 0.44196 0.0
H1087 H 0.80277 0.48718 0.36723 0.0
H1088 H 0.84533 0.52704 0.61203 0.0
H1089 H 0.88168 0.50929 0.33106 0.0
H1090 H 0.85648 0.51735 0.33687 0.0
H1091 H 0.86277 0.49227 0.35873 0.0
C1092 C 0.80515 0.53551 0.41939 0.0
C1093 C 0.79793 0.51839 0.38353 0.0
C1094 C 0.8229 0.53504 0.46098 0.0
C1095 C 0.83368 0.51745 0.46709 0.0
C1096 C 0.82556 0.50005 0.43686 0.0
H1097 H 0.94317 0.49901 0.72675 0.0
H1098 H 0.90895 0.49924 0.68402 0.0
C1099 C 0.80795 0.50054 0.39492 0.0
C1100 C 0.85418 0.51759 0.49764 0.0
H1101 H 0.90171 0.50894 0.44313 0.0
C1102 C 0.85769 0.52311 0.57523 0.0
C1103 C 0.87035 0.51276 0.44923 0.0
C1104 C 0.86773 0.50776 0.36415 0.0
C1105 C 0.8769 0.52372 0.6059 0.0
C1106 C 0.89305 0.51837 0.55791 0.0
C1107 C 0.88945 0.51298 0.48021 0.0
C1108 C 0.91387 0.51855 0.58582 0.0
C1109 C 0.87968 0.53057 0.68876 0.0
C1110 C 0.92837 0.52875 0.54358 0.0
C1111 C 0.94809 0.52828 0.56684 0.0
C1112 C 0.95383 0.51771 0.63336 0.0
C1113 C 0.9393 0.50752 0.67573 0.0
C1114 C 0.91962 0.50778 0.65175 0.0
H1115 H 0.86694 0.53938 0.70949 0.0
H1116 H 0.88104 0.51757 0.72733 0.0
H1117 H 0.8932 0.53958 0.69476 0.0
H1118 H 0.92442 0.5371 0.49225 0.0
H1119 H 0.95883 0.53632 0.53288 0.0
loop_
_geom_bond_atom_site_label_1
_geom_bond_atom_site_label_2
_geom_bond_distance
_geom_bond_site_symmetry_2
_ccdc_geom_bond_type
H0 C5 0.930 . S
H1 C8 0.930 . S
H2 C10 0.930 . S
H3 C4 1.016 . S
C4 H3 1.016 . S
C4 N11 1.286 . S
C5 H0 0.930 . S
C5 C6 1.397 . S
C5 C7 1.361 . S
C6 C5 1.397 . S
C6 C10 1.390 . S
C7 C5 1.361 . S
C7 C8 1.393 . S
C7 N11 1.413 . S
C8 H1 0.930 . S
C8 C7 1.393 . S
C8 C9 1.399 . S
C9 C8 1.399 . S
C9 C10 1.381 . S
C10 H2 0.930 . S
C10 C6 1.390 . S
C10 C9 1.381 . S
N11 C4 1.286 . S
N11 C7 1.413 . S
H12 C17 0.930 . S
H13 C20 0.930 . S
H14 C22 0.930 . S
H15 C16 1.036 . S
C16 H15 1.036 . S
C16 N23 1.261 1_655 S
C17 H12 0.930 . S
C17 C18 1.403 . S
C17 C19 1.361 . S
C18 C17 1.403 . S
C18 C22 1.387 1_455 S
C19 C17 1.361 . S
C19 C20 1.393 . S
C19 N23 1.413 . S
C20 H13 0.930 . S
C20 C19 1.393 . S
C20 C21 1.399 . S
C21 C20 1.399 . S
C21 C22 1.381 1_455 S
C22 H14 0.930 . S
C22 C18 1.387 1_655 S
C22 C21 1.381 1_655 S
N23 C16 1.261 1_455 S
N23 C19 1.413 . S
H24 C29 0.930 . S
H25 C32 0.930 . S
H26 C34 0.930 . S
H27 C28 1.036 . S
C28 H27 1.036 . S
C28 N35 1.260 1_565 S
C29 H24 0.930 . S
C29 C30 1.402 . S
C29 C31 1.361 . S
C30 C29 1.402 . S
C30 C34 1.387 1_545 S
C31 C29 1.361 . S
C31 C32 1.393 . S
C31 N35 1.413 . S
C32 H25 0.930 . S
C32 C31 1.393 . S
C32 C33 1.398 . S
C33 C32 1.398 . S
C33 C34 1.381 1_545 S
C34 H26 0.930 . S
C34 C30 1.387 1_565 S
C34 C33 1.381 1_565 S
N35 C28 1.260 1_545 S
N35 C31 1.413 . S
H36 C41 0.930 . S
H37 C44 0.930 . S
H38 C46 0.930 . S
H39 C40 1.016 . S
C40 H39 1.016 . S
C40 N47 1.286 . S
C41 H36 0.930 . S
C41 C42 1.397 . S
C41 C43 1.361 . S
C42 C41 1.397 . S
C42 C46 1.390 . S
C43 C41 1.361 . S
C43 C44 1.393 . S
C43 N47 1.413 . S
C44 H37 0.930 . S
C44 C43 1.393 . S
C44 C45 1.399 . S
C45 C44 1.399 . S
C45 C46 1.381 . S
C46 H38 0.930 . S
C46 C42 1.390 . S
C46 C45 1.381 . S
N47 C40 1.286 . S
N47 C43 1.413 . S
H48 C53 0.930 . S
H49 C56 0.930 . S
H50 C58 0.930 . S
H51 C52 1.016 . S
C52 H51 1.016 . S
C52 N59 1.286 . S
C53 H48 0.930 . S
C53 C54 1.397 . S
C53 C55 1.361 1_556 S
C54 C53 1.397 . S
C54 C58 1.390 1_556 S
C55 C53 1.361 1_554 S
C55 C56 1.393 . S
C55 N59 1.413 . S
C56 H49 0.930 . S
C56 C55 1.393 . S
C56 C57 1.399 . S
C57 C56 1.399 . S
C57 C58 1.381 . S
C58 H50 0.930 . S
C58 C54 1.390 1_554 S
C58 C57 1.381 . S
N59 C52 1.286 . S
N59 C55 1.413 . S
H60 C65 0.930 . S
H61 C68 0.930 . S
H62 C70 0.944 . S
H63 C64 1.017 1_655 S
C64 H63 1.017 1_455 S
C64 N71 1.285 . S
C65 H60 0.930 . S
C65 C66 1.397 . S
C65 C67 1.361 1_556 S
C66 C65 1.397 . S
C66 C70 1.384 1_456 S
C67 C65 1.361 1_554 S
C67 C68 1.393 . S
C67 N71 1.413 . S
C68 H61 0.930 . S
C68 C67 1.393 . S
C68 C69 1.399 . S
C69 C68 1.399 . S
C69 C70 1.376 1_455 S
C70 H62 0.944 . S
C70 C66 1.384 1_654 S
C70 C69 1.376 1_655 S
N71 C64 1.285 . S
N71 C67 1.413 . S
H72 C77 0.930 . S
H73 C80 0.930 . S
H74 C82 0.946 . S
H75 C76 1.015 . S
C76 H75 1.015 . S
C76 N83 1.289 1_565 S
C77 H72 0.930 . S
C77 C78 1.397 . S
C77 C79 1.361 1_556 S
C78 C77 1.397 . S
C78 C82 1.384 1_546 S
C79 C77 1.361 1_554 S
C79 C80 1.393 . S
C79 N83 1.413 . S
C80 H73 0.930 . S
C80 C79 1.393 . S
C80 C81 1.399 . S
C81 C80 1.399 . S
C81 C82 1.376 1_545 S
C82 H74 0.946 . S
C82 C78 1.384 1_564 S
C82 C81 1.376 1_565 S
N83 C76 1.289 1_545 S
N83 C79 1.413 . S
H84 C89 0.930 . S
H85 C92 0.930 . S
H86 C94 0.930 . S
H87 C88 1.016 . S
C88 H87 1.016 . S
C88 N95 1.286 . S
C89 H84 0.930 . S
C89 C90 1.397 . S
C89 C91 1.361 1_556 S
C90 C89 1.397 . S
C90 C94 1.390 1_556 S
C91 C89 1.361 1_554 S
C91 C92 1.393 . S
C91 N95 1.413 . S
C92 H85 0.930 . S
C92 C91 1.393 . S
C92 C93 1.399 . S
C93 C92 1.399 . S
C93 C94 1.381 . S
C94 H86 0.930 . S
C94 C90 1.390 1_554 S
C94 C93 1.381 . S
N95 C88 1.286 . S
N95 C91 1.413 . S
Pr96 C98 2.880 . S
Pr96 O116 2.566 . S
Pr96 O117 2.490 . S
Pr96 O118 2.695 1_565 S
Pr96 O119 2.512 . S
Pr96 O121 2.437 . S
Pr96 O124 2.436 1_455 S
Pr96 O126 2.438 1_565 S
Pr97 C107 2.880 . S
Pr97 O118 2.436 1_655 S
Pr97 O120 2.438 1_545 S
Pr97 O122 2.563 1_655 S
Pr97 O123 2.490 . S
Pr97 O124 2.695 1_545 S
Pr97 O125 2.512 . S
Pr97 O127 2.437 . S
C98 Pr96 2.880 . S
C98 C99 1.491 . S
C98 O116 1.263 . S
C98 O117 1.225 . S
C99 C98 1.491 . S
C99 C100 1.392 . S
C99 C104 1.356 . S
C100 C99 1.392 . S
C100 C101 1.368 . S
C100 H128 0.929 . S
C101 C100 1.368 . S
C101 C102 1.386 . S
C101 H129 0.929 . S
C102 C101 1.386 . S
C102 C103 1.373 . S
C103 C102 1.373 . S
C103 C104 1.409 . S
C103 H130 0.931 1_455 S
C104 C99 1.356 . S
C104 C103 1.409 . S
C104 H131 0.930 1_455 S
C105 O118 1.254 1_565 S
C105 O119 1.276 . S
C106 O120 1.267 . S
C106 O121 1.278 1_655 S
C107 Pr97 2.880 . S
C107 C108 1.491 . S
C107 O122 1.256 1_655 S
C107 O123 1.225 . S
C108 C107 1.491 . S
C108 C109 1.392 . S
C108 C113 1.356 . S
C109 C108 1.392 . S
C109 C110 1.368 . S
C109 H132 0.929 . S
C110 C109 1.368 . S
C110 C111 1.386 . S
C110 H133 0.929 . S
C111 C110 1.386 . S
C111 C112 1.373 . S
C112 C111 1.373 . S
C112 C113 1.409 . S
C112 H134 0.931 1_655 S
C113 C108 1.356 . S
C113 C112 1.409 . S
C113 H135 0.930 1_655 S
C114 O124 1.270 1_545 S
C114 O125 1.248 . S
C115 O126 1.267 . S
C115 O127 1.278 1_455 S
O116 Pr96 2.566 . S
O116 C98 1.263 . S
O117 Pr96 2.490 . S
O117 C98 1.225 . S
O118 Pr96 2.695 1_545 S
O118 Pr97 2.436 1_455 S
O118 C105 1.254 1_545 S
O119 Pr96 2.512 . S
O119 C105 1.276 . S
O120 Pr97 2.438 1_565 S
O120 C106 1.267 . S
O121 Pr96 2.437 . S
O121 C106 1.278 1_455 S
O122 Pr97 2.563 1_455 S
O122 C107 1.256 1_455 S
O123 Pr97 2.490 . S
O123 C107 1.225 . S
O124 Pr96 2.436 1_655 S
O124 Pr97 2.695 1_565 S
O124 C114 1.270 1_565 S
O125 Pr97 2.512 . S
O125 C114 1.248 . S
O126 Pr96 2.438 1_545 S
O126 C115 1.267 . S
O127 Pr97 2.437 . S
O127 C115 1.278 1_655 S
H128 C100 0.929 . S
H129 C101 0.929 . S
H130 C103 0.931 1_655 S
H131 C104 0.930 1_655 S
H132 C109 0.929 . S
H133 C110 0.929 . S
H134 C112 0.931 1_455 S
H135 C113 0.930 1_455 S
Pr136 C138 2.880 . S
Pr136 O156 2.565 . S
Pr136 O157 2.490 . S
Pr136 O158 2.695 . S
Pr136 O159 2.512 . S
Pr136 O161 2.437 . S
Pr136 O164 2.436 1_545 S
Pr136 O166 2.438 . S
Pr137 C147 2.880 . S
Pr137 O158 2.436 1_565 S
Pr137 O160 2.438 . S
Pr137 O162 2.565 1_565 S
Pr137 O163 2.490 . S
Pr137 O164 2.695 . S
Pr137 O165 2.512 . S
Pr137 O167 2.437 . S
C138 Pr136 2.880 . S
C138 C139 1.491 . S
C138 O156 1.260 . S
C138 O157 1.225 . S
C139 C138 1.491 . S
C139 C140 1.392 . S
C139 C144 1.356 . S
C140 C139 1.392 . S
C140 C141 1.368 . S
C140 H168 0.929 . S
C141 C140 1.368 . S
C141 C142 1.386 . S
C141 H169 0.929 . S
C142 C141 1.386 . S
C142 C143 1.373 . S
C143 C142 1.373 . S
C143 C144 1.409 . S
C143 H170 0.931 1_545 S
C144 C139 1.356 . S
C144 C143 1.409 . S
C144 H171 0.930 1_545 S
C145 O158 1.270 . S
C145 O159 1.248 . S
C146 O160 1.267 . S
C146 O161 1.278 1_565 S
C147 Pr137 2.880 . S
C147 C148 1.491 . S
C147 O162 1.260 1_565 S
C147 O163 1.225 . S
C148 C147 1.491 . S
C148 C149 1.392 . S
C148 C153 1.356 . S
C149 C148 1.392 . S
C149 C150 1.368 . S
C149 H172 0.929 . S
C150 C149 1.368 . S
C150 C151 1.386 . S
C150 H173 0.929 . S
C151 C150 1.386 . S
C151 C152 1.373 . S
C152 C151 1.373 . S
C152 C153 1.409 . S
C152 H174 0.931 1_565 S
C153 C148 1.356 . S
C153 C152 1.409 . S
C153 H175 0.930 1_565 S
C154 O164 1.270 . S
C154 O165 1.248 . S
C155 O166 1.267 . S
C155 O167 1.278 1_545 S
O156 Pr136 2.565 . S
O156 C138 1.260 . S
O157 Pr136 2.490 . S
O157 C138 1.225 . S
O158 Pr136 2.695 . S
O158 Pr137 2.436 1_545 S
O158 C145 1.270 . S
O159 Pr136 2.512 . S
O159 C145 1.248 . S
O160 Pr137 2.438 . S
O160 C146 1.267 . S
O161 Pr136 2.437 . S
O161 C146 1.278 1_545 S
O162 Pr137 2.565 1_545 S
O162 C147 1.260 1_545 S
O163 Pr137 2.490 . S
O163 C147 1.225 . S
O164 Pr136 2.436 1_565 S
O164 Pr137 2.695 . S
O164 C154 1.270 . S
O165 Pr137 2.512 . S
O165 C154 1.248 . S
O166 Pr136 2.438 . S
O166 C155 1.267 . S
O167 Pr137 2.437 . S
O167 C155 1.278 1_565 S
H168 C140 0.929 . S
H169 C141 0.929 . S
H170 C143 0.931 1_565 S
H171 C144 0.930 1_565 S
H172 C149 0.929 . S
H173 C150 0.929 . S
H174 C152 0.931 1_545 S
H175 C153 0.930 1_545 S
Pr176 C178 2.880 . S
Pr176 O196 2.562 . S
Pr176 O197 2.490 . S
Pr176 O198 2.695 . S
Pr176 O199 2.512 . S
Pr176 O201 2.437 . S
Pr176 O204 2.436 . S
Pr176 O206 2.438 . S
Pr177 C187 2.880 . S
Pr177 O198 2.436 . S
Pr177 O200 2.438 . S
Pr177 O202 2.562 . S
Pr177 O203 2.490 . S
Pr177 O204 2.695 . S
Pr177 O205 2.512 . S
Pr177 O207 2.437 . S
C178 Pr176 2.880 . S
C178 C179 1.491 . S
C178 O196 1.254 . S
C178 O197 1.225 . S
C179 C178 1.491 . S
C179 C180 1.392 . S
C179 C184 1.356 . S
C180 C179 1.392 . S
C180 C181 1.368 . S
C180 H208 0.929 . S
C181 C180 1.368 . S
C181 C182 1.386 . S
C181 H209 0.929 . S
C182 C181 1.386 . S
C182 C183 1.373 . S
C183 C182 1.373 . S
C183 C184 1.409 . S
C183 H210 0.931 . S
C184 C179 1.356 . S
C184 C183 1.409 . S
C184 H211 0.930 . S
C185 O198 1.270 . S
C185 O199 1.248 . S
C186 O200 1.267 . S
C186 O201 1.278 . S
C187 Pr177 2.880 . S
C187 C188 1.491 . S
C187 O202 1.254 . S
C187 O203 1.225 . S
C188 C187 1.491 . S
C188 C189 1.392 . S
C188 C193 1.356 . S
C189 C188 1.392 . S
C189 C190 1.368 . S
C189 H212 0.929 . S
C190 C189 1.368 . S
C190 C191 1.386 . S
C190 H213 0.929 . S
C191 C190 1.386 . S
C191 C192 1.373 . S
C192 C191 1.373 . S
C192 C193 1.409 . S
C192 H214 0.931 . S
C193 C188 1.356 . S
C193 C192 1.409 . S
C193 H215 0.930 . S
C194 O204 1.270 . S
C194 O205 1.248 . S
C195 O206 1.267 . S
C195 O207 1.278 . S
O196 Pr176 2.562 . S
O196 C178 1.254 . S
O197 Pr176 2.490 . S
O197 C178 1.225 . S
O198 Pr176 2.695 . S
O198 Pr177 2.436 . S
O198 C185 1.270 . S
O199 Pr176 2.512 . S
O199 C185 1.248 . S
O200 Pr177 2.438 . S
O200 C186 1.267 . S
O201 Pr176 2.437 . S
O201 C186 1.278 . S
O202 Pr177 2.562 . S
O202 C187 1.254 . S
O203 Pr177 2.490 . S
O203 C187 1.225 . S
O204 Pr176 2.436 . S
O204 Pr177 2.695 . S
O204 C194 1.270 . S
O205 Pr177 2.512 . S
O205 C194 1.248 . S
O206 Pr176 2.438 . S
O206 C195 1.267 . S
O207 Pr177 2.437 . S
O207 C195 1.278 . S
H208 C180 0.929 . S
H209 C181 0.929 . S
H210 C183 0.931 . S
H211 C184 0.930 . S
H212 C189 0.929 . S
H213 C190 0.929 . S
H214 C192 0.931 . S
H215 C193 0.930 . S
Pr216 C218 2.880 . S
Pr216 O236 2.562 . S
Pr216 O237 2.490 . S
Pr216 O238 2.695 1_655 S
Pr216 O239 2.512 . S
Pr216 O241 2.437 . S
Pr216 O244 2.436 . S
Pr216 O246 2.438 1_655 S
Pr217 C227 2.880 . S
Pr217 O238 2.436 . S
Pr217 O240 2.438 1_455 S
Pr217 O242 2.562 . S
Pr217 O243 2.490 . S
Pr217 O244 2.695 1_455 S
Pr217 O245 2.512 . S
Pr217 O247 2.437 . S
C218 Pr216 2.880 . S
C218 C219 1.491 . S
C218 O236 1.254 . S
C218 O237 1.225 . S
C219 C218 1.491 . S
C219 C220 1.392 . S
C219 C224 1.356 . S
C220 C219 1.392 . S
C220 C221 1.368 . S
C220 H248 0.929 . S
C221 C220 1.368 . S
C221 C222 1.386 . S
C221 H249 0.929 . S
C222 C221 1.386 . S
C222 C223 1.373 . S
C223 C222 1.373 . S
C223 C224 1.409 . S
C223 H250 0.931 . S
C224 C219 1.356 . S
C224 C223 1.409 . S
C224 H251 0.930 . S
C225 O238 1.255 1_655 S
C225 O239 1.274 . S
C226 O240 1.267 . S
C226 O241 1.278 . S
C227 Pr217 2.880 . S
C227 C228 1.491 . S
C227 O242 1.254 . S
C227 O243 1.225 . S
C228 C227 1.491 . S
C228 C229 1.392 . S
C228 C233 1.356 . S
C229 C228 1.392 . S
C229 C230 1.368 . S
C229 H252 0.929 . S
C230 C229 1.368 . S
C230 C231 1.386 . S
C230 H253 0.929 . S
C231 C230 1.386 . S
C231 C232 1.373 . S
C232 C231 1.373 . S
C232 C233 1.409 . S
C232 H254 0.931 . S
C233 C228 1.356 . S
C233 C232 1.409 . S
C233 H255 0.930 . S
C234 O244 1.270 1_455 S
C234 O245 1.248 . S
C235 O246 1.267 . S
C235 O247 1.278 . S
O236 Pr216 2.562 . S
O236 C218 1.254 . S
O237 Pr216 2.490 . S
O237 C218 1.225 . S
O238 Pr216 2.695 1_455 S
O238 Pr217 2.436 . S
O238 C225 1.255 1_455 S
O239 Pr216 2.512 . S
O239 C225 1.274 . S
O240 Pr217 2.438 1_655 S
O240 C226 1.267 . S
O241 Pr216 2.437 . S
O241 C226 1.278 . S
O242 Pr217 2.562 . S
O242 C227 1.254 . S
O243 Pr217 2.490 . S
O243 C227 1.225 . S
O244 Pr216 2.436 . S
O244 Pr217 2.695 1_655 S
O244 C234 1.270 1_655 S
O245 Pr217 2.512 . S
O245 C234 1.248 . S
O246 Pr216 2.438 1_455 S
O246 C235 1.267 . S
O247 Pr217 2.437 . S
O247 C235 1.278 . S
H248 C220 0.929 . S
H249 C221 0.929 . S
H250 C223 0.931 . S
H251 C224 0.930 . S
H252 C229 0.929 . S
H253 C230 0.929 . S
H254 C232 0.931 . S
H255 C233 0.930 . S
H256 C264 0.929 . S
H257 C266 0.930 . S
H258 C268 0.930 . S
H259 C271 0.929 . S
H260 C274 0.929 1_565 S
H261 C276 0.960 . S
H262 C276 0.960 . S
H263 C276 0.960 1_565 S
C264 H256 0.929 . S
C264 C265 1.418 . S
C264 C266 1.384 . S
C265 C264 1.418 . S
C265 C271 1.351 1_545 S
C266 H257 0.930 . S
C266 C264 1.384 . S
C266 C267 1.372 . S
C267 C266 1.372 . S
C267 C268 1.400 1_545 S
C267 C272 1.490 . S
C268 H258 0.930 . S
C268 C267 1.400 1_565 S
C268 C271 1.386 . S
H269 C285 0.930 . S
H270 C286 0.931 . S
C271 H259 0.929 . S
C271 C265 1.351 1_565 S
C271 C268 1.386 . S
C272 C267 1.490 . S
C272 C274 1.396 . S
C272 C275 1.403 . S
H273 C279 0.930 . S
C274 H260 0.929 1_545 S
C274 C272 1.396 . S
C274 C277 1.403 1_545 S
C275 C272 1.403 . S
C275 C276 1.524 . S
C275 C279 1.400 . S
C276 H261 0.960 . S
C276 H262 0.960 . S
C276 H263 0.960 1_545 S
C276 C275 1.524 . S
C277 C274 1.403 1_565 S
C277 C278 1.393 1_565 S
C277 C281 1.495 . S
C278 C277 1.393 1_545 S
C278 C279 1.385 . S
C278 C280 1.479 . S
C279 H273 0.930 . S
C279 C275 1.400 . S
C279 C278 1.385 . S
C280 C278 1.479 . S
C280 C282 1.416 . S
C280 C286 1.348 1_545 S
C281 C277 1.495 . S
C281 H287 0.959 . S
C281 H288 0.961 . S
C281 H289 0.960 1_565 S
C282 C280 1.416 . S
C282 C283 1.394 . S
C282 H290 0.930 . S
C283 C282 1.394 . S
C283 C284 1.428 . S
C283 H291 0.929 . S
C284 C283 1.428 . S
C284 C285 1.333 1_545 S
C285 H269 0.930 . S
C285 C284 1.333 1_565 S
C285 C286 1.379 . S
C286 H270 0.931 . S
C286 C280 1.348 1_565 S
C286 C285 1.379 . S
H287 C281 0.959 . S
H288 C281 0.961 . S
H289 C281 0.960 1_545 S
H290 C282 0.930 . S
H291 C283 0.929 . S
H292 C300 0.929 . S
H293 C302 0.930 . S
H294 C304 0.930 . S
H295 C307 0.929 . S
H296 C310 0.930 . S
H297 C312 0.960 . S
H298 C312 0.960 . S
H299 C312 0.960 . S
C300 H292 0.929 . S
C300 C301 1.377 . S
C300 C302 1.384 . S
C301 C300 1.377 . S
C301 C307 1.390 . S
C302 H293 0.930 . S
C302 C300 1.384 . S
C302 C303 1.372 . S
C303 C302 1.372 . S
C303 C304 1.400 . S
C303 C308 1.490 . S
C304 H294 0.930 . S
C304 C303 1.400 . S
C304 C307 1.386 . S
H305 C321 0.930 . S
H306 C322 0.931 . S
C307 H295 0.929 . S
C307 C301 1.390 . S
C307 C304 1.386 . S
C308 C303 1.490 . S
C308 C310 1.395 . S
C308 C311 1.403 . S
H309 C315 0.930 . S
C310 H296 0.930 . S
C310 C308 1.395 . S
C310 C313 1.403 . S
C311 C308 1.403 . S
C311 C312 1.524 . S
C311 C315 1.400 . S
C312 H297 0.960 . S
C312 H298 0.960 . S
C312 H299 0.960 . S
C312 C311 1.524 . S
C313 C310 1.403 . S
C313 C314 1.392 . S
C313 C317 1.495 . S
C314 C313 1.392 . S
C314 C315 1.385 . S
C314 C316 1.478 . S
C315 H309 0.930 . S
C315 C311 1.400 . S
C315 C314 1.385 . S
C316 C314 1.478 . S
C316 C318 1.381 . S
C316 C322 1.383 . S
C317 C313 1.495 . S
C317 H323 0.959 . S
C317 H324 0.961 . S
C317 H325 0.960 . S
C318 C316 1.381 . S
C318 C319 1.394 . S
C318 H326 0.930 . S
C319 C318 1.394 . S
C319 C320 1.383 . S
C319 H327 0.929 . S
C320 C319 1.383 . S
C320 C321 1.377 . S
C321 H305 0.930 . S
C321 C320 1.377 . S
C321 C322 1.379 . S
C322 H306 0.931 . S
C322 C316 1.383 . S
C322 C321 1.379 . S
H323 C317 0.959 . S
H324 C317 0.961 . S
H325 C317 0.960 . S
H326 C318 0.930 . S
H327 C319 0.929 . S
H328 C336 0.929 . S
H329 C338 0.930 . S
H330 C340 0.930 . S
H331 C343 0.929 . S
H332 C346 0.930 . S
H333 C348 0.960 . S
H334 C348 0.960 . S
H335 C348 0.960 . S
C336 H328 0.929 . S
C336 C337 1.377 . S
C336 C338 1.384 . S
C337 C336 1.377 . S
C337 C343 1.390 . S
C338 H329 0.930 . S
C338 C336 1.384 . S
C338 C339 1.372 . S
C339 C338 1.372 . S
C339 C340 1.400 . S
C339 C344 1.490 . S
C340 H330 0.930 . S
C340 C339 1.400 . S
C340 C343 1.386 . S
H341 C357 0.930 . S
H342 C358 0.931 . S
C343 H331 0.929 . S
C343 C337 1.390 . S
C343 C340 1.386 . S
C344 C339 1.490 . S
C344 C346 1.395 . S
C344 C347 1.403 . S
H345 C351 0.930 . S
C346 H332 0.930 . S
C346 C344 1.395 . S
C346 C349 1.403 . S
C347 C344 1.403 . S
C347 C348 1.524 . S
C347 C351 1.400 . S
C348 H333 0.960 . S
C348 H334 0.960 . S
C348 H335 0.960 . S
C348 C347 1.524 . S
C349 C346 1.403 . S
C349 C350 1.392 . S
C349 C353 1.495 . S
C350 C349 1.392 . S
C350 C351 1.385 . S
C350 C352 1.478 . S
C351 H345 0.930 . S
C351 C347 1.400 . S
C351 C350 1.385 . S
C352 C350 1.478 . S
C352 C354 1.381 . S
C352 C358 1.383 . S
C353 C349 1.495 . S
C353 H359 0.959 . S
C353 H360 0.961 . S
C353 H361 0.960 . S
C354 C352 1.381 . S
C354 C355 1.394 . S
C354 H362 0.930 . S
C355 C354 1.394 . S
C355 C356 1.383 . S
C355 H363 0.929 . S
C356 C355 1.383 . S
C356 C357 1.377 . S
C357 H341 0.930 . S
C357 C356 1.377 . S
C357 C358 1.379 . S
C358 H342 0.931 . S
C358 C352 1.383 . S
C358 C357 1.379 . S
H359 C353 0.959 . S
H360 C353 0.961 . S
H361 C353 0.960 . S
H362 C354 0.930 . S
H363 C355 0.929 . S
H364 C372 0.929 . S
H365 C374 0.930 . S
H366 C376 0.930 . S
H367 C379 0.929 . S
H368 C382 0.930 . S
H369 C384 0.960 . S
H370 C384 0.960 . S
H371 C384 0.960 . S
C372 H364 0.929 . S
C372 C373 1.355 1_655 S
C372 C374 1.384 . S
C373 C372 1.355 1_455 S
C373 C379 1.412 . S
C374 H365 0.930 . S
C374 C372 1.384 . S
C374 C375 1.380 . S
C375 C374 1.380 . S
C375 C376 1.391 1_655 S
C375 C380 1.490 . S
C376 H366 0.930 . S
C376 C375 1.391 1_455 S
C376 C379 1.386 . S
H377 C393 0.930 . S
H378 C394 0.931 . S
C379 H367 0.929 . S
C379 C373 1.412 . S
C379 C376 1.386 . S
C380 C375 1.490 . S
C380 C382 1.403 . S
C380 C383 1.395 1_655 S
H381 C387 0.930 . S
C382 H368 0.930 . S
C382 C380 1.403 . S
C382 C385 1.403 . S
C383 C380 1.395 1_455 S
C383 C384 1.524 . S
C383 C387 1.400 . S
C384 H369 0.960 . S
C384 H370 0.960 . S
C384 H371 0.960 . S
C384 C383 1.524 . S
C385 C382 1.403 . S
C385 C386 1.413 . S
C385 C389 1.495 . S
C386 C385 1.413 . S
C386 C387 1.366 1_655 S
C386 C388 1.477 . S
C387 H381 0.930 . S
C387 C383 1.400 . S
C387 C386 1.366 1_455 S
C388 C386 1.477 . S
C388 C390 1.401 . S
C388 C394 1.362 1_655 S
C389 C385 1.495 . S
C389 H395 0.959 . S
C389 H396 0.961 . S
C389 H397 0.960 . S
C390 C388 1.401 . S
C390 C391 1.394 . S
C390 H398 0.930 . S
C391 C390 1.394 . S
C391 C392 1.338 1_655 S
C391 H399 0.929 . S
C392 C391 1.338 1_455 S
C392 C393 1.420 . S
C393 H377 0.930 . S
C393 C392 1.420 . S
C393 C394 1.379 . S
C394 H378 0.931 . S
C394 C388 1.362 1_455 S
C394 C393 1.379 . S
H395 C389 0.959 . S
H396 C389 0.961 . S
H397 C389 0.960 . S
H398 C390 0.930 . S
H399 C391 0.929 . S
H400 C408 0.929 . S
H401 C410 0.930 . S
H402 C412 0.930 . S
H403 C415 0.929 . S
H404 C418 0.930 . S
H405 C420 0.965 . S
H406 C420 0.918 1_544 S
H407 C420 1.000 1_554 S
C408 H400 0.929 . S
C408 C409 1.375 1_545 S
C408 C410 1.384 . S
C409 C408 1.375 1_565 S
C409 C415 1.392 . S
C410 H401 0.930 . S
C410 C408 1.384 . S
C410 C411 1.392 . S
C411 C410 1.392 . S
C411 C412 1.379 1_545 S
C411 C416 1.490 . S
C412 H402 0.930 . S
C412 C411 1.379 1_565 S
C412 C415 1.386 . S
H413 C429 0.930 . S
H414 C430 0.931 . S
C415 H403 0.929 . S
C415 C409 1.392 . S
C415 C412 1.386 . S
C416 C411 1.490 . S
C416 C418 1.396 . S
C416 C419 1.401 1_545 S
H417 C423 0.937 . S
C418 H404 0.930 . S
C418 C416 1.396 . S
C418 C421 1.403 . S
C419 C416 1.401 1_565 S
C419 C420 1.524 1_554 S
C419 C423 1.400 1_554 S
C420 H405 0.965 . S
C420 H406 0.918 1_566 S
C420 H407 1.000 1_556 S
C420 C419 1.524 1_556 S
C421 C418 1.403 . S
C421 C422 1.392 . S
C421 C425 1.495 . S
C422 C421 1.392 . S
C422 C423 1.383 1_544 S
C422 C424 1.477 1_544 S
C423 H417 0.937 . S
C423 C419 1.400 1_556 S
C423 C422 1.383 1_566 S
C424 C422 1.477 1_566 S
C424 C426 1.356 1_565 S
C424 C430 1.409 . S
C425 C421 1.495 . S
C425 H431 0.959 . S
C425 H432 0.961 1_545 S
C425 H433 0.960 . S
C426 C424 1.356 1_545 S
C426 C427 1.394 . S
C426 H434 0.930 . S
C427 C426 1.394 . S
C427 C428 1.383 1_545 S
C427 H435 0.929 . S
C428 C427 1.383 1_565 S
C428 C429 1.377 . S
C429 H413 0.930 . S
C429 C428 1.377 . S
C429 C430 1.379 . S
C430 H414 0.931 . S
C430 C424 1.409 . S
C430 C429 1.379 . S
H431 C425 0.959 . S
H432 C425 0.961 1_565 S
H433 C425 0.960 . S
H434 C426 0.930 . S
H435 C427 0.929 . S
H436 C444 0.929 . S
H437 C446 0.930 . S
H438 C448 0.930 . S
H439 C451 0.929 . S
H440 C454 0.930 . S
H441 C456 0.960 . S
H442 C456 0.960 . S
H443 C456 0.960 . S
C444 H436 0.929 . S
C444 C445 1.377 . S
C444 C446 1.384 . S
C445 C444 1.377 . S
C445 C451 1.390 . S
C446 H437 0.930 . S
C446 C444 1.384 . S
C446 C447 1.372 . S
C447 C446 1.372 . S
C447 C448 1.400 . S
C447 C452 1.490 . S
C448 H438 0.930 . S
C448 C447 1.400 . S
C448 C451 1.386 . S
H449 C465 0.930 . S
H450 C466 0.931 . S
C451 H439 0.929 . S
C451 C445 1.390 . S
C451 C448 1.386 . S
C452 C447 1.490 . S
C452 C454 1.395 . S
C452 C455 1.403 . S
H453 C459 0.930 . S
C454 H440 0.930 . S
C454 C452 1.395 . S
C454 C457 1.403 1_554 S
C455 C452 1.403 . S
C455 C456 1.524 . S
C455 C459 1.400 . S
C456 H441 0.960 . S
C456 H442 0.960 . S
C456 H443 0.960 . S
C456 C455 1.524 . S
C457 C454 1.403 1_556 S
C457 C458 1.392 . S
C457 C461 1.495 . S
C458 C457 1.392 . S
C458 C459 1.385 1_556 S
C458 C460 1.478 . S
C459 H453 0.930 . S
C459 C455 1.400 . S
C459 C458 1.385 1_554 S
C460 C458 1.478 . S
C460 C462 1.381 . S
C460 C466 1.383 . S
C461 C457 1.495 . S
C461 H467 0.959 . S
C461 H468 0.961 . S
C461 H469 0.960 . S
C462 C460 1.381 . S
C462 C463 1.394 . S
C462 H470 0.930 . S
C463 C462 1.394 . S
C463 C464 1.383 . S
C463 H471 0.929 . S
C464 C463 1.383 . S
C464 C465 1.377 . S
C465 H449 0.930 . S
C465 C464 1.377 . S
C465 C466 1.379 . S
C466 H450 0.931 . S
C466 C460 1.383 . S
C466 C465 1.379 . S
H467 C461 0.959 . S
H468 C461 0.961 . S
H469 C461 0.960 . S
H470 C462 0.930 . S
H471 C463 0.929 . S
H472 C480 0.929 . S
H473 C482 0.930 . S
H474 C484 0.930 . S
H475 C487 0.929 . S
H476 C490 0.930 . S
H477 C492 0.960 . S
H478 C492 0.960 . S
H479 C492 0.960 . S
C480 H472 0.929 . S
C480 C481 1.377 . S
C480 C482 1.384 . S
C481 C480 1.377 . S
C481 C487 1.390 . S
C482 H473 0.930 . S
C482 C480 1.384 . S
C482 C483 1.372 . S
C483 C482 1.372 . S
C483 C484 1.400 . S
C483 C488 1.490 . S
C484 H474 0.930 . S
C484 C483 1.400 . S
C484 C487 1.386 . S
H485 C501 0.930 . S
H486 C502 0.931 . S
C487 H475 0.929 . S
C487 C481 1.390 . S
C487 C484 1.386 . S
C488 C483 1.490 . S
C488 C490 1.395 . S
C488 C491 1.403 . S
H489 C495 0.930 . S
C490 H476 0.930 . S
C490 C488 1.395 . S
C490 C493 1.403 1_554 S
C491 C488 1.403 . S
C491 C492 1.524 . S
C491 C495 1.400 . S
C492 H477 0.960 . S
C492 H478 0.960 . S
C492 H479 0.960 . S
C492 C491 1.524 . S
C493 C490 1.403 1_556 S
C493 C494 1.392 . S
C493 C497 1.495 . S
C494 C493 1.392 . S
C494 C495 1.385 1_556 S
C494 C496 1.478 . S
C495 H489 0.930 . S
C495 C491 1.400 . S
C495 C494 1.385 1_554 S
C496 C494 1.478 . S
C496 C498 1.381 . S
C496 C502 1.383 . S
C497 C493 1.495 . S
C497 H503 0.959 . S
C497 H504 0.961 . S
C497 H505 0.960 . S
C498 C496 1.381 . S
C498 C499 1.394 . S
C498 H506 0.930 . S
C499 C498 1.394 . S
C499 C500 1.383 . S
C499 H507 0.929 . S
C500 C499 1.383 . S
C500 C501 1.377 . S
C501 H485 0.930 . S
C501 C500 1.377 . S
C501 C502 1.379 . S
C502 H486 0.931 . S
C502 C496 1.383 . S
C502 C501 1.379 . S
H503 C497 0.959 . S
H504 C497 0.961 . S
H505 C497 0.960 . S
H506 C498 0.930 . S
H507 C499 0.929 . S
H508 C516 0.929 . S
H509 C518 0.930 . S
H510 C520 0.930 . S
H511 C523 0.929 . S
H512 C526 0.930 . S
H513 C528 0.960 . S
H514 C528 0.960 . S
H515 C528 0.960 . S
C516 H508 0.929 . S
C516 C517 1.407 . S
C516 C518 1.384 . S
C517 C516 1.407 . S
C517 C523 1.361 1_655 S
C518 H509 0.930 . S
C518 C516 1.384 . S
C518 C519 1.372 . S
C519 C518 1.372 . S
C519 C520 1.400 1_655 S
C519 C524 1.490 . S
C520 H510 0.930 . S
C520 C519 1.400 1_455 S
C520 C523 1.386 . S
H521 C537 0.930 . S
H522 C538 0.931 . S
C523 H511 0.929 . S
C523 C517 1.361 1_455 S
C523 C520 1.386 . S
C524 C519 1.490 . S
C524 C526 1.395 . S
C524 C527 1.403 1_655 S
H525 C531 0.930 . S
C526 H512 0.930 . S
C526 C524 1.395 . S
C526 C529 1.403 1_554 S
C527 C524 1.403 1_455 S
C527 C528 1.524 . S
C527 C531 1.400 . S
C528 H513 0.960 . S
C528 H514 0.960 . S
C528 H515 0.960 . S
C528 C527 1.524 . S
C529 C526 1.403 1_556 S
C529 C530 1.392 . S
C529 C533 1.495 . S
C530 C529 1.392 . S
C530 C531 1.385 1_656 S
C530 C532 1.478 . S
C531 H525 0.930 . S
C531 C527 1.400 . S
C531 C530 1.385 1_454 S
C532 C530 1.478 . S
C532 C534 1.381 . S
C532 C538 1.383 1_655 S
C533 C529 1.495 . S
C533 H539 0.959 . S
C533 H540 0.961 . S
C533 H541 0.960 . S
C534 C532 1.381 . S
C534 C535 1.394 . S
C534 H542 0.930 . S
C535 C534 1.394 . S
C535 C536 1.383 . S
C535 H543 0.929 . S
C536 C535 1.383 . S
C536 C537 1.377 1_655 S
C537 H521 0.930 . S
C537 C536 1.377 1_455 S
C537 C538 1.379 . S
C538 H522 0.931 . S
C538 C532 1.383 1_455 S
C538 C537 1.379 . S
H539 C533 0.959 . S
H540 C533 0.961 . S
H541 C533 0.960 . S
H542 C534 0.930 . S
H543 C535 0.929 . S
H544 C552 0.932 . S
H545 C554 0.930 . S
H546 C556 0.930 . S
H547 C559 0.928 . S
H548 C562 0.930 . S
H549 C564 0.960 . S
H550 C564 0.960 . S
H551 C564 0.960 . S
C552 H544 0.932 . S
C552 C553 1.379 . S
C552 C554 1.380 1_455 S
C553 C552 1.379 . S
C553 C559 1.384 1_455 S
C554 H545 0.930 . S
C554 C552 1.380 1_655 S
C554 C555 1.372 . S
C555 C554 1.372 . S
C555 C556 1.400 . S
C555 C560 1.490 . S
C556 H546 0.930 . S
C556 C555 1.400 . S
C556 C559 1.396 . S
H557 C573 0.930 . S
H558 C574 0.931 . S
C559 H547 0.928 . S
C559 C553 1.384 1_655 S
C559 C556 1.396 . S
C560 C555 1.490 . S
C560 C562 1.395 1_655 S
C560 C563 1.403 . S
H561 C567 0.930 . S
C562 H548 0.930 . S
C562 C560 1.395 1_455 S
C562 C565 1.403 . S
C563 C560 1.403 . S
C563 C564 1.524 . S
C563 C567 1.400 . S
C564 H549 0.960 . S
C564 H550 0.960 . S
C564 H551 0.960 . S
C564 C563 1.524 . S
C565 C562 1.403 . S
C565 C566 1.392 1_455 S
C565 C569 1.495 . S
C566 C565 1.392 1_655 S
C566 C567 1.385 . S
C566 C568 1.478 . S
C567 H561 0.930 . S
C567 C563 1.400 . S
C567 C566 1.385 . S
C568 C566 1.478 . S
C568 C570 1.381 . S
C568 C574 1.383 . S
C569 C565 1.495 . S
C569 H575 0.959 . S
C569 H576 0.961 . S
C569 H577 0.960 . S
C570 C568 1.381 . S
C570 C571 1.394 . S
C570 H578 0.930 . S
C571 C570 1.394 . S
C571 C572 1.383 . S
C571 H579 0.929 . S
C572 C571 1.383 . S
C572 C573 1.377 . S
C573 H557 0.930 . S
C573 C572 1.377 . S
C573 C574 1.379 . S
C574 H558 0.931 . S
C574 C568 1.383 . S
C574 C573 1.379 . S
H575 C569 0.959 . S
H576 C569 0.961 . S
H577 C569 0.960 . S
H578 C570 0.930 . S
H579 C571 0.929 . S
H580 C588 0.929 . S
H581 C590 0.930 . S
H582 C592 0.930 . S
H583 C595 0.929 . S
H584 C598 0.930 . S
H585 C600 0.960 . S
H586 C600 0.960 . S
H587 C600 0.960 1_565 S
C588 H580 0.929 . S
C588 C589 1.377 . S
C588 C590 1.384 . S
C589 C588 1.377 . S
C589 C595 1.390 1_545 S
C590 H581 0.930 . S
C590 C588 1.384 . S
C590 C591 1.372 1_545 S
C591 C590 1.372 1_565 S
C591 C592 1.400 . S
C591 C596 1.490 . S
C592 H582 0.930 . S
C592 C591 1.400 . S
C592 C595 1.386 . S
H593 C609 0.930 . S
H594 C610 0.931 . S
C595 H583 0.929 . S
C595 C589 1.390 1_565 S
C595 C592 1.386 . S
C596 C591 1.490 . S
C596 C598 1.395 . S
C596 C599 1.403 . S
H597 C603 0.930 . S
C598 H584 0.930 . S
C598 C596 1.395 . S
C598 C601 1.403 . S
C599 C596 1.403 . S
C599 C600 1.524 1_565 S
C599 C603 1.400 . S
C600 H585 0.960 . S
C600 H586 0.960 . S
C600 H587 0.960 1_545 S
C600 C599 1.524 1_545 S
C601 C598 1.403 . S
C601 C602 1.392 . S
C601 C605 1.495 . S
C602 C601 1.392 . S
C602 C603 1.385 . S
C602 C604 1.478 . S
C603 H597 0.930 . S
C603 C599 1.400 . S
C603 C602 1.385 . S
C604 C602 1.478 . S
C604 C606 1.381 . S
C604 C610 1.383 . S
C605 C601 1.495 . S
C605 H611 0.959 . S
C605 H612 0.961 . S
C605 H613 0.960 . S
C606 C604 1.381 . S
C606 C607 1.394 . S
C606 H614 0.930 . S
C607 C606 1.394 . S
C607 C608 1.383 . S
C607 H615 0.929 . S
C608 C607 1.383 . S
C608 C609 1.377 . S
C609 H593 0.930 . S
C609 C608 1.377 . S
C609 C610 1.379 . S
C610 H594 0.931 . S
C610 C604 1.383 . S
C610 C609 1.379 . S
H611 C605 0.959 . S
H612 C605 0.961 . S
H613 C605 0.960 . S
H614 C606 0.930 . S
H615 C607 0.929 . S
H616 C624 0.929 . S
H617 C626 0.930 . S
H618 C628 0.930 . S
H619 C631 0.929 . S
H620 C634 0.930 . S
H621 C636 0.960 . S
H622 C636 0.960 . S
H623 C636 0.960 . S
C624 H616 0.929 . S
C624 C625 1.377 . S
C624 C626 1.384 . S
C625 C624 1.377 . S
C625 C631 1.390 . S
C626 H617 0.930 . S
C626 C624 1.384 . S
C626 C627 1.372 . S
C627 C626 1.372 . S
C627 C628 1.400 . S
C627 C632 1.490 . S
C628 H618 0.930 . S
C628 C627 1.400 . S
C628 C631 1.386 . S
H629 C645 0.930 . S
H630 C646 0.931 . S
C631 H619 0.929 . S
C631 C625 1.390 . S
C631 C628 1.386 . S
C632 C627 1.490 . S
C632 C634 1.395 . S
C632 C635 1.403 . S
H633 C639 0.930 . S
C634 H620 0.930 . S
C634 C632 1.395 . S
C634 C637 1.403 . S
C635 C632 1.403 . S
C635 C636 1.524 . S
C635 C639 1.400 . S
C636 H621 0.960 . S
C636 H622 0.960 . S
C636 H623 0.960 . S
C636 C635 1.524 . S
C637 C634 1.403 . S
C637 C638 1.392 . S
C637 C641 1.495 . S
C638 C637 1.392 . S
C638 C639 1.385 . S
C638 C640 1.478 . S
C639 H633 0.930 . S
C639 C635 1.400 . S
C639 C638 1.385 . S
C640 C638 1.478 . S
C640 C642 1.381 . S
C640 C646 1.383 . S
C641 C637 1.495 . S
C641 H647 0.959 . S
C641 H648 0.961 . S
C641 H649 0.960 . S
C642 C640 1.381 . S
C642 C643 1.394 . S
C642 H650 0.930 . S
C643 C642 1.394 . S
C643 C644 1.383 . S
C643 H651 0.929 . S
C644 C643 1.383 . S
C644 C645 1.377 . S
C645 H629 0.930 . S
C645 C644 1.377 . S
C645 C646 1.379 . S
C646 H630 0.931 . S
C646 C640 1.383 . S
C646 C645 1.379 . S
H647 C641 0.959 . S
H648 C641 0.961 . S
H649 C641 0.960 . S
H650 C642 0.930 . S
H651 C643 0.929 . S
H652 C660 0.929 . S
H653 C662 0.930 . S
H654 C664 0.930 . S
H655 C667 0.929 . S
H656 C670 0.930 . S
H657 C672 0.960 . S
H658 C672 0.960 . S
H659 C672 0.960 . S
C660 H652 0.929 . S
C660 C661 1.377 . S
C660 C662 1.384 . S
C661 C660 1.377 . S
C661 C667 1.390 . S
C662 H653 0.930 . S
C662 C660 1.384 . S
C662 C663 1.372 . S
C663 C662 1.372 . S
C663 C664 1.400 . S
C663 C668 1.490 . S
C664 H654 0.930 . S
C664 C663 1.400 . S
C664 C667 1.386 . S
H665 C681 0.930 . S
H666 C682 0.931 . S
C667 H655 0.929 . S
C667 C661 1.390 . S
C667 C664 1.386 . S
C668 C663 1.490 . S
C668 C670 1.395 . S
C668 C671 1.403 . S
H669 C675 0.930 . S
C670 H656 0.930 . S
C670 C668 1.395 . S
C670 C673 1.403 . S
C671 C668 1.403 . S
C671 C672 1.524 . S
C671 C675 1.400 . S
C672 H657 0.960 . S
C672 H658 0.960 . S
C672 H659 0.960 . S
C672 C671 1.524 . S
C673 C670 1.403 . S
C673 C674 1.392 . S
C673 C677 1.495 . S
C674 C673 1.392 . S
C674 C675 1.385 . S
C674 C676 1.478 . S
C675 H669 0.930 . S
C675 C671 1.400 . S
C675 C674 1.385 . S
C676 C674 1.478 . S
C676 C678 1.381 . S
C676 C682 1.383 . S
C677 C673 1.495 . S
C677 H683 0.959 . S
C677 H684 0.961 . S
C677 H685 0.960 . S
C678 C676 1.381 . S
C678 C679 1.394 . S
C678 H686 0.930 . S
C679 C678 1.394 . S
C679 C680 1.383 . S
C679 H687 0.929 . S
C680 C679 1.383 . S
C680 C681 1.377 . S
C681 H665 0.930 . S
C681 C680 1.377 . S
C681 C682 1.379 . S
C682 H666 0.931 . S
C682 C676 1.383 . S
C682 C681 1.379 . S
H683 C677 0.959 . S
H684 C677 0.961 . S
H685 C677 0.960 . S
H686 C678 0.930 . S
H687 C679 0.929 . S
H688 C696 0.929 . S
H689 C698 0.930 . S
H690 C700 0.930 . S
H691 C703 0.929 . S
H692 C706 0.930 . S
H693 C708 0.960 . S
H694 C708 0.960 . S
H695 C708 0.960 . S
C696 H688 0.929 . S
C696 C697 1.377 . S
C696 C698 1.384 . S
C697 C696 1.377 . S
C697 C703 1.390 1_655 S
C698 H689 0.930 . S
C698 C696 1.384 . S
C698 C699 1.372 1_655 S
C699 C698 1.372 1_455 S
C699 C700 1.400 . S
C699 C704 1.490 . S
C700 H690 0.930 . S
C700 C699 1.400 . S
C700 C703 1.386 . S
H701 C717 0.930 . S
H702 C718 0.931 . S
C703 H691 0.929 . S
C703 C697 1.390 1_455 S
C703 C700 1.386 . S
C704 C699 1.490 . S
C704 C706 1.395 1_455 S
C704 C707 1.403 . S
H705 C711 0.930 . S
C706 H692 0.930 . S
C706 C704 1.395 1_655 S
C706 C709 1.403 . S
C707 C704 1.403 . S
C707 C708 1.524 . S
C707 C711 1.400 . S
C708 H693 0.960 . S
C708 H694 0.960 . S
C708 H695 0.960 . S
C708 C707 1.524 . S
C709 C706 1.403 . S
C709 C710 1.392 1_655 S
C709 C713 1.495 . S
C710 C709 1.392 1_455 S
C710 C711 1.385 . S
C710 C712 1.478 . S
C711 H705 0.930 . S
C711 C707 1.400 . S
C711 C710 1.385 . S
C712 C710 1.478 . S
C712 C714 1.381 . S
C712 C718 1.383 . S
C713 C709 1.495 . S
C713 H719 0.959 . S
C713 H720 0.961 . S
C713 H721 0.960 . S
C714 C712 1.381 . S
C714 C715 1.394 1_554 S
C714 H722 0.930 1_454 S
C715 C714 1.394 1_556 S
C715 C716 1.383 . S
C715 H723 0.952 . S
C716 C715 1.383 . S
C716 C717 1.377 1_556 S
C717 H701 0.930 . S
C717 C716 1.377 1_554 S
C717 C718 1.379 . S
C718 H702 0.931 . S
C718 C712 1.383 . S
C718 C717 1.379 . S
H719 C713 0.959 . S
H720 C713 0.961 . S
H721 C713 0.960 . S
H722 C714 0.930 1_656 S
H723 C715 0.952 . S
H724 C732 0.929 . S
H725 C734 0.930 . S
H726 C736 0.930 . S
H727 C739 0.929 . S
H728 C742 0.930 . S
H729 C744 0.960 . S
H730 C744 0.960 . S
H731 C744 0.960 . S
C732 H724 0.929 . S
C732 C733 1.377 1_545 S
C732 C734 1.384 . S
C733 C732 1.377 1_565 S
C733 C739 1.390 . S
C734 H725 0.930 . S
C734 C732 1.384 . S
C734 C735 1.372 . S
C735 C734 1.372 . S
C735 C736 1.400 1_545 S
C735 C740 1.490 . S
C736 H726 0.930 . S
C736 C735 1.400 1_565 S
C736 C739 1.386 . S
H737 C753 0.930 . S
H738 C754 0.931 . S
C739 H727 0.929 . S
C739 C733 1.390 . S
C739 C736 1.386 . S
C740 C735 1.490 . S
C740 C742 1.395 . S
C740 C743 1.403 1_545 S
H741 C747 0.905 1_565 S
C742 H728 0.930 . S
C742 C740 1.395 . S
C742 C745 1.403 . S
C743 C740 1.403 1_565 S
C743 C744 1.524 . S
C743 C747 1.391 1_565 S
C744 H729 0.960 . S
C744 H730 0.960 . S
C744 H731 0.960 . S
C744 C743 1.524 . S
C745 C742 1.403 . S
C745 C746 1.392 . S
C745 C749 1.495 . S
C746 C745 1.392 . S
C746 C747 1.419 . S
C746 C748 1.478 . S
C747 H741 0.905 1_545 S
C747 C743 1.391 1_545 S
C747 C746 1.419 . S
C748 C746 1.478 . S
C748 C750 1.381 . S
C748 C754 1.383 1_554 S
C749 C745 1.495 . S
C749 H755 0.959 . S
C749 H756 0.961 . S
C749 H757 0.960 . S
C750 C748 1.381 . S
C750 C751 1.394 . S
C750 H758 0.930 . S
C751 C750 1.394 . S
C751 C752 1.383 1_554 S
C751 H759 0.929 . S
C752 C751 1.383 1_556 S
C752 C753 1.377 . S
C753 H737 0.930 . S
C753 C752 1.377 . S
C753 C754 1.379 . S
C754 H738 0.931 . S
C754 C748 1.383 1_556 S
C754 C753 1.379 . S
H755 C749 0.959 . S
H756 C749 0.961 . S
H757 C749 0.960 . S
H758 C750 0.930 . S
H759 C751 0.929 . S
H760 C768 0.929 . S
H761 C770 0.930 . S
H762 C772 0.930 . S
H763 C775 0.929 . S
H764 C778 0.930 . S
H765 C780 0.960 . S
H766 C780 0.960 . S
H767 C780 0.960 . S
C768 H760 0.929 . S
C768 C769 1.377 . S
C768 C770 1.384 . S
C769 C768 1.377 . S
C769 C775 1.390 . S
C770 H761 0.930 . S
C770 C768 1.384 . S
C770 C771 1.372 . S
C771 C770 1.372 . S
C771 C772 1.400 . S
C771 C776 1.490 . S
C772 H762 0.930 . S
C772 C771 1.400 . S
C772 C775 1.386 . S
H773 C789 0.930 . S
H774 C790 0.931 . S
C775 H763 0.929 . S
C775 C769 1.390 . S
C775 C772 1.386 . S
C776 C771 1.490 . S
C776 C778 1.395 . S
C776 C779 1.403 . S
H777 C783 0.930 . S
C778 H764 0.930 . S
C778 C776 1.395 . S
C778 C781 1.403 . S
C779 C776 1.403 . S
C779 C780 1.524 . S
C779 C783 1.400 . S
C780 H765 0.960 . S
C780 H766 0.960 . S
C780 H767 0.960 . S
C780 C779 1.524 . S
C781 C778 1.403 . S
C781 C782 1.392 . S
C781 C785 1.495 . S
C782 C781 1.392 . S
C782 C783 1.385 . S
C782 C784 1.478 . S
C783 H777 0.930 . S
C783 C779 1.400 . S
C783 C782 1.385 . S
C784 C782 1.478 . S
C784 C786 1.381 . S
C784 C790 1.383 . S
C785 C781 1.495 . S
C785 H791 0.959 . S
C785 H792 0.961 . S
C785 H793 0.960 . S
C786 C784 1.381 . S
C786 C787 1.394 1_554 S
C786 H794 0.930 . S
C787 C786 1.394 1_556 S
C787 C788 1.383 . S
C787 H795 0.929 . S
C788 C787 1.383 . S
C788 C789 1.377 1_556 S
C789 H773 0.930 . S
C789 C788 1.377 1_554 S
C789 C790 1.379 . S
C790 H774 0.931 . S
C790 C784 1.383 . S
C790 C789 1.379 . S
H791 C785 0.959 . S
H792 C785 0.961 . S
H793 C785 0.960 . S
H794 C786 0.930 . S
H795 C787 0.929 . S
H796 C804 0.929 . S
H797 C806 0.930 . S
H798 C808 0.930 . S
H799 C811 0.929 . S
H800 C814 0.930 . S
H801 C816 0.960 . S
H802 C816 0.960 . S
H803 C816 0.960 . S
C804 H796 0.929 . S
C804 C805 1.377 . S
C804 C806 1.384 . S
C805 C804 1.377 . S
C805 C811 1.390 . S
C806 H797 0.930 . S
C806 C804 1.384 . S
C806 C807 1.372 . S
C807 C806 1.372 . S
C807 C808 1.400 . S
C807 C812 1.490 . S
C808 H798 0.930 . S
C808 C807 1.400 . S
C808 C811 1.386 . S
H809 C825 0.930 . S
H810 C826 0.931 . S
C811 H799 0.929 . S
C811 C805 1.390 . S
C811 C808 1.386 . S
C812 C807 1.490 . S
C812 C814 1.395 . S
C812 C815 1.403 . S
H813 C819 0.930 . S
C814 H800 0.930 . S
C814 C812 1.395 . S
C814 C817 1.403 . S
C815 C812 1.403 . S
C815 C816 1.524 . S
C815 C819 1.400 . S
C816 H801 0.960 . S
C816 H802 0.960 . S
C816 H803 0.960 . S
C816 C815 1.524 . S
C817 C814 1.403 . S
C817 C818 1.392 . S
C817 C821 1.495 . S
C818 C817 1.392 . S
C818 C819 1.385 . S
C818 C820 1.478 . S
C819 H813 0.930 . S
C819 C815 1.400 . S
C819 C818 1.385 . S
C820 C818 1.478 . S
C820 C822 1.381 . S
C820 C826 1.383 1_554 S
C821 C817 1.495 . S
C821 H827 0.959 . S
C821 H828 0.961 . S
C821 H829 0.960 . S
C822 C820 1.381 . S
C822 C823 1.394 . S
C822 H830 0.930 . S
C823 C822 1.394 . S
C823 C824 1.383 1_554 S
C823 H831 0.929 . S
C824 C823 1.383 1_556 S
C824 C825 1.377 . S
C825 H809 0.930 . S
C825 C824 1.377 . S
C825 C826 1.379 . S
C826 H810 0.931 . S
C826 C820 1.383 1_556 S
C826 C825 1.379 . S
H827 C821 0.959 . S
H828 C821 0.961 . S
H829 C821 0.960 . S
H830 C822 0.930 . S
H831 C823 0.929 . S
H832 C840 0.929 . S
H833 C842 0.930 . S
H834 C844 0.930 . S
H835 C847 0.929 . S
H836 C850 0.930 . S
H837 C852 0.960 . S
H838 C852 0.960 . S
H839 C852 0.960 1_655 S
C840 H832 0.929 . S
C840 C841 1.377 . S
C840 C842 1.384 . S
C841 C840 1.377 . S
C841 C847 1.390 1_455 S
C842 H833 0.930 . S
C842 C840 1.384 . S
C842 C843 1.372 . S
C843 C842 1.372 . S
C843 C844 1.400 1_455 S
C843 C848 1.490 . S
C844 H834 0.930 . S
C844 C843 1.400 1_655 S
C844 C847 1.386 . S
H845 C861 0.930 . S
H846 C862 0.931 . S
C847 H835 0.929 . S
C847 C841 1.390 1_655 S
C847 C844 1.386 . S
C848 C843 1.490 . S
C848 C850 1.395 . S
C848 C851 1.403 . S
H849 C855 0.930 . S
C850 H836 0.930 . S
C850 C848 1.395 . S
C850 C853 1.403 . S
C851 C848 1.403 . S
C851 C852 1.524 . S
C851 C855 1.400 . S
C852 H837 0.960 . S
C852 H838 0.960 . S
C852 H839 0.960 1_455 S
C852 C851 1.524 . S
C853 C850 1.403 . S
C853 C854 1.392 . S
C853 C857 1.495 . S
C854 C853 1.392 . S
C854 C855 1.385 . S
C854 C856 1.478 . S
C855 H849 0.930 . S
C855 C851 1.400 . S
C855 C854 1.385 . S
C856 C854 1.478 . S
C856 C858 1.381 . S
C856 C862 1.383 1_455 S
C857 C853 1.495 . S
C857 H863 0.959 1_556 S
C857 H864 0.923 1_455 S
C857 H865 0.960 . S
C858 C856 1.381 . S
C858 C859 1.394 . S
C858 H866 0.930 . S
C859 C858 1.394 . S
C859 C860 1.383 . S
C859 H867 0.929 . S
C860 C859 1.383 . S
C860 C861 1.377 1_455 S
C861 H845 0.930 . S
C861 C860 1.377 1_655 S
C861 C862 1.379 . S
C862 H846 0.931 . S
C862 C856 1.383 1_655 S
C862 C861 1.379 . S
H863 C857 0.959 1_554 S
H864 C857 0.923 1_655 S
H865 C857 0.960 . S
H866 C858 0.930 . S
H867 C859 0.929 . S
H868 C876 0.929 . S
H869 C878 0.930 . S
H870 C880 0.930 . S
H871 C883 0.929 . S
H872 C886 0.931 . S
H873 C888 0.960 1_554 S
H874 C888 0.960 1_564 S
H875 C888 0.960 1_554 S
C876 H868 0.929 . S
C876 C877 1.377 1_565 S
C876 C878 1.384 . S
C877 C876 1.377 1_545 S
C877 C883 1.390 . S
C878 H869 0.930 . S
C878 C876 1.384 . S
C878 C879 1.372 1_565 S
C879 C878 1.372 1_545 S
C879 C880 1.400 . S
C879 C884 1.490 . S
C880 H870 0.930 . S
C880 C879 1.400 . S
C880 C883 1.386 . S
H881 C897 0.930 . S
H882 C898 0.931 . S
C883 H871 0.929 . S
C883 C877 1.390 . S
C883 C880 1.386 . S
C884 C879 1.490 . S
C884 C886 1.395 . S
C884 C887 1.403 . S
H885 C891 0.930 . S
C886 H872 0.931 . S
C886 C884 1.395 . S
C886 C889 1.403 . S
C887 C884 1.403 . S
C887 C888 1.524 . S
C887 C891 1.400 . S
C888 H873 0.960 1_556 S
C888 H874 0.960 1_546 S
C888 H875 0.960 1_556 S
C888 C887 1.524 . S
C889 C886 1.403 . S
C889 C890 1.392 . S
C889 C893 1.495 . S
C890 C889 1.392 . S
C890 C891 1.385 . S
C890 C892 1.478 . S
C891 H885 0.930 . S
C891 C887 1.400 . S
C891 C890 1.385 . S
C892 C890 1.478 . S
C892 C894 1.381 1_545 S
C892 C898 1.383 . S
C893 C889 1.495 . S
C893 H899 0.959 . S
C893 H900 0.961 . S
C893 H901 0.960 1_545 S
C894 C892 1.381 1_565 S
C894 C895 1.394 . S
C894 H902 0.930 . S
C895 C894 1.394 . S
C895 C896 1.383 1_565 S
C895 H903 0.929 . S
C896 C895 1.383 1_545 S
C896 C897 1.377 . S
C897 H881 0.930 . S
C897 C896 1.377 . S
C897 C898 1.379 . S
C898 H882 0.931 . S
C898 C892 1.383 . S
C898 C897 1.379 . S
H899 C893 0.959 . S
H900 C893 0.961 . S
H901 C893 0.960 1_565 S
H902 C894 0.930 . S
H903 C895 0.929 . S
H904 C912 0.929 . S
H905 C914 0.930 . S
H906 C916 0.930 . S
H907 C919 0.929 . S
H908 C922 0.930 . S
H909 C924 0.960 1_554 S
H910 C924 0.960 1_554 S
H911 C924 0.960 . S
C912 H904 0.929 . S
C912 C913 1.377 . S
C912 C914 1.384 . S
C913 C912 1.377 . S
C913 C919 1.390 . S
C914 H905 0.930 . S
C914 C912 1.384 . S
C914 C915 1.372 . S
C915 C914 1.372 . S
C915 C916 1.400 . S
C915 C920 1.490 . S
C916 H906 0.930 . S
C916 C915 1.400 . S
C916 C919 1.386 . S
H917 C933 0.930 . S
H918 C934 0.931 . S
C919 H907 0.929 . S
C919 C913 1.390 . S
C919 C916 1.386 . S
C920 C915 1.490 . S
C920 C922 1.395 . S
C920 C923 1.403 . S
H921 C927 0.930 . S
C922 H908 0.930 . S
C922 C920 1.395 . S
C922 C925 1.403 . S
C923 C920 1.403 . S
C923 C924 1.524 . S
C923 C927 1.400 . S
C924 H909 0.960 1_556 S
C924 H910 0.960 1_556 S
C924 H911 0.960 . S
C924 C923 1.524 . S
C925 C922 1.403 . S
C925 C926 1.392 . S
C925 C929 1.495 . S
C926 C925 1.392 . S
C926 C927 1.385 . S
C926 C928 1.478 . S
C927 H921 0.930 . S
C927 C923 1.400 . S
C927 C926 1.385 . S
C928 C926 1.478 . S
C928 C930 1.381 . S
C928 C934 1.383 . S
C929 C925 1.495 . S
C929 H935 0.959 . S
C929 H936 0.961 . S
C929 H937 0.960 . S
C930 C928 1.381 . S
C930 C931 1.394 . S
C930 H938 0.930 . S
C931 C930 1.394 . S
C931 C932 1.383 . S
C931 H939 0.929 . S
C932 C931 1.383 . S
C932 C933 1.377 . S
C933 H917 0.930 . S
C933 C932 1.377 . S
C933 C934 1.379 . S
C934 H918 0.931 . S
C934 C928 1.383 . S
C934 C933 1.379 . S
H935 C929 0.959 . S
H936 C929 0.961 . S
H937 C929 0.960 . S
H938 C930 0.930 . S
H939 C931 0.929 . S
H940 C948 0.929 . S
H941 C950 0.930 . S
H942 C952 0.930 . S
H943 C955 0.929 . S
H944 C958 0.930 . S
H945 C960 0.960 . S
H946 C960 0.960 . S
H947 C960 0.960 . S
C948 H940 0.929 . S
C948 C949 1.377 . S
C948 C950 1.384 . S
C949 C948 1.377 . S
C949 C955 1.390 . S
C950 H941 0.930 . S
C950 C948 1.384 . S
C950 C951 1.372 . S
C951 C950 1.372 . S
C951 C952 1.400 . S
C951 C956 1.490 . S
C952 H942 0.930 . S
C952 C951 1.400 . S
C952 C955 1.386 . S
H953 C969 0.930 . S
H954 C970 0.931 . S
C955 H943 0.929 . S
C955 C949 1.390 . S
C955 C952 1.386 . S
C956 C951 1.490 . S
C956 C958 1.395 . S
C956 C959 1.403 . S
H957 C963 0.930 . S
C958 H944 0.930 . S
C958 C956 1.395 . S
C958 C961 1.403 . S
C959 C956 1.403 . S
C959 C960 1.524 . S
C959 C963 1.400 . S
C960 H945 0.960 . S
C960 H946 0.960 . S
C960 H947 0.960 . S
C960 C959 1.524 . S
C961 C958 1.403 . S
C961 C962 1.392 . S
C961 C965 1.495 . S
C962 C961 1.392 . S
C962 C963 1.385 . S
C962 C964 1.478 . S
C963 H957 0.930 . S
C963 C959 1.400 . S
C963 C962 1.385 . S
C964 C962 1.478 . S
C964 C966 1.381 . S
C964 C970 1.383 . S
C965 C961 1.495 . S
C965 H971 0.959 . S
C965 H972 0.961 . S
C965 H973 0.960 . S
C966 C964 1.381 . S
C966 C967 1.394 . S
C966 H974 0.930 . S
C967 C966 1.394 . S
C967 C968 1.383 . S
C967 H975 0.929 . S
C968 C967 1.383 . S
C968 C969 1.377 . S
C969 H953 0.930 . S
C969 C968 1.377 . S
C969 C970 1.379 . S
C970 H954 0.931 . S
C970 C964 1.383 . S
C970 C969 1.379 . S
H971 C965 0.959 . S
H972 C965 0.961 . S
H973 C965 0.960 . S
H974 C966 0.930 . S
H975 C967 0.929 . S
H976 C984 0.929 . S
H977 C986 0.930 . S
H978 C988 0.930 . S
H979 C991 0.929 . S
H980 C994 0.930 . S
H981 C996 0.960 . S
H982 C996 0.960 . S
H983 C996 0.960 1_455 S
C984 H976 0.929 . S
C984 C985 1.377 . S
C984 C986 1.384 . S
C985 C984 1.377 . S
C985 C991 1.390 1_655 S
C986 H977 0.930 . S
C986 C984 1.384 . S
C986 C987 1.372 . S
C987 C986 1.372 . S
C987 C988 1.400 1_655 S
C987 C992 1.490 . S
C988 H978 0.930 . S
C988 C987 1.400 1_455 S
C988 C991 1.386 . S
H989 C1005 0.930 . S
H990 C1006 0.931 . S
C991 H979 0.929 . S
C991 C985 1.390 1_455 S
C991 C988 1.386 . S
C992 C987 1.490 . S
C992 C994 1.395 . S
C992 C995 1.403 . S
H993 C999 0.930 . S
C994 H980 0.930 . S
C994 C992 1.395 . S
C994 C997 1.403 . S
C995 C992 1.403 . S
C995 C996 1.524 . S
C995 C999 1.400 . S
C996 H981 0.960 . S
C996 H982 0.960 . S
C996 H983 0.960 1_655 S
C996 C995 1.524 . S
C997 C994 1.403 . S
C997 C998 1.392 . S
C997 C1001 1.495 . S
C998 C997 1.392 . S
C998 C999 1.385 . S
C998 C1000 1.478 . S
C999 H993 0.930 . S
C999 C995 1.400 . S
C999 C998 1.385 . S
C1000 C998 1.478 . S
C1000 C1002 1.381 . S
C1000 C1006 1.383 1_655 S
C1001 C997 1.495 . S
C1001 H1007 0.959 . S
C1001 H1008 0.938 1_655 S
C1001 H1009 0.960 . S
C1002 C1000 1.381 . S
C1002 C1003 1.394 . S
C1002 H1010 0.930 . S
C1003 C1002 1.394 . S
C1003 C1004 1.383 . S
C1003 H1011 0.929 . S
C1004 C1003 1.383 . S
C1004 C1005 1.377 1_655 S
C1005 H989 0.930 . S
C1005 C1004 1.377 1_455 S
C1005 C1006 1.379 . S
C1006 H990 0.931 . S
C1006 C1000 1.383 1_455 S
C1006 C1005 1.379 . S
H1007 C1001 0.959 . S
H1008 C1001 0.938 1_455 S
H1009 C1001 0.960 . S
H1010 C1002 0.930 . S
H1011 C1003 0.929 . S
H1012 C1020 0.929 . S
H1013 C1022 0.930 . S
H1014 C1024 0.930 . S
H1015 C1027 0.929 . S
H1016 C1030 0.930 . S
H1017 C1032 0.960 . S
H1018 C1032 0.960 . S
H1019 C1032 0.960 . S
C1020 H1012 0.929 . S
C1020 C1021 1.348 1_545 S
C1020 C1022 1.384 . S
C1021 C1020 1.348 1_565 S
C1021 C1027 1.422 . S
C1022 H1013 0.930 . S
C1022 C1020 1.384 . S
C1022 C1023 1.372 1_545 S
C1023 C1022 1.372 1_565 S
C1023 C1024 1.400 . S
C1023 C1028 1.490 . S
C1024 H1014 0.930 . S
C1024 C1023 1.400 . S
C1024 C1027 1.386 . S
H1025 C1041 0.930 . S
H1026 C1042 0.931 . S
C1027 H1015 0.929 . S
C1027 C1021 1.422 . S
C1027 C1024 1.386 . S
C1028 C1023 1.490 . S
C1028 C1030 1.395 . S
C1028 C1031 1.403 1_565 S
H1029 C1035 0.934 . S
C1030 H1016 0.930 . S
C1030 C1028 1.395 . S
C1030 C1033 1.403 . S
C1031 C1028 1.403 1_545 S
C1031 C1032 1.524 . S
C1031 C1035 1.402 . S
C1032 H1017 0.960 . S
C1032 H1018 0.960 . S
C1032 H1019 0.960 . S
C1032 C1031 1.524 . S
C1033 C1030 1.403 . S
C1033 C1034 1.392 . S
C1033 C1037 1.495 . S
C1034 C1033 1.392 . S
C1034 C1035 1.380 1_565 S
C1034 C1036 1.478 . S
C1035 H1029 0.934 . S
C1035 C1031 1.402 . S
C1035 C1034 1.380 1_545 S
C1036 C1034 1.478 . S
C1036 C1038 1.381 1_565 S
C1036 C1042 1.383 . S
C1037 C1033 1.495 . S
C1037 H1043 0.959 . S
C1037 H1044 0.961 . S
C1037 H1045 0.960 . S
C1038 C1036 1.381 1_545 S
C1038 C1039 1.394 . S
C1038 H1046 0.930 . S
C1039 C1038 1.394 . S
C1039 C1040 1.383 1_545 S
C1039 H1047 0.929 . S
C1040 C1039 1.383 1_565 S
C1040 C1041 1.377 . S
C1041 H1025 0.930 . S
C1041 C1040 1.377 . S
C1041 C1042 1.379 . S
C1042 H1026 0.931 . S
C1042 C1036 1.383 . S
C1042 C1041 1.379 . S
H1043 C1037 0.959 . S
H1044 C1037 0.961 . S
H1045 C1037 0.960 . S
H1046 C1038 0.930 . S
H1047 C1039 0.929 . S
H1048 C1056 0.929 . S
H1049 C1058 0.930 . S
H1050 C1060 0.930 . S
H1051 C1063 0.929 . S
H1052 C1066 0.930 . S
H1053 C1068 0.960 . S
H1054 C1068 0.960 . S
H1055 C1068 0.960 . S
C1056 H1048 0.929 . S
C1056 C1057 1.377 . S
C1056 C1058 1.384 . S
C1057 C1056 1.377 . S
C1057 C1063 1.390 . S
C1058 H1049 0.930 . S
C1058 C1056 1.384 . S
C1058 C1059 1.372 . S
C1059 C1058 1.372 . S
C1059 C1060 1.400 . S
C1059 C1064 1.490 . S
C1060 H1050 0.930 . S
C1060 C1059 1.400 . S
C1060 C1063 1.386 . S
H1061 C1077 0.930 . S
H1062 C1078 0.931 . S
C1063 H1051 0.929 . S
C1063 C1057 1.390 . S
C1063 C1060 1.386 . S
C1064 C1059 1.490 . S
C1064 C1066 1.395 . S
C1064 C1067 1.403 . S
H1065 C1071 0.930 . S
C1066 H1052 0.930 . S
C1066 C1064 1.395 . S
C1066 C1069 1.403 . S
C1067 C1064 1.403 . S
C1067 C1068 1.524 . S
C1067 C1071 1.400 . S
C1068 H1053 0.960 . S
C1068 H1054 0.960 . S
C1068 H1055 0.960 . S
C1068 C1067 1.524 . S
C1069 C1066 1.403 . S
C1069 C1070 1.392 . S
C1069 C1073 1.495 . S
C1070 C1069 1.392 . S
C1070 C1071 1.385 . S
C1070 C1072 1.478 . S
C1071 H1065 0.930 . S
C1071 C1067 1.400 . S
C1071 C1070 1.385 . S
C1072 C1070 1.478 . S
C1072 C1074 1.381 . S
C1072 C1078 1.383 . S
C1073 C1069 1.495 . S
C1073 H1079 0.959 . S
C1073 H1080 0.961 . S
C1073 H1081 0.960 . S
C1074 C1072 1.381 . S
C1074 C1075 1.394 . S
C1074 H1082 0.930 . S
C1075 C1074 1.394 . S
C1075 C1076 1.383 . S
C1075 H1083 0.929 . S
C1076 C1075 1.383 . S
C1076 C1077 1.377 . S
C1077 H1061 0.930 . S
C1077 C1076 1.377 . S
C1077 C1078 1.379 . S
C1078 H1062 0.931 . S
C1078 C1072 1.383 . S
C1078 C1077 1.379 . S
H1079 C1073 0.959 . S
H1080 C1073 0.961 . S
H1081 C1073 0.960 . S
H1082 C1074 0.930 . S
H1083 C1075 0.929 . S
H1084 C1092 0.929 . S
H1085 C1094 0.930 . S
H1086 C1096 0.930 . S
H1087 C1099 0.929 . S
H1088 C1102 0.930 . S
H1089 C1104 0.960 . S
H1090 C1104 0.960 . S
H1091 C1104 0.960 . S
C1092 H1084 0.929 . S
C1092 C1093 1.377 . S
C1092 C1094 1.384 . S
C1093 C1092 1.377 . S
C1093 C1099 1.390 . S
C1094 H1085 0.930 . S
C1094 C1092 1.384 . S
C1094 C1095 1.372 . S
C1095 C1094 1.372 . S
C1095 C1096 1.400 . S
C1095 C1100 1.490 . S
C1096 H1086 0.930 . S
C1096 C1095 1.400 . S
C1096 C1099 1.386 . S
H1097 C1113 0.930 . S
H1098 C1114 0.931 . S
C1099 H1087 0.929 . S
C1099 C1093 1.390 . S
C1099 C1096 1.386 . S
C1100 C1095 1.490 . S
C1100 C1102 1.395 . S
C1100 C1103 1.403 . S
H1101 C1107 0.930 . S
C1102 H1088 0.930 . S
C1102 C1100 1.395 . S
C1102 C1105 1.403 . S
C1103 C1100 1.403 . S
C1103 C1104 1.524 . S
C1103 C1107 1.400 . S
C1104 H1089 0.960 . S
C1104 H1090 0.960 . S
C1104 H1091 0.960 . S
C1104 C1103 1.524 . S
C1105 C1102 1.403 . S
C1105 C1106 1.392 . S
C1105 C1109 1.495 . S
C1106 C1105 1.392 . S
C1106 C1107 1.385 . S
C1106 C1108 1.478 . S
C1107 H1101 0.930 . S
C1107 C1103 1.400 . S
C1107 C1106 1.385 . S
C1108 C1106 1.478 . S
C1108 C1110 1.381 . S
C1108 C1114 1.383 . S
C1109 C1105 1.495 . S
C1109 H1115 0.959 . S
C1109 H1116 0.961 . S
C1109 H1117 0.960 . S
C1110 C1108 1.381 . S
C1110 C1111 1.394 . S
C1110 H1118 0.930 . S
C1111 C1110 1.394 . S
C1111 C1112 1.383 . S
C1111 H1119 0.929 . S
C1112 C1111 1.383 . S
C1112 C1113 1.377 . S
C1113 H1097 0.930 . S
C1113 C1112 1.377 . S
C1113 C1114 1.379 . S
C1114 H1098 0.931 . S
C1114 C1108 1.383 . S
C1114 C1113 1.379 . S
H1115 C1109 0.959 . S
H1116 C1109 0.961 . S
H1117 C1109 0.960 . S
H1118 C1110 0.930 . S
H1119 C1111 0.929 . S
C265 C76 1.724 1_545 S
C284 C105 1.822 1_545 S
C320 C145 1.820 . S
C301 C88 1.728 . S
C356 C185 1.810 . S
C337 C52 1.730 . S
C392 C225 1.806 1_455 S
C373 C64 1.730 . S
C428 C114 1.828 1_565 S
C409 C28 1.723 . S
C445 C40 1.725 . S
C464 C154 1.809 . S
C481 C4 1.728 . S
C500 C194 1.810 . S
C517 C16 1.731 . S
C536 C234 1.816 1_655 S
C572 C111 0.252 . S
C553 C69 0.355 . S
C608 C151 0.353 . S
C589 C81 0.375 . S
C644 C191 0.305 . S
C625 C93 0.362 . S
C661 C57 0.386 . S
C680 C231 0.387 . S
C697 C21 0.402 1_655 S
C716 C102 0.268 . S
C752 C142 0.388 . S
C733 C33 0.371 1_565 S
C788 C182 0.282 . S
C769 C45 0.403 . S
C805 C9 0.383 . S
C824 C222 0.382 . S
C841 C66 1.880 . S
C860 C115 2.056 . S
C877 C78 1.875 . S
C896 C155 2.062 . S
C932 C195 2.060 . S
C913 C90 1.874 . S
C968 C235 2.065 . S
C949 C54 1.883 . S
C985 C18 1.876 1_655 S
C1004 C106 2.064 . S
C1040 C146 2.063 . S
C1021 C30 1.878 1_565 S
C1076 C186 2.050 . S
C1057 C42 1.886 . S
C1093 C6 1.878 . S
C1112 C226 2.063 . S
