# Generated by pormake.
# Topology anh, (6,3)-cn, num edge types: 1
# Building blocks:
#     Node 0, Type 0, BuildingBlock: BETGAK_clean_sbu_0, # of connection points: 6
#     Node 1, Type 0, BuildingBlock: BETGAK_clean_sbu_0, # of connection points: 6
#     Node 2, Type 0, BuildingBlock: BETGAK_clean_sbu_0, # of connection points: 6
#     Node 3, Type 1, BuildingBlock: BELTOD_clean_linker_0, # of connection points: 3
#     Node 4, Type 1, BuildingBlock: BELTOD_clean_linker_0, # of connection points: 3
#     Node 5, Type 1, BuildingBlock: BELTOD_clean_linker_0, # of connection points: 3
#     Node 6, Type 1, BuildingBlock: BELTOD_clean_linker_0, # of connection points: 3
#     Node 7, Type 1, BuildingBlock: BELTOD_clean_linker_0, # of connection points: 3
#     Node 8, Type 1, BuildingBlock: BELTOD_clean_linker_0, # of connection points: 3
#     Edge 9, Type (0, 1), BuildingBlock: OJICUG_clean_linker_0, # of connection points: 2
#     Edge 10, Type (0, 1), BuildingBlock: OJICUG_clean_linker_0, # of connection points: 2
#     Edge 11, Type (0, 1), BuildingBlock: OJICUG_clean_linker_0, # of connection points: 2
#     Edge 12, Type (0, 1), BuildingBlock: OJICUG_clean_linker_0, # of connection points: 2
#     Edge 13, Type (0, 1), BuildingBlock: OJICUG_clean_linker_0, # of connection points: 2
#     Edge 14, Type (0, 1), BuildingBlock: OJICUG_clean_linker_0, # of connection points: 2
#     Edge 15, Type (0, 1), BuildingBlock: OJICUG_clean_linker_0, # of connection points: 2
#     Edge 16, Type (0, 1), BuildingBlock: OJICUG_clean_linker_0, # of connection points: 2
#     Edge 17, Type (0, 1), BuildingBlock: OJICUG_clean_linker_0, # of connection points: 2
#     Edge 18, Type (0, 1), BuildingBlock: OJICUG_clean_linker_0, # of connection points: 2
#     Edge 19, Type (0, 1), BuildingBlock: OJICUG_clean_linker_0, # of connection points: 2
#     Edge 20, Type (0, 1), BuildingBlock: OJICUG_clean_linker_0, # of connection points: 2
#     Edge 21, Type (0, 1), BuildingBlock: OJICUG_clean_linker_0, # of connection points: 2
#     Edge 22, Type (0, 1), BuildingBlock: OJICUG_clean_linker_0, # of connection points: 2
#     Edge 23, Type (0, 1), BuildingBlock: OJICUG_clean_linker_0, # of connection points: 2
#     Edge 24, Type (0, 1), BuildingBlock: OJICUG_clean_linker_0, # of connection points: 2
#     Edge 25, Type (0, 1), BuildingBlock: OJICUG_clean_linker_0, # of connection points: 2
#     Edge 26, Type (0, 1), BuildingBlock: OJICUG_clean_linker_0, # of connection points: 2
# Relax obj value: 0.223
# Max RMSD: 0.226
# Mean RMSD: 0.160
data_MOF--net-anh--node1-BETGAK_clean_sbu_0--node2-BELTOD_clean_linker_0--edge1-OJICUG_clean_linker_0
_symmetry_space_group_name_H-M    P1
_symmetry_Int_Tables_number       1
_symmetry_cell_setting            triclinic
loop_
_symmetry_equiv_pos_as_xyz
'x, y, z'
_cell_length_a     26.426261
_cell_length_b     32.872307
_cell_length_c     46.608239
_cell_angle_alpha  91.978725
_cell_angle_beta   88.728463
_cell_angle_gamma 130.65193
loop_
_atom_site_label
_atom_site_type_symbol
_atom_site_fract_x
_atom_site_fract_y
_atom_site_fract_z
_atom_type_partial_charge
La0 La 0.20062 0.58403 0.14484 0.0
La1 La 0.11412 0.60661 0.16921 0.0
C2 C 0.27234 0.57496 0.11429 0.0
C3 C 0.27801 0.53387 0.10972 0.0
C4 C 0.24386 0.48936 0.12746 0.0
C5 C 0.25228 0.45173 0.12369 0.0
C6 C 0.29489 0.45821 0.10212 0.0
C7 C 0.32699 0.50196 0.08379 0.0
C8 C 0.31869 0.53956 0.08763 0.0
C9 C 0.17756 0.56888 0.20028 0.0
C10 C 0.26577 0.70585 0.15786 0.0
C11 C 1.04467 0.61879 0.19876 0.0
C12 C 0.97174 0.57695 0.20308 0.0
C13 C 0.92795 0.57892 0.18803 0.0
C14 C 0.86127 0.53256 0.18413 0.0
C15 C 0.83762 0.48363 0.19518 0.0
C16 C 0.87927 0.48304 0.21288 0.0
C17 C 0.9456 0.52935 0.217 0.0
C18 C 0.10418 0.58565 0.11325 0.0
C19 C 1.05074 0.48703 0.15829 0.0
O20 O 0.21667 0.56192 0.10526 0.0
O21 O 0.28991 0.59837 0.13983 0.0
O22 O 0.18532 0.5411 0.18344 0.0
O23 O 0.1873 0.60555 0.18633 0.0
O24 O 0.27325 0.67185 0.14767 0.0
O25 O 0.20773 0.68949 0.16758 0.0
O26 O 1.06355 0.63618 0.17247 0.0
O27 O 1.08084 0.60902 0.20992 0.0
O28 O 1.05417 0.57 0.12942 0.0
O29 O 0.15594 0.61297 0.12826 0.0
O30 O 1.05149 0.52072 0.17498 0.0
O31 O 0.10098 0.50436 0.14069 0.0
H32 H 0.21179 0.48433 0.14451 0.0
H33 H 0.22729 0.41868 0.13825 0.0
H34 H 0.35918 0.50747 0.06666 0.0
H35 H 0.34476 0.57347 0.0736 0.0
H36 H 0.94653 0.61499 0.17719 0.0
H37 H 0.82995 0.534 0.17039 0.0
H38 H 0.86174 0.44588 0.22194 0.0
H39 H 0.9775 0.5263 0.22909 0.0
La40 La 0.69764 0.05058 0.48287 0.0
La41 La 0.60961 0.07295 0.46819 0.0
C42 C 0.74816 0.01625 0.50642 0.0
C43 C 0.73303 0.96473 0.51025 0.0
C44 C 0.75239 0.94517 0.48946 0.0
C45 C 0.74406 0.89944 0.49447 0.0
C46 C 0.71649 0.87235 0.52042 0.0
C47 C 0.69526 0.89096 0.54083 0.0
C48 C 0.70371 0.93677 0.53585 0.0
C49 C 0.69438 0.06333 0.42774 0.0
C50 C 0.54241 0.95331 0.47001 0.0
C51 C 0.5592 0.11163 0.45104 0.0
C52 C 0.57082 0.15951 0.46223 0.0
C53 C 0.61799 0.19096 0.48411 0.0
C54 C 0.62684 0.23441 0.49654 0.0
C55 C 0.58835 0.24722 0.48754 0.0
C56 C 0.54193 0.21624 0.46516 0.0
C57 C 0.53309 0.17252 0.45266 0.0
C58 C 0.62029 0.06511 0.52375 0.0
C59 C 0.76728 0.17011 0.47562 0.0
O60 O 0.76336 0.03531 0.48055 0.0
O61 O 0.70955 0.02262 0.51975 0.0
O62 O 0.74589 0.07684 0.4412 0.0
O63 O 0.64491 0.03916 0.44447 0.0
O64 O 0.59682 0.97073 0.48392 0.0
O65 O 0.54049 0.98741 0.45691 0.0
O66 O 0.5298 0.07254 0.46907 0.0
O67 O 0.61052 0.12055 0.43876 0.0
O68 O 0.5666 0.04931 0.51158 0.0
O69 O 0.66595 0.08742 0.50545 0.0
O70 O 0.71042 0.15186 0.46388 0.0
O71 O 0.77134 0.13748 0.48902 0.0
H72 H 0.77549 0.96587 0.46956 0.0
H73 H 0.76029 0.88578 0.4782 0.0
H74 H 0.6747 0.87148 0.56121 0.0
H75 H 0.68901 0.95115 0.55245 0.0
H76 H 0.64731 0.18136 0.49196 0.0
H77 H 0.66389 0.25794 0.51331 0.0
H78 H 0.51129 0.22492 0.45786 0.0
H79 H 0.4961 0.1484 0.43593 0.0
La80 La 0.62808 0.56595 0.8601 0.0
La81 La 0.52993 0.44607 0.85336 0.0
C82 C 0.69483 0.66494 0.85356 0.0
C83 C 0.68438 0.70174 0.84475 0.0
C84 C 0.71686 0.75049 0.85994 0.0
C85 C 0.71262 0.78823 0.85076 0.0
C86 C 0.67612 0.77822 0.82597 0.0
C87 C 0.64165 0.7284 0.81132 0.0
C88 C 0.64562 0.69048 0.82064 0.0
C89 C 0.59526 0.51306 0.90762 0.0
C90 C 0.4698 0.50272 0.8587 0.0
C91 C 0.46598 0.34693 0.85796 0.0
C92 C 0.48086 0.31125 0.85194 0.0
C93 C 0.43564 0.26358 0.83583 0.0
C94 C 0.45097 0.23118 0.8281 0.0
C95 C 0.51214 0.24595 0.83619 0.0
C96 C 0.55657 0.29311 0.85304 0.0
C97 C 0.54094 0.32523 0.86093 0.0
C98 C 0.5657 0.49838 0.80511 0.0
C99 C 0.68983 0.51019 0.85697 0.0
O100 O 0.66887 0.64142 0.87812 0.0
O101 O 0.68776 0.63239 0.83367 0.0
O102 O 0.65433 0.55824 0.90263 0.0
O103 O 0.55697 0.50123 0.88724 0.0
O104 O 0.53169 0.54757 0.85337 0.0
O105 O 0.45789 0.45749 0.86341 0.0
O106 O 0.46253 0.36784 0.83553 0.0
O107 O 0.49871 0.38214 0.87908 0.0
O108 O 0.50676 0.45333 0.81012 0.0
O109 O 0.60277 0.51059 0.82612 0.0
O110 O 0.62705 0.46371 0.85703 0.0
O111 O 0.70268 0.55646 0.85592 0.0
H112 H 0.74669 0.75988 0.87868 0.0
H113 H 0.73864 0.82558 0.86296 0.0
H114 H 0.61346 0.71938 0.79206 0.0
H115 H 0.61974 0.65298 0.80859 0.0
H116 H 0.38879 0.25182 0.82883 0.0
H117 H 0.415 0.19471 0.81558 0.0
H118 H 0.60445 0.30621 0.85942 0.0
H119 H 0.57646 0.36151 0.87363 0.0
P120 P 0.7067 0.08344 0.20525 0.0
H121 H 0.66685 0.02034 0.15161 0.0
H122 H 0.56069 0.93521 0.13581 0.0
H123 H 0.46273 0.94311 0.20855 0.0
H124 H 0.56774 0.02885 0.22324 0.0
H125 H 0.7844 0.18558 0.23807 0.0
H126 H 0.85768 0.27814 0.22402 0.0
H127 H 0.80723 0.22733 0.13507 0.0
H128 H 0.7309 0.133 0.14952 0.0
H129 H 0.73977 0.03806 0.246 0.0
H130 H 0.6538 0.11341 0.24947 0.0
O131 O 0.75708 0.07175 0.19471 0.0
H132 H 0.73258 0.03174 0.29813 0.0
H133 H 0.64591 0.10667 0.30194 0.0
C134 C 0.62606 0.0307 0.18904 0.0
C135 C 0.62219 1.00448 0.16371 0.0
C136 C 0.56135 0.9553 0.15489 0.0
C137 C 0.50302 0.93113 0.17132 0.0
C138 C 0.50621 0.96004 0.19527 0.0
C139 C 0.56694 1.0094 0.2039 0.0
C140 C 0.74926 0.15166 0.19502 0.0
C141 C 0.78612 0.19358 0.21563 0.0
C142 C 0.82904 0.24704 0.20751 0.0
C143 C 0.83804 0.26026 0.17844 0.0
C144 C 0.80121 0.21841 0.15766 0.0
C145 C 0.757 0.16455 0.16592 0.0
C146 C 0.69838 0.07705 0.24383 0.0
C147 C 0.71933 0.05329 0.25792 0.0
C148 C 0.71518 0.04966 0.28777 0.0
C149 C 0.6892 0.06913 0.30411 0.0
C150 C 0.66589 0.09114 0.28988 0.0
C151 C 0.67064 0.09519 0.25996 0.0
P152 P 0.73743 0.58973 0.59514 0.0
H153 H 0.75271 0.5677 0.5362 0.0
H154 H 0.70841 0.48486 0.50986 0.0
H155 H 0.58311 0.39298 0.58239 0.0
H156 H 0.62898 0.47598 0.60877 0.0
H157 H 0.8302 0.70589 0.59225 0.0
H158 H 0.8223 0.76917 0.57227 0.0
H159 H 0.62187 0.63723 0.5433 0.0
H160 H 0.63027 0.57375 0.56351 0.0
H161 H 0.78225 0.57585 0.64762 0.0
H162 H 0.62698 0.57706 0.62291 0.0
O163 O 0.81782 0.61869 0.59566 0.0
H164 H 0.7428 0.55941 0.69716 0.0
H165 H 0.58787 0.56165 0.67261 0.0
C166 C 0.69446 0.52807 0.57445 0.0
C167 C 0.71484 0.52961 0.5462 0.0
C168 C 0.68917 0.48213 0.53112 0.0
C169 C 0.64256 0.43214 0.54408 0.0
C170 C 0.6198 0.43078 0.57194 0.0
C171 C 0.64571 0.47833 0.58702 0.0
C172 C 0.73134 0.6352 0.57883 0.0
C173 C 0.78486 0.69047 0.58127 0.0
C174 C 0.78032 0.72662 0.56978 0.0
C175 C 0.7217 0.70816 0.55594 0.0
C176 C 0.66765 0.6526 0.55384 0.0
C177 C 0.67252 0.61635 0.56519 0.0
C178 C 0.70833 0.57865 0.63169 0.0
C179 C 0.74014 0.57326 0.65293 0.0
C180 C 0.71774 0.56416 0.68131 0.0
C181 C 0.66261 0.55982 0.68896 0.0
C182 C 0.63035 0.56465 0.66746 0.0
C183 C 0.6529 0.5738 0.63904 0.0
P184 P 0.11463 0.55188 0.89027 0.0
H185 H 0.21868 0.59144 0.84639 0.0
H186 H 0.29734 0.57729 0.83734 0.0
H187 H 0.19046 0.44783 0.89707 0.0
H188 H 0.11007 0.46115 0.9051 0.0
H189 H 1.08608 0.60086 0.849 0.0
H190 H 0.98667 0.58848 0.83942 0.0
H191 H 0.86898 0.44429 0.88863 0.0
H192 H 0.96943 0.45651 0.89761 0.0
H193 H 0.18935 0.55153 0.93644 0.0
H194 H 1.02695 0.55194 0.93057 0.0
O195 O 0.17015 0.61797 0.88552 0.0
H196 H 0.18324 0.55384 0.98856 0.0
H197 H 1.02159 0.55525 0.98252 0.0
C198 C 0.158 0.52798 0.8768 0.0
C199 C 0.21079 0.559 0.8571 0.0
C200 C 0.25707 0.55138 0.85229 0.0
C201 C 0.25282 0.51239 0.86706 0.0
C202 C 0.19671 0.47852 0.88517 0.0
C203 C 0.14992 0.48596 0.88977 0.0
C204 C 1.03655 0.52999 0.87433 0.0
C205 C 1.03885 0.56562 0.85719 0.0
C206 C 0.98138 0.55891 0.85208 0.0
C207 C 0.91888 0.51621 0.86392 0.0
C208 C 0.91555 0.47793 0.87911 0.0
C209 C 0.97336 0.4846 0.8841 0.0
C210 C 0.10541 0.54749 0.92909 0.0
C211 C 0.15059 0.54997 0.94613 0.0
C212 C 0.14795 0.55241 0.97613 0.0
C213 C 0.10119 0.55391 0.98986 0.0
C214 C 1.05679 0.55239 0.97278 0.0
C215 C 1.05954 0.54999 0.94282 0.0
P216 P 0.20257 0.54716 0.41935 0.0
H217 H 0.32732 0.61495 0.45177 0.0
H218 H 0.40132 0.70903 0.46608 0.0
H219 H 0.2513 0.7175 0.44211 0.0
H220 H 0.17784 0.62267 0.42669 0.0
H221 H 0.17397 0.45479 0.44581 0.0
H222 H 1.07194 0.36992 0.46175 0.0
H223 H 0.96535 0.42637 0.44887 0.0
H224 H 1.06864 0.5114 0.43157 0.0
H225 H 0.27019 0.63558 0.37952 0.0
H226 H 0.09729 0.46685 0.37843 0.0
O227 O 0.25593 0.53632 0.41543 0.0
H228 H 0.25558 0.63922 0.32859 0.0
H229 H 1.08207 0.47038 0.3273 0.0
C230 C 0.24704 0.61161 0.43789 0.0
C231 C 0.30948 0.63652 0.4501 0.0
C232 C 0.35203 0.69078 0.45843 0.0
C233 C 0.3331 0.7217 0.45504 0.0
C234 C 0.26842 0.69554 0.44454 0.0
C235 C 0.22579 0.64099 0.4361 0.0
C236 C 0.12925 0.48971 0.43735 0.0
C237 C 0.12908 0.44954 0.44678 0.0
C238 C 1.07018 0.40065 0.45615 0.0
C239 C 1.00953 0.3905 0.45659 0.0
C240 C 1.01056 0.43204 0.44841 0.0
C241 C 1.06983 0.4811 0.43885 0.0
C242 C 0.18356 0.55134 0.38317 0.0
C243 C 0.22765 0.59963 0.36861 0.0
C244 C 0.21933 0.60168 0.33935 0.0
C245 C 0.16743 0.55516 0.32385 0.0
C246 C 0.12266 0.50691 0.33859 0.0
C247 C 0.13091 0.50499 0.36794 0.0
P248 P 0.70601 0.08391 0.74191 0.0
H249 H 0.75392 0.16668 0.78638 0.0
H250 H 0.70219 0.19801 0.81114 0.0
H251 H 0.51364 0.06868 0.77099 0.0
H252 H 0.56613 0.03754 0.74608 0.0
H253 H 0.7932 0.05893 0.74101 0.0
H254 H 0.78371 0.98631 0.76031 0.0
H255 H 0.58781 0.91413 0.79326 0.0
H256 H 0.59712 0.98662 0.77306 0.0
H257 H 0.64736 0.11738 0.70737 0.0
H258 H 0.71382 0.02809 0.69396 0.0
O259 O 0.7873 0.13746 0.74218 0.0
H260 H 0.62259 0.1082 0.65627 0.0
H261 H 0.69166 0.02098 0.64246 0.0
C262 C 0.66424 0.10054 0.76385 0.0
C263 C 0.70125 0.14458 0.78314 0.0
C264 C 0.67147 0.16231 0.79746 0.0
C265 C 0.60396 0.13624 0.79277 0.0
C266 C 0.56602 0.09014 0.77468 0.0
C267 C 0.59583 0.07216 0.76055 0.0
C268 C 0.69646 0.02882 0.75606 0.0
C269 C 0.74821 0.02758 0.75245 0.0
C270 C 0.74282 0.98605 0.76364 0.0
C271 C 0.68539 0.94465 0.77877 0.0
C272 C 0.63267 0.94523 0.78168 0.0
C273 C 0.63811 0.9869 0.77032 0.0
C274 C 0.67993 0.07149 0.70487 0.0
C275 C 0.65493 0.09449 0.6937 0.0
C276 C 0.64127 0.08968 0.6644 0.0
C277 C 0.65478 0.06355 0.64555 0.0
C278 C 0.68052 0.04107 0.65663 0.0
C279 C 0.69275 0.04485 0.68608 0.0
P280 P 0.44878 0.24465 0.06621 0.0
H281 H 0.43952 0.2278 0.12788 0.0
H282 H 0.52722 0.2717 0.16438 0.0
H283 H 0.67457 0.33049 0.09767 0.0
H284 H 0.58706 0.28748 0.0613 0.0
H285 H 0.31831 0.21257 0.05495 0.0
H286 H 0.27532 0.25871 0.06592 0.0
H287 H 0.44555 0.37221 0.12071 0.0
H288 H 0.48968 0.32858 0.10849 0.0
H289 H 0.4148 0.22706 0.0051 0.0
H290 H 0.56573 0.35788 0.06125 0.0
O291 O 0.39517 0.17997 0.05619 0.0
H292 H 0.4528 0.29021 0.96663 0.0
H293 H 0.60366 0.42097 0.02314 0.0
C294 C 0.5075 0.25688 0.09195 0.0
C295 C 0.49047 0.24879 0.12115 0.0
C296 C 0.54047 0.27389 0.14198 0.0
C297 C 0.60758 0.30547 0.13373 0.0
C298 C 0.62317 0.30669 0.10457 0.0
C299 C 0.57323 0.28236 0.08375 0.0
C300 C 0.40611 0.2659 0.08159 0.0
C301 C 0.34496 0.2462 0.07013 0.0
C302 C 0.32056 0.27265 0.07636 0.0
C303 C 0.3575 0.31937 0.09394 0.0
C304 C 0.4164 0.33671 0.10681 0.0
C305 C 0.44105 0.31091 0.10026 0.0
C306 C 0.4888 0.28742 0.03576 0.0
C307 C 0.45761 0.26903 0.00885 0.0
C308 C 0.47877 0.30529 0.98702 0.0
C309 C 0.53111 0.36064 0.99189 0.0
C310 C 0.56396 0.37858 0.01853 0.0
C311 C 0.54256 0.34237 0.04031 0.0
C312 C 0.37531 0.44302 0.09538 0.0
C313 C 0.30941 0.42165 0.09978 0.0
H314 H 0.44159 0.42748 0.08965 0.0
C315 C 0.25863 0.36586 0.10238 0.0
H316 H 0.4157 0.48585 0.0937 0.0
C317 C 0.27372 0.33217 0.10048 0.0
C318 C 0.33987 0.35387 0.09623 0.0
H319 H 0.20729 0.34829 0.10562 0.0
H320 H 0.23393 0.28936 0.10261 0.0
C321 C 0.39029 0.40958 0.09351 0.0
C322 C 0.88637 0.25054 0.48801 0.0
C323 C 0.82753 0.22783 0.47283 0.0
H324 H 0.98855 0.31966 0.49583 0.0
C325 C 0.8277 0.26031 0.45385 0.0
H326 H 0.88797 0.227 0.50304 0.0
C327 C 0.88586 0.31336 0.44927 0.0
C328 C 0.94554 0.33576 0.46376 0.0
H329 H 0.78337 0.24426 0.44173 0.0
H330 H 0.88447 0.336 0.43348 0.0
C331 C 0.94435 0.3038 0.4837 0.0
C332 C 0.61989 0.80778 0.80229 0.0
C333 C 0.677 0.82067 0.81473 0.0
H334 H 0.5776 0.83645 0.78107 0.0
C335 C 0.73607 0.8747 0.81576 0.0
H336 H 0.57335 0.7667 0.80137 0.0
C337 C 0.73824 0.91464 0.80451 0.0
C338 C 0.68155 0.90179 0.79168 0.0
H339 H 0.78135 0.88622 0.82478 0.0
H340 H 0.78461 0.95577 0.8059 0.0
C341 C 0.62211 0.84788 0.79093 0.0
C342 C 0.77466 0.3938 0.17102 0.0
C343 C 0.77437 0.43268 0.18438 0.0
H344 H 0.72145 0.32243 0.14438 0.0
C345 C 0.71588 0.4254 0.18398 0.0
H346 H 0.81953 0.39895 0.1707 0.0
C347 C 0.6596 0.38127 0.16928 0.0
C348 C 0.6614 0.34434 0.15431 0.0
H349 H 0.71463 0.45494 0.19405 0.0
H350 H 0.61618 0.37801 0.16803 0.0
C351 C 0.71881 0.35021 0.15588 0.0
C352 C 0.48171 0.85928 0.48571 0.0
C353 C 0.48546 0.89444 0.46753 0.0
H354 H 0.4299 0.77815 0.49698 0.0
C355 C 0.43573 0.87248 0.44654 0.0
H356 H 0.51857 0.87472 0.5024 0.0
C357 C 0.38513 0.81664 0.44305 0.0
C358 C 0.38251 0.78128 0.46068 0.0
H359 H 0.43709 0.89834 0.43214 0.0
H360 H 0.34963 0.80131 0.42578 0.0
C361 C 0.4308 0.80365 0.48249 0.0
C362 C 0.56781 0.20744 0.84367 0.0
C363 C 0.53097 0.21384 0.82603 0.0
H364 H 0.61882 0.17723 0.84721 0.0
C365 C 0.51483 0.19133 0.79802 0.0
H366 H 0.58014 0.22334 0.86551 0.0
C367 C 0.53643 0.16445 0.78767 0.0
C368 C 0.57508 0.15964 0.80498 0.0
H369 H 0.48757 0.19616 0.78362 0.0
H370 H 0.52516 0.14938 0.76565 0.0
C371 C 0.58978 0.18082 0.83323 0.0
C372 C 0.65956 0.78203 0.54135 0.0
C373 C 0.71457 0.82748 0.52716 0.0
H374 H 0.61849 0.70844 0.56147 0.0
C375 C 0.76989 0.83143 0.5209 0.0
H376 H 0.61595 0.7776 0.54625 0.0
C377 C 0.77121 0.79187 0.52949 0.0
C378 C 0.71719 0.7473 0.54449 0.0
H379 H 0.81335 0.86612 0.51025 0.0
H380 H 0.81509 0.79659 0.52477 0.0
C381 C 0.66075 0.74221 0.54983 0.0
C382 C 0.73828 0.46328 0.85808 0.0
C383 C 0.74778 0.51085 0.85819 0.0
H384 H 0.78278 0.42702 0.85947 0.0
C385 C 0.81412 0.55978 0.85995 0.0
H386 H 0.68852 0.4247 0.85653 0.0
C387 C 0.86851 0.5612 0.86164 0.0
C388 C 0.85934 0.51375 0.86161 0.0
H389 H 0.82437 0.5975 0.8603 0.0
H390 H 0.91805 0.60003 0.86358 0.0
C391 C 0.79287 0.46467 0.85985 0.0
C392 C 0.38913 0.78155 0.15296 0.0
C393 C 0.32544 0.7641 0.15921 0.0
H394 H 0.49425 0.84687 0.15221 0.0
C395 C 0.32011 0.80266 0.16773 0.0
H396 H 0.39545 0.75316 0.14642 0.0
C397 C 0.37722 0.85706 0.17063 0.0
C398 C 0.44122 0.8743 0.16526 0.0
H399 H 0.27188 0.79082 0.17252 0.0
H400 H 0.37114 0.88551 0.17737 0.0
C401 C 0.4461 0.83572 0.15604 0.0
C402 C 0.6049 0.30005 0.53192 0.0
C403 C 0.59656 0.29232 0.50198 0.0
H404 H 0.6264 0.34998 0.56849 0.0
C405 C 0.59885 0.32909 0.48609 0.0
H406 H 0.60233 0.27203 0.54488 0.0
C407 C 0.6118 0.37369 0.49976 0.0
C408 C 0.62239 0.38233 0.52962 0.0
H409 H 0.59276 0.32434 0.46299 0.0
H410 H 0.6143 0.40176 0.48688 0.0
C411 C 0.61777 0.34445 0.54554 0.0
C412 C 0.42643 0.55286 0.85722 0.0
C413 C 0.41361 0.50433 0.86035 0.0
H414 H 0.38847 0.59392 0.85738 0.0
C415 C 0.34681 0.45805 0.86549 0.0
H416 H 0.47681 0.58966 0.85343 0.0
C417 C 0.29506 0.46032 0.86747 0.0
C418 C 0.30787 0.509 0.86441 0.0
H419 H 0.33425 0.41977 0.86803 0.0
H420 H 0.24472 0.42347 0.87113 0.0
C421 C 0.37493 0.55517 0.85927 0.0
C422 C 0.94306 0.41117 0.1813 0.0
C423 C 0.99341 0.42855 0.16102 0.0
H424 H 0.85434 0.34497 0.20218 0.0
C425 C 0.98904 0.38957 0.14464 0.0
H426 H 0.94429 0.43973 0.19427 0.0
C427 C 0.93675 0.33463 0.14923 0.0
C428 C 0.88816 0.31766 0.17042 0.0
H429 H 1.02679 0.40145 0.12879 0.0
H430 H 0.93594 0.30554 0.13706 0.0
C431 C 0.89134 0.35665 0.18594 0.0
C432 C 1.04182 0.54113 0.06699 0.0
C433 C 0.10252 0.57625 0.08189 0.0
H434 H 0.9936 0.50572 0.02628 0.0
C435 C 0.16247 0.6032 0.06652 0.0
H436 H 0.99489 0.51978 0.07834 0.0
C437 C 0.1619 0.5953 0.03683 0.0
C438 C 0.10129 0.56036 0.02172 0.0
H439 H 0.21007 0.63106 0.0774 0.0
H440 H 0.20913 0.61767 0.02564 0.0
C441 C 1.04119 0.53325 0.03719 0.0
C442 C 0.63433 0.04881 0.38228 0.0
C443 C 0.69204 0.06584 0.39631 0.0
H444 H 0.5881 0.03664 0.34182 0.0
C445 C 0.74869 0.08509 0.37996 0.0
H446 H 0.59009 0.03399 0.39445 0.0
C447 C 0.74745 0.08624 0.35014 0.0
C448 C 0.68971 0.06863 0.33592 0.0
H449 H 0.79407 0.09885 0.39019 0.0
H450 H 0.792 0.10125 0.33817 0.0
C451 C 0.6333 0.0505 0.35227 0.0
C452 C 0.54539 0.49618 0.75284 0.0
C453 C 0.5903 0.51885 0.77594 0.0
H454 H 0.53292 0.49087 0.70729 0.0
C455 C 0.65892 0.558 0.77051 0.0
H456 H 0.49218 0.46591 0.75643 0.0
C457 C 0.68235 0.57252 0.74234 0.0
C458 C 0.6376 0.54822 0.71904 0.0
H459 H 0.69466 0.57618 0.78793 0.0
H460 H 0.73563 0.60224 0.73877 0.0
C461 C 0.56876 0.51068 0.72469 0.0
C462 C 0.57531 0.04305 0.57379 0.0
C463 C 0.6288 0.06391 0.55482 0.0
H464 H 0.54187 0.02694 0.61757 0.0
C465 C 0.69058 0.08407 0.56586 0.0
H466 H 0.52721 0.02743 0.56585 0.0
C467 C 0.69844 0.08263 0.59528 0.0
C468 C 0.64517 0.0623 0.61427 0.0
H469 H 0.73299 0.10127 0.5518 0.0
H470 H 0.74665 0.09863 0.6033 0.0
C471 C 0.58361 0.04274 0.6033 0.0
C472 C 0.5126 0.43145 0.93608 0.0
C473 C 0.57928 0.47569 0.93002 0.0
H474 H 0.44515 0.36029 0.96024 0.0
C475 C 0.63035 0.48244 0.94457 0.0
H476 H 0.47234 0.42565 0.92529 0.0
C477 C 0.61489 0.44489 0.96449 0.0
C478 C 0.54808 0.39992 0.97019 0.0
H479 H 0.68223 0.51616 0.94016 0.0
H480 H 0.65524 0.45066 0.97514 0.0
C481 C 0.49712 0.39381 0.95586 0.0
C482 C 0.15517 0.51909 0.24461 0.0
C483 C 0.16958 0.56357 0.23171 0.0
H484 H 0.14316 0.48153 0.28378 0.0
C485 C 0.17896 0.60367 0.24917 0.0
H486 H 0.14756 0.48753 0.23161 0.0
C487 C 0.17613 0.60017 0.27909 0.0
C488 C 0.16364 0.5564 0.29212 0.0
H489 H 0.19031 0.63847 0.23976 0.0
H490 H 0.18463 0.63212 0.29205 0.0
C491 C 0.15209 0.51546 0.27449 0.0
loop_
_geom_bond_atom_site_label_1
_geom_bond_atom_site_label_2
_geom_bond_distance
_geom_bond_site_symmetry_2
_ccdc_geom_bond_type
La0 C2 2.928 . S
La0 O20 2.521 . S
La0 O21 2.628 . S
La0 O22 2.554 . S
La0 O23 2.757 . S
La0 O24 2.470 . S
La0 O29 2.482 . S
La0 O31 2.503 1_455 S
La1 C11 2.928 . S
La1 O23 2.482 1_655 S
La1 O25 2.503 1_655 S
La1 O26 2.521 . S
La1 O27 2.628 . S
La1 O28 2.554 . S
La1 O29 2.757 1_655 S
La1 O30 2.470 . S
C2 La0 2.928 . S
C2 C3 1.503 . S
C2 O20 1.261 . S
C2 O21 1.243 . S
C3 C2 1.503 . S
C3 C4 1.394 . S
C3 C8 1.373 . S
C4 C3 1.394 . S
C4 C5 1.380 . S
C4 H32 0.930 . S
C5 C4 1.380 . S
C5 C6 1.376 . S
C5 H33 0.930 . S
C6 C5 1.376 . S
C6 C7 1.370 . S
C7 C6 1.370 . S
C7 C8 1.396 . S
C7 H34 0.929 . S
C8 C3 1.373 . S
C8 C7 1.396 . S
C8 H35 0.929 . S
C9 O22 1.240 . S
C9 O23 1.289 . S
C10 O24 1.258 . S
C10 O25 1.256 . S
C11 La1 2.928 . S
C11 C12 1.503 . S
C11 O26 1.261 . S
C11 O27 1.243 . S
C12 C11 1.503 . S
C12 C13 1.394 . S
C12 C17 1.373 . S
C13 C12 1.394 . S
C13 C14 1.380 . S
C13 H36 0.930 . S
C14 C13 1.380 . S
C14 C15 1.376 . S
C14 H37 0.930 . S
C15 C14 1.376 . S
C15 C16 1.370 . S
C16 C15 1.370 . S
C16 C17 1.396 . S
C16 H38 0.929 . S
C17 C12 1.373 . S
C17 C16 1.396 . S
C17 H39 0.929 . S
C18 O28 1.240 1_455 S
C18 O29 1.289 . S
C19 O30 1.258 . S
C19 O31 1.256 . S
O20 La0 2.521 . S
O20 C2 1.261 . S
O21 La0 2.628 . S
O21 C2 1.243 . S
O22 La0 2.554 . S
O22 C9 1.240 . S
O23 La0 2.757 . S
O23 La1 2.482 1_455 S
O23 C9 1.289 . S
O24 La0 2.470 . S
O24 C10 1.258 . S
O25 La1 2.503 1_455 S
O25 C10 1.256 . S
O26 La1 2.521 . S
O26 C11 1.261 . S
O27 La1 2.628 . S
O27 C11 1.243 . S
O28 La1 2.554 . S
O28 C18 1.240 1_655 S
O29 La0 2.482 . S
O29 La1 2.757 1_455 S
O29 C18 1.289 . S
O30 La1 2.470 . S
O30 C19 1.258 . S
O31 La0 2.503 1_655 S
O31 C19 1.256 . S
H32 C4 0.930 . S
H33 C5 0.930 . S
H34 C7 0.929 . S
H35 C8 0.929 . S
H36 C13 0.930 . S
H37 C14 0.930 . S
H38 C16 0.929 . S
H39 C17 0.929 . S
La40 C42 2.928 . S
La40 O60 2.521 . S
La40 O61 2.628 . S
La40 O62 2.554 . S
La40 O63 2.757 1_565 S
La40 O64 2.470 . S
La40 O69 2.482 . S
La40 O71 2.503 1_565 S
La41 C51 2.928 . S
La41 O63 2.482 . S
La41 O65 2.503 1_545 S
La41 O66 2.521 . S
La41 O67 2.628 . S
La41 O68 2.554 . S
La41 O69 2.757 1_545 S
La41 O70 2.470 . S
C42 La40 2.928 . S
C42 C43 1.503 . S
C42 O60 1.261 . S
C42 O61 1.243 . S
C43 C42 1.503 . S
C43 C44 1.394 . S
C43 C48 1.373 . S
C44 C43 1.394 . S
C44 C45 1.380 . S
C44 H72 0.930 . S
C45 C44 1.380 . S
C45 C46 1.376 . S
C45 H73 0.930 . S
C46 C45 1.376 . S
C46 C47 1.370 . S
C47 C46 1.370 . S
C47 C48 1.396 . S
C47 H74 0.929 . S
C48 C43 1.373 . S
C48 C47 1.396 . S
C48 H75 0.929 . S
C49 O62 1.240 1_545 S
C49 O63 1.289 . S
C50 O64 1.258 . S
C50 O65 1.256 . S
C51 La41 2.928 . S
C51 C52 1.503 . S
C51 O66 1.261 . S
C51 O67 1.243 . S
C52 C51 1.503 . S
C52 C53 1.394 . S
C52 C57 1.373 . S
C53 C52 1.394 . S
C53 C54 1.380 . S
C53 H76 0.930 . S
C54 C53 1.380 . S
C54 C55 1.376 . S
C54 H77 0.930 . S
C55 C54 1.376 . S
C55 C56 1.370 . S
C56 C55 1.370 . S
C56 C57 1.396 . S
C56 H78 0.929 . S
C57 C52 1.373 . S
C57 C56 1.396 . S
C57 H79 0.929 . S
C58 O68 1.240 . S
C58 O69 1.289 1_545 S
C59 O70 1.258 . S
C59 O71 1.256 . S
O60 La40 2.521 . S
O60 C42 1.261 . S
O61 La40 2.628 . S
O61 C42 1.243 . S
O62 La40 2.554 . S
O62 C49 1.240 1_565 S
O63 La40 2.757 1_545 S
O63 La41 2.482 . S
O63 C49 1.289 . S
O64 La40 2.470 . S
O64 C50 1.258 . S
O65 La41 2.503 1_565 S
O65 C50 1.256 . S
O66 La41 2.521 . S
O66 C51 1.261 . S
O67 La41 2.628 . S
O67 C51 1.243 . S
O68 La41 2.554 . S
O68 C58 1.240 . S
O69 La40 2.482 . S
O69 La41 2.757 1_565 S
O69 C58 1.289 1_565 S
O70 La41 2.470 . S
O70 C59 1.258 . S
O71 La40 2.503 1_545 S
O71 C59 1.256 . S
H72 C44 0.930 . S
H73 C45 0.930 . S
H74 C47 0.929 . S
H75 C48 0.929 . S
H76 C53 0.930 . S
H77 C54 0.930 . S
H78 C56 0.929 . S
H79 C57 0.929 . S
La80 C82 2.928 . S
La80 O100 2.521 . S
La80 O101 2.628 . S
La80 O102 2.554 . S
La80 O103 2.757 . S
La80 O104 2.470 . S
La80 O109 2.482 . S
La80 O111 2.503 . S
La81 C91 2.928 . S
La81 O103 2.482 . S
La81 O105 2.503 . S
La81 O106 2.521 . S
La81 O107 2.628 . S
La81 O108 2.554 . S
La81 O109 2.757 . S
La81 O110 2.470 . S
C82 La80 2.928 . S
C82 C83 1.503 . S
C82 O100 1.261 . S
C82 O101 1.243 . S
C83 C82 1.503 . S
C83 C84 1.394 . S
C83 C88 1.373 . S
C84 C83 1.394 . S
C84 C85 1.380 . S
C84 H112 0.930 . S
C85 C84 1.380 . S
C85 C86 1.376 . S
C85 H113 0.930 . S
C86 C85 1.376 . S
C86 C87 1.370 . S
C87 C86 1.370 . S
C87 C88 1.396 . S
C87 H114 0.929 . S
C88 C83 1.373 . S
C88 C87 1.396 . S
C88 H115 0.929 . S
C89 O102 1.240 . S
C89 O103 1.289 . S
C90 O104 1.258 . S
C90 O105 1.256 . S
C91 La81 2.928 . S
C91 C92 1.503 . S
C91 O106 1.261 . S
C91 O107 1.243 . S
C92 C91 1.503 . S
C92 C93 1.394 . S
C92 C97 1.373 . S
C93 C92 1.394 . S
C93 C94 1.380 . S
C93 H116 0.930 . S
C94 C93 1.380 . S
C94 C95 1.376 . S
C94 H117 0.930 . S
C95 C94 1.376 . S
C95 C96 1.370 . S
C96 C95 1.370 . S
C96 C97 1.396 . S
C96 H118 0.929 . S
C97 C92 1.373 . S
C97 C96 1.396 . S
C97 H119 0.929 . S
C98 O108 1.240 . S
C98 O109 1.289 . S
C99 O110 1.258 . S
C99 O111 1.256 . S
O100 La80 2.521 . S
O100 C82 1.261 . S
O101 La80 2.628 . S
O101 C82 1.243 . S
O102 La80 2.554 . S
O102 C89 1.240 . S
O103 La80 2.757 . S
O103 La81 2.482 . S
O103 C89 1.289 . S
O104 La80 2.470 . S
O104 C90 1.258 . S
O105 La81 2.503 . S
O105 C90 1.256 . S
O106 La81 2.521 . S
O106 C91 1.261 . S
O107 La81 2.628 . S
O107 C91 1.243 . S
O108 La81 2.554 . S
O108 C98 1.240 . S
O109 La80 2.482 . S
O109 La81 2.757 . S
O109 C98 1.289 . S
O110 La81 2.470 . S
O110 C99 1.258 . S
O111 La80 2.503 . S
O111 C99 1.256 . S
H112 C84 0.930 . S
H113 C85 0.930 . S
H114 C87 0.929 . S
H115 C88 0.929 . S
H116 C93 0.930 . S
H117 C94 0.930 . S
H118 C96 0.929 . S
H119 C97 0.929 . S
P120 O131 1.490 1_545 S
P120 C134 1.812 1_545 S
P120 C140 1.803 . S
P120 C146 1.819 . S
H121 C135 0.941 . S
H122 C136 0.939 . S
H123 C138 0.940 . S
H124 C139 0.940 . S
H125 C141 0.939 . S
H126 C142 0.942 . S
H127 C144 0.940 . S
H128 C145 0.939 . S
H129 C147 0.941 . S
H130 C151 0.939 . S
O131 P120 1.490 1_565 S
H132 C148 0.939 . S
H133 C150 0.940 . S
C134 P120 1.812 1_565 S
C134 C135 1.389 . S
C134 C139 1.391 . S
C135 H121 0.941 . S
C135 C134 1.389 . S
C135 C136 1.397 . S
C136 H122 0.939 . S
C136 C135 1.397 . S
C136 C137 1.378 . S
C137 C136 1.378 . S
C137 C138 1.378 . S
C138 H123 0.940 . S
C138 C137 1.378 . S
C138 C139 1.396 . S
C139 H124 0.940 . S
C139 C134 1.391 . S
C139 C138 1.396 . S
C140 P120 1.803 . S
C140 C141 1.378 . S
C140 C145 1.400 . S
C141 H125 0.939 . S
C141 C140 1.378 . S
C141 C142 1.361 . S
C142 H126 0.942 . S
C142 C141 1.361 . S
C142 C143 1.369 . S
C143 C142 1.369 . S
C143 C144 1.404 . S
C144 H127 0.940 . S
C144 C143 1.404 . S
C144 C145 1.389 . S
C145 H128 0.939 . S
C145 C140 1.400 . S
C145 C144 1.389 . S
C146 P120 1.819 . S
C146 C147 1.391 1_545 S
C146 C151 1.391 . S
C147 H129 0.941 . S
C147 C146 1.391 1_565 S
C147 C148 1.396 . S
C148 H132 0.939 . S
C148 C147 1.396 . S
C148 C149 1.397 1_565 S
C149 C148 1.397 1_545 S
C149 C150 1.385 . S
C150 H133 0.940 . S
C150 C149 1.385 . S
C150 C151 1.388 . S
C151 H130 0.939 . S
C151 C146 1.391 . S
C151 C150 1.388 . S
P152 O163 1.490 . S
P152 C166 1.812 . S
P152 C172 1.803 . S
P152 C178 1.819 . S
H153 C167 0.941 . S
H154 C168 0.939 . S
H155 C170 0.940 . S
H156 C171 0.940 . S
H157 C173 0.939 . S
H158 C174 0.942 . S
H159 C176 0.940 . S
H160 C177 0.939 . S
H161 C179 0.941 . S
H162 C183 0.939 . S
O163 P152 1.490 . S
H164 C180 0.939 . S
H165 C182 0.940 . S
C166 P152 1.812 . S
C166 C167 1.389 . S
C166 C171 1.391 . S
C167 H153 0.941 . S
C167 C166 1.389 . S
C167 C168 1.397 . S
C168 H154 0.939 . S
C168 C167 1.397 . S
C168 C169 1.378 . S
C169 C168 1.378 . S
C169 C170 1.378 . S
C170 H155 0.940 . S
C170 C169 1.378 . S
C170 C171 1.396 . S
C171 H156 0.940 . S
C171 C166 1.391 . S
C171 C170 1.396 . S
C172 P152 1.803 . S
C172 C173 1.378 . S
C172 C177 1.400 . S
C173 H157 0.939 . S
C173 C172 1.378 . S
C173 C174 1.361 . S
C174 H158 0.942 . S
C174 C173 1.361 . S
C174 C175 1.369 . S
C175 C174 1.369 . S
C175 C176 1.404 . S
C176 H159 0.940 . S
C176 C175 1.404 . S
C176 C177 1.389 . S
C177 H160 0.939 . S
C177 C172 1.400 . S
C177 C176 1.389 . S
C178 P152 1.819 . S
C178 C179 1.391 . S
C178 C183 1.391 . S
C179 H161 0.941 . S
C179 C178 1.391 . S
C179 C180 1.396 . S
C180 H164 0.939 . S
C180 C179 1.396 . S
C180 C181 1.397 . S
C181 C180 1.397 . S
C181 C182 1.385 . S
C182 H165 0.940 . S
C182 C181 1.385 . S
C182 C183 1.388 . S
C183 H162 0.939 . S
C183 C178 1.391 . S
C183 C182 1.388 . S
P184 O195 1.490 . S
P184 C198 1.812 . S
P184 C204 1.803 . S
P184 C210 1.819 . S
H185 C199 0.941 . S
H186 C200 0.939 . S
H187 C202 0.940 . S
H188 C203 0.940 . S
H189 C205 0.939 . S
H190 C206 0.942 . S
H191 C208 0.940 . S
H192 C209 0.946 . S
H193 C211 0.941 . S
H194 C215 0.939 1_655 S
O195 P184 1.490 . S
H196 C212 0.939 . S
H197 C214 0.940 1_655 S
C198 P184 1.812 . S
C198 C199 1.389 . S
C198 C203 1.391 . S
C199 H185 0.941 . S
C199 C198 1.389 . S
C199 C200 1.397 . S
C200 H186 0.939 . S
C200 C199 1.397 . S
C200 C201 1.378 . S
C201 C200 1.378 . S
C201 C202 1.378 . S
C202 H187 0.940 . S
C202 C201 1.378 . S
C202 C203 1.396 . S
C203 H188 0.940 . S
C203 C198 1.391 . S
C203 C202 1.396 . S
C204 P184 1.803 . S
C204 C205 1.378 . S
C204 C209 1.400 . S
C205 H189 0.939 . S
C205 C204 1.378 . S
C205 C206 1.361 1_455 S
C206 H190 0.942 . S
C206 C205 1.361 1_655 S
C206 C207 1.369 . S
C207 C206 1.369 . S
C207 C208 1.404 . S
C208 H191 0.940 . S
C208 C207 1.404 . S
C208 C209 1.382 1_655 S
C209 H192 0.946 . S
C209 C204 1.400 . S
C209 C208 1.382 1_455 S
C210 P184 1.819 . S
C210 C211 1.391 . S
C210 C215 1.391 . S
C211 H193 0.941 . S
C211 C210 1.391 . S
C211 C212 1.396 . S
C212 H196 0.939 . S
C212 C211 1.396 . S
C212 C213 1.397 . S
C213 C212 1.397 . S
C213 C214 1.385 . S
C214 H197 0.940 1_455 S
C214 C213 1.385 . S
C214 C215 1.388 . S
C215 H194 0.939 1_455 S
C215 C210 1.391 . S
C215 C214 1.388 . S
P216 O227 1.490 . S
P216 C230 1.812 . S
P216 C236 1.803 1_455 S
P216 C242 1.819 . S
H217 C231 0.941 . S
H218 C232 0.939 . S
H219 C234 0.940 . S
H220 C235 0.940 . S
H221 C237 0.939 . S
H222 C238 0.942 . S
H223 C240 0.940 . S
H224 C241 0.939 . S
H225 C243 0.941 . S
H226 C247 0.939 . S
O227 P216 1.490 . S
H228 C244 0.939 . S
H229 C246 0.940 . S
C230 P216 1.812 . S
C230 C231 1.389 . S
C230 C235 1.391 . S
C231 H217 0.941 . S
C231 C230 1.389 . S
C231 C232 1.397 . S
C232 H218 0.939 . S
C232 C231 1.397 . S
C232 C233 1.378 . S
C233 C232 1.378 . S
C233 C234 1.378 . S
C234 H219 0.940 . S
C234 C233 1.378 . S
C234 C235 1.396 . S
C235 H220 0.940 . S
C235 C230 1.391 . S
C235 C234 1.396 . S
C236 P216 1.803 1_655 S
C236 C237 1.378 . S
C236 C241 1.400 . S
C237 H221 0.939 . S
C237 C236 1.378 . S
C237 C238 1.361 . S
C238 H222 0.942 . S
C238 C237 1.361 . S
C238 C239 1.369 . S
C239 C238 1.369 . S
C239 C240 1.404 . S
C240 H223 0.940 . S
C240 C239 1.404 . S
C240 C241 1.389 . S
C241 H224 0.939 . S
C241 C236 1.400 . S
C241 C240 1.389 . S
C242 P216 1.819 . S
C242 C243 1.391 . S
C242 C247 1.391 1_455 S
C243 H225 0.941 . S
C243 C242 1.391 . S
C243 C244 1.396 . S
C244 H228 0.939 . S
C244 C243 1.396 . S
C244 C245 1.397 . S
C245 C244 1.397 . S
C245 C246 1.385 1_455 S
C246 H229 0.940 . S
C246 C245 1.385 1_655 S
C246 C247 1.388 . S
C247 H226 0.939 . S
C247 C242 1.391 1_655 S
C247 C246 1.388 . S
P248 O259 1.490 . S
P248 C262 1.812 . S
P248 C268 1.803 1_545 S
P248 C274 1.819 . S
H249 C263 0.941 . S
H250 C264 0.939 . S
H251 C266 0.940 . S
H252 C267 0.940 . S
H253 C269 0.939 1_545 S
H254 C270 0.942 . S
H255 C272 0.940 . S
H256 C273 0.939 . S
H257 C275 0.941 . S
H258 C279 0.939 . S
O259 P248 1.490 . S
H260 C276 0.939 . S
H261 C278 0.940 . S
C262 P248 1.812 . S
C262 C263 1.389 . S
C262 C267 1.391 . S
C263 H249 0.941 . S
C263 C262 1.389 . S
C263 C264 1.397 . S
C264 H250 0.939 . S
C264 C263 1.397 . S
C264 C265 1.378 . S
C265 C264 1.378 . S
C265 C266 1.378 . S
C266 H251 0.940 . S
C266 C265 1.378 . S
C266 C267 1.396 . S
C267 H252 0.940 . S
C267 C262 1.391 . S
C267 C266 1.396 . S
C268 P248 1.803 1_565 S
C268 C269 1.378 . S
C268 C273 1.400 . S
C269 H253 0.939 1_565 S
C269 C268 1.378 . S
C269 C270 1.361 . S
C270 H254 0.942 . S
C270 C269 1.361 . S
C270 C271 1.369 . S
C271 C270 1.369 . S
C271 C272 1.404 . S
C272 H255 0.940 . S
C272 C271 1.404 . S
C272 C273 1.389 . S
C273 H256 0.939 . S
C273 C268 1.400 . S
C273 C272 1.389 . S
C274 P248 1.819 . S
C274 C275 1.391 . S
C274 C279 1.391 1_545 S
C275 H257 0.941 . S
C275 C274 1.391 . S
C275 C276 1.396 . S
C276 H260 0.939 . S
C276 C275 1.396 . S
C276 C277 1.397 . S
C277 C276 1.397 . S
C277 C278 1.385 1_545 S
C278 H261 0.940 . S
C278 C277 1.385 1_565 S
C278 C279 1.388 . S
C279 H258 0.939 . S
C279 C274 1.391 1_565 S
C279 C278 1.388 . S
P280 O291 1.490 . S
P280 C294 1.812 . S
P280 C300 1.803 . S
P280 C306 1.819 . S
H281 C295 0.941 . S
H282 C296 0.939 . S
H283 C298 0.940 . S
H284 C299 0.940 . S
H285 C301 0.939 . S
H286 C302 0.942 . S
H287 C304 0.940 . S
H288 C305 0.939 . S
H289 C307 0.941 . S
H290 C311 0.939 . S
O291 P280 1.490 . S
H292 C308 0.939 . S
H293 C310 0.940 . S
C294 P280 1.812 . S
C294 C295 1.389 . S
C294 C299 1.391 . S
C295 H281 0.941 . S
C295 C294 1.389 . S
C295 C296 1.397 . S
C296 H282 0.939 . S
C296 C295 1.397 . S
C296 C297 1.378 . S
C297 C296 1.378 . S
C297 C298 1.378 . S
C298 H283 0.940 . S
C298 C297 1.378 . S
C298 C299 1.396 . S
C299 H284 0.940 . S
C299 C294 1.391 . S
C299 C298 1.396 . S
C300 P280 1.803 . S
C300 C301 1.378 . S
C300 C305 1.400 . S
C301 H285 0.939 . S
C301 C300 1.378 . S
C301 C302 1.361 . S
C302 H286 0.942 . S
C302 C301 1.361 . S
C302 C303 1.369 . S
C303 C302 1.369 . S
C303 C304 1.404 . S
C304 H287 0.940 . S
C304 C303 1.404 . S
C304 C305 1.389 . S
C305 H288 0.939 . S
C305 C300 1.400 . S
C305 C304 1.389 . S
C306 P280 1.819 . S
C306 C307 1.391 . S
C306 C311 1.391 . S
C307 H289 0.941 . S
C307 C306 1.391 . S
C307 C308 1.396 1_554 S
C308 H292 0.939 . S
C308 C307 1.396 1_556 S
C308 C309 1.397 . S
C309 C308 1.397 . S
C309 C310 1.385 1_556 S
C310 H293 0.940 . S
C310 C309 1.385 1_554 S
C310 C311 1.388 . S
C311 H290 0.939 . S
C311 C306 1.391 . S
C311 C310 1.388 . S
C312 C313 1.387 . S
C312 H316 0.950 . S
C312 C321 1.390 . S
C313 C312 1.387 . S
C313 C315 1.387 . S
H314 C321 0.950 . S
C315 C313 1.387 . S
C315 C317 1.390 . S
C315 H319 0.950 . S
H316 C312 0.950 . S
C317 C315 1.390 . S
C317 C318 1.387 . S
C317 H320 0.950 . S
C318 C317 1.387 . S
C318 C321 1.387 . S
H319 C315 0.950 . S
H320 C317 0.950 . S
C321 C312 1.390 . S
C321 H314 0.950 . S
C321 C318 1.387 . S
C322 C323 1.387 . S
C322 H326 0.950 . S
C322 C331 1.390 . S
C323 C322 1.387 . S
C323 C325 1.387 . S
H324 C331 0.950 . S
C325 C323 1.387 . S
C325 C327 1.390 . S
C325 H329 0.950 . S
H326 C322 0.950 . S
C327 C325 1.390 . S
C327 C328 1.387 . S
C327 H330 0.950 . S
C328 C327 1.387 . S
C328 C331 1.387 . S
H329 C325 0.950 . S
H330 C327 0.950 . S
C331 C322 1.390 . S
C331 H324 0.950 . S
C331 C328 1.387 . S
C332 C333 1.387 . S
C332 H336 0.950 . S
C332 C341 1.390 . S
C333 C332 1.387 . S
C333 C335 1.387 . S
H334 C341 0.950 . S
C335 C333 1.387 . S
C335 C337 1.390 . S
C335 H339 0.950 . S
H336 C332 0.950 . S
C337 C335 1.390 . S
C337 C338 1.387 . S
C337 H340 0.950 . S
C338 C337 1.387 . S
C338 C341 1.387 . S
H339 C335 0.950 . S
H340 C337 0.950 . S
C341 C332 1.390 . S
C341 H334 0.950 . S
C341 C338 1.387 . S
C342 C343 1.387 . S
C342 H346 0.950 . S
C342 C351 1.390 . S
C343 C342 1.387 . S
C343 C345 1.387 . S
H344 C351 0.950 . S
C345 C343 1.387 . S
C345 C347 1.390 . S
C345 H349 0.950 . S
H346 C342 0.950 . S
C347 C345 1.390 . S
C347 C348 1.387 . S
C347 H350 0.950 . S
C348 C347 1.387 . S
C348 C351 1.387 . S
H349 C345 0.950 . S
H350 C347 0.950 . S
C351 C342 1.390 . S
C351 H344 0.950 . S
C351 C348 1.387 . S
C352 C353 1.387 . S
C352 H356 0.950 . S
C352 C361 1.390 . S
C353 C352 1.387 . S
C353 C355 1.387 . S
H354 C361 0.950 . S
C355 C353 1.387 . S
C355 C357 1.390 . S
C355 H359 0.950 . S
H356 C352 0.950 . S
C357 C355 1.390 . S
C357 C358 1.387 . S
C357 H360 0.950 . S
C358 C357 1.387 . S
C358 C361 1.387 . S
H359 C355 0.950 . S
H360 C357 0.950 . S
C361 C352 1.390 . S
C361 H354 0.950 . S
C361 C358 1.387 . S
C362 C363 1.387 . S
C362 H366 0.950 . S
C362 C371 1.390 . S
C363 C362 1.387 . S
C363 C365 1.387 . S
H364 C371 0.950 . S
C365 C363 1.387 . S
C365 C367 1.390 . S
C365 H369 0.950 . S
H366 C362 0.950 . S
C367 C365 1.390 . S
C367 C368 1.387 . S
C367 H370 0.950 . S
C368 C367 1.387 . S
C368 C371 1.387 . S
H369 C365 0.950 . S
H370 C367 0.950 . S
C371 C362 1.390 . S
C371 H364 0.950 . S
C371 C368 1.387 . S
C372 C373 1.387 . S
C372 H376 0.950 . S
C372 C381 1.390 . S
C373 C372 1.387 . S
C373 C375 1.387 . S
H374 C381 0.950 . S
C375 C373 1.387 . S
C375 C377 1.390 . S
C375 H379 0.950 . S
H376 C372 0.950 . S
C377 C375 1.390 . S
C377 C378 1.387 . S
C377 H380 0.950 . S
C378 C377 1.387 . S
C378 C381 1.387 . S
H379 C375 0.950 . S
H380 C377 0.950 . S
C381 C372 1.390 . S
C381 H374 0.950 . S
C381 C378 1.387 . S
C382 C383 1.387 . S
C382 H386 0.950 . S
C382 C391 1.390 . S
C383 C382 1.387 . S
C383 C385 1.387 . S
H384 C391 0.950 . S
C385 C383 1.387 . S
C385 C387 1.390 . S
C385 H389 0.950 . S
H386 C382 0.950 . S
C387 C385 1.390 . S
C387 C388 1.387 . S
C387 H390 0.950 . S
C388 C387 1.387 . S
C388 C391 1.387 . S
H389 C385 0.950 . S
H390 C387 0.950 . S
C391 C382 1.390 . S
C391 H384 0.950 . S
C391 C388 1.387 . S
C392 C393 1.387 . S
C392 H396 0.950 . S
C392 C401 1.390 . S
C393 C392 1.387 . S
C393 C395 1.387 . S
H394 C401 0.950 . S
C395 C393 1.387 . S
C395 C397 1.390 . S
C395 H399 0.950 . S
H396 C392 0.950 . S
C397 C395 1.390 . S
C397 C398 1.387 . S
C397 H400 0.950 . S
C398 C397 1.387 . S
C398 C401 1.387 . S
H399 C395 0.950 . S
H400 C397 0.950 . S
C401 C392 1.390 . S
C401 H394 0.950 . S
C401 C398 1.387 . S
C402 C403 1.387 . S
C402 H406 0.950 . S
C402 C411 1.390 . S
C403 C402 1.387 . S
C403 C405 1.387 . S
H404 C411 0.950 . S
C405 C403 1.387 . S
C405 C407 1.390 . S
C405 H409 0.950 . S
H406 C402 0.950 . S
C407 C405 1.390 . S
C407 C408 1.387 . S
C407 H410 0.950 . S
C408 C407 1.387 . S
C408 C411 1.387 . S
H409 C405 0.950 . S
H410 C407 0.950 . S
C411 C402 1.390 . S
C411 H404 0.950 . S
C411 C408 1.387 . S
C412 C413 1.387 . S
C412 H416 0.950 . S
C412 C421 1.390 . S
C413 C412 1.387 . S
C413 C415 1.387 . S
H414 C421 0.950 . S
C415 C413 1.387 . S
C415 C417 1.390 . S
C415 H419 0.950 . S
H416 C412 0.950 . S
C417 C415 1.390 . S
C417 C418 1.387 . S
C417 H420 0.950 . S
C418 C417 1.387 . S
C418 C421 1.387 . S
H419 C415 0.950 . S
H420 C417 0.950 . S
C421 C412 1.390 . S
C421 H414 0.950 . S
C421 C418 1.387 . S
C422 C423 1.387 . S
C422 H426 0.950 . S
C422 C431 1.390 . S
C423 C422 1.387 . S
C423 C425 1.387 . S
H424 C431 0.950 . S
C425 C423 1.387 . S
C425 C427 1.390 . S
C425 H429 0.950 . S
H426 C422 0.950 . S
C427 C425 1.390 . S
C427 C428 1.387 . S
C427 H430 0.950 . S
C428 C427 1.387 . S
C428 C431 1.387 . S
H429 C425 0.950 . S
H430 C427 0.950 . S
C431 C422 1.390 . S
C431 H424 0.950 . S
C431 C428 1.387 . S
C432 C433 1.387 1_655 S
C432 H436 0.950 . S
C432 C441 1.390 . S
C433 C432 1.387 1_455 S
C433 C435 1.387 . S
H434 C441 0.950 . S
C435 C433 1.387 . S
C435 C437 1.390 . S
C435 H439 0.950 . S
H436 C432 0.950 . S
C437 C435 1.390 . S
C437 C438 1.387 . S
C437 H440 0.950 . S
C438 C437 1.387 . S
C438 C441 1.387 1_455 S
H439 C435 0.950 . S
H440 C437 0.950 . S
C441 C432 1.390 . S
C441 H434 0.950 . S
C441 C438 1.387 1_655 S
C442 C443 1.387 1_565 S
C442 H446 0.950 . S
C442 C451 1.390 . S
C443 C442 1.387 1_545 S
C443 C445 1.387 . S
H444 C451 0.950 . S
C445 C443 1.387 . S
C445 C447 1.390 . S
C445 H449 0.950 . S
H446 C442 0.950 . S
C447 C445 1.390 . S
C447 C448 1.387 . S
C447 H450 0.950 . S
C448 C447 1.387 . S
C448 C451 1.387 1_545 S
H449 C445 0.950 . S
H450 C447 0.950 . S
C451 C442 1.390 . S
C451 H444 0.950 . S
C451 C448 1.387 1_565 S
C452 C453 1.387 . S
C452 H456 0.950 . S
C452 C461 1.390 . S
C453 C452 1.387 . S
C453 C455 1.387 . S
H454 C461 0.950 . S
C455 C453 1.387 . S
C455 C457 1.390 . S
C455 H459 0.950 . S
H456 C452 0.950 . S
C457 C455 1.390 . S
C457 C458 1.387 . S
C457 H460 0.950 . S
C458 C457 1.387 . S
C458 C461 1.387 . S
H459 C455 0.950 . S
H460 C457 0.950 . S
C461 C452 1.390 . S
C461 H454 0.950 . S
C461 C458 1.387 . S
C462 C463 1.387 . S
C462 H466 0.950 . S
C462 C471 1.390 . S
C463 C462 1.387 . S
C463 C465 1.387 1_545 S
H464 C471 0.950 . S
C465 C463 1.387 1_565 S
C465 C467 1.390 . S
C465 H469 0.950 . S
H466 C462 0.950 . S
C467 C465 1.390 . S
C467 C468 1.387 . S
C467 H470 0.950 . S
C468 C467 1.387 . S
C468 C471 1.387 1_565 S
H469 C465 0.950 . S
H470 C467 0.950 . S
C471 C462 1.390 . S
C471 H464 0.950 . S
C471 C468 1.387 1_545 S
C472 C473 1.387 . S
C472 H476 0.950 . S
C472 C481 1.390 . S
C473 C472 1.387 . S
C473 C475 1.387 . S
H474 C481 0.950 . S
C475 C473 1.387 . S
C475 C477 1.390 . S
C475 H479 0.950 . S
H476 C472 0.950 . S
C477 C475 1.390 . S
C477 C478 1.387 . S
C477 H480 0.950 . S
C478 C477 1.387 . S
C478 C481 1.387 . S
H479 C475 0.950 . S
H480 C477 0.950 . S
C481 C472 1.390 . S
C481 H474 0.950 . S
C481 C478 1.387 . S
C482 C483 1.387 1_655 S
C482 H486 0.950 . S
C482 C491 1.390 . S
C483 C482 1.387 1_455 S
C483 C485 1.387 . S
H484 C491 0.950 . S
C485 C483 1.387 . S
C485 C487 1.390 . S
C485 H489 0.950 . S
H486 C482 0.950 . S
C487 C485 1.390 . S
C487 C488 1.387 . S
C487 H490 0.950 . S
C488 C487 1.387 . S
C488 C491 1.387 1_455 S
H489 C485 0.950 . S
H490 C487 0.950 . S
C491 C482 1.390 . S
C491 H484 0.950 . S
C491 C488 1.387 1_655 S
C313 C6 0.923 . S
C318 C303 1.059 . S
C323 C59 1.962 . S
C328 C239 1.900 . S
C333 C86 1.405 . S
C338 C271 1.400 . S
C343 C15 0.739 . S
C348 C297 0.736 . S
C358 C233 1.960 . S
C353 C50 2.041 . S
C368 C265 1.391 . S
C363 C95 1.361 . S
C373 C46 1.310 . S
C378 C175 1.351 . S
C383 C99 3.130 . S
C388 C207 3.056 . S
C393 C10 2.069 . S
C398 C137 1.998 . S
C408 C169 1.398 . S
C403 C55 1.361 . S
C418 C201 3.065 . S
C413 C90 3.091 . S
C423 C19 1.959 . S
C428 C143 1.936 . S
C438 C213 1.767 1_554 S
C433 C18 1.732 . S
C443 C49 1.315 . S
C448 C149 1.338 . S
C453 C98 1.445 . S
C458 C181 1.478 . S
C468 C277 1.439 1_565 S
C463 C58 1.434 . S
C478 C309 1.057 . S
C473 C89 1.049 . S
C483 C9 1.308 . S
C488 C245 1.313 . S
