# Generated by pormake.
# Topology pth, (4,4)-cn, num edge types: 1
# Building blocks:
#     Node 0, Type 0, BuildingBlock: GALJAG_clean_sbu_0, # of connection points: 4
#     Node 1, Type 0, BuildingBlock: GALJAG_clean_sbu_0, # of connection points: 4
#     Node 2, Type 0, BuildingBlock: GALJAG_clean_sbu_0, # of connection points: 4
#     Node 3, Type 1, BuildingBlock: AZAVOO_clean_linker_0, # of connection points: 4
#     Node 4, Type 1, BuildingBlock: AZAVOO_clean_linker_0, # of connection points: 4
#     Node 5, Type 1, BuildingBlock: AZAVOO_clean_linker_0, # of connection points: 4
#     Edge 6, Type (0, 1), BuildingBlock: UVAHIK_clean_linker_0, # of connection points: 2
#     Edge 7, Type (0, 1), BuildingBlock: UVAHIK_clean_linker_0, # of connection points: 2
#     Edge 8, Type (0, 1), BuildingBlock: UVAHIK_clean_linker_0, # of connection points: 2
#     Edge 9, Type (0, 1), BuildingBlock: UVAHIK_clean_linker_0, # of connection points: 2
#     Edge 10, Type (0, 1), BuildingBlock: UVAHIK_clean_linker_0, # of connection points: 2
#     Edge 11, Type (0, 1), BuildingBlock: UVAHIK_clean_linker_0, # of connection points: 2
#     Edge 12, Type (0, 1), BuildingBlock: UVAHIK_clean_linker_0, # of connection points: 2
#     Edge 13, Type (0, 1), BuildingBlock: UVAHIK_clean_linker_0, # of connection points: 2
#     Edge 14, Type (0, 1), BuildingBlock: UVAHIK_clean_linker_0, # of connection points: 2
#     Edge 15, Type (0, 1), BuildingBlock: UVAHIK_clean_linker_0, # of connection points: 2
#     Edge 16, Type (0, 1), BuildingBlock: UVAHIK_clean_linker_0, # of connection points: 2
#     Edge 17, Type (0, 1), BuildingBlock: UVAHIK_clean_linker_0, # of connection points: 2
# Relax obj value: 0.120
# Max RMSD: 0.232
# Mean RMSD: 0.161
data_MOF--net-pth--node1-GALJAG_clean_sbu_0--node2-AZAVOO_clean_linker_0--edge1-UVAHIK_clean_linker_0
_symmetry_space_group_name_H-M    P1
_symmetry_Int_Tables_number       1
_symmetry_cell_setting            triclinic
loop_
_symmetry_equiv_pos_as_xyz
'x, y, z'
_cell_length_a     33.41991
_cell_length_b     33.756585
_cell_length_c     86.431537
_cell_angle_alpha  92.823986
_cell_angle_beta   89.15207
_cell_angle_gamma 120.00251
loop_
_atom_site_label
_atom_site_type_symbol
_atom_site_fract_x
_atom_site_fract_y
_atom_site_fract_z
_atom_type_partial_charge
In0 In 0.05816 0.04946 0.06124 0.0
O1 O 0.01691 0.07748 0.07415 0.0
O2 O 0.07115 0.07651 0.08636 0.0
C3 C 0.00333 0.01144 0.03599 0.0
C4 C 0.13332 0.12359 0.05083 0.0
C5 C 0.05635 0.97527 0.07203 0.0
O6 O 0.99043 0.02429 0.04805 0.0
O7 O 0.04371 0.0176 0.03671 0.0
O8 O 0.09119 0.00589 0.06535 0.0
O9 O 0.02239 0.98183 0.07302 0.0
C10 C 0.0391 0.08594 0.08672 0.0
O11 O 0.1357 0.0919 0.05712 0.0
O12 O 0.09321 0.11807 0.04998 0.0
In13 In 0.00934 0.03651 0.39136 0.0
O14 O 0.04167 0.09458 0.37489 0.0
O15 O 0.96892 0.06201 0.37802 0.0
C16 C 0.088 0.04989 0.40461 0.0
C17 C 0.96321 0.04086 0.41659 0.0
C18 C 0.98439 0.96164 0.37269 0.0
O19 O 0.08328 0.08267 0.40052 0.0
O20 O 0.05341 0.0108 0.40193 0.0
O21 O 0.96408 0.95995 0.3853 0.0
O22 O 0.01617 0.00106 0.36944 0.0
C23 C 0.00411 0.09257 0.37146 0.0
O24 O 0.94911 0.00453 0.40822 0.0
O25 O -7e-05 0.07465 0.41211 0.0
In26 In 0.04538 0.0553 0.72685 0.0
O27 O 0.00981 0.98492 0.73701 0.0
O28 O 0.0034 0.03776 0.74908 0.0
C29 C 0.09894 0.02554 0.7132 0.0
C30 C 0.986 0.05961 0.70696 0.0
C31 C 0.10783 0.13729 0.74003 0.0
O32 O 0.09545 0.02826 0.72773 0.0
O33 O 0.07497 0.03737 0.70557 0.0
O34 O 0.11659 0.11931 0.72832 0.0
O35 O 0.06728 0.11421 0.74503 0.0
C36 C 0.99311 0.99631 0.74839 0.0
O37 O 0.02275 0.09461 0.71166 0.0
O38 O 0.97963 0.02271 0.71211 0.0
H39 H 0.01196 0.47984 0.12455 0.0
H40 H 0.13465 0.84163 0.25811 0.0
H41 H 0.95599 0.44186 0.20916 0.0
H42 H 0.9399 0.36739 0.19791 0.0
H43 H 0.07921 0.40074 0.20945 0.0
H44 H 0.09412 0.47439 0.22122 0.0
H45 H 0.97927 0.52163 0.18838 0.0
H46 H 0.98018 0.50234 0.16076 0.0
H47 H 0.11495 0.51621 0.16676 0.0
H48 H 0.11372 0.53592 0.19435 0.0
H49 H 0.98834 0.60256 0.20431 0.0
H50 H 0.99401 0.65103 0.18345 0.0
H51 H 0.13866 0.69275 0.17825 0.0
H52 H 0.13158 0.6419 0.1987 0.0
H53 H 0.98959 0.61966 0.24138 0.0
H54 H 0.00292 0.69417 0.25168 0.0
H55 H 0.14804 0.75416 0.24098 0.0
H56 H 0.13431 0.67924 0.23096 0.0
H57 H 0.96689 0.5332 0.2586 0.0
H58 H 0.95645 0.57014 0.2821 0.0
H59 H 0.10388 0.66275 0.28501 0.0
H60 H 0.11398 0.62558 0.26144 0.0
H61 H 0.95695 0.44189 0.24203 0.0
H62 H 0.94431 0.38455 0.26074 0.0
H63 H 0.08509 0.46895 0.27722 0.0
H64 H 0.09759 0.52573 0.25836 0.0
O65 O 0.01228 0.48745 0.13551 0.0
O66 O 0.08124 0.49436 0.13925 0.0
O67 O 0.05352 0.7792 0.2594 0.0
O68 O 0.12824 0.81198 0.25382 0.0
C69 C 0.03697 0.50995 0.22115 0.0
C70 C 0.04608 0.54252 0.21001 0.0
C71 C 0.05422 0.58649 0.21474 0.0
C72 C 0.05362 0.59809 0.23058 0.0
C73 C 0.04508 0.5656 0.24176 0.0
C74 C 0.03672 0.5215 0.23705 0.0
C75 C 0.02619 0.46327 0.21593 0.0
C76 C 0.98265 0.43256 0.20948 0.0
C77 C 0.97369 0.39025 0.20298 0.0
C78 C 0.0084 0.37825 0.20264 0.0
C79 C 0.0515 0.40859 0.20969 0.0
C80 C 0.06025 0.45077 0.21633 0.0
C81 C 0.04651 0.53035 0.1933 0.0
C82 C 0.009 0.52064 0.18367 0.0
C83 C 0.00959 0.50954 0.16792 0.0
C84 C 0.04767 0.50779 0.16154 0.0
C85 C 0.08511 0.5173 0.17129 0.0
C86 C 0.0845 0.52852 0.18704 0.0
C87 C 0.05956 0.61899 0.20297 0.0
C88 C 0.02127 0.62247 0.19871 0.0
C89 C 0.02475 0.65044 0.18684 0.0
C90 C 0.06691 0.67608 0.17917 0.0
C91 C 0.10553 0.67304 0.18373 0.0
C92 C 0.10176 0.64444 0.19549 0.0
C93 C 0.06102 0.6441 0.23548 0.0
C94 C 0.02417 0.64901 0.2412 0.0
C95 C 0.0319 0.69158 0.24709 0.0
C96 C 0.07661 0.73011 0.24721 0.0
C97 C 0.11322 0.7252 0.2411 0.0
C98 C 0.10547 0.68253 0.23529 0.0
C99 C 0.04108 0.57725 0.25824 0.0
C100 C 0.9971 0.56009 0.26471 0.0
C101 C 0.99121 0.58126 0.27813 0.0
C102 C 0.0293 0.61986 0.28518 0.0
C103 C 0.0739 0.63349 0.27965 0.0
C104 C 0.07976 0.61218 0.26627 0.0
C105 C 0.0283 0.48768 0.24877 0.0
C106 C 0.98505 0.44782 0.24965 0.0
C107 C 0.9779 0.41521 0.26031 0.0
C108 C 0.01375 0.42236 0.2704 0.0
C109 C 0.05673 0.46282 0.26969 0.0
C110 C 0.06397 0.49515 0.25892 0.0
C111 C 0.04825 0.49614 0.14478 0.0
C112 C 0.08522 0.77515 0.25383 0.0
H113 H 0.583 0.05566 0.46086 0.0
H114 H 0.28338 0.09953 0.5851 0.0
H115 H 0.56855 -0.00141 0.541 0.0
H116 H 0.63417 0.99632 0.52943 0.0
H117 H 0.72688 0.12759 0.55232 0.0
H118 H 0.66018 0.13051 0.56317 0.0
H119 H 0.50004 0.01082 0.52215 0.0
H120 H 0.52392 0.01718 0.49507 0.0
H121 H 0.6407 0.15142 0.50634 0.0
H122 H 0.61605 0.14485 0.53336 0.0
H123 H 0.41649 0.00621 0.54033 0.0
H124 H 0.36968 0.00853 0.51934 0.0
H125 H 0.47454 0.14841 0.51171 0.0
H126 H 0.52038 0.14622 0.53318 0.0
H127 H 0.40793 0.99542 0.57593 0.0
H128 H 0.33561 0.99252 0.58335 0.0
H129 H 0.39472 0.13484 0.57278 0.0
H130 H 0.46705 0.13742 0.56559 0.0
H131 H 0.4892 0.98922 0.59383 0.0
H132 H 0.45061 0.97157 0.61885 0.0
H133 H 0.46179 0.1051 0.62183 0.0
H134 H 0.50287 0.12327 0.59736 0.0
H135 H 0.57516 0.99729 0.57765 0.0
H136 H 0.62952 -0.00237 0.59637 0.0
H137 H 0.6571 0.13027 0.61503 0.0
H138 H 0.60401 0.1303 0.59586 0.0
O139 O 0.57403 0.05398 0.47161 0.0
O140 O 0.63366 0.12274 0.47802 0.0
O141 O 0.28294 0.02673 0.58763 0.0
O142 O 0.31159 0.09973 0.58225 0.0
C143 C 0.5689 0.06868 0.55757 0.0
C144 C 0.54185 0.07332 0.54617 0.0
C145 C 0.50096 0.07338 0.55041 0.0
C146 C 0.48688 0.06851 0.56601 0.0
C147 C 0.5145 0.06477 0.57748 0.0
C148 C 0.55583 0.06546 0.57327 0.0
C149 C 0.60966 0.06494 0.55273 0.0
C150 C 0.60311 0.0266 0.54364 0.0
C151 C 0.6408 0.02521 0.53718 0.0
C152 C 0.68599 0.0619 0.53987 0.0
C153 C 0.69255 0.09912 0.54979 0.0
C154 C 0.6546 0.10072 0.55611 0.0
C155 C 0.55619 0.07746 0.52968 0.0
C156 C 0.53057 0.04169 0.51871 0.0
C157 C 0.54439 0.04536 0.50327 0.0
C158 C 0.58423 0.08482 0.49853 0.0
C159 C 0.60984 0.12058 0.50959 0.0
C160 C 0.59589 0.11691 0.52503 0.0
C161 C 0.47166 0.07607 0.53827 0.0
C162 C 0.42899 0.03752 0.53426 0.0
C163 C 0.40262 0.03877 0.52215 0.0
C164 C 0.41866 0.07853 0.51376 0.0
C165 C 0.46112 0.11742 0.51802 0.0
C166 C 0.48739 0.11619 0.53021 0.0
C167 C 0.44275 0.06666 0.57028 0.0
C168 C 0.40521 0.02596 0.57528 0.0
C169 C 0.36393 0.02438 0.57948 0.0
C170 C 0.35939 0.06349 0.57867 0.0
C171 C 0.39704 0.10413 0.57355 0.0
C172 C 0.43836 0.10569 0.5694 0.0
C173 C 0.49838 0.05734 0.59372 0.0
C174 C 0.48458 0.01513 0.60016 0.0
C175 C 0.46204 0.00493 0.61437 0.0
C176 C 0.45236 0.03657 0.62228 0.0
C177 C 0.46899 0.07998 0.61621 0.0
C178 C 0.49213 0.09037 0.60213 0.0
C179 C 0.58602 0.06393 0.58533 0.0
C180 C 0.59298 0.02635 0.5858 0.0
C181 C 0.62374 0.02648 0.59658 0.0
C182 C 0.64781 0.0641 0.60715 0.0
C183 C 0.6397 0.10114 0.60689 0.0
C184 C 0.60913 0.10106 0.59605 0.0
C185 C 0.59894 0.0885 0.48213 0.0
C186 C 0.31562 0.06202 0.58313 0.0
H187 H 0.63316 0.64276 0.99322 0.0
H188 H 0.32935 0.25541 0.86903 0.0
H189 H 0.59747 0.6609 0.8991 0.0
H190 H 0.65666 0.73488 0.91036 0.0
H191 H 0.74078 0.67529 0.92096 0.0
H192 H 0.6821 0.60195 0.90909 0.0
H193 H 0.56457 0.61282 0.9294 0.0
H194 H 0.58927 0.63497 0.95649 0.0
H195 H 0.63738 0.53742 0.95602 0.0
H196 H 0.61298 0.51601 0.92887 0.0
H197 H 0.47438 0.52 0.92529 0.0
H198 H 0.43061 0.47552 0.94712 0.0
H199 H 0.48428 0.38359 0.93832 0.0
H200 H 0.52956 0.42978 0.91682 0.0
H201 H 0.43112 0.4799 0.88685 0.0
H202 H 0.36159 0.40756 0.8793 0.0
H203 H 0.44089 0.33822 0.87957 0.0
H204 H 0.51015 0.41089 0.88695 0.0
H205 H 0.49484 0.55995 0.86583 0.0
H206 H 0.44827 0.53035 0.8421 0.0
H207 H 0.49494 0.43236 0.83487 0.0
H208 H 0.54297 0.46364 0.85833 0.0
H209 H 0.56971 0.63345 0.87056 0.0
H210 H 0.61926 0.68791 0.85151 0.0
H211 H 0.70583 0.62628 0.85037 0.0
H212 H 0.65549 0.5715 0.86914 0.0
O213 O 0.62382 0.63362 0.98249 0.0
O214 O 0.64797 0.58296 0.98165 0.0
O215 O 0.31705 0.32173 0.872 0.0
O216 O 0.35618 0.28441 0.87212 0.0
C217 C 0.59648 0.5802 0.89897 0.0
C218 C 0.57232 0.54971 0.91073 0.0
C219 C 0.53304 0.50694 0.90692 0.0
C220 C 0.51787 0.4946 0.8914 0.0
C221 C 0.54182 0.5253 0.87964 0.0
C222 C 0.58145 0.56781 0.88342 0.0
C223 C 0.63571 0.62626 0.90323 0.0
C224 C 0.62943 0.66433 0.90337 0.0
C225 C 0.66299 0.70636 0.90997 0.0
C226 C 0.7032 0.71083 0.91669 0.0
C227 C 0.71047 0.67316 0.91573 0.0
C228 C 0.67697 0.63119 0.90903 0.0
C229 C 0.58727 0.56304 0.92718 0.0
C230 C 0.5807 0.5965 0.93516 0.0
C231 C 0.59472 0.60897 0.95063 0.0
C232 C 0.61534 0.58799 0.95842 0.0
C233 C 0.62165 0.55428 0.95037 0.0
C234 C 0.60772 0.54194 0.93488 0.0
C235 C 0.50472 0.47779 0.91947 0.0
C236 C 0.47645 0.49011 0.92807 0.0
C237 C 0.45134 0.46452 0.94047 0.0
C238 C 0.45378 0.42586 0.94442 0.0
C239 C 0.48204 0.41345 0.93567 0.0
C240 C 0.50746 0.43938 0.9233 0.0
C241 C 0.47543 0.45042 0.88752 0.0
C242 C 0.43325 0.44896 0.88534 0.0
C243 C 0.39368 0.40765 0.88101 0.0
C244 C 0.39568 0.36707 0.87884 0.0
C245 C 0.4381 0.36877 0.88116 0.0
C246 C 0.47766 0.41015 0.88543 0.0
C247 C 0.52244 0.51411 0.86371 0.0
C248 C 0.49646 0.53338 0.85877 0.0
C249 C 0.4694 0.51599 0.84534 0.0
C250 C 0.46745 0.47862 0.83672 0.0
C251 C 0.49601 0.46143 0.84116 0.0
C252 C 0.52337 0.47912 0.85456 0.0
C253 C 0.60895 0.59846 0.87107 0.0
C254 C 0.59897 0.63136 0.86598 0.0
C255 C 0.62752 0.66264 0.85523 0.0
C256 C 0.66649 0.66142 0.84946 0.0
C257 C 0.67574 0.62771 0.85443 0.0
C258 C 0.6472 0.59653 0.86517 0.0
C259 C 0.63009 0.60124 0.97488 0.0
C260 C 0.35385 0.32315 0.87412 0.0
C261 C -0.0023 0.12217 0.1 0.0
C262 C 0.0287 0.10568 0.10073 0.0
C263 C 0.98943 0.14268 0.11313 0.0
C264 C 0.04418 0.20217 0.15026 0.0
H265 H 0.92572 0.19448 0.15743 0.0
C266 C 0.02016 0.31035 0.19905 0.0
C267 C 0.00108 0.33624 0.19383 0.0
C268 C 0.01752 0.27394 0.18981 0.0
C269 C 0.95892 0.19675 0.1556 0.0
H270 H 0.07393 0.09591 0.11584 0.0
H271 H 0.05881 0.13087 0.13887 0.0
H272 H 0.93253 0.14532 0.13713 0.0
H273 H 0.96322 0.34325 0.17495 0.0
H274 H 0.95803 0.2795 0.15905 0.0
H275 H 0.07072 0.2542 0.16852 0.0
C276 C 0.04167 0.12895 0.12809 0.0
C277 C 0.96291 0.16881 0.14394 0.0
C278 C 0.05023 0.1088 0.11492 0.0
C279 C 0.97756 0.3236 0.17949 0.0
C280 C 0.97461 0.28704 0.17034 0.0
C281 C 0.04009 0.22982 0.16198 0.0
C282 C 0.0117 0.14676 0.1273 0.0
C283 C 0.00589 0.17207 0.14087 0.0
C284 C 0.99544 0.26251 0.17525 0.0
C285 C -0.00228 0.22821 0.1645 0.0
H286 H 0.98064 0.12021 0.08919 0.0
H287 H 0.96672 0.15666 0.11203 0.0
H288 H 0.07794 0.20608 0.1481 0.0
H289 H 0.03785 0.31874 0.21015 0.0
H290 H 0.0335 0.25525 0.19392 0.0
C291 C 0.90349 0.00433 0.437 0.0
C292 C 0.93914 0.04395 0.43061 0.0
C293 C 0.88125 0.00771 0.4504 0.0
C294 C 0.85245 0.08566 0.47152 0.0
H295 H 0.83139 0.00979 0.5064 0.0
C296 C 0.75924 0.10402 0.52492 0.0
C297 C 0.72507 0.06302 0.53108 0.0
C298 C 0.79153 0.10388 0.51454 0.0
C299 C 0.83664 0.03096 0.49671 0.0
H300 H 0.97962 0.11805 0.43319 0.0
H301 H 0.94015 0.12392 0.45642 0.0
H302 H 0.87391 0.00377 0.484 0.0
H303 H 0.70069 0.99035 0.53212 0.0
H304 H 0.75534 0.98967 0.51343 0.0
H305 H 0.8138 0.11157 0.4837 0.0
C306 C 0.92958 0.09034 0.4511 0.0
C307 C 0.86103 0.02752 0.48392 0.0
C308 C 0.95217 0.08694 0.43785 0.0
C309 C 0.72585 0.02239 0.52733 0.0
C310 C 0.75771 0.02213 0.51675 0.0
C311 C 0.8276 0.08868 0.48417 0.0
C312 C 0.89391 0.05079 0.45749 0.0
C313 C 0.869 0.05477 0.47121 0.0
C314 C 0.79002 0.06265 0.50985 0.0
C315 C 0.81922 0.06129 0.49692 0.0
H316 H 0.89292 0.97077 0.43167 0.0
H317 H 0.85355 0.97675 0.45505 0.0
H318 H 0.85764 0.10663 0.46176 0.0
H319 H 0.75967 0.13597 0.52745 0.0
H320 H 0.8167 0.13595 0.50977 0.0
C321 C 0.94311 0.97697 0.77181 0.0
C322 C 0.96198 0.9631 0.75952 0.0
C323 C 0.9115 0.94488 0.78178 0.0
C324 C 0.82794 0.82181 0.78333 0.0
H325 H 0.83407 0.84747 0.82773 0.0
C326 C 0.71718 0.68335 0.8261 0.0
C327 C 0.69837 0.69609 0.83872 0.0
C328 C 0.74873 0.7163 0.81637 0.0
C329 C 0.83156 0.84003 0.81533 0.0
H330 H 0.96347 0.90508 0.74819 0.0
H331 H 0.90856 0.84913 0.76565 0.0
H332 H 0.89142 0.90463 0.8111 0.0
H333 H 0.69784 0.75341 0.85102 0.0
H334 H 0.75217 0.81084 0.83383 0.0
H335 H 0.76807 0.75732 0.78752 0.0
C336 C 0.9177 0.88467 0.76747 0.0
C337 C 0.86444 0.87273 0.80582 0.0
C338 C 0.94936 0.91674 0.75754 0.0
C339 C 0.71135 0.74244 0.84129 0.0
C340 C 0.74291 0.77541 0.83157 0.0
C341 C 0.79503 0.78918 0.79283 0.0
C342 C 0.89808 0.89831 0.7796 0.0
C343 C 0.86308 0.86387 0.78973 0.0
C344 C 0.76215 0.76274 0.81905 0.0
C345 C 0.79656 0.79784 0.80894 0.0
H346 H 0.95218 0.0125 0.77358 0.0
H347 H 0.89668 0.95635 0.79095 0.0
H348 H 0.82552 0.81433 0.77094 0.0
H349 H 0.70753 0.64784 0.82374 0.0
H350 H 0.76325 0.70548 0.80692 0.0
C351 C 0.09362 0.92873 0.07718 0.0
C352 C 0.05643 0.93669 0.07925 0.0
C353 C 0.09542 0.89474 0.08524 0.0
C354 C 0.02431 0.79541 0.10975 0.0
H355 H 0.14262 0.82908 0.12846 0.0
C356 C 0.04435 0.72782 0.16679 0.0
C357 C 0.0699 0.70499 0.16629 0.0
C358 C 0.04431 0.75229 0.15429 0.0
C359 C 0.10957 0.81907 0.12312 0.0
H360 H 0.99139 0.91472 0.09097 0.0
H361 H 0.9951 0.85678 0.10537 0.0
H362 H 0.13833 0.87771 0.1093 0.0
H363 H 0.11652 0.69122 0.15226 0.0
H364 H 0.11798 0.73615 0.13065 0.0
H365 H 0.99536 0.73842 0.12443 0.0
C366 C 0.02242 0.87568 0.09727 0.0
C367 C 0.10702 0.84667 0.11209 0.0
C368 C 0.02041 0.90921 0.0891 0.0
C369 C 0.09685 0.70877 0.15315 0.0
C370 C 0.09749 0.73411 0.14073 0.0
C371 C 0.02679 0.76837 0.12095 0.0
C372 C 0.06025 0.86841 0.09563 0.0
C373 C 0.06413 0.83579 0.10557 0.0
C374 C 0.07055 0.7553 0.14114 0.0
C375 C 0.06924 0.78059 0.12795 0.0
H376 H 0.12174 0.94931 0.06956 0.0
H377 H 0.12468 0.88959 0.08351 0.0
H378 H 0.99092 0.78531 0.10468 0.0
H379 H 0.02421 0.72678 0.17685 0.0
H380 H 0.02392 0.76914 0.15491 0.0
C381 C 0.16085 0.09904 0.41982 0.0
C382 C 0.12931 0.05636 0.41279 0.0
C383 C 0.19698 0.10351 0.42907 0.0
C384 C 0.22608 0.0322 0.45213 0.0
H385 H 0.347 0.14141 0.45568 0.0
C386 C 0.36899 0.04047 0.4902 0.0
C387 C 0.39121 0.07896 0.50052 0.0
C388 C 0.34098 0.03955 0.47824 0.0
C389 C 0.31327 0.11082 0.45482 0.0
H390 H 0.11232 0.98568 0.40899 0.0
H391 H 0.17608 0.9937 0.42466 0.0
H392 H 0.29127 0.13627 0.43649 0.0
H393 H 0.40257 0.14722 0.50609 0.0
H394 H 0.3537 0.14565 0.48503 0.0
H395 H 0.24791 0.00673 0.47041 0.0
C396 C 0.1722 0.02342 0.42352 0.0
C397 C 0.28136 0.10787 0.44387 0.0
C398 C 0.13584 0.01885 0.41446 0.0
C399 C 0.38615 0.1172 0.49826 0.0
C400 C 0.35823 0.11634 0.48622 0.0
C401 C 0.25798 0.03501 0.46294 0.0
C402 C 0.20241 0.06544 0.43129 0.0
C403 C 0.23734 0.06852 0.44244 0.0
C404 C 0.33477 0.07717 0.47628 0.0
C405 C 0.30182 0.07433 0.46443 0.0
H406 H 0.15648 0.12849 0.41871 0.0
H407 H 0.2194 0.13627 0.43498 0.0
H408 H 0.19213 0.00187 0.45164 0.0
H409 H 0.37309 0.01091 0.49141 0.0
H410 H 0.32388 0.00921 0.47057 0.0
C411 C 0.18957 0.20053 0.74326 0.0
C412 C 0.14319 0.18045 0.74779 0.0
C413 C 0.22385 0.23898 0.75149 0.0
C414 C 0.24572 0.29601 0.79033 0.0
H415 H 0.35572 0.39111 0.77134 0.0
C416 C 0.38639 0.44523 0.82696 0.0
C417 C 0.43174 0.45411 0.82444 0.0
C418 C 0.3511 0.41755 0.81641 0.0
C419 C 0.32521 0.36468 0.77677 0.0
H420 H 0.09585 0.1861 0.76393 0.0
H421 H 0.15552 0.25393 0.7781 0.0
H422 H 0.29291 0.33252 0.75495 0.0
H423 H 0.476 0.44261 0.80849 0.0
H424 H 0.41392 0.39358 0.79005 0.0
H425 H 0.27801 0.32773 0.8121 0.0
C426 C 0.16564 0.23934 0.76844 0.0
C427 C 0.28929 0.33112 0.76742 0.0
C428 C 0.13141 0.20065 0.76028 0.0
C429 C 0.44134 0.43611 0.81079 0.0
C430 C 0.40591 0.40841 0.80018 0.0
C431 C 0.28139 0.32961 0.79964 0.0
C432 C 0.2124 0.25835 0.76436 0.0
C433 C 0.24929 0.29612 0.7741 0.0
C434 C 0.36025 0.39799 0.8031 0.0
C435 C 0.32166 0.36409 0.79298 0.0
H436 H 0.19965 0.18563 0.73367 0.0
H437 H 0.2595 0.25235 0.74813 0.0
H438 H 0.21596 0.26906 0.7959 0.0
H439 H 0.37764 0.45799 0.83746 0.0
H440 H 0.31632 0.41051 0.81887 0.0
C441 C 0.91037 0.02158 0.69283 0.0
C442 C 0.95238 0.06151 0.69661 0.0
C443 C 0.87774 0.02329 0.68344 0.0
C444 C 0.86459 0.09115 0.65415 0.0
H445 H 0.73555 0.02522 0.66573 0.0
C446 C 0.7244 0.10585 0.62102 0.0
C447 C 0.68215 0.06523 0.61812 0.0
C448 C 0.75732 0.1067 0.631 0.0
C449 C 0.77136 0.04341 0.66225 0.0
H450 H 0.99346 0.13447 0.69343 0.0
H451 H 0.9363 0.13745 0.67693 0.0
H452 H 0.79356 0.02423 0.68222 0.0
H453 H 0.64106 0.99386 0.62365 0.0
H454 H 0.69899 0.99501 0.64073 0.0
H455 H 0.84241 0.10984 0.63407 0.0
C456 C 0.92877 0.10482 0.6812 0.0
C457 C 0.80457 0.04289 0.6717 0.0
C458 C 0.96137 0.10315 0.69068 0.0
C459 C 0.67345 0.02557 0.62551 0.0
C460 C 0.70644 0.02639 0.63546 0.0
C461 C 0.83134 0.09152 0.64465 0.0
C462 C 0.8865 0.06493 0.67757 0.0
C463 C 0.85149 0.06655 0.66771 0.0
C464 C 0.74884 0.06692 0.63826 0.0
C465 C 0.78431 0.06747 0.64856 0.0
H466 H 0.90252 0.98897 0.69722 0.0
H467 H 0.84574 0.99189 0.68066 0.0
H468 H 0.90044 0.10926 0.6507 0.0
H469 H 0.73242 0.13688 0.61538 0.0
H470 H 0.7894 0.13861 0.63305 0.0
C471 C 0.92817 0.98286 0.02203 0.0
C472 C 0.97327 0.98989 0.02223 0.0
C473 C 0.899 0.96036 0.00928 0.0
C474 C 0.89741 0.92261 0.96813 0.0
H475 H 0.77374 0.82663 0.97767 0.0
C476 C 0.78289 0.77031 0.92586 0.0
C477 C 0.7349 0.75277 0.92609 0.0
C478 C 0.81193 0.80613 0.93623 0.0
C479 C 0.80783 0.85385 0.97475 0.0
H480 H 0.02377 0.98018 0.0091 0.0
H481 H 0.9727 0.94032 0.98695 0.0
H482 H 0.82453 0.87686 -0.00153 0.0
H483 H 0.67994 0.7602 0.93702 0.0
H484 H 0.73068 0.8233 0.95479 0.0
H485 H 0.88088 0.89857 0.94441 0.0
C486 C 0.95998 0.95265 0.99654 0.0
C487 C 0.83697 0.88266 0.9867 0.0
C488 C 0.98911 0.97515 0.00928 0.0
C489 C 0.71681 0.77321 0.93641 0.0
C490 C 0.74581 0.809 0.94674 0.0
C491 C 0.8682 0.89372 0.95616 0.0
C492 C 0.9144 0.94446 0.99648 0.0
C493 C 0.88232 0.9169 0.98356 0.0
C494 C 0.79352 0.82507 0.94703 0.0
C495 C 0.82332 0.85861 0.95938 0.0
H496 H 0.91516 0.99416 0.03182 0.0
H497 H 0.86425 0.95505 0.0095 0.0
H498 H 0.93198 0.94913 0.96534 0.0
H499 H 0.79788 0.75556 0.91794 0.0
H500 H 0.84853 0.81755 0.93623 0.0
C501 C 0.94774 0.87647 0.36869 0.0
C502 C 0.97523 0.9205 0.36315 0.0
C503 C 0.94423 0.83817 0.36041 0.0
C504 C 0.96691 0.79986 0.32197 0.0
H505 H 0.99045 0.71807 0.34525 0.0
C506 C 0.04323 0.69729 0.29356 0.0
C507 C 0.02166 0.65033 0.2962 0.0
C508 C 0.03163 0.72573 0.30231 0.0
C509 C 0.98318 0.74023 0.33864 0.0
H510 H 0.01888 0.9589 0.34433 0.0
H511 H 0.01295 0.89252 0.32995 0.0
H512 H 0.97728 0.77555 0.35905 0.0
H513 H 0.97215 0.59654 0.3104 0.0
H514 H 0.95225 0.64692 0.32602 0.0
H515 H 0.97464 0.76586 0.30159 0.0
C516 C 0.99377 0.88725 0.3406 0.0
C517 C 0.97545 0.77298 0.34651 0.0
C518 C -0.00257 0.92538 0.34889 0.0
C519 C 0.98932 0.63266 0.30817 0.0
C520 C 0.97801 0.66138 0.31708 0.0
C521 C 0.97488 0.76742 0.31414 0.0
C522 C 0.96787 0.84332 0.34639 0.0
C523 C 0.96856 0.80399 0.33823 0.0
C524 C -0.00169 0.70794 0.31395 0.0
C525 C 0.98439 0.73821 0.32239 0.0
H526 H 0.93029 0.87178 0.37968 0.0
H527 H 0.92371 0.80467 0.36508 0.0
H528 H 0.96073 0.82261 0.31528 0.0
H529 H 0.06766 0.71179 0.28424 0.0
H530 H 0.04826 0.76165 0.2998 0.0
C531 C 0.15837 0.00139 0.71466 0.0
C532 C 0.13094 0.01255 0.70572 0.0
C533 C 0.19142 0.99286 0.70762 0.0
C534 C 0.22872 0.96873 0.66928 0.0
H535 H 0.3507 0.03049 0.68832 0.0
C536 C 0.38146 0.97877 0.63574 0.0
C537 C 0.42063 0.02285 0.63571 0.0
C538 C 0.34722 0.96815 0.64683 0.0
C539 C 0.31683 0.01297 0.68286 0.0
H540 H 0.11554 0.02225 0.6824 0.0
H541 H 0.17349 0.00821 0.67015 0.0
H542 H 0.2861 0.02906 0.70225 0.0
H543 H 0.45633 0.08892 0.64822 0.0
H544 H 0.39571 0.07123 0.66705 0.0
H545 H 0.2597 0.95537 0.64948 0.0
C546 C 0.16915 0.00524 0.68256 0.0
C547 C 0.27965 0.01165 0.69092 0.0
C548 C 0.13612 0.01363 0.68959 0.0
C549 C 0.42616 0.05497 0.64769 0.0
C550 C 0.3916 0.04454 0.65866 0.0
C551 C 0.26587 0.97034 0.66118 0.0
C552 C 0.19763 0.99535 0.6915 0.0
C553 C 0.23545 0.9907 0.68402 0.0
C554 C 0.35094 0.00152 0.65801 0.0
C555 C 0.31066 0.99358 0.66769 0.0
H556 H 0.15497 0.00016 0.72714 0.0
H557 H 0.21245 0.98484 0.7148 0.0
H558 H 0.19494 0.95155 0.66375 0.0
H559 H 0.37573 0.95313 0.62667 0.0
H560 H 0.31684 0.93435 0.6462 0.0
C561 C 0.16775 0.19394 0.0357 0.0
C562 C 0.17359 0.16238 0.04395 0.0
C563 C 0.20465 0.22794 0.02779 0.0
C564 C 0.31312 0.25037 0.00945 0.0
H565 H 0.32516 0.36901 0.00358 0.0
C566 C 0.44591 0.38123 0.96784 0.0
C567 C 0.42684 0.39878 0.95764 0.0
C568 C 0.42044 0.35624 0.98037 0.0
C569 C 0.32222 0.33601 0.00514 0.0
H570 H 0.22305 0.14291 0.05108 0.0
H571 H 0.28795 0.20293 0.03741 0.0
H572 H 0.27175 0.31966 0.02286 0.0
H573 H 0.36574 0.40295 0.95244 0.0
H574 H 0.32178 0.36003 0.97439 0.0
H575 H 0.3631 0.26658 0.99151 0.0
C576 C 0.2546 0.20084 0.03683 0.0
C577 C 0.29163 0.30774 0.01615 0.0
C578 C 0.21754 0.16665 0.04472 0.0
C579 C 0.38183 0.39075 0.96025 0.0
C580 C 0.35662 0.36618 0.97282 0.0
C581 C 0.34399 0.27883 -0.00149 0.0
C582 C 0.2483 0.23127 0.02802 0.0
C583 C 0.28574 0.26405 0.01811 0.0
C584 C 0.37566 0.34871 0.983 0.0
C585 C 0.34781 0.32133 0.99596 0.0
H586 H 0.13423 0.19145 0.0349 0.0
H587 H 0.19837 0.25034 0.02094 0.0
H588 H 0.30907 0.21674 0.01054 0.0
H589 H 0.48072 0.38734 0.96628 0.0
H590 H 0.43593 0.34324 0.98811 0.0
C591 C 0.04147 0.15482 0.35283 0.0
C592 C 0.00187 0.12421 0.3608 0.0
C593 C 0.04004 0.18589 0.34312 0.0
C594 C 0.9602 0.20992 0.32166 0.0
H595 H 0.06622 0.33271 0.3222 0.0
C596 C 0.98621 0.34093 0.27638 0.0
C597 C 0.00691 0.38727 0.28138 0.0
C598 C 0.98253 0.30822 0.28647 0.0
C599 C 0.03607 0.29877 0.32203 0.0
H600 H 0.92954 0.10164 0.36477 0.0
H601 H 0.92719 0.15661 0.348 0.0
H602 H 0.06562 0.27692 0.33904 0.0
H603 H 0.0381 0.43554 0.30098 0.0
H604 H 0.03102 0.37839 0.3187 0.0
H605 H 0.93025 0.23227 0.30487 0.0
C606 C 0.9592 0.15614 0.34907 0.0
C607 C 0.03603 0.26654 0.33153 0.0
C608 C 0.96058 0.12483 0.35873 0.0
C609 C 0.02263 0.40012 0.29677 0.0
C610 C 0.01866 0.3674 0.30689 0.0
C611 C 0.96016 0.24229 0.31219 0.0
C612 C -0.00096 0.18727 0.34125 0.0
C613 C -0.00172 0.22164 0.33137 0.0
C614 C -0.00077 0.32118 0.30179 0.0
C615 C -0.00178 0.28703 0.31221 0.0
H616 H 0.0737 0.15487 0.35412 0.0
H617 H 0.0711 0.20875 0.33703 0.0
H618 H 0.93072 0.17553 0.32117 0.0
H619 H 0.97425 0.33019 0.26451 0.0
H620 H 0.96794 0.27304 0.2821 0.0
loop_
_geom_bond_atom_site_label_1
_geom_bond_atom_site_label_2
_geom_bond_distance
_geom_bond_site_symmetry_2
_ccdc_geom_bond_type
In0 O1 2.294 . S
In0 O2 2.326 . S
In0 O6 2.266 1_455 S
In0 O7 2.326 1_545 S
In0 O8 2.266 . S
In0 O9 2.326 1_545 S
In0 O11 2.294 . S
In0 O12 2.326 . S
O1 In0 2.294 . S
O1 C10 1.240 . S
O2 In0 2.326 . S
O2 C10 1.252 . S
C3 O6 1.252 1_465 S
C3 O7 1.260 . S
C4 O11 1.240 . S
C4 O12 1.252 . S
C5 O8 1.252 1_565 S
C5 O9 1.260 . S
O6 In0 2.266 1_655 S
O6 C3 1.252 1_645 S
O7 In0 2.326 1_565 S
O7 C3 1.260 . S
O8 In0 2.266 . S
O8 C5 1.252 1_545 S
O9 In0 2.326 1_565 S
O9 C5 1.260 . S
C10 O1 1.240 . S
C10 O2 1.252 . S
O11 In0 2.294 . S
O11 C4 1.240 . S
O12 In0 2.326 . S
O12 C4 1.252 . S
In13 O14 2.294 . S
In13 O15 2.326 1_455 S
In13 O19 2.266 . S
In13 O20 2.326 1_545 S
In13 O21 2.266 1_445 S
In13 O22 2.326 . S
In13 O24 2.294 1_455 S
In13 O25 2.326 . S
O14 In13 2.294 . S
O14 C23 1.240 . S
O15 In13 2.326 1_655 S
O15 C23 1.252 1_655 S
C16 O19 1.252 . S
C16 O20 1.260 1_545 S
C17 O24 1.240 . S
C17 O25 1.252 1_655 S
C18 O21 1.252 1_455 S
C18 O22 1.260 1_565 S
O19 In13 2.266 . S
O19 C16 1.252 . S
O20 In13 2.326 1_565 S
O20 C16 1.260 1_565 S
O21 In13 2.266 1_665 S
O21 C18 1.252 1_655 S
O22 In13 2.326 . S
O22 C18 1.260 1_545 S
C23 O14 1.240 . S
C23 O15 1.252 1_455 S
O24 In13 2.294 1_655 S
O24 C17 1.240 . S
O25 In13 2.326 . S
O25 C17 1.252 1_455 S
In26 O27 2.294 1_545 S
In26 O28 2.326 . S
In26 O32 2.266 . S
In26 O33 2.326 . S
In26 O34 2.266 . S
In26 O35 2.326 . S
In26 O37 2.294 . S
In26 O38 2.326 . S
O27 In26 2.294 1_565 S
O27 C36 1.240 1_565 S
O28 In26 2.326 . S
O28 C36 1.252 . S
C29 O32 1.252 . S
C29 O33 1.260 . S
C30 O37 1.240 . S
C30 O38 1.252 . S
C31 O34 1.252 . S
C31 O35 1.260 . S
O32 In26 2.266 . S
O32 C29 1.252 . S
O33 In26 2.326 . S
O33 C29 1.260 . S
O34 In26 2.266 . S
O34 C31 1.252 . S
O35 In26 2.326 . S
O35 C31 1.260 . S
C36 O27 1.240 1_545 S
C36 O28 1.252 . S
O37 In26 2.294 . S
O37 C30 1.240 . S
O38 In26 2.326 . S
O38 C30 1.252 . S
H39 O65 0.856 . S
H40 O68 0.854 . S
H41 C76 0.930 . S
H42 C77 0.930 . S
H43 C79 0.930 . S
H44 C80 0.930 . S
H45 C82 0.931 1_655 S
H46 C83 0.930 1_655 S
H47 C85 0.930 . S
H48 C86 0.929 . S
H49 C88 0.930 1_655 S
H50 C89 0.931 1_655 S
H51 C91 0.930 . S
H52 C92 0.929 . S
H53 C94 0.931 1_655 S
H54 C95 0.930 1_655 S
H55 C97 0.930 . S
H56 C98 0.932 . S
H57 C100 0.930 . S
H58 C101 0.929 . S
H59 C103 0.931 . S
H60 C104 0.930 . S
H61 C106 0.927 . S
H62 C107 0.931 1_655 S
H63 C109 0.930 . S
H64 C110 0.929 . S
O65 H39 0.856 . S
O65 C111 1.300 . S
O66 C111 1.209 . S
O67 C112 1.199 . S
O68 H40 0.854 . S
O68 C112 1.297 . S
C69 C70 1.404 . S
C69 C74 1.397 . S
C69 C75 1.492 . S
C70 C69 1.404 . S
C70 C71 1.396 . S
C70 C81 1.492 . S
C71 C70 1.396 . S
C71 C72 1.397 . S
C71 C87 1.509 . S
C72 C71 1.397 . S
C72 C73 1.412 . S
C72 C93 1.485 . S
C73 C72 1.412 . S
C73 C74 1.388 . S
C73 C99 1.490 . S
C74 C69 1.397 . S
C74 C73 1.388 . S
C74 C105 1.519 . S
C75 C69 1.492 . S
C75 C76 1.363 1_455 S
C75 C80 1.390 . S
C76 H41 0.930 . S
C76 C75 1.363 1_655 S
C76 C77 1.372 . S
C77 H42 0.930 . S
C77 C76 1.372 . S
C77 C78 1.383 1_655 S
C78 C77 1.383 1_455 S
C78 C79 1.395 . S
C79 H43 0.930 . S
C79 C78 1.395 . S
C79 C80 1.362 . S
C80 H44 0.930 . S
C80 C75 1.390 . S
C80 C79 1.362 . S
C81 C70 1.492 . S
C81 C82 1.377 . S
C81 C86 1.397 . S
C82 H45 0.931 1_455 S
C82 C81 1.377 . S
C82 C83 1.376 . S
C83 H46 0.930 1_455 S
C83 C82 1.376 . S
C83 C84 1.376 . S
C84 C83 1.376 . S
C84 C85 1.378 . S
C84 C111 1.486 . S
C85 H47 0.930 . S
C85 C84 1.378 . S
C85 C86 1.376 . S
C86 H48 0.929 . S
C86 C81 1.397 . S
C86 C85 1.376 . S
C87 C71 1.509 . S
C87 C88 1.391 . S
C87 C92 1.386 . S
C88 H49 0.930 1_455 S
C88 C87 1.391 . S
C88 C89 1.375 . S
C89 H50 0.931 1_455 S
C89 C88 1.375 . S
C89 C90 1.375 . S
C90 C89 1.375 . S
C90 C91 1.361 . S
C91 H51 0.930 . S
C91 C90 1.361 . S
C91 C92 1.399 . S
C92 H52 0.929 . S
C92 C87 1.386 . S
C92 C91 1.399 . S
C93 C72 1.485 . S
C93 C94 1.394 . S
C93 C98 1.360 . S
C94 H53 0.931 1_455 S
C94 C93 1.394 . S
C94 C95 1.372 . S
C95 H54 0.930 1_455 S
C95 C94 1.372 . S
C95 C96 1.397 . S
C96 C95 1.397 . S
C96 C97 1.390 . S
C96 C112 1.476 . S
C97 H55 0.930 . S
C97 C96 1.390 . S
C97 C98 1.366 . S
C98 H56 0.932 . S
C98 C93 1.360 . S
C98 C97 1.366 . S
C99 C73 1.490 . S
C99 C100 1.380 1_455 S
C99 C104 1.386 . S
C100 H57 0.930 . S
C100 C99 1.380 1_655 S
C100 C101 1.381 . S
C101 H58 0.929 . S
C101 C100 1.381 . S
C101 C102 1.371 1_655 S
C102 C101 1.371 1_455 S
C102 C103 1.380 . S
C103 H59 0.931 . S
C103 C102 1.380 . S
C103 C104 1.387 . S
C104 H60 0.930 . S
C104 C99 1.386 . S
C104 C103 1.387 . S
C105 C74 1.519 . S
C105 C106 1.378 1_455 S
C105 C110 1.361 . S
C106 H61 0.927 . S
C106 C105 1.378 1_655 S
C106 C107 1.387 1_655 S
C107 H62 0.931 1_455 S
C107 C106 1.387 1_455 S
C107 C108 1.363 . S
C108 C107 1.363 . S
C108 C109 1.385 . S
C109 H63 0.930 . S
C109 C108 1.385 . S
C109 C110 1.396 . S
C110 H64 0.929 . S
C110 C105 1.361 . S
C110 C109 1.396 . S
C111 O65 1.300 . S
C111 O66 1.209 . S
C111 C84 1.486 . S
C112 O67 1.199 . S
C112 O68 1.297 . S
C112 C96 1.476 . S
H113 O139 0.856 . S
H114 O142 0.854 . S
H115 C150 0.930 1_565 S
H116 C151 0.930 1_565 S
H117 C153 0.930 . S
H118 C154 0.930 . S
H119 C156 0.931 . S
H120 C157 0.945 . S
H121 C159 0.930 . S
H122 C160 0.929 . S
H123 C162 0.954 . S
H124 C163 0.931 . S
H125 C165 0.930 . S
H126 C166 0.929 . S
H127 C168 0.931 . S
H128 C169 0.930 . S
H129 C171 0.930 . S
H130 C172 0.932 . S
H131 C174 0.930 1_565 S
H132 C175 0.929 1_565 S
H133 C177 0.931 . S
H134 C178 0.930 . S
H135 C180 0.929 1_565 S
H136 C181 0.931 . S
H137 C183 0.930 . S
H138 C184 0.929 . S
O139 H113 0.856 . S
O139 C185 1.300 . S
O140 C185 1.209 . S
O141 C186 1.199 . S
O142 H114 0.854 . S
O142 C186 1.297 . S
C143 C144 1.404 . S
C143 C148 1.397 . S
C143 C149 1.492 . S
C144 C143 1.404 . S
C144 C145 1.396 . S
C144 C155 1.492 . S
C145 C144 1.396 . S
C145 C146 1.397 . S
C145 C161 1.509 . S
C146 C145 1.397 . S
C146 C147 1.412 . S
C146 C167 1.485 . S
C147 C146 1.412 . S
C147 C148 1.388 . S
C147 C173 1.490 . S
C148 C143 1.397 . S
C148 C147 1.388 . S
C148 C179 1.519 . S
C149 C143 1.492 . S
C149 C150 1.363 . S
C149 C154 1.390 . S
C150 H115 0.930 1_545 S
C150 C149 1.363 . S
C150 C151 1.372 . S
C151 H116 0.930 1_545 S
C151 C150 1.372 . S
C151 C152 1.383 . S
C152 C151 1.383 . S
C152 C153 1.395 . S
C153 H117 0.930 . S
C153 C152 1.395 . S
C153 C154 1.362 . S
C154 H118 0.930 . S
C154 C149 1.390 . S
C154 C153 1.362 . S
C155 C144 1.492 . S
C155 C156 1.377 . S
C155 C160 1.397 . S
C156 H119 0.931 . S
C156 C155 1.377 . S
C156 C157 1.376 . S
C157 H120 0.945 . S
C157 C156 1.376 . S
C157 C158 1.376 . S
C158 C157 1.376 . S
C158 C159 1.378 . S
C158 C185 1.486 . S
C159 H121 0.930 . S
C159 C158 1.378 . S
C159 C160 1.376 . S
C160 H122 0.929 . S
C160 C155 1.397 . S
C160 C159 1.376 . S
C161 C145 1.509 . S
C161 C162 1.391 . S
C161 C166 1.386 . S
C162 H123 0.954 . S
C162 C161 1.391 . S
C162 C163 1.375 . S
C163 H124 0.931 . S
C163 C162 1.375 . S
C163 C164 1.375 . S
C164 C163 1.375 . S
C164 C165 1.361 . S
C165 H125 0.930 . S
C165 C164 1.361 . S
C165 C166 1.399 . S
C166 H126 0.929 . S
C166 C161 1.386 . S
C166 C165 1.399 . S
C167 C146 1.485 . S
C167 C168 1.394 . S
C167 C172 1.360 . S
C168 H127 0.931 . S
C168 C167 1.394 . S
C168 C169 1.372 . S
C169 H128 0.930 . S
C169 C168 1.372 . S
C169 C170 1.397 . S
C170 C169 1.397 . S
C170 C171 1.390 . S
C170 C186 1.476 . S
C171 H129 0.930 . S
C171 C170 1.390 . S
C171 C172 1.366 . S
C172 H130 0.932 . S
C172 C167 1.360 . S
C172 C171 1.366 . S
C173 C147 1.490 . S
C173 C174 1.380 . S
C173 C178 1.386 . S
C174 H131 0.930 1_545 S
C174 C173 1.380 . S
C174 C175 1.381 . S
C175 H132 0.929 1_545 S
C175 C174 1.381 . S
C175 C176 1.371 . S
C176 C175 1.371 . S
C176 C177 1.380 . S
C177 H133 0.931 . S
C177 C176 1.380 . S
C177 C178 1.387 . S
C178 H134 0.930 . S
C178 C173 1.386 . S
C178 C177 1.387 . S
C179 C148 1.519 . S
C179 C180 1.377 . S
C179 C184 1.361 . S
C180 H135 0.929 1_545 S
C180 C179 1.377 . S
C180 C181 1.386 . S
C181 H136 0.931 . S
C181 C180 1.386 . S
C181 C182 1.363 . S
C182 C181 1.363 . S
C182 C183 1.385 . S
C183 H137 0.930 . S
C183 C182 1.385 . S
C183 C184 1.396 . S
C184 H138 0.929 . S
C184 C179 1.361 . S
C184 C183 1.396 . S
C185 O139 1.300 . S
C185 O140 1.209 . S
C185 C158 1.486 . S
C186 O141 1.199 . S
C186 O142 1.297 . S
C186 C170 1.476 . S
H187 O213 0.900 . S
H188 O216 0.854 . S
H189 C224 0.930 . S
H190 C225 0.930 . S
H191 C227 0.930 . S
H192 C228 0.930 . S
H193 C230 0.931 . S
H194 C231 0.930 . S
H195 C233 0.930 . S
H196 C234 0.929 . S
H197 C236 0.930 . S
H198 C237 0.931 . S
H199 C239 0.930 . S
H200 C240 0.929 . S
H201 C242 0.931 . S
H202 C243 0.930 . S
H203 C245 0.930 . S
H204 C246 0.932 . S
H205 C248 0.930 . S
H206 C249 0.929 . S
H207 C251 0.931 . S
H208 C252 0.930 . S
H209 C254 0.929 . S
H210 C255 0.931 . S
H211 C257 0.930 . S
H212 C258 0.929 . S
O213 H187 0.900 . S
O213 C259 1.272 1_554 S
O214 C259 1.209 . S
O215 C260 1.199 . S
O216 H188 0.854 . S
O216 C260 1.297 . S
C217 C218 1.404 . S
C217 C222 1.397 . S
C217 C223 1.492 . S
C218 C217 1.404 . S
C218 C219 1.396 . S
C218 C229 1.492 . S
C219 C218 1.396 . S
C219 C220 1.397 . S
C219 C235 1.509 . S
C220 C219 1.397 . S
C220 C221 1.412 . S
C220 C241 1.485 . S
C221 C220 1.412 . S
C221 C222 1.388 . S
C221 C247 1.490 . S
C222 C217 1.397 . S
C222 C221 1.388 . S
C222 C253 1.519 . S
C223 C217 1.492 . S
C223 C224 1.363 . S
C223 C228 1.390 . S
C224 H189 0.930 . S
C224 C223 1.363 . S
C224 C225 1.372 . S
C225 H190 0.930 . S
C225 C224 1.372 . S
C225 C226 1.383 . S
C226 C225 1.383 . S
C226 C227 1.395 . S
C227 H191 0.930 . S
C227 C226 1.395 . S
C227 C228 1.362 . S
C228 H192 0.930 . S
C228 C223 1.390 . S
C228 C227 1.362 . S
C229 C218 1.492 . S
C229 C230 1.377 . S
C229 C234 1.397 . S
C230 H193 0.931 . S
C230 C229 1.377 . S
C230 C231 1.376 . S
C231 H194 0.930 . S
C231 C230 1.376 . S
C231 C232 1.376 . S
C232 C231 1.376 . S
C232 C233 1.378 . S
C232 C259 1.486 . S
C233 H195 0.930 . S
C233 C232 1.378 . S
C233 C234 1.376 . S
C234 H196 0.929 . S
C234 C229 1.397 . S
C234 C233 1.376 . S
C235 C219 1.509 . S
C235 C236 1.391 . S
C235 C240 1.386 . S
C236 H197 0.930 . S
C236 C235 1.391 . S
C236 C237 1.375 . S
C237 H198 0.931 . S
C237 C236 1.375 . S
C237 C238 1.375 . S
C238 C237 1.375 . S
C238 C239 1.361 . S
C239 H199 0.930 . S
C239 C238 1.361 . S
C239 C240 1.399 . S
C240 H200 0.929 . S
C240 C235 1.386 . S
C240 C239 1.399 . S
C241 C220 1.485 . S
C241 C242 1.394 . S
C241 C246 1.360 . S
C242 H201 0.931 . S
C242 C241 1.394 . S
C242 C243 1.372 . S
C243 H202 0.930 . S
C243 C242 1.372 . S
C243 C244 1.397 . S
C244 C243 1.397 . S
C244 C245 1.390 . S
C244 C260 1.476 . S
C245 H203 0.930 . S
C245 C244 1.390 . S
C245 C246 1.366 . S
C246 H204 0.932 . S
C246 C241 1.360 . S
C246 C245 1.366 . S
C247 C221 1.490 . S
C247 C248 1.380 . S
C247 C252 1.386 . S
C248 H205 0.930 . S
C248 C247 1.380 . S
C248 C249 1.381 . S
C249 H206 0.929 . S
C249 C248 1.381 . S
C249 C250 1.371 . S
C250 C249 1.371 . S
C250 C251 1.380 . S
C251 H207 0.931 . S
C251 C250 1.380 . S
C251 C252 1.387 . S
C252 H208 0.930 . S
C252 C247 1.386 . S
C252 C251 1.387 . S
C253 C222 1.519 . S
C253 C254 1.377 . S
C253 C258 1.361 . S
C254 H209 0.929 . S
C254 C253 1.377 . S
C254 C255 1.386 . S
C255 H210 0.931 . S
C255 C254 1.386 . S
C255 C256 1.363 . S
C256 C255 1.363 . S
C256 C257 1.385 . S
C257 H211 0.930 . S
C257 C256 1.385 . S
C257 C258 1.396 . S
C258 H212 0.929 . S
C258 C253 1.361 . S
C258 C257 1.396 . S
C259 O213 1.272 1_556 S
C259 O214 1.209 . S
C259 C232 1.486 . S
C260 O215 1.199 . S
C260 O216 1.297 . S
C260 C244 1.476 . S
C261 C262 1.349 . S
C261 C263 1.327 . S
C261 H286 0.950 . S
C262 C261 1.349 . S
C262 C278 1.349 . S
C263 C261 1.327 . S
C263 C282 1.429 . S
C263 H287 0.950 . S
C264 C281 1.574 . S
C264 C283 1.368 . S
C264 H288 0.949 . S
H265 C269 0.949 1_655 S
C266 C267 1.349 . S
C266 C268 1.327 . S
C266 H289 0.950 . S
C267 C266 1.349 . S
C267 C279 1.349 . S
C268 C266 1.327 . S
C268 C284 1.429 . S
C268 H290 0.950 . S
C269 H265 0.949 1_455 S
C269 C277 1.574 . S
C269 C285 1.368 . S
H270 C278 0.950 . S
H271 C276 0.950 . S
H272 C277 0.949 . S
H273 C279 0.950 1_655 S
H274 C280 0.950 1_655 S
H275 C281 0.949 . S
C276 H271 0.950 . S
C276 C278 1.327 . S
C276 C282 1.429 . S
C277 C269 1.574 . S
C277 H272 0.949 . S
C277 C283 1.368 . S
C278 C262 1.349 . S
C278 H270 0.950 . S
C278 C276 1.327 . S
C279 C267 1.349 . S
C279 H273 0.950 1_455 S
C279 C280 1.327 . S
C280 H274 0.950 1_455 S
C280 C279 1.327 . S
C280 C284 1.429 . S
C281 C264 1.574 . S
C281 H275 0.949 . S
C281 C285 1.368 . S
C282 C263 1.429 . S
C282 C276 1.429 . S
C282 C283 1.523 . S
C283 C264 1.368 . S
C283 C277 1.368 . S
C283 C282 1.523 . S
C284 C268 1.429 . S
C284 C280 1.429 . S
C284 C285 1.523 . S
C285 C269 1.368 . S
C285 C281 1.368 . S
C285 C284 1.523 . S
H286 C261 0.950 . S
H287 C263 0.950 . S
H288 C264 0.949 . S
H289 C266 0.950 . S
H290 C268 0.950 . S
C291 C292 1.349 . S
C291 C293 1.327 . S
C291 H316 0.950 1_545 S
C292 C291 1.349 . S
C292 C308 1.349 . S
C293 C291 1.327 . S
C293 C312 1.429 . S
C293 H317 0.950 1_545 S
C294 C311 1.574 . S
C294 C313 1.368 . S
C294 H318 0.949 . S
H295 C299 0.949 1_565 S
C296 C297 1.349 . S
C296 C298 1.327 . S
C296 H319 0.950 . S
C297 C296 1.349 . S
C297 C309 1.349 . S
C298 C296 1.327 . S
C298 C314 1.429 . S
C298 H320 0.950 . S
C299 H295 0.949 1_545 S
C299 C307 1.574 . S
C299 C315 1.368 . S
H300 C308 0.950 . S
H301 C306 0.950 . S
H302 C307 0.949 1_565 S
H303 C309 0.950 1_565 S
H304 C310 0.950 1_565 S
H305 C311 0.949 . S
C306 H301 0.950 . S
C306 C308 1.327 . S
C306 C312 1.429 . S
C307 C299 1.574 . S
C307 H302 0.949 1_545 S
C307 C313 1.368 . S
C308 C292 1.349 . S
C308 H300 0.950 . S
C308 C306 1.327 . S
C309 C297 1.349 . S
C309 H303 0.950 1_545 S
C309 C310 1.327 . S
C310 H304 0.950 1_545 S
C310 C309 1.327 . S
C310 C314 1.429 . S
C311 C294 1.574 . S
C311 H305 0.949 . S
C311 C315 1.368 . S
C312 C293 1.429 . S
C312 C306 1.429 . S
C312 C313 1.523 . S
C313 C294 1.368 . S
C313 C307 1.368 . S
C313 C312 1.523 . S
C314 C298 1.429 . S
C314 C310 1.429 . S
C314 C315 1.523 . S
C315 C299 1.368 . S
C315 C311 1.368 . S
C315 C314 1.523 . S
H316 C291 0.950 1_565 S
H317 C293 0.950 1_565 S
H318 C294 0.949 . S
H319 C296 0.950 . S
H320 C298 0.950 . S
C321 C322 1.349 . S
C321 C323 1.327 . S
C321 H346 0.947 1_565 S
C322 C321 1.349 . S
C322 C338 1.349 . S
C323 C321 1.327 . S
C323 C342 1.429 . S
C323 H347 0.950 . S
C324 C341 1.574 . S
C324 C343 1.368 . S
C324 H348 0.949 . S
H325 C329 0.949 . S
C326 C327 1.349 . S
C326 C328 1.327 . S
C326 H349 0.950 . S
C327 C326 1.349 . S
C327 C339 1.349 . S
C328 C326 1.327 . S
C328 C344 1.429 . S
C328 H350 0.950 . S
C329 H325 0.949 . S
C329 C337 1.574 . S
C329 C345 1.368 . S
H330 C338 0.950 . S
H331 C336 0.950 . S
H332 C337 0.949 . S
H333 C339 0.950 . S
H334 C340 0.950 . S
H335 C341 0.949 . S
C336 H331 0.950 . S
C336 C338 1.327 . S
C336 C342 1.429 . S
C337 C329 1.574 . S
C337 H332 0.949 . S
C337 C343 1.368 . S
C338 C322 1.349 . S
C338 H330 0.950 . S
C338 C336 1.327 . S
C339 C327 1.349 . S
C339 H333 0.950 . S
C339 C340 1.327 . S
C340 H334 0.950 . S
C340 C339 1.327 . S
C340 C344 1.429 . S
C341 C324 1.574 . S
C341 H335 0.949 . S
C341 C345 1.368 . S
C342 C323 1.429 . S
C342 C336 1.429 . S
C342 C343 1.523 . S
C343 C324 1.368 . S
C343 C337 1.368 . S
C343 C342 1.523 . S
C344 C328 1.429 . S
C344 C340 1.429 . S
C344 C345 1.523 . S
C345 C329 1.368 . S
C345 C341 1.368 . S
C345 C344 1.523 . S
H346 C321 0.947 1_545 S
H347 C323 0.950 . S
H348 C324 0.949 . S
H349 C326 0.950 . S
H350 C328 0.950 . S
C351 C352 1.349 . S
C351 C353 1.327 . S
C351 H376 0.950 . S
C352 C351 1.349 . S
C352 C368 1.349 . S
C353 C351 1.327 . S
C353 C372 1.429 . S
C353 H377 0.950 . S
C354 C371 1.574 . S
C354 C373 1.368 . S
C354 H378 0.949 . S
H355 C359 0.949 . S
C356 C357 1.349 . S
C356 C358 1.327 . S
C356 H379 0.950 . S
C357 C356 1.349 . S
C357 C369 1.349 . S
C358 C356 1.327 . S
C358 C374 1.429 . S
C358 H380 0.950 . S
C359 H355 0.949 . S
C359 C367 1.574 . S
C359 C375 1.368 . S
H360 C368 0.950 . S
H361 C366 0.950 . S
H362 C367 0.949 . S
H363 C369 0.950 . S
H364 C370 0.950 . S
H365 C371 0.949 . S
C366 H361 0.950 . S
C366 C368 1.327 . S
C366 C372 1.429 . S
C367 C359 1.574 . S
C367 H362 0.949 . S
C367 C373 1.368 . S
C368 C352 1.349 . S
C368 H360 0.950 . S
C368 C366 1.327 . S
C369 C357 1.349 . S
C369 H363 0.950 . S
C369 C370 1.327 . S
C370 H364 0.950 . S
C370 C369 1.327 . S
C370 C374 1.429 . S
C371 C354 1.574 . S
C371 H365 0.949 . S
C371 C375 1.368 . S
C372 C353 1.429 . S
C372 C366 1.429 . S
C372 C373 1.523 . S
C373 C354 1.368 . S
C373 C367 1.368 . S
C373 C372 1.523 . S
C374 C358 1.429 . S
C374 C370 1.429 . S
C374 C375 1.523 . S
C375 C359 1.368 . S
C375 C371 1.368 . S
C375 C374 1.523 . S
H376 C351 0.950 . S
H377 C353 0.950 . S
H378 C354 0.949 . S
H379 C356 0.950 . S
H380 C358 0.950 . S
C381 C382 1.349 . S
C381 C383 1.327 . S
C381 H406 0.950 . S
C382 C381 1.349 . S
C382 C398 1.349 1_545 S
C383 C381 1.327 . S
C383 C402 1.429 . S
C383 H407 0.950 . S
C384 C401 1.574 . S
C384 C403 1.368 . S
C384 H408 0.949 1_545 S
H385 C389 0.949 . S
C386 C387 1.349 . S
C386 C388 1.327 . S
C386 H409 0.950 . S
C387 C386 1.349 . S
C387 C399 1.349 . S
C388 C386 1.327 . S
C388 C404 1.429 . S
C388 H410 0.950 . S
C389 H385 0.949 . S
C389 C397 1.574 . S
C389 C405 1.368 . S
H390 C398 0.950 . S
H391 C396 0.941 1_565 S
H392 C397 0.949 . S
H393 C399 0.950 . S
H394 C400 0.950 . S
H395 C401 0.949 1_565 S
C396 H391 0.941 1_545 S
C396 C398 1.330 1_545 S
C396 C402 1.434 . S
C397 C389 1.574 . S
C397 H392 0.949 . S
C397 C403 1.368 . S
C398 C382 1.349 1_565 S
C398 H390 0.950 . S
C398 C396 1.330 1_565 S
C399 C387 1.349 . S
C399 H393 0.950 . S
C399 C400 1.327 . S
C400 H394 0.950 . S
C400 C399 1.327 . S
C400 C404 1.429 . S
C401 C384 1.574 . S
C401 H395 0.949 1_545 S
C401 C405 1.368 . S
C402 C383 1.429 . S
C402 C396 1.434 . S
C402 C403 1.523 . S
C403 C384 1.368 . S
C403 C397 1.368 . S
C403 C402 1.523 . S
C404 C388 1.429 . S
C404 C400 1.429 . S
C404 C405 1.523 . S
C405 C389 1.368 . S
C405 C401 1.368 . S
C405 C404 1.523 . S
H406 C381 0.950 . S
H407 C383 0.950 . S
H408 C384 0.949 1_565 S
H409 C386 0.950 . S
H410 C388 0.950 . S
C411 C412 1.349 . S
C411 C413 1.327 . S
C411 H436 0.950 . S
C412 C411 1.349 . S
C412 C428 1.349 . S
C413 C411 1.327 . S
C413 C432 1.429 . S
C413 H437 0.950 . S
C414 C431 1.574 . S
C414 C433 1.368 . S
C414 H438 0.949 . S
H415 C419 0.949 . S
C416 C417 1.349 . S
C416 C418 1.327 . S
C416 H439 0.950 . S
C417 C416 1.349 . S
C417 C429 1.349 . S
C418 C416 1.327 . S
C418 C434 1.429 . S
C418 H440 0.950 . S
C419 H415 0.949 . S
C419 C427 1.574 . S
C419 C435 1.368 . S
H420 C428 0.950 . S
H421 C426 0.950 . S
H422 C427 0.949 . S
H423 C429 0.950 . S
H424 C430 0.950 . S
H425 C431 0.949 . S
C426 H421 0.950 . S
C426 C428 1.327 . S
C426 C432 1.429 . S
C427 C419 1.574 . S
C427 H422 0.949 . S
C427 C433 1.368 . S
C428 C412 1.349 . S
C428 H420 0.950 . S
C428 C426 1.327 . S
C429 C417 1.349 . S
C429 H423 0.950 . S
C429 C430 1.327 . S
C430 H424 0.950 . S
C430 C429 1.327 . S
C430 C434 1.429 . S
C431 C414 1.574 . S
C431 H425 0.949 . S
C431 C435 1.368 . S
C432 C413 1.429 . S
C432 C426 1.429 . S
C432 C433 1.523 . S
C433 C414 1.368 . S
C433 C427 1.368 . S
C433 C432 1.523 . S
C434 C418 1.429 . S
C434 C430 1.429 . S
C434 C435 1.523 . S
C435 C419 1.368 . S
C435 C431 1.368 . S
C435 C434 1.523 . S
H436 C411 0.950 . S
H437 C413 0.950 . S
H438 C414 0.949 . S
H439 C416 0.950 . S
H440 C418 0.950 . S
C441 C442 1.349 . S
C441 C443 1.327 . S
C441 H466 0.950 . S
C442 C441 1.349 . S
C442 C458 1.349 . S
C443 C441 1.327 . S
C443 C462 1.429 . S
C443 H467 0.950 . S
C444 C461 1.574 . S
C444 C463 1.368 . S
C444 H468 0.949 . S
H445 C449 0.949 . S
C446 C447 1.349 . S
C446 C448 1.327 . S
C446 H469 0.950 . S
C447 C446 1.349 . S
C447 C459 1.349 . S
C448 C446 1.327 . S
C448 C464 1.429 . S
C448 H470 0.950 . S
C449 H445 0.949 . S
C449 C457 1.574 . S
C449 C465 1.368 . S
H450 C458 0.937 1_455 S
H451 C456 0.950 . S
H452 C457 0.949 . S
H453 C459 0.950 . S
H454 C460 0.950 . S
H455 C461 0.949 . S
C456 H451 0.950 . S
C456 C458 1.327 . S
C456 C462 1.429 . S
C457 C449 1.574 . S
C457 H452 0.949 . S
C457 C463 1.368 . S
C458 C442 1.349 . S
C458 H450 0.937 1_655 S
C458 C456 1.327 . S
C459 C447 1.349 . S
C459 H453 0.950 . S
C459 C460 1.327 . S
C460 H454 0.950 . S
C460 C459 1.327 . S
C460 C464 1.429 . S
C461 C444 1.574 . S
C461 H455 0.949 . S
C461 C465 1.368 . S
C462 C443 1.429 . S
C462 C456 1.429 . S
C462 C463 1.523 . S
C463 C444 1.368 . S
C463 C457 1.368 . S
C463 C462 1.523 . S
C464 C448 1.429 . S
C464 C460 1.429 . S
C464 C465 1.523 . S
C465 C449 1.368 . S
C465 C461 1.368 . S
C465 C464 1.523 . S
H466 C441 0.950 . S
H467 C443 0.950 . S
H468 C444 0.949 . S
H469 C446 0.950 . S
H470 C448 0.950 . S
C471 C472 1.349 . S
C471 C473 1.327 . S
C471 H496 0.950 . S
C472 C471 1.349 . S
C472 C488 1.349 . S
C473 C471 1.327 . S
C473 C492 1.429 . S
C473 H497 0.950 . S
C474 C491 1.574 . S
C474 C493 1.368 . S
C474 H498 0.949 . S
H475 C479 0.949 . S
C476 C477 1.349 . S
C476 C478 1.327 . S
C476 H499 0.950 . S
C477 C476 1.349 . S
C477 C489 1.349 . S
C478 C476 1.327 . S
C478 C494 1.429 . S
C478 H500 0.950 . S
C479 H475 0.949 . S
C479 C487 1.574 1_556 S
C479 C495 1.368 . S
H480 C488 0.950 1_455 S
H481 C486 0.950 1_556 S
H482 C487 0.949 . S
H483 C489 0.950 . S
H484 C490 0.950 . S
H485 C491 0.949 . S
C486 H481 0.950 1_554 S
C486 C488 1.327 . S
C486 C492 1.429 . S
C487 C479 1.574 1_554 S
C487 H482 0.949 . S
C487 C493 1.368 1_554 S
C488 C472 1.349 . S
C488 H480 0.950 1_655 S
C488 C486 1.327 . S
C489 C477 1.349 . S
C489 H483 0.950 . S
C489 C490 1.327 . S
C490 H484 0.950 . S
C490 C489 1.327 . S
C490 C494 1.429 . S
C491 C474 1.574 . S
C491 H485 0.949 . S
C491 C495 1.368 . S
C492 C473 1.429 . S
C492 C486 1.429 . S
C492 C493 1.523 1_554 S
C493 C474 1.368 . S
C493 C487 1.368 1_556 S
C493 C492 1.523 1_556 S
C494 C478 1.429 . S
C494 C490 1.429 . S
C494 C495 1.523 . S
C495 C479 1.368 . S
C495 C491 1.368 . S
C495 C494 1.523 . S
H496 C471 0.950 . S
H497 C473 0.950 . S
H498 C474 0.949 . S
H499 C476 0.950 . S
H500 C478 0.950 . S
C501 C502 1.349 1_655 S
C501 C503 1.327 . S
C501 H526 0.950 . S
C502 C501 1.349 1_455 S
C502 C518 1.349 . S
C503 C501 1.327 . S
C503 C522 1.429 1_655 S
C503 H527 0.950 . S
C504 C521 1.574 . S
C504 C523 1.368 . S
C504 H528 0.949 . S
H505 C509 0.949 . S
C506 C507 1.349 . S
C506 C508 1.327 . S
C506 H529 0.950 . S
C507 C506 1.349 . S
C507 C519 1.349 1_455 S
C508 C506 1.327 . S
C508 C524 1.429 . S
C508 H530 0.950 . S
C509 H505 0.949 . S
C509 C517 1.574 . S
C509 C525 1.368 1_655 S
H510 C518 0.950 . S
H511 C516 0.950 . S
H512 C517 0.949 . S
H513 C519 0.950 . S
H514 C520 0.950 . S
H515 C521 0.949 . S
C516 H511 0.950 . S
C516 C518 1.327 . S
C516 C522 1.429 . S
C517 C509 1.574 . S
C517 H512 0.949 . S
C517 C523 1.368 1_655 S
C518 C502 1.349 . S
C518 H510 0.950 . S
C518 C516 1.327 . S
C519 C507 1.349 1_655 S
C519 H513 0.950 . S
C519 C520 1.327 . S
C520 H514 0.950 . S
C520 C519 1.327 . S
C520 C524 1.429 1_655 S
C521 C504 1.574 . S
C521 H515 0.949 . S
C521 C525 1.368 . S
C522 C503 1.429 1_455 S
C522 C516 1.429 . S
C522 C523 1.523 . S
C523 C504 1.368 . S
C523 C517 1.368 1_455 S
C523 C522 1.523 . S
C524 C508 1.429 . S
C524 C520 1.429 1_455 S
C524 C525 1.523 . S
C525 C509 1.368 1_455 S
C525 C521 1.368 . S
C525 C524 1.523 . S
H526 C501 0.950 . S
H527 C503 0.950 . S
H528 C504 0.949 . S
H529 C506 0.950 . S
H530 C508 0.950 . S
C531 C532 1.349 . S
C531 C533 1.327 . S
C531 H556 0.950 . S
C532 C531 1.349 . S
C532 C548 1.349 . S
C533 C531 1.327 . S
C533 C552 1.429 . S
C533 H557 0.950 . S
C534 C551 1.574 . S
C534 C553 1.368 . S
C534 H558 0.949 . S
H535 C539 0.949 . S
C536 C537 1.349 . S
C536 C538 1.327 . S
C536 H559 0.950 . S
C537 C536 1.349 . S
C537 C549 1.349 . S
C538 C536 1.327 . S
C538 C554 1.429 . S
C538 H560 0.950 . S
C539 H535 0.949 . S
C539 C547 1.574 . S
C539 C555 1.368 . S
H540 C548 0.950 . S
H541 C546 0.950 . S
H542 C547 0.949 . S
H543 C549 0.950 . S
H544 C550 0.950 . S
H545 C551 0.949 . S
C546 H541 0.950 . S
C546 C548 1.327 . S
C546 C552 1.429 . S
C547 C539 1.574 . S
C547 H542 0.949 . S
C547 C553 1.368 . S
C548 C532 1.349 . S
C548 H540 0.950 . S
C548 C546 1.327 . S
C549 C537 1.349 . S
C549 H543 0.950 . S
C549 C550 1.327 . S
C550 H544 0.950 . S
C550 C549 1.327 . S
C550 C554 1.429 . S
C551 C534 1.574 . S
C551 H545 0.949 . S
C551 C555 1.368 . S
C552 C533 1.429 . S
C552 C546 1.429 . S
C552 C553 1.523 . S
C553 C534 1.368 . S
C553 C547 1.368 . S
C553 C552 1.523 . S
C554 C538 1.429 . S
C554 C550 1.429 . S
C554 C555 1.523 . S
C555 C539 1.368 . S
C555 C551 1.368 . S
C555 C554 1.523 . S
H556 C531 0.950 . S
H557 C533 0.950 . S
H558 C534 0.949 . S
H559 C536 0.950 . S
H560 C538 0.950 . S
C561 C562 1.349 . S
C561 C563 1.327 . S
C561 H586 0.950 . S
C562 C561 1.349 . S
C562 C578 1.349 . S
C563 C561 1.327 . S
C563 C582 1.429 . S
C563 H587 0.950 . S
C564 C581 1.574 . S
C564 C583 1.368 . S
C564 H588 0.949 . S
H565 C569 0.949 . S
C566 C567 1.349 . S
C566 C568 1.327 . S
C566 H589 0.950 . S
C567 C566 1.349 . S
C567 C579 1.349 . S
C568 C566 1.327 . S
C568 C584 1.429 . S
C568 H590 0.950 . S
C569 H565 0.949 . S
C569 C577 1.574 . S
C569 C585 1.368 . S
H570 C578 0.950 . S
H571 C576 0.950 . S
H572 C577 0.949 . S
H573 C579 0.950 . S
H574 C580 0.950 . S
H575 C581 0.949 . S
C576 H571 0.950 . S
C576 C578 1.327 . S
C576 C582 1.429 . S
C577 C569 1.574 . S
C577 H572 0.949 . S
C577 C583 1.368 1_556 S
C578 C562 1.349 . S
C578 H570 0.950 . S
C578 C576 1.327 . S
C579 C567 1.349 . S
C579 H573 0.950 . S
C579 C580 1.327 . S
C580 H574 0.950 . S
C580 C579 1.327 . S
C580 C584 1.429 . S
C581 C564 1.574 . S
C581 H575 0.949 . S
C581 C585 1.368 1_554 S
C582 C563 1.429 . S
C582 C576 1.429 . S
C582 C583 1.523 . S
C583 C564 1.368 . S
C583 C577 1.368 1_554 S
C583 C582 1.523 . S
C584 C568 1.429 . S
C584 C580 1.429 . S
C584 C585 1.523 . S
C585 C569 1.368 . S
C585 C581 1.368 1_556 S
C585 C584 1.523 . S
H586 C561 0.950 . S
H587 C563 0.950 . S
H588 C564 0.949 . S
H589 C566 0.950 . S
H590 C568 0.950 . S
C591 C592 1.349 . S
C591 C593 1.327 . S
C591 H616 0.950 . S
C592 C591 1.349 . S
C592 C608 1.349 1_455 S
C593 C591 1.327 . S
C593 C612 1.429 . S
C593 H617 0.950 . S
C594 C611 1.572 . S
C594 C613 1.371 . S
C594 H618 0.948 1_455 S
H595 C599 0.949 . S
C596 C597 1.349 . S
C596 C598 1.327 . S
C596 H619 0.950 1_455 S
C597 C596 1.349 . S
C597 C609 1.349 . S
C598 C596 1.327 . S
C598 C614 1.429 . S
C598 H620 0.950 1_455 S
C599 H595 0.949 . S
C599 C607 1.574 . S
C599 C615 1.368 . S
H600 C608 0.950 . S
H601 C606 0.950 . S
H602 C607 0.949 . S
H603 C609 0.950 . S
H604 C610 0.950 . S
H605 C611 0.949 1_655 S
C606 H601 0.950 . S
C606 C608 1.327 . S
C606 C612 1.429 1_655 S
C607 C599 1.574 . S
C607 H602 0.949 . S
C607 C613 1.368 . S
C608 C592 1.349 1_655 S
C608 H600 0.950 . S
C608 C606 1.327 . S
C609 C597 1.349 . S
C609 H603 0.950 . S
C609 C610 1.327 . S
C610 H604 0.950 . S
C610 C609 1.327 . S
C610 C614 1.429 . S
C611 C594 1.572 . S
C611 H605 0.949 1_455 S
C611 C615 1.368 . S
C612 C593 1.429 . S
C612 C606 1.429 1_455 S
C612 C613 1.523 . S
C613 C594 1.371 . S
C613 C607 1.368 . S
C613 C612 1.523 . S
C614 C598 1.429 . S
C614 C610 1.429 . S
C614 C615 1.523 . S
C615 C599 1.368 . S
C615 C611 1.368 . S
C615 C614 1.523 . S
H616 C591 0.950 . S
H617 C593 0.950 . S
H618 C594 0.948 1_655 S
H619 C596 0.950 1_655 S
H620 C598 0.950 1_655 S
C267 C78 1.418 . S
C262 C10 1.481 . S
C292 C17 1.385 . S
C297 C152 1.328 . S
C322 C36 2.265 1_665 S
C327 C256 2.260 . S
C352 C5 0.774 . S
C357 C90 0.773 . S
C387 C164 0.736 . S
C382 C16 0.735 . S
C412 C31 1.522 . S
C417 C250 1.421 . S
C447 C182 2.239 . S
C442 C30 2.246 1_655 S
C472 C3 1.466 1_655 S
C477 C226 1.406 . S
C507 C102 1.467 . S
C502 C18 1.571 . S
C537 C176 1.402 . S
C532 C29 1.498 . S
C567 C238 0.757 . S
C562 C4 0.757 . S
C592 C23 2.320 . S
C597 C108 2.315 . S
