# Generated by pormake.
# Topology rtl, (3,6)-cn, num edge types: 1
# Building blocks:
#     Node 0, Type 0, BuildingBlock: ESEHIV_clean_linker_0, # of connection points: 3
#     Node 1, Type 0, BuildingBlock: ESEHIV_clean_linker_0, # of connection points: 3
#     Node 2, Type 0, BuildingBlock: ESEHIV_clean_linker_0, # of connection points: 3
#     Node 3, Type 0, BuildingBlock: ESEHIV_clean_linker_0, # of connection points: 3
#     Node 4, Type 1, BuildingBlock: CIFDUS_clean_sbu_1, # of connection points: 6
#     Node 5, Type 1, BuildingBlock: CIFDUS_clean_sbu_1, # of connection points: 6
#     Edge 6, Type (0, 1), BuildingBlock: KIFKEQ_clean_linker_1, # of connection points: 2
#     Edge 7, Type (0, 1), BuildingBlock: KIFKEQ_clean_linker_1, # of connection points: 2
#     Edge 8, Type (0, 1), BuildingBlock: KIFKEQ_clean_linker_1, # of connection points: 2
#     Edge 9, Type (0, 1), BuildingBlock: KIFKEQ_clean_linker_1, # of connection points: 2
#     Edge 10, Type (0, 1), BuildingBlock: KIFKEQ_clean_linker_1, # of connection points: 2
#     Edge 11, Type (0, 1), BuildingBlock: KIFKEQ_clean_linker_1, # of connection points: 2
#     Edge 12, Type (0, 1), BuildingBlock: KIFKEQ_clean_linker_1, # of connection points: 2
#     Edge 13, Type (0, 1), BuildingBlock: KIFKEQ_clean_linker_1, # of connection points: 2
#     Edge 14, Type (0, 1), BuildingBlock: KIFKEQ_clean_linker_1, # of connection points: 2
#     Edge 15, Type (0, 1), BuildingBlock: KIFKEQ_clean_linker_1, # of connection points: 2
#     Edge 16, Type (0, 1), BuildingBlock: KIFKEQ_clean_linker_1, # of connection points: 2
#     Edge 17, Type (0, 1), BuildingBlock: KIFKEQ_clean_linker_1, # of connection points: 2
# Relax obj value: 0.028
# Max RMSD: 0.063
# Mean RMSD: 0.047
data_MOF--net-rtl--node1-CIFDUS_clean_sbu_1--node2-ESEHIV_clean_linker_0--edge1-KIFKEQ_clean_linker_1
_symmetry_space_group_name_H-M    P1
_symmetry_Int_Tables_number       1
_symmetry_cell_setting            triclinic
loop_
_symmetry_equiv_pos_as_xyz
'x, y, z'
_cell_length_a     29.326952
_cell_length_b     33.239541
_cell_length_c     23.179354
_cell_angle_alpha  90.13403
_cell_angle_beta   97.754755
_cell_angle_gamma 89.94869
loop_
_atom_site_label
_atom_site_type_symbol
_atom_site_fract_x
_atom_site_fract_y
_atom_site_fract_z
_atom_type_partial_charge
H0 H 0.21503 0.94333 0.07957 0.0
H1 H 0.30048 0.86372 0.19325 0.0
H2 H 0.29824 0.85411 0.00803 0.0
C3 C 0.24079 0.91979 0.08527 0.0
C4 C 0.25485 0.90088 0.03607 0.0
C5 C 0.25762 0.9071 0.14217 0.0
C6 C 0.28934 0.8751 0.14984 0.0
C7 C 0.30304 0.85511 0.10145 0.0
C8 C 0.28675 0.86905 0.04508 0.0
H9 H 0.69646 0.60593 0.57078 0.0
H10 H 0.77113 0.70026 0.49908 0.0
H11 H 0.77628 0.68935 0.68536 0.0
C12 C 0.7197 0.6314 0.57716 0.0
C13 C 0.73505 0.64506 0.63392 0.0
C14 C 0.73247 0.65123 0.52845 0.0
C15 C 0.76139 0.68494 0.53679 0.0
C16 C 0.77809 0.69871 0.59334 0.0
C17 C 0.76521 0.67813 0.64178 0.0
H18 H 0.82892 0.10897 0.0153 0.0
H19 H 0.74118 0.19471 0.08532 0.0
H20 H 0.74164 0.18584 0.89962 0.0
C21 C 0.80296 0.13234 0.00874 0.0
C22 C 0.78729 0.14523 0.95178 0.0
C23 C 0.78657 0.14974 0.05735 0.0
C24 C 0.75355 0.18068 0.04815 0.0
C25 C 0.73688 0.19396 0.99128 0.0
C26 C 0.75383 0.17573 0.9434 0.0
H27 H 0.30592 0.44402 0.50378 0.0
H28 H 0.22322 0.35838 0.58254 0.0
H29 H 0.21565 0.36441 0.39596 0.0
C30 C 0.27957 0.42095 0.49978 0.0
C31 C 0.26168 0.40674 0.44406 0.0
C32 C 0.26628 0.40343 0.55032 0.0
C33 C 0.23336 0.3723 0.54401 0.0
C34 C 0.21465 0.35802 0.48849 0.0
C35 C 0.22917 0.3755 0.4389 0.0
O36 O 0.97687 0.04378 0.4719 0.0
Mn37 Mn 0.01543 0.01559 0.54514 0.0
O38 O 0.94809 0.99369 0.41259 0.0
Mn39 Mn 0.97956 0.9531 0.45459 0.0
O40 O 0.05284 0.98438 0.61752 0.0
O41 O 0.04927 0.07166 0.55896 0.0
Mn42 Mn 0.05897 0.06358 0.63604 0.0
O43 O 0.96419 0.03195 0.59593 0.0
O44 O 0.10487 0.02731 0.65587 0.0
O45 O 0.06712 0.9986 0.49327 0.0
O46 O 0.03889 0.94536 0.44047 0.0
O47 O 0.07905 0.11303 0.63292 0.0
O48 O 0.0074 0.05804 0.67312 0.0
C49 C 0.95797 0.92843 0.52923 0.0
C50 C 0.95266 0.03087 0.42484 0.0
C51 C 0.0906 0.99182 0.6508 0.0
C52 C 0.06979 0.1058 0.57752 0.0
C53 C 0.9689 0.04577 0.64803 0.0
C54 C 0.07152 0.96948 0.4574 0.0
O55 O 0.98059 0.96233 0.52977 0.0
O56 O 0.94869 0.91074 0.47916 0.0
O57 O 0.55056 0.54227 0.1139 0.0
Mn58 Mn 0.50579 0.51805 0.04179 0.0
O59 O 0.5933 0.49131 0.15153 0.0
Mn60 Mn 0.54817 0.45634 0.12233 0.0
O61 O 0.45964 0.49521 0.96995 0.0
O62 O 0.47711 0.57524 0.03556 0.0
Mn63 Mn 0.47178 0.58396 0.95922 0.0
O64 O 0.55475 0.53211 0.98593 0.0
O65 O 0.42989 0.54902 0.92055 0.0
O66 O 0.45782 0.50284 0.09941 0.0
O67 O 0.49642 0.45747 0.15837 0.0
O68 O 0.4499 0.62965 0.98603 0.0
O69 O 0.52827 0.58555 0.9333 0.0
C70 C 0.55361 0.42438 0.04855 0.0
C71 C 0.5838 0.52834 0.15032 0.0
C72 C 0.43163 0.51131 0.92859 0.0
C73 C 0.45898 0.61145 0.03566 0.0
C74 C 0.55909 0.55942 0.94795 0.0
C75 C 0.46123 0.4793 0.14403 0.0
O76 O 0.53508 0.46067 0.04588 0.0
O77 O 0.56655 0.40873 0.09934 0.0
H78 H 0.2169 0.29287 0.41638 0.0
H79 H 0.14176 0.34228 0.54814 0.0
H80 H 0.17383 0.23004 0.41792 0.0
H81 H 0.09897 0.27903 0.54951 0.0
H82 H 0.15491 0.13484 0.59102 0.0
H83 H 0.18069 0.19786 0.55368 0.0
H84 H 0.05043 0.21115 0.44454 0.0
H85 H 0.02382 0.14698 0.48289 0.0
C86 C 0.19015 0.29091 0.44422 0.0
C87 C 0.18317 0.32253 0.48266 0.0
C88 C 0.16536 0.25497 0.44474 0.0
C89 C 0.13265 0.25009 0.48302 0.0
C90 C 0.12339 0.28247 0.51871 0.0
C91 C 0.1484 0.31837 0.51855 0.0
C92 C 0.13225 0.15024 0.55729 0.0
C93 C 0.08755 0.13577 0.5393 0.0
C94 C 0.14698 0.18645 0.53634 0.0
C95 C 0.11749 0.20919 0.49663 0.0
C96 C 0.07365 0.19389 0.47534 0.0
C97 C 0.05871 0.15709 0.49653 0.0
H98 H 0.2819 0.78493 0.04427 0.0
H99 H 0.38248 0.83765 0.17572 0.0
H100 H 0.32313 0.72144 0.05347 0.0
H101 H 0.42429 0.77323 0.18543 0.0
H102 H 0.50781 0.67162 0.09233 0.0
H103 H 0.4699 0.73148 0.1239 0.0
H104 H 0.34339 0.66454 0.11887 0.0
H105 H 0.38149 0.60497 0.08626 0.0
C106 C 0.31295 0.7829 0.07527 0.0
C107 C 0.32914 0.81649 0.1088 0.0
C108 C 0.33627 0.7462 0.0813 0.0
C109 C 0.37675 0.74184 0.12091 0.0
C110 C 0.39308 0.77543 0.15478 0.0
C111 C 0.3692 0.81228 0.14924 0.0
C112 C 0.47278 0.66894 0.10193 0.0
C113 C 0.4477 0.63351 0.08699 0.0
C114 C 0.45075 0.70355 0.11922 0.0
C115 C 0.40315 0.70324 0.12205 0.0
C116 C 0.37986 0.66609 0.1157 0.0
C117 C 0.40197 0.63154 0.09842 0.0
H118 H 0.76355 0.7691 0.53381 0.0
H119 H 0.85625 0.71317 0.67091 0.0
H120 H 0.81008 0.82971 0.54299 0.0
H121 H 0.90291 0.77474 0.68103 0.0
H122 H 0.9988 0.86625 0.59003 0.0
H123 H 0.95407 0.81064 0.62143 0.0
H124 H 0.83386 0.88692 0.60632 0.0
H125 H 0.87882 0.9422 0.57382 0.0
C126 C 0.79385 0.76982 0.56618 0.0
C127 C 0.80631 0.73613 0.60128 0.0
C128 C 0.82021 0.80492 0.57218 0.0
C129 C 0.85996 0.8075 0.61344 0.0
C130 C 0.87238 0.7739 0.64905 0.0
C131 C 0.84562 0.73869 0.64335 0.0
C132 C 0.96362 0.87191 0.59729 0.0
C133 C 0.94233 0.9086 0.57965 0.0
C134 C 0.93769 0.83977 0.61453 0.0
C135 C 0.88996 0.8439 0.6145 0.0
C136 C 0.87034 0.88245 0.60535 0.0
C137 C 0.89634 0.91452 0.58808 0.0
H138 H 0.73665 0.25797 0.91644 0.0
H139 H 0.66052 0.20683 0.04535 0.0
H140 H 0.6837 0.31507 0.90512 0.0
H141 H 0.6085 0.26431 0.0354 0.0
H142 H 0.5077 0.35907 1.00285 0.0
H143 H 0.54854 0.29999 0.97396 0.0
H144 H 0.66845 0.37335 0.96272 0.0
H145 H 0.62694 0.43228 0.99049 0.0
C146 C 0.70828 0.25863 0.94188 0.0
C147 C 0.70304 0.2278 0.98205 0.0
C148 C 0.67807 0.29156 0.93563 0.0
C149 C 0.64158 0.29444 0.96909 0.0
C150 C 0.63564 0.26297 0.00807 0.0
C151 C 0.66594 0.23019 0.0145 0.0
C152 C 0.54165 0.36305 0.99013 0.0
C153 C 0.56397 0.40041 0.99854 0.0
C154 C 0.5656 0.32892 0.97516 0.0
C155 C 0.6124 0.33152 0.96797 0.0
C156 C 0.63254 0.37 0.96807 0.0
C157 C 0.60842 0.40413 0.98301 0.0
H158 H 0.30171 0.93402 0.24789 0.0
H159 H 0.16676 0.91562 0.1515 0.0
H160 H 0.2659 0.95448 0.33382 0.0
H161 H 0.13159 0.93553 0.23684 0.0
H162 H 0.10602 0.8993 0.42383 0.0
H163 H 0.15749 0.88988 0.35098 0.0
H164 H 0.18269 0.01755 0.34944 0.0
H165 H 0.12973 0.02748 0.42256 0.0
C166 C 0.26454 0.93486 0.24485 0.0
C167 C 0.23703 0.92334 0.19286 0.0
C168 C 0.24418 0.94679 0.29375 0.0
C169 C 0.1961 0.94681 0.29153 0.0
C170 C 0.16875 0.9362 0.2393 0.0
C171 C 0.18892 0.92487 0.19048 0.0
C172 C 0.12355 0.92539 0.40953 0.0
C173 C 0.11347 0.96422 0.42873 0.0
C174 C 0.15296 0.9199 0.3677 0.0
C175 C 0.17364 0.95297 0.34446 0.0
C176 C 0.16711 0.99159 0.36705 0.0
C177 C 0.13715 0.99722 0.4091 0.0
H178 H 0.64489 0.63391 0.64248 0.0
H179 H 0.78017 0.61723 0.73847 0.0
H180 H 0.61032 0.60534 0.72266 0.0
H181 H 0.74524 0.58783 0.81964 0.0
H182 H 0.64388 0.59487 0.96887 0.0
H183 H 0.69332 0.61056 0.89429 0.0
H184 H 0.60499 0.53919 0.76959 0.0
H185 H 0.5561 0.52386 0.84385 0.0
C186 C 0.66728 0.62352 0.68056 0.0
C187 C 0.71523 0.62735 0.68391 0.0
C188 C 0.64749 0.60699 0.7265 0.0
C189 C 0.67505 0.59359 0.77718 0.0
C190 C 0.72313 0.59784 0.78112 0.0
C191 C 0.74308 0.61464 0.73483 0.0
C192 C 0.63645 0.58122 0.92616 0.0
C193 C 0.59672 0.55776 0.91205 0.0
C194 C 0.6645 0.59034 0.88338 0.0
C195 C 0.65255 0.57673 0.82575 0.0
C196 C 0.61477 0.55061 0.81332 0.0
C197 C 0.58712 0.54135 0.85597 0.0
H198 H 0.80389 0.07261 0.09464 0.0
H199 H 0.81279 0.19549 0.156 0.0
H200 H 0.84473 0.05009 0.18724 0.0
H201 H 0.85337 0.17253 0.24989 0.0
H202 H 0.88987 0.09321 0.42769 0.0
H203 H 0.84625 0.12591 0.34163 0.0
H204 H 0.92758 0.06106 0.23022 0.0
H205 H 0.97029 0.02893 0.31487 0.0
C206 C 0.81437 0.09487 0.12798 0.0
C207 C 0.80571 0.13599 0.11724 0.0
C208 C 0.83777 0.08193 0.1812 0.0
C209 C 0.85307 0.10961 0.2256 0.0
C210 C 0.84209 0.1505 0.21651 0.0
C211 C 0.81874 0.16359 0.16276 0.0
C212 C 0.89914 0.0871 0.38485 0.0
C213 C 0.93342 0.0586 0.37781 0.0
C214 C 0.87404 0.10551 0.33564 0.0
C215 C 0.88281 0.09533 0.27903 0.0
C216 C 0.91921 0.06888 0.27298 0.0
C217 C 0.94401 0.05077 0.32155 0.0
H218 H 0.29806 0.35566 0.64403 0.0
H219 H 0.28582 0.47997 0.59062 0.0
H220 H 0.33513 0.3766 0.74045 0.0
H221 H 0.3234 0.50077 0.68634 0.0
H222 H 0.34676 0.53075 0.87557 0.0
H223 H 0.30556 0.50201 0.7871 0.0
H224 H 0.40861 0.409 0.78968 0.0
H225 H 0.45025 0.43809 0.87946 0.0
C226 C 0.30298 0.38748 0.65292 0.0
C227 C 0.28858 0.41615 0.6095 0.0
C228 C 0.32468 0.39941 0.70806 0.0
C229 C 0.33205 0.44037 0.72146 0.0
C230 C 0.31774 0.46897 0.67794 0.0
C231 C 0.29649 0.45705 0.62277 0.0
C232 C 0.36024 0.50362 0.85811 0.0
C233 C 0.40198 0.48685 0.88453 0.0
C234 C 0.33679 0.48737 0.80693 0.0
C235 C 0.35427 0.45377 0.78033 0.0
C236 C 0.39424 0.43501 0.80894 0.0
C237 C 0.41796 0.45144 0.86062 0.0
H238 H 0.68133 0.69342 0.44111 0.0
H239 H 0.74203 0.57711 0.48235 0.0
H240 H 0.64466 0.6675 0.34684 0.0
H241 H 0.70791 0.55166 0.38779 0.0
H242 H 0.59831 0.50056 0.25931 0.0
H243 H 0.63409 0.533 0.34662 0.0
H244 H 0.65121 0.64156 0.24952 0.0
H245 H 0.61271 0.60859 0.16035 0.0
C246 C 0.68749 0.66252 0.42936 0.0
C247 C 0.71414 0.6371 0.46901 0.0
C248 C 0.66667 0.6477 0.37533 0.0
C249 C 0.67259 0.60726 0.35974 0.0
C250 C 0.70128 0.58262 0.3987 0.0
C251 C 0.72123 0.59719 0.45282 0.0
C252 C 0.60985 0.53135 0.25606 0.0
C253 C 0.60378 0.55163 0.20239 0.0
C254 C 0.63076 0.54997 0.30645 0.0
C255 C 0.64721 0.58954 0.3052 0.0
C256 C 0.63937 0.61085 0.25203 0.0
C257 C 0.61749 0.59207 0.20093 0.0
H258 H 0.87803 0.13196 0.94598 0.0
H259 H 0.74406 0.12014 0.84433 0.0
H260 H 0.91333 0.10138 0.86784 0.0
H261 H 0.77991 0.08925 0.76493 0.0
H262 H 0.88621 0.08495 0.62105 0.0
H263 H 0.83554 0.10612 0.69201 0.0
H264 H 0.91559 0.03423 0.82387 0.0
H265 H 0.96618 0.01418 0.75385 0.0
C266 C 0.85599 0.12241 0.90707 0.0
C267 C 0.80813 0.12795 0.90189 0.0
C268 C 0.87625 0.10477 0.86218 0.0
C269 C 0.84936 0.09207 0.81052 0.0
C270 C 0.80152 0.09859 0.80427 0.0
C271 C 0.78107 0.11633 0.84962 0.0
C272 C 0.89167 0.0726 0.66465 0.0
C273 C 0.93006 0.04811 0.68223 0.0
C274 C 0.8629 0.08485 0.70536 0.0
C275 C 0.87233 0.0727 0.76398 0.0
C276 C 0.90807 0.04497 0.77951 0.0
C277 C 0.93676 0.03309 0.73927 0.0
H278 H 0.30061 0.36124 0.36682 0.0
H279 H 0.26736 0.48424 0.4041 0.0
H280 H 0.34096 0.38404 0.28725 0.0
H281 H 0.30741 0.50709 0.3231 0.0
H282 H 0.36738 0.4986 0.124 0.0
H283 H 0.30988 0.48457 0.1906 0.0
H284 H 0.41775 0.43966 0.3191 0.0
H285 H 0.47417 0.45401 0.2554 0.0
C286 C 0.30082 0.39307 0.35686 0.0
C287 C 0.28102 0.421 0.39167 0.0
C288 C 0.32368 0.40607 0.3112 0.0
C289 C 0.3266 0.44723 0.29862 0.0
C290 C 0.30488 0.47517 0.33141 0.0
C291 C 0.28252 0.46216 0.37797 0.0
C292 C 0.37866 0.48634 0.16679 0.0
C293 C 0.4253 0.47666 0.18359 0.0
C294 C 0.34589 0.47828 0.20471 0.0
C295 C 0.35961 0.46048 0.25945 0.0
C296 C 0.40626 0.45285 0.27689 0.0
C297 C 0.43853 0.46104 0.23991 0.0
H298 H 0.22566 0.97552 0.99339 0.0
H299 H 0.23364 0.85101 0.94078 0.0
H300 H 0.18342 0.99144 0.89808 0.0
H301 H 0.19379 0.86784 0.84479 0.0
H302 H 0.16373 0.9397 0.6613 0.0
H303 H 0.20564 0.91553 0.75402 0.0
H304 H 0.10162 0.96781 0.84612 0.0
H305 H 0.05925 0.99036 0.75381 0.0
C306 C 0.21867 0.9515 0.96182 0.0
C307 C 0.23304 0.9118 0.97571 0.0
C308 C 0.19461 0.96075 0.90702 0.0
C309 C 0.185 0.93076 0.8642 0.0
C310 C 0.20088 0.89155 0.87687 0.0
C311 C 0.22414 0.88208 0.93202 0.0
C312 C 0.14884 0.94414 0.70115 0.0
C313 C 0.10751 0.96564 0.70032 0.0
C314 C 0.17308 0.93092 0.75421 0.0
C315 C 0.15713 0.94028 0.8073 0.0
C316 C 0.11488 0.96039 0.80599 0.0
C317 C 0.0902 0.9726 0.75309 0.0
loop_
_geom_bond_atom_site_label_1
_geom_bond_atom_site_label_2
_geom_bond_distance
_geom_bond_site_symmetry_2
_ccdc_geom_bond_type
H0 C3 0.931 . S
H1 C6 0.928 . S
H2 C8 0.930 . S
C3 H0 0.931 . S
C3 C4 1.413 . S
C3 C5 1.360 . S
C4 C3 1.413 . S
C4 C8 1.429 . S
C5 C3 1.360 . S
C5 C6 1.372 . S
C6 H1 0.928 . S
C6 C5 1.372 . S
C6 C7 1.404 . S
C7 C6 1.404 . S
C7 C8 1.391 . S
C8 H2 0.930 . S
C8 C4 1.429 . S
C8 C7 1.391 . S
H9 C12 0.931 . S
H10 C15 0.928 . S
H11 C17 0.930 . S
C12 H9 0.931 . S
C12 C13 1.413 . S
C12 C14 1.360 . S
C13 C12 1.413 . S
C13 C17 1.429 . S
C14 C12 1.360 . S
C14 C15 1.372 . S
C15 H10 0.928 . S
C15 C14 1.372 . S
C15 C16 1.404 . S
C16 C15 1.404 . S
C16 C17 1.391 . S
C17 H11 0.930 . S
C17 C13 1.429 . S
C17 C16 1.391 . S
H18 C21 0.931 . S
H19 C24 0.928 . S
H20 C26 0.930 . S
C21 H18 0.931 . S
C21 C22 1.413 1_554 S
C21 C23 1.360 . S
C22 C21 1.413 1_556 S
C22 C26 1.429 . S
C23 C21 1.360 . S
C23 C24 1.372 . S
C24 H19 0.928 . S
C24 C23 1.372 . S
C24 C25 1.404 1_554 S
C25 C24 1.404 1_556 S
C25 C26 1.391 . S
C26 H20 0.930 . S
C26 C22 1.429 . S
C26 C25 1.391 . S
H27 C30 0.931 . S
H28 C33 0.928 . S
H29 C35 0.930 . S
C30 H27 0.931 . S
C30 C31 1.413 . S
C30 C32 1.360 . S
C31 C30 1.413 . S
C31 C35 1.429 . S
C32 C30 1.360 . S
C32 C33 1.372 . S
C33 H28 0.928 . S
C33 C32 1.372 . S
C33 C34 1.404 . S
C34 C33 1.404 . S
C34 C35 1.391 . S
C35 H29 0.930 . S
C35 C31 1.429 . S
C35 C34 1.391 . S
O36 Mn37 2.163 1_655 S
O36 C50 1.244 . S
Mn37 O36 2.163 1_455 S
Mn37 O40 2.160 1_545 S
Mn37 O41 2.221 . S
Mn37 O43 2.163 1_455 S
Mn37 O45 2.160 1_545 S
Mn37 O55 2.221 1_445 S
O38 Mn39 2.087 1_545 S
O38 C50 1.256 . S
Mn39 O38 2.087 1_565 S
Mn39 O46 2.089 1_655 S
Mn39 O55 2.290 . S
Mn39 O56 2.251 . S
O40 Mn37 2.160 1_565 S
O40 C51 1.239 . S
O41 Mn37 2.221 . S
O41 Mn42 2.290 . S
O41 C52 1.278 . S
Mn42 O41 2.290 . S
Mn42 O44 2.089 . S
Mn42 O47 2.251 . S
Mn42 O48 2.087 1_455 S
O43 Mn37 2.163 1_655 S
O43 C53 1.244 . S
O44 Mn42 2.089 . S
O44 C51 1.256 1_545 S
O45 Mn37 2.160 1_565 S
O45 C54 1.239 . S
O46 Mn39 2.089 1_455 S
O46 C54 1.256 . S
O47 Mn42 2.251 . S
O47 C52 1.241 . S
O48 Mn42 2.087 1_655 S
O48 C53 1.256 . S
C49 O55 1.278 . S
C49 O56 1.241 . S
C50 O36 1.244 . S
C50 O38 1.256 . S
C51 O40 1.239 . S
C51 O44 1.256 1_565 S
C52 O41 1.278 . S
C52 O47 1.241 . S
C53 O43 1.244 . S
C53 O48 1.256 . S
C54 O45 1.239 . S
C54 O46 1.256 . S
O55 Mn37 2.221 1_665 S
O55 Mn39 2.290 . S
O55 C49 1.278 . S
O56 Mn39 2.251 . S
O56 C49 1.241 . S
O57 Mn58 2.163 . S
O57 C71 1.244 . S
Mn58 O57 2.163 . S
Mn58 O61 2.160 1_554 S
Mn58 O62 2.221 . S
Mn58 O64 2.163 1_554 S
Mn58 O66 2.160 . S
Mn58 O76 2.221 . S
O59 Mn60 2.087 . S
O59 C71 1.256 . S
Mn60 O59 2.087 . S
Mn60 O67 2.089 . S
Mn60 O76 2.290 . S
Mn60 O77 2.251 . S
O61 Mn58 2.160 1_556 S
O61 C72 1.239 . S
O62 Mn58 2.221 . S
O62 Mn63 2.290 1_554 S
O62 C73 1.278 . S
Mn63 O62 2.290 1_556 S
Mn63 O65 2.089 . S
Mn63 O68 2.251 . S
Mn63 O69 2.087 . S
O64 Mn58 2.163 1_556 S
O64 C74 1.244 . S
O65 Mn63 2.089 . S
O65 C72 1.256 . S
O66 Mn58 2.160 . S
O66 C75 1.239 . S
O67 Mn60 2.089 . S
O67 C75 1.256 . S
O68 Mn63 2.251 . S
O68 C73 1.241 1_556 S
O69 Mn63 2.087 . S
O69 C74 1.256 . S
C70 O76 1.278 . S
C70 O77 1.241 . S
C71 O57 1.244 . S
C71 O59 1.256 . S
C72 O61 1.239 . S
C72 O65 1.256 . S
C73 O62 1.278 . S
C73 O68 1.241 1_554 S
C74 O64 1.244 . S
C74 O69 1.256 . S
C75 O66 1.239 . S
C75 O67 1.256 . S
O76 Mn58 2.221 . S
O76 Mn60 2.290 . S
O76 C70 1.278 . S
O77 Mn60 2.251 . S
O77 C70 1.241 . S
H78 C86 0.950 . S
H79 C91 0.950 . S
H80 C88 0.950 . S
H81 C90 0.950 . S
H82 C92 0.950 . S
H83 C94 0.950 . S
H84 C96 0.950 . S
H85 C97 0.950 . S
C86 H78 0.950 . S
C86 C87 1.386 . S
C86 C88 1.391 . S
C87 C86 1.386 . S
C87 C91 1.393 . S
C88 H80 0.950 . S
C88 C86 1.391 . S
C88 C89 1.400 . S
C89 C88 1.400 . S
C89 C90 1.398 . S
C89 C95 1.491 . S
C90 H81 0.950 . S
C90 C89 1.398 . S
C90 C91 1.391 . S
C91 H79 0.950 . S
C91 C87 1.393 . S
C91 C90 1.391 . S
C92 H82 0.950 . S
C92 C93 1.386 . S
C92 C94 1.391 . S
C93 C92 1.386 . S
C93 C97 1.393 . S
C94 H83 0.950 . S
C94 C92 1.391 . S
C94 C95 1.400 . S
C95 C89 1.491 . S
C95 C94 1.400 . S
C95 C96 1.398 . S
C96 H84 0.950 . S
C96 C95 1.398 . S
C96 C97 1.391 . S
C97 H85 0.950 . S
C97 C93 1.393 . S
C97 C96 1.391 . S
H98 C106 0.950 . S
H99 C111 0.950 . S
H100 C108 0.950 . S
H101 C110 0.950 . S
H102 C112 0.950 . S
H103 C114 0.950 . S
H104 C116 0.950 . S
H105 C117 0.950 . S
C106 H98 0.950 . S
C106 C107 1.386 . S
C106 C108 1.391 . S
C107 C106 1.386 . S
C107 C111 1.393 . S
C108 H100 0.950 . S
C108 C106 1.391 . S
C108 C109 1.400 . S
C109 C108 1.400 . S
C109 C110 1.398 . S
C109 C115 1.491 . S
C110 H101 0.950 . S
C110 C109 1.398 . S
C110 C111 1.391 . S
C111 H99 0.950 . S
C111 C107 1.393 . S
C111 C110 1.391 . S
C112 H102 0.950 . S
C112 C113 1.386 . S
C112 C114 1.391 . S
C113 C112 1.386 . S
C113 C117 1.393 . S
C114 H103 0.950 . S
C114 C112 1.391 . S
C114 C115 1.400 . S
C115 C109 1.491 . S
C115 C114 1.400 . S
C115 C116 1.398 . S
C116 H104 0.950 . S
C116 C115 1.398 . S
C116 C117 1.391 . S
C117 H105 0.950 . S
C117 C113 1.393 . S
C117 C116 1.391 . S
H118 C126 0.950 . S
H119 C131 0.950 . S
H120 C128 0.950 . S
H121 C130 0.950 . S
H122 C132 0.950 . S
H123 C134 0.950 . S
H124 C136 0.950 . S
H125 C137 0.950 . S
C126 H118 0.950 . S
C126 C127 1.386 . S
C126 C128 1.391 . S
C127 C126 1.386 . S
C127 C131 1.393 . S
C128 H120 0.950 . S
C128 C126 1.391 . S
C128 C129 1.400 . S
C129 C128 1.400 . S
C129 C130 1.398 . S
C129 C135 1.491 . S
C130 H121 0.950 . S
C130 C129 1.398 . S
C130 C131 1.391 . S
C131 H119 0.950 . S
C131 C127 1.393 . S
C131 C130 1.391 . S
C132 H122 0.950 . S
C132 C133 1.386 . S
C132 C134 1.391 . S
C133 C132 1.386 . S
C133 C137 1.393 . S
C134 H123 0.950 . S
C134 C132 1.391 . S
C134 C135 1.400 . S
C135 C129 1.491 . S
C135 C134 1.400 . S
C135 C136 1.398 . S
C136 H124 0.950 . S
C136 C135 1.398 . S
C136 C137 1.391 . S
C137 H125 0.950 . S
C137 C133 1.393 . S
C137 C136 1.391 . S
H138 C146 0.950 . S
H139 C151 0.950 . S
H140 C148 0.950 . S
H141 C150 0.950 . S
H142 C152 0.950 . S
H143 C154 0.950 . S
H144 C156 0.950 1_556 S
H145 C157 0.950 1_556 S
C146 H138 0.950 . S
C146 C147 1.386 . S
C146 C148 1.391 . S
C147 C146 1.386 . S
C147 C151 1.393 1_556 S
C148 H140 0.950 . S
C148 C146 1.391 . S
C148 C149 1.400 1_556 S
C149 C148 1.400 1_554 S
C149 C150 1.398 . S
C149 C155 1.491 . S
C150 H141 0.950 . S
C150 C149 1.398 . S
C150 C151 1.391 . S
C151 H139 0.950 . S
C151 C147 1.393 1_554 S
C151 C150 1.391 . S
C152 H142 0.950 . S
C152 C153 1.386 . S
C152 C154 1.391 . S
C153 C152 1.386 . S
C153 C157 1.393 . S
C154 H143 0.950 . S
C154 C152 1.391 . S
C154 C155 1.400 . S
C155 C149 1.491 . S
C155 C154 1.400 . S
C155 C156 1.398 . S
C156 H144 0.950 1_554 S
C156 C155 1.398 . S
C156 C157 1.391 . S
C157 H145 0.950 1_554 S
C157 C153 1.393 . S
C157 C156 1.391 . S
H158 C166 0.950 . S
H159 C171 0.950 . S
H160 C168 0.950 . S
H161 C170 0.950 . S
H162 C172 0.950 . S
H163 C174 0.950 . S
H164 C176 0.950 . S
H165 C177 0.950 1_545 S
C166 H158 0.950 . S
C166 C167 1.386 . S
C166 C168 1.391 . S
C167 C166 1.386 . S
C167 C171 1.393 . S
C168 H160 0.950 . S
C168 C166 1.391 . S
C168 C169 1.400 . S
C169 C168 1.400 . S
C169 C170 1.398 . S
C169 C175 1.491 . S
C170 H161 0.950 . S
C170 C169 1.398 . S
C170 C171 1.391 . S
C171 H159 0.950 . S
C171 C167 1.393 . S
C171 C170 1.391 . S
C172 H162 0.950 . S
C172 C173 1.386 . S
C172 C174 1.391 . S
C173 C172 1.386 . S
C173 C177 1.393 . S
C174 H163 0.950 . S
C174 C172 1.391 . S
C174 C175 1.400 . S
C175 C169 1.491 . S
C175 C174 1.400 . S
C175 C176 1.398 . S
C176 H164 0.950 . S
C176 C175 1.398 . S
C176 C177 1.391 . S
C177 H165 0.950 1_565 S
C177 C173 1.393 . S
C177 C176 1.391 . S
H178 C186 0.950 . S
H179 C191 0.950 . S
H180 C188 0.950 . S
H181 C190 0.950 . S
H182 C192 0.950 . S
H183 C194 0.950 . S
H184 C196 0.950 . S
H185 C197 0.950 . S
C186 H178 0.950 . S
C186 C187 1.386 . S
C186 C188 1.391 . S
C187 C186 1.386 . S
C187 C191 1.393 . S
C188 H180 0.950 . S
C188 C186 1.391 . S
C188 C189 1.400 . S
C189 C188 1.400 . S
C189 C190 1.398 . S
C189 C195 1.491 . S
C190 H181 0.950 . S
C190 C189 1.398 . S
C190 C191 1.391 . S
C191 H179 0.950 . S
C191 C187 1.393 . S
C191 C190 1.391 . S
C192 H182 0.950 . S
C192 C193 1.386 . S
C192 C194 1.391 . S
C193 C192 1.386 . S
C193 C197 1.393 . S
C194 H183 0.950 . S
C194 C192 1.391 . S
C194 C195 1.400 . S
C195 C189 1.491 . S
C195 C194 1.400 . S
C195 C196 1.398 . S
C196 H184 0.950 . S
C196 C195 1.398 . S
C196 C197 1.391 . S
C197 H185 0.950 . S
C197 C193 1.393 . S
C197 C196 1.391 . S
H198 C206 0.950 . S
H199 C211 0.950 . S
H200 C208 0.950 . S
H201 C210 0.950 . S
H202 C212 0.950 . S
H203 C214 0.950 . S
H204 C216 0.950 . S
H205 C217 0.950 . S
C206 H198 0.950 . S
C206 C207 1.386 . S
C206 C208 1.391 . S
C207 C206 1.386 . S
C207 C211 1.393 . S
C208 H200 0.950 . S
C208 C206 1.391 . S
C208 C209 1.400 . S
C209 C208 1.400 . S
C209 C210 1.398 . S
C209 C215 1.491 . S
C210 H201 0.950 . S
C210 C209 1.398 . S
C210 C211 1.391 . S
C211 H199 0.950 . S
C211 C207 1.393 . S
C211 C210 1.391 . S
C212 H202 0.950 . S
C212 C213 1.386 . S
C212 C214 1.391 . S
C213 C212 1.386 . S
C213 C217 1.393 . S
C214 H203 0.950 . S
C214 C212 1.391 . S
C214 C215 1.400 . S
C215 C209 1.491 . S
C215 C214 1.400 . S
C215 C216 1.398 . S
C216 H204 0.950 . S
C216 C215 1.398 . S
C216 C217 1.391 . S
C217 H205 0.950 . S
C217 C213 1.393 . S
C217 C216 1.391 . S
H218 C226 0.950 . S
H219 C231 0.950 . S
H220 C228 0.950 . S
H221 C230 0.950 . S
H222 C232 0.950 . S
H223 C234 0.950 . S
H224 C236 0.950 . S
H225 C237 0.950 . S
C226 H218 0.950 . S
C226 C227 1.386 . S
C226 C228 1.391 . S
C227 C226 1.386 . S
C227 C231 1.393 . S
C228 H220 0.950 . S
C228 C226 1.391 . S
C228 C229 1.400 . S
C229 C228 1.400 . S
C229 C230 1.398 . S
C229 C235 1.491 . S
C230 H221 0.950 . S
C230 C229 1.398 . S
C230 C231 1.391 . S
C231 H219 0.950 . S
C231 C227 1.393 . S
C231 C230 1.391 . S
C232 H222 0.950 . S
C232 C233 1.386 . S
C232 C234 1.391 . S
C233 C232 1.386 . S
C233 C237 1.393 . S
C234 H223 0.950 . S
C234 C232 1.391 . S
C234 C235 1.400 . S
C235 C229 1.491 . S
C235 C234 1.400 . S
C235 C236 1.398 . S
C236 H224 0.950 . S
C236 C235 1.398 . S
C236 C237 1.391 . S
C237 H225 0.950 . S
C237 C233 1.393 . S
C237 C236 1.391 . S
H238 C246 0.950 . S
H239 C251 0.950 . S
H240 C248 0.950 . S
H241 C250 0.950 . S
H242 C252 0.950 . S
H243 C254 0.950 . S
H244 C256 0.950 . S
H245 C257 0.950 . S
C246 H238 0.950 . S
C246 C247 1.386 . S
C246 C248 1.391 . S
C247 C246 1.386 . S
C247 C251 1.393 . S
C248 H240 0.950 . S
C248 C246 1.391 . S
C248 C249 1.400 . S
C249 C248 1.400 . S
C249 C250 1.398 . S
C249 C255 1.491 . S
C250 H241 0.950 . S
C250 C249 1.398 . S
C250 C251 1.391 . S
C251 H239 0.950 . S
C251 C247 1.393 . S
C251 C250 1.391 . S
C252 H242 0.950 . S
C252 C253 1.386 . S
C252 C254 1.391 . S
C253 C252 1.386 . S
C253 C257 1.393 . S
C254 H243 0.950 . S
C254 C252 1.391 . S
C254 C255 1.400 . S
C255 C249 1.491 . S
C255 C254 1.400 . S
C255 C256 1.398 . S
C256 H244 0.950 . S
C256 C255 1.398 . S
C256 C257 1.391 . S
C257 H245 0.950 . S
C257 C253 1.393 . S
C257 C256 1.391 . S
H258 C266 0.950 . S
H259 C271 0.950 . S
H260 C268 0.950 . S
H261 C270 0.950 . S
H262 C272 0.950 . S
H263 C274 0.950 . S
H264 C276 0.950 . S
H265 C277 0.950 . S
C266 H258 0.950 . S
C266 C267 1.386 . S
C266 C268 1.391 . S
C267 C266 1.386 . S
C267 C271 1.393 . S
C268 H260 0.950 . S
C268 C266 1.391 . S
C268 C269 1.400 . S
C269 C268 1.400 . S
C269 C270 1.398 . S
C269 C275 1.491 . S
C270 H261 0.950 . S
C270 C269 1.398 . S
C270 C271 1.391 . S
C271 H259 0.950 . S
C271 C267 1.393 . S
C271 C270 1.391 . S
C272 H262 0.950 . S
C272 C273 1.386 . S
C272 C274 1.391 . S
C273 C272 1.386 . S
C273 C277 1.393 . S
C274 H263 0.950 . S
C274 C272 1.391 . S
C274 C275 1.400 . S
C275 C269 1.491 . S
C275 C274 1.400 . S
C275 C276 1.398 . S
C276 H264 0.950 . S
C276 C275 1.398 . S
C276 C277 1.391 . S
C277 H265 0.950 . S
C277 C273 1.393 . S
C277 C276 1.391 . S
H278 C286 0.950 . S
H279 C291 0.950 . S
H280 C288 0.950 . S
H281 C290 0.950 . S
H282 C292 0.950 . S
H283 C294 0.950 . S
H284 C296 0.950 . S
H285 C297 0.950 . S
C286 H278 0.950 . S
C286 C287 1.386 . S
C286 C288 1.391 . S
C287 C286 1.386 . S
C287 C291 1.393 . S
C288 H280 0.950 . S
C288 C286 1.391 . S
C288 C289 1.400 . S
C289 C288 1.400 . S
C289 C290 1.398 . S
C289 C295 1.491 . S
C290 H281 0.950 . S
C290 C289 1.398 . S
C290 C291 1.391 . S
C291 H279 0.950 . S
C291 C287 1.393 . S
C291 C290 1.391 . S
C292 H282 0.950 . S
C292 C293 1.386 . S
C292 C294 1.391 . S
C293 C292 1.386 . S
C293 C297 1.393 . S
C294 H283 0.950 . S
C294 C292 1.391 . S
C294 C295 1.400 . S
C295 C289 1.491 . S
C295 C294 1.400 . S
C295 C296 1.398 . S
C296 H284 0.950 . S
C296 C295 1.398 . S
C296 C297 1.391 . S
C297 H285 0.950 . S
C297 C293 1.393 . S
C297 C296 1.391 . S
H298 C306 0.950 1_554 S
H299 C311 0.950 . S
H300 C308 0.950 . S
H301 C310 0.950 . S
H302 C312 0.950 . S
H303 C314 0.950 . S
H304 C316 0.950 1_545 S
H305 C317 0.950 1_545 S
C306 H298 0.950 1_556 S
C306 C307 1.386 . S
C306 C308 1.391 . S
C307 C306 1.386 . S
C307 C311 1.393 . S
C308 H300 0.950 . S
C308 C306 1.391 . S
C308 C309 1.400 . S
C309 C308 1.400 . S
C309 C310 1.398 . S
C309 C315 1.491 . S
C310 H301 0.950 . S
C310 C309 1.398 . S
C310 C311 1.391 . S
C311 H299 0.950 . S
C311 C307 1.393 . S
C311 C310 1.391 . S
C312 H302 0.950 . S
C312 C313 1.386 . S
C312 C314 1.391 . S
C313 C312 1.386 . S
C313 C317 1.393 . S
C314 H303 0.950 . S
C314 C312 1.391 . S
C314 C315 1.400 . S
C315 C309 1.491 . S
C315 C314 1.400 . S
C315 C316 1.398 . S
C316 H304 0.950 1_565 S
C316 C315 1.398 . S
C316 C317 1.391 . S
C317 H305 0.950 1_565 S
C317 C313 1.393 . S
C317 C316 1.391 . S
C93 C52 1.262 . S
C87 C34 1.425 . S
C107 C7 1.439 . S
C113 C73 1.279 . S
C127 C16 1.590 . S
C133 C49 1.359 . S
C147 C25 1.596 . S
C153 C70 1.359 . S
C173 C54 1.491 . S
C167 C5 1.515 . S
C193 C74 1.482 . S
C187 C13 1.540 . S
C207 C23 1.526 . S
C213 C50 1.467 . S
C227 C32 1.510 . S
C233 C72 1.465 . S
C253 C71 1.475 . S
C247 C14 1.532 . S
C273 C53 1.478 . S
C267 C22 1.539 . S
C293 C75 1.482 . S
C287 C31 1.514 . S
C307 C4 1.522 1_556 S
C313 C51 1.463 . S
