# Generated by pormake.
# Topology pyr, (3,6)-cn, num edge types: 1
# Building blocks:
#     Node 0, Type 0, BuildingBlock: BETDAH_clean_linker_0, # of connection points: 3
#     Node 1, Type 0, BuildingBlock: BETDAH_clean_linker_0, # of connection points: 3
#     Node 2, Type 0, BuildingBlock: BETDAH_clean_linker_0, # of connection points: 3
#     Node 3, Type 0, BuildingBlock: BETDAH_clean_linker_0, # of connection points: 3
#     Node 4, Type 0, BuildingBlock: BETDAH_clean_linker_0, # of connection points: 3
#     Node 5, Type 0, BuildingBlock: BETDAH_clean_linker_0, # of connection points: 3
#     Node 6, Type 0, BuildingBlock: BETDAH_clean_linker_0, # of connection points: 3
#     Node 7, Type 0, BuildingBlock: BETDAH_clean_linker_0, # of connection points: 3
#     Node 8, Type 1, BuildingBlock: FUNLAD_clean_sbu_0, # of connection points: 6
#     Node 9, Type 1, BuildingBlock: FUNLAD_clean_sbu_0, # of connection points: 6
#     Node 10, Type 1, BuildingBlock: FUNLAD_clean_sbu_0, # of connection points: 6
#     Node 11, Type 1, BuildingBlock: FUNLAD_clean_sbu_0, # of connection points: 6
#     Edge 12, Type (0, 1), BuildingBlock: EZIPEK_clean_linker_0, # of connection points: 2
#     Edge 13, Type (0, 1), BuildingBlock: EZIPEK_clean_linker_0, # of connection points: 2
#     Edge 14, Type (0, 1), BuildingBlock: EZIPEK_clean_linker_0, # of connection points: 2
#     Edge 15, Type (0, 1), BuildingBlock: EZIPEK_clean_linker_0, # of connection points: 2
#     Edge 16, Type (0, 1), BuildingBlock: EZIPEK_clean_linker_0, # of connection points: 2
#     Edge 17, Type (0, 1), BuildingBlock: EZIPEK_clean_linker_0, # of connection points: 2
#     Edge 18, Type (0, 1), BuildingBlock: EZIPEK_clean_linker_0, # of connection points: 2
#     Edge 19, Type (0, 1), BuildingBlock: EZIPEK_clean_linker_0, # of connection points: 2
#     Edge 20, Type (0, 1), BuildingBlock: EZIPEK_clean_linker_0, # of connection points: 2
#     Edge 21, Type (0, 1), BuildingBlock: EZIPEK_clean_linker_0, # of connection points: 2
#     Edge 22, Type (0, 1), BuildingBlock: EZIPEK_clean_linker_0, # of connection points: 2
#     Edge 23, Type (0, 1), BuildingBlock: EZIPEK_clean_linker_0, # of connection points: 2
#     Edge 24, Type (0, 1), BuildingBlock: EZIPEK_clean_linker_0, # of connection points: 2
#     Edge 25, Type (0, 1), BuildingBlock: EZIPEK_clean_linker_0, # of connection points: 2
#     Edge 26, Type (0, 1), BuildingBlock: EZIPEK_clean_linker_0, # of connection points: 2
#     Edge 27, Type (0, 1), BuildingBlock: EZIPEK_clean_linker_0, # of connection points: 2
#     Edge 28, Type (0, 1), BuildingBlock: EZIPEK_clean_linker_0, # of connection points: 2
#     Edge 29, Type (0, 1), BuildingBlock: EZIPEK_clean_linker_0, # of connection points: 2
#     Edge 30, Type (0, 1), BuildingBlock: EZIPEK_clean_linker_0, # of connection points: 2
#     Edge 31, Type (0, 1), BuildingBlock: EZIPEK_clean_linker_0, # of connection points: 2
#     Edge 32, Type (0, 1), BuildingBlock: EZIPEK_clean_linker_0, # of connection points: 2
#     Edge 33, Type (0, 1), BuildingBlock: EZIPEK_clean_linker_0, # of connection points: 2
#     Edge 34, Type (0, 1), BuildingBlock: EZIPEK_clean_linker_0, # of connection points: 2
#     Edge 35, Type (0, 1), BuildingBlock: EZIPEK_clean_linker_0, # of connection points: 2
# Relax obj value: 0.291
# Max RMSD: 0.218
# Mean RMSD: 0.135
data_MOF--net-pry--node1-FUNLAD_clean_sbu_0--node2-BETDAH_clean_linker_0--edge1-EZIPEK_clean_linker_0
_symmetry_space_group_name_H-M    P1
_symmetry_Int_Tables_number       1
_symmetry_cell_setting            triclinic
loop_
_symmetry_equiv_pos_as_xyz
'x, y, z'
_cell_length_a     24.868282
_cell_length_b     27.322121
_cell_length_c     28.792213
_cell_angle_alpha  90.034002
_cell_angle_beta   90.867234
_cell_angle_gamma 88.528744
loop_
_atom_site_label
_atom_site_type_symbol
_atom_site_fract_x
_atom_site_fract_y
_atom_site_fract_z
_atom_type_partial_charge
H0 H 0.2199 0.14419 0.26511 0.0
H1 H 0.19397 0.24271 0.1485 0.0
H2 H 0.07949 0.23642 0.25807 0.0
C3 C 0.19465 0.16846 0.24444 0.0
C4 C 0.14676 0.18574 0.26608 0.0
C5 C 0.20948 0.18268 0.19825 0.0
C6 C 0.1808 0.22513 0.17979 0.0
C7 C 0.13391 0.2448 0.20127 0.0
C8 C 0.11658 0.22292 0.24278 0.0
N9 N 0.09957 0.28364 0.18211 0.0
C10 C 0.10551 0.32062 0.1481 0.0
H11 H 0.48587 0.87498 0.79452 0.0
H12 H 0.34383 0.96538 0.80719 0.0
H13 H 0.35234 0.86333 0.69643 0.0
C14 C 0.44858 0.88774 0.77893 0.0
C15 C 0.42812 0.86726 0.7356 0.0
C16 C 0.41904 0.92454 0.80477 0.0
C17 C 0.36767 0.93867 0.78801 0.0
C18 C 0.34528 0.918 0.748 0.0
C19 C 0.37416 0.8817 0.72379 0.0
N20 N 0.29036 0.92913 0.73667 0.0
C21 C 0.27094 0.94844 0.69444 0.0
H22 H 0.6962 0.44769 1.035 0.0
H23 H 0.65871 0.6024 1.03307 0.0
H24 H 0.53179 0.49994 0.04 0.0
C25 C 0.66728 0.47794 0.03725 0.0
C26 C 0.61217 0.46842 0.03954 0.0
C27 C 0.68462 0.52638 1.03403 0.0
C28 C 0.64623 0.5649 1.03635 0.0
C29 C 0.59132 0.55556 0.03899 0.0
C30 C 0.57444 0.50727 0.04102 0.0
N31 N 0.55362 0.593 1.02685 0.0
C32 C 0.54467 0.60004 0.97972 0.0
H33 H 0.86133 0.69884 0.52918 0.0
H34 H 0.98866 0.63551 0.44847 0.0
H35 H 0.85771 0.54671 0.49069 0.0
C36 C 0.88078 0.66666 0.5142 0.0
C37 C 0.85508 0.62169 0.51491 0.0
C38 C 0.92902 0.67129 0.49051 0.0
C39 C 0.95239 0.63089 0.46825 0.0
C40 C 0.92662 0.58585 0.46783 0.0
C41 C 0.87895 0.58081 0.49266 0.0
N42 N 0.9433 0.54861 0.4365 0.0
C43 C 0.96015 0.56164 0.39243 0.0
H44 H 0.96666 0.86583 0.80001 0.0
H45 H 0.86955 0.89538 0.92113 0.0
H46 H 0.8692 0.99841 0.80863 0.0
C47 C 0.93856 0.88924 0.81858 0.0
C48 C 0.91947 0.93433 0.79742 0.0
C49 C 0.92103 0.87456 0.86396 0.0
C50 C 0.8834 0.90552 0.88705 0.0
C51 C 0.86488 0.95006 0.86703 0.0
C52 C 0.88355 0.9638 0.8232 0.0
N53 N 0.82943 0.98403 0.88995 0.0
C54 C 0.79539 0.9766 0.92752 0.0
H55 H 0.7179 0.134 0.34763 0.0
H56 H 0.7015 0.24997 0.44719 0.0
H57 H 0.59329 0.24499 0.33038 0.0
C58 C 0.69351 0.164 0.36045 0.0
C59 C 0.64503 0.1798 0.33676 0.0
C60 C 0.71356 0.18795 0.40091 0.0
C61 C 0.68666 0.23121 0.41662 0.0
C62 C 0.64276 0.25155 0.39096 0.0
C63 C 0.62443 0.22656 0.35088 0.0
N64 N 0.61634 0.29771 0.40175 0.0
C65 C 0.61776 0.32766 0.44171 0.0
H66 H 0.35983 0.69746 0.05926 0.0
H67 H 0.33549 0.55081 0.10776 0.0
H68 H 0.47498 0.62919 0.1523 0.0
C69 C 0.37443 0.66512 0.07784 0.0
C70 C 0.4212 0.66739 0.10518 0.0
C71 C 0.34309 0.62326 0.07876 0.0
C72 C 0.36074 0.58242 0.10513 0.0
C73 C 0.40824 0.58435 0.13185 0.0
C74 C 0.43923 0.62652 0.13051 0.0
N75 N 0.41983 0.54758 0.16547 0.0
C76 C 0.43868 0.56119 0.20917 0.0
H77 H 0.20293 0.44178 0.58326 0.0
H78 H 0.18281 0.59798 0.56886 0.0
H79 H 0.04507 0.50653 0.5621 0.0
C80 C 0.17729 0.47379 0.57663 0.0
C81 C 0.12162 0.46878 0.57111 0.0
C82 C 0.19963 0.52033 0.57516 0.0
C83 C 0.16606 0.56176 0.56773 0.0
C84 C 0.11031 0.55682 0.56275 0.0
C85 C 0.08838 0.51019 0.56384 0.0
N86 N 0.07596 0.59811 0.569 0.0
C87 C 0.05525 0.60342 0.6131 0.0
C88 C 0.06026 0.10703 0.44548 0.0
N89 N 0.03263 0.17361 0.57519 0.0
C90 C 0.08264 0.19124 0.56851 0.0
C91 C 0.09256 0.24044 0.57548 0.0
C92 C 0.05052 0.27197 0.58883 0.0
C93 C 1.00003 0.25292 0.59835 0.0
C94 C 0.99189 0.20292 0.59132 0.0
Zn95 Zn 0.01968 0.1063 0.54738 0.0
C96 C 0.91025 0.10569 0.49465 0.0
N97 N 0.99517 0.96975 0.48516 0.0
C98 C 0.0381 0.94359 0.46865 0.0
C99 C 0.94658 0.94917 0.49111 0.0
C100 C 0.94076 0.89939 0.48363 0.0
C101 C 0.98546 0.87096 0.4703 0.0
C102 C 0.03411 0.89339 0.46094 0.0
Zn103 Zn 1.00538 0.036 0.51379 0.0
O104 O 0.05603 0.133 0.48215 0.0
C105 C 0.11221 0.03797 0.56859 0.0
O106 O 0.04289 0.06343 0.44829 0.0
H107 H 0.91339 0.97063 0.50496 0.0
H108 H 0.11415 0.16807 0.55433 0.0
H109 H 0.07633 0.96094 0.46454 0.0
O110 O 0.09721 0.08242 0.57172 0.0
O111 O 0.08288 1.00985 0.54423 0.0
H112 H 0.95231 0.18829 0.59578 0.0
O113 O 0.96933 1.00779 0.57843 0.0
O114 O 0.98654 0.07583 0.61495 0.0
O115 O 0.92694 0.06224 0.48562 0.0
O116 O 0.93955 0.1319 0.52104 0.0
C117 C 0.97007 0.03163 0.61653 0.0
H118 H 0.13174 0.25442 0.56746 0.0
H119 H 0.96677 0.27683 0.60836 0.0
H120 H 0.90281 0.88264 0.49111 0.0
H121 H 0.06914 0.87191 0.45062 0.0
C122 C 0.61159 0.03144 0.03917 0.0
N123 N 0.53272 0.16864 1.02946 0.0
C124 C 0.58276 0.18557 0.03884 0.0
C125 C 0.59335 0.23494 1.03387 0.0
C126 C 0.55197 0.26729 1.01964 0.0
C127 C 0.50151 0.24897 1.00737 0.0
C128 C 0.49266 0.19886 1.01255 0.0
Zn129 Zn 0.51821 0.10106 0.05582 0.0
C130 C 0.4696 1.02696 0.98536 0.0
N131 N 0.49207 0.96439 0.11649 0.0
C132 C 0.53477 0.9378 0.13396 0.0
C133 C 0.44354 0.94403 0.10841 0.0
C134 C 0.43767 0.89405 0.11449 0.0
C135 C 0.48223 0.8653 0.12876 0.0
C136 C 0.53073 0.88745 0.14032 0.0
Zn137 Zn 0.50369 0.03088 0.08919 0.0
O138 O 0.59664 0.07576 1.03316 0.0
C139 C 0.5576 0.0992 0.15866 0.0
O140 O 0.58122 1.00373 0.06204 0.0
H141 H 0.41051 0.96588 0.09397 0.0
H142 H 0.61365 0.1616 0.05367 0.0
H143 H 0.57297 0.95498 0.13986 0.0
O144 O 0.55205 0.12719 0.12333 0.0
O145 O 0.54222 0.05521 0.15446 0.0
H146 H 0.45299 0.1848 1.00604 0.0
O147 O 0.4257 0.05851 0.11537 0.0
O148 O 0.43749 0.12771 0.07979 0.0
O149 O 0.46617 1.00505 1.02416 0.0
O150 O 0.48723 0.07079 0.98711 0.0
C151 C 0.40845 0.10192 0.10608 0.0
H152 H 0.63252 0.24829 0.0439 0.0
H153 H 0.46876 0.27346 0.99654 0.0
H154 H 0.3998 0.8775 0.1054 0.0
H155 H 0.5656 0.86573 0.1515 0.0
C156 C 0.55656 0.49981 0.55292 0.0
N157 N 0.55611 0.55841 0.68926 0.0
C158 C 0.53012 0.52288 0.71253 0.0
C159 C 0.53056 0.52269 0.76115 0.0
C160 C 0.5567 0.56022 0.78515 0.0
C161 C 0.58663 0.59372 0.76022 0.0
C162 C 0.5864 0.59167 0.71211 0.0
Zn163 Zn 0.53685 0.57715 0.62282 0.0
C164 C 0.63251 0.61843 0.57247 0.0
N165 N 0.49798 0.62937 0.48713 0.0
C166 C 0.46582 0.59588 0.46642 0.0
C167 C 0.52187 0.66447 0.4615 0.0
C168 C 0.51521 0.6652 0.41293 0.0
C169 C 0.48377 0.62944 0.3914 0.0
C170 C 0.45777 0.59559 0.41874 0.0
Zn171 Zn 0.51809 0.61211 0.55496 0.0
O172 O 0.55762 0.50425 0.59698 0.0
C173 C 0.4227 0.56627 0.5999 0.0
O174 O 0.54191 0.5372 0.52871 0.0
H175 H 0.54834 0.69009 0.47826 0.0
H176 H 0.50596 0.497 0.69361 0.0
H177 H 0.44907 0.56683 0.48624 0.0
O178 O 0.4557 0.55531 0.63257 0.0
O179 O 0.43864 0.59033 0.56542 0.0
H180 H 0.60664 0.6195 0.69303 0.0
O181 O 0.49708 0.68586 0.58313 0.0
O182 O 0.51514 0.6518 0.65021 0.0
O183 O 0.59611 0.63386 0.54457 0.0
O184 O 0.61921 0.59605 0.60922 0.0
C185 C 0.50026 0.69005 0.62745 0.0
H186 H 0.50775 0.49589 0.77966 0.0
H187 H 0.60772 0.62281 0.77776 0.0
H188 H 0.53598 0.69176 0.39238 0.0
H189 H 0.43363 0.56735 0.40303 0.0
C190 C 0.98532 0.6933 0.97064 0.0
N191 N 0.99755 0.62837 0.11097 0.0
C192 C 0.02538 0.66181 0.13628 0.0
C193 C 0.02287 0.66173 0.18505 0.0
C194 C 0.99163 0.62679 0.2072 0.0
C195 C 0.96175 0.59458 0.18029 0.0
C196 C 0.96557 0.5957 0.13233 0.0
Zn197 Zn 1.01096 0.61217 0.04199 0.0
C198 C 0.90791 0.5725 1.00033 0.0
N199 N 0.03193 0.56459 0.9033 0.0
C200 C 0.05814 0.60073 0.88121 0.0
C201 C 1.00976 0.52705 0.87914 0.0
C202 C 1.01245 0.52606 0.83045 0.0
C203 C 0.03617 0.56511 0.80721 0.0
C204 C 0.05961 0.6023 0.8333 0.0
Zn205 Zn 0.01893 0.58122 0.97125 0.0
O206 O 0.98872 0.68869 1.01504 0.0
C207 C 0.12241 0.61853 1.01563 0.0
O208 O 0.99552 0.65528 0.94649 0.0
H209 H 0.98842 0.49909 0.89736 0.0
H210 H 0.05162 0.6867 0.11896 0.0
H211 H 0.07542 0.63044 0.90058 0.0
O212 O 0.09166 0.62941 0.04908 0.0
O213 O 0.10199 0.60084 0.9788 0.0
H214 H 0.94545 0.56781 0.11269 0.0
O215 O 0.04177 0.50577 0.99703 0.0
O216 O 0.03358 0.53757 0.06624 0.0
O217 O 0.93597 0.56225 0.96491 0.0
O218 O 0.93053 0.59272 1.03473 0.0
C219 C 0.04494 0.50027 0.04121 0.0
H220 H 0.04651 0.68709 0.20521 0.0
H221 H 0.93757 0.56705 0.19642 0.0
H222 H 0.99461 0.4964 0.81114 0.0
H223 H 0.07857 0.63279 0.8166 0.0
C224 C 0.11338 0.19703 0.35046 0.0
C225 C 0.12753 0.1652 0.31306 0.0
C226 C 0.10853 0.09577 0.36607 0.0
C227 C 0.08468 0.12754 0.40017 0.0
N228 N 0.05512 0.21166 0.41567 0.0
N229 N 0.12531 0.08229 0.28415 0.0
C230 C 0.08463 0.17908 0.38985 0.0
C231 C 0.12127 0.11401 0.32062 0.0
N232 N 0.12891 0.24458 0.34953 0.0
N233 N 0.12237 0.04854 0.37733 0.0
H234 H 0.13149 0.09379 0.25019 0.0
H235 H 0.11628 0.04535 0.28693 0.0
H236 H 0.11999 0.0347 0.4109 0.0
H237 H 0.1435 1.02536 0.3549 0.0
H238 H 0.1244 0.26817 0.37777 0.0
H239 H 0.15203 0.25859 0.32296 0.0
H240 H 0.05007 0.24842 0.4065 0.0
H241 H 0.03021 0.20185 0.44252 0.0
C242 C 0.44557 0.92255 0.89239 0.0
C243 C 0.43867 0.94913 0.85018 0.0
C244 C 0.44307 1.02586 0.89725 0.0
C245 C 0.45745 0.99966 0.93886 0.0
N246 N 0.48452 0.91903 0.96965 0.0
N247 N 0.44342 1.02761 0.81276 0.0
C248 C 0.46205 0.94691 0.93465 0.0
C249 C 0.44161 1.00119 0.85291 0.0
N250 N 0.43441 0.87387 0.89307 0.0
N251 N 0.42687 0.07391 0.89982 0.0
H252 H 0.44348 1.01112 0.78005 0.0
H253 H 0.45074 0.06499 0.81222 0.0
H254 H 0.42147 0.0923 0.93115 0.0
H255 H 0.41157 0.09348 0.87129 0.0
H256 H 0.43195 0.85384 0.92374 0.0
H257 H 0.42258 0.85461 0.86354 0.0
H258 H 0.49397 0.88191 0.96563 0.0
H259 H 0.50025 0.93262 1.00047 0.0
C260 C 0.49736 0.5892 0.90397 0.0
C261 C 0.54548 0.59568 0.92972 0.0
C262 C 0.59856 0.56837 0.86382 0.0
C263 C 0.55121 0.56728 0.83595 0.0
N264 N 0.45599 0.58715 0.82743 0.0
N265 N 0.64124 0.60647 0.92978 0.0
C266 C 0.50046 0.5804 0.85538 0.0
C267 C 0.59598 0.58974 0.90837 0.0
N268 N 0.44894 0.59126 0.92579 0.0
N269 N 0.6458 0.54848 0.84798 0.0
H270 H 0.63927 0.62742 0.95998 0.0
H271 H 0.67891 0.60558 0.91437 0.0
H272 H 0.6487 0.53111 0.81579 0.0
H273 H 0.68032 0.5447 0.86881 0.0
H274 H 0.413 0.58145 0.90966 0.0
H275 H 0.44539 0.59996 0.96095 0.0
H276 H 0.41951 0.60137 0.83946 0.0
H277 H 0.45663 0.58293 0.79148 0.0
C278 C 0.02254 0.5742 0.32707 0.0
C279 C 0.97179 0.58291 0.34759 0.0
C280 C 0.94403 0.63562 0.28224 0.0
C281 C 0.99094 0.6205 0.2584 0.0
N282 N 0.07465 0.57405 0.2565 0.0
N283 N 0.88232 0.61927 0.34432 0.0
C284 C 0.03064 0.58998 0.28063 0.0
C285 C 0.93214 0.61334 0.32532 0.0
N286 N 0.0629 0.55108 0.35202 0.0
N287 N 0.91097 0.67131 0.26338 0.0
H288 H 0.87211 0.6038 0.37598 0.0
H289 H 0.84989 0.63667 0.32736 0.0
H290 H 0.91916 0.68816 0.23182 0.0
H291 H 0.87869 0.68742 0.28082 0.0
H292 H 0.10244 0.54795 0.3408 0.0
H293 H 0.05771 0.53825 0.38576 0.0
H294 H 0.10159 0.547 0.26857 0.0
H295 H 0.08279 0.58614 0.22304 0.0
C296 C 0.26528 0.16361 0.12242 0.0
C297 C 0.25623 0.15592 0.17097 0.0
C298 C 0.34386 0.11046 0.1745 0.0
C299 C 0.35618 0.1222 0.12772 0.0
N300 N 0.32588 0.16205 0.0567 0.0
N301 N 0.27041 0.08517 0.22042 0.0
C302 C 0.31624 0.14975 0.10171 0.0
C303 C 0.29094 0.11931 0.19166 0.0
N304 N 0.22213 0.17506 0.09422 0.0
N305 N 0.38255 0.09112 0.20371 0.0
H306 H 0.22901 0.08056 0.22263 0.0
H307 H 0.29361 0.05602 0.23397 0.0
H308 H 0.42281 0.08698 0.19455 0.0
H309 H 0.37517 0.08479 0.23877 0.0
H310 H 0.22397 0.17735 0.05821 0.0
H311 H 0.18277 0.17403 0.10609 0.0
H312 H 0.30281 0.18821 0.03848 0.0
H313 H 0.35818 0.14787 0.03798 0.0
C314 C 0.22609 0.95177 0.61525 0.0
C315 C 0.23942 0.97436 0.65806 0.0
C316 C 0.17153 0.03912 0.64257 0.0
C317 C 0.15927 1.01832 0.5979 0.0
N318 N 0.18862 0.96265 0.53748 0.0
N319 N 0.23768 0.04737 0.70464 0.0
C320 C 0.19062 0.97684 0.58295 0.0
C321 C 0.21674 1.02083 0.66872 0.0
N322 N 0.24678 0.90621 0.60555 0.0
N323 N 0.13788 0.07307 0.6628 0.0
H324 H 0.27048 0.03485 0.72477 0.0
H325 H 0.22635 0.08374 0.71097 0.0
H326 H 0.10059 0.08434 0.64945 0.0
H327 H 0.14315 0.08506 0.69689 0.0
H328 H 0.23393 0.88542 0.57733 0.0
H329 H 0.27457 0.88814 0.6275 0.0
H330 H 0.21358 0.93516 0.52392 0.0
H331 H 0.16686 0.98225 0.51212 0.0
C332 C 0.76847 0.57391 0.04987 0.0
C333 C 0.74192 0.53738 1.024 0.0
C334 C 0.82556 0.52085 0.98193 0.0
C335 C 0.84932 0.56214 1.00345 0.0
N336 N 0.83148 0.63873 0.04384 0.0
N337 N 0.74175 0.48867 0.95356 0.0
C338 C 0.81715 0.59208 1.03313 0.0
C339 C 0.76929 0.5145 0.98636 0.0
N340 N 0.74838 0.59057 0.09098 0.0
N341 N 0.85593 0.48628 0.95934 0.0
H342 H 0.69998 0.48649 0.95309 0.0
H343 H 0.75994 0.47482 0.92374 0.0
H344 H 0.89766 0.4866 0.95786 0.0
H345 H 0.83972 0.45395 0.94671 0.0
H346 H 0.76912 0.61488 0.11221 0.0
H347 H 0.71456 0.57588 0.10617 0.0
H348 H 0.80699 0.66234 0.06322 0.0
H349 H 0.86348 0.65582 1.02804 0.0
C350 C 0.75683 0.61584 0.49689 0.0
C351 C 0.79845 0.62058 0.53054 0.0
C352 C 0.73077 0.63229 0.59101 0.0
C353 C 0.68977 0.62017 0.55838 0.0
N354 N 0.66748 0.58804 0.4817 0.0
N355 N 0.82598 0.62833 0.61076 0.0
C356 C 0.70371 0.60857 0.51167 0.0
C357 C 0.7857 0.62726 0.57804 0.0
N358 N 0.76745 0.62002 0.4506 0.0
N359 N 0.71737 0.65105 0.63342 0.0
H360 H 0.86653 0.62586 0.6022 0.0
H361 H 0.8191 0.6278 0.64635 0.0
H362 H 0.67769 0.65791 0.64317 0.0
H363 H 0.74549 0.66471 0.65692 0.0
H364 H 0.73727 0.62207 0.4251 0.0
H365 H 0.80558 0.62697 0.43798 0.0
H366 H 0.67808 0.57474 0.44906 0.0
H367 H 0.62899 0.57811 0.49092 0.0
C368 C 0.04602 0.39535 0.13181 0.0
C369 C 0.09144 0.36537 0.11951 0.0
C370 C 0.10736 0.42313 0.05444 0.0
C371 C 0.05954 0.4511 0.06493 0.0
N372 N 0.97651 0.45414 0.10695 0.0
N373 N 0.16087 0.34735 0.06458 0.0
C374 C 0.02715 0.43439 0.10184 0.0
C375 C 0.12064 0.37827 0.07935 0.0
N376 N 0.02106 0.38739 0.17301 0.0
N377 N 0.14167 0.44046 1.02217 0.0
H378 H 0.17229 0.31554 0.08264 0.0
H379 H 0.18013 0.35128 1.03299 0.0
H380 H 0.13346 0.47224 1.00322 0.0
H381 H 0.17992 0.42544 1.01655 0.0
H382 H 0.99218 0.41145 0.18662 0.0
H383 H 0.03253 0.35925 0.19579 0.0
H384 H 0.94872 0.44046 0.12998 0.0
H385 H 0.95988 0.48043 0.08434 0.0
C386 C 0.58788 0.39769 0.98876 0.0
C387 C 0.59322 0.41783 1.03405 0.0
C388 C 0.5595 0.34274 0.06793 0.0
C389 C 0.5607 0.32055 1.02333 0.0
N390 N 0.57972 0.32451 0.94166 0.0
N391 N 0.5883 0.40957 0.11715 0.0
C392 C 0.57556 0.34746 0.98372 0.0
C393 C 0.5799 0.39045 0.0738 0.0
N394 N 0.59339 0.42692 0.95064 0.0
N395 N 0.53804 0.31832 0.10445 0.0
H396 H 0.60215 0.44486 0.12265 0.0
H397 H 0.5852 0.38949 0.14766 0.0
H398 H 0.52282 0.28321 0.10139 0.0
H399 H 0.53103 0.33418 0.13674 0.0
H400 H 0.5845 0.41578 0.91687 0.0
H401 H 0.60264 0.46388 0.95293 0.0
H402 H 0.59653 0.34044 0.91262 0.0
H403 H 0.56937 0.28812 0.93649 0.0
C404 C 0.93682 0.74566 0.44098 0.0
C405 C 0.95051 0.7203 0.48273 0.0
C406 C 0.99538 0.79204 0.5135 0.0
C407 C 0.98179 0.81729 0.47167 0.0
N408 N 0.9516 0.81612 0.39197 0.0
N409 N 1.00146 0.71439 0.55436 0.0
C410 C 0.95658 0.79323 0.43408 0.0
C411 C 0.98282 0.74192 0.51759 0.0
N412 N 0.90272 0.72527 0.4091 0.0
N413 N 0.01777 0.81668 0.55005 0.0
H414 H 0.99164 0.67781 0.5588 0.0
H415 H 0.02977 0.72644 0.5785 0.0
H416 H 0.02913 0.85309 0.54797 0.0
H417 H 0.02249 0.80203 0.58327 0.0
H418 H 0.88673 0.74395 0.38037 0.0
H419 H 0.88695 0.69057 0.41307 0.0
H420 H 0.93816 0.79893 0.36184 0.0
H421 H 0.96565 0.85125 0.38625 0.0
C422 C 0.43586 0.81752 0.65817 0.0
C423 C 0.45702 0.82808 0.70349 0.0
C424 C 0.51851 0.75519 0.69192 0.0
C425 C 0.48704 0.73874 0.65286 0.0
N426 N 0.4081 0.75501 0.60446 0.0
N427 N 0.54383 0.82358 0.74092 0.0
C428 C 0.44386 0.77028 0.6375 0.0
C429 C 0.50523 0.80098 0.71527 0.0
N430 N 0.41429 0.85468 0.63166 0.0
N431 N 0.563 0.72846 0.70569 0.0
H432 H 0.54346 0.86158 0.74399 0.0
H433 H 0.58086 0.80758 0.75017 0.0
H434 H 0.58088 0.70169 0.6849 0.0
H435 H 0.58191 0.7328 0.73791 0.0
H436 H 0.40253 0.84992 0.59705 0.0
H437 H 0.41538 0.89115 0.64245 0.0
H438 H 0.37382 0.77579 0.59518 0.0
H439 H 0.40891 0.71982 0.59053 0.0
C440 C 0.89372 0.96238 0.71399 0.0
C441 C 0.93471 0.95322 0.74866 0.0
C442 C 0.99944 0.98979 0.69406 0.0
C443 C 0.95734 1.00547 0.66264 0.0
N444 N 0.8625 1.00849 0.64557 0.0
N445 N 0.02654 0.96577 0.77259 0.0
C446 C 0.90397 0.99199 0.67349 0.0
C447 C 0.98756 0.96893 0.73875 0.0
N448 N 0.84497 0.94124 0.71904 0.0
N449 N 0.05143 0.9922 0.68017 0.0
H450 H 0.01998 0.95071 0.80521 0.0
H451 H 0.06396 0.98167 0.76952 0.0
H452 H 0.06117 1.0044 0.64723 0.0
H453 H 0.0839 0.97705 0.69895 0.0
H454 H 0.81489 0.94203 0.6935 0.0
H455 H 0.83663 0.91856 0.74703 0.0
H456 H 0.82215 1.00494 0.65375 0.0
H457 H 0.86854 1.02936 0.61586 0.0
C458 C 0.56544 0.16568 0.27773 0.0
C459 C 0.61789 0.15176 0.29517 0.0
C460 C 0.62625 0.09692 0.22631 0.0
C461 C 0.57897 0.11804 0.2052 0.0
N462 N 0.50359 0.17483 0.21207 0.0
N463 N 0.66861 0.07545 0.29953 0.0
C464 C 0.54889 0.15333 0.23119 0.0
C465 C 0.64131 0.10952 0.27318 0.0
N466 N 0.5277 0.18261 0.30814 0.0
N467 N 0.65746 0.06467 0.20169 0.0
H468 H 0.66572 0.07548 0.33564 0.0
H469 H 0.68373 0.04248 0.28622 0.0
H470 H 0.64787 0.05407 0.16781 0.0
H471 H 0.69507 0.05201 0.21369 0.0
H472 H 0.48742 0.18898 0.299 0.0
H473 H 0.53488 0.18272 0.34395 0.0
H474 H 0.48381 0.20477 0.22723 0.0
H475 H 0.48782 0.16499 0.17974 0.0
C476 C 0.50608 0.57554 0.27182 0.0
C477 C 0.45379 0.58385 0.25284 0.0
C478 C 0.43122 0.63833 0.31766 0.0
C479 C 0.47976 0.6234 0.34032 0.0
N480 N 0.56386 0.57751 0.34043 0.0
N481 N 0.3654 0.62206 0.25698 0.0
C482 C 0.51784 0.59256 0.31747 0.0
C483 C 0.41617 0.61545 0.27526 0.0
N484 N 0.54439 0.55166 0.24613 0.0
N485 N 0.39968 0.67433 0.33707 0.0
H486 H 0.35315 0.60664 0.22552 0.0
H487 H 0.33432 0.64036 0.27414 0.0
H488 H 0.41032 0.69153 0.36814 0.0
H489 H 0.36606 0.69024 0.32058 0.0
H490 H 0.58476 0.54868 0.2561 0.0
H491 H 0.53657 0.53801 0.21291 0.0
H492 H 0.59 0.55025 0.32816 0.0
H493 H 0.57473 0.59076 0.37314 0.0
C494 C 0.09345 0.59536 0.69142 0.0
C495 C 0.04735 0.59661 0.6622 0.0
C496 C 0.99146 0.57508 0.72787 0.0
C497 C 0.03881 0.56847 0.7558 0.0
N498 N 0.13549 0.55912 0.75969 0.0
N499 N 0.95387 0.57908 0.64963 0.0
C500 C 0.09007 0.57431 0.73599 0.0
C501 C 0.99668 0.58365 0.67942 0.0
N502 N 0.14017 0.61543 0.67716 0.0
N503 N 0.94187 0.57596 0.74765 0.0
H504 H 0.95627 0.58653 0.61417 0.0
H505 H 0.91744 0.56461 0.65963 0.0
H506 H 0.93616 0.57107 0.78309 0.0
H507 H 0.90672 0.58568 0.72938 0.0
H508 H 0.17323 0.61992 0.6993 0.0
H509 H 0.14375 0.6323 0.64489 0.0
H510 H 0.17368 0.55949 0.7454 0.0
H511 H 0.13419 0.54142 0.79177 0.0
C512 C 0.75778 1.01834 0.99806 0.0
C513 C 0.75287 0.98269 0.96233 0.0
C514 C 0.6565 0.97678 0.97873 0.0
C515 C 0.66121 1.01161 1.01537 0.0
N516 N 0.71838 0.05879 0.0654 0.0
N517 N 0.70126 0.91968 0.9262 0.0
C518 C 0.71262 0.03028 1.02672 0.0
C519 C 0.70344 0.95901 0.95544 0.0
N520 N 0.8052 0.04202 1.00356 0.0
N521 N 0.60671 0.96353 0.96356 0.0
H522 H 0.73492 0.90626 0.90855 0.0
H523 H 0.6678 0.8977 0.92297 0.0
H524 H 0.5716 0.97791 0.97785 0.0
H525 H 0.60002 0.94246 0.93398 0.0
H526 H 0.8099 0.07248 1.02483 0.0
H527 H 0.83955 0.03249 0.98488 0.0
H528 H 0.75538 0.06985 0.07845 0.0
H529 H 0.68623 0.06819 0.08679 0.0
C530 C 0.81477 0.18876 0.41925 0.0
C531 C 0.76376 0.1676 0.42623 0.0
C532 C 0.80794 0.10793 0.48088 0.0
C533 C 0.85939 0.12706 0.47142 0.0
N534 N 0.91227 0.18 0.42461 0.0
N535 N 0.71268 0.10353 0.46037 0.0
C536 C 0.86277 0.16621 0.43893 0.0
C537 C 0.76077 0.12609 0.45608 0.0
N538 N 0.81752 0.23072 0.39367 0.0
N539 N 0.80385 0.07353 0.51502 0.0
H540 H 0.67704 0.11706 0.44506 0.0
H541 H 0.70846 0.06991 0.47671 0.0
H542 H 0.83716 0.0594 0.53346 0.0
H543 H 0.76743 0.06162 0.52761 0.0
H544 H 0.85189 0.25156 0.39191 0.0
H545 H 0.78425 0.24675 0.37659 0.0
H546 H 0.91819 0.20439 0.39751 0.0
H547 H 0.94789 0.16341 0.43687 0.0
C548 C 0.27509 0.59265 1.02082 0.0
C549 C 0.2883 0.62499 0.05742 0.0
C550 C 0.19888 0.66353 0.05037 0.0
C551 C 0.18163 0.62457 1.02171 0.0
N552 N 0.20528 0.54854 0.98147 0.0
N553 N 0.25863 0.68622 0.11291 0.0
C554 C 0.22028 0.58841 1.00672 0.0
C555 C 0.2492 0.65935 0.0737 0.0
N556 N 0.31493 0.56653 0.99899 0.0
N557 N 0.16745 0.70495 0.05483 0.0
H558 H 0.29374 0.68247 0.13296 0.0
H559 H 0.22907 0.70832 0.12825 0.0
H560 H 0.13164 0.71034 1.03597 0.0
H561 H 0.18024 0.73594 0.07256 0.0
H562 H 0.30832 0.54636 0.9688 0.0
H563 H 0.35548 0.56898 1.00834 0.0
H564 H 0.23096 0.51843 0.97596 0.0
H565 H 0.16689 0.54326 0.9682 0.0
C566 C 0.27605 0.54346 0.62806 0.0
C567 C 0.25798 0.52611 0.58421 0.0
C568 C 0.35085 0.521 0.55813 0.0
C569 C 0.3674 0.54732 0.59824 0.0
N570 N 0.34472 0.58708 0.67049 0.0
N571 N 0.27754 0.50122 0.50576 0.0
C572 C 0.3299 0.55906 0.63336 0.0
C573 C 0.29524 0.51534 0.54879 0.0
N574 N 0.24216 0.54374 0.66489 0.0
N575 N 0.38845 0.49997 0.52979 0.0
H576 H 0.23705 0.49597 0.49772 0.0
H577 H 0.30257 0.49836 0.47715 0.0
H578 H 0.42962 0.5019 0.5366 0.0
H579 H 0.37891 0.47647 0.50255 0.0
H580 H 0.25481 0.55133 0.69872 0.0
H581 H 0.20284 0.53145 0.66229 0.0
H582 H 0.31732 0.60126 0.69432 0.0
H583 H 0.38372 0.59934 0.67559 0.0
C584 C 0.9139 0.78247 0.88198 0.0
C585 C 0.9409 0.82733 0.88898 0.0
C586 C 0.99775 0.78496 0.95005 0.0
C587 C 0.96799 0.74116 0.94543 0.0
N588 N 0.89075 0.70231 0.9118 0.0
N589 N 1.00489 0.87236 0.93433 0.0
C590 C 0.92436 0.74114 0.91244 0.0
C591 C 0.98172 0.8287 0.92445 0.0
N592 N 0.87821 0.77907 0.84565 0.0
N593 N 0.04313 0.7843 0.97737 0.0
H594 H 0.99669 0.90405 0.91501 0.0
H595 H 0.02968 0.87797 0.9632 0.0
H596 H 0.05576 0.75373 0.99663 0.0
H597 H 0.07043 0.81254 0.97833 0.0
H598 H 0.86153 0.74632 0.83488 0.0
H599 H 0.86865 0.80845 0.82366 0.0
H600 H 0.85507 0.70162 0.89249 0.0
H601 H 0.89557 0.67254 0.93428 0.0
C602 C 0.4332 0.74038 0.15627 0.0
C603 C 0.44516 0.71535 0.11419 0.0
C604 C 0.49045 0.78692 0.08465 0.0
C605 C 0.47845 0.81168 0.12676 0.0
N606 N 0.45154 0.80939 0.20654 0.0
N607 N 0.49359 0.70994 0.04254 0.0
C608 C 0.45439 0.78731 0.164 0.0
C609 C 0.47678 0.73708 0.07974 0.0
N610 N 0.39882 0.72072 0.18744 0.0
N611 N 0.51251 0.8118 0.04872 0.0
H612 H 0.48287 0.67363 0.03761 0.0
H613 H 0.52119 0.72196 1.01852 0.0
H614 H 0.52496 0.84784 0.05168 0.0
H615 H 0.51611 0.79772 1.01528 0.0
H616 H 0.38407 0.73961 0.21616 0.0
H617 H 0.38122 0.68685 0.18281 0.0
H618 H 0.43919 0.79165 0.23639 0.0
H619 H 0.46647 0.84417 0.21285 0.0
C620 C 0.0819 0.39384 0.5362 0.0
C621 C 0.0974 0.42033 0.57632 0.0
C622 C 0.07457 0.35156 0.62622 0.0
C623 C 0.05875 0.32525 0.5861 0.0
N624 N 0.03533 0.32411 0.50454 0.0
N625 N 0.09761 0.43001 0.65962 0.0
C626 C 0.05839 0.34748 0.54156 0.0
C627 C 0.09024 0.40092 0.62147 0.0
N628 N 0.09175 0.41212 0.49302 0.0
N629 N 0.07662 0.32869 0.66844 0.0
H630 H 0.10941 0.4663 0.65736 0.0
H631 H 0.08787 0.41963 0.69318 0.0
H632 H 0.06355 0.29309 0.67325 0.0
H633 H 0.09388 0.34385 0.69812 0.0
H634 H 0.08714 0.39215 0.46248 0.0
H635 H 0.1083 0.44634 0.48771 0.0
H636 H 0.02912 0.34022 0.47209 0.0
H637 H 0.01793 0.28991 0.50731 0.0
C638 C 0.64193 0.40682 0.48169 0.0
C639 C 0.60615 0.36737 0.47605 0.0
C640 C 0.54062 0.41155 0.52656 0.0
C641 C 0.57497 0.45238 0.52949 0.0
N642 N 0.66446 0.48216 0.52207 0.0
N643 N 0.52072 0.33219 0.49211 0.0
C644 C 0.62738 0.44807 0.51036 0.0
C645 C 0.55553 0.36959 0.49875 0.0
N646 N 0.68925 0.4057 0.4581 0.0
N647 N 0.49457 0.41224 0.5519 0.0
H648 H 0.53118 0.30029 0.47407 0.0
H649 H 0.48087 0.33313 0.50257 0.0
H650 H 0.48361 0.4415 0.57331 0.0
H651 H 0.46924 0.38278 0.55495 0.0
H652 H 0.71429 0.43549 0.45552 0.0
H653 H 0.70217 0.37542 0.43875 0.0
H654 H 0.70485 0.47958 0.51325 0.0
H655 H 0.65586 0.51099 0.54475 0.0
loop_
_geom_bond_atom_site_label_1
_geom_bond_atom_site_label_2
_geom_bond_distance
_geom_bond_site_symmetry_2
_ccdc_geom_bond_type
H0 C3 0.929 . S
H1 C6 0.929 . S
H2 C8 0.930 . S
C3 H0 0.929 . S
C3 C4 1.398 . S
C3 C5 1.396 . S
C4 C3 1.398 . S
C4 C8 1.407 . S
C5 C3 1.396 . S
C5 C6 1.394 . S
C6 H1 0.929 . S
C6 C5 1.394 . S
C6 C7 1.382 . S
C7 C6 1.382 . S
C7 C8 1.392 . S
C7 N9 1.420 . S
C8 H2 0.930 . S
C8 C4 1.407 . S
C8 C7 1.392 . S
N9 C7 1.420 . S
N9 C10 1.244 . S
C10 N9 1.244 . S
H11 C14 0.929 . S
H12 C17 0.929 . S
H13 C19 0.930 . S
C14 H11 0.929 . S
C14 C15 1.398 . S
C14 C16 1.396 . S
C15 C14 1.398 . S
C15 C19 1.407 . S
C16 C14 1.396 . S
C16 C17 1.394 . S
C17 H12 0.929 . S
C17 C16 1.394 . S
C17 C18 1.382 . S
C18 C17 1.382 . S
C18 C19 1.392 . S
C18 N20 1.420 . S
C19 H13 0.930 . S
C19 C15 1.407 . S
C19 C18 1.392 . S
N20 C18 1.420 . S
N20 C21 1.244 . S
C21 N20 1.244 . S
H22 C25 0.929 1_554 S
H23 C28 0.929 . S
H24 C30 0.930 . S
C25 H22 0.929 1_556 S
C25 C26 1.398 . S
C25 C27 1.396 . S
C26 C25 1.398 . S
C26 C30 1.407 . S
C27 C25 1.396 . S
C27 C28 1.394 . S
C28 H23 0.929 . S
C28 C27 1.394 . S
C28 C29 1.382 . S
C29 C28 1.382 . S
C29 C30 1.392 . S
C29 N31 1.420 . S
C30 H24 0.930 . S
C30 C26 1.407 . S
C30 C29 1.392 . S
N31 C29 1.420 . S
N31 C32 1.244 . S
C32 N31 1.244 . S
H33 C36 0.929 . S
H34 C39 0.929 . S
H35 C41 0.930 . S
C36 H33 0.929 . S
C36 C37 1.398 . S
C36 C38 1.396 . S
C37 C36 1.398 . S
C37 C41 1.407 . S
C38 C36 1.396 . S
C38 C39 1.394 . S
C39 H34 0.929 . S
C39 C38 1.394 . S
C39 C40 1.382 . S
C40 C39 1.382 . S
C40 C41 1.392 . S
C40 N42 1.420 . S
C41 H35 0.930 . S
C41 C37 1.407 . S
C41 C40 1.392 . S
N42 C40 1.420 . S
N42 C43 1.244 . S
C43 N42 1.244 . S
H44 C47 0.929 . S
H45 C50 0.929 . S
H46 C52 0.930 . S
C47 H44 0.929 . S
C47 C48 1.398 . S
C47 C49 1.396 . S
C48 C47 1.398 . S
C48 C52 1.407 . S
C49 C47 1.396 . S
C49 C50 1.394 . S
C50 H45 0.929 . S
C50 C49 1.394 . S
C50 C51 1.382 . S
C51 C50 1.382 . S
C51 C52 1.392 . S
C51 N53 1.420 . S
C52 H46 0.930 . S
C52 C48 1.407 . S
C52 C51 1.392 . S
N53 C51 1.420 . S
N53 C54 1.244 . S
C54 N53 1.244 . S
H55 C58 0.929 . S
H56 C61 0.929 . S
H57 C63 0.930 . S
C58 H55 0.929 . S
C58 C59 1.398 . S
C58 C60 1.396 . S
C59 C58 1.398 . S
C59 C63 1.407 . S
C60 C58 1.396 . S
C60 C61 1.394 . S
C61 H56 0.929 . S
C61 C60 1.394 . S
C61 C62 1.382 . S
C62 C61 1.382 . S
C62 C63 1.392 . S
C62 N64 1.420 . S
C63 H57 0.930 . S
C63 C59 1.407 . S
C63 C62 1.392 . S
N64 C62 1.420 . S
N64 C65 1.244 . S
C65 N64 1.244 . S
H66 C69 0.929 . S
H67 C72 0.929 . S
H68 C74 0.930 . S
C69 H66 0.929 . S
C69 C70 1.398 . S
C69 C71 1.396 . S
C70 C69 1.398 . S
C70 C74 1.407 . S
C71 C69 1.396 . S
C71 C72 1.394 . S
C72 H67 0.929 . S
C72 C71 1.394 . S
C72 C73 1.382 . S
C73 C72 1.382 . S
C73 C74 1.392 . S
C73 N75 1.420 . S
C74 H68 0.930 . S
C74 C70 1.407 . S
C74 C73 1.392 . S
N75 C73 1.420 . S
N75 C76 1.244 . S
C76 N75 1.244 . S
H77 C80 0.929 . S
H78 C83 0.929 . S
H79 C85 0.930 . S
C80 H77 0.929 . S
C80 C81 1.398 . S
C80 C82 1.396 . S
C81 C80 1.398 . S
C81 C85 1.407 . S
C82 C80 1.396 . S
C82 C83 1.394 . S
C83 H78 0.929 . S
C83 C82 1.394 . S
C83 C84 1.382 . S
C84 C83 1.382 . S
C84 C85 1.392 . S
C84 N86 1.420 . S
C85 H79 0.930 . S
C85 C81 1.407 . S
C85 C84 1.392 . S
N86 C84 1.420 . S
N86 C87 1.244 . S
C87 N86 1.244 . S
C88 O104 1.251 . S
C88 O106 1.254 . S
N89 C90 1.333 . S
N89 C94 1.307 . S
N89 Zn95 2.020 . S
C90 N89 1.333 . S
C90 C91 1.379 . S
C90 H108 0.952 . S
C91 C90 1.379 . S
C91 C92 1.390 . S
C91 H118 0.949 . S
C92 C91 1.390 . S
C92 C93 1.357 . S
C93 C92 1.357 . S
C93 C94 1.370 . S
C93 H119 0.950 . S
C94 N89 1.307 . S
C94 C93 1.370 . S
C94 H112 0.948 1_455 S
Zn95 N89 2.020 . S
Zn95 O104 2.039 . S
Zn95 O110 2.034 . S
Zn95 O114 2.025 1_455 S
Zn95 O116 2.024 1_455 S
C96 O115 1.246 . S
C96 O116 1.249 . S
N97 C98 1.307 . S
N97 C99 1.333 . S
N97 Zn103 2.020 . S
C98 N97 1.307 . S
C98 C102 1.370 . S
C98 H109 0.948 1_655 S
C99 N97 1.333 . S
C99 C100 1.379 . S
C99 H107 0.952 . S
C100 C99 1.379 . S
C100 C101 1.390 . S
C100 H120 0.949 . S
C101 C100 1.390 . S
C101 C102 1.357 . S
C102 C98 1.370 . S
C102 C101 1.357 . S
C102 H121 0.950 . S
Zn103 N97 2.020 . S
Zn103 O106 2.025 1_665 S
Zn103 O111 2.024 1_655 S
Zn103 O113 2.039 . S
Zn103 O115 2.034 1_565 S
O104 C88 1.251 . S
O104 Zn95 2.039 . S
C105 O110 1.246 . S
C105 O111 1.249 1_545 S
O106 C88 1.254 . S
O106 Zn103 2.025 1_445 S
H107 C99 0.952 . S
H108 C90 0.952 . S
H109 C98 0.948 1_455 S
O110 Zn95 2.034 . S
O110 C105 1.246 . S
O111 Zn103 2.024 1_455 S
O111 C105 1.249 1_565 S
H112 C94 0.948 1_655 S
O113 Zn103 2.039 . S
O113 C117 1.251 1_565 S
O114 Zn95 2.025 1_655 S
O114 C117 1.254 . S
O115 C96 1.246 . S
O115 Zn103 2.034 1_545 S
O116 Zn95 2.024 1_655 S
O116 C96 1.249 . S
C117 O113 1.251 1_545 S
C117 O114 1.254 . S
H118 C91 0.949 . S
H119 C93 0.950 . S
H120 C100 0.949 . S
H121 C102 0.950 . S
C122 O138 1.251 . S
C122 O140 1.254 1_546 S
N123 C124 1.333 . S
N123 C128 1.307 . S
N123 Zn129 2.020 1_556 S
C124 N123 1.333 . S
C124 C125 1.379 . S
C124 H142 0.952 . S
C125 C124 1.379 . S
C125 C126 1.390 . S
C125 H152 0.949 . S
C126 C125 1.390 . S
C126 C127 1.357 . S
C127 C126 1.357 . S
C127 C128 1.370 . S
C127 H153 0.950 . S
C128 N123 1.307 . S
C128 C127 1.370 . S
C128 H146 0.948 . S
Zn129 N123 2.020 1_554 S
Zn129 O138 2.039 1_554 S
Zn129 O144 2.034 . S
Zn129 O148 2.025 . S
Zn129 O150 2.024 1_554 S
C130 O149 1.246 1_545 S
C130 O150 1.249 . S
N131 C132 1.307 . S
N131 C133 1.333 . S
N131 Zn137 2.020 . S
C132 N131 1.307 . S
C132 C136 1.370 . S
C132 H143 0.948 . S
C133 N131 1.333 . S
C133 C134 1.379 . S
C133 H141 0.952 . S
C134 C133 1.379 . S
C134 C135 1.390 . S
C134 H154 0.949 . S
C135 C134 1.390 . S
C135 C136 1.357 . S
C136 C132 1.370 . S
C136 C135 1.357 . S
C136 H155 0.950 . S
Zn137 N131 2.020 . S
Zn137 O140 2.025 . S
Zn137 O145 2.024 1_565 S
Zn137 O147 2.039 1_565 S
Zn137 O149 2.034 1_554 S
O138 C122 1.251 . S
O138 Zn129 2.039 1_556 S
C139 O144 1.246 . S
C139 O145 1.249 . S
O140 C122 1.254 1_564 S
O140 Zn137 2.025 . S
H141 C133 0.952 . S
H142 C124 0.952 . S
H143 C132 0.948 . S
O144 Zn129 2.034 . S
O144 C139 1.246 . S
O145 Zn137 2.024 1_545 S
O145 C139 1.249 . S
H146 C128 0.948 . S
O147 Zn137 2.039 1_545 S
O147 C151 1.251 . S
O148 Zn129 2.025 . S
O148 C151 1.254 . S
O149 C130 1.246 1_565 S
O149 Zn137 2.034 1_556 S
O150 Zn129 2.024 1_556 S
O150 C130 1.249 . S
C151 O147 1.251 . S
C151 O148 1.254 . S
H152 C125 0.949 . S
H153 C127 0.950 . S
H154 C134 0.949 . S
H155 C136 0.950 . S
C156 O172 1.251 . S
C156 O174 1.254 . S
N157 C158 1.333 . S
N157 C162 1.307 . S
N157 Zn163 2.020 . S
C158 N157 1.333 . S
C158 C159 1.379 . S
C158 H176 0.952 . S
C159 C158 1.379 . S
C159 C160 1.390 . S
C159 H186 0.949 . S
C160 C159 1.390 . S
C160 C161 1.357 . S
C161 C160 1.357 . S
C161 C162 1.370 . S
C161 H187 0.950 . S
C162 N157 1.307 . S
C162 C161 1.370 . S
C162 H180 0.948 . S
Zn163 N157 2.020 . S
Zn163 O172 2.039 . S
Zn163 O178 2.034 . S
Zn163 O182 2.025 . S
Zn163 O184 2.024 . S
C164 O183 1.246 . S
C164 O184 1.249 . S
N165 C166 1.307 . S
N165 C167 1.333 . S
N165 Zn171 2.020 . S
C166 N165 1.307 . S
C166 C170 1.370 . S
C166 H177 0.948 . S
C167 N165 1.333 . S
C167 C168 1.379 . S
C167 H175 0.952 . S
C168 C167 1.379 . S
C168 C169 1.390 . S
C168 H188 0.949 . S
C169 C168 1.390 . S
C169 C170 1.357 . S
C170 C166 1.370 . S
C170 C169 1.357 . S
C170 H189 0.950 . S
Zn171 N165 2.020 . S
Zn171 O174 2.025 . S
Zn171 O179 2.024 . S
Zn171 O181 2.039 . S
Zn171 O183 2.034 . S
O172 C156 1.251 . S
O172 Zn163 2.039 . S
C173 O178 1.246 . S
C173 O179 1.249 . S
O174 C156 1.254 . S
O174 Zn171 2.025 . S
H175 C167 0.952 . S
H176 C158 0.952 . S
H177 C166 0.948 . S
O178 Zn163 2.034 . S
O178 C173 1.246 . S
O179 Zn171 2.024 . S
O179 C173 1.249 . S
H180 C162 0.948 . S
O181 Zn171 2.039 . S
O181 C185 1.251 . S
O182 Zn163 2.025 . S
O182 C185 1.254 . S
O183 C164 1.246 . S
O183 Zn171 2.034 . S
O184 Zn163 2.024 . S
O184 C164 1.249 . S
C185 O181 1.251 . S
C185 O182 1.254 . S
H186 C159 0.949 . S
H187 C161 0.950 . S
H188 C168 0.949 . S
H189 C170 0.950 . S
C190 O206 1.251 1_556 S
C190 O208 1.254 1_655 S
N191 C192 1.333 . S
N191 C196 1.307 . S
N191 Zn197 2.020 . S
C192 N191 1.333 . S
C192 C193 1.379 . S
C192 H210 0.952 . S
C193 C192 1.379 . S
C193 C194 1.390 . S
C193 H220 0.949 . S
C194 C193 1.390 . S
C194 C195 1.357 . S
C195 C194 1.357 . S
C195 C196 1.370 . S
C195 H221 0.950 . S
C196 N191 1.307 . S
C196 C195 1.370 . S
C196 H214 0.948 . S
Zn197 N191 2.020 . S
Zn197 O206 2.039 . S
Zn197 O212 2.034 1_655 S
Zn197 O216 2.025 1_655 S
Zn197 O218 2.024 . S
C198 O217 1.246 . S
C198 O218 1.249 1_556 S
N199 C200 1.307 . S
N199 C201 1.333 . S
N199 Zn205 2.020 . S
C200 N199 1.307 . S
C200 C204 1.370 . S
C200 H211 0.948 . S
C201 N199 1.333 . S
C201 C202 1.379 . S
C201 H209 0.952 . S
C202 C201 1.379 . S
C202 C203 1.390 . S
C202 H222 0.949 . S
C203 C202 1.390 . S
C203 C204 1.357 . S
C204 C200 1.370 . S
C204 C203 1.357 . S
C204 H223 0.950 . S
Zn205 N199 2.020 . S
Zn205 O208 2.025 . S
Zn205 O213 2.024 . S
Zn205 O215 2.039 . S
Zn205 O217 2.034 1_455 S
O206 C190 1.251 1_554 S
O206 Zn197 2.039 . S
C207 O212 1.246 . S
C207 O213 1.249 1_554 S
O208 C190 1.254 1_455 S
O208 Zn205 2.025 . S
H209 C201 0.952 . S
H210 C192 0.952 . S
H211 C200 0.948 . S
O212 Zn197 2.034 1_455 S
O212 C207 1.246 . S
O213 Zn205 2.024 . S
O213 C207 1.249 1_556 S
H214 C196 0.948 . S
O215 Zn205 2.039 . S
O215 C219 1.251 1_556 S
O216 Zn197 2.025 1_455 S
O216 C219 1.254 . S
O217 C198 1.246 . S
O217 Zn205 2.034 1_655 S
O218 Zn197 2.024 . S
O218 C198 1.249 1_554 S
C219 O215 1.251 1_554 S
C219 O216 1.254 . S
H220 C193 0.949 . S
H221 C195 0.950 . S
H222 C202 0.949 . S
H223 C204 0.950 . S
C224 C225 1.363 . S
C224 C230 1.379 . S
C224 N232 1.356 . S
C225 C224 1.363 . S
C225 C231 1.363 . S
C226 C227 1.363 . S
C226 C231 1.379 . S
C226 N233 1.356 . S
C227 C226 1.363 . S
C227 C230 1.363 . S
N228 C230 1.356 . S
N228 H240 0.984 . S
N228 H241 0.985 . S
N229 C231 1.356 . S
N229 H234 0.984 . S
N229 H235 0.985 . S
C230 C224 1.379 . S
C230 C227 1.363 . S
C230 N228 1.356 . S
C231 C225 1.363 . S
C231 C226 1.379 . S
C231 N229 1.356 . S
N232 C224 1.356 . S
N232 H238 0.984 . S
N232 H239 0.984 . S
N233 C226 1.356 . S
N233 H236 0.984 . S
N233 H237 0.985 1_545 S
H234 N229 0.984 . S
H235 N229 0.985 . S
H236 N233 0.984 . S
H237 N233 0.985 1_565 S
H238 N232 0.984 . S
H239 N232 0.984 . S
H240 N228 0.984 . S
H241 N228 0.985 . S
C242 C243 1.363 . S
C242 C248 1.379 . S
C242 N250 1.356 . S
C243 C242 1.363 . S
C243 C249 1.363 1_565 S
C244 C245 1.363 1_545 S
C244 C249 1.379 . S
C244 N251 1.356 . S
C245 C244 1.363 1_565 S
C245 C248 1.363 . S
N246 C248 1.356 . S
N246 H258 0.984 . S
N246 H259 0.985 . S
N247 C249 1.356 . S
N247 H252 0.984 . S
N247 H253 0.985 . S
C248 C242 1.379 . S
C248 C245 1.363 . S
C248 N246 1.356 . S
C249 C243 1.363 1_545 S
C249 C244 1.379 . S
C249 N247 1.356 . S
N250 C242 1.356 . S
N250 H256 0.984 . S
N250 H257 0.984 . S
N251 C244 1.356 . S
N251 H254 0.984 . S
N251 H255 0.985 . S
H252 N247 0.984 . S
H253 N247 0.985 . S
H254 N251 0.984 . S
H255 N251 0.985 . S
H256 N250 0.984 . S
H257 N250 0.984 . S
H258 N246 0.984 . S
H259 N246 0.985 . S
C260 C261 1.363 . S
C260 C266 1.379 . S
C260 N268 1.356 . S
C261 C260 1.363 . S
C261 C267 1.363 . S
C262 C263 1.363 . S
C262 C267 1.379 . S
C262 N269 1.356 . S
C263 C262 1.363 . S
C263 C266 1.363 . S
N264 C266 1.356 . S
N264 H276 0.984 . S
N264 H277 0.985 . S
N265 C267 1.356 . S
N265 H270 0.984 . S
N265 H271 0.985 . S
C266 C260 1.379 . S
C266 C263 1.363 . S
C266 N264 1.356 . S
C267 C261 1.363 . S
C267 C262 1.379 . S
C267 N265 1.356 . S
N268 C260 1.356 . S
N268 H274 0.984 . S
N268 H275 0.984 . S
N269 C262 1.356 . S
N269 H272 0.984 . S
N269 H273 0.985 . S
H270 N265 0.984 . S
H271 N265 0.985 . S
H272 N269 0.984 . S
H273 N269 0.985 . S
H274 N268 0.984 . S
H275 N268 0.984 . S
H276 N264 0.984 . S
H277 N264 0.985 . S
C278 C279 1.363 . S
C278 C284 1.379 . S
C278 N286 1.356 . S
C279 C278 1.363 . S
C279 C285 1.363 . S
C280 C281 1.363 . S
C280 C285 1.379 . S
C280 N287 1.356 . S
C281 C280 1.363 . S
C281 C284 1.363 . S
N282 C284 1.356 . S
N282 H294 0.984 . S
N282 H295 0.985 . S
N283 C285 1.356 . S
N283 H288 0.984 . S
N283 H289 0.985 . S
C284 C278 1.379 . S
C284 C281 1.363 . S
C284 N282 1.356 . S
C285 C279 1.363 . S
C285 C280 1.379 . S
C285 N283 1.356 . S
N286 C278 1.356 . S
N286 H292 0.984 . S
N286 H293 0.984 . S
N287 C280 1.356 . S
N287 H290 0.984 . S
N287 H291 0.985 . S
H288 N283 0.984 . S
H289 N283 0.985 . S
H290 N287 0.984 . S
H291 N287 0.985 . S
H292 N286 0.984 . S
H293 N286 0.984 . S
H294 N282 0.984 . S
H295 N282 0.985 . S
C296 C297 1.363 . S
C296 C302 1.379 . S
C296 N304 1.356 . S
C297 C296 1.363 . S
C297 C303 1.363 . S
C298 C299 1.363 . S
C298 C303 1.379 . S
C298 N305 1.356 . S
C299 C298 1.363 . S
C299 C302 1.363 . S
N300 C302 1.356 . S
N300 H312 0.984 1_554 S
N300 H313 0.985 . S
N301 C303 1.356 . S
N301 H306 0.984 . S
N301 H307 0.985 . S
C302 C296 1.379 . S
C302 C299 1.363 . S
C302 N300 1.356 . S
C303 C297 1.363 . S
C303 C298 1.379 . S
C303 N301 1.356 . S
N304 C296 1.356 . S
N304 H310 0.984 . S
N304 H311 0.984 . S
N305 C298 1.356 . S
N305 H308 0.984 . S
N305 H309 0.985 . S
H306 N301 0.984 . S
H307 N301 0.985 . S
H308 N305 0.984 . S
H309 N305 0.985 . S
H310 N304 0.984 . S
H311 N304 0.984 . S
H312 N300 0.984 1_556 S
H313 N300 0.985 . S
C314 C315 1.363 . S
C314 C320 1.379 . S
C314 N322 1.356 . S
C315 C314 1.363 . S
C315 C321 1.363 . S
C316 C317 1.363 1_545 S
C316 C321 1.379 1_545 S
C316 N323 1.356 . S
C317 C316 1.363 1_565 S
C317 C320 1.363 . S
N318 C320 1.356 . S
N318 H330 0.984 . S
N318 H331 0.985 . S
N319 C321 1.356 1_545 S
N319 H324 0.984 1_545 S
N319 H325 0.985 . S
C320 C314 1.379 . S
C320 C317 1.363 . S
C320 N318 1.356 . S
C321 C315 1.363 . S
C321 C316 1.379 1_565 S
C321 N319 1.356 1_565 S
N322 C314 1.356 . S
N322 H328 0.984 . S
N322 H329 0.984 . S
N323 C316 1.356 . S
N323 H326 0.984 . S
N323 H327 0.985 . S
H324 N319 0.984 1_565 S
H325 N319 0.985 . S
H326 N323 0.984 . S
H327 N323 0.985 . S
H328 N322 0.984 . S
H329 N322 0.984 . S
H330 N318 0.984 . S
H331 N318 0.985 . S
C332 C333 1.363 . S
C332 C338 1.379 . S
C332 N340 1.356 1_556 S
C333 C332 1.363 . S
C333 C339 1.363 . S
C334 C335 1.363 . S
C334 C339 1.379 . S
C334 N341 1.356 . S
C335 C334 1.363 . S
C335 C338 1.363 . S
N336 C338 1.356 1_554 S
N336 H348 0.984 . S
N336 H349 0.985 . S
N337 C339 1.356 . S
N337 H342 0.984 . S
N337 H343 0.985 . S
C338 C332 1.379 . S
C338 C335 1.363 . S
C338 N336 1.356 1_556 S
C339 C333 1.363 . S
C339 C334 1.379 . S
C339 N337 1.356 . S
N340 C332 1.356 1_554 S
N340 H346 0.984 . S
N340 H347 0.984 . S
N341 C334 1.356 . S
N341 H344 0.984 . S
N341 H345 0.985 . S
H342 N337 0.984 . S
H343 N337 0.985 . S
H344 N341 0.984 . S
H345 N341 0.985 . S
H346 N340 0.984 . S
H347 N340 0.984 . S
H348 N336 0.984 . S
H349 N336 0.985 . S
C350 C351 1.363 . S
C350 C356 1.379 . S
C350 N358 1.356 . S
C351 C350 1.363 . S
C351 C357 1.363 . S
C352 C353 1.363 . S
C352 C357 1.379 . S
C352 N359 1.356 . S
C353 C352 1.363 . S
C353 C356 1.363 . S
N354 C356 1.356 . S
N354 H366 0.984 . S
N354 H367 0.985 . S
N355 C357 1.356 . S
N355 H360 0.984 . S
N355 H361 0.985 . S
C356 C350 1.379 . S
C356 C353 1.363 . S
C356 N354 1.356 . S
C357 C351 1.363 . S
C357 C352 1.379 . S
C357 N355 1.356 . S
N358 C350 1.356 . S
N358 H364 0.984 . S
N358 H365 0.984 . S
N359 C352 1.356 . S
N359 H362 0.984 . S
N359 H363 0.985 . S
H360 N355 0.984 . S
H361 N355 0.985 . S
H362 N359 0.984 . S
H363 N359 0.985 . S
H364 N358 0.984 . S
H365 N358 0.984 . S
H366 N354 0.984 . S
H367 N354 0.985 . S
C368 C369 1.363 . S
C368 C374 1.379 . S
C368 N376 1.356 . S
C369 C368 1.363 . S
C369 C375 1.363 . S
C370 C371 1.363 . S
C370 C375 1.379 . S
C370 N377 1.356 1_554 S
C371 C370 1.363 . S
C371 C374 1.363 . S
N372 C374 1.356 . S
N372 H384 0.984 1_455 S
N372 H385 0.985 . S
N373 C375 1.356 . S
N373 H378 0.984 . S
N373 H379 0.985 1_554 S
C374 C368 1.379 . S
C374 C371 1.363 . S
C374 N372 1.356 . S
C375 C369 1.363 . S
C375 C370 1.379 . S
C375 N373 1.356 . S
N376 C368 1.356 . S
N376 H382 0.984 . S
N376 H383 0.984 . S
N377 C370 1.356 1_556 S
N377 H380 0.984 . S
N377 H381 0.985 . S
H378 N373 0.984 . S
H379 N373 0.985 1_556 S
H380 N377 0.984 . S
H381 N377 0.985 . S
H382 N376 0.984 . S
H383 N376 0.984 . S
H384 N372 0.984 1_655 S
H385 N372 0.985 . S
C386 C387 1.363 . S
C386 C392 1.379 . S
C386 N394 1.356 . S
C387 C386 1.363 . S
C387 C393 1.372 . S
C388 C389 1.363 . S
C388 C393 1.380 . S
C388 N395 1.356 1_556 S
C389 C388 1.363 . S
C389 C392 1.363 . S
N390 C392 1.356 . S
N390 H402 0.984 . S
N390 H403 0.985 . S
N391 C393 1.348 1_554 S
N391 H396 0.984 . S
N391 H397 0.985 . S
C392 C386 1.379 . S
C392 C389 1.363 . S
C392 N390 1.356 . S
C393 C387 1.372 . S
C393 C388 1.380 . S
C393 N391 1.348 1_556 S
N394 C386 1.356 . S
N394 H400 0.984 . S
N394 H401 0.984 . S
N395 C388 1.356 1_554 S
N395 H398 0.984 . S
N395 H399 0.985 . S
H396 N391 0.984 . S
H397 N391 0.985 . S
H398 N395 0.984 . S
H399 N395 0.985 . S
H400 N394 0.984 . S
H401 N394 0.984 . S
H402 N390 0.984 . S
H403 N390 0.985 . S
C404 C405 1.363 . S
C404 C410 1.379 . S
C404 N412 1.356 . S
C405 C404 1.363 . S
C405 C411 1.363 . S
C406 C407 1.363 . S
C406 C411 1.379 . S
C406 N413 1.356 . S
C407 C406 1.363 . S
C407 C410 1.363 . S
N408 C410 1.356 . S
N408 H420 0.984 . S
N408 H421 0.985 . S
N409 C411 1.356 . S
N409 H414 0.984 . S
N409 H415 0.985 . S
C410 C404 1.379 . S
C410 C407 1.363 . S
C410 N408 1.356 . S
C411 C405 1.363 . S
C411 C406 1.379 . S
C411 N409 1.356 . S
N412 C404 1.356 . S
N412 H418 0.984 . S
N412 H419 0.984 . S
N413 C406 1.356 . S
N413 H416 0.984 . S
N413 H417 0.985 . S
H414 N409 0.984 . S
H415 N409 0.985 . S
H416 N413 0.984 . S
H417 N413 0.985 . S
H418 N412 0.984 . S
H419 N412 0.984 . S
H420 N408 0.984 . S
H421 N408 0.985 . S
C422 C423 1.363 . S
C422 C428 1.379 . S
C422 N430 1.356 . S
C423 C422 1.363 . S
C423 C429 1.363 . S
C424 C425 1.363 . S
C424 C429 1.379 . S
C424 N431 1.356 . S
C425 C424 1.363 . S
C425 C428 1.363 . S
N426 C428 1.356 . S
N426 H438 0.984 . S
N426 H439 0.985 . S
N427 C429 1.356 . S
N427 H432 0.984 . S
N427 H433 0.985 . S
C428 C422 1.379 . S
C428 C425 1.363 . S
C428 N426 1.356 . S
C429 C423 1.363 . S
C429 C424 1.379 . S
C429 N427 1.356 . S
N430 C422 1.356 . S
N430 H436 0.984 . S
N430 H437 0.984 . S
N431 C424 1.356 . S
N431 H434 0.984 . S
N431 H435 0.985 . S
H432 N427 0.984 . S
H433 N427 0.985 . S
H434 N431 0.984 . S
H435 N431 0.985 . S
H436 N430 0.984 . S
H437 N430 0.984 . S
H438 N426 0.984 . S
H439 N426 0.985 . S
C440 C441 1.363 . S
C440 C446 1.379 1_565 S
C440 N448 1.356 1_565 S
C441 C440 1.363 . S
C441 C447 1.363 . S
C442 C443 1.363 . S
C442 C447 1.379 . S
C442 N449 1.356 1_655 S
C443 C442 1.363 . S
C443 C446 1.363 1_565 S
N444 C446 1.356 . S
N444 H456 0.984 . S
N444 H457 0.985 . S
N445 C447 1.356 . S
N445 H450 0.984 . S
N445 H451 0.985 1_655 S
C446 C440 1.379 1_545 S
C446 C443 1.363 1_545 S
C446 N444 1.356 . S
C447 C441 1.363 . S
C447 C442 1.379 . S
C447 N445 1.356 . S
N448 C440 1.356 1_545 S
N448 H454 0.984 . S
N448 H455 0.984 1_545 S
N449 C442 1.356 1_455 S
N449 H452 0.984 . S
N449 H453 0.985 . S
H450 N445 0.984 . S
H451 N445 0.985 1_455 S
H452 N449 0.984 . S
H453 N449 0.985 . S
H454 N448 0.984 . S
H455 N448 0.984 1_565 S
H456 N444 0.984 . S
H457 N444 0.985 . S
C458 C459 1.363 . S
C458 C464 1.379 . S
C458 N466 1.356 . S
C459 C458 1.363 . S
C459 C465 1.363 . S
C460 C461 1.363 . S
C460 C465 1.379 . S
C460 N467 1.356 . S
C461 C460 1.363 . S
C461 C464 1.363 . S
N462 C464 1.356 . S
N462 H474 0.984 . S
N462 H475 0.985 . S
N463 C465 1.356 . S
N463 H468 0.984 . S
N463 H469 0.985 . S
C464 C458 1.379 . S
C464 C461 1.363 . S
C464 N462 1.356 . S
C465 C459 1.363 . S
C465 C460 1.379 . S
C465 N463 1.356 . S
N466 C458 1.356 . S
N466 H472 0.984 . S
N466 H473 0.984 . S
N467 C460 1.356 . S
N467 H470 0.984 . S
N467 H471 0.985 1_545 S
H468 N463 0.984 . S
H469 N463 0.985 . S
H470 N467 0.984 . S
H471 N467 0.985 1_565 S
H472 N466 0.984 . S
H473 N466 0.984 . S
H474 N462 0.984 . S
H475 N462 0.985 . S
C476 C477 1.363 . S
C476 C482 1.379 . S
C476 N484 1.356 . S
C477 C476 1.363 . S
C477 C483 1.363 . S
C478 C479 1.363 . S
C478 C483 1.379 . S
C478 N485 1.356 . S
C479 C478 1.363 . S
C479 C482 1.363 . S
N480 C482 1.356 . S
N480 H492 0.984 . S
N480 H493 0.985 . S
N481 C483 1.356 . S
N481 H486 0.984 . S
N481 H487 0.985 . S
C482 C476 1.379 . S
C482 C479 1.363 . S
C482 N480 1.356 . S
C483 C477 1.363 . S
C483 C478 1.379 . S
C483 N481 1.356 . S
N484 C476 1.356 . S
N484 H490 0.984 . S
N484 H491 0.984 . S
N485 C478 1.356 . S
N485 H488 0.984 . S
N485 H489 0.985 . S
H486 N481 0.984 . S
H487 N481 0.985 . S
H488 N485 0.984 . S
H489 N485 0.985 . S
H490 N484 0.984 . S
H491 N484 0.984 . S
H492 N480 0.984 . S
H493 N480 0.985 . S
C494 C495 1.363 . S
C494 C500 1.379 . S
C494 N502 1.356 . S
C495 C494 1.363 . S
C495 C501 1.363 . S
C496 C497 1.363 . S
C496 C501 1.379 . S
C496 N503 1.356 . S
C497 C496 1.363 . S
C497 C500 1.363 . S
N498 C500 1.356 . S
N498 H510 0.984 . S
N498 H511 0.985 . S
N499 C501 1.356 . S
N499 H504 0.984 . S
N499 H505 0.985 . S
C500 C494 1.379 . S
C500 C497 1.363 . S
C500 N498 1.356 . S
C501 C495 1.363 . S
C501 C496 1.379 . S
C501 N499 1.356 . S
N502 C494 1.356 . S
N502 H508 0.984 . S
N502 H509 0.984 . S
N503 C496 1.356 . S
N503 H506 0.984 . S
N503 H507 0.985 . S
H504 N499 0.984 . S
H505 N499 0.985 . S
H506 N503 0.984 . S
H507 N503 0.985 . S
H508 N502 0.984 . S
H509 N502 0.984 . S
H510 N498 0.984 . S
H511 N498 0.985 . S
C512 C513 1.363 1_545 S
C512 C518 1.379 . S
C512 N520 1.356 . S
C513 C512 1.363 1_565 S
C513 C519 1.363 . S
C514 C515 1.363 . S
C514 C519 1.379 . S
C514 N521 1.356 . S
C515 C514 1.363 . S
C515 C518 1.363 1_565 S
N516 C518 1.356 1_554 S
N516 H528 0.984 . S
N516 H529 0.985 . S
N517 C519 1.356 . S
N517 H522 0.984 . S
N517 H523 0.985 . S
C518 C512 1.379 . S
C518 C515 1.363 1_545 S
C518 N516 1.356 1_556 S
C519 C513 1.363 . S
C519 C514 1.379 . S
C519 N517 1.356 . S
N520 C512 1.356 . S
N520 H526 0.984 . S
N520 H527 0.984 . S
N521 C514 1.356 . S
N521 H524 0.984 . S
N521 H525 0.985 . S
H522 N517 0.984 . S
H523 N517 0.985 . S
H524 N521 0.984 . S
H525 N521 0.985 . S
H526 N520 0.984 . S
H527 N520 0.984 . S
H528 N516 0.984 . S
H529 N516 0.985 . S
C530 C531 1.363 . S
C530 C536 1.379 . S
C530 N538 1.356 . S
C531 C530 1.363 . S
C531 C537 1.363 . S
C532 C533 1.363 . S
C532 C537 1.379 . S
C532 N539 1.356 . S
C533 C532 1.363 . S
C533 C536 1.363 . S
N534 C536 1.356 . S
N534 H546 0.984 . S
N534 H547 0.985 . S
N535 C537 1.356 . S
N535 H540 0.984 . S
N535 H541 0.985 . S
C536 C530 1.379 . S
C536 C533 1.363 . S
C536 N534 1.356 . S
C537 C531 1.363 . S
C537 C532 1.379 . S
C537 N535 1.356 . S
N538 C530 1.356 . S
N538 H544 0.984 . S
N538 H545 0.984 . S
N539 C532 1.356 . S
N539 H542 0.984 . S
N539 H543 0.985 1_545 S
H540 N535 0.984 . S
H541 N535 0.985 . S
H542 N539 0.984 . S
H543 N539 0.985 1_565 S
H544 N538 0.984 . S
H545 N538 0.984 . S
H546 N534 0.984 . S
H547 N534 0.985 . S
C548 C549 1.363 . S
C548 C554 1.379 . S
C548 N556 1.356 . S
C549 C548 1.363 . S
C549 C555 1.363 . S
C550 C551 1.363 . S
C550 C555 1.379 . S
C550 N557 1.356 . S
C551 C550 1.363 . S
C551 C554 1.363 . S
N552 C554 1.356 . S
N552 H564 0.984 . S
N552 H565 0.985 . S
N553 C555 1.356 . S
N553 H558 0.984 . S
N553 H559 0.985 . S
C554 C548 1.379 . S
C554 C551 1.363 . S
C554 N552 1.356 . S
C555 C549 1.363 . S
C555 C550 1.379 . S
C555 N553 1.356 . S
N556 C548 1.356 . S
N556 H562 0.984 . S
N556 H563 0.984 . S
N557 C550 1.356 . S
N557 H560 0.984 . S
N557 H561 0.985 . S
H558 N553 0.984 . S
H559 N553 0.985 . S
H560 N557 0.984 . S
H561 N557 0.985 . S
H562 N556 0.984 . S
H563 N556 0.984 . S
H564 N552 0.984 . S
H565 N552 0.985 . S
C566 C567 1.363 . S
C566 C572 1.379 . S
C566 N574 1.356 . S
C567 C566 1.363 . S
C567 C573 1.363 . S
C568 C569 1.363 . S
C568 C573 1.379 . S
C568 N575 1.356 . S
C569 C568 1.363 . S
C569 C572 1.363 . S
N570 C572 1.356 . S
N570 H582 0.984 . S
N570 H583 0.985 . S
N571 C573 1.356 . S
N571 H576 0.984 . S
N571 H577 0.985 . S
C572 C566 1.379 . S
C572 C569 1.363 . S
C572 N570 1.356 . S
C573 C567 1.363 . S
C573 C568 1.379 . S
C573 N571 1.356 . S
N574 C566 1.356 . S
N574 H580 0.984 . S
N574 H581 0.984 . S
N575 C568 1.356 . S
N575 H578 0.984 . S
N575 H579 0.985 . S
H576 N571 0.984 . S
H577 N571 0.985 . S
H578 N575 0.984 . S
H579 N575 0.985 . S
H580 N574 0.984 . S
H581 N574 0.984 . S
H582 N570 0.984 . S
H583 N570 0.985 . S
C584 C585 1.363 . S
C584 C590 1.379 . S
C584 N592 1.356 . S
C585 C584 1.363 . S
C585 C591 1.363 . S
C586 C587 1.376 . S
C586 C591 1.384 . S
C586 N593 1.340 1_655 S
C587 C586 1.376 . S
C587 C590 1.363 . S
N588 C590 1.356 . S
N588 H600 0.984 . S
N588 H601 0.985 . S
N589 C591 1.356 1_455 S
N589 H594 0.984 1_455 S
N589 H595 0.985 . S
C590 C584 1.379 . S
C590 C587 1.363 . S
C590 N588 1.356 . S
C591 C585 1.363 . S
C591 C586 1.384 . S
C591 N589 1.356 1_655 S
N592 C584 1.356 . S
N592 H598 0.984 . S
N592 H599 0.984 . S
N593 C586 1.340 1_455 S
N593 H596 0.984 . S
N593 H597 0.985 . S
H594 N589 0.984 1_655 S
H595 N589 0.985 . S
H596 N593 0.984 . S
H597 N593 0.985 . S
H598 N592 0.984 . S
H599 N592 0.984 . S
H600 N588 0.984 . S
H601 N588 0.985 . S
C602 C603 1.363 . S
C602 C608 1.379 . S
C602 N610 1.356 . S
C603 C602 1.363 . S
C603 C609 1.363 . S
C604 C605 1.363 . S
C604 C609 1.379 . S
C604 N611 1.356 . S
C605 C604 1.363 . S
C605 C608 1.363 . S
N606 C608 1.356 . S
N606 H618 0.984 . S
N606 H619 0.985 . S
N607 C609 1.356 . S
N607 H612 0.984 . S
N607 H613 0.985 1_554 S
C608 C602 1.379 . S
C608 C605 1.363 . S
C608 N606 1.356 . S
C609 C603 1.363 . S
C609 C604 1.379 . S
C609 N607 1.356 . S
N610 C602 1.356 . S
N610 H616 0.984 . S
N610 H617 0.984 . S
N611 C604 1.356 . S
N611 H614 0.984 . S
N611 H615 0.985 . S
H612 N607 0.984 . S
H613 N607 0.985 1_556 S
H614 N611 0.984 . S
H615 N611 0.985 . S
H616 N610 0.984 . S
H617 N610 0.984 . S
H618 N606 0.984 . S
H619 N606 0.985 . S
C620 C621 1.363 . S
C620 C626 1.379 . S
C620 N628 1.356 . S
C621 C620 1.363 . S
C621 C627 1.363 . S
C622 C623 1.363 . S
C622 C627 1.379 . S
C622 N629 1.356 . S
C623 C622 1.363 . S
C623 C626 1.363 . S
N624 C626 1.356 . S
N624 H636 0.984 . S
N624 H637 0.985 . S
N625 C627 1.356 . S
N625 H630 0.984 . S
N625 H631 0.985 . S
C626 C620 1.379 . S
C626 C623 1.363 . S
C626 N624 1.356 . S
C627 C621 1.363 . S
C627 C622 1.379 . S
C627 N625 1.356 . S
N628 C620 1.356 . S
N628 H634 0.984 . S
N628 H635 0.984 . S
N629 C622 1.356 . S
N629 H632 0.984 . S
N629 H633 0.985 . S
H630 N625 0.984 . S
H631 N625 0.985 . S
H632 N629 0.984 . S
H633 N629 0.985 . S
H634 N628 0.984 . S
H635 N628 0.984 . S
H636 N624 0.984 . S
H637 N624 0.985 . S
C638 C639 1.363 . S
C638 C644 1.379 . S
C638 N646 1.356 . S
C639 C638 1.363 . S
C639 C645 1.363 . S
C640 C641 1.363 . S
C640 C645 1.379 . S
C640 N647 1.356 . S
C641 C640 1.363 . S
C641 C644 1.363 . S
N642 C644 1.356 . S
N642 H654 0.984 . S
N642 H655 0.985 . S
N643 C645 1.356 . S
N643 H648 0.984 . S
N643 H649 0.985 . S
C644 C638 1.379 . S
C644 C641 1.363 . S
C644 N642 1.356 . S
C645 C639 1.363 . S
C645 C640 1.379 . S
C645 N643 1.356 . S
N646 C638 1.356 . S
N646 H652 0.984 . S
N646 H653 0.984 . S
N647 C640 1.356 . S
N647 H650 0.984 . S
N647 H651 0.985 . S
H648 N643 0.984 . S
H649 N643 0.985 . S
H650 N647 0.984 . S
H651 N647 0.985 . S
H652 N646 0.984 . S
H653 N646 0.984 . S
H654 N642 0.984 . S
H655 N642 0.985 . S
C225 C4 2.499 . S
C227 C88 2.506 . S
C243 C16 2.591 . S
C245 C130 2.598 1_565 S
C263 C160 0.813 . S
C261 C32 0.813 . S
C279 C43 1.002 . S
C281 C194 1.023 . S
C299 C151 2.189 . S
C297 C5 2.181 . S
C317 C105 1.696 1_565 S
C315 C21 1.683 . S
C335 C198 1.163 . S
C333 C27 1.153 . S
C353 C164 1.179 . S
C351 C37 1.162 . S
C369 C10 2.183 . S
C371 C219 2.205 . S
C389 C126 1.266 . S
C387 C26 1.235 . S
C405 C38 1.062 . S
C407 C101 1.073 . S
C423 C15 2.351 . S
C425 C185 2.364 . S
C443 C117 2.603 1_565 S
C441 C48 2.594 . S
C459 C59 2.392 . S
C461 C139 2.413 . S
C477 C76 1.004 . S
C479 C169 1.007 . S
C495 C87 0.879 . S
C497 C203 0.884 . S
C513 C54 1.694 . S
C515 C122 1.716 1_565 S
C533 C96 2.148 . S
C531 C60 2.132 . S
C551 C207 1.083 . S
C549 C71 1.058 . S
C569 C173 1.187 . S
C567 C82 1.176 . S
C585 C49 2.473 . S
C587 C190 2.471 . S
C605 C135 1.046 . S
C603 C70 1.035 . S
C623 C92 1.230 . S
C621 C81 1.200 . S
C639 C65 2.145 . S
C641 C156 2.157 . S
