# Generated by pormake.
# Topology hwx, (6,3)-cn, num edge types: 1
# Building blocks:
#     Node 0, Type 0, BuildingBlock: OJICUG_clean_sbu_0, # of connection points: 6
#     Node 1, Type 0, BuildingBlock: OJICUG_clean_sbu_0, # of connection points: 6
#     Node 2, Type 0, BuildingBlock: OJICUG_clean_sbu_0, # of connection points: 6
#     Node 3, Type 0, BuildingBlock: OJICUG_clean_sbu_0, # of connection points: 6
#     Node 4, Type 1, BuildingBlock: VETTIZ_charged_linker_0, # of connection points: 3
#     Node 5, Type 1, BuildingBlock: VETTIZ_charged_linker_0, # of connection points: 3
#     Node 6, Type 1, BuildingBlock: VETTIZ_charged_linker_0, # of connection points: 3
#     Node 7, Type 1, BuildingBlock: VETTIZ_charged_linker_0, # of connection points: 3
#     Node 8, Type 1, BuildingBlock: VETTIZ_charged_linker_0, # of connection points: 3
#     Node 9, Type 1, BuildingBlock: VETTIZ_charged_linker_0, # of connection points: 3
#     Node 10, Type 1, BuildingBlock: VETTIZ_charged_linker_0, # of connection points: 3
#     Node 11, Type 1, BuildingBlock: VETTIZ_charged_linker_0, # of connection points: 3
#     Edge 12, Type (0, 1), BuildingBlock: ZUJKAS_clean_linker_0, # of connection points: 2
#     Edge 13, Type (0, 1), BuildingBlock: ZUJKAS_clean_linker_0, # of connection points: 2
#     Edge 14, Type (0, 1), BuildingBlock: ZUJKAS_clean_linker_0, # of connection points: 2
#     Edge 15, Type (0, 1), BuildingBlock: ZUJKAS_clean_linker_0, # of connection points: 2
#     Edge 16, Type (0, 1), BuildingBlock: ZUJKAS_clean_linker_0, # of connection points: 2
#     Edge 17, Type (0, 1), BuildingBlock: ZUJKAS_clean_linker_0, # of connection points: 2
#     Edge 18, Type (0, 1), BuildingBlock: ZUJKAS_clean_linker_0, # of connection points: 2
#     Edge 19, Type (0, 1), BuildingBlock: ZUJKAS_clean_linker_0, # of connection points: 2
#     Edge 20, Type (0, 1), BuildingBlock: ZUJKAS_clean_linker_0, # of connection points: 2
#     Edge 21, Type (0, 1), BuildingBlock: ZUJKAS_clean_linker_0, # of connection points: 2
#     Edge 22, Type (0, 1), BuildingBlock: ZUJKAS_clean_linker_0, # of connection points: 2
#     Edge 23, Type (0, 1), BuildingBlock: ZUJKAS_clean_linker_0, # of connection points: 2
#     Edge 24, Type (0, 1), BuildingBlock: ZUJKAS_clean_linker_0, # of connection points: 2
#     Edge 25, Type (0, 1), BuildingBlock: ZUJKAS_clean_linker_0, # of connection points: 2
#     Edge 26, Type (0, 1), BuildingBlock: ZUJKAS_clean_linker_0, # of connection points: 2
#     Edge 27, Type (0, 1), BuildingBlock: ZUJKAS_clean_linker_0, # of connection points: 2
#     Edge 28, Type (0, 1), BuildingBlock: ZUJKAS_clean_linker_0, # of connection points: 2
#     Edge 29, Type (0, 1), BuildingBlock: ZUJKAS_clean_linker_0, # of connection points: 2
#     Edge 30, Type (0, 1), BuildingBlock: ZUJKAS_clean_linker_0, # of connection points: 2
#     Edge 31, Type (0, 1), BuildingBlock: ZUJKAS_clean_linker_0, # of connection points: 2
#     Edge 32, Type (0, 1), BuildingBlock: ZUJKAS_clean_linker_0, # of connection points: 2
#     Edge 33, Type (0, 1), BuildingBlock: ZUJKAS_clean_linker_0, # of connection points: 2
#     Edge 34, Type (0, 1), BuildingBlock: ZUJKAS_clean_linker_0, # of connection points: 2
#     Edge 35, Type (0, 1), BuildingBlock: ZUJKAS_clean_linker_0, # of connection points: 2
# Relax obj value: 0.080
# Max RMSD: 0.104
# Mean RMSD: 0.097
data_MOF--net-hwx--node1-OJICUG_clean_sbu_0--node2-VETTIZ_charged_linker_0--edge1-ZUJKAS_clean_linker_0
_symmetry_space_group_name_H-M    P1
_symmetry_Int_Tables_number       1
_symmetry_cell_setting            triclinic
loop_
_symmetry_equiv_pos_as_xyz
'x, y, z'
_cell_length_a     75.021869
_cell_length_b     75.007458
_cell_length_c     34.151067
_cell_angle_alpha  90.02834
_cell_angle_beta   89.974964
_cell_angle_gamma 90.004806
loop_
_atom_site_label
_atom_site_type_symbol
_atom_site_fract_x
_atom_site_fract_y
_atom_site_fract_z
_atom_type_partial_charge
Sc0 Sc 0.21943 0.22078 0.04256 0.0
Sc1 Sc 0.19013 0.19067 0.99605 0.0
Sc2 Sc 0.21842 0.21834 0.93986 0.0
O3 O 0.20932 0.20991 0.99282 0.0
C4 C 0.21667 0.25494 0.98711 0.0
C5 C 0.17817 0.21769 0.06363 0.0
C6 C 0.17652 0.21459 0.92483 0.0
C7 C 0.21591 0.1796 0.06602 0.0
C8 C 0.25431 0.21662 0.9901 0.0
C9 C 0.21457 0.17643 0.92587 0.0
O10 O 0.21803 0.24762 0.02052 0.0
O11 O 0.17509 0.20487 0.04018 0.0
O12 O 0.1919 0.22062 0.91657 0.0
O13 O 0.22206 0.19525 0.07059 0.0
O14 O 0.24599 0.21701 0.95765 0.0
O15 O 0.20296 0.17411 0.95255 0.0
O16 O 0.24647 0.21772 0.023 0.0
O17 O 0.20442 0.17575 0.03996 0.0
O18 O 0.2213 0.19159 0.91828 0.0
O19 O 0.19341 0.22492 0.06706 0.0
O20 O 0.21648 0.24609 0.95539 0.0
O21 O 0.17376 0.20366 0.95265 0.0
Sc22 Sc 0.28048 0.71716 0.44198 0.0
Sc23 Sc 0.3082 0.68967 0.4998 0.0
Sc24 Sc 0.27893 0.72025 0.54468 0.0
O25 O 0.28921 0.70901 0.49547 0.0
C26 C 0.28225 0.75404 0.48819 0.0
C27 C 0.32241 0.7128 0.42792 0.0
C28 C 0.32007 0.71717 0.56642 0.0
C29 C 0.28393 0.67515 0.42965 0.0
C30 C 0.24431 0.71613 0.49163 0.0
C31 C 0.282 0.6792 0.56943 0.0
O32 O 0.28268 0.74501 0.4567 0.0
O33 O 0.32491 0.70224 0.45651 0.0
O34 O 0.30486 0.72448 0.56932 0.0
O35 O 0.27739 0.69029 0.42127 0.0
O36 O 0.25197 0.71727 0.5247 0.0
O37 O 0.29349 0.67514 0.54355 0.0
O38 O 0.25281 0.71627 0.45938 0.0
O39 O 0.29539 0.67293 0.45666 0.0
O40 O 0.27603 0.69494 0.57373 0.0
O41 O 0.30713 0.71886 0.41883 0.0
O42 O 0.28057 0.74689 0.52171 0.0
O43 O 0.32317 0.70408 0.54372 0.0
Sc44 Sc 0.77911 0.77906 0.94474 0.0
Sc45 Sc 0.80802 0.80825 0.99525 0.0
Sc46 Sc 0.77908 0.77973 0.04759 0.0
O47 O 0.78876 0.78903 0.99587 0.0
C48 C 0.74369 0.78208 0.99613 0.0
C49 C 0.7826 0.82057 0.92531 0.0
C50 C 0.78296 0.82136 0.0653 0.0
C51 C 0.82066 0.78262 0.92574 0.0
C52 C 0.7816 0.74399 0.99713 0.0
C53 C 0.82069 0.78328 0.06573 0.0
O54 O 0.75182 0.78115 0.96355 0.0
O55 O 0.7943 0.8238 0.95132 0.0
O56 O 0.77633 0.80604 0.07169 0.0
O57 O 0.80529 0.77597 0.92021 0.0
O58 O 0.78091 0.75231 0.02951 0.0
O59 O 0.8238 0.79482 0.03927 0.0
O60 O 0.78098 0.75184 0.9642 0.0
O61 O 0.8237 0.7945 0.95151 0.0
O62 O 0.80527 0.77686 0.07188 0.0
O63 O 0.77617 0.80511 0.91967 0.0
O64 O 0.75173 0.78163 0.02887 0.0
O65 O 0.79453 0.82423 0.0388 0.0
Sc66 Sc 0.71995 0.27985 0.55197 0.0
Sc67 Sc 0.69 0.30765 0.5005 0.0
Sc68 Sc 0.71876 0.27855 0.44929 0.0
O69 O 0.70956 0.28871 0.50059 0.0
C70 C 0.75471 0.28234 0.49822 0.0
C71 C 0.71563 0.32139 0.56903 0.0
C72 C 0.71456 0.32007 0.42949 0.0
C73 C 0.67827 0.28269 0.57146 0.0
C74 C 0.71739 0.24376 0.50295 0.0
C75 C 0.67715 0.28148 0.43219 0.0
O76 O 0.74706 0.28173 0.53142 0.0
O77 O 0.70315 0.32375 0.54436 0.0
O78 O 0.72069 0.30454 0.42304 0.0
O79 O 0.69398 0.27704 0.57805 0.0
O80 O 0.71781 0.25146 0.46983 0.0
O81 O 0.67433 0.294 0.45656 0.0
O82 O 0.71801 0.25227 0.53511 0.0
O83 O 0.67466 0.29367 0.54422 0.0
O84 O 0.69238 0.27449 0.42705 0.0
O85 O 0.72307 0.30639 0.57439 0.0
O86 O 0.74621 0.28139 0.46612 0.0
O87 O 0.70349 0.32341 0.45676 0.0
C88 C 0.22014 0.5461 0.87575 0.0
C89 C 0.22354 0.56455 0.87495 0.0
C90 C 0.22248 0.57432 0.91017 0.0
C91 C 0.21678 0.54722 0.94642 0.0
C92 C 0.21674 0.53775 0.91172 0.0
C93 C 0.21343 0.51818 0.91822 0.0
H94 H 0.20474 0.44928 0.0446 0.0
C95 C 0.21434 0.53448 0.97888 0.0
C96 C 0.21209 0.51746 0.96261 0.0
H97 H 0.20382 0.44788 0.91793 0.0
H98 H 0.2062 0.47987 0.91579 0.0
H99 H 0.23645 0.47643 0.05049 0.0
H100 H 0.1797 0.48494 0.05505 0.0
H101 H 0.18963 0.49785 0.09218 0.0
H102 H 0.1918 0.47391 0.09338 0.0
H103 H 0.22347 0.47076 0.09283 0.0
H104 H 0.23255 0.49281 0.08611 0.0
C105 C 0.22982 0.50775 0.90274 0.0
C106 C 0.19557 0.51318 0.89823 0.0
C107 C 0.2234 0.55568 0.1183 0.0
C108 C 0.22441 0.5468 0.15447 0.0
C109 C 0.22019 0.5285 0.15606 0.0
C110 C 0.21581 0.51906 0.12185 0.0
C111 C 0.21579 0.52799 0.08563 0.0
C112 C 0.21924 0.54607 0.08448 0.0
C113 C 0.21909 0.55338 0.04356 0.0
C114 C 0.21525 0.53665 0.02011 0.0
C115 C 0.21335 0.52181 0.04481 0.0
C116 C 0.2379 0.56101 0.03485 0.0
C117 C 0.20374 0.56716 0.04035 0.0
C118 C 0.20509 0.45584 0.01637 0.0
C119 C 0.20412 0.44595 0.9814 0.0
C120 C 0.20432 0.45512 0.94535 0.0
C121 C 0.20586 0.47373 0.94413 0.0
C122 C 0.20737 0.48333 0.97929 0.0
C123 C 0.20675 0.4744 0.01463 0.0
C124 C 0.20888 0.48677 0.04901 0.0
C125 C 0.21069 0.50461 0.02845 0.0
C126 C 0.20993 0.50248 0.98759 0.0
C127 C 0.22613 0.48147 0.07113 0.0
C128 C 0.19171 0.48583 0.07407 0.0
H129 H 0.21879 0.57394 0.97155 0.0
H130 H 0.22076 0.53819 0.84924 0.0
H131 H 0.18612 0.52461 0.89845 0.0
H132 H 0.18841 0.50239 0.9137 0.0
H133 H 0.19767 0.50923 0.86722 0.0
H134 H 0.24239 0.51485 0.91027 0.0
H135 H 0.22931 0.50636 0.87037 0.0
H136 H 0.23121 0.49439 0.91582 0.0
H137 H 0.22618 0.56982 0.11614 0.0
H138 H 0.22086 0.52133 0.18354 0.0
H139 H 0.21306 0.50509 0.1248 0.0
H140 H 0.24842 0.55225 0.04739 0.0
H141 H 0.23954 0.57447 0.04792 0.0
H142 H 0.24104 0.56179 0.00338 0.0
H143 H 0.19268 0.56393 0.06087 0.0
H144 H 0.19745 0.56722 0.01106 0.0
H145 H 0.20846 0.58082 0.04746 0.0
H146 H 0.2245 0.58862 0.91028 0.0
C147 C 0.21908 0.56578 0.94578 0.0
C148 C 0.04307 0.70726 0.51462 0.0
C149 C 0.05328 0.70647 0.4801 0.0
C150 C 0.04451 0.70634 0.44362 0.0
C151 C 0.01594 0.70885 0.47609 0.0
C152 C 0.02447 0.70846 0.51193 0.0
C153 C 0.01162 0.71016 0.54559 0.0
H154 H 0.92698 0.72364 0.60779 0.0
C155 C 0.99667 0.71103 0.48328 0.0
C156 C 0.994 0.71167 0.52397 0.0
H157 H 0.97442 0.71824 0.67861 0.0
H158 H 0.99207 0.71323 0.62029 0.0
H159 H 0.94425 0.74782 0.54406 0.0
H160 H 0.93577 0.69115 0.5481 0.0
H161 H 0.9312 0.69795 0.49993 0.0
H162 H 0.91796 0.70666 0.53975 0.0
H163 H 0.92263 0.73797 0.53801 0.0
H164 H 0.93741 0.74133 0.49708 0.0
C165 C 0.01621 0.72742 0.56842 0.0
C166 C 0.01268 0.6929 0.57031 0.0
C167 C 0.95466 0.71981 0.3683 0.0
C168 C 0.93622 0.72296 0.36586 0.0
C169 C 0.92594 0.72271 0.40044 0.0
C170 C 0.93395 0.7199 0.43693 0.0
C171 C 0.95248 0.71739 0.43903 0.0
C172 C 0.96246 0.71704 0.40503 0.0
C173 C 0.98194 0.71404 0.41294 0.0
C174 C 0.98204 0.71304 0.45735 0.0
C175 C 0.96478 0.71514 0.47243 0.0
C176 C 0.99233 0.73049 0.3976 0.0
C177 C 0.98745 0.69609 0.39391 0.0
C178 C 0.94112 0.72104 0.61088 0.0
C179 C 0.94931 0.72125 0.64788 0.0
C180 C 0.96783 0.71826 0.6504 0.0
C181 C 0.97803 0.71532 0.61652 0.0
C182 C 0.96965 0.71556 0.57966 0.0
C183 C 0.95146 0.71824 0.57741 0.0
C184 C 0.94482 0.71861 0.53594 0.0
C185 C 0.96201 0.7157 0.51352 0.0
C186 C 0.97653 0.71394 0.5392 0.0
C187 C 0.93672 0.7373 0.52811 0.0
C188 C 0.93163 0.7029 0.5304 0.0
H189 H 0.02009 0.70747 0.41279 0.0
H190 H 0.04942 0.70752 0.54309 0.0
H191 H 0.01434 0.68102 0.55113 0.0
H192 H 0.0004 0.6903 0.58719 0.0
H193 H 0.0242 0.6933 0.59071 0.0
H194 H 0.02077 0.7381 0.54813 0.0
H195 H 0.02705 0.72503 0.58993 0.0
H196 H 0.00463 0.73321 0.58377 0.0
H197 H 0.96288 0.71967 0.34222 0.0
H198 H 0.91173 0.72525 0.39944 0.0
H199 H 0.92544 0.72016 0.46216 0.0
H200 H 0.98482 0.74299 0.40364 0.0
H201 H 0.99443 0.72963 0.36545 0.0
H202 H 0.00534 0.73239 0.412 0.0
H203 H 0.9761 0.68654 0.39337 0.0
H204 H 0.99799 0.68911 0.41054 0.0
H205 H 0.99195 0.69802 0.36322 0.0
H206 H 0.05207 0.70544 0.41665 0.0
C207 C 0.02593 0.70746 0.44144 0.0
C208 C 0.77966 0.45567 0.13176 0.0
C209 C 0.7755 0.43743 0.1346 0.0
C210 C 0.7739 0.42727 0.10004 0.0
C211 C 0.77952 0.45353 0.06081 0.0
C212 C 0.78169 0.46339 0.09466 0.0
C213 C 0.7858 0.48264 0.08619 0.0
H214 H 0.79225 0.54954 0.95442 0.0
C215 C 0.78157 0.46567 0.02713 0.0
C216 C 0.78548 0.4827 0.0417 0.0
H217 H 0.79808 0.55232 0.08025 0.0
H218 H 0.79484 0.52043 0.08483 0.0
H219 H 0.81681 0.51399 0.94293 0.0
H220 H 0.7601 0.5217 0.95423 0.0
H221 H 0.76395 0.50663 0.91568 0.0
H222 H 0.77252 0.52897 0.9122 0.0
H223 H 0.80357 0.52276 0.90365 0.0
H224 H 0.80635 0.49905 0.91064 0.0
C225 C 0.8046 0.48689 0.10253 0.0
C226 C 0.7706 0.49411 0.10386 0.0
C227 C 0.76828 0.44288 0.89057 0.0
C228 C 0.76829 0.45091 0.85346 0.0
C229 C 0.77389 0.46876 0.84981 0.0
C230 C 0.77878 0.47866 0.88304 0.0
C231 C 0.77813 0.47057 0.92021 0.0
C232 C 0.77328 0.45285 0.9233 0.0
C233 C 0.77381 0.44621 0.96474 0.0
C234 C 0.77941 0.46297 0.98629 0.0
C235 C 0.78174 0.47725 0.9602 0.0
C236 C 0.78813 0.43134 0.96754 0.0
C237 C 0.75471 0.44022 0.97608 0.0
C238 C 0.79311 0.54323 0.98288 0.0
C239 C 0.79527 0.55346 0.01706 0.0
C240 C 0.79614 0.54475 0.05357 0.0
C241 C 0.79428 0.52622 0.05616 0.0
C242 C 0.79137 0.51626 0.02192 0.0
C243 C 0.79115 0.52472 0.98599 0.0
C244 C 0.7878 0.51195 0.9528 0.0
C245 C 0.78583 0.49449 0.97484 0.0
C246 C 0.78782 0.49714 0.01533 0.0
C247 C 0.80438 0.51193 0.92575 0.0
C248 C 0.77025 0.51754 0.93229 0.0
H249 H 0.77425 0.42679 0.03814 0.0
H250 H 0.78119 0.46377 0.1578 0.0
H251 H 0.75746 0.48748 0.09973 0.0
H252 H 0.76917 0.50724 0.08968 0.0
H253 H 0.77258 0.49613 0.13579 0.0
H254 H 0.81342 0.47498 0.10107 0.0
H255 H 0.80392 0.49117 0.13362 0.0
H256 H 0.81165 0.49718 0.08528 0.0
H257 H 0.76444 0.42904 0.89409 0.0
H258 H 0.77408 0.47516 0.82138 0.0
H259 H 0.78266 0.49228 0.8786 0.0
H260 H 0.79882 0.43323 0.94531 0.0
H261 H 0.7822 0.41796 0.96261 0.0
H262 H 0.79523 0.43141 0.99593 0.0
H263 H 0.74462 0.44966 0.96423 0.0
H264 H 0.75236 0.44003 0.00794 0.0
H265 H 0.7517 0.42679 0.96405 0.0
H266 H 0.77052 0.41324 0.10139 0.0
C267 C 0.77593 0.4352 0.06326 0.0
C268 C 0.04409 0.27316 0.37599 0.0
C269 C 0.06215 0.26812 0.37514 0.0
C270 C 0.07194 0.26787 0.41032 0.0
C271 C 0.04567 0.27661 0.44664 0.0
C272 C 0.03612 0.27724 0.41207 0.0
C273 C 0.01683 0.28189 0.4189 0.0
H274 H 0.94951 0.29581 0.54744 0.0
C275 C 0.03339 0.28068 0.47916 0.0
C276 C 0.01645 0.28384 0.46322 0.0
H277 H 0.94669 0.29402 0.42102 0.0
H278 H 0.97866 0.29082 0.41736 0.0
H279 H 0.97607 0.26393 0.5567 0.0
H280 H 0.98553 0.32052 0.55185 0.0
H281 H -0.00049 0.31171 0.5883 0.0
H282 H 0.97565 0.3099 0.59365 0.0
H283 H 0.97046 0.27858 0.59641 0.0
H284 H 0.99234 0.26889 0.59194 0.0
C285 C 0.00531 0.26601 0.40464 0.0
C286 C 0.01288 0.29977 0.39799 0.0
C287 C 0.05595 0.27712 0.6188 0.0
C288 C 0.04762 0.27876 0.65549 0.0
C289 C 0.02943 0.28341 0.65704 0.0
C290 C 0.01965 0.28609 0.62251 0.0
C291 C 0.0281 0.28393 0.58603 0.0
C292 C 0.04601 0.27971 0.58472 0.0
C293 C 0.05277 0.2775 0.5436 0.0
C294 C 0.03595 0.28109 0.52031 0.0
C295 C 0.02155 0.2848 0.54523 0.0
C296 C 0.05936 0.258 0.53873 0.0
C297 C 0.06718 0.29192 0.53623 0.0
C298 C 0.95578 0.29472 0.51896 0.0
C299 C 0.94554 0.295 0.48451 0.0
C300 C 0.95427 0.29393 0.448 0.0
C301 C 0.97283 0.2919 0.44595 0.0
C302 C 0.98277 0.29086 0.48074 0.0
C303 C 0.97426 0.29263 0.51642 0.0
C304 C 0.9869 0.29115 0.55038 0.0
C305 C 0.00438 0.28791 0.52925 0.0
C306 C 0.00188 0.28763 0.48846 0.0
C307 C 0.9812 0.2749 0.57552 0.0
C308 C 0.9869 0.30916 0.57258 0.0
H309 H 0.07202 0.27156 0.47165 0.0
H310 H 0.03624 0.2734 0.34938 0.0
H311 H 0.0246 0.30884 0.39946 0.0
H312 H 0.00191 0.30731 0.41187 0.0
H313 H 0.00969 0.29761 0.36658 0.0
H314 H 0.01187 0.2531 0.41164 0.0
H315 H 0.00331 0.26653 0.37243 0.0
H316 H 0.99219 0.2653 0.41909 0.0
H317 H 0.06983 0.27323 0.61652 0.0
H318 H 0.02275 0.28488 0.68497 0.0
H319 H 0.00582 0.28946 0.62557 0.0
H320 H 0.05156 0.24871 0.55748 0.0
H321 H 0.0736 0.25669 0.54714 0.0
H322 H 0.05755 0.2528 0.50874 0.0
H323 H 0.06373 0.30458 0.55147 0.0
H324 H 0.06841 0.29564 0.50504 0.0
H325 H 0.0804 0.28753 0.54725 0.0
H326 H 0.08594 0.26432 0.41025 0.0
C327 C 0.06384 0.27215 0.44595 0.0
C328 C 0.71409 0.95488 0.62886 0.0
C329 C 0.71736 0.93648 0.63211 0.0
C330 C 0.71774 0.92598 0.59784 0.0
C331 C 0.71318 0.95228 0.55803 0.0
C332 C 0.71201 0.96246 0.59166 0.0
C333 C 0.70909 0.98189 0.58282 0.0
H334 H 0.70714 0.04857 0.44991 0.0
C335 C 0.71189 0.96437 0.52406 0.0
C336 C 0.70931 0.98172 0.53833 0.0
H337 H 0.70016 0.05208 0.5754 0.0
H338 H 0.7017 0.02008 0.58056 0.0
H339 H 0.73791 0.01967 0.4518 0.0
H340 H 0.68112 0.01411 0.43786 0.0
H341 H 0.6914 -0.00064 0.40482 0.0
H342 H 0.69515 0.02302 0.40004 0.0
H343 H 0.72661 0.02599 0.40762 0.0
H344 H 0.73427 0.0035 0.4155 0.0
C345 C 0.72501 0.99249 0.59999 0.0
C346 C 0.69064 0.9874 0.5993 0.0
C347 C 0.72325 0.94015 0.38764 0.0
C348 C 0.72512 0.94826 0.35074 0.0
C349 C 0.72192 0.96673 0.34731 0.0
C350 C 0.71748 0.97699 0.38028 0.0
C351 C 0.71634 0.96875 0.41718 0.0
C352 C 0.71901 0.95059 0.42025 0.0
C353 C 0.71778 0.94411 0.46179 0.0
C354 C 0.71395 0.96139 0.48326 0.0
C355 C 0.71315 0.97578 0.45704 0.0
C356 C 0.73614 0.93611 0.47316 0.0
C357 C 0.70196 0.93087 0.46468 0.0
C358 C 0.70598 0.04242 0.47849 0.0
C359 C 0.70364 0.05287 0.51232 0.0
C360 C 0.70184 0.04433 0.54888 0.0
C361 C 0.70288 0.02575 0.55186 0.0
C362 C 0.70583 0.01554 0.51798 0.0
C363 C 0.70698 0.02386 0.48198 0.0
C364 C 0.70988 0.01082 0.44912 0.0
C365 C 0.71038 0.99333 0.47139 0.0
C366 C 0.70822 0.99622 0.51175 0.0
C367 C 0.72803 0.01517 0.4296 0.0
C368 C 0.69366 0.01186 0.42116 0.0
H369 H 0.71638 0.9251 0.53598 0.0
H370 H 0.71344 0.96325 0.65468 0.0
H371 H 0.68126 0.9759 0.59987 0.0
H372 H 0.6839 0.99748 0.58089 0.0
H373 H 0.69177 0.99253 0.62971 0.0
H374 H 0.73776 0.98534 0.59454 0.0
H375 H 0.72356 0.9942 0.63215 0.0
H376 H 0.72677 0.00573 0.58657 0.0
H377 H 0.72527 0.92596 0.3913 0.0
H378 H 0.72336 0.97337 0.31934 0.0
H379 H 0.71547 0.99101 0.37587 0.0
H380 H 0.7472 0.94373 0.45929 0.0
H381 H 0.73728 0.92204 0.46337 0.0
H382 H 0.73894 0.9368 0.50482 0.0
H383 H 0.69099 0.93479 0.44453 0.0
H384 H 0.69578 0.93068 0.49406 0.0
H385 H 0.70615 0.91714 0.45669 0.0
H386 H 0.72036 0.9118 0.59946 0.0
C387 C 0.7156 0.93376 0.56091 0.0
C388 C 0.54312 0.22527 0.12123 0.0
C389 C 0.56135 0.2296 0.1226 0.0
C390 C 0.57149 0.22897 0.0879 0.0
C391 C 0.54523 0.2209 0.05088 0.0
C392 C 0.53533 0.22107 0.08504 0.0
C393 C 0.51593 0.21718 0.07758 0.0
H394 H 0.44918 0.20445 0.94716 0.0
C395 C 0.53306 0.21711 0.01801 0.0
C396 C 0.51587 0.21489 0.03333 0.0
H397 H 0.4456 0.20686 0.07344 0.0
H398 H 0.47756 0.20985 0.07795 0.0
H399 H 0.47638 0.23541 0.9377 0.0
H400 H 0.4852 0.17873 0.94467 0.0
H401 H 0.49874 0.18726 0.90699 0.0
H402 H 0.47484 0.18919 0.90323 0.0
H403 H 0.47142 0.22075 0.89761 0.0
H404 H 0.49333 0.23018 0.90421 0.0
C405 C 0.50496 0.23364 0.09072 0.0
C406 C 0.51106 0.19965 0.09901 0.0
C407 C 0.55712 0.21847 0.87947 0.0
C408 C 0.54905 0.21737 0.84245 0.0
C409 C 0.53061 0.21395 0.84006 0.0
C410 C 0.52035 0.21186 0.87416 0.0
C411 C 0.52859 0.21345 0.91103 0.0
C412 C 0.54671 0.21657 0.9131 0.0
C413 C 0.55317 0.21871 0.95442 0.0
C414 C 0.53596 0.21627 0.97701 0.0
C415 C 0.52161 0.21315 0.95156 0.0
C416 C 0.56086 0.23784 0.95896 0.0
C417 C 0.56664 0.20354 0.96297 0.0
C418 C 0.45531 0.20533 0.97581 0.0
C419 C 0.44486 0.2055 0.00999 0.0
C420 C 0.45335 0.20695 0.04667 0.0
C421 C 0.47191 0.20864 0.04923 0.0
C422 C 0.48212 0.20904 0.01474 0.0
C423 C 0.47382 0.20713 0.97885 0.0
C424 C 0.48676 0.20807 0.94528 0.0
C425 C 0.50418 0.2109 0.96694 0.0
C426 C 0.50136 0.21157 0.00761 0.0
C427 C 0.48177 0.22433 0.91951 0.0
C428 C 0.48638 0.18996 0.92353 0.0
H429 H 0.57201 0.22449 0.02684 0.0
H430 H 0.53502 0.2257 0.14747 0.0
H431 H 0.52245 0.19016 0.09868 0.0
H432 H 0.50002 0.19237 0.08476 0.0
H433 H 0.50754 0.20222 0.1301 0.0
H434 H 0.51215 0.24621 0.08363 0.0
H435 H 0.5026 0.23345 0.12283 0.0
H436 H 0.49204 0.23482 0.07557 0.0
H437 H 0.57118 0.22151 0.88235 0.0
H438 H 0.52412 0.21302 0.8118 0.0
H439 H 0.50636 0.20941 0.87051 0.0
H440 H 0.55422 0.24735 0.93867 0.0
H441 H 0.57536 0.23815 0.95243 0.0
H442 H 0.55855 0.24357 0.98833 0.0
H443 H 0.56238 0.1909 0.94868 0.0
H444 H 0.56764 0.20027 0.99443 0.0
H445 H 0.58011 0.20691 0.95166 0.0
H446 H 0.58562 0.23196 0.08843 0.0
C447 C 0.56356 0.22458 0.05217 0.0
C448 C 0.27548 0.04532 0.3735 0.0
C449 C 0.27223 0.06379 0.37244 0.0
C450 C 0.27217 0.07346 0.40786 0.0
C451 C 0.27765 0.04636 0.4444 0.0
C452 C 0.27817 0.03693 0.40966 0.0
C453 C 0.28132 0.01735 0.41615 0.0
H454 H 0.29046 0.94836 0.54208 0.0
C455 C 0.28004 0.03359 0.47687 0.0
C456 C 0.2823 0.01658 0.46055 0.0
H457 H 0.29048 0.94706 0.4154 0.0
H458 H 0.28775 0.97901 0.41342 0.0
H459 H 0.31553 0.98387 0.55099 0.0
H460 H 0.25866 0.97583 0.5499 0.0
H461 H 0.26327 0.99191 0.58582 0.0
H462 H 0.2722 0.96971 0.59107 0.0
H463 H 0.30384 0.97313 0.59035 0.0
H464 H 0.3062 0.99704 0.58837 0.0
C465 C 0.29932 0.0123 0.3968 0.0
C466 C 0.26499 0.00704 0.40001 0.0
C467 C 0.27484 0.05528 0.61705 0.0
C468 C 0.27502 0.04656 0.65347 0.0
C469 C 0.2782 0.02805 0.65461 0.0
C470 C 0.28095 0.01835 0.61996 0.0
C471 C 0.28035 0.02724 0.58371 0.0
C472 C 0.27746 0.04542 0.58279 0.0
C473 C 0.27676 0.05264 0.5418 0.0
C474 C 0.27967 0.03579 0.51813 0.0
C475 C 0.28177 0.02094 0.54275 0.0
C476 C 0.29232 0.06604 0.53668 0.0
C477 C 0.25795 0.06067 0.53507 0.0
C478 C 0.28981 0.95495 0.51391 0.0
C479 C 0.29067 0.9451 0.47885 0.0
C480 C 0.29007 0.95429 0.44285 0.0
C481 C 0.28833 0.97287 0.44174 0.0
C482 C 0.28708 0.98245 0.47699 0.0
C483 C 0.288 0.97351 0.51229 0.0
C484 C 0.28629 0.98589 0.54677 0.0
C485 C 0.28419 0.00372 0.5263 0.0
C486 C 0.28458 0.00159 0.48543 0.0
C487 C 0.30378 0.98495 0.57074 0.0
C488 C 0.26933 0.9806 0.56997 0.0
H489 H 0.27445 0.07297 0.4696 0.0
H490 H 0.27584 0.03753 0.3468 0.0
H491 H 0.25243 0.01447 0.40592 0.0
H492 H 0.26304 0.99393 0.41402 0.0
H493 H 0.26604 0.00514 0.36783 0.0
H494 H 0.30896 0.02355 0.3985 0.0
H495 H 0.29752 0.00892 0.36537 0.0
H496 H 0.30608 0.00112 0.41172 0.0
H497 H 0.2721 0.06943 0.61505 0.0
H498 H 0.27852 0.02106 0.68235 0.0
H499 H 0.28323 0.00429 0.62271 0.0
H500 H 0.30422 0.06175 0.55369 0.0
H501 H 0.28851 0.07954 0.54714 0.0
H502 H 0.29705 0.06697 0.50611 0.0
H503 H 0.24761 0.0529 0.55107 0.0
H504 H 0.25368 0.06022 0.50417 0.0
H505 H 0.25726 0.07466 0.54565 0.0
H506 H 0.2695 0.08766 0.40798 0.0
C507 C 0.2749 0.06488 0.44373 0.0
C508 C 0.54323 0.79406 0.01669 0.0
C509 C 0.55304 0.79568 0.98177 0.0
C510 C 0.54388 0.79591 0.94574 0.0
C511 C 0.5158 0.79161 0.97942 0.0
C512 C 0.5247 0.79203 0.01483 0.0
C513 C 0.51239 0.78918 0.04903 0.0
H514 H 0.42972 0.76901 0.11458 0.0
C515 C 0.49678 0.78817 0.98746 0.0
C516 C 0.49465 0.7869 0.02827 0.0
H517 H 0.47758 0.77606 0.18333 0.0
H518 H 0.49395 0.78411 0.12483 0.0
H519 H 0.43561 0.80294 0.05698 0.0
H520 H 0.44721 0.747 0.05028 0.0
H521 H 0.44096 0.75323 0.00286 0.0
H522 H 0.42521 0.75565 0.04242 0.0
H523 H 0.41876 0.78635 0.04904 0.0
H524 H 0.43073 0.79637 0.00878 0.0
C525 C 0.51271 0.80617 0.07478 0.0
C526 C 0.51823 0.77195 0.07052 0.0
C527 C 0.45385 0.77669 0.87478 0.0
C528 C 0.43579 0.77168 0.874 0.0
C529 C 0.42609 0.77116 0.90931 0.0
C530 C 0.43435 0.77484 0.94503 0.0
C531 C 0.45261 0.77893 0.94569 0.0
C532 C 0.46199 0.78018 0.91097 0.0
C533 C 0.48133 0.7846 0.91773 0.0
C534 C 0.48199 0.78539 0.96223 0.0
C535 C 0.46514 0.78194 0.97827 0.0
C536 C 0.48523 0.80299 0.89894 0.0
C537 C 0.4927 0.76907 0.90117 0.0
C538 C 0.44375 0.77224 0.11714 0.0
C539 C 0.45242 0.77164 0.15356 0.0
C540 C 0.47058 0.77641 0.15561 0.0
C541 C 0.48008 0.78095 0.12157 0.0
C542 C 0.47134 0.78063 0.0851 0.0
C543 C 0.4534 0.77658 0.08356 0.0
C544 C 0.44628 0.7763 0.04252 0.0
C545 C 0.46293 0.78077 0.01942 0.0
C546 C 0.47758 0.7833 0.04438 0.0
C547 C 0.43199 0.79114 0.03889 0.0
C548 C 0.43941 0.75716 0.03383 0.0
H549 H 0.51917 0.79403 0.91606 0.0
H550 H 0.54989 0.79367 0.04482 0.0
H551 H 0.52312 0.76179 0.04933 0.0
H552 H 0.50721 0.76533 0.0862 0.0
H553 H 0.52919 0.77471 0.09152 0.0
H554 H 0.51344 0.81836 0.05628 0.0
H555 H 0.52448 0.80621 0.09451 0.0
H556 H 0.50051 0.80781 0.09249 0.0
H557 H 0.46161 0.77722 0.84805 0.0
H558 H 0.41206 0.7677 0.90928 0.0
H559 H 0.42627 0.77395 0.97084 0.0
H560 H 0.4733 0.81178 0.90023 0.0
H561 H 0.48905 0.80156 0.86766 0.0
H562 H 0.49573 0.81047 0.91458 0.0
H563 H 0.48633 0.756 0.90766 0.0
H564 H 0.50609 0.76821 0.91431 0.0
H565 H 0.49412 0.77016 0.86888 0.0
H566 H 0.55112 0.79742 0.91848 0.0
C567 C 0.52533 0.79397 0.94439 0.0
H568 H 0.14737 0.20049 0.08452 0.0
H569 H 0.12488 0.21063 0.13142 0.0
H570 H 0.15332 0.26019 0.14584 0.0
H571 H 0.17609 0.24996 0.10006 0.0
H572 H 0.14656 0.24537 0.2141 0.0
H573 H 0.08436 0.24579 0.12689 0.0
H574 H 0.09562 0.22471 0.12504 0.0
H575 H 0.10613 0.24418 0.10465 0.0
C576 C 0.14868 0.21365 0.09725 0.0
C577 C 0.16358 0.22436 0.08884 0.0
C578 C 0.13573 0.21949 0.12382 0.0
C579 C 0.13729 0.23627 0.1418 0.0
C580 C 0.15183 0.24721 0.13229 0.0
H581 H 0.06149 0.28537 0.30446 0.0
H582 H 0.07882 0.27786 0.24561 0.0
C583 C 0.16486 0.24131 0.1062 0.0
C584 C 0.1249 0.2417 0.17346 0.0
H585 H 0.08093 0.2472 0.19675 0.0
C586 C 0.13223 0.24593 0.21011 0.0
C587 C 0.1062 0.24261 0.16819 0.0
C588 C 0.09762 0.23926 0.12895 0.0
C589 C 0.1214 0.25063 0.24186 0.0
C590 C 0.10268 0.25064 0.23719 0.0
C591 C 0.0953 0.24692 0.20032 0.0
C592 C 0.0907 0.25419 0.27071 0.0
C593 C 0.13017 0.25566 0.28011 0.0
C594 C 0.0912 0.24302 0.30361 0.0
C595 C 0.0815 0.24733 0.3371 0.0
C596 C 0.07091 0.26278 0.33814 0.0
C597 C 0.06958 0.27341 0.30438 0.0
C598 C 0.07945 0.26914 0.27086 0.0
H599 H 0.14422 0.25989 0.27575 0.0
H600 H 0.12283 0.26664 0.29485 0.0
H601 H 0.1302 0.24392 0.29987 0.0
H602 H 0.09949 0.23119 0.30371 0.0
H603 H 0.08247 0.23872 0.36246 0.0
H604 H 0.28691 0.64306 0.56309 0.0
H605 H 0.27534 0.6198 0.6064 0.0
H606 H 0.25043 0.65993 0.67848 0.0
H607 H 0.26152 0.68318 0.63508 0.0
H608 H 0.28204 0.61429 0.68225 0.0
H609 H 0.2098 0.62552 0.66372 0.0
H610 H 0.22615 0.63519 0.63126 0.0
H611 H 0.22094 0.64575 0.67727 0.0
C612 C 0.27888 0.64694 0.58804 0.0
C613 C 0.27511 0.66501 0.59552 0.0
C614 C 0.27224 0.63361 0.61268 0.0
C615 C 0.26169 0.6381 0.64518 0.0
C616 C 0.25807 0.65611 0.65291 0.0
H617 H 0.24936 0.58979 0.86618 0.0
H618 H 0.25824 0.60521 0.80662 0.0
C619 C 0.26458 0.66941 0.6282 0.0
C620 C 0.25542 0.62415 0.67263 0.0
H621 H 0.21867 0.61011 0.72283 0.0
C622 C 0.26814 0.61316 0.69063 0.0
C623 C 0.23723 0.62236 0.68295 0.0
C624 C 0.22274 0.63271 0.66242 0.0
C625 C 0.26331 0.60126 0.72045 0.0
C626 C 0.24537 0.60067 0.73321 0.0
C627 C 0.23247 0.61079 0.71347 0.0
C628 C 0.24003 0.59084 0.76892 0.0
C629 C 0.27754 0.58963 0.73839 0.0
C630 C 0.22641 0.57801 0.76778 0.0
C631 C 0.22102 0.56936 0.80212 0.0
C632 C 0.22907 0.57354 0.83818 0.0
C633 C 0.24269 0.58642 0.83905 0.0
C634 C 0.248 0.59505 0.80487 0.0
H635 H 0.2885 0.58701 0.71725 0.0
H636 H 0.28339 0.59658 0.76404 0.0
H637 H 0.272 0.57667 0.74835 0.0
H638 H 0.21995 0.57472 0.74035 0.0
H639 H 0.21038 0.55963 0.80054 0.0
H640 H 0.81935 0.75765 0.12239 0.0
H641 H 0.84335 0.74745 0.16467 0.0
H642 H 0.87982 0.78364 0.1081 0.0
H643 H 0.85573 0.79421 0.06554 0.0
H644 H 0.87689 0.73213 0.14405 0.0
H645 H 0.88369 0.79603 0.22603 0.0
H646 H 0.86454 0.79118 0.19589 0.0
H647 H 0.88536 0.79712 0.17355 0.0
C648 C 0.83243 0.76352 0.11878 0.0
C649 C 0.83554 0.7769 0.09069 0.0
C650 C 0.84616 0.75759 0.14294 0.0
C651 C 0.86328 0.7649 0.13972 0.0
C652 C 0.86661 0.77801 0.11133 0.0
H653 H 0.94881 0.74533 0.30907 0.0
H654 H 0.93368 0.7546 0.24892 0.0
C655 C 0.85284 0.78398 0.087 0.0
C656 C 0.87736 0.75888 0.16695 0.0
H657 H 0.9011 0.77192 0.24718 0.0
C658 C 0.88237 0.74086 0.16633 0.0
C659 C 0.88451 0.77035 0.19581 0.0
C660 C 0.87923 0.78973 0.19826 0.0
C661 C 0.89396 0.73385 0.19462 0.0
C662 C 0.90042 0.74512 0.2246 0.0
C663 C 0.89607 0.76332 0.22414 0.0
C664 C 0.91044 0.7381 0.25856 0.0
C665 C 0.89899 0.7144 0.19247 0.0
C666 C 0.9024 0.7257 0.28375 0.0
C667 C 0.91101 0.72034 0.31801 0.0
C668 C 0.92779 0.72738 0.32781 0.0
C669 C 0.936 0.73949 0.30205 0.0
C670 C 0.92735 0.74487 0.26781 0.0
H671 H 0.89776 0.70918 0.16213 0.0
H672 H 0.91284 0.7122 0.20283 0.0
H673 H 0.88984 0.70659 0.21139 0.0
H674 H 0.8892 0.72057 0.27756 0.0
H675 H 0.90441 0.7109 0.33713 0.0
H676 H 0.69835 0.35298 0.58325 0.0
H677 H 0.70806 0.37721 0.6263 0.0
H678 H 0.75677 0.34874 0.65075 0.0
H679 H 0.74697 0.32432 0.60884 0.0
H680 H 0.74116 0.35935 0.71612 0.0
H681 H 0.74443 0.4164 0.61335 0.0
H682 H 0.72313 0.4055 0.61328 0.0
H683 H 0.74258 0.3936 0.59686 0.0
C684 C 0.71121 0.35198 0.59747 0.0
C685 C 0.72183 0.33667 0.59283 0.0
C686 C 0.71681 0.36591 0.62182 0.0
C687 C 0.73325 0.3649 0.64134 0.0
C688 C 0.74404 0.34982 0.63593 0.0
H689 H 0.78497 0.44709 0.78262 0.0
H690 H 0.77637 0.42697 0.72902 0.0
C691 C 0.73839 0.33584 0.61204 0.0
C692 C 0.73864 0.37876 0.66996 0.0
H693 H 0.74587 0.42343 0.68165 0.0
C694 C 0.7423 0.37334 0.70845 0.0
C695 C 0.74033 0.39698 0.65985 0.0
C696 C 0.73759 0.40347 0.61849 0.0
C697 C 0.74732 0.38563 0.73727 0.0
C698 C 0.7482 0.40395 0.72766 0.0
C699 C 0.74493 0.40939 0.68901 0.0
C700 C 0.75242 0.41754 0.75769 0.0
C701 C 0.75185 0.37881 0.77766 0.0
C702 C 0.74147 0.41932 0.79075 0.0
C703 C 0.74641 0.43061 0.8213 0.0
C704 C 0.76227 0.44053 0.8191 0.0
C705 C 0.77269 0.43957 0.78497 0.0
C706 C 0.76781 0.4281 0.75446 0.0
H707 H 0.75544 0.36444 0.77714 0.0
H708 H 0.76311 0.3864 0.7906 0.0
H709 H 0.74007 0.38039 0.79704 0.0
H710 H 0.72932 0.41162 0.79335 0.0
H711 H 0.73798 0.43138 0.84701 0.0
H712 H 0.64667 0.29912 0.41083 0.0
H713 H 0.62387 0.28888 0.3647 0.0
H714 H 0.65101 0.23839 0.35384 0.0
H715 H 0.67408 0.24875 0.39867 0.0
H716 H 0.64504 0.25235 0.2848 0.0
H717 H 0.58233 0.25502 0.37016 0.0
H718 H 0.59416 0.27581 0.37077 0.0
H719 H 0.60401 0.25639 0.39291 0.0
C720 C 0.64759 0.28574 0.39906 0.0
C721 C 0.66224 0.2748 0.40802 0.0
C722 C 0.63448 0.27984 0.37295 0.0
C723 C 0.63562 0.26278 0.35611 0.0
C724 C 0.64985 0.2516 0.36645 0.0
H725 H 0.55958 0.21341 0.19439 0.0
H726 H 0.57661 0.22131 0.25343 0.0
C727 C 0.66306 0.25756 0.39198 0.0
C728 C 0.62324 0.25726 0.32452 0.0
H729 H 0.57929 0.25266 0.30031 0.0
C730 C 0.63067 0.25226 0.28841 0.0
C731 C 0.6045 0.25696 0.32929 0.0
C732 C 0.59577 0.26115 0.36801 0.0
C733 C 0.61992 0.24736 0.25673 0.0
C734 C 0.60117 0.24797 0.26083 0.0
C735 C 0.59367 0.25247 0.29717 0.0
C736 C 0.58933 0.24429 0.22717 0.0
C737 C 0.62877 0.24147 0.21916 0.0
C738 C 0.59042 0.25495 0.19355 0.0
C739 C 0.58091 0.2504 0.15998 0.0
C740 C 0.56993 0.23523 0.15958 0.0
C741 C 0.56799 0.22514 0.19399 0.0
C742 C 0.57768 0.22964 0.22761 0.0
H743 H 0.64266 0.23688 0.22429 0.0
H744 H 0.6212 0.2305 0.205 0.0
H745 H 0.6293 0.25289 0.19854 0.0
H746 H 0.59903 0.26654 0.19296 0.0
H747 H 0.58234 0.2586 0.13406 0.0
H748 H 0.23968 0.17595 0.86781 0.0
H749 H 0.25006 0.15044 0.82995 0.0
H750 H 0.21449 0.11595 0.89394 0.0
H751 H 0.20379 0.14149 0.93198 0.0
H752 H 0.26596 0.11821 0.85768 0.0
H753 H 0.20237 0.10635 0.77764 0.0
H754 H 0.20684 0.12689 0.80337 0.0
H755 H 0.20105 0.10715 0.83019 0.0
C756 C 0.23397 0.16299 0.87389 0.0
C757 C 0.22078 0.16084 0.90285 0.0
C758 C 0.23999 0.1484 0.85226 0.0
C759 C 0.23293 0.13137 0.85893 0.0
C760 C 0.21992 0.12906 0.88801 0.0
H761 H 0.25301 0.03701 0.71384 0.0
H762 H 0.24383 0.05543 0.76961 0.0
C763 C 0.21386 0.14367 0.90976 0.0
C764 C 0.23925 0.11618 0.835 0.0
H765 H 0.22654 0.08772 0.7622 0.0
C766 C 0.25732 0.11141 0.83704 0.0
C767 C 0.22791 0.10729 0.80833 0.0
C768 C 0.20848 0.11219 0.80436 0.0
C769 C 0.26446 0.09825 0.81238 0.0
C770 C 0.25328 0.0899 0.78455 0.0
C771 C 0.23507 0.09415 0.78361 0.0
C772 C 0.26042 0.0779 0.75385 0.0
C773 C 0.28393 0.09353 0.81614 0.0
C774 C 0.27292 0.08438 0.72679 0.0
C775 C 0.27822 0.07389 0.69509 0.0
C776 C 0.27103 0.05676 0.68966 0.0
C777 C 0.25894 0.05007 0.7175 0.0
C778 C 0.25361 0.06061 0.74922 0.0
H779 H 0.28903 0.09653 0.84597 0.0
H780 H 0.28627 0.0792 0.80972 0.0
H781 H 0.29175 0.10158 0.79497 0.0
H782 H 0.27809 0.09781 0.72934 0.0
H783 H 0.28766 0.07936 0.67429 0.0
H784 H 0.32227 0.72942 0.35675 0.0
H785 H 0.34786 0.73952 0.31871 0.0
H786 H 0.38339 0.72041 0.40866 0.0
H787 H 0.35783 0.70979 0.44659 0.0
H788 H 0.37335 0.76384 0.33691 0.0
H789 H 0.40406 0.69735 0.31161 0.0
H790 H 0.38182 0.69992 0.33088 0.0
H791 H 0.40082 0.70319 0.36211 0.0
C792 C 0.33552 0.72726 0.36844 0.0
C793 C 0.33799 0.71866 0.4046 0.0
C794 C 0.35014 0.73309 0.34668 0.0
C795 C 0.36754 0.73054 0.36063 0.0
C796 C 0.3701 0.72217 0.39694 0.0
H797 H 0.45333 0.7849 0.22873 0.0
H798 H 0.43531 0.77508 0.28477 0.0
C799 C 0.35546 0.71615 0.41861 0.0
C800 C 0.38285 0.73676 0.33686 0.0
H801 H 0.41899 0.72218 0.28526 0.0
C802 C 0.38344 0.75478 0.32585 0.0
C803 C 0.39595 0.72487 0.32247 0.0
C804 C 0.39563 0.70523 0.33203 0.0
C805 C 0.39634 0.76113 0.29956 0.0
C806 C 0.40927 0.74918 0.28469 0.0
C807 C 0.40912 0.73132 0.29697 0.0
C808 C 0.42155 0.75433 0.25265 0.0
C809 C 0.39537 0.7803 0.28629 0.0
C810 C 0.42033 0.74544 0.21664 0.0
C811 C 0.43073 0.75081 0.185 0.0
C812 C 0.44254 0.76528 0.18853 0.0
C813 C 0.44431 0.77375 0.22508 0.0
C814 C 0.43391 0.76827 0.25697 0.0
H815 H 0.38257 0.7867 0.29466 0.0
H816 H 0.40635 0.78796 0.30008 0.0
H817 H 0.39693 0.78125 0.25402 0.0
H818 H 0.41098 0.73458 0.21271 0.0
H819 H 0.42938 0.74369 0.15755 0.0
H820 H 0.75705 0.81887 0.86849 0.0
H821 H 0.74575 0.843 0.82788 0.0
H822 H 0.78088 0.88008 0.88575 0.0
H823 H 0.79252 0.85589 0.92665 0.0
H824 H 0.72929 0.8757 0.85182 0.0
H825 H 0.79208 0.88613 0.76759 0.0
H826 H 0.78821 0.86633 0.79638 0.0
H827 H 0.7936 0.88698 0.82012 0.0
C828 C 0.76247 0.83212 0.87269 0.0
C829 C 0.77583 0.83538 0.90073 0.0
C830 C 0.75591 0.84591 0.8495 0.0
C831 C 0.76257 0.86325 0.85365 0.0
C832 C 0.77573 0.86671 0.88183 0.0
H833 H 0.73907 0.94972 0.68936 0.0
H834 H 0.74885 0.93465 0.74917 0.0
C835 C 0.78234 0.85287 0.90518 0.0
C836 C 0.75576 0.87748 0.82773 0.0
H837 H 0.76714 0.90288 0.74876 0.0
C838 C 0.73759 0.88183 0.82957 0.0
C839 C 0.76667 0.8855 0.79894 0.0
C840 C 0.78621 0.88099 0.79525 0.0
C841 C 0.72989 0.89359 0.8025 0.0
C842 C 0.74061 0.9009 0.7725 0.0
C843 C 0.75895 0.89722 0.77182 0.0
C844 C 0.73289 0.91104 0.73943 0.0
C845 C 0.7103 0.89788 0.80595 0.0
C846 C 0.72053 0.90283 0.71441 0.0
C847 C 0.71487 0.91142 0.68037 0.0
C848 C 0.72157 0.92833 0.67057 0.0
C849 C 0.7335 0.93679 0.69636 0.0
C850 C 0.73918 0.92817 0.73041 0.0
H851 H 0.70551 0.8962 0.83652 0.0
H852 H 0.70746 0.91173 0.79634 0.0
H853 H 0.70261 0.8886 0.78711 0.0
H854 H 0.71578 0.88947 0.72039 0.0
H855 H 0.70558 0.90463 0.66122 0.0
H856 H 0.85558 0.79389 0.9253 0.0
H857 H 0.87963 0.78364 0.88218 0.0
H858 H 0.84359 0.74648 0.82739 0.0
H859 H 0.81952 0.75661 0.86974 0.0
H860 H 0.89381 0.74819 0.87024 0.0
H861 H 0.86345 0.77632 0.7357 0.0
H862 H 0.85658 0.78296 0.78425 0.0
H863 H 0.84857 0.76245 0.7634 0.0
C864 C 0.85276 0.78354 0.90408 0.0
C865 C 0.83553 0.77623 0.90076 0.0
C866 C 0.86653 0.77768 0.87957 0.0
C867 C 0.86328 0.76451 0.85127 0.0
C868 C 0.84627 0.75689 0.84859 0.0
H869 H 0.91628 0.70864 0.66685 0.0
H870 H 0.89682 0.71891 0.71965 0.0
C871 C 0.83253 0.7627 0.87295 0.0
C872 C 0.87747 0.75878 0.82395 0.0
H873 H 0.88721 0.75569 0.72663 0.0
C874 C 0.89252 0.74997 0.83885 0.0
C875 C 0.87572 0.76123 0.78309 0.0
C876 C 0.8603 0.77141 0.7656 0.0
C877 C 0.90554 0.74287 0.81367 0.0
C878 C 0.90345 0.74483 0.77277 0.0
C879 C 0.88866 0.75407 0.75803 0.0
C880 C 0.91616 0.73712 0.7443 0.0
C881 C 0.92111 0.73282 0.83078 0.0
C882 C 0.93359 0.74374 0.74116 0.0
C883 C 0.94474 0.73794 0.71086 0.0
C884 C 0.93855 0.72553 0.68313 0.0
C885 C 0.92134 0.71839 0.68745 0.0
C886 C 0.91024 0.72418 0.71766 0.0
H887 H 0.91903 0.72961 0.86221 0.0
H888 H 0.92342 0.72023 0.81443 0.0
H889 H 0.93332 0.74108 0.82819 0.0
H890 H 0.9383 0.75395 0.76107 0.0
H891 H 0.95786 0.74384 0.70802 0.0
H892 H 0.70537 0.35553 0.43323 0.0
H893 H 0.71649 0.37982 0.39199 0.0
H894 H 0.74929 0.34256 0.3283 0.0
H895 H 0.7385 0.31829 0.36928 0.0
H896 H 0.76705 0.37466 0.35209 0.0
H897 H 0.70268 0.38744 0.27567 0.0
H898 H 0.70236 0.3877 0.32833 0.0
H899 H 0.70674 0.36723 0.3029 0.0
C900 C 0.71492 0.35248 0.41039 0.0
C901 C 0.72095 0.3349 0.40447 0.0
C902 C 0.72122 0.36638 0.38684 0.0
C903 C 0.73358 0.36292 0.35698 0.0
C904 C 0.73974 0.34548 0.35124 0.0
H905 H 0.78695 0.40503 0.16085 0.0
H906 H 0.77771 0.38958 0.22042 0.0
C907 C 0.73348 0.33161 0.37465 0.0
C908 C 0.74011 0.37728 0.33108 0.0
H909 H 0.72752 0.40397 0.25515 0.0
C910 C 0.75839 0.38125 0.33118 0.0
C911 C 0.72873 0.38591 0.3041 0.0
C912 C 0.70904 0.38185 0.30234 0.0
C913 C 0.76572 0.39322 0.30405 0.0
C914 C 0.75449 0.40114 0.27576 0.0
C915 C 0.73608 0.39785 0.27691 0.0
C916 C 0.76169 0.41143 0.24235 0.0
C917 C 0.78544 0.39706 0.30556 0.0
C918 C 0.7557 0.42881 0.23485 0.0
C919 C 0.76084 0.43761 0.20059 0.0
C920 C 0.7719 0.42907 0.1731 0.0
C921 C 0.77832 0.41188 0.18136 0.0
C922 C 0.77321 0.40313 0.2156 0.0
H923 H 0.79087 0.39493 0.33547 0.0
H924 H 0.79251 0.38784 0.28542 0.0
H925 H 0.78837 0.41095 0.29637 0.0
H926 H 0.74666 0.43536 0.25499 0.0
H927 H 0.75552 0.45077 0.1948 0.0
H928 H 0.17671 0.23971 0.86684 0.0
H929 H 0.15138 0.25127 0.83021 0.0
H930 H 0.11602 0.21641 0.89376 0.0
H931 H 0.14137 0.20455 0.93069 0.0
H932 H 0.11125 0.21628 0.81138 0.0
H933 H 0.11219 0.28508 0.87045 0.0
H934 H 0.13352 0.27774 0.85283 0.0
H935 H 0.12349 0.26675 0.89414 0.0
C936 C 0.16358 0.23444 0.87319 0.0
C937 C 0.16111 0.22119 0.90185 0.0
C938 C 0.14909 0.24121 0.8524 0.0
C939 C 0.13182 0.23495 0.85988 0.0
C940 C 0.12925 0.22153 0.88793 0.0
H941 H 0.03674 0.25903 0.71853 0.0
H942 H 0.05498 0.24903 0.77383 0.0
C943 C 0.14377 0.21476 0.90891 0.0
C944 C 0.11665 0.24194 0.83692 0.0
H945 H 0.09592 0.28064 0.81077 0.0
C946 C 0.10763 0.23028 0.81169 0.0
C947 C 0.112 0.26021 0.83756 0.0
C948 C 0.12068 0.27315 0.86548 0.0
C949 C 0.09477 0.2366 0.78531 0.0
C950 C 0.09064 0.25501 0.78482 0.0
C951 C 0.09914 0.26654 0.81123 0.0
C952 C 0.07881 0.26274 0.75465 0.0
C953 C 0.08642 0.2237 0.75675 0.0
C954 C 0.08596 0.27443 0.72672 0.0
C955 C 0.07556 0.2803 0.69544 0.0
C956 C 0.05779 0.27461 0.69157 0.0
C957 C 0.05036 0.26369 0.72081 0.0
C958 C 0.0608 0.25782 0.75216 0.0
H959 H 0.09348 0.21068 0.75619 0.0
H960 H 0.07237 0.22123 0.76533 0.0
H961 H 0.08644 0.22934 0.72668 0.0
H962 H 0.09981 0.27848 0.72832 0.0
H963 H 0.08156 0.28894 0.67372 0.0
H964 H 0.26388 0.67493 0.3629 0.0
H965 H 0.25315 0.64921 0.32636 0.0
H966 H 0.27845 0.61394 0.40911 0.0
H967 H 0.28967 0.63971 0.44562 0.0
H968 H 0.28481 0.60373 0.33526 0.0
H969 H 0.21268 0.61599 0.35205 0.0
H970 H 0.22365 0.63529 0.33266 0.0
H971 H 0.22915 0.62752 0.3811 0.0
C972 C 0.26713 0.66173 0.37356 0.0
C973 C 0.27761 0.65942 0.40732 0.0
C974 C 0.26083 0.64701 0.35278 0.0
C975 C 0.2646 0.62965 0.36556 0.0
C976 C 0.27522 0.62723 0.39898 0.0
H977 H 0.21168 0.54485 0.22991 0.0
H978 H 0.22194 0.56192 0.28698 0.0
C979 C 0.28166 0.64198 0.41972 0.0
C980 C 0.25824 0.61415 0.34252 0.0
H981 H 0.22132 0.59755 0.29695 0.0
C982 C 0.27088 0.60218 0.32746 0.0
C983 C 0.24002 0.61181 0.33311 0.0
C984 C 0.22559 0.62323 0.35098 0.0
C985 C 0.26594 0.58873 0.30105 0.0
C986 C 0.24798 0.58752 0.28868 0.0
C987 C 0.23515 0.59866 0.30591 0.0
C988 C 0.24254 0.57609 0.25535 0.0
C989 C 0.2801 0.57615 0.28613 0.0
C990 C 0.25064 0.57847 0.21871 0.0
C991 C 0.24493 0.56872 0.18636 0.0
C992 C 0.23076 0.55654 0.18968 0.0
C993 C 0.22271 0.55403 0.22649 0.0
C994 C 0.22851 0.56381 0.25904 0.0
H995 H 0.29091 0.57443 0.30803 0.0
H996 H 0.27446 0.56286 0.27898 0.0
H997 H 0.28618 0.58182 0.25924 0.0
H998 H 0.26119 0.58818 0.21489 0.0
H999 H 0.2516 0.57079 0.1586 0.0
H1000 H 0.32227 0.75016 0.59929 0.0
H1001 H 0.3451 0.76137 0.6437 0.0
H1002 H 0.37337 0.71144 0.63473 0.0
H1003 H 0.35079 0.70029 0.58914 0.0
H1004 H 0.3517 0.74801 0.71344 0.0
H1005 H 0.41402 0.74641 0.62656 0.0
H1006 H 0.39226 0.74441 0.60441 0.0
H1007 H 0.40268 0.72535 0.62679 0.0
C1008 C 0.33346 0.74162 0.60636 0.0
C1009 C 0.33466 0.72428 0.59095 0.0
C1010 C 0.34654 0.74809 0.63163 0.0
C1011 C 0.36104 0.73733 0.64226 0.0
C1012 C 0.36253 0.72015 0.6262 0.0
H1013 H 0.41563 0.7422 0.86164 0.0
H1014 H 0.39874 0.73439 0.80298 0.0
C1015 C 0.34954 0.71373 0.60042 0.0
C1016 C 0.37341 0.74343 0.67332 0.0
H1017 H 0.41736 0.74918 0.69632 0.0
C1018 C 0.36604 0.74844 0.70947 0.0
C1019 C 0.39211 0.74418 0.66804 0.0
C1020 C 0.40073 0.73998 0.62922 0.0
C1021 C 0.37684 0.7537 0.74079 0.0
C1022 C 0.39556 0.75351 0.73622 0.0
C1023 C 0.40299 0.74907 0.69979 0.0
C1024 C 0.40746 0.75731 0.76966 0.0
C1025 C 0.36807 0.75941 0.77859 0.0
C1026 C 0.41857 0.77237 0.76962 0.0
C1027 C 0.42834 0.77684 0.80316 0.0
C1028 C 0.42701 0.7663 0.83707 0.0
C1029 C 0.41656 0.75077 0.83619 0.0
C1030 C 0.40695 0.74627 0.80273 0.0
H1031 H 0.35402 0.76357 0.77389 0.0
H1032 H 0.36804 0.74803 0.79935 0.0
H1033 H 0.37542 0.77062 0.79237 0.0
H1034 H 0.41918 0.78099 0.74421 0.0
H1035 H 0.43634 0.78886 0.80312 0.0
H1036 H 0.78843 0.8572 0.05383 0.0
H1037 H 0.77814 0.88181 0.09523 0.0
H1038 H 0.75377 0.84416 0.17426 0.0
H1039 H 0.76355 0.8196 0.13281 0.0
H1040 H 0.73192 0.87207 0.1585 0.0
H1041 H 0.79944 0.89627 0.19958 0.0
H1042 H 0.79505 0.89567 0.14792 0.0
H1043 H 0.79591 0.87522 0.17525 0.0
C1044 C 0.78092 0.85416 0.08009 0.0
C1045 C 0.7769 0.83641 0.09008 0.0
C1046 C 0.77511 0.86824 0.10377 0.0
C1047 C 0.76541 0.86479 0.13811 0.0
C1048 C 0.76125 0.84712 0.14789 0.0
H1049 H 0.75032 0.92202 0.34957 0.0
H1050 H 0.75934 0.90344 0.29455 0.0
C1051 C 0.76689 0.83309 0.12415 0.0
C1052 C 0.75954 0.87943 0.16428 0.0
H1053 H 0.77494 0.91199 0.22535 0.0
C1054 C 0.7413 0.88091 0.17293 0.0
C1055 C 0.77183 0.89084 0.18319 0.0
C1056 C 0.79166 0.88939 0.17637 0.0
C1057 C 0.73505 0.89312 0.2009 0.0
C1058 C 0.74736 0.90445 0.22001 0.0
C1059 C 0.76554 0.90335 0.21045 0.0
C1060 C 0.74195 0.9163 0.25265 0.0
C1061 C 0.71547 0.89313 0.2111 0.0
C1062 C 0.7293 0.92987 0.24731 0.0
C1063 C 0.72383 0.94036 0.27903 0.0
C1064 C 0.73107 0.93754 0.31653 0.0
C1065 C 0.74413 0.92427 0.32136 0.0
C1066 C 0.74947 0.91375 0.28981 0.0
H1067 H 0.70858 0.881 0.20014 0.0
H1068 H 0.71352 0.89396 0.24329 0.0
H1069 H 0.709 0.90491 0.19755 0.0
H1070 H 0.72358 0.93228 0.21869 0.0
H1071 H 0.71373 0.95044 0.2743 0.0
H1072 H 0.68047 0.25837 0.6309 0.0
H1073 H 0.65632 0.24665 0.67108 0.0
H1074 H 0.6186 0.27949 0.60897 0.0
H1075 H 0.64268 0.29123 0.56805 0.0
H1076 H 0.63371 0.26638 0.7196 0.0
H1077 H 0.59561 0.22958 0.60557 0.0
H1078 H 0.6183 0.23692 0.59818 0.0
H1079 H 0.60027 0.2526 0.595 0.0
C1080 C 0.66706 0.26312 0.62557 0.0
C1081 C 0.66355 0.27578 0.59616 0.0
C1082 C 0.65326 0.25636 0.64857 0.0
C1083 C 0.63567 0.26202 0.64261 0.0
C1084 C 0.63205 0.27469 0.61348 0.0
H1085 H 0.54056 0.23902 0.78081 0.0
H1086 H 0.56065 0.24928 0.7288 0.0
C1087 C 0.64587 0.28148 0.59035 0.0
C1088 C 0.62135 0.25518 0.66832 0.0
H1089 H 0.58324 0.23021 0.66939 0.0
C1090 C 0.62267 0.25849 0.70862 0.0
C1091 C 0.60693 0.24497 0.65378 0.0
C1092 C 0.60517 0.24064 0.61081 0.0
C1093 C 0.61003 0.25177 0.73491 0.0
C1094 C 0.59584 0.24124 0.72054 0.0
C1095 C 0.59423 0.23823 0.68017 0.0
C1096 C 0.58286 0.23301 0.74758 0.0
C1097 C 0.61191 0.25602 0.77793 0.0
C1098 C 0.58853 0.21994 0.77411 0.0
C1099 C 0.57713 0.21405 0.80365 0.0
C1100 C 0.55983 0.2211 0.80705 0.0
C1101 C 0.55377 0.23328 0.77875 0.0
C1102 C 0.56524 0.23921 0.74916 0.0
H1103 H 0.62101 0.26748 0.78301 0.0
H1104 H 0.59874 0.25912 0.79114 0.0
H1105 H 0.61748 0.24425 0.79333 0.0
H1106 H 0.60203 0.21484 0.7729 0.0
H1107 H 0.58205 0.20444 0.82472 0.0
H1108 H 0.24208 0.18207 0.12143 0.0
H1109 H 0.25241 0.15896 0.16605 0.0
H1110 H 0.21525 0.12166 0.1154 0.0
H1111 H 0.20461 0.1448 0.07056 0.0
H1112 H 0.21438 0.12313 0.19748 0.0
H1113 H 0.28362 0.11529 0.14377 0.0
H1114 H 0.27771 0.13806 0.15338 0.0
H1115 H 0.26641 0.12599 0.11523 0.0
C1116 C 0.23612 0.16894 0.11948 0.0
C1117 C 0.22247 0.16533 0.09234 0.0
C1118 C 0.24218 0.1557 0.14484 0.0
C1119 C 0.23481 0.13854 0.14353 0.0
C1120 C 0.22121 0.1348 0.11656 0.0
H1121 H 0.25098 0.05189 0.31276 0.0
H1122 H 0.24231 0.06804 0.25348 0.0
C1123 C 0.21515 0.14805 0.09101 0.0
C1124 C 0.2406 0.12493 0.17219 0.0
H1125 H 0.27747 0.10384 0.20794 0.0
C1126 C 0.2281 0.11865 0.19944 0.0
C1127 C 0.25851 0.11917 0.17458 0.0
C1128 C 0.27231 0.12484 0.14494 0.0
C1129 C 0.23323 0.10744 0.23032 0.0
C1130 C 0.25128 0.10216 0.23348 0.0
C1131 C 0.26365 0.10796 0.20544 0.0
C1132 C 0.25774 0.0916 0.26717 0.0
C1133 C 0.21948 0.10205 0.26034 0.0
C1134 C 0.26983 0.09925 0.29361 0.0
C1135 C 0.27496 0.09 0.32723 0.0
C1136 C 0.26812 0.07291 0.33496 0.0
C1137 C 0.25656 0.065 0.30756 0.0
C1138 C 0.25145 0.07426 0.27389 0.0
H1139 H 0.20712 0.11013 0.25804 0.0
H1140 H 0.21586 0.08785 0.2558 0.0
H1141 H 0.22489 0.10344 0.29045 0.0
H1142 H 0.27493 0.11258 0.28876 0.0
H1143 H 0.28412 0.09633 0.34743 0.0
H1144 H 0.20699 0.27534 0.92409 0.0
H1145 H 0.20355 0.30772 0.92164 0.0
H1146 H 0.21914 0.31145 0.04291 0.0
H1147 H 0.2222 0.27908 0.04599 0.0
H1148 H 0.1899 0.33163 0.02688 0.0
H1149 H 0.24288 0.34455 0.91687 0.0
H1150 H 0.22619 0.32908 0.90068 0.0
H1151 H 0.24045 0.32331 0.94106 0.0
C1152 C 0.20981 0.28305 0.9502 0.0
C1153 C 0.21498 0.2746 0.98519 0.0
C1154 C 0.2079 0.30156 0.94868 0.0
C1155 C 0.21138 0.31201 0.9819 0.0
C1156 C 0.21645 0.30363 0.01689 0.0
H1157 H 0.22263 0.42379 0.03033 0.0
H1158 H 0.2229 0.3912 0.03046 0.0
C1159 C 0.21822 0.28512 0.01856 0.0
C1160 C 0.20944 0.33166 0.98058 0.0
H1161 H 0.22485 0.36919 0.93514 0.0
C1162 C 0.19755 0.33983 0.00683 0.0
C1163 C 0.21948 0.34233 0.95445 0.0
C1164 C 0.23309 0.33442 0.92692 0.0
C1165 C 0.19544 0.35841 0.00758 0.0
C1166 C 0.20541 0.36899 0.9814 0.0
C1167 C 0.21716 0.3609 0.95493 0.0
C1168 C 0.2044 0.38861 0.98232 0.0
C1169 C 0.18266 0.36673 0.03637 0.0
C1170 C 0.19379 0.39779 0.95528 0.0
C1171 C 0.1934 0.41642 0.95539 0.0
C1172 C 0.20375 0.42614 0.98238 0.0
C1173 C 0.21426 0.41676 0.00961 0.0
C1174 C 0.21455 0.39816 0.00959 0.0
H1175 H 0.17481 0.35658 0.05262 0.0
H1176 H 0.19024 0.3749 0.05778 0.0
H1177 H 0.17334 0.37579 0.0208 0.0
H1178 H 0.18588 0.39054 0.93406 0.0
H1179 H 0.185 0.42321 0.93438 0.0
H1180 H 0.22127 0.71773 0.55367 0.0
H1181 H 0.18888 0.71476 0.55256 0.0
H1182 H 0.19021 0.7078 0.42728 0.0
H1183 H 0.2227 0.71064 0.42792 0.0
H1184 H 0.16449 0.73645 0.51015 0.0
H1185 H 0.16028 0.66501 0.46787 0.0
H1186 H 0.18039 0.67494 0.48709 0.0
H1187 H 0.17414 0.67858 0.43697 0.0
C1188 C 0.21474 0.71551 0.52582 0.0
C1189 C 0.22463 0.71441 0.49086 0.0
C1190 C 0.19622 0.71382 0.5253 0.0
C1191 C 0.18724 0.71085 0.48994 0.0
C1192 C 0.19698 0.70979 0.45495 0.0
H1193 H 0.07618 0.72601 0.43542 0.0
H1194 H 0.10872 0.72662 0.4388 0.0
C1195 C 0.21553 0.71154 0.45538 0.0
C1196 C 0.16759 0.70949 0.4896 0.0
H1197 H 0.13313 0.68133 0.46867 0.0
C1198 C 0.15762 0.7244 0.50121 0.0
C1199 C 0.15874 0.69366 0.47835 0.0
C1200 C 0.16889 0.67705 0.46716 0.0
C1201 C 0.13894 0.72402 0.50107 0.0
C1202 C 0.13008 0.70837 0.48868 0.0
C1203 C 0.14003 0.69333 0.47788 0.0
C1204 C 0.11046 0.70755 0.48613 0.0
C1205 C 0.12879 0.74031 0.51435 0.0
C1206 C 0.10076 0.69635 0.51116 0.0
C1207 C 0.08215 0.69591 0.50922 0.0
C1208 C 0.07301 0.70654 0.48189 0.0
C1209 C 0.08285 0.71754 0.45649 0.0
C1210 C 0.10141 0.71802 0.45859 0.0
H1211 H 0.13739 0.74966 0.53107 0.0
H1212 H 0.12358 0.74746 0.48832 0.0
H1213 H 0.11726 0.73647 0.53293 0.0
H1214 H 0.10758 0.68811 0.53246 0.0
H1215 H 0.07491 0.6872 0.52889 0.0
H1216 H 0.7802 0.7208 0.93511 0.0
H1217 H 0.78357 0.68837 0.93667 0.0
H1218 H 0.79078 0.69021 0.06183 0.0
H1219 H 0.78748 0.72261 0.06078 0.0
H1220 H 0.81668 0.66875 0.01723 0.0
H1221 H 0.74571 0.65315 0.98408 0.0
H1222 H 0.7566 0.66877 0.95205 0.0
H1223 H 0.75274 0.67464 0.00228 0.0
C1224 C 0.78247 0.71434 0.96302 0.0
C1225 C 0.78347 0.72433 0.99787 0.0
C1226 C 0.78435 0.69581 0.96382 0.0
C1227 C 0.78728 0.68698 -0.00061 0.0
C1228 C 0.78848 0.69685 0.03412 0.0
H1229 H 0.77745 0.57683 0.06394 0.0
H1230 H 0.77666 0.60933 0.05898 0.0
C1231 C 0.78652 0.71536 0.03343 0.0
C1232 C 0.78904 0.66738 0.00053 0.0
H1233 H 0.7655 0.62882 0.98918 0.0
C1234 C 0.80554 0.65998 0.01097 0.0
C1235 C 0.77441 0.65609 0.99262 0.0
C1236 C 0.75629 0.66348 0.98238 0.0
C1237 C 0.80779 0.64145 0.01368 0.0
C1238 C 0.79317 0.63016 0.00558 0.0
C1239 C 0.77669 0.63758 0.99514 0.0
C1240 C 0.79448 0.6106 0.00925 0.0
C1241 C 0.82562 0.63405 0.02601 0.0
C1242 C 0.80479 0.60063 0.9829 0.0
C1243 C 0.80531 0.58204 0.98569 0.0
C1244 C 0.79553 0.57319 0.01496 0.0
C1245 C 0.78535 0.58329 0.04149 0.0
C1246 C 0.78478 0.60182 0.03854 0.0
H1247 H 0.83461 0.64458 0.03758 0.0
H1248 H 0.82387 0.62363 0.04879 0.0
H1249 H 0.83219 0.62774 0.00038 0.0
H1250 H 0.81222 0.60721 0.95985 0.0
H1251 H 0.81331 0.5746 0.96496 0.0
H1252 H 0.77636 0.28093 0.43371 0.0
H1253 H 0.80874 0.28418 0.43141 0.0
H1254 H 0.81003 0.29169 0.55652 0.0
H1255 H 0.7776 0.28852 0.55932 0.0
H1256 H 0.83082 0.31713 0.5096 0.0
H1257 H 0.84451 0.24601 0.47431 0.0
H1258 H 0.82829 0.25695 0.44389 0.0
H1259 H 0.82358 0.2534 0.49484 0.0
C1260 C 0.78348 0.28326 0.46081 0.0
C1261 C 0.77435 0.28434 0.49676 0.0
C1262 C 0.80199 0.28507 0.4594 0.0
C1263 C 0.8117 0.288 0.49383 0.0
C1264 C 0.8027 0.28937 0.52967 0.0
H1265 H 0.92434 0.2761 0.53421 0.0
H1266 H 0.89181 0.27561 0.53687 0.0
C1267 C 0.78418 0.28749 0.53119 0.0
C1268 C 0.83132 0.28951 0.49247 0.0
H1269 H 0.8691 0.2657 0.4737 0.0
C1270 C 0.83924 0.30592 0.50176 0.0
C1271 C 0.84216 0.27479 0.48252 0.0
C1272 C 0.83428 0.25672 0.47359 0.0
C1273 C 0.85783 0.30803 0.50102 0.0
C1274 C 0.86865 0.29337 0.49049 0.0
C1275 C 0.86071 0.27693 0.48149 0.0
C1276 C 0.8883 0.29456 0.4898 0.0
C1277 C 0.86578 0.32579 0.51218 0.0
C1278 C 0.89706 0.3054 0.46239 0.0
C1279 C 0.91568 0.30577 0.46088 0.0
C1280 C 0.92581 0.2953 0.48678 0.0
C1281 C 0.91693 0.28455 0.51431 0.0
C1282 C 0.89836 0.28415 0.51571 0.0
H1283 H 0.85594 0.33454 0.5271 0.0
H1284 H 0.87746 0.32393 0.53175 0.0
H1285 H 0.87045 0.33271 0.48535 0.0
H1286 H 0.88948 0.31334 0.44179 0.0
H1287 H 0.92215 0.31423 0.43947 0.0
H1288 H 0.71467 0.22076 0.44088 0.0
H1289 H 0.71136 0.18839 0.44295 0.0
H1290 H 0.71279 0.18973 0.56912 0.0
H1291 H 0.71626 0.22211 0.56755 0.0
H1292 H 0.73511 0.16371 0.53507 0.0
H1293 H 0.66626 0.16066 0.47567 0.0
H1294 H 0.6817 0.17318 0.4463 0.0
H1295 H 0.67597 0.18098 0.49445 0.0
C1296 C 0.71428 0.21422 0.46914 0.0
C1297 C 0.7157 0.22409 0.50407 0.0
C1298 C 0.71227 0.19572 0.47021 0.0
C1299 C 0.71156 0.18675 0.50618 0.0
C1300 C 0.7132 0.19647 0.54108 0.0
H1301 H 0.68166 0.07657 0.54959 0.0
H1302 H 0.68344 0.1092 0.54845 0.0
C1303 C 0.71519 0.21497 0.54007 0.0
C1304 C 0.70956 0.16716 0.50739 0.0
H1305 H 0.68166 0.13311 0.48198 0.0
C1306 C 0.72341 0.157 0.5236 0.0
C1307 C 0.69418 0.15852 0.49278 0.0
C1308 C 0.67859 0.16887 0.47662 0.0
C1309 C 0.72244 0.13835 0.52489 0.0
C1310 C 0.70732 0.12969 0.50914 0.0
C1311 C 0.6933 0.13984 0.49366 0.0
C1312 C 0.70585 0.11006 0.50862 0.0
C1313 C 0.73752 0.12804 0.5434 0.0
C1314 C 0.71765 0.09985 0.48601 0.0
C1315 C 0.71669 0.08127 0.48664 0.0
C1316 C 0.70388 0.07259 0.50988 0.0
C1317 C 0.6918 0.08289 0.5318 0.0
C1318 C 0.69274 0.10149 0.53103 0.0
H1319 H 0.74609 0.13671 0.56189 0.0
H1320 H 0.73231 0.11697 0.56168 0.0
H1321 H 0.74596 0.12218 0.52001 0.0
H1322 H 0.72772 0.10627 0.46816 0.0
H1323 H 0.72628 0.0737 0.4697 0.0
H1324 H 0.27674 0.21649 0.92657 0.0
H1325 H 0.30915 0.21275 0.9266 0.0
H1326 H 0.30874 0.20831 0.05245 0.0
H1327 H 0.27644 0.21192 0.05291 0.0
H1328 H 0.33459 0.23458 0.96635 0.0
H1329 H 0.33721 0.16406 0.01533 0.0
H1330 H 0.31726 0.17413 0.99563 0.0
H1331 H 0.32369 0.1783 0.04548 0.0
C1332 C 0.28351 0.21465 0.95428 0.0
C1333 C 0.27395 0.21449 0.98974 0.0
C1334 C 0.30202 0.21252 0.95419 0.0
C1335 C 0.31124 0.21 0.98946 0.0
C1336 C 0.3018 0.20991 0.02487 0.0
H1337 H 0.42105 0.22601 0.05022 0.0
H1338 H 0.38861 0.22644 0.04345 0.0
C1339 C 0.28333 0.21211 0.02504 0.0
C1340 C 0.33085 0.20816 0.98958 0.0
H1341 H 0.3646 0.18021 0.01648 0.0
C1342 C 0.34118 0.22265 0.97699 0.0
C1343 C 0.33934 0.1925 0.00311 0.0
C1344 C 0.32884 0.17628 0.01534 0.0
C1345 C 0.35984 0.22211 0.97881 0.0
C1346 C 0.3683 0.20675 0.99394 0.0
C1347 C 0.35801 0.19202 0.00527 0.0
C1348 C 0.38783 0.20592 0.99896 0.0
C1349 C 0.37038 0.23799 0.96464 0.0
C1350 C 0.39802 0.19388 0.97692 0.0
C1351 C 0.41656 0.19353 0.98086 0.0
C1352 C 0.42515 0.20509 0.00723 0.0
C1353 C 0.41481 0.21682 0.02995 0.0
C1354 C 0.39631 0.21722 0.02584 0.0
H1355 H 0.36227 0.2468 0.94553 0.0
H1356 H 0.37486 0.24592 0.99026 0.0
H1357 H 0.3824 0.23364 0.94821 0.0
H1358 H 0.39165 0.18497 0.95623 0.0
H1359 H 0.42418 0.18422 0.96328 0.0
H1360 H 0.29092 0.77436 0.42419 0.0
H1361 H 0.2945 0.80675 0.42137 0.0
H1362 H 0.28086 0.8106 0.54377 0.0
H1363 H 0.27761 0.77829 0.54718 0.0
H1364 H 0.27017 0.833 0.43583 0.0
H1365 H 0.3268 0.83888 0.53919 0.0
H1366 H 0.31987 0.8178 0.51874 0.0
H1367 H 0.30814 0.82724 0.55978 0.0
C1368 C 0.28873 0.78208 0.45056 0.0
C1369 C 0.28407 0.77368 0.48597 0.0
C1370 C 0.2908 0.80058 0.44889 0.0
C1371 C 0.2883 0.81103 0.48254 0.0
C1372 C 0.28334 0.80274 0.51771 0.0
H1373 H 0.27274 0.9224 0.52763 0.0
H1374 H 0.27332 0.88979 0.52744 0.0
C1375 C 0.28136 0.78426 0.5195 0.0
C1376 C 0.29024 0.83066 0.48066 0.0
H1377 H 0.31164 0.86598 0.5229 0.0
C1378 C 0.27938 0.84019 0.45456 0.0
C1379 C 0.30234 0.84 0.50499 0.0
C1380 C 0.31508 0.83045 0.53197 0.0
C1381 C 0.27989 0.85887 0.45308 0.0
C1382 C 0.29153 0.86816 0.47832 0.0
C1383 C 0.30266 0.8587 0.50381 0.0
C1384 C 0.29189 0.8878 0.47926 0.0
C1385 C 0.26779 0.86869 0.42521 0.0
C1386 C 0.30234 0.89732 0.45245 0.0
C1387 C 0.30218 0.91595 0.45267 0.0
C1388 C 0.29154 0.92532 0.47968 0.0
C1389 C 0.28128 0.91563 0.50683 0.0
C1390 C 0.28149 0.89701 0.50664 0.0
H1391 H 0.25926 0.8595 0.40789 0.0
H1392 H 0.2591 0.87798 0.44184 0.0
H1393 H 0.27592 0.87682 0.40473 0.0
H1394 H 0.31049 0.89032 0.43123 0.0
H1395 H 0.31042 0.923 0.43173 0.0
H1396 H 0.72082 0.78127 0.05879 0.0
H1397 H 0.68839 0.78468 0.05788 0.0
H1398 H 0.68961 0.79084 0.93243 0.0
H1399 H 0.722 0.78751 0.93283 0.0
H1400 H 0.66838 0.81705 0.97596 0.0
H1401 H 0.65289 0.7465 0.01335 0.0
H1402 H 0.66859 0.75773 0.04462 0.0
H1403 H 0.67434 0.75332 0.99453 0.0
C1404 C 0.71422 0.78332 0.03096 0.0
C1405 C 0.72404 0.78401 0.99584 0.0
C1406 C 0.69569 0.78522 0.03053 0.0
C1407 C 0.68668 0.78786 0.99506 0.0
C1408 C 0.69638 0.78877 0.96006 0.0
H1409 H 0.57597 0.77722 0.935 0.0
H1410 H 0.60851 0.77648 0.93855 0.0
C1411 C 0.71488 0.78679 0.96039 0.0
C1412 C 0.66708 0.78963 0.99429 0.0
H1413 H 0.62855 0.76628 0.00794 0.0
C1414 C 0.65963 0.806 0.98306 0.0
C1415 C 0.65581 0.7751 0.00329 0.0
C1416 C 0.66323 0.7571 0.01437 0.0
C1417 C 0.64109 0.80824 0.98066 0.0
C1418 C 0.62983 0.79374 0.9899 0.0
C1419 C 0.63729 0.77737 0.00109 0.0
C1420 C 0.61025 0.79506 0.98686 0.0
C1421 C 0.63366 0.82593 0.96748 0.0
C1422 C 0.60053 0.80579 0.01284 0.0
C1423 C 0.58192 0.80628 0.01085 0.0
C1424 C 0.57279 0.79605 0.98276 0.0
C1425 C 0.58263 0.78546 0.95653 0.0
C1426 C 0.60119 0.78493 0.95869 0.0
H1427 H 0.64412 0.8347 0.95484 0.0
H1428 H 0.62302 0.82392 0.9453 0.0
H1429 H 0.62764 0.83289 0.99294 0.0
H1430 H 0.60731 0.81355 0.03505 0.0
H1431 H 0.57468 0.8146 0.03132 0.0
loop_
_geom_bond_atom_site_label_1
_geom_bond_atom_site_label_2
_geom_bond_distance
_geom_bond_site_symmetry_2
_ccdc_geom_bond_type
Sc0 O3 2.025 . S
Sc0 O10 2.105 . S
Sc0 O13 2.105 . S
Sc0 O16 2.105 . S
Sc0 O19 2.105 . S
Sc1 O3 2.025 . S
Sc1 O11 2.105 . S
Sc1 O15 2.105 1_554 S
Sc1 O17 2.105 . S
Sc1 O21 2.105 1_554 S
Sc2 O3 2.025 1_556 S
Sc2 O12 2.105 . S
Sc2 O14 2.105 . S
Sc2 O18 2.105 . S
Sc2 O20 2.105 . S
O3 Sc0 2.025 . S
O3 Sc1 2.025 . S
O3 Sc2 2.025 1_554 S
C4 O10 1.268 . S
C4 O20 1.268 1_554 S
C5 O11 1.268 . S
C5 O19 1.268 . S
C6 O12 1.268 . S
C6 O21 1.268 . S
C7 O13 1.268 . S
C7 O17 1.268 . S
C8 O14 1.268 1_554 S
C8 O16 1.268 . S
C9 O15 1.268 . S
C9 O18 1.268 . S
O10 Sc0 2.105 . S
O10 C4 1.268 . S
O11 Sc1 2.105 . S
O11 C5 1.268 . S
O12 Sc2 2.105 . S
O12 C6 1.268 . S
O13 Sc0 2.105 . S
O13 C7 1.268 . S
O14 Sc2 2.105 . S
O14 C8 1.268 1_556 S
O15 Sc1 2.105 1_556 S
O15 C9 1.268 . S
O16 Sc0 2.105 . S
O16 C8 1.268 . S
O17 Sc1 2.105 . S
O17 C7 1.268 . S
O18 Sc2 2.105 . S
O18 C9 1.268 . S
O19 Sc0 2.105 . S
O19 C5 1.268 . S
O20 Sc2 2.105 . S
O20 C4 1.268 1_556 S
O21 Sc1 2.105 1_556 S
O21 C6 1.268 . S
Sc22 O25 2.025 . S
Sc22 O32 2.105 . S
Sc22 O35 2.105 . S
Sc22 O38 2.105 . S
Sc22 O41 2.105 . S
Sc23 O25 2.025 . S
Sc23 O33 2.105 . S
Sc23 O37 2.105 . S
Sc23 O39 2.105 . S
Sc23 O43 2.105 . S
Sc24 O25 2.025 . S
Sc24 O34 2.105 . S
Sc24 O36 2.105 . S
Sc24 O40 2.105 . S
Sc24 O42 2.105 . S
O25 Sc22 2.025 . S
O25 Sc23 2.025 . S
O25 Sc24 2.025 . S
C26 O32 1.268 . S
C26 O42 1.268 . S
C27 O33 1.268 . S
C27 O41 1.268 . S
C28 O34 1.268 . S
C28 O43 1.268 . S
C29 O35 1.268 . S
C29 O39 1.268 . S
C30 O36 1.268 . S
C30 O38 1.268 . S
C31 O37 1.268 . S
C31 O40 1.268 . S
O32 Sc22 2.105 . S
O32 C26 1.268 . S
O33 Sc23 2.105 . S
O33 C27 1.268 . S
O34 Sc24 2.105 . S
O34 C28 1.268 . S
O35 Sc22 2.105 . S
O35 C29 1.268 . S
O36 Sc24 2.105 . S
O36 C30 1.268 . S
O37 Sc23 2.105 . S
O37 C31 1.268 . S
O38 Sc22 2.105 . S
O38 C30 1.268 . S
O39 Sc23 2.105 . S
O39 C29 1.268 . S
O40 Sc24 2.105 . S
O40 C31 1.268 . S
O41 Sc22 2.105 . S
O41 C27 1.268 . S
O42 Sc24 2.105 . S
O42 C26 1.268 . S
O43 Sc23 2.105 . S
O43 C28 1.268 . S
Sc44 O47 2.025 1_556 S
Sc44 O54 2.105 . S
Sc44 O57 2.105 . S
Sc44 O60 2.105 . S
Sc44 O63 2.105 . S
Sc45 O47 2.025 . S
Sc45 O55 2.105 1_554 S
Sc45 O59 2.105 . S
Sc45 O61 2.105 1_554 S
Sc45 O65 2.105 . S
Sc46 O47 2.025 . S
Sc46 O56 2.105 . S
Sc46 O58 2.105 . S
Sc46 O62 2.105 . S
Sc46 O64 2.105 . S
O47 Sc44 2.025 1_554 S
O47 Sc45 2.025 . S
O47 Sc46 2.025 . S
C48 O54 1.268 1_554 S
C48 O64 1.268 . S
C49 O55 1.268 . S
C49 O63 1.268 . S
C50 O56 1.268 . S
C50 O65 1.268 . S
C51 O57 1.268 . S
C51 O61 1.268 . S
C52 O58 1.268 . S
C52 O60 1.268 1_554 S
C53 O59 1.268 . S
C53 O62 1.268 . S
O54 Sc44 2.105 . S
O54 C48 1.268 1_556 S
O55 Sc45 2.105 1_556 S
O55 C49 1.268 . S
O56 Sc46 2.105 . S
O56 C50 1.268 . S
O57 Sc44 2.105 . S
O57 C51 1.268 . S
O58 Sc46 2.105 . S
O58 C52 1.268 . S
O59 Sc45 2.105 . S
O59 C53 1.268 . S
O60 Sc44 2.105 . S
O60 C52 1.268 1_556 S
O61 Sc45 2.105 1_556 S
O61 C51 1.268 . S
O62 Sc46 2.105 . S
O62 C53 1.268 . S
O63 Sc44 2.105 . S
O63 C49 1.268 . S
O64 Sc46 2.105 . S
O64 C48 1.268 . S
O65 Sc45 2.105 . S
O65 C50 1.268 . S
Sc66 O69 2.025 . S
Sc66 O76 2.105 . S
Sc66 O79 2.105 . S
Sc66 O82 2.105 . S
Sc66 O85 2.105 . S
Sc67 O69 2.025 . S
Sc67 O77 2.105 . S
Sc67 O81 2.105 . S
Sc67 O83 2.105 . S
Sc67 O87 2.105 . S
Sc68 O69 2.025 . S
Sc68 O78 2.105 . S
Sc68 O80 2.105 . S
Sc68 O84 2.105 . S
Sc68 O86 2.105 . S
O69 Sc66 2.025 . S
O69 Sc67 2.025 . S
O69 Sc68 2.025 . S
C70 O76 1.268 . S
C70 O86 1.268 . S
C71 O77 1.268 . S
C71 O85 1.268 . S
C72 O78 1.268 . S
C72 O87 1.268 . S
C73 O79 1.268 . S
C73 O83 1.268 . S
C74 O80 1.268 . S
C74 O82 1.268 . S
C75 O81 1.268 . S
C75 O84 1.268 . S
O76 Sc66 2.105 . S
O76 C70 1.268 . S
O77 Sc67 2.105 . S
O77 C71 1.268 . S
O78 Sc68 2.105 . S
O78 C72 1.268 . S
O79 Sc66 2.105 . S
O79 C73 1.268 . S
O80 Sc68 2.105 . S
O80 C74 1.268 . S
O81 Sc67 2.105 . S
O81 C75 1.268 . S
O82 Sc66 2.105 . S
O82 C74 1.268 . S
O83 Sc67 2.105 . S
O83 C73 1.268 . S
O84 Sc68 2.105 . S
O84 C75 1.268 . S
O85 Sc66 2.105 . S
O85 C71 1.268 . S
O86 Sc68 2.105 . S
O86 C70 1.268 . S
O87 Sc67 2.105 . S
O87 C72 1.268 . S
C88 C89 1.391 . S
C88 C92 1.391 . S
C88 H130 0.948 . S
C89 C88 1.391 . S
C89 C90 1.391 . S
C90 C89 1.391 . S
C90 H146 0.947 . S
C90 C147 1.392 . S
C91 C92 1.391 . S
C91 C95 1.397 . S
C91 C147 1.419 . S
C92 C88 1.391 . S
C92 C91 1.391 . S
C92 C93 1.399 . S
C93 C92 1.399 . S
C93 C96 1.396 . S
C93 C105 1.453 . S
C93 C106 1.684 . S
H94 C118 0.948 . S
C95 C91 1.397 . S
C95 C96 1.394 . S
C95 C114 1.723 1_556 S
C96 C93 1.396 . S
C96 C95 1.394 . S
C96 C126 1.723 . S
H97 C120 0.947 . S
H98 C121 0.948 . S
H99 C127 0.982 . S
H100 C128 0.979 . S
H101 C128 0.980 . S
H102 C128 0.983 . S
H103 C127 0.979 . S
H104 C127 0.977 . S
C105 C93 1.453 . S
C105 H134 0.982 . S
C105 H135 0.979 . S
C105 H136 0.977 . S
C106 C93 1.684 . S
C106 H131 0.979 . S
C106 H132 0.980 . S
C106 H133 0.983 . S
C107 C108 1.391 . S
C107 C112 1.391 . S
C107 H137 0.948 . S
C108 C107 1.391 . S
C108 C109 1.391 . S
C109 C108 1.391 . S
C109 C110 1.392 . S
C109 H138 0.947 . S
C110 C109 1.392 . S
C110 C111 1.419 . S
C110 H139 0.948 . S
C111 C110 1.419 . S
C111 C112 1.391 . S
C111 C115 1.397 . S
C112 C107 1.391 . S
C112 C111 1.391 . S
C112 C113 1.399 . S
C113 C112 1.399 . S
C113 C114 1.396 . S
C113 C116 1.453 . S
C113 C117 1.684 . S
C114 C95 1.723 1_554 S
C114 C113 1.396 . S
C114 C115 1.394 . S
C115 C111 1.397 . S
C115 C114 1.394 . S
C115 C125 1.723 . S
C116 C113 1.453 . S
C116 H140 0.982 . S
C116 H141 0.979 . S
C116 H142 0.977 1_554 S
C117 C113 1.684 . S
C117 H143 0.979 . S
C117 H144 0.980 1_554 S
C117 H145 0.983 . S
C118 H94 0.948 . S
C118 C119 1.391 1_554 S
C118 C123 1.391 . S
C119 C118 1.391 1_556 S
C119 C120 1.391 . S
C120 H97 0.947 . S
C120 C119 1.391 . S
C120 C121 1.392 . S
C121 H98 0.948 . S
C121 C120 1.392 . S
C121 C122 1.419 . S
C122 C121 1.419 . S
C122 C123 1.391 1_556 S
C122 C126 1.397 . S
C123 C118 1.391 . S
C123 C122 1.391 1_554 S
C123 C124 1.399 . S
C124 C123 1.399 . S
C124 C125 1.396 . S
C124 C127 1.453 . S
C124 C128 1.684 . S
C125 C115 1.723 . S
C125 C124 1.396 . S
C125 C126 1.394 1_554 S
C126 C96 1.723 . S
C126 C122 1.397 . S
C126 C125 1.394 1_556 S
C127 H99 0.982 . S
C127 H103 0.979 . S
C127 H104 0.977 . S
C127 C124 1.453 . S
C128 H100 0.979 . S
C128 H101 0.980 . S
C128 H102 0.983 . S
C128 C124 1.684 . S
H129 C147 0.948 . S
H130 C88 0.948 . S
H131 C106 0.979 . S
H132 C106 0.980 . S
H133 C106 0.983 . S
H134 C105 0.982 . S
H135 C105 0.979 . S
H136 C105 0.977 . S
H137 C107 0.948 . S
H138 C109 0.947 . S
H139 C110 0.948 . S
H140 C116 0.982 . S
H141 C116 0.979 . S
H142 C116 0.977 1_556 S
H143 C117 0.979 . S
H144 C117 0.980 1_556 S
H145 C117 0.983 . S
H146 C90 0.947 . S
C147 C90 1.392 . S
C147 C91 1.419 . S
C147 H129 0.948 . S
C148 C149 1.391 . S
C148 C152 1.391 . S
C148 H190 0.948 . S
C149 C148 1.391 . S
C149 C150 1.391 . S
C150 C149 1.391 . S
C150 H206 0.947 . S
C150 C207 1.392 . S
C151 C152 1.391 . S
C151 C155 1.336 1_455 S
C151 C207 1.419 . S
C152 C148 1.391 . S
C152 C151 1.391 . S
C152 C153 1.399 . S
C153 C152 1.399 . S
C153 C156 1.396 1_455 S
C153 C165 1.453 . S
C153 C166 1.684 . S
H154 C178 0.948 . S
C155 C151 1.336 1_655 S
C155 C156 1.406 . S
C155 C174 1.762 . S
C156 C153 1.396 1_655 S
C156 C155 1.406 . S
C156 C186 1.723 . S
H157 C180 0.947 . S
H158 C181 0.948 . S
H159 C187 0.982 . S
H160 C188 0.979 . S
H161 C188 0.980 . S
H162 C188 0.983 . S
H163 C187 0.979 . S
H164 C187 0.977 . S
C165 C153 1.453 . S
C165 H194 0.982 . S
C165 H195 0.979 . S
C165 H196 0.977 . S
C166 C153 1.684 . S
C166 H191 0.979 . S
C166 H192 0.980 . S
C166 H193 0.983 . S
C167 C168 1.391 . S
C167 C172 1.391 . S
C167 H197 0.948 . S
C168 C167 1.391 . S
C168 C169 1.391 . S
C169 C168 1.391 . S
C169 C170 1.392 . S
C169 H198 0.947 . S
C170 C169 1.392 . S
C170 C171 1.419 . S
C170 H199 0.948 . S
C171 C170 1.419 . S
C171 C172 1.391 . S
C171 C175 1.397 . S
C172 C167 1.391 . S
C172 C171 1.391 . S
C172 C173 1.399 . S
C173 C172 1.399 . S
C173 C174 1.396 . S
C173 C176 1.453 . S
C173 C177 1.684 . S
C174 C155 1.762 . S
C174 C173 1.396 . S
C174 C175 1.394 . S
C175 C171 1.397 . S
C175 C174 1.394 . S
C175 C185 1.723 . S
C176 C173 1.453 . S
C176 H200 0.982 . S
C176 H201 0.979 . S
C176 H202 0.977 1_655 S
C177 C173 1.684 . S
C177 H203 0.979 . S
C177 H204 0.980 1_655 S
C177 H205 0.983 . S
C178 H154 0.948 . S
C178 C179 1.391 . S
C178 C183 1.391 . S
C179 C178 1.391 . S
C179 C180 1.391 . S
C180 H157 0.947 . S
C180 C179 1.391 . S
C180 C181 1.392 . S
C181 H158 0.948 . S
C181 C180 1.392 . S
C181 C182 1.419 . S
C182 C181 1.419 . S
C182 C183 1.391 . S
C182 C186 1.397 . S
C183 C178 1.391 . S
C183 C182 1.391 . S
C183 C184 1.399 . S
C184 C183 1.399 . S
C184 C185 1.396 . S
C184 C187 1.453 . S
C184 C188 1.684 . S
C185 C175 1.723 . S
C185 C184 1.396 . S
C185 C186 1.394 . S
C186 C156 1.723 . S
C186 C182 1.397 . S
C186 C185 1.394 . S
C187 H159 0.982 . S
C187 H163 0.979 . S
C187 H164 0.977 . S
C187 C184 1.453 . S
C188 H160 0.979 . S
C188 H161 0.980 . S
C188 H162 0.983 . S
C188 C184 1.684 . S
H189 C207 0.948 . S
H190 C148 0.948 . S
H191 C166 0.979 . S
H192 C166 0.980 . S
H193 C166 0.983 . S
H194 C165 0.982 . S
H195 C165 0.979 . S
H196 C165 0.977 . S
H197 C167 0.948 . S
H198 C169 0.947 . S
H199 C170 0.948 . S
H200 C176 0.982 . S
H201 C176 0.979 . S
H202 C176 0.977 1_455 S
H203 C177 0.979 . S
H204 C177 0.980 1_455 S
H205 C177 0.983 . S
H206 C150 0.947 . S
C207 C150 1.392 . S
C207 C151 1.419 . S
C207 H189 0.948 . S
C208 C209 1.391 . S
C208 C212 1.391 . S
C208 H250 0.948 . S
C209 C208 1.391 . S
C209 C210 1.391 . S
C210 C209 1.391 . S
C210 H266 0.947 . S
C210 C267 1.392 . S
C211 C212 1.391 . S
C211 C215 1.397 . S
C211 C267 1.419 . S
C212 C208 1.391 . S
C212 C211 1.391 . S
C212 C213 1.399 . S
C213 C212 1.399 . S
C213 C216 1.396 . S
C213 C225 1.453 . S
C213 C226 1.684 . S
H214 C238 0.948 . S
C215 C211 1.397 . S
C215 C216 1.394 . S
C215 C234 1.723 1_554 S
C216 C213 1.396 . S
C216 C215 1.394 . S
C216 C246 1.723 . S
H217 C240 0.947 . S
H218 C241 0.948 . S
H219 C247 0.982 . S
H220 C248 0.979 . S
H221 C248 0.980 . S
H222 C248 0.983 . S
H223 C247 0.979 . S
H224 C247 0.977 . S
C225 C213 1.453 . S
C225 H254 0.982 . S
C225 H255 0.979 . S
C225 H256 0.977 . S
C226 C213 1.684 . S
C226 H251 0.979 . S
C226 H252 0.980 . S
C226 H253 0.983 . S
C227 C228 1.391 . S
C227 C232 1.391 . S
C227 H257 0.948 . S
C228 C227 1.391 . S
C228 C229 1.391 . S
C229 C228 1.391 . S
C229 C230 1.392 . S
C229 H258 0.947 . S
C230 C229 1.392 . S
C230 C231 1.419 . S
C230 H259 0.948 . S
C231 C230 1.419 . S
C231 C232 1.391 . S
C231 C235 1.397 . S
C232 C227 1.391 . S
C232 C231 1.391 . S
C232 C233 1.399 . S
C233 C232 1.399 . S
C233 C234 1.396 . S
C233 C236 1.453 . S
C233 C237 1.684 . S
C234 C215 1.723 1_556 S
C234 C233 1.396 . S
C234 C235 1.394 . S
C235 C231 1.397 . S
C235 C234 1.394 . S
C235 C245 1.723 . S
C236 C233 1.453 . S
C236 H260 0.982 . S
C236 H261 0.979 . S
C236 H262 0.977 1_556 S
C237 C233 1.684 . S
C237 H263 0.979 . S
C237 H264 0.980 1_556 S
C237 H265 0.983 . S
C238 H214 0.948 . S
C238 C239 1.391 1_556 S
C238 C243 1.391 . S
C239 C238 1.391 1_554 S
C239 C240 1.391 . S
C240 H217 0.947 . S
C240 C239 1.391 . S
C240 C241 1.392 . S
C241 H218 0.948 . S
C241 C240 1.392 . S
C241 C242 1.419 . S
C242 C241 1.419 . S
C242 C243 1.391 1_554 S
C242 C246 1.397 . S
C243 C238 1.391 . S
C243 C242 1.391 1_556 S
C243 C244 1.399 . S
C244 C243 1.399 . S
C244 C245 1.396 . S
C244 C247 1.453 . S
C244 C248 1.684 . S
C245 C235 1.723 . S
C245 C244 1.396 . S
C245 C246 1.394 1_556 S
C246 C216 1.723 . S
C246 C242 1.397 . S
C246 C245 1.394 1_554 S
C247 H219 0.982 . S
C247 H223 0.979 . S
C247 H224 0.977 . S
C247 C244 1.453 . S
C248 H220 0.979 . S
C248 H221 0.980 . S
C248 H222 0.983 . S
C248 C244 1.684 . S
H249 C267 0.948 . S
H250 C208 0.948 . S
H251 C226 0.979 . S
H252 C226 0.980 . S
H253 C226 0.983 . S
H254 C225 0.982 . S
H255 C225 0.979 . S
H256 C225 0.977 . S
H257 C227 0.948 . S
H258 C229 0.947 . S
H259 C230 0.948 . S
H260 C236 0.982 . S
H261 C236 0.979 . S
H262 C236 0.977 1_554 S
H263 C237 0.979 . S
H264 C237 0.980 1_554 S
H265 C237 0.983 . S
H266 C210 0.947 . S
C267 C210 1.392 . S
C267 C211 1.419 . S
C267 H249 0.948 . S
C268 C269 1.391 . S
C268 C272 1.391 . S
C268 H310 0.948 . S
C269 C268 1.391 . S
C269 C270 1.391 . S
C270 C269 1.391 . S
C270 H326 0.947 . S
C270 C327 1.392 . S
C271 C272 1.391 . S
C271 C275 1.397 . S
C271 C327 1.419 . S
C272 C268 1.391 . S
C272 C271 1.391 . S
C272 C273 1.399 . S
C273 C272 1.399 . S
C273 C276 1.396 . S
C273 C285 1.453 . S
C273 C286 1.684 . S
H274 C298 0.948 . S
C275 C271 1.397 . S
C275 C276 1.394 . S
C275 C294 1.723 . S
C276 C273 1.396 . S
C276 C275 1.394 . S
C276 C306 1.762 . S
H277 C300 0.947 . S
H278 C301 0.948 . S
H279 C307 0.982 . S
H280 C308 0.979 . S
H281 C308 0.980 . S
H282 C308 0.983 . S
H283 C307 0.979 . S
H284 C307 0.977 . S
C285 C273 1.453 . S
C285 H314 0.982 . S
C285 H315 0.979 . S
C285 H316 0.977 1_455 S
C286 C273 1.684 . S
C286 H311 0.979 . S
C286 H312 0.980 1_455 S
C286 H313 0.983 . S
C287 C288 1.391 . S
C287 C292 1.391 . S
C287 H317 0.948 . S
C288 C287 1.391 . S
C288 C289 1.391 . S
C289 C288 1.391 . S
C289 C290 1.392 . S
C289 H318 0.947 . S
C290 C289 1.392 . S
C290 C291 1.419 . S
C290 H319 0.948 . S
C291 C290 1.419 . S
C291 C292 1.391 . S
C291 C295 1.397 . S
C292 C287 1.391 . S
C292 C291 1.391 . S
C292 C293 1.399 . S
C293 C292 1.399 . S
C293 C294 1.396 . S
C293 C296 1.453 . S
C293 C297 1.684 . S
C294 C275 1.723 . S
C294 C293 1.396 . S
C294 C295 1.394 . S
C295 C291 1.397 . S
C295 C294 1.394 . S
C295 C305 1.723 . S
C296 C293 1.453 . S
C296 H320 0.982 . S
C296 H321 0.979 . S
C296 H322 0.977 . S
C297 C293 1.684 . S
C297 H323 0.979 . S
C297 H324 0.980 . S
C297 H325 0.983 . S
C298 H274 0.948 . S
C298 C299 1.391 . S
C298 C303 1.391 . S
C299 C298 1.391 . S
C299 C300 1.391 . S
C300 H277 0.947 . S
C300 C299 1.391 . S
C300 C301 1.392 . S
C301 H278 0.948 . S
C301 C300 1.392 . S
C301 C302 1.419 . S
C302 C301 1.419 . S
C302 C303 1.391 . S
C302 C306 1.336 1_655 S
C303 C298 1.391 . S
C303 C302 1.391 . S
C303 C304 1.399 . S
C304 C303 1.399 . S
C304 C305 1.396 1_655 S
C304 C307 1.453 . S
C304 C308 1.684 . S
C305 C295 1.723 . S
C305 C304 1.396 1_455 S
C305 C306 1.406 . S
C306 C276 1.762 . S
C306 C302 1.336 1_455 S
C306 C305 1.406 . S
C307 H279 0.982 . S
C307 H283 0.979 . S
C307 H284 0.977 . S
C307 C304 1.453 . S
C308 H280 0.979 . S
C308 H281 0.980 . S
C308 H282 0.983 . S
C308 C304 1.684 . S
H309 C327 0.948 . S
H310 C268 0.948 . S
H311 C286 0.979 . S
H312 C286 0.980 1_655 S
H313 C286 0.983 . S
H314 C285 0.982 . S
H315 C285 0.979 . S
H316 C285 0.977 1_655 S
H317 C287 0.948 . S
H318 C289 0.947 . S
H319 C290 0.948 . S
H320 C296 0.982 . S
H321 C296 0.979 . S
H322 C296 0.977 . S
H323 C297 0.979 . S
H324 C297 0.980 . S
H325 C297 0.983 . S
H326 C270 0.947 . S
C327 C270 1.392 . S
C327 C271 1.419 . S
C327 H309 0.948 . S
C328 C329 1.391 . S
C328 C332 1.391 . S
C328 H370 0.948 . S
C329 C328 1.391 . S
C329 C330 1.391 . S
C330 C329 1.391 . S
C330 H386 0.947 . S
C330 C387 1.392 . S
C331 C332 1.391 . S
C331 C335 1.397 . S
C331 C387 1.419 . S
C332 C328 1.391 . S
C332 C331 1.391 . S
C332 C333 1.399 . S
C333 C332 1.399 . S
C333 C336 1.396 . S
C333 C345 1.453 . S
C333 C346 1.684 . S
H334 C358 0.948 . S
C335 C331 1.397 . S
C335 C336 1.394 . S
C335 C354 1.723 . S
C336 C333 1.396 . S
C336 C335 1.394 . S
C336 C366 1.762 . S
H337 C360 0.947 . S
H338 C361 0.948 . S
H339 C367 0.982 . S
H340 C368 0.979 . S
H341 C368 0.980 . S
H342 C368 0.983 . S
H343 C367 0.979 . S
H344 C367 0.977 . S
C345 C333 1.453 . S
C345 H374 0.982 . S
C345 H375 0.979 . S
C345 H376 0.977 1_565 S
C346 C333 1.684 . S
C346 H371 0.979 . S
C346 H372 0.980 1_565 S
C346 H373 0.983 . S
C347 C348 1.391 . S
C347 C352 1.391 . S
C347 H377 0.948 . S
C348 C347 1.391 . S
C348 C349 1.391 . S
C349 C348 1.391 . S
C349 C350 1.392 . S
C349 H378 0.947 . S
C350 C349 1.392 . S
C350 C351 1.419 . S
C350 H379 0.948 . S
C351 C350 1.419 . S
C351 C352 1.391 . S
C351 C355 1.397 . S
C352 C347 1.391 . S
C352 C351 1.391 . S
C352 C353 1.399 . S
C353 C352 1.399 . S
C353 C354 1.396 . S
C353 C356 1.453 . S
C353 C357 1.684 . S
C354 C335 1.723 . S
C354 C353 1.396 . S
C354 C355 1.394 . S
C355 C351 1.397 . S
C355 C354 1.394 . S
C355 C365 1.723 . S
C356 C353 1.453 . S
C356 H380 0.982 . S
C356 H381 0.979 . S
C356 H382 0.977 . S
C357 C353 1.684 . S
C357 H383 0.979 . S
C357 H384 0.980 . S
C357 H385 0.983 . S
C358 H334 0.948 . S
C358 C359 1.391 . S
C358 C363 1.391 . S
C359 C358 1.391 . S
C359 C360 1.391 . S
C360 H337 0.947 . S
C360 C359 1.391 . S
C360 C361 1.392 . S
C361 H338 0.948 . S
C361 C360 1.392 . S
C361 C362 1.419 . S
C362 C361 1.419 . S
C362 C363 1.391 . S
C362 C366 1.336 1_545 S
C363 C358 1.391 . S
C363 C362 1.391 . S
C363 C364 1.399 . S
C364 C363 1.399 . S
C364 C365 1.396 1_545 S
C364 C367 1.453 . S
C364 C368 1.684 . S
C365 C355 1.723 . S
C365 C364 1.396 1_565 S
C365 C366 1.406 . S
C366 C336 1.762 . S
C366 C362 1.336 1_565 S
C366 C365 1.406 . S
C367 H339 0.982 . S
C367 H343 0.979 . S
C367 H344 0.977 . S
C367 C364 1.453 . S
C368 H340 0.979 . S
C368 H341 0.980 . S
C368 H342 0.983 . S
C368 C364 1.684 . S
H369 C387 0.948 . S
H370 C328 0.948 . S
H371 C346 0.979 . S
H372 C346 0.980 1_545 S
H373 C346 0.983 . S
H374 C345 0.982 . S
H375 C345 0.979 . S
H376 C345 0.977 1_545 S
H377 C347 0.948 . S
H378 C349 0.947 . S
H379 C350 0.948 . S
H380 C356 0.982 . S
H381 C356 0.979 . S
H382 C356 0.977 . S
H383 C357 0.979 . S
H384 C357 0.980 . S
H385 C357 0.983 . S
H386 C330 0.947 . S
C387 C330 1.392 . S
C387 C331 1.419 . S
C387 H369 0.948 . S
C388 C389 1.391 . S
C388 C392 1.391 . S
C388 H430 0.948 . S
C389 C388 1.391 . S
C389 C390 1.391 . S
C390 C389 1.391 . S
C390 H446 0.947 . S
C390 C447 1.392 . S
C391 C392 1.391 . S
C391 C395 1.397 . S
C391 C447 1.419 . S
C392 C388 1.391 . S
C392 C391 1.391 . S
C392 C393 1.399 . S
C393 C392 1.399 . S
C393 C396 1.396 . S
C393 C405 1.453 . S
C393 C406 1.684 . S
H394 C418 0.948 . S
C395 C391 1.397 . S
C395 C396 1.394 . S
C395 C414 1.723 1_554 S
C396 C393 1.396 . S
C396 C395 1.394 . S
C396 C426 1.723 . S
H397 C420 0.947 . S
H398 C421 0.948 . S
H399 C427 0.982 . S
H400 C428 0.979 . S
H401 C428 0.980 . S
H402 C428 0.983 . S
H403 C427 0.979 . S
H404 C427 0.977 . S
C405 C393 1.453 . S
C405 H434 0.982 . S
C405 H435 0.979 . S
C405 H436 0.977 . S
C406 C393 1.684 . S
C406 H431 0.979 . S
C406 H432 0.980 . S
C406 H433 0.983 . S
C407 C408 1.391 . S
C407 C412 1.391 . S
C407 H437 0.948 . S
C408 C407 1.391 . S
C408 C409 1.391 . S
C409 C408 1.391 . S
C409 C410 1.392 . S
C409 H438 0.947 . S
C410 C409 1.392 . S
C410 C411 1.419 . S
C410 H439 0.948 . S
C411 C410 1.419 . S
C411 C412 1.391 . S
C411 C415 1.397 . S
C412 C407 1.391 . S
C412 C411 1.391 . S
C412 C413 1.399 . S
C413 C412 1.399 . S
C413 C414 1.396 . S
C413 C416 1.453 . S
C413 C417 1.684 . S
C414 C395 1.723 1_556 S
C414 C413 1.396 . S
C414 C415 1.394 . S
C415 C411 1.397 . S
C415 C414 1.394 . S
C415 C425 1.723 . S
C416 C413 1.453 . S
C416 H440 0.982 . S
C416 H441 0.979 . S
C416 H442 0.977 1_556 S
C417 C413 1.684 . S
C417 H443 0.979 . S
C417 H444 0.980 1_556 S
C417 H445 0.983 . S
C418 H394 0.948 . S
C418 C419 1.391 1_556 S
C418 C423 1.391 . S
C419 C418 1.391 1_554 S
C419 C420 1.391 . S
C420 H397 0.947 . S
C420 C419 1.391 . S
C420 C421 1.392 . S
C421 H398 0.948 . S
C421 C420 1.392 . S
C421 C422 1.419 . S
C422 C421 1.419 . S
C422 C423 1.391 1_554 S
C422 C426 1.397 . S
C423 C418 1.391 . S
C423 C422 1.391 1_556 S
C423 C424 1.399 . S
C424 C423 1.399 . S
C424 C425 1.396 . S
C424 C427 1.453 . S
C424 C428 1.684 . S
C425 C415 1.723 . S
C425 C424 1.396 . S
C425 C426 1.394 1_556 S
C426 C396 1.723 . S
C426 C422 1.397 . S
C426 C425 1.394 1_554 S
C427 H399 0.982 . S
C427 H403 0.979 . S
C427 H404 0.977 . S
C427 C424 1.453 . S
C428 H400 0.979 . S
C428 H401 0.980 . S
C428 H402 0.983 . S
C428 C424 1.684 . S
H429 C447 0.948 . S
H430 C388 0.948 . S
H431 C406 0.979 . S
H432 C406 0.980 . S
H433 C406 0.983 . S
H434 C405 0.982 . S
H435 C405 0.979 . S
H436 C405 0.977 . S
H437 C407 0.948 . S
H438 C409 0.947 . S
H439 C410 0.948 . S
H440 C416 0.982 . S
H441 C416 0.979 . S
H442 C416 0.977 1_554 S
H443 C417 0.979 . S
H444 C417 0.980 1_554 S
H445 C417 0.983 . S
H446 C390 0.947 . S
C447 C390 1.392 . S
C447 C391 1.419 . S
C447 H429 0.948 . S
C448 C449 1.391 . S
C448 C452 1.391 . S
C448 H490 0.948 . S
C449 C448 1.391 . S
C449 C450 1.391 . S
C450 C449 1.391 . S
C450 H506 0.947 . S
C450 C507 1.392 . S
C451 C452 1.391 . S
C451 C455 1.397 . S
C451 C507 1.419 . S
C452 C448 1.391 . S
C452 C451 1.391 . S
C452 C453 1.399 . S
C453 C452 1.399 . S
C453 C456 1.396 . S
C453 C465 1.453 . S
C453 C466 1.652 1_545 S
H454 C478 0.948 . S
C455 C451 1.397 . S
C455 C456 1.394 . S
C455 C474 1.723 . S
C456 C453 1.396 . S
C456 C455 1.394 . S
C456 C486 1.764 . S
H457 C480 0.947 . S
H458 C481 0.948 . S
H459 C487 0.982 . S
H460 C488 0.979 . S
H461 C488 0.980 . S
H462 C488 0.983 . S
H463 C487 0.979 . S
H464 C487 1.020 . S
C465 C453 1.453 . S
C465 H494 0.982 . S
C465 H495 0.979 . S
C465 H496 0.977 1_545 S
C466 C453 1.652 1_565 S
C466 H491 0.973 1_565 S
C466 H492 1.021 . S
C466 H493 0.980 1_565 S
C467 C468 1.391 . S
C467 C472 1.391 . S
C467 H497 0.948 . S
C468 C467 1.391 . S
C468 C469 1.391 . S
C469 C468 1.391 . S
C469 C470 1.392 . S
C469 H498 0.947 . S
C470 C469 1.392 . S
C470 C471 1.419 . S
C470 H499 0.948 . S
C471 C470 1.419 . S
C471 C472 1.391 . S
C471 C475 1.397 . S
C472 C467 1.391 . S
C472 C471 1.391 . S
C472 C473 1.399 . S
C473 C472 1.399 . S
C473 C474 1.396 . S
C473 C476 1.453 . S
C473 C477 1.684 . S
C474 C455 1.723 . S
C474 C473 1.396 . S
C474 C475 1.394 . S
C475 C471 1.397 . S
C475 C474 1.394 . S
C475 C485 1.723 . S
C476 C473 1.453 . S
C476 H500 0.982 . S
C476 H501 0.979 . S
C476 H502 0.977 . S
C477 C473 1.684 . S
C477 H503 0.979 . S
C477 H504 0.980 . S
C477 H505 0.983 . S
C478 H454 0.948 . S
C478 C479 1.391 . S
C478 C483 1.391 . S
C479 C478 1.391 . S
C479 C480 1.391 . S
C480 H457 0.947 . S
C480 C479 1.391 . S
C480 C481 1.392 . S
C481 H458 0.948 . S
C481 C480 1.392 . S
C481 C482 1.419 . S
C482 C481 1.419 . S
C482 C483 1.391 . S
C482 C486 1.333 1_565 S
C483 C478 1.391 . S
C483 C482 1.391 . S
C483 C484 1.399 . S
C484 C483 1.399 . S
C484 C485 1.396 1_565 S
C484 C487 1.453 . S
C484 C488 1.684 . S
C485 C475 1.723 . S
C485 C484 1.396 1_545 S
C485 C486 1.407 . S
C486 C456 1.764 . S
C486 C482 1.333 1_545 S
C486 C485 1.407 . S
C487 H459 0.982 . S
C487 H463 0.979 . S
C487 H464 1.020 . S
C487 C484 1.453 . S
C488 H460 0.979 . S
C488 H461 0.980 . S
C488 H462 0.983 . S
C488 C484 1.684 . S
H489 C507 0.948 . S
H490 C448 0.948 . S
H491 C466 0.973 1_545 S
H492 C466 1.021 . S
H493 C466 0.980 1_545 S
H494 C465 0.982 . S
H495 C465 0.979 . S
H496 C465 0.977 1_565 S
H497 C467 0.948 . S
H498 C469 0.947 . S
H499 C470 0.948 . S
H500 C476 0.982 . S
H501 C476 0.979 . S
H502 C476 0.977 . S
H503 C477 0.979 . S
H504 C477 0.980 . S
H505 C477 0.983 . S
H506 C450 0.947 . S
C507 C450 1.392 . S
C507 C451 1.419 . S
C507 H489 0.948 . S
C508 C509 1.391 1_554 S
C508 C512 1.391 . S
C508 H550 0.948 . S
C509 C508 1.391 1_556 S
C509 C510 1.391 . S
C510 C509 1.391 . S
C510 H566 0.947 . S
C510 C567 1.392 . S
C511 C512 1.391 1_556 S
C511 C515 1.397 . S
C511 C567 1.419 . S
C512 C508 1.391 . S
C512 C511 1.391 1_554 S
C512 C513 1.399 . S
C513 C512 1.399 . S
C513 C516 1.396 . S
C513 C525 1.453 . S
C513 C526 1.684 . S
H514 C538 0.948 . S
C515 C511 1.397 . S
C515 C516 1.394 1_556 S
C515 C534 1.723 . S
C516 C513 1.396 . S
C516 C515 1.394 1_554 S
C516 C546 1.723 . S
H517 C540 0.947 . S
H518 C541 0.948 . S
H519 C547 0.982 . S
H520 C548 0.979 . S
H521 C548 0.980 1_556 S
H522 C548 0.983 . S
H523 C547 0.979 . S
H524 C547 0.977 1_556 S
C525 C513 1.453 . S
C525 H554 0.982 . S
C525 H555 0.979 . S
C525 H556 0.977 . S
C526 C513 1.684 . S
C526 H551 0.979 . S
C526 H552 0.980 . S
C526 H553 0.983 . S
C527 C528 1.391 . S
C527 C532 1.391 . S
C527 H557 0.948 . S
C528 C527 1.391 . S
C528 C529 1.391 . S
C529 C528 1.391 . S
C529 C530 1.392 . S
C529 H558 0.947 . S
C530 C529 1.392 . S
C530 C531 1.419 . S
C530 H559 0.948 . S
C531 C530 1.419 . S
C531 C532 1.391 . S
C531 C535 1.397 . S
C532 C527 1.391 . S
C532 C531 1.391 . S
C532 C533 1.399 . S
C533 C532 1.399 . S
C533 C534 1.396 . S
C533 C536 1.453 . S
C533 C537 1.684 . S
C534 C515 1.723 . S
C534 C533 1.396 . S
C534 C535 1.394 . S
C535 C531 1.397 . S
C535 C534 1.394 . S
C535 C545 1.723 1_556 S
C536 C533 1.453 . S
C536 H560 0.982 . S
C536 H561 0.979 . S
C536 H562 0.977 . S
C537 C533 1.684 . S
C537 H563 0.979 . S
C537 H564 0.980 . S
C537 H565 0.983 . S
C538 H514 0.948 . S
C538 C539 1.391 . S
C538 C543 1.391 . S
C539 C538 1.391 . S
C539 C540 1.391 . S
C540 H517 0.947 . S
C540 C539 1.391 . S
C540 C541 1.392 . S
C541 H518 0.948 . S
C541 C540 1.392 . S
C541 C542 1.419 . S
C542 C541 1.419 . S
C542 C543 1.391 . S
C542 C546 1.397 . S
C543 C538 1.391 . S
C543 C542 1.391 . S
C543 C544 1.399 . S
C544 C543 1.399 . S
C544 C545 1.396 . S
C544 C547 1.453 . S
C544 C548 1.684 . S
C545 C535 1.723 1_554 S
C545 C544 1.396 . S
C545 C546 1.394 . S
C546 C516 1.723 . S
C546 C542 1.397 . S
C546 C545 1.394 . S
C547 H519 0.982 . S
C547 H523 0.979 . S
C547 H524 0.977 1_554 S
C547 C544 1.453 . S
C548 H520 0.979 . S
C548 H521 0.980 1_554 S
C548 H522 0.983 . S
C548 C544 1.684 . S
H549 C567 0.948 . S
H550 C508 0.948 . S
H551 C526 0.979 . S
H552 C526 0.980 . S
H553 C526 0.983 . S
H554 C525 0.982 . S
H555 C525 0.979 . S
H556 C525 0.977 . S
H557 C527 0.948 . S
H558 C529 0.947 . S
H559 C530 0.948 . S
H560 C536 0.982 . S
H561 C536 0.979 . S
H562 C536 0.977 . S
H563 C537 0.979 . S
H564 C537 0.980 . S
H565 C537 0.983 . S
H566 C510 0.947 . S
C567 C510 1.392 . S
C567 C511 1.419 . S
C567 H549 0.948 . S
H568 C576 0.929 . S
H569 C578 0.930 . S
H570 C580 0.930 . S
H571 C583 0.929 . S
H572 C586 0.930 . S
H573 C588 0.960 . S
H574 C588 0.960 . S
H575 C588 0.960 . S
C576 H568 0.929 . S
C576 C577 1.377 . S
C576 C578 1.384 . S
C577 C576 1.377 . S
C577 C583 1.390 . S
C578 H569 0.930 . S
C578 C576 1.384 . S
C578 C579 1.372 . S
C579 C578 1.372 . S
C579 C580 1.400 . S
C579 C584 1.490 . S
C580 H570 0.930 . S
C580 C579 1.400 . S
C580 C583 1.386 . S
H581 C597 0.930 . S
H582 C598 0.931 . S
C583 H571 0.929 . S
C583 C577 1.390 . S
C583 C580 1.386 . S
C584 C579 1.490 . S
C584 C586 1.395 . S
C584 C587 1.403 . S
H585 C591 0.930 . S
C586 H572 0.930 . S
C586 C584 1.395 . S
C586 C589 1.403 . S
C587 C584 1.403 . S
C587 C588 1.524 . S
C587 C591 1.400 . S
C588 H573 0.960 . S
C588 H574 0.960 . S
C588 H575 0.960 . S
C588 C587 1.524 . S
C589 C586 1.403 . S
C589 C590 1.392 . S
C589 C593 1.495 . S
C590 C589 1.392 . S
C590 C591 1.385 . S
C590 C592 1.478 . S
C591 H585 0.930 . S
C591 C587 1.400 . S
C591 C590 1.385 . S
C592 C590 1.478 . S
C592 C594 1.381 . S
C592 C598 1.383 . S
C593 C589 1.495 . S
C593 H599 0.959 . S
C593 H600 0.961 . S
C593 H601 0.960 . S
C594 C592 1.381 . S
C594 C595 1.394 . S
C594 H602 0.930 . S
C595 C594 1.394 . S
C595 C596 1.383 . S
C595 H603 0.929 . S
C596 C595 1.383 . S
C596 C597 1.377 . S
C597 H581 0.930 . S
C597 C596 1.377 . S
C597 C598 1.379 . S
C598 H582 0.931 . S
C598 C592 1.383 . S
C598 C597 1.379 . S
H599 C593 0.959 . S
H600 C593 0.961 . S
H601 C593 0.960 . S
H602 C594 0.930 . S
H603 C595 0.929 . S
H604 C612 0.929 . S
H605 C614 0.930 . S
H606 C616 0.930 . S
H607 C619 0.929 . S
H608 C622 0.930 . S
H609 C624 0.960 . S
H610 C624 0.960 . S
H611 C624 0.960 . S
C612 H604 0.929 . S
C612 C613 1.377 . S
C612 C614 1.384 . S
C613 C612 1.377 . S
C613 C619 1.390 . S
C614 H605 0.930 . S
C614 C612 1.384 . S
C614 C615 1.372 . S
C615 C614 1.372 . S
C615 C616 1.400 . S
C615 C620 1.490 . S
C616 H606 0.930 . S
C616 C615 1.400 . S
C616 C619 1.386 . S
H617 C633 0.930 . S
H618 C634 0.931 . S
C619 H607 0.929 . S
C619 C613 1.390 . S
C619 C616 1.386 . S
C620 C615 1.490 . S
C620 C622 1.395 . S
C620 C623 1.403 . S
H621 C627 0.930 . S
C622 H608 0.930 . S
C622 C620 1.395 . S
C622 C625 1.403 . S
C623 C620 1.403 . S
C623 C624 1.524 . S
C623 C627 1.400 . S
C624 H609 0.960 . S
C624 H610 0.960 . S
C624 H611 0.960 . S
C624 C623 1.524 . S
C625 C622 1.403 . S
C625 C626 1.392 . S
C625 C629 1.495 . S
C626 C625 1.392 . S
C626 C627 1.385 . S
C626 C628 1.478 . S
C627 H621 0.930 . S
C627 C623 1.400 . S
C627 C626 1.385 . S
C628 C626 1.478 . S
C628 C630 1.381 . S
C628 C634 1.383 . S
C629 C625 1.495 . S
C629 H635 0.959 . S
C629 H636 0.961 . S
C629 H637 0.960 . S
C630 C628 1.381 . S
C630 C631 1.394 . S
C630 H638 0.930 . S
C631 C630 1.394 . S
C631 C632 1.383 . S
C631 H639 0.929 . S
C632 C631 1.383 . S
C632 C633 1.377 . S
C633 H617 0.930 . S
C633 C632 1.377 . S
C633 C634 1.379 . S
C634 H618 0.931 . S
C634 C628 1.383 . S
C634 C633 1.379 . S
H635 C629 0.959 . S
H636 C629 0.961 . S
H637 C629 0.960 . S
H638 C630 0.930 . S
H639 C631 0.929 . S
H640 C648 0.929 . S
H641 C650 0.930 . S
H642 C652 0.930 . S
H643 C655 0.929 . S
H644 C658 0.930 . S
H645 C660 0.960 . S
H646 C660 0.960 . S
H647 C660 0.960 . S
C648 H640 0.929 . S
C648 C649 1.377 . S
C648 C650 1.384 . S
C649 C648 1.377 . S
C649 C655 1.390 . S
C650 H641 0.930 . S
C650 C648 1.384 . S
C650 C651 1.372 . S
C651 C650 1.372 . S
C651 C652 1.400 . S
C651 C656 1.490 . S
C652 H642 0.930 . S
C652 C651 1.400 . S
C652 C655 1.386 . S
H653 C669 0.930 . S
H654 C670 0.931 . S
C655 H643 0.929 . S
C655 C649 1.390 . S
C655 C652 1.386 . S
C656 C651 1.490 . S
C656 C658 1.395 . S
C656 C659 1.403 . S
H657 C663 0.930 . S
C658 H644 0.930 . S
C658 C656 1.395 . S
C658 C661 1.403 . S
C659 C656 1.403 . S
C659 C660 1.524 . S
C659 C663 1.400 . S
C660 H645 0.960 . S
C660 H646 0.960 . S
C660 H647 0.960 . S
C660 C659 1.524 . S
C661 C658 1.403 . S
C661 C662 1.392 . S
C661 C665 1.495 . S
C662 C661 1.392 . S
C662 C663 1.385 . S
C662 C664 1.478 . S
C663 H657 0.930 . S
C663 C659 1.400 . S
C663 C662 1.385 . S
C664 C662 1.478 . S
C664 C666 1.381 . S
C664 C670 1.383 . S
C665 C661 1.495 . S
C665 H671 0.959 . S
C665 H672 0.961 . S
C665 H673 0.960 . S
C666 C664 1.381 . S
C666 C667 1.394 . S
C666 H674 0.930 . S
C667 C666 1.394 . S
C667 C668 1.383 . S
C667 H675 0.929 . S
C668 C667 1.383 . S
C668 C669 1.377 . S
C669 H653 0.930 . S
C669 C668 1.377 . S
C669 C670 1.379 . S
C670 H654 0.931 . S
C670 C664 1.383 . S
C670 C669 1.379 . S
H671 C665 0.959 . S
H672 C665 0.961 . S
H673 C665 0.960 . S
H674 C666 0.930 . S
H675 C667 0.929 . S
H676 C684 0.929 . S
H677 C686 0.930 . S
H678 C688 0.930 . S
H679 C691 0.929 . S
H680 C694 0.930 . S
H681 C696 0.960 . S
H682 C696 0.960 . S
H683 C696 0.960 . S
C684 H676 0.929 . S
C684 C685 1.377 . S
C684 C686 1.384 . S
C685 C684 1.377 . S
C685 C691 1.390 . S
C686 H677 0.930 . S
C686 C684 1.384 . S
C686 C687 1.372 . S
C687 C686 1.372 . S
C687 C688 1.400 . S
C687 C692 1.490 . S
C688 H678 0.930 . S
C688 C687 1.400 . S
C688 C691 1.386 . S
H689 C705 0.930 . S
H690 C706 0.931 . S
C691 H679 0.929 . S
C691 C685 1.390 . S
C691 C688 1.386 . S
C692 C687 1.490 . S
C692 C694 1.395 . S
C692 C695 1.403 . S
H693 C699 0.930 . S
C694 H680 0.930 . S
C694 C692 1.395 . S
C694 C697 1.403 . S
C695 C692 1.403 . S
C695 C696 1.524 . S
C695 C699 1.400 . S
C696 H681 0.960 . S
C696 H682 0.960 . S
C696 H683 0.960 . S
C696 C695 1.524 . S
C697 C694 1.403 . S
C697 C698 1.392 . S
C697 C701 1.495 . S
C698 C697 1.392 . S
C698 C699 1.385 . S
C698 C700 1.478 . S
C699 H693 0.930 . S
C699 C695 1.400 . S
C699 C698 1.385 . S
C700 C698 1.478 . S
C700 C702 1.381 . S
C700 C706 1.383 . S
C701 C697 1.495 . S
C701 H707 0.959 . S
C701 H708 0.961 . S
C701 H709 0.960 . S
C702 C700 1.381 . S
C702 C703 1.394 . S
C702 H710 0.930 . S
C703 C702 1.394 . S
C703 C704 1.383 . S
C703 H711 0.929 . S
C704 C703 1.383 . S
C704 C705 1.377 . S
C705 H689 0.930 . S
C705 C704 1.377 . S
C705 C706 1.379 . S
C706 H690 0.931 . S
C706 C700 1.383 . S
C706 C705 1.379 . S
H707 C701 0.959 . S
H708 C701 0.961 . S
H709 C701 0.960 . S
H710 C702 0.930 . S
H711 C703 0.929 . S
H712 C720 0.929 . S
H713 C722 0.930 . S
H714 C724 0.930 . S
H715 C727 0.929 . S
H716 C730 0.930 . S
H717 C732 0.960 . S
H718 C732 0.960 . S
H719 C732 0.960 . S
C720 H712 0.929 . S
C720 C721 1.377 . S
C720 C722 1.384 . S
C721 C720 1.377 . S
C721 C727 1.390 . S
C722 H713 0.930 . S
C722 C720 1.384 . S
C722 C723 1.372 . S
C723 C722 1.372 . S
C723 C724 1.400 . S
C723 C728 1.490 . S
C724 H714 0.930 . S
C724 C723 1.400 . S
C724 C727 1.386 . S
H725 C741 0.930 . S
H726 C742 0.931 . S
C727 H715 0.929 . S
C727 C721 1.390 . S
C727 C724 1.386 . S
C728 C723 1.490 . S
C728 C730 1.395 . S
C728 C731 1.403 . S
H729 C735 0.930 . S
C730 H716 0.930 . S
C730 C728 1.395 . S
C730 C733 1.403 . S
C731 C728 1.403 . S
C731 C732 1.524 . S
C731 C735 1.400 . S
C732 H717 0.960 . S
C732 H718 0.960 . S
C732 H719 0.960 . S
C732 C731 1.524 . S
C733 C730 1.403 . S
C733 C734 1.392 . S
C733 C737 1.495 . S
C734 C733 1.392 . S
C734 C735 1.385 . S
C734 C736 1.478 . S
C735 H729 0.930 . S
C735 C731 1.400 . S
C735 C734 1.385 . S
C736 C734 1.478 . S
C736 C738 1.381 . S
C736 C742 1.383 . S
C737 C733 1.495 . S
C737 H743 0.959 . S
C737 H744 0.961 . S
C737 H745 0.960 . S
C738 C736 1.381 . S
C738 C739 1.394 . S
C738 H746 0.930 . S
C739 C738 1.394 . S
C739 C740 1.383 . S
C739 H747 0.929 . S
C740 C739 1.383 . S
C740 C741 1.377 . S
C741 H725 0.930 . S
C741 C740 1.377 . S
C741 C742 1.379 . S
C742 H726 0.931 . S
C742 C736 1.383 . S
C742 C741 1.379 . S
H743 C737 0.959 . S
H744 C737 0.961 . S
H745 C737 0.960 . S
H746 C738 0.930 . S
H747 C739 0.929 . S
H748 C756 0.929 . S
H749 C758 0.930 . S
H750 C760 0.930 . S
H751 C763 0.929 . S
H752 C766 0.930 . S
H753 C768 0.960 . S
H754 C768 0.960 . S
H755 C768 0.960 . S
C756 H748 0.929 . S
C756 C757 1.377 . S
C756 C758 1.384 . S
C757 C756 1.377 . S
C757 C763 1.390 . S
C758 H749 0.930 . S
C758 C756 1.384 . S
C758 C759 1.372 . S
C759 C758 1.372 . S
C759 C760 1.400 . S
C759 C764 1.490 . S
C760 H750 0.930 . S
C760 C759 1.400 . S
C760 C763 1.386 . S
H761 C777 0.930 . S
H762 C778 0.931 . S
C763 H751 0.929 . S
C763 C757 1.390 . S
C763 C760 1.386 . S
C764 C759 1.490 . S
C764 C766 1.395 . S
C764 C767 1.403 . S
H765 C771 0.930 . S
C766 H752 0.930 . S
C766 C764 1.395 . S
C766 C769 1.403 . S
C767 C764 1.403 . S
C767 C768 1.524 . S
C767 C771 1.400 . S
C768 H753 0.960 . S
C768 H754 0.960 . S
C768 H755 0.960 . S
C768 C767 1.524 . S
C769 C766 1.403 . S
C769 C770 1.392 . S
C769 C773 1.495 . S
C770 C769 1.392 . S
C770 C771 1.385 . S
C770 C772 1.478 . S
C771 H765 0.930 . S
C771 C767 1.400 . S
C771 C770 1.385 . S
C772 C770 1.478 . S
C772 C774 1.381 . S
C772 C778 1.383 . S
C773 C769 1.495 . S
C773 H779 0.959 . S
C773 H780 0.961 . S
C773 H781 0.960 . S
C774 C772 1.381 . S
C774 C775 1.394 . S
C774 H782 0.930 . S
C775 C774 1.394 . S
C775 C776 1.383 . S
C775 H783 0.929 . S
C776 C775 1.383 . S
C776 C777 1.377 . S
C777 H761 0.930 . S
C777 C776 1.377 . S
C777 C778 1.379 . S
C778 H762 0.931 . S
C778 C772 1.383 . S
C778 C777 1.379 . S
H779 C773 0.959 . S
H780 C773 0.961 . S
H781 C773 0.960 . S
H782 C774 0.930 . S
H783 C775 0.929 . S
H784 C792 0.929 . S
H785 C794 0.930 . S
H786 C796 0.930 . S
H787 C799 0.929 . S
H788 C802 0.930 . S
H789 C804 0.960 . S
H790 C804 0.960 . S
H791 C804 0.960 . S
C792 H784 0.929 . S
C792 C793 1.377 . S
C792 C794 1.384 . S
C793 C792 1.377 . S
C793 C799 1.390 . S
C794 H785 0.930 . S
C794 C792 1.384 . S
C794 C795 1.372 . S
C795 C794 1.372 . S
C795 C796 1.400 . S
C795 C800 1.490 . S
C796 H786 0.930 . S
C796 C795 1.400 . S
C796 C799 1.386 . S
H797 C813 0.930 . S
H798 C814 0.931 . S
C799 H787 0.929 . S
C799 C793 1.390 . S
C799 C796 1.386 . S
C800 C795 1.490 . S
C800 C802 1.395 . S
C800 C803 1.403 . S
H801 C807 0.930 . S
C802 H788 0.930 . S
C802 C800 1.395 . S
C802 C805 1.403 . S
C803 C800 1.403 . S
C803 C804 1.524 . S
C803 C807 1.400 . S
C804 H789 0.960 . S
C804 H790 0.960 . S
C804 H791 0.960 . S
C804 C803 1.524 . S
C805 C802 1.403 . S
C805 C806 1.392 . S
C805 C809 1.495 . S
C806 C805 1.392 . S
C806 C807 1.385 . S
C806 C808 1.478 . S
C807 H801 0.930 . S
C807 C803 1.400 . S
C807 C806 1.385 . S
C808 C806 1.478 . S
C808 C810 1.381 . S
C808 C814 1.383 . S
C809 C805 1.495 . S
C809 H815 0.959 . S
C809 H816 0.961 . S
C809 H817 0.960 . S
C810 C808 1.381 . S
C810 C811 1.394 . S
C810 H818 0.930 . S
C811 C810 1.394 . S
C811 C812 1.383 . S
C811 H819 0.929 . S
C812 C811 1.383 . S
C812 C813 1.377 . S
C813 H797 0.930 . S
C813 C812 1.377 . S
C813 C814 1.379 . S
C814 H798 0.931 . S
C814 C808 1.383 . S
C814 C813 1.379 . S
H815 C809 0.959 . S
H816 C809 0.961 . S
H817 C809 0.960 . S
H818 C810 0.930 . S
H819 C811 0.929 . S
H820 C828 0.929 . S
H821 C830 0.930 . S
H822 C832 0.930 . S
H823 C835 0.929 . S
H824 C838 0.930 . S
H825 C840 0.960 . S
H826 C840 0.960 . S
H827 C840 0.960 . S
C828 H820 0.929 . S
C828 C829 1.377 . S
C828 C830 1.384 . S
C829 C828 1.377 . S
C829 C835 1.390 . S
C830 H821 0.930 . S
C830 C828 1.384 . S
C830 C831 1.372 . S
C831 C830 1.372 . S
C831 C832 1.400 . S
C831 C836 1.490 . S
C832 H822 0.930 . S
C832 C831 1.400 . S
C832 C835 1.386 . S
H833 C849 0.930 . S
H834 C850 0.931 . S
C835 H823 0.929 . S
C835 C829 1.390 . S
C835 C832 1.386 . S
C836 C831 1.490 . S
C836 C838 1.395 . S
C836 C839 1.403 . S
H837 C843 0.930 . S
C838 H824 0.930 . S
C838 C836 1.395 . S
C838 C841 1.403 . S
C839 C836 1.403 . S
C839 C840 1.524 . S
C839 C843 1.400 . S
C840 H825 0.960 . S
C840 H826 0.960 . S
C840 H827 0.960 . S
C840 C839 1.524 . S
C841 C838 1.403 . S
C841 C842 1.392 . S
C841 C845 1.495 . S
C842 C841 1.392 . S
C842 C843 1.385 . S
C842 C844 1.478 . S
C843 H837 0.930 . S
C843 C839 1.400 . S
C843 C842 1.385 . S
C844 C842 1.478 . S
C844 C846 1.381 . S
C844 C850 1.383 . S
C845 C841 1.495 . S
C845 H851 0.959 . S
C845 H852 0.961 . S
C845 H853 0.960 . S
C846 C844 1.381 . S
C846 C847 1.394 . S
C846 H854 0.930 . S
C847 C846 1.394 . S
C847 C848 1.383 . S
C847 H855 0.929 . S
C848 C847 1.383 . S
C848 C849 1.377 . S
C849 H833 0.930 . S
C849 C848 1.377 . S
C849 C850 1.379 . S
C850 H834 0.931 . S
C850 C844 1.383 . S
C850 C849 1.379 . S
H851 C845 0.959 . S
H852 C845 0.961 . S
H853 C845 0.960 . S
H854 C846 0.930 . S
H855 C847 0.929 . S
H856 C864 0.929 . S
H857 C866 0.930 . S
H858 C868 0.930 . S
H859 C871 0.929 . S
H860 C874 0.930 . S
H861 C876 0.960 . S
H862 C876 0.960 . S
H863 C876 0.960 . S
C864 H856 0.929 . S
C864 C865 1.377 . S
C864 C866 1.384 . S
C865 C864 1.377 . S
C865 C871 1.390 . S
C866 H857 0.930 . S
C866 C864 1.384 . S
C866 C867 1.372 . S
C867 C866 1.372 . S
C867 C868 1.400 . S
C867 C872 1.490 . S
C868 H858 0.930 . S
C868 C867 1.400 . S
C868 C871 1.386 . S
H869 C885 0.930 . S
H870 C886 0.931 . S
C871 H859 0.929 . S
C871 C865 1.390 . S
C871 C868 1.386 . S
C872 C867 1.490 . S
C872 C874 1.395 . S
C872 C875 1.403 . S
H873 C879 0.930 . S
C874 H860 0.930 . S
C874 C872 1.395 . S
C874 C877 1.403 . S
C875 C872 1.403 . S
C875 C876 1.524 . S
C875 C879 1.400 . S
C876 H861 0.960 . S
C876 H862 0.960 . S
C876 H863 0.960 . S
C876 C875 1.524 . S
C877 C874 1.403 . S
C877 C878 1.392 . S
C877 C881 1.495 . S
C878 C877 1.392 . S
C878 C879 1.385 . S
C878 C880 1.478 . S
C879 H873 0.930 . S
C879 C875 1.400 . S
C879 C878 1.385 . S
C880 C878 1.478 . S
C880 C882 1.381 . S
C880 C886 1.383 . S
C881 C877 1.495 . S
C881 H887 0.959 . S
C881 H888 0.961 . S
C881 H889 0.960 . S
C882 C880 1.381 . S
C882 C883 1.394 . S
C882 H890 0.930 . S
C883 C882 1.394 . S
C883 C884 1.383 . S
C883 H891 0.929 . S
C884 C883 1.383 . S
C884 C885 1.377 . S
C885 H869 0.930 . S
C885 C884 1.377 . S
C885 C886 1.379 . S
C886 H870 0.931 . S
C886 C880 1.383 . S
C886 C885 1.379 . S
H887 C881 0.959 . S
H888 C881 0.961 . S
H889 C881 0.960 . S
H890 C882 0.930 . S
H891 C883 0.929 . S
H892 C900 0.929 . S
H893 C902 0.930 . S
H894 C904 0.930 . S
H895 C907 0.929 . S
H896 C910 0.930 . S
H897 C912 0.960 . S
H898 C912 0.960 . S
H899 C912 0.960 . S
C900 H892 0.929 . S
C900 C901 1.377 . S
C900 C902 1.384 . S
C901 C900 1.377 . S
C901 C907 1.390 . S
C902 H893 0.930 . S
C902 C900 1.384 . S
C902 C903 1.372 . S
C903 C902 1.372 . S
C903 C904 1.400 . S
C903 C908 1.490 . S
C904 H894 0.930 . S
C904 C903 1.400 . S
C904 C907 1.386 . S
H905 C921 0.930 . S
H906 C922 0.931 . S
C907 H895 0.929 . S
C907 C901 1.390 . S
C907 C904 1.386 . S
C908 C903 1.490 . S
C908 C910 1.395 . S
C908 C911 1.403 . S
H909 C915 0.930 . S
C910 H896 0.930 . S
C910 C908 1.395 . S
C910 C913 1.403 . S
C911 C908 1.403 . S
C911 C912 1.524 . S
C911 C915 1.400 . S
C912 H897 0.960 . S
C912 H898 0.960 . S
C912 H899 0.960 . S
C912 C911 1.524 . S
C913 C910 1.403 . S
C913 C914 1.392 . S
C913 C917 1.495 . S
C914 C913 1.392 . S
C914 C915 1.385 . S
C914 C916 1.478 . S
C915 H909 0.930 . S
C915 C911 1.400 . S
C915 C914 1.385 . S
C916 C914 1.478 . S
C916 C918 1.381 . S
C916 C922 1.383 . S
C917 C913 1.495 . S
C917 H923 0.959 . S
C917 H924 0.961 . S
C917 H925 0.960 . S
C918 C916 1.381 . S
C918 C919 1.394 . S
C918 H926 0.930 . S
C919 C918 1.394 . S
C919 C920 1.383 . S
C919 H927 0.929 . S
C920 C919 1.383 . S
C920 C921 1.377 . S
C921 H905 0.930 . S
C921 C920 1.377 . S
C921 C922 1.379 . S
C922 H906 0.931 . S
C922 C916 1.383 . S
C922 C921 1.379 . S
H923 C917 0.959 . S
H924 C917 0.961 . S
H925 C917 0.960 . S
H926 C918 0.930 . S
H927 C919 0.929 . S
H928 C936 0.929 . S
H929 C938 0.930 . S
H930 C940 0.930 . S
H931 C943 0.929 . S
H932 C946 0.930 . S
H933 C948 0.960 . S
H934 C948 0.960 . S
H935 C948 0.960 . S
C936 H928 0.929 . S
C936 C937 1.377 . S
C936 C938 1.384 . S
C937 C936 1.377 . S
C937 C943 1.390 . S
C938 H929 0.930 . S
C938 C936 1.384 . S
C938 C939 1.372 . S
C939 C938 1.372 . S
C939 C940 1.400 . S
C939 C944 1.490 . S
C940 H930 0.930 . S
C940 C939 1.400 . S
C940 C943 1.386 . S
H941 C957 0.930 . S
H942 C958 0.931 . S
C943 H931 0.929 . S
C943 C937 1.390 . S
C943 C940 1.386 . S
C944 C939 1.490 . S
C944 C946 1.395 . S
C944 C947 1.403 . S
H945 C951 0.930 . S
C946 H932 0.930 . S
C946 C944 1.395 . S
C946 C949 1.403 . S
C947 C944 1.403 . S
C947 C948 1.524 . S
C947 C951 1.400 . S
C948 H933 0.960 . S
C948 H934 0.960 . S
C948 H935 0.960 . S
C948 C947 1.524 . S
C949 C946 1.403 . S
C949 C950 1.392 . S
C949 C953 1.495 . S
C950 C949 1.392 . S
C950 C951 1.385 . S
C950 C952 1.478 . S
C951 H945 0.930 . S
C951 C947 1.400 . S
C951 C950 1.385 . S
C952 C950 1.478 . S
C952 C954 1.381 . S
C952 C958 1.383 . S
C953 C949 1.495 . S
C953 H959 0.959 . S
C953 H960 0.961 . S
C953 H961 0.960 . S
C954 C952 1.381 . S
C954 C955 1.394 . S
C954 H962 0.930 . S
C955 C954 1.394 . S
C955 C956 1.383 . S
C955 H963 0.929 . S
C956 C955 1.383 . S
C956 C957 1.377 . S
C957 H941 0.930 . S
C957 C956 1.377 . S
C957 C958 1.379 . S
C958 H942 0.931 . S
C958 C952 1.383 . S
C958 C957 1.379 . S
H959 C953 0.959 . S
H960 C953 0.961 . S
H961 C953 0.960 . S
H962 C954 0.930 . S
H963 C955 0.929 . S
H964 C972 0.929 . S
H965 C974 0.930 . S
H966 C976 0.930 . S
H967 C979 0.929 . S
H968 C982 0.930 . S
H969 C984 0.960 . S
H970 C984 0.960 . S
H971 C984 0.960 . S
C972 H964 0.929 . S
C972 C973 1.377 . S
C972 C974 1.384 . S
C973 C972 1.377 . S
C973 C979 1.390 . S
C974 H965 0.930 . S
C974 C972 1.384 . S
C974 C975 1.372 . S
C975 C974 1.372 . S
C975 C976 1.400 . S
C975 C980 1.490 . S
C976 H966 0.930 . S
C976 C975 1.400 . S
C976 C979 1.386 . S
H977 C993 0.930 . S
H978 C994 0.931 . S
C979 H967 0.929 . S
C979 C973 1.390 . S
C979 C976 1.386 . S
C980 C975 1.490 . S
C980 C982 1.395 . S
C980 C983 1.403 . S
H981 C987 0.930 . S
C982 H968 0.930 . S
C982 C980 1.395 . S
C982 C985 1.403 . S
C983 C980 1.403 . S
C983 C984 1.524 . S
C983 C987 1.400 . S
C984 H969 0.960 . S
C984 H970 0.960 . S
C984 H971 0.960 . S
C984 C983 1.524 . S
C985 C982 1.403 . S
C985 C986 1.392 . S
C985 C989 1.495 . S
C986 C985 1.392 . S
C986 C987 1.385 . S
C986 C988 1.478 . S
C987 H981 0.930 . S
C987 C983 1.400 . S
C987 C986 1.385 . S
C988 C986 1.478 . S
C988 C990 1.381 . S
C988 C994 1.383 . S
C989 C985 1.495 . S
C989 H995 0.959 . S
C989 H996 0.961 . S
C989 H997 0.960 . S
C990 C988 1.381 . S
C990 C991 1.394 . S
C990 H998 0.930 . S
C991 C990 1.394 . S
C991 C992 1.383 . S
C991 H999 0.929 . S
C992 C991 1.383 . S
C992 C993 1.377 . S
C993 H977 0.930 . S
C993 C992 1.377 . S
C993 C994 1.379 . S
C994 H978 0.931 . S
C994 C988 1.383 . S
C994 C993 1.379 . S
H995 C989 0.959 . S
H996 C989 0.961 . S
H997 C989 0.960 . S
H998 C990 0.930 . S
H999 C991 0.929 . S
H1000 C1008 0.929 . S
H1001 C1010 0.930 . S
H1002 C1012 0.930 . S
H1003 C1015 0.929 . S
H1004 C1018 0.930 . S
H1005 C1020 0.960 . S
H1006 C1020 0.960 . S
H1007 C1020 0.960 . S
C1008 H1000 0.929 . S
C1008 C1009 1.377 . S
C1008 C1010 1.384 . S
C1009 C1008 1.377 . S
C1009 C1015 1.390 . S
C1010 H1001 0.930 . S
C1010 C1008 1.384 . S
C1010 C1011 1.372 . S
C1011 C1010 1.372 . S
C1011 C1012 1.400 . S
C1011 C1016 1.490 . S
C1012 H1002 0.930 . S
C1012 C1011 1.400 . S
C1012 C1015 1.386 . S
H1013 C1029 0.930 . S
H1014 C1030 0.931 . S
C1015 H1003 0.929 . S
C1015 C1009 1.390 . S
C1015 C1012 1.386 . S
C1016 C1011 1.490 . S
C1016 C1018 1.395 . S
C1016 C1019 1.403 . S
H1017 C1023 0.930 . S
C1018 H1004 0.930 . S
C1018 C1016 1.395 . S
C1018 C1021 1.403 . S
C1019 C1016 1.403 . S
C1019 C1020 1.524 . S
C1019 C1023 1.400 . S
C1020 H1005 0.960 . S
C1020 H1006 0.960 . S
C1020 H1007 0.960 . S
C1020 C1019 1.524 . S
C1021 C1018 1.403 . S
C1021 C1022 1.392 . S
C1021 C1025 1.495 . S
C1022 C1021 1.392 . S
C1022 C1023 1.385 . S
C1022 C1024 1.478 . S
C1023 H1017 0.930 . S
C1023 C1019 1.400 . S
C1023 C1022 1.385 . S
C1024 C1022 1.478 . S
C1024 C1026 1.381 . S
C1024 C1030 1.383 . S
C1025 C1021 1.495 . S
C1025 H1031 0.959 . S
C1025 H1032 0.961 . S
C1025 H1033 0.960 . S
C1026 C1024 1.381 . S
C1026 C1027 1.394 . S
C1026 H1034 0.930 . S
C1027 C1026 1.394 . S
C1027 C1028 1.383 . S
C1027 H1035 0.929 . S
C1028 C1027 1.383 . S
C1028 C1029 1.377 . S
C1029 H1013 0.930 . S
C1029 C1028 1.377 . S
C1029 C1030 1.379 . S
C1030 H1014 0.931 . S
C1030 C1024 1.383 . S
C1030 C1029 1.379 . S
H1031 C1025 0.959 . S
H1032 C1025 0.961 . S
H1033 C1025 0.960 . S
H1034 C1026 0.930 . S
H1035 C1027 0.929 . S
H1036 C1044 0.929 . S
H1037 C1046 0.930 . S
H1038 C1048 0.930 . S
H1039 C1051 0.929 . S
H1040 C1054 0.930 . S
H1041 C1056 0.960 . S
H1042 C1056 0.960 . S
H1043 C1056 0.960 . S
C1044 H1036 0.929 . S
C1044 C1045 1.377 . S
C1044 C1046 1.384 . S
C1045 C1044 1.377 . S
C1045 C1051 1.390 . S
C1046 H1037 0.930 . S
C1046 C1044 1.384 . S
C1046 C1047 1.372 . S
C1047 C1046 1.372 . S
C1047 C1048 1.400 . S
C1047 C1052 1.490 . S
C1048 H1038 0.930 . S
C1048 C1047 1.400 . S
C1048 C1051 1.386 . S
H1049 C1065 0.930 . S
H1050 C1066 0.931 . S
C1051 H1039 0.929 . S
C1051 C1045 1.390 . S
C1051 C1048 1.386 . S
C1052 C1047 1.490 . S
C1052 C1054 1.395 . S
C1052 C1055 1.403 . S
H1053 C1059 0.930 . S
C1054 H1040 0.930 . S
C1054 C1052 1.395 . S
C1054 C1057 1.403 . S
C1055 C1052 1.403 . S
C1055 C1056 1.524 . S
C1055 C1059 1.400 . S
C1056 H1041 0.960 . S
C1056 H1042 0.960 . S
C1056 H1043 0.960 . S
C1056 C1055 1.524 . S
C1057 C1054 1.403 . S
C1057 C1058 1.392 . S
C1057 C1061 1.495 . S
C1058 C1057 1.392 . S
C1058 C1059 1.385 . S
C1058 C1060 1.478 . S
C1059 H1053 0.930 . S
C1059 C1055 1.400 . S
C1059 C1058 1.385 . S
C1060 C1058 1.478 . S
C1060 C1062 1.381 . S
C1060 C1066 1.383 . S
C1061 C1057 1.495 . S
C1061 H1067 0.959 . S
C1061 H1068 0.961 . S
C1061 H1069 0.960 . S
C1062 C1060 1.381 . S
C1062 C1063 1.394 . S
C1062 H1070 0.930 . S
C1063 C1062 1.394 . S
C1063 C1064 1.383 . S
C1063 H1071 0.929 . S
C1064 C1063 1.383 . S
C1064 C1065 1.377 . S
C1065 H1049 0.930 . S
C1065 C1064 1.377 . S
C1065 C1066 1.379 . S
C1066 H1050 0.931 . S
C1066 C1060 1.383 . S
C1066 C1065 1.379 . S
H1067 C1061 0.959 . S
H1068 C1061 0.961 . S
H1069 C1061 0.960 . S
H1070 C1062 0.930 . S
H1071 C1063 0.929 . S
H1072 C1080 0.929 . S
H1073 C1082 0.930 . S
H1074 C1084 0.930 . S
H1075 C1087 0.929 . S
H1076 C1090 0.930 . S
H1077 C1092 0.960 . S
H1078 C1092 0.960 . S
H1079 C1092 0.960 . S
C1080 H1072 0.929 . S
C1080 C1081 1.377 . S
C1080 C1082 1.384 . S
C1081 C1080 1.377 . S
C1081 C1087 1.390 . S
C1082 H1073 0.930 . S
C1082 C1080 1.384 . S
C1082 C1083 1.372 . S
C1083 C1082 1.372 . S
C1083 C1084 1.400 . S
C1083 C1088 1.490 . S
C1084 H1074 0.930 . S
C1084 C1083 1.400 . S
C1084 C1087 1.386 . S
H1085 C1101 0.930 . S
H1086 C1102 0.931 . S
C1087 H1075 0.929 . S
C1087 C1081 1.390 . S
C1087 C1084 1.386 . S
C1088 C1083 1.490 . S
C1088 C1090 1.395 . S
C1088 C1091 1.403 . S
H1089 C1095 0.930 . S
C1090 H1076 0.930 . S
C1090 C1088 1.395 . S
C1090 C1093 1.403 . S
C1091 C1088 1.403 . S
C1091 C1092 1.524 . S
C1091 C1095 1.400 . S
C1092 H1077 0.960 . S
C1092 H1078 0.960 . S
C1092 H1079 0.960 . S
C1092 C1091 1.524 . S
C1093 C1090 1.403 . S
C1093 C1094 1.392 . S
C1093 C1097 1.495 . S
C1094 C1093 1.392 . S
C1094 C1095 1.385 . S
C1094 C1096 1.478 . S
C1095 H1089 0.930 . S
C1095 C1091 1.400 . S
C1095 C1094 1.385 . S
C1096 C1094 1.478 . S
C1096 C1098 1.381 . S
C1096 C1102 1.383 . S
C1097 C1093 1.495 . S
C1097 H1103 0.959 . S
C1097 H1104 0.961 . S
C1097 H1105 0.960 . S
C1098 C1096 1.381 . S
C1098 C1099 1.394 . S
C1098 H1106 0.930 . S
C1099 C1098 1.394 . S
C1099 C1100 1.383 . S
C1099 H1107 0.929 . S
C1100 C1099 1.383 . S
C1100 C1101 1.377 . S
C1101 H1085 0.930 . S
C1101 C1100 1.377 . S
C1101 C1102 1.379 . S
C1102 H1086 0.931 . S
C1102 C1096 1.383 . S
C1102 C1101 1.379 . S
H1103 C1097 0.959 . S
H1104 C1097 0.961 . S
H1105 C1097 0.960 . S
H1106 C1098 0.930 . S
H1107 C1099 0.929 . S
H1108 C1116 0.929 . S
H1109 C1118 0.930 . S
H1110 C1120 0.930 . S
H1111 C1123 0.929 . S
H1112 C1126 0.930 . S
H1113 C1128 0.960 . S
H1114 C1128 0.960 . S
H1115 C1128 0.960 . S
C1116 H1108 0.929 . S
C1116 C1117 1.377 . S
C1116 C1118 1.384 . S
C1117 C1116 1.377 . S
C1117 C1123 1.390 . S
C1118 H1109 0.930 . S
C1118 C1116 1.384 . S
C1118 C1119 1.372 . S
C1119 C1118 1.372 . S
C1119 C1120 1.400 . S
C1119 C1124 1.490 . S
C1120 H1110 0.930 . S
C1120 C1119 1.400 . S
C1120 C1123 1.386 . S
H1121 C1137 0.930 . S
H1122 C1138 0.931 . S
C1123 H1111 0.929 . S
C1123 C1117 1.390 . S
C1123 C1120 1.386 . S
C1124 C1119 1.490 . S
C1124 C1126 1.395 . S
C1124 C1127 1.403 . S
H1125 C1131 0.930 . S
C1126 H1112 0.930 . S
C1126 C1124 1.395 . S
C1126 C1129 1.403 . S
C1127 C1124 1.403 . S
C1127 C1128 1.524 . S
C1127 C1131 1.400 . S
C1128 H1113 0.960 . S
C1128 H1114 0.960 . S
C1128 H1115 0.960 . S
C1128 C1127 1.524 . S
C1129 C1126 1.403 . S
C1129 C1130 1.392 . S
C1129 C1133 1.495 . S
C1130 C1129 1.392 . S
C1130 C1131 1.385 . S
C1130 C1132 1.478 . S
C1131 H1125 0.930 . S
C1131 C1127 1.400 . S
C1131 C1130 1.385 . S
C1132 C1130 1.478 . S
C1132 C1134 1.381 . S
C1132 C1138 1.383 . S
C1133 C1129 1.495 . S
C1133 H1139 0.959 . S
C1133 H1140 0.961 . S
C1133 H1141 0.960 . S
C1134 C1132 1.381 . S
C1134 C1135 1.394 . S
C1134 H1142 0.930 . S
C1135 C1134 1.394 . S
C1135 C1136 1.383 . S
C1135 H1143 0.929 . S
C1136 C1135 1.383 . S
C1136 C1137 1.377 . S
C1137 H1121 0.930 . S
C1137 C1136 1.377 . S
C1137 C1138 1.379 . S
C1138 H1122 0.931 . S
C1138 C1132 1.383 . S
C1138 C1137 1.379 . S
H1139 C1133 0.959 . S
H1140 C1133 0.961 . S
H1141 C1133 0.960 . S
H1142 C1134 0.930 . S
H1143 C1135 0.929 . S
H1144 C1152 0.929 . S
H1145 C1154 0.930 . S
H1146 C1156 0.930 . S
H1147 C1159 0.930 . S
H1148 C1162 0.930 . S
H1149 C1164 0.960 . S
H1150 C1164 0.960 . S
H1151 C1164 0.960 . S
C1152 H1144 0.929 . S
C1152 C1153 1.378 . S
C1152 C1154 1.384 . S
C1153 C1152 1.378 . S
C1153 C1159 1.389 1_556 S
C1154 H1145 0.930 . S
C1154 C1152 1.384 . S
C1154 C1155 1.372 . S
C1155 C1154 1.372 . S
C1155 C1156 1.399 1_556 S
C1155 C1160 1.489 1_556 S
C1156 H1146 0.930 . S
C1156 C1155 1.399 1_554 S
C1156 C1159 1.386 . S
H1157 C1173 0.930 . S
H1158 C1174 0.931 . S
C1159 H1147 0.930 . S
C1159 C1153 1.389 1_554 S
C1159 C1156 1.386 . S
C1160 C1155 1.489 1_554 S
C1160 C1162 1.414 . S
C1160 C1163 1.384 1_554 S
H1161 C1167 0.930 . S
C1162 H1148 0.930 . S
C1162 C1160 1.414 . S
C1162 C1165 1.403 . S
C1163 C1160 1.384 1_556 S
C1163 C1164 1.524 . S
C1163 C1167 1.400 . S
C1164 H1149 0.960 . S
C1164 H1150 0.960 . S
C1164 H1151 0.960 . S
C1164 C1163 1.524 . S
C1165 C1162 1.403 . S
C1165 C1166 1.392 . S
C1165 C1169 1.495 . S
C1166 C1165 1.392 . S
C1166 C1167 1.385 1_554 S
C1166 C1168 1.478 . S
C1167 H1161 0.930 . S
C1167 C1163 1.400 . S
C1167 C1166 1.385 1_556 S
C1168 C1166 1.478 . S
C1168 C1170 1.381 . S
C1168 C1174 1.383 . S
C1169 C1165 1.495 . S
C1169 H1175 0.959 . S
C1169 H1176 0.961 . S
C1169 H1177 0.960 . S
C1170 C1168 1.381 . S
C1170 C1171 1.394 1_554 S
C1170 H1178 0.930 1_554 S
C1171 C1170 1.394 1_556 S
C1171 C1172 1.383 1_556 S
C1171 H1179 0.929 . S
C1172 C1171 1.383 1_554 S
C1172 C1173 1.377 . S
C1173 H1157 0.930 . S
C1173 C1172 1.377 . S
C1173 C1174 1.379 . S
C1174 H1158 0.931 . S
C1174 C1168 1.383 . S
C1174 C1173 1.379 . S
H1175 C1169 0.959 . S
H1176 C1169 0.961 . S
H1177 C1169 0.960 . S
H1178 C1170 0.930 1_556 S
H1179 C1171 0.929 . S
H1180 C1188 0.929 . S
H1181 C1190 0.930 . S
H1182 C1192 0.930 . S
H1183 C1195 0.929 . S
H1184 C1198 0.930 . S
H1185 C1200 0.960 . S
H1186 C1200 0.960 . S
H1187 C1200 0.960 . S
C1188 H1180 0.929 . S
C1188 C1189 1.377 . S
C1188 C1190 1.384 . S
C1189 C1188 1.377 . S
C1189 C1195 1.390 . S
C1190 H1181 0.930 . S
C1190 C1188 1.384 . S
C1190 C1191 1.372 . S
C1191 C1190 1.372 . S
C1191 C1192 1.400 . S
C1191 C1196 1.490 . S
C1192 H1182 0.930 . S
C1192 C1191 1.400 . S
C1192 C1195 1.386 . S
H1193 C1209 0.930 . S
H1194 C1210 0.931 . S
C1195 H1183 0.929 . S
C1195 C1189 1.390 . S
C1195 C1192 1.386 . S
C1196 C1191 1.490 . S
C1196 C1198 1.395 . S
C1196 C1199 1.403 . S
H1197 C1203 0.930 . S
C1198 H1184 0.930 . S
C1198 C1196 1.395 . S
C1198 C1201 1.403 . S
C1199 C1196 1.403 . S
C1199 C1200 1.524 . S
C1199 C1203 1.400 . S
C1200 H1185 0.960 . S
C1200 H1186 0.960 . S
C1200 H1187 0.960 . S
C1200 C1199 1.524 . S
C1201 C1198 1.403 . S
C1201 C1202 1.392 . S
C1201 C1205 1.495 . S
C1202 C1201 1.392 . S
C1202 C1203 1.385 . S
C1202 C1204 1.478 . S
C1203 H1197 0.930 . S
C1203 C1199 1.400 . S
C1203 C1202 1.385 . S
C1204 C1202 1.478 . S
C1204 C1206 1.381 . S
C1204 C1210 1.383 . S
C1205 C1201 1.495 . S
C1205 H1211 0.959 . S
C1205 H1212 0.961 . S
C1205 H1213 0.960 . S
C1206 C1204 1.381 . S
C1206 C1207 1.394 . S
C1206 H1214 0.930 . S
C1207 C1206 1.394 . S
C1207 C1208 1.383 . S
C1207 H1215 0.929 . S
C1208 C1207 1.383 . S
C1208 C1209 1.377 . S
C1209 H1193 0.930 . S
C1209 C1208 1.377 . S
C1209 C1210 1.379 . S
C1210 H1194 0.931 . S
C1210 C1204 1.383 . S
C1210 C1209 1.379 . S
H1211 C1205 0.959 . S
H1212 C1205 0.961 . S
H1213 C1205 0.960 . S
H1214 C1206 0.930 . S
H1215 C1207 0.929 . S
H1216 C1224 0.929 . S
H1217 C1226 0.930 . S
H1218 C1228 0.930 . S
H1219 C1231 0.929 . S
H1220 C1234 0.930 . S
H1221 C1236 0.960 . S
H1222 C1236 0.960 . S
H1223 C1236 0.960 . S
C1224 H1216 0.929 . S
C1224 C1225 1.386 . S
C1224 C1226 1.384 . S
C1225 C1224 1.386 . S
C1225 C1231 1.382 1_556 S
C1226 H1217 0.930 . S
C1226 C1224 1.384 . S
C1226 C1227 1.372 . S
C1227 C1226 1.372 . S
C1227 C1228 1.400 1_556 S
C1227 C1232 1.490 . S
C1228 H1218 0.930 . S
C1228 C1227 1.400 1_554 S
C1228 C1231 1.386 . S
H1229 C1245 0.930 . S
H1230 C1246 0.931 . S
C1231 H1219 0.929 . S
C1231 C1225 1.382 1_554 S
C1231 C1228 1.386 . S
C1232 C1227 1.490 . S
C1232 C1234 1.395 1_556 S
C1232 C1235 1.403 . S
H1233 C1239 0.930 . S
C1234 H1220 0.930 . S
C1234 C1232 1.395 1_554 S
C1234 C1237 1.403 . S
C1235 C1232 1.403 . S
C1235 C1236 1.524 . S
C1235 C1239 1.400 . S
C1236 H1221 0.960 . S
C1236 H1222 0.960 . S
C1236 H1223 0.960 . S
C1236 C1235 1.524 . S
C1237 C1234 1.403 . S
C1237 C1238 1.392 . S
C1237 C1241 1.495 . S
C1238 C1237 1.392 . S
C1238 C1239 1.385 1_554 S
C1238 C1240 1.478 . S
C1239 H1233 0.930 . S
C1239 C1235 1.400 . S
C1239 C1238 1.385 1_556 S
C1240 C1238 1.478 . S
C1240 C1242 1.381 1_554 S
C1240 C1246 1.383 . S
C1241 C1237 1.495 . S
C1241 H1247 0.959 . S
C1241 H1248 0.961 . S
C1241 H1249 0.960 . S
C1242 C1240 1.381 1_556 S
C1242 C1243 1.394 . S
C1242 H1250 0.930 . S
C1243 C1242 1.394 . S
C1243 C1244 1.383 1_556 S
C1243 H1251 0.929 . S
C1244 C1243 1.383 1_554 S
C1244 C1245 1.377 . S
C1245 H1229 0.930 . S
C1245 C1244 1.377 . S
C1245 C1246 1.379 . S
C1246 H1230 0.931 . S
C1246 C1240 1.383 . S
C1246 C1245 1.379 . S
H1247 C1241 0.959 . S
H1248 C1241 0.961 . S
H1249 C1241 0.960 . S
H1250 C1242 0.930 . S
H1251 C1243 0.929 . S
H1252 C1260 0.929 . S
H1253 C1262 0.930 . S
H1254 C1264 0.930 . S
H1255 C1267 0.929 . S
H1256 C1270 0.930 . S
H1257 C1272 0.960 . S
H1258 C1272 0.960 . S
H1259 C1272 0.960 . S
C1260 H1252 0.929 . S
C1260 C1261 1.377 . S
C1260 C1262 1.384 . S
C1261 C1260 1.377 . S
C1261 C1267 1.390 . S
C1262 H1253 0.930 . S
C1262 C1260 1.384 . S
C1262 C1263 1.372 . S
C1263 C1262 1.372 . S
C1263 C1264 1.400 . S
C1263 C1268 1.490 . S
C1264 H1254 0.930 . S
C1264 C1263 1.400 . S
C1264 C1267 1.386 . S
H1265 C1281 0.930 . S
H1266 C1282 0.931 . S
C1267 H1255 0.929 . S
C1267 C1261 1.390 . S
C1267 C1264 1.386 . S
C1268 C1263 1.490 . S
C1268 C1270 1.395 . S
C1268 C1271 1.403 . S
H1269 C1275 0.930 . S
C1270 H1256 0.930 . S
C1270 C1268 1.395 . S
C1270 C1273 1.403 . S
C1271 C1268 1.403 . S
C1271 C1272 1.524 . S
C1271 C1275 1.400 . S
C1272 H1257 0.960 . S
C1272 H1258 0.960 . S
C1272 H1259 0.960 . S
C1272 C1271 1.524 . S
C1273 C1270 1.403 . S
C1273 C1274 1.392 . S
C1273 C1277 1.495 . S
C1274 C1273 1.392 . S
C1274 C1275 1.385 . S
C1274 C1276 1.478 . S
C1275 H1269 0.930 . S
C1275 C1271 1.400 . S
C1275 C1274 1.385 . S
C1276 C1274 1.478 . S
C1276 C1278 1.381 . S
C1276 C1282 1.383 . S
C1277 C1273 1.495 . S
C1277 H1283 0.959 . S
C1277 H1284 0.961 . S
C1277 H1285 0.960 . S
C1278 C1276 1.381 . S
C1278 C1279 1.394 . S
C1278 H1286 0.930 . S
C1279 C1278 1.394 . S
C1279 C1280 1.383 . S
C1279 H1287 0.929 . S
C1280 C1279 1.383 . S
C1280 C1281 1.377 . S
C1281 H1265 0.930 . S
C1281 C1280 1.377 . S
C1281 C1282 1.379 . S
C1282 H1266 0.931 . S
C1282 C1276 1.383 . S
C1282 C1281 1.379 . S
H1283 C1277 0.959 . S
H1284 C1277 0.961 . S
H1285 C1277 0.960 . S
H1286 C1278 0.930 . S
H1287 C1279 0.929 . S
H1288 C1296 0.929 . S
H1289 C1298 0.930 . S
H1290 C1300 0.930 . S
H1291 C1303 0.929 . S
H1292 C1306 0.930 . S
H1293 C1308 0.960 . S
H1294 C1308 0.960 . S
H1295 C1308 0.960 . S
C1296 H1288 0.929 . S
C1296 C1297 1.377 . S
C1296 C1298 1.384 . S
C1297 C1296 1.377 . S
C1297 C1303 1.390 . S
C1298 H1289 0.930 . S
C1298 C1296 1.384 . S
C1298 C1299 1.372 . S
C1299 C1298 1.372 . S
C1299 C1300 1.400 . S
C1299 C1304 1.490 . S
C1300 H1290 0.930 . S
C1300 C1299 1.400 . S
C1300 C1303 1.386 . S
H1301 C1317 0.930 . S
H1302 C1318 0.931 . S
C1303 H1291 0.929 . S
C1303 C1297 1.390 . S
C1303 C1300 1.386 . S
C1304 C1299 1.490 . S
C1304 C1306 1.395 . S
C1304 C1307 1.403 . S
H1305 C1311 0.930 . S
C1306 H1292 0.930 . S
C1306 C1304 1.395 . S
C1306 C1309 1.403 . S
C1307 C1304 1.403 . S
C1307 C1308 1.524 . S
C1307 C1311 1.400 . S
C1308 H1293 0.960 . S
C1308 H1294 0.960 . S
C1308 H1295 0.960 . S
C1308 C1307 1.524 . S
C1309 C1306 1.403 . S
C1309 C1310 1.392 . S
C1309 C1313 1.495 . S
C1310 C1309 1.392 . S
C1310 C1311 1.385 . S
C1310 C1312 1.478 . S
C1311 H1305 0.930 . S
C1311 C1307 1.400 . S
C1311 C1310 1.385 . S
C1312 C1310 1.478 . S
C1312 C1314 1.381 . S
C1312 C1318 1.383 . S
C1313 C1309 1.495 . S
C1313 H1319 0.959 . S
C1313 H1320 0.961 . S
C1313 H1321 0.960 . S
C1314 C1312 1.381 . S
C1314 C1315 1.394 . S
C1314 H1322 0.930 . S
C1315 C1314 1.394 . S
C1315 C1316 1.383 . S
C1315 H1323 0.929 . S
C1316 C1315 1.383 . S
C1316 C1317 1.377 . S
C1317 H1301 0.930 . S
C1317 C1316 1.377 . S
C1317 C1318 1.379 . S
C1318 H1302 0.931 . S
C1318 C1312 1.383 . S
C1318 C1317 1.379 . S
H1319 C1313 0.959 . S
H1320 C1313 0.961 . S
H1321 C1313 0.960 . S
H1322 C1314 0.930 . S
H1323 C1315 0.929 . S
H1324 C1332 0.929 . S
H1325 C1334 0.930 . S
H1326 C1336 0.930 . S
H1327 C1339 0.929 . S
H1328 C1342 0.930 . S
H1329 C1344 0.960 . S
H1330 C1344 0.960 . S
H1331 C1344 0.960 . S
C1332 H1324 0.929 . S
C1332 C1333 1.378 . S
C1332 C1334 1.384 . S
C1333 C1332 1.378 . S
C1333 C1339 1.389 1_556 S
C1334 H1325 0.930 . S
C1334 C1332 1.384 . S
C1334 C1335 1.372 . S
C1335 C1334 1.372 . S
C1335 C1336 1.400 1_556 S
C1335 C1340 1.490 . S
C1336 H1326 0.930 . S
C1336 C1335 1.400 1_554 S
C1336 C1339 1.386 . S
H1337 C1353 0.930 . S
H1338 C1354 0.931 . S
C1339 H1327 0.929 . S
C1339 C1333 1.389 1_554 S
C1339 C1336 1.386 . S
C1340 C1335 1.490 . S
C1340 C1342 1.395 . S
C1340 C1343 1.403 1_556 S
H1341 C1347 0.930 . S
C1342 H1328 0.930 . S
C1342 C1340 1.395 . S
C1342 C1345 1.403 . S
C1343 C1340 1.403 1_554 S
C1343 C1344 1.524 . S
C1343 C1347 1.400 . S
C1344 H1329 0.960 . S
C1344 H1330 0.960 . S
C1344 H1331 0.960 . S
C1344 C1343 1.524 . S
C1345 C1342 1.403 . S
C1345 C1346 1.392 . S
C1345 C1349 1.495 . S
C1346 C1345 1.392 . S
C1346 C1347 1.385 1_556 S
C1346 C1348 1.478 . S
C1347 H1341 0.930 . S
C1347 C1343 1.400 . S
C1347 C1346 1.385 1_554 S
C1348 C1346 1.478 . S
C1348 C1350 1.381 . S
C1348 C1354 1.383 1_556 S
C1349 C1345 1.495 . S
C1349 H1355 0.959 . S
C1349 H1356 0.961 . S
C1349 H1357 0.960 . S
C1350 C1348 1.381 . S
C1350 C1351 1.394 . S
C1350 H1358 0.930 . S
C1351 C1350 1.394 . S
C1351 C1352 1.383 . S
C1351 H1359 0.929 . S
C1352 C1351 1.383 . S
C1352 C1353 1.377 1_556 S
C1353 H1337 0.930 . S
C1353 C1352 1.377 1_554 S
C1353 C1354 1.379 . S
C1354 H1338 0.931 . S
C1354 C1348 1.383 1_554 S
C1354 C1353 1.379 . S
H1355 C1349 0.959 . S
H1356 C1349 0.961 . S
H1357 C1349 0.960 . S
H1358 C1350 0.930 . S
H1359 C1351 0.929 . S
H1360 C1368 0.929 . S
H1361 C1370 0.930 . S
H1362 C1372 0.930 . S
H1363 C1375 0.929 . S
H1364 C1378 0.930 . S
H1365 C1380 0.960 . S
H1366 C1380 0.960 . S
H1367 C1380 0.960 . S
C1368 H1360 0.929 . S
C1368 C1369 1.377 . S
C1368 C1370 1.384 . S
C1369 C1368 1.377 . S
C1369 C1375 1.390 . S
C1370 H1361 0.930 . S
C1370 C1368 1.384 . S
C1370 C1371 1.372 . S
C1371 C1370 1.372 . S
C1371 C1372 1.400 . S
C1371 C1376 1.490 . S
C1372 H1362 0.930 . S
C1372 C1371 1.400 . S
C1372 C1375 1.386 . S
H1373 C1389 0.930 . S
H1374 C1390 0.931 . S
C1375 H1363 0.929 . S
C1375 C1369 1.390 . S
C1375 C1372 1.386 . S
C1376 C1371 1.490 . S
C1376 C1378 1.395 . S
C1376 C1379 1.403 . S
H1377 C1383 0.930 . S
C1378 H1364 0.930 . S
C1378 C1376 1.395 . S
C1378 C1381 1.403 . S
C1379 C1376 1.403 . S
C1379 C1380 1.524 . S
C1379 C1383 1.400 . S
C1380 H1365 0.960 . S
C1380 H1366 0.960 . S
C1380 H1367 0.960 . S
C1380 C1379 1.524 . S
C1381 C1378 1.403 . S
C1381 C1382 1.392 . S
C1381 C1385 1.495 . S
C1382 C1381 1.392 . S
C1382 C1383 1.385 . S
C1382 C1384 1.478 . S
C1383 H1377 0.930 . S
C1383 C1379 1.400 . S
C1383 C1382 1.385 . S
C1384 C1382 1.478 . S
C1384 C1386 1.381 . S
C1384 C1390 1.383 . S
C1385 C1381 1.495 . S
C1385 H1391 0.959 . S
C1385 H1392 0.961 . S
C1385 H1393 0.960 . S
C1386 C1384 1.381 . S
C1386 C1387 1.394 . S
C1386 H1394 0.930 . S
C1387 C1386 1.394 . S
C1387 C1388 1.383 . S
C1387 H1395 0.929 . S
C1388 C1387 1.383 . S
C1388 C1389 1.377 . S
C1389 H1373 0.930 . S
C1389 C1388 1.377 . S
C1389 C1390 1.379 . S
C1390 H1374 0.931 . S
C1390 C1384 1.383 . S
C1390 C1389 1.379 . S
H1391 C1385 0.959 . S
H1392 C1385 0.961 . S
H1393 C1385 0.960 . S
H1394 C1386 0.930 . S
H1395 C1387 0.929 . S
H1396 C1404 0.929 . S
H1397 C1406 0.930 . S
H1398 C1408 0.930 . S
H1399 C1411 0.929 . S
H1400 C1414 0.930 . S
H1401 C1416 0.960 . S
H1402 C1416 0.960 . S
H1403 C1416 0.960 . S
C1404 H1396 0.929 . S
C1404 C1405 1.390 . S
C1404 C1406 1.384 . S
C1405 C1404 1.390 . S
C1405 C1411 1.377 1_554 S
C1406 H1397 0.930 . S
C1406 C1404 1.384 . S
C1406 C1407 1.372 . S
C1407 C1406 1.372 . S
C1407 C1408 1.400 1_554 S
C1407 C1412 1.490 . S
C1408 H1398 0.930 . S
C1408 C1407 1.400 1_556 S
C1408 C1411 1.386 . S
H1409 C1425 0.930 . S
H1410 C1426 0.931 . S
C1411 H1399 0.929 . S
C1411 C1405 1.377 1_556 S
C1411 C1408 1.386 . S
C1412 C1407 1.490 . S
C1412 C1414 1.395 1_554 S
C1412 C1415 1.403 . S
H1413 C1419 0.930 . S
C1414 H1400 0.930 . S
C1414 C1412 1.395 1_556 S
C1414 C1417 1.403 . S
C1415 C1412 1.403 . S
C1415 C1416 1.524 . S
C1415 C1419 1.400 . S
C1416 H1401 0.960 . S
C1416 H1402 0.960 . S
C1416 H1403 0.960 . S
C1416 C1415 1.524 . S
C1417 C1414 1.403 . S
C1417 C1418 1.398 . S
C1417 C1421 1.495 . S
C1418 C1417 1.398 . S
C1418 C1419 1.379 1_556 S
C1418 C1420 1.478 . S
C1419 H1413 0.930 . S
C1419 C1415 1.400 . S
C1419 C1418 1.379 1_554 S
C1420 C1418 1.478 . S
C1420 C1422 1.381 1_556 S
C1420 C1426 1.383 . S
C1421 C1417 1.495 . S
C1421 H1427 0.959 . S
C1421 H1428 0.961 . S
C1421 H1429 0.952 1_556 S
C1422 C1420 1.381 1_554 S
C1422 C1423 1.394 . S
C1422 H1430 0.930 . S
C1423 C1422 1.394 . S
C1423 C1424 1.364 1_554 S
C1423 H1431 0.929 . S
C1424 C1423 1.364 1_556 S
C1424 C1425 1.396 . S
C1425 H1409 0.930 . S
C1425 C1424 1.396 . S
C1425 C1426 1.379 . S
C1426 H1410 0.931 . S
C1426 C1420 1.383 . S
C1426 C1425 1.379 . S
H1427 C1421 0.959 . S
H1428 C1421 0.961 . S
H1429 C1421 0.952 1_554 S
H1430 C1422 0.930 . S
H1431 C1423 0.929 . S
C577 C5 1.431 . S
C596 C269 1.365 . S
C613 C31 1.434 . S
C632 C89 1.413 . S
C668 C168 1.422 . S
C649 C53 1.428 . S
C685 C71 1.431 . S
C704 C228 1.430 . S
C740 C389 1.369 . S
C721 C75 1.428 . S
C776 C468 1.434 . S
C757 C9 1.431 . S
C812 C539 1.443 . S
C793 C27 1.426 . S
C848 C329 1.420 . S
C829 C49 1.431 . S
C865 C51 1.429 . S
C884 C179 1.449 . S
C901 C72 1.432 . S
C920 C209 1.395 . S
C937 C6 1.431 . S
C956 C288 1.453 . S
C992 C108 1.448 . S
C973 C29 1.427 . S
C1009 C28 1.435 . S
C1028 C528 1.362 . S
C1064 C348 1.449 . S
C1045 C50 1.432 . S
C1100 C408 1.452 . S
C1081 C73 1.436 . S
C1117 C7 1.431 . S
C1136 C449 1.334 . S
C1172 C119 1.485 1_554 S
C1153 C4 1.483 1_556 S
C1208 C149 1.476 . S
C1189 C30 1.484 . S
C1225 C52 1.481 1_556 S
C1244 C239 1.456 . S
C1261 C70 1.481 . S
C1280 C299 1.473 . S
C1316 C359 1.457 . S
C1297 C74 1.480 . S
C1333 C8 1.484 1_556 S
C1352 C419 1.482 1_556 S
C1369 C26 1.484 . S
C1388 C479 1.426 . S
C1405 C48 1.481 . S
C1424 C509 1.462 . S
