# Generated by pormake.
# Topology pyr, (3,6)-cn, num edge types: 1
# Building blocks:
#     Node 0, Type 0, BuildingBlock: BELTOD_clean_linker_0, # of connection points: 3
#     Node 1, Type 0, BuildingBlock: BELTOD_clean_linker_0, # of connection points: 3
#     Node 2, Type 0, BuildingBlock: BELTOD_clean_linker_0, # of connection points: 3
#     Node 3, Type 0, BuildingBlock: BELTOD_clean_linker_0, # of connection points: 3
#     Node 4, Type 0, BuildingBlock: BELTOD_clean_linker_0, # of connection points: 3
#     Node 5, Type 0, BuildingBlock: BELTOD_clean_linker_0, # of connection points: 3
#     Node 6, Type 0, BuildingBlock: BELTOD_clean_linker_0, # of connection points: 3
#     Node 7, Type 0, BuildingBlock: BELTOD_clean_linker_0, # of connection points: 3
#     Node 8, Type 1, BuildingBlock: MIDCAF_clean_sbu_0, # of connection points: 6
#     Node 9, Type 1, BuildingBlock: MIDCAF_clean_sbu_0, # of connection points: 6
#     Node 10, Type 1, BuildingBlock: MIDCAF_clean_sbu_0, # of connection points: 6
#     Node 11, Type 1, BuildingBlock: MIDCAF_clean_sbu_0, # of connection points: 6
#     Edge 12, Type (0, 1), BuildingBlock: TEMPAE_clean_linker_10, # of connection points: 2
#     Edge 13, Type (0, 1), BuildingBlock: TEMPAE_clean_linker_10, # of connection points: 2
#     Edge 14, Type (0, 1), BuildingBlock: TEMPAE_clean_linker_10, # of connection points: 2
#     Edge 15, Type (0, 1), BuildingBlock: TEMPAE_clean_linker_10, # of connection points: 2
#     Edge 16, Type (0, 1), BuildingBlock: TEMPAE_clean_linker_10, # of connection points: 2
#     Edge 17, Type (0, 1), BuildingBlock: TEMPAE_clean_linker_10, # of connection points: 2
#     Edge 18, Type (0, 1), BuildingBlock: TEMPAE_clean_linker_10, # of connection points: 2
#     Edge 19, Type (0, 1), BuildingBlock: TEMPAE_clean_linker_10, # of connection points: 2
#     Edge 20, Type (0, 1), BuildingBlock: TEMPAE_clean_linker_10, # of connection points: 2
#     Edge 21, Type (0, 1), BuildingBlock: TEMPAE_clean_linker_10, # of connection points: 2
#     Edge 22, Type (0, 1), BuildingBlock: TEMPAE_clean_linker_10, # of connection points: 2
#     Edge 23, Type (0, 1), BuildingBlock: TEMPAE_clean_linker_10, # of connection points: 2
#     Edge 24, Type (0, 1), BuildingBlock: TEMPAE_clean_linker_10, # of connection points: 2
#     Edge 25, Type (0, 1), BuildingBlock: TEMPAE_clean_linker_10, # of connection points: 2
#     Edge 26, Type (0, 1), BuildingBlock: TEMPAE_clean_linker_10, # of connection points: 2
#     Edge 27, Type (0, 1), BuildingBlock: TEMPAE_clean_linker_10, # of connection points: 2
#     Edge 28, Type (0, 1), BuildingBlock: TEMPAE_clean_linker_10, # of connection points: 2
#     Edge 29, Type (0, 1), BuildingBlock: TEMPAE_clean_linker_10, # of connection points: 2
#     Edge 30, Type (0, 1), BuildingBlock: TEMPAE_clean_linker_10, # of connection points: 2
#     Edge 31, Type (0, 1), BuildingBlock: TEMPAE_clean_linker_10, # of connection points: 2
#     Edge 32, Type (0, 1), BuildingBlock: TEMPAE_clean_linker_10, # of connection points: 2
#     Edge 33, Type (0, 1), BuildingBlock: TEMPAE_clean_linker_10, # of connection points: 2
#     Edge 34, Type (0, 1), BuildingBlock: TEMPAE_clean_linker_10, # of connection points: 2
#     Edge 35, Type (0, 1), BuildingBlock: TEMPAE_clean_linker_10, # of connection points: 2
# Relax obj value: 0.020
# Max RMSD: 0.062
# Mean RMSD: 0.033
data_MOF--net-pry--node1-MIDCAF_clean_sbu_0--node2-BELTOD_clean_linker_0--edge1-TEMPAE_clean_linker_10
_symmetry_space_group_name_H-M    P1
_symmetry_Int_Tables_number       1
_symmetry_cell_setting            triclinic
loop_
_symmetry_equiv_pos_as_xyz
'x, y, z'
_cell_length_a     40.875173
_cell_length_b     41.206207
_cell_length_c     40.549556
_cell_angle_alpha  89.789246
_cell_angle_beta   90.157881
_cell_angle_gamma 90.299599
loop_
_atom_site_label
_atom_site_type_symbol
_atom_site_fract_x
_atom_site_fract_y
_atom_site_fract_z
_atom_type_partial_charge
P0 P 0.25274 0.26663 0.26813 0.0
H1 H 0.32034 0.27434 0.24629 0.0
H2 H 0.35691 0.23982 0.21458 0.0
H3 H 0.28132 0.16616 0.2095 0.0
H4 H 0.24452 0.2015 0.23998 0.0
H5 H 0.18994 0.30044 0.27322 0.0
H6 H 0.16081 0.33735 0.23595 0.0
H7 H 0.23968 0.33098 0.16594 0.0
H8 H 0.26822 0.2929 0.20249 0.0
H9 H 0.2622 0.23785 0.33301 0.0
H10 H 0.18645 0.23926 0.25892 0.0
O11 O 0.27511 0.2905 0.29264 0.0
H12 H 0.2285 0.20268 0.36758 0.0
H13 H 0.15147 0.20607 0.29425 0.0
C14 C 0.2799 0.2403 0.24592 0.0
C15 C 0.31175 0.25067 0.23851 0.0
C16 C 0.33271 0.23077 0.22053 0.0
C17 C 0.32223 0.20001 0.20964 0.0
C18 C 0.29018 0.18978 0.21718 0.0
C19 C 0.26914 0.20987 0.23489 0.0
C20 C 0.23062 0.29272 0.2401 0.0
C21 C 0.20064 0.30622 0.24952 0.0
C22 C 0.18415 0.32751 0.2284 0.0
C23 C 0.19801 0.33661 0.19811 0.0
C24 C 0.22851 0.32403 0.18913 0.0
C25 C 0.24466 0.30215 0.20995 0.0
C26 C 0.22642 0.24211 0.29391 0.0
C27 C 0.23794 0.23119 0.32453 0.0
C28 C 0.21846 0.21119 0.3444 0.0
C29 C 0.18688 0.20176 0.33411 0.0
C30 C 0.17564 0.21254 0.30307 0.0
C31 C 0.19545 0.23205 0.28296 0.0
P32 P 0.32579 0.83072 0.70863 0.0
H33 H 0.39271 0.82141 0.72997 0.0
H34 H 0.42085 0.83275 0.78202 0.0
H35 H 0.32814 0.85491 0.82737 0.0
H36 H 0.3001 0.84302 0.7754 0.0
H37 H 0.31665 0.80818 0.64169 0.0
H38 H 0.3305 0.75702 0.6148 0.0
H39 H 0.352 0.71439 0.7098 0.0
H40 H 0.33793 0.76558 0.73661 0.0
H41 H 0.30459 0.89687 0.71721 0.0
H42 H 0.25911 0.80379 0.69986 0.0
O43 O 0.34888 0.85419 0.68433 0.0
H44 H 0.25194 0.92365 0.70889 0.0
H45 H 0.20619 0.83058 0.69146 0.0
C46 C 0.3445 0.83205 0.74874 0.0
C47 C 0.3784 0.82801 0.75135 0.0
C48 C 0.39443 0.83452 0.78103 0.0
C49 C 0.37671 0.84513 0.80858 0.0
C50 C 0.34239 0.84664 0.80658 0.0
C51 C 0.32637 0.84013 0.77679 0.0
C52 C 0.32692 0.7908 0.69099 0.0
C53 C 0.32349 0.78755 0.65679 0.0
C54 C 0.33144 0.75838 0.64147 0.0
C55 C 0.34275 0.73196 0.66022 0.0
C56 C 0.34327 0.73436 0.69479 0.0
C57 C 0.33544 0.76369 0.71011 0.0
C58 C 0.28576 0.84851 0.70847 0.0
C59 C 0.28311 0.88217 0.71216 0.0
C60 C 0.25308 0.89742 0.7075 0.0
C61 C 0.22514 0.87918 0.6993 0.0
C62 C 0.22736 0.84515 0.69796 0.0
C63 C 0.25759 0.82988 0.70247 0.0
P64 P 0.76256 0.27264 0.77116 0.0
H65 H 0.82393 0.25841 0.80434 0.0
H66 H 0.862 0.29136 0.83688 0.0
H67 H 0.80106 0.37533 0.82094 0.0
H68 H 0.7631 0.34221 0.78831 0.0
H69 H 0.71678 0.2198 0.75928 0.0
H70 H 0.68533 0.1841 0.79585 0.0
H71 H 0.72409 0.23506 0.8804 0.0
H72 H 0.75553 0.27055 0.84376 0.0
H73 H 0.77291 0.30063 0.70601 0.0
H74 H 0.69554 0.29772 0.77799 0.0
O75 O 0.78432 0.24774 0.74752 0.0
H76 H 0.7384 0.33269 0.66909 0.0
H77 H 0.66046 0.32919 0.74087 0.0
C78 C 0.79097 0.29794 0.79355 0.0
C79 C 0.81895 0.28399 0.80758 0.0
C80 C 0.84057 0.30279 0.82632 0.0
C81 C 0.83459 0.33597 0.83139 0.0
C82 C 0.80658 0.34995 0.81706 0.0
C83 C 0.78481 0.33101 0.79849 0.0
C84 C 0.73862 0.24767 0.79873 0.0
C85 C 0.71844 0.2233 0.78569 0.0
C86 C 0.70041 0.203 0.80662 0.0
C87 C 0.70233 0.20666 0.84105 0.0
C88 C 0.72247 0.23131 0.85402 0.0
C89 C 0.74035 0.25174 0.83303 0.0
C90 C 0.73658 0.29631 0.74444 0.0
C91 C 0.74833 0.30664 0.71371 0.0
C92 C 0.72847 0.32481 0.69255 0.0
C93 C 0.69646 0.33321 0.7018 0.0
C94 C 0.68499 0.32324 0.73298 0.0
C95 C 0.70495 0.30506 0.75416 0.0
P96 P 0.76707 0.77916 0.25889 0.0
H97 H 0.80506 0.83856 0.25095 0.0
H98 H 0.83517 0.87301 0.28987 0.0
H99 H 0.80773 0.80862 0.36955 0.0
H100 H 0.77774 0.77443 0.33068 0.0
H101 H 0.75844 0.74691 0.19587 0.0
H102 H 0.79514 0.71551 0.16102 0.0
H103 H 0.87437 0.73344 0.22954 0.0
H104 H 0.83718 0.76381 0.26477 0.0
H105 H 0.70342 0.78613 0.28999 0.0
H106 H 0.77348 0.70976 0.27505 0.0
O107 O 0.74391 0.80317 0.23535 0.0
H108 H 0.66852 0.7487 0.32106 0.0
H109 H 0.7383 0.67189 0.30511 0.0
C110 C 0.78875 0.80428 0.28798 0.0
C111 C 0.80544 0.832 0.27684 0.0
C112 C 0.82277 0.85152 0.29904 0.0
C113 C 0.82363 0.84362 0.33279 0.0
C114 C 0.80706 0.81561 0.34378 0.0
C115 C 0.78994 0.796 0.32153 0.0
C116 C 0.7952 0.75811 0.23256 0.0
C117 C 0.7838 0.74432 0.20317 0.0
C118 C 0.80489 0.72653 0.18319 0.0
C119 C 0.83783 0.72215 0.19232 0.0
C120 C 0.84914 0.73615 0.22187 0.0
C121 C 0.82793 0.75379 0.24192 0.0
C122 C 0.74072 0.75061 0.27975 0.0
C123 C 0.711 0.76114 0.29293 0.0
C124 C 0.691 0.73964 0.31054 0.0
C125 C 0.70045 0.70716 0.3154 0.0
C126 C 0.73034 0.69674 0.30204 0.0
C127 C 0.75039 0.71834 0.28457 0.0
P128 P 0.93157 0.93982 0.94787 0.0
H129 H 0.90634 0.00039 0.97542 0.0
H130 H 0.8508 0.02022 0.98501 0.0
H131 H 0.81135 0.93235 0.94248 0.0
H132 H 0.86673 0.91271 0.93302 0.0
H133 H 0.95404 0.9075 0.0082 0.0
H134 H 0.95948 0.85038 0.02352 0.0
H135 H 0.91694 0.82259 0.92996 0.0
H136 H 0.91302 0.87968 0.91434 0.0
H137 H 0.90886 0.98252 0.89463 0.0
H138 H 0.98193 0.90848 0.90814 0.0
O139 O 0.9578 0.96122 0.97084 0.0
H140 H 0.92606 0.98972 0.83761 0.0
H141 H 0.9987 0.91484 0.85056 0.0
C142 C 0.89069 0.95466 0.95434 0.0
C143 C 0.88574 0.98535 0.96825 0.0
C144 C 0.854 0.9968 0.97345 0.0
C145 C 0.82673 0.9777 0.96477 0.0
C146 C 0.83188 0.94737 0.94995 0.0
C147 C 0.86357 0.93607 0.94458 0.0
C148 C 0.93366 0.89777 0.95993 0.0
C149 C 0.94593 0.88908 0.991 0.0
C150 C 0.9487 0.85638 0.99986 0.0
C151 C 0.93884 0.8318 0.9779 0.0
C152 C 0.92537 0.84081 0.94724 0.0
C153 C 0.92292 0.87347 0.93833 0.0
C154 C 0.94351 0.94435 0.90539 0.0
C155 C 0.92827 0.96742 0.8852 0.0
C156 C 0.93808 0.97142 0.85247 0.0
C157 C 0.96345 0.95249 0.8393 0.0
C158 C 0.97912 0.92982 0.85989 0.0
C159 C 0.96936 0.92596 0.89272 0.0
P160 P 0.63309 0.13622 0.39541 0.0
H161 H 0.66774 0.19814 0.39789 0.0
H162 H 0.65781 0.24824 0.42812 0.0
H163 H 0.57766 0.20217 0.47954 0.0
H164 H 0.58734 0.15182 0.44861 0.0
H165 H 0.65925 0.07497 0.37286 0.0
H166 H 0.6981 0.03707 0.39742 0.0
H167 H 0.69555 0.09146 0.48833 0.0
H168 H 0.65571 0.12826 0.46414 0.0
H169 H 0.58337 0.17121 0.35903 0.0
H170 H 0.59891 0.07283 0.3921 0.0
O171 O 0.65656 0.1468 0.36348 0.0
H172 H 0.54159 0.15207 0.3203 0.0
H173 H 0.55789 0.05366 0.35283 0.0
C174 C 0.62776 0.17158 0.42056 0.0
C175 C 0.64814 0.19863 0.41577 0.0
C176 C 0.64262 0.22718 0.43315 0.0
C177 C 0.61698 0.22891 0.45599 0.0
C178 C 0.59772 0.20122 0.46217 0.0
C179 C 0.60303 0.17268 0.4444 0.0
C180 C 0.65467 0.10446 0.41661 0.0
C181 C 0.66617 0.078 0.39848 0.0
C182 C 0.6885 0.05646 0.41248 0.0
C183 C 0.70026 0.06148 0.44467 0.0
C184 C 0.68677 0.08665 0.46359 0.0
C185 C 0.66412 0.10798 0.44964 0.0
C186 C 0.59474 0.12341 0.37791 0.0
C187 C 0.57691 0.14568 0.3589 0.0
C188 C 0.55297 0.13477 0.33687 0.0
C189 C 0.54694 0.10141 0.33342 0.0
C190 C 0.56233 0.07951 0.35501 0.0
C191 C 0.586 0.09048 0.37727 0.0
P192 P 0.42935 0.60927 0.0958 0.0
H193 H 0.39826 0.56144 0.05228 0.0
H194 H 0.3422 0.54064 0.04815 0.0
H195 H 0.31357 0.60208 0.12899 0.0
H196 H 0.36984 0.62225 0.13358 0.0
H197 H 0.46226 0.64029 0.03966 0.0
H198 H 0.4677 0.6968 0.02227 0.0
H199 H 0.40385 0.72575 0.10161 0.0
H200 H 0.39977 0.66935 0.11968 0.0
H201 H 0.4179 0.56175 0.14787 0.0
H202 H 0.47411 0.64979 0.13535 0.0
O203 O 0.45398 0.58645 0.07286 0.0
H204 H 0.43849 0.55636 0.20406 0.0
H205 H 0.49447 0.64485 0.19203 0.0
C206 C 0.38817 0.59362 0.09305 0.0
C207 C 0.38002 0.57029 0.06928 0.0
C208 C 0.34804 0.55825 0.06708 0.0
C209 C 0.32361 0.56971 0.08832 0.0
C210 C 0.33192 0.59296 0.11222 0.0
C211 C 0.36399 0.60465 0.1147 0.0
C212 C 0.43064 0.65057 0.08103 0.0
C213 C 0.44923 0.65875 0.05319 0.0
C214 C 0.45209 0.69112 0.04306 0.0
C215 C 0.43627 0.71592 0.06055 0.0
C216 C 0.41673 0.70737 0.08781 0.0
C217 C 0.41409 0.67503 0.09801 0.0
C218 C 0.44364 0.60669 0.13777 0.0
C219 C 0.43424 0.58025 0.15741 0.0
C220 C 0.44601 0.57724 0.1896 0.0
C221 C 0.46775 0.60046 0.20272 0.0
C222 C 0.47772 0.6266 0.18267 0.0
C223 C 0.46585 0.6296 0.15038 0.0
P224 P 0.15874 0.38547 0.65405 0.0
H225 H 0.19133 0.34134 0.60918 0.0
H226 H 0.1709 0.29849 0.57253 0.0
H227 H 0.0717 0.32521 0.59587 0.0
H228 H 0.09206 0.36842 0.63176 0.0
H229 H 0.199 0.43587 0.68378 0.0
H230 H 0.24085 0.47242 0.66099 0.0
H231 H 0.21618 0.44024 0.56283 0.0
H232 H 0.17398 0.40444 0.58546 0.0
H233 H 0.11708 0.35533 0.70321 0.0
H234 H 0.12905 0.4504 0.65995 0.0
O235 O 0.18302 0.36396 0.67891 0.0
H236 H 0.07733 0.377 0.74218 0.0
H237 H 0.08929 0.4723 0.69897 0.0
C238 C 0.14324 0.35778 0.62346 0.0
C239 C 0.16518 0.33838 0.60585 0.0
C240 C 0.15355 0.31408 0.58484 0.0
C241 C 0.11979 0.30857 0.5816 0.0
C242 C 0.09786 0.32897 0.59815 0.0
C243 C 0.10951 0.35358 0.61874 0.0
C244 C 0.18381 0.41705 0.63639 0.0
C245 C 0.20205 0.43734 0.65729 0.0
C246 C 0.2258 0.45827 0.6443 0.0
C247 C 0.23182 0.45883 0.61025 0.0
C248 C 0.21208 0.44 0.58921 0.0
C249 C 0.18806 0.41942 0.60218 0.0
C250 C 0.1265 0.40139 0.67928 0.0
C251 C 0.11081 0.38081 0.70187 0.0
C252 C 0.08788 0.39316 0.72391 0.0
C253 C 0.08035 0.42639 0.72375 0.0
C254 C 0.0949 0.44665 0.69986 0.0
C255 C 0.11768 0.43418 0.67763 0.0
Zn256 Zn 0.97466 0.07245 0.56462 0.0
Zn257 Zn 0.03548 0.98373 0.49586 0.0
Zn258 Zn 0.0021 0.02719 0.53016 0.0
C259 C 0.05688 0.04407 0.47397 0.0
C260 C 0.96847 0.97424 0.48201 0.0
O261 O 0.0083 0.01546 0.58353 0.0
O262 O 0.98524 0.05663 0.60926 0.0
C263 C 0.01802 0.10549 0.52679 0.0
O264 O 0.0364 0.05274 0.49642 0.0
O265 O 0.06147 0.01436 0.46815 0.0
O266 O 0.99634 0.9621 0.4772 0.0
O267 O 0.96532 0.99965 0.50023 0.0
O268 O 0.99649 0.11148 0.54804 0.0
O269 O 0.02334 0.07601 0.51763 0.0
O270 O 0.94913 0.02402 0.51881 0.0
O271 O 0.93024 0.06477 0.54853 0.0
C272 C 0.92522 0.0418 0.52867 0.0
O273 O 0.02957 0.99569 0.56516 0.0
O274 O 0.05739 0.96227 0.53329 0.0
C275 C 0.99971 0.02968 0.61045 0.0
C276 C 0.05017 0.97233 0.5617 0.0
Zn277 Zn 0.48475 0.0588 0.99065 0.0
Zn278 Zn 0.55372 0.98634 0.07487 0.0
Zn279 Zn 0.51961 0.0208 0.03234 0.0
C280 C 0.59914 0.01957 0.03717 0.0
C281 C 0.51726 0.94227 0.03796 0.0
O282 O 0.4875 0.05419 0.06076 0.0
O283 O 0.46 0.08331 0.02405 0.0
C284 C 0.55133 0.07105 0.97916 0.0
O285 O 0.57259 0.02773 0.02205 0.0
O286 O 0.59785 0.00299 0.06337 0.0
O287 O 0.5405 0.94302 0.05852 0.0
O288 O 0.50576 0.96891 0.02592 0.0
O289 O 0.52328 0.08057 0.97052 0.0
O290 O 0.55465 0.04856 0.0011 0.0
O291 O 0.49048 0.98804 0.00124 0.0
O292 O 0.46352 0.02131 0.96797 0.0
C293 C 0.47038 0.99281 0.97722 0.0
O294 O 0.50666 0.0363 0.08299 0.0
O295 O 0.53245 0.00158 0.11563 0.0
C296 C 0.4662 0.0762 0.0537 0.0
C297 C 0.51322 0.02516 0.112 0.0
Zn298 Zn 0.56024 0.55847 0.54654 0.0
Zn299 Zn 0.48359 0.48459 0.47043 0.0
Zn300 Zn 0.52162 0.52109 0.50742 0.0
C301 C 0.52484 0.44272 0.50403 0.0
C302 C 0.51696 0.52524 0.42749 0.0
O303 O 0.48979 0.54948 0.54025 0.0
O304 O 0.52352 0.57816 0.57165 0.0
C305 C 0.57741 0.49371 0.55832 0.0
O306 O 0.53668 0.47 0.5141 0.0
O307 O 0.49992 0.4421 0.4856 0.0
O308 O 0.49825 0.5008 0.42713 0.0
O309 O 0.52776 0.53657 0.45509 0.0
O310 O 0.58543 0.52218 0.56665 0.0
O311 O 0.55464 0.48908 0.5367 0.0
O312 O 0.54993 0.55421 0.47501 0.0
O313 O 0.57983 0.58369 0.50947 0.0
C314 C 0.57133 0.57672 0.48034 0.0
O315 O 0.4699 0.527 0.52305 0.0
O316 O 0.44069 0.49911 0.48676 0.0
C317 C 0.49472 0.57045 0.56327 0.0
C318 C 0.44203 0.5171 0.51183 0.0
Zn319 Zn 0.05027 0.56081 0.9718 0.0
Zn320 Zn 0.97979 0.49061 0.05663 0.0
Zn321 Zn 0.01712 0.52584 0.01411 0.0
C322 C 0.04676 0.48048 0.07195 0.0
C323 C 0.96577 0.46897 0.99273 0.0
O324 O 0.00149 0.5775 0.01811 0.0
O325 O 0.03558 0.60417 0.98531 0.0
C326 C 0.09602 0.53101 0.01295 0.0
O327 O 0.051 0.50043 0.04777 0.0
O328 O 0.01824 0.47235 0.08086 0.0
O329 O 0.95658 0.46493 0.02217 0.0
O330 O 0.98845 0.4897 0.98565 0.0
O331 O 0.09432 0.54718 0.9865 0.0
O332 O 0.06963 0.52137 0.02742 0.0
O333 O 0.00859 0.50691 0.96343 0.0
O334 O 0.03255 0.54261 0.93036 0.0
C335 C 0.01569 0.51718 0.93422 0.0
O336 O 0.9845 0.55912 0.0419 0.0
O337 O 0.95609 0.52761 0.07587 0.0
C338 C 0.01224 0.60432 0.00557 0.0
C339 C 0.9629 0.5555 0.0648 0.0
C340 C 0.14565 0.15661 0.34116 0.0
C341 C 0.16619 0.18022 0.35534 0.0
C342 C 0.12668 0.13569 0.36082 0.0
C343 C 0.12876 0.13782 0.39559 0.0
C344 C 0.14932 0.1615 0.41014 0.0
C345 C 0.16741 0.18268 0.3899 0.0
C346 C 0.10487 0.11083 0.34436 0.0
C347 C 0.15265 0.16402 0.44713 0.0
C348 C 0.06114 0.09832 0.44631 0.0
C349 C 0.07537 0.06861 0.45485 0.0
C350 C 0.07843 0.12144 0.42759 0.0
C351 C 0.11048 0.11431 0.41666 0.0
C352 C 0.12492 0.08426 0.42522 0.0
C353 C 0.10714 0.06175 0.44413 0.0
C354 C 0.06229 0.15331 0.41925 0.0
C355 C 0.15909 0.07579 0.41422 0.0
H356 H 0.14484 0.15392 0.31461 0.0
H357 H 0.18258 0.20116 0.40127 0.0
H358 H 0.11332 0.08604 0.3507 0.0
H359 H 0.07944 0.11312 0.35352 0.0
H360 H 0.10466 0.11344 0.31708 0.0
H361 H 0.16983 0.18361 0.45465 0.0
H362 H 0.12838 0.1686 0.45827 0.0
H363 H 0.16158 0.14072 0.45747 0.0
H364 H 0.03619 0.1032 0.45364 0.0
H365 H 0.11818 0.03872 0.45065 0.0
H366 H 0.06149 0.15674 0.3921 0.0
H367 H 0.07685 0.17366 0.42964 0.0
H368 H 0.03699 0.15479 0.42904 0.0
H369 H 0.16019 0.07535 0.3869 0.0
H370 H 0.16712 0.05181 0.42379 0.0
H371 H 0.1767 0.09457 0.42274 0.0
C372 C 0.41913 0.88186 0.83209 0.0
C373 C 0.3941 0.85907 0.83738 0.0
C374 C 0.43272 0.89936 0.85831 0.0
C375 C 0.42126 0.89369 0.89074 0.0
C376 C 0.39759 0.86912 0.89657 0.0
C377 C 0.38392 0.85236 0.8697 0.0
C378 C 0.45784 0.92541 0.85098 0.0
C379 C 0.38535 0.8616 0.93083 0.0
C380 C 0.47354 0.93652 0.95459 0.0
C381 C 0.45598 0.96527 0.95901 0.0
C382 C 0.46122 0.91154 0.93461 0.0
C383 C 0.43141 0.91621 0.91741 0.0
C384 C 0.4131 0.9448 0.92265 0.0
C385 C 0.42554 0.96889 0.94355 0.0
C386 C 0.48117 0.88112 0.93062 0.0
C387 C 0.38127 0.95083 0.90468 0.0
H388 H 0.42681 0.88743 0.80712 0.0
H389 H 0.36476 0.83453 0.87391 0.0
H390 H 0.44779 0.94954 0.85742 0.0
H391 H 0.48006 0.92162 0.86624 0.0
H392 H 0.46512 0.92583 0.8246 0.0
H393 H 0.37724 0.8359 0.9329 0.0
H394 H 0.40436 0.86635 0.9498 0.0
H395 H 0.364 0.8772 0.93625 0.0
H396 H 0.49755 0.93402 0.96564 0.0
H397 H 0.41188 0.99111 0.94696 0.0
H398 H 0.49874 0.88462 0.91009 0.0
H399 H 0.46558 0.85976 0.92485 0.0
H400 H 0.4955 0.87587 0.95333 0.0
H401 H 0.38582 0.95224 0.87774 0.0
H402 H 0.36937 0.97369 0.91258 0.0
H403 H 0.36403 0.9304 0.90901 0.0
C404 C 0.6755 0.34699 0.64512 0.0
C405 C 0.67557 0.35289 0.67921 0.0
C406 C 0.65776 0.36679 0.62328 0.0
C407 C 0.63964 0.39321 0.63573 0.0
C408 C 0.63848 0.39846 0.67021 0.0
C409 C 0.65649 0.37832 0.69151 0.0
C410 C 0.65911 0.35999 0.58681 0.0
C411 C 0.61909 0.4261 0.68453 0.0
C412 C 0.62682 0.46899 0.58391 0.0
C413 C 0.59386 0.46613 0.57479 0.0
C414 C 0.64226 0.44479 0.60263 0.0
C415 C 0.62424 0.41706 0.61274 0.0
C416 C 0.59122 0.41344 0.60253 0.0
C417 C 0.57631 0.43825 0.58398 0.0
C418 C 0.67763 0.44944 0.6125 0.0
C419 C 0.57104 0.38424 0.61239 0.0
H420 H 0.68959 0.32697 0.63543 0.0
H421 H 0.6565 0.38322 0.71775 0.0
H422 H 0.63406 0.3598 0.57628 0.0
H423 H 0.67304 0.3796 0.57422 0.0
H424 H 0.67094 0.33641 0.58133 0.0
H425 H 0.61884 0.42559 0.71193 0.0
H426 H 0.62975 0.44958 0.67631 0.0
H427 H 0.59348 0.42513 0.67543 0.0
H428 H 0.64045 0.49056 0.57684 0.0
H429 H 0.5506 0.43629 0.57764 0.0
H430 H 0.69217 0.42797 0.60526 0.0
H431 H 0.67947 0.45173 0.6397 0.0
H432 H 0.68871 0.47141 0.60104 0.0
H433 H 0.58584 0.36177 0.61239 0.0
H434 H 0.54973 0.38079 0.59565 0.0
H435 H 0.5617 0.38782 0.63778 0.0
C436 C 0.88138 0.67986 0.18664 0.0
C437 C 0.85977 0.70186 0.17175 0.0
C438 C 0.90022 0.65864 0.16759 0.0
C439 C 0.89733 0.65931 0.13279 0.0
C440 C 0.8765 0.6823 0.11756 0.0
C441 C 0.85802 0.70329 0.13721 0.0
C442 C 0.92215 0.63449 0.18476 0.0
C443 C 0.87211 0.68398 0.08064 0.0
C444 C 0.96228 0.61267 0.08554 0.0
C445 C 0.94573 0.58356 0.079 0.0
C446 C 0.94664 0.63815 0.10208 0.0
C447 C 0.91386 0.63403 0.1128 0.0
C448 C 0.89694 0.60483 0.10562 0.0
C449 C 0.91309 0.58 0.08883 0.0
C450 C 0.96609 0.66855 0.1092 0.0
C451 C 0.86205 0.59939 0.11659 0.0
H452 H 0.88267 0.67829 0.21329 0.0
H453 H 0.84181 0.72055 0.1254 0.0
H454 H 0.91387 0.60943 0.17905 0.0
H455 H 0.94758 0.63711 0.17558 0.0
H456 H 0.9223 0.63762 0.21197 0.0
H457 H 0.86896 0.70952 0.07238 0.0
H458 H 0.89296 0.67327 0.06721 0.0
H459 H 0.84957 0.67048 0.07372 0.0
H460 H 0.98784 0.61511 0.0789 0.0
H461 H 0.90029 0.55742 0.08385 0.0
H462 H 0.98235 0.664 0.13067 0.0
H463 H 0.95044 0.68967 0.11492 0.0
H464 H 0.98199 0.67484 0.08792 0.0
H465 H 0.86041 0.60167 0.1438 0.0
H466 H 0.85253 0.57512 0.10939 0.0
H467 H 0.846 0.61819 0.1056 0.0
C468 C 0.33193 0.16138 0.16292 0.0
C469 C 0.34433 0.17921 0.18966 0.0
C470 C 0.35264 0.14295 0.14286 0.0
C471 C 0.38666 0.14258 0.1494 0.0
C472 C 0.3993 0.15995 0.17666 0.0
C473 C 0.378 0.1779 0.19658 0.0
C474 C 0.33821 0.12472 0.11398 0.0
C475 C 0.43547 0.16022 0.18422 0.0
C476 C 0.43632 0.07672 0.10746 0.0
C477 C 0.44832 0.09339 0.07986 0.0
C478 C 0.41709 0.09264 0.13103 0.0
C479 C 0.40919 0.1258 0.12636 0.0
C480 C 0.42171 0.14279 0.0987 0.0
C481 C 0.44104 0.12634 0.07576 0.0
C482 C 0.4042 0.07363 0.16014 0.0
C483 C 0.41396 0.17815 0.09283 0.0
H484 H 0.3061 0.16256 0.15699 0.0
H485 H 0.38779 0.19108 0.21751 0.0
H486 H 0.34777 0.13504 0.09058 0.0
H487 H 0.34563 0.09888 0.11499 0.0
H488 H 0.31107 0.12589 0.11342 0.0
H489 H 0.4412 0.17282 0.20772 0.0
H490 H 0.44473 0.135 0.18557 0.0
H491 H 0.44889 0.17261 0.16401 0.0
H492 H 0.44094 0.05097 0.11001 0.0
H493 H 0.45022 0.1392 0.05428 0.0
H494 H 0.37773 0.06871 0.1565 0.0
H495 H 0.40686 0.08777 0.1832 0.0
H496 H 0.41694 0.05006 0.16323 0.0
H497 H 0.38723 0.18111 0.08915 0.0
H498 H 0.4268 0.18816 0.07089 0.0
H499 H 0.42099 0.19274 0.11469 0.0
C500 C 0.16419 0.88739 0.69922 0.0
C501 C 0.19532 0.89585 0.68746 0.0
C502 C 0.1359 0.90124 0.68534 0.0
C503 C 0.139 0.92297 0.65836 0.0
C504 C 0.1705 0.93242 0.64734 0.0
C505 C 0.19822 0.91897 0.66223 0.0
C506 C 0.10286 0.89146 0.69869 0.0
C507 C 0.17502 0.95522 0.6184 0.0
C508 C 0.07874 0.92593 0.588 0.0
C509 C 0.06729 0.95784 0.59025 0.0
C510 C 0.10025 0.91329 0.61162 0.0
C511 C 0.11002 0.93283 0.63858 0.0
C512 C 0.09604 0.96392 0.64269 0.0
C513 C 0.0756 0.97648 0.61789 0.0
C514 C 0.11462 0.88004 0.60616 0.0
C515 C 0.1043 0.98487 0.67199 0.0
H516 H 0.16195 0.86968 0.71894 0.0
H517 H 0.22227 0.92529 0.65291 0.0
H518 H 0.08484 0.91138 0.6962 0.0
H519 H 0.09348 0.87029 0.68468 0.0
H520 H 0.10455 0.88426 0.72507 0.0
H521 H 0.20119 0.96078 0.61354 0.0
H522 H 0.16423 0.94424 0.59587 0.0
H523 H 0.16208 0.97835 0.62294 0.0
H524 H 0.07221 0.91137 0.56676 0.0
H525 H 0.0675 0.00142 0.61942 0.0
H526 H 0.11203 0.86496 0.62869 0.0
H527 H 0.14116 0.88241 0.60086 0.0
H528 H 0.10276 0.86711 0.58527 0.0
H529 H 0.10873 0.96996 0.6944 0.0
H530 H 0.08434 0.00233 0.67717 0.0
H531 H 0.12688 0.99899 0.6667 0.0
C532 C 0.86732 0.34308 0.88314 0.0
C533 C 0.85676 0.35553 0.85271 0.0
C534 C 0.88699 0.36164 0.90439 0.0
C535 C 0.89651 0.39342 0.89496 0.0
C536 C 0.88681 0.40581 0.86383 0.0
C537 C 0.86681 0.3868 0.84317 0.0
C538 C 0.89677 0.34755 0.9374 0.0
C539 C 0.89666 0.43949 0.85277 0.0
C540 C 0.91442 0.4513 0.96537 0.0
C541 C 0.94864 0.45103 0.96648 0.0
C542 C 0.89723 0.43337 0.94159 0.0
C543 C 0.91474 0.41432 0.9187 0.0
C544 C 0.94941 0.41408 0.91972 0.0
C545 C 0.96598 0.43253 0.94367 0.0
C546 C 0.8603 0.43433 0.94139 0.0
C547 C 0.96888 0.39388 0.89593 0.0
H548 H 0.85937 0.31908 0.89081 0.0
H549 H 0.85901 0.39641 0.81952 0.0
H550 H 0.92368 0.34908 0.94068 0.0
H551 H 0.8855 0.36183 0.95749 0.0
H552 H 0.88904 0.32179 0.94017 0.0
H553 H 0.89163 0.44354 0.82614 0.0
H554 H 0.88283 0.45768 0.86713 0.0
H555 H 0.92306 0.4439 0.85749 0.0
H556 H 0.90109 0.46559 0.98323 0.0
H557 H 0.99238 0.43156 0.94541 0.0
H558 H 0.85031 0.40971 0.94638 0.0
H559 H 0.8513 0.44189 0.91671 0.0
H560 H 0.85045 0.45128 0.9601 0.0
H561 H 0.9615 0.368 0.89792 0.0
H562 H 0.99562 0.39579 0.90039 0.0
H563 H 0.96355 0.40181 0.87036 0.0
C564 C 0.64558 0.68547 0.33306 0.0
C565 C 0.67984 0.68474 0.33553 0.0
C566 C 0.62587 0.66624 0.35374 0.0
C567 C 0.64073 0.64579 0.3775 0.0
C568 C 0.67527 0.64396 0.37922 0.0
C569 C 0.69439 0.6635 0.35831 0.0
C570 C 0.58918 0.66899 0.35104 0.0
C571 C 0.69207 0.62237 0.40414 0.0
C572 C 0.59657 0.62701 0.45747 0.0
C573 C 0.58665 0.59474 0.45278 0.0
C574 C 0.61337 0.6441 0.43278 0.0
C575 C 0.62045 0.62856 0.40258 0.0
C576 C 0.60958 0.59628 0.39726 0.0
C577 C 0.59325 0.57957 0.42269 0.0
C578 C 0.62421 0.67858 0.43934 0.0
C579 C 0.61599 0.57907 0.36517 0.0
H580 H 0.63408 0.70139 0.31518 0.0
H581 H 0.72079 0.66298 0.3607 0.0
H582 H 0.57716 0.64519 0.35534 0.0
H583 H 0.58026 0.68597 0.37014 0.0
H584 H 0.58153 0.6784 0.32651 0.0
H585 H 0.71903 0.62193 0.40074 0.0
H586 H 0.68678 0.63109 0.42942 0.0
H587 H 0.68251 0.59719 0.4023 0.0
H588 H 0.59149 0.63883 0.48073 0.0
H589 H 0.58652 0.55434 0.41935 0.0
H590 H 0.61457 0.69497 0.41989 0.0
H591 H 0.65131 0.68019 0.43853 0.0
H592 H 0.61584 0.68748 0.46371 0.0
H593 H 0.61056 0.59518 0.3439 0.0
H594 H 0.60113 0.55654 0.36278 0.0
H595 H 0.64225 0.57254 0.36381 0.0
C596 C 0.15112 0.34982 0.16132 0.0
C597 C 0.18055 0.35935 0.17613 0.0
C598 C 0.13309 0.37166 0.14195 0.0
C599 C 0.14438 0.40404 0.13809 0.0
C600 C 0.17459 0.4135 0.15244 0.0
C601 C 0.19251 0.39088 0.17111 0.0
C602 C 0.10142 0.36032 0.12644 0.0
C603 C 0.18724 0.44782 0.14943 0.0
C604 C 0.1009 0.45253 0.0712 0.0
C605 C 0.07485 0.4656 0.08907 0.0
C606 C 0.12501 0.43383 0.08705 0.0
C607 C 0.12294 0.42833 0.12153 0.0
C608 C 0.09786 0.44345 0.13986 0.0
C609 C 0.07388 0.46153 0.12333 0.0
C610 C 0.15134 0.41826 0.06657 0.0
C611 C 0.09536 0.43919 0.17677 0.0
H612 H 0.14211 0.3253 0.16516 0.0
H613 H 0.21528 0.39814 0.18278 0.0
H614 H 0.08054 0.37287 0.13816 0.0
H615 H 0.10104 0.36658 0.0998 0.0
H616 H 0.09769 0.33372 0.12916 0.0
H617 H 0.21325 0.44998 0.15717 0.0
H618 H 0.18486 0.45664 0.12371 0.0
H619 H 0.17234 0.46396 0.16519 0.0
H620 H 0.1015 0.45554 0.04463 0.0
H621 H 0.05382 0.47188 0.13715 0.0
H622 H 0.14575 0.39203 0.06381 0.0
H623 H 0.17554 0.42033 0.07882 0.0
H624 H 0.15301 0.42933 0.04159 0.0
H625 H 0.08828 0.41378 0.18259 0.0
H626 H 0.07695 0.45563 0.18778 0.0
H627 H 0.11941 0.44388 0.18863 0.0
C628 C 0.65027 0.1779 0.85594 0.0
C629 C 0.68305 0.18507 0.86326 0.0
C630 C 0.63152 0.15789 0.87671 0.0
C631 C 0.64592 0.14447 0.90548 0.0
C632 C 0.67914 0.15126 0.91284 0.0
C633 C 0.69723 0.17169 0.89177 0.0
C634 C 0.59612 0.15144 0.86806 0.0
C635 C 0.69546 0.13774 0.94332 0.0
C636 C 0.58455 0.12072 0.97135 0.0
C637 C 0.57982 0.08771 0.96479 0.0
C638 C 0.60737 0.13915 0.95342 0.0
C639 C 0.6256 0.12418 0.9281 0.0
C640 C 0.62195 0.09042 0.92245 0.0
C641 C 0.59883 0.07257 0.94077 0.0
C642 C 0.61062 0.17499 0.96033 0.0
C643 C 0.64153 0.07353 0.89617 0.0
H644 H 0.63903 0.18849 0.8342 0.0
H645 H 0.72263 0.17695 0.89748 0.0
H646 H 0.59177 0.12495 0.86573 0.0
H647 H 0.5801 0.16034 0.88811 0.0
H648 H 0.58872 0.16341 0.84462 0.0
H649 H 0.7225 0.1372 0.94064 0.0
H650 H 0.68958 0.15341 0.96466 0.0
H651 H 0.68657 0.11289 0.94906 0.0
H652 H 0.5694 0.1324 0.98968 0.0
H653 H 0.59439 0.04725 0.9351 0.0
H654 H 0.60187 0.18907 0.93869 0.0
H655 H 0.63668 0.18154 0.96435 0.0
H656 H 0.59636 0.18244 0.9823 0.0
H657 H 0.63751 0.08538 0.87189 0.0
H658 H 0.63497 0.04745 0.89398 0.0
H659 H 0.668 0.07565 0.902 0.0
C660 C 0.8734 0.87559 0.34916 0.0
C661 C 0.84181 0.8644 0.35651 0.0
C662 C 0.89113 0.89454 0.37179 0.0
C663 C 0.8768 0.90286 0.40241 0.0
C664 C 0.84489 0.89144 0.40995 0.0
C665 C 0.82777 0.87259 0.38681 0.0
C666 C 0.92563 0.90484 0.36327 0.0
C667 C 0.8282 0.89891 0.4421 0.0
C668 C 0.93795 0.92381 0.46956 0.0
C669 C 0.94024 0.95764 0.46666 0.0
C670 C 0.91603 0.90588 0.45011 0.0
C671 C 0.89615 0.92215 0.42678 0.0
C672 C 0.89726 0.95652 0.42481 0.0
C673 C 0.91922 0.97398 0.44502 0.0
C674 C 0.91549 0.86936 0.4532 0.0
C675 C 0.8764 0.97458 0.40021 0.0
H676 H 0.88457 0.86887 0.32597 0.0
H677 H 0.80317 0.86433 0.39247 0.0
H678 H 0.92787 0.93166 0.36401 0.0
H679 H 0.94295 0.89489 0.38181 0.0
H680 H 0.93316 0.8964 0.33844 0.0
H681 H 0.81205 0.87849 0.44981 0.0
H682 H 0.84578 0.90381 0.4623 0.0
H683 H 0.81243 0.92044 0.43847 0.0
H684 H 0.95435 0.9112 0.48626 0.0
H685 H 0.92126 1.00012 0.44256 0.0
H686 H 0.92372 0.85833 0.42973 0.0
H687 H 0.89017 0.8607 0.45784 0.0
H688 H 0.93153 0.86052 0.47346 0.0
H689 H 0.88131 0.96585 0.37488 0.0
H690 H 0.88102 0.00115 0.40079 0.0
H691 H 0.85017 0.96968 0.40534 0.0
C692 C 0.3832 0.71058 0.62035 0.0
C693 C 0.35874 0.70427 0.64369 0.0
C694 C 0.40186 0.68544 0.60711 0.0
C695 C 0.39556 0.65303 0.61703 0.0
C696 C 0.36978 0.64627 0.63933 0.0
C697 C 0.35195 0.6721 0.65287 0.0
C698 C 0.42943 0.69382 0.58377 0.0
C699 C 0.3618 0.61199 0.6499 0.0
C700 C 0.43825 0.59349 0.56113 0.0
C701 C 0.46703 0.58738 0.57888 0.0
C702 C 0.41318 0.61237 0.57461 0.0
C703 C 0.41789 0.62699 0.60579 0.0
C704 C 0.4465 0.62014 0.62424 0.0
C705 C 0.47061 0.60019 0.61066 0.0
C706 C 0.38251 0.61813 0.55468 0.0
C707 C 0.45264 0.63553 0.65745 0.0
H708 H 0.38885 0.73547 0.61361 0.0
H709 H 0.33299 0.66719 0.67088 0.0
H710 H 0.45314 0.68655 0.59488 0.0
H711 H 0.42655 0.68024 0.56037 0.0
H712 H 0.43053 0.72017 0.57793 0.0
H713 H 0.33655 0.61001 0.6598 0.0
H714 H 0.36445 0.5948 0.62908 0.0
H715 H 0.37905 0.60442 0.6696 0.0
H716 H 0.43588 0.58483 0.53608 0.0
H717 H 0.49288 0.5956 0.62445 0.0
H718 H 0.38335 0.64284 0.54375 0.0
H719 H 0.36055 0.61668 0.57065 0.0
H720 H 0.37981 0.6003 0.53436 0.0
H721 H 0.4554 0.66218 0.65438 0.0
H722 H 0.47505 0.62601 0.66958 0.0
H723 H 0.43151 0.63122 0.67401 0.0
C724 C 0.00675 0.95743 0.79543 0.0
C725 C 0.97355 0.95694 0.80433 0.0
C726 C 0.01635 0.96469 0.76293 0.0
C727 C 0.9922 0.97206 0.73902 0.0
C728 C 0.95866 0.96987 0.74747 0.0
C729 C 0.94979 0.96216 0.77991 0.0
C730 C 0.0523 0.96602 0.75465 0.0
C731 C 0.93208 0.97735 0.72266 0.0
C732 C 0.00553 0.03368 0.6713 0.0
C733 C 0.00431 0.01421 0.64307 0.0
C734 C 0.00395 0.02 0.70289 0.0
C735 C 0.00142 0.98589 0.70639 0.0
C736 C 0.003 0.96592 0.67809 0.0
C737 C 0.00378 0.98035 0.64664 0.0
C738 C 0.00248 0.04225 0.73238 0.0
C739 C 0.00175 0.92942 0.6808 0.0
H740 H 0.02533 0.95343 0.8141 0.0
H741 H 0.92409 0.96091 0.78635 0.0
H742 H 0.05695 0.9548 0.7303 0.0
H743 H 0.06043 0.99171 0.75313 0.0
H744 H 0.06742 0.95352 0.77358 0.0
H745 H 0.9072 0.97271 0.73265 0.0
H746 H 0.93375 0.00323 0.71513 0.0
H747 H 0.93532 0.96247 0.70018 0.0
H748 H 0.00623 0.05989 0.66865 0.0
H749 H 0.00258 0.96517 0.62492 0.0
H750 H 0.02023 0.03447 0.75152 0.0
H751 H 0.97771 0.04095 0.74347 0.0
H752 H 0.00775 0.06792 0.72571 0.0
H753 H 0.01605 0.92076 0.70237 0.0
H754 H 0.01135 0.91768 0.65819 0.0
H755 H 0.97601 0.92148 0.68425 0.0
C756 C 0.54953 0.06991 0.28189 0.0
C757 C 0.53116 0.08934 0.30303 0.0
C758 C 0.53793 0.0618 0.25054 0.0
C759 C 0.50666 0.07272 0.24028 0.0
C760 C 0.48721 0.09104 0.26225 0.0
C761 C 0.50006 0.09977 0.29322 0.0
C762 C 0.5598 0.04241 0.22802 0.0
C763 C 0.45336 0.10245 0.25333 0.0
C764 C 0.50786 0.07354 0.14784 0.0
C765 C 0.50075 0.04085 0.14185 0.0
C766 C 0.50566 0.08606 0.17991 0.0
C767 C 0.49587 0.06532 0.20607 0.0
C768 C 0.48378 0.03392 0.19892 0.0
C769 C 0.48713 0.0217 0.16692 0.0
C770 C 0.51786 0.12005 0.18632 0.0
C771 C 0.47078 0.01201 0.22577 0.0
H772 H 0.57385 0.06235 0.28931 0.0
H773 H 0.48592 0.11497 0.3096 0.0
H774 H 0.54767 0.01919 0.22136 0.0
H775 H 0.56431 0.05608 0.20482 0.0
H776 H 0.58381 0.03676 0.23954 0.0
H777 H 0.4365 0.0985 0.27442 0.0
H778 H 0.45421 0.12895 0.24854 0.0
H779 H 0.44312 0.09003 0.23139 0.0
H780 H 0.51809 0.08838 0.12823 0.0
H781 H 0.48099 0.99654 0.16197 0.0
H782 H 0.54376 0.11898 0.19457 0.0
H783 H 0.50352 0.13182 0.20609 0.0
H784 H 0.51662 0.1353 0.1637 0.0
H785 H 0.49156 0.00148 0.23977 0.0
H786 H 0.45591 0.99178 0.21549 0.0
H787 H 0.45559 0.02598 0.24333 0.0
C788 C 0.45865 0.58685 0.2621 0.0
C789 C 0.48008 0.59679 0.23706 0.0
C790 C 0.47014 0.57982 0.29389 0.0
C791 C 0.50395 0.58302 0.30101 0.0
C792 C 0.5255 0.5948 0.27639 0.0
C793 C 0.5133 0.60154 0.24463 0.0
C794 C 0.44623 0.56746 0.31942 0.0
C795 C 0.56151 0.59925 0.28335 0.0
C796 C 0.51912 0.57547 0.39293 0.0
C797 C 0.52312 0.54185 0.39584 0.0
C798 C 0.5159 0.59013 0.36171 0.0
C799 C 0.51663 0.57054 0.33306 0.0
C800 C 0.52394 0.5371 0.33599 0.0
C801 C 0.52693 0.52316 0.36738 0.0
C802 C 0.5084 0.62588 0.35985 0.0
C803 C 0.52526 0.51529 0.30616 0.0
H804 H 0.43283 0.5839 0.25662 0.0
H805 H 0.53001 0.60927 0.2254 0.0
H806 H 0.45235 0.54209 0.32623 0.0
H807 H 0.44798 0.58227 0.34214 0.0
H808 H 0.42053 0.56799 0.31045 0.0
H809 H 0.57484 0.60977 0.26197 0.0
H810 H 0.56485 0.61546 0.30485 0.0
H811 H 0.57269 0.5756 0.28985 0.0
H812 H 0.516 0.58994 0.41497 0.0
H813 H 0.5302 0.49714 0.36971 0.0
H814 H 0.48149 0.62922 0.36009 0.0
H815 H 0.51801 0.637 0.33686 0.0
H816 H 0.5188 0.63901 0.38139 0.0
H817 H 0.50016 0.51186 0.29619 0.0
H818 H 0.53547 0.49105 0.31222 0.0
H819 H 0.54031 0.52648 0.28642 0.0
C820 C 0.03192 0.42471 0.76181 0.0
C821 C 0.06053 0.44025 0.75081 0.0
C822 C 0.01582 0.43514 0.79044 0.0
C823 C 0.02918 0.4612 0.80883 0.0
C824 C 0.0571 0.47798 0.79681 0.0
C825 C 0.07229 0.4674 0.7679 0.0
C826 C 0.98571 0.41699 0.80166 0.0
C827 C 0.07225 0.50593 0.81558 0.0
C828 C 0.99254 0.50975 0.87806 0.0
C829 C 0.0097 0.49704 0.90503 0.0
C830 C 0.99537 0.49568 0.84669 0.0
C831 C 0.0168 0.46918 0.8423 0.0
C832 C 0.03168 0.45452 0.87016 0.0
C833 C 0.02799 0.46875 0.90126 0.0
C834 C 0.97791 0.51102 0.81783 0.0
C835 C 0.0543 0.42592 0.86666 0.0
H836 H 0.02254 0.40387 0.74846 0.0
H837 H 0.09457 0.47929 0.75972 0.0
H838 H 0.99325 0.39649 0.81772 0.0
H839 H 0.96894 0.43274 0.81581 0.0
H840 H 0.97215 0.40666 0.78032 0.0
H841 H 0.0929 0.51738 0.802 0.0
H842 H 0.05364 0.52476 0.82052 0.0
H843 H 0.08151 0.49716 0.83976 0.0
H844 H 0.97861 0.53186 0.88106 0.0
H845 H 0.04173 0.45936 0.9221 0.0
H846 H 0.9679 0.49209 0.80115 0.0
H847 H 0.99551 0.52593 0.80342 0.0
H848 H 0.95763 0.52691 0.82597 0.0
H849 H 0.04284 0.40696 0.85102 0.0
H850 H 0.0607 0.41501 0.89091 0.0
H851 H 0.07722 0.4339 0.85437 0.0
C852 C 0.78315 0.02056 0.96554 0.0
C853 C 0.79303 0.98866 0.97237 0.0
C854 C 0.75142 0.03106 0.97334 0.0
C855 C 0.72919 0.00916 0.98843 0.0
C856 C 0.73907 0.9769 0.99521 0.0
C857 C 0.77079 0.96707 0.98705 0.0
C858 C 0.74163 0.06539 0.96509 0.0
C859 C 0.71626 0.95279 0.01153 0.0
C860 C 0.6582 0.03311 0.04254 0.0
C861 C 0.63149 0.02536 0.0223 0.0
C862 C 0.69035 0.03071 0.0308 0.0
C863 C 0.69582 0.01968 0.99825 0.0
C864 C 0.66882 0.01403 0.97703 0.0
C865 C 0.63689 0.01695 0.98936 0.0
C866 C 0.71843 0.03741 0.05409 0.0
C867 C 0.67366 0.00227 0.9422 0.0
H868 H 0.80016 0.03721 0.95381 0.0
H869 H 0.77845 0.94253 0.99278 0.0
H870 H 0.72388 0.065 0.94437 0.0
H871 H 0.72939 0.07694 0.9864 0.0
H872 H 0.76291 0.08061 0.95771 0.0
H873 H 0.72753 0.92847 0.0145 0.0
H874 H 0.70912 0.96176 0.03625 0.0
H875 H 0.69353 0.95013 0.99674 0.0
H876 H 0.65396 0.03942 0.06811 0.0
H877 H 0.61626 0.00996 0.97409 0.0
H878 H 0.73726 0.05273 0.04187 0.0
H879 H 0.73021 0.01417 0.06111 0.0
H880 H 0.71027 0.04974 0.07693 0.0
H881 H 0.68997 0.01923 0.92863 0.0
H882 H 0.65017 0.99997 0.92855 0.0
H883 H 0.68573 0.97822 0.94253 0.0
C884 C 0.73442 0.03631 0.4895 0.0
C885 C 0.73034 0.04487 0.45624 0.0
C886 C 0.76544 0.02832 0.502 0.0
C887 C 0.79285 0.02922 0.48074 0.0
C888 C 0.78822 0.03472 0.44658 0.0
C889 C 0.75704 0.04239 0.43476 0.0
C890 C 0.76929 0.02215 0.5385 0.0
C891 C 0.81642 0.03652 0.42272 0.0
C892 C 0.87176 0.06492 0.51305 0.0
C893 C 0.89166 0.03747 0.51616 0.0
C894 C 0.83935 0.06227 0.50242 0.0
C895 C 0.82637 0.03133 0.49475 0.0
C896 C 0.84619 0.00343 0.49824 0.0
C897 C 0.87877 0.00681 0.50898 0.0
C898 C 0.81926 0.09278 0.49871 0.0
C899 C 0.83326 0.9703 0.4897 0.0
H900 H 0.71374 0.03766 0.50612 0.0
H901 H 0.75436 0.04924 0.40906 0.0
H902 H 0.78676 0.00213 0.54316 0.0
H903 H 0.77931 0.04428 0.55044 0.0
H904 H 0.74555 0.01604 0.55033 0.0
H905 H 0.80947 0.02541 0.39876 0.0
H906 H 0.82252 0.0624 0.41793 0.0
H907 H 0.8386 0.02438 0.43223 0.0
H908 H 0.88171 0.08873 0.51862 0.0
H909 H 0.89392 0.98555 0.51223 0.0
H910 H 0.79621 0.09052 0.51293 0.0
H911 H 0.81253 0.09633 0.47241 0.0
H912 H 0.8326 0.11476 0.50728 0.0
H913 H 0.8512 0.95094 0.49547 0.0
H914 H 0.82744 0.96972 0.46301 0.0
H915 H 0.81023 0.96526 0.50323 0.0
C916 C 0.26439 0.5821 0.08104 0.0
C917 C 0.28919 0.55896 0.08406 0.0
C918 C 0.23223 0.57284 0.0733 0.0
C919 C 0.22454 0.53954 0.06904 0.0
C920 C 0.24909 0.51589 0.07413 0.0
C921 C 0.28128 0.52593 0.0811 0.0
C922 C 0.20692 0.5989 0.06779 0.0
C923 C 0.24207 0.48006 0.07073 0.0
C924 C 0.1329 0.52525 0.06213 0.0
C925 C 0.12867 0.52603 0.02784 0.0
C926 C 0.16435 0.52689 0.07619 0.0
C927 C 0.19197 0.53032 0.05537 0.0
C928 C 0.18786 0.52893 0.02074 0.0
C929 C 0.1563 0.52663 0.00745 0.0
C930 C 0.16749 0.5272 0.11324 0.0
C931 C 0.2166 0.53224 0.99761 0.0
H932 H 0.2705 0.60765 0.08313 0.0
H933 H 0.30037 0.50793 0.08382 0.0
H934 H 0.19842 0.59831 0.04177 0.0
H935 H 0.18532 0.59434 0.08367 0.0
H936 H 0.21658 0.62357 0.07316 0.0
H937 H 0.25745 0.46576 0.08805 0.0
H938 H 0.21599 0.47409 0.07531 0.0
H939 H 0.24824 0.47231 0.04533 0.0
H940 H 0.11166 0.52525 0.07806 0.0
H941 H 0.15315 0.52693 0.98088 0.0
H942 H 0.16517 0.55251 0.12214 0.0
H943 H 0.19149 0.51771 0.12158 0.0
H944 H 0.14768 0.51258 0.12485 0.0
H945 H 0.22817 0.55648 0.00072 0.0
H946 H 0.20936 0.52941 0.97134 0.0
H947 H 0.23534 0.51375 0.00359 0.0
C948 C 0.28404 0.45697 0.57954 0.0
C949 C 0.26133 0.47523 0.59718 0.0
C950 C 0.31322 0.47089 0.56827 0.0
C951 C 0.31958 0.50425 0.57408 0.0
C952 C 0.29645 0.52303 0.59154 0.0
C953 C 0.26777 0.50808 0.60346 0.0
C954 C 0.33738 0.44968 0.55032 0.0
C955 C 0.30181 0.55862 0.59837 0.0
C956 C 0.40987 0.51942 0.56384 0.0
C957 C 0.41138 0.52347 0.52958 0.0
C958 C 0.37951 0.51695 0.57982 0.0
C959 C 0.35037 0.5186 0.56094 0.0
C960 C 0.35199 0.52707 0.52716 0.0
C961 C 0.38255 0.52881 0.51169 0.0
C962 C 0.37866 0.50944 0.61621 0.0
C963 C 0.3214 0.53132 0.50674 0.0
H964 H 0.27929 0.4314 0.57525 0.0
H965 H 0.25024 0.52213 0.61737 0.0
H966 H 0.34037 0.45841 0.52459 0.0
H967 H 0.3617 0.45105 0.56249 0.0
H968 H 0.3295 0.42384 0.54959 0.0
H969 H 0.27825 0.57192 0.59743 0.0
H970 H 0.31178 0.56132 0.62368 0.0
H971 H 0.31909 0.57017 0.58079 0.0
H972 H 0.43226 0.51566 0.57771 0.0
H973 H 0.38382 0.53267 0.48525 0.0
H974 H 0.37088 0.48383 0.61993 0.0
H975 H 0.36056 0.52511 0.6287 0.0
H976 H 0.40294 0.513 0.62807 0.0
H977 H 0.31063 0.50715 0.50122 0.0
H978 H 0.32656 0.54388 0.48302 0.0
H979 H 0.30292 0.54541 0.52059 0.0
C980 C 0.93958 0.78526 0.01835 0.0
C981 C 0.94424 0.79699 0.98613 0.0
C982 C 0.94688 0.75296 0.02665 0.0
C983 C 0.95915 0.73189 0.00217 0.0
C984 C 0.96281 0.74328 0.9694 0.0
C985 C 0.95548 0.77565 0.96184 0.0
C986 C 0.94261 0.74186 0.06185 0.0
C987 C 0.97571 0.7216 0.94247 0.0
C988 C 0.01702 0.66267 0.01884 0.0
C989 C 0.99694 0.63572 0.01283 0.0
C990 C 0.00429 0.69415 0.01835 0.0
C991 C 0.97079 0.69876 0.01083 0.0
C992 C 0.94992 0.67141 0.00711 0.0
C993 C 0.96328 0.64004 0.00834 0.0
C994 C 0.02724 0.72255 0.02331 0.0
C995 C 0.91415 0.67514 0.9988 0.0
H996 H 0.93047 0.80141 0.03721 0.0
H997 H 0.95968 0.78451 0.93701 0.0
H998 H 0.93329 0.71661 0.06283 0.0
H999 H 0.96669 0.74238 0.07453 0.0
H1000 H 0.92558 0.75775 0.07561 0.0
H1001 H 0.97506 0.73351 0.91786 0.0
H1002 H 0.00137 0.7148 0.94807 0.0
H1003 H 0.96113 0.69885 0.94127 0.0
H1004 H 0.04307 0.65917 0.02243 0.0
H1005 H 0.94783 0.61913 0.00345 0.0
H1006 H 0.0166 0.74013 0.04088 0.0
H1007 H 0.03086 0.7354 0.99949 0.0
H1008 H 0.05153 0.71483 0.03276 0.0
H1009 H 0.9035 0.69668 0.01101 0.0
H1010 H 0.8999 0.65322 0.00604 0.0
H1011 H 0.91149 0.67851 0.97177 0.0
C1012 C 0.44716 0.7735 0.07703 0.0
C1013 C 0.44213 0.75065 0.05193 0.0
C1014 C 0.4558 0.80568 0.06968 0.0
C1015 C 0.45985 0.81534 0.03639 0.0
C1016 C 0.45346 0.79287 0.01084 0.0
C1017 C 0.44465 0.76077 0.0189 0.0
C1018 C 0.46219 0.82893 0.09772 0.0
C1019 C 0.4569 0.80248 0.97508 0.0
C1020 C 0.46848 0.90673 0.02741 0.0
C1021 C 0.50247 0.91041 0.03024 0.0
C1022 C 0.45408 0.87567 0.02649 0.0
C1023 C 0.47421 0.84785 0.02903 0.0
C1024 C 0.50866 0.8516 0.02939 0.0
C1025 C 0.52233 0.88282 0.03011 0.0
C1026 C 0.41729 0.87293 0.02547 0.0
C1027 C 0.53111 0.82267 0.03159 0.0
H1028 H 0.44573 0.76594 0.10261 0.0
H1029 H 0.4402 0.74345 0.99932 0.0
H1030 H 0.4885 0.83571 0.09821 0.0
H1031 H 0.448 0.85154 0.09403 0.0
H1032 H 0.45561 0.81834 0.12206 0.0
H1033 H 0.449 0.78285 0.95809 0.0
H1034 H 0.44212 0.8244 0.96996 0.0
H1035 H 0.48277 0.80877 0.96972 0.0
H1036 H 0.45304 0.92804 0.0277 0.0
H1037 H 0.54866 0.88566 0.03204 0.0
H1038 H 0.40787 0.87155 0.05108 0.0
H1039 H 0.40912 0.85077 0.0123 0.0
H1040 H 0.40622 0.89447 0.01331 0.0
H1041 H 0.52875 0.81122 0.0563 0.0
H1042 H 0.55716 0.82951 0.02779 0.0
H1043 H 0.52417 0.80417 0.01301 0.0
C1044 C 0.08754 0.25749 0.58133 0.0
C1045 C 0.10754 0.27942 0.56428 0.0
C1046 C 0.0767 0.22878 0.5665 0.0
C1047 C 0.08552 0.22206 0.53341 0.0
C1048 C 0.10528 0.2445 0.51578 0.0
C1049 C 0.11661 0.27271 0.53171 0.0
C1050 C 0.05576 0.20562 0.58645 0.0
C1051 C 0.11511 0.23899 0.48044 0.0
C1052 C 0.07213 0.1327 0.52197 0.0
C1053 C 0.03848 0.13274 0.51553 0.0
C1054 C 0.08965 0.1621 0.52337 0.0
C1055 C 0.07291 0.1917 0.51808 0.0
C1056 C 0.04039 0.19106 0.50615 0.0
C1057 C 0.02328 0.16154 0.50564 0.0
C1058 C 0.1248 0.16171 0.53466 0.0
C1059 C 0.02241 0.22195 0.498 0.0
H1060 H 0.08096 0.26251 0.60669 0.0
H1061 H 0.13223 0.28969 0.51857 0.0
H1062 H 0.03134 0.20299 0.57473 0.0
H1063 H 0.06717 0.18125 0.58715 0.0
H1064 H 0.05225 0.21396 0.61222 0.0
H1065 H 0.11572 0.26233 0.46664 0.0
H1066 H 0.14023 0.22898 0.48009 0.0
H1067 H 0.0985 0.22196 0.46739 0.0
H1068 H 0.08392 0.11027 0.52928 0.0
H1069 H 0.99731 0.16135 0.50006 0.0
H1070 H 0.12577 0.16657 0.56156 0.0
H1071 H 0.13923 0.1809 0.52199 0.0
H1072 H 0.13632 0.13779 0.53003 0.0
H1073 H 0.01463 0.2338 0.52121 0.0
H1074 H 0.00028 0.21714 0.48278 0.0
H1075 H 0.03864 0.23914 0.48458 0.0
C1076 C 0.60074 0.28624 0.44867 0.0
C1077 C 0.60801 0.26059 0.47009 0.0
C1078 C 0.58988 0.31601 0.46074 0.0
C1079 C 0.58702 0.32056 0.49525 0.0
C1080 C 0.59547 0.295 0.51714 0.0
C1081 C 0.60546 0.26505 0.5042 0.0
C1082 C 0.58008 0.34209 0.43638 0.0
C1083 C 0.59344 0.29836 0.55412 0.0
C1084 C 0.5757 0.41008 0.51038 0.0
C1085 C 0.54151 0.41183 0.51089 0.0
C1086 C 0.59145 0.37994 0.50902 0.0
C1087 C 0.57238 0.35117 0.50735 0.0
C1088 C 0.53803 0.35283 0.51114 0.0
C1089 C 0.523 0.38321 0.51283 0.0
C1090 C 0.62822 0.3794 0.50634 0.0
C1091 C 0.51689 0.32268 0.51034 0.0
H1092 H 0.60242 0.28254 0.42226 0.0
H1093 H 0.61125 0.24515 0.52075 0.0
H1094 H 0.55423 0.34909 0.44047 0.0
H1095 H 0.5954 0.36407 0.44004 0.0
H1096 H 0.58273 0.33414 0.41037 0.0
H1097 H 0.61725 0.29156 0.56539 0.0
H1098 H 0.58708 0.32316 0.5623 0.0
H1099 H 0.57483 0.2811 0.56379 0.0
H1100 H 0.5901 0.4322 0.50881 0.0
H1101 H 0.49653 0.38462 0.51369 0.0
H1102 H 0.63533 0.38341 0.48025 0.0
H1103 H 0.63857 0.35589 0.51464 0.0
H1104 H 0.6393 0.39929 0.52114 0.0
H1105 H 0.5186 0.31116 0.4857 0.0
H1106 H 0.49078 0.32802 0.51543 0.0
H1107 H 0.52571 0.30486 0.52886 0.0
loop_
_geom_bond_atom_site_label_1
_geom_bond_atom_site_label_2
_geom_bond_distance
_geom_bond_site_symmetry_2
_ccdc_geom_bond_type
P0 O11 1.490 . S
P0 C14 1.812 . S
P0 C20 1.803 . S
P0 C26 1.819 . S
H1 C15 0.941 . S
H2 C16 0.939 . S
H3 C18 0.940 . S
H4 C19 0.940 . S
H5 C21 0.939 . S
H6 C22 0.942 . S
H7 C24 0.940 . S
H8 C25 0.939 . S
H9 C27 0.941 . S
H10 C31 0.939 . S
O11 P0 1.490 . S
H12 C28 0.939 . S
H13 C30 0.940 . S
C14 P0 1.812 . S
C14 C15 1.389 . S
C14 C19 1.391 . S
C15 H1 0.941 . S
C15 C14 1.389 . S
C15 C16 1.397 . S
C16 H2 0.939 . S
C16 C15 1.397 . S
C16 C17 1.378 . S
C17 C16 1.378 . S
C17 C18 1.378 . S
C18 H3 0.940 . S
C18 C17 1.378 . S
C18 C19 1.396 . S
C19 H4 0.940 . S
C19 C14 1.391 . S
C19 C18 1.396 . S
C20 P0 1.803 . S
C20 C21 1.378 . S
C20 C25 1.400 . S
C21 H5 0.939 . S
C21 C20 1.378 . S
C21 C22 1.361 . S
C22 H6 0.942 . S
C22 C21 1.361 . S
C22 C23 1.369 . S
C23 C22 1.369 . S
C23 C24 1.404 . S
C24 H7 0.940 . S
C24 C23 1.404 . S
C24 C25 1.389 . S
C25 H8 0.939 . S
C25 C20 1.400 . S
C25 C24 1.389 . S
C26 P0 1.819 . S
C26 C27 1.391 . S
C26 C31 1.391 . S
C27 H9 0.941 . S
C27 C26 1.391 . S
C27 C28 1.396 . S
C28 H12 0.939 . S
C28 C27 1.396 . S
C28 C29 1.397 . S
C29 C28 1.397 . S
C29 C30 1.385 . S
C30 H13 0.940 . S
C30 C29 1.385 . S
C30 C31 1.388 . S
C31 H10 0.939 . S
C31 C26 1.391 . S
C31 C30 1.388 . S
P32 O43 1.490 . S
P32 C46 1.812 . S
P32 C52 1.803 . S
P32 C58 1.819 . S
H33 C47 0.941 . S
H34 C48 0.939 . S
H35 C50 0.940 . S
H36 C51 0.940 . S
H37 C53 0.939 . S
H38 C54 0.942 . S
H39 C56 0.940 . S
H40 C57 0.939 . S
H41 C59 0.941 . S
H42 C63 0.939 . S
O43 P32 1.490 . S
H44 C60 0.939 . S
H45 C62 0.940 . S
C46 P32 1.812 . S
C46 C47 1.389 . S
C46 C51 1.391 . S
C47 H33 0.941 . S
C47 C46 1.389 . S
C47 C48 1.397 . S
C48 H34 0.939 . S
C48 C47 1.397 . S
C48 C49 1.378 . S
C49 C48 1.378 . S
C49 C50 1.378 . S
C50 H35 0.940 . S
C50 C49 1.378 . S
C50 C51 1.396 . S
C51 H36 0.940 . S
C51 C46 1.391 . S
C51 C50 1.396 . S
C52 P32 1.803 . S
C52 C53 1.378 . S
C52 C57 1.400 . S
C53 H37 0.939 . S
C53 C52 1.378 . S
C53 C54 1.361 . S
C54 H38 0.942 . S
C54 C53 1.361 . S
C54 C55 1.369 . S
C55 C54 1.369 . S
C55 C56 1.404 . S
C56 H39 0.940 . S
C56 C55 1.404 . S
C56 C57 1.389 . S
C57 H40 0.939 . S
C57 C52 1.400 . S
C57 C56 1.389 . S
C58 P32 1.819 . S
C58 C59 1.391 . S
C58 C63 1.391 . S
C59 H41 0.941 . S
C59 C58 1.391 . S
C59 C60 1.396 . S
C60 H44 0.939 . S
C60 C59 1.396 . S
C60 C61 1.397 . S
C61 C60 1.397 . S
C61 C62 1.385 . S
C62 H45 0.940 . S
C62 C61 1.385 . S
C62 C63 1.388 . S
C63 H42 0.939 . S
C63 C58 1.391 . S
C63 C62 1.388 . S
P64 O75 1.490 . S
P64 C78 1.812 . S
P64 C84 1.803 . S
P64 C90 1.819 . S
H65 C79 0.941 . S
H66 C80 0.939 . S
H67 C82 0.940 . S
H68 C83 0.940 . S
H69 C85 0.939 . S
H70 C86 0.942 . S
H71 C88 0.940 . S
H72 C89 0.939 . S
H73 C91 0.941 . S
H74 C95 0.939 . S
O75 P64 1.490 . S
H76 C92 0.939 . S
H77 C94 0.940 . S
C78 P64 1.812 . S
C78 C79 1.389 . S
C78 C83 1.391 . S
C79 H65 0.941 . S
C79 C78 1.389 . S
C79 C80 1.397 . S
C80 H66 0.939 . S
C80 C79 1.397 . S
C80 C81 1.378 . S
C81 C80 1.378 . S
C81 C82 1.378 . S
C82 H67 0.940 . S
C82 C81 1.378 . S
C82 C83 1.396 . S
C83 H68 0.940 . S
C83 C78 1.391 . S
C83 C82 1.396 . S
C84 P64 1.803 . S
C84 C85 1.378 . S
C84 C89 1.400 . S
C85 H69 0.939 . S
C85 C84 1.378 . S
C85 C86 1.361 . S
C86 H70 0.942 . S
C86 C85 1.361 . S
C86 C87 1.369 . S
C87 C86 1.369 . S
C87 C88 1.404 . S
C88 H71 0.940 . S
C88 C87 1.404 . S
C88 C89 1.389 . S
C89 H72 0.939 . S
C89 C84 1.400 . S
C89 C88 1.389 . S
C90 P64 1.819 . S
C90 C91 1.391 . S
C90 C95 1.391 . S
C91 H73 0.941 . S
C91 C90 1.391 . S
C91 C92 1.396 . S
C92 H76 0.939 . S
C92 C91 1.396 . S
C92 C93 1.397 . S
C93 C92 1.397 . S
C93 C94 1.385 . S
C94 H77 0.940 . S
C94 C93 1.385 . S
C94 C95 1.388 . S
C95 H74 0.939 . S
C95 C90 1.391 . S
C95 C94 1.388 . S
P96 O107 1.490 . S
P96 C110 1.812 . S
P96 C116 1.803 . S
P96 C122 1.819 . S
H97 C111 0.941 . S
H98 C112 0.939 . S
H99 C114 0.940 . S
H100 C115 0.940 . S
H101 C117 0.939 . S
H102 C118 0.942 . S
H103 C120 0.940 . S
H104 C121 0.939 . S
H105 C123 0.941 . S
H106 C127 0.939 . S
O107 P96 1.490 . S
H108 C124 0.939 . S
H109 C126 0.940 . S
C110 P96 1.812 . S
C110 C111 1.389 . S
C110 C115 1.391 . S
C111 H97 0.941 . S
C111 C110 1.389 . S
C111 C112 1.397 . S
C112 H98 0.939 . S
C112 C111 1.397 . S
C112 C113 1.378 . S
C113 C112 1.378 . S
C113 C114 1.378 . S
C114 H99 0.940 . S
C114 C113 1.378 . S
C114 C115 1.396 . S
C115 H100 0.940 . S
C115 C110 1.391 . S
C115 C114 1.396 . S
C116 P96 1.803 . S
C116 C117 1.378 . S
C116 C121 1.400 . S
C117 H101 0.939 . S
C117 C116 1.378 . S
C117 C118 1.361 . S
C118 H102 0.942 . S
C118 C117 1.361 . S
C118 C119 1.369 . S
C119 C118 1.369 . S
C119 C120 1.404 . S
C120 H103 0.940 . S
C120 C119 1.404 . S
C120 C121 1.389 . S
C121 H104 0.939 . S
C121 C116 1.400 . S
C121 C120 1.389 . S
C122 P96 1.819 . S
C122 C123 1.391 . S
C122 C127 1.391 . S
C123 H105 0.941 . S
C123 C122 1.391 . S
C123 C124 1.396 . S
C124 H108 0.939 . S
C124 C123 1.396 . S
C124 C125 1.397 . S
C125 C124 1.397 . S
C125 C126 1.385 . S
C126 H109 0.940 . S
C126 C125 1.385 . S
C126 C127 1.388 . S
C127 H106 0.939 . S
C127 C122 1.391 . S
C127 C126 1.388 . S
P128 O139 1.490 . S
P128 C142 1.812 . S
P128 C148 1.803 . S
P128 C154 1.819 . S
H129 C143 0.941 . S
H130 C144 0.939 . S
H131 C146 0.940 . S
H132 C147 0.940 . S
H133 C149 0.939 1_455 S
H134 C150 0.971 . S
H135 C152 0.940 . S
H136 C153 0.939 . S
H137 C155 0.929 1_545 S
H138 C159 0.939 . S
O139 P128 1.490 . S
H140 C156 0.939 . S
H141 C158 0.940 . S
C142 P128 1.812 . S
C142 C143 1.389 1_556 S
C142 C147 1.391 . S
C143 H129 0.941 . S
C143 C142 1.389 1_554 S
C143 C144 1.397 . S
C144 H130 0.939 . S
C144 C143 1.397 . S
C144 C145 1.378 1_554 S
C145 C144 1.378 1_556 S
C145 C146 1.378 . S
C146 H131 0.940 . S
C146 C145 1.378 . S
C146 C147 1.396 . S
C147 H132 0.940 . S
C147 C142 1.391 . S
C147 C146 1.396 . S
C148 P128 1.803 . S
C148 C149 1.378 . S
C148 C153 1.400 . S
C149 H133 0.939 1_655 S
C149 C148 1.378 . S
C149 C150 1.353 1_655 S
C150 H134 0.971 . S
C150 C149 1.353 1_455 S
C150 C151 1.348 1_455 S
C151 C150 1.348 1_655 S
C151 C152 1.404 . S
C152 H135 0.940 . S
C152 C151 1.404 . S
C152 C153 1.389 . S
C153 H136 0.939 . S
C153 C148 1.400 . S
C153 C152 1.389 . S
C154 P128 1.819 . S
C154 C155 1.409 . S
C154 C159 1.391 . S
C155 H137 0.929 1_565 S
C155 C154 1.409 . S
C155 C156 1.392 1_565 S
C156 H140 0.939 . S
C156 C155 1.392 1_545 S
C156 C157 1.397 1_545 S
C157 C156 1.397 1_565 S
C157 C158 1.385 . S
C158 H141 0.940 . S
C158 C157 1.385 . S
C158 C159 1.388 . S
C159 H138 0.939 . S
C159 C154 1.391 . S
C159 C158 1.388 . S
P160 O171 1.490 . S
P160 C174 1.812 . S
P160 C180 1.803 . S
P160 C186 1.819 . S
H161 C175 0.941 . S
H162 C176 0.939 . S
H163 C178 0.940 . S
H164 C179 0.940 . S
H165 C181 0.939 . S
H166 C182 0.942 . S
H167 C184 0.940 . S
H168 C185 0.939 . S
H169 C187 0.941 . S
H170 C191 0.939 . S
O171 P160 1.490 . S
H172 C188 0.939 . S
H173 C190 0.940 . S
C174 P160 1.812 . S
C174 C175 1.389 . S
C174 C179 1.391 . S
C175 H161 0.941 . S
C175 C174 1.389 . S
C175 C176 1.397 . S
C176 H162 0.939 . S
C176 C175 1.397 . S
C176 C177 1.378 . S
C177 C176 1.378 . S
C177 C178 1.378 . S
C178 H163 0.940 . S
C178 C177 1.378 . S
C178 C179 1.396 . S
C179 H164 0.940 . S
C179 C174 1.391 . S
C179 C178 1.396 . S
C180 P160 1.803 . S
C180 C181 1.378 . S
C180 C185 1.400 . S
C181 H165 0.939 . S
C181 C180 1.378 . S
C181 C182 1.361 . S
C182 H166 0.942 . S
C182 C181 1.361 . S
C182 C183 1.369 . S
C183 C182 1.369 . S
C183 C184 1.404 . S
C184 H167 0.940 . S
C184 C183 1.404 . S
C184 C185 1.389 . S
C185 H168 0.939 . S
C185 C180 1.400 . S
C185 C184 1.389 . S
C186 P160 1.819 . S
C186 C187 1.391 . S
C186 C191 1.391 . S
C187 H169 0.941 . S
C187 C186 1.391 . S
C187 C188 1.396 . S
C188 H172 0.939 . S
C188 C187 1.396 . S
C188 C189 1.397 . S
C189 C188 1.397 . S
C189 C190 1.385 . S
C190 H173 0.940 . S
C190 C189 1.385 . S
C190 C191 1.388 . S
C191 H170 0.939 . S
C191 C186 1.391 . S
C191 C190 1.388 . S
P192 O203 1.490 . S
P192 C206 1.812 . S
P192 C212 1.803 . S
P192 C218 1.819 . S
H193 C207 0.941 . S
H194 C208 0.939 . S
H195 C210 0.940 . S
H196 C211 0.940 . S
H197 C213 0.939 . S
H198 C214 0.942 . S
H199 C216 0.940 . S
H200 C217 0.939 . S
H201 C219 0.941 . S
H202 C223 0.939 . S
O203 P192 1.490 . S
H204 C220 0.939 . S
H205 C222 0.940 . S
C206 P192 1.812 . S
C206 C207 1.389 . S
C206 C211 1.391 . S
C207 H193 0.941 . S
C207 C206 1.389 . S
C207 C208 1.397 . S
C208 H194 0.939 . S
C208 C207 1.397 . S
C208 C209 1.378 . S
C209 C208 1.378 . S
C209 C210 1.378 . S
C210 H195 0.940 . S
C210 C209 1.378 . S
C210 C211 1.396 . S
C211 H196 0.940 . S
C211 C206 1.391 . S
C211 C210 1.396 . S
C212 P192 1.803 . S
C212 C213 1.378 . S
C212 C217 1.400 . S
C213 H197 0.939 . S
C213 C212 1.378 . S
C213 C214 1.361 . S
C214 H198 0.942 . S
C214 C213 1.361 . S
C214 C215 1.369 . S
C215 C214 1.369 . S
C215 C216 1.404 . S
C216 H199 0.940 . S
C216 C215 1.404 . S
C216 C217 1.389 . S
C217 H200 0.939 . S
C217 C212 1.400 . S
C217 C216 1.389 . S
C218 P192 1.819 . S
C218 C219 1.391 . S
C218 C223 1.391 . S
C219 H201 0.941 . S
C219 C218 1.391 . S
C219 C220 1.396 . S
C220 H204 0.939 . S
C220 C219 1.396 . S
C220 C221 1.397 . S
C221 C220 1.397 . S
C221 C222 1.385 . S
C222 H205 0.940 . S
C222 C221 1.385 . S
C222 C223 1.388 . S
C223 H202 0.939 . S
C223 C218 1.391 . S
C223 C222 1.388 . S
P224 O235 1.490 . S
P224 C238 1.812 . S
P224 C244 1.803 . S
P224 C250 1.819 . S
H225 C239 0.941 . S
H226 C240 0.939 . S
H227 C242 0.940 . S
H228 C243 0.940 . S
H229 C245 0.939 . S
H230 C246 0.942 . S
H231 C248 0.940 . S
H232 C249 0.939 . S
H233 C251 0.941 . S
H234 C255 0.939 . S
O235 P224 1.490 . S
H236 C252 0.939 . S
H237 C254 0.940 . S
C238 P224 1.812 . S
C238 C239 1.389 . S
C238 C243 1.391 . S
C239 H225 0.941 . S
C239 C238 1.389 . S
C239 C240 1.397 . S
C240 H226 0.939 . S
C240 C239 1.397 . S
C240 C241 1.378 . S
C241 C240 1.378 . S
C241 C242 1.378 . S
C242 H227 0.940 . S
C242 C241 1.378 . S
C242 C243 1.396 . S
C243 H228 0.940 . S
C243 C238 1.391 . S
C243 C242 1.396 . S
C244 P224 1.803 . S
C244 C245 1.378 . S
C244 C249 1.400 . S
C245 H229 0.939 . S
C245 C244 1.378 . S
C245 C246 1.361 . S
C246 H230 0.942 . S
C246 C245 1.361 . S
C246 C247 1.369 . S
C247 C246 1.369 . S
C247 C248 1.404 . S
C248 H231 0.940 . S
C248 C247 1.404 . S
C248 C249 1.389 . S
C249 H232 0.939 . S
C249 C244 1.400 . S
C249 C248 1.389 . S
C250 P224 1.819 . S
C250 C251 1.391 . S
C250 C255 1.391 . S
C251 H233 0.941 . S
C251 C250 1.391 . S
C251 C252 1.396 . S
C252 H236 0.939 . S
C252 C251 1.396 . S
C252 C253 1.397 . S
C253 C252 1.397 . S
C253 C254 1.385 . S
C254 H237 0.940 . S
C254 C253 1.385 . S
C254 C255 1.388 . S
C255 H234 0.939 . S
C255 C250 1.391 . S
C255 C254 1.388 . S
Zn256 O262 1.920 . S
Zn256 O268 1.898 . S
Zn256 O271 1.905 . S
Zn257 O265 1.905 1_565 S
Zn257 O266 1.898 . S
Zn257 O274 1.920 . S
Zn258 O261 2.080 1_455 S
Zn258 O264 2.114 . S
Zn258 O267 2.120 1_445 S
Zn258 O269 2.120 . S
Zn258 O270 2.114 1_455 S
Zn258 O273 2.080 . S
C259 O264 1.166 . S
C259 O265 1.182 . S
C260 O266 1.167 1_655 S
C260 O267 1.299 . S
O261 Zn258 2.080 1_655 S
O261 C275 1.305 . S
O262 Zn256 1.920 . S
O262 C275 1.234 . S
C263 O268 1.167 1_455 S
C263 O269 1.299 . S
O264 Zn258 2.114 . S
O264 C259 1.166 . S
O265 Zn257 1.905 1_545 S
O265 C259 1.182 . S
O266 Zn257 1.898 . S
O266 C260 1.167 1_455 S
O267 Zn258 2.120 1_665 S
O267 C260 1.299 . S
O268 Zn256 1.898 . S
O268 C263 1.167 1_655 S
O269 Zn258 2.120 . S
O269 C263 1.299 . S
O270 Zn258 2.114 1_655 S
O270 C272 1.166 . S
O271 Zn256 1.905 . S
O271 C272 1.182 . S
C272 O270 1.166 . S
C272 O271 1.182 . S
O273 Zn258 2.080 . S
O273 C276 1.305 1_545 S
O274 Zn257 1.920 . S
O274 C276 1.234 . S
C275 O261 1.305 . S
C275 O262 1.234 . S
C276 O273 1.305 1_565 S
C276 O274 1.234 . S
Zn277 O283 1.920 1_556 S
Zn277 O289 1.898 . S
Zn277 O292 1.905 . S
Zn278 O286 1.905 . S
Zn278 O287 1.898 . S
Zn278 O295 1.920 . S
Zn279 O282 2.080 . S
Zn279 O285 2.114 1_545 S
Zn279 O288 2.120 1_545 S
Zn279 O290 2.120 . S
Zn279 O291 2.116 1_554 S
Zn279 O294 2.080 . S
C280 O285 1.166 . S
C280 O286 1.182 . S
C281 O287 1.167 . S
C281 O288 1.299 . S
O282 Zn279 2.080 . S
O282 C296 1.305 . S
O283 Zn277 1.920 1_554 S
O283 C296 1.234 . S
C284 O289 1.167 . S
C284 O290 1.299 1_556 S
O285 Zn279 2.114 1_565 S
O285 C280 1.166 . S
O286 Zn278 1.905 . S
O286 C280 1.182 . S
O287 Zn278 1.898 . S
O287 C281 1.167 . S
O288 Zn279 2.120 1_565 S
O288 C281 1.299 . S
O289 Zn277 1.898 . S
O289 C284 1.167 . S
O290 Zn279 2.120 . S
O290 C284 1.299 1_554 S
O291 Zn279 2.116 1_556 S
O291 C293 1.166 . S
O292 Zn277 1.905 . S
O292 C293 1.202 . S
C293 O291 1.166 . S
C293 O292 1.202 . S
O294 Zn279 2.080 . S
O294 C297 1.305 . S
O295 Zn278 1.920 . S
O295 C297 1.234 1_565 S
C296 O282 1.305 . S
C296 O283 1.234 . S
C297 O294 1.305 . S
C297 O295 1.234 1_545 S
Zn298 O304 1.920 . S
Zn298 O310 1.898 . S
Zn298 O313 1.905 . S
Zn299 O307 1.905 . S
Zn299 O308 1.898 . S
Zn299 O316 1.920 . S
Zn300 O303 2.080 . S
Zn300 O306 2.114 . S
Zn300 O309 2.120 . S
Zn300 O311 2.120 . S
Zn300 O312 2.114 . S
Zn300 O315 2.080 . S
C301 O306 1.166 . S
C301 O307 1.182 . S
C302 O308 1.167 . S
C302 O309 1.299 . S
O303 Zn300 2.080 . S
O303 C317 1.305 . S
O304 Zn298 1.920 . S
O304 C317 1.234 . S
C305 O310 1.167 . S
C305 O311 1.299 . S
O306 Zn300 2.114 . S
O306 C301 1.166 . S
O307 Zn299 1.905 . S
O307 C301 1.182 . S
O308 Zn299 1.898 . S
O308 C302 1.167 . S
O309 Zn300 2.120 . S
O309 C302 1.299 . S
O310 Zn298 1.898 . S
O310 C305 1.167 . S
O311 Zn300 2.120 . S
O311 C305 1.299 . S
O312 Zn300 2.114 . S
O312 C314 1.166 . S
O313 Zn298 1.905 . S
O313 C314 1.182 . S
C314 O312 1.166 . S
C314 O313 1.182 . S
O315 Zn300 2.080 . S
O315 C318 1.305 . S
O316 Zn299 1.920 . S
O316 C318 1.234 . S
C317 O303 1.305 . S
C317 O304 1.234 . S
C318 O315 1.305 . S
C318 O316 1.234 . S
Zn319 O325 1.920 . S
Zn319 O331 1.898 . S
Zn319 O334 1.905 . S
Zn320 O328 1.905 1_655 S
Zn320 O329 1.898 . S
Zn320 O337 1.920 . S
Zn321 O324 2.080 1_554 S
Zn321 O327 2.114 . S
Zn321 O330 2.120 1_454 S
Zn321 O332 2.120 . S
Zn321 O333 2.114 1_554 S
Zn321 O336 2.080 . S
C322 O327 1.166 . S
C322 O328 1.182 . S
C323 O329 1.167 1_556 S
C323 O330 1.299 . S
O324 Zn321 2.080 1_556 S
O324 C338 1.305 . S
O325 Zn319 1.920 . S
O325 C338 1.234 . S
C326 O331 1.167 1_554 S
C326 O332 1.299 . S
O327 Zn321 2.114 . S
O327 C322 1.166 . S
O328 Zn320 1.905 1_455 S
O328 C322 1.182 . S
O329 Zn320 1.898 . S
O329 C323 1.167 1_554 S
O330 Zn321 2.120 1_656 S
O330 C323 1.299 . S
O331 Zn319 1.898 . S
O331 C326 1.167 1_556 S
O332 Zn321 2.120 . S
O332 C326 1.299 . S
O333 Zn321 2.114 1_556 S
O333 C335 1.166 . S
O334 Zn319 1.905 . S
O334 C335 1.182 . S
C335 O333 1.166 . S
C335 O334 1.182 . S
O336 Zn321 2.080 . S
O336 C339 1.305 1_455 S
O337 Zn320 1.920 . S
O337 C339 1.234 . S
C338 O324 1.305 . S
C338 O325 1.234 . S
C339 O336 1.305 1_655 S
C339 O337 1.234 . S
C340 C341 1.391 . S
C340 C342 1.394 . S
C340 H356 0.931 . S
C341 C340 1.391 . S
C341 C345 1.376 . S
C342 C340 1.394 . S
C342 C343 1.369 . S
C342 C346 1.531 . S
C343 C342 1.369 . S
C343 C344 1.410 . S
C343 C351 1.503 . S
C344 C343 1.410 . S
C344 C345 1.392 . S
C344 C347 1.511 . S
C345 C341 1.376 . S
C345 C344 1.392 . S
C345 H357 0.929 . S
C346 C342 1.531 . S
C346 H358 0.960 . S
C346 H359 0.962 . S
C346 H360 0.960 . S
C347 C344 1.511 . S
C347 H361 0.961 . S
C347 H362 0.961 . S
C347 H363 0.961 . S
C348 C349 1.370 . S
C348 C350 1.363 . S
C348 H364 0.931 . S
C349 C348 1.370 . S
C349 C353 1.408 . S
C350 C348 1.363 . S
C350 C351 1.370 . S
C350 C354 1.524 . S
C351 C343 1.503 . S
C351 C350 1.370 . S
C351 C352 1.403 . S
C352 C351 1.403 . S
C352 C353 1.404 . S
C352 C355 1.539 . S
C353 C349 1.408 . S
C353 C352 1.404 . S
C353 H365 0.930 . S
C354 C350 1.524 . S
C354 H366 0.956 . S
C354 H367 0.961 . S
C354 H368 0.961 . S
C355 C352 1.539 . S
C355 H369 0.958 . S
C355 H370 0.961 . S
C355 H371 0.960 . S
H356 C340 0.931 . S
H357 C345 0.929 . S
H358 C346 0.960 . S
H359 C346 0.962 . S
H360 C346 0.960 . S
H361 C347 0.961 . S
H362 C347 0.961 . S
H363 C347 0.961 . S
H364 C348 0.931 . S
H365 C353 0.930 . S
H366 C354 0.956 . S
H367 C354 0.961 . S
H368 C354 0.961 . S
H369 C355 0.958 . S
H370 C355 0.961 . S
H371 C355 0.960 . S
C372 C373 1.391 . S
C372 C374 1.394 . S
C372 H388 0.931 . S
C373 C372 1.391 . S
C373 C377 1.376 . S
C374 C372 1.394 . S
C374 C375 1.369 . S
C374 C378 1.531 . S
C375 C374 1.369 . S
C375 C376 1.410 . S
C375 C383 1.503 . S
C376 C375 1.410 . S
C376 C377 1.392 . S
C376 C379 1.511 . S
C377 C373 1.376 . S
C377 C376 1.392 . S
C377 H389 0.929 . S
C378 C374 1.531 . S
C378 H390 0.960 . S
C378 H391 0.962 1_565 S
C378 H392 0.960 1_565 S
C379 C376 1.511 . S
C379 H393 0.961 . S
C379 H394 0.961 . S
C379 H395 0.961 . S
C380 C381 1.370 . S
C380 C382 1.363 . S
C380 H396 0.931 . S
C381 C380 1.370 . S
C381 C385 1.408 . S
C382 C380 1.363 . S
C382 C383 1.370 . S
C382 C386 1.524 . S
C383 C375 1.503 . S
C383 C382 1.370 . S
C383 C384 1.403 . S
C384 C383 1.403 . S
C384 C385 1.404 . S
C384 C387 1.539 . S
C385 C381 1.408 . S
C385 C384 1.404 . S
C385 H397 0.930 . S
C386 C382 1.524 . S
C386 H398 0.956 . S
C386 H399 0.961 . S
C386 H400 0.961 . S
C387 C384 1.539 . S
C387 H401 0.958 . S
C387 H402 0.961 . S
C387 H403 0.960 . S
H388 C372 0.931 . S
H389 C377 0.929 . S
H390 C378 0.960 . S
H391 C378 0.962 1_545 S
H392 C378 0.960 1_545 S
H393 C379 0.961 . S
H394 C379 0.961 . S
H395 C379 0.961 . S
H396 C380 0.931 . S
H397 C385 0.930 . S
H398 C386 0.956 . S
H399 C386 0.961 . S
H400 C386 0.961 . S
H401 C387 0.958 . S
H402 C387 0.961 . S
H403 C387 0.960 . S
C404 C405 1.391 . S
C404 C406 1.394 . S
C404 H420 0.931 . S
C405 C404 1.391 . S
C405 C409 1.376 . S
C406 C404 1.394 . S
C406 C407 1.369 . S
C406 C410 1.531 . S
C407 C406 1.369 . S
C407 C408 1.410 . S
C407 C415 1.503 . S
C408 C407 1.410 . S
C408 C409 1.392 . S
C408 C411 1.511 . S
C409 C405 1.376 . S
C409 C408 1.392 . S
C409 H421 0.929 . S
C410 C406 1.531 . S
C410 H422 0.960 . S
C410 H423 0.962 . S
C410 H424 0.960 . S
C411 C408 1.511 . S
C411 H425 0.961 . S
C411 H426 0.961 . S
C411 H427 0.961 . S
C412 C413 1.370 . S
C412 C414 1.363 . S
C412 H428 0.931 . S
C413 C412 1.370 . S
C413 C417 1.408 . S
C414 C412 1.363 . S
C414 C415 1.370 . S
C414 C418 1.524 . S
C415 C407 1.503 . S
C415 C414 1.370 . S
C415 C416 1.403 . S
C416 C415 1.403 . S
C416 C417 1.404 . S
C416 C419 1.539 . S
C417 C413 1.408 . S
C417 C416 1.404 . S
C417 H429 0.930 . S
C418 C414 1.524 . S
C418 H430 0.956 . S
C418 H431 0.961 . S
C418 H432 0.961 . S
C419 C416 1.539 . S
C419 H433 0.958 . S
C419 H434 0.961 . S
C419 H435 0.960 . S
H420 C404 0.931 . S
H421 C409 0.929 . S
H422 C410 0.960 . S
H423 C410 0.962 . S
H424 C410 0.960 . S
H425 C411 0.961 . S
H426 C411 0.961 . S
H427 C411 0.961 . S
H428 C412 0.931 . S
H429 C417 0.930 . S
H430 C418 0.956 . S
H431 C418 0.961 . S
H432 C418 0.961 . S
H433 C419 0.958 . S
H434 C419 0.961 . S
H435 C419 0.960 . S
C436 C437 1.391 . S
C436 C438 1.394 . S
C436 H452 0.931 . S
C437 C436 1.391 . S
C437 C441 1.376 . S
C438 C436 1.394 . S
C438 C439 1.369 . S
C438 C442 1.531 . S
C439 C438 1.369 . S
C439 C440 1.410 . S
C439 C447 1.503 . S
C440 C439 1.410 . S
C440 C441 1.392 . S
C440 C443 1.511 . S
C441 C437 1.376 . S
C441 C440 1.392 . S
C441 H453 0.929 . S
C442 C438 1.531 . S
C442 H454 0.960 . S
C442 H455 0.962 . S
C442 H456 0.960 . S
C443 C440 1.511 . S
C443 H457 0.961 . S
C443 H458 0.961 . S
C443 H459 0.961 . S
C444 C445 1.370 . S
C444 C446 1.363 . S
C444 H460 0.931 1_655 S
C445 C444 1.370 . S
C445 C449 1.408 . S
C446 C444 1.363 . S
C446 C447 1.370 . S
C446 C450 1.524 . S
C447 C439 1.503 . S
C447 C446 1.370 . S
C447 C448 1.403 . S
C448 C447 1.403 . S
C448 C449 1.404 . S
C448 C451 1.539 . S
C449 C445 1.408 . S
C449 C448 1.404 . S
C449 H461 0.930 . S
C450 C446 1.524 . S
C450 H462 0.956 . S
C450 H463 0.961 . S
C450 H464 0.954 1_655 S
C451 C448 1.539 . S
C451 H465 0.958 . S
C451 H466 0.961 . S
C451 H467 0.960 . S
H452 C436 0.931 . S
H453 C441 0.929 . S
H454 C442 0.960 . S
H455 C442 0.962 . S
H456 C442 0.960 . S
H457 C443 0.961 . S
H458 C443 0.961 . S
H459 C443 0.961 . S
H460 C444 0.931 1_455 S
H461 C449 0.930 . S
H462 C450 0.956 . S
H463 C450 0.961 . S
H464 C450 0.954 1_455 S
H465 C451 0.958 . S
H466 C451 0.961 . S
H467 C451 0.960 . S
C468 C469 1.391 . S
C468 C470 1.394 . S
C468 H484 0.931 . S
C469 C468 1.391 . S
C469 C473 1.376 . S
C470 C468 1.394 . S
C470 C471 1.369 . S
C470 C474 1.531 . S
C471 C470 1.369 . S
C471 C472 1.410 . S
C471 C479 1.503 . S
C472 C471 1.410 . S
C472 C473 1.392 . S
C472 C475 1.511 . S
C473 C469 1.376 . S
C473 C472 1.392 . S
C473 H485 0.929 . S
C474 C470 1.531 . S
C474 H486 0.960 . S
C474 H487 0.962 . S
C474 H488 0.960 . S
C475 C472 1.511 . S
C475 H489 0.961 . S
C475 H490 0.961 . S
C475 H491 0.961 . S
C476 C477 1.370 . S
C476 C478 1.363 . S
C476 H492 0.931 . S
C477 C476 1.370 . S
C477 C481 1.408 . S
C478 C476 1.363 . S
C478 C479 1.370 . S
C478 C482 1.524 . S
C479 C471 1.503 . S
C479 C478 1.370 . S
C479 C480 1.403 . S
C480 C479 1.403 . S
C480 C481 1.404 . S
C480 C483 1.539 . S
C481 C477 1.408 . S
C481 C480 1.404 . S
C481 H493 0.930 . S
C482 C478 1.524 . S
C482 H494 0.956 . S
C482 H495 0.961 . S
C482 H496 0.961 . S
C483 C480 1.539 . S
C483 H497 0.958 . S
C483 H498 0.961 . S
C483 H499 0.960 . S
H484 C468 0.931 . S
H485 C473 0.929 . S
H486 C474 0.960 . S
H487 C474 0.962 . S
H488 C474 0.960 . S
H489 C475 0.961 . S
H490 C475 0.961 . S
H491 C475 0.961 . S
H492 C476 0.931 . S
H493 C481 0.930 . S
H494 C482 0.956 . S
H495 C482 0.961 . S
H496 C482 0.961 . S
H497 C483 0.958 . S
H498 C483 0.961 . S
H499 C483 0.960 . S
C500 C501 1.391 . S
C500 C502 1.394 . S
C500 H516 0.931 . S
C501 C500 1.391 . S
C501 C505 1.376 . S
C502 C500 1.394 . S
C502 C503 1.369 . S
C502 C506 1.531 . S
C503 C502 1.369 . S
C503 C504 1.410 . S
C503 C511 1.503 . S
C504 C503 1.410 . S
C504 C505 1.392 . S
C504 C507 1.511 . S
C505 C501 1.376 . S
C505 C504 1.392 . S
C505 H517 0.929 . S
C506 C502 1.531 . S
C506 H518 0.960 . S
C506 H519 0.962 . S
C506 H520 0.960 . S
C507 C504 1.511 . S
C507 H521 0.961 . S
C507 H522 0.961 . S
C507 H523 0.961 1_565 S
C508 C509 1.370 . S
C508 C510 1.363 . S
C508 H524 0.931 . S
C509 C508 1.370 . S
C509 C513 1.408 1_565 S
C510 C508 1.363 . S
C510 C511 1.370 . S
C510 C514 1.524 . S
C511 C503 1.503 . S
C511 C510 1.370 . S
C511 C512 1.403 . S
C512 C511 1.403 . S
C512 C513 1.404 1_565 S
C512 C515 1.539 1_565 S
C513 C509 1.408 1_545 S
C513 C512 1.404 1_545 S
C513 H525 0.930 . S
C514 C510 1.524 . S
C514 H526 0.956 . S
C514 H527 0.961 . S
C514 H528 0.961 . S
C515 C512 1.539 1_545 S
C515 H529 0.969 . S
C515 H530 0.961 . S
C515 H531 0.960 . S
H516 C500 0.931 . S
H517 C505 0.929 . S
H518 C506 0.960 . S
H519 C506 0.962 . S
H520 C506 0.960 . S
H521 C507 0.961 . S
H522 C507 0.961 . S
H523 C507 0.961 1_545 S
H524 C508 0.931 . S
H525 C513 0.930 . S
H526 C514 0.956 . S
H527 C514 0.961 . S
H528 C514 0.961 . S
H529 C515 0.969 . S
H530 C515 0.961 . S
H531 C515 0.960 . S
C532 C533 1.391 . S
C532 C534 1.394 . S
C532 H548 0.931 . S
C533 C532 1.391 . S
C533 C537 1.376 . S
C534 C532 1.394 . S
C534 C535 1.369 . S
C534 C538 1.531 . S
C535 C534 1.369 . S
C535 C536 1.410 . S
C535 C543 1.503 . S
C536 C535 1.410 . S
C536 C537 1.392 . S
C536 C539 1.511 . S
C537 C533 1.376 . S
C537 C536 1.392 . S
C537 H549 0.929 . S
C538 C534 1.531 . S
C538 H550 0.960 . S
C538 H551 0.962 . S
C538 H552 0.960 . S
C539 C536 1.511 . S
C539 H553 0.961 . S
C539 H554 0.961 . S
C539 H555 0.961 . S
C540 C541 1.370 . S
C540 C542 1.363 . S
C540 H556 0.931 1_556 S
C541 C540 1.370 . S
C541 C545 1.408 . S
C542 C540 1.363 . S
C542 C543 1.370 . S
C542 C546 1.524 . S
C543 C535 1.503 . S
C543 C542 1.370 . S
C543 C544 1.403 . S
C544 C543 1.403 . S
C544 C545 1.404 . S
C544 C547 1.539 . S
C545 C541 1.408 . S
C545 C544 1.404 . S
C545 H557 0.930 . S
C546 C542 1.524 . S
C546 H558 0.956 . S
C546 H559 0.961 . S
C546 H560 0.961 1_556 S
C547 C544 1.539 . S
C547 H561 0.958 . S
C547 H562 0.961 . S
C547 H563 0.960 . S
H548 C532 0.931 . S
H549 C537 0.929 . S
H550 C538 0.960 . S
H551 C538 0.962 . S
H552 C538 0.960 . S
H553 C539 0.961 . S
H554 C539 0.961 . S
H555 C539 0.961 . S
H556 C540 0.931 1_554 S
H557 C545 0.930 . S
H558 C546 0.956 . S
H559 C546 0.961 . S
H560 C546 0.961 1_554 S
H561 C547 0.958 . S
H562 C547 0.961 . S
H563 C547 0.960 . S
C564 C565 1.391 . S
C564 C566 1.394 . S
C564 H580 0.931 . S
C565 C564 1.391 . S
C565 C569 1.376 . S
C566 C564 1.394 . S
C566 C567 1.369 . S
C566 C570 1.531 . S
C567 C566 1.369 . S
C567 C568 1.410 . S
C567 C575 1.503 . S
C568 C567 1.410 . S
C568 C569 1.392 . S
C568 C571 1.511 . S
C569 C565 1.376 . S
C569 C568 1.392 . S
C569 H581 0.929 . S
C570 C566 1.531 . S
C570 H582 0.960 . S
C570 H583 0.962 . S
C570 H584 0.960 . S
C571 C568 1.511 . S
C571 H585 0.961 . S
C571 H586 0.961 . S
C571 H587 0.961 . S
C572 C573 1.370 . S
C572 C574 1.363 . S
C572 H588 0.931 . S
C573 C572 1.370 . S
C573 C577 1.408 . S
C574 C572 1.363 . S
C574 C575 1.370 . S
C574 C578 1.524 . S
C575 C567 1.503 . S
C575 C574 1.370 . S
C575 C576 1.403 . S
C576 C575 1.403 . S
C576 C577 1.404 . S
C576 C579 1.539 . S
C577 C573 1.408 . S
C577 C576 1.404 . S
C577 H589 0.930 . S
C578 C574 1.524 . S
C578 H590 0.956 . S
C578 H591 0.961 . S
C578 H592 0.961 . S
C579 C576 1.539 . S
C579 H593 0.958 . S
C579 H594 0.961 . S
C579 H595 0.960 . S
H580 C564 0.931 . S
H581 C569 0.929 . S
H582 C570 0.960 . S
H583 C570 0.962 . S
H584 C570 0.960 . S
H585 C571 0.961 . S
H586 C571 0.961 . S
H587 C571 0.961 . S
H588 C572 0.931 . S
H589 C577 0.930 . S
H590 C578 0.956 . S
H591 C578 0.961 . S
H592 C578 0.961 . S
H593 C579 0.958 . S
H594 C579 0.961 . S
H595 C579 0.960 . S
C596 C597 1.391 . S
C596 C598 1.394 . S
C596 H612 0.931 . S
C597 C596 1.391 . S
C597 C601 1.376 . S
C598 C596 1.394 . S
C598 C599 1.369 . S
C598 C602 1.531 . S
C599 C598 1.369 . S
C599 C600 1.410 . S
C599 C607 1.503 . S
C600 C599 1.410 . S
C600 C601 1.392 . S
C600 C603 1.511 . S
C601 C597 1.376 . S
C601 C600 1.392 . S
C601 H613 0.929 . S
C602 C598 1.531 . S
C602 H614 0.960 . S
C602 H615 0.962 . S
C602 H616 0.960 . S
C603 C600 1.511 . S
C603 H617 0.961 . S
C603 H618 0.961 . S
C603 H619 0.961 . S
C604 C605 1.370 . S
C604 C606 1.363 . S
C604 H620 0.931 . S
C605 C604 1.370 . S
C605 C609 1.408 . S
C606 C604 1.363 . S
C606 C607 1.370 . S
C606 C610 1.524 . S
C607 C599 1.503 . S
C607 C606 1.370 . S
C607 C608 1.403 . S
C608 C607 1.403 . S
C608 C609 1.404 . S
C608 C611 1.539 . S
C609 C605 1.408 . S
C609 C608 1.404 . S
C609 H621 0.930 . S
C610 C606 1.524 . S
C610 H622 0.956 . S
C610 H623 0.961 . S
C610 H624 0.961 . S
C611 C608 1.539 . S
C611 H625 0.958 . S
C611 H626 0.961 . S
C611 H627 0.960 . S
H612 C596 0.931 . S
H613 C601 0.929 . S
H614 C602 0.960 . S
H615 C602 0.962 . S
H616 C602 0.960 . S
H617 C603 0.961 . S
H618 C603 0.961 . S
H619 C603 0.961 . S
H620 C604 0.931 . S
H621 C609 0.930 . S
H622 C610 0.956 . S
H623 C610 0.961 . S
H624 C610 0.961 . S
H625 C611 0.958 . S
H626 C611 0.961 . S
H627 C611 0.960 . S
C628 C629 1.391 . S
C628 C630 1.394 . S
C628 H644 0.931 . S
C629 C628 1.391 . S
C629 C633 1.376 . S
C630 C628 1.394 . S
C630 C631 1.369 . S
C630 C634 1.531 . S
C631 C630 1.369 . S
C631 C632 1.410 . S
C631 C639 1.503 . S
C632 C631 1.410 . S
C632 C633 1.392 . S
C632 C635 1.511 . S
C633 C629 1.376 . S
C633 C632 1.392 . S
C633 H645 0.929 . S
C634 C630 1.531 . S
C634 H646 0.960 . S
C634 H647 0.962 . S
C634 H648 0.960 . S
C635 C632 1.511 . S
C635 H649 0.961 . S
C635 H650 0.961 . S
C635 H651 0.961 . S
C636 C637 1.370 . S
C636 C638 1.363 . S
C636 H652 0.931 . S
C637 C636 1.370 . S
C637 C641 1.408 . S
C638 C636 1.363 . S
C638 C639 1.370 . S
C638 C642 1.524 . S
C639 C631 1.503 . S
C639 C638 1.370 . S
C639 C640 1.403 . S
C640 C639 1.403 . S
C640 C641 1.404 . S
C640 C643 1.539 . S
C641 C637 1.408 . S
C641 C640 1.404 . S
C641 H653 0.930 . S
C642 C638 1.524 . S
C642 H654 0.956 . S
C642 H655 0.961 . S
C642 H656 0.961 . S
C643 C640 1.539 . S
C643 H657 0.958 . S
C643 H658 0.961 . S
C643 H659 0.960 . S
H644 C628 0.931 . S
H645 C633 0.929 . S
H646 C634 0.960 . S
H647 C634 0.962 . S
H648 C634 0.960 . S
H649 C635 0.961 . S
H650 C635 0.961 . S
H651 C635 0.961 . S
H652 C636 0.931 . S
H653 C641 0.930 . S
H654 C642 0.956 . S
H655 C642 0.961 . S
H656 C642 0.961 . S
H657 C643 0.958 . S
H658 C643 0.961 . S
H659 C643 0.960 . S
C660 C661 1.391 . S
C660 C662 1.394 . S
C660 H676 0.931 . S
C661 C660 1.391 . S
C661 C665 1.376 . S
C662 C660 1.394 . S
C662 C663 1.369 . S
C662 C666 1.531 . S
C663 C662 1.369 . S
C663 C664 1.410 . S
C663 C671 1.503 . S
C664 C663 1.410 . S
C664 C665 1.392 . S
C664 C667 1.511 . S
C665 C661 1.376 . S
C665 C664 1.392 . S
C665 H677 0.929 . S
C666 C662 1.531 . S
C666 H678 0.960 . S
C666 H679 0.962 . S
C666 H680 0.960 . S
C667 C664 1.511 . S
C667 H681 0.961 . S
C667 H682 0.961 . S
C667 H683 0.961 . S
C668 C669 1.370 . S
C668 C670 1.363 . S
C668 H684 0.931 . S
C669 C668 1.370 . S
C669 C673 1.408 . S
C670 C668 1.363 . S
C670 C671 1.370 . S
C670 C674 1.524 . S
C671 C663 1.503 . S
C671 C670 1.370 . S
C671 C672 1.403 . S
C672 C671 1.403 . S
C672 C673 1.404 . S
C672 C675 1.539 . S
C673 C669 1.408 . S
C673 C672 1.404 . S
C673 H685 0.930 . S
C674 C670 1.524 . S
C674 H686 0.956 . S
C674 H687 0.961 . S
C674 H688 0.961 . S
C675 C672 1.539 . S
C675 H689 0.958 . S
C675 H690 0.961 . S
C675 H691 0.960 . S
H676 C660 0.931 . S
H677 C665 0.929 . S
H678 C666 0.960 . S
H679 C666 0.962 . S
H680 C666 0.960 . S
H681 C667 0.961 . S
H682 C667 0.961 . S
H683 C667 0.961 . S
H684 C668 0.931 . S
H685 C673 0.930 . S
H686 C674 0.956 . S
H687 C674 0.961 . S
H688 C674 0.961 . S
H689 C675 0.958 . S
H690 C675 0.961 . S
H691 C675 0.960 . S
C692 C693 1.391 . S
C692 C694 1.394 . S
C692 H708 0.931 . S
C693 C692 1.391 . S
C693 C697 1.376 . S
C694 C692 1.394 . S
C694 C695 1.369 . S
C694 C698 1.531 . S
C695 C694 1.369 . S
C695 C696 1.410 . S
C695 C703 1.503 . S
C696 C695 1.410 . S
C696 C697 1.392 . S
C696 C699 1.511 . S
C697 C693 1.376 . S
C697 C696 1.392 . S
C697 H709 0.929 . S
C698 C694 1.531 . S
C698 H710 0.960 . S
C698 H711 0.962 . S
C698 H712 0.960 . S
C699 C696 1.511 . S
C699 H713 0.961 . S
C699 H714 0.961 . S
C699 H715 0.961 . S
C700 C701 1.370 . S
C700 C702 1.363 . S
C700 H716 0.931 . S
C701 C700 1.370 . S
C701 C705 1.408 . S
C702 C700 1.363 . S
C702 C703 1.370 . S
C702 C706 1.524 . S
C703 C695 1.503 . S
C703 C702 1.370 . S
C703 C704 1.403 . S
C704 C703 1.403 . S
C704 C705 1.404 . S
C704 C707 1.539 . S
C705 C701 1.408 . S
C705 C704 1.404 . S
C705 H717 0.930 . S
C706 C702 1.524 . S
C706 H718 0.956 . S
C706 H719 0.961 . S
C706 H720 0.961 . S
C707 C704 1.539 . S
C707 H721 0.958 . S
C707 H722 0.961 . S
C707 H723 0.960 . S
H708 C692 0.931 . S
H709 C697 0.929 . S
H710 C698 0.960 . S
H711 C698 0.962 . S
H712 C698 0.960 . S
H713 C699 0.961 . S
H714 C699 0.961 . S
H715 C699 0.961 . S
H716 C700 0.931 . S
H717 C705 0.930 . S
H718 C706 0.956 . S
H719 C706 0.961 . S
H720 C706 0.961 . S
H721 C707 0.958 . S
H722 C707 0.961 . S
H723 C707 0.960 . S
C724 C725 1.378 1_455 S
C724 C726 1.395 . S
C724 H740 0.943 . S
C725 C724 1.378 1_655 S
C725 C729 1.384 . S
C726 C724 1.395 . S
C726 C727 1.369 1_455 S
C726 C730 1.531 . S
C727 C726 1.369 1_655 S
C727 C728 1.410 1_565 S
C727 C735 1.500 1_565 S
C728 C727 1.410 1_545 S
C728 C729 1.391 1_545 S
C728 C731 1.511 . S
C729 C725 1.384 . S
C729 C728 1.391 1_565 S
C729 H741 0.923 1_565 S
C730 C726 1.531 . S
C730 H742 0.960 . S
C730 H743 0.962 . S
C730 H744 0.960 . S
C731 C728 1.511 . S
C731 H745 0.961 . S
C731 H746 0.961 . S
C731 H747 0.961 1_545 S
C732 C733 1.370 . S
C732 C734 1.363 . S
C732 H748 0.931 1_655 S
C733 C732 1.370 . S
C733 C737 1.408 1_545 S
C734 C732 1.363 . S
C734 C735 1.388 . S
C734 C738 1.527 . S
C735 C727 1.500 1_545 S
C735 C734 1.388 . S
C735 C736 1.389 1_545 S
C736 C735 1.389 1_565 S
C736 C737 1.404 . S
C736 C739 1.539 . S
C737 C733 1.408 1_565 S
C737 C736 1.404 . S
C737 H749 0.930 . S
C738 C734 1.527 . S
C738 H750 0.945 1_655 S
C738 H751 0.971 . S
C738 H752 0.958 1_655 S
C739 C736 1.539 . S
C739 H753 0.958 . S
C739 H754 0.961 . S
C739 H755 0.960 . S
H740 C724 0.943 . S
H741 C729 0.923 1_545 S
H742 C730 0.960 . S
H743 C730 0.962 . S
H744 C730 0.960 . S
H745 C731 0.961 . S
H746 C731 0.961 . S
H747 C731 0.961 1_565 S
H748 C732 0.931 1_455 S
H749 C737 0.930 . S
H750 C738 0.945 1_455 S
H751 C738 0.971 . S
H752 C738 0.958 1_455 S
H753 C739 0.958 . S
H754 C739 0.961 . S
H755 C739 0.960 . S
C756 C757 1.391 . S
C756 C758 1.394 . S
C756 H772 0.931 . S
C757 C756 1.391 . S
C757 C761 1.376 . S
C758 C756 1.394 . S
C758 C759 1.369 . S
C758 C762 1.531 . S
C759 C758 1.369 . S
C759 C760 1.410 . S
C759 C767 1.503 . S
C760 C759 1.410 . S
C760 C761 1.392 . S
C760 C763 1.511 . S
C761 C757 1.376 . S
C761 C760 1.392 . S
C761 H773 0.929 . S
C762 C758 1.531 . S
C762 H774 0.960 . S
C762 H775 0.962 . S
C762 H776 0.960 . S
C763 C760 1.511 . S
C763 H777 0.961 . S
C763 H778 0.961 . S
C763 H779 0.961 . S
C764 C765 1.370 . S
C764 C766 1.363 . S
C764 H780 0.931 . S
C765 C764 1.370 . S
C765 C769 1.408 . S
C766 C764 1.363 . S
C766 C767 1.370 . S
C766 C770 1.524 . S
C767 C759 1.503 . S
C767 C766 1.370 . S
C767 C768 1.403 . S
C768 C767 1.403 . S
C768 C769 1.404 . S
C768 C771 1.539 1_545 S
C769 C765 1.408 . S
C769 C768 1.404 . S
C769 H781 0.930 1_545 S
C770 C766 1.524 . S
C770 H782 0.956 . S
C770 H783 0.961 . S
C770 H784 0.961 . S
C771 C768 1.539 1_565 S
C771 H785 0.958 . S
C771 H786 0.961 . S
C771 H787 0.960 . S
H772 C756 0.931 . S
H773 C761 0.929 . S
H774 C762 0.960 . S
H775 C762 0.962 . S
H776 C762 0.960 . S
H777 C763 0.961 . S
H778 C763 0.961 . S
H779 C763 0.961 . S
H780 C764 0.931 . S
H781 C769 0.930 1_565 S
H782 C770 0.956 . S
H783 C770 0.961 . S
H784 C770 0.961 . S
H785 C771 0.958 . S
H786 C771 0.961 . S
H787 C771 0.960 . S
C788 C789 1.391 . S
C788 C790 1.394 . S
C788 H804 0.931 . S
C789 C788 1.391 . S
C789 C793 1.376 . S
C790 C788 1.394 . S
C790 C791 1.369 . S
C790 C794 1.531 . S
C791 C790 1.369 . S
C791 C792 1.410 . S
C791 C799 1.503 . S
C792 C791 1.410 . S
C792 C793 1.392 . S
C792 C795 1.511 . S
C793 C789 1.376 . S
C793 C792 1.392 . S
C793 H805 0.929 . S
C794 C790 1.531 . S
C794 H806 0.960 . S
C794 H807 0.962 . S
C794 H808 0.960 . S
C795 C792 1.511 . S
C795 H809 0.961 . S
C795 H810 0.961 . S
C795 H811 0.961 . S
C796 C797 1.370 . S
C796 C798 1.363 . S
C796 H812 0.931 . S
C797 C796 1.370 . S
C797 C801 1.408 . S
C798 C796 1.363 . S
C798 C799 1.370 . S
C798 C802 1.524 . S
C799 C791 1.503 . S
C799 C798 1.370 . S
C799 C800 1.403 . S
C800 C799 1.403 . S
C800 C801 1.404 . S
C800 C803 1.539 . S
C801 C797 1.408 . S
C801 C800 1.404 . S
C801 H813 0.930 . S
C802 C798 1.524 . S
C802 H814 0.956 . S
C802 H815 0.961 . S
C802 H816 0.961 . S
C803 C800 1.539 . S
C803 H817 0.958 . S
C803 H818 0.961 . S
C803 H819 0.960 . S
H804 C788 0.931 . S
H805 C793 0.929 . S
H806 C794 0.960 . S
H807 C794 0.962 . S
H808 C794 0.960 . S
H809 C795 0.961 . S
H810 C795 0.961 . S
H811 C795 0.961 . S
H812 C796 0.931 . S
H813 C801 0.930 . S
H814 C802 0.956 . S
H815 C802 0.961 . S
H816 C802 0.961 . S
H817 C803 0.958 . S
H818 C803 0.961 . S
H819 C803 0.960 . S
C820 C821 1.391 . S
C820 C822 1.394 . S
C820 H836 0.931 . S
C821 C820 1.391 . S
C821 C825 1.376 . S
C822 C820 1.394 . S
C822 C823 1.369 . S
C822 C826 1.531 . S
C823 C822 1.369 . S
C823 C824 1.410 . S
C823 C831 1.503 . S
C824 C823 1.410 . S
C824 C825 1.392 . S
C824 C827 1.511 . S
C825 C821 1.376 . S
C825 C824 1.392 . S
C825 H837 0.929 . S
C826 C822 1.531 . S
C826 H838 0.960 . S
C826 H839 0.962 1_455 S
C826 H840 0.960 1_455 S
C827 C824 1.511 . S
C827 H841 0.961 . S
C827 H842 0.961 . S
C827 H843 0.961 . S
C828 C829 1.370 . S
C828 C830 1.363 . S
C828 H844 0.931 . S
C829 C828 1.370 . S
C829 C833 1.408 . S
C830 C828 1.363 . S
C830 C831 1.370 . S
C830 C834 1.524 . S
C831 C823 1.503 . S
C831 C830 1.370 . S
C831 C832 1.403 . S
C832 C831 1.403 . S
C832 C833 1.404 . S
C832 C835 1.539 . S
C833 C829 1.408 . S
C833 C832 1.404 . S
C833 H845 0.930 . S
C834 C830 1.524 . S
C834 H846 0.956 . S
C834 H847 0.961 . S
C834 H848 0.961 . S
C835 C832 1.539 . S
C835 H849 0.958 . S
C835 H850 0.961 . S
C835 H851 0.960 . S
H836 C820 0.931 . S
H837 C825 0.929 . S
H838 C826 0.960 . S
H839 C826 0.962 1_655 S
H840 C826 0.960 1_655 S
H841 C827 0.961 . S
H842 C827 0.961 . S
H843 C827 0.961 . S
H844 C828 0.931 . S
H845 C833 0.930 . S
H846 C834 0.956 . S
H847 C834 0.961 . S
H848 C834 0.961 . S
H849 C835 0.958 . S
H850 C835 0.961 . S
H851 C835 0.960 . S
C852 C853 1.391 1_544 S
C852 C854 1.394 . S
C852 H868 0.931 . S
C853 C852 1.391 1_566 S
C853 C857 1.376 . S
C854 C852 1.394 . S
C854 C855 1.369 1_544 S
C854 C858 1.531 . S
C855 C854 1.369 1_566 S
C855 C856 1.410 . S
C855 C863 1.503 1_556 S
C856 C855 1.410 . S
C856 C857 1.392 . S
C856 C859 1.511 . S
C857 C853 1.376 . S
C857 C856 1.392 . S
C857 H869 0.929 . S
C858 C854 1.531 . S
C858 H870 0.960 . S
C858 H871 0.962 . S
C858 H872 0.960 . S
C859 C856 1.511 . S
C859 H873 0.961 . S
C859 H874 0.961 . S
C859 H875 0.961 . S
C860 C861 1.370 . S
C860 C862 1.363 . S
C860 H876 0.931 . S
C861 C860 1.370 . S
C861 C865 1.408 1_564 S
C862 C860 1.363 . S
C862 C863 1.370 . S
C862 C866 1.524 . S
C863 C855 1.503 1_554 S
C863 C862 1.370 . S
C863 C864 1.403 1_564 S
C864 C863 1.403 1_546 S
C864 C865 1.404 . S
C864 C867 1.539 . S
C865 C861 1.408 1_546 S
C865 C864 1.404 . S
C865 H877 0.930 . S
C866 C862 1.524 . S
C866 H878 0.956 . S
C866 H879 0.961 . S
C866 H880 0.961 . S
C867 C864 1.539 . S
C867 H881 0.958 . S
C867 H882 0.961 . S
C867 H883 0.960 . S
H868 C852 0.931 . S
H869 C857 0.929 . S
H870 C858 0.960 . S
H871 C858 0.962 . S
H872 C858 0.960 . S
H873 C859 0.961 . S
H874 C859 0.961 . S
H875 C859 0.961 . S
H876 C860 0.931 . S
H877 C865 0.930 . S
H878 C866 0.956 . S
H879 C866 0.961 . S
H880 C866 0.961 . S
H881 C867 0.958 . S
H882 C867 0.961 . S
H883 C867 0.960 . S
C884 C885 1.391 . S
C884 C886 1.394 . S
C884 H900 0.931 . S
C885 C884 1.391 . S
C885 C889 1.376 . S
C886 C884 1.394 . S
C886 C887 1.369 . S
C886 C890 1.531 . S
C887 C886 1.369 . S
C887 C888 1.410 . S
C887 C895 1.503 . S
C888 C887 1.410 . S
C888 C889 1.392 . S
C888 C891 1.511 . S
C889 C885 1.376 . S
C889 C888 1.392 . S
C889 H901 0.929 . S
C890 C886 1.531 . S
C890 H902 0.960 . S
C890 H903 0.962 . S
C890 H904 0.960 . S
C891 C888 1.511 . S
C891 H905 0.961 . S
C891 H906 0.961 . S
C891 H907 0.961 . S
C892 C893 1.370 . S
C892 C894 1.363 . S
C892 H908 0.931 . S
C893 C892 1.370 . S
C893 C897 1.408 . S
C894 C892 1.363 . S
C894 C895 1.370 . S
C894 C898 1.524 . S
C895 C887 1.503 . S
C895 C894 1.370 . S
C895 C896 1.403 . S
C896 C895 1.403 . S
C896 C897 1.404 . S
C896 C899 1.539 . S
C897 C893 1.408 . S
C897 C896 1.404 . S
C897 H909 0.930 . S
C898 C894 1.524 . S
C898 H910 0.956 . S
C898 H911 0.961 . S
C898 H912 0.961 . S
C899 C896 1.539 . S
C899 H913 0.958 1_545 S
C899 H914 0.961 1_545 S
C899 H915 0.960 . S
H900 C884 0.931 . S
H901 C889 0.929 . S
H902 C890 0.960 . S
H903 C890 0.962 . S
H904 C890 0.960 . S
H905 C891 0.961 . S
H906 C891 0.961 . S
H907 C891 0.961 . S
H908 C892 0.931 . S
H909 C897 0.930 . S
H910 C898 0.956 . S
H911 C898 0.961 . S
H912 C898 0.961 . S
H913 C899 0.958 1_565 S
H914 C899 0.961 1_565 S
H915 C899 0.960 . S
C916 C917 1.391 . S
C916 C918 1.394 . S
C916 H932 0.931 . S
C917 C916 1.391 . S
C917 C921 1.376 . S
C918 C916 1.394 . S
C918 C919 1.369 . S
C918 C922 1.531 . S
C919 C918 1.369 . S
C919 C920 1.410 . S
C919 C927 1.503 . S
C920 C919 1.410 . S
C920 C921 1.392 . S
C920 C923 1.511 1_554 S
C921 C917 1.376 . S
C921 C920 1.392 . S
C921 H933 0.929 . S
C922 C918 1.531 . S
C922 H934 0.960 . S
C922 H935 0.962 . S
C922 H936 0.960 . S
C923 C920 1.511 1_556 S
C923 H937 0.961 . S
C923 H938 0.961 . S
C923 H939 0.961 . S
C924 C925 1.370 . S
C924 C926 1.363 . S
C924 H940 0.931 . S
C925 C924 1.370 . S
C925 C929 1.408 . S
C926 C924 1.363 . S
C926 C927 1.370 . S
C926 C930 1.524 . S
C927 C919 1.503 . S
C927 C926 1.370 . S
C927 C928 1.403 . S
C928 C927 1.403 . S
C928 C929 1.404 . S
C928 C931 1.539 1_554 S
C929 C925 1.408 . S
C929 C928 1.404 . S
C929 H941 0.930 1_554 S
C930 C926 1.524 . S
C930 H942 0.956 . S
C930 H943 0.961 . S
C930 H944 0.961 . S
C931 C928 1.539 1_556 S
C931 H945 0.958 . S
C931 H946 0.961 . S
C931 H947 0.960 . S
H932 C916 0.931 . S
H933 C921 0.929 . S
H934 C922 0.960 . S
H935 C922 0.962 . S
H936 C922 0.960 . S
H937 C923 0.961 . S
H938 C923 0.961 . S
H939 C923 0.961 . S
H940 C924 0.931 . S
H941 C929 0.930 1_556 S
H942 C930 0.956 . S
H943 C930 0.961 . S
H944 C930 0.961 . S
H945 C931 0.958 . S
H946 C931 0.961 . S
H947 C931 0.960 . S
C948 C949 1.391 . S
C948 C950 1.394 . S
C948 H964 0.931 . S
C949 C948 1.391 . S
C949 C953 1.376 . S
C950 C948 1.394 . S
C950 C951 1.369 . S
C950 C954 1.531 . S
C951 C950 1.369 . S
C951 C952 1.410 . S
C951 C959 1.503 . S
C952 C951 1.410 . S
C952 C953 1.392 . S
C952 C955 1.511 . S
C953 C949 1.376 . S
C953 C952 1.392 . S
C953 H965 0.929 . S
C954 C950 1.531 . S
C954 H966 0.960 . S
C954 H967 0.962 . S
C954 H968 0.960 . S
C955 C952 1.511 . S
C955 H969 0.961 . S
C955 H970 0.961 . S
C955 H971 0.961 . S
C956 C957 1.370 . S
C956 C958 1.363 . S
C956 H972 0.931 . S
C957 C956 1.370 . S
C957 C961 1.408 . S
C958 C956 1.363 . S
C958 C959 1.370 . S
C958 C962 1.524 . S
C959 C951 1.503 . S
C959 C958 1.370 . S
C959 C960 1.403 . S
C960 C959 1.403 . S
C960 C961 1.404 . S
C960 C963 1.539 . S
C961 C957 1.408 . S
C961 C960 1.404 . S
C961 H973 0.930 . S
C962 C958 1.524 . S
C962 H974 0.956 . S
C962 H975 0.961 . S
C962 H976 0.961 . S
C963 C960 1.539 . S
C963 H977 0.958 . S
C963 H978 0.961 . S
C963 H979 0.960 . S
H964 C948 0.931 . S
H965 C953 0.929 . S
H966 C954 0.960 . S
H967 C954 0.962 . S
H968 C954 0.960 . S
H969 C955 0.961 . S
H970 C955 0.961 . S
H971 C955 0.961 . S
H972 C956 0.931 . S
H973 C961 0.930 . S
H974 C962 0.956 . S
H975 C962 0.961 . S
H976 C962 0.961 . S
H977 C963 0.958 . S
H978 C963 0.961 . S
H979 C963 0.960 . S
C980 C981 1.391 1_554 S
C980 C982 1.394 1_655 S
C980 H996 0.931 1_655 S
C981 C980 1.391 1_556 S
C981 C985 1.376 . S
C982 C980 1.394 1_455 S
C982 C983 1.369 1_454 S
C982 C986 1.531 . S
C983 C982 1.369 1_656 S
C983 C984 1.410 . S
C983 C991 1.503 . S
C984 C983 1.410 . S
C984 C985 1.392 . S
C984 C987 1.511 . S
C985 C981 1.376 . S
C985 C984 1.392 . S
C985 H997 0.929 . S
C986 C982 1.531 . S
C986 H998 0.960 . S
C986 H999 0.962 . S
C986 H1000 0.960 . S
C987 C984 1.511 . S
C987 H1001 0.961 . S
C987 H1002 0.961 . S
C987 H1003 0.961 . S
C988 C989 1.370 . S
C988 C990 1.363 . S
C988 H1004 0.931 . S
C989 C988 1.370 . S
C989 C993 1.408 1_456 S
C990 C988 1.363 . S
C990 C991 1.370 1_455 S
C990 C994 1.524 . S
C991 C983 1.503 . S
C991 C990 1.370 1_655 S
C991 C992 1.403 1_556 S
C992 C991 1.403 1_554 S
C992 C993 1.404 . S
C992 C995 1.539 . S
C993 C989 1.408 1_654 S
C993 C992 1.404 . S
C993 H1005 0.930 . S
C994 C990 1.524 . S
C994 H1006 0.956 . S
C994 H1007 0.961 . S
C994 H1008 0.961 . S
C995 C992 1.539 . S
C995 H1009 0.958 . S
C995 H1010 0.961 . S
C995 H1011 0.960 . S
H996 C980 0.931 1_455 S
H997 C985 0.929 . S
H998 C986 0.960 . S
H999 C986 0.962 . S
H1000 C986 0.960 . S
H1001 C987 0.961 . S
H1002 C987 0.961 . S
H1003 C987 0.961 . S
H1004 C988 0.931 . S
H1005 C993 0.930 . S
H1006 C994 0.956 . S
H1007 C994 0.961 . S
H1008 C994 0.961 . S
H1009 C995 0.958 . S
H1010 C995 0.961 . S
H1011 C995 0.960 . S
C1012 C1013 1.391 . S
C1012 C1014 1.394 . S
C1012 H1028 0.931 . S
C1013 C1012 1.391 . S
C1013 C1017 1.376 . S
C1014 C1012 1.394 . S
C1014 C1015 1.369 . S
C1014 C1018 1.531 . S
C1015 C1014 1.369 . S
C1015 C1016 1.410 . S
C1015 C1023 1.503 . S
C1016 C1015 1.410 . S
C1016 C1017 1.392 . S
C1016 C1019 1.511 1_554 S
C1017 C1013 1.376 . S
C1017 C1016 1.392 . S
C1017 H1029 0.929 . S
C1018 C1014 1.531 . S
C1018 H1030 0.960 . S
C1018 H1031 0.962 . S
C1018 H1032 0.960 . S
C1019 C1016 1.511 1_556 S
C1019 H1033 0.961 . S
C1019 H1034 0.961 . S
C1019 H1035 0.961 . S
C1020 C1021 1.370 . S
C1020 C1022 1.363 . S
C1020 H1036 0.931 . S
C1021 C1020 1.370 . S
C1021 C1025 1.408 . S
C1022 C1020 1.363 . S
C1022 C1023 1.370 . S
C1022 C1026 1.524 . S
C1023 C1015 1.503 . S
C1023 C1022 1.370 . S
C1023 C1024 1.403 . S
C1024 C1023 1.403 . S
C1024 C1025 1.404 . S
C1024 C1027 1.539 . S
C1025 C1021 1.408 . S
C1025 C1024 1.404 . S
C1025 H1037 0.930 . S
C1026 C1022 1.524 . S
C1026 H1038 0.956 . S
C1026 H1039 0.961 . S
C1026 H1040 0.961 . S
C1027 C1024 1.539 . S
C1027 H1041 0.958 . S
C1027 H1042 0.961 . S
C1027 H1043 0.960 . S
H1028 C1012 0.931 . S
H1029 C1017 0.929 . S
H1030 C1018 0.960 . S
H1031 C1018 0.962 . S
H1032 C1018 0.960 . S
H1033 C1019 0.961 . S
H1034 C1019 0.961 . S
H1035 C1019 0.961 . S
H1036 C1020 0.931 . S
H1037 C1025 0.930 . S
H1038 C1026 0.956 . S
H1039 C1026 0.961 . S
H1040 C1026 0.961 . S
H1041 C1027 0.958 . S
H1042 C1027 0.961 . S
H1043 C1027 0.960 . S
C1044 C1045 1.391 . S
C1044 C1046 1.394 . S
C1044 H1060 0.931 . S
C1045 C1044 1.391 . S
C1045 C1049 1.376 . S
C1046 C1044 1.394 . S
C1046 C1047 1.369 . S
C1046 C1050 1.531 . S
C1047 C1046 1.369 . S
C1047 C1048 1.410 . S
C1047 C1055 1.503 . S
C1048 C1047 1.410 . S
C1048 C1049 1.392 . S
C1048 C1051 1.511 . S
C1049 C1045 1.376 . S
C1049 C1048 1.392 . S
C1049 H1061 0.929 . S
C1050 C1046 1.531 . S
C1050 H1062 0.960 1_455 S
C1050 H1063 0.962 . S
C1050 H1064 0.960 1_455 S
C1051 C1048 1.511 . S
C1051 H1065 0.961 . S
C1051 H1066 0.961 . S
C1051 H1067 0.961 . S
C1052 C1053 1.370 . S
C1052 C1054 1.363 . S
C1052 H1068 0.931 . S
C1053 C1052 1.370 . S
C1053 C1057 1.408 1_455 S
C1054 C1052 1.363 . S
C1054 C1055 1.370 . S
C1054 C1058 1.524 . S
C1055 C1047 1.503 . S
C1055 C1054 1.370 . S
C1055 C1056 1.403 1_455 S
C1056 C1055 1.403 1_655 S
C1056 C1057 1.404 . S
C1056 C1059 1.539 . S
C1057 C1053 1.408 1_655 S
C1057 C1056 1.404 . S
C1057 H1069 0.930 . S
C1058 C1054 1.524 . S
C1058 H1070 0.956 . S
C1058 H1071 0.961 . S
C1058 H1072 0.961 . S
C1059 C1056 1.539 . S
C1059 H1073 0.958 . S
C1059 H1074 0.961 . S
C1059 H1075 0.960 . S
H1060 C1044 0.931 . S
H1061 C1049 0.929 . S
H1062 C1050 0.960 1_655 S
H1063 C1050 0.962 . S
H1064 C1050 0.960 1_655 S
H1065 C1051 0.961 . S
H1066 C1051 0.961 . S
H1067 C1051 0.961 . S
H1068 C1052 0.931 . S
H1069 C1057 0.930 . S
H1070 C1058 0.956 . S
H1071 C1058 0.961 . S
H1072 C1058 0.961 . S
H1073 C1059 0.958 . S
H1074 C1059 0.961 . S
H1075 C1059 0.960 . S
C1076 C1077 1.391 . S
C1076 C1078 1.394 . S
C1076 H1092 0.931 . S
C1077 C1076 1.391 . S
C1077 C1081 1.376 . S
C1078 C1076 1.394 . S
C1078 C1079 1.369 . S
C1078 C1082 1.531 . S
C1079 C1078 1.369 . S
C1079 C1080 1.410 . S
C1079 C1087 1.503 . S
C1080 C1079 1.410 . S
C1080 C1081 1.392 . S
C1080 C1083 1.511 . S
C1081 C1077 1.376 . S
C1081 C1080 1.392 . S
C1081 H1093 0.929 . S
C1082 C1078 1.531 . S
C1082 H1094 0.960 . S
C1082 H1095 0.962 . S
C1082 H1096 0.960 . S
C1083 C1080 1.511 . S
C1083 H1097 0.961 . S
C1083 H1098 0.961 . S
C1083 H1099 0.961 . S
C1084 C1085 1.370 . S
C1084 C1086 1.363 . S
C1084 H1100 0.931 . S
C1085 C1084 1.370 . S
C1085 C1089 1.408 . S
C1086 C1084 1.363 . S
C1086 C1087 1.370 . S
C1086 C1090 1.524 . S
C1087 C1079 1.503 . S
C1087 C1086 1.370 . S
C1087 C1088 1.403 . S
C1088 C1087 1.403 . S
C1088 C1089 1.404 . S
C1088 C1091 1.539 . S
C1089 C1085 1.408 . S
C1089 C1088 1.404 . S
C1089 H1101 0.930 . S
C1090 C1086 1.524 . S
C1090 H1102 0.956 . S
C1090 H1103 0.961 . S
C1090 H1104 0.961 . S
C1091 C1088 1.539 . S
C1091 H1105 0.958 . S
C1091 H1106 0.961 . S
C1091 H1107 0.960 . S
H1092 C1076 0.931 . S
H1093 C1081 0.929 . S
H1094 C1082 0.960 . S
H1095 C1082 0.962 . S
H1096 C1082 0.960 . S
H1097 C1083 0.961 . S
H1098 C1083 0.961 . S
H1099 C1083 0.961 . S
H1100 C1084 0.931 . S
H1101 C1089 0.930 . S
H1102 C1090 0.956 . S
H1103 C1090 0.961 . S
H1104 C1090 0.961 . S
H1105 C1091 0.958 . S
H1106 C1091 0.961 . S
H1107 C1091 0.960 . S
C341 C29 1.566 . S
C349 C259 1.458 . S
C373 C49 1.474 . S
C381 C293 1.361 1_565 S
C413 C305 1.436 . S
C405 C93 1.492 . S
C437 C119 1.442 . S
C445 C339 1.349 . S
C477 C296 1.410 . S
C469 C17 1.463 . S
C509 C276 1.446 . S
C501 C61 1.513 . S
C541 C323 1.387 . S
C533 C81 1.435 . S
C573 C314 1.453 . S
C565 C125 1.490 . S
C597 C23 1.457 . S
C605 C322 1.407 . S
C637 C284 1.386 . S
C629 C87 1.432 . S
C661 C113 1.497 . S
C669 C260 1.446 . S
C693 C55 1.499 . S
C701 C317 1.415 . S
C733 C275 1.553 . S
C725 C157 1.671 . S
C757 C189 1.561 . S
C765 C297 1.549 . S
C789 C221 1.707 . S
C797 C302 1.553 . S
C821 C253 1.512 . S
C829 C335 1.598 . S
C853 C145 1.736 . S
C861 C280 1.624 . S
C893 C272 1.568 . S
C885 C183 1.544 . S
C925 C326 1.568 . S
C917 C209 1.710 . S
C957 C318 1.526 . S
C949 C247 1.553 . S
C981 C151 1.675 . S
C989 C338 1.571 . S
C1021 C281 1.554 . S
C1013 C215 1.707 . S
C1053 C263 1.563 . S
C1045 C241 1.610 . S
C1077 C177 1.568 . S
C1085 C301 1.584 . S
