# Generated by pormake.
# Topology eea, (3,6)-cn, num edge types: 1
# Building blocks:
#     Node 0, Type 0, BuildingBlock: BETDIP_clean_linker_0, # of connection points: 3
#     Node 1, Type 0, BuildingBlock: BETDIP_clean_linker_0, # of connection points: 3
#     Node 2, Type 0, BuildingBlock: BETDIP_clean_linker_0, # of connection points: 3
#     Node 3, Type 0, BuildingBlock: BETDIP_clean_linker_0, # of connection points: 3
#     Node 4, Type 0, BuildingBlock: BETDIP_clean_linker_0, # of connection points: 3
#     Node 5, Type 0, BuildingBlock: BETDIP_clean_linker_0, # of connection points: 3
#     Node 6, Type 0, BuildingBlock: BETDIP_clean_linker_0, # of connection points: 3
#     Node 7, Type 0, BuildingBlock: BETDIP_clean_linker_0, # of connection points: 3
#     Node 8, Type 0, BuildingBlock: BETDIP_clean_linker_0, # of connection points: 3
#     Node 9, Type 0, BuildingBlock: BETDIP_clean_linker_0, # of connection points: 3
#     Node 10, Type 0, BuildingBlock: BETDIP_clean_linker_0, # of connection points: 3
#     Node 11, Type 0, BuildingBlock: BETDIP_clean_linker_0, # of connection points: 3
#     Node 12, Type 0, BuildingBlock: BETDIP_clean_linker_0, # of connection points: 3
#     Node 13, Type 0, BuildingBlock: BETDIP_clean_linker_0, # of connection points: 3
#     Node 14, Type 0, BuildingBlock: BETDIP_clean_linker_0, # of connection points: 3
#     Node 15, Type 0, BuildingBlock: BETDIP_clean_linker_0, # of connection points: 3
#     Node 16, Type 0, BuildingBlock: BETDIP_clean_linker_0, # of connection points: 3
#     Node 17, Type 0, BuildingBlock: BETDIP_clean_linker_0, # of connection points: 3
#     Node 18, Type 1, BuildingBlock: CUWYAW_clean_sbu_0, # of connection points: 6
#     Node 19, Type 1, BuildingBlock: CUWYAW_clean_sbu_0, # of connection points: 6
#     Node 20, Type 1, BuildingBlock: CUWYAW_clean_sbu_0, # of connection points: 6
#     Node 21, Type 1, BuildingBlock: CUWYAW_clean_sbu_0, # of connection points: 6
#     Node 22, Type 1, BuildingBlock: CUWYAW_clean_sbu_0, # of connection points: 6
#     Node 23, Type 1, BuildingBlock: CUWYAW_clean_sbu_0, # of connection points: 6
#     Node 24, Type 1, BuildingBlock: CUWYAW_clean_sbu_0, # of connection points: 6
#     Node 25, Type 1, BuildingBlock: CUWYAW_clean_sbu_0, # of connection points: 6
#     Node 26, Type 1, BuildingBlock: CUWYAW_clean_sbu_0, # of connection points: 6
#     Edge 27, Type (0, 1), BuildingBlock: XIVTED_clean_linker_0, # of connection points: 2
#     Edge 28, Type (0, 1), BuildingBlock: XIVTED_clean_linker_0, # of connection points: 2
#     Edge 29, Type (0, 1), BuildingBlock: XIVTED_clean_linker_0, # of connection points: 2
#     Edge 30, Type (0, 1), BuildingBlock: XIVTED_clean_linker_0, # of connection points: 2
#     Edge 31, Type (0, 1), BuildingBlock: XIVTED_clean_linker_0, # of connection points: 2
#     Edge 32, Type (0, 1), BuildingBlock: XIVTED_clean_linker_0, # of connection points: 2
#     Edge 33, Type (0, 1), BuildingBlock: XIVTED_clean_linker_0, # of connection points: 2
#     Edge 34, Type (0, 1), BuildingBlock: XIVTED_clean_linker_0, # of connection points: 2
#     Edge 35, Type (0, 1), BuildingBlock: XIVTED_clean_linker_0, # of connection points: 2
#     Edge 36, Type (0, 1), BuildingBlock: XIVTED_clean_linker_0, # of connection points: 2
#     Edge 37, Type (0, 1), BuildingBlock: XIVTED_clean_linker_0, # of connection points: 2
#     Edge 38, Type (0, 1), BuildingBlock: XIVTED_clean_linker_0, # of connection points: 2
#     Edge 39, Type (0, 1), BuildingBlock: XIVTED_clean_linker_0, # of connection points: 2
#     Edge 40, Type (0, 1), BuildingBlock: XIVTED_clean_linker_0, # of connection points: 2
#     Edge 41, Type (0, 1), BuildingBlock: XIVTED_clean_linker_0, # of connection points: 2
#     Edge 42, Type (0, 1), BuildingBlock: XIVTED_clean_linker_0, # of connection points: 2
#     Edge 43, Type (0, 1), BuildingBlock: XIVTED_clean_linker_0, # of connection points: 2
#     Edge 44, Type (0, 1), BuildingBlock: XIVTED_clean_linker_0, # of connection points: 2
#     Edge 45, Type (0, 1), BuildingBlock: XIVTED_clean_linker_0, # of connection points: 2
#     Edge 46, Type (0, 1), BuildingBlock: XIVTED_clean_linker_0, # of connection points: 2
#     Edge 47, Type (0, 1), BuildingBlock: XIVTED_clean_linker_0, # of connection points: 2
#     Edge 48, Type (0, 1), BuildingBlock: XIVTED_clean_linker_0, # of connection points: 2
#     Edge 49, Type (0, 1), BuildingBlock: XIVTED_clean_linker_0, # of connection points: 2
#     Edge 50, Type (0, 1), BuildingBlock: XIVTED_clean_linker_0, # of connection points: 2
#     Edge 51, Type (0, 1), BuildingBlock: XIVTED_clean_linker_0, # of connection points: 2
#     Edge 52, Type (0, 1), BuildingBlock: XIVTED_clean_linker_0, # of connection points: 2
#     Edge 53, Type (0, 1), BuildingBlock: XIVTED_clean_linker_0, # of connection points: 2
#     Edge 54, Type (0, 1), BuildingBlock: XIVTED_clean_linker_0, # of connection points: 2
#     Edge 55, Type (0, 1), BuildingBlock: XIVTED_clean_linker_0, # of connection points: 2
#     Edge 56, Type (0, 1), BuildingBlock: XIVTED_clean_linker_0, # of connection points: 2
#     Edge 57, Type (0, 1), BuildingBlock: XIVTED_clean_linker_0, # of connection points: 2
#     Edge 58, Type (0, 1), BuildingBlock: XIVTED_clean_linker_0, # of connection points: 2
#     Edge 59, Type (0, 1), BuildingBlock: XIVTED_clean_linker_0, # of connection points: 2
#     Edge 60, Type (0, 1), BuildingBlock: XIVTED_clean_linker_0, # of connection points: 2
#     Edge 61, Type (0, 1), BuildingBlock: XIVTED_clean_linker_0, # of connection points: 2
#     Edge 62, Type (0, 1), BuildingBlock: XIVTED_clean_linker_0, # of connection points: 2
#     Edge 63, Type (0, 1), BuildingBlock: XIVTED_clean_linker_0, # of connection points: 2
#     Edge 64, Type (0, 1), BuildingBlock: XIVTED_clean_linker_0, # of connection points: 2
#     Edge 65, Type (0, 1), BuildingBlock: XIVTED_clean_linker_0, # of connection points: 2
#     Edge 66, Type (0, 1), BuildingBlock: XIVTED_clean_linker_0, # of connection points: 2
#     Edge 67, Type (0, 1), BuildingBlock: XIVTED_clean_linker_0, # of connection points: 2
#     Edge 68, Type (0, 1), BuildingBlock: XIVTED_clean_linker_0, # of connection points: 2
#     Edge 69, Type (0, 1), BuildingBlock: XIVTED_clean_linker_0, # of connection points: 2
#     Edge 70, Type (0, 1), BuildingBlock: XIVTED_clean_linker_0, # of connection points: 2
#     Edge 71, Type (0, 1), BuildingBlock: XIVTED_clean_linker_0, # of connection points: 2
#     Edge 72, Type (0, 1), BuildingBlock: XIVTED_clean_linker_0, # of connection points: 2
#     Edge 73, Type (0, 1), BuildingBlock: XIVTED_clean_linker_0, # of connection points: 2
#     Edge 74, Type (0, 1), BuildingBlock: XIVTED_clean_linker_0, # of connection points: 2
#     Edge 75, Type (0, 1), BuildingBlock: XIVTED_clean_linker_0, # of connection points: 2
#     Edge 76, Type (0, 1), BuildingBlock: XIVTED_clean_linker_0, # of connection points: 2
#     Edge 77, Type (0, 1), BuildingBlock: XIVTED_clean_linker_0, # of connection points: 2
#     Edge 78, Type (0, 1), BuildingBlock: XIVTED_clean_linker_0, # of connection points: 2
#     Edge 79, Type (0, 1), BuildingBlock: XIVTED_clean_linker_0, # of connection points: 2
#     Edge 80, Type (0, 1), BuildingBlock: XIVTED_clean_linker_0, # of connection points: 2
# Relax obj value: 0.060
# Max RMSD: 0.209
# Mean RMSD: 0.146
data_MOF--net-eea--node1-CUWYAW_clean_sbu_0--node2-BETDIP_clean_linker_0--edge1-XIVTED_clean_linker_0
_symmetry_space_group_name_H-M    P1
_symmetry_Int_Tables_number       1
_symmetry_cell_setting            triclinic
loop_
_symmetry_equiv_pos_as_xyz
'x, y, z'
_cell_length_a     55.047092
_cell_length_b     54.616166
_cell_length_c     70.439803
_cell_angle_alpha  93.441867
_cell_angle_beta   93.4685
_cell_angle_gamma 119.92149
loop_
_atom_site_label
_atom_site_type_symbol
_atom_site_fract_x
_atom_site_fract_y
_atom_site_fract_z
_atom_type_partial_charge
H0 H 0.21964 0.1036 0.3733 0.0
H1 H 0.2585 0.16405 0.423 0.0
H2 H 0.26303 0.08791 0.41983 0.0
H3 H 0.26422 0.19512 0.40106 0.0
C4 C 0.24392 0.18378 0.39248 0.0
C5 C 0.2321 0.11003 0.38706 0.0
C6 C 0.24053 0.09211 0.39518 0.0
C7 C 0.23937 0.13639 0.39665 0.0
C8 C 0.25394 0.14437 0.41508 0.0
C9 C 0.26217 0.12672 0.4236 0.0
C10 C 0.2561 0.10113 0.41334 0.0
N11 N 0.23068 0.15389 0.38779 0.0
H12 H 0.91044 0.13376 0.37967 0.0
H13 H 0.85671 0.1057 0.4246 0.0
H14 H 0.93617 0.18339 0.43482 0.0
H15 H 0.82298 0.08606 0.39861 0.0
C16 C 0.83268 0.07673 0.39006 0.0
C17 C 0.90683 0.13712 0.39429 0.0
C18 C 0.92702 0.16128 0.40641 0.0
C19 C 0.88135 0.11731 0.40062 0.0
C20 C 0.87586 0.12152 0.41935 0.0
C21 C 0.8953 0.14555 0.43166 0.0
C22 C 0.92099 0.16514 0.42519 0.0
N23 N 0.86201 0.09277 0.38813 0.0
H24 H 0.88353 0.78372 0.38858 0.0
H25 H 0.91652 0.76781 0.44025 0.0
H26 H 0.83827 0.76705 0.43853 0.0
H27 H 0.95768 0.79911 0.43 0.0
C28 C 0.95456 0.79327 0.41466 0.0
C29 C 0.88153 0.7791 0.40333 0.0
C30 C 0.85782 0.77543 0.41218 0.0
C31 C 0.90322 0.77739 0.41352 0.0
C32 C 0.90045 0.77026 0.43244 0.0
C33 C 0.87697 0.76642 0.44147 0.0
C34 C 0.85605 0.76943 0.43134 0.0
N35 N 0.92769 0.78325 0.40446 0.0
H36 H 0.0862 0.2121 0.6222 0.0
H37 H 0.13625 0.23359 0.57496 0.0
H38 H 0.06532 0.24643 0.57443 0.0
H39 H 0.1362 0.19227 0.58269 0.0
C40 C 0.14261 0.19887 0.59789 0.0
C41 C 0.0905 0.22055 0.60848 0.0
C42 C 0.07307 0.22939 0.59949 0.0
C43 C 0.11268 0.22113 0.59941 0.0
C44 C 0.11826 0.23183 0.58158 0.0
C45 C 0.10127 0.24093 0.57241 0.0
C46 C 0.07869 0.23965 0.58147 0.0
N47 N 0.12925 0.21098 0.60842 0.0
H48 H 0.78323 0.8774 0.64632 0.0
H49 H 0.75824 0.90642 0.59792 0.0
H50 H 0.75189 0.82482 0.59219 0.0
H51 H 0.74363 0.92546 0.62259 0.0
C52 C 0.76334 0.93511 0.63183 0.0
C53 C 0.77438 0.87325 0.63156 0.0
C54 C 0.76763 0.84782 0.62049 0.0
C55 C 0.77003 0.89387 0.62371 0.0
C56 C 0.7605 0.89 0.60426 0.0
C57 C 0.75458 0.86542 0.59274 0.0
C58 C 0.75728 0.84405 0.60107 0.0
N59 N 0.7767 0.91903 0.63537 0.0
H60 H 0.123 0.90742 0.63363 0.0
H61 H 0.09754 0.85382 0.58054 0.0
H62 H 0.17747 0.93128 0.58852 0.0
H63 H 0.05401 0.84095 0.58854 0.0
C64 C 0.0556 0.84093 0.60397 0.0
C65 C 0.12734 0.90329 0.61935 0.0
C66 C 0.15299 0.92235 0.6126 0.0
C67 C 0.10692 0.87895 0.60779 0.0
C68 C 0.11259 0.87308 0.58936 0.0
C69 C 0.13824 0.8917 0.58244 0.0
C70 C 0.15819 0.9163 0.59412 0.0
N71 N 0.08116 0.86067 0.61527 0.0
H72 H 0.89475 0.4413 0.70323 0.0
H73 H 0.92689 0.49826 0.755 0.0
H74 H 0.92689 0.41956 0.75271 0.0
H75 H 0.93343 0.53098 0.7344 0.0
C76 C 0.91459 0.51964 0.72434 0.0
C77 C 0.90433 0.44639 0.71788 0.0
C78 C 0.91049 0.42737 0.72662 0.0
C79 C 0.91064 0.4722 0.72782 0.0
C80 C 0.92273 0.47883 0.74694 0.0
C81 C 0.92899 0.46007 0.75591 0.0
C82 C 0.923 0.43453 0.74561 0.0
N83 N 0.90322 0.49028 0.71849 0.0
H84 H 0.57944 0.46501 0.71284 0.0
H85 H 0.52588 0.4365 0.75786 0.0
H86 H 0.60493 0.51464 0.76797 0.0
H87 H 0.4922 0.41829 0.7314 0.0
C88 C 0.50161 0.40839 0.72308 0.0
C89 C 0.57584 0.46829 0.72747 0.0
C90 C 0.59588 0.49257 0.73957 0.0
C91 C 0.55044 0.44833 0.73385 0.0
C92 C 0.54496 0.45245 0.75261 0.0
C93 C 0.5643 0.47656 0.7649 0.0
C94 C 0.58985 0.4963 0.75836 0.0
N95 N 0.53104 0.4238 0.72136 0.0
H96 H 0.55661 0.13143 0.72646 0.0
H97 H 0.58198 0.0969 0.77181 0.0
H98 H 0.49903 0.08649 0.76709 0.0
H99 H 0.62551 0.1342 0.76757 0.0
C100 C 0.6244 0.1328 0.75206 0.0
C101 C 0.55193 0.11987 0.73898 0.0
C102 C 0.52529 0.10899 0.74557 0.0
C103 C 0.57264 0.11596 0.74848 0.0
C104 C 0.56646 0.10083 0.7647 0.0
C105 C 0.5399 0.09001 0.77152 0.0
C106 C 0.51938 0.09406 0.76175 0.0
N107 N 0.59914 0.1267 0.74108 0.0
H108 H 0.75703 0.55189 0.95698 0.0
H109 H 0.8077 0.57807 0.91037 0.0
H110 H 0.73421 0.5863 0.90992 0.0
H111 H 0.81047 0.53824 0.91666 0.0
C112 C 0.81531 0.54276 0.9321 0.0
C113 C 0.76052 0.56041 0.94328 0.0
C114 C 0.74212 0.56843 0.93461 0.0
C115 C 0.78346 0.56283 0.93428 0.0
C116 C 0.78942 0.57529 0.91707 0.0
C117 C 0.77203 0.58431 0.90843 0.0
C118 C 0.74806 0.58018 0.91701 0.0
N119 N 0.80048 0.55287 0.94287 0.0
H120 H 0.4515 0.21183 0.97672 0.0
H121 H 0.41624 0.23255 0.92887 0.0
H122 H 0.40865 0.15045 0.92712 0.0
H123 H 0.40642 0.25549 0.95372 0.0
C124 C 0.42727 0.26624 0.96159 0.0
C125 C 0.43961 0.20526 0.96275 0.0
C126 C 0.43092 0.17828 0.95315 0.0
C127 C 0.43316 0.22426 0.95446 0.0
C128 C 0.41945 0.2171 0.93585 0.0
C129 C 0.4111 0.19073 0.92578 0.0
C130 C 0.41631 0.17122 0.93467 0.0
N131 N 0.44158 0.25095 0.96474 0.0
H132 H 0.78629 0.24613 0.96364 0.0
H133 H 0.76067 0.18692 0.91341 0.0
H134 H 0.84432 0.25884 0.92164 0.0
H135 H 0.71747 0.17874 0.9197 0.0
C136 C 0.71855 0.17888 0.93516 0.0
C137 C 0.79145 0.23951 0.95042 0.0
C138 C 0.81827 0.25605 0.94413 0.0
C139 C 0.7705 0.21474 0.93945 0.0
C140 C 0.77639 0.20626 0.92188 0.0
C141 C 0.80294 0.22234 0.91532 0.0
C142 C 0.8238 0.24678 0.92668 0.0
N143 N 0.74396 0.19855 0.94665 0.0
H144 H 0.55393 0.77117 0.03831 0.0
H145 H 0.59216 0.83338 0.08713 0.0
H146 H 0.59631 0.7571 0.08634 0.0
H147 H 0.59875 0.86353 0.06426 0.0
C148 C 0.57857 0.85203 0.05555 0.0
C149 C 0.56616 0.77807 0.05217 0.0
C150 C 0.57432 0.76042 0.06102 0.0
C151 C 0.57341 0.80479 0.06114 0.0
C152 C 0.58764 0.81342 0.07969 0.0
C153 C 0.59558 0.79605 0.08892 0.0
C154 C 0.58958 0.77008 0.07928 0.0
N155 N 0.56508 0.82201 0.05153 0.0
H156 H 0.24576 0.79514 0.04526 0.0
H157 H 0.19442 0.76622 0.09156 0.0
H158 H 0.27251 0.84575 0.09993 0.0
H159 H 0.1595 0.74742 0.06601 0.0
C160 C 0.16858 0.73789 0.057 0.0
C161 C 0.24221 0.79862 0.05989 0.0
C162 C 0.26221 0.82324 0.07164 0.0
C163 C 0.21752 0.77828 0.06684 0.0
C164 C 0.21318 0.78214 0.08597 0.0
C165 C 0.23297 0.80632 0.09806 0.0
C166 C 0.25731 0.82691 0.09073 0.0
N167 N 0.19777 0.75364 0.05457 0.0
H168 H 0.22353 0.46304 0.05918 0.0
H169 H 0.24932 0.43603 0.1089 0.0
H170 H 0.16886 0.43125 0.10362 0.0
H171 H 0.29257 0.46635 0.10117 0.0
C172 C 0.2906 0.46378 0.08565 0.0
C173 C 0.21936 0.45449 0.07287 0.0
C174 C 0.19383 0.44742 0.08024 0.0
C175 C 0.23966 0.45069 0.08312 0.0
C176 C 0.23408 0.43948 0.1009 0.0
C177 C 0.20874 0.43281 0.10853 0.0
C178 C 0.18862 0.43658 0.09798 0.0
N179 N 0.26517 0.45796 0.07503 0.0
H180 H 0.42459 0.88729 0.2895 0.0
H181 H 0.46848 0.90096 0.23961 0.0
H182 H 0.39462 0.90858 0.23846 0.0
H183 H 0.47108 0.86248 0.2496 0.0
C184 C 0.47809 0.87024 0.26462 0.0
C185 C 0.42611 0.89215 0.27479 0.0
C186 C 0.40661 0.89813 0.26535 0.0
C187 C 0.44751 0.89178 0.26528 0.0
C188 C 0.45085 0.89946 0.24657 0.0
C189 C 0.43211 0.906 0.23694 0.0
C190 C 0.40981 0.90487 0.2463 0.0
N191 N 0.46546 0.88357 0.27471 0.0
H192 H 0.12371 0.55024 0.30973 0.0
H193 H 0.09059 0.57316 0.26187 0.0
H194 H 0.08346 0.49118 0.25885 0.0
H195 H 0.07902 0.59433 0.28683 0.0
C196 C 0.09946 0.60493 0.29525 0.0
C197 C 0.11257 0.54439 0.29553 0.0
C198 C 0.10454 0.51793 0.28539 0.0
C199 C 0.10636 0.56372 0.28747 0.0
C200 C 0.09357 0.55741 0.26861 0.0
C201 C 0.08581 0.53152 0.25807 0.0
C202 C 0.09073 0.51166 0.26672 0.0
N203 N 0.11401 0.58984 0.29829 0.0
H204 H 0.45385 0.57803 0.29963 0.0
H205 H 0.42659 0.52329 0.24694 0.0
H206 H 0.50828 0.59781 0.2544 0.0
H207 H 0.38395 0.51156 0.25562 0.0
C208 C 0.38594 0.51115 0.27101 0.0
C209 C 0.45827 0.57308 0.28559 0.0
C210 C 0.48396 0.59158 0.27853 0.0
C211 C 0.4374 0.54851 0.27437 0.0
C212 C 0.44231 0.54217 0.25581 0.0
C213 C 0.46756 0.56052 0.24845 0.0
C214 C 0.48841 0.58461 0.26001 0.0
N215 N 0.41174 0.53071 0.28215 0.0
C216 C 0.52696 0.02066 0.06183 0.0
Eu217 Eu 0.50675 0.01688 0.02672 0.0
C218 C 0.51479 0.00859 0.07929 0.0
C219 C 0.48702 1.00122 0.08212 0.0
C220 C 0.47539 0.98886 0.09852 0.0
C221 C 0.49128 0.98344 0.11223 0.0
C222 C 0.51907 0.99084 0.10929 0.0
C223 C 0.53073 0.00335 0.09295 0.0
C224 C 0.48733 0.04953 0.01274 0.0
C225 C 0.43952 0.96864 0.02091 0.0
C226 C 0.4552 0.98905 0.95153 0.0
Eu227 Eu 0.47597 0.99561 0.98692 0.0
C228 C 0.46592 0.99732 0.93295 0.0
C229 C 0.45412 0.9772 0.91687 0.0
C230 C 0.46358 0.98464 0.899 0.0
C231 C 0.48497 0.01245 0.89687 0.0
C232 C 0.49705 0.03246 0.91313 0.0
C233 C 0.48767 0.02495 0.93101 0.0
C234 C 0.49626 0.96383 0.00145 0.0
C235 C 0.54314 0.04448 0.99265 0.0
O236 O 0.52556 0.00248 0.04823 0.0
O237 O 0.52077 0.03908 0.05542 0.0
O238 O 0.51096 0.05956 0.02347 0.0
O239 O 0.47416 0.02269 0.0107 0.0
O240 O 0.4639 0.97996 0.03169 0.0
O241 O 0.43809 0.97486 0.00321 0.0
O242 O 0.45866 0.0094 0.96413 0.0
O243 O 0.46015 0.9705 0.95908 0.0
O244 O 0.47206 0.95308 0.99135 0.0
O245 O 0.50892 0.99054 0.00277 0.0
O246 O 0.51887 0.03224 0.98163 0.0
O247 O 0.54461 0.03912 0.01058 0.0
H248 H 0.47425 0.00481 0.07159 0.0
H249 H 0.45383 0.98308 0.10032 0.0
H250 H 0.53189 0.98717 0.11971 0.0
H251 H 0.55214 0.00878 0.09092 0.0
H252 H 0.43747 0.95571 0.91812 0.0
H253 H 0.45414 0.96857 0.88687 0.0
H254 H 0.51329 0.05415 0.91199 0.0
H255 H 0.49721 0.04085 0.94325 0.0
C256 C 0.00259 0.5242 0.06045 0.0
Eu257 Eu 0.99735 0.50005 0.02623 0.0
C258 C 0.00963 0.52168 0.08049 0.0
C259 C 0.9907 0.51862 0.09386 0.0
C260 C 0.99702 0.51701 0.11307 0.0
C261 C 0.0226 0.51869 0.11938 0.0
C262 C 0.04141 0.52138 0.10588 0.0
C263 C 0.03497 0.52279 0.0866 0.0
C264 C 0.96122 0.44449 0.01403 0.0
C265 C 0.04151 0.47719 0.02244 0.0
C266 C 0.00121 0.45705 0.95279 0.0
Eu267 Eu 0.00595 0.48091 0.98704 0.0
C268 C 0.99641 0.46143 0.93291 0.0
C269 C 0.99044 0.4827 0.92849 0.0
C270 C 0.98583 0.48641 0.9094 0.0
C271 C 0.9872 0.46893 0.89448 0.0
C272 C 0.99323 0.44767 0.89911 0.0
C273 C 0.99781 0.444 0.91816 0.0
C274 C 0.04163 0.53655 -0.00049 0.0
C275 C 0.96132 0.50341 0.99063 0.0
O276 O 0.02287 0.53345 0.04925 0.0
O277 O 0.97869 0.50347 0.05195 0.0
O278 O 0.95452 0.46004 0.02454 0.0
O279 O 0.98701 0.45811 0.01175 0.0
O280 O 0.03533 0.49444 0.03225 0.0
O281 O 0.02824 0.46443 0.00543 0.0
O282 O 0.98003 0.44967 0.96303 0.0
O283 O 0.02532 0.47607 0.96211 0.0
O284 O 0.04891 0.52119 0.98933 0.0
O285 O 0.01576 0.52262 0.00137 0.0
O286 O 0.96865 0.48734 0.98056 0.0
O287 O 0.97331 0.51503 0.00811 0.0
H288 H 0.97099 0.51762 0.08944 0.0
H289 H 0.9818 0.51442 0.12297 0.0
H290 H 0.06143 0.52305 0.11025 0.0
H291 H 0.04995 0.52506 0.07657 0.0
H292 H 0.98934 0.49637 0.93979 0.0
H293 H 0.98145 0.5031 0.90631 0.0
H294 H 0.99394 0.43352 0.888 0.0
H295 H 0.00231 0.42742 0.92138 0.0
C296 C 0.47865 0.49186 0.95151 0.0
Eu297 Eu 0.49908 0.51159 0.98694 0.0
C298 C 0.48941 0.4929 0.93275 0.0
C299 C 0.47539 0.49629 0.91677 0.0
C300 C 0.48463 0.49655 0.89871 0.0
C301 C 0.50803 0.49319 0.89622 0.0
C302 C 0.52241 0.49036 0.9124 0.0
C303 C 0.51325 0.49031 0.9305 0.0
C304 C 0.51687 0.56452 0.00322 0.0
C305 C 0.56707 0.53435 0.99206 0.0
C306 C 0.54999 0.54089 0.06239 0.0
Eu307 Eu 0.53014 0.52463 0.02652 0.0
C308 C 0.53864 0.54153 0.08067 0.0
C309 C 0.54862 0.53419 0.09687 0.0
C310 C 0.53791 0.53423 0.11434 0.0
C311 C 0.51706 0.54173 0.11592 0.0
C312 C 0.50695 0.54891 0.09961 0.0
C313 C 0.51759 0.54873 0.08211 0.0
C314 C 0.51165 0.47181 0.00945 0.0
C315 C 0.46291 0.5037 0.0217 0.0
O316 O 0.48374 0.47753 0.96381 0.0
O317 O 0.48171 0.51565 0.9594 0.0
O318 O 0.49347 0.54944 0.99221 0.0
O319 O 0.53078 0.55184 0.00428 0.0
O320 O 0.54309 0.52171 0.98075 0.0
O321 O 0.56823 0.54081 0.01055 0.0
O322 O 0.54987 0.55805 0.05025 0.0
O323 O 0.54232 0.51568 0.05414 0.0
O324 O 0.53581 0.48691 0.01961 0.0
O325 O 0.49807 0.48476 0.00932 0.0
O326 O 0.48734 0.51815 0.03242 0.0
O327 O 0.46134 0.49497 0.00355 0.0
H328 H 0.45712 0.4986 0.91824 0.0
H329 H 0.47339 0.4994 0.88669 0.0
H330 H 0.54034 0.48748 0.91103 0.0
H331 H 0.52459 0.48788 0.94267 0.0
H332 H 0.56479 0.52848 0.09601 0.0
H333 H 0.54635 0.52893 0.1267 0.0
H334 H 0.49068 0.55449 0.10035 0.0
H335 H 0.50935 0.5542 0.06974 0.0
C336 C 0.19256 0.35962 0.39714 0.0
Eu337 Eu 0.17256 0.35223 0.36151 0.0
C338 C 0.18142 0.348 0.41498 0.0
C339 C 0.15395 0.34072 0.41868 0.0
C340 C 0.14349 0.32886 0.43548 0.0
C341 C 0.16024 0.32381 0.44871 0.0
C342 C 0.18774 0.33118 0.44494 0.0
C343 C 0.19823 0.34322 0.42822 0.0
C344 C 0.15633 0.38499 0.34387 0.0
C345 C 0.10524 0.30366 0.35552 0.0
C346 C 0.12475 0.31646 0.28551 0.0
Eu347 Eu 0.14332 0.32722 0.32169 0.0
C348 C 0.13438 0.3302 0.26804 0.0
C349 C 0.12631 0.31342 0.25047 0.0
C350 C 0.1363 0.32587 0.23377 0.0
C351 C 0.15454 0.35536 0.23438 0.0
C352 C 0.16249 0.37216 0.25206 0.0
C353 C 0.15256 0.35966 0.26878 0.0
C354 C 0.16111 0.29603 0.34011 0.0
C355 C 0.20955 0.37702 0.32743 0.0
O356 O 0.19348 0.3419 0.38428 0.0
O357 O 0.18378 0.37561 0.38977 0.0
O358 O 0.17905 0.39491 0.35557 0.0
O359 O 0.14198 0.35814 0.34284 0.0
O360 O 0.12886 0.31761 0.36717 0.0
O361 O 0.10464 0.306 0.337 0.0
O362 O 0.11713 0.32924 0.29809 0.0
O363 O 0.14001 0.30685 0.29335 0.0
O364 O 0.13734 0.28506 0.32946 0.0
O365 O 0.17465 0.32261 0.34002 0.0
O366 O 0.18528 0.36495 0.31648 0.0
O367 O 0.21083 0.37227 0.34551 0.0
H368 H 0.14051 0.34399 0.40852 0.0
H369 H 0.12213 0.3231 0.43793 0.0
H370 H 0.20121 0.32779 0.45498 0.0
H371 H 0.21944 0.34862 0.42556 0.0
H372 H 0.1124 0.29063 0.24968 0.0
H373 H 0.12952 0.31243 0.22034 0.0
H374 H 0.17675 0.39489 0.25301 0.0
H375 H 0.15925 0.37293 0.28228 0.0
C376 C 0.66991 0.85799 0.39558 0.0
Eu377 Eu 0.66424 0.83431 0.36115 0.0
C378 C 0.67953 0.85685 0.4152 0.0
C379 C 0.68233 0.83385 0.42028 0.0
C380 C 0.69122 0.83319 0.43919 0.0
C381 C 0.69763 0.85563 0.45319 0.0
C382 C 0.69486 0.87862 0.44791 0.0
C383 C 0.68588 0.87919 0.42908 0.0
C384 C 0.62885 0.77958 0.34729 0.0
C385 C 0.70909 0.81212 0.3561 0.0
C386 C 0.67084 0.79827 0.28611 0.0
Eu387 Eu 0.67425 0.81858 0.32122 0.0
C388 C 0.66576 0.8036 0.26635 0.0
C389 C 0.68753 0.81252 0.25441 0.0
C390 C 0.68291 0.8163 0.23538 0.0
C391 C 0.6563 0.81096 0.22779 0.0
C392 C 0.63462 0.80247 0.23986 0.0
C393 C 0.63929 0.79885 0.25896 0.0
C394 C 0.70852 0.87367 0.33545 0.0
C395 C 0.62763 0.83828 0.32604 0.0
O396 O 0.68933 0.86855 0.3838 0.0
O397 O 0.64665 0.83558 0.38776 0.0
O398 O 0.6218 0.79407 0.3586 0.0
O399 O 0.65473 0.79364 0.34511 0.0
O400 O 0.70077 0.8264 0.36719 0.0
O401 O 0.69835 0.80272 0.33816 0.0
O402 O 0.64961 0.78826 0.29649 0.0
O403 O 0.69454 0.81738 0.29585 0.0
O404 O 0.71658 0.85961 0.32465 0.0
O405 O 0.68264 0.85882 0.337 0.0
O406 O 0.63637 0.8241 0.3153 0.0
O407 O 0.63858 0.84844 0.3439 0.0
H408 H 0.67764 0.81648 0.40965 0.0
H409 H 0.69341 0.81534 0.44281 0.0
H410 H 0.69927 0.89603 0.4584 0.0
H411 H 0.68377 0.89706 0.42536 0.0
H412 H 0.70811 0.81628 0.25976 0.0
H413 H 0.70021 0.82328 0.22659 0.0
H414 H 0.61376 0.79779 0.23444 0.0
H415 H 0.62203 0.79186 0.26778 0.0
C416 C 0.14624 0.82057 0.28408 0.0
Eu417 Eu 0.16668 0.84523 0.31871 0.0
C418 C 0.15711 0.82052 0.26554 0.0
C419 C 0.18351 0.84261 0.26183 0.0
C420 C 0.1937 0.84188 0.2442 0.0
C421 C 0.17771 0.81893 0.23005 0.0
C422 C 0.15126 0.7969 0.23391 0.0
C423 C 0.14109 0.79771 0.25149 0.0
C424 C 0.18503 0.89976 0.33167 0.0
C425 C 0.23494 0.86989 0.3246 0.0
C426 C 0.21905 0.88683 0.39387 0.0
Eu427 Eu 0.19834 0.86376 0.35891 0.0
C428 C 0.20936 0.8842 0.41299 0.0
C429 C 0.18195 0.8634 0.41599 0.0
C430 C 0.17311 0.86138 0.43434 0.0
C431 C 0.19161 0.88007 0.44997 0.0
C432 C 0.21902 0.90089 0.44677 0.0
C433 C 0.22778 0.90291 0.42845 0.0
C434 C 0.17912 0.80898 0.34564 0.0
C435 C 0.13033 0.8402 0.35323 0.0
O436 O 0.15376 0.80923 0.29738 0.0
O437 O 0.14728 0.84408 0.29055 0.0
O438 O 0.16177 0.88393 0.32064 0.0
O439 O 0.19849 0.88689 0.33424 0.0
O440 O 0.21087 0.85477 0.31352 0.0
O441 O 0.23602 0.87949 0.34245 0.0
O442 O 0.20839 0.89708 0.38176 0.0
O443 O 0.22039 0.86526 0.38609 0.0
O444 O 0.20263 0.8245 0.35643 0.0
O445 O 0.16618 0.82235 0.34353 0.0
O446 O 0.15463 0.85525 0.36406 0.0
O447 O 0.12896 0.83041 0.33534 0.0
H448 H 0.19626 0.86033 0.2726 0.0
H449 H 0.21426 0.85902 0.24175 0.0
H450 H 0.13826 0.77912 0.22325 0.0
H451 H 0.12068 0.78047 0.25414 0.0
H452 H 0.16748 0.84874 0.40416 0.0
H453 H 0.15195 0.84497 0.43633 0.0
H454 H 0.23364 0.91594 0.45839 0.0
H455 H 0.24896 0.91919 0.42633 0.0
C456 C 0.86063 0.69141 0.72991 0.0
Eu457 Eu 0.84036 0.68479 0.69442 0.0
C458 C 0.84962 0.68213 0.74823 0.0
C459 C 0.86316 0.7004 0.76502 0.0
C460 C 0.85352 0.69182 0.78267 0.0
C461 C 0.8302 0.66468 0.78385 0.0
C462 C 0.8163 0.64664 0.76688 0.0
C463 C 0.82588 0.65532 0.74921 0.0
C464 C 0.82121 0.71643 0.67848 0.0
C465 C 0.77345 0.6349 0.688 0.0
C466 C 0.7921 0.65376 0.61849 0.0
Eu467 Eu 0.8111 0.66142 0.65438 0.0
C468 C 0.80377 0.66662 0.60109 0.0
C469 C 0.832 0.67603 0.59825 0.0
C470 C 0.84288 0.68876 0.58179 0.0
C471 C 0.82576 0.69248 0.56802 0.0
C472 C 0.79755 0.68312 0.57099 0.0
C473 C 0.78665 0.67027 0.58739 0.0
C474 C 0.83152 0.63105 0.67093 0.0
C475 C 0.87745 0.71132 0.6605 0.0
O476 O 0.85843 0.67173 0.7172 0.0
O477 O 0.85459 0.70932 0.72246 0.0
O478 O 0.84448 0.72695 0.68967 0.0
O479 O 0.80812 0.68956 0.67692 0.0
O480 O 0.79704 0.64886 0.69968 0.0
O481 O 0.77265 0.63837 0.66965 0.0
O482 O 0.78912 0.67009 0.63131 0.0
O483 O 0.80221 0.63894 0.626 0.0
O484 O 0.80763 0.61955 0.66033 0.0
O485 O 0.84385 0.65771 0.67167 0.0
O486 O 0.85326 0.69918 0.64945 0.0
O487 O 0.87866 0.706 0.67846 0.0
H488 H 0.88134 0.72129 0.76449 0.0
H489 H 0.86439 0.70645 0.7954 0.0
H490 H 0.79846 0.62551 0.76727 0.0
H491 H 0.81499 0.64093 0.73638 0.0
H492 H 0.84568 0.67368 0.60878 0.0
H493 H 0.86478 0.69605 0.57997 0.0
H494 H 0.78379 0.68545 0.56051 0.0
H495 H 0.76485 0.66322 0.5894 0.0
C496 C 0.33465 0.19032 0.72845 0.0
Eu497 Eu 0.33116 0.16791 0.69397 0.0
C498 C 0.34101 0.18669 0.74836 0.0
C499 C 0.32175 0.18319 0.76156 0.0
C500 C 0.32725 0.18013 0.7806 0.0
C501 C 0.35232 0.18077 0.78692 0.0
C502 C 0.37147 0.18393 0.77357 0.0
C503 C 0.36584 0.18679 0.75445 0.0
C504 C 0.29489 0.11289 0.68065 0.0
C505 C 0.37532 0.14484 0.69092 0.0
C506 C 0.33832 0.12804 0.62071 0.0
Eu507 Eu 0.34135 0.14994 0.65525 0.0
C508 C 0.33262 0.13238 0.60083 0.0
C509 C 0.35318 0.13843 0.58819 0.0
C510 C 0.34818 0.142 0.56917 0.0
C511 C 0.32234 0.13932 0.56231 0.0
C512 C 0.30185 0.13355 0.57508 0.0
C513 C 0.30695 0.13017 0.59416 0.0
C514 C 0.37697 0.20523 0.66864 0.0
C515 C 0.29651 0.17231 0.65817 0.0
O516 O 0.35542 0.20056 0.71766 0.0
O517 O 0.31119 0.1697 0.71937 0.0
O518 O 0.2878 0.12859 0.69062 0.0
O519 O 0.32098 0.12612 0.67927 0.0
O520 O 0.3687 0.16176 0.70069 0.0
O521 O 0.36296 0.13284 0.67361 0.0
O522 O 0.31723 0.11792 0.63123 0.0
O523 O 0.36184 0.14806 0.63013 0.0
O524 O 0.38467 0.18979 0.65898 0.0
O525 O 0.35088 0.19151 0.66977 0.0
O526 O 0.30407 0.15629 0.64825 0.0
O527 O 0.30821 0.18383 0.6757 0.0
H528 H 0.30239 0.18288 0.75713 0.0
H529 H 0.31177 0.17719 0.79037 0.0
H530 H 0.39112 0.18483 0.77796 0.0
H531 H 0.38102 0.18931 0.74452 0.0
H532 H 0.37316 0.1403 0.59303 0.0
H533 H 0.36461 0.14688 0.55985 0.0
H534 H 0.28158 0.13096 0.57025 0.0
H535 H 0.29068 0.12553 0.60358 0.0
C536 C 0.81082 0.15426 0.6195 0.0
Eu537 Eu 0.83228 0.17688 0.65436 0.0
C538 C 0.82133 0.15501 0.60064 0.0
C539 C 0.80873 0.16082 0.58501 0.0
C540 C 0.81828 0.16178 0.56699 0.0
C541 C 0.84058 0.15675 0.56417 0.0
C542 C 0.85337 0.15117 0.57993 0.0
C543 C 0.84387 0.15034 0.598 0.0
C544 C 0.85132 0.23136 0.66784 0.0
C545 C 0.90016 0.20015 0.65843 0.0
C546 C 0.88761 0.21787 0.72847 0.0
Eu547 Eu 0.86559 0.19511 0.69366 0.0
C548 C 0.87769 0.21477 0.74753 0.0
C549 C 0.85022 0.19375 0.7502 0.0
C550 C 0.84098 0.19113 0.76844 0.0
C551 C 0.85914 0.20944 0.7843 0.0
C552 C 0.88668 0.23043 0.78148 0.0
C553 C 0.89583 0.23307 0.76324 0.0
C554 C 0.84518 0.14009 0.68032 0.0
C555 C 0.79756 0.17213 0.68956 0.0
O556 O 0.81727 0.14141 0.63228 0.0
O557 O 0.81271 0.17782 0.62676 0.0
O558 O 0.82722 0.21538 0.65778 0.0
O559 O 0.86501 0.21859 0.66941 0.0
O560 O 0.8754 0.18427 0.64827 0.0
O561 O 0.9023 0.21089 0.67615 0.0
O562 O 0.87744 0.22887 0.71661 0.0
O563 O 0.88831 0.19609 0.72036 0.0
O564 O 0.86935 0.15554 0.6904 0.0
O565 O 0.83241 0.1537 0.67882 0.0
O566 O 0.82228 0.18726 0.69995 0.0
O567 O 0.79543 0.16192 0.67168 0.0
H568 H 0.79146 0.16469 0.58675 0.0
H569 H 0.80826 0.16667 0.55529 0.0
H570 H 0.87039 0.14691 0.57827 0.0
H571 H 0.85406 0.14589 0.60984 0.0
H572 H 0.83599 0.17934 0.7382 0.0
H573 H 0.81976 0.17459 0.77014 0.0
H574 H 0.90104 0.24516 0.79332 0.0
H575 H 0.91707 0.24948 0.76139 0.0
H576 H 0.26736 0.84338 0.03642 0.0
H577 H 0.43398 0.95048 0.05671 0.0
H578 H 0.3163 0.85299 0.08947 0.0
H579 H 0.38538 0.93992 0.00326 0.0
H580 H 0.39095 0.91568 0.06919 0.0
H581 H 0.31021 0.87911 0.02417 0.0
C582 C 0.28713 0.85288 0.04547 0.0
C583 C 0.28816 0.84507 0.06402 0.0
C584 C 0.38967 0.921 0.05474 0.0
C585 C 0.33738 0.88634 0.05012 0.0
C586 C 0.41427 0.94094 0.04759 0.0
C587 C 0.41338 0.94819 0.02886 0.0
C588 C 0.36389 0.9081 0.04311 0.0
C589 C 0.38715 0.93503 0.01776 0.0
C590 C 0.31159 0.87343 0.0385 0.0
C591 C 0.31437 0.85853 0.07518 0.0
N592 N 0.36349 0.91561 0.02504 0.0
N593 N 0.33789 0.87843 0.06806 0.0
H594 H 0.19848 0.49787 0.07307 0.0
H595 H 0.04792 0.43136 0.01402 0.0
H596 H 0.14118 0.40747 0.06454 0.0
H597 H 0.08566 0.51151 0.04924 0.0
H598 H 0.08584 0.42404 0.02711 0.0
H599 H 0.16119 0.50532 0.05855 0.0
C600 C 0.17813 0.47965 0.06786 0.0
C601 C 0.17269 0.45206 0.06985 0.0
C602 C 0.08572 0.44318 0.03196 0.0
C603 C 0.13035 0.46029 0.05335 0.0
C604 C 0.06418 0.4474 0.0245 0.0
C605 C 0.06365 0.47203 0.03064 0.0
C606 C 0.10716 0.46403 0.04528 0.0
C607 C 0.0852 0.49213 0.04425 0.0
C608 C 0.1569 0.48388 0.05976 0.0
C609 C 0.14601 0.42904 0.06315 0.0
N610 N 0.10627 0.48781 0.05101 0.0
N611 N 0.12578 0.43365 0.05508 0.0
H612 H 0.56669 0.7426 0.02231 0.0
H613 H 0.56236 0.59843 0.02949 0.0
H614 H 0.56371 0.71203 0.07791 0.0
H615 H 0.49569 0.59839 0.99398 0.0
H616 H 0.57701 0.64673 0.04349 0.0
H617 H 0.55331 0.6953 0.00751 0.0
C618 C 0.56325 0.72621 0.03149 0.0
C619 C 0.56655 0.7318 0.05155 0.0
C620 C 0.55925 0.63601 0.03257 0.0
C621 C 0.55265 0.67811 0.0345 0.0
C622 C 0.55079 0.60851 0.0247 0.0
C623 C 0.52737 0.59419 0.01094 0.0
C624 C 0.54484 0.64953 0.02605 0.0
C625 C 0.51365 0.60859 0.00475 0.0
C626 C 0.55587 0.69932 0.02295 0.0
C627 C 0.56238 0.70945 0.06248 0.0
N628 N 0.52271 0.63561 0.01226 0.0
N629 N 0.55595 0.68374 0.05382 0.0
H630 H 0.85949 0.30445 0.93048 0.0
H631 H 0.90706 0.41039 0.02183 0.0
H632 H 0.82735 0.27102 0.98336 0.0
H633 H 0.96971 0.41186 0.98724 0.0
H634 H 0.87276 0.36298 0.00595 0.0
H635 H 0.89569 0.34819 0.94877 0.0
C636 C 0.86007 0.30589 0.9459 0.0
C637 C 0.84023 0.28336 0.95527 0.0
C638 C 0.89408 0.37374 0.00196 0.0
C639 C 0.88113 0.33448 0.97616 0.0
C640 C 0.91359 0.40072 0.01092 0.0
C641 C 0.9411 0.41519 0.00559 0.0
C642 C 0.90199 0.3616 0.98723 0.0
C643 C 0.94856 0.40165 0.99148 0.0
C644 C 0.88072 0.33112 0.95628 0.0
C645 C 0.84173 0.28764 0.97534 0.0
N646 N 0.92894 0.37578 0.98251 0.0
N647 N 0.86164 0.3128 0.98509 0.0
H648 H 0.70972 0.5266 0.95716 0.0
H649 H 0.58068 0.54919 0.95621 0.0
H650 H 0.71556 0.60012 0.93294 0.0
H651 H 0.61272 0.53403 0.00893 0.0
H652 H 0.62433 0.55898 0.94251 0.0
H653 H 0.66827 0.52013 0.97193 0.0
C654 C 0.70267 0.5416 0.95501 0.0
C655 C 0.71661 0.56412 0.94372 0.0
C656 C 0.62171 0.55362 0.95709 0.0
C657 C 0.66819 0.5557 0.95997 0.0
C658 C 0.59691 0.54796 0.96487 0.0
C659 C 0.59331 0.54099 0.98373 0.0
C660 C 0.64245 0.55132 0.96807 0.0
C661 C 0.61488 0.5396 0.99438 0.0
C662 C 0.6788 0.53765 0.96336 0.0
C663 C 0.70544 0.58209 0.94109 0.0
N664 N 0.63845 0.54434 0.98631 0.0
N665 N 0.68171 0.5773 0.94897 0.0
H666 H 0.43955 0.1368 0.93562 0.0
H667 H 0.50924 0.10628 0.0216 0.0
H668 H 0.4373 0.17238 0.99166 0.0
H669 H 0.44124 0.03372 0.98696 0.0
H670 H 0.49322 0.13663 0.00779 0.0
H671 H 0.44979 0.10358 0.95086 0.0
C672 C 0.44082 0.13764 0.95105 0.0
C673 C 0.43733 0.15773 0.96224 0.0
C674 C 0.48192 0.11404 0.00325 0.0
C675 C 0.45048 0.12037 0.97963 0.0
C676 C 0.49102 0.09674 0.01104 0.0
C677 C 0.47683 0.06751 0.00511 0.0
C678 C 0.45904 0.10213 0.98907 0.0
C679 C 0.45319 0.05623 0.99152 0.0
C680 C 0.44689 0.11869 0.95968 0.0
C681 C 0.4404 0.15798 0.98228 0.0
N682 N 0.44528 0.07367 0.98365 0.0
N683 N 0.4472 0.13989 0.99032 0.0
H684 H 0.6667 0.14295 0.91674 0.0
H685 H 0.59643 0.07738 0.01122 0.0
H686 H 0.71178 0.17059 0.97319 0.0
H687 H 0.54967 0.0573 0.95556 0.0
H688 H 0.63922 0.11037 0.99751 0.0
H689 H 0.62391 0.11028 0.93064 0.0
C690 C 0.66753 0.14214 0.93208 0.0
C691 C 0.69275 0.15951 0.94382 0.0
C692 C 0.61958 0.09876 0.9883 0.0
C693 C 0.64394 0.1221 0.95988 0.0
C694 C 0.59512 0.07985 0.99611 0.0
C695 C 0.56933 0.06448 0.98454 0.0
C696 C 0.61835 0.10229 0.96875 0.0
C697 C 0.56899 0.06868 0.96507 0.0
C698 C 0.64312 0.12351 0.94002 0.0
C699 C 0.69276 0.15763 0.96361 0.0
N700 N 0.59311 0.08712 0.9578 0.0
N701 N 0.66873 0.13921 0.97102 0.0
H702 H 0.83555 0.55275 0.9702 0.0
H703 H 0.93638 0.48856 0.95374 0.0
H704 H 0.84294 0.51963 0.91505 0.0
H705 H 0.93723 0.53139 0.00757 0.0
H706 H 0.90059 0.49791 0.93968 0.0
H707 H 0.87118 0.54316 0.98458 0.0
C708 C 0.84462 0.54338 0.96114 0.0
C709 C 0.83633 0.53689 0.94142 0.0
C710 C 0.90862 0.5053 0.95457 0.0
C711 C 0.87702 0.52591 0.95772 0.0
C712 C 0.92906 0.49993 0.96262 0.0
C713 C 0.93986 0.50922 0.98188 0.0
C714 C 0.89877 0.51994 0.96585 0.0
C715 C 0.92957 0.5239 0.99265 0.0
C716 C 0.865 0.53797 0.96934 0.0
C717 C 0.8488 0.52489 0.93033 0.0
N718 N 0.90956 0.52876 0.9845 0.0
N719 N 0.86849 0.51975 0.93863 0.0
H720 H 0.40341 0.29889 0.95833 0.0
H721 H 0.53756 0.44041 0.01066 0.0
H722 H 0.47966 0.30229 0.98111 0.0
H723 H 0.45924 0.4353 0.99107 0.0
H724 H 0.51739 0.39029 0.99902 0.0
H725 H 0.424 0.34921 0.9695 0.0
C726 C 0.42449 0.31028 0.96575 0.0
C727 C 0.43982 0.29647 0.96886 0.0
C728 C 0.50461 0.40011 0.99723 0.0
C729 C 0.46364 0.35405 0.9816 0.0
C730 C 0.51613 0.42872 0.00385 0.0
C731 C 0.5 0.44193 0.00183 0.0
C732 C 0.47676 0.38463 0.98851 0.0
C733 C 0.47238 0.42588 0.99288 0.0
C734 C 0.43625 0.33898 0.9721 0.0
C735 C 0.46707 0.31213 0.97847 0.0
N736 N 0.46161 0.39805 0.98657 0.0
N737 N 0.47813 0.34012 0.98449 0.0
H738 H 0.11249 0.70492 0.05859 0.0
H739 H 0.09809 0.56934 0.99675 0.0
H740 H 0.18229 0.70459 0.03414 0.0
H741 H 0.02836 0.57171 0.01976 0.0
H742 H 0.12935 0.61885 0.01002 0.0
H743 H 0.08136 0.65618 0.04413 0.0
C744 C 0.12121 0.69456 0.05009 0.0
C745 C 0.14994 0.70876 0.04754 0.0
C746 C 0.10721 0.60857 0.01214 0.0
C747 C 0.11452 0.65289 0.03099 0.0
C748 C 0.08938 0.58033 0.00457 0.0
C749 C 0.06065 0.56647 0.00719 0.0
C750 C 0.0962 0.62301 0.02243 0.0
C751 C 0.05042 0.58162 0.01745 0.0
C752 C 0.10345 0.66673 0.04185 0.0
C753 C 0.16023 0.69441 0.03644 0.0
N754 N 0.06818 0.60904 0.02471 0.0
N755 N 0.14252 0.66721 0.0286 0.0
H756 H 0.3428 0.48059 0.10241 0.0
H757 H 0.40883 0.47967 0.00423 0.0
H758 H 0.2952 0.45882 0.04701 0.0
H759 H 0.45758 0.51244 0.05946 0.0
H760 H 0.36636 0.46933 0.01951 0.0
H761 H 0.38459 0.4898 0.08679 0.0
C762 C 0.3412 0.47776 0.08694 0.0
C763 C 0.31562 0.46907 0.07599 0.0
C764 C 0.38639 0.47881 0.02825 0.0
C765 C 0.36326 0.47945 0.05796 0.0
C766 C 0.41063 0.48466 0.01955 0.0
C767 C 0.43686 0.49701 0.03055 0.0
C768 C 0.38838 0.48519 0.04811 0.0
C769 C 0.4379 0.50305 0.05035 0.0
C770 C 0.36504 0.48304 0.07802 0.0
C771 C 0.31458 0.46562 0.05599 0.0
N772 N 0.41405 0.49705 0.05846 0.0
N773 N 0.33809 0.47081 0.0476 0.0
H774 H 0.6018 0.9092 0.05888 0.0
H775 H 0.47082 0.90619 0.00021 0.0
H776 H 0.52786 0.83204 0.03362 0.0
H777 H 0.54844 0.98329 0.02034 0.0
H778 H 0.49066 0.87857 0.01319 0.0
H779 H 0.58197 0.93671 0.04573 0.0
C780 C 0.58139 0.89809 0.05052 0.0
C781 C 0.56649 0.86838 0.04729 0.0
C782 C 0.50337 0.90152 0.01478 0.0
C783 C 0.54356 0.8996 0.03225 0.0
C784 C 0.49205 0.91728 0.00739 0.0
C785 C 0.50802 0.94703 0.00928 0.0
C786 C 0.53085 0.91565 0.02417 0.0
C787 C 0.53538 0.96037 0.01869 0.0
C788 C 0.57008 0.91377 0.04301 0.0
C789 C 0.54011 0.85495 0.03641 0.0
N790 N 0.54593 0.94459 0.02581 0.0
N791 N 0.52946 0.87067 0.0293 0.0
H792 H 0.9578 0.15185 0.38039 0.0
H793 H 0.09078 0.30629 0.39184 0.0
H794 H 0.95853 0.21947 0.41615 0.0
H795 H 0.06007 0.25558 0.33717 0.0
H796 H 0.04735 0.27191 0.40466 0.0
H797 H 1.00051 0.187 0.36787 0.0
C798 C 0.96666 0.17399 0.38559 0.0
C799 C 0.95403 0.18247 0.39931 0.0
C800 C 0.05018 0.26848 0.38985 0.0
C801 C 0.00381 0.22272 0.38543 0.0
C802 C 0.07491 0.28796 0.38255 0.0
C803 C 0.07891 0.28381 0.36339 0.0
C804 C 0.02979 0.24433 0.37805 0.0
C805 C 0.05769 0.25971 0.35197 0.0
C806 C 0.99122 0.194 0.37848 0.0
C807 C 0.96746 0.2116 0.40585 0.0
N808 N 0.03417 0.24069 0.35953 0.0
N809 N 0.99169 0.23063 0.39894 0.0
H810 H 0.8631 0.81155 0.38484 0.0
H811 H 0.71754 0.80176 0.39266 0.0
H812 H 0.80087 0.74712 0.41591 0.0
H813 H 0.74924 0.80849 0.33752 0.0
H814 H 0.75337 0.79092 0.40528 0.0
H815 H 0.82623 0.81909 0.37019 0.0
C816 C 0.84178 0.79875 0.38849 0.0
C817 C 0.83536 0.77885 0.4019 0.0
C818 C 0.75234 0.79475 0.39042 0.0
C819 C 0.79353 0.78838 0.38572 0.0
C820 C 0.73211 0.80105 0.38327 0.0
C821 C 0.73048 0.80585 0.36404 0.0
C822 C 0.77149 0.79417 0.37838 0.0
C823 C 0.74975 0.80466 0.3524 0.0
C824 C 0.82085 0.80329 0.3802 0.0
C825 C 0.80724 0.76336 0.40619 0.0
N826 N 0.76976 0.79925 0.35982 0.0
N827 N 0.78748 0.76877 0.39836 0.0
H828 H 0.23012 0.04301 0.41093 0.0
H829 H 0.16234 0.93254 0.32271 0.0
H830 H 0.2323 0.07569 0.35619 0.0
H831 H 0.23031 0.9343 0.35778 0.0
H832 H 0.17726 0.98072 0.33707 0.0
H833 H 0.21959 0.99792 0.39432 0.0
C834 C 0.22879 0.0411 0.39548 0.0
C835 C 0.23273 0.06384 0.38508 0.0
C836 C 0.18882 0.97043 0.34152 0.0
C837 C 0.21903 0.01132 0.36609 0.0
C838 C 0.18034 0.94303 0.33344 0.0
C839 C 0.19482 0.92926 0.33938 0.0
C840 C 0.21135 0.98366 0.35597 0.0
C841 C 0.21816 0.94388 0.35318 0.0
C842 C 0.2225 0.01513 0.38606 0.0
C843 C 0.2292 0.05898 0.36496 0.0
N844 N 0.22541 0.97015 0.36132 0.0
N845 N 0.22225 0.03314 0.35611 0.0
H846 H 0.49632 0.60333 0.31796 0.0
H847 H 0.63739 0.74873 0.31915 0.0
H848 H 0.52184 0.64224 0.2655 0.0
H849 H 0.57582 0.74367 0.35623 0.0
H850 H 0.60226 0.70183 0.30293 0.0
H851 H 0.53223 0.64817 0.33597 0.0
C852 C 0.50925 0.62104 0.31014 0.0
C853 C 0.50586 0.61853 0.29001 0.0
C854 C 0.59667 0.71104 0.31473 0.0
C855 C 0.54777 0.66929 0.31066 0.0
C856 C 0.61655 0.73773 0.32389 0.0
C857 C 0.60919 0.7503 0.33869 0.0
C858 C 0.56971 0.69652 0.32092 0.0
C859 C 0.58215 0.73481 0.34468 0.0
C860 C 0.52988 0.6465 0.32049 0.0
C861 C 0.52394 0.64242 0.28088 0.0
N862 N 0.56333 0.7086 0.3358 0.0
N863 N 0.54425 0.66661 0.29125 0.0
H864 H 0.37962 0.92889 0.26032 0.0
H865 H 0.28185 0.87412 0.34326 0.0
H866 H 0.37792 0.86321 0.29265 0.0
H867 H 0.24789 0.88007 0.28803 0.0
H868 H 0.325 0.8826 0.32943 0.0
H869 H 0.3381 0.92307 0.27485 0.0
C870 C 0.37067 0.91321 0.27037 0.0
C871 C 0.38245 0.89634 0.27503 0.0
C872 C 0.30809 0.88219 0.32045 0.0
C873 C 0.3357 0.89075 0.29229 0.0
C874 C 0.28364 0.87752 0.32829 0.0
C875 C 0.26138 0.87633 0.3167 0.0
C876 C 0.31049 0.88653 0.30108 0.0
C877 C 0.26457 0.88065 0.29737 0.0
C878 C 0.3471 0.91015 0.27873 0.0
C879 C 0.37018 0.87713 0.28875 0.0
N880 N 0.28885 0.88583 0.29015 0.0
N881 N 0.34759 0.87499 0.29696 0.0
H882 H 0.11538 0.47849 0.26729 0.0
H883 H 0.17271 0.43931 0.357 0.0
H884 H 0.10816 0.50922 0.32354 0.0
H885 H 0.11794 0.37267 0.31283 0.0
H886 H 0.15814 0.47071 0.34318 0.0
H887 H 0.12479 0.44425 0.28181 0.0
C888 C 0.11541 0.47803 0.28262 0.0
C889 C 0.11071 0.497 0.29409 0.0
C890 C 0.1493 0.44915 0.33658 0.0
C891 C 0.12282 0.45845 0.31075 0.0
C892 C 0.15763 0.43128 0.34437 0.0
C893 C 0.14657 0.40337 0.33593 0.0
C894 C 0.13049 0.43932 0.31992 0.0
C895 C 0.12704 0.39402 0.31966 0.0
C896 C 0.12099 0.4585 0.29086 0.0
C897 C 0.11216 0.49566 0.31401 0.0
N898 N 0.1199 0.41213 0.31195 0.0
N899 N 0.11842 0.47697 0.32171 0.0
H900 H 0.38075 0.50255 0.30914 0.0
H901 H 0.21549 0.38918 0.29028 0.0
H902 H 0.33367 0.47519 0.25333 0.0
H903 H 0.26325 0.40956 0.34559 0.0
H904 H 0.25848 0.42167 0.27681 0.0
H905 H 0.33795 0.46971 0.32308 0.0
C906 C 0.36141 0.48965 0.29982 0.0
C907 C 0.36066 0.49159 0.28004 0.0
C908 C 0.25962 0.41904 0.29189 0.0
C909 C 0.31169 0.45404 0.29587 0.0
C910 C 0.23501 0.40048 0.29963 0.0
C911 C 0.23569 0.39659 0.31914 0.0
C912 C 0.2852 0.434 0.30372 0.0
C913 C 0.2617 0.41184 0.33048 0.0
C914 C 0.33699 0.47088 0.30778 0.0
C915 C 0.33508 0.47434 0.26865 0.0
N916 N 0.2854 0.42991 0.32262 0.0
N917 N 0.31162 0.45635 0.27672 0.0
H918 H 0.50326 0.84382 0.24857 0.0
H919 H 0.60342 0.86617 0.34315 0.0
H920 H 0.50227 0.88598 0.30205 0.0
H921 H 0.60162 0.82227 0.28951 0.0
H922 H 0.56676 0.8741 0.32859 0.0
H923 H 0.53967 0.83608 0.26358 0.0
C924 C 0.51074 0.85139 0.26351 0.0
C925 C 0.49979 0.86549 0.2741 0.0
C926 C 0.57442 0.86274 0.32003 0.0
C927 C 0.54149 0.85683 0.29142 0.0
C928 C 0.59537 0.85822 0.32832 0.0
C929 C 0.60565 0.84354 0.31754 0.0
C930 C 0.56371 0.85253 0.30083 0.0
C931 C 0.59438 0.8337 0.2984 0.0
C932 C 0.53151 0.847 0.27209 0.0
C933 C 0.51015 0.87496 0.29339 0.0
N934 N 0.57406 0.83839 0.29069 0.0
N935 N 0.5305 0.87047 0.30146 0.0
H936 H 0.0749 0.63693 0.29213 0.0
H937 H 0.20482 0.77752 0.3491 0.0
H938 H 0.15052 0.64059 0.3166 0.0
H939 H 0.12768 0.77216 0.32617 0.0
H940 H 0.1856 0.72754 0.33732 0.0
H941 H 0.09406 0.68655 0.30456 0.0
C942 C 0.09554 0.64823 0.3002 0.0
C943 C 0.11113 0.6347 0.30337 0.0
C944 C 0.17287 0.73728 0.33486 0.0
C945 C 0.13332 0.69153 0.31758 0.0
C946 C 0.18383 0.76579 0.34157 0.0
C947 C 0.16781 0.77893 0.33854 0.0
C948 C 0.14568 0.72184 0.32504 0.0
C949 C 0.14076 0.76283 0.32872 0.0
C950 C 0.10648 0.67654 0.30727 0.0
C951 C 0.13778 0.65023 0.31385 0.0
N952 N 0.13056 0.73514 0.32231 0.0
N953 N 0.14806 0.67788 0.32057 0.0
H954 H 0.84827 0.04437 0.36804 0.0
H955 H 0.69315 0.90703 0.35576 0.0
H956 H 0.77674 0.04211 0.39161 0.0
H957 H 0.76464 0.90843 0.33277 0.0
H958 H 0.72337 0.95679 0.36859 0.0
H959 H 0.81793 0.99495 0.35439 0.0
C960 C 0.82615 0.03351 0.37027 0.0
C961 C 0.81491 0.04728 0.38095 0.0
C962 C 0.73249 0.94626 0.36073 0.0
C963 C 0.78015 0.99077 0.36546 0.0
C964 C 0.71524 0.91785 0.35344 0.0
C965 C 0.72648 0.90367 0.34324 0.0
C966 C 0.76118 0.9606 0.35777 0.0
C967 C 0.75518 0.91865 0.34056 0.0
C968 C 0.80884 0.00528 0.3625 0.0
C969 C 0.78616 0.0322 0.38343 0.0
N970 N 0.77157 0.94632 0.34779 0.0
N971 N 0.76977 0.00476 0.37578 0.0
H972 H 0.95748 0.78276 0.37625 0.0
H973 H 0.12532 0.85413 0.39008 0.0
H974 H 0.00828 0.81726 0.43059 0.0
H975 H 0.07559 0.81062 0.33631 0.0
H976 H 0.08238 0.84229 0.40457 0.0
H977 H 1.00012 0.79401 0.3608 0.0
C978 C 0.9776 0.79269 0.38491 0.0
C979 C 0.97949 0.7992 0.40472 0.0
C980 C 0.08077 0.83527 0.3896 0.0
C981 C 0.02814 0.81212 0.3872 0.0
C982 C 0.10536 0.84206 0.38127 0.0
C983 C 0.10412 0.8333 0.36191 0.0
C984 C 0.05458 0.81966 0.37854 0.0
C985 C 0.07755 0.81777 0.35128 0.0
C986 C 0.00189 0.79907 0.3761 0.0
C987 C 0.00599 0.81195 0.41528 0.0
N988 N 0.05379 0.81145 0.35974 0.0
N989 N 0.02927 0.81806 0.4064 0.0
H990 H 0.26678 0.24091 0.39686 0.0
H991 H 0.13493 0.23852 0.34001 0.0
H992 H 0.19275 0.16409 0.37129 0.0
H993 H 0.21317 0.31548 0.35925 0.0
H994 H 0.15461 0.21084 0.35306 0.0
H995 H 0.24645 0.2686 0.38478 0.0
C996 C 0.24624 0.22992 0.38867 0.0
C997 C 0.23148 0.20025 0.38499 0.0
C998 C 0.16747 0.23378 0.35447 0.0
C999 C 0.20799 0.23167 0.37121 0.0
C1000 C 0.15623 0.24958 0.34705 0.0
C1001 C 0.17248 0.2793 0.34858 0.0
C1002 C 0.19515 0.24782 0.36352 0.0
C1003 C 0.19992 0.29259 0.35785 0.0
C1004 C 0.23465 0.2457 0.38178 0.0
C1005 C 0.20491 0.18696 0.37438 0.0
N1006 N 0.21041 0.27675 0.36497 0.0
N1007 N 0.194 0.20278 0.36787 0.0
H1008 H 0.62666 0.55071 0.74956 0.0
H1009 H 0.72867 0.58738 0.66879 0.0
H1010 H 0.62691 0.48415 0.71319 0.0
H1011 H 0.75881 0.63519 0.72449 0.0
H1012 H 0.68578 0.55253 0.68173 0.0
H1013 H 0.67046 0.58525 0.73775 0.0
C1014 C 0.63585 0.54313 0.73927 0.0
C1015 C 0.62274 0.51413 0.7325 0.0
C1016 C 0.70182 0.57069 0.69107 0.0
C1017 C 0.67244 0.5541 0.71837 0.0
C1018 C 0.72616 0.59065 0.6837 0.0
C1019 C 0.74726 0.61421 0.6956 0.0
C1020 C 0.69823 0.57472 0.71032 0.0
C1021 C 0.74305 0.61727 0.71486 0.0
C1022 C 0.66081 0.56302 0.73246 0.0
C1023 C 0.63561 0.50616 0.71864 0.0
N1024 N 0.71884 0.59788 0.72161 0.0
N1025 N 0.65954 0.52604 0.71192 0.0
H1026 H 0.47272 0.06929 0.7295 0.0
H1027 H 0.41786 0.1777 0.71914 0.0
H1028 H 0.5287 0.15972 0.74086 0.0
H1029 H 0.38234 0.09959 0.68186 0.0
H1030 H 0.4552 0.1692 0.73182 0.0
H1031 H 0.43574 0.07781 0.71596 0.0
C1032 C 0.47718 0.09092 0.72899 0.0
C1033 C 0.50367 0.11389 0.73611 0.0
C1034 C 0.43919 0.15398 0.72086 0.0
C1035 C 0.46159 0.12373 0.72122 0.0
C1036 C 0.41781 0.15868 0.71374 0.0
C1037 C 0.39705 0.13933 0.69942 0.0
C1038 C 0.4394 0.12947 0.7139 0.0
C1039 C 0.39804 0.1151 0.69283 0.0
C1040 C 0.45618 0.09576 0.7213 0.0
C1041 C 0.50854 0.14154 0.7353 0.0
N1042 N 0.41878 0.11074 0.70022 0.0
N1043 N 0.48755 0.14573 0.72816 0.0
H1044 H 0.86214 0.3908 0.70346 0.0
H1045 H 0.90213 0.26902 0.68811 0.0
H1046 H 0.94108 0.40013 0.72659 0.0
H1047 H 0.82345 0.26063 0.66548 0.0
H1048 H 0.91768 0.31768 0.70148 0.0
H1049 H 0.84868 0.34386 0.6882 0.0
C1050 C 0.8768 0.38312 0.70515 0.0
C1051 C 0.90277 0.39945 0.71636 0.0
C1052 C 0.89705 0.30522 0.69355 0.0
C1053 C 0.88728 0.34541 0.69916 0.0
C1054 C 0.88818 0.27747 0.68595 0.0
C1055 C 0.86146 0.26085 0.67574 0.0
C1056 C 0.87904 0.31634 0.69089 0.0
C1057 C 0.84421 0.27276 0.67328 0.0
C1058 C 0.86901 0.3562 0.69655 0.0
C1059 C 0.92069 0.38814 0.71829 0.0
N1060 N 0.85327 0.29975 0.68082 0.0
N1061 N 0.91258 0.3618 0.70983 0.0
H1062 H 0.143 0.95827 0.63539 0.0
H1063 H 0.30615 0.07638 0.65977 0.0
H1064 H 0.21077 0.94779 0.61658 0.0
H1065 H 0.23802 0.08353 0.68134 0.0
H1066 H 0.27182 0.02883 0.64432 0.0
H1067 H 0.17771 0.00354 0.65313 0.0
C1068 C 0.16517 0.9653 0.63516 0.0
C1069 C 0.17392 0.94915 0.6244 0.0
C1070 C 0.26439 0.04075 0.6525 0.0
C1071 C 0.21391 0.00139 0.64447 0.0
C1072 C 0.28397 0.06786 0.6613 0.0
C1073 C 0.27484 0.08385 0.67179 0.0
C1074 C 0.23551 0.02963 0.6542 0.0
C1075 C 0.24592 0.07188 0.67337 0.0
C1076 C 0.18502 0.9913 0.6452 0.0
C1077 C 0.20302 0.95969 0.62442 0.0
N1078 N 0.22729 0.04555 0.66462 0.0
N1079 N 0.22195 0.98517 0.63422 0.0
H1080 H 0.06974 0.24272 0.63712 0.0
H1081 H 0.90447 0.18723 0.62113 0.0
H1082 H 0.01981 0.20971 0.58235 0.0
H1083 H 0.95464 0.22637 0.67537 0.0
H1084 H 0.94675 0.19548 0.60682 0.0
H1085 H 0.02804 0.23685 0.6516 0.0
C1086 C 0.05001 0.23422 0.62815 0.0
C1087 C 0.04827 0.22674 0.60849 0.0
C1088 C 0.94858 0.20235 0.62185 0.0
C1089 C 1.00055 0.22006 0.62492 0.0
C1090 C 0.92438 0.19758 0.63006 0.0
C1091 C 0.92595 0.20601 0.64953 0.0
C1092 C 0.97462 0.21553 0.63317 0.0
C1093 C 0.95243 0.21951 0.66031 0.0
C1094 C 0.02626 0.23101 0.6364 0.0
C1095 C 0.02224 0.21612 0.59751 0.0
N1096 N 0.97572 0.22375 0.652 0.0
N1097 N 0.99942 0.21302 0.60588 0.0
H1098 H 0.78085 0.8099 0.60265 0.0
H1099 H 0.84111 0.7725 0.68845 0.0
H1100 H 0.76535 0.83498 0.65803 0.0
H1101 H 0.77617 0.70054 0.65157 0.0
H1102 H 0.82459 0.80253 0.67482 0.0
H1103 H 0.78943 0.77514 0.61719 0.0
C1104 C 0.77879 0.80805 0.61774 0.0
C1105 C 0.77226 0.8258 0.62901 0.0
C1106 C 0.81406 0.78014 0.66977 0.0
C1107 C 0.78348 0.78672 0.64571 0.0
C1108 C 0.82345 0.76302 0.67743 0.0
C1109 C 0.81029 0.73406 0.67084 0.0
C1110 C 0.79195 0.76839 0.65504 0.0
C1111 C 0.78734 0.72286 0.65667 0.0
C1112 C 0.78392 0.78825 0.62598 0.0
C1113 C 0.771 0.82258 0.6487 0.0
N1114 N 0.77917 0.7402 0.64892 0.0
N1115 N 0.77706 0.80382 0.65647 0.0
H1116 H 0.04988 0.83296 0.64211 0.0
H1117 H 0.88341 0.72508 0.62365 0.0
H1118 H 0.00301 0.80607 0.58623 0.0
H1119 H 0.93141 0.74209 0.67849 0.0
H1120 H 0.92676 0.75652 0.61012 0.0
H1121 H 0.00657 0.80161 0.65609 0.0
C1122 C 0.03047 0.82048 0.63278 0.0
C1123 C 0.02995 0.82211 0.61297 0.0
C1124 C 0.92785 0.75338 0.62511 0.0
C1125 C 0.98037 0.78628 0.62887 0.0
C1126 C 0.90305 0.7354 0.63288 0.0
C1127 C 0.9037 0.73079 0.65226 0.0
C1128 C 0.95361 0.76709 0.63678 0.0
C1129 C 0.92986 0.74493 0.66348 0.0
C1130 C 0.00576 0.80255 0.64077 0.0
C1131 C 0.00426 0.80541 0.60157 0.0
N1132 N 0.95376 0.76245 0.65558 0.0
N1133 N 0.9805 0.78825 0.60968 0.0
H1134 H 0.16915 0.17429 0.58117 0.0
H1135 H 0.27309 0.20131 0.67463 0.0
H1136 H 0.16704 0.21436 0.63522 0.0
H1137 H 0.26969 0.1548 0.62178 0.0
H1138 H 0.23557 0.20795 0.66021 0.0
H1139 H 0.20707 0.16827 0.59564 0.0
C1140 C 0.17667 0.18173 0.59612 0.0
C1141 C 0.16497 0.19474 0.60703 0.0
C1142 C 0.24306 0.19632 0.65177 0.0
C1143 C 0.20842 0.18812 0.6237 0.0
C1144 C 0.26456 0.19259 0.65997 0.0
C1145 C 0.27458 0.17745 0.64941 0.0
C1146 C 0.23153 0.18491 0.63285 0.0
C1147 C 0.26264 0.16658 0.63049 0.0
C1148 C 0.19831 0.17833 0.60438 0.0
C1149 C 0.17545 0.20412 0.62631 0.0
N1150 N 0.24176 0.17052 0.62283 0.0
N1151 N 0.19665 0.20066 0.63404 0.0
H1152 H 0.81384 0.96889 0.6542 0.0
H1153 H 0.79312 0.10434 0.66146 0.0
H1154 H 0.74094 0.969 0.62815 0.0
H1155 H 0.8693 0.10709 0.68368 0.0
H1156 H 0.77301 0.05415 0.65023 0.0
H1157 H 0.83383 0.01886 0.66642 0.0
C1158 C 0.80199 0.9794 0.65114 0.0
C1159 C 0.77569 0.96487 0.64017 0.0
C1160 C 0.79413 0.06568 0.65755 0.0
C1161 C 0.79841 0.02193 0.65401 0.0
C1162 C 0.80562 0.09434 0.66394 0.0
C1163 C 0.83292 0.10983 0.67344 0.0
C1164 C 0.81002 0.05236 0.66076 0.0
C1165 C 0.84816 0.09585 0.67638 0.0
C1166 C 0.81343 0.00793 0.65807 0.0
C1167 C 0.76128 0.9795 0.63658 0.0
N1168 N 0.8365 0.06787 0.67007 0.0
N1169 N 0.77282 0.00721 0.64346 0.0
H1170 H 0.44535 0.37547 0.72396 0.0
H1171 H 0.43359 0.23806 0.66654 0.0
H1172 H 0.51628 0.37433 0.70202 0.0
H1173 H 0.36292 0.24061 0.68774 0.0
H1174 H 0.4643 0.28797 0.67913 0.0
H1175 H 0.41479 0.32616 0.71036 0.0
C1176 C 0.45443 0.36481 0.71619 0.0
C1177 C 0.48331 0.37894 0.71409 0.0
C1178 C 0.44207 0.27764 0.68101 0.0
C1179 C 0.44857 0.32245 0.69856 0.0
C1180 C 0.42456 0.24917 0.67384 0.0
C1181 C 0.39572 0.23528 0.67611 0.0
C1182 C 0.43063 0.29226 0.69054 0.0
C1183 C 0.38507 0.25057 0.68569 0.0
C1184 C 0.43701 0.33666 0.70845 0.0
C1185 C 0.49409 0.36421 0.70394 0.0
N1186 N 0.40252 0.27823 0.69256 0.0
N1187 N 0.4767 0.33671 0.69658 0.0
H1188 H 0.67666 0.15099 0.76946 0.0
H1189 H 0.7433 0.14613 0.67242 0.0
H1190 H 0.63003 0.12824 0.71364 0.0
H1191 H 0.79282 0.18429 0.72699 0.0
H1192 H 0.70099 0.1366 0.68746 0.0
H1193 H 0.71902 0.1606 0.75433 0.0
C1194 C 0.67541 0.14809 0.75401 0.0
C1195 C 0.64993 0.13894 0.74279 0.0
C1196 C 0.72113 0.14708 0.69612 0.0
C1197 C 0.69809 0.14966 0.72536 0.0
C1198 C 0.74531 0.15246 0.68756 0.0
C1199 C 0.77169 0.166 0.69845 0.0
C1200 C 0.72331 0.15512 0.71575 0.0
C1201 C 0.77297 0.17379 0.71801 0.0
C1202 C 0.69955 0.15359 0.74538 0.0
C1203 C 0.64931 0.1354 0.72283 0.0
N1204 N 0.74912 0.16817 0.72603 0.0
N1205 N 0.67305 0.1407 0.71475 0.0
H1206 H 0.86587 0.49899 0.70012 0.0
H1207 H 0.88309 0.65222 0.69118 0.0
H1208 H 0.93455 0.57636 0.73 0.0
H1209 H 0.80821 0.57358 0.66918 0.0
H1210 H 0.9034 0.6251 0.70435 0.0
H1211 H 0.84558 0.52621 0.68728 0.0
C1212 C 0.87673 0.52174 0.70394 0.0
C1213 C 0.90198 0.53553 0.71611 0.0
C1214 C 0.88249 0.61377 0.69669 0.0
C1215 C 0.87885 0.56679 0.70148 0.0
C1216 C 0.87089 0.62923 0.68921 0.0
C1217 C 0.84392 0.61507 0.67916 0.0
C1218 C 0.86707 0.58393 0.69396 0.0
C1219 C 0.82909 0.58529 0.67685 0.0
C1220 C 0.86508 0.53726 0.69665 0.0
C1221 C 0.91506 0.565 0.72064 0.0
N1222 N 0.84089 0.5707 0.68415 0.0
N1223 N 0.90338 0.57968 0.71329 0.0
H1224 H 0.44633 0.88228 0.20745 0.0
H1225 H 0.46034 0.996 0.13586 0.0
H1226 H 0.42734 0.94854 0.22144 0.0
H1227 H 0.49418 0.9403 0.12789 0.0
H1228 H 0.44198 0.97471 0.16518 0.0
H1229 H 0.45774 0.89914 0.17612 0.0
C1230 C 0.44452 0.90037 0.20391 0.0
C1231 C 0.43624 0.91427 0.21719 0.0
C1232 C 0.45333 0.9671 0.15696 0.0
C1233 C 0.44906 0.93356 0.18124 0.0
C1234 C 0.46368 0.97913 0.14021 0.0
C1235 C 0.47898 0.97003 0.12954 0.0
C1236 C 0.45814 0.94568 0.16297 0.0
C1237 C 0.48289 0.94825 0.13586 0.0
C1238 C 0.45096 0.90993 0.18599 0.0
C1239 C 0.43357 0.93715 0.21163 0.0
N1240 N 0.47258 0.93686 0.15217 0.0
N1241 N 0.44017 0.94623 0.19411 0.0
H1242 H 0.09717 0.50639 0.22764 0.0
H1243 H 0.01221 0.54394 0.1502 0.0
H1244 H 0.04704 0.54405 0.24215 0.0
H1245 H 0.0498 0.49315 0.13574 0.0
H1246 H 0.02486 0.54406 0.18394 0.0
H1247 H 0.07984 0.5008 0.19399 0.0
C1248 C 0.08223 0.51315 0.2238 0.0
C1249 C 0.07369 0.52587 0.23777 0.0
C1250 C 0.03022 0.53275 0.17341 0.0
C1251 C 0.05419 0.52001 0.1992 0.0
C1252 C 0.02287 0.53254 0.15409 0.0
C1253 C 0.02988 0.51846 0.14002 0.0
C1254 C 0.04494 0.51898 0.1788 0.0
C1255 C 0.04429 0.50462 0.14603 0.0
C1256 C 0.07249 0.51011 0.20455 0.0
C1257 C 0.05462 0.5346 0.23187 0.0
N1258 N 0.05142 0.50531 0.16496 0.0
N1259 N 0.04567 0.53167 0.21304 0.0
H1260 H 0.45954 0.51136 0.22908 0.0
H1261 H 0.508 0.58292 0.13197 0.0
H1262 H 0.48537 0.59868 0.22213 0.0
H1263 H 0.50253 0.50342 0.14262 0.0
H1264 H 0.49312 0.58594 0.16355 0.0
H1265 H 0.46895 0.50511 0.19599 0.0
C1266 C 0.46701 0.52911 0.22053 0.0
C1267 C 0.47195 0.55563 0.22834 0.0
C1268 C 0.49508 0.56777 0.15897 0.0
C1269 C 0.4826 0.54868 0.19067 0.0
C1270 C 0.50338 0.56594 0.14088 0.0
C1271 C 0.50661 0.54294 0.13469 0.0
C1272 C 0.4898 0.54637 0.17096 0.0
C1273 C 0.50065 0.52171 0.14696 0.0
C1274 C 0.47249 0.5256 0.20173 0.0
C1275 C 0.4817 0.578 0.21673 0.0
N1276 N 0.49255 0.52394 0.16453 0.0
N1277 N 0.48669 0.57402 0.19851 0.0
H1278 H 0.91202 0.47983 0.78604 0.0
H1279 H 0.015 0.46591 0.86423 0.0
H1280 H 0.97186 0.45408 0.77224 0.0
H1281 H 0.94712 0.47953 0.87834 0.0
H1282 H 0.00336 0.46752 0.83052 0.0
H1283 H 0.92881 0.48622 0.81994 0.0
C1284 C 0.92895 0.47589 0.79013 0.0
C1285 C 0.94047 0.46626 0.77632 0.0
C1286 C 0.99109 0.4703 0.841 0.0
C1287 C 0.95956 0.47323 0.81506 0.0
C1288 C 0.99764 0.46925 0.86025 0.0
C1289 C 0.9818 0.47225 0.87414 0.0
C1290 C 0.96854 0.47441 0.83553 0.0
C1291 C 0.95999 0.47724 0.86816 0.0
C1292 C 0.93839 0.47935 0.80948 0.0
C1293 C 0.96214 0.46116 0.78244 0.0
N1294 N 0.95388 0.47797 0.84928 0.0
N1295 N 0.9709 0.4646 0.80135 0.0
H1296 H 0.5992 0.49665 0.79877 0.0
H1297 H 0.47414 0.46788 0.86255 0.0
H1298 H 0.5135 0.4667 0.77563 0.0
H1299 H 0.56176 0.51489 0.8854 0.0
H1300 H 0.48843 0.46553 0.8308 0.0
H1301 H 0.58629 0.50212 0.8308 0.0
C1302 C 0.57775 0.49142 0.80038 0.0
C1303 C 0.55736 0.48099 0.78446 0.0
C1304 C 0.50458 0.47647 0.84273 0.0
C1305 C 0.5424 0.48682 0.82108 0.0
C1306 C 0.49643 0.47799 0.86091 0.0
C1307 C 0.51675 0.49178 0.87676 0.0
C1308 C 0.5333 0.48861 0.84027 0.0
C1309 C 0.54531 0.50377 0.87368 0.0
C1310 C 0.57037 0.49442 0.81868 0.0
C1311 C 0.52981 0.47426 0.78748 0.0
N1312 N 0.55273 0.50187 0.85581 0.0
N1313 N 0.52315 0.47717 0.80539 0.0
H1314 H 0.57462 0.10428 0.80487 0.0
H1315 H 0.45186 0.99616 0.86266 0.0
H1316 H 0.49109 0.04284 0.77869 0.0
H1317 H 0.53835 0.04803 0.88727 0.0
H1318 H 0.46638 0.01187 0.83156 0.0
H1319 H 0.56251 0.08278 0.83484 0.0
C1320 C 0.55386 0.08602 0.80533 0.0
C1321 C 0.53376 0.07552 0.78927 0.0
C1322 C 0.48224 0.01968 0.84372 0.0
C1323 C 0.5196 0.05112 0.82364 0.0
C1324 C 0.47398 0.01058 0.86151 0.0
C1325 C 0.49388 0.02083 0.87768 0.0
C1326 C 0.5106 0.03938 0.84204 0.0
C1327 C 0.52218 0.03993 0.87529 0.0
C1328 C 0.54691 0.07386 0.82249 0.0
C1329 C 0.50708 0.05201 0.79081 0.0
N1330 N 0.52966 0.04872 0.85783 0.0
N1331 N 0.50072 0.04077 0.80772 0.0
H1332 H 0.11631 0.21933 0.54223 0.0
H1333 H 0.13077 0.33652 0.47366 0.0
H1334 H 0.09946 0.28633 0.55895 0.0
H1335 H 0.16425 0.28087 0.46371 0.0
H1336 H 0.11383 0.31503 0.5032 0.0
H1337 H 0.12875 0.23838 0.51162 0.0
C1338 C 0.11531 0.23813 0.53949 0.0
C1339 C 0.10716 0.25145 0.5533 0.0
C1340 C 0.12485 0.30752 0.49452 0.0
C1341 C 0.12103 0.27318 0.51809 0.0
C1342 C 0.13438 0.31966 0.47764 0.0
C1343 C 0.14908 0.31056 0.46631 0.0
C1344 C 0.12985 0.28597 0.49997 0.0
C1345 C 0.15337 0.28879 0.47217 0.0
C1346 C 0.1223 0.24892 0.52196 0.0
C1347 C 0.10551 0.2753 0.54871 0.0
N1348 N 0.1438 0.27725 0.48858 0.0
N1349 N 0.11251 0.28549 0.53151 0.0
H1350 H 0.77914 0.90624 0.56855 0.0
H1351 H 0.67671 0.81106 0.47531 0.0
H1352 H 0.71334 0.8191 0.56927 0.0
H1353 H 0.74024 0.89952 0.47684 0.0
H1354 H 0.69136 0.81216 0.50908 0.0
H1355 H 0.76637 0.90293 0.53443 0.0
C1356 C 0.76184 0.88641 0.56153 0.0
C1357 C 0.74706 0.86301 0.57184 0.0
C1358 C 0.70213 0.83128 0.50199 0.0
C1359 C 0.73251 0.85891 0.53255 0.0
C1360 C 0.69389 0.83063 0.4827 0.0
C1361 C 0.70714 0.8553 0.4733 0.0
C1362 C 0.72384 0.85677 0.51188 0.0
C1363 C 0.72912 0.88013 0.4836 0.0
C1364 C 0.75467 0.88447 0.54199 0.0
C1365 C 0.72533 0.83764 0.56186 0.0
N1366 N 0.7367 0.88023 0.50231 0.0
N1367 N 0.7186 0.83629 0.54276 0.0
H1368 H 0.10283 0.87348 0.54907 0.0
H1369 H 0.22188 0.88548 0.48386 0.0
H1370 H 0.18729 0.8971 0.57125 0.0
H1371 H 0.14055 0.87027 0.46074 0.0
H1372 H 0.2078 0.88536 0.51604 0.0
H1373 H 0.11437 0.86735 0.51672 0.0
C1374 C 0.1237 0.87708 0.54715 0.0
C1375 C 0.1442 0.88601 0.56287 0.0
C1376 C 0.19297 0.88195 0.50394 0.0
C1377 C 0.1576 0.87926 0.52592 0.0
C1378 C 0.20105 0.88216 0.48554 0.0
C1379 C 0.18249 0.87818 0.46954 0.0
C1380 C 0.16608 0.87773 0.50646 0.0
C1381 C 0.15551 0.87329 0.47263 0.0
C1382 C 0.13032 0.87374 0.52868 0.0
C1383 C 0.17098 0.89062 0.55953 0.0
N1384 N 0.14818 0.87337 0.49073 0.0
N1385 N 0.17691 0.88728 0.54144 0.0
H1386 H 0.58073 0.8185 0.11883 0.0
H1387 H 0.67583 0.79508 0.19726 0.0
H1388 H 0.63941 0.79112 0.10509 0.0
H1389 H 0.6241 0.83114 0.21118 0.0
H1390 H 0.66479 0.79619 0.16343 0.0
H1391 H 0.59853 0.82631 0.15255 0.0
C1392 C 0.59769 0.81457 0.12285 0.0
C1393 C 0.60844 0.80392 0.1091 0.0
C1394 C 0.656 0.80406 0.17387 0.0
C1395 C 0.62854 0.81229 0.14777 0.0
C1396 C 0.66243 0.80359 0.19324 0.0
C1397 C 0.65083 0.81297 0.20716 0.0
C1398 C 0.63764 0.81377 0.16827 0.0
C1399 C 0.63316 0.82325 0.20098 0.0
C1400 C 0.60771 0.81884 0.14214 0.0
C1401 C 0.63013 0.79884 0.11523 0.0
N1402 N 0.62698 0.82322 0.182 0.0
N1403 N 0.6393 0.80285 0.13411 0.0
H1404 H 0.24102 0.85443 0.11901 0.0
H1405 H 0.17508 0.77301 0.21001 0.0
H1406 H 0.21352 0.76605 0.1233 0.0
H1407 H 0.2048 0.86218 0.20745 0.0
H1408 H 0.19068 0.77077 0.17861 0.0
H1409 H 0.23006 0.85859 0.15183 0.0
C1410 C 0.23293 0.83598 0.1269 0.0
C1411 C 0.22797 0.80979 0.11831 0.0
C1412 C 0.1939 0.79088 0.18491 0.0
C1413 C 0.21512 0.81432 0.1558 0.0
C1414 C 0.18485 0.79213 0.20282 0.0
C1415 C 0.18842 0.81777 0.21133 0.0
C1416 C 0.20659 0.81543 0.17531 0.0
C1417 C 0.20175 0.842 0.20148 0.0
C1418 C 0.22654 0.83833 0.1456 0.0
C1419 C 0.2172 0.78653 0.12919 0.0
N1420 N 0.2102 0.8402 0.18394 0.0
N1421 N 0.21105 0.78932 0.14729 0.0
H1422 H 0.21674 0.39163 0.12322 0.0
H1423 H 0.15883 0.40424 0.22287 0.0
H1424 H 0.18847 0.45065 0.13738 0.0
H1425 H 0.17394 0.33633 0.20538 0.0
H1426 H 0.1744 0.42454 0.1929 0.0
H1427 H 0.20583 0.37397 0.15458 0.0
C1428 C 0.20843 0.40099 0.13299 0.0
C1429 C 0.2033 0.42248 0.12767 0.0
C1430 C 0.17437 0.40523 0.19563 0.0
C1431 C 0.19073 0.40241 0.16345 0.0
C1432 C 0.16565 0.39373 0.21278 0.0
C1433 C 0.16496 0.36849 0.21658 0.0
C1434 C 0.18261 0.39146 0.18218 0.0
C1435 C 0.17376 0.3556 0.2029 0.0
C1436 C 0.20207 0.39082 0.15082 0.0
C1437 C 0.19233 0.43375 0.1408 0.0
N1438 N 0.18219 0.36722 0.1863 0.0
N1439 N 0.1864 0.42358 0.15807 0.0
H1440 H 0.73677 0.5752 0.87609 0.0
H1441 H 0.86364 0.67421 0.817 0.0
H1442 H 0.82376 0.62488 0.89992 0.0
H1443 H 0.77628 0.6325 0.79383 0.0
H1444 H 0.84888 0.65691 0.84767 0.0
H1445 H 0.75015 0.59658 0.84607 0.0
C1446 C 0.75862 0.59079 0.87506 0.0
C1447 C 0.77923 0.59807 0.89046 0.0
C1448 C 0.83288 0.65162 0.83593 0.0
C1449 C 0.79471 0.62235 0.85617 0.0
C1450 C 0.8413 0.66167 0.8184 0.0
C1451 C 0.82119 0.65487 0.80276 0.0
C1452 C 0.80409 0.63443 0.83792 0.0
C1453 C 0.79255 0.63797 0.8054 0.0
C1454 C 0.76626 0.60287 0.85791 0.0
C1455 C 0.80726 0.61821 0.88829 0.0
N1456 N 0.78485 0.62825 0.82263 0.0
N1457 N 0.81417 0.62951 0.87146 0.0
H1458 H 0.37118 0.20202 0.9105 0.0
H1459 H 0.37794 0.15315 0.80243 0.0
H1460 H 0.42188 0.16539 0.89517 0.0
H1461 H 0.34146 0.20446 0.81833 0.0
H1462 H 0.38952 0.15208 0.83635 0.0
H1463 H 0.35465 0.19691 0.87678 0.0
C1464 C 0.37874 0.19278 0.90004 0.0
C1465 C 0.39821 0.18443 0.90566 0.0
C1466 C 0.37885 0.16344 0.83237 0.0
C1467 C 0.37925 0.1784 0.86698 0.0
C1468 C 0.37239 0.16422 0.81301 0.0
C1469 C 0.35873 0.17898 0.80744 0.0
C1470 C 0.37153 0.17742 0.84629 0.0
C1471 C 0.3516 0.19247 0.82186 0.0
C1472 C 0.36926 0.18983 0.88078 0.0
C1473 C 0.40679 0.17201 0.8915 0.0
N1474 N 0.35813 0.19141 0.84057 0.0
N1475 N 0.39743 0.16957 0.87278 0.0
H1476 H 0.76872 0.20536 0.88157 0.0
H1477 H 0.88829 0.21369 0.81848 0.0
H1478 H 0.85039 0.22232 0.90535 0.0
H1479 H 0.80783 0.19964 0.79439 0.0
H1480 H 0.87308 0.21263 0.85041 0.0
H1481 H 0.78065 0.19811 0.84963 0.0
C1482 C 0.789 0.20713 0.88011 0.0
C1483 C 0.80868 0.2147 0.89616 0.0
C1484 C 0.85867 0.20962 0.83815 0.0
C1485 C 0.82265 0.20687 0.85959 0.0
C1486 C 0.86741 0.21039 0.8199 0.0
C1487 C 0.84943 0.20702 0.80371 0.0
C1488 C 0.83173 0.20554 0.8403 0.0
C1489 C 0.82237 0.20219 0.80643 0.0
C1490 C 0.79588 0.2032 0.86184 0.0
C1491 C 0.83476 0.21701 0.89336 0.0
N1492 N 0.81442 0.20179 0.82438 0.0
N1493 N 0.84104 0.2133 0.87544 0.0
H1494 H 0.30617 0.12111 0.43861 0.0
H1495 H 0.29369 0.16393 0.54677 0.0
H1496 H 0.24806 0.14826 0.45443 0.0
H1497 H 0.33743 0.11975 0.53098 0.0
H1498 H 0.28207 0.16485 0.51287 0.0
H1499 H 0.32357 0.12754 0.47232 0.0
C1500 C 0.29716 0.12856 0.44916 0.0
C1501 C 0.2754 0.13386 0.44368 0.0
C1502 C 0.29435 0.15511 0.51686 0.0
C1503 C 0.29537 0.14145 0.48229 0.0
C1504 C 0.30086 0.15442 0.53621 0.0
C1505 C 0.31643 0.14158 0.5418 0.0
C1506 C 0.30355 0.14297 0.50296 0.0
C1507 C 0.32566 0.13016 0.52742 0.0
C1508 C 0.30715 0.13228 0.46839 0.0
C1509 C 0.26497 0.14408 0.45795 0.0
N1510 N 0.31898 0.13103 0.5087 0.0
N1511 N 0.27491 0.14734 0.47661 0.0
H1512 H 0.84494 0.13726 0.44203 0.0
H1513 H 0.8946 0.17709 0.55426 0.0
H1514 H 0.92957 0.16382 0.46578 0.0
H1515 H 0.80792 0.1362 0.52972 0.0
H1516 H 0.90897 0.17613 0.52211 0.0
H1517 H 0.83234 0.14115 0.47416 0.0
C1518 C 0.86089 0.14386 0.45403 0.0
C1519 C 0.88828 0.14989 0.45119 0.0
C1520 C 0.88683 0.16744 0.52381 0.0
C1521 C 0.87401 0.1547 0.48817 0.0
C1522 C 0.87856 0.16782 0.54216 0.0
C1523 C 0.84996 0.15675 0.54477 0.0
C1524 C 0.86637 0.15599 0.50792 0.0
C1525 C 0.83023 0.14544 0.52847 0.0
C1526 C 0.85369 0.14618 0.4724 0.0
C1527 C 0.90824 0.15905 0.46728 0.0
N1528 N 0.83881 0.14537 0.51082 0.0
N1529 N 0.90067 0.16105 0.48511 0.0
H1530 H 0.86021 0.78851 0.47034 0.0
H1531 H 0.85858 0.68255 0.54461 0.0
H1532 H 0.88673 0.72753 0.45807 0.0
H1533 H 0.8188 0.73299 0.55168 0.0
H1534 H 0.87504 0.70338 0.51485 0.0
H1535 H 0.85088 0.7729 0.50218 0.0
C1536 C 0.8641 0.77184 0.47437 0.0
C1537 C 0.8739 0.75902 0.46144 0.0
C1538 C 0.86282 0.70996 0.52297 0.0
C1539 C 0.86349 0.74121 0.49795 0.0
C1540 C 0.85355 0.69821 0.53998 0.0
C1541 C 0.83713 0.70592 0.55053 0.0
C1542 C 0.85575 0.72969 0.51654 0.0
C1543 C 0.83103 0.72613 0.54382 0.0
C1544 C 0.85887 0.76301 0.49257 0.0
C1545 C 0.87925 0.73803 0.4676 0.0
N1546 N 0.84028 0.73726 0.52724 0.0
N1547 N 0.87377 0.72961 0.48538 0.0
loop_
_geom_bond_atom_site_label_1
_geom_bond_atom_site_label_2
_geom_bond_distance
_geom_bond_site_symmetry_2
_ccdc_geom_bond_type
H0 C5 0.930 . S
H1 C8 0.930 . S
H2 C10 0.930 . S
H3 C4 1.016 . S
C4 H3 1.016 . S
C4 N11 1.286 . S
C5 H0 0.930 . S
C5 C6 1.397 . S
C5 C7 1.361 . S
C6 C5 1.397 . S
C6 C10 1.390 . S
C7 C5 1.361 . S
C7 C8 1.393 . S
C7 N11 1.413 . S
C8 H1 0.930 . S
C8 C7 1.393 . S
C8 C9 1.399 . S
C9 C8 1.399 . S
C9 C10 1.381 . S
C10 H2 0.930 . S
C10 C6 1.390 . S
C10 C9 1.381 . S
N11 C4 1.286 . S
N11 C7 1.413 . S
H12 C17 0.930 . S
H13 C20 0.930 . S
H14 C22 0.930 . S
H15 C16 1.016 . S
C16 H15 1.016 . S
C16 N23 1.286 . S
C17 H12 0.930 . S
C17 C18 1.397 . S
C17 C19 1.361 . S
C18 C17 1.397 . S
C18 C22 1.390 . S
C19 C17 1.361 . S
C19 C20 1.393 . S
C19 N23 1.413 . S
C20 H13 0.930 . S
C20 C19 1.393 . S
C20 C21 1.399 . S
C21 C20 1.399 . S
C21 C22 1.381 . S
C22 H14 0.930 . S
C22 C18 1.390 . S
C22 C21 1.381 . S
N23 C16 1.286 . S
N23 C19 1.413 . S
H24 C29 0.930 . S
H25 C32 0.930 . S
H26 C34 0.930 . S
H27 C28 1.016 . S
C28 H27 1.016 . S
C28 N35 1.286 . S
C29 H24 0.930 . S
C29 C30 1.397 . S
C29 C31 1.361 . S
C30 C29 1.397 . S
C30 C34 1.390 . S
C31 C29 1.361 . S
C31 C32 1.393 . S
C31 N35 1.413 . S
C32 H25 0.930 . S
C32 C31 1.393 . S
C32 C33 1.399 . S
C33 C32 1.399 . S
C33 C34 1.381 . S
C34 H26 0.930 . S
C34 C30 1.390 . S
C34 C33 1.381 . S
N35 C28 1.286 . S
N35 C31 1.413 . S
H36 C41 0.930 . S
H37 C44 0.930 . S
H38 C46 0.930 . S
H39 C40 1.016 . S
C40 H39 1.016 . S
C40 N47 1.286 . S
C41 H36 0.930 . S
C41 C42 1.397 . S
C41 C43 1.361 . S
C42 C41 1.397 . S
C42 C46 1.390 . S
C43 C41 1.361 . S
C43 C44 1.393 . S
C43 N47 1.413 . S
C44 H37 0.930 . S
C44 C43 1.393 . S
C44 C45 1.399 . S
C45 C44 1.399 . S
C45 C46 1.381 . S
C46 H38 0.930 . S
C46 C42 1.390 . S
C46 C45 1.381 . S
N47 C40 1.286 . S
N47 C43 1.413 . S
H48 C53 0.930 . S
H49 C56 0.930 . S
H50 C58 0.930 . S
H51 C52 1.016 . S
C52 H51 1.016 . S
C52 N59 1.286 . S
C53 H48 0.930 . S
C53 C54 1.397 . S
C53 C55 1.361 . S
C54 C53 1.397 . S
C54 C58 1.390 . S
C55 C53 1.361 . S
C55 C56 1.393 . S
C55 N59 1.413 . S
C56 H49 0.930 . S
C56 C55 1.393 . S
C56 C57 1.399 . S
C57 C56 1.399 . S
C57 C58 1.381 . S
C58 H50 0.930 . S
C58 C54 1.390 . S
C58 C57 1.381 . S
N59 C52 1.286 . S
N59 C55 1.413 . S
H60 C65 0.930 . S
H61 C68 0.930 . S
H62 C70 0.930 . S
H63 C64 1.016 . S
C64 H63 1.016 . S
C64 N71 1.286 . S
C65 H60 0.930 . S
C65 C66 1.397 . S
C65 C67 1.361 . S
C66 C65 1.397 . S
C66 C70 1.390 . S
C67 C65 1.361 . S
C67 C68 1.393 . S
C67 N71 1.413 . S
C68 H61 0.930 . S
C68 C67 1.393 . S
C68 C69 1.399 . S
C69 C68 1.399 . S
C69 C70 1.381 . S
C70 H62 0.930 . S
C70 C66 1.390 . S
C70 C69 1.381 . S
N71 C64 1.286 . S
N71 C67 1.413 . S
H72 C77 0.930 . S
H73 C80 0.930 . S
H74 C82 0.930 . S
H75 C76 1.016 . S
C76 H75 1.016 . S
C76 N83 1.286 . S
C77 H72 0.930 . S
C77 C78 1.397 . S
C77 C79 1.361 . S
C78 C77 1.397 . S
C78 C82 1.390 . S
C79 C77 1.361 . S
C79 C80 1.393 . S
C79 N83 1.413 . S
C80 H73 0.930 . S
C80 C79 1.393 . S
C80 C81 1.399 . S
C81 C80 1.399 . S
C81 C82 1.381 . S
C82 H74 0.930 . S
C82 C78 1.390 . S
C82 C81 1.381 . S
N83 C76 1.286 . S
N83 C79 1.413 . S
H84 C89 0.930 . S
H85 C92 0.930 . S
H86 C94 0.930 . S
H87 C88 1.016 . S
C88 H87 1.016 . S
C88 N95 1.286 . S
C89 H84 0.930 . S
C89 C90 1.397 . S
C89 C91 1.361 . S
C90 C89 1.397 . S
C90 C94 1.390 . S
C91 C89 1.361 . S
C91 C92 1.393 . S
C91 N95 1.413 . S
C92 H85 0.930 . S
C92 C91 1.393 . S
C92 C93 1.399 . S
C93 C92 1.399 . S
C93 C94 1.381 . S
C94 H86 0.930 . S
C94 C90 1.390 . S
C94 C93 1.381 . S
N95 C88 1.286 . S
N95 C91 1.413 . S
H96 C101 0.930 . S
H97 C104 0.930 . S
H98 C106 0.930 . S
H99 C100 1.016 . S
C100 H99 1.016 . S
C100 N107 1.286 . S
C101 H96 0.930 . S
C101 C102 1.397 . S
C101 C103 1.361 . S
C102 C101 1.397 . S
C102 C106 1.390 . S
C103 C101 1.361 . S
C103 C104 1.393 . S
C103 N107 1.413 . S
C104 H97 0.930 . S
C104 C103 1.393 . S
C104 C105 1.399 . S
C105 C104 1.399 . S
C105 C106 1.381 . S
C106 H98 0.930 . S
C106 C102 1.390 . S
C106 C105 1.381 . S
N107 C100 1.286 . S
N107 C103 1.413 . S
H108 C113 0.930 . S
H109 C116 0.930 . S
H110 C118 0.930 . S
H111 C112 1.016 . S
C112 H111 1.016 . S
C112 N119 1.286 . S
C113 H108 0.930 . S
C113 C114 1.397 . S
C113 C115 1.361 . S
C114 C113 1.397 . S
C114 C118 1.390 . S
C115 C113 1.361 . S
C115 C116 1.393 . S
C115 N119 1.413 . S
C116 H109 0.930 . S
C116 C115 1.393 . S
C116 C117 1.399 . S
C117 C116 1.399 . S
C117 C118 1.381 . S
C118 H110 0.930 . S
C118 C114 1.390 . S
C118 C117 1.381 . S
N119 C112 1.286 . S
N119 C115 1.413 . S
H120 C125 0.930 . S
H121 C128 0.930 . S
H122 C130 0.930 . S
H123 C124 1.016 . S
C124 H123 1.016 . S
C124 N131 1.286 . S
C125 H120 0.930 . S
C125 C126 1.397 . S
C125 C127 1.361 . S
C126 C125 1.397 . S
C126 C130 1.390 . S
C127 C125 1.361 . S
C127 C128 1.393 . S
C127 N131 1.413 . S
C128 H121 0.930 . S
C128 C127 1.393 . S
C128 C129 1.399 . S
C129 C128 1.399 . S
C129 C130 1.381 . S
C130 H122 0.930 . S
C130 C126 1.390 . S
C130 C129 1.381 . S
N131 C124 1.286 . S
N131 C127 1.413 . S
H132 C137 0.930 . S
H133 C140 0.930 . S
H134 C142 0.930 . S
H135 C136 1.016 . S
C136 H135 1.016 . S
C136 N143 1.286 . S
C137 H132 0.930 . S
C137 C138 1.397 . S
C137 C139 1.361 . S
C138 C137 1.397 . S
C138 C142 1.390 . S
C139 C137 1.361 . S
C139 C140 1.393 . S
C139 N143 1.413 . S
C140 H133 0.930 . S
C140 C139 1.393 . S
C140 C141 1.399 . S
C141 C140 1.399 . S
C141 C142 1.381 . S
C142 H134 0.930 . S
C142 C138 1.390 . S
C142 C141 1.381 . S
N143 C136 1.286 . S
N143 C139 1.413 . S
H144 C149 0.930 . S
H145 C152 0.930 . S
H146 C154 0.930 . S
H147 C148 1.016 . S
C148 H147 1.016 . S
C148 N155 1.286 . S
C149 H144 0.930 . S
C149 C150 1.397 . S
C149 C151 1.361 . S
C150 C149 1.397 . S
C150 C154 1.390 . S
C151 C149 1.361 . S
C151 C152 1.393 . S
C151 N155 1.413 . S
C152 H145 0.930 . S
C152 C151 1.393 . S
C152 C153 1.399 . S
C153 C152 1.399 . S
C153 C154 1.381 . S
C154 H146 0.930 . S
C154 C150 1.390 . S
C154 C153 1.381 . S
N155 C148 1.286 . S
N155 C151 1.413 . S
H156 C161 0.930 . S
H157 C164 0.930 . S
H158 C166 0.930 . S
H159 C160 1.016 . S
C160 H159 1.016 . S
C160 N167 1.286 . S
C161 H156 0.930 . S
C161 C162 1.397 . S
C161 C163 1.361 . S
C162 C161 1.397 . S
C162 C166 1.390 . S
C163 C161 1.361 . S
C163 C164 1.393 . S
C163 N167 1.413 . S
C164 H157 0.930 . S
C164 C163 1.393 . S
C164 C165 1.399 . S
C165 C164 1.399 . S
C165 C166 1.381 . S
C166 H158 0.930 . S
C166 C162 1.390 . S
C166 C165 1.381 . S
N167 C160 1.286 . S
N167 C163 1.413 . S
H168 C173 0.930 . S
H169 C176 0.930 . S
H170 C178 0.930 . S
H171 C172 1.016 . S
C172 H171 1.016 . S
C172 N179 1.286 . S
C173 H168 0.930 . S
C173 C174 1.397 . S
C173 C175 1.361 . S
C174 C173 1.397 . S
C174 C178 1.390 . S
C175 C173 1.361 . S
C175 C176 1.393 . S
C175 N179 1.413 . S
C176 H169 0.930 . S
C176 C175 1.393 . S
C176 C177 1.399 . S
C177 C176 1.399 . S
C177 C178 1.381 . S
C178 H170 0.930 . S
C178 C174 1.390 . S
C178 C177 1.381 . S
N179 C172 1.286 . S
N179 C175 1.413 . S
H180 C185 0.930 . S
H181 C188 0.930 . S
H182 C190 0.930 . S
H183 C184 1.016 . S
C184 H183 1.016 . S
C184 N191 1.286 . S
C185 H180 0.930 . S
C185 C186 1.397 . S
C185 C187 1.361 . S
C186 C185 1.397 . S
C186 C190 1.390 . S
C187 C185 1.361 . S
C187 C188 1.393 . S
C187 N191 1.413 . S
C188 H181 0.930 . S
C188 C187 1.393 . S
C188 C189 1.399 . S
C189 C188 1.399 . S
C189 C190 1.381 . S
C190 H182 0.930 . S
C190 C186 1.390 . S
C190 C189 1.381 . S
N191 C184 1.286 . S
N191 C187 1.413 . S
H192 C197 0.930 . S
H193 C200 0.930 . S
H194 C202 0.930 . S
H195 C196 1.016 . S
C196 H195 1.016 . S
C196 N203 1.286 . S
C197 H192 0.930 . S
C197 C198 1.397 . S
C197 C199 1.361 . S
C198 C197 1.397 . S
C198 C202 1.390 . S
C199 C197 1.361 . S
C199 C200 1.393 . S
C199 N203 1.413 . S
C200 H193 0.930 . S
C200 C199 1.393 . S
C200 C201 1.399 . S
C201 C200 1.399 . S
C201 C202 1.381 . S
C202 H194 0.930 . S
C202 C198 1.390 . S
C202 C201 1.381 . S
N203 C196 1.286 . S
N203 C199 1.413 . S
H204 C209 0.930 . S
H205 C212 0.930 . S
H206 C214 0.930 . S
H207 C208 1.016 . S
C208 H207 1.016 . S
C208 N215 1.286 . S
C209 H204 0.930 . S
C209 C210 1.397 . S
C209 C211 1.361 . S
C210 C209 1.397 . S
C210 C214 1.390 . S
C211 C209 1.361 . S
C211 C212 1.393 . S
C211 N215 1.413 . S
C212 H205 0.930 . S
C212 C211 1.393 . S
C212 C213 1.399 . S
C213 C212 1.399 . S
C213 C214 1.381 . S
C214 H206 0.930 . S
C214 C210 1.390 . S
C214 C213 1.381 . S
N215 C208 1.286 . S
N215 C211 1.413 . S
C216 Eu217 2.835 . S
C216 C218 1.500 1_545 S
C216 O236 1.257 1_545 S
C216 O237 1.260 . S
Eu217 C216 2.835 . S
Eu217 O236 2.473 1_545 S
Eu217 O237 2.480 . S
Eu217 O238 2.430 . S
Eu217 O239 2.670 1_554 S
Eu217 O240 2.394 1_545 S
Eu217 O245 2.355 1_545 S
Eu217 O247 2.374 . S
C218 C216 1.500 1_565 S
C218 C219 1.377 1_565 S
C218 C223 1.377 . S
C219 C218 1.377 1_545 S
C219 C220 1.400 . S
C219 H248 0.931 . S
C220 C219 1.400 . S
C220 C221 1.362 1_545 S
C220 H249 0.948 . S
C221 C220 1.362 1_565 S
C221 C222 1.394 . S
C222 C221 1.394 . S
C222 C223 1.378 . S
C222 H250 0.931 . S
C223 C218 1.377 . S
C223 C222 1.378 . S
C223 H251 0.931 . S
C224 O238 1.259 . S
C224 O239 1.270 1_554 S
C225 O240 1.251 . S
C225 O241 1.251 1_554 S
C226 Eu227 2.835 1_545 S
C226 C228 1.500 . S
C226 O242 1.257 . S
C226 O243 1.260 1_545 S
Eu227 C226 2.835 1_565 S
Eu227 O239 2.355 1_565 S
Eu227 O241 2.374 . S
Eu227 O242 2.473 1_565 S
Eu227 O243 2.480 . S
Eu227 O244 2.430 . S
Eu227 O245 2.670 1_556 S
Eu227 O246 2.394 1_565 S
C228 C226 1.500 . S
C228 C229 1.377 . S
C228 C233 1.377 . S
C229 C228 1.377 . S
C229 C230 1.395 . S
C229 H252 0.931 1_545 S
C230 C229 1.395 . S
C230 C231 1.383 . S
C230 H253 0.931 1_545 S
C231 C230 1.383 . S
C231 C232 1.394 . S
C232 C231 1.394 . S
C232 C233 1.378 . S
C232 H254 0.931 . S
C233 C228 1.377 . S
C233 C232 1.378 . S
C233 H255 0.931 . S
C234 O244 1.259 1_554 S
C234 O245 1.270 . S
C235 O246 1.251 . S
C235 O247 1.251 1_556 S
O236 C216 1.257 1_565 S
O236 Eu217 2.473 1_565 S
O237 C216 1.260 . S
O237 Eu217 2.480 . S
O238 Eu217 2.430 . S
O238 C224 1.259 . S
O239 Eu217 2.670 1_556 S
O239 C224 1.270 1_556 S
O239 Eu227 2.355 1_545 S
O240 Eu217 2.394 1_565 S
O240 C225 1.251 . S
O241 C225 1.251 1_556 S
O241 Eu227 2.374 . S
O242 C226 1.257 . S
O242 Eu227 2.473 1_545 S
O243 C226 1.260 1_565 S
O243 Eu227 2.480 . S
O244 Eu227 2.430 . S
O244 C234 1.259 1_556 S
O245 Eu217 2.355 1_565 S
O245 Eu227 2.670 1_554 S
O245 C234 1.270 . S
O246 Eu227 2.394 1_545 S
O246 C235 1.251 . S
O247 Eu217 2.374 . S
O247 C235 1.251 1_554 S
H248 C219 0.931 . S
H249 C220 0.948 . S
H250 C222 0.931 . S
H251 C223 0.931 . S
H252 C229 0.931 1_565 S
H253 C230 0.931 1_565 S
H254 C232 0.931 . S
H255 C233 0.931 . S
C256 Eu257 2.835 1_455 S
C256 C258 1.500 . S
C256 O276 1.257 . S
C256 O277 1.260 1_455 S
Eu257 C256 2.835 1_655 S
Eu257 O276 2.473 1_655 S
Eu257 O277 2.480 . S
Eu257 O278 2.430 . S
Eu257 O279 2.670 1_554 S
Eu257 O280 2.394 1_655 S
Eu257 O285 2.355 1_655 S
Eu257 O287 2.374 . S
C258 C256 1.500 . S
C258 C259 1.377 . S
C258 C263 1.377 . S
C259 C258 1.377 . S
C259 C260 1.395 . S
C259 H288 0.931 1_455 S
C260 C259 1.395 . S
C260 C261 1.383 . S
C260 H289 0.931 . S
C261 C260 1.383 . S
C261 C262 1.394 . S
C262 C261 1.394 . S
C262 C263 1.378 . S
C262 H290 0.931 . S
C263 C258 1.377 . S
C263 C262 1.378 . S
C263 H291 0.931 . S
C264 O278 1.259 . S
C264 O279 1.270 1_554 S
C265 O280 1.251 . S
C265 O281 1.251 . S
C266 Eu267 2.835 1_655 S
C266 C268 1.500 . S
C266 O282 1.257 . S
C266 O283 1.260 1_655 S
Eu267 C266 2.835 1_455 S
Eu267 O279 2.355 1_455 S
Eu267 O281 2.374 1_556 S
Eu267 O282 2.473 1_455 S
Eu267 O283 2.480 . S
Eu267 O284 2.430 . S
Eu267 O285 2.670 1_556 S
Eu267 O286 2.394 1_455 S
C268 C266 1.500 . S
C268 C269 1.377 . S
C268 C273 1.377 . S
C269 C268 1.377 . S
C269 C270 1.395 . S
C269 H292 0.931 1_655 S
C270 C269 1.395 . S
C270 C271 1.383 . S
C270 H293 0.931 1_655 S
C271 C270 1.383 . S
C271 C272 1.394 . S
C272 C271 1.394 . S
C272 C273 1.378 . S
C272 H294 0.931 . S
C273 C268 1.377 . S
C273 C272 1.378 . S
C273 H295 0.931 . S
C274 O284 1.259 1_554 S
C274 O285 1.270 . S
C275 O286 1.251 . S
C275 O287 1.251 1_556 S
O276 C256 1.257 . S
O276 Eu257 2.473 1_455 S
O277 C256 1.260 1_655 S
O277 Eu257 2.480 . S
O278 Eu257 2.430 . S
O278 C264 1.259 . S
O279 Eu257 2.670 1_556 S
O279 C264 1.270 1_556 S
O279 Eu267 2.355 1_655 S
O280 Eu257 2.394 1_455 S
O280 C265 1.251 . S
O281 C265 1.251 . S
O281 Eu267 2.374 1_554 S
O282 C266 1.257 . S
O282 Eu267 2.473 1_655 S
O283 C266 1.260 1_455 S
O283 Eu267 2.480 . S
O284 Eu267 2.430 . S
O284 C274 1.259 1_556 S
O285 Eu257 2.355 1_455 S
O285 Eu267 2.670 1_554 S
O285 C274 1.270 . S
O286 Eu267 2.394 1_655 S
O286 C275 1.251 . S
O287 Eu257 2.374 . S
O287 C275 1.251 1_554 S
H288 C259 0.931 1_655 S
H289 C260 0.931 . S
H290 C262 0.931 . S
H291 C263 0.931 . S
H292 C269 0.931 1_455 S
H293 C270 0.931 1_455 S
H294 C272 0.931 . S
H295 C273 0.931 . S
C296 Eu297 2.835 . S
C296 C298 1.500 . S
C296 O316 1.257 . S
C296 O317 1.260 . S
Eu297 C296 2.835 . S
Eu297 O316 2.473 . S
Eu297 O317 2.480 . S
Eu297 O318 2.430 . S
Eu297 O319 2.670 1_556 S
Eu297 O320 2.394 . S
Eu297 O325 2.355 1_556 S
Eu297 O327 2.374 1_556 S
C298 C296 1.500 . S
C298 C299 1.377 . S
C298 C303 1.377 . S
C299 C298 1.377 . S
C299 C300 1.395 . S
C299 H328 0.931 . S
C300 C299 1.395 . S
C300 C301 1.383 . S
C300 H329 0.931 . S
C301 C300 1.383 . S
C301 C302 1.394 . S
C302 C301 1.394 . S
C302 C303 1.378 . S
C302 H330 0.931 . S
C303 C298 1.377 . S
C303 C302 1.378 . S
C303 H331 0.931 . S
C304 O318 1.259 1_554 S
C304 O319 1.270 . S
C305 O320 1.251 . S
C305 O321 1.251 1_556 S
C306 Eu307 2.835 . S
C306 C308 1.500 . S
C306 O322 1.257 . S
C306 O323 1.260 . S
Eu307 C306 2.835 . S
Eu307 O319 2.355 . S
Eu307 O321 2.374 . S
Eu307 O322 2.473 . S
Eu307 O323 2.480 . S
Eu307 O324 2.430 . S
Eu307 O325 2.670 . S
Eu307 O326 2.394 . S
C308 C306 1.500 . S
C308 C309 1.377 . S
C308 C313 1.377 . S
C309 C308 1.377 . S
C309 C310 1.395 . S
C309 H332 0.931 . S
C310 C309 1.395 . S
C310 C311 1.383 . S
C310 H333 0.931 . S
C311 C310 1.383 . S
C311 C312 1.394 . S
C312 C311 1.394 . S
C312 C313 1.378 . S
C312 H334 0.931 . S
C313 C308 1.377 . S
C313 C312 1.378 . S
C313 H335 0.931 . S
C314 O324 1.259 . S
C314 O325 1.270 . S
C315 O326 1.251 . S
C315 O327 1.251 . S
O316 C296 1.257 . S
O316 Eu297 2.473 . S
O317 C296 1.260 . S
O317 Eu297 2.480 . S
O318 Eu297 2.430 . S
O318 C304 1.259 1_556 S
O319 Eu297 2.670 1_554 S
O319 C304 1.270 . S
O319 Eu307 2.355 . S
O320 Eu297 2.394 . S
O320 C305 1.251 . S
O321 C305 1.251 1_554 S
O321 Eu307 2.374 . S
O322 C306 1.257 . S
O322 Eu307 2.473 . S
O323 C306 1.260 . S
O323 Eu307 2.480 . S
O324 Eu307 2.430 . S
O324 C314 1.259 . S
O325 Eu297 2.355 1_554 S
O325 Eu307 2.670 . S
O325 C314 1.270 . S
O326 Eu307 2.394 . S
O326 C315 1.251 . S
O327 Eu297 2.374 1_554 S
O327 C315 1.251 . S
H328 C299 0.931 . S
H329 C300 0.931 . S
H330 C302 0.931 . S
H331 C303 0.931 . S
H332 C309 0.931 . S
H333 C310 0.931 . S
H334 C312 0.931 . S
H335 C313 0.931 . S
C336 Eu337 2.835 . S
C336 C338 1.500 . S
C336 O356 1.257 . S
C336 O357 1.260 . S
Eu337 C336 2.835 . S
Eu337 O356 2.473 . S
Eu337 O357 2.480 . S
Eu337 O358 2.430 . S
Eu337 O359 2.670 . S
Eu337 O360 2.394 . S
Eu337 O365 2.355 . S
Eu337 O367 2.374 . S
C338 C336 1.500 . S
C338 C339 1.377 . S
C338 C343 1.377 . S
C339 C338 1.377 . S
C339 C340 1.395 . S
C339 H368 0.931 . S
C340 C339 1.395 . S
C340 C341 1.383 . S
C340 H369 0.931 . S
C341 C340 1.383 . S
C341 C342 1.394 . S
C342 C341 1.394 . S
C342 C343 1.378 . S
C342 H370 0.931 . S
C343 C338 1.377 . S
C343 C342 1.378 . S
C343 H371 0.931 . S
C344 O358 1.259 . S
C344 O359 1.270 . S
C345 O360 1.251 . S
C345 O361 1.251 . S
C346 Eu347 2.835 . S
C346 C348 1.500 . S
C346 O362 1.257 . S
C346 O363 1.260 . S
Eu347 C346 2.835 . S
Eu347 O359 2.355 . S
Eu347 O361 2.374 . S
Eu347 O362 2.473 . S
Eu347 O363 2.480 . S
Eu347 O364 2.430 . S
Eu347 O365 2.670 . S
Eu347 O366 2.394 . S
C348 C346 1.500 . S
C348 C349 1.377 . S
C348 C353 1.377 . S
C349 C348 1.377 . S
C349 C350 1.395 . S
C349 H372 0.931 . S
C350 C349 1.395 . S
C350 C351 1.383 . S
C350 H373 0.931 . S
C351 C350 1.383 . S
C351 C352 1.394 . S
C352 C351 1.394 . S
C352 C353 1.378 . S
C352 H374 0.931 . S
C353 C348 1.377 . S
C353 C352 1.378 . S
C353 H375 0.931 . S
C354 O364 1.259 . S
C354 O365 1.270 . S
C355 O366 1.251 . S
C355 O367 1.251 . S
O356 C336 1.257 . S
O356 Eu337 2.473 . S
O357 C336 1.260 . S
O357 Eu337 2.480 . S
O358 Eu337 2.430 . S
O358 C344 1.259 . S
O359 Eu337 2.670 . S
O359 C344 1.270 . S
O359 Eu347 2.355 . S
O360 Eu337 2.394 . S
O360 C345 1.251 . S
O361 C345 1.251 . S
O361 Eu347 2.374 . S
O362 C346 1.257 . S
O362 Eu347 2.473 . S
O363 C346 1.260 . S
O363 Eu347 2.480 . S
O364 Eu347 2.430 . S
O364 C354 1.259 . S
O365 Eu337 2.355 . S
O365 Eu347 2.670 . S
O365 C354 1.270 . S
O366 Eu347 2.394 . S
O366 C355 1.251 . S
O367 Eu337 2.374 . S
O367 C355 1.251 . S
H368 C339 0.931 . S
H369 C340 0.931 . S
H370 C342 0.931 . S
H371 C343 0.931 . S
H372 C349 0.931 . S
H373 C350 0.931 . S
H374 C352 0.931 . S
H375 C353 0.931 . S
C376 Eu377 2.835 . S
C376 C378 1.500 . S
C376 O396 1.257 . S
C376 O397 1.260 . S
Eu377 C376 2.835 . S
Eu377 O396 2.473 . S
Eu377 O397 2.480 . S
Eu377 O398 2.430 . S
Eu377 O399 2.670 . S
Eu377 O400 2.394 . S
Eu377 O405 2.355 . S
Eu377 O407 2.374 . S
C378 C376 1.500 . S
C378 C379 1.377 . S
C378 C383 1.377 . S
C379 C378 1.377 . S
C379 C380 1.395 . S
C379 H408 0.931 . S
C380 C379 1.395 . S
C380 C381 1.383 . S
C380 H409 0.931 . S
C381 C380 1.383 . S
C381 C382 1.394 . S
C382 C381 1.394 . S
C382 C383 1.378 . S
C382 H410 0.931 . S
C383 C378 1.377 . S
C383 C382 1.378 . S
C383 H411 0.931 . S
C384 O398 1.259 . S
C384 O399 1.270 . S
C385 O400 1.251 . S
C385 O401 1.251 . S
C386 Eu387 2.835 . S
C386 C388 1.500 . S
C386 O402 1.257 . S
C386 O403 1.260 . S
Eu387 C386 2.835 . S
Eu387 O399 2.355 . S
Eu387 O401 2.374 . S
Eu387 O402 2.473 . S
Eu387 O403 2.480 . S
Eu387 O404 2.430 . S
Eu387 O405 2.670 . S
Eu387 O406 2.394 . S
C388 C386 1.500 . S
C388 C389 1.377 . S
C388 C393 1.377 . S
C389 C388 1.377 . S
C389 C390 1.395 . S
C389 H412 0.931 . S
C390 C389 1.395 . S
C390 C391 1.383 . S
C390 H413 0.931 . S
C391 C390 1.383 . S
C391 C392 1.394 . S
C392 C391 1.394 . S
C392 C393 1.378 . S
C392 H414 0.931 . S
C393 C388 1.377 . S
C393 C392 1.378 . S
C393 H415 0.931 . S
C394 O404 1.259 . S
C394 O405 1.270 . S
C395 O406 1.251 . S
C395 O407 1.251 . S
O396 C376 1.257 . S
O396 Eu377 2.473 . S
O397 C376 1.260 . S
O397 Eu377 2.480 . S
O398 Eu377 2.430 . S
O398 C384 1.259 . S
O399 Eu377 2.670 . S
O399 C384 1.270 . S
O399 Eu387 2.355 . S
O400 Eu377 2.394 . S
O400 C385 1.251 . S
O401 C385 1.251 . S
O401 Eu387 2.374 . S
O402 C386 1.257 . S
O402 Eu387 2.473 . S
O403 C386 1.260 . S
O403 Eu387 2.480 . S
O404 Eu387 2.430 . S
O404 C394 1.259 . S
O405 Eu377 2.355 . S
O405 Eu387 2.670 . S
O405 C394 1.270 . S
O406 Eu387 2.394 . S
O406 C395 1.251 . S
O407 Eu377 2.374 . S
O407 C395 1.251 . S
H408 C379 0.931 . S
H409 C380 0.931 . S
H410 C382 0.931 . S
H411 C383 0.931 . S
H412 C389 0.931 . S
H413 C390 0.931 . S
H414 C392 0.931 . S
H415 C393 0.931 . S
C416 Eu417 2.835 . S
C416 C418 1.500 . S
C416 O436 1.257 . S
C416 O437 1.260 . S
Eu417 C416 2.835 . S
Eu417 O436 2.473 . S
Eu417 O437 2.480 . S
Eu417 O438 2.430 . S
Eu417 O439 2.670 . S
Eu417 O440 2.394 . S
Eu417 O445 2.355 . S
Eu417 O447 2.374 . S
C418 C416 1.500 . S
C418 C419 1.377 . S
C418 C423 1.377 . S
C419 C418 1.377 . S
C419 C420 1.395 . S
C419 H448 0.931 . S
C420 C419 1.395 . S
C420 C421 1.383 . S
C420 H449 0.931 . S
C421 C420 1.383 . S
C421 C422 1.394 . S
C422 C421 1.394 . S
C422 C423 1.378 . S
C422 H450 0.931 . S
C423 C418 1.377 . S
C423 C422 1.378 . S
C423 H451 0.931 . S
C424 O438 1.259 . S
C424 O439 1.270 . S
C425 O440 1.251 . S
C425 O441 1.251 . S
C426 Eu427 2.835 . S
C426 C428 1.500 . S
C426 O442 1.257 . S
C426 O443 1.260 . S
Eu427 C426 2.835 . S
Eu427 O439 2.355 . S
Eu427 O441 2.374 . S
Eu427 O442 2.473 . S
Eu427 O443 2.480 . S
Eu427 O444 2.430 . S
Eu427 O445 2.670 . S
Eu427 O446 2.394 . S
C428 C426 1.500 . S
C428 C429 1.377 . S
C428 C433 1.377 . S
C429 C428 1.377 . S
C429 C430 1.395 . S
C429 H452 0.931 . S
C430 C429 1.395 . S
C430 C431 1.383 . S
C430 H453 0.931 . S
C431 C430 1.383 . S
C431 C432 1.394 . S
C432 C431 1.394 . S
C432 C433 1.378 . S
C432 H454 0.931 . S
C433 C428 1.377 . S
C433 C432 1.378 . S
C433 H455 0.931 . S
C434 O444 1.259 . S
C434 O445 1.270 . S
C435 O446 1.251 . S
C435 O447 1.251 . S
O436 C416 1.257 . S
O436 Eu417 2.473 . S
O437 C416 1.260 . S
O437 Eu417 2.480 . S
O438 Eu417 2.430 . S
O438 C424 1.259 . S
O439 Eu417 2.670 . S
O439 C424 1.270 . S
O439 Eu427 2.355 . S
O440 Eu417 2.394 . S
O440 C425 1.251 . S
O441 C425 1.251 . S
O441 Eu427 2.374 . S
O442 C426 1.257 . S
O442 Eu427 2.473 . S
O443 C426 1.260 . S
O443 Eu427 2.480 . S
O444 Eu427 2.430 . S
O444 C434 1.259 . S
O445 Eu417 2.355 . S
O445 Eu427 2.670 . S
O445 C434 1.270 . S
O446 Eu427 2.394 . S
O446 C435 1.251 . S
O447 Eu417 2.374 . S
O447 C435 1.251 . S
H448 C419 0.931 . S
H449 C420 0.931 . S
H450 C422 0.931 . S
H451 C423 0.931 . S
H452 C429 0.931 . S
H453 C430 0.931 . S
H454 C432 0.931 . S
H455 C433 0.931 . S
C456 Eu457 2.835 . S
C456 C458 1.500 . S
C456 O476 1.257 . S
C456 O477 1.260 . S
Eu457 C456 2.835 . S
Eu457 O476 2.473 . S
Eu457 O477 2.480 . S
Eu457 O478 2.430 . S
Eu457 O479 2.670 . S
Eu457 O480 2.394 . S
Eu457 O485 2.355 . S
Eu457 O487 2.374 . S
C458 C456 1.500 . S
C458 C459 1.377 . S
C458 C463 1.377 . S
C459 C458 1.377 . S
C459 C460 1.395 . S
C459 H488 0.931 . S
C460 C459 1.395 . S
C460 C461 1.383 . S
C460 H489 0.931 . S
C461 C460 1.383 . S
C461 C462 1.394 . S
C462 C461 1.394 . S
C462 C463 1.378 . S
C462 H490 0.931 . S
C463 C458 1.377 . S
C463 C462 1.378 . S
C463 H491 0.931 . S
C464 O478 1.259 . S
C464 O479 1.270 . S
C465 O480 1.251 . S
C465 O481 1.251 . S
C466 Eu467 2.835 . S
C466 C468 1.500 . S
C466 O482 1.257 . S
C466 O483 1.260 . S
Eu467 C466 2.835 . S
Eu467 O479 2.355 . S
Eu467 O481 2.374 . S
Eu467 O482 2.473 . S
Eu467 O483 2.480 . S
Eu467 O484 2.430 . S
Eu467 O485 2.670 . S
Eu467 O486 2.394 . S
C468 C466 1.500 . S
C468 C469 1.377 . S
C468 C473 1.377 . S
C469 C468 1.377 . S
C469 C470 1.395 . S
C469 H492 0.931 . S
C470 C469 1.395 . S
C470 C471 1.383 . S
C470 H493 0.931 . S
C471 C470 1.383 . S
C471 C472 1.394 . S
C472 C471 1.394 . S
C472 C473 1.378 . S
C472 H494 0.931 . S
C473 C468 1.377 . S
C473 C472 1.378 . S
C473 H495 0.931 . S
C474 O484 1.259 . S
C474 O485 1.270 . S
C475 O486 1.251 . S
C475 O487 1.251 . S
O476 C456 1.257 . S
O476 Eu457 2.473 . S
O477 C456 1.260 . S
O477 Eu457 2.480 . S
O478 Eu457 2.430 . S
O478 C464 1.259 . S
O479 Eu457 2.670 . S
O479 C464 1.270 . S
O479 Eu467 2.355 . S
O480 Eu457 2.394 . S
O480 C465 1.251 . S
O481 C465 1.251 . S
O481 Eu467 2.374 . S
O482 C466 1.257 . S
O482 Eu467 2.473 . S
O483 C466 1.260 . S
O483 Eu467 2.480 . S
O484 Eu467 2.430 . S
O484 C474 1.259 . S
O485 Eu457 2.355 . S
O485 Eu467 2.670 . S
O485 C474 1.270 . S
O486 Eu467 2.394 . S
O486 C475 1.251 . S
O487 Eu457 2.374 . S
O487 C475 1.251 . S
H488 C459 0.931 . S
H489 C460 0.931 . S
H490 C462 0.931 . S
H491 C463 0.931 . S
H492 C469 0.931 . S
H493 C470 0.931 . S
H494 C472 0.931 . S
H495 C473 0.931 . S
C496 Eu497 2.835 . S
C496 C498 1.500 . S
C496 O516 1.257 . S
C496 O517 1.260 . S
Eu497 C496 2.835 . S
Eu497 O516 2.473 . S
Eu497 O517 2.480 . S
Eu497 O518 2.430 . S
Eu497 O519 2.670 . S
Eu497 O520 2.394 . S
Eu497 O525 2.355 . S
Eu497 O527 2.374 . S
C498 C496 1.500 . S
C498 C499 1.377 . S
C498 C503 1.377 . S
C499 C498 1.377 . S
C499 C500 1.395 . S
C499 H528 0.931 . S
C500 C499 1.395 . S
C500 C501 1.383 . S
C500 H529 0.931 . S
C501 C500 1.383 . S
C501 C502 1.394 . S
C502 C501 1.394 . S
C502 C503 1.378 . S
C502 H530 0.931 . S
C503 C498 1.377 . S
C503 C502 1.378 . S
C503 H531 0.931 . S
C504 O518 1.259 . S
C504 O519 1.270 . S
C505 O520 1.251 . S
C505 O521 1.251 . S
C506 Eu507 2.835 . S
C506 C508 1.500 . S
C506 O522 1.257 . S
C506 O523 1.260 . S
Eu507 C506 2.835 . S
Eu507 O519 2.355 . S
Eu507 O521 2.374 . S
Eu507 O522 2.473 . S
Eu507 O523 2.480 . S
Eu507 O524 2.430 . S
Eu507 O525 2.670 . S
Eu507 O526 2.394 . S
C508 C506 1.500 . S
C508 C509 1.377 . S
C508 C513 1.377 . S
C509 C508 1.377 . S
C509 C510 1.395 . S
C509 H532 0.931 . S
C510 C509 1.395 . S
C510 C511 1.383 . S
C510 H533 0.931 . S
C511 C510 1.383 . S
C511 C512 1.394 . S
C512 C511 1.394 . S
C512 C513 1.378 . S
C512 H534 0.931 . S
C513 C508 1.377 . S
C513 C512 1.378 . S
C513 H535 0.931 . S
C514 O524 1.259 . S
C514 O525 1.270 . S
C515 O526 1.251 . S
C515 O527 1.251 . S
O516 C496 1.257 . S
O516 Eu497 2.473 . S
O517 C496 1.260 . S
O517 Eu497 2.480 . S
O518 Eu497 2.430 . S
O518 C504 1.259 . S
O519 Eu497 2.670 . S
O519 C504 1.270 . S
O519 Eu507 2.355 . S
O520 Eu497 2.394 . S
O520 C505 1.251 . S
O521 C505 1.251 . S
O521 Eu507 2.374 . S
O522 C506 1.257 . S
O522 Eu507 2.473 . S
O523 C506 1.260 . S
O523 Eu507 2.480 . S
O524 Eu507 2.430 . S
O524 C514 1.259 . S
O525 Eu497 2.355 . S
O525 Eu507 2.670 . S
O525 C514 1.270 . S
O526 Eu507 2.394 . S
O526 C515 1.251 . S
O527 Eu497 2.374 . S
O527 C515 1.251 . S
H528 C499 0.931 . S
H529 C500 0.931 . S
H530 C502 0.931 . S
H531 C503 0.931 . S
H532 C509 0.931 . S
H533 C510 0.931 . S
H534 C512 0.931 . S
H535 C513 0.931 . S
C536 Eu537 2.835 . S
C536 C538 1.500 . S
C536 O556 1.257 . S
C536 O557 1.260 . S
Eu537 C536 2.835 . S
Eu537 O556 2.473 . S
Eu537 O557 2.480 . S
Eu537 O558 2.430 . S
Eu537 O559 2.670 . S
Eu537 O560 2.394 . S
Eu537 O565 2.355 . S
Eu537 O567 2.374 . S
C538 C536 1.500 . S
C538 C539 1.377 . S
C538 C543 1.377 . S
C539 C538 1.377 . S
C539 C540 1.395 . S
C539 H568 0.931 . S
C540 C539 1.395 . S
C540 C541 1.383 . S
C540 H569 0.931 . S
C541 C540 1.383 . S
C541 C542 1.394 . S
C542 C541 1.394 . S
C542 C543 1.378 . S
C542 H570 0.931 . S
C543 C538 1.377 . S
C543 C542 1.378 . S
C543 H571 0.931 . S
C544 O558 1.259 . S
C544 O559 1.270 . S
C545 O560 1.251 . S
C545 O561 1.251 . S
C546 Eu547 2.835 . S
C546 C548 1.500 . S
C546 O562 1.257 . S
C546 O563 1.260 . S
Eu547 C546 2.835 . S
Eu547 O559 2.355 . S
Eu547 O561 2.374 . S
Eu547 O562 2.473 . S
Eu547 O563 2.480 . S
Eu547 O564 2.430 . S
Eu547 O565 2.670 . S
Eu547 O566 2.394 . S
C548 C546 1.500 . S
C548 C549 1.377 . S
C548 C553 1.377 . S
C549 C548 1.377 . S
C549 C550 1.395 . S
C549 H572 0.931 . S
C550 C549 1.395 . S
C550 C551 1.383 . S
C550 H573 0.931 . S
C551 C550 1.383 . S
C551 C552 1.394 . S
C552 C551 1.394 . S
C552 C553 1.378 . S
C552 H574 0.931 . S
C553 C548 1.377 . S
C553 C552 1.378 . S
C553 H575 0.931 . S
C554 O564 1.259 . S
C554 O565 1.270 . S
C555 O566 1.251 . S
C555 O567 1.251 . S
O556 C536 1.257 . S
O556 Eu537 2.473 . S
O557 C536 1.260 . S
O557 Eu537 2.480 . S
O558 Eu537 2.430 . S
O558 C544 1.259 . S
O559 Eu537 2.670 . S
O559 C544 1.270 . S
O559 Eu547 2.355 . S
O560 Eu537 2.394 . S
O560 C545 1.251 . S
O561 C545 1.251 . S
O561 Eu547 2.374 . S
O562 C546 1.257 . S
O562 Eu547 2.473 . S
O563 C546 1.260 . S
O563 Eu547 2.480 . S
O564 Eu547 2.430 . S
O564 C554 1.259 . S
O565 Eu537 2.355 . S
O565 Eu547 2.670 . S
O565 C554 1.270 . S
O566 Eu547 2.394 . S
O566 C555 1.251 . S
O567 Eu537 2.374 . S
O567 C555 1.251 . S
H568 C539 0.931 . S
H569 C540 0.931 . S
H570 C542 0.931 . S
H571 C543 0.931 . S
H572 C549 0.931 . S
H573 C550 0.931 . S
H574 C552 0.931 . S
H575 C553 0.931 . S
H576 C582 0.930 . S
H577 C586 0.930 . S
H578 C591 0.929 . S
H579 C589 0.929 1_556 S
H580 C584 0.929 . S
H581 C590 0.929 . S
C582 H576 0.930 . S
C582 C583 1.367 . S
C582 C590 1.378 . S
C583 C582 1.367 . S
C583 C591 1.433 . S
C584 H580 0.929 . S
C584 C586 1.378 . S
C584 C588 1.350 . S
C585 C588 1.463 . S
C585 C590 1.350 . S
C585 N593 1.427 . S
C586 H577 0.930 . S
C586 C584 1.378 . S
C586 C587 1.367 . S
C587 C586 1.367 . S
C587 C589 1.433 . S
C588 C584 1.350 . S
C588 C585 1.463 . S
C588 N592 1.427 . S
C589 H579 0.929 1_554 S
C589 C587 1.433 . S
C589 N592 1.384 . S
C590 H581 0.929 . S
C590 C582 1.378 . S
C590 C585 1.350 . S
C591 H578 0.929 . S
C591 C583 1.433 . S
C591 N593 1.384 . S
N592 C588 1.427 . S
N592 C589 1.384 . S
N593 C585 1.427 . S
N593 C591 1.384 . S
H594 C600 0.930 . S
H595 C604 0.930 . S
H596 C609 0.929 . S
H597 C607 0.929 . S
H598 C602 0.929 . S
H599 C608 0.929 . S
C600 H594 0.930 . S
C600 C601 1.367 . S
C600 C608 1.378 . S
C601 C600 1.367 . S
C601 C609 1.433 . S
C602 H598 0.929 . S
C602 C604 1.378 . S
C602 C606 1.350 . S
C603 C606 1.463 . S
C603 C608 1.350 . S
C603 N611 1.427 . S
C604 H595 0.930 . S
C604 C602 1.378 . S
C604 C605 1.367 . S
C605 C604 1.367 . S
C605 C607 1.433 . S
C606 C602 1.350 . S
C606 C603 1.463 . S
C606 N610 1.427 . S
C607 H597 0.929 . S
C607 C605 1.433 . S
C607 N610 1.384 . S
C608 H599 0.929 . S
C608 C600 1.378 . S
C608 C603 1.350 . S
C609 H596 0.929 . S
C609 C601 1.433 . S
C609 N611 1.384 . S
N610 C606 1.427 . S
N610 C607 1.384 . S
N611 C603 1.427 . S
N611 C609 1.384 . S
H612 C618 0.930 . S
H613 C622 0.930 . S
H614 C627 0.929 . S
H615 C625 0.929 1_556 S
H616 C620 0.929 . S
H617 C626 0.929 . S
C618 H612 0.930 . S
C618 C619 1.367 . S
C618 C626 1.378 . S
C619 C618 1.367 . S
C619 C627 1.433 . S
C620 H616 0.929 . S
C620 C622 1.378 . S
C620 C624 1.350 . S
C621 C624 1.463 . S
C621 C626 1.350 . S
C621 N629 1.427 . S
C622 H613 0.930 . S
C622 C620 1.378 . S
C622 C623 1.367 . S
C623 C622 1.367 . S
C623 C625 1.433 . S
C624 C620 1.350 . S
C624 C621 1.463 . S
C624 N628 1.427 . S
C625 H615 0.929 1_554 S
C625 C623 1.433 . S
C625 N628 1.384 . S
C626 H617 0.929 . S
C626 C618 1.378 . S
C626 C621 1.350 . S
C627 H614 0.929 . S
C627 C619 1.433 . S
C627 N629 1.384 . S
N628 C624 1.427 . S
N628 C625 1.384 . S
N629 C621 1.427 . S
N629 C627 1.384 . S
H630 C636 0.930 . S
H631 C640 0.930 . S
H632 C645 0.929 . S
H633 C643 0.929 . S
H634 C638 0.929 . S
H635 C644 0.929 . S
C636 H630 0.930 . S
C636 C637 1.367 . S
C636 C644 1.378 . S
C637 C636 1.367 . S
C637 C645 1.433 . S
C638 H634 0.929 . S
C638 C640 1.378 . S
C638 C642 1.350 1_554 S
C639 C642 1.463 . S
C639 C644 1.350 . S
C639 N647 1.427 . S
C640 H631 0.930 . S
C640 C638 1.378 . S
C640 C641 1.367 1_554 S
C641 C640 1.367 1_556 S
C641 C643 1.433 . S
C642 C638 1.350 1_556 S
C642 C639 1.463 . S
C642 N646 1.427 . S
C643 H633 0.929 . S
C643 C641 1.433 . S
C643 N646 1.384 . S
C644 H635 0.929 . S
C644 C636 1.378 . S
C644 C639 1.350 . S
C645 H632 0.929 . S
C645 C637 1.433 . S
C645 N647 1.384 . S
N646 C642 1.427 . S
N646 C643 1.384 . S
N647 C639 1.427 . S
N647 C645 1.384 . S
H648 C654 0.930 . S
H649 C658 0.930 . S
H650 C663 0.929 . S
H651 C661 0.923 1_554 S
H652 C656 0.929 . S
H653 C662 0.929 . S
C654 H648 0.930 . S
C654 C655 1.367 . S
C654 C662 1.378 . S
C655 C654 1.367 . S
C655 C663 1.433 . S
C656 H652 0.929 . S
C656 C658 1.378 . S
C656 C660 1.350 . S
C657 C660 1.463 . S
C657 C662 1.350 . S
C657 N665 1.427 . S
C658 H649 0.930 . S
C658 C656 1.378 . S
C658 C659 1.367 . S
C659 C658 1.367 . S
C659 C661 1.437 . S
C660 C656 1.350 . S
C660 C657 1.463 . S
C660 N664 1.427 . S
C661 H651 0.923 1_556 S
C661 C659 1.437 . S
C661 N664 1.387 . S
C662 H653 0.929 . S
C662 C654 1.378 . S
C662 C657 1.350 . S
C663 H650 0.929 . S
C663 C655 1.433 . S
C663 N665 1.384 . S
N664 C660 1.427 . S
N664 C661 1.387 . S
N665 C657 1.427 . S
N665 C663 1.384 . S
H666 C672 0.930 . S
H667 C676 0.930 . S
H668 C681 0.929 1_554 S
H669 C679 0.929 . S
H670 C674 0.929 . S
H671 C680 0.929 . S
C672 H666 0.930 . S
C672 C673 1.367 . S
C672 C680 1.378 . S
C673 C672 1.367 . S
C673 C681 1.433 . S
C674 H670 0.929 . S
C674 C676 1.378 . S
C674 C678 1.350 1_554 S
C675 C678 1.463 . S
C675 C680 1.350 . S
C675 N683 1.427 1_556 S
C676 H667 0.930 . S
C676 C674 1.378 . S
C676 C677 1.370 1_554 S
C677 C676 1.370 1_556 S
C677 C679 1.429 . S
C678 C674 1.350 1_556 S
C678 C675 1.463 . S
C678 N682 1.427 . S
C679 H669 0.929 . S
C679 C677 1.429 . S
C679 N682 1.384 . S
C680 H671 0.929 . S
C680 C672 1.378 . S
C680 C675 1.350 . S
C681 H668 0.929 1_556 S
C681 C673 1.433 . S
C681 N683 1.384 1_556 S
N682 C678 1.427 . S
N682 C679 1.384 . S
N683 C675 1.427 1_554 S
N683 C681 1.384 1_554 S
H684 C690 0.930 . S
H685 C694 0.930 . S
H686 C699 0.929 . S
H687 C697 0.929 . S
H688 C692 0.929 . S
H689 C698 0.929 . S
C690 H684 0.930 . S
C690 C691 1.367 . S
C690 C698 1.378 . S
C691 C690 1.367 . S
C691 C699 1.433 . S
C692 H688 0.929 . S
C692 C694 1.378 . S
C692 C696 1.350 . S
C693 C696 1.463 . S
C693 C698 1.350 . S
C693 N701 1.427 . S
C694 H685 0.930 . S
C694 C692 1.378 . S
C694 C695 1.367 . S
C695 C694 1.367 . S
C695 C697 1.433 . S
C696 C692 1.350 . S
C696 C693 1.463 . S
C696 N700 1.427 . S
C697 H687 0.929 . S
C697 C695 1.433 . S
C697 N700 1.384 . S
C698 H689 0.929 . S
C698 C690 1.378 . S
C698 C693 1.350 . S
C699 H686 0.929 . S
C699 C691 1.433 . S
C699 N701 1.384 . S
N700 C696 1.427 . S
N700 C697 1.384 . S
N701 C693 1.427 . S
N701 C699 1.384 . S
H702 C708 0.930 . S
H703 C712 0.930 . S
H704 C717 0.929 . S
H705 C715 0.929 1_554 S
H706 C710 0.929 . S
H707 C716 0.929 . S
C708 H702 0.930 . S
C708 C709 1.367 . S
C708 C716 1.378 . S
C709 C708 1.367 . S
C709 C717 1.433 . S
C710 H706 0.929 . S
C710 C712 1.378 . S
C710 C714 1.350 . S
C711 C714 1.463 . S
C711 C716 1.350 . S
C711 N719 1.427 . S
C712 H703 0.930 . S
C712 C710 1.378 . S
C712 C713 1.367 . S
C713 C712 1.367 . S
C713 C715 1.433 . S
C714 C710 1.350 . S
C714 C711 1.463 . S
C714 N718 1.427 . S
C715 H705 0.929 1_556 S
C715 C713 1.433 . S
C715 N718 1.384 . S
C716 H707 0.929 . S
C716 C708 1.378 . S
C716 C711 1.350 . S
C717 H704 0.929 . S
C717 C709 1.433 . S
C717 N719 1.384 . S
N718 C714 1.427 . S
N718 C715 1.384 . S
N719 C711 1.427 . S
N719 C717 1.384 . S
H720 C726 0.930 . S
H721 C730 0.930 . S
H722 C735 0.929 . S
H723 C733 0.929 . S
H724 C728 0.929 . S
H725 C734 0.929 . S
C726 H720 0.930 . S
C726 C727 1.367 . S
C726 C734 1.378 . S
C727 C726 1.367 . S
C727 C735 1.433 1_556 S
C728 H724 0.929 . S
C728 C730 1.378 . S
C728 C732 1.350 1_554 S
C729 C732 1.463 . S
C729 C734 1.350 . S
C729 N737 1.427 1_556 S
C730 H721 0.930 . S
C730 C728 1.378 . S
C730 C731 1.367 . S
C731 C730 1.367 . S
C731 C733 1.433 1_554 S
C732 C728 1.350 1_556 S
C732 C729 1.463 . S
C732 N736 1.427 . S
C733 H723 0.929 . S
C733 C731 1.433 1_556 S
C733 N736 1.384 . S
C734 H725 0.929 . S
C734 C726 1.378 . S
C734 C729 1.350 . S
C735 H722 0.929 . S
C735 C727 1.433 1_554 S
C735 N737 1.384 . S
N736 C732 1.427 . S
N736 C733 1.384 . S
N737 C729 1.427 1_554 S
N737 C735 1.384 . S
H738 C744 0.930 . S
H739 C748 0.930 1_556 S
H740 C753 0.929 . S
H741 C751 0.929 . S
H742 C746 0.929 . S
H743 C752 0.929 . S
C744 H738 0.930 . S
C744 C745 1.367 . S
C744 C752 1.378 . S
C745 C744 1.367 . S
C745 C753 1.433 . S
C746 H742 0.929 . S
C746 C748 1.378 . S
C746 C750 1.350 . S
C747 C750 1.463 . S
C747 C752 1.350 . S
C747 N755 1.427 . S
C748 H739 0.930 1_554 S
C748 C746 1.378 . S
C748 C749 1.367 . S
C749 C748 1.367 . S
C749 C751 1.433 . S
C750 C746 1.350 . S
C750 C747 1.463 . S
C750 N754 1.427 . S
C751 H741 0.929 . S
C751 C749 1.433 . S
C751 N754 1.384 . S
C752 H743 0.929 . S
C752 C744 1.378 . S
C752 C747 1.350 . S
C753 H740 0.929 . S
C753 C745 1.433 . S
C753 N755 1.384 . S
N754 C750 1.427 . S
N754 C751 1.384 . S
N755 C747 1.427 . S
N755 C753 1.384 . S
H756 C762 0.930 . S
H757 C766 0.930 . S
H758 C771 0.929 . S
H759 C769 0.929 . S
H760 C764 0.929 . S
H761 C770 0.929 . S
C762 H756 0.930 . S
C762 C763 1.367 . S
C762 C770 1.378 . S
C763 C762 1.367 . S
C763 C771 1.433 . S
C764 H760 0.929 . S
C764 C766 1.378 . S
C764 C768 1.350 . S
C765 C768 1.463 . S
C765 C770 1.350 . S
C765 N773 1.427 . S
C766 H757 0.930 . S
C766 C764 1.378 . S
C766 C767 1.367 . S
C767 C766 1.367 . S
C767 C769 1.433 . S
C768 C764 1.350 . S
C768 C765 1.463 . S
C768 N772 1.427 . S
C769 H759 0.929 . S
C769 C767 1.433 . S
C769 N772 1.384 . S
C770 H761 0.929 . S
C770 C762 1.378 . S
C770 C765 1.350 . S
C771 H758 0.929 . S
C771 C763 1.433 . S
C771 N773 1.384 . S
N772 C768 1.427 . S
N772 C769 1.384 . S
N773 C765 1.427 . S
N773 C771 1.384 . S
H774 C780 0.930 . S
H775 C784 0.930 . S
H776 C789 0.929 . S
H777 C787 0.929 1_556 S
H778 C782 0.929 . S
H779 C788 0.929 . S
C780 H774 0.930 . S
C780 C781 1.367 . S
C780 C788 1.378 . S
C781 C780 1.367 . S
C781 C789 1.433 . S
C782 H778 0.929 . S
C782 C784 1.378 . S
C782 C786 1.350 . S
C783 C786 1.463 . S
C783 C788 1.350 . S
C783 N791 1.427 . S
C784 H775 0.930 . S
C784 C782 1.378 . S
C784 C785 1.367 . S
C785 C784 1.367 . S
C785 C787 1.433 . S
C786 C782 1.350 . S
C786 C783 1.463 . S
C786 N790 1.427 . S
C787 H777 0.929 1_554 S
C787 C785 1.433 . S
C787 N790 1.384 . S
C788 H779 0.929 . S
C788 C780 1.378 . S
C788 C783 1.350 . S
C789 H776 0.929 . S
C789 C781 1.433 . S
C789 N791 1.384 . S
N790 C786 1.427 . S
N790 C787 1.384 . S
N791 C783 1.427 . S
N791 C789 1.384 . S
H792 C798 0.930 . S
H793 C802 0.930 . S
H794 C807 0.929 . S
H795 C805 0.929 . S
H796 C800 0.929 . S
H797 C806 0.929 . S
C798 H792 0.930 . S
C798 C799 1.367 . S
C798 C806 1.378 . S
C799 C798 1.367 . S
C799 C807 1.433 . S
C800 H796 0.929 . S
C800 C802 1.378 . S
C800 C804 1.350 . S
C801 C804 1.463 1_655 S
C801 C806 1.350 . S
C801 N809 1.427 . S
C802 H793 0.930 . S
C802 C800 1.378 . S
C802 C803 1.367 . S
C803 C802 1.367 . S
C803 C805 1.433 . S
C804 C800 1.350 . S
C804 C801 1.463 1_455 S
C804 N808 1.427 . S
C805 H795 0.929 . S
C805 C803 1.433 . S
C805 N808 1.384 . S
C806 H797 0.929 . S
C806 C798 1.378 . S
C806 C801 1.350 . S
C807 H794 0.929 . S
C807 C799 1.433 . S
C807 N809 1.384 . S
N808 C804 1.427 . S
N808 C805 1.384 . S
N809 C801 1.427 . S
N809 C807 1.384 . S
H810 C816 0.930 . S
H811 C820 0.930 . S
H812 C825 0.929 . S
H813 C823 0.929 . S
H814 C818 0.929 . S
H815 C824 0.929 . S
C816 H810 0.930 . S
C816 C817 1.367 . S
C816 C824 1.378 . S
C817 C816 1.367 . S
C817 C825 1.433 . S
C818 H814 0.929 . S
C818 C820 1.378 . S
C818 C822 1.350 . S
C819 C822 1.463 . S
C819 C824 1.350 . S
C819 N827 1.427 . S
C820 H811 0.930 . S
C820 C818 1.378 . S
C820 C821 1.367 . S
C821 C820 1.367 . S
C821 C823 1.433 . S
C822 C818 1.350 . S
C822 C819 1.463 . S
C822 N826 1.427 . S
C823 H813 0.929 . S
C823 C821 1.433 . S
C823 N826 1.384 . S
C824 H815 0.929 . S
C824 C816 1.378 . S
C824 C819 1.350 . S
C825 H812 0.929 . S
C825 C817 1.433 . S
C825 N827 1.384 . S
N826 C822 1.427 . S
N826 C823 1.384 . S
N827 C819 1.427 . S
N827 C825 1.384 . S
H828 C834 0.930 . S
H829 C838 0.930 . S
H830 C843 0.929 . S
H831 C841 0.929 . S
H832 C836 0.929 1_545 S
H833 C842 0.929 . S
C834 H828 0.930 . S
C834 C835 1.367 . S
C834 C842 1.378 . S
C835 C834 1.367 . S
C835 C843 1.433 . S
C836 H832 0.929 1_565 S
C836 C838 1.378 . S
C836 C840 1.350 1_565 S
C837 C840 1.463 . S
C837 C842 1.350 . S
C837 N845 1.427 . S
C838 H829 0.930 . S
C838 C836 1.378 . S
C838 C839 1.367 . S
C839 C838 1.367 . S
C839 C841 1.433 . S
C840 C836 1.350 1_545 S
C840 C837 1.463 . S
C840 N844 1.427 1_545 S
C841 H831 0.929 . S
C841 C839 1.433 . S
C841 N844 1.384 . S
C842 H833 0.929 . S
C842 C834 1.378 . S
C842 C837 1.350 . S
C843 H830 0.929 . S
C843 C835 1.433 . S
C843 N845 1.384 . S
N844 C840 1.427 1_565 S
N844 C841 1.384 . S
N845 C837 1.427 . S
N845 C843 1.384 . S
H846 C852 0.930 . S
H847 C856 0.930 . S
H848 C861 0.929 . S
H849 C859 0.929 . S
H850 C854 0.929 . S
H851 C860 0.929 . S
C852 H846 0.930 . S
C852 C853 1.367 . S
C852 C860 1.378 . S
C853 C852 1.367 . S
C853 C861 1.433 . S
C854 H850 0.929 . S
C854 C856 1.378 . S
C854 C858 1.350 . S
C855 C858 1.463 . S
C855 C860 1.350 . S
C855 N863 1.427 . S
C856 H847 0.930 . S
C856 C854 1.378 . S
C856 C857 1.367 . S
C857 C856 1.367 . S
C857 C859 1.433 . S
C858 C854 1.350 . S
C858 C855 1.463 . S
C858 N862 1.427 . S
C859 H849 0.929 . S
C859 C857 1.433 . S
C859 N862 1.384 . S
C860 H851 0.929 . S
C860 C852 1.378 . S
C860 C855 1.350 . S
C861 H848 0.929 . S
C861 C853 1.433 . S
C861 N863 1.384 . S
N862 C858 1.427 . S
N862 C859 1.384 . S
N863 C855 1.427 . S
N863 C861 1.384 . S
H864 C870 0.930 . S
H865 C874 0.930 . S
H866 C879 0.929 . S
H867 C877 0.929 . S
H868 C872 0.929 . S
H869 C878 0.929 . S
C870 H864 0.930 . S
C870 C871 1.367 . S
C870 C878 1.378 . S
C871 C870 1.367 . S
C871 C879 1.433 . S
C872 H868 0.929 . S
C872 C874 1.378 . S
C872 C876 1.350 . S
C873 C876 1.463 . S
C873 C878 1.350 . S
C873 N881 1.427 . S
C874 H865 0.930 . S
C874 C872 1.378 . S
C874 C875 1.367 . S
C875 C874 1.367 . S
C875 C877 1.433 . S
C876 C872 1.350 . S
C876 C873 1.463 . S
C876 N880 1.427 . S
C877 H867 0.929 . S
C877 C875 1.433 . S
C877 N880 1.384 . S
C878 H869 0.929 . S
C878 C870 1.378 . S
C878 C873 1.350 . S
C879 H866 0.929 . S
C879 C871 1.433 . S
C879 N881 1.384 . S
N880 C876 1.427 . S
N880 C877 1.384 . S
N881 C873 1.427 . S
N881 C879 1.384 . S
H882 C888 0.930 . S
H883 C892 0.930 . S
H884 C897 0.929 . S
H885 C895 0.929 . S
H886 C890 0.929 . S
H887 C896 0.929 . S
C888 H882 0.930 . S
C888 C889 1.367 . S
C888 C896 1.378 . S
C889 C888 1.367 . S
C889 C897 1.433 . S
C890 H886 0.929 . S
C890 C892 1.378 . S
C890 C894 1.350 . S
C891 C894 1.463 . S
C891 C896 1.350 . S
C891 N899 1.427 . S
C892 H883 0.930 . S
C892 C890 1.378 . S
C892 C893 1.367 . S
C893 C892 1.367 . S
C893 C895 1.433 . S
C894 C890 1.350 . S
C894 C891 1.463 . S
C894 N898 1.427 . S
C895 H885 0.929 . S
C895 C893 1.433 . S
C895 N898 1.384 . S
C896 H887 0.929 . S
C896 C888 1.378 . S
C896 C891 1.350 . S
C897 H884 0.929 . S
C897 C889 1.433 . S
C897 N899 1.384 . S
N898 C894 1.427 . S
N898 C895 1.384 . S
N899 C891 1.427 . S
N899 C897 1.384 . S
H900 C906 0.930 . S
H901 C910 0.930 . S
H902 C915 0.929 . S
H903 C913 0.929 . S
H904 C908 0.929 . S
H905 C914 0.929 . S
C906 H900 0.930 . S
C906 C907 1.367 . S
C906 C914 1.378 . S
C907 C906 1.367 . S
C907 C915 1.433 . S
C908 H904 0.929 . S
C908 C910 1.378 . S
C908 C912 1.350 . S
C909 C912 1.463 . S
C909 C914 1.350 . S
C909 N917 1.427 . S
C910 H901 0.930 . S
C910 C908 1.378 . S
C910 C911 1.367 . S
C911 C910 1.367 . S
C911 C913 1.433 . S
C912 C908 1.350 . S
C912 C909 1.463 . S
C912 N916 1.427 . S
C913 H903 0.929 . S
C913 C911 1.433 . S
C913 N916 1.384 . S
C914 H905 0.929 . S
C914 C906 1.378 . S
C914 C909 1.350 . S
C915 H902 0.929 . S
C915 C907 1.433 . S
C915 N917 1.384 . S
N916 C912 1.427 . S
N916 C913 1.384 . S
N917 C909 1.427 . S
N917 C915 1.384 . S
H918 C924 0.930 . S
H919 C928 0.930 . S
H920 C933 0.929 . S
H921 C931 0.929 . S
H922 C926 0.929 . S
H923 C932 0.929 . S
C924 H918 0.930 . S
C924 C925 1.367 . S
C924 C932 1.378 . S
C925 C924 1.367 . S
C925 C933 1.433 . S
C926 H922 0.929 . S
C926 C928 1.378 . S
C926 C930 1.350 . S
C927 C930 1.463 . S
C927 C932 1.350 . S
C927 N935 1.427 . S
C928 H919 0.930 . S
C928 C926 1.378 . S
C928 C929 1.367 . S
C929 C928 1.367 . S
C929 C931 1.433 . S
C930 C926 1.350 . S
C930 C927 1.463 . S
C930 N934 1.427 . S
C931 H921 0.929 . S
C931 C929 1.433 . S
C931 N934 1.384 . S
C932 H923 0.929 . S
C932 C924 1.378 . S
C932 C927 1.350 . S
C933 H920 0.929 . S
C933 C925 1.433 . S
C933 N935 1.384 . S
N934 C930 1.427 . S
N934 C931 1.384 . S
N935 C927 1.427 . S
N935 C933 1.384 . S
H936 C942 0.930 . S
H937 C946 0.930 . S
H938 C951 0.929 . S
H939 C949 0.929 . S
H940 C944 0.929 . S
H941 C950 0.929 . S
C942 H936 0.930 . S
C942 C943 1.367 . S
C942 C950 1.378 . S
C943 C942 1.367 . S
C943 C951 1.433 . S
C944 H940 0.929 . S
C944 C946 1.378 . S
C944 C948 1.350 . S
C945 C948 1.463 . S
C945 C950 1.350 . S
C945 N953 1.427 . S
C946 H937 0.930 . S
C946 C944 1.378 . S
C946 C947 1.367 . S
C947 C946 1.367 . S
C947 C949 1.433 . S
C948 C944 1.350 . S
C948 C945 1.463 . S
C948 N952 1.427 . S
C949 H939 0.929 . S
C949 C947 1.433 . S
C949 N952 1.384 . S
C950 H941 0.929 . S
C950 C942 1.378 . S
C950 C945 1.350 . S
C951 H938 0.929 . S
C951 C943 1.433 . S
C951 N953 1.384 . S
N952 C948 1.427 . S
N952 C949 1.384 . S
N953 C945 1.427 . S
N953 C951 1.384 . S
H954 C960 0.930 . S
H955 C964 0.930 . S
H956 C969 0.929 . S
H957 C967 0.929 . S
H958 C962 0.929 . S
H959 C968 0.929 . S
C960 H954 0.930 . S
C960 C961 1.367 . S
C960 C968 1.378 1_545 S
C961 C960 1.367 . S
C961 C969 1.433 . S
C962 H958 0.929 . S
C962 C964 1.378 . S
C962 C966 1.350 . S
C963 C966 1.463 . S
C963 C968 1.350 . S
C963 N971 1.427 . S
C964 H955 0.930 . S
C964 C962 1.378 . S
C964 C965 1.367 . S
C965 C964 1.367 . S
C965 C967 1.433 . S
C966 C962 1.350 . S
C966 C963 1.463 . S
C966 N970 1.427 . S
C967 H957 0.929 . S
C967 C965 1.433 . S
C967 N970 1.384 . S
C968 H959 0.929 . S
C968 C960 1.378 1_565 S
C968 C963 1.350 . S
C969 H956 0.929 . S
C969 C961 1.433 . S
C969 N971 1.384 1_545 S
N970 C966 1.427 . S
N970 C967 1.384 . S
N971 C963 1.427 . S
N971 C969 1.384 1_565 S
H972 C978 0.930 . S
H973 C982 0.930 . S
H974 C987 0.929 . S
H975 C985 0.929 . S
H976 C980 0.929 . S
H977 C986 0.929 . S
C978 H972 0.930 . S
C978 C979 1.367 . S
C978 C986 1.378 1_655 S
C979 C978 1.367 . S
C979 C987 1.433 1_655 S
C980 H976 0.929 . S
C980 C982 1.378 . S
C980 C984 1.350 . S
C981 C984 1.463 . S
C981 C986 1.350 . S
C981 N989 1.427 . S
C982 H973 0.930 . S
C982 C980 1.378 . S
C982 C983 1.367 . S
C983 C982 1.367 . S
C983 C985 1.433 . S
C984 C980 1.350 . S
C984 C981 1.463 . S
C984 N988 1.427 . S
C985 H975 0.929 . S
C985 C983 1.433 . S
C985 N988 1.384 . S
C986 H977 0.929 . S
C986 C978 1.378 1_455 S
C986 C981 1.350 . S
C987 H974 0.929 . S
C987 C979 1.433 1_455 S
C987 N989 1.384 . S
N988 C984 1.427 . S
N988 C985 1.384 . S
N989 C981 1.427 . S
N989 C987 1.384 . S
H990 C996 0.930 . S
H991 C1000 0.930 . S
H992 C1005 0.929 . S
H993 C1003 0.929 . S
H994 C998 0.929 . S
H995 C1004 0.929 . S
C996 H990 0.930 . S
C996 C997 1.367 . S
C996 C1004 1.378 . S
C997 C996 1.367 . S
C997 C1005 1.433 . S
C998 H994 0.929 . S
C998 C1000 1.378 . S
C998 C1002 1.350 . S
C999 C1002 1.463 . S
C999 C1004 1.350 . S
C999 N1007 1.427 . S
C1000 H991 0.930 . S
C1000 C998 1.378 . S
C1000 C1001 1.367 . S
C1001 C1000 1.367 . S
C1001 C1003 1.433 . S
C1002 C998 1.350 . S
C1002 C999 1.463 . S
C1002 N1006 1.427 . S
C1003 H993 0.929 . S
C1003 C1001 1.433 . S
C1003 N1006 1.384 . S
C1004 H995 0.929 . S
C1004 C996 1.378 . S
C1004 C999 1.350 . S
C1005 H992 0.929 . S
C1005 C997 1.433 . S
C1005 N1007 1.384 . S
N1006 C1002 1.427 . S
N1006 C1003 1.384 . S
N1007 C999 1.427 . S
N1007 C1005 1.384 . S
H1008 C1014 0.930 . S
H1009 C1018 0.930 . S
H1010 C1023 0.929 . S
H1011 C1021 0.929 . S
H1012 C1016 0.929 . S
H1013 C1022 0.929 . S
C1014 H1008 0.930 . S
C1014 C1015 1.367 . S
C1014 C1022 1.378 . S
C1015 C1014 1.367 . S
C1015 C1023 1.433 . S
C1016 H1012 0.929 . S
C1016 C1018 1.378 . S
C1016 C1020 1.350 . S
C1017 C1020 1.463 . S
C1017 C1022 1.350 . S
C1017 N1025 1.427 . S
C1018 H1009 0.930 . S
C1018 C1016 1.378 . S
C1018 C1019 1.367 . S
C1019 C1018 1.367 . S
C1019 C1021 1.433 . S
C1020 C1016 1.350 . S
C1020 C1017 1.463 . S
C1020 N1024 1.427 . S
C1021 H1011 0.929 . S
C1021 C1019 1.433 . S
C1021 N1024 1.384 . S
C1022 H1013 0.929 . S
C1022 C1014 1.378 . S
C1022 C1017 1.350 . S
C1023 H1010 0.929 . S
C1023 C1015 1.433 . S
C1023 N1025 1.384 . S
N1024 C1020 1.427 . S
N1024 C1021 1.384 . S
N1025 C1017 1.427 . S
N1025 C1023 1.384 . S
H1026 C1032 0.930 . S
H1027 C1036 0.930 . S
H1028 C1041 0.929 . S
H1029 C1039 0.929 . S
H1030 C1034 0.929 . S
H1031 C1040 0.929 . S
C1032 H1026 0.930 . S
C1032 C1033 1.367 . S
C1032 C1040 1.378 . S
C1033 C1032 1.367 . S
C1033 C1041 1.433 . S
C1034 H1030 0.929 . S
C1034 C1036 1.378 . S
C1034 C1038 1.350 . S
C1035 C1038 1.463 . S
C1035 C1040 1.350 . S
C1035 N1043 1.427 . S
C1036 H1027 0.930 . S
C1036 C1034 1.378 . S
C1036 C1037 1.367 . S
C1037 C1036 1.367 . S
C1037 C1039 1.433 . S
C1038 C1034 1.350 . S
C1038 C1035 1.463 . S
C1038 N1042 1.427 . S
C1039 H1029 0.929 . S
C1039 C1037 1.433 . S
C1039 N1042 1.384 . S
C1040 H1031 0.929 . S
C1040 C1032 1.378 . S
C1040 C1035 1.350 . S
C1041 H1028 0.929 . S
C1041 C1033 1.433 . S
C1041 N1043 1.384 . S
N1042 C1038 1.427 . S
N1042 C1039 1.384 . S
N1043 C1035 1.427 . S
N1043 C1041 1.384 . S
H1044 C1050 0.930 . S
H1045 C1054 0.930 . S
H1046 C1059 0.929 . S
H1047 C1057 0.929 . S
H1048 C1052 0.929 . S
H1049 C1058 0.929 . S
C1050 H1044 0.930 . S
C1050 C1051 1.367 . S
C1050 C1058 1.378 . S
C1051 C1050 1.367 . S
C1051 C1059 1.433 . S
C1052 H1048 0.929 . S
C1052 C1054 1.378 . S
C1052 C1056 1.350 . S
C1053 C1056 1.463 . S
C1053 C1058 1.350 . S
C1053 N1061 1.427 . S
C1054 H1045 0.930 . S
C1054 C1052 1.378 . S
C1054 C1055 1.367 . S
C1055 C1054 1.367 . S
C1055 C1057 1.433 . S
C1056 C1052 1.350 . S
C1056 C1053 1.463 . S
C1056 N1060 1.427 . S
C1057 H1047 0.929 . S
C1057 C1055 1.433 . S
C1057 N1060 1.384 . S
C1058 H1049 0.929 . S
C1058 C1050 1.378 . S
C1058 C1053 1.350 . S
C1059 H1046 0.929 . S
C1059 C1051 1.433 . S
C1059 N1061 1.384 . S
N1060 C1056 1.427 . S
N1060 C1057 1.384 . S
N1061 C1053 1.427 . S
N1061 C1059 1.384 . S
H1062 C1068 0.930 . S
H1063 C1072 0.930 . S
H1064 C1077 0.929 . S
H1065 C1075 0.929 . S
H1066 C1070 0.929 . S
H1067 C1076 0.929 . S
C1068 H1062 0.930 . S
C1068 C1069 1.367 . S
C1068 C1076 1.378 . S
C1069 C1068 1.367 . S
C1069 C1077 1.433 . S
C1070 H1066 0.929 . S
C1070 C1072 1.378 . S
C1070 C1074 1.350 . S
C1071 C1074 1.463 1_565 S
C1071 C1076 1.350 . S
C1071 N1079 1.427 . S
C1072 H1063 0.930 . S
C1072 C1070 1.378 . S
C1072 C1073 1.367 . S
C1073 C1072 1.367 . S
C1073 C1075 1.433 . S
C1074 C1070 1.350 . S
C1074 C1071 1.463 1_545 S
C1074 N1078 1.427 . S
C1075 H1065 0.929 . S
C1075 C1073 1.433 . S
C1075 N1078 1.384 . S
C1076 H1067 0.929 . S
C1076 C1068 1.378 . S
C1076 C1071 1.350 . S
C1077 H1064 0.929 . S
C1077 C1069 1.433 . S
C1077 N1079 1.384 . S
N1078 C1074 1.427 . S
N1078 C1075 1.384 . S
N1079 C1071 1.427 . S
N1079 C1077 1.384 . S
H1080 C1086 0.930 . S
H1081 C1090 0.930 . S
H1082 C1095 0.929 . S
H1083 C1093 0.929 . S
H1084 C1088 0.929 . S
H1085 C1094 0.929 . S
C1086 H1080 0.930 . S
C1086 C1087 1.367 . S
C1086 C1094 1.378 . S
C1087 C1086 1.367 . S
C1087 C1095 1.433 . S
C1088 H1084 0.929 . S
C1088 C1090 1.378 . S
C1088 C1092 1.350 . S
C1089 C1092 1.463 1_455 S
C1089 C1094 1.350 . S
C1089 N1097 1.427 . S
C1090 H1081 0.930 . S
C1090 C1088 1.378 . S
C1090 C1091 1.367 . S
C1091 C1090 1.367 . S
C1091 C1093 1.433 . S
C1092 C1088 1.350 . S
C1092 C1089 1.463 1_655 S
C1092 N1096 1.427 . S
C1093 H1083 0.929 . S
C1093 C1091 1.433 . S
C1093 N1096 1.384 . S
C1094 H1085 0.929 . S
C1094 C1086 1.378 . S
C1094 C1089 1.350 . S
C1095 H1082 0.929 . S
C1095 C1087 1.433 . S
C1095 N1097 1.384 . S
N1096 C1092 1.427 . S
N1096 C1093 1.384 . S
N1097 C1089 1.427 . S
N1097 C1095 1.384 . S
H1098 C1104 0.930 . S
H1099 C1108 0.930 . S
H1100 C1113 0.929 . S
H1101 C1111 0.929 . S
H1102 C1106 0.929 . S
H1103 C1112 0.929 . S
C1104 H1098 0.930 . S
C1104 C1105 1.367 . S
C1104 C1112 1.378 . S
C1105 C1104 1.367 . S
C1105 C1113 1.433 . S
C1106 H1102 0.929 . S
C1106 C1108 1.378 . S
C1106 C1110 1.350 . S
C1107 C1110 1.463 . S
C1107 C1112 1.350 . S
C1107 N1115 1.427 . S
C1108 H1099 0.930 . S
C1108 C1106 1.378 . S
C1108 C1109 1.367 . S
C1109 C1108 1.367 . S
C1109 C1111 1.433 . S
C1110 C1106 1.350 . S
C1110 C1107 1.463 . S
C1110 N1114 1.427 . S
C1111 H1101 0.929 . S
C1111 C1109 1.433 . S
C1111 N1114 1.384 . S
C1112 H1103 0.929 . S
C1112 C1104 1.378 . S
C1112 C1107 1.350 . S
C1113 H1100 0.929 . S
C1113 C1105 1.433 . S
C1113 N1115 1.384 . S
N1114 C1110 1.427 . S
N1114 C1111 1.384 . S
N1115 C1107 1.427 . S
N1115 C1113 1.384 . S
H1116 C1122 0.930 . S
H1117 C1126 0.930 . S
H1118 C1131 0.929 . S
H1119 C1129 0.929 . S
H1120 C1124 0.929 . S
H1121 C1130 0.929 . S
C1122 H1116 0.930 . S
C1122 C1123 1.367 . S
C1122 C1130 1.378 1_455 S
C1123 C1122 1.367 . S
C1123 C1131 1.433 . S
C1124 H1120 0.929 . S
C1124 C1126 1.378 . S
C1124 C1128 1.350 . S
C1125 C1128 1.463 . S
C1125 C1130 1.350 . S
C1125 N1133 1.427 . S
C1126 H1117 0.930 . S
C1126 C1124 1.378 . S
C1126 C1127 1.367 . S
C1127 C1126 1.367 . S
C1127 C1129 1.433 . S
C1128 C1124 1.350 . S
C1128 C1125 1.463 . S
C1128 N1132 1.427 . S
C1129 H1119 0.929 . S
C1129 C1127 1.433 . S
C1129 N1132 1.384 . S
C1130 H1121 0.929 . S
C1130 C1122 1.378 1_655 S
C1130 C1125 1.350 . S
C1131 H1118 0.929 . S
C1131 C1123 1.433 . S
C1131 N1133 1.384 1_455 S
N1132 C1128 1.427 . S
N1132 C1129 1.384 . S
N1133 C1125 1.427 . S
N1133 C1131 1.384 1_655 S
H1134 C1140 0.930 . S
H1135 C1144 0.930 . S
H1136 C1149 0.929 . S
H1137 C1147 0.929 . S
H1138 C1142 0.929 . S
H1139 C1148 0.929 . S
C1140 H1134 0.930 . S
C1140 C1141 1.367 . S
C1140 C1148 1.378 . S
C1141 C1140 1.367 . S
C1141 C1149 1.433 . S
C1142 H1138 0.929 . S
C1142 C1144 1.378 . S
C1142 C1146 1.350 . S
C1143 C1146 1.463 . S
C1143 C1148 1.350 . S
C1143 N1151 1.427 . S
C1144 H1135 0.930 . S
C1144 C1142 1.378 . S
C1144 C1145 1.367 . S
C1145 C1144 1.367 . S
C1145 C1147 1.433 . S
C1146 C1142 1.350 . S
C1146 C1143 1.463 . S
C1146 N1150 1.427 . S
C1147 H1137 0.929 . S
C1147 C1145 1.433 . S
C1147 N1150 1.384 . S
C1148 H1139 0.929 . S
C1148 C1140 1.378 . S
C1148 C1143 1.350 . S
C1149 H1136 0.929 . S
C1149 C1141 1.433 . S
C1149 N1151 1.384 . S
N1150 C1146 1.427 . S
N1150 C1147 1.384 . S
N1151 C1143 1.427 . S
N1151 C1149 1.384 . S
H1152 C1158 0.930 . S
H1153 C1162 0.930 . S
H1154 C1167 0.929 . S
H1155 C1165 0.929 . S
H1156 C1160 0.929 . S
H1157 C1166 0.929 . S
C1158 H1152 0.930 . S
C1158 C1159 1.367 . S
C1158 C1166 1.378 1_565 S
C1159 C1158 1.367 . S
C1159 C1167 1.433 . S
C1160 H1156 0.929 . S
C1160 C1162 1.378 . S
C1160 C1164 1.350 . S
C1161 C1164 1.463 . S
C1161 C1166 1.350 . S
C1161 N1169 1.427 . S
C1162 H1153 0.930 . S
C1162 C1160 1.378 . S
C1162 C1163 1.367 . S
C1163 C1162 1.367 . S
C1163 C1165 1.433 . S
C1164 C1160 1.350 . S
C1164 C1161 1.463 . S
C1164 N1168 1.427 . S
C1165 H1155 0.929 . S
C1165 C1163 1.433 . S
C1165 N1168 1.384 . S
C1166 H1157 0.929 . S
C1166 C1158 1.378 1_545 S
C1166 C1161 1.350 . S
C1167 H1154 0.929 . S
C1167 C1159 1.433 . S
C1167 N1169 1.384 1_565 S
N1168 C1164 1.427 . S
N1168 C1165 1.384 . S
N1169 C1161 1.427 . S
N1169 C1167 1.384 1_545 S
H1170 C1176 0.930 . S
H1171 C1180 0.930 . S
H1172 C1185 0.929 . S
H1173 C1183 0.929 . S
H1174 C1178 0.929 . S
H1175 C1184 0.929 . S
C1176 H1170 0.930 . S
C1176 C1177 1.367 . S
C1176 C1184 1.378 . S
C1177 C1176 1.367 . S
C1177 C1185 1.433 . S
C1178 H1174 0.929 . S
C1178 C1180 1.378 . S
C1178 C1182 1.350 . S
C1179 C1182 1.463 . S
C1179 C1184 1.350 . S
C1179 N1187 1.427 . S
C1180 H1171 0.930 . S
C1180 C1178 1.378 . S
C1180 C1181 1.367 . S
C1181 C1180 1.367 . S
C1181 C1183 1.433 . S
C1182 C1178 1.350 . S
C1182 C1179 1.463 . S
C1182 N1186 1.427 . S
C1183 H1173 0.929 . S
C1183 C1181 1.433 . S
C1183 N1186 1.384 . S
C1184 H1175 0.929 . S
C1184 C1176 1.378 . S
C1184 C1179 1.350 . S
C1185 H1172 0.929 . S
C1185 C1177 1.433 . S
C1185 N1187 1.384 . S
N1186 C1182 1.427 . S
N1186 C1183 1.384 . S
N1187 C1179 1.427 . S
N1187 C1185 1.384 . S
H1188 C1194 0.930 . S
H1189 C1198 0.930 . S
H1190 C1203 0.929 . S
H1191 C1201 0.929 . S
H1192 C1196 0.929 . S
H1193 C1202 0.929 . S
C1194 H1188 0.930 . S
C1194 C1195 1.367 . S
C1194 C1202 1.378 . S
C1195 C1194 1.367 . S
C1195 C1203 1.433 . S
C1196 H1192 0.929 . S
C1196 C1198 1.378 . S
C1196 C1200 1.350 . S
C1197 C1200 1.463 . S
C1197 C1202 1.350 . S
C1197 N1205 1.427 . S
C1198 H1189 0.930 . S
C1198 C1196 1.378 . S
C1198 C1199 1.367 . S
C1199 C1198 1.367 . S
C1199 C1201 1.433 . S
C1200 C1196 1.350 . S
C1200 C1197 1.463 . S
C1200 N1204 1.427 . S
C1201 H1191 0.929 . S
C1201 C1199 1.433 . S
C1201 N1204 1.384 . S
C1202 H1193 0.929 . S
C1202 C1194 1.378 . S
C1202 C1197 1.350 . S
C1203 H1190 0.929 . S
C1203 C1195 1.433 . S
C1203 N1205 1.384 . S
N1204 C1200 1.427 . S
N1204 C1201 1.384 . S
N1205 C1197 1.427 . S
N1205 C1203 1.384 . S
H1206 C1212 0.930 . S
H1207 C1216 0.930 . S
H1208 C1221 0.929 . S
H1209 C1219 0.929 . S
H1210 C1214 0.929 . S
H1211 C1220 0.929 . S
C1212 H1206 0.930 . S
C1212 C1213 1.367 . S
C1212 C1220 1.378 . S
C1213 C1212 1.367 . S
C1213 C1221 1.433 . S
C1214 H1210 0.929 . S
C1214 C1216 1.378 . S
C1214 C1218 1.350 . S
C1215 C1218 1.463 . S
C1215 C1220 1.350 . S
C1215 N1223 1.427 . S
C1216 H1207 0.930 . S
C1216 C1214 1.378 . S
C1216 C1217 1.367 . S
C1217 C1216 1.367 . S
C1217 C1219 1.433 . S
C1218 C1214 1.350 . S
C1218 C1215 1.463 . S
C1218 N1222 1.427 . S
C1219 H1209 0.929 . S
C1219 C1217 1.433 . S
C1219 N1222 1.384 . S
C1220 H1211 0.929 . S
C1220 C1212 1.378 . S
C1220 C1215 1.350 . S
C1221 H1208 0.929 . S
C1221 C1213 1.433 . S
C1221 N1223 1.384 . S
N1222 C1218 1.427 . S
N1222 C1219 1.384 . S
N1223 C1215 1.427 . S
N1223 C1221 1.384 . S
H1224 C1230 0.930 . S
H1225 C1234 0.930 1_545 S
H1226 C1239 0.929 . S
H1227 C1237 0.929 . S
H1228 C1232 0.929 . S
H1229 C1238 0.929 . S
C1230 H1224 0.930 . S
C1230 C1231 1.367 . S
C1230 C1238 1.378 . S
C1231 C1230 1.367 . S
C1231 C1239 1.433 . S
C1232 H1228 0.929 . S
C1232 C1234 1.378 . S
C1232 C1236 1.350 . S
C1233 C1236 1.463 . S
C1233 C1238 1.350 . S
C1233 N1241 1.427 . S
C1234 H1225 0.930 1_565 S
C1234 C1232 1.378 . S
C1234 C1235 1.367 . S
C1235 C1234 1.367 . S
C1235 C1237 1.433 . S
C1236 C1232 1.350 . S
C1236 C1233 1.463 . S
C1236 N1240 1.427 . S
C1237 H1227 0.929 . S
C1237 C1235 1.433 . S
C1237 N1240 1.384 . S
C1238 H1229 0.929 . S
C1238 C1230 1.378 . S
C1238 C1233 1.350 . S
C1239 H1226 0.929 . S
C1239 C1231 1.433 . S
C1239 N1241 1.384 . S
N1240 C1236 1.427 . S
N1240 C1237 1.384 . S
N1241 C1233 1.427 . S
N1241 C1239 1.384 . S
H1242 C1248 0.930 . S
H1243 C1252 0.930 . S
H1244 C1257 0.929 . S
H1245 C1255 0.929 . S
H1246 C1250 0.929 . S
H1247 C1256 0.929 . S
C1248 H1242 0.930 . S
C1248 C1249 1.367 . S
C1248 C1256 1.378 . S
C1249 C1248 1.367 . S
C1249 C1257 1.433 . S
C1250 H1246 0.929 . S
C1250 C1252 1.378 . S
C1250 C1254 1.350 . S
C1251 C1254 1.463 . S
C1251 C1256 1.350 . S
C1251 N1259 1.427 . S
C1252 H1243 0.930 . S
C1252 C1250 1.378 . S
C1252 C1253 1.367 . S
C1253 C1252 1.367 . S
C1253 C1255 1.433 . S
C1254 C1250 1.350 . S
C1254 C1251 1.463 . S
C1254 N1258 1.427 . S
C1255 H1245 0.929 . S
C1255 C1253 1.433 . S
C1255 N1258 1.384 . S
C1256 H1247 0.929 . S
C1256 C1248 1.378 . S
C1256 C1251 1.350 . S
C1257 H1244 0.929 . S
C1257 C1249 1.433 . S
C1257 N1259 1.384 . S
N1258 C1254 1.427 . S
N1258 C1255 1.384 . S
N1259 C1251 1.427 . S
N1259 C1257 1.384 . S
H1260 C1266 0.930 . S
H1261 C1270 0.930 . S
H1262 C1275 0.929 . S
H1263 C1273 0.929 . S
H1264 C1268 0.929 . S
H1265 C1274 0.929 . S
C1266 H1260 0.930 . S
C1266 C1267 1.367 . S
C1266 C1274 1.378 . S
C1267 C1266 1.367 . S
C1267 C1275 1.433 . S
C1268 H1264 0.929 . S
C1268 C1270 1.378 . S
C1268 C1272 1.350 . S
C1269 C1272 1.463 . S
C1269 C1274 1.350 . S
C1269 N1277 1.427 . S
C1270 H1261 0.930 . S
C1270 C1268 1.378 . S
C1270 C1271 1.367 . S
C1271 C1270 1.367 . S
C1271 C1273 1.433 . S
C1272 C1268 1.350 . S
C1272 C1269 1.463 . S
C1272 N1276 1.427 . S
C1273 H1263 0.929 . S
C1273 C1271 1.433 . S
C1273 N1276 1.384 . S
C1274 H1265 0.929 . S
C1274 C1266 1.378 . S
C1274 C1269 1.350 . S
C1275 H1262 0.929 . S
C1275 C1267 1.433 . S
C1275 N1277 1.384 . S
N1276 C1272 1.427 . S
N1276 C1273 1.384 . S
N1277 C1269 1.427 . S
N1277 C1275 1.384 . S
H1278 C1284 0.930 . S
H1279 C1288 0.930 . S
H1280 C1293 0.929 . S
H1281 C1291 0.929 . S
H1282 C1286 0.929 . S
H1283 C1292 0.929 . S
C1284 H1278 0.930 . S
C1284 C1285 1.367 . S
C1284 C1292 1.378 . S
C1285 C1284 1.367 . S
C1285 C1293 1.433 . S
C1286 H1282 0.929 . S
C1286 C1288 1.378 . S
C1286 C1290 1.350 . S
C1287 C1290 1.463 . S
C1287 C1292 1.350 . S
C1287 N1295 1.427 . S
C1288 H1279 0.930 . S
C1288 C1286 1.378 . S
C1288 C1289 1.367 . S
C1289 C1288 1.367 . S
C1289 C1291 1.433 . S
C1290 C1286 1.350 . S
C1290 C1287 1.463 . S
C1290 N1294 1.427 . S
C1291 H1281 0.929 . S
C1291 C1289 1.433 . S
C1291 N1294 1.384 . S
C1292 H1283 0.929 . S
C1292 C1284 1.378 . S
C1292 C1287 1.350 . S
C1293 H1280 0.929 . S
C1293 C1285 1.433 . S
C1293 N1295 1.384 . S
N1294 C1290 1.427 . S
N1294 C1291 1.384 . S
N1295 C1287 1.427 . S
N1295 C1293 1.384 . S
H1296 C1302 0.930 . S
H1297 C1306 0.930 . S
H1298 C1311 0.929 . S
H1299 C1309 0.929 . S
H1300 C1304 0.929 . S
H1301 C1310 0.929 . S
C1302 H1296 0.930 . S
C1302 C1303 1.367 . S
C1302 C1310 1.378 . S
C1303 C1302 1.367 . S
C1303 C1311 1.433 . S
C1304 H1300 0.929 . S
C1304 C1306 1.378 . S
C1304 C1308 1.350 . S
C1305 C1308 1.463 . S
C1305 C1310 1.350 . S
C1305 N1313 1.427 . S
C1306 H1297 0.930 . S
C1306 C1304 1.378 . S
C1306 C1307 1.367 . S
C1307 C1306 1.367 . S
C1307 C1309 1.433 . S
C1308 C1304 1.350 . S
C1308 C1305 1.463 . S
C1308 N1312 1.427 . S
C1309 H1299 0.929 . S
C1309 C1307 1.433 . S
C1309 N1312 1.384 . S
C1310 H1301 0.929 . S
C1310 C1302 1.378 . S
C1310 C1305 1.350 . S
C1311 H1298 0.929 . S
C1311 C1303 1.433 . S
C1311 N1313 1.384 . S
N1312 C1308 1.427 . S
N1312 C1309 1.384 . S
N1313 C1305 1.427 . S
N1313 C1311 1.384 . S
H1314 C1320 0.930 . S
H1315 C1324 0.930 . S
H1316 C1329 0.929 . S
H1317 C1327 0.929 . S
H1318 C1322 0.929 . S
H1319 C1328 0.929 . S
C1320 H1314 0.930 . S
C1320 C1321 1.367 . S
C1320 C1328 1.378 . S
C1321 C1320 1.367 . S
C1321 C1329 1.433 . S
C1322 H1318 0.929 . S
C1322 C1324 1.378 . S
C1322 C1326 1.350 . S
C1323 C1326 1.463 . S
C1323 C1328 1.350 . S
C1323 N1331 1.427 . S
C1324 H1315 0.930 . S
C1324 C1322 1.378 . S
C1324 C1325 1.367 . S
C1325 C1324 1.367 . S
C1325 C1327 1.433 . S
C1326 C1322 1.350 . S
C1326 C1323 1.463 . S
C1326 N1330 1.427 . S
C1327 H1317 0.929 . S
C1327 C1325 1.433 . S
C1327 N1330 1.384 . S
C1328 H1319 0.929 . S
C1328 C1320 1.378 . S
C1328 C1323 1.350 . S
C1329 H1316 0.929 . S
C1329 C1321 1.433 . S
C1329 N1331 1.384 . S
N1330 C1326 1.427 . S
N1330 C1327 1.384 . S
N1331 C1323 1.427 . S
N1331 C1329 1.384 . S
H1332 C1338 0.930 . S
H1333 C1342 0.930 . S
H1334 C1347 0.929 . S
H1335 C1345 0.929 . S
H1336 C1340 0.929 . S
H1337 C1346 0.929 . S
C1338 H1332 0.930 . S
C1338 C1339 1.367 . S
C1338 C1346 1.378 . S
C1339 C1338 1.367 . S
C1339 C1347 1.433 . S
C1340 H1336 0.929 . S
C1340 C1342 1.378 . S
C1340 C1344 1.350 . S
C1341 C1344 1.463 . S
C1341 C1346 1.350 . S
C1341 N1349 1.427 . S
C1342 H1333 0.930 . S
C1342 C1340 1.378 . S
C1342 C1343 1.367 . S
C1343 C1342 1.367 . S
C1343 C1345 1.433 . S
C1344 C1340 1.350 . S
C1344 C1341 1.463 . S
C1344 N1348 1.427 . S
C1345 H1335 0.929 . S
C1345 C1343 1.433 . S
C1345 N1348 1.384 . S
C1346 H1337 0.929 . S
C1346 C1338 1.378 . S
C1346 C1341 1.350 . S
C1347 H1334 0.929 . S
C1347 C1339 1.433 . S
C1347 N1349 1.384 . S
N1348 C1344 1.427 . S
N1348 C1345 1.384 . S
N1349 C1341 1.427 . S
N1349 C1347 1.384 . S
H1350 C1356 0.930 . S
H1351 C1360 0.930 . S
H1352 C1365 0.929 . S
H1353 C1363 0.929 . S
H1354 C1358 0.929 . S
H1355 C1364 0.929 . S
C1356 H1350 0.930 . S
C1356 C1357 1.367 . S
C1356 C1364 1.378 . S
C1357 C1356 1.367 . S
C1357 C1365 1.433 . S
C1358 H1354 0.929 . S
C1358 C1360 1.378 . S
C1358 C1362 1.350 . S
C1359 C1362 1.463 . S
C1359 C1364 1.350 . S
C1359 N1367 1.427 . S
C1360 H1351 0.930 . S
C1360 C1358 1.378 . S
C1360 C1361 1.367 . S
C1361 C1360 1.367 . S
C1361 C1363 1.433 . S
C1362 C1358 1.350 . S
C1362 C1359 1.463 . S
C1362 N1366 1.427 . S
C1363 H1353 0.929 . S
C1363 C1361 1.433 . S
C1363 N1366 1.384 . S
C1364 H1355 0.929 . S
C1364 C1356 1.378 . S
C1364 C1359 1.350 . S
C1365 H1352 0.929 . S
C1365 C1357 1.433 . S
C1365 N1367 1.384 . S
N1366 C1362 1.427 . S
N1366 C1363 1.384 . S
N1367 C1359 1.427 . S
N1367 C1365 1.384 . S
H1368 C1374 0.930 . S
H1369 C1378 0.930 . S
H1370 C1383 0.929 . S
H1371 C1381 0.929 . S
H1372 C1376 0.929 . S
H1373 C1382 0.929 . S
C1374 H1368 0.930 . S
C1374 C1375 1.367 . S
C1374 C1382 1.378 . S
C1375 C1374 1.367 . S
C1375 C1383 1.433 . S
C1376 H1372 0.929 . S
C1376 C1378 1.378 . S
C1376 C1380 1.350 . S
C1377 C1380 1.463 . S
C1377 C1382 1.350 . S
C1377 N1385 1.427 . S
C1378 H1369 0.930 . S
C1378 C1376 1.378 . S
C1378 C1379 1.367 . S
C1379 C1378 1.367 . S
C1379 C1381 1.433 . S
C1380 C1376 1.350 . S
C1380 C1377 1.463 . S
C1380 N1384 1.427 . S
C1381 H1371 0.929 . S
C1381 C1379 1.433 . S
C1381 N1384 1.384 . S
C1382 H1373 0.929 . S
C1382 C1374 1.378 . S
C1382 C1377 1.350 . S
C1383 H1370 0.929 . S
C1383 C1375 1.433 . S
C1383 N1385 1.384 . S
N1384 C1380 1.427 . S
N1384 C1381 1.384 . S
N1385 C1377 1.427 . S
N1385 C1383 1.384 . S
H1386 C1392 0.930 . S
H1387 C1396 0.930 . S
H1388 C1401 0.929 . S
H1389 C1399 0.929 . S
H1390 C1394 0.929 . S
H1391 C1400 0.929 . S
C1392 H1386 0.930 . S
C1392 C1393 1.367 . S
C1392 C1400 1.378 . S
C1393 C1392 1.367 . S
C1393 C1401 1.433 . S
C1394 H1390 0.929 . S
C1394 C1396 1.378 . S
C1394 C1398 1.350 . S
C1395 C1398 1.463 . S
C1395 C1400 1.350 . S
C1395 N1403 1.427 . S
C1396 H1387 0.930 . S
C1396 C1394 1.378 . S
C1396 C1397 1.367 . S
C1397 C1396 1.367 . S
C1397 C1399 1.433 . S
C1398 C1394 1.350 . S
C1398 C1395 1.463 . S
C1398 N1402 1.427 . S
C1399 H1389 0.929 . S
C1399 C1397 1.433 . S
C1399 N1402 1.384 . S
C1400 H1391 0.929 . S
C1400 C1392 1.378 . S
C1400 C1395 1.350 . S
C1401 H1388 0.929 . S
C1401 C1393 1.433 . S
C1401 N1403 1.384 . S
N1402 C1398 1.427 . S
N1402 C1399 1.384 . S
N1403 C1395 1.427 . S
N1403 C1401 1.384 . S
H1404 C1410 0.930 . S
H1405 C1414 0.930 . S
H1406 C1419 0.929 . S
H1407 C1417 0.929 . S
H1408 C1412 0.929 . S
H1409 C1418 0.929 . S
C1410 H1404 0.930 . S
C1410 C1411 1.367 . S
C1410 C1418 1.378 . S
C1411 C1410 1.367 . S
C1411 C1419 1.433 . S
C1412 H1408 0.929 . S
C1412 C1414 1.378 . S
C1412 C1416 1.350 . S
C1413 C1416 1.463 . S
C1413 C1418 1.350 . S
C1413 N1421 1.427 . S
C1414 H1405 0.930 . S
C1414 C1412 1.378 . S
C1414 C1415 1.367 . S
C1415 C1414 1.367 . S
C1415 C1417 1.433 . S
C1416 C1412 1.350 . S
C1416 C1413 1.463 . S
C1416 N1420 1.427 . S
C1417 H1407 0.929 . S
C1417 C1415 1.433 . S
C1417 N1420 1.384 . S
C1418 H1409 0.929 . S
C1418 C1410 1.378 . S
C1418 C1413 1.350 . S
C1419 H1406 0.929 . S
C1419 C1411 1.433 . S
C1419 N1421 1.384 . S
N1420 C1416 1.427 . S
N1420 C1417 1.384 . S
N1421 C1413 1.427 . S
N1421 C1419 1.384 . S
H1422 C1428 0.930 . S
H1423 C1432 0.930 . S
H1424 C1437 0.929 . S
H1425 C1435 0.929 . S
H1426 C1430 0.929 . S
H1427 C1436 0.929 . S
C1428 H1422 0.930 . S
C1428 C1429 1.367 . S
C1428 C1436 1.378 . S
C1429 C1428 1.367 . S
C1429 C1437 1.433 . S
C1430 H1426 0.929 . S
C1430 C1432 1.378 . S
C1430 C1434 1.350 . S
C1431 C1434 1.463 . S
C1431 C1436 1.350 . S
C1431 N1439 1.427 . S
C1432 H1423 0.930 . S
C1432 C1430 1.378 . S
C1432 C1433 1.367 . S
C1433 C1432 1.367 . S
C1433 C1435 1.433 . S
C1434 C1430 1.350 . S
C1434 C1431 1.463 . S
C1434 N1438 1.427 . S
C1435 H1425 0.929 . S
C1435 C1433 1.433 . S
C1435 N1438 1.384 . S
C1436 H1427 0.929 . S
C1436 C1428 1.378 . S
C1436 C1431 1.350 . S
C1437 H1424 0.929 . S
C1437 C1429 1.433 . S
C1437 N1439 1.384 . S
N1438 C1434 1.427 . S
N1438 C1435 1.384 . S
N1439 C1431 1.427 . S
N1439 C1437 1.384 . S
H1440 C1446 0.930 . S
H1441 C1450 0.930 . S
H1442 C1455 0.929 . S
H1443 C1453 0.929 . S
H1444 C1448 0.929 . S
H1445 C1454 0.929 . S
C1446 H1440 0.930 . S
C1446 C1447 1.367 . S
C1446 C1454 1.378 . S
C1447 C1446 1.367 . S
C1447 C1455 1.433 . S
C1448 H1444 0.929 . S
C1448 C1450 1.378 . S
C1448 C1452 1.350 . S
C1449 C1452 1.463 . S
C1449 C1454 1.350 . S
C1449 N1457 1.427 . S
C1450 H1441 0.930 . S
C1450 C1448 1.378 . S
C1450 C1451 1.367 . S
C1451 C1450 1.367 . S
C1451 C1453 1.433 . S
C1452 C1448 1.350 . S
C1452 C1449 1.463 . S
C1452 N1456 1.427 . S
C1453 H1443 0.929 . S
C1453 C1451 1.433 . S
C1453 N1456 1.384 . S
C1454 H1445 0.929 . S
C1454 C1446 1.378 . S
C1454 C1449 1.350 . S
C1455 H1442 0.929 . S
C1455 C1447 1.433 . S
C1455 N1457 1.384 . S
N1456 C1452 1.427 . S
N1456 C1453 1.384 . S
N1457 C1449 1.427 . S
N1457 C1455 1.384 . S
H1458 C1464 0.930 . S
H1459 C1468 0.930 . S
H1460 C1473 0.929 . S
H1461 C1471 0.929 . S
H1462 C1466 0.929 . S
H1463 C1472 0.929 . S
C1464 H1458 0.930 . S
C1464 C1465 1.367 . S
C1464 C1472 1.378 . S
C1465 C1464 1.367 . S
C1465 C1473 1.433 . S
C1466 H1462 0.929 . S
C1466 C1468 1.378 . S
C1466 C1470 1.350 . S
C1467 C1470 1.463 . S
C1467 C1472 1.350 . S
C1467 N1475 1.427 . S
C1468 H1459 0.930 . S
C1468 C1466 1.378 . S
C1468 C1469 1.367 . S
C1469 C1468 1.367 . S
C1469 C1471 1.433 . S
C1470 C1466 1.350 . S
C1470 C1467 1.463 . S
C1470 N1474 1.427 . S
C1471 H1461 0.929 . S
C1471 C1469 1.433 . S
C1471 N1474 1.384 . S
C1472 H1463 0.929 . S
C1472 C1464 1.378 . S
C1472 C1467 1.350 . S
C1473 H1460 0.929 . S
C1473 C1465 1.433 . S
C1473 N1475 1.384 . S
N1474 C1470 1.427 . S
N1474 C1471 1.384 . S
N1475 C1467 1.427 . S
N1475 C1473 1.384 . S
H1476 C1482 0.930 . S
H1477 C1486 0.930 . S
H1478 C1491 0.929 . S
H1479 C1489 0.929 . S
H1480 C1484 0.929 . S
H1481 C1490 0.929 . S
C1482 H1476 0.930 . S
C1482 C1483 1.367 . S
C1482 C1490 1.378 . S
C1483 C1482 1.367 . S
C1483 C1491 1.433 . S
C1484 H1480 0.929 . S
C1484 C1486 1.378 . S
C1484 C1488 1.350 . S
C1485 C1488 1.463 . S
C1485 C1490 1.350 . S
C1485 N1493 1.427 . S
C1486 H1477 0.930 . S
C1486 C1484 1.378 . S
C1486 C1487 1.367 . S
C1487 C1486 1.367 . S
C1487 C1489 1.433 . S
C1488 C1484 1.350 . S
C1488 C1485 1.463 . S
C1488 N1492 1.427 . S
C1489 H1479 0.929 . S
C1489 C1487 1.433 . S
C1489 N1492 1.384 . S
C1490 H1481 0.929 . S
C1490 C1482 1.378 . S
C1490 C1485 1.350 . S
C1491 H1478 0.929 . S
C1491 C1483 1.433 . S
C1491 N1493 1.384 . S
N1492 C1488 1.427 . S
N1492 C1489 1.384 . S
N1493 C1485 1.427 . S
N1493 C1491 1.384 . S
H1494 C1500 0.930 . S
H1495 C1504 0.930 . S
H1496 C1509 0.929 . S
H1497 C1507 0.929 . S
H1498 C1502 0.929 . S
H1499 C1508 0.929 . S
C1500 H1494 0.930 . S
C1500 C1501 1.367 . S
C1500 C1508 1.378 . S
C1501 C1500 1.367 . S
C1501 C1509 1.433 . S
C1502 H1498 0.929 . S
C1502 C1504 1.378 . S
C1502 C1506 1.350 . S
C1503 C1506 1.463 . S
C1503 C1508 1.350 . S
C1503 N1511 1.427 . S
C1504 H1495 0.930 . S
C1504 C1502 1.378 . S
C1504 C1505 1.367 . S
C1505 C1504 1.367 . S
C1505 C1507 1.433 . S
C1506 C1502 1.350 . S
C1506 C1503 1.463 . S
C1506 N1510 1.427 . S
C1507 H1497 0.929 . S
C1507 C1505 1.433 . S
C1507 N1510 1.384 . S
C1508 H1499 0.929 . S
C1508 C1500 1.378 . S
C1508 C1503 1.350 . S
C1509 H1496 0.929 . S
C1509 C1501 1.433 . S
C1509 N1511 1.384 . S
N1510 C1506 1.427 . S
N1510 C1507 1.384 . S
N1511 C1503 1.427 . S
N1511 C1509 1.384 . S
H1512 C1518 0.930 . S
H1513 C1522 0.930 . S
H1514 C1527 0.929 . S
H1515 C1525 0.929 . S
H1516 C1520 0.929 . S
H1517 C1526 0.929 . S
C1518 H1512 0.930 . S
C1518 C1519 1.367 . S
C1518 C1526 1.378 . S
C1519 C1518 1.367 . S
C1519 C1527 1.433 . S
C1520 H1516 0.929 . S
C1520 C1522 1.378 . S
C1520 C1524 1.350 . S
C1521 C1524 1.463 . S
C1521 C1526 1.350 . S
C1521 N1529 1.427 . S
C1522 H1513 0.930 . S
C1522 C1520 1.378 . S
C1522 C1523 1.367 . S
C1523 C1522 1.367 . S
C1523 C1525 1.433 . S
C1524 C1520 1.350 . S
C1524 C1521 1.463 . S
C1524 N1528 1.427 . S
C1525 H1515 0.929 . S
C1525 C1523 1.433 . S
C1525 N1528 1.384 . S
C1526 H1517 0.929 . S
C1526 C1518 1.378 . S
C1526 C1521 1.350 . S
C1527 H1514 0.929 . S
C1527 C1519 1.433 . S
C1527 N1529 1.384 . S
N1528 C1524 1.427 . S
N1528 C1525 1.384 . S
N1529 C1521 1.427 . S
N1529 C1527 1.384 . S
H1530 C1536 0.930 . S
H1531 C1540 0.930 . S
H1532 C1545 0.929 . S
H1533 C1543 0.929 . S
H1534 C1538 0.929 . S
H1535 C1544 0.929 . S
C1536 H1530 0.930 . S
C1536 C1537 1.367 . S
C1536 C1544 1.378 . S
C1537 C1536 1.367 . S
C1537 C1545 1.433 . S
C1538 H1534 0.929 . S
C1538 C1540 1.378 . S
C1538 C1542 1.350 . S
C1539 C1542 1.463 . S
C1539 C1544 1.350 . S
C1539 N1547 1.427 . S
C1540 H1531 0.930 . S
C1540 C1538 1.378 . S
C1540 C1541 1.367 . S
C1541 C1540 1.367 . S
C1541 C1543 1.433 . S
C1542 C1538 1.350 . S
C1542 C1539 1.463 . S
C1542 N1546 1.427 . S
C1543 H1533 0.929 . S
C1543 C1541 1.433 . S
C1543 N1546 1.384 . S
C1544 H1535 0.929 . S
C1544 C1536 1.378 . S
C1544 C1539 1.350 . S
C1545 H1532 0.929 . S
C1545 C1537 1.433 . S
C1545 N1547 1.384 . S
N1546 C1542 1.427 . S
N1546 C1543 1.384 . S
N1547 C1539 1.427 . S
N1547 C1545 1.384 . S
C583 C162 1.664 . S
C587 C225 1.657 . S
C601 C174 1.783 . S
C605 C265 1.773 . S
C619 C150 1.601 . S
C623 C304 1.566 . S
C637 C138 1.478 . S
C641 C264 1.433 1_556 S
C659 C305 1.499 . S
C655 C114 1.504 . S
C673 C126 1.359 . S
C677 C224 1.339 1_556 S
C695 C235 1.632 . S
C691 C136 1.640 . S
C713 C275 1.639 . S
C709 C112 1.650 . S
C727 C124 1.634 . S
C731 C314 1.661 . S
C745 C160 1.492 . S
C749 C274 1.499 . S
C763 C172 1.452 . S
C767 C315 1.438 . S
C785 C234 1.481 . S
C781 C148 1.460 . S
C803 C345 1.653 . S
C799 C18 1.661 . S
C817 C30 1.784 . S
C821 C385 1.776 . S
C835 C6 1.592 . S
C839 C424 1.556 . S
C853 C210 1.485 . S
C857 C384 1.441 . S
C871 C186 1.503 . S
C875 C425 1.500 . S
C889 C198 1.359 . S
C893 C344 1.337 . S
C907 C208 1.636 . S
C911 C355 1.622 . S
C925 C184 1.640 . S
C929 C395 1.632 . S
C947 C434 1.661 . S
C943 C196 1.634 . S
C961 C16 1.501 . S
C965 C394 1.511 . S
C983 C435 1.443 . S
C979 C28 1.458 . S
C997 C4 1.448 . S
C1001 C354 1.473 . S
C1019 C465 1.658 . S
C1015 C90 1.663 . S
C1033 C102 1.782 . S
C1037 C505 1.776 . S
C1055 C544 1.561 . S
C1051 C78 1.593 . S
C1073 C504 1.445 . S
C1069 C66 1.484 . S
C1091 C545 1.500 . S
C1087 C42 1.504 . S
C1105 C54 1.359 . S
C1109 C464 1.337 . S
C1123 C64 1.638 . S
C1127 C475 1.623 . S
C1141 C40 1.640 . S
C1145 C515 1.633 . S
C1163 C554 1.672 . S
C1159 C52 1.648 . S
C1177 C88 1.495 . S
C1181 C514 1.500 . S
C1195 C100 1.450 . S
C1199 C555 1.433 . S
C1213 C76 1.460 . S
C1217 C474 1.483 . S
C1231 C189 1.513 . S
C1235 C221 1.503 . S
C1253 C261 1.928 . S
C1249 C201 1.933 . S
C1267 C213 1.570 . S
C1271 C311 1.582 . S
C1285 C81 1.775 . S
C1289 C271 1.785 . S
C1303 C93 1.684 . S
C1307 C301 1.684 . S
C1325 C231 1.330 . S
C1321 C105 1.324 . S
C1339 C45 1.513 . S
C1343 C341 1.503 . S
C1357 C57 1.936 . S
C1361 C381 1.931 . S
C1375 C69 1.569 . S
C1379 C431 1.582 . S
C1393 C153 1.770 . S
C1397 C391 1.783 . S
C1415 C421 1.686 . S
C1411 C165 1.688 . S
C1429 C177 1.323 . S
C1433 C351 1.329 . S
C1447 C117 1.511 . S
C1451 C461 1.499 . S
C1465 C129 1.941 . S
C1469 C501 1.935 . S
C1487 C551 1.582 . S
C1483 C141 1.570 . S
C1501 C9 1.773 . S
C1505 C511 1.786 . S
C1519 C21 1.690 . S
C1523 C541 1.688 . S
C1537 C33 1.321 . S
C1541 C471 1.330 . S
