# Generated by pormake.
# Topology eea, (3,6)-cn, num edge types: 1
# Building blocks:
#     Node 0, Type 0, BuildingBlock: QEWDON_clean_linker_0, # of connection points: 3
#     Node 1, Type 0, BuildingBlock: QEWDON_clean_linker_0, # of connection points: 3
#     Node 2, Type 0, BuildingBlock: QEWDON_clean_linker_0, # of connection points: 3
#     Node 3, Type 0, BuildingBlock: QEWDON_clean_linker_0, # of connection points: 3
#     Node 4, Type 0, BuildingBlock: QEWDON_clean_linker_0, # of connection points: 3
#     Node 5, Type 0, BuildingBlock: QEWDON_clean_linker_0, # of connection points: 3
#     Node 6, Type 0, BuildingBlock: QEWDON_clean_linker_0, # of connection points: 3
#     Node 7, Type 0, BuildingBlock: QEWDON_clean_linker_0, # of connection points: 3
#     Node 8, Type 0, BuildingBlock: QEWDON_clean_linker_0, # of connection points: 3
#     Node 9, Type 0, BuildingBlock: QEWDON_clean_linker_0, # of connection points: 3
#     Node 10, Type 0, BuildingBlock: QEWDON_clean_linker_0, # of connection points: 3
#     Node 11, Type 0, BuildingBlock: QEWDON_clean_linker_0, # of connection points: 3
#     Node 12, Type 0, BuildingBlock: QEWDON_clean_linker_0, # of connection points: 3
#     Node 13, Type 0, BuildingBlock: QEWDON_clean_linker_0, # of connection points: 3
#     Node 14, Type 0, BuildingBlock: QEWDON_clean_linker_0, # of connection points: 3
#     Node 15, Type 0, BuildingBlock: QEWDON_clean_linker_0, # of connection points: 3
#     Node 16, Type 0, BuildingBlock: QEWDON_clean_linker_0, # of connection points: 3
#     Node 17, Type 0, BuildingBlock: QEWDON_clean_linker_0, # of connection points: 3
#     Node 18, Type 1, BuildingBlock: KUMJIN_clean_sbu_0, # of connection points: 6
#     Node 19, Type 1, BuildingBlock: KUMJIN_clean_sbu_0, # of connection points: 6
#     Node 20, Type 1, BuildingBlock: KUMJIN_clean_sbu_0, # of connection points: 6
#     Node 21, Type 1, BuildingBlock: KUMJIN_clean_sbu_0, # of connection points: 6
#     Node 22, Type 1, BuildingBlock: KUMJIN_clean_sbu_0, # of connection points: 6
#     Node 23, Type 1, BuildingBlock: KUMJIN_clean_sbu_0, # of connection points: 6
#     Node 24, Type 1, BuildingBlock: KUMJIN_clean_sbu_0, # of connection points: 6
#     Node 25, Type 1, BuildingBlock: KUMJIN_clean_sbu_0, # of connection points: 6
#     Node 26, Type 1, BuildingBlock: KUMJIN_clean_sbu_0, # of connection points: 6
#     Edge 27, Type (0, 1), BuildingBlock: UVAHIK_clean_linker_0, # of connection points: 2
#     Edge 28, Type (0, 1), BuildingBlock: UVAHIK_clean_linker_0, # of connection points: 2
#     Edge 29, Type (0, 1), BuildingBlock: UVAHIK_clean_linker_0, # of connection points: 2
#     Edge 30, Type (0, 1), BuildingBlock: UVAHIK_clean_linker_0, # of connection points: 2
#     Edge 31, Type (0, 1), BuildingBlock: UVAHIK_clean_linker_0, # of connection points: 2
#     Edge 32, Type (0, 1), BuildingBlock: UVAHIK_clean_linker_0, # of connection points: 2
#     Edge 33, Type (0, 1), BuildingBlock: UVAHIK_clean_linker_0, # of connection points: 2
#     Edge 34, Type (0, 1), BuildingBlock: UVAHIK_clean_linker_0, # of connection points: 2
#     Edge 35, Type (0, 1), BuildingBlock: UVAHIK_clean_linker_0, # of connection points: 2
#     Edge 36, Type (0, 1), BuildingBlock: UVAHIK_clean_linker_0, # of connection points: 2
#     Edge 37, Type (0, 1), BuildingBlock: UVAHIK_clean_linker_0, # of connection points: 2
#     Edge 38, Type (0, 1), BuildingBlock: UVAHIK_clean_linker_0, # of connection points: 2
#     Edge 39, Type (0, 1), BuildingBlock: UVAHIK_clean_linker_0, # of connection points: 2
#     Edge 40, Type (0, 1), BuildingBlock: UVAHIK_clean_linker_0, # of connection points: 2
#     Edge 41, Type (0, 1), BuildingBlock: UVAHIK_clean_linker_0, # of connection points: 2
#     Edge 42, Type (0, 1), BuildingBlock: UVAHIK_clean_linker_0, # of connection points: 2
#     Edge 43, Type (0, 1), BuildingBlock: UVAHIK_clean_linker_0, # of connection points: 2
#     Edge 44, Type (0, 1), BuildingBlock: UVAHIK_clean_linker_0, # of connection points: 2
#     Edge 45, Type (0, 1), BuildingBlock: UVAHIK_clean_linker_0, # of connection points: 2
#     Edge 46, Type (0, 1), BuildingBlock: UVAHIK_clean_linker_0, # of connection points: 2
#     Edge 47, Type (0, 1), BuildingBlock: UVAHIK_clean_linker_0, # of connection points: 2
#     Edge 48, Type (0, 1), BuildingBlock: UVAHIK_clean_linker_0, # of connection points: 2
#     Edge 49, Type (0, 1), BuildingBlock: UVAHIK_clean_linker_0, # of connection points: 2
#     Edge 50, Type (0, 1), BuildingBlock: UVAHIK_clean_linker_0, # of connection points: 2
#     Edge 51, Type (0, 1), BuildingBlock: UVAHIK_clean_linker_0, # of connection points: 2
#     Edge 52, Type (0, 1), BuildingBlock: UVAHIK_clean_linker_0, # of connection points: 2
#     Edge 53, Type (0, 1), BuildingBlock: UVAHIK_clean_linker_0, # of connection points: 2
#     Edge 54, Type (0, 1), BuildingBlock: UVAHIK_clean_linker_0, # of connection points: 2
#     Edge 55, Type (0, 1), BuildingBlock: UVAHIK_clean_linker_0, # of connection points: 2
#     Edge 56, Type (0, 1), BuildingBlock: UVAHIK_clean_linker_0, # of connection points: 2
#     Edge 57, Type (0, 1), BuildingBlock: UVAHIK_clean_linker_0, # of connection points: 2
#     Edge 58, Type (0, 1), BuildingBlock: UVAHIK_clean_linker_0, # of connection points: 2
#     Edge 59, Type (0, 1), BuildingBlock: UVAHIK_clean_linker_0, # of connection points: 2
#     Edge 60, Type (0, 1), BuildingBlock: UVAHIK_clean_linker_0, # of connection points: 2
#     Edge 61, Type (0, 1), BuildingBlock: UVAHIK_clean_linker_0, # of connection points: 2
#     Edge 62, Type (0, 1), BuildingBlock: UVAHIK_clean_linker_0, # of connection points: 2
#     Edge 63, Type (0, 1), BuildingBlock: UVAHIK_clean_linker_0, # of connection points: 2
#     Edge 64, Type (0, 1), BuildingBlock: UVAHIK_clean_linker_0, # of connection points: 2
#     Edge 65, Type (0, 1), BuildingBlock: UVAHIK_clean_linker_0, # of connection points: 2
#     Edge 66, Type (0, 1), BuildingBlock: UVAHIK_clean_linker_0, # of connection points: 2
#     Edge 67, Type (0, 1), BuildingBlock: UVAHIK_clean_linker_0, # of connection points: 2
#     Edge 68, Type (0, 1), BuildingBlock: UVAHIK_clean_linker_0, # of connection points: 2
#     Edge 69, Type (0, 1), BuildingBlock: UVAHIK_clean_linker_0, # of connection points: 2
#     Edge 70, Type (0, 1), BuildingBlock: UVAHIK_clean_linker_0, # of connection points: 2
#     Edge 71, Type (0, 1), BuildingBlock: UVAHIK_clean_linker_0, # of connection points: 2
#     Edge 72, Type (0, 1), BuildingBlock: UVAHIK_clean_linker_0, # of connection points: 2
#     Edge 73, Type (0, 1), BuildingBlock: UVAHIK_clean_linker_0, # of connection points: 2
#     Edge 74, Type (0, 1), BuildingBlock: UVAHIK_clean_linker_0, # of connection points: 2
#     Edge 75, Type (0, 1), BuildingBlock: UVAHIK_clean_linker_0, # of connection points: 2
#     Edge 76, Type (0, 1), BuildingBlock: UVAHIK_clean_linker_0, # of connection points: 2
#     Edge 77, Type (0, 1), BuildingBlock: UVAHIK_clean_linker_0, # of connection points: 2
#     Edge 78, Type (0, 1), BuildingBlock: UVAHIK_clean_linker_0, # of connection points: 2
#     Edge 79, Type (0, 1), BuildingBlock: UVAHIK_clean_linker_0, # of connection points: 2
#     Edge 80, Type (0, 1), BuildingBlock: UVAHIK_clean_linker_0, # of connection points: 2
# Relax obj value: 0.043
# Max RMSD: 0.201
# Mean RMSD: 0.145
data_MOF--net-eea--node1-KUMJIN_clean_sbu_0--node2-QEWDON_clean_linker_0--edge1-UVAHIK_clean_linker_0
_symmetry_space_group_name_H-M    P1
_symmetry_Int_Tables_number       1
_symmetry_cell_setting            triclinic
loop_
_symmetry_equiv_pos_as_xyz
'x, y, z'
_cell_length_a     74.802213
_cell_length_b     76.23038
_cell_length_c     78.326317
_cell_angle_alpha  90.203117
_cell_angle_beta   90.206139
_cell_angle_gamma 119.91206
loop_
_atom_site_label
_atom_site_type_symbol
_atom_site_fract_x
_atom_site_fract_y
_atom_site_fract_z
_atom_type_partial_charge
H0 H 0.2023 0.11361 0.42804 0.0
C1 C 0.20404 0.1024 0.42081 0.0
C2 C 0.21901 0.0974 0.42571 0.0
C3 C 0.19074 0.09236 0.40703 0.0
H4 H 0.23155 0.07785 0.42103 0.0
C5 C 0.22067 0.08234 0.41663 0.0
C6 C 0.20743 0.07209 0.40281 0.0
C7 C 0.1927 0.07749 0.39798 0.0
C8 C 0.17361 0.09606 0.40287 0.0
H9 H 0.18247 0.06997 0.38725 0.0
C10 C 0.17733 0.11562 0.39905 0.0
C11 C 0.16088 0.11875 0.39453 0.0
C12 C 0.1533 0.07972 0.4025 0.0
H13 H 0.15011 0.06456 0.40551 0.0
C14 C 0.13694 0.0828 0.39845 0.0
H15 H 0.19304 0.12817 0.399 0.0
C16 C 0.14065 0.10214 0.39448 0.0
H17 H 0.12762 0.10411 0.39143 0.0
H18 H 0.12131 0.07015 0.39834 0.0
H19 H 0.90007 0.09632 0.42286 0.0
C20 C 0.91193 0.11008 0.41701 0.0
C21 C 0.9178 0.12893 0.42465 0.0
C22 C 0.92236 0.10878 0.4026 0.0
H23 H 0.93829 0.16119 0.42306 0.0
C24 C 0.93388 0.14658 0.41739 0.0
C25 C 0.94441 0.14561 0.40293 0.0
C26 C 0.93841 0.12665 0.39553 0.0
C27 C 0.91808 0.08875 0.39599 0.0
H28 H 0.94674 0.12571 0.38459 0.0
C29 C 0.89775 0.07293 0.39286 0.0
C30 C 0.8941 0.054 0.38665 0.0
C31 C 0.93464 0.08534 0.39311 0.0
H32 H 0.95037 0.0971 0.39569 0.0
C33 C 0.9311 0.06661 0.38727 0.0
H34 H 0.88494 0.07554 0.39484 0.0
C35 C 0.91105 0.05105 0.38409 0.0
H36 H 0.90883 0.03657 0.3798 0.0
H37 H 0.94396 0.06409 0.38528 0.0
H38 H 0.91955 0.80486 0.42038 0.0
C39 C 0.90576 0.8032 0.41429 0.0
C40 C 0.88692 0.79345 0.42314 0.0
C41 C 0.90698 0.81198 0.39819 0.0
H42 H 0.85488 0.78518 0.42278 0.0
C43 C 0.86921 0.79224 0.41572 0.0
C44 C 0.8699 0.80049 0.3996 0.0
C45 C 0.88873 0.80993 0.39082 0.0
C46 C 0.92732 0.82493 0.38965 0.0
H47 H 0.88917 0.81595 0.37822 0.0
C48 C 0.94376 0.8207 0.39043 0.0
C49 C 0.96285 0.83369 0.38246 0.0
C50 C 0.9305 0.84237 0.38087 0.0
H51 H 0.91874 0.84668 0.38048 0.0
C52 C 0.94901 0.8548 0.37266 0.0
H53 H 0.94183 0.80757 0.39729 0.0
C54 C 0.96498 0.85049 0.37334 0.0
H55 H 0.97912 0.86043 0.36666 0.0
H56 H 0.95105 0.86799 0.36582 0.0
H57 H 0.11979 0.20579 0.60311 0.0
C58 C 0.10753 0.20722 0.60908 0.0
C59 C 0.09912 0.21779 0.60065 0.0
C60 C 0.09935 0.19747 0.62471 0.0
H61 H 0.07597 0.22677 0.60176 0.0
C62 C 0.0826 0.21879 0.60822 0.0
C63 C 0.07421 0.20924 0.62382 0.0
C64 C 0.08288 0.19886 0.63203 0.0
C65 C 0.1068 0.18463 0.63297 0.0
H66 H 0.07674 0.19178 0.64423 0.0
C67 C 0.12801 0.19064 0.63396 0.0
C68 C 0.13445 0.1785 0.64264 0.0
C69 C 0.09231 0.166 0.64016 0.0
H70 H 0.07593 0.1606 0.63922 0.0
C71 C 0.09868 0.15395 0.64855 0.0
H72 H 0.13946 0.20491 0.62853 0.0
C73 C 0.11957 0.1602 0.64991 0.0
H74 H 0.12414 0.15057 0.65652 0.0
H75 H 0.08734 0.1397 0.65404 0.0
H76 H 0.81526 0.92146 0.59345 0.0
C77 C 0.81357 0.90816 0.59989 0.0
C78 C 0.79837 0.8888 0.59441 0.0
C79 C 0.8276 0.91039 0.61284 0.0
H80 H 0.78452 0.8568 0.59874 0.0
C81 C 0.79671 0.87168 0.6026 0.0
C82 C 0.8107 0.87358 0.6155 0.0
C83 C 0.82614 0.89309 0.62049 0.0
C84 C 0.84468 0.93074 0.6176 0.0
H85 H 0.83741 0.8949 0.63009 0.0
C86 C 0.84079 0.9465 0.6218 0.0
C87 C 0.85709 0.96571 0.62664 0.0
C88 C 0.86504 0.93442 0.61801 0.0
H89 H 0.86843 0.92259 0.61465 0.0
C90 C 0.88126 0.95349 0.62248 0.0
H91 H 0.82505 0.94358 0.62182 0.0
C92 C 0.87737 0.96903 0.62677 0.0
H93 H 0.89029 0.98373 0.63007 0.0
H94 H 0.89692 0.95624 0.62262 0.0
H95 H 0.08898 0.88422 0.60122 0.0
C96 C 0.10267 0.89662 0.607 0.0
C97 C 0.12216 0.90219 0.60028 0.0
C98 C 0.1008 0.90738 0.62084 0.0
H99 H 0.1548 0.92261 0.60233 0.0
C100 C 0.13985 0.91848 0.60759 0.0
C101 C 0.13832 0.92994 0.62103 0.0
C102 C 0.11868 0.92405 0.62766 0.0
C103 C 0.08022 0.90186 0.62792 0.0
H104 H 0.11716 0.93271 0.63797 0.0
C105 C 0.0654 0.88153 0.63125 0.0
C106 C 0.04667 0.87675 0.63919 0.0
C107 C 0.07561 0.91716 0.63202 0.0
H108 H 0.08647 0.93288 0.62929 0.0
C109 C 0.05694 0.91239 0.63969 0.0
H110 H 0.06872 0.86954 0.62828 0.0
C111 C 0.04262 0.89234 0.64342 0.0
H112 H 0.02825 0.88894 0.64946 0.0
H113 H 0.05361 0.9243 0.64284 0.0
H114 H 0.8684 0.44745 0.7621 0.0
C115 C 0.86899 0.43525 0.75544 0.0
C116 C 0.8842 0.43036 0.75983 0.0
C117 C 0.85405 0.42397 0.74296 0.0
H118 H 0.89607 0.41018 0.75494 0.0
C119 C 0.88473 0.4144 0.75128 0.0
C120 C 0.86966 0.40278 0.73902 0.0
C121 C 0.85437 0.40763 0.73493 0.0
C122 C 0.83751 0.42859 0.73883 0.0
H123 H 0.84272 0.39866 0.72545 0.0
C124 C 0.8423 0.44844 0.7348 0.0
C125 C 0.82659 0.45266 0.73033 0.0
C126 C 0.8168 0.41303 0.73865 0.0
H127 H 0.81273 0.39766 0.74184 0.0
C128 C 0.80115 0.41719 0.73454 0.0
H129 H 0.85829 0.4604 0.73457 0.0
C130 C 0.80596 0.43684 0.73037 0.0
H131 H 0.7935 0.43967 0.72728 0.0
H132 H 0.78523 0.40514 0.73455 0.0
H133 H 0.56541 0.42927 0.7542 0.0
C134 C 0.5776 0.44244 0.74793 0.0
C135 C 0.5834 0.46194 0.75406 0.0
C136 C 0.58808 0.43984 0.7342 0.0
H137 H 0.60485 0.49385 0.75131 0.0
C138 C 0.59967 0.47888 0.74608 0.0
C139 C 0.61024 0.47657 0.73222 0.0
C140 C 0.60409 0.45694 0.72627 0.0
C141 C 0.5838 0.41933 0.72913 0.0
H142 H 0.61196 0.45486 0.71553 0.0
C143 C 0.56354 0.4035 0.72587 0.0
C144 C 0.55992 0.38417 0.72092 0.0
C145 C 0.6003 0.41555 0.72772 0.0
H146 H 0.61598 0.42739 0.73039 0.0
C147 C 0.59676 0.3964 0.72318 0.0
H148 H 0.5508 0.40641 0.72669 0.0
C149 C 0.57677 0.38082 0.71982 0.0
H150 H 0.5745 0.36604 0.71649 0.0
H151 H 0.60957 0.39361 0.72229 0.0
H152 H 0.58273 0.13023 0.75131 0.0
C153 C 0.56942 0.13025 0.74586 0.0
C154 C 0.55001 0.11894 0.75367 0.0
C155 C 0.57174 0.14188 0.73122 0.0
H156 H 0.51823 0.11171 0.75318 0.0
C157 C 0.53294 0.11953 0.74673 0.0
C158 C 0.53477 0.13078 0.73202 0.0
C159 C 0.55419 0.14171 0.72428 0.0
C160 C 0.59248 0.15507 0.72351 0.0
H161 H 0.55563 0.15008 0.71274 0.0
C162 C 0.60727 0.14874 0.72185 0.0
C163 C 0.6263 0.1613 0.71376 0.0
C164 C 0.5975 0.1744 0.71755 0.0
H165 H 0.58687 0.18006 0.71905 0.0
C166 C 0.61633 0.18683 0.70969 0.0
H167 H 0.60382 0.13394 0.72631 0.0
C168 C 0.63056 0.18029 0.70767 0.0
H169 H 0.64511 0.19022 0.70152 0.0
H170 H 0.6199 0.20161 0.70513 0.0
H171 H 0.7904 0.54379 0.93981 0.0
C172 C 0.77763 0.54469 0.94537 0.0
C173 C 0.7701 0.55617 0.93721 0.0
C174 C 0.76848 0.53404 0.96046 0.0
H175 H 0.74683 0.56498 0.93764 0.0
C176 C 0.75318 0.55685 0.94428 0.0
C177 C 0.74374 0.54634 0.95931 0.0
C178 C 0.75173 0.53525 0.9674 0.0
C179 C 0.77544 0.52072 0.9686 0.0
H180 H 0.74486 0.52752 0.97922 0.0
C181 C 0.79657 0.52648 0.97003 0.0
C182 C 0.80253 0.51385 0.97852 0.0
C183 C 0.76057 0.50187 0.97518 0.0
H184 H 0.74425 0.49665 0.97388 0.0
C185 C 0.76646 0.48936 0.9834 0.0
H186 H 0.80831 0.54092 0.9651 0.0
C187 C 0.78725 0.49533 0.98518 0.0
H188 H 0.79142 0.48531 0.99161 0.0
H189 H 0.75483 0.47493 0.98841 0.0
H190 H 0.48087 0.25441 0.92658 0.0
C191 C 0.47984 0.24107 0.93242 0.0
C192 C 0.46427 0.22173 0.92722 0.0
C193 C 0.49454 0.24331 0.94471 0.0
H194 H 0.45111 0.18966 0.93101 0.0
C195 C 0.46313 0.20457 0.93494 0.0
C196 C 0.47772 0.20649 0.94729 0.0
C197 C 0.49342 0.22599 0.95202 0.0
C198 C 0.51177 0.26371 0.94924 0.0
H199 H 0.50509 0.22779 0.9612 0.0
C200 C 0.50807 0.27964 0.95327 0.0
C201 C 0.52451 0.29896 0.95765 0.0
C202 C 0.53212 0.26733 0.94945 0.0
H203 H 0.53542 0.25541 0.9462 0.0
C204 C 0.54847 0.28647 0.95356 0.0
H205 H 0.49236 0.27681 0.95345 0.0
C206 C 0.54475 0.30219 0.95762 0.0
H207 H 0.55778 0.31695 0.96058 0.0
H208 H 0.56411 0.28916 0.95355 0.0
H209 H 0.7571 0.21647 0.93648 0.0
C210 C 0.77088 0.22922 0.9418 0.0
C211 C 0.79009 0.23512 0.93433 0.0
C212 C 0.76941 0.24002 0.9558 0.0
H213 H 0.82262 0.25629 0.93505 0.0
C214 C 0.8079 0.2519 0.94092 0.0
C215 C 0.80676 0.26347 0.95445 0.0
C216 C 0.78743 0.25715 0.96196 0.0
C217 C 0.74905 0.23408 0.96367 0.0
H218 H 0.78629 0.26583 0.97243 0.0
C219 C 0.73434 0.21356 0.96662 0.0
C220 C 0.71573 0.20835 0.97502 0.0
C221 C 0.7444 0.24911 0.96868 0.0
H222 H 0.75504 0.26495 0.96621 0.0
C223 C 0.72592 0.24393 0.97687 0.0
H224 H 0.73761 0.20173 0.96294 0.0
C225 C 0.71174 0.22372 0.98017 0.0
H226 H 0.69747 0.22003 0.98655 0.0
H227 H 0.72258 0.25565 0.98071 0.0
H228 H 0.53932 0.78385 0.0948 0.0
C229 C 0.54089 0.772 0.08851 0.0
C230 C 0.55688 0.76847 0.09341 0.0
C231 C 0.52639 0.75971 0.07611 0.0
H232 H 0.57094 0.75015 0.08935 0.0
C233 C 0.55861 0.75285 0.08547 0.0
C234 C 0.54393 0.74001 0.07336 0.0
C235 C 0.52794 0.74372 0.06868 0.0
C236 C 0.50877 0.76268 0.07176 0.0
H237 H 0.51627 0.7338 0.05959 0.0
C238 C 0.51196 0.78204 0.06784 0.0
C239 C 0.49519 0.78476 0.06358 0.0
C240 C 0.48861 0.74606 0.07159 0.0
H241 H 0.48572 0.73105 0.07476 0.0
C242 C 0.47193 0.7487 0.0676 0.0
H243 H 0.52753 0.79483 0.06764 0.0
C244 C 0.47514 0.76787 0.06364 0.0
H245 H 0.46187 0.76949 0.06076 0.0
H246 H 0.45643 0.73584 0.06764 0.0
H247 H 0.23262 0.76455 0.09094 0.0
C248 C 0.24476 0.77795 0.08488 0.0
C249 C 0.25116 0.7971 0.09212 0.0
C250 C 0.25489 0.77586 0.07059 0.0
H251 H 0.27243 0.82913 0.09003 0.0
C252 C 0.26762 0.81429 0.08467 0.0
C253 C 0.27797 0.81257 0.07039 0.0
C254 C 0.27135 0.7933 0.06332 0.0
C255 C 0.24958 0.75536 0.0643 0.0
H256 H 0.27944 0.7918 0.05247 0.0
C257 C 0.22887 0.73972 0.06259 0.0
C258 C 0.22419 0.72006 0.05772 0.0
C259 C 0.26545 0.75108 0.06077 0.0
H260 H 0.28149 0.76264 0.06222 0.0
C261 C 0.26083 0.73167 0.05581 0.0
H262 H 0.21645 0.74276 0.06523 0.0
C263 C 0.24037 0.71623 0.05438 0.0
H264 H 0.23715 0.70127 0.05048 0.0
H265 H 0.27318 0.72855 0.05321 0.0
H266 H 0.25 0.46383 0.08419 0.0
C267 C 0.23637 0.46272 0.07823 0.0
C268 C 0.21702 0.45102 0.08598 0.0
C269 C 0.2382 0.4734 0.06311 0.0
H270 H 0.18475 0.44179 0.08498 0.0
C271 C 0.19945 0.45014 0.07857 0.0
C272 C 0.2009 0.46092 0.06363 0.0
C273 C 0.2203 0.4722 0.05587 0.0
C274 C 0.25879 0.48693 0.05532 0.0
H275 H 0.22147 0.48016 0.04412 0.0
C276 C 0.27395 0.48107 0.05365 0.0
C277 C 0.29277 0.49386 0.04534 0.0
C278 C 0.26321 0.50602 0.04922 0.0
H279 H 0.25224 0.51125 0.0507 0.0
C280 C 0.28187 0.51872 0.04124 0.0
H281 H 0.27088 0.46643 0.05822 0.0
C282 C 0.29647 0.51265 0.03917 0.0
H283 H 0.31085 0.52279 0.03288 0.0
H284 H 0.28501 0.53334 0.03658 0.0
H285 H 0.45389 0.87329 0.27027 0.0
C286 C 0.44156 0.87463 0.27619 0.0
C287 C 0.43302 0.88502 0.26765 0.0
C288 C 0.43342 0.86496 0.29186 0.0
H289 H 0.40967 0.89375 0.2686 0.0
C290 C 0.4164 0.88591 0.27515 0.0
C291 C 0.40805 0.87645 0.29079 0.0
C292 C 0.41686 0.86625 0.29911 0.0
C293 C 0.44103 0.85229 0.30022 0.0
H294 H 0.41075 0.85925 0.31133 0.0
C295 C 0.46226 0.85838 0.30112 0.0
C296 C 0.46884 0.84638 0.30985 0.0
C297 C 0.42665 0.83371 0.30757 0.0
H298 H 0.41024 0.82824 0.3067 0.0
C299 C 0.43315 0.82182 0.31602 0.0
H300 H 0.47363 0.8726 0.29557 0.0
C301 C 0.45406 0.82814 0.31729 0.0
H302 H 0.45873 0.81862 0.32393 0.0
H303 H 0.4219 0.80761 0.32164 0.0
H304 H 0.14545 0.5882 0.26375 0.0
C305 C 0.14412 0.57489 0.2699 0.0
C306 C 0.12792 0.55561 0.26536 0.0
C307 C 0.15907 0.57707 0.28191 0.0
H308 H 0.11391 0.52361 0.27 0.0
C309 C 0.12641 0.53849 0.27346 0.0
C310 C 0.14131 0.54035 0.28546 0.0
C311 C 0.15763 0.55978 0.28954 0.0
C312 C 0.17676 0.59736 0.28593 0.0
H313 H 0.16952 0.56154 0.29846 0.0
C314 C 0.17356 0.61353 0.29017 0.0
C315 C 0.19036 0.63273 0.29423 0.0
C316 C 0.19696 0.60058 0.28561 0.0
H317 H 0.19982 0.58841 0.28223 0.0
C318 C 0.21368 0.61963 0.28941 0.0
H319 H 0.15797 0.61096 0.29079 0.0
C320 C 0.21045 0.63561 0.29369 0.0
H321 H 0.22373 0.65029 0.29644 0.0
H322 H 0.2292 0.62203 0.289 0.0
H323 H 0.42293 0.55127 0.26985 0.0
C324 C 0.43664 0.56386 0.27542 0.0
C325 C 0.456 0.56971 0.26829 0.0
C326 C 0.43491 0.5745 0.28943 0.0
H327 H 0.48859 0.59055 0.2697 0.0
C328 C 0.47374 0.58625 0.27528 0.0
C329 C 0.47236 0.59763 0.28886 0.0
C330 C 0.45284 0.5914 0.29595 0.0
C331 C 0.41441 0.56855 0.29699 0.0
H332 H 0.45147 0.59995 0.30642 0.0
C333 C 0.39967 0.54803 0.29981 0.0
C334 C 0.38095 0.54279 0.30802 0.0
C335 C 0.40971 0.58357 0.3019 0.0
H336 H 0.42041 0.59941 0.29953 0.0
C337 C 0.39109 0.57835 0.30989 0.0
H338 H 0.403 0.53622 0.29621 0.0
C339 C 0.37687 0.55812 0.31308 0.0
H340 H 0.36251 0.55439 0.31933 0.0
H341 H 0.38771 0.59006 0.31366 0.0
Eu342 Eu 0.49041 0.99377 0.98919 0.0
C343 C 0.53572 0.05941 0.04613 0.0
C344 C 0.57138 0.06777 0.04397 0.0
C345 C 0.56315 0.09325 0.05362 0.0
C346 C 0.55014 0.05387 0.04196 0.0
C347 C 0.54202 0.07898 0.05248 0.0
C348 C 0.57782 0.08766 0.04934 0.0
C349 C 0.50617 0.06819 0.05775 0.0
N350 N 0.51548 0.04519 0.04506 0.0
C351 C 0.50072 0.049 0.05134 0.0
C352 C 0.5269 0.08336 0.05807 0.0
Eu353 Eu 0.50725 0.01327 0.03356 0.0
N354 N 0.54336 0.03447 0.037 0.0
C355 C 0.55693 0.02754 0.03518 0.0
C356 C 0.58545 0.06107 0.04107 0.0
C357 C 0.57816 0.04077 0.03697 0.0
H358 H 0.48467 0.03734 0.05097 0.0
H359 H 0.58888 0.03532 0.03506 0.0
H360 H 0.59407 0.09864 0.05073 0.0
H361 H 0.4944 0.0713 0.06235 0.0
H362 H 0.55153 0.01193 0.03189 0.0
H363 H 0.4088 0.97172 0.98672 0.0
H364 H 0.60189 0.07129 0.04242 0.0
H365 H 0.51329 0.96907 0.9735 0.0
H366 H 0.44612 0.9952 0.99 0.0
H367 H 0.50362 0.93473 0.96313 0.0
H368 H 0.56831 0.10845 0.05827 0.0
H369 H 0.39589 0.93564 0.9799 0.0
H370 H 0.4038 0.90814 0.97241 0.0
H371 H 0.5311 0.09821 0.06306 0.0
H372 H 0.42961 0.89807 0.96589 0.0
N373 N 0.45436 0.97261 0.98546 0.0
C374 C 0.44076 0.97954 0.98693 0.0
C375 C 0.41233 0.9459 0.98129 0.0
C376 C 0.42643 0.93915 0.97881 0.0
C377 C 0.41955 0.96626 0.9851 0.0
C378 C 0.44765 0.9531 0.98088 0.0
H379 H 0.46687 0.90798 0.96206 0.0
N380 N 0.48238 0.96156 0.97855 0.0
C381 C 0.4918 0.93806 0.96715 0.0
C382 C 0.46212 0.94739 0.9773 0.0
C383 C 0.49723 0.95747 0.97297 0.0
C384 C 0.47104 0.92299 0.96661 0.0
C385 C 0.45587 0.92764 0.97146 0.0
O386 O 0.50712 0.00286 0.96506 0.0
O387 O 0.51529 0.01634 0.006 0.0
O388 O 0.5044 0.03729 0.01888 0.0
O389 O 0.48257 0.01828 0.99635 0.0
O390 O 0.52473 0.00474 0.9865 0.0
O391 O 0.48081 0.00696 0.96886 0.0
O392 O 0.49112 0.0041 0.05798 0.0
O393 O 0.48219 0.99105 0.0167 0.0
O394 O 0.49179 0.96952 0.00449 0.0
O395 O 0.51495 0.98861 0.02617 0.0
O396 O 0.47305 0.00256 0.03647 0.0
O397 O 0.51652 0.99889 0.05305 0.0
C398 C 0.53097 0.01755 0.99898 0.0
C399 C 0.48732 1.00023 0.94076 0.0
C400 C 0.48904 0.00533 0.90981 0.0
C401 C 0.49552 0.01298 0.92652 0.0
C402 C 0.47437 0.98465 0.90772 0.0
C403 C 0.47249 0.97983 0.93827 0.0
C404 C 0.46612 0.9721 0.92185 0.0
C405 C 0.49199 0.03497 0.00587 0.0
C406 C 0.49465 0.00811 0.95811 0.0
C407 C 0.43474 0.9134 0.97017 0.0
C408 C 0.42004 0.91914 0.97387 0.0
C409 C 0.46662 0.99004 0.02378 0.0
C410 C 0.5113 0.00525 0.08161 0.0
C411 C 0.50265 0.99232 0.09568 0.0
C412 C 0.50988 0.99932 0.11238 0.0
C413 C 0.52599 0.01936 0.11471 0.0
C414 C 0.5274 0.02512 0.08427 0.0
C415 C 0.53469 0.03211 0.10074 0.0
C416 C 0.50441 0.9716 0.0172 0.0
C417 C 0.50326 0.99803 0.06427 0.0
H418 H 0.50675 0.02882 0.92853 0.0
H419 H 0.4694 0.97803 0.89513 0.0
H420 H 0.46591 0.96985 0.949 0.0
H421 H 0.45481 0.95626 0.92005 0.0
H422 H 0.4901 0.97699 0.09365 0.0
H423 H 0.53203 0.02511 0.12736 0.0
H424 H 0.53432 0.03523 0.07365 0.0
H425 H 0.54714 0.04747 0.10268 0.0
Eu426 Eu 0.0202 0.49983 0.98828 0.0
C427 C 0.95213 0.47652 0.04321 0.0
C428 C 0.9433 0.50307 0.04098 0.0
C429 C 0.91739 0.4694 0.04993 0.0
C430 C 0.95776 0.4964 0.0392 0.0
C431 C 0.93206 0.46306 0.04913 0.0
C432 C 0.92298 0.48933 0.04583 0.0
C433 C 0.94292 0.43862 0.05476 0.0
N434 N 0.96657 0.47068 0.04238 0.0
C435 C 0.96255 0.45237 0.04872 0.0
C436 C 0.92749 0.44383 0.05468 0.0
Eu437 Eu 0.99905 0.49501 0.03162 0.0
N438 N 0.97758 0.50951 0.03459 0.0
C439 C 0.98432 0.52975 0.03328 0.0
C440 C 0.94983 0.52353 0.03837 0.0
C441 C 0.9705 0.53697 0.03486 0.0
H442 H 0.9742 0.44799 0.04844 0.0
H443 H 0.97582 0.55292 0.03328 0.0
H444 H 0.91165 0.49416 0.04699 0.0
H445 H 0.93964 0.42393 0.05933 0.0
H446 H 1.00017 0.5405 0.03056 0.0
H447 H 0.04199 0.44125 0.98559 0.0
H448 H 0.93917 0.52919 0.03954 0.0
H449 H 0.0464 0.54733 0.97401 0.0
H450 H 0.01822 0.45467 0.98818 0.0
H451 H 0.0819 0.57218 0.96507 0.0
H452 H 0.90183 0.45917 0.05421 0.0
H453 H 0.07916 0.46456 0.9807 0.0
H454 H 0.10778 0.49992 0.97487 0.0
H455 H 0.91228 0.43312 0.05934 0.0
H456 H 0.11865 0.53558 0.96912 0.0
N457 N 0.04172 0.48542 0.98533 0.0
C458 C 0.03436 0.46505 0.986 0.0
C459 C 0.06879 0.47056 0.98183 0.0
C460 C 0.07599 0.49128 0.98001 0.0
C461 C 0.04781 0.45735 0.98454 0.0
C462 C 0.06185 0.49831 0.9817 0.0
H463 H 0.109 0.56256 0.96503 0.0
N464 N 0.05361 0.52421 0.9792 0.0
C465 C 0.07822 0.55712 0.96888 0.0
C466 C 0.06797 0.51834 0.97849 0.0
C467 C 0.05816 0.54304 0.97388 0.0
C468 C 0.09348 0.55164 0.96894 0.0
C469 C 0.08839 0.53195 0.97351 0.0
O470 O 0.01503 0.50893 0.96312 0.0
O471 O 0.99609 0.50077 0.00418 0.0
O472 O 0.97583 0.4671 0.01705 0.0
O473 O 0.99435 0.46734 0.99291 0.0
O474 O 0.00847 0.52216 0.9853 0.0
O475 O 0.00613 0.47762 0.96778 0.0
O476 O 0.0247 0.50356 0.04957 0.0
O477 O 0.02226 0.49285 0.01558 0.0
O478 O 0.04368 0.52532 0.00493 0.0
O479 O 0.02227 0.52785 0.02509 0.0
O480 O 0.00735 0.47014 0.03332 0.0
O481 O 0.99681 0.50189 0.05845 0.0
C482 C 0.99485 0.51498 0.99719 0.0
C483 C 0.01636 0.48981 0.93985 0.0
C484 C 0.012 0.48487 0.90904 0.0
C485 C 0.00486 0.48733 0.92494 0.0
C486 C 0.03094 0.48523 0.90816 0.0
C487 C 0.03534 0.49034 0.93873 0.0
C488 C 0.0426 0.48813 0.92294 0.0
C489 C 0.978 0.45858 0.00302 0.0
C490 C 0.00794 0.49094 0.95648 0.0
C491 C 0.10282 0.5253 0.97272 0.0
C492 C 0.09663 0.50499 0.97599 0.0
C493 C 0.02165 0.47732 0.02186 0.0
C494 C 0.01484 0.49287 0.07791 0.0
C495 C 0.02105 0.50265 0.09384 0.0
C496 C 0.02068 0.49178 0.10846 0.0
C497 C 0.01405 0.47103 0.10691 0.0
C498 C 0.00855 0.47222 0.07664 0.0
C499 C 0.00809 0.46137 0.09107 0.0
C500 C 0.04022 0.53527 0.01716 0.0
C501 C 0.01461 0.50417 0.06279 0.0
H502 H 0.99008 0.48671 0.92578 0.0
H503 H 0.03672 0.48336 0.89602 0.0
H504 H 0.0444 0.49219 0.95003 0.0
H505 H 0.05721 0.48845 0.92218 0.0
H506 H 0.02596 0.51862 0.09488 0.0
H507 H 0.01388 0.46236 0.11789 0.0
H508 H 1.00402 0.46442 0.06454 0.0
H509 H 1.00321 0.44545 0.08995 0.0
Eu510 Eu 0.52395 0.50906 0.03527 0.0
C511 C 0.47981 0.5301 0.97867 0.0
C512 C 0.44452 0.50233 0.9802 0.0
C513 C 0.45134 0.53561 0.97139 0.0
C514 C 0.4659 0.50993 0.98237 0.0
C515 C 0.47262 0.5429 0.97258 0.0
C516 C 0.43732 0.5154 0.97523 0.0
C517 C 0.50802 0.56857 0.9675 0.0
N518 N 0.50036 0.53685 0.97989 0.0
C519 C 0.51444 0.55542 0.97368 0.0
C520 C 0.48704 0.56244 0.96727 0.0
Eu521 Eu 0.50951 0.51367 0.99109 0.0
N522 N 0.47323 0.49749 0.98713 0.0
C523 C 0.46013 0.47706 0.9882 0.0
C524 C 0.43098 0.48166 0.98255 0.0
C525 C 0.43886 0.46893 0.98621 0.0
H526 H 0.5307 0.56041 0.97416 0.0
H527 H 0.42853 0.45282 0.9876 0.0
H528 H 0.42095 0.50986 0.97377 0.0
H529 H 0.51925 0.58349 0.96307 0.0
H530 H 0.46569 0.46682 0.99104 0.0
H531 H 0.6047 0.56882 0.04027 0.0
H532 H 0.41447 0.47528 0.98107 0.0
H533 H 0.50207 0.46125 0.04881 0.0
H534 H 0.56735 0.55474 0.03629 0.0
H535 H 0.51261 0.43682 0.05847 0.0
H536 H 0.44555 0.54533 0.96699 0.0
H537 H 0.6186 0.54609 0.04652 0.0
H538 H 0.61174 0.51099 0.05294 0.0
H539 H 0.48211 0.57268 0.96249 0.0
H540 H 0.58667 0.4751 0.05807 0.0
N541 N 0.56002 0.52418 0.03975 0.0
C542 C 0.5731 0.5446 0.03907 0.0
C543 C 0.60214 0.5398 0.04479 0.0
C544 C 0.58852 0.51903 0.04654 0.0
C545 C 0.59435 0.55268 0.04131 0.0
C546 C 0.56724 0.51161 0.04405 0.0
H547 H 0.54967 0.44739 0.06049 0.0
N548 N 0.53282 0.48512 0.04522 0.0
C549 C 0.52418 0.45212 0.05521 0.0
C550 C 0.55319 0.49145 0.04694 0.0
C551 C 0.51826 0.46596 0.04981 0.0
C552 C 0.54512 0.45813 0.05629 0.0
C553 C 0.55994 0.47809 0.05236 0.0
O554 O 0.50835 0.49942 0.0599 0.0
O555 O 0.49934 0.50758 0.01819 0.0
O556 O 0.51376 0.54144 0.00531 0.0
O557 O 0.53091 0.54132 0.03034 0.0
O558 O 0.48966 0.48579 0.03673 0.0
O559 O 0.53054 0.53104 0.05563 0.0
O560 O 0.52713 0.50507 0.97404 0.0
O561 O 0.53439 0.51646 0.00831 0.0
O562 O 0.52384 0.48463 0.01888 0.0
O563 O 0.50054 0.48106 0.99748 0.0
O564 O 0.54287 0.53926 0.99067 0.0
O565 O 0.50286 0.50904 0.96365 0.0
C566 C 0.48356 0.49292 0.02457 0.0
C567 C 0.52726 0.51906 0.08379 0.0
C568 C 0.5259 0.5239 0.11446 0.0
C569 C 0.51702 0.52092 0.09808 0.0
C570 C 0.54495 0.52467 0.11641 0.0
C571 C 0.54617 0.51964 0.086 0.0
C572 C 0.55491 0.52237 0.10225 0.0
C573 C 0.52382 0.54995 0.01968 0.0
C574 C 0.51853 0.51749 0.06663 0.0
C575 C 0.58116 0.48518 0.05409 0.0
C576 C 0.59543 0.50561 0.05117 0.0
C577 C 0.54965 0.53221 0.00247 0.0
C578 C 0.53146 0.51774 0.94598 0.0
C579 C 0.52961 0.50852 0.92998 0.0
C580 C 0.54189 0.51998 0.91618 0.0
C581 C 0.55618 0.54063 0.91869 0.0
C582 C 0.54588 0.53837 0.94814 0.0
C583 C 0.55816 0.5497 0.93458 0.0
C584 C 0.51134 0.47445 0.00606 0.0
C585 C 0.51803 0.50594 0.9602 0.0
H586 H 0.50248 0.52064 0.09642 0.0
H587 H 0.55205 0.52694 0.12891 0.0
H588 H 0.55429 0.51826 0.07519 0.0
H589 H 0.56956 0.52291 0.10386 0.0
H590 H 0.51843 0.49262 0.9282 0.0
H591 H 0.56603 0.54973 0.90839 0.0
H592 H 0.54769 0.54583 0.96023 0.0
H593 H 0.56925 0.5656 0.9364 0.0
Eu594 Eu 0.15554 0.32876 0.32244 0.0
C595 C 0.20222 0.39273 0.38019 0.0
C596 C 0.23784 0.40122 0.37719 0.0
C597 C 0.22977 0.42639 0.38798 0.0
C598 C 0.21657 0.38734 0.37536 0.0
C599 C 0.20862 0.41212 0.38702 0.0
C600 C 0.24436 0.42095 0.38305 0.0
C601 C 0.17289 0.40113 0.39304 0.0
N602 N 0.18196 0.37851 0.37927 0.0
C603 C 0.16732 0.38211 0.38615 0.0
C604 C 0.19361 0.41632 0.39323 0.0
Eu605 Eu 0.17355 0.34691 0.36694 0.0
N606 N 0.20972 0.36808 0.36995 0.0
C607 C 0.22326 0.36124 0.36748 0.0
C608 C 0.25186 0.39463 0.37363 0.0
C609 C 0.24452 0.37445 0.36906 0.0
H610 H 0.15128 0.37044 0.38589 0.0
H611 H 0.25521 0.36908 0.36664 0.0
H612 H 0.26063 0.43192 0.38431 0.0
H613 H 0.16121 0.40409 0.39812 0.0
H614 H 0.21781 0.34572 0.36382 0.0
H615 H 0.07424 0.30821 0.32182 0.0
H616 H 0.26833 0.40484 0.37481 0.0
H617 H 0.17735 0.30399 0.305 0.0
H618 H 0.11163 0.33096 0.325 0.0
H619 H 0.1669 0.27003 0.29318 0.0
H620 H 0.23501 0.44146 0.393 0.0
H621 H 0.06059 0.27242 0.31348 0.0
H622 H 0.0677 0.24492 0.30416 0.0
H623 H 0.1979 0.43102 0.3986 0.0
H624 H 0.09292 0.23455 0.2962 0.0
N625 N 0.11932 0.30826 0.31899 0.0
C626 C 0.10602 0.31544 0.32131 0.0
C627 C 0.07709 0.28236 0.31484 0.0
C628 C 0.09086 0.27542 0.31145 0.0
C629 C 0.08473 0.30256 0.31951 0.0
C630 C 0.11218 0.28897 0.31351 0.0
H631 H 0.12993 0.24393 0.29175 0.0
N632 N 0.14665 0.29692 0.31039 0.0
C633 C 0.15532 0.27349 0.29765 0.0
C634 C 0.1263 0.28313 0.30903 0.0
C635 C 0.16119 0.29268 0.30428 0.0
C636 C 0.13444 0.25878 0.29691 0.0
C637 C 0.1196 0.26359 0.30241 0.0
O638 O 0.1701 0.33665 0.29728 0.0
O639 O 0.18095 0.35057 0.33924 0.0
O640 O 0.17052 0.37141 0.35326 0.0
O641 O 0.14774 0.35282 0.33111 0.0
O642 O 0.18975 0.33966 0.31884 0.0
O643 O 0.14777 0.34556 0.30429 0.0
O644 O 0.15782 0.33686 0.39146 0.0
O645 O 0.14808 0.32506 0.35013 0.0
O646 O 0.15739 0.30406 0.33671 0.0
O647 O 0.18108 0.32254 0.35829 0.0
O648 O 0.13943 0.33609 0.37062 0.0
O649 O 0.18347 0.33232 0.38572 0.0
C650 C 0.19639 0.35196 0.33166 0.0
C651 C 0.14994 0.33913 0.27508 0.0
C652 C 0.15073 0.34657 0.24469 0.0
C653 C 0.16024 0.35122 0.26091 0.0
C654 C 0.13098 0.32953 0.24279 0.0
C655 C 0.13033 0.32205 0.27286 0.0
C656 C 0.12095 0.31728 0.25677 0.0
C657 C 0.15758 0.36933 0.34078 0.0
C658 C 0.1594 0.34492 0.29219 0.0
C659 C 0.09838 0.24971 0.30109 0.0
C660 C 0.08403 0.25561 0.30562 0.0
C661 C 0.13272 0.3239 0.35772 0.0
C662 C 0.17857 0.3379 0.41459 0.0
C663 C 0.16966 0.32499 0.42863 0.0
C664 C 0.17706 0.33179 0.44533 0.0
C665 C 0.19359 0.35161 0.4477 0.0
C666 C 0.1951 0.35755 0.41729 0.0
C667 C 0.20255 0.36434 0.43376 0.0
C668 C 0.17039 0.30583 0.34901 0.0
C669 C 0.1703 0.33096 0.39725 0.0
H670 H 0.17535 0.36449 0.26257 0.0
H671 H 0.12339 0.32562 0.23043 0.0
H672 H 0.12217 0.31254 0.28356 0.0
H673 H 0.10579 0.30413 0.25517 0.0
H674 H 0.15677 0.30984 0.42658 0.0
H675 H 0.19976 0.3572 0.46035 0.0
H676 H 0.20223 0.36765 0.40669 0.0
H677 H 0.21533 0.37953 0.43572 0.0
Eu678 Eu 0.68559 0.83049 0.32312 0.0
C679 C 0.61625 0.81185 0.37655 0.0
C680 C 0.60692 0.83767 0.372 0.0
C681 C 0.58139 0.80465 0.38262 0.0
C682 C 0.62149 0.83107 0.37122 0.0
C683 C 0.5963 0.79859 0.38274 0.0
C684 C 0.58669 0.82417 0.37725 0.0
C685 C 0.60798 0.77522 0.39034 0.0
N686 N 0.63111 0.80661 0.37675 0.0
C687 C 0.62754 0.78893 0.38409 0.0
C688 C 0.59219 0.77993 0.38942 0.0
Eu689 Eu 0.66373 0.83033 0.36571 0.0
N690 N 0.64124 0.8438 0.36644 0.0
C691 C 0.64787 0.86377 0.36357 0.0
C692 C 0.61333 0.85783 0.36804 0.0
C693 C 0.63398 0.87102 0.3641 0.0
H694 H 0.63969 0.78519 0.38471 0.0
H695 H 0.6392 0.88675 0.36137 0.0
H696 H 0.57522 0.82888 0.37771 0.0
H697 H 0.60507 0.76102 0.3958 0.0
H698 H 0.66376 0.87411 0.36044 0.0
H699 H 0.70908 0.77319 0.3268 0.0
H700 H 0.60261 0.86347 0.36842 0.0
H701 H 0.71058 0.87641 0.30555 0.0
H702 H 0.6849 0.7862 0.32797 0.0
H703 H 0.74547 0.90054 0.29492 0.0
H704 H 0.5659 0.7946 0.38714 0.0
H705 H 0.74571 0.79616 0.31968 0.0
H706 H 0.77341 0.8307 0.31063 0.0
H707 H 0.57706 0.76933 0.39432 0.0
H708 H 0.78331 0.86534 0.30186 0.0
N709 N 0.70762 0.81648 0.32203 0.0
C710 C 0.70079 0.79644 0.32481 0.0
C711 C 0.73514 0.80198 0.32015 0.0
C712 C 0.74178 0.82222 0.31633 0.0
C713 C 0.71447 0.78897 0.32415 0.0
C714 C 0.72741 0.82906 0.31723 0.0
H715 H 0.7729 0.89139 0.29565 0.0
N716 N 0.71844 0.85416 0.31248 0.0
C717 C 0.7422 0.88599 0.29984 0.0
C718 C 0.73298 0.8485 0.31228 0.0
C719 C 0.72248 0.87231 0.30581 0.0
C720 C 0.75765 0.88079 0.30031 0.0
C721 C 0.75307 0.86173 0.30635 0.0
O722 O 0.67842 0.83588 0.29724 0.0
O723 O 0.66148 0.83304 0.33761 0.0
O724 O 0.64008 0.80238 0.35137 0.0
O725 O 0.66097 0.79868 0.33123 0.0
O726 O 0.67386 0.85233 0.31726 0.0
O727 O 0.67161 0.80578 0.30464 0.0
O728 O 0.67176 0.82588 0.39158 0.0
O729 O 0.68766 0.82755 0.35118 0.0
O730 O 0.70943 0.85747 0.33804 0.0
O731 O 0.68868 0.8622 0.35755 0.0
O732 O 0.67559 0.80866 0.37182 0.0
O733 O 0.67728 0.85544 0.38389 0.0
C734 C 0.6603 0.84646 0.32919 0.0
C735 C 0.6805 0.81509 0.27586 0.0
C736 C 0.67747 0.81163 0.24488 0.0
C737 C 0.67046 0.81476 0.2606 0.0
C738 C 0.69487 0.80916 0.24455 0.0
C739 C 0.69796 0.81276 0.2753 0.0
C740 C 0.70512 0.80988 0.2597 0.0
C741 C 0.64337 0.79169 0.33968 0.0
C742 C 0.67223 0.81739 0.29218 0.0
C743 C 0.76773 0.85533 0.3062 0.0
C744 C 0.76209 0.83561 0.3112 0.0
C745 C 0.6889 0.81421 0.3597 0.0
C746 C 0.66939 0.8466 0.41283 0.0
C747 C 0.68159 0.85111 0.42759 0.0
C748 C 0.67426 0.85354 0.44345 0.0
C749 C 0.65446 0.85134 0.44429 0.0
C750 C 0.64969 0.84445 0.41392 0.0
C751 C 0.64228 0.8468 0.42959 0.0
C752 C 0.70646 0.86858 0.34947 0.0
C753 C 0.67751 0.84433 0.39643 0.0
H754 H 0.65685 0.81637 0.26101 0.0
H755 H 0.70054 0.80674 0.23258 0.0
H756 H 0.7059 0.81291 0.28689 0.0
H757 H 0.71855 0.80802 0.25937 0.0
H758 H 0.69692 0.853 0.42665 0.0
H759 H 0.64829 0.85288 0.45633 0.0
H760 H 0.64009 0.84106 0.40271 0.0
H761 H 0.62704 0.84508 0.43035 0.0
Eu762 Eu 0.19316 0.84657 0.36809 0.0
C763 C 0.14206 0.86232 0.31391 0.0
C764 C 0.10689 0.83547 0.31821 0.0
C765 C 0.11361 0.86838 0.30829 0.0
C766 C 0.12831 0.84277 0.31891 0.0
C767 C 0.13487 0.87522 0.30818 0.0
C768 C 0.09965 0.84854 0.31331 0.0
C769 C 0.17004 0.89995 0.30118 0.0
N770 N 0.16244 0.86835 0.31378 0.0
C771 C 0.17639 0.88654 0.30689 0.0
C772 C 0.14922 0.89437 0.30204 0.0
Eu773 Eu 0.17218 0.84539 0.32471 0.0
N774 N 0.13583 0.83052 0.32347 0.0
C775 C 0.12275 0.81039 0.3262 0.0
C776 C 0.09341 0.81511 0.32198 0.0
C777 C 0.10138 0.80243 0.32568 0.0
H778 H 0.19253 0.89092 0.30636 0.0
H779 H 0.09108 0.78657 0.32828 0.0
H780 H 0.08326 0.84328 0.31291 0.0
H781 H 0.1812 0.91457 0.29616 0.0
H782 H 0.12871 0.80046 0.32923 0.0
H783 H 0.27491 0.90405 0.36552 0.0
H784 H 0.07685 0.80893 0.32164 0.0
H785 H 0.17119 0.80096 0.38633 0.0
H786 H 0.23754 0.89086 0.36336 0.0
H787 H 0.18141 0.77723 0.39827 0.0
H788 H 0.10779 0.87814 0.3041 0.0
H789 H 0.28815 0.88146 0.37423 0.0
H790 H 0.28066 0.84728 0.38449 0.0
H791 H 0.14432 0.90475 0.29754 0.0
H792 H 0.25524 0.81282 0.39355 0.0
N793 N 0.22943 0.86083 0.37036 0.0
C794 C 0.24298 0.88078 0.36724 0.0
C795 C 0.27167 0.87556 0.37334 0.0
C796 C 0.2577 0.85544 0.37749 0.0
C797 C 0.26425 0.88836 0.36845 0.0
C798 C 0.23639 0.8485 0.376 0.0
H799 H 0.21823 0.78669 0.39901 0.0
N800 N 0.20185 0.82337 0.38016 0.0
C801 C 0.19302 0.79176 0.39342 0.0
C802 C 0.22216 0.82917 0.3811 0.0
C803 C 0.18729 0.80523 0.38671 0.0
C804 C 0.21382 0.79714 0.39378 0.0
C805 C 0.22872 0.81615 0.38778 0.0
O806 O 0.1796 0.84187 0.39354 0.0
O807 O 0.1665 0.84292 0.35264 0.0
O808 O 0.17565 0.87281 0.33884 0.0
O809 O 0.20119 0.87806 0.35871 0.0
O810 O 0.15922 0.82408 0.37324 0.0
O811 O 0.20309 0.87191 0.3858 0.0
O812 O 0.18547 0.85079 0.29915 0.0
O813 O 0.19882 0.849 0.34009 0.0
O814 O 0.19078 0.81971 0.35396 0.0
O815 O 0.1658 0.81403 0.33332 0.0
O816 O 0.20606 0.86759 0.31921 0.0
O817 O 0.16143 0.82071 0.30615 0.0
C818 C 0.1516 0.82934 0.36083 0.0
C819 C 0.20147 0.86393 0.4151 0.0
C820 C 0.20031 0.86833 0.44587 0.0
C821 C 0.19078 0.86422 0.4297 0.0
C822 C 0.22057 0.87185 0.44729 0.0
C823 C 0.22162 0.86724 0.41679 0.0
C824 C 0.23107 0.87114 0.43283 0.0
C825 C 0.19025 0.88433 0.34993 0.0
C826 C 0.19156 0.86064 0.39824 0.0
C827 C 0.24989 0.82267 0.38861 0.0
C828 C 0.26436 0.84228 0.38345 0.0
C829 C 0.21367 0.86238 0.3317 0.0
C830 C 0.16317 0.83009 0.27723 0.0
C831 C 0.17161 0.82635 0.26261 0.0
C832 C 0.16233 0.82421 0.24646 0.0
C833 C 0.1445 0.82595 0.24523 0.0
C834 C 0.1454 0.83175 0.2757 0.0
C835 C 0.13614 0.82969 0.25977 0.0
C836 C 0.17716 0.80826 0.34218 0.0
C837 C 0.17314 0.83231 0.29393 0.0
H838 H 0.17525 0.86177 0.42842 0.0
H839 H 0.22821 0.875 0.45962 0.0
H840 H 0.23011 0.86702 0.40573 0.0
H841 H 0.24664 0.87376 0.43405 0.0
H842 H 0.18524 0.82488 0.26388 0.0
H843 H 0.13716 0.82469 0.23299 0.0
H844 H 0.13868 0.83461 0.28679 0.0
H845 H 0.12245 0.83106 0.25867 0.0
Eu846 Eu 0.8239 0.66151 0.65643 0.0
C847 C 0.86705 0.72647 0.71394 0.0
C848 C 0.90304 0.73591 0.71201 0.0
C849 C 0.89367 0.76059 0.72164 0.0
C850 C 0.88196 0.72154 0.70985 0.0
C851 C 0.87269 0.74585 0.72038 0.0
C852 C 0.90882 0.75564 0.71742 0.0
C853 C 0.83658 0.73395 0.72553 0.0
N854 N 0.84697 0.71179 0.71278 0.0
C855 C 0.83177 0.71495 0.71905 0.0
C856 C 0.85711 0.74957 0.72595 0.0
Eu857 Eu 0.83988 0.68026 0.70115 0.0
N858 N 0.8758 0.70227 0.70488 0.0
C859 C 0.88985 0.69592 0.70322 0.0
C860 C 0.91761 0.72982 0.70924 0.0
C861 C 0.91095 0.70963 0.70514 0.0
H862 H 0.81588 0.70294 0.71858 0.0
H863 H 0.92207 0.70465 0.70334 0.0
H864 H 0.92495 0.76697 0.71892 0.0
H865 H 0.82447 0.73655 0.73012 0.0
H866 H 0.88493 0.68041 0.69992 0.0
H867 H 0.74193 0.63812 0.65382 0.0
H868 H 0.93396 0.74041 0.7107 0.0
H869 H 0.84767 0.63803 0.64006 0.0
H870 H 0.77907 0.66195 0.65759 0.0
H871 H 0.83875 0.60424 0.62877 0.0
H872 H 0.89833 0.77566 0.72635 0.0
H873 H 0.72972 0.60245 0.64592 0.0
H874 H 0.73837 0.5757 0.63751 0.0
H875 H 0.86081 0.76426 0.73101 0.0
H876 H 0.76473 0.56646 0.63064 0.0
N877 N 0.78795 0.63995 0.6523 0.0
C878 C 0.77405 0.64648 0.65408 0.0
C879 C 0.74609 0.61286 0.64754 0.0
C880 C 0.76051 0.60657 0.64476 0.0
C881 C 0.75293 0.63299 0.65195 0.0
C882 C 0.78162 0.6207 0.64716 0.0
H883 H 0.8022 0.57711 0.62703 0.0
N884 N 0.81654 0.62982 0.64498 0.0
C885 C 0.82669 0.60716 0.63291 0.0
C886 C 0.79639 0.61546 0.64338 0.0
C887 C 0.83168 0.62626 0.63925 0.0
C888 C 0.80604 0.59187 0.632 0.0
C889 C 0.79056 0.59601 0.637 0.0
O890 O 0.84101 0.67153 0.63253 0.0
O891 O 0.84832 0.68395 0.67364 0.0
O892 O 0.83679 0.70421 0.68664 0.0
O893 O 0.81516 0.68528 0.66402 0.0
O894 O 0.85831 0.673 0.65402 0.0
O895 O 0.81454 0.67532 0.63648 0.0
O896 O 0.82383 0.6707 0.72558 0.0
O897 O 0.81543 0.658 0.6839 0.0
O898 O 0.8263 0.63743 0.67119 0.0
O899 O 0.84855 0.65638 0.69347 0.0
O900 O 0.8054 0.66836 0.70388 0.0
O901 O 0.84953 0.66603 0.72048 0.0
C902 C 0.8642 0.68551 0.66669 0.0
C903 C 0.82169 0.66995 0.60817 0.0
C904 C 0.82372 0.67677 0.5775 0.0
C905 C 0.83012 0.68346 0.59442 0.0
C906 C 0.80894 0.65628 0.57465 0.0
C907 C 0.80686 0.64971 0.60497 0.0
C908 C 0.80059 0.64292 0.58829 0.0
C909 C 0.82437 0.70187 0.67366 0.0
C910 C 0.82862 0.67701 0.62576 0.0
C911 C 0.76953 0.58157 0.63534 0.0
C912 C 0.75453 0.58683 0.63924 0.0
C913 C 0.79951 0.65619 0.69096 0.0
C914 C 0.84441 0.67226 0.74909 0.0
C915 C 0.83718 0.65902 0.7631 0.0
C916 C 0.84511 0.66605 0.77967 0.0
C917 C 0.86015 0.68656 0.78191 0.0
C918 C 0.85951 0.69255 0.7517 0.0
C919 C 0.86727 0.69965 0.76802 0.0
C920 C 0.83886 0.63966 0.68401 0.0
C921 C 0.83623 0.6649 0.73179 0.0
H922 H 0.84139 0.69917 0.59696 0.0
H923 H 0.80394 0.65049 0.56183 0.0
H924 H 0.80016 0.63914 0.61533 0.0
H925 H 0.78922 0.62722 0.58592 0.0
H926 H 0.82567 0.64328 0.76104 0.0
H927 H 0.86626 0.6926 0.79447 0.0
H928 H 0.86532 0.70291 0.74114 0.0
H929 H 0.87884 0.71538 0.76992 0.0
Eu930 Eu 0.35069 0.16201 0.65623 0.0
C931 C 0.28164 0.14349 0.70977 0.0
C932 C 0.27236 0.16936 0.70527 0.0
C933 C 0.24678 0.13632 0.71582 0.0
C934 C 0.28691 0.16274 0.70448 0.0
C935 C 0.26168 0.13023 0.71593 0.0
C936 C 0.25212 0.15586 0.71049 0.0
C937 C 0.27331 0.10682 0.72351 0.0
N938 N 0.29648 0.13823 0.70996 0.0
C939 C 0.29289 0.12053 0.71729 0.0
C940 C 0.25754 0.11156 0.72259 0.0
Eu941 Eu 0.32913 0.16195 0.69897 0.0
N942 N 0.30668 0.17548 0.69975 0.0
C943 C 0.31334 0.19547 0.69695 0.0
C944 C 0.27881 0.18954 0.70139 0.0
C945 C 0.29947 0.20274 0.6975 0.0
H946 H 0.30503 0.11678 0.71791 0.0
H947 H 0.30472 0.21848 0.69483 0.0
H948 H 0.24065 0.16058 0.71096 0.0
H949 H 0.27039 0.09261 0.72895 0.0
H950 H 0.32925 0.20581 0.69386 0.0
H951 H 0.37443 0.10486 0.65962 0.0
H952 H 0.2681 0.19521 0.70179 0.0
H953 H 0.37546 0.20789 0.63853 0.0
H954 H 0.35017 0.11776 0.6609 0.0
H955 H 0.41027 0.23209 0.62783 0.0
H956 H 0.23129 0.12626 0.72032 0.0
H957 H 0.41102 0.12792 0.65242 0.0
H958 H 0.4386 0.1625 0.64333 0.0
H959 H 0.2424 0.10095 0.72746 0.0
H960 H 0.44834 0.1971 0.63455 0.0
N961 N 0.37279 0.14807 0.65491 0.0
C962 C 0.36603 0.12805 0.65769 0.0
C963 C 0.4004 0.13369 0.65293 0.0
C964 C 0.40696 0.15392 0.64911 0.0
C965 C 0.37976 0.12063 0.65697 0.0
C966 C 0.39254 0.16069 0.65006 0.0
H967 H 0.43779 0.22306 0.62842 0.0
N968 N 0.38343 0.18568 0.64536 0.0
C969 C 0.40706 0.21755 0.63272 0.0
C970 C 0.39802 0.18009 0.6451 0.0
C971 C 0.38738 0.20382 0.63873 0.0
C972 C 0.42257 0.21241 0.63311 0.0
C973 C 0.41808 0.19338 0.63913 0.0
O974 O 0.34324 0.16718 0.63036 0.0
O975 O 0.32675 0.16468 0.67088 0.0
O976 O 0.30545 0.13404 0.68465 0.0
O977 O 0.3264 0.13025 0.66465 0.0
O978 O 0.33902 0.1839 0.65047 0.0
O979 O 0.3361 0.13707 0.63801 0.0
O980 O 0.33711 0.15733 0.72482 0.0
O981 O 0.35296 0.1592 0.68428 0.0
O982 O 0.37458 0.18903 0.67104 0.0
O983 O 0.35404 0.1938 0.69076 0.0
O984 O 0.34117 0.1404 0.70499 0.0
O985 O 0.34269 0.18695 0.71727 0.0
C986 C 0.32556 0.17811 0.66248 0.0
C987 C 0.34418 0.1457 0.60904 0.0
C988 C 0.33953 0.1405 0.57826 0.0
C989 C 0.33319 0.14427 0.59406 0.0
C990 C 0.35719 0.13848 0.57758 0.0
C991 C 0.36189 0.14384 0.60813 0.0
C992 C 0.36837 0.1403 0.59245 0.0
C993 C 0.30878 0.12329 0.67305 0.0
C994 C 0.33657 0.14854 0.6255 0.0
C995 C 0.43279 0.18705 0.63893 0.0
C996 C 0.42724 0.16735 0.64393 0.0
C997 C 0.35437 0.14596 0.69278 0.0
C998 C 0.33447 0.17782 0.74614 0.0
C999 C 0.34622 0.18166 0.76112 0.0
C1000 C 0.3386 0.18395 0.7769 0.0
C1001 C 0.31897 0.18217 0.77744 0.0
C1002 C 0.31494 0.17613 0.74696 0.0
C1003 C 0.30724 0.17825 0.76255 0.0
C1004 C 0.3717 0.20016 0.68251 0.0
C1005 C 0.34282 0.17574 0.72977 0.0
H1006 H 0.3194 0.14554 0.59475 0.0
H1007 H 0.36238 0.13561 0.56554 0.0
H1008 H 0.37057 0.14489 0.61951 0.0
H1009 H 0.382 0.1388 0.59184 0.0
H1010 H 0.36141 0.1832 0.76042 0.0
H1011 H 0.31259 0.1836 0.78941 0.0
H1012 H 0.3057 0.17326 0.7356 0.0
H1013 H 0.29213 0.17688 0.76309 0.0
Eu1014 Eu 0.85875 0.17869 0.70108 0.0
C1015 C 0.80951 0.19574 0.64526 0.0
C1016 C 0.77411 0.1691 0.64886 0.0
C1017 C 0.78145 0.20195 0.63827 0.0
C1018 C 0.79547 0.17629 0.65023 0.0
C1019 C 0.80267 0.20863 0.63878 0.0
C1020 C 0.76719 0.18221 0.64332 0.0
C1021 C 0.83812 0.23294 0.63221 0.0
N1022 N 0.82984 0.2016 0.64571 0.0
C1023 C 0.84412 0.21958 0.63873 0.0
C1024 C 0.81733 0.22757 0.63247 0.0
Eu1025 Eu 0.83898 0.17855 0.65739 0.0
N1026 N 0.8027 0.16396 0.65533 0.0
C1027 C 0.78941 0.14385 0.65793 0.0
C1028 C 0.76038 0.14877 0.65255 0.0
C1029 C 0.76808 0.13601 0.65681 0.0
H1030 H 0.86023 0.22382 0.63865 0.0
H1031 H 0.75761 0.12017 0.65934 0.0
H1032 H 0.75084 0.17705 0.64241 0.0
H1033 H 0.84953 0.24737 0.62704 0.0
H1034 H 0.79515 0.13385 0.66134 0.0
H1035 H 0.94011 0.23745 0.69988 0.0
H1036 H 0.74386 0.14268 0.65172 0.0
H1037 H 0.83729 0.13272 0.71856 0.0
H1038 H 0.90266 0.22365 0.6974 0.0
H1039 H 0.84799 0.10916 0.73012 0.0
H1040 H 0.77589 0.21171 0.63353 0.0
H1041 H 0.95388 0.21514 0.70811 0.0
H1042 H 0.94693 0.18088 0.71764 0.0
H1043 H 0.81271 0.23791 0.62737 0.0
H1044 H 0.92188 0.14601 0.72602 0.0
N1045 N 0.89505 0.19356 0.70371 0.0
C1046 C 0.90833 0.21368 0.70105 0.0
C1047 C 0.93736 0.20897 0.70706 0.0
C1048 C 0.92364 0.18865 0.71076 0.0
C1049 C 0.92964 0.22161 0.70244 0.0
C1050 C 0.90228 0.18135 0.7091 0.0
H1051 H 0.88498 0.11926 0.73101 0.0
N1052 N 0.86787 0.15563 0.71275 0.0
C1053 C 0.85947 0.12388 0.72551 0.0
C1054 C 0.88825 0.16178 0.7138 0.0
C1055 C 0.85347 0.13725 0.71902 0.0
C1056 C 0.88036 0.12962 0.72595 0.0
C1057 C 0.89508 0.14888 0.72027 0.0
O1058 O 0.8448 0.17285 0.72645 0.0
O1059 O 0.8325 0.17541 0.68526 0.0
O1060 O 0.84222 0.20601 0.67145 0.0
O1061 O 0.86627 0.21026 0.69251 0.0
O1062 O 0.82475 0.15598 0.70556 0.0
O1063 O 0.86784 0.20334 0.71936 0.0
O1064 O 0.853 0.18384 0.6321 0.0
O1065 O 0.86524 0.18195 0.67323 0.0
O1066 O 0.85679 0.15221 0.68658 0.0
O1067 O 0.83214 0.14696 0.6658 0.0
O1068 O 0.87296 0.20103 0.65267 0.0
O1069 O 0.82876 0.15383 0.63893 0.0
C1070 C 0.81745 0.16163 0.69317 0.0
C1071 C 0.86605 0.19461 0.74846 0.0
C1072 C 0.86489 0.19913 0.7792 0.0
C1073 C 0.85539 0.19507 0.76302 0.0
C1074 C 0.88505 0.20239 0.78069 0.0
C1075 C 0.8861 0.19768 0.7502 0.0
C1076 C 0.8955 0.20151 0.76626 0.0
C1077 C 0.85578 0.21688 0.6835 0.0
C1078 C 0.85629 0.19154 0.73155 0.0
C1079 C 0.91632 0.15576 0.72124 0.0
C1080 C 0.93058 0.17561 0.71647 0.0
C1081 C 0.88028 0.19563 0.66523 0.0
C1082 C 0.83112 0.16312 0.60996 0.0
C1083 C 0.83941 0.15874 0.59559 0.0
C1084 C 0.83027 0.15639 0.57935 0.0
C1085 C 0.81277 0.15864 0.57777 0.0
C1086 C 0.81366 0.16525 0.60808 0.0
C1087 C 0.80456 0.16304 0.59205 0.0
C1088 C 0.84339 0.14101 0.67458 0.0
C1089 C 0.84077 0.16536 0.62683 0.0
H1090 H 0.83995 0.19283 0.76171 0.0
H1091 H 0.89265 0.20551 0.79303 0.0
H1092 H 0.89457 0.19737 0.73917 0.0
H1093 H 0.911 0.20396 0.76752 0.0
H1094 H 0.85279 0.15688 0.59712 0.0
H1095 H 0.80556 0.15725 0.56544 0.0
H1096 H 0.80702 0.16856 0.61896 0.0
H1097 H 0.79112 0.16478 0.59069 0.0
C1098 C 0.31125 0.84506 0.07483 0.0
C1099 C 0.29643 0.8308 0.06356 0.0
C1100 C 0.32861 0.86225 0.06865 0.0
C1101 C 0.36104 0.8836 0.03025 0.0
H1102 H 0.38092 0.93389 0.0554 0.0
C1103 C 0.42883 0.9741 0.0284 0.0
C1104 C 0.44584 0.972 0.02407 0.0
C1105 C 0.40944 0.95703 0.03082 0.0
C1106 C 0.37547 0.92009 0.04803 0.0
H1107 H 0.28833 0.82342 0.03687 0.0
H1108 H 0.31867 0.85362 0.026 0.0
H1109 H 0.34929 0.9041 0.06415 0.0
H1110 H 0.45607 0.9504 0.01929 0.0
H1111 H 0.42236 0.92058 0.02364 0.0
H1112 H 0.38722 0.89981 0.01397 0.0
C1113 C 0.31693 0.85136 0.03967 0.0
C1114 C 0.35744 0.90287 0.05323 0.0
C1115 C 0.29953 0.83407 0.04589 0.0
C1116 C 0.44312 0.95249 0.02213 0.0
C1117 C 0.42375 0.93538 0.02464 0.0
C1118 C 0.37911 0.9009 0.02499 0.0
C1119 C 0.33164 0.86573 0.05099 0.0
C1120 C 0.35014 0.88431 0.0446 0.0
C1121 C 0.40672 0.93743 0.02934 0.0
C1122 C 0.3867 0.91932 0.03396 0.0
H1123 H 0.3096 0.8428 0.08851 0.0
H1124 H 0.33984 0.87269 0.07776 0.0
H1125 H 0.35593 0.86955 0.02333 0.0
H1126 H 0.43062 0.989 0.03012 0.0
H1127 H 0.39665 0.95921 0.03416 0.0
C1128 C 0.16278 0.4439 0.05694 0.0
C1129 C 0.18242 0.46136 0.05681 0.0
C1130 C 0.14528 0.44469 0.05163 0.0
C1131 C 0.12838 0.47603 0.02752 0.0
H1132 H 0.07899 0.44741 0.0548 0.0
C1133 C 0.05993 0.4912 0.02247 0.0
C1134 C 0.03984 0.4746 0.02365 0.0
C1135 C 0.07708 0.48879 0.02523 0.0
C1136 C 0.09253 0.45527 0.04687 0.0
H1137 H 0.19891 0.49338 0.05085 0.0
H1138 H 0.1685 0.49473 0.04157 0.0
H1139 H 0.10921 0.44458 0.0617 0.0
H1140 H 0.02189 0.44265 0.02921 0.0
H1141 H 0.05181 0.43828 0.03392 0.0
H1142 H 0.11168 0.48687 0.01278 0.0
C1143 C 0.16663 0.48032 0.04555 0.0
C1144 C 0.10991 0.45364 0.05083 0.0
C1145 C 0.18412 0.47954 0.05087 0.0
C1146 C 0.03723 0.45562 0.02799 0.0
C1147 C 0.05437 0.45319 0.03079 0.0
C1148 C 0.11097 0.47765 0.02354 0.0
C1149 C 0.14693 0.46297 0.04603 0.0
C1150 C 0.12814 0.4641 0.04129 0.0
C1151 C 0.07455 0.46976 0.02952 0.0
C1152 C 0.09285 0.4674 0.03324 0.0
H1153 H 0.16089 0.42956 0.06118 0.0
H1154 H 0.13043 0.43093 0.0519 0.0
H1155 H 0.14202 0.48406 0.01972 0.0
H1156 H 0.06243 0.50614 0.01963 0.0
H1157 H 0.09233 0.50197 0.02443 0.0
C1158 C 0.5501 0.71074 0.07747 0.0
C1159 C 0.54427 0.72181 0.06673 0.0
C1160 C 0.54934 0.69305 0.0717 0.0
C1161 C 0.54404 0.66289 0.03241 0.0
H1162 H 0.5274 0.61951 0.06517 0.0
C1163 C 0.51822 0.57942 0.01474 0.0
C1164 C 0.52751 0.57041 0.02418 0.0
C1165 C 0.52137 0.59853 0.01926 0.0
C1166 C 0.53221 0.63156 0.05592 0.0
H1167 H 0.53356 0.72299 0.0412 0.0
H1168 H 0.53116 0.69155 0.03143 0.0
H1169 H 0.53054 0.65149 0.07419 0.0
H1170 H 0.54733 0.57451 0.04597 0.0
H1171 H 0.55231 0.60756 0.05407 0.0
H1172 H 0.54486 0.64236 0.01402 0.0
C1173 C 0.53681 0.69683 0.04424 0.0
C1174 C 0.53415 0.64997 0.06109 0.0
C1175 C 0.5379 0.71476 0.04994 0.0
C1176 C 0.53992 0.58093 0.03835 0.0
C1177 C 0.54279 0.59987 0.04303 0.0
C1178 C 0.54177 0.64431 0.02719 0.0
C1179 C 0.54232 0.68561 0.05511 0.0
C1180 C 0.54022 0.66597 0.04944 0.0
C1181 C 0.53353 0.60882 0.03354 0.0
C1182 C 0.53595 0.62853 0.03893 0.0
H1183 H 0.55477 0.71539 0.09057 0.0
H1184 H 0.55415 0.68512 0.08036 0.0
H1185 H 0.54903 0.6749 0.02313 0.0
H1186 H 0.50811 0.57159 0.00408 0.0
H1187 H 0.51382 0.60499 0.01188 0.0
C1188 C 0.84041 0.29504 0.94794 0.0
C1189 C 0.82547 0.28274 0.95995 0.0
C1190 C 0.85756 0.31339 0.95282 0.0
C1191 C 0.88689 0.34385 0.99123 0.0
H1192 H 0.90894 0.38767 0.9585 0.0
C1193 C 0.94281 0.42847 0.00783 0.0
C1194 C 0.96115 0.43796 0.99832 0.0
C1195 C 0.92693 0.40909 0.00344 0.0
C1196 C 0.903 0.37551 0.96771 0.0
H1197 H 0.81736 0.28032 0.98677 0.0
H1198 H 0.8464 0.31283 0.99504 0.0
H1199 H 0.87967 0.35501 0.95051 0.0
H1200 H 0.97677 0.43452 0.97631 0.0
H1201 H 0.94861 0.40097 0.96831 0.0
H1202 H 0.90978 0.36501 0.00866 0.0
C1203 C 0.84524 0.30802 0.98187 0.0
C1204 C 0.88629 0.35668 0.96313 0.0
C1205 C 0.82828 0.28941 0.97705 0.0
C1206 C 0.96297 0.4277 0.98403 0.0
C1207 C 0.94686 0.40849 0.97942 0.0
C1208 C 0.90332 0.36284 0.99591 0.0
C1209 C 0.86012 0.32035 0.96981 0.0
C1210 C 0.878 0.34049 0.97479 0.0
C1211 C 0.92877 0.39899 0.98915 0.0
C1212 C 0.91156 0.37879 0.98416 0.0
H1213 H 0.83875 0.29078 0.93459 0.0
H1214 H 0.86879 0.32211 0.94317 0.0
H1215 H 0.88132 0.33178 1.00049 0.0
H1216 H 0.94049 0.43607 0.01851 0.0
H1217 H 0.91298 0.4022 0.01098 0.0
C1218 C 0.72332 0.5638 0.96572 0.0
C1219 C 0.725 0.54622 0.96608 0.0
C1220 C 0.70533 0.56339 0.97129 0.0
C1221 C 0.65763 0.53328 0.99675 0.0
H1222 H 0.63654 0.56147 0.96956 0.0
C1223 C 0.57411 0.51864 0.00301 0.0
C1224 C 0.57073 0.53511 1.00127 0.0
C1225 C 0.5937 0.52106 1.00032 0.0
C1226 C 0.64234 0.55377 0.97749 0.0
H1227 H 0.70885 0.51438 0.97268 0.0
H1228 H 0.67761 0.51369 0.98241 0.0
H1229 H 0.66914 0.56371 0.96196 0.0
H1230 H 0.58508 0.56689 0.99506 0.0
H1231 H 0.61942 0.57124 0.99047 0.0
H1232 H 0.63065 0.52317 0.01218 0.0
C1233 C 0.69033 0.5279 0.97804 0.0
C1234 C 0.66108 0.55504 0.9731 0.0
C1235 C 0.7083 0.5283 0.97245 0.0
C1236 C 0.58733 0.55401 0.99668 0.0
C1237 C 0.60694 0.55644 0.99395 0.0
C1238 C 0.63887 0.53202 1.00115 0.0
C1239 C 0.68851 0.5454 0.9774 0.0
C1240 C 0.66893 0.5447 0.98258 0.0
C1241 C 0.61036 0.53994 0.99555 0.0
C1242 C 0.63088 0.54212 0.99149 0.0
H1243 H 0.73596 0.57795 0.96115 0.0
H1244 H 0.70465 0.57725 0.97086 0.0
H1245 H 0.66333 0.52537 0.00452 0.0
H1246 H 0.56152 0.50375 0.00605 0.0
H1247 H 0.59561 0.50792 1.00141 0.0
C1248 C 0.48307 0.18811 0.97175 0.0
C1249 C 0.47717 0.1882 0.95466 0.0
C1250 C 0.48354 0.17133 0.97837 0.0
C1251 C 0.46206 0.11695 0.97342 0.0
H1252 H 0.51347 0.12566 0.99316 0.0
C1253 C 0.47594 0.05046 0.98759 0.0
C1254 C 0.48875 0.05208 1.00141 0.0
C1255 C 0.47366 0.06689 0.98284 0.0
C1256 C 0.49883 0.1229 0.98803 0.0
H1257 H 0.4671 0.17041 0.93124 0.0
H1258 H 0.46711 0.14092 0.94309 0.0
H1259 H 0.51058 0.15452 0.98361 0.0
H1260 H 0.50931 0.07249 0.02093 0.0
H1261 H 0.50435 0.10058 0.0134 0.0
H1262 H 0.45002 0.08546 0.97815 0.0
C1263 C 0.47141 0.15394 0.95127 0.0
C1264 C 0.49726 0.13949 0.98248 0.0
C1265 C 0.4713 0.17083 0.94453 0.0
C1266 C 0.49901 0.07049 0.01045 0.0
C1267 C 0.49643 0.0868 0.00591 0.0
C1268 C 0.46348 0.10038 0.97926 0.0
C1269 C 0.47775 0.15413 0.96818 0.0
C1270 C 0.47895 0.13663 0.97494 0.0
C1271 C 0.4839 0.08533 0.99191 0.0
C1272 C 0.48198 0.10308 0.98647 0.0
H1273 H 0.4873 0.20098 0.98006 0.0
H1274 H 0.48833 0.17175 0.99151 0.0
H1275 H 0.4477 0.11441 0.96778 0.0
H1276 H 0.46791 0.0366 0.9802 0.0
H1277 H 0.46421 0.06521 0.97177 0.0
C1278 C 0.69092 0.17304 0.96515 0.0
C1279 C 0.7002 0.187 0.97855 0.0
C1280 C 0.67423 0.1537 0.96832 0.0
C1281 C 0.63363 0.12621 1.00103 0.0
H1282 H 0.6211 0.07978 0.97253 0.0
C1283 C 0.55307 0.05519 1.00067 0.0
C1284 C 0.55135 0.03614 0.99841 0.0
C1285 C 0.57216 0.07285 0.99915 0.0
C1286 C 0.62447 0.09247 0.98081 0.0
H1287 H 0.70027 0.19149 0.00584 0.0
H1288 H 0.67194 0.15753 0.01159 0.0
H1289 H 0.65342 0.11122 0.96865 0.0
H1290 H 0.56798 0.02054 0.99218 0.0
H1291 H 0.6016 0.05139 0.99002 0.0
H1292 H 0.60506 0.1073 0.01359 0.0
C1293 C 0.67683 0.16158 0.99851 0.0
C1294 C 0.64293 0.11068 0.97839 0.0
C1295 C 0.69323 0.181 0.99527 0.0
C1296 C 0.56901 0.03508 0.99422 0.0
C1297 C 0.5882 0.05277 0.99286 0.0
C1298 C 0.61534 0.10796 0.0036 0.0
C1299 C 0.66667 0.14781 0.98503 0.0
C1300 C 0.64767 0.12792 0.9883 0.0
C1301 C 0.59004 0.07193 0.99527 0.0
C1302 C 0.6103 0.09092 0.99333 0.0
H1303 H 0.69594 0.17742 0.95212 0.0
H1304 H 0.66675 0.14372 0.95755 0.0
H1305 H 0.63644 0.13912 0.0088 0.0
H1306 H 0.53962 0.05652 0.00333 0.0
H1307 H 0.57275 0.08726 1.00066 0.0
C1308 C 0.83709 0.5225 0.96648 0.0
C1309 C 0.82449 0.51943 0.98069 0.0
C1310 C 0.85652 0.52412 0.96853 0.0
C1311 C 0.8853 0.51026 0.99964 0.0
H1312 H 0.93142 0.54169 0.96966 0.0
C1313 C 0.95638 0.49933 0.99833 0.0
C1314 C 0.9759 0.5165 0.99617 0.0
C1315 C 0.93847 0.50068 0.99661 0.0
C1316 C 0.91879 0.53298 0.97829 0.0
H1317 H 0.82276 0.51691 0.00821 0.0
H1318 H 0.85682 0.5206 0.01192 0.0
H1319 H 0.90005 0.5437 0.96675 0.0
H1320 H 0.99204 0.5483 0.98983 0.0
H1321 H 0.96084 0.5509 0.98724 0.0
H1322 H 0.9042 0.49998 0.01151 0.0
C1323 C 0.85158 0.52102 0.99911 0.0
C1324 C 0.90064 0.53393 0.97646 0.0
C1325 C 0.83213 0.51915 0.99703 0.0
C1326 C 0.97715 0.53491 0.99179 0.0
C1327 C 0.95925 0.53632 0.99018 0.0
C1328 C 0.90348 0.50942 1.00154 0.0
C1329 C 0.86384 0.5229 0.98487 0.0
C1330 C 0.88356 0.52251 0.98706 0.0
C1331 C 0.93962 0.51923 0.99259 0.0
C1332 C 0.92045 0.52064 0.99082 0.0
H1333 H 0.83146 0.52256 0.95373 0.0
H1334 H 0.86535 0.52539 0.95722 0.0
H1335 H 0.87247 0.50095 0.0079 0.0
H1336 H 0.95494 0.4848 1.00123 0.0
H1337 H 0.92369 0.48708 0.99822 0.0
C1338 C 0.50629 0.31897 0.95346 0.0
C1339 C 0.52074 0.31576 0.96241 0.0
C1340 C 0.5037 0.33548 0.9575 0.0
C1341 C 0.53193 0.38613 0.97698 0.0
H1342 H 0.47837 0.38196 0.98189 0.0
C1343 C 0.52411 0.44986 0.00787 0.0
C1344 C 0.51029 0.45528 1.00072 0.0
C1345 C 0.52412 0.43243 0.00251 0.0
C1346 C 0.49343 0.38341 0.98033 0.0
H1347 H 0.54297 0.32678 0.98324 0.0
H1348 H 0.53862 0.35556 0.99011 0.0
H1349 H 0.48055 0.352 0.97377 0.0
H1350 H 0.48552 0.44644 0.98226 0.0
H1351 H 0.48574 0.41593 0.97266 0.0
H1352 H 0.54491 0.41738 0.98345 0.0
C1353 C 0.52957 0.34557 0.97976 0.0
C1354 C 0.49467 0.36627 0.97571 0.0
C1355 C 0.53209 0.32908 0.97579 0.0
C1356 C 0.49632 0.44267 0.98809 0.0
C1357 C 0.49637 0.42515 0.98265 0.0
C1358 C 0.53071 0.4032 0.9815 0.0
C1359 C 0.51558 0.34913 0.97052 0.0
C1360 C 0.51395 0.36739 0.97431 0.0
C1361 C 0.51047 0.41999 0.98967 0.0
C1362 C 0.51146 0.40199 0.98357 0.0
H1363 H 0.4974 0.30907 0.94301 0.0
H1364 H 0.49285 0.33791 0.95012 0.0
H1365 H 0.54702 0.38759 0.97561 0.0
H1366 H 0.53531 0.45927 0.01744 0.0
H1367 H 0.53494 0.42875 0.00842 0.0
C1368 C 0.18854 0.70529 0.04529 0.0
C1369 C 0.20256 0.70336 0.05599 0.0
C1370 C 0.16894 0.68861 0.04208 0.0
C1371 C 0.13749 0.64659 0.02791 0.0
H1372 H 0.10331 0.60972 0.0633 0.0
C1373 C 0.07696 0.56321 0.0149 0.0
C1374 C 0.05726 0.5557 0.02203 0.0
C1375 C 0.09307 0.58244 0.01926 0.0
C1376 C 0.11259 0.61998 0.0533 0.0
H1377 H 0.20682 0.6829 0.07239 0.0
H1378 H 0.17251 0.65391 0.06706 0.0
H1379 H 0.13416 0.64165 0.0712 0.0
H1380 H 0.03934 0.56244 0.03989 0.0
H1381 H 0.0678 0.59593 0.04788 0.0
H1382 H 0.11639 0.62462 0.01 0.0
C1383 C 0.17665 0.66822 0.06107 0.0
C1384 C 0.13028 0.63817 0.05782 0.0
C1385 C 0.19631 0.68476 0.06404 0.0
C1386 C 0.05424 0.56778 0.03402 0.0
C1387 C 0.07053 0.58694 0.03863 0.0
C1388 C 0.12001 0.62829 0.02341 0.0
C1389 C 0.16291 0.66983 0.04977 0.0
C1390 C 0.14305 0.65155 0.04516 0.0
C1391 C 0.09006 0.5945 0.03118 0.0
C1392 C 0.10753 0.61467 0.03604 0.0
H1393 H 0.19303 0.71945 0.03887 0.0
H1394 H 0.15862 0.69029 0.03338 0.0
H1395 H 0.14712 0.65651 0.01788 0.0
H1396 H 0.08012 0.55416 0.00608 0.0
H1397 H 0.10807 0.5877 0.01358 0.0
C1398 C 0.31871 0.48492 0.05668 0.0
C1399 C 0.30888 0.48814 0.04274 0.0
C1400 C 0.33638 0.48324 0.05423 0.0
C1401 C 0.37835 0.49711 0.02241 0.0
H1402 H 0.39324 0.46553 0.05174 0.0
C1403 C 0.46069 0.50822 0.02291 0.0
C1404 C 0.46293 0.49115 0.02515 0.0
C1405 C 0.44134 0.50672 0.02455 0.0
C1406 C 0.38926 0.47427 0.04327 0.0
H1407 H 0.30898 0.4909 0.01525 0.0
H1408 H 0.33908 0.48706 0.01082 0.0
H1409 H 0.35994 0.46355 0.05525 0.0
H1410 H 0.44693 0.45932 0.03139 0.0
H1411 H 0.41299 0.45647 0.03385 0.0
H1412 H 0.40738 0.50739 0.01011 0.0
C1413 C 0.33378 0.48657 0.02375 0.0
C1414 C 0.3702 0.47335 0.04545 0.0
C1415 C 0.31634 0.48852 0.02624 0.0
C1416 C 0.44553 0.47264 0.02939 0.0
C1417 C 0.42613 0.47109 0.03093 0.0
C1418 C 0.3973 0.49791 0.02014 0.0
C1419 C 0.34448 0.48454 0.03773 0.0
C1420 C 0.36449 0.48484 0.03511 0.0
C1421 C 0.42375 0.48812 0.02859 0.0
C1422 C 0.40314 0.48665 0.03063 0.0
H1423 H 0.31339 0.48482 0.06955 0.0
H1424 H 0.3442 0.48185 0.06535 0.0
H1425 H 0.3748 0.50647 0.01433 0.0
H1426 H 0.47394 0.52282 0.0201 0.0
H1427 H 0.44029 0.52028 0.02297 0.0
C1428 C 0.51267 0.82257 0.06788 0.0
C1429 C 0.49844 0.80504 0.05891 0.0
C1430 C 0.51487 0.84144 0.06387 0.0
C1431 C 0.4859 0.86356 0.04446 0.0
H1432 H 0.53904 0.91236 0.03983 0.0
C1433 C 0.49241 0.9347 0.01459 0.0
C1434 C 0.50595 0.95361 0.02201 0.0
C1435 C 0.49279 0.91738 0.01959 0.0
C1436 C 0.5241 0.89891 0.0413 0.0
H1437 H 0.47615 0.79383 0.03813 0.0
H1438 H 0.47982 0.82657 0.03131 0.0
H1439 H 0.53744 0.88053 0.04771 0.0
H1440 H 0.53068 0.96909 0.04052 0.0
H1441 H 0.5311 0.93858 0.0495 0.0
H1442 H 0.47246 0.88171 0.03816 0.0
C1443 C 0.48901 0.82569 0.04164 0.0
C1444 C 0.52319 0.8807 0.04578 0.0
C1445 C 0.48688 0.80692 0.04558 0.0
C1446 C 0.52008 0.95478 0.0345 0.0
C1447 C 0.52039 0.93732 0.03958 0.0
C1448 C 0.48679 0.88169 0.04007 0.0
C1449 C 0.50281 0.84312 0.05088 0.0
C1450 C 0.50406 0.86277 0.04712 0.0
C1451 C 0.50654 0.91838 0.03232 0.0
C1452 C 0.50589 0.89951 0.03813 0.0
H1453 H 0.5217 0.82163 0.0783 0.0
H1454 H 0.52555 0.8546 0.07126 0.0
H1455 H 0.47092 0.8501 0.04577 0.0
H1456 H 0.48112 0.93307 0.00512 0.0
H1457 H 0.48216 0.90311 0.0135 0.0
C1458 C 0.96543 0.16798 0.37866 0.0
C1459 C 0.96252 0.16427 0.39629 0.0
C1460 C 0.98267 0.1855 0.37258 0.0
C1461 C 0.02348 0.23668 0.38679 0.0
H1462 H 0.05247 0.23445 0.34664 0.0
C1463 C 0.10876 0.28653 0.35499 0.0
C1464 C 0.11182 0.30604 0.35781 0.0
C1465 C 0.08931 0.26949 0.35737 0.0
C1466 C 0.0446 0.23532 0.35791 0.0
H1467 H 0.97579 0.17574 0.42131 0.0
H1468 H 0.00581 0.20602 0.4108 0.0
H1469 H 0.02124 0.20409 0.35583 0.0
H1470 H 0.09712 0.32315 0.36521 0.0
H1471 H 0.063 0.2935 0.36896 0.0
H1472 H 0.0472 0.26753 0.38941 0.0
C1473 C 0.99455 0.19576 0.40162 0.0
C1474 C 0.02654 0.21795 0.36308 0.0
C1475 C 0.97732 0.17836 0.40767 0.0
C1476 C 0.09507 0.30824 0.36283 0.0
C1477 C 0.07559 0.29124 0.36509 0.0
C1478 C 0.04153 0.25395 0.3817 0.0
C1479 C 0.99744 0.19965 0.384 0.0
C1480 C 0.01591 0.21834 0.37774 0.0
C1481 C 0.07255 0.2716 0.36279 0.0
C1482 C 0.05248 0.25348 0.36731 0.0
H1483 H 0.95423 0.15746 0.36957 0.0
H1484 H 0.98428 0.18808 0.35895 0.0
H1485 H 0.01554 0.23769 0.39796 0.0
H1486 H 0.12152 0.28436 0.35156 0.0
H1487 H 0.08768 0.25465 0.35571 0.0
C1488 C 0.83152 0.78334 0.39436 0.0
C1489 C 0.85126 0.80041 0.39257 0.0
C1490 C 0.81388 0.78389 0.38914 0.0
C1491 C 0.79574 0.81289 0.36302 0.0
H1492 H 0.74895 0.78859 0.39356 0.0
C1493 C 0.7272 0.82818 0.35837 0.0
C1494 C 0.70729 0.81182 0.3612 0.0
C1495 C 0.74457 0.82606 0.36095 0.0
C1496 C 0.76173 0.79521 0.38473 0.0
H1497 H 0.86781 0.83136 0.38356 0.0
H1498 H 0.8371 0.83232 0.37448 0.0
H1499 H 0.77941 0.78602 0.39994 0.0
H1500 H 0.68994 0.78073 0.36954 0.0
H1501 H 0.7202 0.77689 0.37389 0.0
H1502 H 0.77802 0.82226 0.34792 0.0
C1503 C 0.83525 0.81839 0.37973 0.0
C1504 C 0.77925 0.79373 0.3884 0.0
C1505 C 0.8529 0.81784 0.38494 0.0
C1506 C 0.70512 0.79348 0.36703 0.0
C1507 C 0.72246 0.79134 0.36961 0.0
C1508 C 0.77818 0.81438 0.35935 0.0
C1509 C 0.81546 0.80153 0.382 0.0
C1510 C 0.79655 0.8026 0.37764 0.0
C1511 C 0.74244 0.80764 0.36668 0.0
C1512 C 0.76097 0.80562 0.37021 0.0
H1513 H 0.82968 0.76956 0.39994 0.0
H1514 H 0.79895 0.77046 0.39078 0.0
H1515 H 0.80864 0.81968 0.35432 0.0
H1516 H 0.7294 0.8427 0.35442 0.0
H1517 H 0.75971 0.83904 0.35884 0.0
C1518 C 0.22661 0.05474 0.39233 0.0
C1519 C 0.20792 0.05478 0.39433 0.0
C1520 C 0.22674 0.0378 0.38557 0.0
C1521 C 0.19751 0.99249 0.35918 0.0
H1522 H 0.22203 0.96833 0.38745 0.0
C1523 C 0.1793 0.91038 0.34874 0.0
C1524 C 0.19437 0.90519 0.35281 0.0
C1525 C 0.18271 0.92979 0.35224 0.0
C1526 C 0.21549 0.97503 0.37915 0.0
H1527 H 0.17472 0.03683 0.39055 0.0
H1528 H 0.1752 0.00779 0.37815 0.0
H1529 H 0.22536 1.00063 0.39581 0.0
H1530 H 0.22513 0.91646 0.36315 0.0
H1531 H 0.23142 0.95053 0.36868 0.0
H1532 H 0.18782 0.96716 0.34237 0.0
C1533 C 0.18969 0.02091 0.38185 0.0
C1534 C 0.21735 0.99352 0.38402 0.0
C1535 C 0.18948 0.03766 0.38889 0.0
C1536 C 0.21313 0.91995 0.36003 0.0
C1537 C 0.21668 0.93947 0.3633 0.0
C1538 C 0.19594 0.97416 0.35413 0.0
C1539 C 0.20827 0.02071 0.38037 0.0
C1540 C 0.20806 0.00222 0.37424 0.0
C1541 C 0.2014 0.9446 0.35967 0.0
C1542 C 0.20456 0.96496 0.36423 0.0
H1543 H 0.24115 0.06774 0.39607 0.0
H1544 H 0.24129 0.03802 0.38443 0.0
H1545 H 0.19038 0.99902 0.35134 0.0
H1546 H 0.16459 0.89928 0.3433 0.0
H1547 H 0.17039 0.93296 0.34955 0.0
C1548 C 0.49315 0.62301 0.31206 0.0
C1549 C 0.49102 0.61663 0.29491 0.0
C1550 C 0.50996 0.64147 0.31736 0.0
C1551 C 0.55205 0.6903 0.29967 0.0
H1552 H 0.57324 0.69818 0.346 0.0
C1553 C 0.62889 0.75949 0.32254 0.0
C1554 C 0.62643 0.77093 0.33552 0.0
C1555 C 0.61265 0.74035 0.31801 0.0
C1556 C 0.56741 0.69612 0.33304 0.0
H1557 H 0.50549 0.62502 0.26998 0.0
H1558 H 0.53529 0.65604 0.27942 0.0
H1559 H 0.54499 0.66509 0.33719 0.0
H1560 H 0.60464 0.77107 0.35367 0.0
H1561 H 0.57672 0.73719 0.34633 0.0
H1562 H 0.57523 0.72122 0.29548 0.0
C1563 C 0.52359 0.64724 0.28873 0.0
C1564 C 0.5511 0.67722 0.32797 0.0
C1565 C 0.50657 0.62904 0.28336 0.0
C1566 C 0.60735 0.76258 0.34397 0.0
C1567 C 0.59129 0.74322 0.3397 0.0
C1568 C 0.56865 0.70901 0.30464 0.0
C1569 C 0.52541 0.65395 0.30575 0.0
C1570 C 0.54308 0.67402 0.3112 0.0
C1571 C 0.59375 0.73206 0.32657 0.0
C1572 C 0.57639 0.7121 0.32137 0.0
H1573 H 0.48179 0.61381 0.32147 0.0
H1574 H 0.51053 0.64607 0.33053 0.0
H1575 H 0.54611 0.6888 0.2868 0.0
H1576 H 0.64327 0.76538 0.31567 0.0
H1577 H 0.61486 0.73198 0.30782 0.0
C1578 C 0.37329 0.85877 0.30512 0.0
C1579 C 0.3895 0.87642 0.29791 0.0
C1580 C 0.35525 0.85828 0.31065 0.0
C1581 C 0.3247 0.88353 0.30334 0.0
H1582 H 0.29537 0.8549 0.34399 0.0
C1583 C 0.251 0.88349 0.32487 0.0
C1584 C 0.23468 0.86516 0.33083 0.0
C1585 C 0.2706 0.88581 0.32248 0.0
C1586 C 0.30327 0.86281 0.33251 0.0
H1587 H 0.39966 0.90768 0.29163 0.0
H1588 H 0.36822 0.90679 0.30117 0.0
H1589 H 0.32829 0.85718 0.33695 0.0
H1590 H 0.22587 0.8346 0.33835 0.0
H1591 H 0.25998 0.83853 0.33417 0.0
H1592 H 0.29963 0.88886 0.29865 0.0
C1593 C 0.36932 0.8932 0.30229 0.0
C1594 C 0.32217 0.86413 0.32848 0.0
C1595 C 0.38737 0.89371 0.29681 0.0
C1596 C 0.23828 0.8491 0.33423 0.0
C1597 C 0.25788 0.85138 0.3318 0.0
C1598 C 0.30582 0.88215 0.30732 0.0
C1599 C 0.35289 0.8754 0.30908 0.0
C1600 C 0.3331 0.87447 0.3138 0.0
C1601 C 0.27427 0.8697 0.3257 0.0
C1602 C 0.29478 0.87171 0.32192 0.0
H1603 H 0.37422 0.84507 0.30597 0.0
H1604 H 0.34285 0.84424 0.31562 0.0
H1605 H 0.33246 0.89129 0.29177 0.0
H1606 H 0.24856 0.89603 0.32199 0.0
H1607 H 0.28286 0.90022 0.31799 0.0
C1608 C 0.13383 0.50433 0.28324 0.0
C1609 C 0.1405 0.52205 0.29306 0.0
C1610 C 0.13394 0.48749 0.29008 0.0
C1611 C 0.16123 0.47365 0.32021 0.0
H1612 H 0.11367 0.41965 0.3175 0.0
C1613 C 0.16475 0.40476 0.34627 0.0
C1614 C 0.154 0.38642 0.33718 0.0
C1615 C 0.16181 0.42105 0.34246 0.0
C1616 C 0.1272 0.43457 0.31816 0.0
H1617 H 0.15195 0.53553 0.31806 0.0
H1618 H 0.15298 0.50636 0.32968 0.0
H1619 H 0.11083 0.44849 0.30764 0.0
H1620 H 0.13186 0.37101 0.31672 0.0
H1621 H 0.12753 0.39956 0.30955 0.0
H1622 H 0.17801 0.45991 0.32985 0.0
C1623 C 0.14757 0.50562 0.3167 0.0
C1624 C 0.12548 0.45108 0.31262 0.0
C1625 C 0.14709 0.52235 0.30998 0.0
C1626 C 0.14032 0.38482 0.32412 0.0
C1627 C 0.13766 0.40121 0.3201 0.0
C1628 C 0.16308 0.45713 0.32545 0.0
C1629 C 0.14107 0.48809 0.30678 0.0
C1630 C 0.14251 0.47073 0.31351 0.0
C1631 C 0.14839 0.41959 0.32918 0.0
C1632 C 0.14613 0.43731 0.3244 0.0
H1633 H 0.12906 0.50359 0.27006 0.0
H1634 H 0.12908 0.4742 0.28211 0.0
H1635 H 0.17464 0.48868 0.32084 0.0
H1636 H 0.1757 0.40672 0.35618 0.0
H1637 H 0.17015 0.4348 0.34993 0.0
C1638 C 0.35874 0.51526 0.32822 0.0
C1639 C 0.36544 0.52144 0.31147 0.0
C1640 C 0.34242 0.49581 0.33143 0.0
C1641 C 0.30819 0.44516 0.31098 0.0
H1642 H 0.27099 0.44122 0.34701 0.0
C1643 C 0.23433 0.36941 0.32646 0.0
C1644 C 0.21681 0.37047 0.33116 0.0
C1645 C 0.25355 0.38707 0.32516 0.0
C1646 C 0.28108 0.44204 0.33678 0.0
H1647 H 0.36076 0.51217 0.28495 0.0
H1648 H 0.33165 0.47842 0.29035 0.0
H1649 H 0.30229 0.4731 0.34223 0.0
H1650 H 0.20532 0.39083 0.33703 0.0
H1651 H 0.23849 0.42154 0.33443 0.0
H1652 H 0.28622 0.41438 0.30487 0.0
C1653 C 0.33931 0.48826 0.30116 0.0
C1654 C 0.29933 0.46032 0.33421 0.0
C1655 C 0.35594 0.50764 0.298 0.0
C1656 C 0.21868 0.3895 0.33398 0.0
C1657 C 0.23779 0.40714 0.33249 0.0
C1658 C 0.28975 0.42693 0.31338 0.0
C1659 C 0.33205 0.48218 0.31791 0.0
C1660 C 0.31312 0.46224 0.32119 0.0
C1661 C 0.25554 0.40621 0.32811 0.0
C1662 C 0.27581 0.42519 0.3262 0.0
H1663 H 0.36596 0.52565 0.33882 0.0
H1664 H 0.33776 0.4916 0.34454 0.0
H1665 H 0.3185 0.44584 0.30101 0.0
H1666 H 0.23317 0.35488 0.32399 0.0
H1667 H 0.26685 0.38567 0.32193 0.0
C1668 C 0.49939 0.85347 0.32782 0.0
C1669 C 0.49094 0.85234 0.31154 0.0
C1670 C 0.5189 0.85542 0.32967 0.0
C1671 C 0.56665 0.86577 0.30614 0.0
H1672 H 0.57094 0.83392 0.34274 0.0
C1673 C 0.64303 0.86634 0.3218 0.0
C1674 C 0.64152 0.84815 0.32732 0.0
C1675 C 0.62527 0.86795 0.31974 0.0
C1676 C 0.57001 0.84277 0.33235 0.0
H1677 H 0.49651 0.85308 0.28442 0.0
H1678 H 0.53053 0.85608 0.28753 0.0
H1679 H 0.53946 0.83533 0.33926 0.0
H1680 H 0.62021 0.8169 0.33362 0.0
H1681 H 0.58928 0.81951 0.32987 0.0
H1682 H 0.597 0.87249 0.29886 0.0
C1683 C 0.52229 0.85585 0.29894 0.0
C1684 C 0.55199 0.84387 0.3305 0.0
C1685 C 0.5028 0.85415 0.29711 0.0
C1686 C 0.62189 0.83131 0.32994 0.0
C1687 C 0.60415 0.83285 0.32777 0.0
C1688 C 0.58468 0.86457 0.30793 0.0
C1689 C 0.53037 0.85594 0.31527 0.0
C1690 C 0.54999 0.85537 0.31737 0.0
C1691 C 0.60557 0.85125 0.32282 0.0
C1692 C 0.58657 0.85295 0.32102 0.0
H1693 H 0.49057 0.85219 0.33916 0.0
H1694 H 0.52476 0.85603 0.34244 0.0
H1695 H 0.56583 0.87493 0.29597 0.0
H1696 H 0.65799 0.87945 0.31942 0.0
H1697 H 0.62705 0.8824 0.31603 0.0
C1698 C 0.19871 0.66287 0.31262 0.0
C1699 C 0.18702 0.64969 0.29928 0.0
C1700 C 0.19619 0.67924 0.31708 0.0
C1701 C 0.16065 0.69939 0.31428 0.0
H1702 H 0.21052 0.75073 0.32235 0.0
C1703 C 0.1616 0.77547 0.32566 0.0
C1704 C 0.17568 0.7886 0.338 0.0
C1705 C 0.16164 0.75778 0.32082 0.0
C1706 C 0.19642 0.73646 0.32035 0.0
H1707 H 0.16327 0.64324 0.28033 0.0
H1708 H 0.15879 0.67188 0.28823 0.0
H1709 H 0.21307 0.72128 0.31413 0.0
H1710 H 0.2006 0.79313 0.35508 0.0
H1711 H 0.2002 0.76227 0.34708 0.0
H1712 H 0.14402 0.71469 0.32065 0.0
C1713 C 0.16983 0.6694 0.29527 0.0
C1714 C 0.19789 0.71959 0.31561 0.0
C1715 C 0.17239 0.65302 0.29076 0.0
C1716 C 0.18939 0.78337 0.34566 0.0
C1717 C 0.18937 0.76574 0.3409 0.0
C1718 C 0.15916 0.71633 0.3191 0.0
C1719 C 0.18189 0.68282 0.30835 0.0
C1720 C 0.18005 0.70081 0.31272 0.0
C1721 C 0.17579 0.75292 0.3282 0.0
C1722 C 0.17706 0.735 0.32239 0.0
H1723 H 0.20976 0.66048 0.31971 0.0
H1724 H 0.20542 0.68907 0.32745 0.0
H1725 H 0.14663 0.68508 0.31222 0.0
H1726 H 0.15085 0.77904 0.31947 0.0
H1727 H 0.15105 0.74826 0.31093 0.0
C1728 C 0.86946 0.02449 0.36856 0.0
C1729 C 0.87287 0.03713 0.38277 0.0
C1730 C 0.8503 0.00726 0.3658 0.0
C1731 C 0.79517 0.98206 0.37412 0.0
H1732 H 0.79821 0.93314 0.36778 0.0
C1733 C 0.72238 0.90193 0.36538 0.0
C1734 C 0.72423 0.88882 0.35374 0.0
C1735 C 0.73965 0.92056 0.36986 0.0
C1736 C 0.79703 0.94665 0.36929 0.0
H1737 H 0.85824 0.0421 0.40468 0.0
H1738 H 0.82438 0.01202 0.39953 0.0
H1739 H 0.82954 0.96507 0.37336 0.0
H1740 H 0.74587 0.88518 0.3378 0.0
H1741 H 0.77531 0.9176 0.34486 0.0
H1742 H 0.76264 0.96368 0.36949 0.0
C1743 C 0.8368 0.01551 0.39069 0.0
C1744 C 0.81501 0.96494 0.37259 0.0
C1745 C 0.85616 0.03273 0.3936 0.0
C1746 C 0.74365 0.89489 0.34659 0.0
C1747 C 0.76074 0.91347 0.35089 0.0
C1748 C 0.77709 0.96371 0.37059 0.0
C1749 C 0.8339 0.00234 0.37702 0.0
C1750 C 0.81435 0.98288 0.37476 0.0
C1751 C 0.75911 0.92646 0.36278 0.0
C1752 C 0.77787 0.94583 0.36781 0.0
H1753 H 0.88176 0.02769 0.35966 0.0
H1754 H 0.84837 0.99759 0.35496 0.0
H1755 H 0.79427 0.99572 0.37576 0.0
H1756 H 0.70768 0.89772 0.37121 0.0
H1757 H 0.73783 0.93009 0.37915 0.0
C1758 C 0.97895 0.81126 0.381 0.0
C1759 C 0.98095 0.83044 0.38351 0.0
C1760 C 0.99655 0.80913 0.37989 0.0
C1761 C 0.05394 0.83767 0.38775 0.0
H1762 H 0.05444 0.80021 0.35439 0.0
C1763 C 0.12887 0.84479 0.36043 0.0
C1764 C 0.13109 0.82766 0.36238 0.0
C1765 C 0.10986 0.84361 0.36339 0.0
C1766 C 0.05443 0.81064 0.36382 0.0
H1767 H 1.00305 0.86217 0.38791 0.0
H1768 H 0.03329 0.8587 0.38532 0.0
H1769 H 0.02239 0.80059 0.35975 0.0
H1770 H 0.11534 0.79599 0.36925 0.0
H1771 H 0.08174 0.79374 0.3739 0.0
H1772 H 0.08622 0.84831 0.39115 0.0
C1773 C 0.01833 0.84513 0.38441 0.0
C1774 C 0.03604 0.81079 0.36701 0.0
C1775 C 1.00087 0.8472 0.38566 0.0
C1776 C 0.11392 0.80933 0.36741 0.0
C1777 C 0.09475 0.80803 0.37002 0.0
C1778 C 0.07232 0.83776 0.3843 0.0
C1779 C 0.01655 0.82613 0.38128 0.0
C1780 C 0.03558 0.82453 0.37888 0.0
C1781 C 0.09263 0.82524 0.36825 0.0
C1782 C 0.07281 0.8244 0.3722 0.0
H1783 H 0.96386 0.79803 0.37927 0.0
H1784 H 0.99446 0.79417 0.37777 0.0
H1785 H 0.05424 0.84808 0.39733 0.0
H1786 H 0.14192 0.85924 0.35701 0.0
H1787 H 0.10864 0.8571 0.36194 0.0
C1788 C 0.1787 0.15661 0.39852 0.0
C1789 C 0.1646 0.13908 0.38951 0.0
C1790 C 0.1811 0.1755 0.39424 0.0
C1791 C 0.15247 0.19744 0.37394 0.0
H1792 H 0.20557 0.24647 0.37018 0.0
C1793 C 0.15892 0.26913 0.34517 0.0
C1794 C 0.17219 0.2878 0.35309 0.0
C1795 C 0.15944 0.25173 0.3497 0.0
C1796 C 0.19063 0.23295 0.37139 0.0
H1797 H 0.14291 0.12784 0.3683 0.0
H1798 H 0.14696 0.1606 0.36099 0.0
H1799 H 0.20399 0.21466 0.37811 0.0
H1800 H 0.19668 0.3028 0.37189 0.0
H1801 H 0.19731 0.27219 0.38005 0.0
H1802 H 0.13901 0.2155 0.36741 0.0
C1803 C 0.15584 0.15973 0.37158 0.0
C1804 C 0.18973 0.21476 0.3759 0.0
C1805 C 0.1535 0.14095 0.37579 0.0
C1806 C 0.18626 0.28868 0.3655 0.0
C1807 C 0.18671 0.27116 0.37012 0.0
C1808 C 0.15335 0.21555 0.36953 0.0
C1809 C 0.1694 0.17716 0.38091 0.0
C1810 C 0.17064 0.19677 0.37697 0.0
C1811 C 0.17307 0.25243 0.36243 0.0
C1812 C 0.17242 0.23347 0.36793 0.0
H1813 H 0.18741 0.15566 0.4092 0.0
H1814 H 0.19161 0.18868 0.4017 0.0
H1815 H 0.1375 0.18393 0.37505 0.0
H1816 H 0.1477 0.26774 0.33572 0.0
H1817 H 0.14898 0.23764 0.34329 0.0
C1818 C 0.62931 0.51319 0.72319 0.0
C1819 C 0.62863 0.49449 0.72485 0.0
C1820 C 0.64713 0.53026 0.7173 0.0
C1821 C 0.70338 0.55023 0.71316 0.0
H1822 H 0.70156 0.59145 0.68554 0.0
C1823 C 0.77753 0.61859 0.68833 0.0
C1824 C 0.77917 0.63757 0.69093 0.0
C1825 C 0.7586 0.60083 0.69028 0.0
C1826 C 0.70227 0.58007 0.6933 0.0
H1827 H 0.6463 0.4792 0.72136 0.0
H1828 H 0.67684 0.50857 0.71048 0.0
H1829 H 0.66943 0.56082 0.69295 0.0
H1830 H 0.7625 0.65295 0.69783 0.0
H1831 H 0.72926 0.62185 0.70125 0.0
H1832 H 0.73615 0.56943 0.71353 0.0
C1833 C 0.66377 0.51021 0.71405 0.0
C1834 C 0.68388 0.56256 0.6976 0.0
C1835 C 0.64606 0.49322 0.72005 0.0
C1836 C 0.76152 0.63848 0.69548 0.0
C1837 C 0.74252 0.62071 0.69735 0.0
C1838 C 0.72171 0.56762 0.70876 0.0
C1839 C 0.6647 0.52905 0.71285 0.0
C1840 C 0.68419 0.54745 0.70768 0.0
C1841 C 0.74095 0.60168 0.69507 0.0
C1842 C 0.72138 0.58279 0.69888 0.0
H1843 H 0.61612 0.51471 0.72655 0.0
H1844 H 0.6473 0.54453 0.71669 0.0
H1845 H 0.70428 0.5392 0.72124 0.0
H1846 H 0.79094 0.61737 0.68526 0.0
H1847 H 0.75786 0.58641 0.68833 0.0
C1848 C 0.49674 0.11422 0.72538 0.0
C1849 C 0.51647 0.13157 0.72525 0.0
C1850 C 0.47933 0.11524 0.72028 0.0
C1851 C 0.46203 0.14614 0.69641 0.0
H1852 H 0.41412 0.11933 0.72558 0.0
C1853 C 0.39267 0.16015 0.69138 0.0
C1854 C 0.37282 0.14366 0.6941 0.0
C1855 C 0.41014 0.15818 0.69393 0.0
C1856 C 0.42719 0.12665 0.7171 0.0
H1857 H 0.53324 0.16357 0.71921 0.0
H1858 H 0.50288 0.16527 0.71014 0.0
H1859 H 0.44454 0.11669 0.73189 0.0
H1860 H 0.35563 0.11243 0.70207 0.0
H1861 H 0.38599 0.10876 0.7062 0.0
H1862 H 0.44459 0.15606 0.68159 0.0
C1863 C 0.50093 0.15083 0.71413 0.0
C1864 C 0.4447 0.12515 0.72076 0.0
C1865 C 0.51836 0.14984 0.71931 0.0
C1866 C 0.37077 0.12529 0.69968 0.0
C1867 C 0.3882 0.12327 0.70216 0.0
C1868 C 0.44443 0.14754 0.69268 0.0
C1869 C 0.48114 0.13361 0.71481 0.0
C1870 C 0.46238 0.13492 0.71051 0.0
C1871 C 0.40815 0.13974 0.69946 0.0
C1872 C 0.42678 0.13787 0.70303 0.0
H1873 H 0.4947 0.0998 0.72952 0.0
H1874 H 0.46439 0.1016 0.72066 0.0
H1875 H 0.47529 0.15366 0.68814 0.0
H1876 H 0.39477 0.17469 0.6876 0.0
H1877 H 0.42522 0.1713 0.692 0.0
C1878 C 0.88626 0.38572 0.72366 0.0
C1879 C 0.86888 0.38455 0.73157 0.0
C1880 C 0.88558 0.36823 0.71726 0.0
C1881 C 0.86227 0.31485 0.72487 0.0
H1882 H 0.87323 0.30855 0.67751 0.0
C1883 C 0.873 0.24909 0.7006 0.0
C1884 C 0.85914 0.23733 0.68754 0.0
C1885 C 0.8752 0.26777 0.70525 0.0
C1886 C 0.87021 0.3102 0.69076 0.0
H1887 H 0.83729 0.36439 0.73914 0.0
H1888 H 0.83631 0.33371 0.72838 0.0
H1889 H 0.87515 0.34021 0.68708 0.0
H1890 H 0.83678 0.23623 0.6692 0.0
H1891 H 0.84139 0.2693 0.67686 0.0
H1892 H 0.85768 0.28505 0.72867 0.0
C1893 C 0.85029 0.34816 0.72691 0.0
C1894 C 0.87138 0.32825 0.69622 0.0
C1895 C 0.85082 0.36566 0.73296 0.0
C1896 C 0.8479 0.24498 0.67902 0.0
C1897 C 0.85045 0.26389 0.68344 0.0
C1898 C 0.86156 0.29702 0.71951 0.0
C1899 C 0.86767 0.3493 0.71905 0.0
C1900 C 0.86721 0.3306 0.71328 0.0
C1901 C 0.86389 0.27528 0.69676 0.0
C1902 C 0.86536 0.29448 0.7024 0.0
H1903 H 0.90034 0.40015 0.72245 0.0
H1904 H 0.89918 0.3694 0.7113 0.0
H1905 H 0.85908 0.3164 0.7381 0.0
H1906 H 0.88192 0.24374 0.70749 0.0
H1907 H 0.8857 0.27635 0.71555 0.0
C1908 C 0.17285 0.96107 0.61601 0.0
C1909 C 0.15696 0.94873 0.62733 0.0
C1910 C 0.18983 0.97915 0.6216 0.0
C1911 C 0.21654 0.0089 0.66108 0.0
H1912 H 0.2413 0.05303 0.62874 0.0
C1913 C 0.27272 0.09426 0.67721 0.0
C1914 C 0.2919 0.10251 0.66896 0.0
C1915 C 0.25669 0.0749 0.67294 0.0
C1916 C 0.23454 0.04078 0.63786 0.0
H1917 H 0.14707 0.94585 0.65371 0.0
H1918 H 0.17579 0.97795 0.66313 0.0
H1919 H 0.21228 0.02068 0.61981 0.0
H1920 H 0.30902 0.09677 0.64948 0.0
H1921 H 0.28068 0.06337 0.6416 0.0
H1922 H 0.23843 0.02975 0.67932 0.0
C1923 C 0.1755 0.97338 0.64999 0.0
C1924 C 0.21801 0.02213 0.63274 0.0
C1925 C 0.15872 0.95502 0.64448 0.0
C1926 C 0.29454 0.09096 0.65619 0.0
C1927 C 0.27835 0.07182 0.65165 0.0
C1928 C 0.2328 0.02775 0.66629 0.0
C1929 C 0.19126 0.98581 0.63859 0.0
C1930 C 0.20884 0.0058 0.64422 0.0
C1931 C 0.25932 0.06365 0.65999 0.0
C1932 C 0.242 0.04376 0.65467 0.0
H1933 H 0.17206 0.95709 0.60265 0.0
H1934 H 0.20179 0.98792 0.61247 0.0
H1935 H 0.21024 0.99672 0.67026 0.0
H1936 H 0.2699 0.10285 0.68675 0.0
H1937 H 0.24202 0.06895 0.67939 0.0
C1938 C 0.05376 0.22667 0.63012 0.0
C1939 C 0.05573 0.20927 0.63101 0.0
C1940 C 0.0358 0.22624 0.63573 0.0
C1941 C 0.9886 0.19705 0.66188 0.0
H1942 H 0.96636 0.22251 0.63259 0.0
C1943 C 0.90479 0.18221 0.66764 0.0
C1944 C 0.90129 0.19839 0.66452 0.0
C1945 C 0.92439 0.18449 0.66525 0.0
C1946 C 0.97247 0.2156 0.6411 0.0
H1947 H 0.04025 0.17783 0.6388 0.0
H1948 H 0.00902 0.17713 0.64865 0.0
H1949 H 0.9991 0.22485 0.62552 0.0
H1950 H 0.91537 0.22948 0.65623 0.0
H1951 H 0.94967 0.23366 0.65229 0.0
H1952 H 0.96179 0.18767 0.6774 0.0
C1953 C 0.02149 0.19119 0.64377 0.0
C1954 C 0.9913 0.21693 0.63702 0.0
C1955 C 0.03944 0.1916 0.63812 0.0
C1956 C 0.91773 0.21685 0.6589 0.0
C1957 C 0.93733 0.21916 0.65654 0.0
C1958 C 0.96975 0.19577 0.66601 0.0
C1959 C 0.0193 0.20843 0.64242 0.0
C1960 C 0.99959 0.20759 0.64729 0.0
C1961 C 0.94088 0.20293 0.65945 0.0
C1962 C 0.96137 0.20493 0.6556 0.0
H1963 H 0.06611 0.24065 0.62502 0.0
H1964 H 0.03482 0.23991 0.63478 0.0
H1965 H 0.99464 0.18989 0.6702 0.0
H1966 H 0.89229 0.16762 0.6715 0.0
H1967 H 0.92641 0.17155 0.66738 0.0
C1968 C 0.8043 0.83796 0.61289 0.0
C1969 C 0.80987 0.85525 0.62304 0.0
C1970 C 0.80414 0.821 0.61974 0.0
C1971 C 0.82925 0.80632 0.6512 0.0
H1972 H 0.782 0.75233 0.64651 0.0
C1973 C 0.83108 0.73721 0.67855 0.0
C1974 C 0.82091 0.71888 0.66938 0.0
C1975 C 0.82838 0.75348 0.67419 0.0
C1976 C 0.79546 0.76724 0.64773 0.0
H1977 H 0.81923 0.86785 0.64859 0.0
H1978 H 0.81985 0.83848 0.66026 0.0
H1979 H 0.77978 0.78139 0.63629 0.0
H1980 H 0.80008 0.70351 0.64814 0.0
H1981 H 0.7962 0.73212 0.63999 0.0
H1982 H 0.84541 0.79239 0.66177 0.0
C1983 C 0.81545 0.83818 0.64702 0.0
C1984 C 0.79409 0.78387 0.64198 0.0
C1985 C 0.81522 0.85502 0.64027 0.0
C1986 C 0.80805 0.71731 0.65562 0.0
C1987 C 0.80566 0.73373 0.65103 0.0
C1988 C 0.83078 0.78968 0.65665 0.0
C1989 C 0.80994 0.82105 0.6368 0.0
C1990 C 0.81099 0.80353 0.64363 0.0
C1991 C 0.81584 0.75209 0.66023 0.0
C1992 C 0.81393 0.76988 0.65494 0.0
H1993 H 0.80056 0.83764 0.59949 0.0
H1994 H 0.80009 0.80805 0.61155 0.0
H1995 H 0.84257 0.82134 0.65241 0.0
H1996 H 0.84144 0.73919 0.68896 0.0
H1997 H 0.83624 0.76719 0.68179 0.0
C1998 C 0.02189 0.84105 0.63036 0.0
C1999 C 0.03119 0.85561 0.64334 0.0
C2000 C 0.00545 0.82177 0.6341 0.0
C2001 C 0.96563 0.79508 0.66754 0.0
H2002 H 0.95369 0.7479 0.64032 0.0
C2003 C 0.8858 0.72315 0.6685 0.0
C2004 C 0.88442 0.70424 0.66638 0.0
C2005 C 0.90473 0.74096 0.6669 0.0
C2006 C 0.9569 0.76081 0.64827 0.0
H2007 H 0.03157 0.86133 0.67044 0.0
H2008 H 1.00369 0.82746 0.6772 0.0
H2009 H 0.98555 0.7795 0.6357 0.0
H2010 H 0.90147 0.68898 0.66048 0.0
H2011 H 0.93483 0.72008 0.65826 0.0
H2012 H 0.93739 0.77621 0.68057 0.0
C2013 C 0.00835 0.83098 0.66402 0.0
C2014 C 0.97509 0.7791 0.6454 0.0
C2015 C 0.02448 0.85034 0.66021 0.0
C2016 C 0.90226 0.70343 0.66239 0.0
C2017 C 0.92129 0.72126 0.66098 0.0
C2018 C 0.94763 0.77673 0.67059 0.0
C2019 C 0.99821 0.81655 0.65097 0.0
C2020 C 0.97957 0.79661 0.6548 0.0
C2021 C 0.92277 0.7403 0.6631 0.0
C2022 C 0.9428 0.75942 0.66078 0.0
H2023 H 0.02673 0.84488 0.61723 0.0
H2024 H 0.99795 0.81128 0.62363 0.0
H2025 H 0.96825 0.80819 0.67493 0.0
H2026 H 0.87218 0.72425 0.67103 0.0
H2027 H 0.90505 0.75526 0.6682 0.0
C2028 C 0.16846 0.18625 0.63006 0.0
C2029 C 0.15651 0.18439 0.64444 0.0
C2030 C 0.18792 0.1879 0.63199 0.0
C2031 C 0.21737 0.17575 0.66367 0.0
H2032 H 0.26256 0.20442 0.6322 0.0
C2033 C 0.28718 0.16304 0.66327 0.0
C2034 C 0.30682 0.17987 0.66069 0.0
C2035 C 0.26946 0.16463 0.66109 0.0
C2036 C 0.25019 0.19649 0.64123 0.0
H2037 H 0.15593 0.1841 0.67205 0.0
H2038 H 0.19007 0.18788 0.6755 0.0
H2039 H 0.23145 0.20693 0.62921 0.0
H2040 H 0.32337 0.21119 0.65286 0.0
H2041 H 0.29249 0.21423 0.64947 0.0
H2042 H 0.23621 0.16572 0.67597 0.0
C2043 C 0.18431 0.18733 0.6627 0.0
C2044 C 0.23219 0.19773 0.63938 0.0
C2045 C 0.16483 0.18542 0.66075 0.0
C2046 C 0.30839 0.1981 0.65522 0.0
C2047 C 0.29067 0.19975 0.65315 0.0
C2048 C 0.23535 0.17461 0.66558 0.0
C2049 C 0.19588 0.18791 0.64835 0.0
C2050 C 0.21547 0.18731 0.65054 0.0
C2051 C 0.27094 0.18306 0.65618 0.0
C2052 C 0.25198 0.18481 0.65431 0.0
H2053 H 0.16228 0.18526 0.61734 0.0
H2054 H 0.19624 0.18818 0.62062 0.0
H2055 H 0.20478 0.1672 0.67237 0.0
H2056 H 0.28546 0.1486 0.6669 0.0
H2057 H 0.25458 0.1513 0.66314 0.0
C2058 C 0.86409 0.99508 0.64554 0.0
C2059 C 0.85312 0.98226 0.63178 0.0
C2060 C 0.86138 0.01135 0.64991 0.0
C2061 C 0.82648 0.0321 0.64603 0.0
H2062 H 0.8765 0.08308 0.65484 0.0
C2063 C 0.82792 0.10843 0.65772 0.0
C2064 C 0.84192 0.12139 0.67019 0.0
C2065 C 0.82791 0.09073 0.65278 0.0
C2066 C 0.86235 0.06892 0.65263 0.0
H2067 H 0.83023 0.97622 0.61211 0.0
H2068 H 0.82536 0.00469 0.6199 0.0
H2069 H 0.87884 0.05347 0.64681 0.0
H2070 H 0.86666 0.12563 0.68735 0.0
H2071 H 0.86611 0.09474 0.67924 0.0
H2072 H 0.81 0.04764 0.65207 0.0
C2073 C 0.83605 0.00203 0.62728 0.0
C2074 C 0.86371 0.05196 0.64799 0.0
C2075 C 0.83883 0.98573 0.62284 0.0
C2076 C 0.8555 0.116 0.67785 0.0
C2077 C 0.8554 0.09835 0.67301 0.0
C2078 C 0.82511 0.04913 0.65078 0.0
C2079 C 0.84756 0.0152 0.64069 0.0
C2080 C 0.84581 0.03329 0.64485 0.0
C2081 C 0.84189 0.08567 0.6602 0.0
C2082 C 0.84304 0.06767 0.65436 0.0
H2083 H 0.87483 0.99255 0.65297 0.0
H2084 H 0.87015 0.02097 0.66054 0.0
H2085 H 0.81243 0.01788 0.64374 0.0
H2086 H 0.81727 0.11213 0.65152 0.0
H2087 H 0.81738 0.08135 0.6428 0.0
C2088 C 0.53588 0.35413 0.70313 0.0
C2089 C 0.5388 0.36736 0.71677 0.0
C2090 C 0.51667 0.33708 0.70012 0.0
C2091 C 0.46114 0.31329 0.70686 0.0
H2092 H 0.46305 0.26362 0.70182 0.0
C2093 C 0.38772 0.23359 0.69824 0.0
C2094 C 0.38952 0.22036 0.68671 0.0
C2095 C 0.40505 0.25214 0.70273 0.0
C2096 C 0.4622 0.27735 0.70298 0.0
H2097 H 0.52341 0.37355 0.73739 0.0
H2098 H 0.48951 0.34371 0.73185 0.0
H2099 H 0.49463 0.2952 0.7077 0.0
H2100 H 0.41109 0.21644 0.6709 0.0
H2101 H 0.4407 0.24873 0.67807 0.0
H2102 H 0.42867 0.29539 0.70168 0.0
C2103 C 0.5023 0.34661 0.72363 0.0
C2104 C 0.48032 0.29544 0.70643 0.0
C2105 C 0.52168 0.36369 0.72676 0.0
C2106 C 0.40893 0.22625 0.67963 0.0
C2107 C 0.4261 0.24474 0.68397 0.0
C2108 C 0.44292 0.29511 0.70323 0.0
C2109 C 0.49979 0.33289 0.71055 0.0
C2110 C 0.48007 0.31365 0.70811 0.0
C2111 C 0.42451 0.25781 0.69578 0.0
C2112 C 0.44334 0.27698 0.70092 0.0
H2113 H 0.54856 0.35678 0.69487 0.0
H2114 H 0.51506 0.32698 0.68971 0.0
H2115 H 0.46055 0.32714 0.70811 0.0
H2116 H 0.37302 0.22952 0.704 0.0
H2117 H 0.4033 0.2618 0.71195 0.0
C2118 C 0.6523 0.15278 0.72551 0.0
C2119 C 0.64211 0.15518 0.71141 0.0
C2120 C 0.66991 0.15097 0.72319 0.0
C2121 C 0.7111 0.1633 0.69097 0.0
H2122 H 0.72741 0.13421 0.72195 0.0
C2123 C 0.79396 0.17619 0.69142 0.0
C2124 C 0.79672 0.15953 0.69427 0.0
C2125 C 0.7745 0.17438 0.69324 0.0
C2126 C 0.72302 0.14224 0.71303 0.0
H2127 H 0.64149 0.15641 0.68385 0.0
H2128 H 0.67146 0.15226 0.67966 0.0
H2129 H 0.69387 0.13178 0.72523 0.0
H2130 H 0.78161 0.12819 0.70203 0.0
H2131 H 0.74743 0.12475 0.7048 0.0
H2132 H 0.73993 0.17329 0.67846 0.0
C2133 C 0.66648 0.1525 0.69258 0.0
C2134 C 0.70383 0.14106 0.71506 0.0
C2135 C 0.64912 0.1546 0.69493 0.0
C2136 C 0.77979 0.14118 0.6995 0.0
C2137 C 0.76026 0.13929 0.70121 0.0
C2138 C 0.73017 0.16434 0.68886 0.0
C2139 C 0.67758 0.15133 0.70668 0.0
C2140 C 0.69763 0.1517 0.70414 0.0
C2141 C 0.75731 0.15587 0.69807 0.0
C2142 C 0.73654 0.15401 0.69996 0.0
H2143 H 0.64734 0.15346 0.73836 0.0
H2144 H 0.67805 0.15028 0.73439 0.0
H2145 H 0.70716 0.17201 0.68243 0.0
H2146 H 0.80686 0.19072 0.68795 0.0
H2147 H 0.77305 0.18764 0.6911 0.0
C2148 C 0.84642 0.49053 0.73419 0.0
C2149 C 0.83161 0.47337 0.72519 0.0
C2150 C 0.85061 0.50992 0.72951 0.0
C2151 C 0.84447 0.5382 0.69365 0.0
H2152 H 0.84733 0.57528 0.72901 0.0
C2153 C 0.82928 0.60343 0.68014 0.0
C2154 C 0.84166 0.62224 0.6882 0.0
C2155 C 0.83122 0.5867 0.68435 0.0
C2156 C 0.84692 0.56524 0.719 0.0
H2157 H 0.81007 0.46319 0.7039 0.0
H2158 H 0.81705 0.49681 0.69596 0.0
H2159 H 0.84498 0.54324 0.73696 0.0
H2160 H 0.86576 0.63811 0.70716 0.0
H2161 H 0.86898 0.60865 0.71465 0.0
H2162 H 0.84582 0.55991 0.6757 0.0
C2163 C 0.82558 0.49538 0.70655 0.0
C2164 C 0.84558 0.54688 0.72355 0.0
C2165 C 0.82137 0.47606 0.71124 0.0
C2166 C 0.85602 0.62387 0.70066 0.0
C2167 C 0.85784 0.60701 0.70499 0.0
C2168 C 0.84576 0.55649 0.68912 0.0
C2169 C 0.84018 0.51255 0.71565 0.0
C2170 C 0.84387 0.53296 0.71092 0.0
C2171 C 0.84543 0.58825 0.69686 0.0
C2172 C 0.84654 0.57 0.70173 0.0
H2173 H 0.85449 0.48894 0.74506 0.0
H2174 H 0.86205 0.52285 0.7367 0.0
H2175 H 0.84364 0.52801 0.68361 0.0
H2176 H 0.8177 0.6014 0.67081 0.0
H2177 H 0.82112 0.57237 0.67811 0.0
C2178 C 0.46209 0.90543 0.2472 0.0
C2179 C 0.44082 0.89446 0.25064 0.0
C2180 C 0.46925 0.91533 0.23155 0.0
C2181 C 0.45366 0.93715 0.19664 0.0
H2182 H 0.49878 0.9379 0.17179 0.0
C2183 C 0.496 0.9934 0.14219 0.0
C2184 C 0.50071 0.98598 0.12744 0.0
C2185 C 0.48818 0.9813 0.15667 0.0
C2186 C 0.48606 0.93771 0.17853 0.0
H2187 H 0.41043 0.88429 0.23982 0.0
H2188 H 0.42292 0.9017 0.21276 0.0
H2189 H 0.48633 0.91813 0.19804 0.0
H2190 H 0.50083 0.95998 0.11631 0.0
H2191 H 0.48714 0.93875 0.14171 0.0
H2192 H 0.45339 0.95675 0.17725 0.0
C2193 C 0.43407 0.903 0.22227 0.0
C2194 C 0.47907 0.92655 0.19364 0.0
C2195 C 0.42693 0.89306 0.23782 0.0
C2196 C 0.49722 0.96607 0.12745 0.0
C2197 C 0.48958 0.954 0.14203 0.0
C2198 C 0.46076 0.94843 0.18166 0.0
C2199 C 0.45532 0.9145 0.21902 0.0
C2200 C 0.46278 0.92615 0.20287 0.0
C2201 C 0.48501 0.9615 0.15682 0.0
C2202 C 0.47708 0.9489 0.17245 0.0
H2203 H 0.47322 0.90691 0.2568 0.0
H2204 H 0.48573 0.92417 0.22948 0.0
H2205 H 0.44122 0.93734 0.20352 0.0
H2206 H 0.49835 0.00862 0.14255 0.0
H2207 H 0.48497 0.98759 0.16789 0.0
C2208 C 0.09251 0.53868 0.2521 0.0
C2209 C 0.11361 0.55308 0.25114 0.0
C2210 C 0.07965 0.53447 0.23787 0.0
C2211 C 0.0762 0.55239 0.19451 0.0
H2212 H 0.04271 0.49504 0.18467 0.0
C2213 C 0.04669 0.52005 0.12687 0.0
C2214 C 0.02779 0.50193 0.12529 0.0
C2215 C 0.05466 0.52815 0.14301 0.0
C2216 C 0.0516 0.51112 0.18733 0.0
H2217 H 0.13757 0.57489 0.23464 0.0
H2218 H 0.11517 0.56757 0.20986 0.0
H2219 H 0.06093 0.50604 0.21175 0.0
H2220 H 1.00168 0.47889 0.13921 0.0
H2221 H 0.01538 0.49317 0.16734 0.0
H2222 H 0.06721 0.5574 0.16981 0.0
C2223 C 0.10848 0.55969 0.22166 0.0
C2224 C 0.06208 0.51744 0.2029 0.0
C2225 C 0.12133 0.56389 0.23588 0.0
C2226 C 0.01647 0.49269 0.14008 0.0
C2227 C 0.02435 0.50085 0.15619 0.0
C2228 C 0.06565 0.54606 0.17891 0.0
C2229 C 0.08761 0.54457 0.22236 0.0
C2230 C 0.07477 0.53813 0.20657 0.0
C2231 C 0.04382 0.51835 0.15788 0.0
C2232 C 0.05348 0.52533 0.17502 0.0
H2233 H 0.08603 0.53035 0.26376 0.0
H2234 H 0.06355 0.52298 0.23889 0.0
H2235 H 0.08568 0.56846 0.19705 0.0
H2236 H 0.0558 0.52741 0.11569 0.0
H2237 H 0.06979 0.54153 0.14384 0.0
C2238 C 0.44734 0.55955 0.23766 0.0
C2239 C 0.45786 0.55979 0.25264 0.0
C2240 C 0.45149 0.55311 0.22219 0.0
C2241 C 0.47275 0.52388 0.20243 0.0
H2242 H 0.49203 0.56431 0.16672 0.0
C2243 C 0.49547 0.51219 0.13384 0.0
C2244 C 0.51569 0.52683 0.12947 0.0
C2245 C 0.48623 0.51474 0.14844 0.0
C2246 C 0.48652 0.55284 0.17654 0.0
H2247 H 0.48011 0.55263 0.26345 0.0
H2248 H 0.48693 0.54076 0.23643 0.0
H2249 H 0.47867 0.5702 0.19332 0.0
H2250 H 0.54193 0.55576 0.13652 0.0
H2251 H 0.52552 0.56054 0.16175 0.0
H2252 H 0.48071 0.50657 0.1856 0.0
C2253 C 0.47563 0.5457 0.23665 0.0
C2254 C 0.47879 0.55614 0.19168 0.0
C2255 C 0.47179 0.55252 0.25206 0.0
C2256 C 0.52635 0.54424 0.13969 0.0
C2257 C 0.51696 0.54701 0.15403 0.0
C2258 C 0.48009 0.52039 0.18711 0.0
C2259 C 0.46592 0.54643 0.2215 0.0
C2260 C 0.47215 0.54186 0.20488 0.0
C2261 C 0.49689 0.53222 0.15861 0.0
C2262 C 0.48738 0.53501 0.17417 0.0
H2263 H 0.43668 0.56527 0.23778 0.0
H2264 H 0.44378 0.55376 0.21068 0.0
H2265 H 0.46771 0.51265 0.21243 0.0
H2266 H 0.48701 0.49861 0.12615 0.0
H2267 H 0.47072 0.50317 0.15172 0.0
C2268 C 0.88979 0.44082 0.79051 0.0
C2269 C 0.89811 0.4403 0.77459 0.0
C2270 C 0.9024 0.44776 0.80501 0.0
C2271 C 0.93056 0.44612 0.83289 0.0
H2272 H 0.98143 0.49765 0.83633 0.0
C2273 C 0.99392 0.46397 0.88333 0.0
C2274 C 0.99938 0.48116 0.89345 0.0
C2275 C 0.98156 0.46009 0.86883 0.0
C2276 C 0.96722 0.48325 0.8355 0.0
H2277 H 0.92615 0.44738 0.76114 0.0
H2278 H 0.94839 0.46009 0.78656 0.0
H2279 H 0.95976 0.48952 0.81057 0.0
H2280 H 0.99664 0.50799 0.89632 0.0
H2281 H 0.9754 0.50148 0.87051 0.0
H2282 H 0.93829 0.43954 0.85751 0.0
C2283 C 0.9321 0.45497 0.78777 0.0
C2284 C 0.95493 0.4786 0.82081 0.0
C2285 C 0.91941 0.44766 0.77329 0.0
C2286 C 0.99254 0.4946 0.88871 0.0
C2287 C 0.98053 0.49095 0.87397 0.0
C2288 C 0.94304 0.45059 0.84737 0.0
C2289 C 0.92359 0.45462 0.8038 0.0
C2290 C 0.93648 0.46 0.81942 0.0
C2291 C 0.9748 0.47356 0.86402 0.0
C2292 C 0.96147 0.46917 0.8488 0.0
H2293 H 0.87339 0.43503 0.79187 0.0
H2294 H 0.89553 0.44741 0.81725 0.0
H2295 H 0.91647 0.43162 0.83203 0.0
H2296 H 0.99894 0.45335 0.88681 0.0
H2297 H 0.97736 0.44662 0.8613 0.0
C2298 C 0.57052 0.45268 0.78411 0.0
C2299 C 0.57377 0.46475 0.76964 0.0
C2300 C 0.56352 0.45672 0.79936 0.0
C2301 C 0.56353 0.4991 0.82191 0.0
H2302 H 0.52611 0.45763 0.85302 0.0
C2303 C 0.53973 0.52081 0.88435 0.0
C2304 C 0.54023 0.51069 0.89913 0.0
C2305 C 0.54072 0.51356 0.8682 0.0
C2306 C 0.53668 0.46937 0.84451 0.0
H2307 H 0.57113 0.4898 0.75954 0.0
H2308 H 0.55881 0.49679 0.78609 0.0
H2309 H 0.53334 0.44789 0.82521 0.0
H2310 H 0.54125 0.48455 0.90861 0.0
H2311 H 0.54325 0.47192 0.88032 0.0
H2312 H 0.56727 0.52055 0.84119 0.0
C2313 C 0.56206 0.48445 0.78577 0.0
C2314 C 0.54081 0.4638 0.82858 0.0
C2315 C 0.56908 0.48043 0.77055 0.0
C2316 C 0.54074 0.49259 0.89742 0.0
C2317 C 0.54186 0.48537 0.88121 0.0
C2318 C 0.55943 0.50465 0.83779 0.0
C2319 C 0.55962 0.47292 0.80047 0.0
C2320 C 0.55434 0.47862 0.81711 0.0
C2321 C 0.54239 0.49607 0.86643 0.0
C2322 C 0.546 0.48988 0.84932 0.0
H2323 H 0.57423 0.44064 0.7839 0.0
H2324 H 0.56203 0.44768 0.81047 0.0
H2325 H 0.57438 0.51089 0.81358 0.0
H2326 H 0.53897 0.53461 0.88528 0.0
H2327 H 0.54057 0.5219 0.85709 0.0
C2328 C 0.5294 0.08792 0.77142 0.0
C2329 C 0.54728 0.10687 0.7694 0.0
C2330 C 0.52563 0.07728 0.78668 0.0
C2331 C 0.53988 0.08463 0.83266 0.0
H2332 H 0.50893 0.02596 0.83238 0.0
C2333 C 0.51831 0.03393 0.8937 0.0
C2334 C 0.49747 0.01857 0.89449 0.0
C2335 C 0.52625 0.04543 0.87884 0.0
C2336 C 0.51755 0.04235 0.83265 0.0
H2337 H 0.5756 0.12914 0.7818 0.0
H2338 H 0.56937 0.1102 0.80833 0.0
H2339 H 0.52036 0.04409 0.8055 0.0
H2340 H 0.46849 0.00418 0.88042 0.0
H2341 H 0.4825 0.0237 0.85451 0.0
H2342 H 0.53714 0.08265 0.85997 0.0
C2343 C 0.558 0.10379 0.79818 0.0
C2344 C 0.52405 0.05279 0.81724 0.0
C2345 C 0.56172 0.11454 0.78287 0.0
C2346 C 0.48473 0.01542 0.88019 0.0
C2347 C 0.49272 0.02667 0.86533 0.0
C2348 C 0.53359 0.07414 0.84813 0.0
C2349 C 0.53974 0.08512 0.80037 0.0
C2350 C 0.53487 0.07409 0.81696 0.0
C2351 C 0.51359 0.04164 0.8644 0.0
C2352 C 0.52196 0.0529 0.84824 0.0
H2353 H 0.51807 0.08139 0.76124 0.0
H2354 H 0.51126 0.06313 0.78787 0.0
H2355 H 0.54799 0.10101 0.833 0.0
H2356 H 0.52866 0.03672 0.90436 0.0
H2357 H 0.54242 0.05687 0.87845 0.0
C2358 C 0.12821 0.23801 0.58014 0.0
C2359 C 0.10695 0.22728 0.58365 0.0
C2360 C 0.13542 0.24788 0.56449 0.0
C2361 C 0.12027 0.2702 0.52968 0.0
H2362 H 0.16472 0.26991 0.5046 0.0
C2363 C 0.16324 0.32611 0.47516 0.0
C2364 C 0.16763 0.31848 0.46037 0.0
C2365 C 0.15524 0.31404 0.48963 0.0
C2366 C 0.15219 0.27001 0.51141 0.0
H2367 H 0.0766 0.21759 0.57294 0.0
H2368 H 0.08917 0.23499 0.54589 0.0
H2369 H 0.15214 0.25025 0.53089 0.0
H2370 H 0.16697 0.29215 0.44915 0.0
H2371 H 0.15299 0.27097 0.47456 0.0
H2372 H 0.12034 0.28999 0.51032 0.0
C2373 C 0.10029 0.23609 0.55535 0.0
C2374 C 0.14513 0.25892 0.52654 0.0
C2375 C 0.0931 0.22616 0.5709 0.0
C2376 C 0.16363 0.2984 0.46033 0.0
C2377 C 0.15582 0.28635 0.47491 0.0
C2378 C 0.12744 0.28142 0.51468 0.0
C2379 C 0.12153 0.2473 0.55203 0.0
C2380 C 0.12907 0.25889 0.53585 0.0
C2381 C 0.15158 0.29407 0.48974 0.0
C2382 C 0.14353 0.28152 0.50538 0.0
H2383 H 0.13932 0.23928 0.58969 0.0
H2384 H 0.1519 0.2565 0.56236 0.0
H2385 H 0.10801 0.27067 0.53663 0.0
H2386 H 0.166 0.34147 0.47554 0.0
H2387 H 0.1523 0.32049 0.50088 0.0
C2388 C 0.78245 0.8719 0.56663 0.0
C2389 C 0.78536 0.88628 0.57922 0.0
C2390 C 0.77078 0.86969 0.55203 0.0
C2391 C 0.73033 0.87861 0.53487 0.0
H2392 H 0.75052 0.8718 0.49121 0.0
C2393 C 0.68841 0.87274 0.47094 0.0
C2394 C 0.68722 0.85831 0.45907 0.0
C2395 C 0.7007 0.87727 0.48559 0.0
C2396 C 0.74456 0.87347 0.50332 0.0
H2397 H 0.77821 0.90957 0.58642 0.0
H2398 H 0.75771 0.90571 0.56073 0.0
H2399 H 0.77138 0.87785 0.51685 0.0
H2400 H 0.69765 0.837 0.45347 0.0
H2401 H 0.71899 0.84479 0.47903 0.0
H2402 H 0.70335 0.87393 0.52134 0.0
C2403 C 0.76444 0.89609 0.56228 0.0
C2404 C 0.75653 0.87698 0.518 0.0
C2405 C 0.77627 0.8984 0.5769 0.0
C2406 C 0.69851 0.84844 0.46221 0.0
C2407 C 0.71076 0.85293 0.47686 0.0
C2408 C 0.7183 0.87503 0.52016 0.0
C2409 C 0.7617 0.88179 0.54964 0.0
C2410 C 0.74945 0.87934 0.53396 0.0
C2411 C 0.71206 0.86744 0.4887 0.0
C2412 C 0.72518 0.87218 0.50424 0.0
H2413 H 0.78949 0.86253 0.56792 0.0
H2414 H 0.76875 0.85837 0.54263 0.0
H2415 H 0.7244 0.88018 0.54702 0.0
H2416 H 0.68009 0.88079 0.46876 0.0
H2417 H 0.70156 0.8887 0.49434 0.0
C2418 C 0.11408 0.89251 0.56952 0.0
C2419 C 0.12429 0.89249 0.58459 0.0
C2420 C 0.1189 0.88681 0.55397 0.0
C2421 C 0.14288 0.86014 0.53373 0.0
H2422 H 0.1614 0.90211 0.49939 0.0
C2423 C 0.16968 0.85351 0.46529 0.0
C2424 C 0.18938 0.86949 0.46118 0.0
C2425 C 0.1596 0.85458 0.47996 0.0
C2426 C 0.15615 0.89022 0.50882 0.0
H2427 H 0.14657 0.8854 0.59549 0.0
H2428 H 0.15461 0.87491 0.56834 0.0
H2429 H 0.14629 0.9057 0.5259 0.0
H2430 H 0.21384 0.8992 0.46888 0.0
H2431 H 0.19599 0.9013 0.49427 0.0
H2432 H 0.15293 0.84476 0.51662 0.0
C2433 C 0.14302 0.87947 0.56853 0.0
C2434 C 0.14738 0.89219 0.52391 0.0
C2435 C 0.13847 0.88551 0.58403 0.0
C2436 C 0.1987 0.88665 0.47183 0.0
C2437 C 0.18847 0.88789 0.48627 0.0
C2438 C 0.1513 0.85798 0.51846 0.0
C2439 C 0.13373 0.88065 0.55329 0.0
C2440 C 0.14098 0.87734 0.53663 0.0
C2441 C 0.16888 0.87184 0.49051 0.0
C2442 C 0.15835 0.8732 0.50602 0.0
H2443 H 0.10324 0.89802 0.5696 0.0
H2444 H 0.11147 0.88778 0.54239 0.0
H2445 H 0.13805 0.84849 0.54335 0.0
H2446 H 0.16222 0.8401 0.45729 0.0
H2447 H 0.14448 0.84205 0.48296 0.0
C2448 C 0.59167 0.78701 0.10754 0.0
C2449 C 0.57025 0.7792 0.10827 0.0
C2450 C 0.60374 0.79409 0.12236 0.0
C2451 C 0.59942 0.78277 0.16716 0.0
H2452 H 0.65208 0.83217 0.17248 0.0
C2453 C 0.6595 0.79315 0.21819 0.0
C2454 C 0.66612 0.81008 0.22893 0.0
C2455 C 0.64796 0.79112 0.20352 0.0
C2456 C 0.63735 0.81838 0.17114 0.0
H2457 H 0.54476 0.77334 0.12487 0.0
H2458 H 0.56584 0.78546 0.15081 0.0
H2459 H 0.63144 0.82663 0.14643 0.0
H2460 H 0.66641 0.83839 0.23265 0.0
H2461 H 0.64657 0.83506 0.20656 0.0
H2462 H 0.60559 0.77416 0.19152 0.0
C2463 C 0.57327 0.78624 0.13876 0.0
C2464 C 0.62562 0.8152 0.15628 0.0
C2465 C 0.56126 0.77946 0.12392 0.0
C2466 C 0.66139 0.82517 0.22456 0.0
C2467 C 0.65018 0.82333 0.20967 0.0
C2468 C 0.6113 0.78577 0.18181 0.0
C2469 C 0.59451 0.79314 0.13817 0.0
C2470 C 0.60657 0.79733 0.15418 0.0
C2471 C 0.64317 0.80616 0.19916 0.0
C2472 C 0.63039 0.80353 0.18388 0.0
H2473 H 0.59894 0.78698 0.09561 0.0
H2474 H 0.62008 0.79925 0.12161 0.0
H2475 H 0.58489 0.76877 0.16576 0.0
H2476 H 0.66286 0.78126 0.22137 0.0
H2477 H 0.64279 0.77779 0.19554 0.0
C2478 C 0.22001 0.78786 0.11032 0.0
C2479 C 0.24148 0.79911 0.10804 0.0
C2480 C 0.21107 0.78977 0.12537 0.0
C2481 C 0.22348 0.80656 0.17046 0.0
H2482 H 0.17342 0.8098 0.16816 0.0
C2483 C 0.19268 0.83049 0.22838 0.0
C2484 C 0.17123 0.8203 0.23091 0.0
C2485 C 0.20097 0.82718 0.21355 0.0
C2486 C 0.18726 0.80866 0.16906 0.0
H2487 H 0.27042 0.82088 0.11999 0.0
H2488 H 0.25484 0.8245 0.14602 0.0
H2489 H 0.18823 0.80524 0.14199 0.0
H2490 H 0.14174 0.79819 0.22001 0.0
H2491 H 0.1562 0.79241 0.19418 0.0
H2492 H 0.22257 0.81008 0.19751 0.0
C2493 C 0.24489 0.81408 0.13624 0.0
C2494 C 0.19575 0.80604 0.15404 0.0
C2495 C 0.2538 0.81221 0.12121 0.0
C2496 C 0.1583 0.80656 0.21833 0.0
C2497 C 0.16659 0.80324 0.20352 0.0
C2498 C 0.21499 0.80918 0.18547 0.0
C2499 C 0.22342 0.8029 0.13853 0.0
C2500 C 0.21402 0.80507 0.15454 0.0
C2501 C 0.18803 0.81357 0.2009 0.0
C2502 C 0.19683 0.81036 0.18495 0.0
H2503 H 0.21008 0.77771 0.10039 0.0
H2504 H 0.1945 0.78079 0.12678 0.0
H2505 H 0.23738 0.80553 0.17134 0.0
H2506 H 0.20306 0.84139 0.23768 0.0
H2507 H 0.21753 0.83561 0.21184 0.0
C2508 C 0.2262 0.45177 0.11691 0.0
C2509 C 0.21501 0.44069 0.10247 0.0
C2510 C 0.22229 0.44256 0.13295 0.0
C2511 C 0.2007 0.39382 0.15498 0.0
H2512 H 0.18523 0.41914 0.19058 0.0
C2513 C 0.18054 0.36321 0.22447 0.0
C2514 C 0.16104 0.35954 0.22973 0.0
C2515 C 0.18946 0.37422 0.20957 0.0
C2516 C 0.18967 0.412 0.18079 0.0
H2517 H 0.19164 0.41121 0.09329 0.0
H2518 H 0.18526 0.39491 0.12125 0.0
H2519 H 0.19734 0.43606 0.16305 0.0
H2520 H 0.13589 0.36497 0.22399 0.0
H2521 H 0.15176 0.38475 0.19826 0.0
H2522 H 0.1929 0.36969 0.17273 0.0
C2523 C 0.1969 0.41074 0.12019 0.0
C2524 C 0.19669 0.42171 0.1651 0.0
C2525 C 0.2005 0.42005 0.10423 0.0
C2526 C 0.15092 0.36757 0.22016 0.0
C2527 C 0.16002 0.37894 0.20551 0.0
C2528 C 0.19407 0.3843 0.17081 0.0
C2529 C 0.20744 0.422 0.13478 0.0
C2530 C 0.20194 0.41255 0.15193 0.0
C2531 C 0.17925 0.38215 0.19993 0.0
C2532 C 0.18814 0.39313 0.18376 0.0
H2533 H 0.23733 0.46776 0.1159 0.0
H2534 H 0.23067 0.45156 0.14399 0.0
H2535 H 0.20468 0.38646 0.14505 0.0
H2536 H 0.18858 0.35707 0.2316 0.0
H2537 H 0.20433 0.37654 0.20555 0.0
C2538 C 0.78363 0.55735 0.90757 0.0
C2539 C 0.77929 0.56697 0.92097 0.0
C2540 C 0.79117 0.5672 0.89197 0.0
C2541 C 0.81788 0.61798 0.87248 0.0
H2542 H 0.79467 0.58911 0.82995 0.0
C2543 C 0.85185 0.65407 0.80754 0.0
C2544 C 0.83781 0.65234 0.79473 0.0
C2545 C 0.845 0.64259 0.82242 0.0
C2546 C 0.80125 0.59739 0.84172 0.0
H2547 H 0.77995 0.59464 0.92861 0.0
H2548 H 0.7931 0.6118 0.90147 0.0
H2549 H 0.78238 0.57148 0.85714 0.0
H2550 H 0.80551 0.63656 0.78739 0.0
H2551 H 0.79353 0.61634 0.81339 0.0
H2552 H 0.83652 0.64394 0.85716 0.0
C2553 C 0.7907 0.59666 0.90299 0.0
C2554 C 0.79437 0.58724 0.85729 0.0
C2555 C 0.78301 0.58677 0.91851 0.0
C2556 C 0.81677 0.63818 0.79692 0.0
C2557 C 0.8099 0.62661 0.81184 0.0
C2558 C 0.82486 0.62806 0.85695 0.0
C2559 C 0.79474 0.58696 0.88948 0.0
C2560 C 0.80251 0.59746 0.87286 0.0
C2561 C 0.82391 0.62897 0.82491 0.0
C2562 C 0.8166 0.61793 0.84137 0.0
H2563 H 0.78074 0.54203 0.909 0.0
H2564 H 0.7943 0.55938 0.88187 0.0
H2565 H 0.82461 0.62626 0.88422 0.0
H2566 H 0.86822 0.66447 0.80613 0.0
H2567 H 0.85625 0.64447 0.83206 0.0
C2568 C 0.45772 0.23139 0.89824 0.0
C2569 C 0.45009 0.21933 0.91289 0.0
C2570 C 0.44487 0.22817 0.88419 0.0
C2571 C 0.39781 0.18853 0.86351 0.0
H2572 H 0.40083 0.23312 0.8375 0.0
C2573 C 0.35234 0.20278 0.80455 0.0
C2574 C 0.35109 0.18826 0.79275 0.0
C2575 C 0.36397 0.20678 0.81953 0.0
C2576 C 0.3997 0.2205 0.8447 0.0
H2577 H 0.42273 0.19492 0.92449 0.0
H2578 H 0.4003 0.1892 0.89987 0.0
H2579 H 0.42139 0.24006 0.86353 0.0
H2580 H 0.36095 0.16644 0.78749 0.0
H2581 H 0.38144 0.17356 0.8136 0.0
H2582 H 0.37608 0.16897 0.8447 0.0
C2583 C 0.41633 0.20099 0.89921 0.0
C2584 C 0.41161 0.22448 0.85952 0.0
C2585 C 0.42917 0.20427 0.9133 0.0
C2586 C 0.36175 0.17783 0.79626 0.0
C2587 C 0.3733 0.18176 0.81129 0.0
C2588 C 0.38599 0.18455 0.84864 0.0
C2589 C 0.4241 0.21276 0.88442 0.0
C2590 C 0.41085 0.20855 0.86906 0.0
C2591 C 0.37454 0.19628 0.82309 0.0
C2592 C 0.38686 0.20049 0.83903 0.0
H2593 H 0.47383 0.24289 0.89736 0.0
H2594 H 0.45139 0.23732 0.87291 0.0
H2595 H 0.39705 0.17593 0.87048 0.0
H2596 H 0.34446 0.21121 0.80212 0.0
H2597 H 0.36449 0.21794 0.82842 0.0
C2598 C 0.80601 0.21831 0.91776 0.0
C2599 C 0.79172 0.22514 0.91863 0.0
C2600 C 0.81006 0.212 0.90219 0.0
C2601 C 0.81292 0.22385 0.8575 0.0
H2602 H 0.81856 0.17647 0.85025 0.0
C2603 C 0.86348 0.2178 0.80498 0.0
C2604 C 0.85405 0.20052 0.79448 0.0
C2605 C 0.8534 0.21922 0.81945 0.0
C2606 C 0.81689 0.18967 0.85208 0.0
H2607 H 0.77 0.23017 0.90413 0.0
H2608 H 0.7774 0.21949 0.87675 0.0
H2609 H 0.80432 0.18052 0.87721 0.0
H2610 H 0.82685 0.1711 0.79086 0.0
H2611 H 0.80937 0.17334 0.8166 0.0
H2612 H 0.82632 0.23345 0.83273 0.0
C2613 C 0.78527 0.21882 0.88816 0.0
C2614 C 0.80883 0.19201 0.86748 0.0
C2615 C 0.78093 0.22477 0.9038 0.0
C2616 C 0.83438 0.18461 0.79875 0.0
C2617 C 0.82446 0.18584 0.81345 0.0
C2618 C 0.82133 0.2217 0.84228 0.0
C2619 C 0.80019 0.21279 0.88716 0.0
C2620 C 0.80692 0.20921 0.87037 0.0
C2621 C 0.83386 0.20321 0.82388 0.0
C2622 C 0.82357 0.20469 0.83949 0.0
H2623 H 0.81455 0.21853 0.92904 0.0
H2624 H 0.82174 0.20756 0.90175 0.0
H2625 H 0.81181 0.23735 0.85947 0.0
H2626 H 0.8786 0.2303 0.8019 0.0
H2627 H 0.86102 0.23271 0.82735 0.0
C2628 C 0.22221 0.10547 0.45692 0.0
C2629 C 0.23171 0.10636 0.44126 0.0
C2630 C 0.2338 0.11144 0.47202 0.0
C2631 C 0.28574 0.14122 0.49007 0.0
H2632 H 0.26647 0.1 0.52513 0.0
C2633 C 0.32211 0.15272 0.55803 0.0
C2634 C 0.32737 0.13805 0.56259 0.0
C2635 C 0.31046 0.15022 0.54327 0.0
C2636 C 0.27196 0.11165 0.51546 0.0
H2637 H 0.26079 0.11502 0.42892 0.0
H2638 H 0.2812 0.12595 0.45535 0.0
H2639 H 0.24588 0.09415 0.49918 0.0
H2640 H 0.32445 0.10923 0.55556 0.0
H2641 H 0.30363 0.10461 0.52996 0.0
H2642 H 0.31185 0.15872 0.50644 0.0
C2643 C 0.26479 0.12051 0.45592 0.0
C2644 C 0.26015 0.10838 0.50071 0.0
C2645 C 0.25314 0.1142 0.44085 0.0
C2646 C 0.32069 0.1208 0.55224 0.0
C2647 C 0.30871 0.11811 0.53769 0.0
C2648 C 0.29739 0.14466 0.505 0.0
C2649 C 0.25514 0.11873 0.47168 0.0
C2650 C 0.26704 0.12302 0.48779 0.0
C2651 C 0.30352 0.1328 0.53308 0.0
C2652 C 0.29072 0.12977 0.5177 0.0
H2653 H 0.20568 0.09931 0.45757 0.0
H2654 H 0.22604 0.11 0.48402 0.0
H2655 H 0.29135 0.15273 0.48028 0.0
H2656 H 0.32716 0.16618 0.56581 0.0
H2657 H 0.30656 0.16171 0.53998 0.0
C2658 C 0.92038 0.14312 0.45409 0.0
C2659 C 0.9081 0.13021 0.44082 0.0
C2660 C 0.91147 0.14454 0.46929 0.0
C2661 C 0.86237 0.136 0.48734 0.0
H2662 H 0.88955 0.14014 0.53065 0.0
C2663 C 0.82579 0.1378 0.55168 0.0
C2664 C 0.83894 0.15175 0.56404 0.0
C2665 C 0.83384 0.13398 0.53696 0.0
C2666 C 0.88186 0.13919 0.51866 0.0
H2667 H 0.87678 0.10855 0.43318 0.0
H2668 H 0.86117 0.11088 0.45986 0.0
H2669 H 0.9041 0.13546 0.50437 0.0
H2670 H 0.8709 0.17259 0.57059 0.0
H2671 H 0.88496 0.16596 0.54489 0.0
H2672 H 0.84025 0.13994 0.5016 0.0
C2673 C 0.87772 0.12006 0.4584 0.0
C2674 C 0.89019 0.13649 0.50359 0.0
C2675 C 0.88667 0.11859 0.44318 0.0
C2676 C 0.86036 0.16156 0.56144 0.0
C2677 C 0.86841 0.15775 0.5467 0.0
C2678 C 0.85404 0.13872 0.50241 0.0
C2679 C 0.89003 0.13308 0.47163 0.0
C2680 C 0.88063 0.13502 0.48773 0.0
C2681 C 0.85524 0.14402 0.53422 0.0
C2682 C 0.86376 0.14048 0.51825 0.0
H2683 H 0.93698 0.15206 0.4528 0.0
H2684 H 0.92139 0.15487 0.47912 0.0
H2685 H 0.85477 0.13521 0.47533 0.0
H2686 H 0.80923 0.12971 0.55343 0.0
H2687 H 0.82327 0.12304 0.52776 0.0
C2688 C 0.8911 0.7705 0.44377 0.0
C2689 C 0.88549 0.78523 0.44055 0.0
C2690 C 0.88685 0.76076 0.45964 0.0
C2691 C 0.85127 0.74917 0.49613 0.0
H2692 H 0.88469 0.72939 0.51728 0.0
C2693 C 0.81913 0.68948 0.54919 0.0
C2694 C 0.83215 0.69093 0.56278 0.0
C2695 C 0.82693 0.70214 0.53504 0.0
C2696 C 0.87528 0.73499 0.51165 0.0
H2697 H 0.87249 0.80241 0.45167 0.0
H2698 H 0.8657 0.78601 0.4794 0.0
H2699 H 0.89708 0.75019 0.49165 0.0
H2700 H 0.86371 0.70706 0.57208 0.0
H2701 H 0.87729 0.72955 0.54749 0.0
H2702 H 0.82965 0.73436 0.51617 0.0
C2703 C 0.87267 0.78136 0.4696 0.0
C2704 C 0.88228 0.74673 0.49682 0.0
C2705 C 0.87669 0.79088 0.45375 0.0
C2706 C 0.8532 0.70562 0.56192 0.0
C2707 C 0.86103 0.71835 0.54771 0.0
C2708 C 0.84434 0.73755 0.51093 0.0
C2709 C 0.87708 0.76572 0.47262 0.0
C2710 C 0.87029 0.75388 0.4888 0.0
C2711 C 0.84799 0.71674 0.53407 0.0
C2712 C 0.85611 0.73009 0.5188 0.0
H2713 H 0.89782 0.76583 0.43377 0.0
H2714 H 0.89037 0.74873 0.46143 0.0
H2715 H 0.84141 0.75409 0.49024 0.0
H2716 H 0.80279 0.67855 0.54948 0.0
H2717 H 0.81643 0.70023 0.52471 0.0
loop_
_geom_bond_atom_site_label_1
_geom_bond_atom_site_label_2
_geom_bond_distance
_geom_bond_site_symmetry_2
_ccdc_geom_bond_type
H0 C1 0.949 . S
C1 H0 0.949 . S
C1 C2 1.395 . S
C1 C3 1.391 . S
C2 C1 1.395 . S
C2 C5 1.390 . S
C3 C1 1.391 . S
C3 C7 1.387 . S
C3 C8 1.491 . S
H4 C5 0.950 . S
C5 C2 1.390 . S
C5 H4 0.950 . S
C5 C6 1.378 . S
C6 C5 1.378 . S
C6 C7 1.409 . S
C7 C3 1.387 . S
C7 C6 1.409 . S
C7 H9 0.951 . S
C8 C3 1.491 . S
C8 C10 1.382 . S
C8 C12 1.404 . S
H9 C7 0.951 . S
C10 C8 1.382 . S
C10 C11 1.390 . S
C10 H15 0.949 . S
C11 C10 1.390 . S
C11 C16 1.399 . S
C12 C8 1.404 . S
C12 H13 0.950 . S
C12 C14 1.375 . S
H13 C12 0.950 . S
C14 C12 1.375 . S
C14 C16 1.382 . S
C14 H18 0.950 . S
H15 C10 0.949 . S
C16 C11 1.399 . S
C16 C14 1.382 . S
C16 H17 0.952 . S
H17 C16 0.952 . S
H18 C14 0.950 . S
H19 C20 0.949 . S
C20 H19 0.949 . S
C20 C21 1.395 . S
C20 C22 1.391 . S
C21 C20 1.395 . S
C21 C24 1.390 . S
C22 C20 1.391 . S
C22 C26 1.387 . S
C22 C27 1.491 . S
H23 C24 0.950 . S
C24 C21 1.390 . S
C24 H23 0.950 . S
C24 C25 1.378 . S
C25 C24 1.378 . S
C25 C26 1.409 . S
C26 C22 1.387 . S
C26 C25 1.409 . S
C26 H28 0.951 . S
C27 C22 1.491 . S
C27 C29 1.382 . S
C27 C31 1.404 . S
H28 C26 0.951 . S
C29 C27 1.382 . S
C29 C30 1.390 . S
C29 H34 0.949 . S
C30 C29 1.390 . S
C30 C35 1.399 . S
C31 C27 1.404 . S
C31 H32 0.950 . S
C31 C33 1.375 . S
H32 C31 0.950 . S
C33 C31 1.375 . S
C33 C35 1.382 . S
C33 H37 0.950 . S
H34 C29 0.949 . S
C35 C30 1.399 . S
C35 C33 1.382 . S
C35 H36 0.952 . S
H36 C35 0.952 . S
H37 C33 0.950 . S
H38 C39 0.949 . S
C39 H38 0.949 . S
C39 C40 1.395 . S
C39 C41 1.391 . S
C40 C39 1.395 . S
C40 C43 1.390 . S
C41 C39 1.391 . S
C41 C45 1.387 . S
C41 C46 1.491 . S
H42 C43 0.950 . S
C43 C40 1.390 . S
C43 H42 0.950 . S
C43 C44 1.378 . S
C44 C43 1.378 . S
C44 C45 1.409 . S
C45 C41 1.387 . S
C45 C44 1.409 . S
C45 H47 0.951 . S
C46 C41 1.491 . S
C46 C48 1.382 . S
C46 C50 1.404 . S
H47 C45 0.951 . S
C48 C46 1.382 . S
C48 C49 1.390 . S
C48 H53 0.949 . S
C49 C48 1.390 . S
C49 C54 1.399 . S
C50 C46 1.404 . S
C50 H51 0.950 . S
C50 C52 1.375 . S
H51 C50 0.950 . S
C52 C50 1.375 . S
C52 C54 1.382 . S
C52 H56 0.950 . S
H53 C48 0.949 . S
C54 C49 1.399 . S
C54 C52 1.382 . S
C54 H55 0.952 . S
H55 C54 0.952 . S
H56 C52 0.950 . S
H57 C58 0.949 . S
C58 H57 0.949 . S
C58 C59 1.395 . S
C58 C60 1.391 . S
C59 C58 1.395 . S
C59 C62 1.390 . S
C60 C58 1.391 . S
C60 C64 1.387 . S
C60 C65 1.491 . S
H61 C62 0.950 . S
C62 C59 1.390 . S
C62 H61 0.950 . S
C62 C63 1.378 . S
C63 C62 1.378 . S
C63 C64 1.409 . S
C64 C60 1.387 . S
C64 C63 1.409 . S
C64 H66 0.951 . S
C65 C60 1.491 . S
C65 C67 1.382 . S
C65 C69 1.404 . S
H66 C64 0.951 . S
C67 C65 1.382 . S
C67 C68 1.390 . S
C67 H72 0.949 . S
C68 C67 1.390 . S
C68 C73 1.399 . S
C69 C65 1.404 . S
C69 H70 0.950 . S
C69 C71 1.375 . S
H70 C69 0.950 . S
C71 C69 1.375 . S
C71 C73 1.382 . S
C71 H75 0.950 . S
H72 C67 0.949 . S
C73 C68 1.399 . S
C73 C71 1.382 . S
C73 H74 0.952 . S
H74 C73 0.952 . S
H75 C71 0.950 . S
H76 C77 0.949 . S
C77 H76 0.949 . S
C77 C78 1.395 . S
C77 C79 1.391 . S
C78 C77 1.395 . S
C78 C81 1.390 . S
C79 C77 1.391 . S
C79 C83 1.387 . S
C79 C84 1.491 . S
H80 C81 0.950 . S
C81 C78 1.390 . S
C81 H80 0.950 . S
C81 C82 1.378 . S
C82 C81 1.378 . S
C82 C83 1.409 . S
C83 C79 1.387 . S
C83 C82 1.409 . S
C83 H85 0.951 . S
C84 C79 1.491 . S
C84 C86 1.382 . S
C84 C88 1.404 . S
H85 C83 0.951 . S
C86 C84 1.382 . S
C86 C87 1.390 . S
C86 H91 0.949 . S
C87 C86 1.390 . S
C87 C92 1.399 . S
C88 C84 1.404 . S
C88 H89 0.950 . S
C88 C90 1.375 . S
H89 C88 0.950 . S
C90 C88 1.375 . S
C90 C92 1.382 . S
C90 H94 0.950 . S
H91 C86 0.949 . S
C92 C87 1.399 . S
C92 C90 1.382 . S
C92 H93 0.952 . S
H93 C92 0.952 . S
H94 C90 0.950 . S
H95 C96 0.949 . S
C96 H95 0.949 . S
C96 C97 1.395 . S
C96 C98 1.391 . S
C97 C96 1.395 . S
C97 C100 1.390 . S
C98 C96 1.391 . S
C98 C102 1.387 . S
C98 C103 1.491 . S
H99 C100 0.950 . S
C100 C97 1.390 . S
C100 H99 0.950 . S
C100 C101 1.378 . S
C101 C100 1.378 . S
C101 C102 1.409 . S
C102 C98 1.387 . S
C102 C101 1.409 . S
C102 H104 0.951 . S
C103 C98 1.491 . S
C103 C105 1.382 . S
C103 C107 1.404 . S
H104 C102 0.951 . S
C105 C103 1.382 . S
C105 C106 1.390 . S
C105 H110 0.949 . S
C106 C105 1.390 . S
C106 C111 1.399 . S
C107 C103 1.404 . S
C107 H108 0.950 . S
C107 C109 1.375 . S
H108 C107 0.950 . S
C109 C107 1.375 . S
C109 C111 1.382 . S
C109 H113 0.950 . S
H110 C105 0.949 . S
C111 C106 1.399 . S
C111 C109 1.382 . S
C111 H112 0.952 . S
H112 C111 0.952 . S
H113 C109 0.950 . S
H114 C115 0.949 . S
C115 H114 0.949 . S
C115 C116 1.395 . S
C115 C117 1.391 . S
C116 C115 1.395 . S
C116 C119 1.390 . S
C117 C115 1.391 . S
C117 C121 1.387 . S
C117 C122 1.491 . S
H118 C119 0.950 . S
C119 C116 1.390 . S
C119 H118 0.950 . S
C119 C120 1.378 . S
C120 C119 1.378 . S
C120 C121 1.409 . S
C121 C117 1.387 . S
C121 C120 1.409 . S
C121 H123 0.951 . S
C122 C117 1.491 . S
C122 C124 1.382 . S
C122 C126 1.404 . S
H123 C121 0.951 . S
C124 C122 1.382 . S
C124 C125 1.390 . S
C124 H129 0.949 . S
C125 C124 1.390 . S
C125 C130 1.399 . S
C126 C122 1.404 . S
C126 H127 0.950 . S
C126 C128 1.375 . S
H127 C126 0.950 . S
C128 C126 1.375 . S
C128 C130 1.382 . S
C128 H132 0.950 . S
H129 C124 0.949 . S
C130 C125 1.399 . S
C130 C128 1.382 . S
C130 H131 0.952 . S
H131 C130 0.952 . S
H132 C128 0.950 . S
H133 C134 0.949 . S
C134 H133 0.949 . S
C134 C135 1.395 . S
C134 C136 1.391 . S
C135 C134 1.395 . S
C135 C138 1.390 . S
C136 C134 1.391 . S
C136 C140 1.387 . S
C136 C141 1.491 . S
H137 C138 0.950 . S
C138 C135 1.390 . S
C138 H137 0.950 . S
C138 C139 1.378 . S
C139 C138 1.378 . S
C139 C140 1.409 . S
C140 C136 1.387 . S
C140 C139 1.409 . S
C140 H142 0.951 . S
C141 C136 1.491 . S
C141 C143 1.382 . S
C141 C145 1.404 . S
H142 C140 0.951 . S
C143 C141 1.382 . S
C143 C144 1.390 . S
C143 H148 0.949 . S
C144 C143 1.390 . S
C144 C149 1.399 . S
C145 C141 1.404 . S
C145 H146 0.950 . S
C145 C147 1.375 . S
H146 C145 0.950 . S
C147 C145 1.375 . S
C147 C149 1.382 . S
C147 H151 0.950 . S
H148 C143 0.949 . S
C149 C144 1.399 . S
C149 C147 1.382 . S
C149 H150 0.952 . S
H150 C149 0.952 . S
H151 C147 0.950 . S
H152 C153 0.949 . S
C153 H152 0.949 . S
C153 C154 1.395 . S
C153 C155 1.391 . S
C154 C153 1.395 . S
C154 C157 1.390 . S
C155 C153 1.391 . S
C155 C159 1.387 . S
C155 C160 1.491 . S
H156 C157 0.950 . S
C157 C154 1.390 . S
C157 H156 0.950 . S
C157 C158 1.378 . S
C158 C157 1.378 . S
C158 C159 1.409 . S
C159 C155 1.387 . S
C159 C158 1.409 . S
C159 H161 0.951 . S
C160 C155 1.491 . S
C160 C162 1.382 . S
C160 C164 1.404 . S
H161 C159 0.951 . S
C162 C160 1.382 . S
C162 C163 1.390 . S
C162 H167 0.949 . S
C163 C162 1.390 . S
C163 C168 1.399 . S
C164 C160 1.404 . S
C164 H165 0.950 . S
C164 C166 1.375 . S
H165 C164 0.950 . S
C166 C164 1.375 . S
C166 C168 1.382 . S
C166 H170 0.950 . S
H167 C162 0.949 . S
C168 C163 1.399 . S
C168 C166 1.382 . S
C168 H169 0.952 . S
H169 C168 0.952 . S
H170 C166 0.950 . S
H171 C172 0.949 . S
C172 H171 0.949 . S
C172 C173 1.395 . S
C172 C174 1.391 . S
C173 C172 1.395 . S
C173 C176 1.390 . S
C174 C172 1.391 . S
C174 C178 1.387 . S
C174 C179 1.491 . S
H175 C176 0.950 . S
C176 C173 1.390 . S
C176 H175 0.950 . S
C176 C177 1.378 . S
C177 C176 1.378 . S
C177 C178 1.409 . S
C178 C174 1.387 . S
C178 C177 1.409 . S
C178 H180 0.951 . S
C179 C174 1.491 . S
C179 C181 1.382 . S
C179 C183 1.404 . S
H180 C178 0.951 . S
C181 C179 1.382 . S
C181 C182 1.390 . S
C181 H186 0.949 . S
C182 C181 1.390 . S
C182 C187 1.399 . S
C183 C179 1.404 . S
C183 H184 0.950 . S
C183 C185 1.375 . S
H184 C183 0.950 . S
C185 C183 1.375 . S
C185 C187 1.382 . S
C185 H189 0.950 . S
H186 C181 0.949 . S
C187 C182 1.399 . S
C187 C185 1.382 . S
C187 H188 0.952 . S
H188 C187 0.952 . S
H189 C185 0.950 . S
H190 C191 0.949 . S
C191 H190 0.949 . S
C191 C192 1.395 . S
C191 C193 1.391 . S
C192 C191 1.395 . S
C192 C195 1.390 . S
C193 C191 1.391 . S
C193 C197 1.387 . S
C193 C198 1.491 . S
H194 C195 0.950 . S
C195 C192 1.390 . S
C195 H194 0.950 . S
C195 C196 1.378 . S
C196 C195 1.378 . S
C196 C197 1.409 . S
C197 C193 1.387 . S
C197 C196 1.409 . S
C197 H199 0.951 . S
C198 C193 1.491 . S
C198 C200 1.382 . S
C198 C202 1.404 . S
H199 C197 0.951 . S
C200 C198 1.382 . S
C200 C201 1.390 . S
C200 H205 0.949 . S
C201 C200 1.390 . S
C201 C206 1.399 . S
C202 C198 1.404 . S
C202 H203 0.950 . S
C202 C204 1.375 . S
H203 C202 0.950 . S
C204 C202 1.375 . S
C204 C206 1.382 . S
C204 H208 0.950 . S
H205 C200 0.949 . S
C206 C201 1.399 . S
C206 C204 1.382 . S
C206 H207 0.952 . S
H207 C206 0.952 . S
H208 C204 0.950 . S
H209 C210 0.949 . S
C210 H209 0.949 . S
C210 C211 1.395 . S
C210 C212 1.391 . S
C211 C210 1.395 . S
C211 C214 1.390 . S
C212 C210 1.391 . S
C212 C216 1.387 . S
C212 C217 1.491 . S
H213 C214 0.950 . S
C214 C211 1.390 . S
C214 H213 0.950 . S
C214 C215 1.378 . S
C215 C214 1.378 . S
C215 C216 1.409 . S
C216 C212 1.387 . S
C216 C215 1.409 . S
C216 H218 0.951 . S
C217 C212 1.491 . S
C217 C219 1.382 . S
C217 C221 1.404 . S
H218 C216 0.951 . S
C219 C217 1.382 . S
C219 C220 1.390 . S
C219 H224 0.949 . S
C220 C219 1.390 . S
C220 C225 1.399 . S
C221 C217 1.404 . S
C221 H222 0.950 . S
C221 C223 1.375 . S
H222 C221 0.950 . S
C223 C221 1.375 . S
C223 C225 1.382 . S
C223 H227 0.950 . S
H224 C219 0.949 . S
C225 C220 1.399 . S
C225 C223 1.382 . S
C225 H226 0.952 . S
H226 C225 0.952 . S
H227 C223 0.950 . S
H228 C229 0.949 . S
C229 H228 0.949 . S
C229 C230 1.395 . S
C229 C231 1.391 . S
C230 C229 1.395 . S
C230 C233 1.390 . S
C231 C229 1.391 . S
C231 C235 1.387 . S
C231 C236 1.491 . S
H232 C233 0.950 . S
C233 C230 1.390 . S
C233 H232 0.950 . S
C233 C234 1.378 . S
C234 C233 1.378 . S
C234 C235 1.409 . S
C235 C231 1.387 . S
C235 C234 1.409 . S
C235 H237 0.951 . S
C236 C231 1.491 . S
C236 C238 1.382 . S
C236 C240 1.404 . S
H237 C235 0.951 . S
C238 C236 1.382 . S
C238 C239 1.390 . S
C238 H243 0.949 . S
C239 C238 1.390 . S
C239 C244 1.399 . S
C240 C236 1.404 . S
C240 H241 0.950 . S
C240 C242 1.375 . S
H241 C240 0.950 . S
C242 C240 1.375 . S
C242 C244 1.382 . S
C242 H246 0.950 . S
H243 C238 0.949 . S
C244 C239 1.399 . S
C244 C242 1.382 . S
C244 H245 0.952 . S
H245 C244 0.952 . S
H246 C242 0.950 . S
H247 C248 0.949 . S
C248 H247 0.949 . S
C248 C249 1.395 . S
C248 C250 1.391 . S
C249 C248 1.395 . S
C249 C252 1.390 . S
C250 C248 1.391 . S
C250 C254 1.387 . S
C250 C255 1.491 . S
H251 C252 0.950 . S
C252 C249 1.390 . S
C252 H251 0.950 . S
C252 C253 1.378 . S
C253 C252 1.378 . S
C253 C254 1.409 . S
C254 C250 1.387 . S
C254 C253 1.409 . S
C254 H256 0.951 . S
C255 C250 1.491 . S
C255 C257 1.382 . S
C255 C259 1.404 . S
H256 C254 0.951 . S
C257 C255 1.382 . S
C257 C258 1.390 . S
C257 H262 0.949 . S
C258 C257 1.390 . S
C258 C263 1.399 . S
C259 C255 1.404 . S
C259 H260 0.950 . S
C259 C261 1.375 . S
H260 C259 0.950 . S
C261 C259 1.375 . S
C261 C263 1.382 . S
C261 H265 0.950 . S
H262 C257 0.949 . S
C263 C258 1.399 . S
C263 C261 1.382 . S
C263 H264 0.952 . S
H264 C263 0.952 . S
H265 C261 0.950 . S
H266 C267 0.949 . S
C267 H266 0.949 . S
C267 C268 1.395 . S
C267 C269 1.391 . S
C268 C267 1.395 . S
C268 C271 1.390 . S
C269 C267 1.391 . S
C269 C273 1.387 . S
C269 C274 1.491 . S
H270 C271 0.950 . S
C271 C268 1.390 . S
C271 H270 0.950 . S
C271 C272 1.378 . S
C272 C271 1.378 . S
C272 C273 1.409 . S
C273 C269 1.387 . S
C273 C272 1.409 . S
C273 H275 0.951 . S
C274 C269 1.491 . S
C274 C276 1.382 . S
C274 C278 1.404 . S
H275 C273 0.951 . S
C276 C274 1.382 . S
C276 C277 1.390 . S
C276 H281 0.949 . S
C277 C276 1.390 . S
C277 C282 1.399 . S
C278 C274 1.404 . S
C278 H279 0.950 . S
C278 C280 1.375 . S
H279 C278 0.950 . S
C280 C278 1.375 . S
C280 C282 1.382 . S
C280 H284 0.950 . S
H281 C276 0.949 . S
C282 C277 1.399 . S
C282 C280 1.382 . S
C282 H283 0.952 . S
H283 C282 0.952 . S
H284 C280 0.950 . S
H285 C286 0.949 . S
C286 H285 0.949 . S
C286 C287 1.395 . S
C286 C288 1.391 . S
C287 C286 1.395 . S
C287 C290 1.390 . S
C288 C286 1.391 . S
C288 C292 1.387 . S
C288 C293 1.491 . S
H289 C290 0.950 . S
C290 C287 1.390 . S
C290 H289 0.950 . S
C290 C291 1.378 . S
C291 C290 1.378 . S
C291 C292 1.409 . S
C292 C288 1.387 . S
C292 C291 1.409 . S
C292 H294 0.951 . S
C293 C288 1.491 . S
C293 C295 1.382 . S
C293 C297 1.404 . S
H294 C292 0.951 . S
C295 C293 1.382 . S
C295 C296 1.390 . S
C295 H300 0.949 . S
C296 C295 1.390 . S
C296 C301 1.399 . S
C297 C293 1.404 . S
C297 H298 0.950 . S
C297 C299 1.375 . S
H298 C297 0.950 . S
C299 C297 1.375 . S
C299 C301 1.382 . S
C299 H303 0.950 . S
H300 C295 0.949 . S
C301 C296 1.399 . S
C301 C299 1.382 . S
C301 H302 0.952 . S
H302 C301 0.952 . S
H303 C299 0.950 . S
H304 C305 0.949 . S
C305 H304 0.949 . S
C305 C306 1.395 . S
C305 C307 1.391 . S
C306 C305 1.395 . S
C306 C309 1.390 . S
C307 C305 1.391 . S
C307 C311 1.387 . S
C307 C312 1.491 . S
H308 C309 0.950 . S
C309 C306 1.390 . S
C309 H308 0.950 . S
C309 C310 1.378 . S
C310 C309 1.378 . S
C310 C311 1.409 . S
C311 C307 1.387 . S
C311 C310 1.409 . S
C311 H313 0.951 . S
C312 C307 1.491 . S
C312 C314 1.382 . S
C312 C316 1.404 . S
H313 C311 0.951 . S
C314 C312 1.382 . S
C314 C315 1.390 . S
C314 H319 0.949 . S
C315 C314 1.390 . S
C315 C320 1.399 . S
C316 C312 1.404 . S
C316 H317 0.950 . S
C316 C318 1.375 . S
H317 C316 0.950 . S
C318 C316 1.375 . S
C318 C320 1.382 . S
C318 H322 0.950 . S
H319 C314 0.949 . S
C320 C315 1.399 . S
C320 C318 1.382 . S
C320 H321 0.952 . S
H321 C320 0.952 . S
H322 C318 0.950 . S
H323 C324 0.949 . S
C324 H323 0.949 . S
C324 C325 1.395 . S
C324 C326 1.391 . S
C325 C324 1.395 . S
C325 C328 1.390 . S
C326 C324 1.391 . S
C326 C330 1.387 . S
C326 C331 1.491 . S
H327 C328 0.950 . S
C328 C325 1.390 . S
C328 H327 0.950 . S
C328 C329 1.378 . S
C329 C328 1.378 . S
C329 C330 1.409 . S
C330 C326 1.387 . S
C330 C329 1.409 . S
C330 H332 0.951 . S
C331 C326 1.491 . S
C331 C333 1.382 . S
C331 C335 1.404 . S
H332 C330 0.951 . S
C333 C331 1.382 . S
C333 C334 1.390 . S
C333 H338 0.949 . S
C334 C333 1.390 . S
C334 C339 1.399 . S
C335 C331 1.404 . S
C335 H336 0.950 . S
C335 C337 1.375 . S
H336 C335 0.950 . S
C337 C335 1.375 . S
C337 C339 1.382 . S
C337 H341 0.950 . S
H338 C333 0.949 . S
C339 C334 1.399 . S
C339 C337 1.382 . S
C339 H340 0.952 . S
H340 C339 0.952 . S
H341 C337 0.950 . S
Eu342 N373 2.657 . S
Eu342 N380 2.609 . S
Eu342 O386 2.558 . S
Eu342 O387 2.612 1_566 S
Eu342 O389 2.339 1_565 S
Eu342 O390 2.563 1_565 S
Eu342 O391 2.419 1_565 S
Eu342 O393 2.380 1_556 S
Eu342 O394 2.432 . S
Eu342 C406 2.848 1_565 S
C343 C346 1.429 . S
C343 C347 1.411 . S
C343 N350 1.377 . S
C344 C346 1.420 . S
C344 C348 1.423 . S
C344 C356 1.392 . S
C345 C347 1.420 . S
C345 C348 1.351 . S
C345 H368 0.931 . S
C346 C343 1.429 . S
C346 C344 1.420 . S
C346 N354 1.362 . S
C347 C343 1.411 . S
C347 C345 1.420 . S
C347 C352 1.395 . S
C348 C344 1.423 . S
C348 C345 1.351 . S
C348 H360 0.930 . S
C349 C351 1.400 . S
C349 C352 1.386 . S
C349 H361 0.930 . S
N350 C343 1.377 . S
N350 C351 1.321 . S
N350 Eu353 2.609 . S
C351 C349 1.400 . S
C351 N350 1.321 . S
C351 H358 0.930 . S
C352 C347 1.395 . S
C352 C349 1.386 . S
C352 H371 0.930 . S
Eu353 N350 2.609 . S
Eu353 N354 2.657 . S
Eu353 O387 2.380 . S
Eu353 O388 2.432 . S
Eu353 O392 2.558 . S
Eu353 O393 2.612 1_545 S
Eu353 O395 2.339 1_545 S
Eu353 O396 2.563 1_545 S
Eu353 O397 2.419 1_545 S
Eu353 C417 2.848 . S
N354 C346 1.362 . S
N354 Eu353 2.657 . S
N354 C355 1.334 . S
C355 N354 1.334 . S
C355 C357 1.413 . S
C355 H362 0.929 . S
C356 C344 1.392 . S
C356 C357 1.367 . S
C356 H364 0.930 . S
C357 C355 1.413 . S
C357 C356 1.367 . S
C357 H359 0.930 . S
H358 C351 0.930 . S
H359 C357 0.930 . S
H360 C348 0.930 . S
H361 C349 0.930 . S
H362 C355 0.929 . S
H363 C377 0.930 . S
H364 C356 0.930 . S
H365 C383 0.930 . S
H366 C374 0.929 1_545 S
H367 C381 0.930 . S
H368 C345 0.931 . S
H369 C375 0.930 . S
H370 C408 0.930 . S
H371 C352 0.930 . S
H372 C407 0.931 . S
N373 Eu342 2.657 . S
N373 C374 1.334 . S
N373 C378 1.362 . S
C374 H366 0.929 1_565 S
C374 N373 1.334 . S
C374 C377 1.413 . S
C375 H369 0.930 . S
C375 C376 1.392 . S
C375 C377 1.367 . S
C376 C375 1.392 . S
C376 C378 1.420 . S
C376 C408 1.423 . S
C377 H363 0.930 . S
C377 C374 1.413 . S
C377 C375 1.367 . S
C378 N373 1.362 . S
C378 C376 1.420 . S
C378 C382 1.429 . S
H379 C384 0.930 . S
N380 Eu342 2.609 . S
N380 C382 1.377 . S
N380 C383 1.321 . S
C381 H367 0.930 . S
C381 C383 1.400 . S
C381 C384 1.386 . S
C382 C378 1.429 . S
C382 N380 1.377 . S
C382 C385 1.411 . S
C383 H365 0.930 . S
C383 N380 1.321 . S
C383 C381 1.400 . S
C384 H379 0.930 . S
C384 C381 1.386 . S
C384 C385 1.395 . S
C385 C382 1.411 . S
C385 C384 1.395 . S
C385 C407 1.420 . S
O386 Eu342 2.558 . S
O386 C406 1.257 1_565 S
O387 Eu342 2.612 1_544 S
O387 Eu353 2.380 . S
O387 C398 1.276 1_554 S
O388 Eu353 2.432 . S
O388 C405 1.264 . S
O389 Eu342 2.339 1_545 S
O389 C405 1.254 1_556 S
O390 Eu342 2.563 1_545 S
O390 C398 1.235 . S
O391 Eu342 2.419 1_545 S
O391 C406 1.249 . S
O392 Eu353 2.558 . S
O392 C417 1.262 . S
O393 Eu342 2.380 1_554 S
O393 Eu353 2.612 1_565 S
O393 C409 1.276 . S
O394 Eu342 2.432 . S
O394 C416 1.264 1_556 S
O395 Eu353 2.339 1_565 S
O395 C416 1.254 . S
O396 Eu353 2.563 1_565 S
O396 C409 1.235 . S
O397 Eu353 2.419 1_565 S
O397 C417 1.245 1_565 S
C398 O387 1.276 1_556 S
C398 O390 1.235 . S
C399 C401 1.393 . S
C399 C403 1.431 . S
C399 C406 1.492 . S
C400 C401 1.392 . S
C400 C402 1.386 . S
C401 C399 1.393 . S
C401 C400 1.392 . S
C401 H418 0.930 . S
C402 C400 1.386 . S
C402 C404 1.395 . S
C402 H419 0.930 . S
C403 C399 1.431 . S
C403 C404 1.391 . S
C403 H420 0.883 1_545 S
C404 C402 1.395 . S
C404 C403 1.391 . S
C404 H421 0.899 1_545 S
C405 O388 1.264 . S
C405 O389 1.254 1_554 S
C406 Eu342 2.848 1_545 S
C406 O386 1.257 1_545 S
C406 O391 1.249 . S
C406 C399 1.492 . S
C407 H372 0.931 . S
C407 C385 1.420 . S
C407 C408 1.351 . S
C408 H370 0.930 . S
C408 C376 1.423 . S
C408 C407 1.351 . S
C409 O393 1.276 . S
C409 O396 1.235 . S
C410 C411 1.393 . S
C410 C414 1.395 1_565 S
C410 C417 1.491 1_565 S
C411 C410 1.393 . S
C411 C412 1.392 . S
C411 H422 0.930 . S
C412 C411 1.392 . S
C412 C413 1.386 . S
C413 C412 1.386 . S
C413 C415 1.395 . S
C413 H423 0.930 . S
C414 C410 1.395 1_545 S
C414 C415 1.379 1_545 S
C414 H424 0.930 . S
C415 C413 1.395 . S
C415 C414 1.379 1_565 S
C415 H425 0.930 1_565 S
C416 O394 1.264 1_554 S
C416 O395 1.254 . S
C417 Eu353 2.848 . S
C417 O392 1.262 . S
C417 O397 1.245 1_545 S
C417 C410 1.491 1_545 S
H418 C401 0.930 . S
H419 C402 0.930 . S
H420 C403 0.883 1_565 S
H421 C404 0.899 1_565 S
H422 C411 0.930 . S
H423 C413 0.930 . S
H424 C414 0.930 . S
H425 C415 0.930 1_545 S
Eu426 N457 2.657 . S
Eu426 N464 2.609 . S
Eu426 O470 2.558 . S
Eu426 O471 2.612 1_456 S
Eu426 O473 2.339 1_455 S
Eu426 O474 2.563 1_455 S
Eu426 O475 2.419 1_455 S
Eu426 O477 2.380 1_556 S
Eu426 O478 2.432 . S
Eu426 C490 2.848 . S
C427 C430 1.429 . S
C427 C431 1.411 . S
C427 N434 1.377 . S
C428 C430 1.420 . S
C428 C432 1.423 . S
C428 C440 1.392 . S
C429 C431 1.420 . S
C429 C432 1.351 . S
C429 H452 0.931 . S
C430 C427 1.429 . S
C430 C428 1.420 . S
C430 N438 1.362 . S
C431 C427 1.411 . S
C431 C429 1.420 . S
C431 C436 1.395 . S
C432 C428 1.423 . S
C432 C429 1.351 . S
C432 H444 0.930 . S
C433 C435 1.400 . S
C433 C436 1.386 . S
C433 H445 0.930 . S
N434 C427 1.377 . S
N434 C435 1.321 . S
N434 Eu437 2.609 . S
C435 C433 1.400 . S
C435 N434 1.321 . S
C435 H442 0.930 . S
C436 C431 1.395 . S
C436 C433 1.386 . S
C436 H455 0.930 . S
Eu437 N434 2.609 . S
Eu437 N438 2.657 . S
Eu437 O471 2.380 . S
Eu437 O472 2.432 . S
Eu437 O476 2.558 . S
Eu437 O477 2.612 1_655 S
Eu437 O479 2.339 1_655 S
Eu437 O480 2.563 1_655 S
Eu437 O481 2.419 1_655 S
Eu437 C501 2.848 1_655 S
N438 C430 1.362 . S
N438 Eu437 2.657 . S
N438 C439 1.334 . S
C439 N438 1.334 . S
C439 C441 1.413 . S
C439 H446 0.929 1_655 S
C440 C428 1.392 . S
C440 C441 1.367 . S
C440 H448 0.930 . S
C441 C439 1.413 . S
C441 C440 1.367 . S
C441 H443 0.930 . S
H442 C435 0.930 . S
H443 C441 0.930 . S
H444 C432 0.930 . S
H445 C433 0.930 . S
H446 C439 0.929 1_455 S
H447 C461 0.930 . S
H448 C440 0.930 . S
H449 C467 0.930 . S
H450 C458 0.929 . S
H451 C465 0.930 . S
H452 C429 0.931 . S
H453 C459 0.930 . S
H454 C492 0.930 . S
H455 C436 0.930 . S
H456 C491 0.931 . S
N457 Eu426 2.657 . S
N457 C458 1.334 . S
N457 C462 1.362 . S
C458 H450 0.929 . S
C458 N457 1.334 . S
C458 C461 1.413 . S
C459 H453 0.930 . S
C459 C460 1.392 . S
C459 C461 1.367 . S
C460 C459 1.392 . S
C460 C462 1.420 . S
C460 C492 1.423 . S
C461 H447 0.930 . S
C461 C458 1.413 . S
C461 C459 1.367 . S
C462 N457 1.362 . S
C462 C460 1.420 . S
C462 C466 1.429 . S
H463 C468 0.930 . S
N464 Eu426 2.609 . S
N464 C466 1.377 . S
N464 C467 1.321 . S
C465 H451 0.930 . S
C465 C467 1.400 . S
C465 C468 1.386 . S
C466 C462 1.429 . S
C466 N464 1.377 . S
C466 C469 1.411 . S
C467 H449 0.930 . S
C467 N464 1.321 . S
C467 C465 1.400 . S
C468 H463 0.930 . S
C468 C465 1.386 . S
C468 C469 1.395 . S
C469 C466 1.411 . S
C469 C468 1.395 . S
C469 C491 1.420 . S
O470 Eu426 2.558 . S
O470 C490 1.257 . S
O471 Eu426 2.612 1_654 S
O471 Eu437 2.380 . S
O471 C482 1.276 1_554 S
O472 Eu437 2.432 . S
O472 C489 1.264 . S
O473 Eu426 2.339 1_655 S
O473 C489 1.254 1_556 S
O474 Eu426 2.563 1_655 S
O474 C482 1.235 . S
O475 Eu426 2.419 1_655 S
O475 C490 1.249 1_655 S
O476 Eu437 2.558 . S
O476 C501 1.257 1_655 S
O477 Eu426 2.380 1_554 S
O477 Eu437 2.612 1_455 S
O477 C493 1.276 . S
O478 Eu426 2.432 . S
O478 C500 1.264 1_556 S
O479 Eu437 2.339 1_455 S
O479 C500 1.254 . S
O480 Eu437 2.563 1_455 S
O480 C493 1.235 . S
O481 Eu437 2.419 1_455 S
O481 C501 1.249 . S
C482 O471 1.276 1_556 S
C482 O474 1.235 . S
C483 C485 1.393 . S
C483 C487 1.395 1_655 S
C483 C490 1.492 1_655 S
C484 C485 1.392 . S
C484 C486 1.386 . S
C485 C483 1.393 . S
C485 C484 1.392 . S
C485 H502 0.930 . S
C486 C484 1.386 . S
C486 C488 1.395 1_655 S
C486 H503 0.930 . S
C487 C483 1.395 1_455 S
C487 C488 1.379 . S
C487 H504 0.930 . S
C488 C486 1.395 1_455 S
C488 C487 1.379 . S
C488 H505 0.930 . S
C489 O472 1.264 . S
C489 O473 1.254 1_554 S
C490 Eu426 2.848 . S
C490 O470 1.257 . S
C490 O475 1.249 1_455 S
C490 C483 1.492 1_455 S
C491 H456 0.931 . S
C491 C469 1.420 . S
C491 C492 1.351 . S
C492 H454 0.930 . S
C492 C460 1.423 . S
C492 C491 1.351 . S
C493 O477 1.276 . S
C493 O480 1.235 . S
C494 C495 1.393 . S
C494 C498 1.387 1_455 S
C494 C501 1.492 . S
C495 C494 1.393 . S
C495 C496 1.392 . S
C495 H506 0.930 . S
C496 C495 1.392 . S
C496 C497 1.386 . S
C497 C496 1.386 . S
C497 C499 1.395 . S
C497 H507 0.930 . S
C498 C494 1.387 1_655 S
C498 C499 1.369 1_655 S
C498 H508 0.948 . S
C499 C497 1.395 . S
C499 C498 1.369 1_455 S
C499 H509 0.930 1_455 S
C500 O478 1.264 1_554 S
C500 O479 1.254 . S
C501 Eu437 2.848 1_455 S
C501 O476 1.257 1_455 S
C501 O481 1.249 . S
C501 C494 1.492 . S
H502 C485 0.930 . S
H503 C486 0.930 . S
H504 C487 0.930 . S
H505 C488 0.930 . S
H506 C495 0.930 . S
H507 C497 0.930 . S
H508 C498 0.948 . S
H509 C499 0.930 1_655 S
Eu510 N541 2.657 . S
Eu510 N548 2.609 . S
Eu510 O554 2.558 . S
Eu510 O555 2.612 . S
Eu510 O557 2.339 . S
Eu510 O558 2.563 . S
Eu510 O559 2.419 . S
Eu510 O561 2.380 . S
Eu510 O562 2.432 . S
Eu510 C574 2.848 . S
C511 C514 1.429 . S
C511 C515 1.411 . S
C511 N518 1.377 . S
C512 C514 1.420 . S
C512 C516 1.423 . S
C512 C524 1.392 . S
C513 C515 1.420 . S
C513 C516 1.351 . S
C513 H536 0.931 . S
C514 C511 1.429 . S
C514 C512 1.420 . S
C514 N522 1.362 . S
C515 C511 1.411 . S
C515 C513 1.420 . S
C515 C520 1.395 . S
C516 C512 1.423 . S
C516 C513 1.351 . S
C516 H528 0.930 . S
C517 C519 1.400 . S
C517 C520 1.386 . S
C517 H529 0.930 . S
N518 C511 1.377 . S
N518 C519 1.321 . S
N518 Eu521 2.609 . S
C519 C517 1.400 . S
C519 N518 1.321 . S
C519 H526 0.930 . S
C520 C515 1.395 . S
C520 C517 1.386 . S
C520 H539 0.930 . S
Eu521 N518 2.609 . S
Eu521 N522 2.657 . S
Eu521 O555 2.380 1_556 S
Eu521 O556 2.427 1_556 S
Eu521 O560 2.558 . S
Eu521 O561 2.612 1_556 S
Eu521 O563 2.339 . S
Eu521 O564 2.563 . S
Eu521 O565 2.419 . S
Eu521 C585 2.848 . S
N522 C514 1.362 . S
N522 Eu521 2.657 . S
N522 C523 1.334 . S
C523 N522 1.334 . S
C523 C525 1.413 . S
C523 H530 0.929 . S
C524 C512 1.392 . S
C524 C525 1.367 . S
C524 H532 0.930 . S
C525 C523 1.413 . S
C525 C524 1.367 . S
C525 H527 0.930 . S
H526 C519 0.930 . S
H527 C525 0.930 . S
H528 C516 0.930 . S
H529 C517 0.930 . S
H530 C523 0.929 . S
H531 C545 0.930 . S
H532 C524 0.930 . S
H533 C551 0.930 . S
H534 C542 0.929 . S
H535 C549 0.930 . S
H536 C513 0.931 . S
H537 C543 0.930 . S
H538 C576 0.930 . S
H539 C520 0.930 . S
H540 C575 0.931 . S
N541 Eu510 2.657 . S
N541 C542 1.334 . S
N541 C546 1.362 . S
C542 H534 0.929 . S
C542 N541 1.334 . S
C542 C545 1.413 . S
C543 H537 0.930 . S
C543 C544 1.392 . S
C543 C545 1.367 . S
C544 C543 1.392 . S
C544 C546 1.420 . S
C544 C576 1.423 . S
C545 H531 0.930 . S
C545 C542 1.413 . S
C545 C543 1.367 . S
C546 N541 1.362 . S
C546 C544 1.420 . S
C546 C550 1.429 . S
H547 C552 0.930 . S
N548 Eu510 2.609 . S
N548 C550 1.377 . S
N548 C551 1.321 . S
C549 H535 0.930 . S
C549 C551 1.400 . S
C549 C552 1.386 . S
C550 C546 1.429 . S
C550 N548 1.377 . S
C550 C553 1.411 . S
C551 H533 0.930 . S
C551 N548 1.321 . S
C551 C549 1.400 . S
C552 H547 0.930 . S
C552 C549 1.386 . S
C552 C553 1.395 . S
C553 C550 1.411 . S
C553 C552 1.395 . S
C553 C575 1.420 . S
O554 Eu510 2.558 . S
O554 C574 1.257 . S
O555 Eu510 2.612 . S
O555 Eu521 2.380 1_554 S
O555 C566 1.276 . S
O556 Eu521 2.427 1_554 S
O556 C573 1.274 . S
O557 Eu510 2.339 . S
O557 C573 1.254 . S
O558 Eu510 2.563 . S
O558 C566 1.235 . S
O559 Eu510 2.419 . S
O559 C574 1.249 . S
O560 Eu521 2.558 . S
O560 C585 1.257 . S
O561 Eu510 2.380 . S
O561 Eu521 2.612 1_554 S
O561 C577 1.276 1_554 S
O562 Eu510 2.432 . S
O562 C584 1.264 . S
O563 Eu521 2.339 . S
O563 C584 1.254 1_556 S
O564 Eu521 2.563 . S
O564 C577 1.235 . S
O565 Eu521 2.419 . S
O565 C585 1.249 . S
C566 O555 1.276 . S
C566 O558 1.235 . S
C567 C569 1.393 . S
C567 C571 1.395 . S
C567 C574 1.492 . S
C568 C569 1.392 . S
C568 C570 1.386 . S
C569 C567 1.393 . S
C569 C568 1.392 . S
C569 H586 0.930 . S
C570 C568 1.386 . S
C570 C572 1.395 . S
C570 H587 0.930 . S
C571 C567 1.395 . S
C571 C572 1.379 . S
C571 H588 0.930 . S
C572 C570 1.395 . S
C572 C571 1.379 . S
C572 H589 0.930 . S
C573 O556 1.274 . S
C573 O557 1.254 . S
C574 Eu510 2.848 . S
C574 O554 1.257 . S
C574 O559 1.249 . S
C574 C567 1.492 . S
C575 H540 0.931 . S
C575 C553 1.420 . S
C575 C576 1.351 . S
C576 H538 0.930 . S
C576 C544 1.423 . S
C576 C575 1.351 . S
C577 O561 1.276 1_556 S
C577 O564 1.235 . S
C578 C579 1.393 . S
C578 C582 1.395 . S
C578 C585 1.492 . S
C579 C578 1.393 . S
C579 C580 1.392 . S
C579 H590 0.930 . S
C580 C579 1.392 . S
C580 C581 1.386 . S
C581 C580 1.386 . S
C581 C583 1.395 . S
C581 H591 0.930 . S
C582 C578 1.395 . S
C582 C583 1.379 . S
C582 H592 0.930 . S
C583 C581 1.395 . S
C583 C582 1.379 . S
C583 H593 0.930 . S
C584 O562 1.264 . S
C584 O563 1.254 1_554 S
C585 Eu521 2.848 . S
C585 O560 1.257 . S
C585 O565 1.249 . S
C585 C578 1.492 . S
H586 C569 0.930 . S
H587 C570 0.930 . S
H588 C571 0.930 . S
H589 C572 0.930 . S
H590 C579 0.930 . S
H591 C581 0.930 . S
H592 C582 0.930 . S
H593 C583 0.930 . S
Eu594 N625 2.657 . S
Eu594 N632 2.609 . S
Eu594 O638 2.558 . S
Eu594 O639 2.612 . S
Eu594 O641 2.339 . S
Eu594 O642 2.563 . S
Eu594 O643 2.419 . S
Eu594 O645 2.380 . S
Eu594 O646 2.432 . S
Eu594 C658 2.848 . S
C595 C598 1.429 . S
C595 C599 1.411 . S
C595 N602 1.377 . S
C596 C598 1.420 . S
C596 C600 1.423 . S
C596 C608 1.392 . S
C597 C599 1.420 . S
C597 C600 1.351 . S
C597 H620 0.931 . S
C598 C595 1.429 . S
C598 C596 1.420 . S
C598 N606 1.362 . S
C599 C595 1.411 . S
C599 C597 1.420 . S
C599 C604 1.395 . S
C600 C596 1.423 . S
C600 C597 1.351 . S
C600 H612 0.930 . S
C601 C603 1.400 . S
C601 C604 1.386 . S
C601 H613 0.930 . S
N602 C595 1.377 . S
N602 C603 1.321 . S
N602 Eu605 2.609 . S
C603 C601 1.400 . S
C603 N602 1.321 . S
C603 H610 0.930 . S
C604 C599 1.395 . S
C604 C601 1.386 . S
C604 H623 0.930 . S
Eu605 N602 2.609 . S
Eu605 N606 2.657 . S
Eu605 O639 2.380 . S
Eu605 O640 2.432 . S
Eu605 O644 2.558 . S
Eu605 O645 2.612 . S
Eu605 O647 2.339 . S
Eu605 O648 2.563 . S
Eu605 O649 2.419 . S
Eu605 C669 2.848 . S
N606 C598 1.362 . S
N606 Eu605 2.657 . S
N606 C607 1.334 . S
C607 N606 1.334 . S
C607 C609 1.413 . S
C607 H614 0.929 . S
C608 C596 1.392 . S
C608 C609 1.367 . S
C608 H616 0.930 . S
C609 C607 1.413 . S
C609 C608 1.367 . S
C609 H611 0.930 . S
H610 C603 0.930 . S
H611 C609 0.930 . S
H612 C600 0.930 . S
H613 C601 0.930 . S
H614 C607 0.929 . S
H615 C629 0.930 . S
H616 C608 0.930 . S
H617 C635 0.930 . S
H618 C626 0.929 . S
H619 C633 0.930 . S
H620 C597 0.931 . S
H621 C627 0.930 . S
H622 C660 0.930 . S
H623 C604 0.930 . S
H624 C659 0.931 . S
N625 Eu594 2.657 . S
N625 C626 1.334 . S
N625 C630 1.362 . S
C626 H618 0.929 . S
C626 N625 1.334 . S
C626 C629 1.413 . S
C627 H621 0.930 . S
C627 C628 1.392 . S
C627 C629 1.367 . S
C628 C627 1.392 . S
C628 C630 1.420 . S
C628 C660 1.423 . S
C629 H615 0.930 . S
C629 C626 1.413 . S
C629 C627 1.367 . S
C630 N625 1.362 . S
C630 C628 1.420 . S
C630 C634 1.429 . S
H631 C636 0.930 . S
N632 Eu594 2.609 . S
N632 C634 1.377 . S
N632 C635 1.321 . S
C633 H619 0.930 . S
C633 C635 1.400 . S
C633 C636 1.386 . S
C634 C630 1.429 . S
C634 N632 1.377 . S
C634 C637 1.411 . S
C635 H617 0.930 . S
C635 N632 1.321 . S
C635 C633 1.400 . S
C636 H631 0.930 . S
C636 C633 1.386 . S
C636 C637 1.395 . S
C637 C634 1.411 . S
C637 C636 1.395 . S
C637 C659 1.420 . S
O638 Eu594 2.558 . S
O638 C658 1.257 . S
O639 Eu594 2.612 . S
O639 Eu605 2.380 . S
O639 C650 1.276 . S
O640 Eu605 2.432 . S
O640 C657 1.264 . S
O641 Eu594 2.339 . S
O641 C657 1.254 . S
O642 Eu594 2.563 . S
O642 C650 1.235 . S
O643 Eu594 2.419 . S
O643 C658 1.249 . S
O644 Eu605 2.558 . S
O644 C669 1.257 . S
O645 Eu594 2.380 . S
O645 Eu605 2.612 . S
O645 C661 1.276 . S
O646 Eu594 2.432 . S
O646 C668 1.264 . S
O647 Eu605 2.339 . S
O647 C668 1.254 . S
O648 Eu605 2.563 . S
O648 C661 1.235 . S
O649 Eu605 2.419 . S
O649 C669 1.249 . S
C650 O639 1.276 . S
C650 O642 1.235 . S
C651 C653 1.393 . S
C651 C655 1.395 . S
C651 C658 1.492 . S
C652 C653 1.392 . S
C652 C654 1.386 . S
C653 C651 1.393 . S
C653 C652 1.392 . S
C653 H670 0.930 . S
C654 C652 1.386 . S
C654 C656 1.395 . S
C654 H671 0.930 . S
C655 C651 1.395 . S
C655 C656 1.379 . S
C655 H672 0.930 . S
C656 C654 1.395 . S
C656 C655 1.379 . S
C656 H673 0.930 . S
C657 O640 1.264 . S
C657 O641 1.254 . S
C658 Eu594 2.848 . S
C658 O638 1.257 . S
C658 O643 1.249 . S
C658 C651 1.492 . S
C659 H624 0.931 . S
C659 C637 1.420 . S
C659 C660 1.351 . S
C660 H622 0.930 . S
C660 C628 1.423 . S
C660 C659 1.351 . S
C661 O645 1.276 . S
C661 O648 1.235 . S
C662 C663 1.393 . S
C662 C666 1.395 . S
C662 C669 1.492 . S
C663 C662 1.393 . S
C663 C664 1.392 . S
C663 H674 0.930 . S
C664 C663 1.392 . S
C664 C665 1.386 . S
C665 C664 1.386 . S
C665 C667 1.395 . S
C665 H675 0.930 . S
C666 C662 1.395 . S
C666 C667 1.379 . S
C666 H676 0.930 . S
C667 C665 1.395 . S
C667 C666 1.379 . S
C667 H677 0.930 . S
C668 O646 1.264 . S
C668 O647 1.254 . S
C669 Eu605 2.848 . S
C669 O644 1.257 . S
C669 O649 1.249 . S
C669 C662 1.492 . S
H670 C653 0.930 . S
H671 C654 0.930 . S
H672 C655 0.930 . S
H673 C656 0.930 . S
H674 C663 0.930 . S
H675 C665 0.930 . S
H676 C666 0.930 . S
H677 C667 0.930 . S
Eu678 N709 2.657 . S
Eu678 N716 2.609 . S
Eu678 O722 2.558 . S
Eu678 O723 2.612 . S
Eu678 O725 2.339 . S
Eu678 O726 2.563 . S
Eu678 O727 2.419 . S
Eu678 O729 2.380 . S
Eu678 O730 2.432 . S
Eu678 C742 2.848 . S
C679 C682 1.429 . S
C679 C683 1.411 . S
C679 N686 1.377 . S
C680 C682 1.420 . S
C680 C684 1.423 . S
C680 C692 1.392 . S
C681 C683 1.420 . S
C681 C684 1.351 . S
C681 H704 0.931 . S
C682 C679 1.429 . S
C682 C680 1.420 . S
C682 N690 1.362 . S
C683 C679 1.411 . S
C683 C681 1.420 . S
C683 C688 1.395 . S
C684 C680 1.423 . S
C684 C681 1.351 . S
C684 H696 0.930 . S
C685 C687 1.400 . S
C685 C688 1.386 . S
C685 H697 0.930 . S
N686 C679 1.377 . S
N686 C687 1.321 . S
N686 Eu689 2.609 . S
C687 C685 1.400 . S
C687 N686 1.321 . S
C687 H694 0.930 . S
C688 C683 1.395 . S
C688 C685 1.386 . S
C688 H707 0.930 . S
Eu689 N686 2.609 . S
Eu689 N690 2.657 . S
Eu689 O723 2.380 . S
Eu689 O724 2.432 . S
Eu689 O728 2.558 . S
Eu689 O729 2.612 . S
Eu689 O731 2.339 . S
Eu689 O732 2.563 . S
Eu689 O733 2.419 . S
Eu689 C753 2.848 . S
N690 C682 1.362 . S
N690 Eu689 2.657 . S
N690 C691 1.334 . S
C691 N690 1.334 . S
C691 C693 1.413 . S
C691 H698 0.929 . S
C692 C680 1.392 . S
C692 C693 1.367 . S
C692 H700 0.930 . S
C693 C691 1.413 . S
C693 C692 1.367 . S
C693 H695 0.930 . S
H694 C687 0.930 . S
H695 C693 0.930 . S
H696 C684 0.930 . S
H697 C685 0.930 . S
H698 C691 0.929 . S
H699 C713 0.930 . S
H700 C692 0.930 . S
H701 C719 0.930 . S
H702 C710 0.929 . S
H703 C717 0.930 . S
H704 C681 0.931 . S
H705 C711 0.930 . S
H706 C744 0.930 . S
H707 C688 0.930 . S
H708 C743 0.931 . S
N709 Eu678 2.657 . S
N709 C710 1.334 . S
N709 C714 1.362 . S
C710 H702 0.929 . S
C710 N709 1.334 . S
C710 C713 1.413 . S
C711 H705 0.930 . S
C711 C712 1.392 . S
C711 C713 1.367 . S
C712 C711 1.392 . S
C712 C714 1.420 . S
C712 C744 1.423 . S
C713 H699 0.930 . S
C713 C710 1.413 . S
C713 C711 1.367 . S
C714 N709 1.362 . S
C714 C712 1.420 . S
C714 C718 1.429 . S
H715 C720 0.930 . S
N716 Eu678 2.609 . S
N716 C718 1.377 . S
N716 C719 1.321 . S
C717 H703 0.930 . S
C717 C719 1.400 . S
C717 C720 1.386 . S
C718 C714 1.429 . S
C718 N716 1.377 . S
C718 C721 1.411 . S
C719 H701 0.930 . S
C719 N716 1.321 . S
C719 C717 1.400 . S
C720 H715 0.930 . S
C720 C717 1.386 . S
C720 C721 1.395 . S
C721 C718 1.411 . S
C721 C720 1.395 . S
C721 C743 1.420 . S
O722 Eu678 2.558 . S
O722 C742 1.257 . S
O723 Eu678 2.612 . S
O723 Eu689 2.380 . S
O723 C734 1.276 . S
O724 Eu689 2.432 . S
O724 C741 1.264 . S
O725 Eu678 2.339 . S
O725 C741 1.254 . S
O726 Eu678 2.563 . S
O726 C734 1.235 . S
O727 Eu678 2.419 . S
O727 C742 1.249 . S
O728 Eu689 2.558 . S
O728 C753 1.257 . S
O729 Eu678 2.380 . S
O729 Eu689 2.612 . S
O729 C745 1.276 . S
O730 Eu678 2.432 . S
O730 C752 1.264 . S
O731 Eu689 2.339 . S
O731 C752 1.254 . S
O732 Eu689 2.563 . S
O732 C745 1.235 . S
O733 Eu689 2.419 . S
O733 C753 1.249 . S
C734 O723 1.276 . S
C734 O726 1.235 . S
C735 C737 1.393 . S
C735 C739 1.395 . S
C735 C742 1.492 . S
C736 C737 1.392 . S
C736 C738 1.386 . S
C737 C735 1.393 . S
C737 C736 1.392 . S
C737 H754 0.930 . S
C738 C736 1.386 . S
C738 C740 1.395 . S
C738 H755 0.930 . S
C739 C735 1.395 . S
C739 C740 1.379 . S
C739 H756 0.930 . S
C740 C738 1.395 . S
C740 C739 1.379 . S
C740 H757 0.930 . S
C741 O724 1.264 . S
C741 O725 1.254 . S
C742 Eu678 2.848 . S
C742 O722 1.257 . S
C742 O727 1.249 . S
C742 C735 1.492 . S
C743 H708 0.931 . S
C743 C721 1.420 . S
C743 C744 1.351 . S
C744 H706 0.930 . S
C744 C712 1.423 . S
C744 C743 1.351 . S
C745 O729 1.276 . S
C745 O732 1.235 . S
C746 C747 1.393 . S
C746 C750 1.395 . S
C746 C753 1.492 . S
C747 C746 1.393 . S
C747 C748 1.392 . S
C747 H758 0.930 . S
C748 C747 1.392 . S
C748 C749 1.386 . S
C749 C748 1.386 . S
C749 C751 1.395 . S
C749 H759 0.930 . S
C750 C746 1.395 . S
C750 C751 1.379 . S
C750 H760 0.930 . S
C751 C749 1.395 . S
C751 C750 1.379 . S
C751 H761 0.930 . S
C752 O730 1.264 . S
C752 O731 1.254 . S
C753 Eu689 2.848 . S
C753 O728 1.257 . S
C753 O733 1.249 . S
C753 C746 1.492 . S
H754 C737 0.930 . S
H755 C738 0.930 . S
H756 C739 0.930 . S
H757 C740 0.930 . S
H758 C747 0.930 . S
H759 C749 0.930 . S
H760 C750 0.930 . S
H761 C751 0.930 . S
Eu762 N793 2.657 . S
Eu762 N800 2.609 . S
Eu762 O806 2.558 . S
Eu762 O807 2.612 . S
Eu762 O809 2.339 . S
Eu762 O810 2.563 . S
Eu762 O811 2.419 . S
Eu762 O813 2.380 . S
Eu762 O814 2.432 . S
Eu762 C826 2.848 . S
C763 C766 1.429 . S
C763 C767 1.411 . S
C763 N770 1.377 . S
C764 C766 1.420 . S
C764 C768 1.423 . S
C764 C776 1.392 . S
C765 C767 1.420 . S
C765 C768 1.351 . S
C765 H788 0.931 . S
C766 C763 1.429 . S
C766 C764 1.420 . S
C766 N774 1.362 . S
C767 C763 1.411 . S
C767 C765 1.420 . S
C767 C772 1.395 . S
C768 C764 1.423 . S
C768 C765 1.351 . S
C768 H780 0.930 . S
C769 C771 1.400 . S
C769 C772 1.386 . S
C769 H781 0.930 . S
N770 C763 1.377 . S
N770 C771 1.321 . S
N770 Eu773 2.609 . S
C771 C769 1.400 . S
C771 N770 1.321 . S
C771 H778 0.930 . S
C772 C767 1.395 . S
C772 C769 1.386 . S
C772 H791 0.930 . S
Eu773 N770 2.609 . S
Eu773 N774 2.657 . S
Eu773 O807 2.380 . S
Eu773 O808 2.432 . S
Eu773 O812 2.558 . S
Eu773 O813 2.612 . S
Eu773 O815 2.339 . S
Eu773 O816 2.563 . S
Eu773 O817 2.419 . S
Eu773 C837 2.848 . S
N774 C766 1.362 . S
N774 Eu773 2.657 . S
N774 C775 1.334 . S
C775 N774 1.334 . S
C775 C777 1.413 . S
C775 H782 0.929 . S
C776 C764 1.392 . S
C776 C777 1.367 . S
C776 H784 0.930 . S
C777 C775 1.413 . S
C777 C776 1.367 . S
C777 H779 0.930 . S
H778 C771 0.930 . S
H779 C777 0.930 . S
H780 C768 0.930 . S
H781 C769 0.930 . S
H782 C775 0.929 . S
H783 C797 0.930 . S
H784 C776 0.930 . S
H785 C803 0.930 . S
H786 C794 0.929 . S
H787 C801 0.930 . S
H788 C765 0.931 . S
H789 C795 0.930 . S
H790 C828 0.930 . S
H791 C772 0.930 . S
H792 C827 0.931 . S
N793 Eu762 2.657 . S
N793 C794 1.334 . S
N793 C798 1.362 . S
C794 H786 0.929 . S
C794 N793 1.334 . S
C794 C797 1.413 . S
C795 H789 0.930 . S
C795 C796 1.392 . S
C795 C797 1.367 . S
C796 C795 1.392 . S
C796 C798 1.420 . S
C796 C828 1.423 . S
C797 H783 0.930 . S
C797 C794 1.413 . S
C797 C795 1.367 . S
C798 N793 1.362 . S
C798 C796 1.420 . S
C798 C802 1.429 . S
H799 C804 0.930 . S
N800 Eu762 2.609 . S
N800 C802 1.377 . S
N800 C803 1.321 . S
C801 H787 0.930 . S
C801 C803 1.400 . S
C801 C804 1.386 . S
C802 C798 1.429 . S
C802 N800 1.377 . S
C802 C805 1.411 . S
C803 H785 0.930 . S
C803 N800 1.321 . S
C803 C801 1.400 . S
C804 H799 0.930 . S
C804 C801 1.386 . S
C804 C805 1.395 . S
C805 C802 1.411 . S
C805 C804 1.395 . S
C805 C827 1.420 . S
O806 Eu762 2.558 . S
O806 C826 1.257 . S
O807 Eu762 2.612 . S
O807 Eu773 2.380 . S
O807 C818 1.276 . S
O808 Eu773 2.432 . S
O808 C825 1.264 . S
O809 Eu762 2.339 . S
O809 C825 1.254 . S
O810 Eu762 2.563 . S
O810 C818 1.235 . S
O811 Eu762 2.419 . S
O811 C826 1.249 . S
O812 Eu773 2.558 . S
O812 C837 1.257 . S
O813 Eu762 2.380 . S
O813 Eu773 2.612 . S
O813 C829 1.276 . S
O814 Eu762 2.432 . S
O814 C836 1.264 . S
O815 Eu773 2.339 . S
O815 C836 1.254 . S
O816 Eu773 2.563 . S
O816 C829 1.235 . S
O817 Eu773 2.419 . S
O817 C837 1.249 . S
C818 O807 1.276 . S
C818 O810 1.235 . S
C819 C821 1.393 . S
C819 C823 1.395 . S
C819 C826 1.492 . S
C820 C821 1.392 . S
C820 C822 1.386 . S
C821 C819 1.393 . S
C821 C820 1.392 . S
C821 H838 0.930 . S
C822 C820 1.386 . S
C822 C824 1.395 . S
C822 H839 0.930 . S
C823 C819 1.395 . S
C823 C824 1.379 . S
C823 H840 0.930 . S
C824 C822 1.395 . S
C824 C823 1.379 . S
C824 H841 0.930 . S
C825 O808 1.264 . S
C825 O809 1.254 . S
C826 Eu762 2.848 . S
C826 O806 1.257 . S
C826 O811 1.249 . S
C826 C819 1.492 . S
C827 H792 0.931 . S
C827 C805 1.420 . S
C827 C828 1.351 . S
C828 H790 0.930 . S
C828 C796 1.423 . S
C828 C827 1.351 . S
C829 O813 1.276 . S
C829 O816 1.235 . S
C830 C831 1.393 . S
C830 C834 1.395 . S
C830 C837 1.492 . S
C831 C830 1.393 . S
C831 C832 1.392 . S
C831 H842 0.930 . S
C832 C831 1.392 . S
C832 C833 1.386 . S
C833 C832 1.386 . S
C833 C835 1.395 . S
C833 H843 0.930 . S
C834 C830 1.395 . S
C834 C835 1.379 . S
C834 H844 0.930 . S
C835 C833 1.395 . S
C835 C834 1.379 . S
C835 H845 0.930 . S
C836 O814 1.264 . S
C836 O815 1.254 . S
C837 Eu773 2.848 . S
C837 O812 1.257 . S
C837 O817 1.249 . S
C837 C830 1.492 . S
H838 C821 0.930 . S
H839 C822 0.930 . S
H840 C823 0.930 . S
H841 C824 0.930 . S
H842 C831 0.930 . S
H843 C833 0.930 . S
H844 C834 0.930 . S
H845 C835 0.930 . S
Eu846 N877 2.657 . S
Eu846 N884 2.609 . S
Eu846 O890 2.558 . S
Eu846 O891 2.612 . S
Eu846 O893 2.339 . S
Eu846 O894 2.563 . S
Eu846 O895 2.419 . S
Eu846 O897 2.380 . S
Eu846 O898 2.432 . S
Eu846 C910 2.848 . S
C847 C850 1.429 . S
C847 C851 1.411 . S
C847 N854 1.377 . S
C848 C850 1.420 . S
C848 C852 1.423 . S
C848 C860 1.392 . S
C849 C851 1.420 . S
C849 C852 1.351 . S
C849 H872 0.931 . S
C850 C847 1.429 . S
C850 C848 1.420 . S
C850 N858 1.362 . S
C851 C847 1.411 . S
C851 C849 1.420 . S
C851 C856 1.395 . S
C852 C848 1.423 . S
C852 C849 1.351 . S
C852 H864 0.930 . S
C853 C855 1.400 . S
C853 C856 1.386 . S
C853 H865 0.930 . S
N854 C847 1.377 . S
N854 C855 1.321 . S
N854 Eu857 2.609 . S
C855 C853 1.400 . S
C855 N854 1.321 . S
C855 H862 0.930 . S
C856 C851 1.395 . S
C856 C853 1.386 . S
C856 H875 0.930 . S
Eu857 N854 2.609 . S
Eu857 N858 2.657 . S
Eu857 O891 2.380 . S
Eu857 O892 2.432 . S
Eu857 O896 2.558 . S
Eu857 O897 2.612 . S
Eu857 O899 2.339 . S
Eu857 O900 2.563 . S
Eu857 O901 2.419 . S
Eu857 C921 2.848 . S
N858 C850 1.362 . S
N858 Eu857 2.657 . S
N858 C859 1.334 . S
C859 N858 1.334 . S
C859 C861 1.413 . S
C859 H866 0.929 . S
C860 C848 1.392 . S
C860 C861 1.367 . S
C860 H868 0.930 . S
C861 C859 1.413 . S
C861 C860 1.367 . S
C861 H863 0.930 . S
H862 C855 0.930 . S
H863 C861 0.930 . S
H864 C852 0.930 . S
H865 C853 0.930 . S
H866 C859 0.929 . S
H867 C881 0.930 . S
H868 C860 0.930 . S
H869 C887 0.930 . S
H870 C878 0.929 . S
H871 C885 0.930 . S
H872 C849 0.931 . S
H873 C879 0.930 . S
H874 C912 0.930 . S
H875 C856 0.930 . S
H876 C911 0.931 . S
N877 Eu846 2.657 . S
N877 C878 1.334 . S
N877 C882 1.362 . S
C878 H870 0.929 . S
C878 N877 1.334 . S
C878 C881 1.413 . S
C879 H873 0.930 . S
C879 C880 1.392 . S
C879 C881 1.367 . S
C880 C879 1.392 . S
C880 C882 1.420 . S
C880 C912 1.423 . S
C881 H867 0.930 . S
C881 C878 1.413 . S
C881 C879 1.367 . S
C882 N877 1.362 . S
C882 C880 1.420 . S
C882 C886 1.429 . S
H883 C888 0.930 . S
N884 Eu846 2.609 . S
N884 C886 1.377 . S
N884 C887 1.321 . S
C885 H871 0.930 . S
C885 C887 1.400 . S
C885 C888 1.386 . S
C886 C882 1.429 . S
C886 N884 1.377 . S
C886 C889 1.411 . S
C887 H869 0.930 . S
C887 N884 1.321 . S
C887 C885 1.400 . S
C888 H883 0.930 . S
C888 C885 1.386 . S
C888 C889 1.395 . S
C889 C886 1.411 . S
C889 C888 1.395 . S
C889 C911 1.420 . S
O890 Eu846 2.558 . S
O890 C910 1.257 . S
O891 Eu846 2.612 . S
O891 Eu857 2.380 . S
O891 C902 1.276 . S
O892 Eu857 2.432 . S
O892 C909 1.264 . S
O893 Eu846 2.339 . S
O893 C909 1.254 . S
O894 Eu846 2.563 . S
O894 C902 1.235 . S
O895 Eu846 2.419 . S
O895 C910 1.249 . S
O896 Eu857 2.558 . S
O896 C921 1.257 . S
O897 Eu846 2.380 . S
O897 Eu857 2.612 . S
O897 C913 1.276 . S
O898 Eu846 2.432 . S
O898 C920 1.264 . S
O899 Eu857 2.339 . S
O899 C920 1.254 . S
O900 Eu857 2.563 . S
O900 C913 1.235 . S
O901 Eu857 2.419 . S
O901 C921 1.249 . S
C902 O891 1.276 . S
C902 O894 1.235 . S
C903 C905 1.393 . S
C903 C907 1.395 . S
C903 C910 1.492 . S
C904 C905 1.392 . S
C904 C906 1.386 . S
C905 C903 1.393 . S
C905 C904 1.392 . S
C905 H922 0.930 . S
C906 C904 1.386 . S
C906 C908 1.395 . S
C906 H923 0.930 . S
C907 C903 1.395 . S
C907 C908 1.379 . S
C907 H924 0.930 . S
C908 C906 1.395 . S
C908 C907 1.379 . S
C908 H925 0.930 . S
C909 O892 1.264 . S
C909 O893 1.254 . S
C910 Eu846 2.848 . S
C910 O890 1.257 . S
C910 O895 1.249 . S
C910 C903 1.492 . S
C911 H876 0.931 . S
C911 C889 1.420 . S
C911 C912 1.351 . S
C912 H874 0.930 . S
C912 C880 1.423 . S
C912 C911 1.351 . S
C913 O897 1.276 . S
C913 O900 1.235 . S
C914 C915 1.393 . S
C914 C918 1.395 . S
C914 C921 1.492 . S
C915 C914 1.393 . S
C915 C916 1.392 . S
C915 H926 0.930 . S
C916 C915 1.392 . S
C916 C917 1.386 . S
C917 C916 1.386 . S
C917 C919 1.395 . S
C917 H927 0.930 . S
C918 C914 1.395 . S
C918 C919 1.379 . S
C918 H928 0.930 . S
C919 C917 1.395 . S
C919 C918 1.379 . S
C919 H929 0.930 . S
C920 O898 1.264 . S
C920 O899 1.254 . S
C921 Eu857 2.848 . S
C921 O896 1.257 . S
C921 O901 1.249 . S
C921 C914 1.492 . S
H922 C905 0.930 . S
H923 C906 0.930 . S
H924 C907 0.930 . S
H925 C908 0.930 . S
H926 C915 0.930 . S
H927 C917 0.930 . S
H928 C918 0.930 . S
H929 C919 0.930 . S
Eu930 N961 2.657 . S
Eu930 N968 2.609 . S
Eu930 O974 2.558 . S
Eu930 O975 2.612 . S
Eu930 O977 2.339 . S
Eu930 O978 2.563 . S
Eu930 O979 2.419 . S
Eu930 O981 2.380 . S
Eu930 O982 2.432 . S
Eu930 C994 2.848 . S
C931 C934 1.429 . S
C931 C935 1.411 . S
C931 N938 1.377 . S
C932 C934 1.420 . S
C932 C936 1.423 . S
C932 C944 1.392 . S
C933 C935 1.420 . S
C933 C936 1.351 . S
C933 H956 0.931 . S
C934 C931 1.429 . S
C934 C932 1.420 . S
C934 N942 1.362 . S
C935 C931 1.411 . S
C935 C933 1.420 . S
C935 C940 1.395 . S
C936 C932 1.423 . S
C936 C933 1.351 . S
C936 H948 0.930 . S
C937 C939 1.400 . S
C937 C940 1.386 . S
C937 H949 0.930 . S
N938 C931 1.377 . S
N938 C939 1.321 . S
N938 Eu941 2.609 . S
C939 C937 1.400 . S
C939 N938 1.321 . S
C939 H946 0.930 . S
C940 C935 1.395 . S
C940 C937 1.386 . S
C940 H959 0.930 . S
Eu941 N938 2.609 . S
Eu941 N942 2.657 . S
Eu941 O975 2.380 . S
Eu941 O976 2.432 . S
Eu941 O980 2.558 . S
Eu941 O981 2.612 . S
Eu941 O983 2.339 . S
Eu941 O984 2.563 . S
Eu941 O985 2.419 . S
Eu941 C1005 2.848 . S
N942 C934 1.362 . S
N942 Eu941 2.657 . S
N942 C943 1.334 . S
C943 N942 1.334 . S
C943 C945 1.413 . S
C943 H950 0.929 . S
C944 C932 1.392 . S
C944 C945 1.367 . S
C944 H952 0.930 . S
C945 C943 1.413 . S
C945 C944 1.367 . S
C945 H947 0.930 . S
H946 C939 0.930 . S
H947 C945 0.930 . S
H948 C936 0.930 . S
H949 C937 0.930 . S
H950 C943 0.929 . S
H951 C965 0.930 . S
H952 C944 0.930 . S
H953 C971 0.930 . S
H954 C962 0.929 . S
H955 C969 0.930 . S
H956 C933 0.931 . S
H957 C963 0.930 . S
H958 C996 0.930 . S
H959 C940 0.930 . S
H960 C995 0.931 . S
N961 Eu930 2.657 . S
N961 C962 1.334 . S
N961 C966 1.362 . S
C962 H954 0.929 . S
C962 N961 1.334 . S
C962 C965 1.413 . S
C963 H957 0.930 . S
C963 C964 1.392 . S
C963 C965 1.367 . S
C964 C963 1.392 . S
C964 C966 1.420 . S
C964 C996 1.423 . S
C965 H951 0.930 . S
C965 C962 1.413 . S
C965 C963 1.367 . S
C966 N961 1.362 . S
C966 C964 1.420 . S
C966 C970 1.429 . S
H967 C972 0.930 . S
N968 Eu930 2.609 . S
N968 C970 1.377 . S
N968 C971 1.321 . S
C969 H955 0.930 . S
C969 C971 1.400 . S
C969 C972 1.386 . S
C970 C966 1.429 . S
C970 N968 1.377 . S
C970 C973 1.411 . S
C971 H953 0.930 . S
C971 N968 1.321 . S
C971 C969 1.400 . S
C972 H967 0.930 . S
C972 C969 1.386 . S
C972 C973 1.395 . S
C973 C970 1.411 . S
C973 C972 1.395 . S
C973 C995 1.420 . S
O974 Eu930 2.558 . S
O974 C994 1.257 . S
O975 Eu930 2.612 . S
O975 Eu941 2.380 . S
O975 C986 1.276 . S
O976 Eu941 2.432 . S
O976 C993 1.264 . S
O977 Eu930 2.339 . S
O977 C993 1.254 . S
O978 Eu930 2.563 . S
O978 C986 1.235 . S
O979 Eu930 2.419 . S
O979 C994 1.249 . S
O980 Eu941 2.558 . S
O980 C1005 1.257 . S
O981 Eu930 2.380 . S
O981 Eu941 2.612 . S
O981 C997 1.276 . S
O982 Eu930 2.432 . S
O982 C1004 1.264 . S
O983 Eu941 2.339 . S
O983 C1004 1.254 . S
O984 Eu941 2.563 . S
O984 C997 1.235 . S
O985 Eu941 2.419 . S
O985 C1005 1.249 . S
C986 O975 1.276 . S
C986 O978 1.235 . S
C987 C989 1.393 . S
C987 C991 1.395 . S
C987 C994 1.492 . S
C988 C989 1.392 . S
C988 C990 1.386 . S
C989 C987 1.393 . S
C989 C988 1.392 . S
C989 H1006 0.930 . S
C990 C988 1.386 . S
C990 C992 1.395 . S
C990 H1007 0.930 . S
C991 C987 1.395 . S
C991 C992 1.379 . S
C991 H1008 0.930 . S
C992 C990 1.395 . S
C992 C991 1.379 . S
C992 H1009 0.930 . S
C993 O976 1.264 . S
C993 O977 1.254 . S
C994 Eu930 2.848 . S
C994 O974 1.257 . S
C994 O979 1.249 . S
C994 C987 1.492 . S
C995 H960 0.931 . S
C995 C973 1.420 . S
C995 C996 1.351 . S
C996 H958 0.930 . S
C996 C964 1.423 . S
C996 C995 1.351 . S
C997 O981 1.276 . S
C997 O984 1.235 . S
C998 C999 1.393 . S
C998 C1002 1.395 . S
C998 C1005 1.492 . S
C999 C998 1.393 . S
C999 C1000 1.392 . S
C999 H1010 0.930 . S
C1000 C999 1.392 . S
C1000 C1001 1.386 . S
C1001 C1000 1.386 . S
C1001 C1003 1.395 . S
C1001 H1011 0.930 . S
C1002 C998 1.395 . S
C1002 C1003 1.379 . S
C1002 H1012 0.930 . S
C1003 C1001 1.395 . S
C1003 C1002 1.379 . S
C1003 H1013 0.930 . S
C1004 O982 1.264 . S
C1004 O983 1.254 . S
C1005 Eu941 2.848 . S
C1005 O980 1.257 . S
C1005 O985 1.249 . S
C1005 C998 1.492 . S
H1006 C989 0.930 . S
H1007 C990 0.930 . S
H1008 C991 0.930 . S
H1009 C992 0.930 . S
H1010 C999 0.930 . S
H1011 C1001 0.930 . S
H1012 C1002 0.930 . S
H1013 C1003 0.930 . S
Eu1014 N1045 2.657 . S
Eu1014 N1052 2.609 . S
Eu1014 O1058 2.558 . S
Eu1014 O1059 2.612 . S
Eu1014 O1061 2.339 . S
Eu1014 O1062 2.563 . S
Eu1014 O1063 2.419 . S
Eu1014 O1065 2.380 . S
Eu1014 O1066 2.432 . S
Eu1014 C1078 2.848 . S
C1015 C1018 1.429 . S
C1015 C1019 1.411 . S
C1015 N1022 1.377 . S
C1016 C1018 1.420 . S
C1016 C1020 1.423 . S
C1016 C1028 1.392 . S
C1017 C1019 1.420 . S
C1017 C1020 1.351 . S
C1017 H1040 0.931 . S
C1018 C1015 1.429 . S
C1018 C1016 1.420 . S
C1018 N1026 1.362 . S
C1019 C1015 1.411 . S
C1019 C1017 1.420 . S
C1019 C1024 1.395 . S
C1020 C1016 1.423 . S
C1020 C1017 1.351 . S
C1020 H1032 0.930 . S
C1021 C1023 1.400 . S
C1021 C1024 1.386 . S
C1021 H1033 0.930 . S
N1022 C1015 1.377 . S
N1022 C1023 1.321 . S
N1022 Eu1025 2.609 . S
C1023 C1021 1.400 . S
C1023 N1022 1.321 . S
C1023 H1030 0.930 . S
C1024 C1019 1.395 . S
C1024 C1021 1.386 . S
C1024 H1043 0.930 . S
Eu1025 N1022 2.609 . S
Eu1025 N1026 2.657 . S
Eu1025 O1059 2.380 . S
Eu1025 O1060 2.432 . S
Eu1025 O1064 2.558 . S
Eu1025 O1065 2.612 . S
Eu1025 O1067 2.339 . S
Eu1025 O1068 2.563 . S
Eu1025 O1069 2.419 . S
Eu1025 C1089 2.848 . S
N1026 C1018 1.362 . S
N1026 Eu1025 2.657 . S
N1026 C1027 1.334 . S
C1027 N1026 1.334 . S
C1027 C1029 1.413 . S
C1027 H1034 0.929 . S
C1028 C1016 1.392 . S
C1028 C1029 1.367 . S
C1028 H1036 0.930 . S
C1029 C1027 1.413 . S
C1029 C1028 1.367 . S
C1029 H1031 0.930 . S
H1030 C1023 0.930 . S
H1031 C1029 0.930 . S
H1032 C1020 0.930 . S
H1033 C1021 0.930 . S
H1034 C1027 0.929 . S
H1035 C1049 0.930 . S
H1036 C1028 0.930 . S
H1037 C1055 0.930 . S
H1038 C1046 0.929 . S
H1039 C1053 0.930 . S
H1040 C1017 0.931 . S
H1041 C1047 0.930 . S
H1042 C1080 0.930 . S
H1043 C1024 0.930 . S
H1044 C1079 0.931 . S
N1045 Eu1014 2.657 . S
N1045 C1046 1.334 . S
N1045 C1050 1.362 . S
C1046 H1038 0.929 . S
C1046 N1045 1.334 . S
C1046 C1049 1.413 . S
C1047 H1041 0.930 . S
C1047 C1048 1.392 . S
C1047 C1049 1.367 . S
C1048 C1047 1.392 . S
C1048 C1050 1.420 . S
C1048 C1080 1.423 . S
C1049 H1035 0.930 . S
C1049 C1046 1.413 . S
C1049 C1047 1.367 . S
C1050 N1045 1.362 . S
C1050 C1048 1.420 . S
C1050 C1054 1.429 . S
H1051 C1056 0.930 . S
N1052 Eu1014 2.609 . S
N1052 C1054 1.377 . S
N1052 C1055 1.321 . S
C1053 H1039 0.930 . S
C1053 C1055 1.400 . S
C1053 C1056 1.386 . S
C1054 C1050 1.429 . S
C1054 N1052 1.377 . S
C1054 C1057 1.411 . S
C1055 H1037 0.930 . S
C1055 N1052 1.321 . S
C1055 C1053 1.400 . S
C1056 H1051 0.930 . S
C1056 C1053 1.386 . S
C1056 C1057 1.395 . S
C1057 C1054 1.411 . S
C1057 C1056 1.395 . S
C1057 C1079 1.420 . S
O1058 Eu1014 2.558 . S
O1058 C1078 1.257 . S
O1059 Eu1014 2.612 . S
O1059 Eu1025 2.380 . S
O1059 C1070 1.276 . S
O1060 Eu1025 2.432 . S
O1060 C1077 1.264 . S
O1061 Eu1014 2.339 . S
O1061 C1077 1.254 . S
O1062 Eu1014 2.563 . S
O1062 C1070 1.235 . S
O1063 Eu1014 2.419 . S
O1063 C1078 1.249 . S
O1064 Eu1025 2.558 . S
O1064 C1089 1.257 . S
O1065 Eu1014 2.380 . S
O1065 Eu1025 2.612 . S
O1065 C1081 1.276 . S
O1066 Eu1014 2.432 . S
O1066 C1088 1.264 . S
O1067 Eu1025 2.339 . S
O1067 C1088 1.254 . S
O1068 Eu1025 2.563 . S
O1068 C1081 1.235 . S
O1069 Eu1025 2.419 . S
O1069 C1089 1.249 . S
C1070 O1059 1.276 . S
C1070 O1062 1.235 . S
C1071 C1073 1.393 . S
C1071 C1075 1.395 . S
C1071 C1078 1.492 . S
C1072 C1073 1.392 . S
C1072 C1074 1.386 . S
C1073 C1071 1.393 . S
C1073 C1072 1.392 . S
C1073 H1090 0.930 . S
C1074 C1072 1.386 . S
C1074 C1076 1.395 . S
C1074 H1091 0.930 . S
C1075 C1071 1.395 . S
C1075 C1076 1.379 . S
C1075 H1092 0.930 . S
C1076 C1074 1.395 . S
C1076 C1075 1.379 . S
C1076 H1093 0.930 . S
C1077 O1060 1.264 . S
C1077 O1061 1.254 . S
C1078 Eu1014 2.848 . S
C1078 O1058 1.257 . S
C1078 O1063 1.249 . S
C1078 C1071 1.492 . S
C1079 H1044 0.931 . S
C1079 C1057 1.420 . S
C1079 C1080 1.351 . S
C1080 H1042 0.930 . S
C1080 C1048 1.423 . S
C1080 C1079 1.351 . S
C1081 O1065 1.276 . S
C1081 O1068 1.235 . S
C1082 C1083 1.393 . S
C1082 C1086 1.395 . S
C1082 C1089 1.492 . S
C1083 C1082 1.393 . S
C1083 C1084 1.392 . S
C1083 H1094 0.930 . S
C1084 C1083 1.392 . S
C1084 C1085 1.386 . S
C1085 C1084 1.386 . S
C1085 C1087 1.395 . S
C1085 H1095 0.930 . S
C1086 C1082 1.395 . S
C1086 C1087 1.379 . S
C1086 H1096 0.930 . S
C1087 C1085 1.395 . S
C1087 C1086 1.379 . S
C1087 H1097 0.930 . S
C1088 O1066 1.264 . S
C1088 O1067 1.254 . S
C1089 Eu1025 2.848 . S
C1089 O1064 1.257 . S
C1089 O1069 1.249 . S
C1089 C1082 1.492 . S
H1090 C1073 0.930 . S
H1091 C1074 0.930 . S
H1092 C1075 0.930 . S
H1093 C1076 0.930 . S
H1094 C1083 0.930 . S
H1095 C1085 0.930 . S
H1096 C1086 0.930 . S
H1097 C1087 0.930 . S
C1098 C1099 1.349 . S
C1098 C1100 1.327 . S
C1098 H1123 0.950 . S
C1099 C1098 1.349 . S
C1099 C1115 1.349 . S
C1100 C1098 1.327 . S
C1100 C1119 1.429 . S
C1100 H1124 0.950 . S
C1101 C1118 1.574 . S
C1101 C1120 1.368 . S
C1101 H1125 0.949 . S
H1102 C1106 0.949 . S
C1103 C1104 1.349 . S
C1103 C1105 1.327 . S
C1103 H1126 0.950 1_554 S
C1104 C1103 1.349 . S
C1104 C1116 1.349 . S
C1105 C1103 1.327 . S
C1105 C1121 1.429 . S
C1105 H1127 0.950 . S
C1106 H1102 0.949 . S
C1106 C1114 1.574 . S
C1106 C1122 1.368 . S
H1107 C1115 0.950 . S
H1108 C1113 0.950 . S
H1109 C1114 0.949 . S
H1110 C1116 0.950 . S
H1111 C1117 0.950 . S
H1112 C1118 0.949 . S
C1113 H1108 0.950 . S
C1113 C1115 1.327 . S
C1113 C1119 1.429 . S
C1114 C1106 1.574 . S
C1114 H1109 0.949 . S
C1114 C1120 1.368 . S
C1115 C1099 1.349 . S
C1115 H1107 0.950 . S
C1115 C1113 1.327 . S
C1116 C1104 1.349 . S
C1116 H1110 0.950 . S
C1116 C1117 1.327 . S
C1117 H1111 0.950 . S
C1117 C1116 1.327 . S
C1117 C1121 1.429 . S
C1118 C1101 1.574 . S
C1118 H1112 0.949 . S
C1118 C1122 1.368 . S
C1119 C1100 1.429 . S
C1119 C1113 1.429 . S
C1119 C1120 1.523 . S
C1120 C1101 1.368 . S
C1120 C1114 1.368 . S
C1120 C1119 1.523 . S
C1121 C1105 1.429 . S
C1121 C1117 1.429 . S
C1121 C1122 1.523 . S
C1122 C1106 1.368 . S
C1122 C1118 1.368 . S
C1122 C1121 1.523 . S
H1123 C1098 0.950 . S
H1124 C1100 0.950 . S
H1125 C1101 0.949 . S
H1126 C1103 0.950 1_556 S
H1127 C1105 0.950 . S
C1128 C1129 1.349 . S
C1128 C1130 1.327 . S
C1128 H1153 0.950 . S
C1129 C1128 1.349 . S
C1129 C1145 1.349 . S
C1130 C1128 1.327 . S
C1130 C1149 1.429 . S
C1130 H1154 0.950 . S
C1131 C1148 1.574 . S
C1131 C1150 1.368 . S
C1131 H1155 0.949 . S
H1132 C1136 0.949 . S
C1133 C1134 1.349 . S
C1133 C1135 1.327 . S
C1133 H1156 0.950 . S
C1134 C1133 1.349 . S
C1134 C1146 1.349 . S
C1135 C1133 1.327 . S
C1135 C1151 1.429 . S
C1135 H1157 0.950 . S
C1136 H1132 0.949 . S
C1136 C1144 1.574 . S
C1136 C1152 1.368 . S
H1137 C1145 0.950 . S
H1138 C1143 0.950 . S
H1139 C1144 0.949 . S
H1140 C1146 0.950 . S
H1141 C1147 0.950 . S
H1142 C1148 0.949 . S
C1143 H1138 0.950 . S
C1143 C1145 1.327 . S
C1143 C1149 1.429 . S
C1144 C1136 1.574 . S
C1144 H1139 0.949 . S
C1144 C1150 1.368 . S
C1145 C1129 1.349 . S
C1145 H1137 0.950 . S
C1145 C1143 1.327 . S
C1146 C1134 1.349 . S
C1146 H1140 0.950 . S
C1146 C1147 1.327 . S
C1147 H1141 0.950 . S
C1147 C1146 1.327 . S
C1147 C1151 1.429 . S
C1148 C1131 1.574 . S
C1148 H1142 0.949 . S
C1148 C1152 1.368 . S
C1149 C1130 1.429 . S
C1149 C1143 1.429 . S
C1149 C1150 1.523 . S
C1150 C1131 1.368 . S
C1150 C1144 1.368 . S
C1150 C1149 1.523 . S
C1151 C1135 1.429 . S
C1151 C1147 1.429 . S
C1151 C1152 1.523 . S
C1152 C1136 1.368 . S
C1152 C1148 1.368 . S
C1152 C1151 1.523 . S
H1153 C1128 0.950 . S
H1154 C1130 0.950 . S
H1155 C1131 0.949 . S
H1156 C1133 0.950 . S
H1157 C1135 0.950 . S
C1158 C1159 1.349 . S
C1158 C1160 1.327 . S
C1158 H1183 0.950 . S
C1159 C1158 1.349 . S
C1159 C1175 1.349 . S
C1160 C1158 1.327 . S
C1160 C1179 1.429 . S
C1160 H1184 0.950 . S
C1161 C1178 1.574 . S
C1161 C1180 1.368 . S
C1161 H1185 0.949 . S
H1162 C1166 0.949 . S
C1163 C1164 1.349 . S
C1163 C1165 1.327 . S
C1163 H1186 0.950 . S
C1164 C1163 1.349 . S
C1164 C1176 1.349 . S
C1165 C1163 1.327 . S
C1165 C1181 1.429 . S
C1165 H1187 0.950 . S
C1166 H1162 0.949 . S
C1166 C1174 1.574 . S
C1166 C1182 1.368 . S
H1167 C1175 0.950 . S
H1168 C1173 0.950 . S
H1169 C1174 0.949 . S
H1170 C1176 0.950 . S
H1171 C1177 0.950 . S
H1172 C1178 0.949 . S
C1173 H1168 0.950 . S
C1173 C1175 1.327 . S
C1173 C1179 1.429 . S
C1174 C1166 1.574 . S
C1174 H1169 0.949 . S
C1174 C1180 1.368 . S
C1175 C1159 1.349 . S
C1175 H1167 0.950 . S
C1175 C1173 1.327 . S
C1176 C1164 1.349 . S
C1176 H1170 0.950 . S
C1176 C1177 1.327 . S
C1177 H1171 0.950 . S
C1177 C1176 1.327 . S
C1177 C1181 1.429 . S
C1178 C1161 1.574 . S
C1178 H1172 0.949 . S
C1178 C1182 1.368 . S
C1179 C1160 1.429 . S
C1179 C1173 1.429 . S
C1179 C1180 1.523 . S
C1180 C1161 1.368 . S
C1180 C1174 1.368 . S
C1180 C1179 1.523 . S
C1181 C1165 1.429 . S
C1181 C1177 1.429 . S
C1181 C1182 1.523 . S
C1182 C1166 1.368 . S
C1182 C1178 1.368 . S
C1182 C1181 1.523 . S
H1183 C1158 0.950 . S
H1184 C1160 0.950 . S
H1185 C1161 0.949 . S
H1186 C1163 0.950 . S
H1187 C1165 0.950 . S
C1188 C1189 1.349 . S
C1188 C1190 1.327 . S
C1188 H1213 0.950 . S
C1189 C1188 1.349 . S
C1189 C1205 1.349 . S
C1190 C1188 1.327 . S
C1190 C1209 1.429 . S
C1190 H1214 0.950 . S
C1191 C1208 1.574 . S
C1191 C1210 1.368 . S
C1191 H1215 0.946 1_556 S
H1192 C1196 0.949 . S
C1193 C1194 1.349 1_554 S
C1193 C1195 1.327 . S
C1193 H1216 0.950 . S
C1194 C1193 1.349 1_556 S
C1194 C1206 1.349 . S
C1195 C1193 1.327 . S
C1195 C1211 1.429 1_554 S
C1195 H1217 0.950 . S
C1196 H1192 0.949 . S
C1196 C1204 1.574 . S
C1196 C1212 1.368 . S
H1197 C1205 0.950 . S
H1198 C1203 0.950 . S
H1199 C1204 0.949 . S
H1200 C1206 0.950 . S
H1201 C1207 0.950 . S
H1202 C1208 0.949 1_554 S
C1203 H1198 0.950 . S
C1203 C1205 1.327 . S
C1203 C1209 1.429 . S
C1204 C1196 1.574 . S
C1204 H1199 0.949 . S
C1204 C1210 1.368 . S
C1205 C1189 1.349 . S
C1205 H1197 0.950 . S
C1205 C1203 1.327 . S
C1206 C1194 1.349 . S
C1206 H1200 0.950 . S
C1206 C1207 1.327 . S
C1207 H1201 0.950 . S
C1207 C1206 1.327 . S
C1207 C1211 1.429 . S
C1208 C1191 1.574 . S
C1208 H1202 0.949 1_556 S
C1208 C1212 1.368 . S
C1209 C1190 1.429 . S
C1209 C1203 1.429 . S
C1209 C1210 1.523 . S
C1210 C1191 1.368 . S
C1210 C1204 1.368 . S
C1210 C1209 1.523 . S
C1211 C1195 1.429 1_556 S
C1211 C1207 1.429 . S
C1211 C1212 1.523 . S
C1212 C1196 1.368 . S
C1212 C1208 1.368 . S
C1212 C1211 1.523 . S
H1213 C1188 0.950 . S
H1214 C1190 0.950 . S
H1215 C1191 0.946 1_554 S
H1216 C1193 0.950 . S
H1217 C1195 0.950 . S
C1218 C1219 1.349 . S
C1218 C1220 1.327 . S
C1218 H1243 0.950 . S
C1219 C1218 1.349 . S
C1219 C1235 1.349 . S
C1220 C1218 1.327 . S
C1220 C1239 1.429 . S
C1220 H1244 0.950 . S
C1221 C1238 1.574 . S
C1221 C1240 1.368 . S
C1221 H1245 0.949 . S
H1222 C1226 0.949 . S
C1223 C1224 1.317 1_554 S
C1223 C1225 1.327 . S
C1223 H1246 0.950 . S
C1224 C1223 1.317 1_556 S
C1224 C1236 1.399 . S
C1225 C1223 1.327 . S
C1225 C1241 1.429 1_554 S
C1225 H1247 0.950 . S
C1226 H1222 0.949 . S
C1226 C1234 1.574 . S
C1226 C1242 1.368 . S
H1227 C1235 0.950 . S
H1228 C1233 0.950 . S
H1229 C1234 0.949 . S
H1230 C1236 0.950 . S
H1231 C1237 0.950 . S
H1232 C1238 0.949 1_554 S
C1233 H1228 0.950 . S
C1233 C1235 1.327 . S
C1233 C1239 1.429 . S
C1234 C1226 1.574 . S
C1234 H1229 0.949 . S
C1234 C1240 1.368 . S
C1235 C1219 1.349 . S
C1235 H1227 0.950 . S
C1235 C1233 1.327 . S
C1236 C1224 1.399 . S
C1236 H1230 0.950 . S
C1236 C1237 1.327 . S
C1237 H1231 0.950 . S
C1237 C1236 1.327 . S
C1237 C1241 1.429 . S
C1238 C1221 1.574 . S
C1238 H1232 0.949 1_556 S
C1238 C1242 1.368 . S
C1239 C1220 1.429 . S
C1239 C1233 1.429 . S
C1239 C1240 1.523 . S
C1240 C1221 1.368 . S
C1240 C1234 1.368 . S
C1240 C1239 1.523 . S
C1241 C1225 1.429 1_556 S
C1241 C1237 1.429 . S
C1241 C1242 1.523 . S
C1242 C1226 1.368 . S
C1242 C1238 1.368 . S
C1242 C1241 1.523 . S
H1243 C1218 0.950 . S
H1244 C1220 0.950 . S
H1245 C1221 0.949 . S
H1246 C1223 0.950 . S
H1247 C1225 0.950 . S
C1248 C1249 1.349 . S
C1248 C1250 1.327 . S
C1248 H1273 0.950 . S
C1249 C1248 1.349 . S
C1249 C1265 1.349 . S
C1250 C1248 1.327 . S
C1250 C1269 1.429 . S
C1250 H1274 0.975 . S
C1251 C1268 1.574 . S
C1251 C1270 1.368 . S
C1251 H1275 0.949 . S
H1252 C1256 0.949 . S
C1253 C1254 1.358 . S
C1253 C1255 1.327 . S
C1253 H1276 0.950 . S
C1254 C1253 1.358 . S
C1254 C1266 1.342 1_556 S
C1255 C1253 1.327 . S
C1255 C1271 1.429 . S
C1255 H1277 0.950 . S
C1256 H1252 0.949 . S
C1256 C1264 1.574 1_554 S
C1256 C1272 1.368 1_554 S
H1257 C1265 0.950 . S
H1258 C1263 0.950 . S
H1259 C1264 0.949 1_554 S
H1260 C1266 0.950 . S
H1261 C1267 0.950 . S
H1262 C1268 0.949 . S
C1263 H1258 0.950 . S
C1263 C1265 1.327 . S
C1263 C1269 1.429 . S
C1264 C1256 1.574 1_556 S
C1264 H1259 0.949 1_556 S
C1264 C1270 1.368 . S
C1265 C1249 1.349 . S
C1265 H1257 0.950 . S
C1265 C1263 1.327 . S
C1266 C1254 1.342 1_554 S
C1266 H1260 0.950 . S
C1266 C1267 1.327 . S
C1267 H1261 0.950 . S
C1267 C1266 1.327 . S
C1267 C1271 1.429 1_554 S
C1268 C1251 1.574 . S
C1268 H1262 0.949 . S
C1268 C1272 1.368 . S
C1269 C1250 1.429 . S
C1269 C1263 1.429 . S
C1269 C1270 1.523 . S
C1270 C1251 1.368 . S
C1270 C1264 1.368 . S
C1270 C1269 1.523 . S
C1271 C1255 1.429 . S
C1271 C1267 1.429 1_556 S
C1271 C1272 1.523 . S
C1272 C1256 1.368 1_556 S
C1272 C1268 1.368 . S
C1272 C1271 1.523 . S
H1273 C1248 0.950 . S
H1274 C1250 0.975 . S
H1275 C1251 0.949 . S
H1276 C1253 0.950 . S
H1277 C1255 0.950 . S
C1278 C1279 1.349 . S
C1278 C1280 1.327 . S
C1278 H1303 0.950 . S
C1279 C1278 1.349 . S
C1279 C1295 1.349 . S
C1280 C1278 1.327 . S
C1280 C1299 1.429 . S
C1280 H1304 0.950 . S
C1281 C1298 1.574 1_556 S
C1281 C1300 1.368 . S
C1281 H1305 0.949 1_556 S
H1282 C1286 0.949 . S
C1283 C1284 1.349 1_554 S
C1283 C1285 1.327 . S
C1283 H1306 0.950 . S
C1284 C1283 1.349 1_556 S
C1284 C1296 1.349 . S
C1285 C1283 1.327 . S
C1285 C1301 1.429 1_554 S
C1285 H1307 0.950 . S
C1286 H1282 0.949 . S
C1286 C1294 1.574 . S
C1286 C1302 1.368 . S
H1287 C1295 0.950 . S
H1288 C1293 0.922 1_554 S
H1289 C1294 0.949 . S
H1290 C1296 0.950 . S
H1291 C1297 0.950 . S
H1292 C1298 0.949 . S
C1293 H1288 0.922 1_556 S
C1293 C1295 1.327 . S
C1293 C1299 1.429 . S
C1294 C1286 1.574 . S
C1294 H1289 0.949 . S
C1294 C1300 1.368 . S
C1295 C1279 1.349 . S
C1295 H1287 0.950 . S
C1295 C1293 1.327 . S
C1296 C1284 1.349 . S
C1296 H1290 0.950 . S
C1296 C1297 1.327 . S
C1297 H1291 0.950 . S
C1297 C1296 1.327 . S
C1297 C1301 1.429 . S
C1298 C1281 1.574 1_554 S
C1298 H1292 0.949 . S
C1298 C1302 1.368 1_554 S
C1299 C1280 1.429 . S
C1299 C1293 1.429 . S
C1299 C1300 1.523 . S
C1300 C1281 1.368 . S
C1300 C1294 1.368 . S
C1300 C1299 1.523 . S
C1301 C1285 1.429 1_556 S
C1301 C1297 1.429 . S
C1301 C1302 1.523 . S
C1302 C1286 1.368 . S
C1302 C1298 1.368 1_556 S
C1302 C1301 1.523 . S
H1303 C1278 0.950 . S
H1304 C1280 0.950 . S
H1305 C1281 0.949 1_554 S
H1306 C1283 0.950 . S
H1307 C1285 0.950 . S
C1308 C1309 1.349 . S
C1308 C1310 1.327 . S
C1308 H1333 0.950 . S
C1309 C1308 1.349 . S
C1309 C1325 1.349 . S
C1310 C1308 1.327 . S
C1310 C1329 1.429 . S
C1310 H1334 0.950 . S
C1311 C1328 1.570 1_556 S
C1311 C1330 1.368 . S
C1311 H1335 0.949 1_556 S
H1312 C1316 0.949 . S
C1313 C1314 1.349 1_554 S
C1313 C1315 1.327 . S
C1313 H1336 0.950 . S
C1314 C1313 1.349 1_556 S
C1314 C1326 1.349 . S
C1315 C1313 1.327 . S
C1315 C1331 1.429 1_554 S
C1315 H1337 0.950 . S
C1316 H1312 0.949 . S
C1316 C1324 1.574 . S
C1316 C1332 1.368 . S
H1317 C1325 0.950 . S
H1318 C1323 0.954 1_554 S
H1319 C1324 0.949 . S
H1320 C1326 0.950 . S
H1321 C1327 0.950 . S
H1322 C1328 0.968 . S
C1323 H1318 0.954 1_556 S
C1323 C1325 1.327 . S
C1323 C1329 1.429 . S
C1324 C1316 1.574 . S
C1324 H1319 0.949 . S
C1324 C1330 1.368 . S
C1325 C1309 1.349 . S
C1325 H1317 0.950 . S
C1325 C1323 1.327 . S
C1326 C1314 1.349 . S
C1326 H1320 0.950 . S
C1326 C1327 1.327 . S
C1327 H1321 0.950 . S
C1327 C1326 1.327 . S
C1327 C1331 1.429 . S
C1328 C1311 1.570 1_554 S
C1328 H1322 0.968 . S
C1328 C1332 1.352 1_554 S
C1329 C1310 1.429 . S
C1329 C1323 1.429 . S
C1329 C1330 1.523 . S
C1330 C1311 1.368 . S
C1330 C1324 1.368 . S
C1330 C1329 1.523 . S
C1331 C1315 1.429 1_556 S
C1331 C1327 1.429 . S
C1331 C1332 1.523 . S
C1332 C1316 1.368 . S
C1332 C1328 1.352 1_556 S
C1332 C1331 1.523 . S
H1333 C1308 0.950 . S
H1334 C1310 0.950 . S
H1335 C1311 0.949 1_554 S
H1336 C1313 0.950 . S
H1337 C1315 0.950 . S
C1338 C1339 1.349 . S
C1338 C1340 1.327 . S
C1338 H1363 0.950 . S
C1339 C1338 1.349 . S
C1339 C1355 1.349 . S
C1340 C1338 1.327 . S
C1340 C1359 1.429 . S
C1340 H1364 0.950 . S
C1341 C1358 1.574 1_556 S
C1341 C1360 1.368 . S
C1341 H1365 0.949 1_556 S
H1342 C1346 0.949 . S
C1343 C1344 1.349 . S
C1343 C1345 1.327 . S
C1343 H1366 0.950 . S
C1344 C1343 1.349 . S
C1344 C1356 1.349 1_554 S
C1345 C1343 1.327 . S
C1345 C1361 1.429 1_554 S
C1345 H1367 0.950 . S
C1346 H1342 0.949 . S
C1346 C1354 1.574 . S
C1346 C1362 1.368 . S
H1347 C1355 0.950 . S
H1348 C1353 0.945 . S
H1349 C1354 0.949 . S
H1350 C1356 0.950 . S
H1351 C1357 0.950 . S
H1352 C1358 0.949 . S
C1353 H1348 0.945 . S
C1353 C1355 1.327 . S
C1353 C1359 1.429 . S
C1354 C1346 1.574 . S
C1354 H1349 0.949 . S
C1354 C1360 1.368 . S
C1355 C1339 1.349 . S
C1355 H1347 0.950 . S
C1355 C1353 1.327 . S
C1356 C1344 1.349 1_556 S
C1356 H1350 0.950 . S
C1356 C1357 1.327 . S
C1357 H1351 0.950 . S
C1357 C1356 1.327 . S
C1357 C1361 1.429 . S
C1358 C1341 1.574 1_554 S
C1358 H1352 0.949 . S
C1358 C1362 1.368 1_554 S
C1359 C1340 1.429 . S
C1359 C1353 1.429 . S
C1359 C1360 1.523 . S
C1360 C1341 1.368 . S
C1360 C1354 1.368 . S
C1360 C1359 1.523 . S
C1361 C1345 1.429 1_556 S
C1361 C1357 1.429 . S
C1361 C1362 1.523 . S
C1362 C1346 1.368 . S
C1362 C1358 1.368 1_556 S
C1362 C1361 1.523 . S
H1363 C1338 0.950 . S
H1364 C1340 0.950 . S
H1365 C1341 0.949 1_554 S
H1366 C1343 0.950 . S
H1367 C1345 0.950 . S
C1368 C1369 1.349 . S
C1368 C1370 1.327 . S
C1368 H1393 0.950 . S
C1369 C1368 1.349 . S
C1369 C1385 1.349 . S
C1370 C1368 1.327 . S
C1370 C1389 1.429 . S
C1370 H1394 0.950 . S
C1371 C1388 1.574 . S
C1371 C1390 1.368 . S
C1371 H1395 0.949 . S
H1372 C1376 0.949 . S
C1373 C1374 1.349 . S
C1373 C1375 1.327 . S
C1373 H1396 0.950 . S
C1374 C1373 1.349 . S
C1374 C1386 1.349 . S
C1375 C1373 1.327 . S
C1375 C1391 1.429 . S
C1375 H1397 0.950 . S
C1376 H1372 0.949 . S
C1376 C1384 1.574 . S
C1376 C1392 1.368 . S
H1377 C1385 0.950 . S
H1378 C1383 0.950 . S
H1379 C1384 0.949 . S
H1380 C1386 0.950 . S
H1381 C1387 0.950 . S
H1382 C1388 0.949 . S
C1383 H1378 0.950 . S
C1383 C1385 1.327 . S
C1383 C1389 1.429 . S
C1384 C1376 1.574 . S
C1384 H1379 0.949 . S
C1384 C1390 1.368 . S
C1385 C1369 1.349 . S
C1385 H1377 0.950 . S
C1385 C1383 1.327 . S
C1386 C1374 1.349 . S
C1386 H1380 0.950 . S
C1386 C1387 1.327 . S
C1387 H1381 0.950 . S
C1387 C1386 1.327 . S
C1387 C1391 1.429 . S
C1388 C1371 1.574 . S
C1388 H1382 0.949 . S
C1388 C1392 1.368 . S
C1389 C1370 1.429 . S
C1389 C1383 1.429 . S
C1389 C1390 1.523 . S
C1390 C1371 1.368 . S
C1390 C1384 1.368 . S
C1390 C1389 1.523 . S
C1391 C1375 1.429 . S
C1391 C1387 1.429 . S
C1391 C1392 1.523 . S
C1392 C1376 1.368 . S
C1392 C1388 1.368 . S
C1392 C1391 1.523 . S
H1393 C1368 0.950 . S
H1394 C1370 0.950 . S
H1395 C1371 0.949 . S
H1396 C1373 0.950 . S
H1397 C1375 0.950 . S
C1398 C1399 1.349 . S
C1398 C1400 1.327 . S
C1398 H1423 0.950 . S
C1399 C1398 1.349 . S
C1399 C1415 1.349 . S
C1400 C1398 1.327 . S
C1400 C1419 1.429 . S
C1400 H1424 0.950 . S
C1401 C1418 1.574 . S
C1401 C1420 1.368 . S
C1401 H1425 0.949 . S
H1402 C1406 0.949 . S
C1403 C1404 1.349 . S
C1403 C1405 1.327 . S
C1403 H1426 0.950 1_554 S
C1404 C1403 1.349 . S
C1404 C1416 1.349 . S
C1405 C1403 1.327 . S
C1405 C1421 1.429 . S
C1405 H1427 0.950 . S
C1406 H1402 0.949 . S
C1406 C1414 1.574 . S
C1406 C1422 1.368 . S
H1407 C1415 0.950 . S
H1408 C1413 0.950 . S
H1409 C1414 0.949 . S
H1410 C1416 0.950 . S
H1411 C1417 0.950 . S
H1412 C1418 0.949 . S
C1413 H1408 0.950 . S
C1413 C1415 1.327 . S
C1413 C1419 1.429 . S
C1414 C1406 1.574 . S
C1414 H1409 0.949 . S
C1414 C1420 1.368 . S
C1415 C1399 1.349 . S
C1415 H1407 0.950 . S
C1415 C1413 1.327 . S
C1416 C1404 1.349 . S
C1416 H1410 0.950 . S
C1416 C1417 1.327 . S
C1417 H1411 0.950 . S
C1417 C1416 1.327 . S
C1417 C1421 1.429 . S
C1418 C1401 1.574 . S
C1418 H1412 0.949 . S
C1418 C1422 1.368 . S
C1419 C1400 1.429 . S
C1419 C1413 1.429 . S
C1419 C1420 1.523 . S
C1420 C1401 1.368 . S
C1420 C1414 1.368 . S
C1420 C1419 1.523 . S
C1421 C1405 1.429 . S
C1421 C1417 1.429 . S
C1421 C1422 1.523 . S
C1422 C1406 1.368 . S
C1422 C1418 1.368 . S
C1422 C1421 1.523 . S
H1423 C1398 0.950 . S
H1424 C1400 0.950 . S
H1425 C1401 0.949 . S
H1426 C1403 0.950 1_556 S
H1427 C1405 0.950 . S
C1428 C1429 1.349 . S
C1428 C1430 1.327 . S
C1428 H1453 0.950 . S
C1429 C1428 1.349 . S
C1429 C1445 1.349 . S
C1430 C1428 1.327 . S
C1430 C1449 1.429 . S
C1430 H1454 0.950 . S
C1431 C1448 1.574 . S
C1431 C1450 1.368 . S
C1431 H1455 0.949 . S
H1432 C1436 0.949 . S
C1433 C1434 1.349 . S
C1433 C1435 1.327 . S
C1433 H1456 0.950 . S
C1434 C1433 1.349 . S
C1434 C1446 1.349 . S
C1435 C1433 1.327 . S
C1435 C1451 1.429 . S
C1435 H1457 0.950 . S
C1436 H1432 0.949 . S
C1436 C1444 1.574 . S
C1436 C1452 1.368 . S
H1437 C1445 0.950 . S
H1438 C1443 0.950 . S
H1439 C1444 0.949 . S
H1440 C1446 0.950 . S
H1441 C1447 0.950 . S
H1442 C1448 0.949 . S
C1443 H1438 0.950 . S
C1443 C1445 1.327 . S
C1443 C1449 1.429 . S
C1444 C1436 1.574 . S
C1444 H1439 0.949 . S
C1444 C1450 1.368 . S
C1445 C1429 1.349 . S
C1445 H1437 0.950 . S
C1445 C1443 1.327 . S
C1446 C1434 1.349 . S
C1446 H1440 0.950 . S
C1446 C1447 1.327 . S
C1447 H1441 0.950 . S
C1447 C1446 1.327 . S
C1447 C1451 1.429 . S
C1448 C1431 1.574 . S
C1448 H1442 0.949 . S
C1448 C1452 1.368 . S
C1449 C1430 1.429 . S
C1449 C1443 1.429 . S
C1449 C1450 1.523 . S
C1450 C1431 1.368 . S
C1450 C1444 1.368 . S
C1450 C1449 1.523 . S
C1451 C1435 1.429 . S
C1451 C1447 1.429 . S
C1451 C1452 1.523 . S
C1452 C1436 1.368 . S
C1452 C1448 1.368 . S
C1452 C1451 1.523 . S
H1453 C1428 0.950 . S
H1454 C1430 0.950 . S
H1455 C1431 0.949 . S
H1456 C1433 0.950 . S
H1457 C1435 0.950 . S
C1458 C1459 1.349 . S
C1458 C1460 1.327 . S
C1458 H1483 0.950 . S
C1459 C1458 1.349 . S
C1459 C1475 1.349 . S
C1460 C1458 1.327 . S
C1460 C1479 1.429 . S
C1460 H1484 0.950 . S
C1461 C1478 1.574 . S
C1461 C1480 1.368 1_455 S
C1461 H1485 0.949 . S
H1462 C1466 0.949 . S
C1463 C1464 1.349 . S
C1463 C1465 1.327 . S
C1463 H1486 0.950 . S
C1464 C1463 1.349 . S
C1464 C1476 1.349 . S
C1465 C1463 1.327 . S
C1465 C1481 1.429 . S
C1465 H1487 0.950 . S
C1466 H1462 0.949 . S
C1466 C1474 1.574 1_455 S
C1466 C1482 1.368 . S
H1467 C1475 0.950 . S
H1468 C1473 0.950 . S
H1469 C1474 0.949 . S
H1470 C1476 0.950 . S
H1471 C1477 0.950 . S
H1472 C1478 0.949 . S
C1473 H1468 0.950 . S
C1473 C1475 1.327 . S
C1473 C1479 1.429 . S
C1474 C1466 1.574 1_655 S
C1474 H1469 0.949 . S
C1474 C1480 1.368 . S
C1475 C1459 1.349 . S
C1475 H1467 0.950 . S
C1475 C1473 1.327 . S
C1476 C1464 1.349 . S
C1476 H1470 0.950 . S
C1476 C1477 1.327 . S
C1477 H1471 0.950 . S
C1477 C1476 1.327 . S
C1477 C1481 1.429 . S
C1478 C1461 1.574 . S
C1478 H1472 0.949 . S
C1478 C1482 1.368 . S
C1479 C1460 1.429 . S
C1479 C1473 1.429 . S
C1479 C1480 1.523 . S
C1480 C1461 1.368 1_655 S
C1480 C1474 1.368 . S
C1480 C1479 1.523 . S
C1481 C1465 1.429 . S
C1481 C1477 1.429 . S
C1481 C1482 1.523 . S
C1482 C1466 1.368 . S
C1482 C1478 1.368 . S
C1482 C1481 1.523 . S
H1483 C1458 0.950 . S
H1484 C1460 0.950 . S
H1485 C1461 0.949 . S
H1486 C1463 0.950 . S
H1487 C1465 0.950 . S
C1488 C1489 1.349 . S
C1488 C1490 1.327 . S
C1488 H1513 0.950 . S
C1489 C1488 1.349 . S
C1489 C1505 1.349 . S
C1490 C1488 1.327 . S
C1490 C1509 1.429 . S
C1490 H1514 0.950 . S
C1491 C1508 1.574 . S
C1491 C1510 1.368 . S
C1491 H1515 0.949 . S
H1492 C1496 0.949 . S
C1493 C1494 1.349 . S
C1493 C1495 1.327 . S
C1493 H1516 0.950 . S
C1494 C1493 1.349 . S
C1494 C1506 1.349 . S
C1495 C1493 1.327 . S
C1495 C1511 1.429 . S
C1495 H1517 0.950 . S
C1496 H1492 0.949 . S
C1496 C1504 1.574 . S
C1496 C1512 1.368 . S
H1497 C1505 0.950 . S
H1498 C1503 0.950 . S
H1499 C1504 0.949 . S
H1500 C1506 0.950 . S
H1501 C1507 0.950 . S
H1502 C1508 0.949 . S
C1503 H1498 0.950 . S
C1503 C1505 1.327 . S
C1503 C1509 1.429 . S
C1504 C1496 1.574 . S
C1504 H1499 0.949 . S
C1504 C1510 1.368 . S
C1505 C1489 1.349 . S
C1505 H1497 0.950 . S
C1505 C1503 1.327 . S
C1506 C1494 1.349 . S
C1506 H1500 0.950 . S
C1506 C1507 1.327 . S
C1507 H1501 0.950 . S
C1507 C1506 1.327 . S
C1507 C1511 1.429 . S
C1508 C1491 1.574 . S
C1508 H1502 0.949 . S
C1508 C1512 1.368 . S
C1509 C1490 1.429 . S
C1509 C1503 1.429 . S
C1509 C1510 1.523 . S
C1510 C1491 1.368 . S
C1510 C1504 1.368 . S
C1510 C1509 1.523 . S
C1511 C1495 1.429 . S
C1511 C1507 1.429 . S
C1511 C1512 1.523 . S
C1512 C1496 1.368 . S
C1512 C1508 1.368 . S
C1512 C1511 1.523 . S
H1513 C1488 0.950 . S
H1514 C1490 0.950 . S
H1515 C1491 0.949 . S
H1516 C1493 0.950 . S
H1517 C1495 0.950 . S
C1518 C1519 1.349 . S
C1518 C1520 1.327 . S
C1518 H1543 0.950 . S
C1519 C1518 1.349 . S
C1519 C1535 1.349 . S
C1520 C1518 1.327 . S
C1520 C1539 1.429 . S
C1520 H1544 0.950 . S
C1521 C1538 1.574 1_545 S
C1521 C1540 1.368 . S
C1521 H1545 0.949 . S
H1522 C1526 0.949 . S
C1523 C1524 1.349 . S
C1523 C1525 1.327 . S
C1523 H1546 0.950 . S
C1524 C1523 1.349 . S
C1524 C1536 1.349 . S
C1525 C1523 1.327 . S
C1525 C1541 1.429 . S
C1525 H1547 0.950 . S
C1526 H1522 0.949 . S
C1526 C1534 1.574 . S
C1526 C1542 1.368 1_545 S
H1527 C1535 0.950 . S
H1528 C1533 0.950 . S
H1529 C1534 0.949 . S
H1530 C1536 0.950 . S
H1531 C1537 0.950 . S
H1532 C1538 0.949 . S
C1533 H1528 0.950 . S
C1533 C1535 1.327 . S
C1533 C1539 1.429 . S
C1534 C1526 1.574 . S
C1534 H1529 0.949 . S
C1534 C1540 1.368 . S
C1535 C1519 1.349 . S
C1535 H1527 0.950 . S
C1535 C1533 1.327 . S
C1536 C1524 1.349 . S
C1536 H1530 0.950 . S
C1536 C1537 1.327 . S
C1537 H1531 0.950 . S
C1537 C1536 1.327 . S
C1537 C1541 1.429 . S
C1538 C1521 1.574 1_565 S
C1538 H1532 0.949 . S
C1538 C1542 1.368 . S
C1539 C1520 1.429 . S
C1539 C1533 1.429 . S
C1539 C1540 1.523 . S
C1540 C1521 1.368 . S
C1540 C1534 1.368 . S
C1540 C1539 1.523 . S
C1541 C1525 1.429 . S
C1541 C1537 1.429 . S
C1541 C1542 1.523 . S
C1542 C1526 1.368 1_565 S
C1542 C1538 1.368 . S
C1542 C1541 1.523 . S
H1543 C1518 0.950 . S
H1544 C1520 0.950 . S
H1545 C1521 0.949 . S
H1546 C1523 0.950 . S
H1547 C1525 0.950 . S
C1548 C1549 1.349 . S
C1548 C1550 1.327 . S
C1548 H1573 0.950 . S
C1549 C1548 1.349 . S
C1549 C1565 1.349 . S
C1550 C1548 1.327 . S
C1550 C1569 1.429 . S
C1550 H1574 0.950 . S
C1551 C1568 1.574 . S
C1551 C1570 1.368 . S
C1551 H1575 0.949 . S
H1552 C1556 0.949 . S
C1553 C1554 1.349 . S
C1553 C1555 1.327 . S
C1553 H1576 0.950 . S
C1554 C1553 1.349 . S
C1554 C1566 1.349 . S
C1555 C1553 1.327 . S
C1555 C1571 1.429 . S
C1555 H1577 0.950 . S
C1556 H1552 0.949 . S
C1556 C1564 1.574 . S
C1556 C1572 1.368 . S
H1557 C1565 0.950 . S
H1558 C1563 0.950 . S
H1559 C1564 0.949 . S
H1560 C1566 0.950 . S
H1561 C1567 0.950 . S
H1562 C1568 0.949 . S
C1563 H1558 0.950 . S
C1563 C1565 1.327 . S
C1563 C1569 1.429 . S
C1564 C1556 1.574 . S
C1564 H1559 0.949 . S
C1564 C1570 1.368 . S
C1565 C1549 1.349 . S
C1565 H1557 0.950 . S
C1565 C1563 1.327 . S
C1566 C1554 1.349 . S
C1566 H1560 0.950 . S
C1566 C1567 1.327 . S
C1567 H1561 0.950 . S
C1567 C1566 1.327 . S
C1567 C1571 1.429 . S
C1568 C1551 1.574 . S
C1568 H1562 0.949 . S
C1568 C1572 1.368 . S
C1569 C1550 1.429 . S
C1569 C1563 1.429 . S
C1569 C1570 1.523 . S
C1570 C1551 1.368 . S
C1570 C1564 1.368 . S
C1570 C1569 1.523 . S
C1571 C1555 1.429 . S
C1571 C1567 1.429 . S
C1571 C1572 1.523 . S
C1572 C1556 1.368 . S
C1572 C1568 1.368 . S
C1572 C1571 1.523 . S
H1573 C1548 0.950 . S
H1574 C1550 0.950 . S
H1575 C1551 0.949 . S
H1576 C1553 0.950 . S
H1577 C1555 0.950 . S
C1578 C1579 1.349 . S
C1578 C1580 1.327 . S
C1578 H1603 0.950 . S
C1579 C1578 1.349 . S
C1579 C1595 1.349 . S
C1580 C1578 1.327 . S
C1580 C1599 1.429 . S
C1580 H1604 0.950 . S
C1581 C1598 1.574 . S
C1581 C1600 1.368 . S
C1581 H1605 0.949 . S
H1582 C1586 0.949 . S
C1583 C1584 1.349 . S
C1583 C1585 1.327 . S
C1583 H1606 0.950 . S
C1584 C1583 1.349 . S
C1584 C1596 1.349 . S
C1585 C1583 1.327 . S
C1585 C1601 1.429 . S
C1585 H1607 0.950 . S
C1586 H1582 0.949 . S
C1586 C1594 1.574 . S
C1586 C1602 1.368 . S
H1587 C1595 0.950 . S
H1588 C1593 0.950 . S
H1589 C1594 0.949 . S
H1590 C1596 0.950 . S
H1591 C1597 0.950 . S
H1592 C1598 0.949 . S
C1593 H1588 0.950 . S
C1593 C1595 1.327 . S
C1593 C1599 1.429 . S
C1594 C1586 1.574 . S
C1594 H1589 0.949 . S
C1594 C1600 1.368 . S
C1595 C1579 1.349 . S
C1595 H1587 0.950 . S
C1595 C1593 1.327 . S
C1596 C1584 1.349 . S
C1596 H1590 0.950 . S
C1596 C1597 1.327 . S
C1597 H1591 0.950 . S
C1597 C1596 1.327 . S
C1597 C1601 1.429 . S
C1598 C1581 1.574 . S
C1598 H1592 0.949 . S
C1598 C1602 1.368 . S
C1599 C1580 1.429 . S
C1599 C1593 1.429 . S
C1599 C1600 1.523 . S
C1600 C1581 1.368 . S
C1600 C1594 1.368 . S
C1600 C1599 1.523 . S
C1601 C1585 1.429 . S
C1601 C1597 1.429 . S
C1601 C1602 1.523 . S
C1602 C1586 1.368 . S
C1602 C1598 1.368 . S
C1602 C1601 1.523 . S
H1603 C1578 0.950 . S
H1604 C1580 0.950 . S
H1605 C1581 0.949 . S
H1606 C1583 0.950 . S
H1607 C1585 0.950 . S
C1608 C1609 1.349 . S
C1608 C1610 1.327 . S
C1608 H1633 0.950 . S
C1609 C1608 1.349 . S
C1609 C1625 1.349 . S
C1610 C1608 1.327 . S
C1610 C1629 1.429 . S
C1610 H1634 0.950 . S
C1611 C1628 1.574 . S
C1611 C1630 1.368 . S
C1611 H1635 0.949 . S
H1612 C1616 0.949 . S
C1613 C1614 1.349 . S
C1613 C1615 1.327 . S
C1613 H1636 0.950 . S
C1614 C1613 1.349 . S
C1614 C1626 1.349 . S
C1615 C1613 1.327 . S
C1615 C1631 1.429 . S
C1615 H1637 0.950 . S
C1616 H1612 0.949 . S
C1616 C1624 1.574 . S
C1616 C1632 1.368 . S
H1617 C1625 0.950 . S
H1618 C1623 0.950 . S
H1619 C1624 0.949 . S
H1620 C1626 0.950 . S
H1621 C1627 0.950 . S
H1622 C1628 0.949 . S
C1623 H1618 0.950 . S
C1623 C1625 1.327 . S
C1623 C1629 1.429 . S
C1624 C1616 1.574 . S
C1624 H1619 0.949 . S
C1624 C1630 1.368 . S
C1625 C1609 1.349 . S
C1625 H1617 0.950 . S
C1625 C1623 1.327 . S
C1626 C1614 1.349 . S
C1626 H1620 0.950 . S
C1626 C1627 1.327 . S
C1627 H1621 0.950 . S
C1627 C1626 1.327 . S
C1627 C1631 1.429 . S
C1628 C1611 1.574 . S
C1628 H1622 0.949 . S
C1628 C1632 1.368 . S
C1629 C1610 1.429 . S
C1629 C1623 1.429 . S
C1629 C1630 1.523 . S
C1630 C1611 1.368 . S
C1630 C1624 1.368 . S
C1630 C1629 1.523 . S
C1631 C1615 1.429 . S
C1631 C1627 1.429 . S
C1631 C1632 1.523 . S
C1632 C1616 1.368 . S
C1632 C1628 1.368 . S
C1632 C1631 1.523 . S
H1633 C1608 0.950 . S
H1634 C1610 0.950 . S
H1635 C1611 0.949 . S
H1636 C1613 0.950 . S
H1637 C1615 0.950 . S
C1638 C1639 1.349 . S
C1638 C1640 1.327 . S
C1638 H1663 0.950 . S
C1639 C1638 1.349 . S
C1639 C1655 1.349 . S
C1640 C1638 1.327 . S
C1640 C1659 1.429 . S
C1640 H1664 0.950 . S
C1641 C1658 1.574 . S
C1641 C1660 1.368 . S
C1641 H1665 0.949 . S
H1642 C1646 0.949 . S
C1643 C1644 1.349 . S
C1643 C1645 1.327 . S
C1643 H1666 0.950 . S
C1644 C1643 1.349 . S
C1644 C1656 1.349 . S
C1645 C1643 1.327 . S
C1645 C1661 1.429 . S
C1645 H1667 0.950 . S
C1646 H1642 0.949 . S
C1646 C1654 1.574 . S
C1646 C1662 1.368 . S
H1647 C1655 0.950 . S
H1648 C1653 0.950 . S
H1649 C1654 0.949 . S
H1650 C1656 0.950 . S
H1651 C1657 0.950 . S
H1652 C1658 0.949 . S
C1653 H1648 0.950 . S
C1653 C1655 1.327 . S
C1653 C1659 1.429 . S
C1654 C1646 1.574 . S
C1654 H1649 0.949 . S
C1654 C1660 1.368 . S
C1655 C1639 1.349 . S
C1655 H1647 0.950 . S
C1655 C1653 1.327 . S
C1656 C1644 1.349 . S
C1656 H1650 0.950 . S
C1656 C1657 1.327 . S
C1657 H1651 0.950 . S
C1657 C1656 1.327 . S
C1657 C1661 1.429 . S
C1658 C1641 1.574 . S
C1658 H1652 0.949 . S
C1658 C1662 1.368 . S
C1659 C1640 1.429 . S
C1659 C1653 1.429 . S
C1659 C1660 1.523 . S
C1660 C1641 1.368 . S
C1660 C1654 1.368 . S
C1660 C1659 1.523 . S
C1661 C1645 1.429 . S
C1661 C1657 1.429 . S
C1661 C1662 1.523 . S
C1662 C1646 1.368 . S
C1662 C1658 1.368 . S
C1662 C1661 1.523 . S
H1663 C1638 0.950 . S
H1664 C1640 0.950 . S
H1665 C1641 0.949 . S
H1666 C1643 0.950 . S
H1667 C1645 0.950 . S
C1668 C1669 1.349 . S
C1668 C1670 1.327 . S
C1668 H1693 0.950 . S
C1669 C1668 1.349 . S
C1669 C1685 1.349 . S
C1670 C1668 1.327 . S
C1670 C1689 1.429 . S
C1670 H1694 0.950 . S
C1671 C1688 1.574 . S
C1671 C1690 1.368 . S
C1671 H1695 0.949 . S
H1672 C1676 0.949 . S
C1673 C1674 1.349 . S
C1673 C1675 1.327 . S
C1673 H1696 0.950 . S
C1674 C1673 1.349 . S
C1674 C1686 1.349 . S
C1675 C1673 1.327 . S
C1675 C1691 1.429 . S
C1675 H1697 0.950 . S
C1676 H1672 0.949 . S
C1676 C1684 1.574 . S
C1676 C1692 1.368 . S
H1677 C1685 0.950 . S
H1678 C1683 0.950 . S
H1679 C1684 0.949 . S
H1680 C1686 0.950 . S
H1681 C1687 0.950 . S
H1682 C1688 0.949 . S
C1683 H1678 0.950 . S
C1683 C1685 1.327 . S
C1683 C1689 1.429 . S
C1684 C1676 1.574 . S
C1684 H1679 0.949 . S
C1684 C1690 1.368 . S
C1685 C1669 1.349 . S
C1685 H1677 0.950 . S
C1685 C1683 1.327 . S
C1686 C1674 1.349 . S
C1686 H1680 0.950 . S
C1686 C1687 1.327 . S
C1687 H1681 0.950 . S
C1687 C1686 1.327 . S
C1687 C1691 1.429 . S
C1688 C1671 1.574 . S
C1688 H1682 0.949 . S
C1688 C1692 1.368 . S
C1689 C1670 1.429 . S
C1689 C1683 1.429 . S
C1689 C1690 1.523 . S
C1690 C1671 1.368 . S
C1690 C1684 1.368 . S
C1690 C1689 1.523 . S
C1691 C1675 1.429 . S
C1691 C1687 1.429 . S
C1691 C1692 1.523 . S
C1692 C1676 1.368 . S
C1692 C1688 1.368 . S
C1692 C1691 1.523 . S
H1693 C1668 0.950 . S
H1694 C1670 0.950 . S
H1695 C1671 0.949 . S
H1696 C1673 0.950 . S
H1697 C1675 0.950 . S
C1698 C1699 1.349 . S
C1698 C1700 1.327 . S
C1698 H1723 0.950 . S
C1699 C1698 1.349 . S
C1699 C1715 1.349 . S
C1700 C1698 1.327 . S
C1700 C1719 1.429 . S
C1700 H1724 0.950 . S
C1701 C1718 1.574 . S
C1701 C1720 1.368 . S
C1701 H1725 0.949 . S
H1702 C1706 0.949 . S
C1703 C1704 1.349 . S
C1703 C1705 1.327 . S
C1703 H1726 0.950 . S
C1704 C1703 1.349 . S
C1704 C1716 1.349 . S
C1705 C1703 1.327 . S
C1705 C1721 1.429 . S
C1705 H1727 0.950 . S
C1706 H1702 0.949 . S
C1706 C1714 1.574 . S
C1706 C1722 1.368 . S
H1707 C1715 0.950 . S
H1708 C1713 0.950 . S
H1709 C1714 0.949 . S
H1710 C1716 0.950 . S
H1711 C1717 0.950 . S
H1712 C1718 0.949 . S
C1713 H1708 0.950 . S
C1713 C1715 1.327 . S
C1713 C1719 1.429 . S
C1714 C1706 1.574 . S
C1714 H1709 0.949 . S
C1714 C1720 1.368 . S
C1715 C1699 1.349 . S
C1715 H1707 0.950 . S
C1715 C1713 1.327 . S
C1716 C1704 1.349 . S
C1716 H1710 0.950 . S
C1716 C1717 1.327 . S
C1717 H1711 0.950 . S
C1717 C1716 1.327 . S
C1717 C1721 1.429 . S
C1718 C1701 1.574 . S
C1718 H1712 0.949 . S
C1718 C1722 1.368 . S
C1719 C1700 1.429 . S
C1719 C1713 1.429 . S
C1719 C1720 1.523 . S
C1720 C1701 1.368 . S
C1720 C1714 1.368 . S
C1720 C1719 1.523 . S
C1721 C1705 1.429 . S
C1721 C1717 1.429 . S
C1721 C1722 1.523 . S
C1722 C1706 1.368 . S
C1722 C1718 1.368 . S
C1722 C1721 1.523 . S
H1723 C1698 0.950 . S
H1724 C1700 0.950 . S
H1725 C1701 0.949 . S
H1726 C1703 0.950 . S
H1727 C1705 0.950 . S
C1728 C1729 1.349 . S
C1728 C1730 1.327 1_545 S
C1728 H1753 0.950 . S
C1729 C1728 1.349 . S
C1729 C1745 1.349 . S
C1730 C1728 1.327 1_565 S
C1730 C1749 1.429 . S
C1730 H1754 0.950 . S
C1731 C1748 1.574 . S
C1731 C1750 1.368 . S
C1731 H1755 0.949 . S
H1732 C1736 0.949 . S
C1733 C1734 1.349 . S
C1733 C1735 1.327 . S
C1733 H1756 0.950 . S
C1734 C1733 1.349 . S
C1734 C1746 1.349 . S
C1735 C1733 1.327 . S
C1735 C1751 1.429 . S
C1735 H1757 0.950 . S
C1736 H1732 0.949 . S
C1736 C1744 1.574 . S
C1736 C1752 1.368 . S
H1737 C1745 0.950 . S
H1738 C1743 0.950 . S
H1739 C1744 0.949 . S
H1740 C1746 0.950 . S
H1741 C1747 0.950 . S
H1742 C1748 0.949 . S
C1743 H1738 0.950 . S
C1743 C1745 1.327 1_565 S
C1743 C1749 1.429 . S
C1744 C1736 1.574 . S
C1744 H1739 0.949 . S
C1744 C1750 1.368 . S
C1745 C1729 1.349 . S
C1745 H1737 0.950 . S
C1745 C1743 1.327 1_545 S
C1746 C1734 1.349 . S
C1746 H1740 0.950 . S
C1746 C1747 1.327 . S
C1747 H1741 0.950 . S
C1747 C1746 1.327 . S
C1747 C1751 1.429 . S
C1748 C1731 1.574 . S
C1748 H1742 0.949 . S
C1748 C1752 1.368 . S
C1749 C1730 1.429 . S
C1749 C1743 1.429 . S
C1749 C1750 1.523 . S
C1750 C1731 1.368 . S
C1750 C1744 1.368 . S
C1750 C1749 1.523 . S
C1751 C1735 1.429 . S
C1751 C1747 1.429 . S
C1751 C1752 1.523 . S
C1752 C1736 1.368 . S
C1752 C1748 1.368 . S
C1752 C1751 1.523 . S
H1753 C1728 0.950 . S
H1754 C1730 0.950 . S
H1755 C1731 0.949 . S
H1756 C1733 0.950 . S
H1757 C1735 0.950 . S
C1758 C1759 1.349 1_455 S
C1758 C1760 1.327 . S
C1758 H1783 0.950 1_455 S
C1759 C1758 1.349 1_655 S
C1759 C1775 1.349 1_655 S
C1760 C1758 1.327 . S
C1760 C1779 1.429 . S
C1760 H1784 0.950 . S
C1761 C1778 1.574 . S
C1761 C1780 1.368 . S
C1761 H1785 0.949 . S
H1762 C1766 0.949 . S
C1763 C1764 1.349 . S
C1763 C1765 1.327 . S
C1763 H1786 0.950 . S
C1764 C1763 1.349 . S
C1764 C1776 1.349 . S
C1765 C1763 1.327 . S
C1765 C1781 1.429 . S
C1765 H1787 0.950 . S
C1766 H1762 0.949 . S
C1766 C1774 1.574 . S
C1766 C1782 1.368 . S
H1767 C1775 0.950 . S
H1768 C1773 0.950 . S
H1769 C1774 0.949 . S
H1770 C1776 0.950 . S
H1771 C1777 0.950 . S
H1772 C1778 0.949 . S
C1773 H1768 0.950 . S
C1773 C1775 1.327 . S
C1773 C1779 1.429 . S
C1774 C1766 1.574 . S
C1774 H1769 0.949 . S
C1774 C1780 1.368 . S
C1775 C1759 1.349 1_455 S
C1775 H1767 0.950 . S
C1775 C1773 1.327 . S
C1776 C1764 1.349 . S
C1776 H1770 0.950 . S
C1776 C1777 1.327 . S
C1777 H1771 0.950 . S
C1777 C1776 1.327 . S
C1777 C1781 1.429 . S
C1778 C1761 1.574 . S
C1778 H1772 0.949 . S
C1778 C1782 1.368 . S
C1779 C1760 1.429 . S
C1779 C1773 1.429 . S
C1779 C1780 1.523 . S
C1780 C1761 1.368 . S
C1780 C1774 1.368 . S
C1780 C1779 1.523 . S
C1781 C1765 1.429 . S
C1781 C1777 1.429 . S
C1781 C1782 1.523 . S
C1782 C1766 1.368 . S
C1782 C1778 1.368 . S
C1782 C1781 1.523 . S
H1783 C1758 0.950 1_655 S
H1784 C1760 0.950 . S
H1785 C1761 0.949 . S
H1786 C1763 0.950 . S
H1787 C1765 0.950 . S
C1788 C1789 1.349 . S
C1788 C1790 1.327 . S
C1788 H1813 0.950 . S
C1789 C1788 1.349 . S
C1789 C1805 1.349 . S
C1790 C1788 1.327 . S
C1790 C1809 1.429 . S
C1790 H1814 0.950 . S
C1791 C1808 1.574 . S
C1791 C1810 1.368 . S
C1791 H1815 0.949 . S
H1792 C1796 0.949 . S
C1793 C1794 1.349 . S
C1793 C1795 1.327 . S
C1793 H1816 0.950 . S
C1794 C1793 1.349 . S
C1794 C1806 1.349 . S
C1795 C1793 1.327 . S
C1795 C1811 1.429 . S
C1795 H1817 0.950 . S
C1796 H1792 0.949 . S
C1796 C1804 1.574 . S
C1796 C1812 1.368 . S
H1797 C1805 0.950 . S
H1798 C1803 0.950 . S
H1799 C1804 0.949 . S
H1800 C1806 0.950 . S
H1801 C1807 0.950 . S
H1802 C1808 0.949 . S
C1803 H1798 0.950 . S
C1803 C1805 1.327 . S
C1803 C1809 1.429 . S
C1804 C1796 1.574 . S
C1804 H1799 0.949 . S
C1804 C1810 1.368 . S
C1805 C1789 1.349 . S
C1805 H1797 0.950 . S
C1805 C1803 1.327 . S
C1806 C1794 1.349 . S
C1806 H1800 0.950 . S
C1806 C1807 1.327 . S
C1807 H1801 0.950 . S
C1807 C1806 1.327 . S
C1807 C1811 1.429 . S
C1808 C1791 1.574 . S
C1808 H1802 0.949 . S
C1808 C1812 1.368 . S
C1809 C1790 1.429 . S
C1809 C1803 1.429 . S
C1809 C1810 1.523 . S
C1810 C1791 1.368 . S
C1810 C1804 1.368 . S
C1810 C1809 1.523 . S
C1811 C1795 1.429 . S
C1811 C1807 1.429 . S
C1811 C1812 1.523 . S
C1812 C1796 1.368 . S
C1812 C1808 1.368 . S
C1812 C1811 1.523 . S
H1813 C1788 0.950 . S
H1814 C1790 0.950 . S
H1815 C1791 0.949 . S
H1816 C1793 0.950 . S
H1817 C1795 0.950 . S
C1818 C1819 1.349 . S
C1818 C1820 1.327 . S
C1818 H1843 0.950 . S
C1819 C1818 1.349 . S
C1819 C1835 1.349 . S
C1820 C1818 1.327 . S
C1820 C1839 1.429 . S
C1820 H1844 0.950 . S
C1821 C1838 1.574 . S
C1821 C1840 1.368 . S
C1821 H1845 0.949 . S
H1822 C1826 0.949 . S
C1823 C1824 1.349 . S
C1823 C1825 1.327 . S
C1823 H1846 0.950 . S
C1824 C1823 1.349 . S
C1824 C1836 1.349 . S
C1825 C1823 1.327 . S
C1825 C1841 1.429 . S
C1825 H1847 0.950 . S
C1826 H1822 0.949 . S
C1826 C1834 1.574 . S
C1826 C1842 1.368 . S
H1827 C1835 0.950 . S
H1828 C1833 0.950 . S
H1829 C1834 0.949 . S
H1830 C1836 0.950 . S
H1831 C1837 0.950 . S
H1832 C1838 0.949 . S
C1833 H1828 0.950 . S
C1833 C1835 1.327 . S
C1833 C1839 1.429 . S
C1834 C1826 1.574 . S
C1834 H1829 0.949 . S
C1834 C1840 1.368 . S
C1835 C1819 1.349 . S
C1835 H1827 0.950 . S
C1835 C1833 1.327 . S
C1836 C1824 1.349 . S
C1836 H1830 0.950 . S
C1836 C1837 1.327 . S
C1837 H1831 0.950 . S
C1837 C1836 1.327 . S
C1837 C1841 1.429 . S
C1838 C1821 1.574 . S
C1838 H1832 0.949 . S
C1838 C1842 1.368 . S
C1839 C1820 1.429 . S
C1839 C1833 1.429 . S
C1839 C1840 1.523 . S
C1840 C1821 1.368 . S
C1840 C1834 1.368 . S
C1840 C1839 1.523 . S
C1841 C1825 1.429 . S
C1841 C1837 1.429 . S
C1841 C1842 1.523 . S
C1842 C1826 1.368 . S
C1842 C1838 1.368 . S
C1842 C1841 1.523 . S
H1843 C1818 0.950 . S
H1844 C1820 0.950 . S
H1845 C1821 0.949 . S
H1846 C1823 0.950 . S
H1847 C1825 0.950 . S
C1848 C1849 1.349 . S
C1848 C1850 1.327 . S
C1848 H1873 0.950 . S
C1849 C1848 1.349 . S
C1849 C1865 1.349 . S
C1850 C1848 1.327 . S
C1850 C1869 1.429 . S
C1850 H1874 0.950 . S
C1851 C1868 1.574 . S
C1851 C1870 1.368 . S
C1851 H1875 0.949 . S
H1852 C1856 0.949 . S
C1853 C1854 1.349 . S
C1853 C1855 1.327 . S
C1853 H1876 0.950 . S
C1854 C1853 1.349 . S
C1854 C1866 1.349 . S
C1855 C1853 1.327 . S
C1855 C1871 1.429 . S
C1855 H1877 0.950 . S
C1856 H1852 0.949 . S
C1856 C1864 1.574 . S
C1856 C1872 1.368 . S
H1857 C1865 0.950 . S
H1858 C1863 0.950 . S
H1859 C1864 0.949 . S
H1860 C1866 0.950 . S
H1861 C1867 0.950 . S
H1862 C1868 0.949 . S
C1863 H1858 0.950 . S
C1863 C1865 1.327 . S
C1863 C1869 1.429 . S
C1864 C1856 1.574 . S
C1864 H1859 0.949 . S
C1864 C1870 1.368 . S
C1865 C1849 1.349 . S
C1865 H1857 0.950 . S
C1865 C1863 1.327 . S
C1866 C1854 1.349 . S
C1866 H1860 0.950 . S
C1866 C1867 1.327 . S
C1867 H1861 0.950 . S
C1867 C1866 1.327 . S
C1867 C1871 1.429 . S
C1868 C1851 1.574 . S
C1868 H1862 0.949 . S
C1868 C1872 1.368 . S
C1869 C1850 1.429 . S
C1869 C1863 1.429 . S
C1869 C1870 1.523 . S
C1870 C1851 1.368 . S
C1870 C1864 1.368 . S
C1870 C1869 1.523 . S
C1871 C1855 1.429 . S
C1871 C1867 1.429 . S
C1871 C1872 1.523 . S
C1872 C1856 1.368 . S
C1872 C1868 1.368 . S
C1872 C1871 1.523 . S
H1873 C1848 0.950 . S
H1874 C1850 0.950 . S
H1875 C1851 0.949 . S
H1876 C1853 0.950 . S
H1877 C1855 0.950 . S
C1878 C1879 1.349 . S
C1878 C1880 1.327 . S
C1878 H1903 0.950 . S
C1879 C1878 1.349 . S
C1879 C1895 1.349 . S
C1880 C1878 1.327 . S
C1880 C1899 1.429 . S
C1880 H1904 0.950 . S
C1881 C1898 1.574 . S
C1881 C1900 1.368 . S
C1881 H1905 0.949 . S
H1882 C1886 0.949 . S
C1883 C1884 1.349 . S
C1883 C1885 1.327 . S
C1883 H1906 0.950 . S
C1884 C1883 1.349 . S
C1884 C1896 1.349 . S
C1885 C1883 1.327 . S
C1885 C1901 1.429 . S
C1885 H1907 0.950 . S
C1886 H1882 0.949 . S
C1886 C1894 1.574 . S
C1886 C1902 1.368 . S
H1887 C1895 0.950 . S
H1888 C1893 0.950 . S
H1889 C1894 0.949 . S
H1890 C1896 0.950 . S
H1891 C1897 0.950 . S
H1892 C1898 0.949 . S
C1893 H1888 0.950 . S
C1893 C1895 1.327 . S
C1893 C1899 1.429 . S
C1894 C1886 1.574 . S
C1894 H1889 0.949 . S
C1894 C1900 1.368 . S
C1895 C1879 1.349 . S
C1895 H1887 0.950 . S
C1895 C1893 1.327 . S
C1896 C1884 1.349 . S
C1896 H1890 0.950 . S
C1896 C1897 1.327 . S
C1897 H1891 0.950 . S
C1897 C1896 1.327 . S
C1897 C1901 1.429 . S
C1898 C1881 1.574 . S
C1898 H1892 0.949 . S
C1898 C1902 1.368 . S
C1899 C1880 1.429 . S
C1899 C1893 1.429 . S
C1899 C1900 1.523 . S
C1900 C1881 1.368 . S
C1900 C1894 1.368 . S
C1900 C1899 1.523 . S
C1901 C1885 1.429 . S
C1901 C1897 1.429 . S
C1901 C1902 1.523 . S
C1902 C1886 1.368 . S
C1902 C1898 1.368 . S
C1902 C1901 1.523 . S
H1903 C1878 0.950 . S
H1904 C1880 0.950 . S
H1905 C1881 0.949 . S
H1906 C1883 0.950 . S
H1907 C1885 0.950 . S
C1908 C1909 1.349 . S
C1908 C1910 1.327 . S
C1908 H1933 0.950 . S
C1909 C1908 1.349 . S
C1909 C1925 1.349 . S
C1910 C1908 1.327 . S
C1910 C1929 1.429 . S
C1910 H1934 0.950 . S
C1911 C1928 1.574 1_565 S
C1911 C1930 1.368 . S
C1911 H1935 0.949 . S
H1912 C1916 0.949 . S
C1913 C1914 1.349 . S
C1913 C1915 1.327 . S
C1913 H1936 0.950 . S
C1914 C1913 1.349 . S
C1914 C1926 1.349 . S
C1915 C1913 1.327 . S
C1915 C1931 1.429 . S
C1915 H1937 0.950 . S
C1916 H1912 0.949 . S
C1916 C1924 1.574 . S
C1916 C1932 1.368 . S
H1917 C1925 0.950 . S
H1918 C1923 0.950 . S
H1919 C1924 0.949 . S
H1920 C1926 0.950 . S
H1921 C1927 0.950 . S
H1922 C1928 0.949 . S
C1923 H1918 0.950 . S
C1923 C1925 1.327 . S
C1923 C1929 1.429 . S
C1924 C1916 1.574 . S
C1924 H1919 0.949 . S
C1924 C1930 1.368 1_545 S
C1925 C1909 1.349 . S
C1925 H1917 0.950 . S
C1925 C1923 1.327 . S
C1926 C1914 1.349 . S
C1926 H1920 0.950 . S
C1926 C1927 1.327 . S
C1927 H1921 0.950 . S
C1927 C1926 1.327 . S
C1927 C1931 1.429 . S
C1928 C1911 1.574 1_545 S
C1928 H1922 0.949 . S
C1928 C1932 1.368 . S
C1929 C1910 1.429 . S
C1929 C1923 1.429 . S
C1929 C1930 1.523 . S
C1930 C1911 1.368 . S
C1930 C1924 1.368 1_565 S
C1930 C1929 1.523 . S
C1931 C1915 1.429 . S
C1931 C1927 1.429 . S
C1931 C1932 1.523 . S
C1932 C1916 1.368 . S
C1932 C1928 1.368 . S
C1932 C1931 1.523 . S
H1933 C1908 0.950 . S
H1934 C1910 0.950 . S
H1935 C1911 0.949 . S
H1936 C1913 0.950 . S
H1937 C1915 0.950 . S
C1938 C1939 1.349 . S
C1938 C1940 1.327 . S
C1938 H1963 0.950 . S
C1939 C1938 1.349 . S
C1939 C1955 1.349 . S
C1940 C1938 1.327 . S
C1940 C1959 1.429 . S
C1940 H1964 0.950 . S
C1941 C1958 1.607 . S
C1941 C1960 1.355 1_655 S
C1941 H1965 0.947 . S
H1942 C1946 0.947 . S
C1943 C1944 1.349 . S
C1943 C1945 1.327 . S
C1943 H1966 0.950 . S
C1944 C1943 1.349 . S
C1944 C1956 1.349 . S
C1945 C1943 1.327 . S
C1945 C1961 1.429 . S
C1945 H1967 0.950 . S
C1946 H1942 0.947 . S
C1946 C1954 1.599 . S
C1946 C1962 1.358 1_455 S
H1947 C1955 0.950 . S
H1948 C1953 0.950 . S
H1949 C1954 0.949 . S
H1950 C1956 0.950 . S
H1951 C1957 0.950 . S
H1952 C1958 0.949 . S
C1953 H1948 0.950 . S
C1953 C1955 1.327 . S
C1953 C1959 1.429 . S
C1954 C1946 1.599 . S
C1954 H1949 0.949 . S
C1954 C1960 1.368 . S
C1955 C1939 1.349 . S
C1955 H1947 0.950 . S
C1955 C1953 1.327 . S
C1956 C1944 1.349 . S
C1956 H1950 0.950 . S
C1956 C1957 1.327 . S
C1957 H1951 0.950 . S
C1957 C1956 1.327 . S
C1957 C1961 1.429 . S
C1958 C1941 1.607 . S
C1958 H1952 0.949 . S
C1958 C1962 1.368 . S
C1959 C1940 1.429 . S
C1959 C1953 1.429 . S
C1959 C1960 1.523 . S
C1960 C1941 1.355 1_455 S
C1960 C1954 1.368 . S
C1960 C1959 1.523 . S
C1961 C1945 1.429 . S
C1961 C1957 1.429 . S
C1961 C1962 1.523 . S
C1962 C1946 1.358 1_655 S
C1962 C1958 1.368 . S
C1962 C1961 1.523 . S
H1963 C1938 0.950 . S
H1964 C1940 0.950 . S
H1965 C1941 0.947 . S
H1966 C1943 0.950 . S
H1967 C1945 0.950 . S
C1968 C1969 1.349 . S
C1968 C1970 1.327 . S
C1968 H1993 0.950 . S
C1969 C1968 1.349 . S
C1969 C1985 1.349 . S
C1970 C1968 1.327 . S
C1970 C1989 1.429 . S
C1970 H1994 0.950 . S
C1971 C1988 1.574 . S
C1971 C1990 1.368 . S
C1971 H1995 0.949 . S
H1972 C1976 0.949 . S
C1973 C1974 1.349 . S
C1973 C1975 1.327 . S
C1973 H1996 0.950 . S
C1974 C1973 1.349 . S
C1974 C1986 1.349 . S
C1975 C1973 1.327 . S
C1975 C1991 1.429 . S
C1975 H1997 0.950 . S
C1976 H1972 0.949 . S
C1976 C1984 1.574 . S
C1976 C1992 1.368 . S
H1977 C1985 0.950 . S
H1978 C1983 0.950 . S
H1979 C1984 0.949 . S
H1980 C1986 0.950 . S
H1981 C1987 0.950 . S
H1982 C1988 0.949 . S
C1983 H1978 0.950 . S
C1983 C1985 1.327 . S
C1983 C1989 1.429 . S
C1984 C1976 1.574 . S
C1984 H1979 0.949 . S
C1984 C1990 1.368 . S
C1985 C1969 1.349 . S
C1985 H1977 0.950 . S
C1985 C1983 1.327 . S
C1986 C1974 1.349 . S
C1986 H1980 0.950 . S
C1986 C1987 1.327 . S
C1987 H1981 0.950 . S
C1987 C1986 1.327 . S
C1987 C1991 1.429 . S
C1988 C1971 1.574 . S
C1988 H1982 0.949 . S
C1988 C1992 1.368 . S
C1989 C1970 1.429 . S
C1989 C1983 1.429 . S
C1989 C1990 1.523 . S
C1990 C1971 1.368 . S
C1990 C1984 1.368 . S
C1990 C1989 1.523 . S
C1991 C1975 1.429 . S
C1991 C1987 1.429 . S
C1991 C1992 1.523 . S
C1992 C1976 1.368 . S
C1992 C1988 1.368 . S
C1992 C1991 1.523 . S
H1993 C1968 0.950 . S
H1994 C1970 0.950 . S
H1995 C1971 0.949 . S
H1996 C1973 0.950 . S
H1997 C1975 0.950 . S
C1998 C1999 1.349 1_655 S
C1998 C2000 1.327 . S
C1998 H2023 0.950 1_655 S
C1999 C1998 1.349 1_455 S
C1999 C2015 1.349 . S
C2000 C1998 1.327 . S
C2000 C2019 1.429 . S
C2000 H2024 0.950 . S
C2001 C2018 1.574 . S
C2001 C2020 1.368 . S
C2001 H2025 0.949 . S
H2002 C2006 0.949 . S
C2003 C2004 1.349 . S
C2003 C2005 1.327 . S
C2003 H2026 0.950 . S
C2004 C2003 1.349 . S
C2004 C2016 1.349 . S
C2005 C2003 1.327 . S
C2005 C2021 1.429 . S
C2005 H2027 0.950 . S
C2006 H2002 0.949 . S
C2006 C2014 1.574 . S
C2006 C2022 1.368 . S
H2007 C2015 0.950 . S
H2008 C2013 0.950 . S
H2009 C2014 0.949 . S
H2010 C2016 0.950 . S
H2011 C2017 0.950 . S
H2012 C2018 0.949 . S
C2013 H2008 0.950 . S
C2013 C2015 1.327 1_655 S
C2013 C2019 1.429 . S
C2014 C2006 1.574 . S
C2014 H2009 0.949 . S
C2014 C2020 1.368 . S
C2015 C1999 1.349 . S
C2015 H2007 0.950 . S
C2015 C2013 1.327 1_455 S
C2016 C2004 1.349 . S
C2016 H2010 0.950 . S
C2016 C2017 1.327 . S
C2017 H2011 0.950 . S
C2017 C2016 1.327 . S
C2017 C2021 1.429 . S
C2018 C2001 1.574 . S
C2018 H2012 0.949 . S
C2018 C2022 1.368 . S
C2019 C2000 1.429 . S
C2019 C2013 1.429 . S
C2019 C2020 1.523 . S
C2020 C2001 1.368 . S
C2020 C2014 1.368 . S
C2020 C2019 1.523 . S
C2021 C2005 1.429 . S
C2021 C2017 1.429 . S
C2021 C2022 1.523 . S
C2022 C2006 1.368 . S
C2022 C2018 1.368 . S
C2022 C2021 1.523 . S
H2023 C1998 0.950 1_455 S
H2024 C2000 0.950 . S
H2025 C2001 0.949 . S
H2026 C2003 0.950 . S
H2027 C2005 0.950 . S
C2028 C2029 1.349 . S
C2028 C2030 1.327 . S
C2028 H2053 0.950 . S
C2029 C2028 1.349 . S
C2029 C2045 1.349 . S
C2030 C2028 1.327 . S
C2030 C2049 1.429 . S
C2030 H2054 0.950 . S
C2031 C2048 1.574 . S
C2031 C2050 1.368 . S
C2031 H2055 0.949 . S
H2032 C2036 0.949 . S
C2033 C2034 1.349 . S
C2033 C2035 1.327 . S
C2033 H2056 0.950 . S
C2034 C2033 1.349 . S
C2034 C2046 1.349 . S
C2035 C2033 1.327 . S
C2035 C2051 1.429 . S
C2035 H2057 0.950 . S
C2036 H2032 0.949 . S
C2036 C2044 1.574 . S
C2036 C2052 1.368 . S
H2037 C2045 0.950 . S
H2038 C2043 0.950 . S
H2039 C2044 0.949 . S
H2040 C2046 0.950 . S
H2041 C2047 0.950 . S
H2042 C2048 0.949 . S
C2043 H2038 0.950 . S
C2043 C2045 1.327 . S
C2043 C2049 1.429 . S
C2044 C2036 1.574 . S
C2044 H2039 0.949 . S
C2044 C2050 1.368 . S
C2045 C2029 1.349 . S
C2045 H2037 0.950 . S
C2045 C2043 1.327 . S
C2046 C2034 1.349 . S
C2046 H2040 0.950 . S
C2046 C2047 1.327 . S
C2047 H2041 0.950 . S
C2047 C2046 1.327 . S
C2047 C2051 1.429 . S
C2048 C2031 1.574 . S
C2048 H2042 0.949 . S
C2048 C2052 1.368 . S
C2049 C2030 1.429 . S
C2049 C2043 1.429 . S
C2049 C2050 1.523 . S
C2050 C2031 1.368 . S
C2050 C2044 1.368 . S
C2050 C2049 1.523 . S
C2051 C2035 1.429 . S
C2051 C2047 1.429 . S
C2051 C2052 1.523 . S
C2052 C2036 1.368 . S
C2052 C2048 1.368 . S
C2052 C2051 1.523 . S
H2053 C2028 0.950 . S
H2054 C2030 0.950 . S
H2055 C2031 0.949 . S
H2056 C2033 0.950 . S
H2057 C2035 0.950 . S
C2058 C2059 1.358 . S
C2058 C2060 1.294 1_565 S
C2058 H2083 0.975 . S
C2059 C2058 1.358 . S
C2059 C2075 1.326 1_565 S
C2060 C2058 1.294 1_545 S
C2060 C2079 1.429 . S
C2060 H2084 0.950 . S
C2061 C2078 1.574 . S
C2061 C2080 1.368 . S
C2061 H2085 0.949 . S
H2062 C2066 0.949 . S
C2063 C2064 1.349 . S
C2063 C2065 1.327 . S
C2063 H2086 0.950 . S
C2064 C2063 1.349 . S
C2064 C2076 1.349 . S
C2065 C2063 1.327 . S
C2065 C2081 1.429 . S
C2065 H2087 0.950 . S
C2066 H2062 0.949 . S
C2066 C2074 1.574 . S
C2066 C2082 1.368 . S
H2067 C2075 0.941 1_565 S
H2068 C2073 0.950 . S
H2069 C2074 0.949 . S
H2070 C2076 0.950 . S
H2071 C2077 0.950 . S
H2072 C2078 0.949 . S
C2073 H2068 0.950 . S
C2073 C2075 1.359 . S
C2073 C2079 1.429 . S
C2074 C2066 1.574 . S
C2074 H2069 0.949 . S
C2074 C2080 1.368 . S
C2075 C2059 1.326 1_545 S
C2075 H2067 0.941 1_545 S
C2075 C2073 1.359 . S
C2076 C2064 1.349 . S
C2076 H2070 0.950 . S
C2076 C2077 1.327 . S
C2077 H2071 0.950 . S
C2077 C2076 1.327 . S
C2077 C2081 1.429 . S
C2078 C2061 1.574 . S
C2078 H2072 0.949 . S
C2078 C2082 1.368 . S
C2079 C2060 1.429 . S
C2079 C2073 1.429 . S
C2079 C2080 1.523 . S
C2080 C2061 1.368 . S
C2080 C2074 1.368 . S
C2080 C2079 1.523 . S
C2081 C2065 1.429 . S
C2081 C2077 1.429 . S
C2081 C2082 1.523 . S
C2082 C2066 1.368 . S
C2082 C2078 1.368 . S
C2082 C2081 1.523 . S
H2083 C2058 0.975 . S
H2084 C2060 0.950 . S
H2085 C2061 0.949 . S
H2086 C2063 0.950 . S
H2087 C2065 0.950 . S
C2088 C2089 1.349 . S
C2088 C2090 1.327 . S
C2088 H2113 0.950 . S
C2089 C2088 1.349 . S
C2089 C2105 1.349 . S
C2090 C2088 1.327 . S
C2090 C2109 1.429 . S
C2090 H2114 0.950 . S
C2091 C2108 1.574 . S
C2091 C2110 1.368 . S
C2091 H2115 0.949 . S
H2092 C2096 0.949 . S
C2093 C2094 1.349 . S
C2093 C2095 1.327 . S
C2093 H2116 0.950 . S
C2094 C2093 1.349 . S
C2094 C2106 1.349 . S
C2095 C2093 1.327 . S
C2095 C2111 1.429 . S
C2095 H2117 0.950 . S
C2096 H2092 0.949 . S
C2096 C2104 1.574 . S
C2096 C2112 1.368 . S
H2097 C2105 0.950 . S
H2098 C2103 0.950 . S
H2099 C2104 0.949 . S
H2100 C2106 0.950 . S
H2101 C2107 0.950 . S
H2102 C2108 0.949 . S
C2103 H2098 0.950 . S
C2103 C2105 1.327 . S
C2103 C2109 1.429 . S
C2104 C2096 1.574 . S
C2104 H2099 0.949 . S
C2104 C2110 1.368 . S
C2105 C2089 1.349 . S
C2105 H2097 0.950 . S
C2105 C2103 1.327 . S
C2106 C2094 1.349 . S
C2106 H2100 0.950 . S
C2106 C2107 1.327 . S
C2107 H2101 0.950 . S
C2107 C2106 1.327 . S
C2107 C2111 1.429 . S
C2108 C2091 1.574 . S
C2108 H2102 0.949 . S
C2108 C2112 1.368 . S
C2109 C2090 1.429 . S
C2109 C2103 1.429 . S
C2109 C2110 1.523 . S
C2110 C2091 1.368 . S
C2110 C2104 1.368 . S
C2110 C2109 1.523 . S
C2111 C2095 1.429 . S
C2111 C2107 1.429 . S
C2111 C2112 1.523 . S
C2112 C2096 1.368 . S
C2112 C2108 1.368 . S
C2112 C2111 1.523 . S
H2113 C2088 0.950 . S
H2114 C2090 0.950 . S
H2115 C2091 0.949 . S
H2116 C2093 0.950 . S
H2117 C2095 0.950 . S
C2118 C2119 1.349 . S
C2118 C2120 1.327 . S
C2118 H2143 0.950 . S
C2119 C2118 1.349 . S
C2119 C2135 1.349 . S
C2120 C2118 1.327 . S
C2120 C2139 1.429 . S
C2120 H2144 0.950 . S
C2121 C2138 1.574 . S
C2121 C2140 1.368 . S
C2121 H2145 0.949 . S
H2122 C2126 0.949 . S
C2123 C2124 1.349 . S
C2123 C2125 1.327 . S
C2123 H2146 0.950 . S
C2124 C2123 1.349 . S
C2124 C2136 1.349 . S
C2125 C2123 1.327 . S
C2125 C2141 1.429 . S
C2125 H2147 0.950 . S
C2126 H2122 0.949 . S
C2126 C2134 1.574 . S
C2126 C2142 1.368 . S
H2127 C2135 0.950 . S
H2128 C2133 0.950 . S
H2129 C2134 0.949 . S
H2130 C2136 0.950 . S
H2131 C2137 0.950 . S
H2132 C2138 0.949 . S
C2133 H2128 0.950 . S
C2133 C2135 1.327 . S
C2133 C2139 1.429 . S
C2134 C2126 1.574 . S
C2134 H2129 0.949 . S
C2134 C2140 1.368 . S
C2135 C2119 1.349 . S
C2135 H2127 0.950 . S
C2135 C2133 1.327 . S
C2136 C2124 1.349 . S
C2136 H2130 0.950 . S
C2136 C2137 1.327 . S
C2137 H2131 0.950 . S
C2137 C2136 1.327 . S
C2137 C2141 1.429 . S
C2138 C2121 1.574 . S
C2138 H2132 0.949 . S
C2138 C2142 1.368 . S
C2139 C2120 1.429 . S
C2139 C2133 1.429 . S
C2139 C2140 1.523 . S
C2140 C2121 1.368 . S
C2140 C2134 1.368 . S
C2140 C2139 1.523 . S
C2141 C2125 1.429 . S
C2141 C2137 1.429 . S
C2141 C2142 1.523 . S
C2142 C2126 1.368 . S
C2142 C2138 1.368 . S
C2142 C2141 1.523 . S
H2143 C2118 0.950 . S
H2144 C2120 0.950 . S
H2145 C2121 0.949 . S
H2146 C2123 0.950 . S
H2147 C2125 0.950 . S
C2148 C2149 1.349 . S
C2148 C2150 1.327 . S
C2148 H2173 0.950 . S
C2149 C2148 1.349 . S
C2149 C2165 1.349 . S
C2150 C2148 1.327 . S
C2150 C2169 1.429 . S
C2150 H2174 0.950 . S
C2151 C2168 1.574 . S
C2151 C2170 1.368 . S
C2151 H2175 0.949 . S
H2152 C2156 0.949 . S
C2153 C2154 1.349 . S
C2153 C2155 1.327 . S
C2153 H2176 0.950 . S
C2154 C2153 1.349 . S
C2154 C2166 1.349 . S
C2155 C2153 1.327 . S
C2155 C2171 1.429 . S
C2155 H2177 0.950 . S
C2156 H2152 0.949 . S
C2156 C2164 1.574 . S
C2156 C2172 1.368 . S
H2157 C2165 0.950 . S
H2158 C2163 0.950 . S
H2159 C2164 0.949 . S
H2160 C2166 0.950 . S
H2161 C2167 0.950 . S
H2162 C2168 0.949 . S
C2163 H2158 0.950 . S
C2163 C2165 1.327 . S
C2163 C2169 1.429 . S
C2164 C2156 1.574 . S
C2164 H2159 0.949 . S
C2164 C2170 1.368 . S
C2165 C2149 1.349 . S
C2165 H2157 0.950 . S
C2165 C2163 1.327 . S
C2166 C2154 1.349 . S
C2166 H2160 0.950 . S
C2166 C2167 1.327 . S
C2167 H2161 0.950 . S
C2167 C2166 1.327 . S
C2167 C2171 1.429 . S
C2168 C2151 1.574 . S
C2168 H2162 0.949 . S
C2168 C2172 1.368 . S
C2169 C2150 1.429 . S
C2169 C2163 1.429 . S
C2169 C2170 1.523 . S
C2170 C2151 1.368 . S
C2170 C2164 1.368 . S
C2170 C2169 1.523 . S
C2171 C2155 1.429 . S
C2171 C2167 1.429 . S
C2171 C2172 1.523 . S
C2172 C2156 1.368 . S
C2172 C2168 1.368 . S
C2172 C2171 1.523 . S
H2173 C2148 0.950 . S
H2174 C2150 0.950 . S
H2175 C2151 0.949 . S
H2176 C2153 0.950 . S
H2177 C2155 0.950 . S
C2178 C2179 1.349 . S
C2178 C2180 1.327 . S
C2178 H2203 0.950 . S
C2179 C2178 1.349 . S
C2179 C2195 1.349 . S
C2180 C2178 1.327 . S
C2180 C2199 1.429 . S
C2180 H2204 0.950 . S
C2181 C2198 1.574 . S
C2181 C2200 1.368 . S
C2181 H2205 0.949 . S
H2182 C2186 0.949 . S
C2183 C2184 1.349 . S
C2183 C2185 1.327 . S
C2183 H2206 0.950 . S
C2184 C2183 1.349 . S
C2184 C2196 1.349 . S
C2185 C2183 1.327 . S
C2185 C2201 1.429 . S
C2185 H2207 0.950 . S
C2186 H2182 0.949 . S
C2186 C2194 1.574 . S
C2186 C2202 1.368 . S
H2187 C2195 0.950 . S
H2188 C2193 0.950 . S
H2189 C2194 0.949 . S
H2190 C2196 0.950 . S
H2191 C2197 0.950 . S
H2192 C2198 0.949 . S
C2193 H2188 0.950 . S
C2193 C2195 1.327 . S
C2193 C2199 1.429 . S
C2194 C2186 1.574 . S
C2194 H2189 0.949 . S
C2194 C2200 1.368 . S
C2195 C2179 1.349 . S
C2195 H2187 0.950 . S
C2195 C2193 1.327 . S
C2196 C2184 1.349 . S
C2196 H2190 0.950 . S
C2196 C2197 1.327 . S
C2197 H2191 0.950 . S
C2197 C2196 1.327 . S
C2197 C2201 1.429 . S
C2198 C2181 1.574 . S
C2198 H2192 0.949 . S
C2198 C2202 1.368 . S
C2199 C2180 1.429 . S
C2199 C2193 1.429 . S
C2199 C2200 1.523 . S
C2200 C2181 1.368 . S
C2200 C2194 1.368 . S
C2200 C2199 1.523 . S
C2201 C2185 1.429 . S
C2201 C2197 1.429 . S
C2201 C2202 1.523 . S
C2202 C2186 1.368 . S
C2202 C2198 1.368 . S
C2202 C2201 1.523 . S
H2203 C2178 0.950 . S
H2204 C2180 0.950 . S
H2205 C2181 0.949 . S
H2206 C2183 0.950 . S
H2207 C2185 0.950 . S
C2208 C2209 1.349 . S
C2208 C2210 1.327 . S
C2208 H2233 0.950 . S
C2209 C2208 1.349 . S
C2209 C2225 1.349 . S
C2210 C2208 1.327 . S
C2210 C2229 1.429 . S
C2210 H2234 0.950 . S
C2211 C2228 1.574 . S
C2211 C2230 1.368 . S
C2211 H2235 0.949 . S
H2212 C2216 0.949 . S
C2213 C2214 1.349 . S
C2213 C2215 1.327 . S
C2213 H2236 0.950 . S
C2214 C2213 1.349 . S
C2214 C2226 1.349 . S
C2215 C2213 1.327 . S
C2215 C2231 1.429 . S
C2215 H2237 0.950 . S
C2216 H2212 0.949 . S
C2216 C2224 1.574 . S
C2216 C2232 1.368 . S
H2217 C2225 0.950 . S
H2218 C2223 0.950 . S
H2219 C2224 0.949 . S
H2220 C2226 0.950 . S
H2221 C2227 0.950 . S
H2222 C2228 0.949 . S
C2223 H2218 0.950 . S
C2223 C2225 1.327 . S
C2223 C2229 1.429 . S
C2224 C2216 1.574 . S
C2224 H2219 0.949 . S
C2224 C2230 1.368 . S
C2225 C2209 1.349 . S
C2225 H2217 0.950 . S
C2225 C2223 1.327 . S
C2226 C2214 1.349 . S
C2226 H2220 0.950 . S
C2226 C2227 1.327 . S
C2227 H2221 0.950 . S
C2227 C2226 1.327 . S
C2227 C2231 1.429 . S
C2228 C2211 1.574 . S
C2228 H2222 0.949 . S
C2228 C2232 1.368 . S
C2229 C2210 1.429 . S
C2229 C2223 1.429 . S
C2229 C2230 1.523 . S
C2230 C2211 1.368 . S
C2230 C2224 1.368 . S
C2230 C2229 1.523 . S
C2231 C2215 1.429 . S
C2231 C2227 1.429 . S
C2231 C2232 1.523 . S
C2232 C2216 1.368 . S
C2232 C2228 1.368 . S
C2232 C2231 1.523 . S
H2233 C2208 0.950 . S
H2234 C2210 0.950 . S
H2235 C2211 0.949 . S
H2236 C2213 0.950 . S
H2237 C2215 0.950 . S
C2238 C2239 1.349 . S
C2238 C2240 1.327 . S
C2238 H2263 0.950 . S
C2239 C2238 1.349 . S
C2239 C2255 1.349 . S
C2240 C2238 1.327 . S
C2240 C2259 1.429 . S
C2240 H2264 0.950 . S
C2241 C2258 1.574 . S
C2241 C2260 1.368 . S
C2241 H2265 0.949 . S
H2242 C2246 0.949 . S
C2243 C2244 1.349 . S
C2243 C2245 1.327 . S
C2243 H2266 0.950 . S
C2244 C2243 1.349 . S
C2244 C2256 1.349 . S
C2245 C2243 1.327 . S
C2245 C2261 1.429 . S
C2245 H2267 0.950 . S
C2246 H2242 0.949 . S
C2246 C2254 1.574 . S
C2246 C2262 1.368 . S
H2247 C2255 0.950 . S
H2248 C2253 0.950 . S
H2249 C2254 0.949 . S
H2250 C2256 0.950 . S
H2251 C2257 0.950 . S
H2252 C2258 0.949 . S
C2253 H2248 0.950 . S
C2253 C2255 1.327 . S
C2253 C2259 1.429 . S
C2254 C2246 1.574 . S
C2254 H2249 0.949 . S
C2254 C2260 1.368 . S
C2255 C2239 1.349 . S
C2255 H2247 0.950 . S
C2255 C2253 1.327 . S
C2256 C2244 1.349 . S
C2256 H2250 0.950 . S
C2256 C2257 1.327 . S
C2257 H2251 0.950 . S
C2257 C2256 1.327 . S
C2257 C2261 1.429 . S
C2258 C2241 1.574 . S
C2258 H2252 0.949 . S
C2258 C2262 1.368 . S
C2259 C2240 1.429 . S
C2259 C2253 1.429 . S
C2259 C2260 1.523 . S
C2260 C2241 1.368 . S
C2260 C2254 1.368 . S
C2260 C2259 1.523 . S
C2261 C2245 1.429 . S
C2261 C2257 1.429 . S
C2261 C2262 1.523 . S
C2262 C2246 1.368 . S
C2262 C2258 1.368 . S
C2262 C2261 1.523 . S
H2263 C2238 0.950 . S
H2264 C2240 0.950 . S
H2265 C2241 0.949 . S
H2266 C2243 0.950 . S
H2267 C2245 0.950 . S
C2268 C2269 1.349 . S
C2268 C2270 1.327 . S
C2268 H2293 0.950 . S
C2269 C2268 1.349 . S
C2269 C2285 1.349 . S
C2270 C2268 1.327 . S
C2270 C2289 1.429 . S
C2270 H2294 0.950 . S
C2271 C2288 1.574 . S
C2271 C2290 1.368 . S
C2271 H2295 0.949 . S
H2272 C2276 0.949 . S
C2273 C2274 1.349 . S
C2273 C2275 1.327 . S
C2273 H2296 0.950 . S
C2274 C2273 1.349 . S
C2274 C2286 1.349 . S
C2275 C2273 1.327 . S
C2275 C2291 1.429 . S
C2275 H2297 0.950 . S
C2276 H2272 0.949 . S
C2276 C2284 1.574 . S
C2276 C2292 1.368 . S
H2277 C2285 0.950 . S
H2278 C2283 0.950 . S
H2279 C2284 0.949 . S
H2280 C2286 0.950 . S
H2281 C2287 0.950 . S
H2282 C2288 0.949 . S
C2283 H2278 0.950 . S
C2283 C2285 1.327 . S
C2283 C2289 1.429 . S
C2284 C2276 1.574 . S
C2284 H2279 0.949 . S
C2284 C2290 1.368 . S
C2285 C2269 1.349 . S
C2285 H2277 0.950 . S
C2285 C2283 1.327 . S
C2286 C2274 1.349 . S
C2286 H2280 0.950 . S
C2286 C2287 1.327 . S
C2287 H2281 0.950 . S
C2287 C2286 1.327 . S
C2287 C2291 1.429 . S
C2288 C2271 1.574 . S
C2288 H2282 0.949 . S
C2288 C2292 1.368 . S
C2289 C2270 1.429 . S
C2289 C2283 1.429 . S
C2289 C2290 1.523 . S
C2290 C2271 1.368 . S
C2290 C2284 1.368 . S
C2290 C2289 1.523 . S
C2291 C2275 1.429 . S
C2291 C2287 1.429 . S
C2291 C2292 1.523 . S
C2292 C2276 1.368 . S
C2292 C2288 1.368 . S
C2292 C2291 1.523 . S
H2293 C2268 0.950 . S
H2294 C2270 0.950 . S
H2295 C2271 0.949 . S
H2296 C2273 0.950 . S
H2297 C2275 0.950 . S
C2298 C2299 1.349 . S
C2298 C2300 1.327 . S
C2298 H2323 0.950 . S
C2299 C2298 1.349 . S
C2299 C2315 1.349 . S
C2300 C2298 1.327 . S
C2300 C2319 1.429 . S
C2300 H2324 0.950 . S
C2301 C2318 1.574 . S
C2301 C2320 1.368 . S
C2301 H2325 0.949 . S
H2302 C2306 0.949 . S
C2303 C2304 1.349 . S
C2303 C2305 1.327 . S
C2303 H2326 0.950 . S
C2304 C2303 1.349 . S
C2304 C2316 1.349 . S
C2305 C2303 1.327 . S
C2305 C2321 1.429 . S
C2305 H2327 0.950 . S
C2306 H2302 0.949 . S
C2306 C2314 1.574 . S
C2306 C2322 1.368 . S
H2307 C2315 0.950 . S
H2308 C2313 0.950 . S
H2309 C2314 0.949 . S
H2310 C2316 0.950 . S
H2311 C2317 0.950 . S
H2312 C2318 0.949 . S
C2313 H2308 0.950 . S
C2313 C2315 1.327 . S
C2313 C2319 1.429 . S
C2314 C2306 1.574 . S
C2314 H2309 0.949 . S
C2314 C2320 1.368 . S
C2315 C2299 1.349 . S
C2315 H2307 0.950 . S
C2315 C2313 1.327 . S
C2316 C2304 1.349 . S
C2316 H2310 0.950 . S
C2316 C2317 1.327 . S
C2317 H2311 0.950 . S
C2317 C2316 1.327 . S
C2317 C2321 1.429 . S
C2318 C2301 1.574 . S
C2318 H2312 0.949 . S
C2318 C2322 1.368 . S
C2319 C2300 1.429 . S
C2319 C2313 1.429 . S
C2319 C2320 1.523 . S
C2320 C2301 1.368 . S
C2320 C2314 1.368 . S
C2320 C2319 1.523 . S
C2321 C2305 1.429 . S
C2321 C2317 1.429 . S
C2321 C2322 1.523 . S
C2322 C2306 1.368 . S
C2322 C2318 1.368 . S
C2322 C2321 1.523 . S
H2323 C2298 0.950 . S
H2324 C2300 0.950 . S
H2325 C2301 0.949 . S
H2326 C2303 0.950 . S
H2327 C2305 0.950 . S
C2328 C2329 1.349 . S
C2328 C2330 1.327 . S
C2328 H2353 0.950 . S
C2329 C2328 1.349 . S
C2329 C2345 1.349 . S
C2330 C2328 1.327 . S
C2330 C2349 1.429 . S
C2330 H2354 0.950 . S
C2331 C2348 1.574 . S
C2331 C2350 1.368 . S
C2331 H2355 0.949 . S
H2332 C2336 0.949 . S
C2333 C2334 1.349 . S
C2333 C2335 1.327 . S
C2333 H2356 0.950 . S
C2334 C2333 1.349 . S
C2334 C2346 1.349 . S
C2335 C2333 1.327 . S
C2335 C2351 1.429 . S
C2335 H2357 0.950 . S
C2336 H2332 0.949 . S
C2336 C2344 1.574 . S
C2336 C2352 1.368 . S
H2337 C2345 0.950 . S
H2338 C2343 0.950 . S
H2339 C2344 0.949 . S
H2340 C2346 0.950 . S
H2341 C2347 0.950 . S
H2342 C2348 0.949 . S
C2343 H2338 0.950 . S
C2343 C2345 1.327 . S
C2343 C2349 1.429 . S
C2344 C2336 1.574 . S
C2344 H2339 0.949 . S
C2344 C2350 1.368 . S
C2345 C2329 1.349 . S
C2345 H2337 0.950 . S
C2345 C2343 1.327 . S
C2346 C2334 1.349 . S
C2346 H2340 0.950 . S
C2346 C2347 1.327 . S
C2347 H2341 0.950 . S
C2347 C2346 1.327 . S
C2347 C2351 1.429 . S
C2348 C2331 1.574 . S
C2348 H2342 0.949 . S
C2348 C2352 1.368 . S
C2349 C2330 1.429 . S
C2349 C2343 1.429 . S
C2349 C2350 1.523 . S
C2350 C2331 1.368 . S
C2350 C2344 1.368 . S
C2350 C2349 1.523 . S
C2351 C2335 1.429 . S
C2351 C2347 1.429 . S
C2351 C2352 1.523 . S
C2352 C2336 1.368 . S
C2352 C2348 1.368 . S
C2352 C2351 1.523 . S
H2353 C2328 0.950 . S
H2354 C2330 0.950 . S
H2355 C2331 0.949 . S
H2356 C2333 0.950 . S
H2357 C2335 0.950 . S
C2358 C2359 1.349 . S
C2358 C2360 1.327 . S
C2358 H2383 0.950 . S
C2359 C2358 1.349 . S
C2359 C2375 1.349 . S
C2360 C2358 1.327 . S
C2360 C2379 1.429 . S
C2360 H2384 0.950 . S
C2361 C2378 1.574 . S
C2361 C2380 1.368 . S
C2361 H2385 0.949 . S
H2362 C2366 0.949 . S
C2363 C2364 1.349 . S
C2363 C2365 1.327 . S
C2363 H2386 0.950 . S
C2364 C2363 1.349 . S
C2364 C2376 1.349 . S
C2365 C2363 1.327 . S
C2365 C2381 1.429 . S
C2365 H2387 0.950 . S
C2366 H2362 0.949 . S
C2366 C2374 1.574 . S
C2366 C2382 1.368 . S
H2367 C2375 0.950 . S
H2368 C2373 0.950 . S
H2369 C2374 0.949 . S
H2370 C2376 0.950 . S
H2371 C2377 0.950 . S
H2372 C2378 0.949 . S
C2373 H2368 0.950 . S
C2373 C2375 1.327 . S
C2373 C2379 1.429 . S
C2374 C2366 1.574 . S
C2374 H2369 0.949 . S
C2374 C2380 1.368 . S
C2375 C2359 1.349 . S
C2375 H2367 0.950 . S
C2375 C2373 1.327 . S
C2376 C2364 1.349 . S
C2376 H2370 0.950 . S
C2376 C2377 1.327 . S
C2377 H2371 0.950 . S
C2377 C2376 1.327 . S
C2377 C2381 1.429 . S
C2378 C2361 1.574 . S
C2378 H2372 0.949 . S
C2378 C2382 1.368 . S
C2379 C2360 1.429 . S
C2379 C2373 1.429 . S
C2379 C2380 1.523 . S
C2380 C2361 1.368 . S
C2380 C2374 1.368 . S
C2380 C2379 1.523 . S
C2381 C2365 1.429 . S
C2381 C2377 1.429 . S
C2381 C2382 1.523 . S
C2382 C2366 1.368 . S
C2382 C2378 1.368 . S
C2382 C2381 1.523 . S
H2383 C2358 0.950 . S
H2384 C2360 0.950 . S
H2385 C2361 0.949 . S
H2386 C2363 0.950 . S
H2387 C2365 0.950 . S
C2388 C2389 1.349 . S
C2388 C2390 1.327 . S
C2388 H2413 0.950 . S
C2389 C2388 1.349 . S
C2389 C2405 1.349 . S
C2390 C2388 1.327 . S
C2390 C2409 1.429 . S
C2390 H2414 0.950 . S
C2391 C2408 1.574 . S
C2391 C2410 1.368 . S
C2391 H2415 0.949 . S
H2392 C2396 0.949 . S
C2393 C2394 1.349 . S
C2393 C2395 1.327 . S
C2393 H2416 0.950 . S
C2394 C2393 1.349 . S
C2394 C2406 1.349 . S
C2395 C2393 1.327 . S
C2395 C2411 1.429 . S
C2395 H2417 0.950 . S
C2396 H2392 0.949 . S
C2396 C2404 1.574 . S
C2396 C2412 1.368 . S
H2397 C2405 0.950 . S
H2398 C2403 0.950 . S
H2399 C2404 0.949 . S
H2400 C2406 0.950 . S
H2401 C2407 0.950 . S
H2402 C2408 0.949 . S
C2403 H2398 0.950 . S
C2403 C2405 1.327 . S
C2403 C2409 1.429 . S
C2404 C2396 1.574 . S
C2404 H2399 0.949 . S
C2404 C2410 1.368 . S
C2405 C2389 1.349 . S
C2405 H2397 0.950 . S
C2405 C2403 1.327 . S
C2406 C2394 1.349 . S
C2406 H2400 0.950 . S
C2406 C2407 1.327 . S
C2407 H2401 0.950 . S
C2407 C2406 1.327 . S
C2407 C2411 1.429 . S
C2408 C2391 1.574 . S
C2408 H2402 0.949 . S
C2408 C2412 1.368 . S
C2409 C2390 1.429 . S
C2409 C2403 1.429 . S
C2409 C2410 1.523 . S
C2410 C2391 1.368 . S
C2410 C2404 1.368 . S
C2410 C2409 1.523 . S
C2411 C2395 1.429 . S
C2411 C2407 1.429 . S
C2411 C2412 1.523 . S
C2412 C2396 1.368 . S
C2412 C2408 1.368 . S
C2412 C2411 1.523 . S
H2413 C2388 0.950 . S
H2414 C2390 0.950 . S
H2415 C2391 0.949 . S
H2416 C2393 0.950 . S
H2417 C2395 0.950 . S
C2418 C2419 1.349 . S
C2418 C2420 1.327 . S
C2418 H2443 0.950 . S
C2419 C2418 1.349 . S
C2419 C2435 1.349 . S
C2420 C2418 1.327 . S
C2420 C2439 1.429 . S
C2420 H2444 0.950 . S
C2421 C2438 1.574 . S
C2421 C2440 1.368 . S
C2421 H2445 0.949 . S
H2422 C2426 0.949 . S
C2423 C2424 1.349 . S
C2423 C2425 1.327 . S
C2423 H2446 0.950 . S
C2424 C2423 1.349 . S
C2424 C2436 1.349 . S
C2425 C2423 1.327 . S
C2425 C2441 1.429 . S
C2425 H2447 0.950 . S
C2426 H2422 0.949 . S
C2426 C2434 1.574 . S
C2426 C2442 1.368 . S
H2427 C2435 0.950 . S
H2428 C2433 0.950 . S
H2429 C2434 0.949 . S
H2430 C2436 0.950 . S
H2431 C2437 0.950 . S
H2432 C2438 0.949 . S
C2433 H2428 0.950 . S
C2433 C2435 1.327 . S
C2433 C2439 1.429 . S
C2434 C2426 1.574 . S
C2434 H2429 0.949 . S
C2434 C2440 1.368 . S
C2435 C2419 1.349 . S
C2435 H2427 0.950 . S
C2435 C2433 1.327 . S
C2436 C2424 1.349 . S
C2436 H2430 0.950 . S
C2436 C2437 1.327 . S
C2437 H2431 0.950 . S
C2437 C2436 1.327 . S
C2437 C2441 1.429 . S
C2438 C2421 1.574 . S
C2438 H2432 0.949 . S
C2438 C2442 1.368 . S
C2439 C2420 1.429 . S
C2439 C2433 1.429 . S
C2439 C2440 1.523 . S
C2440 C2421 1.368 . S
C2440 C2434 1.368 . S
C2440 C2439 1.523 . S
C2441 C2425 1.429 . S
C2441 C2437 1.429 . S
C2441 C2442 1.523 . S
C2442 C2426 1.368 . S
C2442 C2438 1.368 . S
C2442 C2441 1.523 . S
H2443 C2418 0.950 . S
H2444 C2420 0.950 . S
H2445 C2421 0.949 . S
H2446 C2423 0.950 . S
H2447 C2425 0.950 . S
C2448 C2449 1.349 . S
C2448 C2450 1.327 . S
C2448 H2473 0.950 . S
C2449 C2448 1.349 . S
C2449 C2465 1.349 . S
C2450 C2448 1.327 . S
C2450 C2469 1.429 . S
C2450 H2474 0.950 . S
C2451 C2468 1.574 . S
C2451 C2470 1.368 . S
C2451 H2475 0.949 . S
H2452 C2456 0.949 . S
C2453 C2454 1.349 . S
C2453 C2455 1.327 . S
C2453 H2476 0.950 . S
C2454 C2453 1.349 . S
C2454 C2466 1.349 . S
C2455 C2453 1.327 . S
C2455 C2471 1.429 . S
C2455 H2477 0.950 . S
C2456 H2452 0.949 . S
C2456 C2464 1.574 . S
C2456 C2472 1.368 . S
H2457 C2465 0.950 . S
H2458 C2463 0.950 . S
H2459 C2464 0.949 . S
H2460 C2466 0.950 . S
H2461 C2467 0.950 . S
H2462 C2468 0.949 . S
C2463 H2458 0.950 . S
C2463 C2465 1.327 . S
C2463 C2469 1.429 . S
C2464 C2456 1.574 . S
C2464 H2459 0.949 . S
C2464 C2470 1.368 . S
C2465 C2449 1.349 . S
C2465 H2457 0.950 . S
C2465 C2463 1.327 . S
C2466 C2454 1.349 . S
C2466 H2460 0.950 . S
C2466 C2467 1.327 . S
C2467 H2461 0.950 . S
C2467 C2466 1.327 . S
C2467 C2471 1.429 . S
C2468 C2451 1.574 . S
C2468 H2462 0.949 . S
C2468 C2472 1.368 . S
C2469 C2450 1.429 . S
C2469 C2463 1.429 . S
C2469 C2470 1.523 . S
C2470 C2451 1.368 . S
C2470 C2464 1.368 . S
C2470 C2469 1.523 . S
C2471 C2455 1.429 . S
C2471 C2467 1.429 . S
C2471 C2472 1.523 . S
C2472 C2456 1.368 . S
C2472 C2468 1.368 . S
C2472 C2471 1.523 . S
H2473 C2448 0.950 . S
H2474 C2450 0.950 . S
H2475 C2451 0.949 . S
H2476 C2453 0.950 . S
H2477 C2455 0.950 . S
C2478 C2479 1.349 . S
C2478 C2480 1.327 . S
C2478 H2503 0.950 . S
C2479 C2478 1.349 . S
C2479 C2495 1.349 . S
C2480 C2478 1.327 . S
C2480 C2499 1.429 . S
C2480 H2504 0.950 . S
C2481 C2498 1.574 . S
C2481 C2500 1.368 . S
C2481 H2505 0.949 . S
H2482 C2486 0.949 . S
C2483 C2484 1.349 . S
C2483 C2485 1.327 . S
C2483 H2506 0.950 . S
C2484 C2483 1.349 . S
C2484 C2496 1.349 . S
C2485 C2483 1.327 . S
C2485 C2501 1.429 . S
C2485 H2507 0.950 . S
C2486 H2482 0.949 . S
C2486 C2494 1.574 . S
C2486 C2502 1.368 . S
H2487 C2495 0.950 . S
H2488 C2493 0.950 . S
H2489 C2494 0.949 . S
H2490 C2496 0.950 . S
H2491 C2497 0.950 . S
H2492 C2498 0.949 . S
C2493 H2488 0.950 . S
C2493 C2495 1.327 . S
C2493 C2499 1.429 . S
C2494 C2486 1.574 . S
C2494 H2489 0.949 . S
C2494 C2500 1.368 . S
C2495 C2479 1.349 . S
C2495 H2487 0.950 . S
C2495 C2493 1.327 . S
C2496 C2484 1.349 . S
C2496 H2490 0.950 . S
C2496 C2497 1.327 . S
C2497 H2491 0.950 . S
C2497 C2496 1.327 . S
C2497 C2501 1.429 . S
C2498 C2481 1.574 . S
C2498 H2492 0.949 . S
C2498 C2502 1.368 . S
C2499 C2480 1.429 . S
C2499 C2493 1.429 . S
C2499 C2500 1.523 . S
C2500 C2481 1.368 . S
C2500 C2494 1.368 . S
C2500 C2499 1.523 . S
C2501 C2485 1.429 . S
C2501 C2497 1.429 . S
C2501 C2502 1.523 . S
C2502 C2486 1.368 . S
C2502 C2498 1.368 . S
C2502 C2501 1.523 . S
H2503 C2478 0.950 . S
H2504 C2480 0.950 . S
H2505 C2481 0.949 . S
H2506 C2483 0.950 . S
H2507 C2485 0.950 . S
C2508 C2509 1.349 . S
C2508 C2510 1.327 . S
C2508 H2533 0.950 . S
C2509 C2508 1.349 . S
C2509 C2525 1.349 . S
C2510 C2508 1.327 . S
C2510 C2529 1.429 . S
C2510 H2534 0.950 . S
C2511 C2528 1.574 . S
C2511 C2530 1.368 . S
C2511 H2535 0.949 . S
H2512 C2516 0.949 . S
C2513 C2514 1.349 . S
C2513 C2515 1.327 . S
C2513 H2536 0.950 . S
C2514 C2513 1.349 . S
C2514 C2526 1.349 . S
C2515 C2513 1.327 . S
C2515 C2531 1.429 . S
C2515 H2537 0.950 . S
C2516 H2512 0.949 . S
C2516 C2524 1.574 . S
C2516 C2532 1.368 . S
H2517 C2525 0.950 . S
H2518 C2523 0.950 . S
H2519 C2524 0.949 . S
H2520 C2526 0.950 . S
H2521 C2527 0.950 . S
H2522 C2528 0.949 . S
C2523 H2518 0.950 . S
C2523 C2525 1.327 . S
C2523 C2529 1.429 . S
C2524 C2516 1.574 . S
C2524 H2519 0.949 . S
C2524 C2530 1.368 . S
C2525 C2509 1.349 . S
C2525 H2517 0.950 . S
C2525 C2523 1.327 . S
C2526 C2514 1.349 . S
C2526 H2520 0.950 . S
C2526 C2527 1.327 . S
C2527 H2521 0.950 . S
C2527 C2526 1.327 . S
C2527 C2531 1.429 . S
C2528 C2511 1.574 . S
C2528 H2522 0.949 . S
C2528 C2532 1.368 . S
C2529 C2510 1.429 . S
C2529 C2523 1.429 . S
C2529 C2530 1.523 . S
C2530 C2511 1.368 . S
C2530 C2524 1.368 . S
C2530 C2529 1.523 . S
C2531 C2515 1.429 . S
C2531 C2527 1.429 . S
C2531 C2532 1.523 . S
C2532 C2516 1.368 . S
C2532 C2528 1.368 . S
C2532 C2531 1.523 . S
H2533 C2508 0.950 . S
H2534 C2510 0.950 . S
H2535 C2511 0.949 . S
H2536 C2513 0.950 . S
H2537 C2515 0.950 . S
C2538 C2539 1.349 . S
C2538 C2540 1.327 . S
C2538 H2563 0.950 . S
C2539 C2538 1.349 . S
C2539 C2555 1.349 . S
C2540 C2538 1.327 . S
C2540 C2559 1.429 . S
C2540 H2564 0.950 . S
C2541 C2558 1.574 . S
C2541 C2560 1.368 . S
C2541 H2565 0.949 . S
H2542 C2546 0.949 . S
C2543 C2544 1.349 . S
C2543 C2545 1.327 . S
C2543 H2566 0.950 . S
C2544 C2543 1.349 . S
C2544 C2556 1.349 . S
C2545 C2543 1.327 . S
C2545 C2561 1.429 . S
C2545 H2567 0.950 . S
C2546 H2542 0.949 . S
C2546 C2554 1.574 . S
C2546 C2562 1.368 . S
H2547 C2555 0.950 . S
H2548 C2553 0.950 . S
H2549 C2554 0.949 . S
H2550 C2556 0.950 . S
H2551 C2557 0.950 . S
H2552 C2558 0.949 . S
C2553 H2548 0.950 . S
C2553 C2555 1.327 . S
C2553 C2559 1.429 . S
C2554 C2546 1.574 . S
C2554 H2549 0.949 . S
C2554 C2560 1.368 . S
C2555 C2539 1.349 . S
C2555 H2547 0.950 . S
C2555 C2553 1.327 . S
C2556 C2544 1.349 . S
C2556 H2550 0.950 . S
C2556 C2557 1.327 . S
C2557 H2551 0.950 . S
C2557 C2556 1.327 . S
C2557 C2561 1.429 . S
C2558 C2541 1.574 . S
C2558 H2552 0.949 . S
C2558 C2562 1.368 . S
C2559 C2540 1.429 . S
C2559 C2553 1.429 . S
C2559 C2560 1.523 . S
C2560 C2541 1.368 . S
C2560 C2554 1.368 . S
C2560 C2559 1.523 . S
C2561 C2545 1.429 . S
C2561 C2557 1.429 . S
C2561 C2562 1.523 . S
C2562 C2546 1.368 . S
C2562 C2558 1.368 . S
C2562 C2561 1.523 . S
H2563 C2538 0.950 . S
H2564 C2540 0.950 . S
H2565 C2541 0.949 . S
H2566 C2543 0.950 . S
H2567 C2545 0.950 . S
C2568 C2569 1.349 . S
C2568 C2570 1.327 . S
C2568 H2593 0.950 . S
C2569 C2568 1.349 . S
C2569 C2585 1.349 . S
C2570 C2568 1.327 . S
C2570 C2589 1.429 . S
C2570 H2594 0.950 . S
C2571 C2588 1.574 . S
C2571 C2590 1.368 . S
C2571 H2595 0.949 . S
H2572 C2576 0.949 . S
C2573 C2574 1.349 . S
C2573 C2575 1.327 . S
C2573 H2596 0.950 . S
C2574 C2573 1.349 . S
C2574 C2586 1.349 . S
C2575 C2573 1.327 . S
C2575 C2591 1.429 . S
C2575 H2597 0.950 . S
C2576 H2572 0.949 . S
C2576 C2584 1.574 . S
C2576 C2592 1.368 . S
H2577 C2585 0.950 . S
H2578 C2583 0.950 . S
H2579 C2584 0.949 . S
H2580 C2586 0.950 . S
H2581 C2587 0.950 . S
H2582 C2588 0.949 . S
C2583 H2578 0.950 . S
C2583 C2585 1.327 . S
C2583 C2589 1.429 . S
C2584 C2576 1.574 . S
C2584 H2579 0.949 . S
C2584 C2590 1.368 . S
C2585 C2569 1.349 . S
C2585 H2577 0.950 . S
C2585 C2583 1.327 . S
C2586 C2574 1.349 . S
C2586 H2580 0.950 . S
C2586 C2587 1.327 . S
C2587 H2581 0.950 . S
C2587 C2586 1.327 . S
C2587 C2591 1.429 . S
C2588 C2571 1.574 . S
C2588 H2582 0.949 . S
C2588 C2592 1.368 . S
C2589 C2570 1.429 . S
C2589 C2583 1.429 . S
C2589 C2590 1.523 . S
C2590 C2571 1.368 . S
C2590 C2584 1.368 . S
C2590 C2589 1.523 . S
C2591 C2575 1.429 . S
C2591 C2587 1.429 . S
C2591 C2592 1.523 . S
C2592 C2576 1.368 . S
C2592 C2588 1.368 . S
C2592 C2591 1.523 . S
H2593 C2568 0.950 . S
H2594 C2570 0.950 . S
H2595 C2571 0.949 . S
H2596 C2573 0.950 . S
H2597 C2575 0.950 . S
C2598 C2599 1.349 . S
C2598 C2600 1.327 . S
C2598 H2623 0.950 . S
C2599 C2598 1.349 . S
C2599 C2615 1.349 . S
C2600 C2598 1.327 . S
C2600 C2619 1.429 . S
C2600 H2624 0.950 . S
C2601 C2618 1.574 . S
C2601 C2620 1.368 . S
C2601 H2625 0.949 . S
H2602 C2606 0.949 . S
C2603 C2604 1.349 . S
C2603 C2605 1.327 . S
C2603 H2626 0.950 . S
C2604 C2603 1.349 . S
C2604 C2616 1.349 . S
C2605 C2603 1.327 . S
C2605 C2621 1.429 . S
C2605 H2627 0.950 . S
C2606 H2602 0.949 . S
C2606 C2614 1.574 . S
C2606 C2622 1.368 . S
H2607 C2615 0.950 . S
H2608 C2613 0.950 . S
H2609 C2614 0.949 . S
H2610 C2616 0.950 . S
H2611 C2617 0.950 . S
H2612 C2618 0.949 . S
C2613 H2608 0.950 . S
C2613 C2615 1.327 . S
C2613 C2619 1.429 . S
C2614 C2606 1.574 . S
C2614 H2609 0.949 . S
C2614 C2620 1.368 . S
C2615 C2599 1.349 . S
C2615 H2607 0.950 . S
C2615 C2613 1.327 . S
C2616 C2604 1.349 . S
C2616 H2610 0.950 . S
C2616 C2617 1.327 . S
C2617 H2611 0.950 . S
C2617 C2616 1.327 . S
C2617 C2621 1.429 . S
C2618 C2601 1.574 . S
C2618 H2612 0.949 . S
C2618 C2622 1.368 . S
C2619 C2600 1.429 . S
C2619 C2613 1.429 . S
C2619 C2620 1.523 . S
C2620 C2601 1.368 . S
C2620 C2614 1.368 . S
C2620 C2619 1.523 . S
C2621 C2605 1.429 . S
C2621 C2617 1.429 . S
C2621 C2622 1.523 . S
C2622 C2606 1.368 . S
C2622 C2618 1.368 . S
C2622 C2621 1.523 . S
H2623 C2598 0.950 . S
H2624 C2600 0.950 . S
H2625 C2601 0.949 . S
H2626 C2603 0.950 . S
H2627 C2605 0.950 . S
C2628 C2629 1.349 . S
C2628 C2630 1.327 . S
C2628 H2653 0.950 . S
C2629 C2628 1.349 . S
C2629 C2645 1.349 . S
C2630 C2628 1.327 . S
C2630 C2649 1.429 . S
C2630 H2654 0.950 . S
C2631 C2648 1.574 . S
C2631 C2650 1.368 . S
C2631 H2655 0.949 . S
H2632 C2636 0.949 . S
C2633 C2634 1.349 . S
C2633 C2635 1.327 . S
C2633 H2656 0.950 . S
C2634 C2633 1.349 . S
C2634 C2646 1.349 . S
C2635 C2633 1.327 . S
C2635 C2651 1.429 . S
C2635 H2657 0.950 . S
C2636 H2632 0.949 . S
C2636 C2644 1.574 . S
C2636 C2652 1.368 . S
H2637 C2645 0.950 . S
H2638 C2643 0.950 . S
H2639 C2644 0.949 . S
H2640 C2646 0.950 . S
H2641 C2647 0.950 . S
H2642 C2648 0.949 . S
C2643 H2638 0.950 . S
C2643 C2645 1.327 . S
C2643 C2649 1.429 . S
C2644 C2636 1.574 . S
C2644 H2639 0.949 . S
C2644 C2650 1.368 . S
C2645 C2629 1.349 . S
C2645 H2637 0.950 . S
C2645 C2643 1.327 . S
C2646 C2634 1.349 . S
C2646 H2640 0.950 . S
C2646 C2647 1.327 . S
C2647 H2641 0.950 . S
C2647 C2646 1.327 . S
C2647 C2651 1.429 . S
C2648 C2631 1.574 . S
C2648 H2642 0.949 . S
C2648 C2652 1.368 . S
C2649 C2630 1.429 . S
C2649 C2643 1.429 . S
C2649 C2650 1.523 . S
C2650 C2631 1.368 . S
C2650 C2644 1.368 . S
C2650 C2649 1.523 . S
C2651 C2635 1.429 . S
C2651 C2647 1.429 . S
C2651 C2652 1.523 . S
C2652 C2636 1.368 . S
C2652 C2648 1.368 . S
C2652 C2651 1.523 . S
H2653 C2628 0.950 . S
H2654 C2630 0.950 . S
H2655 C2631 0.949 . S
H2656 C2633 0.950 . S
H2657 C2635 0.950 . S
C2658 C2659 1.349 . S
C2658 C2660 1.327 . S
C2658 H2683 0.950 . S
C2659 C2658 1.349 . S
C2659 C2675 1.349 . S
C2660 C2658 1.327 . S
C2660 C2679 1.429 . S
C2660 H2684 0.950 . S
C2661 C2678 1.574 . S
C2661 C2680 1.368 . S
C2661 H2685 0.949 . S
H2662 C2666 0.949 . S
C2663 C2664 1.349 . S
C2663 C2665 1.327 . S
C2663 H2686 0.950 . S
C2664 C2663 1.349 . S
C2664 C2676 1.349 . S
C2665 C2663 1.327 . S
C2665 C2681 1.429 . S
C2665 H2687 0.950 . S
C2666 H2662 0.949 . S
C2666 C2674 1.574 . S
C2666 C2682 1.368 . S
H2667 C2675 0.950 . S
H2668 C2673 0.950 . S
H2669 C2674 0.949 . S
H2670 C2676 0.950 . S
H2671 C2677 0.950 . S
H2672 C2678 0.949 . S
C2673 H2668 0.950 . S
C2673 C2675 1.327 . S
C2673 C2679 1.429 . S
C2674 C2666 1.574 . S
C2674 H2669 0.949 . S
C2674 C2680 1.368 . S
C2675 C2659 1.349 . S
C2675 H2667 0.950 . S
C2675 C2673 1.327 . S
C2676 C2664 1.349 . S
C2676 H2670 0.950 . S
C2676 C2677 1.327 . S
C2677 H2671 0.950 . S
C2677 C2676 1.327 . S
C2677 C2681 1.429 . S
C2678 C2661 1.574 . S
C2678 H2672 0.949 . S
C2678 C2682 1.368 . S
C2679 C2660 1.429 . S
C2679 C2673 1.429 . S
C2679 C2680 1.523 . S
C2680 C2661 1.368 . S
C2680 C2674 1.368 . S
C2680 C2679 1.523 . S
C2681 C2665 1.429 . S
C2681 C2677 1.429 . S
C2681 C2682 1.523 . S
C2682 C2666 1.368 . S
C2682 C2678 1.368 . S
C2682 C2681 1.523 . S
H2683 C2658 0.950 . S
H2684 C2660 0.950 . S
H2685 C2661 0.949 . S
H2686 C2663 0.950 . S
H2687 C2665 0.950 . S
C2688 C2689 1.349 . S
C2688 C2690 1.327 . S
C2688 H2713 0.950 . S
C2689 C2688 1.349 . S
C2689 C2705 1.349 . S
C2690 C2688 1.327 . S
C2690 C2709 1.429 . S
C2690 H2714 0.950 . S
C2691 C2708 1.574 . S
C2691 C2710 1.368 . S
C2691 H2715 0.949 . S
H2692 C2696 0.949 . S
C2693 C2694 1.349 . S
C2693 C2695 1.327 . S
C2693 H2716 0.950 . S
C2694 C2693 1.349 . S
C2694 C2706 1.349 . S
C2695 C2693 1.327 . S
C2695 C2711 1.429 . S
C2695 H2717 0.950 . S
C2696 H2692 0.949 . S
C2696 C2704 1.574 . S
C2696 C2712 1.368 . S
H2697 C2705 0.950 . S
H2698 C2703 0.950 . S
H2699 C2704 0.949 . S
H2700 C2706 0.950 . S
H2701 C2707 0.950 . S
H2702 C2708 0.949 . S
C2703 H2698 0.950 . S
C2703 C2705 1.327 . S
C2703 C2709 1.429 . S
C2704 C2696 1.574 . S
C2704 H2699 0.949 . S
C2704 C2710 1.368 . S
C2705 C2689 1.349 . S
C2705 H2697 0.950 . S
C2705 C2703 1.327 . S
C2706 C2694 1.349 . S
C2706 H2700 0.950 . S
C2706 C2707 1.327 . S
C2707 H2701 0.950 . S
C2707 C2706 1.327 . S
C2707 C2711 1.429 . S
C2708 C2691 1.574 . S
C2708 H2702 0.949 . S
C2708 C2712 1.368 . S
C2709 C2690 1.429 . S
C2709 C2703 1.429 . S
C2709 C2710 1.523 . S
C2710 C2691 1.368 . S
C2710 C2704 1.368 . S
C2710 C2709 1.523 . S
C2711 C2695 1.429 . S
C2711 C2707 1.429 . S
C2711 C2712 1.523 . S
C2712 C2696 1.368 . S
C2712 C2708 1.368 . S
C2712 C2711 1.523 . S
H2713 C2688 0.950 . S
H2714 C2690 0.950 . S
H2715 C2691 0.949 . S
H2716 C2693 0.950 . S
H2717 C2695 0.950 . S
C1099 C253 1.441 . S
C1104 C409 1.390 . S
C1129 C272 1.473 . S
C1134 C493 1.424 . S
C1159 C234 1.426 . S
C1164 C573 1.431 . S
C1189 C215 1.408 . S
C1194 C489 1.413 1_556 S
C1224 C577 1.376 . S
C1219 C177 1.427 . S
C1249 C196 1.381 . S
C1254 C405 1.382 1_556 S
C1284 C398 1.486 . S
C1279 C220 1.463 . S
C1314 C482 1.509 . S
C1309 C182 1.487 . S
C1339 C201 1.479 . S
C1344 C584 1.522 . S
C1369 C258 1.444 . S
C1374 C500 1.485 . S
C1399 C277 1.432 . S
C1404 C566 1.451 . S
C1434 C416 1.466 . S
C1429 C239 1.423 . S
C1464 C661 1.390 . S
C1459 C25 1.441 . S
C1489 C44 1.473 . S
C1494 C745 1.424 . S
C1519 C6 1.426 . S
C1524 C825 1.431 . S
C1549 C329 1.408 . S
C1554 C741 1.413 . S
C1579 C291 1.427 . S
C1584 C829 1.373 . S
C1609 C310 1.381 . S
C1614 C657 1.384 . S
C1639 C334 1.463 . S
C1644 C650 1.486 . S
C1669 C296 1.487 . S
C1674 C734 1.509 . S
C1704 C836 1.522 . S
C1699 C315 1.478 . S
C1729 C30 1.444 . S
C1734 C752 1.485 . S
C1764 C818 1.452 . S
C1759 C49 1.432 . S
C1789 C11 1.424 . S
C1794 C668 1.467 . S
C1824 C913 1.390 . S
C1819 C139 1.441 . S
C1849 C158 1.473 . S
C1854 C997 1.424 . S
C1884 C1077 1.430 . S
C1879 C120 1.426 . S
C1914 C993 1.412 . S
C1909 C101 1.408 . S
C1944 C1081 1.374 . S
C1939 C63 1.427 . S
C1969 C82 1.381 . S
C1974 C909 1.384 . S
C1999 C106 1.463 . S
C2004 C902 1.486 . S
C2029 C68 1.486 . S
C2034 C986 1.509 . S
C2064 C1088 1.522 . S
C2059 C87 1.479 . S
C2089 C144 1.444 . S
C2094 C1004 1.485 . S
C2119 C163 1.432 . S
C2124 C1070 1.451 . S
C2149 C125 1.423 . S
C2154 C920 1.466 . S
C2179 C287 1.652 . S
C2184 C412 1.532 . S
C2214 C496 1.600 . S
C2209 C306 1.742 . S
C2239 C325 1.665 . S
C2244 C568 1.468 . S
C2269 C116 1.701 . S
C2274 C484 1.493 . S
C2299 C135 1.688 . S
C2304 C580 1.552 . S
C2334 C400 1.429 . S
C2329 C154 1.611 . S
C2359 C59 1.652 . S
C2364 C664 1.532 . S
C2389 C78 1.742 . S
C2394 C748 1.600 . S
C2419 C97 1.665 . S
C2424 C820 1.469 . S
C2449 C230 1.701 . S
C2454 C736 1.493 . S
C2484 C832 1.552 . S
C2479 C249 1.687 . S
C2509 C268 1.610 . S
C2514 C652 1.429 . S
C2539 C173 1.652 . S
C2544 C916 1.532 . S
C2569 C192 1.742 . S
C2574 C1000 1.600 . S
C2604 C1072 1.468 . S
C2599 C211 1.665 . S
C2629 C2 1.701 . S
C2634 C988 1.493 . S
C2659 C21 1.688 . S
C2664 C1084 1.552 . S
C2689 C40 1.611 . S
C2694 C904 1.429 . S
