# Generated by pormake.
# Topology llk, (3,12)-cn, num edge types: 1
# Building blocks:
#     Node 0, Type 0, BuildingBlock: QEWDON_clean_linker_0, # of connection points: 3
#     Node 1, Type 0, BuildingBlock: QEWDON_clean_linker_0, # of connection points: 3
#     Node 2, Type 0, BuildingBlock: QEWDON_clean_linker_0, # of connection points: 3
#     Node 3, Type 0, BuildingBlock: QEWDON_clean_linker_0, # of connection points: 3
#     Node 4, Type 0, BuildingBlock: QEWDON_clean_linker_0, # of connection points: 3
#     Node 5, Type 0, BuildingBlock: QEWDON_clean_linker_0, # of connection points: 3
#     Node 6, Type 0, BuildingBlock: QEWDON_clean_linker_0, # of connection points: 3
#     Node 7, Type 0, BuildingBlock: QEWDON_clean_linker_0, # of connection points: 3
#     Node 8, Type 0, BuildingBlock: QEWDON_clean_linker_0, # of connection points: 3
#     Node 9, Type 0, BuildingBlock: QEWDON_clean_linker_0, # of connection points: 3
#     Node 10, Type 0, BuildingBlock: QEWDON_clean_linker_0, # of connection points: 3
#     Node 11, Type 0, BuildingBlock: QEWDON_clean_linker_0, # of connection points: 3
#     Node 12, Type 0, BuildingBlock: QEWDON_clean_linker_0, # of connection points: 3
#     Node 13, Type 0, BuildingBlock: QEWDON_clean_linker_0, # of connection points: 3
#     Node 14, Type 0, BuildingBlock: QEWDON_clean_linker_0, # of connection points: 3
#     Node 15, Type 0, BuildingBlock: QEWDON_clean_linker_0, # of connection points: 3
#     Node 16, Type 0, BuildingBlock: QEWDON_clean_linker_0, # of connection points: 3
#     Node 17, Type 0, BuildingBlock: QEWDON_clean_linker_0, # of connection points: 3
#     Node 18, Type 0, BuildingBlock: QEWDON_clean_linker_0, # of connection points: 3
#     Node 19, Type 0, BuildingBlock: QEWDON_clean_linker_0, # of connection points: 3
#     Node 20, Type 0, BuildingBlock: QEWDON_clean_linker_0, # of connection points: 3
#     Node 21, Type 0, BuildingBlock: QEWDON_clean_linker_0, # of connection points: 3
#     Node 22, Type 0, BuildingBlock: QEWDON_clean_linker_0, # of connection points: 3
#     Node 23, Type 0, BuildingBlock: QEWDON_clean_linker_0, # of connection points: 3
#     Node 24, Type 1, BuildingBlock: QEWDON_clean_sbu_0, # of connection points: 12
#     Node 25, Type 1, BuildingBlock: QEWDON_clean_sbu_0, # of connection points: 12
#     Node 26, Type 1, BuildingBlock: QEWDON_clean_sbu_0, # of connection points: 12
#     Node 27, Type 1, BuildingBlock: QEWDON_clean_sbu_0, # of connection points: 12
#     Node 28, Type 1, BuildingBlock: QEWDON_clean_sbu_0, # of connection points: 12
#     Node 29, Type 1, BuildingBlock: QEWDON_clean_sbu_0, # of connection points: 12
#     Edge 30, Type (0, 1), BuildingBlock: CIFDUS_clean_linker_0, # of connection points: 2
#     Edge 31, Type (0, 1), BuildingBlock: CIFDUS_clean_linker_0, # of connection points: 2
#     Edge 32, Type (0, 1), BuildingBlock: CIFDUS_clean_linker_0, # of connection points: 2
#     Edge 33, Type (0, 1), BuildingBlock: CIFDUS_clean_linker_0, # of connection points: 2
#     Edge 34, Type (0, 1), BuildingBlock: CIFDUS_clean_linker_0, # of connection points: 2
#     Edge 35, Type (0, 1), BuildingBlock: CIFDUS_clean_linker_0, # of connection points: 2
#     Edge 36, Type (0, 1), BuildingBlock: CIFDUS_clean_linker_0, # of connection points: 2
#     Edge 37, Type (0, 1), BuildingBlock: CIFDUS_clean_linker_0, # of connection points: 2
#     Edge 38, Type (0, 1), BuildingBlock: CIFDUS_clean_linker_0, # of connection points: 2
#     Edge 39, Type (0, 1), BuildingBlock: CIFDUS_clean_linker_0, # of connection points: 2
#     Edge 40, Type (0, 1), BuildingBlock: CIFDUS_clean_linker_0, # of connection points: 2
#     Edge 41, Type (0, 1), BuildingBlock: CIFDUS_clean_linker_0, # of connection points: 2
#     Edge 42, Type (0, 1), BuildingBlock: CIFDUS_clean_linker_0, # of connection points: 2
#     Edge 43, Type (0, 1), BuildingBlock: CIFDUS_clean_linker_0, # of connection points: 2
#     Edge 44, Type (0, 1), BuildingBlock: CIFDUS_clean_linker_0, # of connection points: 2
#     Edge 45, Type (0, 1), BuildingBlock: CIFDUS_clean_linker_0, # of connection points: 2
#     Edge 46, Type (0, 1), BuildingBlock: CIFDUS_clean_linker_0, # of connection points: 2
#     Edge 47, Type (0, 1), BuildingBlock: CIFDUS_clean_linker_0, # of connection points: 2
#     Edge 48, Type (0, 1), BuildingBlock: CIFDUS_clean_linker_0, # of connection points: 2
#     Edge 49, Type (0, 1), BuildingBlock: CIFDUS_clean_linker_0, # of connection points: 2
#     Edge 50, Type (0, 1), BuildingBlock: CIFDUS_clean_linker_0, # of connection points: 2
#     Edge 51, Type (0, 1), BuildingBlock: CIFDUS_clean_linker_0, # of connection points: 2
#     Edge 52, Type (0, 1), BuildingBlock: CIFDUS_clean_linker_0, # of connection points: 2
#     Edge 53, Type (0, 1), BuildingBlock: CIFDUS_clean_linker_0, # of connection points: 2
#     Edge 54, Type (0, 1), BuildingBlock: CIFDUS_clean_linker_0, # of connection points: 2
#     Edge 55, Type (0, 1), BuildingBlock: CIFDUS_clean_linker_0, # of connection points: 2
#     Edge 56, Type (0, 1), BuildingBlock: CIFDUS_clean_linker_0, # of connection points: 2
#     Edge 57, Type (0, 1), BuildingBlock: CIFDUS_clean_linker_0, # of connection points: 2
#     Edge 58, Type (0, 1), BuildingBlock: CIFDUS_clean_linker_0, # of connection points: 2
#     Edge 59, Type (0, 1), BuildingBlock: CIFDUS_clean_linker_0, # of connection points: 2
#     Edge 60, Type (0, 1), BuildingBlock: CIFDUS_clean_linker_0, # of connection points: 2
#     Edge 61, Type (0, 1), BuildingBlock: CIFDUS_clean_linker_0, # of connection points: 2
#     Edge 62, Type (0, 1), BuildingBlock: CIFDUS_clean_linker_0, # of connection points: 2
#     Edge 63, Type (0, 1), BuildingBlock: CIFDUS_clean_linker_0, # of connection points: 2
#     Edge 64, Type (0, 1), BuildingBlock: CIFDUS_clean_linker_0, # of connection points: 2
#     Edge 65, Type (0, 1), BuildingBlock: CIFDUS_clean_linker_0, # of connection points: 2
#     Edge 66, Type (0, 1), BuildingBlock: CIFDUS_clean_linker_0, # of connection points: 2
#     Edge 67, Type (0, 1), BuildingBlock: CIFDUS_clean_linker_0, # of connection points: 2
#     Edge 68, Type (0, 1), BuildingBlock: CIFDUS_clean_linker_0, # of connection points: 2
#     Edge 69, Type (0, 1), BuildingBlock: CIFDUS_clean_linker_0, # of connection points: 2
#     Edge 70, Type (0, 1), BuildingBlock: CIFDUS_clean_linker_0, # of connection points: 2
#     Edge 71, Type (0, 1), BuildingBlock: CIFDUS_clean_linker_0, # of connection points: 2
#     Edge 72, Type (0, 1), BuildingBlock: CIFDUS_clean_linker_0, # of connection points: 2
#     Edge 73, Type (0, 1), BuildingBlock: CIFDUS_clean_linker_0, # of connection points: 2
#     Edge 74, Type (0, 1), BuildingBlock: CIFDUS_clean_linker_0, # of connection points: 2
#     Edge 75, Type (0, 1), BuildingBlock: CIFDUS_clean_linker_0, # of connection points: 2
#     Edge 76, Type (0, 1), BuildingBlock: CIFDUS_clean_linker_0, # of connection points: 2
#     Edge 77, Type (0, 1), BuildingBlock: CIFDUS_clean_linker_0, # of connection points: 2
#     Edge 78, Type (0, 1), BuildingBlock: CIFDUS_clean_linker_0, # of connection points: 2
#     Edge 79, Type (0, 1), BuildingBlock: CIFDUS_clean_linker_0, # of connection points: 2
#     Edge 80, Type (0, 1), BuildingBlock: CIFDUS_clean_linker_0, # of connection points: 2
#     Edge 81, Type (0, 1), BuildingBlock: CIFDUS_clean_linker_0, # of connection points: 2
#     Edge 82, Type (0, 1), BuildingBlock: CIFDUS_clean_linker_0, # of connection points: 2
#     Edge 83, Type (0, 1), BuildingBlock: CIFDUS_clean_linker_0, # of connection points: 2
#     Edge 84, Type (0, 1), BuildingBlock: CIFDUS_clean_linker_0, # of connection points: 2
#     Edge 85, Type (0, 1), BuildingBlock: CIFDUS_clean_linker_0, # of connection points: 2
#     Edge 86, Type (0, 1), BuildingBlock: CIFDUS_clean_linker_0, # of connection points: 2
#     Edge 87, Type (0, 1), BuildingBlock: CIFDUS_clean_linker_0, # of connection points: 2
#     Edge 88, Type (0, 1), BuildingBlock: CIFDUS_clean_linker_0, # of connection points: 2
#     Edge 89, Type (0, 1), BuildingBlock: CIFDUS_clean_linker_0, # of connection points: 2
#     Edge 90, Type (0, 1), BuildingBlock: CIFDUS_clean_linker_0, # of connection points: 2
#     Edge 91, Type (0, 1), BuildingBlock: CIFDUS_clean_linker_0, # of connection points: 2
#     Edge 92, Type (0, 1), BuildingBlock: CIFDUS_clean_linker_0, # of connection points: 2
#     Edge 93, Type (0, 1), BuildingBlock: CIFDUS_clean_linker_0, # of connection points: 2
#     Edge 94, Type (0, 1), BuildingBlock: CIFDUS_clean_linker_0, # of connection points: 2
#     Edge 95, Type (0, 1), BuildingBlock: CIFDUS_clean_linker_0, # of connection points: 2
#     Edge 96, Type (0, 1), BuildingBlock: CIFDUS_clean_linker_0, # of connection points: 2
#     Edge 97, Type (0, 1), BuildingBlock: CIFDUS_clean_linker_0, # of connection points: 2
#     Edge 98, Type (0, 1), BuildingBlock: CIFDUS_clean_linker_0, # of connection points: 2
#     Edge 99, Type (0, 1), BuildingBlock: CIFDUS_clean_linker_0, # of connection points: 2
#     Edge 100, Type (0, 1), BuildingBlock: CIFDUS_clean_linker_0, # of connection points: 2
#     Edge 101, Type (0, 1), BuildingBlock: CIFDUS_clean_linker_0, # of connection points: 2
# Relax obj value: 0.114
# Max RMSD: 0.259
# Mean RMSD: 0.203
data_MOF--net-llk--node1-QEWDON_clean_sbu_0--node2-QEWDON_clean_linker_0--edge1-CIFDUS_clean_linker_0
_symmetry_space_group_name_H-M    P1
_symmetry_Int_Tables_number       1
_symmetry_cell_setting            triclinic
loop_
_symmetry_equiv_pos_as_xyz
'x, y, z'
_cell_length_a     43.586166
_cell_length_b     44.352264
_cell_length_c     43.000374
_cell_angle_alpha  90.124938
_cell_angle_beta   90.047502
_cell_angle_gamma 89.608548
loop_
_atom_site_label
_atom_site_type_symbol
_atom_site_fract_x
_atom_site_fract_y
_atom_site_fract_z
_atom_type_partial_charge
H0 H 0.03687 0.32849 0.30676 0.0
C1 C 0.04327 0.30717 0.31721 0.0
C2 C 0.05307 0.30701 0.34833 0.0
C3 C 0.03948 0.28017 0.30036 0.0
H4 H 0.06557 0.27889 0.38721 0.0
C5 C 0.05856 0.2793 0.36302 0.0
C6 C 0.05387 0.25199 0.34719 0.0
C7 C 0.04538 0.25262 0.31561 0.0
C8 C 0.02696 0.28101 0.26788 0.0
H9 H 0.04202 0.23151 0.30346 0.0
C10 C 0.03245 0.306 0.24845 0.0
C11 C 0.0181 0.30871 0.21924 0.0
C12 C 0.00784 0.2579 0.25664 0.0
H13 H 0.00217 0.23866 0.27088 0.0
C14 C 0.99471 0.25981 0.22705 0.0
H15 H 0.04779 0.32366 0.25602 0.0
C16 C -0.00042 0.2851 0.2085 0.0
H17 H 0.98811 0.28658 0.1862 0.0
H18 H 0.97996 0.24195 0.21882 0.0
H19 H 0.72919 0.11099 0.27121 0.0
C20 C 0.71942 0.10493 0.2489 0.0
C21 C 0.68875 0.09616 0.24789 0.0
C22 C 0.73768 0.10454 0.22202 0.0
H23 H 0.65101 0.08416 0.21884 0.0
C24 C 0.67508 0.08998 0.21923 0.0
C25 C 0.69268 0.08894 0.19179 0.0
C26 C 0.72412 0.09636 0.19343 0.0
C27 C 0.77115 0.11086 0.22473 0.0
H28 H 0.73835 0.09432 0.17292 0.0
C29 C 0.78736 0.10231 0.25177 0.0
C30 C 0.81806 0.11063 0.2563 0.0
C31 C 0.78684 0.1265 0.20129 0.0
H32 H 0.77513 0.13362 0.18031 0.0
C33 C 0.81771 0.13398 0.20518 0.0
H34 H 0.77589 0.08973 0.26984 0.0
C35 C 0.83318 0.12642 0.2326 0.0
H36 H 0.85698 0.13284 0.23522 0.0
H37 H 0.82957 0.14616 0.18707 0.0
H38 H 0.98261 0.74455 0.30564 0.0
C39 C 0.98375 0.73042 0.28517 0.0
C40 C 0.98729 0.69917 0.28917 0.0
C41 C 0.98164 0.74323 0.25523 0.0
H42 H 0.98944 0.65614 0.26596 0.0
C43 C 0.98726 0.68031 0.26294 0.0
C44 C 0.98435 0.69227 0.23291 0.0
C45 C 0.98232 0.72372 0.22926 0.0
C46 C 0.97823 0.77671 0.2511 0.0
H47 H 0.98111 0.7328 0.206 0.0
C48 C 0.98883 0.79706 0.274 0.0
C49 C 0.98396 0.82829 0.27103 0.0
C50 C 0.96347 0.78874 0.2246 0.0
H51 H 0.95377 0.77437 0.20686 0.0
C52 C 0.96007 0.81982 0.22086 0.0
H53 H 0.00077 0.78896 0.29443 0.0
C54 C 0.97011 0.83952 0.24392 0.0
H55 H 0.96583 0.86345 0.24115 0.0
H56 H 0.94871 0.82864 0.20038 0.0
H57 H 0.25439 0.98445 0.30181 0.0
C58 C 0.26879 0.9884 0.28174 0.0
C59 C 0.29786 1.00106 0.28622 0.0
C60 C 0.25854 0.98075 0.25164 0.0
H61 H 0.34051 0.01281 0.26474 0.0
C62 C 0.31744 0.00472 0.26069 0.0
C63 C 0.30806 0.99688 0.2305 0.0
C64 C 0.27824 0.98564 0.22619 0.0
C65 C 0.22761 0.9672 0.24674 0.0
H66 H 0.27023 0.98095 0.20285 0.0
C67 C 0.20255 0.97561 0.26562 0.0
C68 C 0.17369 0.96195 0.26195 0.0
C69 C 0.22307 0.94518 0.22356 0.0
H70 H 0.24183 0.93753 0.209 0.0
C71 C 0.19432 0.93211 0.21932 0.0
H72 H 0.20557 0.99242 0.28364 0.0
C73 C 0.16978 0.94029 0.23843 0.0
H74 H 0.14779 0.92959 0.23491 0.0
H75 H 0.19116 0.91522 0.20142 0.0
H76 H 0.97962 0.71012 0.7294 0.0
C77 C 0.9866 0.73009 0.71686 0.0
C78 C 0.98864 0.72913 0.68422 0.0
C79 C 0.99292 0.75681 0.73333 0.0
H80 H -0.00091 0.7547 0.64297 0.0
C81 C 0.99701 0.75533 0.66807 0.0
C82 C 0.00341 0.78221 0.68397 0.0
C83 C 0.00127 0.78278 0.71657 0.0
C84 C 0.99047 0.75783 0.76793 0.0
H85 H 0.00702 0.8033 0.72893 0.0
C86 C 0.00046 0.73342 0.78656 0.0
C87 C -0.0022 0.73461 0.81929 0.0
C88 C 0.97778 0.78342 0.78254 0.0
H89 H 0.96932 0.80229 0.769 0.0
C90 C 0.9752 0.78477 0.8148 0.0
H91 H 0.01073 0.71376 0.77567 0.0
C92 C 0.98502 0.76063 0.83305 0.0
H93 H 0.98186 0.76212 0.85798 0.0
H94 H 0.96515 0.8045 0.82572 0.0
H95 H 0.31437 0.9666 0.73679 0.0
C96 C 0.32172 0.96107 0.76019 0.0
C97 C 0.34975 0.94604 0.76396 0.0
C98 C 0.30542 0.97232 0.78604 0.0
H99 H 0.38365 0.93037 0.79617 0.0
C100 C 0.36132 0.94107 0.79372 0.0
C101 C 0.3467 0.95365 0.81976 0.0
C102 C 0.31805 0.96807 0.81598 0.0
C103 C 0.27814 0.99231 0.78084 0.0
H104 H 0.30685 0.9779 0.83608 0.0
C105 C 0.259 0.98789 0.75478 0.0
C106 C 0.23621 0.00909 0.7468 0.0
C107 C 0.27279 0.01772 0.79986 0.0
H108 H 0.28732 0.02257 0.81963 0.0
C109 C 0.24935 0.0382 0.79274 0.0
H110 H 0.26252 0.96843 0.73992 0.0
C111 C 0.23137 0.03416 0.76622 0.0
H112 H 0.21367 0.05062 0.7609 0.0
H113 H 0.2456 0.05771 0.80746 0.0
H114 H 0.99699 0.28579 0.70473 0.0
C115 C 4e-05 0.29402 0.72827 0.0
C116 C 0.01146 0.32316 0.73272 0.0
C117 C 0.99089 0.27633 0.75381 0.0
H118 H 0.02308 0.35721 0.76634 0.0
C119 C 0.01442 0.33456 0.76291 0.0
C120 C 0.0053 0.31765 0.78867 0.0
C121 C 0.9934 0.28858 0.78412 0.0
C122 C 0.97731 0.24592 0.74835 0.0
H123 H 0.98636 0.27562 0.80417 0.0
C124 C 0.98773 0.22751 0.72363 0.0
C125 C 0.97343 0.19988 0.71666 0.0
C126 C 0.95286 0.23568 0.76675 0.0
H127 H 0.94376 0.24934 0.78554 0.0
C128 C 0.93906 0.20801 0.76047 0.0
H129 H 0.00717 0.23458 0.70986 0.0
C130 C 0.94905 0.19031 0.73554 0.0
H131 H 0.93722 0.16942 0.73068 0.0
H132 H 0.92007 0.20052 0.77464 0.0
H133 H 0.72545 0.08371 0.74879 0.0
C134 C 0.74873 0.07507 0.74726 0.0
C135 C 0.75689 0.05641 0.72223 0.0
C136 C 0.77041 0.08257 0.77028 0.0
H137 H 0.79339 0.0314 0.7004 0.0
C138 C 0.78682 0.04518 0.72023 0.0
C139 C 0.80897 0.05323 0.74227 0.0
C140 C 0.80087 0.0721 0.76722 0.0
C141 C 0.76076 0.10074 0.79766 0.0
H142 H 0.81809 0.07819 0.78425 0.0
C143 C 0.73284 0.0944 0.81253 0.0
C144 C 0.72316 0.11101 0.83864 0.0
C145 C 0.77916 0.12408 0.80931 0.0
H146 H 0.80067 0.12963 0.7982 0.0
C147 C 0.76966 0.14075 0.83525 0.0
H148 H 0.71906 0.07571 0.80439 0.0
C149 C 0.74188 0.13425 0.84994 0.0
H150 H 0.73501 0.1474 0.87005 0.0
H151 H 0.78392 0.15875 0.84404 0.0
H152 H 0.27865 0.32468 0.03067 0.0
C153 C 0.29054 0.30356 0.02631 0.0
C154 C 0.32231 0.3038 0.02128 0.0
C155 C 0.27425 0.27615 0.02573 0.0
H156 H 0.3626 0.2768 0.01323 0.0
C157 C 0.33793 0.27659 0.01661 0.0
C158 C 0.32253 0.24907 0.0172 0.0
C159 C 0.29057 0.2489 0.02109 0.0
C160 C 0.24037 0.27602 0.03011 0.0
H161 H 0.27858 0.22758 0.0209 0.0
C162 C 0.22193 0.29866 0.01661 0.0
C163 C 0.18985 0.29885 0.02055 0.0
C164 C 0.22621 0.25339 0.04778 0.0
H165 H 0.2397 0.2359 0.05892 0.0
C166 C 0.19441 0.25338 0.05172 0.0
H167 H 0.2326 0.31624 0.00303 0.0
C168 C 0.1763 0.2759 0.03823 0.0
H169 H 0.15167 0.27516 0.04139 0.0
H170 H 0.18376 0.23583 0.06535 0.0
H171 H 0.26217 0.7228 0.00351 0.0
C172 C 0.27232 0.74488 0.00565 0.0
C173 C 0.30359 0.7474 -0.00093 0.0
C174 C 0.25452 0.77042 0.01395 0.0
H175 H 0.34155 0.77766 0.99385 0.0
C176 C 0.31728 0.77575 -0.00094 0.0
C177 C 0.3003 0.80147 0.0073 0.0
C178 C 0.26926 0.7987 0.01552 0.0
C179 C 0.22062 0.76745 0.0192 0.0
H180 H 0.25684 0.8187 0.0228 0.0
C181 C 0.20784 0.73933 0.02714 0.0
C182 C 0.17605 0.73436 0.02532 0.0
C183 C 0.20038 0.79172 0.01337 0.0
H184 H 0.20871 0.81367 0.0067 0.0
C185 C 0.16866 0.78766 0.01455 0.0
H186 H 0.22256 0.72063 0.03353 0.0
C187 C 0.1565 0.7591 0.0198 0.0
H188 H 0.13192 0.75623 0.01797 0.0
H189 H 0.15342 0.80644 0.00968 0.0
H190 H 0.76959 0.27269 0.03852 0.0
C191 C 0.79146 0.28401 0.03749 0.0
C192 C 0.79136 0.31554 0.03429 0.0
C193 C 0.81922 0.26752 0.04013 0.0
H194 H 0.81939 0.35535 0.03277 0.0
C195 C 0.81924 0.33099 0.03489 0.0
C196 C 0.847 0.31525 0.03826 0.0
C197 C 0.84699 0.28373 0.04037 0.0
C198 C 0.8192 0.23373 0.0428 0.0
H199 H 0.86888 0.27217 0.0417 0.0
C200 C 0.79436 0.21657 0.03147 0.0
C201 C 0.7936 0.18511 0.03521 0.0
C202 C 0.84371 0.21817 0.05726 0.0
H203 H 0.86284 0.23001 0.06747 0.0
C204 C 0.84365 0.18676 0.0596 0.0
H205 H 0.77526 0.22734 0.01976 0.0
C206 C 0.81874 0.17026 0.0487 0.0
H207 H 0.81855 0.14605 0.05197 0.0
H208 H 0.86267 0.17522 0.07072 0.0
H209 H 0.7339 0.75718 0.94042 0.0
C210 C 0.75384 0.74321 0.94499 0.0
C211 C 0.74916 0.71328 0.95367 0.0
C212 C 0.78378 0.75499 0.94292 0.0
H213 H 0.77034 0.67094 0.96487 0.0
C214 C 0.7743 0.69415 0.95815 0.0
C215 C 0.80432 0.7046 0.95418 0.0
C216 C 0.80898 0.73526 0.94751 0.0
C217 C 0.78839 0.78777 0.93638 0.0
H218 H 0.83222 0.74355 0.94596 0.0
C219 C 0.76602 0.80917 0.94543 0.0
C220 C 0.76868 0.83972 0.93739 0.0
C221 C 0.81452 0.79798 0.92039 0.0
H222 H 0.83204 0.78243 0.91238 0.0
C223 C 0.81804 0.82856 0.91369 0.0
H224 H 0.74588 0.80206 0.95803 0.0
C225 C 0.7952 0.8493 0.92186 0.0
H226 H 0.79813 0.87278 0.91572 0.0
H227 H 0.83824 0.83611 0.90142 0.0
H228 H 0.52318 0.81934 0.74435 0.0
C229 C 0.52342 0.79914 0.75847 0.0
C230 C 0.52889 0.80209 0.7903 0.0
C231 C 0.51745 0.77066 0.7452 0.0
H232 H 0.53103 0.77957 0.83429 0.0
C233 C 0.52735 0.77683 0.80949 0.0
C234 C 0.51966 0.74849 0.79731 0.0
C235 C 0.51566 0.74531 0.76498 0.0
C236 C 0.51145 0.76819 0.71108 0.0
H237 H 0.51028 0.72334 0.75549 0.0
C238 C 0.52596 0.78795 0.6902 0.0
C239 C 0.51747 0.78898 0.65872 0.0
C240 C 0.48964 0.74786 0.69929 0.0
H241 H 0.47754 0.73261 0.71451 0.0
C242 C 0.48212 0.74788 0.66767 0.0
H243 H 0.54303 0.80361 0.69863 0.0
C244 C 0.49556 0.76862 0.64754 0.0
H245 H 0.48861 0.76902 0.62335 0.0
H246 H 0.46509 0.73235 0.65892 0.0
H247 H 0.28034 0.57443 0.80351 0.0
C248 C 0.27319 0.56861 0.78012 0.0
C249 C 0.24252 0.56044 0.77472 0.0
C250 C 0.29437 0.56987 0.75534 0.0
H251 H 0.20977 0.54619 0.74022 0.0
C252 C 0.23321 0.55322 0.7445 0.0
C253 C 0.25397 0.55385 0.71979 0.0
C254 C 0.28443 0.56231 0.72508 0.0
C255 C 0.32679 0.57889 0.76097 0.0
H256 H 0.30039 0.56234 0.70577 0.0
C257 C 0.34287 0.5688 0.78751 0.0
C258 C 0.37378 0.57671 0.7923 0.0
C259 C 0.34203 0.59744 0.73953 0.0
H260 H 0.33024 0.60603 0.71918 0.0
C261 C 0.3726 0.60542 0.74427 0.0
H262 H 0.3317 0.55401 0.80396 0.0
C263 C 0.38846 0.59505 0.77037 0.0
H264 H 0.41215 0.60163 0.7736 0.0
H265 H 0.38405 0.61973 0.72762 0.0
H266 H 0.46944 0.22434 0.82683 0.0
C267 C 0.47248 0.21333 0.80451 0.0
C268 C 0.48342 0.18353 0.80382 0.0
C269 C 0.46586 0.22908 0.77703 0.0
H270 H 0.49531 0.14568 0.77437 0.0
C271 C 0.4862 0.16848 0.77507 0.0
C272 C 0.4796 0.18374 0.7471 0.0
C273 C 0.46953 0.21401 0.74838 0.0
C274 C 0.45582 0.26136 0.77851 0.0
H275 H 0.46528 0.22602 0.72687 0.0
C276 C 0.4675 0.281 0.80156 0.0
C277 C 0.45677 0.31095 0.80419 0.0
C278 C 0.43382 0.27259 0.75749 0.0
H279 H 0.42396 0.25819 0.73981 0.0
C280 C 0.42362 0.30244 0.75954 0.0
H281 H 0.48462 0.27292 0.81784 0.0
C282 C 0.43483 0.32145 0.78276 0.0
H283 H 0.4264 0.34446 0.78388 0.0
H284 H 0.40664 0.31078 0.74325 0.0
H285 H 0.72474 0.49064 0.81515 0.0
C286 C 0.74079 0.49387 0.79623 0.0
C287 C 0.77065 0.50307 0.80311 0.0
C288 C 0.73183 0.48835 0.76527 0.0
H289 H 0.81551 0.51202 0.78476 0.0
C290 C 0.79202 0.50623 0.77908 0.0
C291 C 0.78406 0.49975 0.74824 0.0
C292 C 0.75376 0.49105 0.74139 0.0
C293 C 0.69975 0.47911 0.75849 0.0
H294 H 0.74731 0.48653 0.7175 0.0
C295 C 0.67534 0.49223 0.77515 0.0
C296 C 0.64527 0.4816 0.77182 0.0
C297 C 0.69333 0.45605 0.73698 0.0
H298 H 0.7116 0.44527 0.72392 0.0
C299 C 0.66325 0.44581 0.73309 0.0
H300 H 0.67983 0.51018 0.79167 0.0
C301 C 0.63934 0.45816 0.75079 0.0
H302 H 0.61633 0.44942 0.74817 0.0
H303 H 0.65858 0.42775 0.71683 0.0
H304 H 0.48012 0.22494 0.25312 0.0
C305 C 0.48312 0.24623 0.24137 0.0
C306 C 0.48006 0.24668 0.20885 0.0
C307 C 0.48983 0.27274 0.25829 0.0
H308 H 0.47983 0.27477 0.16801 0.0
C309 C 0.48166 0.27428 0.19316 0.0
C310 C 0.48781 0.30106 0.20917 0.0
C311 C 0.49285 0.30003 0.24145 0.0
C312 C 0.4935 0.27203 0.29319 0.0
H313 H 0.49916 0.32071 0.25308 0.0
C314 C 0.50096 0.24504 0.30935 0.0
C315 C 0.50258 0.24439 0.34216 0.0
C316 C 0.48856 0.29842 0.31095 0.0
H317 H 0.48151 0.31941 0.30034 0.0
C318 C 0.49189 0.29822 0.34317 0.0
H319 H 0.50484 0.22427 0.29679 0.0
C320 C 0.49885 0.27154 0.35868 0.0
H321 H 0.5008 0.2721 0.38379 0.0
H322 H 0.48835 0.3188 0.3563 0.0
H323 H 0.76386 0.53002 0.23158 0.0
C324 C 0.77301 0.52846 0.25494 0.0
C325 C 0.80484 0.53169 0.25964 0.0
C326 C 0.75308 0.5235 0.28032 0.0
H327 H 0.8407 0.53408 0.29424 0.0
C328 C 0.81644 0.53058 0.29003 0.0
C329 C 0.79702 0.52582 0.31532 0.0
C330 C 0.76561 0.52189 0.31052 0.0
C331 C 0.71921 0.52114 0.27573 0.0
H332 H 0.75107 0.51771 0.33045 0.0
C333 C 0.70675 0.50751 0.24888 0.0
C334 C 0.67472 0.50663 0.24409 0.0
C335 C 0.69898 0.53327 0.29809 0.0
H336 H 0.7075 0.54467 0.3186 0.0
C337 C 0.66734 0.53165 0.29395 0.0
H338 H 0.72191 0.49761 0.23168 0.0
C339 C 0.65525 0.51863 0.26716 0.0
H340 H 0.63059 0.51908 0.26407 0.0
H341 H 0.6521 0.54127 0.31125 0.0
H342 H 0.57421 0.78877 0.21704 0.0
C343 C 0.57069 0.79794 0.24015 0.0
C344 C 0.56595 0.82909 0.24353 0.0
C345 C 0.57152 0.77876 0.26616 0.0
H346 H 0.55862 0.86535 0.27617 0.0
C347 C 0.56278 0.84135 0.27337 0.0
C348 C 0.56364 0.82288 0.2997 0.0
C349 C 0.56783 0.79154 0.29616 0.0
C350 C 0.57699 0.74572 0.26148 0.0
H351 H 0.56795 0.77729 0.31659 0.0
C352 C 0.56452 0.73046 0.23548 0.0
C353 C 0.57179 0.69995 0.2294 0.0
C354 C 0.59619 0.72958 0.28186 0.0
H355 H 0.6065 0.74054 0.30178 0.0
C356 C 0.6032 0.69927 0.27618 0.0
H357 H 0.54941 0.74243 0.21968 0.0
C358 C 0.59132 0.68459 0.25008 0.0
H359 H 0.59703 0.66105 0.24635 0.0
H360 H 0.61816 0.68715 0.29197 0.0
H361 H 0.23741 0.59727 0.21253 0.0
C362 C 0.26024 0.59043 0.20533 0.0
C363 C 0.26411 0.57784 0.17577 0.0
C364 C 0.28533 0.59376 0.22566 0.0
H365 H 0.2961 0.55965 0.14293 0.0
C366 C 0.29342 0.56961 0.16583 0.0
C367 C 0.31924 0.57476 0.18463 0.0
C368 C 0.31501 0.58617 0.21491 0.0
C369 C 0.27997 0.60491 0.25794 0.0
H370 H 0.33471 0.58918 0.22992 0.0
C371 C 0.25292 0.59702 0.27381 0.0
C372 C 0.24637 0.60853 0.30355 0.0
C373 C 0.30106 0.62398 0.27281 0.0
H374 H 0.32189 0.63089 0.26122 0.0
C375 C 0.29504 0.63503 0.30266 0.0
H376 H 0.23659 0.58214 0.2628 0.0
C377 C 0.26786 0.62753 0.31792 0.0
H378 H 0.26381 0.63641 0.34104 0.0
H379 H 0.3114 0.64973 0.3139 0.0
H380 H 0.78801 0.81605 0.51931 0.0
C381 C 0.79814 0.79404 0.51526 0.0
C382 C 0.83022 0.79085 0.51699 0.0
C383 C 0.77916 0.76885 0.51052 0.0
H384 H 0.86812 0.75936 0.51638 0.0
C385 C 0.84348 0.76206 0.51411 0.0
C386 C 0.82513 0.73654 0.51008 0.0
C387 C 0.79316 0.74017 0.50749 0.0
C388 C 0.74487 0.77215 0.5111 0.0
H389 H 0.77929 0.72034 0.50368 0.0
C390 C 0.7301 0.79894 0.50104 0.0
C391 C 0.69791 0.80239 0.50317 0.0
C392 C 0.72661 0.74876 0.52303 0.0
H393 H 0.73678 0.72828 0.53211 0.0
C394 C 0.69479 0.75166 0.52422 0.0
H395 H 0.74358 0.81733 0.49197 0.0
C396 C 0.68051 0.77814 0.51435 0.0
H397 H 0.65572 0.77957 0.51551 0.0
H398 H 0.68111 0.73337 0.53322 0.0
H399 H 0.7943 0.20652 0.46935 0.0
C400 C 0.80539 0.22823 0.47023 0.0
C401 C 0.83759 0.22945 0.46782 0.0
C402 C 0.78774 0.25472 0.47466 0.0
H403 H 0.87665 0.25893 0.46553 0.0
C404 C 0.85194 0.25768 0.46787 0.0
C405 C 0.83511 0.28424 0.47283 0.0
C406 C 0.80317 0.28255 0.47663 0.0
C407 C 0.75343 0.25355 0.47754 0.0
H408 H 0.79052 0.30312 0.48143 0.0
C409 C 0.73835 0.22789 0.48951 0.0
C410 C 0.70603 0.22671 0.49105 0.0
C411 C 0.73527 0.27816 0.46764 0.0
H412 H 0.74546 0.29788 0.45722 0.0
C413 C 0.70341 0.27752 0.47023 0.0
H414 H 0.75151 0.20871 0.4977 0.0
C415 C 0.68884 0.25204 0.48175 0.0
H416 H 0.664 0.25174 0.48211 0.0
H417 H 0.68986 0.29662 0.46246 0.0
H418 H 0.1845 0.78402 0.56044 0.0
C419 C 0.20724 0.79291 0.55629 0.0
C420 C 0.21022 0.82011 0.54022 0.0
C421 C 0.23316 0.77795 0.56833 0.0
H422 H 0.2414 0.85259 0.52179 0.0
C423 C 0.23944 0.83214 0.53537 0.0
C424 C 0.26583 0.81808 0.54755 0.0
C425 C 0.26239 0.79083 0.56412 0.0
C426 C 0.22912 0.7495 0.58618 0.0
H427 H 0.28233 0.77971 0.57396 0.0
C428 C 0.20803 0.72764 0.576 0.0
C429 C 0.20233 0.70161 0.5937 0.0
C430 C 0.24504 0.74459 0.61417 0.0
H431 H 0.26116 0.76107 0.62285 0.0
C432 C 0.23956 0.71872 0.6318 0.0
H433 H 0.19576 0.73101 0.55433 0.0
C434 C 0.21818 0.69743 0.6218 0.0
H435 H 0.21437 0.6775 0.63576 0.0
H436 H 0.25179 0.71526 0.65343 0.0
H437 H 0.22262 0.24253 0.49833 0.0
C438 C 0.24238 0.23006 0.50657 0.0
C439 C 0.2389 0.19914 0.51272 0.0
C440 C 0.27104 0.24436 0.51008 0.0
H441 H 0.26255 0.15777 0.5243 0.0
C442 C 0.26463 0.18193 0.52113 0.0
C443 C 0.29333 0.1954 0.52453 0.0
C444 C 0.29622 0.22661 0.52031 0.0
C445 C 0.27517 0.27685 0.50081 0.0
H446 H 0.31851 0.23651 0.52418 0.0
C447 C 0.25002 0.29732 0.4991 0.0
C448 C 0.25372 0.32655 0.48688 0.0
C449 C 0.30427 0.28725 0.49135 0.0
H450 H 0.32417 0.27261 0.49082 0.0
C451 C 0.30824 0.31672 0.48107 0.0
H452 H 0.22731 0.29057 0.5062 0.0
C453 C 0.28322 0.33618 0.47863 0.0
H454 H 0.28685 0.35871 0.46973 0.0
H455 H 0.33077 0.32425 0.47404 0.0
Zn456 Zn 0.94935 0.00156 0.42731 0.0
Zn457 Zn 0.95106 0.06923 0.45161 0.0
O458 O 0.97864 0.03426 0.44058 0.0
H459 H 0.00053 0.03317 0.43737 0.0
C460 C 0.91475 0.94821 0.54297 0.0
O461 O 0.90901 0.97449 0.53007 0.0
Zn462 Zn 0.08117 0.05171 0.55976 0.0
Zn463 Zn 0.08175 0.97818 0.56769 0.0
O464 O 0.05566 0.01409 0.55527 0.0
H465 H 0.03419 0.01271 0.54995 0.0
Zn466 Zn 0.95668 0.9857 0.57824 0.0
O467 O 0.96471 0.01673 0.54435 0.0
Zn468 Zn 0.9697 0.05519 0.56764 0.0
H469 H 0.97184 0.01256 0.52349 0.0
Zn470 Zn 0.05305 0.99334 0.4649 0.0
O471 O 0.04332 0.0335 0.48483 0.0
H472 H 0.02788 0.03642 0.50067 0.0
Zn473 Zn 0.05371 0.06502 0.45385 0.0
C474 C 0.0816 0.93699 0.48614 0.0
O475 O 0.06316 0.92529 0.46522 0.0
O476 O 0.91119 0.02017 0.40639 0.0
O477 O 0.91215 0.06697 0.42521 0.0
O478 O 0.1201 0.99207 0.59096 0.0
O479 O 0.12155 0.04154 0.58223 0.0
O480 O 0.9432 0.00423 0.62041 0.0
O481 O 0.95089 0.05268 0.61034 0.0
C482 C -0.00056 0.10985 0.44028 0.0
O483 O 0.0655 0.99699 0.41885 0.0
O484 O 0.06903 0.04672 0.41325 0.0
O485 O 0.06106 0.93976 0.58581 0.0
C486 C 0.90011 0.04679 0.40789 0.0
O487 O 0.96833 0.96492 0.40409 0.0
C488 C 0.02973 0.08052 0.58952 0.0
O489 O 0.93478 0.94657 0.56442 0.0
C490 C 0.13284 0.01762 0.59444 0.0
O491 O 0.08091 0.96525 0.49084 0.0
C492 C 0.94236 0.09077 0.51622 0.0
O493 O 0.97043 0.10892 0.44047 0.0
O494 O 0.01389 0.08593 0.44703 0.0
C495 C 0.94204 0.03187 0.62857 0.0
O496 O 0.0588 0.0806 0.58817 0.0
O497 O 0.01494 0.0633 0.57131 0.0
C498 C 0.09502 0.09072 0.49921 0.0
O499 O 0.94888 0.08927 0.54502 0.0
O500 O 0.94769 0.06826 0.49861 0.0
C501 C 0.07183 0.02 0.40241 0.0
O502 O 0.08545 0.09274 0.47134 0.0
O503 O 0.08343 0.0705 0.51656 0.0
C504 C 0.04064 0.94202 0.60682 0.0
O505 O 0.03156 0.969 0.61573 0.0
C506 C 0.98864 0.96909 0.38335 0.0
O507 O -0.00169 0.9966 0.3781 0.0
Zn508 Zn 0.47592 0.06683 0.06076 0.0
Zn509 Zn 0.47461 0.0639 0.98732 0.0
O510 O 0.47776 0.03716 0.02475 0.0
H511 H 0.48657 0.01713 0.02571 0.0
C512 C 0.52923 0.11068 0.10238 0.0
O513 O 0.5191 0.11621 0.07417 0.0
Zn514 Zn 0.57173 0.97191 0.94464 0.0
Zn515 Zn 0.56774 0.96379 0.01793 0.0
O516 O 0.54703 0.9852 0.9811 0.0
H517 H 0.53541 0.00379 0.98236 0.0
Zn518 Zn 0.57647 0.07935 0.06671 0.0
O519 O 0.55455 0.06378 0.02851 0.0
Zn520 Zn 0.58243 0.07238 0.99239 0.0
H521 H 0.53962 0.04781 0.02899 0.0
Zn522 Zn 0.48263 0.93742 0.03417 0.0
O523 O 0.51187 0.9395 0.99724 0.0
H524 H 0.50108 0.93744 0.0167 0.0
Zn525 Zn 0.48358 0.95396 0.96426 0.0
C526 C 0.51784 0.91888 0.09055 0.0
O527 O 0.53155 0.94502 0.08771 0.0
O528 O 0.45751 0.10752 0.04761 0.0
O529 O 0.44876 0.10101 0.99704 0.0
O530 O 0.60236 0.93328 0.00727 0.0
O531 O 0.60513 0.94277 0.95682 0.0
O532 O 0.61462 0.10391 0.05626 0.0
O533 O 0.62156 0.0945 0.00581 0.0
C534 C 0.45897 0.01271 0.94989 0.0
O535 O 0.43829 0.92747 0.02094 0.0
O536 O 0.4423 0.93353 0.9699 0.0
O537 O 0.57901 0.98937 0.05621 0.0
C538 C 0.44594 0.11637 0.022 0.0
O539 O 0.45558 0.05298 0.10176 0.0
C540 C 0.60024 0.03042 0.94265 0.0
O541 O 0.55276 0.09396 0.10565 0.0
C542 C 0.615 0.92925 0.98093 0.0
O543 O 0.49712 0.91155 0.07128 0.0
C544 C 0.53153 0.09349 0.95703 0.0
O545 O 0.45446 0.04078 0.9533 0.0
O546 O 0.47705 0.99868 0.96797 0.0
C547 C 0.63004 0.10668 0.03134 0.0
O548 O 0.59529 0.00663 0.92702 0.0
O549 O 0.58859 0.03313 0.96961 0.0
C550 C 0.52134 0.9405 0.90343 0.0
O551 O 0.56015 0.09752 0.96055 0.0
O552 O 0.51784 0.07659 0.97642 0.0
C553 C 0.42698 0.92544 0.99371 0.0
O554 O 0.49855 0.94131 0.92194 0.0
O555 O 0.5475 0.9511 0.91074 0.0
C556 C 0.60235 0.00629 0.05432 0.0
O557 O 0.61682 0.00843 0.02763 0.0
C558 C 0.4339 0.034 0.1009 0.0
O559 O 0.42688 0.02121 0.07426 0.0
Zn560 Zn 0.93841 0.48522 0.95452 0.0
Zn561 Zn 0.94549 0.55822 0.95866 0.0
O562 O 0.96974 0.5194 0.95833 0.0
H563 H 0.99063 0.517 0.96546 0.0
C564 C 0.96658 0.4463 0.04289 0.0
O565 O 0.97368 0.46617 0.02149 0.0
Zn566 Zn 0.06398 0.55718 0.05022 0.0
Zn567 Zn 0.06981 0.48567 0.05602 0.0
O568 O 0.03851 0.52005 0.05417 0.0
H569 H 0.0177 0.51805 0.04675 0.0
Zn570 Zn 0.97056 0.49984 0.08127 0.0
O571 O 0.95367 0.52679 0.04656 0.0
Zn572 Zn 0.95727 0.56459 0.07112 0.0
H573 H 0.93691 0.52131 0.03301 0.0
Zn574 Zn 0.07573 0.49117 0.93198 0.0
O575 O 0.05745 0.52156 0.96149 0.0
H576 H 0.04682 0.51691 0.98058 0.0
Zn577 Zn 0.0552 0.5602 0.93734 0.0
C578 C 0.08263 0.43834 0.97378 0.0
O579 O 0.06014 0.45132 0.98925 0.0
O580 O 0.89528 0.50062 0.94252 0.0
O581 O 0.90302 0.55003 0.94213 0.0
O582 O 0.11325 0.49949 0.06917 0.0
O583 O 0.10694 0.54904 0.06454 0.0
O584 O 0.95099 0.51165 0.12336 0.0
O585 O 0.93564 0.55835 0.11259 0.0
C586 C 0.992 0.58805 0.92101 0.0
O587 O 0.10124 0.51224 0.89867 0.0
O588 O 0.07976 0.55801 0.89656 0.0
O589 O 0.05532 0.44513 0.07475 0.0
C590 C 0.88587 0.52737 0.9373 0.0
O591 O 0.94902 0.44583 0.92993 0.0
C592 C 0.02018 0.59183 0.08473 0.0
O593 O 0.96625 0.45451 0.07119 0.0
C594 C 0.12348 0.52625 0.07147 0.0
O595 O 0.0926 0.4507 0.94917 0.0
C596 C 0.93519 0.59751 0.01783 0.0
O597 O 0.96373 0.5877 0.92808 0.0
O598 O 0.01014 0.5701 0.93494 0.0
C599 C 0.93639 0.53561 0.13075 0.0
O600 O 0.04836 0.59042 0.0777 0.0
O601 O 0.00244 0.57198 0.07356 0.0
C602 C 0.07615 0.59121 0.99179 0.0
O603 O 0.93821 0.59874 0.04723 0.0
O604 O 0.94469 0.57408 0.0034 0.0
C605 C 0.09909 0.53839 0.88662 0.0
O606 O 0.07523 0.59266 0.96236 0.0
O607 O 0.06364 0.5691 0.00535 0.0
C608 C 0.04444 0.44575 0.10213 0.0
O609 O 0.04192 0.47185 0.11647 0.0
C610 C 0.97487 0.4332 0.92516 0.0
O611 O -0.00015 0.44542 0.93658 0.0
Zn612 Zn 0.49019 0.47723 0.98287 0.0
Zn613 Zn 0.48889 0.4684 0.05785 0.0
O614 O 0.50802 0.49278 0.02375 0.0
H615 H 0.52115 0.51 0.0266 0.0
C616 C 0.53909 0.40586 0.93919 0.0
O617 O 0.51938 0.42195 0.95542 0.0
Zn618 Zn 0.57741 0.56909 0.04592 0.0
Zn619 Zn 0.5642 0.57164 0.9742 0.0
O620 O 0.5684 0.54205 0.00991 0.0
H621 H 0.57498 0.52136 0.00742 0.0
Zn622 Zn 0.5853 0.42961 0.98503 0.0
O623 O 0.55838 0.44579 0.02003 0.0
Zn624 Zn 0.58714 0.45556 0.05539 0.0
H625 H 0.53711 0.44028 0.02244 0.0
Zn626 Zn 0.47332 0.58619 0.9676 0.0
O627 O 0.50148 0.58138 0.00516 0.0
H628 H 0.52216 0.58901 0.00516 0.0
Zn629 Zn 0.47392 0.57941 0.04257 0.0
C630 C 0.5016 0.60258 0.90444 0.0
O631 O 0.5066 0.57388 0.89877 0.0
O632 O 0.46233 0.4406 0.98857 0.0
O633 O 0.46034 0.43655 0.04013 0.0
O634 O 0.59215 0.6085 0.98062 0.0
O635 O 0.60286 0.6042 0.03102 0.0
O636 O 0.62754 0.41582 0.00093 0.0
O637 O 0.62973 0.4364 0.0482 0.0
C638 C 0.45751 0.52311 0.07799 0.0
O639 O 0.43194 0.60457 0.98092 0.0
O640 O 0.43371 0.60133 0.0325 0.0
O641 O 0.56484 0.55308 0.93002 0.0
C642 C 0.45216 0.42803 0.01301 0.0
O643 O 0.47488 0.50626 0.94803 0.0
C644 C 0.60403 0.51743 0.07932 0.0
O645 O 0.56721 0.4058 0.94713 0.0
C646 C 0.60624 0.61744 0.00492 0.0
O647 O 0.48972 0.61066 0.93016 0.0
C648 C 0.54199 0.4353 0.10141 0.0
O649 O 0.4621 0.49543 0.08416 0.0
O650 O 0.47159 0.53515 0.05531 0.0
C651 C 0.64178 0.4207 0.02632 0.0
O652 O 0.60176 0.54598 0.07763 0.0
O653 O 0.58897 0.50097 0.06054 0.0
C654 C 0.52208 0.60021 0.08186 0.0
O655 O 0.57021 0.43681 0.09413 0.0
O656 O 0.52192 0.44821 0.08435 0.0
C657 C 0.42033 0.60989 0.00755 0.0
O658 O 0.49319 0.60194 0.07847 0.0
O659 O 0.53675 0.5841 0.06228 0.0
C660 C 0.55927 0.52538 0.92515 0.0
O661 O 0.55153 0.50818 0.94867 0.0
C662 C 0.48085 0.49899 0.92006 0.0
O663 O 0.49787 0.47499 0.91468 0.0
Zn664 Zn 0.97256 0.49123 0.48295 0.0
Zn665 Zn 0.96032 0.56185 0.47693 0.0
O666 O 0.994 0.53172 0.4838 0.0
H667 H 0.01184 0.53575 0.49644 0.0
C668 C 0.92133 0.43285 0.52892 0.0
O669 O 0.9448 0.43966 0.51123 0.0
Zn670 Zn 0.0742 0.55386 0.55977 0.0
Zn671 Zn 0.08824 0.48299 0.5694 0.0
O672 O 0.05581 0.51324 0.55565 0.0
H673 H 0.03559 0.50875 0.54773 0.0
Zn674 Zn 0.94346 0.48151 0.57296 0.0
O675 O 0.94944 0.51967 0.54819 0.0
Zn676 Zn 0.95652 0.55289 0.5797 0.0
H677 H 0.94301 0.52155 0.52678 0.0
Zn678 Zn 0.08381 0.48974 0.43613 0.0
O679 O 0.06712 0.51992 0.46784 0.0
H680 H 0.06424 0.51578 0.48969 0.0
Zn681 Zn 0.06488 0.56058 0.44706 0.0
C682 C 0.10913 0.4384 0.47626 0.0
O683 O 0.08833 0.4457 0.49711 0.0
O684 O 0.9302 0.49252 0.46159 0.0
O685 O 0.92318 0.54203 0.45757 0.0
O686 O 0.12846 0.50274 0.58484 0.0
O687 O 0.11716 0.55122 0.57783 0.0
O688 O 0.92686 0.49272 0.61561 0.0
O689 O 0.93649 0.54161 0.62142 0.0
C690 C 0.00124 0.59383 0.43663 0.0
O691 O 0.10284 0.51158 0.39862 0.0
O692 O 0.08791 0.55915 0.40594 0.0
O693 O 0.07141 0.44812 0.59608 0.0
C694 C 0.91415 0.51508 0.45292 0.0
O695 O -0.00198 0.45271 0.47364 0.0
C696 C 0.01967 0.57814 0.59457 0.0
O697 O 0.91716 0.44709 0.55422 0.0
C698 C 0.13568 0.53051 0.58662 0.0
O699 O 0.11037 0.45306 0.45089 0.0
C700 C 0.93463 0.59519 0.53602 0.0
O701 O 0.97408 0.59389 0.44734 0.0
O702 O 0.02032 0.57463 0.44741 0.0
C703 C 0.92485 0.517 0.63129 0.0
O704 O 0.04838 0.57909 0.5892 0.0
O705 O 0.00283 0.55971 0.57973 0.0
C706 C 0.09194 0.58933 0.50133 0.0
O707 O 0.9344 0.59056 0.5651 0.0
O708 O 0.94976 0.57677 0.51939 0.0
C709 C 0.10251 0.53915 0.39036 0.0
O710 O 0.08919 0.59016 0.47197 0.0
O711 O 0.07596 0.57032 0.51625 0.0
C712 C 0.04913 0.45491 0.61386 0.0
O713 O 0.03851 0.48271 0.61373 0.0
C714 C 0.01555 0.45163 0.45009 0.0
O715 O 0.0191 0.47606 0.43327 0.0
Zn716 Zn 0.45367 0.97672 0.45873 0.0
Zn717 Zn 0.44261 0.04827 0.46862 0.0
O718 O 0.476 0.0172 0.46103 0.0
H719 H 0.49751 0.02025 0.45682 0.0
C720 C 0.4161 0.92009 0.53396 0.0
O721 O 0.44038 0.90394 0.54135 0.0
Zn722 Zn 0.57032 0.06699 0.56033 0.0
Zn723 Zn 0.58758 0.99629 0.56354 0.0
O724 O 0.55274 0.0258 0.55741 0.0
H725 H 0.53371 0.02117 0.54706 0.0
Zn726 Zn 0.45776 0.96769 0.55265 0.0
O727 O 0.47315 0.00904 0.53964 0.0
Zn728 Zn 0.46657 0.03768 0.57564 0.0
H729 H 0.48571 0.01291 0.52162 0.0
Zn730 Zn 0.57861 0.00515 0.44185 0.0
O731 O 0.55787 0.03311 0.47288 0.0
H732 H 0.54829 0.02673 0.49198 0.0
Zn733 Zn 0.54886 0.07189 0.45022 0.0
C734 C 0.59359 0.95012 0.47804 0.0
O735 O 0.56946 0.95895 0.49403 0.0
O736 O 0.40887 0.98325 0.44473 0.0
O737 O 0.40362 0.03317 0.44727 0.0
O738 O 0.62397 0.01655 0.58539 0.0
O739 O 0.61325 0.06536 0.57901 0.0
O740 O 0.45408 0.96529 0.59982 0.0
O741 O 0.45606 0.01357 0.61433 0.0
C742 C 0.48157 0.09612 0.44454 0.0
O743 O 0.59099 0.02703 0.40191 0.0
O744 O 0.5654 0.07059 0.40614 0.0
O745 O 0.57589 0.95281 0.5767 0.0
C746 C 0.39328 0.0072 0.43996 0.0
O747 O 0.47347 0.93933 0.43603 0.0
C748 C 0.51725 0.0839 0.5969 0.0
O749 O 0.41824 0.9487 0.53381 0.0
C750 C 0.63072 0.04427 0.58909 0.0
O751 O 0.60228 0.96595 0.4551 0.0
C752 C 0.42514 0.07027 0.5358 0.0
O753 O 0.45401 0.08858 0.45005 0.0
O754 O 0.50281 0.07729 0.45078 0.0
C755 C 0.45255 0.98567 0.62064 0.0
O756 O 0.54458 0.09135 0.59027 0.0
O757 O 0.50547 0.06203 0.5818 0.0
C758 C 0.57903 0.10399 0.50025 0.0
O759 O 0.43234 0.06659 0.56425 0.0
O760 O 0.43878 0.05392 0.51556 0.0
C761 C 0.58278 0.05255 0.391 0.0
O762 O 0.57219 0.10518 0.47156 0.0
O763 O 0.56759 0.08316 0.51668 0.0
C764 C 0.54856 0.94391 0.57235 0.0
O765 O 0.52874 0.96222 0.55905 0.0
C766 C 0.50149 0.93355 0.42994 0.0
O767 O 0.52275 0.95243 0.43917 0.0
H768 H 0.21122 0.15867 0.55099 0.0
H769 H 0.19946 0.20583 0.46402 0.0
H770 H 0.15216 0.17841 0.45412 0.0
H771 H 0.11679 0.13855 0.46785 0.0
H772 H 0.12794 0.09014 0.55399 0.0
H773 H 0.17291 0.12064 0.56671 0.0
C774 C 0.19819 0.16295 0.52993 0.0
C775 C 0.20889 0.18416 0.5082 0.0
C776 C 0.17114 0.1468 0.52419 0.0
C777 C 0.1916 0.18986 0.48124 0.0
C778 C 0.16466 0.17405 0.47547 0.0
C779 C 0.12885 0.13467 0.48958 0.0
C780 C 0.11943 0.1115 0.50968 0.0
C781 C 0.15459 0.15212 0.49648 0.0
C782 C 0.13503 0.10737 0.53793 0.0
C783 C 0.16074 0.12485 0.54514 0.0
H784 H 0.89078 0.22092 0.49922 0.0
H785 H 0.8271 0.17465 0.43911 0.0
H786 H 0.85622 0.12767 0.44592 0.0
H787 H 0.89696 0.09899 0.47359 0.0
H788 H 0.96004 0.14661 0.53296 0.0
H789 H 0.93443 0.19422 0.52098 0.0
C790 C 0.88361 0.20089 0.48676 0.0
C791 C 0.85666 0.20144 0.46871 0.0
C792 C 0.90041 0.17418 0.49069 0.0
C793 C 0.84746 0.17483 0.45355 0.0
C794 C 0.86419 0.148 0.45731 0.0
C795 C 0.90564 0.11997 0.48294 0.0
C796 C 0.93035 0.11945 0.50395 0.0
C797 C 0.89034 0.14727 0.47642 0.0
C798 C 0.94094 0.14657 0.51679 0.0
C799 C 0.92627 0.17374 0.51004 0.0
H800 H 0.82676 0.84698 0.4917 0.0
H801 H 0.87724 0.79408 0.55882 0.0
H802 H 0.90857 0.83769 0.57186 0.0
H803 H 0.92058 0.8912 0.56548 0.0
H804 H 0.86962 0.94454 0.49903 0.0
H805 H 0.83945 0.90049 0.48465 0.0
C806 C 0.84457 0.84507 0.50924 0.0
C807 C 0.8497 0.81731 0.52417 0.0
C808 C 0.86235 0.87032 0.51685 0.0
C809 C 0.87309 0.81507 0.54663 0.0
C810 C 0.89089 0.84005 0.55427 0.0
C811 C 0.90295 0.8932 0.54778 0.0
C812 C 0.89731 0.92119 0.53347 0.0
C813 C 0.88561 0.86782 0.53967 0.0
C814 C 0.87441 0.92331 0.5105 0.0
C815 C 0.85711 0.89813 0.50225 0.0
H816 H 0.19632 0.87831 0.55203 0.0
H817 H 0.16264 0.79922 0.50506 0.0
H818 H 0.1185 0.82807 0.4855 0.0
H819 H 0.09123 0.87654 0.47965 0.0
H820 H 0.12511 0.95532 0.52755 0.0
H821 H 0.16729 0.92574 0.54913 0.0
C822 C 0.17926 0.86747 0.53749 0.0
C823 C 0.18276 0.83691 0.52958 0.0
C824 C 0.15404 0.88409 0.52657 0.0
C825 C 0.16032 0.8228 0.5113 0.0
C826 C 0.1352 0.83929 0.50011 0.0
C827 C 0.10769 0.88718 0.495 0.0
C828 C 0.10518 0.91818 0.50165 0.0
C829 C 0.13204 0.87005 0.50729 0.0
C830 C 0.12657 0.93155 0.52184 0.0
C831 C 0.15078 0.91468 0.53416 0.0
H832 H 0.51402 0.19595 0.21746 0.0
H833 H 0.44356 0.23398 0.15861 0.0
H834 H 0.4498 0.19219 0.12195 0.0
H835 H 0.4804 0.14908 0.10336 0.0
H836 H 0.55192 0.11217 0.16167 0.0
H837 H 0.53945 0.14871 0.20225 0.0
C838 C 0.49935 0.19463 0.19712 0.0
C839 C 0.47867 0.21826 0.19055 0.0
C840 C 0.50346 0.17086 0.17589 0.0
C841 C 0.46002 0.21631 0.16391 0.0
C842 C 0.46358 0.19244 0.14294 0.0
C843 C 0.49293 0.14874 0.12511 0.0
C844 C 0.51749 0.12839 0.12912 0.0
C845 C 0.4861 0.17027 0.14811 0.0
C846 C 0.53313 0.12783 0.15774 0.0
C847 C 0.52611 0.14882 0.18097 0.0
H848 H 0.86062 0.50556 0.25093 0.0
H849 H 0.79747 0.56897 0.20923 0.0
H850 H 0.83394 0.57799 0.16702 0.0
H851 H 0.88343 0.56682 0.14138 0.0
H852 H 0.94558 0.50239 0.18304 0.0
H853 H 0.9103 0.49565 0.22648 0.0
C854 C 0.85491 0.5216 0.23278 0.0
C855 C 0.82633 0.53657 0.23327 0.0
C856 C 0.87601 0.52678 0.2088 0.0
C857 C 0.81912 0.55685 0.20922 0.0
C858 C 0.84009 0.56222 0.18524 0.0
C859 C 0.88947 0.55175 0.16028 0.0
C860 C 0.91716 0.53523 0.15907 0.0
C861 C 0.86861 0.54728 0.18477 0.0
C862 C 0.92444 0.51538 0.18345 0.0
C863 C 0.9042 0.51139 0.20821 0.0
H864 H 0.53225 0.81781 0.19213 0.0
H865 H 0.59148 0.88443 0.23326 0.0
H866 H 0.58263 0.91799 0.18897 0.0
H867 H 0.55649 0.92892 0.13939 0.0
H868 H 0.49675 0.86193 0.09923 0.0
H869 H 0.50771 0.82788 0.14215 0.0
C870 C 0.54362 0.83947 0.19116 0.0
C871 C 0.56251 0.84863 0.21584 0.0
C872 C 0.53824 0.85864 0.16587 0.0
C873 C 0.57664 0.877 0.21458 0.0
C874 C 0.57164 0.89614 0.18927 0.0
C875 C 0.546 0.90682 0.13997 0.0
C876 C 0.52572 0.89809 0.1162 0.0
C877 C 0.5522 0.88732 0.16493 0.0
C878 C 0.51232 0.86935 0.11729 0.0
C879 C 0.51858 0.84979 0.14182 0.0
H880 H 0.24826 0.52665 0.14551 0.0
H881 H 0.22078 0.61926 0.15969 0.0
H882 H 0.17634 0.61201 0.12581 0.0
H883 H 0.14438 0.57895 0.0945 0.0
H884 H 0.16972 0.48534 0.08244 0.0
H885 H 0.21651 0.49354 0.11272 0.0
C886 C 0.2326 0.54523 0.14091 0.0
C887 C 0.23754 0.5734 0.15503 0.0
C888 C 0.20697 0.54076 0.12178 0.0
C889 C 0.2171 0.59732 0.14927 0.0
C890 C 0.19187 0.59322 0.12983 0.0
C891 C 0.16029 0.56035 0.09807 0.0
C892 C 0.15357 0.53155 0.08623 0.0
C893 C 0.18646 0.56498 0.11624 0.0
C894 C 0.17435 0.50771 0.09135 0.0
C895 C 0.20102 0.51236 0.10875 0.0
H896 H 0.48563 0.84344 0.80406 0.0
H897 H 0.58279 0.82606 0.80922 0.0
H898 H 0.58981 0.87164 0.84074 0.0
H899 H 0.56721 0.91194 0.87245 0.0
H900 H 0.46913 0.92607 0.87169 0.0
H901 H 0.46348 0.88687 0.8322 0.0
C902 C 0.50835 0.85022 0.81155 0.0
C903 C 0.53374 0.83189 0.80444 0.0
C904 C 0.51193 0.87574 0.83051 0.0
C905 C 0.56309 0.8402 0.81446 0.0
C906 C 0.56702 0.8661 0.83251 0.0
C907 C 0.54468 0.90702 0.86305 0.0
C908 C 0.51862 0.92187 0.87503 0.0
C909 C 0.54147 0.88348 0.84149 0.0
C910 C 0.48955 0.91497 0.86285 0.0
C911 C 0.48628 0.8924 0.84043 0.0
H912 H 0.18473 0.58374 0.77806 0.0
H913 H 0.25027 0.52944 0.8286 0.0
H914 H 0.21126 0.51772 0.8675 0.0
H915 H 0.15803 0.5205 0.88532 0.0
H916 H 0.09253 0.57651 0.83679 0.0
H917 H 0.13199 0.58986 0.79853 0.0
C918 C 0.19045 0.56961 0.79782 0.0
C919 C 0.22024 0.55734 0.8005 0.0
C920 C 0.16788 0.56296 0.82003 0.0
C921 C 0.22758 0.53931 0.82625 0.0
C922 C 0.20522 0.53239 0.84829 0.0
C923 C 0.15234 0.53552 0.86625 0.0
C924 C 0.12231 0.54702 0.86337 0.0
C925 C 0.17521 0.54361 0.84505 0.0
C926 C 0.11543 0.56715 0.83918 0.0
C927 C 0.13798 0.5748 0.81742 0.0
H928 H 0.46793 0.1293 0.82994 0.0
H929 H 0.52426 0.20778 0.84374 0.0
H930 H 0.54203 0.18808 0.89352 0.0
H931 H 0.54258 0.14826 0.93276 0.0
H932 H 0.48831 0.06877 0.91903 0.0
H933 H 0.46796 0.08925 0.87037 0.0
C934 C 0.48419 0.1419 0.84387 0.0
C935 C 0.49477 0.16994 0.83323 0.0
C936 C 0.49413 0.13055 0.87283 0.0
C937 C 0.51567 0.18622 0.85155 0.0
C938 C 0.52582 0.17501 0.88004 0.0
C939 C 0.52584 0.13571 0.91936 0.0
C940 C 0.5159 0.10755 0.93013 0.0
C941 C 0.51519 0.14726 0.89094 0.0
C942 C 0.49481 0.09121 0.91221 0.0
C943 C 0.48381 0.10265 0.88394 0.0
H944 H 0.796 0.55255 0.82845 0.0
H945 H 0.7692 0.46157 0.84947 0.0
H946 H 0.79868 0.46315 0.89795 0.0
H947 H 0.83983 0.48702 0.92826 0.0
H948 H 0.86842 0.57721 0.90485 0.0
H949 H 0.82977 0.57979 0.86421 0.0
C950 C 0.79598 0.53346 0.8442 0.0
C951 C 0.781 0.50688 0.83549 0.0
C952 C 0.81347 0.53435 0.87149 0.0
C953 C 0.78071 0.48224 0.8559 0.0
C954 C 0.79774 0.48308 0.88343 0.0
C955 C 0.83702 0.50753 0.91482 0.0
C956 C 0.85724 0.53172 0.91939 0.0
C957 C 0.81543 0.50849 0.89061 0.0
C958 C 0.85309 0.55828 0.90202 0.0
C959 C 0.83121 0.55968 0.87843 0.0
H960 H 0.7259 0.69507 0.00816 0.0
H961 H 0.70353 0.70556 0.91122 0.0
H962 H 0.65465 0.67953 0.91931 0.0
H963 H 0.62152 0.64909 0.95297 0.0
H964 H 0.64452 0.63867 0.05015 0.0
H965 H 0.68962 0.67004 0.04315 0.0
C966 C 0.70998 0.69198 0.98901 0.0
C967 C 0.71806 0.70175 0.95915 0.0
C968 C 0.68222 0.67702 0.99388 0.0
C969 C 0.6975 0.69806 0.93437 0.0
C970 C 0.66973 0.68313 0.939 0.0
C971 C 0.63609 0.65406 0.97276 0.0
C972 C 0.6299 0.64103 0.00191 0.0
C973 C 0.66227 0.67181 0.96851 0.0
C974 C 0.64886 0.64808 0.02736 0.0
C975 C 0.67477 0.66594 0.02338 0.0
H976 H 0.31701 0.70461 0.04121 0.0
H977 H 0.33284 0.73013 0.94603 0.0
H978 H 0.36742 0.68674 0.93908 0.0
H979 H 0.39602 0.64432 0.96142 0.0
H980 H 0.38535 0.62309 0.05869 0.0
H981 H 0.34527 0.66147 0.06344 0.0
C982 C 0.32779 0.70029 0.01889 0.0
C983 C 0.32247 0.72013 0.99405 0.0
C984 C 0.34838 0.67604 0.01551 0.0
C985 C 0.33674 0.71491 0.96532 0.0
C986 C 0.35643 0.6902 0.96143 0.0
C987 C 0.38457 0.64764 0.98356 0.0
C988 C 0.39331 0.63029 0.00956 0.0
C989 C 0.36282 0.67094 0.98653 0.0
C990 C 0.37859 0.63547 0.03816 0.0
C991 C 0.35591 0.65773 0.04098 0.0
H992 H 0.36187 0.32322 0.9778 0.0
H993 H 0.32392 0.34622 0.06733 0.0
H994 H 0.3614 0.38687 0.07305 0.0
H995 H 0.40728 0.41331 0.05391 0.0
H996 H 0.44458 0.39005 0.96397 0.0
H997 H 0.40537 0.35155 0.95726 0.0
C998 C 0.36159 0.33748 -0.00166 0.0
C999 C 0.34037 0.33186 0.02215 0.0
C1000 C 0.38345 0.36023 0.00164 0.0
C1001 C 0.33993 0.35044 0.0486 0.0
C1002 C 0.36157 0.37336 0.05202 0.0
C1003 C 0.40688 0.39966 0.03295 0.0
C1004 C 0.42899 0.40418 0.00964 0.0
C1005 C 0.3839 0.37796 0.02899 0.0
C1006 C 0.42788 0.38684 0.98229 0.0
C1007 C 0.40543 0.36492 0.9784 0.0
H1008 H 0.77108 0.36606 0.06457 0.0
H1009 H 0.74631 0.30254 0.99287 0.0
H1010 H 0.69865 0.33029 0.98331 0.0
H1011 H 0.66401 0.37213 0.99539 0.0
H1012 H 0.68678 0.43476 0.06867 0.0
H1013 H 0.73543 0.408 0.0774 0.0
C1014 C 0.75522 0.35842 0.04682 0.0
C1015 C 0.76214 0.33229 0.02945 0.0
C1016 C 0.72766 0.37436 0.04167 0.0
C1017 C 0.74132 0.3224 0.00673 0.0
C1018 C 0.71417 0.33835 0.00115 0.0
C1019 C 0.67968 0.38016 0.01313 0.0
C1020 C 0.67187 0.4056 0.03117 0.0
C1021 C 0.70713 0.36432 0.01846 0.0
C1022 C 0.69227 0.4153 0.0544 0.0
C1023 C 0.72006 0.39998 0.05942 0.0
H1024 H 0.00915 0.67328 0.70009 0.0
H1025 H 0.95836 0.72062 0.62896 0.0
H1026 H 0.95911 0.67556 0.59616 0.0
H1027 H 0.98102 0.6252 0.5848 0.0
H1028 H 0.03301 0.57898 0.6555 0.0
H1029 H 0.02435 0.62073 0.69173 0.0
C1030 C -0.00254 0.67353 0.67781 0.0
C1031 C 0.98418 0.70044 0.66682 0.0
C1032 C -0.00173 0.64767 0.65895 0.0
C1033 C 0.96939 0.70038 0.6377 0.0
C1034 C 0.9697 0.67459 0.61895 0.0
C1035 C 0.98922 0.62385 0.60857 0.0
C1036 C 0.00713 0.59905 0.61784 0.0
C1037 C 0.985 0.64842 0.62889 0.0
C1038 C 0.0188 0.59784 0.64822 0.0
C1039 C 0.01409 0.62178 0.66878 0.0
H1040 H 0.40035 0.97831 0.75584 0.0
H1041 H 0.34453 0.91044 0.71229 0.0
H1042 H 0.37569 0.91359 0.66483 0.0
H1043 H 0.4145 0.94012 0.63436 0.0
H1044 H 0.46538 0.01296 0.67601 0.0
H1045 H 0.44077 0.00324 0.72612 0.0
C1046 C 0.3956 0.96373 0.73613 0.0
C1047 C 0.37069 0.94388 0.7373 0.0
C1048 C 0.41253 0.96682 0.70876 0.0
C1049 C 0.36392 0.92558 0.71166 0.0
C1050 C 0.38159 0.92753 0.68466 0.0
C1051 C 0.42071 0.95341 0.6546 0.0
C1052 C 0.44175 0.97713 0.65172 0.0
C1053 C 0.40537 0.94867 0.68272 0.0
C1054 C 0.44922 0.9946 0.67784 0.0
C1055 C 0.43511 0.9891 0.70636 0.0
H1056 H 0.99083 0.37964 0.7224 0.0
H1057 H 0.04863 0.31009 0.68327 0.0
H1058 H 0.06442 0.34442 0.64167 0.0
H1059 H 0.06416 0.39532 0.61874 0.0
H1060 H 0.00577 0.46446 0.65839 0.0
H1061 H 0.98779 0.42913 0.69751 0.0
C1062 C 0.00684 0.37204 0.70468 0.0
C1063 C 0.01894 0.34265 0.70598 0.0
C1064 C 0.01578 0.39183 0.6811 0.0
C1065 C 0.03913 0.33271 0.68264 0.0
C1066 C 0.04822 0.35235 0.65902 0.0
C1067 C 0.04737 0.4026 0.63583 0.0
C1068 C 0.03664 0.4326 0.63586 0.0
C1069 C 0.03708 0.38213 0.65835 0.0
C1070 C 0.01462 0.44158 0.65795 0.0
C1071 C 0.00431 0.4214 0.68037 0.0
H1072 H 0.72324 0.09595 0.6882 0.0
H1073 H 0.74193 1.00109 0.70001 0.0
H1074 H 0.70668 0.98911 0.65752 0.0
H1075 H 0.66937 0.00548 0.6186 0.0
H1076 H 0.65036 0.10046 0.60645 0.0
H1077 H 0.68753 0.11256 0.64703 0.0
C1078 C 0.71933 0.07269 0.68152 0.0
C1079 C 0.73472 0.04937 0.6973 0.0
C1080 C 0.69937 0.06604 0.65685 0.0
C1081 C 0.73012 0.01933 0.68817 0.0
C1082 C 0.71009 0.01251 0.66388 0.0
C1083 C 0.67357 0.02889 0.62447 0.0
C1084 C 0.65686 0.05198 0.60959 0.0
C1085 C 0.69452 0.03568 0.64816 0.0
C1086 C 0.66281 0.08218 0.61752 0.0
C1087 C 0.68391 0.08914 0.6409 0.0
H1088 H 0.03271 0.31744 0.40721 0.0
H1089 H 0.07577 0.36134 0.32929 0.0
H1090 H 0.07109 0.41001 0.35568 0.0
H1091 H 0.04997 0.44052 0.39846 0.0
H1092 H 0.00652 0.39625 0.476 0.0
H1093 H 0.01715 0.34721 0.45259 0.0
C1094 C 0.04182 0.33749 0.39629 0.0
C1095 C 0.0543 0.33575 0.36617 0.0
C1096 C 0.03891 0.36539 0.41149 0.0
C1097 C 0.06557 0.36213 0.35225 0.0
C1098 C 0.063 0.38995 0.36736 0.0
C1099 C 0.04323 0.42014 0.41047 0.0
C1100 C 0.02699 0.42213 0.43867 0.0
C1101 C 0.04892 0.39195 0.39661 0.0
C1102 C 0.01879 0.39545 0.45412 0.0
C1103 C 0.02474 0.36734 0.44069 0.0
H1104 H 0.63094 0.11198 0.26707 0.0
H1105 H 0.71116 0.06024 0.29302 0.0
H1106 H 0.68471 0.04108 0.33858 0.0
H1107 H 0.63895 0.03815 0.37049 0.0
H1108 H 0.55903 0.09147 0.34764 0.0
H1109 H 0.58499 0.11073 0.30114 0.0
C1110 C 0.64255 0.09672 0.28293 0.0
C1111 C 0.67297 0.08772 0.27694 0.0
C1112 C 0.6272 0.0858 0.30928 0.0
C1113 C 0.68792 0.06792 0.29752 0.0
C1114 C 0.67274 0.0567 0.32338 0.0
C1115 C 0.62706 0.05372 0.35513 0.0
C1116 C 0.59704 0.06304 0.36204 0.0
C1117 C 0.64237 0.06527 0.3293 0.0
C1118 C 0.58215 0.08386 0.3425 0.0
C1119 C 0.59699 0.09489 0.31606 0.0
H1120 H 0.02661 0.65487 0.30793 0.0
H1121 H 0.95456 0.71377 0.34139 0.0
H1122 H 0.95643 0.68922 0.39209 0.0
H1123 H 0.97442 0.64759 0.42485 0.0
H1124 H 0.04205 0.58532 0.38951 0.0
H1125 H 0.04679 0.61492 0.34198 0.0
C1126 C 0.01134 0.66235 0.32634 0.0
C1127 C 0.99027 0.68593 0.32076 0.0
C1128 C 0.01203 0.64767 0.35522 0.0
C1129 C 0.97112 0.69581 0.34507 0.0
C1130 C 0.97205 0.68167 0.37404 0.0
C1131 C 0.99068 0.64088 0.40699 0.0
C1132 C 0.0086 0.61466 0.411 0.0
C1133 C 0.99189 0.65714 0.3791 0.0
C1134 C 0.02926 0.60608 0.3876 0.0
C1135 C 0.03134 0.62267 0.3601 0.0
H1136 H 0.30076 0.9659 0.33781 0.0
H1137 H 0.32011 0.05528 0.30435 0.0
H1138 H 0.34638 0.06736 0.35302 0.0
H1139 H 0.37062 0.04983 0.40109 0.0
H1140 H 0.35548 0.95884 0.4325 0.0
H1141 H 0.32009 0.9503 0.38929 0.0
C1142 C 0.3101 0.98821 0.3416 0.0
C1143 C 0.30881 0.00962 0.3176 0.0
C1144 C 0.32605 0.99464 0.36925 0.0
C1145 C 0.32116 0.03841 0.32252 0.0
C1146 C 0.33616 0.0453 0.35029 0.0
C1147 C 0.35884 0.02844 0.39906 0.0
C1148 C 0.36585 0.00493 0.41981 0.0
C1149 C 0.33973 0.02322 0.37332 0.0
C1150 C 0.35059 0.97725 0.41669 0.0
C1151 C 0.33053 0.97228 0.39185 0.0
H1152 H 0.02676 0.24217 0.40253 0.0
H1153 H 0.07867 0.19699 0.33072 0.0
H1154 H 0.07067 0.14847 0.35663 0.0
H1155 H 0.0433 0.11844 0.39641 0.0
H1156 H 0.98791 0.16445 0.46485 0.0
H1157 H 0.00369 0.21321 0.4443 0.0
C1158 C 0.03709 0.22185 0.39296 0.0
C1159 C 0.0533 0.22318 0.36476 0.0
C1160 C 0.03171 0.19415 0.40749 0.0
C1161 C 0.0659 0.1965 0.35231 0.0
C1162 C 0.06136 0.16879 0.36713 0.0
C1163 C 0.03553 0.13924 0.40725 0.0
C1164 C 0.01472 0.13813 0.43215 0.0
C1165 C 0.04354 0.16724 0.39428 0.0
C1166 C 0.00411 0.16501 0.44575 0.0
C1167 C 0.01294 0.19281 0.43388 0.0
H1168 H 0.81662 0.05826 0.28945 0.0
H1169 H 0.85409 0.14805 0.29088 0.0
H1170 H 0.87917 0.13752 0.34054 0.0
H1171 H 0.8928 0.10197 0.38199 0.0
H1172 H 0.85753 0.01135 0.37927 0.0
H1173 H 0.82817 0.02344 0.33238 0.0
C1174 C 0.83002 0.07563 0.30078 0.0
C1175 C 0.83364 0.10384 0.28632 0.0
C1176 C 0.8444 0.0694 0.32934 0.0
C1177 C 0.85139 0.12597 0.30118 0.0
C1178 C 0.86549 0.12006 0.32974 0.0
C1179 C 0.87807 0.08508 0.37161 0.0
C1180 C 0.8772 0.05584 0.38421 0.0
C1181 C 0.86237 0.09179 0.3439 0.0
C1182 C 0.85846 0.03405 0.3701 0.0
C1183 C 0.84191 0.04088 0.34313 0.0
H1184 H 0.01275 0.8827 0.26998 0.0
H1185 H 0.9679 0.82015 0.33141 0.0
H1186 H 0.96892 0.85731 0.37331 0.0
H1187 H 0.9762 0.90956 0.39012 0.0
H1188 H 0.02082 0.97254 0.32889 0.0
H1189 H 0.02673 0.93314 0.28955 0.0
C1190 C 0.00364 0.87714 0.2927 0.0
C1191 C 0.98996 0.8489 0.29751 0.0
C1192 C 0.004 0.89875 0.31663 0.0
C1193 C 0.97865 0.84171 0.32716 0.0
C1194 C 0.979 0.86303 0.35107 0.0
C1195 C 0.9876 0.91459 0.36834 0.0
C1196 C -0.00265 0.94412 0.36216 0.0
C1197 C 0.99065 0.89193 0.34572 0.0
C1198 C 0.01267 0.9501 0.33409 0.0
C1199 C 0.01597 0.9276 0.31151 0.0
H1200 H 0.15567 0.01705 0.28368 0.0
H1201 H 0.13508 0.92223 0.29005 0.0
H1202 H 0.09817 0.93253 0.33141 0.0
H1203 H 0.0768 0.96745 0.37002 0.0
H1204 H 0.09881 0.06213 0.36512 0.0
H1205 H 0.12995 0.05286 0.31892 0.0
C1206 C 0.14299 0.99868 0.29405 0.0
C1207 C 0.14845 0.96889 0.28408 0.0
C1208 C 0.12226 0.00467 0.31829 0.0
C1209 C 0.13129 0.94538 0.2972 0.0
C1210 C 0.11034 0.95121 0.32104 0.0
C1211 C 0.08809 0.98616 0.35866 0.0
C1212 C 0.08594 0.01534 0.37143 0.0
C1213 C 0.10638 0.98063 0.33241 0.0
C1214 C 0.10026 0.03938 0.35601 0.0
C1215 C 0.11822 0.03409 0.32964 0.0
H1216 H 0.98319 0.84015 0.69109 0.0
H1217 H 0.04562 0.78513 0.63728 0.0
H1218 H 0.0616 0.8293 0.6078 0.0
H1219 H 0.0587 0.8837 0.59796 0.0
H1220 H 0.99656 0.93905 0.65191 0.0
H1221 H 0.97964 0.89469 0.68055 0.0
C1222 C 0.00042 0.83791 0.67303 0.0
C1223 C 0.01317 0.80938 0.6664 0.0
C1224 C 0.00952 0.86345 0.65611 0.0
C1225 C 0.0352 0.80676 0.64264 0.0
C1226 C 0.04444 0.83203 0.62584 0.0
C1227 C 0.04133 0.88608 0.61586 0.0
C1228 C 0.02904 0.91474 0.62279 0.0
C1229 C 0.0318 0.8605 0.63239 0.0
C1230 C 0.00652 0.91732 0.64609 0.0
C1231 C 0.99684 0.89194 0.66256 0.0
H1232 H 0.22262 0.05203 0.7036 0.0
H1233 H 0.20996 0.95778 0.72444 0.0
H1234 H 0.18053 0.95142 0.67661 0.0
H1235 H 0.1557 0.9731 0.63104 0.0
H1236 H 0.16566 0.06793 0.61097 0.0
H1237 H 0.19939 0.07343 0.65608 0.0
C1238 C 0.21324 0.03015 0.69773 0.0
C1239 C 0.21828 0.00545 0.71768 0.0
C1240 C 0.19612 0.0267 0.67026 0.0
C1241 C 0.20654 0.9771 0.70944 0.0
C1242 C 0.18967 0.97347 0.68212 0.0
C1243 C 0.16556 0.99496 0.63613 0.0
C1244 C 0.1579 0.02011 0.61766 0.0
C1245 C 0.18407 0.99816 0.66257 0.0
C1246 C 0.17106 0.04817 0.62475 0.0
C1247 C 0.19017 0.05139 0.65071 0.0
H1248 H 0.97833 0.13849 0.71241 0.0
H1249 H 0.99073 0.21987 0.65908 0.0
H1250 H 0.00764 0.19009 0.61443 0.0
H1251 H 0.02035 0.14076 0.59075 0.0
H1252 H 0.0075 0.05966 0.64381 0.0
H1253 H 0.98893 0.08934 0.68818 0.0
C1254 C 0.98436 0.14976 0.69094 0.0
C1255 C 0.98341 0.18148 0.68933 0.0
C1256 C 0.99379 0.13247 0.66518 0.0
C1257 C 0.99178 0.19557 0.66131 0.0
C1258 C 0.00121 0.17854 0.63561 0.0
C1259 C 0.01281 0.12972 0.61187 0.0
C1260 C 0.0144 0.09818 0.61398 0.0
C1261 C 0.00244 0.14699 0.6373 0.0
C1262 C 0.00557 0.08393 0.64158 0.0
C1263 C 0.9953 0.1009 0.66699 0.0
H1264 H 0.85463 0.09017 0.72633 0.0
H1265 H 0.83337 0.99673 0.74146 0.0
H1266 H 0.87846 0.98133 0.71136 0.0
H1267 H 0.916 0.99473 0.67136 0.0
H1268 H 0.93282 0.08863 0.65165 0.0
H1269 H 0.89822 0.10358 0.69327 0.0
C1270 C 0.86082 0.06651 0.72418 0.0
C1271 C 0.841 0.04455 0.73592 0.0
C1272 C 0.88561 0.05793 0.70529 0.0
C1273 C 0.84863 0.0139 0.73267 0.0
C1274 C 0.87412 0.00515 0.71512 0.0
C1275 C 0.91265 0.01845 0.67662 0.0
C1276 C 0.92664 0.04047 0.658 0.0
C1277 C 0.89158 0.02698 0.69974 0.0
C1278 C 0.92228 0.07112 0.66542 0.0
C1279 C 0.90229 0.07977 0.68917 0.0
H1280 H 0.35187 0.03991 0.2212 0.0
H1281 H 0.31354 0.95981 0.17947 0.0
H1282 H 0.34908 0.96406 0.13605 0.0
H1283 H 0.39121 0.9904 0.10982 0.0
H1284 H 0.43195 0.06808 0.15376 0.0
H1285 H 0.39609 0.06401 0.19703 0.0
C1286 C 0.35149 0.02301 0.20297 0.0
C1287 C 0.32971 0.99968 0.20377 0.0
C1288 C 0.37272 0.02492 0.17854 0.0
C1289 C 0.32941 0.97848 0.17933 0.0
C1290 C 0.35002 0.98065 0.15457 0.0
C1291 C 0.39238 0.00631 0.12898 0.0
C1292 C 0.41416 0.02956 0.12847 0.0
C1293 C 0.37177 0.00378 0.15393 0.0
C1294 C 0.4155 0.04988 0.15357 0.0
C1295 C 0.39487 0.0477 0.17827 0.0
H1296 H 0.02721 0.31468 0.1566 0.0
H1297 H 0.01511 0.36632 0.24096 0.0
H1298 H 0.02061 0.41309 0.21192 0.0
H1299 H 0.03029 0.43937 0.1631 0.0
H1300 H 0.04301 0.38835 0.07845 0.0
H1301 H 0.03522 0.34138 0.10695 0.0
C1302 C 0.02556 0.33619 0.16855 0.0
C1303 C 0.02113 0.33696 0.20097 0.0
C1304 C 0.02874 0.36312 0.15166 0.0
C1305 C 0.01917 0.36503 0.21614 0.0
C1306 C 0.02208 0.39182 0.19952 0.0
C1307 C 0.03116 0.41802 0.15078 0.0
C1308 C 0.03741 0.41741 0.11872 0.0
C1309 C 0.02712 0.39113 0.16736 0.0
C1310 C 0.03842 0.38948 0.10317 0.0
C1311 C 0.034 0.36259 0.11947 0.0
H1312 H 0.64841 0.04605 0.18604 0.0
H1313 H 0.70561 0.10461 0.13096 0.0
H1314 H 0.68326 0.08371 0.0835 0.0
H1315 H 0.64745 0.04842 0.05784 0.0
H1316 H 0.586 0.99569 0.1143 0.0
H1317 H 0.60936 0.01589 0.16128 0.0
C1318 C 0.65549 0.05525 0.16389 0.0
C1319 C 0.67863 0.07726 0.16246 0.0
C1320 C 0.6416 0.04428 0.13687 0.0
C1321 C 0.68819 0.08746 0.13304 0.0
C1322 C 0.67519 0.07571 0.10582 0.0
C1323 C 0.63888 0.04173 0.08043 0.0
C1324 C 0.61499 0.02062 0.08253 0.0
C1325 C 0.65189 0.05406 0.10749 0.0
C1326 C 0.60426 0.01199 0.11197 0.0
C1327 C 0.61767 0.02343 0.13888 0.0
H1328 H 0.01252 0.70035 0.17706 0.0
H1329 H 0.95499 0.63807 0.22686 0.0
H1330 H 0.95786 0.60254 0.18347 0.0
H1331 H 0.98126 0.58723 0.13357 0.0
H1332 H 0.038 0.65002 0.08412 0.0
H1333 H 0.03036 0.68763 0.12482 0.0
C1334 C -1e-05 0.67935 0.17822 0.0
C1335 C 0.98391 0.67182 0.20541 0.0
C1336 C 0.00154 0.65913 0.15315 0.0
C1337 C 0.9682 0.64419 0.20654 0.0
C1338 C 0.96961 0.62392 0.18163 0.0
C1339 C 0.99069 0.60959 0.1311 0.0
C1340 C 0.00962 0.61607 0.10565 0.0
C1341 C 0.98673 0.6309 0.15505 0.0
C1342 C 0.02311 0.64465 0.10341 0.0
C1343 C 0.01892 0.66609 0.12678 0.0
H1344 H 0.40594 0.96999 0.8234 0.0
H1345 H 0.32785 0.94874 0.88083 0.0
H1346 H 0.35717 0.96277 0.9274 0.0
H1347 H 0.40372 0.98561 0.95072 0.0
H1348 H 0.48064 0.00668 0.89196 0.0
H1349 H 0.45314 0.98743 0.84654 0.0
C1350 C 0.39546 0.9674 0.8461 0.0
C1351 C 0.36479 0.95802 0.84865 0.0
C1352 C 0.41222 0.97567 0.87236 0.0
C1353 C 0.35139 0.95597 0.87828 0.0
C1354 C 0.36813 0.96398 0.90483 0.0
C1355 C 0.41446 0.98531 0.92797 0.0
C1356 C 0.44399 0.99716 0.92425 0.0
C1357 C 0.39833 0.97452 0.90202 0.0
C1358 C 0.45792 0.99732 0.89497 0.0
C1359 C 0.44219 0.98651 0.86915 0.0
H1360 H 0.9572 0.32948 0.82652 0.0
H1361 H 0.05501 0.34019 0.81873 0.0
H1362 H 0.05485 0.37489 0.86308 0.0
H1363 H 0.02586 0.40718 0.89943 0.0
H1364 H 0.92743 0.39851 0.90494 0.0
H1365 H 0.92883 0.35808 0.86646 0.0
C1366 C 0.97853 0.33873 0.83524 0.0
C1367 C 0.00609 0.33226 0.81965 0.0
C1368 C 0.97805 0.35954 0.85997 0.0
C1369 C 0.03357 0.3448 0.83062 0.0
C1370 C 0.03343 0.36481 0.85577 0.0
C1371 C 0.00478 0.39615 0.89255 0.0
C1372 C 0.97656 0.40623 0.90473 0.0
C1373 C 0.00565 0.37319 0.86992 0.0
C1374 C 0.94946 0.39155 0.89562 0.0
C1375 C 0.95021 0.36835 0.87362 0.0
H1376 H 0.71438 0.10418 0.90074 0.0
H1377 H 0.66756 0.0984 0.81254 0.0
H1378 H 0.62288 0.07647 0.838 0.0
H1379 H 0.59994 0.05309 0.88432 0.0
H1380 H 0.64835 0.05603 0.97154 0.0
H1381 H 0.6892 0.08564 0.94777 0.0
C1382 C 0.6941 0.09885 0.88723 0.0
C1383 C 0.6944 0.10256 0.85479 0.0
C1384 C 0.66869 0.08581 0.90194 0.0
C1385 C 0.66805 0.09526 0.83752 0.0
C1386 C 0.64248 0.08278 0.85205 0.0
C1387 C 0.61903 0.06108 0.89822 0.0
C1388 C 0.62076 0.05342 0.92983 0.0
C1389 C 0.64295 0.07707 0.88409 0.0
C1390 C 0.64585 0.0631 0.94758 0.0
C1391 C 0.66948 0.07948 0.93386 0.0
H1392 H 0.98932 0.67462 0.80772 0.0
H1393 H 0.02623 0.73572 0.87622 0.0
H1394 H 0.03243 0.6942 0.91287 0.0
H1395 H 0.02063 0.64174 0.92791 0.0
H1396 H 0.98286 0.58131 0.85966 0.0
H1397 H 0.98477 0.62089 0.8202 0.0
C1398 C -0.00049 0.67879 0.83032 0.0
C1399 C 0.00666 0.70846 0.83931 0.0
C1400 C 0.00294 0.65478 0.85141 0.0
C1401 C 0.0197 0.71328 0.86889 0.0
C1402 C 0.02343 0.6895 0.88987 0.0
C1403 C 0.01395 0.63708 0.90408 0.0
C1404 C 0.00204 0.6087 0.89641 0.0
C1405 C 0.01417 0.66031 0.88178 0.0
C1406 C 0.99258 0.60296 0.86578 0.0
C1407 C 0.99335 0.62567 0.84335 0.0
H1408 H 0.1407 0.32822 0.04618 0.0
H1409 H 0.19604 0.32418 0.96299 0.0
H1410 H 0.1673 0.3664 0.94106 0.0
H1411 H 0.12783 0.40553 0.94613 0.0
H1412 H 0.07098 0.40867 0.02818 0.0
H1413 H 0.09856 0.36532 0.04966 0.0
C1414 C 0.14618 0.33624 0.02305 0.0
C1415 C 0.17079 0.32321 0.00646 0.0
C1416 C 0.12934 0.36039 0.01039 0.0
C1417 C 0.1777 0.33417 0.97661 0.0
C1418 C 0.16114 0.35821 0.96394 0.0
C1419 C 0.12134 0.39669 0.96866 0.0
C1420 C 0.09766 0.41066 0.98574 0.0
C1421 C 0.13719 0.37172 0.98077 0.0
C1422 C 0.08936 0.39862 0.01473 0.0
C1423 C 0.10511 0.37379 0.02701 0.0
H1424 H 0.12155 0.71287 0.0484 0.0
H1425 H 0.20318 0.68511 -0.00134 0.0
H1426 H 0.181 0.63609 0.9888 0.0
H1427 H 0.13577 0.60384 0.98701 0.0
H1428 H 0.05245 0.63216 0.0322 0.0
H1429 H 0.07769 0.67806 0.0511 0.0
C1430 C 0.1346 0.69601 0.03566 0.0
C1431 C 0.164 0.70299 0.02425 0.0
C1432 C 0.12126 0.66791 0.02905 0.0
C1433 C 0.18073 0.68052 0.00823 0.0
C1434 C 0.16792 0.65243 0.0022 0.0
C1435 C 0.12354 0.61972 0.0018 0.0
C1436 C 0.09266 0.61465 0.00891 0.0
C1437 C 0.13789 0.64628 0.01154 0.0
C1438 C 0.0766 0.63539 0.02748 0.0
C1439 C 0.0909 0.66175 0.0378 0.0
H1440 H 0.37336 0.23581 0.04982 0.0
H1441 H 0.31277 0.19954 0.98007 0.0
H1442 H 0.3468 0.15554 0.97386 0.0
H1443 H 0.39457 0.12812 0.988 0.0
H1444 H 0.45444 0.16579 0.05771 0.0
H1445 H 0.42032 0.20916 0.06361 0.0
C1446 C 0.36765 0.21831 0.03314 0.0
C1447 C 0.34084 0.22093 0.0152 0.0
C1448 C 0.38742 0.19368 0.02941 0.0
C1449 C 0.33328 0.19785 0.99421 0.0
C1450 C 0.35286 0.17292 0.99048 0.0
C1451 C 0.40027 0.1461 0.0041 0.0
C1452 C 0.42696 0.14391 0.02239 0.0
C1453 C 0.3802 0.17079 0.00773 0.0
C1454 C 0.43393 0.16699 0.04357 0.0
C1455 C 0.41442 0.19172 0.04698 0.0
H1456 H 0.87184 0.35199 0.99522 0.0
H1457 H 0.88605 0.31663 0.08735 0.0
H1458 H 0.92849 0.35173 0.09566 0.0
H1459 H 0.9562 0.3972 0.07918 0.0
H1460 H 0.94133 0.43253 0.98706 0.0
H1461 H 0.90538 0.39216 0.97572 0.0
C1462 C 0.88474 0.35167 0.01682 0.0
C1463 C 0.87585 0.33224 0.04081 0.0
C1464 C 0.90893 0.37189 0.02138 0.0
C1465 C 0.89266 0.33158 0.06865 0.0
C1466 C 0.91675 0.35169 0.07343 0.0
C1467 C 0.94557 0.39563 0.05641 0.0
C1468 C 0.95113 0.41801 0.03404 0.0
C1469 C 0.92435 0.37267 0.05034 0.0
C1470 C 0.93756 0.4155 0.00453 0.0
C1471 C 0.91667 0.39261 0.99818 0.0
H1472 H 0.7318 0.84426 0.98876 0.0
H1473 H 0.74605 0.88185 0.89737 0.0
H1474 H 0.6999 0.91261 0.90299 0.0
H1475 H 0.65447 0.92714 0.93249 0.0
H1476 H 0.63904 0.88962 0.02366 0.0
H1477 H 0.68638 0.85989 0.0191 0.0
C1478 C 0.72479 0.85917 0.97007 0.0
C1479 C 0.74243 0.86069 0.94266 0.0
C1480 C 0.69781 0.87643 0.97318 0.0
C1481 C 0.73326 0.88053 0.9189 0.0
C1482 C 0.70664 0.89789 0.92193 0.0
C1483 C 0.66127 0.91234 0.95136 0.0
C1484 C 0.64303 0.91038 0.97825 0.0
C1485 C 0.68856 0.89569 0.94874 0.0
C1486 C 0.65256 0.89143 0.00263 0.0
C1487 C 0.67966 0.8745 7e-05 0.0
H1488 H 0.85843 0.71309 0.98517 0.0
H1489 H 0.80836 0.64751 0.93132 0.0
H1490 H 0.84629 0.60904 0.94403 0.0
H1491 H 0.89056 0.59274 0.97483 0.0
H1492 H 0.94105 0.65744 0.02858 0.0
H1493 H 0.90663 0.6978 0.01096 0.0
C1494 C 0.85635 0.69062 0.97544 0.0
C1495 C 0.83032 0.68308 0.95777 0.0
C1496 C 0.87849 0.66848 0.9826 0.0
C1497 C 0.82784 0.65375 0.94555 0.0
C1498 C 0.84968 0.63174 0.95253 0.0
C1499 C 0.89496 0.61583 0.98127 0.0
C1500 C 0.91866 0.62224 0.00217 0.0
C1501 C 0.87473 0.63866 0.97156 0.0
C1502 C 0.92302 0.65211 0.01214 0.0
C1503 C 0.90328 0.67512 0.0022 0.0
H1504 H 0.32656 0.83088 0.95942 0.0
H1505 H 0.3098 0.8369 0.05794 0.0
H1506 H 0.34492 0.87968 0.06186 0.0
H1507 H 0.38575 0.90999 0.03837 0.0
H1508 H 0.40232 0.90401 0.93953 0.0
H1509 H 0.36127 0.86721 0.93442 0.0
C1510 C 0.33014 0.84212 0.98155 0.0
C1511 C 0.31601 0.83083 0.00842 0.0
C1512 C 0.35043 0.86649 0.98357 0.0
C1513 C 0.3205 0.84541 0.03702 0.0
C1514 C 0.34069 0.86968 0.03925 0.0
C1515 C 0.38002 0.90109 0.01559 0.0
C1516 C 0.39766 0.90917 0.98952 0.0
C1517 C 0.35662 0.87965 0.01286 0.0
C1518 C 0.38945 0.8979 0.96009 0.0
C1519 C 0.36606 0.8767 0.95714 0.0
H1520 H 0.73707 0.1978 0.05634 0.0
H1521 H 0.78701 0.1343 -0.00057 0.0
H1522 H 0.74 0.10504 0.99127 0.0
H1523 H 0.68501 0.09638 0.00295 0.0
H1524 H 0.63703 0.15863 0.06307 0.0
H1525 H 0.68289 0.18953 0.06756 0.0
C1526 C 0.73751 0.17778 0.04179 0.0
C1527 C 0.7652 0.1683 0.02822 0.0
C1528 C 0.7108 0.16079 0.03804 0.0
C1529 C 0.76579 0.14197 0.01 0.0
C1530 C 0.73899 0.12529 0.0054 0.0
C1531 C 0.68462 0.117 0.0165 0.0
C1532 C 0.65773 0.12549 0.03235 0.0
C1533 C 0.7114 0.13431 0.0196 0.0
C1534 C 0.65755 0.15172 0.05068 0.0
C1535 C 0.68372 0.1694 0.05323 0.0
H1536 H 0.53775 0.68902 0.79314 0.0
H1537 H 0.48623 0.75155 0.85023 0.0
H1538 H 0.47691 0.71222 0.88818 0.0
H1539 H 0.48357 0.6608 0.90574 0.0
H1540 H 0.53319 0.59642 0.84928 0.0
H1541 H 0.54288 0.63567 0.81042 0.0
C1542 C 0.52432 0.69388 0.81379 0.0
C1543 C 0.5132 0.72335 0.81908 0.0
C1544 C 0.51875 0.67091 0.83566 0.0
C1545 C 0.49575 0.7293 0.84593 0.0
C1546 C 0.49022 0.70678 0.86761 0.0
C1547 C 0.49663 0.65523 0.88502 0.0
C1548 C 0.50786 0.62577 0.88058 0.0
C1549 C 0.50181 0.67765 0.86286 0.0
C1550 C 0.52438 0.61898 0.85334 0.0
C1551 C 0.5299 0.64141 0.83111 0.0
H1552 H 0.43035 0.55069 0.79336 0.0
H1553 H 0.35547 0.5775 0.853 0.0
H1554 H 0.38325 0.55819 0.89836 0.0
H1555 H 0.42789 0.53169 0.92069 0.0
H1556 H 0.50123 0.50203 0.86039 0.0
H1557 H 0.47536 0.52498 0.81577 0.0
C1558 C 0.42027 0.55253 0.81635 0.0
C1559 C 0.39091 0.56546 0.81986 0.0
C1560 C 0.43615 0.54095 0.84219 0.0
C1561 C 0.37792 0.56737 0.8497 0.0
C1562 C 0.39385 0.55646 0.87563 0.0
C1563 C 0.43834 0.53055 0.89783 0.0
C1564 C 0.4664 0.51519 0.8938 0.0
C1565 C 0.42285 0.54294 0.87211 0.0
C1566 C 0.47954 0.5136 0.86402 0.0
C1567 C 0.46476 0.52668 0.83851 0.0
H1568 H 0.51544 0.31836 0.82525 0.0
H1569 H 0.42238 0.34846 0.84087 0.0
H1570 H 0.43957 0.38091 0.88329 0.0
H1571 H 0.48088 0.40023 0.91661 0.0
H1572 H 0.57396 0.36979 0.90134 0.0
H1573 H 0.55689 0.33808 0.85832 0.0
C1574 C 0.49891 0.33189 0.83805 0.0
C1575 C 0.46766 0.33094 0.8298 0.0
C1576 C 0.50894 0.35051 0.86253 0.0
C1577 C 0.44661 0.34899 0.84641 0.0
C1578 C 0.4564 0.36747 0.87081 0.0
C1579 C 0.49746 0.38668 0.90389 0.0
C1580 C 0.52865 0.38733 0.91241 0.0
C1581 C 0.4875 0.36838 0.87913 0.0
C1582 C 0.54979 0.36971 0.89545 0.0
C1583 C 0.54006 0.35151 0.8708 0.0
H1584 H 0.61158 0.45025 0.81324 0.0
H1585 H 0.62657 0.5398 0.77797 0.0
H1586 H 0.59626 0.56125 0.82059 0.0
H1587 H 0.57299 0.55493 0.87185 0.0
H1588 H 0.56161 0.46556 0.90949 0.0
H1589 H 0.5823 0.44356 0.86179 0.0
C1590 C 0.60734 0.47436 0.81447 0.0
C1591 C 0.62121 0.49353 0.79273 0.0
C1592 C 0.59095 0.48655 0.8397 0.0
C1593 C 0.61605 0.52475 0.79461 0.0
C1594 C 0.59892 0.53698 0.81902 0.0
C1595 C 0.57459 0.53062 0.86945 0.0
C1596 C 0.56628 0.51196 0.89442 0.0
C1597 C 0.58743 0.51818 0.84239 0.0
C1598 C 0.56805 0.48048 0.89073 0.0
C1599 C 0.58004 0.46786 0.86349 0.0
H1600 H 0.53433 0.34173 0.21074 0.0
H1601 H 0.44736 0.32383 0.16689 0.0
H1602 H 0.45454 0.36662 0.13193 0.0
H1603 H 0.48811 0.40571 0.11015 0.0
H1604 H 0.5765 0.42143 0.15211 0.0
H1605 H 0.566 0.38357 0.19174 0.0
C1606 C 0.51668 0.34765 0.19399 0.0
C1607 C 0.49043 0.3296 0.1913 0.0
C1608 C 0.52131 0.37187 0.17346 0.0
C1609 C 0.4679 0.33728 0.1692 0.0
C1610 C 0.47199 0.36173 0.14921 0.0
C1611 C 0.50475 0.40128 0.12838 0.0
C1612 C 0.53307 0.41626 0.12812 0.0
C1613 C 0.49898 0.37872 0.15056 0.0
C1614 C 0.55458 0.41007 0.1517 0.0
C1615 C 0.54864 0.38834 0.17434 0.0
H1616 H 0.69794 0.51484 0.18599 0.0
H1617 H 0.62127 0.47531 0.23415 0.0
H1618 H 0.59395 0.46958 0.18495 0.0
H1619 H 0.58837 0.48471 0.1299 0.0
H1620 H 0.66494 0.5249 0.08275 0.0
H1621 H 0.69629 0.52035 0.12962 0.0
C1622 C 0.67575 0.50395 0.18577 0.0
C1623 C 0.66144 0.49629 0.21395 0.0
C1624 C 0.66008 0.50087 0.15743 0.0
C1625 C 0.6325 0.48234 0.21294 0.0
C1626 C 0.61687 0.4789 0.18476 0.0
C1627 C 0.61235 0.49106 0.1296 0.0
C1628 C 0.62457 0.50485 0.10307 0.0
C1629 C 0.62987 0.48936 0.15704 0.0
C1630 C 0.65533 0.51395 0.103 0.0
C1631 C 0.67311 0.51166 0.12986 0.0
H1632 H 0.60102 0.6619 0.18845 0.0
H1633 H 0.51271 0.70202 0.20854 0.0
H1634 H 0.49019 0.67526 0.16457 0.0
H1635 H 0.495 0.63977 0.12139 0.0
H1636 H 0.58292 0.59966 0.09989 0.0
H1637 H 0.60613 0.62695 0.14354 0.0
C1638 C 0.57682 0.66468 0.18325 0.0
C1639 C 0.55859 0.684 0.20189 0.0
C1640 C 0.56394 0.64917 0.15775 0.0
C1641 C 0.52737 0.68763 0.1945 0.0
C1642 C 0.51442 0.67219 0.16942 0.0
C1643 C 0.5193 0.63693 0.1261 0.0
C1644 C 0.53712 0.61739 0.10741 0.0
C1645 C 0.53243 0.65282 0.15101 0.0
C1646 C 0.5686 0.61433 0.1139 0.0
C1647 C 0.58186 0.62997 0.1389 0.0
H1648 H 0.33868 0.58668 0.12651 0.0
H1649 H 0.36946 0.54866 0.21347 0.0
H1650 H 0.4176 0.53259 0.18878 0.0
H1651 H 0.44808 0.52426 0.14057 0.0
H1652 H 0.41141 0.55478 0.05312 0.0
H1653 H 0.36758 0.57759 0.07954 0.0
C1654 C 0.35577 0.57467 0.14014 0.0
C1655 C 0.35018 0.56834 0.17163 0.0
C1656 C 0.38234 0.56415 0.12552 0.0
C1657 C 0.37315 0.55383 0.18917 0.0
C1658 C 0.40054 0.5444 0.17498 0.0
C1659 C 0.43088 0.53678 0.1276 0.0
C1660 C 0.43376 0.53973 0.09516 0.0
C1661 C 0.40502 0.54875 0.14294 0.0
C1662 C 0.41082 0.55463 0.07826 0.0
C1663 C 0.38553 0.56713 0.09331 0.0
H1664 H 0.82849 0.54188 0.73835 0.0
H1665 H 0.7947 0.45659 0.70458 0.0
H1666 H 0.83715 0.45334 0.6678 0.0
H1667 H 0.8832 0.47442 0.64527 0.0
H1668 H 0.91659 0.56091 0.67618 0.0
H1669 H 0.8754 0.56349 0.715 0.0
C1670 C 0.83046 0.52263 0.72287 0.0
C1671 C 0.80835 0.49956 0.72406 0.0
C1672 C 0.85506 0.52086 0.70179 0.0
C1673 C 0.81104 0.47486 0.70375 0.0
C1674 C 0.83551 0.47283 0.68299 0.0
C1675 C 0.88193 0.49375 0.66073 0.0
C1676 C 0.90325 0.51735 0.65794 0.0
C1677 C 0.85765 0.4956 0.68193 0.0
C1678 C 0.90069 0.54233 0.67796 0.0
C1679 C 0.87699 0.54391 0.69996 0.0
H1680 H 0.48412 0.82726 0.62316 0.0
H1681 H 0.57696 0.8064 0.65078 0.0
H1682 H 0.59525 0.85176 0.62451 0.0
H1683 H 0.58411 0.89943 0.59756 0.0
H1684 H 0.49085 0.92098 0.57179 0.0
H1685 H 0.47345 0.8732 0.59325 0.0
C1686 C 0.50844 0.83231 0.62279 0.0
C1687 C 0.52919 0.81358 0.63881 0.0
C1688 C 0.51863 0.85874 0.60832 0.0
C1689 C 0.56058 0.82062 0.63866 0.0
C1690 C 0.57101 0.84656 0.62374 0.0
C1691 C 0.56001 0.89359 0.59647 0.0
C1692 C 0.53874 0.91389 0.58335 0.0
C1693 C 0.55013 0.86617 0.60917 0.0
C1694 C 0.50765 0.90583 0.58186 0.0
C1695 C 0.49768 0.8785 0.59415 0.0
H1696 H 0.23262 0.59009 0.67437 0.0
H1697 H 0.24859 0.49704 0.69793 0.0
H1698 H 0.21638 0.48089 0.65437 0.0
H1699 H 0.17684 0.49371 0.61596 0.0
H1700 H 0.15899 0.58705 0.59402 0.0
H1701 H 0.19907 0.60272 0.62997 0.0
C1702 C 0.22989 0.56633 0.66908 0.0
C1703 C 0.24294 0.54468 0.68887 0.0
C1704 C 0.21053 0.55734 0.64469 0.0
C1705 C 0.23893 0.51393 0.68253 0.0
C1706 C 0.22029 0.50476 0.65789 0.0
C1707 C 0.18214 0.51745 0.6185 0.0
C1708 C 0.16433 0.53924 0.60287 0.0
C1709 C 0.20488 0.52631 0.63973 0.0
C1710 C 0.17188 0.56986 0.60619 0.0
C1711 C 0.19482 0.57885 0.62681 0.0
H1712 H 0.46067 0.12875 0.72458 0.0
H1713 H 0.51392 0.20695 0.70059 0.0
H1714 H 0.52729 0.18424 0.6507 0.0
H1715 H 0.52676 0.14118 0.61527 0.0
H1716 H 0.47376 0.06264 0.6377 0.0
H1717 H 0.45673 0.08655 0.68625 0.0
C1718 C 0.47509 0.14076 0.70831 0.0
C1719 C 0.48636 0.16951 0.71637 0.0
C1720 C 0.48252 0.1276 0.67927 0.0
C1721 C 0.5048 0.18494 0.69493 0.0
C1722 C 0.51251 0.17194 0.66639 0.0
C1723 C 0.51105 0.12943 0.63051 0.0
C1724 C 0.50153 0.10007 0.62279 0.0
C1725 C 0.5018 0.1432 0.65846 0.0
C1726 C 0.48109 0.08531 0.64278 0.0
C1727 C 0.47169 0.0989 0.67079 0.0
H1728 H 0.82307 0.47957 0.34646 0.0
H1729 H 0.80115 0.57414 0.35326 0.0
H1730 H 0.83259 0.57842 0.40031 0.0
H1731 H 0.87192 0.55673 0.43444 0.0
H1732 H 0.89488 0.46211 0.42694 0.0
H1733 H 0.85685 0.45612 0.38579 0.0
C1734 C 0.82462 0.50082 0.3589 0.0
C1735 C 0.81005 0.52652 0.34683 0.0
C1736 C 0.8431 0.50313 0.38552 0.0
C1737 C 0.81218 0.55413 0.36256 0.0
C1738 C 0.83026 0.55658 0.38924 0.0
C1739 C 0.86824 0.53466 0.42423 0.0
C1740 C 0.88672 0.51009 0.43329 0.0
C1741 C 0.8467 0.53146 0.40023 0.0
C1742 C 0.88123 0.48153 0.42019 0.0
C1743 C 0.85958 0.47808 0.39651 0.0
H1744 H 0.51049 0.82802 0.33149 0.0
H1745 H 0.60583 0.8524 0.33443 0.0
H1746 H 0.59563 0.8874 0.37749 0.0
H1747 H 0.55833 0.91546 0.40977 0.0
H1748 H 0.46241 0.89214 0.40499 0.0
H1749 H 0.47403 0.85238 0.36756 0.0
C1750 C 0.5291 0.8403 0.34236 0.0
C1751 C 0.55892 0.83737 0.33036 0.0
C1752 C 0.52282 0.86106 0.36637 0.0
C1753 C 0.58282 0.85396 0.34384 0.0
C1754 C 0.5769 0.8742 0.36818 0.0
C1755 C 0.54001 0.90146 0.40084 0.0
C1756 C 0.50946 0.9072 0.40995 0.0
C1757 C 0.5468 0.87867 0.37895 0.0
C1758 C 0.48609 0.88856 0.39825 0.0
C1759 C 0.4927 0.86573 0.37678 0.0
H1760 H 0.21703 0.55435 0.30418 0.0
H1761 H 0.20915 0.6459 0.33777 0.0
H1762 H 0.16135 0.63341 0.36416 0.0
H1763 H 0.12374 0.59579 0.38042 0.0
H1764 H 0.13204 0.50414 0.34722 0.0
H1765 H 0.17694 0.51788 0.31662 0.0
C1766 C 0.20465 0.57177 0.3168 0.0
C1767 C 0.21692 0.60099 0.31915 0.0
C1768 C 0.17701 0.56453 0.33167 0.0
C1769 C 0.20067 0.62306 0.33609 0.0
C1770 C 0.17313 0.61603 0.35093 0.0
C1771 C 0.13488 0.57894 0.36592 0.0
C1772 C 0.12459 0.54891 0.3663 0.0
C1773 C 0.1613 0.58674 0.34919 0.0
C1774 C 0.1395 0.52739 0.34747 0.0
C1775 C 0.16535 0.53517 0.33016 0.0
H1776 H 0.47217 0.22818 0.39433 0.0
H1777 H 0.53928 0.19483 0.32886 0.0
H1778 H 0.54133 0.14658 0.35652 0.0
H1779 H 0.52128 0.11269 0.39799 0.0
H1780 H 0.45341 0.14739 0.46188 0.0
H1781 H 0.45521 0.19652 0.43682 0.0
C1782 C 0.48781 0.21068 0.38638 0.0
C1783 C 0.50561 0.21534 0.35953 0.0
C1784 C 0.48883 0.18315 0.40231 0.0
C1785 C 0.52505 0.19188 0.34924 0.0
C1786 C 0.52636 0.16429 0.36518 0.0
C1787 C 0.50755 0.13127 0.4068 0.0
C1788 C 0.48739 0.12651 0.43187 0.0
C1789 C 0.50805 0.1595 0.3916 0.0
C1790 C 0.46912 0.15056 0.44264 0.0
C1791 C 0.47002 0.17862 0.42824 0.0
H1792 H 0.64974 0.82971 0.53248 0.0
H1793 H 0.71093 0.84039 0.45442 0.0
H1794 H 0.6847 0.88727 0.44025 0.0
H1795 H 0.64357 0.92476 0.44939 0.0
H1796 H 0.58082 0.91182 0.5257 0.0
H1797 H 0.60815 0.8661 0.54081 0.0
C1798 C 0.65718 0.842 0.51209 0.0
C1799 C 0.6823 0.83128 0.49452 0.0
C1800 C 0.64164 0.8686 0.50371 0.0
C1801 C 0.69196 0.84813 0.46865 0.0
C1802 C 0.6768 0.87488 0.46037 0.0
C1803 C 0.63588 0.91197 0.46935 0.0
C1804 C 0.6103 0.92204 0.48662 0.0
C1805 C 0.65152 0.88528 0.47766 0.0
C1806 C 0.6006 0.90496 0.51225 0.0
C1807 C 0.61619 0.87867 0.52085 0.0
H1808 H 0.65493 0.2195 0.52732 0.0
H1809 H 0.72045 0.16988 0.47164 0.0
H1810 H 0.68866 0.12502 0.47482 0.0
H1811 H 0.63839 0.10279 0.48549 0.0
H1812 H 0.57153 0.15223 0.53911 0.0
H1813 H 0.60761 0.19421 0.54498 0.0
C1814 C 0.66245 0.19871 0.51632 0.0
C1815 C 0.68987 0.19823 0.49888 0.0
C1816 C 0.64366 0.17306 0.51768 0.0
C1817 C 0.69959 0.17095 0.48528 0.0
C1818 C 0.68126 0.1453 0.48685 0.0
C1819 C 0.63223 0.12239 0.49936 0.0
C1820 C 0.60261 0.12461 0.512 0.0
C1821 C 0.65275 0.14649 0.50189 0.0
C1822 C 0.59444 0.15006 0.52958 0.0
C1823 C 0.61494 0.17411 0.53259 0.0
H1824 H 0.87612 0.71392 0.48064 0.0
H1825 H 0.80596 0.6911 0.54714 0.0
H1826 H 0.83273 0.64414 0.55927 0.0
H1827 H 0.87848 0.61214 0.55498 0.0
H1828 H 0.94854 0.63329 0.48807 0.0
H1829 H 0.91943 0.6782 0.47182 0.0
C1830 C 0.86654 0.69839 0.49743 0.0
C1831 C 0.83914 0.70603 0.51306 0.0
C1832 C 0.88215 0.67131 0.50437 0.0
C1833 C 0.82682 0.68564 0.53458 0.0
C1834 C 0.84226 0.65889 0.54174 0.0
C1835 C 0.88715 0.62641 0.53655 0.0
C1836 C 0.91562 0.61967 0.52282 0.0
C1837 C 0.87028 0.65191 0.52738 0.0
C1838 C 0.92654 0.638 0.49875 0.0
C1839 C 0.91 0.66377 0.48968 0.0
H1840 H 0.27916 0.8783 0.54568 0.0
H1841 H 0.32224 0.79041 0.53982 0.0
H1842 H 0.37221 0.81416 0.53374 0.0
H1843 H 0.40385 0.85995 0.53113 0.0
H1844 H 0.35974 0.94741 0.53324 0.0
H1845 H 0.30976 0.92351 0.5381 0.0
C1846 C 0.29922 0.8641 0.54235 0.0
C1847 C 0.29657 0.83241 0.54331 0.0
C1848 C 0.32777 0.87785 0.5378 0.0
C1849 C 0.32335 0.81478 0.53986 0.0
C1850 C 0.352 0.82836 0.53601 0.0
C1851 C 0.38327 0.8738 0.53226 0.0
C1852 C 0.38564 0.90548 0.53203 0.0
C1853 C 0.3545 0.85989 0.5351 0.0
C1854 C 0.35869 0.92302 0.53333 0.0
C1855 C 0.33006 0.90936 0.53634 0.0
H1856 H 0.20496 0.34089 0.52486 0.0
H1857 H 0.24209 0.35656 0.43335 0.0
H1858 H 0.20019 0.39132 0.42173 0.0
H1859 H 0.15432 0.41875 0.43782 0.0
H1860 H 0.11649 0.40452 0.52929 0.0
H1861 H 0.15702 0.36755 0.54047 0.0
C1862 C 0.20366 0.35176 0.50233 0.0
C1863 C 0.22688 0.34643 0.48016 0.0
C1864 C 0.17941 0.37203 0.49577 0.0
C1865 C 0.22489 0.36071 0.45105 0.0
C1866 C 0.20084 0.3805 0.4443 0.0
C1867 C 0.15476 0.40753 0.46021 0.0
C1868 C 0.13242 0.4146 0.48271 0.0
C1869 C 0.17822 0.38661 0.46658 0.0
C1870 C 0.13341 0.39961 0.51151 0.0
C1871 C 0.15663 0.37848 0.51796 0.0
H1872 H 0.31828 0.15433 0.48559 0.0
H1873 H 0.3289 0.19369 0.57658 0.0
H1874 H 0.37151 0.15884 0.58774 0.0
H1875 H 0.40376 0.11569 0.57235 0.0
H1876 H 0.39472 0.07791 0.48042 0.0
H1877 H 0.35364 0.11377 0.46858 0.0
C1878 C 0.33017 0.1553 0.50775 0.0
C1879 C 0.32055 0.1762 0.53041 0.0
C1880 C 0.35473 0.13548 0.51376 0.0
C1881 C 0.33608 0.17767 0.55893 0.0
C1882 C 0.36029 0.15774 0.56527 0.0
C1883 C 0.39289 0.11531 0.54965 0.0
C1884 C 0.40199 0.09361 0.52741 0.0
C1885 C 0.36952 0.13629 0.543 0.0
C1886 C 0.38802 0.09396 0.498 0.0
C1887 C 0.36448 0.11453 0.49127 0.0
H1888 H 0.82667 0.3265 0.51781 0.0
H1889 H 0.881 0.3067 0.43641 0.0
H1890 H 0.91187 0.35166 0.44578 0.0
H1891 H 0.92512 0.39511 0.47878 0.0
H1892 H 0.87065 0.41425 0.56043 0.0
H1893 H 0.83797 0.37134 0.54898 0.0
C1894 C 0.84485 0.33236 0.50176 0.0
C1895 C 0.85154 0.31328 0.47648 0.0
C1896 C 0.86265 0.35805 0.50743 0.0
C1897 C 0.87557 0.3209 0.45621 0.0
C1898 C 0.89321 0.34661 0.46152 0.0
C1899 C 0.90598 0.39002 0.49394 0.0
C1900 C 0.90055 0.4078 0.52054 0.0
C1901 C 0.88727 0.36509 0.48736 0.0
C1902 C 0.87555 0.40089 0.53989 0.0
C1903 C 0.85678 0.37633 0.53338 0.0
H1904 H 0.19943 0.67718 0.53632 0.0
H1905 H 0.15557 0.67487 0.62601 0.0
H1906 H 0.11755 0.63908 0.60609 0.0
H1907 H 0.09583 0.6096 0.56202 0.0
H1908 H 0.14148 0.61262 0.47299 0.0
H1909 H 0.17948 0.64686 0.49374 0.0
C1910 C 0.1815 0.66888 0.55149 0.0
C1911 C 0.1801 0.67883 0.58243 0.0
C1912 C 0.15996 0.64838 0.53996 0.0
C1913 C 0.1571 0.66748 0.60203 0.0
C1914 C 0.13528 0.64716 0.59061 0.0
C1915 C 0.1143 0.61748 0.54737 0.0
C1916 C 0.11566 0.6085 0.51599 0.0
C1917 C 0.13637 0.63752 0.55948 0.0
C1918 C 0.13963 0.61926 0.49719 0.0
C1919 C 0.16151 0.63887 0.509 0.0
loop_
_geom_bond_atom_site_label_1
_geom_bond_atom_site_label_2
_geom_bond_distance
_geom_bond_site_symmetry_2
_ccdc_geom_bond_type
H0 C1 0.949 . S
C1 H0 0.949 . S
C1 C2 1.395 . S
C1 C3 1.391 . S
C2 C1 1.395 . S
C2 C5 1.390 . S
C3 C1 1.391 . S
C3 C7 1.387 . S
C3 C8 1.491 . S
H4 C5 0.950 . S
C5 C2 1.390 . S
C5 H4 0.950 . S
C5 C6 1.378 . S
C6 C5 1.378 . S
C6 C7 1.409 . S
C7 C3 1.387 . S
C7 C6 1.409 . S
C7 H9 0.951 . S
C8 C3 1.491 . S
C8 C10 1.382 . S
C8 C12 1.405 1_455 S
H9 C7 0.951 . S
C10 C8 1.382 . S
C10 C11 1.390 . S
C10 H15 0.949 . S
C11 C10 1.390 . S
C11 C16 1.399 . S
C12 C8 1.405 1_655 S
C12 H13 0.949 . S
C12 C14 1.374 . S
H13 C12 0.949 . S
C14 C12 1.374 . S
C14 C16 1.382 1_655 S
C14 H18 0.950 . S
H15 C10 0.949 . S
C16 C11 1.399 . S
C16 C14 1.382 1_455 S
C16 H17 0.961 . S
H17 C16 0.961 . S
H18 C14 0.950 . S
H19 C20 0.949 . S
C20 H19 0.949 . S
C20 C21 1.395 . S
C20 C22 1.391 . S
C21 C20 1.395 . S
C21 C24 1.390 . S
C22 C20 1.391 . S
C22 C26 1.387 . S
C22 C27 1.491 . S
H23 C24 0.950 . S
C24 C21 1.390 . S
C24 H23 0.950 . S
C24 C25 1.378 . S
C25 C24 1.378 . S
C25 C26 1.409 . S
C26 C22 1.387 . S
C26 C25 1.409 . S
C26 H28 0.951 . S
C27 C22 1.491 . S
C27 C29 1.382 . S
C27 C31 1.404 . S
H28 C26 0.951 . S
C29 C27 1.382 . S
C29 C30 1.390 . S
C29 H34 0.949 . S
C30 C29 1.390 . S
C30 C35 1.399 . S
C31 C27 1.404 . S
C31 H32 0.950 . S
C31 C33 1.375 . S
H32 C31 0.950 . S
C33 C31 1.375 . S
C33 C35 1.382 . S
C33 H37 0.950 . S
H34 C29 0.949 . S
C35 C30 1.399 . S
C35 C33 1.382 . S
C35 H36 0.952 . S
H36 C35 0.952 . S
H37 C33 0.950 . S
H38 C39 0.949 . S
C39 H38 0.949 . S
C39 C40 1.395 . S
C39 C41 1.391 . S
C40 C39 1.395 . S
C40 C43 1.390 . S
C41 C39 1.391 . S
C41 C45 1.387 . S
C41 C46 1.491 . S
H42 C43 0.950 . S
C43 C40 1.390 . S
C43 H42 0.950 . S
C43 C44 1.378 . S
C44 C43 1.378 . S
C44 C45 1.409 . S
C45 C41 1.387 . S
C45 C44 1.409 . S
C45 H47 0.951 . S
C46 C41 1.491 . S
C46 C48 1.382 . S
C46 C50 1.404 1_455 S
H47 C45 0.951 . S
C48 C46 1.382 . S
C48 C49 1.390 . S
C48 H53 0.949 . S
C49 C48 1.390 . S
C49 C54 1.399 1_455 S
C50 C46 1.404 1_655 S
C50 H51 0.950 . S
C50 C52 1.375 . S
H51 C50 0.950 . S
C52 C50 1.375 . S
C52 C54 1.382 . S
C52 H56 0.950 . S
H53 C48 0.949 . S
C54 C49 1.399 1_655 S
C54 C52 1.382 . S
C54 H55 0.952 . S
H55 C54 0.952 . S
H56 C52 0.950 . S
H57 C58 0.949 . S
C58 H57 0.949 . S
C58 C59 1.395 1_565 S
C58 C60 1.391 . S
C59 C58 1.395 1_545 S
C59 C62 1.390 . S
C60 C58 1.391 . S
C60 C64 1.387 . S
C60 C65 1.491 . S
H61 C62 0.950 . S
C62 C59 1.390 . S
C62 H61 0.950 . S
C62 C63 1.378 . S
C63 C62 1.378 . S
C63 C64 1.409 1_545 S
C64 C60 1.387 . S
C64 C63 1.409 1_565 S
C64 H66 0.951 . S
C65 C60 1.491 . S
C65 C67 1.382 1_565 S
C65 C69 1.404 . S
H66 C64 0.951 . S
C67 C65 1.382 1_545 S
C67 C68 1.390 1_545 S
C67 H72 0.949 . S
C68 C67 1.390 1_565 S
C68 C73 1.399 . S
C69 C65 1.404 . S
C69 H70 0.950 . S
C69 C71 1.375 . S
H70 C69 0.950 . S
C71 C69 1.375 . S
C71 C73 1.382 . S
C71 H75 0.950 . S
H72 C67 0.949 . S
C73 C68 1.399 . S
C73 C71 1.382 . S
C73 H74 0.952 . S
H74 C73 0.952 . S
H75 C71 0.950 . S
H76 C77 0.949 . S
C77 H76 0.949 . S
C77 C78 1.392 1_655 S
C77 C79 1.391 . S
C78 C77 1.392 1_455 S
C78 C81 1.391 . S
C79 C77 1.391 . S
C79 C83 1.387 . S
C79 C84 1.491 . S
H80 C81 0.950 . S
C81 C78 1.391 . S
C81 H80 0.950 . S
C81 C82 1.379 . S
C82 C81 1.379 . S
C82 C83 1.406 1_455 S
C83 C79 1.387 . S
C83 C82 1.406 1_655 S
C83 H85 0.951 . S
C84 C79 1.491 . S
C84 C86 1.382 . S
C84 C88 1.404 . S
H85 C83 0.951 . S
C86 C84 1.382 . S
C86 C87 1.390 . S
C86 H91 0.949 1_655 S
C87 C86 1.390 . S
C87 C92 1.399 . S
C88 C84 1.404 . S
C88 H89 0.950 . S
C88 C90 1.375 . S
H89 C88 0.950 . S
C90 C88 1.375 . S
C90 C92 1.382 . S
C90 H94 0.950 . S
H91 C86 0.949 1_455 S
C92 C87 1.399 . S
C92 C90 1.382 . S
C92 H93 0.952 . S
H93 C92 0.952 . S
H94 C90 0.950 . S
H95 C96 0.949 . S
C96 H95 0.949 . S
C96 C97 1.395 . S
C96 C98 1.391 . S
C97 C96 1.395 . S
C97 C100 1.390 . S
C98 C96 1.391 . S
C98 C102 1.387 . S
C98 C103 1.491 . S
H99 C100 0.950 . S
C100 C97 1.390 . S
C100 H99 0.950 . S
C100 C101 1.378 . S
C101 C100 1.378 . S
C101 C102 1.409 . S
C102 C98 1.387 . S
C102 C101 1.409 . S
C102 H104 0.951 . S
C103 C98 1.491 . S
C103 C105 1.382 . S
C103 C107 1.404 . S
H104 C102 0.951 . S
C105 C103 1.382 . S
C105 C106 1.390 . S
C105 H110 0.949 1_545 S
C106 C105 1.390 . S
C106 C111 1.399 . S
C107 C103 1.404 . S
C107 H108 0.950 . S
C107 C109 1.375 . S
H108 C107 0.950 . S
C109 C107 1.375 . S
C109 C111 1.382 . S
C109 H113 0.950 . S
H110 C105 0.949 1_565 S
C111 C106 1.399 . S
C111 C109 1.382 . S
C111 H112 0.952 . S
H112 C111 0.952 . S
H113 C109 0.950 . S
H114 C115 0.949 . S
C115 H114 0.949 . S
C115 C116 1.395 . S
C115 C117 1.391 . S
C116 C115 1.395 . S
C116 C119 1.390 . S
C117 C115 1.391 . S
C117 C121 1.387 . S
C117 C122 1.491 . S
H118 C119 0.950 . S
C119 C116 1.390 . S
C119 H118 0.950 . S
C119 C120 1.378 . S
C120 C119 1.378 . S
C120 C121 1.409 . S
C121 C117 1.387 . S
C121 C120 1.409 . S
C121 H123 0.951 . S
C122 C117 1.491 . S
C122 C124 1.382 . S
C122 C126 1.404 1_455 S
H123 C121 0.951 . S
C124 C122 1.382 . S
C124 C125 1.390 . S
C124 H129 0.949 . S
C125 C124 1.390 . S
C125 C130 1.399 1_455 S
C126 C122 1.404 1_655 S
C126 H127 0.950 . S
C126 C128 1.375 . S
H127 C126 0.950 . S
C128 C126 1.375 . S
C128 C130 1.382 . S
C128 H132 0.950 . S
H129 C124 0.949 . S
C130 C125 1.399 1_655 S
C130 C128 1.382 . S
C130 H131 0.952 . S
H131 C130 0.952 . S
H132 C128 0.950 . S
H133 C134 0.949 . S
C134 H133 0.949 . S
C134 C135 1.395 . S
C134 C136 1.391 . S
C135 C134 1.395 . S
C135 C138 1.390 . S
C136 C134 1.391 . S
C136 C140 1.387 . S
C136 C141 1.491 . S
H137 C138 0.950 . S
C138 C135 1.390 . S
C138 H137 0.950 . S
C138 C139 1.378 . S
C139 C138 1.378 . S
C139 C140 1.409 . S
C140 C136 1.387 . S
C140 C139 1.409 . S
C140 H142 0.951 . S
C141 C136 1.491 . S
C141 C143 1.382 . S
C141 C145 1.404 . S
H142 C140 0.951 . S
C143 C141 1.382 . S
C143 C144 1.390 . S
C143 H148 0.949 . S
C144 C143 1.390 . S
C144 C149 1.399 . S
C145 C141 1.404 . S
C145 H146 0.950 . S
C145 C147 1.375 . S
H146 C145 0.950 . S
C147 C145 1.375 . S
C147 C149 1.382 . S
C147 H151 0.950 . S
H148 C143 0.949 . S
C149 C144 1.399 . S
C149 C147 1.382 . S
C149 H150 0.952 . S
H150 C149 0.952 . S
H151 C147 0.950 . S
H152 C153 0.949 . S
C153 H152 0.949 . S
C153 C154 1.395 . S
C153 C155 1.391 . S
C154 C153 1.395 . S
C154 C157 1.390 . S
C155 C153 1.391 . S
C155 C159 1.387 . S
C155 C160 1.491 . S
H156 C157 0.950 . S
C157 C154 1.390 . S
C157 H156 0.950 . S
C157 C158 1.378 . S
C158 C157 1.378 . S
C158 C159 1.409 . S
C159 C155 1.387 . S
C159 C158 1.409 . S
C159 H161 0.951 . S
C160 C155 1.491 . S
C160 C162 1.382 . S
C160 C164 1.404 . S
H161 C159 0.951 . S
C162 C160 1.382 . S
C162 C163 1.390 . S
C162 H167 0.949 . S
C163 C162 1.390 . S
C163 C168 1.399 . S
C164 C160 1.404 . S
C164 H165 0.950 . S
C164 C166 1.375 . S
H165 C164 0.950 . S
C166 C164 1.375 . S
C166 C168 1.382 . S
C166 H170 0.950 . S
H167 C162 0.949 . S
C168 C163 1.399 . S
C168 C166 1.382 . S
C168 H169 0.952 . S
H169 C168 0.952 . S
H170 C166 0.950 . S
H171 C172 0.949 . S
C172 H171 0.949 . S
C172 C173 1.395 . S
C172 C174 1.391 . S
C173 C172 1.395 . S
C173 C176 1.390 . S
C174 C172 1.391 . S
C174 C178 1.387 . S
C174 C179 1.487 1_554 S
H175 C176 0.950 . S
C176 C173 1.390 . S
C176 H175 0.950 . S
C176 C177 1.378 . S
C177 C176 1.378 . S
C177 C178 1.409 . S
C178 C174 1.387 . S
C178 C177 1.409 . S
C178 H180 0.951 . S
C179 C174 1.487 1_556 S
C179 C181 1.375 1_556 S
C179 C183 1.415 . S
H180 C178 0.951 . S
C181 C179 1.375 1_554 S
C181 C182 1.390 . S
C181 H186 0.949 . S
C182 C181 1.390 . S
C182 C187 1.399 1_554 S
C183 C179 1.415 . S
C183 H184 0.950 . S
C183 C185 1.375 . S
H184 C183 0.950 . S
C185 C183 1.375 . S
C185 C187 1.382 . S
C185 H189 0.950 . S
H186 C181 0.949 . S
C187 C182 1.399 1_556 S
C187 C185 1.382 . S
C187 H188 0.952 . S
H188 C187 0.952 . S
H189 C185 0.950 . S
H190 C191 0.949 . S
C191 H190 0.949 . S
C191 C192 1.395 . S
C191 C193 1.391 . S
C192 C191 1.395 . S
C192 C195 1.390 . S
C193 C191 1.391 . S
C193 C197 1.387 . S
C193 C198 1.491 . S
H194 C195 0.950 1_556 S
C195 C192 1.390 . S
C195 H194 0.950 1_554 S
C195 C196 1.378 . S
C196 C195 1.378 . S
C196 C197 1.409 . S
C197 C193 1.387 . S
C197 C196 1.409 . S
C197 H199 0.951 . S
C198 C193 1.491 . S
C198 C200 1.382 . S
C198 C202 1.404 . S
H199 C197 0.951 . S
C200 C198 1.382 . S
C200 C201 1.390 . S
C200 H205 0.949 1_554 S
C201 C200 1.390 . S
C201 C206 1.399 . S
C202 C198 1.404 . S
C202 H203 0.950 . S
C202 C204 1.375 . S
H203 C202 0.950 . S
C204 C202 1.375 . S
C204 C206 1.382 . S
C204 H208 0.950 . S
H205 C200 0.949 1_556 S
C206 C201 1.399 . S
C206 C204 1.382 . S
C206 H207 0.952 . S
H207 C206 0.952 . S
H208 C204 0.950 . S
H209 C210 0.949 . S
C210 H209 0.949 . S
C210 C211 1.400 . S
C210 C212 1.387 1_554 S
C211 C210 1.400 . S
C211 C214 1.390 . S
C212 C210 1.387 1_556 S
C212 C216 1.389 . S
C212 C217 1.491 . S
H213 C214 0.950 . S
C214 C211 1.390 . S
C214 H213 0.950 . S
C214 C215 1.378 . S
C215 C214 1.378 . S
C215 C216 1.405 1_554 S
C216 C212 1.389 . S
C216 C215 1.405 1_556 S
C216 H218 0.954 . S
C217 C212 1.491 . S
C217 C219 1.382 1_556 S
C217 C221 1.404 . S
H218 C216 0.954 . S
C219 C217 1.382 1_554 S
C219 C220 1.390 1_554 S
C219 H224 0.949 . S
C220 C219 1.390 1_556 S
C220 C225 1.399 . S
C221 C217 1.404 . S
C221 H222 0.950 . S
C221 C223 1.375 . S
H222 C221 0.950 . S
C223 C221 1.375 . S
C223 C225 1.382 . S
C223 H227 0.950 . S
H224 C219 0.949 . S
C225 C220 1.399 . S
C225 C223 1.382 . S
C225 H226 0.952 . S
H226 C225 0.952 . S
H227 C223 0.950 . S
H228 C229 0.949 . S
C229 H228 0.949 . S
C229 C230 1.395 . S
C229 C231 1.391 . S
C230 C229 1.395 . S
C230 C233 1.390 . S
C231 C229 1.391 . S
C231 C235 1.387 . S
C231 C236 1.491 . S
H232 C233 0.950 . S
C233 C230 1.390 . S
C233 H232 0.950 . S
C233 C234 1.378 . S
C234 C233 1.378 . S
C234 C235 1.409 . S
C235 C231 1.387 . S
C235 C234 1.409 . S
C235 H237 0.951 . S
C236 C231 1.491 . S
C236 C238 1.382 . S
C236 C240 1.404 . S
H237 C235 0.951 . S
C238 C236 1.382 . S
C238 C239 1.390 . S
C238 H243 0.949 . S
C239 C238 1.390 . S
C239 C244 1.399 . S
C240 C236 1.404 . S
C240 H241 0.950 . S
C240 C242 1.375 . S
H241 C240 0.950 . S
C242 C240 1.375 . S
C242 C244 1.382 . S
C242 H246 0.950 . S
H243 C238 0.949 . S
C244 C239 1.399 . S
C244 C242 1.382 . S
C244 H245 0.952 . S
H245 C244 0.952 . S
H246 C242 0.950 . S
H247 C248 0.949 . S
C248 H247 0.949 . S
C248 C249 1.395 . S
C248 C250 1.391 . S
C249 C248 1.395 . S
C249 C252 1.390 . S
C250 C248 1.391 . S
C250 C254 1.387 . S
C250 C255 1.491 . S
H251 C252 0.950 . S
C252 C249 1.390 . S
C252 H251 0.950 . S
C252 C253 1.378 . S
C253 C252 1.378 . S
C253 C254 1.409 . S
C254 C250 1.387 . S
C254 C253 1.409 . S
C254 H256 0.951 . S
C255 C250 1.491 . S
C255 C257 1.382 . S
C255 C259 1.404 . S
H256 C254 0.951 . S
C257 C255 1.382 . S
C257 C258 1.390 . S
C257 H262 0.949 . S
C258 C257 1.390 . S
C258 C263 1.399 . S
C259 C255 1.404 . S
C259 H260 0.950 . S
C259 C261 1.375 . S
H260 C259 0.950 . S
C261 C259 1.375 . S
C261 C263 1.382 . S
C261 H265 0.950 . S
H262 C257 0.949 . S
C263 C258 1.399 . S
C263 C261 1.382 . S
C263 H264 0.952 . S
H264 C263 0.952 . S
H265 C261 0.950 . S
H266 C267 0.949 . S
C267 H266 0.949 . S
C267 C268 1.395 . S
C267 C269 1.391 . S
C268 C267 1.395 . S
C268 C271 1.390 . S
C269 C267 1.391 . S
C269 C273 1.387 . S
C269 C274 1.491 . S
H270 C271 0.950 . S
C271 C268 1.390 . S
C271 H270 0.950 . S
C271 C272 1.378 . S
C272 C271 1.378 . S
C272 C273 1.409 . S
C273 C269 1.387 . S
C273 C272 1.409 . S
C273 H275 0.951 . S
C274 C269 1.491 . S
C274 C276 1.382 . S
C274 C278 1.404 . S
H275 C273 0.951 . S
C276 C274 1.382 . S
C276 C277 1.390 . S
C276 H281 0.949 . S
C277 C276 1.390 . S
C277 C282 1.399 . S
C278 C274 1.404 . S
C278 H279 0.950 . S
C278 C280 1.375 . S
H279 C278 0.950 . S
C280 C278 1.375 . S
C280 C282 1.382 . S
C280 H284 0.950 . S
H281 C276 0.949 . S
C282 C277 1.399 . S
C282 C280 1.382 . S
C282 H283 0.952 . S
H283 C282 0.952 . S
H284 C280 0.950 . S
H285 C286 0.949 . S
C286 H285 0.949 . S
C286 C287 1.395 . S
C286 C288 1.391 . S
C287 C286 1.395 . S
C287 C290 1.390 . S
C288 C286 1.391 . S
C288 C292 1.387 . S
C288 C293 1.491 . S
H289 C290 0.950 . S
C290 C287 1.390 . S
C290 H289 0.950 . S
C290 C291 1.378 . S
C291 C290 1.378 . S
C291 C292 1.409 . S
C292 C288 1.387 . S
C292 C291 1.409 . S
C292 H294 0.951 . S
C293 C288 1.491 . S
C293 C295 1.382 . S
C293 C297 1.404 . S
H294 C292 0.951 . S
C295 C293 1.382 . S
C295 C296 1.390 . S
C295 H300 0.949 . S
C296 C295 1.390 . S
C296 C301 1.399 . S
C297 C293 1.404 . S
C297 H298 0.950 . S
C297 C299 1.375 . S
H298 C297 0.950 . S
C299 C297 1.375 . S
C299 C301 1.382 . S
C299 H303 0.950 . S
H300 C295 0.949 . S
C301 C296 1.399 . S
C301 C299 1.382 . S
C301 H302 0.952 . S
H302 C301 0.952 . S
H303 C299 0.950 . S
H304 C305 0.949 . S
C305 H304 0.949 . S
C305 C306 1.395 . S
C305 C307 1.391 . S
C306 C305 1.395 . S
C306 C309 1.390 . S
C307 C305 1.391 . S
C307 C311 1.387 . S
C307 C312 1.491 . S
H308 C309 0.950 . S
C309 C306 1.390 . S
C309 H308 0.950 . S
C309 C310 1.378 . S
C310 C309 1.378 . S
C310 C311 1.409 . S
C311 C307 1.387 . S
C311 C310 1.409 . S
C311 H313 0.951 . S
C312 C307 1.491 . S
C312 C314 1.382 . S
C312 C316 1.404 . S
H313 C311 0.951 . S
C314 C312 1.382 . S
C314 C315 1.390 . S
C314 H319 0.949 . S
C315 C314 1.390 . S
C315 C320 1.399 . S
C316 C312 1.404 . S
C316 H317 0.950 . S
C316 C318 1.375 . S
H317 C316 0.950 . S
C318 C316 1.375 . S
C318 C320 1.382 . S
C318 H322 0.950 . S
H319 C314 0.949 . S
C320 C315 1.399 . S
C320 C318 1.382 . S
C320 H321 0.952 . S
H321 C320 0.952 . S
H322 C318 0.950 . S
H323 C324 0.949 . S
C324 H323 0.949 . S
C324 C325 1.395 . S
C324 C326 1.391 . S
C325 C324 1.395 . S
C325 C328 1.390 . S
C326 C324 1.391 . S
C326 C330 1.387 . S
C326 C331 1.491 . S
H327 C328 0.950 . S
C328 C325 1.390 . S
C328 H327 0.950 . S
C328 C329 1.378 . S
C329 C328 1.378 . S
C329 C330 1.409 . S
C330 C326 1.387 . S
C330 C329 1.409 . S
C330 H332 0.951 . S
C331 C326 1.491 . S
C331 C333 1.382 . S
C331 C335 1.404 . S
H332 C330 0.951 . S
C333 C331 1.382 . S
C333 C334 1.390 . S
C333 H338 0.949 . S
C334 C333 1.390 . S
C334 C339 1.399 . S
C335 C331 1.404 . S
C335 H336 0.950 . S
C335 C337 1.375 . S
H336 C335 0.950 . S
C337 C335 1.375 . S
C337 C339 1.382 . S
C337 H341 0.950 . S
H338 C333 0.949 . S
C339 C334 1.399 . S
C339 C337 1.382 . S
C339 H340 0.952 . S
H340 C339 0.952 . S
H341 C337 0.950 . S
H342 C343 0.949 . S
C343 H342 0.949 . S
C343 C344 1.395 . S
C343 C345 1.391 . S
C344 C343 1.395 . S
C344 C347 1.390 . S
C345 C343 1.391 . S
C345 C349 1.387 . S
C345 C350 1.491 . S
H346 C347 0.950 . S
C347 C344 1.390 . S
C347 H346 0.950 . S
C347 C348 1.378 . S
C348 C347 1.378 . S
C348 C349 1.409 . S
C349 C345 1.387 . S
C349 C348 1.409 . S
C349 H351 0.951 . S
C350 C345 1.491 . S
C350 C352 1.382 . S
C350 C354 1.404 . S
H351 C349 0.951 . S
C352 C350 1.382 . S
C352 C353 1.390 . S
C352 H357 0.949 . S
C353 C352 1.390 . S
C353 C358 1.399 . S
C354 C350 1.404 . S
C354 H355 0.950 . S
C354 C356 1.375 . S
H355 C354 0.950 . S
C356 C354 1.375 . S
C356 C358 1.382 . S
C356 H360 0.950 . S
H357 C352 0.949 . S
C358 C353 1.399 . S
C358 C356 1.382 . S
C358 H359 0.952 . S
H359 C358 0.952 . S
H360 C356 0.950 . S
H361 C362 0.949 . S
C362 H361 0.949 . S
C362 C363 1.395 . S
C362 C364 1.391 . S
C363 C362 1.395 . S
C363 C366 1.390 . S
C364 C362 1.391 . S
C364 C368 1.387 . S
C364 C369 1.491 . S
H365 C366 0.950 . S
C366 C363 1.390 . S
C366 H365 0.950 . S
C366 C367 1.378 . S
C367 C366 1.378 . S
C367 C368 1.409 . S
C368 C364 1.387 . S
C368 C367 1.409 . S
C368 H370 0.951 . S
C369 C364 1.491 . S
C369 C371 1.382 . S
C369 C373 1.404 . S
H370 C368 0.951 . S
C371 C369 1.382 . S
C371 C372 1.390 . S
C371 H376 0.949 . S
C372 C371 1.390 . S
C372 C377 1.399 . S
C373 C369 1.404 . S
C373 H374 0.950 . S
C373 C375 1.375 . S
H374 C373 0.950 . S
C375 C373 1.375 . S
C375 C377 1.382 . S
C375 H379 0.950 . S
H376 C371 0.949 . S
C377 C372 1.399 . S
C377 C375 1.382 . S
C377 H378 0.952 . S
H378 C377 0.952 . S
H379 C375 0.950 . S
H380 C381 0.949 . S
C381 H380 0.949 . S
C381 C382 1.395 . S
C381 C383 1.391 . S
C382 C381 1.395 . S
C382 C385 1.390 . S
C383 C381 1.391 . S
C383 C387 1.387 . S
C383 C388 1.491 . S
H384 C385 0.950 . S
C385 C382 1.390 . S
C385 H384 0.950 . S
C385 C386 1.378 . S
C386 C385 1.378 . S
C386 C387 1.409 . S
C387 C383 1.387 . S
C387 C386 1.409 . S
C387 H389 0.951 . S
C388 C383 1.491 . S
C388 C390 1.382 . S
C388 C392 1.404 . S
H389 C387 0.951 . S
C390 C388 1.382 . S
C390 C391 1.390 . S
C390 H395 0.949 . S
C391 C390 1.390 . S
C391 C396 1.399 . S
C392 C388 1.404 . S
C392 H393 0.950 . S
C392 C394 1.375 . S
H393 C392 0.950 . S
C394 C392 1.375 . S
C394 C396 1.382 . S
C394 H398 0.950 . S
H395 C390 0.949 . S
C396 C391 1.399 . S
C396 C394 1.382 . S
C396 H397 0.952 . S
H397 C396 0.952 . S
H398 C394 0.950 . S
H399 C400 0.949 . S
C400 H399 0.949 . S
C400 C401 1.395 . S
C400 C402 1.391 . S
C401 C400 1.395 . S
C401 C404 1.390 . S
C402 C400 1.391 . S
C402 C406 1.387 . S
C402 C407 1.491 . S
H403 C404 0.950 . S
C404 C401 1.390 . S
C404 H403 0.950 . S
C404 C405 1.378 . S
C405 C404 1.378 . S
C405 C406 1.409 . S
C406 C402 1.387 . S
C406 C405 1.409 . S
C406 H408 0.951 . S
C407 C402 1.491 . S
C407 C409 1.382 . S
C407 C411 1.404 . S
H408 C406 0.951 . S
C409 C407 1.382 . S
C409 C410 1.390 . S
C409 H414 0.949 . S
C410 C409 1.390 . S
C410 C415 1.399 . S
C411 C407 1.404 . S
C411 H412 0.950 . S
C411 C413 1.375 . S
H412 C411 0.950 . S
C413 C411 1.375 . S
C413 C415 1.382 . S
C413 H417 0.950 . S
H414 C409 0.949 . S
C415 C410 1.399 . S
C415 C413 1.382 . S
C415 H416 0.952 . S
H416 C415 0.952 . S
H417 C413 0.950 . S
H418 C419 0.949 . S
C419 H418 0.949 . S
C419 C420 1.395 . S
C419 C421 1.391 . S
C420 C419 1.395 . S
C420 C423 1.390 . S
C421 C419 1.391 . S
C421 C425 1.387 . S
C421 C426 1.491 . S
H422 C423 0.950 . S
C423 C420 1.390 . S
C423 H422 0.950 . S
C423 C424 1.378 . S
C424 C423 1.378 . S
C424 C425 1.409 . S
C425 C421 1.387 . S
C425 C424 1.409 . S
C425 H427 0.951 . S
C426 C421 1.491 . S
C426 C428 1.382 . S
C426 C430 1.404 . S
H427 C425 0.951 . S
C428 C426 1.382 . S
C428 C429 1.390 . S
C428 H433 0.949 . S
C429 C428 1.390 . S
C429 C434 1.399 . S
C430 C426 1.404 . S
C430 H431 0.950 . S
C430 C432 1.375 . S
H431 C430 0.950 . S
C432 C430 1.375 . S
C432 C434 1.382 . S
C432 H436 0.950 . S
H433 C428 0.949 . S
C434 C429 1.399 . S
C434 C432 1.382 . S
C434 H435 0.952 . S
H435 C434 0.952 . S
H436 C432 0.950 . S
H437 C438 0.949 . S
C438 H437 0.949 . S
C438 C439 1.395 . S
C438 C440 1.391 . S
C439 C438 1.395 . S
C439 C442 1.390 . S
C440 C438 1.391 . S
C440 C444 1.387 . S
C440 C445 1.491 . S
H441 C442 0.950 . S
C442 C439 1.390 . S
C442 H441 0.950 . S
C442 C443 1.378 . S
C443 C442 1.378 . S
C443 C444 1.409 . S
C444 C440 1.387 . S
C444 C443 1.409 . S
C444 H446 0.951 . S
C445 C440 1.491 . S
C445 C447 1.382 . S
C445 C449 1.404 . S
H446 C444 0.951 . S
C447 C445 1.382 . S
C447 C448 1.390 . S
C447 H452 0.949 . S
C448 C447 1.390 . S
C448 C453 1.399 . S
C449 C445 1.404 . S
C449 H450 0.950 . S
C449 C451 1.375 . S
H450 C449 0.950 . S
C451 C449 1.375 . S
C451 C453 1.382 . S
C451 H455 0.950 . S
H452 C447 0.949 . S
C453 C448 1.399 . S
C453 C451 1.382 . S
C453 H454 0.952 . S
H454 C453 0.952 . S
H455 C451 0.950 . S
Zn456 O458 1.933 1_565 S
Zn456 O476 1.985 . S
Zn456 O487 1.955 . S
Zn457 O458 1.911 . S
Zn457 O477 1.970 . S
Zn457 O493 1.945 . S
Zn457 O500 1.981 . S
O458 Zn456 1.933 1_545 S
O458 Zn457 1.911 . S
O458 H459 0.842 1_655 S
H459 O458 0.842 1_455 S
C460 O461 1.246 . S
C460 O489 1.276 . S
O461 C460 1.246 . S
Zn462 O464 1.911 . S
Zn462 O479 1.970 . S
Zn462 O496 1.945 . S
Zn462 O503 1.981 . S
Zn463 O464 1.933 1_565 S
Zn463 O478 1.985 . S
Zn463 O485 1.955 . S
O464 Zn462 1.911 . S
O464 Zn463 1.933 1_545 S
O464 H465 0.841 . S
H465 O464 0.841 . S
Zn466 O467 1.933 1_565 S
Zn466 O480 1.985 . S
Zn466 O489 1.955 . S
O467 Zn466 1.933 1_545 S
O467 Zn468 1.911 . S
O467 H469 0.841 . S
Zn468 O467 1.911 . S
Zn468 O481 1.970 . S
Zn468 O497 1.981 1_655 S
Zn468 O499 1.945 . S
H469 O467 0.841 . S
Zn470 O471 1.933 1_565 S
Zn470 O483 1.985 . S
Zn470 O491 1.955 . S
O471 Zn470 1.933 1_545 S
O471 H472 0.841 . S
O471 Zn473 1.911 . S
H472 O471 0.841 . S
Zn473 O471 1.911 . S
Zn473 O484 1.970 . S
Zn473 O494 1.981 . S
Zn473 O502 1.945 . S
C474 O475 1.246 . S
C474 O491 1.276 . S
O475 C474 1.246 . S
O476 Zn456 1.985 . S
O476 C486 1.245 1_565 S
O477 Zn457 1.970 . S
O477 C486 1.263 . S
O478 Zn463 1.985 . S
O478 C490 1.245 1_565 S
O479 Zn462 1.970 . S
O479 C490 1.263 . S
O480 Zn466 1.985 . S
O480 C495 1.245 1_565 S
O481 Zn468 1.970 . S
O481 C495 1.263 . S
C482 O493 1.262 1_455 S
C482 O494 1.245 . S
O483 Zn470 1.985 . S
O483 C501 1.245 1_565 S
O484 Zn473 1.970 . S
O484 C501 1.263 . S
O485 Zn463 1.955 . S
O485 C504 1.276 . S
C486 O476 1.245 1_545 S
C486 O477 1.263 . S
O487 Zn456 1.955 . S
O487 C506 1.276 1_655 S
C488 O496 1.262 . S
C488 O497 1.245 . S
O489 C460 1.276 . S
O489 Zn466 1.955 . S
C490 O478 1.245 1_545 S
C490 O479 1.263 . S
O491 Zn470 1.955 . S
O491 C474 1.276 . S
C492 O499 1.262 . S
C492 O500 1.245 . S
O493 Zn457 1.945 . S
O493 C482 1.262 1_655 S
O494 Zn473 1.981 . S
O494 C482 1.245 . S
C495 O480 1.245 1_545 S
C495 O481 1.263 . S
O496 Zn462 1.945 . S
O496 C488 1.262 . S
O497 Zn468 1.981 1_455 S
O497 C488 1.245 . S
C498 O502 1.262 . S
C498 O503 1.245 . S
O499 Zn468 1.945 . S
O499 C492 1.262 . S
O500 Zn457 1.981 . S
O500 C492 1.245 . S
C501 O483 1.245 1_545 S
C501 O484 1.263 . S
O502 Zn473 1.945 . S
O502 C498 1.262 . S
O503 Zn462 1.981 . S
O503 C498 1.245 . S
C504 O485 1.276 . S
C504 O505 1.246 . S
O505 C504 1.246 . S
C506 O487 1.276 1_455 S
C506 O507 1.246 . S
O507 C506 1.246 . S
Zn508 O510 1.933 . S
Zn508 O528 1.985 . S
Zn508 O539 1.955 . S
Zn509 O510 1.911 1_556 S
Zn509 O529 1.970 . S
Zn509 O545 1.945 . S
Zn509 O552 1.981 . S
O510 Zn508 1.933 . S
O510 Zn509 1.911 1_554 S
O510 H511 0.841 . S
H511 O510 0.841 . S
C512 O513 1.246 . S
C512 O541 1.276 . S
O513 C512 1.246 . S
Zn514 O516 1.911 1_556 S
Zn514 O531 1.970 . S
Zn514 O548 1.945 . S
Zn514 O555 1.981 . S
Zn515 O516 1.933 . S
Zn515 O530 1.985 . S
Zn515 O537 1.955 . S
O516 Zn514 1.911 1_554 S
O516 Zn515 1.933 . S
O516 H517 0.841 1_565 S
H517 O516 0.841 1_545 S
Zn518 O519 1.933 . S
Zn518 O532 1.985 . S
Zn518 O541 1.955 . S
O519 Zn518 1.933 . S
O519 Zn520 1.911 1_554 S
O519 H521 0.841 . S
Zn520 O519 1.911 1_556 S
Zn520 O533 1.970 . S
Zn520 O549 1.981 . S
Zn520 O551 1.945 . S
H521 O519 0.841 . S
Zn522 O523 1.933 . S
Zn522 O535 1.985 . S
Zn522 O543 1.955 . S
O523 Zn522 1.933 . S
O523 H524 0.841 . S
O523 Zn525 1.911 1_554 S
H524 O523 0.841 . S
Zn525 O523 1.911 1_556 S
Zn525 O536 1.970 . S
Zn525 O546 1.981 1_565 S
Zn525 O554 1.945 . S
C526 O527 1.246 . S
C526 O543 1.276 . S
O527 C526 1.246 . S
O528 Zn508 1.985 . S
O528 C538 1.245 . S
O529 Zn509 1.970 . S
O529 C538 1.263 1_556 S
O530 Zn515 1.985 . S
O530 C542 1.245 . S
O531 Zn514 1.970 . S
O531 C542 1.263 1_556 S
O532 Zn518 1.985 . S
O532 C547 1.245 . S
O533 Zn520 1.970 . S
O533 C547 1.263 1_556 S
C534 O545 1.262 . S
C534 O546 1.245 . S
O535 Zn522 1.985 . S
O535 C553 1.245 . S
O536 Zn525 1.970 . S
O536 C553 1.263 1_556 S
O537 Zn515 1.955 . S
O537 C556 1.276 1_565 S
C538 O528 1.245 . S
C538 O529 1.263 1_554 S
O539 Zn508 1.955 . S
O539 C558 1.276 . S
C540 O548 1.262 1_545 S
C540 O549 1.245 . S
O541 C512 1.276 . S
O541 Zn518 1.955 . S
C542 O530 1.245 . S
C542 O531 1.263 1_554 S
O543 Zn522 1.955 . S
O543 C526 1.276 . S
C544 O551 1.262 . S
C544 O552 1.245 . S
O545 Zn509 1.945 . S
O545 C534 1.262 . S
O546 Zn525 1.981 1_545 S
O546 C534 1.245 . S
C547 O532 1.245 . S
C547 O533 1.263 1_554 S
O548 Zn514 1.945 . S
O548 C540 1.262 1_565 S
O549 Zn520 1.981 . S
O549 C540 1.245 . S
C550 O554 1.262 . S
C550 O555 1.245 . S
O551 Zn520 1.945 . S
O551 C544 1.262 . S
O552 Zn509 1.981 . S
O552 C544 1.245 . S
C553 O535 1.245 . S
C553 O536 1.263 1_554 S
O554 Zn525 1.945 . S
O554 C550 1.262 . S
O555 Zn514 1.981 . S
O555 C550 1.245 . S
C556 O537 1.276 1_545 S
C556 O557 1.246 . S
O557 C556 1.246 . S
C558 O539 1.276 . S
C558 O559 1.265 . S
O559 C558 1.265 . S
Zn560 O562 1.933 . S
Zn560 O580 1.985 . S
Zn560 O591 1.955 . S
Zn561 O562 1.911 . S
Zn561 O581 1.970 . S
Zn561 O597 1.945 . S
Zn561 O604 1.981 . S
O562 Zn560 1.933 . S
O562 Zn561 1.911 . S
O562 H563 0.841 1_655 S
H563 O562 0.841 1_455 S
C564 O565 1.246 1_554 S
C564 O593 1.276 . S
O565 C564 1.246 1_556 S
Zn566 O568 1.911 . S
Zn566 O583 1.970 . S
Zn566 O600 1.945 . S
Zn566 O607 1.981 . S
Zn567 O568 1.933 . S
Zn567 O582 1.985 . S
Zn567 O589 1.955 . S
O568 Zn566 1.911 . S
O568 Zn567 1.933 . S
O568 H569 0.841 . S
H569 O568 0.841 . S
Zn570 O571 1.933 . S
Zn570 O584 1.985 . S
Zn570 O593 1.955 . S
O571 Zn570 1.933 . S
O571 Zn572 1.911 . S
O571 H573 0.841 . S
Zn572 O571 1.911 . S
Zn572 O585 1.970 . S
Zn572 O601 1.981 . S
Zn572 O603 1.945 . S
H573 O571 0.841 . S
Zn574 O575 1.933 . S
Zn574 O587 1.985 . S
Zn574 O595 1.955 . S
O575 Zn574 1.933 . S
O575 H576 0.841 . S
O575 Zn577 1.911 . S
H576 O575 0.841 . S
Zn577 O575 1.911 . S
Zn577 O588 1.970 . S
Zn577 O598 1.981 . S
Zn577 O606 1.945 . S
C578 O579 1.246 . S
C578 O595 1.276 1_554 S
O579 C578 1.246 . S
O580 Zn560 1.985 . S
O580 C590 1.245 . S
O581 Zn561 1.970 . S
O581 C590 1.263 . S
O582 Zn567 1.985 . S
O582 C594 1.245 . S
O583 Zn566 1.970 . S
O583 C594 1.263 . S
O584 Zn570 1.985 . S
O584 C599 1.245 . S
O585 Zn572 1.970 . S
O585 C599 1.263 . S
C586 O597 1.262 1_455 S
C586 O598 1.245 . S
O587 Zn574 1.985 . S
O587 C605 1.245 . S
O588 Zn577 1.970 . S
O588 C605 1.263 . S
O589 Zn567 1.955 . S
O589 C608 1.276 . S
C590 O580 1.245 . S
C590 O581 1.263 . S
O591 Zn560 1.955 . S
O591 C610 1.276 1_655 S
C592 O600 1.262 . S
C592 O601 1.245 1_455 S
O593 C564 1.276 . S
O593 Zn570 1.955 . S
C594 O582 1.245 . S
C594 O583 1.263 . S
O595 Zn574 1.955 . S
O595 C578 1.276 1_556 S
C596 O603 1.262 . S
C596 O604 1.245 1_554 S
O597 Zn561 1.945 . S
O597 C586 1.262 1_655 S
O598 Zn577 1.981 . S
O598 C586 1.245 . S
C599 O584 1.245 . S
C599 O585 1.263 . S
O600 Zn566 1.945 . S
O600 C592 1.262 . S
O601 Zn572 1.981 . S
O601 C592 1.245 1_655 S
C602 O606 1.262 1_554 S
C602 O607 1.245 . S
O603 Zn572 1.945 . S
O603 C596 1.262 . S
O604 Zn561 1.981 . S
O604 C596 1.245 1_556 S
C605 O587 1.245 . S
C605 O588 1.263 . S
O606 Zn577 1.945 . S
O606 C602 1.262 1_556 S
O607 Zn566 1.981 . S
O607 C602 1.245 . S
C608 O589 1.276 . S
C608 O609 1.246 . S
O609 C608 1.246 . S
C610 O591 1.276 1_455 S
C610 O611 1.246 . S
O611 C610 1.246 . S
Zn612 O614 1.933 1_556 S
Zn612 O632 1.985 . S
Zn612 O643 1.955 . S
Zn613 O614 1.911 . S
Zn613 O633 1.970 . S
Zn613 O649 1.945 . S
Zn613 O656 1.981 . S
O614 Zn612 1.933 1_554 S
O614 Zn613 1.911 . S
O614 H615 0.841 . S
H615 O614 0.841 . S
C616 O617 1.246 . S
C616 O645 1.276 . S
O617 C616 1.246 . S
Zn618 O620 1.911 . S
Zn618 O635 1.970 . S
Zn618 O652 1.945 . S
Zn618 O659 1.981 . S
Zn619 O620 1.933 1_556 S
Zn619 O634 1.985 . S
Zn619 O641 1.955 . S
O620 Zn618 1.911 . S
O620 Zn619 1.933 1_554 S
O620 H621 0.841 . S
H621 O620 0.841 . S
Zn622 O623 1.933 1_556 S
Zn622 O636 1.985 . S
Zn622 O645 1.955 . S
O623 Zn622 1.933 1_554 S
O623 Zn624 1.911 . S
O623 H625 0.841 . S
Zn624 O623 1.911 . S
Zn624 O637 1.970 . S
Zn624 O653 1.981 . S
Zn624 O655 1.945 . S
H625 O623 0.841 . S
Zn626 O627 1.933 1_556 S
Zn626 O639 1.985 . S
Zn626 O647 1.955 . S
O627 Zn626 1.933 1_554 S
O627 H628 0.841 . S
O627 Zn629 1.911 . S
H628 O627 0.841 . S
Zn629 O627 1.911 . S
Zn629 O640 1.970 . S
Zn629 O650 1.981 . S
Zn629 O658 1.945 . S
C630 O631 1.246 . S
C630 O647 1.276 . S
O631 C630 1.246 . S
O632 Zn612 1.985 . S
O632 C642 1.245 1_556 S
O633 Zn613 1.970 . S
O633 C642 1.263 . S
O634 Zn619 1.985 . S
O634 C646 1.245 1_556 S
O635 Zn618 1.970 . S
O635 C646 1.263 . S
O636 Zn622 1.985 . S
O636 C651 1.245 1_556 S
O637 Zn624 1.970 . S
O637 C651 1.263 . S
C638 O649 1.262 . S
C638 O650 1.245 . S
O639 Zn626 1.985 . S
O639 C657 1.245 1_556 S
O640 Zn629 1.970 . S
O640 C657 1.263 . S
O641 Zn619 1.955 . S
O641 C660 1.276 . S
C642 O632 1.245 1_554 S
C642 O633 1.263 . S
O643 Zn612 1.955 . S
O643 C662 1.276 . S
C644 O652 1.262 . S
C644 O653 1.245 . S
O645 C616 1.276 . S
O645 Zn622 1.955 . S
C646 O634 1.245 1_554 S
C646 O635 1.263 . S
O647 Zn626 1.955 . S
O647 C630 1.276 . S
C648 O655 1.262 . S
C648 O656 1.245 . S
O649 Zn613 1.945 . S
O649 C638 1.262 . S
O650 Zn629 1.981 . S
O650 C638 1.245 . S
C651 O636 1.245 1_554 S
C651 O637 1.263 . S
O652 Zn618 1.945 . S
O652 C644 1.262 . S
O653 Zn624 1.981 . S
O653 C644 1.245 . S
C654 O658 1.262 . S
C654 O659 1.245 . S
O655 Zn624 1.945 . S
O655 C648 1.262 . S
O656 Zn613 1.981 . S
O656 C648 1.245 . S
C657 O639 1.245 1_554 S
C657 O640 1.263 . S
O658 Zn629 1.945 . S
O658 C654 1.262 . S
O659 Zn618 1.981 . S
O659 C654 1.245 . S
C660 O641 1.276 . S
C660 O661 1.246 . S
O661 C660 1.246 . S
C662 O643 1.276 . S
C662 O663 1.246 . S
O663 C662 1.246 . S
Zn664 O666 1.933 . S
Zn664 O684 1.985 . S
Zn664 O695 1.955 . S
Zn665 O666 1.911 . S
Zn665 O685 1.970 . S
Zn665 O701 1.945 . S
Zn665 O708 1.981 . S
O666 Zn664 1.933 . S
O666 Zn665 1.911 . S
O666 H667 0.841 1_655 S
H667 O666 0.841 1_455 S
C668 O669 1.246 . S
C668 O697 1.276 . S
O669 C668 1.246 . S
Zn670 O672 1.911 . S
Zn670 O687 1.970 . S
Zn670 O704 1.945 . S
Zn670 O711 1.981 . S
Zn671 O672 1.933 . S
Zn671 O686 1.985 . S
Zn671 O693 1.955 . S
O672 Zn670 1.911 . S
O672 Zn671 1.933 . S
O672 H673 0.841 . S
H673 O672 0.841 . S
Zn674 O675 1.933 . S
Zn674 O688 1.985 . S
Zn674 O697 1.955 . S
O675 Zn674 1.933 . S
O675 Zn676 1.911 . S
O675 H677 0.841 . S
Zn676 O675 1.911 . S
Zn676 O689 1.970 . S
Zn676 O705 1.981 1_655 S
Zn676 O707 1.945 . S
H677 O675 0.841 . S
Zn678 O679 1.933 . S
Zn678 O691 1.985 . S
Zn678 O699 1.955 . S
O679 Zn678 1.933 . S
O679 H680 0.841 . S
O679 Zn681 1.911 . S
H680 O679 0.841 . S
Zn681 O679 1.911 . S
Zn681 O692 1.970 . S
Zn681 O702 1.981 . S
Zn681 O710 1.945 . S
C682 O683 1.246 . S
C682 O699 1.276 . S
O683 C682 1.246 . S
O684 Zn664 1.985 . S
O684 C694 1.245 . S
O685 Zn665 1.970 . S
O685 C694 1.263 . S
O686 Zn671 1.985 . S
O686 C698 1.245 . S
O687 Zn670 1.970 . S
O687 C698 1.263 . S
O688 Zn674 1.985 . S
O688 C703 1.245 . S
O689 Zn676 1.970 . S
O689 C703 1.263 . S
C690 O701 1.262 1_455 S
C690 O702 1.245 . S
O691 Zn678 1.985 . S
O691 C709 1.245 . S
O692 Zn681 1.970 . S
O692 C709 1.263 . S
O693 Zn671 1.955 . S
O693 C712 1.276 . S
C694 O684 1.245 . S
C694 O685 1.263 . S
O695 Zn664 1.955 . S
O695 C714 1.276 1_655 S
C696 O704 1.262 . S
C696 O705 1.245 . S
O697 C668 1.276 . S
O697 Zn674 1.955 . S
C698 O686 1.245 . S
C698 O687 1.263 . S
O699 Zn678 1.955 . S
O699 C682 1.276 . S
C700 O707 1.262 . S
C700 O708 1.245 . S
O701 Zn665 1.945 . S
O701 C690 1.262 1_655 S
O702 Zn681 1.981 . S
O702 C690 1.245 . S
C703 O688 1.245 . S
C703 O689 1.263 . S
O704 Zn670 1.945 . S
O704 C696 1.262 . S
O705 Zn676 1.981 1_455 S
O705 C696 1.245 . S
C706 O710 1.262 . S
C706 O711 1.245 . S
O707 Zn676 1.945 . S
O707 C700 1.262 . S
O708 Zn665 1.981 . S
O708 C700 1.245 . S
C709 O691 1.245 . S
C709 O692 1.263 . S
O710 Zn681 1.945 . S
O710 C706 1.262 . S
O711 Zn670 1.981 . S
O711 C706 1.245 . S
C712 O693 1.276 . S
C712 O713 1.246 . S
O713 C712 1.246 . S
C714 O695 1.276 1_455 S
C714 O715 1.246 . S
O715 C714 1.246 . S
Zn716 O718 1.933 1_565 S
Zn716 O736 1.985 . S
Zn716 O747 1.955 . S
Zn717 O718 1.911 . S
Zn717 O737 1.970 . S
Zn717 O753 1.945 . S
Zn717 O760 1.981 . S
O718 Zn716 1.933 1_545 S
O718 Zn717 1.911 . S
O718 H719 0.841 . S
H719 O718 0.841 . S
C720 O721 1.246 . S
C720 O749 1.276 . S
O721 C720 1.246 . S
Zn722 O724 1.911 . S
Zn722 O739 1.970 . S
Zn722 O756 1.945 . S
Zn722 O763 1.981 . S
Zn723 O724 1.933 1_565 S
Zn723 O738 1.985 . S
Zn723 O745 1.955 . S
O724 Zn722 1.911 . S
O724 Zn723 1.933 1_545 S
O724 H725 0.841 . S
H725 O724 0.841 . S
Zn726 O727 1.933 1_565 S
Zn726 O740 1.985 . S
Zn726 O749 1.955 . S
O727 Zn726 1.933 1_545 S
O727 Zn728 1.911 . S
O727 H729 0.841 . S
Zn728 O727 1.911 . S
Zn728 O741 1.970 . S
Zn728 O757 1.981 . S
Zn728 O759 1.945 . S
H729 O727 0.841 . S
Zn730 O731 1.933 1_565 S
Zn730 O743 1.985 . S
Zn730 O751 1.955 . S
O731 Zn730 1.933 1_545 S
O731 H732 0.841 . S
O731 Zn733 1.911 . S
H732 O731 0.841 . S
Zn733 O731 1.911 . S
Zn733 O744 1.970 . S
Zn733 O754 1.981 . S
Zn733 O762 1.945 . S
C734 O735 1.246 . S
C734 O751 1.276 . S
O735 C734 1.246 . S
O736 Zn716 1.985 . S
O736 C746 1.245 1_565 S
O737 Zn717 1.970 . S
O737 C746 1.263 . S
O738 Zn723 1.985 . S
O738 C750 1.245 1_565 S
O739 Zn722 1.970 . S
O739 C750 1.263 . S
O740 Zn726 1.985 . S
O740 C755 1.245 1_565 S
O741 Zn728 1.970 . S
O741 C755 1.263 . S
C742 O753 1.262 . S
C742 O754 1.245 . S
O743 Zn730 1.985 . S
O743 C761 1.245 1_565 S
O744 Zn733 1.970 . S
O744 C761 1.263 . S
O745 Zn723 1.955 . S
O745 C764 1.276 . S
C746 O736 1.245 1_545 S
C746 O737 1.263 . S
O747 Zn716 1.955 . S
O747 C766 1.276 . S
C748 O756 1.262 . S
C748 O757 1.245 . S
O749 C720 1.276 . S
O749 Zn726 1.955 . S
C750 O738 1.245 1_545 S
C750 O739 1.263 . S
O751 Zn730 1.955 . S
O751 C734 1.276 . S
C752 O759 1.262 . S
C752 O760 1.245 . S
O753 Zn717 1.945 . S
O753 C742 1.262 . S
O754 Zn733 1.981 . S
O754 C742 1.245 . S
C755 O740 1.245 1_545 S
C755 O741 1.263 . S
O756 Zn722 1.945 . S
O756 C748 1.262 . S
O757 Zn728 1.981 . S
O757 C748 1.245 . S
C758 O762 1.262 . S
C758 O763 1.245 . S
O759 Zn728 1.945 . S
O759 C752 1.262 . S
O760 Zn717 1.981 . S
O760 C752 1.245 . S
C761 O743 1.245 1_545 S
C761 O744 1.263 . S
O762 Zn733 1.945 . S
O762 C758 1.262 . S
O763 Zn722 1.981 . S
O763 C758 1.245 . S
C764 O745 1.276 . S
C764 O765 1.246 . S
O765 C764 1.246 . S
C766 O747 1.276 . S
C766 O767 1.246 . S
O767 C766 1.246 . S
H768 C774 0.930 . S
H769 C777 0.930 . S
H770 C778 0.930 . S
H771 C779 0.930 . S
H772 C782 0.930 . S
H773 C783 0.930 . S
C774 H768 0.930 . S
C774 C775 1.355 . S
C774 C776 1.415 . S
C775 C774 1.355 . S
C775 C777 1.419 . S
C776 C774 1.415 . S
C776 C781 1.425 . S
C776 C783 1.409 . S
C777 H769 0.930 . S
C777 C775 1.419 . S
C777 C778 1.362 . S
C778 H770 0.930 . S
C778 C777 1.362 . S
C778 C781 1.409 . S
C779 H771 0.930 . S
C779 C780 1.355 . S
C779 C781 1.415 . S
C780 C779 1.355 . S
C780 C782 1.419 . S
C781 C776 1.425 . S
C781 C778 1.409 . S
C781 C779 1.415 . S
C782 H772 0.930 . S
C782 C780 1.419 . S
C782 C783 1.362 . S
C783 H773 0.930 . S
C783 C776 1.409 . S
C783 C782 1.362 . S
H784 C790 0.930 . S
H785 C793 0.930 . S
H786 C794 0.930 . S
H787 C795 0.930 . S
H788 C798 0.930 . S
H789 C799 0.930 . S
C790 H784 0.930 . S
C790 C791 1.355 . S
C790 C792 1.415 . S
C791 C790 1.355 . S
C791 C793 1.419 . S
C792 C790 1.415 . S
C792 C797 1.425 . S
C792 C799 1.409 . S
C793 H785 0.930 . S
C793 C791 1.419 . S
C793 C794 1.362 . S
C794 H786 0.930 . S
C794 C793 1.362 . S
C794 C797 1.409 . S
C795 H787 0.930 . S
C795 C796 1.355 . S
C795 C797 1.415 . S
C796 C795 1.355 . S
C796 C798 1.419 . S
C797 C792 1.425 . S
C797 C794 1.409 . S
C797 C795 1.415 . S
C798 H788 0.930 . S
C798 C796 1.419 . S
C798 C799 1.362 . S
C799 H789 0.930 . S
C799 C792 1.409 . S
C799 C798 1.362 . S
H800 C806 0.930 . S
H801 C809 0.930 . S
H802 C810 0.930 . S
H803 C811 0.930 . S
H804 C814 0.930 . S
H805 C815 0.930 . S
C806 H800 0.930 . S
C806 C807 1.355 . S
C806 C808 1.415 . S
C807 C806 1.355 . S
C807 C809 1.419 . S
C808 C806 1.415 . S
C808 C813 1.425 . S
C808 C815 1.409 . S
C809 H801 0.930 . S
C809 C807 1.419 . S
C809 C810 1.362 . S
C810 H802 0.930 . S
C810 C809 1.362 . S
C810 C813 1.409 . S
C811 H803 0.930 . S
C811 C812 1.355 . S
C811 C813 1.415 . S
C812 C811 1.355 . S
C812 C814 1.419 . S
C813 C808 1.425 . S
C813 C810 1.409 . S
C813 C811 1.415 . S
C814 H804 0.930 . S
C814 C812 1.419 . S
C814 C815 1.362 . S
C815 H805 0.930 . S
C815 C808 1.409 . S
C815 C814 1.362 . S
H816 C822 0.930 . S
H817 C825 0.930 . S
H818 C826 0.930 . S
H819 C827 0.930 . S
H820 C830 0.930 . S
H821 C831 0.930 . S
C822 H816 0.930 . S
C822 C823 1.355 . S
C822 C824 1.415 . S
C823 C822 1.355 . S
C823 C825 1.419 . S
C824 C822 1.415 . S
C824 C829 1.425 . S
C824 C831 1.409 . S
C825 H817 0.930 . S
C825 C823 1.419 . S
C825 C826 1.362 . S
C826 H818 0.930 . S
C826 C825 1.362 . S
C826 C829 1.409 . S
C827 H819 0.930 . S
C827 C828 1.355 . S
C827 C829 1.415 . S
C828 C827 1.355 . S
C828 C830 1.419 . S
C829 C824 1.425 . S
C829 C826 1.409 . S
C829 C827 1.415 . S
C830 H820 0.930 . S
C830 C828 1.419 . S
C830 C831 1.362 . S
C831 H821 0.930 . S
C831 C824 1.409 . S
C831 C830 1.362 . S
H832 C838 0.930 . S
H833 C841 0.930 . S
H834 C842 0.930 . S
H835 C843 0.930 . S
H836 C846 0.930 . S
H837 C847 0.930 . S
C838 H832 0.930 . S
C838 C839 1.355 . S
C838 C840 1.415 . S
C839 C838 1.355 . S
C839 C841 1.419 . S
C840 C838 1.415 . S
C840 C845 1.425 . S
C840 C847 1.409 . S
C841 H833 0.930 . S
C841 C839 1.419 . S
C841 C842 1.362 . S
C842 H834 0.930 . S
C842 C841 1.362 . S
C842 C845 1.409 . S
C843 H835 0.930 . S
C843 C844 1.355 . S
C843 C845 1.415 . S
C844 C843 1.355 . S
C844 C846 1.419 . S
C845 C840 1.425 . S
C845 C842 1.409 . S
C845 C843 1.415 . S
C846 H836 0.930 . S
C846 C844 1.419 . S
C846 C847 1.362 . S
C847 H837 0.930 . S
C847 C840 1.409 . S
C847 C846 1.362 . S
H848 C854 0.930 . S
H849 C857 0.930 . S
H850 C858 0.930 . S
H851 C859 0.930 . S
H852 C862 0.930 . S
H853 C863 0.930 . S
C854 H848 0.930 . S
C854 C855 1.355 . S
C854 C856 1.415 . S
C855 C854 1.355 . S
C855 C857 1.419 . S
C856 C854 1.415 . S
C856 C861 1.425 . S
C856 C863 1.409 . S
C857 H849 0.930 . S
C857 C855 1.419 . S
C857 C858 1.362 . S
C858 H850 0.930 . S
C858 C857 1.362 . S
C858 C861 1.409 . S
C859 H851 0.930 . S
C859 C860 1.355 . S
C859 C861 1.415 . S
C860 C859 1.355 . S
C860 C862 1.419 . S
C861 C856 1.425 . S
C861 C858 1.409 . S
C861 C859 1.415 . S
C862 H852 0.930 . S
C862 C860 1.419 . S
C862 C863 1.362 . S
C863 H853 0.930 . S
C863 C856 1.409 . S
C863 C862 1.362 . S
H864 C870 0.930 . S
H865 C873 0.930 . S
H866 C874 0.930 . S
H867 C875 0.930 . S
H868 C878 0.930 . S
H869 C879 0.930 . S
C870 H864 0.930 . S
C870 C871 1.355 . S
C870 C872 1.415 . S
C871 C870 1.355 . S
C871 C873 1.419 . S
C872 C870 1.415 . S
C872 C877 1.425 . S
C872 C879 1.409 . S
C873 H865 0.930 . S
C873 C871 1.419 . S
C873 C874 1.362 . S
C874 H866 0.930 . S
C874 C873 1.362 . S
C874 C877 1.409 . S
C875 H867 0.930 . S
C875 C876 1.355 . S
C875 C877 1.415 . S
C876 C875 1.355 . S
C876 C878 1.419 . S
C877 C872 1.425 . S
C877 C874 1.409 . S
C877 C875 1.415 . S
C878 H868 0.930 . S
C878 C876 1.419 . S
C878 C879 1.362 . S
C879 H869 0.930 . S
C879 C872 1.409 . S
C879 C878 1.362 . S
H880 C886 0.930 . S
H881 C889 0.930 . S
H882 C890 0.930 . S
H883 C891 0.930 . S
H884 C894 0.930 . S
H885 C895 0.930 . S
C886 H880 0.930 . S
C886 C887 1.355 . S
C886 C888 1.415 . S
C887 C886 1.355 . S
C887 C889 1.419 . S
C888 C886 1.415 . S
C888 C893 1.425 . S
C888 C895 1.409 . S
C889 H881 0.930 . S
C889 C887 1.419 . S
C889 C890 1.362 . S
C890 H882 0.930 . S
C890 C889 1.362 . S
C890 C893 1.409 . S
C891 H883 0.930 . S
C891 C892 1.355 . S
C891 C893 1.415 . S
C892 C891 1.355 . S
C892 C894 1.419 . S
C893 C888 1.425 . S
C893 C890 1.409 . S
C893 C891 1.415 . S
C894 H884 0.930 . S
C894 C892 1.419 . S
C894 C895 1.362 . S
C895 H885 0.930 . S
C895 C888 1.409 . S
C895 C894 1.362 . S
H896 C902 0.930 . S
H897 C905 0.930 . S
H898 C906 0.930 . S
H899 C907 0.930 . S
H900 C910 0.930 . S
H901 C911 0.930 . S
C902 H896 0.930 . S
C902 C903 1.355 . S
C902 C904 1.415 . S
C903 C902 1.355 . S
C903 C905 1.419 . S
C904 C902 1.415 . S
C904 C909 1.425 . S
C904 C911 1.409 . S
C905 H897 0.930 . S
C905 C903 1.419 . S
C905 C906 1.362 . S
C906 H898 0.930 . S
C906 C905 1.362 . S
C906 C909 1.409 . S
C907 H899 0.930 . S
C907 C908 1.355 . S
C907 C909 1.415 . S
C908 C907 1.355 . S
C908 C910 1.419 . S
C909 C904 1.425 . S
C909 C906 1.409 . S
C909 C907 1.415 . S
C910 H900 0.930 . S
C910 C908 1.419 . S
C910 C911 1.362 . S
C911 H901 0.930 . S
C911 C904 1.409 . S
C911 C910 1.362 . S
H912 C918 0.930 . S
H913 C921 0.930 . S
H914 C922 0.930 . S
H915 C923 0.930 . S
H916 C926 0.930 . S
H917 C927 0.930 . S
C918 H912 0.930 . S
C918 C919 1.355 . S
C918 C920 1.415 . S
C919 C918 1.355 . S
C919 C921 1.419 . S
C920 C918 1.415 . S
C920 C925 1.425 . S
C920 C927 1.409 . S
C921 H913 0.930 . S
C921 C919 1.419 . S
C921 C922 1.362 . S
C922 H914 0.930 . S
C922 C921 1.362 . S
C922 C925 1.409 . S
C923 H915 0.930 . S
C923 C924 1.355 . S
C923 C925 1.415 . S
C924 C923 1.355 . S
C924 C926 1.419 . S
C925 C920 1.425 . S
C925 C922 1.409 . S
C925 C923 1.415 . S
C926 H916 0.930 . S
C926 C924 1.419 . S
C926 C927 1.362 . S
C927 H917 0.930 . S
C927 C920 1.409 . S
C927 C926 1.362 . S
H928 C934 0.930 . S
H929 C937 0.930 . S
H930 C938 0.930 . S
H931 C939 0.930 . S
H932 C942 0.930 . S
H933 C943 0.930 . S
C934 H928 0.930 . S
C934 C935 1.355 . S
C934 C936 1.415 . S
C935 C934 1.355 . S
C935 C937 1.419 . S
C936 C934 1.415 . S
C936 C941 1.425 . S
C936 C943 1.409 . S
C937 H929 0.930 . S
C937 C935 1.419 . S
C937 C938 1.362 . S
C938 H930 0.930 . S
C938 C937 1.362 . S
C938 C941 1.409 . S
C939 H931 0.930 . S
C939 C940 1.355 . S
C939 C941 1.415 . S
C940 C939 1.355 . S
C940 C942 1.419 . S
C941 C936 1.425 . S
C941 C938 1.409 . S
C941 C939 1.415 . S
C942 H932 0.930 . S
C942 C940 1.419 . S
C942 C943 1.362 . S
C943 H933 0.930 . S
C943 C936 1.409 . S
C943 C942 1.362 . S
H944 C950 0.930 . S
H945 C953 0.930 . S
H946 C954 0.930 . S
H947 C955 0.930 . S
H948 C958 0.930 . S
H949 C959 0.930 . S
C950 H944 0.930 . S
C950 C951 1.355 . S
C950 C952 1.415 . S
C951 C950 1.355 . S
C951 C953 1.419 . S
C952 C950 1.415 . S
C952 C957 1.425 . S
C952 C959 1.409 . S
C953 H945 0.930 . S
C953 C951 1.419 . S
C953 C954 1.362 . S
C954 H946 0.930 . S
C954 C953 1.362 . S
C954 C957 1.409 . S
C955 H947 0.930 . S
C955 C956 1.355 . S
C955 C957 1.415 . S
C956 C955 1.355 . S
C956 C958 1.419 . S
C957 C952 1.425 . S
C957 C954 1.409 . S
C957 C955 1.415 . S
C958 H948 0.930 . S
C958 C956 1.419 . S
C958 C959 1.362 . S
C959 H949 0.930 . S
C959 C952 1.409 . S
C959 C958 1.362 . S
H960 C966 0.930 . S
H961 C969 0.924 1_556 S
H962 C970 0.930 1_556 S
H963 C971 0.930 . S
H964 C974 0.930 . S
H965 C975 0.930 . S
C966 H960 0.930 . S
C966 C967 1.355 . S
C966 C968 1.415 . S
C967 C966 1.355 . S
C967 C969 1.426 . S
C968 C966 1.415 . S
C968 C973 1.425 . S
C968 C975 1.409 . S
C969 H961 0.924 1_554 S
C969 C967 1.426 . S
C969 C970 1.363 . S
C970 H962 0.930 1_554 S
C970 C969 1.363 . S
C970 C973 1.409 . S
C971 H963 0.930 . S
C971 C972 1.355 . S
C971 C973 1.415 . S
C972 C971 1.355 . S
C972 C974 1.419 . S
C973 C968 1.425 . S
C973 C970 1.409 . S
C973 C971 1.415 . S
C974 H964 0.930 . S
C974 C972 1.419 . S
C974 C975 1.362 . S
C975 H965 0.930 . S
C975 C968 1.409 . S
C975 C974 1.362 . S
H976 C982 0.930 . S
H977 C985 0.930 . S
H978 C986 0.930 . S
H979 C987 0.930 . S
H980 C990 0.930 . S
H981 C991 0.930 . S
C982 H976 0.930 . S
C982 C983 1.355 . S
C982 C984 1.415 . S
C983 C982 1.355 . S
C983 C985 1.419 . S
C984 C982 1.415 . S
C984 C989 1.425 . S
C984 C991 1.409 . S
C985 H977 0.930 . S
C985 C983 1.419 . S
C985 C986 1.362 . S
C986 H978 0.930 . S
C986 C985 1.362 . S
C986 C989 1.409 . S
C987 H979 0.930 . S
C987 C988 1.355 . S
C987 C989 1.415 . S
C988 C987 1.355 . S
C988 C990 1.419 . S
C989 C984 1.425 . S
C989 C986 1.409 . S
C989 C987 1.415 . S
C990 H980 0.930 . S
C990 C988 1.419 . S
C990 C991 1.362 . S
C991 H981 0.930 . S
C991 C984 1.409 . S
C991 C990 1.362 . S
H992 C998 0.930 . S
H993 C1001 0.930 . S
H994 C1002 0.930 . S
H995 C1003 0.930 . S
H996 C1006 0.930 . S
H997 C1007 0.930 . S
C998 H992 0.930 . S
C998 C999 1.355 . S
C998 C1000 1.415 . S
C999 C998 1.355 . S
C999 C1001 1.419 . S
C1000 C998 1.415 . S
C1000 C1005 1.425 . S
C1000 C1007 1.409 1_554 S
C1001 H993 0.930 . S
C1001 C999 1.419 . S
C1001 C1002 1.362 . S
C1002 H994 0.930 . S
C1002 C1001 1.362 . S
C1002 C1005 1.409 . S
C1003 H995 0.930 . S
C1003 C1004 1.355 . S
C1003 C1005 1.415 . S
C1004 C1003 1.355 . S
C1004 C1006 1.419 1_554 S
C1005 C1000 1.425 . S
C1005 C1002 1.409 . S
C1005 C1003 1.415 . S
C1006 H996 0.930 . S
C1006 C1004 1.419 1_556 S
C1006 C1007 1.362 . S
C1007 H997 0.930 . S
C1007 C1000 1.409 1_556 S
C1007 C1006 1.362 . S
H1008 C1014 0.930 . S
H1009 C1017 0.930 . S
H1010 C1018 0.930 . S
H1011 C1019 0.930 . S
H1012 C1022 0.930 . S
H1013 C1023 0.930 . S
C1014 H1008 0.930 . S
C1014 C1015 1.355 . S
C1014 C1016 1.415 . S
C1015 C1014 1.355 . S
C1015 C1017 1.419 1_554 S
C1016 C1014 1.415 . S
C1016 C1021 1.425 1_554 S
C1016 C1023 1.409 . S
C1017 H1009 0.930 . S
C1017 C1015 1.419 1_556 S
C1017 C1018 1.362 . S
C1018 H1010 0.930 . S
C1018 C1017 1.362 . S
C1018 C1021 1.409 . S
C1019 H1011 0.930 . S
C1019 C1020 1.355 1_556 S
C1019 C1021 1.415 . S
C1020 C1019 1.355 1_554 S
C1020 C1022 1.419 . S
C1021 C1016 1.425 1_556 S
C1021 C1018 1.409 . S
C1021 C1019 1.415 . S
C1022 H1012 0.930 . S
C1022 C1020 1.419 . S
C1022 C1023 1.362 . S
C1023 H1013 0.930 . S
C1023 C1016 1.409 . S
C1023 C1022 1.362 . S
H1024 C1030 0.930 . S
H1025 C1033 0.930 . S
H1026 C1034 0.930 . S
H1027 C1035 0.930 . S
H1028 C1038 0.930 . S
H1029 C1039 0.930 . S
C1030 H1024 0.930 . S
C1030 C1031 1.355 . S
C1030 C1032 1.415 . S
C1031 C1030 1.355 . S
C1031 C1033 1.419 1_455 S
C1032 C1030 1.415 . S
C1032 C1037 1.425 1_455 S
C1032 C1039 1.409 . S
C1033 H1025 0.930 . S
C1033 C1031 1.419 1_655 S
C1033 C1034 1.362 . S
C1034 H1026 0.930 . S
C1034 C1033 1.362 . S
C1034 C1037 1.409 . S
C1035 H1027 0.930 . S
C1035 C1036 1.355 1_655 S
C1035 C1037 1.415 . S
C1036 C1035 1.355 1_455 S
C1036 C1038 1.419 . S
C1037 C1032 1.425 1_655 S
C1037 C1034 1.409 . S
C1037 C1035 1.415 . S
C1038 H1028 0.930 . S
C1038 C1036 1.419 . S
C1038 C1039 1.362 . S
C1039 H1029 0.930 . S
C1039 C1032 1.409 . S
C1039 C1038 1.362 . S
H1040 C1046 0.930 . S
H1041 C1049 0.935 . S
H1042 C1050 0.930 . S
H1043 C1051 0.930 . S
H1044 C1054 0.930 . S
H1045 C1055 0.930 . S
C1046 H1040 0.930 . S
C1046 C1047 1.355 . S
C1046 C1048 1.415 . S
C1047 C1046 1.355 . S
C1047 C1049 1.419 . S
C1048 C1046 1.415 . S
C1048 C1053 1.425 . S
C1048 C1055 1.409 . S
C1049 H1041 0.935 . S
C1049 C1047 1.419 . S
C1049 C1050 1.362 . S
C1050 H1042 0.930 . S
C1050 C1049 1.362 . S
C1050 C1053 1.409 . S
C1051 H1043 0.930 . S
C1051 C1052 1.355 . S
C1051 C1053 1.415 . S
C1052 C1051 1.355 . S
C1052 C1054 1.419 . S
C1053 C1048 1.425 . S
C1053 C1050 1.409 . S
C1053 C1051 1.415 . S
C1054 H1044 0.930 . S
C1054 C1052 1.419 . S
C1054 C1055 1.362 . S
C1055 H1045 0.930 . S
C1055 C1048 1.409 . S
C1055 C1054 1.362 . S
H1056 C1062 0.930 1_655 S
H1057 C1065 0.930 . S
H1058 C1066 0.930 . S
H1059 C1067 0.930 . S
H1060 C1070 0.930 . S
H1061 C1071 0.930 . S
C1062 H1056 0.930 1_455 S
C1062 C1063 1.355 . S
C1062 C1064 1.415 . S
C1063 C1062 1.355 . S
C1063 C1065 1.419 . S
C1064 C1062 1.415 . S
C1064 C1069 1.425 . S
C1064 C1071 1.409 1_455 S
C1065 H1057 0.930 . S
C1065 C1063 1.419 . S
C1065 C1066 1.362 . S
C1066 H1058 0.930 . S
C1066 C1065 1.362 . S
C1066 C1069 1.409 . S
C1067 H1059 0.930 . S
C1067 C1068 1.355 . S
C1067 C1069 1.415 . S
C1068 C1067 1.355 . S
C1068 C1070 1.419 1_455 S
C1069 C1064 1.425 . S
C1069 C1066 1.409 . S
C1069 C1067 1.415 . S
C1070 H1060 0.930 . S
C1070 C1068 1.419 1_655 S
C1070 C1071 1.362 . S
C1071 H1061 0.930 . S
C1071 C1064 1.409 1_655 S
C1071 C1070 1.362 . S
H1072 C1078 0.930 . S
H1073 C1081 0.930 1_565 S
H1074 C1082 0.930 1_565 S
H1075 C1083 0.913 1_565 S
H1076 C1086 0.930 . S
H1077 C1087 0.930 . S
C1078 H1072 0.930 . S
C1078 C1079 1.355 . S
C1078 C1080 1.415 . S
C1079 C1078 1.355 . S
C1079 C1081 1.419 . S
C1080 C1078 1.415 . S
C1080 C1085 1.425 . S
C1080 C1087 1.409 . S
C1081 H1073 0.930 1_545 S
C1081 C1079 1.419 . S
C1081 C1082 1.362 . S
C1082 H1074 0.930 1_545 S
C1082 C1081 1.362 . S
C1082 C1085 1.409 . S
C1083 H1075 0.913 1_545 S
C1083 C1084 1.355 . S
C1083 C1085 1.415 . S
C1084 C1083 1.355 . S
C1084 C1086 1.419 . S
C1085 C1080 1.425 . S
C1085 C1082 1.409 . S
C1085 C1083 1.415 . S
C1086 H1076 0.930 . S
C1086 C1084 1.419 . S
C1086 C1087 1.362 . S
C1087 H1077 0.930 . S
C1087 C1080 1.409 . S
C1087 C1086 1.362 . S
H1088 C1094 0.930 1_655 S
H1089 C1097 0.930 . S
H1090 C1098 0.930 . S
H1091 C1099 0.930 . S
H1092 C1102 0.930 1_655 S
H1093 C1103 0.930 . S
C1094 H1088 0.930 1_455 S
C1094 C1095 1.355 . S
C1094 C1096 1.415 . S
C1095 C1094 1.355 . S
C1095 C1097 1.419 . S
C1096 C1094 1.415 . S
C1096 C1101 1.425 . S
C1096 C1103 1.409 1_455 S
C1097 H1089 0.930 . S
C1097 C1095 1.419 . S
C1097 C1098 1.362 . S
C1098 H1090 0.930 . S
C1098 C1097 1.362 . S
C1098 C1101 1.409 . S
C1099 H1091 0.930 . S
C1099 C1100 1.355 . S
C1099 C1101 1.415 . S
C1100 C1099 1.355 . S
C1100 C1102 1.419 . S
C1101 C1096 1.425 . S
C1101 C1098 1.409 . S
C1101 C1099 1.415 . S
C1102 H1092 0.930 1_455 S
C1102 C1100 1.419 . S
C1102 C1103 1.362 1_455 S
C1103 H1093 0.930 . S
C1103 C1096 1.409 1_655 S
C1103 C1102 1.362 1_655 S
H1104 C1110 0.930 . S
H1105 C1113 0.930 . S
H1106 C1114 0.930 . S
H1107 C1115 0.930 . S
H1108 C1118 0.930 . S
H1109 C1119 0.930 . S
C1110 H1104 0.930 . S
C1110 C1111 1.355 . S
C1110 C1112 1.415 . S
C1111 C1110 1.355 . S
C1111 C1113 1.419 . S
C1112 C1110 1.415 . S
C1112 C1117 1.425 . S
C1112 C1119 1.409 . S
C1113 H1105 0.930 . S
C1113 C1111 1.419 . S
C1113 C1114 1.362 . S
C1114 H1106 0.930 . S
C1114 C1113 1.362 . S
C1114 C1117 1.409 . S
C1115 H1107 0.930 . S
C1115 C1116 1.355 . S
C1115 C1117 1.415 . S
C1116 C1115 1.355 . S
C1116 C1118 1.419 . S
C1117 C1112 1.425 . S
C1117 C1114 1.409 . S
C1117 C1115 1.415 . S
C1118 H1108 0.930 . S
C1118 C1116 1.419 . S
C1118 C1119 1.362 . S
C1119 H1109 0.930 . S
C1119 C1112 1.409 . S
C1119 C1118 1.362 . S
H1120 C1126 0.930 . S
H1121 C1129 0.930 . S
H1122 C1130 0.930 . S
H1123 C1131 0.930 . S
H1124 C1134 0.930 . S
H1125 C1135 0.930 . S
C1126 H1120 0.930 . S
C1126 C1127 1.355 . S
C1126 C1128 1.415 . S
C1127 C1126 1.355 . S
C1127 C1129 1.419 . S
C1128 C1126 1.415 . S
C1128 C1133 1.425 . S
C1128 C1135 1.409 . S
C1129 H1121 0.930 . S
C1129 C1127 1.419 . S
C1129 C1130 1.362 . S
C1130 H1122 0.930 . S
C1130 C1129 1.362 . S
C1130 C1133 1.409 . S
C1131 H1123 0.930 . S
C1131 C1132 1.355 . S
C1131 C1133 1.415 . S
C1132 C1131 1.355 . S
C1132 C1134 1.419 . S
C1133 C1128 1.425 . S
C1133 C1130 1.409 . S
C1133 C1131 1.415 . S
C1134 H1124 0.930 . S
C1134 C1132 1.419 . S
C1134 C1135 1.362 . S
C1135 H1125 0.930 . S
C1135 C1128 1.409 . S
C1135 C1134 1.362 . S
H1136 C1142 0.930 . S
H1137 C1145 0.930 . S
H1138 C1146 0.930 . S
H1139 C1147 0.930 . S
H1140 C1150 0.930 . S
H1141 C1151 0.930 . S
C1142 H1136 0.930 . S
C1142 C1143 1.355 1_565 S
C1142 C1144 1.415 . S
C1143 C1142 1.355 1_545 S
C1143 C1145 1.419 . S
C1144 C1142 1.415 . S
C1144 C1149 1.425 1_565 S
C1144 C1151 1.409 . S
C1145 H1137 0.930 . S
C1145 C1143 1.419 . S
C1145 C1146 1.362 . S
C1146 H1138 0.930 . S
C1146 C1145 1.362 . S
C1146 C1149 1.409 . S
C1147 H1139 0.930 . S
C1147 C1148 1.355 . S
C1147 C1149 1.415 . S
C1148 C1147 1.355 . S
C1148 C1150 1.419 1_545 S
C1149 C1144 1.425 1_545 S
C1149 C1146 1.409 . S
C1149 C1147 1.415 . S
C1150 H1140 0.930 . S
C1150 C1148 1.419 1_565 S
C1150 C1151 1.362 . S
C1151 H1141 0.930 . S
C1151 C1144 1.409 . S
C1151 C1150 1.362 . S
H1152 C1158 0.930 . S
H1153 C1161 0.930 . S
H1154 C1162 0.930 . S
H1155 C1163 0.930 . S
H1156 C1166 0.938 . S
H1157 C1167 0.930 1_655 S
C1158 H1152 0.930 . S
C1158 C1159 1.355 . S
C1158 C1160 1.415 . S
C1159 C1158 1.355 . S
C1159 C1161 1.419 . S
C1160 C1158 1.415 . S
C1160 C1165 1.425 . S
C1160 C1167 1.409 . S
C1161 H1153 0.930 . S
C1161 C1159 1.419 . S
C1161 C1162 1.362 . S
C1162 H1154 0.930 . S
C1162 C1161 1.362 . S
C1162 C1165 1.409 . S
C1163 H1155 0.930 . S
C1163 C1164 1.355 . S
C1163 C1165 1.415 . S
C1164 C1163 1.355 . S
C1164 C1166 1.419 . S
C1165 C1160 1.425 . S
C1165 C1162 1.409 . S
C1165 C1163 1.415 . S
C1166 H1156 0.938 . S
C1166 C1164 1.419 . S
C1166 C1167 1.362 . S
C1167 H1157 0.930 1_455 S
C1167 C1160 1.409 . S
C1167 C1166 1.362 . S
H1168 C1174 0.930 . S
H1169 C1177 0.930 . S
H1170 C1178 0.930 . S
H1171 C1179 0.930 . S
H1172 C1182 0.928 1_565 S
H1173 C1183 0.953 . S
C1174 H1168 0.930 . S
C1174 C1175 1.355 . S
C1174 C1176 1.415 . S
C1175 C1174 1.355 . S
C1175 C1177 1.419 . S
C1176 C1174 1.415 . S
C1176 C1181 1.425 . S
C1176 C1183 1.388 1_545 S
C1177 H1169 0.930 . S
C1177 C1175 1.419 . S
C1177 C1178 1.362 . S
C1178 H1170 0.930 . S
C1178 C1177 1.362 . S
C1178 C1181 1.409 . S
C1179 H1171 0.930 . S
C1179 C1180 1.355 . S
C1179 C1181 1.415 . S
C1180 C1179 1.355 . S
C1180 C1182 1.421 . S
C1181 C1176 1.425 . S
C1181 C1178 1.409 . S
C1181 C1179 1.415 . S
C1182 H1172 0.928 1_545 S
C1182 C1180 1.421 . S
C1182 C1183 1.361 1_545 S
C1183 H1173 0.953 . S
C1183 C1176 1.388 1_565 S
C1183 C1182 1.361 1_565 S
H1184 C1190 0.930 . S
H1185 C1193 0.930 1_655 S
H1186 C1194 0.930 1_655 S
H1187 C1195 0.930 . S
H1188 C1198 0.930 . S
H1189 C1199 0.930 . S
C1190 H1184 0.930 . S
C1190 C1191 1.355 . S
C1190 C1192 1.415 . S
C1191 C1190 1.355 . S
C1191 C1193 1.419 . S
C1192 C1190 1.415 . S
C1192 C1197 1.425 . S
C1192 C1199 1.409 . S
C1193 H1185 0.930 1_455 S
C1193 C1191 1.419 . S
C1193 C1194 1.362 . S
C1194 H1186 0.930 1_455 S
C1194 C1193 1.362 . S
C1194 C1197 1.409 . S
C1195 H1187 0.930 . S
C1195 C1196 1.355 . S
C1195 C1197 1.415 . S
C1196 C1195 1.355 . S
C1196 C1198 1.419 . S
C1197 C1192 1.425 . S
C1197 C1194 1.409 . S
C1197 C1195 1.415 . S
C1198 H1188 0.930 . S
C1198 C1196 1.419 . S
C1198 C1199 1.362 . S
C1199 H1189 0.930 . S
C1199 C1192 1.409 . S
C1199 C1198 1.362 . S
H1200 C1206 0.930 . S
H1201 C1209 0.930 1_565 S
H1202 C1210 0.930 . S
H1203 C1211 0.930 . S
H1204 C1214 0.930 . S
H1205 C1215 0.930 . S
C1206 H1200 0.930 . S
C1206 C1207 1.355 . S
C1206 C1208 1.415 . S
C1207 C1206 1.355 . S
C1207 C1209 1.419 . S
C1208 C1206 1.415 . S
C1208 C1213 1.425 . S
C1208 C1215 1.409 . S
C1209 H1201 0.930 1_545 S
C1209 C1207 1.419 . S
C1209 C1210 1.362 . S
C1210 H1202 0.930 . S
C1210 C1209 1.362 . S
C1210 C1213 1.409 . S
C1211 H1203 0.930 . S
C1211 C1212 1.355 . S
C1211 C1213 1.415 . S
C1212 C1211 1.355 . S
C1212 C1214 1.419 . S
C1213 C1208 1.425 . S
C1213 C1210 1.409 . S
C1213 C1211 1.415 . S
C1214 H1204 0.930 . S
C1214 C1212 1.419 . S
C1214 C1215 1.362 . S
C1215 H1205 0.930 . S
C1215 C1208 1.409 . S
C1215 C1214 1.362 . S
H1216 C1222 0.930 . S
H1217 C1225 0.930 . S
H1218 C1226 0.930 . S
H1219 C1227 0.930 . S
H1220 C1230 0.930 . S
H1221 C1231 0.930 . S
C1222 H1216 0.930 . S
C1222 C1223 1.355 1_655 S
C1222 C1224 1.415 . S
C1223 C1222 1.355 1_455 S
C1223 C1225 1.419 . S
C1224 C1222 1.415 . S
C1224 C1229 1.425 1_655 S
C1224 C1231 1.409 . S
C1225 H1217 0.930 . S
C1225 C1223 1.419 . S
C1225 C1226 1.362 . S
C1226 H1218 0.930 . S
C1226 C1225 1.362 . S
C1226 C1229 1.409 . S
C1227 H1219 0.930 . S
C1227 C1228 1.355 . S
C1227 C1229 1.415 . S
C1228 C1227 1.355 . S
C1228 C1230 1.419 1_455 S
C1229 C1224 1.425 1_455 S
C1229 C1226 1.409 . S
C1229 C1227 1.415 . S
C1230 H1220 0.930 . S
C1230 C1228 1.419 1_655 S
C1230 C1231 1.362 . S
C1231 H1221 0.930 . S
C1231 C1224 1.409 . S
C1231 C1230 1.362 . S
H1232 C1238 0.930 . S
H1233 C1241 0.930 . S
H1234 C1242 0.930 . S
H1235 C1243 0.930 . S
H1236 C1246 0.930 . S
H1237 C1247 0.930 . S
C1238 H1232 0.930 . S
C1238 C1239 1.355 . S
C1238 C1240 1.415 . S
C1239 C1238 1.355 . S
C1239 C1241 1.419 1_545 S
C1240 C1238 1.415 . S
C1240 C1245 1.425 1_545 S
C1240 C1247 1.409 . S
C1241 H1233 0.930 . S
C1241 C1239 1.419 1_565 S
C1241 C1242 1.362 . S
C1242 H1234 0.930 . S
C1242 C1241 1.362 . S
C1242 C1245 1.409 . S
C1243 H1235 0.930 . S
C1243 C1244 1.355 1_565 S
C1243 C1245 1.415 . S
C1244 C1243 1.355 1_545 S
C1244 C1246 1.419 . S
C1245 C1240 1.425 1_565 S
C1245 C1242 1.409 . S
C1245 C1243 1.415 . S
C1246 H1236 0.930 . S
C1246 C1244 1.419 . S
C1246 C1247 1.362 . S
C1247 H1237 0.930 . S
C1247 C1240 1.409 . S
C1247 C1246 1.362 . S
H1248 C1254 0.930 . S
H1249 C1257 0.930 . S
H1250 C1258 0.930 . S
H1251 C1259 0.930 . S
H1252 C1262 0.930 . S
H1253 C1263 0.930 . S
C1254 H1248 0.930 . S
C1254 C1255 1.355 . S
C1254 C1256 1.415 . S
C1255 C1254 1.355 . S
C1255 C1257 1.419 . S
C1256 C1254 1.415 . S
C1256 C1261 1.425 . S
C1256 C1263 1.409 . S
C1257 H1249 0.930 . S
C1257 C1255 1.419 . S
C1257 C1258 1.362 . S
C1258 H1250 0.930 . S
C1258 C1257 1.362 . S
C1258 C1261 1.409 . S
C1259 H1251 0.930 . S
C1259 C1260 1.355 . S
C1259 C1261 1.415 . S
C1260 C1259 1.355 . S
C1260 C1262 1.419 . S
C1261 C1256 1.425 . S
C1261 C1258 1.409 . S
C1261 C1259 1.415 . S
C1262 H1252 0.930 . S
C1262 C1260 1.419 . S
C1262 C1263 1.362 . S
C1263 H1253 0.930 . S
C1263 C1256 1.409 . S
C1263 C1262 1.362 . S
H1264 C1270 0.930 . S
H1265 C1273 0.930 1_565 S
H1266 C1274 0.930 . S
H1267 C1275 0.930 1_565 S
H1268 C1278 0.930 . S
H1269 C1279 0.930 . S
C1270 H1264 0.930 . S
C1270 C1271 1.355 . S
C1270 C1272 1.415 . S
C1271 C1270 1.355 . S
C1271 C1273 1.419 . S
C1272 C1270 1.415 . S
C1272 C1277 1.425 . S
C1272 C1279 1.409 . S
C1273 H1265 0.930 1_545 S
C1273 C1271 1.419 . S
C1273 C1274 1.362 1_545 S
C1274 H1266 0.930 . S
C1274 C1273 1.362 1_565 S
C1274 C1277 1.409 1_565 S
C1275 H1267 0.930 1_545 S
C1275 C1276 1.355 . S
C1275 C1277 1.415 . S
C1276 C1275 1.355 . S
C1276 C1278 1.419 . S
C1277 C1272 1.425 . S
C1277 C1274 1.409 1_545 S
C1277 C1275 1.415 . S
C1278 H1268 0.930 . S
C1278 C1276 1.419 . S
C1278 C1279 1.362 . S
C1279 H1269 0.930 . S
C1279 C1272 1.409 . S
C1279 C1278 1.362 . S
H1280 C1286 0.930 . S
H1281 C1289 0.930 . S
H1282 C1290 0.930 . S
H1283 C1291 0.930 . S
H1284 C1294 0.930 . S
H1285 C1295 0.930 . S
C1286 H1280 0.930 . S
C1286 C1287 1.362 . S
C1286 C1288 1.415 . S
C1287 C1286 1.362 . S
C1287 C1289 1.411 1_545 S
C1288 C1286 1.415 . S
C1288 C1293 1.425 1_545 S
C1288 C1295 1.409 . S
C1289 H1281 0.930 . S
C1289 C1287 1.411 1_565 S
C1289 C1290 1.362 . S
C1290 H1282 0.930 . S
C1290 C1289 1.362 . S
C1290 C1293 1.409 . S
C1291 H1283 0.930 . S
C1291 C1292 1.355 1_565 S
C1291 C1293 1.415 . S
C1292 C1291 1.355 1_545 S
C1292 C1294 1.419 . S
C1293 C1288 1.425 1_565 S
C1293 C1290 1.409 . S
C1293 C1291 1.415 . S
C1294 H1284 0.930 . S
C1294 C1292 1.419 . S
C1294 C1295 1.362 . S
C1295 H1285 0.930 . S
C1295 C1288 1.409 . S
C1295 C1294 1.362 . S
H1296 C1302 0.930 . S
H1297 C1305 0.930 . S
H1298 C1306 0.930 . S
H1299 C1307 0.930 1_655 S
H1300 C1310 0.930 . S
H1301 C1311 0.930 . S
C1302 H1296 0.930 . S
C1302 C1303 1.355 . S
C1302 C1304 1.415 . S
C1303 C1302 1.355 . S
C1303 C1305 1.419 . S
C1304 C1302 1.415 . S
C1304 C1309 1.425 . S
C1304 C1311 1.409 . S
C1305 H1297 0.930 . S
C1305 C1303 1.419 . S
C1305 C1306 1.362 . S
C1306 H1298 0.930 . S
C1306 C1305 1.362 . S
C1306 C1309 1.409 . S
C1307 H1299 0.930 1_455 S
C1307 C1308 1.355 . S
C1307 C1309 1.415 . S
C1308 C1307 1.355 . S
C1308 C1310 1.419 . S
C1309 C1304 1.425 . S
C1309 C1306 1.409 . S
C1309 C1307 1.415 . S
C1310 H1300 0.930 . S
C1310 C1308 1.419 . S
C1310 C1311 1.362 . S
C1311 H1301 0.930 . S
C1311 C1304 1.409 . S
C1311 C1310 1.362 . S
H1312 C1318 0.930 . S
H1313 C1321 0.930 . S
H1314 C1322 0.930 . S
H1315 C1323 0.930 . S
H1316 C1326 0.941 . S
H1317 C1327 0.930 1_565 S
C1318 H1312 0.930 . S
C1318 C1319 1.355 . S
C1318 C1320 1.415 . S
C1319 C1318 1.355 . S
C1319 C1321 1.419 . S
C1320 C1318 1.415 . S
C1320 C1325 1.425 . S
C1320 C1327 1.409 . S
C1321 H1313 0.930 . S
C1321 C1319 1.419 . S
C1321 C1322 1.362 . S
C1322 H1314 0.930 . S
C1322 C1321 1.362 . S
C1322 C1325 1.409 . S
C1323 H1315 0.930 . S
C1323 C1324 1.355 . S
C1323 C1325 1.415 . S
C1324 C1323 1.355 . S
C1324 C1326 1.419 . S
C1325 C1320 1.425 . S
C1325 C1322 1.409 . S
C1325 C1323 1.415 . S
C1326 H1316 0.941 . S
C1326 C1324 1.419 . S
C1326 C1327 1.362 . S
C1327 H1317 0.930 1_545 S
C1327 C1320 1.409 . S
C1327 C1326 1.362 . S
H1328 C1334 0.930 . S
H1329 C1337 0.930 . S
H1330 C1338 0.930 1_655 S
H1331 C1339 0.930 1_655 S
H1332 C1342 0.930 . S
H1333 C1343 0.930 . S
C1334 H1328 0.930 . S
C1334 C1335 1.355 . S
C1334 C1336 1.415 . S
C1335 C1334 1.355 . S
C1335 C1337 1.419 . S
C1336 C1334 1.415 . S
C1336 C1341 1.425 . S
C1336 C1343 1.409 . S
C1337 H1329 0.930 . S
C1337 C1335 1.419 . S
C1337 C1338 1.362 . S
C1338 H1330 0.930 1_455 S
C1338 C1337 1.362 . S
C1338 C1341 1.409 . S
C1339 H1331 0.930 1_455 S
C1339 C1340 1.355 . S
C1339 C1341 1.415 . S
C1340 C1339 1.355 . S
C1340 C1342 1.419 . S
C1341 C1336 1.425 . S
C1341 C1338 1.409 . S
C1341 C1339 1.415 . S
C1342 H1332 0.930 . S
C1342 C1340 1.419 . S
C1342 C1343 1.362 . S
C1343 H1333 0.930 . S
C1343 C1336 1.409 . S
C1343 C1342 1.362 . S
H1344 C1350 0.930 . S
H1345 C1353 0.930 . S
H1346 C1354 0.930 . S
H1347 C1355 0.930 1_565 S
H1348 C1358 0.930 . S
H1349 C1359 0.930 . S
C1350 H1344 0.930 . S
C1350 C1351 1.355 . S
C1350 C1352 1.415 . S
C1351 C1350 1.355 . S
C1351 C1353 1.419 1_545 S
C1352 C1350 1.415 . S
C1352 C1357 1.425 . S
C1352 C1359 1.409 . S
C1353 H1345 0.930 . S
C1353 C1351 1.419 1_565 S
C1353 C1354 1.362 . S
C1354 H1346 0.930 . S
C1354 C1353 1.362 . S
C1354 C1357 1.409 1_565 S
C1355 H1347 0.930 1_545 S
C1355 C1356 1.355 . S
C1355 C1357 1.415 . S
C1356 C1355 1.355 . S
C1356 C1358 1.419 . S
C1357 C1352 1.425 . S
C1357 C1354 1.409 1_545 S
C1357 C1355 1.415 . S
C1358 H1348 0.930 . S
C1358 C1356 1.419 . S
C1358 C1359 1.362 . S
C1359 H1349 0.930 . S
C1359 C1352 1.409 . S
C1359 C1358 1.362 . S
H1360 C1366 0.930 1_655 S
H1361 C1369 0.930 . S
H1362 C1370 0.930 . S
H1363 C1371 0.930 . S
H1364 C1374 0.930 . S
H1365 C1375 0.930 . S
C1366 H1360 0.930 1_455 S
C1366 C1367 1.355 . S
C1366 C1368 1.415 . S
C1367 C1366 1.355 . S
C1367 C1369 1.419 . S
C1368 C1366 1.415 . S
C1368 C1373 1.425 . S
C1368 C1375 1.409 1_455 S
C1369 H1361 0.930 . S
C1369 C1367 1.419 . S
C1369 C1370 1.362 . S
C1370 H1362 0.930 . S
C1370 C1369 1.362 . S
C1370 C1373 1.409 . S
C1371 H1363 0.930 . S
C1371 C1372 1.355 . S
C1371 C1373 1.415 . S
C1372 C1371 1.355 . S
C1372 C1374 1.419 1_455 S
C1373 C1368 1.425 . S
C1373 C1370 1.409 . S
C1373 C1371 1.415 . S
C1374 H1364 0.930 . S
C1374 C1372 1.419 1_655 S
C1374 C1375 1.362 . S
C1375 H1365 0.930 . S
C1375 C1368 1.409 1_655 S
C1375 C1374 1.362 . S
H1376 C1382 0.930 . S
H1377 C1385 0.930 . S
H1378 C1386 0.930 . S
H1379 C1387 0.930 . S
H1380 C1390 0.930 . S
H1381 C1391 0.930 . S
C1382 H1376 0.930 . S
C1382 C1383 1.355 . S
C1382 C1384 1.415 . S
C1383 C1382 1.355 . S
C1383 C1385 1.419 . S
C1384 C1382 1.415 . S
C1384 C1389 1.425 . S
C1384 C1391 1.409 . S
C1385 H1377 0.930 . S
C1385 C1383 1.419 . S
C1385 C1386 1.362 . S
C1386 H1378 0.930 . S
C1386 C1385 1.362 . S
C1386 C1389 1.409 . S
C1387 H1379 0.930 . S
C1387 C1388 1.355 . S
C1387 C1389 1.415 . S
C1388 C1387 1.355 . S
C1388 C1390 1.419 . S
C1389 C1384 1.425 . S
C1389 C1386 1.409 . S
C1389 C1387 1.415 . S
C1390 H1380 0.930 . S
C1390 C1388 1.419 . S
C1390 C1391 1.362 . S
C1391 H1381 0.930 . S
C1391 C1384 1.409 . S
C1391 C1390 1.362 . S
H1392 C1398 0.930 . S
H1393 C1401 0.930 . S
H1394 C1402 0.930 . S
H1395 C1403 0.930 . S
H1396 C1406 0.930 . S
H1397 C1407 0.930 1_655 S
C1398 H1392 0.930 . S
C1398 C1399 1.354 1_655 S
C1398 C1400 1.415 1_655 S
C1399 C1398 1.354 1_455 S
C1399 C1401 1.420 . S
C1400 C1398 1.415 1_455 S
C1400 C1405 1.425 . S
C1400 C1407 1.409 . S
C1401 H1393 0.930 . S
C1401 C1399 1.420 . S
C1401 C1402 1.362 . S
C1402 H1394 0.930 . S
C1402 C1401 1.362 . S
C1402 C1405 1.409 . S
C1403 H1395 0.930 . S
C1403 C1404 1.355 . S
C1403 C1405 1.415 . S
C1404 C1403 1.355 . S
C1404 C1406 1.419 . S
C1405 C1400 1.425 . S
C1405 C1402 1.409 . S
C1405 C1403 1.415 . S
C1406 H1396 0.930 . S
C1406 C1404 1.419 . S
C1406 C1407 1.362 . S
C1407 H1397 0.930 1_455 S
C1407 C1400 1.409 . S
C1407 C1406 1.362 . S
H1408 C1414 0.930 . S
H1409 C1417 0.930 . S
H1410 C1418 0.930 . S
H1411 C1419 0.930 1_556 S
H1412 C1422 0.930 . S
H1413 C1423 0.930 . S
C1414 H1408 0.930 . S
C1414 C1415 1.355 . S
C1414 C1416 1.415 . S
C1415 C1414 1.355 . S
C1415 C1417 1.419 1_554 S
C1416 C1414 1.415 . S
C1416 C1421 1.425 . S
C1416 C1423 1.409 . S
C1417 H1409 0.930 . S
C1417 C1415 1.419 1_556 S
C1417 C1418 1.362 . S
C1418 H1410 0.930 . S
C1418 C1417 1.362 . S
C1418 C1421 1.409 1_556 S
C1419 H1411 0.930 1_554 S
C1419 C1420 1.355 . S
C1419 C1421 1.415 . S
C1420 C1419 1.355 . S
C1420 C1422 1.419 . S
C1421 C1416 1.425 . S
C1421 C1418 1.409 1_554 S
C1421 C1419 1.415 . S
C1422 H1412 0.930 . S
C1422 C1420 1.419 . S
C1422 C1423 1.362 . S
C1423 H1413 0.930 . S
C1423 C1416 1.409 . S
C1423 C1422 1.362 . S
H1424 C1430 0.930 1_556 S
H1425 C1433 0.930 . S
H1426 C1434 0.930 . S
H1427 C1435 0.930 . S
H1428 C1438 0.930 . S
H1429 C1439 0.930 . S
C1430 H1424 0.930 1_554 S
C1430 C1431 1.355 . S
C1430 C1432 1.415 . S
C1431 C1430 1.355 . S
C1431 C1433 1.419 . S
C1432 C1430 1.415 . S
C1432 C1437 1.425 . S
C1432 C1439 1.409 1_554 S
C1433 H1425 0.930 . S
C1433 C1431 1.419 . S
C1433 C1434 1.362 . S
C1434 H1426 0.930 . S
C1434 C1433 1.362 . S
C1434 C1437 1.409 . S
C1435 H1427 0.930 . S
C1435 C1436 1.355 . S
C1435 C1437 1.415 . S
C1436 C1435 1.355 . S
C1436 C1438 1.419 1_554 S
C1437 C1432 1.425 . S
C1437 C1434 1.409 . S
C1437 C1435 1.415 . S
C1438 H1428 0.930 . S
C1438 C1436 1.419 1_556 S
C1438 C1439 1.362 . S
C1439 H1429 0.930 . S
C1439 C1432 1.409 1_556 S
C1439 C1438 1.362 . S
H1440 C1446 0.930 . S
H1441 C1449 0.930 . S
H1442 C1450 0.930 . S
H1443 C1451 0.930 . S
H1444 C1454 0.930 . S
H1445 C1455 0.930 . S
C1446 H1440 0.930 . S
C1446 C1447 1.355 . S
C1446 C1448 1.415 . S
C1447 C1446 1.355 . S
C1447 C1449 1.419 1_554 S
C1448 C1446 1.415 . S
C1448 C1453 1.425 . S
C1448 C1455 1.409 . S
C1449 H1441 0.930 . S
C1449 C1447 1.419 1_556 S
C1449 C1450 1.362 . S
C1450 H1442 0.930 . S
C1450 C1449 1.362 . S
C1450 C1453 1.409 1_556 S
C1451 H1443 0.930 . S
C1451 C1452 1.355 1_556 S
C1451 C1453 1.415 1_556 S
C1452 C1451 1.355 1_554 S
C1452 C1454 1.419 . S
C1453 C1448 1.425 . S
C1453 C1450 1.409 1_554 S
C1453 C1451 1.415 1_554 S
C1454 H1444 0.930 . S
C1454 C1452 1.419 . S
C1454 C1455 1.362 . S
C1455 H1445 0.930 . S
C1455 C1448 1.409 . S
C1455 C1454 1.362 . S
H1456 C1462 0.930 . S
H1457 C1465 0.930 . S
H1458 C1466 0.930 . S
H1459 C1467 0.930 . S
H1460 C1470 0.930 . S
H1461 C1471 0.930 . S
C1462 H1456 0.930 . S
C1462 C1463 1.355 1_556 S
C1462 C1464 1.415 . S
C1463 C1462 1.355 1_554 S
C1463 C1465 1.419 . S
C1464 C1462 1.415 . S
C1464 C1469 1.425 1_556 S
C1464 C1471 1.409 . S
C1465 H1457 0.930 . S
C1465 C1463 1.419 . S
C1465 C1466 1.362 . S
C1466 H1458 0.930 . S
C1466 C1465 1.362 . S
C1466 C1469 1.409 . S
C1467 H1459 0.930 . S
C1467 C1468 1.355 1_554 S
C1467 C1469 1.415 . S
C1468 C1467 1.355 1_556 S
C1468 C1470 1.419 . S
C1469 C1464 1.425 1_554 S
C1469 C1466 1.409 . S
C1469 C1467 1.415 . S
C1470 H1460 0.930 . S
C1470 C1468 1.419 . S
C1470 C1471 1.362 . S
C1471 H1461 0.930 . S
C1471 C1464 1.409 . S
C1471 C1470 1.362 . S
H1472 C1478 0.930 . S
H1473 C1481 0.930 . S
H1474 C1482 0.930 . S
H1475 C1483 0.930 . S
H1476 C1486 0.930 . S
H1477 C1487 0.930 . S
C1478 H1472 0.930 . S
C1478 C1479 1.355 . S
C1478 C1480 1.415 . S
C1479 C1478 1.355 . S
C1479 C1481 1.419 1_554 S
C1480 C1478 1.415 . S
C1480 C1485 1.425 1_554 S
C1480 C1487 1.409 . S
C1481 H1473 0.930 . S
C1481 C1479 1.419 1_556 S
C1481 C1482 1.362 . S
C1482 H1474 0.930 . S
C1482 C1481 1.362 . S
C1482 C1485 1.409 . S
C1483 H1475 0.930 . S
C1483 C1484 1.355 1_556 S
C1483 C1485 1.415 . S
C1484 C1483 1.355 1_554 S
C1484 C1486 1.419 . S
C1485 C1480 1.425 1_556 S
C1485 C1482 1.409 . S
C1485 C1483 1.415 . S
C1486 H1476 0.930 . S
C1486 C1484 1.419 . S
C1486 C1487 1.362 . S
C1487 H1477 0.930 . S
C1487 C1480 1.409 . S
C1487 C1486 1.362 . S
H1488 C1494 0.930 . S
H1489 C1497 0.930 . S
H1490 C1498 0.930 . S
H1491 C1499 0.930 . S
H1492 C1502 0.930 . S
H1493 C1503 0.930 . S
C1494 H1488 0.930 . S
C1494 C1495 1.368 . S
C1494 C1496 1.415 . S
C1495 C1494 1.368 . S
C1495 C1497 1.401 1_554 S
C1496 C1494 1.415 . S
C1496 C1501 1.425 1_554 S
C1496 C1503 1.409 . S
C1497 H1489 0.930 . S
C1497 C1495 1.401 1_556 S
C1497 C1498 1.362 . S
C1498 H1490 0.930 . S
C1498 C1497 1.362 . S
C1498 C1501 1.409 . S
C1499 H1491 0.930 . S
C1499 C1500 1.355 1_556 S
C1499 C1501 1.415 . S
C1500 C1499 1.355 1_554 S
C1500 C1502 1.419 . S
C1501 C1496 1.425 1_556 S
C1501 C1498 1.409 . S
C1501 C1499 1.415 . S
C1502 H1492 0.930 . S
C1502 C1500 1.419 . S
C1502 C1503 1.362 . S
C1503 H1493 0.930 . S
C1503 C1496 1.409 . S
C1503 C1502 1.362 . S
H1504 C1510 0.930 . S
H1505 C1513 0.930 . S
H1506 C1514 0.930 . S
H1507 C1515 0.930 . S
H1508 C1518 0.930 1_556 S
H1509 C1519 0.930 1_556 S
C1510 H1504 0.930 . S
C1510 C1511 1.355 . S
C1510 C1512 1.415 . S
C1511 C1510 1.355 . S
C1511 C1513 1.419 . S
C1512 C1510 1.415 . S
C1512 C1517 1.425 . S
C1512 C1519 1.409 . S
C1513 H1505 0.930 . S
C1513 C1511 1.419 . S
C1513 C1514 1.362 . S
C1514 H1506 0.930 . S
C1514 C1513 1.362 . S
C1514 C1517 1.409 . S
C1515 H1507 0.930 . S
C1515 C1516 1.355 . S
C1515 C1517 1.415 . S
C1516 C1515 1.355 . S
C1516 C1518 1.419 . S
C1517 C1512 1.425 . S
C1517 C1514 1.409 . S
C1517 C1515 1.415 . S
C1518 H1508 0.930 1_554 S
C1518 C1516 1.419 . S
C1518 C1519 1.362 . S
C1519 H1509 0.930 1_554 S
C1519 C1512 1.409 . S
C1519 C1518 1.362 . S
H1520 C1526 0.930 . S
H1521 C1529 0.930 . S
H1522 C1530 0.930 . S
H1523 C1531 0.930 . S
H1524 C1534 0.930 . S
H1525 C1535 0.930 1_556 S
C1526 H1520 0.930 . S
C1526 C1527 1.355 . S
C1526 C1528 1.415 . S
C1527 C1526 1.355 . S
C1527 C1529 1.419 . S
C1528 C1526 1.415 . S
C1528 C1533 1.425 . S
C1528 C1535 1.409 . S
C1529 H1521 0.930 . S
C1529 C1527 1.419 . S
C1529 C1530 1.362 . S
C1530 H1522 0.930 . S
C1530 C1529 1.362 . S
C1530 C1533 1.409 . S
C1531 H1523 0.930 . S
C1531 C1532 1.355 . S
C1531 C1533 1.415 . S
C1532 C1531 1.355 . S
C1532 C1534 1.419 . S
C1533 C1528 1.425 . S
C1533 C1530 1.409 . S
C1533 C1531 1.415 . S
C1534 H1524 0.930 . S
C1534 C1532 1.419 . S
C1534 C1535 1.362 . S
C1535 H1525 0.930 1_554 S
C1535 C1528 1.409 . S
C1535 C1534 1.362 . S
H1536 C1542 0.930 . S
H1537 C1545 0.930 . S
H1538 C1546 0.930 . S
H1539 C1547 0.930 . S
H1540 C1550 0.930 . S
H1541 C1551 0.930 . S
C1542 H1536 0.930 . S
C1542 C1543 1.355 . S
C1542 C1544 1.415 . S
C1543 C1542 1.355 . S
C1543 C1545 1.419 . S
C1544 C1542 1.415 . S
C1544 C1549 1.425 . S
C1544 C1551 1.409 . S
C1545 H1537 0.930 . S
C1545 C1543 1.419 . S
C1545 C1546 1.362 . S
C1546 H1538 0.930 . S
C1546 C1545 1.362 . S
C1546 C1549 1.409 . S
C1547 H1539 0.930 . S
C1547 C1548 1.355 . S
C1547 C1549 1.415 . S
C1548 C1547 1.355 . S
C1548 C1550 1.419 . S
C1549 C1544 1.425 . S
C1549 C1546 1.409 . S
C1549 C1547 1.415 . S
C1550 H1540 0.930 . S
C1550 C1548 1.419 . S
C1550 C1551 1.362 . S
C1551 H1541 0.930 . S
C1551 C1544 1.409 . S
C1551 C1550 1.362 . S
H1552 C1558 0.930 . S
H1553 C1561 0.930 . S
H1554 C1562 0.930 . S
H1555 C1563 0.930 . S
H1556 C1566 0.930 . S
H1557 C1567 0.930 . S
C1558 H1552 0.930 . S
C1558 C1559 1.355 . S
C1558 C1560 1.415 . S
C1559 C1558 1.355 . S
C1559 C1561 1.419 . S
C1560 C1558 1.415 . S
C1560 C1565 1.425 . S
C1560 C1567 1.409 . S
C1561 H1553 0.930 . S
C1561 C1559 1.419 . S
C1561 C1562 1.362 . S
C1562 H1554 0.930 . S
C1562 C1561 1.362 . S
C1562 C1565 1.409 . S
C1563 H1555 0.930 . S
C1563 C1564 1.355 . S
C1563 C1565 1.415 . S
C1564 C1563 1.355 . S
C1564 C1566 1.419 . S
C1565 C1560 1.425 . S
C1565 C1562 1.409 . S
C1565 C1563 1.415 . S
C1566 H1556 0.930 . S
C1566 C1564 1.419 . S
C1566 C1567 1.362 . S
C1567 H1557 0.930 . S
C1567 C1560 1.409 . S
C1567 C1566 1.362 . S
H1568 C1574 0.930 . S
H1569 C1577 0.930 . S
H1570 C1578 0.930 . S
H1571 C1579 0.930 . S
H1572 C1582 0.930 . S
H1573 C1583 0.930 . S
C1574 H1568 0.930 . S
C1574 C1575 1.355 . S
C1574 C1576 1.415 . S
C1575 C1574 1.355 . S
C1575 C1577 1.419 . S
C1576 C1574 1.415 . S
C1576 C1581 1.425 . S
C1576 C1583 1.409 . S
C1577 H1569 0.930 . S
C1577 C1575 1.419 . S
C1577 C1578 1.362 . S
C1578 H1570 0.930 . S
C1578 C1577 1.362 . S
C1578 C1581 1.409 . S
C1579 H1571 0.930 . S
C1579 C1580 1.355 . S
C1579 C1581 1.415 . S
C1580 C1579 1.355 . S
C1580 C1582 1.419 . S
C1581 C1576 1.425 . S
C1581 C1578 1.409 . S
C1581 C1579 1.415 . S
C1582 H1572 0.930 . S
C1582 C1580 1.419 . S
C1582 C1583 1.362 . S
C1583 H1573 0.930 . S
C1583 C1576 1.409 . S
C1583 C1582 1.362 . S
H1584 C1590 0.930 . S
H1585 C1593 0.930 . S
H1586 C1594 0.930 . S
H1587 C1595 0.930 . S
H1588 C1598 0.930 . S
H1589 C1599 0.930 . S
C1590 H1584 0.930 . S
C1590 C1591 1.355 . S
C1590 C1592 1.415 . S
C1591 C1590 1.355 . S
C1591 C1593 1.419 . S
C1592 C1590 1.415 . S
C1592 C1597 1.425 . S
C1592 C1599 1.409 . S
C1593 H1585 0.930 . S
C1593 C1591 1.419 . S
C1593 C1594 1.362 . S
C1594 H1586 0.930 . S
C1594 C1593 1.362 . S
C1594 C1597 1.409 . S
C1595 H1587 0.930 . S
C1595 C1596 1.355 . S
C1595 C1597 1.415 . S
C1596 C1595 1.355 . S
C1596 C1598 1.419 . S
C1597 C1592 1.425 . S
C1597 C1594 1.409 . S
C1597 C1595 1.415 . S
C1598 H1588 0.930 . S
C1598 C1596 1.419 . S
C1598 C1599 1.362 . S
C1599 H1589 0.930 . S
C1599 C1592 1.409 . S
C1599 C1598 1.362 . S
H1600 C1606 0.930 . S
H1601 C1609 0.930 . S
H1602 C1610 0.930 . S
H1603 C1611 0.930 . S
H1604 C1614 0.930 . S
H1605 C1615 0.930 . S
C1606 H1600 0.930 . S
C1606 C1607 1.355 . S
C1606 C1608 1.415 . S
C1607 C1606 1.355 . S
C1607 C1609 1.419 . S
C1608 C1606 1.415 . S
C1608 C1613 1.425 . S
C1608 C1615 1.409 . S
C1609 H1601 0.930 . S
C1609 C1607 1.419 . S
C1609 C1610 1.362 . S
C1610 H1602 0.930 . S
C1610 C1609 1.362 . S
C1610 C1613 1.409 . S
C1611 H1603 0.930 . S
C1611 C1612 1.355 . S
C1611 C1613 1.415 . S
C1612 C1611 1.355 . S
C1612 C1614 1.419 . S
C1613 C1608 1.425 . S
C1613 C1610 1.409 . S
C1613 C1611 1.415 . S
C1614 H1604 0.930 . S
C1614 C1612 1.419 . S
C1614 C1615 1.362 . S
C1615 H1605 0.930 . S
C1615 C1608 1.409 . S
C1615 C1614 1.362 . S
H1616 C1622 0.930 . S
H1617 C1625 0.930 . S
H1618 C1626 0.930 . S
H1619 C1627 0.930 . S
H1620 C1630 0.930 . S
H1621 C1631 0.930 . S
C1622 H1616 0.930 . S
C1622 C1623 1.355 . S
C1622 C1624 1.415 . S
C1623 C1622 1.355 . S
C1623 C1625 1.419 . S
C1624 C1622 1.415 . S
C1624 C1629 1.425 . S
C1624 C1631 1.409 . S
C1625 H1617 0.930 . S
C1625 C1623 1.419 . S
C1625 C1626 1.362 . S
C1626 H1618 0.930 . S
C1626 C1625 1.362 . S
C1626 C1629 1.409 . S
C1627 H1619 0.930 . S
C1627 C1628 1.355 . S
C1627 C1629 1.415 . S
C1628 C1627 1.355 . S
C1628 C1630 1.419 . S
C1629 C1624 1.425 . S
C1629 C1626 1.409 . S
C1629 C1627 1.415 . S
C1630 H1620 0.930 . S
C1630 C1628 1.419 . S
C1630 C1631 1.362 . S
C1631 H1621 0.930 . S
C1631 C1624 1.409 . S
C1631 C1630 1.362 . S
H1632 C1638 0.930 . S
H1633 C1641 0.930 . S
H1634 C1642 0.930 . S
H1635 C1643 0.930 . S
H1636 C1646 0.930 . S
H1637 C1647 0.930 . S
C1638 H1632 0.930 . S
C1638 C1639 1.355 . S
C1638 C1640 1.415 . S
C1639 C1638 1.355 . S
C1639 C1641 1.419 . S
C1640 C1638 1.415 . S
C1640 C1645 1.425 . S
C1640 C1647 1.409 . S
C1641 H1633 0.930 . S
C1641 C1639 1.419 . S
C1641 C1642 1.362 . S
C1642 H1634 0.930 . S
C1642 C1641 1.362 . S
C1642 C1645 1.409 . S
C1643 H1635 0.930 . S
C1643 C1644 1.355 . S
C1643 C1645 1.415 . S
C1644 C1643 1.355 . S
C1644 C1646 1.419 . S
C1645 C1640 1.425 . S
C1645 C1642 1.409 . S
C1645 C1643 1.415 . S
C1646 H1636 0.930 . S
C1646 C1644 1.419 . S
C1646 C1647 1.362 . S
C1647 H1637 0.930 . S
C1647 C1640 1.409 . S
C1647 C1646 1.362 . S
H1648 C1654 0.930 . S
H1649 C1657 0.930 . S
H1650 C1658 0.930 . S
H1651 C1659 0.930 . S
H1652 C1662 0.930 . S
H1653 C1663 0.930 . S
C1654 H1648 0.930 . S
C1654 C1655 1.355 . S
C1654 C1656 1.415 . S
C1655 C1654 1.355 . S
C1655 C1657 1.419 . S
C1656 C1654 1.415 . S
C1656 C1661 1.425 . S
C1656 C1663 1.409 . S
C1657 H1649 0.930 . S
C1657 C1655 1.419 . S
C1657 C1658 1.362 . S
C1658 H1650 0.930 . S
C1658 C1657 1.362 . S
C1658 C1661 1.409 . S
C1659 H1651 0.930 . S
C1659 C1660 1.355 . S
C1659 C1661 1.415 . S
C1660 C1659 1.355 . S
C1660 C1662 1.419 . S
C1661 C1656 1.425 . S
C1661 C1658 1.409 . S
C1661 C1659 1.415 . S
C1662 H1652 0.930 . S
C1662 C1660 1.419 . S
C1662 C1663 1.362 . S
C1663 H1653 0.930 . S
C1663 C1656 1.409 . S
C1663 C1662 1.362 . S
H1664 C1670 0.930 . S
H1665 C1673 0.930 . S
H1666 C1674 0.930 . S
H1667 C1675 0.930 . S
H1668 C1678 0.930 . S
H1669 C1679 0.930 . S
C1670 H1664 0.930 . S
C1670 C1671 1.355 . S
C1670 C1672 1.415 . S
C1671 C1670 1.355 . S
C1671 C1673 1.419 . S
C1672 C1670 1.415 . S
C1672 C1677 1.425 . S
C1672 C1679 1.409 . S
C1673 H1665 0.930 . S
C1673 C1671 1.419 . S
C1673 C1674 1.362 . S
C1674 H1666 0.930 . S
C1674 C1673 1.362 . S
C1674 C1677 1.409 . S
C1675 H1667 0.930 . S
C1675 C1676 1.355 . S
C1675 C1677 1.415 . S
C1676 C1675 1.355 . S
C1676 C1678 1.419 . S
C1677 C1672 1.425 . S
C1677 C1674 1.409 . S
C1677 C1675 1.415 . S
C1678 H1668 0.930 . S
C1678 C1676 1.419 . S
C1678 C1679 1.362 . S
C1679 H1669 0.930 . S
C1679 C1672 1.409 . S
C1679 C1678 1.362 . S
H1680 C1686 0.930 . S
H1681 C1689 0.930 . S
H1682 C1690 0.930 . S
H1683 C1691 0.930 . S
H1684 C1694 0.930 . S
H1685 C1695 0.930 . S
C1686 H1680 0.930 . S
C1686 C1687 1.355 . S
C1686 C1688 1.415 . S
C1687 C1686 1.355 . S
C1687 C1689 1.419 . S
C1688 C1686 1.415 . S
C1688 C1693 1.425 . S
C1688 C1695 1.409 . S
C1689 H1681 0.930 . S
C1689 C1687 1.419 . S
C1689 C1690 1.362 . S
C1690 H1682 0.930 . S
C1690 C1689 1.362 . S
C1690 C1693 1.409 . S
C1691 H1683 0.930 . S
C1691 C1692 1.355 . S
C1691 C1693 1.415 . S
C1692 C1691 1.355 . S
C1692 C1694 1.419 . S
C1693 C1688 1.425 . S
C1693 C1690 1.409 . S
C1693 C1691 1.415 . S
C1694 H1684 0.930 . S
C1694 C1692 1.419 . S
C1694 C1695 1.362 . S
C1695 H1685 0.930 . S
C1695 C1688 1.409 . S
C1695 C1694 1.362 . S
H1696 C1702 0.930 . S
H1697 C1705 0.930 . S
H1698 C1706 0.930 . S
H1699 C1707 0.930 . S
H1700 C1710 0.930 . S
H1701 C1711 0.930 . S
C1702 H1696 0.930 . S
C1702 C1703 1.355 . S
C1702 C1704 1.415 . S
C1703 C1702 1.355 . S
C1703 C1705 1.419 . S
C1704 C1702 1.415 . S
C1704 C1709 1.425 . S
C1704 C1711 1.409 . S
C1705 H1697 0.930 . S
C1705 C1703 1.419 . S
C1705 C1706 1.362 . S
C1706 H1698 0.930 . S
C1706 C1705 1.362 . S
C1706 C1709 1.409 . S
C1707 H1699 0.930 . S
C1707 C1708 1.355 . S
C1707 C1709 1.415 . S
C1708 C1707 1.355 . S
C1708 C1710 1.419 . S
C1709 C1704 1.425 . S
C1709 C1706 1.409 . S
C1709 C1707 1.415 . S
C1710 H1700 0.930 . S
C1710 C1708 1.419 . S
C1710 C1711 1.362 . S
C1711 H1701 0.930 . S
C1711 C1704 1.409 . S
C1711 C1710 1.362 . S
H1712 C1718 0.930 . S
H1713 C1721 0.930 . S
H1714 C1722 0.930 . S
H1715 C1723 0.930 . S
H1716 C1726 0.930 . S
H1717 C1727 0.930 . S
C1718 H1712 0.930 . S
C1718 C1719 1.355 . S
C1718 C1720 1.415 . S
C1719 C1718 1.355 . S
C1719 C1721 1.419 . S
C1720 C1718 1.415 . S
C1720 C1725 1.425 . S
C1720 C1727 1.409 . S
C1721 H1713 0.930 . S
C1721 C1719 1.419 . S
C1721 C1722 1.362 . S
C1722 H1714 0.930 . S
C1722 C1721 1.362 . S
C1722 C1725 1.409 . S
C1723 H1715 0.930 . S
C1723 C1724 1.355 . S
C1723 C1725 1.415 . S
C1724 C1723 1.355 . S
C1724 C1726 1.419 . S
C1725 C1720 1.425 . S
C1725 C1722 1.409 . S
C1725 C1723 1.415 . S
C1726 H1716 0.930 . S
C1726 C1724 1.419 . S
C1726 C1727 1.362 . S
C1727 H1717 0.930 . S
C1727 C1720 1.409 . S
C1727 C1726 1.362 . S
H1728 C1734 0.930 . S
H1729 C1737 0.930 . S
H1730 C1738 0.930 . S
H1731 C1739 0.930 . S
H1732 C1742 0.930 . S
H1733 C1743 0.930 . S
C1734 H1728 0.930 . S
C1734 C1735 1.355 . S
C1734 C1736 1.415 . S
C1735 C1734 1.355 . S
C1735 C1737 1.419 . S
C1736 C1734 1.415 . S
C1736 C1741 1.425 . S
C1736 C1743 1.409 . S
C1737 H1729 0.930 . S
C1737 C1735 1.419 . S
C1737 C1738 1.362 . S
C1738 H1730 0.930 . S
C1738 C1737 1.362 . S
C1738 C1741 1.409 . S
C1739 H1731 0.930 . S
C1739 C1740 1.355 . S
C1739 C1741 1.415 . S
C1740 C1739 1.355 . S
C1740 C1742 1.419 . S
C1741 C1736 1.425 . S
C1741 C1738 1.409 . S
C1741 C1739 1.415 . S
C1742 H1732 0.930 . S
C1742 C1740 1.419 . S
C1742 C1743 1.362 . S
C1743 H1733 0.930 . S
C1743 C1736 1.409 . S
C1743 C1742 1.362 . S
H1744 C1750 0.930 . S
H1745 C1753 0.930 . S
H1746 C1754 0.930 . S
H1747 C1755 0.930 . S
H1748 C1758 0.930 . S
H1749 C1759 0.930 . S
C1750 H1744 0.930 . S
C1750 C1751 1.355 . S
C1750 C1752 1.415 . S
C1751 C1750 1.355 . S
C1751 C1753 1.419 . S
C1752 C1750 1.415 . S
C1752 C1757 1.425 . S
C1752 C1759 1.409 . S
C1753 H1745 0.930 . S
C1753 C1751 1.419 . S
C1753 C1754 1.362 . S
C1754 H1746 0.930 . S
C1754 C1753 1.362 . S
C1754 C1757 1.409 . S
C1755 H1747 0.930 . S
C1755 C1756 1.355 . S
C1755 C1757 1.415 . S
C1756 C1755 1.355 . S
C1756 C1758 1.419 . S
C1757 C1752 1.425 . S
C1757 C1754 1.409 . S
C1757 C1755 1.415 . S
C1758 H1748 0.930 . S
C1758 C1756 1.419 . S
C1758 C1759 1.362 . S
C1759 H1749 0.930 . S
C1759 C1752 1.409 . S
C1759 C1758 1.362 . S
H1760 C1766 0.930 . S
H1761 C1769 0.930 . S
H1762 C1770 0.930 . S
H1763 C1771 0.930 . S
H1764 C1774 0.930 . S
H1765 C1775 0.930 . S
C1766 H1760 0.930 . S
C1766 C1767 1.355 . S
C1766 C1768 1.415 . S
C1767 C1766 1.355 . S
C1767 C1769 1.419 . S
C1768 C1766 1.415 . S
C1768 C1773 1.425 . S
C1768 C1775 1.409 . S
C1769 H1761 0.930 . S
C1769 C1767 1.419 . S
C1769 C1770 1.362 . S
C1770 H1762 0.930 . S
C1770 C1769 1.362 . S
C1770 C1773 1.409 . S
C1771 H1763 0.930 . S
C1771 C1772 1.355 . S
C1771 C1773 1.415 . S
C1772 C1771 1.355 . S
C1772 C1774 1.419 . S
C1773 C1768 1.425 . S
C1773 C1770 1.409 . S
C1773 C1771 1.415 . S
C1774 H1764 0.930 . S
C1774 C1772 1.419 . S
C1774 C1775 1.362 . S
C1775 H1765 0.930 . S
C1775 C1768 1.409 . S
C1775 C1774 1.362 . S
H1776 C1782 0.930 . S
H1777 C1785 0.930 . S
H1778 C1786 0.930 . S
H1779 C1787 0.930 . S
H1780 C1790 0.930 . S
H1781 C1791 0.930 . S
C1782 H1776 0.930 . S
C1782 C1783 1.355 . S
C1782 C1784 1.415 . S
C1783 C1782 1.355 . S
C1783 C1785 1.419 . S
C1784 C1782 1.415 . S
C1784 C1789 1.425 . S
C1784 C1791 1.409 . S
C1785 H1777 0.930 . S
C1785 C1783 1.419 . S
C1785 C1786 1.362 . S
C1786 H1778 0.930 . S
C1786 C1785 1.362 . S
C1786 C1789 1.409 . S
C1787 H1779 0.930 . S
C1787 C1788 1.355 . S
C1787 C1789 1.415 . S
C1788 C1787 1.355 . S
C1788 C1790 1.419 . S
C1789 C1784 1.425 . S
C1789 C1786 1.409 . S
C1789 C1787 1.415 . S
C1790 H1780 0.930 . S
C1790 C1788 1.419 . S
C1790 C1791 1.362 . S
C1791 H1781 0.930 . S
C1791 C1784 1.409 . S
C1791 C1790 1.362 . S
H1792 C1798 0.930 . S
H1793 C1801 0.930 . S
H1794 C1802 0.930 . S
H1795 C1803 0.930 . S
H1796 C1806 0.930 . S
H1797 C1807 0.930 . S
C1798 H1792 0.930 . S
C1798 C1799 1.355 . S
C1798 C1800 1.415 . S
C1799 C1798 1.355 . S
C1799 C1801 1.419 . S
C1800 C1798 1.415 . S
C1800 C1805 1.425 . S
C1800 C1807 1.409 . S
C1801 H1793 0.930 . S
C1801 C1799 1.419 . S
C1801 C1802 1.362 . S
C1802 H1794 0.930 . S
C1802 C1801 1.362 . S
C1802 C1805 1.409 . S
C1803 H1795 0.930 . S
C1803 C1804 1.355 . S
C1803 C1805 1.415 . S
C1804 C1803 1.355 . S
C1804 C1806 1.419 . S
C1805 C1800 1.425 . S
C1805 C1802 1.409 . S
C1805 C1803 1.415 . S
C1806 H1796 0.930 . S
C1806 C1804 1.419 . S
C1806 C1807 1.362 . S
C1807 H1797 0.930 . S
C1807 C1800 1.409 . S
C1807 C1806 1.362 . S
H1808 C1814 0.930 . S
H1809 C1817 0.930 . S
H1810 C1818 0.930 . S
H1811 C1819 0.930 . S
H1812 C1822 0.930 . S
H1813 C1823 0.930 . S
C1814 H1808 0.930 . S
C1814 C1815 1.355 . S
C1814 C1816 1.415 . S
C1815 C1814 1.355 . S
C1815 C1817 1.419 . S
C1816 C1814 1.415 . S
C1816 C1821 1.425 . S
C1816 C1823 1.409 . S
C1817 H1809 0.930 . S
C1817 C1815 1.419 . S
C1817 C1818 1.362 . S
C1818 H1810 0.930 . S
C1818 C1817 1.362 . S
C1818 C1821 1.409 . S
C1819 H1811 0.930 . S
C1819 C1820 1.355 . S
C1819 C1821 1.415 . S
C1820 C1819 1.355 . S
C1820 C1822 1.419 . S
C1821 C1816 1.425 . S
C1821 C1818 1.409 . S
C1821 C1819 1.415 . S
C1822 H1812 0.930 . S
C1822 C1820 1.419 . S
C1822 C1823 1.362 . S
C1823 H1813 0.930 . S
C1823 C1816 1.409 . S
C1823 C1822 1.362 . S
H1824 C1830 0.930 . S
H1825 C1833 0.930 . S
H1826 C1834 0.930 . S
H1827 C1835 0.930 . S
H1828 C1838 0.930 . S
H1829 C1839 0.930 . S
C1830 H1824 0.930 . S
C1830 C1831 1.355 . S
C1830 C1832 1.415 . S
C1831 C1830 1.355 . S
C1831 C1833 1.419 . S
C1832 C1830 1.415 . S
C1832 C1837 1.425 . S
C1832 C1839 1.409 . S
C1833 H1825 0.930 . S
C1833 C1831 1.419 . S
C1833 C1834 1.362 . S
C1834 H1826 0.930 . S
C1834 C1833 1.362 . S
C1834 C1837 1.409 . S
C1835 H1827 0.930 . S
C1835 C1836 1.355 . S
C1835 C1837 1.415 . S
C1836 C1835 1.355 . S
C1836 C1838 1.419 . S
C1837 C1832 1.425 . S
C1837 C1834 1.409 . S
C1837 C1835 1.415 . S
C1838 H1828 0.930 . S
C1838 C1836 1.419 . S
C1838 C1839 1.362 . S
C1839 H1829 0.930 . S
C1839 C1832 1.409 . S
C1839 C1838 1.362 . S
H1840 C1846 0.930 . S
H1841 C1849 0.930 . S
H1842 C1850 0.930 . S
H1843 C1851 0.930 . S
H1844 C1854 0.930 . S
H1845 C1855 0.930 . S
C1846 H1840 0.930 . S
C1846 C1847 1.355 . S
C1846 C1848 1.415 . S
C1847 C1846 1.355 . S
C1847 C1849 1.419 . S
C1848 C1846 1.415 . S
C1848 C1853 1.425 . S
C1848 C1855 1.409 . S
C1849 H1841 0.930 . S
C1849 C1847 1.419 . S
C1849 C1850 1.362 . S
C1850 H1842 0.930 . S
C1850 C1849 1.362 . S
C1850 C1853 1.409 . S
C1851 H1843 0.930 . S
C1851 C1852 1.355 . S
C1851 C1853 1.415 . S
C1852 C1851 1.355 . S
C1852 C1854 1.419 . S
C1853 C1848 1.425 . S
C1853 C1850 1.409 . S
C1853 C1851 1.415 . S
C1854 H1844 0.930 . S
C1854 C1852 1.419 . S
C1854 C1855 1.362 . S
C1855 H1845 0.930 . S
C1855 C1848 1.409 . S
C1855 C1854 1.362 . S
H1856 C1862 0.930 . S
H1857 C1865 0.930 . S
H1858 C1866 0.930 . S
H1859 C1867 0.930 . S
H1860 C1870 0.930 . S
H1861 C1871 0.930 . S
C1862 H1856 0.930 . S
C1862 C1863 1.355 . S
C1862 C1864 1.415 . S
C1863 C1862 1.355 . S
C1863 C1865 1.419 . S
C1864 C1862 1.415 . S
C1864 C1869 1.425 . S
C1864 C1871 1.409 . S
C1865 H1857 0.930 . S
C1865 C1863 1.419 . S
C1865 C1866 1.362 . S
C1866 H1858 0.930 . S
C1866 C1865 1.362 . S
C1866 C1869 1.409 . S
C1867 H1859 0.930 . S
C1867 C1868 1.355 . S
C1867 C1869 1.415 . S
C1868 C1867 1.355 . S
C1868 C1870 1.419 . S
C1869 C1864 1.425 . S
C1869 C1866 1.409 . S
C1869 C1867 1.415 . S
C1870 H1860 0.930 . S
C1870 C1868 1.419 . S
C1870 C1871 1.362 . S
C1871 H1861 0.930 . S
C1871 C1864 1.409 . S
C1871 C1870 1.362 . S
H1872 C1878 0.930 . S
H1873 C1881 0.930 . S
H1874 C1882 0.930 . S
H1875 C1883 0.930 . S
H1876 C1886 0.930 . S
H1877 C1887 0.930 . S
C1878 H1872 0.930 . S
C1878 C1879 1.355 . S
C1878 C1880 1.415 . S
C1879 C1878 1.355 . S
C1879 C1881 1.419 . S
C1880 C1878 1.415 . S
C1880 C1885 1.425 . S
C1880 C1887 1.409 . S
C1881 H1873 0.930 . S
C1881 C1879 1.419 . S
C1881 C1882 1.362 . S
C1882 H1874 0.930 . S
C1882 C1881 1.362 . S
C1882 C1885 1.409 . S
C1883 H1875 0.930 . S
C1883 C1884 1.355 . S
C1883 C1885 1.415 . S
C1884 C1883 1.355 . S
C1884 C1886 1.419 . S
C1885 C1880 1.425 . S
C1885 C1882 1.409 . S
C1885 C1883 1.415 . S
C1886 H1876 0.930 . S
C1886 C1884 1.419 . S
C1886 C1887 1.362 . S
C1887 H1877 0.930 . S
C1887 C1880 1.409 . S
C1887 C1886 1.362 . S
H1888 C1894 0.930 . S
H1889 C1897 0.930 . S
H1890 C1898 0.930 . S
H1891 C1899 0.930 . S
H1892 C1902 0.930 . S
H1893 C1903 0.930 . S
C1894 H1888 0.930 . S
C1894 C1895 1.355 . S
C1894 C1896 1.415 . S
C1895 C1894 1.355 . S
C1895 C1897 1.419 . S
C1896 C1894 1.415 . S
C1896 C1901 1.425 . S
C1896 C1903 1.409 . S
C1897 H1889 0.930 . S
C1897 C1895 1.419 . S
C1897 C1898 1.362 . S
C1898 H1890 0.930 . S
C1898 C1897 1.362 . S
C1898 C1901 1.409 . S
C1899 H1891 0.930 . S
C1899 C1900 1.355 . S
C1899 C1901 1.415 . S
C1900 C1899 1.355 . S
C1900 C1902 1.419 . S
C1901 C1896 1.425 . S
C1901 C1898 1.409 . S
C1901 C1899 1.415 . S
C1902 H1892 0.930 . S
C1902 C1900 1.419 . S
C1902 C1903 1.362 . S
C1903 H1893 0.930 . S
C1903 C1896 1.409 . S
C1903 C1902 1.362 . S
H1904 C1910 0.930 . S
H1905 C1913 0.930 . S
H1906 C1914 0.930 . S
H1907 C1915 0.930 . S
H1908 C1918 0.930 . S
H1909 C1919 0.930 . S
C1910 H1904 0.930 . S
C1910 C1911 1.355 . S
C1910 C1912 1.415 . S
C1911 C1910 1.355 . S
C1911 C1913 1.419 . S
C1912 C1910 1.415 . S
C1912 C1917 1.425 . S
C1912 C1919 1.409 . S
C1913 H1905 0.930 . S
C1913 C1911 1.419 . S
C1913 C1914 1.362 . S
C1914 H1906 0.930 . S
C1914 C1913 1.362 . S
C1914 C1917 1.409 . S
C1915 H1907 0.930 . S
C1915 C1916 1.355 . S
C1915 C1917 1.415 . S
C1916 C1915 1.355 . S
C1916 C1918 1.419 . S
C1917 C1912 1.425 . S
C1917 C1914 1.409 . S
C1917 C1915 1.415 . S
C1918 H1908 0.930 . S
C1918 C1916 1.419 . S
C1918 C1919 1.362 . S
C1919 H1909 0.930 . S
C1919 C1912 1.409 . S
C1919 C1918 1.362 . S
C780 C498 1.579 . S
C775 C439 1.659 . S
C791 C401 1.843 . S
C796 C492 1.762 . S
C812 C460 1.869 . S
C807 C382 1.958 . S
C823 C420 1.846 . S
C828 C474 1.670 . S
C844 C512 2.015 . S
C839 C306 2.189 . S
C860 C599 1.713 . S
C855 C325 1.722 . S
C871 C344 2.149 . S
C876 C526 2.042 . S
C892 C594 1.508 . S
C887 C363 1.539 . S
C903 C230 2.323 . S
C908 C550 2.186 . S
C924 C605 1.760 . S
C919 C249 1.781 . S
C935 C268 2.235 . S
C940 C544 2.185 . S
C951 C287 1.393 . S
C956 C590 1.385 . S
C972 C646 1.430 . S
C967 C211 1.441 . S
C983 C173 1.912 . S
C988 C657 1.889 . S
C999 C154 1.649 . S
C1004 C642 1.638 . S
C1020 C651 1.770 . S
C1015 C192 1.790 . S
C1031 C78 1.747 . S
C1036 C696 1.673 . S
C1047 C97 1.098 . S
C1052 C755 1.114 . S
C1063 C116 1.858 . S
C1068 C712 1.690 . S
C1079 C135 1.515 . S
C1084 C750 1.486 . S
C1100 C714 1.899 . S
C1095 C2 2.011 . S
C1116 C761 1.029 . S
C1111 C21 1.014 . S
C1127 C40 1.860 . S
C1132 C690 1.714 . S
C1148 C746 1.280 . S
C1143 C59 1.330 . S
C1164 C482 1.608 . S
C1159 C6 1.687 . S
C1175 C30 1.200 . S
C1180 C486 1.154 . S
C1191 C49 1.440 . S
C1196 C506 1.306 . S
C1207 C68 0.857 1_545 S
C1212 C501 0.873 . S
C1223 C82 1.689 . S
C1228 C504 1.644 . S
C1244 C490 1.152 . S
C1239 C106 1.166 . S
C1255 C125 1.366 . S
C1260 C488 1.250 . S
C1276 C495 1.393 . S
C1271 C139 1.399 . S
C1292 C558 1.503 . S
C1287 C63 1.600 . S
C1303 C11 1.596 . S
C1308 C608 1.597 . S
C1324 C556 1.312 . S
C1319 C25 1.366 . S
C1340 C592 1.786 . S
C1335 C44 1.892 . S
C1351 C101 1.453 . S
C1356 C534 1.391 . S
C1372 C610 1.650 . S
C1367 C120 1.760 . S
C1388 C540 1.217 . S
C1383 C144 1.348 . S
C1404 C586 1.398 . S
C1399 C87 1.450 1_455 S
C1420 C578 1.449 . S
C1415 C163 1.450 . S
C1431 C182 1.315 . S
C1436 C602 1.286 . S
C1452 C538 1.421 . S
C1447 C158 1.419 . S
C1468 C564 1.551 1_556 S
C1463 C196 1.550 . S
C1479 C220 1.006 1_554 S
C1484 C542 0.981 . S
C1495 C215 1.639 . S
C1500 C596 1.586 . S
C1516 C553 1.628 . S
C1511 C177 1.663 . S
C1532 C547 1.305 . S
C1527 C201 1.255 . S
C1548 C630 1.910 . S
C1543 C234 1.956 . S
C1564 C662 1.463 . S
C1559 C258 1.459 . S
C1575 C277 1.626 . S
C1580 C616 1.605 . S
C1596 C660 1.047 . S
C1591 C296 1.073 . S
C1612 C648 1.855 . S
C1607 C310 1.891 . S
C1623 C334 1.327 . S
C1628 C644 1.264 . S
C1639 C353 1.578 . S
C1644 C654 1.652 . S
C1660 C638 1.452 . S
C1655 C367 1.586 . S
C1676 C703 1.441 . S
C1671 C291 1.440 . S
C1687 C239 1.478 . S
C1692 C764 1.457 . S
C1708 C698 1.151 . S
C1703 C253 1.191 . S
C1724 C748 1.650 . S
C1719 C272 1.678 . S
C1740 C694 1.240 . S
C1735 C329 1.300 . S
C1751 C348 1.463 . S
C1756 C766 1.496 . S
C1772 C709 1.161 . S
C1767 C372 1.200 . S
C1788 C742 1.212 . S
C1783 C315 1.290 . S
C1804 C734 1.572 . S
C1799 C391 1.582 . S
C1815 C410 1.646 . S
C1820 C758 1.566 . S
C1836 C700 1.685 . S
C1831 C386 1.706 . S
C1847 C424 2.055 . S
C1852 C720 1.851 . S
C1868 C682 1.328 . S
C1863 C448 1.326 . S
C1884 C752 1.751 . S
C1879 C443 1.799 . S
C1900 C668 1.635 . S
C1895 C405 1.717 . S
C1911 C429 1.294 . S
C1916 C706 1.194 . S
