# Generated by pormake.
# Topology ssa, (4,4)-cn, num edge types: 1
# Building blocks:
#     Node 0, Type 0, BuildingBlock: NAWXER_clean_sbu_0, # of connection points: 4
#     Node 1, Type 0, BuildingBlock: NAWXER_clean_sbu_0, # of connection points: 4
#     Node 2, Type 0, BuildingBlock: NAWXER_clean_sbu_0, # of connection points: 4
#     Node 3, Type 0, BuildingBlock: NAWXER_clean_sbu_0, # of connection points: 4
#     Node 4, Type 0, BuildingBlock: NAWXER_clean_sbu_0, # of connection points: 4
#     Node 5, Type 0, BuildingBlock: NAWXER_clean_sbu_0, # of connection points: 4
#     Node 6, Type 1, BuildingBlock: NAHDIM_clean_linker_0, # of connection points: 4
#     Node 7, Type 1, BuildingBlock: NAHDIM_clean_linker_0, # of connection points: 4
#     Node 8, Type 1, BuildingBlock: NAHDIM_clean_linker_0, # of connection points: 4
#     Node 9, Type 1, BuildingBlock: NAHDIM_clean_linker_0, # of connection points: 4
#     Node 10, Type 1, BuildingBlock: NAHDIM_clean_linker_0, # of connection points: 4
#     Node 11, Type 1, BuildingBlock: NAHDIM_clean_linker_0, # of connection points: 4
#     Edge 12, Type (0, 1), BuildingBlock: UVAHIK_clean_linker_0, # of connection points: 2
#     Edge 13, Type (0, 1), BuildingBlock: UVAHIK_clean_linker_0, # of connection points: 2
#     Edge 14, Type (0, 1), BuildingBlock: UVAHIK_clean_linker_0, # of connection points: 2
#     Edge 15, Type (0, 1), BuildingBlock: UVAHIK_clean_linker_0, # of connection points: 2
#     Edge 16, Type (0, 1), BuildingBlock: UVAHIK_clean_linker_0, # of connection points: 2
#     Edge 17, Type (0, 1), BuildingBlock: UVAHIK_clean_linker_0, # of connection points: 2
#     Edge 18, Type (0, 1), BuildingBlock: UVAHIK_clean_linker_0, # of connection points: 2
#     Edge 19, Type (0, 1), BuildingBlock: UVAHIK_clean_linker_0, # of connection points: 2
#     Edge 20, Type (0, 1), BuildingBlock: UVAHIK_clean_linker_0, # of connection points: 2
#     Edge 21, Type (0, 1), BuildingBlock: UVAHIK_clean_linker_0, # of connection points: 2
#     Edge 22, Type (0, 1), BuildingBlock: UVAHIK_clean_linker_0, # of connection points: 2
#     Edge 23, Type (0, 1), BuildingBlock: UVAHIK_clean_linker_0, # of connection points: 2
#     Edge 24, Type (0, 1), BuildingBlock: UVAHIK_clean_linker_0, # of connection points: 2
#     Edge 25, Type (0, 1), BuildingBlock: UVAHIK_clean_linker_0, # of connection points: 2
#     Edge 26, Type (0, 1), BuildingBlock: UVAHIK_clean_linker_0, # of connection points: 2
#     Edge 27, Type (0, 1), BuildingBlock: UVAHIK_clean_linker_0, # of connection points: 2
#     Edge 28, Type (0, 1), BuildingBlock: UVAHIK_clean_linker_0, # of connection points: 2
#     Edge 29, Type (0, 1), BuildingBlock: UVAHIK_clean_linker_0, # of connection points: 2
#     Edge 30, Type (0, 1), BuildingBlock: UVAHIK_clean_linker_0, # of connection points: 2
#     Edge 31, Type (0, 1), BuildingBlock: UVAHIK_clean_linker_0, # of connection points: 2
#     Edge 32, Type (0, 1), BuildingBlock: UVAHIK_clean_linker_0, # of connection points: 2
#     Edge 33, Type (0, 1), BuildingBlock: UVAHIK_clean_linker_0, # of connection points: 2
#     Edge 34, Type (0, 1), BuildingBlock: UVAHIK_clean_linker_0, # of connection points: 2
#     Edge 35, Type (0, 1), BuildingBlock: UVAHIK_clean_linker_0, # of connection points: 2
# Relax obj value: 0.028
# Max RMSD: 0.056
# Mean RMSD: 0.044
data_MOF--net-ssa--node1-NAWXER_clean_sbu_0--node2-NAHDIM_clean_linker_0--edge1-UVAHIK_clean_linker_0
_symmetry_space_group_name_H-M    P1
_symmetry_Int_Tables_number       1
_symmetry_cell_setting            triclinic
loop_
_symmetry_equiv_pos_as_xyz
'x, y, z'
_cell_length_a     73.43551
_cell_length_b     73.427729
_cell_length_c     62.698439
_cell_angle_alpha  89.803293
_cell_angle_beta   90.373741
_cell_angle_gamma 119.99191
loop_
_atom_site_label
_atom_site_type_symbol
_atom_site_fract_x
_atom_site_fract_y
_atom_site_fract_z
_atom_type_partial_charge
C0 C 0.01929 0.53172 0.03509 0.0
C1 C 0.98913 0.46818 0.99169 0.0
O2 O 0.00095 0.51578 0.03634 0.0
Zn3 Zn 0.00372 0.49995 0.0133 0.0
O4 O 0.03189 0.53245 0.0206 0.0
Zn5 Zn 0.03174 0.51318 0.9948 0.0
O6 O 0.03422 0.53003 0.96974 0.0
O7 O 0.00357 0.51705 0.9858 0.0
O8 O 0.00759 0.48206 0.98553 0.0
O9 O 0.98087 0.47203 0.00753 0.0
O10 O 0.02765 0.49379 0.02473 0.0
O11 O 0.05475 0.50858 0.00295 0.0
C12 C 0.0159 0.52777 0.97059 0.0
C13 C 0.04615 0.49776 0.01959 0.0
C14 C 0.49032 0.0087 0.54141 0.0
C15 C 0.52415 0.97705 0.50113 0.0
O16 O 0.48981 0.99146 0.54544 0.0
Zn17 Zn 0.50697 0.99238 0.52173 0.0
O18 O 0.5008 0.0198 0.52536 0.0
Zn19 Zn 0.51988 0.01847 0.50016 0.0
O20 O 0.50393 0.01767 0.47487 0.0
O21 O 0.48746 0.98947 0.49513 0.0
O22 O 0.52809 0.99493 0.49373 0.0
O23 O 0.51219 0.96922 0.51716 0.0
O24 O 0.53706 0.01822 0.53065 0.0
O25 O 0.54725 0.04282 0.50584 0.0
C26 C 0.48781 0.99986 0.47852 0.0
C27 C 0.55066 0.03633 0.52343 0.0
C28 C 0.48992 0.47717 0.98227 0.0
C29 C 0.52432 0.54018 0.02682 0.0
O30 O 0.49024 0.49443 0.97903 0.0
Zn31 Zn 0.50771 0.5094 0.00349 0.0
O32 O 0.50016 0.47547 0.99803 0.0
Zn33 Zn 0.51986 0.49436 0.02358 0.0
O34 O 0.50431 0.47781 0.04784 0.0
O35 O 0.48838 0.49219 0.03037 0.0
O36 O 0.52731 0.52529 0.03325 0.0
O37 O 0.51407 0.53796 0.00965 0.0
O38 O 0.53765 0.51404 0.99428 0.0
O39 O 0.54719 0.4976 0.01733 0.0
C40 C 0.48884 0.48094 0.04587 0.0
C41 C 0.55105 0.50889 0.00073 0.0
C42 C 0.03395 0.53445 0.50007 0.0
C43 C 0.00083 0.4691 0.54135 0.0
O44 O 0.04138 0.53029 0.51658 0.0
Zn45 Zn 0.01795 0.50209 0.52127 0.0
O46 O 0.01571 0.52083 0.49307 0.0
Zn47 Zn 0.99079 0.48997 0.50091 0.0
O48 O 0.968 0.49526 0.50793 0.0
O49 O 0.99376 0.50796 0.5317 0.0
O50 O 0.98926 0.46936 0.52606 0.0
O51 O 0.01907 0.48492 0.54424 0.0
O52 O 0.01893 0.48575 0.49355 0.0
O53 O 0.98923 0.47402 0.47551 0.0
C54 C 0.97575 0.50479 0.52544 0.0
C55 C 0.00733 0.47585 0.47748 0.0
C56 C 0.53583 0.99947 0.04593 0.0
C57 C 0.50499 0.03246 0.00199 0.0
O58 O 0.53787 0.01756 0.04849 0.0
Zn59 Zn 0.521 0.01678 0.02404 0.0
O60 O 0.52496 0.98808 0.03017 0.0
Zn61 Zn 0.50713 0.98961 0.00397 0.0
O62 O 0.52247 0.9884 0.97938 0.0
O63 O 0.53969 0.01803 0.99744 0.0
O64 O 0.50045 0.0141 0.99548 0.0
O65 O 0.51695 0.04044 0.01815 0.0
O66 O 0.48968 0.99288 0.03242 0.0
O67 O 0.47936 0.96626 0.01004 0.0
C68 C 0.53865 0.00647 0.98168 0.0
C69 C 0.47565 0.97457 0.02597 0.0
C70 C 0.53643 0.5262 0.54259 0.0
C71 C 0.47282 0.49399 0.49857 0.0
O72 O 0.52058 0.52872 0.54421 0.0
Zn73 Zn 0.50455 0.51083 0.52047 0.0
O74 O 0.53698 0.51466 0.5276 0.0
Zn75 Zn 0.51779 0.4963 0.50151 0.0
O76 O 0.53447 0.51102 0.4766 0.0
O77 O 0.52176 0.52855 0.4934 0.0
O78 O 0.48654 0.48912 0.49268 0.0
O79 O 0.47688 0.50662 0.51406 0.0
O80 O 0.49755 0.47991 0.5306 0.0
O81 O 0.51326 0.46872 0.50862 0.0
C82 C 0.53234 0.52712 0.47798 0.0
C83 C 0.50171 0.46563 0.52482 0.0
C84 C 0.10023 0.35972 0.38904 0.0
C85 C 0.10912 0.37965 0.37541 0.0
C86 C 0.12498 0.37926 0.34188 0.0
C87 C 0.14144 0.40007 0.3402 0.0
C88 C 0.15962 0.40494 0.32862 0.0
C89 C 0.16148 0.38856 0.3189 0.0
C90 C 0.1446 0.36756 0.32021 0.0
C91 C 0.12635 0.36326 0.33136 0.0
C92 C 0.17702 0.42755 0.32727 0.0
C93 C 0.14608 0.34959 0.31046 0.0
C94 C 0.31026 0.41683 0.3926 0.0
C95 C 0.29135 0.40583 0.37861 0.0
C96 C 0.26689 0.41327 0.3589 0.0
C97 C 0.25511 0.3932 0.34968 0.0
C98 C 0.23898 0.38891 0.33491 0.0
C99 C 0.23489 0.40512 0.32887 0.0
C100 C 0.24699 0.42541 0.33786 0.0
C101 C 0.26266 0.42912 0.35295 0.0
C102 C 0.22619 0.36701 0.32586 0.0
C103 C 0.24331 0.44318 0.33159 0.0
C104 C 0.28459 0.41005 0.196 0.0
C105 C 0.26924 0.39027 0.20368 0.0
C106 C 0.25044 0.38742 0.21246 0.0
C107 C 0.24708 0.40476 0.21392 0.0
C108 C 0.26238 0.4246 0.20596 0.0
C109 C 0.28084 0.4269 0.19691 0.0
C110 C 0.2342 0.3659 0.22028 0.0
C111 C 0.25934 0.44343 0.20724 0.0
C112 C 0.09239 0.38155 0.17537 0.0
C113 C 0.11476 0.39934 0.17088 0.0
C114 C 0.14373 0.39293 0.17745 0.0
C115 C 0.14607 0.37537 0.18063 0.0
C116 C 0.16203 0.37647 0.19397 0.0
C117 C 0.17622 0.39577 0.20388 0.0
C118 C 0.17462 0.41389 0.19973 0.0
C119 C 0.15833 0.41225 0.18659 0.0
C120 C 0.16342 0.35692 0.19788 0.0
C121 C 0.18995 0.4349 0.20942 0.0
C122 C 0.18155 0.39319 0.30863 0.0
C123 C 0.19829 0.39652 0.32195 0.0
C124 C 0.21764 0.40081 0.3136 0.0
C125 C 0.22036 0.40139 0.29124 0.0
C126 C 0.23951 0.40535 0.28227 0.0
C127 C 0.24193 0.40557 0.26026 0.0
C128 C 0.22539 0.40213 0.24635 0.0
C129 C 0.22765 0.40217 0.22395 0.0
C130 C 0.21127 0.39975 0.21059 0.0
C131 C 0.19247 0.397 0.21898 0.0
C132 C 0.18958 0.39603 0.24134 0.0
C133 C 0.1706 0.39255 0.25031 0.0
C134 C 0.16795 0.39171 0.27233 0.0
C135 C 0.18415 0.39425 0.28623 0.0
C136 C 0.20354 0.39807 0.27753 0.0
C137 C 0.20616 0.39871 0.25506 0.0
C138 C 0.3199 0.40121 0.21184 0.0
C139 C 0.31221 0.40105 0.18899 0.0
O140 O 0.10792 0.37424 0.35407 0.0
O141 O 0.12721 0.39076 0.16564 0.0
O142 O 0.30318 0.41371 0.18766 0.0
O143 O 0.28231 0.41798 0.37361 0.0
H144 H 0.12585 0.38972 0.38046 0.0
H145 H 0.10969 0.35191 0.38662 0.0
H146 H 0.08366 0.34847 0.38454 0.0
H147 H 0.10094 0.36371 0.40622 0.0
H148 H 0.14007 0.41244 0.34808 0.0
H149 H 0.11343 0.34725 0.33272 0.0
H150 H 0.18992 0.42996 0.33829 0.0
H151 H 0.17156 0.43864 0.33184 0.0
H152 H 0.18353 0.43141 0.31088 0.0
H153 H 0.13251 0.33404 0.31479 0.0
H154 H 0.1608 0.35011 0.31575 0.0
H155 H 0.14661 0.35107 0.29283 0.0
H156 H 0.2797 0.38957 0.38381 0.0
H157 H 0.30584 0.40747 0.40785 0.0
H158 H 0.30987 0.43067 0.3998 0.0
H159 H 0.33475 0.42012 0.37321 0.0
H160 H 0.2582 0.38075 0.35412 0.0
H161 H 0.27186 0.44455 0.36009 0.0
H162 H 0.20919 0.36106 0.32843 0.0
H163 H 0.23042 0.35581 0.33317 0.0
H164 H 0.22873 0.36743 0.30839 0.0
H165 H 0.2555 0.45851 0.33826 0.0
H166 H 0.22772 0.43981 0.33749 0.0
H167 H 0.24316 0.4445 0.31395 0.0
H168 H 0.3005 0.3847 0.18426 0.0
H169 H 0.27174 0.37698 0.20289 0.0
H170 H 0.2927 0.44206 0.19083 0.0
H171 H 0.23311 0.36616 0.23791 0.0
H172 H 0.2381 0.3536 0.21587 0.0
H173 H 0.21849 0.36151 0.21359 0.0
H174 H 0.27344 0.45812 0.20186 0.0
H175 H 0.25572 0.44562 0.22389 0.0
H176 H 0.24576 0.44071 0.1971 0.0
H177 H 0.12034 0.40858 0.18595 0.0
H178 H 0.08204 0.38808 0.17928 0.0
H179 H 0.09256 0.37214 0.18921 0.0
H180 H 0.08574 0.3709 0.1614 0.0
H181 H 0.13489 0.36061 0.17321 0.0
H182 H 0.15698 0.42605 0.18344 0.0
H183 H 0.1625 0.3536 0.21526 0.0
H184 H 0.17883 0.35948 0.19225 0.0
H185 H 0.1507 0.34294 0.18959 0.0
H186 H 0.18782 0.44784 0.20298 0.0
H187 H 0.20634 0.43864 0.20638 0.0
H188 H 0.18776 0.43419 0.22696 0.0
H189 H 0.19626 0.39587 0.33912 0.0
H190 H 0.2528 0.40818 0.29217 0.0
H191 H 0.25698 0.40858 0.25428 0.0
H192 H 0.21324 0.40019 0.19342 0.0
H193 H 0.15752 0.39037 0.24041 0.0
H194 H 0.15302 0.38904 0.27833 0.0
H195 H 0.3272 0.39115 0.21302 0.0
H196 H 0.30656 0.39496 0.22316 0.0
H197 H 0.33164 0.41749 0.21674 0.0
C198 C 0.87379 0.25093 0.89916 0.0
C199 C 0.88595 0.26792 0.88236 0.0
C200 C 0.86207 0.25241 0.8515 0.0
C201 C 0.86718 0.23681 0.84671 0.0
C202 C 0.85554 0.22119 0.83149 0.0
C203 C 0.83837 0.2211 0.82099 0.0
C204 C 0.83342 0.23698 0.82555 0.0
C205 C 0.84552 0.25257 0.84057 0.0
C206 C 0.86139 0.20463 0.82679 0.0
C207 C 0.81506 0.23725 0.81489 0.0
C208 C 0.74572 0.09201 0.88459 0.0
C209 C 0.73445 0.10115 0.87161 0.0
C210 C 0.74955 0.11465 0.83709 0.0
C211 C 0.74682 0.13204 0.83423 0.0
C212 C 0.76104 0.14929 0.82194 0.0
C213 C 0.77855 0.14921 0.81268 0.0
C214 C 0.78103 0.13138 0.8152 0.0
C215 C 0.76619 0.1141 0.82709 0.0
C216 C 0.75764 0.16782 0.81933 0.0
C217 C 0.79972 0.13087 0.80603 0.0
C218 C 0.75762 0.12855 0.67062 0.0
C219 C 0.7515 0.14166 0.68068 0.0
C220 C 0.76566 0.1583 0.69377 0.0
C221 C 0.78616 0.16153 0.69718 0.0
C222 C 0.79247 0.14861 0.68658 0.0
C223 C 0.77817 0.13248 0.67313 0.0
C224 C 0.75865 0.17232 0.70404 0.0
C225 C 0.8142 0.15162 0.68971 0.0
C226 C 0.92251 0.3144 0.65792 0.0
C227 C 0.91236 0.29494 0.67113 0.0
C228 C 0.87782 0.27064 0.68633 0.0
C229 C 0.85814 0.26789 0.69158 0.0
C230 C 0.84279 0.24933 0.70132 0.0
C231 C 0.84724 0.23307 0.70582 0.0
C232 C 0.86709 0.23565 0.70044 0.0
C233 C 0.88223 0.25445 0.69082 0.0
C234 C 0.82182 0.24712 0.70691 0.0
C235 C 0.87227 0.21854 0.70493 0.0
C236 C 0.82492 0.20382 0.80606 0.0
C237 C 0.80924 0.185 0.81483 0.0
C238 C 0.79507 0.16841 0.80189 0.0
C239 C 0.79653 0.17059 0.77943 0.0
C240 C 0.78237 0.1544 0.76589 0.0
C241 C 0.78395 0.15673 0.74382 0.0
C242 C 0.79951 0.1755 0.73443 0.0
C243 C 0.80093 0.17823 0.71201 0.0
C244 C 0.81666 0.19708 0.70326 0.0
C245 C 0.83115 0.2134 0.71626 0.0
C246 C 0.82995 0.211 0.73869 0.0
C247 C 0.84423 0.22714 0.75225 0.0
C248 C 0.84274 0.22475 0.7743 0.0
C249 C 0.82688 0.20618 0.78366 0.0
C250 C 0.81253 0.18955 0.77031 0.0
C251 C 0.81402 0.192 0.74779 0.0
C252 C 0.72023 0.07582 0.6638 0.0
C253 C 0.72333 0.09801 0.66331 0.0
O254 O 0.87238 0.26745 0.86659 0.0
O255 O 0.89194 0.28904 0.67693 0.0
O256 O 0.7441 0.1121 0.65829 0.0
O257 O 0.73664 0.09858 0.85006 0.0
H258 H 0.89822 0.26528 0.87509 0.0
H259 H 0.86631 0.23504 0.89188 0.0
H260 H 0.86129 0.25322 0.90637 0.0
H261 H 0.8846 0.25154 0.91198 0.0
H262 H 0.88012 0.23659 0.85481 0.0
H263 H 0.84177 0.26472 0.84428 0.0
H264 H 0.84873 0.18912 0.83249 0.0
H265 H 0.87639 0.20807 0.83464 0.0
H266 H 0.86288 0.20339 0.80931 0.0
H267 H 0.81245 0.24986 0.82125 0.0
H268 H 0.8005 0.22186 0.81712 0.0
H269 H 0.81792 0.23974 0.79748 0.0
H270 H 0.74218 0.1182 0.87569 0.0
H271 H 0.74413 0.09392 0.90194 0.0
H272 H 0.76272 0.10045 0.88061 0.0
H273 H 0.73912 0.07505 0.88098 0.0
H274 H 0.73366 0.13216 0.84183 0.0
H275 H 0.76805 0.10049 0.82942 0.0
H276 H 0.75983 0.17301 0.80242 0.0
H277 H 0.76946 0.18116 0.82906 0.0
H278 H 0.74171 0.1641 0.82453 0.0
H279 H 0.80016 0.11651 0.8108 0.0
H280 H 0.81452 0.1449 0.81139 0.0
H281 H 0.79918 0.13141 0.78837 0.0
H282 H 0.71956 0.10122 0.67959 0.0
H283 H 0.73575 0.13899 0.67814 0.0
H284 H 0.78277 0.1224 0.66502 0.0
H285 H 0.75677 0.1692 0.72145 0.0
H286 H 0.74344 0.16965 0.69741 0.0
H287 H 0.77073 0.18911 0.7018 0.0
H288 H 0.816 0.13906 0.68188 0.0
H289 H 0.81771 0.15183 0.70699 0.0
H290 H 0.82602 0.16702 0.68294 0.0
H291 H 0.92202 0.29455 0.68473 0.0
H292 H 0.93595 0.32627 0.66799 0.0
H293 H 0.91278 0.32226 0.65977 0.0
H294 H 0.92702 0.30399 0.62847 0.0
H295 H 0.85487 0.28044 0.68804 0.0
H296 H 0.8974 0.25635 0.68683 0.0
H297 H 0.81907 0.24436 0.72432 0.0
H298 H 0.80903 0.23326 0.69857 0.0
H299 H 0.82084 0.26127 0.70249 0.0
H300 H 0.88828 0.2228 0.69947 0.0
H301 H 0.86063 0.20379 0.69684 0.0
H302 H 0.87118 0.2153 0.72232 0.0
H303 H 0.80784 0.18334 0.83204 0.0
H304 H 0.7699 0.13972 0.77221 0.0
H305 H 0.7727 0.14365 0.73421 0.0
H306 H 0.81761 0.19909 0.68607 0.0
H307 H 0.85668 0.24184 0.74595 0.0
H308 H 0.85415 0.2377 0.78395 0.0
H309 H 0.70379 0.06419 0.66821 0.0
H310 H 0.73094 0.075 0.67587 0.0
H311 H 0.72376 0.07157 0.64798 0.0
C312 C 0.65032 0.73634 0.39007 0.0
C313 C 0.63072 0.72545 0.37587 0.0
C314 C 0.63141 0.74179 0.34215 0.0
C315 C 0.61045 0.73681 0.33971 0.0
C316 C 0.60534 0.74995 0.32793 0.0
C317 C 0.62163 0.76865 0.31878 0.0
C318 C 0.64278 0.77335 0.32074 0.0
C319 C 0.64735 0.75958 0.3321 0.0
C320 C 0.58259 0.74411 0.32576 0.0
C321 C 0.6606 0.79326 0.31149 0.0
C322 C 0.59811 0.8928 0.39069 0.0
C323 C 0.60773 0.88408 0.37603 0.0
C324 C 0.59967 0.85087 0.35919 0.0
C325 C 0.61856 0.85898 0.34772 0.0
C326 C 0.62171 0.84644 0.33303 0.0
C327 C 0.6054 0.82557 0.32918 0.0
C328 C 0.58627 0.81747 0.3405 0.0
C329 C 0.58381 0.83016 0.35557 0.0
C330 C 0.64256 0.85548 0.32175 0.0
C331 C 0.56844 0.79537 0.33679 0.0
C332 C 0.59617 0.8687 0.19472 0.0
C333 C 0.61552 0.87382 0.20429 0.0
C334 C 0.61861 0.85818 0.21371 0.0
C335 C 0.6018 0.83712 0.21424 0.0
C336 C 0.58223 0.832 0.20486 0.0
C337 C 0.57979 0.84785 0.195 0.0
C338 C 0.63994 0.86418 0.22293 0.0
C339 C 0.56389 0.8098 0.20522 0.0
C340 C 0.64244 0.72304 0.16938 0.0
C341 C 0.61998 0.71911 0.16739 0.0
C342 C 0.61816 0.7504 0.17483 0.0
C343 C 0.63451 0.77103 0.17761 0.0
C344 C 0.63269 0.78449 0.19219 0.0
C345 C 0.61373 0.77724 0.20365 0.0
C346 C 0.59682 0.75655 0.20018 0.0
C347 C 0.59935 0.74324 0.18599 0.0
C348 C 0.65108 0.80637 0.19547 0.0
C349 C 0.57606 0.74849 0.2114 0.0
C350 C 0.61666 0.78397 0.30859 0.0
C351 C 0.61337 0.79722 0.32201 0.0
C352 C 0.60854 0.81203 0.31379 0.0
C353 C 0.60702 0.81384 0.29146 0.0
C354 C 0.60193 0.82837 0.28261 0.0
C355 C 0.60109 0.83048 0.26062 0.0
C356 C 0.60512 0.81801 0.24661 0.0
C357 C 0.60483 0.82041 0.22423 0.0
C358 C 0.60779 0.80696 0.21078 0.0
C359 C 0.61146 0.79136 0.219 0.0
C360 C 0.61276 0.78936 0.24135 0.0
C361 C 0.6173 0.77443 0.25021 0.0
C362 C 0.6184 0.7725 0.27222 0.0
C363 C 0.61526 0.78558 0.28621 0.0
C364 C 0.61058 0.8007 0.27764 0.0
C365 C 0.60947 0.80267 0.25518 0.0
C366 C 0.59961 0.9159 0.16911 0.0
C367 C 0.60596 0.90485 0.18489 0.0
O368 O 0.6366 0.72997 0.35468 0.0
O369 O 0.62071 0.7376 0.16119 0.0
O370 O 0.5927 0.88321 0.18482 0.0
O371 O 0.59619 0.86239 0.37385 0.0
H372 H 0.62051 0.73203 0.38054 0.0
H373 H 0.65811 0.75364 0.38781 0.0
H374 H 0.66173 0.73116 0.38597 0.0
H375 H 0.64593 0.73277 0.40713 0.0
H376 H 0.59815 0.72274 0.34723 0.0
H377 H 0.66348 0.76316 0.33403 0.0
H378 H 0.57963 0.75465 0.336 0.0
H379 H 0.57173 0.7276 0.33067 0.0
H380 H 0.57896 0.74626 0.30903 0.0
H381 H 0.67623 0.79525 0.31559 0.0
H382 H 0.65989 0.80712 0.31746 0.0
H383 H 0.65903 0.79302 0.29387 0.0
H384 H 0.62483 0.89021 0.3788 0.0
H385 H 0.6097 0.90003 0.40423 0.0
H386 H 0.58615 0.87919 0.40047 0.0
H387 H 0.59011 0.91055 0.37051 0.0
H388 H 0.63105 0.87497 0.35037 0.0
H389 H 0.5693 0.82402 0.36446 0.0
H390 H 0.64871 0.84442 0.32278 0.0
H391 H 0.6545 0.87087 0.32852 0.0
H392 H 0.64039 0.85775 0.30461 0.0
H393 H 0.55359 0.79259 0.34427 0.0
H394 H 0.57271 0.78407 0.34372 0.0
H395 H 0.56567 0.79207 0.31944 0.0
H396 H 0.60951 0.91164 0.20129 0.0
H397 H 0.62835 0.8899 0.20423 0.0
H398 H 0.56493 0.84404 0.18756 0.0
H399 H 0.63896 0.86319 0.24058 0.0
H400 H 0.65209 0.88043 0.21847 0.0
H401 H 0.64507 0.85311 0.21738 0.0
H402 H 0.54906 0.80891 0.19968 0.0
H403 H 0.56154 0.80324 0.22161 0.0
H404 H 0.56728 0.79975 0.19469 0.0
H405 H 0.61244 0.71401 0.18335 0.0
H406 H 0.64231 0.70854 0.17475 0.0
H407 H 0.65133 0.73559 0.18133 0.0
H408 H 0.65066 0.7281 0.15382 0.0
H409 H 0.64891 0.77636 0.16872 0.0
H410 H 0.58663 0.72732 0.18336 0.0
H411 H 0.65454 0.80959 0.21276 0.0
H412 H 0.64705 0.81805 0.18911 0.0
H413 H 0.66548 0.8087 0.18731 0.0
H414 H 0.56365 0.73331 0.20466 0.0
H415 H 0.57069 0.76017 0.21026 0.0
H416 H 0.57802 0.74611 0.22857 0.0
H417 H 0.61463 0.796 0.33915 0.0
H418 H 0.59868 0.8384 0.2926 0.0
H419 H 0.59723 0.84203 0.25473 0.0
H420 H 0.60721 0.80867 0.19362 0.0
H421 H 0.62009 0.76408 0.24023 0.0
H422 H 0.62184 0.76067 0.27813 0.0
H423 H 0.62463 0.92894 0.14753 0.0
H424 H 0.59514 0.92581 0.17903 0.0
H425 H 0.58296 0.90441 0.16412 0.0
C426 C 0.76646 0.61185 0.90493 0.0
C427 C 0.74901 0.60675 0.88847 0.0
C428 C 0.76437 0.59966 0.85689 0.0
C429 C 0.77927 0.62068 0.85216 0.0
C430 C 0.7946 0.62551 0.83647 0.0
C431 C 0.79518 0.60903 0.82544 0.0
C432 C 0.78002 0.58789 0.82995 0.0
C433 C 0.76467 0.58353 0.84545 0.0
C434 C 0.81035 0.64823 0.83183 0.0
C435 C 0.78029 0.56988 0.81873 0.0
C436 C 0.92973 0.65151 0.88559 0.0
C437 C 0.92032 0.63202 0.87129 0.0
C438 C 0.90459 0.63361 0.83785 0.0
C439 C 0.88795 0.61293 0.83571 0.0
C440 C 0.86981 0.60854 0.82407 0.0
C441 C 0.86821 0.62529 0.81473 0.0
C442 C 0.88527 0.64614 0.81648 0.0
C443 C 0.90347 0.64996 0.82769 0.0
C444 C 0.85217 0.58607 0.8222 0.0
C445 C 0.88402 0.66448 0.80719 0.0
C446 C 0.8818 0.62065 0.67125 0.0
C447 C 0.86926 0.60214 0.6827 0.0
C448 C 0.85378 0.60074 0.6967 0.0
C449 C 0.85124 0.61848 0.69969 0.0
C450 C 0.86372 0.63707 0.68785 0.0
C451 C 0.87863 0.63776 0.67346 0.0
C452 C 0.84017 0.58032 0.70829 0.0
C453 C 0.86151 0.65629 0.69057 0.0
C454 C 0.70674 0.61176 0.70889 0.0
C455 C 0.71456 0.6124 0.68612 0.0
C456 C 0.74269 0.60396 0.69307 0.0
C457 C 0.7467 0.58728 0.694 0.0
C458 C 0.76542 0.58985 0.70291 0.0
C459 C 0.78074 0.60982 0.71066 0.0
C460 C 0.77711 0.627 0.70917 0.0
C461 C 0.75801 0.62385 0.70062 0.0
C462 C 0.76869 0.57116 0.70425 0.0
C463 C 0.79337 0.64867 0.71669 0.0
C464 C 0.81225 0.61381 0.80997 0.0
C465 C 0.83164 0.61775 0.81811 0.0
C466 C 0.84813 0.62115 0.80461 0.0
C467 C 0.8452 0.62043 0.78224 0.0
C468 C 0.86114 0.62304 0.76815 0.0
C469 C 0.85808 0.6223 0.74616 0.0
C470 C 0.83889 0.61874 0.7374 0.0
C471 C 0.83545 0.61749 0.71508 0.0
C472 C 0.81645 0.61472 0.70694 0.0
C473 C 0.80048 0.61268 0.72048 0.0
C474 C 0.80332 0.61307 0.74285 0.0
C475 C 0.78727 0.61017 0.75696 0.0
C476 C 0.79018 0.61051 0.77894 0.0
C477 C 0.80925 0.61375 0.78766 0.0
C478 C 0.82573 0.61689 0.77376 0.0
C479 C 0.82267 0.61629 0.75132 0.0
C480 C 0.93377 0.63942 0.66434 0.0
C481 C 0.91302 0.61853 0.66401 0.0
O482 O 0.74963 0.59413 0.87241 0.0
O483 O 0.72389 0.60003 0.6848 0.0
O484 O 0.89698 0.62225 0.65792 0.0
O485 O 0.9216 0.63817 0.85017 0.0
H486 H 0.75105 0.62159 0.88148 0.0
H487 H 0.78216 0.62075 0.89741 0.0
H488 H 0.76478 0.59715 0.91189 0.0
H489 H 0.76576 0.62169 0.91797 0.0
H490 H 0.77916 0.63342 0.86065 0.0
H491 H 0.75307 0.56739 0.84912 0.0
H492 H 0.82622 0.65166 0.83707 0.0
H493 H 0.8065 0.65923 0.84011 0.0
H494 H 0.81104 0.65122 0.81439 0.0
H495 H 0.76825 0.55433 0.82505 0.0
H496 H 0.79602 0.57133 0.82047 0.0
H497 H 0.77731 0.57045 0.80143 0.0
H498 H 0.90355 0.62218 0.87617 0.0
H499 H 0.92901 0.64692 0.9026 0.0
H500 H 0.92062 0.65977 0.88365 0.0
H501 H 0.94635 0.6626 0.8813 0.0
H502 H 0.88914 0.60027 0.8433 0.0
H503 H 0.91652 0.66587 0.8294 0.0
H504 H 0.84632 0.58251 0.80549 0.0
H505 H 0.83889 0.58378 0.8324 0.0
H506 H 0.85714 0.57469 0.82731 0.0
H507 H 0.89785 0.67984 0.81162 0.0
H508 H 0.86954 0.66417 0.81278 0.0
H509 H 0.88313 0.66325 0.78955 0.0
H510 H 0.91035 0.61198 0.6805 0.0
H511 H 0.8715 0.58876 0.68048 0.0
H512 H 0.88832 0.6519 0.66433 0.0
H513 H 0.84469 0.58221 0.7254 0.0
H514 H 0.84185 0.5672 0.70172 0.0
H515 H 0.82337 0.576 0.70729 0.0
H516 H 0.87396 0.67018 0.68202 0.0
H517 H 0.86221 0.66022 0.70776 0.0
H518 H 0.84597 0.65296 0.68432 0.0
H519 H 0.72608 0.62889 0.68168 0.0
H520 H 0.6993 0.62167 0.71016 0.0
H521 H 0.72006 0.61791 0.72039 0.0
H522 H 0.69509 0.59535 0.71346 0.0
H523 H 0.73485 0.57203 0.68804 0.0
H524 H 0.75529 0.63701 0.69985 0.0
H525 H 0.77294 0.56928 0.72082 0.0
H526 H 0.78195 0.57383 0.6938 0.0
H527 H 0.75449 0.55633 0.69926 0.0
H528 H 0.78932 0.66083 0.71203 0.0
H529 H 0.80902 0.65305 0.71003 0.0
H530 H 0.79469 0.64867 0.73433 0.0
H531 H 0.83386 0.61797 0.83526 0.0
H532 H 0.87617 0.62564 0.77399 0.0
H533 H 0.87096 0.62451 0.73611 0.0
H534 H 0.81398 0.61396 0.68981 0.0
H535 H 0.77221 0.6075 0.75117 0.0
H536 H 0.77728 0.60821 0.78902 0.0
H537 H 0.93734 0.64678 0.64826 0.0
H538 H 0.94687 0.63695 0.66955 0.0
H539 H 0.93269 0.65039 0.67574 0.0
C540 C 0.15091 0.74966 0.40309 0.0
C541 C 0.1377 0.73253 0.3867 0.0
C542 C 0.16023 0.74764 0.35512 0.0
C543 C 0.15508 0.76335 0.35076 0.0
C544 C 0.16647 0.77915 0.33566 0.0
C545 C 0.1834 0.77935 0.32483 0.0
C546 C 0.18827 0.76327 0.3288 0.0
C547 C 0.17643 0.74749 0.34372 0.0
C548 C 0.16063 0.79585 0.33154 0.0
C549 C 0.20635 0.76305 0.31771 0.0
C550 C 0.27776 0.92282 0.37589 0.0
C551 C 0.28724 0.90886 0.37114 0.0
C552 C 0.2731 0.8886 0.33912 0.0
C553 C 0.27691 0.87203 0.33567 0.0
C554 C 0.26191 0.85362 0.32529 0.0
C555 C 0.24275 0.85193 0.31831 0.0
C556 C 0.23894 0.86878 0.32177 0.0
C557 C 0.2543 0.88705 0.33203 0.0
C558 C 0.26651 0.83601 0.32174 0.0
C559 C 0.21865 0.86746 0.31464 0.0
C560 C 0.27176 0.87365 0.18041 0.0
C561 C 0.27289 0.8561 0.18753 0.0
C562 C 0.25633 0.84003 0.19908 0.0
C563 C 0.23813 0.84138 0.20328 0.0
C564 C 0.23645 0.85845 0.19506 0.0
C565 C 0.2533 0.87435 0.18358 0.0
C566 C 0.25847 0.82181 0.20721 0.0
C567 C 0.21714 0.86018 0.19901 0.0
C568 C 0.09651 0.70066 0.20173 0.0
C569 C 0.10573 0.70826 0.17942 0.0
C570 C 0.14201 0.73519 0.18924 0.0
C571 C 0.16226 0.73833 0.19202 0.0
C572 C 0.17806 0.75644 0.20208 0.0
C573 C 0.17354 0.77201 0.20917 0.0
C574 C 0.15323 0.76926 0.20585 0.0
C575 C 0.1376 0.7508 0.19604 0.0
C576 C 0.19954 0.75883 0.20523 0.0
C577 C 0.14803 0.78579 0.21279 0.0
C578 C 0.19689 0.79708 0.3104 0.0
C579 C 0.21264 0.81562 0.31974 0.0
C580 C 0.22671 0.83261 0.30726 0.0
C581 C 0.22537 0.83106 0.28478 0.0
C582 C 0.23985 0.84752 0.27176 0.0
C583 C 0.23858 0.84575 0.24966 0.0
C584 C 0.22263 0.82756 0.23969 0.0
C585 C 0.22146 0.82548 0.21723 0.0
C586 C 0.20508 0.80746 0.2078 0.0
C587 C 0.19003 0.79104 0.22026 0.0
C588 C 0.19136 0.79251 0.24279 0.0
C589 C 0.177 0.77596 0.25584 0.0
C590 C 0.17868 0.77745 0.27798 0.0
C591 C 0.19477 0.79554 0.28793 0.0
C592 C 0.20921 0.81254 0.27509 0.0
C593 C 0.20765 0.81092 0.2525 0.0
C594 C 0.3152 0.91851 0.19026 0.0
C595 C 0.30907 0.89902 0.17651 0.0
O596 O 0.15031 0.73257 0.37029 0.0
O597 O 0.12739 0.71689 0.18001 0.0
O598 O 0.28814 0.89007 0.17043 0.0
O599 O 0.28762 0.90613 0.34934 0.0
H600 H 0.12526 0.73537 0.38004 0.0
H601 H 0.15814 0.76548 0.39566 0.0
H602 H 0.16367 0.74727 0.40961 0.0
H603 H 0.14086 0.74934 0.41643 0.0
H604 H 0.14236 0.76354 0.35914 0.0
H605 H 0.18019 0.73525 0.34705 0.0
H606 H 0.1733 0.81118 0.33769 0.0
H607 H 0.14564 0.79219 0.33935 0.0
H608 H 0.15914 0.79763 0.31412 0.0
H609 H 0.20877 0.75007 0.3234 0.0
H610 H 0.22107 0.77824 0.32036 0.0
H611 H 0.20332 0.76125 0.30026 0.0
H612 H 0.27711 0.89336 0.37901 0.0
H613 H 0.27837 0.92591 0.39329 0.0
H614 H 0.26103 0.91481 0.37077 0.0
H615 H 0.28638 0.93806 0.36729 0.0
H616 H 0.29162 0.87354 0.34121 0.0
H617 H 0.25166 0.90013 0.33462 0.0
H618 H 0.26502 0.83202 0.30451 0.0
H619 H 0.2548 0.82174 0.33039 0.0
H620 H 0.28251 0.84013 0.32731 0.0
H621 H 0.21762 0.88143 0.3196 0.0
H622 H 0.20506 0.85313 0.32137 0.0
H623 H 0.21734 0.86615 0.297 0.0
H624 H 0.31173 0.88826 0.18691 0.0
H625 H 0.28667 0.85488 0.1841 0.0
H626 H 0.25241 0.88776 0.17763 0.0
H627 H 0.25816 0.8216 0.22491 0.0
H628 H 0.27327 0.82265 0.2019 0.0
H629 H 0.24496 0.80677 0.20156 0.0
H630 H 0.21791 0.87402 0.19087 0.0
H631 H 0.21533 0.86152 0.21641 0.0
H632 H 0.20293 0.84572 0.19333 0.0
H633 H 0.10179 0.72022 0.17364 0.0
H634 H 0.07915 0.69361 0.20133 0.0
H635 H 0.10294 0.71399 0.21314 0.0
H636 H 0.10041 0.68873 0.20769 0.0
H637 H 0.16554 0.72628 0.18657 0.0
H638 H 0.12207 0.74875 0.19375 0.0
H639 H 0.20459 0.76266 0.22215 0.0
H640 H 0.21111 0.77206 0.19529 0.0
H641 H 0.1999 0.74439 0.20075 0.0
H642 H 0.13213 0.78218 0.20742 0.0
H643 H 0.15983 0.80139 0.20637 0.0
H644 H 0.14874 0.78696 0.23046 0.0
H645 H 0.21405 0.81679 0.33699 0.0
H646 H 0.25246 0.86189 0.27852 0.0
H647 H 0.25026 0.85887 0.24048 0.0
H648 H 0.20431 0.80598 0.19056 0.0
H649 H 0.16436 0.76161 0.24908 0.0
H650 H 0.16723 0.76422 0.28722 0.0
H651 H 0.3107 0.92927 0.1824 0.0
H652 H 0.33239 0.92708 0.19356 0.0
H653 H 0.30683 0.91358 0.20575 0.0
C654 C 0.3699 0.08002 0.67969 0.0
C655 C 0.3894 0.09677 0.66787 0.0
C656 C 0.4056 0.1284 0.69061 0.0
C657 C 0.42415 0.14239 0.70126 0.0
C658 C 0.42671 0.16093 0.71048 0.0
C659 C 0.40986 0.16511 0.7098 0.0
C660 C 0.391 0.15101 0.69903 0.0
C661 C 0.38918 0.13297 0.68928 0.0
C662 C 0.44744 0.17595 0.72098 0.0
C663 C 0.37268 0.15491 0.69793 0.0
C664 C 0.42885 0.31145 0.63896 0.0
C665 C 0.41963 0.29372 0.65445 0.0
C666 C 0.42927 0.27107 0.67443 0.0
C667 C 0.40864 0.25647 0.68071 0.0
C668 C 0.40466 0.23949 0.69405 0.0
C669 C 0.42164 0.23717 0.70142 0.0
C670 C 0.44237 0.25172 0.69499 0.0
C671 C 0.44588 0.26844 0.68149 0.0
C672 C 0.38234 0.2241 0.70043 0.0
C673 C 0.46083 0.2497 0.70256 0.0
C674 C 0.42138 0.28283 0.8352 0.0
C675 C 0.4015 0.26487 0.83219 0.0
C676 C 0.39953 0.24668 0.8227 0.0
C677 C 0.41779 0.24632 0.81632 0.0
C678 C 0.43784 0.26423 0.81965 0.0
C679 C 0.43933 0.28233 0.82886 0.0
C680 C 0.37791 0.22786 0.81937 0.0
C681 C 0.45766 0.26427 0.81338 0.0
C682 C 0.39629 0.09249 0.84877 0.0
C683 C 0.41403 0.11384 0.85643 0.0
C684 C 0.40766 0.14296 0.85027 0.0
C685 C 0.39004 0.14525 0.84737 0.0
C686 C 0.39101 0.16141 0.83452 0.0
C687 C 0.41026 0.17586 0.82481 0.0
C688 C 0.42844 0.17426 0.82865 0.0
C689 C 0.42693 0.15779 0.84134 0.0
C690 C 0.37139 0.16277 0.83094 0.0
C691 C 0.44939 0.1898 0.81913 0.0
C692 C 0.41196 0.18422 0.72029 0.0
C693 C 0.41541 0.20119 0.70735 0.0
C694 C 0.41777 0.21973 0.71613 0.0
C695 C 0.41687 0.22159 0.73849 0.0
C696 C 0.41915 0.24001 0.74785 0.0
C697 C 0.4185 0.24179 0.76988 0.0
C698 C 0.41591 0.22538 0.78344 0.0
C699 C 0.41584 0.22727 0.80589 0.0
C700 C 0.4138 0.21086 0.81891 0.0
C701 C 0.41134 0.19228 0.81011 0.0
C702 C 0.41064 0.18982 0.78769 0.0
C703 C 0.40729 0.17101 0.77831 0.0
C704 C 0.40727 0.16897 0.75625 0.0
C705 C 0.41095 0.18577 0.74271 0.0
C706 C 0.41368 0.20463 0.75183 0.0
C707 C 0.41336 0.2066 0.77434 0.0
C708 C 0.41646 0.3232 0.86602 0.0
C709 C 0.40831 0.30323 0.85382 0.0
O710 O 0.40426 0.1107 0.6822 0.0
O711 O 0.40564 0.12642 0.86189 0.0
O712 O 0.42391 0.30082 0.84415 0.0
O713 O 0.43381 0.2878 0.66165 0.0
H714 H 0.38439 0.10538 0.65685 0.0
H715 H 0.36175 0.08726 0.68787 0.0
H716 H 0.37424 0.07189 0.69195 0.0
H717 H 0.35863 0.06819 0.66821 0.0
H718 H 0.43679 0.13884 0.70212 0.0
H719 H 0.37476 0.12246 0.68095 0.0
H720 H 0.45243 0.19245 0.71661 0.0
H721 H 0.46007 0.17259 0.71644 0.0
H722 H 0.44567 0.17452 0.73856 0.0
H723 H 0.35825 0.14118 0.69143 0.0
H724 H 0.37682 0.16868 0.68751 0.0
H725 H 0.3692 0.15862 0.71403 0.0
H726 H 0.41043 0.29541 0.66762 0.0
H727 H 0.41229 0.29797 0.61074 0.0
H728 H 0.44646 0.31887 0.64028 0.0
H729 H 0.42831 0.32475 0.64726 0.0
H730 H 0.39557 0.2582 0.67525 0.0
H731 H 0.46172 0.27971 0.67652 0.0
H732 H 0.37849 0.20785 0.69632 0.0
H733 H 0.37076 0.22745 0.6925 0.0
H734 H 0.38073 0.22471 0.71797 0.0
H735 H 0.47605 0.26258 0.6965 0.0
H736 H 0.45888 0.23443 0.69717 0.0
H737 H 0.46137 0.24981 0.72027 0.0
H738 H 0.39478 0.29952 0.84299 0.0
H739 H 0.38744 0.26498 0.83705 0.0
H740 H 0.45459 0.2962 0.83132 0.0
H741 H 0.37567 0.22308 0.80234 0.0
H742 H 0.3652 0.23101 0.82413 0.0
H743 H 0.37642 0.21441 0.8289 0.0
H744 H 0.47206 0.27878 0.81864 0.0
H745 H 0.45811 0.26301 0.79578 0.0
H746 H 0.45777 0.25042 0.8204 0.0
H747 H 0.42519 0.12075 0.84289 0.0
H748 H 0.40265 0.08209 0.84437 0.0
H749 H 0.38858 0.09467 0.83446 0.0
H750 H 0.38424 0.08469 0.86138 0.0
H751 H 0.37533 0.13391 0.85468 0.0
H752 H 0.44082 0.15657 0.84437 0.0
H753 H 0.36822 0.1626 0.81358 0.0
H754 H 0.37379 0.17785 0.83745 0.0
H755 H 0.3574 0.14963 0.83868 0.0
H756 H 0.46243 0.1878 0.82553 0.0
H757 H 0.45297 0.20613 0.82234 0.0
H758 H 0.44869 0.1877 0.80156 0.0
H759 H 0.41635 0.19999 0.69019 0.0
H760 H 0.42148 0.25328 0.73824 0.0
H761 H 0.42029 0.25632 0.77614 0.0
H762 H 0.41418 0.21258 0.83611 0.0
H763 H 0.40464 0.15763 0.78791 0.0
H764 H 0.40455 0.1541 0.74996 0.0
H765 H 0.40981 0.33217 0.85759 0.0
H766 H 0.43304 0.3339 0.86043 0.0
H767 H 0.40917 0.31315 0.89773 0.0
C768 C 0.04702 0.47825 0.05184 0.0
C769 C 0.05712 0.48984 0.03346 0.0
C770 C 0.05706 0.47104 0.06551 0.0
C771 C 0.09878 0.45758 0.0691 0.0
H772 H 0.09079 0.46096 0.12973 0.0
C773 C 0.10855 0.40539 0.13225 0.0
C774 C 0.1148 0.4133 0.15303 0.0
C775 C 0.10585 0.41744 0.11655 0.0
C776 C 0.09356 0.46017 0.11291 0.0
H777 H 0.08572 0.50263 0.01486 0.0
H778 H 0.10342 0.48991 0.03899 0.0
H779 H 0.07799 0.4772 0.1046 0.0
H780 H 0.12463 0.44056 0.17322 0.0
H781 H 0.12054 0.46183 0.14574 0.0
H782 H 0.11434 0.44042 0.07754 0.0
C783 C 0.08762 0.48645 0.04267 0.0
C784 C 0.08594 0.46927 0.09846 0.0
C785 C 0.07752 0.49378 0.02891 0.0
C786 C 0.11957 0.43397 0.15741 0.0
C787 C 0.11709 0.44609 0.14169 0.0
C788 C 0.10647 0.44845 0.08363 0.0
C789 C 0.07754 0.4752 0.06125 0.0
C790 C 0.08799 0.46765 0.07638 0.0
C791 C 0.10953 0.43774 0.12126 0.0
C792 C 0.10359 0.4493 0.10571 0.0
H793 H 0.03126 0.47476 0.05583 0.0
H794 H 0.04867 0.46203 0.07941 0.0
H795 H 0.10057 0.45605 0.05218 0.0
H796 H 0.1049 0.38954 0.12841 0.0
H797 H 0.09987 0.41042 0.10107 0.0
C798 C 0.56977 0.04689 0.55811 0.0
C799 C 0.5701 0.0492 0.53585 0.0
C800 C 0.58822 0.05762 0.57008 0.0
C801 C 0.64361 0.07653 0.56726 0.0
H802 H 0.64622 0.10471 0.62035 0.0
C803 C 0.71364 0.10288 0.62548 0.0
C804 C 0.70845 0.09911 0.64721 0.0
C805 C 0.69877 0.10145 0.61048 0.0
C806 C 0.64574 0.09679 0.60565 0.0
H807 H 0.58991 0.06478 0.50862 0.0
H808 H 0.62258 0.08318 0.52968 0.0
H809 H 0.61616 0.09371 0.59645 0.0
H810 H 0.6836 0.09057 0.67019 0.0
H811 H 0.65754 0.08754 0.64415 0.0
H812 H 0.67242 0.07831 0.57692 0.0
C813 C 0.60787 0.07325 0.53777 0.0
C814 C 0.62859 0.09065 0.59191 0.0
C815 C 0.58923 0.06282 0.52578 0.0
C816 C 0.68816 0.094 0.65361 0.0
C817 C 0.67326 0.09237 0.63864 0.0
C818 C 0.66064 0.08241 0.58114 0.0
C819 C 0.6075 0.07061 0.56002 0.0
C820 C 0.62713 0.08004 0.57283 0.0
C821 C 0.67826 0.09584 0.61682 0.0
C822 C 0.66167 0.09214 0.60079 0.0
H823 H 0.55522 0.03655 0.56629 0.0
H824 H 0.58752 0.05513 0.58717 0.0
H825 H 0.64274 0.06818 0.55274 0.0
H826 H 0.72905 0.1065 0.62001 0.0
H827 H 0.70328 0.10443 0.59387 0.0
C828 C 0.53731 0.55869 0.06151 0.0
C829 C 0.53257 0.55947 0.03991 0.0
C830 C 0.54595 0.57673 0.07408 0.0
C831 C 0.55543 0.63131 0.07719 0.0
H832 H 0.59657 0.63639 0.11943 0.0
C833 C 0.60728 0.70576 0.12959 0.0
C834 C 0.60762 0.70164 0.1515 0.0
C835 C 0.59736 0.68918 0.11499 0.0
C836 C 0.58503 0.63514 0.10778 0.0
H837 H 0.53278 0.57974 0.01461 0.0
H838 H 0.54862 0.61168 0.03653 0.0
H839 H 0.5813 0.60647 0.09534 0.0
H840 H 0.59819 0.67703 0.17515 0.0
H841 H 0.58113 0.64813 0.14966 0.0
H842 H 0.55978 0.66048 0.08962 0.0
C843 C 0.54527 0.59694 0.04382 0.0
C844 C 0.57617 0.61793 0.09401 0.0
C845 C 0.53628 0.57869 0.03123 0.0
C846 C 0.59789 0.68065 0.15843 0.0
C847 C 0.58826 0.66415 0.14385 0.0
C848 C 0.56457 0.64875 0.09087 0.0
C849 C 0.55049 0.59621 0.06535 0.0
C850 C 0.56091 0.61551 0.07882 0.0
C851 C 0.58808 0.66824 0.12197 0.0
C852 C 0.57915 0.65058 0.10654 0.0
H853 H 0.53428 0.54405 0.0688 0.0
H854 H 0.54909 0.57534 0.09073 0.0
H855 H 0.54367 0.62993 0.06579 0.0
H856 H 0.61503 0.72176 0.1237 0.0
H857 H 0.59761 0.69273 0.09817 0.0
C858 C 0.95156 0.51953 0.53004 0.0
C859 C 0.96464 0.51257 0.53889 0.0
C860 C 0.94347 0.52938 0.54295 0.0
C861 C 0.95504 0.55757 0.59474 0.0
H862 H 0.90033 0.55268 0.58719 0.0
C863 C 0.92199 0.59023 0.65664 0.0
C864 C 0.91456 0.60331 0.64891 0.0
C865 C 0.92603 0.57792 0.64269 0.0
C866 C 0.91568 0.55423 0.58936 0.0
H867 H 0.97822 0.50897 0.56828 0.0
H868 H 0.96352 0.52516 0.59077 0.0
H869 H 0.91089 0.53293 0.56377 0.0
H870 H 0.9056 0.61378 0.62038 0.0
H871 H 0.91233 0.59184 0.59593 0.0
H872 H 0.95974 0.57853 0.62046 0.0
C873 C 0.96017 0.52397 0.57383 0.0
C874 C 0.92178 0.543 0.57593 0.0
C875 C 0.96848 0.51452 0.56095 0.0
C876 C 0.9109 0.60352 0.62686 0.0
C877 C 0.91476 0.591 0.61288 0.0
C878 C 0.94888 0.56853 0.60823 0.0
C879 C 0.94813 0.53217 0.56495 0.0
C880 C 0.94148 0.54437 0.57862 0.0
C881 C 0.92277 0.57841 0.62064 0.0
C882 C 0.92909 0.56686 0.60583 0.0
H883 H 0.94841 0.51825 0.51305 0.0
H884 H 0.9343 0.53553 0.53555 0.0
H885 H 0.97059 0.5596 0.59691 0.0
H886 H 0.92523 0.58998 0.67349 0.0
H887 H 0.93207 0.56825 0.64912 0.0
C888 C 0.4478 0.97556 0.04748 0.0
C889 C 0.45527 0.96367 0.03708 0.0
C890 C 0.42911 0.96566 0.05897 0.0
C891 C 0.39797 0.9205 0.09136 0.0
H892 H 0.35437 0.93523 0.08473 0.0
C893 C 0.32905 0.8895 0.15044 0.0
C894 C 0.32272 0.90379 0.15689 0.0
C895 C 0.34245 0.89397 0.13304 0.0
C896 C 0.36647 0.93108 0.08699 0.0
H897 H 0.44896 0.93211 0.03035 0.0
H898 H 0.41639 0.91469 0.05129 0.0
H899 H 0.38328 0.94856 0.05935 0.0
H900 H 0.32384 0.93307 0.14859 0.0
H901 H 0.34809 0.94151 0.11927 0.0
H902 H 0.38221 0.90422 0.1197 0.0
C903 C 0.42497 0.93169 0.05015 0.0
C904 C 0.38291 0.93858 0.07231 0.0
C905 C 0.4435 0.94162 0.03817 0.0
C906 C 0.32899 0.92204 0.14464 0.0
C907 C 0.34269 0.92671 0.12749 0.0
C908 C 0.38177 0.91332 0.10629 0.0
C909 C 0.41769 0.94367 0.06069 0.0
C910 C 0.39896 0.93361 0.07456 0.0
C911 C 0.34992 0.91291 0.12165 0.0
C912 C 0.36597 0.91881 0.10454 0.0
H913 H 0.45649 0.99258 0.04681 0.0
H914 H 0.42391 0.97524 0.06712 0.0
H915 H 0.41032 0.91666 0.09356 0.0
H916 H 0.32389 0.87496 0.15912 0.0
H917 H 0.34707 0.88261 0.12867 0.0
C918 C 0.49762 0.43 0.53188 0.0
C919 C 0.49245 0.44554 0.53677 0.0
C920 C 0.4882 0.41085 0.54294 0.0
C921 C 0.44075 0.37605 0.57351 0.0
H922 H 0.47305 0.35129 0.59512 0.0
C923 C 0.39304 0.29632 0.63264 0.0
C924 C 0.40804 0.28232 0.6365 0.0
C925 C 0.40667 0.32048 0.61779 0.0
C926 C 0.46372 0.3578 0.58892 0.0
H927 H 0.47354 0.45323 0.55732 0.0
H928 H 0.45719 0.41995 0.57641 0.0
H929 H 0.49079 0.38452 0.57567 0.0
H930 H 0.43651 0.27584 0.61937 0.0
H931 H 0.45592 0.31428 0.59476 0.0
H932 H 0.41369 0.34937 0.58628 0.0
C933 C 0.46838 0.42248 0.56396 0.0
C934 C 0.47393 0.37688 0.57783 0.0
C935 C 0.47787 0.44161 0.55307 0.0
C936 C 0.42941 0.28565 0.61825 0.0
C937 C 0.44192 0.31016 0.60384 0.0
C938 C 0.43055 0.35694 0.58444 0.0
C939 C 0.47331 0.40682 0.55893 0.0
C940 C 0.46256 0.38628 0.57015 0.0
C941 C 0.43109 0.32757 0.60427 0.0
C942 C 0.44192 0.34766 0.5924 0.0
H943 H 0.50881 0.43255 0.51944 0.0
H944 H 0.49221 0.39901 0.53865 0.0
H945 H 0.43151 0.38272 0.56746 0.0
H946 H 0.37959 0.29295 0.64237 0.0
H947 H 0.40028 0.33091 0.61745 0.0
C948 C 0.55473 0.97696 0.48476 0.0
C949 C 0.53347 0.96585 0.49047 0.0
C950 C 0.56323 0.9676 0.47197 0.0
C951 C 0.55172 0.91673 0.4463 0.0
H952 H 0.59338 0.95502 0.4062 0.0
C953 C 0.57326 0.88099 0.36356 0.0
C954 C 0.60242 0.89454 0.36057 0.0
C955 C 0.56438 0.89073 0.38512 0.0
C956 C 0.58197 0.94415 0.41745 0.0
H957 H 0.50443 0.93617 0.48789 0.0
H958 H 0.51889 0.92002 0.46448 0.0
H959 H 0.57966 0.9687 0.43284 0.0
H960 H 0.63689 0.93004 0.3667 0.0
H961 H 0.62006 0.94471 0.39965 0.0
H962 H 0.55346 0.89208 0.42973 0.0
C963 C 0.52932 0.93571 0.47044 0.0
C964 C 0.57412 0.95199 0.4329 0.0
C965 C 0.52096 0.94494 0.48381 0.0
C966 C 0.62025 0.92176 0.37017 0.0
C967 C 0.60982 0.93016 0.39142 0.0
C968 C 0.55931 0.90884 0.43046 0.0
C969 C 0.55048 0.94713 0.46389 0.0
C970 C 0.55898 0.93846 0.44769 0.0
C971 C 0.58257 0.91449 0.39917 0.0
C972 C 0.57458 0.92254 0.41603 0.0
H973 H 0.5647 0.99309 0.4899 0.0
H974 H 0.57975 0.9767 0.46803 0.0
H975 H 0.5403 0.90579 0.45748 0.0
H976 H 0.56292 0.86603 0.35605 0.0
H977 H 0.54796 0.88236 0.38949 0.0
C978 C 0.5886 0.51715 0.99837 0.0
C979 C 0.57097 0.51666 0.98892 0.0
C980 C 0.60777 0.52603 0.98748 0.0
C981 C 0.63585 0.56276 0.94284 0.0
H982 H 0.67393 0.54083 0.94825 0.0
C983 C 0.71677 0.5736 0.90191 0.0
C984 C 0.72784 0.59559 0.89945 0.0
C985 C 0.69766 0.56362 0.91284 0.0
C986 C 0.6634 0.54704 0.94637 0.0
H987 H 0.55931 0.52417 0.96028 0.0
H988 H 0.59229 0.53891 0.94114 0.0
H989 H 0.64027 0.5233 0.9666 0.0
H990 H 0.72818 0.62438 0.90755 0.0
H991 H 0.69514 0.60711 0.92705 0.0
H992 H 0.65851 0.58601 0.92203 0.0
C993 C 0.59168 0.53316 0.95719 0.0
C994 C 0.64419 0.53714 0.95716 0.0
C995 C 0.57268 0.52455 0.96814 0.0
C996 C 0.7197 0.60739 0.90872 0.0
C997 C 0.70073 0.59745 0.91983 0.0
C998 C 0.65492 0.57253 0.93193 0.0
C999 C 0.6096 0.5344 0.96684 0.0
C1000 C 0.63015 0.54486 0.95551 0.0
C1001 C 0.68938 0.57542 0.92195 0.0
C1002 C 0.66899 0.56484 0.93356 0.0
H1003 H 0.58778 0.51125 0.0144 0.0
H1004 H 0.62127 0.52687 0.9955 0.0
H1005 H 0.62565 0.56942 0.94145 0.0
H1006 H 0.72286 0.56409 0.89538 0.0
H1007 H 0.68931 0.54664 0.91397 0.0
C1008 C 0.06332 0.57209 0.49808 0.0
C1009 C 0.04597 0.55469 0.48863 0.0
C1010 C 0.07382 0.59135 0.48725 0.0
C1011 C 0.06592 0.6203 0.44265 0.0
H1012 H 0.12629 0.65669 0.44704 0.0
C1013 C 0.10733 0.70391 0.40723 0.0
C1014 C 0.12705 0.7113 0.39769 0.0
C1015 C 0.09783 0.685 0.41857 0.0
C1016 C 0.10943 0.64663 0.44545 0.0
H1017 H 0.02658 0.54364 0.46008 0.0
H1018 H 0.04512 0.57676 0.44111 0.0
H1019 H 0.10937 0.6232 0.46594 0.0
H1020 H 0.15267 0.70502 0.39334 0.0
H1021 H 0.13575 0.67158 0.41238 0.0
H1022 H 0.06598 0.64323 0.42157 0.0
C1023 C 0.05028 0.57589 0.45711 0.0
C1024 C 0.09969 0.62753 0.45656 0.0
C1025 C 0.0397 0.5568 0.46797 0.0
C1026 C 0.13725 0.69951 0.40008 0.0
C1027 C 0.12765 0.68047 0.41127 0.0
C1028 C 0.07566 0.63926 0.43143 0.0
C1029 C 0.06728 0.59353 0.46668 0.0
C1030 C 0.0778 0.61408 0.45525 0.0
C1031 C 0.10782 0.67297 0.42069 0.0
C1032 C 0.09754 0.65271 0.43267 0.0
H1033 H 0.06849 0.57095 0.51399 0.0
H1034 H 0.08673 0.60464 0.4952 0.0
H1035 H 0.04899 0.61056 0.4415 0.0
H1036 H 0.09937 0.71294 0.40612 0.0
H1037 H 0.08279 0.68001 0.426 0.0
C1038 C 0.47945 0.03292 0.97592 0.0
C1039 C 0.49591 0.04381 0.99062 0.0
C1040 C 0.47084 0.04328 0.96473 0.0
C1041 C 0.48302 0.09468 0.94451 0.0
H1042 H 0.42274 0.06668 0.93501 0.0
C1043 C 0.44465 0.11191 0.8726 0.0
C1044 C 0.42526 0.11101 0.87538 0.0
C1045 C 0.45405 0.10705 0.88943 0.0
C1046 C 0.43957 0.07491 0.93774 0.0
H1047 H 0.51621 0.07418 0.00519 0.0
H1048 H 0.50121 0.09247 0.98527 0.0
H1049 H 0.43722 0.05165 0.95994 0.0
H1050 H 0.40063 0.10464 0.89804 0.0
H1051 H 0.4171 0.09622 0.92758 0.0
H1052 H 0.48536 0.11772 0.9219 0.0
C1053 C 0.49501 0.07583 0.98254 0.0
C1054 C 0.44788 0.06618 0.95187 0.0
C1055 C 0.50352 0.06536 0.99398 0.0
C1056 C 0.41567 0.10561 0.89552 0.0
C1057 C 0.42503 0.10067 0.91235 0.0
C1058 C 0.4747 0.10338 0.93025 0.0
C1059 C 0.47855 0.06485 0.96782 0.0
C1060 C 0.46971 0.07569 0.95503 0.0
C1061 C 0.44416 0.10099 0.90939 0.0
C1062 C 0.45291 0.09335 0.92638 0.0
H1063 H 0.47315 0.0163 0.97297 0.0
H1064 H 0.4584 0.03444 0.95328 0.0
H1065 H 0.49991 0.10231 0.94657 0.0
H1066 H 0.45227 0.11578 0.85719 0.0
H1067 H 0.46861 0.10713 0.88651 0.0
C1068 C 0.44453 0.46509 0.47718 0.0
C1069 C 0.45253 0.48479 0.48708 0.0
C1070 C 0.42607 0.45666 0.4651 0.0
C1071 C 0.39653 0.4716 0.43073 0.0
H1072 H 0.35136 0.41415 0.4379 0.0
C1073 C 0.3232 0.43678 0.36187 0.0
C1074 C 0.30623 0.40765 0.36352 0.0
C1075 C 0.34265 0.44831 0.38276 0.0
C1076 C 0.36393 0.43011 0.4354 0.0
H1077 H 0.44743 0.51105 0.49232 0.0
H1078 H 0.41527 0.49649 0.47043 0.0
H1079 H 0.38022 0.42926 0.46357 0.0
H1080 H 0.30547 0.3736 0.37636 0.0
H1081 H 0.3384 0.39411 0.40775 0.0
H1082 H 0.38115 0.47225 0.40202 0.0
C1083 C 0.42325 0.48754 0.47238 0.0
C1084 C 0.38035 0.43881 0.4503 0.0
C1085 C 0.44153 0.49579 0.48492 0.0
C1086 C 0.31462 0.39057 0.37727 0.0
C1087 C 0.33436 0.40351 0.39762 0.0
C1088 C 0.38029 0.46278 0.41561 0.0
C1089 C 0.41544 0.46794 0.4623 0.0
C1090 C 0.39692 0.45954 0.44794 0.0
C1091 C 0.34759 0.43186 0.40079 0.0
C1092 C 0.36396 0.4418 0.41759 0.0
H1093 H 0.45265 0.45623 0.47865 0.0
H1094 H 0.42046 0.4416 0.45737 0.0
H1095 H 0.40928 0.48755 0.42843 0.0
H1096 H 0.31896 0.4463 0.35214 0.0
H1097 H 0.35112 0.46521 0.38452 0.0
C1098 C 0.98469 0.44547 0.96025 0.0
C1099 C 0.97783 0.4478 0.98039 0.0
C1100 C 0.97448 0.42617 0.94967 0.0
C1101 C 0.92496 0.37448 0.94921 0.0
H1102 H 0.95851 0.35798 0.91565 0.0
C1103 C 0.91675 0.29693 0.90234 0.0
C1104 C 0.89681 0.28931 0.893 0.0
C1105 C 0.92652 0.31613 0.91318 0.0
C1106 C 0.94889 0.36218 0.92514 0.0
H1107 H 0.95487 0.43171 0.00525 0.0
H1108 H 0.93741 0.3978 0.98709 0.0
H1109 H 0.9756 0.39116 0.93478 0.0
H1110 H 0.8711 0.29553 0.88847 0.0
H1111 H 0.88847 0.32942 0.90643 0.0
H1112 H 0.89836 0.34507 0.9403 0.0
C1113 C 0.95037 0.41102 0.9792 0.0
C1114 C 0.95868 0.38143 0.93586 0.0
C1115 C 0.96045 0.43043 0.98969 0.0
C1116 C 0.88668 0.30117 0.89506 0.0
C1117 C 0.89654 0.32049 0.90565 0.0
C1118 C 0.91519 0.35511 0.93867 0.0
C1119 C 0.95731 0.40861 0.95907 0.0
C1120 C 0.94684 0.38791 0.94795 0.0
C1121 C 0.91658 0.32822 0.91491 0.0
C1122 C 0.92701 0.34874 0.92639 0.0
H1123 H 0.99792 0.45861 0.95256 0.0
H1124 H 0.97999 0.4251 0.934 0.0
H1125 H 0.91528 0.379 0.95814 0.0
H1126 H 0.92468 0.28786 0.90145 0.0
H1127 H 0.94172 0.3213 0.9205 0.0
C1128 C 0.9868 0.53044 0.95306 0.0
C1129 C 0.00839 0.53733 0.95447 0.0
C1130 C 0.97933 0.53992 0.93895 0.0
C1131 C 0.99495 0.58966 0.91219 0.0
H1132 H 0.94122 0.55663 0.88353 0.0
C1133 C 0.95281 0.62822 0.86878 0.0
C1134 C 0.93163 0.61974 0.87462 0.0
C1135 C 0.96376 0.61773 0.87403 0.0
C1136 C 0.95625 0.56608 0.89141 0.0
H1137 H 0.03909 0.55936 0.9418 0.0
H1138 H 0.02594 0.57624 0.91708 0.0
H1139 H 0.95806 0.53897 0.90071 0.0
H1140 H 0.90517 0.59337 0.8899 0.0
H1141 H 0.92413 0.57504 0.89892 0.0
H1142 H 0.99274 0.61675 0.90352 0.0
C1143 C 0.01486 0.5634 0.92699 0.0
C1144 C 0.9659 0.55597 0.90122 0.0
C1145 C 0.02236 0.5537 0.94106 0.0
C1146 C 0.92144 0.60024 0.88511 0.0
C1147 C 0.93229 0.5897 0.89018 0.0
C1148 C 0.98528 0.5998 0.90233 0.0
C1149 C 0.99325 0.55666 0.92591 0.0
C1150 C 0.98501 0.5676 0.91234 0.0
C1151 C 0.95367 0.59847 0.88502 0.0
C1152 C 0.9655 0.58806 0.89243 0.0
H1153 H 0.97557 0.5178 0.96309 0.0
H1154 H 0.96265 0.53455 0.93879 0.0
H1155 H 0.00959 0.59905 0.92075 0.0
H1156 H 0.96103 0.64323 0.86067 0.0
H1157 H 0.98017 0.6248 0.86971 0.0
C1158 C 0.45163 0.97128 0.4693 0.0
C1159 C 0.46891 0.99117 0.46461 0.0
C1160 C 0.43299 0.96339 0.45767 0.0
C1161 C 0.40922 0.96699 0.40751 0.0
H1162 H 0.35842 0.9429 0.44144 0.0
C1163 C 0.32585 0.93704 0.37125 0.0
C1164 C 0.30933 0.91858 0.38013 0.0
C1165 C 0.34594 0.94665 0.38046 0.0
C1166 C 0.37241 0.94932 0.43168 0.0
H1167 H 0.48035 0.01801 0.44339 0.0
H1168 H 0.44748 0.00401 0.42283 0.0
H1169 H 0.39251 0.95849 0.45909 0.0
H1170 H 0.30096 0.89556 0.40536 0.0
H1171 H 0.33601 0.91198 0.42114 0.0
H1172 H 0.38898 0.95747 0.38004 0.0
C1173 C 0.44855 0.99465 0.43564 0.0
C1174 C 0.39195 0.95833 0.44181 0.0
C1175 C 0.46732 0.00267 0.44742 0.0
C1176 C 0.31338 0.90977 0.39817 0.0
C1177 C 0.33343 0.9193 0.40731 0.0
C1178 C 0.38957 0.95783 0.39731 0.0
C1179 C 0.43108 0.97511 0.44098 0.0
C1180 C 0.41056 0.96697 0.42987 0.0
C1181 C 0.34991 0.93801 0.39876 0.0
C1182 C 0.37092 0.94861 0.40931 0.0
H1183 H 0.4523 0.96185 0.48227 0.0
H1184 H 0.41995 0.9481 0.46188 0.0
H1185 H 0.42331 0.97346 0.39791 0.0
H1186 H 0.32311 0.9442 0.3574 0.0
H1187 H 0.35821 0.96113 0.37358 0.0
C1188 C 0.47617 0.46083 0.94633 0.0
C1189 C 0.47764 0.45872 0.96846 0.0
C1190 C 0.4661 0.4429 0.93335 0.0
C1191 C 0.4263 0.38781 0.93264 0.0
H1192 H 0.46094 0.37807 0.89306 0.0
C1193 C 0.3836 0.30232 0.88094 0.0
C1194 C 0.40327 0.29433 0.8743 0.0
C1195 C 0.39462 0.32858 0.89129 0.0
C1196 C 0.45107 0.38067 0.90395 0.0
H1197 H 0.46908 0.43647 0.99451 0.0
H1198 H 0.45083 0.4053 0.97197 0.0
H1199 H 0.47557 0.412 0.91151 0.0
H1200 H 0.44028 0.30031 0.88465 0.0
H1201 H 0.45543 0.34177 0.90259 0.0
H1202 H 0.40194 0.35646 0.92547 0.0
C1203 C 0.45773 0.42071 0.96464 0.0
C1204 C 0.45937 0.40008 0.91431 0.0
C1205 C 0.46822 0.43851 0.97748 0.0
C1206 C 0.42983 0.30652 0.88697 0.0
C1207 C 0.43934 0.33269 0.89706 0.0
C1208 C 0.41788 0.36859 0.92194 0.0
C1209 C 0.45687 0.42273 0.94246 0.0
C1210 C 0.44718 0.40361 0.92909 0.0
C1211 C 0.42215 0.34367 0.89846 0.0
C1212 C 0.43035 0.36471 0.90788 0.0
H1213 H 0.48344 0.47626 0.93903 0.0
H1214 H 0.46561 0.44475 0.91625 0.0
H1215 H 0.41669 0.39017 0.94409 0.0
H1216 H 0.36766 0.2939 0.87485 0.0
H1217 H 0.3846 0.33535 0.89315 0.0
C1218 C 0.00223 0.45133 0.44702 0.0
C1219 C 0.01554 0.46696 0.46155 0.0
C1220 C 0.01042 0.44243 0.43294 0.0
C1221 C 0.06045 0.45187 0.40898 0.0
H1222 H 0.03452 0.39114 0.40779 0.0
C1223 C 0.10684 0.41013 0.39096 0.0
C1224 C 0.09724 0.39124 0.37937 0.0
C1225 C 0.09546 0.41994 0.39655 0.0
C1226 C 0.04175 0.40811 0.40757 0.0
H1227 H 0.0479 0.48595 0.47224 0.0
H1228 H 0.06201 0.47063 0.44787 0.0
H1229 H 0.01661 0.40735 0.4255 0.0
H1230 H 0.06832 0.36802 0.36415 0.0
H1231 H 0.04828 0.3852 0.37404 0.0
H1232 H 0.0859 0.45271 0.39172 0.0
C1233 C 0.04532 0.46522 0.4472 0.0
C1234 C 0.03148 0.41738 0.41772 0.0
C1235 C 0.03717 0.47388 0.46133 0.0
C1236 C 0.0761 0.3826 0.37306 0.0
C1237 C 0.06463 0.39236 0.37881 0.0
C1238 C 0.0707 0.44262 0.39886 0.0
C1239 C 0.03208 0.44929 0.43295 0.0
C1240 C 0.04105 0.43938 0.41911 0.0
C1241 C 0.07414 0.41103 0.39083 0.0
C1242 C 0.06178 0.42066 0.39861 0.0
H1243 H 0.9855 0.44567 0.44684 0.0
H1244 H 0.99985 0.43019 0.42209 0.0
H1245 H 0.06804 0.46886 0.40945 0.0
H1246 H 0.12305 0.41706 0.39617 0.0
H1247 H 0.10319 0.43412 0.40609 0.0
C1248 C 0.55781 0.00153 0.951 0.0
C1249 C 0.55633 0.0146 0.96641 0.0
C1250 C 0.57501 0.00953 0.9371 0.0
C1251 C 0.6175 0.05958 0.91504 0.0
H1252 H 0.64824 0.02972 0.90874 0.0
C1253 C 0.70428 0.10105 0.8908 0.0
C1254 C 0.71145 0.09055 0.87762 0.0
C1255 C 0.6836 0.09082 0.89814 0.0
C1256 C 0.63964 0.03809 0.90998 0.0
H1257 H 0.5716 0.04638 0.97905 0.0
H1258 H 0.6013 0.06017 0.95499 0.0
H1259 H 0.6149 0.0132 0.92791 0.0
H1260 H 0.70257 0.06112 0.86167 0.0
H1261 H 0.66622 0.04316 0.87445 0.0
H1262 H 0.64239 0.08467 0.89759 0.0
C1263 C 0.58919 0.04382 0.95347 0.0
C1264 C 0.62054 0.02862 0.92098 0.0
C1265 C 0.57221 0.03583 0.96741 0.0
C1266 C 0.69738 0.06963 0.87168 0.0
C1267 C 0.67666 0.05933 0.87912 0.0
C1268 C 0.63653 0.06902 0.90404 0.0
C1269 C 0.59086 0.0308 0.9382 0.0
C1270 C 0.60956 0.0395 0.92411 0.0
C1271 C 0.66959 0.06977 0.8926 0.0
C1272 C 0.64811 0.05862 0.90186 0.0
H1273 H 0.54584 0.9851 0.94983 0.0
H1274 H 0.57585 0.99914 0.92543 0.0
H1275 H 0.60919 0.06821 0.91684 0.0
H1276 H 0.71483 0.11707 0.89587 0.0
H1277 H 0.67882 0.09922 0.9088 0.0
C1278 C 0.55779 0.54679 0.44832 0.0
C1279 C 0.54162 0.54428 0.46204 0.0
C1280 C 0.56701 0.56388 0.43419 0.0
C1281 C 0.55794 0.60418 0.40834 0.0
H1282 H 0.61862 0.63943 0.40959 0.0
C1283 C 0.59971 0.6924 0.39028 0.0
C1284 C 0.61907 0.70193 0.37963 0.0
C1285 C 0.58979 0.67115 0.39579 0.0
C1286 C 0.60168 0.62957 0.40868 0.0
H1287 H 0.52202 0.55733 0.4712 0.0
H1288 H 0.5379 0.58679 0.44671 0.0
H1289 H 0.60205 0.60528 0.42745 0.0
H1290 H 0.64295 0.69656 0.36584 0.0
H1291 H 0.62561 0.65925 0.37561 0.0
H1292 H 0.55746 0.6287 0.39024 0.0
C1293 C 0.54348 0.57564 0.44673 0.0
C1294 C 0.5922 0.61 0.41891 0.0
C1295 C 0.53451 0.55882 0.46094 0.0
C1296 C 0.62803 0.68959 0.37406 0.0
C1297 C 0.61817 0.6683 0.37973 0.0
C1298 C 0.56739 0.62369 0.39812 0.0
C1299 C 0.55994 0.57851 0.43331 0.0
C1300 C 0.57019 0.59742 0.41943 0.0
C1301 C 0.59905 0.65892 0.3909 0.0
C1302 C 0.58932 0.6369 0.39875 0.0
H1303 H 0.56361 0.53585 0.44884 0.0
H1304 H 0.57965 0.5657 0.42399 0.0
H1305 H 0.54095 0.59464 0.40812 0.0
H1306 H 0.59248 0.70153 0.39488 0.0
H1307 H 0.57524 0.66451 0.40465 0.0
C1308 C 0.47488 0.03184 0.54704 0.0
C1309 C 0.47881 0.01613 0.5548 0.0
C1310 C 0.46428 0.03924 0.55951 0.0
C1311 C 0.45367 0.04648 0.61439 0.0
H1312 H 0.4078 0.05172 0.59013 0.0
C1313 C 0.40667 0.07433 0.66492 0.0
C1314 C 0.3993 0.0866 0.65492 0.0
C1315 C 0.41569 0.06487 0.65296 0.0
C1316 C 0.42078 0.05068 0.5971 0.0
H1317 H 0.47471 0.99588 0.58175 0.0
H1318 H 0.45644 0.00921 0.60382 0.0
H1319 H 0.42465 0.03664 0.56886 0.0
H1320 H 0.39647 0.0993 0.62465 0.0
H1321 H 0.41297 0.08356 0.60387 0.0
H1322 H 0.45048 0.06121 0.64233 0.0
C1323 C 0.46153 0.01564 0.58798 0.0
C1324 C 0.43032 0.04189 0.58493 0.0
C1325 C 0.47188 0.00796 0.57534 0.0
C1326 C 0.40169 0.08967 0.63277 0.0
C1327 C 0.41102 0.08048 0.62084 0.0
C1328 C 0.44435 0.05557 0.62648 0.0
C1329 C 0.4576 0.03132 0.58014 0.0
C1330 C 0.44689 0.03976 0.59343 0.0
C1331 C 0.41802 0.06782 0.63074 0.0
C1332 C 0.4278 0.05786 0.61799 0.0
H1333 H 0.47995 0.03842 0.53125 0.0
H1334 H 0.46162 0.05147 0.55315 0.0
H1335 H 0.46661 0.04525 0.62123 0.0
H1336 H 0.40538 0.07196 0.68201 0.0
H1337 H 0.42063 0.05506 0.66118 0.0
C1338 C 0.46694 0.45422 0.07356 0.0
C1339 C 0.47149 0.47213 0.06144 0.0
C1340 C 0.45011 0.44581 0.08787 0.0
C1341 C 0.41897 0.45999 0.12125 0.0
H1342 H 0.37397 0.40219 0.11564 0.0
C1343 C 0.34148 0.42995 0.16685 0.0
C1344 C 0.33061 0.40891 0.17376 0.0
C1345 C 0.35885 0.43708 0.15345 0.0
C1346 C 0.38654 0.41825 0.11775 0.0
H1347 H 0.46232 0.4955 0.05507 0.0
H1348 H 0.43339 0.48116 0.08049 0.0
H1349 H 0.40456 0.41555 0.09238 0.0
H1350 H 0.33003 0.37917 0.17276 0.0
H1351 H 0.36089 0.39177 0.15008 0.0
H1352 H 0.40155 0.46278 0.14689 0.0
C1353 C 0.44266 0.47351 0.07872 0.0
C1354 C 0.40401 0.42588 0.10434 0.0
C1355 C 0.45913 0.48163 0.06412 0.0
C1356 C 0.33786 0.39535 0.16734 0.0
C1357 C 0.35549 0.40258 0.15424 0.0
C1358 C 0.40174 0.45229 0.13491 0.0
C1359 C 0.43793 0.45549 0.09063 0.0
C1360 C 0.4202 0.44689 0.1058 0.0
C1361 C 0.36624 0.42356 0.14708 0.0
C1362 C 0.3851 0.4314 0.13315 0.0
H1363 H 0.47617 0.44654 0.07174 0.0
H1364 H 0.44675 0.4319 0.09696 0.0
H1365 H 0.4314 0.47621 0.1228 0.0
H1366 H 0.3366 0.44098 0.17174 0.0
H1367 H 0.36639 0.45322 0.14801 0.0
C1368 C 0.00551 0.44803 0.5705 0.0
C1369 C 0.9926 0.45037 0.55536 0.0
C1370 C 0.99745 0.42995 0.58325 0.0
C1371 C 0.94728 0.38568 0.60292 0.0
H1372 H 0.97862 0.35636 0.60898 0.0
C1373 C 0.89723 0.29172 0.63392 0.0
C1374 C 0.91361 0.28559 0.65209 0.0
C1375 C 0.91071 0.31772 0.62259 0.0
C1376 C 0.96979 0.3645 0.6078 0.0
H1377 H 0.96106 0.43562 0.54197 0.0
H1378 H 0.94717 0.40434 0.56404 0.0
H1379 H 0.99446 0.39011 0.59052 0.0
H1380 H 0.95193 0.29422 0.65989 0.0
H1381 H 0.97171 0.33493 0.63951 0.0
H1382 H 0.92257 0.36009 0.61996 0.0
C1383 C 0.96344 0.41647 0.56623 0.0
C1384 C 0.97889 0.38386 0.59718 0.0
C1385 C 0.97148 0.43438 0.55344 0.0
C1386 C 0.9428 0.29917 0.65044 0.0
C1387 C 0.95483 0.32495 0.63855 0.0
C1388 C 0.93822 0.36638 0.61353 0.0
C1389 C 0.9763 0.41398 0.58125 0.0
C1390 C 0.96757 0.39448 0.59428 0.0
C1391 C 0.93892 0.33426 0.62555 0.0
C1392 C 0.94923 0.35541 0.61575 0.0
H1393 H 0.02184 0.46006 0.57237 0.0
H1394 H 0.00771 0.42852 0.59478 0.0
H1395 H 0.9383 0.39367 0.60133 0.0
H1396 H 0.88026 0.2823 0.63358 0.0
H1397 H 0.90175 0.32328 0.61375 0.0
C1398 C 0.54073 0.97009 0.05907 0.0
C1399 C 0.54588 0.99123 0.06065 0.0
C1400 C 0.55055 0.96212 0.07209 0.0
C1401 C 0.58145 0.97157 0.12177 0.0
H1402 H 0.59598 0.93286 0.09542 0.0
C1403 C 0.63449 0.94058 0.17571 0.0
C1404 C 0.62331 0.91187 0.17127 0.0
C1405 C 0.62287 0.95244 0.15949 0.0
C1406 C 0.59178 0.9434 0.10313 0.0
H1407 H 0.56517 0.02049 0.07755 0.0
H1408 H 0.58269 0.00656 0.10024 0.0
H1409 H 0.57979 0.94862 0.07404 0.0
H1410 H 0.6056 0.8823 0.14279 0.0
H1411 H 0.58921 0.9037 0.11727 0.0
H1412 H 0.59368 0.96634 0.15086 0.0
C1413 C 0.57083 0.99613 0.08898 0.0
C1414 C 0.58252 0.9525 0.09084 0.0
C1415 C 0.56086 0.00414 0.07594 0.0
C1416 C 0.61022 0.89854 0.14589 0.0
C1417 C 0.5994 0.91174 0.13067 0.0
C1418 C 0.59087 0.96252 0.13407 0.0
C1419 C 0.56595 0.97507 0.087 0.0
C1420 C 0.57693 0.96646 0.10005 0.0
C1421 C 0.60508 0.93793 0.13787 0.0
C1422 C 0.59586 0.94814 0.12489 0.0
H1423 H 0.52908 0.9596 0.04767 0.0
H1424 H 0.54601 0.9457 0.07047 0.0
H1425 H 0.5772 0.98211 0.12942 0.0
H1426 H 0.64365 0.94842 0.18977 0.0
H1427 H 0.62667 0.96841 0.16276 0.0
C1428 C 0.56787 0.52802 0.56002 0.0
C1429 C 0.55424 0.53615 0.55781 0.0
C1430 C 0.58511 0.53743 0.57381 0.0
C1431 C 0.60791 0.5748 0.61927 0.0
H1432 H 0.65822 0.57364 0.60306 0.0
C1433 C 0.68817 0.61772 0.66484 0.0
C1434 C 0.69623 0.60456 0.67056 0.0
C1435 C 0.67089 0.61058 0.65104 0.0
C1436 C 0.64425 0.57404 0.60777 0.0
H1437 H 0.54792 0.56049 0.56841 0.0
H1438 H 0.57859 0.5775 0.59205 0.0
H1439 H 0.62825 0.55963 0.57877 0.0
H1440 H 0.69182 0.57317 0.66668 0.0
H1441 H 0.6623 0.56115 0.64196 0.0
H1442 H 0.62448 0.58982 0.64813 0.0
C1443 C 0.57567 0.56352 0.58347 0.0
C1444 C 0.62698 0.56588 0.59395 0.0
C1445 C 0.55813 0.55384 0.56986 0.0
C1446 C 0.68642 0.58397 0.66231 0.0
C1447 C 0.66945 0.57701 0.64819 0.0
C1448 C 0.62539 0.58333 0.63295 0.0
C1449 C 0.58948 0.55549 0.58551 0.0
C1450 C 0.60838 0.56572 0.59968 0.0
C1451 C 0.66153 0.59023 0.64245 0.0
C1452 C 0.64355 0.58266 0.62746 0.0
H1453 H 0.56514 0.51422 0.55119 0.0
H1454 H 0.59493 0.53036 0.57536 0.0
H1455 H 0.59385 0.57479 0.62436 0.0
H1456 H 0.69524 0.63354 0.67116 0.0
H1457 H 0.66502 0.62105 0.64683 0.0
C1458 C 0.01222 0.55331 0.06116 0.0
C1459 C 0.02655 0.54919 0.05049 0.0
C1460 C 0.01945 0.57015 0.07548 0.0
C1461 C 0.06188 0.60139 0.11209 0.0
H1462 H 0.05013 0.64674 0.10269 0.0
C1463 C 0.10639 0.67868 0.15891 0.0
C1464 C 0.09607 0.68986 0.16402 0.0
C1465 C 0.09697 0.66132 0.14532 0.0
C1466 C 0.05327 0.63406 0.10585 0.0
H1467 H 0.05958 0.55917 0.04667 0.0
H1468 H 0.07208 0.58808 0.07216 0.0
H1469 H 0.03459 0.61621 0.07903 0.0
H1470 H 0.0674 0.69098 0.15959 0.0
H1471 H 0.05048 0.66009 0.13655 0.0
H1472 H 0.08 0.6186 0.13914 0.0
C1473 C 0.05533 0.57849 0.06921 0.0
C1474 C 0.04441 0.61664 0.09221 0.0
C1475 C 0.04817 0.56202 0.05458 0.0
C1476 C 0.07587 0.6829 0.1556 0.0
C1477 C 0.06625 0.66526 0.1423 0.0
C1478 C 0.07038 0.61855 0.12596 0.0
C1479 C 0.04106 0.58275 0.07971 0.0
C1480 C 0.04894 0.60035 0.09505 0.0
C1481 C 0.07668 0.65421 0.13696 0.0
C1482 C 0.06653 0.63534 0.12283 0.0
H1483 H 0.99548 0.54371 0.05824 0.0
H1484 H 0.00819 0.57317 0.08347 0.0
H1485 H 0.0654 0.58887 0.11467 0.0
H1486 H 0.12182 0.68331 0.16537 0.0
H1487 H 0.10573 0.65356 0.14132 0.0
loop_
_geom_bond_atom_site_label_1
_geom_bond_atom_site_label_2
_geom_bond_distance
_geom_bond_site_symmetry_2
_ccdc_geom_bond_type
C0 O2 1.247 . S
C0 O4 1.258 . S
C1 O8 1.247 . S
C1 O9 1.258 1_455 S
O2 C0 1.247 . S
O2 Zn3 2.028 . S
Zn3 O2 2.028 . S
Zn3 O7 2.035 1_454 S
Zn3 O9 2.035 1_454 S
Zn3 O10 2.028 . S
O4 C0 1.258 . S
O4 Zn5 2.035 1_554 S
Zn5 O4 2.035 1_556 S
Zn5 O6 2.028 . S
Zn5 O8 2.028 . S
Zn5 O11 2.035 1_556 S
O6 Zn5 2.028 . S
O6 C12 1.247 . S
O7 Zn3 2.035 1_656 S
O7 C12 1.258 1_655 S
O8 C1 1.247 . S
O8 Zn5 2.028 . S
O9 C1 1.258 1_655 S
O9 Zn3 2.035 1_656 S
O10 Zn3 2.028 . S
O10 C13 1.247 . S
O11 Zn5 2.035 1_554 S
O11 C13 1.258 . S
C12 O6 1.247 . S
C12 O7 1.258 1_455 S
C13 O10 1.247 . S
C13 O11 1.258 . S
C14 O16 1.247 . S
C14 O18 1.258 . S
C15 O22 1.247 1_565 S
C15 O23 1.258 . S
O16 C14 1.247 . S
O16 Zn17 2.028 1_545 S
Zn17 O16 2.028 1_565 S
Zn17 O21 2.035 . S
Zn17 O23 2.035 . S
Zn17 O24 2.028 1_565 S
O18 C14 1.258 . S
O18 Zn19 2.035 . S
Zn19 O18 2.035 . S
Zn19 O20 2.028 . S
Zn19 O22 2.028 . S
Zn19 O25 2.035 . S
O20 Zn19 2.028 . S
O20 C26 1.247 1_545 S
O21 Zn17 2.035 . S
O21 C26 1.258 . S
O22 C15 1.247 1_545 S
O22 Zn19 2.028 . S
O23 C15 1.258 . S
O23 Zn17 2.035 . S
O24 Zn17 2.028 1_545 S
O24 C27 1.247 . S
O25 Zn19 2.035 . S
O25 C27 1.258 . S
C26 O20 1.247 1_565 S
C26 O21 1.258 . S
C27 O24 1.247 . S
C27 O25 1.258 . S
C28 O30 1.247 . S
C28 O32 1.258 1_556 S
C29 O36 1.247 . S
C29 O37 1.258 . S
O30 C28 1.247 . S
O30 Zn31 2.028 1_556 S
Zn31 O30 2.028 1_554 S
Zn31 O35 2.035 . S
Zn31 O37 2.035 . S
Zn31 O38 2.028 1_554 S
O32 C28 1.258 1_554 S
O32 Zn33 2.035 . S
Zn33 O32 2.035 . S
Zn33 O34 2.028 . S
Zn33 O36 2.028 . S
Zn33 O39 2.035 . S
O34 Zn33 2.028 . S
O34 C40 1.247 . S
O35 Zn31 2.035 . S
O35 C40 1.258 . S
O36 C29 1.247 . S
O36 Zn33 2.028 . S
O37 C29 1.258 . S
O37 Zn31 2.035 . S
O38 Zn31 2.028 1_556 S
O38 C41 1.247 . S
O39 Zn33 2.035 . S
O39 C41 1.258 1_554 S
C40 O34 1.247 . S
C40 O35 1.258 . S
C41 O38 1.247 . S
C41 O39 1.258 1_556 S
C42 O44 1.247 . S
C42 O46 1.258 . S
C43 O50 1.247 . S
C43 O51 1.258 1_655 S
O44 C42 1.247 . S
O44 Zn45 2.028 . S
Zn45 O44 2.028 . S
Zn45 O49 2.035 . S
Zn45 O51 2.035 . S
Zn45 O52 2.028 . S
O46 C42 1.258 . S
O46 Zn47 2.035 1_455 S
Zn47 O46 2.035 1_655 S
Zn47 O48 2.028 . S
Zn47 O50 2.028 . S
Zn47 O53 2.035 1_655 S
O48 Zn47 2.028 . S
O48 C54 1.247 . S
O49 Zn45 2.035 . S
O49 C54 1.258 1_455 S
O50 C43 1.247 . S
O50 Zn47 2.028 . S
O51 C43 1.258 1_455 S
O51 Zn45 2.035 . S
O52 Zn45 2.028 . S
O52 C55 1.247 . S
O53 Zn47 2.035 1_455 S
O53 C55 1.258 . S
C54 O48 1.247 . S
C54 O49 1.258 1_655 S
C55 O52 1.247 . S
C55 O53 1.258 . S
C56 O58 1.247 1_565 S
C56 O60 1.258 . S
C57 O64 1.247 . S
C57 O65 1.258 1_556 S
O58 C56 1.247 1_545 S
O58 Zn59 2.028 . S
Zn59 O58 2.028 . S
Zn59 O63 2.035 . S
Zn59 O65 2.035 . S
Zn59 O66 2.028 . S
O60 C56 1.258 . S
O60 Zn61 2.035 . S
Zn61 O60 2.035 . S
Zn61 O62 2.028 1_564 S
Zn61 O64 2.028 1_564 S
Zn61 O67 2.035 . S
O62 Zn61 2.028 1_546 S
O62 C68 1.247 . S
O63 Zn59 2.035 . S
O63 C68 1.258 1_554 S
O64 C57 1.247 . S
O64 Zn61 2.028 1_546 S
O65 C57 1.258 1_554 S
O65 Zn59 2.035 . S
O66 Zn59 2.028 . S
O66 C69 1.247 1_545 S
O67 Zn61 2.035 . S
O67 C69 1.258 . S
C68 O62 1.247 . S
C68 O63 1.258 1_556 S
C69 O66 1.247 1_565 S
C69 O67 1.258 . S
C70 O72 1.247 . S
C70 O74 1.258 . S
C71 O78 1.247 . S
C71 O79 1.258 . S
O72 C70 1.247 . S
O72 Zn73 2.028 . S
Zn73 O72 2.028 . S
Zn73 O77 2.035 . S
Zn73 O79 2.035 . S
Zn73 O80 2.028 . S
O74 C70 1.258 . S
O74 Zn75 2.035 . S
Zn75 O74 2.035 . S
Zn75 O76 2.028 . S
Zn75 O78 2.028 . S
Zn75 O81 2.035 . S
O76 Zn75 2.028 . S
O76 C82 1.247 . S
O77 Zn73 2.035 . S
O77 C82 1.258 . S
O78 C71 1.247 . S
O78 Zn75 2.028 . S
O79 C71 1.258 . S
O79 Zn73 2.035 . S
O80 Zn73 2.028 . S
O80 C83 1.247 . S
O81 Zn75 2.035 . S
O81 C83 1.258 . S
C82 O76 1.247 . S
C82 O77 1.258 . S
C83 O80 1.247 . S
C83 O81 1.258 . S
C84 C85 1.560 . S
C84 H145 0.959 . S
C84 H146 0.959 . S
C84 H147 0.960 . S
C85 C84 1.560 . S
C85 O140 1.426 . S
C85 H144 0.980 . S
C86 C87 1.407 . S
C86 C91 1.418 . S
C86 O140 1.334 . S
C87 C86 1.407 . S
C87 C88 1.360 . S
C87 H148 0.929 . S
C88 C87 1.360 . S
C88 C89 1.401 . S
C88 C92 1.527 . S
C89 C88 1.401 . S
C89 C90 1.405 . S
C89 C122 1.587 . S
C90 C89 1.405 . S
C90 C91 1.332 . S
C90 C93 1.496 . S
C91 C86 1.418 . S
C91 C90 1.332 . S
C91 H149 0.929 . S
C92 C88 1.527 . S
C92 H150 0.959 . S
C92 H151 0.961 . S
C92 H152 0.961 . S
C93 C90 1.496 . S
C93 H153 0.960 . S
C93 H154 0.960 . S
C93 H155 0.961 . S
C94 C95 1.517 . S
C94 H157 0.961 . S
C94 H158 0.960 . S
C94 H159 0.959 . S
C95 C94 1.517 . S
C95 O143 1.468 . S
C95 H156 0.980 . S
C96 C97 1.349 . S
C96 C101 1.367 . S
C96 O143 1.408 . S
C97 C96 1.349 . S
C97 C98 1.407 . S
C97 H160 0.930 . S
C98 C97 1.407 . S
C98 C99 1.449 . S
C98 C102 1.535 . S
C99 C98 1.449 . S
C99 C100 1.384 . S
C99 C124 1.553 . S
C100 C99 1.384 . S
C100 C101 1.364 . S
C100 C103 1.450 . S
C101 C96 1.367 . S
C101 C100 1.364 . S
C101 H161 0.931 . S
C102 C98 1.535 . S
C102 H162 0.959 . S
C102 H163 0.961 . S
C102 H164 0.959 . S
C103 C100 1.450 . S
C103 H165 0.960 . S
C103 H166 0.960 . S
C103 H167 0.960 . S
C104 C105 1.309 . S
C104 C109 1.304 . S
C104 O142 1.435 . S
C105 C104 1.309 . S
C105 C106 1.476 . S
C105 H169 0.930 . S
C106 C105 1.476 . S
C106 C107 1.400 . S
C106 C110 1.567 . S
C107 C106 1.400 . S
C107 C108 1.373 . S
C107 C129 1.432 . S
C108 C107 1.373 . S
C108 C109 1.339 . S
C108 C111 1.530 . S
C109 C104 1.304 . S
C109 C108 1.339 . S
C109 H170 0.930 . S
C110 C106 1.567 . S
C110 H171 0.961 . S
C110 H172 0.960 . S
C110 H173 0.958 . S
C111 C108 1.530 . S
C111 H174 0.961 . S
C111 H175 0.960 . S
C111 H176 0.960 . S
C112 C113 1.530 . S
C112 H178 0.961 . S
C112 H179 0.961 . S
C112 H180 0.959 . S
C113 C112 1.530 . S
C113 O141 1.412 . S
C113 H177 0.980 . S
C114 C115 1.288 . S
C114 C119 1.377 . S
C114 O141 1.393 . S
C115 C114 1.288 . S
C115 C116 1.369 . S
C115 H181 0.932 . S
C116 C115 1.369 . S
C116 C117 1.398 . S
C116 C120 1.527 . S
C117 C116 1.398 . S
C117 C118 1.380 . S
C117 C131 1.497 . S
C118 C117 1.380 . S
C118 C119 1.383 . S
C118 C121 1.603 . S
C119 C114 1.377 . S
C119 C118 1.383 . S
C119 H182 0.929 . S
C120 C116 1.527 . S
C120 H183 0.961 . S
C120 H184 0.959 . S
C120 H185 0.959 . S
C121 C118 1.603 . S
C121 H186 0.960 . S
C121 H187 0.962 . S
C121 H188 0.961 . S
C122 C89 1.587 . S
C122 C123 1.360 . S
C122 C135 1.412 . S
C123 C122 1.360 . S
C123 C124 1.365 . S
C123 H189 0.929 . S
C124 C99 1.553 . S
C124 C123 1.365 . S
C124 C125 1.404 . S
C125 C124 1.404 . S
C125 C126 1.395 . S
C125 C136 1.451 . S
C126 C125 1.395 . S
C126 C127 1.322 . S
C126 H190 0.930 . S
C127 C126 1.322 . S
C127 C128 1.459 . S
C127 H191 0.929 . S
C128 C127 1.459 . S
C128 C129 1.445 . S
C128 C137 1.395 . S
C129 C107 1.432 . S
C129 C128 1.445 . S
C129 C130 1.370 . S
C130 C129 1.370 . S
C130 C131 1.438 . S
C130 H192 0.930 . S
C131 C117 1.497 . S
C131 C130 1.438 . S
C131 C132 1.360 . S
C132 C131 1.360 . S
C132 C133 1.401 . S
C132 C137 1.446 . S
C133 C132 1.401 . S
C133 C134 1.347 . S
C133 H193 0.929 . S
C134 C133 1.347 . S
C134 C135 1.455 . S
C134 H194 0.930 . S
C135 C122 1.412 . S
C135 C134 1.455 . S
C135 C136 1.331 . S
C136 C125 1.451 . S
C136 C135 1.331 . S
C136 C137 1.497 . S
C137 C128 1.395 . S
C137 C132 1.446 . S
C137 C136 1.497 . S
C138 C139 1.582 . S
C138 H195 0.962 . S
C138 H196 0.959 . S
C138 H197 0.958 . S
C139 C138 1.582 . S
C139 O142 1.458 . S
C139 H168 0.980 . S
O140 C85 1.426 . S
O140 C86 1.334 . S
O141 C113 1.412 . S
O141 C114 1.393 . S
O142 C104 1.435 . S
O142 C139 1.458 . S
O143 C95 1.468 . S
O143 C96 1.408 . S
H144 C85 0.980 . S
H145 C84 0.959 . S
H146 C84 0.959 . S
H147 C84 0.960 . S
H148 C87 0.929 . S
H149 C91 0.929 . S
H150 C92 0.959 . S
H151 C92 0.961 . S
H152 C92 0.961 . S
H153 C93 0.960 . S
H154 C93 0.960 . S
H155 C93 0.961 . S
H156 C95 0.980 . S
H157 C94 0.961 . S
H158 C94 0.960 . S
H159 C94 0.959 . S
H160 C97 0.930 . S
H161 C101 0.931 . S
H162 C102 0.959 . S
H163 C102 0.961 . S
H164 C102 0.959 . S
H165 C103 0.960 . S
H166 C103 0.960 . S
H167 C103 0.960 . S
H168 C139 0.980 . S
H169 C105 0.930 . S
H170 C109 0.930 . S
H171 C110 0.961 . S
H172 C110 0.960 . S
H173 C110 0.958 . S
H174 C111 0.961 . S
H175 C111 0.960 . S
H176 C111 0.960 . S
H177 C113 0.980 . S
H178 C112 0.961 . S
H179 C112 0.961 . S
H180 C112 0.959 . S
H181 C115 0.932 . S
H182 C119 0.929 . S
H183 C120 0.961 . S
H184 C120 0.959 . S
H185 C120 0.959 . S
H186 C121 0.960 . S
H187 C121 0.962 . S
H188 C121 0.961 . S
H189 C123 0.929 . S
H190 C126 0.930 . S
H191 C127 0.929 . S
H192 C130 0.930 . S
H193 C133 0.929 . S
H194 C134 0.930 . S
H195 C138 0.962 . S
H196 C138 0.959 . S
H197 C138 0.958 . S
C198 C199 1.560 . S
C198 H259 0.959 . S
C198 H260 0.959 . S
C198 H261 0.960 . S
C199 C198 1.560 . S
C199 O254 1.426 . S
C199 H258 0.980 . S
C200 C201 1.407 . S
C200 C205 1.418 . S
C200 O254 1.334 . S
C201 C200 1.407 . S
C201 C202 1.360 . S
C201 H262 0.929 . S
C202 C201 1.360 . S
C202 C203 1.401 . S
C202 C206 1.527 . S
C203 C202 1.401 . S
C203 C204 1.405 . S
C203 C236 1.587 . S
C204 C203 1.405 . S
C204 C205 1.332 . S
C204 C207 1.496 . S
C205 C200 1.418 . S
C205 C204 1.332 . S
C205 H263 0.929 . S
C206 C202 1.527 . S
C206 H264 0.959 . S
C206 H265 0.961 . S
C206 H266 0.961 . S
C207 C204 1.496 . S
C207 H267 0.960 . S
C207 H268 0.960 . S
C207 H269 0.961 . S
C208 C209 1.517 . S
C208 H271 0.961 . S
C208 H272 0.960 . S
C208 H273 0.959 . S
C209 C208 1.517 . S
C209 O257 1.468 . S
C209 H270 0.980 . S
C210 C211 1.349 . S
C210 C215 1.367 . S
C210 O257 1.408 . S
C211 C210 1.349 . S
C211 C212 1.407 . S
C211 H274 0.930 . S
C212 C211 1.407 . S
C212 C213 1.449 . S
C212 C216 1.535 . S
C213 C212 1.449 . S
C213 C214 1.384 . S
C213 C238 1.553 . S
C214 C213 1.384 . S
C214 C215 1.364 . S
C214 C217 1.450 . S
C215 C210 1.367 . S
C215 C214 1.364 . S
C215 H275 0.931 . S
C216 C212 1.535 . S
C216 H276 0.959 . S
C216 H277 0.961 . S
C216 H278 0.959 . S
C217 C214 1.450 . S
C217 H279 0.960 . S
C217 H280 0.960 . S
C217 H281 0.960 . S
C218 C219 1.309 . S
C218 C223 1.304 . S
C218 O256 1.435 . S
C219 C218 1.309 . S
C219 C220 1.476 . S
C219 H283 0.930 . S
C220 C219 1.476 . S
C220 C221 1.400 . S
C220 C224 1.567 . S
C221 C220 1.400 . S
C221 C222 1.373 . S
C221 C243 1.432 . S
C222 C221 1.373 . S
C222 C223 1.339 . S
C222 C225 1.530 . S
C223 C218 1.304 . S
C223 C222 1.339 . S
C223 H284 0.930 . S
C224 C220 1.567 . S
C224 H285 0.961 . S
C224 H286 0.960 . S
C224 H287 0.958 . S
C225 C222 1.530 . S
C225 H288 0.961 . S
C225 H289 0.960 . S
C225 H290 0.960 . S
C226 C227 1.530 . S
C226 H292 0.961 . S
C226 H293 0.961 . S
C226 H294 0.959 . S
C227 C226 1.530 . S
C227 O255 1.412 . S
C227 H291 0.980 . S
C228 C229 1.288 . S
C228 C233 1.377 . S
C228 O255 1.393 . S
C229 C228 1.288 . S
C229 C230 1.369 . S
C229 H295 0.932 . S
C230 C229 1.369 . S
C230 C231 1.398 . S
C230 C234 1.527 . S
C231 C230 1.398 . S
C231 C232 1.380 . S
C231 C245 1.497 . S
C232 C231 1.380 . S
C232 C233 1.383 . S
C232 C235 1.603 . S
C233 C228 1.377 . S
C233 C232 1.383 . S
C233 H296 0.929 . S
C234 C230 1.527 . S
C234 H297 0.961 . S
C234 H298 0.959 . S
C234 H299 0.959 . S
C235 C232 1.603 . S
C235 H300 0.960 . S
C235 H301 0.962 . S
C235 H302 0.961 . S
C236 C203 1.587 . S
C236 C237 1.360 . S
C236 C249 1.412 . S
C237 C236 1.360 . S
C237 C238 1.365 . S
C237 H303 0.929 . S
C238 C213 1.553 . S
C238 C237 1.365 . S
C238 C239 1.404 . S
C239 C238 1.404 . S
C239 C240 1.395 . S
C239 C250 1.451 . S
C240 C239 1.395 . S
C240 C241 1.322 . S
C240 H304 0.930 . S
C241 C240 1.322 . S
C241 C242 1.459 . S
C241 H305 0.929 . S
C242 C241 1.459 . S
C242 C243 1.445 . S
C242 C251 1.395 . S
C243 C221 1.432 . S
C243 C242 1.445 . S
C243 C244 1.370 . S
C244 C243 1.370 . S
C244 C245 1.438 . S
C244 H306 0.930 . S
C245 C231 1.497 . S
C245 C244 1.438 . S
C245 C246 1.360 . S
C246 C245 1.360 . S
C246 C247 1.401 . S
C246 C251 1.446 . S
C247 C246 1.401 . S
C247 C248 1.347 . S
C247 H307 0.929 . S
C248 C247 1.347 . S
C248 C249 1.455 . S
C248 H308 0.930 . S
C249 C236 1.412 . S
C249 C248 1.455 . S
C249 C250 1.331 . S
C250 C239 1.451 . S
C250 C249 1.331 . S
C250 C251 1.497 . S
C251 C242 1.395 . S
C251 C246 1.446 . S
C251 C250 1.497 . S
C252 C253 1.582 . S
C252 H309 0.962 . S
C252 H310 0.959 . S
C252 H311 0.958 . S
C253 C252 1.582 . S
C253 O256 1.458 . S
C253 H282 0.980 . S
O254 C199 1.426 . S
O254 C200 1.334 . S
O255 C227 1.412 . S
O255 C228 1.393 . S
O256 C218 1.435 . S
O256 C253 1.458 . S
O257 C209 1.468 . S
O257 C210 1.408 . S
H258 C199 0.980 . S
H259 C198 0.959 . S
H260 C198 0.959 . S
H261 C198 0.960 . S
H262 C201 0.929 . S
H263 C205 0.929 . S
H264 C206 0.959 . S
H265 C206 0.961 . S
H266 C206 0.961 . S
H267 C207 0.960 . S
H268 C207 0.960 . S
H269 C207 0.961 . S
H270 C209 0.980 . S
H271 C208 0.961 . S
H272 C208 0.960 . S
H273 C208 0.959 . S
H274 C211 0.930 . S
H275 C215 0.931 . S
H276 C216 0.959 . S
H277 C216 0.961 . S
H278 C216 0.959 . S
H279 C217 0.960 . S
H280 C217 0.960 . S
H281 C217 0.960 . S
H282 C253 0.980 . S
H283 C219 0.930 . S
H284 C223 0.930 . S
H285 C224 0.961 . S
H286 C224 0.960 . S
H287 C224 0.958 . S
H288 C225 0.961 . S
H289 C225 0.960 . S
H290 C225 0.960 . S
H291 C227 0.980 . S
H292 C226 0.961 . S
H293 C226 0.961 . S
H294 C226 0.959 . S
H295 C229 0.932 . S
H296 C233 0.929 . S
H297 C234 0.961 . S
H298 C234 0.959 . S
H299 C234 0.959 . S
H300 C235 0.960 . S
H301 C235 0.962 . S
H302 C235 0.961 . S
H303 C237 0.929 . S
H304 C240 0.930 . S
H305 C241 0.929 . S
H306 C244 0.930 . S
H307 C247 0.929 . S
H308 C248 0.930 . S
H309 C252 0.962 . S
H310 C252 0.959 . S
H311 C252 0.958 . S
C312 C313 1.560 . S
C312 H373 0.959 . S
C312 H374 0.959 . S
C312 H375 0.960 . S
C313 C312 1.560 . S
C313 O368 1.426 . S
C313 H372 0.980 . S
C314 C315 1.407 . S
C314 C319 1.418 . S
C314 O368 1.334 . S
C315 C314 1.407 . S
C315 C316 1.360 . S
C315 H376 0.929 . S
C316 C315 1.360 . S
C316 C317 1.401 . S
C316 C320 1.527 . S
C317 C316 1.401 . S
C317 C318 1.405 . S
C317 C350 1.587 . S
C318 C317 1.405 . S
C318 C319 1.332 . S
C318 C321 1.496 . S
C319 C314 1.418 . S
C319 C318 1.332 . S
C319 H377 0.929 . S
C320 C316 1.527 . S
C320 H378 0.959 . S
C320 H379 0.961 . S
C320 H380 0.961 . S
C321 C318 1.496 . S
C321 H381 0.960 . S
C321 H382 0.960 . S
C321 H383 0.961 . S
C322 C323 1.517 . S
C322 H385 0.961 . S
C322 H386 0.960 . S
C322 H387 0.959 . S
C323 C322 1.517 . S
C323 O371 1.468 . S
C323 H384 0.980 . S
C324 C325 1.349 . S
C324 C329 1.367 . S
C324 O371 1.408 . S
C325 C324 1.349 . S
C325 C326 1.407 . S
C325 H388 0.930 . S
C326 C325 1.407 . S
C326 C327 1.449 . S
C326 C330 1.535 . S
C327 C326 1.449 . S
C327 C328 1.384 . S
C327 C352 1.553 . S
C328 C327 1.384 . S
C328 C329 1.364 . S
C328 C331 1.450 . S
C329 C324 1.367 . S
C329 C328 1.364 . S
C329 H389 0.931 . S
C330 C326 1.535 . S
C330 H390 0.959 . S
C330 H391 0.961 . S
C330 H392 0.959 . S
C331 C328 1.450 . S
C331 H393 0.960 . S
C331 H394 0.960 . S
C331 H395 0.960 . S
C332 C333 1.309 . S
C332 C337 1.304 . S
C332 O370 1.435 . S
C333 C332 1.309 . S
C333 C334 1.476 . S
C333 H397 0.930 . S
C334 C333 1.476 . S
C334 C335 1.400 . S
C334 C338 1.567 . S
C335 C334 1.400 . S
C335 C336 1.373 . S
C335 C357 1.432 . S
C336 C335 1.373 . S
C336 C337 1.339 . S
C336 C339 1.530 . S
C337 C332 1.304 . S
C337 C336 1.339 . S
C337 H398 0.930 . S
C338 C334 1.567 . S
C338 H399 0.961 . S
C338 H400 0.960 . S
C338 H401 0.958 . S
C339 C336 1.530 . S
C339 H402 0.961 . S
C339 H403 0.960 . S
C339 H404 0.960 . S
C340 C341 1.530 . S
C340 H406 0.961 . S
C340 H407 0.961 . S
C340 H408 0.959 . S
C341 C340 1.530 . S
C341 O369 1.412 . S
C341 H405 0.980 . S
C342 C343 1.288 . S
C342 C347 1.377 . S
C342 O369 1.393 . S
C343 C342 1.288 . S
C343 C344 1.369 . S
C343 H409 0.932 . S
C344 C343 1.369 . S
C344 C345 1.398 . S
C344 C348 1.527 . S
C345 C344 1.398 . S
C345 C346 1.380 . S
C345 C359 1.497 . S
C346 C345 1.380 . S
C346 C347 1.383 . S
C346 C349 1.603 . S
C347 C342 1.377 . S
C347 C346 1.383 . S
C347 H410 0.929 . S
C348 C344 1.527 . S
C348 H411 0.961 . S
C348 H412 0.959 . S
C348 H413 0.959 . S
C349 C346 1.603 . S
C349 H414 0.960 . S
C349 H415 0.962 . S
C349 H416 0.961 . S
C350 C317 1.587 . S
C350 C351 1.360 . S
C350 C363 1.412 . S
C351 C350 1.360 . S
C351 C352 1.365 . S
C351 H417 0.929 . S
C352 C327 1.553 . S
C352 C351 1.365 . S
C352 C353 1.404 . S
C353 C352 1.404 . S
C353 C354 1.395 . S
C353 C364 1.451 . S
C354 C353 1.395 . S
C354 C355 1.322 . S
C354 H418 0.930 . S
C355 C354 1.322 . S
C355 C356 1.459 . S
C355 H419 0.929 . S
C356 C355 1.459 . S
C356 C357 1.445 . S
C356 C365 1.395 . S
C357 C335 1.432 . S
C357 C356 1.445 . S
C357 C358 1.370 . S
C358 C357 1.370 . S
C358 C359 1.438 . S
C358 H420 0.930 . S
C359 C345 1.497 . S
C359 C358 1.438 . S
C359 C360 1.360 . S
C360 C359 1.360 . S
C360 C361 1.401 . S
C360 C365 1.446 . S
C361 C360 1.401 . S
C361 C362 1.347 . S
C361 H421 0.929 . S
C362 C361 1.347 . S
C362 C363 1.455 . S
C362 H422 0.930 . S
C363 C350 1.412 . S
C363 C362 1.455 . S
C363 C364 1.331 . S
C364 C353 1.451 . S
C364 C363 1.331 . S
C364 C365 1.497 . S
C365 C356 1.395 . S
C365 C360 1.446 . S
C365 C364 1.497 . S
C366 C367 1.582 . S
C366 H423 0.962 . S
C366 H424 0.959 . S
C366 H425 0.958 . S
C367 C366 1.582 . S
C367 O370 1.458 . S
C367 H396 0.980 . S
O368 C313 1.426 . S
O368 C314 1.334 . S
O369 C341 1.412 . S
O369 C342 1.393 . S
O370 C332 1.435 . S
O370 C367 1.458 . S
O371 C323 1.468 . S
O371 C324 1.408 . S
H372 C313 0.980 . S
H373 C312 0.959 . S
H374 C312 0.959 . S
H375 C312 0.960 . S
H376 C315 0.929 . S
H377 C319 0.929 . S
H378 C320 0.959 . S
H379 C320 0.961 . S
H380 C320 0.961 . S
H381 C321 0.960 . S
H382 C321 0.960 . S
H383 C321 0.961 . S
H384 C323 0.980 . S
H385 C322 0.961 . S
H386 C322 0.960 . S
H387 C322 0.959 . S
H388 C325 0.930 . S
H389 C329 0.931 . S
H390 C330 0.959 . S
H391 C330 0.961 . S
H392 C330 0.959 . S
H393 C331 0.960 . S
H394 C331 0.960 . S
H395 C331 0.960 . S
H396 C367 0.980 . S
H397 C333 0.930 . S
H398 C337 0.930 . S
H399 C338 0.961 . S
H400 C338 0.960 . S
H401 C338 0.958 . S
H402 C339 0.961 . S
H403 C339 0.960 . S
H404 C339 0.960 . S
H405 C341 0.980 . S
H406 C340 0.961 . S
H407 C340 0.961 . S
H408 C340 0.959 . S
H409 C343 0.932 . S
H410 C347 0.929 . S
H411 C348 0.961 . S
H412 C348 0.959 . S
H413 C348 0.959 . S
H414 C349 0.960 . S
H415 C349 0.962 . S
H416 C349 0.961 . S
H417 C351 0.929 . S
H418 C354 0.930 . S
H419 C355 0.929 . S
H420 C358 0.930 . S
H421 C361 0.929 . S
H422 C362 0.930 . S
H423 C366 0.962 . S
H424 C366 0.959 . S
H425 C366 0.958 . S
C426 C427 1.560 . S
C426 H487 0.959 . S
C426 H488 0.959 . S
C426 H489 0.960 . S
C427 C426 1.560 . S
C427 O482 1.426 . S
C427 H486 0.980 . S
C428 C429 1.407 . S
C428 C433 1.418 . S
C428 O482 1.334 . S
C429 C428 1.407 . S
C429 C430 1.360 . S
C429 H490 0.929 . S
C430 C429 1.360 . S
C430 C431 1.401 . S
C430 C434 1.527 . S
C431 C430 1.401 . S
C431 C432 1.405 . S
C431 C464 1.587 . S
C432 C431 1.405 . S
C432 C433 1.332 . S
C432 C435 1.496 . S
C433 C428 1.418 . S
C433 C432 1.332 . S
C433 H491 0.929 . S
C434 C430 1.527 . S
C434 H492 0.959 . S
C434 H493 0.961 . S
C434 H494 0.961 . S
C435 C432 1.496 . S
C435 H495 0.960 . S
C435 H496 0.960 . S
C435 H497 0.961 . S
C436 C437 1.517 . S
C436 H499 0.961 . S
C436 H500 0.960 . S
C436 H501 0.959 . S
C437 C436 1.517 . S
C437 O485 1.468 . S
C437 H498 0.980 . S
C438 C439 1.349 . S
C438 C443 1.367 . S
C438 O485 1.408 . S
C439 C438 1.349 . S
C439 C440 1.407 . S
C439 H502 0.930 . S
C440 C439 1.407 . S
C440 C441 1.449 . S
C440 C444 1.535 . S
C441 C440 1.449 . S
C441 C442 1.384 . S
C441 C466 1.553 . S
C442 C441 1.384 . S
C442 C443 1.364 . S
C442 C445 1.450 . S
C443 C438 1.367 . S
C443 C442 1.364 . S
C443 H503 0.931 . S
C444 C440 1.535 . S
C444 H504 0.959 . S
C444 H505 0.961 . S
C444 H506 0.959 . S
C445 C442 1.450 . S
C445 H507 0.960 . S
C445 H508 0.960 . S
C445 H509 0.960 . S
C446 C447 1.309 . S
C446 C451 1.304 . S
C446 O484 1.435 . S
C447 C446 1.309 . S
C447 C448 1.476 . S
C447 H511 0.930 . S
C448 C447 1.476 . S
C448 C449 1.400 . S
C448 C452 1.567 . S
C449 C448 1.400 . S
C449 C450 1.373 . S
C449 C471 1.432 . S
C450 C449 1.373 . S
C450 C451 1.339 . S
C450 C453 1.530 . S
C451 C446 1.304 . S
C451 C450 1.339 . S
C451 H512 0.930 . S
C452 C448 1.567 . S
C452 H513 0.961 . S
C452 H514 0.960 . S
C452 H515 0.958 . S
C453 C450 1.530 . S
C453 H516 0.961 . S
C453 H517 0.960 . S
C453 H518 0.960 . S
C454 C455 1.530 . S
C454 H520 0.961 . S
C454 H521 0.961 . S
C454 H522 0.959 . S
C455 C454 1.530 . S
C455 O483 1.412 . S
C455 H519 0.980 . S
C456 C457 1.288 . S
C456 C461 1.377 . S
C456 O483 1.393 . S
C457 C456 1.288 . S
C457 C458 1.369 . S
C457 H523 0.932 . S
C458 C457 1.369 . S
C458 C459 1.398 . S
C458 C462 1.527 . S
C459 C458 1.398 . S
C459 C460 1.380 . S
C459 C473 1.497 . S
C460 C459 1.380 . S
C460 C461 1.383 . S
C460 C463 1.603 . S
C461 C456 1.377 . S
C461 C460 1.383 . S
C461 H524 0.929 . S
C462 C458 1.527 . S
C462 H525 0.961 . S
C462 H526 0.959 . S
C462 H527 0.959 . S
C463 C460 1.603 . S
C463 H528 0.960 . S
C463 H529 0.962 . S
C463 H530 0.961 . S
C464 C431 1.587 . S
C464 C465 1.360 . S
C464 C477 1.412 . S
C465 C464 1.360 . S
C465 C466 1.365 . S
C465 H531 0.929 . S
C466 C441 1.553 . S
C466 C465 1.365 . S
C466 C467 1.404 . S
C467 C466 1.404 . S
C467 C468 1.395 . S
C467 C478 1.451 . S
C468 C467 1.395 . S
C468 C469 1.322 . S
C468 H532 0.930 . S
C469 C468 1.322 . S
C469 C470 1.459 . S
C469 H533 0.929 . S
C470 C469 1.459 . S
C470 C471 1.445 . S
C470 C479 1.395 . S
C471 C449 1.432 . S
C471 C470 1.445 . S
C471 C472 1.370 . S
C472 C471 1.370 . S
C472 C473 1.438 . S
C472 H534 0.930 . S
C473 C459 1.497 . S
C473 C472 1.438 . S
C473 C474 1.360 . S
C474 C473 1.360 . S
C474 C475 1.401 . S
C474 C479 1.446 . S
C475 C474 1.401 . S
C475 C476 1.347 . S
C475 H535 0.929 . S
C476 C475 1.347 . S
C476 C477 1.455 . S
C476 H536 0.930 . S
C477 C464 1.412 . S
C477 C476 1.455 . S
C477 C478 1.331 . S
C478 C467 1.451 . S
C478 C477 1.331 . S
C478 C479 1.497 . S
C479 C470 1.395 . S
C479 C474 1.446 . S
C479 C478 1.497 . S
C480 C481 1.582 . S
C480 H537 0.962 . S
C480 H538 0.959 . S
C480 H539 0.958 . S
C481 C480 1.582 . S
C481 O484 1.458 . S
C481 H510 0.980 . S
O482 C427 1.426 . S
O482 C428 1.334 . S
O483 C455 1.412 . S
O483 C456 1.393 . S
O484 C446 1.435 . S
O484 C481 1.458 . S
O485 C437 1.468 . S
O485 C438 1.408 . S
H486 C427 0.980 . S
H487 C426 0.959 . S
H488 C426 0.959 . S
H489 C426 0.960 . S
H490 C429 0.929 . S
H491 C433 0.929 . S
H492 C434 0.959 . S
H493 C434 0.961 . S
H494 C434 0.961 . S
H495 C435 0.960 . S
H496 C435 0.960 . S
H497 C435 0.961 . S
H498 C437 0.980 . S
H499 C436 0.961 . S
H500 C436 0.960 . S
H501 C436 0.959 . S
H502 C439 0.930 . S
H503 C443 0.931 . S
H504 C444 0.959 . S
H505 C444 0.961 . S
H506 C444 0.959 . S
H507 C445 0.960 . S
H508 C445 0.960 . S
H509 C445 0.960 . S
H510 C481 0.980 . S
H511 C447 0.930 . S
H512 C451 0.930 . S
H513 C452 0.961 . S
H514 C452 0.960 . S
H515 C452 0.958 . S
H516 C453 0.961 . S
H517 C453 0.960 . S
H518 C453 0.960 . S
H519 C455 0.980 . S
H520 C454 0.961 . S
H521 C454 0.961 . S
H522 C454 0.959 . S
H523 C457 0.932 . S
H524 C461 0.929 . S
H525 C462 0.961 . S
H526 C462 0.959 . S
H527 C462 0.959 . S
H528 C463 0.960 . S
H529 C463 0.962 . S
H530 C463 0.961 . S
H531 C465 0.929 . S
H532 C468 0.930 . S
H533 C469 0.929 . S
H534 C472 0.930 . S
H535 C475 0.929 . S
H536 C476 0.930 . S
H537 C480 0.962 . S
H538 C480 0.959 . S
H539 C480 0.958 . S
C540 C541 1.560 . S
C540 H601 0.959 . S
C540 H602 0.959 . S
C540 H603 0.960 . S
C541 C540 1.560 . S
C541 O596 1.426 . S
C541 H600 0.980 . S
C542 C543 1.407 . S
C542 C547 1.418 . S
C542 O596 1.334 . S
C543 C542 1.407 . S
C543 C544 1.360 . S
C543 H604 0.929 . S
C544 C543 1.360 . S
C544 C545 1.401 . S
C544 C548 1.527 . S
C545 C544 1.401 . S
C545 C546 1.405 . S
C545 C578 1.587 . S
C546 C545 1.405 . S
C546 C547 1.332 . S
C546 C549 1.496 . S
C547 C542 1.418 . S
C547 C546 1.332 . S
C547 H605 0.929 . S
C548 C544 1.527 . S
C548 H606 0.959 . S
C548 H607 0.961 . S
C548 H608 0.961 . S
C549 C546 1.496 . S
C549 H609 0.960 . S
C549 H610 0.960 . S
C549 H611 0.961 . S
C550 C551 1.517 . S
C550 H613 0.961 . S
C550 H614 0.960 . S
C550 H615 0.959 . S
C551 C550 1.517 . S
C551 O599 1.468 . S
C551 H612 0.980 . S
C552 C553 1.349 . S
C552 C557 1.367 . S
C552 O599 1.408 . S
C553 C552 1.349 . S
C553 C554 1.407 . S
C553 H616 0.930 . S
C554 C553 1.407 . S
C554 C555 1.449 . S
C554 C558 1.535 . S
C555 C554 1.449 . S
C555 C556 1.384 . S
C555 C580 1.553 . S
C556 C555 1.384 . S
C556 C557 1.364 . S
C556 C559 1.450 . S
C557 C552 1.367 . S
C557 C556 1.364 . S
C557 H617 0.931 . S
C558 C554 1.535 . S
C558 H618 0.959 . S
C558 H619 0.961 . S
C558 H620 0.959 . S
C559 C556 1.450 . S
C559 H621 0.960 . S
C559 H622 0.960 . S
C559 H623 0.960 . S
C560 C561 1.309 . S
C560 C565 1.304 . S
C560 O598 1.435 . S
C561 C560 1.309 . S
C561 C562 1.476 . S
C561 H625 0.930 . S
C562 C561 1.476 . S
C562 C563 1.400 . S
C562 C566 1.567 . S
C563 C562 1.400 . S
C563 C564 1.373 . S
C563 C585 1.432 . S
C564 C563 1.373 . S
C564 C565 1.339 . S
C564 C567 1.530 . S
C565 C560 1.304 . S
C565 C564 1.339 . S
C565 H626 0.930 . S
C566 C562 1.567 . S
C566 H627 0.961 . S
C566 H628 0.960 . S
C566 H629 0.958 . S
C567 C564 1.530 . S
C567 H630 0.961 . S
C567 H631 0.960 . S
C567 H632 0.960 . S
C568 C569 1.530 . S
C568 H634 0.961 . S
C568 H635 0.961 . S
C568 H636 0.959 . S
C569 C568 1.530 . S
C569 O597 1.412 . S
C569 H633 0.980 . S
C570 C571 1.288 . S
C570 C575 1.377 . S
C570 O597 1.393 . S
C571 C570 1.288 . S
C571 C572 1.369 . S
C571 H637 0.932 . S
C572 C571 1.369 . S
C572 C573 1.398 . S
C572 C576 1.527 . S
C573 C572 1.398 . S
C573 C574 1.380 . S
C573 C587 1.497 . S
C574 C573 1.380 . S
C574 C575 1.383 . S
C574 C577 1.603 . S
C575 C570 1.377 . S
C575 C574 1.383 . S
C575 H638 0.929 . S
C576 C572 1.527 . S
C576 H639 0.961 . S
C576 H640 0.959 . S
C576 H641 0.959 . S
C577 C574 1.603 . S
C577 H642 0.960 . S
C577 H643 0.962 . S
C577 H644 0.961 . S
C578 C545 1.587 . S
C578 C579 1.360 . S
C578 C591 1.412 . S
C579 C578 1.360 . S
C579 C580 1.365 . S
C579 H645 0.929 . S
C580 C555 1.553 . S
C580 C579 1.365 . S
C580 C581 1.404 . S
C581 C580 1.404 . S
C581 C582 1.395 . S
C581 C592 1.451 . S
C582 C581 1.395 . S
C582 C583 1.322 . S
C582 H646 0.930 . S
C583 C582 1.322 . S
C583 C584 1.459 . S
C583 H647 0.929 . S
C584 C583 1.459 . S
C584 C585 1.445 . S
C584 C593 1.395 . S
C585 C563 1.432 . S
C585 C584 1.445 . S
C585 C586 1.370 . S
C586 C585 1.370 . S
C586 C587 1.438 . S
C586 H648 0.930 . S
C587 C573 1.497 . S
C587 C586 1.438 . S
C587 C588 1.360 . S
C588 C587 1.360 . S
C588 C589 1.401 . S
C588 C593 1.446 . S
C589 C588 1.401 . S
C589 C590 1.347 . S
C589 H649 0.929 . S
C590 C589 1.347 . S
C590 C591 1.455 . S
C590 H650 0.930 . S
C591 C578 1.412 . S
C591 C590 1.455 . S
C591 C592 1.331 . S
C592 C581 1.451 . S
C592 C591 1.331 . S
C592 C593 1.497 . S
C593 C584 1.395 . S
C593 C588 1.446 . S
C593 C592 1.497 . S
C594 C595 1.582 . S
C594 H651 0.962 . S
C594 H652 0.959 . S
C594 H653 0.958 . S
C595 C594 1.582 . S
C595 O598 1.458 . S
C595 H624 0.980 . S
O596 C541 1.426 . S
O596 C542 1.334 . S
O597 C569 1.412 . S
O597 C570 1.393 . S
O598 C560 1.435 . S
O598 C595 1.458 . S
O599 C551 1.468 . S
O599 C552 1.408 . S
H600 C541 0.980 . S
H601 C540 0.959 . S
H602 C540 0.959 . S
H603 C540 0.960 . S
H604 C543 0.929 . S
H605 C547 0.929 . S
H606 C548 0.959 . S
H607 C548 0.961 . S
H608 C548 0.961 . S
H609 C549 0.960 . S
H610 C549 0.960 . S
H611 C549 0.961 . S
H612 C551 0.980 . S
H613 C550 0.961 . S
H614 C550 0.960 . S
H615 C550 0.959 . S
H616 C553 0.930 . S
H617 C557 0.931 . S
H618 C558 0.959 . S
H619 C558 0.961 . S
H620 C558 0.959 . S
H621 C559 0.960 . S
H622 C559 0.960 . S
H623 C559 0.960 . S
H624 C595 0.980 . S
H625 C561 0.930 . S
H626 C565 0.930 . S
H627 C566 0.961 . S
H628 C566 0.960 . S
H629 C566 0.958 . S
H630 C567 0.961 . S
H631 C567 0.960 . S
H632 C567 0.960 . S
H633 C569 0.980 . S
H634 C568 0.961 . S
H635 C568 0.961 . S
H636 C568 0.959 . S
H637 C571 0.932 . S
H638 C575 0.929 . S
H639 C576 0.961 . S
H640 C576 0.959 . S
H641 C576 0.959 . S
H642 C577 0.960 . S
H643 C577 0.962 . S
H644 C577 0.961 . S
H645 C579 0.929 . S
H646 C582 0.930 . S
H647 C583 0.929 . S
H648 C586 0.930 . S
H649 C589 0.929 . S
H650 C590 0.930 . S
H651 C594 0.962 . S
H652 C594 0.959 . S
H653 C594 0.958 . S
C654 C655 1.560 . S
C654 H715 0.959 . S
C654 H716 0.959 . S
C654 H717 0.960 . S
C655 C654 1.560 . S
C655 O710 1.426 . S
C655 H714 0.980 . S
C656 C657 1.407 . S
C656 C661 1.418 . S
C656 O710 1.334 . S
C657 C656 1.407 . S
C657 C658 1.360 . S
C657 H718 0.929 . S
C658 C657 1.360 . S
C658 C659 1.401 . S
C658 C662 1.527 . S
C659 C658 1.401 . S
C659 C660 1.405 . S
C659 C692 1.587 . S
C660 C659 1.405 . S
C660 C661 1.332 . S
C660 C663 1.496 . S
C661 C656 1.418 . S
C661 C660 1.332 . S
C661 H719 0.929 . S
C662 C658 1.527 . S
C662 H720 0.959 . S
C662 H721 0.961 . S
C662 H722 0.961 . S
C663 C660 1.496 . S
C663 H723 0.960 . S
C663 H724 0.960 . S
C663 H725 0.961 . S
C664 C665 1.517 . S
C664 H727 0.961 . S
C664 H728 0.960 . S
C664 H729 0.959 . S
C665 C664 1.517 . S
C665 O713 1.468 . S
C665 H726 0.980 . S
C666 C667 1.349 . S
C666 C671 1.367 . S
C666 O713 1.408 . S
C667 C666 1.349 . S
C667 C668 1.407 . S
C667 H730 0.930 . S
C668 C667 1.407 . S
C668 C669 1.449 . S
C668 C672 1.535 . S
C669 C668 1.449 . S
C669 C670 1.384 . S
C669 C694 1.553 . S
C670 C669 1.384 . S
C670 C671 1.364 . S
C670 C673 1.450 . S
C671 C666 1.367 . S
C671 C670 1.364 . S
C671 H731 0.931 . S
C672 C668 1.535 . S
C672 H732 0.959 . S
C672 H733 0.961 . S
C672 H734 0.959 . S
C673 C670 1.450 . S
C673 H735 0.960 . S
C673 H736 0.960 . S
C673 H737 0.960 . S
C674 C675 1.309 . S
C674 C679 1.304 . S
C674 O712 1.435 . S
C675 C674 1.309 . S
C675 C676 1.476 . S
C675 H739 0.930 . S
C676 C675 1.476 . S
C676 C677 1.400 . S
C676 C680 1.567 . S
C677 C676 1.400 . S
C677 C678 1.373 . S
C677 C699 1.432 . S
C678 C677 1.373 . S
C678 C679 1.339 . S
C678 C681 1.530 . S
C679 C674 1.304 . S
C679 C678 1.339 . S
C679 H740 0.930 . S
C680 C676 1.567 . S
C680 H741 0.961 . S
C680 H742 0.960 . S
C680 H743 0.958 . S
C681 C678 1.530 . S
C681 H744 0.961 . S
C681 H745 0.960 . S
C681 H746 0.960 . S
C682 C683 1.530 . S
C682 H748 0.961 . S
C682 H749 0.961 . S
C682 H750 0.959 . S
C683 C682 1.530 . S
C683 O711 1.412 . S
C683 H747 0.980 . S
C684 C685 1.288 . S
C684 C689 1.377 . S
C684 O711 1.393 . S
C685 C684 1.288 . S
C685 C686 1.369 . S
C685 H751 0.932 . S
C686 C685 1.369 . S
C686 C687 1.398 . S
C686 C690 1.527 . S
C687 C686 1.398 . S
C687 C688 1.380 . S
C687 C701 1.497 . S
C688 C687 1.380 . S
C688 C689 1.383 . S
C688 C691 1.603 . S
C689 C684 1.377 . S
C689 C688 1.383 . S
C689 H752 0.929 . S
C690 C686 1.527 . S
C690 H753 0.961 . S
C690 H754 0.959 . S
C690 H755 0.959 . S
C691 C688 1.603 . S
C691 H756 0.960 . S
C691 H757 0.962 . S
C691 H758 0.961 . S
C692 C659 1.587 . S
C692 C693 1.360 . S
C692 C705 1.412 . S
C693 C692 1.360 . S
C693 C694 1.365 . S
C693 H759 0.929 . S
C694 C669 1.553 . S
C694 C693 1.365 . S
C694 C695 1.404 . S
C695 C694 1.404 . S
C695 C696 1.395 . S
C695 C706 1.451 . S
C696 C695 1.395 . S
C696 C697 1.322 . S
C696 H760 0.930 . S
C697 C696 1.322 . S
C697 C698 1.459 . S
C697 H761 0.929 . S
C698 C697 1.459 . S
C698 C699 1.445 . S
C698 C707 1.395 . S
C699 C677 1.432 . S
C699 C698 1.445 . S
C699 C700 1.370 . S
C700 C699 1.370 . S
C700 C701 1.438 . S
C700 H762 0.930 . S
C701 C687 1.497 . S
C701 C700 1.438 . S
C701 C702 1.360 . S
C702 C701 1.360 . S
C702 C703 1.401 . S
C702 C707 1.446 . S
C703 C702 1.401 . S
C703 C704 1.347 . S
C703 H763 0.929 . S
C704 C703 1.347 . S
C704 C705 1.455 . S
C704 H764 0.930 . S
C705 C692 1.412 . S
C705 C704 1.455 . S
C705 C706 1.331 . S
C706 C695 1.451 . S
C706 C705 1.331 . S
C706 C707 1.497 . S
C707 C698 1.395 . S
C707 C702 1.446 . S
C707 C706 1.497 . S
C708 C709 1.582 . S
C708 H765 0.962 . S
C708 H766 0.959 . S
C708 H767 0.958 . S
C709 C708 1.582 . S
C709 O712 1.458 . S
C709 H738 0.980 . S
O710 C655 1.426 . S
O710 C656 1.334 . S
O711 C683 1.412 . S
O711 C684 1.393 . S
O712 C674 1.435 . S
O712 C709 1.458 . S
O713 C665 1.468 . S
O713 C666 1.408 . S
H714 C655 0.980 . S
H715 C654 0.959 . S
H716 C654 0.959 . S
H717 C654 0.960 . S
H718 C657 0.929 . S
H719 C661 0.929 . S
H720 C662 0.959 . S
H721 C662 0.961 . S
H722 C662 0.961 . S
H723 C663 0.960 . S
H724 C663 0.960 . S
H725 C663 0.961 . S
H726 C665 0.980 . S
H727 C664 0.961 . S
H728 C664 0.960 . S
H729 C664 0.959 . S
H730 C667 0.930 . S
H731 C671 0.931 . S
H732 C672 0.959 . S
H733 C672 0.961 . S
H734 C672 0.959 . S
H735 C673 0.960 . S
H736 C673 0.960 . S
H737 C673 0.960 . S
H738 C709 0.980 . S
H739 C675 0.930 . S
H740 C679 0.930 . S
H741 C680 0.961 . S
H742 C680 0.960 . S
H743 C680 0.958 . S
H744 C681 0.961 . S
H745 C681 0.960 . S
H746 C681 0.960 . S
H747 C683 0.980 . S
H748 C682 0.961 . S
H749 C682 0.961 . S
H750 C682 0.959 . S
H751 C685 0.932 . S
H752 C689 0.929 . S
H753 C690 0.961 . S
H754 C690 0.959 . S
H755 C690 0.959 . S
H756 C691 0.960 . S
H757 C691 0.962 . S
H758 C691 0.961 . S
H759 C693 0.929 . S
H760 C696 0.930 . S
H761 C697 0.929 . S
H762 C700 0.930 . S
H763 C703 0.929 . S
H764 C704 0.930 . S
H765 C708 0.962 . S
H766 C708 0.959 . S
H767 C708 0.958 . S
C768 C769 1.349 . S
C768 C770 1.327 . S
C768 H793 0.950 . S
C769 C768 1.349 . S
C769 C785 1.349 . S
C770 C768 1.327 . S
C770 C789 1.429 . S
C770 H794 0.950 . S
C771 C788 1.574 . S
C771 C790 1.368 . S
C771 H795 0.949 . S
H772 C776 0.949 . S
C773 C774 1.349 . S
C773 C775 1.327 . S
C773 H796 0.950 . S
C774 C773 1.349 . S
C774 C786 1.349 . S
C775 C773 1.327 . S
C775 C791 1.429 . S
C775 H797 0.950 . S
C776 H772 0.949 . S
C776 C784 1.574 . S
C776 C792 1.368 . S
H777 C785 0.950 . S
H778 C783 0.950 . S
H779 C784 0.949 . S
H780 C786 0.950 . S
H781 C787 0.950 . S
H782 C788 0.949 . S
C783 H778 0.950 . S
C783 C785 1.327 . S
C783 C789 1.429 . S
C784 C776 1.574 . S
C784 H779 0.949 . S
C784 C790 1.368 . S
C785 C769 1.349 . S
C785 H777 0.950 . S
C785 C783 1.327 . S
C786 C774 1.349 . S
C786 H780 0.950 . S
C786 C787 1.327 . S
C787 H781 0.950 . S
C787 C786 1.327 . S
C787 C791 1.429 . S
C788 C771 1.574 . S
C788 H782 0.949 . S
C788 C792 1.368 . S
C789 C770 1.429 . S
C789 C783 1.429 . S
C789 C790 1.523 . S
C790 C771 1.368 . S
C790 C784 1.368 . S
C790 C789 1.523 . S
C791 C775 1.429 . S
C791 C787 1.429 . S
C791 C792 1.523 . S
C792 C776 1.368 . S
C792 C788 1.368 . S
C792 C791 1.523 . S
H793 C768 0.950 . S
H794 C770 0.950 . S
H795 C771 0.949 . S
H796 C773 0.950 . S
H797 C775 0.950 . S
C798 C799 1.349 . S
C798 C800 1.327 . S
C798 H823 0.950 . S
C799 C798 1.349 . S
C799 C815 1.349 . S
C800 C798 1.327 . S
C800 C819 1.429 . S
C800 H824 0.950 . S
C801 C818 1.574 . S
C801 C820 1.368 . S
C801 H825 0.949 . S
H802 C806 0.949 . S
C803 C804 1.349 . S
C803 C805 1.327 . S
C803 H826 0.950 . S
C804 C803 1.349 . S
C804 C816 1.349 . S
C805 C803 1.327 . S
C805 C821 1.429 . S
C805 H827 0.950 . S
C806 H802 0.949 . S
C806 C814 1.574 . S
C806 C822 1.368 . S
H807 C815 0.950 . S
H808 C813 0.950 . S
H809 C814 0.949 . S
H810 C816 0.950 . S
H811 C817 0.950 . S
H812 C818 0.949 . S
C813 H808 0.950 . S
C813 C815 1.327 . S
C813 C819 1.429 . S
C814 C806 1.574 . S
C814 H809 0.949 . S
C814 C820 1.368 . S
C815 C799 1.349 . S
C815 H807 0.950 . S
C815 C813 1.327 . S
C816 C804 1.349 . S
C816 H810 0.950 . S
C816 C817 1.327 . S
C817 H811 0.950 . S
C817 C816 1.327 . S
C817 C821 1.429 . S
C818 C801 1.574 . S
C818 H812 0.949 . S
C818 C822 1.368 . S
C819 C800 1.429 . S
C819 C813 1.429 . S
C819 C820 1.523 . S
C820 C801 1.368 . S
C820 C814 1.368 . S
C820 C819 1.523 . S
C821 C805 1.429 . S
C821 C817 1.429 . S
C821 C822 1.523 . S
C822 C806 1.368 . S
C822 C818 1.368 . S
C822 C821 1.523 . S
H823 C798 0.950 . S
H824 C800 0.950 . S
H825 C801 0.949 . S
H826 C803 0.950 . S
H827 C805 0.950 . S
C828 C829 1.349 . S
C828 C830 1.327 . S
C828 H853 0.950 . S
C829 C828 1.349 . S
C829 C845 1.349 . S
C830 C828 1.327 . S
C830 C849 1.429 . S
C830 H854 0.950 . S
C831 C848 1.574 . S
C831 C850 1.368 . S
C831 H855 0.949 . S
H832 C836 0.949 . S
C833 C834 1.349 . S
C833 C835 1.327 . S
C833 H856 0.950 . S
C834 C833 1.349 . S
C834 C846 1.349 . S
C835 C833 1.327 . S
C835 C851 1.429 . S
C835 H857 0.950 . S
C836 H832 0.949 . S
C836 C844 1.574 . S
C836 C852 1.368 . S
H837 C845 0.950 . S
H838 C843 0.950 . S
H839 C844 0.949 . S
H840 C846 0.950 . S
H841 C847 0.950 . S
H842 C848 0.949 . S
C843 H838 0.950 . S
C843 C845 1.327 . S
C843 C849 1.429 . S
C844 C836 1.574 . S
C844 H839 0.949 . S
C844 C850 1.368 . S
C845 C829 1.349 . S
C845 H837 0.950 . S
C845 C843 1.327 . S
C846 C834 1.349 . S
C846 H840 0.950 . S
C846 C847 1.327 . S
C847 H841 0.950 . S
C847 C846 1.327 . S
C847 C851 1.429 . S
C848 C831 1.574 . S
C848 H842 0.949 . S
C848 C852 1.368 . S
C849 C830 1.429 . S
C849 C843 1.429 . S
C849 C850 1.523 . S
C850 C831 1.368 . S
C850 C844 1.368 . S
C850 C849 1.523 . S
C851 C835 1.429 . S
C851 C847 1.429 . S
C851 C852 1.523 . S
C852 C836 1.368 . S
C852 C848 1.368 . S
C852 C851 1.523 . S
H853 C828 0.950 . S
H854 C830 0.950 . S
H855 C831 0.949 . S
H856 C833 0.950 . S
H857 C835 0.950 . S
C858 C859 1.349 . S
C858 C860 1.327 . S
C858 H883 0.950 . S
C859 C858 1.349 . S
C859 C875 1.349 . S
C860 C858 1.327 . S
C860 C879 1.429 . S
C860 H884 0.950 . S
C861 C878 1.574 . S
C861 C880 1.368 . S
C861 H885 0.949 . S
H862 C866 0.949 . S
C863 C864 1.349 . S
C863 C865 1.327 . S
C863 H886 0.950 . S
C864 C863 1.349 . S
C864 C876 1.349 . S
C865 C863 1.327 . S
C865 C881 1.429 . S
C865 H887 0.950 . S
C866 H862 0.949 . S
C866 C874 1.574 . S
C866 C882 1.368 . S
H867 C875 0.950 . S
H868 C873 0.950 . S
H869 C874 0.949 . S
H870 C876 0.950 . S
H871 C877 0.950 . S
H872 C878 0.949 . S
C873 H868 0.950 . S
C873 C875 1.327 . S
C873 C879 1.429 . S
C874 C866 1.574 . S
C874 H869 0.949 . S
C874 C880 1.368 . S
C875 C859 1.349 . S
C875 H867 0.950 . S
C875 C873 1.327 . S
C876 C864 1.349 . S
C876 H870 0.950 . S
C876 C877 1.327 . S
C877 H871 0.950 . S
C877 C876 1.327 . S
C877 C881 1.429 . S
C878 C861 1.574 . S
C878 H872 0.949 . S
C878 C882 1.368 . S
C879 C860 1.429 . S
C879 C873 1.429 . S
C879 C880 1.523 . S
C880 C861 1.368 . S
C880 C874 1.368 . S
C880 C879 1.523 . S
C881 C865 1.429 . S
C881 C877 1.429 . S
C881 C882 1.523 . S
C882 C866 1.368 . S
C882 C878 1.368 . S
C882 C881 1.523 . S
H883 C858 0.950 . S
H884 C860 0.950 . S
H885 C861 0.949 . S
H886 C863 0.950 . S
H887 C865 0.950 . S
C888 C889 1.349 . S
C888 C890 1.327 . S
C888 H913 0.929 1_565 S
C889 C888 1.349 . S
C889 C905 1.349 . S
C890 C888 1.327 . S
C890 C909 1.429 . S
C890 H914 0.950 . S
C891 C908 1.574 . S
C891 C910 1.368 . S
C891 H915 0.949 . S
H892 C896 0.949 . S
C893 C894 1.349 . S
C893 C895 1.327 . S
C893 H916 0.950 . S
C894 C893 1.349 . S
C894 C906 1.349 . S
C895 C893 1.327 . S
C895 C911 1.429 . S
C895 H917 0.950 . S
C896 H892 0.949 . S
C896 C904 1.574 . S
C896 C912 1.368 . S
H897 C905 0.950 . S
H898 C903 0.950 . S
H899 C904 0.949 . S
H900 C906 0.950 . S
H901 C907 0.950 . S
H902 C908 0.949 . S
C903 H898 0.950 . S
C903 C905 1.327 . S
C903 C909 1.429 . S
C904 C896 1.574 . S
C904 H899 0.949 . S
C904 C910 1.368 . S
C905 C889 1.349 . S
C905 H897 0.950 . S
C905 C903 1.327 . S
C906 C894 1.349 . S
C906 H900 0.950 . S
C906 C907 1.327 . S
C907 H901 0.950 . S
C907 C906 1.327 . S
C907 C911 1.429 . S
C908 C891 1.574 . S
C908 H902 0.949 . S
C908 C912 1.368 . S
C909 C890 1.429 . S
C909 C903 1.429 . S
C909 C910 1.523 . S
C910 C891 1.368 . S
C910 C904 1.368 . S
C910 C909 1.523 . S
C911 C895 1.429 . S
C911 C907 1.429 . S
C911 C912 1.523 . S
C912 C896 1.368 . S
C912 C908 1.368 . S
C912 C911 1.523 . S
H913 C888 0.929 1_545 S
H914 C890 0.950 . S
H915 C891 0.949 . S
H916 C893 0.950 . S
H917 C895 0.950 . S
C918 C919 1.349 . S
C918 C920 1.327 . S
C918 H943 0.950 . S
C919 C918 1.349 . S
C919 C935 1.349 . S
C920 C918 1.327 . S
C920 C939 1.429 . S
C920 H944 0.950 . S
C921 C938 1.574 . S
C921 C940 1.368 . S
C921 H945 0.949 . S
H922 C926 0.949 . S
C923 C924 1.349 . S
C923 C925 1.327 . S
C923 H946 0.950 . S
C924 C923 1.349 . S
C924 C936 1.349 . S
C925 C923 1.327 . S
C925 C941 1.429 . S
C925 H947 0.950 . S
C926 H922 0.949 . S
C926 C934 1.574 . S
C926 C942 1.368 . S
H927 C935 0.950 . S
H928 C933 0.950 . S
H929 C934 0.949 . S
H930 C936 0.950 . S
H931 C937 0.950 . S
H932 C938 0.949 . S
C933 H928 0.950 . S
C933 C935 1.327 . S
C933 C939 1.429 . S
C934 C926 1.574 . S
C934 H929 0.949 . S
C934 C940 1.368 . S
C935 C919 1.349 . S
C935 H927 0.950 . S
C935 C933 1.327 . S
C936 C924 1.349 . S
C936 H930 0.950 . S
C936 C937 1.327 . S
C937 H931 0.950 . S
C937 C936 1.327 . S
C937 C941 1.429 . S
C938 C921 1.574 . S
C938 H932 0.949 . S
C938 C942 1.368 . S
C939 C920 1.429 . S
C939 C933 1.429 . S
C939 C940 1.523 . S
C940 C921 1.368 . S
C940 C934 1.368 . S
C940 C939 1.523 . S
C941 C925 1.429 . S
C941 C937 1.429 . S
C941 C942 1.523 . S
C942 C926 1.368 . S
C942 C938 1.368 . S
C942 C941 1.523 . S
H943 C918 0.950 . S
H944 C920 0.950 . S
H945 C921 0.949 . S
H946 C923 0.950 . S
H947 C925 0.950 . S
C948 C949 1.349 . S
C948 C950 1.327 . S
C948 H973 0.961 . S
C949 C948 1.349 . S
C949 C965 1.349 . S
C950 C948 1.327 . S
C950 C969 1.429 . S
C950 H974 0.950 . S
C951 C968 1.574 . S
C951 C970 1.368 . S
C951 H975 0.949 . S
H952 C956 0.949 . S
C953 C954 1.349 . S
C953 C955 1.327 . S
C953 H976 0.950 . S
C954 C953 1.349 . S
C954 C966 1.349 . S
C955 C953 1.327 . S
C955 C971 1.429 . S
C955 H977 0.950 . S
C956 H952 0.949 . S
C956 C964 1.574 . S
C956 C972 1.368 . S
H957 C965 0.950 . S
H958 C963 0.950 . S
H959 C964 0.949 . S
H960 C966 0.950 . S
H961 C967 0.950 . S
H962 C968 0.949 . S
C963 H958 0.950 . S
C963 C965 1.327 . S
C963 C969 1.429 . S
C964 C956 1.574 . S
C964 H959 0.949 . S
C964 C970 1.368 . S
C965 C949 1.349 . S
C965 H957 0.950 . S
C965 C963 1.327 . S
C966 C954 1.349 . S
C966 H960 0.950 . S
C966 C967 1.327 . S
C967 H961 0.950 . S
C967 C966 1.327 . S
C967 C971 1.429 . S
C968 C951 1.574 . S
C968 H962 0.949 . S
C968 C972 1.368 . S
C969 C950 1.429 . S
C969 C963 1.429 . S
C969 C970 1.523 . S
C970 C951 1.368 . S
C970 C964 1.368 . S
C970 C969 1.523 . S
C971 C955 1.429 . S
C971 C967 1.429 . S
C971 C972 1.523 . S
C972 C956 1.368 . S
C972 C968 1.368 . S
C972 C971 1.523 . S
H973 C948 0.961 . S
H974 C950 0.950 . S
H975 C951 0.949 . S
H976 C953 0.950 . S
H977 C955 0.950 . S
C978 C979 1.349 . S
C978 C980 1.327 . S
C978 H1003 0.950 . S
C979 C978 1.349 . S
C979 C995 1.349 . S
C980 C978 1.327 . S
C980 C999 1.429 . S
C980 H1004 0.950 . S
C981 C998 1.574 . S
C981 C1000 1.368 . S
C981 H1005 0.949 . S
H982 C986 0.949 . S
C983 C984 1.349 . S
C983 C985 1.327 . S
C983 H1006 0.950 . S
C984 C983 1.349 . S
C984 C996 1.349 . S
C985 C983 1.327 . S
C985 C1001 1.429 . S
C985 H1007 0.950 . S
C986 H982 0.949 . S
C986 C994 1.574 . S
C986 C1002 1.368 . S
H987 C995 0.950 . S
H988 C993 0.950 . S
H989 C994 0.949 . S
H990 C996 0.950 . S
H991 C997 0.950 . S
H992 C998 0.949 . S
C993 H988 0.950 . S
C993 C995 1.327 . S
C993 C999 1.429 . S
C994 C986 1.574 . S
C994 H989 0.949 . S
C994 C1000 1.368 . S
C995 C979 1.349 . S
C995 H987 0.950 . S
C995 C993 1.327 . S
C996 C984 1.349 . S
C996 H990 0.950 . S
C996 C997 1.327 . S
C997 H991 0.950 . S
C997 C996 1.327 . S
C997 C1001 1.429 . S
C998 C981 1.574 . S
C998 H992 0.949 . S
C998 C1002 1.368 . S
C999 C980 1.429 . S
C999 C993 1.429 . S
C999 C1000 1.523 . S
C1000 C981 1.368 . S
C1000 C994 1.368 . S
C1000 C999 1.523 . S
C1001 C985 1.429 . S
C1001 C997 1.429 . S
C1001 C1002 1.523 . S
C1002 C986 1.368 . S
C1002 C998 1.368 . S
C1002 C1001 1.523 . S
H1003 C978 0.950 . S
H1004 C980 0.950 . S
H1005 C981 0.949 . S
H1006 C983 0.950 . S
H1007 C985 0.950 . S
C1008 C1009 1.349 . S
C1008 C1010 1.327 . S
C1008 H1033 0.950 . S
C1009 C1008 1.349 . S
C1009 C1025 1.349 . S
C1010 C1008 1.327 . S
C1010 C1029 1.429 . S
C1010 H1034 0.950 . S
C1011 C1028 1.574 . S
C1011 C1030 1.368 . S
C1011 H1035 0.949 . S
H1012 C1016 0.949 . S
C1013 C1014 1.349 . S
C1013 C1015 1.327 . S
C1013 H1036 0.950 . S
C1014 C1013 1.349 . S
C1014 C1026 1.349 . S
C1015 C1013 1.327 . S
C1015 C1031 1.429 . S
C1015 H1037 0.950 . S
C1016 H1012 0.949 . S
C1016 C1024 1.574 . S
C1016 C1032 1.368 . S
H1017 C1025 0.950 . S
H1018 C1023 0.950 . S
H1019 C1024 0.949 . S
H1020 C1026 0.950 . S
H1021 C1027 0.950 . S
H1022 C1028 0.949 . S
C1023 H1018 0.950 . S
C1023 C1025 1.327 . S
C1023 C1029 1.429 . S
C1024 C1016 1.574 . S
C1024 H1019 0.949 . S
C1024 C1030 1.368 . S
C1025 C1009 1.349 . S
C1025 H1017 0.950 . S
C1025 C1023 1.327 . S
C1026 C1014 1.349 . S
C1026 H1020 0.950 . S
C1026 C1027 1.327 . S
C1027 H1021 0.950 . S
C1027 C1026 1.327 . S
C1027 C1031 1.429 . S
C1028 C1011 1.574 . S
C1028 H1022 0.949 . S
C1028 C1032 1.368 . S
C1029 C1010 1.429 . S
C1029 C1023 1.429 . S
C1029 C1030 1.523 . S
C1030 C1011 1.368 . S
C1030 C1024 1.368 . S
C1030 C1029 1.523 . S
C1031 C1015 1.429 . S
C1031 C1027 1.429 . S
C1031 C1032 1.523 . S
C1032 C1016 1.368 . S
C1032 C1028 1.368 . S
C1032 C1031 1.523 . S
H1033 C1008 0.950 . S
H1034 C1010 0.950 . S
H1035 C1011 0.949 . S
H1036 C1013 0.950 . S
H1037 C1015 0.950 . S
C1038 C1039 1.349 . S
C1038 C1040 1.327 . S
C1038 H1063 0.950 . S
C1039 C1038 1.349 . S
C1039 C1055 1.349 . S
C1040 C1038 1.327 . S
C1040 C1059 1.429 . S
C1040 H1064 0.950 . S
C1041 C1058 1.574 . S
C1041 C1060 1.368 . S
C1041 H1065 0.949 . S
H1042 C1046 0.949 . S
C1043 C1044 1.349 . S
C1043 C1045 1.327 . S
C1043 H1066 0.950 . S
C1044 C1043 1.349 . S
C1044 C1056 1.349 . S
C1045 C1043 1.327 . S
C1045 C1061 1.429 . S
C1045 H1067 0.950 . S
C1046 H1042 0.949 . S
C1046 C1054 1.574 . S
C1046 C1062 1.368 . S
H1047 C1055 0.950 . S
H1048 C1053 0.950 . S
H1049 C1054 0.949 . S
H1050 C1056 0.950 . S
H1051 C1057 0.950 . S
H1052 C1058 0.949 . S
C1053 H1048 0.950 . S
C1053 C1055 1.327 . S
C1053 C1059 1.429 . S
C1054 C1046 1.574 . S
C1054 H1049 0.949 . S
C1054 C1060 1.368 . S
C1055 C1039 1.349 . S
C1055 H1047 0.950 . S
C1055 C1053 1.327 . S
C1056 C1044 1.349 . S
C1056 H1050 0.950 . S
C1056 C1057 1.327 . S
C1057 H1051 0.950 . S
C1057 C1056 1.327 . S
C1057 C1061 1.429 . S
C1058 C1041 1.574 . S
C1058 H1052 0.949 . S
C1058 C1062 1.368 . S
C1059 C1040 1.429 . S
C1059 C1053 1.429 . S
C1059 C1060 1.523 . S
C1060 C1041 1.368 . S
C1060 C1054 1.368 . S
C1060 C1059 1.523 . S
C1061 C1045 1.429 . S
C1061 C1057 1.429 . S
C1061 C1062 1.523 . S
C1062 C1046 1.368 . S
C1062 C1058 1.368 . S
C1062 C1061 1.523 . S
H1063 C1038 0.950 . S
H1064 C1040 0.950 . S
H1065 C1041 0.949 . S
H1066 C1043 0.950 . S
H1067 C1045 0.950 . S
C1068 C1069 1.349 . S
C1068 C1070 1.327 . S
C1068 H1093 0.950 . S
C1069 C1068 1.349 . S
C1069 C1085 1.349 . S
C1070 C1068 1.327 . S
C1070 C1089 1.429 . S
C1070 H1094 0.950 . S
C1071 C1088 1.574 . S
C1071 C1090 1.368 . S
C1071 H1095 0.949 . S
H1072 C1076 0.949 . S
C1073 C1074 1.349 . S
C1073 C1075 1.327 . S
C1073 H1096 0.950 . S
C1074 C1073 1.349 . S
C1074 C1086 1.349 . S
C1075 C1073 1.327 . S
C1075 C1091 1.429 . S
C1075 H1097 0.950 . S
C1076 H1072 0.949 . S
C1076 C1084 1.574 . S
C1076 C1092 1.368 . S
H1077 C1085 0.950 . S
H1078 C1083 0.950 . S
H1079 C1084 0.949 . S
H1080 C1086 0.950 . S
H1081 C1087 0.950 . S
H1082 C1088 0.949 . S
C1083 H1078 0.950 . S
C1083 C1085 1.327 . S
C1083 C1089 1.429 . S
C1084 C1076 1.574 . S
C1084 H1079 0.949 . S
C1084 C1090 1.368 . S
C1085 C1069 1.349 . S
C1085 H1077 0.950 . S
C1085 C1083 1.327 . S
C1086 C1074 1.349 . S
C1086 H1080 0.950 . S
C1086 C1087 1.327 . S
C1087 H1081 0.950 . S
C1087 C1086 1.327 . S
C1087 C1091 1.429 . S
C1088 C1071 1.574 . S
C1088 H1082 0.949 . S
C1088 C1092 1.368 . S
C1089 C1070 1.429 . S
C1089 C1083 1.429 . S
C1089 C1090 1.523 . S
C1090 C1071 1.368 . S
C1090 C1084 1.368 . S
C1090 C1089 1.523 . S
C1091 C1075 1.429 . S
C1091 C1087 1.429 . S
C1091 C1092 1.523 . S
C1092 C1076 1.368 . S
C1092 C1088 1.368 . S
C1092 C1091 1.523 . S
H1093 C1068 0.950 . S
H1094 C1070 0.950 . S
H1095 C1071 0.949 . S
H1096 C1073 0.950 . S
H1097 C1075 0.950 . S
C1098 C1099 1.349 1_455 S
C1098 C1100 1.327 1_455 S
C1098 H1123 0.950 . S
C1099 C1098 1.349 1_655 S
C1099 C1115 1.349 . S
C1100 C1098 1.327 1_655 S
C1100 C1119 1.429 . S
C1100 H1124 0.950 1_655 S
C1101 C1118 1.574 . S
C1101 C1120 1.368 . S
C1101 H1125 0.949 . S
H1102 C1106 0.949 . S
C1103 C1104 1.349 . S
C1103 C1105 1.327 . S
C1103 H1126 0.950 . S
C1104 C1103 1.349 . S
C1104 C1116 1.349 . S
C1105 C1103 1.327 . S
C1105 C1121 1.429 . S
C1105 H1127 0.950 . S
C1106 H1102 0.949 . S
C1106 C1114 1.574 . S
C1106 C1122 1.368 . S
H1107 C1115 0.950 . S
H1108 C1113 0.950 . S
H1109 C1114 0.949 . S
H1110 C1116 0.950 . S
H1111 C1117 0.950 . S
H1112 C1118 0.949 . S
C1113 H1108 0.950 . S
C1113 C1115 1.327 . S
C1113 C1119 1.429 . S
C1114 C1106 1.574 . S
C1114 H1109 0.949 . S
C1114 C1120 1.368 . S
C1115 C1099 1.349 . S
C1115 H1107 0.950 . S
C1115 C1113 1.327 . S
C1116 C1104 1.349 . S
C1116 H1110 0.950 . S
C1116 C1117 1.327 . S
C1117 H1111 0.950 . S
C1117 C1116 1.327 . S
C1117 C1121 1.429 . S
C1118 C1101 1.574 . S
C1118 H1112 0.949 . S
C1118 C1122 1.368 . S
C1119 C1100 1.429 . S
C1119 C1113 1.429 . S
C1119 C1120 1.523 . S
C1120 C1101 1.368 . S
C1120 C1114 1.368 . S
C1120 C1119 1.523 . S
C1121 C1105 1.429 . S
C1121 C1117 1.429 . S
C1121 C1122 1.523 . S
C1122 C1106 1.368 . S
C1122 C1118 1.368 . S
C1122 C1121 1.523 . S
H1123 C1098 0.950 . S
H1124 C1100 0.950 1_455 S
H1125 C1101 0.949 . S
H1126 C1103 0.950 . S
H1127 C1105 0.950 . S
C1128 C1129 1.349 . S
C1128 C1130 1.327 . S
C1128 H1153 0.950 . S
C1129 C1128 1.349 . S
C1129 C1145 1.349 1_655 S
C1130 C1128 1.327 . S
C1130 C1149 1.429 . S
C1130 H1154 0.950 . S
C1131 C1148 1.574 . S
C1131 C1150 1.368 . S
C1131 H1155 0.949 . S
H1132 C1136 0.949 . S
C1133 C1134 1.349 . S
C1133 C1135 1.327 . S
C1133 H1156 0.950 . S
C1134 C1133 1.349 . S
C1134 C1146 1.349 . S
C1135 C1133 1.327 . S
C1135 C1151 1.429 . S
C1135 H1157 0.950 . S
C1136 H1132 0.949 . S
C1136 C1144 1.574 . S
C1136 C1152 1.368 . S
H1137 C1145 0.950 . S
H1138 C1143 0.950 1_455 S
H1139 C1144 0.949 . S
H1140 C1146 0.950 . S
H1141 C1147 0.950 . S
H1142 C1148 0.949 . S
C1143 H1138 0.950 1_655 S
C1143 C1145 1.327 1_655 S
C1143 C1149 1.429 . S
C1144 C1136 1.574 . S
C1144 H1139 0.949 . S
C1144 C1150 1.368 . S
C1145 C1129 1.349 1_455 S
C1145 H1137 0.950 . S
C1145 C1143 1.327 1_455 S
C1146 C1134 1.349 . S
C1146 H1140 0.950 . S
C1146 C1147 1.327 . S
C1147 H1141 0.950 . S
C1147 C1146 1.327 . S
C1147 C1151 1.429 . S
C1148 C1131 1.574 . S
C1148 H1142 0.949 . S
C1148 C1152 1.368 . S
C1149 C1130 1.429 . S
C1149 C1143 1.429 . S
C1149 C1150 1.523 . S
C1150 C1131 1.368 . S
C1150 C1144 1.368 . S
C1150 C1149 1.523 . S
C1151 C1135 1.429 . S
C1151 C1147 1.429 . S
C1151 C1152 1.523 . S
C1152 C1136 1.368 . S
C1152 C1148 1.368 . S
C1152 C1151 1.523 . S
H1153 C1128 0.950 . S
H1154 C1130 0.950 . S
H1155 C1131 0.949 . S
H1156 C1133 0.950 . S
H1157 C1135 0.950 . S
C1158 C1159 1.349 . S
C1158 C1160 1.327 . S
C1158 H1183 0.950 . S
C1159 C1158 1.349 . S
C1159 C1175 1.349 . S
C1160 C1158 1.327 . S
C1160 C1179 1.429 . S
C1160 H1184 0.950 . S
C1161 C1178 1.574 . S
C1161 C1180 1.368 . S
C1161 H1185 0.949 . S
H1162 C1166 0.949 . S
C1163 C1164 1.349 . S
C1163 C1165 1.327 . S
C1163 H1186 0.950 . S
C1164 C1163 1.349 . S
C1164 C1176 1.349 . S
C1165 C1163 1.327 . S
C1165 C1181 1.429 . S
C1165 H1187 0.950 . S
C1166 H1162 0.949 . S
C1166 C1174 1.574 . S
C1166 C1182 1.368 . S
H1167 C1175 0.950 . S
H1168 C1173 0.950 . S
H1169 C1174 0.949 . S
H1170 C1176 0.950 . S
H1171 C1177 0.950 . S
H1172 C1178 0.949 . S
C1173 H1168 0.950 . S
C1173 C1175 1.327 . S
C1173 C1179 1.429 . S
C1174 C1166 1.574 . S
C1174 H1169 0.949 . S
C1174 C1180 1.368 . S
C1175 C1159 1.349 . S
C1175 H1167 0.950 . S
C1175 C1173 1.327 . S
C1176 C1164 1.349 . S
C1176 H1170 0.950 . S
C1176 C1177 1.327 . S
C1177 H1171 0.950 . S
C1177 C1176 1.327 . S
C1177 C1181 1.429 . S
C1178 C1161 1.574 . S
C1178 H1172 0.949 . S
C1178 C1182 1.368 . S
C1179 C1160 1.429 . S
C1179 C1173 1.429 . S
C1179 C1180 1.523 . S
C1180 C1161 1.368 . S
C1180 C1174 1.368 . S
C1180 C1179 1.523 . S
C1181 C1165 1.429 . S
C1181 C1177 1.429 . S
C1181 C1182 1.523 . S
C1182 C1166 1.368 . S
C1182 C1178 1.368 . S
C1182 C1181 1.523 . S
H1183 C1158 0.950 . S
H1184 C1160 0.950 . S
H1185 C1161 0.949 . S
H1186 C1163 0.950 . S
H1187 C1165 0.950 . S
C1188 C1189 1.349 . S
C1188 C1190 1.327 . S
C1188 H1213 0.950 . S
C1189 C1188 1.349 . S
C1189 C1205 1.349 . S
C1190 C1188 1.327 . S
C1190 C1209 1.429 . S
C1190 H1214 0.950 . S
C1191 C1208 1.574 . S
C1191 C1210 1.368 . S
C1191 H1215 0.949 . S
H1192 C1196 0.949 . S
C1193 C1194 1.349 . S
C1193 C1195 1.327 . S
C1193 H1216 0.950 . S
C1194 C1193 1.349 . S
C1194 C1206 1.349 . S
C1195 C1193 1.327 . S
C1195 C1211 1.429 . S
C1195 H1217 0.950 . S
C1196 H1192 0.949 . S
C1196 C1204 1.574 . S
C1196 C1212 1.368 . S
H1197 C1205 0.950 . S
H1198 C1203 0.950 . S
H1199 C1204 0.949 . S
H1200 C1206 0.950 . S
H1201 C1207 0.950 . S
H1202 C1208 0.949 . S
C1203 H1198 0.950 . S
C1203 C1205 1.327 . S
C1203 C1209 1.429 . S
C1204 C1196 1.574 . S
C1204 H1199 0.949 . S
C1204 C1210 1.368 . S
C1205 C1189 1.349 . S
C1205 H1197 0.950 . S
C1205 C1203 1.327 . S
C1206 C1194 1.349 . S
C1206 H1200 0.950 . S
C1206 C1207 1.327 . S
C1207 H1201 0.950 . S
C1207 C1206 1.327 . S
C1207 C1211 1.429 . S
C1208 C1191 1.574 . S
C1208 H1202 0.949 . S
C1208 C1212 1.368 . S
C1209 C1190 1.429 . S
C1209 C1203 1.429 . S
C1209 C1210 1.523 . S
C1210 C1191 1.368 . S
C1210 C1204 1.368 . S
C1210 C1209 1.523 . S
C1211 C1195 1.429 . S
C1211 C1207 1.429 . S
C1211 C1212 1.523 . S
C1212 C1196 1.368 . S
C1212 C1208 1.368 . S
C1212 C1211 1.523 . S
H1213 C1188 0.950 . S
H1214 C1190 0.950 . S
H1215 C1191 0.949 . S
H1216 C1193 0.950 . S
H1217 C1195 0.950 . S
C1218 C1219 1.349 . S
C1218 C1220 1.327 . S
C1218 H1243 0.950 . S
C1219 C1218 1.349 . S
C1219 C1235 1.349 . S
C1220 C1218 1.327 . S
C1220 C1239 1.429 . S
C1220 H1244 0.950 . S
C1221 C1238 1.574 . S
C1221 C1240 1.368 . S
C1221 H1245 0.949 . S
H1222 C1226 0.949 . S
C1223 C1224 1.349 . S
C1223 C1225 1.327 . S
C1223 H1246 0.950 . S
C1224 C1223 1.349 . S
C1224 C1236 1.349 . S
C1225 C1223 1.327 . S
C1225 C1241 1.429 . S
C1225 H1247 0.950 . S
C1226 H1222 0.949 . S
C1226 C1234 1.574 . S
C1226 C1242 1.368 . S
H1227 C1235 0.950 . S
H1228 C1233 0.950 . S
H1229 C1234 0.949 . S
H1230 C1236 0.950 . S
H1231 C1237 0.950 . S
H1232 C1238 0.949 . S
C1233 H1228 0.950 . S
C1233 C1235 1.327 . S
C1233 C1239 1.429 . S
C1234 C1226 1.574 . S
C1234 H1229 0.949 . S
C1234 C1240 1.368 . S
C1235 C1219 1.349 . S
C1235 H1227 0.950 . S
C1235 C1233 1.327 . S
C1236 C1224 1.349 . S
C1236 H1230 0.950 . S
C1236 C1237 1.327 . S
C1237 H1231 0.950 . S
C1237 C1236 1.327 . S
C1237 C1241 1.429 . S
C1238 C1221 1.574 . S
C1238 H1232 0.949 . S
C1238 C1242 1.368 . S
C1239 C1220 1.429 . S
C1239 C1233 1.429 . S
C1239 C1240 1.523 . S
C1240 C1221 1.368 . S
C1240 C1234 1.368 . S
C1240 C1239 1.523 . S
C1241 C1225 1.429 . S
C1241 C1237 1.429 . S
C1241 C1242 1.523 . S
C1242 C1226 1.368 . S
C1242 C1238 1.368 . S
C1242 C1241 1.523 . S
H1243 C1218 0.950 . S
H1244 C1220 0.950 . S
H1245 C1221 0.949 . S
H1246 C1223 0.950 . S
H1247 C1225 0.950 . S
C1248 C1249 1.349 . S
C1248 C1250 1.327 . S
C1248 H1273 0.950 . S
C1249 C1248 1.349 . S
C1249 C1265 1.349 . S
C1250 C1248 1.327 . S
C1250 C1269 1.429 . S
C1250 H1274 0.950 . S
C1251 C1268 1.574 . S
C1251 C1270 1.368 . S
C1251 H1275 0.949 . S
H1252 C1256 0.949 . S
C1253 C1254 1.349 . S
C1253 C1255 1.327 . S
C1253 H1276 0.950 . S
C1254 C1253 1.349 . S
C1254 C1266 1.349 . S
C1255 C1253 1.327 . S
C1255 C1271 1.429 . S
C1255 H1277 0.950 . S
C1256 H1252 0.949 . S
C1256 C1264 1.574 . S
C1256 C1272 1.368 . S
H1257 C1265 0.950 . S
H1258 C1263 0.950 . S
H1259 C1264 0.949 . S
H1260 C1266 0.950 . S
H1261 C1267 0.950 . S
H1262 C1268 0.949 . S
C1263 H1258 0.950 . S
C1263 C1265 1.327 . S
C1263 C1269 1.429 . S
C1264 C1256 1.574 . S
C1264 H1259 0.949 . S
C1264 C1270 1.368 . S
C1265 C1249 1.349 . S
C1265 H1257 0.950 . S
C1265 C1263 1.327 . S
C1266 C1254 1.349 . S
C1266 H1260 0.950 . S
C1266 C1267 1.327 . S
C1267 H1261 0.950 . S
C1267 C1266 1.327 . S
C1267 C1271 1.429 . S
C1268 C1251 1.574 . S
C1268 H1262 0.949 . S
C1268 C1272 1.368 . S
C1269 C1250 1.429 . S
C1269 C1263 1.429 . S
C1269 C1270 1.523 . S
C1270 C1251 1.368 . S
C1270 C1264 1.368 . S
C1270 C1269 1.523 . S
C1271 C1255 1.429 . S
C1271 C1267 1.429 . S
C1271 C1272 1.523 . S
C1272 C1256 1.368 . S
C1272 C1268 1.368 . S
C1272 C1271 1.523 . S
H1273 C1248 0.950 . S
H1274 C1250 0.950 . S
H1275 C1251 0.949 . S
H1276 C1253 0.950 . S
H1277 C1255 0.950 . S
C1278 C1279 1.349 . S
C1278 C1280 1.327 . S
C1278 H1303 0.950 . S
C1279 C1278 1.349 . S
C1279 C1295 1.349 . S
C1280 C1278 1.327 . S
C1280 C1299 1.429 . S
C1280 H1304 0.950 . S
C1281 C1298 1.574 . S
C1281 C1300 1.368 . S
C1281 H1305 0.949 . S
H1282 C1286 0.949 . S
C1283 C1284 1.349 . S
C1283 C1285 1.327 . S
C1283 H1306 0.950 . S
C1284 C1283 1.349 . S
C1284 C1296 1.349 . S
C1285 C1283 1.327 . S
C1285 C1301 1.429 . S
C1285 H1307 0.950 . S
C1286 H1282 0.949 . S
C1286 C1294 1.574 . S
C1286 C1302 1.368 . S
H1287 C1295 0.950 . S
H1288 C1293 0.950 . S
H1289 C1294 0.949 . S
H1290 C1296 0.950 . S
H1291 C1297 0.950 . S
H1292 C1298 0.949 . S
C1293 H1288 0.950 . S
C1293 C1295 1.327 . S
C1293 C1299 1.429 . S
C1294 C1286 1.574 . S
C1294 H1289 0.949 . S
C1294 C1300 1.368 . S
C1295 C1279 1.349 . S
C1295 H1287 0.950 . S
C1295 C1293 1.327 . S
C1296 C1284 1.349 . S
C1296 H1290 0.950 . S
C1296 C1297 1.327 . S
C1297 H1291 0.950 . S
C1297 C1296 1.327 . S
C1297 C1301 1.429 . S
C1298 C1281 1.574 . S
C1298 H1292 0.949 . S
C1298 C1302 1.368 . S
C1299 C1280 1.429 . S
C1299 C1293 1.429 . S
C1299 C1300 1.523 . S
C1300 C1281 1.368 . S
C1300 C1294 1.368 . S
C1300 C1299 1.523 . S
C1301 C1285 1.429 . S
C1301 C1297 1.429 . S
C1301 C1302 1.523 . S
C1302 C1286 1.368 . S
C1302 C1298 1.368 . S
C1302 C1301 1.523 . S
H1303 C1278 0.950 . S
H1304 C1280 0.950 . S
H1305 C1281 0.949 . S
H1306 C1283 0.950 . S
H1307 C1285 0.950 . S
C1308 C1309 1.349 . S
C1308 C1310 1.327 . S
C1308 H1333 0.950 . S
C1309 C1308 1.349 . S
C1309 C1325 1.349 . S
C1310 C1308 1.327 . S
C1310 C1329 1.429 . S
C1310 H1334 0.950 . S
C1311 C1328 1.574 . S
C1311 C1330 1.368 . S
C1311 H1335 0.949 . S
H1312 C1316 0.949 . S
C1313 C1314 1.349 . S
C1313 C1315 1.327 . S
C1313 H1336 0.950 . S
C1314 C1313 1.349 . S
C1314 C1326 1.349 . S
C1315 C1313 1.327 . S
C1315 C1331 1.429 . S
C1315 H1337 0.950 . S
C1316 H1312 0.949 . S
C1316 C1324 1.574 . S
C1316 C1332 1.368 . S
H1317 C1325 0.950 . S
H1318 C1323 0.950 . S
H1319 C1324 0.949 . S
H1320 C1326 0.950 . S
H1321 C1327 0.950 . S
H1322 C1328 0.949 . S
C1323 H1318 0.950 . S
C1323 C1325 1.327 . S
C1323 C1329 1.429 . S
C1324 C1316 1.574 . S
C1324 H1319 0.949 . S
C1324 C1330 1.368 . S
C1325 C1309 1.349 . S
C1325 H1317 0.950 . S
C1325 C1323 1.327 . S
C1326 C1314 1.349 . S
C1326 H1320 0.950 . S
C1326 C1327 1.327 . S
C1327 H1321 0.950 . S
C1327 C1326 1.327 . S
C1327 C1331 1.429 . S
C1328 C1311 1.574 . S
C1328 H1322 0.949 . S
C1328 C1332 1.368 . S
C1329 C1310 1.429 . S
C1329 C1323 1.429 . S
C1329 C1330 1.523 . S
C1330 C1311 1.368 . S
C1330 C1324 1.368 . S
C1330 C1329 1.523 . S
C1331 C1315 1.429 . S
C1331 C1327 1.429 . S
C1331 C1332 1.523 . S
C1332 C1316 1.368 . S
C1332 C1328 1.368 . S
C1332 C1331 1.523 . S
H1333 C1308 0.950 . S
H1334 C1310 0.950 . S
H1335 C1311 0.949 . S
H1336 C1313 0.950 . S
H1337 C1315 0.950 . S
C1338 C1339 1.349 . S
C1338 C1340 1.327 . S
C1338 H1363 0.950 . S
C1339 C1338 1.349 . S
C1339 C1355 1.349 . S
C1340 C1338 1.327 . S
C1340 C1359 1.429 . S
C1340 H1364 0.950 . S
C1341 C1358 1.574 . S
C1341 C1360 1.368 . S
C1341 H1365 0.949 . S
H1342 C1346 0.949 . S
C1343 C1344 1.349 . S
C1343 C1345 1.327 . S
C1343 H1366 0.950 . S
C1344 C1343 1.349 . S
C1344 C1356 1.349 . S
C1345 C1343 1.327 . S
C1345 C1361 1.429 . S
C1345 H1367 0.950 . S
C1346 H1342 0.949 . S
C1346 C1354 1.574 . S
C1346 C1362 1.368 . S
H1347 C1355 0.950 . S
H1348 C1353 0.950 . S
H1349 C1354 0.949 . S
H1350 C1356 0.950 . S
H1351 C1357 0.950 . S
H1352 C1358 0.949 . S
C1353 H1348 0.950 . S
C1353 C1355 1.327 . S
C1353 C1359 1.429 . S
C1354 C1346 1.574 . S
C1354 H1349 0.949 . S
C1354 C1360 1.368 . S
C1355 C1339 1.349 . S
C1355 H1347 0.950 . S
C1355 C1353 1.327 . S
C1356 C1344 1.349 . S
C1356 H1350 0.950 . S
C1356 C1357 1.327 . S
C1357 H1351 0.950 . S
C1357 C1356 1.327 . S
C1357 C1361 1.429 . S
C1358 C1341 1.574 . S
C1358 H1352 0.949 . S
C1358 C1362 1.368 . S
C1359 C1340 1.429 . S
C1359 C1353 1.429 . S
C1359 C1360 1.523 . S
C1360 C1341 1.368 . S
C1360 C1354 1.368 . S
C1360 C1359 1.523 . S
C1361 C1345 1.429 . S
C1361 C1357 1.429 . S
C1361 C1362 1.523 . S
C1362 C1346 1.368 . S
C1362 C1358 1.368 . S
C1362 C1361 1.523 . S
H1363 C1338 0.950 . S
H1364 C1340 0.950 . S
H1365 C1341 0.949 . S
H1366 C1343 0.950 . S
H1367 C1345 0.950 . S
C1368 C1369 1.349 . S
C1368 C1370 1.327 . S
C1368 H1393 0.950 . S
C1369 C1368 1.349 . S
C1369 C1385 1.349 . S
C1370 C1368 1.327 . S
C1370 C1389 1.429 . S
C1370 H1394 0.950 . S
C1371 C1388 1.574 . S
C1371 C1390 1.368 . S
C1371 H1395 0.949 . S
H1372 C1376 0.949 . S
C1373 C1374 1.349 . S
C1373 C1375 1.327 . S
C1373 H1396 0.950 . S
C1374 C1373 1.349 . S
C1374 C1386 1.349 . S
C1375 C1373 1.327 . S
C1375 C1391 1.429 . S
C1375 H1397 0.950 . S
C1376 H1372 0.949 . S
C1376 C1384 1.574 . S
C1376 C1392 1.368 . S
H1377 C1385 0.950 . S
H1378 C1383 0.950 . S
H1379 C1384 0.949 . S
H1380 C1386 0.950 . S
H1381 C1387 0.950 . S
H1382 C1388 0.949 . S
C1383 H1378 0.950 . S
C1383 C1385 1.327 . S
C1383 C1389 1.429 . S
C1384 C1376 1.574 . S
C1384 H1379 0.949 . S
C1384 C1390 1.368 . S
C1385 C1369 1.349 . S
C1385 H1377 0.950 . S
C1385 C1383 1.327 . S
C1386 C1374 1.349 . S
C1386 H1380 0.950 . S
C1386 C1387 1.327 . S
C1387 H1381 0.950 . S
C1387 C1386 1.327 . S
C1387 C1391 1.429 . S
C1388 C1371 1.574 . S
C1388 H1382 0.949 . S
C1388 C1392 1.368 . S
C1389 C1370 1.429 . S
C1389 C1383 1.429 . S
C1389 C1390 1.523 . S
C1390 C1371 1.368 . S
C1390 C1384 1.368 . S
C1390 C1389 1.523 . S
C1391 C1375 1.429 . S
C1391 C1387 1.429 . S
C1391 C1392 1.523 . S
C1392 C1376 1.368 . S
C1392 C1388 1.368 . S
C1392 C1391 1.523 . S
H1393 C1368 0.950 . S
H1394 C1370 0.950 . S
H1395 C1371 0.949 . S
H1396 C1373 0.950 . S
H1397 C1375 0.950 . S
C1398 C1399 1.349 . S
C1398 C1400 1.327 . S
C1398 H1423 0.950 . S
C1399 C1398 1.349 . S
C1399 C1415 1.349 . S
C1400 C1398 1.327 . S
C1400 C1419 1.429 . S
C1400 H1424 0.950 . S
C1401 C1418 1.574 . S
C1401 C1420 1.368 . S
C1401 H1425 0.949 . S
H1402 C1406 0.949 . S
C1403 C1404 1.349 . S
C1403 C1405 1.327 . S
C1403 H1426 0.950 . S
C1404 C1403 1.349 . S
C1404 C1416 1.349 . S
C1405 C1403 1.327 . S
C1405 C1421 1.429 . S
C1405 H1427 0.950 . S
C1406 H1402 0.949 . S
C1406 C1414 1.574 . S
C1406 C1422 1.368 . S
H1407 C1415 0.950 . S
H1408 C1413 0.950 . S
H1409 C1414 0.949 . S
H1410 C1416 0.950 . S
H1411 C1417 0.950 . S
H1412 C1418 0.949 . S
C1413 H1408 0.950 . S
C1413 C1415 1.327 . S
C1413 C1419 1.429 . S
C1414 C1406 1.574 . S
C1414 H1409 0.949 . S
C1414 C1420 1.368 . S
C1415 C1399 1.349 . S
C1415 H1407 0.950 . S
C1415 C1413 1.327 . S
C1416 C1404 1.349 . S
C1416 H1410 0.950 . S
C1416 C1417 1.327 . S
C1417 H1411 0.950 . S
C1417 C1416 1.327 . S
C1417 C1421 1.429 . S
C1418 C1401 1.574 . S
C1418 H1412 0.949 . S
C1418 C1422 1.368 . S
C1419 C1400 1.429 . S
C1419 C1413 1.429 . S
C1419 C1420 1.523 . S
C1420 C1401 1.368 . S
C1420 C1414 1.368 . S
C1420 C1419 1.523 . S
C1421 C1405 1.429 . S
C1421 C1417 1.429 . S
C1421 C1422 1.523 . S
C1422 C1406 1.368 . S
C1422 C1418 1.368 . S
C1422 C1421 1.523 . S
H1423 C1398 0.950 . S
H1424 C1400 0.950 . S
H1425 C1401 0.949 . S
H1426 C1403 0.950 . S
H1427 C1405 0.950 . S
C1428 C1429 1.349 . S
C1428 C1430 1.327 . S
C1428 H1453 0.950 . S
C1429 C1428 1.349 . S
C1429 C1445 1.349 . S
C1430 C1428 1.327 . S
C1430 C1449 1.429 . S
C1430 H1454 0.950 . S
C1431 C1448 1.574 . S
C1431 C1450 1.368 . S
C1431 H1455 0.949 . S
H1432 C1436 0.949 . S
C1433 C1434 1.349 . S
C1433 C1435 1.327 . S
C1433 H1456 0.950 . S
C1434 C1433 1.349 . S
C1434 C1446 1.349 . S
C1435 C1433 1.327 . S
C1435 C1451 1.429 . S
C1435 H1457 0.950 . S
C1436 H1432 0.949 . S
C1436 C1444 1.574 . S
C1436 C1452 1.368 . S
H1437 C1445 0.950 . S
H1438 C1443 0.950 . S
H1439 C1444 0.949 . S
H1440 C1446 0.950 . S
H1441 C1447 0.950 . S
H1442 C1448 0.949 . S
C1443 H1438 0.950 . S
C1443 C1445 1.327 . S
C1443 C1449 1.429 . S
C1444 C1436 1.574 . S
C1444 H1439 0.949 . S
C1444 C1450 1.368 . S
C1445 C1429 1.349 . S
C1445 H1437 0.950 . S
C1445 C1443 1.327 . S
C1446 C1434 1.349 . S
C1446 H1440 0.950 . S
C1446 C1447 1.327 . S
C1447 H1441 0.950 . S
C1447 C1446 1.327 . S
C1447 C1451 1.429 . S
C1448 C1431 1.574 . S
C1448 H1442 0.949 . S
C1448 C1452 1.368 . S
C1449 C1430 1.429 . S
C1449 C1443 1.429 . S
C1449 C1450 1.523 . S
C1450 C1431 1.368 . S
C1450 C1444 1.368 . S
C1450 C1449 1.523 . S
C1451 C1435 1.429 . S
C1451 C1447 1.429 . S
C1451 C1452 1.523 . S
C1452 C1436 1.368 . S
C1452 C1448 1.368 . S
C1452 C1451 1.523 . S
H1453 C1428 0.950 . S
H1454 C1430 0.950 . S
H1455 C1431 0.949 . S
H1456 C1433 0.950 . S
H1457 C1435 0.950 . S
C1458 C1459 1.349 . S
C1458 C1460 1.327 . S
C1458 H1483 0.950 . S
C1459 C1458 1.349 . S
C1459 C1475 1.349 . S
C1460 C1458 1.327 . S
C1460 C1479 1.429 . S
C1460 H1484 0.950 . S
C1461 C1478 1.574 . S
C1461 C1480 1.368 . S
C1461 H1485 0.949 . S
H1462 C1466 0.949 . S
C1463 C1464 1.349 . S
C1463 C1465 1.327 . S
C1463 H1486 0.950 . S
C1464 C1463 1.349 . S
C1464 C1476 1.349 . S
C1465 C1463 1.327 . S
C1465 C1481 1.429 . S
C1465 H1487 0.950 . S
C1466 H1462 0.949 . S
C1466 C1474 1.574 . S
C1466 C1482 1.368 . S
H1467 C1475 0.950 . S
H1468 C1473 0.950 . S
H1469 C1474 0.949 . S
H1470 C1476 0.950 . S
H1471 C1477 0.950 . S
H1472 C1478 0.949 . S
C1473 H1468 0.950 . S
C1473 C1475 1.327 . S
C1473 C1479 1.429 . S
C1474 C1466 1.574 . S
C1474 H1469 0.949 . S
C1474 C1480 1.368 . S
C1475 C1459 1.349 . S
C1475 H1467 0.950 . S
C1475 C1473 1.327 . S
C1476 C1464 1.349 . S
C1476 H1470 0.950 . S
C1476 C1477 1.327 . S
C1477 H1471 0.950 . S
C1477 C1476 1.327 . S
C1477 C1481 1.429 . S
C1478 C1461 1.574 . S
C1478 H1472 0.949 . S
C1478 C1482 1.368 . S
C1479 C1460 1.429 . S
C1479 C1473 1.429 . S
C1479 C1480 1.523 . S
C1480 C1461 1.368 . S
C1480 C1474 1.368 . S
C1480 C1479 1.523 . S
C1481 C1465 1.429 . S
C1481 C1477 1.429 . S
C1481 C1482 1.523 . S
C1482 C1466 1.368 . S
C1482 C1478 1.368 . S
C1482 C1481 1.523 . S
H1483 C1458 0.950 . S
H1484 C1460 0.950 . S
H1485 C1461 0.949 . S
H1486 C1463 0.950 . S
H1487 C1465 0.950 . S
C769 C13 1.897 . S
C774 C113 1.722 . S
C799 C27 1.932 . S
C804 C253 1.673 . S
C834 C341 1.656 . S
C829 C29 1.852 . S
C864 C481 1.670 . S
C859 C54 1.928 . S
C894 C595 1.637 . S
C889 C69 1.908 . S
C924 C665 1.030 . S
C919 C83 1.917 . S
C949 C15 1.912 . S
C954 C323 1.039 . S
C979 C41 1.791 . S
C984 C427 1.277 . S
C1014 C541 1.313 . S
C1009 C42 1.835 . S
C1044 C683 1.667 . S
C1039 C57 1.853 . S
C1069 C71 1.996 . S
C1074 C95 1.104 . S
C1104 C199 1.267 . S
C1099 C1 1.753 1_655 S
C1134 C437 1.555 . S
C1129 C12 2.027 1_655 S
C1159 C26 2.026 . S
C1164 C551 1.564 . S
C1194 C709 1.348 . S
C1189 C28 2.116 . S
C1219 C55 1.900 . S
C1224 C85 1.658 . S
C1249 C68 2.143 . S
C1254 C209 1.645 . S
C1279 C82 1.870 . S
C1284 C313 1.632 . S
C1309 C14 1.942 . S
C1314 C655 1.689 . S
C1344 C139 1.291 . S
C1339 C40 2.033 . S
C1369 C43 1.949 . S
C1374 C227 1.368 . S
C1399 C56 2.041 . S
C1404 C367 1.272 . S
C1429 C70 1.922 . S
C1434 C455 1.364 . S
C1459 C0 1.987 . S
C1464 C569 1.422 . S
