# Generated by pormake.
# Topology eea, (3,6)-cn, num edge types: 1
# Building blocks:
#     Node 0, Type 0, BuildingBlock: QEWDON_clean_linker_0, # of connection points: 3
#     Node 1, Type 0, BuildingBlock: QEWDON_clean_linker_0, # of connection points: 3
#     Node 2, Type 0, BuildingBlock: QEWDON_clean_linker_0, # of connection points: 3
#     Node 3, Type 0, BuildingBlock: QEWDON_clean_linker_0, # of connection points: 3
#     Node 4, Type 0, BuildingBlock: QEWDON_clean_linker_0, # of connection points: 3
#     Node 5, Type 0, BuildingBlock: QEWDON_clean_linker_0, # of connection points: 3
#     Node 6, Type 0, BuildingBlock: QEWDON_clean_linker_0, # of connection points: 3
#     Node 7, Type 0, BuildingBlock: QEWDON_clean_linker_0, # of connection points: 3
#     Node 8, Type 0, BuildingBlock: QEWDON_clean_linker_0, # of connection points: 3
#     Node 9, Type 0, BuildingBlock: QEWDON_clean_linker_0, # of connection points: 3
#     Node 10, Type 0, BuildingBlock: QEWDON_clean_linker_0, # of connection points: 3
#     Node 11, Type 0, BuildingBlock: QEWDON_clean_linker_0, # of connection points: 3
#     Node 12, Type 0, BuildingBlock: QEWDON_clean_linker_0, # of connection points: 3
#     Node 13, Type 0, BuildingBlock: QEWDON_clean_linker_0, # of connection points: 3
#     Node 14, Type 0, BuildingBlock: QEWDON_clean_linker_0, # of connection points: 3
#     Node 15, Type 0, BuildingBlock: QEWDON_clean_linker_0, # of connection points: 3
#     Node 16, Type 0, BuildingBlock: QEWDON_clean_linker_0, # of connection points: 3
#     Node 17, Type 0, BuildingBlock: QEWDON_clean_linker_0, # of connection points: 3
#     Node 18, Type 1, BuildingBlock: HISSIN_clean_sbu_0, # of connection points: 6
#     Node 19, Type 1, BuildingBlock: HISSIN_clean_sbu_0, # of connection points: 6
#     Node 20, Type 1, BuildingBlock: HISSIN_clean_sbu_0, # of connection points: 6
#     Node 21, Type 1, BuildingBlock: HISSIN_clean_sbu_0, # of connection points: 6
#     Node 22, Type 1, BuildingBlock: HISSIN_clean_sbu_0, # of connection points: 6
#     Node 23, Type 1, BuildingBlock: HISSIN_clean_sbu_0, # of connection points: 6
#     Node 24, Type 1, BuildingBlock: HISSIN_clean_sbu_0, # of connection points: 6
#     Node 25, Type 1, BuildingBlock: HISSIN_clean_sbu_0, # of connection points: 6
#     Node 26, Type 1, BuildingBlock: HISSIN_clean_sbu_0, # of connection points: 6
#     Edge 27, Type (0, 1), BuildingBlock: XUDNAN_clean_linker_2, # of connection points: 2
#     Edge 28, Type (0, 1), BuildingBlock: XUDNAN_clean_linker_2, # of connection points: 2
#     Edge 29, Type (0, 1), BuildingBlock: XUDNAN_clean_linker_2, # of connection points: 2
#     Edge 30, Type (0, 1), BuildingBlock: XUDNAN_clean_linker_2, # of connection points: 2
#     Edge 31, Type (0, 1), BuildingBlock: XUDNAN_clean_linker_2, # of connection points: 2
#     Edge 32, Type (0, 1), BuildingBlock: XUDNAN_clean_linker_2, # of connection points: 2
#     Edge 33, Type (0, 1), BuildingBlock: XUDNAN_clean_linker_2, # of connection points: 2
#     Edge 34, Type (0, 1), BuildingBlock: XUDNAN_clean_linker_2, # of connection points: 2
#     Edge 35, Type (0, 1), BuildingBlock: XUDNAN_clean_linker_2, # of connection points: 2
#     Edge 36, Type (0, 1), BuildingBlock: XUDNAN_clean_linker_2, # of connection points: 2
#     Edge 37, Type (0, 1), BuildingBlock: XUDNAN_clean_linker_2, # of connection points: 2
#     Edge 38, Type (0, 1), BuildingBlock: XUDNAN_clean_linker_2, # of connection points: 2
#     Edge 39, Type (0, 1), BuildingBlock: XUDNAN_clean_linker_2, # of connection points: 2
#     Edge 40, Type (0, 1), BuildingBlock: XUDNAN_clean_linker_2, # of connection points: 2
#     Edge 41, Type (0, 1), BuildingBlock: XUDNAN_clean_linker_2, # of connection points: 2
#     Edge 42, Type (0, 1), BuildingBlock: XUDNAN_clean_linker_2, # of connection points: 2
#     Edge 43, Type (0, 1), BuildingBlock: XUDNAN_clean_linker_2, # of connection points: 2
#     Edge 44, Type (0, 1), BuildingBlock: XUDNAN_clean_linker_2, # of connection points: 2
#     Edge 45, Type (0, 1), BuildingBlock: XUDNAN_clean_linker_2, # of connection points: 2
#     Edge 46, Type (0, 1), BuildingBlock: XUDNAN_clean_linker_2, # of connection points: 2
#     Edge 47, Type (0, 1), BuildingBlock: XUDNAN_clean_linker_2, # of connection points: 2
#     Edge 48, Type (0, 1), BuildingBlock: XUDNAN_clean_linker_2, # of connection points: 2
#     Edge 49, Type (0, 1), BuildingBlock: XUDNAN_clean_linker_2, # of connection points: 2
#     Edge 50, Type (0, 1), BuildingBlock: XUDNAN_clean_linker_2, # of connection points: 2
#     Edge 51, Type (0, 1), BuildingBlock: XUDNAN_clean_linker_2, # of connection points: 2
#     Edge 52, Type (0, 1), BuildingBlock: XUDNAN_clean_linker_2, # of connection points: 2
#     Edge 53, Type (0, 1), BuildingBlock: XUDNAN_clean_linker_2, # of connection points: 2
#     Edge 54, Type (0, 1), BuildingBlock: XUDNAN_clean_linker_2, # of connection points: 2
#     Edge 55, Type (0, 1), BuildingBlock: XUDNAN_clean_linker_2, # of connection points: 2
#     Edge 56, Type (0, 1), BuildingBlock: XUDNAN_clean_linker_2, # of connection points: 2
#     Edge 57, Type (0, 1), BuildingBlock: XUDNAN_clean_linker_2, # of connection points: 2
#     Edge 58, Type (0, 1), BuildingBlock: XUDNAN_clean_linker_2, # of connection points: 2
#     Edge 59, Type (0, 1), BuildingBlock: XUDNAN_clean_linker_2, # of connection points: 2
#     Edge 60, Type (0, 1), BuildingBlock: XUDNAN_clean_linker_2, # of connection points: 2
#     Edge 61, Type (0, 1), BuildingBlock: XUDNAN_clean_linker_2, # of connection points: 2
#     Edge 62, Type (0, 1), BuildingBlock: XUDNAN_clean_linker_2, # of connection points: 2
#     Edge 63, Type (0, 1), BuildingBlock: XUDNAN_clean_linker_2, # of connection points: 2
#     Edge 64, Type (0, 1), BuildingBlock: XUDNAN_clean_linker_2, # of connection points: 2
#     Edge 65, Type (0, 1), BuildingBlock: XUDNAN_clean_linker_2, # of connection points: 2
#     Edge 66, Type (0, 1), BuildingBlock: XUDNAN_clean_linker_2, # of connection points: 2
#     Edge 67, Type (0, 1), BuildingBlock: XUDNAN_clean_linker_2, # of connection points: 2
#     Edge 68, Type (0, 1), BuildingBlock: XUDNAN_clean_linker_2, # of connection points: 2
#     Edge 69, Type (0, 1), BuildingBlock: XUDNAN_clean_linker_2, # of connection points: 2
#     Edge 70, Type (0, 1), BuildingBlock: XUDNAN_clean_linker_2, # of connection points: 2
#     Edge 71, Type (0, 1), BuildingBlock: XUDNAN_clean_linker_2, # of connection points: 2
#     Edge 72, Type (0, 1), BuildingBlock: XUDNAN_clean_linker_2, # of connection points: 2
#     Edge 73, Type (0, 1), BuildingBlock: XUDNAN_clean_linker_2, # of connection points: 2
#     Edge 74, Type (0, 1), BuildingBlock: XUDNAN_clean_linker_2, # of connection points: 2
#     Edge 75, Type (0, 1), BuildingBlock: XUDNAN_clean_linker_2, # of connection points: 2
#     Edge 76, Type (0, 1), BuildingBlock: XUDNAN_clean_linker_2, # of connection points: 2
#     Edge 77, Type (0, 1), BuildingBlock: XUDNAN_clean_linker_2, # of connection points: 2
#     Edge 78, Type (0, 1), BuildingBlock: XUDNAN_clean_linker_2, # of connection points: 2
#     Edge 79, Type (0, 1), BuildingBlock: XUDNAN_clean_linker_2, # of connection points: 2
#     Edge 80, Type (0, 1), BuildingBlock: XUDNAN_clean_linker_2, # of connection points: 2
# Relax obj value: 0.087
# Max RMSD: 0.262
# Mean RMSD: 0.181
data_MOF--net-eea--node1-HISSIN_clean_sbu_0--node2-QEWDON_clean_linker_0--edge1-XUDNAN_clean_linker_2
_symmetry_space_group_name_H-M    P1
_symmetry_Int_Tables_number       1
_symmetry_cell_setting            triclinic
loop_
_symmetry_equiv_pos_as_xyz
'x, y, z'
_cell_length_a     58.067464
_cell_length_b     58.89144
_cell_length_c     66.0468
_cell_angle_alpha  93.351243
_cell_angle_beta   93.669767
_cell_angle_gamma 119.72714
loop_
_atom_site_label
_atom_site_type_symbol
_atom_site_fract_x
_atom_site_fract_y
_atom_site_fract_z
_atom_type_partial_charge
H0 H 0.23329 0.13142 0.43651 0.0
C1 C 0.22952 0.11313 0.42844 0.0
C2 C 0.244 0.10109 0.43498 0.0
C3 C 0.20883 0.10065 0.4125 0.0
H4 H 0.248 0.06665 0.43094 0.0
C5 C 0.23756 0.07639 0.42536 0.0
C6 C 0.21716 0.06392 0.40912 0.0
C7 C 0.20365 0.07678 0.40241 0.0
C8 C 0.19063 0.1108 0.4075 0.0
H9 H 0.18835 0.0679 0.38956 0.0
C10 C 0.20051 0.13721 0.40406 0.0
C11 C 0.1828 0.14621 0.39868 0.0
C12 C 0.16289 0.09362 0.40599 0.0
H13 H 0.15479 0.07325 0.40886 0.0
C14 C 0.14532 0.10256 0.40097 0.0
H15 H 0.22187 0.15045 0.40495 0.0
C16 C 0.15514 0.12866 0.3973 0.0
H17 H 0.14106 0.13519 0.39361 0.0
H18 H 0.12401 0.08922 0.39995 0.0
H19 H 0.91357 0.11017 0.44921 0.0
C20 C 0.9291 0.12526 0.44155 0.0
C21 C 0.93847 0.15196 0.44772 0.0
C22 C 0.93962 0.11796 0.42547 0.0
H23 H 0.96626 0.192 0.44241 0.0
C24 C 0.95874 0.17137 0.43773 0.0
C25 C 0.96907 0.16433 0.42145 0.0
C26 C 0.9594 0.13766 0.41541 0.0
C27 C 0.93016 0.08988 0.41896 0.0
H28 H 0.96732 0.13225 0.40274 0.0
C29 C 0.90273 0.07107 0.41612 0.0
C30 C 0.89404 0.04493 0.40852 0.0
C31 C 0.94874 0.08197 0.41475 0.0
H32 H 0.96996 0.0959 0.41707 0.0
C33 C 0.94016 0.05601 0.4075 0.0
H34 H 0.88817 0.07693 0.41905 0.0
C35 C 0.913 0.03762 0.40425 0.0
H36 H 0.90678 0.01756 0.39858 0.0
H37 H 0.95463 0.05014 0.40429 0.0
H38 H 0.91021 0.78919 0.46845 0.0
C39 C 0.89762 0.7907 0.45638 0.0
C40 C 0.87051 0.78106 0.45844 0.0
C41 C 0.90912 0.80409 0.43958 0.0
H42 H 0.83431 0.77838 0.44557 0.0
C43 C 0.8549 0.78489 0.4434 0.0
C44 C 0.86588 0.79818 0.42636 0.0
C45 C 0.89308 0.80717 0.4244 0.0
C46 C 0.93855 0.81945 0.44023 0.0
H47 H 0.90229 0.81787 0.41169 0.0
C48 C 0.95265 0.81361 0.42616 0.0
C49 C 0.98083 0.82879 0.42757 0.0
C50 C 0.95262 0.84068 0.45539 0.0
H51 H 0.94211 0.84555 0.46625 0.0
C52 C 0.98024 0.85608 0.4565 0.0
H53 H 0.94182 0.79701 0.41462 0.0
C54 C 0.99424 0.8503 0.44273 0.0
H55 H 0.0157 0.86292 0.44389 0.0
H56 H 0.99086 0.87262 0.46809 0.0
H57 H 0.1236 0.20847 0.58771 0.0
C58 C 0.10831 0.20821 0.59645 0.0
C59 C 0.10025 0.22694 0.59403 0.0
C60 C 0.0967 0.18921 0.61016 0.0
H61 H 0.07425 0.24098 0.60372 0.0
C62 C 0.08038 0.2265 0.60544 0.0
C63 C 0.06871 0.20772 0.61928 0.0
C64 C 0.07698 0.18917 0.62146 0.0
C65 C 0.10464 0.16902 0.61277 0.0
H66 H 0.06803 0.17461 0.63211 0.0
C67 C 0.1317 0.17597 0.61634 0.0
C68 C 0.13855 0.15678 0.62077 0.0
C69 C 0.08476 0.14256 0.61284 0.0
H70 H 0.06385 0.13661 0.60989 0.0
C71 C 0.09155 0.12352 0.61681 0.0
H72 H 0.14726 0.19631 0.61655 0.0
C73 C 0.11823 0.13057 0.62094 0.0
H74 H 0.12305 0.11548 0.62416 0.0
H75 H 0.07605 0.10324 0.61687 0.0
H76 H 0.7979 0.90978 0.61431 0.0
C77 C 0.79406 0.89237 0.62156 0.0
C78 C 0.77519 0.8673 0.61189 0.0
C79 C 0.80867 0.89518 0.64021 0.0
H80 H 0.75662 0.82541 0.61399 0.0
C81 C 0.77124 0.84484 0.62113 0.0
C82 C 0.78558 0.84746 0.63993 0.0
C83 C 0.80425 0.87266 0.64924 0.0
C84 C 0.8285 0.92158 0.65046 0.0
H85 H 0.81554 0.87478 0.66365 0.0
C86 C 0.82239 0.94187 0.6518 0.0
C87 C 0.84082 0.96676 0.66193 0.0
C88 C 0.85337 0.92643 0.65939 0.0
H89 H 0.85876 0.91126 0.65841 0.0
C90 C 0.87169 0.95104 0.66953 0.0
H91 H 0.80303 0.9381 0.64536 0.0
C92 C 0.86551 0.97111 0.67083 0.0
H93 H 0.88027 0.99018 0.67844 0.0
H94 H 0.89082 0.95462 0.67629 0.0
H95 H 0.08178 0.86933 0.60534 0.0
C96 C 0.10135 0.88515 0.61158 0.0
C97 C 0.12286 0.893 0.59976 0.0
C98 C 0.10483 0.89856 0.63093 0.0
H99 H 0.1644 0.92054 0.59817 0.0
C100 C 0.14797 0.91423 0.60746 0.0
C101 C 0.15202 0.92755 0.62681 0.0
C102 C 0.13044 0.91931 0.63853 0.0
C103 C 0.08179 0.89208 0.64294 0.0
H104 H 0.13364 0.92912 0.65369 0.0
C105 C 0.06108 0.86591 0.64338 0.0
C106 C 0.03968 0.86027 0.65504 0.0
C107 C 0.08042 0.91245 0.65406 0.0
H108 H 0.09546 0.93284 0.65364 0.0
C109 C 0.05938 0.90691 0.66567 0.0
H110 H 0.0618 0.84993 0.63503 0.0
C111 C 0.03918 0.88104 0.66622 0.0
H112 H 0.02278 0.87735 0.67505 0.0
H113 H 0.05859 0.92278 0.67411 0.0
H114 H 0.88367 0.45798 0.75281 0.0
C115 C 0.89053 0.44537 0.7463 0.0
C116 C 0.90686 0.43932 0.75873 0.0
C117 C 0.88255 0.43474 0.72575 0.0
H118 H 0.92726 0.41722 0.76026 0.0
C119 C 0.91509 0.42231 0.75056 0.0
C120 C 0.90671 0.41084 0.73031 0.0
C121 C 0.89089 0.41759 0.71791 0.0
C122 C 0.86462 0.44064 0.71275 0.0
H123 H 0.88439 0.40885 0.70225 0.0
C124 C 0.86725 0.46576 0.71478 0.0
C125 C 0.84978 0.47122 0.70311 0.0
C126 C 0.84441 0.42107 0.69848 0.0
H127 H 0.84131 0.40132 0.69679 0.0
C128 C 0.82745 0.42657 0.68651 0.0
H129 H 0.88305 0.48122 0.72536 0.0
C130 C 0.83001 0.45144 0.6888 0.0
H131 H 0.81608 0.45495 0.67976 0.0
H132 H 0.81192 0.41133 0.67566 0.0
H133 H 0.56634 0.42123 0.76992 0.0
C134 C 0.58129 0.43991 0.76549 0.0
C135 C 0.59 0.4627 0.77883 0.0
C136 C 0.59188 0.44094 0.74679 0.0
H137 H 0.61602 0.50443 0.78362 0.0
C138 C 0.60969 0.48691 0.77335 0.0
C139 C 0.62187 0.48847 0.75528 0.0
C140 C 0.61237 0.46531 0.74195 0.0
C141 C 0.58202 0.41635 0.73277 0.0
H142 H 0.6212 0.46609 0.72792 0.0
C143 C 0.55527 0.3959 0.73181 0.0
C144 C 0.54617 0.37195 0.71978 0.0
C145 C 0.59932 0.41263 0.72078 0.0
H146 H 0.62017 0.42744 0.72139 0.0
C147 C 0.5901 0.38928 0.70818 0.0
H148 H 0.54132 0.39848 0.74042 0.0
C149 C 0.56375 0.36899 0.70773 0.0
H150 H 0.55739 0.3507 0.69843 0.0
H151 H 0.60363 0.38664 0.6991 0.0
H152 H 0.60182 0.13631 0.78046 0.0
C153 C 0.58247 0.13235 0.77384 0.0
C154 C 0.55995 0.11869 0.78445 0.0
C155 C 0.58009 0.14143 0.75498 0.0
H156 H 0.51819 0.10544 0.78492 0.0
C157 C 0.53512 0.1146 0.77617 0.0
C158 C 0.53221 0.12339 0.75737 0.0
C159 C 0.55474 0.13625 0.74674 0.0
C160 C 0.60398 0.15776 0.74424 0.0
H161 H 0.55257 0.14241 0.73194 0.0
C162 C 0.62478 0.15198 0.74286 0.0
C163 C 0.64669 0.16739 0.73202 0.0
C164 C 0.60589 0.17957 0.73511 0.0
H165 H 0.59075 0.18508 0.73631 0.0
C166 C 0.62749 0.19483 0.72451 0.0
H167 H 0.62364 0.13524 0.74973 0.0
C168 C 0.64768 0.1888 0.7229 0.0
H169 H 0.66444 0.20132 0.71486 0.0
H170 H 0.62867 0.21156 0.71762 0.0
H171 H 0.77822 0.53901 0.91706 0.0
C172 C 0.76313 0.53755 0.92661 0.0
C173 C 0.74815 0.54967 0.92178 0.0
C174 C 0.7572 0.52171 0.94268 0.0
H175 H 0.71522 0.55454 0.92907 0.0
C176 C 0.72727 0.54595 0.93342 0.0
C177 C 0.72142 0.53063 0.95002 0.0
C178 C 0.73703 0.51898 0.95463 0.0
C179 C 0.76871 0.50443 0.94489 0.0
H180 H 0.73334 0.50712 0.96725 0.0
C181 C 0.79556 0.51438 0.95242 0.0
C182 C 0.80576 0.49719 0.95446 0.0
C183 C 0.75221 0.47735 0.93927 0.0
H184 H 0.73151 0.46938 0.93343 0.0
C185 C 0.76226 0.46036 0.94102 0.0
H186 H 0.80829 0.5353 0.95679 0.0
C187 C 0.78879 0.47013 0.94858 0.0
H188 H 0.79584 0.45634 0.95029 0.0
H189 H 0.74938 0.4395 0.93667 0.0
H190 H 0.46578 0.24761 0.94653 0.0
C191 C 0.46257 0.22987 0.95297 0.0
C192 C 0.4428 0.20507 0.94352 0.0
C193 C 0.47925 0.23192 0.97014 0.0
H194 H 0.42488 0.16315 0.94435 0.0
C195 C 0.43982 0.18231 0.95169 0.0
C196 C 0.45626 0.18415 0.96905 0.0
C197 C 0.47574 0.20914 0.97823 0.0
C198 C 0.50123 0.25777 0.97926 0.0
H199 H 0.48826 0.21109 0.99187 0.0
C200 C 0.4961 0.27767 0.9861 0.0
C201 C 0.5171 0.30213 0.99496 0.0
C202 C 0.52749 0.26244 0.98141 0.0
H203 H 0.53182 0.24728 0.97625 0.0
C204 C 0.54842 0.28681 0.99002 0.0
H205 H 0.47584 0.27412 0.98456 0.0
C206 C 0.54331 0.30664 0.99671 0.0
H207 H 0.55977 0.3254 1.00348 0.0
H208 H 0.56863 0.29034 0.99153 0.0
H209 H 0.7543 0.21497 0.93308 0.0
C210 C 0.77241 0.23097 0.94134 0.0
C211 C 0.79718 0.23924 0.93374 0.0
C212 C 0.77062 0.24411 0.95902 0.0
H213 H 0.83956 0.2668 0.93902 0.0
C214 C 0.8204 0.26016 0.94474 0.0
C215 C 0.81896 0.27314 0.96278 0.0
C216 C 0.79386 0.26509 0.96963 0.0
C217 C 0.74423 0.23797 0.96506 0.0
H218 H 0.79221 0.27562 0.98297 0.0
C219 C 0.72672 0.21342 0.9716 0.0
C220 C 0.70143 0.20787 0.97688 0.0
C221 C 0.73635 0.25691 0.96389 0.0
H222 H 0.74956 0.27589 0.95886 0.0
C223 C 0.71123 0.25136 0.96888 0.0
H224 H 0.73278 0.19879 0.97262 0.0
C225 C 0.69383 0.227 0.97528 0.0
H226 H 0.67459 0.22331 0.9794 0.0
H227 H 0.70526 0.26603 0.96785 0.0
H228 H 0.5787 0.81092 0.08301 0.0
C229 C 0.57767 0.79313 0.07644 0.0
C230 C 0.58871 0.78089 0.08815 0.0
C231 C 0.56455 0.78198 0.05676 0.0
H232 H 0.59136 0.74568 0.09001 0.0
C233 C 0.58449 0.75606 0.08064 0.0
C234 C 0.57102 0.74451 0.06114 0.0
C235 C 0.56342 0.75882 0.04885 0.0
C236 C 0.55004 0.79283 0.04491 0.0
H237 H 0.55529 0.75105 0.03318 0.0
C238 C 0.55831 0.81984 0.04711 0.0
C239 C 0.54367 0.82937 0.03637 0.0
C240 C 0.52678 0.77567 0.03172 0.0
H241 H 0.51879 0.75463 0.0302 0.0
C242 C 0.51282 0.78522 0.02061 0.0
H243 H 0.57601 0.83355 0.0571 0.0
C244 C 0.52114 0.81187 0.02289 0.0
H245 H 0.50927 0.81861 1.0147 0.0
H246 H 0.49504 0.77177 1.01058 0.0
H247 H 0.23706 0.77087 0.10528 0.0
C248 C 0.25213 0.78707 0.09814 0.0
C249 C 0.25871 0.81294 0.1045 0.0
C250 C 0.26488 0.78196 0.08261 0.0
H251 H 0.28364 0.85375 0.1002 0.0
C252 C 0.27812 0.83373 0.09501 0.0
C253 C 0.29096 0.82901 0.07931 0.0
C254 C 0.28439 0.803 0.07335 0.0
C255 C 0.25773 0.75456 0.07605 0.0
H256 H 0.29384 0.799 0.0611 0.0
C257 C 0.23088 0.73498 0.07082 0.0
C258 C 0.22401 0.70886 0.06485 0.0
C259 C 0.27772 0.74782 0.07515 0.0
H260 H 0.29851 0.76255 0.07916 0.0
C261 C 0.27097 0.72187 0.06947 0.0
H262 H 0.21537 0.7401 0.07133 0.0
C263 C 0.2443 0.70246 0.0644 0.0
H264 H 0.23958 0.68255 0.05974 0.0
H265 H 0.28649 0.7168 0.06892 0.0
H266 H 0.25255 0.45564 0.1239 0.0
C267 C 0.23842 0.45953 0.11551 0.0
C268 C 0.2114 0.4461 0.11897 0.0
C269 C 0.24749 0.47871 0.1018 0.0
H270 H 0.17309 0.44278 0.11216 0.0
C271 C 0.19353 0.45216 0.10854 0.0
C272 C 0.20216 0.47118 0.09454 0.0
C273 C 0.2293 0.48405 0.09114 0.0
C274 C 0.2764 0.49587 0.10066 0.0
H275 H 0.2367 0.49869 0.08041 0.0
C276 C 0.29187 0.48639 0.09182 0.0
C277 C 0.31941 0.50346 0.09089 0.0
C278 C 0.28854 0.52233 0.10859 0.0
H279 H 0.27693 0.52994 0.11545 0.0
C280 C 0.31573 0.53916 0.10789 0.0
H281 H 0.28251 0.46597 0.08563 0.0
C282 C 0.33107 0.52987 0.0991 0.0
H283 H 0.35202 0.54358 0.09833 0.0
H284 H 0.32491 0.55955 0.11404 0.0
H285 H 0.44773 0.87374 0.25796 0.0
C286 C 0.43198 0.87294 0.2664 0.0
C287 C 0.41609 0.88306 0.25865 0.0
C288 C 0.42597 0.85969 0.28404 0.0
H289 H 0.38144 0.88678 0.26246 0.0
C290 C 0.39425 0.87995 0.26889 0.0
C291 C 0.3882 0.8671 0.28673 0.0
C292 C 0.40497 0.85805 0.29451 0.0
C293 C 0.43808 0.84358 0.28994 0.0
H294 H 0.40109 0.8485 0.30842 0.0
C295 C 0.46592 0.8541 0.29371 0.0
C296 C 0.47615 0.83817 0.30055 0.0
C297 C 0.42087 0.81692 0.29228 0.0
H298 H 0.39945 0.80821 0.28917 0.0
C299 C 0.43094 0.80112 0.29857 0.0
H300 H 0.47938 0.87461 0.292 0.0
C301 C 0.4583 0.81162 0.30277 0.0
H302 H 0.46557 0.79879 0.30753 0.0
H303 H 0.41744 0.78062 0.30025 0.0
H304 H 0.13481 0.57681 0.28092 0.0
C305 C 0.13353 0.56056 0.28868 0.0
C306 C 0.11347 0.53468 0.28184 0.0
C307 C 0.15215 0.56552 0.3054 0.0
H308 H 0.09699 0.49374 0.28668 0.0
C309 C 0.1121 0.51383 0.29201 0.0
C310 C 0.13042 0.51873 0.30887 0.0
C311 C 0.15042 0.54456 0.31548 0.0
C312 C 0.17348 0.59259 0.3124 0.0
H313 H 0.16482 0.54835 0.32839 0.0
C314 C 0.16698 0.61192 0.31783 0.0
C315 C 0.18712 0.63768 0.32474 0.0
C316 C 0.20035 0.59911 0.31399 0.0
H317 H 0.20573 0.58439 0.30992 0.0
C318 C 0.22047 0.62482 0.32059 0.0
H319 H 0.14623 0.60688 0.31674 0.0
C320 C 0.21395 0.64409 0.32588 0.0
H321 H 0.22978 0.66388 0.33116 0.0
H322 H 0.24116 0.6298 0.32166 0.0
H323 H 0.42413 0.54655 0.27745 0.0
C324 C 0.44335 0.56412 0.2816 0.0
C325 C 0.46452 0.56871 0.27015 0.0
C326 C 0.44661 0.58245 0.29782 0.0
H327 H 0.50542 0.59542 0.26611 0.0
C328 C 0.48917 0.59186 0.27505 0.0
C329 C 0.4927 0.61107 0.29051 0.0
C330 C 0.47142 0.60592 0.30213 0.0
C331 C 0.42352 0.57778 0.30926 0.0
H332 H 0.47392 0.62049 0.31416 0.0
C333 C 0.40485 0.55222 0.31353 0.0
C334 C 0.38179 0.54729 0.32281 0.0
C335 C 0.41927 0.59865 0.31515 0.0
H336 H 0.4328 0.61847 0.31179 0.0
C337 C 0.39693 0.59407 0.32485 0.0
H338 H 0.40833 0.53613 0.30963 0.0
C339 C 0.37821 0.56863 0.32851 0.0
H340 H 0.36056 0.56567 0.33529 0.0
H341 H 0.39377 0.61027 0.3291 0.0
Eu342 Eu 0.49487 0.00247 1.00294 0.0
Eu343 Eu 0.50562 0.02235 0.05247 0.0
C344 C 0.48088 0.04483 0.02127 0.0
C345 C 0.50151 0.00732 0.94614 0.0
C346 C 0.52923 0.02401 0.94663 0.0
C347 C 0.49569 0.0208 0.91295 0.0
C348 C 0.54008 0.03871 0.93033 0.0
C349 C 0.4849 0.0059 0.92917 0.0
C350 C 0.52348 0.03736 0.91323 0.0
C351 C 0.48962 0.99175 0.9633 0.0
O352 O 0.46175 0.99318 0.04476 0.0
O353 O 0.46237 0.96841 0.01677 0.0
C354 C 0.45056 0.97154 0.03214 0.0
O355 O 0.5212 0.98855 0.0174 0.0
O356 O 0.49402 0.03545 0.0796 0.0
O357 O 0.52771 0.02916 0.08235 0.0
O358 O 0.50691 0.98497 0.04911 0.0
C359 C 0.51887 0.97931 0.03521 0.0
O360 O 0.52982 0.04368 1.00692 0.0
O361 O 0.54548 0.04549 0.04013 0.0
O362 O 0.49972 0.05201 0.03635 0.0
O363 O 0.50541 0.98808 0.97589 0.0
O364 O 0.47363 0.99709 0.97282 0.0
O365 O 0.47133 0.02241 1.00993 0.0
C366 C 0.49909 0.01574 0.10824 0.0
C367 C 0.48021 0.98907 0.10302 0.0
C368 C 0.49494 0.00907 0.14413 0.0
C369 C 0.46858 0.97258 0.11819 0.0
C370 C 0.50654 0.02562 0.12888 0.0
C371 C 0.47562 0.98239 0.13895 0.0
C372 C 0.51083 0.03297 0.09205 0.0
C373 C 0.54908 0.05404 0.02198 0.0
H374 H 0.5426 0.02572 0.9596 0.0
H375 H 0.48214 0.01959 0.90034 0.0
H376 H 0.56154 0.05092 0.93109 0.0
H377 H 0.46346 0.99338 0.92852 0.0
H378 H 0.47436 0.98101 0.08715 0.0
H379 H 0.50065 0.01729 0.15995 0.0
H380 H 0.45411 0.95208 0.11364 0.0
H381 H 0.52114 0.04614 0.13319 0.0
Eu382 Eu 0.01833 0.49809 0.99804 0.0
Eu383 Eu 1.00416 0.49674 0.04562 0.0
C384 C 0.97292 0.44501 1.0136 0.0
C385 C 0.01152 0.49433 0.94029 0.0
C386 C 0.9914 0.50092 0.93786 0.0
C387 C 1.00087 0.47589 0.90486 0.0
C388 C 0.97649 0.49549 0.91897 0.0
C389 C 0.01601 0.48162 0.92371 0.0
C390 C 0.9811 0.48301 0.90219 0.0
C391 C 0.02798 0.50075 0.95994 0.0
O392 O 0.03397 0.48251 0.04521 0.0
O393 O 0.05356 0.50066 0.01663 0.0
C394 C 0.05375 0.49038 0.03372 0.0
O395 O 0.03686 0.53993 1.01268 0.0
O396 O 0.98945 0.47564 0.07214 0.0
O397 O 0.99874 0.51622 0.07253 0.0
O398 O 0.04408 0.53313 0.04559 0.0
C399 C 0.05009 0.54854 0.03094 0.0
O400 O 0.97804 0.49472 0.99652 0.0
O401 O 0.98317 0.51472 0.0285 0.0
O402 O 0.97111 0.45935 0.02867 0.0
O403 O 0.03021 0.52036 0.97181 0.0
O404 O 0.02444 0.481 0.96995 0.0
O405 O 0.99233 0.45499 1.00187 0.0
C406 C 1.00187 0.50075 0.10416 0.0
C407 C 0.02647 0.5026 0.10988 0.0
C408 C 0.99599 0.50611 0.13977 0.0
C409 C 0.03565 0.50591 0.13054 0.0
C410 C 0.98687 0.5028 0.11917 0.0
C411 C 0.02032 0.50737 0.1457 0.0
C412 C 0.99092 0.4958 0.08275 0.0
C413 C 0.97112 0.507 1.00982 0.0
H414 H 0.98734 0.51054 0.95049 0.0
H415 H 1.00459 0.46572 0.89243 0.0
H416 H 0.96169 0.50154 0.91748 0.0
H417 H 0.03127 0.47616 0.92534 0.0
H418 H 0.03829 0.50105 0.0984 0.0
H419 H 0.98396 0.50761 0.15107 0.0
H420 H 0.05437 0.50661 0.13464 0.0
H421 H 0.96788 0.50152 0.11495 0.0
Eu422 Eu 0.53055 0.51691 0.04963 0.0
Eu423 Eu 0.50995 0.50864 1.00057 0.0
C424 C 0.53117 0.5628 0.0269 0.0
C425 C 0.53096 0.52025 0.10719 0.0
C426 C 0.5034 0.50276 0.10628 0.0
C427 C 0.53151 0.53383 0.14268 0.0
C428 C 0.48997 0.50079 0.12352 0.0
C429 C 0.54492 0.53561 0.1255 0.0
C430 C 0.50382 0.5165 0.14191 0.0
C431 C 0.54501 0.52395 0.08886 0.0
O432 O 0.55492 0.52705 1.00271 0.0
O433 O 0.56216 0.51418 0.03351 0.0
C434 C 0.56953 0.5219 1.01561 0.0
O435 O 0.50536 0.47326 0.04014 0.0
O436 O 0.51288 0.52534 0.9716 0.0
O437 O 0.48463 0.48409 0.97328 0.0
O438 O 0.51598 0.47514 1.00738 0.0
C439 C 0.50841 0.46229 0.02342 0.0
O440 O 0.4898 0.51248 0.04877 0.0
O441 O 0.47207 0.49219 0.01624 0.0
O442 O 0.51114 0.54464 1.01451 0.0
O443 O 0.53931 0.50275 0.07728 0.0
O444 O 0.54625 0.54244 0.0783 0.0
O445 O 0.54658 0.55688 0.03806 0.0
C446 C 0.50583 0.4957 0.94336 0.0
C447 C 0.52514 0.48807 0.94562 0.0
C448 C 0.50512 0.49031 0.90658 0.0
C449 C 0.53428 0.48144 0.92845 0.0
C450 C 0.49593 0.49687 0.92379 0.0
C451 C 0.52432 0.48241 0.90873 0.0
C452 C 0.49622 0.50267 0.96138 0.0
C453 C 0.46933 0.49931 0.03482 0.0
H454 H 0.4922 0.49092 0.09217 0.0
H455 H 0.54279 0.54669 0.15637 0.0
H456 H 0.46873 0.48708 0.12239 0.0
H457 H 0.56613 0.54946 0.12637 0.0
H458 H 0.53314 0.48727 0.96068 0.0
H459 H 0.49689 0.49101 0.8916 0.0
H460 H 0.54935 0.47581 0.93062 0.0
H461 H 0.48104 0.50277 0.92181 0.0
Eu462 Eu 0.1681 0.33362 0.33688 0.0
Eu463 Eu 0.18417 0.35627 0.38607 0.0
C464 C 0.15942 0.37978 0.35452 0.0
C465 C 0.16147 0.32815 0.2783 0.0
C466 C 0.17163 0.35512 0.27705 0.0
C467 C 0.15934 0.32131 0.24148 0.0
C468 C 0.17536 0.3651 0.25804 0.0
C469 C 0.15561 0.3114 0.26045 0.0
C470 C 0.16897 0.34823 0.24 0.0
C471 C 0.15619 0.31701 0.29796 0.0
O472 O 0.14732 0.31628 0.38474 0.0
O473 O 0.13012 0.31358 0.35184 0.0
C474 C 0.12733 0.30579 0.37021 0.0
O475 O 0.17349 0.30376 0.35297 0.0
O476 O 0.17498 0.37122 0.41358 0.0
O477 O 0.21002 0.36709 0.4147 0.0
O478 O 0.20311 0.33168 0.37967 0.0
C479 C 0.19199 0.30932 0.36799 0.0
O480 O 0.21227 0.36193 0.34127 0.0
O481 O 0.21551 0.38822 0.36964 0.0
O482 O 0.15844 0.37128 0.37252 0.0
O483 O 0.17644 0.31846 0.30897 0.0
O484 O 0.1413 0.32248 0.3089 0.0
O485 O 0.16833 0.37187 0.33952 0.0
C486 C 0.18684 0.35937 0.44436 0.0
C487 C 0.1891 0.33733 0.44839 0.0
C488 C 0.16877 0.35794 0.47677 0.0
C489 C 0.18146 0.32585 0.46659 0.0
C490 C 0.17659 0.3695 0.4587 0.0
C491 C 0.17124 0.33605 0.48106 0.0
C492 C 0.19425 0.37174 0.4252 0.0
C493 C 0.22512 0.38418 0.35315 0.0
H494 H 0.17628 0.36837 0.29073 0.0
H495 H 0.15464 0.30785 0.22795 0.0
H496 H 0.18258 0.38587 0.25744 0.0
H497 H 0.14788 0.29054 0.26116 0.0
H498 H 0.19675 0.32896 0.43751 0.0
H499 H 0.16046 0.36603 0.48726 0.0
H500 H 0.18389 0.3092 0.46941 0.0
H501 H 0.17442 0.38631 0.45583 0.0
Eu502 Eu 0.69801 0.84371 0.32592 0.0
Eu503 Eu 0.67517 0.82862 0.37148 0.0
C504 C 0.64965 0.78572 0.33242 0.0
C505 C 0.70332 0.84673 0.26858 0.0
C506 C 0.67592 0.82946 0.26331 0.0
C507 C 0.7088 0.85383 0.233 0.0
C508 C 0.66496 0.8246 0.24295 0.0
C509 C 0.7197 0.85862 0.2533 0.0
C510 C 0.68124 0.83709 0.22761 0.0
C511 C 0.71489 0.85365 0.28996 0.0
O512 O 0.70667 0.81676 0.36857 0.0
O513 O 0.73134 0.84521 0.3461 0.0
C514 C 0.72904 0.82975 0.36024 0.0
O515 O 0.71727 0.88247 0.34556 0.0
O516 O 0.66527 0.80268 0.39591 0.0
O517 O 0.65983 0.83652 0.39857 0.0
O518 O 0.71137 0.86889 0.37785 0.0
C519 C 0.72259 0.88719 0.36551 0.0
O520 O 0.65896 0.84285 0.32279 0.0
O521 O 0.6507 0.84461 0.3564 0.0
O522 O 0.64521 0.79481 0.34942 0.0
O523 O 0.70849 0.86841 0.30094 0.0
O524 O 0.71428 0.83473 0.2997 0.0
O525 O 0.67118 0.79959 0.32335 0.0
C526 C 0.67263 0.82446 0.42906 0.0
C527 C 0.69116 0.85064 0.43653 0.0
C528 C 0.6762 0.81113 0.46277 0.0
C529 C 0.70159 0.85705 0.45704 0.0
C530 C 0.66551 0.80474 0.44227 0.0
C531 C 0.69397 0.83743 0.47043 0.0
C532 C 0.65998 0.81761 0.40781 0.0
C533 C 0.64578 0.84624 0.33694 0.0
H534 H 0.66297 0.82019 0.27499 0.0
H535 H 0.72194 0.8634 0.22151 0.0
H536 H 0.64365 0.81176 0.23931 0.0
H537 H 0.7409 0.87197 0.25713 0.0
H538 H 0.69729 0.86623 0.42663 0.0
H539 H 0.66991 0.79564 0.47277 0.0
H540 H 0.71556 0.87743 0.46246 0.0
H541 H 0.65131 0.78443 0.43681 0.0
Eu542 Eu 0.18599 0.84302 0.37439 0.0
Eu543 Eu 0.16735 0.83947 0.32519 0.0
C544 C 0.18703 0.89118 0.35513 0.0
C545 C 0.18477 0.84548 0.43186 0.0
C546 C 0.16915 0.85757 0.43262 0.0
C547 C 0.17433 0.83244 0.46582 0.0
C548 C 0.15657 0.85746 0.45002 0.0
C549 C 0.18713 0.8328 0.44851 0.0
C550 C 0.15907 0.84492 0.4668 0.0
C551 C 0.19791 0.84511 0.41359 0.0
O552 O 0.21235 0.85676 0.3282 0.0
O553 O 0.21743 0.8405 0.35797 0.0
C554 C 0.22593 0.8499 0.3407 0.0
O555 O 0.16016 0.80037 0.36217 0.0
O556 O 0.17066 0.85938 0.29788 0.0
O557 O 0.14337 0.81732 0.29661 0.0
O558 O 0.17178 0.8044 0.3297 0.0
C559 C 0.1637 0.79047 0.34515 0.0
O560 O 0.14675 0.84165 0.37352 0.0
O561 O 0.12903 0.82285 0.34064 0.0
O562 O 0.16836 0.87453 0.34108 0.0
O563 O 0.18588 0.82334 0.40146 0.0
O564 O 0.2068 0.86578 0.40358 0.0
O565 O 0.20202 0.88437 0.36583 0.0
C566 C 0.16291 0.83414 0.2666 0.0
C567 C 0.18667 0.83354 0.26547 0.0
C568 C 0.15666 0.83103 0.22967 0.0
C569 C 0.19553 0.83199 0.24647 0.0
C570 C 0.14783 0.83253 0.24861 0.0
C571 C 0.18081 0.83114 0.22836 0.0
C572 C 0.15419 0.83776 0.28631 0.0
C573 C 0.12633 0.82946 0.35943 0.0
H574 H 0.16667 0.8671 0.41979 0.0
H575 H 0.17681 0.82285 0.4786 0.0
H576 H 0.14475 0.86704 0.45032 0.0
H577 H 0.19892 0.82319 0.44813 0.0
H578 H 0.19859 0.83483 0.27926 0.0
H579 H 0.14464 0.82995 0.21602 0.0
H580 H 0.2143 0.83231 0.24599 0.0
H581 H 0.12942 0.8329 0.24922 0.0
Eu582 Eu 0.8136 0.6564 0.66897 0.0
Eu583 Eu 0.83725 0.68306 0.71706 0.0
C584 C 0.81364 0.70893 0.68702 0.0
C585 C 0.80074 0.65465 0.61261 0.0
C586 C 0.80695 0.68096 0.61545 0.0
C587 C 0.80422 0.65829 0.57634 0.0
C588 C 0.8116 0.69579 0.59888 0.0
C589 C 0.79938 0.64338 0.59297 0.0
C590 C 0.81042 0.68468 0.57913 0.0
C591 C 0.79773 0.63984 0.63039 0.0
O592 O 0.79258 0.65994 0.71503 0.0
O593 O 0.78309 0.62875 0.68851 0.0
C594 C 0.77702 0.63641 0.70547 0.0
O595 O 0.83536 0.63644 0.68105 0.0
O596 O 0.83501 0.70244 0.74546 0.0
O597 O 0.86368 0.68924 0.74444 0.0
O598 O 0.83105 0.64221 0.71485 0.0
C599 C 0.83604 0.63039 0.69979 0.0
O600 O 0.85222 0.69387 0.66736 0.0
O601 O 0.87337 0.70092 0.69971 0.0
O602 O 0.8317 0.71352 0.70217 0.0
O603 O 0.81996 0.64312 0.6394 0.0
O604 O 0.78227 0.64099 0.64344 0.0
O605 O 0.80153 0.6869 0.67483 0.0
C606 C 0.83997 0.68164 0.77316 0.0
C607 C 0.82087 0.65486 0.76898 0.0
C608 C 0.83423 0.67832 0.80921 0.0
C609 C 0.80809 0.64007 0.78466 0.0
C610 C 0.8468 0.69328 0.79338 0.0
C611 C 0.81439 0.65169 0.80491 0.0
C612 C 0.85124 0.69726 0.75609 0.0
C613 C 0.87382 0.7053 0.6804 0.0
H614 H 0.80866 0.69017 0.63057 0.0
H615 H 0.803 0.64915 0.56129 0.0
H616 H 0.81674 0.71616 0.60162 0.0
H617 H 0.79491 0.62318 0.59054 0.0
H618 H 0.81544 0.6455 0.75347 0.0
H619 H 0.83939 0.68775 0.82469 0.0
H620 H 0.79314 0.61953 0.78092 0.0
H621 H 0.86146 0.71394 0.79686 0.0
Eu622 Eu 0.35712 0.15658 0.66588 0.0
Eu623 Eu 0.32946 0.14884 0.70912 0.0
C624 C 0.30641 0.10127 0.67402 0.0
C625 C 0.36865 0.15731 0.60992 0.0
C626 C 0.34125 0.14152 0.60379 0.0
C627 C 0.37653 0.166 0.57483 0.0
C628 C 0.33152 0.13805 0.58329 0.0
C629 C 0.38625 0.16937 0.59534 0.0
C630 C 0.34903 0.15047 0.56861 0.0
C631 C 0.37874 0.16278 0.63159 0.0
O632 O 0.35595 0.13083 0.71067 0.0
O633 O 0.38654 0.15673 0.68994 0.0
C634 C 0.3797 0.14077 0.70428 0.0
O635 O 0.37153 0.1969 0.6815 0.0
O636 O 0.31427 0.12674 0.73533 0.0
O637 O 0.31468 0.1635 0.73308 0.0
O638 O 0.36876 0.18681 0.7144 0.0
C639 C 0.3789 0.20388 0.70106 0.0
O640 O 0.31802 0.15445 0.65691 0.0
O641 O 0.30818 0.16362 0.68858 0.0
O642 O 0.30006 0.11345 0.68792 0.0
O643 O 0.37608 0.18086 0.64167 0.0
O644 O 0.37228 0.14244 0.64169 0.0
O645 O 0.32958 0.11298 0.6666 0.0
C646 C 0.32322 0.15379 0.76619 0.0
C647 C 0.34001 0.18058 0.77304 0.0
C648 C 0.32901 0.14286 0.80041 0.0
C649 C 0.35103 0.18841 0.79339 0.0
C650 C 0.31777 0.13503 0.78008 0.0
C651 C 0.34569 0.16964 0.80727 0.0
C652 C 0.31137 0.14515 0.74471 0.0
C653 C 0.30418 0.16092 0.66852 0.0
H654 H 0.32736 0.13234 0.61494 0.0
H655 H 0.3905 0.17561 0.56384 0.0
H656 H 0.31021 0.12627 0.57902 0.0
H657 H 0.40745 0.18175 0.59989 0.0
H658 H 0.34477 0.19557 0.76271 0.0
H659 H 0.3244 0.12798 0.81082 0.0
H660 H 0.36409 0.20915 0.79818 0.0
H661 H 0.30483 0.11429 0.7752 0.0
Eu662 Eu 0.87336 0.18575 0.71552 0.0
Eu663 Eu 0.85358 0.18702 0.66714 0.0
C664 C 0.88375 0.23879 0.69743 0.0
C665 C 0.87328 0.18504 0.77286 0.0
C666 C 0.84562 0.1688 0.77288 0.0
C667 C 0.87567 0.2038 0.80723 0.0
C668 C 0.83305 0.17022 0.78988 0.0
C669 C 0.88824 0.20223 0.79026 0.0
C670 C 0.84784 0.18812 0.80713 0.0
C671 C 0.88638 0.18602 0.75426 0.0
O672 O 0.89736 0.19895 0.66773 0.0
O673 O 0.90457 0.18452 0.69799 0.0
C674 C 0.912 0.19337 0.68033 0.0
O675 O 0.84758 0.14345 0.702 0.0
O676 O 0.85785 0.2093 0.6411 0.0
O677 O 0.82757 0.16807 0.6387 0.0
O678 O 0.85332 0.14915 0.66823 0.0
C679 C 0.84623 0.13413 0.68312 0.0
O680 O 0.83539 0.18671 0.71677 0.0
O681 O 0.81628 0.17229 0.68354 0.0
O682 O 0.86271 0.22479 0.68431 0.0
O683 O 0.87528 0.16493 0.74134 0.0
O684 O 0.89397 0.20724 0.74515 0.0
O685 O 0.89461 0.22793 0.70829 0.0
C686 C 0.84822 0.18496 0.60921 0.0
C687 C 0.87031 0.18143 0.60802 0.0
C688 C 0.84308 0.18358 0.57236 0.0
C689 C 0.87891 0.17926 0.58906 0.0
C690 C 0.83452 0.18576 0.5913 0.0
C691 C 0.86556 0.18062 0.57103 0.0
C692 C 0.83998 0.18889 0.62905 0.0
C693 C 0.81465 0.17699 0.703 0.0
H694 H 0.83358 0.15545 0.75959 0.0
H695 H 0.88767 0.21807 0.82008 0.0
H696 H 0.81167 0.15756 0.78936 0.0
H697 H 0.90957 0.21511 0.79047 0.0
H698 H 0.88115 0.18082 0.62176 0.0
H699 H 0.83211 0.18429 0.55875 0.0
H700 H 0.89644 0.17725 0.58859 0.0
H701 H 0.8174 0.18841 0.59198 0.0
H702 H 0.33904 0.83704 0.06752 0.0
H703 H 0.28816 0.87165 0.06809 0.0
H704 H 0.32231 0.91028 0.05347 0.0
H705 H 0.39985 0.89542 0.08175 0.0
H706 H 0.41904 0.8874 0.06539 0.0
H707 H 0.3899 0.86153 0.0746 0.0
H708 H 0.37004 0.84115 0.03743 0.0
H709 H 0.39919 0.86701 0.0281 0.0
H710 H 0.3665 0.86109 0.01917 0.0
H711 H 0.36325 0.94686 0.04227 0.0
H712 H 0.40826 0.97864 0.03374 0.0
H713 H 0.43202 0.91984 0.03799 0.0
C714 C 0.33484 0.85249 0.06418 0.0
C715 C 0.31094 0.85135 0.06912 0.0
C716 C 0.30647 0.87224 0.0648 0.0
C717 C 0.32565 0.89418 0.05632 0.0
C718 C 0.34913 0.89488 0.05197 0.0
C719 C 0.35376 0.87454 0.05557 0.0
C720 C 0.38122 0.88083 0.05026 0.0
C721 C 0.39852 0.88133 0.06912 0.0
C722 C 0.3791 0.86136 0.03269 0.0
C723 C 0.39149 0.90812 0.04355 0.0
C724 C 0.37257 0.91578 0.04466 0.0
C725 C 0.37802 0.94091 0.04091 0.0
C726 C 0.40357 0.9588 0.0361 0.0
C727 C 0.42317 0.95135 0.03481 0.0
C728 C 0.41699 0.92562 0.03829 0.0
H729 H 0.14735 0.44013 0.08385 0.0
H730 H 0.2136 0.51967 0.08276 0.0
H731 H 0.18312 0.53196 0.06595 0.0
H732 H 0.10999 0.43504 0.03692 0.0
H733 H 0.07802 0.41816 0.04668 0.0
H734 H 0.10528 0.41463 0.05734 0.0
H735 H 0.10008 0.43024 0.09337 0.0
H736 H 0.07273 0.43372 0.08284 0.0
H737 H 0.10108 0.46126 0.09756 0.0
H738 H 0.14596 0.53573 0.04842 0.0
H739 H 0.10353 0.53183 0.03445 0.0
H740 H 0.06022 0.45205 0.05092 0.0
C741 C 0.15562 0.46024 0.08033 0.0
C742 C 0.18333 0.47864 0.08442 0.0
C743 C 0.19286 0.50468 0.07922 0.0
C744 C 0.17559 0.51206 0.06982 0.0
C745 C 0.14859 0.49344 0.06607 0.0
C746 C 0.13853 0.4682 0.07144 0.0
C747 C 0.10839 0.45246 0.06669 0.0
C748 C 0.09993 0.42867 0.05097 0.0
C749 C 0.09477 0.44392 0.08629 0.0
C750 C 0.10316 0.47281 0.05771 0.0
C751 C 0.12675 0.49618 0.05722 0.0
C752 C 0.12735 0.51762 0.04888 0.0
C753 C 0.1032 0.51518 0.0409 0.0
C754 C 0.07873 0.49169 0.04169 0.0
C755 C 0.07869 0.47028 0.05031 0.0
H756 H 0.59654 0.71553 0.06806 0.0
H757 H 0.52402 0.70942 0.0389 0.0
H758 H 0.50856 0.66413 0.02562 0.0
H759 H 0.6042 0.67365 0.02998 0.0
H760 H 0.61406 0.6576 0.04819 0.0
H761 H 0.62124 0.6908 0.05459 0.0
H762 H 0.59641 0.67684 0.08682 0.0
H763 H 0.58928 0.64363 0.08058 0.0
H764 H 0.56244 0.65002 0.08428 0.0
H765 H 0.50032 0.62046 1.01506 0.0
H766 H 0.49723 0.5775 1.01046 0.0
H767 H 0.57253 0.60827 0.04854 0.0
C768 C 0.57743 0.70468 0.0589 0.0
C769 C 0.56208 0.71664 0.05395 0.0
C770 C 0.53692 0.70141 0.04215 0.0
C771 C 0.52772 0.67545 0.03465 0.0
C772 C 0.54346 0.66451 0.03943 0.0
C773 C 0.56752 0.67828 0.05153 0.0
C774 C 0.57938 0.66076 0.05525 0.0
C775 C 0.60632 0.67134 0.04647 0.0
C776 C 0.58203 0.65763 0.07809 0.0
C777 C 0.55813 0.63517 0.04327 0.0
C778 C 0.53785 0.63813 0.03414 0.0
C779 C 0.51598 0.61775 0.02217 0.0
C780 C 0.51447 0.59337 0.01963 0.0
C781 C 0.53459 0.58942 0.02918 0.0
C782 C 0.55682 0.61069 0.04108 0.0
H783 H 0.86095 0.31409 0.94704 0.0
H784 H 0.83187 0.28384 1.00412 0.0
H785 H 0.87002 0.32324 0.02316 0.0
H786 H 0.93285 0.3445 0.96502 0.0
H787 H 0.94196 0.37225 0.95058 0.0
H788 H 0.91343 0.34073 0.94135 0.0
H789 H 0.88367 0.36202 0.93954 0.0
H790 H 0.91203 0.39353 0.94884 0.0
H791 H 0.88255 0.38015 0.96206 0.0
H792 H 0.90831 0.36736 0.03595 0.0
H793 H 0.94582 0.41301 0.04185 0.0
H794 H 0.95206 0.41432 0.97677 0.0
C795 C 0.86294 0.31544 0.96354 0.0
C796 C 0.84332 0.29584 0.97408 0.0
C797 C 0.84642 0.2987 0.9957 0.0
C798 C 0.86813 0.32093 1.00666 0.0
C799 C 0.88679 0.34007 0.99582 0.0
C800 C 0.88462 0.33749 0.97475 0.0
C801 C 0.90689 0.36156 0.96689 0.0
C802 C 0.92485 0.35432 0.95528 0.0
C803 C 0.8956 0.37511 0.95355 0.0
C804 C 0.9215 0.37831 0.98682 0.0
C805 C 0.90954 0.36544 1.0033 0.0
C806 C 0.91813 0.37748 0.02321 0.0
C807 C 0.93937 0.40343 0.0264 0.0
C808 C 0.95196 0.41704 1.00979 0.0
C809 C 0.94314 0.40415 0.98977 0.0
H810 H 0.69839 0.56197 0.95655 0.0
H811 H 0.69018 0.48681 0.96963 0.0
H812 H 0.6532 0.4787 0.98946 0.0
H813 H 0.67957 0.57868 1.00311 0.0
H814 H 0.65985 0.591 0.99102 0.0
H815 H 0.68765 0.59258 0.97919 0.0
H816 H 0.65656 0.56688 0.94613 0.0
H817 H 0.62873 0.56543 0.95781 0.0
H818 H 0.62706 0.53556 0.9475 0.0
H819 H 0.61773 0.47875 1.00872 0.0
H820 H 0.58199 0.48425 0.02228 0.0
H821 H 0.60805 0.55566 0.99268 0.0
C822 C 0.68885 0.54363 0.96333 0.0
C823 C 0.69824 0.52551 0.96176 0.0
C824 C 0.68471 0.50184 0.97116 0.0
C825 C 0.66326 0.49678 0.98235 0.0
C826 C 0.65482 0.5151 0.98363 0.0
C827 C 0.66675 0.53777 0.97402 0.0
C828 C 0.65235 0.55321 0.97656 0.0
C829 C 0.67097 0.58048 0.98816 0.0
C830 C 0.64047 0.55539 0.95576 0.0
C831 C 0.63063 0.53572 0.98925 0.0
C832 C 0.6328 0.51409 0.99343 0.0
C833 C 0.61569 0.49549 1.00543 0.0
C834 C 0.59559 0.49889 1.01318 0.0
C835 C 0.59238 0.5204 1.00855 0.0
C836 C 0.6101 0.53902 0.99638 0.0
H837 H 0.4966 0.17724 0.98592 0.0
H838 H 0.41056 0.13658 0.971 0.0
H839 H 0.40719 0.09685 0.98426 0.0
H840 H 0.50664 0.12415 0.97398 0.0
H841 H 0.53175 0.13291 0.99511 0.0
H842 H 0.52728 0.15802 0.98438 0.0
H843 H 0.52025 0.17297 0.02004 0.0
H844 H 0.52468 0.14782 0.03085 0.0
H845 H 0.49485 0.14934 0.034 0.0
H846 H 0.41378 0.06071 0.99692 0.0
H847 H 0.42968 0.03158 1.00957 0.0
H848 H 0.51049 0.09759 0.01965 0.0
C849 C 0.47691 0.16025 0.98577 0.0
C850 C 0.45384 0.16018 0.97735 0.0
C851 C 0.42861 0.1371 0.97702 0.0
C852 C 0.42645 0.11449 0.98471 0.0
C853 C 0.44963 0.11542 0.99299 0.0
C854 C 0.47433 0.1378 0.99375 0.0
C855 C 0.49621 0.13377 1.00338 0.0
C856 C 0.51666 0.13742 0.98831 0.0
C857 C 0.50979 0.15206 0.02325 0.0
C858 C 0.48002 0.1054 1.0076 0.0
C859 C 0.45319 0.0951 1.00139 0.0
C860 C 0.43462 0.06867 1.00221 0.0
C861 C 0.44379 0.05232 1.00937 0.0
C862 C 0.47113 0.06262 1.01591 0.0
C863 C 0.48936 0.08952 1.0153 0.0
H864 H 0.64845 0.17467 0.96436 0.0
H865 H 0.71303 0.18487 1.00766 0.0
H866 H 0.68129 0.14578 0.02366 0.0
H867 H 0.59916 0.15579 0.9981 0.0
H868 H 0.5723 0.1317 0.97995 0.0
H869 H 0.60034 0.15933 0.97119 0.0
H870 H 0.60834 0.12753 0.94774 0.0
H871 H 0.5802 0.09987 0.95646 0.0
H872 H 0.61241 0.1022 0.95861 0.0
H873 H 0.6415 0.1081 0.03691 0.0
H874 H 0.59765 0.07208 0.04415 0.0
H875 H 0.55972 0.08582 0.99121 0.0
C876 C 0.65593 0.16842 0.97704 0.0
C877 C 0.68314 0.18271 0.98482 0.0
C878 C 0.69228 0.17399 1.00138 0.0
C879 C 0.67439 0.15193 1.01061 0.0
C880 C 0.64753 0.13863 1.00288 0.0
C881 C 0.63843 0.14629 0.98622 0.0
C882 C 0.60858 0.12887 0.98099 0.0
C883 C 0.59427 0.14489 0.98267 0.0
C884 C 0.60201 0.11372 0.95969 0.0
C885 C 0.60221 0.11061 0.99758 0.0
C886 C 0.62488 0.11656 1.01011 0.0
C887 C 0.62367 0.10305 0.02704 0.0
C888 C 0.59868 0.08274 0.0311 0.0
C889 C 0.57531 0.07603 0.01819 0.0
C890 C 0.57725 0.09025 1.00125 0.0
H891 H 0.84128 0.48286 0.94177 0.0
H892 H 0.83247 0.53226 0.98836 0.0
H893 H 0.87592 0.54313 1.00635 0.0
H894 H 0.86692 0.45492 0.97457 0.0
H895 H 0.88991 0.4539 0.95796 0.0
H896 H 0.86006 0.45284 0.94731 0.0
H897 H 0.88832 0.49344 0.92824 0.0
H898 H 0.91829 0.49447 0.93874 0.0
H899 H 0.91476 0.52312 0.94241 0.0
H900 H 0.91757 0.54418 0.02138 0.0
H901 H 0.95535 0.53742 0.0312 0.0
H902 H 0.93676 0.48733 0.97465 0.0
C903 C 0.84869 0.49631 0.95559 0.0
C904 C 0.83348 0.50675 0.96365 0.0
C905 C 0.84392 0.52433 0.98174 0.0
C906 C 0.86852 0.53049 0.99212 0.0
C907 C 0.88255 0.51915 0.9841 0.0
C908 C 0.87317 0.50269 0.96608 0.0
C909 C 0.89123 0.4918 0.9613 0.0
C910 C 0.87613 0.46158 0.96023 0.0
C911 C 0.9039 0.50128 0.9415 0.0
C912 C 0.91184 0.5041 0.97973 0.0
C913 C 0.90661 0.51993 0.99266 0.0
C914 C 0.92208 0.53215 1.01122 0.0
C915 C 0.94344 0.5281 0.01671 0.0
C916 C 0.94913 0.51194 1.00368 0.0
C917 C 0.93317 0.50003 0.98488 0.0
H918 H 0.54075 0.35224 0.98473 0.0
H919 H 0.48133 0.29895 0.02124 0.0
H920 H 0.47306 0.33458 0.03366 0.0
H921 H 0.56768 0.41091 0.0198 0.0
H922 H 0.57191 0.43194 0.99993 0.0
H923 H 0.5737 0.40252 0.99476 0.0
H924 H 0.5365 0.38676 0.96461 0.0
H925 H 0.53469 0.41615 0.96974 0.0
H926 H 0.50511 0.38437 0.9691 0.0
H927 H 0.47253 0.37699 0.04268 0.0
H928 H 0.47691 0.42125 0.04501 0.0
H929 H 0.53477 0.44481 1.00086 0.0
C930 C 0.52615 0.34819 0.99545 0.0
C931 C 0.51179 0.32309 1.00221 0.0
C932 C 0.49246 0.31819 1.01594 0.0
C933 C 0.48776 0.33827 0.02311 0.0
C934 C 0.50235 0.36293 0.01618 0.0
C935 C 0.52095 0.36782 1.00248 0.0
C936 C 0.53318 0.39556 0.99665 0.0
C937 C 0.56341 0.41114 1.00318 0.0
C938 C 0.52699 0.3957 0.97366 0.0
C939 C 0.51858 0.40555 1.00918 0.0
C940 C 0.50113 0.38667 0.02058 0.0
C941 C 0.48599 0.39186 0.0337 0.0
C942 C 0.48862 0.41697 0.03498 0.0
C943 C 0.50588 0.43617 0.02292 0.0
C944 C 0.52106 0.43032 1.01 0.0
H945 H 0.19658 0.65929 0.07698 0.0
H946 H 0.18806 0.71228 0.0383 0.0
H947 H 0.14177 0.67754 0.02633 0.0
H948 H 0.15977 0.60093 0.04276 0.0
H949 H 0.14445 0.57991 0.06239 0.0
H950 H 0.17655 0.60918 0.06828 0.0
H951 H 0.15815 0.6251 0.09725 0.0
H952 H 0.12598 0.59585 0.09135 0.0
H953 H 0.12887 0.62778 0.09151 0.0
H954 H 0.09776 0.6359 0.01658 0.0
H955 H 0.05805 0.59125 1.01157 0.0
H956 H 0.09445 0.56633 0.05805 0.0
C957 C 0.1849 0.66357 0.06604 0.0
C958 C 0.19583 0.68843 0.05853 0.0
C959 C 0.17993 0.69342 0.04436 0.0
C960 C 0.1537 0.6738 0.03743 0.0
C961 C 0.14359 0.64941 0.04501 0.0
C962 C 0.15859 0.64432 0.05916 0.0
C963 C 0.14302 0.61645 0.06485 0.0
C964 C 0.15677 0.6007 0.05923 0.0
C965 C 0.13875 0.6163 0.08759 0.0
C966 C 0.11707 0.60656 0.05146 0.0
C967 C 0.11784 0.62581 0.04003 0.0
C968 C 0.09677 0.62079 0.02566 0.0
C969 C 0.07435 0.59541 0.02289 0.0
C970 C 0.07308 0.57554 0.03462 0.0
C971 C 0.09465 0.58132 0.04919 0.0
H972 H 0.36976 0.5142 0.10431 0.0
H973 H 0.30732 0.47365 0.05408 0.0
H974 H 0.33782 0.46473 0.03498 0.0
H975 H 0.42178 0.54686 0.07496 0.0
H976 H 0.4464 0.54427 0.09115 0.0
H977 H 0.41867 0.54425 0.10183 0.0
H978 H 0.40608 0.50004 0.11614 0.0
H979 H 0.43364 0.49968 0.10533 0.0
H980 H 0.40031 0.47224 0.0991 0.0
H981 H 0.37722 0.46497 0.01984 0.0
H982 H 0.42104 0.47254 1.01083 0.0
H983 H 0.45712 0.51305 0.07124 0.0
C984 C 0.36234 0.50305 0.08942 0.0
C985 C 0.33613 0.49459 0.08068 0.0
C986 C 0.32718 0.48001 0.06119 0.0
C987 C 0.34442 0.47498 0.0502 0.0
C988 C 0.37044 0.4844 0.05901 0.0
C989 C 0.37922 0.49784 0.07833 0.0
C990 C 0.40847 0.50728 0.08397 0.0
C991 C 0.42478 0.53745 0.08821 0.0
C992 C 0.41233 0.49401 0.10222 0.0
C993 C 0.41506 0.4978 0.06459 0.0
C994 C 0.39289 0.48445 0.05039 0.0
C995 C 0.39461 0.47508 0.03097 0.0
C996 C 0.41961 0.47952 0.02595 0.0
C997 C 0.44259 0.49333 0.04028 0.0
C998 C 0.44 0.50226 0.05989 0.0
H999 H 0.54568 0.86257 1.00841 0.0
H1000 H 0.55433 0.85755 0.07343 0.0
H1001 H 0.55512 0.89959 0.08032 0.0
H1002 H 0.58597 0.93683 1.0107 0.0
H1003 H 0.56355 0.93703 0.99062 0.0
H1004 H 0.56943 0.90972 0.99094 0.0
H1005 H 0.51855 0.87776 0.98976 0.0
H1006 H 0.51252 0.90488 0.98975 0.0
H1007 H 0.50042 0.88259 1.00912 0.0
H1008 H 0.54576 0.93655 0.08002 0.0
H1009 H 0.5311 0.96829 0.07262 0.0
H1010 H 0.52923 0.94984 1.00774 0.0
C1011 C 0.54862 0.87081 0.02409 0.0
C1012 C 0.55007 0.85696 0.0404 0.0
C1013 C 0.55364 0.8681 0.06073 0.0
C1014 C 0.55399 0.89191 0.06478 0.0
C1015 C 0.55117 0.90443 0.04832 0.0
C1016 C 0.54908 0.89454 0.02836 0.0
C1017 C 0.54357 0.91026 1.01344 0.0
C1018 C 0.56704 0.9243 1.00068 0.0
C1019 C 0.5172 0.89283 0.99973 0.0
C1020 C 0.54149 0.92968 0.02812 0.0
C1021 C 0.54621 0.92618 0.04817 0.0
C1022 C 0.54273 0.93997 0.06441 0.0
C1023 C 0.53418 0.95778 0.06005 0.0
C1024 C 0.52927 0.96163 0.03961 0.0
C1025 C 0.53338 0.94767 0.02351 0.0
H1026 H 0.01716 0.20676 0.43734 0.0
H1027 H 0.96716 0.16737 0.38051 0.0
H1028 H 1.00169 0.20021 0.36143 0.0
H1029 H 0.04585 0.27383 0.42349 0.0
H1030 H 0.07848 0.28423 0.43614 0.0
H1031 H 0.04925 0.25851 0.44545 0.0
H1032 H 0.06885 0.22754 0.44231 0.0
H1033 H 0.09808 0.25314 0.43294 0.0
H1034 H 0.07874 0.22156 0.41815 0.0
H1035 H 0.04143 0.2366 0.34855 0.0
H1036 H 0.08487 0.27349 0.34226 0.0
H1037 H 0.1103 0.28876 0.40734 0.0
C1038 C 0.01345 0.20532 0.4209 0.0
C1039 C 0.98953 0.18468 0.41032 0.0
C1040 C 0.98543 0.18304 0.38881 0.0
C1041 C 1.00485 0.20162 0.37789 0.0
C1042 C 0.02834 0.22159 0.38872 0.0
C1043 C 0.03282 0.22354 0.40972 0.0
C1044 C 0.06033 0.2463 0.41748 0.0
C1045 C 0.05834 0.26694 0.43146 0.0
C1046 C 0.07751 0.23654 0.42836 0.0
C1047 C 0.07059 0.25672 0.39754 0.0
C1048 C 0.05169 0.24229 0.38119 0.0
C1049 C 0.05641 0.24807 0.36122 0.0
C1050 C 0.08118 0.26912 0.35782 0.0
C1051 C 0.10106 0.28405 0.37429 0.0
C1052 C 0.09558 0.2777 0.39441 0.0
H1053 H 0.81122 0.77009 0.41478 0.0
H1054 H 0.88312 0.84284 0.40638 0.0
H1055 H 0.85598 0.85665 0.3864 0.0
H1056 H 0.77267 0.76192 0.36623 0.0
H1057 H 0.74194 0.75078 0.37762 0.0
H1058 H 0.76723 0.74455 0.38862 0.0
H1059 H 0.76757 0.76747 0.42342 0.0
H1060 H 0.74242 0.77391 0.41252 0.0
H1061 H 0.77354 0.80065 0.42487 0.0
H1062 H 0.82111 0.86427 0.36928 0.0
H1063 H 0.78091 0.86568 0.35708 0.0
H1064 H 0.73115 0.79036 0.37963 0.0
C1065 C 0.82146 0.78893 0.40876 0.0
C1066 C 0.84962 0.80515 0.41221 0.0
C1067 C 0.86183 0.8295 0.40364 0.0
C1068 C 0.8465 0.83774 0.39238 0.0
C1069 C 0.81887 0.82165 0.38993 0.0
C1070 C 0.80642 0.7978 0.39793 0.0
C1071 C 0.77629 0.78527 0.3946 0.0
C1072 C 0.7638 0.75908 0.38095 0.0
C1073 C 0.76426 0.78162 0.41507 0.0
C1074 C 0.77376 0.80603 0.38372 0.0
C1075 C 0.7986 0.82663 0.38091 0.0
C1076 C 0.80156 0.8482 0.37132 0.0
C1077 C 0.77855 0.84879 0.36442 0.0
C1078 C 0.75285 0.82812 0.36738 0.0
C1079 C 0.75051 0.80648 0.37721 0.0
H1080 H 0.24768 0.04021 0.40304 0.0
H1081 H 0.16614 0.02521 0.39551 0.0
H1082 H 0.15106 0.98105 0.37926 0.0
H1083 H 0.24523 0.00274 0.35722 0.0
H1084 H 0.26405 0.98928 0.36898 0.0
H1085 H 0.26947 0.02089 0.37893 0.0
H1086 H 0.25956 0.00462 0.41467 0.0
H1087 H 0.25427 0.97301 0.40487 0.0
H1088 H 0.22863 0.97519 0.41736 0.0
H1089 H 0.14436 0.93944 0.36316 0.0
H1090 H 0.14534 0.89956 0.35154 0.0
H1091 H 0.22983 0.93827 0.37266 0.0
C1092 C 0.22664 0.02765 0.3981 0.0
C1093 C 0.20833 0.03676 0.40004 0.0
C1094 C 0.18091 0.0194 0.39343 0.0
C1095 C 0.17199 0.99406 0.38434 0.0
C1096 C 0.19055 0.98596 0.38239 0.0
C1097 C 0.21718 0.0019 0.3894 0.0
C1098 C 0.23246 0.98743 0.38644 0.0
C1099 C 0.25408 0.00089 0.37203 0.0
C1100 C 0.24443 0.98491 0.40706 0.0
C1101 C 0.21015 0.96096 0.37661 0.0
C1102 C 0.18628 0.96085 0.37418 0.0
C1103 C 0.16285 0.93913 0.36505 0.0
C1104 C 0.16367 0.91665 0.3584 0.0
C1105 C 0.18767 0.91592 0.3612 0.0
C1106 C 0.21123 0.93836 0.37044 0.0
H1107 H 0.51937 0.64347 0.32637 0.0
H1108 H 0.523 0.63849 0.26081 0.0
H1109 H 0.56488 0.68072 0.26493 0.0
H1110 H 0.54161 0.71253 0.33172 0.0
H1111 H 0.56025 0.71883 0.35629 0.0
H1112 H 0.53152 0.68695 0.34854 0.0
H1113 H 0.56044 0.66527 0.35474 0.0
H1114 H 0.5893 0.69712 0.3624 0.0
H1115 H 0.59017 0.67588 0.34205 0.0
H1116 H 0.60631 0.72361 0.27576 0.0
H1117 H 0.64242 0.76635 0.29247 0.0
H1118 H 0.61031 0.74565 0.3505 0.0
C1119 C 0.52885 0.65121 0.31285 0.0
C1120 C 0.51797 0.63705 0.29332 0.0
C1121 C 0.53123 0.64821 0.27607 0.0
C1122 C 0.55502 0.67241 0.27819 0.0
C1123 C 0.56524 0.68563 0.29761 0.0
C1124 C 0.55246 0.67566 0.31462 0.0
C1125 C 0.56697 0.6947 0.33358 0.0
C1126 C 0.54902 0.70379 0.34309 0.0
C1127 C 0.57733 0.68251 0.3491 0.0
C1128 C 0.58975 0.71692 0.32448 0.0
C1129 C 0.58857 0.71109 0.30376 0.0
C1130 C 0.60746 0.72845 0.29199 0.0
C1131 C 0.62796 0.75263 0.30163 0.0
C1132 C 0.62916 0.75936 0.32276 0.0
C1133 C 0.60985 0.74112 0.3343 0.0
H1134 H 0.36168 0.89577 0.28874 0.0
H1135 H 0.35653 0.82312 0.30548 0.0
H1136 H 0.31612 0.81245 0.32165 0.0
H1137 H 0.33626 0.91047 0.33262 0.0
H1138 H 0.31655 0.92138 0.31855 0.0
H1139 H 0.3463 0.9246 0.30901 0.0
H1140 H 0.31896 0.89819 0.27486 0.0
H1141 H 0.28913 0.89496 0.28427 0.0
H1142 H 0.29012 0.86605 0.27512 0.0
H1143 H 0.27722 0.80965 0.33695 0.0
H1144 H 0.23921 0.813 0.34795 0.0
H1145 H 0.26531 0.88453 0.31845 0.0
C1146 C 0.35207 0.87753 0.29567 0.0
C1147 C 0.36317 0.86079 0.29623 0.0
C1148 C 0.34953 0.83706 0.30551 0.0
C1149 C 0.3262 0.83054 0.31457 0.0
C1150 C 0.31611 0.84754 0.31391 0.0
C1151 C 0.32825 0.87032 0.30444 0.0
C1152 C 0.31228 0.8844 0.30519 0.0
C1153 C 0.32884 0.91184 0.31705 0.0
C1154 C 0.30201 0.88599 0.28358 0.0
C1155 C 0.28949 0.86604 0.31676 0.0
C1156 C 0.29239 0.84507 0.32177 0.0
C1157 C 0.2746 0.82587 0.33302 0.0
C1158 C 0.25317 0.82805 0.3393 0.0
C1159 C 0.24939 0.84906 0.33411 0.0
C1160 C 0.2677 0.86821 0.32253 0.0
H1161 H 0.13294 0.47711 0.29156 0.0
H1162 H 0.12721 0.51204 0.34924 0.0
H1163 H 0.12987 0.47736 0.36695 0.0
H1164 H 0.09601 0.4075 0.30243 0.0
H1165 H 0.11804 0.39957 0.28966 0.0
H1166 H 0.11197 0.4249 0.28128 0.0
H1167 H 0.16285 0.45791 0.28583 0.0
H1168 H 0.16904 0.43277 0.29433 0.0
H1169 H 0.18161 0.46333 0.31021 0.0
H1170 H 0.13642 0.44116 0.37849 0.0
H1171 H 0.14823 0.40689 0.38356 0.0
H1172 H 0.15158 0.39673 0.31833 0.0
C1173 C 0.13156 0.47696 0.30784 0.0
C1174 C 0.12955 0.49684 0.31912 0.0
C1175 C 0.1286 0.49673 0.34045 0.0
C1176 C 0.12998 0.47712 0.35056 0.0
C1177 C 0.13247 0.45799 0.33906 0.0
C1178 C 0.13329 0.45776 0.31817 0.0
C1179 C 0.13853 0.43652 0.30967 0.0
C1180 C 0.11471 0.4159 0.29489 0.0
C1181 C 0.16456 0.44835 0.29942 0.0
C1182 C 0.14115 0.42526 0.32911 0.0
C1183 C 0.13714 0.43761 0.34582 0.0
C1184 C 0.13938 0.43117 0.36552 0.0
C1185 C 0.14613 0.41171 0.36821 0.0
C1186 C 0.15087 0.39918 0.35133 0.0
C1187 C 0.14808 0.40594 0.33153 0.0
H1188 H 0.34937 0.52985 0.35407 0.0
H1189 H 0.36577 0.50243 0.29719 0.0
H1190 H 0.32983 0.45756 0.30044 0.0
H1191 H 0.33055 0.47108 0.38002 0.0
H1192 H 0.30404 0.4727 0.39157 0.0
H1193 H 0.3328 0.50244 0.38596 0.0
H1194 H 0.30206 0.51442 0.36463 0.0
H1195 H 0.27323 0.48475 0.37017 0.0
H1196 H 0.2788 0.49124 0.34407 0.0
H1197 H 0.29084 0.41629 0.30854 0.0
H1198 H 0.25043 0.38117 0.32054 0.0
H1199 H 0.25722 0.43512 0.37145 0.0
C1200 C 0.34551 0.51447 0.34227 0.0
C1201 C 0.36082 0.51986 0.32547 0.0
C1202 C 0.35499 0.49892 0.3105 0.0
C1203 C 0.33441 0.4733 0.31212 0.0
C1204 C 0.31963 0.46882 0.32872 0.0
C1205 C 0.32481 0.48877 0.34352 0.0
C1206 C 0.30488 0.47884 0.35919 0.0
C1207 C 0.31891 0.48142 0.38045 0.0
C1208 C 0.28879 0.49317 0.35952 0.0
C1209 C 0.2875 0.45024 0.35071 0.0
C1210 C 0.29658 0.44492 0.33322 0.0
C1211 C 0.28361 0.42016 0.32228 0.0
C1212 C 0.26058 0.40031 0.32926 0.0
C1213 C 0.25055 0.40526 0.34701 0.0
C1214 C 0.26442 0.4306 0.35793 0.0
H1215 H 0.5014 0.83095 0.33386 0.0
H1216 H 0.51625 0.86717 0.27724 0.0
H1217 H 0.56309 0.87702 0.28217 0.0
H1218 H 0.56875 0.87553 0.36168 0.0
H1219 H 0.56875 0.84905 0.37406 0.0
H1220 H 0.53776 0.84832 0.36745 0.0
H1221 H 0.51894 0.80264 0.34708 0.0
H1222 H 0.54988 0.80333 0.35343 0.0
H1223 H 0.53682 0.79875 0.32709 0.0
H1224 H 0.60589 0.87677 0.2907 0.0
H1225 H 0.64258 0.86979 0.3034 0.0
H1226 H 0.60025 0.83458 0.35504 0.0
C1227 C 0.51469 0.84149 0.32272 0.0
C1228 C 0.50523 0.84834 0.30515 0.0
C1229 C 0.52317 0.86205 0.29091 0.0
C1230 C 0.54975 0.86759 0.29355 0.0
C1231 C 0.55812 0.85962 0.31066 0.0
C1232 C 0.54122 0.84724 0.32518 0.0
C1233 C 0.55452 0.83918 0.34152 0.0
C1234 C 0.55763 0.85391 0.36242 0.0
C1235 C 0.53912 0.8092 0.34231 0.0
C1236 C 0.58132 0.84821 0.33361 0.0
C1237 C 0.58302 0.86002 0.31583 0.0
C1238 C 0.60498 0.86804 0.30481 0.0
C1239 C 0.62566 0.86386 0.31211 0.0
C1240 C 0.6244 0.85187 0.33033 0.0
C1241 C 0.60204 0.84428 0.34132 0.0
H1242 H 0.20659 0.68628 0.31159 0.0
H1243 H 0.15136 0.63393 0.35109 0.0
H1244 H 0.13868 0.66724 0.36059 0.0
H1245 H 0.22866 0.74714 0.3432 0.0
H1246 H 0.23032 0.76528 0.32176 0.0
H1247 H 0.23553 0.73762 0.31889 0.0
H1248 H 0.19779 0.71642 0.28883 0.0
H1249 H 0.19238 0.74395 0.29188 0.0
H1250 H 0.16508 0.71105 0.29278 0.0
H1251 H 0.13319 0.70694 0.36645 0.0
H1252 H 0.13378 0.74934 0.36692 0.0
H1253 H 0.19067 0.77406 0.32199 0.0
C1254 C 0.19201 0.682 0.32237 0.0
C1255 C 0.18 0.65774 0.33073 0.0
C1256 C 0.16068 0.65248 0.34452 0.0
C1257 C 0.15343 0.67125 0.35003 0.0
C1258 C 0.16554 0.69497 0.34141 0.0
C1259 C 0.18431 0.70033 0.3278 0.0
C1260 C 0.19378 0.72698 0.32026 0.0
C1261 C 0.22386 0.74533 0.32641 0.0
C1262 C 0.18683 0.72443 0.29706 0.0
C1263 C 0.17745 0.73579 0.33178 0.0
C1264 C 0.16146 0.71721 0.34406 0.0
C1265 C 0.14542 0.72154 0.35675 0.0
C1266 C 0.14587 0.74559 0.35693 0.0
C1267 C 0.16192 0.76466 0.34426 0.0
C1268 C 0.17773 0.75956 0.33149 0.0
H1269 H 0.86746 0.01235 0.37374 0.0
H1270 H 0.85611 0.03257 0.43501 0.0
H1271 H 0.80911 0.99622 0.42978 0.0
H1272 H 0.8001 0.99338 0.35013 0.0
H1273 H 0.79823 0.96711 0.33336 0.0
H1274 H 0.83007 0.99601 0.34148 0.0
H1275 H 0.848 0.96675 0.35527 0.0
H1276 H 0.81625 0.93783 0.34725 0.0
H1277 H 0.83033 0.94424 0.37348 0.0
H1278 H 0.76539 0.95412 0.41921 0.0
H1279 H 0.72734 0.91183 0.40325 0.0
H1280 H 0.76668 0.92111 0.34818 0.0
C1281 C 0.85492 0.00932 0.38593 0.0
C1282 C 0.86527 0.02512 0.40479 0.0
C1283 C 0.84839 0.02072 0.42041 0.0
C1284 C 0.82175 1.00013 0.41757 0.0
C1285 C 0.81229 0.98452 0.3989 0.0
C1286 C 0.82828 0.98916 0.38324 0.0
C1287 C 0.81369 0.96907 0.36491 0.0
C1288 C 0.81032 0.98218 0.34638 0.0
C1289 C 0.82792 0.95356 0.35995 0.0
C1290 C 0.78722 0.95189 0.37288 0.0
C1291 C 0.78677 0.96106 0.39253 0.0
C1292 C 0.76528 0.9471 0.40367 0.0
C1293 C 0.74382 0.9231 0.39452 0.0
C1294 C 0.7439 0.91353 0.37437 0.0
C1295 C 0.76574 0.92835 0.36339 0.0
H1296 H 0.02875 0.83148 0.43737 0.0
H1297 H 0.96944 0.81278 0.38615 0.0
H1298 H 0.99866 0.80737 0.36293 0.0
H1299 H 0.08402 0.87137 0.41211 0.0
H1300 H 0.10573 0.86153 0.42453 0.0
H1301 H 0.07888 0.86063 0.43728 0.0
H1302 H 0.06035 0.81136 0.44176 0.0
H1303 H 0.0874 0.81221 0.42928 0.0
H1304 H 0.05339 0.78846 0.41975 0.0
H1305 H 0.03691 0.80755 0.34495 0.0
H1306 H 0.07965 0.8134 0.33443 0.0
H1307 H 0.1133 0.8337 0.39785 0.0
C1308 C 0.02172 0.82614 0.42128 0.0
C1309 C 0.99675 0.82269 0.41362 0.0
C1310 C 0.98832 0.81527 0.39247 0.0
C1311 C 1.00487 0.81229 0.37914 0.0
C1312 C 0.02975 0.81668 0.38721 0.0
C1313 C 0.038 0.82335 0.40785 0.0
C1314 C 0.06618 0.82872 0.41275 0.0
C1315 C 0.08479 0.85725 0.42222 0.0
C1316 C 0.06685 0.809 0.4267 0.0
C1317 C 0.07271 0.82432 0.39161 0.0
C1318 C 0.05151 0.81719 0.37701 0.0
C1319 C 0.05353 0.81294 0.35632 0.0
C1320 C 0.07787 0.81628 0.35047 0.0
C1321 C 0.09991 0.82404 0.36526 0.0
C1322 C 0.09696 0.82779 0.38607 0.0
H1323 H 0.16439 0.16375 0.36777 0.0
H1324 H 0.2233 0.19086 0.42058 0.0
H1325 H 0.2363 0.23687 0.41573 0.0
H1326 H 0.20212 0.22002 0.33776 0.0
H1327 H 0.1722 0.21981 0.32828 0.0
H1328 H 0.1707 0.18958 0.33399 0.0
H1329 H 0.1345 0.18145 0.3582 0.0
H1330 H 0.13596 0.21162 0.35264 0.0
H1331 H 0.14135 0.20628 0.37869 0.0
H1332 H 0.2384 0.27904 0.4079 0.0
H1333 H 0.23005 0.31412 0.39751 0.0
H1334 H 0.16936 0.25891 0.35 0.0
C1335 C 0.18031 0.1794 0.37814 0.0
C1336 C 0.19284 0.17382 0.39456 0.0
C1337 C 0.21367 0.19477 0.40776 0.0
C1338 C 0.22114 0.22092 0.40514 0.0
C1339 C 0.20777 0.22568 0.38913 0.0
C1340 C 0.18795 0.20548 0.37575 0.0
C1341 C 0.17505 0.2155 0.36089 0.0
C1342 C 0.18035 0.21096 0.33893 0.0
C1343 C 0.14495 0.20298 0.36273 0.0
C1344 C 0.18994 0.24439 0.36851 0.0
C1345 C 0.209 0.24997 0.38461 0.0
C1346 C 0.22388 0.27501 0.39509 0.0
C1347 C 0.2189 0.29476 0.38909 0.0
C1348 C 0.19909 0.28927 0.37287 0.0
C1349 C 0.18483 0.26384 0.36227 0.0
H1350 H 0.63915 0.50616 0.71773 0.0
H1351 H 0.65967 0.52845 0.78324 0.0
H1352 H 0.69842 0.56966 0.77683 0.0
H1353 H 0.70675 0.52847 0.70812 0.0
H1354 H 0.70337 0.53927 0.68369 0.0
H1355 H 0.6748 0.51271 0.69297 0.0
H1356 H 0.64904 0.5379 0.68881 0.0
H1357 H 0.67758 0.56461 0.67959 0.0
H1358 H 0.66329 0.57083 0.70119 0.0
H1359 H 0.73481 0.60847 0.76395 0.0
H1360 H 0.77033 0.64032 0.74552 0.0
H1361 H 0.73148 0.59057 0.6886 0.0
C1362 C 0.65169 0.51946 0.73085 0.0
C1363 C 0.64542 0.51384 0.75107 0.0
C1364 C 0.66281 0.53233 0.76755 0.0
C1365 C 0.68526 0.55587 0.76411 0.0
C1366 C 0.6907 0.56057 0.74412 0.0
C1367 C 0.6748 0.54275 0.72775 0.0
C1368 C 0.6867 0.55172 0.70791 0.0
C1369 C 0.6933 0.53186 0.69757 0.0
C1370 C 0.66803 0.55655 0.69353 0.0
C1371 C 0.71185 0.57731 0.7158 0.0
C1372 C 0.71329 0.58219 0.7367 0.0
C1373 C 0.73407 0.60478 0.7476 0.0
C1374 C 0.7542 0.62277 0.73693 0.0
C1375 C 0.75394 0.6178 0.71562 0.0
C1376 C 0.73234 0.59479 0.7049 0.0
H1377 H 0.52287 0.1579 0.73656 0.0
H1378 H 0.48185 0.08183 0.76017 0.0
H1379 H 0.43863 0.07821 0.74936 0.0
H1380 H 0.47926 0.18052 0.7501 0.0
H1381 H 0.48063 0.1961 0.72716 0.0
H1382 H 0.50849 0.19278 0.7366 0.0
H1383 H 0.50608 0.16846 0.70186 0.0
H1384 H 0.47835 0.1719 0.69224 0.0
H1385 H 0.47512 0.1398 0.69146 0.0
H1386 H 0.39985 0.08397 0.73768 0.0
H1387 H 0.36825 0.09701 0.72342 0.0
H1388 H 0.4343 0.16767 0.70513 0.0
C1389 C 0.50487 0.1402 0.73915 0.0
C1390 C 0.50598 0.12024 0.74942 0.0
C1391 C 0.48173 0.09768 0.75274 0.0
C1392 C 0.45701 0.09534 0.74653 0.0
C1393 C 0.45673 0.11553 0.73673 0.0
C1394 C 0.48001 0.13736 0.7328 0.0
C1395 C 0.47418 0.1562 0.72188 0.0
C1396 C 0.48636 0.18298 0.73471 0.0
C1397 C 0.48401 0.15926 0.70059 0.0
C1398 C 0.44399 0.14166 0.72046 0.0
C1399 C 0.43433 0.11834 0.72926 0.0
C1400 C 0.40716 0.10204 0.73055 0.0
C1401 C 0.38938 0.10968 0.72249 0.0
C1402 C 0.39879 0.13325 0.71305 0.0
C1403 C 0.42648 0.14937 0.71203 0.0
H1404 H 0.90564 0.37152 0.75115 0.0
H1405 H 0.91888 0.40196 0.69209 0.0
H1406 H 0.92039 0.36296 0.67823 0.0
H1407 H 0.94893 0.34052 0.74758 0.0
H1408 H 0.92646 0.31333 0.76069 0.0
H1409 H 0.93053 0.34548 0.76665 0.0
H1410 H 0.8795 0.32577 0.75905 0.0
H1411 H 0.87526 0.29372 0.75285 0.0
H1412 H 0.86305 0.30784 0.73453 0.0
H1413 H 0.91192 0.31761 0.66943 0.0
H1414 H 0.89767 0.27029 0.66697 0.0
H1415 H 0.89404 0.27082 0.73227 0.0
C1416 C 0.90998 0.37062 0.73552 0.0
C1417 C 0.9121 0.38985 0.72271 0.0
C1418 C 0.91685 0.38735 0.70215 0.0
C1419 C 0.918 0.36538 0.69419 0.0
C1420 C 0.91494 0.3464 0.70709 0.0
C1421 C 0.91155 0.34904 0.72743 0.0
C1422 C 0.90653 0.32486 0.73765 0.0
C1423 C 0.92949 0.33145 0.75412 0.0
C1424 C 0.87948 0.31232 0.74652 0.0
C1425 C 0.90626 0.30764 0.71963 0.0
C1426 C 0.91134 0.32052 0.70216 0.0
C1427 C 0.9088 0.30759 0.68309 0.0
C1428 C 0.9006 0.28078 0.68181 0.0
C1429 C 0.89543 0.26739 0.69951 0.0
C1430 C 0.89882 0.28104 0.71868 0.0
H1431 H 0.16253 0.97387 0.64803 0.0
H1432 H 0.20161 0.93392 0.62242 0.0
H1433 H 0.24539 0.97376 0.63227 0.0
H1434 H 0.20494 0.03636 0.63301 0.0
H1435 H 0.20508 0.05443 0.65605 0.0
H1436 H 0.1768 0.02248 0.6477 0.0
H1437 H 0.18149 0.0063 0.68256 0.0
H1438 H 0.20968 0.0383 0.69109 0.0
H1439 H 0.21294 0.00946 0.69184 0.0
H1440 H 0.28464 0.01889 0.64276 0.0
H1441 H 0.31686 0.06521 0.65529 0.0
H1442 H 0.25235 0.07479 0.67581 0.0
C1443 C 0.18027 0.97323 0.64486 0.0
C1444 C 0.17853 0.95072 0.63432 0.0
C1445 C 0.20234 0.95103 0.63015 0.0
C1446 C 0.22733 0.97351 0.63581 0.0
C1447 C 0.22825 0.99546 0.64584 0.0
C1448 C 0.20538 0.9954 0.65056 0.0
C1449 C 0.21185 0.02168 0.66122 0.0
C1450 C 0.1989 0.03449 0.64875 0.0
C1451 C 0.2035 0.01875 0.68297 0.0
C1452 C 0.2419 0.03666 0.66146 0.0
C1453 C 0.25096 0.02121 0.65246 0.0
C1454 C 0.27783 0.03109 0.65006 0.0
C1455 C 0.29595 0.05744 0.65714 0.0
C1456 C 0.28713 0.07353 0.66665 0.0
C1457 C 0.25974 0.06288 0.66887 0.0
H1458 H 0.02403 0.21095 0.6071 0.0
H1459 H 0.06746 0.20412 0.66015 0.0
H1460 H 0.0329 0.20134 0.68136 0.0
H1461 H 1.00023 0.25051 0.63395 0.0
H1462 H 0.96811 0.23421 0.61903 0.0
H1463 H 0.9969 0.23701 0.60801 0.0
H1464 H 0.97226 0.18649 0.59922 0.0
H1465 H 0.94348 0.18357 0.61029 0.0
H1466 H 0.95892 0.16541 0.6192 0.0
H1467 H 0.99335 0.1973 0.69655 0.0
H1468 H 0.95085 0.19266 0.70529 0.0
H1469 H 0.932 0.20228 0.64274 0.0
C1470 C 0.02639 0.20925 0.62324 0.0
C1471 C 0.04842 0.20766 0.63198 0.0
C1472 C 0.05064 0.20508 0.6531 0.0
C1473 C 0.03118 0.20362 0.66529 0.0
C1474 C 0.00956 0.2048 0.65618 0.0
C1475 C 1.00699 0.20763 0.63568 0.0
C1476 C 0.98119 0.20753 0.62975 0.0
C1477 C 0.98696 0.23389 0.62224 0.0
C1478 C 0.96288 0.18437 0.61367 0.0
C1479 C 0.96963 0.20392 0.6501 0.0
C1480 C 0.98646 0.2025 0.66508 0.0
C1481 C 0.98005 0.19853 0.68499 0.0
C1482 C 0.95574 0.19583 0.68977 0.0
C1483 C 0.93796 0.19711 0.67474 0.0
C1484 C 0.94518 0.2014 0.65463 0.0
H1485 H 0.78385 0.80303 0.62257 0.0
H1486 H 0.78043 0.84012 0.68015 0.0
H1487 H 0.78407 0.80648 0.69831 0.0
H1488 H 0.74587 0.73339 0.63675 0.0
H1489 H 0.76626 0.72403 0.62304 0.0
H1490 H 0.75959 0.74885 0.61431 0.0
H1491 H 0.8104 0.78097 0.6156 0.0
H1492 H 0.8172 0.75649 0.62472 0.0
H1493 H 0.83137 0.78824 0.63917 0.0
H1494 H 0.79613 0.77431 0.71066 0.0
H1495 H 0.80925 0.74088 0.71608 0.0
H1496 H 0.80156 0.72229 0.65062 0.0
C1497 C 0.78287 0.80346 0.6389 0.0
C1498 C 0.78209 0.82427 0.64999 0.0
C1499 C 0.78137 0.82451 0.67141 0.0
C1500 C 0.78332 0.80545 0.68185 0.0
C1501 C 0.78543 0.78596 0.67061 0.0
C1502 C 0.78453 0.78436 0.64957 0.0
C1503 C 0.78868 0.76223 0.64134 0.0
C1504 C 0.76359 0.74085 0.62808 0.0
C1505 C 0.81338 0.77262 0.62952 0.0
C1506 C 0.79311 0.75243 0.6611 0.0
C1507 C 0.79118 0.76643 0.6778 0.0
C1508 C 0.797 0.76271 0.69772 0.0
C1509 C 0.80467 0.74392 0.70066 0.0
C1510 C 0.80608 0.72894 0.68377 0.0
C1511 C 0.80007 0.73315 0.66378 0.0
H1512 H 0.01562 0.83587 0.68799 0.0
H1513 H 0.01239 0.82356 0.62223 0.0
H1514 H 0.97121 0.78052 0.62189 0.0
H1515 H 0.98879 0.7662 0.69763 0.0
H1516 H 0.97037 0.76885 0.71771 0.0
H1517 H 1.00114 0.79713 0.71293 0.0
H1518 H 0.97664 0.82354 0.70864 0.0
H1519 H 0.9458 0.79534 0.71324 0.0
H1520 H 0.94774 0.81082 0.69016 0.0
H1521 H 0.92754 0.74183 0.62828 0.0
H1522 H 0.88624 0.70867 0.6411 0.0
H1523 H 0.91845 0.74562 0.7029 0.0
C1524 C 1.00647 0.82391 0.67355 0.0
C1525 C 0.01719 0.83301 0.65512 0.0
C1526 C 1.0047 0.81681 0.63654 0.0
C1527 C 0.98125 0.79241 0.63621 0.0
C1528 C 0.97079 0.78438 0.6546 0.0
C1529 C 0.98321 0.79947 0.67297 0.0
C1530 C 0.96721 0.78701 0.69047 0.0
C1531 C 0.98281 0.77934 0.70557 0.0
C1532 C 0.95885 0.80526 0.70125 0.0
C1533 C 0.94341 0.76293 0.679 0.0
C1534 C 0.9459 0.76174 0.65834 0.0
C1535 C 0.9256 0.7423 0.64447 0.0
C1536 C 0.90216 0.72363 0.65189 0.0
C1537 C 0.89922 0.72442 0.67302 0.0
C1538 C 0.9203 0.74421 0.68672 0.0
H1539 H 0.16031 0.1474 0.65484 0.0
H1540 H 0.17979 0.18077 0.59736 0.0
H1541 H 0.22529 0.18707 0.60373 0.0
H1542 H 0.22629 0.19112 0.68315 0.0
H1543 H 0.22479 0.16552 0.69767 0.0
H1544 H 0.19453 0.16508 0.68889 0.0
H1545 H 0.1756 0.11803 0.67093 0.0
H1546 H 0.20585 0.11841 0.67951 0.0
H1547 H 0.19428 0.11201 0.6527 0.0
H1548 H 0.26683 0.18486 0.61487 0.0
H1549 H 0.30285 0.17925 0.6316 0.0
H1550 H 0.25705 0.15025 0.68292 0.0
C1551 C 0.17434 0.1564 0.64376 0.0
C1552 C 0.16669 0.16363 0.6256 0.0
C1553 C 0.18545 0.17533 0.61142 0.0
C1554 C 0.21122 0.17883 0.61488 0.0
C1555 C 0.21797 0.17095 0.63277 0.0
C1556 C 0.2002 0.16043 0.64715 0.0
C1557 C 0.2122 0.15333 0.66503 0.0
C1558 C 0.2146 0.16975 0.68486 0.0
C1559 C 0.19602 0.12369 0.66716 0.0
C1560 C 0.23935 0.16102 0.65834 0.0
C1561 C 0.24225 0.17093 0.6396 0.0
C1562 C 0.26496 0.17761 0.62971 0.0
C1563 C 0.28524 0.17425 0.63927 0.0
C1564 C 0.28288 0.1647 0.65866 0.0
C1565 C 0.25965 0.15815 0.66829 0.0
H1566 H 0.85136 0.00335 0.69427 0.0
H1567 H 0.81691 0.97937 0.63108 0.0
H1568 H 0.80921 0.01694 0.63139 0.0
H1569 H 0.80796 0.02929 0.71052 0.0
H1570 H 0.83484 0.05628 0.72684 0.0
H1571 H 0.83443 0.02555 0.72263 0.0
H1572 H 0.88153 0.05003 0.7104 0.0
H1573 H 0.88208 0.08075 0.71459 0.0
H1574 H 0.88721 0.07046 0.68986 0.0
H1575 H 0.8105 0.05945 0.63689 0.0
H1576 H 0.8203 0.10447 0.64739 0.0
H1577 H 0.85341 0.10127 0.70722 0.0
C1578 C 0.84193 0.00586 0.68057 0.0
C1579 C 0.8346 0.98834 0.66267 0.0
C1580 C 0.82227 0.99225 0.64507 0.0
C1581 C 0.81786 0.01356 0.64508 0.0
C1582 C 0.82568 0.03065 0.66286 0.0
C1583 C 0.83732 0.02701 0.68033 0.0
C1584 C 0.84567 0.04938 0.6969 0.0
C1585 C 0.82977 0.03953 0.71531 0.0
C1586 C 0.87591 0.06348 0.7033 0.0
C1587 C 0.83787 0.06668 0.6857 0.0
C1588 C 0.82609 0.0553 0.66617 0.0
C1589 C 0.81921 0.06837 0.65226 0.0
C1590 C 0.82495 0.09394 0.65834 0.0
C1591 C 0.83736 0.10613 0.67816 0.0
C1592 C 0.84334 0.09211 0.69216 0.0
H1593 H 0.51039 0.33775 0.68809 0.0
H1594 H 0.52067 0.35518 0.75388 0.0
H1595 H 0.47683 0.31594 0.75609 0.0
H1596 H 0.43766 0.31143 0.68131 0.0
H1597 H 0.43233 0.28648 0.66144 0.0
H1598 H 0.4633 0.31736 0.66489 0.0
H1599 H 0.48949 0.29246 0.66845 0.0
H1600 H 0.45865 0.26158 0.66504 0.0
H1601 H 0.48181 0.26961 0.68741 0.0
H1602 H 0.43414 0.27233 0.75146 0.0
H1603 H 0.39517 0.22845 0.74012 0.0
H1604 H 0.41256 0.24012 0.67736 0.0
C1605 C 0.50328 0.33345 0.70293 0.0
C1606 C 0.51888 0.34958 0.7208 0.0
C1607 C 0.50887 0.34333 0.73995 0.0
C1608 C 0.48404 0.32103 0.74137 0.0
C1609 C 0.46934 0.30532 0.72349 0.0
C1610 C 0.47848 0.31138 0.70461 0.0
C1611 C 0.45942 0.29062 0.68783 0.0
C1612 C 0.44747 0.30217 0.67299 0.0
C1613 C 0.47317 0.27781 0.67653 0.0
C1614 C 0.43858 0.27156 0.70029 0.0
C1615 C 0.44453 0.28043 0.72081 0.0
C1616 C 0.42903 0.26535 0.73539 0.0
C1617 C 0.407 0.24044 0.72882 0.0
C1618 C 0.40069 0.23094 0.70785 0.0
C1619 C 0.41656 0.24696 0.69346 0.0
H1620 H 0.6723 0.16772 0.69835 0.0
H1621 H 0.67269 0.15646 0.76268 0.0
H1622 H 0.71407 0.15432 0.76147 0.0
H1623 H 0.69993 0.12522 0.68302 0.0
H1624 H 0.71929 0.14679 0.66486 0.0
H1625 H 0.68819 0.14441 0.6703 0.0
H1626 H 0.71249 0.19485 0.67959 0.0
H1627 H 0.74367 0.19738 0.67436 0.0
H1628 H 0.74064 0.21012 0.69892 0.0
H1629 H 0.75812 0.15907 0.7543 0.0
H1630 H 0.8 0.16697 0.74127 0.0
H1631 H 0.77087 0.17422 0.6812 0.0
C1632 C 0.68086 0.16438 0.71212 0.0
C1633 C 0.66923 0.16223 0.73064 0.0
C1634 C 0.68101 0.15781 0.74828 0.0
C1635 C 0.7046 0.15672 0.74775 0.0
C1636 C 0.71597 0.15974 0.72939 0.0
C1637 C 0.70429 0.1631 0.71182 0.0
C1638 C 0.72119 0.1671 0.6943 0.0
C1639 C 0.70626 0.14453 0.6771 0.0
C1640 C 0.73002 0.19395 0.68633 0.0
C1641 C 0.74464 0.16623 0.7049 0.0
C1642 C 0.74116 0.16191 0.72514 0.0
C1643 C 0.76083 0.16202 0.73841 0.0
C1644 C 0.78465 0.16668 0.73086 0.0
C1645 C 0.78869 0.17105 0.71016 0.0
C1646 C 0.76822 0.17052 0.69699 0.0
H1647 H 0.84517 0.5011 0.67434 0.0
H1648 H 0.85741 0.49953 0.73967 0.0
H1649 H 0.85783 0.54146 0.74571 0.0
H1650 H 0.88628 0.57231 0.67398 0.0
H1651 H 0.86405 0.5738 0.65446 0.0
H1652 H 0.86659 0.54456 0.65516 0.0
H1653 H 0.8155 0.51665 0.65641 0.0
H1654 H 0.81282 0.54577 0.65574 0.0
H1655 H 0.80031 0.52527 0.67615 0.0
H1656 H 0.85379 0.58157 0.74486 0.0
H1657 H 0.84665 0.61818 0.73718 0.0
H1658 H 0.83703 0.59397 0.67233 0.0
C1659 C 0.84805 0.50964 0.68991 0.0
C1660 C 0.8514 0.49712 0.70654 0.0
C1661 C 0.85526 0.50899 0.72669 0.0
C1662 C 0.85539 0.53273 0.73028 0.0
C1663 C 0.85176 0.5444 0.71357 0.0
C1664 C 0.8483 0.53337 0.69377 0.0
C1665 C 0.84393 0.54953 0.67858 0.0
C1666 C 0.86657 0.56071 0.66473 0.0
C1667 C 0.81651 0.53334 0.66599 0.0
C1668 C 0.84496 0.57108 0.69296 0.0
C1669 C 0.8496 0.56776 0.71307 0.0
C1670 C 0.85039 0.58453 0.72918 0.0
C1671 C 0.84622 0.60523 0.72464 0.0
C1672 C 0.84136 0.609 0.70414 0.0
C1673 C 0.84096 0.59177 0.68813 0.0
H1674 H 0.4634 0.92048 0.2458 0.0
H1675 H 0.37864 0.87168 0.22667 0.0
H1676 H 0.38488 0.89157 0.19419 0.0
H1677 H 0.47166 0.97834 0.22441 0.0
H1678 H 0.50403 0.98778 0.21639 0.0
H1679 H 0.49328 0.96925 0.23803 0.0
H1680 H 0.5015 0.93349 0.22105 0.0
H1681 H 0.5124 0.95198 0.19939 0.0
H1682 H 0.48566 0.91827 0.19575 0.0
H1683 H 0.3998 0.91689 0.16411 0.0
H1684 H 0.4226 0.9463 0.13808 0.0
H1685 H 0.498 0.97906 0.17613 0.0
C1686 C 0.44624 0.91388 0.23468 0.0
C1687 C 0.42048 0.89467 0.23885 0.0
C1688 C 0.39847 0.88665 0.22396 0.0
C1689 C 0.40183 0.89773 0.20542 0.0
C1690 C 0.42735 0.91684 0.20189 0.0
C1691 C 0.44921 0.92488 0.21605 0.0
C1692 C 0.47437 0.94616 0.20846 0.0
C1693 C 0.48655 0.97191 0.22267 0.0
C1694 C 0.49468 0.93691 0.20602 0.0
C1695 C 0.46316 0.94884 0.18791 0.0
C1696 C 0.436 0.93163 0.18443 0.0
C1697 C 0.42109 0.93037 0.16659 0.0
C1698 C 0.43427 0.94708 0.15184 0.0
C1699 C 0.46213 0.96493 0.15495 0.0
C1700 C 0.47667 0.9658 0.17333 0.0
H1701 H 0.12489 0.55453 0.24504 0.0
H1702 H 0.05938 0.50207 0.27764 0.0
H1703 H 0.02804 0.49071 0.24661 0.0
H1704 H 0.08781 0.57805 0.21418 0.0
H1705 H 0.10472 0.57892 0.19203 0.0
H1706 H 0.12157 0.5842 0.21719 0.0
H1707 H 0.13078 0.54632 0.20766 0.0
H1708 H 0.1138 0.5408 0.18254 0.0
H1709 H 0.10326 0.51418 0.19839 0.0
H1710 H 1.00438 0.48354 0.21179 0.0
H1711 H 0.98982 0.48082 0.17537 0.0
H1712 H 0.0708 0.5382 0.1655 0.0
C1713 C 0.10387 0.54104 0.24574 0.0
C1714 C 0.09447 0.52923 0.2637 0.0
C1715 C 0.06694 0.51121 0.26395 0.0
C1716 C 0.04901 0.50475 0.24647 0.0
C1717 C 0.05899 0.51648 0.22891 0.0
C1718 C 0.08575 0.53428 0.22841 0.0
C1719 C 0.09151 0.54316 0.20734 0.0
C1720 C 0.10202 0.57284 0.20771 0.0
C1721 C 0.11098 0.53566 0.19847 0.0
C1722 C 0.06385 0.52729 0.196 0.0
C1723 C 0.04536 0.51219 0.20876 0.0
C1724 C 0.01861 0.49547 0.20169 0.0
C1725 C 0.01052 0.49415 0.18101 0.0
C1726 C 0.02915 0.5094 0.16762 0.0
C1727 C 0.05614 0.52619 0.17532 0.0
H1728 H 0.49774 0.55113 0.25814 0.0
H1729 H 0.42324 0.54823 0.23969 0.0
H1730 H 0.42159 0.52747 0.20565 0.0
H1731 H 0.52596 0.57176 0.21492 0.0
H1732 H 0.54292 0.55315 0.21373 0.0
H1733 H 0.53531 0.56185 0.2379 0.0
H1734 H 0.50963 0.51284 0.24455 0.0
H1735 H 0.5175 0.50392 0.22045 0.0
H1736 H 0.48327 0.48909 0.22591 0.0
H1737 H 0.43265 0.51566 0.17204 0.0
H1738 H 0.45426 0.51169 0.14221 0.0
H1739 H 0.52121 0.52121 0.18251 0.0
C1740 C 0.48066 0.54534 0.24713 0.0
C1741 C 0.46055 0.55115 0.25158 0.0
C1742 C 0.43861 0.54352 0.23674 0.0
C1743 C 0.43758 0.53182 0.21732 0.0
C1744 C 0.45844 0.52756 0.21309 0.0
C1745 C 0.47935 0.53367 0.22771 0.0
C1746 C 0.50073 0.52992 0.21873 0.0
C1747 C 0.52781 0.5557 0.22148 0.0
C1748 C 0.5029 0.50761 0.22796 0.0
C1749 C 0.48932 0.5222 0.19656 0.0
C1750 C 0.46471 0.5205 0.19365 0.0
C1751 C 0.45154 0.51618 0.1742 0.0
C1752 C 0.46398 0.51385 0.15731 0.0
C1753 C 0.48942 0.51595 0.15992 0.0
C1754 C 0.50182 0.51957 0.17991 0.0
H1755 H 0.95579 0.46074 0.78078 0.0
H1756 H 0.87346 0.43884 0.78628 0.0
H1757 H 0.88399 0.45012 0.82363 0.0
H1758 H 0.96518 0.43382 0.82404 0.0
H1759 H 0.99911 0.45953 0.83154 0.0
H1760 H 0.98584 0.45244 0.80512 0.0
H1761 H 0.99792 0.50096 0.80366 0.0
H1762 H 0.01153 0.5083 0.83005 0.0
H1763 H 0.98598 0.51567 0.82182 0.0
H1764 H 0.90247 0.45915 0.86056 0.0
H1765 H 0.92807 0.46799 0.89415 0.0
H1766 H 0.99878 0.48563 0.86427 0.0
C1767 C 0.94009 0.45869 0.78984 0.0
C1768 C 0.91384 0.44902 0.7807 0.0
C1769 C 0.89378 0.44659 0.79299 0.0
C1770 C 0.89954 0.4528 0.8142 0.0
C1771 C 0.9255 0.46166 0.82279 0.0
C1772 C 0.94553 0.46495 0.81097 0.0
C1773 C 0.97151 0.47378 0.82399 0.0
C1774 C 0.98095 0.45369 0.82099 0.0
C1775 C 0.993 0.50132 0.81962 0.0
C1776 C 0.9628 0.47428 0.84502 0.0
C1777 C 0.93623 0.46731 0.84403 0.0
C1778 C 0.92342 0.46511 0.86154 0.0
C1779 C 0.93819 0.47028 0.88057 0.0
C1780 C 0.96556 0.47768 0.88196 0.0
C1781 C 0.97789 0.4798 0.86384 0.0
H1782 H 0.57498 0.49545 0.79791 0.0
H1783 H 0.58175 0.42618 0.80548 0.0
H1784 H 0.56501 0.4233 0.83917 0.0
H1785 H 0.59701 0.52383 0.85004 0.0
H1786 H 0.57434 0.53635 0.85091 0.0
H1787 H 0.58616 0.53257 0.82709 0.0
H1788 H 0.53737 0.5034 0.81065 0.0
H1789 H 0.5254 0.50706 0.83443 0.0
H1790 H 0.51489 0.47469 0.82234 0.0
H1791 H 0.54844 0.42834 0.87225 0.0
H1792 H 0.53251 0.44071 0.90243 0.0
H1793 H 0.5374 0.50725 0.87377 0.0
C1794 C 0.57302 0.47973 0.80668 0.0
C1795 C 0.57951 0.46093 0.79898 0.0
C1796 C 0.57646 0.44053 0.81089 0.0
C1797 C 0.56713 0.43882 0.8301 0.0
C1798 C 0.56096 0.45767 0.83724 0.0
C1799 C 0.56374 0.47773 0.82592 0.0
C1800 C 0.55593 0.49559 0.83724 0.0
C1801 C 0.57978 0.52375 0.84158 0.0
C1802 C 0.53197 0.49514 0.82546 0.0
C1803 C 0.54837 0.48244 0.85669 0.0
C1804 C 0.55145 0.46062 0.85638 0.0
C1805 C 0.54596 0.4454 0.87269 0.0
C1806 C 0.53708 0.45267 0.88981 0.0
C1807 C 0.53374 0.47496 0.89048 0.0
C1808 C 0.53946 0.48994 0.87363 0.0
H1809 H 0.52712 0.07078 0.79747 0.0
H1810 H 0.59692 0.14665 0.81745 0.0
H1811 H 0.59676 0.13344 0.8524 0.0
H1812 H 0.49392 0.06507 0.84087 0.0
H1813 H 0.48064 0.03019 0.84116 0.0
H1814 H 0.48777 0.04466 0.81745 0.0
H1815 H 0.51849 0.02534 0.81092 0.0
H1816 H 0.51123 0.01055 0.83453 0.0
H1817 H 0.54533 0.03213 0.83001 0.0
H1818 H 0.58589 0.11331 0.88596 0.0
H1819 H 0.56728 0.0872 0.91465 0.0
H1820 H 0.50566 0.02372 0.87216 0.0
C1821 C 0.5426 0.08448 0.80914 0.0
C1822 C 0.56207 0.10974 0.80475 0.0
C1823 C 0.58202 0.1271 0.82042 0.0
C1824 C 0.58198 0.11981 0.84033 0.0
C1825 C 0.56204 0.09498 0.84425 0.0
C1826 C 0.54295 0.07746 0.82899 0.0
C1827 C 0.52321 0.05229 0.83722 0.0
C1828 C 0.4947 0.04781 0.83398 0.0
C1829 C 0.52466 0.02869 0.8276 0.0
C1830 C 0.53374 0.05859 0.85961 0.0
C1831 C 0.55617 0.08326 0.86338 0.0
C1832 C 0.56862 0.09377 0.8831 0.0
C1833 C 0.55793 0.07867 0.89933 0.0
C1834 C 0.535 0.05317 0.89583 0.0
C1835 C 0.523 0.04314 0.87557 0.0
H1836 H 0.10637 0.22002 0.55363 0.0
H1837 H 0.12255 0.2799 0.60268 0.0
H1838 H 0.14353 0.31433 0.57938 0.0
H1839 H 0.16664 0.25707 0.52944 0.0
H1840 H 0.1502 0.24482 0.50388 0.0
H1841 H 0.13728 0.22493 0.52456 0.0
H1842 H 0.09123 0.22093 0.51554 0.0
H1843 H 0.104 0.24077 0.49483 0.0
H1844 H 0.08912 0.25035 0.51424 0.0
H1845 H 0.16308 0.34214 0.55099 0.0
H1846 H 0.17786 0.36159 0.51897 0.0
H1847 H 0.14667 0.28348 0.48758 0.0
C1848 C 0.11455 0.24042 0.55944 0.0
C1849 C 0.11299 0.24741 0.57995 0.0
C1850 C 0.12349 0.27421 0.58699 0.0
C1851 C 0.13552 0.29386 0.57391 0.0
C1852 C 0.13666 0.28635 0.55376 0.0
C1853 C 0.12629 0.26028 0.54649 0.0
C1854 C 0.12921 0.25751 0.52395 0.0
C1855 C 0.14689 0.24537 0.52025 0.0
C1856 C 0.10176 0.24144 0.51141 0.0
C1857 C 0.14295 0.2861 0.51974 0.0
C1858 C 0.1472 0.30238 0.53718 0.0
C1859 C 0.15967 0.32957 0.53718 0.0
C1860 C 0.16782 0.34042 0.51883 0.0
C1861 C 0.16325 0.32415 0.50058 0.0
C1862 C 0.15075 0.29658 0.50121 0.0
H1863 H 0.76235 0.83205 0.57786 0.0
H1864 H 0.75326 0.89728 0.60133 0.0
H1865 H 0.73069 0.89589 0.56801 0.0
H1866 H 0.77585 0.85117 0.5283 0.0
H1867 H 0.75714 0.81835 0.51539 0.0
H1868 H 0.77158 0.82351 0.54137 0.0
H1869 H 0.72519 0.79129 0.55223 0.0
H1870 H 0.7106 0.78589 0.52624 0.0
H1871 H 0.69765 0.79672 0.54639 0.0
H1872 H 0.7116 0.88938 0.53186 0.0
H1873 H 0.69506 0.87659 0.49529 0.0
H1874 H 0.71491 0.8146 0.49521 0.0
C1875 C 0.75519 0.84573 0.5761 0.0
C1876 C 0.7598 0.86493 0.5922 0.0
C1877 C 0.75041 0.88271 0.58915 0.0
C1878 C 0.7374 0.88197 0.57031 0.0
C1879 C 0.73366 0.86318 0.55468 0.0
C1880 C 0.74202 0.8452 0.55738 0.0
C1881 C 0.73591 0.82737 0.53788 0.0
C1882 C 0.76166 0.83029 0.53029 0.0
C1883 C 0.71616 0.79861 0.54087 0.0
C1884 C 0.72318 0.83841 0.52376 0.0
C1885 C 0.72211 0.85907 0.5338 0.0
C1886 C 0.71214 0.8731 0.52385 0.0
C1887 C 0.70296 0.86582 0.50307 0.0
C1888 C 0.70372 0.84464 0.49245 0.0
C1889 C 0.71383 0.83069 0.50302 0.0
H1890 H 0.13927 0.91562 0.56464 0.0
H1891 H 0.10014 0.84008 0.58886 0.0
H1892 H 0.10116 0.81842 0.55586 0.0
H1893 H 0.10726 0.89168 0.51127 0.0
H1894 H 0.13737 0.91434 0.50094 0.0
H1895 H 0.13014 0.92303 0.52539 0.0
H1896 H 0.17585 0.9315 0.54177 0.0
H1897 H 0.18313 0.92267 0.51746 0.0
H1898 H 0.18402 0.90574 0.53911 0.0
H1899 H 0.11226 0.80623 0.52189 0.0
H1900 H 0.1299 0.80407 0.48912 0.0
H1901 H 0.16118 0.88769 0.48726 0.0
C1902 C 0.13044 0.89444 0.56284 0.0
C1903 C 0.11962 0.87946 0.57924 0.0
C1904 C 0.10825 0.85182 0.57638 0.0
C1905 C 0.10885 0.83942 0.55773 0.0
C1906 C 0.12051 0.85493 0.54207 0.0
C1907 C 0.13073 0.88182 0.54437 0.0
C1908 C 0.14369 0.89434 0.52578 0.0
C1909 C 0.12871 0.90656 0.51522 0.0
C1910 C 0.17343 0.91475 0.53137 0.0
C1911 C 0.14002 0.87046 0.5129 0.0
C1912 C 0.12646 0.84786 0.52246 0.0
C1913 C 0.12246 0.82372 0.51411 0.0
C1914 C 0.13268 0.8227 0.49559 0.0
C1915 C 0.14668 0.84567 0.48561 0.0
C1916 C 0.15004 0.86972 0.49432 0.0
H1917 H 0.58832 0.7586 0.12398 0.0
H1918 H 0.62487 0.83308 0.09776 0.0
H1919 H 0.65144 0.85544 0.13071 0.0
H1920 H 0.58492 0.78383 0.17409 0.0
H1921 H 0.59309 0.76233 0.1872 0.0
H1922 H 0.57622 0.75209 0.1617 0.0
H1923 H 0.61353 0.74412 0.1498 0.0
H1924 H 0.63048 0.75426 0.17528 0.0
H1925 H 0.64775 0.77038 0.15412 0.0
H1926 H 0.67466 0.86972 0.16603 0.0
H1927 H 0.69318 0.87508 0.20176 0.0
H1928 H 0.64278 0.79128 0.20506 0.0
C1929 C 0.60201 0.77958 0.12511 0.0
C1930 C 0.60437 0.79409 0.10824 0.0
C1931 C 0.62234 0.82159 0.11051 0.0
C1932 C 0.63766 0.83447 0.12914 0.0
C1933 C 0.63488 0.8196 0.14539 0.0
C1934 C 0.61755 0.79278 0.1436 0.0
C1935 C 0.61872 0.78142 0.16341 0.0
C1936 C 0.59163 0.7692 0.17211 0.0
C1937 C 0.62819 0.76136 0.16047 0.0
C1938 C 0.63948 0.80607 0.17657 0.0
C1939 C 0.64849 0.82785 0.16584 0.0
C1940 C 0.66783 0.85281 0.17459 0.0
C1941 C 0.67835 0.85562 0.19486 0.0
C1942 C 0.66958 0.83359 0.20618 0.0
C1943 C 0.64975 0.80852 0.19687 0.0
H1944 H 0.24905 0.7924 0.14141 0.0
H1945 H 0.23824 0.8459 0.10477 0.0
H1946 H 0.21697 0.85606 0.13237 0.0
H1947 H 0.18668 0.76691 0.16397 0.0
H1948 H 0.20085 0.76512 0.1885 0.0
H1949 H 0.21478 0.76167 0.1657 0.0
H1950 H 0.26124 0.79984 0.1809 0.0
H1951 H 0.24744 0.80349 0.20371 0.0
H1952 H 0.26494 0.83124 0.18943 0.0
H1953 H 0.1973 0.86072 0.16385 0.0
H1954 H 0.18077 0.85996 0.19741 0.0
H1955 H 0.2041 0.80332 0.21382 0.0
C1956 C 0.24195 0.80605 0.13914 0.0
C1957 C 0.2453 0.81839 0.12095 0.0
C1958 C 0.2361 0.83643 0.11866 0.0
C1959 C 0.22391 0.84223 0.1342 0.0
C1960 C 0.22109 0.82988 0.15198 0.0
C1961 C 0.22985 0.81219 0.15456 0.0
C1962 C 0.22482 0.80205 0.17534 0.0
C1963 C 0.20563 0.77216 0.17324 0.0
C1964 C 0.25118 0.80961 0.1881 0.0
C1965 C 0.21187 0.81683 0.18403 0.0
C1966 C 0.20986 0.8327 0.17025 0.0
C1967 C 0.19865 0.84828 0.17474 0.0
C1968 C 0.18918 0.84759 0.19381 0.0
C1969 C 0.19097 0.83146 0.20822 0.0
C1970 C 0.20259 0.81597 0.2032 0.0
H1971 H 0.23443 0.45111 0.15789 0.0
H1972 H 0.16646 0.39758 0.11468 0.0
H1973 H 0.14886 0.36632 0.14067 0.0
H1974 H 0.24213 0.40095 0.18259 0.0
H1975 H 0.25097 0.41884 0.20758 0.0
H1976 H 0.25886 0.43636 0.18524 0.0
H1977 H 0.23326 0.45974 0.19656 0.0
H1978 H 0.22513 0.44216 0.21884 0.0
H1979 H 0.19892 0.44029 0.20141 0.0
H1980 H 0.13787 0.34167 0.17158 0.0
H1981 H 0.13409 0.32513 0.20536 0.0
H1982 H 0.20939 0.39448 0.22861 0.0
C1983 C 0.21608 0.43261 0.15381 0.0
C1984 C 0.20184 0.4267 0.13424 0.0
C1985 C 0.17761 0.40253 0.12961 0.0
C1986 C 0.16752 0.38463 0.14424 0.0
C1987 C 0.18187 0.3912 0.16345 0.0
C1988 C 0.20565 0.41456 0.16827 0.0
C1989 C 0.21664 0.41721 0.19028 0.0
C1990 C 0.24376 0.4184 0.19149 0.0
C1991 C 0.21859 0.44128 0.20249 0.0
C1992 C 0.19522 0.39177 0.1971 0.0
C1993 C 0.17543 0.37702 0.18135 0.0
C1994 C 0.15336 0.35295 0.18399 0.0
C1995 C 0.15147 0.34365 0.20322 0.0
C1996 C 0.17151 0.35839 0.21965 0.0
C1997 C 0.19365 0.38281 0.21644 0.0
H1998 H 0.7961 0.587 0.91024 0.0
H1999 H 0.71087 0.54499 0.89183 0.0
H2000 H 0.71853 0.56782 0.86065 0.0
H2001 H 0.80978 0.64903 0.89136 0.0
H2002 H 0.84131 0.65578 0.88301 0.0
H2003 H 0.8291 0.63684 0.90428 0.0
H2004 H 0.83311 0.59895 0.88609 0.0
H2005 H 0.84532 0.61775 0.86478 0.0
H2006 H 0.81648 0.58521 0.86074 0.0
H2007 H 0.73547 0.59309 0.83061 0.0
H2008 H 0.76053 0.62063 0.80423 0.0
H2009 H 0.83483 0.64718 0.84224 0.0
C2010 C 0.77908 0.58272 0.89966 0.0
C2011 C 0.75287 0.56434 0.90351 0.0
C2012 C 0.73107 0.55929 0.88935 0.0
C2013 C 0.73523 0.57206 0.87155 0.0
C2014 C 0.7613 0.58997 0.86818 0.0
C2015 C 0.78286 0.59547 0.88188 0.0
C2016 C 0.80886 0.61536 0.87446 0.0
C2017 C 0.8231 0.64076 0.88915 0.0
C2018 C 0.82701 0.60361 0.87133 0.0
C2019 C 0.79857 0.61987 0.85429 0.0
C2020 C 0.77106 0.60498 0.85098 0.0
C2021 C 0.75698 0.60499 0.8331 0.0
C2022 C 0.77138 0.62059 0.81818 0.0
C2023 C 0.79957 0.63606 0.82124 0.0
C2024 C 0.81326 0.63582 0.83964 0.0
H2025 H 0.4273 0.16993 0.90923 0.0
H2026 H 0.42051 0.2356 0.9351 0.0
H2027 H 0.39418 0.23318 0.90332 0.0
H2028 H 0.4343 0.18736 0.85869 0.0
H2029 H 0.41469 0.15405 0.84683 0.0
H2030 H 0.43246 0.16057 0.87177 0.0
H2031 H 0.38846 0.12859 0.88611 0.0
H2032 H 0.37055 0.1219 0.86119 0.0
H2033 H 0.36018 0.13342 0.88273 0.0
H2034 H 0.36992 0.22454 0.86822 0.0
H2035 H 0.34865 0.20963 0.83269 0.0
H2036 H 0.37023 0.14884 0.83032 0.0
C2037 C 0.41992 0.18354 0.9084 0.0
C2038 C 0.42601 0.20297 0.92472 0.0
C2039 C 0.4164 0.22075 0.92274 0.0
C2040 C 0.40128 0.21943 0.9048 0.0
C2041 C 0.39579 0.20012 0.88901 0.0
C2042 C 0.4047 0.18241 0.89068 0.0
C2043 C 0.3964 0.16379 0.87138 0.0
C2044 C 0.42093 0.16663 0.86159 0.0
C2045 C 0.37779 0.13524 0.87561 0.0
C2046 C 0.38163 0.17393 0.8585 0.0
C2047 C 0.38151 0.19491 0.86894 0.0
C2048 C 0.36976 0.20804 0.85995 0.0
C2049 C 0.35786 0.19953 0.83975 0.0
C2050 C 0.35773 0.17804 0.8288 0.0
C2051 C 0.36968 0.16506 0.83841 0.0
H2052 H 0.83536 0.22753 0.9222 0.0
H2053 H 0.76246 0.22538 0.89919 0.0
H2054 H 0.76572 0.20869 0.86509 0.0
H2055 H 0.86945 0.2515 0.8791 0.0
H2056 H 0.88605 0.23252 0.87975 0.0
H2057 H 0.87666 0.24171 0.90295 0.0
H2058 H 0.84993 0.19277 0.90968 0.0
H2059 H 0.8593 0.18342 0.8865 0.0
H2060 H 0.82458 0.16908 0.8904 0.0
H2061 H 0.77856 0.19575 0.83296 0.0
H2062 H 0.80016 0.18738 0.80489 0.0
H2063 H 0.86483 0.1977 0.84839 0.0
C2064 C 0.81997 0.22339 0.91004 0.0
C2065 C 0.79848 0.22754 0.91353 0.0
C2066 C 0.77878 0.22181 0.89712 0.0
C2067 C 0.78053 0.21246 0.87762 0.0
C2068 C 0.8021 0.20889 0.87468 0.0
C2069 C 0.82144 0.21409 0.89042 0.0
C2070 C 0.84328 0.20984 0.88288 0.0
C2071 C 0.87046 0.23542 0.88638 0.0
C2072 C 0.84432 0.18744 0.89297 0.0
C2073 C 0.83347 0.20206 0.86037 0.0
C2074 C 0.80956 0.20141 0.85603 0.0
C2075 C 0.79709 0.1958 0.8362 0.0
C2076 C 0.80947 0.1909 0.82035 0.0
C2077 C 0.83414 0.19162 0.82435 0.0
C2078 C 0.84607 0.19706 0.84474 0.0
H2079 H 0.24931 0.07728 0.46782 0.0
H2080 H 0.28389 0.15248 0.44289 0.0
H2081 H 0.31641 0.17308 0.47373 0.0
H2082 H 0.25348 0.10179 0.51863 0.0
H2083 H 0.26139 0.07897 0.52981 0.0
H2084 H 0.24225 0.06992 0.50522 0.0
H2085 H 0.27664 0.06013 0.48959 0.0
H2086 H 0.29585 0.06904 0.51418 0.0
H2087 H 0.31138 0.0852 0.49247 0.0
H2088 H 0.34394 0.18557 0.50789 0.0
H2089 H 0.36336 0.1894 0.5432 0.0
H2090 H 0.31048 0.10583 0.54548 0.0
C2091 C 0.26406 0.09798 0.46867 0.0
C2092 C 0.26431 0.11329 0.45293 0.0
C2093 C 0.28342 0.14046 0.45483 0.0
C2094 C 0.302 0.15226 0.47221 0.0
C2095 C 0.3011 0.1366 0.48752 0.0
C2096 C 0.2826 0.11005 0.48591 0.0
C2097 C 0.2849 0.09783 0.50489 0.0
C2098 C 0.25896 0.08647 0.51524 0.0
C2099 C 0.29266 0.07681 0.49999 0.0
C2100 C 0.30738 0.1217 0.51758 0.0
C2101 C 0.31665 0.14383 0.50724 0.0
C2102 C 0.33699 0.16834 0.51608 0.0
C2103 C 0.34797 0.17029 0.53608 0.0
C2104 C 0.33846 0.1479 0.54705 0.0
C2105 C 0.31805 0.12331 0.53753 0.0
H2106 H 0.92685 0.13201 0.48475 0.0
H2107 H 0.92356 0.18929 0.44801 0.0
H2108 H 0.90454 0.2027 0.47549 0.0
H2109 H 0.86496 0.11238 0.50661 0.0
H2110 H 0.87739 0.10888 0.53125 0.0
H2111 H 0.89068 0.10369 0.50865 0.0
H2112 H 0.9384 0.13864 0.52438 0.0
H2113 H 0.92524 0.144 0.547 0.0
H2114 H 0.94532 0.17126 0.53298 0.0
H2115 H 0.88602 0.20998 0.5068 0.0
H2116 H 0.86958 0.21102 0.54017 0.0
H2117 H 0.88423 0.14859 0.55653 0.0
C2118 C 0.92193 0.14723 0.48244 0.0
C2119 C 0.92676 0.15968 0.46426 0.0
C2120 C 0.92035 0.17974 0.46192 0.0
C2121 C 0.90941 0.18739 0.47738 0.0
C2122 C 0.90501 0.17481 0.49512 0.0
C2123 C 0.91106 0.15518 0.49777 0.0
C2124 C 0.90459 0.14506 0.51843 0.0
C2125 C 0.88313 0.11576 0.51609 0.0
C2126 C 0.9299 0.15005 0.53146 0.0
C2127 C 0.89395 0.16206 0.52696 0.0
C2128 C 0.89431 0.17904 0.51324 0.0
C2129 C 0.88551 0.1967 0.51765 0.0
C2130 C 0.87606 0.19702 0.5366 0.0
C2131 C 0.87546 0.1798 0.55094 0.0
C2132 C 0.88461 0.16214 0.54598 0.0
H2133 H 0.8766 0.74401 0.47805 0.0
H2134 H 0.8386 0.79149 0.48135 0.0
H2135 H 0.81861 0.77147 0.51207 0.0
H2136 H 0.82276 0.6856 0.49422 0.0
H2137 H 0.84423 0.67738 0.50907 0.0
H2138 H 0.8557 0.69541 0.48727 0.0
H2139 H 0.89697 0.73242 0.50995 0.0
H2140 H 0.88569 0.71444 0.5318 0.0
H2141 H 0.89224 0.74778 0.53249 0.0
H2142 H 0.80293 0.74669 0.54246 0.0
H2143 H 0.79261 0.71865 0.57073 0.0
H2144 H 0.84094 0.68735 0.54814 0.0
C2145 C 0.86416 0.75025 0.48531 0.0
C2146 C 0.85893 0.76912 0.47716 0.0
C2147 C 0.84247 0.77671 0.48706 0.0
C2148 C 0.83115 0.76556 0.5046 0.0
C2149 C 0.83648 0.74686 0.51211 0.0
C2150 C 0.85261 0.73926 0.50284 0.0
C2151 C 0.85511 0.71874 0.51411 0.0
C2152 C 0.84377 0.69274 0.50034 0.0
C2153 C 0.88423 0.72896 0.52259 0.0
C2154 C 0.83783 0.71601 0.53112 0.0
C2155 C 0.82735 0.73247 0.52969 0.0
C2156 C 0.81104 0.73372 0.54376 0.0
C2157 C 0.80538 0.7178 0.55981 0.0
C2158 C 0.81594 0.7008 0.56165 0.0
C2159 C 0.83228 0.69988 0.547 0.0
loop_
_geom_bond_atom_site_label_1
_geom_bond_atom_site_label_2
_geom_bond_distance
_geom_bond_site_symmetry_2
_ccdc_geom_bond_type
H0 C1 0.949 . S
C1 H0 0.949 . S
C1 C2 1.395 . S
C1 C3 1.391 . S
C2 C1 1.395 . S
C2 C5 1.390 . S
C3 C1 1.391 . S
C3 C7 1.387 . S
C3 C8 1.491 . S
H4 C5 0.950 . S
C5 C2 1.390 . S
C5 H4 0.950 . S
C5 C6 1.378 . S
C6 C5 1.378 . S
C6 C7 1.409 . S
C7 C3 1.387 . S
C7 C6 1.409 . S
C7 H9 0.951 . S
C8 C3 1.491 . S
C8 C10 1.382 . S
C8 C12 1.404 . S
H9 C7 0.951 . S
C10 C8 1.382 . S
C10 C11 1.390 . S
C10 H15 0.949 . S
C11 C10 1.390 . S
C11 C16 1.399 . S
C12 C8 1.404 . S
C12 H13 0.950 . S
C12 C14 1.375 . S
H13 C12 0.950 . S
C14 C12 1.375 . S
C14 C16 1.382 . S
C14 H18 0.950 . S
H15 C10 0.949 . S
C16 C11 1.399 . S
C16 C14 1.382 . S
C16 H17 0.952 . S
H17 C16 0.952 . S
H18 C14 0.950 . S
H19 C20 0.949 . S
C20 H19 0.949 . S
C20 C21 1.395 . S
C20 C22 1.391 . S
C21 C20 1.395 . S
C21 C24 1.390 . S
C22 C20 1.391 . S
C22 C26 1.387 . S
C22 C27 1.491 . S
H23 C24 0.950 . S
C24 C21 1.390 . S
C24 H23 0.950 . S
C24 C25 1.378 . S
C25 C24 1.378 . S
C25 C26 1.409 . S
C26 C22 1.387 . S
C26 C25 1.409 . S
C26 H28 0.951 . S
C27 C22 1.491 . S
C27 C29 1.382 . S
C27 C31 1.404 . S
H28 C26 0.951 . S
C29 C27 1.382 . S
C29 C30 1.390 . S
C29 H34 0.949 . S
C30 C29 1.390 . S
C30 C35 1.399 . S
C31 C27 1.404 . S
C31 H32 0.950 . S
C31 C33 1.375 . S
H32 C31 0.950 . S
C33 C31 1.375 . S
C33 C35 1.382 . S
C33 H37 0.950 . S
H34 C29 0.949 . S
C35 C30 1.399 . S
C35 C33 1.382 . S
C35 H36 0.952 . S
H36 C35 0.952 . S
H37 C33 0.950 . S
H38 C39 0.949 . S
C39 H38 0.949 . S
C39 C40 1.395 . S
C39 C41 1.391 . S
C40 C39 1.395 . S
C40 C43 1.390 . S
C41 C39 1.391 . S
C41 C45 1.387 . S
C41 C46 1.491 . S
H42 C43 0.950 . S
C43 C40 1.390 . S
C43 H42 0.950 . S
C43 C44 1.378 . S
C44 C43 1.378 . S
C44 C45 1.409 . S
C45 C41 1.387 . S
C45 C44 1.409 . S
C45 H47 0.951 . S
C46 C41 1.491 . S
C46 C48 1.382 . S
C46 C50 1.404 . S
H47 C45 0.951 . S
C48 C46 1.382 . S
C48 C49 1.390 . S
C48 H53 0.949 . S
C49 C48 1.390 . S
C49 C54 1.399 . S
C50 C46 1.404 . S
C50 H51 0.950 . S
C50 C52 1.375 . S
H51 C50 0.950 . S
C52 C50 1.375 . S
C52 C54 1.382 . S
C52 H56 0.950 . S
H53 C48 0.949 . S
C54 C49 1.399 . S
C54 C52 1.382 . S
C54 H55 0.952 1_655 S
H55 C54 0.952 1_455 S
H56 C52 0.950 . S
H57 C58 0.949 . S
C58 H57 0.949 . S
C58 C59 1.395 . S
C58 C60 1.391 . S
C59 C58 1.395 . S
C59 C62 1.390 . S
C60 C58 1.391 . S
C60 C64 1.387 . S
C60 C65 1.491 . S
H61 C62 0.950 . S
C62 C59 1.390 . S
C62 H61 0.950 . S
C62 C63 1.378 . S
C63 C62 1.378 . S
C63 C64 1.409 . S
C64 C60 1.387 . S
C64 C63 1.409 . S
C64 H66 0.951 . S
C65 C60 1.491 . S
C65 C67 1.382 . S
C65 C69 1.404 . S
H66 C64 0.951 . S
C67 C65 1.382 . S
C67 C68 1.390 . S
C67 H72 0.949 . S
C68 C67 1.390 . S
C68 C73 1.399 . S
C69 C65 1.404 . S
C69 H70 0.950 . S
C69 C71 1.375 . S
H70 C69 0.950 . S
C71 C69 1.375 . S
C71 C73 1.382 . S
C71 H75 0.950 . S
H72 C67 0.949 . S
C73 C68 1.399 . S
C73 C71 1.382 . S
C73 H74 0.952 . S
H74 C73 0.952 . S
H75 C71 0.950 . S
H76 C77 0.949 . S
C77 H76 0.949 . S
C77 C78 1.395 . S
C77 C79 1.391 . S
C78 C77 1.395 . S
C78 C81 1.390 . S
C79 C77 1.391 . S
C79 C83 1.387 . S
C79 C84 1.491 . S
H80 C81 0.950 . S
C81 C78 1.390 . S
C81 H80 0.950 . S
C81 C82 1.378 . S
C82 C81 1.378 . S
C82 C83 1.409 . S
C83 C79 1.387 . S
C83 C82 1.409 . S
C83 H85 0.951 . S
C84 C79 1.491 . S
C84 C86 1.382 . S
C84 C88 1.404 . S
H85 C83 0.951 . S
C86 C84 1.382 . S
C86 C87 1.390 . S
C86 H91 0.949 . S
C87 C86 1.390 . S
C87 C92 1.399 . S
C88 C84 1.404 . S
C88 H89 0.950 . S
C88 C90 1.375 . S
H89 C88 0.950 . S
C90 C88 1.375 . S
C90 C92 1.382 . S
C90 H94 0.950 . S
H91 C86 0.949 . S
C92 C87 1.399 . S
C92 C90 1.382 . S
C92 H93 0.952 . S
H93 C92 0.952 . S
H94 C90 0.950 . S
H95 C96 0.949 . S
C96 H95 0.949 . S
C96 C97 1.395 . S
C96 C98 1.391 . S
C97 C96 1.395 . S
C97 C100 1.390 . S
C98 C96 1.391 . S
C98 C102 1.387 . S
C98 C103 1.491 . S
H99 C100 0.950 . S
C100 C97 1.390 . S
C100 H99 0.950 . S
C100 C101 1.378 . S
C101 C100 1.378 . S
C101 C102 1.409 . S
C102 C98 1.387 . S
C102 C101 1.409 . S
C102 H104 0.951 . S
C103 C98 1.491 . S
C103 C105 1.382 . S
C103 C107 1.404 . S
H104 C102 0.951 . S
C105 C103 1.382 . S
C105 C106 1.390 . S
C105 H110 0.949 . S
C106 C105 1.390 . S
C106 C111 1.399 . S
C107 C103 1.404 . S
C107 H108 0.950 . S
C107 C109 1.375 . S
H108 C107 0.950 . S
C109 C107 1.375 . S
C109 C111 1.382 . S
C109 H113 0.950 . S
H110 C105 0.949 . S
C111 C106 1.399 . S
C111 C109 1.382 . S
C111 H112 0.952 . S
H112 C111 0.952 . S
H113 C109 0.950 . S
H114 C115 0.949 . S
C115 H114 0.949 . S
C115 C116 1.395 . S
C115 C117 1.391 . S
C116 C115 1.395 . S
C116 C119 1.390 . S
C117 C115 1.391 . S
C117 C121 1.387 . S
C117 C122 1.491 . S
H118 C119 0.950 . S
C119 C116 1.390 . S
C119 H118 0.950 . S
C119 C120 1.378 . S
C120 C119 1.378 . S
C120 C121 1.409 . S
C121 C117 1.387 . S
C121 C120 1.409 . S
C121 H123 0.951 . S
C122 C117 1.491 . S
C122 C124 1.382 . S
C122 C126 1.404 . S
H123 C121 0.951 . S
C124 C122 1.382 . S
C124 C125 1.390 . S
C124 H129 0.949 . S
C125 C124 1.390 . S
C125 C130 1.399 . S
C126 C122 1.404 . S
C126 H127 0.950 . S
C126 C128 1.375 . S
H127 C126 0.950 . S
C128 C126 1.375 . S
C128 C130 1.382 . S
C128 H132 0.950 . S
H129 C124 0.949 . S
C130 C125 1.399 . S
C130 C128 1.382 . S
C130 H131 0.952 . S
H131 C130 0.952 . S
H132 C128 0.950 . S
H133 C134 0.949 . S
C134 H133 0.949 . S
C134 C135 1.395 . S
C134 C136 1.391 . S
C135 C134 1.395 . S
C135 C138 1.390 . S
C136 C134 1.391 . S
C136 C140 1.387 . S
C136 C141 1.491 . S
H137 C138 0.950 . S
C138 C135 1.390 . S
C138 H137 0.950 . S
C138 C139 1.378 . S
C139 C138 1.378 . S
C139 C140 1.409 . S
C140 C136 1.387 . S
C140 C139 1.409 . S
C140 H142 0.951 . S
C141 C136 1.491 . S
C141 C143 1.382 . S
C141 C145 1.404 . S
H142 C140 0.951 . S
C143 C141 1.382 . S
C143 C144 1.390 . S
C143 H148 0.949 . S
C144 C143 1.390 . S
C144 C149 1.399 . S
C145 C141 1.404 . S
C145 H146 0.950 . S
C145 C147 1.375 . S
H146 C145 0.950 . S
C147 C145 1.375 . S
C147 C149 1.382 . S
C147 H151 0.950 . S
H148 C143 0.949 . S
C149 C144 1.399 . S
C149 C147 1.382 . S
C149 H150 0.952 . S
H150 C149 0.952 . S
H151 C147 0.950 . S
H152 C153 0.949 . S
C153 H152 0.949 . S
C153 C154 1.395 . S
C153 C155 1.391 . S
C154 C153 1.395 . S
C154 C157 1.390 . S
C155 C153 1.391 . S
C155 C159 1.387 . S
C155 C160 1.491 . S
H156 C157 0.950 . S
C157 C154 1.390 . S
C157 H156 0.950 . S
C157 C158 1.378 . S
C158 C157 1.378 . S
C158 C159 1.409 . S
C159 C155 1.387 . S
C159 C158 1.409 . S
C159 H161 0.951 . S
C160 C155 1.491 . S
C160 C162 1.382 . S
C160 C164 1.404 . S
H161 C159 0.951 . S
C162 C160 1.382 . S
C162 C163 1.390 . S
C162 H167 0.949 . S
C163 C162 1.390 . S
C163 C168 1.399 . S
C164 C160 1.404 . S
C164 H165 0.950 . S
C164 C166 1.375 . S
H165 C164 0.950 . S
C166 C164 1.375 . S
C166 C168 1.382 . S
C166 H170 0.950 . S
H167 C162 0.949 . S
C168 C163 1.399 . S
C168 C166 1.382 . S
C168 H169 0.952 . S
H169 C168 0.952 . S
H170 C166 0.950 . S
H171 C172 0.949 . S
C172 H171 0.949 . S
C172 C173 1.395 . S
C172 C174 1.391 . S
C173 C172 1.395 . S
C173 C176 1.390 . S
C174 C172 1.391 . S
C174 C178 1.387 . S
C174 C179 1.491 . S
H175 C176 0.950 . S
C176 C173 1.390 . S
C176 H175 0.950 . S
C176 C177 1.378 . S
C177 C176 1.378 . S
C177 C178 1.409 . S
C178 C174 1.387 . S
C178 C177 1.409 . S
C178 H180 0.951 . S
C179 C174 1.491 . S
C179 C181 1.382 . S
C179 C183 1.404 . S
H180 C178 0.951 . S
C181 C179 1.382 . S
C181 C182 1.390 . S
C181 H186 0.949 . S
C182 C181 1.390 . S
C182 C187 1.399 . S
C183 C179 1.404 . S
C183 H184 0.950 . S
C183 C185 1.375 . S
H184 C183 0.950 . S
C185 C183 1.375 . S
C185 C187 1.382 . S
C185 H189 0.950 . S
H186 C181 0.949 . S
C187 C182 1.399 . S
C187 C185 1.382 . S
C187 H188 0.952 . S
H188 C187 0.952 . S
H189 C185 0.950 . S
H190 C191 0.949 . S
C191 H190 0.949 . S
C191 C192 1.395 . S
C191 C193 1.391 . S
C192 C191 1.395 . S
C192 C195 1.390 . S
C193 C191 1.391 . S
C193 C197 1.387 . S
C193 C198 1.491 . S
H194 C195 0.950 . S
C195 C192 1.390 . S
C195 H194 0.950 . S
C195 C196 1.378 . S
C196 C195 1.378 . S
C196 C197 1.409 . S
C197 C193 1.387 . S
C197 C196 1.409 . S
C197 H199 0.951 1_556 S
C198 C193 1.491 . S
C198 C200 1.382 . S
C198 C202 1.404 1_556 S
H199 C197 0.951 1_554 S
C200 C198 1.382 . S
C200 C201 1.390 1_556 S
C200 H205 0.949 . S
C201 C200 1.390 1_554 S
C201 C206 1.399 . S
C202 C198 1.404 1_554 S
C202 H203 0.950 . S
C202 C204 1.375 . S
H203 C202 0.950 . S
C204 C202 1.375 . S
C204 C206 1.382 . S
C204 H208 0.950 . S
H205 C200 0.949 . S
C206 C201 1.399 . S
C206 C204 1.382 . S
C206 H207 0.952 . S
H207 C206 0.952 . S
H208 C204 0.950 . S
H209 C210 0.949 . S
C210 H209 0.949 . S
C210 C211 1.395 . S
C210 C212 1.391 . S
C211 C210 1.395 . S
C211 C214 1.390 . S
C212 C210 1.391 . S
C212 C216 1.387 . S
C212 C217 1.491 . S
H213 C214 0.950 . S
C214 C211 1.390 . S
C214 H213 0.950 . S
C214 C215 1.378 . S
C215 C214 1.378 . S
C215 C216 1.409 . S
C216 C212 1.387 . S
C216 C215 1.409 . S
C216 H218 0.951 . S
C217 C212 1.491 . S
C217 C219 1.382 . S
C217 C221 1.404 . S
H218 C216 0.951 . S
C219 C217 1.382 . S
C219 C220 1.390 . S
C219 H224 0.949 . S
C220 C219 1.390 . S
C220 C225 1.399 . S
C221 C217 1.404 . S
C221 H222 0.950 . S
C221 C223 1.375 . S
H222 C221 0.950 . S
C223 C221 1.375 . S
C223 C225 1.382 . S
C223 H227 0.950 . S
H224 C219 0.949 . S
C225 C220 1.399 . S
C225 C223 1.382 . S
C225 H226 0.952 . S
H226 C225 0.952 . S
H227 C223 0.950 . S
H228 C229 0.949 . S
C229 H228 0.949 . S
C229 C230 1.395 . S
C229 C231 1.391 . S
C230 C229 1.395 . S
C230 C233 1.390 . S
C231 C229 1.391 . S
C231 C235 1.387 . S
C231 C236 1.491 . S
H232 C233 0.950 . S
C233 C230 1.390 . S
C233 H232 0.950 . S
C233 C234 1.378 . S
C234 C233 1.378 . S
C234 C235 1.409 . S
C235 C231 1.387 . S
C235 C234 1.409 . S
C235 H237 0.951 . S
C236 C231 1.491 . S
C236 C238 1.382 . S
C236 C240 1.404 . S
H237 C235 0.951 . S
C238 C236 1.382 . S
C238 C239 1.390 . S
C238 H243 0.949 . S
C239 C238 1.390 . S
C239 C244 1.399 . S
C240 C236 1.404 . S
C240 H241 0.950 . S
C240 C242 1.380 . S
H241 C240 0.950 . S
C242 C240 1.380 . S
C242 C244 1.383 . S
C242 H246 0.944 1_554 S
H243 C238 0.949 . S
C244 C239 1.399 . S
C244 C242 1.383 . S
C244 H245 0.952 1_554 S
H245 C244 0.952 1_556 S
H246 C242 0.944 1_556 S
H247 C248 0.949 . S
C248 H247 0.949 . S
C248 C249 1.395 . S
C248 C250 1.391 . S
C249 C248 1.395 . S
C249 C252 1.390 . S
C250 C248 1.391 . S
C250 C254 1.387 . S
C250 C255 1.491 . S
H251 C252 0.950 . S
C252 C249 1.390 . S
C252 H251 0.950 . S
C252 C253 1.378 . S
C253 C252 1.378 . S
C253 C254 1.409 . S
C254 C250 1.387 . S
C254 C253 1.409 . S
C254 H256 0.951 . S
C255 C250 1.491 . S
C255 C257 1.382 . S
C255 C259 1.404 . S
H256 C254 0.951 . S
C257 C255 1.382 . S
C257 C258 1.390 . S
C257 H262 0.949 . S
C258 C257 1.390 . S
C258 C263 1.399 . S
C259 C255 1.404 . S
C259 H260 0.950 . S
C259 C261 1.375 . S
H260 C259 0.950 . S
C261 C259 1.375 . S
C261 C263 1.382 . S
C261 H265 0.950 . S
H262 C257 0.949 . S
C263 C258 1.399 . S
C263 C261 1.382 . S
C263 H264 0.952 . S
H264 C263 0.952 . S
H265 C261 0.950 . S
H266 C267 0.949 . S
C267 H266 0.949 . S
C267 C268 1.395 . S
C267 C269 1.391 . S
C268 C267 1.395 . S
C268 C271 1.390 . S
C269 C267 1.391 . S
C269 C273 1.387 . S
C269 C274 1.491 . S
H270 C271 0.950 . S
C271 C268 1.390 . S
C271 H270 0.950 . S
C271 C272 1.378 . S
C272 C271 1.378 . S
C272 C273 1.409 . S
C273 C269 1.387 . S
C273 C272 1.409 . S
C273 H275 0.951 . S
C274 C269 1.491 . S
C274 C276 1.382 . S
C274 C278 1.404 . S
H275 C273 0.951 . S
C276 C274 1.382 . S
C276 C277 1.390 . S
C276 H281 0.949 . S
C277 C276 1.390 . S
C277 C282 1.399 . S
C278 C274 1.404 . S
C278 H279 0.950 . S
C278 C280 1.375 . S
H279 C278 0.950 . S
C280 C278 1.375 . S
C280 C282 1.382 . S
C280 H284 0.950 . S
H281 C276 0.949 . S
C282 C277 1.399 . S
C282 C280 1.382 . S
C282 H283 0.952 . S
H283 C282 0.952 . S
H284 C280 0.950 . S
H285 C286 0.949 . S
C286 H285 0.949 . S
C286 C287 1.395 . S
C286 C288 1.391 . S
C287 C286 1.395 . S
C287 C290 1.390 . S
C288 C286 1.391 . S
C288 C292 1.387 . S
C288 C293 1.491 . S
H289 C290 0.950 . S
C290 C287 1.390 . S
C290 H289 0.950 . S
C290 C291 1.378 . S
C291 C290 1.378 . S
C291 C292 1.409 . S
C292 C288 1.387 . S
C292 C291 1.409 . S
C292 H294 0.951 . S
C293 C288 1.491 . S
C293 C295 1.382 . S
C293 C297 1.404 . S
H294 C292 0.951 . S
C295 C293 1.382 . S
C295 C296 1.390 . S
C295 H300 0.949 . S
C296 C295 1.390 . S
C296 C301 1.399 . S
C297 C293 1.404 . S
C297 H298 0.950 . S
C297 C299 1.375 . S
H298 C297 0.950 . S
C299 C297 1.375 . S
C299 C301 1.382 . S
C299 H303 0.950 . S
H300 C295 0.949 . S
C301 C296 1.399 . S
C301 C299 1.382 . S
C301 H302 0.952 . S
H302 C301 0.952 . S
H303 C299 0.950 . S
H304 C305 0.949 . S
C305 H304 0.949 . S
C305 C306 1.395 . S
C305 C307 1.391 . S
C306 C305 1.395 . S
C306 C309 1.390 . S
C307 C305 1.391 . S
C307 C311 1.387 . S
C307 C312 1.491 . S
H308 C309 0.950 . S
C309 C306 1.390 . S
C309 H308 0.950 . S
C309 C310 1.378 . S
C310 C309 1.378 . S
C310 C311 1.409 . S
C311 C307 1.387 . S
C311 C310 1.409 . S
C311 H313 0.951 . S
C312 C307 1.491 . S
C312 C314 1.382 . S
C312 C316 1.404 . S
H313 C311 0.951 . S
C314 C312 1.382 . S
C314 C315 1.390 . S
C314 H319 0.949 . S
C315 C314 1.390 . S
C315 C320 1.399 . S
C316 C312 1.404 . S
C316 H317 0.950 . S
C316 C318 1.375 . S
H317 C316 0.950 . S
C318 C316 1.375 . S
C318 C320 1.382 . S
C318 H322 0.950 . S
H319 C314 0.949 . S
C320 C315 1.399 . S
C320 C318 1.382 . S
C320 H321 0.952 . S
H321 C320 0.952 . S
H322 C318 0.950 . S
H323 C324 0.949 . S
C324 H323 0.949 . S
C324 C325 1.395 . S
C324 C326 1.391 . S
C325 C324 1.395 . S
C325 C328 1.390 . S
C326 C324 1.391 . S
C326 C330 1.387 . S
C326 C331 1.491 . S
H327 C328 0.950 . S
C328 C325 1.390 . S
C328 H327 0.950 . S
C328 C329 1.378 . S
C329 C328 1.378 . S
C329 C330 1.409 . S
C330 C326 1.387 . S
C330 C329 1.409 . S
C330 H332 0.951 . S
C331 C326 1.491 . S
C331 C333 1.382 . S
C331 C335 1.404 . S
H332 C330 0.951 . S
C333 C331 1.382 . S
C333 C334 1.390 . S
C333 H338 0.949 . S
C334 C333 1.390 . S
C334 C339 1.399 . S
C335 C331 1.404 . S
C335 H336 0.950 . S
C335 C337 1.375 . S
H336 C335 0.950 . S
C337 C335 1.375 . S
C337 C339 1.382 . S
C337 H341 0.950 . S
H338 C333 0.949 . S
C339 C334 1.399 . S
C339 C337 1.382 . S
C339 H340 0.952 . S
H340 C339 0.952 . S
H341 C337 0.950 . S
Eu342 C351 2.828 1_565 S
Eu342 O353 2.392 . S
Eu342 O355 2.418 . S
Eu342 O360 2.373 1_565 S
Eu342 O363 2.488 . S
Eu342 O364 2.471 1_565 S
Eu342 O365 2.349 1_565 S
Eu343 O352 2.373 1_545 S
Eu343 O356 2.488 . S
Eu343 O357 2.471 1_545 S
Eu343 O358 2.349 1_545 S
Eu343 O361 2.392 . S
Eu343 O362 2.418 . S
Eu343 C372 2.828 1_545 S
C344 O362 1.244 . S
C344 O365 1.265 1_554 S
C345 C346 1.379 . S
C345 C349 1.373 . S
C345 C351 1.505 . S
C346 C345 1.379 . S
C346 C348 1.369 . S
C346 H374 0.930 . S
C347 C349 1.383 . S
C347 C350 1.382 . S
C347 H375 0.930 . S
C348 C346 1.369 . S
C348 C350 1.392 . S
C348 H376 0.930 . S
C349 C345 1.373 . S
C349 C347 1.383 . S
C349 H377 0.931 1_545 S
C350 C347 1.382 . S
C350 C348 1.392 . S
C351 Eu342 2.828 1_545 S
C351 C345 1.505 . S
C351 O363 1.249 1_545 S
C351 O364 1.244 . S
O352 Eu343 2.373 1_565 S
O352 C354 1.258 . S
O353 Eu342 2.392 . S
O353 C354 1.242 1_556 S
C354 O352 1.258 . S
C354 O353 1.242 1_554 S
O355 Eu342 2.418 . S
O355 C359 1.202 1_556 S
O356 Eu343 2.488 . S
O356 C372 1.249 1_545 S
O357 Eu343 2.471 1_565 S
O357 C372 1.244 . S
O358 Eu343 2.349 1_565 S
O358 C359 1.287 . S
C359 O355 1.202 1_554 S
C359 O358 1.287 . S
O360 Eu342 2.373 1_545 S
O360 C373 1.258 . S
O361 Eu343 2.392 . S
O361 C373 1.242 1_554 S
O362 Eu343 2.418 . S
O362 C344 1.244 . S
O363 Eu342 2.488 . S
O363 C351 1.249 1_565 S
O364 Eu342 2.471 1_545 S
O364 C351 1.244 . S
O365 Eu342 2.349 1_545 S
O365 C344 1.265 1_556 S
C366 C367 1.379 . S
C366 C370 1.373 1_565 S
C366 C372 1.505 . S
C367 C366 1.379 . S
C367 C369 1.369 . S
C367 H378 0.930 . S
C368 C370 1.383 1_565 S
C368 C371 1.382 . S
C368 H379 0.930 1_565 S
C369 C367 1.369 . S
C369 C371 1.392 . S
C369 H380 0.930 . S
C370 C366 1.373 1_545 S
C370 C368 1.383 1_545 S
C370 H381 0.931 . S
C371 C368 1.382 . S
C371 C369 1.392 . S
C372 Eu343 2.828 1_565 S
C372 O356 1.249 1_565 S
C372 O357 1.244 . S
C372 C366 1.505 . S
C373 O360 1.258 . S
C373 O361 1.242 1_556 S
H374 C346 0.930 . S
H375 C347 0.930 . S
H376 C348 0.930 . S
H377 C349 0.931 1_565 S
H378 C367 0.930 . S
H379 C368 0.930 1_545 S
H380 C369 0.930 . S
H381 C370 0.931 . S
Eu382 C391 2.828 1_455 S
Eu382 O393 2.392 1_556 S
Eu382 O395 2.418 . S
Eu382 O400 2.373 1_455 S
Eu382 O403 2.488 . S
Eu382 O404 2.471 1_455 S
Eu382 O405 2.349 1_455 S
Eu383 O392 2.373 1_655 S
Eu383 O396 2.488 . S
Eu383 O397 2.471 1_655 S
Eu383 O398 2.349 1_655 S
Eu383 O401 2.392 . S
Eu383 O402 2.418 . S
Eu383 C412 2.828 1_655 S
C384 O402 1.244 . S
C384 O405 1.265 1_554 S
C385 C386 1.379 . S
C385 C389 1.373 . S
C385 C391 1.505 . S
C386 C385 1.379 . S
C386 C388 1.369 . S
C386 H414 0.930 . S
C387 C389 1.383 . S
C387 C390 1.382 . S
C387 H415 0.930 . S
C388 C386 1.369 . S
C388 C390 1.392 . S
C388 H416 0.930 . S
C389 C385 1.373 . S
C389 C387 1.383 . S
C389 H417 0.931 1_655 S
C390 C387 1.382 . S
C390 C388 1.392 . S
C391 Eu382 2.828 1_655 S
C391 C385 1.505 . S
C391 O403 1.249 1_655 S
C391 O404 1.244 . S
O392 Eu383 2.373 1_455 S
O392 C394 1.258 . S
O393 Eu382 2.392 1_554 S
O393 C394 1.242 . S
C394 O392 1.258 . S
C394 O393 1.242 . S
O395 Eu382 2.418 . S
O395 C399 1.244 1_556 S
O396 Eu383 2.488 . S
O396 C412 1.249 1_655 S
O397 Eu383 2.471 1_455 S
O397 C412 1.244 . S
O398 Eu383 2.349 1_455 S
O398 C399 1.265 . S
C399 O395 1.244 1_554 S
C399 O398 1.265 . S
O400 Eu382 2.373 1_655 S
O400 C413 1.258 . S
O401 Eu383 2.392 . S
O401 C413 1.242 1_554 S
O402 Eu383 2.418 . S
O402 C384 1.244 . S
O403 Eu382 2.488 . S
O403 C391 1.249 1_455 S
O404 Eu382 2.471 1_655 S
O404 C391 1.244 . S
O405 Eu382 2.349 1_655 S
O405 C384 1.265 1_556 S
C406 C407 1.379 . S
C406 C410 1.373 . S
C406 C412 1.505 . S
C407 C406 1.379 . S
C407 C409 1.369 . S
C407 H418 0.930 . S
C408 C410 1.383 . S
C408 C411 1.382 . S
C408 H419 0.930 . S
C409 C407 1.369 . S
C409 C411 1.392 . S
C409 H420 0.930 . S
C410 C406 1.373 . S
C410 C408 1.383 . S
C410 H421 0.931 1_455 S
C411 C408 1.382 . S
C411 C409 1.392 . S
C412 Eu383 2.828 1_455 S
C412 O396 1.249 1_455 S
C412 O397 1.244 . S
C412 C406 1.505 . S
C413 O400 1.258 . S
C413 O401 1.242 1_556 S
H414 C386 0.930 . S
H415 C387 0.930 . S
H416 C388 0.930 . S
H417 C389 0.931 1_455 S
H418 C407 0.930 . S
H419 C408 0.930 . S
H420 C409 0.930 . S
H421 C410 0.931 1_655 S
Eu422 C431 2.828 . S
Eu422 O433 2.392 . S
Eu422 O435 2.418 . S
Eu422 O440 2.373 . S
Eu422 O443 2.488 . S
Eu422 O444 2.471 . S
Eu422 O445 2.349 . S
Eu423 O432 2.373 . S
Eu423 O436 2.488 . S
Eu423 O437 2.471 . S
Eu423 O438 2.349 1_556 S
Eu423 O441 2.392 1_556 S
Eu423 O442 2.418 . S
Eu423 C452 2.828 . S
C424 O442 1.244 1_554 S
C424 O445 1.265 . S
C425 C426 1.379 . S
C425 C429 1.373 . S
C425 C431 1.505 . S
C426 C425 1.379 . S
C426 C428 1.369 . S
C426 H454 0.930 . S
C427 C429 1.383 . S
C427 C430 1.382 . S
C427 H455 0.930 . S
C428 C426 1.369 . S
C428 C430 1.392 . S
C428 H456 0.930 . S
C429 C425 1.373 . S
C429 C427 1.383 . S
C429 H457 0.931 . S
C430 C427 1.382 . S
C430 C428 1.392 . S
C431 Eu422 2.828 . S
C431 C425 1.505 . S
C431 O443 1.249 . S
C431 O444 1.244 . S
O432 Eu423 2.373 . S
O432 C434 1.258 . S
O433 Eu422 2.392 . S
O433 C434 1.242 1_554 S
C434 O432 1.258 . S
C434 O433 1.242 1_556 S
O435 Eu422 2.418 . S
O435 C439 1.244 . S
O436 Eu423 2.488 . S
O436 C452 1.249 . S
O437 Eu423 2.471 . S
O437 C452 1.244 . S
O438 Eu423 2.349 1_554 S
O438 C439 1.265 . S
C439 O435 1.244 . S
C439 O438 1.265 . S
O440 Eu422 2.373 . S
O440 C453 1.258 . S
O441 Eu423 2.392 1_554 S
O441 C453 1.242 . S
O442 Eu423 2.418 . S
O442 C424 1.244 1_556 S
O443 Eu422 2.488 . S
O443 C431 1.249 . S
O444 Eu422 2.471 . S
O444 C431 1.244 . S
O445 Eu422 2.349 . S
O445 C424 1.265 . S
C446 C447 1.379 . S
C446 C450 1.373 . S
C446 C452 1.505 . S
C447 C446 1.379 . S
C447 C449 1.369 . S
C447 H458 0.930 . S
C448 C450 1.383 . S
C448 C451 1.382 . S
C448 H459 0.930 . S
C449 C447 1.369 . S
C449 C451 1.392 . S
C449 H460 0.930 . S
C450 C446 1.373 . S
C450 C448 1.383 . S
C450 H461 0.931 . S
C451 C448 1.382 . S
C451 C449 1.392 . S
C452 Eu423 2.828 . S
C452 O436 1.249 . S
C452 O437 1.244 . S
C452 C446 1.505 . S
C453 O440 1.258 . S
C453 O441 1.242 . S
H454 C426 0.930 . S
H455 C427 0.930 . S
H456 C428 0.930 . S
H457 C429 0.931 . S
H458 C447 0.930 . S
H459 C448 0.930 . S
H460 C449 0.930 . S
H461 C450 0.931 . S
Eu462 C471 2.828 . S
Eu462 O473 2.392 . S
Eu462 O475 2.418 . S
Eu462 O480 2.373 . S
Eu462 O483 2.488 . S
Eu462 O484 2.471 . S
Eu462 O485 2.349 . S
Eu463 O472 2.373 . S
Eu463 O476 2.488 . S
Eu463 O477 2.471 . S
Eu463 O478 2.349 . S
Eu463 O481 2.392 . S
Eu463 O482 2.418 . S
Eu463 C492 2.828 . S
C464 O482 1.244 . S
C464 O485 1.265 . S
C465 C466 1.379 . S
C465 C469 1.373 . S
C465 C471 1.505 . S
C466 C465 1.379 . S
C466 C468 1.369 . S
C466 H494 0.930 . S
C467 C469 1.383 . S
C467 C470 1.382 . S
C467 H495 0.930 . S
C468 C466 1.369 . S
C468 C470 1.392 . S
C468 H496 0.930 . S
C469 C465 1.373 . S
C469 C467 1.383 . S
C469 H497 0.931 . S
C470 C467 1.382 . S
C470 C468 1.392 . S
C471 Eu462 2.828 . S
C471 C465 1.505 . S
C471 O483 1.249 . S
C471 O484 1.244 . S
O472 Eu463 2.373 . S
O472 C474 1.258 . S
O473 Eu462 2.392 . S
O473 C474 1.242 . S
C474 O472 1.258 . S
C474 O473 1.242 . S
O475 Eu462 2.418 . S
O475 C479 1.244 . S
O476 Eu463 2.488 . S
O476 C492 1.249 . S
O477 Eu463 2.471 . S
O477 C492 1.244 . S
O478 Eu463 2.349 . S
O478 C479 1.265 . S
C479 O475 1.244 . S
C479 O478 1.265 . S
O480 Eu462 2.373 . S
O480 C493 1.258 . S
O481 Eu463 2.392 . S
O481 C493 1.242 . S
O482 Eu463 2.418 . S
O482 C464 1.244 . S
O483 Eu462 2.488 . S
O483 C471 1.249 . S
O484 Eu462 2.471 . S
O484 C471 1.244 . S
O485 Eu462 2.349 . S
O485 C464 1.265 . S
C486 C487 1.379 . S
C486 C490 1.373 . S
C486 C492 1.505 . S
C487 C486 1.379 . S
C487 C489 1.369 . S
C487 H498 0.930 . S
C488 C490 1.383 . S
C488 C491 1.382 . S
C488 H499 0.930 . S
C489 C487 1.369 . S
C489 C491 1.392 . S
C489 H500 0.930 . S
C490 C486 1.373 . S
C490 C488 1.383 . S
C490 H501 0.931 . S
C491 C488 1.382 . S
C491 C489 1.392 . S
C492 Eu463 2.828 . S
C492 O476 1.249 . S
C492 O477 1.244 . S
C492 C486 1.505 . S
C493 O480 1.258 . S
C493 O481 1.242 . S
H494 C466 0.930 . S
H495 C467 0.930 . S
H496 C468 0.930 . S
H497 C469 0.931 . S
H498 C487 0.930 . S
H499 C488 0.930 . S
H500 C489 0.930 . S
H501 C490 0.931 . S
Eu502 C511 2.828 . S
Eu502 O513 2.392 . S
Eu502 O515 2.418 . S
Eu502 O520 2.373 . S
Eu502 O523 2.488 . S
Eu502 O524 2.471 . S
Eu502 O525 2.349 . S
Eu503 O512 2.373 . S
Eu503 O516 2.488 . S
Eu503 O517 2.471 . S
Eu503 O518 2.349 . S
Eu503 O521 2.392 . S
Eu503 O522 2.418 . S
Eu503 C532 2.828 . S
C504 O522 1.244 . S
C504 O525 1.265 . S
C505 C506 1.379 . S
C505 C509 1.373 . S
C505 C511 1.505 . S
C506 C505 1.379 . S
C506 C508 1.369 . S
C506 H534 0.930 . S
C507 C509 1.383 . S
C507 C510 1.382 . S
C507 H535 0.930 . S
C508 C506 1.369 . S
C508 C510 1.392 . S
C508 H536 0.930 . S
C509 C505 1.373 . S
C509 C507 1.383 . S
C509 H537 0.931 . S
C510 C507 1.382 . S
C510 C508 1.392 . S
C511 Eu502 2.828 . S
C511 C505 1.505 . S
C511 O523 1.249 . S
C511 O524 1.244 . S
O512 Eu503 2.373 . S
O512 C514 1.258 . S
O513 Eu502 2.392 . S
O513 C514 1.242 . S
C514 O512 1.258 . S
C514 O513 1.242 . S
O515 Eu502 2.418 . S
O515 C519 1.244 . S
O516 Eu503 2.488 . S
O516 C532 1.249 . S
O517 Eu503 2.471 . S
O517 C532 1.244 . S
O518 Eu503 2.349 . S
O518 C519 1.265 . S
C519 O515 1.244 . S
C519 O518 1.265 . S
O520 Eu502 2.373 . S
O520 C533 1.258 . S
O521 Eu503 2.392 . S
O521 C533 1.242 . S
O522 Eu503 2.418 . S
O522 C504 1.244 . S
O523 Eu502 2.488 . S
O523 C511 1.249 . S
O524 Eu502 2.471 . S
O524 C511 1.244 . S
O525 Eu502 2.349 . S
O525 C504 1.265 . S
C526 C527 1.379 . S
C526 C530 1.373 . S
C526 C532 1.505 . S
C527 C526 1.379 . S
C527 C529 1.369 . S
C527 H538 0.930 . S
C528 C530 1.383 . S
C528 C531 1.382 . S
C528 H539 0.930 . S
C529 C527 1.369 . S
C529 C531 1.392 . S
C529 H540 0.930 . S
C530 C526 1.373 . S
C530 C528 1.383 . S
C530 H541 0.931 . S
C531 C528 1.382 . S
C531 C529 1.392 . S
C532 Eu503 2.828 . S
C532 O516 1.249 . S
C532 O517 1.244 . S
C532 C526 1.505 . S
C533 O520 1.258 . S
C533 O521 1.242 . S
H534 C506 0.930 . S
H535 C507 0.930 . S
H536 C508 0.930 . S
H537 C509 0.931 . S
H538 C527 0.930 . S
H539 C528 0.930 . S
H540 C529 0.930 . S
H541 C530 0.931 . S
Eu542 C551 2.828 . S
Eu542 O553 2.392 . S
Eu542 O555 2.418 . S
Eu542 O560 2.373 . S
Eu542 O563 2.488 . S
Eu542 O564 2.471 . S
Eu542 O565 2.349 . S
Eu543 O552 2.373 . S
Eu543 O556 2.488 . S
Eu543 O557 2.471 . S
Eu543 O558 2.349 . S
Eu543 O561 2.392 . S
Eu543 O562 2.418 . S
Eu543 C572 2.828 . S
C544 O562 1.244 . S
C544 O565 1.265 . S
C545 C546 1.379 . S
C545 C549 1.373 . S
C545 C551 1.505 . S
C546 C545 1.379 . S
C546 C548 1.369 . S
C546 H574 0.930 . S
C547 C549 1.383 . S
C547 C550 1.382 . S
C547 H575 0.930 . S
C548 C546 1.369 . S
C548 C550 1.392 . S
C548 H576 0.930 . S
C549 C545 1.373 . S
C549 C547 1.383 . S
C549 H577 0.931 . S
C550 C547 1.382 . S
C550 C548 1.392 . S
C551 Eu542 2.828 . S
C551 C545 1.505 . S
C551 O563 1.249 . S
C551 O564 1.244 . S
O552 Eu543 2.373 . S
O552 C554 1.258 . S
O553 Eu542 2.392 . S
O553 C554 1.242 . S
C554 O552 1.258 . S
C554 O553 1.242 . S
O555 Eu542 2.418 . S
O555 C559 1.244 . S
O556 Eu543 2.488 . S
O556 C572 1.249 . S
O557 Eu543 2.471 . S
O557 C572 1.244 . S
O558 Eu543 2.349 . S
O558 C559 1.265 . S
C559 O555 1.244 . S
C559 O558 1.265 . S
O560 Eu542 2.373 . S
O560 C573 1.258 . S
O561 Eu543 2.392 . S
O561 C573 1.242 . S
O562 Eu543 2.418 . S
O562 C544 1.244 . S
O563 Eu542 2.488 . S
O563 C551 1.249 . S
O564 Eu542 2.471 . S
O564 C551 1.244 . S
O565 Eu542 2.349 . S
O565 C544 1.265 . S
C566 C567 1.379 . S
C566 C570 1.373 . S
C566 C572 1.505 . S
C567 C566 1.379 . S
C567 C569 1.369 . S
C567 H578 0.930 . S
C568 C570 1.383 . S
C568 C571 1.382 . S
C568 H579 0.930 . S
C569 C567 1.369 . S
C569 C571 1.392 . S
C569 H580 0.930 . S
C570 C566 1.373 . S
C570 C568 1.383 . S
C570 H581 0.931 . S
C571 C568 1.382 . S
C571 C569 1.392 . S
C572 Eu543 2.828 . S
C572 O556 1.249 . S
C572 O557 1.244 . S
C572 C566 1.505 . S
C573 O560 1.258 . S
C573 O561 1.242 . S
H574 C546 0.930 . S
H575 C547 0.930 . S
H576 C548 0.930 . S
H577 C549 0.931 . S
H578 C567 0.930 . S
H579 C568 0.930 . S
H580 C569 0.930 . S
H581 C570 0.931 . S
Eu582 C591 2.828 . S
Eu582 O593 2.392 . S
Eu582 O595 2.418 . S
Eu582 O600 2.373 . S
Eu582 O603 2.488 . S
Eu582 O604 2.471 . S
Eu582 O605 2.349 . S
Eu583 O592 2.373 . S
Eu583 O596 2.488 . S
Eu583 O597 2.471 . S
Eu583 O598 2.349 . S
Eu583 O601 2.392 . S
Eu583 O602 2.418 . S
Eu583 C612 2.828 . S
C584 O602 1.244 . S
C584 O605 1.265 . S
C585 C586 1.379 . S
C585 C589 1.373 . S
C585 C591 1.505 . S
C586 C585 1.379 . S
C586 C588 1.369 . S
C586 H614 0.930 . S
C587 C589 1.383 . S
C587 C590 1.382 . S
C587 H615 0.930 . S
C588 C586 1.369 . S
C588 C590 1.392 . S
C588 H616 0.930 . S
C589 C585 1.373 . S
C589 C587 1.383 . S
C589 H617 0.931 . S
C590 C587 1.382 . S
C590 C588 1.392 . S
C591 Eu582 2.828 . S
C591 C585 1.505 . S
C591 O603 1.249 . S
C591 O604 1.244 . S
O592 Eu583 2.373 . S
O592 C594 1.258 . S
O593 Eu582 2.392 . S
O593 C594 1.242 . S
C594 O592 1.258 . S
C594 O593 1.242 . S
O595 Eu582 2.418 . S
O595 C599 1.244 . S
O596 Eu583 2.488 . S
O596 C612 1.249 . S
O597 Eu583 2.471 . S
O597 C612 1.244 . S
O598 Eu583 2.349 . S
O598 C599 1.265 . S
C599 O595 1.244 . S
C599 O598 1.265 . S
O600 Eu582 2.373 . S
O600 C613 1.258 . S
O601 Eu583 2.392 . S
O601 C613 1.242 . S
O602 Eu583 2.418 . S
O602 C584 1.244 . S
O603 Eu582 2.488 . S
O603 C591 1.249 . S
O604 Eu582 2.471 . S
O604 C591 1.244 . S
O605 Eu582 2.349 . S
O605 C584 1.265 . S
C606 C607 1.379 . S
C606 C610 1.373 . S
C606 C612 1.505 . S
C607 C606 1.379 . S
C607 C609 1.369 . S
C607 H618 0.930 . S
C608 C610 1.383 . S
C608 C611 1.382 . S
C608 H619 0.930 . S
C609 C607 1.369 . S
C609 C611 1.392 . S
C609 H620 0.930 . S
C610 C606 1.373 . S
C610 C608 1.383 . S
C610 H621 0.931 . S
C611 C608 1.382 . S
C611 C609 1.392 . S
C612 Eu583 2.828 . S
C612 O596 1.249 . S
C612 O597 1.244 . S
C612 C606 1.505 . S
C613 O600 1.258 . S
C613 O601 1.242 . S
H614 C586 0.930 . S
H615 C587 0.930 . S
H616 C588 0.930 . S
H617 C589 0.931 . S
H618 C607 0.930 . S
H619 C608 0.930 . S
H620 C609 0.930 . S
H621 C610 0.931 . S
Eu622 C631 2.828 . S
Eu622 O633 2.392 . S
Eu622 O635 2.418 . S
Eu622 O640 2.373 . S
Eu622 O643 2.488 . S
Eu622 O644 2.471 . S
Eu622 O645 2.349 . S
Eu623 O632 2.373 . S
Eu623 O636 2.488 . S
Eu623 O637 2.471 . S
Eu623 O638 2.349 . S
Eu623 O641 2.392 . S
Eu623 O642 2.418 . S
Eu623 C652 2.828 . S
C624 O642 1.244 . S
C624 O645 1.265 . S
C625 C626 1.379 . S
C625 C629 1.373 . S
C625 C631 1.505 . S
C626 C625 1.379 . S
C626 C628 1.369 . S
C626 H654 0.930 . S
C627 C629 1.383 . S
C627 C630 1.382 . S
C627 H655 0.930 . S
C628 C626 1.369 . S
C628 C630 1.392 . S
C628 H656 0.930 . S
C629 C625 1.373 . S
C629 C627 1.383 . S
C629 H657 0.931 . S
C630 C627 1.382 . S
C630 C628 1.392 . S
C631 Eu622 2.828 . S
C631 C625 1.505 . S
C631 O643 1.249 . S
C631 O644 1.244 . S
O632 Eu623 2.373 . S
O632 C634 1.258 . S
O633 Eu622 2.392 . S
O633 C634 1.242 . S
C634 O632 1.258 . S
C634 O633 1.242 . S
O635 Eu622 2.418 . S
O635 C639 1.244 . S
O636 Eu623 2.488 . S
O636 C652 1.249 . S
O637 Eu623 2.471 . S
O637 C652 1.244 . S
O638 Eu623 2.349 . S
O638 C639 1.265 . S
C639 O635 1.244 . S
C639 O638 1.265 . S
O640 Eu622 2.373 . S
O640 C653 1.258 . S
O641 Eu623 2.392 . S
O641 C653 1.242 . S
O642 Eu623 2.418 . S
O642 C624 1.244 . S
O643 Eu622 2.488 . S
O643 C631 1.249 . S
O644 Eu622 2.471 . S
O644 C631 1.244 . S
O645 Eu622 2.349 . S
O645 C624 1.265 . S
C646 C647 1.379 . S
C646 C650 1.373 . S
C646 C652 1.505 . S
C647 C646 1.379 . S
C647 C649 1.369 . S
C647 H658 0.930 . S
C648 C650 1.383 . S
C648 C651 1.382 . S
C648 H659 0.930 . S
C649 C647 1.369 . S
C649 C651 1.392 . S
C649 H660 0.930 . S
C650 C646 1.373 . S
C650 C648 1.383 . S
C650 H661 0.931 . S
C651 C648 1.382 . S
C651 C649 1.392 . S
C652 Eu623 2.828 . S
C652 O636 1.249 . S
C652 O637 1.244 . S
C652 C646 1.505 . S
C653 O640 1.258 . S
C653 O641 1.242 . S
H654 C626 0.930 . S
H655 C627 0.930 . S
H656 C628 0.930 . S
H657 C629 0.931 . S
H658 C647 0.930 . S
H659 C648 0.930 . S
H660 C649 0.930 . S
H661 C650 0.931 . S
Eu662 C671 2.828 . S
Eu662 O673 2.392 . S
Eu662 O675 2.418 . S
Eu662 O680 2.373 . S
Eu662 O683 2.488 . S
Eu662 O684 2.471 . S
Eu662 O685 2.349 . S
Eu663 O672 2.373 . S
Eu663 O676 2.488 . S
Eu663 O677 2.471 . S
Eu663 O678 2.349 . S
Eu663 O681 2.392 . S
Eu663 O682 2.418 . S
Eu663 C692 2.828 . S
C664 O682 1.244 . S
C664 O685 1.265 . S
C665 C666 1.379 . S
C665 C669 1.373 . S
C665 C671 1.505 . S
C666 C665 1.379 . S
C666 C668 1.369 . S
C666 H694 0.930 . S
C667 C669 1.383 . S
C667 C670 1.382 . S
C667 H695 0.930 . S
C668 C666 1.369 . S
C668 C670 1.392 . S
C668 H696 0.930 . S
C669 C665 1.373 . S
C669 C667 1.383 . S
C669 H697 0.931 . S
C670 C667 1.382 . S
C670 C668 1.392 . S
C671 Eu662 2.828 . S
C671 C665 1.505 . S
C671 O683 1.249 . S
C671 O684 1.244 . S
O672 Eu663 2.373 . S
O672 C674 1.258 . S
O673 Eu662 2.392 . S
O673 C674 1.242 . S
C674 O672 1.258 . S
C674 O673 1.242 . S
O675 Eu662 2.418 . S
O675 C679 1.244 . S
O676 Eu663 2.488 . S
O676 C692 1.249 . S
O677 Eu663 2.471 . S
O677 C692 1.244 . S
O678 Eu663 2.349 . S
O678 C679 1.265 . S
C679 O675 1.244 . S
C679 O678 1.265 . S
O680 Eu662 2.373 . S
O680 C693 1.258 . S
O681 Eu663 2.392 . S
O681 C693 1.242 . S
O682 Eu663 2.418 . S
O682 C664 1.244 . S
O683 Eu662 2.488 . S
O683 C671 1.249 . S
O684 Eu662 2.471 . S
O684 C671 1.244 . S
O685 Eu662 2.349 . S
O685 C664 1.265 . S
C686 C687 1.379 . S
C686 C690 1.373 . S
C686 C692 1.505 . S
C687 C686 1.379 . S
C687 C689 1.369 . S
C687 H698 0.930 . S
C688 C690 1.383 . S
C688 C691 1.382 . S
C688 H699 0.930 . S
C689 C687 1.369 . S
C689 C691 1.392 . S
C689 H700 0.930 . S
C690 C686 1.373 . S
C690 C688 1.383 . S
C690 H701 0.931 . S
C691 C688 1.382 . S
C691 C689 1.392 . S
C692 Eu663 2.828 . S
C692 O676 1.249 . S
C692 O677 1.244 . S
C692 C686 1.505 . S
C693 O680 1.258 . S
C693 O681 1.242 . S
H694 C666 0.930 . S
H695 C667 0.930 . S
H696 C668 0.930 . S
H697 C669 0.931 . S
H698 C687 0.930 . S
H699 C688 0.930 . S
H700 C689 0.930 . S
H701 C690 0.931 . S
H702 C714 0.930 . S
H703 C716 0.930 . S
H704 C717 0.930 . S
H705 C721 0.959 . S
H706 C721 0.959 . S
H707 C721 0.961 . S
H708 C722 0.960 . S
H709 C722 0.961 . S
H710 C722 0.959 . S
H711 C725 0.929 . S
H712 C726 0.931 . S
H713 C728 0.930 . S
C714 H702 0.930 . S
C714 C715 1.399 . S
C714 C719 1.399 . S
C715 C714 1.399 . S
C715 C716 1.376 . S
C716 H703 0.930 . S
C716 C715 1.376 . S
C716 C717 1.388 . S
C717 H704 0.930 . S
C717 C716 1.388 . S
C717 C718 1.390 . S
C718 C717 1.390 . S
C718 C719 1.394 . S
C718 C724 1.465 . S
C719 C714 1.399 . S
C719 C718 1.394 . S
C719 C720 1.516 . S
C720 C719 1.516 . S
C720 C721 1.502 . S
C720 C722 1.561 1_554 S
C720 C723 1.526 . S
C721 H705 0.959 . S
C721 H706 0.959 . S
C721 H707 0.961 . S
C721 C720 1.502 . S
C722 H708 0.960 . S
C722 H709 0.961 . S
C722 H710 0.959 . S
C722 C720 1.561 1_556 S
C723 C720 1.526 . S
C723 C724 1.396 . S
C723 C728 1.390 . S
C724 C718 1.465 . S
C724 C723 1.396 . S
C724 C725 1.399 . S
C725 H711 0.929 . S
C725 C724 1.399 . S
C725 C726 1.385 . S
C726 H712 0.931 . S
C726 C725 1.385 . S
C726 C727 1.389 . S
C727 C726 1.389 . S
C727 C728 1.387 . S
C728 H713 0.930 . S
C728 C723 1.390 . S
C728 C727 1.387 . S
H729 C741 0.930 . S
H730 C743 0.930 . S
H731 C744 0.930 . S
H732 C748 0.959 . S
H733 C748 0.959 . S
H734 C748 0.961 . S
H735 C749 0.960 . S
H736 C749 0.961 . S
H737 C749 0.959 . S
H738 C752 0.929 . S
H739 C753 0.931 . S
H740 C755 0.930 . S
C741 H729 0.930 . S
C741 C742 1.399 . S
C741 C746 1.399 . S
C742 C741 1.399 . S
C742 C743 1.376 . S
C743 H730 0.930 . S
C743 C742 1.376 . S
C743 C744 1.388 . S
C744 H731 0.930 . S
C744 C743 1.388 . S
C744 C745 1.390 . S
C745 C744 1.390 . S
C745 C746 1.394 . S
C745 C751 1.465 . S
C746 C741 1.399 . S
C746 C745 1.394 . S
C746 C747 1.516 . S
C747 C746 1.516 . S
C747 C748 1.502 . S
C747 C749 1.561 . S
C747 C750 1.526 . S
C748 H732 0.959 . S
C748 H733 0.959 . S
C748 H734 0.961 . S
C748 C747 1.502 . S
C749 H735 0.960 . S
C749 H736 0.961 . S
C749 H737 0.959 . S
C749 C747 1.561 . S
C750 C747 1.526 . S
C750 C751 1.396 . S
C750 C755 1.390 . S
C751 C745 1.465 . S
C751 C750 1.396 . S
C751 C752 1.399 . S
C752 H738 0.929 . S
C752 C751 1.399 . S
C752 C753 1.385 . S
C753 H739 0.931 . S
C753 C752 1.385 . S
C753 C754 1.389 . S
C754 C753 1.389 . S
C754 C755 1.387 . S
C755 H740 0.930 . S
C755 C750 1.390 . S
C755 C754 1.387 . S
H756 C768 0.930 . S
H757 C770 0.913 1_556 S
H758 C771 0.930 1_556 S
H759 C775 0.959 . S
H760 C775 0.959 . S
H761 C775 0.961 . S
H762 C776 0.960 . S
H763 C776 0.961 . S
H764 C776 0.959 . S
H765 C779 0.929 . S
H766 C780 0.931 . S
H767 C782 0.930 . S
C768 H756 0.930 . S
C768 C769 1.399 . S
C768 C773 1.399 . S
C769 C768 1.399 . S
C769 C770 1.376 . S
C770 H757 0.913 1_554 S
C770 C769 1.376 . S
C770 C771 1.388 . S
C771 H758 0.930 1_554 S
C771 C770 1.388 . S
C771 C772 1.390 . S
C772 C771 1.390 . S
C772 C773 1.394 . S
C772 C778 1.465 . S
C773 C768 1.399 . S
C773 C772 1.394 . S
C773 C774 1.516 . S
C774 C773 1.516 . S
C774 C775 1.502 . S
C774 C776 1.561 . S
C774 C777 1.526 . S
C775 H759 0.959 . S
C775 H760 0.959 . S
C775 H761 0.961 . S
C775 C774 1.502 . S
C776 H762 0.960 . S
C776 H763 0.961 . S
C776 H764 0.959 . S
C776 C774 1.561 . S
C777 C774 1.526 . S
C777 C778 1.396 . S
C777 C782 1.390 . S
C778 C772 1.465 . S
C778 C777 1.396 . S
C778 C779 1.399 1_554 S
C779 H765 0.929 . S
C779 C778 1.399 1_556 S
C779 C780 1.385 . S
C780 H766 0.931 . S
C780 C779 1.385 . S
C780 C781 1.389 1_556 S
C781 C780 1.389 1_554 S
C781 C782 1.387 . S
C782 H767 0.930 . S
C782 C777 1.390 . S
C782 C781 1.387 . S
H783 C795 0.930 . S
H784 C797 0.930 1_554 S
H785 C798 0.930 . S
H786 C802 0.959 . S
H787 C802 0.959 . S
H788 C802 0.961 . S
H789 C803 0.960 . S
H790 C803 0.961 . S
H791 C803 0.959 . S
H792 C806 0.929 . S
H793 C807 0.931 . S
H794 C809 0.930 . S
C795 H783 0.930 . S
C795 C796 1.399 . S
C795 C800 1.399 . S
C796 C795 1.399 . S
C796 C797 1.376 . S
C797 H784 0.930 1_556 S
C797 C796 1.376 . S
C797 C798 1.388 1_556 S
C798 H785 0.930 . S
C798 C797 1.388 1_554 S
C798 C799 1.390 1_554 S
C799 C798 1.390 1_556 S
C799 C800 1.394 . S
C799 C805 1.465 . S
C800 C795 1.399 . S
C800 C799 1.394 . S
C800 C801 1.516 . S
C801 C800 1.516 . S
C801 C802 1.502 . S
C801 C803 1.561 . S
C801 C804 1.526 . S
C802 H786 0.959 . S
C802 H787 0.959 . S
C802 H788 0.961 . S
C802 C801 1.502 . S
C803 H789 0.960 . S
C803 H790 0.961 . S
C803 H791 0.959 . S
C803 C801 1.561 . S
C804 C801 1.526 . S
C804 C805 1.396 . S
C804 C809 1.390 . S
C805 C799 1.465 . S
C805 C804 1.396 . S
C805 C806 1.399 1_556 S
C806 H792 0.929 . S
C806 C805 1.399 1_554 S
C806 C807 1.385 . S
C807 H793 0.931 . S
C807 C806 1.385 . S
C807 C808 1.389 1_554 S
C808 C807 1.389 1_556 S
C808 C809 1.387 . S
C809 H794 0.930 . S
C809 C804 1.390 . S
C809 C808 1.387 . S
H810 C822 0.930 . S
H811 C824 0.930 . S
H812 C825 0.930 . S
H813 C829 0.959 . S
H814 C829 0.959 . S
H815 C829 0.961 . S
H816 C830 0.960 . S
H817 C830 0.961 . S
H818 C830 0.959 . S
H819 C833 0.929 . S
H820 C834 0.931 . S
H821 C836 0.930 . S
C822 H810 0.930 . S
C822 C823 1.399 . S
C822 C827 1.399 . S
C823 C822 1.399 . S
C823 C824 1.376 . S
C824 H811 0.930 . S
C824 C823 1.376 . S
C824 C825 1.388 . S
C825 H812 0.930 . S
C825 C824 1.388 . S
C825 C826 1.390 . S
C826 C825 1.390 . S
C826 C827 1.394 . S
C826 C832 1.465 . S
C827 C822 1.399 . S
C827 C826 1.394 . S
C827 C828 1.516 . S
C828 C827 1.516 . S
C828 C829 1.502 . S
C828 C830 1.561 . S
C828 C831 1.526 . S
C829 H813 0.959 . S
C829 H814 0.959 . S
C829 H815 0.961 . S
C829 C828 1.502 . S
C830 H816 0.960 . S
C830 H817 0.961 . S
C830 H818 0.959 . S
C830 C828 1.561 . S
C831 C828 1.526 . S
C831 C832 1.396 . S
C831 C836 1.390 . S
C832 C826 1.465 . S
C832 C831 1.396 . S
C832 C833 1.399 . S
C833 H819 0.929 . S
C833 C832 1.399 . S
C833 C834 1.385 . S
C834 H820 0.931 . S
C834 C833 1.385 . S
C834 C835 1.389 . S
C835 C834 1.389 . S
C835 C836 1.387 . S
C836 H821 0.930 . S
C836 C831 1.390 . S
C836 C835 1.387 . S
H837 C849 0.953 . S
H838 C851 0.930 . S
H839 C852 0.930 . S
H840 C856 0.959 . S
H841 C856 0.959 . S
H842 C856 0.961 . S
H843 C857 0.960 . S
H844 C857 0.961 . S
H845 C857 0.959 . S
H846 C860 0.929 . S
H847 C861 0.931 . S
H848 C863 0.930 . S
C849 H837 0.953 . S
C849 C850 1.375 1_554 S
C849 C854 1.400 1_554 S
C850 C849 1.375 1_556 S
C850 C851 1.376 . S
C851 H838 0.930 . S
C851 C850 1.376 . S
C851 C852 1.388 . S
C852 H839 0.930 . S
C852 C851 1.388 . S
C852 C853 1.390 . S
C853 C852 1.390 . S
C853 C854 1.395 . S
C853 C859 1.465 . S
C854 C849 1.400 1_556 S
C854 C853 1.395 . S
C854 C855 1.515 1_556 S
C855 C854 1.515 1_554 S
C855 C856 1.502 . S
C855 C857 1.561 . S
C855 C858 1.526 . S
C856 H840 0.959 . S
C856 H841 0.959 . S
C856 H842 0.961 . S
C856 C855 1.502 . S
C857 H843 0.960 . S
C857 H844 0.961 . S
C857 H845 0.959 . S
C857 C855 1.561 . S
C858 C855 1.526 . S
C858 C859 1.396 1_554 S
C858 C863 1.390 . S
C859 C853 1.465 . S
C859 C858 1.396 1_556 S
C859 C860 1.399 . S
C860 H846 0.929 . S
C860 C859 1.399 . S
C860 C861 1.385 . S
C861 H847 0.931 . S
C861 C860 1.385 . S
C861 C862 1.389 . S
C862 C861 1.389 . S
C862 C863 1.387 1_556 S
C863 H848 0.930 . S
C863 C858 1.390 . S
C863 C862 1.387 1_554 S
H864 C876 0.930 . S
H865 C878 0.921 1_554 S
H866 C879 0.930 . S
H867 C883 0.959 . S
H868 C883 0.959 . S
H869 C883 0.961 . S
H870 C884 0.960 . S
H871 C884 0.961 . S
H872 C884 0.959 . S
H873 C887 0.929 . S
H874 C888 0.931 . S
H875 C890 0.930 . S
C876 H864 0.930 . S
C876 C877 1.399 . S
C876 C881 1.399 . S
C877 C876 1.399 . S
C877 C878 1.392 . S
C878 H865 0.921 1_556 S
C878 C877 1.392 . S
C878 C879 1.382 1_556 S
C879 H866 0.930 . S
C879 C878 1.382 1_554 S
C879 C880 1.390 1_554 S
C880 C879 1.390 1_556 S
C880 C881 1.394 . S
C880 C886 1.465 . S
C881 C876 1.399 . S
C881 C880 1.394 . S
C881 C882 1.516 . S
C882 C881 1.516 . S
C882 C883 1.502 . S
C882 C884 1.561 . S
C882 C885 1.526 . S
C883 H867 0.959 . S
C883 H868 0.959 . S
C883 H869 0.961 . S
C883 C882 1.502 . S
C884 H870 0.960 . S
C884 H871 0.961 . S
C884 H872 0.959 . S
C884 C882 1.561 . S
C885 C882 1.526 . S
C885 C886 1.396 . S
C885 C890 1.390 . S
C886 C880 1.465 . S
C886 C885 1.396 . S
C886 C887 1.399 1_556 S
C887 H873 0.929 . S
C887 C886 1.399 1_554 S
C887 C888 1.385 . S
C888 H874 0.931 . S
C888 C887 1.385 . S
C888 C889 1.389 1_554 S
C889 C888 1.389 1_556 S
C889 C890 1.387 . S
C890 H875 0.930 . S
C890 C885 1.390 . S
C890 C889 1.387 . S
H891 C903 0.930 . S
H892 C905 0.930 . S
H893 C906 0.930 1_554 S
H894 C910 0.959 . S
H895 C910 0.959 . S
H896 C910 0.961 . S
H897 C911 0.960 . S
H898 C911 0.961 . S
H899 C911 0.959 . S
H900 C914 0.929 1_554 S
H901 C915 0.931 1_554 S
H902 C917 0.930 . S
C903 H891 0.930 . S
C903 C904 1.399 . S
C903 C908 1.399 . S
C904 C903 1.399 . S
C904 C905 1.376 . S
C905 H892 0.930 . S
C905 C904 1.376 . S
C905 C906 1.388 . S
C906 H893 0.930 1_556 S
C906 C905 1.388 . S
C906 C907 1.390 . S
C907 C906 1.390 . S
C907 C908 1.394 . S
C907 C913 1.465 . S
C908 C903 1.399 . S
C908 C907 1.394 . S
C908 C909 1.516 . S
C909 C908 1.516 . S
C909 C910 1.502 . S
C909 C911 1.561 . S
C909 C912 1.526 . S
C910 H894 0.959 . S
C910 H895 0.959 . S
C910 H896 0.961 . S
C910 C909 1.502 . S
C911 H897 0.960 . S
C911 H898 0.961 . S
C911 H899 0.959 . S
C911 C909 1.561 . S
C912 C909 1.526 . S
C912 C913 1.396 . S
C912 C917 1.390 . S
C913 C907 1.465 . S
C913 C912 1.396 . S
C913 C914 1.399 . S
C914 H900 0.929 1_556 S
C914 C913 1.399 . S
C914 C915 1.385 . S
C915 H901 0.931 1_556 S
C915 C914 1.385 . S
C915 C916 1.389 . S
C916 C915 1.389 . S
C916 C917 1.387 . S
C917 H902 0.930 . S
C917 C912 1.390 . S
C917 C916 1.387 . S
H918 C930 0.930 . S
H919 C932 0.930 . S
H920 C933 0.930 . S
H921 C937 0.959 . S
H922 C937 0.959 . S
H923 C937 0.961 . S
H924 C938 0.960 . S
H925 C938 0.961 . S
H926 C938 0.959 . S
H927 C941 0.929 . S
H928 C942 0.931 . S
H929 C944 0.930 . S
C930 H918 0.930 . S
C930 C931 1.399 1_556 S
C930 C935 1.399 . S
C931 C930 1.399 1_554 S
C931 C932 1.376 . S
C932 H919 0.930 . S
C932 C931 1.376 . S
C932 C933 1.388 . S
C933 H920 0.930 . S
C933 C932 1.388 . S
C933 C934 1.390 . S
C934 C933 1.390 . S
C934 C935 1.394 1_554 S
C934 C940 1.465 . S
C935 C930 1.399 . S
C935 C934 1.394 1_556 S
C935 C936 1.516 . S
C936 C935 1.516 . S
C936 C937 1.502 . S
C936 C938 1.561 . S
C936 C939 1.526 . S
C937 H921 0.959 . S
C937 H922 0.959 . S
C937 H923 0.961 . S
C937 C936 1.502 . S
C938 H924 0.960 . S
C938 H925 0.961 . S
C938 H926 0.959 . S
C938 C936 1.561 . S
C939 C936 1.526 . S
C939 C940 1.396 1_556 S
C939 C944 1.390 . S
C940 C934 1.465 . S
C940 C939 1.396 1_554 S
C940 C941 1.399 . S
C941 H927 0.929 . S
C941 C940 1.399 . S
C941 C942 1.385 . S
C942 H928 0.931 . S
C942 C941 1.385 . S
C942 C943 1.389 . S
C943 C942 1.389 . S
C943 C944 1.387 1_554 S
C944 H929 0.930 . S
C944 C939 1.390 . S
C944 C943 1.387 1_556 S
H945 C957 0.930 . S
H946 C959 0.930 1_556 S
H947 C960 0.930 . S
H948 C964 0.959 . S
H949 C964 0.959 . S
H950 C964 0.961 . S
H951 C965 0.960 . S
H952 C965 0.961 . S
H953 C965 0.959 . S
H954 C968 0.929 . S
H955 C969 0.931 . S
H956 C971 0.930 . S
C957 H945 0.930 . S
C957 C958 1.399 . S
C957 C962 1.399 . S
C958 C957 1.399 . S
C958 C959 1.377 . S
C959 H946 0.930 1_554 S
C959 C958 1.377 . S
C959 C960 1.388 1_554 S
C960 H947 0.930 . S
C960 C959 1.388 1_556 S
C960 C961 1.390 1_556 S
C961 C960 1.390 1_554 S
C961 C962 1.394 . S
C961 C967 1.465 . S
C962 C957 1.399 . S
C962 C961 1.394 . S
C962 C963 1.516 . S
C963 C962 1.516 . S
C963 C964 1.502 . S
C963 C965 1.561 . S
C963 C966 1.526 . S
C964 H948 0.959 . S
C964 H949 0.959 . S
C964 H950 0.961 . S
C964 C963 1.502 . S
C965 H951 0.960 . S
C965 H952 0.961 . S
C965 H953 0.959 . S
C965 C963 1.561 . S
C966 C963 1.526 . S
C966 C967 1.396 . S
C966 C971 1.390 . S
C967 C961 1.465 . S
C967 C966 1.396 . S
C967 C968 1.399 1_554 S
C968 H954 0.929 . S
C968 C967 1.399 1_556 S
C968 C969 1.385 . S
C969 H955 0.931 . S
C969 C968 1.385 . S
C969 C970 1.389 1_556 S
C970 C969 1.389 1_554 S
C970 C971 1.387 . S
C971 H956 0.930 . S
C971 C966 1.390 . S
C971 C970 1.387 . S
H972 C984 0.930 . S
H973 C986 0.930 . S
H974 C987 0.930 . S
H975 C991 0.959 . S
H976 C991 0.959 . S
H977 C991 0.961 . S
H978 C992 0.960 . S
H979 C992 0.961 . S
H980 C992 0.959 . S
H981 C995 0.929 . S
H982 C996 0.931 . S
H983 C998 0.930 . S
C984 H972 0.930 . S
C984 C985 1.399 . S
C984 C989 1.399 . S
C985 C984 1.399 . S
C985 C986 1.376 . S
C986 H973 0.930 . S
C986 C985 1.376 . S
C986 C987 1.388 . S
C987 H974 0.930 . S
C987 C986 1.388 . S
C987 C988 1.390 . S
C988 C987 1.390 . S
C988 C989 1.394 . S
C988 C994 1.465 . S
C989 C984 1.399 . S
C989 C988 1.394 . S
C989 C990 1.516 . S
C990 C989 1.516 . S
C990 C991 1.502 . S
C990 C992 1.561 . S
C990 C993 1.526 . S
C991 H975 0.959 . S
C991 H976 0.959 . S
C991 H977 0.961 . S
C991 C990 1.502 . S
C992 H978 0.960 . S
C992 H979 0.961 . S
C992 H980 0.959 . S
C992 C990 1.561 . S
C993 C990 1.526 . S
C993 C994 1.396 . S
C993 C998 1.390 . S
C994 C988 1.465 . S
C994 C993 1.396 . S
C994 C995 1.399 . S
C995 H981 0.929 . S
C995 C994 1.399 . S
C995 C996 1.385 . S
C996 H982 0.931 . S
C996 C995 1.385 . S
C996 C997 1.389 . S
C997 C996 1.389 . S
C997 C998 1.387 . S
C998 H983 0.930 . S
C998 C993 1.390 . S
C998 C997 1.387 . S
H999 C1011 0.879 1_556 S
H1000 C1013 0.930 . S
H1001 C1014 0.930 . S
H1002 C1018 0.959 . S
H1003 C1018 0.959 . S
H1004 C1018 0.961 . S
H1005 C1019 0.960 . S
H1006 C1019 0.961 . S
H1007 C1019 0.959 . S
H1008 C1022 0.929 . S
H1009 C1023 0.931 . S
H1010 C1025 0.930 . S
C1011 H999 0.879 1_554 S
C1011 C1012 1.444 . S
C1011 C1016 1.408 . S
C1012 C1011 1.444 . S
C1012 C1013 1.376 . S
C1013 H1000 0.930 . S
C1013 C1012 1.376 . S
C1013 C1014 1.388 . S
C1014 H1001 0.930 . S
C1014 C1013 1.388 . S
C1014 C1015 1.390 . S
C1015 C1014 1.390 . S
C1015 C1016 1.394 . S
C1015 C1021 1.465 . S
C1016 C1011 1.408 . S
C1016 C1015 1.394 . S
C1016 C1017 1.516 1_554 S
C1017 C1016 1.516 1_556 S
C1017 C1018 1.502 . S
C1017 C1019 1.561 . S
C1017 C1020 1.503 1_556 S
C1018 H1002 0.959 . S
C1018 H1003 0.959 . S
C1018 H1004 0.961 . S
C1018 C1017 1.502 . S
C1019 H1005 0.960 . S
C1019 H1006 0.961 . S
C1019 H1007 0.959 . S
C1019 C1017 1.561 . S
C1020 C1017 1.503 1_554 S
C1020 C1021 1.438 . S
C1020 C1025 1.378 1_554 S
C1021 C1015 1.465 . S
C1021 C1020 1.438 . S
C1021 C1022 1.399 . S
C1022 H1008 0.929 . S
C1022 C1021 1.399 . S
C1022 C1023 1.385 . S
C1023 H1009 0.931 . S
C1023 C1022 1.385 . S
C1023 C1024 1.389 . S
C1024 C1023 1.389 . S
C1024 C1025 1.387 1_554 S
C1025 H1010 0.930 . S
C1025 C1020 1.378 1_556 S
C1025 C1024 1.387 1_556 S
H1026 C1038 0.930 . S
H1027 C1040 0.930 . S
H1028 C1041 0.930 . S
H1029 C1045 0.951 1_655 S
H1030 C1045 0.959 . S
H1031 C1045 0.961 1_655 S
H1032 C1046 0.960 . S
H1033 C1046 0.961 . S
H1034 C1046 0.959 . S
H1035 C1049 0.929 1_655 S
H1036 C1050 0.931 . S
H1037 C1052 0.930 . S
C1038 H1026 0.930 . S
C1038 C1039 1.399 . S
C1038 C1043 1.399 . S
C1039 C1038 1.399 . S
C1039 C1040 1.376 . S
C1040 H1027 0.930 . S
C1040 C1039 1.376 . S
C1040 C1041 1.388 . S
C1041 H1028 0.930 . S
C1041 C1040 1.388 . S
C1041 C1042 1.390 . S
C1042 C1041 1.390 . S
C1042 C1043 1.394 . S
C1042 C1048 1.465 . S
C1043 C1038 1.399 . S
C1043 C1042 1.394 . S
C1043 C1044 1.516 1_655 S
C1044 C1043 1.516 1_455 S
C1044 C1045 1.502 . S
C1044 C1046 1.561 . S
C1044 C1047 1.526 . S
C1045 H1029 0.951 1_455 S
C1045 H1030 0.959 . S
C1045 H1031 0.961 1_455 S
C1045 C1044 1.502 . S
C1046 H1032 0.960 . S
C1046 H1033 0.961 . S
C1046 H1034 0.959 . S
C1046 C1044 1.561 . S
C1047 C1044 1.526 . S
C1047 C1048 1.396 1_455 S
C1047 C1052 1.390 . S
C1048 C1042 1.465 . S
C1048 C1047 1.396 1_655 S
C1048 C1049 1.399 1_655 S
C1049 H1035 0.929 1_455 S
C1049 C1048 1.399 1_455 S
C1049 C1050 1.385 . S
C1050 H1036 0.931 . S
C1050 C1049 1.385 . S
C1050 C1051 1.389 . S
C1051 C1050 1.389 . S
C1051 C1052 1.387 . S
C1052 H1037 0.930 . S
C1052 C1047 1.390 . S
C1052 C1051 1.387 . S
H1053 C1065 0.930 . S
H1054 C1067 0.930 . S
H1055 C1068 0.930 . S
H1056 C1072 0.959 . S
H1057 C1072 0.959 . S
H1058 C1072 0.961 . S
H1059 C1073 0.960 . S
H1060 C1073 0.961 . S
H1061 C1073 0.959 . S
H1062 C1076 0.929 . S
H1063 C1077 0.931 . S
H1064 C1079 0.930 . S
C1065 H1053 0.930 . S
C1065 C1066 1.399 . S
C1065 C1070 1.399 . S
C1066 C1065 1.399 . S
C1066 C1067 1.376 . S
C1067 H1054 0.930 . S
C1067 C1066 1.376 . S
C1067 C1068 1.388 . S
C1068 H1055 0.930 . S
C1068 C1067 1.388 . S
C1068 C1069 1.390 . S
C1069 C1068 1.390 . S
C1069 C1070 1.394 . S
C1069 C1075 1.465 . S
C1070 C1065 1.399 . S
C1070 C1069 1.394 . S
C1070 C1071 1.516 . S
C1071 C1070 1.516 . S
C1071 C1072 1.502 . S
C1071 C1073 1.561 . S
C1071 C1074 1.526 . S
C1072 H1056 0.959 . S
C1072 H1057 0.959 . S
C1072 H1058 0.961 . S
C1072 C1071 1.502 . S
C1073 H1059 0.960 . S
C1073 H1060 0.961 . S
C1073 H1061 0.959 . S
C1073 C1071 1.561 . S
C1074 C1071 1.526 . S
C1074 C1075 1.396 . S
C1074 C1079 1.390 . S
C1075 C1069 1.465 . S
C1075 C1074 1.396 . S
C1075 C1076 1.399 . S
C1076 H1062 0.929 . S
C1076 C1075 1.399 . S
C1076 C1077 1.385 . S
C1077 H1063 0.931 . S
C1077 C1076 1.385 . S
C1077 C1078 1.389 . S
C1078 C1077 1.389 . S
C1078 C1079 1.387 . S
C1079 H1064 0.930 . S
C1079 C1074 1.390 . S
C1079 C1078 1.387 . S
H1080 C1092 0.930 . S
H1081 C1094 0.930 . S
H1082 C1095 0.930 . S
H1083 C1099 0.959 . S
H1084 C1099 0.959 . S
H1085 C1099 0.961 . S
H1086 C1100 0.960 . S
H1087 C1100 0.961 . S
H1088 C1100 0.959 . S
H1089 C1103 0.929 . S
H1090 C1104 0.931 . S
H1091 C1106 0.930 . S
C1092 H1080 0.930 . S
C1092 C1093 1.399 . S
C1092 C1097 1.399 . S
C1093 C1092 1.399 . S
C1093 C1094 1.376 . S
C1094 H1081 0.930 . S
C1094 C1093 1.376 . S
C1094 C1095 1.388 . S
C1095 H1082 0.930 . S
C1095 C1094 1.388 . S
C1095 C1096 1.390 . S
C1096 C1095 1.390 . S
C1096 C1097 1.394 . S
C1096 C1102 1.465 . S
C1097 C1092 1.399 . S
C1097 C1096 1.394 . S
C1097 C1098 1.516 . S
C1098 C1097 1.516 . S
C1098 C1099 1.502 . S
C1098 C1100 1.561 . S
C1098 C1101 1.526 . S
C1099 H1083 0.959 . S
C1099 H1084 0.959 . S
C1099 H1085 0.961 . S
C1099 C1098 1.502 . S
C1100 H1086 0.960 . S
C1100 H1087 0.961 . S
C1100 H1088 0.959 . S
C1100 C1098 1.561 . S
C1101 C1098 1.526 . S
C1101 C1102 1.396 . S
C1101 C1106 1.390 1_545 S
C1102 C1096 1.465 . S
C1102 C1101 1.396 . S
C1102 C1103 1.399 1_545 S
C1103 H1089 0.929 . S
C1103 C1102 1.399 1_565 S
C1103 C1104 1.385 . S
C1104 H1090 0.931 . S
C1104 C1103 1.385 . S
C1104 C1105 1.389 . S
C1105 C1104 1.389 . S
C1105 C1106 1.387 . S
C1106 H1091 0.930 . S
C1106 C1101 1.390 1_565 S
C1106 C1105 1.387 . S
H1107 C1119 0.930 . S
H1108 C1121 0.930 . S
H1109 C1122 0.930 . S
H1110 C1126 0.959 . S
H1111 C1126 0.959 . S
H1112 C1126 0.961 . S
H1113 C1127 0.960 . S
H1114 C1127 0.961 . S
H1115 C1127 0.959 . S
H1116 C1130 0.929 . S
H1117 C1131 0.931 . S
H1118 C1133 0.930 . S
C1119 H1107 0.930 . S
C1119 C1120 1.399 . S
C1119 C1124 1.399 . S
C1120 C1119 1.399 . S
C1120 C1121 1.376 . S
C1121 H1108 0.930 . S
C1121 C1120 1.376 . S
C1121 C1122 1.388 . S
C1122 H1109 0.930 . S
C1122 C1121 1.388 . S
C1122 C1123 1.390 . S
C1123 C1122 1.390 . S
C1123 C1124 1.394 . S
C1123 C1129 1.465 . S
C1124 C1119 1.399 . S
C1124 C1123 1.394 . S
C1124 C1125 1.516 . S
C1125 C1124 1.516 . S
C1125 C1126 1.502 . S
C1125 C1127 1.561 . S
C1125 C1128 1.526 . S
C1126 H1110 0.959 . S
C1126 H1111 0.959 . S
C1126 H1112 0.961 . S
C1126 C1125 1.502 . S
C1127 H1113 0.960 . S
C1127 H1114 0.961 . S
C1127 H1115 0.959 . S
C1127 C1125 1.561 . S
C1128 C1125 1.526 . S
C1128 C1129 1.396 . S
C1128 C1133 1.390 . S
C1129 C1123 1.465 . S
C1129 C1128 1.396 . S
C1129 C1130 1.399 . S
C1130 H1116 0.929 . S
C1130 C1129 1.399 . S
C1130 C1131 1.385 . S
C1131 H1117 0.931 . S
C1131 C1130 1.385 . S
C1131 C1132 1.389 . S
C1132 C1131 1.389 . S
C1132 C1133 1.387 . S
C1133 H1118 0.930 . S
C1133 C1128 1.390 . S
C1133 C1132 1.387 . S
H1134 C1146 0.930 . S
H1135 C1148 0.930 . S
H1136 C1149 0.930 . S
H1137 C1153 0.959 . S
H1138 C1153 0.959 . S
H1139 C1153 0.961 . S
H1140 C1154 0.960 . S
H1141 C1154 0.961 . S
H1142 C1154 0.959 . S
H1143 C1157 0.929 . S
H1144 C1158 0.931 . S
H1145 C1160 0.930 . S
C1146 H1134 0.930 . S
C1146 C1147 1.399 . S
C1146 C1151 1.399 . S
C1147 C1146 1.399 . S
C1147 C1148 1.376 . S
C1148 H1135 0.930 . S
C1148 C1147 1.376 . S
C1148 C1149 1.388 . S
C1149 H1136 0.930 . S
C1149 C1148 1.388 . S
C1149 C1150 1.390 . S
C1150 C1149 1.390 . S
C1150 C1151 1.394 . S
C1150 C1156 1.465 . S
C1151 C1146 1.399 . S
C1151 C1150 1.394 . S
C1151 C1152 1.516 . S
C1152 C1151 1.516 . S
C1152 C1153 1.502 . S
C1152 C1154 1.561 . S
C1152 C1155 1.526 . S
C1153 H1137 0.959 . S
C1153 H1138 0.959 . S
C1153 H1139 0.961 . S
C1153 C1152 1.502 . S
C1154 H1140 0.960 . S
C1154 H1141 0.961 . S
C1154 H1142 0.959 . S
C1154 C1152 1.561 . S
C1155 C1152 1.526 . S
C1155 C1156 1.396 . S
C1155 C1160 1.390 . S
C1156 C1150 1.465 . S
C1156 C1155 1.396 . S
C1156 C1157 1.399 . S
C1157 H1143 0.929 . S
C1157 C1156 1.399 . S
C1157 C1158 1.385 . S
C1158 H1144 0.931 . S
C1158 C1157 1.385 . S
C1158 C1159 1.389 . S
C1159 C1158 1.389 . S
C1159 C1160 1.387 . S
C1160 H1145 0.930 . S
C1160 C1155 1.390 . S
C1160 C1159 1.387 . S
H1161 C1173 0.930 . S
H1162 C1175 0.930 . S
H1163 C1176 0.930 . S
H1164 C1180 0.959 . S
H1165 C1180 0.959 . S
H1166 C1180 0.961 . S
H1167 C1181 0.960 . S
H1168 C1181 0.961 . S
H1169 C1181 0.959 . S
H1170 C1184 0.929 . S
H1171 C1185 0.931 . S
H1172 C1187 0.930 . S
C1173 H1161 0.930 . S
C1173 C1174 1.399 . S
C1173 C1178 1.399 . S
C1174 C1173 1.399 . S
C1174 C1175 1.376 . S
C1175 H1162 0.930 . S
C1175 C1174 1.376 . S
C1175 C1176 1.388 . S
C1176 H1163 0.930 . S
C1176 C1175 1.388 . S
C1176 C1177 1.390 . S
C1177 C1176 1.390 . S
C1177 C1178 1.394 . S
C1177 C1183 1.465 . S
C1178 C1173 1.399 . S
C1178 C1177 1.394 . S
C1178 C1179 1.516 . S
C1179 C1178 1.516 . S
C1179 C1180 1.502 . S
C1179 C1181 1.561 . S
C1179 C1182 1.526 . S
C1180 H1164 0.959 . S
C1180 H1165 0.959 . S
C1180 H1166 0.961 . S
C1180 C1179 1.502 . S
C1181 H1167 0.960 . S
C1181 H1168 0.961 . S
C1181 H1169 0.959 . S
C1181 C1179 1.561 . S
C1182 C1179 1.526 . S
C1182 C1183 1.396 . S
C1182 C1187 1.390 . S
C1183 C1177 1.465 . S
C1183 C1182 1.396 . S
C1183 C1184 1.399 . S
C1184 H1170 0.929 . S
C1184 C1183 1.399 . S
C1184 C1185 1.385 . S
C1185 H1171 0.931 . S
C1185 C1184 1.385 . S
C1185 C1186 1.389 . S
C1186 C1185 1.389 . S
C1186 C1187 1.387 . S
C1187 H1172 0.930 . S
C1187 C1182 1.390 . S
C1187 C1186 1.387 . S
H1188 C1200 0.930 . S
H1189 C1202 0.930 . S
H1190 C1203 0.930 . S
H1191 C1207 0.959 . S
H1192 C1207 0.959 . S
H1193 C1207 0.961 . S
H1194 C1208 0.960 . S
H1195 C1208 0.961 . S
H1196 C1208 0.959 . S
H1197 C1211 0.929 . S
H1198 C1212 0.931 . S
H1199 C1214 0.930 . S
C1200 H1188 0.930 . S
C1200 C1201 1.399 . S
C1200 C1205 1.399 . S
C1201 C1200 1.399 . S
C1201 C1202 1.376 . S
C1202 H1189 0.930 . S
C1202 C1201 1.376 . S
C1202 C1203 1.388 . S
C1203 H1190 0.930 . S
C1203 C1202 1.388 . S
C1203 C1204 1.390 . S
C1204 C1203 1.390 . S
C1204 C1205 1.394 . S
C1204 C1210 1.465 . S
C1205 C1200 1.399 . S
C1205 C1204 1.394 . S
C1205 C1206 1.516 . S
C1206 C1205 1.516 . S
C1206 C1207 1.502 . S
C1206 C1208 1.561 . S
C1206 C1209 1.526 . S
C1207 H1191 0.959 . S
C1207 H1192 0.959 . S
C1207 H1193 0.961 . S
C1207 C1206 1.502 . S
C1208 H1194 0.960 . S
C1208 H1195 0.961 . S
C1208 H1196 0.959 . S
C1208 C1206 1.561 . S
C1209 C1206 1.526 . S
C1209 C1210 1.396 . S
C1209 C1214 1.390 . S
C1210 C1204 1.465 . S
C1210 C1209 1.396 . S
C1210 C1211 1.399 . S
C1211 H1197 0.929 . S
C1211 C1210 1.399 . S
C1211 C1212 1.385 . S
C1212 H1198 0.931 . S
C1212 C1211 1.385 . S
C1212 C1213 1.389 . S
C1213 C1212 1.389 . S
C1213 C1214 1.387 . S
C1214 H1199 0.930 . S
C1214 C1209 1.390 . S
C1214 C1213 1.387 . S
H1215 C1227 0.930 . S
H1216 C1229 0.930 . S
H1217 C1230 0.930 . S
H1218 C1234 0.959 . S
H1219 C1234 0.959 . S
H1220 C1234 0.961 . S
H1221 C1235 0.960 . S
H1222 C1235 0.961 . S
H1223 C1235 0.959 . S
H1224 C1238 0.929 . S
H1225 C1239 0.931 . S
H1226 C1241 0.930 . S
C1227 H1215 0.930 . S
C1227 C1228 1.399 . S
C1227 C1232 1.399 . S
C1228 C1227 1.399 . S
C1228 C1229 1.376 . S
C1229 H1216 0.930 . S
C1229 C1228 1.376 . S
C1229 C1230 1.388 . S
C1230 H1217 0.930 . S
C1230 C1229 1.388 . S
C1230 C1231 1.390 . S
C1231 C1230 1.390 . S
C1231 C1232 1.394 . S
C1231 C1237 1.465 . S
C1232 C1227 1.399 . S
C1232 C1231 1.394 . S
C1232 C1233 1.516 . S
C1233 C1232 1.516 . S
C1233 C1234 1.502 . S
C1233 C1235 1.561 . S
C1233 C1236 1.526 . S
C1234 H1218 0.959 . S
C1234 H1219 0.959 . S
C1234 H1220 0.961 . S
C1234 C1233 1.502 . S
C1235 H1221 0.960 . S
C1235 H1222 0.961 . S
C1235 H1223 0.959 . S
C1235 C1233 1.561 . S
C1236 C1233 1.526 . S
C1236 C1237 1.396 . S
C1236 C1241 1.390 . S
C1237 C1231 1.465 . S
C1237 C1236 1.396 . S
C1237 C1238 1.399 . S
C1238 H1224 0.929 . S
C1238 C1237 1.399 . S
C1238 C1239 1.385 . S
C1239 H1225 0.931 . S
C1239 C1238 1.385 . S
C1239 C1240 1.389 . S
C1240 C1239 1.389 . S
C1240 C1241 1.387 . S
C1241 H1226 0.930 . S
C1241 C1236 1.390 . S
C1241 C1240 1.387 . S
H1242 C1254 0.930 . S
H1243 C1256 0.930 . S
H1244 C1257 0.930 . S
H1245 C1261 0.959 . S
H1246 C1261 0.959 . S
H1247 C1261 0.961 . S
H1248 C1262 0.960 . S
H1249 C1262 0.961 . S
H1250 C1262 0.959 . S
H1251 C1265 0.929 . S
H1252 C1266 0.931 . S
H1253 C1268 0.930 . S
C1254 H1242 0.930 . S
C1254 C1255 1.399 . S
C1254 C1259 1.399 . S
C1255 C1254 1.399 . S
C1255 C1256 1.376 . S
C1256 H1243 0.930 . S
C1256 C1255 1.376 . S
C1256 C1257 1.388 . S
C1257 H1244 0.930 . S
C1257 C1256 1.388 . S
C1257 C1258 1.390 . S
C1258 C1257 1.390 . S
C1258 C1259 1.394 . S
C1258 C1264 1.465 . S
C1259 C1254 1.399 . S
C1259 C1258 1.394 . S
C1259 C1260 1.516 . S
C1260 C1259 1.516 . S
C1260 C1261 1.502 . S
C1260 C1262 1.561 . S
C1260 C1263 1.526 . S
C1261 H1245 0.959 . S
C1261 H1246 0.959 . S
C1261 H1247 0.961 . S
C1261 C1260 1.502 . S
C1262 H1248 0.960 . S
C1262 H1249 0.961 . S
C1262 H1250 0.959 . S
C1262 C1260 1.561 . S
C1263 C1260 1.526 . S
C1263 C1264 1.396 . S
C1263 C1268 1.390 . S
C1264 C1258 1.465 . S
C1264 C1263 1.396 . S
C1264 C1265 1.399 . S
C1265 H1251 0.929 . S
C1265 C1264 1.399 . S
C1265 C1266 1.385 . S
C1266 H1252 0.931 . S
C1266 C1265 1.385 . S
C1266 C1267 1.389 . S
C1267 C1266 1.389 . S
C1267 C1268 1.387 . S
C1268 H1253 0.930 . S
C1268 C1263 1.390 . S
C1268 C1267 1.387 . S
H1269 C1281 0.930 . S
H1270 C1283 0.930 . S
H1271 C1284 0.930 . S
H1272 C1288 0.959 . S
H1273 C1288 0.959 . S
H1274 C1288 0.961 . S
H1275 C1289 0.960 . S
H1276 C1289 0.961 . S
H1277 C1289 0.959 . S
H1278 C1292 0.929 . S
H1279 C1293 0.931 . S
H1280 C1295 0.930 . S
C1281 H1269 0.930 . S
C1281 C1282 1.399 1_565 S
C1281 C1286 1.399 . S
C1282 C1281 1.399 1_545 S
C1282 C1283 1.376 . S
C1283 H1270 0.930 . S
C1283 C1282 1.376 . S
C1283 C1284 1.388 1_545 S
C1284 H1271 0.930 . S
C1284 C1283 1.388 1_565 S
C1284 C1285 1.390 . S
C1285 C1284 1.390 . S
C1285 C1286 1.394 . S
C1285 C1291 1.465 . S
C1286 C1281 1.399 . S
C1286 C1285 1.394 . S
C1286 C1287 1.516 . S
C1287 C1286 1.516 . S
C1287 C1288 1.502 . S
C1287 C1289 1.561 . S
C1287 C1290 1.526 . S
C1288 H1272 0.959 . S
C1288 H1273 0.959 . S
C1288 H1274 0.961 . S
C1288 C1287 1.502 . S
C1289 H1275 0.960 . S
C1289 H1276 0.961 . S
C1289 H1277 0.959 . S
C1289 C1287 1.561 . S
C1290 C1287 1.526 . S
C1290 C1291 1.396 . S
C1290 C1295 1.390 . S
C1291 C1285 1.465 . S
C1291 C1290 1.396 . S
C1291 C1292 1.399 . S
C1292 H1278 0.929 . S
C1292 C1291 1.399 . S
C1292 C1293 1.385 . S
C1293 H1279 0.931 . S
C1293 C1292 1.385 . S
C1293 C1294 1.389 . S
C1294 C1293 1.389 . S
C1294 C1295 1.387 . S
C1295 H1280 0.930 . S
C1295 C1290 1.390 . S
C1295 C1294 1.387 . S
H1296 C1308 0.930 . S
H1297 C1310 0.944 . S
H1298 C1311 0.930 . S
H1299 C1315 0.959 . S
H1300 C1315 0.959 . S
H1301 C1315 0.961 . S
H1302 C1316 0.960 . S
H1303 C1316 0.961 . S
H1304 C1316 0.959 . S
H1305 C1319 0.929 . S
H1306 C1320 0.931 . S
H1307 C1322 0.930 . S
C1308 H1296 0.930 . S
C1308 C1309 1.399 . S
C1308 C1313 1.399 . S
C1309 C1308 1.399 . S
C1309 C1310 1.376 . S
C1310 H1297 0.944 . S
C1310 C1309 1.376 . S
C1310 C1311 1.388 . S
C1311 H1298 0.930 . S
C1311 C1310 1.388 . S
C1311 C1312 1.390 . S
C1312 C1311 1.390 . S
C1312 C1313 1.394 . S
C1312 C1318 1.465 . S
C1313 C1308 1.399 . S
C1313 C1312 1.394 . S
C1313 C1314 1.516 . S
C1314 C1313 1.516 . S
C1314 C1315 1.502 . S
C1314 C1316 1.561 . S
C1314 C1317 1.526 . S
C1315 H1299 0.959 . S
C1315 H1300 0.959 . S
C1315 H1301 0.961 . S
C1315 C1314 1.502 . S
C1316 H1302 0.960 . S
C1316 H1303 0.961 . S
C1316 H1304 0.959 . S
C1316 C1314 1.561 . S
C1317 C1314 1.526 . S
C1317 C1318 1.396 . S
C1317 C1322 1.390 . S
C1318 C1312 1.465 . S
C1318 C1317 1.396 . S
C1318 C1319 1.399 . S
C1319 H1305 0.929 . S
C1319 C1318 1.399 . S
C1319 C1320 1.385 . S
C1320 H1306 0.931 . S
C1320 C1319 1.385 . S
C1320 C1321 1.389 . S
C1321 C1320 1.389 . S
C1321 C1322 1.387 . S
C1322 H1307 0.930 . S
C1322 C1317 1.390 . S
C1322 C1321 1.387 . S
H1323 C1335 0.930 . S
H1324 C1337 0.930 . S
H1325 C1338 0.930 . S
H1326 C1342 0.959 . S
H1327 C1342 0.959 . S
H1328 C1342 0.961 . S
H1329 C1343 0.960 . S
H1330 C1343 0.961 . S
H1331 C1343 0.959 . S
H1332 C1346 0.929 . S
H1333 C1347 0.931 . S
H1334 C1349 0.930 . S
C1335 H1323 0.930 . S
C1335 C1336 1.399 . S
C1335 C1340 1.399 . S
C1336 C1335 1.399 . S
C1336 C1337 1.376 . S
C1337 H1324 0.930 . S
C1337 C1336 1.376 . S
C1337 C1338 1.388 . S
C1338 H1325 0.930 . S
C1338 C1337 1.388 . S
C1338 C1339 1.390 . S
C1339 C1338 1.390 . S
C1339 C1340 1.394 . S
C1339 C1345 1.465 . S
C1340 C1335 1.399 . S
C1340 C1339 1.394 . S
C1340 C1341 1.516 . S
C1341 C1340 1.516 . S
C1341 C1342 1.502 . S
C1341 C1343 1.561 . S
C1341 C1344 1.526 . S
C1342 H1326 0.959 . S
C1342 H1327 0.959 . S
C1342 H1328 0.961 . S
C1342 C1341 1.502 . S
C1343 H1329 0.960 . S
C1343 H1330 0.961 . S
C1343 H1331 0.959 . S
C1343 C1341 1.561 . S
C1344 C1341 1.526 . S
C1344 C1345 1.396 . S
C1344 C1349 1.390 . S
C1345 C1339 1.465 . S
C1345 C1344 1.396 . S
C1345 C1346 1.399 . S
C1346 H1332 0.929 . S
C1346 C1345 1.399 . S
C1346 C1347 1.385 . S
C1347 H1333 0.931 . S
C1347 C1346 1.385 . S
C1347 C1348 1.389 . S
C1348 C1347 1.389 . S
C1348 C1349 1.387 . S
C1349 H1334 0.930 . S
C1349 C1344 1.390 . S
C1349 C1348 1.387 . S
H1350 C1362 0.930 . S
H1351 C1364 0.930 . S
H1352 C1365 0.930 . S
H1353 C1369 0.959 . S
H1354 C1369 0.959 . S
H1355 C1369 0.961 . S
H1356 C1370 0.960 . S
H1357 C1370 0.961 . S
H1358 C1370 0.959 . S
H1359 C1373 0.929 . S
H1360 C1374 0.931 . S
H1361 C1376 0.930 . S
C1362 H1350 0.930 . S
C1362 C1363 1.399 . S
C1362 C1367 1.399 . S
C1363 C1362 1.399 . S
C1363 C1364 1.376 . S
C1364 H1351 0.930 . S
C1364 C1363 1.376 . S
C1364 C1365 1.388 . S
C1365 H1352 0.930 . S
C1365 C1364 1.388 . S
C1365 C1366 1.390 . S
C1366 C1365 1.390 . S
C1366 C1367 1.394 . S
C1366 C1372 1.465 . S
C1367 C1362 1.399 . S
C1367 C1366 1.394 . S
C1367 C1368 1.516 . S
C1368 C1367 1.516 . S
C1368 C1369 1.502 . S
C1368 C1370 1.561 . S
C1368 C1371 1.526 . S
C1369 H1353 0.959 . S
C1369 H1354 0.959 . S
C1369 H1355 0.961 . S
C1369 C1368 1.502 . S
C1370 H1356 0.960 . S
C1370 H1357 0.961 . S
C1370 H1358 0.959 . S
C1370 C1368 1.561 . S
C1371 C1368 1.526 . S
C1371 C1372 1.396 . S
C1371 C1376 1.390 . S
C1372 C1366 1.465 . S
C1372 C1371 1.396 . S
C1372 C1373 1.399 . S
C1373 H1359 0.929 . S
C1373 C1372 1.399 . S
C1373 C1374 1.385 . S
C1374 H1360 0.931 . S
C1374 C1373 1.385 . S
C1374 C1375 1.389 . S
C1375 C1374 1.389 . S
C1375 C1376 1.387 . S
C1376 H1361 0.930 . S
C1376 C1371 1.390 . S
C1376 C1375 1.387 . S
H1377 C1389 0.930 . S
H1378 C1391 0.930 . S
H1379 C1392 0.930 . S
H1380 C1396 0.959 . S
H1381 C1396 0.959 . S
H1382 C1396 0.961 . S
H1383 C1397 0.960 . S
H1384 C1397 0.961 . S
H1385 C1397 0.959 . S
H1386 C1400 0.929 . S
H1387 C1401 0.931 . S
H1388 C1403 0.930 . S
C1389 H1377 0.930 . S
C1389 C1390 1.399 . S
C1389 C1394 1.399 . S
C1390 C1389 1.399 . S
C1390 C1391 1.376 . S
C1391 H1378 0.930 . S
C1391 C1390 1.376 . S
C1391 C1392 1.388 . S
C1392 H1379 0.930 . S
C1392 C1391 1.388 . S
C1392 C1393 1.390 . S
C1393 C1392 1.390 . S
C1393 C1394 1.394 . S
C1393 C1399 1.465 . S
C1394 C1389 1.399 . S
C1394 C1393 1.394 . S
C1394 C1395 1.516 . S
C1395 C1394 1.516 . S
C1395 C1396 1.502 . S
C1395 C1397 1.561 . S
C1395 C1398 1.526 . S
C1396 H1380 0.959 . S
C1396 H1381 0.959 . S
C1396 H1382 0.961 . S
C1396 C1395 1.502 . S
C1397 H1383 0.960 . S
C1397 H1384 0.961 . S
C1397 H1385 0.959 . S
C1397 C1395 1.561 . S
C1398 C1395 1.526 . S
C1398 C1399 1.396 . S
C1398 C1403 1.390 . S
C1399 C1393 1.465 . S
C1399 C1398 1.396 . S
C1399 C1400 1.399 . S
C1400 H1386 0.929 . S
C1400 C1399 1.399 . S
C1400 C1401 1.385 . S
C1401 H1387 0.931 . S
C1401 C1400 1.385 . S
C1401 C1402 1.389 . S
C1402 C1401 1.389 . S
C1402 C1403 1.387 . S
C1403 H1388 0.930 . S
C1403 C1398 1.390 . S
C1403 C1402 1.387 . S
H1404 C1416 0.930 . S
H1405 C1418 0.930 . S
H1406 C1419 0.930 . S
H1407 C1423 0.959 . S
H1408 C1423 0.959 . S
H1409 C1423 0.961 . S
H1410 C1424 0.960 . S
H1411 C1424 0.961 . S
H1412 C1424 0.959 . S
H1413 C1427 0.929 . S
H1414 C1428 0.931 . S
H1415 C1430 0.930 . S
C1416 H1404 0.930 . S
C1416 C1417 1.399 . S
C1416 C1421 1.399 . S
C1417 C1416 1.399 . S
C1417 C1418 1.376 . S
C1418 H1405 0.930 . S
C1418 C1417 1.376 . S
C1418 C1419 1.388 . S
C1419 H1406 0.930 . S
C1419 C1418 1.388 . S
C1419 C1420 1.390 . S
C1420 C1419 1.390 . S
C1420 C1421 1.394 . S
C1420 C1426 1.465 . S
C1421 C1416 1.399 . S
C1421 C1420 1.394 . S
C1421 C1422 1.516 . S
C1422 C1421 1.516 . S
C1422 C1423 1.502 . S
C1422 C1424 1.561 . S
C1422 C1425 1.526 . S
C1423 H1407 0.959 . S
C1423 H1408 0.959 . S
C1423 H1409 0.961 . S
C1423 C1422 1.502 . S
C1424 H1410 0.960 . S
C1424 H1411 0.961 . S
C1424 H1412 0.959 . S
C1424 C1422 1.561 . S
C1425 C1422 1.526 . S
C1425 C1426 1.396 . S
C1425 C1430 1.390 . S
C1426 C1420 1.465 . S
C1426 C1425 1.396 . S
C1426 C1427 1.399 . S
C1427 H1413 0.929 . S
C1427 C1426 1.399 . S
C1427 C1428 1.385 . S
C1428 H1414 0.931 . S
C1428 C1427 1.385 . S
C1428 C1429 1.389 . S
C1429 C1428 1.389 . S
C1429 C1430 1.387 . S
C1430 H1415 0.930 . S
C1430 C1425 1.390 . S
C1430 C1429 1.387 . S
H1431 C1443 0.930 . S
H1432 C1445 0.930 . S
H1433 C1446 0.930 . S
H1434 C1450 0.959 . S
H1435 C1450 0.959 . S
H1436 C1450 0.961 1_565 S
H1437 C1451 0.960 . S
H1438 C1451 0.961 . S
H1439 C1451 0.959 . S
H1440 C1454 0.929 . S
H1441 C1455 0.931 . S
H1442 C1457 0.930 . S
C1443 H1431 0.930 . S
C1443 C1444 1.399 . S
C1443 C1448 1.399 . S
C1444 C1443 1.399 . S
C1444 C1445 1.376 . S
C1445 H1432 0.930 . S
C1445 C1444 1.376 . S
C1445 C1446 1.388 . S
C1446 H1433 0.930 . S
C1446 C1445 1.388 . S
C1446 C1447 1.390 . S
C1447 C1446 1.390 . S
C1447 C1448 1.394 . S
C1447 C1453 1.478 . S
C1448 C1443 1.399 . S
C1448 C1447 1.394 . S
C1448 C1449 1.516 . S
C1449 C1448 1.516 . S
C1449 C1450 1.502 1_565 S
C1449 C1451 1.561 . S
C1449 C1452 1.526 1_565 S
C1450 H1434 0.959 . S
C1450 H1435 0.959 . S
C1450 H1436 0.961 1_545 S
C1450 C1449 1.502 1_545 S
C1451 H1437 0.960 . S
C1451 H1438 0.961 . S
C1451 H1439 0.959 . S
C1451 C1449 1.561 . S
C1452 C1449 1.526 1_545 S
C1452 C1453 1.386 1_545 S
C1452 C1457 1.390 . S
C1453 C1447 1.478 . S
C1453 C1452 1.386 1_565 S
C1453 C1454 1.396 1_565 S
C1454 H1440 0.929 . S
C1454 C1453 1.396 1_545 S
C1454 C1455 1.385 . S
C1455 H1441 0.931 . S
C1455 C1454 1.385 . S
C1455 C1456 1.389 . S
C1456 C1455 1.389 . S
C1456 C1457 1.387 . S
C1457 H1442 0.930 . S
C1457 C1452 1.390 . S
C1457 C1456 1.387 . S
H1458 C1470 0.930 . S
H1459 C1472 0.930 . S
H1460 C1473 0.930 . S
H1461 C1477 0.959 . S
H1462 C1477 0.959 . S
H1463 C1477 0.961 . S
H1464 C1478 0.960 . S
H1465 C1478 0.961 . S
H1466 C1478 0.959 . S
H1467 C1481 0.929 1_455 S
H1468 C1482 0.931 . S
H1469 C1484 0.930 . S
C1470 H1458 0.930 . S
C1470 C1471 1.399 . S
C1470 C1475 1.399 . S
C1471 C1470 1.399 . S
C1471 C1472 1.376 . S
C1472 H1459 0.930 . S
C1472 C1471 1.376 . S
C1472 C1473 1.388 . S
C1473 H1460 0.930 . S
C1473 C1472 1.388 . S
C1473 C1474 1.390 . S
C1474 C1473 1.390 . S
C1474 C1475 1.394 . S
C1474 C1480 1.425 1_455 S
C1475 C1470 1.399 . S
C1475 C1474 1.394 . S
C1475 C1476 1.516 1_455 S
C1476 C1475 1.516 1_655 S
C1476 C1477 1.502 . S
C1476 C1478 1.561 . S
C1476 C1479 1.526 . S
C1477 H1461 0.959 . S
C1477 H1462 0.959 . S
C1477 H1463 0.961 . S
C1477 C1476 1.502 . S
C1478 H1464 0.960 . S
C1478 H1465 0.961 . S
C1478 H1466 0.959 . S
C1478 C1476 1.561 . S
C1479 C1476 1.526 . S
C1479 C1480 1.424 . S
C1479 C1484 1.390 . S
C1480 C1474 1.425 1_655 S
C1480 C1479 1.424 . S
C1480 C1481 1.414 . S
C1481 H1467 0.929 1_655 S
C1481 C1480 1.414 . S
C1481 C1482 1.385 . S
C1482 H1468 0.931 . S
C1482 C1481 1.385 . S
C1482 C1483 1.389 . S
C1483 C1482 1.389 . S
C1483 C1484 1.387 . S
C1484 H1469 0.930 . S
C1484 C1479 1.390 . S
C1484 C1483 1.387 . S
H1485 C1497 0.930 . S
H1486 C1499 0.930 . S
H1487 C1500 0.930 . S
H1488 C1504 0.959 . S
H1489 C1504 0.959 . S
H1490 C1504 0.961 . S
H1491 C1505 0.960 . S
H1492 C1505 0.961 . S
H1493 C1505 0.959 . S
H1494 C1508 0.929 . S
H1495 C1509 0.931 . S
H1496 C1511 0.930 . S
C1497 H1485 0.930 . S
C1497 C1498 1.399 . S
C1497 C1502 1.399 . S
C1498 C1497 1.399 . S
C1498 C1499 1.376 . S
C1499 H1486 0.930 . S
C1499 C1498 1.376 . S
C1499 C1500 1.388 . S
C1500 H1487 0.930 . S
C1500 C1499 1.388 . S
C1500 C1501 1.390 . S
C1501 C1500 1.390 . S
C1501 C1502 1.394 . S
C1501 C1507 1.465 . S
C1502 C1497 1.399 . S
C1502 C1501 1.394 . S
C1502 C1503 1.516 . S
C1503 C1502 1.516 . S
C1503 C1504 1.502 . S
C1503 C1505 1.561 . S
C1503 C1506 1.526 . S
C1504 H1488 0.959 . S
C1504 H1489 0.959 . S
C1504 H1490 0.961 . S
C1504 C1503 1.502 . S
C1505 H1491 0.960 . S
C1505 H1492 0.961 . S
C1505 H1493 0.959 . S
C1505 C1503 1.561 . S
C1506 C1503 1.526 . S
C1506 C1507 1.396 . S
C1506 C1511 1.390 . S
C1507 C1501 1.465 . S
C1507 C1506 1.396 . S
C1507 C1508 1.399 . S
C1508 H1494 0.929 . S
C1508 C1507 1.399 . S
C1508 C1509 1.385 . S
C1509 H1495 0.931 . S
C1509 C1508 1.385 . S
C1509 C1510 1.389 . S
C1510 C1509 1.389 . S
C1510 C1511 1.387 . S
C1511 H1496 0.930 . S
C1511 C1506 1.390 . S
C1511 C1510 1.387 . S
H1512 C1524 0.930 1_455 S
H1513 C1526 0.930 1_455 S
H1514 C1527 0.930 . S
H1515 C1531 0.959 . S
H1516 C1531 0.959 . S
H1517 C1531 0.961 . S
H1518 C1532 0.960 . S
H1519 C1532 0.961 . S
H1520 C1532 0.959 . S
H1521 C1535 0.929 . S
H1522 C1536 0.931 . S
H1523 C1538 0.930 . S
C1524 H1512 0.930 1_655 S
C1524 C1525 1.399 1_655 S
C1524 C1529 1.399 . S
C1525 C1524 1.399 1_455 S
C1525 C1526 1.376 1_455 S
C1526 H1513 0.930 1_655 S
C1526 C1525 1.376 1_655 S
C1526 C1527 1.388 . S
C1527 H1514 0.930 . S
C1527 C1526 1.388 . S
C1527 C1528 1.390 . S
C1528 C1527 1.390 . S
C1528 C1529 1.394 . S
C1528 C1534 1.465 . S
C1529 C1524 1.399 . S
C1529 C1528 1.394 . S
C1529 C1530 1.516 . S
C1530 C1529 1.516 . S
C1530 C1531 1.502 . S
C1530 C1532 1.561 . S
C1530 C1533 1.526 . S
C1531 H1515 0.959 . S
C1531 H1516 0.959 . S
C1531 H1517 0.961 . S
C1531 C1530 1.502 . S
C1532 H1518 0.960 . S
C1532 H1519 0.961 . S
C1532 H1520 0.959 . S
C1532 C1530 1.561 . S
C1533 C1530 1.526 . S
C1533 C1534 1.396 . S
C1533 C1538 1.390 . S
C1534 C1528 1.465 . S
C1534 C1533 1.396 . S
C1534 C1535 1.399 . S
C1535 H1521 0.929 . S
C1535 C1534 1.399 . S
C1535 C1536 1.385 . S
C1536 H1522 0.931 . S
C1536 C1535 1.385 . S
C1536 C1537 1.389 . S
C1537 C1536 1.389 . S
C1537 C1538 1.387 . S
C1538 H1523 0.930 . S
C1538 C1533 1.390 . S
C1538 C1537 1.387 . S
H1539 C1551 0.930 . S
H1540 C1553 0.930 . S
H1541 C1554 0.930 . S
H1542 C1558 0.959 . S
H1543 C1558 0.959 . S
H1544 C1558 0.961 . S
H1545 C1559 0.960 . S
H1546 C1559 0.961 . S
H1547 C1559 0.959 . S
H1548 C1562 0.929 . S
H1549 C1563 0.931 . S
H1550 C1565 0.930 . S
C1551 H1539 0.930 . S
C1551 C1552 1.399 . S
C1551 C1556 1.399 . S
C1552 C1551 1.399 . S
C1552 C1553 1.376 . S
C1553 H1540 0.930 . S
C1553 C1552 1.376 . S
C1553 C1554 1.388 . S
C1554 H1541 0.930 . S
C1554 C1553 1.388 . S
C1554 C1555 1.390 . S
C1555 C1554 1.390 . S
C1555 C1556 1.394 . S
C1555 C1561 1.465 . S
C1556 C1551 1.399 . S
C1556 C1555 1.394 . S
C1556 C1557 1.516 . S
C1557 C1556 1.516 . S
C1557 C1558 1.502 . S
C1557 C1559 1.561 . S
C1557 C1560 1.526 . S
C1558 H1542 0.959 . S
C1558 H1543 0.959 . S
C1558 H1544 0.961 . S
C1558 C1557 1.502 . S
C1559 H1545 0.960 . S
C1559 H1546 0.961 . S
C1559 H1547 0.959 . S
C1559 C1557 1.561 . S
C1560 C1557 1.526 . S
C1560 C1561 1.396 . S
C1560 C1565 1.390 . S
C1561 C1555 1.465 . S
C1561 C1560 1.396 . S
C1561 C1562 1.399 . S
C1562 H1548 0.929 . S
C1562 C1561 1.399 . S
C1562 C1563 1.385 . S
C1563 H1549 0.931 . S
C1563 C1562 1.385 . S
C1563 C1564 1.389 . S
C1564 C1563 1.389 . S
C1564 C1565 1.387 . S
C1565 H1550 0.930 . S
C1565 C1560 1.390 . S
C1565 C1564 1.387 . S
H1566 C1578 0.930 . S
H1567 C1580 0.930 1_565 S
H1568 C1581 0.930 . S
H1569 C1585 0.959 . S
H1570 C1585 0.959 . S
H1571 C1585 0.961 . S
H1572 C1586 0.960 . S
H1573 C1586 0.961 . S
H1574 C1586 0.959 . S
H1575 C1589 0.929 . S
H1576 C1590 0.931 . S
H1577 C1592 0.930 . S
C1578 H1566 0.930 . S
C1578 C1579 1.399 1_545 S
C1578 C1583 1.399 . S
C1579 C1578 1.399 1_565 S
C1579 C1580 1.376 1_565 S
C1580 H1567 0.930 1_545 S
C1580 C1579 1.376 1_545 S
C1580 C1581 1.388 . S
C1581 H1568 0.930 . S
C1581 C1580 1.388 . S
C1581 C1582 1.390 . S
C1582 C1581 1.390 . S
C1582 C1583 1.394 . S
C1582 C1588 1.465 . S
C1583 C1578 1.399 . S
C1583 C1582 1.394 . S
C1583 C1584 1.516 . S
C1584 C1583 1.516 . S
C1584 C1585 1.502 . S
C1584 C1586 1.561 . S
C1584 C1587 1.526 . S
C1585 H1569 0.959 . S
C1585 H1570 0.959 . S
C1585 H1571 0.961 . S
C1585 C1584 1.502 . S
C1586 H1572 0.960 . S
C1586 H1573 0.961 . S
C1586 H1574 0.959 . S
C1586 C1584 1.561 . S
C1587 C1584 1.526 . S
C1587 C1588 1.396 . S
C1587 C1592 1.390 . S
C1588 C1582 1.465 . S
C1588 C1587 1.396 . S
C1588 C1589 1.399 . S
C1589 H1575 0.929 . S
C1589 C1588 1.399 . S
C1589 C1590 1.385 . S
C1590 H1576 0.931 . S
C1590 C1589 1.385 . S
C1590 C1591 1.389 . S
C1591 C1590 1.389 . S
C1591 C1592 1.387 . S
C1592 H1577 0.930 . S
C1592 C1587 1.390 . S
C1592 C1591 1.387 . S
H1593 C1605 0.930 . S
H1594 C1607 0.930 . S
H1595 C1608 0.930 . S
H1596 C1612 0.959 . S
H1597 C1612 0.959 . S
H1598 C1612 0.961 . S
H1599 C1613 0.960 . S
H1600 C1613 0.961 . S
H1601 C1613 0.959 . S
H1602 C1616 0.929 . S
H1603 C1617 0.931 . S
H1604 C1619 0.930 . S
C1605 H1593 0.930 . S
C1605 C1606 1.399 . S
C1605 C1610 1.399 . S
C1606 C1605 1.399 . S
C1606 C1607 1.376 . S
C1607 H1594 0.930 . S
C1607 C1606 1.376 . S
C1607 C1608 1.388 . S
C1608 H1595 0.930 . S
C1608 C1607 1.388 . S
C1608 C1609 1.390 . S
C1609 C1608 1.390 . S
C1609 C1610 1.394 . S
C1609 C1615 1.465 . S
C1610 C1605 1.399 . S
C1610 C1609 1.394 . S
C1610 C1611 1.516 . S
C1611 C1610 1.516 . S
C1611 C1612 1.502 . S
C1611 C1613 1.561 . S
C1611 C1614 1.526 . S
C1612 H1596 0.959 . S
C1612 H1597 0.959 . S
C1612 H1598 0.961 . S
C1612 C1611 1.502 . S
C1613 H1599 0.960 . S
C1613 H1600 0.961 . S
C1613 H1601 0.959 . S
C1613 C1611 1.561 . S
C1614 C1611 1.526 . S
C1614 C1615 1.396 . S
C1614 C1619 1.390 . S
C1615 C1609 1.465 . S
C1615 C1614 1.396 . S
C1615 C1616 1.399 . S
C1616 H1602 0.929 . S
C1616 C1615 1.399 . S
C1616 C1617 1.385 . S
C1617 H1603 0.931 . S
C1617 C1616 1.385 . S
C1617 C1618 1.389 . S
C1618 C1617 1.389 . S
C1618 C1619 1.387 . S
C1619 H1604 0.930 . S
C1619 C1614 1.390 . S
C1619 C1618 1.387 . S
H1620 C1632 0.930 . S
H1621 C1634 0.930 . S
H1622 C1635 0.930 . S
H1623 C1639 0.959 . S
H1624 C1639 0.959 . S
H1625 C1639 0.961 . S
H1626 C1640 0.960 . S
H1627 C1640 0.961 . S
H1628 C1640 0.959 . S
H1629 C1643 0.929 . S
H1630 C1644 0.931 . S
H1631 C1646 0.930 . S
C1632 H1620 0.930 . S
C1632 C1633 1.399 . S
C1632 C1637 1.399 . S
C1633 C1632 1.399 . S
C1633 C1634 1.376 . S
C1634 H1621 0.930 . S
C1634 C1633 1.376 . S
C1634 C1635 1.388 . S
C1635 H1622 0.930 . S
C1635 C1634 1.388 . S
C1635 C1636 1.390 . S
C1636 C1635 1.390 . S
C1636 C1637 1.394 . S
C1636 C1642 1.465 . S
C1637 C1632 1.399 . S
C1637 C1636 1.394 . S
C1637 C1638 1.516 . S
C1638 C1637 1.516 . S
C1638 C1639 1.502 . S
C1638 C1640 1.561 . S
C1638 C1641 1.526 . S
C1639 H1623 0.959 . S
C1639 H1624 0.959 . S
C1639 H1625 0.961 . S
C1639 C1638 1.502 . S
C1640 H1626 0.960 . S
C1640 H1627 0.961 . S
C1640 H1628 0.959 . S
C1640 C1638 1.561 . S
C1641 C1638 1.526 . S
C1641 C1642 1.396 . S
C1641 C1646 1.390 . S
C1642 C1636 1.465 . S
C1642 C1641 1.396 . S
C1642 C1643 1.399 . S
C1643 H1629 0.929 . S
C1643 C1642 1.399 . S
C1643 C1644 1.385 . S
C1644 H1630 0.931 . S
C1644 C1643 1.385 . S
C1644 C1645 1.389 . S
C1645 C1644 1.389 . S
C1645 C1646 1.387 . S
C1646 H1631 0.930 . S
C1646 C1641 1.390 . S
C1646 C1645 1.387 . S
H1647 C1659 0.930 . S
H1648 C1661 0.930 . S
H1649 C1662 0.930 . S
H1650 C1666 0.959 . S
H1651 C1666 0.959 . S
H1652 C1666 0.961 . S
H1653 C1667 0.960 . S
H1654 C1667 0.961 . S
H1655 C1667 0.959 . S
H1656 C1670 0.929 . S
H1657 C1671 0.931 . S
H1658 C1673 0.930 . S
C1659 H1647 0.930 . S
C1659 C1660 1.399 . S
C1659 C1664 1.399 . S
C1660 C1659 1.399 . S
C1660 C1661 1.376 . S
C1661 H1648 0.930 . S
C1661 C1660 1.376 . S
C1661 C1662 1.388 . S
C1662 H1649 0.930 . S
C1662 C1661 1.388 . S
C1662 C1663 1.390 . S
C1663 C1662 1.390 . S
C1663 C1664 1.394 . S
C1663 C1669 1.465 . S
C1664 C1659 1.399 . S
C1664 C1663 1.394 . S
C1664 C1665 1.516 . S
C1665 C1664 1.516 . S
C1665 C1666 1.502 . S
C1665 C1667 1.561 . S
C1665 C1668 1.526 . S
C1666 H1650 0.959 . S
C1666 H1651 0.959 . S
C1666 H1652 0.961 . S
C1666 C1665 1.502 . S
C1667 H1653 0.960 . S
C1667 H1654 0.961 . S
C1667 H1655 0.959 . S
C1667 C1665 1.561 . S
C1668 C1665 1.526 . S
C1668 C1669 1.396 . S
C1668 C1673 1.390 . S
C1669 C1663 1.465 . S
C1669 C1668 1.396 . S
C1669 C1670 1.399 . S
C1670 H1656 0.929 . S
C1670 C1669 1.399 . S
C1670 C1671 1.385 . S
C1671 H1657 0.931 . S
C1671 C1670 1.385 . S
C1671 C1672 1.389 . S
C1672 C1671 1.389 . S
C1672 C1673 1.387 . S
C1673 H1658 0.930 . S
C1673 C1668 1.390 . S
C1673 C1672 1.387 . S
H1674 C1686 0.930 . S
H1675 C1688 0.930 . S
H1676 C1689 0.930 . S
H1677 C1693 0.959 . S
H1678 C1693 0.959 . S
H1679 C1693 0.961 . S
H1680 C1694 0.960 . S
H1681 C1694 0.961 . S
H1682 C1694 0.959 . S
H1683 C1697 0.929 . S
H1684 C1698 0.931 . S
H1685 C1700 0.930 . S
C1686 H1674 0.930 . S
C1686 C1687 1.399 . S
C1686 C1691 1.399 . S
C1687 C1686 1.399 . S
C1687 C1688 1.376 . S
C1688 H1675 0.930 . S
C1688 C1687 1.376 . S
C1688 C1689 1.388 . S
C1689 H1676 0.930 . S
C1689 C1688 1.388 . S
C1689 C1690 1.390 . S
C1690 C1689 1.390 . S
C1690 C1691 1.394 . S
C1690 C1696 1.465 . S
C1691 C1686 1.399 . S
C1691 C1690 1.394 . S
C1691 C1692 1.516 . S
C1692 C1691 1.516 . S
C1692 C1693 1.502 . S
C1692 C1694 1.561 . S
C1692 C1695 1.526 . S
C1693 H1677 0.959 . S
C1693 H1678 0.959 . S
C1693 H1679 0.961 . S
C1693 C1692 1.502 . S
C1694 H1680 0.960 . S
C1694 H1681 0.961 . S
C1694 H1682 0.959 . S
C1694 C1692 1.561 . S
C1695 C1692 1.526 . S
C1695 C1696 1.396 . S
C1695 C1700 1.390 . S
C1696 C1690 1.465 . S
C1696 C1695 1.396 . S
C1696 C1697 1.399 . S
C1697 H1683 0.929 . S
C1697 C1696 1.399 . S
C1697 C1698 1.385 . S
C1698 H1684 0.931 . S
C1698 C1697 1.385 . S
C1698 C1699 1.389 . S
C1699 C1698 1.389 . S
C1699 C1700 1.387 . S
C1700 H1685 0.930 . S
C1700 C1695 1.390 . S
C1700 C1699 1.387 . S
H1701 C1713 0.930 . S
H1702 C1715 0.930 . S
H1703 C1716 0.930 . S
H1704 C1720 0.959 . S
H1705 C1720 0.959 . S
H1706 C1720 0.961 . S
H1707 C1721 0.960 . S
H1708 C1721 0.961 . S
H1709 C1721 0.959 . S
H1710 C1724 0.929 . S
H1711 C1725 0.931 . S
H1712 C1727 0.930 . S
C1713 H1701 0.930 . S
C1713 C1714 1.399 . S
C1713 C1718 1.399 . S
C1714 C1713 1.399 . S
C1714 C1715 1.376 . S
C1715 H1702 0.930 . S
C1715 C1714 1.376 . S
C1715 C1716 1.388 . S
C1716 H1703 0.930 . S
C1716 C1715 1.388 . S
C1716 C1717 1.390 . S
C1717 C1716 1.390 . S
C1717 C1718 1.394 . S
C1717 C1723 1.465 . S
C1718 C1713 1.399 . S
C1718 C1717 1.394 . S
C1718 C1719 1.516 . S
C1719 C1718 1.516 . S
C1719 C1720 1.502 . S
C1719 C1721 1.561 . S
C1719 C1722 1.526 . S
C1720 H1704 0.959 . S
C1720 H1705 0.959 . S
C1720 H1706 0.961 . S
C1720 C1719 1.502 . S
C1721 H1707 0.960 . S
C1721 H1708 0.961 . S
C1721 H1709 0.959 . S
C1721 C1719 1.561 . S
C1722 C1719 1.526 . S
C1722 C1723 1.396 . S
C1722 C1727 1.390 . S
C1723 C1717 1.465 . S
C1723 C1722 1.396 . S
C1723 C1724 1.399 . S
C1724 H1710 0.929 . S
C1724 C1723 1.399 . S
C1724 C1725 1.385 . S
C1725 H1711 0.931 . S
C1725 C1724 1.385 . S
C1725 C1726 1.389 . S
C1726 C1725 1.389 . S
C1726 C1727 1.387 . S
C1727 H1712 0.930 . S
C1727 C1722 1.390 . S
C1727 C1726 1.387 . S
H1728 C1740 0.930 . S
H1729 C1742 0.930 . S
H1730 C1743 0.930 . S
H1731 C1747 0.959 . S
H1732 C1747 0.959 . S
H1733 C1747 0.961 . S
H1734 C1748 0.960 . S
H1735 C1748 0.961 . S
H1736 C1748 0.959 . S
H1737 C1751 0.929 . S
H1738 C1752 0.931 . S
H1739 C1754 0.930 . S
C1740 H1728 0.930 . S
C1740 C1741 1.399 . S
C1740 C1745 1.399 . S
C1741 C1740 1.399 . S
C1741 C1742 1.376 . S
C1742 H1729 0.930 . S
C1742 C1741 1.376 . S
C1742 C1743 1.388 . S
C1743 H1730 0.930 . S
C1743 C1742 1.388 . S
C1743 C1744 1.390 . S
C1744 C1743 1.390 . S
C1744 C1745 1.394 . S
C1744 C1750 1.465 . S
C1745 C1740 1.399 . S
C1745 C1744 1.394 . S
C1745 C1746 1.516 . S
C1746 C1745 1.516 . S
C1746 C1747 1.502 . S
C1746 C1748 1.561 . S
C1746 C1749 1.526 . S
C1747 H1731 0.959 . S
C1747 H1732 0.959 . S
C1747 H1733 0.961 . S
C1747 C1746 1.502 . S
C1748 H1734 0.960 . S
C1748 H1735 0.961 . S
C1748 H1736 0.959 . S
C1748 C1746 1.561 . S
C1749 C1746 1.526 . S
C1749 C1750 1.396 . S
C1749 C1754 1.390 . S
C1750 C1744 1.465 . S
C1750 C1749 1.396 . S
C1750 C1751 1.399 . S
C1751 H1737 0.929 . S
C1751 C1750 1.399 . S
C1751 C1752 1.385 . S
C1752 H1738 0.931 . S
C1752 C1751 1.385 . S
C1752 C1753 1.389 . S
C1753 C1752 1.389 . S
C1753 C1754 1.387 . S
C1754 H1739 0.930 . S
C1754 C1749 1.390 . S
C1754 C1753 1.387 . S
H1755 C1767 0.930 . S
H1756 C1769 0.930 . S
H1757 C1770 0.930 . S
H1758 C1774 0.952 1_455 S
H1759 C1774 0.956 1_455 S
H1760 C1774 0.959 1_455 S
H1761 C1775 0.960 . S
H1762 C1775 0.961 . S
H1763 C1775 0.959 . S
H1764 C1778 0.929 . S
H1765 C1779 0.931 . S
H1766 C1781 0.930 . S
C1767 H1755 0.930 . S
C1767 C1768 1.399 . S
C1767 C1772 1.399 . S
C1768 C1767 1.399 . S
C1768 C1769 1.376 . S
C1769 H1756 0.930 . S
C1769 C1768 1.376 . S
C1769 C1770 1.388 . S
C1770 H1757 0.930 . S
C1770 C1769 1.388 . S
C1770 C1771 1.390 . S
C1771 C1770 1.390 . S
C1771 C1772 1.394 . S
C1771 C1777 1.465 . S
C1772 C1767 1.399 . S
C1772 C1771 1.394 . S
C1772 C1773 1.516 . S
C1773 C1772 1.516 . S
C1773 C1774 1.515 . S
C1773 C1775 1.561 . S
C1773 C1776 1.526 . S
C1774 H1758 0.952 1_655 S
C1774 H1759 0.956 1_655 S
C1774 H1760 0.959 1_655 S
C1774 C1773 1.515 . S
C1775 H1761 0.960 . S
C1775 H1762 0.961 . S
C1775 H1763 0.959 . S
C1775 C1773 1.561 . S
C1776 C1773 1.526 . S
C1776 C1777 1.396 . S
C1776 C1781 1.390 . S
C1777 C1771 1.465 . S
C1777 C1776 1.396 . S
C1777 C1778 1.399 . S
C1778 H1764 0.929 . S
C1778 C1777 1.399 . S
C1778 C1779 1.385 . S
C1779 H1765 0.931 . S
C1779 C1778 1.385 . S
C1779 C1780 1.389 . S
C1780 C1779 1.389 . S
C1780 C1781 1.387 . S
C1781 H1766 0.930 . S
C1781 C1776 1.390 . S
C1781 C1780 1.387 . S
H1782 C1794 0.930 . S
H1783 C1796 0.930 . S
H1784 C1797 0.930 . S
H1785 C1801 0.959 . S
H1786 C1801 0.959 . S
H1787 C1801 0.961 . S
H1788 C1802 0.960 . S
H1789 C1802 0.961 . S
H1790 C1802 0.959 . S
H1791 C1805 0.929 . S
H1792 C1806 0.931 . S
H1793 C1808 0.930 . S
C1794 H1782 0.930 . S
C1794 C1795 1.399 . S
C1794 C1799 1.399 . S
C1795 C1794 1.399 . S
C1795 C1796 1.376 . S
C1796 H1783 0.930 . S
C1796 C1795 1.376 . S
C1796 C1797 1.388 . S
C1797 H1784 0.930 . S
C1797 C1796 1.388 . S
C1797 C1798 1.390 . S
C1798 C1797 1.390 . S
C1798 C1799 1.394 . S
C1798 C1804 1.465 . S
C1799 C1794 1.399 . S
C1799 C1798 1.394 . S
C1799 C1800 1.516 . S
C1800 C1799 1.516 . S
C1800 C1801 1.502 . S
C1800 C1802 1.561 . S
C1800 C1803 1.526 . S
C1801 H1785 0.959 . S
C1801 H1786 0.959 . S
C1801 H1787 0.961 . S
C1801 C1800 1.502 . S
C1802 H1788 0.960 . S
C1802 H1789 0.961 . S
C1802 H1790 0.959 . S
C1802 C1800 1.561 . S
C1803 C1800 1.526 . S
C1803 C1804 1.396 . S
C1803 C1808 1.390 . S
C1804 C1798 1.465 . S
C1804 C1803 1.396 . S
C1804 C1805 1.399 . S
C1805 H1791 0.929 . S
C1805 C1804 1.399 . S
C1805 C1806 1.385 . S
C1806 H1792 0.931 . S
C1806 C1805 1.385 . S
C1806 C1807 1.389 . S
C1807 C1806 1.389 . S
C1807 C1808 1.387 . S
C1808 H1793 0.930 . S
C1808 C1803 1.390 . S
C1808 C1807 1.387 . S
H1809 C1821 0.930 . S
H1810 C1823 0.930 . S
H1811 C1824 0.930 . S
H1812 C1828 0.959 . S
H1813 C1828 0.959 . S
H1814 C1828 0.961 . S
H1815 C1829 0.960 . S
H1816 C1829 0.961 . S
H1817 C1829 0.959 . S
H1818 C1832 0.929 . S
H1819 C1833 0.931 . S
H1820 C1835 0.930 . S
C1821 H1809 0.930 . S
C1821 C1822 1.399 . S
C1821 C1826 1.399 . S
C1822 C1821 1.399 . S
C1822 C1823 1.376 . S
C1823 H1810 0.930 . S
C1823 C1822 1.376 . S
C1823 C1824 1.388 . S
C1824 H1811 0.930 . S
C1824 C1823 1.388 . S
C1824 C1825 1.390 . S
C1825 C1824 1.390 . S
C1825 C1826 1.394 . S
C1825 C1831 1.465 . S
C1826 C1821 1.399 . S
C1826 C1825 1.394 . S
C1826 C1827 1.516 . S
C1827 C1826 1.516 . S
C1827 C1828 1.502 . S
C1827 C1829 1.561 . S
C1827 C1830 1.526 . S
C1828 H1812 0.959 . S
C1828 H1813 0.959 . S
C1828 H1814 0.961 . S
C1828 C1827 1.502 . S
C1829 H1815 0.960 . S
C1829 H1816 0.961 . S
C1829 H1817 0.959 . S
C1829 C1827 1.561 . S
C1830 C1827 1.526 . S
C1830 C1831 1.396 . S
C1830 C1835 1.390 . S
C1831 C1825 1.465 . S
C1831 C1830 1.396 . S
C1831 C1832 1.399 . S
C1832 H1818 0.929 . S
C1832 C1831 1.399 . S
C1832 C1833 1.385 . S
C1833 H1819 0.931 . S
C1833 C1832 1.385 . S
C1833 C1834 1.389 . S
C1834 C1833 1.389 . S
C1834 C1835 1.387 . S
C1835 H1820 0.930 . S
C1835 C1830 1.390 . S
C1835 C1834 1.387 . S
H1836 C1848 0.930 . S
H1837 C1850 0.930 . S
H1838 C1851 0.930 . S
H1839 C1855 0.959 . S
H1840 C1855 0.959 . S
H1841 C1855 0.961 . S
H1842 C1856 0.960 . S
H1843 C1856 0.961 . S
H1844 C1856 0.959 . S
H1845 C1859 0.929 . S
H1846 C1860 0.931 . S
H1847 C1862 0.930 . S
C1848 H1836 0.930 . S
C1848 C1849 1.399 . S
C1848 C1853 1.399 . S
C1849 C1848 1.399 . S
C1849 C1850 1.376 . S
C1850 H1837 0.930 . S
C1850 C1849 1.376 . S
C1850 C1851 1.388 . S
C1851 H1838 0.930 . S
C1851 C1850 1.388 . S
C1851 C1852 1.390 . S
C1852 C1851 1.390 . S
C1852 C1853 1.394 . S
C1852 C1858 1.465 . S
C1853 C1848 1.399 . S
C1853 C1852 1.394 . S
C1853 C1854 1.516 . S
C1854 C1853 1.516 . S
C1854 C1855 1.502 . S
C1854 C1856 1.561 . S
C1854 C1857 1.526 . S
C1855 H1839 0.959 . S
C1855 H1840 0.959 . S
C1855 H1841 0.961 . S
C1855 C1854 1.502 . S
C1856 H1842 0.960 . S
C1856 H1843 0.961 . S
C1856 H1844 0.959 . S
C1856 C1854 1.561 . S
C1857 C1854 1.526 . S
C1857 C1858 1.396 . S
C1857 C1862 1.390 . S
C1858 C1852 1.465 . S
C1858 C1857 1.396 . S
C1858 C1859 1.399 . S
C1859 H1845 0.929 . S
C1859 C1858 1.399 . S
C1859 C1860 1.385 . S
C1860 H1846 0.931 . S
C1860 C1859 1.385 . S
C1860 C1861 1.389 . S
C1861 C1860 1.389 . S
C1861 C1862 1.387 . S
C1862 H1847 0.930 . S
C1862 C1857 1.390 . S
C1862 C1861 1.387 . S
H1863 C1875 0.930 . S
H1864 C1877 0.930 . S
H1865 C1878 0.930 . S
H1866 C1882 0.959 . S
H1867 C1882 0.959 . S
H1868 C1882 0.961 . S
H1869 C1883 0.960 . S
H1870 C1883 0.961 . S
H1871 C1883 0.959 . S
H1872 C1886 0.929 . S
H1873 C1887 0.931 . S
H1874 C1889 0.930 . S
C1875 H1863 0.930 . S
C1875 C1876 1.399 . S
C1875 C1880 1.399 . S
C1876 C1875 1.399 . S
C1876 C1877 1.376 . S
C1877 H1864 0.930 . S
C1877 C1876 1.376 . S
C1877 C1878 1.388 . S
C1878 H1865 0.930 . S
C1878 C1877 1.388 . S
C1878 C1879 1.390 . S
C1879 C1878 1.390 . S
C1879 C1880 1.394 . S
C1879 C1885 1.465 . S
C1880 C1875 1.399 . S
C1880 C1879 1.394 . S
C1880 C1881 1.516 . S
C1881 C1880 1.516 . S
C1881 C1882 1.502 . S
C1881 C1883 1.561 . S
C1881 C1884 1.526 . S
C1882 H1866 0.959 . S
C1882 H1867 0.959 . S
C1882 H1868 0.961 . S
C1882 C1881 1.502 . S
C1883 H1869 0.960 . S
C1883 H1870 0.961 . S
C1883 H1871 0.959 . S
C1883 C1881 1.561 . S
C1884 C1881 1.526 . S
C1884 C1885 1.396 . S
C1884 C1889 1.390 . S
C1885 C1879 1.465 . S
C1885 C1884 1.396 . S
C1885 C1886 1.399 . S
C1886 H1872 0.929 . S
C1886 C1885 1.399 . S
C1886 C1887 1.385 . S
C1887 H1873 0.931 . S
C1887 C1886 1.385 . S
C1887 C1888 1.389 . S
C1888 C1887 1.389 . S
C1888 C1889 1.387 . S
C1889 H1874 0.930 . S
C1889 C1884 1.390 . S
C1889 C1888 1.387 . S
H1890 C1902 0.930 . S
H1891 C1904 0.930 . S
H1892 C1905 0.930 . S
H1893 C1909 0.959 . S
H1894 C1909 0.959 . S
H1895 C1909 0.961 . S
H1896 C1910 0.960 . S
H1897 C1910 0.961 . S
H1898 C1910 0.959 . S
H1899 C1913 0.929 . S
H1900 C1914 0.931 . S
H1901 C1916 0.930 . S
C1902 H1890 0.930 . S
C1902 C1903 1.399 . S
C1902 C1907 1.399 . S
C1903 C1902 1.399 . S
C1903 C1904 1.376 . S
C1904 H1891 0.930 . S
C1904 C1903 1.376 . S
C1904 C1905 1.388 . S
C1905 H1892 0.930 . S
C1905 C1904 1.388 . S
C1905 C1906 1.390 . S
C1906 C1905 1.390 . S
C1906 C1907 1.394 . S
C1906 C1912 1.465 . S
C1907 C1902 1.399 . S
C1907 C1906 1.394 . S
C1907 C1908 1.516 . S
C1908 C1907 1.516 . S
C1908 C1909 1.502 . S
C1908 C1910 1.561 . S
C1908 C1911 1.526 . S
C1909 H1893 0.959 . S
C1909 H1894 0.959 . S
C1909 H1895 0.961 . S
C1909 C1908 1.502 . S
C1910 H1896 0.960 . S
C1910 H1897 0.961 . S
C1910 H1898 0.959 . S
C1910 C1908 1.561 . S
C1911 C1908 1.526 . S
C1911 C1912 1.396 . S
C1911 C1916 1.390 . S
C1912 C1906 1.465 . S
C1912 C1911 1.396 . S
C1912 C1913 1.399 . S
C1913 H1899 0.929 . S
C1913 C1912 1.399 . S
C1913 C1914 1.385 . S
C1914 H1900 0.931 . S
C1914 C1913 1.385 . S
C1914 C1915 1.389 . S
C1915 C1914 1.389 . S
C1915 C1916 1.387 . S
C1916 H1901 0.930 . S
C1916 C1911 1.390 . S
C1916 C1915 1.387 . S
H1917 C1929 0.930 . S
H1918 C1931 0.930 . S
H1919 C1932 0.930 . S
H1920 C1936 0.959 . S
H1921 C1936 0.959 . S
H1922 C1936 0.961 . S
H1923 C1937 0.960 . S
H1924 C1937 0.961 . S
H1925 C1937 0.959 . S
H1926 C1940 0.929 . S
H1927 C1941 0.931 . S
H1928 C1943 0.930 . S
C1929 H1917 0.930 . S
C1929 C1930 1.399 . S
C1929 C1934 1.399 . S
C1930 C1929 1.399 . S
C1930 C1931 1.376 . S
C1931 H1918 0.930 . S
C1931 C1930 1.376 . S
C1931 C1932 1.388 . S
C1932 H1919 0.930 . S
C1932 C1931 1.388 . S
C1932 C1933 1.390 . S
C1933 C1932 1.390 . S
C1933 C1934 1.394 . S
C1933 C1939 1.465 . S
C1934 C1929 1.399 . S
C1934 C1933 1.394 . S
C1934 C1935 1.516 . S
C1935 C1934 1.516 . S
C1935 C1936 1.502 . S
C1935 C1937 1.561 . S
C1935 C1938 1.526 . S
C1936 H1920 0.959 . S
C1936 H1921 0.959 . S
C1936 H1922 0.961 . S
C1936 C1935 1.502 . S
C1937 H1923 0.960 . S
C1937 H1924 0.961 . S
C1937 H1925 0.959 . S
C1937 C1935 1.561 . S
C1938 C1935 1.526 . S
C1938 C1939 1.396 . S
C1938 C1943 1.390 . S
C1939 C1933 1.465 . S
C1939 C1938 1.396 . S
C1939 C1940 1.399 . S
C1940 H1926 0.929 . S
C1940 C1939 1.399 . S
C1940 C1941 1.385 . S
C1941 H1927 0.931 . S
C1941 C1940 1.385 . S
C1941 C1942 1.389 . S
C1942 C1941 1.389 . S
C1942 C1943 1.387 . S
C1943 H1928 0.930 . S
C1943 C1938 1.390 . S
C1943 C1942 1.387 . S
H1944 C1956 0.930 . S
H1945 C1958 0.930 . S
H1946 C1959 0.930 . S
H1947 C1963 0.959 . S
H1948 C1963 0.959 . S
H1949 C1963 0.961 . S
H1950 C1964 0.960 . S
H1951 C1964 0.961 . S
H1952 C1964 0.959 . S
H1953 C1967 0.929 . S
H1954 C1968 0.931 . S
H1955 C1970 0.930 . S
C1956 H1944 0.930 . S
C1956 C1957 1.399 . S
C1956 C1961 1.399 . S
C1957 C1956 1.399 . S
C1957 C1958 1.376 . S
C1958 H1945 0.930 . S
C1958 C1957 1.376 . S
C1958 C1959 1.388 . S
C1959 H1946 0.930 . S
C1959 C1958 1.388 . S
C1959 C1960 1.390 . S
C1960 C1959 1.390 . S
C1960 C1961 1.394 . S
C1960 C1966 1.465 . S
C1961 C1956 1.399 . S
C1961 C1960 1.394 . S
C1961 C1962 1.516 . S
C1962 C1961 1.516 . S
C1962 C1963 1.502 . S
C1962 C1964 1.561 . S
C1962 C1965 1.526 . S
C1963 H1947 0.959 . S
C1963 H1948 0.959 . S
C1963 H1949 0.961 . S
C1963 C1962 1.502 . S
C1964 H1950 0.960 . S
C1964 H1951 0.961 . S
C1964 H1952 0.959 . S
C1964 C1962 1.561 . S
C1965 C1962 1.526 . S
C1965 C1966 1.396 . S
C1965 C1970 1.390 . S
C1966 C1960 1.465 . S
C1966 C1965 1.396 . S
C1966 C1967 1.399 . S
C1967 H1953 0.929 . S
C1967 C1966 1.399 . S
C1967 C1968 1.385 . S
C1968 H1954 0.931 . S
C1968 C1967 1.385 . S
C1968 C1969 1.389 . S
C1969 C1968 1.389 . S
C1969 C1970 1.387 . S
C1970 H1955 0.930 . S
C1970 C1965 1.390 . S
C1970 C1969 1.387 . S
H1971 C1983 0.930 . S
H1972 C1985 0.930 . S
H1973 C1986 0.930 . S
H1974 C1990 0.959 . S
H1975 C1990 0.959 . S
H1976 C1990 0.961 . S
H1977 C1991 0.960 . S
H1978 C1991 0.961 . S
H1979 C1991 0.959 . S
H1980 C1994 0.929 . S
H1981 C1995 0.931 . S
H1982 C1997 0.930 . S
C1983 H1971 0.930 . S
C1983 C1984 1.399 . S
C1983 C1988 1.399 . S
C1984 C1983 1.399 . S
C1984 C1985 1.376 . S
C1985 H1972 0.930 . S
C1985 C1984 1.376 . S
C1985 C1986 1.388 . S
C1986 H1973 0.930 . S
C1986 C1985 1.388 . S
C1986 C1987 1.390 . S
C1987 C1986 1.390 . S
C1987 C1988 1.394 . S
C1987 C1993 1.465 . S
C1988 C1983 1.399 . S
C1988 C1987 1.394 . S
C1988 C1989 1.516 . S
C1989 C1988 1.516 . S
C1989 C1990 1.502 . S
C1989 C1991 1.561 . S
C1989 C1992 1.526 . S
C1990 H1974 0.959 . S
C1990 H1975 0.959 . S
C1990 H1976 0.961 . S
C1990 C1989 1.502 . S
C1991 H1977 0.960 . S
C1991 H1978 0.961 . S
C1991 H1979 0.959 . S
C1991 C1989 1.561 . S
C1992 C1989 1.526 . S
C1992 C1993 1.396 . S
C1992 C1997 1.390 . S
C1993 C1987 1.465 . S
C1993 C1992 1.396 . S
C1993 C1994 1.399 . S
C1994 H1980 0.929 . S
C1994 C1993 1.399 . S
C1994 C1995 1.385 . S
C1995 H1981 0.931 . S
C1995 C1994 1.385 . S
C1995 C1996 1.389 . S
C1996 C1995 1.389 . S
C1996 C1997 1.387 . S
C1997 H1982 0.930 . S
C1997 C1992 1.390 . S
C1997 C1996 1.387 . S
H1998 C2010 0.930 . S
H1999 C2012 0.930 . S
H2000 C2013 0.930 . S
H2001 C2017 0.959 . S
H2002 C2017 0.959 . S
H2003 C2017 0.961 . S
H2004 C2018 0.960 . S
H2005 C2018 0.961 . S
H2006 C2018 0.959 . S
H2007 C2021 0.929 . S
H2008 C2022 0.931 . S
H2009 C2024 0.930 . S
C2010 H1998 0.930 . S
C2010 C2011 1.399 . S
C2010 C2015 1.399 . S
C2011 C2010 1.399 . S
C2011 C2012 1.376 . S
C2012 H1999 0.930 . S
C2012 C2011 1.376 . S
C2012 C2013 1.388 . S
C2013 H2000 0.930 . S
C2013 C2012 1.388 . S
C2013 C2014 1.390 . S
C2014 C2013 1.390 . S
C2014 C2015 1.394 . S
C2014 C2020 1.465 . S
C2015 C2010 1.399 . S
C2015 C2014 1.394 . S
C2015 C2016 1.516 . S
C2016 C2015 1.516 . S
C2016 C2017 1.502 . S
C2016 C2018 1.561 . S
C2016 C2019 1.526 . S
C2017 H2001 0.959 . S
C2017 H2002 0.959 . S
C2017 H2003 0.961 . S
C2017 C2016 1.502 . S
C2018 H2004 0.960 . S
C2018 H2005 0.961 . S
C2018 H2006 0.959 . S
C2018 C2016 1.561 . S
C2019 C2016 1.526 . S
C2019 C2020 1.396 . S
C2019 C2024 1.390 . S
C2020 C2014 1.465 . S
C2020 C2019 1.396 . S
C2020 C2021 1.399 . S
C2021 H2007 0.929 . S
C2021 C2020 1.399 . S
C2021 C2022 1.385 . S
C2022 H2008 0.931 . S
C2022 C2021 1.385 . S
C2022 C2023 1.389 . S
C2023 C2022 1.389 . S
C2023 C2024 1.387 . S
C2024 H2009 0.930 . S
C2024 C2019 1.390 . S
C2024 C2023 1.387 . S
H2025 C2037 0.930 . S
H2026 C2039 0.930 . S
H2027 C2040 0.930 . S
H2028 C2044 0.959 . S
H2029 C2044 0.959 . S
H2030 C2044 0.961 . S
H2031 C2045 0.960 . S
H2032 C2045 0.961 . S
H2033 C2045 0.959 . S
H2034 C2048 0.929 . S
H2035 C2049 0.931 . S
H2036 C2051 0.930 . S
C2037 H2025 0.930 . S
C2037 C2038 1.399 . S
C2037 C2042 1.399 . S
C2038 C2037 1.399 . S
C2038 C2039 1.376 . S
C2039 H2026 0.930 . S
C2039 C2038 1.376 . S
C2039 C2040 1.388 . S
C2040 H2027 0.930 . S
C2040 C2039 1.388 . S
C2040 C2041 1.390 . S
C2041 C2040 1.390 . S
C2041 C2042 1.394 . S
C2041 C2047 1.465 . S
C2042 C2037 1.399 . S
C2042 C2041 1.394 . S
C2042 C2043 1.516 . S
C2043 C2042 1.516 . S
C2043 C2044 1.502 . S
C2043 C2045 1.561 . S
C2043 C2046 1.526 . S
C2044 H2028 0.959 . S
C2044 H2029 0.959 . S
C2044 H2030 0.961 . S
C2044 C2043 1.502 . S
C2045 H2031 0.960 . S
C2045 H2032 0.961 . S
C2045 H2033 0.959 . S
C2045 C2043 1.561 . S
C2046 C2043 1.526 . S
C2046 C2047 1.396 . S
C2046 C2051 1.390 . S
C2047 C2041 1.465 . S
C2047 C2046 1.396 . S
C2047 C2048 1.399 . S
C2048 H2034 0.929 . S
C2048 C2047 1.399 . S
C2048 C2049 1.385 . S
C2049 H2035 0.931 . S
C2049 C2048 1.385 . S
C2049 C2050 1.389 . S
C2050 C2049 1.389 . S
C2050 C2051 1.387 . S
C2051 H2036 0.930 . S
C2051 C2046 1.390 . S
C2051 C2050 1.387 . S
H2052 C2064 0.930 . S
H2053 C2066 0.930 . S
H2054 C2067 0.930 . S
H2055 C2071 0.959 . S
H2056 C2071 0.959 . S
H2057 C2071 0.961 . S
H2058 C2072 0.960 . S
H2059 C2072 0.961 . S
H2060 C2072 0.959 . S
H2061 C2075 0.929 . S
H2062 C2076 0.931 . S
H2063 C2078 0.930 . S
C2064 H2052 0.930 . S
C2064 C2065 1.399 . S
C2064 C2069 1.399 . S
C2065 C2064 1.399 . S
C2065 C2066 1.376 . S
C2066 H2053 0.930 . S
C2066 C2065 1.376 . S
C2066 C2067 1.388 . S
C2067 H2054 0.930 . S
C2067 C2066 1.388 . S
C2067 C2068 1.390 . S
C2068 C2067 1.390 . S
C2068 C2069 1.394 . S
C2068 C2074 1.465 . S
C2069 C2064 1.399 . S
C2069 C2068 1.394 . S
C2069 C2070 1.516 . S
C2070 C2069 1.516 . S
C2070 C2071 1.502 . S
C2070 C2072 1.561 . S
C2070 C2073 1.526 . S
C2071 H2055 0.959 . S
C2071 H2056 0.959 . S
C2071 H2057 0.961 . S
C2071 C2070 1.502 . S
C2072 H2058 0.960 . S
C2072 H2059 0.961 . S
C2072 H2060 0.959 . S
C2072 C2070 1.561 . S
C2073 C2070 1.526 . S
C2073 C2074 1.396 . S
C2073 C2078 1.390 . S
C2074 C2068 1.465 . S
C2074 C2073 1.396 . S
C2074 C2075 1.399 . S
C2075 H2061 0.929 . S
C2075 C2074 1.399 . S
C2075 C2076 1.385 . S
C2076 H2062 0.931 . S
C2076 C2075 1.385 . S
C2076 C2077 1.389 . S
C2077 C2076 1.389 . S
C2077 C2078 1.387 . S
C2078 H2063 0.930 . S
C2078 C2073 1.390 . S
C2078 C2077 1.387 . S
H2079 C2091 0.930 . S
H2080 C2093 0.930 . S
H2081 C2094 0.930 . S
H2082 C2098 0.959 . S
H2083 C2098 0.959 . S
H2084 C2098 0.961 . S
H2085 C2099 0.960 . S
H2086 C2099 0.961 . S
H2087 C2099 0.959 . S
H2088 C2102 0.929 . S
H2089 C2103 0.931 . S
H2090 C2105 0.930 . S
C2091 H2079 0.930 . S
C2091 C2092 1.399 . S
C2091 C2096 1.399 . S
C2092 C2091 1.399 . S
C2092 C2093 1.376 . S
C2093 H2080 0.930 . S
C2093 C2092 1.376 . S
C2093 C2094 1.388 . S
C2094 H2081 0.930 . S
C2094 C2093 1.388 . S
C2094 C2095 1.390 . S
C2095 C2094 1.390 . S
C2095 C2096 1.394 . S
C2095 C2101 1.465 . S
C2096 C2091 1.399 . S
C2096 C2095 1.394 . S
C2096 C2097 1.516 . S
C2097 C2096 1.516 . S
C2097 C2098 1.502 . S
C2097 C2099 1.561 . S
C2097 C2100 1.526 . S
C2098 H2082 0.959 . S
C2098 H2083 0.959 . S
C2098 H2084 0.961 . S
C2098 C2097 1.502 . S
C2099 H2085 0.960 . S
C2099 H2086 0.961 . S
C2099 H2087 0.959 . S
C2099 C2097 1.561 . S
C2100 C2097 1.526 . S
C2100 C2101 1.396 . S
C2100 C2105 1.390 . S
C2101 C2095 1.465 . S
C2101 C2100 1.396 . S
C2101 C2102 1.399 . S
C2102 H2088 0.929 . S
C2102 C2101 1.399 . S
C2102 C2103 1.385 . S
C2103 H2089 0.931 . S
C2103 C2102 1.385 . S
C2103 C2104 1.389 . S
C2104 C2103 1.389 . S
C2104 C2105 1.387 . S
C2105 H2090 0.930 . S
C2105 C2100 1.390 . S
C2105 C2104 1.387 . S
H2106 C2118 0.930 . S
H2107 C2120 0.930 . S
H2108 C2121 0.930 . S
H2109 C2125 0.959 . S
H2110 C2125 0.959 . S
H2111 C2125 0.961 . S
H2112 C2126 0.960 . S
H2113 C2126 0.961 . S
H2114 C2126 0.959 . S
H2115 C2129 0.929 . S
H2116 C2130 0.931 . S
H2117 C2132 0.930 . S
C2118 H2106 0.930 . S
C2118 C2119 1.399 . S
C2118 C2123 1.399 . S
C2119 C2118 1.399 . S
C2119 C2120 1.376 . S
C2120 H2107 0.930 . S
C2120 C2119 1.376 . S
C2120 C2121 1.388 . S
C2121 H2108 0.930 . S
C2121 C2120 1.388 . S
C2121 C2122 1.390 . S
C2122 C2121 1.390 . S
C2122 C2123 1.394 . S
C2122 C2128 1.465 . S
C2123 C2118 1.399 . S
C2123 C2122 1.394 . S
C2123 C2124 1.516 . S
C2124 C2123 1.516 . S
C2124 C2125 1.502 . S
C2124 C2126 1.561 . S
C2124 C2127 1.526 . S
C2125 H2109 0.959 . S
C2125 H2110 0.959 . S
C2125 H2111 0.961 . S
C2125 C2124 1.502 . S
C2126 H2112 0.960 . S
C2126 H2113 0.961 . S
C2126 H2114 0.959 . S
C2126 C2124 1.561 . S
C2127 C2124 1.526 . S
C2127 C2128 1.396 . S
C2127 C2132 1.390 . S
C2128 C2122 1.465 . S
C2128 C2127 1.396 . S
C2128 C2129 1.399 . S
C2129 H2115 0.929 . S
C2129 C2128 1.399 . S
C2129 C2130 1.385 . S
C2130 H2116 0.931 . S
C2130 C2129 1.385 . S
C2130 C2131 1.389 . S
C2131 C2130 1.389 . S
C2131 C2132 1.387 . S
C2132 H2117 0.930 . S
C2132 C2127 1.390 . S
C2132 C2131 1.387 . S
H2133 C2145 0.930 . S
H2134 C2147 0.930 . S
H2135 C2148 0.930 . S
H2136 C2152 0.959 . S
H2137 C2152 0.959 . S
H2138 C2152 0.961 . S
H2139 C2153 0.960 . S
H2140 C2153 0.961 . S
H2141 C2153 0.959 . S
H2142 C2156 0.929 . S
H2143 C2157 0.931 . S
H2144 C2159 0.930 . S
C2145 H2133 0.930 . S
C2145 C2146 1.399 . S
C2145 C2150 1.399 . S
C2146 C2145 1.399 . S
C2146 C2147 1.376 . S
C2147 H2134 0.930 . S
C2147 C2146 1.376 . S
C2147 C2148 1.388 . S
C2148 H2135 0.930 . S
C2148 C2147 1.388 . S
C2148 C2149 1.390 . S
C2149 C2148 1.390 . S
C2149 C2150 1.394 . S
C2149 C2155 1.465 . S
C2150 C2145 1.399 . S
C2150 C2149 1.394 . S
C2150 C2151 1.516 . S
C2151 C2150 1.516 . S
C2151 C2152 1.502 . S
C2151 C2153 1.561 . S
C2151 C2154 1.526 . S
C2152 H2136 0.959 . S
C2152 H2137 0.959 . S
C2152 H2138 0.961 . S
C2152 C2151 1.502 . S
C2153 H2139 0.960 . S
C2153 H2140 0.961 . S
C2153 H2141 0.959 . S
C2153 C2151 1.561 . S
C2154 C2151 1.526 . S
C2154 C2155 1.396 . S
C2154 C2159 1.390 . S
C2155 C2149 1.465 . S
C2155 C2154 1.396 . S
C2155 C2156 1.399 . S
C2156 H2142 0.929 . S
C2156 C2155 1.399 . S
C2156 C2157 1.385 . S
C2157 H2143 0.931 . S
C2157 C2156 1.385 . S
C2157 C2158 1.389 . S
C2158 C2157 1.389 . S
C2158 C2159 1.387 . S
C2159 H2144 0.930 . S
C2159 C2154 1.390 . S
C2159 C2158 1.387 . S
C715 C253 1.727 . S
C727 C354 1.739 . S
C742 C272 1.829 . S
C754 C394 1.826 . S
C769 C234 1.614 . S
C781 C424 1.558 . S
C796 C215 1.487 . S
C808 C384 1.413 1_556 S
C835 C434 1.537 . S
C823 C177 1.555 . S
C850 C196 1.386 . S
C862 C344 1.413 1_556 S
C889 C373 1.685 . S
C877 C220 1.557 . S
C916 C413 1.637 . S
C904 C182 1.583 . S
C931 C201 1.659 . S
C943 C439 1.704 . S
C958 C258 1.461 . S
C970 C399 1.502 . S
C985 C277 1.379 . S
C997 C453 1.439 . S
C1024 C359 1.572 . S
C1012 C239 1.395 . S
C1051 C474 1.730 . S
C1039 C25 1.732 . S
C1066 C44 1.830 . S
C1078 C514 1.824 . S
C1093 C6 1.602 . S
C1105 C544 1.562 . S
C1120 C329 1.457 . S
C1132 C504 1.476 . S
C1147 C291 1.554 . S
C1159 C554 1.539 . S
C1174 C310 1.396 . S
C1186 C464 1.352 . S
C1201 C334 1.513 . S
C1213 C493 1.712 . S
C1228 C296 1.519 . S
C1240 C533 1.670 . S
C1267 C559 1.745 . S
C1255 C315 1.656 . S
C1282 C30 1.389 . S
C1294 C519 1.558 . S
C1321 C573 1.440 . S
C1309 C49 1.384 1_455 S
C1336 C11 1.417 . S
C1348 C479 1.551 . S
C1375 C594 1.732 . S
C1363 C139 1.704 . S
C1390 C158 1.846 . S
C1402 C634 1.838 . S
C1429 C664 1.559 . S
C1417 C120 1.620 . S
C1456 C624 1.483 . S
C1444 C101 1.468 . S
C1483 C674 1.550 . S
C1471 C63 1.560 . S
C1498 C82 1.403 . S
C1510 C584 1.355 . S
C1525 C106 1.496 . S
C1537 C613 1.716 . S
C1552 C68 1.530 . S
C1564 C653 1.670 . S
C1591 C679 1.750 . S
C1579 C87 1.575 . S
C1606 C144 1.413 . S
C1618 C639 1.565 . S
C1633 C163 1.255 . S
C1645 C693 1.469 . S
C1660 C125 1.367 . S
C1672 C599 1.559 . S
C1687 C287 1.564 . S
C1699 C371 1.591 . S
C1726 C411 2.050 . S
C1714 C306 2.058 . S
C1741 C325 1.614 . S
C1753 C430 1.673 . S
C1768 C116 1.826 . S
C1780 C390 1.880 . S
C1795 C135 1.822 . S
C1807 C451 1.756 . S
C1834 C350 1.340 . S
C1822 C154 1.282 . S
C1849 C59 1.562 . S
C1861 C491 1.565 . S
C1876 C78 2.098 . S
C1888 C531 2.015 . S
C1903 C97 1.650 . S
C1915 C550 1.638 . S
C1930 C230 1.865 . S
C1942 C510 1.842 . S
C1969 C571 1.794 . S
C1957 C249 1.779 . S
C1984 C268 1.290 . S
C1996 C470 1.332 . S
C2011 C173 1.598 . S
C2023 C611 1.554 . S
C2038 C192 2.097 . S
C2050 C651 2.018 . S
C2077 C670 1.674 . S
C2065 C211 1.604 . S
C2092 C2 1.865 . S
C2104 C630 1.842 . S
C2119 C21 1.776 . S
C2131 C691 1.800 . S
C2146 C40 1.298 . S
C2158 C590 1.347 . S
