# Generated by pormake.
# Topology anh, (6,3)-cn, num edge types: 1
# Building blocks:
#     Node 0, Type 0, BuildingBlock: VOLQOD_clean_sbu_1, # of connection points: 6
#     Node 1, Type 0, BuildingBlock: VOLQOD_clean_sbu_1, # of connection points: 6
#     Node 2, Type 0, BuildingBlock: VOLQOD_clean_sbu_1, # of connection points: 6
#     Node 3, Type 1, BuildingBlock: CUQRIR_clean_linker_1, # of connection points: 3
#     Node 4, Type 1, BuildingBlock: CUQRIR_clean_linker_1, # of connection points: 3
#     Node 5, Type 1, BuildingBlock: CUQRIR_clean_linker_1, # of connection points: 3
#     Node 6, Type 1, BuildingBlock: CUQRIR_clean_linker_1, # of connection points: 3
#     Node 7, Type 1, BuildingBlock: CUQRIR_clean_linker_1, # of connection points: 3
#     Node 8, Type 1, BuildingBlock: CUQRIR_clean_linker_1, # of connection points: 3
#     Edge 9, Type (0, 1), BuildingBlock: CIFDUS_clean_linker_0, # of connection points: 2
#     Edge 10, Type (0, 1), BuildingBlock: CIFDUS_clean_linker_0, # of connection points: 2
#     Edge 11, Type (0, 1), BuildingBlock: CIFDUS_clean_linker_0, # of connection points: 2
#     Edge 12, Type (0, 1), BuildingBlock: CIFDUS_clean_linker_0, # of connection points: 2
#     Edge 13, Type (0, 1), BuildingBlock: CIFDUS_clean_linker_0, # of connection points: 2
#     Edge 14, Type (0, 1), BuildingBlock: CIFDUS_clean_linker_0, # of connection points: 2
#     Edge 15, Type (0, 1), BuildingBlock: CIFDUS_clean_linker_0, # of connection points: 2
#     Edge 16, Type (0, 1), BuildingBlock: CIFDUS_clean_linker_0, # of connection points: 2
#     Edge 17, Type (0, 1), BuildingBlock: CIFDUS_clean_linker_0, # of connection points: 2
#     Edge 18, Type (0, 1), BuildingBlock: CIFDUS_clean_linker_0, # of connection points: 2
#     Edge 19, Type (0, 1), BuildingBlock: CIFDUS_clean_linker_0, # of connection points: 2
#     Edge 20, Type (0, 1), BuildingBlock: CIFDUS_clean_linker_0, # of connection points: 2
#     Edge 21, Type (0, 1), BuildingBlock: CIFDUS_clean_linker_0, # of connection points: 2
#     Edge 22, Type (0, 1), BuildingBlock: CIFDUS_clean_linker_0, # of connection points: 2
#     Edge 23, Type (0, 1), BuildingBlock: CIFDUS_clean_linker_0, # of connection points: 2
#     Edge 24, Type (0, 1), BuildingBlock: CIFDUS_clean_linker_0, # of connection points: 2
#     Edge 25, Type (0, 1), BuildingBlock: CIFDUS_clean_linker_0, # of connection points: 2
#     Edge 26, Type (0, 1), BuildingBlock: CIFDUS_clean_linker_0, # of connection points: 2
# Relax obj value: 0.188
# Max RMSD: 0.220
# Mean RMSD: 0.169
data_MOF--net-anh--node1-VOLQOD_clean_sbu_1--node2-CUQRIR_clean_linker_1--edge1-CIFDUS_clean_linker_0
_symmetry_space_group_name_H-M    P1
_symmetry_Int_Tables_number       1
_symmetry_cell_setting            triclinic
loop_
_symmetry_equiv_pos_as_xyz
'x, y, z'
_cell_length_a     23.868196
_cell_length_b     23.890975
_cell_length_c     46.408229
_cell_angle_alpha  84.811126
_cell_angle_beta   90.028794
_cell_angle_gamma 120.68587
loop_
_atom_site_label
_atom_site_type_symbol
_atom_site_fract_x
_atom_site_fract_y
_atom_site_fract_z
_atom_type_partial_charge
O0 O 0.94299 0.47484 0.23451 0.0
Zn1 Zn 0.95908 0.51287 0.19248 0.0
O2 O 0.98787 0.46733 0.1691 0.0
Zn3 Zn 0.92864 0.42614 0.13949 0.0
Zn4 Zn -0.00843 0.39938 0.19407 0.0
Zn5 Zn 0.07102 0.52879 0.14927 0.0
O6 O 0.97231 0.44742 0.09957 0.0
O7 O 0.06568 0.53813 0.10563 0.0
O8 O 0.87955 0.51269 0.17583 0.0
O9 O 0.86667 0.45817 0.13764 0.0
O10 O 0.87182 0.32986 0.15035 0.0
O11 O 0.90931 0.31122 0.19161 0.0
O12 O 0.07378 0.39839 0.18391 0.0
O13 O 0.03353 0.60518 0.19496 0.0
O14 O 0.13118 0.49529 0.15761 0.0
O15 O 0.1112 0.61621 0.16451 0.0
C16 C 0.96757 0.44485 0.24863 0.0
C17 C 0.02512 0.49801 0.08915 0.0
C18 C 0.86705 0.29156 0.17238 0.0
C19 C 0.85003 0.48929 0.15302 0.0
C20 C 0.12642 0.4435 0.17042 0.0
C21 C 0.09083 0.63885 0.183 0.0
O22 O -0.00628 0.4184 0.23561 0.0
O23 O 0.53862 0.0639 0.43382 0.0
Zn24 Zn 0.51486 0.05821 0.47662 0.0
O25 O 0.57653 0.04645 0.5002 0.0
Zn26 Zn 0.63216 0.12015 0.52057 0.0
Zn27 Zn 0.63067 0.03048 0.47537 0.0
Zn28 Zn 0.53022 0.97605 0.52969 0.0
O29 O 0.63099 0.0976 0.56396 0.0
O30 O 0.53585 0.00448 0.56948 0.0
O31 O 0.51359 0.13912 0.48668 0.0
O32 O 0.59601 0.17825 0.51615 0.0
O33 O 0.72196 0.17367 0.50126 0.0
O34 O 0.71483 0.11599 0.46499 0.0
O35 O 0.64415 0.95786 0.49438 0.0
O36 O 0.42464 0.97618 0.48297 0.0
O37 O 0.57044 0.92191 0.53111 0.0
O38 O 0.43854 0.91875 0.51962 0.0
C39 C 0.56101 0.03213 0.42233 0.0
C40 C 0.58389 0.05178 0.58026 0.0
C41 C 0.7452 0.16753 0.47787 0.0
C42 C 0.55131 0.18223 0.50292 0.0
C43 C 0.61379 0.91835 0.5169 0.0
C44 C 0.40306 0.92426 0.50046 0.0
O45 O 0.58913 0.00697 0.43726 0.0
O46 O 0.48908 0.56931 0.77976 0.0
Zn47 Zn 0.48072 0.5476 0.82315 0.0
O48 O 0.55973 0.61361 0.84011 0.0
Zn49 Zn 0.53991 0.65648 0.86829 0.0
Zn50 Zn 0.62136 0.67875 0.81002 0.0
Zn51 Zn 0.59941 0.57125 0.86057 0.0
O52 O 0.56706 0.6447 0.90903 0.0
O53 O 0.58443 0.56354 0.90336 0.0
O54 O 0.3988 0.54157 0.8406 0.0
O55 O 0.44389 0.61503 0.87223 0.0
O56 O 0.56994 0.74936 0.85276 0.0
O57 O 0.617 0.76079 0.8095 0.0
O58 O 0.71447 0.70003 0.81663 0.0
O59 O 0.47463 0.45904 0.82685 0.0
O60 O 0.69446 0.62051 0.85135 0.0
O61 O 0.56635 0.48357 0.84819 0.0
C62 C 0.53852 0.60391 0.76211 0.0
C63 C 0.57656 0.59924 0.91968 0.0
C64 C 0.5959 0.7822 0.82833 0.0
C65 C 0.39377 0.57245 0.86058 0.0
C66 C 0.73381 0.66974 0.83406 0.0
C67 C 0.51622 0.44381 0.83566 0.0
O68 O 0.59415 0.64466 0.77093 0.0
C69 C 0.47894 0.95951 0.21751 0.0
N70 N 0.52299 0.00075 0.23522 0.0
N71 N 0.41721 0.94064 0.22657 0.0
C72 C 0.49609 0.93171 0.19344 0.0
C73 C 0.42534 0.97147 0.2507 0.0
N74 N 0.48932 0.00775 0.25599 0.0
C75 C 0.37112 0.96685 0.26924 0.0
H76 H 0.49855 0.959 0.17238 0.0
H77 H 0.45836 0.87947 0.19261 0.0
H78 H 0.54417 0.93589 0.19647 0.0
H79 H 0.35689 0.92763 0.28732 0.0
H80 H 0.32792 0.95559 0.25649 0.0
H81 H 0.38753 0.01339 0.27876 0.0
C82 C 0.58045 0.54386 0.55286 0.0
N83 N 0.58291 0.58164 0.57345 0.0
N84 N 0.57179 0.48647 0.56524 0.0
C85 C 0.58465 0.56164 0.52068 0.0
C86 C 0.56933 0.49045 0.59404 0.0
N87 N 0.57507 0.54796 0.59905 0.0
C88 C 0.56421 0.4396 0.61723 0.0
H89 H 0.56072 0.51716 0.50905 0.0
H90 H 0.63673 0.59104 0.51298 0.0
H91 H 0.56145 0.59114 0.51535 0.0
H92 H 0.59693 0.46347 0.63483 0.0
H93 H 0.57638 0.4052 0.60845 0.0
H94 H 0.51344 0.41119 0.62674 0.0
C95 C 0.08107 0.64181 0.87747 0.0
N96 N 0.10785 0.6296 0.90119 0.0
N97 N 0.03517 0.65558 0.88525 0.0
C98 C 0.10172 0.64393 0.84657 0.0
C99 C 0.03483 0.65133 0.91453 0.0
N100 N 0.07966 0.63652 0.9242 0.0
C101 C 0.98687 0.65634 0.93358 0.0
H102 H 0.08982 0.67533 0.8319 0.0
H103 H 0.0752 0.59373 0.83982 0.0
H104 H 0.15487 0.66284 0.84434 0.0
H105 H 0.93713 0.62845 0.92548 0.0
H106 H 0.0005 0.70839 0.93258 0.0
H107 H 0.98608 0.638 0.95648 0.0
C108 C 0.05874 0.57404 0.45026 0.0
N109 N 0.02631 0.52906 0.43142 0.0
N110 N 0.09598 0.63466 0.43599 0.0
C111 C 0.04784 0.56022 0.48274 0.0
C112 C 0.08414 0.62504 0.40776 0.0
N113 N 0.04116 0.56121 0.40503 0.0
C114 C 0.11861 0.67663 0.38257 0.0
H115 H -0.0026 0.51952 0.48888 0.0
H116 H 0.05618 0.60428 0.49263 0.0
H117 H 0.08232 0.54586 0.49169 0.0
H118 H 0.16943 0.71231 0.38752 0.0
H119 H 0.09218 0.70326 0.37812 0.0
H120 H 0.11966 0.6544 0.36274 0.0
C121 C 0.59483 0.138 0.78762 0.0
N122 N 0.60458 0.1068 0.76689 0.0
N123 N 0.59236 0.1902 0.77547 0.0
C124 C 0.59003 0.11921 0.81982 0.0
C125 C 0.60242 0.19093 0.74676 0.0
N126 N 0.61048 0.1406 0.74153 0.0
C127 C 0.60551 0.24136 0.72386 0.0
H128 H 0.53834 0.08347 0.82676 0.0
H129 H 0.6063 0.16196 0.83221 0.0
H130 H 0.61976 0.09657 0.82546 0.0
H131 H 0.65741 0.2783 0.71789 0.0
H132 H 0.58146 0.26686 0.73166 0.0
H133 H 0.58229 0.21819 0.70411 0.0
C134 C 0.46036 0.40323 0.12548 0.0
N135 N 0.50671 0.42457 0.10372 0.0
N136 N 0.40312 0.39191 0.11489 0.0
C137 C 0.4702 0.39264 0.15704 0.0
C138 C 0.4163 0.40787 0.08601 0.0
N139 N 0.47898 0.42702 0.07915 0.0
C140 C 0.36981 0.41112 0.06497 0.0
H141 H 0.4231 0.35697 0.16893 0.0
H142 H 0.49078 0.43982 0.16655 0.0
H143 H 0.50483 0.37479 0.15984 0.0
H144 H 0.37103 0.45793 0.06607 0.0
H145 H 0.31922 0.3705 0.07076 0.0
H146 H 0.38353 0.40895 0.04244 0.0
H147 H 0.13082 0.33679 0.15817 0.0
H148 H 0.25064 0.53635 0.17763 0.0
H149 H 0.34924 0.53421 0.16608 0.0
H150 H 0.40058 0.48098 0.1439 0.0
H151 H 0.28224 0.28593 0.11985 0.0
H152 H 0.18357 0.27983 0.1398 0.0
C153 C 0.17864 0.37899 0.16053 0.0
C154 C 0.18397 0.43664 0.16863 0.0
C155 C 0.2351 0.37827 0.15267 0.0
C156 C 0.24585 0.49161 0.17128 0.0
C157 C 0.30209 0.49048 0.16461 0.0
C158 C 0.35314 0.43681 0.14383 0.0
C159 C 0.34765 0.38393 0.13072 0.0
C160 C 0.29722 0.43495 0.15433 0.0
C161 C 0.28659 0.32688 0.13006 0.0
C162 C 0.23057 0.32368 0.14129 0.0
H163 H 0.87389 0.23959 0.48899 0.0
H164 H 0.72896 0.23105 0.43128 0.0
H165 H 0.8044 0.34321 0.41027 0.0
H166 H 0.90662 0.44783 0.41293 0.0
H167 H 0.05712 0.45288 0.46583 0.0
H168 H 0.98458 0.33831 0.48448 0.0
C169 C 0.85987 0.26193 0.47125 0.0
C170 C 0.79652 0.22773 0.46154 0.0
C171 C 0.90387 0.32608 0.45894 0.0
C172 C 0.7781 0.25674 0.43874 0.0
C173 C 0.82089 0.32094 0.42694 0.0
C174 C 0.92427 0.42334 0.42778 0.0
C175 C 0.98646 0.45915 0.4386 0.0
C176 C 0.88327 0.35674 0.43746 0.0
C177 C 0.00842 0.42672 0.45806 0.0
C178 C 0.96723 0.36115 0.46852 0.0
H179 H 0.67441 0.88679 0.78904 0.0
H180 H 0.50529 0.80747 0.84805 0.0
H181 H 0.48814 0.89661 0.83086 0.0
H182 H 0.52038 -0.00352 0.79913 0.0
H183 H 0.6979 0.08665 0.74552 0.0
H184 H 0.7108 0.9922 0.75904 0.0
C185 C 0.63428 0.88956 0.79828 0.0
C186 C 0.5915 0.84087 0.81993 0.0
C187 C 0.62533 0.94192 0.7887 0.0
C188 C 0.53956 0.84486 0.83172 0.0
C189 C 0.52921 0.89539 0.82167 0.0
C190 C 0.56225 -0.00434 0.7907 0.0
C191 C 0.60841 0.04843 0.77166 0.0
C192 C 0.57166 0.94398 0.8002 0.0
C193 C 0.66137 0.04611 0.76001 0.0
C194 C 0.66921 0.99266 0.76809 0.0
H195 H 0.76822 0.42728 0.11152 0.0
H196 H 0.80001 0.55825 0.17621 0.0
H197 H 0.69837 0.55515 0.16425 0.0
H198 H 0.59673 0.5088 0.13734 0.0
H199 H 0.56245 0.36856 0.07741 0.0
H200 H 0.67002 0.38324 0.08479 0.0
C201 C 0.75364 0.45587 0.12294 0.0
C202 C 0.79178 0.49284 0.14483 0.0
C203 C 0.69485 0.4525 0.11652 0.0
C204 C 0.77153 0.5292 0.15934 0.0
C205 C 0.71342 0.5274 0.15251 0.0
C206 C 0.61342 0.48203 0.12585 0.0
C207 C 0.5726 0.4387 0.10633 0.0
C208 C 0.67414 0.48825 0.13147 0.0
C209 C 0.59413 0.404 0.09154 0.0
C210 C 0.65513 0.41155 0.0962 0.0
H211 H 0.30437 0.91511 0.46703 0.0
H212 H 0.36157 0.79916 0.52228 0.0
H213 H 0.27057 0.69937 0.50751 0.0
H214 H 0.18242 0.64528 0.47502 0.0
H215 H 0.11585 0.75691 0.42346 0.0
H216 H 0.20394 0.85837 0.43997 0.0
C217 C 0.29617 0.86798 0.47622 0.0
C218 C 0.3404 0.86497 0.49547 0.0
C219 C 0.24301 0.81008 0.4678 0.0
C220 C 0.32862 0.80334 0.50739 0.0
C221 C 0.27673 0.74597 0.49881 0.0
C222 C 0.18589 0.69152 0.46809 0.0
C223 C 0.14328 0.69373 0.44782 0.0
C224 C 0.23475 0.74886 0.4785 0.0
C225 C 0.14924 0.75427 0.43853 0.0
C226 C 0.19918 0.81211 0.44815 0.0
H227 H 0.60871 0.41143 0.84257 0.0
H228 H 0.41839 0.34332 0.80872 0.0
H229 H 0.42415 0.25562 0.78785 0.0
H230 H 0.48796 0.20391 0.77611 0.0
H231 H 0.68097 0.27966 0.80691 0.0
H232 H 0.67017 0.3599 0.83201 0.0
C233 C 0.56782 0.37702 0.831 0.0
C234 C 0.51317 0.38411 0.82719 0.0
C235 C 0.57263 0.32886 0.81818 0.0
C236 C 0.46097 0.33894 0.81202 0.0
C237 C 0.46447 0.28913 0.79991 0.0
C238 C 0.52717 0.23818 0.78844 0.0
C239 C 0.58509 0.23665 0.78999 0.0
C240 C 0.52077 0.28467 0.80228 0.0
C241 C 0.63616 0.28065 0.80576 0.0
C242 C 0.62983 0.32609 0.82003 0.0
H243 H 0.54359 0.82008 0.55863 0.0
H244 H 0.70643 0.89294 0.49643 0.0
H245 H 0.71528 0.79638 0.51079 0.0
H246 H 0.67168 0.6881 0.53929 0.0
H247 H 0.50171 0.61339 0.59695 0.0
H248 H 0.50177 0.7154 0.58675 0.0
C249 C 0.58159 0.8156 0.54821 0.0
C250 C 0.62418 0.86368 0.52634 0.0
C251 C 0.58512 0.75978 0.55595 0.0
C252 C 0.67288 0.85652 0.51323 0.0
C253 C 0.67788 0.80138 0.52142 0.0
C254 C 0.63473 0.6945 0.54944 0.0
C255 C 0.58668 0.64375 0.56881 0.0
C256 C 0.63344 0.75217 0.54241 0.0
C257 C 0.53961 0.65239 0.58235 0.0
C258 C 0.5393 0.7103 0.57629 0.0
H259 H 0.78369 0.5962 0.82295 0.0
H260 H 0.83554 0.78471 0.84869 0.0
H261 H 0.94063 0.80098 0.86454 0.0
H262 H 0.0086 0.75229 0.87817 0.0
H263 H 0.9532 0.56221 0.85335 0.0
H264 H 0.8588 0.55551 0.82956 0.0
C265 C 0.81921 0.64178 0.83108 0.0
C266 C 0.80275 0.68935 0.83467 0.0
C267 C 0.87813 0.64972 0.8407 0.0
C268 C 0.84812 0.74801 0.84545 0.0
C269 C 0.90761 0.7568 0.85484 0.0
C270 C 0.97627 0.71027 0.867 0.0
C271 C 0.98687 0.65755 0.86749 0.0
C272 C 0.92178 0.70667 0.8537 0.0
C273 C 0.94556 0.60321 0.85295 0.0
C274 C 0.89163 0.59932 0.83956 0.0
H275 H 0.18881 0.75007 0.15375 0.0
H276 H 0.10251 0.66064 0.23942 0.0
H277 H 0.19675 0.74736 0.26092 0.0
H278 H 0.30924 0.8405 0.25513 0.0
H279 H 0.38987 0.93931 0.17004 0.0
H280 H 0.29316 0.85584 0.1483 0.0
C281 C 0.19008 0.75073 0.17709 0.0
C282 C 0.13918 0.69919 0.195 0.0
C283 C 0.24403 0.80122 0.18932 0.0
C284 C 0.14096 0.70029 0.22521 0.0
C285 C 0.19514 0.74939 0.23752 0.0
C286 C 0.30482 0.84507 0.23194 0.0
C287 C 0.35716 0.89539 0.21418 0.0
C288 C 0.24775 0.79899 0.21978 0.0
C289 C 0.35108 0.89977 0.18406 0.0
C290 C 0.29552 0.85254 0.17167 0.0
H291 H 0.64659 0.2999 0.51485 0.0
H292 H 0.43997 0.18977 0.50248 0.0
H293 H 0.42814 0.27771 0.51972 0.0
H294 H 0.47636 0.38169 0.54298 0.0
H295 H 0.68212 0.48745 0.55614 0.0
H296 H 0.69513 0.40495 0.53417 0.0
C297 C 0.59894 0.29531 0.51566 0.0
C298 C 0.54403 0.23828 0.50784 0.0
C299 C 0.59257 0.34481 0.52611 0.0
C300 C 0.48288 0.2334 0.5084 0.0
C301 C 0.47611 0.2833 0.5185 0.0
C302 C 0.52372 0.38616 0.54071 0.0
C303 C 0.57836 0.43924 0.55117 0.0
C304 C 0.53039 0.33838 0.52818 0.0
C305 C 0.63993 0.44613 0.54824 0.0
C306 C 0.64716 0.39931 0.53572 0.0
H307 H 0.3714 0.63599 0.90023 0.0
H308 H 0.27261 0.49124 0.84031 0.0
H309 H 0.17131 0.48995 0.85088 0.0
H310 H 0.11432 0.53827 0.87376 0.0
H311 H 0.21892 0.69158 0.92885 0.0
H312 H 0.31421 0.67977 0.92439 0.0
C313 C 0.32773 0.60348 0.88958 0.0
C314 C 0.32995 0.56425 0.86921 0.0
C315 C 0.27068 0.60451 0.89506 0.0
C316 C 0.27247 0.52222 0.85593 0.0
C317 C 0.21461 0.52161 0.86192 0.0
C318 C 0.15808 0.56878 0.88478 0.0
C319 C 0.16002 0.61593 0.90153 0.0
C320 C 0.21371 0.56388 0.88086 0.0
C321 C 0.21615 0.65437 0.91627 0.0
C322 C 0.2708 0.64816 0.91338 0.0
H323 H 0.82411 0.20541 0.2218 0.0
H324 H 0.76926 0.2349 0.13547 0.0
H325 H 0.65816 0.14592 0.1475 0.0
H326 H 0.57388 0.06985 0.18397 0.0
H327 H 0.62718 0.0319 0.26904 0.0
H328 H 0.74108 0.11573 0.25643 0.0
C329 C 0.78829 0.19139 0.20539 0.0
C330 C 0.80512 0.22778 0.17789 0.0
C331 C 0.72376 0.14003 0.21248 0.0
C332 C 0.75788 0.20849 0.15691 0.0
C333 C 0.69402 0.15775 0.16379 0.0
C334 C 0.61061 0.07844 0.19952 0.0
C335 C 0.59158 0.04518 0.22755 0.0
C336 C 0.67605 0.12478 0.19175 0.0
C337 C 0.63973 0.0581 0.24765 0.0
C338 C 0.70519 0.10551 0.24027 0.0
H339 H 0.1044 0.61587 0.05816 0.0
H340 H 0.97195 0.41182 0.04848 0.0
H341 H 0.98372 0.43611 0.99581 0.0
H342 H 0.02438 0.51701 0.95246 0.0
H343 H 0.14833 0.72127 0.96234 0.0
H344 H 0.14827 0.69584 0.01485 0.0
C345 C 0.07886 0.57658 0.04452 0.0
C346 C 0.03725 0.51214 0.05726 0.0
C347 C 0.08444 0.59116 0.01425 0.0
C348 C 0.00397 0.46191 0.03925 0.0
C349 C 0.01069 0.47572 0.00911 0.0
C350 C 0.05238 0.55533 0.96626 0.0
C351 C 0.08736 0.62057 0.95396 0.0
C352 C 0.04977 0.54029 0.99639 0.0
C353 C 0.12219 0.6707 0.97167 0.0
C354 C 0.12166 0.65611 1.00156 0.0
H355 H 0.54844 0.10914 0.37861 0.0
H356 H 0.55518 0.93219 0.39637 0.0
H357 H 0.53746 0.91142 0.34576 0.0
H358 H 0.51414 0.94016 0.2969 0.0
H359 H 0.51156 0.11803 0.27769 0.0
H360 H 0.53388 0.14258 0.32829 0.0
C361 C 0.54612 0.06617 0.37132 0.0
C362 C 0.55251 0.02196 0.39128 0.0
C363 C 0.53701 0.055 0.34195 0.0
C364 C 0.55039 0.96697 0.38148 0.0
C365 C 0.54019 0.95495 0.35254 0.0
C366 C 0.52004 0.98491 0.30388 0.0
C367 C 0.51249 0.02793 0.28394 0.0
C368 C 0.53291 -0.00173 0.33269 0.0
C369 C 0.51853 0.08518 0.29286 0.0
C370 C 0.53072 0.09872 0.32171 0.0
H371 H 0.63001 0.66961 0.71725 0.0
H372 H 0.43308 0.50851 0.73741 0.0
H373 H 0.42664 0.47819 0.68831 0.0
H374 H 0.47915 0.49294 0.64032 0.0
H375 H 0.67432 0.65385 0.61947 0.0
H376 H 0.67952 0.68917 0.66804 0.0
C377 C 0.58543 0.62829 0.71085 0.0
C378 C 0.53238 0.59119 0.7312 0.0
C379 C 0.58198 0.61079 0.68249 0.0
C380 C 0.47483 0.53802 0.72234 0.0
C381 C 0.47108 0.52034 0.69425 0.0
C382 C 0.52255 0.53569 0.64662 0.0
C383 C 0.5766 0.57054 0.62688 0.0
C384 C 0.52472 0.55555 0.67434 0.0
C385 C 0.63246 0.62655 0.63465 0.0
C386 C 0.63531 0.64649 0.66231 0.0
H387 H 0.67766 0.14318 0.61145 0.0
H388 H 0.48887 0.96556 0.62092 0.0
H389 H 0.48374 0.97336 0.67275 0.0
H390 H 0.52871 0.03599 0.71496 0.0
H391 H 0.7153 0.21419 0.70525 0.0
H392 H 0.72621 0.20068 0.65418 0.0
C393 C 0.63559 0.10586 0.62485 0.0
C394 C 0.58348 0.05432 0.61212 0.0
C395 C 0.63265 0.11078 0.6547 0.0
C396 C 0.52958 0.00615 0.62998 0.0
C397 C 0.52652 0.01047 0.6597 0.0
C398 C 0.57217 0.0707 0.70164 0.0
C399 C 0.62123 0.12587 0.71344 0.0
C400 C 0.57719 0.06317 0.67222 0.0
C401 C 0.67722 0.17144 0.69626 0.0
C402 C 0.68317 0.16384 0.66716 0.0
H403 H 0.56405 0.48913 0.94812 0.0
H404 H 0.57697 0.67115 0.96283 0.0
H405 H 0.55673 0.63665 0.01496 0.0
H406 H 0.52417 0.54948 0.05572 0.0
H407 H 0.49828 0.36387 0.03908 0.0
H408 H 0.5361 0.40506 0.98843 0.0
C409 C 0.56352 0.52191 0.96269 0.0
C410 C 0.57191 0.58267 0.95151 0.0
C411 C 0.54984 0.50095 0.99237 0.0
C412 C 0.57044 0.62406 0.97081 0.0
C413 C 0.5588 0.60431 1.00062 0.0
C414 C 0.52889 0.51922 0.04098 0.0
C415 C 0.5115 0.4549 0.05108 0.0
C416 C 0.547 0.54225 0.01155 0.0
C417 C 0.51463 0.41447 0.0319 0.0
C418 C 0.53509 0.43772 0.00291 0.0
H419 H 0.93005 0.50826 0.28257 0.0
H420 H 0.01914 0.38965 0.28617 0.0
H421 H 0.0446 0.4101 0.3365 0.0
H422 H 0.05234 0.4721 0.37797 0.0
H423 H 0.96694 0.59325 0.37305 0.0
H424 H 0.92895 0.56142 0.3249 0.0
C425 C 0.95411 0.48593 0.29443 0.0
C426 C 0.97321 0.44806 0.28039 0.0
C427 C 0.96986 0.49897 0.32314 0.0
C428 C 0.00417 0.41941 0.29629 0.0
C429 C 0.01903 0.43125 0.3251 0.0
C430 C 0.02439 0.49025 0.36638 0.0
C431 C 0.01243 0.53499 0.3786 0.0
C432 C 0.00378 0.47249 0.33849 0.0
C433 C 0.97661 0.55894 0.36366 0.0
C434 C 0.9551 0.54083 0.33624 0.0
loop_
_geom_bond_atom_site_label_1
_geom_bond_atom_site_label_2
_geom_bond_distance
_geom_bond_site_symmetry_2
_ccdc_geom_bond_type
O0 Zn1 1.953 1_655 S
O0 C16 1.225 1_655 S
Zn1 O0 1.953 1_455 S
Zn1 O2 1.949 . S
Zn1 O8 1.919 1_455 S
Zn1 O13 1.924 . S
O2 Zn1 1.949 . S
O2 Zn3 1.923 1_455 S
O2 Zn4 1.950 . S
O2 Zn5 1.945 . S
Zn3 O2 1.923 1_655 S
Zn3 O6 1.933 . S
Zn3 O9 1.941 . S
Zn3 O10 1.965 . S
Zn4 O2 1.950 . S
Zn4 O11 1.938 1_455 S
Zn4 O12 1.906 . S
Zn4 O22 1.953 . S
Zn5 O2 1.945 . S
Zn5 O7 1.932 . S
Zn5 O14 1.977 . S
Zn5 O15 1.910 . S
O6 Zn3 1.933 . S
O6 C17 1.226 1_655 S
O7 Zn5 1.932 . S
O7 C17 1.307 . S
O8 Zn1 1.919 1_655 S
O8 C19 1.253 . S
O9 Zn3 1.941 . S
O9 C19 1.283 . S
O10 Zn3 1.965 . S
O10 C18 1.303 . S
O11 Zn4 1.938 1_655 S
O11 C18 1.247 . S
O12 Zn4 1.906 . S
O12 C20 1.304 . S
O13 Zn1 1.924 . S
O13 C21 1.311 . S
O14 Zn5 1.977 . S
O14 C20 1.272 . S
O15 Zn5 1.910 . S
O15 C21 1.231 . S
C16 O0 1.225 1_455 S
C16 O22 1.298 . S
C17 O6 1.226 1_455 S
C17 O7 1.307 . S
C18 O10 1.303 . S
C18 O11 1.247 . S
C19 O8 1.253 . S
C19 O9 1.283 . S
C20 O12 1.304 . S
C20 O14 1.272 . S
C21 O13 1.311 . S
C21 O15 1.231 . S
O22 Zn4 1.953 . S
O22 C16 1.298 . S
O23 Zn24 1.953 . S
O23 C39 1.225 . S
Zn24 O23 1.953 . S
Zn24 O25 1.949 . S
Zn24 O31 1.919 . S
Zn24 O36 1.924 1_545 S
O25 Zn24 1.949 . S
O25 Zn26 1.923 . S
O25 Zn27 1.950 . S
O25 Zn28 1.945 1_545 S
Zn26 O25 1.923 . S
Zn26 O29 1.933 . S
Zn26 O32 1.941 . S
Zn26 O33 1.965 . S
Zn27 O25 1.950 . S
Zn27 O34 1.938 . S
Zn27 O35 1.906 1_545 S
Zn27 O45 1.953 . S
Zn28 O25 1.945 1_565 S
Zn28 O30 1.932 . S
Zn28 O37 1.977 . S
Zn28 O38 1.910 . S
O29 Zn26 1.933 . S
O29 C40 1.226 . S
O30 Zn28 1.932 . S
O30 C40 1.307 1_565 S
O31 Zn24 1.919 . S
O31 C42 1.253 . S
O32 Zn26 1.941 . S
O32 C42 1.283 . S
O33 Zn26 1.965 . S
O33 C41 1.303 . S
O34 Zn27 1.938 . S
O34 C41 1.247 . S
O35 Zn27 1.906 1_565 S
O35 C43 1.304 . S
O36 Zn24 1.924 1_565 S
O36 C44 1.311 . S
O37 Zn28 1.977 . S
O37 C43 1.272 . S
O38 Zn28 1.910 . S
O38 C44 1.231 . S
C39 O23 1.225 . S
C39 O45 1.298 . S
C40 O29 1.226 . S
C40 O30 1.307 1_545 S
C41 O33 1.303 . S
C41 O34 1.247 . S
C42 O31 1.253 . S
C42 O32 1.283 . S
C43 O35 1.304 . S
C43 O37 1.272 . S
C44 O36 1.311 . S
C44 O38 1.231 . S
O45 Zn27 1.953 . S
O45 C39 1.298 . S
O46 Zn47 1.953 . S
O46 C62 1.225 . S
Zn47 O46 1.953 . S
Zn47 O48 1.949 . S
Zn47 O54 1.919 . S
Zn47 O59 1.924 . S
O48 Zn47 1.949 . S
O48 Zn49 1.923 . S
O48 Zn50 1.950 . S
O48 Zn51 1.945 . S
Zn49 O48 1.923 . S
Zn49 O52 1.933 . S
Zn49 O55 1.941 . S
Zn49 O56 1.965 . S
Zn50 O48 1.950 . S
Zn50 O57 1.938 . S
Zn50 O58 1.906 . S
Zn50 O68 1.953 . S
Zn51 O48 1.945 . S
Zn51 O53 1.932 . S
Zn51 O60 1.977 . S
Zn51 O61 1.910 . S
O52 Zn49 1.933 . S
O52 C63 1.226 . S
O53 Zn51 1.932 . S
O53 C63 1.307 . S
O54 Zn47 1.919 . S
O54 C65 1.253 . S
O55 Zn49 1.941 . S
O55 C65 1.283 . S
O56 Zn49 1.965 . S
O56 C64 1.303 . S
O57 Zn50 1.938 . S
O57 C64 1.247 . S
O58 Zn50 1.906 . S
O58 C66 1.304 . S
O59 Zn47 1.924 . S
O59 C67 1.311 . S
O60 Zn51 1.977 . S
O60 C66 1.272 . S
O61 Zn51 1.910 . S
O61 C67 1.231 . S
C62 O46 1.225 . S
C62 O68 1.298 . S
C63 O52 1.226 . S
C63 O53 1.307 . S
C64 O56 1.303 . S
C64 O57 1.247 . S
C65 O54 1.253 . S
C65 O55 1.283 . S
C66 O58 1.304 . S
C66 O60 1.272 . S
C67 O59 1.311 . S
C67 O61 1.231 . S
O68 Zn50 1.953 . S
O68 C62 1.298 . S
C69 N70 1.317 . S
C69 N71 1.348 1_545 S
C69 C72 1.485 . S
N70 C69 1.317 . S
N70 N74 1.370 . S
N71 C69 1.348 1_565 S
N71 C73 1.346 . S
C72 C69 1.485 . S
C72 H76 0.960 . S
C72 H77 0.961 1_545 S
C72 H78 0.960 . S
C73 N71 1.346 . S
C73 N74 1.307 1_565 S
C73 C75 1.486 . S
N74 N70 1.370 . S
N74 C73 1.307 1_545 S
C75 C73 1.486 . S
C75 H79 0.960 . S
C75 H80 0.960 . S
C75 H81 0.959 . S
H76 C72 0.960 . S
H77 C72 0.961 1_565 S
H78 C72 0.960 . S
H79 C75 0.960 . S
H80 C75 0.960 . S
H81 C75 0.959 . S
C82 N83 1.317 . S
C82 N84 1.348 . S
C82 C85 1.485 . S
N83 C82 1.317 . S
N83 N87 1.370 . S
N84 C82 1.348 . S
N84 C86 1.346 . S
C85 C82 1.485 . S
C85 H89 0.960 . S
C85 H90 0.961 . S
C85 H91 0.960 . S
C86 N84 1.346 . S
C86 N87 1.307 . S
C86 C88 1.486 . S
N87 N83 1.370 . S
N87 C86 1.307 . S
C88 C86 1.486 . S
C88 H92 0.960 . S
C88 H93 0.960 . S
C88 H94 0.959 . S
H89 C85 0.960 . S
H90 C85 0.961 . S
H91 C85 0.960 . S
H92 C88 0.960 . S
H93 C88 0.960 . S
H94 C88 0.959 . S
C95 N96 1.317 . S
C95 N97 1.348 1_455 S
C95 C98 1.485 . S
N96 C95 1.317 . S
N96 N100 1.370 . S
N97 C95 1.348 1_655 S
N97 C99 1.346 1_655 S
C98 C95 1.485 . S
C98 H102 0.960 . S
C98 H103 0.961 . S
C98 H104 0.960 . S
C99 N97 1.346 1_455 S
C99 N100 1.307 . S
C99 C101 1.486 1_455 S
N100 N96 1.370 . S
N100 C99 1.307 . S
C101 C99 1.486 1_655 S
C101 H105 0.960 . S
C101 H106 0.960 . S
C101 H107 0.959 . S
H102 C98 0.960 . S
H103 C98 0.961 . S
H104 C98 0.960 . S
H105 C101 0.960 . S
H106 C101 0.960 . S
H107 C101 0.959 . S
C108 N109 1.317 . S
C108 N110 1.348 . S
C108 C111 1.485 . S
N109 C108 1.317 . S
N109 N113 1.370 . S
N110 C108 1.348 . S
N110 C112 1.346 . S
C111 C108 1.485 . S
C111 H115 0.960 . S
C111 H116 0.961 . S
C111 H117 0.960 . S
C112 N110 1.346 . S
C112 N113 1.307 . S
C112 C114 1.486 . S
N113 N109 1.370 . S
N113 C112 1.307 . S
C114 C112 1.486 . S
C114 H118 0.960 . S
C114 H119 0.960 . S
C114 H120 0.959 . S
H115 C111 0.960 . S
H116 C111 0.961 . S
H117 C111 0.960 . S
H118 C114 0.960 . S
H119 C114 0.960 . S
H120 C114 0.959 . S
C121 N122 1.317 . S
C121 N123 1.348 . S
C121 C124 1.485 . S
N122 C121 1.317 . S
N122 N126 1.370 . S
N123 C121 1.348 . S
N123 C125 1.346 . S
C124 C121 1.485 . S
C124 H128 0.960 . S
C124 H129 0.961 . S
C124 H130 0.960 . S
C125 N123 1.346 . S
C125 N126 1.307 . S
C125 C127 1.486 . S
N126 N122 1.370 . S
N126 C125 1.307 . S
C127 C125 1.486 . S
C127 H131 0.960 . S
C127 H132 0.960 . S
C127 H133 0.959 . S
H128 C124 0.960 . S
H129 C124 0.961 . S
H130 C124 0.960 . S
H131 C127 0.960 . S
H132 C127 0.960 . S
H133 C127 0.959 . S
C134 N135 1.317 . S
C134 N136 1.348 . S
C134 C137 1.485 . S
N135 C134 1.317 . S
N135 N139 1.370 . S
N136 C134 1.348 . S
N136 C138 1.346 . S
C137 C134 1.485 . S
C137 H141 0.960 . S
C137 H142 0.961 . S
C137 H143 0.960 . S
C138 N136 1.346 . S
C138 N139 1.307 . S
C138 C140 1.486 . S
N139 N135 1.370 . S
N139 C138 1.307 . S
C140 C138 1.486 . S
C140 H144 0.960 . S
C140 H145 0.960 . S
C140 H146 0.959 . S
H141 C137 0.960 . S
H142 C137 0.961 . S
H143 C137 0.960 . S
H144 C140 0.960 . S
H145 C140 0.960 . S
H146 C140 0.959 . S
H147 C153 0.930 . S
H148 C156 0.930 . S
H149 C157 0.930 . S
H150 C158 0.930 . S
H151 C161 0.930 . S
H152 C162 0.930 . S
C153 H147 0.930 . S
C153 C154 1.355 . S
C153 C155 1.415 . S
C154 C153 1.355 . S
C154 C156 1.419 . S
C155 C153 1.415 . S
C155 C160 1.425 . S
C155 C162 1.409 . S
C156 H148 0.930 . S
C156 C154 1.419 . S
C156 C157 1.362 . S
C157 H149 0.930 . S
C157 C156 1.362 . S
C157 C160 1.409 . S
C158 H150 0.930 . S
C158 C159 1.355 . S
C158 C160 1.415 . S
C159 C158 1.355 . S
C159 C161 1.419 . S
C160 C155 1.425 . S
C160 C157 1.409 . S
C160 C158 1.415 . S
C161 H151 0.930 . S
C161 C159 1.419 . S
C161 C162 1.362 . S
C162 H152 0.930 . S
C162 C155 1.409 . S
C162 C161 1.362 . S
H163 C169 0.930 . S
H164 C172 0.930 . S
H165 C173 0.930 . S
H166 C174 0.930 . S
H167 C177 0.930 1_455 S
H168 C178 0.930 . S
C169 H163 0.930 . S
C169 C170 1.355 . S
C169 C171 1.415 . S
C170 C169 1.355 . S
C170 C172 1.419 . S
C171 C169 1.415 . S
C171 C176 1.425 . S
C171 C178 1.409 . S
C172 H164 0.930 . S
C172 C170 1.419 . S
C172 C173 1.362 . S
C173 H165 0.930 . S
C173 C172 1.362 . S
C173 C176 1.409 . S
C174 H166 0.930 . S
C174 C175 1.355 . S
C174 C176 1.415 . S
C175 C174 1.355 . S
C175 C177 1.419 . S
C176 C171 1.425 . S
C176 C173 1.409 . S
C176 C174 1.415 . S
C177 H167 0.930 1_655 S
C177 C175 1.419 . S
C177 C178 1.362 . S
C178 H168 0.930 . S
C178 C171 1.409 . S
C178 C177 1.362 . S
H179 C185 0.930 . S
H180 C188 0.930 . S
H181 C189 0.930 . S
H182 C190 0.930 . S
H183 C193 0.930 . S
H184 C194 0.930 . S
C185 H179 0.930 . S
C185 C186 1.355 . S
C185 C187 1.415 . S
C186 C185 1.355 . S
C186 C188 1.419 . S
C187 C185 1.415 . S
C187 C192 1.425 . S
C187 C194 1.409 . S
C188 H180 0.930 . S
C188 C186 1.419 . S
C188 C189 1.362 . S
C189 H181 0.930 . S
C189 C188 1.362 . S
C189 C192 1.409 . S
C190 H182 0.930 . S
C190 C191 1.355 . S
C190 C192 1.415 . S
C191 C190 1.355 . S
C191 C193 1.419 1_565 S
C192 C187 1.425 . S
C192 C189 1.409 . S
C192 C190 1.415 . S
C193 H183 0.930 . S
C193 C191 1.419 1_545 S
C193 C194 1.362 1_545 S
C194 H184 0.930 . S
C194 C187 1.409 . S
C194 C193 1.362 1_565 S
H195 C201 0.930 . S
H196 C204 0.930 . S
H197 C205 0.930 . S
H198 C206 0.930 . S
H199 C209 0.930 . S
H200 C210 0.930 . S
C201 H195 0.930 . S
C201 C202 1.355 . S
C201 C203 1.415 . S
C202 C201 1.355 . S
C202 C204 1.419 . S
C203 C201 1.415 . S
C203 C208 1.425 . S
C203 C210 1.409 . S
C204 H196 0.930 . S
C204 C202 1.419 . S
C204 C205 1.362 . S
C205 H197 0.930 . S
C205 C204 1.362 . S
C205 C208 1.409 . S
C206 H198 0.930 . S
C206 C207 1.355 . S
C206 C208 1.415 . S
C207 C206 1.355 . S
C207 C209 1.419 . S
C208 C203 1.425 . S
C208 C205 1.409 . S
C208 C206 1.415 . S
C209 H199 0.930 . S
C209 C207 1.419 . S
C209 C210 1.362 . S
C210 H200 0.930 . S
C210 C203 1.409 . S
C210 C209 1.362 . S
H211 C217 0.930 . S
H212 C220 0.930 . S
H213 C221 0.930 . S
H214 C222 0.930 . S
H215 C225 0.930 . S
H216 C226 0.930 . S
C217 H211 0.930 . S
C217 C218 1.355 . S
C217 C219 1.415 . S
C218 C217 1.355 . S
C218 C220 1.419 . S
C219 C217 1.415 . S
C219 C224 1.425 . S
C219 C226 1.409 . S
C220 H212 0.930 . S
C220 C218 1.419 . S
C220 C221 1.362 . S
C221 H213 0.930 . S
C221 C220 1.362 . S
C221 C224 1.409 . S
C222 H214 0.930 . S
C222 C223 1.355 . S
C222 C224 1.415 . S
C223 C222 1.355 . S
C223 C225 1.419 . S
C224 C219 1.425 . S
C224 C221 1.409 . S
C224 C222 1.415 . S
C225 H215 0.930 . S
C225 C223 1.419 . S
C225 C226 1.362 . S
C226 H216 0.930 . S
C226 C219 1.409 . S
C226 C225 1.362 . S
H227 C233 0.930 . S
H228 C236 0.930 . S
H229 C237 0.930 . S
H230 C238 0.930 . S
H231 C241 0.930 . S
H232 C242 0.930 . S
C233 H227 0.930 . S
C233 C234 1.355 . S
C233 C235 1.415 . S
C234 C233 1.355 . S
C234 C236 1.419 . S
C235 C233 1.415 . S
C235 C240 1.425 . S
C235 C242 1.409 . S
C236 H228 0.930 . S
C236 C234 1.419 . S
C236 C237 1.362 . S
C237 H229 0.930 . S
C237 C236 1.362 . S
C237 C240 1.409 . S
C238 H230 0.930 . S
C238 C239 1.355 . S
C238 C240 1.415 . S
C239 C238 1.355 . S
C239 C241 1.419 . S
C240 C235 1.425 . S
C240 C237 1.409 . S
C240 C238 1.415 . S
C241 H231 0.930 . S
C241 C239 1.419 . S
C241 C242 1.362 . S
C242 H232 0.930 . S
C242 C235 1.409 . S
C242 C241 1.362 . S
H243 C249 0.930 . S
H244 C252 0.930 . S
H245 C253 0.930 . S
H246 C254 0.930 . S
H247 C257 0.930 . S
H248 C258 0.930 . S
C249 H243 0.930 . S
C249 C250 1.355 . S
C249 C251 1.415 . S
C250 C249 1.355 . S
C250 C252 1.419 . S
C251 C249 1.415 . S
C251 C256 1.425 . S
C251 C258 1.409 . S
C252 H244 0.930 . S
C252 C250 1.419 . S
C252 C253 1.362 . S
C253 H245 0.930 . S
C253 C252 1.362 . S
C253 C256 1.409 . S
C254 H246 0.930 . S
C254 C255 1.355 . S
C254 C256 1.415 . S
C255 C254 1.355 . S
C255 C257 1.419 . S
C256 C251 1.425 . S
C256 C253 1.409 . S
C256 C254 1.415 . S
C257 H247 0.930 . S
C257 C255 1.419 . S
C257 C258 1.362 . S
C258 H248 0.930 . S
C258 C251 1.409 . S
C258 C257 1.362 . S
H259 C265 0.930 . S
H260 C268 0.930 . S
H261 C269 0.930 . S
H262 C270 0.930 . S
H263 C273 0.930 . S
H264 C274 0.930 . S
C265 H259 0.930 . S
C265 C266 1.355 . S
C265 C267 1.415 . S
C266 C265 1.355 . S
C266 C268 1.419 . S
C267 C265 1.415 . S
C267 C272 1.425 . S
C267 C274 1.409 . S
C268 H260 0.930 . S
C268 C266 1.419 . S
C268 C269 1.362 . S
C269 H261 0.930 . S
C269 C268 1.362 . S
C269 C272 1.409 . S
C270 H262 0.930 . S
C270 C271 1.355 . S
C270 C272 1.415 . S
C271 C270 1.355 . S
C271 C273 1.419 . S
C272 C267 1.425 . S
C272 C269 1.409 . S
C272 C270 1.415 . S
C273 H263 0.930 . S
C273 C271 1.419 . S
C273 C274 1.362 . S
C274 H264 0.930 . S
C274 C267 1.409 . S
C274 C273 1.362 . S
H275 C281 0.930 . S
H276 C284 0.930 . S
H277 C285 0.930 . S
H278 C286 0.930 . S
H279 C289 0.930 . S
H280 C290 0.930 . S
C281 H275 0.930 . S
C281 C282 1.355 . S
C281 C283 1.415 . S
C282 C281 1.355 . S
C282 C284 1.419 . S
C283 C281 1.415 . S
C283 C288 1.425 . S
C283 C290 1.409 . S
C284 H276 0.930 . S
C284 C282 1.419 . S
C284 C285 1.362 . S
C285 H277 0.930 . S
C285 C284 1.362 . S
C285 C288 1.409 . S
C286 H278 0.930 . S
C286 C287 1.355 . S
C286 C288 1.415 . S
C287 C286 1.355 . S
C287 C289 1.419 . S
C288 C283 1.425 . S
C288 C285 1.409 . S
C288 C286 1.415 . S
C289 H279 0.930 . S
C289 C287 1.419 . S
C289 C290 1.362 . S
C290 H280 0.930 . S
C290 C283 1.409 . S
C290 C289 1.362 . S
H291 C297 0.930 . S
H292 C300 0.930 . S
H293 C301 0.930 . S
H294 C302 0.930 . S
H295 C305 0.930 . S
H296 C306 0.930 . S
C297 H291 0.930 . S
C297 C298 1.355 . S
C297 C299 1.415 . S
C298 C297 1.355 . S
C298 C300 1.419 . S
C299 C297 1.415 . S
C299 C304 1.425 . S
C299 C306 1.409 . S
C300 H292 0.930 . S
C300 C298 1.419 . S
C300 C301 1.362 . S
C301 H293 0.930 . S
C301 C300 1.362 . S
C301 C304 1.409 . S
C302 H294 0.930 . S
C302 C303 1.355 . S
C302 C304 1.415 . S
C303 C302 1.355 . S
C303 C305 1.419 . S
C304 C299 1.425 . S
C304 C301 1.409 . S
C304 C302 1.415 . S
C305 H295 0.930 . S
C305 C303 1.419 . S
C305 C306 1.362 . S
C306 H296 0.930 . S
C306 C299 1.409 . S
C306 C305 1.362 . S
H307 C313 0.930 . S
H308 C316 0.930 . S
H309 C317 0.930 . S
H310 C318 0.930 . S
H311 C321 0.930 . S
H312 C322 0.930 . S
C313 H307 0.930 . S
C313 C314 1.355 . S
C313 C315 1.415 . S
C314 C313 1.355 . S
C314 C316 1.419 . S
C315 C313 1.415 . S
C315 C320 1.425 . S
C315 C322 1.409 . S
C316 H308 0.930 . S
C316 C314 1.419 . S
C316 C317 1.362 . S
C317 H309 0.930 . S
C317 C316 1.362 . S
C317 C320 1.409 . S
C318 H310 0.930 . S
C318 C319 1.355 . S
C318 C320 1.415 . S
C319 C318 1.355 . S
C319 C321 1.419 . S
C320 C315 1.425 . S
C320 C317 1.409 . S
C320 C318 1.415 . S
C321 H311 0.930 . S
C321 C319 1.419 . S
C321 C322 1.362 . S
C322 H312 0.930 . S
C322 C315 1.409 . S
C322 C321 1.362 . S
H323 C329 0.930 . S
H324 C332 0.930 . S
H325 C333 0.930 . S
H326 C334 0.930 . S
H327 C337 0.930 . S
H328 C338 0.930 . S
C329 H323 0.930 . S
C329 C330 1.355 . S
C329 C331 1.415 . S
C330 C329 1.355 . S
C330 C332 1.419 . S
C331 C329 1.415 . S
C331 C336 1.425 . S
C331 C338 1.409 . S
C332 H324 0.930 . S
C332 C330 1.419 . S
C332 C333 1.362 . S
C333 H325 0.930 . S
C333 C332 1.362 . S
C333 C336 1.409 . S
C334 H326 0.930 . S
C334 C335 1.355 . S
C334 C336 1.415 . S
C335 C334 1.355 . S
C335 C337 1.419 . S
C336 C331 1.425 . S
C336 C333 1.409 . S
C336 C334 1.415 . S
C337 H327 0.930 . S
C337 C335 1.419 . S
C337 C338 1.362 . S
C338 H328 0.930 . S
C338 C331 1.409 . S
C338 C337 1.362 . S
H339 C345 0.930 . S
H340 C348 0.930 . S
H341 C349 0.930 . S
H342 C350 0.930 . S
H343 C353 0.917 1_655 S
H344 C354 0.930 . S
C345 H339 0.930 . S
C345 C346 1.355 1_655 S
C345 C347 1.415 1_655 S
C346 C345 1.355 1_455 S
C346 C348 1.419 . S
C347 C345 1.415 1_455 S
C347 C352 1.425 1_554 S
C347 C354 1.409 1_454 S
C348 H340 0.930 . S
C348 C346 1.419 . S
C348 C349 1.362 . S
C349 H341 0.930 . S
C349 C348 1.362 . S
C349 C352 1.409 1_554 S
C350 H342 0.930 . S
C350 C351 1.355 . S
C350 C352 1.415 . S
C351 C350 1.355 . S
C351 C353 1.436 . S
C352 C347 1.425 1_556 S
C352 C349 1.409 1_556 S
C352 C350 1.415 . S
C353 H343 0.917 1_455 S
C353 C351 1.436 . S
C353 C354 1.358 1_455 S
C354 H344 0.930 . S
C354 C347 1.409 1_656 S
C354 C353 1.358 1_655 S
H355 C361 0.930 . S
H356 C364 0.930 . S
H357 C365 0.930 . S
H358 C366 0.930 . S
H359 C369 0.930 1_565 S
H360 C370 0.930 1_565 S
C361 H355 0.930 . S
C361 C362 1.355 . S
C361 C363 1.415 . S
C362 C361 1.355 . S
C362 C364 1.419 . S
C363 C361 1.415 . S
C363 C368 1.425 . S
C363 C370 1.409 . S
C364 H356 0.930 . S
C364 C362 1.419 . S
C364 C365 1.362 . S
C365 H357 0.930 . S
C365 C364 1.362 . S
C365 C368 1.409 . S
C366 H358 0.930 . S
C366 C367 1.355 . S
C366 C368 1.415 . S
C367 C366 1.355 . S
C367 C369 1.419 . S
C368 C363 1.425 . S
C368 C365 1.409 . S
C368 C366 1.415 . S
C369 H359 0.930 1_545 S
C369 C367 1.419 . S
C369 C370 1.362 . S
C370 H360 0.930 1_545 S
C370 C363 1.409 . S
C370 C369 1.362 . S
H371 C377 0.930 . S
H372 C380 0.930 . S
H373 C381 0.930 . S
H374 C382 0.930 . S
H375 C385 0.930 . S
H376 C386 0.930 . S
C377 H371 0.930 . S
C377 C378 1.355 . S
C377 C379 1.415 . S
C378 C377 1.355 . S
C378 C380 1.419 . S
C379 C377 1.415 . S
C379 C384 1.425 . S
C379 C386 1.409 . S
C380 H372 0.930 . S
C380 C378 1.419 . S
C380 C381 1.362 . S
C381 H373 0.930 . S
C381 C380 1.362 . S
C381 C384 1.409 . S
C382 H374 0.930 . S
C382 C383 1.355 . S
C382 C384 1.415 . S
C383 C382 1.355 . S
C383 C385 1.419 . S
C384 C379 1.425 . S
C384 C381 1.409 . S
C384 C382 1.415 . S
C385 H375 0.930 . S
C385 C383 1.419 . S
C385 C386 1.362 . S
C386 H376 0.930 . S
C386 C379 1.409 . S
C386 C385 1.362 . S
H387 C393 0.930 . S
H388 C396 0.930 . S
H389 C397 0.930 . S
H390 C398 0.930 1_565 S
H391 C401 0.930 . S
H392 C402 0.930 . S
C393 H387 0.930 . S
C393 C394 1.355 . S
C393 C395 1.415 . S
C394 C393 1.355 . S
C394 C396 1.419 1_545 S
C395 C393 1.415 . S
C395 C400 1.425 . S
C395 C402 1.409 . S
C396 H388 0.930 . S
C396 C394 1.419 1_565 S
C396 C397 1.362 . S
C397 H389 0.930 . S
C397 C396 1.362 . S
C397 C400 1.409 1_565 S
C398 H390 0.930 1_545 S
C398 C399 1.355 . S
C398 C400 1.415 . S
C399 C398 1.355 . S
C399 C401 1.419 . S
C400 C395 1.425 . S
C400 C397 1.409 1_545 S
C400 C398 1.415 . S
C401 H391 0.930 . S
C401 C399 1.419 . S
C401 C402 1.362 . S
C402 H392 0.930 . S
C402 C395 1.409 . S
C402 C401 1.362 . S
H403 C409 0.930 . S
H404 C412 0.930 . S
H405 C413 0.930 . S
H406 C414 0.930 . S
H407 C417 0.930 . S
H408 C418 0.930 . S
C409 H403 0.930 . S
C409 C410 1.355 . S
C409 C411 1.415 . S
C410 C409 1.355 . S
C410 C412 1.419 . S
C411 C409 1.415 . S
C411 C416 1.414 1_556 S
C411 C418 1.409 1_556 S
C412 H404 0.930 . S
C412 C410 1.419 . S
C412 C413 1.362 . S
C413 H405 0.930 . S
C413 C412 1.362 . S
C413 C416 1.390 1_556 S
C414 H406 0.930 . S
C414 C415 1.355 . S
C414 C416 1.445 . S
C415 C414 1.355 . S
C415 C417 1.419 . S
C416 C411 1.414 1_554 S
C416 C413 1.390 1_554 S
C416 C414 1.445 . S
C417 H407 0.930 . S
C417 C415 1.419 . S
C417 C418 1.362 . S
C418 H408 0.930 . S
C418 C411 1.409 1_554 S
C418 C417 1.362 . S
H419 C425 0.930 . S
H420 C428 0.930 . S
H421 C429 0.930 . S
H422 C430 0.930 1_655 S
H423 C433 0.930 . S
H424 C434 0.930 . S
C425 H419 0.930 . S
C425 C426 1.355 . S
C425 C427 1.415 . S
C426 C425 1.355 . S
C426 C428 1.419 1_455 S
C427 C425 1.415 . S
C427 C432 1.425 . S
C427 C434 1.409 . S
C428 H420 0.930 . S
C428 C426 1.419 1_655 S
C428 C429 1.362 . S
C429 H421 0.930 . S
C429 C428 1.362 . S
C429 C432 1.409 1_655 S
C430 H422 0.930 1_455 S
C430 C431 1.355 . S
C430 C432 1.415 . S
C431 C430 1.355 . S
C431 C433 1.419 . S
C432 C427 1.425 . S
C432 C429 1.409 1_455 S
C432 C430 1.415 . S
C433 H423 0.930 . S
C433 C431 1.419 . S
C433 C434 1.362 . S
C434 H424 0.930 . S
C434 C427 1.409 . S
C434 C433 1.362 . S
C154 C20 1.014 . S
C159 N136 1.105 . S
C170 C41 1.360 . S
C175 N109 1.360 1_655 S
C186 C64 1.356 . S
C191 N122 1.345 1_565 S
C202 C19 1.571 . S
C207 N135 1.607 . S
C223 N110 1.374 . S
C218 C44 1.363 . S
C239 N123 1.358 . S
C234 C67 1.367 . S
C250 C43 1.279 . S
C255 N83 1.323 . S
C266 C66 1.097 . S
C271 N97 1.141 . S
C282 C21 1.364 . S
C287 N71 1.377 . S
C303 N84 1.361 . S
C298 C42 1.350 . S
C319 N96 1.577 . S
C314 C65 1.571 . S
C330 C18 1.339 . S
C335 N70 1.306 . S
C351 N100 1.466 . S
C346 C17 1.528 . S
C362 C39 1.556 . S
C367 N74 1.532 . S
C378 C62 1.549 . S
C383 N87 1.518 . S
C399 N126 1.505 . S
C394 C40 1.543 . S
C415 N139 1.519 . S
C410 C63 1.535 . S
C426 C16 1.541 . S
C431 N113 1.517 . S
