# Generated by pormake.
# Topology rtl, (3,6)-cn, num edge types: 1
# Building blocks:
#     Node 0, Type 0, BuildingBlock: CUQRIR_clean_linker_1, # of connection points: 3
#     Node 1, Type 0, BuildingBlock: CUQRIR_clean_linker_1, # of connection points: 3
#     Node 2, Type 0, BuildingBlock: CUQRIR_clean_linker_1, # of connection points: 3
#     Node 3, Type 0, BuildingBlock: CUQRIR_clean_linker_1, # of connection points: 3
#     Node 4, Type 1, BuildingBlock: KUMBOL_clean_sbu_1, # of connection points: 6
#     Node 5, Type 1, BuildingBlock: KUMBOL_clean_sbu_1, # of connection points: 6
#     Edge 6, Type (0, 1), BuildingBlock: UVAHIK_clean_linker_0, # of connection points: 2
#     Edge 7, Type (0, 1), BuildingBlock: UVAHIK_clean_linker_0, # of connection points: 2
#     Edge 8, Type (0, 1), BuildingBlock: UVAHIK_clean_linker_0, # of connection points: 2
#     Edge 9, Type (0, 1), BuildingBlock: UVAHIK_clean_linker_0, # of connection points: 2
#     Edge 10, Type (0, 1), BuildingBlock: UVAHIK_clean_linker_0, # of connection points: 2
#     Edge 11, Type (0, 1), BuildingBlock: UVAHIK_clean_linker_0, # of connection points: 2
#     Edge 12, Type (0, 1), BuildingBlock: UVAHIK_clean_linker_0, # of connection points: 2
#     Edge 13, Type (0, 1), BuildingBlock: UVAHIK_clean_linker_0, # of connection points: 2
#     Edge 14, Type (0, 1), BuildingBlock: UVAHIK_clean_linker_0, # of connection points: 2
#     Edge 15, Type (0, 1), BuildingBlock: UVAHIK_clean_linker_0, # of connection points: 2
#     Edge 16, Type (0, 1), BuildingBlock: UVAHIK_clean_linker_0, # of connection points: 2
#     Edge 17, Type (0, 1), BuildingBlock: UVAHIK_clean_linker_0, # of connection points: 2
# Relax obj value: 0.063
# Max RMSD: 0.212
# Mean RMSD: 0.168
data_MOF--net-rtl--node1-KUMBOL_clean_sbu_1--node2-CUQRIR_clean_linker_1--edge1-UVAHIK_clean_linker_0
_symmetry_space_group_name_H-M    P1
_symmetry_Int_Tables_number       1
_symmetry_cell_setting            triclinic
loop_
_symmetry_equiv_pos_as_xyz
'x, y, z'
_cell_length_a     43.08934
_cell_length_b     43.057874
_cell_length_c     31.845593
_cell_angle_alpha  79.431124
_cell_angle_beta   99.203046
_cell_angle_gamma 90.952001
loop_
_atom_site_label
_atom_site_type_symbol
_atom_site_fract_x
_atom_site_fract_y
_atom_site_fract_z
_atom_type_partial_charge
C0 C 0.24599 0.82783 1.00491 0.0
N1 N 0.22431 0.84617 0.0154 0.0
N2 N 0.26332 0.8112 0.04107 0.0
C3 C 0.2488 0.82457 0.95938 0.0
C4 C 0.25111 0.82 0.07387 0.0
N5 N 0.22726 0.84114 0.05823 0.0
C6 C 0.26355 0.80925 0.12114 0.0
H7 H 0.25518 0.79993 0.95812 0.0
H8 H 0.26764 0.84034 0.94825 0.0
H9 H 0.22666 0.83142 0.93672 0.0
H10 H 0.28883 0.80266 0.12608 0.0
H11 H 0.25029 0.78828 0.13395 0.0
H12 H 0.26041 0.82812 0.13968 0.0
C13 C 0.70649 0.73555 0.65486 0.0
N14 N 0.68772 0.71108 0.6465 0.0
N15 N 0.72365 0.74474 0.6226 0.0
C16 C 0.70748 0.75065 0.69411 0.0
C17 C 0.71476 0.72486 0.5946 0.0
N18 N 0.69315 0.70434 0.60925 0.0
C19 C 0.72717 0.72551 0.55288 0.0
H20 H 0.68553 0.76456 0.69088 0.0
H21 H 0.72745 0.76689 0.69812 0.0
H22 H 0.7087 0.73212 0.7236 0.0
H23 H 0.72611 0.70186 0.54368 0.0
H24 H 0.7518 0.73381 0.55551 0.0
H25 H 0.71248 0.74208 0.52675 0.0
C26 C 0.77401 0.19272 0.08395 0.0
N27 N 0.79689 0.17448 0.07594 0.0
N28 N 0.76162 0.21275 0.04752 0.0
C29 C 0.76575 0.19309 0.12806 0.0
C30 C 0.77791 0.2064 0.01708 0.0
N31 N 0.79961 0.18318 0.03439 0.0
C32 C 0.77124 0.2218 0.97015 0.0
H33 H 0.74862 0.17413 0.13536 0.0
H34 H 0.75496 0.21601 0.12949 0.0
H35 H 0.78693 0.18857 0.15332 0.0
H36 H 0.78684 0.2424 0.96459 0.0
H37 H 0.74651 0.23041 0.9611 0.0
H38 H 0.77572 0.20505 0.94908 0.0
C39 C 0.3192 0.28167 0.43712 0.0
N40 N 0.34028 0.30407 0.4465 0.0
N41 N 0.30842 0.26691 0.47331 0.0
C42 C 0.31065 0.27296 0.39312 0.0
C43 C 0.32389 0.28116 0.50504 0.0
N44 N 0.34353 0.3034 0.48881 0.0
C45 C 0.31757 0.27562 0.55099 0.0
H46 H 0.29085 0.28829 0.37441 0.0
H47 H 0.30333 0.24794 0.39578 0.0
H48 H 0.33081 0.27672 0.37508 0.0
H49 H 0.3335 0.25653 0.57061 0.0
H50 H 0.29292 0.26832 0.55264 0.0
H51 H 0.32207 0.29715 0.56543 0.0
C52 C 0.97093 0.10596 0.50611 0.0
C53 C 0.9158 0.10159 0.47677 0.0
C54 C 0.94329 0.08906 0.50446 0.0
C55 C 0.91692 0.13093 0.44923 0.0
C56 C 0.97175 0.13614 0.48012 0.0
C57 C 0.94485 0.14817 0.45087 0.0
N58 N 0.99637 0.09373 0.53508 0.0
C59 C 0.02211 0.11202 0.54296 0.0
C60 C 0.99921 0.15377 0.48538 0.0
C61 C 0.02427 0.14189 0.51755 0.0
Gd62 Gd 0.03249 0.98028 0.51532 0.0
Gd63 Gd 0.99122 0.04182 0.5729 0.0
N64 N 0.94317 0.06048 0.5308 0.0
C65 C 0.88793 0.08448 0.47822 0.0
C66 C 0.91579 0.04447 0.53426 0.0
C67 C 0.88783 0.05604 0.5076 0.0
H68 H 0.91591 0.02233 0.5567 0.0
H69 H 0.86629 0.04294 0.50953 0.0
H70 H 0.09517 0.01906 0.48028 0.0
H71 H 0.04103 0.10384 0.56906 0.0
H72 H 0.15253 0.01979 0.50348 0.0
H73 H 0.86629 0.09331 0.45745 0.0
H74 H 0.89615 0.14081 0.42727 0.0
H75 H 0.00831 0.91016 0.56047 0.0
H76 H 1.00082 0.17704 0.46602 0.0
H77 H 0.0451 0.15589 0.52317 0.0
H78 H 0.17316 0.92971 0.61823 0.0
H79 H 0.94516 0.17115 0.43027 0.0
H80 H 0.08678 0.8612 0.64544 0.0
H81 H 0.03033 0.86313 0.61366 0.0
N82 N 0.05179 0.93424 0.56324 0.0
C83 C 0.08311 0.93285 0.5782 0.0
C84 C 0.033 0.90916 0.57411 0.0
C85 C 0.07726 0.88169 0.62208 0.0
C86 C 0.04538 0.88267 0.60417 0.0
C87 C 0.09667 0.90678 0.60867 0.0
H88 H 0.13999 0.88664 0.64769 0.0
N89 N 0.08783 0.98073 0.53022 0.0
C90 C 0.10166 0.95712 0.56161 0.0
C91 C 0.15281 0.97942 0.55479 0.0
C92 C 0.13449 0.95594 0.57506 0.0
C93 C 0.10584 1.00208 0.50791 0.0
C94 C 0.13846 1.00225 0.52051 0.0
O95 O 0.96994 0.03008 0.50776 0.0
O96 O 0.01317 0.02667 0.47625 0.0
O97 O 0.05214 0.96174 0.46507 0.0
O98 O 1.00217 0.95697 0.4702 0.0
O99 O 0.97456 0.99135 0.58589 0.0
O100 O 0.98258 0.9693 0.52682 0.0
O101 O 0.03189 0.96977 0.58773 0.0
O102 O 0.03717 0.0185 0.60682 0.0
O103 O 0.96724 0.02878 0.62828 0.0
O104 O 0.98783 0.07482 0.61641 0.0
O105 O 0.04694 0.03176 0.50425 0.0
O106 O 0.04319 0.04817 0.56828 0.0
C107 C 0.98361 0.03447 0.47327 0.0
C108 C 0.96773 0.971 0.55954 0.0
C109 C 0.01905 0.93478 0.41287 0.0
C110 C 0.0346 0.92012 0.34844 0.0
C111 C 0.98427 0.90348 0.36976 0.0
C112 C 0.99063 0.91875 0.40509 0.0
C113 C 1.006 0.90415 0.34158 0.0
C114 C 0.04113 0.93522 0.38458 0.0
C115 C 0.02478 0.9516 0.4498 0.0
C116 C 0.14802 0.93083 0.60712 0.0
C117 C 0.12914 0.90627 0.62385 0.0
H118 H 0.17811 0.97941 0.56421 0.0
C119 C 0.04293 0.98799 0.61529 0.0
C120 C 0.05686 0.04884 0.53395 0.0
C121 C 0.9867 0.05089 0.68907 0.0
C122 C 0.98089 0.05728 0.76197 0.0
C123 C 0.02539 0.02771 0.75042 0.0
C124 C 0.01448 0.03339 0.70597 0.0
C125 C 0.00861 0.03938 0.77838 0.0
C126 C 0.97014 0.0631 0.71708 0.0
C127 C 0.97384 0.05482 0.64276 0.0
H128 H 0.96237 0.89106 0.36417 0.0
H129 H 0.97325 0.91797 0.42636 0.0
H130 H 1.00056 0.89178 0.31465 0.0
H131 H 0.06293 0.94785 0.39006 0.0
H132 H 0.04676 0.01401 0.76325 0.0
H133 H 0.02742 0.0238 0.68484 0.0
H134 H 0.0174 0.03468 0.81279 0.0
H135 H 0.94847 0.07636 0.70412 0.0
C136 C 0.60437 0.5483 0.04685 0.0
C137 C 0.59954 0.60479 0.01961 0.0
C138 C 0.58749 0.57639 0.04006 0.0
C139 C 0.62839 0.60432 1.0045 0.0
C140 C 0.63402 0.548 0.0335 0.0
C141 C 0.64557 0.57598 1.01138 0.0
N142 N 0.59259 0.5217 0.06856 0.0
C143 C 0.6109 0.49508 0.08223 0.0
C144 C 0.65161 0.51984 0.04404 0.0
C145 C 0.64026 0.49343 0.06927 0.0
Gd146 Gd 0.47724 0.49306 0.99767 0.0
Gd147 Gd 0.54175 0.52656 0.08536 0.0
N148 N 0.55921 0.57591 0.05382 0.0
C149 C 0.58234 0.63283 0.01535 0.0
C150 C 0.54307 0.6033 0.05187 0.0
C151 C 0.5542 0.63213 0.03211 0.0
H152 H 0.5213 0.60267 0.06478 0.0
H153 H 0.54103 0.65375 0.02967 0.0
H154 H 0.50968 0.4266 0.98003 0.0
H155 H 0.60328 0.47521 0.10386 0.0
H156 H 0.50469 0.36899 1.00154 0.0
H157 H 0.59081 0.65516 0.99982 0.0
H158 H 0.63787 0.62583 0.98816 0.0
H159 H 0.41067 0.52533 1.01046 0.0
H160 H 0.6745 0.5186 0.03439 0.0
H161 H 0.65431 0.47197 0.07934 0.0
H162 H 0.41259 0.35753 0.06998 0.0
H163 H 0.66813 0.57611 1.00045 0.0
H164 H 0.35353 0.45169 0.06677 0.0
H165 H 0.36166 0.50837 0.03914 0.0
N166 N 0.42984 0.47883 0.02268 0.0
C167 C 0.4251 0.44752 0.03538 0.0
C168 C 0.4071 0.50059 0.0224 0.0
C169 C 0.37492 0.45901 0.05412 0.0
C170 C 0.37942 0.49104 0.03854 0.0
C171 C 0.39774 0.43674 0.0522 0.0
H172 H 0.37314 0.39541 0.0792 0.0
N173 N 0.47237 0.43769 1.01132 0.0
C174 C 0.44735 0.42631 0.0302 0.0
C175 C 0.46435 0.37275 0.03257 0.0
C176 C 0.44278 0.39354 0.04171 0.0
C177 C 0.4919 0.41756 0.99913 0.0
C178 C 0.48868 0.38484 1.01045 0.0
O179 O 0.53008 0.55061 0.01495 0.0
O180 O 0.52404 0.5091 0.97971 0.0
O181 O 0.45767 0.47646 0.93784 0.0
O182 O 0.45563 0.5266 0.94187 0.0
O183 O 0.49231 0.54572 0.07747 0.0
O184 O 0.46971 0.54327 1.00675 0.0
O185 O 0.46849 0.49062 0.06662 0.0
O186 O 0.51731 0.48105 0.10745 0.0
O187 O 0.53069 0.54658 0.13912 0.0
O188 O 0.57707 0.52752 0.14205 0.0
O189 O 0.52706 0.47332 1.00925 0.0
O190 O 0.54711 0.47485 0.08077 0.0
C191 C 0.53439 0.5375 0.98231 0.0
C192 C 0.47213 0.55572 0.04202 0.0
C193 C 0.43309 0.51285 0.87291 0.0
C194 C 0.41975 0.50027 0.80043 0.0
C195 C 0.40626 0.55178 0.81371 0.0
C196 C 0.41955 0.54305 0.85713 0.0
C197 C 0.40656 0.53067 0.78541 0.0
C198 C 0.43268 0.49127 0.84447 0.0
C199 C 0.44929 0.50502 0.91813 0.0
C200 C 0.41632 0.38262 0.06049 0.0
C201 C 0.39382 0.40418 0.06567 0.0
H202 H 0.4617 0.3474 0.0409 0.0
C203 C 0.48672 0.47729 0.10224 0.0
C204 C 0.54567 0.46212 0.04583 0.0
C205 C 0.55773 0.52413 0.20778 0.0
C206 C 0.56678 0.52671 0.28482 0.0
C207 C 0.54795 0.4783 0.26049 0.0
C208 C 0.54842 0.49266 0.2176 0.0
C209 C 0.55711 0.49511 0.29395 0.0
C210 C 0.56676 0.54109 0.24131 0.0
C211 C 0.55803 0.53958 0.16274 0.0
H212 H 0.39596 0.57512 0.80185 0.0
H213 H 0.41949 0.56011 0.87825 0.0
H214 H 0.39626 0.538 0.75175 0.0
H215 H 0.44332 0.46802 0.8561 0.0
H216 H 0.54074 0.45396 0.26788 0.0
H217 H 0.5417 0.47928 0.19208 0.0
H218 H 0.55723 0.48314 0.32699 0.0
H219 H 0.57358 0.56555 0.23336 0.0
C220 C 0.25548 0.24778 0.44861 0.0
C221 C 0.2842 0.24348 0.47691 0.0
C222 C 0.23143 0.22585 0.45335 0.0
C223 C 0.21497 0.14456 0.51086 0.0
H224 H 0.12871 0.17537 0.48149 0.0
C225 C 0.10566 0.07532 0.56236 0.0
C226 C 0.08294 0.07078 0.52727 0.0
C227 C 0.13073 0.09572 0.55576 0.0
C228 C 0.15272 0.16652 0.48967 0.0
H229 H 0.31057 0.21273 0.53184 0.0
H230 H 0.26813 0.17542 0.54218 0.0
H231 H 0.17155 0.21223 0.47126 0.0
H232 H 0.06795 0.08421 0.45812 0.0
H233 H 0.11125 0.12095 0.44684 0.0
H234 H 0.19561 0.09902 0.5312 0.0
C235 C 0.26424 0.19509 0.51531 0.0
C236 C 0.17736 0.18753 0.48347 0.0
C237 C 0.28851 0.21669 0.50987 0.0
C238 C 0.08535 0.08726 0.4856 0.0
C239 C 0.10994 0.10826 0.47919 0.0
C240 C 0.1903 0.12372 0.51797 0.0
C241 C 0.23523 0.1994 0.48722 0.0
C242 C 0.2089 0.17686 0.49376 0.0
C243 C 0.13292 0.11249 0.51416 0.0
C244 C 0.15902 0.13454 0.50722 0.0
H245 H 0.25142 0.26844 0.42324 0.0
H246 H 0.20983 0.22979 0.4304 0.0
H247 H 0.23875 0.13516 0.5184 0.0
H248 H 0.10429 0.06271 0.59473 0.0
H249 H 0.14818 0.09876 0.58318 0.0
C250 C 0.28428 0.75711 0.06897 0.0
C251 C 0.28673 0.78714 0.04367 0.0
C252 C 0.30599 0.7332 0.06976 0.0
C253 C 0.34919 0.69907 1.00668 0.0
H254 H 0.41192 0.66883 0.10696 0.0
C255 C 0.44104 0.60385 1.0034 0.0
C256 C 0.45123 0.58248 0.04185 0.0
C257 C 0.422 0.62977 1.00358 0.0
C258 C 0.39424 0.67655 0.07888 0.0
H259 H 0.31395 0.81601 1.00015 0.0
H260 H 0.3513 0.77351 0.99998 0.0
H261 H 0.37654 0.71224 0.10824 0.0
H262 H 0.44898 0.57075 0.11038 0.0
H263 H 0.41445 0.61485 0.11049 0.0
H264 H 0.36537 0.6627 0.97779 0.0
C265 C 0.33275 0.76881 0.01949 0.0
C266 C 0.37426 0.70161 0.0796 0.0
C267 C 0.31141 0.79292 0.01943 0.0
C268 C 0.44168 0.58713 0.08035 0.0
C269 C 0.42207 0.61261 0.0804 0.0
C270 C 0.3687 0.67359 1.0062 0.0
C271 C 0.33007 0.73882 0.04459 0.0
C272 C 0.3517 0.71301 0.04349 0.0
C273 C 0.41214 0.63448 0.04208 0.0
C274 C 0.39153 0.66193 0.04233 0.0
H275 H 0.26511 0.75194 0.08725 0.0
H276 H 0.3035 0.71008 0.08908 0.0
H277 H 0.33164 0.70748 0.97864 0.0
H278 H 0.44838 0.60095 0.97334 0.0
H279 H 0.41544 0.64633 0.97358 0.0
C280 C 0.77322 0.76893 0.65048 0.0
C281 C 0.74652 0.76942 0.61866 0.0
C282 C 0.79627 0.79196 0.6454 0.0
C283 C 0.83505 0.83887 0.56642 0.0
H284 H 0.8551 0.89848 0.6441 0.0
C285 C 0.92342 0.93842 0.53187 0.0
C286 C 0.94197 0.94871 0.56694 0.0
C287 C 0.89891 0.91738 0.5386 0.0
C288 C 0.85031 0.88169 0.62249 0.0
H289 H 0.7229 0.79389 0.55666 0.0
H290 H 0.76405 0.83355 0.54674 0.0
H291 H 0.81393 0.85973 0.65613 0.0
H292 H 0.94992 0.94489 0.63656 0.0
H293 H 0.90836 0.90682 0.64879 0.0
H294 H 0.87212 0.85926 0.53386 0.0
C295 C 0.76671 0.81572 0.57595 0.0
C296 C 0.82652 0.85971 0.62929 0.0
C297 C 0.74333 0.79315 0.58154 0.0
C298 C 0.93574 0.93748 0.60893 0.0
C299 C 0.91171 0.9158 0.61582 0.0
C300 C 0.85932 0.86029 0.56018 0.0
C301 C 0.79334 0.81526 0.60783 0.0
C302 C 0.8186 0.83833 0.6011 0.0
C303 C 0.89286 0.90546 0.58073 0.0
C304 C 0.86719 0.88224 0.58791 0.0
H305 H 0.77643 0.75037 0.67884 0.0
H306 H 0.81683 0.79104 0.67015 0.0
H307 H 0.82946 0.82229 0.54457 0.0
H308 H 0.9275 0.94707 0.49907 0.0
H309 H 0.88456 0.91078 0.51056 0.0
C310 C 0.74767 0.26911 0.03533 0.0
C311 C 0.73879 0.2374 0.04359 0.0
C312 C 0.72627 0.29312 0.03539 0.0
C313 C 0.64292 0.3126 0.01991 0.0
H314 H 0.66817 0.37515 0.09195 0.0
C315 C 0.5746 0.42909 1.00746 0.0
C316 C 0.56736 0.43569 0.04646 0.0
C317 C 0.59489 0.40413 1.00766 0.0
C318 C 0.66084 0.35775 0.07186 0.0
H319 H 0.70111 0.20544 0.05757 0.0
H320 H 0.66299 0.24761 0.05642 0.0
H321 H 0.7051 0.33298 0.08983 0.0
H322 H 0.57596 0.42143 0.11629 0.0
H323 H 0.61248 0.37833 0.11661 0.0
H324 H 0.59888 0.33774 1.00129 0.0
C325 C 0.68649 0.2539 0.0502 0.0
C326 C 0.68197 0.33384 0.07039 0.0
C327 C 0.7081 0.2299 0.05087 0.0
C328 C 0.58121 0.41702 0.08574 0.0
C329 C 0.60204 0.39239 0.08596 0.0
C330 C 0.622 0.33684 0.02077 0.0
C331 C 0.69554 0.28571 0.04305 0.0
C332 C 0.67318 0.31106 0.04442 0.0
C333 C 0.60887 0.38564 0.04688 0.0
C334 C 0.63078 0.35959 0.04678 0.0
H335 H 0.77141 0.27512 0.03003 0.0
H336 H 0.73371 0.31748 0.02952 0.0
H337 H 0.63566 0.29534 0.99957 0.0
H338 H 0.56476 0.44334 0.97667 0.0
H339 H 0.60011 0.39961 0.97714 0.0
C340 C 0.20431 0.88593 0.08186 0.0
C341 C 0.20682 0.85335 0.08306 0.0
C342 C 0.18701 0.89732 0.1097 0.0
C343 C 0.15824 0.87114 0.21366 0.0
H344 H 0.1024 0.94406 0.17682 0.0
C345 C 0.08957 0.91449 0.33324 0.0
C346 C 0.0574 0.92042 0.31791 0.0
C347 C 0.11026 0.91119 0.30457 0.0
C348 C 0.11793 0.92366 0.18761 0.0
H349 H 0.19233 0.80719 0.11202 0.0
H350 H 0.16187 0.8268 0.16038 0.0
H351 H 0.13248 0.92767 0.12552 0.0
H352 H 0.02214 0.92972 0.2602 0.0
H353 H 0.05795 0.92336 0.21047 0.0
H354 H 0.143 0.86631 0.27514 0.0
C355 C 0.17373 0.84365 0.1389 0.0
C356 C 0.13534 0.91444 0.15831 0.0
C357 C 0.19093 0.83239 0.11115 0.0
C358 C 0.0467 0.92461 0.27311 0.0
C359 C 0.06734 0.92136 0.24452 0.0
C360 C 0.14091 0.88036 0.2429 0.0
C361 C 0.17206 0.87621 0.13917 0.0
C362 C 0.15522 0.88767 0.17079 0.0
C363 C 0.09923 0.91387 0.25997 0.0
C364 C 0.12013 0.9064 0.23006 0.0
H365 H 0.21667 0.90238 0.0606 0.0
H366 H 0.18625 0.92252 0.1092 0.0
H367 H 0.17378 0.85075 0.22456 0.0
H368 H 0.09853 0.91109 0.36755 0.0
H369 H 0.13478 0.90586 0.31747 0.0
C370 C 0.67377 0.66068 0.68926 0.0
C371 C 0.66824 0.69317 0.67472 0.0
C372 C 0.65716 0.64372 0.72011 0.0
C373 C 0.61775 0.65459 0.80972 0.0
H374 H 0.58242 0.57223 0.80075 0.0
C375 C 0.54569 0.58843 0.93583 0.0
C376 C 0.549 0.55545 0.94667 0.0
C377 C 0.55939 0.60538 0.90183 0.0
C378 C 0.59254 0.595 0.80413 0.0
H379 H 0.64003 0.73319 0.67896 0.0
H380 H 0.6114 0.70378 0.7339 0.0
H381 H 0.60712 0.6013 0.74185 0.0
H382 H 0.56937 0.51422 0.93104 0.0
H383 H 0.59397 0.54372 0.87232 0.0
H384 H 0.60415 0.64808 0.87242 0.0
C385 C 0.62875 0.69145 0.72171 0.0
C386 C 0.60653 0.6117 0.77022 0.0
C387 C 0.6451 0.70828 0.69044 0.0
C388 C 0.56626 0.53966 0.92302 0.0
C389 C 0.58022 0.5566 0.88926 0.0
C390 C 0.60411 0.63775 0.84387 0.0
C391 C 0.63494 0.65908 0.7373 0.0
C392 C 0.61926 0.64167 0.77266 0.0
C393 C 0.57684 0.58969 0.87803 0.0
C394 C 0.59131 0.60771 0.84156 0.0
H395 H 0.69183 0.6487 0.67798 0.0
H396 H 0.66259 0.61885 0.73175 0.0
H397 H 0.62781 0.67745 0.81277 0.0
H398 H 0.53208 0.60109 0.95321 0.0
H399 H 0.5558 0.63074 0.89377 0.0
C400 C 0.80468 0.12897 0.13583 0.0
C401 C 0.81744 0.15313 0.10807 0.0
C402 C 0.82356 0.11221 0.17238 0.0
C403 C 0.90497 0.09322 0.22635 0.0
H404 H 0.86988 0.09329 0.33118 0.0
C405 C 0.97966 0.06237 0.39663 0.0
C406 C 0.96508 0.04589 0.43029 0.0
C407 C 0.96201 0.07358 0.356 0.0
C408 C 0.87989 0.0925 0.30229 0.0
H409 H 0.85997 0.17754 0.09464 0.0
H410 H 0.89347 0.14776 0.15846 0.0
H411 H 0.83877 0.11393 0.26122 0.0
H412 H 0.92102 0.02711 0.4477 0.0
H413 H 0.89023 0.04612 0.37678 0.0
H414 H 0.94606 0.07156 0.26743 0.0
C415 C 0.86885 0.14183 0.15205 0.0
C416 C 0.86203 0.1044 0.26215 0.0
C417 C 0.84982 0.15878 0.11558 0.0
C418 C 0.9327 0.04033 0.42251 0.0
C419 C 0.91509 0.05127 0.38184 0.0
C420 C 0.92277 0.08096 0.26658 0.0
C421 C 0.85563 0.11917 0.18162 0.0
C422 C 0.87439 0.105 0.22378 0.0
C423 C 0.92947 0.06821 0.34808 0.0
C424 C 0.91048 0.08059 0.30509 0.0
H425 H 0.77976 0.12417 0.13019 0.0
H426 H 0.81287 0.09451 0.19424 0.0
H427 H 0.915 0.09329 0.19725 0.0
H428 H 1.00462 0.0671 0.40194 0.0
H429 H 0.97382 0.08695 0.33107 0.0
C430 C 0.34972 0.35642 0.50668 0.0
C431 C 0.36087 0.32539 0.51208 0.0
C432 C 0.36213 0.37589 0.53574 0.0
C433 C 0.40382 0.3691 0.64861 0.0
H434 H 0.40255 0.46043 0.61825 0.0
C435 C 0.4068 0.44838 0.77721 0.0
C436 C 0.42011 0.47843 0.76958 0.0
C437 C 0.40418 0.42922 0.74575 0.0
C438 C 0.40363 0.43494 0.62745 0.0
H439 H 0.3945 0.29052 0.54979 0.0
H440 H 0.41763 0.32487 0.59953 0.0
H441 H 0.39197 0.42926 0.5615 0.0
H442 H 0.44274 0.5114 0.72447 0.0
H443 H 0.43951 0.4776 0.67038 0.0
H444 H 0.41641 0.37476 0.71446 0.0
C445 C 0.39865 0.33412 0.5739 0.0
C446 C 0.39703 0.417 0.59474 0.0
C447 C 0.38585 0.31457 0.54519 0.0
C448 C 0.43202 0.48843 0.73085 0.0
C449 C 0.42992 0.46911 0.69974 0.0
C450 C 0.41086 0.38703 0.68127 0.0
C451 C 0.38621 0.3647 0.57054 0.0
C452 C 0.39643 0.38382 0.60488 0.0
C453 C 0.41529 0.43952 0.70625 0.0
C454 C 0.4103 0.42024 0.67126 0.0
H455 H 0.33006 0.36483 0.48164 0.0
H456 H 0.35156 0.39904 0.53223 0.0
H457 H 0.40322 0.34365 0.65798 0.0
H458 H 0.39725 0.44026 0.80673 0.0
H459 H 0.39237 0.40684 0.75188 0.0
C460 C 0.64714 0.69051 0.56039 0.0
C461 C 0.67632 0.68203 0.58606 0.0
C462 C 0.63316 0.67129 0.53184 0.0
C463 C 0.65596 0.61171 0.47202 0.0
H464 H 0.56592 0.60352 0.44036 0.0
C465 C 0.60335 0.56466 0.31855 0.0
C466 C 0.57755 0.54432 0.32056 0.0
C467 C 0.61409 0.58054 0.35251 0.0
C468 C 0.59115 0.6053 0.44909 0.0
H469 H 0.71339 0.64682 0.6041 0.0
H470 H 0.68865 0.61233 0.55547 0.0
H471 H 0.58638 0.63069 0.49967 0.0
H472 H 0.5424 0.52537 0.35977 0.0
H473 H 0.56172 0.55238 0.41957 0.0
H474 H 0.66087 0.58587 0.42219 0.0
C475 C 0.67671 0.63407 0.55636 0.0
C476 C 0.60287 0.62118 0.48283 0.0
C477 C 0.69073 0.65346 0.58455 0.0
C478 C 0.56258 0.54052 0.35733 0.0
C479 C 0.57343 0.55633 0.39143 0.0
C480 C 0.64428 0.59576 0.43851 0.0
C481 C 0.64819 0.64319 0.52867 0.0
C482 C 0.63545 0.62476 0.49455 0.0
C483 C 0.59947 0.57638 0.38958 0.0
C484 C 0.61172 0.5926 0.42628 0.0
H485 H 0.63603 0.71276 0.56096 0.0
H486 H 0.6114 0.67929 0.51078 0.0
H487 H 0.68116 0.61439 0.47957 0.0
H488 H 0.6157 0.56793 0.29102 0.0
H489 H 0.63389 0.59618 0.3496 0.0
C490 C 0.83904 0.18891 0.98526 0.0
C491 C 0.82094 0.16948 1.01206 0.0
C492 C 0.85781 0.17586 0.96085 0.0
C493 C 0.86784 0.1022 0.91832 0.0
H494 H 0.94428 0.14317 0.88869 0.0
C495 C 0.95495 0.04906 0.82809 0.0
C496 C 0.96304 0.06942 0.79178 0.0
C497 C 0.93817 0.06049 0.85632 0.0
C498 C 0.9229 0.13159 0.89662 0.0
H499 H 0.80922 0.12118 0.03604 0.0
H500 H 0.8433 0.09796 0.9953 0.0
H501 H 0.91551 0.16375 0.93789 0.0
H502 H 0.96027 0.11763 0.75663 0.0
H503 H 0.93147 0.13784 0.80666 0.0
H504 H 0.87601 0.06953 0.87775 0.0
C505 C 0.8422 0.12343 0.99169 0.0
C506 C 0.90627 0.14343 0.92466 0.0
C507 C 0.82301 0.13661 0.01557 0.0
C508 C 0.95419 0.10145 0.78431 0.0
C509 C 0.93793 0.11301 0.813 0.0
C510 C 0.88481 0.09005 0.89089 0.0
C511 C 0.85945 0.14291 0.96336 0.0
C512 C 0.87826 0.12915 0.93552 0.0
C513 C 0.9297 0.09261 0.8492 0.0
C514 C 0.91229 0.10485 0.87941 0.0
H515 H 0.83828 0.21431 0.98272 0.0
H516 H 0.87035 0.19177 0.93918 0.0
H517 H 0.84613 0.09084 0.92511 0.0
H518 H 0.96135 0.02422 0.83439 0.0
H519 H 0.93218 0.04432 0.88408 0.0
C520 C 0.33834 0.34485 0.38101 0.0
C521 C 0.35597 0.3251 0.41631 0.0
C522 C 0.35317 0.36275 0.34891 0.0
C523 C 0.4313 0.39146 0.32269 0.0
H524 H 0.38824 0.39778 0.2047 0.0
C525 C 0.49016 0.43801 0.17162 0.0
C526 C 0.47236 0.45987 0.13875 0.0
C527 C 0.47662 0.42201 0.20648 0.0
C528 C 0.40045 0.39644 0.23749 0.0
H529 H 0.40269 0.30901 0.44699 0.0
H530 H 0.429 0.33978 0.3904 0.0
H531 H 0.3637 0.36979 0.26418 0.0
H532 H 0.42659 0.48243 0.11713 0.0
H533 H 0.40263 0.45371 0.17691 0.0
H534 H 0.4684 0.41763 0.29541 0.0
C535 C 0.40373 0.34198 0.38761 0.0
C536 C 0.38633 0.38051 0.27171 0.0
C537 C 0.3888 0.32431 0.41999 0.0
C538 C 0.44072 0.46522 0.14134 0.0
C539 C 0.42705 0.4489 0.17576 0.0
C540 C 0.44558 0.40716 0.28833 0.0
C541 C 0.38602 0.361 0.35117 0.0
C542 C 0.40141 0.37798 0.31485 0.0
C543 C 0.44487 0.4272 0.20881 0.0
C544 C 0.43019 0.40997 0.24538 0.0
H545 H 0.31297 0.34594 0.37802 0.0
H546 H 0.33878 0.37772 0.32207 0.0
H547 H 0.4435 0.39034 0.35542 0.0
H548 H 0.5145 0.43306 0.17027 0.0
H549 H 0.49086 0.40519 0.23124 0.0
C550 C 0.17283 0.851 0.96897 0.0
C551 C 0.20055 0.86508 0.98538 0.0
C552 C 0.15326 0.86671 0.93215 0.0
C553 C 0.1593 0.92759 0.83579 0.0
H554 H 0.06905 0.91737 0.81074 0.0
C555 C 0.08346 0.99214 0.67918 0.0
C556 C 0.06094 0.97406 0.65776 0.0
C557 C 0.09961 0.97975 0.7203 0.0
C558 C 0.09429 0.92021 0.81725 0.0
H559 H 0.22916 0.90668 0.97853 0.0
H560 H 0.19434 0.93514 0.91528 0.0
H561 H 0.09732 0.89614 0.88293 0.0
H562 H 0.03757 0.92894 0.66234 0.0
H563 H 0.06609 0.90703 0.73431 0.0
H564 H 0.15622 0.95174 0.7702 0.0
C565 C 0.1879 0.9117 0.92988 0.0
C566 C 0.1105 0.90809 0.85859 0.0
C567 C 0.20757 0.89577 0.96638 0.0
C568 C 0.05506 0.94323 0.678 0.0
C569 C 0.07108 0.93087 0.71934 0.0
C570 C 0.14308 0.9399 0.79467 0.0
C571 C 0.16113 0.89687 0.91126 0.0
C572 C 0.14327 0.91148 0.86833 0.0
C573 C 0.09344 0.94907 0.74096 0.0
C574 C 0.11045 0.93618 0.78487 0.0
H575 H 0.16755 0.82702 0.98298 0.0
H576 H 0.13309 0.85438 0.91861 0.0
H577 H 0.1846 0.93001 0.84161 0.0
H578 H 0.08846 0.016 0.66422 0.0
H579 H 0.11654 0.99441 0.73627 0.0
loop_
_geom_bond_atom_site_label_1
_geom_bond_atom_site_label_2
_geom_bond_distance
_geom_bond_site_symmetry_2
_ccdc_geom_bond_type
C0 N1 1.317 1_556 S
C0 N2 1.348 1_556 S
C0 C3 1.485 . S
N1 C0 1.317 1_554 S
N1 N5 1.370 . S
N2 C0 1.348 1_554 S
N2 C4 1.346 . S
C3 C0 1.485 . S
C3 H7 0.960 . S
C3 H8 0.961 . S
C3 H9 0.960 . S
C4 N2 1.346 . S
C4 N5 1.307 . S
C4 C6 1.486 . S
N5 N1 1.370 . S
N5 C4 1.307 . S
C6 C4 1.486 . S
C6 H10 0.960 . S
C6 H11 0.960 . S
C6 H12 0.959 . S
H7 C3 0.960 . S
H8 C3 0.961 . S
H9 C3 0.960 . S
H10 C6 0.960 . S
H11 C6 0.960 . S
H12 C6 0.959 . S
C13 N14 1.317 . S
C13 N15 1.348 . S
C13 C16 1.485 . S
N14 C13 1.317 . S
N14 N18 1.370 . S
N15 C13 1.348 . S
N15 C17 1.346 . S
C16 C13 1.485 . S
C16 H20 0.960 . S
C16 H21 0.961 . S
C16 H22 0.960 . S
C17 N15 1.346 . S
C17 N18 1.307 . S
C17 C19 1.486 . S
N18 N14 1.370 . S
N18 C17 1.307 . S
C19 C17 1.486 . S
C19 H23 0.960 . S
C19 H24 0.960 . S
C19 H25 0.959 . S
H20 C16 0.960 . S
H21 C16 0.961 . S
H22 C16 0.960 . S
H23 C19 0.960 . S
H24 C19 0.960 . S
H25 C19 0.959 . S
C26 N27 1.317 . S
C26 N28 1.348 . S
C26 C29 1.485 . S
N27 C26 1.317 . S
N27 N31 1.370 . S
N28 C26 1.348 . S
N28 C30 1.346 . S
C29 C26 1.485 . S
C29 H33 0.960 . S
C29 H34 0.961 . S
C29 H35 0.960 . S
C30 N28 1.346 . S
C30 N31 1.307 . S
C30 C32 1.486 1_554 S
N31 N27 1.370 . S
N31 C30 1.307 . S
C32 C30 1.486 1_556 S
C32 H36 0.960 . S
C32 H37 0.960 . S
C32 H38 0.959 . S
H33 C29 0.960 . S
H34 C29 0.961 . S
H35 C29 0.960 . S
H36 C32 0.960 . S
H37 C32 0.960 . S
H38 C32 0.959 . S
C39 N40 1.317 . S
C39 N41 1.348 . S
C39 C42 1.485 . S
N40 C39 1.317 . S
N40 N44 1.370 . S
N41 C39 1.348 . S
N41 C43 1.346 . S
C42 C39 1.485 . S
C42 H46 0.960 . S
C42 H47 0.961 . S
C42 H48 0.960 . S
C43 N41 1.346 . S
C43 N44 1.307 . S
C43 C45 1.486 . S
N44 N40 1.370 . S
N44 C43 1.307 . S
C45 C43 1.486 . S
C45 H49 0.960 . S
C45 H50 0.960 . S
C45 H51 0.959 . S
H46 C42 0.960 . S
H47 C42 0.961 . S
H48 C42 0.960 . S
H49 C45 0.960 . S
H50 C45 0.960 . S
H51 C45 0.959 . S
C52 C54 1.422 . S
C52 C56 1.415 . S
C52 N58 1.369 . S
C53 C54 1.421 . S
C53 C55 1.417 . S
C53 C65 1.422 . S
C54 C52 1.422 . S
C54 C53 1.421 . S
C54 N64 1.359 . S
C55 C53 1.417 . S
C55 C57 1.329 . S
C55 H74 0.930 . S
C56 C52 1.415 . S
C56 C57 1.437 . S
C56 C60 1.413 . S
C57 C55 1.329 . S
C57 C56 1.437 . S
C57 H79 0.929 . S
N58 C52 1.369 . S
N58 C59 1.338 1_655 S
N58 Gd63 2.622 . S
C59 N58 1.338 1_455 S
C59 C61 1.378 . S
C59 H71 0.929 . S
C60 C56 1.413 . S
C60 C61 1.348 1_655 S
C60 H76 0.931 . S
C61 C59 1.378 . S
C61 C60 1.348 1_455 S
C61 H77 0.930 . S
Gd62 N82 2.622 . S
Gd62 N89 2.570 . S
Gd62 O96 2.353 1_465 S
Gd62 O97 2.468 . S
Gd62 O98 2.427 . S
Gd62 O100 2.388 1_455 S
Gd62 O101 2.386 . S
Gd62 O105 2.307 1_565 S
Gd62 C115 2.805 . S
Gd63 N58 2.622 . S
Gd63 N64 2.570 . S
Gd63 O95 2.386 . S
Gd63 O99 2.307 1_545 S
Gd63 O102 2.353 1_655 S
Gd63 O103 2.468 . S
Gd63 O104 2.427 . S
Gd63 O106 2.388 1_655 S
Gd63 C127 2.805 . S
N64 C54 1.359 . S
N64 Gd63 2.570 . S
N64 C66 1.343 . S
C65 C53 1.422 . S
C65 C67 1.321 . S
C65 H73 0.931 . S
C66 N64 1.343 . S
C66 C67 1.390 . S
C66 H68 0.931 . S
C67 C65 1.321 . S
C67 C66 1.390 . S
C67 H69 0.930 . S
H68 C66 0.931 . S
H69 C67 0.930 . S
H70 C93 0.931 . S
H71 C59 0.929 . S
H72 C94 0.930 . S
H73 C65 0.931 . S
H74 C55 0.930 . S
H75 C84 0.929 1_655 S
H76 C60 0.931 . S
H77 C61 0.930 . S
H78 C116 0.930 . S
H79 C57 0.929 . S
H80 C85 0.931 . S
H81 C86 0.930 1_655 S
N82 Gd62 2.622 . S
N82 C83 1.369 . S
N82 C84 1.338 . S
C83 N82 1.369 . S
C83 C87 1.415 . S
C83 C90 1.422 . S
C84 H75 0.929 1_455 S
C84 N82 1.338 . S
C84 C86 1.378 . S
C85 H80 0.931 . S
C85 C86 1.348 . S
C85 C87 1.413 . S
C86 H81 0.930 1_455 S
C86 C84 1.378 . S
C86 C85 1.348 . S
C87 C83 1.415 . S
C87 C85 1.413 . S
C87 C117 1.437 . S
H88 C117 0.929 . S
N89 Gd62 2.570 . S
N89 C90 1.359 . S
N89 C93 1.343 . S
C90 C83 1.422 . S
C90 N89 1.359 . S
C90 C92 1.421 . S
C91 C92 1.422 . S
C91 C94 1.321 . S
C91 H118 0.931 . S
C92 C90 1.421 . S
C92 C91 1.422 . S
C92 C116 1.417 . S
C93 H70 0.931 . S
C93 N89 1.343 . S
C93 C94 1.390 . S
C94 H72 0.930 . S
C94 C91 1.321 . S
C94 C93 1.390 . S
O95 Gd63 2.386 . S
O95 C107 1.265 . S
O96 Gd62 2.353 1_645 S
O96 C107 1.242 . S
O97 Gd62 2.468 . S
O97 C115 1.263 . S
O98 Gd62 2.427 . S
O98 C115 1.252 . S
O99 Gd63 2.307 1_565 S
O99 C108 1.261 . S
O100 Gd62 2.388 1_655 S
O100 C108 1.252 . S
O101 Gd62 2.386 . S
O101 C119 1.265 . S
O102 Gd63 2.353 1_455 S
O102 C119 1.242 1_545 S
O103 Gd63 2.468 . S
O103 C127 1.263 . S
O104 Gd63 2.427 . S
O104 C127 1.252 . S
O105 Gd62 2.307 1_545 S
O105 C120 1.261 . S
O106 Gd63 2.388 1_455 S
O106 C120 1.252 . S
C107 O95 1.265 . S
C107 O96 1.242 . S
C108 O99 1.261 . S
C108 O100 1.252 . S
C109 C112 1.394 . S
C109 C114 1.370 . S
C109 C115 1.500 . S
C110 C113 1.383 . S
C110 C114 1.395 . S
C111 C112 1.396 . S
C111 C113 1.365 . S
C111 H128 0.929 . S
C112 C109 1.394 . S
C112 C111 1.396 . S
C112 H129 0.930 . S
C113 C110 1.383 . S
C113 C111 1.365 . S
C113 H130 0.931 . S
C114 C109 1.370 . S
C114 C110 1.395 . S
C114 H131 0.930 . S
C115 Gd62 2.805 . S
C115 O97 1.263 . S
C115 O98 1.252 . S
C115 C109 1.500 . S
C116 H78 0.930 . S
C116 C92 1.417 . S
C116 C117 1.329 . S
C117 C87 1.437 . S
C117 H88 0.929 . S
C117 C116 1.329 . S
H118 C91 0.931 . S
C119 O101 1.265 . S
C119 O102 1.242 1_565 S
C120 O105 1.261 . S
C120 O106 1.252 . S
C121 C124 1.394 . S
C121 C126 1.370 . S
C121 C127 1.500 . S
C122 C125 1.383 . S
C122 C126 1.395 . S
C123 C124 1.396 . S
C123 C125 1.365 . S
C123 H132 0.929 . S
C124 C121 1.394 . S
C124 C123 1.396 . S
C124 H133 0.930 . S
C125 C122 1.383 . S
C125 C123 1.365 . S
C125 H134 0.931 . S
C126 C121 1.370 . S
C126 C122 1.395 . S
C126 H135 0.930 . S
C127 Gd63 2.805 . S
C127 O103 1.263 . S
C127 O104 1.252 . S
C127 C121 1.500 . S
H128 C111 0.929 . S
H129 C112 0.930 . S
H130 C113 0.931 . S
H131 C114 0.930 . S
H132 C123 0.929 . S
H133 C124 0.930 . S
H134 C125 0.931 . S
H135 C126 0.930 . S
C136 C138 1.422 . S
C136 C140 1.415 . S
C136 N142 1.369 . S
C137 C138 1.421 . S
C137 C139 1.417 . S
C137 C149 1.422 . S
C138 C136 1.422 . S
C138 C137 1.421 . S
C138 N148 1.359 . S
C139 C137 1.417 . S
C139 C141 1.329 . S
C139 H158 0.930 . S
C140 C136 1.415 . S
C140 C141 1.437 . S
C140 C144 1.413 . S
C141 C139 1.329 . S
C141 C140 1.437 . S
C141 H163 0.929 . S
N142 C136 1.369 . S
N142 C143 1.338 . S
N142 Gd147 2.622 . S
C143 N142 1.338 . S
C143 C145 1.378 . S
C143 H155 0.929 . S
C144 C140 1.413 . S
C144 C145 1.348 . S
C144 H160 0.931 . S
C145 C143 1.378 . S
C145 C144 1.348 . S
C145 H161 0.930 . S
Gd146 N166 2.622 . S
Gd146 N173 2.570 1_556 S
Gd146 O180 2.353 . S
Gd146 O181 2.468 . S
Gd146 O182 2.427 . S
Gd146 O184 2.387 . S
Gd146 O185 2.386 1_556 S
Gd146 O189 2.307 1_556 S
Gd146 C199 2.805 . S
Gd147 N142 2.622 . S
Gd147 N148 2.570 . S
Gd147 O179 2.386 1_554 S
Gd147 O183 2.307 . S
Gd147 O186 2.353 . S
Gd147 O187 2.468 . S
Gd147 O188 2.427 . S
Gd147 O190 2.388 . S
Gd147 C211 2.805 . S
N148 C138 1.359 . S
N148 Gd147 2.570 . S
N148 C150 1.343 . S
C149 C137 1.422 . S
C149 C151 1.321 . S
C149 H157 0.931 . S
C150 N148 1.343 . S
C150 C151 1.390 . S
C150 H152 0.931 . S
C151 C149 1.321 . S
C151 C150 1.390 . S
C151 H153 0.930 . S
H152 C150 0.931 . S
H153 C151 0.930 . S
H154 C177 0.931 . S
H155 C143 0.929 . S
H156 C178 0.930 . S
H157 C149 0.931 . S
H158 C139 0.930 . S
H159 C168 0.929 . S
H160 C144 0.931 . S
H161 C145 0.930 . S
H162 C200 0.930 . S
H163 C141 0.929 . S
H164 C169 0.931 . S
H165 C170 0.930 . S
N166 Gd146 2.622 . S
N166 C167 1.369 1_556 S
N166 C168 1.338 . S
C167 N166 1.369 1_554 S
C167 C171 1.415 . S
C167 C174 1.422 . S
C168 H159 0.929 . S
C168 N166 1.338 . S
C168 C170 1.378 . S
C169 H164 0.931 . S
C169 C170 1.348 1_554 S
C169 C171 1.413 . S
C170 H165 0.930 . S
C170 C168 1.378 . S
C170 C169 1.348 1_556 S
C171 C167 1.415 . S
C171 C169 1.413 . S
C171 C201 1.437 . S
H172 C201 0.929 . S
N173 Gd146 2.570 1_554 S
N173 C174 1.359 . S
N173 C177 1.343 . S
C174 C167 1.422 . S
C174 N173 1.359 . S
C174 C176 1.421 . S
C175 C176 1.422 . S
C175 C178 1.321 . S
C175 H202 0.931 . S
C176 C174 1.421 . S
C176 C175 1.422 . S
C176 C200 1.417 . S
C177 H154 0.931 . S
C177 N173 1.343 . S
C177 C178 1.390 . S
C178 H156 0.930 . S
C178 C175 1.321 . S
C178 C177 1.390 . S
O179 Gd147 2.386 1_556 S
O179 C191 1.265 . S
O180 Gd146 2.353 . S
O180 C191 1.242 . S
O181 Gd146 2.468 . S
O181 C199 1.263 . S
O182 Gd146 2.427 . S
O182 C199 1.252 . S
O183 Gd147 2.307 . S
O183 C192 1.261 . S
O184 Gd146 2.387 . S
O184 C192 1.252 1_556 S
O185 Gd146 2.386 1_554 S
O185 C203 1.265 . S
O186 Gd147 2.353 . S
O186 C203 1.242 . S
O187 Gd147 2.468 . S
O187 C211 1.263 . S
O188 Gd147 2.427 . S
O188 C211 1.252 . S
O189 Gd146 2.307 1_554 S
O189 C204 1.261 . S
O190 Gd147 2.388 . S
O190 C204 1.252 . S
C191 O179 1.265 . S
C191 O180 1.242 . S
C192 O183 1.261 . S
C192 O184 1.252 1_554 S
C193 C196 1.394 . S
C193 C198 1.370 . S
C193 C199 1.500 . S
C194 C197 1.383 . S
C194 C198 1.395 . S
C195 C196 1.396 . S
C195 C197 1.365 . S
C195 H212 0.929 . S
C196 C193 1.394 . S
C196 C195 1.396 . S
C196 H213 0.930 . S
C197 C194 1.383 . S
C197 C195 1.365 . S
C197 H214 0.931 . S
C198 C193 1.370 . S
C198 C194 1.395 . S
C198 H215 0.930 . S
C199 Gd146 2.805 . S
C199 O181 1.263 . S
C199 O182 1.252 . S
C199 C193 1.500 . S
C200 H162 0.930 . S
C200 C176 1.417 . S
C200 C201 1.329 . S
C201 C171 1.437 . S
C201 H172 0.929 . S
C201 C200 1.329 . S
H202 C175 0.931 . S
C203 O185 1.265 . S
C203 O186 1.242 . S
C204 O189 1.261 . S
C204 O190 1.252 . S
C205 C208 1.394 . S
C205 C210 1.370 . S
C205 C211 1.500 . S
C206 C209 1.383 . S
C206 C210 1.395 . S
C207 C208 1.396 . S
C207 C209 1.365 . S
C207 H216 0.929 . S
C208 C205 1.394 . S
C208 C207 1.396 . S
C208 H217 0.930 . S
C209 C206 1.383 . S
C209 C207 1.365 . S
C209 H218 0.931 . S
C210 C205 1.370 . S
C210 C206 1.395 . S
C210 H219 0.930 . S
C211 Gd147 2.805 . S
C211 O187 1.263 . S
C211 O188 1.252 . S
C211 C205 1.500 . S
H212 C195 0.929 . S
H213 C196 0.930 . S
H214 C197 0.931 . S
H215 C198 0.930 . S
H216 C207 0.929 . S
H217 C208 0.930 . S
H218 C209 0.931 . S
H219 C210 0.930 . S
C220 C221 1.349 . S
C220 C222 1.327 . S
C220 H245 0.950 . S
C221 C220 1.349 . S
C221 C237 1.349 . S
C222 C220 1.327 . S
C222 C241 1.429 . S
C222 H246 0.950 . S
C223 C240 1.574 . S
C223 C242 1.368 . S
C223 H247 0.949 . S
H224 C228 0.949 . S
C225 C226 1.349 . S
C225 C227 1.327 . S
C225 H248 0.950 . S
C226 C225 1.349 . S
C226 C238 1.349 . S
C227 C225 1.327 . S
C227 C243 1.429 . S
C227 H249 0.950 . S
C228 H224 0.949 . S
C228 C236 1.574 . S
C228 C244 1.368 . S
H229 C237 0.950 . S
H230 C235 0.950 . S
H231 C236 0.949 . S
H232 C238 0.950 . S
H233 C239 0.950 . S
H234 C240 0.949 . S
C235 H230 0.950 . S
C235 C237 1.327 . S
C235 C241 1.429 . S
C236 C228 1.574 . S
C236 H231 0.949 . S
C236 C242 1.368 . S
C237 C221 1.349 . S
C237 H229 0.950 . S
C237 C235 1.327 . S
C238 C226 1.349 . S
C238 H232 0.950 . S
C238 C239 1.327 . S
C239 H233 0.950 . S
C239 C238 1.327 . S
C239 C243 1.429 . S
C240 C223 1.574 . S
C240 H234 0.949 . S
C240 C244 1.368 . S
C241 C222 1.429 . S
C241 C235 1.429 . S
C241 C242 1.523 . S
C242 C223 1.368 . S
C242 C236 1.368 . S
C242 C241 1.523 . S
C243 C227 1.429 . S
C243 C239 1.429 . S
C243 C244 1.523 . S
C244 C228 1.368 . S
C244 C240 1.368 . S
C244 C243 1.523 . S
H245 C220 0.950 . S
H246 C222 0.950 . S
H247 C223 0.949 . S
H248 C225 0.950 . S
H249 C227 0.950 . S
C250 C251 1.349 . S
C250 C252 1.327 . S
C250 H275 0.950 . S
C251 C250 1.349 . S
C251 C267 1.349 . S
C252 C250 1.327 . S
C252 C271 1.429 . S
C252 H276 0.950 . S
C253 C270 1.574 . S
C253 C272 1.368 . S
C253 H277 0.949 1_554 S
H254 C258 0.949 . S
C255 C256 1.349 . S
C255 C257 1.327 . S
C255 H278 0.950 1_554 S
C256 C255 1.349 . S
C256 C268 1.349 . S
C257 C255 1.327 . S
C257 C273 1.429 . S
C257 H279 0.950 1_554 S
C258 H254 0.949 . S
C258 C266 1.574 . S
C258 C274 1.368 . S
H259 C267 0.950 1_556 S
H260 C265 0.950 1_556 S
H261 C266 0.949 . S
H262 C268 0.950 . S
H263 C269 0.950 . S
H264 C270 0.949 1_556 S
C265 H260 0.950 1_554 S
C265 C267 1.327 . S
C265 C271 1.429 . S
C266 C258 1.574 . S
C266 H261 0.949 . S
C266 C272 1.368 . S
C267 C251 1.349 . S
C267 H259 0.950 1_554 S
C267 C265 1.327 . S
C268 C256 1.349 . S
C268 H262 0.950 . S
C268 C269 1.327 . S
C269 H263 0.950 . S
C269 C268 1.327 . S
C269 C273 1.429 . S
C270 C253 1.574 . S
C270 H264 0.949 1_554 S
C270 C274 1.368 . S
C271 C252 1.429 . S
C271 C265 1.429 . S
C271 C272 1.523 . S
C272 C253 1.368 . S
C272 C266 1.368 . S
C272 C271 1.523 . S
C273 C257 1.429 . S
C273 C269 1.429 . S
C273 C274 1.523 . S
C274 C258 1.368 . S
C274 C270 1.368 . S
C274 C273 1.523 . S
H275 C250 0.950 . S
H276 C252 0.950 . S
H277 C253 0.949 1_556 S
H278 C255 0.950 1_556 S
H279 C257 0.950 1_556 S
C280 C281 1.349 . S
C280 C282 1.327 . S
C280 H305 0.950 . S
C281 C280 1.349 . S
C281 C297 1.349 . S
C282 C280 1.327 . S
C282 C301 1.429 . S
C282 H306 0.950 . S
C283 C300 1.574 . S
C283 C302 1.368 . S
C283 H307 0.949 . S
H284 C288 0.949 . S
C285 C286 1.349 . S
C285 C287 1.327 . S
C285 H308 0.950 . S
C286 C285 1.349 . S
C286 C298 1.349 . S
C287 C285 1.327 . S
C287 C303 1.429 . S
C287 H309 0.950 . S
C288 H284 0.949 . S
C288 C296 1.574 . S
C288 C304 1.368 . S
H289 C297 0.950 . S
H290 C295 0.950 . S
H291 C296 0.949 . S
H292 C298 0.950 . S
H293 C299 0.950 . S
H294 C300 0.949 . S
C295 H290 0.950 . S
C295 C297 1.327 . S
C295 C301 1.429 . S
C296 C288 1.574 . S
C296 H291 0.949 . S
C296 C302 1.368 . S
C297 C281 1.349 . S
C297 H289 0.950 . S
C297 C295 1.327 . S
C298 C286 1.349 . S
C298 H292 0.950 . S
C298 C299 1.327 . S
C299 H293 0.950 . S
C299 C298 1.327 . S
C299 C303 1.429 . S
C300 C283 1.574 . S
C300 H294 0.949 . S
C300 C304 1.368 . S
C301 C282 1.429 . S
C301 C295 1.429 . S
C301 C302 1.523 . S
C302 C283 1.368 . S
C302 C296 1.368 . S
C302 C301 1.523 . S
C303 C287 1.429 . S
C303 C299 1.429 . S
C303 C304 1.523 . S
C304 C288 1.368 . S
C304 C300 1.368 . S
C304 C303 1.523 . S
H305 C280 0.950 . S
H306 C282 0.950 . S
H307 C283 0.949 . S
H308 C285 0.950 . S
H309 C287 0.950 . S
C310 C311 1.349 . S
C310 C312 1.327 . S
C310 H335 0.950 . S
C311 C310 1.349 . S
C311 C327 1.349 . S
C312 C310 1.327 . S
C312 C331 1.429 . S
C312 H336 0.950 . S
C313 C330 1.572 . S
C313 C332 1.366 1_556 S
C313 H337 0.952 . S
H314 C318 0.949 . S
C315 C316 1.349 . S
C315 C317 1.327 . S
C315 H338 0.950 1_554 S
C316 C315 1.349 . S
C316 C328 1.349 . S
C317 C315 1.327 . S
C317 C333 1.429 . S
C317 H339 0.950 1_554 S
C318 H314 0.949 . S
C318 C326 1.574 . S
C318 C334 1.368 . S
H319 C327 0.950 1_556 S
H320 C325 0.936 1_556 S
H321 C326 0.949 . S
H322 C328 0.950 . S
H323 C329 0.950 . S
H324 C330 0.949 . S
C325 H320 0.936 1_554 S
C325 C327 1.321 . S
C325 C331 1.449 . S
C326 C318 1.574 . S
C326 H321 0.949 . S
C326 C332 1.368 . S
C327 C311 1.349 . S
C327 H319 0.950 1_554 S
C327 C325 1.321 . S
C328 C316 1.349 . S
C328 H322 0.950 . S
C328 C329 1.327 . S
C329 H323 0.950 . S
C329 C328 1.327 . S
C329 C333 1.429 . S
C330 C313 1.572 . S
C330 H324 0.949 . S
C330 C334 1.369 1_556 S
C331 C312 1.429 . S
C331 C325 1.449 . S
C331 C332 1.523 . S
C332 C313 1.366 1_554 S
C332 C326 1.368 . S
C332 C331 1.523 . S
C333 C317 1.429 . S
C333 C329 1.429 . S
C333 C334 1.523 . S
C334 C318 1.368 . S
C334 C330 1.369 1_554 S
C334 C333 1.523 . S
H335 C310 0.950 . S
H336 C312 0.950 . S
H337 C313 0.952 . S
H338 C315 0.950 1_556 S
H339 C317 0.950 1_556 S
C340 C341 1.349 . S
C340 C342 1.327 . S
C340 H365 0.950 . S
C341 C340 1.349 . S
C341 C357 1.349 . S
C342 C340 1.327 . S
C342 C361 1.429 . S
C342 H366 0.950 . S
C343 C360 1.574 . S
C343 C362 1.368 . S
C343 H367 0.949 . S
H344 C348 0.949 . S
C345 C346 1.349 . S
C345 C347 1.327 . S
C345 H368 0.950 . S
C346 C345 1.349 . S
C346 C358 1.349 . S
C347 C345 1.327 . S
C347 C363 1.429 . S
C347 H369 0.950 . S
C348 H344 0.949 . S
C348 C356 1.574 . S
C348 C364 1.368 . S
H349 C357 0.950 . S
H350 C355 0.950 . S
H351 C356 0.949 . S
H352 C358 0.950 . S
H353 C359 0.950 . S
H354 C360 0.949 . S
C355 H350 0.950 . S
C355 C357 1.327 . S
C355 C361 1.429 . S
C356 C348 1.574 . S
C356 H351 0.949 . S
C356 C362 1.368 . S
C357 C341 1.349 . S
C357 H349 0.950 . S
C357 C355 1.327 . S
C358 C346 1.349 . S
C358 H352 0.950 . S
C358 C359 1.327 . S
C359 H353 0.950 . S
C359 C358 1.327 . S
C359 C363 1.429 . S
C360 C343 1.574 . S
C360 H354 0.949 . S
C360 C364 1.368 . S
C361 C342 1.429 . S
C361 C355 1.429 . S
C361 C362 1.523 . S
C362 C343 1.368 . S
C362 C356 1.368 . S
C362 C361 1.523 . S
C363 C347 1.429 . S
C363 C359 1.429 . S
C363 C364 1.523 . S
C364 C348 1.368 . S
C364 C360 1.368 . S
C364 C363 1.523 . S
H365 C340 0.950 . S
H366 C342 0.950 . S
H367 C343 0.949 . S
H368 C345 0.950 . S
H369 C347 0.950 . S
C370 C371 1.349 . S
C370 C372 1.327 . S
C370 H395 0.950 . S
C371 C370 1.349 . S
C371 C387 1.349 . S
C372 C370 1.327 . S
C372 C391 1.429 . S
C372 H396 0.950 . S
C373 C390 1.574 . S
C373 C392 1.368 . S
C373 H397 0.949 . S
H374 C378 0.949 . S
C375 C376 1.349 . S
C375 C377 1.327 . S
C375 H398 0.950 . S
C376 C375 1.349 . S
C376 C388 1.349 . S
C377 C375 1.327 . S
C377 C393 1.429 . S
C377 H399 0.950 . S
C378 H374 0.949 . S
C378 C386 1.574 . S
C378 C394 1.368 . S
H379 C387 0.950 . S
H380 C385 0.950 . S
H381 C386 0.949 . S
H382 C388 0.950 . S
H383 C389 0.950 . S
H384 C390 0.949 . S
C385 H380 0.950 . S
C385 C387 1.327 . S
C385 C391 1.429 . S
C386 C378 1.574 . S
C386 H381 0.949 . S
C386 C392 1.368 . S
C387 C371 1.349 . S
C387 H379 0.950 . S
C387 C385 1.327 . S
C388 C376 1.349 . S
C388 H382 0.950 . S
C388 C389 1.327 . S
C389 H383 0.950 . S
C389 C388 1.327 . S
C389 C393 1.429 . S
C390 C373 1.574 . S
C390 H384 0.949 . S
C390 C394 1.368 . S
C391 C372 1.429 . S
C391 C385 1.429 . S
C391 C392 1.523 . S
C392 C373 1.368 . S
C392 C386 1.368 . S
C392 C391 1.523 . S
C393 C377 1.429 . S
C393 C389 1.429 . S
C393 C394 1.523 . S
C394 C378 1.368 . S
C394 C390 1.368 . S
C394 C393 1.523 . S
H395 C370 0.950 . S
H396 C372 0.950 . S
H397 C373 0.949 . S
H398 C375 0.950 . S
H399 C377 0.950 . S
C400 C401 1.349 . S
C400 C402 1.327 . S
C400 H425 0.950 . S
C401 C400 1.349 . S
C401 C417 1.349 . S
C402 C400 1.327 . S
C402 C421 1.429 . S
C402 H426 0.950 . S
C403 C420 1.574 . S
C403 C422 1.368 . S
C403 H427 0.949 . S
H404 C408 0.949 . S
C405 C406 1.349 . S
C405 C407 1.327 . S
C405 H428 0.950 . S
C406 C405 1.349 . S
C406 C418 1.349 . S
C407 C405 1.327 . S
C407 C423 1.429 . S
C407 H429 0.950 . S
C408 H404 0.949 . S
C408 C416 1.574 . S
C408 C424 1.368 . S
H409 C417 0.950 . S
H410 C415 0.950 . S
H411 C416 0.949 . S
H412 C418 0.950 . S
H413 C419 0.950 . S
H414 C420 0.949 . S
C415 H410 0.950 . S
C415 C417 1.327 . S
C415 C421 1.429 . S
C416 C408 1.574 . S
C416 H411 0.949 . S
C416 C422 1.368 . S
C417 C401 1.349 . S
C417 H409 0.950 . S
C417 C415 1.327 . S
C418 C406 1.349 . S
C418 H412 0.950 . S
C418 C419 1.327 . S
C419 H413 0.950 . S
C419 C418 1.327 . S
C419 C423 1.429 . S
C420 C403 1.574 . S
C420 H414 0.949 . S
C420 C424 1.368 . S
C421 C402 1.429 . S
C421 C415 1.429 . S
C421 C422 1.523 . S
C422 C403 1.368 . S
C422 C416 1.368 . S
C422 C421 1.523 . S
C423 C407 1.429 . S
C423 C419 1.429 . S
C423 C424 1.523 . S
C424 C408 1.368 . S
C424 C420 1.368 . S
C424 C423 1.523 . S
H425 C400 0.950 . S
H426 C402 0.950 . S
H427 C403 0.949 . S
H428 C405 0.950 . S
H429 C407 0.950 . S
C430 C431 1.349 . S
C430 C432 1.327 . S
C430 H455 0.950 . S
C431 C430 1.349 . S
C431 C447 1.349 . S
C432 C430 1.327 . S
C432 C451 1.429 . S
C432 H456 0.950 . S
C433 C450 1.574 . S
C433 C452 1.368 . S
C433 H457 0.949 . S
H434 C438 0.949 . S
C435 C436 1.349 . S
C435 C437 1.327 . S
C435 H458 0.950 . S
C436 C435 1.349 . S
C436 C448 1.349 . S
C437 C435 1.327 . S
C437 C453 1.429 . S
C437 H459 0.950 . S
C438 H434 0.949 . S
C438 C446 1.574 . S
C438 C454 1.368 . S
H439 C447 0.950 . S
H440 C445 0.950 . S
H441 C446 0.949 . S
H442 C448 0.950 . S
H443 C449 0.950 . S
H444 C450 0.949 . S
C445 H440 0.950 . S
C445 C447 1.327 . S
C445 C451 1.429 . S
C446 C438 1.574 . S
C446 H441 0.949 . S
C446 C452 1.368 . S
C447 C431 1.349 . S
C447 H439 0.950 . S
C447 C445 1.327 . S
C448 C436 1.349 . S
C448 H442 0.950 . S
C448 C449 1.327 . S
C449 H443 0.950 . S
C449 C448 1.327 . S
C449 C453 1.429 . S
C450 C433 1.574 . S
C450 H444 0.949 . S
C450 C454 1.368 . S
C451 C432 1.429 . S
C451 C445 1.429 . S
C451 C452 1.523 . S
C452 C433 1.368 . S
C452 C446 1.368 . S
C452 C451 1.523 . S
C453 C437 1.429 . S
C453 C449 1.429 . S
C453 C454 1.523 . S
C454 C438 1.368 . S
C454 C450 1.368 . S
C454 C453 1.523 . S
H455 C430 0.950 . S
H456 C432 0.950 . S
H457 C433 0.949 . S
H458 C435 0.950 . S
H459 C437 0.950 . S
C460 C461 1.349 . S
C460 C462 1.327 . S
C460 H485 0.950 . S
C461 C460 1.349 . S
C461 C477 1.349 . S
C462 C460 1.327 . S
C462 C481 1.429 . S
C462 H486 0.950 . S
C463 C480 1.574 . S
C463 C482 1.368 . S
C463 H487 0.949 . S
H464 C468 0.949 . S
C465 C466 1.349 . S
C465 C467 1.327 . S
C465 H488 0.950 . S
C466 C465 1.349 . S
C466 C478 1.349 . S
C467 C465 1.327 . S
C467 C483 1.429 . S
C467 H489 0.950 . S
C468 H464 0.949 . S
C468 C476 1.574 . S
C468 C484 1.368 . S
H469 C477 0.950 . S
H470 C475 0.950 . S
H471 C476 0.949 . S
H472 C478 0.950 . S
H473 C479 0.950 . S
H474 C480 0.949 . S
C475 H470 0.950 . S
C475 C477 1.327 . S
C475 C481 1.429 . S
C476 C468 1.574 . S
C476 H471 0.949 . S
C476 C482 1.368 . S
C477 C461 1.349 . S
C477 H469 0.950 . S
C477 C475 1.327 . S
C478 C466 1.349 . S
C478 H472 0.950 . S
C478 C479 1.327 . S
C479 H473 0.950 . S
C479 C478 1.327 . S
C479 C483 1.429 . S
C480 C463 1.574 . S
C480 H474 0.949 . S
C480 C484 1.368 . S
C481 C462 1.429 . S
C481 C475 1.429 . S
C481 C482 1.523 . S
C482 C463 1.368 . S
C482 C476 1.368 . S
C482 C481 1.523 . S
C483 C467 1.429 . S
C483 C479 1.429 . S
C483 C484 1.523 . S
C484 C468 1.368 . S
C484 C480 1.368 . S
C484 C483 1.523 . S
H485 C460 0.950 . S
H486 C462 0.950 . S
H487 C463 0.949 . S
H488 C465 0.950 . S
H489 C467 0.950 . S
C490 C491 1.349 . S
C490 C492 1.327 . S
C490 H515 0.950 . S
C491 C490 1.349 . S
C491 C507 1.349 . S
C492 C490 1.327 . S
C492 C511 1.429 . S
C492 H516 0.950 . S
C493 C510 1.574 . S
C493 C512 1.368 . S
C493 H517 0.949 . S
H494 C498 0.949 . S
C495 C496 1.349 . S
C495 C497 1.327 . S
C495 H518 0.950 . S
C496 C495 1.349 . S
C496 C508 1.349 . S
C497 C495 1.327 . S
C497 C513 1.429 . S
C497 H519 0.950 . S
C498 H494 0.949 . S
C498 C506 1.574 . S
C498 C514 1.368 . S
H499 C507 0.950 . S
H500 C505 0.950 . S
H501 C506 0.949 . S
H502 C508 0.950 . S
H503 C509 0.950 . S
H504 C510 0.949 . S
C505 H500 0.950 . S
C505 C507 1.327 . S
C505 C511 1.429 . S
C506 C498 1.574 . S
C506 H501 0.949 . S
C506 C512 1.368 . S
C507 C491 1.349 . S
C507 H499 0.950 . S
C507 C505 1.327 . S
C508 C496 1.349 . S
C508 H502 0.950 . S
C508 C509 1.327 . S
C509 H503 0.950 . S
C509 C508 1.327 . S
C509 C513 1.429 . S
C510 C493 1.574 . S
C510 H504 0.949 . S
C510 C514 1.368 . S
C511 C492 1.429 . S
C511 C505 1.429 . S
C511 C512 1.523 . S
C512 C493 1.368 . S
C512 C506 1.368 . S
C512 C511 1.523 . S
C513 C497 1.429 . S
C513 C509 1.429 . S
C513 C514 1.523 . S
C514 C498 1.368 . S
C514 C510 1.368 . S
C514 C513 1.523 . S
H515 C490 0.950 . S
H516 C492 0.950 . S
H517 C493 0.949 . S
H518 C495 0.950 . S
H519 C497 0.950 . S
C520 C521 1.349 . S
C520 C522 1.327 . S
C520 H545 0.950 . S
C521 C520 1.349 . S
C521 C537 1.349 . S
C522 C520 1.327 . S
C522 C541 1.429 . S
C522 H546 0.950 . S
C523 C540 1.574 . S
C523 C542 1.368 . S
C523 H547 0.949 . S
H524 C528 0.949 . S
C525 C526 1.349 . S
C525 C527 1.327 . S
C525 H548 0.950 . S
C526 C525 1.349 . S
C526 C538 1.349 . S
C527 C525 1.327 . S
C527 C543 1.429 . S
C527 H549 0.950 . S
C528 H524 0.949 . S
C528 C536 1.574 . S
C528 C544 1.368 . S
H529 C537 0.950 . S
H530 C535 0.950 . S
H531 C536 0.949 . S
H532 C538 0.950 . S
H533 C539 0.950 . S
H534 C540 0.949 . S
C535 H530 0.950 . S
C535 C537 1.327 . S
C535 C541 1.429 . S
C536 C528 1.574 . S
C536 H531 0.949 . S
C536 C542 1.368 . S
C537 C521 1.349 . S
C537 H529 0.950 . S
C537 C535 1.327 . S
C538 C526 1.349 . S
C538 H532 0.950 . S
C538 C539 1.327 . S
C539 H533 0.950 . S
C539 C538 1.327 . S
C539 C543 1.429 . S
C540 C523 1.574 . S
C540 H534 0.949 . S
C540 C544 1.368 . S
C541 C522 1.429 . S
C541 C535 1.429 . S
C541 C542 1.523 . S
C542 C523 1.368 . S
C542 C536 1.368 . S
C542 C541 1.523 . S
C543 C527 1.429 . S
C543 C539 1.429 . S
C543 C544 1.523 . S
C544 C528 1.368 . S
C544 C540 1.368 . S
C544 C543 1.523 . S
H545 C520 0.950 . S
H546 C522 0.950 . S
H547 C523 0.949 . S
H548 C525 0.950 . S
H549 C527 0.950 . S
C550 C551 1.349 . S
C550 C552 1.327 . S
C550 H575 0.950 . S
C551 C550 1.349 . S
C551 C567 1.349 . S
C552 C550 1.327 . S
C552 C571 1.429 . S
C552 H576 0.950 . S
C553 C570 1.574 . S
C553 C572 1.368 . S
C553 H577 0.949 . S
H554 C558 0.949 . S
C555 C556 1.349 . S
C555 C557 1.327 . S
C555 H578 0.950 1_565 S
C556 C555 1.349 . S
C556 C568 1.349 . S
C557 C555 1.327 . S
C557 C573 1.429 . S
C557 H579 0.950 . S
C558 H554 0.949 . S
C558 C566 1.574 . S
C558 C574 1.368 . S
H559 C567 0.950 . S
H560 C565 0.950 . S
H561 C566 0.949 . S
H562 C568 0.950 . S
H563 C569 0.950 . S
H564 C570 0.949 . S
C565 H560 0.950 . S
C565 C567 1.327 . S
C565 C571 1.429 . S
C566 C558 1.574 . S
C566 H561 0.949 . S
C566 C572 1.368 . S
C567 C551 1.349 . S
C567 H559 0.950 . S
C567 C565 1.327 . S
C568 C556 1.349 . S
C568 H562 0.950 . S
C568 C569 1.327 . S
C569 H563 0.950 . S
C569 C568 1.327 . S
C569 C573 1.429 . S
C570 C553 1.574 . S
C570 H564 0.949 . S
C570 C574 1.368 . S
C571 C552 1.429 . S
C571 C565 1.429 . S
C571 C572 1.523 . S
C572 C553 1.368 . S
C572 C566 1.368 . S
C572 C571 1.523 . S
C573 C557 1.429 . S
C573 C569 1.429 . S
C573 C574 1.523 . S
C574 C558 1.368 . S
C574 C570 1.368 . S
C574 C573 1.523 . S
H575 C550 0.950 . S
H576 C552 0.950 . S
H577 C553 0.949 . S
H578 C555 0.950 1_545 S
H579 C557 0.950 . S
C226 C120 1.692 . S
C221 N41 1.723 . S
C251 N2 1.674 . S
C256 C192 1.656 . S
C281 N15 1.718 . S
C286 C108 1.692 . S
C311 N28 1.668 . S
C316 C204 1.656 . S
C346 C110 1.428 . S
C341 N5 1.615 . S
C376 C191 1.694 . S
C371 N14 1.682 . S
C401 N27 1.591 . S
C406 C107 1.623 . S
C431 N44 1.586 . S
C436 C194 1.429 . S
C466 C206 1.429 . S
C461 N18 1.585 . S
C496 C122 1.428 . S
C491 N31 1.614 1_556 S
C526 C203 1.694 . S
C521 N40 1.692 . S
C551 N1 1.603 1_556 S
C556 C119 1.623 . S
