# Generated by pormake.
# Topology nom, (4,4)-cn, num edge types: 1
# Building blocks:
#     Node 0, Type 0, BuildingBlock: MUDLON_clean_linker_0, # of connection points: 4
#     Node 1, Type 0, BuildingBlock: MUDLON_clean_linker_0, # of connection points: 4
#     Node 2, Type 0, BuildingBlock: MUDLON_clean_linker_0, # of connection points: 4
#     Node 3, Type 0, BuildingBlock: MUDLON_clean_linker_0, # of connection points: 4
#     Node 4, Type 0, BuildingBlock: MUDLON_clean_linker_0, # of connection points: 4
#     Node 5, Type 0, BuildingBlock: MUDLON_clean_linker_0, # of connection points: 4
#     Node 6, Type 1, BuildingBlock: UXUYUI_clean_sbu_0, # of connection points: 4
#     Node 7, Type 1, BuildingBlock: UXUYUI_clean_sbu_0, # of connection points: 4
#     Node 8, Type 1, BuildingBlock: UXUYUI_clean_sbu_0, # of connection points: 4
#     Node 9, Type 1, BuildingBlock: UXUYUI_clean_sbu_0, # of connection points: 4
#     Node 10, Type 1, BuildingBlock: UXUYUI_clean_sbu_0, # of connection points: 4
#     Node 11, Type 1, BuildingBlock: UXUYUI_clean_sbu_0, # of connection points: 4
#     Edge 12, Type (0, 1), BuildingBlock: MIFKUJ_clean_linker_0, # of connection points: 2
#     Edge 13, Type (0, 1), BuildingBlock: MIFKUJ_clean_linker_0, # of connection points: 2
#     Edge 14, Type (0, 1), BuildingBlock: MIFKUJ_clean_linker_0, # of connection points: 2
#     Edge 15, Type (0, 1), BuildingBlock: MIFKUJ_clean_linker_0, # of connection points: 2
#     Edge 16, Type (0, 1), BuildingBlock: MIFKUJ_clean_linker_0, # of connection points: 2
#     Edge 17, Type (0, 1), BuildingBlock: MIFKUJ_clean_linker_0, # of connection points: 2
#     Edge 18, Type (0, 1), BuildingBlock: MIFKUJ_clean_linker_0, # of connection points: 2
#     Edge 19, Type (0, 1), BuildingBlock: MIFKUJ_clean_linker_0, # of connection points: 2
#     Edge 20, Type (0, 1), BuildingBlock: MIFKUJ_clean_linker_0, # of connection points: 2
#     Edge 21, Type (0, 1), BuildingBlock: MIFKUJ_clean_linker_0, # of connection points: 2
#     Edge 22, Type (0, 1), BuildingBlock: MIFKUJ_clean_linker_0, # of connection points: 2
#     Edge 23, Type (0, 1), BuildingBlock: MIFKUJ_clean_linker_0, # of connection points: 2
#     Edge 24, Type (0, 1), BuildingBlock: MIFKUJ_clean_linker_0, # of connection points: 2
#     Edge 25, Type (0, 1), BuildingBlock: MIFKUJ_clean_linker_0, # of connection points: 2
#     Edge 26, Type (0, 1), BuildingBlock: MIFKUJ_clean_linker_0, # of connection points: 2
#     Edge 27, Type (0, 1), BuildingBlock: MIFKUJ_clean_linker_0, # of connection points: 2
#     Edge 28, Type (0, 1), BuildingBlock: MIFKUJ_clean_linker_0, # of connection points: 2
#     Edge 29, Type (0, 1), BuildingBlock: MIFKUJ_clean_linker_0, # of connection points: 2
#     Edge 30, Type (0, 1), BuildingBlock: MIFKUJ_clean_linker_0, # of connection points: 2
#     Edge 31, Type (0, 1), BuildingBlock: MIFKUJ_clean_linker_0, # of connection points: 2
#     Edge 32, Type (0, 1), BuildingBlock: MIFKUJ_clean_linker_0, # of connection points: 2
#     Edge 33, Type (0, 1), BuildingBlock: MIFKUJ_clean_linker_0, # of connection points: 2
#     Edge 34, Type (0, 1), BuildingBlock: MIFKUJ_clean_linker_0, # of connection points: 2
#     Edge 35, Type (0, 1), BuildingBlock: MIFKUJ_clean_linker_0, # of connection points: 2
# Relax obj value: 0.038
# Max RMSD: 0.149
# Mean RMSD: 0.119
data_MOF--net-nom--node1-UXUYUI_clean_sbu_0--node2-MUDLON_clean_linker_0--edge1-MIFKUJ_clean_linker_0
_symmetry_space_group_name_H-M    P1
_symmetry_Int_Tables_number       1
_symmetry_cell_setting            triclinic
loop_
_symmetry_equiv_pos_as_xyz
'x, y, z'
_cell_length_a     84.014874
_cell_length_b     84.740391
_cell_length_c     84.711206
_cell_angle_alpha  90.294971
_cell_angle_beta   89.853005
_cell_angle_gamma 120.28165
loop_
_atom_site_label
_atom_site_type_symbol
_atom_site_fract_x
_atom_site_fract_y
_atom_site_fract_z
_atom_type_partial_charge
H0 H 0.10631 0.52543 0.32837 0.0
N1 N 0.08069 0.5315 0.34034 0.0
H2 H 0.13249 0.54594 0.3118 0.0
H3 H 0.08571 0.56276 0.32626 0.0
H4 H 0.11215 0.5837 0.31033 0.0
H5 H 0.0919 0.56473 0.35428 0.0
H6 H 0.10604 0.57439 0.38012 0.0
H7 H 0.08092 0.51011 0.36302 0.0
H8 H 0.09362 0.51917 0.3896 0.0
H9 H 0.05936 0.49761 0.33038 0.0
H10 H 0.05887 0.54693 0.34173 0.0
H11 H 0.02662 0.48223 0.32409 0.0
H12 H 0.02623 0.5321 0.33449 0.0
H13 H 0.92296 0.42953 0.30597 0.0
H14 H 0.90759 0.42195 0.28023 0.0
H15 H 0.93562 0.47932 0.26846 0.0
H16 H 0.95105 0.48675 0.29424 0.0
H17 H 0.93254 0.48648 0.31735 0.0
H18 H 0.90719 0.48428 0.33306 0.0
H19 H 0.90577 0.44022 0.35982 0.0
H20 H 0.93028 0.44173 0.34313 0.0
H21 H 0.97218 0.46139 0.3018 0.0
H22 H 0.00524 0.47997 0.30567 0.0
H23 H 0.99639 0.50996 0.34274 0.0
N24 N 0.94536 0.46251 0.31786 0.0
H25 H 0.96348 0.49231 0.33809 0.0
C26 C 0.09417 0.54258 0.32865 0.0
C27 C 0.10733 0.53795 0.32413 0.0
C28 C 0.12236 0.54978 0.31481 0.0
C29 C 0.12462 0.56665 0.30995 0.0
C30 C 0.11082 0.5708 0.31376 0.0
C31 C 0.09568 0.55884 0.32298 0.0
C32 C 0.08581 0.53676 0.35656 0.0
C33 C 0.09218 0.55469 0.3619 0.0
C34 C 0.10012 0.56016 0.37687 0.0
C35 C 0.10139 0.54769 0.387 0.0
C36 C 0.09354 0.52937 0.38201 0.0
C37 C 0.08602 0.52405 0.3669 0.0
C38 C 0.06153 0.52337 0.33629 0.0
C39 C 0.05215 0.50518 0.33123 0.0
C40 C 0.03346 0.4965 0.32749 0.0
C41 C 0.02369 0.50595 0.32852 0.0
C42 C 0.0332 0.52432 0.33362 0.0
C43 C 0.05195 0.53293 0.33759 0.0
C44 C 0.93811 0.45861 0.30198 0.0
C45 C 0.92594 0.44041 0.29772 0.0
C46 C 0.9171 0.43615 0.2831 0.0
C47 C 0.92029 0.45006 0.27239 0.0
C48 C 0.93298 0.46831 0.27644 0.0
C49 C 0.94176 0.47258 0.29115 0.0
C50 C 0.93295 0.4639 0.32885 0.0
C51 C 0.9268 0.4764 0.32663 0.0
C52 C 0.9124 0.47524 0.3358 0.0
C53 C 0.9041 0.46182 0.3476 0.0
C54 C 0.91137 0.45035 0.35056 0.0
C55 C 0.92553 0.4513 0.34118 0.0
C56 C 0.96499 0.47535 0.31938 0.0
C57 C 0.97733 0.47229 0.31048 0.0
C58 C 0.99631 0.48279 0.3129 0.0
C59 C 0.0036 0.49635 0.32472 0.0
C60 C 0.99137 0.49981 0.33341 0.0
C61 C 0.97233 0.4895 0.33077 0.0
H62 H 0.50748 0.9234 0.48529 0.0
N63 N 0.50183 0.9498 0.47548 0.0
H64 H 0.48695 0.89706 0.50158 0.0
H65 H 0.47155 0.94545 0.49173 0.0
H66 H 0.45089 0.91915 0.50779 0.0
H67 H 0.46883 0.94235 0.46282 0.0
H68 H 0.45701 0.92889 0.43681 0.0
H69 H 0.52048 0.94536 0.45226 0.0
H70 H 0.50882 0.93199 0.42614 0.0
H71 H 0.53689 0.97098 0.48303 0.0
H72 H 0.48643 0.97166 0.47651 0.0
H73 H 0.55317 0.0036 0.48894 0.0
H74 H 0.50219 0.00406 0.48349 0.0
H75 H 0.6036 0.10708 0.51266 0.0
H76 H 0.60822 0.12094 0.53882 0.0
H77 H 0.54949 0.08932 0.54726 0.0
H78 H 0.54504 0.07603 0.52077 0.0
H79 H 0.54591 0.09467 0.49752 0.0
H80 H 0.54839 0.12046 0.48273 0.0
H81 H 0.59795 0.12783 0.46029 0.0
H82 H 0.59571 0.10242 0.4757 0.0
H83 H 0.57588 0.05811 0.51192 0.0
H84 H 0.5576 0.02529 0.50772 0.0
H85 H 0.52338 0.03342 0.47453 0.0
N86 N 0.5719 0.08429 0.49867 0.0
H87 H 0.54084 0.06602 0.47959 0.0
C88 C 0.49113 0.93639 0.48727 0.0
C89 C 0.49537 0.92274 0.49051 0.0
C90 C 0.48356 0.90766 0.49968 0.0
C91 C 0.4672 0.90594 0.50582 0.0
C92 C 0.46346 0.92014 0.50332 0.0
C93 C 0.47528 0.93522 0.49408 0.0
C94 C 0.49554 0.94472 0.45948 0.0
C95 C 0.47776 0.94045 0.4548 0.0
C96 C 0.47098 0.93268 0.43996 0.0
C97 C 0.48195 0.92928 0.42949 0.0
C98 C 0.5001 0.93459 0.43388 0.0
C99 C 0.50678 0.94218 0.44877 0.0
C100 C 0.51048 0.96884 0.4796 0.0
C101 C 0.52928 0.97818 0.4832 0.0
C102 C 0.53849 0.99682 0.4867 0.0
C103 C 0.52901 0.00658 0.48693 0.0
C104 C 0.51003 0.99711 0.48333 0.0
C105 C 0.50089 0.97845 0.47955 0.0
C106 C 0.57407 0.09054 0.51482 0.0
C107 C 0.59179 0.10301 0.52028 0.0
C108 C 0.59438 0.11082 0.53527 0.0
C109 C 0.57922 0.10625 0.54521 0.0
C110 C 0.56144 0.09334 0.53985 0.0
C111 C 0.55887 0.08561 0.52477 0.0
C112 C 0.5708 0.09679 0.48781 0.0
C113 C 0.55715 0.10167 0.48925 0.0
C114 C 0.55852 0.11637 0.48068 0.0
C115 C 0.57353 0.12641 0.47046 0.0
C116 C 0.58644 0.12065 0.46829 0.0
C117 C 0.58509 0.10603 0.47693 0.0
C118 C 0.5599 0.0648 0.49626 0.0
C119 C 0.56424 0.05281 0.50393 0.0
C120 C 0.55386 0.03399 0.50134 0.0
C121 C 0.53907 0.02657 0.49061 0.0
C122 C 0.5345 0.03852 0.48304 0.0
C123 C 0.54469 0.05738 0.48588 0.0
H124 H 0.50907 0.60387 0.66461 0.0
N125 N 0.50455 0.57275 0.67576 0.0
H126 H 0.4878 0.6081 0.64792 0.0
H127 H 0.47435 0.54545 0.66061 0.0
H128 H 0.45273 0.54951 0.64413 0.0
H129 H 0.47135 0.54879 0.68927 0.0
H130 H 0.4604 0.55222 0.71504 0.0
H131 H 0.52411 0.59684 0.69814 0.0
H132 H 0.51317 0.6005 0.72399 0.0
H133 H 0.53544 0.58324 0.65995 0.0
H134 H 0.49091 0.53651 0.6829 0.0
H135 H 0.55038 0.56555 0.65409 0.0
H136 H 0.50616 0.51894 0.67787 0.0
H137 H 0.60289 0.51523 0.64325 0.0
H138 H 0.61082 0.50839 0.61724 0.0
H139 H 0.55306 0.47831 0.60494 0.0
H140 H 0.54529 0.48523 0.6309 0.0
H141 H 0.54317 0.46672 0.65444 0.0
H142 H 0.54443 0.44244 0.6688 0.0
H143 H 0.59265 0.48302 0.69389 0.0
H144 H 0.5915 0.50719 0.67915 0.0
H145 H 0.58339 0.53776 0.66258 0.0
H146 H 0.56684 0.5541 0.66749 0.0
H147 H 0.51518 0.50429 0.65868 0.0
N148 N 0.56951 0.50296 0.65514 0.0
H149 H 0.53195 0.48794 0.65462 0.0
C150 C 0.49327 0.57444 0.66388 0.0
C151 C 0.49701 0.59198 0.65986 0.0
C152 C 0.48477 0.59434 0.65046 0.0
C153 C 0.46846 0.57913 0.6449 0.0
C154 C 0.46522 0.56149 0.64818 0.0
C155 C 0.47753 0.55914 0.65764 0.0
C156 C 0.49862 0.57265 0.69176 0.0
C157 C 0.48072 0.5599 0.69687 0.0
C158 C 0.47441 0.56195 0.71158 0.0
C159 C 0.48586 0.57673 0.72149 0.0
C160 C 0.50406 0.58889 0.7167 0.0
C161 C 0.51034 0.58685 0.70195 0.0
C162 C 0.51228 0.56138 0.67205 0.0
C163 C 0.52895 0.56916 0.66378 0.0
C164 C 0.53753 0.55904 0.66058 0.0
C165 C 0.52968 0.54086 0.66575 0.0
C166 C 0.5126 0.53286 0.67364 0.0
C167 C 0.5039 0.54298 0.67668 0.0
C168 C 0.57359 0.50086 0.63901 0.0
C169 C 0.59201 0.50747 0.6348 0.0
C170 C 0.59648 0.50343 0.62002 0.0
C171 C 0.58254 0.4927 0.60912 0.0
C172 C 0.5641 0.48673 0.61307 0.0
C173 C 0.55963 0.49068 0.62794 0.0
C174 C 0.56736 0.48878 0.6657 0.0
C175 C 0.55371 0.47042 0.66332 0.0
C176 C 0.55444 0.45653 0.67157 0.0
C177 C 0.56881 0.46079 0.68232 0.0
C178 C 0.58161 0.47927 0.68548 0.0
C179 C 0.58088 0.49309 0.67721 0.0
C180 C 0.55898 0.51178 0.6581 0.0
C181 C 0.56849 0.53042 0.66177 0.0
C182 C 0.55897 0.53973 0.66441 0.0
C183 C 0.53963 0.53061 0.66327 0.0
C184 C 0.53005 0.51176 0.65976 0.0
C185 C 0.53964 0.5024 0.65727 0.0
H186 H 0.11363 0.598 0.81983 0.0
N187 N 0.08336 0.56686 0.81281 0.0
H188 H 0.14005 0.60213 0.83537 0.0
H189 H 0.08442 0.54056 0.83101 0.0
H190 H 0.11062 0.54474 0.84681 0.0
H191 H 0.09293 0.54304 0.80018 0.0
H192 H 0.10681 0.54567 0.77416 0.0
H193 H 0.08493 0.58818 0.78927 0.0
H194 H 0.09851 0.5907 0.76309 0.0
H195 H 0.06277 0.57981 0.82395 0.0
H196 H 0.06074 0.52969 0.81079 0.0
H197 H 0.02994 0.56293 0.83009 0.0
H198 H 0.02799 0.51239 0.81766 0.0
H199 H 0.9268 0.51446 0.84707 0.0
H200 H 0.91105 0.50598 0.87261 0.0
H201 H 0.93569 0.47293 0.88229 0.0
H202 H 0.95176 0.48192 0.85687 0.0
H203 H 0.93563 0.46601 0.83297 0.0
H204 H 0.90992 0.4434 0.81722 0.0
H205 H 0.90672 0.48687 0.79358 0.0
H206 H 0.93169 0.50928 0.81029 0.0
H207 H 0.9748 0.52914 0.8515 0.0
H208 H 0.00785 0.54304 0.84795 0.0
H209 H 0.99866 0.50637 0.80891 0.0
N210 N 0.9478 0.50267 0.83427 0.0
H211 H 0.96572 0.49174 0.81305 0.0
C212 C 0.097 0.56908 0.82429 0.0
C213 C 0.11273 0.5864 0.82598 0.0
C214 C 0.12781 0.58871 0.83475 0.0
C215 C 0.12733 0.57373 0.84219 0.0
C216 C 0.11123 0.55652 0.84125 0.0
C217 C 0.09622 0.55414 0.83223 0.0
C218 C 0.0881 0.56561 0.79669 0.0
C219 C 0.09375 0.55322 0.79205 0.0
C220 C 0.10174 0.55478 0.77721 0.0
C221 C 0.10388 0.5685 0.76669 0.0
C222 C 0.09694 0.57994 0.77092 0.0
C223 C 0.0892 0.57854 0.78584 0.0
C224 C 0.0642 0.55606 0.81706 0.0
C225 C 0.05522 0.56507 0.82266 0.0
C226 C 0.03647 0.55533 0.82628 0.0
C227 C 0.02622 0.53619 0.82454 0.0
C228 C 0.03534 0.52711 0.81902 0.0
C229 C 0.05414 0.53696 0.81522 0.0
C230 C 0.94036 0.49882 0.85008 0.0
C231 C 0.92898 0.50561 0.85484 0.0
C232 C 0.91988 0.50061 0.86935 0.0
C233 C 0.92195 0.48861 0.87941 0.0
C234 C 0.93389 0.48229 0.87486 0.0
C235 C 0.94301 0.48733 0.86031 0.0
C236 C 0.93528 0.48934 0.82302 0.0
C237 C 0.92945 0.47066 0.82435 0.0
C238 C 0.91482 0.45773 0.81516 0.0
C239 C 0.90593 0.46322 0.80426 0.0
C240 C 0.91283 0.48205 0.80215 0.0
C241 C 0.92725 0.49493 0.81153 0.0
C242 C 0.96738 0.50905 0.83286 0.0
C243 C 0.97983 0.52369 0.84244 0.0
C244 C 0.99883 0.53186 0.84022 0.0
C245 C 0.00604 0.52602 0.828 0.0
C246 C 0.99369 0.51111 0.81858 0.0
C247 C 0.97462 0.50272 0.82096 0.0
H248 H 0.52425 0.11107 0.99432 0.0
N249 N 0.52765 0.08478 0.98062 0.0
H250 H 0.54711 0.13642 0.01037 0.0
H251 H 0.55993 0.08834 0.9918 0.0
H252 H 0.58273 0.11338 0.00808 0.0
H253 H 0.55764 0.09066 0.96333 0.0
H254 H 0.56544 0.10351 0.93681 0.0
H255 H 0.50637 0.09053 0.96126 0.0
H256 H 0.51363 0.10273 0.93443 0.0
H257 H 0.49362 0.06479 0.99126 0.0
H258 H 0.54135 0.06161 0.97771 0.0
H259 H 0.47675 0.03209 0.99659 0.0
H260 H 0.52508 0.02904 0.98395 0.0
H261 H 0.42209 0.92699 0.01393 0.0
H262 H 0.41651 0.91213 0.03959 0.0
H263 H 0.47496 0.9432 0.04957 0.0
H264 H 0.48038 0.95731 0.02353 0.0
H265 H 0.48022 0.93949 0.99982 0.0
H266 H 0.47756 0.91341 0.98519 0.0
H267 H 0.42859 0.90657 0.9621 0.0
H268 H 0.43085 0.93206 0.97758 0.0
H269 H 0.4544 0.97696 0.0175 0.0
H270 H 0.47374 0.00969 0.01395 0.0
H271 H 0.50141 1.0003 0.97507 0.0
N272 N 0.45434 0.95003 0.00086 0.0
H273 H 0.48295 0.96768 0.97926 0.0
C274 C 0.54031 0.09783 0.99188 0.0
C275 C 0.53686 0.11136 0.99757 0.0
C276 C 0.54993 0.12578 0.00677 0.0
C277 C 0.56682 0.12698 0.01048 0.0
C278 C 0.56997 0.11299 0.00527 0.0
C279 C 0.55685 0.09855 0.99603 0.0
C280 C 0.53147 0.08985 0.96429 0.0
C281 C 0.54789 0.09306 0.95704 0.0
C282 C 0.55228 0.10033 0.94181 0.0
C283 C 0.54026 0.10438 0.93353 0.0
C284 C 0.52339 0.10017 0.94058 0.0
C285 C 0.51911 0.09305 0.95582 0.0
C286 C 0.51873 0.06566 0.98434 0.0
C287 C 0.50054 0.05702 0.98975 0.0
C288 C 0.491 0.03832 0.9929 0.0
C289 C 0.49957 0.02781 0.99091 0.0
C290 C 0.51795 0.03659 0.98552 0.0
C291 C 0.5274 0.05532 0.98215 0.0
C292 C 0.45155 0.94327 0.01686 0.0
C293 C 0.43362 0.93072 0.02178 0.0
C294 C 0.43049 0.92233 0.0365 0.0
C295 C 0.44529 0.92644 0.04672 0.0
C296 C 0.46326 0.93947 0.04193 0.0
C297 C 0.46639 0.94771 0.02711 0.0
C298 C 0.45549 0.93747 0.98997 0.0
C299 C 0.46905 0.93249 0.99148 0.0
C300 C 0.46757 0.91763 0.98297 0.0
C301 C 0.45265 0.90761 0.97263 0.0
C302 C 0.43998 0.91362 0.97025 0.0
C303 C 0.44135 0.92833 0.97892 0.0
C304 C 0.46724 0.96948 0.99902 0.0
C305 C 0.46493 0.98189 0.00844 0.0
C306 C 0.47587 0.0007 0.00623 0.0
C307 C 0.48911 0.00777 0.99412 0.0
C308 C 0.49159 0.99544 0.9847 0.0
C309 C 0.48084 0.97656 0.9871 0.0
H310 H 0.52082 0.43507 0.14951 0.0
N311 N 0.52611 0.45942 0.17176 0.0
H312 H 0.54431 0.43368 0.13342 0.0
H313 H 0.56238 0.48633 0.16943 0.0
H314 H 0.58576 0.48546 0.15304 0.0
H315 H 0.54638 0.48693 0.19279 0.0
H316 H 0.55569 0.48329 0.21933 0.0
H317 H 0.51523 0.42844 0.18707 0.0
H318 H 0.52432 0.42462 0.21356 0.0
H319 H 0.49048 0.44697 0.17548 0.0
H320 H 0.54108 0.49519 0.16201 0.0
H321 H 0.47368 0.46311 0.17138 0.0
H322 H 0.52431 0.5111 0.1569 0.0
H323 H 0.42373 0.51572 0.13896 0.0
H324 H 0.41917 0.5249 0.11293 0.0
H325 H 0.47756 0.54947 0.10358 0.0
H326 H 0.482 0.54095 0.13007 0.0
H327 H 0.48116 0.56029 0.15342 0.0
H328 H 0.47893 0.58373 0.16854 0.0
H329 H 0.42937 0.54186 0.19092 0.0
H330 H 0.43173 0.51843 0.17571 0.0
H331 H 0.4448 0.48911 0.14772 0.0
H332 H 0.46252 0.47386 0.15167 0.0
H333 H 0.50871 0.52482 0.16812 0.0
N334 N 0.45531 0.52386 0.15258 0.0
H335 H 0.49128 0.5401 0.16316 0.0
C336 C 0.53973 0.46077 0.16061 0.0
C337 C 0.53492 0.44628 0.15005 0.0
C338 C 0.54838 0.44555 0.14084 0.0
C339 C 0.56699 0.4594 0.14201 0.0
C340 C 0.57163 0.4744 0.15204 0.0
C341 C 0.55818 0.47503 0.16131 0.0
C342 C 0.53018 0.45788 0.18798 0.0
C343 C 0.54142 0.47332 0.19732 0.0
C344 C 0.54674 0.47121 0.21244 0.0
C345 C 0.54076 0.45367 0.21851 0.0
C346 C 0.52898 0.4383 0.20931 0.0
C347 C 0.52381 0.44043 0.19419 0.0
C348 C 0.51694 0.46964 0.16886 0.0
C349 C 0.49791 0.46098 0.17143 0.0
C350 C 0.48832 0.47023 0.16894 0.0
C351 C 0.49753 0.48841 0.16357 0.0
C352 C 0.51672 0.49719 0.16116 0.0
C353 C 0.52637 0.48797 0.16392 0.0
C354 C 0.45309 0.52751 0.13639 0.0
C355 C 0.43546 0.52285 0.13116 0.0
C356 C 0.43291 0.52805 0.11622 0.0
C357 C 0.44799 0.53792 0.10604 0.0
C358 C 0.46566 0.54211 0.11115 0.0
C359 C 0.46822 0.53707 0.12623 0.0
C360 C 0.4566 0.53755 0.16353 0.0
C361 C 0.47015 0.55609 0.16195 0.0
C362 C 0.46886 0.5695 0.1706 0.0
C363 C 0.45389 0.56462 0.18082 0.0
C364 C 0.44095 0.54601 0.18302 0.0
C365 C 0.44236 0.53262 0.17447 0.0
C366 C 0.46648 0.51563 0.15532 0.0
C367 C 0.45878 0.49696 0.15215 0.0
C368 C 0.46891 0.48825 0.15456 0.0
C369 C 0.48704 0.498 0.16045 0.0
C370 C 0.49488 0.51685 0.16344 0.0
C371 C 0.48478 0.52563 0.16076 0.0
Li372 Li 0.63789 0.39565 0.42741 0.0
Li373 Li 0.63253 0.36705 0.41497 0.0
Li374 Li 0.66203 0.39689 0.41067 0.0
Li375 Li 0.63332 0.39111 0.39796 0.0
C376 C 0.65482 0.38279 0.44629 0.0
N377 N 0.66022 0.38296 0.47847 0.0
C378 C 0.64429 0.36693 0.4551 0.0
C379 C 0.66828 0.39866 0.4538 0.0
C380 C 0.64718 0.36731 0.47137 0.0
C381 C 0.67074 0.3985 0.47009 0.0
C382 C 0.59756 0.36455 0.41549 0.0
C383 C 0.57011 0.34216 0.40193 0.0
N384 N 0.56046 0.33864 0.41564 0.0
C385 C 0.58733 0.36087 0.4294 0.0
C386 C 0.58886 0.35526 0.4016 0.0
C387 C 0.5686 0.34766 0.42925 0.0
C388 C 0.63622 0.42342 0.44438 0.0
N389 N 0.6326 0.40591 0.44536 0.0
C390 C 0.62091 0.4033 0.47156 0.0
C391 C 0.62488 0.39574 0.45852 0.0
C392 C 0.62456 0.42138 0.4709 0.0
C393 C 0.63225 0.43146 0.45707 0.0
H394 H 0.64207 0.43113 0.43369 0.0
H395 H 0.6216 0.38167 0.45885 0.0
C396 C 0.63346 0.33478 0.41164 0.0
N397 N 0.62304 0.34147 0.4177 0.0
C398 C 0.62841 0.31655 0.41401 0.0
C399 C 0.60185 0.31231 0.4287 0.0
C400 C 0.60746 0.33066 0.42609 0.0
C401 C 0.61251 0.30509 0.42277 0.0
H402 H 0.64591 0.34373 0.40518 0.0
H403 H 0.59969 0.33636 0.43122 0.0
C404 C 0.666 0.43022 0.40764 0.0
N405 N 0.69608 0.46459 0.40262 0.0
C406 C 0.6688 0.43849 0.39287 0.0
C407 C 0.67834 0.43954 0.41992 0.0
C408 C 0.68414 0.45584 0.39055 0.0
C409 C 0.69351 0.45687 0.41714 0.0
C410 C 0.64401 0.36936 0.38069 0.0
C411 C 0.65808 0.37657 0.36942 0.0
C412 C 0.62734 0.35353 0.37721 0.0
C413 C 0.65507 0.36802 0.3547 0.0
C414 C 0.62487 0.34536 0.36236 0.0
N415 N 0.63866 0.35274 0.35149 0.0
C416 C 0.69751 0.4032 0.41797 0.0
C417 C 0.69605 0.41757 0.39453 0.0
C418 C 0.71618 0.4094 0.41542 0.0
N419 N 0.68786 0.40729 0.40754 0.0
C420 C 0.71475 0.42427 0.39163 0.0
C421 C 0.72497 0.41998 0.40205 0.0
H422 H 0.6906 0.39474 0.42808 0.0
H423 H 0.68796 0.42018 0.38617 0.0
C424 C 0.60743 0.39689 0.38182 0.0
N425 N 0.62319 0.39629 0.37999 0.0
C426 C 0.6001 0.40167 0.36917 0.0
C427 C 0.62546 0.40528 0.353 0.0
C428 C 0.63228 0.40042 0.36596 0.0
C429 C 0.60921 0.40606 0.35453 0.0
H430 H 0.60072 0.39398 0.39321 0.0
H431 H 0.64508 0.4004 0.36492 0.0
O432 O 0.6521 0.38271 0.43037 0.0
O433 O 0.61589 0.37748 0.41544 0.0
O434 O 0.65117 0.41316 0.41009 0.0
O435 O 0.64676 0.37755 0.39517 0.0
H436 H 0.63389 0.3545 0.44947 0.0
H437 H 0.67673 0.41096 0.44713 0.0
H438 H 0.63905 0.35517 0.47835 0.0
H439 H 0.68103 0.41071 0.47607 0.0
H440 H 0.56321 0.33484 0.39127 0.0
H441 H 0.5938 0.36805 0.44022 0.0
H442 H 0.59643 0.35828 0.39064 0.0
H443 H 0.56054 0.34458 0.43996 0.0
H444 H 0.61471 0.39499 0.48194 0.0
H445 H 0.63531 0.44547 0.45612 0.0
H446 H 0.63695 0.31152 0.40912 0.0
H447 H 0.58968 0.30405 0.43576 0.0
H448 H 0.65932 0.43154 0.38327 0.0
H449 H 0.67622 0.43345 0.43148 0.0
H450 H 0.68654 0.46236 0.37915 0.0
H451 H 0.70323 0.46419 0.42652 0.0
H452 H 0.67114 0.38871 0.37198 0.0
H453 H 0.61649 0.34748 0.38592 0.0
H454 H 0.66579 0.37353 0.34582 0.0
H455 H 0.61201 0.33312 0.35949 0.0
H456 H 0.72361 0.40582 0.42373 0.0
H457 H 0.72096 0.43212 0.38104 0.0
H458 H 0.58772 0.40239 0.37096 0.0
H459 H 0.63288 0.40845 0.34192 0.0
Li460 Li 0.26839 0.64403 0.59096 0.0
Li461 Li 0.29157 0.63991 0.57739 0.0
Li462 Li 0.29014 0.66782 0.57405 0.0
Li463 Li 0.26682 0.63956 0.56141 0.0
C464 C 0.29752 0.66094 0.60953 0.0
N465 N 0.30068 0.66506 0.64197 0.0
C466 C 0.30354 0.65107 0.61841 0.0
C467 C 0.29329 0.67303 0.61716 0.0
C468 C 0.30502 0.65332 0.63479 0.0
C469 C 0.29491 0.67488 0.63357 0.0
C470 C 0.2613 0.60552 0.58291 0.0
C471 C 0.24777 0.57316 0.57811 0.0
N472 N 0.2551 0.57155 0.59188 0.0
C473 C 0.2688 0.60354 0.59694 0.0
C474 C 0.2508 0.59022 0.57334 0.0
C475 C 0.26549 0.58626 0.6013 0.0
C476 C 0.23918 0.64229 0.60888 0.0
N477 N 0.2528 0.63808 0.60923 0.0
C478 C 0.24253 0.624 0.63449 0.0
C479 C 0.25469 0.62918 0.62175 0.0
C480 C 0.22825 0.62808 0.63446 0.0
C481 C 0.2268 0.63752 0.62145 0.0
H482 H 0.23777 0.64917 0.59875 0.0
H483 H 0.2655 0.62589 0.62189 0.0
C484 C 0.32541 0.64372 0.58479 0.0
N485 N 0.30862 0.63128 0.57894 0.0
C486 C 0.3386 0.63876 0.58783 0.0
C487 C 0.31743 0.60849 0.5779 0.0
C488 C 0.30466 0.61409 0.57495 0.0
C489 C 0.33453 0.62079 0.58479 0.0
H490 H 0.32837 0.65743 0.58748 0.0
H491 H 0.29145 0.60456 0.56984 0.0
C492 C 0.26202 0.67245 0.57125 0.0
N493 N 0.26134 0.70408 0.56499 0.0
C494 C 0.2594 0.67647 0.55582 0.0
C495 C 0.26407 0.68443 0.58352 0.0
C496 C 0.25915 0.69255 0.55289 0.0
C497 C 0.26375 0.70037 0.58011 0.0
C498 C 0.29848 0.64577 0.54522 0.0
C499 C 0.31342 0.65699 0.53554 0.0
C500 C 0.28856 0.62693 0.54247 0.0
C501 C 0.3182 0.64914 0.52322 0.0
C502 C 0.29377 0.61961 0.53005 0.0
N503 N 0.30836 0.63077 0.52076 0.0
C504 C 0.31538 0.70546 0.58148 0.0
C505 C 0.30606 0.69853 0.55475 0.0
C506 C 0.32746 0.72377 0.57768 0.0
N507 N 0.30509 0.69329 0.57001 0.0
C508 C 0.31787 0.71667 0.55044 0.0
C509 C 0.32901 0.72953 0.56192 0.0
H510 H 0.31465 0.70087 0.59347 0.0
H511 H 0.29788 0.6885 0.54585 0.0
C512 C 0.23369 0.61469 0.54613 0.0
N513 N 0.25068 0.62953 0.54383 0.0
C514 C 0.22115 0.60747 0.53366 0.0
C515 C 0.24362 0.63129 0.51681 0.0
C516 C 0.25588 0.63781 0.52952 0.0
C517 C 0.22602 0.61594 0.51885 0.0
H518 H 0.22979 0.60866 0.55774 0.0
H519 H 0.26941 0.64974 0.52809 0.0
O520 O 0.29584 0.65884 0.59347 0.0
O521 O 0.26453 0.62237 0.57836 0.0
O522 O 0.26277 0.65699 0.57429 0.0
O523 O 0.29372 0.65329 0.55735 0.0
H524 H 0.30688 0.64164 0.61278 0.0
H525 H 0.2887 0.68084 0.61051 0.0
H526 H 0.30956 0.64569 0.6418 0.0
H527 H 0.29157 0.68411 0.63962 0.0
H528 H 0.23965 0.56121 0.57082 0.0
H529 H 0.27761 0.6153 0.6041 0.0
H530 H 0.24515 0.59149 0.56228 0.0
H531 H 0.27132 0.58459 0.6121 0.0
H532 H 0.2441 0.61649 0.64407 0.0
H533 H 0.21622 0.64123 0.62094 0.0
H534 H 0.35177 0.64887 0.59272 0.0
H535 H 0.31369 0.5945 0.57532 0.0
H536 H 0.25777 0.66738 0.54619 0.0
H537 H 0.2659 0.68146 0.59554 0.0
H538 H 0.25727 0.69588 0.54099 0.0
H539 H 0.26541 0.7098 0.58949 0.0
H540 H 0.32123 0.67161 0.53753 0.0
H541 H 0.27696 0.61805 0.54984 0.0
H542 H 0.32973 0.65766 0.51562 0.0
H543 H 0.28622 0.60504 0.52779 0.0
H544 H 0.33596 0.73315 0.58688 0.0
H545 H 0.31842 0.72051 0.53819 0.0
H546 H 0.2076 0.59573 0.53568 0.0
H547 H 0.24782 0.63813 0.50552 0.0
Li548 Li 0.66318 0.2833 0.74307 0.0
Li549 Li 0.63455 0.26001 0.7547 0.0
Li550 Li 0.63998 0.26097 0.72602 0.0
Li551 Li 0.63446 0.284 0.73798 0.0
C552 C 0.66736 0.25362 0.74578 0.0
N553 N 0.69675 0.24826 0.75104 0.0
C554 C 0.66858 0.24582 0.7599 0.0
C555 C 0.68097 0.25845 0.73425 0.0
C556 C 0.68357 0.24329 0.76236 0.0
C557 C 0.69575 0.25571 0.73716 0.0
C558 C 0.65641 0.29376 0.77244 0.0
C559 C 0.66938 0.31774 0.79205 0.0
N560 N 0.67543 0.30806 0.80032 0.0
C561 C 0.66271 0.28404 0.78116 0.0
C562 C 0.65974 0.31074 0.77793 0.0
C563 C 0.67231 0.2915 0.79521 0.0
C564 C 0.69715 0.31502 0.7379 0.0
N565 N 0.68907 0.29937 0.74649 0.0
C566 C 0.71733 0.30874 0.76024 0.0
C567 C 0.69876 0.29605 0.75751 0.0
C568 C 0.72595 0.32515 0.75171 0.0
C569 C 0.71565 0.32815 0.74033 0.0
H570 H 0.68912 0.31745 0.72933 0.0
H571 H 0.69207 0.28374 0.76446 0.0
C572 C 0.61815 0.22605 0.76927 0.0
N573 N 0.62297 0.24374 0.77181 0.0
C574 C 0.61012 0.21322 0.78131 0.0
C575 C 0.61182 0.23702 0.79832 0.0
C576 C 0.6197 0.24936 0.78588 0.0
C577 C 0.60704 0.21867 0.79617 0.0
H578 H 0.62073 0.22196 0.75787 0.0
H579 H 0.6234 0.26347 0.78752 0.0
C580 C 0.65675 0.28987 0.70717 0.0
N581 N 0.66149 0.29325 0.67484 0.0
C582 C 0.6447 0.29266 0.69784 0.0
C583 C 0.67137 0.28909 0.7001 0.0
C584 C 0.64728 0.29426 0.6815 0.0
C585 C 0.67349 0.29074 0.68372 0.0
C586 C 0.60046 0.25247 0.74324 0.0
C587 C 0.58443 0.23812 0.73664 0.0
C588 C 0.59921 0.26201 0.75625 0.0
C589 C 0.56735 0.23354 0.74316 0.0
C590 C 0.58188 0.25701 0.76243 0.0
N591 N 0.56644 0.243 0.75582 0.0
C592 C 0.64133 0.23424 0.70672 0.0
C593 C 0.62326 0.24612 0.69662 0.0
C594 C 0.63668 0.22235 0.69386 0.0
N595 N 0.63466 0.24585 0.70782 0.0
C596 C 0.61842 0.23463 0.68346 0.0
C597 C 0.62505 0.2224 0.68198 0.0
H598 H 0.64992 0.23388 0.71601 0.0
H599 H 0.61774 0.25514 0.698 0.0
C600 C 0.63549 0.3175 0.73877 0.0
N601 N 0.6247 0.29967 0.73458 0.0
C602 C 0.62969 0.33001 0.73584 0.0
C603 C 0.60174 0.30559 0.72429 0.0
C604 C 0.60811 0.29354 0.72743 0.0
C605 C 0.61266 0.32415 0.7284 0.0
H606 H 0.64877 0.32204 0.74415 0.0
H607 H 0.59999 0.27939 0.72383 0.0
O608 O 0.65279 0.25624 0.74317 0.0
O609 O 0.64703 0.28673 0.75861 0.0
O610 O 0.65431 0.28806 0.72317 0.0
O611 O 0.61726 0.25702 0.73697 0.0
H612 H 0.65811 0.24184 0.76891 0.0
H613 H 0.68013 0.26431 0.7232 0.0
H614 H 0.68474 0.23736 0.77327 0.0
H615 H 0.70643 0.25949 0.72838 0.0
H616 H 0.67205 0.33087 0.79644 0.0
H617 H 0.66025 0.2709 0.77709 0.0
H618 H 0.65487 0.31842 0.7714 0.0
H619 H 0.6773 0.28412 0.80204 0.0
H620 H 0.72468 0.30601 0.7693 0.0
H621 H 0.7218 0.34058 0.73343 0.0
H622 H 0.60632 0.19918 0.77897 0.0
H623 H 0.60987 0.24192 0.80958 0.0
H624 H 0.63335 0.29338 0.70314 0.0
H625 H 0.68101 0.28727 0.70718 0.0
H626 H 0.63797 0.29627 0.67412 0.0
H627 H 0.6847 0.29006 0.67808 0.0
H628 H 0.58519 0.23061 0.72656 0.0
H629 H 0.61145 0.27318 0.76151 0.0
H630 H 0.55481 0.22247 0.73817 0.0
H631 H 0.5807 0.26427 0.77249 0.0
H632 H 0.6418 0.21291 0.69346 0.0
H633 H 0.60958 0.23533 0.67456 0.0
H634 H 0.63849 0.34415 0.73931 0.0
H635 H 0.58868 0.30054 0.71829 0.0
Li636 Li 0.38978 0.63766 0.92928 0.0
Li637 Li 0.39396 0.66576 0.91818 0.0
Li638 Li 0.36523 0.63658 0.91259 0.0
Li639 Li 0.39445 0.64352 0.90075 0.0
C640 C 0.37757 0.65723 0.94801 0.0
N641 N 0.3839 0.67387 0.97729 0.0
C642 C 0.39464 0.66394 0.9554 0.0
C643 C 0.36368 0.65891 0.95554 0.0
C644 C 0.39759 0.67233 0.97019 0.0
C645 C 0.36715 0.66739 0.97033 0.0
C646 C 0.42896 0.67189 0.91969 0.0
C647 C 0.45316 0.70084 0.9099 0.0
N648 N 0.46336 0.70276 0.92296 0.0
C649 C 0.43974 0.67411 0.93299 0.0
C650 C 0.43576 0.68533 0.90802 0.0
C651 C 0.45707 0.68982 0.93444 0.0
C652 C 0.41031 0.62509 0.94521 0.0
N653 N 0.39489 0.62641 0.94638 0.0
C654 C 0.38808 0.61221 0.97174 0.0
C655 C 0.38371 0.62006 0.95924 0.0
C656 C 0.40418 0.61107 0.971 0.0
C657 C 0.41532 0.61756 0.95749 0.0
H658 H 0.4188 0.63004 0.93474 0.0
H659 H 0.37149 0.62123 0.95986 0.0
C660 C 0.39385 0.69843 0.91409 0.0
N661 N 0.40266 0.69116 0.92204 0.0
C662 C 0.39863 0.7166 0.9166 0.0
C663 C 0.42157 0.71958 0.9354 0.0
C664 C 0.41623 0.7013 0.93264 0.0
C665 C 0.41264 0.72741 0.9274 0.0
H666 H 0.38293 0.69003 0.9059 0.0
H667 H 0.42279 0.69523 0.93914 0.0
C668 C 0.36436 0.60357 0.91722 0.0
N669 N 0.34086 0.56914 0.92908 0.0
C670 C 0.3646 0.58838 0.91102 0.0
C671 C 0.35216 0.60126 0.92944 0.0
C672 C 0.3526 0.57108 0.91717 0.0
C673 C 0.3404 0.58374 0.93528 0.0
C674 C 0.38221 0.65993 0.8821 0.0
C675 C 0.36993 0.64648 0.87166 0.0
C676 C 0.39612 0.67661 0.87618 0.0
C677 C 0.37201 0.6498 0.85544 0.0
C678 C 0.39773 0.67942 0.85988 0.0
N679 N 0.38577 0.66605 0.84993 0.0
C680 C 0.33001 0.63268 0.91605 0.0
C681 C 0.33112 0.61142 0.89844 0.0
C682 C 0.31136 0.62571 0.91272 0.0
N683 N 0.33947 0.62556 0.90884 0.0
C684 C 0.31256 0.60419 0.89459 0.0
C685 C 0.3025 0.61147 0.90167 0.0
H686 H 0.33709 0.64408 0.92409 0.0
H687 H 0.33901 0.60604 0.89287 0.0
C688 C 0.42254 0.64845 0.87868 0.0
N689 N 0.40433 0.63851 0.88234 0.0
C690 C 0.42945 0.64378 0.86556 0.0
C691 C 0.39874 0.61872 0.86023 0.0
C692 C 0.39245 0.62384 0.87348 0.0
C693 C 0.4175 0.62869 0.85617 0.0
H694 H 0.4318 0.65981 0.88603 0.0
H695 H 0.37809 0.61596 0.87685 0.0
O696 O 0.37438 0.64898 0.9335 0.0
O697 O 0.41186 0.65666 0.91813 0.0
O698 O 0.37608 0.62058 0.91132 0.0
O699 O 0.38058 0.65679 0.89801 0.0
H700 H 0.40552 0.66273 0.94978 0.0
H701 H 0.35034 0.65373 0.95004 0.0
H702 H 0.41077 0.67762 0.97601 0.0
H703 H 0.35653 0.6688 0.97629 0.0
H704 H 0.45853 0.71137 0.90098 0.0
H705 H 0.43475 0.6639 0.94217 0.0
H706 H 0.42764 0.68384 0.89767 0.0
H707 H 0.46551 0.69174 0.9447 0.0
H708 H 0.37919 0.60745 0.982 0.0
H709 H 0.42771 0.6167 0.95639 0.0
H710 H 0.39145 0.72214 0.91014 0.0
H711 H 0.43223 0.72735 0.94403 0.0
H712 H 0.37397 0.58997 0.90155 0.0
H713 H 0.35177 0.61284 0.93439 0.0
H714 H 0.35264 0.5592 0.91249 0.0
H715 H 0.3309 0.58175 0.94474 0.0
H716 H 0.35906 0.63352 0.87603 0.0
H717 H 0.40551 0.68732 0.88408 0.0
H718 H 0.36271 0.63943 0.84723 0.0
H719 H 0.40848 0.69224 0.85514 0.0
H720 H 0.30412 0.63182 0.91828 0.0
H721 H 0.30617 0.59314 0.88608 0.0
H722 H 0.44398 0.65191 0.8628 0.0
H723 H 0.38909 0.60683 0.85348 0.0
Li724 Li 0.74405 0.39656 0.07798 0.0
Li725 Li 0.76712 0.39083 0.09054 0.0
Li726 Li 0.76746 0.39524 0.06095 0.0
Li727 Li 0.74396 0.36745 0.07376 0.0
C728 C 0.77912 0.43113 0.07979 0.0
N729 N 0.79528 0.46864 0.08266 0.0
C730 C 0.78374 0.43943 0.09468 0.0
C731 C 0.78295 0.44198 0.06634 0.0
C732 C 0.79182 0.45839 0.09589 0.0
C733 C 0.79106 0.46089 0.06804 0.0
C734 C 0.73687 0.37524 0.10942 0.0
C735 C 0.73764 0.36143 0.13402 0.0
N736 N 0.73119 0.37124 0.14165 0.0
C737 C 0.73016 0.38513 0.11749 0.0
C738 C 0.74055 0.36322 0.11772 0.0
C739 C 0.7274 0.38293 0.13379 0.0
C740 C 0.71013 0.39502 0.07732 0.0
N741 N 0.72822 0.4065 0.08072 0.0
C742 C 0.72183 0.42976 0.089 0.0
C743 C 0.73425 0.42364 0.08638 0.0
C744 C 0.70299 0.4181 0.08585 0.0
C745 C 0.69722 0.40056 0.07977 0.0
H746 H 0.70569 0.3814 0.07294 0.0
H747 H 0.74861 0.43252 0.08912 0.0
C748 C 0.79734 0.39324 0.10707 0.0
N749 N 0.7828 0.39601 0.10851 0.0
C750 C 0.8095 0.39716 0.11967 0.0
C751 C 0.79145 0.40659 0.13505 0.0
C752 C 0.77979 0.40271 0.12211 0.0
C753 C 0.80656 0.40386 0.13391 0.0
H754 H 0.79955 0.38808 0.09608 0.0
H755 H 0.76844 0.40524 0.12289 0.0
C756 C 0.73525 0.38855 0.04494 0.0
N757 N 0.72511 0.40073 0.01874 0.0
C758 C 0.72493 0.37633 0.03289 0.0
C759 C 0.74025 0.40692 0.04372 0.0
C760 C 0.71998 0.38276 0.01972 0.0
C761 C 0.73503 0.41282 0.03038 0.0
C762 C 0.77139 0.36164 0.07014 0.0
C763 C 0.77349 0.35719 0.05466 0.0
C764 C 0.76918 0.34977 0.08243 0.0
C765 C 0.77311 0.34077 0.05171 0.0
C766 C 0.76886 0.33347 0.079 0.0
N767 N 0.77079 0.32934 0.06384 0.0
C768 C 0.80072 0.41876 0.04544 0.0
C769 C 0.77691 0.39802 0.0284 0.0
C770 C 0.81285 0.42622 0.03272 0.0
N771 N 0.78309 0.40505 0.04304 0.0
C772 C 0.78857 0.40506 0.01534 0.0
C773 C 0.80682 0.41938 0.0174 0.0
H774 H 0.80533 0.42391 0.05726 0.0
H775 H 0.76301 0.38676 0.02687 0.0
C776 C 0.71842 0.33069 0.0824 0.0
N777 N 0.7283 0.34187 0.07032 0.0
C778 C 0.70633 0.3121 0.07964 0.0
C779 C 0.71491 0.31687 0.05208 0.0
C780 C 0.72681 0.33536 0.05538 0.0
C781 C 0.70434 0.30498 0.06428 0.0
H782 H 0.7197 0.33622 0.09414 0.0
H783 H 0.73472 0.34461 0.04597 0.0
O784 O 0.77135 0.41258 0.07838 0.0
O785 O 0.73966 0.37724 0.09347 0.0
O786 O 0.74026 0.38245 0.05786 0.0
O787 O 0.77127 0.37742 0.07321 0.0
H788 H 0.78092 0.43132 0.10521 0.0
H789 H 0.77981 0.43591 0.05468 0.0
H790 H 0.79534 0.46495 0.10736 0.0
H791 H 0.79404 0.46942 0.05774 0.0
H792 H 0.74055 0.35227 0.1406 0.0
H793 H 0.72718 0.39445 0.11127 0.0
H794 H 0.7458 0.35551 0.11168 0.0
H795 H 0.72228 0.39053 0.1402 0.0
H796 H 0.72694 0.44346 0.09352 0.0
H797 H 0.68282 0.39102 0.07737 0.0
H798 H 0.82096 0.39481 0.11835 0.0
H799 H 0.78887 0.41201 0.14575 0.0
H800 H 0.72083 0.36203 0.03368 0.0
H801 H 0.74793 0.41647 0.05304 0.0
H802 H 0.71207 0.37347 0.01028 0.0
H803 H 0.73884 0.42702 0.0293 0.0
H804 H 0.7752 0.36624 0.04502 0.0
H805 H 0.76763 0.35308 0.09448 0.0
H806 H 0.77459 0.33708 0.03978 0.0
H807 H 0.76705 0.3241 0.08839 0.0
H808 H 0.82674 0.43734 0.03486 0.0
H809 H 0.78345 0.39912 0.00381 0.0
H810 H 0.69858 0.30341 0.08942 0.0
H811 H 0.71363 0.31207 0.04002 0.0
Li812 Li 0.39287 0.7698 0.25147 0.0
Li813 Li 0.36337 0.74489 0.2401 0.0
Li814 Li 0.39324 0.74606 0.2354 0.0
Li815 Li 0.38712 0.76839 0.22383 0.0
C816 C 0.38866 0.73928 0.26771 0.0
N817 N 0.4058 0.73166 0.29182 0.0
C818 C 0.37814 0.72636 0.27916 0.0
C819 C 0.40789 0.74831 0.26849 0.0
C820 C 0.38706 0.7227 0.29126 0.0
C821 C 0.41629 0.74427 0.28078 0.0
C822 C 0.37149 0.7858 0.23531 0.0
C823 C 0.35651 0.79767 0.21897 0.0
N824 N 0.37005 0.81497 0.22253 0.0
C825 C 0.38521 0.80368 0.23888 0.0
C826 C 0.35696 0.78273 0.22534 0.0
C827 C 0.38425 0.81826 0.23228 0.0
C828 C 0.42101 0.7956 0.27176 0.0
N829 N 0.40254 0.78515 0.26941 0.0
C830 C 0.39644 0.79751 0.2925 0.0
C831 C 0.39026 0.7858 0.27946 0.0
C832 C 0.41546 0.80864 0.29523 0.0
C833 C 0.42781 0.8075 0.28469 0.0
H834 H 0.43043 0.79478 0.26355 0.0
H835 H 0.37564 0.77741 0.27716 0.0
C836 C 0.33293 0.71038 0.24461 0.0
N837 N 0.33815 0.72837 0.24411 0.0
C838 C 0.3148 0.69734 0.24835 0.0
C839 C 0.30765 0.72156 0.25063 0.0
C840 C 0.32599 0.73418 0.24693 0.0
C841 C 0.30193 0.70288 0.25158 0.0
H842 H 0.34297 0.70624 0.24232 0.0
H843 H 0.33061 0.74862 0.24657 0.0
C844 C 0.42383 0.7765 0.22345 0.0
N845 N 0.45091 0.78352 0.20142 0.0
C846 C 0.41915 0.76763 0.20881 0.0
C847 C 0.44229 0.78899 0.22687 0.0
C848 C 0.43303 0.77135 0.19783 0.0
C849 C 0.45578 0.79234 0.21558 0.0
C850 C 0.36344 0.73392 0.20705 0.0
C851 C 0.36958 0.72618 0.1957 0.0
C852 C 0.34653 0.7331 0.20497 0.0
C853 C 0.35885 0.71804 0.18227 0.0
C854 C 0.3362 0.72483 0.19139 0.0
N855 N 0.34253 0.71755 0.18041 0.0
C856 C 0.38934 0.71199 0.23095 0.0
C857 C 0.42074 0.7353 0.23176 0.0
C858 C 0.39425 0.69877 0.22814 0.0
N859 N 0.40251 0.72985 0.23252 0.0
C860 C 0.42629 0.72256 0.22871 0.0
C861 C 0.41296 0.70398 0.2267 0.0
H862 H 0.37495 0.70804 0.23179 0.0
H863 H 0.431 0.74954 0.23331 0.0
C864 C 0.40749 0.80076 0.20673 0.0
N865 N 0.39184 0.78412 0.20595 0.0
C866 C 0.41225 0.81321 0.19441 0.0
C867 C 0.38434 0.79155 0.18088 0.0
C868 C 0.38022 0.77941 0.1934 0.0
C869 C 0.40062 0.80863 0.18125 0.0
H870 H 0.41626 0.80445 0.21701 0.0
H871 H 0.36769 0.76637 0.19309 0.0
O872 O 0.38009 0.74294 0.25577 0.0
O873 O 0.37252 0.77137 0.24126 0.0
O874 O 0.41051 0.77316 0.23444 0.0
O875 O 0.37359 0.74155 0.22043 0.0
H876 H 0.36323 0.71924 0.27867 0.0
H877 H 0.41626 0.75831 0.2597 0.0
H878 H 0.3791 0.71273 0.30022 0.0
H879 H 0.43116 0.75115 0.28153 0.0
H880 H 0.34542 0.7955 0.21114 0.0
H881 H 0.39662 0.80629 0.24649 0.0
H882 H 0.34628 0.76896 0.2224 0.0
H883 H 0.39483 0.83217 0.23486 0.0
H884 H 0.38642 0.79812 0.30016 0.0
H885 H 0.44257 0.81565 0.28644 0.0
H886 H 0.31091 0.68306 0.24878 0.0
H887 H 0.2982 0.72641 0.25319 0.0
H888 H 0.40498 0.75803 0.20589 0.0
H889 H 0.44617 0.79601 0.23813 0.0
H890 H 0.42958 0.76457 0.18646 0.0
H891 H 0.47013 0.80195 0.21808 0.0
H892 H 0.38248 0.7264 0.19726 0.0
H893 H 0.34154 0.73897 0.21363 0.0
H894 H 0.36346 0.71206 0.17336 0.0
H895 H 0.32316 0.72422 0.18957 0.0
H896 H 0.38345 0.68461 0.22711 0.0
H897 H 0.44086 0.72732 0.2276 0.0
H898 H 0.42478 0.82638 0.19527 0.0
H899 H 0.37502 0.78752 0.17091 0.0
H900 H 0.15968 0.57446 0.31649 0.0
H901 H 0.18838 0.59812 0.305 0.0
H902 H 0.1581 0.61468 0.27493 0.0
H903 H 0.12904 0.59033 0.28592 0.0
H904 H 0.18638 0.61518 0.25913 0.0
H905 H 0.1789 0.63901 0.30786 0.0
H906 H 0.17287 0.63904 0.33635 0.0
H907 H 0.2206 0.6349 0.34688 0.0
H908 H 0.22676 0.63457 0.31843 0.0
H909 H 0.26945 0.70003 0.24185 0.0
H910 H 0.23815 0.67767 0.25049 0.0
H911 H 0.26025 0.65282 0.28104 0.0
H912 H 0.29146 0.67519 0.27266 0.0
H913 H 0.23465 0.65875 0.29591 0.0
H914 H 0.24053 0.63288 0.24671 0.0
H915 H 0.24626 0.63309 0.21813 0.0
H916 H 0.20127 0.64203 0.20848 0.0
H917 H 0.19543 0.64212 0.23704 0.0
C918 C 0.15901 0.58283 0.3072 0.0
C919 C 0.14199 0.58044 0.30214 0.0
C920 C 0.17549 0.59654 0.30078 0.0
C921 C 0.17541 0.6084 0.28932 0.0
C922 C 0.15848 0.60576 0.28385 0.0
C923 C 0.1419 0.59193 0.29023 0.0
C924 C 0.1931 0.6237 0.28338 0.0
C925 C 0.19682 0.62491 0.26713 0.0
C926 C 0.20678 0.63631 0.29385 0.0
C927 C 0.20321 0.63663 0.31099 0.0
C928 C 0.18804 0.63798 0.31624 0.0
C929 C 0.18461 0.63807 0.33239 0.0
C930 C 0.19633 0.63694 0.34342 0.0
C931 C 0.21153 0.63576 0.33832 0.0
C932 C 0.21501 0.63565 0.32218 0.0
C933 C 0.26761 0.68983 0.25045 0.0
C934 C 0.2829 0.6893 0.25653 0.0
C935 C 0.24973 0.677 0.25528 0.0
C936 C 0.24689 0.66352 0.26633 0.0
C937 C 0.26214 0.66309 0.27249 0.0
C938 C 0.27995 0.67579 0.26759 0.0
C939 C 0.22809 0.64994 0.27172 0.0
C940 C 0.22414 0.64912 0.28789 0.0
C941 C 0.2142 0.63781 0.26117 0.0
C942 C 0.21768 0.63772 0.24401 0.0
C943 C 0.23196 0.63505 0.2385 0.0
C944 C 0.23521 0.63509 0.2223 0.0
C945 C 0.22418 0.63763 0.2115 0.0
C946 C 0.20983 0.64009 0.21686 0.0
C947 C 0.20654 0.64009 0.23305 0.0
H948 H 0.22671 0.63765 0.19896 0.0
H949 H 0.19365 0.63701 0.35592 0.0
H950 H 0.60622 0.15841 0.46724 0.0
H951 H 0.61126 0.18762 0.45765 0.0
H952 H 0.55303 0.16356 0.44878 0.0
H953 H 0.5479 0.13391 0.45782 0.0
H954 H 0.57359 0.18718 0.42537 0.0
H955 H 0.57135 0.18829 0.4817 0.0
H956 H 0.57951 0.18469 0.50885 0.0
H957 H 0.6358 0.22604 0.50056 0.0
H958 H 0.62804 0.22969 0.47326 0.0
H959 H 0.57829 0.2742 0.4222 0.0
H960 H 0.57032 0.243 0.42911 0.0
H961 H 0.62762 0.26171 0.4383 0.0
H962 H 0.63562 0.29289 0.43172 0.0
H963 H 0.60533 0.24013 0.46186 0.0
H964 H 0.60732 0.23817 0.40506 0.0
H965 H 0.59875 0.2416 0.37801 0.0
H966 H 0.54219 0.2019 0.38753 0.0
H967 H 0.55038 0.19842 0.41473 0.0
C968 C 0.59449 0.15914 0.46292 0.0
C969 C 0.57662 0.14376 0.46333 0.0
C970 C 0.59739 0.17595 0.45761 0.0
C971 C 0.58248 0.17785 0.45277 0.0
C972 C 0.56471 0.16242 0.45257 0.0
C973 C 0.56179 0.14553 0.45785 0.0
C974 C 0.58551 0.19613 0.44848 0.0
C975 C 0.58027 0.19871 0.43343 0.0
C976 C 0.59443 0.21122 0.45893 0.0
C977 C 0.59914 0.20915 0.47538 0.0
C978 C 0.5855 0.19652 0.48562 0.0
C979 C 0.59005 0.19448 0.50105 0.0
C980 C 0.60817 0.2051 0.50641 0.0
C981 C 0.62178 0.21781 0.49638 0.0
C982 C 0.61731 0.21988 0.48093 0.0
C983 C 0.58917 0.27165 0.42571 0.0
C984 C 0.60759 0.28601 0.42636 0.0
C985 C 0.58462 0.25381 0.42954 0.0
C986 C 0.5984 0.25002 0.43411 0.0
C987 C 0.61678 0.26433 0.43477 0.0
C988 C 0.62134 0.28211 0.43088 0.0
C989 C 0.59372 0.23127 0.43865 0.0
C990 C 0.59858 0.2286 0.45382 0.0
C991 C 0.58438 0.21612 0.42833 0.0
C992 C 0.57943 0.21818 0.41198 0.0
C993 C 0.59303 0.23029 0.40143 0.0
C994 C 0.58825 0.23222 0.38606 0.0
C995 C 0.56993 0.22202 0.38107 0.0
C996 C 0.55636 0.20982 0.39142 0.0
C997 C 0.56107 0.20785 0.40681 0.0
H998 H 0.56625 0.22353 0.36917 0.0
H999 H 0.61166 0.2035 0.51836 0.0
H1000 H 0.45668 0.60253 0.65345 0.0
H1001 H 0.43274 0.60651 0.64117 0.0
H1002 H 0.42361 0.56547 0.60636 0.0
H1003 H 0.44793 0.56154 0.61855 0.0
H1004 H 0.42481 0.59716 0.5937 0.0
H1005 H 0.39364 0.55341 0.63453 0.0
H1006 H 0.38919 0.54101 0.66148 0.0
H1007 H 0.38662 0.58711 0.67956 0.0
H1008 H 0.39135 0.59993 0.65274 0.0
H1009 H 0.34322 0.59765 0.56893 0.0
H1010 H 0.36448 0.58749 0.57734 0.0
H1011 H 0.37722 0.62059 0.61943 0.0
H1012 H 0.35551 0.63011 0.61151 0.0
H1013 H 0.37191 0.58815 0.62657 0.0
H1014 H 0.40658 0.63368 0.587 0.0
H1015 H 0.41235 0.64741 0.5605 0.0
H1016 H 0.40921 0.59927 0.54045 0.0
H1017 H 0.40318 0.58516 0.56683 0.0
C1018 C 0.44978 0.5945 0.64306 0.0
C1019 C 0.45425 0.58177 0.63693 0.0
C1020 C 0.43599 0.59669 0.63613 0.0
C1021 C 0.4263 0.58616 0.62295 0.0
C1022 C 0.43092 0.57367 0.61656 0.0
C1023 C 0.4447 0.57138 0.62357 0.0
C1024 C 0.4112 0.58821 0.61617 0.0
C1025 C 0.41302 0.59484 0.60074 0.0
C1026 C 0.39602 0.58546 0.62548 0.0
C1027 C 0.39297 0.57769 0.64162 0.0
C1028 C 0.39225 0.56097 0.64426 0.0
C1029 C 0.38966 0.55386 0.65951 0.0
C1030 C 0.38765 0.56328 0.67222 0.0
C1031 C 0.38818 0.57982 0.6697 0.0
C1032 C 0.39079 0.58701 0.65447 0.0
C1033 C 0.35045 0.60265 0.58003 0.0
C1034 C 0.34773 0.61481 0.58948 0.0
C1035 C 0.36273 0.59697 0.58475 0.0
C1036 C 0.37259 0.60342 0.59896 0.0
C1037 C 0.3698 0.61545 0.60841 0.0
C1038 C 0.35752 0.62106 0.60376 0.0
C1039 C 0.38573 0.59763 0.60422 0.0
C1040 C 0.38352 0.59023 0.6194 0.0
C1041 C 0.40059 0.59981 0.5947 0.0
C1042 C 0.4042 0.60828 0.57885 0.0
C1043 C 0.40696 0.62596 0.57692 0.0
C1044 C 0.41031 0.63382 0.56193 0.0
C1045 C 0.41108 0.62419 0.54879 0.0
C1046 C 0.40856 0.6067 0.55063 0.0
C1047 C 0.40519 0.59876 0.5656 0.0
H1048 H 0.41368 0.6303 0.53719 0.0
H1049 H 0.38565 0.55776 0.68403 0.0
H1050 H 0.87555 0.46592 0.79729 0.0
H1051 H 0.84636 0.44264 0.78622 0.0
H1052 H 0.86693 0.40527 0.783 0.0
H1053 H 0.89681 0.429 0.7931 0.0
H1054 H 0.84595 0.40088 0.75827 0.0
H1055 H 0.83935 0.40363 0.81408 0.0
H1056 H 0.84139 0.4183 0.8398 0.0
H1057 H 0.80437 0.43566 0.82335 0.0
H1058 H 0.80231 0.42131 0.79744 0.0
H1059 H 0.75564 0.32058 0.75635 0.0
H1060 H 0.78716 0.34401 0.76348 0.0
H1061 H 0.77138 0.38517 0.76214 0.0
H1062 H 0.73987 0.36184 0.75519 0.0
H1063 H 0.79012 0.38658 0.78932 0.0
H1064 H 0.79702 0.38292 0.73311 0.0
H1065 H 0.79497 0.36714 0.70801 0.0
H1066 H 0.83122 0.34972 0.72628 0.0
H1067 H 0.83329 0.36518 0.75159 0.0
C1068 C 0.87416 0.45296 0.79386 0.0
C1069 C 0.88864 0.4494 0.79621 0.0
C1070 C 0.85728 0.43952 0.78773 0.0
C1071 C 0.85426 0.42203 0.78415 0.0
C1072 C 0.86887 0.4186 0.78583 0.0
C1073 C 0.8859 0.43216 0.79177 0.0
C1074 C 0.83566 0.40721 0.77924 0.0
C1075 C 0.83378 0.39759 0.76517 0.0
C1076 C 0.81971 0.40299 0.78816 0.0
C1077 C 0.82081 0.41153 0.80377 0.0
C1078 C 0.83174 0.41068 0.81591 0.0
C1079 C 0.83289 0.41893 0.83053 0.0
C1080 C 0.82305 0.42794 0.83319 0.0
C1081 C 0.812 0.42869 0.82126 0.0
C1082 C 0.81082 0.42049 0.80661 0.0
C1083 C 0.75892 0.33463 0.75755 0.0
C1084 C 0.74529 0.33938 0.75519 0.0
C1085 C 0.77694 0.34801 0.76151 0.0
C1086 C 0.78162 0.36634 0.76324 0.0
C1087 C 0.76807 0.37111 0.76081 0.0
C1088 C 0.75011 0.35779 0.75673 0.0
C1089 C 0.80041 0.38047 0.76826 0.0
C1090 C 0.80232 0.38989 0.78243 0.0
C1091 C 0.81634 0.3843 0.75953 0.0
C1092 C 0.81516 0.37505 0.74431 0.0
C1093 C 0.80443 0.37559 0.73183 0.0
C1094 C 0.80329 0.36673 0.71755 0.0
C1095 C 0.81291 0.35739 0.71556 0.0
C1096 C 0.82375 0.35693 0.72784 0.0
C1097 C 0.82492 0.36576 0.74215 0.0
H1098 H 0.81201 0.35054 0.7045 0.0
H1099 H 0.82396 0.43432 0.84452 0.0
H1100 H 0.41956 0.87616 0.96825 0.0
H1101 H 0.41405 0.84667 0.95889 0.0
H1102 H 0.47251 0.86894 0.95274 0.0
H1103 H 0.47815 0.89897 0.96129 0.0
H1104 H 0.45391 0.84571 0.92928 0.0
H1105 H 0.45037 0.84408 0.98553 0.0
H1106 H 0.43997 0.84786 0.01179 0.0
H1107 H 0.38413 0.80807 0.99984 0.0
H1108 H 0.39417 0.80425 0.97341 0.0
H1109 H 0.44706 0.75761 0.93004 0.0
H1110 H 0.45489 0.78899 0.93636 0.0
H1111 H 0.39707 0.77171 0.93859 0.0
H1112 H 0.38916 0.74034 0.93241 0.0
H1113 H 0.41697 0.79275 0.96433 0.0
H1114 H 0.42148 0.79504 0.90753 0.0
H1115 H 0.43288 0.79133 0.88173 0.0
H1116 H 0.48843 0.82984 0.8956 0.0
H1117 H 0.47737 0.83359 0.92159 0.0
C1118 C 0.43128 0.87502 0.96455 0.0
C1119 C 0.44934 0.89004 0.96559 0.0
C1120 C 0.4281 0.85801 0.9594 0.0
C1121 C 0.44289 0.85547 0.95545 0.0
C1122 C 0.46089 0.87054 0.95586 0.0
C1123 C 0.46409 0.88767 0.96089 0.0
C1124 C 0.43949 0.83693 0.95145 0.0
C1125 C 0.44606 0.83418 0.93704 0.0
C1126 C 0.42909 0.82182 0.96151 0.0
C1127 C 0.42301 0.824 0.97744 0.0
C1128 C 0.43586 0.83623 0.98846 0.0
C1129 C 0.43003 0.83837 0.00338 0.0
C1130 C 0.4114 0.82824 0.00747 0.0
C1131 C 0.39856 0.81592 0.99665 0.0
C1132 C 0.40431 0.81375 0.98171 0.0
C1133 C 0.43604 0.76053 0.93189 0.0
C1134 C 0.4175 0.74654 0.93071 0.0
C1135 C 0.44052 0.77846 0.93538 0.0
C1136 C 0.42655 0.78268 0.93784 0.0
C1137 C 0.40805 0.76874 0.93669 0.0
C1138 C 0.40356 0.75086 0.93306 0.0
C1139 C 0.43114 0.8015 0.94208 0.0
C1140 C 0.42485 0.8043 0.95659 0.0
C1141 C 0.44196 0.81663 0.9322 0.0
C1142 C 0.44862 0.81444 0.91656 0.0
C1143 C 0.43614 0.8026 0.90513 0.0
C1144 C 0.44254 0.80051 0.89046 0.0
C1145 C 0.46137 0.8103 0.88704 0.0
C1146 C 0.47384 0.82224 0.89827 0.0
C1147 C 0.46752 0.82436 0.91297 0.0
H1148 H 0.4663 0.80867 0.87568 0.0
H1149 H 0.40691 0.82992 0.01903 0.0
H1150 H 0.56623 0.44618 0.11211 0.0
H1151 H 0.58944 0.44076 0.09976 0.0
H1152 H 0.62399 0.46281 0.14093 0.0
H1153 H 0.60084 0.46798 0.15345 0.0
H1154 H 0.64393 0.47481 0.1137 0.0
H1155 H 0.59753 0.41742 0.13603 0.0
H1156 H 0.56593 0.39157 0.13968 0.0
H1157 H 0.56259 0.37864 0.09028 0.0
H1158 H 0.59411 0.4046 0.0863 0.0
H1159 H 0.7022 0.43738 0.11153 0.0
H1160 H 0.67944 0.44623 0.11791 0.0
H1161 H 0.64988 0.42058 0.07503 0.0
H1162 H 0.67276 0.41177 0.06847 0.0
H1163 H 0.62686 0.41122 0.09984 0.0
H1164 H 0.67464 0.46682 0.07802 0.0
H1165 H 0.70636 0.49251 0.07453 0.0
H1166 H 0.70728 0.50889 0.12273 0.0
H1167 H 0.67566 0.48314 0.12658 0.0
C1168 C 0.57877 0.44988 0.11854 0.0
C1169 C 0.58162 0.45749 0.1338 0.0
C1170 C 0.59204 0.44682 0.11144 0.0
C1171 C 0.60837 0.45125 0.11949 0.0
C1172 C 0.61152 0.45937 0.13448 0.0
C1173 C 0.59827 0.46239 0.14159 0.0
C1174 C 0.62193 0.44679 0.11267 0.0
C1175 C 0.64024 0.4609 0.11075 0.0
C1176 C 0.61699 0.4287 0.10844 0.0
C1177 C 0.59808 0.41307 0.11083 0.0
C1178 C 0.59 0.40915 0.12592 0.0
C1179 C 0.57211 0.39447 0.12806 0.0
C1180 C 0.56223 0.38351 0.11522 0.0
C1181 C 0.57024 0.38717 0.10021 0.0
C1182 C 0.58812 0.40186 0.09801 0.0
C1183 C 0.69105 0.43387 0.1033 0.0
C1184 C 0.68937 0.42394 0.08944 0.0
C1185 C 0.67801 0.43892 0.10699 0.0
C1186 C 0.66307 0.43426 0.09685 0.0
C1187 C 0.66131 0.42433 0.08301 0.0
C1188 C 0.67437 0.41926 0.07931 0.0
C1189 C 0.64897 0.43921 0.10109 0.0
C1190 C 0.63054 0.42518 0.10255 0.0
C1191 C 0.65381 0.45738 0.10489 0.0
C1192 C 0.67281 0.47295 0.10262 0.0
C1193 C 0.68165 0.47582 0.08791 0.0
C1194 C 0.69961 0.4904 0.08586 0.0
C1195 C 0.70884 0.5023 0.09841 0.0
C1196 C 0.70012 0.49966 0.11302 0.0
C1197 C 0.68217 0.48508 0.11514 0.0
H1198 H 0.72274 0.51359 0.0968 0.0
H1199 H 0.54839 0.37214 0.11689 0.0
H1200 H 0.45586 0.87117 0.49614 0.0
H1201 H 0.43184 0.84266 0.50762 0.0
H1202 H 0.42265 0.87291 0.54405 0.0
H1203 H 0.44699 0.90169 0.53268 0.0
H1204 H 0.42311 0.84146 0.55521 0.0
H1205 H 0.39339 0.8573 0.51542 0.0
H1206 H 0.3896 0.86689 0.48894 0.0
H1207 H 0.38589 0.81859 0.46868 0.0
H1208 H 0.38995 0.80884 0.49503 0.0
H1209 H 0.33823 0.7615 0.57763 0.0
H1210 H 0.36119 0.79269 0.56988 0.0
H1211 H 0.3738 0.77172 0.52813 0.0
H1212 H 0.35112 0.74064 0.53582 0.0
H1213 H 0.36999 0.80042 0.52118 0.0
H1214 H 0.40218 0.78578 0.56016 0.0
H1215 H 0.40692 0.7762 0.58633 0.0
H1216 H 0.40652 0.82198 0.60787 0.0
H1217 H 0.40152 0.8317 0.58183 0.0
C1218 C 0.44896 0.87179 0.50675 0.0
C1219 C 0.45335 0.88869 0.51353 0.0
C1220 C 0.43513 0.85549 0.51321 0.0
C1221 C 0.42536 0.8557 0.52658 0.0
C1222 C 0.43002 0.87249 0.5337 0.0
C1223 C 0.44382 0.88888 0.52715 0.0
C1224 C 0.40995 0.83832 0.53271 0.0
C1225 C 0.4113 0.83261 0.54792 0.0
C1226 C 0.39474 0.82669 0.52306 0.0
C1227 C 0.39212 0.83241 0.5072 0.0
C1228 C 0.3919 0.84879 0.50531 0.0
C1229 C 0.38968 0.85424 0.49032 0.0
C1230 C 0.38754 0.84337 0.47713 0.0
C1231 C 0.38757 0.827 0.47891 0.0
C1232 C 0.38981 0.8215 0.49387 0.0
C1233 C 0.34599 0.76354 0.56685 0.0
C1234 C 0.34276 0.74856 0.55731 0.0
C1235 C 0.35909 0.78137 0.56244 0.0
C1236 C 0.36927 0.78453 0.54846 0.0
C1237 C 0.36603 0.76962 0.53891 0.0
C1238 C 0.35298 0.75185 0.5433 0.0
C1239 C 0.38329 0.80332 0.54359 0.0
C1240 C 0.38166 0.80933 0.52859 0.0
C1241 C 0.39826 0.81516 0.55343 0.0
C1242 C 0.40125 0.80933 0.56908 0.0
C1243 C 0.40293 0.79371 0.5705 0.0
C1244 C 0.4057 0.78827 0.5853 0.0
C1245 C 0.40696 0.79844 0.59876 0.0
C1246 C 0.4055 0.8141 0.59744 0.0
C1247 C 0.40271 0.81958 0.58266 0.0
H1248 H 0.40911 0.79422 0.61021 0.0
H1249 H 0.38583 0.84762 0.46554 0.0
H1250 H 0.60123 0.46101 0.68488 0.0
H1251 H 0.60605 0.43639 0.69362 0.0
H1252 H 0.54783 0.40242 0.70264 0.0
H1253 H 0.54289 0.4273 0.69414 0.0
H1254 H 0.57022 0.40017 0.72631 0.0
H1255 H 0.56383 0.39498 0.67022 0.0
H1256 H 0.57004 0.40601 0.64277 0.0
H1257 H 0.62682 0.42115 0.648 0.0
H1258 H 0.62102 0.41047 0.67558 0.0
H1259 H 0.57807 0.31975 0.73106 0.0
H1260 H 0.56834 0.34158 0.72388 0.0
H1261 H 0.62399 0.38043 0.70981 0.0
H1262 H 0.63368 0.35857 0.71653 0.0
H1263 H 0.59947 0.37789 0.68815 0.0
H1264 H 0.60639 0.38506 0.74464 0.0
H1265 H 0.60051 0.37461 0.77227 0.0
H1266 H 0.54291 0.35586 0.76634 0.0
H1267 H 0.54842 0.36598 0.73859 0.0
C1268 C 0.58946 0.44846 0.68902 0.0
C1269 C 0.57166 0.44615 0.68886 0.0
C1270 C 0.59223 0.43433 0.69386 0.0
C1271 C 0.57727 0.41752 0.69859 0.0
C1272 C 0.55954 0.41529 0.69897 0.0
C1273 C 0.55673 0.42945 0.69404 0.0
C1274 C 0.58029 0.40221 0.70258 0.0
C1275 C 0.57631 0.39503 0.71791 0.0
C1276 C 0.58848 0.39575 0.69165 0.0
C1277 C 0.59201 0.40205 0.67502 0.0
C1278 C 0.57767 0.40079 0.66556 0.0
C1279 C 0.58111 0.40696 0.64997 0.0
C1280 C 0.59882 0.41431 0.64366 0.0
C1281 C 0.61312 0.41547 0.65291 0.0
C1282 C 0.60975 0.40934 0.66852 0.0
C1283 C 0.5882 0.33291 0.72636 0.0
C1284 C 0.60667 0.33744 0.72443 0.0
C1285 C 0.58265 0.34543 0.72239 0.0
C1286 C 0.59547 0.3627 0.71643 0.0
C1287 C 0.61387 0.3672 0.71442 0.0
C1288 C 0.61943 0.35474 0.71841 0.0
C1289 C 0.58978 0.37607 0.71201 0.0
C1290 C 0.59323 0.38287 0.69654 0.0
C1291 C 0.58111 0.38216 0.72282 0.0
C1292 C 0.57778 0.37608 0.73949 0.0
C1293 C 0.59244 0.37856 0.74919 0.0
C1294 C 0.58918 0.37273 0.76488 0.0
C1295 C 0.57134 0.36452 0.77104 0.0
C1296 C 0.55672 0.36218 0.76154 0.0
C1297 C 0.55991 0.36797 0.74583 0.0
H1298 H 0.56884 0.36002 0.7832 0.0
H1299 H 0.60146 0.41909 0.63158 0.0
H1300 H 0.13119 0.56402 0.87213 0.0
H1301 H 0.15953 0.56792 0.88437 0.0
H1302 H 0.18932 0.59146 0.84122 0.0
H1303 H 0.16128 0.58797 0.82912 0.0
H1304 H 0.19418 0.56246 0.85574 0.0
H1305 H 0.19562 0.61947 0.86779 0.0
H1306 H 0.1827 0.63748 0.87914 0.0
H1307 H 0.18055 0.61486 0.92488 0.0
H1308 H 0.19321 0.5965 0.91373 0.0
H1309 H 0.28884 0.60657 0.87183 0.0
H1310 H 0.25747 0.59739 0.86378 0.0
H1311 H 0.24105 0.59227 0.91269 0.0
H1312 H 0.27274 0.60213 0.92078 0.0
H1313 H 0.2268 0.60846 0.89794 0.0
H1314 H 0.22803 0.55401 0.88778 0.0
H1315 H 0.23984 0.53459 0.87749 0.0
H1316 H 0.23521 0.54945 0.83005 0.0
H1317 H 0.22362 0.56917 0.84006 0.0
C1318 C 0.14383 0.57003 0.86533 0.0
C1319 C 0.14416 0.57584 0.84976 0.0
C1320 C 0.15994 0.57225 0.8723 0.0
C1321 C 0.17646 0.57998 0.86367 0.0
C1322 C 0.17669 0.58546 0.84804 0.0
C1323 C 0.16073 0.58357 0.8412 0.0
C1324 C 0.19368 0.58266 0.87086 0.0
C1325 C 0.20142 0.57256 0.86492 0.0
C1326 C 0.20267 0.59536 0.8832 0.0
C1327 C 0.19513 0.60644 0.88989 0.0
C1328 C 0.19221 0.6182 0.88023 0.0
C1329 C 0.18498 0.6285 0.88664 0.0
C1330 C 0.18074 0.62727 0.90271 0.0
C1331 C 0.18379 0.61577 0.91242 0.0
C1332 C 0.191 0.60542 0.90607 0.0
C1333 C 0.27848 0.60326 0.88086 0.0
C1334 C 0.28318 0.60494 0.89692 0.0
C1335 C 0.26051 0.59795 0.87626 0.0
C1336 C 0.24672 0.59377 0.88761 0.0
C1337 C 0.2514 0.59537 0.9037 0.0
C1338 C 0.26948 0.60098 0.90831 0.0
C1339 C 0.2277 0.5885 0.88261 0.0
C1340 C 0.21955 0.59811 0.88895 0.0
C1341 C 0.21815 0.57507 0.8708 0.0
C1342 C 0.22508 0.56318 0.86469 0.0
C1343 C 0.22965 0.55324 0.87516 0.0
C1344 C 0.23629 0.54216 0.86937 0.0
C1345 C 0.23831 0.54081 0.85313 0.0
C1346 C 0.23365 0.55051 0.84263 0.0
C1347 C 0.22702 0.56163 0.84836 0.0
H1348 H 0.24345 0.53223 0.84867 0.0
H1349 H 0.17515 0.63526 0.90764 0.0
H1350 H 0.60381 0.14577 0.00415 0.0
H1351 H 0.6274 0.1744 0.01601 0.0
H1352 H 0.58667 0.17446 0.04706 0.0
H1353 H 0.56298 0.14566 0.03537 0.0
H1354 H 0.60644 0.20671 0.03224 0.0
H1355 H 0.61965 0.16648 0.06141 0.0
H1356 H 0.62653 0.14169 0.0651 0.0
H1357 H 0.67629 0.17151 0.03814 0.0
H1358 H 0.66957 0.19638 0.03408 0.0
H1359 H 0.66947 0.28427 0.07617 0.0
H1360 H 0.64664 0.25273 0.06947 0.0
H1361 H 0.68533 0.25013 0.03753 0.0
H1362 H 0.7085 0.28153 0.04457 0.0
H1363 H 0.66624 0.21866 0.05418 0.0
H1364 H 0.65224 0.25774 0.02361 0.0
H1365 H 0.64547 0.28253 0.01937 0.0
H1366 H 0.59717 0.25466 0.04842 0.0
H1367 H 0.60381 0.22982 0.05302 0.0
C1368 C 0.59992 0.15162 0.01375 0.0
C1369 C 0.58147 0.1434 0.01879 0.0
C1370 C 0.61344 0.16803 0.0205 0.0
C1371 C 0.60882 0.17654 0.03247 0.0
C1372 C 0.59052 0.16816 0.0378 0.0
C1373 C 0.577 0.15173 0.03108 0.0
C1374 C 0.62282 0.19474 0.03868 0.0
C1375 C 0.61937 0.20924 0.03731 0.0
C1376 C 0.63991 0.19815 0.04488 0.0
C1377 C 0.64402 0.18323 0.04732 0.0
C1378 C 0.63198 0.16769 0.05615 0.0
C1379 C 0.63587 0.15364 0.05833 0.0
C1380 C 0.65182 0.15501 0.05183 0.0
C1381 C 0.66393 0.17046 0.04316 0.0
C1382 C 0.6601 0.18455 0.04093 0.0
C1383 C 0.67326 0.27691 0.06792 0.0
C1384 C 0.6908 0.28547 0.06084 0.0
C1385 C 0.66013 0.25892 0.064 0.0
C1386 C 0.6642 0.24916 0.05284 0.0
C1387 C 0.68187 0.25744 0.04613 0.0
C1388 C 0.69504 0.27543 0.05005 0.0
C1389 C 0.64981 0.23058 0.04773 0.0
C1390 C 0.65323 0.21605 0.04924 0.0
C1391 C 0.63269 0.22712 0.04159 0.0
C1392 C 0.62864 0.24202 0.0388 0.0
C1393 C 0.64026 0.25697 0.0292 0.0
C1394 C 0.63643 0.27102 0.02672 0.0
C1395 C 0.62093 0.2702 0.03366 0.0
C1396 C 0.6092 0.2553 0.04307 0.0
C1397 C 0.61298 0.24122 0.04562 0.0
H1398 H 0.61798 0.28108 0.03172 0.0
H1399 H 0.6548 0.14411 0.05353 0.0
H1400 H 0.42186 0.56527 0.18111 0.0
H1401 H 0.41697 0.58991 0.19021 0.0
H1402 H 0.47377 0.62115 0.20492 0.0
H1403 H 0.47881 0.59642 0.19578 0.0
H1404 H 0.44611 0.62053 0.22709 0.0
H1405 H 0.46515 0.63281 0.17252 0.0
H1406 H 0.46354 0.62453 0.14438 0.0
H1407 H 0.40753 0.61274 0.14223 0.0
H1408 H 0.40871 0.62067 0.17043 0.0
H1409 H 0.44345 0.7027 0.23686 0.0
H1410 H 0.45245 0.68033 0.22982 0.0
H1411 H 0.40334 0.65092 0.20148 0.0
H1412 H 0.39499 0.67391 0.20743 0.0
H1413 H 0.42998 0.65198 0.18632 0.0
H1414 H 0.40871 0.6369 0.23977 0.0
H1415 H 0.40764 0.64255 0.26824 0.0
H1416 H 0.46423 0.65683 0.27306 0.0
H1417 H 0.46571 0.65148 0.24456 0.0
C1418 C 0.43324 0.57722 0.18655 0.0
C1419 C 0.45072 0.57891 0.18778 0.0
C1420 C 0.43045 0.59133 0.19164 0.0
C1421 C 0.44504 0.60735 0.19813 0.0
C1422 C 0.46236 0.60886 0.19993 0.0
C1423 C 0.46523 0.5948 0.19465 0.0
C1424 C 0.44227 0.62279 0.20228 0.0
C1425 C 0.44288 0.62767 0.2182 0.0
C1426 C 0.4376 0.63168 0.19067 0.0
C1427 C 0.43698 0.62719 0.17363 0.0
C1428 C 0.45245 0.62833 0.16608 0.0
C1429 C 0.45162 0.62372 0.15011 0.0
C1430 C 0.43543 0.61807 0.14154 0.0
C1431 C 0.42006 0.6171 0.14889 0.0
C1432 C 0.42081 0.62167 0.16487 0.0
C1433 C 0.43467 0.69163 0.22896 0.0
C1434 C 0.4184 0.69015 0.22281 0.0
C1435 C 0.43971 0.67866 0.22512 0.0
C1436 C 0.42843 0.66371 0.21532 0.0
C1437 C 0.41227 0.66226 0.20911 0.0
C1438 C 0.40737 0.67535 0.21273 0.0
C1439 C 0.43347 0.64967 0.21126 0.0
C1440 C 0.43333 0.64502 0.19529 0.0
C1441 C 0.43823 0.64077 0.22288 0.0
C1442 C 0.43738 0.64399 0.24001 0.0
C1443 C 0.42097 0.64138 0.24688 0.0
C1444 C 0.42028 0.64451 0.26302 0.0
C1445 C 0.43587 0.6501 0.27244 0.0
C1446 C 0.45217 0.65253 0.26574 0.0
C1447 C 0.45294 0.64944 0.2496 0.0
H1448 H 0.43531 0.65251 0.28493 0.0
H1449 H 0.43479 0.61447 0.12919 0.0
H1450 H 0.87449 0.42922 0.35689 0.0
H1451 H 0.84559 0.42379 0.36819 0.0
H1452 H 0.86495 0.48157 0.36696 0.0
H1453 H 0.89463 0.48736 0.3567 0.0
H1454 H 0.84519 0.46755 0.39252 0.0
H1455 H 0.8362 0.45193 0.33785 0.0
H1456 H 0.83747 0.43691 0.31326 0.0
H1457 H 0.80247 0.38425 0.3339 0.0
H1458 H 0.80121 0.39895 0.35871 0.0
H1459 H 0.75283 0.45371 0.39306 0.0
H1460 H 0.78445 0.46226 0.38565 0.0
H1461 H 0.77229 0.40733 0.39514 0.0
H1462 H 0.74077 0.39875 0.40263 0.0
H1463 H 0.78844 0.42133 0.36503 0.0
H1464 H 0.79801 0.43871 0.42012 0.0
H1465 H 0.79655 0.4551 0.4437 0.0
H1466 H 0.83006 0.50647 0.42049 0.0
H1467 H 0.83149 0.49035 0.39667 0.0
C1468 C 0.87293 0.44091 0.3594 0.0
C1469 C 0.88701 0.45877 0.35575 0.0
C1470 C 0.85619 0.43771 0.36565 0.0
C1471 C 0.85287 0.45221 0.36804 0.0
C1472 C 0.8671 0.47013 0.36506 0.0
C1473 C 0.88402 0.47339 0.35903 0.0
C1474 C 0.83433 0.44849 0.37308 0.0
C1475 C 0.83281 0.45762 0.38638 0.0
C1476 C 0.81811 0.43546 0.36513 0.0
C1477 C 0.81875 0.42655 0.35019 0.0
C1478 C 0.82888 0.43714 0.33719 0.0
C1479 C 0.82958 0.42869 0.3232 0.0
C1480 C 0.82009 0.40964 0.32203 0.0
C1481 C 0.80984 0.399 0.33483 0.0
C1482 C 0.8091 0.40739 0.34886 0.0
C1483 C 0.75697 0.44352 0.39364 0.0
C1484 C 0.74439 0.42558 0.39845 0.0
C1485 C 0.77502 0.44843 0.38949 0.0
C1486 C 0.78067 0.43543 0.38991 0.0
C1487 C 0.76817 0.41756 0.39479 0.0
C1488 C 0.75024 0.41271 0.39915 0.0
C1489 C 0.79935 0.44015 0.38456 0.0
C1490 C 0.80086 0.43126 0.37114 0.0
C1491 C 0.8155 0.45361 0.39222 0.0
C1492 C 0.81469 0.46331 0.40655 0.0
C1493 C 0.80492 0.45349 0.41999 0.0
C1494 C 0.80413 0.46273 0.43341 0.0
C1495 C 0.81316 0.48181 0.43358 0.0
C1496 C 0.82304 0.49169 0.42034 0.0
C1497 C 0.82386 0.4825 0.40687 0.0
H1498 H 0.81253 0.48895 0.44399 0.0
H1499 H 0.82066 0.40311 0.31119 0.0
H1500 H 0.12227 0.53503 0.40104 0.0
H1501 H 0.14105 0.54648 0.42477 0.0
H1502 H 0.12509 0.58715 0.43042 0.0
H1503 H 0.10512 0.57505 0.40724 0.0
H1504 H 0.16692 0.59836 0.42946 0.0
H1505 H 0.1083 0.56017 0.45533 0.0
H1506 H 0.07918 0.53126 0.45963 0.0
H1507 H 0.10941 0.5042 0.47036 0.0
H1508 H 0.13872 0.53291 0.46589 0.0
H1509 H 0.21455 0.63512 0.50127 0.0
H1510 H 0.19182 0.62368 0.47993 0.0
H1511 H 0.1851 0.56997 0.48516 0.0
H1512 H 0.20713 0.58126 0.50708 0.0
H1513 H 0.15345 0.56586 0.48064 0.0
H1514 H 0.21117 0.60106 0.4542 0.0
H1515 H 0.24138 0.62812 0.44837 0.0
H1516 H 0.21494 0.65867 0.43676 0.0
H1517 H 0.18457 0.63184 0.44273 0.0
C1518 C 0.1222 0.54605 0.40749 0.0
C1519 C 0.112 0.55402 0.40209 0.0
C1520 C 0.13316 0.55269 0.421 0.0
C1521 C 0.13444 0.56764 0.42926 0.0
C1522 C 0.12428 0.57562 0.4241 0.0
C1523 C 0.11298 0.56873 0.41077 0.0
C1524 C 0.14705 0.57531 0.4429 0.0
C1525 C 0.16391 0.5915 0.44078 0.0
C1526 C 0.1433 0.56588 0.45735 0.0
C1527 C 0.1257 0.54864 0.46011 0.0
C1528 C 0.10874 0.54801 0.45845 0.0
C1529 C 0.09219 0.53167 0.46095 0.0
C1530 C 0.09244 0.51589 0.46522 0.0
C1531 C 0.10923 0.51643 0.46703 0.0
C1532 C 0.12582 0.53273 0.46453 0.0
C1533 C 0.20822 0.6209 0.49779 0.0
C1534 C 0.21261 0.60907 0.5057 0.0
C1535 C 0.1953 0.61437 0.48555 0.0
C1536 C 0.18694 0.59601 0.48067 0.0
C1537 C 0.19131 0.58418 0.48867 0.0
C1538 C 0.20393 0.59062 0.50114 0.0
C1539 C 0.17357 0.58908 0.46733 0.0
C1540 C 0.15655 0.57293 0.46942 0.0
C1541 C 0.17738 0.59834 0.45268 0.0
C1542 C 0.19562 0.6145 0.44907 0.0
C1543 C 0.21181 0.61359 0.45052 0.0
C1544 C 0.22896 0.62888 0.44717 0.0
C1545 C 0.23008 0.64512 0.44224 0.0
C1546 C 0.21405 0.64609 0.44061 0.0
C1547 C 0.19687 0.63084 0.44396 0.0
H1548 H 0.24337 0.65694 0.43965 0.0
H1549 H 0.07962 0.50326 0.46716 0.0
H1550 H 0.60737 0.116 0.56639 0.0
H1551 H 0.61355 0.13416 0.5904 0.0
H1552 H 0.56329 0.13535 0.58362 0.0
H1553 H 0.55755 0.1181 0.55907 0.0
H1554 H 0.58975 0.16796 0.59041 0.0
H1555 H 0.56816 0.10924 0.61315 0.0
H1556 H 0.56648 0.07969 0.61752 0.0
H1557 H 0.62271 0.10761 0.63334 0.0
H1558 H 0.62481 0.13734 0.62886 0.0
H1559 H 0.59152 0.20446 0.66695 0.0
H1560 H 0.58267 0.18358 0.64445 0.0
H1561 H 0.63671 0.18945 0.64399 0.0
H1562 H 0.646 0.21092 0.66612 0.0
H1563 H 0.60703 0.15258 0.64162 0.0
H1564 H 0.62809 0.21141 0.61765 0.0
H1565 H 0.62865 0.24051 0.61379 0.0
H1566 H 0.57141 0.21119 0.60092 0.0
H1567 H 0.57044 0.18189 0.60494 0.0
C1568 C 0.59763 0.12015 0.56996 0.0
C1569 C 0.582 0.11563 0.56072 0.0
C1570 C 0.60107 0.13035 0.58384 0.0
C1571 C 0.58879 0.13599 0.58894 0.0
C1572 C 0.57295 0.13113 0.57995 0.0
C1573 C 0.56958 0.12108 0.56598 0.0
C1574 C 0.59302 0.1478 0.60316 0.0
C1575 C 0.5932 0.16439 0.60167 0.0
C1576 C 0.59789 0.14339 0.6178 0.0
C1577 C 0.59669 0.12553 0.62053 0.0
C1578 C 0.58022 0.10908 0.61744 0.0
C1579 C 0.57918 0.0923 0.61996 0.0
C1580 C 0.59449 0.09177 0.62567 0.0
C1581 C 0.61086 0.10803 0.6289 0.0
C1582 C 0.61198 0.12486 0.62639 0.0
C1583 C 0.60166 0.20156 0.66196 0.0
C1584 C 0.61954 0.20951 0.66835 0.0
C1585 C 0.5965 0.1895 0.64917 0.0
C1586 C 0.60906 0.18503 0.64256 0.0
C1587 C 0.6268 0.19267 0.649 0.0
C1588 C 0.63205 0.2049 0.66169 0.0
C1589 C 0.60377 0.1726 0.62876 0.0
C1590 C 0.60344 0.15597 0.63035 0.0
C1591 C 0.59855 0.17686 0.61426 0.0
C1592 C 0.59914 0.19446 0.61176 0.0
C1593 C 0.61558 0.21116 0.61413 0.0
C1594 C 0.61598 0.22769 0.61189 0.0
C1595 C 0.60007 0.2277 0.60716 0.0
C1596 C 0.58372 0.21117 0.60461 0.0
C1597 C 0.58324 0.1946 0.60686 0.0
H1598 H 0.60041 0.24051 0.60542 0.0
H1599 H 0.59366 0.07876 0.62762 0.0
H1600 H 0.45265 0.57472 0.72541 0.0
H1601 H 0.44117 0.58272 0.74884 0.0
H1602 H 0.49085 0.59548 0.77399 0.0
H1603 H 0.50235 0.58717 0.75058 0.0
H1604 H 0.45909 0.57608 0.79224 0.0
H1605 H 0.48707 0.6293 0.75937 0.0
H1606 H 0.49244 0.64645 0.73462 0.0
H1607 H 0.43575 0.63265 0.73386 0.0
H1608 H 0.42997 0.61517 0.75851 0.0
H1609 H 0.44929 0.62727 0.85437 0.0
H1610 H 0.46084 0.61782 0.83186 0.0
H1611 H 0.4132 0.60753 0.80462 0.0
H1612 H 0.40179 0.61743 0.82696 0.0
H1613 H 0.44445 0.62576 0.78759 0.0
H1614 H 0.41624 0.57249 0.82025 0.0
H1615 H 0.41049 0.55495 0.84482 0.0
H1616 H 0.46707 0.56843 0.84591 0.0
H1617 H 0.47323 0.58629 0.82145 0.0
C1618 C 0.46101 0.57892 0.73601 0.0
C1619 C 0.47842 0.58032 0.73615 0.0
C1620 C 0.4545 0.58364 0.74934 0.0
C1621 C 0.46526 0.58989 0.76308 0.0
C1622 C 0.48237 0.59074 0.76347 0.0
C1623 C 0.48896 0.5861 0.75008 0.0
C1624 C 0.45883 0.59606 0.77683 0.0
C1625 C 0.45613 0.58711 0.79131 0.0
C1626 C 0.45459 0.61019 0.77548 0.0
C1627 C 0.45805 0.62078 0.7607 0.0
C1628 C 0.47571 0.62979 0.75386 0.0
C1629 C 0.47884 0.6396 0.73986 0.0
C1630 C 0.46443 0.6406 0.73265 0.0
C1631 C 0.44689 0.63184 0.73945 0.0
C1632 C 0.44368 0.622 0.75344 0.0
C1633 C 0.44135 0.62317 0.84354 0.0
C1634 C 0.42461 0.62309 0.84245 0.0
C1635 C 0.44788 0.61759 0.83074 0.0
C1636 C 0.43778 0.61177 0.81662 0.0
C1637 C 0.42118 0.6119 0.81543 0.0
C1638 C 0.41462 0.61743 0.82824 0.0
C1639 C 0.44461 0.60573 0.80304 0.0
C1640 C 0.44741 0.61474 0.78856 0.0
C1641 C 0.44889 0.59163 0.8044 0.0
C1642 C 0.44524 0.58089 0.81911 0.0
C1643 C 0.42749 0.57185 0.8258 0.0
C1644 C 0.42416 0.56182 0.83969 0.0
C1645 C 0.43842 0.56062 0.84695 0.0
C1646 C 0.45605 0.5694 0.84029 0.0
C1647 C 0.45946 0.57947 0.82641 0.0
H1648 H 0.43581 0.55284 0.8577 0.0
H1649 H 0.46688 0.6482 0.72181 0.0
H1650 H 0.93334 0.48404 0.90853 0.0
H1651 H 0.91498 0.47298 0.93272 0.0
H1652 H 0.86764 0.4675 0.90795 0.0
H1653 H 0.8858 0.47842 0.88379 0.0
H1654 H 0.87137 0.48337 0.93623 0.0
H1655 H 0.87185 0.43035 0.91601 0.0
H1656 H 0.88631 0.41297 0.90651 0.0
H1657 H 0.91391 0.42139 0.951 0.0
H1658 H 0.8998 0.43905 0.9607 0.0
H1659 H 0.79897 0.42652 0.98784 0.0
H1660 H 0.81974 0.43891 0.96526 0.0
H1661 H 0.86424 0.44253 0.99332 0.0
H1662 H 0.84337 0.42954 0.01585 0.0
H1663 H 0.86361 0.4288 0.9645 0.0
H1664 H 0.86197 0.4806 0.98519 0.0
H1665 H 0.84741 0.49787 0.99472 0.0
H1666 H 0.82208 0.49186 0.94943 0.0
H1667 H 0.83628 0.47432 0.93969 0.0
C1668 C 0.91899 0.48037 0.90823 0.0
C1669 C 0.91105 0.48216 0.89424 0.0
C1670 C 0.90852 0.47408 0.92206 0.0
C1671 C 0.88989 0.46929 0.92212 0.0
C1672 C 0.882 0.47119 0.90821 0.0
C1673 C 0.89244 0.4775 0.89441 0.0
C1674 C 0.87851 0.46228 0.93662 0.0
C1675 C 0.86952 0.47133 0.94232 0.0
C1676 C 0.87649 0.44685 0.94481 0.0
C1677 C 0.88493 0.43619 0.93902 0.0
C1678 C 0.88112 0.42862 0.92372 0.0
C1679 C 0.88923 0.4187 0.91831 0.0
C1680 C 0.90107 0.41613 0.92812 0.0
C1681 C 0.90477 0.42343 0.9434 0.0
C1682 C 0.89671 0.43338 0.94886 0.0
C1683 C 0.81313 0.4298 0.98919 0.0
C1684 C 0.81951 0.42707 0.00368 0.0
C1685 C 0.82504 0.43706 0.9763 0.0
C1686 C 0.84361 0.44188 0.97766 0.0
C1687 C 0.84999 0.439 0.99204 0.0
C1688 C 0.83807 0.43172 0.00494 0.0
C1689 C 0.8563 0.44977 0.964 0.0
C1690 C 0.86555 0.44091 0.95847 0.0
C1691 C 0.85857 0.46538 0.95596 0.0
C1692 C 0.85007 0.476 0.96176 0.0
C1693 C 0.85319 0.48284 0.9773 0.0
C1694 C 0.84501 0.4927 0.98274 0.0
C1695 C 0.83379 0.49592 0.9727 0.0
C1696 C 0.83076 0.48933 0.9572 0.0
C1697 C 0.83888 0.47945 0.95171 0.0
H1698 H 0.82748 0.50356 0.97693 0.0
H1699 H 0.90733 0.40844 0.92391 0.0
H1700 H 0.41614 0.9154 0.06716 0.0
H1701 H 0.40938 0.89656 0.09064 0.0
H1702 H 0.4605 0.89673 0.08474 0.0
H1703 H 0.46677 0.91452 0.06064 0.0
H1704 H 0.43469 0.86396 0.09069 0.0
H1705 H 0.45354 0.92197 0.11451 0.0
H1706 H 0.45376 0.95082 0.11923 0.0
H1707 H 0.39705 0.92077 0.13362 0.0
H1708 H 0.39641 0.89172 0.12879 0.0
H1709 H 0.4339 0.82777 0.16653 0.0
H1710 H 0.44207 0.84901 0.14443 0.0
H1711 H 0.38678 0.84005 0.14393 0.0
H1712 H 0.37851 0.81876 0.16608 0.0
H1713 H 0.41515 0.87757 0.14183 0.0
H1714 H 0.39718 0.81943 0.11731 0.0
H1715 H 0.39829 0.79117 0.11324 0.0
H1716 H 0.45559 0.82284 0.10092 0.0
H1717 H 0.45489 0.85132 0.10516 0.0
C1718 C 0.42593 0.91137 0.07078 0.0
C1719 C 0.44199 0.91647 0.06191 0.0
C1720 C 0.42216 0.90079 0.08438 0.0
C1721 C 0.43453 0.89538 0.08961 0.0
C1722 C 0.45075 0.90076 0.08098 0.0
C1723 C 0.45442 0.91115 0.06727 0.0
C1724 C 0.43012 0.88333 0.10359 0.0
C1725 C 0.43072 0.86714 0.10193 0.0
C1726 C 0.42455 0.88722 0.11821 0.0
C1727 C 0.42488 0.90466 0.12114 0.0
C1728 C 0.44107 0.92151 0.11857 0.0
C1729 C 0.44128 0.9379 0.12128 0.0
C1730 C 0.42542 0.93763 0.12668 0.0
C1731 C 0.40932 0.92096 0.12942 0.0
C1732 C 0.40904 0.90453 0.12671 0.0
C1733 C 0.42353 0.83042 0.16176 0.0
C1734 C 0.40556 0.8216 0.16797 0.0
C1735 C 0.42819 0.84248 0.14912 0.0
C1736 C 0.41499 0.84601 0.14253 0.0
C1737 C 0.39713 0.83747 0.14887 0.0
C1738 C 0.3924 0.82524 0.16141 0.0
C1739 C 0.41979 0.85838 0.12884 0.0
C1740 C 0.41922 0.87455 0.13057 0.0
C1741 C 0.42561 0.85461 0.11434 0.0
C1742 C 0.42602 0.8375 0.11171 0.0
C1743 C 0.41006 0.82037 0.11387 0.0
C1744 C 0.41061 0.80431 0.1115 0.0
C1745 C 0.42701 0.80521 0.10686 0.0
C1746 C 0.4429 0.82217 0.10454 0.0
C1747 C 0.44243 0.83827 0.10691 0.0
H1748 H 0.42741 0.79276 0.10504 0.0
H1749 H 0.4256 0.95033 0.12878 0.0
H1750 H 0.52097 0.42954 0.24196 0.0
H1751 H 0.53287 0.42339 0.26607 0.0
H1752 H 0.58783 0.46599 0.25397 0.0
H1753 H 0.57606 0.47201 0.22971 0.0
H1754 H 0.58653 0.43416 0.26153 0.0
H1755 H 0.56534 0.47227 0.2839 0.0
H1756 H 0.54303 0.48239 0.28942 0.0
H1757 H 0.50705 0.43131 0.31212 0.0
H1758 H 0.52903 0.42076 0.30653 0.0
H1759 H 0.62896 0.43356 0.33349 0.0
H1760 H 0.6173 0.44292 0.31119 0.0
H1761 H 0.56172 0.40139 0.32287 0.0
H1762 H 0.5733 0.39184 0.34517 0.0
H1763 H 0.56372 0.43352 0.31575 0.0
H1764 H 0.58404 0.39492 0.29264 0.0
H1765 H 0.60597 0.38436 0.287 0.0
H1766 H 0.64311 0.43588 0.26546 0.0
H1767 H 0.6215 0.44685 0.27118 0.0
C1768 C 0.53557 0.43768 0.2445 0.0
C1769 C 0.54759 0.45124 0.23394 0.0
C1770 C 0.54233 0.43423 0.25832 0.0
C1771 C 0.56122 0.44429 0.26184 0.0
C1772 C 0.57319 0.4581 0.25148 0.0
C1773 C 0.56643 0.46162 0.2377 0.0
C1774 C 0.56862 0.43966 0.27584 0.0
C1775 C 0.58178 0.43433 0.27342 0.0
C1776 C 0.56201 0.43937 0.29128 0.0
C1777 C 0.54876 0.44566 0.29466 0.0
C1778 C 0.55259 0.46313 0.28995 0.0
C1779 C 0.54002 0.46896 0.29311 0.0
C1780 C 0.52361 0.45748 0.30108 0.0
C1781 C 0.51976 0.44017 0.30593 0.0
C1782 C 0.53228 0.43427 0.30278 0.0
C1783 C 0.61427 0.42628 0.33123 0.0
C1784 C 0.60207 0.41185 0.34104 0.0
C1785 C 0.60762 0.4317 0.31851 0.0
C1786 C 0.58865 0.42273 0.31527 0.0
C1787 C 0.5764 0.40852 0.32518 0.0
C1788 C 0.58304 0.4031 0.33793 0.0
C1789 C 0.58164 0.42806 0.30143 0.0
C1790 C 0.56853 0.43346 0.30387 0.0
C1791 C 0.58823 0.42835 0.28598 0.0
C1792 C 0.60123 0.42177 0.28249 0.0
C1793 C 0.59695 0.40406 0.28682 0.0
C1794 C 0.60931 0.39798 0.28359 0.0
C1795 C 0.62595 0.40946 0.27592 0.0
C1796 C 0.63023 0.42701 0.27142 0.0
C1797 C 0.61793 0.43316 0.27465 0.0
H1798 H 0.6355 0.40473 0.27342 0.0
H1799 H 0.5139 0.46202 0.30353 0.0
H1800 H 0.44879 0.89807 0.42577 0.0
H1801 H 0.43713 0.87871 0.40224 0.0
H1802 H 0.48569 0.91686 0.37644 0.0
H1803 H 0.49744 0.9364 0.39999 0.0
H1804 H 0.45193 0.90257 0.35895 0.0
H1805 H 0.48529 0.88161 0.39038 0.0
H1806 H 0.49289 0.87126 0.41489 0.0
H1807 H 0.43768 0.82555 0.41719 0.0
H1808 H 0.42967 0.8358 0.3928 0.0
H1809 H 0.44479 0.8437 0.29599 0.0
H1810 H 0.45574 0.86495 0.31832 0.0
H1811 H 0.41223 0.8244 0.3474 0.0
H1812 H 0.40164 0.80282 0.32531 0.0
H1813 H 0.44368 0.84047 0.36315 0.0
H1814 H 0.40983 0.8606 0.33214 0.0
H1815 H 0.40119 0.87081 0.30811 0.0
H1816 H 0.45569 0.91761 0.30535 0.0
H1817 H 0.46474 0.90754 0.32926 0.0
C1818 C 0.45682 0.90254 0.415 0.0
C1819 C 0.47404 0.91874 0.41471 0.0
C1820 C 0.4502 0.8914 0.40161 0.0
C1821 C 0.46064 0.89629 0.38767 0.0
C1822 C 0.47745 0.91286 0.38711 0.0
C1823 C 0.48418 0.92393 0.40056 0.0
C1824 C 0.45446 0.88359 0.37402 0.0
C1825 C 0.45033 0.88908 0.35976 0.0
C1826 C 0.452 0.86585 0.37526 0.0
C1827 C 0.45683 0.85958 0.38985 0.0
C1828 C 0.47472 0.86944 0.39618 0.0
C1829 C 0.47911 0.86357 0.41004 0.0
C1830 C 0.46576 0.84778 0.41761 0.0
C1831 C 0.448 0.83779 0.41132 0.0
C1832 C 0.44353 0.84362 0.39747 0.0
C1833 C 0.43767 0.83922 0.30718 0.0
C1834 C 0.4223 0.82155 0.30884 0.0
C1835 C 0.44382 0.85147 0.31989 0.0
C1836 C 0.43465 0.84636 0.33448 0.0
C1837 C 0.41947 0.82867 0.33623 0.0
C1838 C 0.41334 0.8164 0.32355 0.0
C1839 C 0.44102 0.85936 0.34799 0.0
C1840 C 0.44523 0.85395 0.36227 0.0
C1841 C 0.44341 0.8771 0.34678 0.0
C1842 C 0.43802 0.88321 0.3324 0.0
C1843 C 0.42002 0.87299 0.32633 0.0
C1844 C 0.41504 0.87876 0.31275 0.0
C1845 C 0.4279 0.89482 0.30518 0.0
C1846 C 0.44575 0.90516 0.31121 0.0
C1847 C 0.45081 0.89943 0.32479 0.0
H1848 H 0.42401 0.89928 0.29467 0.0
H1849 H 0.46919 0.84326 0.42834 0.0
H1850 H 0.56979 0.49263 0.57934 0.0
H1851 H 0.57702 0.48199 0.55486 0.0
H1852 H 0.61249 0.46826 0.58083 0.0
H1853 H 0.6056 0.47919 0.60516 0.0
H1854 H 0.6285 0.4839 0.55449 0.0
H1855 H 0.56802 0.43556 0.56883 0.0
H1856 H 0.53516 0.42191 0.57578 0.0
H1857 H 0.52448 0.43847 0.5311 0.0
H1858 H 0.55734 0.45244 0.52397 0.0
H1859 H 0.63267 0.42049 0.50193 0.0
H1860 H 0.62559 0.43417 0.52445 0.0
H1861 H 0.59957 0.45442 0.49318 0.0
H1862 H 0.60665 0.44078 0.47058 0.0
H1863 H 0.57877 0.43697 0.52077 0.0
H1864 H 0.63988 0.48364 0.50624 0.0
H1865 H 0.67266 0.49592 0.49974 0.0
H1866 H 0.68197 0.48078 0.54562 0.0
H1867 H 0.64916 0.46815 0.5523 0.0
C1868 C 0.57912 0.48734 0.57978 0.0
C1869 C 0.58716 0.48678 0.59414 0.0
C1870 C 0.58322 0.48123 0.56582 0.0
C1871 C 0.59515 0.47412 0.56602 0.0
C1872 C 0.60331 0.47374 0.58034 0.0
C1873 C 0.59939 0.48002 0.59424 0.0
C1874 C 0.59912 0.46694 0.55141 0.0
C1875 C 0.6176 0.47351 0.54722 0.0
C1876 C 0.58493 0.45364 0.5417 0.0
C1877 C 0.56517 0.44523 0.54594 0.0
C1878 C 0.55869 0.43642 0.56054 0.0
C1879 C 0.54006 0.4286 0.5645 0.0
C1880 C 0.52775 0.42937 0.55391 0.0
C1881 C 0.53404 0.43791 0.53931 0.0
C1882 C 0.55266 0.44578 0.5353 0.0
C1883 C 0.62538 0.42781 0.49988 0.0
C1884 C 0.62024 0.42962 0.48452 0.0
C1885 C 0.62143 0.43568 0.51271 0.0
C1886 C 0.61216 0.44539 0.51043 0.0
C1887 C 0.60678 0.44702 0.49515 0.0
C1888 C 0.61092 0.43933 0.48227 0.0
C1889 C 0.60807 0.45379 0.52406 0.0
C1890 C 0.58961 0.44745 0.52802 0.0
C1891 C 0.62226 0.46713 0.53367 0.0
C1892 C 0.64202 0.4748 0.52971 0.0
C1893 C 0.64888 0.48279 0.51489 0.0
C1894 C 0.66747 0.48984 0.51119 0.0
C1895 C 0.67938 0.48909 0.52225 0.0
C1896 C 0.67273 0.48133 0.53705 0.0
C1897 C 0.65414 0.47424 0.54081 0.0
H1898 H 0.69377 0.49456 0.51935 0.0
H1899 H 0.51333 0.4233 0.557 0.0
H1900 H 0.09548 0.57409 0.73675 0.0
H1901 H 0.11557 0.58324 0.7134 0.0
H1902 H 0.15771 0.58118 0.74073 0.0
H1903 H 0.1377 0.57189 0.76398 0.0
H1904 H 0.16943 0.6147 0.72374 0.0
H1905 H 0.13635 0.54927 0.7156 0.0
H1906 H 0.10844 0.51901 0.71242 0.0
H1907 H 0.09268 0.53816 0.67186 0.0
H1908 H 0.12039 0.56864 0.67494 0.0
H1909 H 0.23477 0.62665 0.66603 0.0
H1910 H 0.21254 0.61566 0.68755 0.0
H1911 H 0.1692 0.60612 0.65492 0.0
H1912 H 0.19113 0.6159 0.6331 0.0
H1913 H 0.15684 0.57892 0.67415 0.0
H1914 H 0.18887 0.64355 0.68106 0.0
H1915 H 0.21571 0.67462 0.68384 0.0
H1916 H 0.23198 0.65862 0.72605 0.0
H1917 H 0.20537 0.62737 0.7234 0.0
C1918 C 0.10895 0.57539 0.73768 0.0
C1919 C 0.11502 0.57219 0.75213 0.0
C1920 C 0.12037 0.58057 0.72437 0.0
C1921 C 0.13809 0.58288 0.72539 0.0
C1922 C 0.14406 0.57945 0.73973 0.0
C1923 C 0.13257 0.574 0.75295 0.0
C1924 C 0.15079 0.58965 0.71172 0.0
C1925 C 0.16683 0.60682 0.71294 0.0
C1926 C 0.14697 0.57961 0.69748 0.0
C1927 C 0.13033 0.56129 0.69561 0.0
C1928 C 0.12685 0.54709 0.7061 0.0
C1929 C 0.11108 0.52988 0.70429 0.0
C1930 C 0.09877 0.52668 0.69198 0.0
C1931 C 0.10222 0.54067 0.68141 0.0
C1932 C 0.11795 0.5579 0.68318 0.0
C1933 C 0.22049 0.62203 0.66334 0.0
C1934 C 0.21482 0.6222 0.64775 0.0
C1935 C 0.2078 0.61598 0.67574 0.0
C1936 C 0.18921 0.61034 0.67293 0.0
C1937 C 0.18347 0.61048 0.65741 0.0
C1938 C 0.19612 0.61631 0.64496 0.0
C1939 C 0.17573 0.60399 0.68617 0.0
C1940 C 0.15949 0.58691 0.68488 0.0
C1941 C 0.17921 0.61427 0.70028 0.0
C1942 C 0.19521 0.63307 0.70195 0.0
C1943 C 0.19825 0.64662 0.69087 0.0
C1944 C 0.21341 0.66427 0.69243 0.0
C1945 C 0.22556 0.66858 0.70509 0.0
C1946 C 0.22256 0.65525 0.71624 0.0
C1947 C 0.20743 0.63757 0.71472 0.0
H1948 H 0.23729 0.68225 0.70629 0.0
H1949 H 0.08657 0.51335 0.6906 0.0
H1950 H 0.53468 0.13173 0.92324 0.0
H1951 H 0.54469 0.14847 0.89849 0.0
H1952 H 0.56906 0.11639 0.8843 0.0
H1953 H 0.55873 0.09921 0.90901 0.0
H1954 H 0.59247 0.15322 0.88015 0.0
H1955 H 0.53023 0.10902 0.86684 0.0
H1956 H 0.49654 0.09136 0.87054 0.0
H1957 H 0.49436 0.14089 0.86951 0.0
H1958 H 0.52809 0.15888 0.86603 0.0
H1959 H 0.61379 0.19105 0.80338 0.0
H1960 H 0.60119 0.16945 0.82516 0.0
H1961 H 0.5708 0.19505 0.84123 0.0
H1962 H 0.58251 0.21606 0.81894 0.0
H1963 H 0.55004 0.1593 0.84334 0.0
H1964 H 0.61197 0.20369 0.85876 0.0
H1965 H 0.64574 0.22193 0.85574 0.0
H1966 H 0.64858 0.17277 0.85352 0.0
H1967 H 0.61478 0.15423 0.85633 0.0
C1968 C 0.54182 0.12792 0.91475 0.0
C1969 C 0.54577 0.114 0.9181 0.0
C1970 C 0.54761 0.13759 0.90062 0.0
C1971 C 0.55746 0.13356 0.88949 0.0
C1972 C 0.56145 0.11969 0.89274 0.0
C1973 C 0.5556 0.10994 0.90688 0.0
C1974 C 0.56414 0.14437 0.87477 0.0
C1975 C 0.58318 0.1543 0.87193 0.0
C1976 C 0.55203 0.1461 0.86429 0.0
C1977 C 0.53172 0.13531 0.8663 0.0
C1978 C 0.52259 0.11616 0.86752 0.0
C1979 C 0.50348 0.10609 0.86956 0.0
C1980 C 0.49332 0.115 0.87029 0.0
C1981 C 0.50225 0.13401 0.86895 0.0
C1982 C 0.52136 0.14415 0.86693 0.0
C1983 C 0.6042 0.19194 0.81138 0.0
C1984 C 0.59922 0.20538 0.80939 0.0
C1985 C 0.59717 0.17969 0.82396 0.0
C1986 C 0.58528 0.1808 0.835 0.0
C1987 C 0.58003 0.19398 0.83291 0.0
C1988 C 0.58691 0.20613 0.82025 0.0
C1989 C 0.57841 0.16836 0.8488 0.0
C1990 C 0.55934 0.15812 0.85148 0.0
C1991 C 0.5905 0.16644 0.8592 0.0
C1992 C 0.61083 0.17757 0.85759 0.0
C1993 C 0.61978 0.19677 0.85752 0.0
C1994 C 0.63893 0.20716 0.85586 0.0
C1995 C 0.64929 0.19851 0.85439 0.0
C1996 C 0.64053 0.17945 0.85463 0.0
C1997 C 0.62138 0.16899 0.85627 0.0
H1998 H 0.66411 0.20658 0.85311 0.0
H1999 H 0.47852 0.10718 0.87187 0.0
H2000 H 0.47111 0.57051 0.09135 0.0
H2001 H 0.46541 0.58242 0.06723 0.0
H2002 H 0.41252 0.53322 0.06221 0.0
H2003 H 0.4187 0.52061 0.08563 0.0
H2004 H 0.42674 0.54359 0.03459 0.0
H2005 H 0.41828 0.57424 0.07896 0.0
H2006 H 0.42721 0.59241 0.10356 0.0
H2007 H 0.47222 0.63723 0.07948 0.0
H2008 H 0.4637 0.61922 0.05479 0.0
H2009 H 0.3823 0.57961 0.98729 0.0
H2010 H 0.39121 0.567 0.0093 0.0
H2011 H 0.44684 0.61257 0.00676 0.0
H2012 H 0.43801 0.62525 0.98478 0.0
H2013 H 0.43227 0.60466 0.03757 0.0
H2014 H 0.43881 0.57341 0.99264 0.0
H2015 H 0.42842 0.55481 0.96832 0.0
H2016 H 0.38484 0.51049 0.99404 0.0
H2017 H 0.39481 0.52893 0.01849 0.0
C2018 C 0.45845 0.56199 0.08494 0.0
C2019 C 0.44528 0.54463 0.09061 0.0
C2020 C 0.45508 0.56897 0.07124 0.0
C2021 C 0.43831 0.55895 0.06311 0.0
C2022 C 0.42549 0.54132 0.06834 0.0
C2023 C 0.42897 0.5342 0.08188 0.0
C2024 C 0.43383 0.56696 0.04944 0.0
C2025 C 0.42777 0.55686 0.03533 0.0
C2026 C 0.43542 0.58442 0.05026 0.0
C2027 C 0.44047 0.59531 0.06507 0.0
C2028 C 0.43016 0.58793 0.07894 0.0
C2029 C 0.43513 0.5982 0.0929 0.0
C2030 C 0.45031 0.61594 0.09309 0.0
C2031 C 0.46049 0.62347 0.07932 0.0
C2032 C 0.45559 0.61324 0.06534 0.0
C2033 C 0.3964 0.58695 0.99147 0.0
C2034 C 0.40948 0.60338 0.98431 0.0
C2035 C 0.4015 0.57969 0.00396 0.0
C2036 C 0.41971 0.58881 0.00956 0.0
C2037 C 0.43273 0.60532 0.00256 0.0
C2038 C 0.4277 0.61247 0.98997 0.0
C2039 C 0.42512 0.58123 0.02287 0.0
C2040 C 0.43132 0.59142 0.03688 0.0
C2041 C 0.42341 0.56377 0.02203 0.0
C2042 C 0.41745 0.55262 0.00736 0.0
C2043 C 0.42691 0.55976 0.99309 0.0
C2044 C 0.42112 0.54923 0.97928 0.0
C2045 C 0.40595 0.5315 0.97963 0.0
C2046 C 0.39657 0.52423 0.99379 0.0
C2047 C 0.4023 0.53471 0.00763 0.0
H2048 H 0.40148 0.52337 0.96893 0.0
H2049 H 0.45416 0.62388 0.1039 0.0
H2050 H 0.8835 0.4268 0.26822 0.0
H2051 H 0.86596 0.41902 0.24368 0.0
H2052 H 0.91556 0.45521 0.21804 0.0
H2053 H 0.93321 0.46326 0.24273 0.0
H2054 H 0.88797 0.45927 0.20827 0.0
H2055 H 0.89646 0.40841 0.21618 0.0
H2056 H 0.89615 0.38314 0.23074 0.0
H2057 H 0.83746 0.35725 0.23629 0.0
H2058 H 0.83744 0.3825 0.22196 0.0
H2059 H 0.84424 0.42296 0.13365 0.0
H2060 H 0.86511 0.43084 0.15628 0.0
H2061 H 0.81838 0.40248 0.18732 0.0
H2062 H 0.79747 0.39454 0.16477 0.0
H2063 H 0.84662 0.39449 0.19282 0.0
H2064 H 0.83922 0.44702 0.18593 0.0
H2065 H 0.84018 0.4723 0.17086 0.0
H2066 H 0.89809 0.49485 0.16254 0.0
H2067 H 0.89741 0.46952 0.17737 0.0
C2068 C 0.89072 0.43297 0.25733 0.0
C2069 C 0.90978 0.4455 0.25737 0.0
C2070 C 0.88067 0.42851 0.24331 0.0
C2071 C 0.88949 0.43626 0.22895 0.0
C2072 C 0.90848 0.449 0.22897 0.0
C2073 C 0.91854 0.4536 0.24306 0.0
C2074 C 0.87871 0.4312 0.21404 0.0
C2075 C 0.87919 0.44511 0.20475 0.0
C2076 C 0.86705 0.41271 0.20952 0.0
C2077 C 0.86698 0.39743 0.2181 0.0
C2078 C 0.8835 0.39739 0.2206 0.0
C2079 C 0.88338 0.38306 0.2288 0.0
C2080 C 0.8668 0.36862 0.23447 0.0
C2081 C 0.85029 0.36845 0.23191 0.0
C2082 C 0.85034 0.38277 0.22373 0.0
C2083 C 0.83845 0.4183 0.14529 0.0
C2084 C 0.81925 0.40819 0.14747 0.0
C2085 C 0.85036 0.42289 0.15819 0.0
C2086 C 0.84326 0.41733 0.17346 0.0
C2087 C 0.82411 0.40691 0.17562 0.0
C2088 C 0.8122 0.40249 0.16277 0.0
C2089 C 0.85573 0.42253 0.18727 0.0
C2090 C 0.85555 0.40863 0.19631 0.0
C2091 C 0.86779 0.44101 0.19146 0.0
C2092 C 0.86822 0.45627 0.1826 0.0
C2093 C 0.85212 0.45728 0.18076 0.0
C2094 C 0.85262 0.47163 0.17229 0.0
C2095 C 0.86917 0.48514 0.16571 0.0
C2096 C 0.88527 0.48435 0.16762 0.0
C2097 C 0.88484 0.47001 0.17607 0.0
H2098 H 0.86953 0.49625 0.15916 0.0
H2099 H 0.86674 0.35753 0.24081 0.0
loop_
_geom_bond_atom_site_label_1
_geom_bond_atom_site_label_2
_geom_bond_distance
_geom_bond_site_symmetry_2
_ccdc_geom_bond_type
H0 C27 0.929 . S
N1 C26 1.433 . S
N1 C32 1.435 . S
N1 C38 1.423 . S
H2 C28 0.930 . S
H3 C31 0.931 . S
H4 C30 0.929 . S
H5 C33 0.930 . S
H6 C34 0.932 . S
H7 C37 0.929 . S
H8 C36 0.931 . S
H9 C39 0.929 . S
H10 C43 0.932 . S
H11 C40 0.931 . S
H12 C42 0.929 . S
H13 C45 0.929 . S
H14 C46 0.930 . S
H15 C48 0.929 . S
H16 C49 0.931 . S
H17 C51 0.930 . S
H18 C52 0.932 . S
H19 C54 0.931 . S
H20 C55 0.929 . S
H21 C57 0.929 . S
H22 C58 0.931 1_455 S
H23 C60 0.929 . S
N24 C44 1.433 . S
N24 C50 1.435 . S
N24 C56 1.423 . S
H25 C61 0.932 . S
C26 N1 1.433 . S
C26 C27 1.363 . S
C26 C31 1.370 . S
C27 H0 0.929 . S
C27 C26 1.363 . S
C27 C28 1.385 . S
C28 H2 0.930 . S
C28 C27 1.385 . S
C28 C29 1.357 . S
C29 C28 1.357 . S
C29 C30 1.406 . S
C30 H4 0.929 . S
C30 C29 1.406 . S
C30 C31 1.391 . S
C31 H3 0.931 . S
C31 C26 1.370 . S
C31 C30 1.391 . S
C32 N1 1.435 . S
C32 C33 1.358 . S
C32 C37 1.371 . S
C33 H5 0.930 . S
C33 C32 1.358 . S
C33 C34 1.405 . S
C34 H6 0.932 . S
C34 C33 1.405 . S
C34 C35 1.383 . S
C35 C34 1.383 . S
C35 C36 1.393 . S
C36 H8 0.931 . S
C36 C35 1.393 . S
C36 C37 1.382 . S
C37 H7 0.929 . S
C37 C32 1.371 . S
C37 C36 1.382 . S
C38 N1 1.423 . S
C38 C39 1.362 . S
C38 C43 1.388 . S
C39 H9 0.929 . S
C39 C38 1.362 . S
C39 C40 1.376 . S
C40 H11 0.931 . S
C40 C39 1.376 . S
C40 C41 1.396 . S
C41 C40 1.396 . S
C41 C42 1.348 . S
C41 C59 1.472 . S
C42 H12 0.929 . S
C42 C41 1.348 . S
C42 C43 1.443 . S
C43 H10 0.932 . S
C43 C38 1.388 . S
C43 C42 1.443 . S
C44 N24 1.433 . S
C44 C45 1.363 . S
C44 C49 1.370 . S
C45 H13 0.929 . S
C45 C44 1.363 . S
C45 C46 1.385 . S
C46 H14 0.930 . S
C46 C45 1.385 . S
C46 C47 1.357 . S
C47 C46 1.357 . S
C47 C48 1.406 . S
C48 H15 0.929 . S
C48 C47 1.406 . S
C48 C49 1.391 . S
C49 H16 0.931 . S
C49 C44 1.370 . S
C49 C48 1.391 . S
C50 N24 1.435 . S
C50 C51 1.358 . S
C50 C55 1.371 . S
C51 H17 0.930 . S
C51 C50 1.358 . S
C51 C52 1.405 . S
C52 H18 0.932 . S
C52 C51 1.405 . S
C52 C53 1.383 . S
C53 C52 1.383 . S
C53 C54 1.393 . S
C54 H19 0.931 . S
C54 C53 1.393 . S
C54 C55 1.382 . S
C55 H20 0.929 . S
C55 C50 1.371 . S
C55 C54 1.382 . S
C56 N24 1.423 . S
C56 C57 1.362 . S
C56 C61 1.388 . S
C57 H21 0.929 . S
C57 C56 1.362 . S
C57 C58 1.376 . S
C58 H22 0.931 1_655 S
C58 C57 1.376 . S
C58 C59 1.396 1_655 S
C59 C41 1.472 . S
C59 C58 1.396 1_455 S
C59 C60 1.348 1_455 S
C60 H23 0.929 . S
C60 C59 1.348 1_655 S
C60 C61 1.443 . S
C61 H25 0.932 . S
C61 C56 1.388 . S
C61 C60 1.443 . S
H62 C89 0.929 . S
N63 C88 1.433 . S
N63 C94 1.435 . S
N63 C100 1.423 . S
H64 C90 0.930 . S
H65 C93 0.931 . S
H66 C92 0.929 . S
H67 C95 0.930 . S
H68 C96 0.932 . S
H69 C99 0.929 . S
H70 C98 0.931 . S
H71 C101 0.929 . S
H72 C105 0.932 . S
H73 C102 0.931 1_545 S
H74 C104 0.929 . S
H75 C107 0.929 . S
H76 C108 0.930 . S
H77 C110 0.929 . S
H78 C111 0.931 . S
H79 C113 0.930 . S
H80 C114 0.932 . S
H81 C116 0.931 . S
H82 C117 0.929 . S
H83 C119 0.929 . S
H84 C120 0.931 . S
H85 C122 0.929 . S
N86 C106 1.433 . S
N86 C112 1.435 . S
N86 C118 1.423 . S
H87 C123 0.932 . S
C88 N63 1.433 . S
C88 C89 1.363 . S
C88 C93 1.370 . S
C89 H62 0.929 . S
C89 C88 1.363 . S
C89 C90 1.385 . S
C90 H64 0.930 . S
C90 C89 1.385 . S
C90 C91 1.357 . S
C91 C90 1.357 . S
C91 C92 1.406 . S
C92 H66 0.929 . S
C92 C91 1.406 . S
C92 C93 1.391 . S
C93 H65 0.931 . S
C93 C88 1.370 . S
C93 C92 1.391 . S
C94 N63 1.435 . S
C94 C95 1.358 . S
C94 C99 1.371 . S
C95 H67 0.930 . S
C95 C94 1.358 . S
C95 C96 1.405 . S
C96 H68 0.932 . S
C96 C95 1.405 . S
C96 C97 1.383 . S
C97 C96 1.383 . S
C97 C98 1.393 . S
C98 H70 0.931 . S
C98 C97 1.393 . S
C98 C99 1.382 . S
C99 H69 0.929 . S
C99 C94 1.371 . S
C99 C98 1.382 . S
C100 N63 1.423 . S
C100 C101 1.362 . S
C100 C105 1.388 . S
C101 H71 0.929 . S
C101 C100 1.362 . S
C101 C102 1.376 . S
C102 H73 0.931 1_565 S
C102 C101 1.376 . S
C102 C103 1.396 1_565 S
C103 C102 1.396 1_545 S
C103 C104 1.348 . S
C103 C121 1.472 . S
C104 H74 0.929 . S
C104 C103 1.348 . S
C104 C105 1.443 1_545 S
C105 H72 0.932 . S
C105 C100 1.388 . S
C105 C104 1.443 1_565 S
C106 N86 1.433 . S
C106 C107 1.363 . S
C106 C111 1.370 . S
C107 H75 0.929 . S
C107 C106 1.363 . S
C107 C108 1.385 . S
C108 H76 0.930 . S
C108 C107 1.385 . S
C108 C109 1.357 . S
C109 C108 1.357 . S
C109 C110 1.406 . S
C110 H77 0.929 . S
C110 C109 1.406 . S
C110 C111 1.391 . S
C111 H78 0.931 . S
C111 C106 1.370 . S
C111 C110 1.391 . S
C112 N86 1.435 . S
C112 C113 1.358 . S
C112 C117 1.371 . S
C113 H79 0.930 . S
C113 C112 1.358 . S
C113 C114 1.405 . S
C114 H80 0.932 . S
C114 C113 1.405 . S
C114 C115 1.383 . S
C115 C114 1.383 . S
C115 C116 1.393 . S
C116 H81 0.931 . S
C116 C115 1.393 . S
C116 C117 1.382 . S
C117 H82 0.929 . S
C117 C112 1.371 . S
C117 C116 1.382 . S
C118 N86 1.423 . S
C118 C119 1.362 . S
C118 C123 1.388 . S
C119 H83 0.929 . S
C119 C118 1.362 . S
C119 C120 1.376 . S
C120 H84 0.931 . S
C120 C119 1.376 . S
C120 C121 1.396 . S
C121 C103 1.472 . S
C121 C120 1.396 . S
C121 C122 1.348 . S
C122 H85 0.929 . S
C122 C121 1.348 . S
C122 C123 1.443 . S
C123 H87 0.932 . S
C123 C118 1.388 . S
C123 C122 1.443 . S
H124 C151 0.929 . S
N125 C150 1.433 . S
N125 C156 1.435 . S
N125 C162 1.423 . S
H126 C152 0.930 . S
H127 C155 0.931 . S
H128 C154 0.929 . S
H129 C157 0.930 . S
H130 C158 0.932 . S
H131 C161 0.929 . S
H132 C160 0.931 . S
H133 C163 0.929 . S
H134 C167 0.932 . S
H135 C164 0.931 . S
H136 C166 0.929 . S
H137 C169 0.929 . S
H138 C170 0.930 . S
H139 C172 0.929 . S
H140 C173 0.931 . S
H141 C175 0.930 . S
H142 C176 0.932 . S
H143 C178 0.931 . S
H144 C179 0.929 . S
H145 C181 0.929 . S
H146 C182 0.931 . S
H147 C184 0.929 . S
N148 C168 1.433 . S
N148 C174 1.435 . S
N148 C180 1.423 . S
H149 C185 0.932 . S
C150 N125 1.433 . S
C150 C151 1.363 . S
C150 C155 1.370 . S
C151 H124 0.929 . S
C151 C150 1.363 . S
C151 C152 1.385 . S
C152 H126 0.930 . S
C152 C151 1.385 . S
C152 C153 1.357 . S
C153 C152 1.357 . S
C153 C154 1.406 . S
C154 H128 0.929 . S
C154 C153 1.406 . S
C154 C155 1.391 . S
C155 H127 0.931 . S
C155 C150 1.370 . S
C155 C154 1.391 . S
C156 N125 1.435 . S
C156 C157 1.358 . S
C156 C161 1.371 . S
C157 H129 0.930 . S
C157 C156 1.358 . S
C157 C158 1.405 . S
C158 H130 0.932 . S
C158 C157 1.405 . S
C158 C159 1.383 . S
C159 C158 1.383 . S
C159 C160 1.393 . S
C160 H132 0.931 . S
C160 C159 1.393 . S
C160 C161 1.382 . S
C161 H131 0.929 . S
C161 C156 1.371 . S
C161 C160 1.382 . S
C162 N125 1.423 . S
C162 C163 1.362 . S
C162 C167 1.388 . S
C163 H133 0.929 . S
C163 C162 1.362 . S
C163 C164 1.376 . S
C164 H135 0.931 . S
C164 C163 1.376 . S
C164 C165 1.396 . S
C165 C164 1.396 . S
C165 C166 1.348 . S
C165 C183 1.472 . S
C166 H136 0.929 . S
C166 C165 1.348 . S
C166 C167 1.443 . S
C167 H134 0.932 . S
C167 C162 1.388 . S
C167 C166 1.443 . S
C168 N148 1.433 . S
C168 C169 1.363 . S
C168 C173 1.370 . S
C169 H137 0.929 . S
C169 C168 1.363 . S
C169 C170 1.385 . S
C170 H138 0.930 . S
C170 C169 1.385 . S
C170 C171 1.357 . S
C171 C170 1.357 . S
C171 C172 1.406 . S
C172 H139 0.929 . S
C172 C171 1.406 . S
C172 C173 1.391 . S
C173 H140 0.931 . S
C173 C168 1.370 . S
C173 C172 1.391 . S
C174 N148 1.435 . S
C174 C175 1.358 . S
C174 C179 1.371 . S
C175 H141 0.930 . S
C175 C174 1.358 . S
C175 C176 1.405 . S
C176 H142 0.932 . S
C176 C175 1.405 . S
C176 C177 1.383 . S
C177 C176 1.383 . S
C177 C178 1.393 . S
C178 H143 0.931 . S
C178 C177 1.393 . S
C178 C179 1.382 . S
C179 H144 0.929 . S
C179 C174 1.371 . S
C179 C178 1.382 . S
C180 N148 1.423 . S
C180 C181 1.362 . S
C180 C185 1.388 . S
C181 H145 0.929 . S
C181 C180 1.362 . S
C181 C182 1.376 . S
C182 H146 0.931 . S
C182 C181 1.376 . S
C182 C183 1.396 . S
C183 C165 1.472 . S
C183 C182 1.396 . S
C183 C184 1.348 . S
C184 H147 0.929 . S
C184 C183 1.348 . S
C184 C185 1.443 . S
C185 H149 0.932 . S
C185 C180 1.388 . S
C185 C184 1.443 . S
H186 C213 0.929 . S
N187 C212 1.433 . S
N187 C218 1.435 . S
N187 C224 1.423 . S
H188 C214 0.930 . S
H189 C217 0.931 . S
H190 C216 0.929 . S
H191 C219 0.930 . S
H192 C220 0.932 . S
H193 C223 0.929 . S
H194 C222 0.931 . S
H195 C225 0.929 . S
H196 C229 0.932 . S
H197 C226 0.931 . S
H198 C228 0.929 . S
H199 C231 0.929 . S
H200 C232 0.930 . S
H201 C234 0.929 . S
H202 C235 0.931 . S
H203 C237 0.930 . S
H204 C238 0.932 . S
H205 C240 0.931 . S
H206 C241 0.929 . S
H207 C243 0.929 . S
H208 C244 0.931 1_455 S
H209 C246 0.929 . S
N210 C230 1.433 . S
N210 C236 1.435 . S
N210 C242 1.423 . S
H211 C247 0.932 . S
C212 N187 1.433 . S
C212 C213 1.363 . S
C212 C217 1.370 . S
C213 H186 0.929 . S
C213 C212 1.363 . S
C213 C214 1.385 . S
C214 H188 0.930 . S
C214 C213 1.385 . S
C214 C215 1.357 . S
C215 C214 1.357 . S
C215 C216 1.406 . S
C216 H190 0.929 . S
C216 C215 1.406 . S
C216 C217 1.391 . S
C217 H189 0.931 . S
C217 C212 1.370 . S
C217 C216 1.391 . S
C218 N187 1.435 . S
C218 C219 1.358 . S
C218 C223 1.371 . S
C219 H191 0.930 . S
C219 C218 1.358 . S
C219 C220 1.405 . S
C220 H192 0.932 . S
C220 C219 1.405 . S
C220 C221 1.383 . S
C221 C220 1.383 . S
C221 C222 1.393 . S
C222 H194 0.931 . S
C222 C221 1.393 . S
C222 C223 1.382 . S
C223 H193 0.929 . S
C223 C218 1.371 . S
C223 C222 1.382 . S
C224 N187 1.423 . S
C224 C225 1.362 . S
C224 C229 1.388 . S
C225 H195 0.929 . S
C225 C224 1.362 . S
C225 C226 1.376 . S
C226 H197 0.931 . S
C226 C225 1.376 . S
C226 C227 1.396 . S
C227 C226 1.396 . S
C227 C228 1.348 . S
C227 C245 1.472 . S
C228 H198 0.929 . S
C228 C227 1.348 . S
C228 C229 1.443 . S
C229 H196 0.932 . S
C229 C224 1.388 . S
C229 C228 1.443 . S
C230 N210 1.433 . S
C230 C231 1.363 . S
C230 C235 1.370 . S
C231 H199 0.929 . S
C231 C230 1.363 . S
C231 C232 1.385 . S
C232 H200 0.930 . S
C232 C231 1.385 . S
C232 C233 1.357 . S
C233 C232 1.357 . S
C233 C234 1.406 . S
C234 H201 0.929 . S
C234 C233 1.406 . S
C234 C235 1.391 . S
C235 H202 0.931 . S
C235 C230 1.370 . S
C235 C234 1.391 . S
C236 N210 1.435 . S
C236 C237 1.358 . S
C236 C241 1.371 . S
C237 H203 0.930 . S
C237 C236 1.358 . S
C237 C238 1.405 . S
C238 H204 0.932 . S
C238 C237 1.405 . S
C238 C239 1.383 . S
C239 C238 1.383 . S
C239 C240 1.393 . S
C240 H205 0.931 . S
C240 C239 1.393 . S
C240 C241 1.382 . S
C241 H206 0.929 . S
C241 C236 1.371 . S
C241 C240 1.382 . S
C242 N210 1.423 . S
C242 C243 1.362 . S
C242 C247 1.388 . S
C243 H207 0.929 . S
C243 C242 1.362 . S
C243 C244 1.376 . S
C244 H208 0.931 1_655 S
C244 C243 1.376 . S
C244 C245 1.396 1_655 S
C245 C227 1.472 . S
C245 C244 1.396 1_455 S
C245 C246 1.348 1_455 S
C246 H209 0.929 . S
C246 C245 1.348 1_655 S
C246 C247 1.443 . S
C247 H211 0.932 . S
C247 C242 1.388 . S
C247 C246 1.443 . S
H248 C275 0.929 . S
N249 C274 1.433 . S
N249 C280 1.435 . S
N249 C286 1.423 . S
H250 C276 0.930 . S
H251 C279 0.931 . S
H252 C278 0.929 . S
H253 C281 0.930 . S
H254 C282 0.932 . S
H255 C285 0.929 . S
H256 C284 0.931 . S
H257 C287 0.929 . S
H258 C291 0.932 . S
H259 C288 0.931 . S
H260 C290 0.929 . S
H261 C293 0.929 . S
H262 C294 0.930 . S
H263 C296 0.929 . S
H264 C297 0.931 . S
H265 C299 0.930 . S
H266 C300 0.932 . S
H267 C302 0.931 . S
H268 C303 0.929 . S
H269 C305 0.929 . S
H270 C306 0.931 1_545 S
H271 C308 0.929 . S
N272 C292 1.433 . S
N272 C298 1.435 1_554 S
N272 C304 1.442 . S
H273 C309 0.932 . S
C274 N249 1.433 . S
C274 C275 1.363 . S
C274 C279 1.370 . S
C275 H248 0.929 . S
C275 C274 1.363 . S
C275 C276 1.385 . S
C276 H250 0.930 . S
C276 C275 1.385 . S
C276 C277 1.357 1_556 S
C277 C276 1.357 1_554 S
C277 C278 1.406 . S
C278 H252 0.929 . S
C278 C277 1.406 . S
C278 C279 1.391 1_554 S
C279 H251 0.931 . S
C279 C274 1.370 . S
C279 C278 1.391 1_556 S
C280 N249 1.435 . S
C280 C281 1.358 . S
C280 C285 1.371 . S
C281 H253 0.930 . S
C281 C280 1.358 . S
C281 C282 1.405 . S
C282 H254 0.932 . S
C282 C281 1.405 . S
C282 C283 1.383 . S
C283 C282 1.383 . S
C283 C284 1.393 . S
C284 H256 0.931 . S
C284 C283 1.393 . S
C284 C285 1.382 . S
C285 H255 0.929 . S
C285 C280 1.371 . S
C285 C284 1.382 . S
C286 N249 1.423 . S
C286 C287 1.362 . S
C286 C291 1.388 . S
C287 H257 0.929 . S
C287 C286 1.362 . S
C287 C288 1.376 . S
C288 H259 0.931 . S
C288 C287 1.376 . S
C288 C289 1.396 . S
C289 C288 1.396 . S
C289 C290 1.348 . S
C289 C307 1.472 . S
C290 H260 0.929 . S
C290 C289 1.348 . S
C290 C291 1.443 . S
C291 H258 0.932 . S
C291 C286 1.388 . S
C291 C290 1.443 . S
C292 N272 1.433 . S
C292 C293 1.363 . S
C292 C297 1.370 . S
C293 H261 0.929 . S
C293 C292 1.363 . S
C293 C294 1.385 . S
C294 H262 0.930 . S
C294 C293 1.385 . S
C294 C295 1.357 . S
C295 C294 1.357 . S
C295 C296 1.406 . S
C296 H263 0.929 . S
C296 C295 1.406 . S
C296 C297 1.391 . S
C297 H264 0.931 . S
C297 C292 1.370 . S
C297 C296 1.391 . S
C298 N272 1.435 1_556 S
C298 C299 1.358 1_556 S
C298 C303 1.371 . S
C299 H265 0.930 . S
C299 C298 1.358 1_554 S
C299 C300 1.405 1_554 S
C300 H266 0.932 . S
C300 C299 1.405 1_556 S
C300 C301 1.383 . S
C301 C300 1.383 . S
C301 C302 1.393 . S
C302 H267 0.931 . S
C302 C301 1.393 . S
C302 C303 1.382 . S
C303 H268 0.929 . S
C303 C298 1.371 . S
C303 C302 1.382 . S
C304 N272 1.442 . S
C304 C305 1.382 . S
C304 C309 1.352 1_554 S
C305 H269 0.929 . S
C305 C304 1.382 . S
C305 C306 1.376 . S
C306 H270 0.931 1_565 S
C306 C305 1.376 . S
C306 C307 1.396 1_564 S
C307 C289 1.472 . S
C307 C306 1.396 1_546 S
C307 C308 1.348 1_545 S
C308 H271 0.929 . S
C308 C307 1.348 1_565 S
C308 C309 1.443 . S
C309 H273 0.932 . S
C309 C304 1.352 1_556 S
C309 C308 1.443 . S
H310 C337 0.929 . S
N311 C336 1.433 . S
N311 C342 1.435 . S
N311 C348 1.423 . S
H312 C338 0.930 . S
H313 C341 0.931 . S
H314 C340 0.929 . S
H315 C343 0.930 . S
H316 C344 0.932 . S
H317 C347 0.929 . S
H318 C346 0.931 . S
H319 C349 0.929 . S
H320 C353 0.932 . S
H321 C350 0.931 . S
H322 C352 0.929 . S
H323 C355 0.929 . S
H324 C356 0.930 . S
H325 C358 0.929 . S
H326 C359 0.931 . S
H327 C361 0.930 . S
H328 C362 0.932 . S
H329 C364 0.931 . S
H330 C365 0.929 . S
H331 C367 0.929 . S
H332 C368 0.931 . S
H333 C370 0.929 . S
N334 C354 1.433 . S
N334 C360 1.435 . S
N334 C366 1.423 . S
H335 C371 0.932 . S
C336 N311 1.433 . S
C336 C337 1.363 . S
C336 C341 1.370 . S
C337 H310 0.929 . S
C337 C336 1.363 . S
C337 C338 1.385 . S
C338 H312 0.930 . S
C338 C337 1.385 . S
C338 C339 1.357 . S
C339 C338 1.357 . S
C339 C340 1.406 . S
C340 H314 0.929 . S
C340 C339 1.406 . S
C340 C341 1.391 . S
C341 H313 0.931 . S
C341 C336 1.370 . S
C341 C340 1.391 . S
C342 N311 1.435 . S
C342 C343 1.358 . S
C342 C347 1.371 . S
C343 H315 0.930 . S
C343 C342 1.358 . S
C343 C344 1.405 . S
C344 H316 0.932 . S
C344 C343 1.405 . S
C344 C345 1.383 . S
C345 C344 1.383 . S
C345 C346 1.393 . S
C346 H318 0.931 . S
C346 C345 1.393 . S
C346 C347 1.382 . S
C347 H317 0.929 . S
C347 C342 1.371 . S
C347 C346 1.382 . S
C348 N311 1.423 . S
C348 C349 1.362 . S
C348 C353 1.388 . S
C349 H319 0.929 . S
C349 C348 1.362 . S
C349 C350 1.376 . S
C350 H321 0.931 . S
C350 C349 1.376 . S
C350 C351 1.396 . S
C351 C350 1.396 . S
C351 C352 1.348 . S
C351 C369 1.472 . S
C352 H322 0.929 . S
C352 C351 1.348 . S
C352 C353 1.443 . S
C353 H320 0.932 . S
C353 C348 1.388 . S
C353 C352 1.443 . S
C354 N334 1.433 . S
C354 C355 1.363 . S
C354 C359 1.370 . S
C355 H323 0.929 . S
C355 C354 1.363 . S
C355 C356 1.385 . S
C356 H324 0.930 . S
C356 C355 1.385 . S
C356 C357 1.357 . S
C357 C356 1.357 . S
C357 C358 1.406 . S
C358 H325 0.929 . S
C358 C357 1.406 . S
C358 C359 1.391 . S
C359 H326 0.931 . S
C359 C354 1.370 . S
C359 C358 1.391 . S
C360 N334 1.435 . S
C360 C361 1.358 . S
C360 C365 1.371 . S
C361 H327 0.930 . S
C361 C360 1.358 . S
C361 C362 1.405 . S
C362 H328 0.932 . S
C362 C361 1.405 . S
C362 C363 1.383 . S
C363 C362 1.383 . S
C363 C364 1.393 . S
C364 H329 0.931 . S
C364 C363 1.393 . S
C364 C365 1.382 . S
C365 H330 0.929 . S
C365 C360 1.371 . S
C365 C364 1.382 . S
C366 N334 1.423 . S
C366 C367 1.362 . S
C366 C371 1.388 . S
C367 H331 0.929 . S
C367 C366 1.362 . S
C367 C368 1.376 . S
C368 H332 0.931 . S
C368 C367 1.376 . S
C368 C369 1.396 . S
C369 C351 1.472 . S
C369 C368 1.396 . S
C369 C370 1.348 . S
C370 H333 0.929 . S
C370 C369 1.348 . S
C370 C371 1.443 . S
C371 H335 0.932 . S
C371 C366 1.388 . S
C371 C370 1.443 . S
Li372 N389 1.990 . S
Li372 O432 1.956 . S
Li372 O433 1.970 . S
Li372 O434 1.961 . S
Li373 N397 1.990 . S
Li373 O432 1.970 . S
Li373 O433 1.956 . S
Li373 O435 1.961 . S
Li374 N419 1.990 . S
Li374 O432 1.961 . S
Li374 O434 1.956 . S
Li374 O435 1.970 . S
Li375 N425 1.990 . S
Li375 O433 1.961 . S
Li375 O434 1.970 . S
Li375 O435 1.956 . S
C376 C378 1.348 . S
C376 C379 1.356 . S
C376 O432 1.325 . S
N377 C380 1.314 . S
N377 C381 1.279 . S
C378 C376 1.348 . S
C378 C380 1.353 . S
C378 H436 0.929 . S
C379 C376 1.356 . S
C379 C381 1.358 . S
C379 H437 0.930 . S
C380 N377 1.314 . S
C380 C378 1.353 . S
C380 H438 0.930 . S
C381 N377 1.279 . S
C381 C379 1.358 . S
C381 H439 0.930 . S
C382 C385 1.348 . S
C382 C386 1.356 . S
C382 O433 1.325 . S
C383 N384 1.279 . S
C383 C386 1.358 . S
C383 H440 0.930 . S
N384 C383 1.279 . S
N384 C387 1.314 . S
C385 C382 1.348 . S
C385 C387 1.353 . S
C385 H441 0.929 . S
C386 C382 1.356 . S
C386 C383 1.358 . S
C386 H442 0.930 . S
C387 N384 1.314 . S
C387 C385 1.353 . S
C387 H443 0.930 . S
C388 N389 1.314 . S
C388 C393 1.353 . S
C388 H394 0.930 . S
N389 Li372 1.990 . S
N389 C388 1.314 . S
N389 C391 1.279 . S
C390 C391 1.358 . S
C390 C392 1.356 . S
C390 H444 0.930 . S
C391 N389 1.279 . S
C391 C390 1.358 . S
C391 H395 0.930 . S
C392 C390 1.356 . S
C392 C393 1.348 . S
C393 C388 1.353 . S
C393 C392 1.348 . S
C393 H445 0.929 . S
H394 C388 0.930 . S
H395 C391 0.930 . S
C396 N397 1.314 . S
C396 C398 1.353 . S
C396 H402 0.930 . S
N397 Li373 1.990 . S
N397 C396 1.314 . S
N397 C400 1.279 . S
C398 C396 1.353 . S
C398 C401 1.348 . S
C398 H446 0.929 . S
C399 C400 1.358 . S
C399 C401 1.356 . S
C399 H447 0.930 . S
C400 N397 1.279 . S
C400 C399 1.358 . S
C400 H403 0.930 . S
C401 C398 1.348 . S
C401 C399 1.356 . S
H402 C396 0.930 . S
H403 C400 0.930 . S
C404 C406 1.348 . S
C404 C407 1.356 . S
C404 O434 1.325 . S
N405 C408 1.314 . S
N405 C409 1.279 . S
C406 C404 1.348 . S
C406 C408 1.353 . S
C406 H448 0.929 . S
C407 C404 1.356 . S
C407 C409 1.358 . S
C407 H449 0.930 . S
C408 N405 1.314 . S
C408 C406 1.353 . S
C408 H450 0.930 . S
C409 N405 1.279 . S
C409 C407 1.358 . S
C409 H451 0.930 . S
C410 C411 1.348 . S
C410 C412 1.356 . S
C410 O435 1.325 . S
C411 C410 1.348 . S
C411 C413 1.353 . S
C411 H452 0.929 . S
C412 C410 1.356 . S
C412 C414 1.358 . S
C412 H453 0.930 . S
C413 C411 1.353 . S
C413 N415 1.314 . S
C413 H454 0.930 . S
C414 C412 1.358 . S
C414 N415 1.279 . S
C414 H455 0.930 . S
N415 C413 1.314 . S
N415 C414 1.279 . S
C416 C418 1.353 . S
C416 N419 1.314 . S
C416 H422 0.930 . S
C417 N419 1.279 . S
C417 C420 1.358 . S
C417 H423 0.930 . S
C418 C416 1.353 . S
C418 C421 1.348 . S
C418 H456 0.929 . S
N419 Li374 1.990 . S
N419 C416 1.314 . S
N419 C417 1.279 . S
C420 C417 1.358 . S
C420 C421 1.356 . S
C420 H457 0.930 . S
C421 C418 1.348 . S
C421 C420 1.356 . S
H422 C416 0.930 . S
H423 C417 0.930 . S
C424 N425 1.314 . S
C424 C426 1.353 . S
C424 H430 0.930 . S
N425 Li375 1.990 . S
N425 C424 1.314 . S
N425 C428 1.279 . S
C426 C424 1.353 . S
C426 C429 1.348 . S
C426 H458 0.929 . S
C427 C428 1.358 . S
C427 C429 1.356 . S
C427 H459 0.930 . S
C428 N425 1.279 . S
C428 C427 1.358 . S
C428 H431 0.930 . S
C429 C426 1.348 . S
C429 C427 1.356 . S
H430 C424 0.930 . S
H431 C428 0.930 . S
O432 Li372 1.956 . S
O432 Li373 1.970 . S
O432 Li374 1.961 . S
O432 C376 1.325 . S
O433 Li372 1.970 . S
O433 Li373 1.956 . S
O433 Li375 1.961 . S
O433 C382 1.325 . S
O434 Li372 1.961 . S
O434 Li374 1.956 . S
O434 Li375 1.970 . S
O434 C404 1.325 . S
O435 Li373 1.961 . S
O435 Li374 1.970 . S
O435 Li375 1.956 . S
O435 C410 1.325 . S
H436 C378 0.929 . S
H437 C379 0.930 . S
H438 C380 0.930 . S
H439 C381 0.930 . S
H440 C383 0.930 . S
H441 C385 0.929 . S
H442 C386 0.930 . S
H443 C387 0.930 . S
H444 C390 0.930 . S
H445 C393 0.929 . S
H446 C398 0.929 . S
H447 C399 0.930 . S
H448 C406 0.929 . S
H449 C407 0.930 . S
H450 C408 0.930 . S
H451 C409 0.930 . S
H452 C411 0.929 . S
H453 C412 0.930 . S
H454 C413 0.930 . S
H455 C414 0.930 . S
H456 C418 0.929 . S
H457 C420 0.930 . S
H458 C426 0.929 . S
H459 C427 0.930 . S
Li460 N477 1.990 . S
Li460 O520 1.956 . S
Li460 O521 1.970 . S
Li460 O522 1.961 . S
Li461 N485 1.990 . S
Li461 O520 1.970 . S
Li461 O521 1.956 . S
Li461 O523 1.961 . S
Li462 N507 1.990 . S
Li462 O520 1.961 . S
Li462 O522 1.956 . S
Li462 O523 1.970 . S
Li463 N513 1.990 . S
Li463 O521 1.961 . S
Li463 O522 1.970 . S
Li463 O523 1.956 . S
C464 C466 1.348 . S
C464 C467 1.356 . S
C464 O520 1.325 . S
N465 C468 1.314 . S
N465 C469 1.279 . S
C466 C464 1.348 . S
C466 C468 1.353 . S
C466 H524 0.929 . S
C467 C464 1.356 . S
C467 C469 1.358 . S
C467 H525 0.930 . S
C468 N465 1.314 . S
C468 C466 1.353 . S
C468 H526 0.930 . S
C469 N465 1.279 . S
C469 C467 1.358 . S
C469 H527 0.930 . S
C470 C473 1.348 . S
C470 C474 1.356 . S
C470 O521 1.325 . S
C471 N472 1.279 . S
C471 C474 1.358 . S
C471 H528 0.930 . S
N472 C471 1.279 . S
N472 C475 1.314 . S
C473 C470 1.348 . S
C473 C475 1.353 . S
C473 H529 0.929 . S
C474 C470 1.356 . S
C474 C471 1.358 . S
C474 H530 0.930 . S
C475 N472 1.314 . S
C475 C473 1.353 . S
C475 H531 0.930 . S
C476 N477 1.314 . S
C476 C481 1.353 . S
C476 H482 0.930 . S
N477 Li460 1.990 . S
N477 C476 1.314 . S
N477 C479 1.279 . S
C478 C479 1.358 . S
C478 C480 1.356 . S
C478 H532 0.930 . S
C479 N477 1.279 . S
C479 C478 1.358 . S
C479 H483 0.930 . S
C480 C478 1.356 . S
C480 C481 1.348 . S
C481 C476 1.353 . S
C481 C480 1.348 . S
C481 H533 0.929 . S
H482 C476 0.930 . S
H483 C479 0.930 . S
C484 N485 1.314 . S
C484 C486 1.353 . S
C484 H490 0.930 . S
N485 Li461 1.990 . S
N485 C484 1.314 . S
N485 C488 1.279 . S
C486 C484 1.353 . S
C486 C489 1.348 . S
C486 H534 0.929 . S
C487 C488 1.358 . S
C487 C489 1.356 . S
C487 H535 0.930 . S
C488 N485 1.279 . S
C488 C487 1.358 . S
C488 H491 0.930 . S
C489 C486 1.348 . S
C489 C487 1.356 . S
H490 C484 0.930 . S
H491 C488 0.930 . S
C492 C494 1.348 . S
C492 C495 1.356 . S
C492 O522 1.325 . S
N493 C496 1.314 . S
N493 C497 1.279 . S
C494 C492 1.348 . S
C494 C496 1.353 . S
C494 H536 0.929 . S
C495 C492 1.356 . S
C495 C497 1.358 . S
C495 H537 0.930 . S
C496 N493 1.314 . S
C496 C494 1.353 . S
C496 H538 0.930 . S
C497 N493 1.279 . S
C497 C495 1.358 . S
C497 H539 0.930 . S
C498 C499 1.348 . S
C498 C500 1.356 . S
C498 O523 1.325 . S
C499 C498 1.348 . S
C499 C501 1.353 . S
C499 H540 0.929 . S
C500 C498 1.356 . S
C500 C502 1.358 . S
C500 H541 0.930 . S
C501 C499 1.353 . S
C501 N503 1.314 . S
C501 H542 0.930 . S
C502 C500 1.358 . S
C502 N503 1.279 . S
C502 H543 0.930 . S
N503 C501 1.314 . S
N503 C502 1.279 . S
C504 C506 1.353 . S
C504 N507 1.314 . S
C504 H510 0.930 . S
C505 N507 1.279 . S
C505 C508 1.358 . S
C505 H511 0.930 . S
C506 C504 1.353 . S
C506 C509 1.348 . S
C506 H544 0.929 . S
N507 Li462 1.990 . S
N507 C504 1.314 . S
N507 C505 1.279 . S
C508 C505 1.358 . S
C508 C509 1.356 . S
C508 H545 0.930 . S
C509 C506 1.348 . S
C509 C508 1.356 . S
H510 C504 0.930 . S
H511 C505 0.930 . S
C512 N513 1.314 . S
C512 C514 1.353 . S
C512 H518 0.930 . S
N513 Li463 1.990 . S
N513 C512 1.314 . S
N513 C516 1.279 . S
C514 C512 1.353 . S
C514 C517 1.348 . S
C514 H546 0.929 . S
C515 C516 1.358 . S
C515 C517 1.356 . S
C515 H547 0.930 . S
C516 N513 1.279 . S
C516 C515 1.358 . S
C516 H519 0.930 . S
C517 C514 1.348 . S
C517 C515 1.356 . S
H518 C512 0.930 . S
H519 C516 0.930 . S
O520 Li460 1.956 . S
O520 Li461 1.970 . S
O520 Li462 1.961 . S
O520 C464 1.325 . S
O521 Li460 1.970 . S
O521 Li461 1.956 . S
O521 Li463 1.961 . S
O521 C470 1.325 . S
O522 Li460 1.961 . S
O522 Li462 1.956 . S
O522 Li463 1.970 . S
O522 C492 1.325 . S
O523 Li461 1.961 . S
O523 Li462 1.970 . S
O523 Li463 1.956 . S
O523 C498 1.325 . S
H524 C466 0.929 . S
H525 C467 0.930 . S
H526 C468 0.930 . S
H527 C469 0.930 . S
H528 C471 0.930 . S
H529 C473 0.929 . S
H530 C474 0.930 . S
H531 C475 0.930 . S
H532 C478 0.930 . S
H533 C481 0.929 . S
H534 C486 0.929 . S
H535 C487 0.930 . S
H536 C494 0.929 . S
H537 C495 0.930 . S
H538 C496 0.930 . S
H539 C497 0.930 . S
H540 C499 0.929 . S
H541 C500 0.930 . S
H542 C501 0.930 . S
H543 C502 0.930 . S
H544 C506 0.929 . S
H545 C508 0.930 . S
H546 C514 0.929 . S
H547 C515 0.930 . S
Li548 N565 1.990 . S
Li548 O608 1.956 . S
Li548 O609 1.970 . S
Li548 O610 1.961 . S
Li549 N573 1.990 . S
Li549 O608 1.970 . S
Li549 O609 1.956 . S
Li549 O611 1.961 . S
Li550 N595 1.990 . S
Li550 O608 1.961 . S
Li550 O610 1.956 . S
Li550 O611 1.970 . S
Li551 N601 1.990 . S
Li551 O609 1.961 . S
Li551 O610 1.970 . S
Li551 O611 1.956 . S
C552 C554 1.348 . S
C552 C555 1.356 . S
C552 O608 1.325 . S
N553 C556 1.314 . S
N553 C557 1.279 . S
C554 C552 1.348 . S
C554 C556 1.353 . S
C554 H612 0.929 . S
C555 C552 1.356 . S
C555 C557 1.358 . S
C555 H613 0.930 . S
C556 N553 1.314 . S
C556 C554 1.353 . S
C556 H614 0.930 . S
C557 N553 1.279 . S
C557 C555 1.358 . S
C557 H615 0.930 . S
C558 C561 1.348 . S
C558 C562 1.356 . S
C558 O609 1.325 . S
C559 N560 1.279 . S
C559 C562 1.358 . S
C559 H616 0.930 . S
N560 C559 1.279 . S
N560 C563 1.314 . S
C561 C558 1.348 . S
C561 C563 1.353 . S
C561 H617 0.929 . S
C562 C558 1.356 . S
C562 C559 1.358 . S
C562 H618 0.930 . S
C563 N560 1.314 . S
C563 C561 1.353 . S
C563 H619 0.930 . S
C564 N565 1.314 . S
C564 C569 1.353 . S
C564 H570 0.930 . S
N565 Li548 1.990 . S
N565 C564 1.314 . S
N565 C567 1.279 . S
C566 C567 1.358 . S
C566 C568 1.356 . S
C566 H620 0.930 . S
C567 N565 1.279 . S
C567 C566 1.358 . S
C567 H571 0.930 . S
C568 C566 1.356 . S
C568 C569 1.348 . S
C569 C564 1.353 . S
C569 C568 1.348 . S
C569 H621 0.929 . S
H570 C564 0.930 . S
H571 C567 0.930 . S
C572 N573 1.314 . S
C572 C574 1.353 . S
C572 H578 0.930 . S
N573 Li549 1.990 . S
N573 C572 1.314 . S
N573 C576 1.279 . S
C574 C572 1.353 . S
C574 C577 1.348 . S
C574 H622 0.929 . S
C575 C576 1.358 . S
C575 C577 1.356 . S
C575 H623 0.930 . S
C576 N573 1.279 . S
C576 C575 1.358 . S
C576 H579 0.930 . S
C577 C574 1.348 . S
C577 C575 1.356 . S
H578 C572 0.930 . S
H579 C576 0.930 . S
C580 C582 1.348 . S
C580 C583 1.356 . S
C580 O610 1.325 . S
N581 C584 1.314 . S
N581 C585 1.279 . S
C582 C580 1.348 . S
C582 C584 1.353 . S
C582 H624 0.929 . S
C583 C580 1.356 . S
C583 C585 1.358 . S
C583 H625 0.930 . S
C584 N581 1.314 . S
C584 C582 1.353 . S
C584 H626 0.930 . S
C585 N581 1.279 . S
C585 C583 1.358 . S
C585 H627 0.930 . S
C586 C587 1.348 . S
C586 C588 1.356 . S
C586 O611 1.325 . S
C587 C586 1.348 . S
C587 C589 1.353 . S
C587 H628 0.929 . S
C588 C586 1.356 . S
C588 C590 1.358 . S
C588 H629 0.930 . S
C589 C587 1.353 . S
C589 N591 1.314 . S
C589 H630 0.930 . S
C590 C588 1.358 . S
C590 N591 1.279 . S
C590 H631 0.930 . S
N591 C589 1.314 . S
N591 C590 1.279 . S
C592 C594 1.353 . S
C592 N595 1.314 . S
C592 H598 0.930 . S
C593 N595 1.279 . S
C593 C596 1.358 . S
C593 H599 0.930 . S
C594 C592 1.353 . S
C594 C597 1.348 . S
C594 H632 0.929 . S
N595 Li550 1.990 . S
N595 C592 1.314 . S
N595 C593 1.279 . S
C596 C593 1.358 . S
C596 C597 1.356 . S
C596 H633 0.930 . S
C597 C594 1.348 . S
C597 C596 1.356 . S
H598 C592 0.930 . S
H599 C593 0.930 . S
C600 N601 1.314 . S
C600 C602 1.353 . S
C600 H606 0.930 . S
N601 Li551 1.990 . S
N601 C600 1.314 . S
N601 C604 1.279 . S
C602 C600 1.353 . S
C602 C605 1.348 . S
C602 H634 0.929 . S
C603 C604 1.358 . S
C603 C605 1.356 . S
C603 H635 0.930 . S
C604 N601 1.279 . S
C604 C603 1.358 . S
C604 H607 0.930 . S
C605 C602 1.348 . S
C605 C603 1.356 . S
H606 C600 0.930 . S
H607 C604 0.930 . S
O608 Li548 1.956 . S
O608 Li549 1.970 . S
O608 Li550 1.961 . S
O608 C552 1.325 . S
O609 Li548 1.970 . S
O609 Li549 1.956 . S
O609 Li551 1.961 . S
O609 C558 1.325 . S
O610 Li548 1.961 . S
O610 Li550 1.956 . S
O610 Li551 1.970 . S
O610 C580 1.325 . S
O611 Li549 1.961 . S
O611 Li550 1.970 . S
O611 Li551 1.956 . S
O611 C586 1.325 . S
H612 C554 0.929 . S
H613 C555 0.930 . S
H614 C556 0.930 . S
H615 C557 0.930 . S
H616 C559 0.930 . S
H617 C561 0.929 . S
H618 C562 0.930 . S
H619 C563 0.930 . S
H620 C566 0.930 . S
H621 C569 0.929 . S
H622 C574 0.929 . S
H623 C575 0.930 . S
H624 C582 0.929 . S
H625 C583 0.930 . S
H626 C584 0.930 . S
H627 C585 0.930 . S
H628 C587 0.929 . S
H629 C588 0.930 . S
H630 C589 0.930 . S
H631 C590 0.930 . S
H632 C594 0.929 . S
H633 C596 0.930 . S
H634 C602 0.929 . S
H635 C603 0.930 . S
Li636 N653 1.990 . S
Li636 O696 1.956 . S
Li636 O697 1.970 . S
Li636 O698 1.961 . S
Li637 N661 1.990 . S
Li637 O696 1.970 . S
Li637 O697 1.956 . S
Li637 O699 1.961 . S
Li638 N683 1.990 . S
Li638 O696 1.961 . S
Li638 O698 1.956 . S
Li638 O699 1.970 . S
Li639 N689 1.990 . S
Li639 O697 1.961 . S
Li639 O698 1.970 . S
Li639 O699 1.956 . S
C640 C642 1.348 . S
C640 C643 1.356 . S
C640 O696 1.325 . S
N641 C644 1.314 . S
N641 C645 1.279 . S
C642 C640 1.348 . S
C642 C644 1.353 . S
C642 H700 0.929 . S
C643 C640 1.356 . S
C643 C645 1.358 . S
C643 H701 0.930 . S
C644 N641 1.314 . S
C644 C642 1.353 . S
C644 H702 0.930 . S
C645 N641 1.279 . S
C645 C643 1.358 . S
C645 H703 0.930 . S
C646 C649 1.348 . S
C646 C650 1.356 . S
C646 O697 1.325 . S
C647 N648 1.279 . S
C647 C650 1.358 . S
C647 H704 0.930 . S
N648 C647 1.279 . S
N648 C651 1.314 . S
C649 C646 1.348 . S
C649 C651 1.353 . S
C649 H705 0.929 . S
C650 C646 1.356 . S
C650 C647 1.358 . S
C650 H706 0.930 . S
C651 N648 1.314 . S
C651 C649 1.353 . S
C651 H707 0.930 . S
C652 N653 1.314 . S
C652 C657 1.353 . S
C652 H658 0.930 . S
N653 Li636 1.990 . S
N653 C652 1.314 . S
N653 C655 1.279 . S
C654 C655 1.358 . S
C654 C656 1.356 . S
C654 H708 0.930 . S
C655 N653 1.279 . S
C655 C654 1.358 . S
C655 H659 0.930 . S
C656 C654 1.356 . S
C656 C657 1.348 . S
C657 C652 1.353 . S
C657 C656 1.348 . S
C657 H709 0.929 . S
H658 C652 0.930 . S
H659 C655 0.930 . S
C660 N661 1.314 . S
C660 C662 1.353 . S
C660 H666 0.930 . S
N661 Li637 1.990 . S
N661 C660 1.314 . S
N661 C664 1.279 . S
C662 C660 1.353 . S
C662 C665 1.348 . S
C662 H710 0.929 . S
C663 C664 1.358 . S
C663 C665 1.356 . S
C663 H711 0.930 . S
C664 N661 1.279 . S
C664 C663 1.358 . S
C664 H667 0.930 . S
C665 C662 1.348 . S
C665 C663 1.356 . S
H666 C660 0.930 . S
H667 C664 0.930 . S
C668 C670 1.348 . S
C668 C671 1.356 . S
C668 O698 1.325 . S
N669 C672 1.314 . S
N669 C673 1.279 . S
C670 C668 1.348 . S
C670 C672 1.353 . S
C670 H712 0.929 . S
C671 C668 1.356 . S
C671 C673 1.358 . S
C671 H713 0.930 . S
C672 N669 1.314 . S
C672 C670 1.353 . S
C672 H714 0.930 . S
C673 N669 1.279 . S
C673 C671 1.358 . S
C673 H715 0.930 . S
C674 C675 1.348 . S
C674 C676 1.356 . S
C674 O699 1.325 . S
C675 C674 1.348 . S
C675 C677 1.353 . S
C675 H716 0.929 . S
C676 C674 1.356 . S
C676 C678 1.358 . S
C676 H717 0.930 . S
C677 C675 1.353 . S
C677 N679 1.314 . S
C677 H718 0.930 . S
C678 C676 1.358 . S
C678 N679 1.279 . S
C678 H719 0.930 . S
N679 C677 1.314 . S
N679 C678 1.279 . S
C680 C682 1.353 . S
C680 N683 1.314 . S
C680 H686 0.930 . S
C681 N683 1.279 . S
C681 C684 1.358 . S
C681 H687 0.930 . S
C682 C680 1.353 . S
C682 C685 1.348 . S
C682 H720 0.929 . S
N683 Li638 1.990 . S
N683 C680 1.314 . S
N683 C681 1.279 . S
C684 C681 1.358 . S
C684 C685 1.356 . S
C684 H721 0.930 . S
C685 C682 1.348 . S
C685 C684 1.356 . S
H686 C680 0.930 . S
H687 C681 0.930 . S
C688 N689 1.314 . S
C688 C690 1.353 . S
C688 H694 0.930 . S
N689 Li639 1.990 . S
N689 C688 1.314 . S
N689 C692 1.279 . S
C690 C688 1.353 . S
C690 C693 1.348 . S
C690 H722 0.929 . S
C691 C692 1.358 . S
C691 C693 1.356 . S
C691 H723 0.930 . S
C692 N689 1.279 . S
C692 C691 1.358 . S
C692 H695 0.930 . S
C693 C690 1.348 . S
C693 C691 1.356 . S
H694 C688 0.930 . S
H695 C692 0.930 . S
O696 Li636 1.956 . S
O696 Li637 1.970 . S
O696 Li638 1.961 . S
O696 C640 1.325 . S
O697 Li636 1.970 . S
O697 Li637 1.956 . S
O697 Li639 1.961 . S
O697 C646 1.325 . S
O698 Li636 1.961 . S
O698 Li638 1.956 . S
O698 Li639 1.970 . S
O698 C668 1.325 . S
O699 Li637 1.961 . S
O699 Li638 1.970 . S
O699 Li639 1.956 . S
O699 C674 1.325 . S
H700 C642 0.929 . S
H701 C643 0.930 . S
H702 C644 0.930 . S
H703 C645 0.930 . S
H704 C647 0.930 . S
H705 C649 0.929 . S
H706 C650 0.930 . S
H707 C651 0.930 . S
H708 C654 0.930 . S
H709 C657 0.929 . S
H710 C662 0.929 . S
H711 C663 0.930 . S
H712 C670 0.929 . S
H713 C671 0.930 . S
H714 C672 0.930 . S
H715 C673 0.930 . S
H716 C675 0.929 . S
H717 C676 0.930 . S
H718 C677 0.930 . S
H719 C678 0.930 . S
H720 C682 0.929 . S
H721 C684 0.930 . S
H722 C690 0.929 . S
H723 C691 0.930 . S
Li724 N741 1.990 . S
Li724 O784 1.956 . S
Li724 O785 1.970 . S
Li724 O786 1.961 . S
Li725 N749 1.990 . S
Li725 O784 1.970 . S
Li725 O785 1.956 . S
Li725 O787 1.961 . S
Li726 N771 1.990 . S
Li726 O784 1.961 . S
Li726 O786 1.956 . S
Li726 O787 1.970 . S
Li727 N777 1.990 . S
Li727 O785 1.961 . S
Li727 O786 1.970 . S
Li727 O787 1.956 . S
C728 C730 1.348 . S
C728 C731 1.356 . S
C728 O784 1.325 . S
N729 C732 1.314 . S
N729 C733 1.279 . S
C730 C728 1.348 . S
C730 C732 1.353 . S
C730 H788 0.929 . S
C731 C728 1.356 . S
C731 C733 1.358 . S
C731 H789 0.930 . S
C732 N729 1.314 . S
C732 C730 1.353 . S
C732 H790 0.930 . S
C733 N729 1.279 . S
C733 C731 1.358 . S
C733 H791 0.930 . S
C734 C737 1.348 . S
C734 C738 1.356 . S
C734 O785 1.325 . S
C735 N736 1.279 . S
C735 C738 1.358 . S
C735 H792 0.930 . S
N736 C735 1.279 . S
N736 C739 1.314 . S
C737 C734 1.348 . S
C737 C739 1.353 . S
C737 H793 0.929 . S
C738 C734 1.356 . S
C738 C735 1.358 . S
C738 H794 0.930 . S
C739 N736 1.314 . S
C739 C737 1.353 . S
C739 H795 0.930 . S
C740 N741 1.314 . S
C740 C745 1.353 . S
C740 H746 0.930 . S
N741 Li724 1.990 . S
N741 C740 1.314 . S
N741 C743 1.279 . S
C742 C743 1.358 . S
C742 C744 1.356 . S
C742 H796 0.930 . S
C743 N741 1.279 . S
C743 C742 1.358 . S
C743 H747 0.930 . S
C744 C742 1.356 . S
C744 C745 1.348 . S
C745 C740 1.353 . S
C745 C744 1.348 . S
C745 H797 0.929 . S
H746 C740 0.930 . S
H747 C743 0.930 . S
C748 N749 1.314 . S
C748 C750 1.353 . S
C748 H754 0.930 . S
N749 Li725 1.990 . S
N749 C748 1.314 . S
N749 C752 1.279 . S
C750 C748 1.353 . S
C750 C753 1.348 . S
C750 H798 0.929 . S
C751 C752 1.358 . S
C751 C753 1.356 . S
C751 H799 0.930 . S
C752 N749 1.279 . S
C752 C751 1.358 . S
C752 H755 0.930 . S
C753 C750 1.348 . S
C753 C751 1.356 . S
H754 C748 0.930 . S
H755 C752 0.930 . S
C756 C758 1.348 . S
C756 C759 1.356 . S
C756 O786 1.325 . S
N757 C760 1.314 . S
N757 C761 1.279 . S
C758 C756 1.348 . S
C758 C760 1.353 . S
C758 H800 0.929 . S
C759 C756 1.356 . S
C759 C761 1.358 . S
C759 H801 0.930 . S
C760 N757 1.314 . S
C760 C758 1.353 . S
C760 H802 0.930 . S
C761 N757 1.279 . S
C761 C759 1.358 . S
C761 H803 0.930 . S
C762 C763 1.348 . S
C762 C764 1.356 . S
C762 O787 1.325 . S
C763 C762 1.348 . S
C763 C765 1.353 . S
C763 H804 0.929 . S
C764 C762 1.356 . S
C764 C766 1.358 . S
C764 H805 0.930 . S
C765 C763 1.353 . S
C765 N767 1.314 . S
C765 H806 0.930 . S
C766 C764 1.358 . S
C766 N767 1.279 . S
C766 H807 0.930 . S
N767 C765 1.314 . S
N767 C766 1.279 . S
C768 C770 1.353 . S
C768 N771 1.314 . S
C768 H774 0.930 . S
C769 N771 1.279 . S
C769 C772 1.358 . S
C769 H775 0.930 . S
C770 C768 1.353 . S
C770 C773 1.348 . S
C770 H808 0.929 . S
N771 Li726 1.990 . S
N771 C768 1.314 . S
N771 C769 1.279 . S
C772 C769 1.358 . S
C772 C773 1.356 . S
C772 H809 0.930 . S
C773 C770 1.348 . S
C773 C772 1.356 . S
H774 C768 0.930 . S
H775 C769 0.930 . S
C776 N777 1.314 . S
C776 C778 1.353 . S
C776 H782 0.930 . S
N777 Li727 1.990 . S
N777 C776 1.314 . S
N777 C780 1.279 . S
C778 C776 1.353 . S
C778 C781 1.348 . S
C778 H810 0.929 . S
C779 C780 1.358 . S
C779 C781 1.356 . S
C779 H811 0.930 . S
C780 N777 1.279 . S
C780 C779 1.358 . S
C780 H783 0.930 . S
C781 C778 1.348 . S
C781 C779 1.356 . S
H782 C776 0.930 . S
H783 C780 0.930 . S
O784 Li724 1.956 . S
O784 Li725 1.970 . S
O784 Li726 1.961 . S
O784 C728 1.325 . S
O785 Li724 1.970 . S
O785 Li725 1.956 . S
O785 Li727 1.961 . S
O785 C734 1.325 . S
O786 Li724 1.961 . S
O786 Li726 1.956 . S
O786 Li727 1.970 . S
O786 C756 1.325 . S
O787 Li725 1.961 . S
O787 Li726 1.970 . S
O787 Li727 1.956 . S
O787 C762 1.325 . S
H788 C730 0.929 . S
H789 C731 0.930 . S
H790 C732 0.930 . S
H791 C733 0.930 . S
H792 C735 0.930 . S
H793 C737 0.929 . S
H794 C738 0.930 . S
H795 C739 0.930 . S
H796 C742 0.930 . S
H797 C745 0.929 . S
H798 C750 0.929 . S
H799 C751 0.930 . S
H800 C758 0.929 . S
H801 C759 0.930 . S
H802 C760 0.930 . S
H803 C761 0.930 . S
H804 C763 0.929 . S
H805 C764 0.930 . S
H806 C765 0.930 . S
H807 C766 0.930 . S
H808 C770 0.929 . S
H809 C772 0.930 . S
H810 C778 0.929 . S
H811 C779 0.930 . S
Li812 N829 1.990 . S
Li812 O872 1.956 . S
Li812 O873 1.970 . S
Li812 O874 1.961 . S
Li813 N837 1.990 . S
Li813 O872 1.970 . S
Li813 O873 1.956 . S
Li813 O875 1.961 . S
Li814 N859 1.990 . S
Li814 O872 1.961 . S
Li814 O874 1.956 . S
Li814 O875 1.970 . S
Li815 N865 1.990 . S
Li815 O873 1.961 . S
Li815 O874 1.970 . S
Li815 O875 1.956 . S
C816 C818 1.348 . S
C816 C819 1.356 . S
C816 O872 1.325 . S
N817 C820 1.314 . S
N817 C821 1.279 . S
C818 C816 1.348 . S
C818 C820 1.353 . S
C818 H876 0.929 . S
C819 C816 1.356 . S
C819 C821 1.358 . S
C819 H877 0.930 . S
C820 N817 1.314 . S
C820 C818 1.353 . S
C820 H878 0.930 . S
C821 N817 1.279 . S
C821 C819 1.358 . S
C821 H879 0.930 . S
C822 C825 1.348 . S
C822 C826 1.356 . S
C822 O873 1.325 . S
C823 N824 1.279 . S
C823 C826 1.358 . S
C823 H880 0.930 . S
N824 C823 1.279 . S
N824 C827 1.314 . S
C825 C822 1.348 . S
C825 C827 1.353 . S
C825 H881 0.929 . S
C826 C822 1.356 . S
C826 C823 1.358 . S
C826 H882 0.930 . S
C827 N824 1.314 . S
C827 C825 1.353 . S
C827 H883 0.930 . S
C828 N829 1.314 . S
C828 C833 1.353 . S
C828 H834 0.930 . S
N829 Li812 1.990 . S
N829 C828 1.314 . S
N829 C831 1.279 . S
C830 C831 1.358 . S
C830 C832 1.356 . S
C830 H884 0.930 . S
C831 N829 1.279 . S
C831 C830 1.358 . S
C831 H835 0.930 . S
C832 C830 1.356 . S
C832 C833 1.348 . S
C833 C828 1.353 . S
C833 C832 1.348 . S
C833 H885 0.929 . S
H834 C828 0.930 . S
H835 C831 0.930 . S
C836 N837 1.314 . S
C836 C838 1.353 . S
C836 H842 0.930 . S
N837 Li813 1.990 . S
N837 C836 1.314 . S
N837 C840 1.279 . S
C838 C836 1.353 . S
C838 C841 1.348 . S
C838 H886 0.929 . S
C839 C840 1.358 . S
C839 C841 1.356 . S
C839 H887 0.930 . S
C840 N837 1.279 . S
C840 C839 1.358 . S
C840 H843 0.930 . S
C841 C838 1.348 . S
C841 C839 1.356 . S
H842 C836 0.930 . S
H843 C840 0.930 . S
C844 C846 1.348 . S
C844 C847 1.356 . S
C844 O874 1.325 . S
N845 C848 1.314 . S
N845 C849 1.279 . S
C846 C844 1.348 . S
C846 C848 1.353 . S
C846 H888 0.929 . S
C847 C844 1.356 . S
C847 C849 1.358 . S
C847 H889 0.930 . S
C848 N845 1.314 . S
C848 C846 1.353 . S
C848 H890 0.930 . S
C849 N845 1.279 . S
C849 C847 1.358 . S
C849 H891 0.930 . S
C850 C851 1.348 . S
C850 C852 1.356 . S
C850 O875 1.325 . S
C851 C850 1.348 . S
C851 C853 1.353 . S
C851 H892 0.929 . S
C852 C850 1.356 . S
C852 C854 1.358 . S
C852 H893 0.930 . S
C853 C851 1.353 . S
C853 N855 1.314 . S
C853 H894 0.930 . S
C854 C852 1.358 . S
C854 N855 1.279 . S
C854 H895 0.930 . S
N855 C853 1.314 . S
N855 C854 1.279 . S
C856 C858 1.353 . S
C856 N859 1.314 . S
C856 H862 0.930 . S
C857 N859 1.279 . S
C857 C860 1.358 . S
C857 H863 0.930 . S
C858 C856 1.353 . S
C858 C861 1.348 . S
C858 H896 0.929 . S
N859 Li814 1.990 . S
N859 C856 1.314 . S
N859 C857 1.279 . S
C860 C857 1.358 . S
C860 C861 1.356 . S
C860 H897 0.930 . S
C861 C858 1.348 . S
C861 C860 1.356 . S
H862 C856 0.930 . S
H863 C857 0.930 . S
C864 N865 1.314 . S
C864 C866 1.353 . S
C864 H870 0.930 . S
N865 Li815 1.990 . S
N865 C864 1.314 . S
N865 C868 1.279 . S
C866 C864 1.353 . S
C866 C869 1.348 . S
C866 H898 0.929 . S
C867 C868 1.358 . S
C867 C869 1.356 . S
C867 H899 0.930 . S
C868 N865 1.279 . S
C868 C867 1.358 . S
C868 H871 0.930 . S
C869 C866 1.348 . S
C869 C867 1.356 . S
H870 C864 0.930 . S
H871 C868 0.930 . S
O872 Li812 1.956 . S
O872 Li813 1.970 . S
O872 Li814 1.961 . S
O872 C816 1.325 . S
O873 Li812 1.970 . S
O873 Li813 1.956 . S
O873 Li815 1.961 . S
O873 C822 1.325 . S
O874 Li812 1.961 . S
O874 Li814 1.956 . S
O874 Li815 1.970 . S
O874 C844 1.325 . S
O875 Li813 1.961 . S
O875 Li814 1.970 . S
O875 Li815 1.956 . S
O875 C850 1.325 . S
H876 C818 0.929 . S
H877 C819 0.930 . S
H878 C820 0.930 . S
H879 C821 0.930 . S
H880 C823 0.930 . S
H881 C825 0.929 . S
H882 C826 0.930 . S
H883 C827 0.930 . S
H884 C830 0.930 . S
H885 C833 0.929 . S
H886 C838 0.929 . S
H887 C839 0.930 . S
H888 C846 0.929 . S
H889 C847 0.930 . S
H890 C848 0.930 . S
H891 C849 0.930 . S
H892 C851 0.929 . S
H893 C852 0.930 . S
H894 C853 0.930 . S
H895 C854 0.930 . S
H896 C858 0.929 . S
H897 C860 0.930 . S
H898 C866 0.929 . S
H899 C867 0.930 . S
H900 C918 0.951 . S
H901 C920 0.951 . S
H902 C922 0.950 . S
H903 C923 0.950 . S
H904 C925 0.950 . S
H905 C928 0.950 . S
H906 C929 0.950 . S
H907 C931 0.950 . S
H908 C932 0.950 . S
H909 C933 0.951 . S
H910 C935 0.951 . S
H911 C937 0.950 . S
H912 C938 0.950 . S
H913 C940 0.950 . S
H914 C943 0.950 . S
H915 C944 0.950 . S
H916 C946 0.950 . S
H917 C947 0.950 . S
C918 H900 0.951 . S
C918 C919 1.366 . S
C918 C920 1.388 . S
C919 C918 1.366 . S
C919 C923 1.385 . S
C920 H901 0.951 . S
C920 C918 1.388 . S
C920 C921 1.366 . S
C921 C920 1.366 . S
C921 C922 1.414 . S
C921 C924 1.499 . S
C922 H902 0.950 . S
C922 C921 1.414 . S
C922 C923 1.374 . S
C923 H903 0.950 . S
C923 C919 1.385 . S
C923 C922 1.374 . S
C924 C921 1.499 . S
C924 C925 1.373 . S
C924 C926 1.389 . S
C925 H904 0.950 . S
C925 C924 1.373 . S
C925 C941 1.377 . S
C926 C924 1.389 . S
C926 C927 1.524 . S
C926 C940 1.377 . S
C927 C926 1.524 . S
C927 C928 1.397 . S
C927 C932 1.363 . S
C928 H905 0.950 . S
C928 C927 1.397 . S
C928 C929 1.334 . S
C929 H906 0.950 . S
C929 C928 1.334 . S
C929 C930 1.287 . S
C930 C929 1.287 . S
C930 C931 1.524 . S
C930 H949 0.913 . S
C931 H907 0.950 . S
C931 C930 1.524 . S
C931 C932 1.415 . S
C932 H908 0.950 . S
C932 C927 1.363 . S
C932 C931 1.415 . S
C933 H909 0.951 . S
C933 C934 1.366 . S
C933 C935 1.388 . S
C934 C933 1.366 . S
C934 C938 1.385 . S
C935 H910 0.951 . S
C935 C933 1.388 . S
C935 C936 1.366 . S
C936 C935 1.366 . S
C936 C937 1.414 . S
C936 C939 1.499 . S
C937 H911 0.950 . S
C937 C936 1.414 . S
C937 C938 1.374 . S
C938 H912 0.950 . S
C938 C934 1.385 . S
C938 C937 1.374 . S
C939 C936 1.499 . S
C939 C940 1.373 . S
C939 C941 1.389 . S
C940 H913 0.950 . S
C940 C926 1.377 . S
C940 C939 1.373 . S
C941 C925 1.377 . S
C941 C939 1.389 . S
C941 C942 1.524 . S
C942 C941 1.524 . S
C942 C943 1.397 . S
C942 C947 1.363 . S
C943 H914 0.950 . S
C943 C942 1.397 . S
C943 C944 1.334 . S
C944 H915 0.950 . S
C944 C943 1.334 . S
C944 C945 1.287 . S
C945 C944 1.287 . S
C945 C946 1.524 . S
C945 H948 0.999 . S
C946 H916 0.950 . S
C946 C945 1.524 . S
C946 C947 1.415 . S
C947 H917 0.950 . S
C947 C942 1.363 . S
C947 C946 1.415 . S
H948 C945 0.999 . S
H949 C930 0.913 . S
H950 C968 0.951 . S
H951 C970 0.951 . S
H952 C972 0.950 . S
H953 C973 0.950 . S
H954 C975 0.950 . S
H955 C978 0.950 . S
H956 C979 0.950 . S
H957 C981 0.950 . S
H958 C982 0.950 . S
H959 C983 0.951 . S
H960 C985 0.951 . S
H961 C987 0.950 . S
H962 C988 0.950 . S
H963 C990 0.950 . S
H964 C993 0.950 . S
H965 C994 0.950 . S
H966 C996 0.950 . S
H967 C997 0.950 . S
C968 H950 0.951 . S
C968 C969 1.366 . S
C968 C970 1.388 . S
C969 C968 1.366 . S
C969 C973 1.385 . S
C970 H951 0.951 . S
C970 C968 1.388 . S
C970 C971 1.366 . S
C971 C970 1.366 . S
C971 C972 1.414 . S
C971 C974 1.499 . S
C972 H952 0.950 . S
C972 C971 1.414 . S
C972 C973 1.374 . S
C973 H953 0.950 . S
C973 C969 1.385 . S
C973 C972 1.374 . S
C974 C971 1.499 . S
C974 C975 1.373 . S
C974 C976 1.389 . S
C975 H954 0.950 . S
C975 C974 1.373 . S
C975 C991 1.377 . S
C976 C974 1.389 . S
C976 C977 1.524 . S
C976 C990 1.377 . S
C977 C976 1.524 . S
C977 C978 1.397 . S
C977 C982 1.363 . S
C978 H955 0.950 . S
C978 C977 1.397 . S
C978 C979 1.334 . S
C979 H956 0.950 . S
C979 C978 1.334 . S
C979 C980 1.287 . S
C980 C979 1.287 . S
C980 C981 1.524 . S
C980 H999 0.913 . S
C981 H957 0.950 . S
C981 C980 1.524 . S
C981 C982 1.415 . S
C982 H958 0.950 . S
C982 C977 1.363 . S
C982 C981 1.415 . S
C983 H959 0.951 . S
C983 C984 1.366 . S
C983 C985 1.388 . S
C984 C983 1.366 . S
C984 C988 1.385 . S
C985 H960 0.951 . S
C985 C983 1.388 . S
C985 C986 1.366 . S
C986 C985 1.366 . S
C986 C987 1.414 . S
C986 C989 1.499 . S
C987 H961 0.950 . S
C987 C986 1.414 . S
C987 C988 1.374 . S
C988 H962 0.950 . S
C988 C984 1.385 . S
C988 C987 1.374 . S
C989 C986 1.499 . S
C989 C990 1.373 . S
C989 C991 1.389 . S
C990 H963 0.950 . S
C990 C976 1.377 . S
C990 C989 1.373 . S
C991 C975 1.377 . S
C991 C989 1.389 . S
C991 C992 1.524 . S
C992 C991 1.524 . S
C992 C993 1.397 . S
C992 C997 1.363 . S
C993 H964 0.950 . S
C993 C992 1.397 . S
C993 C994 1.334 . S
C994 H965 0.950 . S
C994 C993 1.334 . S
C994 C995 1.287 . S
C995 C994 1.287 . S
C995 C996 1.524 . S
C995 H998 0.999 . S
C996 H966 0.950 . S
C996 C995 1.524 . S
C996 C997 1.415 . S
C997 H967 0.950 . S
C997 C992 1.363 . S
C997 C996 1.415 . S
H998 C995 0.999 . S
H999 C980 0.913 . S
H1000 C1018 0.951 . S
H1001 C1020 0.951 . S
H1002 C1022 0.950 . S
H1003 C1023 0.950 . S
H1004 C1025 0.950 . S
H1005 C1028 0.950 . S
H1006 C1029 0.950 . S
H1007 C1031 0.950 . S
H1008 C1032 0.950 . S
H1009 C1033 0.951 . S
H1010 C1035 0.951 . S
H1011 C1037 0.950 . S
H1012 C1038 0.950 . S
H1013 C1040 0.950 . S
H1014 C1043 0.950 . S
H1015 C1044 0.950 . S
H1016 C1046 0.950 . S
H1017 C1047 0.950 . S
C1018 H1000 0.951 . S
C1018 C1019 1.366 . S
C1018 C1020 1.388 . S
C1019 C1018 1.366 . S
C1019 C1023 1.385 . S
C1020 H1001 0.951 . S
C1020 C1018 1.388 . S
C1020 C1021 1.366 . S
C1021 C1020 1.366 . S
C1021 C1022 1.414 . S
C1021 C1024 1.499 . S
C1022 H1002 0.950 . S
C1022 C1021 1.414 . S
C1022 C1023 1.374 . S
C1023 H1003 0.950 . S
C1023 C1019 1.385 . S
C1023 C1022 1.374 . S
C1024 C1021 1.499 . S
C1024 C1025 1.373 . S
C1024 C1026 1.389 . S
C1025 H1004 0.950 . S
C1025 C1024 1.373 . S
C1025 C1041 1.377 . S
C1026 C1024 1.389 . S
C1026 C1027 1.524 . S
C1026 C1040 1.377 . S
C1027 C1026 1.524 . S
C1027 C1028 1.397 . S
C1027 C1032 1.363 . S
C1028 H1005 0.950 . S
C1028 C1027 1.397 . S
C1028 C1029 1.334 . S
C1029 H1006 0.950 . S
C1029 C1028 1.334 . S
C1029 C1030 1.287 . S
C1030 C1029 1.287 . S
C1030 C1031 1.524 . S
C1030 H1049 0.913 . S
C1031 H1007 0.950 . S
C1031 C1030 1.524 . S
C1031 C1032 1.415 . S
C1032 H1008 0.950 . S
C1032 C1027 1.363 . S
C1032 C1031 1.415 . S
C1033 H1009 0.951 . S
C1033 C1034 1.366 . S
C1033 C1035 1.388 . S
C1034 C1033 1.366 . S
C1034 C1038 1.385 . S
C1035 H1010 0.951 . S
C1035 C1033 1.388 . S
C1035 C1036 1.366 . S
C1036 C1035 1.366 . S
C1036 C1037 1.414 . S
C1036 C1039 1.499 . S
C1037 H1011 0.950 . S
C1037 C1036 1.414 . S
C1037 C1038 1.374 . S
C1038 H1012 0.950 . S
C1038 C1034 1.385 . S
C1038 C1037 1.374 . S
C1039 C1036 1.499 . S
C1039 C1040 1.373 . S
C1039 C1041 1.389 . S
C1040 H1013 0.950 . S
C1040 C1026 1.377 . S
C1040 C1039 1.373 . S
C1041 C1025 1.377 . S
C1041 C1039 1.389 . S
C1041 C1042 1.524 . S
C1042 C1041 1.524 . S
C1042 C1043 1.397 . S
C1042 C1047 1.363 . S
C1043 H1014 0.950 . S
C1043 C1042 1.397 . S
C1043 C1044 1.334 . S
C1044 H1015 0.950 . S
C1044 C1043 1.334 . S
C1044 C1045 1.287 . S
C1045 C1044 1.287 . S
C1045 C1046 1.524 . S
C1045 H1048 0.999 . S
C1046 H1016 0.950 . S
C1046 C1045 1.524 . S
C1046 C1047 1.415 . S
C1047 H1017 0.950 . S
C1047 C1042 1.363 . S
C1047 C1046 1.415 . S
H1048 C1045 0.999 . S
H1049 C1030 0.913 . S
H1050 C1068 0.951 . S
H1051 C1070 0.951 . S
H1052 C1072 0.950 . S
H1053 C1073 0.950 . S
H1054 C1075 0.950 . S
H1055 C1078 0.950 . S
H1056 C1079 0.950 . S
H1057 C1081 0.950 . S
H1058 C1082 0.950 . S
H1059 C1083 0.951 . S
H1060 C1085 0.951 . S
H1061 C1087 0.950 . S
H1062 C1088 0.950 . S
H1063 C1090 0.950 . S
H1064 C1093 0.950 . S
H1065 C1094 0.950 . S
H1066 C1096 0.950 . S
H1067 C1097 0.950 . S
C1068 H1050 0.951 . S
C1068 C1069 1.366 . S
C1068 C1070 1.388 . S
C1069 C1068 1.366 . S
C1069 C1073 1.385 . S
C1070 H1051 0.951 . S
C1070 C1068 1.388 . S
C1070 C1071 1.366 . S
C1071 C1070 1.366 . S
C1071 C1072 1.414 . S
C1071 C1074 1.499 . S
C1072 H1052 0.950 . S
C1072 C1071 1.414 . S
C1072 C1073 1.374 . S
C1073 H1053 0.950 . S
C1073 C1069 1.385 . S
C1073 C1072 1.374 . S
C1074 C1071 1.499 . S
C1074 C1075 1.373 . S
C1074 C1076 1.389 . S
C1075 H1054 0.950 . S
C1075 C1074 1.373 . S
C1075 C1091 1.377 . S
C1076 C1074 1.389 . S
C1076 C1077 1.524 . S
C1076 C1090 1.377 . S
C1077 C1076 1.524 . S
C1077 C1078 1.397 . S
C1077 C1082 1.363 . S
C1078 H1055 0.950 . S
C1078 C1077 1.397 . S
C1078 C1079 1.334 . S
C1079 H1056 0.950 . S
C1079 C1078 1.334 . S
C1079 C1080 1.287 . S
C1080 C1079 1.287 . S
C1080 C1081 1.524 . S
C1080 H1099 0.913 . S
C1081 H1057 0.950 . S
C1081 C1080 1.524 . S
C1081 C1082 1.415 . S
C1082 H1058 0.950 . S
C1082 C1077 1.363 . S
C1082 C1081 1.415 . S
C1083 H1059 0.951 . S
C1083 C1084 1.366 . S
C1083 C1085 1.388 . S
C1084 C1083 1.366 . S
C1084 C1088 1.385 . S
C1085 H1060 0.951 . S
C1085 C1083 1.388 . S
C1085 C1086 1.366 . S
C1086 C1085 1.366 . S
C1086 C1087 1.414 . S
C1086 C1089 1.499 . S
C1087 H1061 0.950 . S
C1087 C1086 1.414 . S
C1087 C1088 1.374 . S
C1088 H1062 0.950 . S
C1088 C1084 1.385 . S
C1088 C1087 1.374 . S
C1089 C1086 1.499 . S
C1089 C1090 1.373 . S
C1089 C1091 1.389 . S
C1090 H1063 0.950 . S
C1090 C1076 1.377 . S
C1090 C1089 1.373 . S
C1091 C1075 1.377 . S
C1091 C1089 1.389 . S
C1091 C1092 1.524 . S
C1092 C1091 1.524 . S
C1092 C1093 1.397 . S
C1092 C1097 1.363 . S
C1093 H1064 0.950 . S
C1093 C1092 1.397 . S
C1093 C1094 1.334 . S
C1094 H1065 0.950 . S
C1094 C1093 1.334 . S
C1094 C1095 1.287 . S
C1095 C1094 1.287 . S
C1095 C1096 1.524 . S
C1095 H1098 0.999 . S
C1096 H1066 0.950 . S
C1096 C1095 1.524 . S
C1096 C1097 1.415 . S
C1097 H1067 0.950 . S
C1097 C1092 1.363 . S
C1097 C1096 1.415 . S
H1098 C1095 0.999 . S
H1099 C1080 0.913 . S
H1100 C1118 0.951 . S
H1101 C1120 0.951 . S
H1102 C1122 0.950 . S
H1103 C1123 0.950 . S
H1104 C1125 0.950 . S
H1105 C1128 0.950 . S
H1106 C1129 0.950 . S
H1107 C1131 0.952 . S
H1108 C1132 0.950 . S
H1109 C1133 0.951 . S
H1110 C1135 0.951 . S
H1111 C1137 0.950 . S
H1112 C1138 0.950 . S
H1113 C1140 0.950 . S
H1114 C1143 0.950 . S
H1115 C1144 0.950 . S
H1116 C1146 0.950 . S
H1117 C1147 0.950 . S
C1118 H1100 0.951 . S
C1118 C1119 1.366 . S
C1118 C1120 1.388 . S
C1119 C1118 1.366 . S
C1119 C1123 1.385 . S
C1120 H1101 0.951 . S
C1120 C1118 1.388 . S
C1120 C1121 1.366 . S
C1121 C1120 1.366 . S
C1121 C1122 1.414 . S
C1121 C1124 1.499 . S
C1122 H1102 0.950 . S
C1122 C1121 1.414 . S
C1122 C1123 1.374 . S
C1123 H1103 0.950 . S
C1123 C1119 1.385 . S
C1123 C1122 1.374 . S
C1124 C1121 1.499 . S
C1124 C1125 1.373 . S
C1124 C1126 1.389 . S
C1125 H1104 0.950 . S
C1125 C1124 1.373 . S
C1125 C1141 1.377 . S
C1126 C1124 1.389 . S
C1126 C1127 1.524 . S
C1126 C1140 1.377 . S
C1127 C1126 1.524 . S
C1127 C1128 1.397 . S
C1127 C1132 1.363 . S
C1128 H1105 0.950 . S
C1128 C1127 1.397 . S
C1128 C1129 1.334 1_556 S
C1129 H1106 0.950 . S
C1129 C1128 1.334 1_554 S
C1129 C1130 1.287 . S
C1130 C1129 1.287 . S
C1130 C1131 1.530 . S
C1130 H1149 0.913 . S
C1131 H1107 0.952 . S
C1131 C1130 1.530 . S
C1131 C1132 1.406 1_554 S
C1132 H1108 0.950 . S
C1132 C1127 1.363 . S
C1132 C1131 1.406 1_556 S
C1133 H1109 0.951 . S
C1133 C1134 1.366 . S
C1133 C1135 1.388 . S
C1134 C1133 1.366 . S
C1134 C1138 1.385 . S
C1135 H1110 0.951 . S
C1135 C1133 1.388 . S
C1135 C1136 1.366 . S
C1136 C1135 1.366 . S
C1136 C1137 1.414 . S
C1136 C1139 1.499 . S
C1137 H1111 0.950 . S
C1137 C1136 1.414 . S
C1137 C1138 1.374 . S
C1138 H1112 0.950 . S
C1138 C1134 1.385 . S
C1138 C1137 1.374 . S
C1139 C1136 1.499 . S
C1139 C1140 1.373 . S
C1139 C1141 1.389 . S
C1140 H1113 0.950 . S
C1140 C1126 1.377 . S
C1140 C1139 1.373 . S
C1141 C1125 1.377 . S
C1141 C1139 1.389 . S
C1141 C1142 1.524 . S
C1142 C1141 1.524 . S
C1142 C1143 1.397 . S
C1142 C1147 1.363 . S
C1143 H1114 0.950 . S
C1143 C1142 1.397 . S
C1143 C1144 1.334 . S
C1144 H1115 0.950 . S
C1144 C1143 1.334 . S
C1144 C1145 1.287 . S
C1145 C1144 1.287 . S
C1145 C1146 1.524 . S
C1145 H1148 0.999 . S
C1146 H1116 0.950 . S
C1146 C1145 1.524 . S
C1146 C1147 1.415 . S
C1147 H1117 0.950 . S
C1147 C1142 1.363 . S
C1147 C1146 1.415 . S
H1148 C1145 0.999 . S
H1149 C1130 0.913 . S
H1150 C1168 0.951 . S
H1151 C1170 0.951 . S
H1152 C1172 0.950 . S
H1153 C1173 0.950 . S
H1154 C1175 0.950 . S
H1155 C1178 0.950 . S
H1156 C1179 0.950 . S
H1157 C1181 0.950 . S
H1158 C1182 0.950 . S
H1159 C1183 0.951 . S
H1160 C1185 0.951 . S
H1161 C1187 0.950 . S
H1162 C1188 0.950 . S
H1163 C1190 0.950 . S
H1164 C1193 0.950 . S
H1165 C1194 0.950 . S
H1166 C1196 0.950 . S
H1167 C1197 0.950 . S
C1168 H1150 0.951 . S
C1168 C1169 1.366 . S
C1168 C1170 1.388 . S
C1169 C1168 1.366 . S
C1169 C1173 1.385 . S
C1170 H1151 0.951 . S
C1170 C1168 1.388 . S
C1170 C1171 1.366 . S
C1171 C1170 1.366 . S
C1171 C1172 1.414 . S
C1171 C1174 1.499 . S
C1172 H1152 0.950 . S
C1172 C1171 1.414 . S
C1172 C1173 1.374 . S
C1173 H1153 0.950 . S
C1173 C1169 1.385 . S
C1173 C1172 1.374 . S
C1174 C1171 1.499 . S
C1174 C1175 1.373 . S
C1174 C1176 1.389 . S
C1175 H1154 0.950 . S
C1175 C1174 1.373 . S
C1175 C1191 1.377 . S
C1176 C1174 1.389 . S
C1176 C1177 1.524 . S
C1176 C1190 1.377 . S
C1177 C1176 1.524 . S
C1177 C1178 1.397 . S
C1177 C1182 1.363 . S
C1178 H1155 0.950 . S
C1178 C1177 1.397 . S
C1178 C1179 1.334 . S
C1179 H1156 0.950 . S
C1179 C1178 1.334 . S
C1179 C1180 1.287 . S
C1180 C1179 1.287 . S
C1180 C1181 1.524 . S
C1180 H1199 0.913 . S
C1181 H1157 0.950 . S
C1181 C1180 1.524 . S
C1181 C1182 1.415 . S
C1182 H1158 0.950 . S
C1182 C1177 1.363 . S
C1182 C1181 1.415 . S
C1183 H1159 0.951 . S
C1183 C1184 1.366 . S
C1183 C1185 1.388 . S
C1184 C1183 1.366 . S
C1184 C1188 1.385 . S
C1185 H1160 0.951 . S
C1185 C1183 1.388 . S
C1185 C1186 1.366 . S
C1186 C1185 1.366 . S
C1186 C1187 1.414 . S
C1186 C1189 1.499 . S
C1187 H1161 0.950 . S
C1187 C1186 1.414 . S
C1187 C1188 1.374 . S
C1188 H1162 0.950 . S
C1188 C1184 1.385 . S
C1188 C1187 1.374 . S
C1189 C1186 1.499 . S
C1189 C1190 1.373 . S
C1189 C1191 1.389 . S
C1190 H1163 0.950 . S
C1190 C1176 1.377 . S
C1190 C1189 1.373 . S
C1191 C1175 1.377 . S
C1191 C1189 1.389 . S
C1191 C1192 1.524 . S
C1192 C1191 1.524 . S
C1192 C1193 1.397 . S
C1192 C1197 1.363 . S
C1193 H1164 0.950 . S
C1193 C1192 1.397 . S
C1193 C1194 1.334 . S
C1194 H1165 0.950 . S
C1194 C1193 1.334 . S
C1194 C1195 1.287 . S
C1195 C1194 1.287 . S
C1195 C1196 1.524 . S
C1195 H1198 0.999 . S
C1196 H1166 0.950 . S
C1196 C1195 1.524 . S
C1196 C1197 1.415 . S
C1197 H1167 0.950 . S
C1197 C1192 1.363 . S
C1197 C1196 1.415 . S
H1198 C1195 0.999 . S
H1199 C1180 0.913 . S
H1200 C1218 0.951 . S
H1201 C1220 0.951 . S
H1202 C1222 0.950 . S
H1203 C1223 0.950 . S
H1204 C1225 0.950 . S
H1205 C1228 0.950 . S
H1206 C1229 0.950 . S
H1207 C1231 0.950 . S
H1208 C1232 0.950 . S
H1209 C1233 0.951 . S
H1210 C1235 0.951 . S
H1211 C1237 0.950 . S
H1212 C1238 0.950 . S
H1213 C1240 0.950 . S
H1214 C1243 0.950 . S
H1215 C1244 0.950 . S
H1216 C1246 0.950 . S
H1217 C1247 0.950 . S
C1218 H1200 0.951 . S
C1218 C1219 1.366 . S
C1218 C1220 1.388 . S
C1219 C1218 1.366 . S
C1219 C1223 1.385 . S
C1220 H1201 0.951 . S
C1220 C1218 1.388 . S
C1220 C1221 1.366 . S
C1221 C1220 1.366 . S
C1221 C1222 1.414 . S
C1221 C1224 1.499 . S
C1222 H1202 0.950 . S
C1222 C1221 1.414 . S
C1222 C1223 1.374 . S
C1223 H1203 0.950 . S
C1223 C1219 1.385 . S
C1223 C1222 1.374 . S
C1224 C1221 1.499 . S
C1224 C1225 1.373 . S
C1224 C1226 1.389 . S
C1225 H1204 0.950 . S
C1225 C1224 1.373 . S
C1225 C1241 1.377 . S
C1226 C1224 1.389 . S
C1226 C1227 1.524 . S
C1226 C1240 1.377 . S
C1227 C1226 1.524 . S
C1227 C1228 1.397 . S
C1227 C1232 1.363 . S
C1228 H1205 0.950 . S
C1228 C1227 1.397 . S
C1228 C1229 1.334 . S
C1229 H1206 0.950 . S
C1229 C1228 1.334 . S
C1229 C1230 1.287 . S
C1230 C1229 1.287 . S
C1230 C1231 1.524 . S
C1230 H1249 0.913 . S
C1231 H1207 0.950 . S
C1231 C1230 1.524 . S
C1231 C1232 1.415 . S
C1232 H1208 0.950 . S
C1232 C1227 1.363 . S
C1232 C1231 1.415 . S
C1233 H1209 0.951 . S
C1233 C1234 1.366 . S
C1233 C1235 1.388 . S
C1234 C1233 1.366 . S
C1234 C1238 1.385 . S
C1235 H1210 0.951 . S
C1235 C1233 1.388 . S
C1235 C1236 1.366 . S
C1236 C1235 1.366 . S
C1236 C1237 1.414 . S
C1236 C1239 1.499 . S
C1237 H1211 0.950 . S
C1237 C1236 1.414 . S
C1237 C1238 1.374 . S
C1238 H1212 0.950 . S
C1238 C1234 1.385 . S
C1238 C1237 1.374 . S
C1239 C1236 1.499 . S
C1239 C1240 1.373 . S
C1239 C1241 1.389 . S
C1240 H1213 0.950 . S
C1240 C1226 1.377 . S
C1240 C1239 1.373 . S
C1241 C1225 1.377 . S
C1241 C1239 1.389 . S
C1241 C1242 1.524 . S
C1242 C1241 1.524 . S
C1242 C1243 1.397 . S
C1242 C1247 1.363 . S
C1243 H1214 0.950 . S
C1243 C1242 1.397 . S
C1243 C1244 1.334 . S
C1244 H1215 0.950 . S
C1244 C1243 1.334 . S
C1244 C1245 1.287 . S
C1245 C1244 1.287 . S
C1245 C1246 1.524 . S
C1245 H1248 0.999 . S
C1246 H1216 0.950 . S
C1246 C1245 1.524 . S
C1246 C1247 1.415 . S
C1247 H1217 0.950 . S
C1247 C1242 1.363 . S
C1247 C1246 1.415 . S
H1248 C1245 0.999 . S
H1249 C1230 0.913 . S
H1250 C1268 0.951 . S
H1251 C1270 0.951 . S
H1252 C1272 0.950 . S
H1253 C1273 0.950 . S
H1254 C1275 0.950 . S
H1255 C1278 0.950 . S
H1256 C1279 0.950 . S
H1257 C1281 0.950 . S
H1258 C1282 0.950 . S
H1259 C1283 0.951 . S
H1260 C1285 0.951 . S
H1261 C1287 0.950 . S
H1262 C1288 0.950 . S
H1263 C1290 0.950 . S
H1264 C1293 0.950 . S
H1265 C1294 0.950 . S
H1266 C1296 0.950 . S
H1267 C1297 0.950 . S
C1268 H1250 0.951 . S
C1268 C1269 1.366 . S
C1268 C1270 1.388 . S
C1269 C1268 1.366 . S
C1269 C1273 1.385 . S
C1270 H1251 0.951 . S
C1270 C1268 1.388 . S
C1270 C1271 1.366 . S
C1271 C1270 1.366 . S
C1271 C1272 1.414 . S
C1271 C1274 1.499 . S
C1272 H1252 0.950 . S
C1272 C1271 1.414 . S
C1272 C1273 1.374 . S
C1273 H1253 0.950 . S
C1273 C1269 1.385 . S
C1273 C1272 1.374 . S
C1274 C1271 1.499 . S
C1274 C1275 1.373 . S
C1274 C1276 1.389 . S
C1275 H1254 0.950 . S
C1275 C1274 1.373 . S
C1275 C1291 1.377 . S
C1276 C1274 1.389 . S
C1276 C1277 1.524 . S
C1276 C1290 1.377 . S
C1277 C1276 1.524 . S
C1277 C1278 1.397 . S
C1277 C1282 1.363 . S
C1278 H1255 0.950 . S
C1278 C1277 1.397 . S
C1278 C1279 1.334 . S
C1279 H1256 0.950 . S
C1279 C1278 1.334 . S
C1279 C1280 1.287 . S
C1280 C1279 1.287 . S
C1280 C1281 1.524 . S
C1280 H1299 0.913 . S
C1281 H1257 0.950 . S
C1281 C1280 1.524 . S
C1281 C1282 1.415 . S
C1282 H1258 0.950 . S
C1282 C1277 1.363 . S
C1282 C1281 1.415 . S
C1283 H1259 0.951 . S
C1283 C1284 1.366 . S
C1283 C1285 1.388 . S
C1284 C1283 1.366 . S
C1284 C1288 1.385 . S
C1285 H1260 0.951 . S
C1285 C1283 1.388 . S
C1285 C1286 1.366 . S
C1286 C1285 1.366 . S
C1286 C1287 1.414 . S
C1286 C1289 1.499 . S
C1287 H1261 0.950 . S
C1287 C1286 1.414 . S
C1287 C1288 1.374 . S
C1288 H1262 0.950 . S
C1288 C1284 1.385 . S
C1288 C1287 1.374 . S
C1289 C1286 1.499 . S
C1289 C1290 1.373 . S
C1289 C1291 1.389 . S
C1290 H1263 0.950 . S
C1290 C1276 1.377 . S
C1290 C1289 1.373 . S
C1291 C1275 1.377 . S
C1291 C1289 1.389 . S
C1291 C1292 1.524 . S
C1292 C1291 1.524 . S
C1292 C1293 1.397 . S
C1292 C1297 1.363 . S
C1293 H1264 0.950 . S
C1293 C1292 1.397 . S
C1293 C1294 1.334 . S
C1294 H1265 0.950 . S
C1294 C1293 1.334 . S
C1294 C1295 1.287 . S
C1295 C1294 1.287 . S
C1295 C1296 1.524 . S
C1295 H1298 0.999 . S
C1296 H1266 0.950 . S
C1296 C1295 1.524 . S
C1296 C1297 1.415 . S
C1297 H1267 0.950 . S
C1297 C1292 1.363 . S
C1297 C1296 1.415 . S
H1298 C1295 0.999 . S
H1299 C1280 0.913 . S
H1300 C1318 0.951 . S
H1301 C1320 0.951 . S
H1302 C1322 0.950 . S
H1303 C1323 0.950 . S
H1304 C1325 0.950 . S
H1305 C1328 0.950 . S
H1306 C1329 0.950 . S
H1307 C1331 0.950 . S
H1308 C1332 0.950 . S
H1309 C1333 0.951 . S
H1310 C1335 0.951 . S
H1311 C1337 0.950 . S
H1312 C1338 0.950 . S
H1313 C1340 0.950 . S
H1314 C1343 0.950 . S
H1315 C1344 0.950 . S
H1316 C1346 0.950 . S
H1317 C1347 0.950 . S
C1318 H1300 0.951 . S
C1318 C1319 1.366 . S
C1318 C1320 1.388 . S
C1319 C1318 1.366 . S
C1319 C1323 1.385 . S
C1320 H1301 0.951 . S
C1320 C1318 1.388 . S
C1320 C1321 1.366 . S
C1321 C1320 1.366 . S
C1321 C1322 1.414 . S
C1321 C1324 1.499 . S
C1322 H1302 0.950 . S
C1322 C1321 1.414 . S
C1322 C1323 1.374 . S
C1323 H1303 0.950 . S
C1323 C1319 1.385 . S
C1323 C1322 1.374 . S
C1324 C1321 1.499 . S
C1324 C1325 1.373 . S
C1324 C1326 1.389 . S
C1325 H1304 0.950 . S
C1325 C1324 1.373 . S
C1325 C1341 1.377 . S
C1326 C1324 1.389 . S
C1326 C1327 1.524 . S
C1326 C1340 1.377 . S
C1327 C1326 1.524 . S
C1327 C1328 1.397 . S
C1327 C1332 1.363 . S
C1328 H1305 0.950 . S
C1328 C1327 1.397 . S
C1328 C1329 1.334 . S
C1329 H1306 0.950 . S
C1329 C1328 1.334 . S
C1329 C1330 1.287 . S
C1330 C1329 1.287 . S
C1330 C1331 1.524 . S
C1330 H1349 0.913 . S
C1331 H1307 0.950 . S
C1331 C1330 1.524 . S
C1331 C1332 1.415 . S
C1332 H1308 0.950 . S
C1332 C1327 1.363 . S
C1332 C1331 1.415 . S
C1333 H1309 0.951 . S
C1333 C1334 1.366 . S
C1333 C1335 1.388 . S
C1334 C1333 1.366 . S
C1334 C1338 1.385 . S
C1335 H1310 0.951 . S
C1335 C1333 1.388 . S
C1335 C1336 1.366 . S
C1336 C1335 1.366 . S
C1336 C1337 1.414 . S
C1336 C1339 1.499 . S
C1337 H1311 0.950 . S
C1337 C1336 1.414 . S
C1337 C1338 1.374 . S
C1338 H1312 0.950 . S
C1338 C1334 1.385 . S
C1338 C1337 1.374 . S
C1339 C1336 1.499 . S
C1339 C1340 1.373 . S
C1339 C1341 1.389 . S
C1340 H1313 0.950 . S
C1340 C1326 1.377 . S
C1340 C1339 1.373 . S
C1341 C1325 1.377 . S
C1341 C1339 1.389 . S
C1341 C1342 1.524 . S
C1342 C1341 1.524 . S
C1342 C1343 1.397 . S
C1342 C1347 1.363 . S
C1343 H1314 0.950 . S
C1343 C1342 1.397 . S
C1343 C1344 1.334 . S
C1344 H1315 0.950 . S
C1344 C1343 1.334 . S
C1344 C1345 1.287 . S
C1345 C1344 1.287 . S
C1345 C1346 1.524 . S
C1345 H1348 0.999 . S
C1346 H1316 0.950 . S
C1346 C1345 1.524 . S
C1346 C1347 1.415 . S
C1347 H1317 0.950 . S
C1347 C1342 1.363 . S
C1347 C1346 1.415 . S
H1348 C1345 0.999 . S
H1349 C1330 0.913 . S
H1350 C1368 0.951 . S
H1351 C1370 0.951 . S
H1352 C1372 0.950 . S
H1353 C1373 0.950 . S
H1354 C1375 0.950 . S
H1355 C1378 0.950 . S
H1356 C1379 0.950 . S
H1357 C1381 0.950 . S
H1358 C1382 0.950 . S
H1359 C1383 0.951 . S
H1360 C1385 0.951 . S
H1361 C1387 0.950 . S
H1362 C1388 0.950 . S
H1363 C1390 0.950 . S
H1364 C1393 0.950 . S
H1365 C1394 0.983 . S
H1366 C1396 0.950 . S
H1367 C1397 0.950 . S
C1368 H1350 0.951 . S
C1368 C1369 1.366 . S
C1368 C1370 1.388 . S
C1369 C1368 1.366 . S
C1369 C1373 1.385 . S
C1370 H1351 0.951 . S
C1370 C1368 1.388 . S
C1370 C1371 1.366 . S
C1371 C1370 1.366 . S
C1371 C1372 1.414 . S
C1371 C1374 1.499 . S
C1372 H1352 0.950 . S
C1372 C1371 1.414 . S
C1372 C1373 1.374 . S
C1373 H1353 0.950 . S
C1373 C1369 1.385 . S
C1373 C1372 1.374 . S
C1374 C1371 1.499 . S
C1374 C1375 1.373 . S
C1374 C1376 1.389 . S
C1375 H1354 0.950 . S
C1375 C1374 1.373 . S
C1375 C1391 1.377 . S
C1376 C1374 1.389 . S
C1376 C1377 1.524 . S
C1376 C1390 1.377 . S
C1377 C1376 1.524 . S
C1377 C1378 1.397 . S
C1377 C1382 1.363 . S
C1378 H1355 0.950 . S
C1378 C1377 1.397 . S
C1378 C1379 1.334 . S
C1379 H1356 0.950 . S
C1379 C1378 1.334 . S
C1379 C1380 1.287 . S
C1380 C1379 1.287 . S
C1380 C1381 1.524 . S
C1380 H1399 0.913 . S
C1381 H1357 0.950 . S
C1381 C1380 1.524 . S
C1381 C1382 1.415 . S
C1382 H1358 0.950 . S
C1382 C1377 1.363 . S
C1382 C1381 1.415 . S
C1383 H1359 0.951 . S
C1383 C1384 1.366 . S
C1383 C1385 1.388 . S
C1384 C1383 1.366 . S
C1384 C1388 1.385 . S
C1385 H1360 0.951 . S
C1385 C1383 1.388 . S
C1385 C1386 1.366 . S
C1386 C1385 1.366 . S
C1386 C1387 1.414 . S
C1386 C1389 1.499 . S
C1387 H1361 0.950 . S
C1387 C1386 1.414 . S
C1387 C1388 1.374 . S
C1388 H1362 0.950 . S
C1388 C1384 1.385 . S
C1388 C1387 1.374 . S
C1389 C1386 1.499 . S
C1389 C1390 1.373 . S
C1389 C1391 1.389 . S
C1390 H1363 0.950 . S
C1390 C1376 1.377 . S
C1390 C1389 1.373 . S
C1391 C1375 1.377 . S
C1391 C1389 1.389 . S
C1391 C1392 1.524 . S
C1392 C1391 1.524 . S
C1392 C1393 1.397 . S
C1392 C1397 1.363 . S
C1393 H1364 0.950 . S
C1393 C1392 1.397 . S
C1393 C1394 1.334 . S
C1394 H1365 0.983 . S
C1394 C1393 1.334 . S
C1394 C1395 1.287 . S
C1395 C1394 1.287 . S
C1395 C1396 1.524 . S
C1395 H1398 0.999 1_554 S
C1396 H1366 0.950 . S
C1396 C1395 1.524 . S
C1396 C1397 1.415 . S
C1397 H1367 0.950 . S
C1397 C1392 1.363 . S
C1397 C1396 1.415 . S
H1398 C1395 0.999 1_556 S
H1399 C1380 0.913 . S
H1400 C1418 0.951 . S
H1401 C1420 0.951 . S
H1402 C1422 0.950 . S
H1403 C1423 0.950 . S
H1404 C1425 0.950 . S
H1405 C1428 0.950 . S
H1406 C1429 0.950 . S
H1407 C1431 0.950 . S
H1408 C1432 0.950 . S
H1409 C1433 0.951 . S
H1410 C1435 0.951 . S
H1411 C1437 0.950 . S
H1412 C1438 0.950 . S
H1413 C1440 0.950 . S
H1414 C1443 0.950 . S
H1415 C1444 0.950 . S
H1416 C1446 0.950 . S
H1417 C1447 0.950 . S
C1418 H1400 0.951 . S
C1418 C1419 1.366 . S
C1418 C1420 1.388 . S
C1419 C1418 1.366 . S
C1419 C1423 1.385 . S
C1420 H1401 0.951 . S
C1420 C1418 1.388 . S
C1420 C1421 1.366 . S
C1421 C1420 1.366 . S
C1421 C1422 1.414 . S
C1421 C1424 1.499 . S
C1422 H1402 0.950 . S
C1422 C1421 1.414 . S
C1422 C1423 1.374 . S
C1423 H1403 0.950 . S
C1423 C1419 1.385 . S
C1423 C1422 1.374 . S
C1424 C1421 1.499 . S
C1424 C1425 1.373 . S
C1424 C1426 1.389 . S
C1425 H1404 0.950 . S
C1425 C1424 1.373 . S
C1425 C1441 1.377 . S
C1426 C1424 1.389 . S
C1426 C1427 1.524 . S
C1426 C1440 1.377 . S
C1427 C1426 1.524 . S
C1427 C1428 1.397 . S
C1427 C1432 1.363 . S
C1428 H1405 0.950 . S
C1428 C1427 1.397 . S
C1428 C1429 1.334 . S
C1429 H1406 0.950 . S
C1429 C1428 1.334 . S
C1429 C1430 1.287 . S
C1430 C1429 1.287 . S
C1430 C1431 1.524 . S
C1430 H1449 0.913 . S
C1431 H1407 0.950 . S
C1431 C1430 1.524 . S
C1431 C1432 1.415 . S
C1432 H1408 0.950 . S
C1432 C1427 1.363 . S
C1432 C1431 1.415 . S
C1433 H1409 0.951 . S
C1433 C1434 1.366 . S
C1433 C1435 1.388 . S
C1434 C1433 1.366 . S
C1434 C1438 1.385 . S
C1435 H1410 0.951 . S
C1435 C1433 1.388 . S
C1435 C1436 1.366 . S
C1436 C1435 1.366 . S
C1436 C1437 1.414 . S
C1436 C1439 1.499 . S
C1437 H1411 0.950 . S
C1437 C1436 1.414 . S
C1437 C1438 1.374 . S
C1438 H1412 0.950 . S
C1438 C1434 1.385 . S
C1438 C1437 1.374 . S
C1439 C1436 1.499 . S
C1439 C1440 1.373 . S
C1439 C1441 1.389 . S
C1440 H1413 0.950 . S
C1440 C1426 1.377 . S
C1440 C1439 1.373 . S
C1441 C1425 1.377 . S
C1441 C1439 1.389 . S
C1441 C1442 1.524 . S
C1442 C1441 1.524 . S
C1442 C1443 1.397 . S
C1442 C1447 1.363 . S
C1443 H1414 0.950 . S
C1443 C1442 1.397 . S
C1443 C1444 1.334 . S
C1444 H1415 0.950 . S
C1444 C1443 1.334 . S
C1444 C1445 1.287 . S
C1445 C1444 1.287 . S
C1445 C1446 1.524 . S
C1445 H1448 0.999 . S
C1446 H1416 0.950 . S
C1446 C1445 1.524 . S
C1446 C1447 1.415 . S
C1447 H1417 0.950 . S
C1447 C1442 1.363 . S
C1447 C1446 1.415 . S
H1448 C1445 0.999 . S
H1449 C1430 0.913 . S
H1450 C1468 0.951 . S
H1451 C1470 0.951 . S
H1452 C1472 0.950 . S
H1453 C1473 0.950 . S
H1454 C1475 0.950 . S
H1455 C1478 0.950 . S
H1456 C1479 0.950 . S
H1457 C1481 0.950 . S
H1458 C1482 0.950 . S
H1459 C1483 0.951 . S
H1460 C1485 0.951 . S
H1461 C1487 0.950 . S
H1462 C1488 0.950 . S
H1463 C1490 0.950 . S
H1464 C1493 0.950 . S
H1465 C1494 0.950 . S
H1466 C1496 0.950 . S
H1467 C1497 0.950 . S
C1468 H1450 0.951 . S
C1468 C1469 1.366 . S
C1468 C1470 1.388 . S
C1469 C1468 1.366 . S
C1469 C1473 1.385 . S
C1470 H1451 0.951 . S
C1470 C1468 1.388 . S
C1470 C1471 1.366 . S
C1471 C1470 1.366 . S
C1471 C1472 1.414 . S
C1471 C1474 1.499 . S
C1472 H1452 0.950 . S
C1472 C1471 1.414 . S
C1472 C1473 1.374 . S
C1473 H1453 0.950 . S
C1473 C1469 1.385 . S
C1473 C1472 1.374 . S
C1474 C1471 1.499 . S
C1474 C1475 1.373 . S
C1474 C1476 1.389 . S
C1475 H1454 0.950 . S
C1475 C1474 1.373 . S
C1475 C1491 1.377 . S
C1476 C1474 1.389 . S
C1476 C1477 1.524 . S
C1476 C1490 1.377 . S
C1477 C1476 1.524 . S
C1477 C1478 1.397 . S
C1477 C1482 1.363 . S
C1478 H1455 0.950 . S
C1478 C1477 1.397 . S
C1478 C1479 1.334 . S
C1479 H1456 0.950 . S
C1479 C1478 1.334 . S
C1479 C1480 1.287 . S
C1480 C1479 1.287 . S
C1480 C1481 1.524 . S
C1480 H1499 0.913 . S
C1481 H1457 0.950 . S
C1481 C1480 1.524 . S
C1481 C1482 1.415 . S
C1482 H1458 0.950 . S
C1482 C1477 1.363 . S
C1482 C1481 1.415 . S
C1483 H1459 0.951 . S
C1483 C1484 1.366 . S
C1483 C1485 1.388 . S
C1484 C1483 1.366 . S
C1484 C1488 1.385 . S
C1485 H1460 0.951 . S
C1485 C1483 1.388 . S
C1485 C1486 1.366 . S
C1486 C1485 1.366 . S
C1486 C1487 1.414 . S
C1486 C1489 1.499 . S
C1487 H1461 0.950 . S
C1487 C1486 1.414 . S
C1487 C1488 1.374 . S
C1488 H1462 0.950 . S
C1488 C1484 1.385 . S
C1488 C1487 1.374 . S
C1489 C1486 1.499 . S
C1489 C1490 1.373 . S
C1489 C1491 1.389 . S
C1490 H1463 0.950 . S
C1490 C1476 1.377 . S
C1490 C1489 1.373 . S
C1491 C1475 1.377 . S
C1491 C1489 1.389 . S
C1491 C1492 1.524 . S
C1492 C1491 1.524 . S
C1492 C1493 1.397 . S
C1492 C1497 1.363 . S
C1493 H1464 0.950 . S
C1493 C1492 1.397 . S
C1493 C1494 1.334 . S
C1494 H1465 0.950 . S
C1494 C1493 1.334 . S
C1494 C1495 1.287 . S
C1495 C1494 1.287 . S
C1495 C1496 1.524 . S
C1495 H1498 0.999 . S
C1496 H1466 0.950 . S
C1496 C1495 1.524 . S
C1496 C1497 1.415 . S
C1497 H1467 0.950 . S
C1497 C1492 1.363 . S
C1497 C1496 1.415 . S
H1498 C1495 0.999 . S
H1499 C1480 0.913 . S
H1500 C1518 0.951 . S
H1501 C1520 0.951 . S
H1502 C1522 0.950 . S
H1503 C1523 0.950 . S
H1504 C1525 0.950 . S
H1505 C1528 0.950 . S
H1506 C1529 0.950 . S
H1507 C1531 0.950 . S
H1508 C1532 0.950 . S
H1509 C1533 0.951 . S
H1510 C1535 0.951 . S
H1511 C1537 0.950 . S
H1512 C1538 0.950 . S
H1513 C1540 0.950 . S
H1514 C1543 0.950 . S
H1515 C1544 0.950 . S
H1516 C1546 0.950 . S
H1517 C1547 0.950 . S
C1518 H1500 0.951 . S
C1518 C1519 1.366 . S
C1518 C1520 1.388 . S
C1519 C1518 1.366 . S
C1519 C1523 1.385 . S
C1520 H1501 0.951 . S
C1520 C1518 1.388 . S
C1520 C1521 1.366 . S
C1521 C1520 1.366 . S
C1521 C1522 1.414 . S
C1521 C1524 1.499 . S
C1522 H1502 0.950 . S
C1522 C1521 1.414 . S
C1522 C1523 1.374 . S
C1523 H1503 0.950 . S
C1523 C1519 1.385 . S
C1523 C1522 1.374 . S
C1524 C1521 1.499 . S
C1524 C1525 1.373 . S
C1524 C1526 1.389 . S
C1525 H1504 0.950 . S
C1525 C1524 1.373 . S
C1525 C1541 1.377 . S
C1526 C1524 1.389 . S
C1526 C1527 1.524 . S
C1526 C1540 1.377 . S
C1527 C1526 1.524 . S
C1527 C1528 1.397 . S
C1527 C1532 1.363 . S
C1528 H1505 0.950 . S
C1528 C1527 1.397 . S
C1528 C1529 1.334 . S
C1529 H1506 0.950 . S
C1529 C1528 1.334 . S
C1529 C1530 1.287 . S
C1530 C1529 1.287 . S
C1530 C1531 1.524 . S
C1530 H1549 0.913 . S
C1531 H1507 0.950 . S
C1531 C1530 1.524 . S
C1531 C1532 1.415 . S
C1532 H1508 0.950 . S
C1532 C1527 1.363 . S
C1532 C1531 1.415 . S
C1533 H1509 0.951 . S
C1533 C1534 1.366 . S
C1533 C1535 1.388 . S
C1534 C1533 1.366 . S
C1534 C1538 1.385 . S
C1535 H1510 0.951 . S
C1535 C1533 1.388 . S
C1535 C1536 1.366 . S
C1536 C1535 1.366 . S
C1536 C1537 1.414 . S
C1536 C1539 1.499 . S
C1537 H1511 0.950 . S
C1537 C1536 1.414 . S
C1537 C1538 1.374 . S
C1538 H1512 0.950 . S
C1538 C1534 1.385 . S
C1538 C1537 1.374 . S
C1539 C1536 1.499 . S
C1539 C1540 1.373 . S
C1539 C1541 1.389 . S
C1540 H1513 0.950 . S
C1540 C1526 1.377 . S
C1540 C1539 1.373 . S
C1541 C1525 1.377 . S
C1541 C1539 1.389 . S
C1541 C1542 1.524 . S
C1542 C1541 1.524 . S
C1542 C1543 1.397 . S
C1542 C1547 1.363 . S
C1543 H1514 0.950 . S
C1543 C1542 1.397 . S
C1543 C1544 1.334 . S
C1544 H1515 0.950 . S
C1544 C1543 1.334 . S
C1544 C1545 1.287 . S
C1545 C1544 1.287 . S
C1545 C1546 1.524 . S
C1545 H1548 0.999 . S
C1546 H1516 0.950 . S
C1546 C1545 1.524 . S
C1546 C1547 1.415 . S
C1547 H1517 0.950 . S
C1547 C1542 1.363 . S
C1547 C1546 1.415 . S
H1548 C1545 0.999 . S
H1549 C1530 0.913 . S
H1550 C1568 0.951 . S
H1551 C1570 0.951 . S
H1552 C1572 0.950 . S
H1553 C1573 0.950 . S
H1554 C1575 0.950 . S
H1555 C1578 0.950 . S
H1556 C1579 0.950 . S
H1557 C1581 0.950 . S
H1558 C1582 0.950 . S
H1559 C1583 0.951 . S
H1560 C1585 0.951 . S
H1561 C1587 0.950 . S
H1562 C1588 0.950 . S
H1563 C1590 0.950 . S
H1564 C1593 0.950 . S
H1565 C1594 0.950 . S
H1566 C1596 0.950 . S
H1567 C1597 0.950 . S
C1568 H1550 0.951 . S
C1568 C1569 1.366 . S
C1568 C1570 1.388 . S
C1569 C1568 1.366 . S
C1569 C1573 1.385 . S
C1570 H1551 0.951 . S
C1570 C1568 1.388 . S
C1570 C1571 1.366 . S
C1571 C1570 1.366 . S
C1571 C1572 1.414 . S
C1571 C1574 1.499 . S
C1572 H1552 0.950 . S
C1572 C1571 1.414 . S
C1572 C1573 1.374 . S
C1573 H1553 0.950 . S
C1573 C1569 1.385 . S
C1573 C1572 1.374 . S
C1574 C1571 1.499 . S
C1574 C1575 1.373 . S
C1574 C1576 1.389 . S
C1575 H1554 0.950 . S
C1575 C1574 1.373 . S
C1575 C1591 1.377 . S
C1576 C1574 1.389 . S
C1576 C1577 1.524 . S
C1576 C1590 1.377 . S
C1577 C1576 1.524 . S
C1577 C1578 1.397 . S
C1577 C1582 1.363 . S
C1578 H1555 0.950 . S
C1578 C1577 1.397 . S
C1578 C1579 1.334 . S
C1579 H1556 0.950 . S
C1579 C1578 1.334 . S
C1579 C1580 1.287 . S
C1580 C1579 1.287 . S
C1580 C1581 1.524 . S
C1580 H1599 0.913 . S
C1581 H1557 0.950 . S
C1581 C1580 1.524 . S
C1581 C1582 1.415 . S
C1582 H1558 0.950 . S
C1582 C1577 1.363 . S
C1582 C1581 1.415 . S
C1583 H1559 0.951 . S
C1583 C1584 1.366 . S
C1583 C1585 1.388 . S
C1584 C1583 1.366 . S
C1584 C1588 1.385 . S
C1585 H1560 0.951 . S
C1585 C1583 1.388 . S
C1585 C1586 1.366 . S
C1586 C1585 1.366 . S
C1586 C1587 1.414 . S
C1586 C1589 1.499 . S
C1587 H1561 0.950 . S
C1587 C1586 1.414 . S
C1587 C1588 1.374 . S
C1588 H1562 0.950 . S
C1588 C1584 1.385 . S
C1588 C1587 1.374 . S
C1589 C1586 1.499 . S
C1589 C1590 1.373 . S
C1589 C1591 1.389 . S
C1590 H1563 0.950 . S
C1590 C1576 1.377 . S
C1590 C1589 1.373 . S
C1591 C1575 1.377 . S
C1591 C1589 1.389 . S
C1591 C1592 1.524 . S
C1592 C1591 1.524 . S
C1592 C1593 1.397 . S
C1592 C1597 1.363 . S
C1593 H1564 0.950 . S
C1593 C1592 1.397 . S
C1593 C1594 1.334 . S
C1594 H1565 0.950 . S
C1594 C1593 1.334 . S
C1594 C1595 1.287 . S
C1595 C1594 1.287 . S
C1595 C1596 1.524 . S
C1595 H1598 0.999 . S
C1596 H1566 0.950 . S
C1596 C1595 1.524 . S
C1596 C1597 1.415 . S
C1597 H1567 0.950 . S
C1597 C1592 1.363 . S
C1597 C1596 1.415 . S
H1598 C1595 0.999 . S
H1599 C1580 0.913 . S
H1600 C1618 0.951 . S
H1601 C1620 0.951 . S
H1602 C1622 0.950 . S
H1603 C1623 0.950 . S
H1604 C1625 0.950 . S
H1605 C1628 0.950 . S
H1606 C1629 0.950 . S
H1607 C1631 0.950 . S
H1608 C1632 0.950 . S
H1609 C1633 0.951 . S
H1610 C1635 0.951 . S
H1611 C1637 0.950 . S
H1612 C1638 0.950 . S
H1613 C1640 0.950 . S
H1614 C1643 0.950 . S
H1615 C1644 0.950 . S
H1616 C1646 0.950 . S
H1617 C1647 0.950 . S
C1618 H1600 0.951 . S
C1618 C1619 1.366 . S
C1618 C1620 1.388 . S
C1619 C1618 1.366 . S
C1619 C1623 1.385 . S
C1620 H1601 0.951 . S
C1620 C1618 1.388 . S
C1620 C1621 1.366 . S
C1621 C1620 1.366 . S
C1621 C1622 1.414 . S
C1621 C1624 1.499 . S
C1622 H1602 0.950 . S
C1622 C1621 1.414 . S
C1622 C1623 1.374 . S
C1623 H1603 0.950 . S
C1623 C1619 1.385 . S
C1623 C1622 1.374 . S
C1624 C1621 1.499 . S
C1624 C1625 1.373 . S
C1624 C1626 1.389 . S
C1625 H1604 0.950 . S
C1625 C1624 1.373 . S
C1625 C1641 1.377 . S
C1626 C1624 1.389 . S
C1626 C1627 1.524 . S
C1626 C1640 1.377 . S
C1627 C1626 1.524 . S
C1627 C1628 1.397 . S
C1627 C1632 1.363 . S
C1628 H1605 0.950 . S
C1628 C1627 1.397 . S
C1628 C1629 1.334 . S
C1629 H1606 0.950 . S
C1629 C1628 1.334 . S
C1629 C1630 1.287 . S
C1630 C1629 1.287 . S
C1630 C1631 1.524 . S
C1630 H1649 0.913 . S
C1631 H1607 0.950 . S
C1631 C1630 1.524 . S
C1631 C1632 1.415 . S
C1632 H1608 0.950 . S
C1632 C1627 1.363 . S
C1632 C1631 1.415 . S
C1633 H1609 0.951 . S
C1633 C1634 1.366 . S
C1633 C1635 1.388 . S
C1634 C1633 1.366 . S
C1634 C1638 1.385 . S
C1635 H1610 0.951 . S
C1635 C1633 1.388 . S
C1635 C1636 1.366 . S
C1636 C1635 1.366 . S
C1636 C1637 1.414 . S
C1636 C1639 1.499 . S
C1637 H1611 0.950 . S
C1637 C1636 1.414 . S
C1637 C1638 1.374 . S
C1638 H1612 0.950 . S
C1638 C1634 1.385 . S
C1638 C1637 1.374 . S
C1639 C1636 1.499 . S
C1639 C1640 1.373 . S
C1639 C1641 1.389 . S
C1640 H1613 0.950 . S
C1640 C1626 1.377 . S
C1640 C1639 1.373 . S
C1641 C1625 1.377 . S
C1641 C1639 1.389 . S
C1641 C1642 1.524 . S
C1642 C1641 1.524 . S
C1642 C1643 1.397 . S
C1642 C1647 1.363 . S
C1643 H1614 0.950 . S
C1643 C1642 1.397 . S
C1643 C1644 1.334 . S
C1644 H1615 0.950 . S
C1644 C1643 1.334 . S
C1644 C1645 1.287 . S
C1645 C1644 1.287 . S
C1645 C1646 1.524 . S
C1645 H1648 0.999 . S
C1646 H1616 0.950 . S
C1646 C1645 1.524 . S
C1646 C1647 1.415 . S
C1647 H1617 0.950 . S
C1647 C1642 1.363 . S
C1647 C1646 1.415 . S
H1648 C1645 0.999 . S
H1649 C1630 0.913 . S
H1650 C1668 0.951 . S
H1651 C1670 0.951 . S
H1652 C1672 0.950 . S
H1653 C1673 0.950 . S
H1654 C1675 0.950 . S
H1655 C1678 0.950 . S
H1656 C1679 0.950 . S
H1657 C1681 0.950 . S
H1658 C1682 0.950 . S
H1659 C1683 0.951 . S
H1660 C1685 0.951 . S
H1661 C1687 0.950 . S
H1662 C1688 0.950 . S
H1663 C1690 0.950 . S
H1664 C1693 0.950 . S
H1665 C1694 0.950 . S
H1666 C1696 0.950 . S
H1667 C1697 0.950 . S
C1668 H1650 0.951 . S
C1668 C1669 1.366 . S
C1668 C1670 1.388 . S
C1669 C1668 1.366 . S
C1669 C1673 1.385 . S
C1670 H1651 0.951 . S
C1670 C1668 1.388 . S
C1670 C1671 1.366 . S
C1671 C1670 1.366 . S
C1671 C1672 1.414 . S
C1671 C1674 1.499 . S
C1672 H1652 0.950 . S
C1672 C1671 1.414 . S
C1672 C1673 1.374 . S
C1673 H1653 0.950 . S
C1673 C1669 1.385 . S
C1673 C1672 1.374 . S
C1674 C1671 1.499 . S
C1674 C1675 1.373 . S
C1674 C1676 1.389 . S
C1675 H1654 0.950 . S
C1675 C1674 1.373 . S
C1675 C1691 1.377 . S
C1676 C1674 1.389 . S
C1676 C1677 1.524 . S
C1676 C1690 1.377 . S
C1677 C1676 1.524 . S
C1677 C1678 1.397 . S
C1677 C1682 1.363 . S
C1678 H1655 0.950 . S
C1678 C1677 1.397 . S
C1678 C1679 1.334 . S
C1679 H1656 0.950 . S
C1679 C1678 1.334 . S
C1679 C1680 1.287 . S
C1680 C1679 1.287 . S
C1680 C1681 1.524 . S
C1680 H1699 0.913 . S
C1681 H1657 0.950 . S
C1681 C1680 1.524 . S
C1681 C1682 1.415 . S
C1682 H1658 0.950 . S
C1682 C1677 1.363 . S
C1682 C1681 1.415 . S
C1683 H1659 0.951 . S
C1683 C1684 1.371 . S
C1683 C1685 1.388 . S
C1684 C1683 1.371 . S
C1684 C1688 1.383 1_556 S
C1685 H1660 0.951 . S
C1685 C1683 1.388 . S
C1685 C1686 1.366 . S
C1686 C1685 1.366 . S
C1686 C1687 1.414 . S
C1686 C1689 1.499 . S
C1687 H1661 0.950 . S
C1687 C1686 1.414 . S
C1687 C1688 1.374 1_556 S
C1688 H1662 0.950 . S
C1688 C1684 1.383 1_554 S
C1688 C1687 1.374 1_554 S
C1689 C1686 1.499 . S
C1689 C1690 1.373 . S
C1689 C1691 1.389 . S
C1690 H1663 0.950 . S
C1690 C1676 1.377 . S
C1690 C1689 1.373 . S
C1691 C1675 1.377 . S
C1691 C1689 1.389 . S
C1691 C1692 1.524 . S
C1692 C1691 1.524 . S
C1692 C1693 1.397 . S
C1692 C1697 1.363 . S
C1693 H1664 0.950 . S
C1693 C1692 1.397 . S
C1693 C1694 1.334 . S
C1694 H1665 0.950 . S
C1694 C1693 1.334 . S
C1694 C1695 1.287 . S
C1695 C1694 1.287 . S
C1695 C1696 1.524 . S
C1695 H1698 0.999 . S
C1696 H1666 0.950 . S
C1696 C1695 1.524 . S
C1696 C1697 1.415 . S
C1697 H1667 0.950 . S
C1697 C1692 1.363 . S
C1697 C1696 1.415 . S
H1698 C1695 0.999 . S
H1699 C1680 0.913 . S
H1700 C1718 0.951 . S
H1701 C1720 0.951 . S
H1702 C1722 0.950 . S
H1703 C1723 0.950 . S
H1704 C1725 0.950 . S
H1705 C1728 0.950 . S
H1706 C1729 0.950 . S
H1707 C1731 0.950 . S
H1708 C1732 0.950 . S
H1709 C1733 0.951 . S
H1710 C1735 0.951 . S
H1711 C1737 0.950 . S
H1712 C1738 0.950 . S
H1713 C1740 0.950 . S
H1714 C1743 0.950 . S
H1715 C1744 0.950 . S
H1716 C1746 0.950 . S
H1717 C1747 0.950 . S
C1718 H1700 0.951 . S
C1718 C1719 1.366 . S
C1718 C1720 1.388 . S
C1719 C1718 1.366 . S
C1719 C1723 1.385 . S
C1720 H1701 0.951 . S
C1720 C1718 1.388 . S
C1720 C1721 1.366 . S
C1721 C1720 1.366 . S
C1721 C1722 1.414 . S
C1721 C1724 1.499 . S
C1722 H1702 0.950 . S
C1722 C1721 1.414 . S
C1722 C1723 1.374 . S
C1723 H1703 0.950 . S
C1723 C1719 1.385 . S
C1723 C1722 1.374 . S
C1724 C1721 1.499 . S
C1724 C1725 1.373 . S
C1724 C1726 1.389 . S
C1725 H1704 0.950 . S
C1725 C1724 1.373 . S
C1725 C1741 1.377 . S
C1726 C1724 1.389 . S
C1726 C1727 1.524 . S
C1726 C1740 1.377 . S
C1727 C1726 1.524 . S
C1727 C1728 1.397 . S
C1727 C1732 1.363 . S
C1728 H1705 0.950 . S
C1728 C1727 1.397 . S
C1728 C1729 1.334 . S
C1729 H1706 0.950 . S
C1729 C1728 1.334 . S
C1729 C1730 1.287 . S
C1730 C1729 1.287 . S
C1730 C1731 1.524 . S
C1730 H1749 0.913 . S
C1731 H1707 0.950 . S
C1731 C1730 1.524 . S
C1731 C1732 1.415 . S
C1732 H1708 0.950 . S
C1732 C1727 1.363 . S
C1732 C1731 1.415 . S
C1733 H1709 0.951 . S
C1733 C1734 1.366 . S
C1733 C1735 1.388 . S
C1734 C1733 1.366 . S
C1734 C1738 1.385 . S
C1735 H1710 0.951 . S
C1735 C1733 1.388 . S
C1735 C1736 1.366 . S
C1736 C1735 1.366 . S
C1736 C1737 1.414 . S
C1736 C1739 1.499 . S
C1737 H1711 0.950 . S
C1737 C1736 1.414 . S
C1737 C1738 1.374 . S
C1738 H1712 0.950 . S
C1738 C1734 1.385 . S
C1738 C1737 1.374 . S
C1739 C1736 1.499 . S
C1739 C1740 1.373 . S
C1739 C1741 1.389 . S
C1740 H1713 0.950 . S
C1740 C1726 1.377 . S
C1740 C1739 1.373 . S
C1741 C1725 1.377 . S
C1741 C1739 1.389 . S
C1741 C1742 1.524 . S
C1742 C1741 1.524 . S
C1742 C1743 1.397 . S
C1742 C1747 1.363 . S
C1743 H1714 0.950 . S
C1743 C1742 1.397 . S
C1743 C1744 1.334 . S
C1744 H1715 0.950 . S
C1744 C1743 1.334 . S
C1744 C1745 1.287 . S
C1745 C1744 1.287 . S
C1745 C1746 1.524 . S
C1745 H1748 0.999 . S
C1746 H1716 0.950 . S
C1746 C1745 1.524 . S
C1746 C1747 1.415 . S
C1747 H1717 0.950 . S
C1747 C1742 1.363 . S
C1747 C1746 1.415 . S
H1748 C1745 0.999 . S
H1749 C1730 0.913 . S
H1750 C1768 0.951 . S
H1751 C1770 0.951 . S
H1752 C1772 0.950 . S
H1753 C1773 0.950 . S
H1754 C1775 0.950 . S
H1755 C1778 0.950 . S
H1756 C1779 0.950 . S
H1757 C1781 0.950 . S
H1758 C1782 0.950 . S
H1759 C1783 0.951 . S
H1760 C1785 0.951 . S
H1761 C1787 0.950 . S
H1762 C1788 0.950 . S
H1763 C1790 0.950 . S
H1764 C1793 0.950 . S
H1765 C1794 0.950 . S
H1766 C1796 0.950 . S
H1767 C1797 0.950 . S
C1768 H1750 0.951 . S
C1768 C1769 1.366 . S
C1768 C1770 1.388 . S
C1769 C1768 1.366 . S
C1769 C1773 1.385 . S
C1770 H1751 0.951 . S
C1770 C1768 1.388 . S
C1770 C1771 1.366 . S
C1771 C1770 1.366 . S
C1771 C1772 1.414 . S
C1771 C1774 1.499 . S
C1772 H1752 0.950 . S
C1772 C1771 1.414 . S
C1772 C1773 1.374 . S
C1773 H1753 0.950 . S
C1773 C1769 1.385 . S
C1773 C1772 1.374 . S
C1774 C1771 1.499 . S
C1774 C1775 1.373 . S
C1774 C1776 1.389 . S
C1775 H1754 0.950 . S
C1775 C1774 1.373 . S
C1775 C1791 1.377 . S
C1776 C1774 1.389 . S
C1776 C1777 1.524 . S
C1776 C1790 1.377 . S
C1777 C1776 1.524 . S
C1777 C1778 1.397 . S
C1777 C1782 1.363 . S
C1778 H1755 0.950 . S
C1778 C1777 1.397 . S
C1778 C1779 1.334 . S
C1779 H1756 0.950 . S
C1779 C1778 1.334 . S
C1779 C1780 1.287 . S
C1780 C1779 1.287 . S
C1780 C1781 1.524 . S
C1780 H1799 0.913 . S
C1781 H1757 0.950 . S
C1781 C1780 1.524 . S
C1781 C1782 1.415 . S
C1782 H1758 0.950 . S
C1782 C1777 1.363 . S
C1782 C1781 1.415 . S
C1783 H1759 0.951 . S
C1783 C1784 1.366 . S
C1783 C1785 1.388 . S
C1784 C1783 1.366 . S
C1784 C1788 1.385 . S
C1785 H1760 0.951 . S
C1785 C1783 1.388 . S
C1785 C1786 1.366 . S
C1786 C1785 1.366 . S
C1786 C1787 1.414 . S
C1786 C1789 1.499 . S
C1787 H1761 0.950 . S
C1787 C1786 1.414 . S
C1787 C1788 1.374 . S
C1788 H1762 0.950 . S
C1788 C1784 1.385 . S
C1788 C1787 1.374 . S
C1789 C1786 1.499 . S
C1789 C1790 1.373 . S
C1789 C1791 1.389 . S
C1790 H1763 0.950 . S
C1790 C1776 1.377 . S
C1790 C1789 1.373 . S
C1791 C1775 1.377 . S
C1791 C1789 1.389 . S
C1791 C1792 1.524 . S
C1792 C1791 1.524 . S
C1792 C1793 1.397 . S
C1792 C1797 1.363 . S
C1793 H1764 0.950 . S
C1793 C1792 1.397 . S
C1793 C1794 1.334 . S
C1794 H1765 0.950 . S
C1794 C1793 1.334 . S
C1794 C1795 1.287 . S
C1795 C1794 1.287 . S
C1795 C1796 1.524 . S
C1795 H1798 0.999 . S
C1796 H1766 0.950 . S
C1796 C1795 1.524 . S
C1796 C1797 1.415 . S
C1797 H1767 0.950 . S
C1797 C1792 1.363 . S
C1797 C1796 1.415 . S
H1798 C1795 0.999 . S
H1799 C1780 0.913 . S
H1800 C1818 0.951 . S
H1801 C1820 0.951 . S
H1802 C1822 0.950 . S
H1803 C1823 0.950 . S
H1804 C1825 0.950 . S
H1805 C1828 0.950 . S
H1806 C1829 0.950 . S
H1807 C1831 0.950 . S
H1808 C1832 0.950 . S
H1809 C1833 0.951 . S
H1810 C1835 0.951 . S
H1811 C1837 0.950 . S
H1812 C1838 0.950 . S
H1813 C1840 0.950 . S
H1814 C1843 0.950 . S
H1815 C1844 0.950 . S
H1816 C1846 0.950 . S
H1817 C1847 0.950 . S
C1818 H1800 0.951 . S
C1818 C1819 1.366 . S
C1818 C1820 1.388 . S
C1819 C1818 1.366 . S
C1819 C1823 1.385 . S
C1820 H1801 0.951 . S
C1820 C1818 1.388 . S
C1820 C1821 1.366 . S
C1821 C1820 1.366 . S
C1821 C1822 1.414 . S
C1821 C1824 1.499 . S
C1822 H1802 0.950 . S
C1822 C1821 1.414 . S
C1822 C1823 1.374 . S
C1823 H1803 0.950 . S
C1823 C1819 1.385 . S
C1823 C1822 1.374 . S
C1824 C1821 1.499 . S
C1824 C1825 1.373 . S
C1824 C1826 1.389 . S
C1825 H1804 0.950 . S
C1825 C1824 1.373 . S
C1825 C1841 1.377 . S
C1826 C1824 1.389 . S
C1826 C1827 1.524 . S
C1826 C1840 1.377 . S
C1827 C1826 1.524 . S
C1827 C1828 1.397 . S
C1827 C1832 1.363 . S
C1828 H1805 0.950 . S
C1828 C1827 1.397 . S
C1828 C1829 1.334 . S
C1829 H1806 0.950 . S
C1829 C1828 1.334 . S
C1829 C1830 1.287 . S
C1830 C1829 1.287 . S
C1830 C1831 1.524 . S
C1830 H1849 0.913 . S
C1831 H1807 0.950 . S
C1831 C1830 1.524 . S
C1831 C1832 1.415 . S
C1832 H1808 0.950 . S
C1832 C1827 1.363 . S
C1832 C1831 1.415 . S
C1833 H1809 0.951 . S
C1833 C1834 1.366 . S
C1833 C1835 1.388 . S
C1834 C1833 1.366 . S
C1834 C1838 1.385 . S
C1835 H1810 0.951 . S
C1835 C1833 1.388 . S
C1835 C1836 1.366 . S
C1836 C1835 1.366 . S
C1836 C1837 1.414 . S
C1836 C1839 1.499 . S
C1837 H1811 0.950 . S
C1837 C1836 1.414 . S
C1837 C1838 1.374 . S
C1838 H1812 0.950 . S
C1838 C1834 1.385 . S
C1838 C1837 1.374 . S
C1839 C1836 1.499 . S
C1839 C1840 1.373 . S
C1839 C1841 1.389 . S
C1840 H1813 0.950 . S
C1840 C1826 1.377 . S
C1840 C1839 1.373 . S
C1841 C1825 1.377 . S
C1841 C1839 1.389 . S
C1841 C1842 1.524 . S
C1842 C1841 1.524 . S
C1842 C1843 1.397 . S
C1842 C1847 1.363 . S
C1843 H1814 0.950 . S
C1843 C1842 1.397 . S
C1843 C1844 1.334 . S
C1844 H1815 0.950 . S
C1844 C1843 1.334 . S
C1844 C1845 1.287 . S
C1845 C1844 1.287 . S
C1845 C1846 1.524 . S
C1845 H1848 0.999 . S
C1846 H1816 0.950 . S
C1846 C1845 1.524 . S
C1846 C1847 1.415 . S
C1847 H1817 0.950 . S
C1847 C1842 1.363 . S
C1847 C1846 1.415 . S
H1848 C1845 0.999 . S
H1849 C1830 0.913 . S
H1850 C1868 0.951 . S
H1851 C1870 0.951 . S
H1852 C1872 0.950 . S
H1853 C1873 0.950 . S
H1854 C1875 0.950 . S
H1855 C1878 0.950 . S
H1856 C1879 0.950 . S
H1857 C1881 0.950 . S
H1858 C1882 0.950 . S
H1859 C1883 0.951 . S
H1860 C1885 0.951 . S
H1861 C1887 0.950 . S
H1862 C1888 0.950 . S
H1863 C1890 0.950 . S
H1864 C1893 0.950 . S
H1865 C1894 0.950 . S
H1866 C1896 0.950 . S
H1867 C1897 0.950 . S
C1868 H1850 0.951 . S
C1868 C1869 1.366 . S
C1868 C1870 1.388 . S
C1869 C1868 1.366 . S
C1869 C1873 1.385 . S
C1870 H1851 0.951 . S
C1870 C1868 1.388 . S
C1870 C1871 1.366 . S
C1871 C1870 1.366 . S
C1871 C1872 1.414 . S
C1871 C1874 1.499 . S
C1872 H1852 0.950 . S
C1872 C1871 1.414 . S
C1872 C1873 1.374 . S
C1873 H1853 0.950 . S
C1873 C1869 1.385 . S
C1873 C1872 1.374 . S
C1874 C1871 1.499 . S
C1874 C1875 1.373 . S
C1874 C1876 1.389 . S
C1875 H1854 0.950 . S
C1875 C1874 1.373 . S
C1875 C1891 1.377 . S
C1876 C1874 1.389 . S
C1876 C1877 1.524 . S
C1876 C1890 1.377 . S
C1877 C1876 1.524 . S
C1877 C1878 1.397 . S
C1877 C1882 1.363 . S
C1878 H1855 0.950 . S
C1878 C1877 1.397 . S
C1878 C1879 1.334 . S
C1879 H1856 0.950 . S
C1879 C1878 1.334 . S
C1879 C1880 1.287 . S
C1880 C1879 1.287 . S
C1880 C1881 1.524 . S
C1880 H1899 0.913 . S
C1881 H1857 0.950 . S
C1881 C1880 1.524 . S
C1881 C1882 1.415 . S
C1882 H1858 0.950 . S
C1882 C1877 1.363 . S
C1882 C1881 1.415 . S
C1883 H1859 0.951 . S
C1883 C1884 1.366 . S
C1883 C1885 1.388 . S
C1884 C1883 1.366 . S
C1884 C1888 1.385 . S
C1885 H1860 0.951 . S
C1885 C1883 1.388 . S
C1885 C1886 1.366 . S
C1886 C1885 1.366 . S
C1886 C1887 1.414 . S
C1886 C1889 1.499 . S
C1887 H1861 0.950 . S
C1887 C1886 1.414 . S
C1887 C1888 1.374 . S
C1888 H1862 0.950 . S
C1888 C1884 1.385 . S
C1888 C1887 1.374 . S
C1889 C1886 1.499 . S
C1889 C1890 1.373 . S
C1889 C1891 1.389 . S
C1890 H1863 0.950 . S
C1890 C1876 1.377 . S
C1890 C1889 1.373 . S
C1891 C1875 1.377 . S
C1891 C1889 1.389 . S
C1891 C1892 1.524 . S
C1892 C1891 1.524 . S
C1892 C1893 1.397 . S
C1892 C1897 1.363 . S
C1893 H1864 0.950 . S
C1893 C1892 1.397 . S
C1893 C1894 1.334 . S
C1894 H1865 0.950 . S
C1894 C1893 1.334 . S
C1894 C1895 1.287 . S
C1895 C1894 1.287 . S
C1895 C1896 1.524 . S
C1895 H1898 0.999 . S
C1896 H1866 0.950 . S
C1896 C1895 1.524 . S
C1896 C1897 1.415 . S
C1897 H1867 0.950 . S
C1897 C1892 1.363 . S
C1897 C1896 1.415 . S
H1898 C1895 0.999 . S
H1899 C1880 0.913 . S
H1900 C1918 0.951 . S
H1901 C1920 0.951 . S
H1902 C1922 0.950 . S
H1903 C1923 0.950 . S
H1904 C1925 0.950 . S
H1905 C1928 0.950 . S
H1906 C1929 0.950 . S
H1907 C1931 0.950 . S
H1908 C1932 0.950 . S
H1909 C1933 0.951 . S
H1910 C1935 0.951 . S
H1911 C1937 0.950 . S
H1912 C1938 0.950 . S
H1913 C1940 0.950 . S
H1914 C1943 0.950 . S
H1915 C1944 0.950 . S
H1916 C1946 0.950 . S
H1917 C1947 0.950 . S
C1918 H1900 0.951 . S
C1918 C1919 1.366 . S
C1918 C1920 1.388 . S
C1919 C1918 1.366 . S
C1919 C1923 1.385 . S
C1920 H1901 0.951 . S
C1920 C1918 1.388 . S
C1920 C1921 1.366 . S
C1921 C1920 1.366 . S
C1921 C1922 1.414 . S
C1921 C1924 1.499 . S
C1922 H1902 0.950 . S
C1922 C1921 1.414 . S
C1922 C1923 1.374 . S
C1923 H1903 0.950 . S
C1923 C1919 1.385 . S
C1923 C1922 1.374 . S
C1924 C1921 1.499 . S
C1924 C1925 1.373 . S
C1924 C1926 1.389 . S
C1925 H1904 0.950 . S
C1925 C1924 1.373 . S
C1925 C1941 1.377 . S
C1926 C1924 1.389 . S
C1926 C1927 1.524 . S
C1926 C1940 1.377 . S
C1927 C1926 1.524 . S
C1927 C1928 1.397 . S
C1927 C1932 1.363 . S
C1928 H1905 0.950 . S
C1928 C1927 1.397 . S
C1928 C1929 1.334 . S
C1929 H1906 0.950 . S
C1929 C1928 1.334 . S
C1929 C1930 1.287 . S
C1930 C1929 1.287 . S
C1930 C1931 1.524 . S
C1930 H1949 0.913 . S
C1931 H1907 0.950 . S
C1931 C1930 1.524 . S
C1931 C1932 1.415 . S
C1932 H1908 0.950 . S
C1932 C1927 1.363 . S
C1932 C1931 1.415 . S
C1933 H1909 0.951 . S
C1933 C1934 1.366 . S
C1933 C1935 1.388 . S
C1934 C1933 1.366 . S
C1934 C1938 1.385 . S
C1935 H1910 0.951 . S
C1935 C1933 1.388 . S
C1935 C1936 1.366 . S
C1936 C1935 1.366 . S
C1936 C1937 1.414 . S
C1936 C1939 1.499 . S
C1937 H1911 0.950 . S
C1937 C1936 1.414 . S
C1937 C1938 1.374 . S
C1938 H1912 0.950 . S
C1938 C1934 1.385 . S
C1938 C1937 1.374 . S
C1939 C1936 1.499 . S
C1939 C1940 1.373 . S
C1939 C1941 1.389 . S
C1940 H1913 0.950 . S
C1940 C1926 1.377 . S
C1940 C1939 1.373 . S
C1941 C1925 1.377 . S
C1941 C1939 1.389 . S
C1941 C1942 1.524 . S
C1942 C1941 1.524 . S
C1942 C1943 1.397 . S
C1942 C1947 1.363 . S
C1943 H1914 0.950 . S
C1943 C1942 1.397 . S
C1943 C1944 1.334 . S
C1944 H1915 0.950 . S
C1944 C1943 1.334 . S
C1944 C1945 1.287 . S
C1945 C1944 1.287 . S
C1945 C1946 1.524 . S
C1945 H1948 0.999 . S
C1946 H1916 0.950 . S
C1946 C1945 1.524 . S
C1946 C1947 1.415 . S
C1947 H1917 0.950 . S
C1947 C1942 1.363 . S
C1947 C1946 1.415 . S
H1948 C1945 0.999 . S
H1949 C1930 0.913 . S
H1950 C1968 0.951 . S
H1951 C1970 0.951 . S
H1952 C1972 0.950 . S
H1953 C1973 0.950 . S
H1954 C1975 0.950 . S
H1955 C1978 0.950 . S
H1956 C1979 0.950 . S
H1957 C1981 0.950 . S
H1958 C1982 0.950 . S
H1959 C1983 0.951 . S
H1960 C1985 0.951 . S
H1961 C1987 0.950 . S
H1962 C1988 0.950 . S
H1963 C1990 0.950 . S
H1964 C1993 0.950 . S
H1965 C1994 0.950 . S
H1966 C1996 0.950 . S
H1967 C1997 0.950 . S
C1968 H1950 0.951 . S
C1968 C1969 1.366 . S
C1968 C1970 1.388 . S
C1969 C1968 1.366 . S
C1969 C1973 1.385 . S
C1970 H1951 0.951 . S
C1970 C1968 1.388 . S
C1970 C1971 1.366 . S
C1971 C1970 1.366 . S
C1971 C1972 1.414 . S
C1971 C1974 1.499 . S
C1972 H1952 0.950 . S
C1972 C1971 1.414 . S
C1972 C1973 1.374 . S
C1973 H1953 0.950 . S
C1973 C1969 1.385 . S
C1973 C1972 1.374 . S
C1974 C1971 1.499 . S
C1974 C1975 1.373 . S
C1974 C1976 1.389 . S
C1975 H1954 0.950 . S
C1975 C1974 1.373 . S
C1975 C1991 1.377 . S
C1976 C1974 1.389 . S
C1976 C1977 1.524 . S
C1976 C1990 1.377 . S
C1977 C1976 1.524 . S
C1977 C1978 1.397 . S
C1977 C1982 1.363 . S
C1978 H1955 0.950 . S
C1978 C1977 1.397 . S
C1978 C1979 1.334 . S
C1979 H1956 0.950 . S
C1979 C1978 1.334 . S
C1979 C1980 1.287 . S
C1980 C1979 1.287 . S
C1980 C1981 1.524 . S
C1980 H1999 0.913 . S
C1981 H1957 0.950 . S
C1981 C1980 1.524 . S
C1981 C1982 1.415 . S
C1982 H1958 0.950 . S
C1982 C1977 1.363 . S
C1982 C1981 1.415 . S
C1983 H1959 0.951 . S
C1983 C1984 1.366 . S
C1983 C1985 1.388 . S
C1984 C1983 1.366 . S
C1984 C1988 1.385 . S
C1985 H1960 0.951 . S
C1985 C1983 1.388 . S
C1985 C1986 1.366 . S
C1986 C1985 1.366 . S
C1986 C1987 1.414 . S
C1986 C1989 1.499 . S
C1987 H1961 0.950 . S
C1987 C1986 1.414 . S
C1987 C1988 1.374 . S
C1988 H1962 0.950 . S
C1988 C1984 1.385 . S
C1988 C1987 1.374 . S
C1989 C1986 1.499 . S
C1989 C1990 1.373 . S
C1989 C1991 1.389 . S
C1990 H1963 0.950 . S
C1990 C1976 1.377 . S
C1990 C1989 1.373 . S
C1991 C1975 1.377 . S
C1991 C1989 1.389 . S
C1991 C1992 1.524 . S
C1992 C1991 1.524 . S
C1992 C1993 1.397 . S
C1992 C1997 1.363 . S
C1993 H1964 0.950 . S
C1993 C1992 1.397 . S
C1993 C1994 1.334 . S
C1994 H1965 0.950 . S
C1994 C1993 1.334 . S
C1994 C1995 1.287 . S
C1995 C1994 1.287 . S
C1995 C1996 1.524 . S
C1995 H1998 0.999 . S
C1996 H1966 0.950 . S
C1996 C1995 1.524 . S
C1996 C1997 1.415 . S
C1997 H1967 0.950 . S
C1997 C1992 1.363 . S
C1997 C1996 1.415 . S
H1998 C1995 0.999 . S
H1999 C1980 0.913 . S
H2000 C2018 0.951 . S
H2001 C2020 0.951 . S
H2002 C2022 0.950 . S
H2003 C2023 0.950 . S
H2004 C2025 0.950 . S
H2005 C2028 0.950 . S
H2006 C2029 0.950 . S
H2007 C2031 0.950 . S
H2008 C2032 0.950 . S
H2009 C2033 0.948 1_556 S
H2010 C2035 0.951 . S
H2011 C2037 0.950 . S
H2012 C2038 0.950 . S
H2013 C2040 0.950 . S
H2014 C2043 0.950 . S
H2015 C2044 0.950 . S
H2016 C2046 0.950 . S
H2017 C2047 0.950 . S
C2018 H2000 0.951 . S
C2018 C2019 1.366 . S
C2018 C2020 1.388 . S
C2019 C2018 1.366 . S
C2019 C2023 1.385 . S
C2020 H2001 0.951 . S
C2020 C2018 1.388 . S
C2020 C2021 1.366 . S
C2021 C2020 1.366 . S
C2021 C2022 1.414 . S
C2021 C2024 1.499 . S
C2022 H2002 0.950 . S
C2022 C2021 1.414 . S
C2022 C2023 1.374 . S
C2023 H2003 0.950 . S
C2023 C2019 1.385 . S
C2023 C2022 1.374 . S
C2024 C2021 1.499 . S
C2024 C2025 1.373 . S
C2024 C2026 1.389 . S
C2025 H2004 0.950 . S
C2025 C2024 1.373 . S
C2025 C2041 1.377 . S
C2026 C2024 1.389 . S
C2026 C2027 1.524 . S
C2026 C2040 1.377 . S
C2027 C2026 1.524 . S
C2027 C2028 1.397 . S
C2027 C2032 1.363 . S
C2028 H2005 0.950 . S
C2028 C2027 1.397 . S
C2028 C2029 1.334 . S
C2029 H2006 0.950 . S
C2029 C2028 1.334 . S
C2029 C2030 1.287 . S
C2030 C2029 1.287 . S
C2030 C2031 1.524 . S
C2030 H2049 0.913 . S
C2031 H2007 0.950 . S
C2031 C2030 1.524 . S
C2031 C2032 1.415 . S
C2032 H2008 0.950 . S
C2032 C2027 1.363 . S
C2032 C2031 1.415 . S
C2033 H2009 0.948 1_554 S
C2033 C2034 1.365 1_554 S
C2033 C2035 1.389 . S
C2034 C2033 1.365 1_556 S
C2034 C2038 1.385 . S
C2035 H2010 0.951 . S
C2035 C2033 1.389 . S
C2035 C2036 1.366 . S
C2036 C2035 1.366 . S
C2036 C2037 1.414 . S
C2036 C2039 1.499 . S
C2037 H2011 0.950 . S
C2037 C2036 1.414 . S
C2037 C2038 1.374 1_554 S
C2038 H2012 0.950 . S
C2038 C2034 1.385 . S
C2038 C2037 1.374 1_556 S
C2039 C2036 1.499 . S
C2039 C2040 1.373 . S
C2039 C2041 1.389 . S
C2040 H2013 0.950 . S
C2040 C2026 1.377 . S
C2040 C2039 1.373 . S
C2041 C2025 1.377 . S
C2041 C2039 1.389 . S
C2041 C2042 1.524 . S
C2042 C2041 1.524 . S
C2042 C2043 1.397 1_554 S
C2042 C2047 1.363 . S
C2043 H2014 0.950 . S
C2043 C2042 1.397 1_556 S
C2043 C2044 1.334 . S
C2044 H2015 0.950 . S
C2044 C2043 1.334 . S
C2044 C2045 1.287 . S
C2045 C2044 1.287 . S
C2045 C2046 1.524 1_556 S
C2045 H2048 0.999 . S
C2046 H2016 0.950 . S
C2046 C2045 1.524 1_554 S
C2046 C2047 1.415 . S
C2047 H2017 0.950 . S
C2047 C2042 1.363 . S
C2047 C2046 1.415 . S
H2048 C2045 0.999 . S
H2049 C2030 0.913 . S
H2050 C2068 0.951 . S
H2051 C2070 0.951 . S
H2052 C2072 0.950 . S
H2053 C2073 0.950 . S
H2054 C2075 0.950 . S
H2055 C2078 0.950 . S
H2056 C2079 0.950 . S
H2057 C2081 0.950 . S
H2058 C2082 0.950 . S
H2059 C2083 0.951 . S
H2060 C2085 0.951 . S
H2061 C2087 0.950 . S
H2062 C2088 0.950 . S
H2063 C2090 0.950 . S
H2064 C2093 0.950 . S
H2065 C2094 0.950 . S
H2066 C2096 0.950 . S
H2067 C2097 0.950 . S
C2068 H2050 0.951 . S
C2068 C2069 1.366 . S
C2068 C2070 1.388 . S
C2069 C2068 1.366 . S
C2069 C2073 1.385 . S
C2070 H2051 0.951 . S
C2070 C2068 1.388 . S
C2070 C2071 1.366 . S
C2071 C2070 1.366 . S
C2071 C2072 1.414 . S
C2071 C2074 1.499 . S
C2072 H2052 0.950 . S
C2072 C2071 1.414 . S
C2072 C2073 1.374 . S
C2073 H2053 0.950 . S
C2073 C2069 1.385 . S
C2073 C2072 1.374 . S
C2074 C2071 1.499 . S
C2074 C2075 1.373 . S
C2074 C2076 1.389 . S
C2075 H2054 0.950 . S
C2075 C2074 1.373 . S
C2075 C2091 1.377 . S
C2076 C2074 1.389 . S
C2076 C2077 1.524 . S
C2076 C2090 1.377 . S
C2077 C2076 1.524 . S
C2077 C2078 1.397 . S
C2077 C2082 1.363 . S
C2078 H2055 0.950 . S
C2078 C2077 1.397 . S
C2078 C2079 1.334 . S
C2079 H2056 0.950 . S
C2079 C2078 1.334 . S
C2079 C2080 1.287 . S
C2080 C2079 1.287 . S
C2080 C2081 1.524 . S
C2080 H2099 0.913 . S
C2081 H2057 0.950 . S
C2081 C2080 1.524 . S
C2081 C2082 1.415 . S
C2082 H2058 0.950 . S
C2082 C2077 1.363 . S
C2082 C2081 1.415 . S
C2083 H2059 0.951 . S
C2083 C2084 1.366 . S
C2083 C2085 1.388 . S
C2084 C2083 1.366 . S
C2084 C2088 1.385 . S
C2085 H2060 0.951 . S
C2085 C2083 1.388 . S
C2085 C2086 1.366 . S
C2086 C2085 1.366 . S
C2086 C2087 1.414 . S
C2086 C2089 1.499 . S
C2087 H2061 0.950 . S
C2087 C2086 1.414 . S
C2087 C2088 1.374 . S
C2088 H2062 0.950 . S
C2088 C2084 1.385 . S
C2088 C2087 1.374 . S
C2089 C2086 1.499 . S
C2089 C2090 1.373 . S
C2089 C2091 1.389 . S
C2090 H2063 0.950 . S
C2090 C2076 1.377 . S
C2090 C2089 1.373 . S
C2091 C2075 1.377 . S
C2091 C2089 1.389 . S
C2091 C2092 1.524 . S
C2092 C2091 1.524 . S
C2092 C2093 1.397 . S
C2092 C2097 1.363 . S
C2093 H2064 0.950 . S
C2093 C2092 1.397 . S
C2093 C2094 1.334 . S
C2094 H2065 0.950 . S
C2094 C2093 1.334 . S
C2094 C2095 1.287 . S
C2095 C2094 1.287 . S
C2095 C2096 1.524 . S
C2095 H2098 0.999 . S
C2096 H2066 0.950 . S
C2096 C2095 1.524 . S
C2096 C2097 1.415 . S
C2097 H2067 0.950 . S
C2097 C2092 1.363 . S
C2097 C2096 1.415 . S
H2098 C2095 0.999 . S
H2099 C2080 0.913 . S
C934 C841 1.678 . S
C919 C29 1.610 . S
C969 C115 1.546 . S
C984 C401 1.559 . S
C1019 C153 1.595 . S
C1034 C489 1.670 . S
C1069 C239 1.570 . S
C1084 C568 1.581 . S
C1134 C665 1.604 . S
C1119 C301 1.583 . S
C1169 C339 1.881 . S
C1184 C744 1.970 . S
C1219 C91 1.595 . S
C1234 C509 1.670 . S
C1269 C177 1.546 . S
C1284 C605 1.559 . S
C1319 C215 1.609 . S
C1334 C685 1.678 . S
C1384 C781 1.969 . S
C1369 C277 1.879 . S
C1434 C861 1.605 . S
C1419 C363 1.583 . S
C1484 C421 1.580 . S
C1469 C53 1.570 . S
C1519 C35 1.521 . S
C1534 C517 1.552 . S
C1569 C109 1.383 . S
C1584 C597 1.497 . S
C1634 C693 1.411 . S
C1619 C159 1.386 . S
C1669 C233 1.607 . S
C1684 C773 1.728 1_556 S
C1734 C869 1.534 . S
C1719 C295 1.406 . S
C1784 C429 1.327 . S
C1769 C345 1.305 . S
C1834 C832 1.412 . S
C1819 C97 1.387 . S
C1869 C171 1.383 . S
C1884 C392 1.496 . S
C1934 C480 1.551 . S
C1919 C221 1.521 . S
C1969 C283 1.305 . S
C1984 C577 1.328 . S
C2019 C357 1.406 . S
C2034 C656 1.534 . S
C2069 C47 1.608 . S
C2084 C753 1.732 . S
